# Generated by pormake.
# Topology fcg, (5)-cn, num edge types: 1
# Building blocks:
#     Node 0, Type 0, BuildingBlock: XOMCOT_clean_sbu_0, # of connection points: 5
#     Node 1, Type 0, BuildingBlock: XOMCOT_clean_sbu_0, # of connection points: 5
#     Node 2, Type 0, BuildingBlock: XOMCOT_clean_sbu_0, # of connection points: 5
#     Node 3, Type 0, BuildingBlock: XOMCOT_clean_sbu_0, # of connection points: 5
#     Node 4, Type 0, BuildingBlock: XOMCOT_clean_sbu_0, # of connection points: 5
#     Node 5, Type 0, BuildingBlock: XOMCOT_clean_sbu_0, # of connection points: 5
#     Node 6, Type 0, BuildingBlock: XOMCOT_clean_sbu_0, # of connection points: 5
#     Node 7, Type 0, BuildingBlock: XOMCOT_clean_sbu_0, # of connection points: 5
#     Node 8, Type 0, BuildingBlock: XOMCOT_clean_sbu_0, # of connection points: 5
#     Node 9, Type 0, BuildingBlock: XOMCOT_clean_sbu_0, # of connection points: 5
#     Node 10, Type 0, BuildingBlock: XOMCOT_clean_sbu_0, # of connection points: 5
#     Node 11, Type 0, BuildingBlock: XOMCOT_clean_sbu_0, # of connection points: 5
#     Node 12, Type 0, BuildingBlock: XOMCOT_clean_sbu_0, # of connection points: 5
#     Node 13, Type 0, BuildingBlock: XOMCOT_clean_sbu_0, # of connection points: 5
#     Node 14, Type 0, BuildingBlock: XOMCOT_clean_sbu_0, # of connection points: 5
#     Node 15, Type 0, BuildingBlock: XOMCOT_clean_sbu_0, # of connection points: 5
#     Node 16, Type 0, BuildingBlock: XOMCOT_clean_sbu_0, # of connection points: 5
#     Node 17, Type 0, BuildingBlock: XOMCOT_clean_sbu_0, # of connection points: 5
#     Node 18, Type 0, BuildingBlock: XOMCOT_clean_sbu_0, # of connection points: 5
#     Node 19, Type 0, BuildingBlock: XOMCOT_clean_sbu_0, # of connection points: 5
#     Node 20, Type 0, BuildingBlock: XOMCOT_clean_sbu_0, # of connection points: 5
#     Node 21, Type 0, BuildingBlock: XOMCOT_clean_sbu_0, # of connection points: 5
#     Node 22, Type 0, BuildingBlock: XOMCOT_clean_sbu_0, # of connection points: 5
#     Node 23, Type 0, BuildingBlock: XOMCOT_clean_sbu_0, # of connection points: 5
#     Node 24, Type 0, BuildingBlock: XOMCOT_clean_sbu_0, # of connection points: 5
#     Node 25, Type 0, BuildingBlock: XOMCOT_clean_sbu_0, # of connection points: 5
#     Node 26, Type 0, BuildingBlock: XOMCOT_clean_sbu_0, # of connection points: 5
#     Node 27, Type 0, BuildingBlock: XOMCOT_clean_sbu_0, # of connection points: 5
#     Node 28, Type 0, BuildingBlock: XOMCOT_clean_sbu_0, # of connection points: 5
#     Node 29, Type 0, BuildingBlock: XOMCOT_clean_sbu_0, # of connection points: 5
#     Node 30, Type 0, BuildingBlock: XOMCOT_clean_sbu_0, # of connection points: 5
#     Node 31, Type 0, BuildingBlock: XOMCOT_clean_sbu_0, # of connection points: 5
#     Node 32, Type 0, BuildingBlock: XOMCOT_clean_sbu_0, # of connection points: 5
#     Node 33, Type 0, BuildingBlock: XOMCOT_clean_sbu_0, # of connection points: 5
#     Node 34, Type 0, BuildingBlock: XOMCOT_clean_sbu_0, # of connection points: 5
#     Node 35, Type 0, BuildingBlock: XOMCOT_clean_sbu_0, # of connection points: 5
#     Node 36, Type 0, BuildingBlock: XOMCOT_clean_sbu_0, # of connection points: 5
#     Node 37, Type 0, BuildingBlock: XOMCOT_clean_sbu_0, # of connection points: 5
#     Node 38, Type 0, BuildingBlock: XOMCOT_clean_sbu_0, # of connection points: 5
#     Node 39, Type 0, BuildingBlock: XOMCOT_clean_sbu_0, # of connection points: 5
#     Node 40, Type 0, BuildingBlock: XOMCOT_clean_sbu_0, # of connection points: 5
#     Node 41, Type 0, BuildingBlock: XOMCOT_clean_sbu_0, # of connection points: 5
#     Node 42, Type 0, BuildingBlock: XOMCOT_clean_sbu_0, # of connection points: 5
#     Node 43, Type 0, BuildingBlock: XOMCOT_clean_sbu_0, # of connection points: 5
#     Node 44, Type 0, BuildingBlock: XOMCOT_clean_sbu_0, # of connection points: 5
#     Node 45, Type 0, BuildingBlock: XOMCOT_clean_sbu_0, # of connection points: 5
#     Node 46, Type 0, BuildingBlock: XOMCOT_clean_sbu_0, # of connection points: 5
#     Node 47, Type 0, BuildingBlock: XOMCOT_clean_sbu_0, # of connection points: 5
#     Edge 48, Type (0, 0), BuildingBlock: CIFDUS_clean_linker_0, # of connection points: 2
#     Edge 49, Type (0, 0), BuildingBlock: CIFDUS_clean_linker_0, # of connection points: 2
#     Edge 50, Type (0, 0), BuildingBlock: CIFDUS_clean_linker_0, # of connection points: 2
#     Edge 51, Type (0, 0), BuildingBlock: CIFDUS_clean_linker_0, # of connection points: 2
#     Edge 52, Type (0, 0), BuildingBlock: CIFDUS_clean_linker_0, # of connection points: 2
#     Edge 53, Type (0, 0), BuildingBlock: CIFDUS_clean_linker_0, # of connection points: 2
#     Edge 54, Type (0, 0), BuildingBlock: CIFDUS_clean_linker_0, # of connection points: 2
#     Edge 55, Type (0, 0), BuildingBlock: CIFDUS_clean_linker_0, # of connection points: 2
#     Edge 56, Type (0, 0), BuildingBlock: CIFDUS_clean_linker_0, # of connection points: 2
#     Edge 57, Type (0, 0), BuildingBlock: CIFDUS_clean_linker_0, # of connection points: 2
#     Edge 58, Type (0, 0), BuildingBlock: CIFDUS_clean_linker_0, # of connection points: 2
#     Edge 59, Type (0, 0), BuildingBlock: CIFDUS_clean_linker_0, # of connection points: 2
#     Edge 60, Type (0, 0), BuildingBlock: CIFDUS_clean_linker_0, # of connection points: 2
#     Edge 61, Type (0, 0), BuildingBlock: CIFDUS_clean_linker_0, # of connection points: 2
#     Edge 62, Type (0, 0), BuildingBlock: CIFDUS_clean_linker_0, # of connection points: 2
#     Edge 63, Type (0, 0), BuildingBlock: CIFDUS_clean_linker_0, # of connection points: 2
#     Edge 64, Type (0, 0), BuildingBlock: CIFDUS_clean_linker_0, # of connection points: 2
#     Edge 65, Type (0, 0), BuildingBlock: CIFDUS_clean_linker_0, # of connection points: 2
#     Edge 66, Type (0, 0), BuildingBlock: CIFDUS_clean_linker_0, # of connection points: 2
#     Edge 67, Type (0, 0), BuildingBlock: CIFDUS_clean_linker_0, # of connection points: 2
#     Edge 68, Type (0, 0), BuildingBlock: CIFDUS_clean_linker_0, # of connection points: 2
#     Edge 69, Type (0, 0), BuildingBlock: CIFDUS_clean_linker_0, # of connection points: 2
#     Edge 70, Type (0, 0), BuildingBlock: CIFDUS_clean_linker_0, # of connection points: 2
#     Edge 71, Type (0, 0), BuildingBlock: CIFDUS_clean_linker_0, # of connection points: 2
#     Edge 72, Type (0, 0), BuildingBlock: CIFDUS_clean_linker_0, # of connection points: 2
#     Edge 73, Type (0, 0), BuildingBlock: CIFDUS_clean_linker_0, # of connection points: 2
#     Edge 74, Type (0, 0), BuildingBlock: CIFDUS_clean_linker_0, # of connection points: 2
#     Edge 75, Type (0, 0), BuildingBlock: CIFDUS_clean_linker_0, # of connection points: 2
#     Edge 76, Type (0, 0), BuildingBlock: CIFDUS_clean_linker_0, # of connection points: 2
#     Edge 77, Type (0, 0), BuildingBlock: CIFDUS_clean_linker_0, # of connection points: 2
#     Edge 78, Type (0, 0), BuildingBlock: CIFDUS_clean_linker_0, # of connection points: 2
#     Edge 79, Type (0, 0), BuildingBlock: CIFDUS_clean_linker_0, # of connection points: 2
#     Edge 80, Type (0, 0), BuildingBlock: CIFDUS_clean_linker_0, # of connection points: 2
#     Edge 81, Type (0, 0), BuildingBlock: CIFDUS_clean_linker_0, # of connection points: 2
#     Edge 82, Type (0, 0), BuildingBlock: CIFDUS_clean_linker_0, # of connection points: 2
#     Edge 83, Type (0, 0), BuildingBlock: CIFDUS_clean_linker_0, # of connection points: 2
#     Edge 84, Type (0, 0), BuildingBlock: CIFDUS_clean_linker_0, # of connection points: 2
#     Edge 85, Type (0, 0), BuildingBlock: CIFDUS_clean_linker_0, # of connection points: 2
#     Edge 86, Type (0, 0), BuildingBlock: CIFDUS_clean_linker_0, # of connection points: 2
#     Edge 87, Type (0, 0), BuildingBlock: CIFDUS_clean_linker_0, # of connection points: 2
#     Edge 88, Type (0, 0), BuildingBlock: CIFDUS_clean_linker_0, # of connection points: 2
#     Edge 89, Type (0, 0), BuildingBlock: CIFDUS_clean_linker_0, # of connection points: 2
#     Edge 90, Type (0, 0), BuildingBlock: CIFDUS_clean_linker_0, # of connection points: 2
#     Edge 91, Type (0, 0), BuildingBlock: CIFDUS_clean_linker_0, # of connection points: 2
#     Edge 92, Type (0, 0), BuildingBlock: CIFDUS_clean_linker_0, # of connection points: 2
#     Edge 93, Type (0, 0), BuildingBlock: CIFDUS_clean_linker_0, # of connection points: 2
#     Edge 94, Type (0, 0), BuildingBlock: CIFDUS_clean_linker_0, # of connection points: 2
#     Edge 95, Type (0, 0), BuildingBlock: CIFDUS_clean_linker_0, # of connection points: 2
#     Edge 96, Type (0, 0), BuildingBlock: CIFDUS_clean_linker_0, # of connection points: 2
#     Edge 97, Type (0, 0), BuildingBlock: CIFDUS_clean_linker_0, # of connection points: 2
#     Edge 98, Type (0, 0), BuildingBlock: CIFDUS_clean_linker_0, # of connection points: 2
#     Edge 99, Type (0, 0), BuildingBlock: CIFDUS_clean_linker_0, # of connection points: 2
#     Edge 100, Type (0, 0), BuildingBlock: CIFDUS_clean_linker_0, # of connection points: 2
#     Edge 101, Type (0, 0), BuildingBlock: CIFDUS_clean_linker_0, # of connection points: 2
#     Edge 102, Type (0, 0), BuildingBlock: CIFDUS_clean_linker_0, # of connection points: 2
#     Edge 103, Type (0, 0), BuildingBlock: CIFDUS_clean_linker_0, # of connection points: 2
#     Edge 104, Type (0, 0), BuildingBlock: CIFDUS_clean_linker_0, # of connection points: 2
#     Edge 105, Type (0, 0), BuildingBlock: CIFDUS_clean_linker_0, # of connection points: 2
#     Edge 106, Type (0, 0), BuildingBlock: CIFDUS_clean_linker_0, # of connection points: 2
#     Edge 107, Type (0, 0), BuildingBlock: CIFDUS_clean_linker_0, # of connection points: 2
#     Edge 108, Type (0, 0), BuildingBlock: CIFDUS_clean_linker_0, # of connection points: 2
#     Edge 109, Type (0, 0), BuildingBlock: CIFDUS_clean_linker_0, # of connection points: 2
#     Edge 110, Type (0, 0), BuildingBlock: CIFDUS_clean_linker_0, # of connection points: 2
#     Edge 111, Type (0, 0), BuildingBlock: CIFDUS_clean_linker_0, # of connection points: 2
#     Edge 112, Type (0, 0), BuildingBlock: CIFDUS_clean_linker_0, # of connection points: 2
#     Edge 113, Type (0, 0), BuildingBlock: CIFDUS_clean_linker_0, # of connection points: 2
#     Edge 114, Type (0, 0), BuildingBlock: CIFDUS_clean_linker_0, # of connection points: 2
#     Edge 115, Type (0, 0), BuildingBlock: CIFDUS_clean_linker_0, # of connection points: 2
#     Edge 116, Type (0, 0), BuildingBlock: CIFDUS_clean_linker_0, # of connection points: 2
#     Edge 117, Type (0, 0), BuildingBlock: CIFDUS_clean_linker_0, # of connection points: 2
#     Edge 118, Type (0, 0), BuildingBlock: CIFDUS_clean_linker_0, # of connection points: 2
#     Edge 119, Type (0, 0), BuildingBlock: CIFDUS_clean_linker_0, # of connection points: 2
#     Edge 120, Type (0, 0), BuildingBlock: CIFDUS_clean_linker_0, # of connection points: 2
#     Edge 121, Type (0, 0), BuildingBlock: CIFDUS_clean_linker_0, # of connection points: 2
#     Edge 122, Type (0, 0), BuildingBlock: CIFDUS_clean_linker_0, # of connection points: 2
#     Edge 123, Type (0, 0), BuildingBlock: CIFDUS_clean_linker_0, # of connection points: 2
#     Edge 124, Type (0, 0), BuildingBlock: CIFDUS_clean_linker_0, # of connection points: 2
#     Edge 125, Type (0, 0), BuildingBlock: CIFDUS_clean_linker_0, # of connection points: 2
#     Edge 126, Type (0, 0), BuildingBlock: CIFDUS_clean_linker_0, # of connection points: 2
#     Edge 127, Type (0, 0), BuildingBlock: CIFDUS_clean_linker_0, # of connection points: 2
#     Edge 128, Type (0, 0), BuildingBlock: CIFDUS_clean_linker_0, # of connection points: 2
#     Edge 129, Type (0, 0), BuildingBlock: CIFDUS_clean_linker_0, # of connection points: 2
#     Edge 130, Type (0, 0), BuildingBlock: CIFDUS_clean_linker_0, # of connection points: 2
#     Edge 131, Type (0, 0), BuildingBlock: CIFDUS_clean_linker_0, # of connection points: 2
#     Edge 132, Type (0, 0), BuildingBlock: CIFDUS_clean_linker_0, # of connection points: 2
#     Edge 133, Type (0, 0), BuildingBlock: CIFDUS_clean_linker_0, # of connection points: 2
#     Edge 134, Type (0, 0), BuildingBlock: CIFDUS_clean_linker_0, # of connection points: 2
#     Edge 135, Type (0, 0), BuildingBlock: CIFDUS_clean_linker_0, # of connection points: 2
#     Edge 136, Type (0, 0), BuildingBlock: CIFDUS_clean_linker_0, # of connection points: 2
#     Edge 137, Type (0, 0), BuildingBlock: CIFDUS_clean_linker_0, # of connection points: 2
#     Edge 138, Type (0, 0), BuildingBlock: CIFDUS_clean_linker_0, # of connection points: 2
#     Edge 139, Type (0, 0), BuildingBlock: CIFDUS_clean_linker_0, # of connection points: 2
#     Edge 140, Type (0, 0), BuildingBlock: CIFDUS_clean_linker_0, # of connection points: 2
#     Edge 141, Type (0, 0), BuildingBlock: CIFDUS_clean_linker_0, # of connection points: 2
#     Edge 142, Type (0, 0), BuildingBlock: CIFDUS_clean_linker_0, # of connection points: 2
#     Edge 143, Type (0, 0), BuildingBlock: CIFDUS_clean_linker_0, # of connection points: 2
#     Edge 144, Type (0, 0), BuildingBlock: CIFDUS_clean_linker_0, # of connection points: 2
#     Edge 145, Type (0, 0), BuildingBlock: CIFDUS_clean_linker_0, # of connection points: 2
#     Edge 146, Type (0, 0), BuildingBlock: CIFDUS_clean_linker_0, # of connection points: 2
#     Edge 147, Type (0, 0), BuildingBlock: CIFDUS_clean_linker_0, # of connection points: 2
#     Edge 148, Type (0, 0), BuildingBlock: CIFDUS_clean_linker_0, # of connection points: 2
#     Edge 149, Type (0, 0), BuildingBlock: CIFDUS_clean_linker_0, # of connection points: 2
#     Edge 150, Type (0, 0), BuildingBlock: CIFDUS_clean_linker_0, # of connection points: 2
#     Edge 151, Type (0, 0), BuildingBlock: CIFDUS_clean_linker_0, # of connection points: 2
#     Edge 152, Type (0, 0), BuildingBlock: CIFDUS_clean_linker_0, # of connection points: 2
#     Edge 153, Type (0, 0), BuildingBlock: CIFDUS_clean_linker_0, # of connection points: 2
#     Edge 154, Type (0, 0), BuildingBlock: CIFDUS_clean_linker_0, # of connection points: 2
#     Edge 155, Type (0, 0), BuildingBlock: CIFDUS_clean_linker_0, # of connection points: 2
#     Edge 156, Type (0, 0), BuildingBlock: CIFDUS_clean_linker_0, # of connection points: 2
#     Edge 157, Type (0, 0), BuildingBlock: CIFDUS_clean_linker_0, # of connection points: 2
#     Edge 158, Type (0, 0), BuildingBlock: CIFDUS_clean_linker_0, # of connection points: 2
#     Edge 159, Type (0, 0), BuildingBlock: CIFDUS_clean_linker_0, # of connection points: 2
#     Edge 160, Type (0, 0), BuildingBlock: CIFDUS_clean_linker_0, # of connection points: 2
#     Edge 161, Type (0, 0), BuildingBlock: CIFDUS_clean_linker_0, # of connection points: 2
#     Edge 162, Type (0, 0), BuildingBlock: CIFDUS_clean_linker_0, # of connection points: 2
#     Edge 163, Type (0, 0), BuildingBlock: CIFDUS_clean_linker_0, # of connection points: 2
#     Edge 164, Type (0, 0), BuildingBlock: CIFDUS_clean_linker_0, # of connection points: 2
#     Edge 165, Type (0, 0), BuildingBlock: CIFDUS_clean_linker_0, # of connection points: 2
#     Edge 166, Type (0, 0), BuildingBlock: CIFDUS_clean_linker_0, # of connection points: 2
#     Edge 167, Type (0, 0), BuildingBlock: CIFDUS_clean_linker_0, # of connection points: 2
# Relax obj value: 0.407
# Max RMSD: 0.291
# Mean RMSD: 0.268
data_MOF--net-fcg--node1-XOMCOT_clean_sbu_0--edge1-CIFDUS_clean_linker_0
_symmetry_space_group_name_H-M    P1
_symmetry_Int_Tables_number       1
_symmetry_cell_setting            triclinic
loop_
_symmetry_equiv_pos_as_xyz
'x, y, z'
_cell_length_a     58.534826
_cell_length_b     58.168678
_cell_length_c     58.388145
_cell_angle_alpha  88.129028
_cell_angle_beta   88.692875
_cell_angle_gamma 88.143443
loop_
_atom_site_label
_atom_site_type_symbol
_atom_site_fract_x
_atom_site_fract_y
_atom_site_fract_z
_atom_type_partial_charge
Co0 Co 0.09201 0.2787 0.14669 0.0
C1 C 0.09532 0.2413 0.18236 0.0
C2 C 0.06352 0.24085 0.16523 0.0
C3 C 0.06509 0.22177 0.17983 0.0
N4 N 0.08221 0.25362 0.16732 0.0
N5 N 0.08514 0.22218 0.19062 0.0
H6 H 0.11292 0.2448 0.18561 0.0
H7 H 0.05026 0.24417 0.15287 0.0
C8 C 0.04204 0.28996 0.15232 0.0
O9 O 0.04515 0.28845 0.17455 0.0
N10 N 0.10223 0.30261 0.12542 0.0
C11 C 0.11771 0.31855 0.12949 0.0
C12 C 0.12518 0.32804 0.10892 0.0
C13 C 0.10072 0.30245 0.10241 0.0
N14 N 0.11481 0.31762 0.09184 0.0
C15 C 0.10503 0.29653 0.18971 0.0
C16 C 0.08515 0.33993 0.18333 0.0
C17 C 0.09947 0.3356 0.20199 0.0
C18 C 0.10887 0.31342 0.20546 0.0
C19 C 0.0811 0.32223 0.16832 0.0
N20 N 0.09134 0.30085 0.17135 0.0
H21 H 0.1147 0.28067 0.19147 0.0
H22 H 0.07119 0.32629 0.15325 0.0
H23 H 0.1246 0.32174 0.14608 0.0
H24 H 0.0914 0.28974 0.09362 0.0
O25 O 0.12345 0.26783 0.14913 0.0
O26 O 0.09923 0.25595 0.12378 0.0
O27 O 0.05904 0.28657 0.1385 0.0
C28 C 0.1198 0.25488 0.13194 0.0
H29 H 0.05283 0.20827 0.1817 0.0
H30 H 0.13848 0.34047 0.10677 0.0
H31 H 0.07798 0.35705 0.17984 0.0
H32 H 0.12064 0.30962 0.21923 0.0
Co33 Co 0.71322 0.09218 0.15075 0.0
C34 C 0.75011 0.09147 0.18562 0.0
C35 C 0.74902 0.06001 0.16783 0.0
C36 C 0.76758 0.05872 0.18183 0.0
N37 N 0.73742 0.08021 0.17076 0.0
N38 N 0.76823 0.07853 0.19302 0.0
H39 H 0.74765 0.10942 0.18939 0.0
H40 H 0.74504 0.04743 0.15543 0.0
C41 C 0.69902 0.04546 0.16376 0.0
O42 O 0.70274 0.05184 0.18471 0.0
N43 N 0.69042 0.10407 0.12972 0.0
C44 C 0.67717 0.12326 0.13206 0.0
C45 C 0.66773 0.12916 0.11122 0.0
C46 C 0.68903 0.09865 0.10757 0.0
N47 N 0.67543 0.11384 0.09574 0.0
C48 C 0.69605 0.10953 0.19369 0.0
C49 C 0.65221 0.09374 0.19013 0.0
C50 C 0.6575 0.10689 0.20874 0.0
C51 C 0.67972 0.11462 0.21061 0.0
C52 C 0.66926 0.0885 0.17386 0.0
N53 N 0.69102 0.09617 0.17585 0.0
H54 H 0.71221 0.11757 0.19433 0.0
H55 H 0.66472 0.07905 0.15908 0.0
H56 H 0.67587 0.13326 0.14736 0.0
H57 H 0.6991 0.08481 0.10003 0.0
O58 O 0.72585 0.12213 0.15071 0.0
O59 O 0.73643 0.09513 0.12638 0.0
O60 O 0.70278 0.05953 0.14676 0.0
C61 C 0.73863 0.11605 0.13336 0.0
H62 H 0.78001 0.04458 0.18309 0.0
H63 H 0.65764 0.14466 0.10738 0.0
H64 H 0.63497 0.08809 0.1879 0.0
H65 H 0.68404 0.12569 0.22434 0.0
Co66 Co 0.89674 0.71416 0.14685 0.0
C67 C 0.88668 0.69126 0.10457 0.0
C68 C 0.86525 0.67891 0.13213 0.0
C69 C 0.85712 0.67125 0.11176 0.0
N70 N 0.88407 0.69126 0.12763 0.0
N71 N 0.87051 0.67941 0.09447 0.0
H72 H 0.89869 0.70164 0.09499 0.0
H73 H 0.85668 0.67748 0.14869 0.0
C74 C 0.89435 0.67218 0.17977 0.0
O75 O 0.89908 0.65764 0.16346 0.0
N76 N 0.90909 0.73784 0.16518 0.0
C77 C 0.92895 0.74861 0.16132 0.0
C78 C 0.92947 0.76726 0.17514 0.0
C79 C 0.89778 0.7502 0.18127 0.0
N80 N 0.90978 0.76841 0.18752 0.0
C81 C 0.93733 0.70952 0.11871 0.0
C82 C 0.96368 0.68505 0.15027 0.0
C83 C 0.97365 0.69139 0.12902 0.0
C84 C 0.96005 0.70377 0.11313 0.0
C85 C 0.94101 0.69153 0.15533 0.0
N86 N 0.92782 0.70311 0.13943 0.0
H87 H 0.92785 0.72036 0.10674 0.0
H88 H 0.93472 0.68808 0.17249 0.0
H89 H 0.94179 0.74415 0.14853 0.0
H90 H 0.88051 0.7468 0.18712 0.0
O91 O 0.89194 0.73709 0.12227 0.0
O92 O 0.86677 0.72817 0.14979 0.0
O93 O 0.894 0.69388 0.17545 0.0
C94 C 0.87161 0.74031 0.1314 0.0
H95 H 0.84138 0.66234 0.10965 0.0
H96 H 0.94305 0.77942 0.17546 0.0
H97 H 0.97343 0.67561 0.16324 0.0
H98 H 0.96712 0.70997 0.09687 0.0
Co99 Co 0.28606 0.90585 0.13662 0.0
C100 C 0.24762 0.91188 0.17031 0.0
C101 C 0.25297 0.94265 0.15031 0.0
C102 C 0.2331 0.94557 0.16306 0.0
N103 N 0.26264 0.92169 0.1553 0.0
N104 N 0.2297 0.92612 0.17559 0.0
H105 H 0.24833 0.89387 0.17543 0.0
H106 H 0.25867 0.95441 0.13683 0.0
C107 C 0.30398 0.9526 0.13877 0.0
O108 O 0.30179 0.94949 0.1611 0.0
N109 N 0.30791 0.88999 0.11673 0.0
C110 C 0.32045 0.87086 0.12225 0.0
C111 C 0.327 0.86003 0.10241 0.0
C112 C 0.30699 0.89045 0.09361 0.0
N113 N 0.31814 0.87212 0.08438 0.0
C114 C 0.30107 0.89383 0.18228 0.0
C115 C 0.34656 0.90376 0.17501 0.0
C116 C 0.33964 0.89411 0.19626 0.0
C117 C 0.31651 0.88948 0.19986 0.0
C118 C 0.33039 0.90838 0.15797 0.0
N119 N 0.30785 0.90343 0.16169 0.0
H120 H 0.28391 0.88829 0.18501 0.0
H121 H 0.33612 0.91519 0.14145 0.0
H122 H 0.32277 0.86397 0.1395 0.0
H123 H 0.29604 0.90242 0.08403 0.0
O124 O 0.27152 0.87717 0.14277 0.0
O125 O 0.26274 0.90161 0.11403 0.0
O126 O 0.29827 0.93667 0.12554 0.0
C127 C 0.25923 0.88207 0.12496 0.0
H128 H 0.22146 0.96039 0.16215 0.0
H129 H 0.33611 0.84359 0.10158 0.0
H130 H 0.36437 0.90726 0.17142 0.0
H131 H 0.31059 0.88129 0.21574 0.0
Co132 Co 0.08553 0.72752 0.8679 0.0
C133 C 0.08651 0.76131 0.82905 0.0
C134 C 0.05486 0.76337 0.84822 0.0
C135 C 0.0548 0.78085 0.83184 0.0
N136 N 0.07472 0.75112 0.84645 0.0
N137 N 0.07478 0.77969 0.81992 0.0
H138 H 0.10366 0.75593 0.82386 0.0
H139 H 0.04185 0.76077 0.86136 0.0
C140 C 0.04343 0.70286 0.88294 0.0
O141 O 0.05502 0.68319 0.88207 0.0
N142 N 0.09591 0.70431 0.89054 0.0
C143 C 0.10664 0.68352 0.88832 0.0
C144 C 0.1125 0.67489 0.90971 0.0
C145 C 0.09489 0.70751 0.91334 0.0
N146 N 0.10512 0.69007 0.92536 0.0
C147 C 0.10615 0.69741 0.83551 0.0
C148 C 0.06701 0.68674 0.81304 0.0
C149 C 0.08811 0.67708 0.80585 0.0
C150 C 0.10781 0.68272 0.81723 0.0
C151 C 0.06605 0.70108 0.83194 0.0
N152 N 0.08543 0.70551 0.8435 0.0
H153 H 0.12171 0.70195 0.8436 0.0
H154 H 0.04985 0.70913 0.83675 0.0
H155 H 0.11037 0.67486 0.87263 0.0
H156 H 0.08781 0.72292 0.92103 0.0
O157 O 0.11649 0.73754 0.8635 0.0
O158 O 0.09185 0.75142 0.8892 0.0
O159 O 0.05305 0.72169 0.87747 0.0
C160 C 0.11232 0.75161 0.87997 0.0
H161 H 0.04171 0.79431 0.82993 0.0
H162 H 0.12198 0.65896 0.91342 0.0
H163 H 0.05153 0.68339 0.80406 0.0
H164 H 0.12453 0.6763 0.81162 0.0
Co165 Co 0.28929 0.10055 0.86193 0.0
C166 C 0.24993 0.10853 0.83097 0.0
C167 C 0.26074 0.07299 0.83226 0.0
C168 C 0.24251 0.07565 0.81775 0.0
N169 N 0.26542 0.09365 0.84062 0.0
N170 N 0.23584 0.09804 0.81692 0.0
H171 H 0.24892 0.12677 0.83403 0.0
H172 H 0.26996 0.057 0.83607 0.0
C173 C 0.29286 0.0528 0.88277 0.0
O174 O 0.28244 0.06044 0.9013 0.0
N175 N 0.31265 0.10761 0.8837 0.0
C176 C 0.33097 0.12071 0.87948 0.0
C177 C 0.339 0.12788 0.89998 0.0
C178 C 0.30987 0.10715 0.90683 0.0
N179 N 0.3255 0.11964 0.9172 0.0
C180 C 0.30579 0.11926 0.81982 0.0
C181 C 0.34655 0.09412 0.81628 0.0
C182 C 0.34154 0.11167 0.7999 0.0
C183 C 0.32076 0.12393 0.80164 0.0
C184 C 0.33082 0.08981 0.83443 0.0
N185 N 0.31093 0.10273 0.83619 0.0
H186 H 0.29018 0.12952 0.82101 0.0
H187 H 0.33506 0.07688 0.8475 0.0
H188 H 0.33686 0.12661 0.86271 0.0
H189 H 0.29521 0.10003 0.91576 0.0
O190 O 0.27994 0.13228 0.86163 0.0
O191 O 0.26545 0.10624 0.88566 0.0
O192 O 0.29687 0.06661 0.86585 0.0
C193 C 0.26593 0.12776 0.87844 0.0
H194 H 0.23515 0.06226 0.8081 0.0
H195 H 0.35273 0.13965 0.90185 0.0
H196 H 0.36264 0.08443 0.81545 0.0
H197 H 0.31638 0.1376 0.78929 0.0
Co198 Co 0.90722 0.27985 0.86162 0.0
C199 C 0.90879 0.24191 0.82775 0.0
C200 C 0.942 0.25441 0.8341 0.0
C201 C 0.94456 0.23587 0.82025 0.0
N202 N 0.91955 0.25838 0.83896 0.0
N203 N 0.92375 0.22784 0.81638 0.0
H204 H 0.89055 0.23951 0.82867 0.0
H205 H 0.95595 0.26383 0.84054 0.0
C206 C 0.9495 0.3044 0.87387 0.0
O207 O 0.93867 0.32422 0.87006 0.0
N208 N 0.89566 0.30059 0.88556 0.0
C209 C 0.88991 0.32331 0.88436 0.0
C210 C 0.88224 0.33025 0.90562 0.0
C211 C 0.89206 0.29445 0.90798 0.0
N212 N 0.88364 0.31208 0.92044 0.0
C213 C 0.88576 0.31363 0.8323 0.0
C214 C 0.92286 0.32344 0.80404 0.0
C215 C 0.90129 0.33304 0.79841 0.0
C216 C 0.88274 0.32821 0.81312 0.0
C217 C 0.92527 0.30921 0.82386 0.0
N218 N 0.9068 0.30447 0.83783 0.0
H219 H 0.87088 0.30949 0.84271 0.0
H220 H 0.94184 0.30143 0.82739 0.0
H221 H 0.89157 0.33459 0.86945 0.0
H222 H 0.89512 0.2773 0.91517 0.0
O223 O 0.87671 0.27005 0.85701 0.0
O224 O 0.90037 0.25355 0.88202 0.0
O225 O 0.93935 0.28555 0.87135 0.0
C226 C 0.88012 0.2545 0.87304 0.0
H227 H 0.96062 0.22868 0.81374 0.0
H228 H 0.87631 0.34743 0.90992 0.0
H229 H 0.93763 0.32651 0.79299 0.0
H230 H 0.86567 0.33473 0.80924 0.0
Co231 Co 0.71911 0.91822 0.83748 0.0
C232 C 0.75878 0.91377 0.8053 0.0
C233 C 0.75505 0.94786 0.81759 0.0
C234 C 0.77556 0.94598 0.80565 0.0
N235 N 0.74409 0.92778 0.81694 0.0
N236 N 0.77784 0.92447 0.79798 0.0
H237 H 0.75673 0.89546 0.80402 0.0
H238 H 0.74973 0.96237 0.8277 0.0
C239 C 0.70442 0.96735 0.82809 0.0
O240 O 0.70592 0.96348 0.80604 0.0
N241 N 0.69561 0.90908 0.85921 0.0
C242 C 0.68454 0.88911 0.86032 0.0
C243 C 0.67739 0.88496 0.88276 0.0
C244 C 0.69464 0.91695 0.8806 0.0
N245 N 0.68427 0.90229 0.89555 0.0
C246 C 0.70433 0.90413 0.79364 0.0
C247 C 0.65961 0.92053 0.7978 0.0
C248 C 0.66644 0.90858 0.77822 0.0
C249 C 0.68914 0.90055 0.77619 0.0
C250 C 0.67561 0.9243 0.81469 0.0
N251 N 0.69777 0.91624 0.81243 0.0
H252 H 0.72107 0.8962 0.79234 0.0
H253 H 0.67005 0.93324 0.82988 0.0
H254 H 0.6842 0.87712 0.84657 0.0
H255 H 0.70396 0.9317 0.88553 0.0
O256 O 0.73092 0.88687 0.83781 0.0
O257 O 0.74128 0.91344 0.86153 0.0
O258 O 0.70966 0.95133 0.84273 0.0
C259 C 0.74302 0.89215 0.85517 0.0
H260 H 0.78825 0.95907 0.80377 0.0
H261 H 0.67025 0.86913 0.88952 0.0
H262 H 0.64206 0.92665 0.80013 0.0
H263 H 0.69485 0.89054 0.76168 0.0
Co264 Co 0.15024 0.09174 0.29235 0.0
C265 C 0.18685 0.09818 0.25697 0.0
C266 C 0.17724 0.06294 0.2605 0.0
C267 C 0.19227 0.06505 0.24215 0.0
N268 N 0.17377 0.08372 0.26979 0.0
N269 N 0.19815 0.08725 0.2398 0.0
H270 H 0.18697 0.11656 0.25922 0.0
H271 H 0.16859 0.04746 0.26581 0.0
C272 C 0.14615 0.04817 0.32102 0.0
O273 O 0.14872 0.06007 0.33943 0.0
N274 N 0.12572 0.09949 0.31451 0.0
C275 C 0.1265 0.1043 0.33702 0.0
C276 C 0.10459 0.10841 0.3454 0.0
C277 C 0.10318 0.10061 0.30983 0.0
N278 N 0.09005 0.10624 0.32816 0.0
C279 C 0.17583 0.11797 0.32235 0.0
C280 C 0.20847 0.08443 0.33375 0.0
C281 C 0.21008 0.10644 0.34273 0.0
C282 C 0.19345 0.12329 0.33669 0.0
C283 C 0.19043 0.07981 0.31936 0.0
N284 N 0.17393 0.09629 0.31448 0.0
H285 H 0.16343 0.13137 0.31769 0.0
H286 H 0.18995 0.06311 0.31183 0.0
H287 H 0.14165 0.10427 0.34719 0.0
H288 H 0.09622 0.09695 0.29342 0.0
O289 O 0.14849 0.12274 0.27991 0.0
O290 O 0.12839 0.0942 0.26764 0.0
O291 O 0.147 0.05806 0.30115 0.0
C292 C 0.13333 0.1159 0.266 0.0
H293 H 0.19785 0.0514 0.23097 0.0
H294 H 0.09976 0.11281 0.36276 0.0
H295 H 0.22115 0.07096 0.33758 0.0
H296 H 0.19438 0.14076 0.34239 0.0
Co297 Co 0.87663 0.14308 0.30696 0.0
C298 C 0.87981 0.09658 0.32671 0.0
C299 C 0.8528 0.11598 0.34326 0.0
C300 C 0.85113 0.09313 0.34999 0.0
N301 N 0.87107 0.11819 0.32897 0.0
N302 N 0.86795 0.08094 0.33928 0.0
H303 H 0.89331 0.09217 0.3145 0.0
H304 H 0.8404 0.12964 0.34692 0.0
C305 C 0.87419 0.16846 0.35275 0.0
O306 O 0.87686 0.14985 0.36585 0.0
N307 N 0.88253 0.16751 0.28424 0.0
C308 C 0.89865 0.18346 0.28559 0.0
C309 C 0.89934 0.19639 0.26537 0.0
C310 C 0.87348 0.17117 0.26329 0.0
N311 N 0.88346 0.1886 0.25147 0.0
C312 C 0.921 0.13063 0.2899 0.0
C313 C 0.94467 0.13659 0.32957 0.0
C314 C 0.95692 0.13004 0.30977 0.0
C315 C 0.94466 0.1268 0.28981 0.0
C316 C 0.92095 0.14 0.32896 0.0
N317 N 0.90944 0.13739 0.30921 0.0
H318 H 0.91191 0.12848 0.27426 0.0
H319 H 0.91215 0.14483 0.3444 0.0
H320 H 0.9095 0.18529 0.30012 0.0
H321 H 0.86023 0.16114 0.25637 0.0
O322 O 0.87032 0.12199 0.28302 0.0
O323 O 0.84452 0.14465 0.30022 0.0
O324 O 0.8753 0.16766 0.33086 0.0
C325 C 0.84901 0.1289 0.28532 0.0
H326 H 0.83736 0.08579 0.36021 0.0
H327 H 0.91043 0.21055 0.26129 0.0
H328 H 0.95331 0.13952 0.34536 0.0
H329 H 0.95321 0.1213 0.27419 0.0
Co330 Co 0.86335 0.90609 0.28305 0.0
C331 C 0.82504 0.90356 0.25081 0.0
C332 C 0.83888 0.93725 0.25053 0.0
C333 C 0.82279 0.93682 0.23374 0.0
N334 N 0.84031 0.9164 0.26126 0.0
N335 N 0.8142 0.91557 0.23376 0.0
H336 H 0.82282 0.88546 0.25475 0.0
H337 H 0.84946 0.9516 0.25388 0.0
C338 C 0.87092 0.94821 0.3095 0.0
O339 O 0.86896 0.93526 0.32822 0.0
N340 N 0.88765 0.89594 0.30422 0.0
C341 C 0.88644 0.88868 0.32647 0.0
C342 C 0.90786 0.88133 0.33345 0.0
C343 C 0.91016 0.8934 0.29843 0.0
N344 N 0.92273 0.88426 0.31576 0.0
C345 C 0.83521 0.88203 0.3154 0.0
C346 C 0.80444 0.91767 0.32481 0.0
C347 C 0.80046 0.89566 0.33444 0.0
C348 C 0.81627 0.87781 0.32956 0.0
C349 C 0.82388 0.92122 0.31074 0.0
N350 N 0.83931 0.90358 0.30663 0.0
H351 H 0.84663 0.86771 0.31133 0.0
H352 H 0.82602 0.93792 0.30247 0.0
H353 H 0.87133 0.88882 0.33737 0.0
H354 H 0.91729 0.89736 0.28158 0.0
O355 O 0.86179 0.8753 0.27271 0.0
O356 O 0.88463 0.90132 0.25718 0.0
O357 O 0.86929 0.9393 0.28987 0.0
C358 C 0.87732 0.88032 0.25742 0.0
H359 H 0.81819 0.95097 0.22208 0.0
H360 H 0.91215 0.87429 0.35026 0.0
H361 H 0.79245 0.93189 0.32773 0.0
H362 H 0.81359 0.86035 0.33581 0.0
Co363 Co 0.10453 0.85842 0.27969 0.0
C364 C 0.11063 0.82603 0.24154 0.0
C365 C 0.07596 0.83833 0.24419 0.0
C366 C 0.07838 0.8252 0.22502 0.0
N367 N 0.09609 0.83836 0.25512 0.0
N368 N 0.10025 0.81744 0.22344 0.0
H369 H 0.12886 0.82441 0.24401 0.0
H370 H 0.06078 0.84835 0.24862 0.0
C371 C 0.05487 0.85444 0.29241 0.0
O372 O 0.05852 0.8321 0.29478 0.0
N373 N 0.11287 0.87967 0.3026 0.0
C374 C 0.13042 0.8776 0.31715 0.0
C375 C 0.13544 0.89924 0.32429 0.0
C376 C 0.10753 0.90236 0.30107 0.0
N377 N 0.12126 0.91481 0.3138 0.0
C378 C 0.1159 0.81322 0.29696 0.0
C379 C 0.1009 0.81848 0.34171 0.0
C380 C 0.11272 0.79812 0.33569 0.0
C381 C 0.1198 0.79548 0.31299 0.0
C382 C 0.09667 0.83577 0.32475 0.0
N383 N 0.10433 0.83306 0.3026 0.0
H384 H 0.12367 0.81131 0.28035 0.0
H385 H 0.08807 0.85168 0.32959 0.0
H386 H 0.14032 0.86187 0.32053 0.0
H387 H 0.09531 0.90974 0.28906 0.0
O388 O 0.13613 0.85482 0.2712 0.0
O389 O 0.11266 0.88155 0.2561 0.0
O390 O 0.07119 0.8674 0.28577 0.0
C391 C 0.13329 0.87233 0.25715 0.0
H392 H 0.0652 0.82222 0.21286 0.0
H393 H 0.14986 0.90338 0.3345 0.0
H394 H 0.09553 0.82119 0.35931 0.0
H395 H 0.12957 0.78026 0.3079 0.0
Co396 Co 0.15318 0.89335 0.71143 0.0
C397 C 0.11161 0.87832 0.69012 0.0
C398 C 0.14065 0.85856 0.67834 0.0
C399 C 0.12104 0.84812 0.67176 0.0
N400 N 0.13472 0.87777 0.6897 0.0
N401 N 0.10275 0.86062 0.67937 0.0
H402 H 0.10132 0.88931 0.70091 0.0
H403 H 0.15786 0.85133 0.67689 0.0
C404 C 0.18447 0.89152 0.66939 0.0
O405 O 0.16724 0.89632 0.65582 0.0
N406 N 0.1707 0.90848 0.73392 0.0
C407 C 0.16436 0.92792 0.74468 0.0
C408 C 0.17818 0.93025 0.76314 0.0
C409 C 0.18821 0.89919 0.74605 0.0
N410 N 0.19302 0.91206 0.76412 0.0
C411 C 0.12253 0.93187 0.70235 0.0
C412 C 0.15493 0.96089 0.68367 0.0
C413 C 0.13275 0.96968 0.68802 0.0
C414 C 0.11629 0.95461 0.69675 0.0
C415 C 0.16038 0.93784 0.68916 0.0
N416 N 0.14425 0.9235 0.69834 0.0
H417 H 0.11029 0.9218 0.71184 0.0
H418 H 0.17808 0.93229 0.68781 0.0
H419 H 0.14973 0.93892 0.74047 0.0
H420 H 0.19596 0.88243 0.74284 0.0
O421 O 0.12905 0.88916 0.73442 0.0
O422 O 0.15803 0.86452 0.72772 0.0
O423 O 0.18137 0.89065 0.69113 0.0
C424 C 0.13952 0.86957 0.73937 0.0
H425 H 0.12036 0.83174 0.66358 0.0
H426 H 0.17668 0.94374 0.77546 0.0
H427 H 0.16842 0.97207 0.67771 0.0
H428 H 0.09898 0.96067 0.70064 0.0
Co429 Co 0.10558 0.15733 0.71595 0.0
C430 C 0.10404 0.18718 0.75608 0.0
C431 C 0.07152 0.1727 0.75133 0.0
C432 C 0.07053 0.18468 0.77135 0.0
N433 N 0.09242 0.17486 0.74126 0.0
N434 N 0.09105 0.19384 0.77416 0.0
H435 H 0.12222 0.18975 0.75479 0.0
H436 H 0.05824 0.16196 0.74558 0.0
C437 C 0.05706 0.16279 0.70034 0.0
O438 O 0.05863 0.18524 0.70112 0.0
N439 N 0.11843 0.13892 0.69182 0.0
C440 C 0.13843 0.14132 0.68027 0.0
C441 C 0.14388 0.12095 0.66961 0.0
C442 C 0.11191 0.11752 0.68795 0.0
N443 N 0.1273 0.1059 0.67481 0.0
C444 C 0.11822 0.20311 0.70293 0.0
C445 C 0.10607 0.20203 0.65754 0.0
C446 C 0.11746 0.22104 0.66519 0.0
C447 C 0.12314 0.22164 0.68821 0.0
C448 C 0.10086 0.18395 0.67312 0.0
N449 N 0.10701 0.1846 0.69559 0.0
H450 H 0.12491 0.20321 0.71982 0.0
H451 H 0.09285 0.16895 0.66689 0.0
H452 H 0.14917 0.15605 0.68114 0.0
H453 H 0.09707 0.11007 0.69628 0.0
O454 O 0.13555 0.1588 0.72871 0.0
O455 O 0.11083 0.13161 0.73742 0.0
O456 O 0.07408 0.14959 0.70577 0.0
C457 C 0.13091 0.14001 0.74032 0.0
H458 H 0.0561 0.18591 0.78321 0.0
H459 H 0.1598 0.11686 0.66062 0.0
H460 H 0.10186 0.20088 0.63965 0.0
H461 H 0.13259 0.23577 0.6945 0.0
Co462 Co 0.87345 0.10352 0.70957 0.0
C463 C 0.83695 0.10709 0.7453 0.0
C464 C 0.84574 0.07175 0.73928 0.0
C465 C 0.82896 0.07267 0.75629 0.0
N466 N 0.85074 0.09344 0.73236 0.0
N467 N 0.82344 0.09495 0.75985 0.0
H468 H 0.83679 0.12567 0.74436 0.0
H469 H 0.85359 0.05622 0.73263 0.0
C470 C 0.89875 0.05734 0.7093 0.0
O471 O 0.91526 0.06538 0.72128 0.0
N472 N 0.89629 0.11393 0.68728 0.0
C473 C 0.89237 0.12806 0.66891 0.0
C474 C 0.91266 0.13729 0.66146 0.0
C475 C 0.919 0.11493 0.69077 0.0
N476 N 0.92937 0.12927 0.67539 0.0
C477 C 0.83131 0.11624 0.68903 0.0
C478 C 0.83769 0.09235 0.64905 0.0
C479 C 0.81779 0.10604 0.65217 0.0
C480 C 0.81458 0.11777 0.67254 0.0
C481 C 0.85387 0.09068 0.66646 0.0
N482 N 0.85063 0.10286 0.686 0.0
H483 H 0.82897 0.12645 0.70401 0.0
H484 H 0.86942 0.08051 0.66377 0.0
H485 H 0.87568 0.13311 0.66258 0.0
H486 H 0.92732 0.10737 0.70568 0.0
O487 O 0.8684 0.13489 0.71792 0.0
O488 O 0.89353 0.11101 0.7346 0.0
O489 O 0.88181 0.07041 0.70353 0.0
C490 C 0.88365 0.13149 0.73347 0.0
H491 H 0.82122 0.05811 0.76508 0.0
H492 H 0.91464 0.15018 0.64783 0.0
H493 H 0.84085 0.08342 0.63324 0.0
H494 H 0.79966 0.12896 0.67525 0.0
Co495 Co 0.92164 0.85935 0.72096 0.0
C496 C 0.91191 0.82374 0.75769 0.0
C497 C 0.94692 0.83301 0.75695 0.0
C498 C 0.9431 0.81916 0.7761 0.0
N499 N 0.92753 0.83551 0.74484 0.0
N500 N 0.92102 0.81341 0.77663 0.0
H501 H 0.89377 0.82439 0.75457 0.0
H502 H 0.96242 0.84216 0.75347 0.0
C503 C 0.97038 0.84674 0.70895 0.0
O504 O 0.96458 0.82511 0.70894 0.0
N505 N 0.9163 0.88444 0.69893 0.0
C506 C 0.89887 0.88768 0.68441 0.0
C507 C 0.89705 0.91084 0.67829 0.0
C508 C 0.92481 0.9055 0.70134 0.0
N509 N 0.91323 0.92213 0.68923 0.0
C510 C 0.90365 0.81962 0.70151 0.0
C511 C 0.92526 0.82267 0.659 0.0
C512 C 0.90998 0.80494 0.66367 0.0
C513 C 0.89916 0.8036 0.68517 0.0
C514 C 0.92929 0.83859 0.67603 0.0
N515 N 0.91891 0.83658 0.69725 0.0
H516 H 0.89401 0.81878 0.71733 0.0
H517 H 0.94046 0.85269 0.67207 0.0
H518 H 0.88706 0.87459 0.68022 0.0
H519 H 0.93753 0.90886 0.71386 0.0
O520 O 0.89004 0.86083 0.72966 0.0
O521 O 0.91641 0.8814 0.7453 0.0
O522 O 0.95556 0.8624 0.71446 0.0
C523 C 0.8949 0.87624 0.74414 0.0
H524 H 0.95541 0.81463 0.78917 0.0
H525 H 0.88387 0.91884 0.66775 0.0
H526 H 0.93356 0.82448 0.64231 0.0
H527 H 0.88682 0.79047 0.68916 0.0
Co528 Co 0.2895 0.14259 0.09886 0.0
C529 C 0.25169 0.17795 0.10207 0.0
C530 C 0.25383 0.16375 0.0688 0.0
C531 C 0.23448 0.17781 0.07008 0.0
N532 N 0.26514 0.16423 0.08869 0.0
N533 N 0.23311 0.1867 0.09109 0.0
H534 H 0.25423 0.17997 0.12015 0.0
H535 H 0.25807 0.15261 0.05481 0.0
C536 C 0.30273 0.14767 0.04893 0.0
O537 O 0.30318 0.17 0.05155 0.0
N538 N 0.31247 0.12017 0.10922 0.0
C539 C 0.3282 0.12292 0.12529 0.0
C540 C 0.33736 0.10166 0.13165 0.0
C541 C 0.31205 0.09726 0.10628 0.0
N542 N 0.32693 0.08541 0.11999 0.0
C543 C 0.3072 0.18581 0.11121 0.0
C544 C 0.35128 0.17839 0.09447 0.0
C545 C 0.34626 0.19783 0.10745 0.0
C546 C 0.32381 0.20171 0.11534 0.0
C547 C 0.33386 0.16317 0.09005 0.0
N548 N 0.31212 0.16676 0.09874 0.0
H549 H 0.29076 0.18824 0.11941 0.0
H550 H 0.33819 0.14774 0.08085 0.0
H551 H 0.33164 0.13903 0.13307 0.0
H552 H 0.29952 0.08938 0.09596 0.0
O553 O 0.27879 0.14503 0.13022 0.0
O554 O 0.26625 0.1202 0.1058 0.0
O555 O 0.29733 0.13437 0.06598 0.0
C556 C 0.26546 0.12818 0.12643 0.0
H557 H 0.22192 0.18043 0.05686 0.0
H558 H 0.34979 0.09847 0.14489 0.0
H559 H 0.36857 0.1747 0.08834 0.0
H560 H 0.31942 0.21627 0.12589 0.0
Co561 Co 0.28074 0.85784 0.90435 0.0
C562 C 0.24232 0.8255 0.90014 0.0
C563 C 0.24454 0.83783 0.93404 0.0
C564 C 0.22526 0.82513 0.93305 0.0
N565 N 0.25587 0.83756 0.91362 0.0
N566 N 0.22379 0.81743 0.91168 0.0
H567 H 0.24473 0.82426 0.88183 0.0
H568 H 0.24874 0.848 0.94838 0.0
C569 C 0.29289 0.84819 0.95375 0.0
O570 O 0.29214 0.82602 0.9503 0.0
N571 N 0.30396 0.87969 0.89599 0.0
C572 C 0.31632 0.88169 0.87634 0.0
C573 C 0.32305 0.90427 0.87358 0.0
C574 C 0.3035 0.90084 0.90486 0.0
N575 N 0.3147 0.91638 0.89149 0.0
C576 C 0.29669 0.81532 0.88663 0.0
C577 C 0.33805 0.81025 0.90821 0.0
C578 C 0.33156 0.7931 0.89338 0.0
C579 C 0.31061 0.79606 0.88256 0.0
C580 C 0.32346 0.82978 0.91162 0.0
N581 N 0.30255 0.83164 0.90152 0.0
H582 H 0.28128 0.81723 0.8771 0.0
H583 H 0.32895 0.84327 0.92234 0.0
H584 H 0.3183 0.86845 0.8638 0.0
H585 H 0.29257 0.90537 0.91932 0.0
O586 O 0.27118 0.85835 0.87329 0.0
O587 O 0.25768 0.88252 0.89917 0.0
O588 O 0.28814 0.86274 0.93752 0.0
C589 C 0.25784 0.87579 0.87802 0.0
H590 H 0.21284 0.82257 0.94683 0.0
H591 H 0.33198 0.91148 0.85873 0.0
H592 H 0.35436 0.80884 0.9166 0.0
H593 H 0.3049 0.78348 0.87085 0.0
Co594 Co 0.13796 0.27844 0.91343 0.0
C595 C 0.17162 0.23869 0.91651 0.0
C596 C 0.15277 0.24319 0.94786 0.0
C597 C 0.16544 0.22292 0.94974 0.0
N598 N 0.15706 0.25365 0.92723 0.0
N599 N 0.17728 0.22011 0.92999 0.0
H600 H 0.1764 0.24012 0.89854 0.0
H601 H 0.13987 0.24871 0.96018 0.0
C602 C 0.14107 0.29423 0.96089 0.0
O603 O 0.16337 0.2925 0.9579 0.0
N604 N 0.11739 0.30164 0.90013 0.0
C605 C 0.12059 0.31511 0.88118 0.0
C606 C 0.09966 0.32454 0.87468 0.0
C607 C 0.09471 0.30282 0.9047 0.0
N608 N 0.0834 0.31651 0.88934 0.0
C609 C 0.18322 0.29341 0.90137 0.0
C610 C 0.176 0.33906 0.91194 0.0
C611 C 0.19677 0.33226 0.90134 0.0
C612 C 0.20042 0.30902 0.89655 0.0
C613 C 0.1594 0.32268 0.9171 0.0
N614 N 0.16299 0.30011 0.91161 0.0
H615 H 0.18585 0.27623 0.89553 0.0
H616 H 0.14321 0.32835 0.9246 0.0
H617 H 0.13667 0.31665 0.87184 0.0
H618 H 0.08649 0.29256 0.9181 0.0
O619 O 0.14277 0.266 0.8838 0.0
O620 O 0.1151 0.25571 0.90829 0.0
O621 O 0.12795 0.28882 0.94484 0.0
C622 C 0.1249 0.25379 0.8881 0.0
H623 H 0.16517 0.21074 0.96415 0.0
H624 H 0.09644 0.33497 0.85933 0.0
H625 H 0.1724 0.35695 0.91565 0.0
H626 H 0.21593 0.30317 0.88773 0.0
Co627 Co 0.71125 0.14932 0.88392 0.0
C628 C 0.69016 0.10742 0.86813 0.0
C629 C 0.67618 0.13749 0.85101 0.0
C630 C 0.66883 0.11839 0.84026 0.0
N631 N 0.6893 0.13064 0.86887 0.0
N632 N 0.67778 0.09947 0.85105 0.0
H633 H 0.70201 0.09653 0.87766 0.0
H634 H 0.67386 0.15509 0.84476 0.0
C635 C 0.66829 0.179 0.88446 0.0
O636 O 0.65727 0.16089 0.89216 0.0
N637 N 0.73401 0.16735 0.89817 0.0
C638 C 0.74464 0.16179 0.91795 0.0
C639 C 0.76345 0.17512 0.91958 0.0
C640 C 0.74676 0.18385 0.88792 0.0
N641 N 0.76501 0.18879 0.90054 0.0
C642 C 0.70249 0.11839 0.92204 0.0
C643 C 0.6869 0.15113 0.95239 0.0
C644 C 0.6908 0.12842 0.96047 0.0
C645 C 0.69812 0.11188 0.94483 0.0
C646 C 0.69147 0.15695 0.92931 0.0
N647 N 0.69912 0.14063 0.91433 0.0
H648 H 0.71041 0.10575 0.91122 0.0
H649 H 0.6905 0.17489 0.92403 0.0
H650 H 0.74013 0.14788 0.92973 0.0
H651 H 0.74381 0.19066 0.87074 0.0
O652 O 0.73428 0.12495 0.88036 0.0
O653 O 0.72701 0.15301 0.85472 0.0
O654 O 0.68999 0.17751 0.88111 0.0
C655 C 0.73878 0.1344 0.86032 0.0
H656 H 0.65906 0.11853 0.82474 0.0
H657 H 0.77559 0.17398 0.93329 0.0
H658 H 0.6819 0.16457 0.96406 0.0
H659 H 0.70159 0.09419 0.9504 0.0
Co660 Co 0.85119 0.7264 0.91453 0.0
C661 C 0.81606 0.76248 0.90335 0.0
C662 C 0.82528 0.76281 0.93867 0.0
C663 C 0.81092 0.78151 0.93406 0.0
N664 N 0.82856 0.7509 0.91939 0.0
N665 N 0.8053 0.78142 0.91179 0.0
H666 H 0.81602 0.758 0.88551 0.0
H667 H 0.83363 0.75898 0.95473 0.0
C668 C 0.85503 0.70187 0.96025 0.0
O669 O 0.85365 0.68238 0.94972 0.0
N670 N 0.87483 0.70232 0.90994 0.0
C671 C 0.87373 0.68034 0.90323 0.0
C672 C 0.89558 0.67104 0.9009 0.0
C673 C 0.89739 0.70558 0.9122 0.0
N674 N 0.91045 0.68708 0.90632 0.0
C675 C 0.82358 0.6958 0.89129 0.0
C676 C 0.79248 0.68677 0.9265 0.0
C677 C 0.79051 0.67573 0.90566 0.0
C678 C 0.80611 0.68077 0.88785 0.0
C679 C 0.81058 0.7016 0.92934 0.0
N680 N 0.82654 0.70498 0.91217 0.0
H681 H 0.83533 0.69941 0.87721 0.0
H682 H 0.81158 0.71052 0.9452 0.0
H683 H 0.85845 0.67114 0.90036 0.0
H684 H 0.90421 0.72135 0.91802 0.0
O685 O 0.85377 0.73544 0.88248 0.0
O686 O 0.87422 0.74972 0.90965 0.0
O687 O 0.85373 0.72102 0.94884 0.0
C688 C 0.86948 0.74933 0.88796 0.0
H689 H 0.80563 0.79456 0.94605 0.0
H690 H 0.90011 0.65402 0.89498 0.0
H691 H 0.78024 0.68393 0.94042 0.0
H692 H 0.80465 0.67338 0.87117 0.0
Co693 Co 0.71082 0.86478 0.10753 0.0
C694 C 0.68486 0.90801 0.11439 0.0
C695 C 0.67396 0.88191 0.13848 0.0
C696 C 0.6643 0.9028 0.14482 0.0
N697 N 0.68675 0.8852 0.1192 0.0
N698 N 0.67129 0.91917 0.12958 0.0
H699 H 0.69561 0.91695 0.10213 0.0
H700 H 0.67337 0.86591 0.1484 0.0
C701 C 0.6696 0.83456 0.11067 0.0
O702 O 0.65609 0.85174 0.10369 0.0
N703 N 0.73528 0.84503 0.09606 0.0
C704 C 0.7475 0.84824 0.07645 0.0
C705 C 0.76538 0.83237 0.07603 0.0
C706 C 0.74596 0.82741 0.10741 0.0
N707 N 0.76455 0.8194 0.0956 0.0
C708 C 0.70546 0.89117 0.06526 0.0
C709 C 0.68561 0.85728 0.04111 0.0
C710 C 0.68891 0.87877 0.03027 0.0
C711 C 0.69911 0.89581 0.04264 0.0
C712 C 0.69214 0.85341 0.06379 0.0
N713 N 0.70096 0.87058 0.07603 0.0
H714 H 0.71498 0.90385 0.07369 0.0
H715 H 0.69104 0.83617 0.07093 0.0
H716 H 0.74434 0.86177 0.0637 0.0
H717 H 0.74099 0.82157 0.12453 0.0
O718 O 0.73271 0.88904 0.11076 0.0
O719 O 0.72372 0.86292 0.13755 0.0
O720 O 0.69111 0.83718 0.11209 0.0
C721 C 0.7356 0.88065 0.13154 0.0
H722 H 0.65448 0.90594 0.1604 0.0
H723 H 0.77832 0.83098 0.06258 0.0
H724 H 0.67894 0.8432 0.03187 0.0
H725 H 0.70259 0.91251 0.03482 0.0
Co726 Co 0.15984 0.72247 0.09066 0.0
C727 C 0.19131 0.76132 0.08486 0.0
C728 C 0.1735 0.75591 0.05408 0.0
C729 C 0.18519 0.77598 0.05128 0.0
N730 N 0.17778 0.74621 0.07497 0.0
N731 N 0.19619 0.77947 0.07077 0.0
H732 H 0.19607 0.7601 0.10263 0.0
H733 H 0.16102 0.7502 0.04236 0.0
C734 C 0.16414 0.70453 0.04385 0.0
O735 O 0.18631 0.70655 0.04571 0.0
N736 N 0.14112 0.70002 0.10644 0.0
C737 C 0.14627 0.68829 0.12604 0.0
C738 C 0.12662 0.67901 0.13517 0.0
C739 C 0.1185 0.69778 0.10391 0.0
N740 N 0.10918 0.68515 0.12132 0.0
C741 C 0.20551 0.70653 0.10202 0.0
C742 C 0.19923 0.66096 0.09223 0.0
C743 C 0.21934 0.66689 0.10274 0.0
C744 C 0.22269 0.69007 0.10707 0.0
C745 C 0.18266 0.67801 0.08708 0.0
N746 N 0.18573 0.7005 0.09224 0.0
H747 H 0.20764 0.72379 0.10738 0.0
H748 H 0.16672 0.67288 0.08012 0.0
H749 H 0.16277 0.68802 0.13403 0.0
H750 H 0.10872 0.70717 0.09093 0.0
O751 O 0.16352 0.73682 0.11949 0.0
O752 O 0.13565 0.7455 0.09526 0.0
O753 O 0.15057 0.71055 0.06024 0.0
C754 C 0.14498 0.74886 0.11489 0.0
H755 H 0.18401 0.78808 0.03683 0.0
H756 H 0.12501 0.66978 0.1515 0.0
H757 H 0.19594 0.64318 0.08887 0.0
H758 H 0.23777 0.6952 0.11578 0.0
Co759 Co 0.85569 0.27655 0.10287 0.0
C760 C 0.82197 0.23929 0.10422 0.0
C761 C 0.83859 0.24181 0.0714 0.0
C762 C 0.82465 0.2231 0.0718 0.0
N763 N 0.83636 0.2526 0.09155 0.0
N764 N 0.81412 0.22168 0.09249 0.0
H765 H 0.81852 0.24122 0.12231 0.0
H766 H 0.85055 0.24611 0.0577 0.0
C767 C 0.85357 0.29121 0.05329 0.0
O768 O 0.83124 0.29254 0.05604 0.0
N769 N 0.87607 0.29895 0.11442 0.0
C770 C 0.87115 0.31394 0.13108 0.0
C771 C 0.89127 0.32129 0.13965 0.0
C772 C 0.89919 0.29729 0.11328 0.0
N773 N 0.90897 0.31051 0.12875 0.0
C774 C 0.81064 0.29396 0.11406 0.0
C775 C 0.81597 0.33902 0.09917 0.0
C776 C 0.79573 0.33302 0.11095 0.0
C777 C 0.79307 0.31012 0.11793 0.0
C778 C 0.83303 0.32193 0.09488 0.0
N779 N 0.83033 0.29961 0.10251 0.0
H780 H 0.80875 0.27728 0.12193 0.0
H781 H 0.84887 0.32686 0.08649 0.0
H782 H 0.8542 0.31769 0.13802 0.0
H783 H 0.90854 0.28473 0.10314 0.0
O784 O 0.85051 0.26537 0.1337 0.0
O785 O 0.87843 0.25244 0.11071 0.0
O786 O 0.86612 0.28497 0.07026 0.0
C787 C 0.86804 0.25152 0.13074 0.0
H788 H 0.82291 0.21117 0.05815 0.0
H789 H 0.89264 0.33251 0.15395 0.0
H790 H 0.81877 0.35673 0.09385 0.0
H791 H 0.778 0.30496 0.12769 0.0
Co792 Co 0.5894 0.77921 0.64257 0.0
C793 C 0.59652 0.74127 0.67718 0.0
C794 C 0.56288 0.74107 0.66379 0.0
C795 C 0.566 0.72185 0.67795 0.0
N796 N 0.58182 0.75376 0.6638 0.0
N797 N 0.58721 0.72207 0.68637 0.0
H798 H 0.61437 0.74497 0.67874 0.0
H799 H 0.54829 0.74444 0.65308 0.0
C800 C 0.53929 0.78943 0.64951 0.0
O801 O 0.54273 0.78895 0.67168 0.0
N802 N 0.59701 0.80331 0.62057 0.0
C803 C 0.61316 0.81911 0.62216 0.0
C804 C 0.61741 0.82859 0.6006 0.0
C805 C 0.59166 0.80337 0.59828 0.0
N806 N 0.60406 0.81843 0.58555 0.0
C807 C 0.6014 0.79677 0.68587 0.0
C808 C 0.58038 0.83977 0.68042 0.0
C809 C 0.59331 0.83474 0.69995 0.0
C810 C 0.60359 0.81288 0.70269 0.0
C811 C 0.57801 0.82277 0.66419 0.0
N812 N 0.58845 0.80146 0.66704 0.0
H813 H 0.61129 0.78103 0.68754 0.0
H814 H 0.56854 0.82703 0.64886 0.0
H815 H 0.62249 0.82217 0.63749 0.0
H816 H 0.58083 0.79076 0.59119 0.0
O817 O 0.62137 0.77041 0.64403 0.0
O818 O 0.59728 0.75669 0.61954 0.0
O819 O 0.55597 0.78527 0.63554 0.0
C820 C 0.61806 0.75702 0.62712 0.0
H821 H 0.55388 0.70838 0.68109 0.0
H822 H 0.63052 0.84075 0.59614 0.0
H823 H 0.57263 0.85675 0.67752 0.0
H824 H 0.6144 0.8087 0.71717 0.0
Co825 Co 0.20891 0.59545 0.65435 0.0
C826 C 0.24312 0.59844 0.69096 0.0
C827 C 0.24357 0.56508 0.67671 0.0
C828 C 0.26135 0.56581 0.69162 0.0
N829 N 0.23154 0.58532 0.67679 0.0
N830 N 0.26101 0.58685 0.70055 0.0
H831 H 0.2401 0.61671 0.69257 0.0
H832 H 0.24076 0.55116 0.66541 0.0
C833 C 0.19531 0.54735 0.66531 0.0
O834 O 0.1956 0.55233 0.6871 0.0
N835 N 0.18765 0.60498 0.63106 0.0
C836 C 0.17481 0.62456 0.62954 0.0
C837 C 0.16784 0.62765 0.60719 0.0
C838 C 0.18819 0.59638 0.60999 0.0
N839 N 0.1766 0.61005 0.59485 0.0
C840 C 0.18851 0.61445 0.69478 0.0
C841 C 0.14653 0.59427 0.69236 0.0
C842 C 0.15081 0.60826 0.71071 0.0
C843 C 0.17191 0.61862 0.71167 0.0
C844 C 0.16382 0.59039 0.67577 0.0
N845 N 0.18489 0.59966 0.67769 0.0
H846 H 0.20397 0.62379 0.69517 0.0
H847 H 0.16024 0.58001 0.66133 0.0
H848 H 0.17245 0.6367 0.6431 0.0
H849 H 0.19859 0.58141 0.60554 0.0
O850 O 0.22042 0.62605 0.65381 0.0
O851 O 0.23375 0.59811 0.6318 0.0
O852 O 0.2005 0.56256 0.64992 0.0
C853 C 0.23474 0.61945 0.63785 0.0
H854 H 0.27403 0.55222 0.6949 0.0
H855 H 0.15894 0.6428 0.60018 0.0
H856 H 0.13009 0.58648 0.69088 0.0
H857 H 0.17543 0.63018 0.72526 0.0
Co858 Co 0.38402 0.20814 0.65786 0.0
C859 C 0.38356 0.19073 0.61106 0.0
C860 C 0.36128 0.17167 0.63359 0.0
C861 C 0.35773 0.16537 0.6114 0.0
N862 N 0.37791 0.18721 0.6335 0.0
N863 N 0.37158 0.17763 0.59725 0.0
H864 H 0.39483 0.20388 0.60468 0.0
H865 H 0.3512 0.16654 0.64854 0.0
C866 C 0.38778 0.16067 0.68126 0.0
O867 O 0.39548 0.1514 0.66227 0.0
N868 N 0.3899 0.23008 0.68148 0.0
C869 C 0.40097 0.2261 0.70132 0.0
C870 C 0.40225 0.24654 0.71257 0.0
C871 C 0.38459 0.25292 0.68108 0.0
N872 N 0.39185 0.2633 0.69979 0.0
C873 C 0.42674 0.21715 0.63416 0.0
C874 C 0.45401 0.18874 0.66169 0.0
C875 C 0.46404 0.20009 0.64276 0.0
C876 C 0.45021 0.21485 0.62911 0.0
C877 C 0.43068 0.19166 0.66621 0.0
N878 N 0.417 0.2049 0.652 0.0
H879 H 0.41644 0.22884 0.62368 0.0
H880 H 0.42417 0.18354 0.68164 0.0
H881 H 0.40755 0.20953 0.70746 0.0
H882 H 0.37565 0.26208 0.66742 0.0
O883 O 0.37577 0.23333 0.63656 0.0
O884 O 0.35189 0.21517 0.66037 0.0
O885 O 0.38385 0.1824 0.68215 0.0
C886 C 0.35485 0.23068 0.64422 0.0
H887 H 0.3447 0.15408 0.60594 0.0
H888 H 0.40958 0.24876 0.72918 0.0
H889 H 0.46424 0.17803 0.67332 0.0
H890 H 0.45739 0.22435 0.61455 0.0
Co891 Co 0.78779 0.41157 0.63404 0.0
C892 C 0.75105 0.40842 0.67015 0.0
C893 C 0.75233 0.44234 0.6552 0.0
C894 C 0.73367 0.44141 0.67002 0.0
N895 N 0.76381 0.42179 0.65575 0.0
N896 N 0.73289 0.42 0.67944 0.0
H897 H 0.75362 0.39004 0.67228 0.0
H898 H 0.75616 0.4567 0.64373 0.0
C899 C 0.80153 0.4602 0.64108 0.0
O900 O 0.80042 0.45586 0.66331 0.0
N901 N 0.81047 0.40117 0.61151 0.0
C902 C 0.82548 0.38332 0.61461 0.0
C903 C 0.83176 0.37483 0.59357 0.0
C904 C 0.80812 0.40337 0.5885 0.0
N905 N 0.82061 0.38726 0.57716 0.0
C906 C 0.80492 0.39147 0.67583 0.0
C907 C 0.84674 0.41215 0.67563 0.0
C908 C 0.84073 0.39732 0.69407 0.0
C909 C 0.8197 0.38676 0.69384 0.0
C910 C 0.8312 0.41653 0.6578 0.0
N911 N 0.81009 0.40695 0.65855 0.0
H912 H 0.78952 0.382 0.67562 0.0
H913 H 0.83622 0.42747 0.64336 0.0
H914 H 0.82938 0.37512 0.631 0.0
H915 H 0.79513 0.41435 0.58046 0.0
O916 O 0.77611 0.38106 0.63514 0.0
O917 O 0.76414 0.40932 0.61142 0.0
O918 O 0.79686 0.44451 0.62718 0.0
C919 C 0.76294 0.38792 0.61854 0.0
H920 H 0.72126 0.45525 0.67295 0.0
H921 H 0.84174 0.35914 0.59075 0.0
H922 H 0.86314 0.42026 0.67506 0.0
H923 H 0.81477 0.37471 0.70748 0.0
Co924 Co 0.59932 0.22986 0.36528 0.0
C925 C 0.60693 0.2679 0.33135 0.0
C926 C 0.57123 0.26139 0.33524 0.0
C927 C 0.5739 0.27955 0.31966 0.0
N928 N 0.59202 0.2541 0.3426 0.0
N929 N 0.5964 0.28347 0.31725 0.0
H930 H 0.62523 0.26674 0.33341 0.0
H931 H 0.55515 0.25412 0.34059 0.0
C932 C 0.55307 0.2329 0.38742 0.0
O933 O 0.56093 0.24669 0.40254 0.0
N934 N 0.60662 0.20614 0.38811 0.0
C935 C 0.62016 0.18709 0.38576 0.0
C936 C 0.62444 0.17753 0.40724 0.0
C937 C 0.60321 0.2081 0.41083 0.0
N938 N 0.61391 0.19099 0.42284 0.0
C939 C 0.61284 0.20972 0.32322 0.0
C940 C 0.58782 0.17026 0.32929 0.0
C941 C 0.60256 0.17262 0.31026 0.0
C942 C 0.61478 0.19277 0.30699 0.0
C943 C 0.58587 0.18798 0.34487 0.0
N944 N 0.59873 0.20712 0.34194 0.0
H945 H 0.62332 0.22461 0.3212 0.0
H946 H 0.57506 0.18569 0.35996 0.0
H947 H 0.62769 0.18139 0.36975 0.0
H948 H 0.59451 0.22264 0.41859 0.0
O949 O 0.63126 0.23674 0.36327 0.0
O950 O 0.606 0.25307 0.38705 0.0
O951 O 0.56605 0.22538 0.3714 0.0
C952 C 0.62708 0.25115 0.37949 0.0
H953 H 0.56042 0.28878 0.3105 0.0
H954 H 0.63585 0.16299 0.41117 0.0
H955 H 0.57842 0.15468 0.33238 0.0
H956 H 0.62664 0.19484 0.2926 0.0
Co957 Co 0.78578 0.60278 0.35234 0.0
C958 C 0.74543 0.60399 0.32175 0.0
C959 C 0.76977 0.57702 0.3136 0.0
C960 C 0.75156 0.57588 0.29917 0.0
N961 N 0.76587 0.59456 0.32788 0.0
N962 N 0.73634 0.59289 0.30435 0.0
H963 H 0.73713 0.61858 0.3298 0.0
H964 H 0.78494 0.56592 0.31348 0.0
C965 C 0.80774 0.55697 0.36931 0.0
O966 O 0.82277 0.56746 0.38122 0.0
N967 N 0.80499 0.61074 0.3773 0.0
C968 C 0.82158 0.62626 0.37767 0.0
C969 C 0.82688 0.62971 0.40031 0.0
C970 C 0.80018 0.60541 0.39951 0.0
N971 N 0.8134 0.61642 0.41394 0.0
C972 C 0.80562 0.62278 0.31264 0.0
C973 C 0.84664 0.59808 0.31056 0.0
C974 C 0.84186 0.61509 0.29354 0.0
C975 C 0.82105 0.62741 0.29484 0.0
C976 C 0.83067 0.5942 0.32862 0.0
N977 N 0.81035 0.60652 0.32941 0.0
H978 H 0.78941 0.63214 0.3126 0.0
H979 H 0.83479 0.58141 0.34169 0.0
H980 H 0.82854 0.63526 0.36272 0.0
H981 H 0.78654 0.59423 0.40499 0.0
O982 O 0.77471 0.63411 0.35096 0.0
O983 O 0.75902 0.60706 0.37297 0.0
O984 O 0.79292 0.56849 0.35739 0.0
C985 C 0.75917 0.62867 0.36608 0.0
H986 H 0.74992 0.56387 0.28558 0.0
H987 H 0.8393 0.64142 0.40625 0.0
H988 H 0.86261 0.58816 0.31006 0.0
H989 H 0.81646 0.64034 0.28182 0.0
Co990 Co 0.4049 0.78109 0.36636 0.0
C991 C 0.41124 0.74276 0.33348 0.0
C992 C 0.4409 0.74711 0.35329 0.0
C993 C 0.4443 0.72769 0.34078 0.0
N994 N 0.42046 0.75727 0.3482 0.0
N995 N 0.42561 0.72485 0.32831 0.0
H996 H 0.39381 0.74435 0.32785 0.0
H997 H 0.45193 0.75204 0.36672 0.0
C998 C 0.45244 0.79723 0.36482 0.0
O999 O 0.45074 0.79652 0.34245 0.0
N1000 N 0.38958 0.80319 0.38607 0.0
C1001 C 0.37126 0.8169 0.38111 0.0
C1002 C 0.36116 0.824 0.40134 0.0
C1003 C 0.39026 0.80206 0.4092 0.0
N1004 N 0.37289 0.81433 0.41907 0.0
C1005 C 0.39726 0.79793 0.32039 0.0
C1006 C 0.40603 0.84355 0.32712 0.0
C1007 C 0.39745 0.83732 0.30603 0.0
C1008 C 0.39362 0.81411 0.30266 0.0
C1009 C 0.41014 0.82656 0.34433 0.0
N1010 N 0.40543 0.80401 0.34097 0.0
H1011 H 0.39197 0.78078 0.31785 0.0
H1012 H 0.41604 0.83169 0.36076 0.0
H1013 H 0.36453 0.8199 0.36413 0.0
H1014 H 0.4017 0.79036 0.41853 0.0
O1015 O 0.37578 0.76918 0.35978 0.0
O1016 O 0.39695 0.75689 0.38893 0.0
O1017 O 0.43559 0.79101 0.37778 0.0
C1018 C 0.37787 0.75581 0.37782 0.0
H1019 H 0.45871 0.71565 0.34223 0.0
H1020 H 0.34545 0.83421 0.40279 0.0
H1021 H 0.40893 0.86141 0.33048 0.0
H1022 H 0.38629 0.80865 0.28693 0.0
Co1023 Co 0.22256 0.41893 0.34567 0.0
C1024 C 0.26056 0.41241 0.31166 0.0
C1025 C 0.25762 0.4472 0.32216 0.0
C1026 C 0.27758 0.44452 0.30945 0.0
N1027 N 0.24648 0.42716 0.3232 0.0
N1028 N 0.27944 0.42256 0.30295 0.0
H1029 H 0.2582 0.39407 0.31137 0.0
H1030 H 0.25291 0.4623 0.33165 0.0
C1031 C 0.20786 0.46781 0.33521 0.0
O1032 O 0.20779 0.46284 0.31341 0.0
N1033 N 0.2003 0.41113 0.36931 0.0
C1034 C 0.18752 0.3923 0.37132 0.0
C1035 C 0.1799 0.38993 0.39382 0.0
C1036 C 0.20025 0.41991 0.39035 0.0
N1037 N 0.18825 0.40715 0.40583 0.0
C1038 C 0.2046 0.40346 0.3036 0.0
C1039 C 0.15983 0.41805 0.31178 0.0
C1040 C 0.16495 0.40443 0.29288 0.0
C1041 C 0.18772 0.39768 0.28851 0.0
C1042 C 0.17742 0.42411 0.32611 0.0
N1043 N 0.19949 0.4164 0.32222 0.0
H1044 H 0.22149 0.3962 0.3009 0.0
H1045 H 0.17309 0.43399 0.34105 0.0
H1046 H 0.18562 0.38008 0.35798 0.0
H1047 H 0.21056 0.43423 0.39454 0.0
O1048 O 0.23346 0.3874 0.34627 0.0
O1049 O 0.24619 0.4143 0.36836 0.0
O1050 O 0.2141 0.45246 0.35017 0.0
C1051 C 0.24687 0.3928 0.36254 0.0
H1052 H 0.29024 0.45746 0.30626 0.0
H1053 H 0.17082 0.37544 0.40116 0.0
H1054 H 0.14233 0.42335 0.31583 0.0
H1055 H 0.19223 0.38665 0.2744 0.0
Co1056 Co 0.65415 0.58864 0.78296 0.0
C1057 C 0.6904 0.59147 0.74683 0.0
C1058 C 0.6759 0.55822 0.74845 0.0
C1059 C 0.69068 0.55938 0.72974 0.0
N1060 N 0.67616 0.57819 0.75965 0.0
N1061 N 0.6998 0.58034 0.72887 0.0
H1062 H 0.69223 0.60966 0.74905 0.0
H1063 H 0.66457 0.54429 0.75243 0.0
C1064 C 0.66079 0.53912 0.79825 0.0
O1065 O 0.68301 0.54175 0.79803 0.0
N1066 N 0.6316 0.59893 0.80506 0.0
C1067 C 0.63152 0.61814 0.81733 0.0
C1068 C 0.60951 0.62256 0.82537 0.0
C1069 C 0.61001 0.59184 0.80592 0.0
N1070 N 0.59598 0.60616 0.81781 0.0
C1071 C 0.69553 0.60468 0.80114 0.0
C1072 C 0.69003 0.58578 0.84492 0.0
C1073 C 0.70877 0.59949 0.83978 0.0
C1074 C 0.71152 0.60885 0.81763 0.0
C1075 C 0.67457 0.5816 0.82765 0.0
N1076 N 0.67764 0.59074 0.8059 0.0
H1077 H 0.69702 0.61377 0.78496 0.0
H1078 H 0.65967 0.57172 0.83198 0.0
H1079 H 0.6459 0.62922 0.81856 0.0
H1080 H 0.60442 0.57759 0.79623 0.0
O1081 O 0.65496 0.61964 0.77021 0.0
O1082 O 0.63172 0.59292 0.75924 0.0
O1083 O 0.64736 0.55596 0.79256 0.0
C1084 C 0.63843 0.61403 0.75716 0.0
H1085 H 0.69373 0.54621 0.71725 0.0
H1086 H 0.60358 0.63784 0.83409 0.0
H1087 H 0.68718 0.57874 0.86211 0.0
H1088 H 0.72544 0.62018 0.81335 0.0
Co1089 Co 0.38538 0.64233 0.80151 0.0
C1090 C 0.37596 0.59734 0.82309 0.0
C1091 C 0.35457 0.62339 0.83829 0.0
C1092 C 0.34692 0.60198 0.84545 0.0
N1093 N 0.37304 0.62049 0.82435 0.0
N1094 N 0.36037 0.58556 0.83565 0.0
H1095 H 0.38711 0.58911 0.81075 0.0
H1096 H 0.34585 0.63972 0.84128 0.0
C1097 C 0.37942 0.67456 0.84251 0.0
O1098 O 0.38558 0.65874 0.85792 0.0
N1099 N 0.39772 0.66289 0.77785 0.0
C1100 C 0.41853 0.66076 0.76755 0.0
C1101 C 0.41928 0.67524 0.74853 0.0
C1102 C 0.38605 0.67859 0.76475 0.0
N1103 N 0.39877 0.68627 0.74657 0.0
C1104 C 0.42676 0.61594 0.809 0.0
C1105 C 0.45068 0.65004 0.8288 0.0
C1106 C 0.46168 0.62874 0.82496 0.0
C1107 C 0.44926 0.61144 0.81533 0.0
C1108 C 0.42794 0.65373 0.82248 0.0
N1109 N 0.41608 0.63664 0.81303 0.0
H1110 H 0.41856 0.60317 0.79949 0.0
H1111 H 0.42058 0.67085 0.82382 0.0
H1112 H 0.43191 0.64853 0.77255 0.0
H1113 H 0.36812 0.68299 0.76751 0.0
O1114 O 0.38397 0.61872 0.77866 0.0
O1115 O 0.35627 0.64402 0.7873 0.0
O1116 O 0.37922 0.66988 0.82127 0.0
C1117 C 0.36319 0.62669 0.77527 0.0
H1118 H 0.33163 0.5989 0.8557 0.0
H1119 H 0.43359 0.67681 0.73658 0.0
H1120 H 0.4599 0.66417 0.83539 0.0
H1121 H 0.45713 0.59479 0.81177 0.0
Co1122 Co 0.36135 0.40677 0.78518 0.0
C1123 C 0.32685 0.40997 0.74784 0.0
C1124 C 0.34342 0.44169 0.75181 0.0
C1125 C 0.32996 0.44387 0.73284 0.0
N1126 N 0.34096 0.42067 0.76194 0.0
N1127 N 0.31951 0.42386 0.73025 0.0
H1128 H 0.32324 0.39192 0.7494 0.0
H1129 H 0.35558 0.45415 0.75662 0.0
C1130 C 0.35316 0.45404 0.80228 0.0
O1131 O 0.3314 0.44965 0.80048 0.0
N1132 N 0.38318 0.39287 0.80667 0.0
C1133 C 0.3797 0.37446 0.82077 0.0
C1134 C 0.40055 0.36509 0.82729 0.0
C1135 C 0.40625 0.39424 0.8047 0.0
N1136 N 0.41734 0.37724 0.81686 0.0
C1137 C 0.31741 0.39242 0.80221 0.0
C1138 C 0.32243 0.40377 0.84734 0.0
C1139 C 0.30272 0.39254 0.84121 0.0
C1140 C 0.30022 0.38724 0.81827 0.0
C1141 C 0.33904 0.40933 0.83047 0.0
N1142 N 0.33646 0.4036 0.80811 0.0
H1143 H 0.31581 0.38613 0.78532 0.0
H1144 H 0.35445 0.41737 0.83555 0.0
H1145 H 0.36328 0.36699 0.82441 0.0
H1146 H 0.41469 0.40586 0.79265 0.0
O1147 O 0.35845 0.3773 0.77203 0.0
O1148 O 0.38445 0.40243 0.76076 0.0
O1149 O 0.36839 0.43877 0.79631 0.0
C1150 C 0.37562 0.38227 0.75863 0.0
H1151 H 0.32926 0.45856 0.72099 0.0
H1152 H 0.40305 0.3495 0.83767 0.0
H1153 H 0.32518 0.40777 0.86504 0.0
H1154 H 0.28565 0.37785 0.81297 0.0
Co1155 Co 0.60042 0.36145 0.77969 0.0
C1156 C 0.60039 0.33431 0.73757 0.0
C1157 C 0.56751 0.34988 0.74405 0.0
C1158 C 0.56717 0.33933 0.72329 0.0
N1159 N 0.58818 0.34604 0.75356 0.0
N1160 N 0.58796 0.32954 0.7192 0.0
H1161 H 0.61862 0.33121 0.73823 0.0
H1162 H 0.55396 0.36098 0.75069 0.0
C1163 C 0.55174 0.35494 0.79535 0.0
O1164 O 0.5554 0.33291 0.79182 0.0
N1165 N 0.613 0.37783 0.80468 0.0
C1166 C 0.63015 0.37014 0.81825 0.0
C1167 C 0.64002 0.38865 0.82768 0.0
C1168 C 0.61282 0.40097 0.80606 0.0
N1169 N 0.62946 0.40812 0.8196 0.0
C1170 C 0.61729 0.3157 0.78919 0.0
C1171 C 0.6027 0.31159 0.83441 0.0
C1172 C 0.61819 0.29499 0.82565 0.0
C1173 C 0.62484 0.29691 0.8026 0.0
C1174 C 0.59544 0.3304 0.82023 0.0
N1175 N 0.60307 0.33249 0.79788 0.0
H1176 H 0.62466 0.31752 0.77231 0.0
H1177 H 0.5851 0.34408 0.82769 0.0
H1178 H 0.63682 0.3526 0.8193 0.0
H1179 H 0.60264 0.41238 0.79508 0.0
O1180 O 0.6306 0.36013 0.76586 0.0
O1181 O 0.60513 0.38831 0.75927 0.0
O1182 O 0.56805 0.36891 0.79168 0.0
C1183 C 0.62562 0.37957 0.75539 0.0
H1184 H 0.55294 0.33975 0.71177 0.0
H1185 H 0.65511 0.38779 0.83808 0.0
H1186 H 0.59744 0.31085 0.85231 0.0
H1187 H 0.63696 0.28456 0.79526 0.0
Co1188 Co 0.65644 0.40336 0.20354 0.0
C1189 C 0.61149 0.39609 0.18286 0.0
C1190 C 0.63496 0.36759 0.17796 0.0
C1191 C 0.61338 0.36097 0.17253 0.0
N1192 N 0.63388 0.38969 0.18449 0.0
N1193 N 0.59875 0.37897 0.17558 0.0
H1194 H 0.60402 0.41185 0.1892 0.0
H1195 H 0.65002 0.35637 0.17916 0.0
C1196 C 0.68131 0.39304 0.15935 0.0
O1197 O 0.66253 0.39928 0.14859 0.0
N1198 N 0.67815 0.41661 0.22371 0.0
C1199 C 0.67677 0.43802 0.23204 0.0
C1200 C 0.69143 0.43921 0.24999 0.0
C1201 C 0.69365 0.40508 0.23691 0.0
N1202 N 0.70187 0.41843 0.25323 0.0
C1203 C 0.63246 0.44674 0.195 0.0
C1204 C 0.66674 0.46687 0.1688 0.0
C1205 C 0.64768 0.4805 0.17532 0.0
C1206 C 0.63018 0.46999 0.18826 0.0
C1207 C 0.66853 0.44387 0.17619 0.0
N1208 N 0.65141 0.43381 0.1889 0.0
H1209 H 0.61981 0.43977 0.20674 0.0
H1210 H 0.68459 0.43493 0.17297 0.0
H1211 H 0.66488 0.45158 0.22667 0.0
H1212 H 0.69747 0.38682 0.23577 0.0
O1213 O 0.63351 0.40424 0.22828 0.0
O1214 O 0.6578 0.37516 0.22142 0.0
O1215 O 0.68222 0.39477 0.18113 0.0
C1216 C 0.64093 0.38343 0.23372 0.0
H1217 H 0.60855 0.34388 0.16815 0.0
H1218 H 0.69348 0.454 0.26044 0.0
H1219 H 0.68079 0.47414 0.15892 0.0
H1220 H 0.61549 0.47993 0.19447 0.0
Co1221 Co 0.6017 0.66287 0.21603 0.0
C1222 C 0.60042 0.69012 0.25815 0.0
C1223 C 0.56975 0.67181 0.25489 0.0
C1224 C 0.56972 0.6808 0.2764 0.0
N1225 N 0.58882 0.67806 0.24304 0.0
N1226 N 0.58921 0.69207 0.27849 0.0
H1227 H 0.61766 0.69569 0.25515 0.0
H1228 H 0.55774 0.65948 0.24951 0.0
C1229 C 0.55241 0.66532 0.20496 0.0
O1230 O 0.55309 0.68763 0.20765 0.0
N1231 N 0.6142 0.64631 0.19039 0.0
C1232 C 0.63337 0.65038 0.1779 0.0
C1233 C 0.63905 0.63098 0.16568 0.0
C1234 C 0.60839 0.62486 0.18554 0.0
N1235 N 0.62325 0.61503 0.17057 0.0
C1236 C 0.60898 0.71 0.20394 0.0
C1237 C 0.59401 0.70929 0.15941 0.0
C1238 C 0.60492 0.72872 0.16679 0.0
C1239 C 0.61192 0.72913 0.18943 0.0
C1240 C 0.59132 0.69032 0.17466 0.0
N1241 N 0.59895 0.69079 0.19665 0.0
H1242 H 0.61639 0.71024 0.22052 0.0
H1243 H 0.58416 0.67485 0.16845 0.0
H1244 H 0.6434 0.66559 0.17896 0.0
H1245 H 0.59492 0.61576 0.19462 0.0
O1246 O 0.632 0.66759 0.22622 0.0
O1247 O 0.61156 0.63726 0.23626 0.0
O1248 O 0.57038 0.65263 0.20797 0.0
C1249 C 0.6305 0.64832 0.23786 0.0
H1250 H 0.55741 0.67739 0.2901 0.0
H1251 H 0.65432 0.62829 0.15518 0.0
H1252 H 0.58879 0.70829 0.14181 0.0
H1253 H 0.62081 0.74372 0.19554 0.0
Co1254 Co 0.3734 0.59751 0.22752 0.0
C1255 C 0.33764 0.59339 0.26398 0.0
C1256 C 0.35931 0.56322 0.26362 0.0
C1257 C 0.34458 0.56154 0.28233 0.0
N1258 N 0.35447 0.58293 0.25154 0.0
N1259 N 0.33092 0.58063 0.28249 0.0
H1260 H 0.33193 0.61102 0.26098 0.0
H1261 H 0.37357 0.55148 0.26016 0.0
C1262 C 0.37554 0.54884 0.21437 0.0
O1263 O 0.35309 0.55019 0.21553 0.0
N1264 N 0.39278 0.61264 0.20478 0.0
C1265 C 0.38598 0.62946 0.18977 0.0
C1266 C 0.40488 0.64029 0.18099 0.0
C1267 C 0.41576 0.61372 0.20515 0.0
N1268 N 0.4236 0.63064 0.19092 0.0
C1269 C 0.32878 0.60562 0.20873 0.0
C1270 C 0.34022 0.59198 0.1649 0.0
C1271 C 0.31885 0.60268 0.16907 0.0
C1272 C 0.31294 0.60886 0.19142 0.0
C1273 C 0.35541 0.58846 0.18292 0.0
N1274 N 0.34981 0.59567 0.20451 0.0
H1275 H 0.32457 0.61285 0.22497 0.0
H1276 H 0.37236 0.58145 0.17912 0.0
H1277 H 0.3684 0.63478 0.18678 0.0
H1278 H 0.42622 0.60397 0.21732 0.0
O1279 O 0.36464 0.62727 0.23877 0.0
O1280 O 0.39419 0.60585 0.25118 0.0
O1281 O 0.38716 0.56631 0.21911 0.0
C1282 C 0.3818 0.62485 0.25242 0.0
H1283 H 0.34466 0.54782 0.29529 0.0
H1284 H 0.40468 0.65516 0.16935 0.0
H1285 H 0.3455 0.58733 0.14772 0.0
H1286 H 0.29684 0.61785 0.19516 0.0
Co1287 Co 0.41937 0.35764 0.21818 0.0
C1288 C 0.40959 0.32225 0.25468 0.0
C1289 C 0.4455 0.32753 0.25043 0.0
C1290 C 0.44204 0.31394 0.26984 0.0
N1291 N 0.42515 0.33293 0.24087 0.0
N1292 N 0.41944 0.31085 0.27265 0.0
H1293 H 0.3913 0.32423 0.25272 0.0
H1294 H 0.46173 0.33425 0.24487 0.0
C1295 C 0.46464 0.36465 0.19338 0.0
O1296 O 0.45376 0.36947 0.17437 0.0
N1297 N 0.41364 0.38339 0.19622 0.0
C1298 C 0.4072 0.38332 0.17409 0.0
C1299 C 0.40244 0.40557 0.16648 0.0
C1300 C 0.41316 0.40597 0.20133 0.0
N1301 N 0.40608 0.41975 0.18369 0.0
C1302 C 0.39369 0.33313 0.18699 0.0
C1303 C 0.42728 0.30206 0.17263 0.0
C1304 C 0.40528 0.30119 0.16353 0.0
C1305 C 0.38845 0.31687 0.17122 0.0
C1306 C 0.43197 0.31906 0.18843 0.0
N1307 N 0.41536 0.33481 0.19487 0.0
H1308 H 0.38022 0.34504 0.19222 0.0
H1309 H 0.44877 0.31927 0.19568 0.0
H1310 H 0.40615 0.36842 0.16373 0.0
H1311 H 0.41677 0.41233 0.218 0.0
O1312 O 0.388 0.35995 0.22815 0.0
O1313 O 0.4155 0.37901 0.24346 0.0
O1314 O 0.45359 0.3594 0.2119 0.0
C1315 C 0.3938 0.37452 0.24303 0.0
H1316 H 0.45508 0.30768 0.28154 0.0
H1317 H 0.39634 0.41085 0.1497 0.0
H1318 H 0.44066 0.28988 0.16752 0.0
H1319 H 0.37108 0.31647 0.16524 0.0
Co1320 Co 0.7912 0.64916 0.5947 0.0
C1321 C 0.75015 0.67999 0.60064 0.0
C1322 C 0.76047 0.67859 0.56527 0.0
C1323 C 0.74076 0.69216 0.56694 0.0
N1324 N 0.76637 0.67086 0.58645 0.0
N1325 N 0.73438 0.69302 0.58921 0.0
H1326 H 0.74949 0.67687 0.61899 0.0
H1327 H 0.76957 0.67461 0.54952 0.0
C1328 C 0.79496 0.6305 0.54836 0.0
O1329 O 0.78262 0.6136 0.55667 0.0
N1330 N 0.8154 0.62694 0.60309 0.0
C1331 C 0.83211 0.62995 0.61811 0.0
C1332 C 0.8404 0.60869 0.62584 0.0
C1333 C 0.81393 0.60382 0.60189 0.0
N1334 N 0.82867 0.59223 0.6159 0.0
C1335 C 0.80491 0.69083 0.61328 0.0
C1336 C 0.84536 0.69604 0.58852 0.0
C1337 C 0.83837 0.71293 0.6041 0.0
C1338 C 0.81792 0.70999 0.61657 0.0
C1339 C 0.83146 0.67711 0.58537 0.0
N1340 N 0.81144 0.67482 0.59767 0.0
H1341 H 0.78941 0.68889 0.62339 0.0
H1342 H 0.83694 0.6642 0.57335 0.0
H1343 H 0.83644 0.6463 0.62487 0.0
H1344 H 0.80046 0.59562 0.59319 0.0
O1345 O 0.78012 0.64719 0.62595 0.0
O1346 O 0.76888 0.62504 0.59859 0.0
O1347 O 0.80025 0.64664 0.56134 0.0
C1348 C 0.76768 0.6304 0.62008 0.0
H1349 H 0.73192 0.70085 0.55289 0.0
H1350 H 0.85285 0.60572 0.63912 0.0
H1351 H 0.86118 0.69763 0.57869 0.0
H1352 H 0.8121 0.72235 0.62909 0.0
Co1353 Co 0.7893 0.36711 0.39537 0.0
C1354 C 0.75467 0.33044 0.39744 0.0
C1355 C 0.74544 0.35973 0.41747 0.0
C1356 C 0.72731 0.34549 0.4178 0.0
N1357 N 0.76278 0.35019 0.40513 0.0
N1358 N 0.73295 0.32704 0.40518 0.0
H1359 H 0.76402 0.31951 0.38561 0.0
H1360 H 0.7457 0.37649 0.42495 0.0
C1361 C 0.79133 0.36289 0.44767 0.0
O1362 O 0.77889 0.3445 0.44777 0.0
N1363 N 0.81476 0.38598 0.38572 0.0
C1364 C 0.8254 0.38723 0.36493 0.0
C1365 C 0.8339 0.4089 0.36142 0.0
C1366 C 0.81731 0.40696 0.3945 0.0
N1367 N 0.82865 0.42128 0.37999 0.0
C1368 C 0.81318 0.33158 0.37162 0.0
C1369 C 0.82288 0.30126 0.40754 0.0
C1370 C 0.82586 0.29374 0.38501 0.0
C1371 C 0.82215 0.30981 0.36713 0.0
C1372 C 0.81436 0.32386 0.41139 0.0
N1373 N 0.80838 0.33848 0.39343 0.0
H1374 H 0.80892 0.34218 0.3569 0.0
H1375 H 0.8122 0.32889 0.42877 0.0
H1376 H 0.82452 0.37483 0.35174 0.0
H1377 H 0.80795 0.41276 0.40956 0.0
O1378 O 0.77869 0.36695 0.36464 0.0
O1379 O 0.76878 0.39407 0.38863 0.0
O1380 O 0.79732 0.37293 0.42864 0.0
C1381 C 0.76741 0.38591 0.36814 0.0
H1382 H 0.71069 0.34935 0.42548 0.0
H1383 H 0.84113 0.41579 0.34551 0.0
H1384 H 0.8261 0.28956 0.422 0.0
H1385 H 0.82501 0.30524 0.34943 0.0
Co1386 Co 0.63712 0.78154 0.41222 0.0
C1387 C 0.66917 0.74053 0.41204 0.0
C1388 C 0.65419 0.74551 0.44521 0.0
C1389 C 0.66665 0.72504 0.44575 0.0
N1390 N 0.65638 0.75586 0.42424 0.0
N1391 N 0.67605 0.72181 0.42478 0.0
H1392 H 0.67163 0.74194 0.39369 0.0
H1393 H 0.64299 0.75142 0.4589 0.0
C1394 C 0.64698 0.79678 0.45857 0.0
O1395 O 0.66853 0.79237 0.45299 0.0
N1396 N 0.61661 0.80571 0.40026 0.0
C1397 C 0.62085 0.82058 0.38265 0.0
C1398 C 0.6004 0.82985 0.37494 0.0
C1399 C 0.59357 0.806 0.4028 0.0
N1400 N 0.5831 0.82029 0.38725 0.0
C1401 C 0.68155 0.79392 0.39485 0.0
C1402 C 0.68075 0.83848 0.41005 0.0
C1403 C 0.70007 0.83013 0.39801 0.0
C1404 C 0.70029 0.80763 0.39034 0.0
C1405 C 0.66243 0.82393 0.41468 0.0
N1406 N 0.66318 0.80167 0.40754 0.0
H1407 H 0.68167 0.77729 0.38746 0.0
H1408 H 0.64747 0.83064 0.42374 0.0
H1409 H 0.63741 0.82307 0.37454 0.0
H1410 H 0.58466 0.79411 0.41418 0.0
O1411 O 0.63829 0.76842 0.38267 0.0
O1412 O 0.61263 0.75987 0.41001 0.0
O1413 O 0.63132 0.79287 0.44434 0.0
C1414 C 0.62066 0.75678 0.38926 0.0
H1415 H 0.66779 0.7131 0.4603 0.0
H1416 H 0.5986 0.84151 0.36025 0.0
H1417 H 0.67988 0.85597 0.41589 0.0
H1418 H 0.71469 0.80086 0.38038 0.0
Co1419 Co 0.20758 0.65337 0.38577 0.0
C1420 C 0.18931 0.60984 0.37064 0.0
C1421 C 0.17463 0.6386 0.35194 0.0
C1422 C 0.1687 0.6187 0.34164 0.0
N1423 N 0.18724 0.63307 0.37053 0.0
N1424 N 0.17813 0.60059 0.35339 0.0
H1425 H 0.20124 0.59996 0.38107 0.0
H1426 H 0.17164 0.65588 0.34506 0.0
C1427 C 0.16288 0.67981 0.38485 0.0
O1428 O 0.15292 0.66063 0.3912 0.0
N1429 N 0.22902 0.67284 0.40035 0.0
C1430 C 0.23833 0.66866 0.42108 0.0
C1431 C 0.25707 0.682 0.42301 0.0
C1432 C 0.24257 0.68857 0.38988 0.0
N1433 N 0.26002 0.69427 0.40325 0.0
C1434 C 0.1983 0.62262 0.42454 0.0
C1435 C 0.17736 0.65552 0.45173 0.0
C1436 C 0.17987 0.63293 0.4605 0.0
C1437 C 0.1905 0.61634 0.44659 0.0
C1438 C 0.1854 0.66104 0.42966 0.0
N1439 N 0.19505 0.64455 0.41596 0.0
H1440 H 0.20802 0.61007 0.41498 0.0
H1441 H 0.18489 0.67892 0.42414 0.0
H1442 H 0.23315 0.65551 0.43343 0.0
H1443 H 0.24089 0.69413 0.37213 0.0
O1444 O 0.23223 0.63035 0.38226 0.0
O1445 O 0.22306 0.6581 0.35685 0.0
O1446 O 0.18468 0.68017 0.38252 0.0
C1447 C 0.23591 0.64019 0.36216 0.0
H1448 H 0.1595 0.61781 0.32585 0.0
H1449 H 0.26832 0.68167 0.43748 0.0
H1450 H 0.17032 0.66914 0.46224 0.0
H1451 H 0.19336 0.59879 0.45289 0.0
Co1452 Co 0.35926 0.22948 0.41741 0.0
C1453 C 0.32174 0.26316 0.40633 0.0
C1454 C 0.32765 0.26066 0.44244 0.0
C1455 C 0.31239 0.27871 0.43822 0.0
N1456 N 0.33368 0.25096 0.42241 0.0
N1457 N 0.30887 0.28038 0.4155 0.0
H1458 H 0.32365 0.26066 0.38811 0.0
H1459 H 0.33476 0.25599 0.45891 0.0
C1460 C 0.36674 0.20535 0.46259 0.0
O1461 O 0.36873 0.18626 0.45118 0.0
N1462 N 0.38588 0.20909 0.41295 0.0
C1463 C 0.3899 0.1909 0.39945 0.0
C1464 C 0.41311 0.18599 0.39854 0.0
C1465 C 0.40665 0.21451 0.4203 0.0
N1466 N 0.4236 0.20106 0.41151 0.0
C1467 C 0.33508 0.19572 0.3944 0.0
C1468 C 0.30498 0.18391 0.42956 0.0
C1469 C 0.30277 0.17397 0.40813 0.0
C1470 C 0.3182 0.18014 0.39052 0.0
C1471 C 0.32237 0.19951 0.43277 0.0
N1472 N 0.33767 0.20472 0.41545 0.0
H1473 H 0.3456 0.20112 0.37995 0.0
H1474 H 0.32288 0.20802 0.4489 0.0
H1475 H 0.37749 0.18225 0.38985 0.0
H1476 H 0.40946 0.22941 0.43038 0.0
O1477 O 0.36032 0.23814 0.38533 0.0
O1478 O 0.3792 0.25562 0.41167 0.0
O1479 O 0.36262 0.22453 0.45181 0.0
C1480 C 0.37432 0.25396 0.39009 0.0
H1481 H 0.30516 0.29027 0.45081 0.0
H1482 H 0.42166 0.17308 0.38819 0.0
H1483 H 0.29309 0.18013 0.44355 0.0
H1484 H 0.31657 0.17393 0.37336 0.0
Co1485 Co 0.21061 0.3625 0.6146 0.0
C1486 C 0.18963 0.40554 0.63181 0.0
C1487 C 0.17793 0.37624 0.65119 0.0
C1488 C 0.17018 0.39583 0.66196 0.0
N1489 N 0.18977 0.38234 0.63195 0.0
N1490 N 0.17768 0.41425 0.64973 0.0
H1491 H 0.20025 0.41585 0.62055 0.0
H1492 H 0.17641 0.35879 0.65788 0.0
C1493 C 0.16648 0.33813 0.61643 0.0
O1494 O 0.15621 0.35802 0.6114 0.0
N1495 N 0.23223 0.34315 0.59784 0.0
C1496 C 0.24228 0.34846 0.57741 0.0
C1497 C 0.26051 0.33346 0.5738 0.0
C1498 C 0.24465 0.32509 0.60645 0.0
N1499 N 0.26221 0.31897 0.59221 0.0
C1500 C 0.20186 0.39531 0.57699 0.0
C1501 C 0.18159 0.36451 0.54932 0.0
C1502 C 0.18492 0.38691 0.54075 0.0
C1503 C 0.19521 0.40244 0.5549 0.0
C1504 C 0.18864 0.35806 0.57128 0.0
N1505 N 0.19798 0.3735 0.58528 0.0
H1506 H 0.21149 0.40689 0.58669 0.0
H1507 H 0.18789 0.3401 0.5763 0.0
H1508 H 0.23788 0.36323 0.56651 0.0
H1509 H 0.24214 0.31799 0.62364 0.0
O1510 O 0.23474 0.38435 0.61859 0.0
O1511 O 0.22657 0.35522 0.64247 0.0
O1512 O 0.18832 0.33657 0.61744 0.0
C1513 C 0.23915 0.37274 0.63756 0.0
H1514 H 0.16093 0.39638 0.6782 0.0
H1515 H 0.27232 0.33408 0.55929 0.0
H1516 H 0.17483 0.35157 0.53863 0.0
H1517 H 0.19877 0.41975 0.54872 0.0
Co1518 Co 0.65816 0.22931 0.59515 0.0
C1519 C 0.68927 0.2688 0.5888 0.0
C1520 C 0.69504 0.2435 0.5632 0.0
C1521 C 0.71055 0.26062 0.55948 0.0
N1522 N 0.68186 0.24849 0.58175 0.0
N1523 N 0.70672 0.2765 0.57552 0.0
H1524 H 0.68278 0.27749 0.60379 0.0
H1525 H 0.69385 0.22813 0.5534 0.0
C1526 C 0.63457 0.21006 0.55426 0.0
O1527 O 0.62345 0.1951 0.56716 0.0
N1528 N 0.63392 0.21095 0.6084 0.0
C1529 C 0.635 0.19338 0.62403 0.0
C1530 C 0.61301 0.18876 0.63166 0.0
C1531 C 0.61159 0.21719 0.60734 0.0
N1532 N 0.59844 0.20395 0.62119 0.0
C1533 C 0.70019 0.20619 0.60491 0.0
C1534 C 0.69056 0.16325 0.58941 0.0
C1535 C 0.71169 0.16655 0.59936 0.0
C1536 C 0.71654 0.18839 0.60687 0.0
C1537 C 0.67484 0.18183 0.58713 0.0
N1538 N 0.67967 0.20298 0.59503 0.0
H1539 H 0.70391 0.22269 0.61171 0.0
H1540 H 0.65858 0.1787 0.58003 0.0
H1541 H 0.65062 0.18526 0.63031 0.0
H1542 H 0.60512 0.23142 0.59671 0.0
O1543 O 0.66421 0.23908 0.6254 0.0
O1544 O 0.63949 0.25664 0.60189 0.0
O1545 O 0.64824 0.22401 0.56285 0.0
C1546 C 0.64862 0.25518 0.6221 0.0
H1547 H 0.72378 0.26123 0.54624 0.0
H1548 H 0.60825 0.17607 0.64472 0.0
H1549 H 0.68612 0.14642 0.58384 0.0
H1550 H 0.73249 0.19143 0.61517 0.0
Co1551 Co 0.3539 0.77837 0.60243 0.0
C1552 C 0.31882 0.74221 0.60558 0.0
C1553 C 0.33853 0.74068 0.57441 0.0
C1554 C 0.32433 0.72224 0.5756 0.0
N1555 N 0.3346 0.75377 0.59288 0.0
N1556 N 0.31192 0.72325 0.59526 0.0
H1557 H 0.31398 0.74609 0.62298 0.0
H1558 H 0.35179 0.74343 0.56153 0.0
C1559 C 0.34878 0.78937 0.55246 0.0
O1560 O 0.32668 0.78734 0.55607 0.0
N1561 N 0.37421 0.80167 0.61211 0.0
C1562 C 0.3694 0.8181 0.62739 0.0
C1563 C 0.38963 0.82602 0.63523 0.0
C1564 C 0.39728 0.79988 0.61088 0.0
N1565 N 0.40719 0.81426 0.62514 0.0
C1566 C 0.31089 0.79677 0.61814 0.0
C1567 C 0.31045 0.83799 0.59328 0.0
C1568 C 0.29254 0.83347 0.60898 0.0
C1569 C 0.29294 0.81257 0.62136 0.0
C1570 C 0.32846 0.82157 0.5907 0.0
N1571 N 0.32819 0.80086 0.60261 0.0
H1572 H 0.31133 0.7818 0.6293 0.0
H1573 H 0.34292 0.82585 0.57973 0.0
H1574 H 0.35249 0.82256 0.63402 0.0
H1575 H 0.40652 0.78652 0.6017 0.0
O1576 O 0.35072 0.76789 0.63378 0.0
O1577 O 0.37739 0.75476 0.60969 0.0
O1578 O 0.36246 0.78618 0.56919 0.0
C1579 C 0.36829 0.75427 0.63033 0.0
H1580 H 0.3238 0.70877 0.5633 0.0
H1581 H 0.39116 0.83831 0.64858 0.0
H1582 H 0.31097 0.85432 0.58386 0.0
H1583 H 0.27967 0.80869 0.63402 0.0
H1584 H 0.16339 0.31259 0.99558 0.0
H1585 H 0.09708 0.28966 0.97717 0.0
H1586 H 0.08243 0.29663 0.016 0.0
H1587 H 0.08935 0.30681 0.05593 0.0
H1588 H 0.15626 0.32876 0.07375 0.0
H1589 H 0.16954 0.32506 0.03436 0.0
C1590 C 0.14569 0.30921 0.99999 0.0
C1591 C 0.13144 0.30035 0.9836 0.0
C1592 C 0.13744 0.31315 0.02228 0.0
C1593 C 0.10845 0.2964 0.98951 0.0
C1594 C 0.10007 0.30033 0.01173 0.0
C1595 C 0.1068 0.31087 0.05115 0.0
C1596 C 0.12172 0.31796 0.06794 0.0
C1597 C 0.11455 0.30831 0.02838 0.0
C1598 C 0.14421 0.32353 0.06133 0.0
C1599 C 0.15195 0.3212 0.03875 0.0
H1600 H 0.70583 0.09871 0.06375 0.0
H1601 H 0.64093 0.13509 0.07216 0.0
H1602 H 0.6396 0.14275 0.03077 0.0
H1603 H 0.65775 0.14025 0.9922 0.0
H1604 H 0.72257 0.10348 0.98465 0.0
H1605 H 0.7228 0.09447 0.02565 0.0
C1606 C 0.69112 0.10788 0.05662 0.0
C1607 C 0.67352 0.11631 0.07117 0.0
C1608 C 0.69048 0.11222 0.03288 0.0
C1609 C 0.65485 0.12861 0.06142 0.0
C1610 C 0.65405 0.13297 0.03774 0.0
C1611 C 0.67186 0.13023 0.99959 0.0
C1612 C 0.69003 0.12244 0.98537 0.0
C1613 C 0.67194 0.12513 0.02332 0.0
C1614 C 0.70818 0.10937 0.99514 0.0
C1615 C 0.70841 0.10432 0.01862 0.0
H1616 H 0.87417 0.71566 0.06498 0.0
H1617 H 0.85576 0.64455 0.06978 0.0
H1618 H 0.84906 0.64511 0.02838 0.0
H1619 H 0.84948 0.66576 0.99074 0.0
H1620 H 0.86688 0.73736 0.9866 0.0
H1621 H 0.87305 0.73667 0.02784 0.0
C1622 C 0.86889 0.70023 0.05691 0.0
C1623 C 0.86583 0.67993 0.0703 0.0
C1624 C 0.86491 0.70081 0.03326 0.0
C1625 C 0.85829 0.66029 0.05977 0.0
C1626 C 0.85454 0.66063 0.03613 0.0
C1627 C 0.85462 0.68123 0.99884 0.0
C1628 C 0.85787 0.70155 0.98549 0.0
C1629 C 0.85795 0.68077 0.02267 0.0
C1630 C 0.86426 0.72149 0.99638 0.0
C1631 C 0.86785 0.7211 0.01999 0.0
H1632 H 0.304 0.82241 0.99198 0.0
H1633 H 0.29377 0.89272 0.96744 0.0
H1634 H 0.30163 0.90639 0.00547 0.0
H1635 H 0.31067 0.8984 0.04603 0.0
H1636 H 0.32013 0.82795 0.0704 0.0
H1637 H 0.31376 0.8145 0.03216 0.0
C1638 C 0.30351 0.84073 0.99489 0.0
C1639 C 0.29815 0.85645 0.97682 0.0
C1640 C 0.30807 0.84853 0.01683 0.0
C1641 C 0.29774 0.88016 0.98099 0.0
C1642 C 0.30226 0.88803 0.00277 0.0
C1643 C 0.31134 0.88011 0.04299 0.0
C1644 C 0.31599 0.86432 0.06125 0.0
C1645 C 0.30732 0.87237 0.02088 0.0
C1646 C 0.31702 0.84065 0.0568 0.0
C1647 C 0.31314 0.83286 0.03489 0.0
H1648 H 0.12092 0.711 0.02805 0.0
H1649 H 0.18725 0.68105 0.01072 0.0
H1650 H 0.17382 0.67146 0.97309 0.0
H1651 H 0.14446 0.6748 0.94389 0.0
H1652 H 0.07884 0.70661 0.96003 0.0
H1653 H 0.09063 0.71215 0.99941 0.0
C1654 C 0.13231 0.70211 0.01613 0.0
C1655 C 0.15508 0.69691 0.02207 0.0
C1656 C 0.12463 0.69709 0.99429 0.0
C1657 C 0.1697 0.68547 0.00645 0.0
C1658 C 0.16204 0.67994 0.98494 0.0
C1659 C 0.13258 0.68244 0.95619 0.0
C1660 C 0.11084 0.69028 0.94916 0.0
C1661 C 0.13971 0.6861 0.9785 0.0
C1662 C 0.09573 0.70058 0.96512 0.0
C1663 C 0.10247 0.70376 0.98757 0.0
H1664 H 0.31004 0.09588 0.95482 0.0
H1665 H 0.33811 0.16075 0.93252 0.0
H1666 H 0.33414 0.17471 0.97127 0.0
H1667 H 0.32133 0.16937 0.0113 0.0
H1668 H 0.29358 0.1046 0.03434 0.0
H1669 H 0.2987 0.08988 0.99571 0.0
C1670 C 0.31533 0.11304 0.95849 0.0
C1671 C 0.32445 0.12714 0.94064 0.0
C1672 C 0.31294 0.12109 0.981 0.0
C1673 C 0.3314 0.14929 0.94581 0.0
C1674 C 0.32895 0.15742 0.96802 0.0
C1675 C 0.31643 0.152 0.00793 0.0
C1676 C 0.30692 0.13821 0.02575 0.0
C1677 C 0.31956 0.14358 0.9857 0.0
C1678 C 0.30093 0.11564 0.02102 0.0
C1679 C 0.30381 0.10721 0.99887 0.0
H1680 H 0.83539 0.31593 0.01755 0.0
H1681 H 0.89427 0.27352 0.03618 0.0
H1682 H 0.90885 0.27601 0.99652 0.0
H1683 H 0.90407 0.28925 0.95595 0.0
H1684 H 0.84608 0.33325 0.93829 0.0
H1685 H 0.83196 0.33119 0.97801 0.0
C1686 C 0.85149 0.30733 0.01298 0.0
C1687 C 0.86363 0.29444 0.02982 0.0
C1688 C 0.85988 0.30906 0.99022 0.0
C1689 C 0.8846 0.28362 0.02361 0.0
C1690 C 0.89289 0.28494 1.00088 0.0
C1691 C 0.88836 0.29835 0.96089 0.0
C1692 C 0.87605 0.3113 0.94417 0.0
C1693 C 0.88055 0.29741 0.98395 0.0
C1694 C 0.8559 0.3233 0.95084 0.0
C1695 C 0.84779 0.32205 0.97354 0.0
H1696 H 0.71435 0.90106 0.9977 0.0
H1697 H 0.65153 0.86484 0.00744 0.0
H1698 H 0.64401 0.86952 0.96645 0.0
H1699 H 0.65601 0.88316 0.9275 0.0
H1700 H 0.7193 0.91891 0.91891 0.0
H1701 H 0.72543 0.91578 0.95976 0.0
C1702 C 0.69876 0.89457 0.99101 0.0
C1703 C 0.68352 0.88269 0.00566 0.0
C1704 C 0.69453 0.89735 0.96755 0.0
C1705 C 0.66369 0.87388 0.99649 0.0
C1706 C 0.65932 0.87663 0.97308 0.0
C1707 C 0.67103 0.89035 0.93466 0.0
C1708 C 0.68691 0.90155 0.92007 0.0
C1709 C 0.67475 0.88817 0.95838 0.0
C1710 C 0.70638 0.91077 0.92961 0.0
C1711 C 0.7101 0.90876 0.95305 0.0
H1712 H 0.06415 0.12387 0.29419 0.0
H1713 H 0.06099 0.09624 0.36352 0.0
H1714 H 0.01924 0.10098 0.364 0.0
H1715 H 0.98371 0.11212 0.34424 0.0
H1716 H 0.98743 0.14145 0.27536 0.0
H1717 H 0.02887 0.13625 0.27495 0.0
C1718 C 0.05429 0.11874 0.30933 0.0
C1719 C 0.06557 0.10956 0.32873 0.0
C1720 C 0.03041 0.12162 0.30948 0.0
C1721 C 0.05266 0.10346 0.34844 0.0
C1722 C 0.02881 0.10606 0.34866 0.0
C1723 C 0.99355 0.11765 0.32922 0.0
C1724 C 0.98229 0.12701 0.3098 0.0
C1725 C 0.0175 0.11507 0.32924 0.0
C1726 C 0.99546 0.13373 0.29039 0.0
C1727 C 0.01923 0.13096 0.29019 0.0
H1728 H 0.8653 0.97325 0.34788 0.0
H1729 H 0.88049 0.98016 0.27534 0.0
H1730 H 0.88218 0.02192 0.27842 0.0
H1731 H 0.87789 0.05665 0.30151 0.0
H1732 H 0.86096 0.0497 0.37355 0.0
H1733 H 0.86139 0.00775 0.37091 0.0
C1734 C 0.86915 0.98383 0.33273 0.0
C1735 C 0.87282 0.9735 0.3114 0.0
C1736 C 0.86973 0.00785 0.33456 0.0
C1737 C 0.87757 0.9876 0.29196 0.0
C1738 C 0.87855 0.0115 0.29372 0.0
C1739 C 0.87467 0.04591 0.31669 0.0
C1740 C 0.8696 0.05623 0.33779 0.0
C1741 C 0.87451 0.02183 0.3149 0.0
C1742 C 0.86488 0.04212 0.35718 0.0
C1743 C 0.86514 0.01817 0.35565 0.0
H1744 H 0.02009 0.83568 0.3173 0.0
H1745 H 0.03666 0.89506 0.27472 0.0
H1746 H 0.99708 0.90975 0.27825 0.0
H1747 H 0.95729 0.90505 0.29265 0.0
H1748 H 0.94157 0.84636 0.33646 0.0
H1749 H 0.98121 0.83215 0.3334 0.0
C1750 C 0.01506 0.85187 0.30882 0.0
C1751 C 0.03128 0.86415 0.2956 0.0
C1752 C 0.99238 0.86034 0.31117 0.0
C1753 C 0.02454 0.88526 0.285 0.0
C1754 C 0.00188 0.89363 0.28695 0.0
C1755 C 0.96261 0.88918 0.3015 0.0
C1756 C 0.94648 0.87674 0.31472 0.0
C1757 C 0.98558 0.88122 0.29984 0.0
C1758 C 0.95367 0.85635 0.32637 0.0
C1759 C 0.97632 0.84815 0.32451 0.0
H1760 H 0.13491 0.94243 0.3467 0.0
H1761 H 0.1145 0.94245 0.2762 0.0
H1762 H 0.12053 0.98361 0.27219 0.0
H1763 H 0.1321 0.01969 0.28841 0.0
H1764 H 0.15207 0.0202 0.35908 0.0
H1765 H 0.14596 0.97892 0.36323 0.0
C1766 C 0.13178 0.95151 0.33051 0.0
C1767 C 0.12403 0.93937 0.3119 0.0
C1768 C 0.13534 0.97531 0.32827 0.0
C1769 C 0.11997 0.95137 0.29099 0.0
C1770 C 0.12363 0.97493 0.28859 0.0
C1771 C 0.13518 0.01078 0.30471 0.0
C1772 C 0.14261 0.02306 0.32336 0.0
C1773 C 0.13137 0.98708 0.30708 0.0
C1774 C 0.14632 0.01122 0.34442 0.0
C1775 C 0.14283 0.98758 0.34682 0.0
H1776 H 0.00661 0.81789 0.69835 0.0
H1777 H 0.98756 0.88981 0.70458 0.0
H1778 H 0.02644 0.90037 0.69388 0.0
H1779 H 0.066 0.88931 0.68382 0.0
H1780 H 0.08584 0.81749 0.67939 0.0
H1781 H 0.04636 0.80686 0.68751 0.0
C1782 C 0.01093 0.83589 0.69736 0.0
C1783 C 0.99413 0.85301 0.70245 0.0
C1784 C 0.03343 0.84189 0.69126 0.0
C1785 C 1.0001 0.87624 0.70095 0.0
C1786 C 0.02235 0.88232 0.69475 0.0
C1787 C 0.06176 0.8713 0.68467 0.0
C1788 C 0.07905 0.85426 0.68117 0.0
C1789 C 0.03917 0.86529 0.69003 0.0
C1790 C 0.073 0.83104 0.6818 0.0
C1791 C 0.05041 0.82492 0.6867 0.0
H1792 H 0.10941 0.07395 0.7036 0.0
H1793 H 0.1488 0.08231 0.64072 0.0
H1794 H 0.1532 0.04035 0.63833 0.0
H1795 H 0.14683 1.00135 0.65525 0.0
H1796 H 0.10798 0.99472 0.71883 0.0
H1797 H 0.10166 0.03608 0.71926 0.0
C1798 C 0.11847 0.06678 0.68899 0.0
C1799 C 0.12857 0.08133 0.67223 0.0
C1800 C 0.12094 0.0429 0.68782 0.0
C1801 C 0.14093 0.07148 0.65389 0.0
C1802 C 0.1434 0.04752 0.65251 0.0
C1803 C 0.13691 0.009 0.66912 0.0
C1804 C 0.1277 0.99485 0.68683 0.0
C1805 C 0.13368 0.03305 0.66957 0.0
C1806 C 0.11481 0.00503 0.70466 0.0
C1807 C 0.11137 0.02876 0.70508 0.0
H1808 H 0.01923 0.18451 0.6825 0.0
H1809 H 0.04494 0.11803 0.70702 0.0
H1810 H 0.00779 0.10157 0.70098 0.0
H1811 H 0.9674 0.10632 0.68988 0.0
H1812 H 0.94218 0.17272 0.66486 0.0
H1813 H 0.97962 0.18878 0.6697 0.0
C1814 C 0.01675 0.1664 0.68646 0.0
C1815 C 0.03484 0.15261 0.69536 0.0
C1816 C 0.99536 0.15696 0.6828 0.0
C1817 C 0.03134 0.1291 0.70017 0.0
C1818 C 0.01005 0.11965 0.69676 0.0
C1819 C 0.97018 0.12427 0.68544 0.0
C1820 C 0.95199 0.13822 0.67696 0.0
C1821 C 0.99186 0.13346 0.68828 0.0
C1822 C 0.95589 0.16145 0.67109 0.0
C1823 C 0.9773 0.17073 0.67402 0.0
H1824 H 0.9335 0.02446 0.71311 0.0
H1825 H 0.86372 0.03441 0.69149 0.0
H1826 H 0.86235 0.99396 0.68243 0.0
H1827 H 0.88015 0.95529 0.68204 0.0
H1828 H 0.95027 0.94504 0.7023 0.0
H1829 H 0.95218 0.98581 0.71044 0.0
C1830 C 0.91802 0.0178 0.70637 0.0
C1831 C 0.89873 0.03262 0.70318 0.0
C1832 C 0.91731 0.99433 0.70096 0.0
C1833 C 0.87888 0.02357 0.69422 0.0
C1834 C 0.87803 1.00034 0.689 0.0
C1835 C 0.89601 0.9619 0.68785 0.0
C1836 C 0.91496 0.94678 0.69169 0.0
C1837 C 0.89707 0.98549 0.69243 0.0
C1838 C 0.93524 0.956 0.69952 0.0
C1839 C 0.93639 0.97942 0.70413 0.0
H1840 H 0.31404 0.05154 0.09247 0.0
H1841 H 0.34101 0.06346 0.1592 0.0
H1842 H 0.33841 0.023 0.16954 0.0
H1843 H 0.32537 0.98492 0.16143 0.0
H1844 H 0.29702 0.97202 0.09572 0.0
H1845 H 0.30331 0.01206 0.08325 0.0
C1846 C 0.3194 0.0453 0.10924 0.0
C1847 C 0.32758 0.06086 0.12499 0.0
C1848 C 0.31748 0.02179 0.11538 0.0
C1849 C 0.33485 0.05219 0.14651 0.0
C1850 C 0.3332 0.02894 0.1526 0.0
C1851 C 0.32071 0.99077 0.14428 0.0
C1852 C 0.31049 0.97559 0.12963 0.0
C1853 C 0.32409 0.01373 0.1374 0.0
C1854 C 0.3049 0.98337 0.10735 0.0
C1855 C 0.30838 0.0063 0.10027 0.0
H1856 H 0.29472 0.01956 0.9171 0.0
H1857 H 0.30574 0.02982 0.8442 0.0
H1858 H 0.31466 0.98882 0.8405 0.0
H1859 H 0.31752 0.94956 0.8576 0.0
H1860 H 0.30814 0.93956 0.93072 0.0
H1861 H 0.30051 0.98071 0.93459 0.0
C1862 C 0.29912 0.01286 0.9004 0.0
C1863 C 0.29927 0.02786 0.88095 0.0
C1864 C 0.30452 0.98917 0.89838 0.0
C1865 C 0.30533 0.01878 0.85951 0.0
C1866 C 0.31046 0.99526 0.85734 0.0
C1867 C 0.31423 0.95634 0.87445 0.0
C1868 C 0.31315 0.94118 0.89379 0.0
C1869 C 0.30993 0.98021 0.87662 0.0
C1870 C 0.30866 0.95058 0.91544 0.0
C1871 C 0.30433 0.97421 0.9177 0.0
H1872 H 0.05289 0.28354 0.89817 0.0
H1873 H 0.05901 0.35378 0.87368 0.0
H1874 H 0.01768 0.35677 0.86761 0.0
H1875 H 0.97994 0.33892 0.86841 0.0
H1876 H 0.97461 0.26798 0.89146 0.0
H1877 H 0.01542 0.26583 0.89919 0.0
C1878 C 0.04514 0.29961 0.89185 0.0
C1879 C 0.05897 0.31851 0.8866 0.0
C1880 C 0.02149 0.30104 0.88809 0.0
C1881 C 0.04871 0.33902 0.87781 0.0
C1882 C 0.0251 0.34072 0.87439 0.0
C1883 C 0.98767 0.32305 0.87531 0.0
C1884 C 0.97415 0.30367 0.87942 0.0
C1885 C 0.01132 0.32178 0.87935 0.0
C1886 C 0.98455 0.28316 0.8881 0.0
C1887 C 0.00792 0.2819 0.89254 0.0
H1888 H 0.6921 0.00545 0.80211 0.0
H1889 H 0.70166 0.98161 0.87217 0.0
H1890 H 0.69241 0.02014 0.8855 0.0
H1891 H 0.68335 0.06095 0.87726 0.0
H1892 H 0.67486 0.08526 0.80731 0.0
H1893 H 0.6813 0.04615 0.79404 0.0
C1894 C 0.69208 0.00864 0.8203 0.0
C1895 C 0.69779 0.99063 0.83606 0.0
C1896 C 0.68678 0.03093 0.82791 0.0
C1897 C 0.6975 0.99511 0.8596 0.0
C1898 C 0.69217 0.01717 0.86728 0.0
C1899 C 0.68287 0.05769 0.85911 0.0
C1900 C 0.67879 0.0761 0.84334 0.0
C1901 C 0.68707 0.03525 0.85157 0.0
C1902 C 0.67776 0.07147 0.8199 0.0
C1903 C 0.68168 0.0491 0.81226 0.0
H1904 H 0.01592 0.66643 0.89243 0.0
H1905 H 0.01507 0.74068 0.88622 0.0
H1906 H 0.97403 0.74217 0.89322 0.0
H1907 H 0.93831 0.72271 0.89949 0.0
H1908 H 0.93824 0.64867 0.90714 0.0
H1909 H 0.97972 0.64683 0.90091 0.0
C1910 C 0.00677 0.68293 0.89273 0.0
C1911 C 0.01862 0.70339 0.88853 0.0
C1912 C 0.983 0.68374 0.8969 0.0
C1913 C 0.00646 0.72462 0.88911 0.0
C1914 C 0.98293 0.72554 0.89317 0.0
C1915 C 0.94728 0.70614 0.90031 0.0
C1916 C 0.93505 0.68587 0.90389 0.0
C1917 C 0.97103 0.70523 0.8969 0.0
C1918 C 0.94713 0.66455 0.90421 0.0
C1919 C 0.97088 0.66349 0.90074 0.0
H1920 H 0.67218 0.94152 0.1691 0.0
H1921 H 0.67075 0.95192 0.09577 0.0
H1922 H 0.67827 0.99277 0.09955 0.0
H1923 H 0.68884 0.02474 0.12376 0.0
H1924 H 0.69062 0.01318 0.19719 0.0
H1925 H 0.6793 0.97382 0.19327 0.0
C1926 C 0.67286 0.95284 0.154 0.0
C1927 C 0.67098 0.94372 0.1322 0.0
C1928 C 0.67767 0.97611 0.15628 0.0
C1929 C 0.67229 0.95859 0.11275 0.0
C1930 C 0.6767 0.98189 0.11489 0.0
C1931 C 0.68661 0.01364 0.13887 0.0
C1932 C 0.6909 0.02193 0.16066 0.0
C1933 C 0.68009 0.99073 0.13657 0.0
C1934 C 0.6877 0.00732 0.18011 0.0
C1935 C 0.68114 0.98472 0.17796 0.0
H1936 H 0.07557 0.67939 0.0917 0.0
H1937 H 0.08893 0.68816 0.16312 0.0
H1938 H 0.048 0.68973 0.17198 0.0
H1939 H 0.00868 0.69174 0.15901 0.0
H1940 H 0.99471 0.68113 0.08786 0.0
H1941 H 0.03564 0.67764 0.07924 0.0
C1942 C 0.06942 0.68144 0.10919 0.0
C1943 C 0.08518 0.68365 0.12671 0.0
C1944 C 0.04582 0.68232 0.11416 0.0
C1945 C 0.07713 0.68612 0.14938 0.0
C1946 C 0.05373 0.68722 0.15443 0.0
C1947 C 0.01442 0.68808 0.1417 0.0
C1948 C 0.99846 0.68689 0.12412 0.0
C1949 C 0.03793 0.68568 0.13691 0.0
C1950 C 0.00652 0.68262 0.1017 0.0
C1951 C 0.02995 0.68047 0.09675 0.0
H1952 H 0.00403 0.30299 0.17672 0.0
H1953 H 0.02712 0.28692 0.10822 0.0
H1954 H 0.98798 0.29241 0.09461 0.0
H1955 H 0.94673 0.30077 0.10253 0.0
H1956 H 0.92458 0.31663 0.17141 0.0
H1957 H 0.96367 0.31249 0.18429 0.0
C1958 C 1.00058 0.30072 0.15877 0.0
C1959 C 0.01856 0.2944 0.14358 0.0
C1960 C 0.97809 0.30395 0.15106 0.0
C1961 C 0.01367 0.29176 0.12034 0.0
C1962 C 0.99125 0.29486 0.11254 0.0
C1963 C 0.95049 0.30334 0.12033 0.0
C1964 C 0.93255 0.30916 0.13586 0.0
C1965 C 0.97324 0.30078 0.1278 0.0
C1966 C 0.93786 0.31259 0.15888 0.0
C1967 C 0.9603 0.31002 0.16637 0.0
H1968 H 0.64294 0.82557 0.56127 0.0
H1969 H 0.57193 0.81014 0.55451 0.0
H1970 H 0.57838 0.80355 0.51363 0.0
H1971 H 0.60519 0.79883 0.48064 0.0
H1972 H 0.67637 0.81353 0.48861 0.0
H1973 H 0.66876 0.82404 0.52806 0.0
C1974 C 0.62871 0.82137 0.5508 0.0
C1975 C 0.60699 0.81829 0.56097 0.0
C1976 C 0.63265 0.8172 0.52752 0.0
C1977 C 0.58886 0.8124 0.54711 0.0
C1978 C 0.59255 0.80861 0.52376 0.0
C1979 C 0.61895 0.80459 0.49095 0.0
C1980 C 0.64136 0.8051 0.48175 0.0
C1981 C 0.61453 0.81038 0.51389 0.0
C1982 C 0.65901 0.81265 0.49532 0.0
C1983 C 0.65469 0.81874 0.51792 0.0
H1984 H 0.20458 0.60708 0.49104 0.0
H1985 H 0.14163 0.6472 0.48472 0.0
H1986 H 0.13413 0.64232 0.52596 0.0
H1987 H 0.14699 0.62883 0.56419 0.0
H1988 H 0.21076 0.58976 0.56966 0.0
H1989 H 0.21591 0.59142 0.52841 0.0
C1990 C 0.18893 0.61429 0.49854 0.0
C1991 C 0.17374 0.62753 0.48483 0.0
C1992 C 0.18485 0.61161 0.5222 0.0
C1993 C 0.15375 0.63714 0.49497 0.0
C1994 C 0.14943 0.63433 0.51853 0.0
C1995 C 0.16193 0.6206 0.55633 0.0
C1996 C 0.17837 0.6092 0.5702 0.0
C1997 C 0.16514 0.62201 0.5324 0.0
C1998 C 0.19754 0.59836 0.55964 0.0
C1999 C 0.20069 0.59947 0.53593 0.0
H2000 H 0.36513 0.16725 0.49082 0.0
H2001 H 0.3715 0.24091 0.49167 0.0
H2002 H 0.37433 0.23877 0.53346 0.0
H2003 H 0.37466 0.2159 0.56993 0.0
H2004 H 0.36656 0.14259 0.56896 0.0
H2005 H 0.3647 0.14462 0.52708 0.0
C2006 C 0.36721 0.18287 0.50009 0.0
C2007 C 0.36822 0.20421 0.48802 0.0
C2008 C 0.36852 0.18154 0.52415 0.0
C2009 C 0.37066 0.22426 0.50045 0.0
C2010 C 0.37232 0.22304 0.52438 0.0
C2011 C 0.37275 0.20036 0.5605 0.0
C2012 C 0.37098 0.17904 0.57252 0.0
C2013 C 0.37129 0.20176 0.53642 0.0
C2014 C 0.36794 0.15914 0.56009 0.0
C2015 C 0.36691 0.16032 0.53617 0.0
H2016 H 0.82093 0.41247 0.53739 0.0
H2017 H 0.8094 0.34465 0.56633 0.0
H2018 H 0.79959 0.33119 0.52878 0.0
H2019 H 0.79356 0.33866 0.48796 0.0
H2020 H 0.80647 0.4057 0.45761 0.0
H2021 H 0.81675 0.41945 0.49521 0.0
C2022 C 0.81642 0.39475 0.53528 0.0
C2023 C 0.81607 0.37951 0.55454 0.0
C2024 C 0.81109 0.38699 0.5134 0.0
C2025 C 0.81015 0.35657 0.55172 0.0
C2026 C 0.80442 0.3489 0.53027 0.0
C2027 C 0.79866 0.3563 0.48949 0.0
C2028 C 0.79905 0.37117 0.46997 0.0
C2029 C 0.80476 0.36395 0.51102 0.0
C2030 C 0.80601 0.39387 0.47232 0.0
C2031 C 0.81182 0.40176 0.49385 0.0
H2032 H 0.62306 0.17433 0.52873 0.0
H2033 H 0.64058 0.24585 0.52377 0.0
H2034 H 0.63549 0.2462 0.48231 0.0
H2035 H 0.62568 0.22626 0.44763 0.0
H2036 H 0.61049 0.15433 0.45191 0.0
H2037 H 0.6152 0.15384 0.49365 0.0
C2038 C 0.62568 0.19 0.51856 0.0
C2039 C 0.63192 0.21011 0.52924 0.0
C2040 C 0.62319 0.18993 0.49473 0.0
C2041 C 0.63571 0.23018 0.51587 0.0
C2042 C 0.63278 0.23041 0.49222 0.0
C2043 C 0.62331 0.21056 0.45782 0.0
C2044 C 0.61743 0.19042 0.44705 0.0
C2045 C 0.62644 0.21042 0.48152 0.0
C2046 C 0.61495 0.16996 0.46009 0.0
C2047 C 0.61757 0.16975 0.48383 0.0
H2048 H 0.82161 0.64992 0.44376 0.0
H2049 H 0.80137 0.57952 0.44003 0.0
H2050 H 0.79443 0.57757 0.48131 0.0
H2051 H 0.79227 0.5962 0.51823 0.0
H2052 H 0.8129 0.66639 0.52287 0.0
H2053 H 0.82177 0.66799 0.48167 0.0
C2054 C 0.81602 0.63408 0.45204 0.0
C2055 C 0.81173 0.61499 0.43869 0.0
C2056 C 0.812 0.63305 0.47598 0.0
C2057 C 0.80435 0.59461 0.44976 0.0
C2058 C 0.80045 0.59344 0.47342 0.0
C2059 C 0.79877 0.61186 0.51029 0.0
C2060 C 0.80171 0.63119 0.52365 0.0
C2061 C 0.80384 0.61265 0.48665 0.0
C2062 C 0.81042 0.65124 0.51303 0.0
C2063 C 0.81546 0.65218 0.48943 0.0
H2064 H 0.32397 0.80295 0.51543 0.0
H2065 H 0.3933 0.78827 0.53632 0.0
H2066 H 0.4071 0.79573 0.49694 0.0
H2067 H 0.3992 0.80521 0.45616 0.0
H2068 H 0.32949 0.81937 0.43604 0.0
H2069 H 0.31631 0.81374 0.47548 0.0
C2070 C 0.34214 0.8014 0.51145 0.0
C2071 C 0.35753 0.79486 0.52886 0.0
C2072 C 0.34994 0.80576 0.48883 0.0
C2073 C 0.38102 0.79321 0.52331 0.0
C2074 C 0.38893 0.79746 0.50075 0.0
C2075 C 0.38114 0.80709 0.4604 0.0
C2076 C 0.36546 0.81276 0.44291 0.0
C2077 C 0.37351 0.80354 0.4833 0.0
C2078 C 0.34211 0.81539 0.44893 0.0
C2079 C 0.33446 0.81195 0.47157 0.0
H2080 H 0.21176 0.41003 0.50984 0.0
H2081 H 0.14726 0.37641 0.5167 0.0
H2082 H 0.14183 0.38095 0.47538 0.0
H2083 H 0.15689 0.39191 0.43689 0.0
H2084 H 0.22204 0.42452 0.43057 0.0
H2085 H 0.22537 0.42346 0.47194 0.0
C2086 C 0.19625 0.4042 0.5024 0.0
C2087 C 0.18 0.39282 0.51634 0.0
C2088 C 0.19337 0.4066 0.47861 0.0
C2089 C 0.16016 0.38502 0.50631 0.0
C2090 C 0.15704 0.3876 0.48268 0.0
C2091 C 0.17174 0.39889 0.44459 0.0
C2092 C 0.1891 0.4083 0.43048 0.0
C2093 C 0.1738 0.39788 0.46858 0.0
C2094 C 0.20815 0.41749 0.44082 0.0
C2095 C 0.21022 0.41672 0.46458 0.0
H2096 H 0.49204 0.60818 0.79623 0.0
H2097 H 0.48736 0.64235 0.86072 0.0
H2098 H 0.5289 0.63779 0.86469 0.0
H2099 H 0.56665 0.62445 0.84917 0.0
H2100 H 0.56984 0.59076 0.78427 0.0
H2101 H 0.52868 0.59405 0.78161 0.0
C2102 C 0.49997 0.61422 0.81144 0.0
C2103 C 0.48661 0.62535 0.82827 0.0
C2104 C 0.52361 0.61148 0.81361 0.0
C2105 C 0.49732 0.63376 0.84747 0.0
C2106 C 0.52102 0.63109 0.84978 0.0
C2107 C 0.55826 0.6178 0.83452 0.0
C2108 C 0.5714 0.60713 0.81714 0.0
C2109 C 0.53437 0.62007 0.83285 0.0
C2110 C 0.56029 0.59852 0.79825 0.0
C2111 C 0.53668 0.60061 0.79653 0.0
H2112 H 0.39127 0.55151 0.82487 0.0
H2113 H 0.3199 0.5642 0.84194 0.0
H2114 H 0.31198 0.52436 0.83435 0.0
H2115 H 0.32451 0.48673 0.82024 0.0
H2116 H 0.39546 0.47372 0.80184 0.0
H2117 H 0.40424 0.51293 0.81231 0.0
C2118 C 0.37396 0.54563 0.82693 0.0
C2119 C 0.3562 0.5612 0.83382 0.0
C2120 C 0.36938 0.52263 0.82206 0.0
C2121 C 0.334 0.55287 0.83688 0.0
C2122 C 0.32939 0.53002 0.83231 0.0
C2123 C 0.34197 0.49235 0.81855 0.0
C2124 C 0.35927 0.47723 0.81001 0.0
C2125 C 0.34684 0.5149 0.82448 0.0
C2126 C 0.38179 0.4849 0.80827 0.0
C2127 C 0.38679 0.50737 0.81423 0.0
H2128 H 0.51492 0.32948 0.80719 0.0
H2129 H 0.53471 0.39973 0.79541 0.0
H2130 H 0.4949 0.41306 0.80132 0.0
H2131 H 0.45385 0.40447 0.80863 0.0
H2132 H 0.43523 0.33375 0.82005 0.0
H2133 H 0.47495 0.32111 0.81561 0.0
C2134 C 0.51064 0.34776 0.80601 0.0
C2135 C 0.52793 0.36352 0.80076 0.0
C2136 C 0.48774 0.35528 0.80936 0.0
C2137 C 0.52188 0.38714 0.79946 0.0
C2138 C 0.49903 0.39478 0.80276 0.0
C2139 C 0.45852 0.38632 0.81017 0.0
C2140 C 0.44133 0.3702 0.8149 0.0
C2141 C 0.48172 0.37898 0.8075 0.0
C2142 C 0.44787 0.34671 0.81692 0.0
C2143 C 0.47069 0.33937 0.81419 0.0
H2144 H 0.60549 0.44812 0.81294 0.0
H2145 H 0.67335 0.42019 0.82598 0.0
H2146 H 0.68876 0.4584 0.82175 0.0
H2147 H 0.68364 0.49949 0.81159 0.0
H2148 H 0.61598 0.52744 0.79753 0.0
H2149 H 0.60005 0.4896 0.80461 0.0
C2150 C 0.62363 0.45039 0.81492 0.0
C2151 C 0.63811 0.43113 0.81972 0.0
C2152 C 0.63256 0.47247 0.81201 0.0
C2153 C 0.66159 0.43455 0.82259 0.0
C2154 C 0.67054 0.45646 0.81993 0.0
C2155 C 0.66539 0.49735 0.81018 0.0
C2156 C 0.65112 0.5163 0.80382 0.0
C2157 C 0.65627 0.47549 0.81422 0.0
C2158 C 0.62746 0.51318 0.80225 0.0
C2159 C 0.61828 0.49151 0.80631 0.0
H2160 H 0.57213 0.35038 0.20043 0.0
H2161 H 0.5705 0.40768 0.15199 0.0
H2162 H 0.52851 0.4081 0.15273 0.0
H2163 H 0.49228 0.39212 0.16742 0.0
H2164 H 0.49391 0.33674 0.21831 0.0
H2165 H 0.53575 0.33559 0.2166 0.0
C2166 C 0.56245 0.36278 0.18995 0.0
C2167 C 0.57417 0.37875 0.17584 0.0
C2168 C 0.53837 0.36332 0.19108 0.0
C2169 C 0.56166 0.39516 0.16275 0.0
C2170 C 0.53774 0.39539 0.16323 0.0
C2171 C 0.50183 0.37981 0.17813 0.0
C2172 C 0.49 0.36452 0.19297 0.0
C2173 C 0.5259 0.37956 0.17735 0.0
C2174 C 0.50258 0.34884 0.20693 0.0
C2175 C 0.52652 0.34808 0.20585 0.0
H2176 H 0.61098 0.50906 0.16501 0.0
H2177 H 0.68364 0.50937 0.17638 0.0
H2178 H 0.68291 0.55109 0.17256 0.0
H2179 H 0.66116 0.5878 0.17009 0.0
H2180 H 0.58824 0.58799 0.16192 0.0
H2181 H 0.58947 0.54591 0.16054 0.0
C2182 C 0.62667 0.51823 0.16662 0.0
C2183 C 0.6473 0.5059 0.17094 0.0
C2184 C 0.62607 0.54241 0.16511 0.0
C2185 C 0.66752 0.51819 0.17263 0.0
C2186 C 0.66713 0.54216 0.17067 0.0
C2187 C 0.64566 0.57863 0.16741 0.0
C2188 C 0.62465 0.59088 0.166 0.0
C2189 C 0.64645 0.55448 0.16736 0.0
C2190 C 0.60458 0.5788 0.16305 0.0
C2191 C 0.60529 0.5548 0.16235 0.0
H2192 H 0.46362 0.60726 0.19732 0.0
H2193 H 0.43429 0.6753 0.18422 0.0
H2194 H 0.4718 0.69173 0.18617 0.0
H2195 H 0.51258 0.68727 0.19361 0.0
H2196 H 0.54257 0.61955 0.20703 0.0
H2197 H 0.50526 0.60256 0.20297 0.0
C2198 C 0.46552 0.62565 0.19484 0.0
C2199 C 0.44614 0.63995 0.19057 0.0
C2200 C 0.48724 0.6351 0.19617 0.0
C2201 C 0.44887 0.66378 0.18716 0.0
C2202 C 0.47034 0.67326 0.18847 0.0
C2203 C 0.51101 0.66877 0.19556 0.0
C2204 C 0.53029 0.65475 0.20083 0.0
C2205 C 0.48958 0.65914 0.19323 0.0
C2206 C 0.52798 0.63078 0.20304 0.0
C2207 C 0.50664 0.62104 0.20077 0.0
H2208 H 0.35941 0.5179 0.18618 0.0
H2209 H 0.41649 0.53007 0.22902 0.0
H2210 H 0.43186 0.49098 0.22245 0.0
H2211 H 0.42724 0.45232 0.2066 0.0
H2212 H 0.37033 0.44136 0.16306 0.0
H2213 H 0.35681 0.48106 0.1676 0.0
C2214 C 0.37534 0.51205 0.19393 0.0
C2215 C 0.3867 0.52666 0.20827 0.0
C2216 C 0.38402 0.48976 0.18997 0.0
C2217 C 0.40748 0.51908 0.2179 0.0
C2218 C 0.41617 0.49671 0.21424 0.0
C2219 C 0.41199 0.45875 0.19802 0.0
C2220 C 0.39974 0.44387 0.1846 0.0
C2221 C 0.40432 0.48173 0.20066 0.0
C2222 C 0.38017 0.45247 0.17329 0.0
C2223 C 0.37234 0.47514 0.17601 0.0
H2224 H 0.81908 0.49497 0.66467 0.0
H2225 H 0.79679 0.47825 0.59745 0.0
H2226 H 0.80434 0.51737 0.58335 0.0
H2227 H 0.81592 0.55692 0.59051 0.0
H2228 H 0.83814 0.57325 0.65787 0.0
H2229 H 0.83241 0.53375 0.67127 0.0
C2230 C 0.81591 0.49983 0.64691 0.0
C2231 C 0.80719 0.48366 0.63223 0.0
C2232 C 0.82041 0.52235 0.63886 0.0
C2233 C 0.80345 0.49028 0.60919 0.0
C2234 C 0.80775 0.5127 0.6011 0.0
C2235 C 0.81959 0.55181 0.60809 0.0
C2236 C 0.82747 0.56821 0.62308 0.0
C2237 C 0.81603 0.52897 0.61584 0.0
C2238 C 0.83238 0.56111 0.64577 0.0
C2239 C 0.82889 0.53849 0.65356 0.0
H2240 H 0.80881 0.45055 0.34962 0.0
H2241 H 0.84525 0.44697 0.41283 0.0
H2242 H 0.84223 0.48909 0.41518 0.0
H2243 H 0.8289 0.52678 0.39915 0.0
H2244 H 0.78998 0.52983 0.33716 0.0
H2245 H 0.7941 0.4881 0.33441 0.0
C2246 C 0.8163 0.45914 0.3637 0.0
C2247 C 0.82769 0.44596 0.3808 0.0
C2248 C 0.81386 0.48317 0.3652 0.0
C2249 C 0.83672 0.45699 0.3994 0.0
C2250 C 0.83491 0.48097 0.40073 0.0
C2251 C 0.82133 0.51832 0.38502 0.0
C2252 C 0.80929 0.5315 0.36828 0.0
C2253 C 0.82347 0.49423 0.38373 0.0
C2254 C 0.79933 0.52019 0.35027 0.0
C2255 C 0.80174 0.4963 0.34864 0.0
H2256 H 0.54688 0.80651 0.41398 0.0
H2257 H 0.56455 0.8347 0.34667 0.0
H2258 H 0.52549 0.83168 0.335 0.0
H2259 H 0.48699 0.81838 0.34229 0.0
H2260 H 0.46829 0.78898 0.40857 0.0
H2261 H 0.50698 0.79507 0.42209 0.0
C2262 C 0.54227 0.81202 0.39676 0.0
C2263 C 0.55912 0.82067 0.38132 0.0
C2264 C 0.51951 0.80986 0.38982 0.0
C2265 C 0.55237 0.82813 0.35921 0.0
C2266 C 0.52988 0.82625 0.35233 0.0
C2267 C 0.49126 0.81338 0.35977 0.0
C2268 C 0.47481 0.80299 0.3743 0.0
C2269 C 0.51346 0.81674 0.3673 0.0
C2270 C 0.48062 0.79697 0.39699 0.0
C2271 C 0.50279 0.80038 0.40469 0.0
H2272 H 0.19456 0.50474 0.3081 0.0
H2273 H 0.20658 0.48407 0.37863 0.0
H2274 H 0.19693 0.52305 0.39055 0.0
H2275 H 0.18618 0.56325 0.38095 0.0
H2276 H 0.17538 0.58431 0.31037 0.0
H2277 H 0.18282 0.54487 0.29864 0.0
C2278 C 0.19504 0.50872 0.3261 0.0
C2279 C 0.20148 0.49145 0.34239 0.0
C2280 C 0.18951 0.53125 0.33288 0.0
C2281 C 0.20185 0.49698 0.36565 0.0
C2282 C 0.19628 0.51929 0.37252 0.0
C2283 C 0.18551 0.55927 0.36298 0.0
C2284 C 0.18035 0.5769 0.34661 0.0
C2285 C 0.19028 0.5366 0.35627 0.0
C2286 C 0.17907 0.57121 0.32344 0.0
C2287 C 0.18355 0.54862 0.31666 0.0
H2288 H 0.52251 0.23688 0.42329 0.0
H2289 H 0.53007 0.21132 0.35482 0.0
H2290 H 0.49119 0.19773 0.3569 0.0
H2291 H 0.45458 0.19417 0.37746 0.0
H2292 H 0.44652 0.21925 0.44592 0.0
H2293 H 0.48602 0.23183 0.44459 0.0
C2294 C 0.51561 0.22842 0.40882 0.0
C2295 C 0.52918 0.22528 0.38891 0.0
C2296 C 0.49317 0.22043 0.41014 0.0
C2297 C 0.52003 0.21403 0.37038 0.0
C2298 C 0.49777 0.20619 0.37153 0.0
C2299 C 0.46158 0.20194 0.39228 0.0
C2300 C 0.44762 0.20574 0.41177 0.0
C2301 C 0.48418 0.20932 0.39129 0.0
C2302 C 0.45688 0.21628 0.43065 0.0
C2303 C 0.47945 0.2235 0.42988 0.0
H2304 H 0.18576 0.51053 0.69346 0.0
H2305 H 0.19298 0.53127 0.62202 0.0
H2306 H 0.18628 0.49203 0.61093 0.0
H2307 H 0.18022 0.45155 0.6215 0.0
H2308 H 0.1745 0.43045 0.69287 0.0
H2309 H 0.17814 0.47022 0.70395 0.0
C2310 C 0.18576 0.50652 0.67546 0.0
C2311 C 0.19007 0.52381 0.65863 0.0
C2312 C 0.18205 0.48387 0.66917 0.0
C2313 C 0.18987 0.51829 0.63536 0.0
C2314 C 0.18602 0.49585 0.62898 0.0
C2315 C 0.17978 0.45564 0.63948 0.0
C2316 C 0.17729 0.43795 0.65629 0.0
C2317 C 0.18241 0.47846 0.64575 0.0
C2318 C 0.17622 0.44366 0.67953 0.0
C2319 C 0.17852 0.46641 0.6859 0.0
H2320 H 0.56844 0.17069 0.63071 0.0
H2321 H 0.57384 0.24402 0.62004 0.0
H2322 H 0.53251 0.24926 0.62463 0.0
H2323 H 0.49475 0.2331 0.63221 0.0
H2324 H 0.48915 0.1598 0.64315 0.0
H2325 H 0.5305 0.15444 0.63805 0.0
C2326 C 0.56052 0.18778 0.62957 0.0
C2327 C 0.57414 0.20688 0.62489 0.0
C2328 C 0.53668 0.19069 0.63221 0.0
C2329 C 0.56368 0.22898 0.62324 0.0
C2330 C 0.54005 0.23202 0.62596 0.0
C2331 C 0.50257 0.21595 0.63317 0.0
C2332 C 0.48893 0.1969 0.63805 0.0
C2333 C 0.52636 0.213 0.63036 0.0
C2334 C 0.49933 0.17478 0.6396 0.0
C2335 C 0.52296 0.17169 0.63667 0.0
H2336 H 0.50209 0.8058 0.67327 0.0
H2337 H 0.52386 0.78389 0.60611 0.0
H2338 H 0.485 0.79058 0.59227 0.0
H2339 H 0.44442 0.80163 0.59963 0.0
H2340 H 0.42323 0.82347 0.667 0.0
H2341 H 0.46222 0.81825 0.68013 0.0
C2342 C 0.49838 0.80248 0.65559 0.0
C2343 C 0.51588 0.79414 0.64083 0.0
C2344 C 0.47605 0.80651 0.6477 0.0
C2345 C 0.51074 0.79023 0.61789 0.0
C2346 C 0.48849 0.79405 0.60995 0.0
C2347 C 0.44835 0.80529 0.61716 0.0
C2348 C 0.43076 0.81298 0.63221 0.0
C2349 C 0.47095 0.80203 0.62476 0.0
C2350 C 0.4363 0.81789 0.65484 0.0
C2351 C 0.45865 0.81468 0.66248 0.0
H2352 H 0.15845 0.40931 0.24701 0.0
H2353 H 0.1314 0.37666 0.30865 0.0
H2354 H 0.10647 0.35373 0.28594 0.0
H2355 H 0.09619 0.3395 0.24822 0.0
H2356 H 0.12214 0.37315 0.18663 0.0
H2357 H 0.14337 0.39943 0.20949 0.0
C2358 C 0.14666 0.39757 0.2554 0.0
C2359 C 0.14674 0.39456 0.27939 0.0
C2360 C 0.13232 0.38453 0.24222 0.0
C2361 C 0.13145 0.37933 0.29019 0.0
C2362 C 0.11735 0.36611 0.27721 0.0
C2363 C 0.10604 0.35301 0.23991 0.0
C2364 C 0.10769 0.35444 0.21584 0.0
C2365 C 0.11816 0.36806 0.25318 0.0
C2366 C 0.12049 0.37192 0.20515 0.0
C2367 C 0.13279 0.38679 0.21821 0.0
H2368 H 0.59238 0.17047 0.26561 0.0
H2369 H 0.62503 0.13268 0.32114 0.0
H2370 H 0.64286 0.10584 0.29413 0.0
H2371 H 0.65435 0.09782 0.25426 0.0
H2372 H 0.62156 0.13548 0.19872 0.0
H2373 H 0.59811 0.1575 0.22607 0.0
C2374 C 0.60279 0.15585 0.27172 0.0
C2375 C 0.6076 0.1534 0.29509 0.0
C2376 C 0.61309 0.14073 0.25609 0.0
C2377 C 0.62111 0.13463 0.30312 0.0
C2378 C 0.63143 0.11946 0.28769 0.0
C2379 C 0.64152 0.11036 0.24828 0.0
C2380 C 0.63963 0.11529 0.22473 0.0
C2381 C 0.62833 0.123 0.26408 0.0
C2382 C 0.62309 0.13148 0.21689 0.0
C2383 C 0.60987 0.14416 0.23248 0.0
H2384 H 0.88908 0.62762 0.19617 0.0
H2385 H 0.88693 0.69822 0.21722 0.0
H2386 H 0.87357 0.68614 0.25525 0.0
H2387 H 0.85856 0.6564 0.28141 0.0
H2388 H 0.8595 0.58583 0.26128 0.0
H2389 H 0.87775 0.59686 0.22438 0.0
C2390 C 0.88598 0.64031 0.20916 0.0
C2391 C 0.88874 0.66386 0.20357 0.0
C2392 C 0.87808 0.63325 0.23125 0.0
C2393 C 0.88474 0.68002 0.22077 0.0
C2394 C 0.8771 0.67314 0.24264 0.0
C2395 C 0.86325 0.64337 0.26911 0.0
C2396 C 0.85768 0.62038 0.27396 0.0
C2397 C 0.87317 0.64994 0.24789 0.0
C2398 C 0.86382 0.60362 0.25797 0.0
C2399 C 0.874 0.60999 0.23679 0.0
H2400 H 0.40794 0.83862 0.26042 0.0
H2401 H 0.36842 0.87419 0.31225 0.0
H2402 H 0.3483 0.89699 0.28255 0.0
H2403 H 0.33841 0.90289 0.24182 0.0
H2404 H 0.37819 0.86746 0.19005 0.0
H2405 H 0.40191 0.84873 0.21962 0.0
C2406 C 0.3953 0.85177 0.26516 0.0
C2407 C 0.38956 0.85466 0.28846 0.0
C2408 C 0.38367 0.86463 0.24798 0.0
C2409 C 0.37324 0.87179 0.29444 0.0
C2410 C 0.36158 0.88465 0.27746 0.0
C2411 C 0.35256 0.89138 0.23706 0.0
C2412 C 0.35645 0.8864 0.21383 0.0
C2413 C 0.36609 0.88063 0.25418 0.0
C2414 C 0.37494 0.87164 0.2078 0.0
C2415 C 0.38839 0.86081 0.22472 0.0
H2416 H 0.10747 0.6345 0.80445 0.0
H2417 H 0.07513 0.6875 0.76208 0.0
H2418 H 0.08859 0.6679 0.72751 0.0
H2419 H 0.11567 0.63963 0.70991 0.0
H2420 H 0.14937 0.588 0.75283 0.0
H2421 H 0.12907 0.60272 0.78666 0.0
C2422 C 0.10285 0.64133 0.78761 0.0
C2423 C 0.09056 0.66243 0.78567 0.0
C2424 C 0.11111 0.63029 0.76797 0.0
C2425 C 0.08452 0.67121 0.76388 0.0
C2426 C 0.09241 0.66012 0.74416 0.0
C2427 C 0.1178 0.63116 0.72659 0.0
C2428 C 0.13376 0.61275 0.72907 0.0
C2429 C 0.10657 0.64021 0.74602 0.0
C2430 C 0.13691 0.60206 0.75068 0.0
C2431 C 0.12549 0.6106 0.76999 0.0
H2432 H 0.39128 0.17206 0.72566 0.0
H2433 H 0.37385 0.11633 0.68312 0.0
H2434 H 0.36092 0.09406 0.71705 0.0
H2435 H 0.34994 0.09281 0.7584 0.0
H2436 H 0.368 0.14855 0.80051 0.0
H2437 H 0.3858 0.16824 0.76739 0.0
C2438 C 0.38495 0.1549 0.72387 0.0
C2439 C 0.38319 0.14597 0.70193 0.0
C2440 C 0.37774 0.14218 0.74344 0.0
C2441 C 0.37531 0.12359 0.69985 0.0
C2442 C 0.36784 0.11089 0.71925 0.0
C2443 C 0.35857 0.10882 0.76037 0.0
C2444 C 0.35796 0.11917 0.7818 0.0
C2445 C 0.36841 0.12026 0.74109 0.0
C2446 C 0.36866 0.14018 0.78419 0.0
C2447 C 0.37856 0.15155 0.76521 0.0
H2448 H 0.87654 0.36644 0.69783 0.0
H2449 H 0.83658 0.41661 0.73539 0.0
H2450 H 0.85404 0.40284 0.77119 0.0
H2451 H 0.8768 0.37328 0.79231 0.0
H2452 H 0.91608 0.32217 0.75518 0.0
H2453 H 0.90329 0.33972 0.7188 0.0
C2454 C 0.8723 0.37477 0.71379 0.0
C2455 C 0.85554 0.39267 0.71405 0.0
C2456 C 0.88209 0.36637 0.73442 0.0
C2457 C 0.84969 0.40304 0.73484 0.0
C2458 C 0.85952 0.39502 0.7553 0.0
C2459 C 0.88285 0.36622 0.77623 0.0
C2460 C 0.89721 0.34631 0.77649 0.0
C2461 C 0.87514 0.3762 0.75541 0.0
C2462 C 0.90513 0.33753 0.7555 0.0
C2463 C 0.89765 0.34746 0.73467 0.0
H2464 H 0.6276 0.88497 0.78499 0.0
H2465 H 0.6692 0.91748 0.73227 0.0
H2466 H 0.64678 0.9005 0.70264 0.0
H2467 H 0.61942 0.87159 0.69205 0.0
H2468 H 0.58054 0.83609 0.74488 0.0
H2469 H 0.5973 0.85923 0.77414 0.0
C2470 C 0.63125 0.88883 0.767 0.0
C2471 C 0.64994 0.90242 0.76073 0.0
C2472 C 0.61884 0.87827 0.75011 0.0
C2473 C 0.65485 0.90703 0.73741 0.0
C2474 C 0.6421 0.89726 0.7205 0.0
C2475 C 0.6141 0.86957 0.7099 0.0
C2476 C 0.59865 0.85245 0.71641 0.0
C2477 C 0.62462 0.88218 0.72665 0.0
C2478 C 0.59224 0.84942 0.73959 0.0
C2479 C 0.60196 0.86249 0.75629 0.0
H2480 H 0.20935 0.13387 0.37983 0.0
H2481 H 0.25519 0.09326 0.33722 0.0
H2482 H 0.28795 0.108 0.35653 0.0
H2483 H 0.30367 0.13594 0.38202 0.0
H2484 H 0.2579 0.17911 0.42212 0.0
H2485 H 0.22514 0.1596 0.40762 0.0
C2486 C 0.22651 0.12816 0.37481 0.0
C2487 C 0.22974 0.11268 0.35684 0.0
C2488 C 0.24533 0.13725 0.38551 0.0
C2489 C 0.25209 0.10502 0.35102 0.0
C2490 C 0.27089 0.11362 0.36194 0.0
C2491 C 0.28653 0.14098 0.38773 0.0
C2492 C 0.28331 0.15922 0.40292 0.0
C2493 C 0.26772 0.13027 0.37868 0.0
C2494 C 0.26099 0.1651 0.41057 0.0
C2495 C 0.24219 0.1541 0.40207 0.0
H2496 H 0.85734 0.26234 0.40408 0.0
H2497 H 0.80523 0.26969 0.35292 0.0
H2498 H 0.81612 0.2323 0.33826 0.0
H2499 H 0.84148 0.19832 0.33824 0.0
H2500 H 0.89138 0.18776 0.39088 0.0
H2501 H 0.88038 0.22535 0.40671 0.0
C2502 C 0.8482 0.25558 0.38997 0.0
C2503 C 0.83097 0.26925 0.37918 0.0
C2504 C 0.85431 0.23355 0.38169 0.0
C2505 C 0.81909 0.25999 0.36108 0.0
C2506 C 0.82522 0.23851 0.35268 0.0
C2507 C 0.84997 0.20428 0.35318 0.0
C2508 C 0.86747 0.1906 0.36314 0.0
C2509 C 0.8431 0.22539 0.36248 0.0
C2510 C 0.87795 0.19817 0.38283 0.0
C2511 C 0.87164 0.21963 0.39186 0.0
H2512 H 0.70207 0.86815 0.36979 0.0
H2513 H 0.74282 0.82326 0.41382 0.0
H2514 H 0.77757 0.84214 0.40027 0.0
H2515 H 0.79662 0.86814 0.37277 0.0
H2516 H 0.75646 0.911 0.32619 0.0
H2517 H 0.72128 0.89682 0.34422 0.0
C2518 C 0.71855 0.86299 0.37675 0.0
C2519 C 0.72003 0.84448 0.3928 0.0
C2520 C 0.73855 0.87346 0.36829 0.0
C2521 C 0.7414 0.83755 0.40151 0.0
C2522 C 0.76123 0.84827 0.39369 0.0
C2523 C 0.78017 0.87453 0.36665 0.0
C2524 C 0.77923 0.89039 0.34793 0.0
C2525 C 0.76007 0.86572 0.37657 0.0
C2526 C 0.75774 0.89887 0.34061 0.0
C2527 C 0.73759 0.89059 0.35078 0.0
H2528 H 0.17343 0.72488 0.38837 0.0
H2529 H 0.12025 0.68094 0.36751 0.0
H2530 H 0.09796 0.71444 0.35335 0.0
H2531 H 0.09573 0.75582 0.3428 0.0
H2532 H 0.14808 0.80005 0.36453 0.0
H2533 H 0.16829 0.76709 0.38296 0.0
C2534 C 0.15684 0.72273 0.38095 0.0
C2535 C 0.14864 0.70047 0.37868 0.0
C2536 C 0.1439 0.74215 0.37316 0.0
C2537 C 0.12697 0.69789 0.36939 0.0
C2538 C 0.11421 0.71704 0.36125 0.0
C2539 C 0.1111 0.75827 0.35236 0.0
C2540 C 0.12032 0.78024 0.35265 0.0
C2541 C 0.12273 0.7392 0.36258 0.0
C2542 C 0.14049 0.7833 0.36457 0.0
C2543 C 0.1522 0.76441 0.37478 0.0
H2544 H 0.28441 0.85376 0.64903 0.0
H2545 H 0.25846 0.84983 0.58095 0.0
H2546 H 0.22279 0.86986 0.59308 0.0
H2547 H 0.19728 0.88373 0.62464 0.0
H2548 H 0.22392 0.88614 0.6929 0.0
H2549 H 0.26095 0.87162 0.67914 0.0
C2550 C 0.27114 0.85788 0.63674 0.0
C2551 C 0.27392 0.85045 0.61419 0.0
C2552 C 0.25064 0.86876 0.64401 0.0
C2553 C 0.25668 0.85566 0.59836 0.0
C2554 C 0.23624 0.86685 0.60538 0.0
C2555 C 0.21129 0.88143 0.63641 0.0
C2556 C 0.20761 0.8857 0.65987 0.0
C2557 C 0.23271 0.87276 0.6284 0.0
C2558 C 0.22606 0.88271 0.67483 0.0
C2559 C 0.24732 0.87441 0.66699 0.0
H2560 H 0.10047 0.26456 0.66003 0.0
H2561 H 0.15439 0.21841 0.63664 0.0
H2562 H 0.1743 0.25074 0.61815 0.0
H2563 H 0.17827 0.29271 0.61251 0.0
H2564 H 0.12353 0.33864 0.63494 0.0
H2565 H 0.10193 0.30596 0.64977 0.0
C2566 C 0.11622 0.26162 0.65024 0.0
C2567 C 0.12594 0.2393 0.6494 0.0
C2568 C 0.12757 0.28029 0.63985 0.0
C2569 C 0.14651 0.23551 0.63709 0.0
C2570 C 0.15798 0.254 0.62678 0.0
C2571 C 0.1615 0.29548 0.62042 0.0
C2572 C 0.15262 0.31804 0.62289 0.0
C2573 C 0.14902 0.27655 0.62866 0.0
C2574 C 0.13074 0.32143 0.63286 0.0
C2575 C 0.1184 0.30276 0.64141 0.0
H2576 H 0.77325 0.09533 0.65253 0.0
H2577 H 0.82539 0.12883 0.61173 0.0
H2578 H 0.7961 0.14846 0.58828 0.0
H2579 H 0.75585 0.16187 0.58503 0.0
H2580 H 0.70374 0.12862 0.62615 0.0
H2581 H 0.73266 0.10272 0.64362 0.0
C2582 C 0.77811 0.10621 0.63789 0.0
C2583 C 0.80128 0.11078 0.63378 0.0
C2584 C 0.76117 0.11775 0.62487 0.0
C2585 C 0.80759 0.12498 0.61497 0.0
C2586 C 0.79085 0.13641 0.60179 0.0
C2587 C 0.75085 0.14841 0.59726 0.0
C2588 C 0.72787 0.14718 0.60453 0.0
C2589 C 0.76761 0.13382 0.60738 0.0
C2590 C 0.72138 0.12975 0.62031 0.0
C2591 C 0.73793 0.1151 0.63043 0.0
H2592 H 0.8833 0.715 0.61587 0.0
H2593 H 0.82316 0.75739 0.60181 0.0
H2594 H 0.84178 0.79098 0.61581 0.0
H2595 H 0.87279 0.80695 0.63737 0.0
H2596 H 0.93242 0.76477 0.65322 0.0
H2597 H 0.91677 0.73265 0.63297 0.0
C2598 C 0.87459 0.73174 0.6153 0.0
C2599 C 0.85182 0.73368 0.608 0.0
C2600 C 0.88529 0.751 0.6239 0.0
C2601 C 0.84062 0.75544 0.60754 0.0
C2602 C 0.85124 0.77465 0.61559 0.0
C2603 C 0.88265 0.79096 0.63565 0.0
C2604 C 0.9038 0.78822 0.64642 0.0
C2605 C 0.87322 0.77247 0.62458 0.0
C2606 C 0.91627 0.76731 0.64465 0.0
C2607 C 0.90719 0.7489 0.6333 0.0
H2608 H 0.41277 0.2543 0.16513 0.0
H2609 H 0.38274 0.30977 0.12396 0.0
H2610 H 0.36369 0.28227 0.10092 0.0
H2611 H 0.35093 0.2429 0.09617 0.0
H2612 H 0.38096 0.187 0.13648 0.0
H2613 H 0.40482 0.21396 0.15587 0.0
C2614 C 0.40262 0.26028 0.15068 0.0
C2615 C 0.39885 0.28408 0.14655 0.0
C2616 C 0.39145 0.24426 0.13751 0.0
C2617 C 0.3856 0.29156 0.12775 0.0
C2618 C 0.37463 0.27585 0.11458 0.0
C2619 C 0.3632 0.23663 0.10875 0.0
C2620 C 0.36426 0.2131 0.11494 0.0
C2621 C 0.3767 0.25223 0.11986 0.0
C2622 C 0.38006 0.20507 0.13133 0.0
C2623 C 0.39355 0.22051 0.14255 0.0
H2624 H 0.34388 0.77763 0.85167 0.0
H2625 H 0.35073 0.76109 0.92364 0.0
H2626 H 0.36729 0.72296 0.91455 0.0
H2627 H 0.37635 0.69292 0.88578 0.0
H2628 H 0.36804 0.7107 0.81391 0.0
H2629 H 0.35539 0.74938 0.82336 0.0
C2630 C 0.3493 0.76579 0.86538 0.0
C2631 C 0.34596 0.77214 0.8883 0.0
C2632 C 0.35821 0.74385 0.86002 0.0
C2633 C 0.35327 0.7567 0.90586 0.0
C2634 C 0.36249 0.7348 0.90064 0.0
C2635 C 0.37191 0.7053 0.8722 0.0
C2636 C 0.37297 0.69856 0.84913 0.0
C2637 C 0.36447 0.72791 0.87774 0.0
C2638 C 0.36726 0.71505 0.83182 0.0
C2639 C 0.36003 0.73735 0.83717 0.0
H2640 H 0.25678 0.40089 0.84241 0.0
H2641 H 0.31089 0.36399 0.87813 0.0
H2642 H 0.28267 0.34319 0.9017 0.0
H2643 H 0.24257 0.33225 0.90878 0.0
H2644 H 0.1885 0.37001 0.87377 0.0
H2645 H 0.21658 0.39392 0.85352 0.0
C2646 C 0.26232 0.38867 0.85574 0.0
C2647 C 0.28583 0.38389 0.85852 0.0
C2648 C 0.24599 0.37679 0.86919 0.0
C2649 C 0.29288 0.36806 0.87583 0.0
C2650 C 0.27675 0.35603 0.88915 0.0
C2651 C 0.23699 0.34603 0.89705 0.0
C2652 C 0.21353 0.34931 0.89266 0.0
C2653 C 0.25326 0.35976 0.8855 0.0
C2654 C 0.20644 0.36727 0.87753 0.0
C2655 C 0.22251 0.38083 0.86582 0.0
H2656 H 0.5996 0.25828 0.84914 0.0
H2657 H 0.66323 0.29143 0.8342 0.0
H2658 H 0.68443 0.25924 0.85249 0.0
H2659 H 0.68525 0.22015 0.86954 0.0
H2660 H 0.62182 0.1862 0.884 0.0
H2661 H 0.60032 0.22002 0.86934 0.0
C2662 C 0.61804 0.25858 0.8504 0.0
C2663 C 0.62987 0.27715 0.84038 0.0
C2664 C 0.63023 0.23969 0.86059 0.0
C2665 C 0.6538 0.27728 0.84182 0.0
C2666 C 0.66594 0.25883 0.85218 0.0
C2667 C 0.66671 0.22019 0.86971 0.0
C2668 C 0.65526 0.20049 0.8777 0.0
C2669 C 0.6544 0.23967 0.8611 0.0
C2670 C 0.63118 0.20103 0.87789 0.0
C2671 C 0.61881 0.22039 0.86945 0.0
H2672 H 0.79458 0.63367 0.88752 0.0
H2673 H 0.74462 0.6826 0.91393 0.0
H2674 H 0.71374 0.66025 0.89908 0.0
H2675 H 0.70173 0.63052 0.87283 0.0
H2676 H 0.75231 0.58354 0.84437 0.0
H2677 H 0.78222 0.6011 0.86591 0.0
C2678 C 0.77688 0.63917 0.89038 0.0
C2679 C 0.77183 0.65988 0.90147 0.0
C2680 C 0.75939 0.62662 0.88126 0.0
C2681 C 0.74889 0.6667 0.90543 0.0
C2682 C 0.73127 0.65403 0.89677 0.0
C2683 C 0.7192 0.62371 0.87209 0.0
C2684 C 0.72497 0.60573 0.85731 0.0
C2685 C 0.73638 0.63448 0.88387 0.0
C2686 C 0.74762 0.59722 0.8559 0.0
C2687 C 0.76468 0.60738 0.86803 0.0
H2688 H 0.6246 0.82295 0.11551 0.0
H2689 H 0.69363 0.79503 0.12126 0.0
H2690 H 0.6792 0.75879 0.13641 0.0
H2691 H 0.64748 0.73626 0.15172 0.0
H2692 H 0.57843 0.76348 0.14743 0.0
H2693 H 0.59221 0.79856 0.12767 0.0
C2694 C 0.63645 0.80884 0.11981 0.0
C2695 C 0.6602 0.81191 0.1175 0.0
C2696 C 0.62802 0.78789 0.12878 0.0
C2697 C 0.67529 0.79335 0.12307 0.0
C2698 C 0.66708 0.77253 0.13174 0.0
C2699 C 0.63546 0.74971 0.14593 0.0
C2700 C 0.61206 0.74745 0.15081 0.0
C2701 C 0.64356 0.76981 0.13516 0.0
C2702 C 0.59652 0.7649 0.14355 0.0
C2703 C 0.60444 0.78497 0.13248 0.0
H2704 H 0.27373 0.59539 0.16468 0.0
H2705 H 0.3308 0.62906 0.13179 0.0
H2706 H 0.30488 0.65057 0.10605 0.0
H2707 H 0.26555 0.66385 0.09701 0.0
H2708 H 0.20858 0.63004 0.13002 0.0
H2709 H 0.23479 0.60435 0.15141 0.0
C2710 C 0.28045 0.607 0.15144 0.0
C2711 C 0.30401 0.6108 0.15014 0.0
C2712 C 0.26544 0.61949 0.13696 0.0
C2713 C 0.31269 0.62578 0.13294 0.0
C2714 C 0.29786 0.63825 0.11841 0.0
C2715 C 0.25897 0.65054 0.10857 0.0
C2716 C 0.23526 0.64891 0.11213 0.0
C2717 C 0.27415 0.63589 0.12088 0.0
C2718 C 0.22681 0.63151 0.12696 0.0
C2719 C 0.24177 0.61693 0.1393 0.0
H2720 H 0.75187 0.33733 0.09733 0.0
H2721 H 0.79982 0.36586 0.14253 0.0
H2722 H 0.76865 0.38752 0.16173 0.0
H2723 H 0.72704 0.39544 0.16784 0.0
H2724 H 0.67961 0.36815 0.12106 0.0
H2725 H 0.7111 0.34899 0.10033 0.0
C2726 C 0.7555 0.34883 0.11095 0.0
C2727 C 0.77806 0.35023 0.1184 0.0
C2728 C 0.73749 0.36113 0.12189 0.0
C2729 C 0.78261 0.36488 0.13628 0.0
C2730 C 0.76474 0.37702 0.14742 0.0
C2731 C 0.72368 0.38542 0.15301 0.0
C2732 C 0.70098 0.38301 0.14616 0.0
C2733 C 0.74201 0.3748 0.14078 0.0
C2734 C 0.6969 0.37027 0.1267 0.0
C2735 C 0.7149 0.35927 0.11483 0.0
H2736 H 0.13932 0.16159 0.26271 0.0
H2737 H 0.10136 0.1077 0.23367 0.0
H2738 H 0.08243 0.13609 0.20784 0.0
H2739 H 0.07728 0.1764 0.19325 0.0
H2740 H 0.11512 0.22965 0.22363 0.0
H2741 H 0.13356 0.20124 0.24918 0.0
C2742 C 0.12694 0.15596 0.25072 0.0
C2743 C 0.12184 0.13255 0.25002 0.0
C2744 C 0.11612 0.17229 0.23615 0.0
C2745 C 0.10564 0.12563 0.23447 0.0
C2746 C 0.0948 0.14186 0.21974 0.0
C2747 C 0.08936 0.18179 0.20562 0.0
C2748 C 0.09494 0.20516 0.20635 0.0
C2749 C 0.09993 0.16527 0.22042 0.0
C2750 C 0.11082 0.21178 0.22239 0.0
C2751 C 0.12131 0.19556 0.2371 0.0
H2752 H 0.85381 0.098 0.25146 0.0
H2753 H 0.80387 0.14176 0.28582 0.0
H2754 H 0.77438 0.12999 0.26018 0.0
H2755 H 0.76283 0.10767 0.22765 0.0
H2756 H 0.81278 0.06425 0.19303 0.0
H2757 H 0.84211 0.07532 0.21919 0.0
C2758 C 0.83645 0.10488 0.2534 0.0
C2759 C 0.83105 0.12074 0.27049 0.0
C2760 C 0.81956 0.09812 0.23853 0.0
C2761 C 0.80848 0.12951 0.27279 0.0
C2762 C 0.7916 0.12283 0.25811 0.0
C2763 C 0.78018 0.10079 0.22574 0.0
C2764 C 0.78558 0.08519 0.2084 0.0
C2765 C 0.79698 0.10727 0.24082 0.0
C2766 C 0.80806 0.07609 0.20637 0.0
C2767 C 0.8249 0.0825 0.22127 0.0
H2768 H 0.92313 0.81266 0.18593 0.0
H2769 H 0.87892 0.76538 0.22252 0.0
H2770 H 0.86483 0.7962 0.2469 0.0
H2771 H 0.86503 0.83615 0.25784 0.0
H2772 H 0.90958 0.88387 0.22244 0.0
H2773 H 0.92385 0.85306 0.19758 0.0
C2774 C 0.91064 0.80898 0.19941 0.0
C2775 C 0.9021 0.78661 0.20234 0.0
C2776 C 0.90268 0.82682 0.2135 0.0
C2777 C 0.88559 0.78239 0.21966 0.0
C2778 C 0.8776 0.8 0.23369 0.0
C2779 C 0.87786 0.83994 0.24468 0.0
C2780 C 0.8862 0.86232 0.24194 0.0
C2781 C 0.88598 0.82224 0.2307 0.0
C2782 C 0.90286 0.86681 0.22485 0.0
C2783 C 0.91101 0.84919 0.21069 0.0
H2784 H 0.22795 0.89448 0.20993 0.0
H2785 H 0.18638 0.94459 0.17237 0.0
H2786 H 0.15259 0.93304 0.1947 0.0
H2787 H 0.1345 0.90737 0.22428 0.0
H2788 H 0.17701 0.85654 0.26014 0.0
H2789 H 0.21046 0.86941 0.23884 0.0
C2790 C 0.21149 0.90277 0.20644 0.0
C2791 C 0.2098 0.92025 0.18936 0.0
C2792 C 0.19213 0.89578 0.21899 0.0
C2793 C 0.18834 0.93119 0.18553 0.0
C2794 C 0.16892 0.92447 0.19819 0.0
C2795 C 0.1511 0.89918 0.22738 0.0
C2796 C 0.15314 0.88096 0.24372 0.0
C2797 C 0.17055 0.9066 0.21487 0.0
C2798 C 0.1748 0.87053 0.2476 0.0
C2799 C 0.19406 0.87788 0.23545 0.0
H2800 H 0.11866 0.79047 0.81159 0.0
H2801 H 0.04949 0.80778 0.79181 0.0
H2802 H 0.06326 0.83861 0.76619 0.0
H2803 H 0.0952 0.86048 0.7491 0.0
H2804 H 0.16432 0.8413 0.76741 0.0
H2805 H 0.15036 0.81135 0.794 0.0
C2806 C 0.10659 0.8007 0.80144 0.0
C2807 C 0.08307 0.79677 0.80364 0.0
C2808 C 0.11462 0.81824 0.78667 0.0
C2809 C 0.06767 0.81059 0.79063 0.0
C2810 C 0.07552 0.82821 0.77595 0.0
C2811 C 0.10708 0.8499 0.75919 0.0
C2812 C 0.13066 0.8531 0.75663 0.0
C2813 C 0.09896 0.83228 0.77394 0.0
C2814 C 0.14606 0.83906 0.76928 0.0
C2815 C 0.13811 0.82193 0.78439 0.0
H2816 H 0.16986 0.15812 0.75459 0.0
H2817 H 0.13018 0.09693 0.76071 0.0
H2818 H 0.15934 0.07833 0.78511 0.0
H2819 H 0.19651 0.07945 0.80433 0.0
H2820 H 0.23556 0.14105 0.79808 0.0
H2821 H 0.20619 0.15955 0.77425 0.0
C2822 C 0.16756 0.14071 0.76126 0.0
C2823 C 0.14794 0.12888 0.75578 0.0
C2824 C 0.18429 0.13022 0.77529 0.0
C2825 C 0.14512 0.10641 0.76472 0.0
C2826 C 0.16182 0.09576 0.77862 0.0
C2827 C 0.1986 0.09687 0.79764 0.0
C2828 C 0.21821 0.10884 0.80302 0.0
C2829 C 0.18155 0.10747 0.78393 0.0
C2830 C 0.22053 0.13155 0.79448 0.0
C2831 C 0.2038 0.1421 0.78073 0.0
H2832 H 0.92028 0.13641 0.76154 0.0
H2833 H 0.85602 0.16855 0.7414 0.0
H2834 H 0.86209 0.20054 0.76601 0.0
H2835 H 0.88621 0.2206 0.79213 0.0
H2836 H 0.95087 0.18949 0.812 0.0
H2837 H 0.94418 0.1563 0.7888 0.0
C2838 C 0.90761 0.15036 0.76269 0.0
C2839 C 0.88783 0.15007 0.74951 0.0
C2840 C 0.91131 0.16911 0.77678 0.0
C2841 C 0.87156 0.16836 0.75115 0.0
C2842 C 0.87494 0.18673 0.76529 0.0
C2843 C 0.89869 0.20644 0.79158 0.0
C2844 C 0.91904 0.20768 0.80367 0.0
C2845 C 0.89484 0.18745 0.77802 0.0
C2846 C 0.93519 0.18922 0.80257 0.0
C2847 C 0.93134 0.17013 0.78937 0.0
H2848 H 0.82239 0.9355 0.80114 0.0
H2849 H 0.77729 0.88955 0.76903 0.0
H2850 H 0.80989 0.87007 0.7507 0.0
H2851 H 0.8506 0.86613 0.74353 0.0
H2852 H 0.89682 0.91212 0.7739 0.0
H2853 H 0.86426 0.93163 0.79333 0.0
C2854 C 0.81972 0.9214 0.78994 0.0
C2855 C 0.79738 0.91392 0.78654 0.0
C2856 C 0.83866 0.91025 0.77931 0.0
C2857 C 0.79426 0.89541 0.7722 0.0
C2858 C 0.81289 0.88432 0.76165 0.0
C2859 C 0.85372 0.8804 0.75443 0.0
C2860 C 0.87612 0.88766 0.75729 0.0
C2861 C 0.83509 0.89155 0.76514 0.0
C2862 C 0.87973 0.90615 0.77152 0.0
C2863 C 0.86111 0.91733 0.78252 0.0
H2864 H 0.25972 0.14314 0.16981 0.0
H2865 H 0.23865 0.09066 0.12492 0.0
H2866 H 0.21598 0.07325 0.15622 0.0
H2867 H 0.20243 0.0728 0.19637 0.0
H2868 H 0.22359 0.12516 0.24128 0.0
H2869 H 0.24583 0.1429 0.20985 0.0
C2870 C 0.25012 0.12792 0.16683 0.0
C2871 C 0.2509 0.1182 0.14504 0.0
C2872 C 0.23717 0.11799 0.18492 0.0
C2873 C 0.23831 0.09852 0.14149 0.0
C2874 C 0.22539 0.08852 0.15941 0.0
C2875 C 0.2121 0.08793 0.19939 0.0
C2876 C 0.21145 0.09753 0.22126 0.0
C2877 C 0.22481 0.09803 0.18122 0.0
C2878 C 0.22368 0.1175 0.22463 0.0
C2879 C 0.23646 0.12759 0.20668 0.0
H2880 H 0.84089 0.23009 0.16141 0.0
H2881 H 0.91178 0.23976 0.14342 0.0
H2882 H 0.92319 0.22045 0.17967 0.0
H2883 H 0.91237 0.20354 0.21794 0.0
H2884 H 0.84122 0.19342 0.23463 0.0
H2885 H 0.8304 0.21016 0.1974 0.0
C2886 C 0.85886 0.22762 0.16529 0.0
C2887 C 0.87552 0.2363 0.14995 0.0
C2888 C 0.86514 0.21668 0.18602 0.0
C2889 C 0.89873 0.23295 0.15496 0.0
C2890 C 0.90519 0.22216 0.17576 0.0
C2891 C 0.89455 0.20502 0.2133 0.0
C2892 C 0.87756 0.19751 0.22903 0.0
C2893 C 0.88848 0.21444 0.19167 0.0
C2894 C 0.85454 0.19905 0.22276 0.0
C2895 C 0.84836 0.20866 0.20153 0.0
H2896 H 0.74332 0.86567 0.17514 0.0
H2897 H 0.76324 0.91766 0.12485 0.0
H2898 H 0.78924 0.93331 0.1523 0.0
H2899 H 0.80666 0.93169 0.19038 0.0
H2900 H 0.78605 0.87983 0.24055 0.0
H2901 H 0.7601 0.86449 0.21317 0.0
C2902 C 0.75332 0.88045 0.17011 0.0
C2903 C 0.75136 0.89046 0.14791 0.0
C2904 C 0.76816 0.88931 0.18595 0.0
C2905 C 0.76444 0.9096 0.14179 0.0
C2906 C 0.7793 0.91855 0.15749 0.0
C2907 C 0.79632 0.91722 0.19548 0.0
C2908 C 0.7984 0.90697 0.21763 0.0
C2909 C 0.78131 0.90851 0.17962 0.0
C2910 C 0.78507 0.88792 0.22364 0.0
C2911 C 0.77012 0.8792 0.208 0.0
H2912 H 0.08696 0.81469 0.17945 0.0
H2913 H 0.13783 0.78951 0.22728 0.0
H2914 H 0.15681 0.76727 0.19742 0.0
H2915 H 0.15866 0.75423 0.15816 0.0
H2916 H 0.10725 0.77767 0.11024 0.0
H2917 H 0.08872 0.80127 0.13975 0.0
C2918 C 0.10206 0.8042 0.1834 0.0
C2919 C 0.11098 0.80394 0.20563 0.0
C2920 C 0.11284 0.79117 0.16613 0.0
C2921 C 0.13078 0.79041 0.2103 0.0
C2922 C 0.14161 0.77755 0.19324 0.0
C2923 C 0.14348 0.76461 0.15407 0.0
C2924 C 0.13438 0.76426 0.13203 0.0
C2925 C 0.13279 0.7778 0.17114 0.0
C2926 C 0.11462 0.7777 0.12709 0.0
C2927 C 0.10399 0.79114 0.14397 0.0
H2928 H 0.18835 0.92339 0.8087 0.0
H2929 H 0.23194 0.88623 0.76104 0.0
H2930 H 0.25628 0.87268 0.79235 0.0
H2931 H 0.26418 0.86998 0.83298 0.0
H2932 H 0.22123 0.90671 0.88144 0.0
H2933 H 0.19773 0.92237 0.84984 0.0
C2934 C 0.20338 0.91265 0.80509 0.0
C2935 C 0.20825 0.90571 0.7825 0.0
C2936 C 0.2173 0.90486 0.82325 0.0
C2937 C 0.22764 0.89153 0.77825 0.0
C2938 C 0.2416 0.88385 0.79613 0.0
C2939 C 0.24969 0.88145 0.83674 0.0
C2940 C 0.24425 0.887 0.85954 0.0
C2941 C 0.23638 0.89014 0.81867 0.0
C2942 C 0.22568 0.90216 0.86402 0.0
C2943 C 0.21226 0.91102 0.84598 0.0
H2944 H 0.07547 0.19195 0.81834 0.0
H2945 H 0.12364 0.22536 0.77222 0.0
H2946 H 0.13874 0.24592 0.80379 0.0
H2947 H 0.13864 0.25433 0.84403 0.0
H2948 H 0.08997 0.22305 0.89102 0.0
H2949 H 0.07455 0.20172 0.85949 0.0
C2950 C 0.08909 0.2039 0.81521 0.0
C2951 C 0.09862 0.20687 0.79296 0.0
C2952 C 0.09766 0.21592 0.83355 0.0
C2953 C 0.11635 0.22236 0.78921 0.0
C2954 C 0.12493 0.23422 0.80724 0.0
C2955 C 0.12472 0.24276 0.84752 0.0
C2956 C 0.11559 0.24009 0.86985 0.0
C2957 C 0.11585 0.23099 0.82943 0.0
C2958 C 0.09737 0.22526 0.87396 0.0
C2959 C 0.08854 0.21315 0.85593 0.0
H2960 H 0.81136 0.07741 0.80157 0.0
H2961 H 0.7977 0.13377 0.7535 0.0
H2962 H 0.77059 0.15119 0.78063 0.0
H2963 H 0.75096 0.15066 0.818 0.0
H2964 H 0.76418 0.09449 0.86647 0.0
H2965 H 0.7912 0.07672 0.83923 0.0
C2966 C 0.80226 0.09337 0.79702 0.0
C2967 C 0.80663 0.10434 0.77562 0.0
C2968 C 0.78671 0.10338 0.81279 0.0
C2969 C 0.7949 0.12517 0.77 0.0
C2970 C 0.77933 0.1351 0.78546 0.0
C2971 C 0.75978 0.13456 0.82265 0.0
C2972 C 0.75563 0.12396 0.84423 0.0
C2973 C 0.77521 0.12445 0.80694 0.0
C2974 C 0.76716 0.10306 0.84997 0.0
C2975 C 0.78257 0.09285 0.83439 0.0
H2976 H 0.93146 0.81035 0.82167 0.0
H2977 H 0.88337 0.78832 0.77258 0.0
H2978 H 0.86288 0.76709 0.80293 0.0
H2979 H 0.85895 0.75423 0.84313 0.0
H2980 H 0.90697 0.7758 0.89249 0.0
H2981 H 0.92729 0.79767 0.86224 0.0
C2982 C 0.91664 0.80074 0.81754 0.0
C2983 C 0.90904 0.8009 0.79476 0.0
C2984 C 0.90493 0.78851 0.83512 0.0
C2985 C 0.88948 0.78869 0.78992 0.0
C2986 C 0.87781 0.77645 0.80726 0.0
C2987 C 0.87385 0.76374 0.84733 0.0
C2988 C 0.88145 0.76336 0.87006 0.0
C2989 C 0.88541 0.7762 0.82989 0.0
C2990 C 0.90072 0.77586 0.87517 0.0
C2991 C 0.91237 0.78831 0.85786 0.0
H2992 H 0.16416 0.25159 0.14462 0.0
H2993 H 0.11737 0.22558 0.09639 0.0
H2994 H 0.1484 0.20223 0.07929 0.0
H2995 H 0.18882 0.1891 0.07819 0.0
H2996 H 0.23558 0.21591 0.12601 0.0
H2997 H 0.2045 0.23886 0.14321 0.0
C2998 C 0.1607 0.24077 0.1304 0.0
C2999 C 0.13843 0.24031 0.12184 0.0
C3000 C 0.17864 0.2275 0.12058 0.0
C3001 C 0.13432 0.22624 0.10335 0.0
C3002 C 0.15208 0.2129 0.09354 0.0
C3003 C 0.19232 0.20012 0.0922 0.0
C3004 C 0.21463 0.20066 0.10077 0.0
C3005 C 0.17433 0.21343 0.10198 0.0
C3006 C 0.21861 0.21486 0.11922 0.0
C3007 C 0.20084 0.2281 0.12902 0.0
H3008 H 0.17986 0.81693 0.92721 0.0
H3009 H 0.22604 0.78936 0.87558 0.0
H3010 H 0.19523 0.76726 0.86064 0.0
H3011 H 0.15561 0.75483 0.86299 0.0
H3012 H 0.10959 0.78154 0.9152 0.0
H3013 H 0.14006 0.80478 0.92935 0.0
C3014 C 0.18331 0.80595 0.91283 0.0
C3015 C 0.20537 0.80478 0.90263 0.0
C3016 C 0.16556 0.79311 0.90447 0.0
C3017 C 0.20924 0.7908 0.88365 0.0
C3018 C 0.19165 0.77804 0.87517 0.0
C3019 C 0.15219 0.76578 0.87744 0.0
C3020 C 0.13036 0.76642 0.88807 0.0
C3021 C 0.1698 0.77896 0.88554 0.0
C3022 C 0.12624 0.78074 0.90672 0.0
C3023 C 0.14366 0.794 0.91483 0.0
H3024 H 0.22988 0.12612 0.91003 0.0
H3025 H 0.26991 0.17281 0.86771 0.0
H3026 H 0.24623 0.20512 0.87992 0.0
H3027 H 0.21377 0.22065 0.9017 0.0
H3028 H 0.17307 0.17547 0.94453 0.0
H3029 H 0.1973 0.1424 0.93331 0.0
C3030 C 0.23343 0.14338 0.90365 0.0
C3031 C 0.25158 0.14686 0.88783 0.0
C3032 C 0.21957 0.1623 0.91078 0.0
C3033 C 0.25598 0.16942 0.87975 0.0
C3034 C 0.24243 0.18806 0.88671 0.0
C3035 C 0.21012 0.20355 0.90846 0.0
C3036 C 0.1916 0.20055 0.92377 0.0
C3037 C 0.22408 0.18472 0.90199 0.0
C3038 C 0.18734 0.1783 0.93279 0.0
C3039 C 0.20114 0.15935 0.9263 0.0
H3040 H 0.80874 0.18471 0.91501 0.0
H3041 H 0.76413 0.22507 0.87034 0.0
H3042 H 0.79614 0.24842 0.85756 0.0
H3043 H 0.83648 0.25746 0.85911 0.0
H3044 H 0.88124 0.21825 0.90448 0.0
H3045 H 0.84925 0.1944 0.91721 0.0
C3046 C 0.80585 0.19879 0.90273 0.0
C3047 C 0.78389 0.20307 0.89368 0.0
C3048 C 0.82436 0.21228 0.89557 0.0
C3049 C 0.78079 0.22117 0.87741 0.0
C3050 C 0.79909 0.23461 0.87016 0.0
C3051 C 0.83934 0.24366 0.87176 0.0
C3052 C 0.86127 0.23956 0.88078 0.0
C3053 C 0.82092 0.23026 0.87907 0.0
C3054 C 0.86456 0.2217 0.89724 0.0
C3055 C 0.84627 0.20811 0.90452 0.0
H3056 H 0.74839 0.847 0.84549 0.0
H3057 H 0.7682 0.8972 0.89348 0.0
H3058 H 0.78916 0.86717 0.91543 0.0
H3059 H 0.80157 0.82664 0.92108 0.0
H3060 H 0.7811 0.77643 0.87342 0.0
H3061 H 0.76079 0.80657 0.85113 0.0
C3062 C 0.75738 0.85142 0.86069 0.0
C3063 C 0.75679 0.87434 0.8678 0.0
C3064 C 0.76923 0.83406 0.8733 0.0
C3065 C 0.76848 0.87973 0.88757 0.0
C3066 C 0.7804 0.86255 0.90017 0.0
C3067 C 0.79245 0.8222 0.90599 0.0
C3068 C 0.79281 0.79921 0.89902 0.0
C3069 C 0.78077 0.83963 0.89327 0.0
C3070 C 0.78128 0.79395 0.87909 0.0
C3071 C 0.76959 0.81118 0.86638 0.0
H3072 H 0.82688 0.74339 0.14312 0.0
H3073 H 0.87745 0.77289 0.09699 0.0
H3074 H 0.84833 0.79986 0.0813 0.0
H3075 H 0.80896 0.81567 0.08186 0.0
H3076 H 0.75835 0.78497 0.12723 0.0
H3077 H 0.7873 0.75786 0.1423 0.0
C3078 C 0.83158 0.75573 0.12963 0.0
C3079 C 0.8543 0.75634 0.12135 0.0
C3080 C 0.81482 0.77096 0.12068 0.0
C3081 C 0.86007 0.77219 0.10369 0.0
C3082 C 0.84344 0.78758 0.09475 0.0
C3083 C 0.80409 0.80286 0.09477 0.0
C3084 C 0.78142 0.80252 0.10346 0.0
C3085 C 0.82079 0.78718 0.10323 0.0
C3086 C 0.77567 0.78593 0.12048 0.0
C3087 C 0.7922 0.77033 0.12904 0.0
H3088 H 0.19698 0.79819 0.11228 0.0
H3089 H 0.22048 0.80746 0.04218 0.0
H3090 H 0.24018 0.84218 0.05213 0.0
H3091 H 0.25269 0.86856 0.08156 0.0
H3092 H 0.23067 0.85728 0.15187 0.0
H3093 H 0.20826 0.82479 0.14109 0.0
C3094 C 0.20659 0.80763 0.0992 0.0
C3095 C 0.20754 0.80005 0.07658 0.0
C3096 C 0.21795 0.82737 0.10509 0.0
C3097 C 0.2195 0.81296 0.05971 0.0
C3098 C 0.23077 0.83278 0.0654 0.0
C3099 C 0.24251 0.85925 0.09432 0.0
C3100 C 0.24303 0.86529 0.11739 0.0
C3101 C 0.23028 0.84005 0.0881 0.0
C3102 C 0.23034 0.85288 0.13399 0.0
C3103 C 0.21765 0.83426 0.12786 0.0
H3104 H 0.74191 0.16054 0.14343 0.0
H3105 H 0.77045 0.10922 0.09841 0.0
H3106 H 0.79632 0.13771 0.08113 0.0
H3107 H 0.81126 0.17732 0.07967 0.0
H3108 H 0.7812 0.22785 0.12482 0.0
H3109 H 0.75557 0.19943 0.14129 0.0
C3110 C 0.75377 0.15546 0.12984 0.0
C3111 C 0.75433 0.13273 0.12231 0.0
C3112 C 0.76839 0.17182 0.12007 0.0
C3113 C 0.76973 0.12659 0.10456 0.0
C3114 C 0.7845 0.14289 0.0947 0.0
C3115 C 0.79896 0.18213 0.09295 0.0
C3116 C 0.7984 0.2047 0.10117 0.0
C3117 C 0.78403 0.16558 0.10238 0.0
C3118 C 0.78239 0.21056 0.1185 0.0
C3119 C 0.7676 0.19433 0.12786 0.0
H3120 H 0.57877 0.67657 0.6895 0.0
H3121 H 0.62139 0.72851 0.71551 0.0
H3122 H 0.64164 0.69942 0.73897 0.0
H3123 H 0.64702 0.65942 0.7525 0.0
H3124 H 0.60396 0.60734 0.72749 0.0
H3125 H 0.58403 0.63631 0.70332 0.0
C3126 C 0.59232 0.68156 0.70045 0.0
C3127 C 0.59857 0.70473 0.70065 0.0
C3128 C 0.60387 0.66471 0.71404 0.0
C3129 C 0.61643 0.71079 0.71475 0.0
C3130 C 0.62797 0.69418 0.72827 0.0
C3131 C 0.63335 0.65436 0.74168 0.0
C3132 C 0.62703 0.63125 0.74174 0.0
C3133 C 0.62186 0.6711 0.72803 0.0
C3134 C 0.6092 0.62501 0.7277 0.0
C3135 C 0.59776 0.64158 0.71393 0.0
H3136 H 0.31909 0.63904 0.76932 0.0
H3137 H 0.37172 0.59104 0.74611 0.0
H3138 H 0.3444 0.57408 0.72073 0.0
H3139 H 0.3055 0.57336 0.70518 0.0
H3140 H 0.25328 0.62105 0.73 0.0
H3141 H 0.28073 0.63784 0.75472 0.0
C3142 C 0.32471 0.62489 0.75869 0.0
C3143 C 0.34741 0.61636 0.75949 0.0
C3144 C 0.30899 0.61523 0.74446 0.0
C3145 C 0.35432 0.59795 0.74571 0.0
C3146 C 0.33871 0.58825 0.73126 0.0
C3147 C 0.30007 0.58725 0.71617 0.0
C3148 C 0.27734 0.59603 0.71561 0.0
C3149 C 0.31597 0.59676 0.73054 0.0
C3150 C 0.27071 0.61424 0.72978 0.0
C3151 C 0.28636 0.62378 0.74402 0.0
H3152 H 0.42009 0.29164 0.7205 0.0
H3153 H 0.35277 0.28782 0.69273 0.0
H3154 H 0.34291 0.32644 0.70569 0.0
H3155 H 0.35196 0.35943 0.72857 0.0
H3156 H 0.4192 0.36436 0.75598 0.0
H3157 H 0.43088 0.32749 0.73918 0.0
C3158 C 0.40337 0.29943 0.71719 0.0
C3159 C 0.38708 0.28683 0.70591 0.0
C3160 C 0.3979 0.32186 0.72449 0.0
C3161 C 0.36558 0.29719 0.70133 0.0
C3162 C 0.35992 0.31924 0.70879 0.0
C3163 C 0.36939 0.35274 0.73018 0.0
C3164 C 0.38482 0.36456 0.7432 0.0
C3165 C 0.37576 0.33152 0.72078 0.0
C3166 C 0.40726 0.35573 0.74555 0.0
C3167 C 0.41377 0.33449 0.73626 0.0
H3168 H 0.68889 0.43577 0.68567 0.0
H3169 H 0.73769 0.3831 0.70846 0.0
H3170 H 0.70868 0.3661 0.73357 0.0
H3171 H 0.66968 0.36579 0.74897 0.0
H3172 H 0.62051 0.41861 0.72772 0.0
H3173 H 0.64957 0.43614 0.70233 0.0
C3174 C 0.69329 0.42072 0.69626 0.0
C3175 C 0.71556 0.41066 0.69487 0.0
C3176 C 0.67646 0.41105 0.71097 0.0
C3177 C 0.7207 0.391 0.70871 0.0
C3178 C 0.70412 0.38132 0.72324 0.0
C3179 C 0.66523 0.38115 0.7388 0.0
C3180 C 0.64289 0.39081 0.74017 0.0
C3181 C 0.68196 0.3911 0.72441 0.0
C3182 C 0.63755 0.4108 0.72696 0.0
C3183 C 0.65417 0.42081 0.71244 0.0
H3184 H 0.57991 0.3257 0.30387 0.0
H3185 H 0.63774 0.27838 0.29653 0.0
H3186 H 0.65709 0.30605 0.27142 0.0
H3187 H 0.65735 0.34288 0.2507 0.0
H3188 H 0.59982 0.39071 0.25656 0.0
H3189 H 0.58061 0.36374 0.28326 0.0
C3190 C 0.59668 0.32147 0.29665 0.0
C3191 C 0.60739 0.30002 0.30216 0.0
C3192 C 0.60779 0.33756 0.28208 0.0
C3193 C 0.62925 0.29486 0.29289 0.0
C3194 C 0.64031 0.31063 0.27842 0.0
C3195 C 0.64065 0.34754 0.25789 0.0
C3196 C 0.63 0.36873 0.25165 0.0
C3197 C 0.62973 0.33195 0.27288 0.0
C3198 C 0.60843 0.37453 0.26123 0.0
C3199 C 0.5974 0.35905 0.27636 0.0
H3200 H 0.71815 0.63527 0.29735 0.0
H3201 H 0.70744 0.56379 0.28534 0.0
H3202 H 0.67224 0.57423 0.26494 0.0
H3203 H 0.64518 0.60426 0.2492 0.0
H3204 H 0.65837 0.67565 0.25966 0.0
H3205 H 0.69148 0.66472 0.28243 0.0
C3206 C 0.70795 0.62195 0.29056 0.0
C3207 C 0.71531 0.59883 0.29291 0.0
C3208 C 0.68806 0.62811 0.27863 0.0
C3209 C 0.70217 0.58176 0.28357 0.0
C3210 C 0.68201 0.58772 0.272 0.0
C3211 C 0.6552 0.6173 0.25675 0.0
C3212 C 0.6493 0.64069 0.25293 0.0
C3213 C 0.67486 0.61089 0.26925 0.0
C3214 C 0.66257 0.65752 0.26244 0.0
C3215 C 0.68156 0.65131 0.27541 0.0
H3216 H 0.38439 0.70951 0.31638 0.0
H3217 H 0.45707 0.69593 0.30863 0.0
H3218 H 0.45003 0.66254 0.28601 0.0
H3219 H 0.42314 0.63761 0.26727 0.0
H3220 H 0.35076 0.65322 0.27286 0.0
H3221 H 0.35778 0.68539 0.29731 0.0
C3222 C 0.39877 0.69952 0.3096 0.0
C3223 C 0.42126 0.70539 0.3144 0.0
C3224 C 0.39463 0.68053 0.29619 0.0
C3225 C 0.43955 0.69175 0.30561 0.0
C3226 C 0.43556 0.67264 0.29252 0.0
C3227 C 0.40897 0.64795 0.2741 0.0
C3228 C 0.3865 0.64307 0.26843 0.0
C3229 C 0.41317 0.66686 0.28767 0.0
C3230 C 0.36823 0.65675 0.277 0.0
C3231 C 0.37222 0.67515 0.29095 0.0
H3232 H 0.32406 0.43433 0.30271 0.0
H3233 H 0.27793 0.38543 0.27675 0.0
H3234 H 0.30972 0.36563 0.25737 0.0
H3235 H 0.34999 0.36258 0.24703 0.0
H3236 H 0.39696 0.41151 0.27123 0.0
H3237 H 0.36539 0.43096 0.29225 0.0
C3238 C 0.32094 0.41948 0.29266 0.0
C3239 C 0.29853 0.41138 0.29123 0.0
C3240 C 0.33941 0.40816 0.28137 0.0
C3241 C 0.29493 0.39186 0.2784 0.0
C3242 C 0.31311 0.38058 0.26722 0.0
C3243 C 0.35347 0.37748 0.25694 0.0
C3244 C 0.37581 0.38563 0.25752 0.0
C3245 C 0.33534 0.3886 0.26856 0.0
C3246 C 0.37994 0.40484 0.27059 0.0
C3247 C 0.36186 0.41601 0.28248 0.0
H3248 H 0.70201 0.57063 0.68376 0.0
H3249 H 0.73102 0.61233 0.73479 0.0
H3250 H 0.75448 0.63145 0.70542 0.0
H3251 H 0.76606 0.63707 0.66547 0.0
H3252 H 0.73799 0.59561 0.61371 0.0
H3253 H 0.71489 0.57548 0.64318 0.0
C3254 C 0.71369 0.58368 0.68844 0.0
C3255 C 0.71465 0.59018 0.71143 0.0
C3256 C 0.72715 0.59471 0.67136 0.0
C3257 C 0.72971 0.60729 0.7172 0.0
C3258 C 0.74318 0.61818 0.70043 0.0
C3259 C 0.75489 0.62364 0.66054 0.0
C3260 C 0.7536 0.61795 0.63742 0.0
C3261 C 0.74184 0.61221 0.67747 0.0
C3262 C 0.73917 0.60038 0.63141 0.0
C3263 C 0.72601 0.58887 0.64825 0.0
H3264 H 0.41539 0.68628 0.70285 0.0
H3265 H 0.36479 0.71886 0.7471 0.0
H3266 H 0.35087 0.74249 0.71473 0.0
H3267 H 0.35294 0.75375 0.67419 0.0
H3268 H 0.40385 0.72216 0.62964 0.0
H3269 H 0.41807 0.69835 0.66207 0.0
C3270 C 0.40154 0.69875 0.70556 0.0
C3271 C 0.39116 0.70076 0.72751 0.0
C3272 C 0.39369 0.71238 0.68685 0.0
C3273 C 0.37291 0.71674 0.73043 0.0
C3274 C 0.36502 0.73033 0.71194 0.0
C3275 C 0.36716 0.74166 0.67147 0.0
C3276 C 0.37729 0.73965 0.64949 0.0
C3277 C 0.37522 0.72821 0.69011 0.0
C3278 C 0.39574 0.72397 0.64637 0.0
C3279 C 0.40386 0.71039 0.66491 0.0
H3280 H 0.31086 0.38133 0.71523 0.0
H3281 H 0.29524 0.45363 0.70261 0.0
H3282 H 0.27079 0.44444 0.67119 0.0
H3283 H 0.25209 0.41567 0.64825 0.0
H3284 H 0.26567 0.34351 0.66307 0.0
H3285 H 0.29253 0.35283 0.69255 0.0
C3286 C 0.30203 0.39515 0.70584 0.0
C3287 C 0.30506 0.4182 0.71152 0.0
C3288 C 0.28757 0.38974 0.688 0.0
C3289 C 0.29361 0.43574 0.69861 0.0
C3290 C 0.27946 0.4305 0.68063 0.0
C3291 C 0.26124 0.40206 0.65773 0.0
C3292 C 0.25706 0.37896 0.65345 0.0
C3293 C 0.27618 0.40756 0.67522 0.0
C3294 C 0.26865 0.36143 0.66611 0.0
C3295 C 0.28395 0.36674 0.68301 0.0
H3296 H 0.61118 0.28452 0.6243 0.0
H3297 H 0.66899 0.25833 0.66293 0.0
H3298 H 0.65507 0.2788 0.69633 0.0
H3299 H 0.62585 0.30221 0.71519 0.0
H3300 H 0.56851 0.33031 0.67701 0.0
H3301 H 0.58259 0.31048 0.64308 0.0
C3302 C 0.62085 0.28361 0.63994 0.0
C3303 C 0.64106 0.2699 0.64112 0.0
C3304 C 0.61268 0.29541 0.6593 0.0
C3305 C 0.65335 0.2687 0.66155 0.0
C3306 C 0.64538 0.28035 0.68073 0.0
C3307 C 0.61654 0.30451 0.69944 0.0
C3308 C 0.59614 0.31797 0.69889 0.0
C3309 C 0.62495 0.29349 0.67988 0.0
C3310 C 0.58413 0.31996 0.67824 0.0
C3311 C 0.59227 0.30873 0.65868 0.0
H3312 H 0.76842 0.3726 0.32462 0.0
H3313 H 0.73673 0.42326 0.36854 0.0
H3314 H 0.71392 0.4385 0.33619 0.0
H3315 H 0.70203 0.43589 0.29584 0.0
H3316 H 0.73435 0.38455 0.25304 0.0
H3317 H 0.75782 0.3708 0.28493 0.0
C3318 C 0.75656 0.38702 0.3273 0.0
C3319 C 0.75415 0.39669 0.34908 0.0
C3320 C 0.74356 0.3954 0.30886 0.0
C3321 C 0.73886 0.4155 0.35199 0.0
C3322 C 0.72582 0.42413 0.33351 0.0
C3323 C 0.71442 0.42191 0.29337 0.0
C3324 C 0.71637 0.4112 0.27198 0.0
C3325 C 0.72789 0.41404 0.3119 0.0
C3326 C 0.73228 0.39287 0.2693 0.0
C3327 C 0.74578 0.38508 0.28751 0.0
H3328 H 0.56492 0.70924 0.31438 0.0
H3329 H 0.63371 0.69389 0.2898 0.0
H3330 H 0.64913 0.71073 0.32331 0.0
H3331 H 0.64346 0.73217 0.35809 0.0
H3332 H 0.5754 0.74767 0.38403 0.0
H3333 H 0.55922 0.72771 0.35192 0.0
C3334 C 0.58326 0.70938 0.31652 0.0
C3335 C 0.59809 0.70086 0.29919 0.0
C3336 C 0.59213 0.71894 0.33614 0.0
C3337 C 0.62184 0.70105 0.3023 0.0
C3338 C 0.63073 0.71045 0.32165 0.0
C3339 C 0.62506 0.73088 0.35687 0.0
C3340 C 0.61056 0.74138 0.37314 0.0
C3341 C 0.61607 0.71982 0.33839 0.0
C3342 C 0.58682 0.73948 0.37168 0.0
C3343 C 0.57762 0.72831 0.35323 0.0
H3344 H 0.26838 0.60549 0.36811 0.0
H3345 H 0.2404 0.65396 0.31772 0.0
H3346 H 0.26636 0.63876 0.28856 0.0
H3347 H 0.29667 0.61204 0.2771 0.0
H3348 H 0.32729 0.56493 0.32703 0.0
H3349 H 0.30017 0.57873 0.35636 0.0
C3350 C 0.26807 0.61272 0.35076 0.0
C3351 C 0.25253 0.6309 0.34517 0.0
C3352 C 0.28333 0.60401 0.3339 0.0
C3353 C 0.25227 0.64008 0.32259 0.0
C3354 C 0.26706 0.63134 0.30581 0.0
C3355 C 0.29777 0.60495 0.29443 0.0
C3356 C 0.3143 0.58766 0.29977 0.0
C3357 C 0.28266 0.6134 0.31128 0.0
C3358 C 0.31475 0.57819 0.32227 0.0
C3359 C 0.29932 0.58621 0.33914 0.0
H3360 H 0.43318 0.30981 0.31662 0.0
H3361 H 0.37973 0.28857 0.27307 0.0
H3362 H 0.36034 0.27034 0.30611 0.0
H3363 H 0.35934 0.25922 0.34687 0.0
H3364 H 0.41252 0.2802 0.3909 0.0
H3365 H 0.43128 0.29996 0.35814 0.0
C3366 C 0.41739 0.30103 0.31433 0.0
C3367 C 0.40803 0.30031 0.29231 0.0
C3368 C 0.40629 0.29068 0.33348 0.0
C3369 C 0.38724 0.28938 0.28978 0.0
C3370 C 0.3762 0.27892 0.30866 0.0
C3371 C 0.37499 0.26823 0.34938 0.0
C3372 C 0.38461 0.26816 0.37128 0.0
C3373 C 0.38565 0.27934 0.33052 0.0
C3374 C 0.40473 0.28009 0.37426 0.0
C3375 C 0.41552 0.29124 0.35549 0.0
H3376 H 0.69282 0.70019 0.57054 0.0
H3377 H 0.73207 0.7133 0.63007 0.0
H3378 H 0.69927 0.73387 0.6472 0.0
H3379 H 0.6597 0.74852 0.64517 0.0
H3380 H 0.61967 0.73505 0.58625 0.0
H3381 H 0.65245 0.71421 0.56895 0.0
C3382 C 0.69417 0.70769 0.58719 0.0
C3383 C 0.71488 0.70525 0.59901 0.0
C3384 C 0.67511 0.71935 0.59705 0.0
C3385 C 0.71629 0.71475 0.62073 0.0
C3386 C 0.69757 0.72658 0.6305 0.0
C3387 C 0.65811 0.741 0.62854 0.0
C3388 C 0.63731 0.74339 0.61697 0.0
C3389 C 0.67692 0.729 0.61882 0.0
C3390 C 0.63548 0.73338 0.59554 0.0
C3391 C 0.65424 0.72155 0.58561 0.0
H3392 H 0.66881 0.25797 0.35997 0.0
H3393 H 0.62665 0.27482 0.41905 0.0
H3394 H 0.65703 0.29803 0.43338 0.0
H3395 H 0.69472 0.31449 0.42835 0.0
H3396 H 0.7358 0.30012 0.36781 0.0
H3397 H 0.70698 0.27418 0.35525 0.0
C3398 C 0.66632 0.26664 0.37604 0.0
C3399 C 0.64549 0.26483 0.3884 0.0
C3400 C 0.6837 0.2802 0.38397 0.0
C3401 C 0.64245 0.27617 0.40914 0.0
C3402 C 0.65984 0.28934 0.41737 0.0
C3403 C 0.6974 0.30589 0.4123 0.0
C3404 C 0.71736 0.30966 0.39892 0.0
C3405 C 0.6804 0.29169 0.40477 0.0
C3406 C 0.72074 0.29761 0.37856 0.0
C3407 C 0.70413 0.2829 0.37124 0.0
H3408 H 0.73098 0.62885 0.40471 0.0
H3409 H 0.75013 0.66931 0.34437 0.0
H3410 H 0.72619 0.70136 0.35711 0.0
H3411 H 0.70169 0.71892 0.3859 0.0
H3412 H 0.68064 0.67925 0.44608 0.0
H3413 H 0.70371 0.64635 0.43311 0.0
C3414 C 0.72964 0.6446 0.39431 0.0
C3415 C 0.74251 0.64668 0.37373 0.0
C3416 C 0.71576 0.66335 0.40181 0.0
C3417 C 0.74066 0.66725 0.36043 0.0
C3418 C 0.72694 0.68569 0.36767 0.0
C3419 C 0.70167 0.70307 0.39613 0.0
C3420 C 0.68924 0.7019 0.417 0.0
C3421 C 0.71469 0.68407 0.38845 0.0
C3422 C 0.69013 0.68105 0.43006 0.0
C3423 C 0.70327 0.66204 0.42258 0.0
H3424 H 0.33557 0.75755 0.3606 0.0
H3425 H 0.37619 0.72277 0.41272 0.0
H3426 H 0.34293 0.7006 0.4254 0.0
H3427 H 0.30253 0.69116 0.42122 0.0
H3428 H 0.26207 0.7276 0.36989 0.0
H3429 H 0.29538 0.74903 0.35719 0.0
C3430 C 0.33729 0.74505 0.37471 0.0
C3431 C 0.35842 0.74168 0.38562 0.0
C3432 C 0.31815 0.73272 0.382 0.0
C3433 C 0.36017 0.7256 0.40398 0.0
C3434 C 0.34115 0.71298 0.41123 0.0
C3435 C 0.30079 0.70399 0.40748 0.0
C3436 C 0.27962 0.70766 0.39653 0.0
C3437 C 0.32003 0.71647 0.40038 0.0
C3438 C 0.27808 0.72414 0.37845 0.0
C3439 C 0.29712 0.73649 0.37123 0.0
H3440 H 0.25379 0.34859 0.35047 0.0
H3441 H 0.27113 0.39648 0.40175 0.0
H3442 H 0.29175 0.3656 0.42297 0.0
H3443 H 0.30415 0.32481 0.4272 0.0
H3444 H 0.28669 0.2772 0.37578 0.0
H3445 H 0.26678 0.30824 0.35426 0.0
C3446 C 0.26217 0.35234 0.36624 0.0
C3447 C 0.26092 0.3748 0.37455 0.0
C3448 C 0.27384 0.33453 0.37835 0.0
C3449 C 0.27194 0.37936 0.39494 0.0
C3450 C 0.28362 0.36169 0.40713 0.0
C3451 C 0.29577 0.32118 0.41143 0.0
C3452 C 0.29671 0.29866 0.40319 0.0
C3453 C 0.28449 0.33916 0.39909 0.0
C3454 C 0.28625 0.29438 0.38242 0.0
C3455 C 0.27484 0.3121 0.37015 0.0
H3456 H 0.35493 0.26513 0.61135 0.0
H3457 H 0.31048 0.22739 0.65794 0.0
H3458 H 0.27766 0.25058 0.64498 0.0
H3459 H 0.26158 0.28219 0.62127 0.0
H3460 H 0.3059 0.32094 0.57551 0.0
H3461 H 0.33848 0.29645 0.58685 0.0
C3462 C 0.33805 0.26199 0.6186 0.0
C3463 C 0.3352 0.24468 0.63566 0.0
C3464 C 0.31913 0.27546 0.61112 0.0
C3465 C 0.3132 0.24071 0.64485 0.0
C3466 C 0.29437 0.25393 0.63744 0.0
C3467 C 0.27836 0.28533 0.61383 0.0
C3468 C 0.28117 0.30344 0.59762 0.0
C3469 C 0.29715 0.27147 0.62074 0.0
C3470 C 0.30304 0.30698 0.58782 0.0
C3471 C 0.3218 0.29309 0.59445 0.0
H3472 H 0.77812 0.34895 0.59981 0.0
H3473 H 0.71679 0.3897 0.61296 0.0
H3474 H 0.69344 0.35856 0.59969 0.0
H3475 H 0.69079 0.31838 0.58733 0.0
H3476 H 0.75251 0.27876 0.57255 0.0
H3477 H 0.77563 0.31092 0.58311 0.0
C3478 C 0.75964 0.35105 0.59938 0.0
C3479 C 0.749 0.37128 0.60737 0.0
C3480 C 0.74654 0.33329 0.59156 0.0
C3481 C 0.72517 0.37417 0.60672 0.0
C3482 C 0.7119 0.35635 0.5993 0.0
C3483 C 0.7093 0.31698 0.58629 0.0
C3484 C 0.72003 0.29626 0.57944 0.0
C3485 C 0.72241 0.33563 0.59217 0.0
C3486 C 0.74398 0.2946 0.57774 0.0
C3487 C 0.75715 0.31291 0.58388 0.0
H3488 H 0.23697 0.66474 0.64581 0.0
H3489 H 0.26891 0.61094 0.60592 0.0
H3490 H 0.29571 0.63852 0.58885 0.0
H3491 H 0.3103 0.67791 0.58589 0.0
H3492 H 0.27718 0.73141 0.6254 0.0
H3493 H 0.25071 0.70382 0.64217 0.0
C3494 C 0.24979 0.65897 0.63339 0.0
C3495 C 0.251 0.63579 0.6272 0.0
C3496 C 0.26498 0.67487 0.62365 0.0
C3497 C 0.26765 0.62869 0.611 0.0
C3498 C 0.28296 0.64445 0.60124 0.0
C3499 C 0.29717 0.68361 0.59797 0.0
C3500 C 0.29592 0.70677 0.60446 0.0
C3501 C 0.2818 0.66761 0.60748 0.0
C3502 C 0.27887 0.71369 0.62038 0.0
C3503 C 0.26361 0.69793 0.62989 0.0
loop_
_geom_bond_atom_site_label_1
_geom_bond_atom_site_label_2
_geom_bond_distance
_geom_bond_site_symmetry_2
_ccdc_geom_bond_type
Co0 N4 2.148 . S
Co0 N10 2.128 . S
Co0 N20 2.194 . S
Co0 O25 2.351 . S
Co0 O26 2.155 . S
Co0 O27 2.096 . S
C1 N4 1.301 . S
C1 N5 1.328 . S
C1 H6 0.930 . S
C2 C3 1.333 . S
C2 N4 1.317 . S
C2 H7 0.930 . S
C3 C2 1.333 . S
C3 N5 1.350 . S
C3 H29 0.931 . S
N4 Co0 2.148 . S
N4 C1 1.301 . S
N4 C2 1.317 . S
N5 C1 1.328 . S
N5 C3 1.350 . S
H6 C1 0.930 . S
H7 C2 0.930 . S
C8 O9 1.224 . S
C8 O27 1.247 . S
O9 C8 1.224 . S
N10 Co0 2.128 . S
N10 C11 1.355 . S
N10 C13 1.311 . S
C11 N10 1.355 . S
C11 C12 1.363 . S
C11 H23 0.929 . S
C12 C11 1.363 . S
C12 N14 1.375 . S
C12 H30 0.931 . S
C13 N10 1.311 . S
C13 N14 1.347 . S
C13 H24 0.929 . S
N14 C12 1.375 . S
N14 C13 1.347 . S
C15 C18 1.365 . S
C15 N20 1.328 . S
C15 H21 0.929 . S
C16 C17 1.362 . S
C16 C19 1.378 . S
C16 H31 0.929 . S
C17 C16 1.362 . S
C17 C18 1.366 . S
C18 C15 1.365 . S
C18 C17 1.366 . S
C18 H32 0.930 . S
C19 C16 1.378 . S
C19 N20 1.315 . S
C19 H22 0.930 . S
N20 Co0 2.194 . S
N20 C15 1.328 . S
N20 C19 1.315 . S
H21 C15 0.929 . S
H22 C19 0.930 . S
H23 C11 0.929 . S
H24 C13 0.929 . S
O25 Co0 2.351 . S
O25 C28 1.244 . S
O26 Co0 2.155 . S
O26 C28 1.240 . S
O27 Co0 2.096 . S
O27 C8 1.247 . S
C28 O25 1.244 . S
C28 O26 1.240 . S
H29 C3 0.931 . S
H30 C12 0.931 . S
H31 C16 0.929 . S
H32 C18 0.930 . S
Co33 N37 2.148 . S
Co33 N43 2.128 . S
Co33 N53 2.194 . S
Co33 O58 2.351 . S
Co33 O59 2.155 . S
Co33 O60 2.096 . S
C34 N37 1.301 . S
C34 N38 1.328 . S
C34 H39 0.930 . S
C35 C36 1.333 . S
C35 N37 1.317 . S
C35 H40 0.930 . S
C36 C35 1.333 . S
C36 N38 1.350 . S
C36 H62 0.931 . S
N37 Co33 2.148 . S
N37 C34 1.301 . S
N37 C35 1.317 . S
N38 C34 1.328 . S
N38 C36 1.350 . S
H39 C34 0.930 . S
H40 C35 0.930 . S
C41 O42 1.224 . S
C41 O60 1.247 . S
O42 C41 1.224 . S
N43 Co33 2.128 . S
N43 C44 1.355 . S
N43 C46 1.311 . S
C44 N43 1.355 . S
C44 C45 1.363 . S
C44 H56 0.929 . S
C45 C44 1.363 . S
C45 N47 1.375 . S
C45 H63 0.931 . S
C46 N43 1.311 . S
C46 N47 1.347 . S
C46 H57 0.929 . S
N47 C45 1.375 . S
N47 C46 1.347 . S
C48 C51 1.365 . S
C48 N53 1.328 . S
C48 H54 0.929 . S
C49 C50 1.362 . S
C49 C52 1.378 . S
C49 H64 0.929 . S
C50 C49 1.362 . S
C50 C51 1.366 . S
C51 C48 1.365 . S
C51 C50 1.366 . S
C51 H65 0.930 . S
C52 C49 1.378 . S
C52 N53 1.315 . S
C52 H55 0.930 . S
N53 Co33 2.194 . S
N53 C48 1.328 . S
N53 C52 1.315 . S
H54 C48 0.929 . S
H55 C52 0.930 . S
H56 C44 0.929 . S
H57 C46 0.929 . S
O58 Co33 2.351 . S
O58 C61 1.244 . S
O59 Co33 2.155 . S
O59 C61 1.240 . S
O60 Co33 2.096 . S
O60 C41 1.247 . S
C61 O58 1.244 . S
C61 O59 1.240 . S
H62 C36 0.931 . S
H63 C45 0.931 . S
H64 C49 0.929 . S
H65 C51 0.930 . S
Co66 N70 2.148 . S
Co66 N76 2.128 . S
Co66 N86 2.194 . S
Co66 O91 2.351 . S
Co66 O92 2.155 . S
Co66 O93 2.096 . S
C67 N70 1.301 . S
C67 N71 1.328 . S
C67 H72 0.930 . S
C68 C69 1.333 . S
C68 N70 1.317 . S
C68 H73 0.930 . S
C69 C68 1.333 . S
C69 N71 1.350 . S
C69 H95 0.931 . S
N70 Co66 2.148 . S
N70 C67 1.301 . S
N70 C68 1.317 . S
N71 C67 1.328 . S
N71 C69 1.350 . S
H72 C67 0.930 . S
H73 C68 0.930 . S
C74 O75 1.224 . S
C74 O93 1.247 . S
O75 C74 1.224 . S
N76 Co66 2.128 . S
N76 C77 1.355 . S
N76 C79 1.311 . S
C77 N76 1.355 . S
C77 C78 1.363 . S
C77 H89 0.929 . S
C78 C77 1.363 . S
C78 N80 1.375 . S
C78 H96 0.931 . S
C79 N76 1.311 . S
C79 N80 1.347 . S
C79 H90 0.929 . S
N80 C78 1.375 . S
N80 C79 1.347 . S
C81 C84 1.365 . S
C81 N86 1.328 . S
C81 H87 0.929 . S
C82 C83 1.362 . S
C82 C85 1.378 . S
C82 H97 0.929 . S
C83 C82 1.362 . S
C83 C84 1.366 . S
C84 C81 1.365 . S
C84 C83 1.366 . S
C84 H98 0.930 . S
C85 C82 1.378 . S
C85 N86 1.315 . S
C85 H88 0.930 . S
N86 Co66 2.194 . S
N86 C81 1.328 . S
N86 C85 1.315 . S
H87 C81 0.929 . S
H88 C85 0.930 . S
H89 C77 0.929 . S
H90 C79 0.929 . S
O91 Co66 2.351 . S
O91 C94 1.244 . S
O92 Co66 2.155 . S
O92 C94 1.240 . S
O93 Co66 2.096 . S
O93 C74 1.247 . S
C94 O91 1.244 . S
C94 O92 1.240 . S
H95 C69 0.931 . S
H96 C78 0.931 . S
H97 C82 0.929 . S
H98 C84 0.930 . S
Co99 N103 2.148 . S
Co99 N109 2.128 . S
Co99 N119 2.194 . S
Co99 O124 2.351 . S
Co99 O125 2.155 . S
Co99 O126 2.096 . S
C100 N103 1.301 . S
C100 N104 1.328 . S
C100 H105 0.930 . S
C101 C102 1.333 . S
C101 N103 1.317 . S
C101 H106 0.930 . S
C102 C101 1.333 . S
C102 N104 1.350 . S
C102 H128 0.931 . S
N103 Co99 2.148 . S
N103 C100 1.301 . S
N103 C101 1.317 . S
N104 C100 1.328 . S
N104 C102 1.350 . S
H105 C100 0.930 . S
H106 C101 0.930 . S
C107 O108 1.224 . S
C107 O126 1.247 . S
O108 C107 1.224 . S
N109 Co99 2.128 . S
N109 C110 1.355 . S
N109 C112 1.311 . S
C110 N109 1.355 . S
C110 C111 1.363 . S
C110 H122 0.929 . S
C111 C110 1.363 . S
C111 N113 1.375 . S
C111 H129 0.931 . S
C112 N109 1.311 . S
C112 N113 1.347 . S
C112 H123 0.929 . S
N113 C111 1.375 . S
N113 C112 1.347 . S
C114 C117 1.365 . S
C114 N119 1.328 . S
C114 H120 0.929 . S
C115 C116 1.362 . S
C115 C118 1.378 . S
C115 H130 0.929 . S
C116 C115 1.362 . S
C116 C117 1.366 . S
C117 C114 1.365 . S
C117 C116 1.366 . S
C117 H131 0.930 . S
C118 C115 1.378 . S
C118 N119 1.315 . S
C118 H121 0.930 . S
N119 Co99 2.194 . S
N119 C114 1.328 . S
N119 C118 1.315 . S
H120 C114 0.929 . S
H121 C118 0.930 . S
H122 C110 0.929 . S
H123 C112 0.929 . S
O124 Co99 2.351 . S
O124 C127 1.244 . S
O125 Co99 2.155 . S
O125 C127 1.240 . S
O126 Co99 2.096 . S
O126 C107 1.247 . S
C127 O124 1.244 . S
C127 O125 1.240 . S
H128 C102 0.931 . S
H129 C111 0.931 . S
H130 C115 0.929 . S
H131 C117 0.930 . S
Co132 N136 2.148 . S
Co132 N142 2.128 . S
Co132 N152 2.194 . S
Co132 O157 2.351 . S
Co132 O158 2.155 . S
Co132 O159 2.096 . S
C133 N136 1.301 . S
C133 N137 1.328 . S
C133 H138 0.930 . S
C134 C135 1.333 . S
C134 N136 1.317 . S
C134 H139 0.930 . S
C135 C134 1.333 . S
C135 N137 1.350 . S
C135 H161 0.931 . S
N136 Co132 2.148 . S
N136 C133 1.301 . S
N136 C134 1.317 . S
N137 C133 1.328 . S
N137 C135 1.350 . S
H138 C133 0.930 . S
H139 C134 0.930 . S
C140 O141 1.224 . S
C140 O159 1.247 . S
O141 C140 1.224 . S
N142 Co132 2.128 . S
N142 C143 1.355 . S
N142 C145 1.311 . S
C143 N142 1.355 . S
C143 C144 1.363 . S
C143 H155 0.929 . S
C144 C143 1.363 . S
C144 N146 1.375 . S
C144 H162 0.931 . S
C145 N142 1.311 . S
C145 N146 1.347 . S
C145 H156 0.929 . S
N146 C144 1.375 . S
N146 C145 1.347 . S
C147 C150 1.365 . S
C147 N152 1.328 . S
C147 H153 0.929 . S
C148 C149 1.362 . S
C148 C151 1.378 . S
C148 H163 0.929 . S
C149 C148 1.362 . S
C149 C150 1.366 . S
C150 C147 1.365 . S
C150 C149 1.366 . S
C150 H164 0.930 . S
C151 C148 1.378 . S
C151 N152 1.315 . S
C151 H154 0.930 . S
N152 Co132 2.194 . S
N152 C147 1.328 . S
N152 C151 1.315 . S
H153 C147 0.929 . S
H154 C151 0.930 . S
H155 C143 0.929 . S
H156 C145 0.929 . S
O157 Co132 2.351 . S
O157 C160 1.244 . S
O158 Co132 2.155 . S
O158 C160 1.240 . S
O159 Co132 2.096 . S
O159 C140 1.247 . S
C160 O157 1.244 . S
C160 O158 1.240 . S
H161 C135 0.931 . S
H162 C144 0.931 . S
H163 C148 0.929 . S
H164 C150 0.930 . S
Co165 N169 2.148 . S
Co165 N175 2.128 . S
Co165 N185 2.194 . S
Co165 O190 2.351 . S
Co165 O191 2.155 . S
Co165 O192 2.096 . S
C166 N169 1.301 . S
C166 N170 1.328 . S
C166 H171 0.930 . S
C167 C168 1.333 . S
C167 N169 1.317 . S
C167 H172 0.930 . S
C168 C167 1.333 . S
C168 N170 1.350 . S
C168 H194 0.931 . S
N169 Co165 2.148 . S
N169 C166 1.301 . S
N169 C167 1.317 . S
N170 C166 1.328 . S
N170 C168 1.350 . S
H171 C166 0.930 . S
H172 C167 0.930 . S
C173 O174 1.224 . S
C173 O192 1.247 . S
O174 C173 1.224 . S
N175 Co165 2.128 . S
N175 C176 1.355 . S
N175 C178 1.311 . S
C176 N175 1.355 . S
C176 C177 1.363 . S
C176 H188 0.929 . S
C177 C176 1.363 . S
C177 N179 1.375 . S
C177 H195 0.931 . S
C178 N175 1.311 . S
C178 N179 1.347 . S
C178 H189 0.929 . S
N179 C177 1.375 . S
N179 C178 1.347 . S
C180 C183 1.365 . S
C180 N185 1.328 . S
C180 H186 0.929 . S
C181 C182 1.362 . S
C181 C184 1.378 . S
C181 H196 0.929 . S
C182 C181 1.362 . S
C182 C183 1.366 . S
C183 C180 1.365 . S
C183 C182 1.366 . S
C183 H197 0.930 . S
C184 C181 1.378 . S
C184 N185 1.315 . S
C184 H187 0.930 . S
N185 Co165 2.194 . S
N185 C180 1.328 . S
N185 C184 1.315 . S
H186 C180 0.929 . S
H187 C184 0.930 . S
H188 C176 0.929 . S
H189 C178 0.929 . S
O190 Co165 2.351 . S
O190 C193 1.244 . S
O191 Co165 2.155 . S
O191 C193 1.240 . S
O192 Co165 2.096 . S
O192 C173 1.247 . S
C193 O190 1.244 . S
C193 O191 1.240 . S
H194 C168 0.931 . S
H195 C177 0.931 . S
H196 C181 0.929 . S
H197 C183 0.930 . S
Co198 N202 2.148 . S
Co198 N208 2.128 . S
Co198 N218 2.194 . S
Co198 O223 2.351 . S
Co198 O224 2.155 . S
Co198 O225 2.096 . S
C199 N202 1.301 . S
C199 N203 1.328 . S
C199 H204 0.930 . S
C200 C201 1.333 . S
C200 N202 1.317 . S
C200 H205 0.930 . S
C201 C200 1.333 . S
C201 N203 1.350 . S
C201 H227 0.931 . S
N202 Co198 2.148 . S
N202 C199 1.301 . S
N202 C200 1.317 . S
N203 C199 1.328 . S
N203 C201 1.350 . S
H204 C199 0.930 . S
H205 C200 0.930 . S
C206 O207 1.224 . S
C206 O225 1.247 . S
O207 C206 1.224 . S
N208 Co198 2.128 . S
N208 C209 1.355 . S
N208 C211 1.311 . S
C209 N208 1.355 . S
C209 C210 1.363 . S
C209 H221 0.929 . S
C210 C209 1.363 . S
C210 N212 1.375 . S
C210 H228 0.931 . S
C211 N208 1.311 . S
C211 N212 1.347 . S
C211 H222 0.929 . S
N212 C210 1.375 . S
N212 C211 1.347 . S
C213 C216 1.365 . S
C213 N218 1.328 . S
C213 H219 0.929 . S
C214 C215 1.362 . S
C214 C217 1.378 . S
C214 H229 0.929 . S
C215 C214 1.362 . S
C215 C216 1.366 . S
C216 C213 1.365 . S
C216 C215 1.366 . S
C216 H230 0.930 . S
C217 C214 1.378 . S
C217 N218 1.315 . S
C217 H220 0.930 . S
N218 Co198 2.194 . S
N218 C213 1.328 . S
N218 C217 1.315 . S
H219 C213 0.929 . S
H220 C217 0.930 . S
H221 C209 0.929 . S
H222 C211 0.929 . S
O223 Co198 2.351 . S
O223 C226 1.244 . S
O224 Co198 2.155 . S
O224 C226 1.240 . S
O225 Co198 2.096 . S
O225 C206 1.247 . S
C226 O223 1.244 . S
C226 O224 1.240 . S
H227 C201 0.931 . S
H228 C210 0.931 . S
H229 C214 0.929 . S
H230 C216 0.930 . S
Co231 N235 2.148 . S
Co231 N241 2.128 . S
Co231 N251 2.194 . S
Co231 O256 2.351 . S
Co231 O257 2.155 . S
Co231 O258 2.096 . S
C232 N235 1.301 . S
C232 N236 1.328 . S
C232 H237 0.930 . S
C233 C234 1.333 . S
C233 N235 1.317 . S
C233 H238 0.930 . S
C234 C233 1.333 . S
C234 N236 1.350 . S
C234 H260 0.931 . S
N235 Co231 2.148 . S
N235 C232 1.301 . S
N235 C233 1.317 . S
N236 C232 1.328 . S
N236 C234 1.350 . S
H237 C232 0.930 . S
H238 C233 0.930 . S
C239 O240 1.224 . S
C239 O258 1.247 . S
O240 C239 1.224 . S
N241 Co231 2.128 . S
N241 C242 1.355 . S
N241 C244 1.311 . S
C242 N241 1.355 . S
C242 C243 1.363 . S
C242 H254 0.929 . S
C243 C242 1.363 . S
C243 N245 1.375 . S
C243 H261 0.931 . S
C244 N241 1.311 . S
C244 N245 1.347 . S
C244 H255 0.929 . S
N245 C243 1.375 . S
N245 C244 1.347 . S
C246 C249 1.365 . S
C246 N251 1.328 . S
C246 H252 0.929 . S
C247 C248 1.362 . S
C247 C250 1.378 . S
C247 H262 0.929 . S
C248 C247 1.362 . S
C248 C249 1.366 . S
C249 C246 1.365 . S
C249 C248 1.366 . S
C249 H263 0.930 . S
C250 C247 1.378 . S
C250 N251 1.315 . S
C250 H253 0.930 . S
N251 Co231 2.194 . S
N251 C246 1.328 . S
N251 C250 1.315 . S
H252 C246 0.929 . S
H253 C250 0.930 . S
H254 C242 0.929 . S
H255 C244 0.929 . S
O256 Co231 2.351 . S
O256 C259 1.244 . S
O257 Co231 2.155 . S
O257 C259 1.240 . S
O258 Co231 2.096 . S
O258 C239 1.247 . S
C259 O256 1.244 . S
C259 O257 1.240 . S
H260 C234 0.931 . S
H261 C243 0.931 . S
H262 C247 0.929 . S
H263 C249 0.930 . S
Co264 N268 2.148 . S
Co264 N274 2.128 . S
Co264 N284 2.194 . S
Co264 O289 2.351 . S
Co264 O290 2.155 . S
Co264 O291 2.096 . S
C265 N268 1.301 . S
C265 N269 1.328 . S
C265 H270 0.930 . S
C266 C267 1.333 . S
C266 N268 1.317 . S
C266 H271 0.930 . S
C267 C266 1.333 . S
C267 N269 1.350 . S
C267 H293 0.931 . S
N268 Co264 2.148 . S
N268 C265 1.301 . S
N268 C266 1.317 . S
N269 C265 1.328 . S
N269 C267 1.350 . S
H270 C265 0.930 . S
H271 C266 0.930 . S
C272 O273 1.224 . S
C272 O291 1.247 . S
O273 C272 1.224 . S
N274 Co264 2.128 . S
N274 C275 1.355 . S
N274 C277 1.311 . S
C275 N274 1.355 . S
C275 C276 1.363 . S
C275 H287 0.929 . S
C276 C275 1.363 . S
C276 N278 1.375 . S
C276 H294 0.931 . S
C277 N274 1.311 . S
C277 N278 1.347 . S
C277 H288 0.929 . S
N278 C276 1.375 . S
N278 C277 1.347 . S
C279 C282 1.365 . S
C279 N284 1.328 . S
C279 H285 0.929 . S
C280 C281 1.362 . S
C280 C283 1.378 . S
C280 H295 0.929 . S
C281 C280 1.362 . S
C281 C282 1.366 . S
C282 C279 1.365 . S
C282 C281 1.366 . S
C282 H296 0.930 . S
C283 C280 1.378 . S
C283 N284 1.315 . S
C283 H286 0.930 . S
N284 Co264 2.194 . S
N284 C279 1.328 . S
N284 C283 1.315 . S
H285 C279 0.929 . S
H286 C283 0.930 . S
H287 C275 0.929 . S
H288 C277 0.929 . S
O289 Co264 2.351 . S
O289 C292 1.244 . S
O290 Co264 2.155 . S
O290 C292 1.240 . S
O291 Co264 2.096 . S
O291 C272 1.247 . S
C292 O289 1.244 . S
C292 O290 1.240 . S
H293 C267 0.931 . S
H294 C276 0.931 . S
H295 C280 0.929 . S
H296 C282 0.930 . S
Co297 N301 2.148 . S
Co297 N307 2.128 . S
Co297 N317 2.194 . S
Co297 O322 2.351 . S
Co297 O323 2.155 . S
Co297 O324 2.096 . S
C298 N301 1.301 . S
C298 N302 1.328 . S
C298 H303 0.930 . S
C299 C300 1.333 . S
C299 N301 1.317 . S
C299 H304 0.930 . S
C300 C299 1.333 . S
C300 N302 1.350 . S
C300 H326 0.931 . S
N301 Co297 2.148 . S
N301 C298 1.301 . S
N301 C299 1.317 . S
N302 C298 1.328 . S
N302 C300 1.350 . S
H303 C298 0.930 . S
H304 C299 0.930 . S
C305 O306 1.224 . S
C305 O324 1.247 . S
O306 C305 1.224 . S
N307 Co297 2.128 . S
N307 C308 1.355 . S
N307 C310 1.311 . S
C308 N307 1.355 . S
C308 C309 1.363 . S
C308 H320 0.929 . S
C309 C308 1.363 . S
C309 N311 1.375 . S
C309 H327 0.931 . S
C310 N307 1.311 . S
C310 N311 1.347 . S
C310 H321 0.929 . S
N311 C309 1.375 . S
N311 C310 1.347 . S
C312 C315 1.365 . S
C312 N317 1.328 . S
C312 H318 0.929 . S
C313 C314 1.362 . S
C313 C316 1.378 . S
C313 H328 0.929 . S
C314 C313 1.362 . S
C314 C315 1.366 . S
C315 C312 1.365 . S
C315 C314 1.366 . S
C315 H329 0.930 . S
C316 C313 1.378 . S
C316 N317 1.315 . S
C316 H319 0.930 . S
N317 Co297 2.194 . S
N317 C312 1.328 . S
N317 C316 1.315 . S
H318 C312 0.929 . S
H319 C316 0.930 . S
H320 C308 0.929 . S
H321 C310 0.929 . S
O322 Co297 2.351 . S
O322 C325 1.244 . S
O323 Co297 2.155 . S
O323 C325 1.240 . S
O324 Co297 2.096 . S
O324 C305 1.247 . S
C325 O322 1.244 . S
C325 O323 1.240 . S
H326 C300 0.931 . S
H327 C309 0.931 . S
H328 C313 0.929 . S
H329 C315 0.930 . S
Co330 N334 2.148 . S
Co330 N340 2.128 . S
Co330 N350 2.194 . S
Co330 O355 2.351 . S
Co330 O356 2.155 . S
Co330 O357 2.096 . S
C331 N334 1.301 . S
C331 N335 1.328 . S
C331 H336 0.930 . S
C332 C333 1.333 . S
C332 N334 1.317 . S
C332 H337 0.930 . S
C333 C332 1.333 . S
C333 N335 1.350 . S
C333 H359 0.931 . S
N334 Co330 2.148 . S
N334 C331 1.301 . S
N334 C332 1.317 . S
N335 C331 1.328 . S
N335 C333 1.350 . S
H336 C331 0.930 . S
H337 C332 0.930 . S
C338 O339 1.224 . S
C338 O357 1.247 . S
O339 C338 1.224 . S
N340 Co330 2.128 . S
N340 C341 1.355 . S
N340 C343 1.311 . S
C341 N340 1.355 . S
C341 C342 1.363 . S
C341 H353 0.929 . S
C342 C341 1.363 . S
C342 N344 1.375 . S
C342 H360 0.931 . S
C343 N340 1.311 . S
C343 N344 1.347 . S
C343 H354 0.929 . S
N344 C342 1.375 . S
N344 C343 1.347 . S
C345 C348 1.365 . S
C345 N350 1.328 . S
C345 H351 0.929 . S
C346 C347 1.362 . S
C346 C349 1.378 . S
C346 H361 0.929 . S
C347 C346 1.362 . S
C347 C348 1.366 . S
C348 C345 1.365 . S
C348 C347 1.366 . S
C348 H362 0.930 . S
C349 C346 1.378 . S
C349 N350 1.315 . S
C349 H352 0.930 . S
N350 Co330 2.194 . S
N350 C345 1.328 . S
N350 C349 1.315 . S
H351 C345 0.929 . S
H352 C349 0.930 . S
H353 C341 0.929 . S
H354 C343 0.929 . S
O355 Co330 2.351 . S
O355 C358 1.244 . S
O356 Co330 2.155 . S
O356 C358 1.240 . S
O357 Co330 2.096 . S
O357 C338 1.247 . S
C358 O355 1.244 . S
C358 O356 1.240 . S
H359 C333 0.931 . S
H360 C342 0.931 . S
H361 C346 0.929 . S
H362 C348 0.930 . S
Co363 N367 2.148 . S
Co363 N373 2.128 . S
Co363 N383 2.194 . S
Co363 O388 2.351 . S
Co363 O389 2.155 . S
Co363 O390 2.096 . S
C364 N367 1.301 . S
C364 N368 1.328 . S
C364 H369 0.930 . S
C365 C366 1.333 . S
C365 N367 1.317 . S
C365 H370 0.930 . S
C366 C365 1.333 . S
C366 N368 1.350 . S
C366 H392 0.931 . S
N367 Co363 2.148 . S
N367 C364 1.301 . S
N367 C365 1.317 . S
N368 C364 1.328 . S
N368 C366 1.350 . S
H369 C364 0.930 . S
H370 C365 0.930 . S
C371 O372 1.224 . S
C371 O390 1.247 . S
O372 C371 1.224 . S
N373 Co363 2.128 . S
N373 C374 1.355 . S
N373 C376 1.311 . S
C374 N373 1.355 . S
C374 C375 1.363 . S
C374 H386 0.929 . S
C375 C374 1.363 . S
C375 N377 1.375 . S
C375 H393 0.931 . S
C376 N373 1.311 . S
C376 N377 1.347 . S
C376 H387 0.929 . S
N377 C375 1.375 . S
N377 C376 1.347 . S
C378 C381 1.365 . S
C378 N383 1.328 . S
C378 H384 0.929 . S
C379 C380 1.362 . S
C379 C382 1.378 . S
C379 H394 0.929 . S
C380 C379 1.362 . S
C380 C381 1.366 . S
C381 C378 1.365 . S
C381 C380 1.366 . S
C381 H395 0.930 . S
C382 C379 1.378 . S
C382 N383 1.315 . S
C382 H385 0.930 . S
N383 Co363 2.194 . S
N383 C378 1.328 . S
N383 C382 1.315 . S
H384 C378 0.929 . S
H385 C382 0.930 . S
H386 C374 0.929 . S
H387 C376 0.929 . S
O388 Co363 2.351 . S
O388 C391 1.244 . S
O389 Co363 2.155 . S
O389 C391 1.240 . S
O390 Co363 2.096 . S
O390 C371 1.247 . S
C391 O388 1.244 . S
C391 O389 1.240 . S
H392 C366 0.931 . S
H393 C375 0.931 . S
H394 C379 0.929 . S
H395 C381 0.930 . S
Co396 N400 2.148 . S
Co396 N406 2.128 . S
Co396 N416 2.194 . S
Co396 O421 2.351 . S
Co396 O422 2.155 . S
Co396 O423 2.096 . S
C397 N400 1.301 . S
C397 N401 1.328 . S
C397 H402 0.930 . S
C398 C399 1.333 . S
C398 N400 1.317 . S
C398 H403 0.930 . S
C399 C398 1.333 . S
C399 N401 1.350 . S
C399 H425 0.931 . S
N400 Co396 2.148 . S
N400 C397 1.301 . S
N400 C398 1.317 . S
N401 C397 1.328 . S
N401 C399 1.350 . S
H402 C397 0.930 . S
H403 C398 0.930 . S
C404 O405 1.224 . S
C404 O423 1.247 . S
O405 C404 1.224 . S
N406 Co396 2.128 . S
N406 C407 1.355 . S
N406 C409 1.311 . S
C407 N406 1.355 . S
C407 C408 1.363 . S
C407 H419 0.929 . S
C408 C407 1.363 . S
C408 N410 1.375 . S
C408 H426 0.931 . S
C409 N406 1.311 . S
C409 N410 1.347 . S
C409 H420 0.929 . S
N410 C408 1.375 . S
N410 C409 1.347 . S
C411 C414 1.365 . S
C411 N416 1.328 . S
C411 H417 0.929 . S
C412 C413 1.362 . S
C412 C415 1.378 . S
C412 H427 0.929 . S
C413 C412 1.362 . S
C413 C414 1.366 . S
C414 C411 1.365 . S
C414 C413 1.366 . S
C414 H428 0.930 . S
C415 C412 1.378 . S
C415 N416 1.315 . S
C415 H418 0.930 . S
N416 Co396 2.194 . S
N416 C411 1.328 . S
N416 C415 1.315 . S
H417 C411 0.929 . S
H418 C415 0.930 . S
H419 C407 0.929 . S
H420 C409 0.929 . S
O421 Co396 2.351 . S
O421 C424 1.244 . S
O422 Co396 2.155 . S
O422 C424 1.240 . S
O423 Co396 2.096 . S
O423 C404 1.247 . S
C424 O421 1.244 . S
C424 O422 1.240 . S
H425 C399 0.931 . S
H426 C408 0.931 . S
H427 C412 0.929 . S
H428 C414 0.930 . S
Co429 N433 2.148 . S
Co429 N439 2.128 . S
Co429 N449 2.194 . S
Co429 O454 2.351 . S
Co429 O455 2.155 . S
Co429 O456 2.096 . S
C430 N433 1.301 . S
C430 N434 1.328 . S
C430 H435 0.930 . S
C431 C432 1.333 . S
C431 N433 1.317 . S
C431 H436 0.930 . S
C432 C431 1.333 . S
C432 N434 1.350 . S
C432 H458 0.931 . S
N433 Co429 2.148 . S
N433 C430 1.301 . S
N433 C431 1.317 . S
N434 C430 1.328 . S
N434 C432 1.350 . S
H435 C430 0.930 . S
H436 C431 0.930 . S
C437 O438 1.224 . S
C437 O456 1.247 . S
O438 C437 1.224 . S
N439 Co429 2.128 . S
N439 C440 1.355 . S
N439 C442 1.311 . S
C440 N439 1.355 . S
C440 C441 1.363 . S
C440 H452 0.929 . S
C441 C440 1.363 . S
C441 N443 1.375 . S
C441 H459 0.931 . S
C442 N439 1.311 . S
C442 N443 1.347 . S
C442 H453 0.929 . S
N443 C441 1.375 . S
N443 C442 1.347 . S
C444 C447 1.365 . S
C444 N449 1.328 . S
C444 H450 0.929 . S
C445 C446 1.362 . S
C445 C448 1.378 . S
C445 H460 0.929 . S
C446 C445 1.362 . S
C446 C447 1.366 . S
C447 C444 1.365 . S
C447 C446 1.366 . S
C447 H461 0.930 . S
C448 C445 1.378 . S
C448 N449 1.315 . S
C448 H451 0.930 . S
N449 Co429 2.194 . S
N449 C444 1.328 . S
N449 C448 1.315 . S
H450 C444 0.929 . S
H451 C448 0.930 . S
H452 C440 0.929 . S
H453 C442 0.929 . S
O454 Co429 2.351 . S
O454 C457 1.244 . S
O455 Co429 2.155 . S
O455 C457 1.240 . S
O456 Co429 2.096 . S
O456 C437 1.247 . S
C457 O454 1.244 . S
C457 O455 1.240 . S
H458 C432 0.931 . S
H459 C441 0.931 . S
H460 C445 0.929 . S
H461 C447 0.930 . S
Co462 N466 2.148 . S
Co462 N472 2.128 . S
Co462 N482 2.194 . S
Co462 O487 2.351 . S
Co462 O488 2.155 . S
Co462 O489 2.096 . S
C463 N466 1.301 . S
C463 N467 1.328 . S
C463 H468 0.930 . S
C464 C465 1.333 . S
C464 N466 1.317 . S
C464 H469 0.930 . S
C465 C464 1.333 . S
C465 N467 1.350 . S
C465 H491 0.931 . S
N466 Co462 2.148 . S
N466 C463 1.301 . S
N466 C464 1.317 . S
N467 C463 1.328 . S
N467 C465 1.350 . S
H468 C463 0.930 . S
H469 C464 0.930 . S
C470 O471 1.224 . S
C470 O489 1.247 . S
O471 C470 1.224 . S
N472 Co462 2.128 . S
N472 C473 1.355 . S
N472 C475 1.311 . S
C473 N472 1.355 . S
C473 C474 1.363 . S
C473 H485 0.929 . S
C474 C473 1.363 . S
C474 N476 1.375 . S
C474 H492 0.931 . S
C475 N472 1.311 . S
C475 N476 1.347 . S
C475 H486 0.929 . S
N476 C474 1.375 . S
N476 C475 1.347 . S
C477 C480 1.365 . S
C477 N482 1.328 . S
C477 H483 0.929 . S
C478 C479 1.362 . S
C478 C481 1.378 . S
C478 H493 0.929 . S
C479 C478 1.362 . S
C479 C480 1.366 . S
C480 C477 1.365 . S
C480 C479 1.366 . S
C480 H494 0.930 . S
C481 C478 1.378 . S
C481 N482 1.315 . S
C481 H484 0.930 . S
N482 Co462 2.194 . S
N482 C477 1.328 . S
N482 C481 1.315 . S
H483 C477 0.929 . S
H484 C481 0.930 . S
H485 C473 0.929 . S
H486 C475 0.929 . S
O487 Co462 2.351 . S
O487 C490 1.244 . S
O488 Co462 2.155 . S
O488 C490 1.240 . S
O489 Co462 2.096 . S
O489 C470 1.247 . S
C490 O487 1.244 . S
C490 O488 1.240 . S
H491 C465 0.931 . S
H492 C474 0.931 . S
H493 C478 0.929 . S
H494 C480 0.930 . S
Co495 N499 2.148 . S
Co495 N505 2.128 . S
Co495 N515 2.194 . S
Co495 O520 2.351 . S
Co495 O521 2.155 . S
Co495 O522 2.096 . S
C496 N499 1.301 . S
C496 N500 1.328 . S
C496 H501 0.930 . S
C497 C498 1.333 . S
C497 N499 1.317 . S
C497 H502 0.930 . S
C498 C497 1.333 . S
C498 N500 1.350 . S
C498 H524 0.931 . S
N499 Co495 2.148 . S
N499 C496 1.301 . S
N499 C497 1.317 . S
N500 C496 1.328 . S
N500 C498 1.350 . S
H501 C496 0.930 . S
H502 C497 0.930 . S
C503 O504 1.224 . S
C503 O522 1.247 . S
O504 C503 1.224 . S
N505 Co495 2.128 . S
N505 C506 1.355 . S
N505 C508 1.311 . S
C506 N505 1.355 . S
C506 C507 1.363 . S
C506 H518 0.929 . S
C507 C506 1.363 . S
C507 N509 1.375 . S
C507 H525 0.931 . S
C508 N505 1.311 . S
C508 N509 1.347 . S
C508 H519 0.929 . S
N509 C507 1.375 . S
N509 C508 1.347 . S
C510 C513 1.365 . S
C510 N515 1.328 . S
C510 H516 0.929 . S
C511 C512 1.362 . S
C511 C514 1.378 . S
C511 H526 0.929 . S
C512 C511 1.362 . S
C512 C513 1.366 . S
C513 C510 1.365 . S
C513 C512 1.366 . S
C513 H527 0.930 . S
C514 C511 1.378 . S
C514 N515 1.315 . S
C514 H517 0.930 . S
N515 Co495 2.194 . S
N515 C510 1.328 . S
N515 C514 1.315 . S
H516 C510 0.929 . S
H517 C514 0.930 . S
H518 C506 0.929 . S
H519 C508 0.929 . S
O520 Co495 2.351 . S
O520 C523 1.244 . S
O521 Co495 2.155 . S
O521 C523 1.240 . S
O522 Co495 2.096 . S
O522 C503 1.247 . S
C523 O520 1.244 . S
C523 O521 1.240 . S
H524 C498 0.931 . S
H525 C507 0.931 . S
H526 C511 0.929 . S
H527 C513 0.930 . S
Co528 N532 2.148 . S
Co528 N538 2.128 . S
Co528 N548 2.194 . S
Co528 O553 2.351 . S
Co528 O554 2.155 . S
Co528 O555 2.096 . S
C529 N532 1.301 . S
C529 N533 1.328 . S
C529 H534 0.930 . S
C530 C531 1.333 . S
C530 N532 1.317 . S
C530 H535 0.930 . S
C531 C530 1.333 . S
C531 N533 1.350 . S
C531 H557 0.931 . S
N532 Co528 2.148 . S
N532 C529 1.301 . S
N532 C530 1.317 . S
N533 C529 1.328 . S
N533 C531 1.350 . S
H534 C529 0.930 . S
H535 C530 0.930 . S
C536 O537 1.224 . S
C536 O555 1.247 . S
O537 C536 1.224 . S
N538 Co528 2.128 . S
N538 C539 1.355 . S
N538 C541 1.311 . S
C539 N538 1.355 . S
C539 C540 1.363 . S
C539 H551 0.929 . S
C540 C539 1.363 . S
C540 N542 1.375 . S
C540 H558 0.931 . S
C541 N538 1.311 . S
C541 N542 1.347 . S
C541 H552 0.929 . S
N542 C540 1.375 . S
N542 C541 1.347 . S
C543 C546 1.365 . S
C543 N548 1.328 . S
C543 H549 0.929 . S
C544 C545 1.362 . S
C544 C547 1.378 . S
C544 H559 0.929 . S
C545 C544 1.362 . S
C545 C546 1.366 . S
C546 C543 1.365 . S
C546 C545 1.366 . S
C546 H560 0.930 . S
C547 C544 1.378 . S
C547 N548 1.315 . S
C547 H550 0.930 . S
N548 Co528 2.194 . S
N548 C543 1.328 . S
N548 C547 1.315 . S
H549 C543 0.929 . S
H550 C547 0.930 . S
H551 C539 0.929 . S
H552 C541 0.929 . S
O553 Co528 2.351 . S
O553 C556 1.244 . S
O554 Co528 2.155 . S
O554 C556 1.240 . S
O555 Co528 2.096 . S
O555 C536 1.247 . S
C556 O553 1.244 . S
C556 O554 1.240 . S
H557 C531 0.931 . S
H558 C540 0.931 . S
H559 C544 0.929 . S
H560 C546 0.930 . S
Co561 N565 2.148 . S
Co561 N571 2.128 . S
Co561 N581 2.194 . S
Co561 O586 2.351 . S
Co561 O587 2.155 . S
Co561 O588 2.096 . S
C562 N565 1.301 . S
C562 N566 1.328 . S
C562 H567 0.930 . S
C563 C564 1.333 . S
C563 N565 1.317 . S
C563 H568 0.930 . S
C564 C563 1.333 . S
C564 N566 1.350 . S
C564 H590 0.931 . S
N565 Co561 2.148 . S
N565 C562 1.301 . S
N565 C563 1.317 . S
N566 C562 1.328 . S
N566 C564 1.350 . S
H567 C562 0.930 . S
H568 C563 0.930 . S
C569 O570 1.224 . S
C569 O588 1.247 . S
O570 C569 1.224 . S
N571 Co561 2.128 . S
N571 C572 1.355 . S
N571 C574 1.311 . S
C572 N571 1.355 . S
C572 C573 1.363 . S
C572 H584 0.929 . S
C573 C572 1.363 . S
C573 N575 1.375 . S
C573 H591 0.931 . S
C574 N571 1.311 . S
C574 N575 1.347 . S
C574 H585 0.929 . S
N575 C573 1.375 . S
N575 C574 1.347 . S
C576 C579 1.365 . S
C576 N581 1.328 . S
C576 H582 0.929 . S
C577 C578 1.362 . S
C577 C580 1.378 . S
C577 H592 0.929 . S
C578 C577 1.362 . S
C578 C579 1.366 . S
C579 C576 1.365 . S
C579 C578 1.366 . S
C579 H593 0.930 . S
C580 C577 1.378 . S
C580 N581 1.315 . S
C580 H583 0.930 . S
N581 Co561 2.194 . S
N581 C576 1.328 . S
N581 C580 1.315 . S
H582 C576 0.929 . S
H583 C580 0.930 . S
H584 C572 0.929 . S
H585 C574 0.929 . S
O586 Co561 2.351 . S
O586 C589 1.244 . S
O587 Co561 2.155 . S
O587 C589 1.240 . S
O588 Co561 2.096 . S
O588 C569 1.247 . S
C589 O586 1.244 . S
C589 O587 1.240 . S
H590 C564 0.931 . S
H591 C573 0.931 . S
H592 C577 0.929 . S
H593 C579 0.930 . S
Co594 N598 2.148 . S
Co594 N604 2.128 . S
Co594 N614 2.194 . S
Co594 O619 2.351 . S
Co594 O620 2.155 . S
Co594 O621 2.096 . S
C595 N598 1.301 . S
C595 N599 1.328 . S
C595 H600 0.930 . S
C596 C597 1.333 . S
C596 N598 1.317 . S
C596 H601 0.930 . S
C597 C596 1.333 . S
C597 N599 1.350 . S
C597 H623 0.931 . S
N598 Co594 2.148 . S
N598 C595 1.301 . S
N598 C596 1.317 . S
N599 C595 1.328 . S
N599 C597 1.350 . S
H600 C595 0.930 . S
H601 C596 0.930 . S
C602 O603 1.224 . S
C602 O621 1.247 . S
O603 C602 1.224 . S
N604 Co594 2.128 . S
N604 C605 1.355 . S
N604 C607 1.311 . S
C605 N604 1.355 . S
C605 C606 1.363 . S
C605 H617 0.929 . S
C606 C605 1.363 . S
C606 N608 1.375 . S
C606 H624 0.931 . S
C607 N604 1.311 . S
C607 N608 1.347 . S
C607 H618 0.929 . S
N608 C606 1.375 . S
N608 C607 1.347 . S
C609 C612 1.365 . S
C609 N614 1.328 . S
C609 H615 0.929 . S
C610 C611 1.362 . S
C610 C613 1.378 . S
C610 H625 0.929 . S
C611 C610 1.362 . S
C611 C612 1.366 . S
C612 C609 1.365 . S
C612 C611 1.366 . S
C612 H626 0.930 . S
C613 C610 1.378 . S
C613 N614 1.315 . S
C613 H616 0.930 . S
N614 Co594 2.194 . S
N614 C609 1.328 . S
N614 C613 1.315 . S
H615 C609 0.929 . S
H616 C613 0.930 . S
H617 C605 0.929 . S
H618 C607 0.929 . S
O619 Co594 2.351 . S
O619 C622 1.244 . S
O620 Co594 2.155 . S
O620 C622 1.240 . S
O621 Co594 2.096 . S
O621 C602 1.247 . S
C622 O619 1.244 . S
C622 O620 1.240 . S
H623 C597 0.931 . S
H624 C606 0.931 . S
H625 C610 0.929 . S
H626 C612 0.930 . S
Co627 N631 2.148 . S
Co627 N637 2.128 . S
Co627 N647 2.194 . S
Co627 O652 2.351 . S
Co627 O653 2.155 . S
Co627 O654 2.096 . S
C628 N631 1.301 . S
C628 N632 1.328 . S
C628 H633 0.930 . S
C629 C630 1.333 . S
C629 N631 1.317 . S
C629 H634 0.930 . S
C630 C629 1.333 . S
C630 N632 1.350 . S
C630 H656 0.931 . S
N631 Co627 2.148 . S
N631 C628 1.301 . S
N631 C629 1.317 . S
N632 C628 1.328 . S
N632 C630 1.350 . S
H633 C628 0.930 . S
H634 C629 0.930 . S
C635 O636 1.224 . S
C635 O654 1.247 . S
O636 C635 1.224 . S
N637 Co627 2.128 . S
N637 C638 1.355 . S
N637 C640 1.311 . S
C638 N637 1.355 . S
C638 C639 1.363 . S
C638 H650 0.929 . S
C639 C638 1.363 . S
C639 N641 1.375 . S
C639 H657 0.931 . S
C640 N637 1.311 . S
C640 N641 1.347 . S
C640 H651 0.929 . S
N641 C639 1.375 . S
N641 C640 1.347 . S
C642 C645 1.365 . S
C642 N647 1.328 . S
C642 H648 0.929 . S
C643 C644 1.362 . S
C643 C646 1.378 . S
C643 H658 0.929 . S
C644 C643 1.362 . S
C644 C645 1.366 . S
C645 C642 1.365 . S
C645 C644 1.366 . S
C645 H659 0.930 . S
C646 C643 1.378 . S
C646 N647 1.315 . S
C646 H649 0.930 . S
N647 Co627 2.194 . S
N647 C642 1.328 . S
N647 C646 1.315 . S
H648 C642 0.929 . S
H649 C646 0.930 . S
H650 C638 0.929 . S
H651 C640 0.929 . S
O652 Co627 2.351 . S
O652 C655 1.244 . S
O653 Co627 2.155 . S
O653 C655 1.240 . S
O654 Co627 2.096 . S
O654 C635 1.247 . S
C655 O652 1.244 . S
C655 O653 1.240 . S
H656 C630 0.931 . S
H657 C639 0.931 . S
H658 C643 0.929 . S
H659 C645 0.930 . S
Co660 N664 2.148 . S
Co660 N670 2.128 . S
Co660 N680 2.194 . S
Co660 O685 2.351 . S
Co660 O686 2.155 . S
Co660 O687 2.096 . S
C661 N664 1.301 . S
C661 N665 1.328 . S
C661 H666 0.930 . S
C662 C663 1.333 . S
C662 N664 1.317 . S
C662 H667 0.930 . S
C663 C662 1.333 . S
C663 N665 1.350 . S
C663 H689 0.931 . S
N664 Co660 2.148 . S
N664 C661 1.301 . S
N664 C662 1.317 . S
N665 C661 1.328 . S
N665 C663 1.350 . S
H666 C661 0.930 . S
H667 C662 0.930 . S
C668 O669 1.224 . S
C668 O687 1.247 . S
O669 C668 1.224 . S
N670 Co660 2.128 . S
N670 C671 1.355 . S
N670 C673 1.311 . S
C671 N670 1.355 . S
C671 C672 1.363 . S
C671 H683 0.929 . S
C672 C671 1.363 . S
C672 N674 1.375 . S
C672 H690 0.931 . S
C673 N670 1.311 . S
C673 N674 1.347 . S
C673 H684 0.929 . S
N674 C672 1.375 . S
N674 C673 1.347 . S
C675 C678 1.365 . S
C675 N680 1.328 . S
C675 H681 0.929 . S
C676 C677 1.362 . S
C676 C679 1.378 . S
C676 H691 0.929 . S
C677 C676 1.362 . S
C677 C678 1.366 . S
C678 C675 1.365 . S
C678 C677 1.366 . S
C678 H692 0.930 . S
C679 C676 1.378 . S
C679 N680 1.315 . S
C679 H682 0.930 . S
N680 Co660 2.194 . S
N680 C675 1.328 . S
N680 C679 1.315 . S
H681 C675 0.929 . S
H682 C679 0.930 . S
H683 C671 0.929 . S
H684 C673 0.929 . S
O685 Co660 2.351 . S
O685 C688 1.244 . S
O686 Co660 2.155 . S
O686 C688 1.240 . S
O687 Co660 2.096 . S
O687 C668 1.247 . S
C688 O685 1.244 . S
C688 O686 1.240 . S
H689 C663 0.931 . S
H690 C672 0.931 . S
H691 C676 0.929 . S
H692 C678 0.930 . S
Co693 N697 2.148 . S
Co693 N703 2.128 . S
Co693 N713 2.194 . S
Co693 O718 2.351 . S
Co693 O719 2.155 . S
Co693 O720 2.096 . S
C694 N697 1.301 . S
C694 N698 1.328 . S
C694 H699 0.930 . S
C695 C696 1.333 . S
C695 N697 1.317 . S
C695 H700 0.930 . S
C696 C695 1.333 . S
C696 N698 1.350 . S
C696 H722 0.931 . S
N697 Co693 2.148 . S
N697 C694 1.301 . S
N697 C695 1.317 . S
N698 C694 1.328 . S
N698 C696 1.350 . S
H699 C694 0.930 . S
H700 C695 0.930 . S
C701 O702 1.224 . S
C701 O720 1.247 . S
O702 C701 1.224 . S
N703 Co693 2.128 . S
N703 C704 1.355 . S
N703 C706 1.311 . S
C704 N703 1.355 . S
C704 C705 1.363 . S
C704 H716 0.929 . S
C705 C704 1.363 . S
C705 N707 1.375 . S
C705 H723 0.931 . S
C706 N703 1.311 . S
C706 N707 1.347 . S
C706 H717 0.929 . S
N707 C705 1.375 . S
N707 C706 1.347 . S
C708 C711 1.365 . S
C708 N713 1.328 . S
C708 H714 0.929 . S
C709 C710 1.362 . S
C709 C712 1.378 . S
C709 H724 0.929 . S
C710 C709 1.362 . S
C710 C711 1.366 . S
C711 C708 1.365 . S
C711 C710 1.366 . S
C711 H725 0.930 . S
C712 C709 1.378 . S
C712 N713 1.315 . S
C712 H715 0.930 . S
N713 Co693 2.194 . S
N713 C708 1.328 . S
N713 C712 1.315 . S
H714 C708 0.929 . S
H715 C712 0.930 . S
H716 C704 0.929 . S
H717 C706 0.929 . S
O718 Co693 2.351 . S
O718 C721 1.244 . S
O719 Co693 2.155 . S
O719 C721 1.240 . S
O720 Co693 2.096 . S
O720 C701 1.247 . S
C721 O718 1.244 . S
C721 O719 1.240 . S
H722 C696 0.931 . S
H723 C705 0.931 . S
H724 C709 0.929 . S
H725 C711 0.930 . S
Co726 N730 2.148 . S
Co726 N736 2.128 . S
Co726 N746 2.194 . S
Co726 O751 2.351 . S
Co726 O752 2.155 . S
Co726 O753 2.096 . S
C727 N730 1.301 . S
C727 N731 1.328 . S
C727 H732 0.930 . S
C728 C729 1.333 . S
C728 N730 1.317 . S
C728 H733 0.930 . S
C729 C728 1.333 . S
C729 N731 1.350 . S
C729 H755 0.931 . S
N730 Co726 2.148 . S
N730 C727 1.301 . S
N730 C728 1.317 . S
N731 C727 1.328 . S
N731 C729 1.350 . S
H732 C727 0.930 . S
H733 C728 0.930 . S
C734 O735 1.224 . S
C734 O753 1.247 . S
O735 C734 1.224 . S
N736 Co726 2.128 . S
N736 C737 1.355 . S
N736 C739 1.311 . S
C737 N736 1.355 . S
C737 C738 1.363 . S
C737 H749 0.929 . S
C738 C737 1.363 . S
C738 N740 1.375 . S
C738 H756 0.931 . S
C739 N736 1.311 . S
C739 N740 1.347 . S
C739 H750 0.929 . S
N740 C738 1.375 . S
N740 C739 1.347 . S
C741 C744 1.365 . S
C741 N746 1.328 . S
C741 H747 0.929 . S
C742 C743 1.362 . S
C742 C745 1.378 . S
C742 H757 0.929 . S
C743 C742 1.362 . S
C743 C744 1.366 . S
C744 C741 1.365 . S
C744 C743 1.366 . S
C744 H758 0.930 . S
C745 C742 1.378 . S
C745 N746 1.315 . S
C745 H748 0.930 . S
N746 Co726 2.194 . S
N746 C741 1.328 . S
N746 C745 1.315 . S
H747 C741 0.929 . S
H748 C745 0.930 . S
H749 C737 0.929 . S
H750 C739 0.929 . S
O751 Co726 2.351 . S
O751 C754 1.244 . S
O752 Co726 2.155 . S
O752 C754 1.240 . S
O753 Co726 2.096 . S
O753 C734 1.247 . S
C754 O751 1.244 . S
C754 O752 1.240 . S
H755 C729 0.931 . S
H756 C738 0.931 . S
H757 C742 0.929 . S
H758 C744 0.930 . S
Co759 N763 2.148 . S
Co759 N769 2.128 . S
Co759 N779 2.194 . S
Co759 O784 2.351 . S
Co759 O785 2.155 . S
Co759 O786 2.096 . S
C760 N763 1.301 . S
C760 N764 1.328 . S
C760 H765 0.930 . S
C761 C762 1.333 . S
C761 N763 1.317 . S
C761 H766 0.930 . S
C762 C761 1.333 . S
C762 N764 1.350 . S
C762 H788 0.931 . S
N763 Co759 2.148 . S
N763 C760 1.301 . S
N763 C761 1.317 . S
N764 C760 1.328 . S
N764 C762 1.350 . S
H765 C760 0.930 . S
H766 C761 0.930 . S
C767 O768 1.224 . S
C767 O786 1.247 . S
O768 C767 1.224 . S
N769 Co759 2.128 . S
N769 C770 1.355 . S
N769 C772 1.311 . S
C770 N769 1.355 . S
C770 C771 1.363 . S
C770 H782 0.929 . S
C771 C770 1.363 . S
C771 N773 1.375 . S
C771 H789 0.931 . S
C772 N769 1.311 . S
C772 N773 1.347 . S
C772 H783 0.929 . S
N773 C771 1.375 . S
N773 C772 1.347 . S
C774 C777 1.365 . S
C774 N779 1.328 . S
C774 H780 0.929 . S
C775 C776 1.362 . S
C775 C778 1.378 . S
C775 H790 0.929 . S
C776 C775 1.362 . S
C776 C777 1.366 . S
C777 C774 1.365 . S
C777 C776 1.366 . S
C777 H791 0.930 . S
C778 C775 1.378 . S
C778 N779 1.315 . S
C778 H781 0.930 . S
N779 Co759 2.194 . S
N779 C774 1.328 . S
N779 C778 1.315 . S
H780 C774 0.929 . S
H781 C778 0.930 . S
H782 C770 0.929 . S
H783 C772 0.929 . S
O784 Co759 2.351 . S
O784 C787 1.244 . S
O785 Co759 2.155 . S
O785 C787 1.240 . S
O786 Co759 2.096 . S
O786 C767 1.247 . S
C787 O784 1.244 . S
C787 O785 1.240 . S
H788 C762 0.931 . S
H789 C771 0.931 . S
H790 C775 0.929 . S
H791 C777 0.930 . S
Co792 N796 2.148 . S
Co792 N802 2.128 . S
Co792 N812 2.194 . S
Co792 O817 2.351 . S
Co792 O818 2.155 . S
Co792 O819 2.096 . S
C793 N796 1.301 . S
C793 N797 1.328 . S
C793 H798 0.930 . S
C794 C795 1.333 . S
C794 N796 1.317 . S
C794 H799 0.930 . S
C795 C794 1.333 . S
C795 N797 1.350 . S
C795 H821 0.931 . S
N796 Co792 2.148 . S
N796 C793 1.301 . S
N796 C794 1.317 . S
N797 C793 1.328 . S
N797 C795 1.350 . S
H798 C793 0.930 . S
H799 C794 0.930 . S
C800 O801 1.224 . S
C800 O819 1.247 . S
O801 C800 1.224 . S
N802 Co792 2.128 . S
N802 C803 1.355 . S
N802 C805 1.311 . S
C803 N802 1.355 . S
C803 C804 1.363 . S
C803 H815 0.929 . S
C804 C803 1.363 . S
C804 N806 1.375 . S
C804 H822 0.931 . S
C805 N802 1.311 . S
C805 N806 1.347 . S
C805 H816 0.929 . S
N806 C804 1.375 . S
N806 C805 1.347 . S
C807 C810 1.365 . S
C807 N812 1.328 . S
C807 H813 0.929 . S
C808 C809 1.362 . S
C808 C811 1.378 . S
C808 H823 0.929 . S
C809 C808 1.362 . S
C809 C810 1.366 . S
C810 C807 1.365 . S
C810 C809 1.366 . S
C810 H824 0.930 . S
C811 C808 1.378 . S
C811 N812 1.315 . S
C811 H814 0.930 . S
N812 Co792 2.194 . S
N812 C807 1.328 . S
N812 C811 1.315 . S
H813 C807 0.929 . S
H814 C811 0.930 . S
H815 C803 0.929 . S
H816 C805 0.929 . S
O817 Co792 2.351 . S
O817 C820 1.244 . S
O818 Co792 2.155 . S
O818 C820 1.240 . S
O819 Co792 2.096 . S
O819 C800 1.247 . S
C820 O817 1.244 . S
C820 O818 1.240 . S
H821 C795 0.931 . S
H822 C804 0.931 . S
H823 C808 0.929 . S
H824 C810 0.930 . S
Co825 N829 2.148 . S
Co825 N835 2.128 . S
Co825 N845 2.194 . S
Co825 O850 2.351 . S
Co825 O851 2.155 . S
Co825 O852 2.096 . S
C826 N829 1.301 . S
C826 N830 1.328 . S
C826 H831 0.930 . S
C827 C828 1.333 . S
C827 N829 1.317 . S
C827 H832 0.930 . S
C828 C827 1.333 . S
C828 N830 1.350 . S
C828 H854 0.931 . S
N829 Co825 2.148 . S
N829 C826 1.301 . S
N829 C827 1.317 . S
N830 C826 1.328 . S
N830 C828 1.350 . S
H831 C826 0.930 . S
H832 C827 0.930 . S
C833 O834 1.224 . S
C833 O852 1.247 . S
O834 C833 1.224 . S
N835 Co825 2.128 . S
N835 C836 1.355 . S
N835 C838 1.311 . S
C836 N835 1.355 . S
C836 C837 1.363 . S
C836 H848 0.929 . S
C837 C836 1.363 . S
C837 N839 1.375 . S
C837 H855 0.931 . S
C838 N835 1.311 . S
C838 N839 1.347 . S
C838 H849 0.929 . S
N839 C837 1.375 . S
N839 C838 1.347 . S
C840 C843 1.365 . S
C840 N845 1.328 . S
C840 H846 0.929 . S
C841 C842 1.362 . S
C841 C844 1.378 . S
C841 H856 0.929 . S
C842 C841 1.362 . S
C842 C843 1.366 . S
C843 C840 1.365 . S
C843 C842 1.366 . S
C843 H857 0.930 . S
C844 C841 1.378 . S
C844 N845 1.315 . S
C844 H847 0.930 . S
N845 Co825 2.194 . S
N845 C840 1.328 . S
N845 C844 1.315 . S
H846 C840 0.929 . S
H847 C844 0.930 . S
H848 C836 0.929 . S
H849 C838 0.929 . S
O850 Co825 2.351 . S
O850 C853 1.244 . S
O851 Co825 2.155 . S
O851 C853 1.240 . S
O852 Co825 2.096 . S
O852 C833 1.247 . S
C853 O850 1.244 . S
C853 O851 1.240 . S
H854 C828 0.931 . S
H855 C837 0.931 . S
H856 C841 0.929 . S
H857 C843 0.930 . S
Co858 N862 2.148 . S
Co858 N868 2.128 . S
Co858 N878 2.194 . S
Co858 O883 2.351 . S
Co858 O884 2.155 . S
Co858 O885 2.096 . S
C859 N862 1.301 . S
C859 N863 1.328 . S
C859 H864 0.930 . S
C860 C861 1.333 . S
C860 N862 1.317 . S
C860 H865 0.930 . S
C861 C860 1.333 . S
C861 N863 1.350 . S
C861 H887 0.931 . S
N862 Co858 2.148 . S
N862 C859 1.301 . S
N862 C860 1.317 . S
N863 C859 1.328 . S
N863 C861 1.350 . S
H864 C859 0.930 . S
H865 C860 0.930 . S
C866 O867 1.224 . S
C866 O885 1.247 . S
O867 C866 1.224 . S
N868 Co858 2.128 . S
N868 C869 1.355 . S
N868 C871 1.311 . S
C869 N868 1.355 . S
C869 C870 1.363 . S
C869 H881 0.929 . S
C870 C869 1.363 . S
C870 N872 1.375 . S
C870 H888 0.931 . S
C871 N868 1.311 . S
C871 N872 1.347 . S
C871 H882 0.929 . S
N872 C870 1.375 . S
N872 C871 1.347 . S
C873 C876 1.365 . S
C873 N878 1.328 . S
C873 H879 0.929 . S
C874 C875 1.362 . S
C874 C877 1.378 . S
C874 H889 0.929 . S
C875 C874 1.362 . S
C875 C876 1.366 . S
C876 C873 1.365 . S
C876 C875 1.366 . S
C876 H890 0.930 . S
C877 C874 1.378 . S
C877 N878 1.315 . S
C877 H880 0.930 . S
N878 Co858 2.194 . S
N878 C873 1.328 . S
N878 C877 1.315 . S
H879 C873 0.929 . S
H880 C877 0.930 . S
H881 C869 0.929 . S
H882 C871 0.929 . S
O883 Co858 2.351 . S
O883 C886 1.244 . S
O884 Co858 2.155 . S
O884 C886 1.240 . S
O885 Co858 2.096 . S
O885 C866 1.247 . S
C886 O883 1.244 . S
C886 O884 1.240 . S
H887 C861 0.931 . S
H888 C870 0.931 . S
H889 C874 0.929 . S
H890 C876 0.930 . S
Co891 N895 2.148 . S
Co891 N901 2.128 . S
Co891 N911 2.194 . S
Co891 O916 2.351 . S
Co891 O917 2.155 . S
Co891 O918 2.096 . S
C892 N895 1.301 . S
C892 N896 1.328 . S
C892 H897 0.930 . S
C893 C894 1.333 . S
C893 N895 1.317 . S
C893 H898 0.930 . S
C894 C893 1.333 . S
C894 N896 1.350 . S
C894 H920 0.931 . S
N895 Co891 2.148 . S
N895 C892 1.301 . S
N895 C893 1.317 . S
N896 C892 1.328 . S
N896 C894 1.350 . S
H897 C892 0.930 . S
H898 C893 0.930 . S
C899 O900 1.224 . S
C899 O918 1.247 . S
O900 C899 1.224 . S
N901 Co891 2.128 . S
N901 C902 1.355 . S
N901 C904 1.311 . S
C902 N901 1.355 . S
C902 C903 1.363 . S
C902 H914 0.929 . S
C903 C902 1.363 . S
C903 N905 1.375 . S
C903 H921 0.931 . S
C904 N901 1.311 . S
C904 N905 1.347 . S
C904 H915 0.929 . S
N905 C903 1.375 . S
N905 C904 1.347 . S
C906 C909 1.365 . S
C906 N911 1.328 . S
C906 H912 0.929 . S
C907 C908 1.362 . S
C907 C910 1.378 . S
C907 H922 0.929 . S
C908 C907 1.362 . S
C908 C909 1.366 . S
C909 C906 1.365 . S
C909 C908 1.366 . S
C909 H923 0.930 . S
C910 C907 1.378 . S
C910 N911 1.315 . S
C910 H913 0.930 . S
N911 Co891 2.194 . S
N911 C906 1.328 . S
N911 C910 1.315 . S
H912 C906 0.929 . S
H913 C910 0.930 . S
H914 C902 0.929 . S
H915 C904 0.929 . S
O916 Co891 2.351 . S
O916 C919 1.244 . S
O917 Co891 2.155 . S
O917 C919 1.240 . S
O918 Co891 2.096 . S
O918 C899 1.247 . S
C919 O916 1.244 . S
C919 O917 1.240 . S
H920 C894 0.931 . S
H921 C903 0.931 . S
H922 C907 0.929 . S
H923 C909 0.930 . S
Co924 N928 2.148 . S
Co924 N934 2.128 . S
Co924 N944 2.194 . S
Co924 O949 2.351 . S
Co924 O950 2.155 . S
Co924 O951 2.096 . S
C925 N928 1.301 . S
C925 N929 1.328 . S
C925 H930 0.930 . S
C926 C927 1.333 . S
C926 N928 1.317 . S
C926 H931 0.930 . S
C927 C926 1.333 . S
C927 N929 1.350 . S
C927 H953 0.931 . S
N928 Co924 2.148 . S
N928 C925 1.301 . S
N928 C926 1.317 . S
N929 C925 1.328 . S
N929 C927 1.350 . S
H930 C925 0.930 . S
H931 C926 0.930 . S
C932 O933 1.224 . S
C932 O951 1.247 . S
O933 C932 1.224 . S
N934 Co924 2.128 . S
N934 C935 1.355 . S
N934 C937 1.311 . S
C935 N934 1.355 . S
C935 C936 1.363 . S
C935 H947 0.929 . S
C936 C935 1.363 . S
C936 N938 1.375 . S
C936 H954 0.931 . S
C937 N934 1.311 . S
C937 N938 1.347 . S
C937 H948 0.929 . S
N938 C936 1.375 . S
N938 C937 1.347 . S
C939 C942 1.365 . S
C939 N944 1.328 . S
C939 H945 0.929 . S
C940 C941 1.362 . S
C940 C943 1.378 . S
C940 H955 0.929 . S
C941 C940 1.362 . S
C941 C942 1.366 . S
C942 C939 1.365 . S
C942 C941 1.366 . S
C942 H956 0.930 . S
C943 C940 1.378 . S
C943 N944 1.315 . S
C943 H946 0.930 . S
N944 Co924 2.194 . S
N944 C939 1.328 . S
N944 C943 1.315 . S
H945 C939 0.929 . S
H946 C943 0.930 . S
H947 C935 0.929 . S
H948 C937 0.929 . S
O949 Co924 2.351 . S
O949 C952 1.244 . S
O950 Co924 2.155 . S
O950 C952 1.240 . S
O951 Co924 2.096 . S
O951 C932 1.247 . S
C952 O949 1.244 . S
C952 O950 1.240 . S
H953 C927 0.931 . S
H954 C936 0.931 . S
H955 C940 0.929 . S
H956 C942 0.930 . S
Co957 N961 2.148 . S
Co957 N967 2.128 . S
Co957 N977 2.194 . S
Co957 O982 2.351 . S
Co957 O983 2.155 . S
Co957 O984 2.096 . S
C958 N961 1.301 . S
C958 N962 1.328 . S
C958 H963 0.930 . S
C959 C960 1.333 . S
C959 N961 1.317 . S
C959 H964 0.930 . S
C960 C959 1.333 . S
C960 N962 1.350 . S
C960 H986 0.931 . S
N961 Co957 2.148 . S
N961 C958 1.301 . S
N961 C959 1.317 . S
N962 C958 1.328 . S
N962 C960 1.350 . S
H963 C958 0.930 . S
H964 C959 0.930 . S
C965 O966 1.224 . S
C965 O984 1.247 . S
O966 C965 1.224 . S
N967 Co957 2.128 . S
N967 C968 1.355 . S
N967 C970 1.311 . S
C968 N967 1.355 . S
C968 C969 1.363 . S
C968 H980 0.929 . S
C969 C968 1.363 . S
C969 N971 1.375 . S
C969 H987 0.931 . S
C970 N967 1.311 . S
C970 N971 1.347 . S
C970 H981 0.929 . S
N971 C969 1.375 . S
N971 C970 1.347 . S
C972 C975 1.365 . S
C972 N977 1.328 . S
C972 H978 0.929 . S
C973 C974 1.362 . S
C973 C976 1.378 . S
C973 H988 0.929 . S
C974 C973 1.362 . S
C974 C975 1.366 . S
C975 C972 1.365 . S
C975 C974 1.366 . S
C975 H989 0.930 . S
C976 C973 1.378 . S
C976 N977 1.315 . S
C976 H979 0.930 . S
N977 Co957 2.194 . S
N977 C972 1.328 . S
N977 C976 1.315 . S
H978 C972 0.929 . S
H979 C976 0.930 . S
H980 C968 0.929 . S
H981 C970 0.929 . S
O982 Co957 2.351 . S
O982 C985 1.244 . S
O983 Co957 2.155 . S
O983 C985 1.240 . S
O984 Co957 2.096 . S
O984 C965 1.247 . S
C985 O982 1.244 . S
C985 O983 1.240 . S
H986 C960 0.931 . S
H987 C969 0.931 . S
H988 C973 0.929 . S
H989 C975 0.930 . S
Co990 N994 2.148 . S
Co990 N1000 2.128 . S
Co990 N1010 2.194 . S
Co990 O1015 2.351 . S
Co990 O1016 2.155 . S
Co990 O1017 2.096 . S
C991 N994 1.301 . S
C991 N995 1.328 . S
C991 H996 0.930 . S
C992 C993 1.333 . S
C992 N994 1.317 . S
C992 H997 0.930 . S
C993 C992 1.333 . S
C993 N995 1.350 . S
C993 H1019 0.931 . S
N994 Co990 2.148 . S
N994 C991 1.301 . S
N994 C992 1.317 . S
N995 C991 1.328 . S
N995 C993 1.350 . S
H996 C991 0.930 . S
H997 C992 0.930 . S
C998 O999 1.224 . S
C998 O1017 1.247 . S
O999 C998 1.224 . S
N1000 Co990 2.128 . S
N1000 C1001 1.355 . S
N1000 C1003 1.311 . S
C1001 N1000 1.355 . S
C1001 C1002 1.363 . S
C1001 H1013 0.929 . S
C1002 C1001 1.363 . S
C1002 N1004 1.375 . S
C1002 H1020 0.931 . S
C1003 N1000 1.311 . S
C1003 N1004 1.347 . S
C1003 H1014 0.929 . S
N1004 C1002 1.375 . S
N1004 C1003 1.347 . S
C1005 C1008 1.365 . S
C1005 N1010 1.328 . S
C1005 H1011 0.929 . S
C1006 C1007 1.362 . S
C1006 C1009 1.378 . S
C1006 H1021 0.929 . S
C1007 C1006 1.362 . S
C1007 C1008 1.366 . S
C1008 C1005 1.365 . S
C1008 C1007 1.366 . S
C1008 H1022 0.930 . S
C1009 C1006 1.378 . S
C1009 N1010 1.315 . S
C1009 H1012 0.930 . S
N1010 Co990 2.194 . S
N1010 C1005 1.328 . S
N1010 C1009 1.315 . S
H1011 C1005 0.929 . S
H1012 C1009 0.930 . S
H1013 C1001 0.929 . S
H1014 C1003 0.929 . S
O1015 Co990 2.351 . S
O1015 C1018 1.244 . S
O1016 Co990 2.155 . S
O1016 C1018 1.240 . S
O1017 Co990 2.096 . S
O1017 C998 1.247 . S
C1018 O1015 1.244 . S
C1018 O1016 1.240 . S
H1019 C993 0.931 . S
H1020 C1002 0.931 . S
H1021 C1006 0.929 . S
H1022 C1008 0.930 . S
Co1023 N1027 2.148 . S
Co1023 N1033 2.128 . S
Co1023 N1043 2.194 . S
Co1023 O1048 2.351 . S
Co1023 O1049 2.155 . S
Co1023 O1050 2.096 . S
C1024 N1027 1.301 . S
C1024 N1028 1.328 . S
C1024 H1029 0.930 . S
C1025 C1026 1.333 . S
C1025 N1027 1.317 . S
C1025 H1030 0.930 . S
C1026 C1025 1.333 . S
C1026 N1028 1.350 . S
C1026 H1052 0.931 . S
N1027 Co1023 2.148 . S
N1027 C1024 1.301 . S
N1027 C1025 1.317 . S
N1028 C1024 1.328 . S
N1028 C1026 1.350 . S
H1029 C1024 0.930 . S
H1030 C1025 0.930 . S
C1031 O1032 1.224 . S
C1031 O1050 1.247 . S
O1032 C1031 1.224 . S
N1033 Co1023 2.128 . S
N1033 C1034 1.355 . S
N1033 C1036 1.311 . S
C1034 N1033 1.355 . S
C1034 C1035 1.363 . S
C1034 H1046 0.929 . S
C1035 C1034 1.363 . S
C1035 N1037 1.375 . S
C1035 H1053 0.931 . S
C1036 N1033 1.311 . S
C1036 N1037 1.347 . S
C1036 H1047 0.929 . S
N1037 C1035 1.375 . S
N1037 C1036 1.347 . S
C1038 C1041 1.365 . S
C1038 N1043 1.328 . S
C1038 H1044 0.929 . S
C1039 C1040 1.362 . S
C1039 C1042 1.378 . S
C1039 H1054 0.929 . S
C1040 C1039 1.362 . S
C1040 C1041 1.366 . S
C1041 C1038 1.365 . S
C1041 C1040 1.366 . S
C1041 H1055 0.930 . S
C1042 C1039 1.378 . S
C1042 N1043 1.315 . S
C1042 H1045 0.930 . S
N1043 Co1023 2.194 . S
N1043 C1038 1.328 . S
N1043 C1042 1.315 . S
H1044 C1038 0.929 . S
H1045 C1042 0.930 . S
H1046 C1034 0.929 . S
H1047 C1036 0.929 . S
O1048 Co1023 2.351 . S
O1048 C1051 1.244 . S
O1049 Co1023 2.155 . S
O1049 C1051 1.240 . S
O1050 Co1023 2.096 . S
O1050 C1031 1.247 . S
C1051 O1048 1.244 . S
C1051 O1049 1.240 . S
H1052 C1026 0.931 . S
H1053 C1035 0.931 . S
H1054 C1039 0.929 . S
H1055 C1041 0.930 . S
Co1056 N1060 2.148 . S
Co1056 N1066 2.128 . S
Co1056 N1076 2.194 . S
Co1056 O1081 2.351 . S
Co1056 O1082 2.155 . S
Co1056 O1083 2.096 . S
C1057 N1060 1.301 . S
C1057 N1061 1.328 . S
C1057 H1062 0.930 . S
C1058 C1059 1.333 . S
C1058 N1060 1.317 . S
C1058 H1063 0.930 . S
C1059 C1058 1.333 . S
C1059 N1061 1.350 . S
C1059 H1085 0.931 . S
N1060 Co1056 2.148 . S
N1060 C1057 1.301 . S
N1060 C1058 1.317 . S
N1061 C1057 1.328 . S
N1061 C1059 1.350 . S
H1062 C1057 0.930 . S
H1063 C1058 0.930 . S
C1064 O1065 1.224 . S
C1064 O1083 1.247 . S
O1065 C1064 1.224 . S
N1066 Co1056 2.128 . S
N1066 C1067 1.355 . S
N1066 C1069 1.311 . S
C1067 N1066 1.355 . S
C1067 C1068 1.363 . S
C1067 H1079 0.929 . S
C1068 C1067 1.363 . S
C1068 N1070 1.375 . S
C1068 H1086 0.931 . S
C1069 N1066 1.311 . S
C1069 N1070 1.347 . S
C1069 H1080 0.929 . S
N1070 C1068 1.375 . S
N1070 C1069 1.347 . S
C1071 C1074 1.365 . S
C1071 N1076 1.328 . S
C1071 H1077 0.929 . S
C1072 C1073 1.362 . S
C1072 C1075 1.378 . S
C1072 H1087 0.929 . S
C1073 C1072 1.362 . S
C1073 C1074 1.366 . S
C1074 C1071 1.365 . S
C1074 C1073 1.366 . S
C1074 H1088 0.930 . S
C1075 C1072 1.378 . S
C1075 N1076 1.315 . S
C1075 H1078 0.930 . S
N1076 Co1056 2.194 . S
N1076 C1071 1.328 . S
N1076 C1075 1.315 . S
H1077 C1071 0.929 . S
H1078 C1075 0.930 . S
H1079 C1067 0.929 . S
H1080 C1069 0.929 . S
O1081 Co1056 2.351 . S
O1081 C1084 1.244 . S
O1082 Co1056 2.155 . S
O1082 C1084 1.240 . S
O1083 Co1056 2.096 . S
O1083 C1064 1.247 . S
C1084 O1081 1.244 . S
C1084 O1082 1.240 . S
H1085 C1059 0.931 . S
H1086 C1068 0.931 . S
H1087 C1072 0.929 . S
H1088 C1074 0.930 . S
Co1089 N1093 2.148 . S
Co1089 N1099 2.128 . S
Co1089 N1109 2.194 . S
Co1089 O1114 2.351 . S
Co1089 O1115 2.155 . S
Co1089 O1116 2.096 . S
C1090 N1093 1.301 . S
C1090 N1094 1.328 . S
C1090 H1095 0.930 . S
C1091 C1092 1.333 . S
C1091 N1093 1.317 . S
C1091 H1096 0.930 . S
C1092 C1091 1.333 . S
C1092 N1094 1.350 . S
C1092 H1118 0.931 . S
N1093 Co1089 2.148 . S
N1093 C1090 1.301 . S
N1093 C1091 1.317 . S
N1094 C1090 1.328 . S
N1094 C1092 1.350 . S
H1095 C1090 0.930 . S
H1096 C1091 0.930 . S
C1097 O1098 1.224 . S
C1097 O1116 1.247 . S
O1098 C1097 1.224 . S
N1099 Co1089 2.128 . S
N1099 C1100 1.355 . S
N1099 C1102 1.311 . S
C1100 N1099 1.355 . S
C1100 C1101 1.363 . S
C1100 H1112 0.929 . S
C1101 C1100 1.363 . S
C1101 N1103 1.375 . S
C1101 H1119 0.931 . S
C1102 N1099 1.311 . S
C1102 N1103 1.347 . S
C1102 H1113 0.929 . S
N1103 C1101 1.375 . S
N1103 C1102 1.347 . S
C1104 C1107 1.365 . S
C1104 N1109 1.328 . S
C1104 H1110 0.929 . S
C1105 C1106 1.362 . S
C1105 C1108 1.378 . S
C1105 H1120 0.929 . S
C1106 C1105 1.362 . S
C1106 C1107 1.366 . S
C1107 C1104 1.365 . S
C1107 C1106 1.366 . S
C1107 H1121 0.930 . S
C1108 C1105 1.378 . S
C1108 N1109 1.315 . S
C1108 H1111 0.930 . S
N1109 Co1089 2.194 . S
N1109 C1104 1.328 . S
N1109 C1108 1.315 . S
H1110 C1104 0.929 . S
H1111 C1108 0.930 . S
H1112 C1100 0.929 . S
H1113 C1102 0.929 . S
O1114 Co1089 2.351 . S
O1114 C1117 1.244 . S
O1115 Co1089 2.155 . S
O1115 C1117 1.240 . S
O1116 Co1089 2.096 . S
O1116 C1097 1.247 . S
C1117 O1114 1.244 . S
C1117 O1115 1.240 . S
H1118 C1092 0.931 . S
H1119 C1101 0.931 . S
H1120 C1105 0.929 . S
H1121 C1107 0.930 . S
Co1122 N1126 2.148 . S
Co1122 N1132 2.128 . S
Co1122 N1142 2.194 . S
Co1122 O1147 2.351 . S
Co1122 O1148 2.155 . S
Co1122 O1149 2.096 . S
C1123 N1126 1.301 . S
C1123 N1127 1.328 . S
C1123 H1128 0.930 . S
C1124 C1125 1.333 . S
C1124 N1126 1.317 . S
C1124 H1129 0.930 . S
C1125 C1124 1.333 . S
C1125 N1127 1.350 . S
C1125 H1151 0.931 . S
N1126 Co1122 2.148 . S
N1126 C1123 1.301 . S
N1126 C1124 1.317 . S
N1127 C1123 1.328 . S
N1127 C1125 1.350 . S
H1128 C1123 0.930 . S
H1129 C1124 0.930 . S
C1130 O1131 1.224 . S
C1130 O1149 1.247 . S
O1131 C1130 1.224 . S
N1132 Co1122 2.128 . S
N1132 C1133 1.355 . S
N1132 C1135 1.311 . S
C1133 N1132 1.355 . S
C1133 C1134 1.363 . S
C1133 H1145 0.929 . S
C1134 C1133 1.363 . S
C1134 N1136 1.375 . S
C1134 H1152 0.931 . S
C1135 N1132 1.311 . S
C1135 N1136 1.347 . S
C1135 H1146 0.929 . S
N1136 C1134 1.375 . S
N1136 C1135 1.347 . S
C1137 C1140 1.365 . S
C1137 N1142 1.328 . S
C1137 H1143 0.929 . S
C1138 C1139 1.362 . S
C1138 C1141 1.378 . S
C1138 H1153 0.929 . S
C1139 C1138 1.362 . S
C1139 C1140 1.366 . S
C1140 C1137 1.365 . S
C1140 C1139 1.366 . S
C1140 H1154 0.930 . S
C1141 C1138 1.378 . S
C1141 N1142 1.315 . S
C1141 H1144 0.930 . S
N1142 Co1122 2.194 . S
N1142 C1137 1.328 . S
N1142 C1141 1.315 . S
H1143 C1137 0.929 . S
H1144 C1141 0.930 . S
H1145 C1133 0.929 . S
H1146 C1135 0.929 . S
O1147 Co1122 2.351 . S
O1147 C1150 1.244 . S
O1148 Co1122 2.155 . S
O1148 C1150 1.240 . S
O1149 Co1122 2.096 . S
O1149 C1130 1.247 . S
C1150 O1147 1.244 . S
C1150 O1148 1.240 . S
H1151 C1125 0.931 . S
H1152 C1134 0.931 . S
H1153 C1138 0.929 . S
H1154 C1140 0.930 . S
Co1155 N1159 2.148 . S
Co1155 N1165 2.128 . S
Co1155 N1175 2.194 . S
Co1155 O1180 2.351 . S
Co1155 O1181 2.155 . S
Co1155 O1182 2.096 . S
C1156 N1159 1.301 . S
C1156 N1160 1.328 . S
C1156 H1161 0.930 . S
C1157 C1158 1.333 . S
C1157 N1159 1.317 . S
C1157 H1162 0.930 . S
C1158 C1157 1.333 . S
C1158 N1160 1.350 . S
C1158 H1184 0.931 . S
N1159 Co1155 2.148 . S
N1159 C1156 1.301 . S
N1159 C1157 1.317 . S
N1160 C1156 1.328 . S
N1160 C1158 1.350 . S
H1161 C1156 0.930 . S
H1162 C1157 0.930 . S
C1163 O1164 1.224 . S
C1163 O1182 1.247 . S
O1164 C1163 1.224 . S
N1165 Co1155 2.128 . S
N1165 C1166 1.355 . S
N1165 C1168 1.311 . S
C1166 N1165 1.355 . S
C1166 C1167 1.363 . S
C1166 H1178 0.929 . S
C1167 C1166 1.363 . S
C1167 N1169 1.375 . S
C1167 H1185 0.931 . S
C1168 N1165 1.311 . S
C1168 N1169 1.347 . S
C1168 H1179 0.929 . S
N1169 C1167 1.375 . S
N1169 C1168 1.347 . S
C1170 C1173 1.365 . S
C1170 N1175 1.328 . S
C1170 H1176 0.929 . S
C1171 C1172 1.362 . S
C1171 C1174 1.378 . S
C1171 H1186 0.929 . S
C1172 C1171 1.362 . S
C1172 C1173 1.366 . S
C1173 C1170 1.365 . S
C1173 C1172 1.366 . S
C1173 H1187 0.930 . S
C1174 C1171 1.378 . S
C1174 N1175 1.315 . S
C1174 H1177 0.930 . S
N1175 Co1155 2.194 . S
N1175 C1170 1.328 . S
N1175 C1174 1.315 . S
H1176 C1170 0.929 . S
H1177 C1174 0.930 . S
H1178 C1166 0.929 . S
H1179 C1168 0.929 . S
O1180 Co1155 2.351 . S
O1180 C1183 1.244 . S
O1181 Co1155 2.155 . S
O1181 C1183 1.240 . S
O1182 Co1155 2.096 . S
O1182 C1163 1.247 . S
C1183 O1180 1.244 . S
C1183 O1181 1.240 . S
H1184 C1158 0.931 . S
H1185 C1167 0.931 . S
H1186 C1171 0.929 . S
H1187 C1173 0.930 . S
Co1188 N1192 2.148 . S
Co1188 N1198 2.128 . S
Co1188 N1208 2.194 . S
Co1188 O1213 2.351 . S
Co1188 O1214 2.155 . S
Co1188 O1215 2.096 . S
C1189 N1192 1.301 . S
C1189 N1193 1.328 . S
C1189 H1194 0.930 . S
C1190 C1191 1.333 . S
C1190 N1192 1.317 . S
C1190 H1195 0.930 . S
C1191 C1190 1.333 . S
C1191 N1193 1.350 . S
C1191 H1217 0.931 . S
N1192 Co1188 2.148 . S
N1192 C1189 1.301 . S
N1192 C1190 1.317 . S
N1193 C1189 1.328 . S
N1193 C1191 1.350 . S
H1194 C1189 0.930 . S
H1195 C1190 0.930 . S
C1196 O1197 1.224 . S
C1196 O1215 1.247 . S
O1197 C1196 1.224 . S
N1198 Co1188 2.128 . S
N1198 C1199 1.355 . S
N1198 C1201 1.311 . S
C1199 N1198 1.355 . S
C1199 C1200 1.363 . S
C1199 H1211 0.929 . S
C1200 C1199 1.363 . S
C1200 N1202 1.375 . S
C1200 H1218 0.931 . S
C1201 N1198 1.311 . S
C1201 N1202 1.347 . S
C1201 H1212 0.929 . S
N1202 C1200 1.375 . S
N1202 C1201 1.347 . S
C1203 C1206 1.365 . S
C1203 N1208 1.328 . S
C1203 H1209 0.929 . S
C1204 C1205 1.362 . S
C1204 C1207 1.378 . S
C1204 H1219 0.929 . S
C1205 C1204 1.362 . S
C1205 C1206 1.366 . S
C1206 C1203 1.365 . S
C1206 C1205 1.366 . S
C1206 H1220 0.930 . S
C1207 C1204 1.378 . S
C1207 N1208 1.315 . S
C1207 H1210 0.930 . S
N1208 Co1188 2.194 . S
N1208 C1203 1.328 . S
N1208 C1207 1.315 . S
H1209 C1203 0.929 . S
H1210 C1207 0.930 . S
H1211 C1199 0.929 . S
H1212 C1201 0.929 . S
O1213 Co1188 2.351 . S
O1213 C1216 1.244 . S
O1214 Co1188 2.155 . S
O1214 C1216 1.240 . S
O1215 Co1188 2.096 . S
O1215 C1196 1.247 . S
C1216 O1213 1.244 . S
C1216 O1214 1.240 . S
H1217 C1191 0.931 . S
H1218 C1200 0.931 . S
H1219 C1204 0.929 . S
H1220 C1206 0.930 . S
Co1221 N1225 2.148 . S
Co1221 N1231 2.128 . S
Co1221 N1241 2.194 . S
Co1221 O1246 2.351 . S
Co1221 O1247 2.155 . S
Co1221 O1248 2.096 . S
C1222 N1225 1.301 . S
C1222 N1226 1.328 . S
C1222 H1227 0.930 . S
C1223 C1224 1.333 . S
C1223 N1225 1.317 . S
C1223 H1228 0.930 . S
C1224 C1223 1.333 . S
C1224 N1226 1.350 . S
C1224 H1250 0.931 . S
N1225 Co1221 2.148 . S
N1225 C1222 1.301 . S
N1225 C1223 1.317 . S
N1226 C1222 1.328 . S
N1226 C1224 1.350 . S
H1227 C1222 0.930 . S
H1228 C1223 0.930 . S
C1229 O1230 1.224 . S
C1229 O1248 1.247 . S
O1230 C1229 1.224 . S
N1231 Co1221 2.128 . S
N1231 C1232 1.355 . S
N1231 C1234 1.311 . S
C1232 N1231 1.355 . S
C1232 C1233 1.363 . S
C1232 H1244 0.929 . S
C1233 C1232 1.363 . S
C1233 N1235 1.375 . S
C1233 H1251 0.931 . S
C1234 N1231 1.311 . S
C1234 N1235 1.347 . S
C1234 H1245 0.929 . S
N1235 C1233 1.375 . S
N1235 C1234 1.347 . S
C1236 C1239 1.365 . S
C1236 N1241 1.328 . S
C1236 H1242 0.929 . S
C1237 C1238 1.362 . S
C1237 C1240 1.378 . S
C1237 H1252 0.929 . S
C1238 C1237 1.362 . S
C1238 C1239 1.366 . S
C1239 C1236 1.365 . S
C1239 C1238 1.366 . S
C1239 H1253 0.930 . S
C1240 C1237 1.378 . S
C1240 N1241 1.315 . S
C1240 H1243 0.930 . S
N1241 Co1221 2.194 . S
N1241 C1236 1.328 . S
N1241 C1240 1.315 . S
H1242 C1236 0.929 . S
H1243 C1240 0.930 . S
H1244 C1232 0.929 . S
H1245 C1234 0.929 . S
O1246 Co1221 2.351 . S
O1246 C1249 1.244 . S
O1247 Co1221 2.155 . S
O1247 C1249 1.240 . S
O1248 Co1221 2.096 . S
O1248 C1229 1.247 . S
C1249 O1246 1.244 . S
C1249 O1247 1.240 . S
H1250 C1224 0.931 . S
H1251 C1233 0.931 . S
H1252 C1237 0.929 . S
H1253 C1239 0.930 . S
Co1254 N1258 2.148 . S
Co1254 N1264 2.128 . S
Co1254 N1274 2.194 . S
Co1254 O1279 2.351 . S
Co1254 O1280 2.155 . S
Co1254 O1281 2.096 . S
C1255 N1258 1.301 . S
C1255 N1259 1.328 . S
C1255 H1260 0.930 . S
C1256 C1257 1.333 . S
C1256 N1258 1.317 . S
C1256 H1261 0.930 . S
C1257 C1256 1.333 . S
C1257 N1259 1.350 . S
C1257 H1283 0.931 . S
N1258 Co1254 2.148 . S
N1258 C1255 1.301 . S
N1258 C1256 1.317 . S
N1259 C1255 1.328 . S
N1259 C1257 1.350 . S
H1260 C1255 0.930 . S
H1261 C1256 0.930 . S
C1262 O1263 1.224 . S
C1262 O1281 1.247 . S
O1263 C1262 1.224 . S
N1264 Co1254 2.128 . S
N1264 C1265 1.355 . S
N1264 C1267 1.311 . S
C1265 N1264 1.355 . S
C1265 C1266 1.363 . S
C1265 H1277 0.929 . S
C1266 C1265 1.363 . S
C1266 N1268 1.375 . S
C1266 H1284 0.931 . S
C1267 N1264 1.311 . S
C1267 N1268 1.347 . S
C1267 H1278 0.929 . S
N1268 C1266 1.375 . S
N1268 C1267 1.347 . S
C1269 C1272 1.365 . S
C1269 N1274 1.328 . S
C1269 H1275 0.929 . S
C1270 C1271 1.362 . S
C1270 C1273 1.378 . S
C1270 H1285 0.929 . S
C1271 C1270 1.362 . S
C1271 C1272 1.366 . S
C1272 C1269 1.365 . S
C1272 C1271 1.366 . S
C1272 H1286 0.930 . S
C1273 C1270 1.378 . S
C1273 N1274 1.315 . S
C1273 H1276 0.930 . S
N1274 Co1254 2.194 . S
N1274 C1269 1.328 . S
N1274 C1273 1.315 . S
H1275 C1269 0.929 . S
H1276 C1273 0.930 . S
H1277 C1265 0.929 . S
H1278 C1267 0.929 . S
O1279 Co1254 2.351 . S
O1279 C1282 1.244 . S
O1280 Co1254 2.155 . S
O1280 C1282 1.240 . S
O1281 Co1254 2.096 . S
O1281 C1262 1.247 . S
C1282 O1279 1.244 . S
C1282 O1280 1.240 . S
H1283 C1257 0.931 . S
H1284 C1266 0.931 . S
H1285 C1270 0.929 . S
H1286 C1272 0.930 . S
Co1287 N1291 2.148 . S
Co1287 N1297 2.128 . S
Co1287 N1307 2.194 . S
Co1287 O1312 2.351 . S
Co1287 O1313 2.155 . S
Co1287 O1314 2.096 . S
C1288 N1291 1.301 . S
C1288 N1292 1.328 . S
C1288 H1293 0.930 . S
C1289 C1290 1.333 . S
C1289 N1291 1.317 . S
C1289 H1294 0.930 . S
C1290 C1289 1.333 . S
C1290 N1292 1.350 . S
C1290 H1316 0.931 . S
N1291 Co1287 2.148 . S
N1291 C1288 1.301 . S
N1291 C1289 1.317 . S
N1292 C1288 1.328 . S
N1292 C1290 1.350 . S
H1293 C1288 0.930 . S
H1294 C1289 0.930 . S
C1295 O1296 1.224 . S
C1295 O1314 1.247 . S
O1296 C1295 1.224 . S
N1297 Co1287 2.128 . S
N1297 C1298 1.355 . S
N1297 C1300 1.311 . S
C1298 N1297 1.355 . S
C1298 C1299 1.363 . S
C1298 H1310 0.929 . S
C1299 C1298 1.363 . S
C1299 N1301 1.375 . S
C1299 H1317 0.931 . S
C1300 N1297 1.311 . S
C1300 N1301 1.347 . S
C1300 H1311 0.929 . S
N1301 C1299 1.375 . S
N1301 C1300 1.347 . S
C1302 C1305 1.365 . S
C1302 N1307 1.328 . S
C1302 H1308 0.929 . S
C1303 C1304 1.362 . S
C1303 C1306 1.378 . S
C1303 H1318 0.929 . S
C1304 C1303 1.362 . S
C1304 C1305 1.366 . S
C1305 C1302 1.365 . S
C1305 C1304 1.366 . S
C1305 H1319 0.930 . S
C1306 C1303 1.378 . S
C1306 N1307 1.315 . S
C1306 H1309 0.930 . S
N1307 Co1287 2.194 . S
N1307 C1302 1.328 . S
N1307 C1306 1.315 . S
H1308 C1302 0.929 . S
H1309 C1306 0.930 . S
H1310 C1298 0.929 . S
H1311 C1300 0.929 . S
O1312 Co1287 2.351 . S
O1312 C1315 1.244 . S
O1313 Co1287 2.155 . S
O1313 C1315 1.240 . S
O1314 Co1287 2.096 . S
O1314 C1295 1.247 . S
C1315 O1312 1.244 . S
C1315 O1313 1.240 . S
H1316 C1290 0.931 . S
H1317 C1299 0.931 . S
H1318 C1303 0.929 . S
H1319 C1305 0.930 . S
Co1320 N1324 2.148 . S
Co1320 N1330 2.128 . S
Co1320 N1340 2.194 . S
Co1320 O1345 2.351 . S
Co1320 O1346 2.155 . S
Co1320 O1347 2.096 . S
C1321 N1324 1.301 . S
C1321 N1325 1.328 . S
C1321 H1326 0.930 . S
C1322 C1323 1.333 . S
C1322 N1324 1.317 . S
C1322 H1327 0.930 . S
C1323 C1322 1.333 . S
C1323 N1325 1.350 . S
C1323 H1349 0.931 . S
N1324 Co1320 2.148 . S
N1324 C1321 1.301 . S
N1324 C1322 1.317 . S
N1325 C1321 1.328 . S
N1325 C1323 1.350 . S
H1326 C1321 0.930 . S
H1327 C1322 0.930 . S
C1328 O1329 1.224 . S
C1328 O1347 1.247 . S
O1329 C1328 1.224 . S
N1330 Co1320 2.128 . S
N1330 C1331 1.355 . S
N1330 C1333 1.311 . S
C1331 N1330 1.355 . S
C1331 C1332 1.363 . S
C1331 H1343 0.929 . S
C1332 C1331 1.363 . S
C1332 N1334 1.375 . S
C1332 H1350 0.931 . S
C1333 N1330 1.311 . S
C1333 N1334 1.347 . S
C1333 H1344 0.929 . S
N1334 C1332 1.375 . S
N1334 C1333 1.347 . S
C1335 C1338 1.365 . S
C1335 N1340 1.328 . S
C1335 H1341 0.929 . S
C1336 C1337 1.362 . S
C1336 C1339 1.378 . S
C1336 H1351 0.929 . S
C1337 C1336 1.362 . S
C1337 C1338 1.366 . S
C1338 C1335 1.365 . S
C1338 C1337 1.366 . S
C1338 H1352 0.930 . S
C1339 C1336 1.378 . S
C1339 N1340 1.315 . S
C1339 H1342 0.930 . S
N1340 Co1320 2.194 . S
N1340 C1335 1.328 . S
N1340 C1339 1.315 . S
H1341 C1335 0.929 . S
H1342 C1339 0.930 . S
H1343 C1331 0.929 . S
H1344 C1333 0.929 . S
O1345 Co1320 2.351 . S
O1345 C1348 1.244 . S
O1346 Co1320 2.155 . S
O1346 C1348 1.240 . S
O1347 Co1320 2.096 . S
O1347 C1328 1.247 . S
C1348 O1345 1.244 . S
C1348 O1346 1.240 . S
H1349 C1323 0.931 . S
H1350 C1332 0.931 . S
H1351 C1336 0.929 . S
H1352 C1338 0.930 . S
Co1353 N1357 2.148 . S
Co1353 N1363 2.128 . S
Co1353 N1373 2.194 . S
Co1353 O1378 2.351 . S
Co1353 O1379 2.155 . S
Co1353 O1380 2.096 . S
C1354 N1357 1.301 . S
C1354 N1358 1.328 . S
C1354 H1359 0.930 . S
C1355 C1356 1.333 . S
C1355 N1357 1.317 . S
C1355 H1360 0.930 . S
C1356 C1355 1.333 . S
C1356 N1358 1.350 . S
C1356 H1382 0.931 . S
N1357 Co1353 2.148 . S
N1357 C1354 1.301 . S
N1357 C1355 1.317 . S
N1358 C1354 1.328 . S
N1358 C1356 1.350 . S
H1359 C1354 0.930 . S
H1360 C1355 0.930 . S
C1361 O1362 1.224 . S
C1361 O1380 1.247 . S
O1362 C1361 1.224 . S
N1363 Co1353 2.128 . S
N1363 C1364 1.355 . S
N1363 C1366 1.311 . S
C1364 N1363 1.355 . S
C1364 C1365 1.363 . S
C1364 H1376 0.929 . S
C1365 C1364 1.363 . S
C1365 N1367 1.375 . S
C1365 H1383 0.931 . S
C1366 N1363 1.311 . S
C1366 N1367 1.347 . S
C1366 H1377 0.929 . S
N1367 C1365 1.375 . S
N1367 C1366 1.347 . S
C1368 C1371 1.365 . S
C1368 N1373 1.328 . S
C1368 H1374 0.929 . S
C1369 C1370 1.362 . S
C1369 C1372 1.378 . S
C1369 H1384 0.929 . S
C1370 C1369 1.362 . S
C1370 C1371 1.366 . S
C1371 C1368 1.365 . S
C1371 C1370 1.366 . S
C1371 H1385 0.930 . S
C1372 C1369 1.378 . S
C1372 N1373 1.315 . S
C1372 H1375 0.930 . S
N1373 Co1353 2.194 . S
N1373 C1368 1.328 . S
N1373 C1372 1.315 . S
H1374 C1368 0.929 . S
H1375 C1372 0.930 . S
H1376 C1364 0.929 . S
H1377 C1366 0.929 . S
O1378 Co1353 2.351 . S
O1378 C1381 1.244 . S
O1379 Co1353 2.155 . S
O1379 C1381 1.240 . S
O1380 Co1353 2.096 . S
O1380 C1361 1.247 . S
C1381 O1378 1.244 . S
C1381 O1379 1.240 . S
H1382 C1356 0.931 . S
H1383 C1365 0.931 . S
H1384 C1369 0.929 . S
H1385 C1371 0.930 . S
Co1386 N1390 2.148 . S
Co1386 N1396 2.128 . S
Co1386 N1406 2.194 . S
Co1386 O1411 2.351 . S
Co1386 O1412 2.155 . S
Co1386 O1413 2.096 . S
C1387 N1390 1.301 . S
C1387 N1391 1.328 . S
C1387 H1392 0.930 . S
C1388 C1389 1.333 . S
C1388 N1390 1.317 . S
C1388 H1393 0.930 . S
C1389 C1388 1.333 . S
C1389 N1391 1.350 . S
C1389 H1415 0.931 . S
N1390 Co1386 2.148 . S
N1390 C1387 1.301 . S
N1390 C1388 1.317 . S
N1391 C1387 1.328 . S
N1391 C1389 1.350 . S
H1392 C1387 0.930 . S
H1393 C1388 0.930 . S
C1394 O1395 1.224 . S
C1394 O1413 1.247 . S
O1395 C1394 1.224 . S
N1396 Co1386 2.128 . S
N1396 C1397 1.355 . S
N1396 C1399 1.311 . S
C1397 N1396 1.355 . S
C1397 C1398 1.363 . S
C1397 H1409 0.929 . S
C1398 C1397 1.363 . S
C1398 N1400 1.375 . S
C1398 H1416 0.931 . S
C1399 N1396 1.311 . S
C1399 N1400 1.347 . S
C1399 H1410 0.929 . S
N1400 C1398 1.375 . S
N1400 C1399 1.347 . S
C1401 C1404 1.365 . S
C1401 N1406 1.328 . S
C1401 H1407 0.929 . S
C1402 C1403 1.362 . S
C1402 C1405 1.378 . S
C1402 H1417 0.929 . S
C1403 C1402 1.362 . S
C1403 C1404 1.366 . S
C1404 C1401 1.365 . S
C1404 C1403 1.366 . S
C1404 H1418 0.930 . S
C1405 C1402 1.378 . S
C1405 N1406 1.315 . S
C1405 H1408 0.930 . S
N1406 Co1386 2.194 . S
N1406 C1401 1.328 . S
N1406 C1405 1.315 . S
H1407 C1401 0.929 . S
H1408 C1405 0.930 . S
H1409 C1397 0.929 . S
H1410 C1399 0.929 . S
O1411 Co1386 2.351 . S
O1411 C1414 1.244 . S
O1412 Co1386 2.155 . S
O1412 C1414 1.240 . S
O1413 Co1386 2.096 . S
O1413 C1394 1.247 . S
C1414 O1411 1.244 . S
C1414 O1412 1.240 . S
H1415 C1389 0.931 . S
H1416 C1398 0.931 . S
H1417 C1402 0.929 . S
H1418 C1404 0.930 . S
Co1419 N1423 2.148 . S
Co1419 N1429 2.128 . S
Co1419 N1439 2.194 . S
Co1419 O1444 2.351 . S
Co1419 O1445 2.155 . S
Co1419 O1446 2.096 . S
C1420 N1423 1.301 . S
C1420 N1424 1.328 . S
C1420 H1425 0.930 . S
C1421 C1422 1.333 . S
C1421 N1423 1.317 . S
C1421 H1426 0.930 . S
C1422 C1421 1.333 . S
C1422 N1424 1.350 . S
C1422 H1448 0.931 . S
N1423 Co1419 2.148 . S
N1423 C1420 1.301 . S
N1423 C1421 1.317 . S
N1424 C1420 1.328 . S
N1424 C1422 1.350 . S
H1425 C1420 0.930 . S
H1426 C1421 0.930 . S
C1427 O1428 1.224 . S
C1427 O1446 1.247 . S
O1428 C1427 1.224 . S
N1429 Co1419 2.128 . S
N1429 C1430 1.355 . S
N1429 C1432 1.311 . S
C1430 N1429 1.355 . S
C1430 C1431 1.363 . S
C1430 H1442 0.929 . S
C1431 C1430 1.363 . S
C1431 N1433 1.375 . S
C1431 H1449 0.931 . S
C1432 N1429 1.311 . S
C1432 N1433 1.347 . S
C1432 H1443 0.929 . S
N1433 C1431 1.375 . S
N1433 C1432 1.347 . S
C1434 C1437 1.365 . S
C1434 N1439 1.328 . S
C1434 H1440 0.929 . S
C1435 C1436 1.362 . S
C1435 C1438 1.378 . S
C1435 H1450 0.929 . S
C1436 C1435 1.362 . S
C1436 C1437 1.366 . S
C1437 C1434 1.365 . S
C1437 C1436 1.366 . S
C1437 H1451 0.930 . S
C1438 C1435 1.378 . S
C1438 N1439 1.315 . S
C1438 H1441 0.930 . S
N1439 Co1419 2.194 . S
N1439 C1434 1.328 . S
N1439 C1438 1.315 . S
H1440 C1434 0.929 . S
H1441 C1438 0.930 . S
H1442 C1430 0.929 . S
H1443 C1432 0.929 . S
O1444 Co1419 2.351 . S
O1444 C1447 1.244 . S
O1445 Co1419 2.155 . S
O1445 C1447 1.240 . S
O1446 Co1419 2.096 . S
O1446 C1427 1.247 . S
C1447 O1444 1.244 . S
C1447 O1445 1.240 . S
H1448 C1422 0.931 . S
H1449 C1431 0.931 . S
H1450 C1435 0.929 . S
H1451 C1437 0.930 . S
Co1452 N1456 2.148 . S
Co1452 N1462 2.128 . S
Co1452 N1472 2.194 . S
Co1452 O1477 2.351 . S
Co1452 O1478 2.155 . S
Co1452 O1479 2.096 . S
C1453 N1456 1.301 . S
C1453 N1457 1.328 . S
C1453 H1458 0.930 . S
C1454 C1455 1.333 . S
C1454 N1456 1.317 . S
C1454 H1459 0.930 . S
C1455 C1454 1.333 . S
C1455 N1457 1.350 . S
C1455 H1481 0.931 . S
N1456 Co1452 2.148 . S
N1456 C1453 1.301 . S
N1456 C1454 1.317 . S
N1457 C1453 1.328 . S
N1457 C1455 1.350 . S
H1458 C1453 0.930 . S
H1459 C1454 0.930 . S
C1460 O1461 1.224 . S
C1460 O1479 1.247 . S
O1461 C1460 1.224 . S
N1462 Co1452 2.128 . S
N1462 C1463 1.355 . S
N1462 C1465 1.311 . S
C1463 N1462 1.355 . S
C1463 C1464 1.363 . S
C1463 H1475 0.929 . S
C1464 C1463 1.363 . S
C1464 N1466 1.375 . S
C1464 H1482 0.931 . S
C1465 N1462 1.311 . S
C1465 N1466 1.347 . S
C1465 H1476 0.929 . S
N1466 C1464 1.375 . S
N1466 C1465 1.347 . S
C1467 C1470 1.365 . S
C1467 N1472 1.328 . S
C1467 H1473 0.929 . S
C1468 C1469 1.362 . S
C1468 C1471 1.378 . S
C1468 H1483 0.929 . S
C1469 C1468 1.362 . S
C1469 C1470 1.366 . S
C1470 C1467 1.365 . S
C1470 C1469 1.366 . S
C1470 H1484 0.930 . S
C1471 C1468 1.378 . S
C1471 N1472 1.315 . S
C1471 H1474 0.930 . S
N1472 Co1452 2.194 . S
N1472 C1467 1.328 . S
N1472 C1471 1.315 . S
H1473 C1467 0.929 . S
H1474 C1471 0.930 . S
H1475 C1463 0.929 . S
H1476 C1465 0.929 . S
O1477 Co1452 2.351 . S
O1477 C1480 1.244 . S
O1478 Co1452 2.155 . S
O1478 C1480 1.240 . S
O1479 Co1452 2.096 . S
O1479 C1460 1.247 . S
C1480 O1477 1.244 . S
C1480 O1478 1.240 . S
H1481 C1455 0.931 . S
H1482 C1464 0.931 . S
H1483 C1468 0.929 . S
H1484 C1470 0.930 . S
Co1485 N1489 2.148 . S
Co1485 N1495 2.128 . S
Co1485 N1505 2.194 . S
Co1485 O1510 2.351 . S
Co1485 O1511 2.155 . S
Co1485 O1512 2.096 . S
C1486 N1489 1.301 . S
C1486 N1490 1.328 . S
C1486 H1491 0.930 . S
C1487 C1488 1.333 . S
C1487 N1489 1.317 . S
C1487 H1492 0.930 . S
C1488 C1487 1.333 . S
C1488 N1490 1.350 . S
C1488 H1514 0.931 . S
N1489 Co1485 2.148 . S
N1489 C1486 1.301 . S
N1489 C1487 1.317 . S
N1490 C1486 1.328 . S
N1490 C1488 1.350 . S
H1491 C1486 0.930 . S
H1492 C1487 0.930 . S
C1493 O1494 1.224 . S
C1493 O1512 1.247 . S
O1494 C1493 1.224 . S
N1495 Co1485 2.128 . S
N1495 C1496 1.355 . S
N1495 C1498 1.311 . S
C1496 N1495 1.355 . S
C1496 C1497 1.363 . S
C1496 H1508 0.929 . S
C1497 C1496 1.363 . S
C1497 N1499 1.375 . S
C1497 H1515 0.931 . S
C1498 N1495 1.311 . S
C1498 N1499 1.347 . S
C1498 H1509 0.929 . S
N1499 C1497 1.375 . S
N1499 C1498 1.347 . S
C1500 C1503 1.365 . S
C1500 N1505 1.328 . S
C1500 H1506 0.929 . S
C1501 C1502 1.362 . S
C1501 C1504 1.378 . S
C1501 H1516 0.929 . S
C1502 C1501 1.362 . S
C1502 C1503 1.366 . S
C1503 C1500 1.365 . S
C1503 C1502 1.366 . S
C1503 H1517 0.930 . S
C1504 C1501 1.378 . S
C1504 N1505 1.315 . S
C1504 H1507 0.930 . S
N1505 Co1485 2.194 . S
N1505 C1500 1.328 . S
N1505 C1504 1.315 . S
H1506 C1500 0.929 . S
H1507 C1504 0.930 . S
H1508 C1496 0.929 . S
H1509 C1498 0.929 . S
O1510 Co1485 2.351 . S
O1510 C1513 1.244 . S
O1511 Co1485 2.155 . S
O1511 C1513 1.240 . S
O1512 Co1485 2.096 . S
O1512 C1493 1.247 . S
C1513 O1510 1.244 . S
C1513 O1511 1.240 . S
H1514 C1488 0.931 . S
H1515 C1497 0.931 . S
H1516 C1501 0.929 . S
H1517 C1503 0.930 . S
Co1518 N1522 2.148 . S
Co1518 N1528 2.128 . S
Co1518 N1538 2.194 . S
Co1518 O1543 2.351 . S
Co1518 O1544 2.155 . S
Co1518 O1545 2.096 . S
C1519 N1522 1.301 . S
C1519 N1523 1.328 . S
C1519 H1524 0.930 . S
C1520 C1521 1.333 . S
C1520 N1522 1.317 . S
C1520 H1525 0.930 . S
C1521 C1520 1.333 . S
C1521 N1523 1.350 . S
C1521 H1547 0.931 . S
N1522 Co1518 2.148 . S
N1522 C1519 1.301 . S
N1522 C1520 1.317 . S
N1523 C1519 1.328 . S
N1523 C1521 1.350 . S
H1524 C1519 0.930 . S
H1525 C1520 0.930 . S
C1526 O1527 1.224 . S
C1526 O1545 1.247 . S
O1527 C1526 1.224 . S
N1528 Co1518 2.128 . S
N1528 C1529 1.355 . S
N1528 C1531 1.311 . S
C1529 N1528 1.355 . S
C1529 C1530 1.363 . S
C1529 H1541 0.929 . S
C1530 C1529 1.363 . S
C1530 N1532 1.375 . S
C1530 H1548 0.931 . S
C1531 N1528 1.311 . S
C1531 N1532 1.347 . S
C1531 H1542 0.929 . S
N1532 C1530 1.375 . S
N1532 C1531 1.347 . S
C1533 C1536 1.365 . S
C1533 N1538 1.328 . S
C1533 H1539 0.929 . S
C1534 C1535 1.362 . S
C1534 C1537 1.378 . S
C1534 H1549 0.929 . S
C1535 C1534 1.362 . S
C1535 C1536 1.366 . S
C1536 C1533 1.365 . S
C1536 C1535 1.366 . S
C1536 H1550 0.930 . S
C1537 C1534 1.378 . S
C1537 N1538 1.315 . S
C1537 H1540 0.930 . S
N1538 Co1518 2.194 . S
N1538 C1533 1.328 . S
N1538 C1537 1.315 . S
H1539 C1533 0.929 . S
H1540 C1537 0.930 . S
H1541 C1529 0.929 . S
H1542 C1531 0.929 . S
O1543 Co1518 2.351 . S
O1543 C1546 1.244 . S
O1544 Co1518 2.155 . S
O1544 C1546 1.240 . S
O1545 Co1518 2.096 . S
O1545 C1526 1.247 . S
C1546 O1543 1.244 . S
C1546 O1544 1.240 . S
H1547 C1521 0.931 . S
H1548 C1530 0.931 . S
H1549 C1534 0.929 . S
H1550 C1536 0.930 . S
Co1551 N1555 2.148 . S
Co1551 N1561 2.128 . S
Co1551 N1571 2.194 . S
Co1551 O1576 2.351 . S
Co1551 O1577 2.155 . S
Co1551 O1578 2.096 . S
C1552 N1555 1.301 . S
C1552 N1556 1.328 . S
C1552 H1557 0.930 . S
C1553 C1554 1.333 . S
C1553 N1555 1.317 . S
C1553 H1558 0.930 . S
C1554 C1553 1.333 . S
C1554 N1556 1.350 . S
C1554 H1580 0.931 . S
N1555 Co1551 2.148 . S
N1555 C1552 1.301 . S
N1555 C1553 1.317 . S
N1556 C1552 1.328 . S
N1556 C1554 1.350 . S
H1557 C1552 0.930 . S
H1558 C1553 0.930 . S
C1559 O1560 1.224 . S
C1559 O1578 1.247 . S
O1560 C1559 1.224 . S
N1561 Co1551 2.128 . S
N1561 C1562 1.355 . S
N1561 C1564 1.311 . S
C1562 N1561 1.355 . S
C1562 C1563 1.363 . S
C1562 H1574 0.929 . S
C1563 C1562 1.363 . S
C1563 N1565 1.375 . S
C1563 H1581 0.931 . S
C1564 N1561 1.311 . S
C1564 N1565 1.347 . S
C1564 H1575 0.929 . S
N1565 C1563 1.375 . S
N1565 C1564 1.347 . S
C1566 C1569 1.365 . S
C1566 N1571 1.328 . S
C1566 H1572 0.929 . S
C1567 C1568 1.362 . S
C1567 C1570 1.378 . S
C1567 H1582 0.929 . S
C1568 C1567 1.362 . S
C1568 C1569 1.366 . S
C1569 C1566 1.365 . S
C1569 C1568 1.366 . S
C1569 H1583 0.930 . S
C1570 C1567 1.378 . S
C1570 N1571 1.315 . S
C1570 H1573 0.930 . S
N1571 Co1551 2.194 . S
N1571 C1566 1.328 . S
N1571 C1570 1.315 . S
H1572 C1566 0.929 . S
H1573 C1570 0.930 . S
H1574 C1562 0.929 . S
H1575 C1564 0.929 . S
O1576 Co1551 2.351 . S
O1576 C1579 1.244 . S
O1577 Co1551 2.155 . S
O1577 C1579 1.240 . S
O1578 Co1551 2.096 . S
O1578 C1559 1.247 . S
C1579 O1576 1.244 . S
C1579 O1577 1.240 . S
H1580 C1554 0.931 . S
H1581 C1563 0.931 . S
H1582 C1567 0.929 . S
H1583 C1569 0.930 . S
H1584 C1590 0.930 . S
H1585 C1593 0.930 . S
H1586 C1594 0.930 . S
H1587 C1595 0.930 . S
H1588 C1598 0.930 . S
H1589 C1599 0.930 . S
C1590 H1584 0.930 . S
C1590 C1591 1.355 . S
C1590 C1592 1.415 1_556 S
C1591 C1590 1.355 . S
C1591 C1593 1.419 . S
C1592 C1590 1.415 1_554 S
C1592 C1597 1.425 . S
C1592 C1599 1.409 . S
C1593 H1585 0.930 . S
C1593 C1591 1.419 . S
C1593 C1594 1.362 1_556 S
C1594 H1586 0.930 . S
C1594 C1593 1.362 1_554 S
C1594 C1597 1.409 . S
C1595 H1587 0.930 . S
C1595 C1596 1.355 . S
C1595 C1597 1.415 . S
C1596 C1595 1.355 . S
C1596 C1598 1.419 . S
C1597 C1592 1.425 . S
C1597 C1594 1.409 . S
C1597 C1595 1.415 . S
C1598 H1588 0.930 . S
C1598 C1596 1.419 . S
C1598 C1599 1.362 . S
C1599 H1589 0.930 . S
C1599 C1592 1.409 . S
C1599 C1598 1.362 . S
H1600 C1606 0.930 . S
H1601 C1609 0.930 . S
H1602 C1610 0.930 . S
H1603 C1611 0.930 . S
H1604 C1614 0.930 . S
H1605 C1615 0.930 . S
C1606 H1600 0.930 . S
C1606 C1607 1.355 . S
C1606 C1608 1.415 . S
C1607 C1606 1.355 . S
C1607 C1609 1.419 . S
C1608 C1606 1.415 . S
C1608 C1613 1.425 . S
C1608 C1615 1.409 . S
C1609 H1601 0.930 . S
C1609 C1607 1.419 . S
C1609 C1610 1.362 . S
C1610 H1602 0.930 . S
C1610 C1609 1.362 . S
C1610 C1613 1.409 . S
C1611 H1603 0.930 . S
C1611 C1612 1.355 . S
C1611 C1613 1.415 . S
C1612 C1611 1.355 . S
C1612 C1614 1.419 . S
C1613 C1608 1.425 . S
C1613 C1610 1.409 . S
C1613 C1611 1.415 . S
C1614 H1604 0.930 . S
C1614 C1612 1.419 . S
C1614 C1615 1.362 . S
C1615 H1605 0.930 . S
C1615 C1608 1.409 . S
C1615 C1614 1.362 . S
H1616 C1622 0.930 . S
H1617 C1625 0.930 . S
H1618 C1626 0.930 . S
H1619 C1627 0.930 . S
H1620 C1630 0.930 . S
H1621 C1631 0.930 . S
C1622 H1616 0.930 . S
C1622 C1623 1.355 . S
C1622 C1624 1.415 . S
C1623 C1622 1.355 . S
C1623 C1625 1.419 . S
C1624 C1622 1.415 . S
C1624 C1629 1.425 . S
C1624 C1631 1.409 . S
C1625 H1617 0.930 . S
C1625 C1623 1.419 . S
C1625 C1626 1.362 . S
C1626 H1618 0.930 . S
C1626 C1625 1.362 . S
C1626 C1629 1.409 . S
C1627 H1619 0.930 . S
C1627 C1628 1.355 . S
C1627 C1629 1.415 1_556 S
C1628 C1627 1.355 . S
C1628 C1630 1.419 . S
C1629 C1624 1.425 . S
C1629 C1626 1.409 . S
C1629 C1627 1.415 1_554 S
C1630 H1620 0.930 . S
C1630 C1628 1.419 . S
C1630 C1631 1.362 1_556 S
C1631 H1621 0.930 . S
C1631 C1624 1.409 . S
C1631 C1630 1.362 1_554 S
H1632 C1638 0.930 . S
H1633 C1641 0.930 . S
H1634 C1642 0.930 . S
H1635 C1643 0.930 . S
H1636 C1646 0.930 . S
H1637 C1647 0.930 . S
C1638 H1632 0.930 . S
C1638 C1639 1.355 . S
C1638 C1640 1.412 1_556 S
C1639 C1638 1.355 . S
C1639 C1641 1.419 . S
C1640 C1638 1.412 1_554 S
C1640 C1645 1.427 . S
C1640 C1647 1.410 . S
C1641 H1633 0.930 . S
C1641 C1639 1.419 . S
C1641 C1642 1.362 1_556 S
C1642 H1634 0.930 . S
C1642 C1641 1.362 1_554 S
C1642 C1645 1.409 . S
C1643 H1635 0.930 . S
C1643 C1644 1.355 . S
C1643 C1645 1.415 . S
C1644 C1643 1.355 . S
C1644 C1646 1.419 . S
C1645 C1640 1.427 . S
C1645 C1642 1.409 . S
C1645 C1643 1.415 . S
C1646 H1636 0.930 . S
C1646 C1644 1.419 . S
C1646 C1647 1.362 . S
C1647 H1637 0.930 . S
C1647 C1640 1.410 . S
C1647 C1646 1.362 . S
H1648 C1654 0.930 . S
H1649 C1657 0.930 . S
H1650 C1658 0.930 . S
H1651 C1659 0.930 . S
H1652 C1662 0.930 . S
H1653 C1663 0.930 . S
C1654 H1648 0.930 . S
C1654 C1655 1.355 . S
C1654 C1656 1.415 1_554 S
C1655 C1654 1.355 . S
C1655 C1657 1.419 . S
C1656 C1654 1.415 1_556 S
C1656 C1661 1.425 . S
C1656 C1663 1.409 . S
C1657 H1649 0.930 . S
C1657 C1655 1.419 . S
C1657 C1658 1.362 . S
C1658 H1650 0.930 . S
C1658 C1657 1.362 . S
C1658 C1661 1.409 1_554 S
C1659 H1651 0.930 . S
C1659 C1660 1.355 . S
C1659 C1661 1.415 . S
C1660 C1659 1.355 . S
C1660 C1662 1.419 . S
C1661 C1656 1.425 . S
C1661 C1658 1.409 1_556 S
C1661 C1659 1.415 . S
C1662 H1652 0.930 . S
C1662 C1660 1.419 . S
C1662 C1663 1.362 . S
C1663 H1653 0.930 . S
C1663 C1656 1.409 . S
C1663 C1662 1.362 . S
H1664 C1670 0.930 . S
H1665 C1673 0.930 . S
H1666 C1674 0.930 . S
H1667 C1675 0.930 . S
H1668 C1678 0.930 . S
H1669 C1679 0.930 . S
C1670 H1664 0.930 . S
C1670 C1671 1.355 . S
C1670 C1672 1.415 . S
C1671 C1670 1.355 . S
C1671 C1673 1.419 . S
C1672 C1670 1.415 . S
C1672 C1677 1.425 . S
C1672 C1679 1.409 1_556 S
C1673 H1665 0.930 . S
C1673 C1671 1.419 . S
C1673 C1674 1.362 . S
C1674 H1666 0.930 . S
C1674 C1673 1.362 . S
C1674 C1677 1.409 . S
C1675 H1667 0.930 . S
C1675 C1676 1.355 1_556 S
C1675 C1677 1.415 . S
C1676 C1675 1.355 1_554 S
C1676 C1678 1.419 . S
C1677 C1672 1.425 . S
C1677 C1674 1.409 . S
C1677 C1675 1.415 . S
C1678 H1668 0.930 . S
C1678 C1676 1.419 . S
C1678 C1679 1.362 . S
C1679 H1669 0.930 . S
C1679 C1672 1.409 1_554 S
C1679 C1678 1.362 . S
H1680 C1686 0.930 . S
H1681 C1689 0.930 . S
H1682 C1690 0.930 1_556 S
H1683 C1691 0.930 . S
H1684 C1694 0.930 . S
H1685 C1695 0.930 . S
C1686 H1680 0.930 . S
C1686 C1687 1.355 . S
C1686 C1688 1.415 . S
C1687 C1686 1.355 . S
C1687 C1689 1.419 . S
C1688 C1686 1.415 . S
C1688 C1693 1.425 1_554 S
C1688 C1695 1.409 1_554 S
C1689 H1681 0.930 . S
C1689 C1687 1.419 . S
C1689 C1690 1.362 . S
C1690 H1682 0.930 1_554 S
C1690 C1689 1.362 . S
C1690 C1693 1.409 1_554 S
C1691 H1683 0.930 . S
C1691 C1692 1.355 . S
C1691 C1693 1.415 . S
C1692 C1691 1.355 . S
C1692 C1694 1.419 . S
C1693 C1688 1.425 1_556 S
C1693 C1690 1.409 1_556 S
C1693 C1691 1.415 . S
C1694 H1684 0.930 . S
C1694 C1692 1.419 . S
C1694 C1695 1.362 . S
C1695 H1685 0.930 . S
C1695 C1688 1.409 1_556 S
C1695 C1694 1.362 . S
H1696 C1702 0.930 . S
H1697 C1705 0.930 . S
H1698 C1706 0.930 . S
H1699 C1707 0.930 . S
H1700 C1710 0.930 . S
H1701 C1711 0.930 . S
C1702 H1696 0.930 . S
C1702 C1703 1.351 . S
C1702 C1704 1.415 . S
C1703 C1702 1.351 . S
C1703 C1705 1.419 1_556 S
C1704 C1702 1.415 . S
C1704 C1709 1.425 . S
C1704 C1711 1.409 . S
C1705 H1697 0.930 . S
C1705 C1703 1.419 1_554 S
C1705 C1706 1.362 1_554 S
C1706 H1698 0.930 . S
C1706 C1705 1.362 1_556 S
C1706 C1709 1.409 . S
C1707 H1699 0.930 . S
C1707 C1708 1.355 . S
C1707 C1709 1.415 . S
C1708 C1707 1.355 . S
C1708 C1710 1.419 . S
C1709 C1704 1.425 . S
C1709 C1706 1.409 . S
C1709 C1707 1.415 . S
C1710 H1700 0.930 . S
C1710 C1708 1.419 . S
C1710 C1711 1.362 . S
C1711 H1701 0.930 . S
C1711 C1704 1.409 . S
C1711 C1710 1.362 . S
H1712 C1718 0.930 . S
H1713 C1721 0.930 . S
H1714 C1722 0.930 . S
H1715 C1723 0.930 1_655 S
H1716 C1726 0.928 1_655 S
H1717 C1727 0.930 . S
C1718 H1712 0.930 . S
C1718 C1719 1.355 . S
C1718 C1720 1.415 . S
C1719 C1718 1.355 . S
C1719 C1721 1.419 . S
C1720 C1718 1.415 . S
C1720 C1725 1.425 . S
C1720 C1727 1.409 . S
C1721 H1713 0.930 . S
C1721 C1719 1.419 . S
C1721 C1722 1.362 . S
C1722 H1714 0.930 . S
C1722 C1721 1.362 . S
C1722 C1725 1.409 . S
C1723 H1715 0.930 1_455 S
C1723 C1724 1.355 1_455 S
C1723 C1725 1.415 . S
C1724 C1723 1.355 1_655 S
C1724 C1726 1.419 1_655 S
C1725 C1720 1.425 . S
C1725 C1722 1.409 . S
C1725 C1723 1.415 . S
C1726 H1716 0.928 1_455 S
C1726 C1724 1.419 1_455 S
C1726 C1727 1.362 . S
C1727 H1717 0.930 . S
C1727 C1720 1.409 . S
C1727 C1726 1.362 . S
H1728 C1734 0.930 . S
H1729 C1737 0.930 . S
H1730 C1738 0.930 . S
H1731 C1739 0.930 . S
H1732 C1742 0.930 . S
H1733 C1743 0.932 1_565 S
C1734 H1728 0.930 . S
C1734 C1735 1.355 . S
C1734 C1736 1.415 1_565 S
C1735 C1734 1.355 . S
C1735 C1737 1.419 . S
C1736 C1734 1.415 1_545 S
C1736 C1741 1.425 . S
C1736 C1743 1.409 . S
C1737 H1729 0.930 . S
C1737 C1735 1.419 . S
C1737 C1738 1.362 1_565 S
C1738 H1730 0.930 . S
C1738 C1737 1.362 1_545 S
C1738 C1741 1.409 . S
C1739 H1731 0.930 . S
C1739 C1740 1.355 . S
C1739 C1741 1.415 . S
C1740 C1739 1.355 . S
C1740 C1742 1.419 . S
C1741 C1736 1.425 . S
C1741 C1738 1.409 . S
C1741 C1739 1.415 . S
C1742 H1732 0.930 . S
C1742 C1740 1.419 . S
C1742 C1743 1.362 . S
C1743 H1733 0.932 1_545 S
C1743 C1736 1.409 . S
C1743 C1742 1.362 . S
H1744 C1750 0.930 . S
H1745 C1753 0.930 . S
H1746 C1754 0.930 . S
H1747 C1755 0.930 . S
H1748 C1758 0.930 . S
H1749 C1759 0.930 . S
C1750 H1744 0.930 . S
C1750 C1751 1.355 . S
C1750 C1752 1.415 1_455 S
C1751 C1750 1.355 . S
C1751 C1753 1.419 . S
C1752 C1750 1.415 1_655 S
C1752 C1757 1.425 . S
C1752 C1759 1.409 . S
C1753 H1745 0.930 . S
C1753 C1751 1.419 . S
C1753 C1754 1.362 1_455 S
C1754 H1746 0.930 . S
C1754 C1753 1.362 1_655 S
C1754 C1757 1.409 . S
C1755 H1747 0.930 . S
C1755 C1756 1.355 . S
C1755 C1757 1.415 . S
C1756 C1755 1.355 . S
C1756 C1758 1.419 . S
C1757 C1752 1.425 . S
C1757 C1754 1.409 . S
C1757 C1755 1.415 . S
C1758 H1748 0.930 . S
C1758 C1756 1.419 . S
C1758 C1759 1.362 . S
C1759 H1749 0.930 . S
C1759 C1752 1.409 . S
C1759 C1758 1.362 . S
H1760 C1766 0.930 . S
H1761 C1769 0.930 . S
H1762 C1770 0.930 . S
H1763 C1771 0.930 . S
H1764 C1774 0.930 . S
H1765 C1775 0.930 . S
C1766 H1760 0.930 . S
C1766 C1767 1.355 . S
C1766 C1768 1.415 . S
C1767 C1766 1.355 . S
C1767 C1769 1.419 . S
C1768 C1766 1.415 . S
C1768 C1773 1.425 . S
C1768 C1775 1.409 . S
C1769 H1761 0.930 . S
C1769 C1767 1.419 . S
C1769 C1770 1.362 . S
C1770 H1762 0.930 . S
C1770 C1769 1.362 . S
C1770 C1773 1.409 . S
C1771 H1763 0.930 . S
C1771 C1772 1.355 . S
C1771 C1773 1.415 1_545 S
C1772 C1771 1.355 . S
C1772 C1774 1.419 . S
C1773 C1768 1.425 . S
C1773 C1770 1.409 . S
C1773 C1771 1.415 1_565 S
C1774 H1764 0.930 . S
C1774 C1772 1.419 . S
C1774 C1775 1.362 1_545 S
C1775 H1765 0.930 . S
C1775 C1768 1.409 . S
C1775 C1774 1.362 1_565 S
H1776 C1782 0.930 . S
H1777 C1785 0.930 . S
H1778 C1786 0.930 . S
H1779 C1787 0.930 . S
H1780 C1790 0.930 . S
H1781 C1791 0.930 . S
C1782 H1776 0.930 . S
C1782 C1783 1.355 . S
C1782 C1784 1.415 1_655 S
C1783 C1782 1.355 . S
C1783 C1785 1.419 . S
C1784 C1782 1.415 1_455 S
C1784 C1789 1.425 . S
C1784 C1791 1.409 . S
C1785 H1777 0.930 . S
C1785 C1783 1.419 . S
C1785 C1786 1.362 1_655 S
C1786 H1778 0.930 . S
C1786 C1785 1.362 1_455 S
C1786 C1789 1.409 . S
C1787 H1779 0.930 . S
C1787 C1788 1.355 . S
C1787 C1789 1.415 . S
C1788 C1787 1.355 . S
C1788 C1790 1.419 . S
C1789 C1784 1.425 . S
C1789 C1786 1.409 . S
C1789 C1787 1.415 . S
C1790 H1780 0.930 . S
C1790 C1788 1.419 . S
C1790 C1791 1.362 . S
C1791 H1781 0.930 . S
C1791 C1784 1.409 . S
C1791 C1790 1.362 . S
H1792 C1798 0.930 . S
H1793 C1801 0.930 . S
H1794 C1802 0.930 . S
H1795 C1803 0.943 . S
H1796 C1806 0.930 1_565 S
H1797 C1807 0.930 . S
C1798 H1792 0.930 . S
C1798 C1799 1.355 . S
C1798 C1800 1.415 . S
C1799 C1798 1.355 . S
C1799 C1801 1.419 . S
C1800 C1798 1.415 . S
C1800 C1805 1.425 . S
C1800 C1807 1.409 . S
C1801 H1793 0.930 . S
C1801 C1799 1.419 . S
C1801 C1802 1.362 . S
C1802 H1794 0.930 . S
C1802 C1801 1.362 . S
C1802 C1805 1.409 . S
C1803 H1795 0.943 . S
C1803 C1804 1.355 1_545 S
C1803 C1805 1.415 . S
C1804 C1803 1.355 1_565 S
C1804 C1806 1.419 1_565 S
C1805 C1800 1.425 . S
C1805 C1802 1.409 . S
C1805 C1803 1.415 . S
C1806 H1796 0.930 1_545 S
C1806 C1804 1.419 1_545 S
C1806 C1807 1.362 . S
C1807 H1797 0.930 . S
C1807 C1800 1.409 . S
C1807 C1806 1.362 . S
H1808 C1814 0.930 . S
H1809 C1817 0.930 . S
H1810 C1818 0.930 . S
H1811 C1819 0.930 . S
H1812 C1822 0.930 . S
H1813 C1823 0.930 . S
C1814 H1808 0.930 . S
C1814 C1815 1.355 . S
C1814 C1816 1.415 1_455 S
C1815 C1814 1.355 . S
C1815 C1817 1.419 . S
C1816 C1814 1.415 1_655 S
C1816 C1821 1.425 . S
C1816 C1823 1.409 . S
C1817 H1809 0.930 . S
C1817 C1815 1.419 . S
C1817 C1818 1.362 . S
C1818 H1810 0.930 . S
C1818 C1817 1.362 . S
C1818 C1821 1.409 1_455 S
C1819 H1811 0.930 . S
C1819 C1820 1.355 . S
C1819 C1821 1.415 . S
C1820 C1819 1.355 . S
C1820 C1822 1.419 . S
C1821 C1816 1.425 . S
C1821 C1818 1.409 1_655 S
C1821 C1819 1.415 . S
C1822 H1812 0.930 . S
C1822 C1820 1.419 . S
C1822 C1823 1.362 . S
C1823 H1813 0.930 . S
C1823 C1816 1.409 . S
C1823 C1822 1.362 . S
H1824 C1830 0.930 . S
H1825 C1833 0.922 1_545 S
H1826 C1834 0.930 . S
H1827 C1835 0.930 . S
H1828 C1838 0.930 . S
H1829 C1839 0.930 . S
C1830 H1824 0.930 . S
C1830 C1831 1.355 . S
C1830 C1832 1.415 1_545 S
C1831 C1830 1.355 . S
C1831 C1833 1.419 1_545 S
C1832 C1830 1.415 1_565 S
C1832 C1837 1.425 . S
C1832 C1839 1.409 . S
C1833 H1825 0.922 1_565 S
C1833 C1831 1.419 1_565 S
C1833 C1834 1.362 . S
C1834 H1826 0.930 . S
C1834 C1833 1.362 . S
C1834 C1837 1.409 . S
C1835 H1827 0.930 . S
C1835 C1836 1.355 . S
C1835 C1837 1.415 . S
C1836 C1835 1.355 . S
C1836 C1838 1.419 . S
C1837 C1832 1.425 . S
C1837 C1834 1.409 . S
C1837 C1835 1.415 . S
C1838 H1828 0.930 . S
C1838 C1836 1.419 . S
C1838 C1839 1.362 . S
C1839 H1829 0.930 . S
C1839 C1832 1.409 . S
C1839 C1838 1.362 . S
H1840 C1846 0.930 . S
H1841 C1849 0.930 . S
H1842 C1850 0.930 . S
H1843 C1851 0.939 . S
H1844 C1854 0.930 . S
H1845 C1855 0.930 . S
C1846 H1840 0.930 . S
C1846 C1847 1.355 . S
C1846 C1848 1.415 . S
C1847 C1846 1.355 . S
C1847 C1849 1.419 . S
C1848 C1846 1.415 . S
C1848 C1853 1.425 . S
C1848 C1855 1.409 1_545 S
C1849 H1841 0.930 . S
C1849 C1847 1.419 . S
C1849 C1850 1.362 . S
C1850 H1842 0.930 . S
C1850 C1849 1.362 . S
C1850 C1853 1.409 . S
C1851 H1843 0.939 . S
C1851 C1852 1.355 . S
C1851 C1853 1.415 1_565 S
C1852 C1851 1.355 . S
C1852 C1854 1.419 . S
C1853 C1848 1.425 . S
C1853 C1850 1.409 . S
C1853 C1851 1.415 1_545 S
C1854 H1844 0.930 . S
C1854 C1852 1.419 . S
C1854 C1855 1.362 . S
C1855 H1845 0.930 . S
C1855 C1848 1.409 1_565 S
C1855 C1854 1.362 . S
H1856 C1862 0.930 . S
H1857 C1865 0.930 . S
H1858 C1866 0.930 . S
H1859 C1867 0.930 . S
H1860 C1870 0.930 . S
H1861 C1871 0.930 . S
C1862 H1856 0.930 . S
C1862 C1863 1.355 . S
C1862 C1864 1.415 1_545 S
C1863 C1862 1.355 . S
C1863 C1865 1.419 . S
C1864 C1862 1.415 1_565 S
C1864 C1869 1.425 . S
C1864 C1871 1.409 . S
C1865 H1857 0.930 . S
C1865 C1863 1.419 . S
C1865 C1866 1.362 1_545 S
C1866 H1858 0.930 . S
C1866 C1865 1.362 1_565 S
C1866 C1869 1.409 . S
C1867 H1859 0.930 . S
C1867 C1868 1.355 . S
C1867 C1869 1.415 . S
C1868 C1867 1.355 . S
C1868 C1870 1.419 . S
C1869 C1864 1.425 . S
C1869 C1866 1.409 . S
C1869 C1867 1.415 . S
C1870 H1860 0.930 . S
C1870 C1868 1.419 . S
C1870 C1871 1.362 . S
C1871 H1861 0.930 . S
C1871 C1864 1.409 . S
C1871 C1870 1.362 . S
H1872 C1878 0.930 . S
H1873 C1881 0.930 . S
H1874 C1882 0.930 1_655 S
H1875 C1883 0.930 . S
H1876 C1886 0.930 . S
H1877 C1887 0.930 . S
C1878 H1872 0.930 . S
C1878 C1879 1.355 . S
C1878 C1880 1.415 . S
C1879 C1878 1.355 . S
C1879 C1881 1.419 . S
C1880 C1878 1.415 . S
C1880 C1885 1.425 1_455 S
C1880 C1887 1.409 . S
C1881 H1873 0.930 . S
C1881 C1879 1.419 . S
C1881 C1882 1.362 . S
C1882 H1874 0.930 1_455 S
C1882 C1881 1.362 . S
C1882 C1885 1.409 1_455 S
C1883 H1875 0.930 . S
C1883 C1884 1.355 . S
C1883 C1885 1.415 . S
C1884 C1883 1.355 . S
C1884 C1886 1.419 . S
C1885 C1880 1.425 1_655 S
C1885 C1882 1.409 1_655 S
C1885 C1883 1.415 . S
C1886 H1876 0.930 . S
C1886 C1884 1.419 . S
C1886 C1887 1.362 1_655 S
C1887 H1877 0.930 . S
C1887 C1880 1.409 . S
C1887 C1886 1.362 1_455 S
H1888 C1894 0.930 . S
H1889 C1897 0.930 . S
H1890 C1898 0.930 . S
H1891 C1899 0.930 . S
H1892 C1902 0.930 . S
H1893 C1903 0.968 . S
C1894 H1888 0.930 . S
C1894 C1895 1.355 . S
C1894 C1896 1.415 1_565 S
C1895 C1894 1.355 . S
C1895 C1897 1.419 . S
C1896 C1894 1.415 1_545 S
C1896 C1901 1.425 . S
C1896 C1903 1.409 . S
C1897 H1889 0.930 . S
C1897 C1895 1.419 . S
C1897 C1898 1.362 1_565 S
C1898 H1890 0.930 . S
C1898 C1897 1.362 1_545 S
C1898 C1901 1.409 . S
C1899 H1891 0.930 . S
C1899 C1900 1.355 . S
C1899 C1901 1.415 . S
C1900 C1899 1.355 . S
C1900 C1902 1.419 . S
C1901 C1896 1.425 . S
C1901 C1898 1.409 . S
C1901 C1899 1.415 . S
C1902 H1892 0.930 . S
C1902 C1900 1.419 . S
C1902 C1903 1.362 . S
C1903 H1893 0.968 . S
C1903 C1896 1.409 . S
C1903 C1902 1.362 . S
H1904 C1910 0.930 . S
H1905 C1913 0.930 . S
H1906 C1914 0.930 . S
H1907 C1915 0.930 . S
H1908 C1918 0.930 . S
H1909 C1919 0.930 . S
C1910 H1904 0.930 . S
C1910 C1911 1.355 . S
C1910 C1912 1.415 1_455 S
C1911 C1910 1.355 . S
C1911 C1913 1.419 . S
C1912 C1910 1.415 1_655 S
C1912 C1917 1.425 . S
C1912 C1919 1.409 . S
C1913 H1905 0.930 . S
C1913 C1911 1.419 . S
C1913 C1914 1.362 1_455 S
C1914 H1906 0.930 . S
C1914 C1913 1.362 1_655 S
C1914 C1917 1.409 . S
C1915 H1907 0.930 . S
C1915 C1916 1.355 . S
C1915 C1917 1.415 . S
C1916 C1915 1.355 . S
C1916 C1918 1.419 . S
C1917 C1912 1.425 . S
C1917 C1914 1.409 . S
C1917 C1915 1.415 . S
C1918 H1908 0.930 . S
C1918 C1916 1.419 . S
C1918 C1919 1.362 . S
C1919 H1909 0.930 . S
C1919 C1912 1.409 . S
C1919 C1918 1.362 . S
H1920 C1926 0.930 . S
H1921 C1929 0.930 . S
H1922 C1930 0.930 . S
H1923 C1931 0.930 . S
H1924 C1934 0.930 . S
H1925 C1935 0.930 . S
C1926 H1920 0.930 . S
C1926 C1927 1.355 . S
C1926 C1928 1.415 . S
C1927 C1926 1.355 . S
C1927 C1929 1.419 . S
C1928 C1926 1.415 . S
C1928 C1933 1.425 . S
C1928 C1935 1.410 . S
C1929 H1921 0.930 . S
C1929 C1927 1.419 . S
C1929 C1930 1.362 . S
C1930 H1922 0.930 . S
C1930 C1929 1.362 . S
C1930 C1933 1.409 . S
C1931 H1923 0.930 . S
C1931 C1932 1.355 . S
C1931 C1933 1.415 1_545 S
C1932 C1931 1.355 . S
C1932 C1934 1.419 . S
C1933 C1928 1.425 . S
C1933 C1930 1.409 . S
C1933 C1931 1.415 1_565 S
C1934 H1924 0.930 . S
C1934 C1932 1.419 . S
C1934 C1935 1.361 1_545 S
C1935 H1925 0.930 . S
C1935 C1928 1.410 . S
C1935 C1934 1.361 1_565 S
H1936 C1942 0.930 . S
H1937 C1945 0.930 . S
H1938 C1946 0.930 . S
H1939 C1947 0.930 . S
H1940 C1950 0.930 . S
H1941 C1951 0.930 . S
C1942 H1936 0.930 . S
C1942 C1943 1.355 . S
C1942 C1944 1.415 . S
C1943 C1942 1.355 . S
C1943 C1945 1.419 . S
C1944 C1942 1.415 . S
C1944 C1949 1.425 . S
C1944 C1951 1.409 . S
C1945 H1937 0.930 . S
C1945 C1943 1.419 . S
C1945 C1946 1.362 . S
C1946 H1938 0.930 . S
C1946 C1945 1.362 . S
C1946 C1949 1.409 . S
C1947 H1939 0.930 . S
C1947 C1948 1.355 1_455 S
C1947 C1949 1.415 . S
C1948 C1947 1.355 1_655 S
C1948 C1950 1.419 . S
C1949 C1944 1.425 . S
C1949 C1946 1.409 . S
C1949 C1947 1.415 . S
C1950 H1940 0.930 . S
C1950 C1948 1.419 . S
C1950 C1951 1.362 1_655 S
C1951 H1941 0.930 . S
C1951 C1944 1.409 . S
C1951 C1950 1.362 1_455 S
H1952 C1958 0.930 . S
H1953 C1961 0.930 . S
H1954 C1962 0.930 . S
H1955 C1963 0.930 . S
H1956 C1966 0.930 . S
H1957 C1967 0.930 . S
C1958 H1952 0.930 . S
C1958 C1959 1.355 . S
C1958 C1960 1.415 1_455 S
C1959 C1958 1.355 . S
C1959 C1961 1.419 . S
C1960 C1958 1.415 1_655 S
C1960 C1965 1.425 . S
C1960 C1967 1.409 . S
C1961 H1953 0.930 . S
C1961 C1959 1.419 . S
C1961 C1962 1.362 . S
C1962 H1954 0.930 . S
C1962 C1961 1.362 . S
C1962 C1965 1.409 1_455 S
C1963 H1955 0.930 . S
C1963 C1964 1.355 . S
C1963 C1965 1.415 . S
C1964 C1963 1.355 . S
C1964 C1966 1.419 . S
C1965 C1960 1.425 . S
C1965 C1962 1.409 1_655 S
C1965 C1963 1.415 . S
C1966 H1956 0.930 . S
C1966 C1964 1.419 . S
C1966 C1967 1.362 . S
C1967 H1957 0.930 . S
C1967 C1960 1.409 . S
C1967 C1966 1.362 . S
H1968 C1974 0.930 . S
H1969 C1977 0.930 . S
H1970 C1978 0.930 . S
H1971 C1979 0.930 . S
H1972 C1982 0.930 . S
H1973 C1983 0.930 . S
C1974 H1968 0.930 . S
C1974 C1975 1.355 . S
C1974 C1976 1.415 . S
C1975 C1974 1.355 . S
C1975 C1977 1.419 . S
C1976 C1974 1.415 . S
C1976 C1981 1.425 . S
C1976 C1983 1.409 . S
C1977 H1969 0.930 . S
C1977 C1975 1.419 . S
C1977 C1978 1.362 . S
C1978 H1970 0.930 . S
C1978 C1977 1.362 . S
C1978 C1981 1.409 . S
C1979 H1971 0.930 . S
C1979 C1980 1.355 . S
C1979 C1981 1.415 . S
C1980 C1979 1.355 . S
C1980 C1982 1.419 . S
C1981 C1976 1.425 . S
C1981 C1978 1.409 . S
C1981 C1979 1.415 . S
C1982 H1972 0.930 . S
C1982 C1980 1.419 . S
C1982 C1983 1.362 . S
C1983 H1973 0.930 . S
C1983 C1976 1.409 . S
C1983 C1982 1.362 . S
H1984 C1990 0.930 . S
H1985 C1993 0.930 . S
H1986 C1994 0.930 . S
H1987 C1995 0.930 . S
H1988 C1998 0.930 . S
H1989 C1999 0.930 . S
C1990 H1984 0.930 . S
C1990 C1991 1.355 . S
C1990 C1992 1.415 . S
C1991 C1990 1.355 . S
C1991 C1993 1.419 . S
C1992 C1990 1.415 . S
C1992 C1997 1.425 . S
C1992 C1999 1.409 . S
C1993 H1985 0.930 . S
C1993 C1991 1.419 . S
C1993 C1994 1.362 . S
C1994 H1986 0.930 . S
C1994 C1993 1.362 . S
C1994 C1997 1.409 . S
C1995 H1987 0.930 . S
C1995 C1996 1.355 . S
C1995 C1997 1.415 . S
C1996 C1995 1.355 . S
C1996 C1998 1.419 . S
C1997 C1992 1.425 . S
C1997 C1994 1.409 . S
C1997 C1995 1.415 . S
C1998 H1988 0.930 . S
C1998 C1996 1.419 . S
C1998 C1999 1.362 . S
C1999 H1989 0.930 . S
C1999 C1992 1.409 . S
C1999 C1998 1.362 . S
H2000 C2006 0.930 . S
H2001 C2009 0.930 . S
H2002 C2010 0.930 . S
H2003 C2011 0.930 . S
H2004 C2014 0.930 . S
H2005 C2015 0.930 . S
C2006 H2000 0.930 . S
C2006 C2007 1.355 . S
C2006 C2008 1.415 . S
C2007 C2006 1.355 . S
C2007 C2009 1.419 . S
C2008 C2006 1.415 . S
C2008 C2013 1.425 . S
C2008 C2015 1.409 . S
C2009 H2001 0.930 . S
C2009 C2007 1.419 . S
C2009 C2010 1.362 . S
C2010 H2002 0.930 . S
C2010 C2009 1.362 . S
C2010 C2013 1.409 . S
C2011 H2003 0.930 . S
C2011 C2012 1.355 . S
C2011 C2013 1.415 . S
C2012 C2011 1.355 . S
C2012 C2014 1.419 . S
C2013 C2008 1.425 . S
C2013 C2010 1.409 . S
C2013 C2011 1.415 . S
C2014 H2004 0.930 . S
C2014 C2012 1.419 . S
C2014 C2015 1.362 . S
C2015 H2005 0.930 . S
C2015 C2008 1.409 . S
C2015 C2014 1.362 . S
H2016 C2022 0.930 . S
H2017 C2025 0.930 . S
H2018 C2026 0.930 . S
H2019 C2027 0.930 . S
H2020 C2030 0.930 . S
H2021 C2031 0.930 . S
C2022 H2016 0.930 . S
C2022 C2023 1.355 . S
C2022 C2024 1.415 . S
C2023 C2022 1.355 . S
C2023 C2025 1.419 . S
C2024 C2022 1.415 . S
C2024 C2029 1.425 . S
C2024 C2031 1.409 . S
C2025 H2017 0.930 . S
C2025 C2023 1.419 . S
C2025 C2026 1.362 . S
C2026 H2018 0.930 . S
C2026 C2025 1.362 . S
C2026 C2029 1.409 . S
C2027 H2019 0.930 . S
C2027 C2028 1.355 . S
C2027 C2029 1.415 . S
C2028 C2027 1.355 . S
C2028 C2030 1.419 . S
C2029 C2024 1.425 . S
C2029 C2026 1.409 . S
C2029 C2027 1.415 . S
C2030 H2020 0.930 . S
C2030 C2028 1.419 . S
C2030 C2031 1.362 . S
C2031 H2021 0.930 . S
C2031 C2024 1.409 . S
C2031 C2030 1.362 . S
H2032 C2038 0.930 . S
H2033 C2041 0.930 . S
H2034 C2042 0.930 . S
H2035 C2043 0.930 . S
H2036 C2046 0.930 . S
H2037 C2047 0.930 . S
C2038 H2032 0.930 . S
C2038 C2039 1.355 . S
C2038 C2040 1.415 . S
C2039 C2038 1.355 . S
C2039 C2041 1.419 . S
C2040 C2038 1.415 . S
C2040 C2045 1.425 . S
C2040 C2047 1.409 . S
C2041 H2033 0.930 . S
C2041 C2039 1.419 . S
C2041 C2042 1.362 . S
C2042 H2034 0.930 . S
C2042 C2041 1.362 . S
C2042 C2045 1.409 . S
C2043 H2035 0.930 . S
C2043 C2044 1.355 . S
C2043 C2045 1.415 . S
C2044 C2043 1.355 . S
C2044 C2046 1.419 . S
C2045 C2040 1.425 . S
C2045 C2042 1.409 . S
C2045 C2043 1.415 . S
C2046 H2036 0.930 . S
C2046 C2044 1.419 . S
C2046 C2047 1.362 . S
C2047 H2037 0.930 . S
C2047 C2040 1.409 . S
C2047 C2046 1.362 . S
H2048 C2054 0.930 . S
H2049 C2057 0.930 . S
H2050 C2058 0.930 . S
H2051 C2059 0.930 . S
H2052 C2062 0.930 . S
H2053 C2063 0.930 . S
C2054 H2048 0.930 . S
C2054 C2055 1.355 . S
C2054 C2056 1.415 . S
C2055 C2054 1.355 . S
C2055 C2057 1.419 . S
C2056 C2054 1.415 . S
C2056 C2061 1.425 . S
C2056 C2063 1.409 . S
C2057 H2049 0.930 . S
C2057 C2055 1.419 . S
C2057 C2058 1.362 . S
C2058 H2050 0.930 . S
C2058 C2057 1.362 . S
C2058 C2061 1.409 . S
C2059 H2051 0.930 . S
C2059 C2060 1.355 . S
C2059 C2061 1.415 . S
C2060 C2059 1.355 . S
C2060 C2062 1.419 . S
C2061 C2056 1.425 . S
C2061 C2058 1.409 . S
C2061 C2059 1.415 . S
C2062 H2052 0.930 . S
C2062 C2060 1.419 . S
C2062 C2063 1.362 . S
C2063 H2053 0.930 . S
C2063 C2056 1.409 . S
C2063 C2062 1.362 . S
H2064 C2070 0.930 . S
H2065 C2073 0.930 . S
H2066 C2074 0.930 . S
H2067 C2075 0.930 . S
H2068 C2078 0.930 . S
H2069 C2079 0.930 . S
C2070 H2064 0.930 . S
C2070 C2071 1.355 . S
C2070 C2072 1.415 . S
C2071 C2070 1.355 . S
C2071 C2073 1.419 . S
C2072 C2070 1.415 . S
C2072 C2077 1.425 . S
C2072 C2079 1.409 . S
C2073 H2065 0.930 . S
C2073 C2071 1.419 . S
C2073 C2074 1.362 . S
C2074 H2066 0.930 . S
C2074 C2073 1.362 . S
C2074 C2077 1.409 . S
C2075 H2067 0.930 . S
C2075 C2076 1.355 . S
C2075 C2077 1.415 . S
C2076 C2075 1.355 . S
C2076 C2078 1.419 . S
C2077 C2072 1.425 . S
C2077 C2074 1.409 . S
C2077 C2075 1.415 . S
C2078 H2068 0.930 . S
C2078 C2076 1.419 . S
C2078 C2079 1.362 . S
C2079 H2069 0.930 . S
C2079 C2072 1.409 . S
C2079 C2078 1.362 . S
H2080 C2086 0.930 . S
H2081 C2089 0.930 . S
H2082 C2090 0.930 . S
H2083 C2091 0.930 . S
H2084 C2094 0.930 . S
H2085 C2095 0.930 . S
C2086 H2080 0.930 . S
C2086 C2087 1.355 . S
C2086 C2088 1.415 . S
C2087 C2086 1.355 . S
C2087 C2089 1.419 . S
C2088 C2086 1.415 . S
C2088 C2093 1.425 . S
C2088 C2095 1.409 . S
C2089 H2081 0.930 . S
C2089 C2087 1.419 . S
C2089 C2090 1.362 . S
C2090 H2082 0.930 . S
C2090 C2089 1.362 . S
C2090 C2093 1.409 . S
C2091 H2083 0.930 . S
C2091 C2092 1.355 . S
C2091 C2093 1.415 . S
C2092 C2091 1.355 . S
C2092 C2094 1.419 . S
C2093 C2088 1.425 . S
C2093 C2090 1.409 . S
C2093 C2091 1.415 . S
C2094 H2084 0.930 . S
C2094 C2092 1.419 . S
C2094 C2095 1.362 . S
C2095 H2085 0.930 . S
C2095 C2088 1.409 . S
C2095 C2094 1.362 . S
H2096 C2102 0.930 . S
H2097 C2105 0.930 . S
H2098 C2106 0.930 . S
H2099 C2107 0.930 . S
H2100 C2110 0.930 . S
H2101 C2111 0.930 . S
C2102 H2096 0.930 . S
C2102 C2103 1.355 . S
C2102 C2104 1.415 . S
C2103 C2102 1.355 . S
C2103 C2105 1.419 . S
C2104 C2102 1.415 . S
C2104 C2109 1.425 . S
C2104 C2111 1.409 . S
C2105 H2097 0.930 . S
C2105 C2103 1.419 . S
C2105 C2106 1.362 . S
C2106 H2098 0.930 . S
C2106 C2105 1.362 . S
C2106 C2109 1.409 . S
C2107 H2099 0.930 . S
C2107 C2108 1.355 . S
C2107 C2109 1.415 . S
C2108 C2107 1.355 . S
C2108 C2110 1.419 . S
C2109 C2104 1.425 . S
C2109 C2106 1.409 . S
C2109 C2107 1.415 . S
C2110 H2100 0.930 . S
C2110 C2108 1.419 . S
C2110 C2111 1.362 . S
C2111 H2101 0.930 . S
C2111 C2104 1.409 . S
C2111 C2110 1.362 . S
H2112 C2118 0.930 . S
H2113 C2121 0.930 . S
H2114 C2122 0.930 . S
H2115 C2123 0.930 . S
H2116 C2126 0.930 . S
H2117 C2127 0.930 . S
C2118 H2112 0.930 . S
C2118 C2119 1.355 . S
C2118 C2120 1.415 . S
C2119 C2118 1.355 . S
C2119 C2121 1.419 . S
C2120 C2118 1.415 . S
C2120 C2125 1.425 . S
C2120 C2127 1.409 . S
C2121 H2113 0.930 . S
C2121 C2119 1.419 . S
C2121 C2122 1.362 . S
C2122 H2114 0.930 . S
C2122 C2121 1.362 . S
C2122 C2125 1.409 . S
C2123 H2115 0.930 . S
C2123 C2124 1.355 . S
C2123 C2125 1.415 . S
C2124 C2123 1.355 . S
C2124 C2126 1.419 . S
C2125 C2120 1.425 . S
C2125 C2122 1.409 . S
C2125 C2123 1.415 . S
C2126 H2116 0.930 . S
C2126 C2124 1.419 . S
C2126 C2127 1.362 . S
C2127 H2117 0.930 . S
C2127 C2120 1.409 . S
C2127 C2126 1.362 . S
H2128 C2134 0.930 . S
H2129 C2137 0.930 . S
H2130 C2138 0.930 . S
H2131 C2139 0.930 . S
H2132 C2142 0.930 . S
H2133 C2143 0.930 . S
C2134 H2128 0.930 . S
C2134 C2135 1.355 . S
C2134 C2136 1.415 . S
C2135 C2134 1.355 . S
C2135 C2137 1.419 . S
C2136 C2134 1.415 . S
C2136 C2141 1.425 . S
C2136 C2143 1.409 . S
C2137 H2129 0.930 . S
C2137 C2135 1.419 . S
C2137 C2138 1.362 . S
C2138 H2130 0.930 . S
C2138 C2137 1.362 . S
C2138 C2141 1.409 . S
C2139 H2131 0.930 . S
C2139 C2140 1.355 . S
C2139 C2141 1.415 . S
C2140 C2139 1.355 . S
C2140 C2142 1.419 . S
C2141 C2136 1.425 . S
C2141 C2138 1.409 . S
C2141 C2139 1.415 . S
C2142 H2132 0.930 . S
C2142 C2140 1.419 . S
C2142 C2143 1.362 . S
C2143 H2133 0.930 . S
C2143 C2136 1.409 . S
C2143 C2142 1.362 . S
H2144 C2150 0.930 . S
H2145 C2153 0.930 . S
H2146 C2154 0.930 . S
H2147 C2155 0.930 . S
H2148 C2158 0.930 . S
H2149 C2159 0.930 . S
C2150 H2144 0.930 . S
C2150 C2151 1.355 . S
C2150 C2152 1.415 . S
C2151 C2150 1.355 . S
C2151 C2153 1.419 . S
C2152 C2150 1.415 . S
C2152 C2157 1.425 . S
C2152 C2159 1.409 . S
C2153 H2145 0.930 . S
C2153 C2151 1.419 . S
C2153 C2154 1.362 . S
C2154 H2146 0.930 . S
C2154 C2153 1.362 . S
C2154 C2157 1.409 . S
C2155 H2147 0.930 . S
C2155 C2156 1.355 . S
C2155 C2157 1.415 . S
C2156 C2155 1.355 . S
C2156 C2158 1.419 . S
C2157 C2152 1.425 . S
C2157 C2154 1.409 . S
C2157 C2155 1.415 . S
C2158 H2148 0.930 . S
C2158 C2156 1.419 . S
C2158 C2159 1.362 . S
C2159 H2149 0.930 . S
C2159 C2152 1.409 . S
C2159 C2158 1.362 . S
H2160 C2166 0.930 . S
H2161 C2169 0.930 . S
H2162 C2170 0.930 . S
H2163 C2171 0.930 . S
H2164 C2174 0.930 . S
H2165 C2175 0.930 . S
C2166 H2160 0.930 . S
C2166 C2167 1.355 . S
C2166 C2168 1.415 . S
C2167 C2166 1.355 . S
C2167 C2169 1.419 . S
C2168 C2166 1.415 . S
C2168 C2173 1.425 . S
C2168 C2175 1.409 . S
C2169 H2161 0.930 . S
C2169 C2167 1.419 . S
C2169 C2170 1.362 . S
C2170 H2162 0.930 . S
C2170 C2169 1.362 . S
C2170 C2173 1.409 . S
C2171 H2163 0.930 . S
C2171 C2172 1.355 . S
C2171 C2173 1.415 . S
C2172 C2171 1.355 . S
C2172 C2174 1.419 . S
C2173 C2168 1.425 . S
C2173 C2170 1.409 . S
C2173 C2171 1.415 . S
C2174 H2164 0.930 . S
C2174 C2172 1.419 . S
C2174 C2175 1.362 . S
C2175 H2165 0.930 . S
C2175 C2168 1.409 . S
C2175 C2174 1.362 . S
H2176 C2182 0.930 . S
H2177 C2185 0.930 . S
H2178 C2186 0.930 . S
H2179 C2187 0.930 . S
H2180 C2190 0.930 . S
H2181 C2191 0.930 . S
C2182 H2176 0.930 . S
C2182 C2183 1.355 . S
C2182 C2184 1.415 . S
C2183 C2182 1.355 . S
C2183 C2185 1.419 . S
C2184 C2182 1.415 . S
C2184 C2189 1.425 . S
C2184 C2191 1.409 . S
C2185 H2177 0.930 . S
C2185 C2183 1.419 . S
C2185 C2186 1.362 . S
C2186 H2178 0.930 . S
C2186 C2185 1.362 . S
C2186 C2189 1.409 . S
C2187 H2179 0.930 . S
C2187 C2188 1.355 . S
C2187 C2189 1.415 . S
C2188 C2187 1.355 . S
C2188 C2190 1.419 . S
C2189 C2184 1.425 . S
C2189 C2186 1.409 . S
C2189 C2187 1.415 . S
C2190 H2180 0.930 . S
C2190 C2188 1.419 . S
C2190 C2191 1.362 . S
C2191 H2181 0.930 . S
C2191 C2184 1.409 . S
C2191 C2190 1.362 . S
H2192 C2198 0.930 . S
H2193 C2201 0.930 . S
H2194 C2202 0.930 . S
H2195 C2203 0.930 . S
H2196 C2206 0.930 . S
H2197 C2207 0.930 . S
C2198 H2192 0.930 . S
C2198 C2199 1.355 . S
C2198 C2200 1.415 . S
C2199 C2198 1.355 . S
C2199 C2201 1.419 . S
C2200 C2198 1.415 . S
C2200 C2205 1.425 . S
C2200 C2207 1.409 . S
C2201 H2193 0.930 . S
C2201 C2199 1.419 . S
C2201 C2202 1.362 . S
C2202 H2194 0.930 . S
C2202 C2201 1.362 . S
C2202 C2205 1.409 . S
C2203 H2195 0.930 . S
C2203 C2204 1.355 . S
C2203 C2205 1.415 . S
C2204 C2203 1.355 . S
C2204 C2206 1.419 . S
C2205 C2200 1.425 . S
C2205 C2202 1.409 . S
C2205 C2203 1.415 . S
C2206 H2196 0.930 . S
C2206 C2204 1.419 . S
C2206 C2207 1.362 . S
C2207 H2197 0.930 . S
C2207 C2200 1.409 . S
C2207 C2206 1.362 . S
H2208 C2214 0.930 . S
H2209 C2217 0.930 . S
H2210 C2218 0.930 . S
H2211 C2219 0.930 . S
H2212 C2222 0.930 . S
H2213 C2223 0.930 . S
C2214 H2208 0.930 . S
C2214 C2215 1.355 . S
C2214 C2216 1.415 . S
C2215 C2214 1.355 . S
C2215 C2217 1.419 . S
C2216 C2214 1.415 . S
C2216 C2221 1.425 . S
C2216 C2223 1.409 . S
C2217 H2209 0.930 . S
C2217 C2215 1.419 . S
C2217 C2218 1.362 . S
C2218 H2210 0.930 . S
C2218 C2217 1.362 . S
C2218 C2221 1.409 . S
C2219 H2211 0.930 . S
C2219 C2220 1.355 . S
C2219 C2221 1.415 . S
C2220 C2219 1.355 . S
C2220 C2222 1.419 . S
C2221 C2216 1.425 . S
C2221 C2218 1.409 . S
C2221 C2219 1.415 . S
C2222 H2212 0.930 . S
C2222 C2220 1.419 . S
C2222 C2223 1.362 . S
C2223 H2213 0.930 . S
C2223 C2216 1.409 . S
C2223 C2222 1.362 . S
H2224 C2230 0.930 . S
H2225 C2233 0.930 . S
H2226 C2234 0.930 . S
H2227 C2235 0.930 . S
H2228 C2238 0.930 . S
H2229 C2239 0.930 . S
C2230 H2224 0.930 . S
C2230 C2231 1.355 . S
C2230 C2232 1.415 . S
C2231 C2230 1.355 . S
C2231 C2233 1.419 . S
C2232 C2230 1.415 . S
C2232 C2237 1.425 . S
C2232 C2239 1.409 . S
C2233 H2225 0.930 . S
C2233 C2231 1.419 . S
C2233 C2234 1.362 . S
C2234 H2226 0.930 . S
C2234 C2233 1.362 . S
C2234 C2237 1.409 . S
C2235 H2227 0.930 . S
C2235 C2236 1.355 . S
C2235 C2237 1.415 . S
C2236 C2235 1.355 . S
C2236 C2238 1.419 . S
C2237 C2232 1.425 . S
C2237 C2234 1.409 . S
C2237 C2235 1.415 . S
C2238 H2228 0.930 . S
C2238 C2236 1.419 . S
C2238 C2239 1.362 . S
C2239 H2229 0.930 . S
C2239 C2232 1.409 . S
C2239 C2238 1.362 . S
H2240 C2246 0.930 . S
H2241 C2249 0.930 . S
H2242 C2250 0.930 . S
H2243 C2251 0.930 . S
H2244 C2254 0.930 . S
H2245 C2255 0.930 . S
C2246 H2240 0.930 . S
C2246 C2247 1.355 . S
C2246 C2248 1.415 . S
C2247 C2246 1.355 . S
C2247 C2249 1.419 . S
C2248 C2246 1.415 . S
C2248 C2253 1.425 . S
C2248 C2255 1.409 . S
C2249 H2241 0.930 . S
C2249 C2247 1.419 . S
C2249 C2250 1.362 . S
C2250 H2242 0.930 . S
C2250 C2249 1.362 . S
C2250 C2253 1.409 . S
C2251 H2243 0.930 . S
C2251 C2252 1.355 . S
C2251 C2253 1.415 . S
C2252 C2251 1.355 . S
C2252 C2254 1.419 . S
C2253 C2248 1.425 . S
C2253 C2250 1.409 . S
C2253 C2251 1.415 . S
C2254 H2244 0.930 . S
C2254 C2252 1.419 . S
C2254 C2255 1.362 . S
C2255 H2245 0.930 . S
C2255 C2248 1.409 . S
C2255 C2254 1.362 . S
H2256 C2262 0.930 . S
H2257 C2265 0.930 . S
H2258 C2266 0.930 . S
H2259 C2267 0.930 . S
H2260 C2270 0.930 . S
H2261 C2271 0.930 . S
C2262 H2256 0.930 . S
C2262 C2263 1.355 . S
C2262 C2264 1.415 . S
C2263 C2262 1.355 . S
C2263 C2265 1.419 . S
C2264 C2262 1.415 . S
C2264 C2269 1.425 . S
C2264 C2271 1.409 . S
C2265 H2257 0.930 . S
C2265 C2263 1.419 . S
C2265 C2266 1.362 . S
C2266 H2258 0.930 . S
C2266 C2265 1.362 . S
C2266 C2269 1.409 . S
C2267 H2259 0.930 . S
C2267 C2268 1.355 . S
C2267 C2269 1.415 . S
C2268 C2267 1.355 . S
C2268 C2270 1.419 . S
C2269 C2264 1.425 . S
C2269 C2266 1.409 . S
C2269 C2267 1.415 . S
C2270 H2260 0.930 . S
C2270 C2268 1.419 . S
C2270 C2271 1.362 . S
C2271 H2261 0.930 . S
C2271 C2264 1.409 . S
C2271 C2270 1.362 . S
H2272 C2278 0.930 . S
H2273 C2281 0.930 . S
H2274 C2282 0.930 . S
H2275 C2283 0.930 . S
H2276 C2286 0.930 . S
H2277 C2287 0.930 . S
C2278 H2272 0.930 . S
C2278 C2279 1.355 . S
C2278 C2280 1.415 . S
C2279 C2278 1.355 . S
C2279 C2281 1.419 . S
C2280 C2278 1.415 . S
C2280 C2285 1.425 . S
C2280 C2287 1.409 . S
C2281 H2273 0.930 . S
C2281 C2279 1.419 . S
C2281 C2282 1.362 . S
C2282 H2274 0.930 . S
C2282 C2281 1.362 . S
C2282 C2285 1.409 . S
C2283 H2275 0.930 . S
C2283 C2284 1.355 . S
C2283 C2285 1.415 . S
C2284 C2283 1.355 . S
C2284 C2286 1.419 . S
C2285 C2280 1.425 . S
C2285 C2282 1.409 . S
C2285 C2283 1.415 . S
C2286 H2276 0.930 . S
C2286 C2284 1.419 . S
C2286 C2287 1.362 . S
C2287 H2277 0.930 . S
C2287 C2280 1.409 . S
C2287 C2286 1.362 . S
H2288 C2294 0.930 . S
H2289 C2297 0.930 . S
H2290 C2298 0.930 . S
H2291 C2299 0.930 . S
H2292 C2302 0.930 . S
H2293 C2303 0.930 . S
C2294 H2288 0.930 . S
C2294 C2295 1.355 . S
C2294 C2296 1.415 . S
C2295 C2294 1.355 . S
C2295 C2297 1.419 . S
C2296 C2294 1.415 . S
C2296 C2301 1.425 . S
C2296 C2303 1.409 . S
C2297 H2289 0.930 . S
C2297 C2295 1.419 . S
C2297 C2298 1.362 . S
C2298 H2290 0.930 . S
C2298 C2297 1.362 . S
C2298 C2301 1.409 . S
C2299 H2291 0.930 . S
C2299 C2300 1.355 . S
C2299 C2301 1.415 . S
C2300 C2299 1.355 . S
C2300 C2302 1.419 . S
C2301 C2296 1.425 . S
C2301 C2298 1.409 . S
C2301 C2299 1.415 . S
C2302 H2292 0.930 . S
C2302 C2300 1.419 . S
C2302 C2303 1.362 . S
C2303 H2293 0.930 . S
C2303 C2296 1.409 . S
C2303 C2302 1.362 . S
H2304 C2310 0.930 . S
H2305 C2313 0.930 . S
H2306 C2314 0.930 . S
H2307 C2315 0.930 . S
H2308 C2318 0.930 . S
H2309 C2319 0.930 . S
C2310 H2304 0.930 . S
C2310 C2311 1.355 . S
C2310 C2312 1.415 . S
C2311 C2310 1.355 . S
C2311 C2313 1.419 . S
C2312 C2310 1.415 . S
C2312 C2317 1.425 . S
C2312 C2319 1.409 . S
C2313 H2305 0.930 . S
C2313 C2311 1.419 . S
C2313 C2314 1.362 . S
C2314 H2306 0.930 . S
C2314 C2313 1.362 . S
C2314 C2317 1.409 . S
C2315 H2307 0.930 . S
C2315 C2316 1.355 . S
C2315 C2317 1.415 . S
C2316 C2315 1.355 . S
C2316 C2318 1.419 . S
C2317 C2312 1.425 . S
C2317 C2314 1.409 . S
C2317 C2315 1.415 . S
C2318 H2308 0.930 . S
C2318 C2316 1.419 . S
C2318 C2319 1.362 . S
C2319 H2309 0.930 . S
C2319 C2312 1.409 . S
C2319 C2318 1.362 . S
H2320 C2326 0.930 . S
H2321 C2329 0.930 . S
H2322 C2330 0.930 . S
H2323 C2331 0.930 . S
H2324 C2334 0.930 . S
H2325 C2335 0.930 . S
C2326 H2320 0.930 . S
C2326 C2327 1.355 . S
C2326 C2328 1.415 . S
C2327 C2326 1.355 . S
C2327 C2329 1.419 . S
C2328 C2326 1.415 . S
C2328 C2333 1.425 . S
C2328 C2335 1.409 . S
C2329 H2321 0.930 . S
C2329 C2327 1.419 . S
C2329 C2330 1.362 . S
C2330 H2322 0.930 . S
C2330 C2329 1.362 . S
C2330 C2333 1.409 . S
C2331 H2323 0.930 . S
C2331 C2332 1.355 . S
C2331 C2333 1.415 . S
C2332 C2331 1.355 . S
C2332 C2334 1.419 . S
C2333 C2328 1.425 . S
C2333 C2330 1.409 . S
C2333 C2331 1.415 . S
C2334 H2324 0.930 . S
C2334 C2332 1.419 . S
C2334 C2335 1.362 . S
C2335 H2325 0.930 . S
C2335 C2328 1.409 . S
C2335 C2334 1.362 . S
H2336 C2342 0.930 . S
H2337 C2345 0.930 . S
H2338 C2346 0.930 . S
H2339 C2347 0.930 . S
H2340 C2350 0.930 . S
H2341 C2351 0.930 . S
C2342 H2336 0.930 . S
C2342 C2343 1.355 . S
C2342 C2344 1.415 . S
C2343 C2342 1.355 . S
C2343 C2345 1.419 . S
C2344 C2342 1.415 . S
C2344 C2349 1.425 . S
C2344 C2351 1.409 . S
C2345 H2337 0.930 . S
C2345 C2343 1.419 . S
C2345 C2346 1.362 . S
C2346 H2338 0.930 . S
C2346 C2345 1.362 . S
C2346 C2349 1.409 . S
C2347 H2339 0.930 . S
C2347 C2348 1.355 . S
C2347 C2349 1.415 . S
C2348 C2347 1.355 . S
C2348 C2350 1.419 . S
C2349 C2344 1.425 . S
C2349 C2346 1.409 . S
C2349 C2347 1.415 . S
C2350 H2340 0.930 . S
C2350 C2348 1.419 . S
C2350 C2351 1.362 . S
C2351 H2341 0.930 . S
C2351 C2344 1.409 . S
C2351 C2350 1.362 . S
H2352 C2358 0.930 . S
H2353 C2361 0.930 . S
H2354 C2362 0.930 . S
H2355 C2363 0.930 . S
H2356 C2366 0.930 . S
H2357 C2367 0.930 . S
C2358 H2352 0.930 . S
C2358 C2359 1.355 . S
C2358 C2360 1.415 . S
C2359 C2358 1.355 . S
C2359 C2361 1.419 . S
C2360 C2358 1.415 . S
C2360 C2365 1.425 . S
C2360 C2367 1.409 . S
C2361 H2353 0.930 . S
C2361 C2359 1.419 . S
C2361 C2362 1.362 . S
C2362 H2354 0.930 . S
C2362 C2361 1.362 . S
C2362 C2365 1.409 . S
C2363 H2355 0.930 . S
C2363 C2364 1.355 . S
C2363 C2365 1.415 . S
C2364 C2363 1.355 . S
C2364 C2366 1.419 . S
C2365 C2360 1.425 . S
C2365 C2362 1.409 . S
C2365 C2363 1.415 . S
C2366 H2356 0.930 . S
C2366 C2364 1.419 . S
C2366 C2367 1.362 . S
C2367 H2357 0.930 . S
C2367 C2360 1.409 . S
C2367 C2366 1.362 . S
H2368 C2374 0.930 . S
H2369 C2377 0.930 . S
H2370 C2378 0.930 . S
H2371 C2379 0.930 . S
H2372 C2382 0.930 . S
H2373 C2383 0.930 . S
C2374 H2368 0.930 . S
C2374 C2375 1.355 . S
C2374 C2376 1.415 . S
C2375 C2374 1.355 . S
C2375 C2377 1.419 . S
C2376 C2374 1.415 . S
C2376 C2381 1.425 . S
C2376 C2383 1.409 . S
C2377 H2369 0.930 . S
C2377 C2375 1.419 . S
C2377 C2378 1.362 . S
C2378 H2370 0.930 . S
C2378 C2377 1.362 . S
C2378 C2381 1.409 . S
C2379 H2371 0.930 . S
C2379 C2380 1.355 . S
C2379 C2381 1.415 . S
C2380 C2379 1.355 . S
C2380 C2382 1.419 . S
C2381 C2376 1.425 . S
C2381 C2378 1.409 . S
C2381 C2379 1.415 . S
C2382 H2372 0.930 . S
C2382 C2380 1.419 . S
C2382 C2383 1.362 . S
C2383 H2373 0.930 . S
C2383 C2376 1.409 . S
C2383 C2382 1.362 . S
H2384 C2390 0.930 . S
H2385 C2393 0.930 . S
H2386 C2394 0.930 . S
H2387 C2395 0.930 . S
H2388 C2398 0.930 . S
H2389 C2399 0.930 . S
C2390 H2384 0.930 . S
C2390 C2391 1.355 . S
C2390 C2392 1.415 . S
C2391 C2390 1.355 . S
C2391 C2393 1.419 . S
C2392 C2390 1.415 . S
C2392 C2397 1.425 . S
C2392 C2399 1.409 . S
C2393 H2385 0.930 . S
C2393 C2391 1.419 . S
C2393 C2394 1.362 . S
C2394 H2386 0.930 . S
C2394 C2393 1.362 . S
C2394 C2397 1.409 . S
C2395 H2387 0.930 . S
C2395 C2396 1.355 . S
C2395 C2397 1.415 . S
C2396 C2395 1.355 . S
C2396 C2398 1.419 . S
C2397 C2392 1.425 . S
C2397 C2394 1.409 . S
C2397 C2395 1.415 . S
C2398 H2388 0.930 . S
C2398 C2396 1.419 . S
C2398 C2399 1.362 . S
C2399 H2389 0.930 . S
C2399 C2392 1.409 . S
C2399 C2398 1.362 . S
H2400 C2406 0.930 . S
H2401 C2409 0.930 . S
H2402 C2410 0.930 . S
H2403 C2411 0.930 . S
H2404 C2414 0.930 . S
H2405 C2415 0.930 . S
C2406 H2400 0.930 . S
C2406 C2407 1.355 . S
C2406 C2408 1.415 . S
C2407 C2406 1.355 . S
C2407 C2409 1.419 . S
C2408 C2406 1.415 . S
C2408 C2413 1.425 . S
C2408 C2415 1.409 . S
C2409 H2401 0.930 . S
C2409 C2407 1.419 . S
C2409 C2410 1.362 . S
C2410 H2402 0.930 . S
C2410 C2409 1.362 . S
C2410 C2413 1.409 . S
C2411 H2403 0.930 . S
C2411 C2412 1.355 . S
C2411 C2413 1.415 . S
C2412 C2411 1.355 . S
C2412 C2414 1.419 . S
C2413 C2408 1.425 . S
C2413 C2410 1.409 . S
C2413 C2411 1.415 . S
C2414 H2404 0.930 . S
C2414 C2412 1.419 . S
C2414 C2415 1.362 . S
C2415 H2405 0.930 . S
C2415 C2408 1.409 . S
C2415 C2414 1.362 . S
H2416 C2422 0.930 . S
H2417 C2425 0.930 . S
H2418 C2426 0.930 . S
H2419 C2427 0.930 . S
H2420 C2430 0.930 . S
H2421 C2431 0.930 . S
C2422 H2416 0.930 . S
C2422 C2423 1.355 . S
C2422 C2424 1.415 . S
C2423 C2422 1.355 . S
C2423 C2425 1.419 . S
C2424 C2422 1.415 . S
C2424 C2429 1.425 . S
C2424 C2431 1.409 . S
C2425 H2417 0.930 . S
C2425 C2423 1.419 . S
C2425 C2426 1.362 . S
C2426 H2418 0.930 . S
C2426 C2425 1.362 . S
C2426 C2429 1.409 . S
C2427 H2419 0.930 . S
C2427 C2428 1.355 . S
C2427 C2429 1.415 . S
C2428 C2427 1.355 . S
C2428 C2430 1.419 . S
C2429 C2424 1.425 . S
C2429 C2426 1.409 . S
C2429 C2427 1.415 . S
C2430 H2420 0.930 . S
C2430 C2428 1.419 . S
C2430 C2431 1.362 . S
C2431 H2421 0.930 . S
C2431 C2424 1.409 . S
C2431 C2430 1.362 . S
H2432 C2438 0.930 . S
H2433 C2441 0.930 . S
H2434 C2442 0.930 . S
H2435 C2443 0.930 . S
H2436 C2446 0.930 . S
H2437 C2447 0.930 . S
C2438 H2432 0.930 . S
C2438 C2439 1.355 . S
C2438 C2440 1.415 . S
C2439 C2438 1.355 . S
C2439 C2441 1.419 . S
C2440 C2438 1.415 . S
C2440 C2445 1.425 . S
C2440 C2447 1.409 . S
C2441 H2433 0.930 . S
C2441 C2439 1.419 . S
C2441 C2442 1.362 . S
C2442 H2434 0.930 . S
C2442 C2441 1.362 . S
C2442 C2445 1.409 . S
C2443 H2435 0.930 . S
C2443 C2444 1.355 . S
C2443 C2445 1.415 . S
C2444 C2443 1.355 . S
C2444 C2446 1.419 . S
C2445 C2440 1.425 . S
C2445 C2442 1.409 . S
C2445 C2443 1.415 . S
C2446 H2436 0.930 . S
C2446 C2444 1.419 . S
C2446 C2447 1.362 . S
C2447 H2437 0.930 . S
C2447 C2440 1.409 . S
C2447 C2446 1.362 . S
H2448 C2454 0.930 . S
H2449 C2457 0.930 . S
H2450 C2458 0.930 . S
H2451 C2459 0.930 . S
H2452 C2462 0.930 . S
H2453 C2463 0.930 . S
C2454 H2448 0.930 . S
C2454 C2455 1.355 . S
C2454 C2456 1.415 . S
C2455 C2454 1.355 . S
C2455 C2457 1.419 . S
C2456 C2454 1.415 . S
C2456 C2461 1.425 . S
C2456 C2463 1.409 . S
C2457 H2449 0.930 . S
C2457 C2455 1.419 . S
C2457 C2458 1.362 . S
C2458 H2450 0.930 . S
C2458 C2457 1.362 . S
C2458 C2461 1.409 . S
C2459 H2451 0.930 . S
C2459 C2460 1.355 . S
C2459 C2461 1.415 . S
C2460 C2459 1.355 . S
C2460 C2462 1.419 . S
C2461 C2456 1.425 . S
C2461 C2458 1.409 . S
C2461 C2459 1.415 . S
C2462 H2452 0.930 . S
C2462 C2460 1.419 . S
C2462 C2463 1.362 . S
C2463 H2453 0.930 . S
C2463 C2456 1.409 . S
C2463 C2462 1.362 . S
H2464 C2470 0.930 . S
H2465 C2473 0.930 . S
H2466 C2474 0.930 . S
H2467 C2475 0.930 . S
H2468 C2478 0.930 . S
H2469 C2479 0.930 . S
C2470 H2464 0.930 . S
C2470 C2471 1.355 . S
C2470 C2472 1.415 . S
C2471 C2470 1.355 . S
C2471 C2473 1.419 . S
C2472 C2470 1.415 . S
C2472 C2477 1.425 . S
C2472 C2479 1.409 . S
C2473 H2465 0.930 . S
C2473 C2471 1.419 . S
C2473 C2474 1.362 . S
C2474 H2466 0.930 . S
C2474 C2473 1.362 . S
C2474 C2477 1.409 . S
C2475 H2467 0.930 . S
C2475 C2476 1.355 . S
C2475 C2477 1.415 . S
C2476 C2475 1.355 . S
C2476 C2478 1.419 . S
C2477 C2472 1.425 . S
C2477 C2474 1.409 . S
C2477 C2475 1.415 . S
C2478 H2468 0.930 . S
C2478 C2476 1.419 . S
C2478 C2479 1.362 . S
C2479 H2469 0.930 . S
C2479 C2472 1.409 . S
C2479 C2478 1.362 . S
H2480 C2486 0.930 . S
H2481 C2489 0.930 . S
H2482 C2490 0.930 . S
H2483 C2491 0.930 . S
H2484 C2494 0.930 . S
H2485 C2495 0.930 . S
C2486 H2480 0.930 . S
C2486 C2487 1.355 . S
C2486 C2488 1.415 . S
C2487 C2486 1.355 . S
C2487 C2489 1.419 . S
C2488 C2486 1.415 . S
C2488 C2493 1.425 . S
C2488 C2495 1.409 . S
C2489 H2481 0.930 . S
C2489 C2487 1.419 . S
C2489 C2490 1.362 . S
C2490 H2482 0.930 . S
C2490 C2489 1.362 . S
C2490 C2493 1.409 . S
C2491 H2483 0.930 . S
C2491 C2492 1.355 . S
C2491 C2493 1.415 . S
C2492 C2491 1.355 . S
C2492 C2494 1.419 . S
C2493 C2488 1.425 . S
C2493 C2490 1.409 . S
C2493 C2491 1.415 . S
C2494 H2484 0.930 . S
C2494 C2492 1.419 . S
C2494 C2495 1.362 . S
C2495 H2485 0.930 . S
C2495 C2488 1.409 . S
C2495 C2494 1.362 . S
H2496 C2502 0.930 . S
H2497 C2505 0.930 . S
H2498 C2506 0.930 . S
H2499 C2507 0.930 . S
H2500 C2510 0.930 . S
H2501 C2511 0.930 . S
C2502 H2496 0.930 . S
C2502 C2503 1.355 . S
C2502 C2504 1.415 . S
C2503 C2502 1.355 . S
C2503 C2505 1.419 . S
C2504 C2502 1.415 . S
C2504 C2509 1.425 . S
C2504 C2511 1.409 . S
C2505 H2497 0.930 . S
C2505 C2503 1.419 . S
C2505 C2506 1.362 . S
C2506 H2498 0.930 . S
C2506 C2505 1.362 . S
C2506 C2509 1.409 . S
C2507 H2499 0.930 . S
C2507 C2508 1.355 . S
C2507 C2509 1.415 . S
C2508 C2507 1.355 . S
C2508 C2510 1.419 . S
C2509 C2504 1.425 . S
C2509 C2506 1.409 . S
C2509 C2507 1.415 . S
C2510 H2500 0.930 . S
C2510 C2508 1.419 . S
C2510 C2511 1.362 . S
C2511 H2501 0.930 . S
C2511 C2504 1.409 . S
C2511 C2510 1.362 . S
H2512 C2518 0.930 . S
H2513 C2521 0.930 . S
H2514 C2522 0.930 . S
H2515 C2523 0.930 . S
H2516 C2526 0.930 . S
H2517 C2527 0.930 . S
C2518 H2512 0.930 . S
C2518 C2519 1.355 . S
C2518 C2520 1.415 . S
C2519 C2518 1.355 . S
C2519 C2521 1.419 . S
C2520 C2518 1.415 . S
C2520 C2525 1.425 . S
C2520 C2527 1.409 . S
C2521 H2513 0.930 . S
C2521 C2519 1.419 . S
C2521 C2522 1.362 . S
C2522 H2514 0.930 . S
C2522 C2521 1.362 . S
C2522 C2525 1.409 . S
C2523 H2515 0.930 . S
C2523 C2524 1.355 . S
C2523 C2525 1.415 . S
C2524 C2523 1.355 . S
C2524 C2526 1.419 . S
C2525 C2520 1.425 . S
C2525 C2522 1.409 . S
C2525 C2523 1.415 . S
C2526 H2516 0.930 . S
C2526 C2524 1.419 . S
C2526 C2527 1.362 . S
C2527 H2517 0.930 . S
C2527 C2520 1.409 . S
C2527 C2526 1.362 . S
H2528 C2534 0.930 . S
H2529 C2537 0.930 . S
H2530 C2538 0.930 . S
H2531 C2539 0.930 . S
H2532 C2542 0.930 . S
H2533 C2543 0.930 . S
C2534 H2528 0.930 . S
C2534 C2535 1.355 . S
C2534 C2536 1.415 . S
C2535 C2534 1.355 . S
C2535 C2537 1.419 . S
C2536 C2534 1.415 . S
C2536 C2541 1.425 . S
C2536 C2543 1.409 . S
C2537 H2529 0.930 . S
C2537 C2535 1.419 . S
C2537 C2538 1.362 . S
C2538 H2530 0.930 . S
C2538 C2537 1.362 . S
C2538 C2541 1.409 . S
C2539 H2531 0.930 . S
C2539 C2540 1.355 . S
C2539 C2541 1.415 . S
C2540 C2539 1.355 . S
C2540 C2542 1.419 . S
C2541 C2536 1.425 . S
C2541 C2538 1.409 . S
C2541 C2539 1.415 . S
C2542 H2532 0.930 . S
C2542 C2540 1.419 . S
C2542 C2543 1.362 . S
C2543 H2533 0.930 . S
C2543 C2536 1.409 . S
C2543 C2542 1.362 . S
H2544 C2550 0.930 . S
H2545 C2553 0.930 . S
H2546 C2554 0.930 . S
H2547 C2555 0.930 . S
H2548 C2558 0.930 . S
H2549 C2559 0.930 . S
C2550 H2544 0.930 . S
C2550 C2551 1.355 . S
C2550 C2552 1.415 . S
C2551 C2550 1.355 . S
C2551 C2553 1.419 . S
C2552 C2550 1.415 . S
C2552 C2557 1.425 . S
C2552 C2559 1.409 . S
C2553 H2545 0.930 . S
C2553 C2551 1.419 . S
C2553 C2554 1.362 . S
C2554 H2546 0.930 . S
C2554 C2553 1.362 . S
C2554 C2557 1.409 . S
C2555 H2547 0.930 . S
C2555 C2556 1.355 . S
C2555 C2557 1.415 . S
C2556 C2555 1.355 . S
C2556 C2558 1.419 . S
C2557 C2552 1.425 . S
C2557 C2554 1.409 . S
C2557 C2555 1.415 . S
C2558 H2548 0.930 . S
C2558 C2556 1.419 . S
C2558 C2559 1.362 . S
C2559 H2549 0.930 . S
C2559 C2552 1.409 . S
C2559 C2558 1.362 . S
H2560 C2566 0.930 . S
H2561 C2569 0.930 . S
H2562 C2570 0.930 . S
H2563 C2571 0.930 . S
H2564 C2574 0.930 . S
H2565 C2575 0.930 . S
C2566 H2560 0.930 . S
C2566 C2567 1.355 . S
C2566 C2568 1.415 . S
C2567 C2566 1.355 . S
C2567 C2569 1.419 . S
C2568 C2566 1.415 . S
C2568 C2573 1.425 . S
C2568 C2575 1.409 . S
C2569 H2561 0.930 . S
C2569 C2567 1.419 . S
C2569 C2570 1.362 . S
C2570 H2562 0.930 . S
C2570 C2569 1.362 . S
C2570 C2573 1.409 . S
C2571 H2563 0.930 . S
C2571 C2572 1.355 . S
C2571 C2573 1.415 . S
C2572 C2571 1.355 . S
C2572 C2574 1.419 . S
C2573 C2568 1.425 . S
C2573 C2570 1.409 . S
C2573 C2571 1.415 . S
C2574 H2564 0.930 . S
C2574 C2572 1.419 . S
C2574 C2575 1.362 . S
C2575 H2565 0.930 . S
C2575 C2568 1.409 . S
C2575 C2574 1.362 . S
H2576 C2582 0.930 . S
H2577 C2585 0.930 . S
H2578 C2586 0.930 . S
H2579 C2587 0.930 . S
H2580 C2590 0.930 . S
H2581 C2591 0.930 . S
C2582 H2576 0.930 . S
C2582 C2583 1.355 . S
C2582 C2584 1.415 . S
C2583 C2582 1.355 . S
C2583 C2585 1.419 . S
C2584 C2582 1.415 . S
C2584 C2589 1.425 . S
C2584 C2591 1.409 . S
C2585 H2577 0.930 . S
C2585 C2583 1.419 . S
C2585 C2586 1.362 . S
C2586 H2578 0.930 . S
C2586 C2585 1.362 . S
C2586 C2589 1.409 . S
C2587 H2579 0.930 . S
C2587 C2588 1.355 . S
C2587 C2589 1.415 . S
C2588 C2587 1.355 . S
C2588 C2590 1.419 . S
C2589 C2584 1.425 . S
C2589 C2586 1.409 . S
C2589 C2587 1.415 . S
C2590 H2580 0.930 . S
C2590 C2588 1.419 . S
C2590 C2591 1.362 . S
C2591 H2581 0.930 . S
C2591 C2584 1.409 . S
C2591 C2590 1.362 . S
H2592 C2598 0.930 . S
H2593 C2601 0.930 . S
H2594 C2602 0.930 . S
H2595 C2603 0.930 . S
H2596 C2606 0.930 . S
H2597 C2607 0.930 . S
C2598 H2592 0.930 . S
C2598 C2599 1.355 . S
C2598 C2600 1.415 . S
C2599 C2598 1.355 . S
C2599 C2601 1.419 . S
C2600 C2598 1.415 . S
C2600 C2605 1.425 . S
C2600 C2607 1.409 . S
C2601 H2593 0.930 . S
C2601 C2599 1.419 . S
C2601 C2602 1.362 . S
C2602 H2594 0.930 . S
C2602 C2601 1.362 . S
C2602 C2605 1.409 . S
C2603 H2595 0.930 . S
C2603 C2604 1.355 . S
C2603 C2605 1.415 . S
C2604 C2603 1.355 . S
C2604 C2606 1.419 . S
C2605 C2600 1.425 . S
C2605 C2602 1.409 . S
C2605 C2603 1.415 . S
C2606 H2596 0.930 . S
C2606 C2604 1.419 . S
C2606 C2607 1.362 . S
C2607 H2597 0.930 . S
C2607 C2600 1.409 . S
C2607 C2606 1.362 . S
H2608 C2614 0.930 . S
H2609 C2617 0.930 . S
H2610 C2618 0.930 . S
H2611 C2619 0.930 . S
H2612 C2622 0.930 . S
H2613 C2623 0.930 . S
C2614 H2608 0.930 . S
C2614 C2615 1.355 . S
C2614 C2616 1.415 . S
C2615 C2614 1.355 . S
C2615 C2617 1.419 . S
C2616 C2614 1.415 . S
C2616 C2621 1.425 . S
C2616 C2623 1.409 . S
C2617 H2609 0.930 . S
C2617 C2615 1.419 . S
C2617 C2618 1.362 . S
C2618 H2610 0.930 . S
C2618 C2617 1.362 . S
C2618 C2621 1.409 . S
C2619 H2611 0.930 . S
C2619 C2620 1.355 . S
C2619 C2621 1.415 . S
C2620 C2619 1.355 . S
C2620 C2622 1.419 . S
C2621 C2616 1.425 . S
C2621 C2618 1.409 . S
C2621 C2619 1.415 . S
C2622 H2612 0.930 . S
C2622 C2620 1.419 . S
C2622 C2623 1.362 . S
C2623 H2613 0.930 . S
C2623 C2616 1.409 . S
C2623 C2622 1.362 . S
H2624 C2630 0.930 . S
H2625 C2633 0.930 . S
H2626 C2634 0.930 . S
H2627 C2635 0.930 . S
H2628 C2638 0.930 . S
H2629 C2639 0.930 . S
C2630 H2624 0.930 . S
C2630 C2631 1.355 . S
C2630 C2632 1.415 . S
C2631 C2630 1.355 . S
C2631 C2633 1.419 . S
C2632 C2630 1.415 . S
C2632 C2637 1.425 . S
C2632 C2639 1.409 . S
C2633 H2625 0.930 . S
C2633 C2631 1.419 . S
C2633 C2634 1.362 . S
C2634 H2626 0.930 . S
C2634 C2633 1.362 . S
C2634 C2637 1.409 . S
C2635 H2627 0.930 . S
C2635 C2636 1.355 . S
C2635 C2637 1.415 . S
C2636 C2635 1.355 . S
C2636 C2638 1.419 . S
C2637 C2632 1.425 . S
C2637 C2634 1.409 . S
C2637 C2635 1.415 . S
C2638 H2628 0.930 . S
C2638 C2636 1.419 . S
C2638 C2639 1.362 . S
C2639 H2629 0.930 . S
C2639 C2632 1.409 . S
C2639 C2638 1.362 . S
H2640 C2646 0.930 . S
H2641 C2649 0.930 . S
H2642 C2650 0.930 . S
H2643 C2651 0.930 . S
H2644 C2654 0.930 . S
H2645 C2655 0.930 . S
C2646 H2640 0.930 . S
C2646 C2647 1.355 . S
C2646 C2648 1.415 . S
C2647 C2646 1.355 . S
C2647 C2649 1.419 . S
C2648 C2646 1.415 . S
C2648 C2653 1.425 . S
C2648 C2655 1.409 . S
C2649 H2641 0.930 . S
C2649 C2647 1.419 . S
C2649 C2650 1.362 . S
C2650 H2642 0.930 . S
C2650 C2649 1.362 . S
C2650 C2653 1.409 . S
C2651 H2643 0.930 . S
C2651 C2652 1.355 . S
C2651 C2653 1.415 . S
C2652 C2651 1.355 . S
C2652 C2654 1.419 . S
C2653 C2648 1.425 . S
C2653 C2650 1.409 . S
C2653 C2651 1.415 . S
C2654 H2644 0.930 . S
C2654 C2652 1.419 . S
C2654 C2655 1.362 . S
C2655 H2645 0.930 . S
C2655 C2648 1.409 . S
C2655 C2654 1.362 . S
H2656 C2662 0.930 . S
H2657 C2665 0.930 . S
H2658 C2666 0.930 . S
H2659 C2667 0.930 . S
H2660 C2670 0.930 . S
H2661 C2671 0.930 . S
C2662 H2656 0.930 . S
C2662 C2663 1.355 . S
C2662 C2664 1.415 . S
C2663 C2662 1.355 . S
C2663 C2665 1.419 . S
C2664 C2662 1.415 . S
C2664 C2669 1.425 . S
C2664 C2671 1.409 . S
C2665 H2657 0.930 . S
C2665 C2663 1.419 . S
C2665 C2666 1.362 . S
C2666 H2658 0.930 . S
C2666 C2665 1.362 . S
C2666 C2669 1.409 . S
C2667 H2659 0.930 . S
C2667 C2668 1.355 . S
C2667 C2669 1.415 . S
C2668 C2667 1.355 . S
C2668 C2670 1.419 . S
C2669 C2664 1.425 . S
C2669 C2666 1.409 . S
C2669 C2667 1.415 . S
C2670 H2660 0.930 . S
C2670 C2668 1.419 . S
C2670 C2671 1.362 . S
C2671 H2661 0.930 . S
C2671 C2664 1.409 . S
C2671 C2670 1.362 . S
H2672 C2678 0.930 . S
H2673 C2681 0.930 . S
H2674 C2682 0.930 . S
H2675 C2683 0.930 . S
H2676 C2686 0.930 . S
H2677 C2687 0.930 . S
C2678 H2672 0.930 . S
C2678 C2679 1.355 . S
C2678 C2680 1.415 . S
C2679 C2678 1.355 . S
C2679 C2681 1.419 . S
C2680 C2678 1.415 . S
C2680 C2685 1.425 . S
C2680 C2687 1.409 . S
C2681 H2673 0.930 . S
C2681 C2679 1.419 . S
C2681 C2682 1.362 . S
C2682 H2674 0.930 . S
C2682 C2681 1.362 . S
C2682 C2685 1.409 . S
C2683 H2675 0.930 . S
C2683 C2684 1.355 . S
C2683 C2685 1.415 . S
C2684 C2683 1.355 . S
C2684 C2686 1.419 . S
C2685 C2680 1.425 . S
C2685 C2682 1.409 . S
C2685 C2683 1.415 . S
C2686 H2676 0.930 . S
C2686 C2684 1.419 . S
C2686 C2687 1.362 . S
C2687 H2677 0.930 . S
C2687 C2680 1.409 . S
C2687 C2686 1.362 . S
H2688 C2694 0.930 . S
H2689 C2697 0.930 . S
H2690 C2698 0.930 . S
H2691 C2699 0.930 . S
H2692 C2702 0.930 . S
H2693 C2703 0.930 . S
C2694 H2688 0.930 . S
C2694 C2695 1.355 . S
C2694 C2696 1.415 . S
C2695 C2694 1.355 . S
C2695 C2697 1.419 . S
C2696 C2694 1.415 . S
C2696 C2701 1.425 . S
C2696 C2703 1.409 . S
C2697 H2689 0.930 . S
C2697 C2695 1.419 . S
C2697 C2698 1.362 . S
C2698 H2690 0.930 . S
C2698 C2697 1.362 . S
C2698 C2701 1.409 . S
C2699 H2691 0.930 . S
C2699 C2700 1.355 . S
C2699 C2701 1.415 . S
C2700 C2699 1.355 . S
C2700 C2702 1.419 . S
C2701 C2696 1.425 . S
C2701 C2698 1.409 . S
C2701 C2699 1.415 . S
C2702 H2692 0.930 . S
C2702 C2700 1.419 . S
C2702 C2703 1.362 . S
C2703 H2693 0.930 . S
C2703 C2696 1.409 . S
C2703 C2702 1.362 . S
H2704 C2710 0.930 . S
H2705 C2713 0.930 . S
H2706 C2714 0.930 . S
H2707 C2715 0.930 . S
H2708 C2718 0.930 . S
H2709 C2719 0.930 . S
C2710 H2704 0.930 . S
C2710 C2711 1.355 . S
C2710 C2712 1.415 . S
C2711 C2710 1.355 . S
C2711 C2713 1.419 . S
C2712 C2710 1.415 . S
C2712 C2717 1.425 . S
C2712 C2719 1.409 . S
C2713 H2705 0.930 . S
C2713 C2711 1.419 . S
C2713 C2714 1.362 . S
C2714 H2706 0.930 . S
C2714 C2713 1.362 . S
C2714 C2717 1.409 . S
C2715 H2707 0.930 . S
C2715 C2716 1.355 . S
C2715 C2717 1.415 . S
C2716 C2715 1.355 . S
C2716 C2718 1.419 . S
C2717 C2712 1.425 . S
C2717 C2714 1.409 . S
C2717 C2715 1.415 . S
C2718 H2708 0.930 . S
C2718 C2716 1.419 . S
C2718 C2719 1.362 . S
C2719 H2709 0.930 . S
C2719 C2712 1.409 . S
C2719 C2718 1.362 . S
H2720 C2726 0.930 . S
H2721 C2729 0.930 . S
H2722 C2730 0.930 . S
H2723 C2731 0.930 . S
H2724 C2734 0.930 . S
H2725 C2735 0.930 . S
C2726 H2720 0.930 . S
C2726 C2727 1.355 . S
C2726 C2728 1.415 . S
C2727 C2726 1.355 . S
C2727 C2729 1.419 . S
C2728 C2726 1.415 . S
C2728 C2733 1.425 . S
C2728 C2735 1.409 . S
C2729 H2721 0.930 . S
C2729 C2727 1.419 . S
C2729 C2730 1.362 . S
C2730 H2722 0.930 . S
C2730 C2729 1.362 . S
C2730 C2733 1.409 . S
C2731 H2723 0.930 . S
C2731 C2732 1.355 . S
C2731 C2733 1.415 . S
C2732 C2731 1.355 . S
C2732 C2734 1.419 . S
C2733 C2728 1.425 . S
C2733 C2730 1.409 . S
C2733 C2731 1.415 . S
C2734 H2724 0.930 . S
C2734 C2732 1.419 . S
C2734 C2735 1.362 . S
C2735 H2725 0.930 . S
C2735 C2728 1.409 . S
C2735 C2734 1.362 . S
H2736 C2742 0.930 . S
H2737 C2745 0.930 . S
H2738 C2746 0.930 . S
H2739 C2747 0.930 . S
H2740 C2750 0.930 . S
H2741 C2751 0.930 . S
C2742 H2736 0.930 . S
C2742 C2743 1.355 . S
C2742 C2744 1.415 . S
C2743 C2742 1.355 . S
C2743 C2745 1.419 . S
C2744 C2742 1.415 . S
C2744 C2749 1.425 . S
C2744 C2751 1.409 . S
C2745 H2737 0.930 . S
C2745 C2743 1.419 . S
C2745 C2746 1.362 . S
C2746 H2738 0.930 . S
C2746 C2745 1.362 . S
C2746 C2749 1.409 . S
C2747 H2739 0.930 . S
C2747 C2748 1.355 . S
C2747 C2749 1.415 . S
C2748 C2747 1.355 . S
C2748 C2750 1.419 . S
C2749 C2744 1.425 . S
C2749 C2746 1.409 . S
C2749 C2747 1.415 . S
C2750 H2740 0.930 . S
C2750 C2748 1.419 . S
C2750 C2751 1.362 . S
C2751 H2741 0.930 . S
C2751 C2744 1.409 . S
C2751 C2750 1.362 . S
H2752 C2758 0.930 . S
H2753 C2761 0.930 . S
H2754 C2762 0.930 . S
H2755 C2763 0.930 . S
H2756 C2766 0.930 . S
H2757 C2767 0.930 . S
C2758 H2752 0.930 . S
C2758 C2759 1.355 . S
C2758 C2760 1.415 . S
C2759 C2758 1.355 . S
C2759 C2761 1.419 . S
C2760 C2758 1.415 . S
C2760 C2765 1.425 . S
C2760 C2767 1.409 . S
C2761 H2753 0.930 . S
C2761 C2759 1.419 . S
C2761 C2762 1.362 . S
C2762 H2754 0.930 . S
C2762 C2761 1.362 . S
C2762 C2765 1.409 . S
C2763 H2755 0.930 . S
C2763 C2764 1.355 . S
C2763 C2765 1.415 . S
C2764 C2763 1.355 . S
C2764 C2766 1.419 . S
C2765 C2760 1.425 . S
C2765 C2762 1.409 . S
C2765 C2763 1.415 . S
C2766 H2756 0.930 . S
C2766 C2764 1.419 . S
C2766 C2767 1.362 . S
C2767 H2757 0.930 . S
C2767 C2760 1.409 . S
C2767 C2766 1.362 . S
H2768 C2774 0.930 . S
H2769 C2777 0.930 . S
H2770 C2778 0.930 . S
H2771 C2779 0.930 . S
H2772 C2782 0.930 . S
H2773 C2783 0.930 . S
C2774 H2768 0.930 . S
C2774 C2775 1.355 . S
C2774 C2776 1.415 . S
C2775 C2774 1.355 . S
C2775 C2777 1.419 . S
C2776 C2774 1.415 . S
C2776 C2781 1.425 . S
C2776 C2783 1.409 . S
C2777 H2769 0.930 . S
C2777 C2775 1.419 . S
C2777 C2778 1.362 . S
C2778 H2770 0.930 . S
C2778 C2777 1.362 . S
C2778 C2781 1.409 . S
C2779 H2771 0.930 . S
C2779 C2780 1.355 . S
C2779 C2781 1.415 . S
C2780 C2779 1.355 . S
C2780 C2782 1.419 . S
C2781 C2776 1.425 . S
C2781 C2778 1.409 . S
C2781 C2779 1.415 . S
C2782 H2772 0.930 . S
C2782 C2780 1.419 . S
C2782 C2783 1.362 . S
C2783 H2773 0.930 . S
C2783 C2776 1.409 . S
C2783 C2782 1.362 . S
H2784 C2790 0.930 . S
H2785 C2793 0.930 . S
H2786 C2794 0.930 . S
H2787 C2795 0.930 . S
H2788 C2798 0.930 . S
H2789 C2799 0.930 . S
C2790 H2784 0.930 . S
C2790 C2791 1.355 . S
C2790 C2792 1.415 . S
C2791 C2790 1.355 . S
C2791 C2793 1.419 . S
C2792 C2790 1.415 . S
C2792 C2797 1.425 . S
C2792 C2799 1.409 . S
C2793 H2785 0.930 . S
C2793 C2791 1.419 . S
C2793 C2794 1.362 . S
C2794 H2786 0.930 . S
C2794 C2793 1.362 . S
C2794 C2797 1.409 . S
C2795 H2787 0.930 . S
C2795 C2796 1.355 . S
C2795 C2797 1.415 . S
C2796 C2795 1.355 . S
C2796 C2798 1.419 . S
C2797 C2792 1.425 . S
C2797 C2794 1.409 . S
C2797 C2795 1.415 . S
C2798 H2788 0.930 . S
C2798 C2796 1.419 . S
C2798 C2799 1.362 . S
C2799 H2789 0.930 . S
C2799 C2792 1.409 . S
C2799 C2798 1.362 . S
H2800 C2806 0.930 . S
H2801 C2809 0.930 . S
H2802 C2810 0.930 . S
H2803 C2811 0.930 . S
H2804 C2814 0.930 . S
H2805 C2815 0.930 . S
C2806 H2800 0.930 . S
C2806 C2807 1.355 . S
C2806 C2808 1.415 . S
C2807 C2806 1.355 . S
C2807 C2809 1.419 . S
C2808 C2806 1.415 . S
C2808 C2813 1.425 . S
C2808 C2815 1.409 . S
C2809 H2801 0.930 . S
C2809 C2807 1.419 . S
C2809 C2810 1.362 . S
C2810 H2802 0.930 . S
C2810 C2809 1.362 . S
C2810 C2813 1.409 . S
C2811 H2803 0.930 . S
C2811 C2812 1.355 . S
C2811 C2813 1.415 . S
C2812 C2811 1.355 . S
C2812 C2814 1.419 . S
C2813 C2808 1.425 . S
C2813 C2810 1.409 . S
C2813 C2811 1.415 . S
C2814 H2804 0.930 . S
C2814 C2812 1.419 . S
C2814 C2815 1.362 . S
C2815 H2805 0.930 . S
C2815 C2808 1.409 . S
C2815 C2814 1.362 . S
H2816 C2822 0.930 . S
H2817 C2825 0.930 . S
H2818 C2826 0.930 . S
H2819 C2827 0.930 . S
H2820 C2830 0.930 . S
H2821 C2831 0.930 . S
C2822 H2816 0.930 . S
C2822 C2823 1.355 . S
C2822 C2824 1.415 . S
C2823 C2822 1.355 . S
C2823 C2825 1.419 . S
C2824 C2822 1.415 . S
C2824 C2829 1.425 . S
C2824 C2831 1.409 . S
C2825 H2817 0.930 . S
C2825 C2823 1.419 . S
C2825 C2826 1.362 . S
C2826 H2818 0.930 . S
C2826 C2825 1.362 . S
C2826 C2829 1.409 . S
C2827 H2819 0.930 . S
C2827 C2828 1.355 . S
C2827 C2829 1.415 . S
C2828 C2827 1.355 . S
C2828 C2830 1.419 . S
C2829 C2824 1.425 . S
C2829 C2826 1.409 . S
C2829 C2827 1.415 . S
C2830 H2820 0.930 . S
C2830 C2828 1.419 . S
C2830 C2831 1.362 . S
C2831 H2821 0.930 . S
C2831 C2824 1.409 . S
C2831 C2830 1.362 . S
H2832 C2838 0.930 . S
H2833 C2841 0.930 . S
H2834 C2842 0.930 . S
H2835 C2843 0.930 . S
H2836 C2846 0.930 . S
H2837 C2847 0.930 . S
C2838 H2832 0.930 . S
C2838 C2839 1.355 . S
C2838 C2840 1.415 . S
C2839 C2838 1.355 . S
C2839 C2841 1.419 . S
C2840 C2838 1.415 . S
C2840 C2845 1.425 . S
C2840 C2847 1.409 . S
C2841 H2833 0.930 . S
C2841 C2839 1.419 . S
C2841 C2842 1.362 . S
C2842 H2834 0.930 . S
C2842 C2841 1.362 . S
C2842 C2845 1.409 . S
C2843 H2835 0.930 . S
C2843 C2844 1.355 . S
C2843 C2845 1.415 . S
C2844 C2843 1.355 . S
C2844 C2846 1.419 . S
C2845 C2840 1.425 . S
C2845 C2842 1.409 . S
C2845 C2843 1.415 . S
C2846 H2836 0.930 . S
C2846 C2844 1.419 . S
C2846 C2847 1.362 . S
C2847 H2837 0.930 . S
C2847 C2840 1.409 . S
C2847 C2846 1.362 . S
H2848 C2854 0.930 . S
H2849 C2857 0.930 . S
H2850 C2858 0.930 . S
H2851 C2859 0.930 . S
H2852 C2862 0.930 . S
H2853 C2863 0.930 . S
C2854 H2848 0.930 . S
C2854 C2855 1.355 . S
C2854 C2856 1.415 . S
C2855 C2854 1.355 . S
C2855 C2857 1.419 . S
C2856 C2854 1.415 . S
C2856 C2861 1.425 . S
C2856 C2863 1.409 . S
C2857 H2849 0.930 . S
C2857 C2855 1.419 . S
C2857 C2858 1.362 . S
C2858 H2850 0.930 . S
C2858 C2857 1.362 . S
C2858 C2861 1.409 . S
C2859 H2851 0.930 . S
C2859 C2860 1.355 . S
C2859 C2861 1.415 . S
C2860 C2859 1.355 . S
C2860 C2862 1.419 . S
C2861 C2856 1.425 . S
C2861 C2858 1.409 . S
C2861 C2859 1.415 . S
C2862 H2852 0.930 . S
C2862 C2860 1.419 . S
C2862 C2863 1.362 . S
C2863 H2853 0.930 . S
C2863 C2856 1.409 . S
C2863 C2862 1.362 . S
H2864 C2870 0.930 . S
H2865 C2873 0.930 . S
H2866 C2874 0.930 . S
H2867 C2875 0.930 . S
H2868 C2878 0.930 . S
H2869 C2879 0.930 . S
C2870 H2864 0.930 . S
C2870 C2871 1.355 . S
C2870 C2872 1.415 . S
C2871 C2870 1.355 . S
C2871 C2873 1.419 . S
C2872 C2870 1.415 . S
C2872 C2877 1.425 . S
C2872 C2879 1.409 . S
C2873 H2865 0.930 . S
C2873 C2871 1.419 . S
C2873 C2874 1.362 . S
C2874 H2866 0.930 . S
C2874 C2873 1.362 . S
C2874 C2877 1.409 . S
C2875 H2867 0.930 . S
C2875 C2876 1.355 . S
C2875 C2877 1.415 . S
C2876 C2875 1.355 . S
C2876 C2878 1.419 . S
C2877 C2872 1.425 . S
C2877 C2874 1.409 . S
C2877 C2875 1.415 . S
C2878 H2868 0.930 . S
C2878 C2876 1.419 . S
C2878 C2879 1.362 . S
C2879 H2869 0.930 . S
C2879 C2872 1.409 . S
C2879 C2878 1.362 . S
H2880 C2886 0.930 . S
H2881 C2889 0.930 . S
H2882 C2890 0.930 . S
H2883 C2891 0.930 . S
H2884 C2894 0.930 . S
H2885 C2895 0.930 . S
C2886 H2880 0.930 . S
C2886 C2887 1.355 . S
C2886 C2888 1.415 . S
C2887 C2886 1.355 . S
C2887 C2889 1.419 . S
C2888 C2886 1.415 . S
C2888 C2893 1.425 . S
C2888 C2895 1.409 . S
C2889 H2881 0.930 . S
C2889 C2887 1.419 . S
C2889 C2890 1.362 . S
C2890 H2882 0.930 . S
C2890 C2889 1.362 . S
C2890 C2893 1.409 . S
C2891 H2883 0.930 . S
C2891 C2892 1.355 . S
C2891 C2893 1.415 . S
C2892 C2891 1.355 . S
C2892 C2894 1.419 . S
C2893 C2888 1.425 . S
C2893 C2890 1.409 . S
C2893 C2891 1.415 . S
C2894 H2884 0.930 . S
C2894 C2892 1.419 . S
C2894 C2895 1.362 . S
C2895 H2885 0.930 . S
C2895 C2888 1.409 . S
C2895 C2894 1.362 . S
H2896 C2902 0.930 . S
H2897 C2905 0.930 . S
H2898 C2906 0.930 . S
H2899 C2907 0.930 . S
H2900 C2910 0.930 . S
H2901 C2911 0.930 . S
C2902 H2896 0.930 . S
C2902 C2903 1.355 . S
C2902 C2904 1.415 . S
C2903 C2902 1.355 . S
C2903 C2905 1.419 . S
C2904 C2902 1.415 . S
C2904 C2909 1.425 . S
C2904 C2911 1.409 . S
C2905 H2897 0.930 . S
C2905 C2903 1.419 . S
C2905 C2906 1.362 . S
C2906 H2898 0.930 . S
C2906 C2905 1.362 . S
C2906 C2909 1.409 . S
C2907 H2899 0.930 . S
C2907 C2908 1.355 . S
C2907 C2909 1.415 . S
C2908 C2907 1.355 . S
C2908 C2910 1.419 . S
C2909 C2904 1.425 . S
C2909 C2906 1.409 . S
C2909 C2907 1.415 . S
C2910 H2900 0.930 . S
C2910 C2908 1.419 . S
C2910 C2911 1.362 . S
C2911 H2901 0.930 . S
C2911 C2904 1.409 . S
C2911 C2910 1.362 . S
H2912 C2918 0.930 . S
H2913 C2921 0.930 . S
H2914 C2922 0.930 . S
H2915 C2923 0.930 . S
H2916 C2926 0.930 . S
H2917 C2927 0.930 . S
C2918 H2912 0.930 . S
C2918 C2919 1.355 . S
C2918 C2920 1.415 . S
C2919 C2918 1.355 . S
C2919 C2921 1.419 . S
C2920 C2918 1.415 . S
C2920 C2925 1.425 . S
C2920 C2927 1.409 . S
C2921 H2913 0.930 . S
C2921 C2919 1.419 . S
C2921 C2922 1.362 . S
C2922 H2914 0.930 . S
C2922 C2921 1.362 . S
C2922 C2925 1.409 . S
C2923 H2915 0.930 . S
C2923 C2924 1.355 . S
C2923 C2925 1.415 . S
C2924 C2923 1.355 . S
C2924 C2926 1.419 . S
C2925 C2920 1.425 . S
C2925 C2922 1.409 . S
C2925 C2923 1.415 . S
C2926 H2916 0.930 . S
C2926 C2924 1.419 . S
C2926 C2927 1.362 . S
C2927 H2917 0.930 . S
C2927 C2920 1.409 . S
C2927 C2926 1.362 . S
H2928 C2934 0.930 . S
H2929 C2937 0.930 . S
H2930 C2938 0.930 . S
H2931 C2939 0.930 . S
H2932 C2942 0.930 . S
H2933 C2943 0.930 . S
C2934 H2928 0.930 . S
C2934 C2935 1.355 . S
C2934 C2936 1.415 . S
C2935 C2934 1.355 . S
C2935 C2937 1.419 . S
C2936 C2934 1.415 . S
C2936 C2941 1.425 . S
C2936 C2943 1.409 . S
C2937 H2929 0.930 . S
C2937 C2935 1.419 . S
C2937 C2938 1.362 . S
C2938 H2930 0.930 . S
C2938 C2937 1.362 . S
C2938 C2941 1.409 . S
C2939 H2931 0.930 . S
C2939 C2940 1.355 . S
C2939 C2941 1.415 . S
C2940 C2939 1.355 . S
C2940 C2942 1.419 . S
C2941 C2936 1.425 . S
C2941 C2938 1.409 . S
C2941 C2939 1.415 . S
C2942 H2932 0.930 . S
C2942 C2940 1.419 . S
C2942 C2943 1.362 . S
C2943 H2933 0.930 . S
C2943 C2936 1.409 . S
C2943 C2942 1.362 . S
H2944 C2950 0.930 . S
H2945 C2953 0.930 . S
H2946 C2954 0.930 . S
H2947 C2955 0.930 . S
H2948 C2958 0.930 . S
H2949 C2959 0.930 . S
C2950 H2944 0.930 . S
C2950 C2951 1.355 . S
C2950 C2952 1.415 . S
C2951 C2950 1.355 . S
C2951 C2953 1.419 . S
C2952 C2950 1.415 . S
C2952 C2957 1.425 . S
C2952 C2959 1.409 . S
C2953 H2945 0.930 . S
C2953 C2951 1.419 . S
C2953 C2954 1.362 . S
C2954 H2946 0.930 . S
C2954 C2953 1.362 . S
C2954 C2957 1.409 . S
C2955 H2947 0.930 . S
C2955 C2956 1.355 . S
C2955 C2957 1.415 . S
C2956 C2955 1.355 . S
C2956 C2958 1.419 . S
C2957 C2952 1.425 . S
C2957 C2954 1.409 . S
C2957 C2955 1.415 . S
C2958 H2948 0.930 . S
C2958 C2956 1.419 . S
C2958 C2959 1.362 . S
C2959 H2949 0.930 . S
C2959 C2952 1.409 . S
C2959 C2958 1.362 . S
H2960 C2966 0.930 . S
H2961 C2969 0.930 . S
H2962 C2970 0.930 . S
H2963 C2971 0.930 . S
H2964 C2974 0.930 . S
H2965 C2975 0.930 . S
C2966 H2960 0.930 . S
C2966 C2967 1.355 . S
C2966 C2968 1.415 . S
C2967 C2966 1.355 . S
C2967 C2969 1.419 . S
C2968 C2966 1.415 . S
C2968 C2973 1.425 . S
C2968 C2975 1.409 . S
C2969 H2961 0.930 . S
C2969 C2967 1.419 . S
C2969 C2970 1.362 . S
C2970 H2962 0.930 . S
C2970 C2969 1.362 . S
C2970 C2973 1.409 . S
C2971 H2963 0.930 . S
C2971 C2972 1.355 . S
C2971 C2973 1.415 . S
C2972 C2971 1.355 . S
C2972 C2974 1.419 . S
C2973 C2968 1.425 . S
C2973 C2970 1.409 . S
C2973 C2971 1.415 . S
C2974 H2964 0.930 . S
C2974 C2972 1.419 . S
C2974 C2975 1.362 . S
C2975 H2965 0.930 . S
C2975 C2968 1.409 . S
C2975 C2974 1.362 . S
H2976 C2982 0.930 . S
H2977 C2985 0.930 . S
H2978 C2986 0.930 . S
H2979 C2987 0.930 . S
H2980 C2990 0.930 . S
H2981 C2991 0.930 . S
C2982 H2976 0.930 . S
C2982 C2983 1.355 . S
C2982 C2984 1.415 . S
C2983 C2982 1.355 . S
C2983 C2985 1.419 . S
C2984 C2982 1.415 . S
C2984 C2989 1.425 . S
C2984 C2991 1.409 . S
C2985 H2977 0.930 . S
C2985 C2983 1.419 . S
C2985 C2986 1.362 . S
C2986 H2978 0.930 . S
C2986 C2985 1.362 . S
C2986 C2989 1.409 . S
C2987 H2979 0.930 . S
C2987 C2988 1.355 . S
C2987 C2989 1.415 . S
C2988 C2987 1.355 . S
C2988 C2990 1.419 . S
C2989 C2984 1.425 . S
C2989 C2986 1.409 . S
C2989 C2987 1.415 . S
C2990 H2980 0.930 . S
C2990 C2988 1.419 . S
C2990 C2991 1.362 . S
C2991 H2981 0.930 . S
C2991 C2984 1.409 . S
C2991 C2990 1.362 . S
H2992 C2998 0.930 . S
H2993 C3001 0.930 . S
H2994 C3002 0.930 . S
H2995 C3003 0.930 . S
H2996 C3006 0.930 . S
H2997 C3007 0.930 . S
C2998 H2992 0.930 . S
C2998 C2999 1.355 . S
C2998 C3000 1.415 . S
C2999 C2998 1.355 . S
C2999 C3001 1.419 . S
C3000 C2998 1.415 . S
C3000 C3005 1.425 . S
C3000 C3007 1.409 . S
C3001 H2993 0.930 . S
C3001 C2999 1.419 . S
C3001 C3002 1.362 . S
C3002 H2994 0.930 . S
C3002 C3001 1.362 . S
C3002 C3005 1.409 . S
C3003 H2995 0.930 . S
C3003 C3004 1.355 . S
C3003 C3005 1.415 . S
C3004 C3003 1.355 . S
C3004 C3006 1.419 . S
C3005 C3000 1.425 . S
C3005 C3002 1.409 . S
C3005 C3003 1.415 . S
C3006 H2996 0.930 . S
C3006 C3004 1.419 . S
C3006 C3007 1.362 . S
C3007 H2997 0.930 . S
C3007 C3000 1.409 . S
C3007 C3006 1.362 . S
H3008 C3014 0.930 . S
H3009 C3017 0.930 . S
H3010 C3018 0.930 . S
H3011 C3019 0.930 . S
H3012 C3022 0.930 . S
H3013 C3023 0.930 . S
C3014 H3008 0.930 . S
C3014 C3015 1.355 . S
C3014 C3016 1.415 . S
C3015 C3014 1.355 . S
C3015 C3017 1.419 . S
C3016 C3014 1.415 . S
C3016 C3021 1.425 . S
C3016 C3023 1.409 . S
C3017 H3009 0.930 . S
C3017 C3015 1.419 . S
C3017 C3018 1.362 . S
C3018 H3010 0.930 . S
C3018 C3017 1.362 . S
C3018 C3021 1.409 . S
C3019 H3011 0.930 . S
C3019 C3020 1.355 . S
C3019 C3021 1.415 . S
C3020 C3019 1.355 . S
C3020 C3022 1.419 . S
C3021 C3016 1.425 . S
C3021 C3018 1.409 . S
C3021 C3019 1.415 . S
C3022 H3012 0.930 . S
C3022 C3020 1.419 . S
C3022 C3023 1.362 . S
C3023 H3013 0.930 . S
C3023 C3016 1.409 . S
C3023 C3022 1.362 . S
H3024 C3030 0.930 . S
H3025 C3033 0.930 . S
H3026 C3034 0.930 . S
H3027 C3035 0.930 . S
H3028 C3038 0.930 . S
H3029 C3039 0.930 . S
C3030 H3024 0.930 . S
C3030 C3031 1.355 . S
C3030 C3032 1.415 . S
C3031 C3030 1.355 . S
C3031 C3033 1.419 . S
C3032 C3030 1.415 . S
C3032 C3037 1.425 . S
C3032 C3039 1.409 . S
C3033 H3025 0.930 . S
C3033 C3031 1.419 . S
C3033 C3034 1.362 . S
C3034 H3026 0.930 . S
C3034 C3033 1.362 . S
C3034 C3037 1.409 . S
C3035 H3027 0.930 . S
C3035 C3036 1.355 . S
C3035 C3037 1.415 . S
C3036 C3035 1.355 . S
C3036 C3038 1.419 . S
C3037 C3032 1.425 . S
C3037 C3034 1.409 . S
C3037 C3035 1.415 . S
C3038 H3028 0.930 . S
C3038 C3036 1.419 . S
C3038 C3039 1.362 . S
C3039 H3029 0.930 . S
C3039 C3032 1.409 . S
C3039 C3038 1.362 . S
H3040 C3046 0.930 . S
H3041 C3049 0.930 . S
H3042 C3050 0.930 . S
H3043 C3051 0.930 . S
H3044 C3054 0.930 . S
H3045 C3055 0.930 . S
C3046 H3040 0.930 . S
C3046 C3047 1.355 . S
C3046 C3048 1.415 . S
C3047 C3046 1.355 . S
C3047 C3049 1.419 . S
C3048 C3046 1.415 . S
C3048 C3053 1.425 . S
C3048 C3055 1.409 . S
C3049 H3041 0.930 . S
C3049 C3047 1.419 . S
C3049 C3050 1.362 . S
C3050 H3042 0.930 . S
C3050 C3049 1.362 . S
C3050 C3053 1.409 . S
C3051 H3043 0.930 . S
C3051 C3052 1.355 . S
C3051 C3053 1.415 . S
C3052 C3051 1.355 . S
C3052 C3054 1.419 . S
C3053 C3048 1.425 . S
C3053 C3050 1.409 . S
C3053 C3051 1.415 . S
C3054 H3044 0.930 . S
C3054 C3052 1.419 . S
C3054 C3055 1.362 . S
C3055 H3045 0.930 . S
C3055 C3048 1.409 . S
C3055 C3054 1.362 . S
H3056 C3062 0.930 . S
H3057 C3065 0.930 . S
H3058 C3066 0.930 . S
H3059 C3067 0.930 . S
H3060 C3070 0.930 . S
H3061 C3071 0.930 . S
C3062 H3056 0.930 . S
C3062 C3063 1.355 . S
C3062 C3064 1.415 . S
C3063 C3062 1.355 . S
C3063 C3065 1.419 . S
C3064 C3062 1.415 . S
C3064 C3069 1.425 . S
C3064 C3071 1.409 . S
C3065 H3057 0.930 . S
C3065 C3063 1.419 . S
C3065 C3066 1.362 . S
C3066 H3058 0.930 . S
C3066 C3065 1.362 . S
C3066 C3069 1.409 . S
C3067 H3059 0.930 . S
C3067 C3068 1.355 . S
C3067 C3069 1.415 . S
C3068 C3067 1.355 . S
C3068 C3070 1.419 . S
C3069 C3064 1.425 . S
C3069 C3066 1.409 . S
C3069 C3067 1.415 . S
C3070 H3060 0.930 . S
C3070 C3068 1.419 . S
C3070 C3071 1.362 . S
C3071 H3061 0.930 . S
C3071 C3064 1.409 . S
C3071 C3070 1.362 . S
H3072 C3078 0.930 . S
H3073 C3081 0.930 . S
H3074 C3082 0.930 . S
H3075 C3083 0.930 . S
H3076 C3086 0.930 . S
H3077 C3087 0.930 . S
C3078 H3072 0.930 . S
C3078 C3079 1.355 . S
C3078 C3080 1.415 . S
C3079 C3078 1.355 . S
C3079 C3081 1.419 . S
C3080 C3078 1.415 . S
C3080 C3085 1.425 . S
C3080 C3087 1.409 . S
C3081 H3073 0.930 . S
C3081 C3079 1.419 . S
C3081 C3082 1.362 . S
C3082 H3074 0.930 . S
C3082 C3081 1.362 . S
C3082 C3085 1.409 . S
C3083 H3075 0.930 . S
C3083 C3084 1.355 . S
C3083 C3085 1.415 . S
C3084 C3083 1.355 . S
C3084 C3086 1.419 . S
C3085 C3080 1.425 . S
C3085 C3082 1.409 . S
C3085 C3083 1.415 . S
C3086 H3076 0.930 . S
C3086 C3084 1.419 . S
C3086 C3087 1.362 . S
C3087 H3077 0.930 . S
C3087 C3080 1.409 . S
C3087 C3086 1.362 . S
H3088 C3094 0.930 . S
H3089 C3097 0.930 . S
H3090 C3098 0.930 . S
H3091 C3099 0.930 . S
H3092 C3102 0.930 . S
H3093 C3103 0.930 . S
C3094 H3088 0.930 . S
C3094 C3095 1.355 . S
C3094 C3096 1.415 . S
C3095 C3094 1.355 . S
C3095 C3097 1.419 . S
C3096 C3094 1.415 . S
C3096 C3101 1.425 . S
C3096 C3103 1.409 . S
C3097 H3089 0.930 . S
C3097 C3095 1.419 . S
C3097 C3098 1.362 . S
C3098 H3090 0.930 . S
C3098 C3097 1.362 . S
C3098 C3101 1.409 . S
C3099 H3091 0.930 . S
C3099 C3100 1.355 . S
C3099 C3101 1.415 . S
C3100 C3099 1.355 . S
C3100 C3102 1.419 . S
C3101 C3096 1.425 . S
C3101 C3098 1.409 . S
C3101 C3099 1.415 . S
C3102 H3092 0.930 . S
C3102 C3100 1.419 . S
C3102 C3103 1.362 . S
C3103 H3093 0.930 . S
C3103 C3096 1.409 . S
C3103 C3102 1.362 . S
H3104 C3110 0.930 . S
H3105 C3113 0.930 . S
H3106 C3114 0.930 . S
H3107 C3115 0.930 . S
H3108 C3118 0.930 . S
H3109 C3119 0.930 . S
C3110 H3104 0.930 . S
C3110 C3111 1.355 . S
C3110 C3112 1.415 . S
C3111 C3110 1.355 . S
C3111 C3113 1.419 . S
C3112 C3110 1.415 . S
C3112 C3117 1.425 . S
C3112 C3119 1.409 . S
C3113 H3105 0.930 . S
C3113 C3111 1.419 . S
C3113 C3114 1.362 . S
C3114 H3106 0.930 . S
C3114 C3113 1.362 . S
C3114 C3117 1.409 . S
C3115 H3107 0.930 . S
C3115 C3116 1.355 . S
C3115 C3117 1.415 . S
C3116 C3115 1.355 . S
C3116 C3118 1.419 . S
C3117 C3112 1.425 . S
C3117 C3114 1.409 . S
C3117 C3115 1.415 . S
C3118 H3108 0.930 . S
C3118 C3116 1.419 . S
C3118 C3119 1.362 . S
C3119 H3109 0.930 . S
C3119 C3112 1.409 . S
C3119 C3118 1.362 . S
H3120 C3126 0.930 . S
H3121 C3129 0.930 . S
H3122 C3130 0.930 . S
H3123 C3131 0.930 . S
H3124 C3134 0.930 . S
H3125 C3135 0.930 . S
C3126 H3120 0.930 . S
C3126 C3127 1.355 . S
C3126 C3128 1.415 . S
C3127 C3126 1.355 . S
C3127 C3129 1.419 . S
C3128 C3126 1.415 . S
C3128 C3133 1.425 . S
C3128 C3135 1.409 . S
C3129 H3121 0.930 . S
C3129 C3127 1.419 . S
C3129 C3130 1.362 . S
C3130 H3122 0.930 . S
C3130 C3129 1.362 . S
C3130 C3133 1.409 . S
C3131 H3123 0.930 . S
C3131 C3132 1.355 . S
C3131 C3133 1.415 . S
C3132 C3131 1.355 . S
C3132 C3134 1.419 . S
C3133 C3128 1.425 . S
C3133 C3130 1.409 . S
C3133 C3131 1.415 . S
C3134 H3124 0.930 . S
C3134 C3132 1.419 . S
C3134 C3135 1.362 . S
C3135 H3125 0.930 . S
C3135 C3128 1.409 . S
C3135 C3134 1.362 . S
H3136 C3142 0.930 . S
H3137 C3145 0.930 . S
H3138 C3146 0.930 . S
H3139 C3147 0.930 . S
H3140 C3150 0.930 . S
H3141 C3151 0.930 . S
C3142 H3136 0.930 . S
C3142 C3143 1.355 . S
C3142 C3144 1.415 . S
C3143 C3142 1.355 . S
C3143 C3145 1.419 . S
C3144 C3142 1.415 . S
C3144 C3149 1.425 . S
C3144 C3151 1.409 . S
C3145 H3137 0.930 . S
C3145 C3143 1.419 . S
C3145 C3146 1.362 . S
C3146 H3138 0.930 . S
C3146 C3145 1.362 . S
C3146 C3149 1.409 . S
C3147 H3139 0.930 . S
C3147 C3148 1.355 . S
C3147 C3149 1.415 . S
C3148 C3147 1.355 . S
C3148 C3150 1.419 . S
C3149 C3144 1.425 . S
C3149 C3146 1.409 . S
C3149 C3147 1.415 . S
C3150 H3140 0.930 . S
C3150 C3148 1.419 . S
C3150 C3151 1.362 . S
C3151 H3141 0.930 . S
C3151 C3144 1.409 . S
C3151 C3150 1.362 . S
H3152 C3158 0.930 . S
H3153 C3161 0.930 . S
H3154 C3162 0.930 . S
H3155 C3163 0.930 . S
H3156 C3166 0.930 . S
H3157 C3167 0.930 . S
C3158 H3152 0.930 . S
C3158 C3159 1.355 . S
C3158 C3160 1.415 . S
C3159 C3158 1.355 . S
C3159 C3161 1.419 . S
C3160 C3158 1.415 . S
C3160 C3165 1.425 . S
C3160 C3167 1.409 . S
C3161 H3153 0.930 . S
C3161 C3159 1.419 . S
C3161 C3162 1.362 . S
C3162 H3154 0.930 . S
C3162 C3161 1.362 . S
C3162 C3165 1.409 . S
C3163 H3155 0.930 . S
C3163 C3164 1.355 . S
C3163 C3165 1.415 . S
C3164 C3163 1.355 . S
C3164 C3166 1.419 . S
C3165 C3160 1.425 . S
C3165 C3162 1.409 . S
C3165 C3163 1.415 . S
C3166 H3156 0.930 . S
C3166 C3164 1.419 . S
C3166 C3167 1.362 . S
C3167 H3157 0.930 . S
C3167 C3160 1.409 . S
C3167 C3166 1.362 . S
H3168 C3174 0.930 . S
H3169 C3177 0.930 . S
H3170 C3178 0.930 . S
H3171 C3179 0.930 . S
H3172 C3182 0.930 . S
H3173 C3183 0.930 . S
C3174 H3168 0.930 . S
C3174 C3175 1.355 . S
C3174 C3176 1.415 . S
C3175 C3174 1.355 . S
C3175 C3177 1.419 . S
C3176 C3174 1.415 . S
C3176 C3181 1.425 . S
C3176 C3183 1.409 . S
C3177 H3169 0.930 . S
C3177 C3175 1.419 . S
C3177 C3178 1.362 . S
C3178 H3170 0.930 . S
C3178 C3177 1.362 . S
C3178 C3181 1.409 . S
C3179 H3171 0.930 . S
C3179 C3180 1.355 . S
C3179 C3181 1.415 . S
C3180 C3179 1.355 . S
C3180 C3182 1.419 . S
C3181 C3176 1.425 . S
C3181 C3178 1.409 . S
C3181 C3179 1.415 . S
C3182 H3172 0.930 . S
C3182 C3180 1.419 . S
C3182 C3183 1.362 . S
C3183 H3173 0.930 . S
C3183 C3176 1.409 . S
C3183 C3182 1.362 . S
H3184 C3190 0.930 . S
H3185 C3193 0.930 . S
H3186 C3194 0.930 . S
H3187 C3195 0.930 . S
H3188 C3198 0.930 . S
H3189 C3199 0.930 . S
C3190 H3184 0.930 . S
C3190 C3191 1.355 . S
C3190 C3192 1.415 . S
C3191 C3190 1.355 . S
C3191 C3193 1.419 . S
C3192 C3190 1.415 . S
C3192 C3197 1.425 . S
C3192 C3199 1.409 . S
C3193 H3185 0.930 . S
C3193 C3191 1.419 . S
C3193 C3194 1.362 . S
C3194 H3186 0.930 . S
C3194 C3193 1.362 . S
C3194 C3197 1.409 . S
C3195 H3187 0.930 . S
C3195 C3196 1.355 . S
C3195 C3197 1.415 . S
C3196 C3195 1.355 . S
C3196 C3198 1.419 . S
C3197 C3192 1.425 . S
C3197 C3194 1.409 . S
C3197 C3195 1.415 . S
C3198 H3188 0.930 . S
C3198 C3196 1.419 . S
C3198 C3199 1.362 . S
C3199 H3189 0.930 . S
C3199 C3192 1.409 . S
C3199 C3198 1.362 . S
H3200 C3206 0.930 . S
H3201 C3209 0.930 . S
H3202 C3210 0.930 . S
H3203 C3211 0.930 . S
H3204 C3214 0.930 . S
H3205 C3215 0.930 . S
C3206 H3200 0.930 . S
C3206 C3207 1.355 . S
C3206 C3208 1.415 . S
C3207 C3206 1.355 . S
C3207 C3209 1.419 . S
C3208 C3206 1.415 . S
C3208 C3213 1.425 . S
C3208 C3215 1.409 . S
C3209 H3201 0.930 . S
C3209 C3207 1.419 . S
C3209 C3210 1.362 . S
C3210 H3202 0.930 . S
C3210 C3209 1.362 . S
C3210 C3213 1.409 . S
C3211 H3203 0.930 . S
C3211 C3212 1.355 . S
C3211 C3213 1.415 . S
C3212 C3211 1.355 . S
C3212 C3214 1.419 . S
C3213 C3208 1.425 . S
C3213 C3210 1.409 . S
C3213 C3211 1.415 . S
C3214 H3204 0.930 . S
C3214 C3212 1.419 . S
C3214 C3215 1.362 . S
C3215 H3205 0.930 . S
C3215 C3208 1.409 . S
C3215 C3214 1.362 . S
H3216 C3222 0.930 . S
H3217 C3225 0.930 . S
H3218 C3226 0.930 . S
H3219 C3227 0.930 . S
H3220 C3230 0.930 . S
H3221 C3231 0.930 . S
C3222 H3216 0.930 . S
C3222 C3223 1.355 . S
C3222 C3224 1.415 . S
C3223 C3222 1.355 . S
C3223 C3225 1.419 . S
C3224 C3222 1.415 . S
C3224 C3229 1.425 . S
C3224 C3231 1.409 . S
C3225 H3217 0.930 . S
C3225 C3223 1.419 . S
C3225 C3226 1.362 . S
C3226 H3218 0.930 . S
C3226 C3225 1.362 . S
C3226 C3229 1.409 . S
C3227 H3219 0.930 . S
C3227 C3228 1.355 . S
C3227 C3229 1.415 . S
C3228 C3227 1.355 . S
C3228 C3230 1.419 . S
C3229 C3224 1.425 . S
C3229 C3226 1.409 . S
C3229 C3227 1.415 . S
C3230 H3220 0.930 . S
C3230 C3228 1.419 . S
C3230 C3231 1.362 . S
C3231 H3221 0.930 . S
C3231 C3224 1.409 . S
C3231 C3230 1.362 . S
H3232 C3238 0.930 . S
H3233 C3241 0.930 . S
H3234 C3242 0.930 . S
H3235 C3243 0.930 . S
H3236 C3246 0.930 . S
H3237 C3247 0.930 . S
C3238 H3232 0.930 . S
C3238 C3239 1.355 . S
C3238 C3240 1.415 . S
C3239 C3238 1.355 . S
C3239 C3241 1.419 . S
C3240 C3238 1.415 . S
C3240 C3245 1.425 . S
C3240 C3247 1.409 . S
C3241 H3233 0.930 . S
C3241 C3239 1.419 . S
C3241 C3242 1.362 . S
C3242 H3234 0.930 . S
C3242 C3241 1.362 . S
C3242 C3245 1.409 . S
C3243 H3235 0.930 . S
C3243 C3244 1.355 . S
C3243 C3245 1.415 . S
C3244 C3243 1.355 . S
C3244 C3246 1.419 . S
C3245 C3240 1.425 . S
C3245 C3242 1.409 . S
C3245 C3243 1.415 . S
C3246 H3236 0.930 . S
C3246 C3244 1.419 . S
C3246 C3247 1.362 . S
C3247 H3237 0.930 . S
C3247 C3240 1.409 . S
C3247 C3246 1.362 . S
H3248 C3254 0.930 . S
H3249 C3257 0.930 . S
H3250 C3258 0.930 . S
H3251 C3259 0.930 . S
H3252 C3262 0.930 . S
H3253 C3263 0.930 . S
C3254 H3248 0.930 . S
C3254 C3255 1.355 . S
C3254 C3256 1.415 . S
C3255 C3254 1.355 . S
C3255 C3257 1.419 . S
C3256 C3254 1.415 . S
C3256 C3261 1.425 . S
C3256 C3263 1.409 . S
C3257 H3249 0.930 . S
C3257 C3255 1.419 . S
C3257 C3258 1.362 . S
C3258 H3250 0.930 . S
C3258 C3257 1.362 . S
C3258 C3261 1.409 . S
C3259 H3251 0.930 . S
C3259 C3260 1.355 . S
C3259 C3261 1.415 . S
C3260 C3259 1.355 . S
C3260 C3262 1.419 . S
C3261 C3256 1.425 . S
C3261 C3258 1.409 . S
C3261 C3259 1.415 . S
C3262 H3252 0.930 . S
C3262 C3260 1.419 . S
C3262 C3263 1.362 . S
C3263 H3253 0.930 . S
C3263 C3256 1.409 . S
C3263 C3262 1.362 . S
H3264 C3270 0.930 . S
H3265 C3273 0.930 . S
H3266 C3274 0.930 . S
H3267 C3275 0.930 . S
H3268 C3278 0.930 . S
H3269 C3279 0.930 . S
C3270 H3264 0.930 . S
C3270 C3271 1.355 . S
C3270 C3272 1.415 . S
C3271 C3270 1.355 . S
C3271 C3273 1.419 . S
C3272 C3270 1.415 . S
C3272 C3277 1.425 . S
C3272 C3279 1.409 . S
C3273 H3265 0.930 . S
C3273 C3271 1.419 . S
C3273 C3274 1.362 . S
C3274 H3266 0.930 . S
C3274 C3273 1.362 . S
C3274 C3277 1.409 . S
C3275 H3267 0.930 . S
C3275 C3276 1.355 . S
C3275 C3277 1.415 . S
C3276 C3275 1.355 . S
C3276 C3278 1.419 . S
C3277 C3272 1.425 . S
C3277 C3274 1.409 . S
C3277 C3275 1.415 . S
C3278 H3268 0.930 . S
C3278 C3276 1.419 . S
C3278 C3279 1.362 . S
C3279 H3269 0.930 . S
C3279 C3272 1.409 . S
C3279 C3278 1.362 . S
H3280 C3286 0.930 . S
H3281 C3289 0.930 . S
H3282 C3290 0.930 . S
H3283 C3291 0.930 . S
H3284 C3294 0.930 . S
H3285 C3295 0.930 . S
C3286 H3280 0.930 . S
C3286 C3287 1.355 . S
C3286 C3288 1.415 . S
C3287 C3286 1.355 . S
C3287 C3289 1.419 . S
C3288 C3286 1.415 . S
C3288 C3293 1.425 . S
C3288 C3295 1.409 . S
C3289 H3281 0.930 . S
C3289 C3287 1.419 . S
C3289 C3290 1.362 . S
C3290 H3282 0.930 . S
C3290 C3289 1.362 . S
C3290 C3293 1.409 . S
C3291 H3283 0.930 . S
C3291 C3292 1.355 . S
C3291 C3293 1.415 . S
C3292 C3291 1.355 . S
C3292 C3294 1.419 . S
C3293 C3288 1.425 . S
C3293 C3290 1.409 . S
C3293 C3291 1.415 . S
C3294 H3284 0.930 . S
C3294 C3292 1.419 . S
C3294 C3295 1.362 . S
C3295 H3285 0.930 . S
C3295 C3288 1.409 . S
C3295 C3294 1.362 . S
H3296 C3302 0.930 . S
H3297 C3305 0.930 . S
H3298 C3306 0.930 . S
H3299 C3307 0.930 . S
H3300 C3310 0.930 . S
H3301 C3311 0.930 . S
C3302 H3296 0.930 . S
C3302 C3303 1.355 . S
C3302 C3304 1.415 . S
C3303 C3302 1.355 . S
C3303 C3305 1.419 . S
C3304 C3302 1.415 . S
C3304 C3309 1.425 . S
C3304 C3311 1.409 . S
C3305 H3297 0.930 . S
C3305 C3303 1.419 . S
C3305 C3306 1.362 . S
C3306 H3298 0.930 . S
C3306 C3305 1.362 . S
C3306 C3309 1.409 . S
C3307 H3299 0.930 . S
C3307 C3308 1.355 . S
C3307 C3309 1.415 . S
C3308 C3307 1.355 . S
C3308 C3310 1.419 . S
C3309 C3304 1.425 . S
C3309 C3306 1.409 . S
C3309 C3307 1.415 . S
C3310 H3300 0.930 . S
C3310 C3308 1.419 . S
C3310 C3311 1.362 . S
C3311 H3301 0.930 . S
C3311 C3304 1.409 . S
C3311 C3310 1.362 . S
H3312 C3318 0.930 . S
H3313 C3321 0.930 . S
H3314 C3322 0.930 . S
H3315 C3323 0.930 . S
H3316 C3326 0.930 . S
H3317 C3327 0.930 . S
C3318 H3312 0.930 . S
C3318 C3319 1.355 . S
C3318 C3320 1.415 . S
C3319 C3318 1.355 . S
C3319 C3321 1.419 . S
C3320 C3318 1.415 . S
C3320 C3325 1.425 . S
C3320 C3327 1.409 . S
C3321 H3313 0.930 . S
C3321 C3319 1.419 . S
C3321 C3322 1.362 . S
C3322 H3314 0.930 . S
C3322 C3321 1.362 . S
C3322 C3325 1.409 . S
C3323 H3315 0.930 . S
C3323 C3324 1.355 . S
C3323 C3325 1.415 . S
C3324 C3323 1.355 . S
C3324 C3326 1.419 . S
C3325 C3320 1.425 . S
C3325 C3322 1.409 . S
C3325 C3323 1.415 . S
C3326 H3316 0.930 . S
C3326 C3324 1.419 . S
C3326 C3327 1.362 . S
C3327 H3317 0.930 . S
C3327 C3320 1.409 . S
C3327 C3326 1.362 . S
H3328 C3334 0.930 . S
H3329 C3337 0.930 . S
H3330 C3338 0.930 . S
H3331 C3339 0.930 . S
H3332 C3342 0.930 . S
H3333 C3343 0.930 . S
C3334 H3328 0.930 . S
C3334 C3335 1.355 . S
C3334 C3336 1.415 . S
C3335 C3334 1.355 . S
C3335 C3337 1.419 . S
C3336 C3334 1.415 . S
C3336 C3341 1.425 . S
C3336 C3343 1.409 . S
C3337 H3329 0.930 . S
C3337 C3335 1.419 . S
C3337 C3338 1.362 . S
C3338 H3330 0.930 . S
C3338 C3337 1.362 . S
C3338 C3341 1.409 . S
C3339 H3331 0.930 . S
C3339 C3340 1.355 . S
C3339 C3341 1.415 . S
C3340 C3339 1.355 . S
C3340 C3342 1.419 . S
C3341 C3336 1.425 . S
C3341 C3338 1.409 . S
C3341 C3339 1.415 . S
C3342 H3332 0.930 . S
C3342 C3340 1.419 . S
C3342 C3343 1.362 . S
C3343 H3333 0.930 . S
C3343 C3336 1.409 . S
C3343 C3342 1.362 . S
H3344 C3350 0.930 . S
H3345 C3353 0.930 . S
H3346 C3354 0.930 . S
H3347 C3355 0.930 . S
H3348 C3358 0.930 . S
H3349 C3359 0.930 . S
C3350 H3344 0.930 . S
C3350 C3351 1.355 . S
C3350 C3352 1.415 . S
C3351 C3350 1.355 . S
C3351 C3353 1.419 . S
C3352 C3350 1.415 . S
C3352 C3357 1.425 . S
C3352 C3359 1.409 . S
C3353 H3345 0.930 . S
C3353 C3351 1.419 . S
C3353 C3354 1.362 . S
C3354 H3346 0.930 . S
C3354 C3353 1.362 . S
C3354 C3357 1.409 . S
C3355 H3347 0.930 . S
C3355 C3356 1.355 . S
C3355 C3357 1.415 . S
C3356 C3355 1.355 . S
C3356 C3358 1.419 . S
C3357 C3352 1.425 . S
C3357 C3354 1.409 . S
C3357 C3355 1.415 . S
C3358 H3348 0.930 . S
C3358 C3356 1.419 . S
C3358 C3359 1.362 . S
C3359 H3349 0.930 . S
C3359 C3352 1.409 . S
C3359 C3358 1.362 . S
H3360 C3366 0.930 . S
H3361 C3369 0.930 . S
H3362 C3370 0.930 . S
H3363 C3371 0.930 . S
H3364 C3374 0.930 . S
H3365 C3375 0.930 . S
C3366 H3360 0.930 . S
C3366 C3367 1.355 . S
C3366 C3368 1.415 . S
C3367 C3366 1.355 . S
C3367 C3369 1.419 . S
C3368 C3366 1.415 . S
C3368 C3373 1.425 . S
C3368 C3375 1.409 . S
C3369 H3361 0.930 . S
C3369 C3367 1.419 . S
C3369 C3370 1.362 . S
C3370 H3362 0.930 . S
C3370 C3369 1.362 . S
C3370 C3373 1.409 . S
C3371 H3363 0.930 . S
C3371 C3372 1.355 . S
C3371 C3373 1.415 . S
C3372 C3371 1.355 . S
C3372 C3374 1.419 . S
C3373 C3368 1.425 . S
C3373 C3370 1.409 . S
C3373 C3371 1.415 . S
C3374 H3364 0.930 . S
C3374 C3372 1.419 . S
C3374 C3375 1.362 . S
C3375 H3365 0.930 . S
C3375 C3368 1.409 . S
C3375 C3374 1.362 . S
H3376 C3382 0.930 . S
H3377 C3385 0.930 . S
H3378 C3386 0.930 . S
H3379 C3387 0.930 . S
H3380 C3390 0.930 . S
H3381 C3391 0.930 . S
C3382 H3376 0.930 . S
C3382 C3383 1.355 . S
C3382 C3384 1.415 . S
C3383 C3382 1.355 . S
C3383 C3385 1.419 . S
C3384 C3382 1.415 . S
C3384 C3389 1.425 . S
C3384 C3391 1.409 . S
C3385 H3377 0.930 . S
C3385 C3383 1.419 . S
C3385 C3386 1.362 . S
C3386 H3378 0.930 . S
C3386 C3385 1.362 . S
C3386 C3389 1.409 . S
C3387 H3379 0.930 . S
C3387 C3388 1.355 . S
C3387 C3389 1.415 . S
C3388 C3387 1.355 . S
C3388 C3390 1.419 . S
C3389 C3384 1.425 . S
C3389 C3386 1.409 . S
C3389 C3387 1.415 . S
C3390 H3380 0.930 . S
C3390 C3388 1.419 . S
C3390 C3391 1.362 . S
C3391 H3381 0.930 . S
C3391 C3384 1.409 . S
C3391 C3390 1.362 . S
H3392 C3398 0.930 . S
H3393 C3401 0.930 . S
H3394 C3402 0.930 . S
H3395 C3403 0.930 . S
H3396 C3406 0.930 . S
H3397 C3407 0.930 . S
C3398 H3392 0.930 . S
C3398 C3399 1.355 . S
C3398 C3400 1.415 . S
C3399 C3398 1.355 . S
C3399 C3401 1.419 . S
C3400 C3398 1.415 . S
C3400 C3405 1.425 . S
C3400 C3407 1.409 . S
C3401 H3393 0.930 . S
C3401 C3399 1.419 . S
C3401 C3402 1.362 . S
C3402 H3394 0.930 . S
C3402 C3401 1.362 . S
C3402 C3405 1.409 . S
C3403 H3395 0.930 . S
C3403 C3404 1.355 . S
C3403 C3405 1.415 . S
C3404 C3403 1.355 . S
C3404 C3406 1.419 . S
C3405 C3400 1.425 . S
C3405 C3402 1.409 . S
C3405 C3403 1.415 . S
C3406 H3396 0.930 . S
C3406 C3404 1.419 . S
C3406 C3407 1.362 . S
C3407 H3397 0.930 . S
C3407 C3400 1.409 . S
C3407 C3406 1.362 . S
H3408 C3414 0.930 . S
H3409 C3417 0.930 . S
H3410 C3418 0.930 . S
H3411 C3419 0.930 . S
H3412 C3422 0.930 . S
H3413 C3423 0.930 . S
C3414 H3408 0.930 . S
C3414 C3415 1.355 . S
C3414 C3416 1.415 . S
C3415 C3414 1.355 . S
C3415 C3417 1.419 . S
C3416 C3414 1.415 . S
C3416 C3421 1.425 . S
C3416 C3423 1.409 . S
C3417 H3409 0.930 . S
C3417 C3415 1.419 . S
C3417 C3418 1.362 . S
C3418 H3410 0.930 . S
C3418 C3417 1.362 . S
C3418 C3421 1.409 . S
C3419 H3411 0.930 . S
C3419 C3420 1.355 . S
C3419 C3421 1.415 . S
C3420 C3419 1.355 . S
C3420 C3422 1.419 . S
C3421 C3416 1.425 . S
C3421 C3418 1.409 . S
C3421 C3419 1.415 . S
C3422 H3412 0.930 . S
C3422 C3420 1.419 . S
C3422 C3423 1.362 . S
C3423 H3413 0.930 . S
C3423 C3416 1.409 . S
C3423 C3422 1.362 . S
H3424 C3430 0.930 . S
H3425 C3433 0.930 . S
H3426 C3434 0.930 . S
H3427 C3435 0.930 . S
H3428 C3438 0.930 . S
H3429 C3439 0.930 . S
C3430 H3424 0.930 . S
C3430 C3431 1.355 . S
C3430 C3432 1.415 . S
C3431 C3430 1.355 . S
C3431 C3433 1.419 . S
C3432 C3430 1.415 . S
C3432 C3437 1.425 . S
C3432 C3439 1.409 . S
C3433 H3425 0.930 . S
C3433 C3431 1.419 . S
C3433 C3434 1.362 . S
C3434 H3426 0.930 . S
C3434 C3433 1.362 . S
C3434 C3437 1.409 . S
C3435 H3427 0.930 . S
C3435 C3436 1.355 . S
C3435 C3437 1.415 . S
C3436 C3435 1.355 . S
C3436 C3438 1.419 . S
C3437 C3432 1.425 . S
C3437 C3434 1.409 . S
C3437 C3435 1.415 . S
C3438 H3428 0.930 . S
C3438 C3436 1.419 . S
C3438 C3439 1.362 . S
C3439 H3429 0.930 . S
C3439 C3432 1.409 . S
C3439 C3438 1.362 . S
H3440 C3446 0.930 . S
H3441 C3449 0.930 . S
H3442 C3450 0.930 . S
H3443 C3451 0.930 . S
H3444 C3454 0.930 . S
H3445 C3455 0.930 . S
C3446 H3440 0.930 . S
C3446 C3447 1.355 . S
C3446 C3448 1.415 . S
C3447 C3446 1.355 . S
C3447 C3449 1.419 . S
C3448 C3446 1.415 . S
C3448 C3453 1.425 . S
C3448 C3455 1.409 . S
C3449 H3441 0.930 . S
C3449 C3447 1.419 . S
C3449 C3450 1.362 . S
C3450 H3442 0.930 . S
C3450 C3449 1.362 . S
C3450 C3453 1.409 . S
C3451 H3443 0.930 . S
C3451 C3452 1.355 . S
C3451 C3453 1.415 . S
C3452 C3451 1.355 . S
C3452 C3454 1.419 . S
C3453 C3448 1.425 . S
C3453 C3450 1.409 . S
C3453 C3451 1.415 . S
C3454 H3444 0.930 . S
C3454 C3452 1.419 . S
C3454 C3455 1.362 . S
C3455 H3445 0.930 . S
C3455 C3448 1.409 . S
C3455 C3454 1.362 . S
H3456 C3462 0.930 . S
H3457 C3465 0.930 . S
H3458 C3466 0.930 . S
H3459 C3467 0.930 . S
H3460 C3470 0.930 . S
H3461 C3471 0.930 . S
C3462 H3456 0.930 . S
C3462 C3463 1.355 . S
C3462 C3464 1.415 . S
C3463 C3462 1.355 . S
C3463 C3465 1.419 . S
C3464 C3462 1.415 . S
C3464 C3469 1.425 . S
C3464 C3471 1.409 . S
C3465 H3457 0.930 . S
C3465 C3463 1.419 . S
C3465 C3466 1.362 . S
C3466 H3458 0.930 . S
C3466 C3465 1.362 . S
C3466 C3469 1.409 . S
C3467 H3459 0.930 . S
C3467 C3468 1.355 . S
C3467 C3469 1.415 . S
C3468 C3467 1.355 . S
C3468 C3470 1.419 . S
C3469 C3464 1.425 . S
C3469 C3466 1.409 . S
C3469 C3467 1.415 . S
C3470 H3460 0.930 . S
C3470 C3468 1.419 . S
C3470 C3471 1.362 . S
C3471 H3461 0.930 . S
C3471 C3464 1.409 . S
C3471 C3470 1.362 . S
H3472 C3478 0.930 . S
H3473 C3481 0.930 . S
H3474 C3482 0.930 . S
H3475 C3483 0.930 . S
H3476 C3486 0.930 . S
H3477 C3487 0.930 . S
C3478 H3472 0.930 . S
C3478 C3479 1.355 . S
C3478 C3480 1.415 . S
C3479 C3478 1.355 . S
C3479 C3481 1.419 . S
C3480 C3478 1.415 . S
C3480 C3485 1.425 . S
C3480 C3487 1.409 . S
C3481 H3473 0.930 . S
C3481 C3479 1.419 . S
C3481 C3482 1.362 . S
C3482 H3474 0.930 . S
C3482 C3481 1.362 . S
C3482 C3485 1.409 . S
C3483 H3475 0.930 . S
C3483 C3484 1.355 . S
C3483 C3485 1.415 . S
C3484 C3483 1.355 . S
C3484 C3486 1.419 . S
C3485 C3480 1.425 . S
C3485 C3482 1.409 . S
C3485 C3483 1.415 . S
C3486 H3476 0.930 . S
C3486 C3484 1.419 . S
C3486 C3487 1.362 . S
C3487 H3477 0.930 . S
C3487 C3480 1.409 . S
C3487 C3486 1.362 . S
H3488 C3494 0.930 . S
H3489 C3497 0.930 . S
H3490 C3498 0.930 . S
H3491 C3499 0.930 . S
H3492 C3502 0.930 . S
H3493 C3503 0.930 . S
C3494 H3488 0.930 . S
C3494 C3495 1.355 . S
C3494 C3496 1.415 . S
C3495 C3494 1.355 . S
C3495 C3497 1.419 . S
C3496 C3494 1.415 . S
C3496 C3501 1.425 . S
C3496 C3503 1.409 . S
C3497 H3489 0.930 . S
C3497 C3495 1.419 . S
C3497 C3498 1.362 . S
C3498 H3490 0.930 . S
C3498 C3497 1.362 . S
C3498 C3501 1.409 . S
C3499 H3491 0.930 . S
C3499 C3500 1.355 . S
C3499 C3501 1.415 . S
C3500 C3499 1.355 . S
C3500 C3502 1.419 . S
C3501 C3496 1.425 . S
C3501 C3498 1.409 . S
C3501 C3499 1.415 . S
C3502 H3492 0.930 . S
C3502 C3500 1.419 . S
C3502 C3503 1.362 . S
C3503 H3493 0.930 . S
C3503 C3496 1.409 . S
C3503 C3502 1.362 . S
C1591 C602 1.651 . S
C1596 N14 1.476 . S
C1607 N47 1.425 . S
C1612 C644 1.614 1_554 S
C1623 N71 1.704 . S
C1628 C668 1.687 . S
C1639 C569 2.105 . S
C1644 N113 1.895 . S
C1655 C734 1.815 . S
C1660 N146 1.549 . S
C1671 N179 1.471 . S
C1676 C536 1.682 . S
C1687 C767 2.037 . S
C1692 N212 1.865 . S
C1703 C710 1.484 1_556 S
C1708 N245 1.257 . S
C1719 N278 1.198 . S
C1724 C314 1.346 . S
C1735 C338 1.971 . S
C1740 N302 1.961 . S
C1751 C371 2.148 . S
C1756 N344 1.929 . S
C1767 N377 1.623 . S
C1772 C272 1.831 . S
C1783 C503 1.664 . S
C1788 N401 1.655 . S
C1799 N443 1.218 . S
C1804 C413 1.395 . S
C1815 C437 2.040 . S
C1820 N476 1.788 . S
C1831 C470 1.991 . S
C1836 N509 1.789 . S
C1847 N542 1.521 . S
C1852 C107 1.764 . S
C1863 C173 1.923 . S
C1868 N575 1.777 . S
C1879 N608 1.750 . S
C1884 C206 1.922 . S
C1895 C239 1.705 . S
C1900 N632 1.697 . S
C1911 C140 1.789 . S
C1916 N674 1.615 . S
C1927 N698 1.791 . S
C1932 C41 1.812 . S
C1943 N740 1.244 . S
C1948 C83 1.435 . S
C1959 C8 1.734 . S
C1964 N773 1.514 . S
C1975 N806 1.425 . S
C1980 C1394 1.591 . S
C1991 C1436 1.586 . S
C1996 N839 1.398 . S
C2007 C1460 1.672 . S
C2012 N863 1.691 . S
C2023 N905 1.838 . S
C2028 C1361 2.056 . S
C2039 C1526 1.824 . S
C2044 N938 1.620 . S
C2055 N971 1.573 . S
C2060 C1328 1.720 . S
C2071 C1559 2.034 . S
C2076 N1004 1.877 . S
C2087 C1502 1.475 . S
C2092 N1037 1.292 . S
C2103 C1106 1.290 . S
C2108 N1070 1.100 . S
C2119 N1094 1.984 . S
C2124 C1130 2.002 . S
C2135 C1163 2.160 . S
C2140 N1136 1.988 . S
C2151 N1169 1.637 . S
C2156 C1064 1.862 . S
C2167 N1193 1.639 . S
C2172 C1295 1.627 . S
C2183 C1205 1.369 . S
C2188 N1235 1.222 . S
C2199 N1268 1.732 . S
C2204 C1229 2.006 . S
C2215 C1262 2.011 . S
C2220 N1301 1.787 . S
C2231 C899 1.818 . S
C2236 N1334 1.628 . S
C2247 N1367 1.794 . S
C2252 C965 1.939 . S
C2263 N1400 1.673 . S
C2268 C998 1.918 . S
C2279 C1031 1.671 . S
C2284 N1424 1.635 . S
C2295 C932 1.774 . S
C2300 N1466 1.565 . S
C2311 C833 1.845 . S
C2316 N1490 1.799 . S
C2327 N1532 1.282 . S
C2332 C875 1.440 . S
C2343 C800 1.758 . S
C2348 N1565 1.622 . S
C2359 C1040 1.357 . S
C2364 C17 1.376 . S
C2375 C941 1.102 . S
C2380 C50 1.162 . S
C2391 C74 1.643 . S
C2396 C974 1.591 . S
C2407 C1007 1.630 . S
C2412 C116 1.652 . S
C2423 C149 1.059 . S
C2428 C842 1.131 . S
C2439 C866 1.697 . S
C2444 C182 1.612 . S
C2455 C908 1.558 . S
C2460 C215 1.597 . S
C2471 C248 1.282 . S
C2476 C809 1.308 . S
C2487 C281 1.278 . S
C2492 C1469 1.326 . S
C2503 C1370 1.722 . S
C2508 C305 1.819 . S
C2519 C1403 1.298 . S
C2524 C347 1.379 . S
C2535 C1427 1.886 . S
C2540 C380 1.828 . S
C2551 C1568 1.531 . S
C2556 C404 1.625 . S
C2567 C446 1.552 . S
C2572 C1493 1.594 . S
C2583 C479 1.425 . S
C2588 C1535 1.377 . S
C2599 C1337 1.550 . S
C2604 C512 1.511 . S
C2615 C1304 1.594 . S
C2620 C545 1.586 . S
C2631 C578 1.702 . S
C2636 C1097 1.782 . S
C2647 C1139 1.415 . S
C2652 C611 1.388 . S
C2663 C1172 1.807 . S
C2668 C635 1.895 . S
C2679 C677 1.276 . S
C2684 C1073 1.332 . S
C2695 C701 1.549 . S
C2700 C1238 1.463 . S
C2711 C1271 1.428 . S
C2716 C743 1.399 . S
C2727 C776 1.623 . S
C2732 C1196 1.679 . S
C2743 C292 1.221 . S
C2748 N5 1.187 . S
C2759 C325 1.043 . S
C2764 N38 1.025 . S
C2775 N80 1.415 . S
C2780 C358 1.652 . S
C2791 N104 1.140 . S
C2796 C391 1.178 . S
C2807 N137 1.257 . S
C2812 C424 1.245 . S
C2823 C457 1.088 . S
C2828 N170 1.043 . S
C2839 C490 1.371 . S
C2844 N203 1.327 . S
C2855 N236 1.153 . S
C2860 C523 1.160 . S
C2871 C556 1.220 . S
C2876 N269 1.196 . S
C2887 C787 1.430 . S
C2892 N311 1.213 . S
C2903 C721 1.313 . S
C2908 N335 1.288 . S
C2919 N368 1.222 . S
C2924 C754 1.230 . S
C2935 N410 1.277 . S
C2940 C589 1.403 . S
C2951 N434 1.227 . S
C2956 C622 1.243 . S
C2967 N467 1.266 . S
C2972 C655 1.265 . S
C2983 N500 1.156 . S
C2988 C688 1.181 . S
C2999 C28 1.339 . S
C3004 N533 1.316 . S
C3015 N566 1.363 . S
C3020 C160 1.398 . S
C3031 C193 1.203 . S
C3036 N599 1.152 . S
C3047 N641 1.339 . S
C3052 C226 1.499 . S
C3063 C259 1.126 . S
C3068 N665 1.098 . S
C3079 C94 1.507 . S
C3084 N707 1.366 . S
C3095 N731 1.100 . S
C3100 C127 1.150 . S
C3111 C61 1.379 . S
C3116 N764 1.333 . S
C3127 N797 1.251 . S
C3132 C1084 1.275 . S
C3143 C1117 1.089 . S
C3148 N830 1.048 . S
C3159 N872 1.459 . S
C3164 C1150 1.673 . S
C3175 N896 1.154 . S
C3180 C1183 1.181 . S
C3191 N929 1.283 . S
C3196 C1216 1.283 . S
C3207 N962 1.063 . S
C3212 C1249 1.107 . S
C3223 N995 1.351 . S
C3228 C1282 1.391 . S
C3239 N1028 1.158 . S
C3244 C1315 1.165 . S
C3255 N1061 1.251 . S
C3260 C1348 1.265 . S
C3271 N1103 1.309 . S
C3276 C1579 1.465 . S
C3287 N1127 1.253 . S
C3292 C1513 1.258 . S
C3303 C1546 1.213 . S
C3308 N1160 1.172 . S
C3319 C1381 1.399 . S
C3324 N1202 1.272 . S
C3335 N1226 1.172 . S
C3340 C1414 1.203 . S
C3351 C1447 1.213 . S
C3356 N1259 1.191 . S
C3367 N1292 1.203 . S
C3372 C1480 1.215 . S
C3383 N1325 1.316 . S
C3388 C820 1.339 . S
C3399 C952 1.442 . S
C3404 N1358 1.411 . S
C3415 C985 1.198 . S
C3420 N1391 1.147 . S
C3431 C1018 1.500 . S
C3436 N1433 1.342 . S
C3447 C1051 1.196 . S
C3452 N1457 1.188 . S
C3463 C886 1.436 . S
C3468 N1499 1.259 . S
C3479 C919 1.161 . S
C3484 N1523 1.113 . S
C3495 C853 1.432 . S
C3500 N1556 1.415 . S
