# Generated by pormake.
# Topology tfs, (6)-cn, num edge types: 1
# Building blocks:
#     Node 0, Type 0, BuildingBlock: BETDEL_clean_sbu_0, # of connection points: 6
#     Node 1, Type 0, BuildingBlock: BETDEL_clean_sbu_0, # of connection points: 6
#     Node 2, Type 0, BuildingBlock: BETDEL_clean_sbu_0, # of connection points: 6
#     Node 3, Type 0, BuildingBlock: BETDEL_clean_sbu_0, # of connection points: 6
#     Node 4, Type 0, BuildingBlock: BETDEL_clean_sbu_0, # of connection points: 6
#     Node 5, Type 0, BuildingBlock: BETDEL_clean_sbu_0, # of connection points: 6
#     Edge 6, Type (0, 0), BuildingBlock: TEMPAE_clean_linker_10, # of connection points: 2
#     Edge 7, Type (0, 0), BuildingBlock: TEMPAE_clean_linker_10, # of connection points: 2
#     Edge 8, Type (0, 0), BuildingBlock: TEMPAE_clean_linker_10, # of connection points: 2
#     Edge 9, Type (0, 0), BuildingBlock: TEMPAE_clean_linker_10, # of connection points: 2
#     Edge 10, Type (0, 0), BuildingBlock: TEMPAE_clean_linker_10, # of connection points: 2
#     Edge 11, Type (0, 0), BuildingBlock: TEMPAE_clean_linker_10, # of connection points: 2
#     Edge 12, Type (0, 0), BuildingBlock: TEMPAE_clean_linker_10, # of connection points: 2
#     Edge 13, Type (0, 0), BuildingBlock: TEMPAE_clean_linker_10, # of connection points: 2
#     Edge 14, Type (0, 0), BuildingBlock: TEMPAE_clean_linker_10, # of connection points: 2
#     Edge 15, Type (0, 0), BuildingBlock: TEMPAE_clean_linker_10, # of connection points: 2
#     Edge 16, Type (0, 0), BuildingBlock: TEMPAE_clean_linker_10, # of connection points: 2
#     Edge 17, Type (0, 0), BuildingBlock: TEMPAE_clean_linker_10, # of connection points: 2
#     Edge 18, Type (0, 0), BuildingBlock: TEMPAE_clean_linker_10, # of connection points: 2
#     Edge 19, Type (0, 0), BuildingBlock: TEMPAE_clean_linker_10, # of connection points: 2
#     Edge 20, Type (0, 0), BuildingBlock: TEMPAE_clean_linker_10, # of connection points: 2
#     Edge 21, Type (0, 0), BuildingBlock: TEMPAE_clean_linker_10, # of connection points: 2
#     Edge 22, Type (0, 0), BuildingBlock: TEMPAE_clean_linker_10, # of connection points: 2
#     Edge 23, Type (0, 0), BuildingBlock: TEMPAE_clean_linker_10, # of connection points: 2
# Relax obj value: 0.430
# Max RMSD: 0.278
# Mean RMSD: 0.254
data_MOF--net-tfs--node1-BETDEL_clean_sbu_0--edge1-TEMPAE_clean_linker_10
_symmetry_space_group_name_H-M    P1
_symmetry_Int_Tables_number       1
_symmetry_cell_setting            triclinic
loop_
_symmetry_equiv_pos_as_xyz
'x, y, z'
_cell_length_a     45.558116
_cell_length_b     44.826537
_cell_length_c     14.782468
_cell_angle_alpha  90.273295
_cell_angle_beta   91.311293
_cell_angle_gamma 121.86964
loop_
_atom_site_label
_atom_site_type_symbol
_atom_site_fract_x
_atom_site_fract_y
_atom_site_fract_z
_atom_type_partial_charge
Dy0 Dy 0.15874 0.44914 0.23918 0.0
C1 C 0.21106 0.36034 0.19272 0.0
C2 C 0.13962 0.4973 0.26491 0.0
Dy3 Dy 0.18978 0.40567 0.22657 0.0
O4 O 0.1316 0.47646 0.19564 0.0
O5 O 0.15713 0.4908 0.32377 0.0
O6 O 0.14109 0.43865 0.09535 0.0
O7 O 0.18746 0.44181 0.13194 0.0
C8 C 0.16558 0.43471 0.06818 0.0
C9 C 0.18477 0.42315 0.39592 0.0
O10 O 0.23845 0.45675 0.22059 0.0
O11 O 0.21533 0.48947 0.2657 0.0
O12 O 0.19404 0.35948 0.26274 0.0
O13 O 0.21616 0.38574 0.14049 0.0
O14 O 0.21071 0.42196 0.36688 0.0
O15 O 0.16138 0.41342 0.33471 0.0
O16 O 0.11064 0.39564 0.24151 0.0
O17 O 0.13668 0.36941 0.17349 0.0
C18 C 0.24213 0.48644 0.24922 0.0
C19 C 0.10877 0.3695 0.19395 0.0
Dy20 Dy 0.74502 0.17783 0.93745 0.0
C21 C 0.88746 0.23939 0.86031 0.0
C22 C 0.67768 0.15234 0.97276 0.0
Dy23 Dy 0.82258 0.21336 0.9214 0.0
O24 O 0.68842 0.13995 0.9113 0.0
O25 O 0.7038 0.17859 0.01573 0.0
O26 O 0.73875 0.15233 0.80145 0.0
O27 O 0.78092 0.20331 0.82603 0.0
C28 C 0.76662 0.17836 0.76884 0.0
C29 C 0.80929 0.20526 0.09895 0.0
O30 O 0.81865 0.26106 0.92319 0.0
O31 O 0.75918 0.23356 0.93938 0.0
O32 O 0.87428 0.25795 0.8813 0.0
O33 O 0.86431 0.20631 0.8689 0.0
O34 O 0.84014 0.21961 0.06775 0.0
O35 O 0.78785 0.19629 0.03369 0.0
O36 O 0.75471 0.13856 0.99566 0.0
O37 O 0.80184 0.15539 0.90785 0.0
C38 C 0.79041 0.26211 0.93419 0.0
C39 C 0.77688 0.132 0.95906 0.0
Dy40 Dy 0.53681 0.74718 0.11297 0.0
C41 C 0.64649 0.88119 0.02667 0.0
C42 C 0.48054 0.6853 0.16039 0.0
Dy43 Dy 0.59206 0.82057 0.08944 0.0
O44 O 0.4863 0.69789 0.0797 0.0
O45 O 0.50592 0.70612 0.21534 0.0
O46 O 0.54529 0.7343 0.97284 0.0
O47 O 0.55029 0.78299 0.99872 0.0
C48 C 0.55293 0.76418 0.93939 0.0
C49 C 0.57742 0.80524 0.26419 0.0
O50 O 0.54767 0.82939 0.09068 0.0
O51 O 0.50931 0.7747 0.14705 0.0
O52 O 0.64772 0.86477 0.09718 0.0
O53 O 0.61535 0.86495 0.99165 0.0
O54 O 0.58883 0.83615 0.23119 0.0
O55 O 0.57818 0.7852 0.2048 0.0
O56 O 0.58021 0.73847 0.12567 0.0
O57 O 0.61751 0.79016 0.05441 0.0
C58 C 0.51733 0.80664 0.12523 0.0
C59 C 0.60961 0.75903 0.08508 0.0
Dy60 Dy 0.77791 0.5372 0.99607 0.0
C61 C 0.74082 0.63956 0.97936 0.0
C62 C 0.79273 0.48572 0.00827 0.0
Dy63 Dy 0.75507 0.58743 0.99525 0.0
O64 O 0.79934 0.50633 0.94075 0.0
O65 O 0.77802 0.49328 0.0711 0.0
O66 O 0.80341 0.55877 0.8653 0.0
O67 O 0.75604 0.55434 0.88859 0.0
C68 C 0.78003 0.56422 0.83336 0.0
C69 C 0.75212 0.56058 0.15879 0.0
O70 O 0.70251 0.53806 0.97402 0.0
O71 O 0.72059 0.49903 0.9972 0.0
O72 O 0.75871 0.63687 0.04463 0.0
O73 O 0.73144 0.61418 0.92065 0.0
O74 O 0.72977 0.56744 0.12619 0.0
O75 O 0.77614 0.56983 0.10373 0.0
O76 O 0.82748 0.58452 0.04095 0.0
O77 O 0.81348 0.62246 0.97772 0.0
C78 C 0.69579 0.50565 0.98384 0.0
C79 C 0.83698 0.61589 0.01032 0.0
Dy80 Dy 0.24274 0.81847 0.13864 0.0
C81 C 0.09629 0.76978 0.06906 0.0
C82 C 0.3055 0.8237 0.15255 0.0
Dy83 Dy 0.16472 0.79651 0.11571 0.0
O84 O 0.28073 0.80453 0.09413 0.0
O85 O 0.29587 0.8401 0.20614 0.0
O86 O 0.25125 0.84178 0.00276 0.0
O87 O 0.20296 0.79628 0.0273 0.0
C88 C 0.22065 0.81951 0.96972 0.0
C89 C 0.18453 0.81008 0.29209 0.0
O90 O 0.1598 0.74397 0.12397 0.0
O91 O 0.21487 0.7628 0.18265 0.0
O92 O 0.1082 0.7645 0.14353 0.0
O93 O 0.12208 0.78984 0.01717 0.0
O94 O 0.15469 0.80282 0.26044 0.0
O95 O 0.20251 0.81167 0.22651 0.0
O96 O 0.2474 0.87019 0.16166 0.0
O97 O 0.19407 0.85527 0.09486 0.0
C98 C 0.18265 0.73766 0.16174 0.0
C99 C 0.22581 0.87904 0.12693 0.0
Dy100 Dy 0.42948 0.19052 0.00681 0.0
C101 C 0.34399 0.24342 0.10046 0.0
C102 C 0.46975 0.1654 0.95957 0.0
Dy103 Dy 0.38385 0.22095 0.02985 0.0
O104 O 0.44558 0.15153 0.01802 0.0
O105 O 0.4723 0.19347 0.92658 0.0
O106 O 0.4158 0.16759 0.14528 0.0
O107 O 0.41894 0.21505 0.12095 0.0
C108 C 0.41114 0.19148 0.17843 0.0
C109 C 0.38726 0.21121 0.8509 0.0
O110 O 0.43616 0.27142 0.02422 0.0
O111 O 0.47088 0.24775 0.01053 0.0
O112 O 0.33243 0.21223 0.06693 0.0
O113 O 0.37745 0.26227 0.09655 0.0
O114 O 0.3699 0.22398 0.8838 0.0
O115 O 0.40136 0.20466 0.91542 0.0
O116 O 0.37767 0.14657 0.96085 0.0
O117 O 0.35007 0.16282 0.05887 0.0
C118 C 0.46693 0.275 0.01632 0.0
C119 C 0.35077 0.1382 0.01044 0.0
C120 C 0.33717 0.29095 0.16271 0.0
C121 C 0.32211 0.25689 0.12649 0.0
C122 C 0.31708 0.30559 0.17812 0.0
C123 C 0.28124 0.28574 0.1557 0.0
C124 C 0.26572 0.25085 0.12207 0.0
C125 C 0.28639 0.23674 0.10831 0.0
C126 C 0.33441 0.34273 0.21533 0.0
C127 C 0.22763 0.22901 0.09694 0.0
C128 C 0.22636 0.31822 0.25126 0.0
C129 C 0.22598 0.33853 0.18009 0.0
C130 C 0.24368 0.30019 0.24373 0.0
C131 C 0.26053 0.3023 0.16265 0.0
C132 C 0.25897 0.32165 0.08924 0.0
C133 C 0.24187 0.33979 0.09913 0.0
C134 C 0.24508 0.28004 0.32357 0.0
C135 C 0.2762 0.32403 1.0012 0.0
H136 H 0.36481 0.30646 0.17701 0.0
H137 H 0.27476 0.21037 0.08009 0.0
H138 H 0.33326 0.35993 0.16348 0.0
H139 H 0.3206 0.34367 0.27506 0.0
H140 H 0.36194 0.35362 0.23544 0.0
H141 H 0.21917 0.20158 0.07747 0.0
H142 H 0.21205 0.2284 0.15427 0.0
H143 H 0.22192 0.24109 0.03924 0.0
H144 H 0.21411 0.31736 0.31404 0.0
H145 H 0.24141 0.35543 0.04401 0.0
H146 H 0.2722 0.29237 0.34922 0.0
H147 H 0.23613 0.25266 0.30266 0.0
H148 H 0.22899 0.27937 0.37982 0.0
H149 H 0.30462 0.33793 0.01293 0.0
H150 H 0.27064 0.33823 0.94887 0.0
H151 H 0.26743 0.29732 0.97456 0.0
C152 C 0.04454 0.33734 0.16853 0.0
C153 C 0.07691 0.34461 0.14239 0.0
C154 C 0.01523 0.31705 0.11192 0.0
C155 C 0.0189 0.30493 0.02653 0.0
C156 C 0.05141 0.31168 1.00073 0.0
C157 C 0.07992 0.33103 0.05947 0.0
C158 C 0.98054 0.30945 0.14218 0.0
C159 C 0.05654 0.3002 0.90917 0.0
C160 C 0.93533 0.23345 0.91664 0.0
C161 C 0.92456 0.25368 0.87182 0.0
C162 C 0.9672 0.24968 0.96378 0.0
C163 C 0.98893 0.28668 0.96266 0.0
C164 C 0.98014 0.30658 0.90697 0.0
C165 C 0.94766 0.28978 0.86281 0.0
C166 C 0.97575 0.22763 0.02251 0.0
C167 C 0.00354 0.34596 0.90083 0.0
H168 H 0.04225 0.3479 0.23228 0.0
H169 H 0.10502 0.33707 0.03768 0.0
H170 H 0.97148 0.32306 0.09778 0.0
H171 H 0.96107 0.28086 0.13609 0.0
H172 H 0.9816 0.31821 0.21327 0.0
H173 H 0.08282 0.30463 0.90319 0.0
H174 H 0.03718 0.27197 0.8958 0.0
H175 H 0.05275 0.3152 0.85557 0.0
H176 H 0.91738 0.20546 0.92367 0.0
H177 H 0.93924 0.30529 0.82762 0.0
H178 H 0.97245 0.23202 0.09456 0.0
H179 H 0.00304 0.23536 0.01519 0.0
H180 H 0.95872 0.19914 0.00608 0.0
H181 H 0.00286 0.35855 0.96489 0.0
H182 H 0.99551 0.35657 0.84421 0.0
H183 H 0.0307 0.35349 0.89139 0.0
C184 C 0.75057 0.0766 0.04255 0.0
C185 C 0.77113 0.09679 0.97146 0.0
C186 C 0.73774 0.0407 0.04587 0.0
C187 C 0.74621 0.0247 0.977 0.0
C188 C 0.7701 0.04564 0.91067 0.0
C189 C 0.78221 0.08169 0.90821 0.0
C190 C 0.71256 0.01949 0.11854 0.0
C191 C 0.78089 0.02975 0.8385 0.0
C192 C 0.70806 0.9303 0.03819 0.0
C193 C 0.67504 0.91539 0.9976 0.0
C194 C 0.73368 0.96541 0.0229 0.0
C195 C 0.7255 0.98592 0.96794 0.0
C196 C 0.69328 0.96985 0.9199 0.0
C197 C 0.66846 0.93456 0.93492 0.0
C198 C 0.76831 0.98126 0.07184 0.0
C199 C 0.68355 0.99077 0.86031 0.0
H200 H 0.74278 0.08848 0.09311 0.0
H201 H 0.79852 0.0974 0.8538 0.0
H202 H 0.68651 0.00159 0.08719 0.0
H203 H 0.72059 0.00303 0.15366 0.0
H204 H 0.71043 0.03637 0.16995 0.0
H205 H 0.80637 0.0496 0.81138 0.0
H206 H 0.78233 0.0074 0.8648 0.0
H207 H 0.76155 0.01973 0.78158 0.0
H208 H 0.71337 0.91512 0.08521 0.0
H209 H 0.64305 0.92276 0.90241 0.0
H210 H 0.76831 0.99494 0.13456 0.0
H211 H 0.78942 0.00088 0.0294 0.0
H212 H 0.77388 0.96077 0.09123 0.0
H213 H 0.67982 0.00887 0.9031 0.0
H214 H 0.65929 0.97364 0.82006 0.0
H215 H 0.70451 0.00701 0.8132 0.0
C216 C 0.73835 0.68836 0.0529 0.0
C217 C 0.7277 0.66354 0.98202 0.0
C218 C 0.72233 0.70754 0.0656 0.0
C219 C 0.69487 0.70165 0.00617 0.0
C220 C 0.68532 0.67801 0.93148 0.0
C221 C 0.7019 0.65925 0.92023 0.0
C222 C 0.7335 0.7326 0.14572 0.0
C223 C 0.65624 0.67101 0.86644 0.0
C224 C 0.62478 0.71318 0.1029 0.0
C225 C 0.63267 0.74558 0.06786 0.0
C226 C 0.64492 0.69884 0.08357 0.0
C227 C 0.67381 0.71726 0.02769 0.0
C228 C 0.68229 0.75021 0.99301 0.0
C229 C 0.66163 0.76399 0.0135 0.0
C230 C 0.63501 0.66371 0.12241 0.0
C231 C 0.71294 0.77069 0.93348 0.0
H232 H 0.75836 0.69184 0.10077 0.0
H233 H 0.69356 0.64006 0.8654 0.0
H234 H 0.73762 0.75821 0.12444 0.0
H235 H 0.71281 0.72169 0.19609 0.0
H236 H 0.75767 0.73722 0.17929 0.0
H237 H 0.6544 0.65487 0.80681 0.0
H238 H 0.63134 0.6569 0.90173 0.0
H239 H 0.65978 0.69609 0.84244 0.0
H240 H 0.60256 0.6987 0.14511 0.0
H241 H 0.66792 0.78898 0.9858 0.0
H242 H 0.65683 0.66632 0.1641 0.0
H243 H 0.62946 0.64456 0.0668 0.0
H244 H 0.61192 0.65285 0.1651 0.0
H245 H 0.73685 0.77561 0.96909 0.0
H246 H 0.71661 0.7963 0.91369 0.0
H247 H 0.70946 0.75512 0.87119 0.0
C248 C 0.03654 0.74371 0.12375 0.0
C249 C 0.05871 0.75445 0.05039 0.0
C250 C 1.00046 0.72546 0.11076 0.0
C251 C 0.98577 0.71691 0.02189 0.0
C252 C 0.00806 0.72902 0.94715 0.0
C253 C 0.04435 0.74794 0.96228 0.0
C254 C 0.97804 0.71368 0.19268 0.0
C255 C 0.99359 0.72028 0.85133 0.0
C256 C 0.89828 0.63119 0.01088 0.0
C257 C 0.87484 0.64255 0.00743 0.0
C258 C 0.93418 0.65505 0.01098 0.0
C259 C 0.94749 0.6916 0.00891 0.0
C260 C 0.92404 0.70337 0.00311 0.0
C261 C 0.88797 0.67869 1.00166 0.0
C262 C 0.95791 0.64104 0.01615 0.0
C263 C 0.93706 0.74205 1.00174 0.0
H264 H 0.04746 0.74895 0.19214 0.0
H265 H 0.06133 0.7561 0.90534 0.0
H266 H 0.95782 0.72028 0.18581 0.0
H267 H 0.9647 0.68472 0.19814 0.0
H268 H 0.99328 0.72591 0.25645 0.0
H269 H 0.0138 0.73526 0.80106 0.0
H270 H 0.98204 0.6918 0.83749 0.0
H271 H 0.97272 0.72583 0.84178 0.0
H272 H 0.88857 0.60333 0.01372 0.0
H273 H 0.87013 0.68775 0.99859 0.0
H274 H 0.97242 0.64889 0.08204 0.0
H275 H 0.97715 0.65242 0.9621 0.0
H276 H 0.94358 0.61194 0.00941 0.0
H277 H 0.94978 0.75439 0.06799 0.0
H278 H 0.91588 0.74696 0.98842 0.0
H279 H 0.95675 0.75522 0.94934 0.0
C280 C 0.21955 0.92856 0.07063 0.0
C281 C 0.23889 0.91722 0.11807 0.0
C282 C 0.2333 0.96449 0.05446 0.0
C283 C 0.26726 0.98978 0.08623 0.0
C284 C 0.28634 0.97861 0.13716 0.0
C285 C 0.27198 0.94263 0.15244 0.0
C286 C 0.21199 0.97525 1.00038 0.0
C287 C 0.32261 0.00457 0.17254 0.0
C288 C 0.32382 0.07516 0.96327 0.0
C289 C 0.32471 0.10023 0.02251 0.0
C290 C 0.30388 0.03908 0.98105 0.0
C291 C 0.28421 0.02751 0.06025 0.0
C292 C 0.28344 0.05249 0.11781 0.0
C293 C 0.30368 0.08856 0.09825 0.0
C294 C 0.30542 0.01351 0.91738 0.0
C295 C 0.26271 0.04132 0.20265 0.0
H296 H 0.19396 0.90931 0.04376 0.0
H297 H 0.28721 0.93441 0.18968 0.0
H298 H 0.21176 0.99704 0.03555 0.0
H299 H 0.22374 0.98504 0.93371 0.0
H300 H 0.18488 0.95309 0.98878 0.0
H301 H 0.33314 0.99202 0.216 0.0
H302 H 0.33998 0.01692 0.11488 0.0
H303 H 0.3231 0.0259 0.21225 0.0
H304 H 0.33976 0.08382 0.9042 0.0
H305 H 0.30428 0.10766 0.14471 0.0
H306 H 0.27895 0.99177 0.89753 0.0
H307 H 0.31861 0.00169 0.95219 0.0
H308 H 0.31957 0.02631 0.85509 0.0
H309 H 0.23611 0.01878 0.18782 0.0
H310 H 0.26117 0.06305 0.23374 0.0
H311 H 0.27493 0.03253 0.25284 0.0
C312 C 0.19677 0.69125 0.17627 0.0
C313 C 0.17234 0.70111 0.18163 0.0
C314 C 0.1881 0.65702 0.19619 0.0
C315 C 0.1544 0.63219 0.22499 0.0
C316 C 0.12975 0.6422 0.23233 0.0
C317 C 0.13886 0.67644 0.2091 0.0
C318 C 0.21489 0.64726 0.1846 0.0
C319 C 0.09389 0.61682 0.26512 0.0
C320 C 0.12696 0.53739 0.18167 0.0
C321 C 0.13739 0.52907 0.26283 0.0
C322 C 0.13093 0.57033 0.16986 0.0
C323 C 0.14476 0.59534 0.24195 0.0
C324 C 0.15283 0.58609 0.32652 0.0
C325 C 0.14952 0.55317 0.33562 0.0
C326 C 0.12277 0.57921 0.07789 0.0
C327 C 0.16662 0.61162 0.4059 0.0
H328 H 0.22265 0.71024 0.15469 0.0
H329 H 0.12006 0.68416 0.21448 0.0
H330 H 0.2199 0.63832 0.24973 0.0
H331 H 0.2051 0.6251 0.13506 0.0
H332 H 0.23978 0.66955 0.16069 0.0
H333 H 0.07849 0.62929 0.27246 0.0
H334 H 0.07991 0.5942 0.21702 0.0
H335 H 0.09554 0.60621 0.33144 0.0
H336 H 0.11759 0.51889 0.12498 0.0
H337 H 0.15753 0.54681 0.3985 0.0
H338 H 0.14709 0.59977 0.04717 0.0
H339 H 0.1059 0.59 0.08411 0.0
H340 H 0.10981 0.55602 0.03107 0.0
H341 H 0.19364 0.63293 0.39372 0.0
H342 H 0.16634 0.59869 0.47007 0.0
H343 H 0.15117 0.624 0.41388 0.0
C344 C 0.52325 0.17411 0.89372 0.0
C345 C 0.49409 0.15401 0.94548 0.0
C346 C 0.54987 0.16727 0.89423 0.0
C347 C 0.54694 0.13977 0.94791 0.0
C348 C 0.51625 0.11764 0.99429 0.0
C349 C 0.49005 0.12506 0.99247 0.0
C350 C 0.58216 0.19111 0.84287 0.0
C351 C 0.51216 0.08789 0.05138 0.0
C352 C 0.6171 0.12044 0.91362 0.0
C353 C 0.64189 0.14328 0.97846 0.0
C354 C 0.5849 0.11729 0.90588 0.0
C355 C 0.57768 0.13742 0.96468 0.0
C356 C 0.60164 0.15832 0.03491 0.0
C357 C 0.63362 0.16104 0.04086 0.0
C358 C 0.55978 0.09451 0.83087 0.0
C359 C 0.5945 0.17974 0.0998 0.0
H360 H 0.52611 0.1963 0.85682 0.0
H361 H 0.46721 0.10929 0.03182 0.0
H362 H 0.60382 0.20773 0.8915 0.0
H363 H 0.58971 0.17541 0.80252 0.0
H364 H 0.57874 0.2086 0.79668 0.0
H365 H 0.48488 0.06977 0.0703 0.0
H366 H 0.52122 0.07262 0.01519 0.0
H367 H 0.52825 0.09883 0.11443 0.0
H368 H 0.62355 0.10657 0.86557 0.0
H369 H 0.65281 0.17849 0.09136 0.0
H370 H 0.5598 0.11146 0.77641 0.0
H371 H 0.53307 0.07888 0.85584 0.0
H372 H 0.56672 0.07631 0.80112 0.0
H373 H 0.59398 0.20091 0.06258 0.0
H374 H 0.61441 0.192 0.15535 0.0
H375 H 0.56882 0.16305 0.12997 0.0
C376 C 0.43883 0.64992 0.27846 0.0
C377 C 0.44751 0.65514 0.18723 0.0
C378 C 0.40559 0.62358 0.30326 0.0
C379 C 0.38104 0.60209 0.23494 0.0
C380 C 0.39012 0.60682 0.14291 0.0
C381 C 0.42332 0.63346 0.12018 0.0
C382 C 0.39654 0.61918 0.40188 0.0
C383 C 0.36468 0.58399 0.06826 0.0
C384 C 0.30493 0.51141 0.27078 0.0
C385 C 0.27748 0.51692 0.26096 0.0
C386 C 0.33916 0.5395 0.26976 0.0
C387 C 0.34593 0.57381 0.25832 0.0
C388 C 0.31841 0.57989 0.25538 0.0
C389 C 0.28427 0.55118 0.25702 0.0
C390 C 0.36789 0.53207 0.27362 0.0
C391 C 0.32489 0.61631 0.24367 0.0
H392 H 0.45763 0.66708 0.33005 0.0
H393 H 0.4302 0.63767 0.04962 0.0
H394 H 0.37511 0.62365 0.41246 0.0
H395 H 0.3873 0.59192 0.42257 0.0
H396 H 0.41888 0.63767 0.44668 0.0
H397 H 0.37605 0.59117 1.00022 0.0
H398 H 0.35567 0.55601 0.07961 0.0
H399 H 0.34164 0.58634 0.06876 0.0
H400 H 0.29971 0.48492 0.27608 0.0
H401 H 0.26301 0.55544 0.25029 0.0
H402 H 0.38908 0.55076 0.32078 0.0
H403 H 0.37893 0.53558 0.20554 0.0
H404 H 0.35861 0.50487 0.29532 0.0
H405 H 0.34621 0.63542 0.28993 0.0
H406 H 0.30145 0.61725 0.25646 0.0
H407 H 0.33288 0.62485 0.17342 0.0
C408 C 0.78742 0.43241 0.07834 0.0
C409 C 0.79765 0.4558 0.00659 0.0
C410 C 0.78891 0.40195 0.07157 0.0
C411 C 0.80049 0.39479 0.99082 0.0
C412 C 0.81202 0.41908 0.91973 0.0
C413 C 0.81064 0.44939 0.92876 0.0
C414 C 0.77692 0.37683 0.14927 0.0
C415 C 0.82423 0.41227 0.83225 0.0
C416 C 0.82444 0.32556 0.98038 0.0
C417 C 0.79372 0.2965 0.94488 0.0
C418 C 0.82684 0.35761 0.99776 0.0
C419 C 0.79808 0.36072 0.97727 0.0
C420 C 0.76721 0.33159 0.94004 0.0
C421 C 0.76531 0.29973 0.92513 0.0
C422 C 0.85996 0.38799 0.03878 0.0
C423 C 0.73624 0.33413 0.91536 0.0
H424 H 0.77748 0.43745 0.13863 0.0
H425 H 0.81866 0.46753 0.8732 0.0
H426 H 0.75265 0.35205 0.12896 0.0
H427 H 0.79647 0.37002 0.16691 0.0
H428 H 0.77206 0.38789 0.21048 0.0
H429 H 0.83423 0.43479 0.78577 0.0
H430 H 0.84493 0.40676 0.84611 0.0
H431 H 0.80249 0.3887 0.79722 0.0
H432 H 0.84629 0.32299 0.99694 0.0
H433 H 0.74154 0.27732 0.89748 0.0
H434 H 0.85453 0.39697 0.10282 0.0
H435 H 0.87109 0.41051 0.99231 0.0
H436 H 0.87959 0.38095 0.05315 0.0
H437 H 0.72747 0.34159 0.97602 0.0
H438 H 0.71423 0.30903 0.8868 0.0
H439 H 0.74349 0.35498 0.86487 0.0
C440 C 0.34578 0.80846 0.08587 0.0
C441 C 0.3395 0.82642 0.15324 0.0
C442 C 0.37714 0.80957 0.08389 0.0
C443 C 0.40318 0.82906 0.15125 0.0
C444 C 0.39734 0.84789 0.21868 0.0
C445 C 0.36555 0.84638 0.21885 0.0
C446 C 0.38198 0.78901 0.01076 0.0
C447 C 0.42435 0.86893 0.29175 0.0
C448 C 0.46199 0.7938 0.1924 0.0
C449 C 0.49058 0.81573 0.13943 0.0
C450 C 0.43437 0.79905 0.20045 0.0
C451 C 0.435 0.82698 0.1544 0.0
C452 C 0.46448 0.85028 0.10416 0.0
C453 C 0.49196 0.84443 0.09737 0.0
C454 C 0.40368 0.77351 0.25488 0.0
C455 C 0.46628 0.88043 0.05417 0.0
H456 H 0.32591 0.79312 0.03451 0.0
H457 H 0.36093 0.86044 0.27084 0.0
H458 H 0.40624 0.80636 0.97488 0.0
H459 H 0.38432 0.76781 0.04166 0.0
H460 H 0.36013 0.77691 0.96028 0.0
H461 H 0.4171 0.88426 0.33493 0.0
H462 H 0.428 0.851 0.33541 0.0
H463 H 0.44959 0.88727 0.2612 0.0
H464 H 0.46069 0.77179 0.22643 0.0
H465 H 0.51388 0.86158 0.05651 0.0
H466 H 0.38081 0.75784 0.20886 0.0
H467 H 0.39708 0.78787 0.30343 0.0
H468 H 0.40846 0.75512 0.29312 0.0
H469 H 0.44721 0.87002 0.99658 0.0
H470 H 0.49237 0.89854 0.02738 0.0
H471 H 0.45942 0.89557 0.09923 0.0
C472 C 0.64916 0.44781 0.91863 0.0
C473 C 0.65959 0.47535 0.98144 0.0
C474 C 0.61625 0.41683 0.92174 0.0
C475 C 0.59364 0.4126 0.9918 0.0
C476 C 0.604 0.44068 0.05482 0.0
C477 C 0.63665 0.47193 0.04801 0.0
C478 C 0.60608 0.38822 0.8514 0.0
C479 C 0.5814 0.43702 0.13232 0.0
C480 C 0.49827 0.3384 0.97061 0.0
C481 C 0.49858 0.31087 0.01447 0.0
C482 C 0.52889 0.37166 0.96278 0.0
C483 C 0.56039 0.37796 0.00241 0.0
C484 C 0.56043 0.35052 0.04967 0.0
C485 C 0.52977 0.31726 0.05369 0.0
C486 C 0.52776 0.39966 0.90941 0.0
C487 C 0.59301 0.35615 0.09544 0.0
H488 H 0.667 0.45039 0.86743 0.0
H489 H 0.64498 0.49299 0.09762 0.0
H490 H 0.6048 0.36526 0.88344 0.0
H491 H 0.58 0.3792 0.82197 0.0
H492 H 0.62472 0.39709 0.79578 0.0
H493 H 0.59227 0.46179 0.17272 0.0
H494 H 0.55514 0.42906 0.10676 0.0
H495 H 0.57856 0.41604 0.17766 0.0
H496 H 0.47433 0.33355 0.93943 0.0
H497 H 0.53016 0.2962 0.08831 0.0
H498 H 0.54478 0.40677 0.85056 0.0
H499 H 0.53776 0.42381 0.95168 0.0
H500 H 0.5012 0.39097 0.8843 0.0
H501 H 0.61228 0.361 0.04389 0.0
H502 H 0.58814 0.33319 0.13574 0.0
H503 H 0.60467 0.37969 0.14087 0.0
C504 C 0.16724 0.45769 0.9159 0.0
C505 C 0.17245 0.43558 0.9715 0.0
C506 C 0.16938 0.45651 0.82184 0.0
C507 C 0.17597 0.4319 0.78235 0.0
C508 C 0.18152 0.40961 0.83845 0.0
C509 C 0.18006 0.41201 0.93299 0.0
C510 C 0.16427 0.48137 0.76475 0.0
C511 C 0.18801 0.38264 0.79849 0.0
C512 C 0.14916 0.40811 0.53401 0.0
C513 C 0.18115 0.42743 0.49286 0.0
C514 C 0.14708 0.40884 0.62872 0.0
C515 C 0.1776 0.4301 0.68236 0.0
C516 C 0.20972 0.45057 0.64028 0.0
C517 C 0.21113 0.44862 0.54611 0.0
C518 C 0.11246 0.38628 0.67158 0.0
C519 C 0.24265 0.47438 0.69472 0.0
H520 H 0.16122 0.47585 0.94622 0.0
H521 H 0.18338 0.39451 0.97639 0.0
H522 H 0.18692 0.49691 0.72167 0.0
H523 H 0.14128 0.46625 0.71885 0.0
H524 H 0.16065 0.49982 0.80647 0.0
H525 H 0.19186 0.36738 0.85135 0.0
H526 H 0.16579 0.36412 0.75358 0.0
H527 H 0.21123 0.39568 0.75629 0.0
H528 H 0.12609 0.39138 0.49262 0.0
H529 H 0.23587 0.46358 0.51384 0.0
H530 H 0.10589 0.40297 0.71103 0.0
H531 H 0.11369 0.36799 0.71963 0.0
H532 H 0.09134 0.37067 0.62057 0.0
H533 H 0.23968 0.49331 0.736 0.0
H534 H 0.26532 0.48935 0.65118 0.0
H535 H 0.24803 0.45864 0.74224 0.0
C536 C 0.79199 0.21512 0.63232 0.0
C537 C 0.77371 0.18189 0.6712 0.0
C538 C 0.79648 0.21859 0.53838 0.0
C539 C 0.78323 0.18811 0.48248 0.0
C540 C 0.76543 0.15451 0.52195 0.0
C541 C 0.76049 0.15181 0.61573 0.0
C542 C 0.81506 0.25485 0.49882 0.0
C543 C 0.75184 0.12143 0.46522 0.0
C544 C 0.77043 0.19408 0.22866 0.0
C545 C 0.80144 0.1995 0.19592 0.0
C546 C 0.76414 0.19052 0.322 0.0
C547 C 0.78909 0.19145 0.3832 0.0
C548 C 0.82001 0.19597 0.34966 0.0
C549 C 0.82598 0.20041 0.25666 0.0
C550 C 0.73119 0.1865 0.35532 0.0
C551 C 0.84686 0.19618 0.41202 0.0
H552 H 0.80197 0.23842 0.67507 0.0
H553 H 0.74642 0.1261 0.64589 0.0
H554 H 0.83879 0.25992 0.46546 0.0
H555 H 0.79832 0.25665 0.44618 0.0
H556 H 0.82246 0.27578 0.55095 0.0
H557 H 0.73909 0.09737 0.50652 0.0
H558 H 0.73294 0.11945 0.41318 0.0
H559 H 0.77337 0.12236 0.42897 0.0
H560 H 0.75153 0.19356 0.18164 0.0
H561 H 0.84991 0.20436 0.23127 0.0
H562 H 0.73749 0.20832 0.40338 0.0
H563 H 0.71628 0.16166 0.39263 0.0
H564 H 0.71453 0.18645 0.29917 0.0
H565 H 0.8573 0.21859 0.46087 0.0
H566 H 0.86873 0.19828 0.37459 0.0
H567 H 0.83487 0.17177 0.45185 0.0
C568 C 0.57371 0.75797 0.78987 0.0
C569 C 0.55836 0.77208 0.84174 0.0
C570 C 0.578 0.76383 0.69632 0.0
C571 C 0.56543 0.78317 0.65265 0.0
C572 C 0.54973 0.79737 0.70497 0.0
C573 C 0.547 0.79223 0.79918 0.0
C574 C 0.59607 0.74934 0.64429 0.0
C575 C 0.53507 0.81728 0.66111 0.0
C576 C 0.59976 0.82427 0.42327 0.0
C577 C 0.57489 0.79875 0.36283 0.0
C578 C 0.59738 0.81924 0.51741 0.0
C579 C 0.5687 0.7885 0.55239 0.0
C580 C 0.54324 0.76285 0.49135 0.0
C581 C 0.54694 0.76808 0.39732 0.0
C582 C 0.62569 0.84676 0.57938 0.0
C583 C 0.51171 0.7302 0.52538 0.0
H584 H 0.58273 0.74258 0.82285 0.0
H585 H 0.53487 0.80294 0.83907 0.0
H586 H 0.57792 0.72962 0.59316 0.0
H587 H 0.61792 0.77073 0.60726 0.0
H588 H 0.60619 0.73675 0.68907 0.0
H589 H 0.52283 0.82579 0.71067 0.0
H590 H 0.55579 0.84084 0.62736 0.0
H591 H 0.51545 0.8005 0.60805 0.0
H592 H 0.62142 0.84806 0.39672 0.0
H593 H 0.5273 0.74876 0.35092 0.0
H594 H 0.63652 0.83454 0.62291 0.0
H595 H 0.615 0.85823 0.62484 0.0
H596 H 0.64704 0.86835 0.54138 0.0
H597 H 0.51961 0.71451 0.56506 0.0
H598 H 0.49375 0.71337 0.46941 0.0
H599 H 0.49758 0.73763 0.57138 0.0
C600 C 0.80553 0.58474 0.68351 0.0
C601 C 0.77604 0.56723 0.73576 0.0
C602 C 0.80265 0.58454 0.58897 0.0
C603 C 0.76949 0.56553 0.54613 0.0
C604 C 0.73956 0.5481 0.59888 0.0
C605 C 0.74319 0.54958 0.69352 0.0
C606 C 0.83506 0.60436 0.53501 0.0
C607 C 0.70381 0.52713 0.5553 0.0
C608 C 0.75693 0.58786 0.308 0.0
C609 C 0.75806 0.56213 0.25687 0.0
C610 C 0.76132 0.58966 0.40215 0.0
C611 C 0.76607 0.56452 0.4461 0.0
C612 C 0.76736 0.53848 0.39455 0.0
C613 C 0.76381 0.53791 0.29979 0.0
C614 C 0.76079 0.61841 0.4545 0.0
C615 C 0.77177 0.51089 0.43961 0.0
H616 H 0.83091 0.59834 0.71675 0.0
H617 H 0.72043 0.53566 0.73425 0.0
H618 H 0.8376 0.58583 0.49084 0.0
H619 H 0.83346 0.62329 0.49027 0.0
H620 H 0.85875 0.61899 0.57902 0.0
H621 H 0.68327 0.51455 0.60602 0.0
H622 H 0.69878 0.54439 0.51284 0.0
H623 H 0.70199 0.50636 0.51003 0.0
H624 H 0.75282 0.60682 0.27403 0.0
H625 H 0.76455 0.51804 0.25953 0.0
H626 H 0.78484 0.63363 0.49675 0.0
H627 H 0.73881 0.60673 0.50097 0.0
H628 H 0.75836 0.63681 0.40944 0.0
H629 H 0.79633 0.52356 0.48023 0.0
H630 H 0.77192 0.49231 0.38986 0.0
H631 H 0.75046 0.49574 0.48688 0.0
C632 C 0.17318 0.8209 0.44761 0.0
C633 C 0.19349 0.81468 0.38994 0.0
C634 C 0.17716 0.82113 0.54183 0.0
C635 C 0.20193 0.8146 0.57998 0.0
C636 C 0.22304 0.80886 0.52214 0.0
C637 C 0.2187 0.80916 0.42735 0.0
C638 C 0.15458 0.82807 0.60054 0.0
C639 C 0.24967 0.80172 0.56045 0.0
C640 C 0.2328 0.84806 0.82086 0.0
C641 C 0.21296 0.81773 0.87145 0.0
C642 C 0.2297 0.84726 0.72624 0.0
C643 C 0.20631 0.81519 0.68047 0.0
C644 C 0.18577 0.78445 0.73123 0.0
C645 C 0.18917 0.78612 0.82649 0.0
C646 C 0.2515 0.88081 0.67529 0.0
C647 C 0.16053 0.74978 0.68477 0.0
H648 H 0.15361 0.82518 0.41885 0.0
H649 H 0.23408 0.80387 0.38283 0.0
H650 H 0.13896 0.80529 0.64446 0.0
H651 H 0.17091 0.85123 0.64564 0.0
H652 H 0.13674 0.83296 0.56006 0.0
H653 H 0.26392 0.79766 0.50666 0.0
H654 H 0.26856 0.824 0.60495 0.0
H655 H 0.23689 0.77799 0.60279 0.0
H656 H 0.25118 0.8726 0.85555 0.0
H657 H 0.17408 0.76258 0.86541 0.0
H658 H 0.23456 0.88713 0.63564 0.0
H659 H 0.2677 0.87739 0.62651 0.0
H660 H 0.2687 0.9035 0.72107 0.0
H661 H 0.14072 0.75196 0.64549 0.0
H662 H 0.14723 0.72813 0.73352 0.0
H663 H 0.17425 0.74281 0.63605 0.0
C664 C 0.41784 0.20467 0.72018 0.0
C665 C 0.39031 0.20665 0.75305 0.0
C666 C 0.42166 0.20264 0.62641 0.0
C667 C 0.39684 0.20161 0.56449 0.0
C668 C 0.36855 0.2027 0.59794 0.0
C669 C 0.36592 0.2057 0.6916 0.0
C670 C 0.45257 0.20224 0.59352 0.0
C671 C 0.34096 0.20065 0.53481 0.0
C672 C 0.41917 0.22722 0.31827 0.0
C673 C 0.40607 0.1944 0.2758 0.0
C674 C 0.4169 0.23002 0.41245 0.0
C675 C 0.40021 0.19919 0.46474 0.0
C676 C 0.38605 0.16593 0.4213 0.0
C677 C 0.38961 0.164 0.32764 0.0
C678 C 0.4329 0.266 0.45622 0.0
C679 C 0.36704 0.13236 0.47367 0.0
H680 H 0.43686 0.20567 0.76761 0.0
H681 H 0.3445 0.20707 0.71693 0.0
H682 H 0.44392 0.17788 0.55329 0.0
H683 H 0.4677 0.22473 0.54828 0.0
H684 H 0.46983 0.20381 0.65014 0.0
H685 H 0.31992 0.20045 0.57184 0.0
H686 H 0.35254 0.22337 0.48902 0.0
H687 H 0.32951 0.1765 0.49169 0.0
H688 H 0.43215 0.25077 0.27831 0.0
H689 H 0.3793 0.13857 0.29466 0.0
H690 H 0.45217 0.26962 0.50943 0.0
H691 H 0.41276 0.26851 0.48976 0.0
H692 H 0.44588 0.28739 0.40663 0.0
H693 H 0.38468 0.13176 0.52559 0.0
H694 H 0.35647 0.10859 0.42928 0.0
H695 H 0.34538 0.13118 0.50983 0.0
loop_
_geom_bond_atom_site_label_1
_geom_bond_atom_site_label_2
_geom_bond_distance
_geom_bond_site_symmetry_2
_ccdc_geom_bond_type
Dy0 O4 2.398 . S
Dy0 O5 2.491 . S
Dy0 O6 2.403 1_554 S
Dy0 O7 2.664 . S
Dy0 O11 2.326 . S
Dy0 O15 2.310 . S
Dy0 O16 2.351 . S
C1 O12 1.185 . S
C1 O13 1.355 . S
C2 O4 1.185 . S
C2 O5 1.355 . S
Dy3 O7 2.310 . S
Dy3 O10 2.351 . S
Dy3 O12 2.398 . S
Dy3 O13 2.491 . S
Dy3 O14 2.403 . S
Dy3 O15 2.664 . S
Dy3 O17 2.326 . S
O4 Dy0 2.398 . S
O4 C2 1.185 . S
O5 Dy0 2.491 . S
O5 C2 1.355 . S
O6 Dy0 2.403 1_556 S
O6 C8 1.254 . S
O7 Dy0 2.664 . S
O7 Dy3 2.310 . S
O7 C8 1.268 1_554 S
C8 O6 1.254 . S
C8 O7 1.268 1_556 S
C9 O14 1.254 . S
C9 O15 1.268 . S
O10 Dy3 2.351 . S
O10 C18 1.249 . S
O11 Dy0 2.326 . S
O11 C18 1.267 . S
O12 C1 1.185 . S
O12 Dy3 2.398 . S
O13 C1 1.355 . S
O13 Dy3 2.491 . S
O14 Dy3 2.403 . S
O14 C9 1.254 . S
O15 Dy0 2.310 . S
O15 Dy3 2.664 . S
O15 C9 1.268 . S
O16 Dy0 2.351 . S
O16 C19 1.249 . S
O17 Dy3 2.326 . S
O17 C19 1.267 . S
C18 O10 1.249 . S
C18 O11 1.267 . S
C19 O16 1.249 . S
C19 O17 1.267 . S
Dy20 O24 2.398 . S
Dy20 O25 2.491 1_556 S
Dy20 O26 2.403 . S
Dy20 O27 2.664 . S
Dy20 O31 2.326 . S
Dy20 O35 2.310 1_556 S
Dy20 O36 2.351 . S
C21 O32 1.185 . S
C21 O33 1.355 1_554 S
C22 O24 1.185 . S
C22 O25 1.355 1_556 S
Dy23 O27 2.310 1_554 S
Dy23 O30 2.351 . S
Dy23 O32 2.398 . S
Dy23 O33 2.491 1_554 S
Dy23 O34 2.403 . S
Dy23 O35 2.664 . S
Dy23 O37 2.326 . S
O24 Dy20 2.398 . S
O24 C22 1.185 . S
O25 Dy20 2.491 1_554 S
O25 C22 1.355 1_554 S
O26 Dy20 2.403 . S
O26 C28 1.254 . S
O27 Dy20 2.664 . S
O27 Dy23 2.310 1_556 S
O27 C28 1.268 . S
C28 O26 1.254 . S
C28 O27 1.268 . S
C29 O34 1.254 . S
C29 O35 1.268 . S
O30 Dy23 2.351 . S
O30 C38 1.249 1_554 S
O31 Dy20 2.326 . S
O31 C38 1.267 . S
O32 C21 1.185 . S
O32 Dy23 2.398 . S
O33 C21 1.355 1_556 S
O33 Dy23 2.491 1_556 S
O34 Dy23 2.403 . S
O34 C29 1.254 . S
O35 Dy20 2.310 1_554 S
O35 Dy23 2.664 . S
O35 C29 1.268 . S
O36 Dy20 2.351 . S
O36 C39 1.249 1_556 S
O37 Dy23 2.326 . S
O37 C39 1.267 . S
C38 O30 1.249 1_556 S
C38 O31 1.267 . S
C39 O36 1.249 1_554 S
C39 O37 1.267 . S
Dy40 O44 2.398 . S
Dy40 O45 2.491 . S
Dy40 O46 2.403 1_554 S
Dy40 O47 2.664 . S
Dy40 O51 2.326 . S
Dy40 O55 2.310 . S
Dy40 O56 2.351 . S
C41 O52 1.185 . S
C41 O53 1.355 . S
C42 O44 1.185 . S
C42 O45 1.355 . S
Dy43 O47 2.310 . S
Dy43 O50 2.351 . S
Dy43 O52 2.398 . S
Dy43 O53 2.491 . S
Dy43 O54 2.403 . S
Dy43 O55 2.664 . S
Dy43 O57 2.326 . S
O44 Dy40 2.398 . S
O44 C42 1.185 . S
O45 Dy40 2.491 . S
O45 C42 1.355 . S
O46 Dy40 2.403 1_556 S
O46 C48 1.254 . S
O47 Dy40 2.664 . S
O47 Dy43 2.310 . S
O47 C48 1.268 1_554 S
C48 O46 1.254 . S
C48 O47 1.268 1_556 S
C49 O54 1.254 . S
C49 O55 1.268 . S
O50 Dy43 2.351 . S
O50 C58 1.249 . S
O51 Dy40 2.326 . S
O51 C58 1.267 . S
O52 C41 1.185 . S
O52 Dy43 2.398 . S
O53 C41 1.355 . S
O53 Dy43 2.491 . S
O54 Dy43 2.403 . S
O54 C49 1.254 . S
O55 Dy40 2.310 . S
O55 Dy43 2.664 . S
O55 C49 1.268 . S
O56 Dy40 2.351 . S
O56 C59 1.249 . S
O57 Dy43 2.326 . S
O57 C59 1.267 . S
C58 O50 1.249 . S
C58 O51 1.267 . S
C59 O56 1.249 . S
C59 O57 1.267 . S
Dy60 O64 2.398 . S
Dy60 O65 2.491 1_556 S
Dy60 O66 2.403 . S
Dy60 O67 2.664 . S
Dy60 O71 2.326 . S
Dy60 O75 2.310 1_556 S
Dy60 O76 2.351 1_556 S
C61 O72 1.185 . S
C61 O73 1.355 1_554 S
C62 O64 1.185 1_554 S
C62 O65 1.355 . S
Dy63 O67 2.310 1_554 S
Dy63 O70 2.351 . S
Dy63 O72 2.398 . S
Dy63 O73 2.491 1_554 S
Dy63 O74 2.403 . S
Dy63 O75 2.664 . S
Dy63 O77 2.326 . S
O64 Dy60 2.398 . S
O64 C62 1.185 1_556 S
O65 Dy60 2.491 1_554 S
O65 C62 1.355 . S
O66 Dy60 2.403 . S
O66 C68 1.254 . S
O67 Dy60 2.664 . S
O67 Dy63 2.310 1_556 S
O67 C68 1.268 . S
C68 O66 1.254 . S
C68 O67 1.268 . S
C69 O74 1.254 . S
C69 O75 1.268 . S
O70 Dy63 2.351 . S
O70 C78 1.249 1_554 S
O71 Dy60 2.326 . S
O71 C78 1.267 . S
O72 C61 1.185 . S
O72 Dy63 2.398 . S
O73 C61 1.355 1_556 S
O73 Dy63 2.491 1_556 S
O74 Dy63 2.403 . S
O74 C69 1.254 . S
O75 Dy60 2.310 1_554 S
O75 Dy63 2.664 . S
O75 C69 1.268 . S
O76 Dy60 2.351 1_554 S
O76 C79 1.249 . S
O77 Dy63 2.326 . S
O77 C79 1.267 . S
C78 O70 1.249 1_556 S
C78 O71 1.267 . S
C79 O76 1.249 . S
C79 O77 1.267 . S
Dy80 O84 2.398 . S
Dy80 O85 2.491 . S
Dy80 O86 2.403 1_554 S
Dy80 O87 2.664 . S
Dy80 O91 2.326 . S
Dy80 O95 2.310 . S
Dy80 O96 2.351 . S
C81 O92 1.185 . S
C81 O93 1.355 . S
C82 O84 1.185 . S
C82 O85 1.355 . S
Dy83 O87 2.310 . S
Dy83 O90 2.351 . S
Dy83 O92 2.398 . S
Dy83 O93 2.491 . S
Dy83 O94 2.403 . S
Dy83 O95 2.664 . S
Dy83 O97 2.326 . S
O84 Dy80 2.398 . S
O84 C82 1.185 . S
O85 Dy80 2.491 . S
O85 C82 1.355 . S
O86 Dy80 2.403 1_556 S
O86 C88 1.254 . S
O87 Dy80 2.664 . S
O87 Dy83 2.310 . S
O87 C88 1.268 1_554 S
C88 O86 1.254 . S
C88 O87 1.268 1_556 S
C89 O94 1.254 . S
C89 O95 1.268 . S
O90 Dy83 2.351 . S
O90 C98 1.249 . S
O91 Dy80 2.326 . S
O91 C98 1.267 . S
O92 C81 1.185 . S
O92 Dy83 2.398 . S
O93 C81 1.355 . S
O93 Dy83 2.491 . S
O94 Dy83 2.403 . S
O94 C89 1.254 . S
O95 Dy80 2.310 . S
O95 Dy83 2.664 . S
O95 C89 1.268 . S
O96 Dy80 2.351 . S
O96 C99 1.249 . S
O97 Dy83 2.326 . S
O97 C99 1.267 . S
C98 O90 1.249 . S
C98 O91 1.267 . S
C99 O96 1.249 . S
C99 O97 1.267 . S
Dy100 O104 2.398 . S
Dy100 O105 2.491 1_554 S
Dy100 O106 2.403 . S
Dy100 O107 2.664 . S
Dy100 O111 2.326 . S
Dy100 O115 2.310 1_554 S
Dy100 O116 2.351 . S
C101 O112 1.185 1_554 S
C101 O113 1.355 . S
C102 O104 1.185 1_556 S
C102 O105 1.355 . S
Dy103 O107 2.310 1_556 S
Dy103 O110 2.351 . S
Dy103 O112 2.398 . S
Dy103 O113 2.491 1_556 S
Dy103 O114 2.403 . S
Dy103 O115 2.664 . S
Dy103 O117 2.326 . S
O104 Dy100 2.398 . S
O104 C102 1.185 1_554 S
O105 Dy100 2.491 1_556 S
O105 C102 1.355 . S
O106 Dy100 2.403 . S
O106 C108 1.254 . S
O107 Dy100 2.664 . S
O107 Dy103 2.310 1_554 S
O107 C108 1.268 . S
C108 O106 1.254 . S
C108 O107 1.268 . S
C109 O114 1.254 . S
C109 O115 1.268 . S
O110 Dy103 2.351 . S
O110 C118 1.248 1_556 S
O111 Dy100 2.326 . S
O111 C118 1.267 . S
O112 C101 1.185 1_556 S
O112 Dy103 2.398 . S
O113 C101 1.355 . S
O113 Dy103 2.491 1_554 S
O114 Dy103 2.403 . S
O114 C109 1.254 . S
O115 Dy100 2.310 1_556 S
O115 Dy103 2.664 . S
O115 C109 1.268 . S
O116 Dy100 2.351 . S
O116 C119 1.249 . S
O117 Dy103 2.326 . S
O117 C119 1.267 1_556 S
C118 O110 1.248 1_554 S
C118 O111 1.267 . S
C119 O116 1.249 . S
C119 O117 1.267 1_554 S
C120 C121 1.391 . S
C120 C122 1.394 . S
C120 H136 0.931 . S
C121 C120 1.391 . S
C121 C125 1.376 . S
C122 C120 1.394 . S
C122 C123 1.369 . S
C122 C126 1.531 . S
C123 C122 1.369 . S
C123 C124 1.410 . S
C123 C131 1.503 . S
C124 C123 1.410 . S
C124 C125 1.392 . S
C124 C127 1.511 . S
C125 C121 1.376 . S
C125 C124 1.392 . S
C125 H137 0.929 . S
C126 C122 1.531 . S
C126 H138 0.960 . S
C126 H139 0.962 . S
C126 H140 0.960 1_554 S
C127 C124 1.511 . S
C127 H141 0.961 . S
C127 H142 0.961 . S
C127 H143 0.961 1_554 S
C128 C129 1.370 . S
C128 C130 1.363 . S
C128 H144 0.931 . S
C129 C128 1.370 . S
C129 C133 1.408 . S
C130 C128 1.363 . S
C130 C131 1.370 . S
C130 C134 1.524 . S
C131 C123 1.503 . S
C131 C130 1.370 . S
C131 C132 1.403 1_554 S
C132 C131 1.403 1_556 S
C132 C133 1.404 1_556 S
C132 C135 1.539 . S
C133 C129 1.408 . S
C133 C132 1.404 1_554 S
C133 H145 0.930 1_554 S
C134 C130 1.524 . S
C134 H146 0.956 . S
C134 H147 0.961 . S
C134 H148 0.961 . S
C135 C132 1.539 . S
C135 H149 0.958 . S
C135 H150 0.961 . S
C135 H151 0.960 . S
H136 C120 0.931 . S
H137 C125 0.929 . S
H138 C126 0.960 . S
H139 C126 0.962 . S
H140 C126 0.960 1_556 S
H141 C127 0.961 . S
H142 C127 0.961 . S
H143 C127 0.961 1_556 S
H144 C128 0.931 . S
H145 C133 0.930 1_556 S
H146 C134 0.956 . S
H147 C134 0.961 . S
H148 C134 0.961 . S
H149 C135 0.958 . S
H150 C135 0.961 . S
H151 C135 0.960 . S
C152 C153 1.391 . S
C152 C154 1.394 . S
C152 H168 0.931 . S
C153 C152 1.391 . S
C153 C157 1.376 . S
C154 C152 1.394 . S
C154 C155 1.369 . S
C154 C158 1.531 1_554 S
C155 C154 1.369 . S
C155 C156 1.410 . S
C155 C163 1.503 1_455 S
C156 C155 1.410 . S
C156 C157 1.392 . S
C156 C159 1.511 . S
C157 C153 1.376 . S
C157 C156 1.392 . S
C157 H169 0.929 . S
C158 C154 1.531 1_556 S
C158 H170 0.960 1_455 S
C158 H171 0.962 1_556 S
C158 H172 0.960 . S
C159 C156 1.511 . S
C159 H173 0.961 . S
C159 H174 0.961 . S
C159 H175 0.961 . S
C160 C161 1.370 . S
C160 C162 1.363 . S
C160 H176 0.931 . S
C161 C160 1.370 . S
C161 C165 1.408 1_554 S
C162 C160 1.363 . S
C162 C163 1.370 . S
C162 C166 1.524 . S
C163 C155 1.503 1_655 S
C163 C162 1.370 . S
C163 C164 1.403 1_554 S
C164 C163 1.403 1_556 S
C164 C165 1.404 . S
C164 C167 1.539 1_655 S
C165 C161 1.408 1_556 S
C165 C164 1.404 . S
C165 H177 0.930 . S
C166 C162 1.524 . S
C166 H178 0.956 . S
C166 H179 0.961 . S
C166 H180 0.961 . S
C167 C164 1.539 1_455 S
C167 H181 0.958 . S
C167 H182 0.961 1_455 S
C167 H183 0.960 . S
H168 C152 0.931 . S
H169 C157 0.929 . S
H170 C158 0.960 1_655 S
H171 C158 0.962 1_554 S
H172 C158 0.960 . S
H173 C159 0.961 . S
H174 C159 0.961 . S
H175 C159 0.961 . S
H176 C160 0.931 . S
H177 C165 0.930 . S
H178 C166 0.956 . S
H179 C166 0.961 . S
H180 C166 0.961 . S
H181 C167 0.958 . S
H182 C167 0.961 1_655 S
H183 C167 0.960 . S
C184 C185 1.394 . S
C184 C186 1.394 . S
C184 H200 0.931 . S
C185 C184 1.394 . S
C185 C189 1.373 1_554 S
C186 C184 1.394 . S
C186 C187 1.369 . S
C186 C190 1.531 . S
C187 C186 1.369 . S
C187 C188 1.410 1_554 S
C187 C195 1.503 1_545 S
C188 C187 1.410 1_556 S
C188 C189 1.392 . S
C188 C191 1.511 . S
C189 C185 1.373 1_556 S
C189 C188 1.392 . S
C189 H201 0.929 . S
C190 C186 1.531 . S
C190 H202 0.960 . S
C190 H203 0.962 . S
C190 H204 0.960 . S
C191 C188 1.511 . S
C191 H205 0.961 . S
C191 H206 0.961 . S
C191 H207 0.961 . S
C192 C193 1.370 . S
C192 C194 1.363 . S
C192 H208 0.931 . S
C193 C192 1.370 . S
C193 C197 1.408 . S
C194 C192 1.363 . S
C194 C195 1.370 . S
C194 C198 1.524 1_565 S
C195 C187 1.503 1_565 S
C195 C194 1.370 . S
C195 C196 1.403 . S
C196 C195 1.403 . S
C196 C197 1.404 . S
C196 C199 1.539 1_554 S
C197 C193 1.408 . S
C197 C196 1.404 . S
C197 H209 0.930 . S
C198 C194 1.524 1_545 S
C198 H210 0.956 . S
C198 H211 0.961 . S
C198 H212 0.985 . S
C199 C196 1.539 1_556 S
C199 H213 0.958 . S
C199 H214 0.961 . S
C199 H215 0.950 1_565 S
H200 C184 0.931 . S
H201 C189 0.929 . S
H202 C190 0.960 . S
H203 C190 0.962 . S
H204 C190 0.960 . S
H205 C191 0.961 . S
H206 C191 0.961 . S
H207 C191 0.961 . S
H208 C192 0.931 . S
H209 C197 0.930 . S
H210 C198 0.956 . S
H211 C198 0.961 . S
H212 C198 0.985 . S
H213 C199 0.958 . S
H214 C199 0.961 . S
H215 C199 0.950 1_545 S
C216 C217 1.391 . S
C216 C218 1.394 . S
C216 H232 0.931 . S
C217 C216 1.391 . S
C217 C221 1.376 1_554 S
C218 C216 1.394 . S
C218 C219 1.369 . S
C218 C222 1.531 . S
C219 C218 1.369 . S
C219 C220 1.410 1_554 S
C219 C227 1.503 . S
C220 C219 1.410 1_556 S
C220 C221 1.392 . S
C220 C223 1.511 . S
C221 C217 1.376 1_556 S
C221 C220 1.392 . S
C221 H233 0.929 . S
C222 C218 1.531 . S
C222 H234 0.960 . S
C222 H235 0.962 . S
C222 H236 0.960 . S
C223 C220 1.511 . S
C223 H237 0.961 . S
C223 H238 0.961 . S
C223 H239 0.961 . S
C224 C225 1.370 . S
C224 C226 1.363 . S
C224 H240 0.931 . S
C225 C224 1.370 . S
C225 C229 1.408 . S
C226 C224 1.363 . S
C226 C227 1.370 . S
C226 C230 1.524 . S
C227 C219 1.503 . S
C227 C226 1.370 . S
C227 C228 1.403 . S
C228 C227 1.403 . S
C228 C229 1.404 . S
C228 C231 1.539 . S
C229 C225 1.408 . S
C229 C228 1.404 . S
C229 H241 0.930 . S
C230 C226 1.524 . S
C230 H242 0.956 . S
C230 H243 0.961 . S
C230 H244 0.961 . S
C231 C228 1.539 . S
C231 H245 0.958 . S
C231 H246 0.961 . S
C231 H247 0.960 . S
H232 C216 0.931 . S
H233 C221 0.929 . S
H234 C222 0.960 . S
H235 C222 0.962 . S
H236 C222 0.960 . S
H237 C223 0.961 . S
H238 C223 0.961 . S
H239 C223 0.961 . S
H240 C224 0.931 . S
H241 C229 0.930 . S
H242 C230 0.956 . S
H243 C230 0.961 . S
H244 C230 0.961 . S
H245 C231 0.958 . S
H246 C231 0.961 . S
H247 C231 0.960 . S
C248 C249 1.391 . S
C248 C250 1.394 1_455 S
C248 H264 0.931 . S
C249 C248 1.391 . S
C249 C253 1.381 . S
C250 C248 1.394 1_655 S
C250 C251 1.369 . S
C250 C254 1.531 . S
C251 C250 1.369 . S
C251 C252 1.410 1_554 S
C251 C259 1.503 . S
C252 C251 1.410 1_556 S
C252 C253 1.392 1_656 S
C252 C255 1.511 . S
C253 C249 1.381 . S
C253 C252 1.392 1_454 S
C253 H265 0.924 1_554 S
C254 C250 1.531 . S
C254 H266 0.960 . S
C254 H267 0.962 . S
C254 H268 0.960 . S
C255 C252 1.511 . S
C255 H269 0.961 . S
C255 H270 0.961 . S
C255 H271 0.961 . S
C256 C257 1.370 . S
C256 C258 1.363 . S
C256 H272 0.931 . S
C257 C256 1.370 . S
C257 C261 1.408 . S
C258 C256 1.363 . S
C258 C259 1.370 . S
C258 C262 1.524 . S
C259 C251 1.503 . S
C259 C258 1.370 . S
C259 C260 1.403 . S
C260 C259 1.403 . S
C260 C261 1.404 . S
C260 C263 1.539 . S
C261 C257 1.408 . S
C261 C260 1.404 . S
C261 H273 0.930 . S
C262 C258 1.524 . S
C262 H274 0.956 . S
C262 H275 0.961 . S
C262 H276 0.961 . S
C263 C260 1.539 . S
C263 H277 0.958 . S
C263 H278 0.957 1_554 S
C263 H279 0.960 . S
H264 C248 0.931 . S
H265 C253 0.924 1_556 S
H266 C254 0.960 . S
H267 C254 0.962 . S
H268 C254 0.960 . S
H269 C255 0.961 . S
H270 C255 0.961 . S
H271 C255 0.961 . S
H272 C256 0.931 . S
H273 C261 0.930 . S
H274 C262 0.956 . S
H275 C262 0.961 . S
H276 C262 0.961 . S
H277 C263 0.958 . S
H278 C263 0.957 1_556 S
H279 C263 0.960 . S
C280 C281 1.391 . S
C280 C282 1.394 . S
C280 H296 0.931 . S
C281 C280 1.391 . S
C281 C285 1.376 . S
C282 C280 1.394 . S
C282 C283 1.369 . S
C282 C286 1.531 . S
C283 C282 1.369 . S
C283 C284 1.410 . S
C283 C291 1.503 1_565 S
C284 C283 1.410 . S
C284 C285 1.392 . S
C284 C287 1.511 . S
C285 C281 1.376 . S
C285 C284 1.392 . S
C285 H297 0.929 . S
C286 C282 1.531 . S
C286 H298 0.960 1_565 S
C286 H299 0.962 . S
C286 H300 0.960 . S
C287 C284 1.511 . S
C287 H301 0.961 . S
C287 H302 0.961 1_565 S
C287 H303 0.961 . S
C288 C289 1.370 1_556 S
C288 C290 1.363 . S
C288 H304 0.931 . S
C289 C288 1.370 1_554 S
C289 C293 1.408 . S
C290 C288 1.363 . S
C290 C291 1.370 1_556 S
C290 C294 1.524 . S
C291 C283 1.503 1_545 S
C291 C290 1.370 1_554 S
C291 C292 1.403 . S
C292 C291 1.403 . S
C292 C293 1.404 . S
C292 C295 1.539 . S
C293 C289 1.408 . S
C293 C292 1.404 . S
C293 H305 0.930 . S
C294 C290 1.524 . S
C294 H306 0.956 1_545 S
C294 H307 0.961 1_545 S
C294 H308 0.961 . S
C295 C292 1.539 . S
C295 H309 0.958 . S
C295 H310 0.961 . S
C295 H311 0.960 . S
H296 C280 0.931 . S
H297 C285 0.929 . S
H298 C286 0.960 1_545 S
H299 C286 0.962 . S
H300 C286 0.960 . S
H301 C287 0.961 . S
H302 C287 0.961 1_545 S
H303 C287 0.961 . S
H304 C288 0.931 . S
H305 C293 0.930 . S
H306 C294 0.956 1_565 S
H307 C294 0.961 1_565 S
H308 C294 0.961 . S
H309 C295 0.958 . S
H310 C295 0.961 . S
H311 C295 0.960 . S
C312 C313 1.391 . S
C312 C314 1.394 . S
C312 H328 0.931 . S
C313 C312 1.391 . S
C313 C317 1.376 . S
C314 C312 1.394 . S
C314 C315 1.369 . S
C314 C318 1.531 . S
C315 C314 1.369 . S
C315 C316 1.410 . S
C315 C323 1.503 . S
C316 C315 1.410 . S
C316 C317 1.392 . S
C316 C319 1.511 . S
C317 C313 1.376 . S
C317 C316 1.392 . S
C317 H329 0.929 . S
C318 C314 1.531 . S
C318 H330 0.960 . S
C318 H331 0.962 . S
C318 H332 0.960 . S
C319 C316 1.511 . S
C319 H333 0.961 . S
C319 H334 0.961 . S
C319 H335 0.961 . S
C320 C321 1.370 . S
C320 C322 1.363 . S
C320 H336 0.931 . S
C321 C320 1.370 . S
C321 C325 1.408 . S
C322 C320 1.363 . S
C322 C323 1.370 . S
C322 C326 1.520 1_554 S
C323 C315 1.503 . S
C323 C322 1.370 . S
C323 C324 1.403 . S
C324 C323 1.403 . S
C324 C325 1.404 . S
C324 C327 1.539 . S
C325 C321 1.408 . S
C325 C324 1.404 . S
C325 H337 0.930 . S
C326 C322 1.520 1_556 S
C326 H338 0.958 . S
C326 H339 0.959 1_556 S
C326 H340 0.964 . S
C327 C324 1.539 . S
C327 H341 0.958 . S
C327 H342 0.961 . S
C327 H343 0.960 . S
H328 C312 0.931 . S
H329 C317 0.929 . S
H330 C318 0.960 . S
H331 C318 0.962 . S
H332 C318 0.960 . S
H333 C319 0.961 . S
H334 C319 0.961 . S
H335 C319 0.961 . S
H336 C320 0.931 . S
H337 C325 0.930 . S
H338 C326 0.958 . S
H339 C326 0.959 1_554 S
H340 C326 0.964 . S
H341 C327 0.958 . S
H342 C327 0.961 . S
H343 C327 0.960 . S
C344 C345 1.391 1_554 S
C344 C346 1.394 . S
C344 H360 0.931 . S
C345 C344 1.391 1_556 S
C345 C349 1.376 . S
C346 C344 1.394 . S
C346 C347 1.369 . S
C346 C350 1.531 . S
C347 C346 1.369 . S
C347 C348 1.410 . S
C347 C355 1.503 . S
C348 C347 1.410 . S
C348 C349 1.392 1_554 S
C348 C351 1.511 . S
C349 C345 1.376 . S
C349 C348 1.392 1_556 S
C349 H361 0.929 . S
C350 C346 1.531 . S
C350 H362 0.960 . S
C350 H363 0.962 1_554 S
C350 H364 0.960 . S
C351 C348 1.511 . S
C351 H365 0.961 1_554 S
C351 H366 0.961 1_554 S
C351 H367 0.961 . S
C352 C353 1.370 . S
C352 C354 1.363 . S
C352 H368 0.931 . S
C353 C352 1.370 . S
C353 C357 1.408 1_556 S
C354 C352 1.363 . S
C354 C355 1.370 1_556 S
C354 C358 1.524 . S
C355 C347 1.503 . S
C355 C354 1.370 1_554 S
C355 C356 1.403 . S
C356 C355 1.403 . S
C356 C357 1.404 . S
C356 C359 1.539 . S
C357 C353 1.408 1_554 S
C357 C356 1.404 . S
C357 H369 0.930 . S
C358 C354 1.524 . S
C358 H370 0.956 . S
C358 H371 0.961 . S
C358 H372 0.961 . S
C359 C356 1.539 . S
C359 H373 0.958 . S
C359 H374 0.961 . S
C359 H375 0.960 . S
H360 C344 0.931 . S
H361 C349 0.929 . S
H362 C350 0.960 . S
H363 C350 0.962 1_556 S
H364 C350 0.960 . S
H365 C351 0.961 1_556 S
H366 C351 0.961 1_556 S
H367 C351 0.961 . S
H368 C352 0.931 . S
H369 C357 0.930 . S
H370 C358 0.956 . S
H371 C358 0.961 . S
H372 C358 0.961 . S
H373 C359 0.958 . S
H374 C359 0.961 . S
H375 C359 0.960 . S
C376 C377 1.391 . S
C376 C378 1.394 . S
C376 H392 0.931 . S
C377 C376 1.391 . S
C377 C381 1.376 . S
C378 C376 1.394 . S
C378 C379 1.369 . S
C378 C382 1.531 . S
C379 C378 1.369 . S
C379 C380 1.410 . S
C379 C387 1.503 . S
C380 C379 1.410 . S
C380 C381 1.392 . S
C380 C383 1.511 1_554 S
C381 C377 1.376 . S
C381 C380 1.392 . S
C381 H393 0.929 . S
C382 C378 1.531 . S
C382 H394 0.960 . S
C382 H395 0.962 . S
C382 H396 0.960 . S
C383 C380 1.511 1_556 S
C383 H397 0.961 . S
C383 H398 0.961 1_556 S
C383 H399 0.961 . S
C384 C385 1.370 . S
C384 C386 1.363 . S
C384 H400 0.931 . S
C385 C384 1.370 . S
C385 C389 1.408 . S
C386 C384 1.363 . S
C386 C387 1.370 . S
C386 C390 1.524 . S
C387 C379 1.503 . S
C387 C386 1.370 . S
C387 C388 1.403 . S
C388 C387 1.403 . S
C388 C389 1.404 . S
C388 C391 1.539 . S
C389 C385 1.408 . S
C389 C388 1.404 . S
C389 H401 0.930 . S
C390 C386 1.524 . S
C390 H402 0.956 . S
C390 H403 0.961 . S
C390 H404 0.961 . S
C391 C388 1.539 . S
C391 H405 0.958 . S
C391 H406 0.961 1_554 S
C391 H407 0.960 . S
H392 C376 0.931 . S
H393 C381 0.929 . S
H394 C382 0.960 . S
H395 C382 0.962 . S
H396 C382 0.960 . S
H397 C383 0.961 . S
H398 C383 0.961 1_554 S
H399 C383 0.961 . S
H400 C384 0.931 . S
H401 C389 0.930 . S
H402 C390 0.956 . S
H403 C390 0.961 . S
H404 C390 0.961 . S
H405 C391 0.958 . S
H406 C391 0.961 1_556 S
H407 C391 0.960 . S
C408 C409 1.391 . S
C408 C410 1.394 . S
C408 H424 0.931 . S
C409 C408 1.391 . S
C409 C413 1.376 . S
C410 C408 1.394 . S
C410 C411 1.369 . S
C410 C414 1.531 . S
C411 C410 1.369 . S
C411 C412 1.410 . S
C411 C419 1.503 . S
C412 C411 1.410 . S
C412 C413 1.392 . S
C412 C415 1.511 . S
C413 C409 1.376 . S
C413 C412 1.392 . S
C413 H425 0.929 . S
C414 C410 1.531 . S
C414 H426 0.960 . S
C414 H427 0.962 1_556 S
C414 H428 0.960 . S
C415 C412 1.511 . S
C415 H429 0.961 1_556 S
C415 H430 0.961 1_556 S
C415 H431 0.961 . S
C416 C417 1.370 1_554 S
C416 C418 1.363 . S
C416 H432 0.931 . S
C417 C416 1.370 1_556 S
C417 C421 1.408 . S
C418 C416 1.363 . S
C418 C419 1.370 1_554 S
C418 C422 1.524 . S
C419 C411 1.503 . S
C419 C418 1.370 1_556 S
C419 C420 1.403 . S
C420 C419 1.403 . S
C420 C421 1.404 . S
C420 C423 1.539 . S
C421 C417 1.408 . S
C421 C420 1.404 . S
C421 H433 0.930 . S
C422 C418 1.524 . S
C422 H434 0.956 . S
C422 H435 0.961 . S
C422 H436 0.961 . S
C423 C420 1.539 . S
C423 H437 0.958 . S
C423 H438 0.961 . S
C423 H439 0.960 . S
H424 C408 0.931 . S
H425 C413 0.929 . S
H426 C414 0.960 . S
H427 C414 0.962 1_554 S
H428 C414 0.960 . S
H429 C415 0.961 1_554 S
H430 C415 0.961 1_554 S
H431 C415 0.961 . S
H432 C416 0.931 . S
H433 C421 0.930 . S
H434 C422 0.956 . S
H435 C422 0.961 . S
H436 C422 0.961 . S
H437 C423 0.958 . S
H438 C423 0.961 . S
H439 C423 0.960 . S
C440 C441 1.391 . S
C440 C442 1.394 . S
C440 H456 0.931 . S
C441 C440 1.391 . S
C441 C445 1.376 . S
C442 C440 1.394 . S
C442 C443 1.369 . S
C442 C446 1.531 1_554 S
C443 C442 1.369 . S
C443 C444 1.410 . S
C443 C451 1.503 . S
C444 C443 1.410 . S
C444 C445 1.392 . S
C444 C447 1.511 . S
C445 C441 1.376 . S
C445 C444 1.392 . S
C445 H457 0.929 . S
C446 C442 1.531 1_556 S
C446 H458 0.960 . S
C446 H459 0.962 1_556 S
C446 H460 0.960 . S
C447 C444 1.511 . S
C447 H461 0.961 . S
C447 H462 0.961 . S
C447 H463 0.961 . S
C448 C449 1.370 . S
C448 C450 1.363 . S
C448 H464 0.931 . S
C449 C448 1.370 . S
C449 C453 1.408 . S
C450 C448 1.363 . S
C450 C451 1.370 . S
C450 C454 1.524 . S
C451 C443 1.503 . S
C451 C450 1.370 . S
C451 C452 1.403 . S
C452 C451 1.403 . S
C452 C453 1.404 . S
C452 C455 1.539 . S
C453 C449 1.408 . S
C453 C452 1.404 . S
C453 H465 0.930 . S
C454 C450 1.524 . S
C454 H466 0.956 . S
C454 H467 0.961 . S
C454 H468 0.961 . S
C455 C452 1.539 . S
C455 H469 0.958 1_554 S
C455 H470 0.961 . S
C455 H471 0.960 . S
H456 C440 0.931 . S
H457 C445 0.929 . S
H458 C446 0.960 . S
H459 C446 0.962 1_554 S
H460 C446 0.960 . S
H461 C447 0.961 . S
H462 C447 0.961 . S
H463 C447 0.961 . S
H464 C448 0.931 . S
H465 C453 0.930 . S
H466 C454 0.956 . S
H467 C454 0.961 . S
H468 C454 0.961 . S
H469 C455 0.958 1_556 S
H470 C455 0.961 . S
H471 C455 0.960 . S
C472 C473 1.391 1_556 S
C472 C474 1.394 . S
C472 H488 0.931 . S
C473 C472 1.391 1_554 S
C473 C477 1.376 . S
C474 C472 1.394 . S
C474 C475 1.369 1_556 S
C474 C478 1.531 . S
C475 C474 1.369 1_554 S
C475 C476 1.410 . S
C475 C483 1.503 . S
C476 C475 1.410 . S
C476 C477 1.392 . S
C476 C479 1.511 . S
C477 C473 1.376 . S
C477 C476 1.392 . S
C477 H489 0.929 . S
C478 C474 1.531 . S
C478 H490 0.960 . S
C478 H491 0.962 . S
C478 H492 0.960 . S
C479 C476 1.511 . S
C479 H493 0.961 . S
C479 H494 0.961 . S
C479 H495 0.961 . S
C480 C481 1.370 1_556 S
C480 C482 1.363 . S
C480 H496 0.931 . S
C481 C480 1.370 1_554 S
C481 C485 1.408 . S
C482 C480 1.363 . S
C482 C483 1.370 1_556 S
C482 C486 1.524 . S
C483 C475 1.503 . S
C483 C482 1.370 1_554 S
C483 C484 1.403 . S
C484 C483 1.403 . S
C484 C485 1.404 . S
C484 C487 1.539 . S
C485 C481 1.408 . S
C485 C484 1.404 . S
C485 H497 0.930 . S
C486 C482 1.524 . S
C486 H498 0.956 . S
C486 H499 0.961 . S
C486 H500 0.961 . S
C487 C484 1.539 . S
C487 H501 0.958 . S
C487 H502 0.961 . S
C487 H503 0.960 . S
H488 C472 0.931 . S
H489 C477 0.929 . S
H490 C478 0.960 . S
H491 C478 0.962 . S
H492 C478 0.960 . S
H493 C479 0.961 . S
H494 C479 0.961 . S
H495 C479 0.961 . S
H496 C480 0.931 . S
H497 C485 0.930 . S
H498 C486 0.956 . S
H499 C486 0.961 . S
H500 C486 0.961 . S
H501 C487 0.958 . S
H502 C487 0.961 . S
H503 C487 0.960 . S
C504 C505 1.391 . S
C504 C506 1.394 . S
C504 H520 0.931 . S
C505 C504 1.391 . S
C505 C509 1.376 . S
C506 C504 1.394 . S
C506 C507 1.369 . S
C506 C510 1.531 . S
C507 C506 1.369 . S
C507 C508 1.410 . S
C507 C515 1.503 . S
C508 C507 1.410 . S
C508 C509 1.392 . S
C508 C511 1.511 . S
C509 C505 1.376 . S
C509 C508 1.392 . S
C509 H521 0.929 . S
C510 C506 1.531 . S
C510 H522 0.960 . S
C510 H523 0.962 . S
C510 H524 0.960 . S
C511 C508 1.511 . S
C511 H525 0.961 . S
C511 H526 0.961 . S
C511 H527 0.961 . S
C512 C513 1.370 . S
C512 C514 1.363 . S
C512 H528 0.931 . S
C513 C512 1.370 . S
C513 C517 1.408 . S
C514 C512 1.363 . S
C514 C515 1.370 . S
C514 C518 1.524 . S
C515 C507 1.503 . S
C515 C514 1.370 . S
C515 C516 1.403 . S
C516 C515 1.403 . S
C516 C517 1.404 . S
C516 C519 1.539 . S
C517 C513 1.408 . S
C517 C516 1.404 . S
C517 H529 0.930 . S
C518 C514 1.524 . S
C518 H530 0.956 . S
C518 H531 0.961 . S
C518 H532 0.961 . S
C519 C516 1.539 . S
C519 H533 0.958 . S
C519 H534 0.961 . S
C519 H535 0.960 . S
H520 C504 0.931 . S
H521 C509 0.929 . S
H522 C510 0.960 . S
H523 C510 0.962 . S
H524 C510 0.960 . S
H525 C511 0.961 . S
H526 C511 0.961 . S
H527 C511 0.961 . S
H528 C512 0.931 . S
H529 C517 0.930 . S
H530 C518 0.956 . S
H531 C518 0.961 . S
H532 C518 0.961 . S
H533 C519 0.958 . S
H534 C519 0.961 . S
H535 C519 0.960 . S
C536 C537 1.391 . S
C536 C538 1.394 . S
C536 H552 0.931 . S
C537 C536 1.391 . S
C537 C541 1.376 . S
C538 C536 1.394 . S
C538 C539 1.369 . S
C538 C542 1.531 . S
C539 C538 1.369 . S
C539 C540 1.410 . S
C539 C547 1.503 . S
C540 C539 1.410 . S
C540 C541 1.392 . S
C540 C543 1.511 . S
C541 C537 1.376 . S
C541 C540 1.392 . S
C541 H553 0.929 . S
C542 C538 1.531 . S
C542 H554 0.960 . S
C542 H555 0.962 . S
C542 H556 0.960 . S
C543 C540 1.511 . S
C543 H557 0.961 . S
C543 H558 0.961 . S
C543 H559 0.961 . S
C544 C545 1.370 . S
C544 C546 1.363 . S
C544 H560 0.931 . S
C545 C544 1.370 . S
C545 C549 1.408 . S
C546 C544 1.363 . S
C546 C547 1.370 . S
C546 C550 1.524 . S
C547 C539 1.503 . S
C547 C546 1.370 . S
C547 C548 1.403 . S
C548 C547 1.403 . S
C548 C549 1.404 . S
C548 C551 1.539 . S
C549 C545 1.408 . S
C549 C548 1.404 . S
C549 H561 0.930 . S
C550 C546 1.524 . S
C550 H562 0.956 . S
C550 H563 0.961 . S
C550 H564 0.961 . S
C551 C548 1.539 . S
C551 H565 0.958 . S
C551 H566 0.961 . S
C551 H567 0.960 . S
H552 C536 0.931 . S
H553 C541 0.929 . S
H554 C542 0.960 . S
H555 C542 0.962 . S
H556 C542 0.960 . S
H557 C543 0.961 . S
H558 C543 0.961 . S
H559 C543 0.961 . S
H560 C544 0.931 . S
H561 C549 0.930 . S
H562 C550 0.956 . S
H563 C550 0.961 . S
H564 C550 0.961 . S
H565 C551 0.958 . S
H566 C551 0.961 . S
H567 C551 0.960 . S
C568 C569 1.391 . S
C568 C570 1.394 . S
C568 H584 0.931 . S
C569 C568 1.391 . S
C569 C573 1.376 . S
C570 C568 1.394 . S
C570 C571 1.369 . S
C570 C574 1.531 . S
C571 C570 1.369 . S
C571 C572 1.410 . S
C571 C579 1.503 . S
C572 C571 1.410 . S
C572 C573 1.392 . S
C572 C575 1.511 . S
C573 C569 1.376 . S
C573 C572 1.392 . S
C573 H585 0.929 . S
C574 C570 1.531 . S
C574 H586 0.960 . S
C574 H587 0.962 . S
C574 H588 0.960 . S
C575 C572 1.511 . S
C575 H589 0.961 . S
C575 H590 0.961 . S
C575 H591 0.961 . S
C576 C577 1.370 . S
C576 C578 1.363 . S
C576 H592 0.931 . S
C577 C576 1.370 . S
C577 C581 1.408 . S
C578 C576 1.363 . S
C578 C579 1.370 . S
C578 C582 1.524 . S
C579 C571 1.503 . S
C579 C578 1.370 . S
C579 C580 1.403 . S
C580 C579 1.403 . S
C580 C581 1.404 . S
C580 C583 1.539 . S
C581 C577 1.408 . S
C581 C580 1.404 . S
C581 H593 0.930 . S
C582 C578 1.524 . S
C582 H594 0.956 . S
C582 H595 0.961 . S
C582 H596 0.961 . S
C583 C580 1.539 . S
C583 H597 0.958 . S
C583 H598 0.961 . S
C583 H599 0.960 . S
H584 C568 0.931 . S
H585 C573 0.929 . S
H586 C574 0.960 . S
H587 C574 0.962 . S
H588 C574 0.960 . S
H589 C575 0.961 . S
H590 C575 0.961 . S
H591 C575 0.961 . S
H592 C576 0.931 . S
H593 C581 0.930 . S
H594 C582 0.956 . S
H595 C582 0.961 . S
H596 C582 0.961 . S
H597 C583 0.958 . S
H598 C583 0.961 . S
H599 C583 0.960 . S
C600 C601 1.391 . S
C600 C602 1.394 . S
C600 H616 0.931 . S
C601 C600 1.391 . S
C601 C605 1.376 . S
C602 C600 1.394 . S
C602 C603 1.369 . S
C602 C606 1.531 . S
C603 C602 1.369 . S
C603 C604 1.410 . S
C603 C611 1.503 . S
C604 C603 1.410 . S
C604 C605 1.392 . S
C604 C607 1.511 . S
C605 C601 1.376 . S
C605 C604 1.392 . S
C605 H617 0.929 . S
C606 C602 1.531 . S
C606 H618 0.960 . S
C606 H619 0.962 . S
C606 H620 0.960 . S
C607 C604 1.511 . S
C607 H621 0.961 . S
C607 H622 0.961 . S
C607 H623 0.961 . S
C608 C609 1.370 . S
C608 C610 1.363 . S
C608 H624 0.931 . S
C609 C608 1.370 . S
C609 C613 1.408 . S
C610 C608 1.363 . S
C610 C611 1.370 . S
C610 C614 1.524 . S
C611 C603 1.503 . S
C611 C610 1.370 . S
C611 C612 1.403 . S
C612 C611 1.403 . S
C612 C613 1.404 . S
C612 C615 1.539 . S
C613 C609 1.408 . S
C613 C612 1.404 . S
C613 H625 0.930 . S
C614 C610 1.524 . S
C614 H626 0.956 . S
C614 H627 0.961 . S
C614 H628 0.961 . S
C615 C612 1.539 . S
C615 H629 0.958 . S
C615 H630 0.961 . S
C615 H631 0.960 . S
H616 C600 0.931 . S
H617 C605 0.929 . S
H618 C606 0.960 . S
H619 C606 0.962 . S
H620 C606 0.960 . S
H621 C607 0.961 . S
H622 C607 0.961 . S
H623 C607 0.961 . S
H624 C608 0.931 . S
H625 C613 0.930 . S
H626 C614 0.956 . S
H627 C614 0.961 . S
H628 C614 0.961 . S
H629 C615 0.958 . S
H630 C615 0.961 . S
H631 C615 0.960 . S
C632 C633 1.391 . S
C632 C634 1.394 . S
C632 H648 0.931 . S
C633 C632 1.391 . S
C633 C637 1.376 . S
C634 C632 1.394 . S
C634 C635 1.369 . S
C634 C638 1.531 . S
C635 C634 1.369 . S
C635 C636 1.410 . S
C635 C643 1.503 . S
C636 C635 1.410 . S
C636 C637 1.392 . S
C636 C639 1.511 . S
C637 C633 1.376 . S
C637 C636 1.392 . S
C637 H649 0.929 . S
C638 C634 1.531 . S
C638 H650 0.960 . S
C638 H651 0.962 . S
C638 H652 0.960 . S
C639 C636 1.511 . S
C639 H653 0.961 . S
C639 H654 0.961 . S
C639 H655 0.961 . S
C640 C641 1.370 . S
C640 C642 1.363 . S
C640 H656 0.931 . S
C641 C640 1.370 . S
C641 C645 1.408 . S
C642 C640 1.363 . S
C642 C643 1.370 . S
C642 C646 1.524 . S
C643 C635 1.503 . S
C643 C642 1.370 . S
C643 C644 1.403 . S
C644 C643 1.403 . S
C644 C645 1.404 . S
C644 C647 1.539 . S
C645 C641 1.408 . S
C645 C644 1.404 . S
C645 H657 0.930 . S
C646 C642 1.524 . S
C646 H658 0.956 . S
C646 H659 0.961 . S
C646 H660 0.961 . S
C647 C644 1.539 . S
C647 H661 0.958 . S
C647 H662 0.961 . S
C647 H663 0.960 . S
H648 C632 0.931 . S
H649 C637 0.929 . S
H650 C638 0.960 . S
H651 C638 0.962 . S
H652 C638 0.960 . S
H653 C639 0.961 . S
H654 C639 0.961 . S
H655 C639 0.961 . S
H656 C640 0.931 . S
H657 C645 0.930 . S
H658 C646 0.956 . S
H659 C646 0.961 . S
H660 C646 0.961 . S
H661 C647 0.958 . S
H662 C647 0.961 . S
H663 C647 0.960 . S
C664 C665 1.391 . S
C664 C666 1.394 . S
C664 H680 0.931 . S
C665 C664 1.391 . S
C665 C669 1.376 . S
C666 C664 1.394 . S
C666 C667 1.369 . S
C666 C670 1.531 . S
C667 C666 1.369 . S
C667 C668 1.410 . S
C667 C675 1.503 . S
C668 C667 1.410 . S
C668 C669 1.392 . S
C668 C671 1.511 . S
C669 C665 1.376 . S
C669 C668 1.392 . S
C669 H681 0.929 . S
C670 C666 1.531 . S
C670 H682 0.960 . S
C670 H683 0.962 . S
C670 H684 0.960 . S
C671 C668 1.511 . S
C671 H685 0.961 . S
C671 H686 0.961 . S
C671 H687 0.961 . S
C672 C673 1.370 . S
C672 C674 1.363 . S
C672 H688 0.931 . S
C673 C672 1.370 . S
C673 C677 1.408 . S
C674 C672 1.363 . S
C674 C675 1.370 . S
C674 C678 1.524 . S
C675 C667 1.503 . S
C675 C674 1.370 . S
C675 C676 1.403 . S
C676 C675 1.403 . S
C676 C677 1.404 . S
C676 C679 1.539 . S
C677 C673 1.408 . S
C677 C676 1.404 . S
C677 H689 0.930 . S
C678 C674 1.524 . S
C678 H690 0.956 . S
C678 H691 0.961 . S
C678 H692 0.961 . S
C679 C676 1.539 . S
C679 H693 0.958 . S
C679 H694 0.961 . S
C679 H695 0.960 . S
H680 C664 0.931 . S
H681 C669 0.929 . S
H682 C670 0.960 . S
H683 C670 0.962 . S
H684 C670 0.960 . S
H685 C671 0.961 . S
H686 C671 0.961 . S
H687 C671 0.961 . S
H688 C672 0.931 . S
H689 C677 0.930 . S
H690 C678 0.956 . S
H691 C678 0.961 . S
H692 C678 0.961 . S
H693 C679 0.958 . S
H694 C679 0.961 . S
H695 C679 0.960 . S
C121 C101 1.340 . S
C129 C1 1.383 . S
C153 C19 1.291 . S
C161 C21 1.137 . S
C185 C39 0.972 . S
C193 C41 0.939 . S
C217 C61 1.745 . S
C225 C59 1.815 . S
C249 C81 1.678 . S
C257 C79 1.815 . S
C281 C99 1.314 . S
C289 C119 1.337 . S
C313 C98 1.720 . S
C321 C2 1.701 . S
C345 C102 1.290 . S
C353 C22 1.311 . S
C377 C42 1.472 . S
C385 C18 1.464 . S
C409 C62 1.752 1_556 S
C417 C38 1.788 . S
C441 C82 2.029 . S
C449 C58 2.051 . S
C473 C78 2.240 1_554 S
C481 C118 2.229 . S
C505 C8 1.429 . S
C513 C9 1.422 . S
C537 C28 1.455 . S
C545 C29 1.418 . S
C569 C48 1.404 . S
C577 C49 1.439 . S
C601 C68 1.391 . S
C609 C69 1.436 . S
C633 C89 1.414 . S
C641 C88 1.423 . S
C665 C109 1.429 . S
C673 C108 1.429 . S
