# Generated by pormake.
# Topology reo, (8)-cn, num edge types: 1
# Building blocks:
#     Node 0, Type 0, BuildingBlock: GIZVER_clean_sbu_0, # of connection points: 8
#     Node 1, Type 0, BuildingBlock: GIZVER_clean_sbu_0, # of connection points: 8
#     Node 2, Type 0, BuildingBlock: GIZVER_clean_sbu_0, # of connection points: 8
#     Edge 3, Type (0, 0), BuildingBlock: EZIPEK_clean_linker_0, # of connection points: 2
#     Edge 4, Type (0, 0), BuildingBlock: EZIPEK_clean_linker_0, # of connection points: 2
#     Edge 5, Type (0, 0), BuildingBlock: EZIPEK_clean_linker_0, # of connection points: 2
#     Edge 6, Type (0, 0), BuildingBlock: EZIPEK_clean_linker_0, # of connection points: 2
#     Edge 7, Type (0, 0), BuildingBlock: EZIPEK_clean_linker_0, # of connection points: 2
#     Edge 8, Type (0, 0), BuildingBlock: EZIPEK_clean_linker_0, # of connection points: 2
#     Edge 9, Type (0, 0), BuildingBlock: EZIPEK_clean_linker_0, # of connection points: 2
#     Edge 10, Type (0, 0), BuildingBlock: EZIPEK_clean_linker_0, # of connection points: 2
#     Edge 11, Type (0, 0), BuildingBlock: EZIPEK_clean_linker_0, # of connection points: 2
#     Edge 12, Type (0, 0), BuildingBlock: EZIPEK_clean_linker_0, # of connection points: 2
#     Edge 13, Type (0, 0), BuildingBlock: EZIPEK_clean_linker_0, # of connection points: 2
#     Edge 14, Type (0, 0), BuildingBlock: EZIPEK_clean_linker_0, # of connection points: 2
# Relax obj value: 0.102
# Max RMSD: 0.211
# Mean RMSD: 0.145
data_MOF--net-reo--node1-GIZVER_clean_sbu_0--edge1-EZIPEK_clean_linker_0
_symmetry_space_group_name_H-M    P1
_symmetry_Int_Tables_number       1
_symmetry_cell_setting            triclinic
loop_
_symmetry_equiv_pos_as_xyz
'x, y, z'
_cell_length_a     18.709967
_cell_length_b     19.778682
_cell_length_c     20.174606
_cell_angle_alpha  111.37037
_cell_angle_beta   95.745301
_cell_angle_gamma 75.221346
loop_
_atom_site_label
_atom_site_type_symbol
_atom_site_fract_x
_atom_site_fract_y
_atom_site_fract_z
_atom_type_partial_charge
Co0 Co 0.06635 0.96135 0.63498 0.0
Co1 Co 0.15769 1.00942 0.58569 0.0
Co2 Co 1.01448 0.03668 0.50258 0.0
O3 O 0.08332 0.96563 0.54347 0.0
H4 H 0.10347 0.91694 0.50895 0.0
O5 O 0.94343 0.10878 0.4622 0.0
Co6 Co 0.96408 0.12763 0.37872 0.0
Co7 Co 0.88492 0.05565 0.39671 0.0
H8 H 0.91455 0.15174 0.4981 0.0
O9 O 0.24698 0.94928 0.58146 0.0
O10 O 0.16277 0.99622 0.67237 0.0
O11 O 0.14857 0.11439 0.59909 0.0
O12 O 0.0281 0.13125 0.58151 0.0
O13 O 0.09723 0.03554 0.44307 0.0
O14 O 0.98345 0.14708 0.30468 0.0
O15 O 0.91268 0.22631 0.39771 0.0
O16 O 0.02505 1.03196 0.34906 0.0
O17 O 1.00418 0.93878 0.42703 0.0
O18 O 0.91802 0.94982 0.3468 0.0
O19 O 0.87022 0.09602 0.32863 0.0
O20 O 0.78991 0.09645 0.40855 0.0
C21 C 0.08907 0.88386 0.68548 0.0
C22 C 0.93776 0.05459 0.62906 0.0
C23 C 0.08419 0.15642 0.61064 0.0
C24 C 0.23094 0.96474 0.64744 0.0
C25 C 0.94217 0.21276 0.33632 0.0
C26 C 0.0895 1.02944 0.37709 0.0
C27 C 0.97137 0.91006 0.36923 0.0
C28 C 0.80269 0.10604 0.35075 0.0
O29 O 0.05221 0.95197 0.71635 0.0
O30 O 0.11698 0.86512 0.62234 0.0
O31 O 0.93255 0.03737 0.56121 0.0
O32 O 1.0012 0.05762 0.65912 0.0
Co33 Co 0.66522 1.01719 0.88619 0.0
Co34 Co 0.64635 0.10419 0.00382 0.0
Co35 Co 0.51497 0.04077 0.00353 0.0
O36 O 0.5753 0.07111 0.94599 0.0
H37 H 0.54576 0.11091 0.93109 0.0
O38 O 0.45519 1.01087 0.06147 0.0
Co39 Co 0.35957 0.0581 0.11188 0.0
Co40 Co 0.39102 0.97168 0.99764 0.0
H41 H 0.48477 0.97186 0.07738 0.0
O42 O 0.65174 0.19185 0.00782 0.0
O43 O 0.72904 0.0759 0.95733 0.0
O44 O 0.66269 0.09103 0.09148 0.0
O45 O 0.5433 0.10507 0.10191 0.0
O46 O 0.42907 0.13003 1.00232 0.0
O47 O 0.27419 0.09669 0.1618 0.0
O48 O 0.37047 1.00805 0.17487 0.0
O49 O 0.33334 0.12287 0.05715 0.0
O50 O 0.48529 0.97653 0.90497 0.0
O51 O 0.36515 0.999 0.91711 0.0
O52 O 0.31374 0.97692 0.04274 0.0
O53 O 0.40602 0.87654 0.98207 0.0
C54 C 0.7194 1.03219 0.80646 0.0
C55 C 0.66415 0.91973 0.97382 0.0
C56 C 0.60754 0.10603 0.12937 0.0
C57 C 0.71732 0.14866 0.98865 0.0
C58 C 0.30297 0.0482 0.19221 0.0
C59 C 0.36097 0.15333 0.02299 0.0
C60 C 0.42016 0.98127 0.87816 0.0
C61 C 0.34292 0.90449 0.01482 0.0
O62 O 0.74432 0.9754 0.82753 0.0
O63 O 0.65721 0.07869 0.83401 0.0
O64 O 0.60117 0.95163 0.00575 0.0
O65 O 0.68695 0.94357 0.93086 0.0
Co66 Co 0.99212 0.41408 0.07792 0.0
Co67 Co 0.89606 0.44237 0.9803 0.0
Co68 Co 1.01332 0.53628 0.99733 0.0
O69 O 0.95343 0.49857 0.04654 0.0
H70 H 0.91902 0.53878 0.07959 0.0
O71 O 0.07158 0.57376 0.94715 0.0
Co72 Co 0.03803 0.66727 0.93126 0.0
Co73 Co 0.13549 0.61658 0.01361 0.0
H74 H 0.09899 0.5346 0.90737 0.0
O75 O 0.81154 0.42794 0.00503 0.0
O76 O 0.92901 0.35912 0.00566 0.0
O77 O 0.91309 0.41324 0.87976 0.0
O78 O 1.01739 0.45128 0.90171 0.0
O79 O 0.91764 0.60193 0.97285 0.0
O80 O 1.0121 0.75083 0.90946 0.0
O81 O 0.09958 0.64707 0.85828 0.0
O82 O 0.96539 0.70089 0.00285 0.0
O83 O 1.0109 0.61944 0.09348 0.0
O84 O 0.12503 0.632 0.11284 0.0
O85 O 0.11392 0.70706 1.00162 0.0
O86 O 0.22271 0.61785 0.98554 0.0
C87 C 0.96482 0.37553 0.15408 0.0
C88 C 0.12263 0.40402 0.01464 0.0
C89 C 0.97473 0.41332 0.85933 0.0
C90 C 0.85811 0.36823 0.00886 0.0
C91 C 0.06319 0.7142 0.8616 0.0
C92 C 0.90894 0.67293 0.98797 0.0
C93 C 0.06216 0.64045 0.13683 0.0
C94 C 0.18548 0.68501 0.99168 0.0
O95 O 0.02162 0.33983 0.11278 0.0
O96 O 0.92425 0.43776 0.14793 0.0
O97 O 0.11079 0.47353 0.0227 0.0
O98 O 0.06882 0.37512 0.0111 0.0
C99 C 0.94251 0.37921 0.27892 0.0
C100 C 0.94527 0.34122 0.20358 0.0
C101 C 0.91546 0.23495 0.22166 0.0
C102 C 0.92685 0.26611 0.29611 0.0
N103 N 0.95561 0.36804 0.39619 0.0
N104 N 0.94683 0.2247 0.1051 0.0
C105 C 0.94018 0.33902 0.32527 0.0
C106 C 0.93524 0.26683 0.17554 0.0
N107 N 0.94474 0.45276 0.30657 0.0
N108 N 0.88527 0.17415 0.19479 0.0
H109 H 0.95816 0.24483 0.06739 0.0
H110 H 0.94986 0.16747 0.08462 0.0
H111 H 0.86612 0.15222 0.2275 0.0
H112 H 0.87168 0.15096 0.14125 0.0
H113 H 0.93501 0.48551 0.35999 0.0
H114 H 0.95146 0.48261 0.27537 0.0
H115 H 0.97484 0.41654 0.41937 0.0
H116 H 0.95346 0.34111 0.43147 0.0
C117 C 0.70853 0.18358 0.29259 0.0
C118 C 0.73805 0.11468 0.30348 0.0
C119 C 0.63871 0.06339 0.23016 0.0
C120 C 0.62179 0.1239 0.20613 0.0
N121 N 0.61967 0.25099 0.22736 0.0
N122 N 0.7303 0.98819 0.28385 0.0
C123 C 0.64983 0.18763 0.24238 0.0
C124 C 0.7018 0.05481 0.27397 0.0
N125 N 0.73707 0.24395 0.32964 0.0
N126 N 0.59505 1.01351 0.209 0.0
H127 H 0.77769 0.97822 0.31391 0.0
H128 H 0.71057 0.94043 0.25751 0.0
H129 H 0.54772 1.0219 0.17832 0.0
H130 H 0.6007 0.96997 0.22792 0.0
H131 H 0.72067 0.29532 0.32282 0.0
H132 H 0.77674 0.24303 0.36956 0.0
H133 H 0.63556 0.3012 0.25122 0.0
H134 H 0.57571 0.25302 0.19128 0.0
C135 C 0.9468 0.78486 0.29246 0.0
C136 C 0.99881 0.82916 0.32484 0.0
C137 C 0.09788 0.7244 0.25726 0.0
C138 C 0.0439 0.69103 0.21272 0.0
N139 N 0.92758 0.66319 0.2168 0.0
N140 N 0.12827 0.83645 0.33936 0.0
C141 C 0.97083 0.71346 0.23856 0.0
C142 C 0.07585 0.797 0.3092 0.0
N143 N 0.87454 0.81115 0.31304 0.0
N144 N 0.16959 0.68441 0.25324 0.0
H145 H 0.11837 0.88823 0.37957 0.0
H146 H 0.1822 0.8195 0.32054 0.0
H147 H 0.18511 0.62815 0.22117 0.0
H148 H 0.21084 0.70296 0.28874 0.0
H149 H 0.83209 0.78713 0.28494 0.0
H150 H 0.85674 0.8583 0.35797 0.0
H151 H 0.87469 0.67342 0.23569 0.0
H152 H 0.94987 0.6072 0.18768 0.0
C153 C 0.26611 0.06067 0.3155 0.0
C154 C 0.25516 0.03522 0.24054 0.0
C155 C 0.15027 0.98879 0.25732 0.0
C156 C 0.1525 1.0258 0.33254 0.0
N157 N 0.20706 0.11241 0.43054 0.0
N158 N 0.17367 0.98952 0.14227 0.0
C159 C 0.20957 0.06518 0.3613 0.0
C160 C 0.19335 1.00371 0.21218 0.0
N161 N 0.32932 0.083 0.34344 0.0
N162 N 0.1082 0.93762 0.22824 0.0
H163 H 0.20249 0.99938 0.10673 0.0
H164 H 0.12441 0.97457 0.12118 0.0
H165 H 0.08024 0.92007 0.25866 0.0
H166 H 0.10822 0.90582 0.17418 0.0
H167 H 0.34385 0.09491 0.39703 0.0
H168 H 0.37013 0.08322 0.31193 0.0
H169 H 0.24321 0.14743 0.45171 0.0
H170 H 0.16407 0.12408 0.46482 0.0
C171 C 0.11367 0.8585 0.79959 0.0
C172 C 0.09822 0.831 0.72542 0.0
C173 C 0.07591 0.71847 0.73842 0.0
C174 C 0.08096 0.75131 0.81396 0.0
N175 N 0.09897 0.85717 0.91691 0.0
N176 N 0.05459 0.73838 0.62551 0.0
C177 C 0.09794 0.82277 0.84457 0.0
C178 C 0.078 0.76124 0.6948 0.0
N179 N 0.14569 0.91813 0.82683 0.0
N180 N 0.06666 0.64718 0.70796 0.0
H181 H 0.05396 0.76766 0.59173 0.0
H182 H 0.02991 0.69342 0.60277 0.0
H183 H 0.05793 0.6161 0.73709 0.0
H184 H 0.0723 0.61696 0.65359 0.0
H185 H 0.16233 0.93917 0.87967 0.0
H186 H 0.16311 0.94193 0.79476 0.0
H187 H 0.10017 0.91312 0.94207 0.0
H188 H 0.09564 0.83106 0.95256 0.0
C189 C 0.37437 0.89447 0.77052 0.0
C190 C 0.40553 0.957 0.80093 0.0
C191 C 0.33928 1.01172 0.7158 0.0
C192 C 0.29508 0.95823 0.69624 0.0
N193 N 0.28403 0.83703 0.68916 0.0
N194 N 0.43821 0.06064 0.78741 0.0
C195 C 0.31727 0.89533 0.71829 0.0
C196 C 0.39542 1.01 0.76769 0.0
N197 N 0.40122 0.83449 0.79163 0.0
N198 N 0.32886 0.0659 0.68688 0.0
H199 H 0.48133 0.05863 0.82416 0.0
H200 H 0.43161 0.10224 0.76548 0.0
H201 H 0.28981 0.07176 0.64748 0.0
H202 H 0.28981 0.07176 0.64748 0.0
H203 H 0.38508 0.78422 0.7698 0.0
H204 H 0.44403 0.83436 0.82909 0.0
H205 H 0.2916 0.7928 0.70737 0.0
H206 H 0.24936 0.83246 0.64489 0.0
C207 C 0.04656 0.28213 0.80049 0.0
C208 C 1.00727 0.35092 0.79402 0.0
C209 C 0.02686 0.29513 0.66459 0.0
C210 C 0.07072 0.22823 0.67271 0.0
N211 N 0.14057 0.16956 0.75362 0.0
N212 N 0.96875 0.42733 0.7216 0.0
C213 C 0.08685 0.22562 0.74218 0.0
C214 C 1.00036 0.35898 0.72646 0.0
N215 N 0.04287 0.26889 0.86168 0.0
N216 N 1.00978 0.29707 0.59778 0.0
H217 H 0.94762 0.47407 0.76582 0.0
H218 H 0.96795 0.43883 0.67508 0.0
H219 H 0.03216 0.25306 0.55206 0.0
H220 H 0.97151 0.34069 0.58758 0.0
H221 H 0.06259 0.2166 0.86646 0.0
H222 H 1.01196 0.30774 0.90481 0.0
H223 H 0.15727 0.1687 0.80418 0.0
H224 H 0.17565 0.12923 0.71452 0.0
C225 C 0.80252 0.9777 0.69832 0.0
C226 C 0.76459 0.04252 0.75327 0.0
C227 C 0.82918 0.11749 0.71469 0.0
C228 C 0.87568 0.05099 0.66938 0.0
N229 N 0.90919 0.91643 0.62119 0.0
N230 N 0.74185 0.17699 0.81239 0.0
C231 C 0.86276 0.98083 0.66194 0.0
C232 C 0.77697 0.1135 0.76032 0.0
N233 N 0.77805 0.9135 0.67778 0.0
N234 N 0.83482 0.18472 0.71371 0.0
H235 H 0.705 0.1781 0.84812 0.0
H236 H 0.75254 0.2292 0.82412 0.0
H237 H 0.87359 0.18939 0.68283 0.0
H238 H 0.79802 0.23534 0.73884 0.0
H239 H 0.79857 0.8664 0.63384 0.0
H240 H 0.73087 0.91043 0.69901 0.0
H241 H 0.90878 0.86384 0.62114 0.0
H242 H 0.95208 0.91581 0.59154 0.0
C243 C 0.23048 0.2998 0.95152 0.0
C244 C 0.1987 0.35445 0.01611 0.0
C245 C 0.28989 0.28772 0.08254 0.0
C246 C 0.31295 0.22645 0.01831 0.0
N247 N 0.30512 0.17483 0.89095 0.0
N248 N 0.19752 0.40021 0.14397 0.0
C249 C 0.28407 0.2334 0.95244 0.0
C250 C 0.22915 0.34881 0.08184 0.0
N251 N 0.20871 0.31167 0.88921 0.0
N252 N 0.32732 0.2881 0.14438 0.0
H253 H 0.15594 0.44736 0.14552 0.0
H254 H 0.20979 0.39439 0.19338 0.0
H255 H 0.37255 0.2453 0.14661 0.0
H256 H 0.31845 0.3337 0.19183 0.0
H257 H 0.23294 0.27797 0.84022 0.0
H258 H 0.17011 0.35971 0.88785 0.0
H259 H 0.28295 0.17238 0.84102 0.0
H260 H 0.34326 0.12644 0.89097 0.0
C261 C 0.24649 0.78512 0.06622 0.0
C262 C 0.22704 0.73995 0.99782 0.0
C263 C 0.27764 0.80743 0.94241 0.0
C264 C 0.30014 0.8506 0.01044 0.0
N265 N 0.33566 0.85494 0.12986 0.0
N266 N 0.24923 0.68934 0.87134 0.0
C267 C 0.29275 0.83292 0.07092 0.0
C268 C 0.25049 0.74497 0.93574 0.0
N269 N 0.2237 0.78015 0.12621 0.0
N270 N 0.28202 0.82626 0.88449 0.0
H271 H 0.23426 0.6403 0.86581 0.0
H272 H 0.27108 0.68789 0.8252 0.0
H273 H 0.29768 0.87457 0.88849 0.0
H274 H 0.26338 0.7982 0.83399 0.0
H275 H 0.23258 0.81607 0.17727 0.0
H276 H 0.19179 0.74346 0.12484 0.0
H277 H 0.33558 0.83959 0.17406 0.0
H278 H 0.37949 0.87823 0.12946 0.0
C279 C 0.83054 0.17326 0.95549 0.0
C280 C 0.77868 0.18612 0.00707 0.0
C281 C 0.79097 0.31355 0.06815 0.0
C282 C 0.83105 0.30565 0.00888 0.0
N283 N 0.88799 0.23014 0.89435 0.0
N284 N 0.74118 0.25005 0.12834 0.0
C285 C 0.85223 0.23555 0.95261 0.0
C286 C 0.76946 0.25071 0.06893 0.0
N287 N 0.8595 0.10229 0.91096 0.0
N288 N 0.77172 0.38099 0.12217 0.0
H289 H 0.72859 0.20191 0.1291 0.0
H290 H 0.73914 0.29239 0.17788 0.0
H291 H 0.78771 0.42846 0.12429 0.0
H292 H 0.73614 0.39137 0.16308 0.0
H293 H 0.90129 0.08865 0.87467 0.0
H294 H 0.84834 0.05578 0.91673 0.0
H295 H 0.90252 0.18128 0.85052 0.0
H296 H 0.89653 0.27657 0.88629 0.0
C297 C 0.81275 0.79054 0.05094 0.0
C298 C 0.83402 0.7263 0.9888 0.0
C299 C 0.7278 0.781 0.9252 0.0
C300 C 0.71432 0.84997 0.9839 0.0
N301 N 0.74936 0.92096 0.1017 0.0
N302 N 0.81317 0.66254 0.86425 0.0
C303 C 0.75766 0.85435 0.04683 0.0
C304 C 0.79108 0.72158 0.9255 0.0
N305 N 0.8448 0.7901 0.11473 0.0
N306 N 0.67936 0.77212 0.86905 0.0
H307 H 0.85788 0.61788 0.86238 0.0
H308 H 0.79027 0.65994 0.81444 0.0
H309 H 0.63286 0.81402 0.86755 0.0
H310 H 0.68114 0.72143 0.82755 0.0
H311 H 0.82734 0.83173 0.16334 0.0
H312 H 0.88405 0.74406 0.11956 0.0
H313 H 0.78652 0.93154 0.14414 0.0
H314 H 0.70768 0.96707 0.10196 0.0
loop_
_geom_bond_atom_site_label_1
_geom_bond_atom_site_label_2
_geom_bond_distance
_geom_bond_site_symmetry_2
_ccdc_geom_bond_type
Co0 O3 2.042 . S
Co0 O10 2.264 . S
Co0 O29 2.286 . S
Co0 O30 2.069 . S
Co0 O32 2.015 1_455 S
Co1 O3 2.122 1_545 S
Co1 O9 2.073 1_545 S
Co1 O10 2.327 1_545 S
Co1 O11 1.976 . S
Co2 O3 2.086 1_545 S
Co2 O5 2.087 1_455 S
Co2 O12 2.112 . S
Co2 O13 2.144 1_545 S
Co2 O17 2.111 1_445 S
Co2 O31 2.143 1_455 S
O3 Co0 2.042 . S
O3 Co1 2.122 1_565 S
O3 Co2 2.086 1_565 S
O3 H4 0.980 . S
H4 O3 0.980 . S
O5 Co2 2.087 1_655 S
O5 Co6 2.042 . S
O5 Co7 2.122 1_545 S
O5 H8 0.980 . S
Co6 O5 2.042 . S
Co6 O14 2.286 . S
Co6 O15 2.069 . S
Co6 O16 2.015 1_655 S
Co6 O19 2.264 . S
Co7 O5 2.122 1_565 S
Co7 O18 1.976 . S
Co7 O19 2.327 1_565 S
Co7 O20 2.073 1_565 S
H8 O5 0.980 . S
O9 Co1 2.073 1_565 S
O9 C24 1.245 . S
O10 Co0 2.264 . S
O10 Co1 2.327 1_565 S
O10 C24 1.257 . S
O11 Co1 1.976 . S
O11 C23 1.251 . S
O12 Co2 2.112 . S
O12 C23 1.274 . S
O13 Co2 2.144 1_565 S
O13 C26 1.246 . S
O14 Co6 2.286 . S
O14 C25 1.259 . S
O15 Co6 2.069 . S
O15 C25 1.289 . S
O16 Co6 2.015 1_455 S
O16 C26 1.257 1_545 S
O17 Co2 2.111 1_665 S
O17 C27 1.274 . S
O18 Co7 1.976 . S
O18 C27 1.251 . S
O19 Co6 2.264 . S
O19 Co7 2.327 1_545 S
O19 C28 1.257 . S
O20 Co7 2.073 1_545 S
O20 C28 1.245 . S
C21 O29 1.259 . S
C21 O30 1.289 . S
C22 O31 1.246 . S
C22 O32 1.257 1_545 S
C23 O11 1.251 . S
C23 O12 1.274 . S
C24 O9 1.245 . S
C24 O10 1.257 . S
C25 O14 1.259 . S
C25 O15 1.289 . S
C26 O13 1.246 . S
C26 O16 1.257 1_565 S
C27 O17 1.274 . S
C27 O18 1.251 . S
C28 O19 1.257 . S
C28 O20 1.245 . S
O29 Co0 2.286 . S
O29 C21 1.259 . S
O30 Co0 2.069 . S
O30 C21 1.289 . S
O31 Co2 2.143 1_655 S
O31 C22 1.246 . S
O32 Co0 2.015 1_655 S
O32 C22 1.257 1_565 S
Co33 O36 2.042 1_565 S
Co33 O43 2.264 1_565 S
Co33 O62 2.286 . S
Co33 O63 2.069 1_565 S
Co33 O65 2.015 . S
Co34 O36 2.122 1_554 S
Co34 O42 2.073 . S
Co34 O43 2.327 1_554 S
Co34 O44 1.976 . S
Co35 O36 2.087 1_554 S
Co35 O38 2.087 1_545 S
Co35 O45 2.112 . S
Co35 O46 2.144 . S
Co35 O50 2.111 1_544 S
Co35 O64 2.143 1_544 S
O36 Co33 2.042 1_545 S
O36 Co34 2.122 1_556 S
O36 Co35 2.087 1_556 S
O36 H37 0.980 . S
H37 O36 0.980 . S
O38 Co35 2.087 1_565 S
O38 Co39 2.042 1_565 S
O38 Co40 2.122 1_554 S
O38 H41 0.980 . S
Co39 O38 2.042 1_545 S
Co39 O47 2.286 . S
Co39 O48 2.069 1_545 S
Co39 O49 2.015 . S
Co39 O52 2.264 1_545 S
Co40 O38 2.122 1_556 S
Co40 O51 1.976 . S
Co40 O52 2.327 1_556 S
Co40 O53 2.073 . S
H41 O38 0.980 . S
O42 Co34 2.073 . S
O42 C57 1.245 1_554 S
O43 Co33 2.264 1_545 S
O43 Co34 2.327 1_556 S
O43 C57 1.257 . S
O44 Co34 1.976 . S
O44 C56 1.251 . S
O45 Co35 2.112 . S
O45 C56 1.274 . S
O46 Co35 2.144 . S
O46 C59 1.246 . S
O47 Co39 2.286 . S
O47 C58 1.259 1_545 S
O48 Co39 2.069 1_565 S
O48 C58 1.289 . S
O49 Co39 2.015 . S
O49 C59 1.257 . S
O50 Co35 2.111 1_566 S
O50 C60 1.274 . S
O51 Co40 1.976 . S
O51 C60 1.251 . S
O52 Co39 2.264 1_565 S
O52 Co40 2.327 1_554 S
O52 C61 1.257 . S
O53 Co40 2.073 . S
O53 C61 1.245 1_556 S
C54 O62 1.259 1_545 S
C54 O63 1.289 . S
C55 O64 1.246 . S
C55 O65 1.257 . S
C56 O44 1.251 . S
C56 O45 1.274 . S
C57 O42 1.245 1_556 S
C57 O43 1.257 . S
C58 O47 1.259 1_565 S
C58 O48 1.289 . S
C59 O46 1.246 . S
C59 O49 1.257 . S
C60 O50 1.274 . S
C60 O51 1.251 . S
C61 O52 1.257 . S
C61 O53 1.245 1_554 S
O62 Co33 2.286 . S
O62 C54 1.259 1_565 S
O63 Co33 2.069 1_545 S
O63 C54 1.289 . S
O64 Co35 2.143 1_566 S
O64 C55 1.246 . S
O65 Co33 2.015 . S
O65 C55 1.257 . S
Co66 O69 2.042 . S
Co66 O76 2.264 1_554 S
Co66 O95 2.286 1_655 S
Co66 O96 2.069 . S
Co66 O98 2.015 1_655 S
Co67 O69 2.122 1_556 S
Co67 O75 2.073 1_556 S
Co67 O76 2.327 . S
Co67 O77 1.976 . S
Co68 O69 2.087 1_455 S
Co68 O71 2.086 1_554 S
Co68 O78 2.111 1_454 S
Co68 O79 2.143 1_454 S
Co68 O83 2.112 . S
Co68 O97 2.144 . S
O69 Co66 2.042 . S
O69 Co67 2.122 1_554 S
O69 Co68 2.087 1_655 S
O69 H70 0.980 . S
H70 O69 0.980 . S
O71 Co68 2.086 1_556 S
O71 Co72 2.042 . S
O71 Co73 2.122 1_556 S
O71 H74 0.980 . S
Co72 O71 2.042 . S
Co72 O80 2.286 1_455 S
Co72 O81 2.069 . S
Co72 O82 2.015 1_455 S
Co72 O85 2.264 1_556 S
Co73 O71 2.122 1_554 S
Co73 O84 1.976 . S
Co73 O85 2.327 . S
Co73 O86 2.073 1_554 S
H74 O71 0.980 . S
O75 Co67 2.073 1_554 S
O75 C90 1.245 . S
O76 Co66 2.264 1_556 S
O76 Co67 2.327 . S
O76 C90 1.257 1_556 S
O77 Co67 1.976 . S
O77 C89 1.251 . S
O78 Co68 2.111 1_656 S
O78 C89 1.274 . S
O79 Co68 2.143 1_656 S
O79 C92 1.246 1_556 S
O80 Co72 2.286 1_655 S
O80 C91 1.259 1_655 S
O81 Co72 2.069 . S
O81 C91 1.289 . S
O82 Co72 2.015 1_655 S
O82 C92 1.257 1_556 S
O83 Co68 2.112 . S
O83 C93 1.274 . S
O84 Co73 1.976 . S
O84 C93 1.251 . S
O85 Co72 2.264 1_554 S
O85 Co73 2.327 . S
O85 C94 1.257 1_554 S
O86 Co73 2.073 1_556 S
O86 C94 1.245 . S
C87 O95 1.259 1_655 S
C87 O96 1.289 . S
C88 O97 1.246 1_556 S
C88 O98 1.257 1_556 S
C89 O77 1.251 . S
C89 O78 1.274 . S
C90 O75 1.245 . S
C90 O76 1.257 1_554 S
C91 O80 1.259 1_455 S
C91 O81 1.289 . S
C92 O79 1.246 1_554 S
C92 O82 1.257 1_554 S
C93 O83 1.274 . S
C93 O84 1.251 . S
C94 O85 1.257 1_556 S
C94 O86 1.245 . S
O95 Co66 2.286 1_455 S
O95 C87 1.259 1_455 S
O96 Co66 2.069 . S
O96 C87 1.289 . S
O97 Co68 2.144 . S
O97 C88 1.246 1_554 S
O98 Co66 2.015 1_455 S
O98 C88 1.257 1_554 S
C99 C100 1.363 . S
C99 C105 1.379 . S
C99 N107 1.356 . S
C100 C99 1.363 . S
C100 C106 1.363 . S
C101 C102 1.363 . S
C101 C106 1.379 . S
C101 N108 1.356 . S
C102 C101 1.363 . S
C102 C105 1.363 . S
N103 C105 1.356 . S
N103 H115 0.984 . S
N103 H116 0.985 . S
N104 C106 1.356 . S
N104 H109 0.984 . S
N104 H110 0.985 . S
C105 C99 1.379 . S
C105 C102 1.363 . S
C105 N103 1.356 . S
C106 C100 1.363 . S
C106 C101 1.379 . S
C106 N104 1.356 . S
N107 C99 1.356 . S
N107 H113 0.984 1_655 S
N107 H114 0.984 . S
N108 C101 1.356 . S
N108 H111 0.984 . S
N108 H112 0.985 . S
H109 N104 0.984 . S
H110 N104 0.985 . S
H111 N108 0.984 . S
H112 N108 0.985 . S
H113 N107 0.984 1_455 S
H114 N107 0.984 . S
H115 N103 0.984 . S
H116 N103 0.985 . S
C117 C118 1.363 . S
C117 C123 1.379 . S
C117 N125 1.356 . S
C118 C117 1.363 . S
C118 C124 1.363 . S
C119 C120 1.363 1_565 S
C119 C124 1.379 1_565 S
C119 N126 1.356 . S
C120 C119 1.363 1_545 S
C120 C123 1.363 . S
N121 C123 1.356 . S
N121 H133 0.984 . S
N121 H134 0.985 . S
N122 C124 1.356 1_565 S
N122 H127 0.984 1_565 S
N122 H128 0.985 . S
C123 C117 1.379 . S
C123 C120 1.363 . S
C123 N121 1.356 . S
C124 C118 1.363 . S
C124 C119 1.379 1_545 S
C124 N122 1.356 1_545 S
N125 C117 1.356 . S
N125 H131 0.984 . S
N125 H132 0.984 . S
N126 C119 1.356 . S
N126 H129 0.984 . S
N126 H130 0.985 . S
H127 N122 0.984 1_545 S
H128 N122 0.985 . S
H129 N126 0.984 . S
H130 N126 0.985 . S
H131 N125 0.984 . S
H132 N125 0.984 . S
H133 N121 0.984 . S
H134 N121 0.985 . S
C135 C136 1.363 1_655 S
C135 C141 1.379 . S
C135 N143 1.356 . S
C136 C135 1.363 1_455 S
C136 C142 1.363 . S
C137 C138 1.363 1_455 S
C137 C142 1.379 . S
C137 N144 1.356 . S
C138 C137 1.363 1_655 S
C138 C141 1.363 . S
N139 C141 1.356 . S
N139 H151 0.984 . S
N139 H152 0.985 . S
N140 C142 1.356 . S
N140 H145 0.984 . S
N140 H146 0.985 . S
C141 C135 1.379 . S
C141 C138 1.363 . S
C141 N139 1.356 . S
C142 C136 1.363 . S
C142 C137 1.379 . S
C142 N140 1.356 . S
N143 C135 1.356 . S
N143 H149 0.984 . S
N143 H150 0.984 . S
N144 C137 1.356 . S
N144 H147 0.984 . S
N144 H148 0.985 . S
H145 N140 0.984 . S
H146 N140 0.985 . S
H147 N144 0.984 . S
H148 N144 0.985 . S
H149 N143 0.984 . S
H150 N143 0.984 . S
H151 N139 0.984 . S
H152 N139 0.985 . S
C153 C154 1.363 1_545 S
C153 C159 1.379 . S
C153 N161 1.356 . S
C154 C153 1.363 1_565 S
C154 C160 1.363 . S
C155 C156 1.363 . S
C155 C160 1.379 . S
C155 N162 1.356 . S
C156 C155 1.363 . S
C156 C159 1.363 1_565 S
N157 C159 1.356 . S
N157 H169 0.984 . S
N157 H170 0.985 . S
N158 C160 1.356 . S
N158 H163 0.984 . S
N158 H164 0.985 . S
C159 C153 1.379 . S
C159 C156 1.363 1_545 S
C159 N157 1.356 . S
C160 C154 1.363 . S
C160 C155 1.379 . S
C160 N158 1.356 . S
N161 C153 1.356 . S
N161 H167 0.984 . S
N161 H168 0.984 . S
N162 C155 1.356 . S
N162 H165 0.984 . S
N162 H166 0.985 . S
H163 N158 0.984 . S
H164 N158 0.985 . S
H165 N162 0.984 . S
H166 N162 0.985 . S
H167 N161 0.984 . S
H168 N161 0.984 . S
H169 N157 0.984 . S
H170 N157 0.985 . S
C171 C172 1.363 . S
C171 C177 1.379 . S
C171 N179 1.356 . S
C172 C171 1.363 . S
C172 C178 1.363 . S
C173 C174 1.363 . S
C173 C178 1.379 . S
C173 N180 1.356 1_455 S
C174 C173 1.363 . S
C174 C177 1.363 . S
N175 C177 1.356 . S
N175 H187 0.984 . S
N175 H188 0.985 . S
N176 C178 1.356 . S
N176 H181 0.984 . S
N176 H182 0.985 1_455 S
C177 C171 1.379 . S
C177 C174 1.363 . S
C177 N175 1.356 . S
C178 C172 1.363 . S
C178 C173 1.379 . S
C178 N176 1.356 . S
N179 C171 1.356 . S
N179 H185 0.984 . S
N179 H186 0.984 . S
N180 C173 1.356 1_655 S
N180 H183 0.984 . S
N180 H184 0.985 . S
H181 N176 0.984 . S
H182 N176 0.985 1_655 S
H183 N180 0.984 . S
H184 N180 0.985 . S
H185 N179 0.984 . S
H186 N179 0.984 . S
H187 N175 0.984 . S
H188 N175 0.985 . S
C189 C190 1.363 . S
C189 C195 1.379 . S
C189 N197 1.356 . S
C190 C189 1.363 . S
C190 C196 1.363 1_565 S
C191 C192 1.363 1_545 S
C191 C196 1.379 . S
C191 N198 1.356 . S
C192 C191 1.363 1_565 S
C192 C195 1.363 . S
N193 C195 1.356 . S
N193 H205 0.984 . S
N193 H206 0.985 . S
N194 C196 1.356 . S
N194 H199 0.984 . S
N194 H200 0.985 . S
C195 C189 1.379 . S
C195 C192 1.363 . S
C195 N193 1.356 . S
C196 C190 1.363 1_545 S
C196 C191 1.379 . S
C196 N194 1.356 . S
N197 C189 1.356 . S
N197 H203 0.984 . S
N197 H204 0.984 . S
N198 C191 1.356 . S
N198 H201 0.984 . S
N198 H202 0.985 . S
H199 N194 0.984 . S
H200 N194 0.985 . S
H201 N198 0.984 . S
H202 N198 0.985 . S
H203 N197 0.984 . S
H204 N197 0.984 . S
H205 N193 0.984 . S
H206 N193 0.985 . S
C207 C208 1.363 . S
C207 C213 1.379 . S
C207 N215 1.356 . S
C208 C207 1.363 . S
C208 C214 1.363 1_455 S
C209 C210 1.363 . S
C209 C214 1.379 . S
C209 N216 1.356 . S
C210 C209 1.363 . S
C210 C213 1.363 1_655 S
N211 C213 1.356 . S
N211 H223 0.984 . S
N211 H224 0.985 . S
N212 C214 1.356 . S
N212 H217 0.984 . S
N212 H218 0.985 . S
C213 C207 1.379 . S
C213 C210 1.363 1_455 S
C213 N211 1.356 . S
C214 C208 1.363 1_655 S
C214 C209 1.379 . S
C214 N212 1.356 . S
N215 C207 1.356 . S
N215 H221 0.984 . S
N215 H222 0.984 . S
N216 C209 1.356 . S
N216 H219 0.984 . S
N216 H220 0.985 . S
H217 N212 0.984 . S
H218 N212 0.985 . S
H219 N216 0.984 . S
H220 N216 0.985 . S
H221 N215 0.984 . S
H222 N215 0.984 . S
H223 N211 0.984 . S
H224 N211 0.985 . S
C225 C226 1.363 1_565 S
C225 C231 1.379 . S
C225 N233 1.356 . S
C226 C225 1.363 1_545 S
C226 C232 1.363 . S
C227 C228 1.363 . S
C227 C232 1.379 . S
C227 N234 1.356 . S
C228 C227 1.363 . S
C228 C231 1.363 1_545 S
N229 C231 1.356 . S
N229 H241 0.984 . S
N229 H242 0.985 . S
N230 C232 1.356 . S
N230 H235 0.984 . S
N230 H236 0.985 . S
C231 C225 1.379 . S
C231 C228 1.363 1_565 S
C231 N229 1.356 . S
C232 C226 1.363 . S
C232 C227 1.379 . S
C232 N230 1.356 . S
N233 C225 1.356 . S
N233 H239 0.984 . S
N233 H240 0.984 . S
N234 C227 1.356 . S
N234 H237 0.984 . S
N234 H238 0.985 . S
H235 N230 0.984 . S
H236 N230 0.985 . S
H237 N234 0.984 . S
H238 N234 0.985 . S
H239 N233 0.984 . S
H240 N233 0.984 . S
H241 N229 0.984 . S
H242 N229 0.985 . S
C243 C244 1.363 . S
C243 C249 1.379 . S
C243 N251 1.356 . S
C244 C243 1.363 . S
C244 C250 1.363 1_556 S
C245 C246 1.363 . S
C245 C250 1.379 . S
C245 N252 1.356 . S
C246 C245 1.363 . S
C246 C249 1.363 1_554 S
N247 C249 1.356 . S
N247 H259 0.984 . S
N247 H260 0.985 . S
N248 C250 1.356 . S
N248 H253 0.984 . S
N248 H254 0.985 . S
C249 C243 1.379 . S
C249 C246 1.363 1_556 S
C249 N247 1.356 . S
C250 C244 1.363 1_554 S
C250 C245 1.379 . S
C250 N248 1.356 . S
N251 C243 1.356 . S
N251 H257 0.984 . S
N251 H258 0.984 . S
N252 C245 1.356 . S
N252 H255 0.984 . S
N252 H256 0.985 . S
H253 N248 0.984 . S
H254 N248 0.985 . S
H255 N252 0.984 . S
H256 N252 0.985 . S
H257 N251 0.984 . S
H258 N251 0.984 . S
H259 N247 0.984 . S
H260 N247 0.985 . S
C261 C262 1.363 1_554 S
C261 C267 1.379 . S
C261 N269 1.356 . S
C262 C261 1.363 1_556 S
C262 C268 1.363 . S
C263 C264 1.363 1_556 S
C263 C268 1.379 . S
C263 N270 1.356 . S
C264 C263 1.363 1_554 S
C264 C267 1.363 . S
N265 C267 1.356 . S
N265 H277 0.984 . S
N265 H278 0.985 . S
N266 C268 1.356 . S
N266 H271 0.984 . S
N266 H272 0.985 . S
C267 C261 1.379 . S
C267 C264 1.363 . S
C267 N265 1.356 . S
C268 C262 1.363 . S
C268 C263 1.379 . S
C268 N266 1.356 . S
N269 C261 1.356 . S
N269 H275 0.984 . S
N269 H276 0.984 . S
N270 C263 1.356 . S
N270 H273 0.984 . S
N270 H274 0.985 . S
H271 N266 0.984 . S
H272 N266 0.985 . S
H273 N270 0.984 . S
H274 N270 0.985 . S
H275 N269 0.984 . S
H276 N269 0.984 . S
H277 N265 0.984 . S
H278 N265 0.985 . S
C279 C280 1.363 . S
C279 C285 1.379 . S
C279 N287 1.356 . S
C280 C279 1.363 . S
C280 C286 1.363 1_556 S
C281 C282 1.363 . S
C281 C286 1.379 . S
C281 N288 1.356 . S
C282 C281 1.363 . S
C282 C285 1.363 1_554 S
N283 C285 1.356 . S
N283 H295 0.984 . S
N283 H296 0.985 . S
N284 C286 1.356 . S
N284 H289 0.984 . S
N284 H290 0.985 . S
C285 C279 1.379 . S
C285 C282 1.363 1_556 S
C285 N283 1.356 . S
C286 C280 1.363 1_554 S
C286 C281 1.379 . S
C286 N284 1.356 . S
N287 C279 1.356 . S
N287 H293 0.984 . S
N287 H294 0.984 . S
N288 C281 1.356 . S
N288 H291 0.984 . S
N288 H292 0.985 . S
H289 N284 0.984 . S
H290 N284 0.985 . S
H291 N288 0.984 . S
H292 N288 0.985 . S
H293 N287 0.984 . S
H294 N287 0.984 . S
H295 N283 0.984 . S
H296 N283 0.985 . S
C297 C298 1.363 1_556 S
C297 C303 1.379 . S
C297 N305 1.356 . S
C298 C297 1.363 1_554 S
C298 C304 1.363 . S
C299 C300 1.363 1_554 S
C299 C304 1.379 . S
C299 N306 1.356 . S
C300 C299 1.363 1_556 S
C300 C303 1.363 . S
N301 C303 1.356 . S
N301 H313 0.984 . S
N301 H314 0.985 . S
N302 C304 1.356 . S
N302 H307 0.984 . S
N302 H308 0.985 . S
C303 C297 1.379 . S
C303 C300 1.363 . S
C303 N301 1.356 . S
C304 C298 1.363 . S
C304 C299 1.379 . S
C304 N302 1.356 . S
N305 C297 1.356 . S
N305 H311 0.984 . S
N305 H312 0.984 . S
N306 C299 1.356 . S
N306 H309 0.984 . S
N306 H310 0.985 . S
H307 N302 0.984 . S
H308 N302 0.985 . S
H309 N306 0.984 . S
H310 N306 0.985 . S
H311 N305 0.984 . S
H312 N305 0.984 . S
H313 N301 0.984 . S
H314 N301 0.985 . S
C100 C87 1.634 . S
C102 C25 1.549 . S
C118 C28 1.276 . S
C120 C56 1.264 . S
C136 C27 1.227 1_455 S
C138 C93 1.240 1_655 S
C154 C58 1.918 . S
C156 C26 1.735 . S
C172 C21 1.549 . S
C174 C91 1.634 . S
C190 C60 1.264 . S
C192 C24 1.276 . S
C208 C89 1.240 1_455 S
C210 C23 1.227 1_655 S
C226 C54 1.918 . S
C228 C22 1.737 . S
C244 C88 2.036 . S
C246 C59 2.150 . S
C262 C94 1.165 . S
C264 C61 1.173 . S
C280 C57 1.174 . S
C282 C90 1.165 . S
C298 C92 2.036 . S
C300 C55 2.151 . S
