# Generated by pormake.
# Topology wfa, (4)-cn, num edge types: 1
# Building blocks:
#     Node 0, Type 0, BuildingBlock: CEKHIL_clean_sbu_0, # of connection points: 4
#     Node 1, Type 0, BuildingBlock: CEKHIL_clean_sbu_0, # of connection points: 4
#     Node 2, Type 0, BuildingBlock: CEKHIL_clean_sbu_0, # of connection points: 4
#     Node 3, Type 0, BuildingBlock: CEKHIL_clean_sbu_0, # of connection points: 4
#     Node 4, Type 0, BuildingBlock: CEKHIL_clean_sbu_0, # of connection points: 4
#     Node 5, Type 0, BuildingBlock: CEKHIL_clean_sbu_0, # of connection points: 4
#     Node 6, Type 0, BuildingBlock: CEKHIL_clean_sbu_0, # of connection points: 4
#     Node 7, Type 0, BuildingBlock: CEKHIL_clean_sbu_0, # of connection points: 4
#     Node 8, Type 0, BuildingBlock: CEKHIL_clean_sbu_0, # of connection points: 4
#     Node 9, Type 0, BuildingBlock: CEKHIL_clean_sbu_0, # of connection points: 4
#     Node 10, Type 0, BuildingBlock: CEKHIL_clean_sbu_0, # of connection points: 4
#     Node 11, Type 0, BuildingBlock: CEKHIL_clean_sbu_0, # of connection points: 4
#     Node 12, Type 0, BuildingBlock: CEKHIL_clean_sbu_0, # of connection points: 4
#     Node 13, Type 0, BuildingBlock: CEKHIL_clean_sbu_0, # of connection points: 4
#     Node 14, Type 0, BuildingBlock: CEKHIL_clean_sbu_0, # of connection points: 4
#     Node 15, Type 0, BuildingBlock: CEKHIL_clean_sbu_0, # of connection points: 4
#     Edge 16, Type (0, 0), BuildingBlock: CIFDUS_clean_linker_0, # of connection points: 2
#     Edge 17, Type (0, 0), BuildingBlock: CIFDUS_clean_linker_0, # of connection points: 2
#     Edge 18, Type (0, 0), BuildingBlock: CIFDUS_clean_linker_0, # of connection points: 2
#     Edge 19, Type (0, 0), BuildingBlock: CIFDUS_clean_linker_0, # of connection points: 2
#     Edge 20, Type (0, 0), BuildingBlock: CIFDUS_clean_linker_0, # of connection points: 2
#     Edge 21, Type (0, 0), BuildingBlock: CIFDUS_clean_linker_0, # of connection points: 2
#     Edge 22, Type (0, 0), BuildingBlock: CIFDUS_clean_linker_0, # of connection points: 2
#     Edge 23, Type (0, 0), BuildingBlock: CIFDUS_clean_linker_0, # of connection points: 2
#     Edge 24, Type (0, 0), BuildingBlock: CIFDUS_clean_linker_0, # of connection points: 2
#     Edge 25, Type (0, 0), BuildingBlock: CIFDUS_clean_linker_0, # of connection points: 2
#     Edge 26, Type (0, 0), BuildingBlock: CIFDUS_clean_linker_0, # of connection points: 2
#     Edge 27, Type (0, 0), BuildingBlock: CIFDUS_clean_linker_0, # of connection points: 2
#     Edge 28, Type (0, 0), BuildingBlock: CIFDUS_clean_linker_0, # of connection points: 2
#     Edge 29, Type (0, 0), BuildingBlock: CIFDUS_clean_linker_0, # of connection points: 2
#     Edge 30, Type (0, 0), BuildingBlock: CIFDUS_clean_linker_0, # of connection points: 2
#     Edge 31, Type (0, 0), BuildingBlock: CIFDUS_clean_linker_0, # of connection points: 2
#     Edge 32, Type (0, 0), BuildingBlock: CIFDUS_clean_linker_0, # of connection points: 2
#     Edge 33, Type (0, 0), BuildingBlock: CIFDUS_clean_linker_0, # of connection points: 2
#     Edge 34, Type (0, 0), BuildingBlock: CIFDUS_clean_linker_0, # of connection points: 2
#     Edge 35, Type (0, 0), BuildingBlock: CIFDUS_clean_linker_0, # of connection points: 2
#     Edge 36, Type (0, 0), BuildingBlock: CIFDUS_clean_linker_0, # of connection points: 2
#     Edge 37, Type (0, 0), BuildingBlock: CIFDUS_clean_linker_0, # of connection points: 2
#     Edge 38, Type (0, 0), BuildingBlock: CIFDUS_clean_linker_0, # of connection points: 2
#     Edge 39, Type (0, 0), BuildingBlock: CIFDUS_clean_linker_0, # of connection points: 2
#     Edge 40, Type (0, 0), BuildingBlock: CIFDUS_clean_linker_0, # of connection points: 2
#     Edge 41, Type (0, 0), BuildingBlock: CIFDUS_clean_linker_0, # of connection points: 2
#     Edge 42, Type (0, 0), BuildingBlock: CIFDUS_clean_linker_0, # of connection points: 2
#     Edge 43, Type (0, 0), BuildingBlock: CIFDUS_clean_linker_0, # of connection points: 2
#     Edge 44, Type (0, 0), BuildingBlock: CIFDUS_clean_linker_0, # of connection points: 2
#     Edge 45, Type (0, 0), BuildingBlock: CIFDUS_clean_linker_0, # of connection points: 2
#     Edge 46, Type (0, 0), BuildingBlock: CIFDUS_clean_linker_0, # of connection points: 2
#     Edge 47, Type (0, 0), BuildingBlock: CIFDUS_clean_linker_0, # of connection points: 2
# Relax obj value: 0.217
# Max RMSD: 0.276
# Mean RMSD: 0.270
data_MOF--net-wfa--node1-CEKHIL_clean_sbu_0--edge1-CIFDUS_clean_linker_0
_symmetry_space_group_name_H-M    P1
_symmetry_Int_Tables_number       1
_symmetry_cell_setting            triclinic
loop_
_symmetry_equiv_pos_as_xyz
'x, y, z'
_cell_length_a     39.833686
_cell_length_b     39.790234
_cell_length_c     20.586389
_cell_angle_alpha  89.728432
_cell_angle_beta   89.670404
_cell_angle_gamma 89.517004
loop_
_atom_site_label
_atom_site_type_symbol
_atom_site_fract_x
_atom_site_fract_y
_atom_site_fract_z
_atom_type_partial_charge
Co0 Co 0.65042 0.98487 0.03461 0.0
O1 O 0.6671 0.95163 0.97482 0.0
O2 O 0.68583 0.00377 0.98089 0.0
C3 C 0.5947 0.97776 0.01897 0.0
O4 O 0.63839 0.02534 0.09046 0.0
Co5 Co 0.60994 0.95673 0.1536 0.0
O6 O 0.60776 0.00521 0.1748 0.0
C7 C 0.68353 0.95708 0.15909 0.0
C8 C 0.68747 0.9744 0.95333 0.0
C9 C 0.62211 0.02911 0.14418 0.0
O10 O 0.68458 0.97094 0.10238 0.0
O11 O 0.65635 0.94663 0.1854 0.0
O12 O 0.61229 0.99553 0.97841 0.0
O13 O 0.61223 0.96065 0.06037 0.0
Co14 Co 0.50944 0.65964 0.02173 0.0
O15 O 0.53626 0.67667 0.95022 0.0
O16 O 0.48935 0.70028 0.98636 0.0
C17 C 0.50851 0.60455 0.9919 0.0
O18 O 0.47488 0.64871 0.0921 0.0
Co19 Co 0.54295 0.60838 0.11776 0.0
O20 O 0.49713 0.60752 0.15491 0.0
C21 C 0.54702 0.68127 0.14389 0.0
C22 C 0.51419 0.70068 0.94504 0.0
C23 C 0.47343 0.62775 0.13984 0.0
O24 O 0.53414 0.68794 0.08789 0.0
O25 O 0.5533 0.65136 0.16373 0.0
O26 O 0.48873 0.62647 0.96468 0.0
O27 O 0.53136 0.61738 0.02846 0.0
Co28 Co 0.84331 0.50902 0.0267 0.0
O29 O 0.82729 0.53927 0.95935 0.0
O30 O 0.80435 0.49051 0.9843 0.0
C31 C 0.89891 0.50931 0.999 0.0
O32 O 0.85293 0.47112 0.09118 0.0
Co33 Co 0.89309 0.53649 0.13061 0.0
O34 O 0.89322 0.48902 0.1593 0.0
C35 C 0.81958 0.54159 0.15355 0.0
C36 C 0.80459 0.51703 0.94706 0.0
C37 C 0.87299 0.46676 0.13929 0.0
O38 O 0.81355 0.53084 0.0957 0.0
O39 O 0.84922 0.54643 0.17509 0.0
O40 O 0.87774 0.49088 0.96789 0.0
O41 O 0.88524 0.53027 0.0393 0.0
Co42 Co 1.00028 0.84799 0.00621 0.0
O43 O 0.97341 0.83014 0.93644 0.0
O44 O 0.02296 0.81007 0.96564 0.0
C45 C 0.99727 0.90354 0.98005 0.0
O46 O 0.03476 0.86047 0.07442 0.0
Co47 Co 0.96252 0.89384 0.10677 0.0
O48 O 0.00812 0.89547 0.14455 0.0
C49 C 0.96071 0.82066 0.12421 0.0
C50 C 0.9975 0.80862 0.92637 0.0
C51 C 0.0339 0.87888 0.12567 0.0
O52 O 0.97924 0.81691 0.07315 0.0
O53 O 0.94875 0.84902 0.14255 0.0
O54 O 0.01755 0.88339 0.94937 0.0
O55 O 0.97568 0.88849 0.01707 0.0
Co56 Co 0.15507 0.01605 0.47995 0.0
O57 O 0.17121 0.03972 0.55484 0.0
O58 O 0.19201 0.99145 0.51933 0.0
C59 C 0.09937 0.0194 0.50213 0.0
O60 O 0.14394 0.98488 0.40509 0.0
Co61 Co 0.11226 0.059 0.38239 0.0
O62 O 0.11365 0.01605 0.33386 0.0
C63 C 0.18558 0.05951 0.37062 0.0
C64 C 0.19274 0.01543 0.56218 0.0
C65 C 0.12867 0.98894 0.35059 0.0
O66 O 0.18783 0.03929 0.4195 0.0
O67 O 0.15797 0.07291 0.35191 0.0
O68 O 0.11807 0.99702 0.53077 0.0
O69 O 0.11576 0.04196 0.46992 0.0
Co70 Co 0.49069 0.15845 0.50394 0.0
O71 O 0.46102 0.17741 0.56966 0.0
O72 O 0.51177 0.19606 0.54633 0.0
C73 C 0.48649 0.10307 0.53149 0.0
O74 O 0.52854 0.14504 0.44198 0.0
Co75 Co 0.45993 0.11087 0.39925 0.0
O76 O 0.50718 0.10834 0.36995 0.0
C77 C 0.46059 0.18426 0.37583 0.0
C78 C 0.48495 0.19828 0.58245 0.0
C79 C 0.53123 0.12565 0.39234 0.0
O80 O 0.47215 0.18946 0.43337 0.0
O81 O 0.45314 0.15513 0.35451 0.0
O82 O 0.50543 0.12318 0.5641 0.0
O83 O 0.46668 0.11804 0.49074 0.0
Co84 Co 0.34599 0.48761 0.48843 0.0
O85 O 0.32813 0.46222 0.56127 0.0
O86 O 0.30878 0.51162 0.52879 0.0
C87 C 0.40173 0.48293 0.51232 0.0
O88 O 0.35826 0.5211 0.41702 0.0
Co89 Co 0.39175 0.44933 0.38805 0.0
O90 O 0.39305 0.49432 0.34675 0.0
C91 C 0.3181 0.45146 0.36934 0.0
C92 C 0.30683 0.48668 0.56979 0.0
C93 C 0.37628 0.52007 0.36492 0.0
O94 O 0.31376 0.466 0.42475 0.0
O95 O 0.3468 0.44166 0.34815 0.0
O96 O 0.38283 0.50484 0.54183 0.0
O97 O 0.38551 0.46161 0.47759 0.0
Co98 Co 0.01068 0.34618 0.4862 0.0
O99 O 0.03984 0.33427 0.55747 0.0
O100 O 0.99328 0.30732 0.53344 0.0
C101 C 0.00838 0.40255 0.50653 0.0
O102 O 0.97465 0.35275 0.41727 0.0
Co103 Co 0.04253 0.39293 0.37959 0.0
O104 O 0.99726 0.38762 0.34189 0.0
C105 C 0.05018 0.31945 0.36746 0.0
C106 C 0.01881 0.31078 0.57206 0.0
C107 C 0.97361 0.36905 0.36308 0.0
O108 O 0.03464 0.31511 0.42211 0.0
O109 O 0.05793 0.34836 0.34475 0.0
O110 O 0.98983 0.38171 0.53903 0.0
O111 O 0.03074 0.38829 0.46994 0.0
Co112 Co 0.34386 0.01634 0.98812 0.0
O113 O 0.32494 0.04592 0.05309 0.0
O114 O 0.30857 0.99375 0.03573 0.0
C115 C 0.39896 0.0245 0.00963 0.0
O116 O 0.35818 0.97854 0.92736 0.0
Co117 Co 0.38714 0.04868 0.87687 0.0
O118 O 0.39204 1.00113 0.85051 0.0
C119 C 0.31356 0.04565 0.863 0.0
C120 C 0.30576 0.02111 0.06982 0.0
C121 C 0.37673 0.97634 0.87618 0.0
O122 O 0.31052 0.03224 0.91988 0.0
O123 O 0.34151 0.05525 0.83873 0.0
O124 O 0.38114 0.00444 0.04544 0.0
O125 O 0.38185 0.0427 0.96926 0.0
Co126 Co 0.49007 0.34888 0.99533 0.0
O127 O 0.46372 0.33086 0.0665 0.0
O128 O 0.51206 0.30956 0.0321 0.0
C129 C 0.48846 0.40412 0.02341 0.0
O130 O 0.52414 0.36149 0.92565 0.0
Co131 Co 0.45238 0.39617 0.89795 0.0
O132 O 0.49753 0.39733 0.85714 0.0
C133 C 0.4495 0.3234 0.87796 0.0
C134 C 0.48705 0.30818 0.07298 0.0
C135 C 0.52319 0.38024 0.8746 0.0
O136 O 0.46774 0.31898 0.92886 0.0
O137 O 0.43815 0.35214 0.86014 0.0
O138 O 0.50873 0.38317 0.05205 0.0
O139 O 0.46619 0.39002 0.98715 0.0
Co140 Co 0.15503 0.49217 0.99341 0.0
O141 O 0.17235 0.46217 0.05978 0.0
O142 O 0.19439 0.51129 0.03343 0.0
C143 C 0.09973 0.49041 0.02186 0.0
O144 O 0.14323 0.53 0.93033 0.0
Co145 Co 0.10695 0.46205 0.88974 0.0
O146 O 0.10508 0.50943 0.86039 0.0
C147 C 0.17997 0.45808 0.86754 0.0
C148 C 0.19525 0.48448 0.06987 0.0
C149 C 0.12336 0.53307 0.88157 0.0
O150 O 0.18501 0.47179 0.92323 0.0
O151 O 0.15083 0.45077 0.84635 0.0
O152 O 0.12062 0.50902 0.05345 0.0
O153 O 0.11377 0.46979 0.9813 0.0
Co154 Co 0.01493 0.15697 0.98954 0.0
O155 O 0.04355 0.17783 0.05348 0.0
O156 O 0.99312 0.19638 0.02697 0.0
C157 C 0.01913 0.10261 0.02549 0.0
O158 O 0.97868 0.1414 0.92757 0.0
Co159 Co 0.04952 0.10436 0.89614 0.0
O160 O 0.00346 0.10366 0.86025 0.0
C161 C 0.04791 0.17635 0.85918 0.0
C162 C 0.01935 0.19912 0.06403 0.0
C163 C 0.97834 0.12143 0.87855 0.0
O164 O 0.0338 0.18477 0.91369 0.0
O165 O 0.05901 0.14669 0.8476 0.0
O166 O 0.99935 0.1239 0.0543 0.0
O167 O 0.03942 0.11616 0.98413 0.0
Co168 Co 0.85004 0.9836 0.52939 0.0
O169 O 0.83001 0.94992 0.47575 0.0
O170 O 0.81494 0.00371 0.47658 0.0
C171 C 0.90474 0.97177 0.50997 0.0
O172 O 0.86598 0.02459 0.57882 0.0
Co173 Co 0.8907 0.95558 0.64793 0.0
O174 O 0.89873 0.00426 0.65979 0.0
C175 C 0.81764 0.96151 0.65897 0.0
C176 C 0.81091 0.97368 0.45313 0.0
C177 C 0.88501 0.02844 0.62852 0.0
O178 O 0.8166 0.97492 0.60193 0.0
O179 O 0.84433 0.9489 0.68371 0.0
O180 O 0.8874 0.9893 0.46855 0.0
O181 O 0.88708 0.95718 0.55465 0.0
Co182 Co 0.51075 0.8488 0.51486 0.0
O183 O 0.54087 0.8304 0.44951 0.0
O184 O 0.49156 0.80908 0.47633 0.0
C185 C 0.51276 0.90398 0.48512 0.0
O186 O 0.47262 0.86146 0.57667 0.0
Co187 Co 0.5399 0.89851 0.61728 0.0
O188 O 0.4923 0.90118 0.64438 0.0
C189 C 0.54186 0.82559 0.64406 0.0
C190 C 0.51848 0.80742 0.44037 0.0
C191 C 0.46899 0.88234 0.62376 0.0
O192 O 0.5308 0.8195 0.58652 0.0
O193 O 0.54811 0.85518 0.66448 0.0
O194 O 0.49436 0.88293 0.45338 0.0
O195 O 0.53316 0.89007 0.52609 0.0
Co196 Co 0.65397 0.52202 0.53562 0.0
O197 O 0.67181 0.54619 0.46137 0.0
O198 O 0.69072 0.49695 0.49625 0.0
C199 C 0.5982 0.52741 0.51405 0.0
O200 O 0.64122 0.48991 0.60858 0.0
Co201 Co 0.61216 0.56431 0.6356 0.0
O202 O 0.61148 0.52042 0.68168 0.0
C203 C 0.68533 0.56183 0.64835 0.0
C204 C 0.69298 0.52151 0.45445 0.0
C205 C 0.62565 0.49321 0.66315 0.0
O206 O 0.6872 0.54296 0.59769 0.0
O207 O 0.65801 0.57544 0.66835 0.0
O208 O 0.61646 0.50511 0.48408 0.0
O209 O 0.61519 0.54899 0.54689 0.0
Co210 Co 1.00034 0.65851 0.50362 0.0
O211 O 0.97144 0.67839 0.43843 0.0
O212 O 0.02259 0.69578 0.46101 0.0
C213 C 0.9946 0.60359 0.47568 0.0
O214 O 0.03717 0.64361 0.56569 0.0
Co215 Co 0.96604 0.61276 0.6081 0.0
O216 O 0.01295 0.6086 0.63869 0.0
C217 C 0.96553 0.68583 0.62729 0.0
C218 C 0.99588 0.69869 0.4252 0.0
C219 C 0.0382 0.62443 0.61612 0.0
O220 O 0.98254 0.68963 0.57427 0.0
O221 O 0.95406 0.65755 0.6466 0.0
O222 O 0.01442 0.62328 0.44333 0.0
O223 O 0.97503 0.61893 0.51658 0.0
H224 H 0.54277 0.14212 0.26846 0.0
H225 H 0.58963 0.09932 0.43802 0.0
H226 H 0.63159 0.07122 0.36939 0.0
H227 H 0.64273 0.04635 0.26241 0.0
H228 H 0.5915 0.08455 0.09356 0.0
H229 H 0.5641 0.12793 0.15972 0.0
C230 C 0.56326 0.12796 0.29022 0.0
C231 C 0.56324 0.12231 0.35764 0.0
C232 C 0.58601 0.11064 0.25023 0.0
C233 C 0.58951 0.10399 0.38611 0.0
C234 C 0.61313 0.08759 0.34677 0.0
C235 C 0.62682 0.06532 0.23985 0.0
C236 C 0.61864 0.06234 0.17384 0.0
C237 C 0.60996 0.08882 0.27883 0.0
C238 C 0.59811 0.08667 0.14436 0.0
C239 C 0.58211 0.11108 0.18242 0.0
H240 H 0.40286 0.5817 0.38453 0.0
H241 H 0.35228 0.521 0.24359 0.0
H242 H 0.37128 0.5577 0.15597 0.0
H243 H 0.41503 0.59647 0.11898 0.0
H244 H 0.46882 0.65474 0.25901 0.0
H245 H 0.43533 0.6308 0.34727 0.0
C246 C 0.39474 0.57766 0.33497 0.0
C247 C 0.37662 0.54873 0.31995 0.0
C248 C 0.4069 0.59823 0.28448 0.0
C249 C 0.36642 0.5432 0.25574 0.0
C250 C 0.37749 0.56402 0.20561 0.0
C251 C 0.41792 0.60527 0.16844 0.0
C252 C 0.44416 0.62708 0.183 0.0
C253 C 0.39961 0.59019 0.21903 0.0
C254 C 0.44845 0.63802 0.24714 0.0
C255 C 0.42965 0.62395 0.29766 0.0
H256 H 0.90329 0.40707 0.11673 0.0
H257 H 0.84098 0.46039 0.25362 0.0
H258 H 0.86156 0.42499 0.34214 0.0
H259 H 0.91026 0.39238 0.38204 0.0
H260 H 0.97442 0.34153 0.24449 0.0
H261 H 0.93953 0.3609 0.15499 0.0
C262 C 0.89279 0.40942 0.16528 0.0
C263 C 0.87114 0.43633 0.1793 0.0
C264 C 0.90573 0.38972 0.21622 0.0
C265 C 0.85781 0.4397 0.24224 0.0
C266 C 0.86991 0.41974 0.29299 0.0
C267 C 0.91527 0.38397 0.33284 0.0
C268 C 0.94487 0.36599 0.31943 0.0
C269 C 0.89586 0.39655 0.28118 0.0
C270 C 0.9516 0.35539 0.25562 0.0
C271 C 0.93193 0.3669 0.20426 0.0
H272 H 0.08898 0.91553 0.10242 0.0
H273 H 0.04216 0.85082 0.24364 0.0
H274 H 0.07572 0.87528 0.33015 0.0
H275 H 0.10604 0.92535 0.36753 0.0
H276 H 0.14882 0.9929 0.22611 0.0
H277 H 0.13024 0.95692 0.13787 0.0
C278 C 0.08765 0.90563 0.15158 0.0
C279 C 0.06342 0.88161 0.16714 0.0
C280 C 0.10576 0.92105 0.20138 0.0
C281 C 0.06104 0.86924 0.23098 0.0
C282 C 0.07986 0.88356 0.28053 0.0
C283 C 0.11251 0.93122 0.3175 0.0
C284 C 0.12817 0.96173 0.30278 0.0
C285 C 0.10052 0.91107 0.26687 0.0
C286 C 0.13635 0.96953 0.238 0.0
C287 C 0.1256 0.94909 0.1876 0.0
H288 H 0.35845 0.96196 0.75501 0.0
H289 H 0.40732 0.92014 0.92332 0.0
H290 H 0.43484 0.87752 0.85544 0.0
H291 H 0.45654 0.86426 0.74643 0.0
H292 H 0.41145 0.91013 0.57805 0.0
H293 H 0.3698 0.93836 0.64713 0.0
C294 C 0.37386 0.94242 0.77696 0.0
C295 C 0.38127 0.94403 0.84347 0.0
C296 C 0.39055 0.91915 0.73723 0.0
C297 C 0.4013 0.91903 0.87212 0.0
C298 C 0.41731 0.89501 0.83315 0.0
C299 C 0.43642 0.87907 0.72496 0.0
C300 C 0.43683 0.88546 0.65781 0.0
C301 C 0.41386 0.89645 0.76529 0.0
C302 C 0.41118 0.9048 0.62972 0.0
C303 C 0.38777 0.92131 0.66934 0.0
H304 H 0.6 0.43187 0.63888 0.0
H305 H 0.64443 0.49205 0.78839 0.0
H306 H 0.62319 0.45393 0.87203 0.0
H307 H 0.57972 0.41332 0.90205 0.0
H308 H 0.53056 0.35699 0.75279 0.0
H309 H 0.56636 0.38261 0.66975 0.0
C310 C 0.60618 0.43561 0.68959 0.0
C311 C 0.62319 0.46466 0.70806 0.0
C312 C 0.59251 0.41444 0.73753 0.0
C313 C 0.63097 0.4698 0.77368 0.0
C314 C 0.61869 0.44816 0.82144 0.0
C315 C 0.57825 0.40547 0.85173 0.0
C316 C 0.55284 0.38354 0.833 0.0
C317 C 0.5976 0.42173 0.80412 0.0
C318 C 0.55029 0.37382 0.76777 0.0
C319 C 0.57044 0.38878 0.72031 0.0
H320 H 0.04968 0.64423 0.73755 0.0
H321 H 0.09487 0.5923 0.57578 0.0
H322 H 0.1347 0.56446 0.64903 0.0
H323 H 0.14418 0.54358 0.75987 0.0
H324 H 0.09501 0.59164 0.9218 0.0
H325 H 0.06973 0.63321 0.84837 0.0
C326 C 0.0694 0.62804 0.71832 0.0
C327 C 0.06952 0.61993 0.652 0.0
C328 C 0.09095 0.61108 0.7611 0.0
C329 C 0.09471 0.5989 0.6268 0.0
C330 C 0.11709 0.58269 0.66881 0.0
C331 C 0.12934 0.56428 0.77914 0.0
C332 C 0.1212 0.56479 0.8456 0.0
C333 C 0.11377 0.58687 0.73629 0.0
C334 C 0.10169 0.59118 0.87071 0.0
C335 C 0.08691 0.61457 0.82859 0.0
H336 H 0.97506 0.13135 0.75057 0.0
H337 H 0.91523 0.10388 0.91714 0.0
H338 H 0.87271 0.07987 0.84567 0.0
H339 H 0.86197 0.05347 0.74013 0.0
H340 H 0.92553 0.07581 0.576 0.0
H341 H 0.95675 0.11616 0.64109 0.0
C342 C 0.95199 0.12125 0.77078 0.0
C343 C 0.94819 0.11871 0.83853 0.0
C344 C 0.92865 0.10635 0.72961 0.0
C345 C 0.91843 0.10594 0.86498 0.0
C346 C 0.8944 0.09195 0.82412 0.0
C347 C 0.88152 0.06862 0.71801 0.0
C348 C 0.89168 0.06196 0.65386 0.0
C349 C 0.90045 0.09009 0.75687 0.0
C350 C 0.9172 0.08104 0.62517 0.0
C351 C 0.93536 0.10361 0.66275 0.0
H352 H 0.71093 0.01662 0.8593 0.0
H353 H 0.71653 0.91412 0.92737 0.0
H354 H 0.75594 0.90006 0.84002 0.0
H355 H 0.79087 0.91759 0.74659 0.0
H356 H 0.78141 0.01874 0.67273 0.0
H357 H 0.74138 0.03259 0.75914 0.0
C358 C 0.72091 0.99128 0.85494 0.0
C359 C 0.71134 0.96658 0.9002 0.0
C360 C 0.74267 0.98306 0.80316 0.0
C361 C 0.72378 0.93362 0.89329 0.0
C362 C 0.74626 0.92553 0.84331 0.0
C363 C 0.77943 0.9424 0.74878 0.0
C364 C 0.78879 0.96699 0.70315 0.0
C365 C 0.75604 0.95008 0.79813 0.0
C366 C 0.77404 0.99917 0.70659 0.0
C367 C 0.75146 0.00724 0.75646 0.0
H368 H 0.51813 0.82978 0.76586 0.0
H369 H 0.56335 0.75981 0.63159 0.0
H370 H 0.56003 0.71503 0.71423 0.0
H371 H 0.54321 0.69589 0.82487 0.0
H372 H 0.49246 0.76539 0.953 0.0
H373 H 0.49886 0.81033 0.87258 0.0
C374 C 0.5277 0.8048 0.75493 0.0
C375 C 0.54175 0.79824 0.69328 0.0
C376 C 0.52442 0.77913 0.80152 0.0
C377 C 0.5529 0.76553 0.67899 0.0
C378 C 0.55089 0.73998 0.72618 0.0
C379 C 0.53364 0.72093 0.83507 0.0
C380 C 0.51757 0.72742 0.89504 0.0
C381 C 0.53657 0.74648 0.78762 0.0
C382 C 0.50483 0.75978 0.90728 0.0
C383 C 0.5086 0.78549 0.86139 0.0
H384 H 0.78937 0.57401 0.87765 0.0
H385 H 0.76889 0.46779 0.88863 0.0
H386 H 0.7337 0.47212 0.79222 0.0
H387 H 0.70748 0.50604 0.70639 0.0
H388 H 0.72217 0.61307 0.70097 0.0
H389 H 0.76142 0.60858 0.79258 0.0
C390 C 0.77717 0.55184 0.85891 0.0
C391 C 0.7818 0.52058 0.89044 0.0
C392 C 0.75636 0.55463 0.80383 0.0
C393 C 0.76562 0.49216 0.86574 0.0
C394 C 0.74565 0.49457 0.81029 0.0
C395 C 0.71998 0.52825 0.72435 0.0
C396 C 0.71298 0.5597 0.69578 0.0
C397 C 0.74088 0.52561 0.77894 0.0
C398 C 0.72797 0.58854 0.7212 0.0
C399 C 0.75009 0.58595 0.77392 0.0
H400 H 0.94358 0.79165 0.85206 0.0
H401 H 0.04969 0.77263 0.87477 0.0
H402 H 0.0494 0.73581 0.78011 0.0
H403 H 0.01894 0.70798 0.69194 0.0
H404 H 0.91217 0.72248 0.67428 0.0
H405 H 0.91268 0.76249 0.76499 0.0
C406 C 0.96664 0.77943 0.8363 0.0
C407 C 0.99666 0.78497 0.8706 0.0
C408 C 0.96618 0.75781 0.78216 0.0
C409 C 0.02623 0.76873 0.84967 0.0
C410 C 0.02612 0.74779 0.79524 0.0
C411 C 0.99593 0.72051 0.70727 0.0
C412 C 0.9657 0.71323 0.6755 0.0
C413 C 0.9963 0.74218 0.76108 0.0
C414 C 0.9358 0.72842 0.69716 0.0
C415 C 0.93611 0.75102 0.7493 0.0
H416 H 0.19248 0.05665 0.66753 0.0
H417 H 0.24709 0.97421 0.57985 0.0
H418 H 0.28817 0.97572 0.66752 0.0
H419 H 0.30986 1.00193 0.76632 0.0
H420 H 0.25549 0.08344 0.85623 0.0
H421 H 0.21265 0.08084 0.7706 0.0
C422 C 0.21333 0.03896 0.66767 0.0
C423 C 0.21687 0.0155 0.6168 0.0
C424 C 0.23675 0.03983 0.71859 0.0
C425 C 0.24382 0.99254 0.61815 0.0
C426 C 0.26733 0.99341 0.66826 0.0
C427 C 0.28838 0.01887 0.76731 0.0
C428 C 0.28557 0.04283 0.81702 0.0
C429 C 0.26418 0.01711 0.71827 0.0
C430 C 0.25786 0.06472 0.81842 0.0
C431 C 0.23359 0.06329 0.76937 0.0
H432 H 0.42872 0.22257 0.64464 0.0
H433 H 0.53695 0.22573 0.64757 0.0
H434 H 0.53505 0.26126 0.74382 0.0
H435 H 0.50298 0.29267 0.82575 0.0
H436 H 0.39505 0.29577 0.81697 0.0
H437 H 0.39626 0.25624 0.72537 0.0
C438 C 0.45184 0.23111 0.66638 0.0
C439 C 0.48297 0.22146 0.63883 0.0
C440 C 0.45056 0.25232 0.72123 0.0
C441 C 0.51269 0.23294 0.66732 0.0
C442 C 0.51164 0.25311 0.72271 0.0
C443 C 0.4797 0.28404 0.80464 0.0
C444 C 0.4489 0.29616 0.82926 0.0
C445 C 0.48077 0.26293 0.75008 0.0
C446 C 0.41897 0.28607 0.79975 0.0
C447 C 0.41974 0.26375 0.74709 0.0
H448 H 0.29634 0.43705 0.66036 0.0
H449 H 0.26126 0.53552 0.60175 0.0
H450 H 0.22038 0.53554 0.69057 0.0
H451 H 0.19376 0.5074 0.78385 0.0
H452 H 0.22703 0.4087 0.8423 0.0
H453 H 0.26971 0.40891 0.75519 0.0
C454 C 0.27978 0.45853 0.66704 0.0
C455 C 0.28192 0.48626 0.62408 0.0
C456 C 0.25614 0.45835 0.71843 0.0
C457 C 0.2602 0.51384 0.63369 0.0
C458 C 0.23681 0.5139 0.68463 0.0
C459 C 0.21059 0.48607 0.77762 0.0
C460 C 0.20763 0.45819 0.8194 0.0
C461 C 0.23451 0.48632 0.72713 0.0
C462 C 0.22921 0.43052 0.81096 0.0
C463 C 0.25342 0.43066 0.76102 0.0
H464 H 0.02131 0.24285 0.58398 0.0
H465 H 0.02753 0.33409 0.69436 0.0
H466 H 0.03696 0.3016 0.79434 0.0
H467 H 0.04367 0.24628 0.85087 0.0
H468 H 0.04306 0.15611 0.73469 0.0
H469 H 0.03172 0.18876 0.63801 0.0
C470 C 0.0245 0.2555 0.63008 0.0
C471 C 0.02321 0.29066 0.63217 0.0
C472 C 0.03139 0.23673 0.68677 0.0
C473 C 0.02818 0.3069 0.69186 0.0
C474 C 0.03367 0.28834 0.749 0.0
C475 C 0.04148 0.23391 0.8043 0.0
C476 C 0.04472 0.19866 0.80083 0.0
C477 C 0.03551 0.25309 0.74721 0.0
C478 C 0.0415 0.18317 0.73957 0.0
C479 C 0.03461 0.20181 0.68372 0.0
H480 H 0.21453 0.0051 0.31947 0.0
H481 H 0.21577 0.11323 0.31049 0.0
H482 H 0.25425 0.11086 0.21674 0.0
H483 H 0.28473 0.07754 0.13354 0.0
H484 H 0.27754 0.96938 0.13693 0.0
H485 H 0.24366 0.97214 0.23601 0.0
C486 C 0.22403 0.02814 0.29805 0.0
C487 C 0.21338 0.05933 0.32299 0.0
C488 C 0.24436 0.02647 0.24223 0.0
C489 C 0.22445 0.08902 0.29304 0.0
C490 C 0.24608 0.08759 0.2391 0.0
C491 C 0.27572 0.0546 0.15601 0.0
C492 C 0.28365 0.02327 0.12783 0.0
C493 C 0.2557 0.05642 0.21254 0.0
C494 C 0.27161 0.99379 0.15727 0.0
C495 C 0.25243 0.99534 0.21422 0.0
H496 H 0.48832 0.181 0.25748 0.0
H497 H 0.43654 0.24933 0.386 0.0
H498 H 0.43924 0.2937 0.30232 0.0
H499 H 0.45648 0.31261 0.19174 0.0
H500 H 0.51327 0.24496 0.06933 0.0
H501 H 0.50864 0.20066 0.15154 0.0
C502 C 0.4774 0.20559 0.26699 0.0
C503 C 0.4616 0.21179 0.32717 0.0
C504 C 0.48013 0.23101 0.21979 0.0
C505 C 0.44848 0.24395 0.33976 0.0
C506 C 0.45007 0.26923 0.29194 0.0
C507 C 0.46778 0.28813 0.18319 0.0
C508 C 0.48495 0.28193 0.12422 0.0
C509 C 0.4658 0.263 0.23165 0.0
C510 C 0.49996 0.25033 0.11419 0.0
C511 C 0.49723 0.22498 0.16111 0.0
H512 H 0.32389 0.46786 0.24376 0.0
H513 H 0.25032 0.43931 0.38752 0.0
H514 H 0.20563 0.44531 0.30594 0.0
H515 H 0.18773 0.46039 0.1934 0.0
H516 H 0.2616 0.4969 0.05701 0.0
H517 H 0.30611 0.48656 0.13623 0.0
C518 C 0.29809 0.46268 0.25727 0.0
C519 C 0.29048 0.45248 0.32126 0.0
C520 C 0.27267 0.468 0.21143 0.0
C521 C 0.25684 0.44671 0.33838 0.0
C522 C 0.23135 0.4503 0.2918 0.0
C523 C 0.21363 0.466 0.1813 0.0
C524 C 0.22156 0.47913 0.11935 0.0
C525 C 0.23897 0.46118 0.22819 0.0
C526 C 0.255 0.48685 0.10436 0.0
C527 C 0.28041 0.48081 0.14952 0.0
H528 H 0.07386 0.21812 0.13548 0.0
H529 H 0.96668 0.23243 0.1203 0.0
H530 H 0.96671 0.26693 0.21818 0.0
H531 H 0.99706 0.29369 0.30769 0.0
H532 H 0.10472 0.28565 0.31646 0.0
H533 H 0.10472 0.24721 0.22314 0.0
C534 C 0.05053 0.22893 0.15342 0.0
C535 C 0.02027 0.22263 0.12025 0.0
C536 C 0.0508 0.24927 0.20953 0.0
C537 C 0.99034 0.23699 0.14425 0.0
C538 C 0.99029 0.25652 0.20066 0.0
C539 C 0.02044 0.28296 0.28977 0.0
C540 C 0.05077 0.29157 0.32002 0.0
C541 C 0.02031 0.2627 0.23385 0.0
C542 C 0.08103 0.27855 0.29512 0.0
C543 C 0.081 0.25695 0.24128 0.0
H544 H 0.69613 0.9222 0.27075 0.0
H545 H 0.73809 0.99762 0.14334 0.0
H546 H 0.78052 0.01055 0.22426 0.0
H547 H 0.80326 0.00343 0.33519 0.0
H548 H 0.7635 0.92577 0.45932 0.0
H549 H 0.72227 0.91119 0.37652 0.0
C550 C 0.71491 0.94104 0.26011 0.0
C551 C 0.71367 0.95899 0.20104 0.0
C552 C 0.73916 0.94857 0.30706 0.0
C553 C 0.73844 0.98319 0.1881 0.0
C554 C 0.76254 0.99095 0.23475 0.0
C555 C 0.78536 0.9835 0.34391 0.0
C556 C 0.78567 0.96616 0.40346 0.0
C557 C 0.76257 0.97445 0.29511 0.0
C558 C 0.76321 0.93969 0.41395 0.0
C559 C 0.73982 0.93125 0.36657 0.0
H560 H 0.54704 0.81195 0.3197 0.0
H561 H 0.50104 0.7421 0.45319 0.0
H562 H 0.50942 0.69649 0.37539 0.0
H563 H 0.52803 0.67678 0.26873 0.0
H564 H 0.56683 0.74714 0.128 0.0
H565 H 0.5635 0.79227 0.20918 0.0
C566 C 0.53904 0.78667 0.33162 0.0
C567 C 0.52364 0.78026 0.39226 0.0
C568 C 0.54282 0.76074 0.28546 0.0
C569 C 0.51285 0.74759 0.40685 0.0
C570 C 0.51775 0.72152 0.36247 0.0
C571 C 0.53626 0.7019 0.25603 0.0
C572 C 0.54841 0.70848 0.19288 0.0
C573 C 0.53255 0.72783 0.30163 0.0
C574 C 0.5579 0.74137 0.17655 0.0
C575 C 0.55581 0.76715 0.22288 0.0
H576 H 0.68934 0.54928 0.33288 0.0
H577 H 0.75599 0.49553 0.46186 0.0
H578 H 0.80126 0.49939 0.38157 0.0
H579 H 0.82207 0.51822 0.27567 0.0
H580 H 0.75466 0.56558 0.13959 0.0
H581 H 0.70945 0.56444 0.22169 0.0
C582 C 0.71379 0.53837 0.34315 0.0
C583 C 0.71942 0.5223 0.40345 0.0
C584 C 0.73952 0.53982 0.29573 0.0
C585 C 0.75102 0.50788 0.41586 0.0
C586 C 0.77695 0.51025 0.37008 0.0
C587 C 0.79752 0.52851 0.26401 0.0
C588 C 0.79187 0.54262 0.20209 0.0
C589 C 0.77152 0.52627 0.31011 0.0
C590 C 0.75971 0.55501 0.18715 0.0
C591 C 0.73391 0.55423 0.23404 0.0
H592 H 0.01466 0.79423 0.18171 0.0
H593 H 0.90678 0.78884 0.18011 0.0
H594 H 0.90812 0.74984 0.27318 0.0
H595 H 0.94035 0.71924 0.35789 0.0
H596 H 0.04797 0.73015 0.3649 0.0
H597 H 0.04644 0.7655 0.26765 0.0
C598 C 0.99151 0.78383 0.20093 0.0
C599 C 0.96071 0.79336 0.17303 0.0
C600 C 0.99249 0.76304 0.25625 0.0
C601 C 0.93076 0.78106 0.19991 0.0
C602 C 0.93158 0.75909 0.25342 0.0
C603 C 0.96344 0.72943 0.33817 0.0
C604 C 0.99427 0.72202 0.36873 0.0
C605 C 0.96231 0.75026 0.28258 0.0
C606 C 0.02392 0.7356 0.34275 0.0
C607 C 0.02309 0.75564 0.28682 0.0
H608 H 0.43877 0.9815 0.07828 0.0
H609 H 0.44251 0.05977 0.93267 0.0
H610 H 0.50318 0.05154 0.92163 0.0
H611 H 0.55502 0.02157 0.95217 0.0
H612 H 0.55142 0.94358 0.09832 0.0
H613 H 0.49077 0.95206 0.10994 0.0
C614 C 0.45287 0.99694 0.04441 0.0
C615 C 0.43607 0.02128 0.00639 0.0
C616 C 0.48773 0.99189 0.03801 0.0
C617 C 0.45476 0.04093 0.96261 0.0
C618 C 0.48946 0.03615 0.95612 0.0
C619 C 0.54096 0.00627 0.98635 0.0
C620 C 0.55773 0.98178 0.02404 0.0
C621 C 0.50616 0.01154 0.99322 0.0
C622 C 0.53914 0.96245 0.06851 0.0
C623 C 0.50446 0.96738 0.0753 0.0
H624 H 0.45899 0.45473 0.95114 0.0
H625 H 0.532 0.43659 0.10159 0.0
H626 H 0.54544 0.49615 0.10399 0.0
H627 H 0.53713 0.55377 0.06317 0.0
H628 H 0.46388 0.57269 0.91372 0.0
H629 H 0.45023 0.51295 0.91087 0.0
C630 C 0.47764 0.46387 0.98473 0.0
C631 C 0.49435 0.44103 0.02618 0.0
C632 C 0.48552 0.49846 0.98575 0.0
C633 C 0.51865 0.45343 0.06908 0.0
C634 C 0.52649 0.4876 0.07046 0.0
C635 C 0.5183 0.54484 0.02975 0.0
C636 C 0.5017 0.56782 0.98859 0.0
C637 C 0.51025 0.51037 0.02882 0.0
C638 C 0.47717 0.55565 0.94592 0.0
C639 C 0.46925 0.52141 0.94434 0.0
H640 H 0.94896 0.53597 0.07324 0.0
H641 H 0.93189 0.46798 0.91449 0.0
H642 H 0.99189 0.45531 0.90811 0.0
H643 H 0.04973 0.46334 0.94764 0.0
H644 H 0.06657 0.53123 0.1067 0.0
H645 H 0.00662 0.54377 0.11308 0.0
C646 C 0.95837 0.5185 0.03709 0.0
C647 C 0.9358 0.50307 0.99434 0.0
C648 C 0.99306 0.51105 0.03391 0.0
C649 C 0.94857 0.48032 0.94803 0.0
C650 C 0.98297 0.47296 0.94437 0.0
C651 C 0.04025 0.48072 0.98391 0.0
C652 C 0.06278 0.49621 0.02667 0.0
C653 C 0.00552 0.48807 0.98717 0.0
C654 C 0.04994 0.51885 0.07312 0.0
C655 C 0.01556 0.52614 0.07679 0.0
H656 H 0.04653 0.05345 0.94922 0.0
H657 H 0.97705 0.06879 0.10789 0.0
H658 H 0.96307 0.00903 0.10736 0.0
H659 H 0.96998 0.95203 0.06029 0.0
H660 H 0.03884 0.93803 0.89989 0.0
H661 H 0.05305 0.99738 0.90202 0.0
C662 C 0.02843 0.04379 0.98392 0.0
C663 C 0.01295 0.06574 0.02855 0.0
C664 C 0.02002 0.00948 0.98255 0.0
C665 C 0.98949 0.05254 0.07304 0.0
C666 C 0.98133 0.01833 0.07258 0.0
C667 C 0.98787 0.96205 0.02552 0.0
C668 C 0.0032 0.94044 0.97989 0.0
C669 C 0.99621 0.99652 0.02715 0.0
C670 C 0.02656 0.95393 0.93555 0.0
C671 C 0.03485 0.98795 0.9368 0.0
H672 H 0.06077 0.97317 0.56438 0.0
H673 H 0.05498 0.05707 0.43116 0.0
H674 H 0.99459 0.04864 0.41989 0.0
H675 H 0.94357 0.01731 0.44721 0.0
H676 H 0.94868 0.93457 0.58305 0.0
H677 H 0.00934 0.94246 0.59353 0.0
C678 C 0.04628 0.98973 0.53308 0.0
C679 C 0.06242 0.01573 0.4986 0.0
C680 C 0.01153 0.98474 0.52689 0.0
C681 C 0.04324 0.03694 0.45834 0.0
C682 C 0.0087 0.03205 0.45169 0.0
C683 C 0.95797 1.00078 0.47872 0.0
C684 C 0.94169 0.97511 0.51381 0.0
C685 C 0.99264 0.00592 0.48542 0.0
C686 C 0.96065 0.95433 0.55522 0.0
C687 C 0.9953 0.95893 0.56136 0.0
H688 H 0.53606 0.95244 0.56682 0.0
H689 H 0.47273 0.93841 0.40013 0.0
H690 H 0.4578 0.99813 0.40056 0.0
H691 H 0.46245 0.05478 0.44884 0.0
H692 H 0.52541 0.06807 0.61646 0.0
H693 H 0.54018 0.00852 0.61562 0.0
C694 C 0.51913 0.96243 0.53037 0.0
C695 C 0.50569 0.94082 0.48338 0.0
C696 C 0.51022 0.99681 0.53145 0.0
C697 C 0.48359 0.95437 0.4368 0.0
C698 C 0.47491 0.98858 0.43714 0.0
C699 C 0.47918 0.0446 0.48545 0.0
C700 C 0.49271 0.06607 0.53269 0.0
C701 C 0.4879 0.01009 0.48447 0.0
C702 C 0.51454 0.0523 0.57951 0.0
C703 C 0.52315 0.01816 0.57899 0.0
H704 H 0.55891 0.47847 0.46332 0.0
H705 H 0.55371 0.56961 0.57564 0.0
H706 H 0.49282 0.56351 0.58664 0.0
H707 H 0.44082 0.53214 0.56439 0.0
H708 H 0.4465 0.44089 0.45231 0.0
H709 H 0.50725 0.44707 0.44168 0.0
C710 C 0.54447 0.49713 0.48997 0.0
C711 C 0.56097 0.52459 0.51834 0.0
C712 C 0.50946 0.4933 0.49654 0.0
C713 C 0.54176 0.54833 0.55306 0.0
C714 C 0.50689 0.54479 0.55953 0.0
C715 C 0.45537 0.51348 0.53796 0.0
C716 C 0.43898 0.486 0.50933 0.0
C717 C 0.49045 0.51731 0.53164 0.0
C718 C 0.45832 0.46223 0.47495 0.0
C719 C 0.49313 0.4658 0.46869 0.0
H720 H 0.96547 0.55472 0.55188 0.0
H721 H 0.03343 0.56877 0.39025 0.0
H722 H 0.04417 0.5085 0.3857 0.0
H723 H 0.03535 0.45138 0.42857 0.0
H724 H 0.96703 0.43675 0.58926 0.0
H725 H 0.9556 0.49711 0.59327 0.0
C726 C 0.9824 0.54454 0.5154 0.0
C727 C 0.99857 0.56641 0.47155 0.0
C728 C 0.98869 0.50955 0.51307 0.0
C729 C 0.02059 0.55268 0.42475 0.0
C730 C 0.02687 0.5181 0.4221 0.0
C731 C 0.01804 0.46141 0.46454 0.0
C732 C 0.00224 0.43948 0.50868 0.0
C733 C 0.0113 0.49626 0.46629 0.0
C734 C 0.97964 0.45298 0.55467 0.0
C735 C 0.97302 0.48758 0.55701 0.0
loop_
_geom_bond_atom_site_label_1
_geom_bond_atom_site_label_2
_geom_bond_distance
_geom_bond_site_symmetry_2
_ccdc_geom_bond_type
Co0 O1 2.223 1_545 S
Co0 O2 2.091 . S
Co0 O4 2.004 . S
Co0 O10 2.021 1_545 S
Co0 O12 2.137 1_545 S
Co0 O13 2.244 1_545 S
O1 Co0 2.223 1_565 S
O1 C8 1.243 1_564 S
O2 Co0 2.091 . S
O2 C8 1.261 1_554 S
C3 O12 1.247 . S
C3 O13 1.272 . S
O4 Co0 2.004 . S
O4 C9 1.259 . S
Co5 O6 2.061 1_565 S
Co5 O11 2.052 . S
Co5 O13 2.135 . S
O6 Co5 2.061 1_545 S
O6 C9 1.235 . S
C7 O10 1.238 . S
C7 O11 1.241 . S
C8 O1 1.243 1_546 S
C8 O2 1.261 1_556 S
C9 O4 1.259 . S
C9 O6 1.235 . S
O10 Co0 2.021 1_565 S
O10 C7 1.238 . S
O11 Co5 2.052 . S
O11 C7 1.241 . S
O12 Co0 2.137 1_565 S
O12 C3 1.247 . S
O13 Co0 2.244 1_565 S
O13 C3 1.272 . S
O13 Co5 2.135 . S
Co14 O15 2.216 . S
Co14 O16 2.091 . S
Co14 O18 2.004 . S
Co14 O24 2.021 . S
Co14 O26 2.137 . S
Co14 O27 2.244 . S
O15 Co14 2.216 . S
O15 C22 1.247 1_554 S
O16 Co14 2.091 . S
O16 C22 1.261 1_554 S
C17 O26 1.247 . S
C17 O27 1.272 . S
O18 Co14 2.004 . S
O18 C23 1.259 . S
Co19 O20 2.061 . S
Co19 O25 2.052 . S
Co19 O27 2.135 . S
O20 Co19 2.061 . S
O20 C23 1.235 . S
C21 O24 1.238 . S
C21 O25 1.241 . S
C22 O15 1.247 1_556 S
C22 O16 1.261 1_556 S
C23 O18 1.259 . S
C23 O20 1.235 . S
O24 Co14 2.021 . S
O24 C21 1.238 . S
O25 Co19 2.052 . S
O25 C21 1.241 . S
O26 Co14 2.137 . S
O26 C17 1.247 . S
O27 Co14 2.244 . S
O27 C17 1.272 . S
O27 Co19 2.135 . S
Co28 O29 2.216 . S
Co28 O30 2.091 . S
Co28 O32 2.004 . S
Co28 O38 2.021 . S
Co28 O40 2.137 . S
Co28 O41 2.244 . S
O29 Co28 2.216 . S
O29 C36 1.247 1_554 S
O30 Co28 2.091 . S
O30 C36 1.261 1_554 S
C31 O40 1.247 . S
C31 O41 1.272 . S
O32 Co28 2.004 . S
O32 C37 1.259 . S
Co33 O34 2.061 . S
Co33 O39 2.052 . S
Co33 O41 2.135 . S
O34 Co33 2.061 . S
O34 C37 1.235 . S
C35 O38 1.238 . S
C35 O39 1.241 . S
C36 O29 1.247 1_556 S
C36 O30 1.261 1_556 S
C37 O32 1.259 . S
C37 O34 1.235 . S
O38 Co28 2.021 . S
O38 C35 1.238 . S
O39 Co33 2.052 . S
O39 C35 1.241 . S
O40 Co28 2.137 . S
O40 C31 1.247 . S
O41 Co28 2.244 . S
O41 C31 1.272 . S
O41 Co33 2.135 . S
Co42 O43 2.212 1_454 S
Co42 O44 2.099 . S
Co42 O46 2.004 . S
Co42 O52 2.021 1_455 S
Co42 O54 2.137 1_455 S
Co42 O55 2.244 1_455 S
O43 Co42 2.212 1_656 S
O43 C50 1.249 1_655 S
O44 Co42 2.099 . S
O44 C50 1.257 1_554 S
C45 O54 1.247 . S
C45 O55 1.272 . S
O46 Co42 2.004 . S
O46 C51 1.259 . S
Co47 O48 2.061 1_655 S
Co47 O53 2.052 . S
Co47 O55 2.135 . S
O48 Co47 2.061 1_455 S
O48 C51 1.235 . S
C49 O52 1.238 . S
C49 O53 1.241 . S
C50 O43 1.249 1_455 S
C50 O44 1.257 1_556 S
C51 O46 1.259 . S
C51 O48 1.235 . S
O52 Co42 2.021 1_655 S
O52 C49 1.238 . S
O53 Co47 2.052 . S
O53 C49 1.241 . S
O54 Co42 2.137 1_655 S
O54 C45 1.247 . S
O55 Co42 2.244 1_655 S
O55 C45 1.272 . S
O55 Co47 2.135 . S
Co56 O57 2.216 1_565 S
Co56 O58 2.091 . S
Co56 O60 2.004 . S
Co56 O66 2.021 1_565 S
Co56 O68 2.137 1_565 S
Co56 O69 2.244 1_565 S
O57 Co56 2.216 1_545 S
O57 C64 1.247 1_545 S
O58 Co56 2.091 . S
O58 C64 1.261 . S
C59 O68 1.247 . S
C59 O69 1.272 . S
O60 Co56 2.004 . S
O60 C65 1.259 . S
Co61 O62 2.061 1_545 S
Co61 O67 2.052 . S
Co61 O69 2.135 . S
O62 Co61 2.061 1_565 S
O62 C65 1.235 . S
C63 O66 1.238 . S
C63 O67 1.241 . S
C64 O57 1.247 1_565 S
C64 O58 1.261 . S
C65 O60 1.259 . S
C65 O62 1.235 . S
O66 Co56 2.021 1_545 S
O66 C63 1.238 . S
O67 Co61 2.052 . S
O67 C63 1.241 . S
O68 Co56 2.137 1_545 S
O68 C59 1.247 . S
O69 Co56 2.244 1_545 S
O69 C59 1.272 . S
O69 Co61 2.135 . S
Co70 O71 2.216 . S
Co70 O72 2.091 . S
Co70 O74 2.004 . S
Co70 O80 2.021 . S
Co70 O82 2.137 . S
Co70 O83 2.244 . S
O71 Co70 2.216 . S
O71 C78 1.247 . S
O72 Co70 2.091 . S
O72 C78 1.261 . S
C73 O82 1.247 . S
C73 O83 1.272 . S
O74 Co70 2.004 . S
O74 C79 1.259 . S
Co75 O76 2.061 . S
Co75 O81 2.052 . S
Co75 O83 2.135 . S
O76 Co75 2.061 . S
O76 C79 1.235 . S
C77 O80 1.238 . S
C77 O81 1.241 . S
C78 O71 1.247 . S
C78 O72 1.261 . S
C79 O74 1.259 . S
C79 O76 1.235 . S
O80 Co70 2.021 . S
O80 C77 1.238 . S
O81 Co75 2.052 . S
O81 C77 1.241 . S
O82 Co70 2.137 . S
O82 C73 1.247 . S
O83 Co70 2.244 . S
O83 C73 1.272 . S
O83 Co75 2.135 . S
Co84 O85 2.216 . S
Co84 O86 2.091 . S
Co84 O88 2.004 . S
Co84 O94 2.021 . S
Co84 O96 2.137 . S
Co84 O97 2.244 . S
O85 Co84 2.216 . S
O85 C92 1.247 . S
O86 Co84 2.091 . S
O86 C92 1.261 . S
C87 O96 1.247 . S
C87 O97 1.272 . S
O88 Co84 2.004 . S
O88 C93 1.259 . S
Co89 O90 2.061 . S
Co89 O95 2.052 . S
Co89 O97 2.135 . S
O90 Co89 2.061 . S
O90 C93 1.235 . S
C91 O94 1.238 . S
C91 O95 1.241 . S
C92 O85 1.247 . S
C92 O86 1.261 . S
C93 O88 1.259 . S
C93 O90 1.235 . S
O94 Co84 2.021 . S
O94 C91 1.238 . S
O95 Co89 2.052 . S
O95 C91 1.241 . S
O96 Co84 2.137 . S
O96 C87 1.247 . S
O97 Co84 2.244 . S
O97 C87 1.272 . S
O97 Co89 2.135 . S
Co98 O99 2.216 1_655 S
Co98 O100 2.091 . S
Co98 O102 2.004 . S
Co98 O108 2.021 1_655 S
Co98 O110 2.137 1_655 S
Co98 O111 2.244 1_655 S
O99 Co98 2.216 1_455 S
O99 C106 1.247 1_455 S
O100 Co98 2.091 . S
O100 C106 1.261 . S
C101 O110 1.247 . S
C101 O111 1.272 . S
O102 Co98 2.004 . S
O102 C107 1.259 . S
Co103 O104 2.061 1_455 S
Co103 O109 2.052 . S
Co103 O111 2.135 . S
O104 Co103 2.061 1_655 S
O104 C107 1.235 . S
C105 O108 1.238 . S
C105 O109 1.241 . S
C106 O99 1.247 1_655 S
C106 O100 1.261 . S
C107 O102 1.259 . S
C107 O104 1.235 . S
O108 Co98 2.021 1_455 S
O108 C105 1.238 . S
O109 Co103 2.052 . S
O109 C105 1.241 . S
O110 Co98 2.137 1_455 S
O110 C101 1.247 . S
O111 Co98 2.244 1_455 S
O111 C101 1.272 . S
O111 Co103 2.135 . S
Co112 O113 2.223 1_565 S
Co112 O114 2.091 . S
Co112 O116 2.004 . S
Co112 O122 2.021 1_565 S
Co112 O124 2.137 1_565 S
Co112 O125 2.244 1_565 S
O113 Co112 2.223 1_545 S
O113 C120 1.243 1_546 S
O114 Co112 2.091 . S
O114 C120 1.261 1_556 S
C115 O124 1.247 . S
C115 O125 1.272 . S
O116 Co112 2.004 . S
O116 C121 1.259 . S
Co117 O118 2.061 1_545 S
Co117 O123 2.052 . S
Co117 O125 2.135 . S
O118 Co117 2.061 1_565 S
O118 C121 1.235 . S
C119 O122 1.238 . S
C119 O123 1.241 . S
C120 O113 1.243 1_564 S
C120 O114 1.261 1_554 S
C121 O116 1.259 . S
C121 O118 1.235 . S
O122 Co112 2.021 1_545 S
O122 C119 1.238 . S
O123 Co117 2.052 . S
O123 C119 1.241 . S
O124 Co112 2.137 1_545 S
O124 C115 1.247 . S
O125 Co112 2.244 1_545 S
O125 C115 1.272 . S
O125 Co117 2.135 . S
Co126 O127 2.216 . S
Co126 O128 2.091 . S
Co126 O130 2.004 . S
Co126 O136 2.021 . S
Co126 O138 2.137 . S
Co126 O139 2.244 . S
O127 Co126 2.216 . S
O127 C134 1.247 1_556 S
O128 Co126 2.091 . S
O128 C134 1.261 1_556 S
C129 O138 1.247 . S
C129 O139 1.272 . S
O130 Co126 2.004 . S
O130 C135 1.259 . S
Co131 O132 2.061 . S
Co131 O137 2.052 . S
Co131 O139 2.135 . S
O132 Co131 2.061 . S
O132 C135 1.235 . S
C133 O136 1.238 . S
C133 O137 1.241 . S
C134 O127 1.247 1_554 S
C134 O128 1.261 1_554 S
C135 O130 1.259 . S
C135 O132 1.235 . S
O136 Co126 2.021 . S
O136 C133 1.238 . S
O137 Co131 2.052 . S
O137 C133 1.241 . S
O138 Co126 2.137 . S
O138 C129 1.247 . S
O139 Co126 2.244 . S
O139 C129 1.272 . S
O139 Co131 2.135 . S
Co140 O141 2.216 . S
Co140 O142 2.091 . S
Co140 O144 2.004 . S
Co140 O150 2.021 . S
Co140 O152 2.137 . S
Co140 O153 2.244 . S
O141 Co140 2.216 . S
O141 C148 1.247 1_556 S
O142 Co140 2.091 . S
O142 C148 1.261 1_556 S
C143 O152 1.247 . S
C143 O153 1.272 . S
O144 Co140 2.004 . S
O144 C149 1.259 . S
Co145 O146 2.061 . S
Co145 O151 2.052 . S
Co145 O153 2.135 . S
O146 Co145 2.061 . S
O146 C149 1.235 . S
C147 O150 1.238 . S
C147 O151 1.241 . S
C148 O141 1.247 1_554 S
C148 O142 1.261 1_554 S
C149 O144 1.259 . S
C149 O146 1.235 . S
O150 Co140 2.021 . S
O150 C147 1.238 . S
O151 Co145 2.052 . S
O151 C147 1.241 . S
O152 Co140 2.137 . S
O152 C143 1.247 . S
O153 Co140 2.244 . S
O153 C143 1.272 . S
O153 Co145 2.135 . S
Co154 O155 2.212 1_656 S
Co154 O156 2.099 . S
Co154 O158 2.004 . S
Co154 O164 2.021 1_655 S
Co154 O166 2.137 1_655 S
Co154 O167 2.244 1_655 S
O155 Co154 2.212 1_454 S
O155 C162 1.249 1_455 S
O156 Co154 2.099 . S
O156 C162 1.257 1_556 S
C157 O166 1.247 . S
C157 O167 1.272 . S
O158 Co154 2.004 . S
O158 C163 1.259 . S
Co159 O160 2.061 1_455 S
Co159 O165 2.052 . S
Co159 O167 2.135 . S
O160 Co159 2.061 1_655 S
O160 C163 1.235 . S
C161 O164 1.238 . S
C161 O165 1.241 . S
C162 O155 1.249 1_655 S
C162 O156 1.257 1_554 S
C163 O158 1.259 . S
C163 O160 1.235 . S
O164 Co154 2.021 1_455 S
O164 C161 1.238 . S
O165 Co159 2.052 . S
O165 C161 1.241 . S
O166 Co154 2.137 1_455 S
O166 C157 1.247 . S
O167 Co154 2.244 1_455 S
O167 C157 1.272 . S
O167 Co159 2.135 . S
Co168 O169 2.216 1_545 S
Co168 O170 2.091 . S
Co168 O172 2.004 . S
Co168 O178 2.021 1_545 S
Co168 O180 2.137 1_545 S
Co168 O181 2.244 1_545 S
O169 Co168 2.216 1_565 S
O169 C176 1.247 1_565 S
O170 Co168 2.091 . S
O170 C176 1.261 . S
C171 O180 1.247 . S
C171 O181 1.272 . S
O172 Co168 2.004 . S
O172 C177 1.259 . S
Co173 O174 2.061 1_565 S
Co173 O179 2.052 . S
Co173 O181 2.135 . S
O174 Co173 2.061 1_545 S
O174 C177 1.235 . S
C175 O178 1.238 . S
C175 O179 1.241 . S
C176 O169 1.247 1_545 S
C176 O170 1.261 . S
C177 O172 1.259 . S
C177 O174 1.235 . S
O178 Co168 2.021 1_565 S
O178 C175 1.238 . S
O179 Co173 2.052 . S
O179 C175 1.241 . S
O180 Co168 2.137 1_565 S
O180 C171 1.247 . S
O181 Co168 2.244 1_565 S
O181 C171 1.272 . S
O181 Co173 2.135 . S
Co182 O183 2.216 . S
Co182 O184 2.091 . S
Co182 O186 2.004 . S
Co182 O192 2.021 . S
Co182 O194 2.137 . S
Co182 O195 2.244 . S
O183 Co182 2.216 . S
O183 C190 1.247 . S
O184 Co182 2.091 . S
O184 C190 1.261 . S
C185 O194 1.247 . S
C185 O195 1.272 . S
O186 Co182 2.004 . S
O186 C191 1.259 . S
Co187 O188 2.061 . S
Co187 O193 2.052 . S
Co187 O195 2.135 . S
O188 Co187 2.061 . S
O188 C191 1.235 . S
C189 O192 1.238 . S
C189 O193 1.241 . S
C190 O183 1.247 . S
C190 O184 1.261 . S
C191 O186 1.259 . S
C191 O188 1.235 . S
O192 Co182 2.021 . S
O192 C189 1.238 . S
O193 Co187 2.052 . S
O193 C189 1.241 . S
O194 Co182 2.137 . S
O194 C185 1.247 . S
O195 Co182 2.244 . S
O195 C185 1.272 . S
O195 Co187 2.135 . S
Co196 O197 2.216 . S
Co196 O198 2.091 . S
Co196 O200 2.004 . S
Co196 O206 2.021 . S
Co196 O208 2.137 . S
Co196 O209 2.244 . S
O197 Co196 2.216 . S
O197 C204 1.247 . S
O198 Co196 2.091 . S
O198 C204 1.261 . S
C199 O208 1.247 . S
C199 O209 1.272 . S
O200 Co196 2.004 . S
O200 C205 1.259 . S
Co201 O202 2.061 . S
Co201 O207 2.052 . S
Co201 O209 2.135 . S
O202 Co201 2.061 . S
O202 C205 1.235 . S
C203 O206 1.238 . S
C203 O207 1.241 . S
C204 O197 1.247 . S
C204 O198 1.261 . S
C205 O200 1.259 . S
C205 O202 1.235 . S
O206 Co196 2.021 . S
O206 C203 1.238 . S
O207 Co201 2.052 . S
O207 C203 1.241 . S
O208 Co196 2.137 . S
O208 C199 1.247 . S
O209 Co196 2.244 . S
O209 C199 1.272 . S
O209 Co201 2.135 . S
Co210 O211 2.216 1_455 S
Co210 O212 2.091 . S
Co210 O214 2.004 . S
Co210 O220 2.021 1_455 S
Co210 O222 2.137 1_455 S
Co210 O223 2.244 1_455 S
O211 Co210 2.216 1_655 S
O211 C218 1.247 1_655 S
O212 Co210 2.091 . S
O212 C218 1.261 . S
C213 O222 1.247 . S
C213 O223 1.272 . S
O214 Co210 2.004 . S
O214 C219 1.259 . S
Co215 O216 2.061 1_655 S
Co215 O221 2.052 . S
Co215 O223 2.135 . S
O216 Co215 2.061 1_455 S
O216 C219 1.235 . S
C217 O220 1.238 . S
C217 O221 1.241 . S
C218 O211 1.247 1_455 S
C218 O212 1.261 . S
C219 O214 1.259 . S
C219 O216 1.235 . S
O220 Co210 2.021 1_655 S
O220 C217 1.238 . S
O221 Co215 2.052 . S
O221 C217 1.241 . S
O222 Co210 2.137 1_655 S
O222 C213 1.247 . S
O223 Co210 2.244 1_655 S
O223 C213 1.272 . S
O223 Co215 2.135 . S
H224 C230 0.930 . S
H225 C233 0.930 . S
H226 C234 0.930 . S
H227 C235 0.930 . S
H228 C238 0.930 . S
H229 C239 0.930 . S
C230 H224 0.930 . S
C230 C231 1.355 . S
C230 C232 1.415 . S
C231 C230 1.355 . S
C231 C233 1.419 . S
C232 C230 1.415 . S
C232 C237 1.425 . S
C232 C239 1.409 . S
C233 H225 0.930 . S
C233 C231 1.419 . S
C233 C234 1.362 . S
C234 H226 0.930 . S
C234 C233 1.362 . S
C234 C237 1.409 . S
C235 H227 0.930 . S
C235 C236 1.355 . S
C235 C237 1.415 . S
C236 C235 1.355 . S
C236 C238 1.419 . S
C237 C232 1.425 . S
C237 C234 1.409 . S
C237 C235 1.415 . S
C238 H228 0.930 . S
C238 C236 1.419 . S
C238 C239 1.362 . S
C239 H229 0.930 . S
C239 C232 1.409 . S
C239 C238 1.362 . S
H240 C246 0.930 . S
H241 C249 0.930 . S
H242 C250 0.930 . S
H243 C251 0.930 . S
H244 C254 0.930 . S
H245 C255 0.930 . S
C246 H240 0.930 . S
C246 C247 1.355 . S
C246 C248 1.415 . S
C247 C246 1.355 . S
C247 C249 1.419 . S
C248 C246 1.415 . S
C248 C253 1.425 . S
C248 C255 1.409 . S
C249 H241 0.930 . S
C249 C247 1.419 . S
C249 C250 1.362 . S
C250 H242 0.930 . S
C250 C249 1.362 . S
C250 C253 1.409 . S
C251 H243 0.930 . S
C251 C252 1.355 . S
C251 C253 1.415 . S
C252 C251 1.355 . S
C252 C254 1.419 . S
C253 C248 1.425 . S
C253 C250 1.409 . S
C253 C251 1.415 . S
C254 H244 0.930 . S
C254 C252 1.419 . S
C254 C255 1.362 . S
C255 H245 0.930 . S
C255 C248 1.409 . S
C255 C254 1.362 . S
H256 C262 0.930 . S
H257 C265 0.930 . S
H258 C266 0.930 . S
H259 C267 0.930 . S
H260 C270 0.930 . S
H261 C271 0.930 . S
C262 H256 0.930 . S
C262 C263 1.355 . S
C262 C264 1.415 . S
C263 C262 1.355 . S
C263 C265 1.419 . S
C264 C262 1.415 . S
C264 C269 1.425 . S
C264 C271 1.409 . S
C265 H257 0.930 . S
C265 C263 1.419 . S
C265 C266 1.362 . S
C266 H258 0.930 . S
C266 C265 1.362 . S
C266 C269 1.409 . S
C267 H259 0.930 . S
C267 C268 1.355 . S
C267 C269 1.415 . S
C268 C267 1.355 . S
C268 C270 1.419 . S
C269 C264 1.425 . S
C269 C266 1.409 . S
C269 C267 1.415 . S
C270 H260 0.930 . S
C270 C268 1.419 . S
C270 C271 1.362 . S
C271 H261 0.930 . S
C271 C264 1.409 . S
C271 C270 1.362 . S
H272 C278 0.930 . S
H273 C281 0.930 . S
H274 C282 0.930 . S
H275 C283 0.930 . S
H276 C286 0.930 . S
H277 C287 0.930 . S
C278 H272 0.930 . S
C278 C279 1.355 . S
C278 C280 1.415 . S
C279 C278 1.355 . S
C279 C281 1.419 . S
C280 C278 1.415 . S
C280 C285 1.425 . S
C280 C287 1.409 . S
C281 H273 0.930 . S
C281 C279 1.419 . S
C281 C282 1.362 . S
C282 H274 0.930 . S
C282 C281 1.362 . S
C282 C285 1.409 . S
C283 H275 0.930 . S
C283 C284 1.355 . S
C283 C285 1.415 . S
C284 C283 1.355 . S
C284 C286 1.419 . S
C285 C280 1.425 . S
C285 C282 1.409 . S
C285 C283 1.415 . S
C286 H276 0.930 . S
C286 C284 1.419 . S
C286 C287 1.362 . S
C287 H277 0.930 . S
C287 C280 1.409 . S
C287 C286 1.362 . S
H288 C294 0.930 . S
H289 C297 0.930 . S
H290 C298 0.930 . S
H291 C299 0.930 . S
H292 C302 0.930 . S
H293 C303 0.930 . S
C294 H288 0.930 . S
C294 C295 1.355 . S
C294 C296 1.415 . S
C295 C294 1.355 . S
C295 C297 1.419 . S
C296 C294 1.415 . S
C296 C301 1.425 . S
C296 C303 1.409 . S
C297 H289 0.930 . S
C297 C295 1.419 . S
C297 C298 1.362 . S
C298 H290 0.930 . S
C298 C297 1.362 . S
C298 C301 1.409 . S
C299 H291 0.930 . S
C299 C300 1.355 . S
C299 C301 1.415 . S
C300 C299 1.355 . S
C300 C302 1.419 . S
C301 C296 1.425 . S
C301 C298 1.409 . S
C301 C299 1.415 . S
C302 H292 0.930 . S
C302 C300 1.419 . S
C302 C303 1.362 . S
C303 H293 0.930 . S
C303 C296 1.409 . S
C303 C302 1.362 . S
H304 C310 0.930 . S
H305 C313 0.930 . S
H306 C314 0.930 . S
H307 C315 0.930 . S
H308 C318 0.930 . S
H309 C319 0.930 . S
C310 H304 0.930 . S
C310 C311 1.355 . S
C310 C312 1.415 . S
C311 C310 1.355 . S
C311 C313 1.419 . S
C312 C310 1.415 . S
C312 C317 1.425 . S
C312 C319 1.409 . S
C313 H305 0.930 . S
C313 C311 1.419 . S
C313 C314 1.362 . S
C314 H306 0.930 . S
C314 C313 1.362 . S
C314 C317 1.409 . S
C315 H307 0.930 . S
C315 C316 1.355 . S
C315 C317 1.415 . S
C316 C315 1.355 . S
C316 C318 1.419 . S
C317 C312 1.425 . S
C317 C314 1.409 . S
C317 C315 1.415 . S
C318 H308 0.930 . S
C318 C316 1.419 . S
C318 C319 1.362 . S
C319 H309 0.930 . S
C319 C312 1.409 . S
C319 C318 1.362 . S
H320 C326 0.930 . S
H321 C329 0.930 . S
H322 C330 0.930 . S
H323 C331 0.930 . S
H324 C334 0.930 . S
H325 C335 0.930 . S
C326 H320 0.930 . S
C326 C327 1.355 . S
C326 C328 1.415 . S
C327 C326 1.355 . S
C327 C329 1.419 . S
C328 C326 1.415 . S
C328 C333 1.425 . S
C328 C335 1.409 . S
C329 H321 0.930 . S
C329 C327 1.419 . S
C329 C330 1.362 . S
C330 H322 0.930 . S
C330 C329 1.362 . S
C330 C333 1.409 . S
C331 H323 0.930 . S
C331 C332 1.355 . S
C331 C333 1.415 . S
C332 C331 1.355 . S
C332 C334 1.419 . S
C333 C328 1.425 . S
C333 C330 1.409 . S
C333 C331 1.415 . S
C334 H324 0.930 . S
C334 C332 1.419 . S
C334 C335 1.362 . S
C335 H325 0.930 . S
C335 C328 1.409 . S
C335 C334 1.362 . S
H336 C342 0.930 . S
H337 C345 0.930 . S
H338 C346 0.930 . S
H339 C347 0.930 . S
H340 C350 0.930 . S
H341 C351 0.930 . S
C342 H336 0.930 . S
C342 C343 1.355 . S
C342 C344 1.415 . S
C343 C342 1.355 . S
C343 C345 1.419 . S
C344 C342 1.415 . S
C344 C349 1.425 . S
C344 C351 1.409 . S
C345 H337 0.930 . S
C345 C343 1.419 . S
C345 C346 1.362 . S
C346 H338 0.930 . S
C346 C345 1.362 . S
C346 C349 1.409 . S
C347 H339 0.930 . S
C347 C348 1.355 . S
C347 C349 1.415 . S
C348 C347 1.355 . S
C348 C350 1.419 . S
C349 C344 1.425 . S
C349 C346 1.409 . S
C349 C347 1.415 . S
C350 H340 0.930 . S
C350 C348 1.419 . S
C350 C351 1.362 . S
C351 H341 0.930 . S
C351 C344 1.409 . S
C351 C350 1.362 . S
H352 C358 0.930 1_545 S
H353 C361 0.930 . S
H354 C362 0.930 . S
H355 C363 0.930 . S
H356 C366 0.930 . S
H357 C367 0.930 . S
C358 H352 0.930 1_565 S
C358 C359 1.355 . S
C358 C360 1.415 . S
C359 C358 1.355 . S
C359 C361 1.419 . S
C360 C358 1.415 . S
C360 C365 1.425 . S
C360 C367 1.409 . S
C361 H353 0.930 . S
C361 C359 1.419 . S
C361 C362 1.362 . S
C362 H354 0.930 . S
C362 C361 1.362 . S
C362 C365 1.409 . S
C363 H355 0.930 . S
C363 C364 1.355 . S
C363 C365 1.415 . S
C364 C363 1.355 . S
C364 C366 1.419 . S
C365 C360 1.425 . S
C365 C362 1.409 . S
C365 C363 1.415 . S
C366 H356 0.930 . S
C366 C364 1.419 . S
C366 C367 1.362 . S
C367 H357 0.930 . S
C367 C360 1.409 . S
C367 C366 1.362 . S
H368 C374 0.930 . S
H369 C377 0.930 . S
H370 C378 0.930 . S
H371 C379 0.930 . S
H372 C382 0.930 . S
H373 C383 0.930 . S
C374 H368 0.930 . S
C374 C375 1.355 . S
C374 C376 1.415 . S
C375 C374 1.355 . S
C375 C377 1.419 . S
C376 C374 1.415 . S
C376 C381 1.425 . S
C376 C383 1.409 . S
C377 H369 0.930 . S
C377 C375 1.419 . S
C377 C378 1.362 . S
C378 H370 0.930 . S
C378 C377 1.362 . S
C378 C381 1.409 . S
C379 H371 0.930 . S
C379 C380 1.355 . S
C379 C381 1.415 . S
C380 C379 1.355 . S
C380 C382 1.419 . S
C381 C376 1.425 . S
C381 C378 1.409 . S
C381 C379 1.415 . S
C382 H372 0.930 . S
C382 C380 1.419 . S
C382 C383 1.362 . S
C383 H373 0.930 . S
C383 C376 1.409 . S
C383 C382 1.362 . S
H384 C390 0.930 . S
H385 C393 0.930 . S
H386 C394 0.930 . S
H387 C395 0.930 . S
H388 C398 0.930 . S
H389 C399 0.930 . S
C390 H384 0.930 . S
C390 C391 1.355 . S
C390 C392 1.415 . S
C391 C390 1.355 . S
C391 C393 1.419 . S
C392 C390 1.415 . S
C392 C397 1.425 . S
C392 C399 1.409 . S
C393 H385 0.930 . S
C393 C391 1.419 . S
C393 C394 1.362 . S
C394 H386 0.930 . S
C394 C393 1.362 . S
C394 C397 1.409 . S
C395 H387 0.930 . S
C395 C396 1.355 . S
C395 C397 1.415 . S
C396 C395 1.355 . S
C396 C398 1.419 . S
C397 C392 1.425 . S
C397 C394 1.409 . S
C397 C395 1.415 . S
C398 H388 0.930 . S
C398 C396 1.419 . S
C398 C399 1.362 . S
C399 H389 0.930 . S
C399 C392 1.409 . S
C399 C398 1.362 . S
H400 C406 0.930 . S
H401 C409 0.930 . S
H402 C410 0.927 1_455 S
H403 C411 0.930 . S
H404 C414 0.930 . S
H405 C415 0.930 . S
C406 H400 0.930 . S
C406 C407 1.352 1_655 S
C406 C408 1.415 . S
C407 C406 1.352 1_455 S
C407 C409 1.420 . S
C408 C406 1.415 . S
C408 C413 1.425 . S
C408 C415 1.409 . S
C409 H401 0.930 . S
C409 C407 1.420 . S
C409 C410 1.359 1_455 S
C410 H402 0.927 1_655 S
C410 C409 1.359 1_655 S
C410 C413 1.416 . S
C411 H403 0.930 . S
C411 C412 1.355 . S
C411 C413 1.415 . S
C412 C411 1.355 . S
C412 C414 1.419 . S
C413 C408 1.425 . S
C413 C410 1.416 . S
C413 C411 1.415 . S
C414 H404 0.930 . S
C414 C412 1.419 . S
C414 C415 1.362 . S
C415 H405 0.930 . S
C415 C408 1.409 . S
C415 C414 1.362 . S
H416 C422 0.930 . S
H417 C425 0.930 . S
H418 C426 0.930 . S
H419 C427 0.919 1_565 S
H420 C430 0.930 . S
H421 C431 0.930 . S
C422 H416 0.930 . S
C422 C423 1.330 1_545 S
C422 C424 1.415 . S
C423 C422 1.330 1_565 S
C423 C425 1.443 . S
C424 C422 1.415 . S
C424 C429 1.412 1_545 S
C424 C431 1.409 . S
C425 H417 0.930 . S
C425 C423 1.443 . S
C425 C426 1.362 . S
C426 H418 0.930 . S
C426 C425 1.362 . S
C426 C429 1.422 . S
C427 H419 0.919 1_545 S
C427 C428 1.366 . S
C427 C429 1.414 1_545 S
C428 C427 1.366 . S
C428 C430 1.419 . S
C429 C424 1.412 1_565 S
C429 C426 1.422 . S
C429 C427 1.414 1_565 S
C430 H420 0.930 . S
C430 C428 1.419 . S
C430 C431 1.362 . S
C431 H421 0.930 . S
C431 C424 1.409 . S
C431 C430 1.362 . S
H432 C438 0.930 . S
H433 C441 0.930 . S
H434 C442 0.930 . S
H435 C443 0.930 . S
H436 C446 0.930 . S
H437 C447 0.930 . S
C438 H432 0.930 . S
C438 C439 1.355 . S
C438 C440 1.415 . S
C439 C438 1.355 . S
C439 C441 1.419 . S
C440 C438 1.415 . S
C440 C445 1.425 . S
C440 C447 1.409 . S
C441 H433 0.930 . S
C441 C439 1.419 . S
C441 C442 1.362 . S
C442 H434 0.930 . S
C442 C441 1.362 . S
C442 C445 1.409 . S
C443 H435 0.930 . S
C443 C444 1.355 . S
C443 C445 1.415 . S
C444 C443 1.355 . S
C444 C446 1.419 . S
C445 C440 1.425 . S
C445 C442 1.409 . S
C445 C443 1.415 . S
C446 H436 0.930 . S
C446 C444 1.419 . S
C446 C447 1.362 . S
C447 H437 0.930 . S
C447 C440 1.409 . S
C447 C446 1.362 . S
H448 C454 0.930 . S
H449 C457 0.930 . S
H450 C458 0.930 . S
H451 C459 0.930 . S
H452 C462 0.930 . S
H453 C463 0.930 . S
C454 H448 0.930 . S
C454 C455 1.355 . S
C454 C456 1.415 . S
C455 C454 1.355 . S
C455 C457 1.419 . S
C456 C454 1.415 . S
C456 C461 1.425 . S
C456 C463 1.409 . S
C457 H449 0.930 . S
C457 C455 1.419 . S
C457 C458 1.362 . S
C458 H450 0.930 . S
C458 C457 1.362 . S
C458 C461 1.409 . S
C459 H451 0.930 . S
C459 C460 1.355 . S
C459 C461 1.415 . S
C460 C459 1.355 . S
C460 C462 1.419 . S
C461 C456 1.425 . S
C461 C458 1.409 . S
C461 C459 1.415 . S
C462 H452 0.930 . S
C462 C460 1.419 . S
C462 C463 1.362 . S
C463 H453 0.930 . S
C463 C456 1.409 . S
C463 C462 1.362 . S
H464 C470 0.930 . S
H465 C473 0.930 1_655 S
H466 C474 0.930 . S
H467 C475 0.930 . S
H468 C478 0.930 . S
H469 C479 0.930 . S
C470 H464 0.930 . S
C470 C471 1.353 1_455 S
C470 C472 1.415 . S
C471 C470 1.353 1_655 S
C471 C473 1.419 1_655 S
C472 C470 1.415 . S
C472 C477 1.425 . S
C472 C479 1.409 . S
C473 H465 0.930 1_455 S
C473 C471 1.419 1_455 S
C473 C474 1.362 . S
C474 H466 0.930 . S
C474 C473 1.362 . S
C474 C477 1.409 . S
C475 H467 0.930 . S
C475 C476 1.355 . S
C475 C477 1.415 . S
C476 C475 1.355 . S
C476 C478 1.419 . S
C477 C472 1.425 . S
C477 C474 1.409 . S
C477 C475 1.415 . S
C478 H468 0.930 . S
C478 C476 1.419 . S
C478 C479 1.362 . S
C479 H469 0.930 . S
C479 C472 1.409 . S
C479 C478 1.362 . S
H480 C486 0.930 . S
H481 C489 0.930 . S
H482 C490 0.930 . S
H483 C491 0.930 . S
H484 C494 0.930 . S
H485 C495 0.930 . S
C486 H480 0.930 . S
C486 C487 1.355 . S
C486 C488 1.415 . S
C487 C486 1.355 . S
C487 C489 1.419 . S
C488 C486 1.415 . S
C488 C493 1.425 . S
C488 C495 1.409 1_545 S
C489 H481 0.930 . S
C489 C487 1.419 . S
C489 C490 1.362 . S
C490 H482 0.930 . S
C490 C489 1.362 . S
C490 C493 1.409 . S
C491 H483 0.930 . S
C491 C492 1.355 1_545 S
C491 C493 1.415 . S
C492 C491 1.355 1_565 S
C492 C494 1.419 . S
C493 C488 1.425 . S
C493 C490 1.409 . S
C493 C491 1.415 . S
C494 H484 0.930 . S
C494 C492 1.419 . S
C494 C495 1.362 . S
C495 H485 0.930 . S
C495 C488 1.409 1_565 S
C495 C494 1.362 . S
H496 C502 0.930 . S
H497 C505 0.930 . S
H498 C506 0.930 . S
H499 C507 0.930 . S
H500 C510 0.930 . S
H501 C511 0.930 . S
C502 H496 0.930 . S
C502 C503 1.355 . S
C502 C504 1.415 . S
C503 C502 1.355 . S
C503 C505 1.419 . S
C504 C502 1.415 . S
C504 C509 1.425 . S
C504 C511 1.409 . S
C505 H497 0.930 . S
C505 C503 1.419 . S
C505 C506 1.362 . S
C506 H498 0.930 . S
C506 C505 1.362 . S
C506 C509 1.409 . S
C507 H499 0.930 . S
C507 C508 1.355 . S
C507 C509 1.415 . S
C508 C507 1.355 . S
C508 C510 1.419 . S
C509 C504 1.425 . S
C509 C506 1.409 . S
C509 C507 1.415 . S
C510 H500 0.930 . S
C510 C508 1.419 . S
C510 C511 1.362 . S
C511 H501 0.930 . S
C511 C504 1.409 . S
C511 C510 1.362 . S
H512 C518 0.930 . S
H513 C521 0.930 . S
H514 C522 0.930 . S
H515 C523 0.930 . S
H516 C526 0.930 . S
H517 C527 0.930 . S
C518 H512 0.930 . S
C518 C519 1.355 . S
C518 C520 1.415 . S
C519 C518 1.355 . S
C519 C521 1.419 . S
C520 C518 1.415 . S
C520 C525 1.425 . S
C520 C527 1.409 . S
C521 H513 0.930 . S
C521 C519 1.419 . S
C521 C522 1.362 . S
C522 H514 0.930 . S
C522 C521 1.362 . S
C522 C525 1.409 . S
C523 H515 0.930 . S
C523 C524 1.355 . S
C523 C525 1.415 . S
C524 C523 1.355 . S
C524 C526 1.419 . S
C525 C520 1.425 . S
C525 C522 1.409 . S
C525 C523 1.415 . S
C526 H516 0.930 . S
C526 C524 1.419 . S
C526 C527 1.362 . S
C527 H517 0.930 . S
C527 C520 1.409 . S
C527 C526 1.362 . S
H528 C534 0.930 . S
H529 C537 0.930 . S
H530 C538 0.930 . S
H531 C539 0.931 . S
H532 C542 0.930 . S
H533 C543 0.930 . S
C534 H528 0.930 . S
C534 C535 1.355 1_455 S
C534 C536 1.415 . S
C535 C534 1.355 1_655 S
C535 C537 1.419 . S
C536 C534 1.415 . S
C536 C541 1.425 1_455 S
C536 C543 1.409 . S
C537 H529 0.930 . S
C537 C535 1.419 . S
C537 C538 1.362 . S
C538 H530 0.930 . S
C538 C537 1.362 . S
C538 C541 1.409 . S
C539 H531 0.931 . S
C539 C540 1.353 1_655 S
C539 C541 1.415 . S
C540 C539 1.353 1_455 S
C540 C542 1.419 . S
C541 C536 1.425 1_655 S
C541 C538 1.409 . S
C541 C539 1.415 . S
C542 H532 0.930 . S
C542 C540 1.419 . S
C542 C543 1.362 . S
C543 H533 0.930 . S
C543 C536 1.409 . S
C543 C542 1.362 . S
H544 C550 0.930 . S
H545 C553 0.930 . S
H546 C554 0.930 . S
H547 C555 0.930 . S
H548 C558 0.930 . S
H549 C559 0.930 . S
C550 H544 0.930 . S
C550 C551 1.355 . S
C550 C552 1.415 . S
C551 C550 1.355 . S
C551 C553 1.419 1_565 S
C552 C550 1.415 . S
C552 C557 1.435 . S
C552 C559 1.409 . S
C553 H545 0.930 . S
C553 C551 1.419 1_545 S
C553 C554 1.362 . S
C554 H546 0.930 . S
C554 C553 1.362 . S
C554 C557 1.404 1_545 S
C555 H547 0.930 . S
C555 C556 1.355 1_545 S
C555 C557 1.411 1_545 S
C556 C555 1.355 1_565 S
C556 C558 1.419 . S
C557 C552 1.435 . S
C557 C554 1.404 1_565 S
C557 C555 1.411 1_565 S
C558 H548 0.930 . S
C558 C556 1.419 . S
C558 C559 1.362 . S
C559 H549 0.930 . S
C559 C552 1.409 . S
C559 C558 1.362 . S
H560 C566 0.930 . S
H561 C569 0.930 . S
H562 C570 0.930 . S
H563 C571 0.930 . S
H564 C574 0.930 . S
H565 C575 0.930 . S
C566 H560 0.930 . S
C566 C567 1.355 . S
C566 C568 1.415 . S
C567 C566 1.355 . S
C567 C569 1.419 . S
C568 C566 1.415 . S
C568 C573 1.425 . S
C568 C575 1.409 . S
C569 H561 0.930 . S
C569 C567 1.419 . S
C569 C570 1.362 . S
C570 H562 0.930 . S
C570 C569 1.362 . S
C570 C573 1.409 . S
C571 H563 0.930 . S
C571 C572 1.355 . S
C571 C573 1.415 . S
C572 C571 1.355 . S
C572 C574 1.419 . S
C573 C568 1.425 . S
C573 C570 1.409 . S
C573 C571 1.415 . S
C574 H564 0.930 . S
C574 C572 1.419 . S
C574 C575 1.362 . S
C575 H565 0.930 . S
C575 C568 1.409 . S
C575 C574 1.362 . S
H576 C582 0.930 . S
H577 C585 0.930 . S
H578 C586 0.930 . S
H579 C587 0.930 . S
H580 C590 0.930 . S
H581 C591 0.930 . S
C582 H576 0.930 . S
C582 C583 1.355 . S
C582 C584 1.415 . S
C583 C582 1.355 . S
C583 C585 1.419 . S
C584 C582 1.415 . S
C584 C589 1.425 . S
C584 C591 1.409 . S
C585 H577 0.930 . S
C585 C583 1.419 . S
C585 C586 1.362 . S
C586 H578 0.930 . S
C586 C585 1.362 . S
C586 C589 1.409 . S
C587 H579 0.930 . S
C587 C588 1.355 . S
C587 C589 1.415 . S
C588 C587 1.355 . S
C588 C590 1.419 . S
C589 C584 1.425 . S
C589 C586 1.409 . S
C589 C587 1.415 . S
C590 H580 0.930 . S
C590 C588 1.419 . S
C590 C591 1.362 . S
C591 H581 0.930 . S
C591 C584 1.409 . S
C591 C590 1.362 . S
H592 C598 0.930 1_455 S
H593 C601 0.930 . S
H594 C602 0.930 . S
H595 C603 0.930 . S
H596 C606 0.930 . S
H597 C607 0.930 . S
C598 H592 0.930 1_655 S
C598 C599 1.355 . S
C598 C600 1.415 . S
C599 C598 1.355 . S
C599 C601 1.419 . S
C600 C598 1.415 . S
C600 C605 1.425 . S
C600 C607 1.409 1_655 S
C601 H593 0.930 . S
C601 C599 1.419 . S
C601 C602 1.362 . S
C602 H594 0.930 . S
C602 C601 1.362 . S
C602 C605 1.409 . S
C603 H595 0.930 . S
C603 C604 1.355 1_655 S
C603 C605 1.415 . S
C604 C603 1.355 1_455 S
C604 C606 1.419 . S
C605 C600 1.425 . S
C605 C602 1.409 . S
C605 C603 1.415 . S
C606 H596 0.930 . S
C606 C604 1.419 . S
C606 C607 1.362 . S
C607 H597 0.930 . S
C607 C600 1.409 1_455 S
C607 C606 1.362 . S
H608 C614 0.930 . S
H609 C617 0.930 . S
H610 C618 0.930 . S
H611 C619 0.930 . S
H612 C622 0.930 . S
H613 C623 0.930 . S
C614 H608 0.930 . S
C614 C615 1.355 1_565 S
C614 C616 1.415 . S
C615 C614 1.355 1_545 S
C615 C617 1.419 1_556 S
C616 C614 1.415 . S
C616 C621 1.425 1_566 S
C616 C623 1.409 . S
C617 H609 0.930 . S
C617 C615 1.419 1_554 S
C617 C618 1.362 . S
C618 H610 0.930 . S
C618 C617 1.362 . S
C618 C621 1.409 . S
C619 H611 0.930 . S
C619 C620 1.355 1_545 S
C619 C621 1.415 . S
C620 C619 1.355 1_565 S
C620 C622 1.419 1_554 S
C621 C616 1.425 1_544 S
C621 C618 1.409 . S
C621 C619 1.415 . S
C622 H612 0.930 . S
C622 C620 1.419 1_556 S
C622 C623 1.362 . S
C623 H613 0.930 . S
C623 C616 1.409 . S
C623 C622 1.362 . S
H624 C630 0.930 . S
H625 C633 0.930 . S
H626 C634 0.930 . S
H627 C635 0.930 . S
H628 C638 0.930 . S
H629 C639 0.930 . S
C630 H624 0.930 . S
C630 C631 1.355 . S
C630 C632 1.415 . S
C631 C630 1.355 . S
C631 C633 1.419 1_556 S
C632 C630 1.415 . S
C632 C637 1.425 1_556 S
C632 C639 1.409 . S
C633 H625 0.930 . S
C633 C631 1.419 1_554 S
C633 C634 1.362 . S
C634 H626 0.930 . S
C634 C633 1.362 . S
C634 C637 1.409 . S
C635 H627 0.930 . S
C635 C636 1.355 . S
C635 C637 1.415 . S
C636 C635 1.355 . S
C636 C638 1.419 1_554 S
C637 C632 1.425 1_554 S
C637 C634 1.409 . S
C637 C635 1.415 . S
C638 H628 0.930 . S
C638 C636 1.419 1_556 S
C638 C639 1.362 . S
C639 H629 0.930 . S
C639 C632 1.409 . S
C639 C638 1.362 . S
H640 C646 0.930 . S
H641 C649 0.930 1_556 S
H642 C650 0.930 . S
H643 C651 0.930 . S
H644 C654 0.930 1_554 S
H645 C655 0.930 . S
C646 H640 0.930 . S
C646 C647 1.355 . S
C646 C648 1.415 1_655 S
C647 C646 1.355 . S
C647 C649 1.419 . S
C648 C646 1.415 1_455 S
C648 C653 1.425 1_454 S
C648 C655 1.409 . S
C649 H641 0.930 1_554 S
C649 C647 1.419 . S
C649 C650 1.362 1_554 S
C650 H642 0.930 . S
C650 C649 1.362 1_556 S
C650 C653 1.409 . S
C651 H643 0.930 . S
C651 C652 1.355 . S
C651 C653 1.415 1_455 S
C652 C651 1.355 . S
C652 C654 1.419 . S
C653 C648 1.425 1_656 S
C653 C650 1.409 . S
C653 C651 1.415 1_655 S
C654 H644 0.930 1_556 S
C654 C652 1.419 . S
C654 C655 1.362 1_556 S
C655 H645 0.930 . S
C655 C648 1.409 . S
C655 C654 1.362 1_554 S
H656 C662 0.930 . S
H657 C665 0.930 . S
H658 C666 0.930 . S
H659 C667 0.930 . S
H660 C670 0.930 . S
H661 C671 0.930 . S
C662 H656 0.930 . S
C662 C663 1.355 . S
C662 C664 1.443 . S
C663 C662 1.355 . S
C663 C665 1.419 1_556 S
C664 C662 1.443 . S
C664 C669 1.424 1_446 S
C664 C671 1.382 1_545 S
C665 H657 0.930 . S
C665 C663 1.419 1_554 S
C665 C666 1.362 1_455 S
C666 H658 0.930 . S
C666 C665 1.362 1_655 S
C666 C669 1.382 1_545 S
C667 H659 0.930 . S
C667 C668 1.355 . S
C667 C669 1.443 . S
C668 C667 1.355 . S
C668 C670 1.419 1_554 S
C669 C664 1.424 1_664 S
C669 C666 1.382 1_565 S
C669 C667 1.443 . S
C670 H660 0.930 . S
C670 C668 1.419 1_556 S
C670 C671 1.362 1_655 S
C671 H661 0.930 . S
C671 C664 1.382 1_565 S
C671 C670 1.362 1_455 S
H672 C678 0.930 . S
H673 C681 0.930 . S
H674 C682 0.930 1_655 S
H675 C683 0.930 . S
H676 C686 0.930 . S
H677 C687 0.930 1_455 S
C678 H672 0.930 . S
C678 C679 1.355 . S
C678 C680 1.415 1_545 S
C679 C678 1.355 . S
C679 C681 1.419 . S
C680 C678 1.415 1_565 S
C680 C685 1.425 1_465 S
C680 C687 1.409 1_455 S
C681 H673 0.930 . S
C681 C679 1.419 . S
C681 C682 1.362 . S
C682 H674 0.930 1_455 S
C682 C681 1.362 . S
C682 C685 1.409 1_455 S
C683 H675 0.930 . S
C683 C684 1.355 . S
C683 C685 1.415 1_565 S
C684 C683 1.355 . S
C684 C686 1.419 . S
C685 C680 1.425 1_645 S
C685 C682 1.409 1_655 S
C685 C683 1.415 1_545 S
C686 H676 0.930 . S
C686 C684 1.419 . S
C686 C687 1.362 . S
C687 H677 0.930 1_655 S
C687 C680 1.409 1_655 S
C687 C686 1.362 . S
H688 C694 0.930 . S
H689 C697 0.930 . S
H690 C698 0.930 . S
H691 C699 0.930 . S
H692 C702 0.930 . S
H693 C703 0.930 . S
C694 H688 0.930 . S
C694 C695 1.355 . S
C694 C696 1.415 1_565 S
C695 C694 1.355 . S
C695 C697 1.419 . S
C696 C694 1.415 1_545 S
C696 C701 1.425 1_545 S
C696 C703 1.409 . S
C697 H689 0.930 . S
C697 C695 1.419 . S
C697 C698 1.362 . S
C698 H690 0.930 . S
C698 C697 1.362 . S
C698 C701 1.409 . S
C699 H691 0.930 . S
C699 C700 1.355 . S
C699 C701 1.415 1_545 S
C700 C699 1.355 . S
C700 C702 1.419 . S
C701 C696 1.425 1_565 S
C701 C698 1.409 . S
C701 C699 1.415 1_565 S
C702 H692 0.930 . S
C702 C700 1.419 . S
C702 C703 1.362 . S
C703 H693 0.930 . S
C703 C696 1.409 . S
C703 C702 1.362 . S
H704 C710 0.930 . S
H705 C713 0.930 . S
H706 C714 0.930 . S
H707 C715 0.930 . S
H708 C718 0.930 . S
H709 C719 0.930 . S
C710 H704 0.930 . S
C710 C711 1.355 . S
C710 C712 1.415 . S
C711 C710 1.355 . S
C711 C713 1.419 . S
C712 C710 1.415 . S
C712 C717 1.425 . S
C712 C719 1.409 . S
C713 H705 0.930 . S
C713 C711 1.419 . S
C713 C714 1.362 . S
C714 H706 0.930 . S
C714 C713 1.362 . S
C714 C717 1.409 . S
C715 H707 0.930 . S
C715 C716 1.355 . S
C715 C717 1.415 . S
C716 C715 1.355 . S
C716 C718 1.419 . S
C717 C712 1.425 . S
C717 C714 1.409 . S
C717 C715 1.415 . S
C718 H708 0.930 . S
C718 C716 1.419 . S
C718 C719 1.362 . S
C719 H709 0.930 . S
C719 C712 1.409 . S
C719 C718 1.362 . S
H720 C726 0.930 . S
H721 C729 0.930 . S
H722 C730 0.930 . S
H723 C731 0.930 . S
H724 C734 0.930 . S
H725 C735 0.930 . S
C726 H720 0.930 . S
C726 C727 1.355 . S
C726 C728 1.415 . S
C727 C726 1.355 . S
C727 C729 1.419 1_655 S
C728 C726 1.415 . S
C728 C733 1.425 1_655 S
C728 C735 1.409 . S
C729 H721 0.930 . S
C729 C727 1.419 1_455 S
C729 C730 1.362 . S
C730 H722 0.930 . S
C730 C729 1.362 . S
C730 C733 1.409 . S
C731 H723 0.930 . S
C731 C732 1.355 . S
C731 C733 1.415 . S
C732 C731 1.355 . S
C732 C734 1.419 1_455 S
C733 C728 1.425 1_455 S
C733 C730 1.409 . S
C733 C731 1.415 . S
C734 H724 0.930 . S
C734 C732 1.419 1_655 S
C734 C735 1.362 . S
C735 H725 0.930 . S
C735 C728 1.409 . S
C735 C734 1.362 . S
C231 C79 0.348 . S
C236 C9 0.541 . S
C247 C93 0.477 . S
C252 C23 0.415 . S
C263 C37 0.406 . S
C268 C107 0.419 . S
C279 C51 0.458 . S
C284 C65 0.337 . S
C295 C121 0.588 . S
C300 C191 0.457 . S
C311 C205 0.523 . S
C316 C135 0.385 . S
C327 C219 0.562 . S
C332 C149 0.504 . S
C343 C163 0.523 . S
C348 C177 0.334 . S
C359 C8 1.620 1_565 S
C364 C175 1.514 . S
C375 C189 1.583 . S
C380 C22 1.677 . S
C391 C36 1.679 . S
C396 C203 1.597 . S
C407 C50 1.638 . S
C412 C217 1.544 . S
C423 C64 1.649 . S
C428 C119 1.596 . S
C439 C78 1.673 . S
C444 C133 1.569 . S
C455 C92 1.694 . S
C460 C147 1.622 . S
C471 C106 1.623 . S
C476 C161 1.519 . S
C487 C63 1.531 . S
C492 C120 1.626 . S
C503 C77 1.605 . S
C508 C134 1.690 . S
C519 C91 1.624 . S
C524 C148 1.682 . S
C535 C162 1.640 . S
C540 C105 1.555 . S
C551 C7 1.546 . S
C556 C176 1.630 1_565 S
C567 C190 1.675 . S
C572 C21 1.599 . S
C583 C204 1.692 . S
C588 C35 1.626 . S
C599 C49 1.550 . S
C604 C218 1.631 . S
C615 C115 1.654 . S
C620 C3 1.655 . S
C631 C129 1.643 . S
C636 C17 1.643 . S
C647 C31 1.732 . S
C652 C143 1.732 . S
C663 C157 1.649 . S
C668 C45 1.649 . S
C679 C59 1.660 . S
C684 C171 1.659 . S
C695 C185 1.719 . S
C700 C73 1.719 . S
C711 C199 1.712 . S
C716 C87 1.712 . S
C727 C213 1.556 . S
C732 C101 1.556 . S
