# Generated by pormake.
# Topology wjh, (4)-cn, num edge types: 1
# Building blocks:
#     Node 0, Type 0, BuildingBlock: ESEHIV_clean_sbu_0, # of connection points: 4
#     Node 1, Type 0, BuildingBlock: ESEHIV_clean_sbu_0, # of connection points: 4
#     Node 2, Type 0, BuildingBlock: ESEHIV_clean_sbu_0, # of connection points: 4
#     Node 3, Type 0, BuildingBlock: ESEHIV_clean_sbu_0, # of connection points: 4
#     Node 4, Type 0, BuildingBlock: ESEHIV_clean_sbu_0, # of connection points: 4
#     Node 5, Type 0, BuildingBlock: ESEHIV_clean_sbu_0, # of connection points: 4
#     Node 6, Type 0, BuildingBlock: ESEHIV_clean_sbu_0, # of connection points: 4
#     Node 7, Type 0, BuildingBlock: ESEHIV_clean_sbu_0, # of connection points: 4
#     Node 8, Type 0, BuildingBlock: ESEHIV_clean_sbu_0, # of connection points: 4
#     Node 9, Type 0, BuildingBlock: ESEHIV_clean_sbu_0, # of connection points: 4
#     Node 10, Type 0, BuildingBlock: ESEHIV_clean_sbu_0, # of connection points: 4
#     Node 11, Type 0, BuildingBlock: ESEHIV_clean_sbu_0, # of connection points: 4
#     Edge 12, Type (0, 0), BuildingBlock: UVAHIK_clean_linker_0, # of connection points: 2
#     Edge 13, Type (0, 0), BuildingBlock: UVAHIK_clean_linker_0, # of connection points: 2
#     Edge 14, Type (0, 0), BuildingBlock: UVAHIK_clean_linker_0, # of connection points: 2
#     Edge 15, Type (0, 0), BuildingBlock: UVAHIK_clean_linker_0, # of connection points: 2
#     Edge 16, Type (0, 0), BuildingBlock: UVAHIK_clean_linker_0, # of connection points: 2
#     Edge 17, Type (0, 0), BuildingBlock: UVAHIK_clean_linker_0, # of connection points: 2
#     Edge 18, Type (0, 0), BuildingBlock: UVAHIK_clean_linker_0, # of connection points: 2
#     Edge 19, Type (0, 0), BuildingBlock: UVAHIK_clean_linker_0, # of connection points: 2
#     Edge 20, Type (0, 0), BuildingBlock: UVAHIK_clean_linker_0, # of connection points: 2
#     Edge 21, Type (0, 0), BuildingBlock: UVAHIK_clean_linker_0, # of connection points: 2
#     Edge 22, Type (0, 0), BuildingBlock: UVAHIK_clean_linker_0, # of connection points: 2
#     Edge 23, Type (0, 0), BuildingBlock: UVAHIK_clean_linker_0, # of connection points: 2
#     Edge 24, Type (0, 0), BuildingBlock: UVAHIK_clean_linker_0, # of connection points: 2
#     Edge 25, Type (0, 0), BuildingBlock: UVAHIK_clean_linker_0, # of connection points: 2
#     Edge 26, Type (0, 0), BuildingBlock: UVAHIK_clean_linker_0, # of connection points: 2
#     Edge 27, Type (0, 0), BuildingBlock: UVAHIK_clean_linker_0, # of connection points: 2
#     Edge 28, Type (0, 0), BuildingBlock: UVAHIK_clean_linker_0, # of connection points: 2
#     Edge 29, Type (0, 0), BuildingBlock: UVAHIK_clean_linker_0, # of connection points: 2
#     Edge 30, Type (0, 0), BuildingBlock: UVAHIK_clean_linker_0, # of connection points: 2
#     Edge 31, Type (0, 0), BuildingBlock: UVAHIK_clean_linker_0, # of connection points: 2
#     Edge 32, Type (0, 0), BuildingBlock: UVAHIK_clean_linker_0, # of connection points: 2
#     Edge 33, Type (0, 0), BuildingBlock: UVAHIK_clean_linker_0, # of connection points: 2
#     Edge 34, Type (0, 0), BuildingBlock: UVAHIK_clean_linker_0, # of connection points: 2
#     Edge 35, Type (0, 0), BuildingBlock: UVAHIK_clean_linker_0, # of connection points: 2
# Relax obj value: 0.035
# Max RMSD: 0.087
# Mean RMSD: 0.087
data_MOF--net-wjh--node1-ESEHIV_clean_sbu_0--edge1-UVAHIK_clean_linker_0
_symmetry_space_group_name_H-M    P1
_symmetry_Int_Tables_number       1
_symmetry_cell_setting            triclinic
loop_
_symmetry_equiv_pos_as_xyz
'x, y, z'
_cell_length_a     83.15483
_cell_length_b     83.229463
_cell_length_c     37.589382
_cell_angle_alpha  90.026233
_cell_angle_beta   90.09308
_cell_angle_gamma 119.8622
loop_
_atom_site_label
_atom_site_type_symbol
_atom_site_fract_x
_atom_site_fract_y
_atom_site_fract_z
_atom_type_partial_charge
Cu0 Cu 0.54994 0.16422 0.07346 0.0
N1 N 0.5282 0.14159 0.08117 0.0
N2 N 0.50765 0.11128 0.08306 0.0
C3 C 0.52223 0.12494 0.06555 0.0
C4 C 0.50419 0.11965 0.11032 0.0
C5 C 0.51683 0.1383 0.109 0.0
O6 O 0.55974 0.16549 0.02556 0.0
C7 C 0.56615 0.15482 0.13072 0.0
O8 O 0.55686 0.13801 0.11742 0.0
H9 H 0.52908 0.12266 0.04331 0.0
H10 H 0.51829 0.14867 0.12812 0.0
N11 N 0.54402 0.18306 0.07658 0.0
N12 N 0.54606 0.21035 0.08847 0.0
C13 C 0.55498 0.2005 0.08847 0.0
C14 C 0.52768 0.18184 0.06862 0.0
C15 C 0.52887 0.19862 0.07598 0.0
C16 C 0.5646 0.15458 1.01175 0.0
O17 O 0.56467 0.14157 0.03143 0.0
H18 H 0.56905 0.2057 0.09771 0.0
H19 H 0.51569 0.16953 0.05847 0.0
O20 O 0.56665 0.16822 0.1134 0.0
H21 H 0.49365 0.11267 0.13043 0.0
H22 H 0.51795 0.20195 0.07221 0.0
Cu23 Cu 0.40604 0.54238 0.21333 0.0
N24 N 0.41399 0.52515 0.20881 0.0
N25 N 0.43353 0.51409 0.20494 0.0
C26 C 0.43171 0.52933 0.20419 0.0
C27 C 0.41621 0.49976 0.21017 0.0
C28 C 0.40419 0.50663 0.21255 0.0
O29 O 0.4169 0.55932 0.17332 0.0
C30 C 0.4127 0.56593 0.27545 0.0
O31 O 0.40579 0.57471 0.25774 0.0
H32 H 0.44312 0.54337 0.20172 0.0
H33 H 0.38943 0.49876 0.21748 0.0
N34 N 0.38016 0.53044 0.21085 0.0
N35 N 0.351 0.52402 0.22011 0.0
C36 C 0.36868 0.53319 0.23202 0.0
C37 C 0.36935 0.51899 0.18491 0.0
C38 C 0.35136 0.51505 0.19047 0.0
C39 C 0.40789 0.56464 0.15385 0.0
O40 O 0.39137 0.56121 0.16402 0.0
H41 H 0.37331 0.5424 0.25473 0.0
H42 H 0.37436 0.51441 0.16278 0.0
O43 O 0.41436 0.55318 0.26024 0.0
H44 H 0.4125 0.48535 0.21237 0.0
H45 H 0.33953 0.5065 0.17371 0.0
Cu46 Cu 0.85518 0.39384 0.36064 0.0
N47 N 0.87806 0.39575 0.37112 0.0
N48 N 0.90823 0.40544 0.37755 0.0
C49 C 0.89529 0.40701 0.35844 0.0
C50 C 0.89882 0.39265 0.40273 0.0
C51 C 0.88027 0.38669 0.39862 0.0
O52 O 0.85385 0.40295 0.31327 0.0
C53 C 0.86074 0.41726 0.42 0.0
O54 O 0.87791 0.42634 0.40844 0.0
H55 H 0.89843 0.41675 0.33697 0.0
H56 H 0.86913 0.37693 0.41543 0.0
N57 N 0.83797 0.36865 0.35991 0.0
N58 N 0.81396 0.341 0.37395 0.0
C59 C 0.8235 0.35926 0.38193 0.0
C60 C 0.83767 0.35599 0.33729 0.0
C61 C 0.82287 0.33892 0.34584 0.0
C62 C 0.86489 0.41829 0.29833 0.0
O63 O 0.87899 0.43113 0.31634 0.0
H64 H 0.81999 0.36577 0.40311 0.0
H65 H 0.84762 0.359 0.31624 0.0
O66 O 0.8485 0.40416 0.40104 0.0
H67 H 0.90497 0.38823 0.42313 0.0
H68 H 0.8192 0.32596 0.33274 0.0
Cu69 Cu 0.46798 0.85174 0.56052 0.0
N70 N 0.4896 0.87372 0.57135 0.0
N71 N 0.51005 0.90382 0.57715 0.0
C72 C 0.49512 0.8909 0.55913 0.0
C73 C 0.51412 0.8944 0.60133 0.0
C74 C 0.5015 0.87583 0.59761 0.0
O75 O 0.45742 0.8551 0.51632 0.0
C76 C 0.45108 0.858 0.61983 0.0
O77 O 0.45824 0.87459 0.60573 0.0
H78 H 0.4877 0.89397 0.53903 0.0
H79 H 0.50052 0.86467 0.61394 0.0
N80 N 0.47455 0.83356 0.55344 0.0
N81 N 0.47825 0.80901 0.56132 0.0
C82 C 0.47205 0.81981 0.57565 0.0
C83 C 0.48279 0.83154 0.52436 0.0
C84 C 0.48499 0.81634 0.52904 0.0
C85 C 0.44838 0.84177 0.49463 0.0
O86 O 0.44408 0.82491 0.50414 0.0
H87 H 0.46557 0.8176 0.6015 0.0
H88 H 0.48678 0.84046 0.50128 0.0
O89 O 0.45221 0.84539 0.60265 0.0
H90 H 0.52516 0.90057 0.62085 0.0
H91 H 0.49126 0.8112 0.51033 0.0
Cu92 Cu 0.58561 0.43394 0.72844 0.0
N93 N 0.55999 0.42311 0.73394 0.0
N94 N 0.53413 0.42486 0.73924 0.0
C95 C 0.5527 0.43383 0.74239 0.0
C96 C 0.52937 0.40761 0.72818 0.0
C97 C 0.54542 0.40651 0.72519 0.0
O98 O 0.59067 0.44162 0.67877 0.0
C99 C 0.60494 0.45508 0.79017 0.0
O100 O 0.61679 0.44914 0.78649 0.0
H101 H 0.56107 0.4485 0.74793 0.0
H102 H 0.54643 0.39481 0.71543 0.0
N103 N 0.59521 0.41832 0.73848 0.0
N104 N 0.61777 0.41175 0.74954 0.0
C105 C 0.61305 0.42318 0.7329 0.0
C106 C 0.58811 0.40288 0.75842 0.0
C107 C 0.60202 0.39874 0.76518 0.0
C108 C 0.58324 0.42816 0.6568 0.0
O109 O 0.57452 0.4112 0.66939 0.0
H110 H 0.62276 0.43584 0.71947 0.0
H111 H 0.57429 0.39599 0.76954 0.0
O112 O 0.59448 0.45363 0.76411 0.0
H113 H 0.51545 0.39687 0.72147 0.0
H114 H 0.60102 0.388 0.7828 0.0
Cu115 Cu 0.15321 0.61422 0.8752 0.0
N116 N 0.1301 0.6121 0.88421 0.0
N117 N 0.09966 0.60171 0.88749 0.0
C118 C 0.11334 0.60108 0.86927 0.0
C119 C 0.10813 0.61369 0.91448 0.0
C120 C 0.12686 0.6201 0.9123 0.0
O121 O 0.15436 0.60431 0.82849 0.0
C122 C 0.14745 0.59148 0.9357 0.0
O123 O 0.13033 0.58248 0.92375 0.0
H124 H 0.11105 0.59208 0.84678 0.0
H125 H 0.13737 0.62935 0.93084 0.0
N126 N 0.17052 0.6394 0.87222 0.0
N127 N 0.19465 0.66749 0.88309 0.0
C128 C 0.18329 0.65041 0.89636 0.0
C129 C 0.17382 0.64989 0.84298 0.0
C130 C 0.18872 0.66721 0.84955 0.0
C131 C 0.14359 0.58869 0.81408 0.0
O132 O 0.1299 0.57573 0.83261 0.0
H133 H 0.1847 0.64578 0.92249 0.0
H134 H 0.1662 0.64506 0.81826 0.0
O135 O 0.15984 0.60445 0.91678 0.0
H136 H 0.1012 0.61721 0.93482 0.0
H137 H 0.19485 0.67865 0.831 0.0
Cu138 Cu 0.85118 0.45893 0.85751 0.0
N139 N 0.872 0.48247 0.85433 0.0
N140 N 0.90176 0.50465 0.85237 0.0
C141 C 0.88953 0.48734 0.86341 0.0
C142 C 0.89152 0.5109 0.83588 0.0
C143 C 0.87316 0.49719 0.83717 0.0
O144 O 0.85415 0.44792 0.90133 0.0
C145 C 0.83896 0.4323 0.79815 0.0
O146 O 0.82375 0.42131 0.81577 0.0
H147 H 0.89335 0.47801 0.87598 0.0
H148 H 0.86155 0.49759 0.82509 0.0
N149 N 0.83025 0.46179 0.86098 0.0
N150 N 0.80261 0.45971 0.85267 0.0
C151 C 0.81424 0.45365 0.84225 0.0
C152 C 0.82863 0.47332 0.88389 0.0
C153 C 0.81166 0.47211 0.87881 0.0
C154 C 0.84072 0.43735 0.92159 0.0
O155 O 0.82365 0.43138 0.91072 0.0
H156 H 0.81127 0.44381 0.82102 0.0
H157 H 0.83913 0.48202 0.90299 0.0
O158 O 0.85142 0.44715 0.8127 0.0
H159 H 0.89697 0.52426 0.82309 0.0
H160 H 0.80629 0.47957 0.89359 0.0
Cu161 Cu 0.40546 0.86292 0.0575 0.0
N162 N 0.40289 0.88385 0.05191 0.0
N163 N 0.41045 0.91357 0.0475 0.0
C164 C 0.4158 0.90156 0.05887 0.0
C165 C 0.39356 0.90302 0.03272 0.0
C166 C 0.38893 0.88469 0.03552 0.0
O167 O 0.41935 0.86511 0.1013 0.0
C168 C 0.41379 0.84652 0.99749 0.0
O169 O 0.40343 0.83049 1.01311 0.0
H170 H 0.42917 0.90559 0.07071 0.0
H171 H 0.37654 0.87283 0.02527 0.0
N172 N 0.38221 0.84169 0.06273 0.0
N173 N 0.35508 0.81623 0.05161 0.0
C174 C 0.36888 0.83227 0.03823 0.0
C175 C 0.37648 0.83137 0.09248 0.0
C176 C 0.35981 0.81568 0.08571 0.0
C177 C 0.41599 0.87181 0.12903 0.0
O178 O 0.40429 0.87804 0.12662 0.0
H179 H 0.36975 0.83657 1.01079 0.0
H180 H 0.38424 0.8347 0.11709 0.0
O181 O 0.41719 0.86139 1.01355 0.0
H182 H 0.38527 0.90822 0.02044 0.0
H183 H 0.35193 0.80452 0.10424 0.0
Cu184 Cu 0.57629 0.42833 0.20316 0.0
N185 N 0.58579 0.45365 0.19582 0.0
N186 N 0.5826 0.47858 0.1888 0.0
C187 C 0.5744 0.46004 0.18641 0.0
C188 C 0.59998 0.48428 0.20043 0.0
C189 C 0.60199 0.4688 0.20445 0.0
O190 O 0.57088 0.424 0.25388 0.0
C191 C 0.55304 0.40628 0.14613 0.0
O192 O 0.5585 0.39417 0.15167 0.0
H193 H 0.55979 0.45109 0.18095 0.0
H194 H 0.61401 0.4686 0.21489 0.0
N195 N 0.59232 0.4197 0.18997 0.0
N196 N 0.59924 0.39751 0.17774 0.0
C197 C 0.5893 0.4027 0.19832 0.0
C198 C 0.60508 0.42585 0.16396 0.0
C199 C 0.60946 0.41221 0.15648 0.0
C200 C 0.58518 0.43174 0.27387 0.0
O201 O 0.6016 0.44031 0.25887 0.0
H202 H 0.57866 0.39369 0.21681 0.0
H203 H 0.60957 0.43855 0.14928 0.0
O204 O 0.55504 0.41759 0.1709 0.0
H205 H 0.61017 0.49844 0.20691 0.0
H206 H 0.61813 0.41245 0.13481 0.0
Cu207 Cu 0.15596 0.54719 0.37322 0.0
N208 N 0.13606 0.5235 0.36542 0.0
N209 N 0.10669 0.50081 0.35967 0.0
C210 C 0.11828 0.51747 0.37431 0.0
C211 C 0.1176 0.49615 0.34096 0.0
C212 C 0.13574 0.51019 0.34459 0.0
O213 O 0.15063 0.55612 0.41752 0.0
C214 C 0.17148 0.57125 0.31172 0.0
O215 O 0.18792 0.57601 0.32477 0.0
H216 H 0.11384 0.52566 0.38937 0.0
H217 H 0.14774 0.51106 0.33159 0.0
N218 N 0.17746 0.5456 0.3799 0.0
N219 N 0.20213 0.54193 0.37126 0.0
C220 C 0.18736 0.54198 0.35602 0.0
C221 C 0.18607 0.54765 0.41124 0.0
C222 C 0.20126 0.54554 0.40604 0.0
C223 C 0.16224 0.5706 0.4344 0.0
O224 O 0.17831 0.58183 0.41962 0.0
H225 H 0.18368 0.53935 0.32816 0.0
H226 H 0.18161 0.55048 0.4363 0.0
O227 O 0.15706 0.56083 0.32991 0.0
H228 H 0.11276 0.48373 0.32507 0.0
H229 H 0.21102 0.54688 0.42648 0.0
Cu230 Cu 0.60784 0.15145 0.56982 0.0
N231 N 0.61123 0.13118 0.56333 0.0
N232 N 0.6048 0.10187 0.55822 0.0
C233 C 0.59935 0.11341 0.57183 0.0
C234 C 0.62072 0.1128 0.54066 0.0
C235 C 0.62466 0.13089 0.54391 0.0
O236 O 0.59452 0.14797 0.61457 0.0
C237 C 0.59767 0.16693 0.51063 0.0
O238 O 0.60709 0.18306 0.52657 0.0
H239 H 0.58645 0.10893 0.58588 0.0
H240 H 0.63607 0.14292 0.53166 0.0
N241 N 0.63123 0.17251 0.5739 0.0
N242 N 0.65853 0.19733 0.56076 0.0
C243 C 0.6426 0.18314 0.54774 0.0
C244 C 0.64037 0.17999 0.60443 0.0
C245 C 0.65716 0.19531 0.59647 0.0
C246 C 0.59386 0.1611 0.6307 0.0
O247 O 0.60037 0.17719 0.61471 0.0
H248 H 0.63909 0.18064 0.51979 0.0
H249 H 0.63518 0.17461 0.63068 0.0
O250 O 0.59528 0.15237 0.52649 0.0
H251 H 0.62867 0.10799 0.52584 0.0
H252 H 0.66762 0.20412 0.61555 0.0
Cu253 Cu 0.46389 0.59736 0.71272 0.0
N254 N 0.47959 0.58747 0.70664 0.0
N255 N 0.49008 0.56736 0.70597 0.0
C256 C 0.47613 0.57036 0.71564 0.0
C257 C 0.50285 0.58335 0.69061 0.0
C258 C 0.49634 0.59568 0.69105 0.0
O259 O 0.45151 0.58979 0.75883 0.0
C260 C 0.44172 0.57557 0.65438 0.0
O261 O 0.44442 0.56253 0.66775 0.0
H262 H 0.46337 0.56019 0.72811 0.0
H263 H 0.50323 0.6096 0.68044 0.0
N264 N 0.47774 0.62318 0.71272 0.0
N265 N 0.4853 0.65253 0.70219 0.0
C266 C 0.47348 0.63454 0.69467 0.0
C267 C 0.49284 0.63435 0.73219 0.0
C268 C 0.49751 0.65249 0.72583 0.0
C269 C 0.46159 0.59093 0.7854 0.0
O270 O 0.47912 0.59617 0.77989 0.0
H271 H 0.46155 0.62965 0.6773 0.0
H272 H 0.49979 0.62964 0.75017 0.0
O273 O 0.44745 0.59063 0.67155 0.0
H274 H 0.51602 0.58604 0.67983 0.0
H275 H 0.50896 0.66468 0.73772 0.0
C276 C 0.57944 0.17464 0.18558 0.0
C277 C 0.57258 0.15741 0.16839 0.0
C278 C 0.58279 0.17628 0.22237 0.0
C279 C 0.5679 0.14779 0.3041 0.0
H280 H 0.60986 0.19 0.34806 0.0
C281 C 0.58492 0.14904 0.45377 0.0
C282 C 0.59256 0.16594 0.47236 0.0
C283 C 0.58211 0.14838 0.41693 0.0
C284 C 0.59789 0.17823 0.33631 0.0
H285 H 0.56479 0.12862 0.17642 0.0
H286 H 0.5708 0.13154 0.24017 0.0
H287 H 0.60677 0.18837 0.28335 0.0
H288 H 0.60265 0.19537 0.4666 0.0
H289 H 0.59736 0.19416 0.40252 0.0
H290 H 0.55888 0.13767 0.35684 0.0
C291 C 0.57326 0.14372 0.22538 0.0
C292 C 0.59617 0.17728 0.29912 0.0
C293 C 0.56997 0.14209 0.18867 0.0
C294 C 0.59675 0.18209 0.45323 0.0
C295 C 0.59389 0.18143 0.41634 0.0
C296 C 0.56956 0.14877 0.34121 0.0
C297 C 0.57931 0.16073 0.24289 0.0
C298 C 0.58122 0.16197 0.28251 0.0
C299 C 0.58678 0.16459 0.39755 0.0
C300 C 0.58465 0.16394 0.35791 0.0
H301 H 0.58155 0.18673 0.17088 0.0
H302 H 0.58739 0.18958 0.23495 0.0
H303 H 0.55598 0.13597 0.29232 0.0
H304 H 0.58162 0.13632 0.46748 0.0
H305 H 0.57682 0.13518 0.4035 0.0
C306 C 0.41471 0.58278 0.33265 0.0
C307 C 0.41678 0.56923 0.31413 0.0
C308 C 0.41749 0.58483 0.3696 0.0
C309 C 0.43825 0.57184 0.44475 0.0
H310 H 0.40542 0.58112 0.50348 0.0
C311 C 0.43339 0.55948 0.59531 0.0
C312 C 0.43546 0.57419 0.6169 0.0
C313 C 0.43037 0.55951 0.55874 0.0
C314 C 0.41476 0.57864 0.48735 0.0
H315 H 0.42348 0.54727 0.32015 0.0
H316 H 0.42784 0.55052 0.38392 0.0
H317 H 0.4025 0.58073 0.43861 0.0
H318 H 0.4349 0.59999 0.61711 0.0
H319 H 0.42925 0.5998 0.55309 0.0
H320 H 0.45014 0.56925 0.49342 0.0
C321 C 0.42452 0.55992 0.37012 0.0
C322 C 0.41317 0.57852 0.45017 0.0
C323 C 0.42189 0.55796 0.33336 0.0
C324 C 0.43339 0.58844 0.60127 0.0
C325 C 0.43014 0.58834 0.56462 0.0
C326 C 0.43967 0.57175 0.48176 0.0
C327 C 0.42232 0.57333 0.38887 0.0
C328 C 0.42475 0.57486 0.42836 0.0
C329 C 0.42913 0.57413 0.54285 0.0
C330 C 0.4278 0.57491 0.5035 0.0
H331 H 0.41078 0.59169 0.31868 0.0
H332 H 0.41588 0.59546 0.38302 0.0
H333 H 0.44777 0.56948 0.42897 0.0
H334 H 0.43485 0.54825 0.60636 0.0
H335 H 0.42936 0.54822 0.54269 0.0
C336 C 0.85729 0.44072 0.74144 0.0
C337 C 0.84089 0.42884 0.75992 0.0
C338 C 0.85873 0.43868 0.70483 0.0
C339 C 0.83023 0.41916 0.62341 0.0
H340 H 0.87682 0.42805 0.58304 0.0
C341 C 0.83959 0.40744 0.47339 0.0
C342 C 0.85661 0.41991 0.4574 0.0
C343 C 0.83684 0.40843 0.50999 0.0
C344 C 0.86376 0.42575 0.59375 0.0
H345 H 0.81323 0.40519 0.75412 0.0
H346 H 0.81582 0.40148 0.69018 0.0
H347 H 0.87377 0.42899 0.64725 0.0
H348 H 0.88373 0.44378 0.46728 0.0
H349 H 0.87884 0.44568 0.53061 0.0
H350 H 0.82027 0.41592 0.5697 0.0
C351 C 0.82751 0.41255 0.70406 0.0
C352 C 0.86199 0.42625 0.6307 0.0
C353 C 0.82609 0.41457 0.74083 0.0
C354 C 0.87048 0.43387 0.47863 0.0
C355 C 0.86773 0.43486 0.51511 0.0
C356 C 0.832 0.41863 0.58635 0.0
C357 C 0.84381 0.42469 0.6855 0.0
C358 C 0.84527 0.42314 0.64609 0.0
C359 C 0.85105 0.4219 0.5315 0.0
C360 C 0.84886 0.42211 0.57099 0.0
H361 H 0.86898 0.45191 0.75512 0.0
H362 H 0.87141 0.44845 0.69151 0.0
H363 H 0.81721 0.41692 0.63421 0.0
H364 H 0.82862 0.39645 0.45795 0.0
H365 H 0.82384 0.39817 0.52165 0.0
C366 C 0.43899 0.83812 0.6749 0.0
C367 C 0.44476 0.85511 0.65753 0.0
C368 C 0.43523 0.83632 0.71155 0.0
C369 C 0.44737 0.8647 0.79324 0.0
H370 H 0.40518 0.82202 0.8351 0.0
C371 C 0.42727 0.864 0.94063 0.0
C372 C 0.41935 0.84723 0.9596 0.0
C373 C 0.43079 0.86442 0.90412 0.0
C374 C 0.41722 0.83393 0.824 0.0
H375 H 0.45041 0.88331 0.66511 0.0
H376 H 0.44387 0.88015 0.72858 0.0
H377 H 0.40973 0.8234 0.77076 0.0
H378 H 0.40945 0.81779 0.95497 0.0
H379 H 0.41606 0.81859 0.89157 0.0
H380 H 0.45508 0.87519 0.8462 0.0
C381 C 0.44246 0.86827 0.71404 0.0
C382 C 0.41977 0.83473 0.78701 0.0
C383 C 0.44607 0.87003 0.67749 0.0
C384 C 0.41553 0.83096 0.94125 0.0
C385 C 0.41916 0.8314 0.90472 0.0
C386 C 0.44492 0.86384 0.83016 0.0
C387 C 0.43732 0.85152 0.7317 0.0
C388 C 0.43477 0.85023 0.77113 0.0
C389 C 0.42663 0.84811 0.88549 0.0
C390 C 0.4297 0.84854 0.84613 0.0
H391 H 0.43788 0.82636 0.66042 0.0
H392 H 0.43134 0.82323 0.72434 0.0
H393 H 0.45929 0.87668 0.78199 0.0
H394 H 0.43027 0.87679 0.95373 0.0
H395 H 0.43629 0.87753 0.89033 0.0
C396 C 0.55064 0.39978 0.08056 0.0
C397 C 0.5514 0.41122 0.10882 0.0
C398 C 0.5534 0.40621 0.04545 0.0
C399 C 0.57955 0.44934 0.99725 0.0
H400 H 0.55295 0.42056 0.91436 0.0
C401 C 0.58136 0.45395 0.83325 0.0
C402 C 0.59936 0.45705 0.82671 0.0
C403 C 0.57436 0.45106 0.86792 0.0
C404 C 0.56039 0.42887 0.93726 0.0
H405 H 0.5542 0.43794 0.12169 0.0
H406 H 0.55931 0.4492 0.06062 0.0
H407 H 0.541 0.40888 0.97394 0.0
H408 H 0.62462 0.46117 0.85186 0.0
H409 H 0.61257 0.45668 0.91244 0.0
H410 H 0.59938 0.46893 0.96061 0.0
C411 C 0.5567 0.43529 0.06576 0.0
C412 C 0.55362 0.42211 0.97131 0.0
C413 C 0.55365 0.42876 0.10078 0.0
C414 C 0.61071 0.45879 0.85593 0.0
C415 C 0.6038 0.45621 0.89065 0.0
C416 C 0.5865 0.45594 0.96321 0.0
C417 C 0.55717 0.4243 0.03788 0.0
C418 C 0.56323 0.43218 1.00167 0.0
C419 C 0.58533 0.4516 0.89687 0.0
C420 C 0.5771 0.44567 0.93287 0.0
H421 H 0.54889 0.38619 0.08571 0.0
H422 H 0.5537 0.39743 0.02449 0.0
H423 H 0.58737 0.45731 0.02017 0.0
H424 H 0.5722 0.45251 0.81149 0.0
H425 H 0.56014 0.44775 0.87199 0.0
C426 C 0.15208 0.5674 0.25745 0.0
C427 C 0.16958 0.5757 0.27404 0.0
C428 C 0.15041 0.56993 0.22106 0.0
C429 C 0.17783 0.58391 0.13681 0.0
H430 H 0.13468 0.58484 0.10042 0.0
C431 C 0.16916 0.59935 0.98828 0.0
C432 C 0.15143 0.58856 0.97313 0.0
C433 C 0.17213 0.59794 0.02469 0.0
C434 C 0.14675 0.58444 0.11008 0.0
H435 H 0.19903 0.5937 0.26523 0.0
H436 H 0.19609 0.59857 0.2021 0.0
H437 H 0.13841 0.58313 0.1643 0.0
H438 H 0.12309 0.56737 0.98451 0.0
H439 H 0.12829 0.56495 0.04752 0.0
H440 H 0.18622 0.58548 0.08231 0.0
C441 C 0.18364 0.58969 0.217 0.0
C442 C 0.14889 0.58342 0.14684 0.0
C443 C 0.18532 0.58706 0.2534 0.0
C444 C 0.13693 0.57596 0.99511 0.0
C445 C 0.13987 0.57466 0.03142 0.0
C446 C 0.17575 0.58509 0.09999 0.0
C447 C 0.16618 0.58096 0.20012 0.0
C448 C 0.16437 0.58294 0.16083 0.0
C449 C 0.15742 0.58584 0.04687 0.0
C450 C 0.16007 0.58517 0.08611 0.0
H451 H 0.13964 0.55843 0.27233 0.0
H452 H 0.13673 0.56273 0.20917 0.0
H453 H 0.18981 0.5833 0.14632 0.0
H454 H 0.18064 0.60926 0.97225 0.0
H455 H 0.18582 0.6068 0.03571 0.0
C456 C 0.61005 0.37578 0.1595 0.0
C457 C 0.59614 0.37891 0.17333 0.0
C458 C 0.60653 0.3577 0.15308 0.0
C459 C 0.57289 0.3082 0.17417 0.0
H460 H 0.591 0.29815 0.08674 0.0
C461 C 0.5411 0.23491 0.11418 0.0
C462 C 0.55314 0.22925 0.10008 0.0
C463 C 0.54784 0.25322 0.12516 0.0
C464 C 0.58603 0.30076 0.11149 0.0
H465 H 0.56744 0.36526 0.19065 0.0
H466 H 0.56133 0.33409 0.17944 0.0
H467 H 0.60029 0.33007 0.10265 0.0
H468 H 0.58173 0.23849 0.08631 0.0
H469 H 0.59353 0.27057 0.10545 0.0
H470 H 0.55822 0.27886 0.18247 0.0
C471 C 0.57515 0.3455 0.17436 0.0
C472 C 0.5914 0.31908 0.12069 0.0
C473 C 0.57869 0.36349 0.18087 0.0
C474 C 0.57212 0.24237 0.0973 0.0
C475 C 0.57885 0.26077 0.10798 0.0
C476 C 0.56744 0.28992 0.16486 0.0
C477 C 0.58896 0.34232 0.16021 0.0
C478 C 0.58465 0.32302 0.15188 0.0
C479 C 0.56678 0.26639 0.1221 0.0
C480 C 0.57371 0.28595 0.13315 0.0
H481 H 0.62366 0.38733 0.15358 0.0
H482 H 0.61757 0.35579 0.14255 0.0
H483 H 0.56775 0.3107 0.19879 0.0
H484 H 0.52645 0.22514 0.11704 0.0
H485 H 0.53813 0.25713 0.13557 0.0
C486 C 0.33403 0.52708 0.27114 0.0
C487 C 0.33542 0.52496 0.23442 0.0
C488 C 0.31918 0.52849 0.28499 0.0
C489 C 0.27197 0.52046 0.26221 0.0
H490 H 0.28102 0.55261 0.34345 0.0
C491 C 0.21863 0.54041 0.31722 0.0
C492 C 0.21618 0.53909 0.35441 0.0
C493 C 0.23275 0.53835 0.30137 0.0
C494 C 0.27827 0.54351 0.32086 0.0
H495 H 0.32244 0.52289 0.18333 0.0
H496 H 0.29679 0.52584 0.2072 0.0
H497 H 0.3065 0.54991 0.31817 0.0
H498 H 0.2265 0.53373 0.40362 0.0
H499 H 0.25119 0.53071 0.37611 0.0
H500 H 0.24373 0.51449 0.2647 0.0
C501 C 0.30686 0.52589 0.22557 0.0
C502 C 0.29285 0.54186 0.30644 0.0
C503 C 0.32159 0.52424 0.21181 0.0
C504 C 0.22807 0.53533 0.3751 0.0
C505 C 0.24227 0.53352 0.35932 0.0
C506 C 0.25742 0.52232 0.2764 0.0
C507 C 0.30545 0.5281 0.26237 0.0
C508 C 0.2899 0.53016 0.27713 0.0
C509 C 0.24487 0.53514 0.32236 0.0
C510 C 0.26038 0.53372 0.30611 0.0
H511 H 0.34435 0.52745 0.28924 0.0
H512 H 0.31841 0.52974 0.31352 0.0
H513 H 0.26905 0.51113 0.23998 0.0
H514 H 0.20993 0.54341 0.30029 0.0
H515 H 0.23449 0.53975 0.27278 0.0
C516 C 0.67679 0.20901 0.50526 0.0
C517 C 0.67369 0.21177 0.54094 0.0
C518 C 0.69154 0.22303 0.48622 0.0
C519 C 0.72406 0.27367 0.4864 0.0
H520 H 0.7535 0.26108 0.42471 0.0
C521 C 0.79411 0.32892 0.42744 0.0
C522 C 0.79782 0.32668 0.39185 0.0
C523 C 0.77859 0.31496 0.44485 0.0
C524 C 0.74528 0.26481 0.44151 0.0
H525 H 0.68361 0.23169 0.58426 0.0
H526 H 0.70949 0.25587 0.55143 0.0
H527 H 0.72707 0.23659 0.45632 0.0
H528 H 0.78776 0.30806 0.34651 0.0
H529 H 0.76078 0.28371 0.37692 0.0
H530 H 0.74239 0.30191 0.4718 0.0
C531 C 0.7004 0.24293 0.53801 0.0
C532 C 0.73012 0.25077 0.45961 0.0
C533 C 0.68567 0.22894 0.55701 0.0
C534 C 0.78555 0.31016 0.37407 0.0
C535 C 0.77005 0.29619 0.3915 0.0
C536 C 0.73924 0.28771 0.46836 0.0
C537 C 0.70354 0.24016 0.50239 0.0
C538 C 0.71938 0.25504 0.48239 0.0
C539 C 0.76641 0.29841 0.42712 0.0
C540 C 0.75007 0.28345 0.44581 0.0
H541 H 0.66797 0.19594 0.49208 0.0
H542 H 0.69345 0.22049 0.45871 0.0
H543 H 0.71589 0.27742 0.50326 0.0
H544 H 0.80338 0.34131 0.44217 0.0
H545 H 0.77633 0.317 0.47246 0.0
C546 C 0.48005 0.79202 0.61378 0.0
C547 C 0.47782 0.79299 0.57691 0.0
C548 C 0.48033 0.77673 0.62861 0.0
C549 C 0.46536 0.72774 0.61286 0.0
H550 H 0.50562 0.73613 0.67631 0.0
C551 C 0.47793 0.66818 0.65436 0.0
C552 C 0.48447 0.66834 0.68889 0.0
C553 C 0.47687 0.6834 0.64155 0.0
C554 C 0.49409 0.73347 0.65913 0.0
H555 H 0.4736 0.77849 0.52686 0.0
H556 H 0.47388 0.75171 0.55276 0.0
H557 H 0.50362 0.76247 0.65329 0.0
H558 H 0.49474 0.68442 0.7373 0.0
H559 H 0.49245 0.71079 0.71547 0.0
H560 H 0.45555 0.6988 0.61904 0.0
C561 C 0.47552 0.76282 0.57015 0.0
C562 C 0.493 0.74861 0.64587 0.0
C563 C 0.47552 0.7782 0.55529 0.0
C564 C 0.4899 0.68402 0.7104 0.0
C565 C 0.48861 0.69916 0.69778 0.0
C566 C 0.46629 0.71259 0.62647 0.0
C567 C 0.47808 0.76199 0.60692 0.0
C568 C 0.47873 0.7459 0.62234 0.0
C569 C 0.48209 0.69908 0.66314 0.0
C570 C 0.48078 0.71524 0.64952 0.0
H571 H 0.48197 0.80327 0.63102 0.0
H572 H 0.48222 0.7764 0.65706 0.0
H573 H 0.45407 0.72524 0.59511 0.0
H574 H 0.47388 0.65638 0.63704 0.0
H575 H 0.47217 0.68292 0.61449 0.0
C576 C 0.64009 0.40082 0.76168 0.0
C577 C 0.63637 0.4154 0.75654 0.0
C578 C 0.65805 0.40454 0.77047 0.0
C579 C 0.70033 0.43979 0.8143 0.0
H580 H 0.72581 0.41806 0.76492 0.0
C581 C 0.77778 0.4668 0.83886 0.0
C582 C 0.7843 0.45415 0.83926 0.0
C583 C 0.75975 0.46133 0.82762 0.0
C584 C 0.71882 0.42406 0.77938 0.0
H585 H 0.64862 0.4453 0.75698 0.0
H586 H 0.67968 0.45172 0.77241 0.0
H587 H 0.69406 0.40936 0.74785 0.0
H588 H 0.77704 0.42584 0.82778 0.0
H589 H 0.74531 0.41605 0.80891 0.0
H590 H 0.72464 0.45417 0.84637 0.0
C591 C 0.66879 0.43743 0.7694 0.0
C592 C 0.70064 0.41909 0.76949 0.0
C593 C 0.65101 0.43374 0.76017 0.0
C594 C 0.77244 0.43593 0.8275 0.0
C595 C 0.75426 0.43036 0.81663 0.0
C596 C 0.71834 0.44457 0.82447 0.0
C597 C 0.67251 0.42291 0.77496 0.0
C598 C 0.69133 0.42713 0.78652 0.0
C599 C 0.74758 0.44295 0.81692 0.0
C600 C 0.728 0.43703 0.80681 0.0
H601 H 0.62909 0.38657 0.75902 0.0
H602 H 0.66051 0.39308 0.77471 0.0
H603 H 0.69338 0.44597 0.82835 0.0
H604 H 0.78669 0.48103 0.8471 0.0
H605 H 0.75538 0.47161 0.82728 0.0
C606 C 0.21036 0.68598 0.93662 0.0
C607 C 0.21053 0.68258 0.9001 0.0
C608 C 0.22571 0.70089 0.95286 0.0
C609 C 0.26957 0.74482 0.9316 0.0
H610 H 0.28182 0.73987 0.02892 0.0
C611 C 0.3295 0.80603 1.00803 0.0
C612 C 0.33936 0.80178 0.03305 0.0
C613 C 0.3136 0.79184 0.99159 0.0
C614 C 0.27881 0.74147 1.00155 0.0
H615 H 0.22704 0.69171 0.85212 0.0
H616 H 0.25404 0.71719 0.88042 0.0
H617 H 0.25501 0.71437 1.00085 0.0
H618 H 0.34098 0.77948 0.05921 0.0
H619 H 0.31391 0.75478 0.02971 0.0
H620 H 0.29398 0.77155 0.93172 0.0
C621 C 0.24188 0.70889 0.8965 0.0
C622 C 0.26313 0.72688 0.98558 0.0
C623 C 0.22643 0.6942 0.88022 0.0
C624 C 0.3334 0.78313 0.04052 0.0
C625 C 0.31778 0.76897 0.02371 0.0
C626 C 0.28543 0.75931 0.9474 0.0
C627 C 0.24173 0.71255 0.93304 0.0
C628 C 0.25828 0.72831 0.95033 0.0
C629 C 0.30745 0.77308 0.9994 0.0
C630 C 0.29033 0.75782 0.98258 0.0
H631 H 0.1982 0.67733 0.95244 0.0
H632 H 0.22486 0.70339 0.98087 0.0
H633 H 0.26618 0.74666 0.90464 0.0
H634 H 0.33378 0.82032 1.00202 0.0
H635 H 0.30595 0.79563 0.97339 0.0
C636 C 0.58558 0.14366 0.68876 0.0
C637 C 0.58845 0.1592 0.66891 0.0
C638 C 0.58251 0.14285 0.72557 0.0
C639 C 0.58963 0.17353 0.80343 0.0
H640 H 0.55717 0.12725 0.85127 0.0
C641 C 0.56948 0.17011 0.95211 0.0
C642 C 0.56859 0.15563 0.9729 0.0
C643 C 0.57213 0.17055 0.91523 0.0
C644 C 0.56645 0.14027 0.83839 0.0
H645 H 0.58962 0.18577 0.67226 0.0
H646 H 0.5838 0.18416 0.736 0.0
H647 H 0.56038 0.1277 0.78673 0.0
H648 H 0.57002 0.13032 0.9709 0.0
H649 H 0.57466 0.13111 0.90662 0.0
H650 H 0.59553 0.18611 0.85511 0.0
C651 C 0.58439 0.17277 0.72339 0.0
C652 C 0.56831 0.14054 0.80128 0.0
C653 C 0.58756 0.17362 0.68665 0.0
C654 C 0.57065 0.14171 0.95582 0.0
C655 C 0.57317 0.14208 0.91887 0.0
C656 C 0.58769 0.17328 0.84049 0.0
C657 C 0.58214 0.15752 0.74356 0.0
C658 C 0.57993 0.15718 0.7832 0.0
C659 C 0.57384 0.15645 0.89803 0.0
C660 C 0.57607 0.15665 0.85851 0.0
H661 H 0.58628 0.13234 0.67609 0.0
H662 H 0.58104 0.13096 0.74007 0.0
H663 H 0.59902 0.18657 0.79074 0.0
H664 H 0.56792 0.18105 0.96426 0.0
H665 H 0.5724 0.18174 0.90006 0.0
C666 C 0.43744 0.58643 0.83109 0.0
C667 C 0.45452 0.58779 0.82246 0.0
C668 C 0.43188 0.58507 0.86675 0.0
C669 C 0.45163 0.59487 0.95827 0.0
H670 H 0.40098 0.56204 0.98802 0.0
C671 C 0.43134 0.57364 0.10483 0.0
C672 C 0.41439 0.57141 0.11718 0.0
C673 C 0.43625 0.57748 0.06896 0.0
C674 C 0.41514 0.57149 0.9801 0.0
H675 H 0.47877 0.58799 0.8445 0.0
H676 H 0.469 0.58529 0.90599 0.0
H677 H 0.40891 0.56444 0.92498 0.0
H678 H 0.38967 0.57225 0.10158 0.0
H679 H 0.39833 0.57906 0.03912 0.0
H680 H 0.45793 0.60169 1.01336 0.0
C681 C 0.46007 0.58578 0.88553 0.0
C682 C 0.41968 0.57285 0.94393 0.0
C683 C 0.46561 0.58718 0.85012 0.0
C684 C 0.40283 0.57385 0.09304 0.0
C685 C 0.4077 0.57759 0.05712 0.0
C686 C 0.4471 0.59347 0.99437 0.0
C687 C 0.44331 0.58502 0.89445 0.0
C688 C 0.43805 0.58436 0.9326 0.0
C689 C 0.42431 0.57912 0.0445 0.0
C690 C 0.42885 0.58159 1.00582 0.0
H691 H 0.4286 0.58691 0.81041 0.0
H692 H 0.4189 0.58456 0.87266 0.0
H693 H 0.46584 0.60421 0.95048 0.0
H694 H 0.44056 0.57181 0.12262 0.0
H695 H 0.44908 0.57842 0.06014 0.0
C696 C 0.82965 0.42089 0.98021 0.0
C697 C 0.84426 0.43388 0.95892 0.0
C698 C 0.83249 0.41886 1.01632 0.0
C699 C 0.8625 0.44454 0.0922 0.0
H700 H 0.84118 0.3962 0.13646 0.0
C701 C 0.87665 0.43553 0.24041 0.0
C702 C 0.86246 0.42093 0.25986 0.0
C703 C 0.87478 0.43721 0.20369 0.0
C704 C 0.84701 0.40985 0.12478 0.0
H705 H 0.87344 0.4547 0.95907 0.0
H706 H 0.87833 0.45122 0.02212 0.0
H707 H 0.83744 0.39852 0.0727 0.0
H708 H 0.8349 0.39696 0.25584 0.0
H709 H 0.83136 0.4002 0.19244 0.0
H710 H 0.87171 0.45595 0.14424 0.0
C711 C 0.86466 0.44264 1.01082 0.0
C712 C 0.84493 0.41116 0.08806 0.0
C713 C 0.86188 0.44451 0.97456 0.0
C714 C 0.84618 0.40832 0.24175 0.0
C715 C 0.84423 0.41009 0.20516 0.0
C716 C 0.86443 0.44326 0.12901 0.0
C717 C 0.84995 0.42992 0.03226 0.0
C718 C 0.85262 0.42851 0.07126 0.0
C719 C 0.85857 0.42443 0.18539 0.0
C720 C 0.85667 0.42588 0.14595 0.0
H721 H 0.81589 0.41249 0.96913 0.0
H722 H 0.82081 0.40902 0.03205 0.0
H723 H 0.86839 0.45815 0.08024 0.0
H724 H 0.88944 0.44543 0.25338 0.0
H725 H 0.88626 0.4483 0.18954 0.0
C726 C 0.44727 0.86272 0.44726 0.0
C727 C 0.44481 0.84537 0.45746 0.0
C728 C 0.44492 0.86622 0.41164 0.0
C729 C 0.44674 0.85145 0.32008 0.0
H730 H 0.41677 0.87359 0.29585 0.0
C731 C 0.42636 0.85628 0.17378 0.0
C732 C 0.42312 0.87079 0.1647 0.0
C733 C 0.43024 0.85389 0.20916 0.0
C734 C 0.42553 0.86774 0.30195 0.0
H735 H 0.4379 0.81812 0.43795 0.0
H736 H 0.43409 0.82435 0.37605 0.0
H737 H 0.42101 0.86836 0.358 0.0
H738 H 0.42249 0.89481 0.18509 0.0
H739 H 0.43019 0.89134 0.24594 0.0
H740 H 0.45166 0.85116 0.26425 0.0
C741 C 0.4378 0.83522 0.39559 0.0
C742 C 0.42785 0.86465 0.33774 0.0
C743 C 0.43984 0.83162 0.43119 0.0
C744 C 0.42477 0.88338 0.19131 0.0
C745 C 0.42897 0.88123 0.22641 0.0
C746 C 0.44467 0.8548 0.28426 0.0
C747 C 0.44039 0.85258 0.38532 0.0
C748 C 0.43837 0.85636 0.34725 0.0
C749 C 0.43125 0.86615 0.23621 0.0
C750 C 0.43395 0.86294 0.27455 0.0
H751 H 0.45115 0.87364 0.46674 0.0
H752 H 0.44707 0.87976 0.40454 0.0
H753 H 0.45511 0.84521 0.32657 0.0
H754 H 0.42498 0.84622 0.15392 0.0
H755 H 0.4317 0.84199 0.21542 0.0
C756 C 0.59641 0.4473 0.60117 0.0
C757 C 0.5831 0.43096 0.61789 0.0
C758 C 0.59636 0.449 0.56399 0.0
C759 C 0.56655 0.43041 0.48443 0.0
H760 H 0.61207 0.44357 0.43413 0.0
C761 C 0.56794 0.41983 0.33183 0.0
C762 C 0.58386 0.43247 0.3131 0.0
C763 C 0.56748 0.4206 0.36912 0.0
C764 C 0.59927 0.4402 0.44758 0.0
H765 H 0.55889 0.40393 0.60893 0.0
H766 H 0.55865 0.40706 0.54468 0.0
H767 H 0.61215 0.44453 0.49883 0.0
H768 H 0.61144 0.45632 0.31867 0.0
H769 H 0.61039 0.4581 0.38282 0.0
H770 H 0.55365 0.42626 0.43334 0.0
C771 C 0.5692 0.41848 0.56005 0.0
C772 C 0.59936 0.44074 0.48477 0.0
C773 C 0.56945 0.41666 0.59689 0.0
C774 C 0.59905 0.44615 0.33229 0.0
C775 C 0.5985 0.4471 0.36927 0.0
C776 C 0.5665 0.43012 0.44718 0.0
C777 C 0.58274 0.43455 0.54309 0.0
C778 C 0.58297 0.43565 0.50361 0.0
C779 C 0.58284 0.43419 0.38839 0.0
C780 C 0.58283 0.43485 0.42817 0.0
H781 H 0.60708 0.45854 0.61667 0.0
H782 H 0.60694 0.46158 0.55157 0.0
H783 H 0.55371 0.42652 0.4983 0.0
H784 H 0.55603 0.40913 0.31776 0.0
H785 H 0.55523 0.41027 0.38282 0.0
C786 C 0.17204 0.58868 0.49178 0.0
C787 C 0.15884 0.57324 0.47238 0.0
C788 C 0.16976 0.59032 0.52832 0.0
C789 C 0.14574 0.56211 0.60785 0.0
H790 H 0.15979 0.60974 0.65042 0.0
C791 C 0.13237 0.57004 0.75727 0.0
C792 C 0.14566 0.58595 0.77545 0.0
C793 C 0.13372 0.5682 0.72041 0.0
C794 C 0.15602 0.59634 0.63914 0.0
H795 H 0.1326 0.54758 0.47645 0.0
H796 H 0.12856 0.55052 0.53999 0.0
H797 H 0.16223 0.60739 0.58628 0.0
H798 H 0.17113 0.61216 0.76888 0.0
H799 H 0.17368 0.60879 0.70517 0.0
H800 H 0.13968 0.55107 0.66075 0.0
C801 C 0.14083 0.56128 0.52702 0.0
C802 C 0.15738 0.59499 0.6022 0.0
C803 C 0.14307 0.55968 0.49042 0.0
C804 C 0.16056 0.59975 0.75588 0.0
C805 C 0.16194 0.59788 0.71912 0.0
C806 C 0.14442 0.56346 0.64484 0.0
C807 C 0.15424 0.57653 0.5466 0.0
C808 C 0.15232 0.57787 0.58599 0.0
C809 C 0.14844 0.58219 0.70069 0.0
C810 C 0.14962 0.58062 0.66111 0.0
H811 H 0.1844 0.59937 0.47892 0.0
H812 H 0.18049 0.60217 0.54246 0.0
H813 H 0.14197 0.54873 0.59648 0.0
H814 H 0.12065 0.55916 0.77135 0.0
H815 H 0.12294 0.55599 0.70725 0.0
C816 C 0.49447 0.07945 0.10602 0.0
C817 C 0.49908 0.09162 0.07705 0.0
C818 C 0.48602 0.06035 0.10053 0.0
C819 C 0.45537 0.02358 0.04139 0.0
H820 H 0.47545 0.99504 0.08478 0.0
C821 C 0.42035 0.94426 0.02101 0.0
C822 C 0.42098 0.9335 0.04915 0.0
C823 C 0.43071 0.96362 0.02246 0.0
C824 C 0.46942 1.00269 0.07292 0.0
H825 H 0.4985 0.09343 0.01971 0.0
H826 H 0.48305 0.05973 1.01003 0.0
H827 H 0.49192 0.02866 0.09102 0.0
H828 H 0.43263 0.93448 0.1011 0.0
H829 H 0.45003 0.96819 0.10464 0.0
H830 H 0.43241 0.99776 0.02476 0.0
C831 C 0.48623 0.0651 0.03693 0.0
C832 C 0.479 0.02199 0.07627 0.0
C833 C 0.4951 0.08431 0.04241 0.0
C834 C 0.43207 0.94247 0.07889 0.0
C835 C 0.44214 0.96183 0.08071 0.0
C836 C 0.44558 0.00423 0.03861 0.0
C837 C 0.48166 0.05296 0.06599 0.0
C838 C 0.47203 0.03261 0.06067 0.0
C839 C 0.44168 0.97274 0.05246 0.0
C840 C 0.4524 0.99345 0.0545 0.0
H841 H 0.49759 0.08476 0.13295 0.0
H842 H 0.48257 0.05129 0.12337 0.0
H843 H 0.4496 0.03145 0.02944 0.0
H844 H 0.41212 0.93768 0.99753 0.0
H845 H 0.43023 0.97139 0.9998 0.0
C846 C 0.55963 0.48425 0.15888 0.0
C847 C 0.57297 0.48886 0.18577 0.0
C848 C 0.54743 0.4912 0.1596 0.0
C849 C 0.52449 0.50558 0.22418 0.0
H850 H 0.50551 0.51771 0.14022 0.0
C851 C 0.45229 0.49944 0.21994 0.0
C852 C 0.45055 0.51347 0.20266 0.0
C853 C 0.46889 0.49904 0.21828 0.0
C854 C 0.51077 0.51455 0.164 0.0
H855 H 0.58466 0.50506 0.23357 0.0
H856 H 0.56324 0.51732 0.23501 0.0
H857 H 0.53283 0.51407 0.13546 0.0
H858 H 0.46487 0.53796 0.16969 0.0
H859 H 0.49386 0.53726 0.16676 0.0
H860 H 0.50222 0.50569 0.25257 0.0
C861 C 0.56223 0.50827 0.21336 0.0
C862 C 0.52635 0.51236 0.16122 0.0
C863 C 0.57461 0.50145 0.21236 0.0
C864 C 0.4658 0.52706 0.18354 0.0
C865 C 0.48236 0.52658 0.18164 0.0
C866 C 0.50883 0.50764 0.22689 0.0
C867 C 0.54818 0.5028 0.18749 0.0
C868 C 0.53321 0.50755 0.19117 0.0
C869 C 0.48412 0.51259 0.19908 0.0
C870 C 0.5016 0.51183 0.19672 0.0
H871 H 0.55812 0.47454 0.13815 0.0
H872 H 0.53671 0.48658 0.13944 0.0
H873 H 0.52929 0.50169 0.24768 0.0
H874 H 0.4409 0.48888 0.23519 0.0
H875 H 0.46971 0.48795 0.23166 0.0
C876 C 0.07623 0.48152 0.33081 0.0
C877 C 0.08674 0.49108 0.36086 0.0
C878 C 0.05686 0.47261 0.33162 0.0
C879 C 0.01749 0.45091 0.39176 0.0
H880 H 0.99026 0.46026 0.31857 0.0
C881 C 0.93915 0.42227 0.40513 0.0
C882 C 0.92808 0.41624 0.37441 0.0
C883 C 0.95845 0.43196 0.40259 0.0
C884 C 0.99757 0.45724 0.33894 0.0
H885 H 0.08526 0.49859 0.41539 0.0
H886 H 0.05131 0.48262 0.41715 0.0
H887 H 0.02405 0.47558 0.3156 0.0
H888 H 0.92839 0.41582 0.31694 0.0
H889 H 0.96225 0.43219 0.31221 0.0
H890 H 0.99126 0.43215 0.41462 0.0
C891 C 0.05811 0.48219 0.39289 0.0
C892 C 0.01695 0.4661 0.33728 0.0
C893 C 0.07748 0.49138 0.39186 0.0
C894 C 0.93668 0.42041 0.34097 0.0
C895 C 0.95607 0.42985 0.33837 0.0
C896 C 0.99814 0.44182 0.39313 0.0
C897 C 0.04762 0.4728 0.36272 0.0
C898 C 0.02708 0.46313 0.36386 0.0
C899 C 0.96723 0.43558 0.36923 0.0
C900 C 0.98789 0.44499 0.36696 0.0
H901 H 0.08302 0.48125 0.30645 0.0
H902 H 0.04908 0.46539 0.30807 0.0
H903 H 0.02496 0.44818 0.41232 0.0
H904 H 0.93284 0.41955 0.43122 0.0
H905 H 0.96646 0.43662 0.42694 0.0
C906 C 0.52152 0.93196 0.54031 0.0
C907 C 0.51868 0.92361 0.57391 0.0
C908 C 0.53029 0.95127 0.5373 0.0
C909 C 0.539 0.99302 0.58428 0.0
H910 H 0.58346 0.01865 0.52704 0.0
C911 C 0.58528 0.07256 0.59007 0.0
C912 C 0.59478 0.08195 0.55924 0.0
C913 C 0.5756 0.05319 0.59108 0.0
C914 C 0.57087 0.01178 0.54261 0.0
H915 H 0.52217 0.92871 0.63065 0.0
H916 H 0.5371 0.96244 0.62546 0.0
H917 H 0.56665 0.98491 0.52909 0.0
H918 H 0.60116 0.07857 0.50493 0.0
H919 H 0.58369 0.04485 0.50592 0.0
H920 H 0.54271 0.01966 0.59711 0.0
C921 C 0.53278 0.95408 0.6015 0.0
C922 C 0.56132 0.99243 0.54387 0.0
C923 C 0.52439 0.93485 0.60445 0.0
C924 C 0.5942 0.07164 0.52923 0.0
C925 C 0.58423 0.05229 0.52994 0.0
C926 C 0.54832 0.01236 0.5825 0.0
C927 C 0.53594 0.96247 0.56791 0.0
C928 C 0.54543 0.9829 0.565 0.0
C929 C 0.57487 0.04275 0.56095 0.0
C930 C 0.56453 0.02206 0.56195 0.0
H931 H 0.51726 0.92356 0.51643 0.0
H932 H 0.53254 0.95745 0.51112 0.0
H933 H 0.52666 0.98594 0.60054 0.0
H934 H 0.58567 0.08024 0.61363 0.0
H935 H 0.56894 0.04646 0.61571 0.0
C936 C 0.5092 0.43005 0.71598 0.0
C937 C 0.52296 0.43362 0.74146 0.0
C938 C 0.50118 0.44139 0.71396 0.0
C939 C 0.49734 0.47883 0.76176 0.0
H940 H 0.49614 0.49596 0.66645 0.0
C941 C 0.47994 0.53714 0.73557 0.0
C942 C 0.49087 0.55048 0.70999 0.0
C943 C 0.48078 0.52083 0.73943 0.0
C944 C 0.49645 0.49138 0.69328 0.0
H945 H 0.53804 0.4508 0.78644 0.0
H946 H 0.52429 0.47057 0.78295 0.0
H947 H 0.50223 0.47047 0.67477 0.0
H948 H 0.51102 0.55675 0.66798 0.0
H949 H 0.51289 0.52877 0.67543 0.0
H950 H 0.49254 0.50038 0.78036 0.0
C951 C 0.51955 0.45909 0.76449 0.0
C952 C 0.49965 0.47653 0.69803 0.0
C953 C 0.52756 0.44784 0.76638 0.0
C954 C 0.50256 0.54699 0.68827 0.0
C955 C 0.50343 0.53073 0.69218 0.0
C956 C 0.49419 0.49371 0.75701 0.0
C957 C 0.50669 0.45641 0.73756 0.0
C958 C 0.50056 0.47033 0.73238 0.0
C959 C 0.49258 0.51744 0.71785 0.0
C960 C 0.49412 0.50046 0.72274 0.0
H961 H 0.50548 0.41924 0.69633 0.0
H962 H 0.49112 0.43877 0.6932 0.0
H963 H 0.4977 0.47426 0.78858 0.0
H964 H 0.47089 0.53935 0.75301 0.0
H965 H 0.47211 0.51085 0.75928 0.0
C966 C 0.07244 0.58725 0.84738 0.0
C967 C 0.07996 0.59061 0.88186 0.0
C968 C 0.05319 0.57716 0.84231 0.0
C969 C 0.00984 0.54237 0.88296 0.0
H970 H 0.98646 0.56528 0.83032 0.0
C971 C 0.93039 0.51175 0.88489 0.0
C972 C 0.92169 0.51379 0.85462 0.0
C973 C 0.94976 0.52066 0.88707 0.0
C974 C 0.99269 0.55844 0.84452 0.0
H975 H 0.07341 0.5855 0.9379 0.0
H976 H 0.03984 0.56752 0.92904 0.0
H977 H 0.02015 0.58095 0.83474 0.0
H978 H 0.92633 0.52627 0.80242 0.0
H979 H 0.95999 0.54121 0.80536 0.0
H980 H 0.9826 0.51964 0.89212 0.0
C981 C 0.04878 0.57288 0.906 0.0
C982 C 0.01204 0.56751 0.84713 0.0
C983 C 0.06794 0.58327 0.91107 0.0
C984 C 0.9327 0.52472 0.82633 0.0
C985 C 0.95204 0.53334 0.82816 0.0
C986 C 0.99051 0.53311 0.87981 0.0
C987 C 0.04119 0.5699 0.87162 0.0
C988 C 0.02078 0.55966 0.86672 0.0
C989 C 0.9609 0.53156 0.85865 0.0
C990 C 0.9816 0.54111 0.86091 0.0
H991 H 0.08145 0.59281 0.82449 0.0
H992 H 0.04766 0.57498 0.81552 0.0
H993 H 0.01628 0.53595 0.89799 0.0
H994 H 0.9222 0.50352 0.90717 0.0
H995 H 0.95594 0.5192 0.91132 0.0
loop_
_geom_bond_atom_site_label_1
_geom_bond_atom_site_label_2
_geom_bond_distance
_geom_bond_site_symmetry_2
_ccdc_geom_bond_type
Cu0 N1 1.999 . S
Cu0 O6 1.974 1_554 S
Cu0 N11 1.985 . S
Cu0 O20 1.959 . S
N1 Cu0 1.999 . S
N1 C3 1.263 . S
N1 C5 1.389 . S
N2 C3 1.358 . S
N2 C4 1.400 . S
C3 N1 1.263 . S
C3 N2 1.358 . S
C3 H9 0.930 . S
C4 N2 1.400 . S
C4 C5 1.351 . S
C4 H21 0.930 . S
C5 N1 1.389 . S
C5 C4 1.351 . S
C5 H10 0.930 . S
O6 Cu0 1.974 1_556 S
O6 C16 1.282 . S
C7 O8 1.261 . S
C7 O20 1.251 . S
O8 C7 1.261 . S
H9 C3 0.930 . S
H10 C5 0.930 . S
N11 Cu0 1.985 . S
N11 C13 1.335 . S
N11 C14 1.390 . S
N12 C13 1.345 . S
N12 C15 1.336 . S
C13 N11 1.335 . S
C13 N12 1.345 . S
C13 H18 0.930 . S
C14 N11 1.390 . S
C14 C15 1.346 . S
C14 H19 0.930 1_554 S
C15 N12 1.336 . S
C15 C14 1.346 . S
C15 H22 0.929 . S
C16 O6 1.282 . S
C16 O17 1.216 . S
O17 C16 1.216 . S
H18 C13 0.930 . S
H19 C14 0.930 1_556 S
O20 Cu0 1.959 . S
O20 C7 1.251 . S
H21 C4 0.930 . S
H22 C15 0.929 . S
Cu23 N24 1.999 . S
Cu23 O29 1.974 . S
Cu23 N34 1.985 . S
Cu23 O43 1.959 . S
N24 Cu23 1.999 . S
N24 C26 1.263 . S
N24 C28 1.389 . S
N25 C26 1.358 . S
N25 C27 1.400 . S
C26 N24 1.263 . S
C26 N25 1.358 . S
C26 H32 0.930 . S
C27 N25 1.400 . S
C27 C28 1.351 . S
C27 H44 0.930 . S
C28 N24 1.389 . S
C28 C27 1.351 . S
C28 H33 0.930 . S
O29 Cu23 1.974 . S
O29 C39 1.282 . S
C30 O31 1.261 . S
C30 O43 1.251 . S
O31 C30 1.261 . S
H32 C26 0.930 . S
H33 C28 0.930 . S
N34 Cu23 1.985 . S
N34 C36 1.335 . S
N34 C37 1.390 . S
N35 C36 1.345 . S
N35 C38 1.336 . S
C36 N34 1.335 . S
C36 N35 1.345 . S
C36 H41 0.930 . S
C37 N34 1.390 . S
C37 C38 1.346 . S
C37 H42 0.930 . S
C38 N35 1.336 . S
C38 C37 1.346 . S
C38 H45 0.929 . S
C39 O29 1.282 . S
C39 O40 1.216 . S
O40 C39 1.216 . S
H41 C36 0.930 . S
H42 C37 0.930 . S
O43 Cu23 1.959 . S
O43 C30 1.251 . S
H44 C27 0.930 . S
H45 C38 0.929 . S
Cu46 N47 1.999 . S
Cu46 O52 1.974 . S
Cu46 N57 1.985 . S
Cu46 O66 1.959 . S
N47 Cu46 1.999 . S
N47 C49 1.263 . S
N47 C51 1.389 . S
N48 C49 1.358 . S
N48 C50 1.400 . S
C49 N47 1.263 . S
C49 N48 1.358 . S
C49 H55 0.930 . S
C50 N48 1.400 . S
C50 C51 1.351 . S
C50 H67 0.930 . S
C51 N47 1.389 . S
C51 C50 1.351 . S
C51 H56 0.930 . S
O52 Cu46 1.974 . S
O52 C62 1.282 . S
C53 O54 1.261 . S
C53 O66 1.251 . S
O54 C53 1.261 . S
H55 C49 0.930 . S
H56 C51 0.930 . S
N57 Cu46 1.985 . S
N57 C59 1.335 . S
N57 C60 1.390 . S
N58 C59 1.345 . S
N58 C61 1.336 . S
C59 N57 1.335 . S
C59 N58 1.345 . S
C59 H64 0.930 . S
C60 N57 1.390 . S
C60 C61 1.346 . S
C60 H65 0.930 . S
C61 N58 1.336 . S
C61 C60 1.346 . S
C61 H68 0.929 . S
C62 O52 1.282 . S
C62 O63 1.216 . S
O63 C62 1.216 . S
H64 C59 0.930 . S
H65 C60 0.930 . S
O66 Cu46 1.959 . S
O66 C53 1.251 . S
H67 C50 0.930 . S
H68 C61 0.929 . S
Cu69 N70 1.999 . S
Cu69 O75 1.974 . S
Cu69 N80 1.985 . S
Cu69 O89 1.959 . S
N70 Cu69 1.999 . S
N70 C72 1.263 . S
N70 C74 1.389 . S
N71 C72 1.358 . S
N71 C73 1.400 . S
C72 N70 1.263 . S
C72 N71 1.358 . S
C72 H78 0.930 . S
C73 N71 1.400 . S
C73 C74 1.351 . S
C73 H90 0.930 . S
C74 N70 1.389 . S
C74 C73 1.351 . S
C74 H79 0.930 . S
O75 Cu69 1.974 . S
O75 C85 1.282 . S
C76 O77 1.261 . S
C76 O89 1.251 . S
O77 C76 1.261 . S
H78 C72 0.930 . S
H79 C74 0.930 . S
N80 Cu69 1.985 . S
N80 C82 1.335 . S
N80 C83 1.390 . S
N81 C82 1.345 . S
N81 C84 1.336 . S
C82 N80 1.335 . S
C82 N81 1.345 . S
C82 H87 0.930 . S
C83 N80 1.390 . S
C83 C84 1.346 . S
C83 H88 0.930 . S
C84 N81 1.336 . S
C84 C83 1.346 . S
C84 H91 0.929 . S
C85 O75 1.282 . S
C85 O86 1.216 . S
O86 C85 1.216 . S
H87 C82 0.930 . S
H88 C83 0.930 . S
O89 Cu69 1.959 . S
O89 C76 1.251 . S
H90 C73 0.930 . S
H91 C84 0.929 . S
Cu92 N93 1.999 . S
Cu92 O98 1.974 . S
Cu92 N103 1.985 . S
Cu92 O112 1.959 . S
N93 Cu92 1.999 . S
N93 C95 1.263 . S
N93 C97 1.389 . S
N94 C95 1.358 . S
N94 C96 1.400 . S
C95 N93 1.263 . S
C95 N94 1.358 . S
C95 H101 0.930 . S
C96 N94 1.400 . S
C96 C97 1.351 . S
C96 H113 0.930 . S
C97 N93 1.389 . S
C97 C96 1.351 . S
C97 H102 0.930 . S
O98 Cu92 1.974 . S
O98 C108 1.282 . S
C99 O100 1.261 . S
C99 O112 1.251 . S
O100 C99 1.261 . S
H101 C95 0.930 . S
H102 C97 0.930 . S
N103 Cu92 1.985 . S
N103 C105 1.335 . S
N103 C106 1.390 . S
N104 C105 1.345 . S
N104 C107 1.336 . S
C105 N103 1.335 . S
C105 N104 1.345 . S
C105 H110 0.930 . S
C106 N103 1.390 . S
C106 C107 1.346 . S
C106 H111 0.930 . S
C107 N104 1.336 . S
C107 C106 1.346 . S
C107 H114 0.929 . S
C108 O98 1.282 . S
C108 O109 1.216 . S
O109 C108 1.216 . S
H110 C105 0.930 . S
H111 C106 0.930 . S
O112 Cu92 1.959 . S
O112 C99 1.251 . S
H113 C96 0.930 . S
H114 C107 0.929 . S
Cu115 N116 1.999 . S
Cu115 O121 1.974 . S
Cu115 N126 1.985 . S
Cu115 O135 1.959 . S
N116 Cu115 1.999 . S
N116 C118 1.263 . S
N116 C120 1.389 . S
N117 C118 1.358 . S
N117 C119 1.400 . S
C118 N116 1.263 . S
C118 N117 1.358 . S
C118 H124 0.930 . S
C119 N117 1.400 . S
C119 C120 1.351 . S
C119 H136 0.930 . S
C120 N116 1.389 . S
C120 C119 1.351 . S
C120 H125 0.930 . S
O121 Cu115 1.974 . S
O121 C131 1.282 . S
C122 O123 1.261 . S
C122 O135 1.251 . S
O123 C122 1.261 . S
H124 C118 0.930 . S
H125 C120 0.930 . S
N126 Cu115 1.985 . S
N126 C128 1.335 . S
N126 C129 1.390 . S
N127 C128 1.345 . S
N127 C130 1.336 . S
C128 N126 1.335 . S
C128 N127 1.345 . S
C128 H133 0.930 . S
C129 N126 1.390 . S
C129 C130 1.346 . S
C129 H134 0.930 . S
C130 N127 1.336 . S
C130 C129 1.346 . S
C130 H137 0.929 . S
C131 O121 1.282 . S
C131 O132 1.216 . S
O132 C131 1.216 . S
H133 C128 0.930 . S
H134 C129 0.930 . S
O135 Cu115 1.959 . S
O135 C122 1.251 . S
H136 C119 0.930 . S
H137 C130 0.929 . S
Cu138 N139 1.999 . S
Cu138 O144 1.974 . S
Cu138 N149 1.985 . S
Cu138 O158 1.959 . S
N139 Cu138 1.999 . S
N139 C141 1.263 . S
N139 C143 1.389 . S
N140 C141 1.358 . S
N140 C142 1.400 . S
C141 N139 1.263 . S
C141 N140 1.358 . S
C141 H147 0.930 . S
C142 N140 1.400 . S
C142 C143 1.351 . S
C142 H159 0.930 . S
C143 N139 1.389 . S
C143 C142 1.351 . S
C143 H148 0.930 . S
O144 Cu138 1.974 . S
O144 C154 1.282 . S
C145 O146 1.261 . S
C145 O158 1.251 . S
O146 C145 1.261 . S
H147 C141 0.930 . S
H148 C143 0.930 . S
N149 Cu138 1.985 . S
N149 C151 1.335 . S
N149 C152 1.390 . S
N150 C151 1.345 . S
N150 C153 1.336 . S
C151 N149 1.335 . S
C151 N150 1.345 . S
C151 H156 0.930 . S
C152 N149 1.390 . S
C152 C153 1.346 . S
C152 H157 0.930 . S
C153 N150 1.336 . S
C153 C152 1.346 . S
C153 H160 0.929 . S
C154 O144 1.282 . S
C154 O155 1.216 . S
O155 C154 1.216 . S
H156 C151 0.930 . S
H157 C152 0.930 . S
O158 Cu138 1.959 . S
O158 C145 1.251 . S
H159 C142 0.930 . S
H160 C153 0.929 . S
Cu161 N162 1.999 . S
Cu161 O167 1.974 . S
Cu161 N172 1.985 . S
Cu161 O181 1.959 1_554 S
N162 Cu161 1.999 . S
N162 C164 1.263 . S
N162 C166 1.389 1_554 S
N163 C164 1.358 . S
N163 C165 1.416 . S
C164 N162 1.263 . S
C164 N163 1.358 . S
C164 H170 0.930 . S
C165 N163 1.416 . S
C165 C166 1.346 1_554 S
C165 H182 0.921 1_554 S
C166 N162 1.389 1_556 S
C166 C165 1.346 1_556 S
C166 H171 0.930 . S
O167 Cu161 1.974 . S
O167 C177 1.282 . S
C168 O169 1.261 . S
C168 O181 1.251 . S
O169 C168 1.261 . S
H170 C164 0.930 . S
H171 C166 0.930 . S
N172 Cu161 1.985 . S
N172 C174 1.335 1_554 S
N172 C175 1.390 . S
N173 C174 1.345 1_554 S
N173 C176 1.336 . S
C174 N172 1.335 1_556 S
C174 N173 1.345 1_556 S
C174 H179 0.930 . S
C175 N172 1.390 . S
C175 C176 1.346 . S
C175 H180 0.930 . S
C176 N173 1.336 . S
C176 C175 1.346 . S
C176 H183 0.929 . S
C177 O167 1.282 . S
C177 O178 1.216 . S
O178 C177 1.216 . S
H179 C174 0.930 . S
H180 C175 0.930 . S
O181 Cu161 1.959 1_556 S
O181 C168 1.251 . S
H182 C165 0.921 1_556 S
H183 C176 0.929 . S
Cu184 N185 1.999 . S
Cu184 O190 1.974 . S
Cu184 N195 1.985 . S
Cu184 O204 1.959 . S
N185 Cu184 1.999 . S
N185 C187 1.263 . S
N185 C189 1.389 . S
N186 C187 1.358 . S
N186 C188 1.400 . S
C187 N185 1.263 . S
C187 N186 1.358 . S
C187 H193 0.930 . S
C188 N186 1.400 . S
C188 C189 1.351 . S
C188 H205 0.930 . S
C189 N185 1.389 . S
C189 C188 1.351 . S
C189 H194 0.930 . S
O190 Cu184 1.974 . S
O190 C200 1.282 . S
C191 O192 1.261 . S
C191 O204 1.251 . S
O192 C191 1.261 . S
H193 C187 0.930 . S
H194 C189 0.930 . S
N195 Cu184 1.985 . S
N195 C197 1.335 . S
N195 C198 1.390 . S
N196 C197 1.345 . S
N196 C199 1.336 . S
C197 N195 1.335 . S
C197 N196 1.345 . S
C197 H202 0.930 . S
C198 N195 1.390 . S
C198 C199 1.346 . S
C198 H203 0.930 . S
C199 N196 1.336 . S
C199 C198 1.346 . S
C199 H206 0.929 . S
C200 O190 1.282 . S
C200 O201 1.216 . S
O201 C200 1.216 . S
H202 C197 0.930 . S
H203 C198 0.930 . S
O204 Cu184 1.959 . S
O204 C191 1.251 . S
H205 C188 0.930 . S
H206 C199 0.929 . S
Cu207 N208 1.999 . S
Cu207 O213 1.974 . S
Cu207 N218 1.985 . S
Cu207 O227 1.959 . S
N208 Cu207 1.999 . S
N208 C210 1.263 . S
N208 C212 1.389 . S
N209 C210 1.358 . S
N209 C211 1.400 . S
C210 N208 1.263 . S
C210 N209 1.358 . S
C210 H216 0.930 . S
C211 N209 1.400 . S
C211 C212 1.351 . S
C211 H228 0.930 . S
C212 N208 1.389 . S
C212 C211 1.351 . S
C212 H217 0.930 . S
O213 Cu207 1.974 . S
O213 C223 1.282 . S
C214 O215 1.261 . S
C214 O227 1.251 . S
O215 C214 1.261 . S
H216 C210 0.930 . S
H217 C212 0.930 . S
N218 Cu207 1.985 . S
N218 C220 1.335 . S
N218 C221 1.390 . S
N219 C220 1.345 . S
N219 C222 1.336 . S
C220 N218 1.335 . S
C220 N219 1.345 . S
C220 H225 0.930 . S
C221 N218 1.390 . S
C221 C222 1.346 . S
C221 H226 0.930 . S
C222 N219 1.336 . S
C222 C221 1.346 . S
C222 H229 0.929 . S
C223 O213 1.282 . S
C223 O224 1.216 . S
O224 C223 1.216 . S
H225 C220 0.930 . S
H226 C221 0.930 . S
O227 Cu207 1.959 . S
O227 C214 1.251 . S
H228 C211 0.930 . S
H229 C222 0.929 . S
Cu230 N231 1.999 . S
Cu230 O236 1.974 . S
Cu230 N241 1.985 . S
Cu230 O250 1.959 . S
N231 Cu230 1.999 . S
N231 C233 1.263 . S
N231 C235 1.389 . S
N232 C233 1.358 . S
N232 C234 1.400 . S
C233 N231 1.263 . S
C233 N232 1.358 . S
C233 H239 0.930 . S
C234 N232 1.400 . S
C234 C235 1.351 . S
C234 H251 0.930 . S
C235 N231 1.389 . S
C235 C234 1.351 . S
C235 H240 0.930 . S
O236 Cu230 1.974 . S
O236 C246 1.282 . S
C237 O238 1.261 . S
C237 O250 1.251 . S
O238 C237 1.261 . S
H239 C233 0.930 . S
H240 C235 0.930 . S
N241 Cu230 1.985 . S
N241 C243 1.335 . S
N241 C244 1.390 . S
N242 C243 1.345 . S
N242 C245 1.336 . S
C243 N241 1.335 . S
C243 N242 1.345 . S
C243 H248 0.930 . S
C244 N241 1.390 . S
C244 C245 1.346 . S
C244 H249 0.930 . S
C245 N242 1.336 . S
C245 C244 1.346 . S
C245 H252 0.929 . S
C246 O236 1.282 . S
C246 O247 1.216 . S
O247 C246 1.216 . S
H248 C243 0.930 . S
H249 C244 0.930 . S
O250 Cu230 1.959 . S
O250 C237 1.251 . S
H251 C234 0.930 . S
H252 C245 0.929 . S
Cu253 N254 1.999 . S
Cu253 O259 1.974 . S
Cu253 N264 1.985 . S
Cu253 O273 1.959 . S
N254 Cu253 1.999 . S
N254 C256 1.263 . S
N254 C258 1.389 . S
N255 C256 1.358 . S
N255 C257 1.400 . S
C256 N254 1.263 . S
C256 N255 1.358 . S
C256 H262 0.930 . S
C257 N255 1.400 . S
C257 C258 1.351 . S
C257 H274 0.930 . S
C258 N254 1.389 . S
C258 C257 1.351 . S
C258 H263 0.930 . S
O259 Cu253 1.974 . S
O259 C269 1.282 . S
C260 O261 1.261 . S
C260 O273 1.251 . S
O261 C260 1.261 . S
H262 C256 0.930 . S
H263 C258 0.930 . S
N264 Cu253 1.985 . S
N264 C266 1.335 . S
N264 C267 1.390 . S
N265 C266 1.345 . S
N265 C268 1.336 . S
C266 N264 1.335 . S
C266 N265 1.345 . S
C266 H271 0.930 . S
C267 N264 1.390 . S
C267 C268 1.346 . S
C267 H272 0.930 . S
C268 N265 1.336 . S
C268 C267 1.346 . S
C268 H275 0.929 . S
C269 O259 1.282 . S
C269 O270 1.216 . S
O270 C269 1.216 . S
H271 C266 0.930 . S
H272 C267 0.930 . S
O273 Cu253 1.959 . S
O273 C260 1.251 . S
H274 C257 0.930 . S
H275 C268 0.929 . S
C276 C277 1.349 . S
C276 C278 1.327 . S
C276 H301 0.950 . S
C277 C276 1.349 . S
C277 C293 1.349 . S
C278 C276 1.327 . S
C278 C297 1.429 . S
C278 H302 0.950 . S
C279 C296 1.574 . S
C279 C298 1.368 . S
C279 H303 0.949 . S
H280 C284 0.949 . S
C281 C282 1.349 . S
C281 C283 1.327 . S
C281 H304 0.950 . S
C282 C281 1.349 . S
C282 C294 1.349 . S
C283 C281 1.327 . S
C283 C299 1.429 . S
C283 H305 0.950 . S
C284 H280 0.949 . S
C284 C292 1.574 . S
C284 C300 1.368 . S
H285 C293 0.950 . S
H286 C291 0.950 . S
H287 C292 0.949 . S
H288 C294 0.950 . S
H289 C295 0.950 . S
H290 C296 0.949 . S
C291 H286 0.950 . S
C291 C293 1.327 . S
C291 C297 1.429 . S
C292 C284 1.574 . S
C292 H287 0.949 . S
C292 C298 1.368 . S
C293 C277 1.349 . S
C293 H285 0.950 . S
C293 C291 1.327 . S
C294 C282 1.349 . S
C294 H288 0.950 . S
C294 C295 1.327 . S
C295 H289 0.950 . S
C295 C294 1.327 . S
C295 C299 1.429 . S
C296 C279 1.574 . S
C296 H290 0.949 . S
C296 C300 1.368 . S
C297 C278 1.429 . S
C297 C291 1.429 . S
C297 C298 1.523 . S
C298 C279 1.368 . S
C298 C292 1.368 . S
C298 C297 1.523 . S
C299 C283 1.429 . S
C299 C295 1.429 . S
C299 C300 1.523 . S
C300 C284 1.368 . S
C300 C296 1.368 . S
C300 C299 1.523 . S
H301 C276 0.950 . S
H302 C278 0.950 . S
H303 C279 0.949 . S
H304 C281 0.950 . S
H305 C283 0.950 . S
C306 C307 1.349 . S
C306 C308 1.327 . S
C306 H331 0.950 . S
C307 C306 1.349 . S
C307 C323 1.349 . S
C308 C306 1.327 . S
C308 C327 1.429 . S
C308 H332 0.950 . S
C309 C326 1.574 . S
C309 C328 1.368 . S
C309 H333 0.949 . S
H310 C314 0.949 . S
C311 C312 1.349 . S
C311 C313 1.327 . S
C311 H334 0.950 . S
C312 C311 1.349 . S
C312 C324 1.349 . S
C313 C311 1.327 . S
C313 C329 1.429 . S
C313 H335 0.950 . S
C314 H310 0.949 . S
C314 C322 1.574 . S
C314 C330 1.368 . S
H315 C323 0.950 . S
H316 C321 0.950 . S
H317 C322 0.949 . S
H318 C324 0.950 . S
H319 C325 0.950 . S
H320 C326 0.949 . S
C321 H316 0.950 . S
C321 C323 1.327 . S
C321 C327 1.429 . S
C322 C314 1.574 . S
C322 H317 0.949 . S
C322 C328 1.368 . S
C323 C307 1.349 . S
C323 H315 0.950 . S
C323 C321 1.327 . S
C324 C312 1.349 . S
C324 H318 0.950 . S
C324 C325 1.327 . S
C325 H319 0.950 . S
C325 C324 1.327 . S
C325 C329 1.429 . S
C326 C309 1.574 . S
C326 H320 0.949 . S
C326 C330 1.368 . S
C327 C308 1.429 . S
C327 C321 1.429 . S
C327 C328 1.523 . S
C328 C309 1.368 . S
C328 C322 1.368 . S
C328 C327 1.523 . S
C329 C313 1.429 . S
C329 C325 1.429 . S
C329 C330 1.523 . S
C330 C314 1.368 . S
C330 C326 1.368 . S
C330 C329 1.523 . S
H331 C306 0.950 . S
H332 C308 0.950 . S
H333 C309 0.949 . S
H334 C311 0.950 . S
H335 C313 0.950 . S
C336 C337 1.349 . S
C336 C338 1.327 . S
C336 H361 0.950 . S
C337 C336 1.349 . S
C337 C353 1.349 . S
C338 C336 1.327 . S
C338 C357 1.429 . S
C338 H362 0.950 . S
C339 C356 1.574 . S
C339 C358 1.368 . S
C339 H363 0.949 . S
H340 C344 0.949 . S
C341 C342 1.349 . S
C341 C343 1.327 . S
C341 H364 0.950 . S
C342 C341 1.349 . S
C342 C354 1.349 . S
C343 C341 1.327 . S
C343 C359 1.429 . S
C343 H365 0.950 . S
C344 H340 0.949 . S
C344 C352 1.574 . S
C344 C360 1.368 . S
H345 C353 0.950 . S
H346 C351 0.950 . S
H347 C352 0.949 . S
H348 C354 0.950 . S
H349 C355 0.950 . S
H350 C356 0.949 . S
C351 H346 0.950 . S
C351 C353 1.327 . S
C351 C357 1.429 . S
C352 C344 1.574 . S
C352 H347 0.949 . S
C352 C358 1.368 . S
C353 C337 1.349 . S
C353 H345 0.950 . S
C353 C351 1.327 . S
C354 C342 1.349 . S
C354 H348 0.950 . S
C354 C355 1.327 . S
C355 H349 0.950 . S
C355 C354 1.327 . S
C355 C359 1.429 . S
C356 C339 1.574 . S
C356 H350 0.949 . S
C356 C360 1.368 . S
C357 C338 1.429 . S
C357 C351 1.429 . S
C357 C358 1.523 . S
C358 C339 1.368 . S
C358 C352 1.368 . S
C358 C357 1.523 . S
C359 C343 1.429 . S
C359 C355 1.429 . S
C359 C360 1.523 . S
C360 C344 1.368 . S
C360 C356 1.368 . S
C360 C359 1.523 . S
H361 C336 0.950 . S
H362 C338 0.950 . S
H363 C339 0.949 . S
H364 C341 0.950 . S
H365 C343 0.950 . S
C366 C367 1.349 . S
C366 C368 1.327 . S
C366 H391 0.950 . S
C367 C366 1.349 . S
C367 C383 1.349 . S
C368 C366 1.327 . S
C368 C387 1.429 . S
C368 H392 0.950 . S
C369 C386 1.574 . S
C369 C388 1.368 . S
C369 H393 0.949 . S
H370 C374 0.949 . S
C371 C372 1.349 . S
C371 C373 1.327 . S
C371 H394 0.950 . S
C372 C371 1.349 . S
C372 C384 1.349 . S
C373 C371 1.327 . S
C373 C389 1.429 . S
C373 H395 0.950 . S
C374 H370 0.949 . S
C374 C382 1.574 . S
C374 C390 1.368 . S
H375 C383 0.950 . S
H376 C381 0.950 . S
H377 C382 0.949 . S
H378 C384 0.950 . S
H379 C385 0.950 . S
H380 C386 0.949 . S
C381 H376 0.950 . S
C381 C383 1.327 . S
C381 C387 1.429 . S
C382 C374 1.574 . S
C382 H377 0.949 . S
C382 C388 1.368 . S
C383 C367 1.349 . S
C383 H375 0.950 . S
C383 C381 1.327 . S
C384 C372 1.349 . S
C384 H378 0.950 . S
C384 C385 1.327 . S
C385 H379 0.950 . S
C385 C384 1.327 . S
C385 C389 1.429 . S
C386 C369 1.574 . S
C386 H380 0.949 . S
C386 C390 1.368 . S
C387 C368 1.429 . S
C387 C381 1.429 . S
C387 C388 1.523 . S
C388 C369 1.368 . S
C388 C382 1.368 . S
C388 C387 1.523 . S
C389 C373 1.429 . S
C389 C385 1.429 . S
C389 C390 1.523 . S
C390 C374 1.368 . S
C390 C386 1.368 . S
C390 C389 1.523 . S
H391 C366 0.950 . S
H392 C368 0.950 . S
H393 C369 0.949 . S
H394 C371 0.950 . S
H395 C373 0.950 . S
C396 C397 1.349 . S
C396 C398 1.327 . S
C396 H421 0.950 . S
C397 C396 1.349 . S
C397 C413 1.349 . S
C398 C396 1.327 . S
C398 C417 1.429 . S
C398 H422 0.950 . S
C399 C416 1.574 . S
C399 C418 1.368 . S
C399 H423 0.949 . S
H400 C404 0.949 . S
C401 C402 1.349 . S
C401 C403 1.327 . S
C401 H424 0.950 . S
C402 C401 1.349 . S
C402 C414 1.349 . S
C403 C401 1.327 . S
C403 C419 1.429 . S
C403 H425 0.950 . S
C404 H400 0.949 . S
C404 C412 1.574 . S
C404 C420 1.368 . S
H405 C413 0.950 . S
H406 C411 0.950 . S
H407 C412 0.949 . S
H408 C414 0.950 . S
H409 C415 0.950 . S
H410 C416 0.949 . S
C411 H406 0.950 . S
C411 C413 1.327 . S
C411 C417 1.429 . S
C412 C404 1.574 . S
C412 H407 0.949 . S
C412 C418 1.368 . S
C413 C397 1.349 . S
C413 H405 0.950 . S
C413 C411 1.327 . S
C414 C402 1.349 . S
C414 H408 0.950 . S
C414 C415 1.327 . S
C415 H409 0.950 . S
C415 C414 1.327 . S
C415 C419 1.429 . S
C416 C399 1.574 . S
C416 H410 0.949 . S
C416 C420 1.368 . S
C417 C398 1.429 . S
C417 C411 1.429 . S
C417 C418 1.523 1_554 S
C418 C399 1.368 . S
C418 C412 1.368 . S
C418 C417 1.523 1_556 S
C419 C403 1.429 . S
C419 C415 1.429 . S
C419 C420 1.523 . S
C420 C404 1.368 . S
C420 C416 1.368 . S
C420 C419 1.523 . S
H421 C396 0.950 . S
H422 C398 0.950 . S
H423 C399 0.949 . S
H424 C401 0.950 . S
H425 C403 0.950 . S
C426 C427 1.349 . S
C426 C428 1.327 . S
C426 H451 0.950 . S
C427 C426 1.349 . S
C427 C443 1.349 . S
C428 C426 1.327 . S
C428 C447 1.429 . S
C428 H452 0.950 . S
C429 C446 1.574 . S
C429 C448 1.368 . S
C429 H453 0.949 . S
H430 C434 0.949 . S
C431 C432 1.349 . S
C431 C433 1.327 1_556 S
C431 H454 0.950 . S
C432 C431 1.349 . S
C432 C444 1.349 . S
C433 C431 1.327 1_554 S
C433 C449 1.429 . S
C433 H455 0.950 . S
C434 H430 0.949 . S
C434 C442 1.574 . S
C434 C450 1.368 . S
H435 C443 0.950 . S
H436 C441 0.950 . S
H437 C442 0.949 . S
H438 C444 0.950 . S
H439 C445 0.950 . S
H440 C446 0.949 . S
C441 H436 0.950 . S
C441 C443 1.327 . S
C441 C447 1.429 . S
C442 C434 1.574 . S
C442 H437 0.949 . S
C442 C448 1.368 . S
C443 C427 1.349 . S
C443 H435 0.950 . S
C443 C441 1.327 . S
C444 C432 1.349 . S
C444 H438 0.950 . S
C444 C445 1.327 1_556 S
C445 H439 0.950 . S
C445 C444 1.327 1_554 S
C445 C449 1.429 . S
C446 C429 1.574 . S
C446 H440 0.949 . S
C446 C450 1.368 . S
C447 C428 1.429 . S
C447 C441 1.429 . S
C447 C448 1.523 . S
C448 C429 1.368 . S
C448 C442 1.368 . S
C448 C447 1.523 . S
C449 C433 1.429 . S
C449 C445 1.429 . S
C449 C450 1.523 . S
C450 C434 1.368 . S
C450 C446 1.368 . S
C450 C449 1.523 . S
H451 C426 0.950 . S
H452 C428 0.950 . S
H453 C429 0.949 . S
H454 C431 0.950 . S
H455 C433 0.950 . S
C456 C457 1.349 . S
C456 C458 1.327 . S
C456 H481 0.950 . S
C457 C456 1.349 . S
C457 C473 1.349 . S
C458 C456 1.327 . S
C458 C477 1.429 . S
C458 H482 0.950 . S
C459 C476 1.574 . S
C459 C478 1.368 . S
C459 H483 0.949 . S
H460 C464 0.949 . S
C461 C462 1.349 . S
C461 C463 1.327 . S
C461 H484 0.950 . S
C462 C461 1.349 . S
C462 C474 1.349 . S
C463 C461 1.327 . S
C463 C479 1.429 . S
C463 H485 0.950 . S
C464 H460 0.949 . S
C464 C472 1.574 . S
C464 C480 1.368 . S
H465 C473 0.950 . S
H466 C471 0.950 . S
H467 C472 0.949 . S
H468 C474 0.950 . S
H469 C475 0.950 . S
H470 C476 0.949 . S
C471 H466 0.950 . S
C471 C473 1.327 . S
C471 C477 1.429 . S
C472 C464 1.574 . S
C472 H467 0.949 . S
C472 C478 1.368 . S
C473 C457 1.349 . S
C473 H465 0.950 . S
C473 C471 1.327 . S
C474 C462 1.349 . S
C474 H468 0.950 . S
C474 C475 1.327 . S
C475 H469 0.950 . S
C475 C474 1.327 . S
C475 C479 1.429 . S
C476 C459 1.574 . S
C476 H470 0.949 . S
C476 C480 1.368 . S
C477 C458 1.429 . S
C477 C471 1.429 . S
C477 C478 1.523 . S
C478 C459 1.368 . S
C478 C472 1.368 . S
C478 C477 1.523 . S
C479 C463 1.429 . S
C479 C475 1.429 . S
C479 C480 1.523 . S
C480 C464 1.368 . S
C480 C476 1.368 . S
C480 C479 1.523 . S
H481 C456 0.950 . S
H482 C458 0.950 . S
H483 C459 0.949 . S
H484 C461 0.950 . S
H485 C463 0.950 . S
C486 C487 1.349 . S
C486 C488 1.327 . S
C486 H511 0.950 . S
C487 C486 1.349 . S
C487 C503 1.349 . S
C488 C486 1.327 . S
C488 C507 1.429 . S
C488 H512 0.950 . S
C489 C506 1.574 . S
C489 C508 1.368 . S
C489 H513 0.949 . S
H490 C494 0.949 . S
C491 C492 1.349 . S
C491 C493 1.327 . S
C491 H514 0.950 . S
C492 C491 1.349 . S
C492 C504 1.349 . S
C493 C491 1.327 . S
C493 C509 1.429 . S
C493 H515 0.950 . S
C494 H490 0.949 . S
C494 C502 1.574 . S
C494 C510 1.368 . S
H495 C503 0.950 . S
H496 C501 0.950 . S
H497 C502 0.949 . S
H498 C504 0.950 . S
H499 C505 0.950 . S
H500 C506 0.949 . S
C501 H496 0.950 . S
C501 C503 1.327 . S
C501 C507 1.429 . S
C502 C494 1.574 . S
C502 H497 0.949 . S
C502 C508 1.368 . S
C503 C487 1.349 . S
C503 H495 0.950 . S
C503 C501 1.327 . S
C504 C492 1.349 . S
C504 H498 0.950 . S
C504 C505 1.327 . S
C505 H499 0.950 . S
C505 C504 1.327 . S
C505 C509 1.429 . S
C506 C489 1.574 . S
C506 H500 0.949 . S
C506 C510 1.368 . S
C507 C488 1.429 . S
C507 C501 1.429 . S
C507 C508 1.523 . S
C508 C489 1.368 . S
C508 C502 1.368 . S
C508 C507 1.523 . S
C509 C493 1.429 . S
C509 C505 1.429 . S
C509 C510 1.523 . S
C510 C494 1.368 . S
C510 C506 1.368 . S
C510 C509 1.523 . S
H511 C486 0.950 . S
H512 C488 0.950 . S
H513 C489 0.949 . S
H514 C491 0.950 . S
H515 C493 0.950 . S
C516 C517 1.349 . S
C516 C518 1.327 . S
C516 H541 0.950 . S
C517 C516 1.349 . S
C517 C533 1.349 . S
C518 C516 1.327 . S
C518 C537 1.429 . S
C518 H542 0.950 . S
C519 C536 1.574 . S
C519 C538 1.368 . S
C519 H543 0.949 . S
H520 C524 0.949 . S
C521 C522 1.349 . S
C521 C523 1.327 . S
C521 H544 0.950 . S
C522 C521 1.349 . S
C522 C534 1.349 . S
C523 C521 1.327 . S
C523 C539 1.429 . S
C523 H545 0.950 . S
C524 H520 0.949 . S
C524 C532 1.574 . S
C524 C540 1.368 . S
H525 C533 0.950 . S
H526 C531 0.950 . S
H527 C532 0.949 . S
H528 C534 0.950 . S
H529 C535 0.950 . S
H530 C536 0.949 . S
C531 H526 0.950 . S
C531 C533 1.327 . S
C531 C537 1.429 . S
C532 C524 1.574 . S
C532 H527 0.949 . S
C532 C538 1.368 . S
C533 C517 1.349 . S
C533 H525 0.950 . S
C533 C531 1.327 . S
C534 C522 1.349 . S
C534 H528 0.950 . S
C534 C535 1.327 . S
C535 H529 0.950 . S
C535 C534 1.327 . S
C535 C539 1.429 . S
C536 C519 1.574 . S
C536 H530 0.949 . S
C536 C540 1.368 . S
C537 C518 1.429 . S
C537 C531 1.429 . S
C537 C538 1.523 . S
C538 C519 1.368 . S
C538 C532 1.368 . S
C538 C537 1.523 . S
C539 C523 1.429 . S
C539 C535 1.429 . S
C539 C540 1.523 . S
C540 C524 1.368 . S
C540 C536 1.368 . S
C540 C539 1.523 . S
H541 C516 0.950 . S
H542 C518 0.950 . S
H543 C519 0.949 . S
H544 C521 0.950 . S
H545 C523 0.950 . S
C546 C547 1.349 . S
C546 C548 1.327 . S
C546 H571 0.950 . S
C547 C546 1.349 . S
C547 C563 1.349 . S
C548 C546 1.327 . S
C548 C567 1.429 . S
C548 H572 0.950 . S
C549 C566 1.574 . S
C549 C568 1.368 . S
C549 H573 0.949 . S
H550 C554 0.949 . S
C551 C552 1.349 . S
C551 C553 1.327 . S
C551 H574 0.950 . S
C552 C551 1.349 . S
C552 C564 1.349 . S
C553 C551 1.327 . S
C553 C569 1.429 . S
C553 H575 0.950 . S
C554 H550 0.949 . S
C554 C562 1.574 . S
C554 C570 1.368 . S
H555 C563 0.950 . S
H556 C561 0.950 . S
H557 C562 0.949 . S
H558 C564 0.950 . S
H559 C565 0.950 . S
H560 C566 0.949 . S
C561 H556 0.950 . S
C561 C563 1.327 . S
C561 C567 1.429 . S
C562 C554 1.574 . S
C562 H557 0.949 . S
C562 C568 1.368 . S
C563 C547 1.349 . S
C563 H555 0.950 . S
C563 C561 1.327 . S
C564 C552 1.349 . S
C564 H558 0.950 . S
C564 C565 1.327 . S
C565 H559 0.950 . S
C565 C564 1.327 . S
C565 C569 1.429 . S
C566 C549 1.574 . S
C566 H560 0.949 . S
C566 C570 1.368 . S
C567 C548 1.429 . S
C567 C561 1.429 . S
C567 C568 1.523 . S
C568 C549 1.368 . S
C568 C562 1.368 . S
C568 C567 1.523 . S
C569 C553 1.429 . S
C569 C565 1.429 . S
C569 C570 1.523 . S
C570 C554 1.368 . S
C570 C566 1.368 . S
C570 C569 1.523 . S
H571 C546 0.950 . S
H572 C548 0.950 . S
H573 C549 0.949 . S
H574 C551 0.950 . S
H575 C553 0.950 . S
C576 C577 1.349 . S
C576 C578 1.327 . S
C576 H601 0.950 . S
C577 C576 1.349 . S
C577 C593 1.349 . S
C578 C576 1.327 . S
C578 C597 1.429 . S
C578 H602 0.950 . S
C579 C596 1.574 . S
C579 C598 1.368 . S
C579 H603 0.949 . S
H580 C584 0.949 . S
C581 C582 1.349 . S
C581 C583 1.327 . S
C581 H604 0.950 . S
C582 C581 1.349 . S
C582 C594 1.349 . S
C583 C581 1.327 . S
C583 C599 1.429 . S
C583 H605 0.950 . S
C584 H580 0.949 . S
C584 C592 1.574 . S
C584 C600 1.368 . S
H585 C593 0.950 . S
H586 C591 0.950 . S
H587 C592 0.949 . S
H588 C594 0.950 . S
H589 C595 0.950 . S
H590 C596 0.949 . S
C591 H586 0.950 . S
C591 C593 1.327 . S
C591 C597 1.429 . S
C592 C584 1.574 . S
C592 H587 0.949 . S
C592 C598 1.368 . S
C593 C577 1.349 . S
C593 H585 0.950 . S
C593 C591 1.327 . S
C594 C582 1.349 . S
C594 H588 0.950 . S
C594 C595 1.327 . S
C595 H589 0.950 . S
C595 C594 1.327 . S
C595 C599 1.429 . S
C596 C579 1.574 . S
C596 H590 0.949 . S
C596 C600 1.368 . S
C597 C578 1.429 . S
C597 C591 1.429 . S
C597 C598 1.523 . S
C598 C579 1.368 . S
C598 C592 1.368 . S
C598 C597 1.523 . S
C599 C583 1.429 . S
C599 C595 1.429 . S
C599 C600 1.523 . S
C600 C584 1.368 . S
C600 C596 1.368 . S
C600 C599 1.523 . S
H601 C576 0.950 . S
H602 C578 0.950 . S
H603 C579 0.949 . S
H604 C581 0.950 . S
H605 C583 0.950 . S
C606 C607 1.349 . S
C606 C608 1.327 . S
C606 H631 0.950 . S
C607 C606 1.349 . S
C607 C623 1.349 . S
C608 C606 1.327 . S
C608 C627 1.429 . S
C608 H632 0.950 . S
C609 C626 1.574 . S
C609 C628 1.368 . S
C609 H633 0.949 . S
H610 C614 0.949 1_554 S
C611 C612 1.349 . S
C611 C613 1.327 . S
C611 H634 0.950 . S
C612 C611 1.349 . S
C612 C624 1.349 1_556 S
C613 C611 1.327 . S
C613 C629 1.429 . S
C613 H635 0.950 . S
C614 H610 0.949 1_556 S
C614 C622 1.574 . S
C614 C630 1.368 . S
H615 C623 0.950 . S
H616 C621 0.950 . S
H617 C622 0.949 . S
H618 C624 0.950 . S
H619 C625 0.957 . S
H620 C626 0.949 . S
C621 H616 0.950 . S
C621 C623 1.327 . S
C621 C627 1.429 . S
C622 C614 1.574 . S
C622 H617 0.949 . S
C622 C628 1.368 . S
C623 C607 1.349 . S
C623 H615 0.950 . S
C623 C621 1.327 . S
C624 C612 1.349 1_554 S
C624 H618 0.950 . S
C624 C625 1.329 . S
C625 H619 0.957 . S
C625 C624 1.329 . S
C625 C629 1.419 1_554 S
C626 C609 1.574 . S
C626 H620 0.949 . S
C626 C630 1.368 . S
C627 C608 1.429 . S
C627 C621 1.429 . S
C627 C628 1.523 . S
C628 C609 1.368 . S
C628 C622 1.368 . S
C628 C627 1.523 . S
C629 C613 1.429 . S
C629 C625 1.419 1_556 S
C629 C630 1.523 . S
C630 C614 1.368 . S
C630 C626 1.368 . S
C630 C629 1.523 . S
H631 C606 0.950 . S
H632 C608 0.950 . S
H633 C609 0.949 . S
H634 C611 0.950 . S
H635 C613 0.950 . S
C636 C637 1.349 . S
C636 C638 1.327 . S
C636 H661 0.950 . S
C637 C636 1.349 . S
C637 C653 1.349 . S
C638 C636 1.327 . S
C638 C657 1.429 . S
C638 H662 0.950 . S
C639 C656 1.574 . S
C639 C658 1.368 . S
C639 H663 0.949 . S
H640 C644 0.949 . S
C641 C642 1.349 . S
C641 C643 1.327 . S
C641 H664 0.950 . S
C642 C641 1.349 . S
C642 C654 1.349 . S
C643 C641 1.327 . S
C643 C659 1.429 . S
C643 H665 0.950 . S
C644 H640 0.949 . S
C644 C652 1.574 . S
C644 C660 1.368 . S
H645 C653 0.950 . S
H646 C651 0.950 . S
H647 C652 0.949 . S
H648 C654 0.950 . S
H649 C655 0.950 . S
H650 C656 0.949 . S
C651 H646 0.950 . S
C651 C653 1.327 . S
C651 C657 1.429 . S
C652 C644 1.574 . S
C652 H647 0.949 . S
C652 C658 1.368 . S
C653 C637 1.349 . S
C653 H645 0.950 . S
C653 C651 1.327 . S
C654 C642 1.349 . S
C654 H648 0.950 . S
C654 C655 1.327 . S
C655 H649 0.950 . S
C655 C654 1.327 . S
C655 C659 1.429 . S
C656 C639 1.574 . S
C656 H650 0.949 . S
C656 C660 1.368 . S
C657 C638 1.429 . S
C657 C651 1.429 . S
C657 C658 1.523 . S
C658 C639 1.368 . S
C658 C652 1.368 . S
C658 C657 1.523 . S
C659 C643 1.429 . S
C659 C655 1.429 . S
C659 C660 1.523 . S
C660 C644 1.368 . S
C660 C656 1.368 . S
C660 C659 1.523 . S
H661 C636 0.950 . S
H662 C638 0.950 . S
H663 C639 0.949 . S
H664 C641 0.950 . S
H665 C643 0.950 . S
C666 C667 1.349 . S
C666 C668 1.327 . S
C666 H691 0.950 . S
C667 C666 1.349 . S
C667 C683 1.349 . S
C668 C666 1.327 . S
C668 C687 1.429 . S
C668 H692 0.950 . S
C669 C686 1.574 . S
C669 C688 1.368 . S
C669 H693 0.949 . S
H670 C674 0.949 . S
C671 C672 1.349 . S
C671 C673 1.327 . S
C671 H694 0.950 . S
C672 C671 1.349 . S
C672 C684 1.349 . S
C673 C671 1.327 . S
C673 C689 1.429 . S
C673 H695 0.950 . S
C674 H670 0.949 . S
C674 C682 1.574 . S
C674 C690 1.368 . S
H675 C683 0.950 . S
H676 C681 0.950 . S
H677 C682 0.949 . S
H678 C684 0.950 . S
H679 C685 0.950 . S
H680 C686 0.949 . S
C681 H676 0.950 . S
C681 C683 1.327 . S
C681 C687 1.429 . S
C682 C674 1.574 . S
C682 H677 0.949 . S
C682 C688 1.368 . S
C683 C667 1.349 . S
C683 H675 0.950 . S
C683 C681 1.327 . S
C684 C672 1.349 . S
C684 H678 0.950 . S
C684 C685 1.327 . S
C685 H679 0.950 . S
C685 C684 1.327 . S
C685 C689 1.429 . S
C686 C669 1.574 . S
C686 H680 0.949 . S
C686 C690 1.368 . S
C687 C668 1.429 . S
C687 C681 1.429 . S
C687 C688 1.523 . S
C688 C669 1.368 . S
C688 C682 1.368 . S
C688 C687 1.523 . S
C689 C673 1.429 . S
C689 C685 1.429 . S
C689 C690 1.523 1_554 S
C690 C674 1.368 . S
C690 C686 1.368 . S
C690 C689 1.523 1_556 S
H691 C666 0.950 . S
H692 C668 0.950 . S
H693 C669 0.949 . S
H694 C671 0.950 . S
H695 C673 0.950 . S
C696 C697 1.349 . S
C696 C698 1.327 1_556 S
C696 H721 0.950 . S
C697 C696 1.349 . S
C697 C713 1.349 . S
C698 C696 1.327 1_554 S
C698 C717 1.429 . S
C698 H722 0.950 . S
C699 C716 1.574 . S
C699 C718 1.368 . S
C699 H723 0.949 . S
H700 C704 0.949 . S
C701 C702 1.349 . S
C701 C703 1.327 . S
C701 H724 0.950 . S
C702 C701 1.349 . S
C702 C714 1.349 . S
C703 C701 1.327 . S
C703 C719 1.429 . S
C703 H725 0.950 . S
C704 H700 0.949 . S
C704 C712 1.574 . S
C704 C720 1.368 . S
H705 C713 0.950 . S
H706 C711 0.950 . S
H707 C712 0.949 . S
H708 C714 0.950 . S
H709 C715 0.950 . S
H710 C716 0.949 . S
C711 H706 0.950 . S
C711 C713 1.327 1_554 S
C711 C717 1.429 . S
C712 C704 1.574 . S
C712 H707 0.949 . S
C712 C718 1.368 . S
C713 C697 1.349 . S
C713 H705 0.950 . S
C713 C711 1.327 1_556 S
C714 C702 1.349 . S
C714 H708 0.950 . S
C714 C715 1.327 . S
C715 H709 0.950 . S
C715 C714 1.327 . S
C715 C719 1.429 . S
C716 C699 1.574 . S
C716 H710 0.949 . S
C716 C720 1.368 . S
C717 C698 1.429 . S
C717 C711 1.429 . S
C717 C718 1.523 . S
C718 C699 1.368 . S
C718 C712 1.368 . S
C718 C717 1.523 . S
C719 C703 1.429 . S
C719 C715 1.429 . S
C719 C720 1.523 . S
C720 C704 1.368 . S
C720 C716 1.368 . S
C720 C719 1.523 . S
H721 C696 0.950 . S
H722 C698 0.950 . S
H723 C699 0.949 . S
H724 C701 0.950 . S
H725 C703 0.950 . S
C726 C727 1.349 . S
C726 C728 1.327 . S
C726 H751 0.950 . S
C727 C726 1.349 . S
C727 C743 1.349 . S
C728 C726 1.327 . S
C728 C747 1.429 . S
C728 H752 0.950 . S
C729 C746 1.574 . S
C729 C748 1.368 . S
C729 H753 0.949 . S
H730 C734 0.949 . S
C731 C732 1.349 . S
C731 C733 1.327 . S
C731 H754 0.950 . S
C732 C731 1.349 . S
C732 C744 1.349 . S
C733 C731 1.327 . S
C733 C749 1.429 . S
C733 H755 0.950 . S
C734 H730 0.949 . S
C734 C742 1.574 . S
C734 C750 1.368 . S
H735 C743 0.950 . S
H736 C741 0.950 . S
H737 C742 0.949 . S
H738 C744 0.950 . S
H739 C745 0.950 . S
H740 C746 0.949 . S
C741 H736 0.950 . S
C741 C743 1.327 . S
C741 C747 1.429 . S
C742 C734 1.574 . S
C742 H737 0.949 . S
C742 C748 1.368 . S
C743 C727 1.349 . S
C743 H735 0.950 . S
C743 C741 1.327 . S
C744 C732 1.349 . S
C744 H738 0.950 . S
C744 C745 1.327 . S
C745 H739 0.950 . S
C745 C744 1.327 . S
C745 C749 1.429 . S
C746 C729 1.574 . S
C746 H740 0.949 . S
C746 C750 1.368 . S
C747 C728 1.429 . S
C747 C741 1.429 . S
C747 C748 1.523 . S
C748 C729 1.368 . S
C748 C742 1.368 . S
C748 C747 1.523 . S
C749 C733 1.429 . S
C749 C745 1.429 . S
C749 C750 1.523 . S
C750 C734 1.368 . S
C750 C746 1.368 . S
C750 C749 1.523 . S
H751 C726 0.950 . S
H752 C728 0.950 . S
H753 C729 0.949 . S
H754 C731 0.950 . S
H755 C733 0.950 . S
C756 C757 1.349 . S
C756 C758 1.327 . S
C756 H781 0.950 . S
C757 C756 1.349 . S
C757 C773 1.349 . S
C758 C756 1.327 . S
C758 C777 1.429 . S
C758 H782 0.950 . S
C759 C776 1.574 . S
C759 C778 1.368 . S
C759 H783 0.949 . S
H760 C764 0.949 . S
C761 C762 1.349 . S
C761 C763 1.327 . S
C761 H784 0.950 . S
C762 C761 1.349 . S
C762 C774 1.349 . S
C763 C761 1.327 . S
C763 C779 1.429 . S
C763 H785 0.950 . S
C764 H760 0.949 . S
C764 C772 1.574 . S
C764 C780 1.368 . S
H765 C773 0.950 . S
H766 C771 0.950 . S
H767 C772 0.949 . S
H768 C774 0.950 . S
H769 C775 0.950 . S
H770 C776 0.949 . S
C771 H766 0.950 . S
C771 C773 1.327 . S
C771 C777 1.429 . S
C772 C764 1.574 . S
C772 H767 0.949 . S
C772 C778 1.368 . S
C773 C757 1.349 . S
C773 H765 0.950 . S
C773 C771 1.327 . S
C774 C762 1.349 . S
C774 H768 0.950 . S
C774 C775 1.327 . S
C775 H769 0.950 . S
C775 C774 1.327 . S
C775 C779 1.429 . S
C776 C759 1.574 . S
C776 H770 0.949 . S
C776 C780 1.368 . S
C777 C758 1.429 . S
C777 C771 1.429 . S
C777 C778 1.523 . S
C778 C759 1.368 . S
C778 C772 1.368 . S
C778 C777 1.523 . S
C779 C763 1.429 . S
C779 C775 1.429 . S
C779 C780 1.523 . S
C780 C764 1.368 . S
C780 C776 1.368 . S
C780 C779 1.523 . S
H781 C756 0.950 . S
H782 C758 0.950 . S
H783 C759 0.949 . S
H784 C761 0.950 . S
H785 C763 0.950 . S
C786 C787 1.349 . S
C786 C788 1.327 . S
C786 H811 0.950 . S
C787 C786 1.349 . S
C787 C803 1.349 . S
C788 C786 1.327 . S
C788 C807 1.429 . S
C788 H812 0.950 . S
C789 C806 1.574 . S
C789 C808 1.368 . S
C789 H813 0.949 . S
H790 C794 0.949 . S
C791 C792 1.349 . S
C791 C793 1.327 . S
C791 H814 0.950 . S
C792 C791 1.349 . S
C792 C804 1.349 . S
C793 C791 1.327 . S
C793 C809 1.429 . S
C793 H815 0.950 . S
C794 H790 0.949 . S
C794 C802 1.574 . S
C794 C810 1.368 . S
H795 C803 0.950 . S
H796 C801 0.950 . S
H797 C802 0.949 . S
H798 C804 0.950 . S
H799 C805 0.950 . S
H800 C806 0.949 . S
C801 H796 0.950 . S
C801 C803 1.327 . S
C801 C807 1.429 . S
C802 C794 1.574 . S
C802 H797 0.949 . S
C802 C808 1.368 . S
C803 C787 1.349 . S
C803 H795 0.950 . S
C803 C801 1.327 . S
C804 C792 1.349 . S
C804 H798 0.950 . S
C804 C805 1.327 . S
C805 H799 0.950 . S
C805 C804 1.327 . S
C805 C809 1.429 . S
C806 C789 1.574 . S
C806 H800 0.949 . S
C806 C810 1.368 . S
C807 C788 1.429 . S
C807 C801 1.429 . S
C807 C808 1.523 . S
C808 C789 1.368 . S
C808 C802 1.368 . S
C808 C807 1.523 . S
C809 C793 1.429 . S
C809 C805 1.429 . S
C809 C810 1.523 . S
C810 C794 1.368 . S
C810 C806 1.368 . S
C810 C809 1.523 . S
H811 C786 0.950 . S
H812 C788 0.950 . S
H813 C789 0.949 . S
H814 C791 0.950 . S
H815 C793 0.950 . S
C816 C817 1.349 . S
C816 C818 1.327 . S
C816 H841 0.950 . S
C817 C816 1.349 . S
C817 C833 1.349 . S
C818 C816 1.327 . S
C818 C837 1.429 . S
C818 H842 0.950 . S
C819 C836 1.574 1_545 S
C819 C838 1.368 . S
C819 H843 0.949 1_554 S
H820 C824 0.949 . S
C821 C822 1.349 . S
C821 C823 1.327 . S
C821 H844 0.950 1_554 S
C822 C821 1.349 . S
C822 C834 1.349 . S
C823 C821 1.327 . S
C823 C839 1.429 . S
C823 H845 0.950 1_554 S
C824 H820 0.949 . S
C824 C832 1.574 1_565 S
C824 C840 1.368 . S
H825 C833 0.950 1_556 S
H826 C831 0.950 1_556 S
H827 C832 0.949 . S
H828 C834 0.950 . S
H829 C835 0.950 . S
H830 C836 0.949 1_556 S
C831 H826 0.950 1_554 S
C831 C833 1.327 . S
C831 C837 1.429 . S
C832 C824 1.574 1_545 S
C832 H827 0.949 . S
C832 C838 1.368 . S
C833 C817 1.349 . S
C833 H825 0.950 1_554 S
C833 C831 1.327 . S
C834 C822 1.349 . S
C834 H828 0.950 . S
C834 C835 1.327 . S
C835 H829 0.950 . S
C835 C834 1.327 . S
C835 C839 1.429 . S
C836 C819 1.574 1_565 S
C836 H830 0.949 1_554 S
C836 C840 1.368 . S
C837 C818 1.429 . S
C837 C831 1.429 . S
C837 C838 1.523 . S
C838 C819 1.368 . S
C838 C832 1.368 . S
C838 C837 1.523 . S
C839 C823 1.429 . S
C839 C835 1.429 . S
C839 C840 1.523 . S
C840 C824 1.368 . S
C840 C836 1.368 . S
C840 C839 1.523 . S
H841 C816 0.950 . S
H842 C818 0.950 . S
H843 C819 0.949 1_556 S
H844 C821 0.950 1_556 S
H845 C823 0.950 1_556 S
C846 C847 1.349 . S
C846 C848 1.327 . S
C846 H871 0.950 . S
C847 C846 1.349 . S
C847 C863 1.349 . S
C848 C846 1.327 . S
C848 C867 1.429 . S
C848 H872 0.950 . S
C849 C866 1.574 . S
C849 C868 1.368 . S
C849 H873 0.949 . S
H850 C854 0.949 . S
C851 C852 1.349 . S
C851 C853 1.327 . S
C851 H874 0.950 . S
C852 C851 1.349 . S
C852 C864 1.349 . S
C853 C851 1.327 . S
C853 C869 1.429 . S
C853 H875 0.950 . S
C854 H850 0.949 . S
C854 C862 1.574 . S
C854 C870 1.368 . S
H855 C863 0.950 . S
H856 C861 0.950 . S
H857 C862 0.949 . S
H858 C864 0.950 . S
H859 C865 0.950 . S
H860 C866 0.949 . S
C861 H856 0.950 . S
C861 C863 1.327 . S
C861 C867 1.429 . S
C862 C854 1.574 . S
C862 H857 0.949 . S
C862 C868 1.368 . S
C863 C847 1.349 . S
C863 H855 0.950 . S
C863 C861 1.327 . S
C864 C852 1.349 . S
C864 H858 0.950 . S
C864 C865 1.327 . S
C865 H859 0.950 . S
C865 C864 1.327 . S
C865 C869 1.429 . S
C866 C849 1.574 . S
C866 H860 0.949 . S
C866 C870 1.368 . S
C867 C848 1.429 . S
C867 C861 1.429 . S
C867 C868 1.523 . S
C868 C849 1.368 . S
C868 C862 1.368 . S
C868 C867 1.523 . S
C869 C853 1.429 . S
C869 C865 1.429 . S
C869 C870 1.523 . S
C870 C854 1.368 . S
C870 C866 1.368 . S
C870 C869 1.523 . S
H871 C846 0.950 . S
H872 C848 0.950 . S
H873 C849 0.949 . S
H874 C851 0.950 . S
H875 C853 0.950 . S
C876 C877 1.349 . S
C876 C878 1.327 . S
C876 H901 0.950 . S
C877 C876 1.349 . S
C877 C893 1.349 . S
C878 C876 1.327 . S
C878 C897 1.429 . S
C878 H902 0.950 . S
C879 C896 1.574 1_455 S
C879 C898 1.368 . S
C879 H903 0.949 . S
H880 C884 0.949 . S
C881 C882 1.349 . S
C881 C883 1.327 . S
C881 H904 0.950 . S
C882 C881 1.349 . S
C882 C894 1.349 . S
C883 C881 1.327 . S
C883 C899 1.429 . S
C883 H905 0.950 . S
C884 H880 0.949 . S
C884 C892 1.574 1_655 S
C884 C900 1.368 . S
H885 C893 0.950 . S
H886 C891 0.950 . S
H887 C892 0.949 . S
H888 C894 0.950 . S
H889 C895 0.950 . S
H890 C896 0.949 . S
C891 H886 0.950 . S
C891 C893 1.327 . S
C891 C897 1.429 . S
C892 C884 1.574 1_455 S
C892 H887 0.949 . S
C892 C898 1.368 . S
C893 C877 1.349 . S
C893 H885 0.950 . S
C893 C891 1.327 . S
C894 C882 1.349 . S
C894 H888 0.950 . S
C894 C895 1.327 . S
C895 H889 0.950 . S
C895 C894 1.327 . S
C895 C899 1.429 . S
C896 C879 1.574 1_655 S
C896 H890 0.949 . S
C896 C900 1.368 . S
C897 C878 1.429 . S
C897 C891 1.429 . S
C897 C898 1.523 . S
C898 C879 1.368 . S
C898 C892 1.368 . S
C898 C897 1.523 . S
C899 C883 1.429 . S
C899 C895 1.429 . S
C899 C900 1.523 . S
C900 C884 1.368 . S
C900 C896 1.368 . S
C900 C899 1.523 . S
H901 C876 0.950 . S
H902 C878 0.950 . S
H903 C879 0.949 . S
H904 C881 0.950 . S
H905 C883 0.950 . S
C906 C907 1.349 . S
C906 C908 1.327 . S
C906 H931 0.950 . S
C907 C906 1.349 . S
C907 C923 1.349 . S
C908 C906 1.327 . S
C908 C927 1.429 . S
C908 H932 0.950 . S
C909 C926 1.574 1_565 S
C909 C928 1.368 . S
C909 H933 0.949 . S
H910 C914 0.949 . S
C911 C912 1.349 . S
C911 C913 1.327 . S
C911 H934 0.950 . S
C912 C911 1.349 . S
C912 C924 1.349 . S
C913 C911 1.327 . S
C913 C929 1.429 . S
C913 H935 0.950 . S
C914 H910 0.949 . S
C914 C922 1.574 1_545 S
C914 C930 1.368 . S
H915 C923 0.950 . S
H916 C921 0.950 . S
H917 C922 0.949 . S
H918 C924 0.950 . S
H919 C925 0.950 . S
H920 C926 0.949 . S
C921 H916 0.950 . S
C921 C923 1.327 . S
C921 C927 1.429 . S
C922 C914 1.574 1_565 S
C922 H917 0.949 . S
C922 C928 1.368 . S
C923 C907 1.349 . S
C923 H915 0.950 . S
C923 C921 1.327 . S
C924 C912 1.349 . S
C924 H918 0.950 . S
C924 C925 1.327 . S
C925 H919 0.950 . S
C925 C924 1.327 . S
C925 C929 1.429 . S
C926 C909 1.574 1_545 S
C926 H920 0.949 . S
C926 C930 1.368 . S
C927 C908 1.429 . S
C927 C921 1.429 . S
C927 C928 1.523 . S
C928 C909 1.368 . S
C928 C922 1.368 . S
C928 C927 1.523 . S
C929 C913 1.429 . S
C929 C925 1.429 . S
C929 C930 1.523 . S
C930 C914 1.368 . S
C930 C926 1.368 . S
C930 C929 1.523 . S
H931 C906 0.950 . S
H932 C908 0.950 . S
H933 C909 0.949 . S
H934 C911 0.950 . S
H935 C913 0.950 . S
C936 C937 1.349 . S
C936 C938 1.327 . S
C936 H961 0.950 . S
C937 C936 1.349 . S
C937 C953 1.349 . S
C938 C936 1.327 . S
C938 C957 1.429 . S
C938 H962 0.950 . S
C939 C956 1.574 . S
C939 C958 1.368 . S
C939 H963 0.949 . S
H940 C944 0.949 . S
C941 C942 1.349 . S
C941 C943 1.327 . S
C941 H964 0.950 . S
C942 C941 1.349 . S
C942 C954 1.349 . S
C943 C941 1.327 . S
C943 C959 1.429 . S
C943 H965 0.950 . S
C944 H940 0.949 . S
C944 C952 1.574 . S
C944 C960 1.368 . S
H945 C953 0.950 . S
H946 C951 0.950 . S
H947 C952 0.949 . S
H948 C954 0.950 . S
H949 C955 0.950 . S
H950 C956 0.949 . S
C951 H946 0.950 . S
C951 C953 1.327 . S
C951 C957 1.429 . S
C952 C944 1.574 . S
C952 H947 0.949 . S
C952 C958 1.368 . S
C953 C937 1.349 . S
C953 H945 0.950 . S
C953 C951 1.327 . S
C954 C942 1.349 . S
C954 H948 0.950 . S
C954 C955 1.327 . S
C955 H949 0.950 . S
C955 C954 1.327 . S
C955 C959 1.429 . S
C956 C939 1.574 . S
C956 H950 0.949 . S
C956 C960 1.368 . S
C957 C938 1.429 . S
C957 C951 1.429 . S
C957 C958 1.523 . S
C958 C939 1.368 . S
C958 C952 1.368 . S
C958 C957 1.523 . S
C959 C943 1.429 . S
C959 C955 1.429 . S
C959 C960 1.523 . S
C960 C944 1.368 . S
C960 C956 1.368 . S
C960 C959 1.523 . S
H961 C936 0.950 . S
H962 C938 0.950 . S
H963 C939 0.949 . S
H964 C941 0.950 . S
H965 C943 0.950 . S
C966 C967 1.349 . S
C966 C968 1.327 . S
C966 H991 0.950 . S
C967 C966 1.349 . S
C967 C983 1.349 . S
C968 C966 1.327 . S
C968 C987 1.429 . S
C968 H992 0.950 . S
C969 C986 1.574 1_455 S
C969 C988 1.368 . S
C969 H993 0.949 . S
H970 C974 0.949 . S
C971 C972 1.349 . S
C971 C973 1.327 . S
C971 H994 0.950 . S
C972 C971 1.349 . S
C972 C984 1.349 . S
C973 C971 1.327 . S
C973 C989 1.429 . S
C973 H995 0.950 . S
C974 H970 0.949 . S
C974 C982 1.574 1_655 S
C974 C990 1.368 . S
H975 C983 0.950 . S
H976 C981 0.950 . S
H977 C982 0.949 . S
H978 C984 0.950 . S
H979 C985 0.950 . S
H980 C986 0.949 . S
C981 H976 0.950 . S
C981 C983 1.327 . S
C981 C987 1.429 . S
C982 C974 1.574 1_455 S
C982 H977 0.949 . S
C982 C988 1.368 . S
C983 C967 1.349 . S
C983 H975 0.950 . S
C983 C981 1.327 . S
C984 C972 1.349 . S
C984 H978 0.950 . S
C984 C985 1.327 . S
C985 H979 0.950 . S
C985 C984 1.327 . S
C985 C989 1.429 . S
C986 C969 1.574 1_655 S
C986 H980 0.949 . S
C986 C990 1.368 . S
C987 C968 1.429 . S
C987 C981 1.429 . S
C987 C988 1.523 . S
C988 C969 1.368 . S
C988 C982 1.368 . S
C988 C987 1.523 . S
C989 C973 1.429 . S
C989 C985 1.429 . S
C989 C990 1.523 . S
C990 C974 1.368 . S
C990 C986 1.368 . S
C990 C989 1.523 . S
H991 C966 0.950 . S
H992 C968 0.950 . S
H993 C969 0.949 . S
H994 C971 0.950 . S
H995 C973 0.950 . S
C277 C7 0.982 . S
C282 C237 0.982 . S
C307 C30 0.982 . S
C312 C260 0.982 . S
C337 C145 0.982 . S
C342 C53 0.982 . S
C367 C76 0.982 . S
C372 C168 0.982 . S
C397 C191 0.982 . S
C402 C99 0.982 . S
C427 C214 0.982 . S
C432 C122 0.982 . S
C457 N196 1.789 . S
C462 N12 1.789 . S
C487 N35 1.789 . S
C492 N219 1.789 . S
C517 N242 1.789 . S
C522 N58 1.789 . S
C547 N81 1.789 . S
C552 N265 1.789 . S
C577 N104 1.789 . S
C582 N150 1.789 . S
C607 N127 1.789 . S
C612 N173 1.789 1_556 S
C637 C246 2.020 . S
C642 C16 2.020 . S
C667 C269 2.020 . S
C672 C39 2.020 . S
C697 C154 2.020 . S
C702 C62 2.020 . S
C727 C85 2.020 . S
C732 C177 2.020 . S
C757 C108 2.020 . S
C762 C200 2.020 . S
C787 C223 2.020 . S
C792 C131 2.020 . S
C817 N2 1.744 . S
C822 N163 1.744 . S
C847 N186 1.744 . S
C852 N25 1.743 . S
C877 N209 1.744 . S
C882 N48 1.744 . S
C907 N71 1.744 . S
C912 N232 1.743 . S
C937 N94 1.744 . S
C942 N255 1.744 . S
C967 N117 1.743 . S
C972 N140 1.744 . S
