# Generated by pormake.
# Topology mon, (4)-cn, num edge types: 1
# Building blocks:
#     Node 0, Type 0, BuildingBlock: NAHDIM_clean_sbu_0, # of connection points: 4
#     Node 1, Type 0, BuildingBlock: NAHDIM_clean_sbu_0, # of connection points: 4
#     Node 2, Type 0, BuildingBlock: NAHDIM_clean_sbu_0, # of connection points: 4
#     Node 3, Type 0, BuildingBlock: NAHDIM_clean_sbu_0, # of connection points: 4
#     Node 4, Type 0, BuildingBlock: NAHDIM_clean_sbu_0, # of connection points: 4
#     Node 5, Type 0, BuildingBlock: NAHDIM_clean_sbu_0, # of connection points: 4
#     Node 6, Type 0, BuildingBlock: NAHDIM_clean_sbu_0, # of connection points: 4
#     Node 7, Type 0, BuildingBlock: NAHDIM_clean_sbu_0, # of connection points: 4
#     Node 8, Type 0, BuildingBlock: NAHDIM_clean_sbu_0, # of connection points: 4
#     Node 9, Type 0, BuildingBlock: NAHDIM_clean_sbu_0, # of connection points: 4
#     Node 10, Type 0, BuildingBlock: NAHDIM_clean_sbu_0, # of connection points: 4
#     Node 11, Type 0, BuildingBlock: NAHDIM_clean_sbu_0, # of connection points: 4
#     Node 12, Type 0, BuildingBlock: NAHDIM_clean_sbu_0, # of connection points: 4
#     Node 13, Type 0, BuildingBlock: NAHDIM_clean_sbu_0, # of connection points: 4
#     Node 14, Type 0, BuildingBlock: NAHDIM_clean_sbu_0, # of connection points: 4
#     Node 15, Type 0, BuildingBlock: NAHDIM_clean_sbu_0, # of connection points: 4
#     Edge 16, Type (0, 0), BuildingBlock: OJICUG_clean_linker_0, # of connection points: 2
#     Edge 17, Type (0, 0), BuildingBlock: OJICUG_clean_linker_0, # of connection points: 2
#     Edge 18, Type (0, 0), BuildingBlock: OJICUG_clean_linker_0, # of connection points: 2
#     Edge 19, Type (0, 0), BuildingBlock: OJICUG_clean_linker_0, # of connection points: 2
#     Edge 20, Type (0, 0), BuildingBlock: OJICUG_clean_linker_0, # of connection points: 2
#     Edge 21, Type (0, 0), BuildingBlock: OJICUG_clean_linker_0, # of connection points: 2
#     Edge 22, Type (0, 0), BuildingBlock: OJICUG_clean_linker_0, # of connection points: 2
#     Edge 23, Type (0, 0), BuildingBlock: OJICUG_clean_linker_0, # of connection points: 2
#     Edge 24, Type (0, 0), BuildingBlock: OJICUG_clean_linker_0, # of connection points: 2
#     Edge 25, Type (0, 0), BuildingBlock: OJICUG_clean_linker_0, # of connection points: 2
#     Edge 26, Type (0, 0), BuildingBlock: OJICUG_clean_linker_0, # of connection points: 2
#     Edge 27, Type (0, 0), BuildingBlock: OJICUG_clean_linker_0, # of connection points: 2
#     Edge 28, Type (0, 0), BuildingBlock: OJICUG_clean_linker_0, # of connection points: 2
#     Edge 29, Type (0, 0), BuildingBlock: OJICUG_clean_linker_0, # of connection points: 2
#     Edge 30, Type (0, 0), BuildingBlock: OJICUG_clean_linker_0, # of connection points: 2
#     Edge 31, Type (0, 0), BuildingBlock: OJICUG_clean_linker_0, # of connection points: 2
#     Edge 32, Type (0, 0), BuildingBlock: OJICUG_clean_linker_0, # of connection points: 2
#     Edge 33, Type (0, 0), BuildingBlock: OJICUG_clean_linker_0, # of connection points: 2
#     Edge 34, Type (0, 0), BuildingBlock: OJICUG_clean_linker_0, # of connection points: 2
#     Edge 35, Type (0, 0), BuildingBlock: OJICUG_clean_linker_0, # of connection points: 2
#     Edge 36, Type (0, 0), BuildingBlock: OJICUG_clean_linker_0, # of connection points: 2
#     Edge 37, Type (0, 0), BuildingBlock: OJICUG_clean_linker_0, # of connection points: 2
#     Edge 38, Type (0, 0), BuildingBlock: OJICUG_clean_linker_0, # of connection points: 2
#     Edge 39, Type (0, 0), BuildingBlock: OJICUG_clean_linker_0, # of connection points: 2
#     Edge 40, Type (0, 0), BuildingBlock: OJICUG_clean_linker_0, # of connection points: 2
#     Edge 41, Type (0, 0), BuildingBlock: OJICUG_clean_linker_0, # of connection points: 2
#     Edge 42, Type (0, 0), BuildingBlock: OJICUG_clean_linker_0, # of connection points: 2
#     Edge 43, Type (0, 0), BuildingBlock: OJICUG_clean_linker_0, # of connection points: 2
#     Edge 44, Type (0, 0), BuildingBlock: OJICUG_clean_linker_0, # of connection points: 2
#     Edge 45, Type (0, 0), BuildingBlock: OJICUG_clean_linker_0, # of connection points: 2
#     Edge 46, Type (0, 0), BuildingBlock: OJICUG_clean_linker_0, # of connection points: 2
#     Edge 47, Type (0, 0), BuildingBlock: OJICUG_clean_linker_0, # of connection points: 2
# Relax obj value: 0.124
# Max RMSD: 0.121
# Mean RMSD: 0.121
data_MOF--net-mon--node1-NAHDIM_clean_sbu_0--edge1-OJICUG_clean_linker_0
_symmetry_space_group_name_H-M    P1
_symmetry_Int_Tables_number       1
_symmetry_cell_setting            triclinic
loop_
_symmetry_equiv_pos_as_xyz
'x, y, z'
_cell_length_a     25.680782
_cell_length_b     25.612152
_cell_length_c     59.497534
_cell_angle_alpha  89.958581
_cell_angle_beta   89.6903
_cell_angle_gamma 89.97315
loop_
_atom_site_label
_atom_site_type_symbol
_atom_site_fract_x
_atom_site_fract_y
_atom_site_fract_z
_atom_type_partial_charge
C0 C 0.06621 0.12256 0.58542 0.0
O1 O 0.10936 0.09818 0.57978 0.0
O2 O 0.95513 0.9898 0.59268 0.0
Zn3 Zn 0.01729 0.02167 0.57727 0.0
O4 O 0.00866 0.01671 0.54377 0.0
C5 C 0.10327 0.97712 0.6038 0.0
O6 O 0.0866 0.00692 0.62031 0.0
O7 O 0.02366 0.09728 0.58601 0.0
C8 C 0.04955 0.01796 0.53166 0.0
O9 O 0.09488 0.0245 0.54138 0.0
C10 C 0.93745 0.94667 0.58545 0.0
O11 O 0.95972 0.92487 0.56787 0.0
O12 O 0.08038 0.97875 0.58496 0.0
C13 C 0.12669 0.78095 0.84288 0.0
O14 O 0.15507 0.82333 0.84072 0.0
O15 O 0.25729 0.66749 0.84811 0.0
Zn16 Zn 0.22487 0.73062 0.83364 0.0
O17 O 0.23384 0.72669 0.80006 0.0
C18 C 0.27073 0.80795 0.86396 0.0
O19 O 0.24919 0.78049 0.88018 0.0
O20 O 0.14849 0.73656 0.84108 0.0
C21 C 0.23492 0.7694 0.78918 0.0
O22 O 0.22744 0.81342 0.80005 0.0
C23 C 0.29997 0.65094 0.83986 0.0
O24 O 0.31953 0.67445 0.82209 0.0
O25 O 0.26455 0.79388 0.8437 0.0
C26 C 0.47862 0.85252 0.09589 0.0
O27 O 0.4363 0.8789 0.09097 0.0
O28 O 0.5921 0.98137 0.10768 0.0
Zn29 Zn 0.52605 0.95423 0.09381 0.0
O30 O 0.52484 0.96882 0.06051 0.0
C31 C 0.47357 0.04285 0.10861 0.0
O32 O 0.51681 0.06205 0.10011 0.0
O33 O 0.52113 0.87696 0.09859 0.0
C34 C 0.48179 0.97926 0.05106 0.0
O35 O 0.43888 0.97943 0.06318 0.0
C36 C 0.62459 0.00905 0.09676 0.0
O37 O 0.61735 0.01678 0.07517 0.0
O38 O 0.46658 -0.00627 0.10825 0.0
C39 C 0.39211 0.2696 0.33153 0.0
O40 O 0.36605 0.30905 0.32303 0.0
O41 O 0.26548 0.29796 0.35087 0.0
Zn42 Zn 0.29042 0.2354 0.33367 0.0
O43 O 0.27631 0.24293 0.30068 0.0
C44 C 0.20085 0.18116 0.34324 0.0
O45 O 0.18448 0.22509 0.33428 0.0
O46 O 0.36723 0.22933 0.33795 0.0
C47 C 0.27753 0.20155 0.28894 0.0
O48 O 0.28799 0.1569 0.29883 0.0
C49 C 0.24974 0.33997 0.34183 0.0
O50 O 0.25045 0.34438 0.31983 0.0
O51 O 0.24959 0.17382 0.34514 0.0
C52 C 0.96825 0.84553 0.40235 0.0
O53 O 0.93292 0.87162 0.41379 0.0
O54 O 0.9318 0.97272 0.37923 0.0
Zn55 Zn -0.00243 0.94831 0.394 0.0
O56 O -0.00246 0.96747 0.42675 0.0
C57 C 0.04934 0.03543 0.37814 0.0
O58 O 0.00564 0.05446 0.38631 0.0
O59 O 0.00273 0.87072 0.39144 0.0
C60 C 0.04087 0.97229 0.43672 0.0
O61 O 0.08417 0.9643 0.42537 0.0
C62 C 0.89406 0.99224 0.39025 0.0
O63 O 0.89619 -0.00662 0.4123 0.0
O64 O 0.05705 0.98646 0.37914 0.0
C65 C 0.40596 0.69913 0.6517 0.0
O66 O 0.37977 0.66075 0.66111 0.0
O67 O 0.26981 0.67831 0.63403 0.0
Zn68 Zn 0.30369 0.7388 0.64995 0.0
O69 O 0.29033 0.7327 0.6832 0.0
C70 C 0.2516 0.8121 0.62017 0.0
O71 O 0.25804 0.77512 0.60511 0.0
O72 O 0.38115 0.7388 0.64467 0.0
C73 C 0.28932 0.77422 0.69486 0.0
O74 O 0.29915 0.81911 0.68501 0.0
C75 C 0.22792 0.65948 0.64212 0.0
O76 O 0.20873 0.67937 0.66075 0.0
O77 O 0.26981 0.80563 0.63978 0.0
C78 C 0.52313 0.1277 0.89875 0.0
O79 O 0.57016 0.10753 0.89805 0.0
O80 O 0.55399 0.99175 0.89118 0.0
Zn81 Zn 0.49594 0.02208 0.90998 0.0
O82 O 0.50949 0.01369 0.94297 0.0
C83 C 0.41848 0.97148 0.88309 0.0
O84 O 0.44557 0.99253 0.86662 0.0
O85 O 0.48466 0.09813 0.90311 0.0
C86 C 0.47093 0.02246 0.95588 0.0
O87 O 0.42671 0.03778 0.94703 0.0
C88 C 0.59519 0.97192 0.89929 0.0
O89 O 0.60258 0.97327 0.92111 0.0
O90 O 0.43179 0.98042 0.90323 0.0
C91 C 0.13045 0.19948 0.14232 0.0
O92 O 0.15572 0.15549 0.14547 0.0
O93 O 0.26145 0.3109 0.13408 0.0
Zn94 Zn 0.23162 0.24699 0.14901 0.0
O95 O 0.24036 0.24994 0.18257 0.0
C96 C 0.32135 0.18969 0.14183 0.0
O97 O 0.33753 0.23076 0.153 0.0
O98 O 0.15543 0.24223 0.14235 0.0
C99 C 0.24041 0.20705 0.19332 0.0
O100 O 0.23399 0.16322 0.18223 0.0
C101 C 0.29046 0.34327 0.14424 0.0
O102 O 0.29879 0.33728 0.16586 0.0
O103 O 0.2731 0.18556 0.13749 0.0
C104 C 0.90619 0.20523 0.14748 0.0
O105 O 0.88 0.1623 0.15178 0.0
O106 O 0.77096 0.1903 0.13756 0.0
Zn107 Zn 0.80568 0.24863 0.15436 0.0
O108 O 0.79485 0.24066 0.18768 0.0
C109 C 0.7616 0.32801 0.12518 0.0
O110 O 0.77716 0.29668 0.109 0.0
O111 O 0.88223 0.24867 0.14742 0.0
C112 C 0.80249 0.28071 0.19981 0.0
O113 O 0.81868 0.324 0.19019 0.0
C114 C 0.75619 0.14812 0.14686 0.0
O115 O 0.76398 0.14137 0.16847 0.0
O116 O 0.77138 0.31604 0.14543 0.0
C117 C 0.63109 0.69649 0.6532 0.0
O118 O 0.65537 0.65912 0.66409 0.0
O119 O 0.77192 0.78614 0.63073 0.0
Zn120 Zn 0.73456 0.73605 0.65127 0.0
O121 O 0.7471 0.75592 0.68343 0.0
C122 C 0.77132 0.64483 0.62738 0.0
O123 O 0.74993 0.66833 0.6101 0.0
O124 O 0.65746 0.73443 0.64541 0.0
C125 C 0.79344 0.75378 0.69075 0.0
O126 O 0.83116 0.7405 0.67687 0.0
C127 C 0.78231 0.8329 0.63622 0.0
O128 O 0.76518 0.851 0.65555 0.0
O129 O 0.76743 0.66556 0.6467 0.0
C130 C 0.61631 0.27824 0.33484 0.0
O131 O 0.64131 0.3202 0.32809 0.0
O132 O 0.74722 0.174 0.35284 0.0
Zn133 Zn 0.71947 0.23763 0.33753 0.0
O134 O 0.73964 0.2375 0.30466 0.0
C135 C 0.80017 0.30391 0.35068 0.0
O136 O 0.82533 0.26822 0.33905 0.0
O137 O 0.64208 0.23794 0.34026 0.0
C138 C 0.74861 0.27995 0.29425 0.0
O139 O 0.74427 0.32443 0.30507 0.0
C140 C 0.76106 0.13302 0.3424 0.0
O141 O 0.75608 0.13096 0.32046 0.0
O142 O 0.75109 0.29997 0.35281 0.0
C143 C 0.90254 0.79653 0.8428 0.0
O144 O 0.88038 0.84218 0.83961 0.0
O145 O 0.76399 0.8179 0.851 0.0
Zn146 Zn 0.79966 0.76184 0.83282 0.0
O147 O 0.79441 0.77691 0.79966 0.0
C148 C 0.75879 0.67258 0.85722 0.0
O149 O 0.78297 0.69371 0.87436 0.0
O150 O 0.87493 0.75552 0.84149 0.0
C151 C 0.83069 0.76408 0.78614 0.0
O152 O 0.87346 0.74315 0.79413 0.0
C153 C 0.7255 0.8425 0.84283 0.0
O154 O 0.71067 0.83201 0.82222 0.0
O155 O 0.76182 0.69439 0.83809 0.0
C156 C 0.48067 0.62788 0.08866 0.0
O157 O 0.43813 0.60282 0.08295 0.0
O158 O 0.46664 0.49092 0.09914 0.0
Zn159 Zn 0.52216 0.52708 0.08101 0.0
O160 O 0.50852 0.51944 0.04789 0.0
C161 C 0.60727 0.48591 0.10713 0.0
O162 O 0.58132 0.507 0.12392 0.0
O163 O 0.52346 0.60299 0.08942 0.0
C164 C 0.52076 0.55537 0.03411 0.0
O165 O 0.54127 0.5988 0.04175 0.0
C166 C 0.42365 0.47593 0.09089 0.0
O167 O 0.41411 0.48445 0.06953 0.0
O168 O 0.59024 0.49146 0.08728 0.0
C169 C 0.05995 0.34764 0.58927 0.0
O170 O 0.10061 0.37467 0.58254 0.0
O171 O 0.06563 0.48913 0.60203 0.0
Zn172 Zn 0.0125 0.44763 0.58483 0.0
O173 O 0.02325 0.45685 0.55157 0.0
C174 C 0.92956 0.4893 0.61225 0.0
O175 O 0.96166 0.47748 0.62861 0.0
O176 O 0.01688 0.37114 0.59234 0.0
C177 C 0.00505 0.42323 0.53802 0.0
O178 O 0.98059 0.3822 0.54609 0.0
C179 C 0.10748 0.50675 0.5934 0.0
O180 O 0.11873 0.49582 0.57236 0.0
O181 O 0.94212 0.47764 0.59219 0.0
C182 C 0.49628 0.35159 0.89576 0.0
O183 O 0.45129 0.37237 0.9014 0.0
O184 O 0.47227 0.49144 0.87988 0.0
Zn185 Zn 0.52875 0.45841 0.89847 0.0
O186 O 0.51468 0.47087 0.93123 0.0
C187 C 0.6063 0.51041 0.87136 0.0
O188 O 0.57453 0.49785 0.85499 0.0
O189 O 0.5354 0.38128 0.89292 0.0
C190 C 0.51854 0.5173 0.93855 0.0
O191 O 0.52956 0.55505 0.92433 0.0
C192 C 0.42721 0.50223 0.88752 0.0
O193 O 0.41485 0.48829 0.90812 0.0
O194 O 0.59577 0.49545 0.89122 0.0
C195 C 0.9766 0.62081 0.40799 0.0
O196 O 0.94891 0.596 0.42325 0.0
O197 O 0.08629 0.49704 0.38643 0.0
Zn198 Zn 0.01981 0.51912 0.40133 0.0
O199 O 0.02125 0.50417 0.43454 0.0
C200 C 0.91785 0.46882 0.39278 0.0
O201 O 0.89995 0.49327 0.41061 0.0
O202 O 0.00908 0.59542 0.39613 0.0
C203 C 0.01184 0.45875 0.44213 0.0
O204 O 0.00155 0.42079 0.428 0.0
C205 C 0.12382 0.47475 0.39638 0.0
O206 O 0.12198 0.46886 0.4183 0.0
O207 O 0.9646 0.47612 0.38646 0.0
C208 C 0.01943 0.20596 0.59429 0.0
C209 C 0.06596 0.17982 0.58881 0.0
H210 H 0.98108 0.27936 0.59892 0.0
C211 C 0.1114 0.2093 0.58525 0.0
H212 H 0.98376 0.18443 0.59726 0.0
C213 C 0.10983 0.26382 0.58618 0.0
C214 C 0.06282 0.29001 0.59074 0.0
H215 H 0.14793 0.1904 0.58108 0.0
H216 H 0.14523 0.28543 0.58272 0.0
C217 C 0.01789 0.26044 0.59527 0.0
C218 C 0.98417 0.74349 0.84608 0.0
C219 C 0.95971 0.79257 0.84527 0.0
H220 H 0.05609 0.70127 0.84606 0.0
C221 C 0.99067 0.83779 0.84538 0.0
H222 H 0.96145 0.70787 0.84609 0.0
C223 C 0.04495 0.834 0.84537 0.0
C224 C 0.06943 0.78491 0.84522 0.0
H225 H 0.97306 0.87621 0.84487 0.0
H226 H 0.06765 0.86962 0.84486 0.0
C227 C 0.03846 0.7397 0.84605 0.0
C228 C 0.52509 0.7123 0.0976 0.0
C229 C 0.47934 0.68492 0.0924 0.0
H230 H 0.56069 0.78665 0.10298 0.0
C231 C 0.43263 0.71288 0.08981 0.0
H232 H 0.56167 0.69189 0.0998 0.0
C233 C 0.43205 0.76726 0.09162 0.0
C234 C 0.47814 0.79479 0.09608 0.0
H235 H 0.39664 0.69293 0.08589 0.0
H236 H 0.39567 0.78774 0.08901 0.0
C237 C 0.52449 0.76665 0.09945 0.0
C238 C 0.53225 0.23161 0.34199 0.0
C239 C 0.55887 0.27677 0.33495 0.0
H240 H 0.45859 0.19387 0.34646 0.0
C241 C 0.53014 0.31988 0.32735 0.0
H242 H 0.55331 0.19773 0.34797 0.0
C243 C 0.47593 0.31759 0.32644 0.0
C244 C 0.44934 0.27218 0.33316 0.0
H245 H 0.54949 0.35523 0.32182 0.0
H246 H 0.45494 0.35135 0.3203 0.0
C247 C 0.47799 0.22935 0.34112 0.0
C248 C 0.00493 0.75966 0.38995 0.0
C249 C 0.96884 0.78792 0.40293 0.0
H250 H 0.03543 0.68464 0.38123 0.0
C251 C 0.93395 0.76065 0.41692 0.0
H252 H 0.03219 0.77954 0.37894 0.0
C253 C 0.93588 0.70627 0.4183 0.0
C254 C 0.97258 0.67806 0.40562 0.0
H255 H 0.90559 0.7813 0.42712 0.0
H256 H 0.90897 0.68645 0.42948 0.0
C257 C 0.0067 0.70526 0.39124 0.0
C258 C 0.4905 0.65441 0.65971 0.0
C259 C 0.46356 0.69729 0.65068 0.0
H260 H 0.5643 0.62046 0.66751 0.0
C261 C 0.49227 0.73894 0.64148 0.0
H262 H 0.46962 0.62159 0.66687 0.0
C263 C 0.54675 0.73824 0.64181 0.0
C264 C 0.57361 0.69593 0.65139 0.0
H265 H 0.4727 0.7725 0.63434 0.0
H266 H 0.56774 0.77132 0.63494 0.0
C267 C 0.54486 0.65376 0.66008 0.0
C268 C 0.45949 0.26122 0.8985 0.0
C269 C 0.50237 0.29417 0.89465 0.0
H270 H 0.43229 0.18285 0.90269 0.0
C271 C 0.55159 0.27169 0.89085 0.0
H272 H 0.421 0.27725 0.9014 0.0
C273 C 0.55809 0.21754 0.89163 0.0
C274 C 0.5155 0.18468 0.89617 0.0
H275 H 0.58543 0.29595 0.88777 0.0
H276 H 0.59673 0.20156 0.8891 0.0
C277 C 0.46596 0.20706 0.89922 0.0
C278 C 0.04607 0.24779 0.13929 0.0
C279 C 0.07294 0.20018 0.14136 0.0
H280 H 0.9724 0.28675 0.13954 0.0
C281 C 0.04426 0.15387 0.144 0.0
H282 H 0.06698 0.28419 0.13715 0.0
C283 C 0.98995 0.15538 0.14539 0.0
C284 C 0.96324 0.20323 0.14418 0.0
H285 H 0.06376 0.11655 0.14558 0.0
H286 H 0.96904 0.11912 0.14794 0.0
C287 C -0.00819 0.24929 0.14069 0.0
C288 C 0.0907 -0.0058 0.4714 0.0
C289 C 0.04266 0.98587 0.46083 0.0
H290 H 0.13049 0.01126 0.50197 0.0
C291 C -0.00341 0.98997 0.47358 0.0
H292 H 0.12689 0.99157 0.46204 0.0
C293 C -0.00135 0.0012 0.49655 0.0
C294 C 0.04681 0.00876 0.50718 0.0
H295 H 0.95893 0.98386 0.4659 0.0
H296 H 0.96255 0.00341 0.506 0.0
C297 C 0.09275 0.00562 0.49431 0.0
C298 C 0.25457 0.81798 0.75374 0.0
C299 C 0.24761 0.77015 0.76493 0.0
H300 H 0.27355 0.85673 0.72296 0.0
C301 C 0.25441 0.72344 0.75287 0.0
H302 H 0.24978 0.85469 0.76254 0.0
C303 C 0.268 0.72462 0.73009 0.0
C304 C 0.27535 0.77253 0.71897 0.0
H305 H 0.24939 0.68595 0.76104 0.0
H306 H 0.27295 0.688 0.72123 0.0
C307 C 0.26843 0.81916 0.73104 0.0
C308 C 0.52446 0.98707 0.01318 0.0
C309 C 0.47974 0.99129 0.02679 0.0
H310 H 0.55684 -0.00639 0.98003 0.0
C311 C 0.43264 0.00702 0.01698 0.0
H312 H 0.56137 0.97512 0.02025 0.0
C313 C 0.43012 0.01786 -0.00597 0.0
C314 C 0.47458 0.01298 0.98033 0.0
H315 H 0.39752 0.01088 0.027 0.0
H316 H 0.39307 0.02954 0.98701 0.0
C317 C 0.52188 -0.00232 0.99015 0.0
C318 C 0.25267 0.25267 0.23019 0.0
C319 C 0.24905 0.20606 0.21784 0.0
H320 H 0.26431 0.28787 0.26241 0.0
C321 C 0.25441 0.15815 0.22911 0.0
H322 H 0.24868 0.29022 0.22198 0.0
C323 C 0.26362 0.15681 0.25219 0.0
C324 C 0.26739 0.20335 0.26454 0.0
H325 H 0.25188 0.12152 0.22009 0.0
H326 H 0.26775 0.1192 0.26032 0.0
C327 C 0.26159 0.25133 0.25334 0.0
C328 C 0.79253 0.32603 0.23677 0.0
C329 C 0.79056 0.27974 0.22415 0.0
H330 H 0.78065 0.36241 0.26871 0.0
C331 C 0.77568 0.23311 0.23488 0.0
H332 H 0.8038 0.36263 0.22902 0.0
C333 C 0.76255 0.23296 0.25772 0.0
C334 C 0.76371 0.27949 0.27023 0.0
H335 H 0.77384 0.19677 0.22561 0.0
H336 H 0.75093 0.19649 0.2655 0.0
C337 C 0.7791 0.32594 0.25953 0.0
C338 C 0.85401 0.75154 0.72353 0.0
C339 C 0.8042 0.76171 0.7149 0.0
H340 H 0.90151 0.74454 0.7528 0.0
C341 C 0.7642 0.77679 0.72976 0.0
H342 H 0.88575 0.74008 0.71253 0.0
C343 C 0.77333 0.77962 0.75286 0.0
C344 C 0.82255 0.76711 0.76158 0.0
H345 H 0.72547 0.78523 0.72361 0.0
H346 H 0.74131 0.78998 0.76392 0.0
C347 C 0.86305 0.75407 0.74664 0.0
C348 C 0.50135 0.48823 0.9781 0.0
C349 C 0.51477 0.5281 0.9629 0.0
H350 H 0.49224 0.46567 0.01253 0.0
C351 C 0.527 0.57786 0.97129 0.0
H352 H 0.49145 0.44954 0.97217 0.0
C353 C 0.52769 0.58705 -0.00558 0.0
C354 C 0.51587 0.54676 0.00965 0.0
H355 H 0.53737 0.60948 0.96002 0.0
H356 H 0.53844 0.62552 0.00035 0.0
C357 C 0.50173 0.49751 0.00124 0.0
C358 C 0.02747 0.47906 0.50478 0.0
C359 C 0.00892 0.4315 0.51347 0.0
H360 H 0.0427 0.52507 0.47545 0.0
C361 C -0.00735 0.39247 0.49848 0.0
H362 H 0.04028 0.50994 0.51588 0.0
C363 C -0.00572 0.40104 0.47529 0.0
C364 C 0.01186 0.44897 0.46662 0.0
H365 H 0.97829 0.35533 0.50464 0.0
H366 H 0.98106 0.37034 0.4642 0.0
C367 C 0.02872 0.48779 0.4816 0.0
C368 C 0.19595 0.86421 0.59399 0.0
C369 C 0.21816 0.85782 0.61533 0.0
H370 H 0.14268 0.90706 0.57357 0.0
C371 C 0.20519 0.89354 0.63244 0.0
H372 H 0.20526 0.83758 0.58042 0.0
C373 C 0.16906 0.93338 0.62855 0.0
C374 C 0.14527 0.93842 0.60745 0.0
H375 H 0.22172 0.88983 0.64907 0.0
H376 H 0.15882 0.95932 0.64224 0.0
C377 C 0.15999 0.9041 0.59008 0.0
C378 C 0.31593 0.86676 0.89132 0.0
C379 C 0.30485 0.85291 0.86902 0.0
H380 H 0.36026 0.91542 0.91329 0.0
C381 C 0.32861 0.88103 0.85142 0.0
H382 H 0.2981 0.84604 0.90524 0.0
C383 C 0.3642 0.92075 0.85601 0.0
C384 C 0.37681 0.93329 0.8783 0.0
H385 H 0.32067 0.87162 0.83403 0.0
H386 H 0.38275 0.94071 0.84206 0.0
C387 C 0.35154 0.90657 0.89592 0.0
C388 C 0.38127 0.06454 0.11931 0.0
C389 C 0.43409 0.07865 0.11798 0.0
H390 H 0.30352 0.08918 0.1276 0.0
C391 C 0.44926 0.12868 0.12494 0.0
H392 H 0.36858 0.02622 0.11394 0.0
C393 C 0.41251 0.16413 0.13294 0.0
C394 C 0.35953 0.15074 0.13383 0.0
H395 H 0.48973 0.14057 0.1242 0.0
H396 H 0.42565 0.20249 0.13807 0.0
C397 C 0.34412 0.10057 0.12698 0.0
C398 C 0.07364 0.122 0.36237 0.0
C399 C 0.08848 0.07117 0.36841 0.0
H400 H 0.09729 0.19612 0.34957 0.0
C401 C 0.14075 0.05599 0.36569 0.0
H402 H 0.03361 0.1348 0.36417 0.0
C403 C 0.17768 0.0916 0.3575 0.0
C404 C 0.16265 0.14259 0.3516 0.0
H405 H 0.15326 0.01705 0.37029 0.0
H406 H 0.21785 0.07926 0.35578 0.0
C407 C 0.11018 0.15715 0.35393 0.0
C408 C 0.85045 0.01956 0.35465 0.0
C409 C 0.85338 0.02168 0.37823 0.0
H410 H 0.81832 0.05282 0.32477 0.0
C411 C 0.8209 0.05647 0.38996 0.0
H412 H 0.87472 0.99283 0.34514 0.0
C413 C 0.78895 0.09109 0.37828 0.0
C414 C 0.78849 0.09123 0.35466 0.0
H415 H 0.82205 0.0589 0.40813 0.0
H416 H 0.76605 0.11905 0.38777 0.0
C417 C 0.81809 0.05387 0.34297 0.0
C418 C 0.67082 0.03279 0.13226 0.0
C419 C 0.66394 0.03984 0.10902 0.0
H420 H 0.70566 0.06132 0.16245 0.0
C421 C 0.6913 0.08004 0.09806 0.0
H422 H 0.65047 0.00202 0.14119 0.0
C423 C 0.72258 0.11425 0.11028 0.0
C424 C 0.72746 0.10875 0.13368 0.0
H425 H 0.68697 0.08647 0.08018 0.0
H426 H 0.74182 0.14587 0.10144 0.0
C427 C 0.70241 0.06682 0.14446 0.0
C428 C 0.65229 0.90603 0.84782 0.0
C429 C 0.69516 0.87937 0.85688 0.0
H430 H 0.58743 0.95645 0.85401 0.0
C431 C 0.70705 0.88637 0.87973 0.0
H432 H 0.6422 0.90174 0.83026 0.0
C433 C 0.67554 0.91779 0.89339 0.0
C434 C 0.63157 0.94292 0.88448 0.0
H435 H 0.73993 0.86653 0.88722 0.0
H436 H 0.68497 0.9213 0.91105 0.0
C437 C 0.62089 0.93748 0.86145 0.0
C438 C 0.83481 0.9139 0.62927 0.0
C439 C 0.81824 0.86433 0.62215 0.0
H440 H 0.8854 0.97889 0.62326 0.0
C441 C 0.83894 0.84359 0.60214 0.0
H442 H 0.81959 0.93104 0.64459 0.0
C443 C 0.87668 0.87097 0.58993 0.0
C444 C 0.8946 0.9197 0.59747 0.0
H445 H 0.82693 0.80556 0.59613 0.0
H446 H 0.89259 0.85333 0.57485 0.0
C447 C 0.87261 0.9413 0.61706 0.0
C448 C 0.71241 0.38418 0.09807 0.0
C449 C 0.72732 0.37304 0.12025 0.0
H450 H 0.66318 0.42893 0.07649 0.0
C451 C 0.706 0.40293 0.13787 0.0
H452 H 0.7283 0.36212 0.0841 0.0
C453 C 0.66855 0.44118 0.13352 0.0
C454 C 0.65169 0.45048 0.11145 0.0
H455 H 0.71686 0.3956 0.15515 0.0
H456 H 0.65162 0.46223 0.14755 0.0
C457 C 0.67505 0.42254 0.09372 0.0
C458 C 0.80505 0.38089 0.37675 0.0
C459 C 0.82887 0.3478 0.36088 0.0
H460 H 0.81455 0.44526 0.39941 0.0
C461 C 0.88117 0.35634 0.35499 0.0
H462 H 0.76472 0.37526 0.38159 0.0
C463 C 0.90938 0.3965 0.36496 0.0
C464 C 0.88615 0.42886 0.38125 0.0
H465 H 0.90058 0.33179 0.34272 0.0
H466 H 0.94983 0.40142 0.36017 0.0
C467 C 0.83355 0.42093 0.38694 0.0
C468 C 0.87266 0.54069 0.63845 0.0
C469 C 0.88364 0.52288 0.6166 0.0
H470 H 0.8282 0.59281 0.65905 0.0
C471 C 0.85321 0.54134 0.59868 0.0
H472 H 0.89511 0.52704 0.65265 0.0
C473 C 0.81484 0.57918 0.60234 0.0
C474 C 0.80603 0.59928 0.62399 0.0
H475 H 0.86041 0.52818 0.58165 0.0
H476 H 0.79355 0.59409 0.58804 0.0
C477 C 0.83424 0.57845 0.64211 0.0
C478 C 0.71661 0.60527 0.88192 0.0
C479 C 0.72415 0.62698 0.86046 0.0
H480 H 0.67377 0.55106 0.9022 0.0
C481 C 0.69581 0.6067 0.84228 0.0
H482 H 0.73799 0.61979 0.89626 0.0
C483 C 0.65901 0.56729 0.84567 0.0
C484 C 0.64975 0.54724 0.86731 0.0
H485 H 0.7009 0.6223 0.82549 0.0
H486 H 0.63672 0.55371 0.83142 0.0
C487 C 0.6798 0.5658 0.88531 0.0
C488 C 0.40721 0.55459 0.8531 0.0
C489 C 0.39171 0.53569 0.87429 0.0
H490 H 0.39034 0.60553 0.82562 0.0
C491 C 0.3437 0.55208 0.88331 0.0
H492 H 0.44385 0.54264 0.84561 0.0
C493 C 0.31291 0.58826 0.87181 0.0
C494 C 0.32958 0.60883 0.85107 0.0
H495 H 0.33054 0.53814 0.89957 0.0
H496 H 0.27682 0.60122 0.87948 0.0
C497 C 0.37653 0.59078 0.84164 0.0
C498 C 0.12583 0.5582 0.62822 0.0
C499 C 0.14071 0.54281 0.60644 0.0
H500 H 0.14167 0.60691 0.65652 0.0
C501 C 0.18617 0.56418 0.59691 0.0
H502 H 0.09111 0.54243 0.6361 0.0
C503 C 0.21531 0.60121 0.60868 0.0
C504 C 0.19945 0.61773 0.63018 0.0
H505 H 0.19878 0.55307 0.58018 0.0
H506 H 0.2496 0.61769 0.60072 0.0
C507 C 0.1548 0.59529 0.63993 0.0
C508 C 0.19559 0.40932 0.39284 0.0
C509 C 0.1635 0.44707 0.38285 0.0
H510 H 0.24827 0.34578 0.38764 0.0
C511 C 0.16532 0.45366 0.35939 0.0
H512 H 0.1953 0.40345 0.41087 0.0
C513 C 0.19578 0.42066 0.34605 0.0
C514 C 0.22472 0.3803 0.35594 0.0
H515 H 0.1414 0.48279 0.3512 0.0
H516 H 0.19452 0.42519 0.32796 0.0
C517 C 0.22578 0.37612 0.3795 0.0
C518 C 0.39463 0.44081 0.12816 0.0
C519 C 0.38635 0.44628 0.10494 0.0
H520 H 0.37034 0.40462 0.15887 0.0
C521 C 0.34349 0.42116 0.09515 0.0
H522 H 0.42709 0.46003 0.13625 0.0
C523 C 0.31103 0.38923 0.10812 0.0
C524 C 0.32057 0.38209 0.13117 0.0
H525 H 0.3359 0.42478 0.07733 0.0
H526 H 0.27929 0.36905 0.09994 0.0
C527 C 0.36196 0.40921 0.14116 0.0
loop_
_geom_bond_atom_site_label_1
_geom_bond_atom_site_label_2
_geom_bond_distance
_geom_bond_site_symmetry_2
_ccdc_geom_bond_type
C0 O1 1.160 1_455 S
C0 O7 1.185 . S
O1 C0 1.160 1_655 S
O2 Zn3 1.899 1_655 S
O2 C10 1.284 1_545 S
Zn3 O2 1.899 1_455 S
Zn3 O4 2.032 . S
Zn3 O7 2.086 . S
Zn3 O12 1.977 . S
O4 Zn3 2.032 . S
O4 C8 1.278 . S
C5 O6 1.203 . S
C5 O12 1.267 1_565 S
O6 C5 1.203 . S
O7 C0 1.185 . S
O7 Zn3 2.086 . S
C8 O4 1.278 . S
C8 O9 1.211 1_545 S
O9 C8 1.211 1_565 S
C10 O2 1.284 1_565 S
C10 O11 1.273 . S
O11 C10 1.273 . S
O12 Zn3 1.977 . S
O12 C5 1.267 1_545 S
C13 O14 1.160 . S
C13 O20 1.185 . S
O14 C13 1.160 . S
O15 Zn16 1.899 . S
O15 C23 1.284 . S
Zn16 O15 1.899 . S
Zn16 O17 2.032 . S
Zn16 O20 2.086 . S
Zn16 O25 1.977 . S
O17 Zn16 2.032 . S
O17 C21 1.278 . S
C18 O19 1.203 . S
C18 O25 1.267 . S
O19 C18 1.203 . S
O20 C13 1.185 . S
O20 Zn16 2.086 . S
C21 O17 1.278 . S
C21 O22 1.211 . S
O22 C21 1.211 . S
C23 O15 1.284 . S
C23 O24 1.273 . S
O24 C23 1.273 . S
O25 Zn16 1.977 . S
O25 C18 1.267 . S
C26 O27 1.160 . S
C26 O33 1.185 . S
O27 C26 1.160 . S
O28 Zn29 1.899 . S
O28 C36 1.284 1_565 S
Zn29 O28 1.899 . S
Zn29 O30 2.032 . S
Zn29 O33 2.086 . S
Zn29 O38 1.977 . S
O30 Zn29 2.032 . S
O30 C34 1.278 . S
C31 O32 1.203 . S
C31 O38 1.267 1_545 S
O32 C31 1.203 . S
O33 C26 1.185 . S
O33 Zn29 2.086 . S
C34 O30 1.278 . S
C34 O35 1.211 1_565 S
O35 C34 1.211 1_545 S
C36 O28 1.284 1_545 S
C36 O37 1.273 . S
O37 C36 1.273 . S
O38 Zn29 1.977 . S
O38 C31 1.267 1_565 S
C39 O40 1.160 . S
C39 O46 1.185 . S
O40 C39 1.160 . S
O41 Zn42 1.899 . S
O41 C49 1.284 . S
Zn42 O41 1.899 . S
Zn42 O43 2.032 . S
Zn42 O46 2.086 . S
Zn42 O51 1.977 . S
O43 Zn42 2.032 . S
O43 C47 1.278 . S
C44 O45 1.203 . S
C44 O51 1.267 . S
O45 C44 1.203 . S
O46 C39 1.185 . S
O46 Zn42 2.086 . S
C47 O43 1.278 . S
C47 O48 1.211 . S
O48 C47 1.211 . S
C49 O41 1.284 . S
C49 O50 1.273 . S
O50 C49 1.273 . S
O51 Zn42 1.977 . S
O51 C44 1.267 . S
C52 O53 1.160 1_455 S
C52 O59 1.185 . S
O53 C52 1.160 1_655 S
O54 Zn55 1.899 1_655 S
O54 C62 1.284 1_565 S
Zn55 O54 1.899 1_455 S
Zn55 O56 2.032 . S
Zn55 O59 2.086 . S
Zn55 O64 1.977 . S
O56 Zn55 2.032 . S
O56 C60 1.278 . S
C57 O58 1.203 . S
C57 O64 1.267 1_545 S
O58 C57 1.203 . S
O59 C52 1.185 . S
O59 Zn55 2.086 . S
C60 O56 1.278 . S
C60 O61 1.211 1_565 S
O61 C60 1.211 1_545 S
C62 O54 1.284 1_545 S
C62 O63 1.273 . S
O63 C62 1.273 . S
O64 Zn55 1.977 . S
O64 C57 1.267 1_565 S
C65 O66 1.160 . S
C65 O72 1.185 . S
O66 C65 1.160 . S
O67 Zn68 1.899 . S
O67 C75 1.284 . S
Zn68 O67 1.899 . S
Zn68 O69 2.032 . S
Zn68 O72 2.086 . S
Zn68 O77 1.977 . S
O69 Zn68 2.032 . S
O69 C73 1.278 . S
C70 O71 1.203 . S
C70 O77 1.267 . S
O71 C70 1.203 . S
O72 C65 1.185 . S
O72 Zn68 2.086 . S
C73 O69 1.278 . S
C73 O74 1.211 . S
O74 C73 1.211 . S
C75 O67 1.284 . S
C75 O76 1.273 . S
O76 C75 1.273 . S
O77 Zn68 1.977 . S
O77 C70 1.267 . S
C78 O79 1.160 . S
C78 O85 1.185 . S
O79 C78 1.160 . S
O80 Zn81 1.899 . S
O80 C88 1.284 1_545 S
Zn81 O80 1.899 . S
Zn81 O82 2.032 . S
Zn81 O85 2.086 . S
Zn81 O90 1.977 . S
O82 Zn81 2.032 . S
O82 C86 1.278 . S
C83 O84 1.203 . S
C83 O90 1.267 1_565 S
O84 C83 1.203 . S
O85 C78 1.185 . S
O85 Zn81 2.086 . S
C86 O82 1.278 . S
C86 O87 1.211 1_545 S
O87 C86 1.211 1_565 S
C88 O80 1.284 1_565 S
C88 O89 1.273 . S
O89 C88 1.273 . S
O90 Zn81 1.977 . S
O90 C83 1.267 1_545 S
C91 O92 1.160 . S
C91 O98 1.185 . S
O92 C91 1.160 . S
O93 Zn94 1.899 . S
O93 C101 1.284 . S
Zn94 O93 1.899 . S
Zn94 O95 2.032 . S
Zn94 O98 2.086 . S
Zn94 O103 1.977 . S
O95 Zn94 2.032 . S
O95 C99 1.278 . S
C96 O97 1.203 . S
C96 O103 1.267 . S
O97 C96 1.203 . S
O98 C91 1.185 . S
O98 Zn94 2.086 . S
C99 O95 1.278 . S
C99 O100 1.211 . S
O100 C99 1.211 . S
C101 O93 1.284 . S
C101 O102 1.273 . S
O102 C101 1.273 . S
O103 Zn94 1.977 . S
O103 C96 1.267 . S
C104 O105 1.160 . S
C104 O111 1.185 . S
O105 C104 1.160 . S
O106 Zn107 1.899 . S
O106 C114 1.284 . S
Zn107 O106 1.899 . S
Zn107 O108 2.032 . S
Zn107 O111 2.086 . S
Zn107 O116 1.977 . S
O108 Zn107 2.032 . S
O108 C112 1.278 . S
C109 O110 1.203 . S
C109 O116 1.267 . S
O110 C109 1.203 . S
O111 C104 1.185 . S
O111 Zn107 2.086 . S
C112 O108 1.278 . S
C112 O113 1.211 . S
O113 C112 1.211 . S
C114 O106 1.284 . S
C114 O115 1.273 . S
O115 C114 1.273 . S
O116 Zn107 1.977 . S
O116 C109 1.267 . S
C117 O118 1.160 . S
C117 O124 1.185 . S
O118 C117 1.160 . S
O119 Zn120 1.899 . S
O119 C127 1.284 . S
Zn120 O119 1.899 . S
Zn120 O121 2.032 . S
Zn120 O124 2.086 . S
Zn120 O129 1.977 . S
O121 Zn120 2.032 . S
O121 C125 1.278 . S
C122 O123 1.203 . S
C122 O129 1.267 . S
O123 C122 1.203 . S
O124 C117 1.185 . S
O124 Zn120 2.086 . S
C125 O121 1.278 . S
C125 O126 1.211 . S
O126 C125 1.211 . S
C127 O119 1.284 . S
C127 O128 1.273 . S
O128 C127 1.273 . S
O129 Zn120 1.977 . S
O129 C122 1.267 . S
C130 O131 1.160 . S
C130 O137 1.185 . S
O131 C130 1.160 . S
O132 Zn133 1.899 . S
O132 C140 1.284 . S
Zn133 O132 1.899 . S
Zn133 O134 2.032 . S
Zn133 O137 2.086 . S
Zn133 O142 1.977 . S
O134 Zn133 2.032 . S
O134 C138 1.278 . S
C135 O136 1.203 . S
C135 O142 1.267 . S
O136 C135 1.203 . S
O137 C130 1.185 . S
O137 Zn133 2.086 . S
C138 O134 1.278 . S
C138 O139 1.211 . S
O139 C138 1.211 . S
C140 O132 1.284 . S
C140 O141 1.273 . S
O141 C140 1.273 . S
O142 Zn133 1.977 . S
O142 C135 1.267 . S
C143 O144 1.160 . S
C143 O150 1.185 . S
O144 C143 1.160 . S
O145 Zn146 1.899 . S
O145 C153 1.284 . S
Zn146 O145 1.899 . S
Zn146 O147 2.032 . S
Zn146 O150 2.086 . S
Zn146 O155 1.977 . S
O147 Zn146 2.032 . S
O147 C151 1.278 . S
C148 O149 1.203 . S
C148 O155 1.267 . S
O149 C148 1.203 . S
O150 C143 1.185 . S
O150 Zn146 2.086 . S
C151 O147 1.278 . S
C151 O152 1.211 . S
O152 C151 1.211 . S
C153 O145 1.284 . S
C153 O154 1.273 . S
O154 C153 1.273 . S
O155 Zn146 1.977 . S
O155 C148 1.267 . S
C156 O157 1.160 . S
C156 O163 1.185 . S
O157 C156 1.160 . S
O158 Zn159 1.899 . S
O158 C166 1.284 . S
Zn159 O158 1.899 . S
Zn159 O160 2.032 . S
Zn159 O163 2.086 . S
Zn159 O168 1.977 . S
O160 Zn159 2.032 . S
O160 C164 1.278 . S
C161 O162 1.203 . S
C161 O168 1.267 . S
O162 C161 1.203 . S
O163 C156 1.185 . S
O163 Zn159 2.086 . S
C164 O160 1.278 . S
C164 O165 1.211 . S
O165 C164 1.211 . S
C166 O158 1.284 . S
C166 O167 1.273 . S
O167 C166 1.273 . S
O168 Zn159 1.977 . S
O168 C161 1.267 . S
C169 O170 1.160 . S
C169 O176 1.185 . S
O170 C169 1.160 . S
O171 Zn172 1.899 . S
O171 C179 1.284 . S
Zn172 O171 1.899 . S
Zn172 O173 2.032 . S
Zn172 O176 2.086 . S
Zn172 O181 1.977 1_455 S
O173 Zn172 2.032 . S
O173 C177 1.278 . S
C174 O175 1.203 . S
C174 O181 1.267 . S
O175 C174 1.203 . S
O176 C169 1.185 . S
O176 Zn172 2.086 . S
C177 O173 1.278 . S
C177 O178 1.211 . S
O178 C177 1.211 . S
C179 O171 1.284 . S
C179 O180 1.273 . S
O180 C179 1.273 . S
O181 Zn172 1.977 1_655 S
O181 C174 1.267 . S
C182 O183 1.160 . S
C182 O189 1.185 . S
O183 C182 1.160 . S
O184 Zn185 1.899 . S
O184 C192 1.284 . S
Zn185 O184 1.899 . S
Zn185 O186 2.032 . S
Zn185 O189 2.086 . S
Zn185 O194 1.977 . S
O186 Zn185 2.032 . S
O186 C190 1.278 . S
C187 O188 1.203 . S
C187 O194 1.267 . S
O188 C187 1.203 . S
O189 C182 1.185 . S
O189 Zn185 2.086 . S
C190 O186 1.278 . S
C190 O191 1.211 . S
O191 C190 1.211 . S
C192 O184 1.284 . S
C192 O193 1.273 . S
O193 C192 1.273 . S
O194 Zn185 1.977 . S
O194 C187 1.267 . S
C195 O196 1.160 . S
C195 O202 1.185 . S
O196 C195 1.160 . S
O197 Zn198 1.899 . S
O197 C205 1.284 . S
Zn198 O197 1.899 . S
Zn198 O199 2.032 . S
Zn198 O202 2.086 . S
Zn198 O207 1.977 1_455 S
O199 Zn198 2.032 . S
O199 C203 1.278 . S
C200 O201 1.203 . S
C200 O207 1.267 . S
O201 C200 1.203 . S
O202 C195 1.185 . S
O202 Zn198 2.086 . S
C203 O199 1.278 . S
C203 O204 1.211 . S
O204 C203 1.211 . S
C205 O197 1.284 . S
C205 O206 1.273 . S
O206 C205 1.273 . S
O207 Zn198 1.977 1_655 S
O207 C200 1.267 . S
C208 C209 1.387 . S
C208 H212 0.950 . S
C208 C217 1.390 . S
C209 C208 1.387 . S
C209 C211 1.387 . S
H210 C217 0.950 . S
C211 C209 1.387 . S
C211 C213 1.390 . S
C211 H215 0.950 . S
H212 C208 0.950 . S
C213 C211 1.390 . S
C213 C214 1.387 . S
C213 H216 0.950 . S
C214 C213 1.387 . S
C214 C217 1.387 . S
H215 C211 0.950 . S
H216 C213 0.950 . S
C217 C208 1.390 . S
C217 H210 0.950 . S
C217 C214 1.387 . S
C218 C219 1.387 . S
C218 H222 0.950 . S
C218 C227 1.390 1_655 S
C219 C218 1.387 . S
C219 C221 1.387 . S
H220 C227 0.950 . S
C221 C219 1.387 . S
C221 C223 1.390 1_655 S
C221 H225 0.950 . S
H222 C218 0.950 . S
C223 C221 1.390 1_455 S
C223 C224 1.387 . S
C223 H226 0.950 . S
C224 C223 1.387 . S
C224 C227 1.387 . S
H225 C221 0.950 . S
H226 C223 0.950 . S
C227 C218 1.390 1_455 S
C227 H220 0.950 . S
C227 C224 1.387 . S
C228 C229 1.387 . S
C228 H232 0.950 . S
C228 C237 1.390 . S
C229 C228 1.387 . S
C229 C231 1.387 . S
H230 C237 0.950 . S
C231 C229 1.387 . S
C231 C233 1.390 . S
C231 H235 0.950 . S
H232 C228 0.950 . S
C233 C231 1.390 . S
C233 C234 1.387 . S
C233 H236 0.950 . S
C234 C233 1.387 . S
C234 C237 1.387 . S
H235 C231 0.950 . S
H236 C233 0.950 . S
C237 C228 1.390 . S
C237 H230 0.950 . S
C237 C234 1.387 . S
C238 C239 1.387 . S
C238 H242 0.950 . S
C238 C247 1.390 . S
C239 C238 1.387 . S
C239 C241 1.387 . S
H240 C247 0.950 . S
C241 C239 1.387 . S
C241 C243 1.390 . S
C241 H245 0.950 . S
H242 C238 0.950 . S
C243 C241 1.390 . S
C243 C244 1.387 . S
C243 H246 0.950 . S
C244 C243 1.387 . S
C244 C247 1.387 . S
H245 C241 0.950 . S
H246 C243 0.950 . S
C247 C238 1.390 . S
C247 H240 0.950 . S
C247 C244 1.387 . S
C248 C249 1.387 . S
C248 H252 0.950 . S
C248 C257 1.390 . S
C249 C248 1.387 . S
C249 C251 1.387 . S
H250 C257 0.950 . S
C251 C249 1.387 . S
C251 C253 1.390 . S
C251 H255 0.950 . S
H252 C248 0.950 . S
C253 C251 1.390 . S
C253 C254 1.387 . S
C253 H256 0.950 . S
C254 C253 1.387 . S
C254 C257 1.387 . S
H255 C251 0.950 . S
H256 C253 0.950 . S
C257 C248 1.390 . S
C257 H250 0.950 . S
C257 C254 1.387 . S
C258 C259 1.387 . S
C258 H262 0.950 . S
C258 C267 1.390 . S
C259 C258 1.387 . S
C259 C261 1.387 . S
H260 C267 0.950 . S
C261 C259 1.387 . S
C261 C263 1.390 . S
C261 H265 0.950 . S
H262 C258 0.950 . S
C263 C261 1.390 . S
C263 C264 1.387 . S
C263 H266 0.950 . S
C264 C263 1.387 . S
C264 C267 1.387 . S
H265 C261 0.950 . S
H266 C263 0.950 . S
C267 C258 1.390 . S
C267 H260 0.950 . S
C267 C264 1.387 . S
C268 C269 1.387 . S
C268 H272 0.950 . S
C268 C277 1.390 . S
C269 C268 1.387 . S
C269 C271 1.387 . S
H270 C277 0.950 . S
C271 C269 1.387 . S
C271 C273 1.390 . S
C271 H275 0.950 . S
H272 C268 0.950 . S
C273 C271 1.390 . S
C273 C274 1.387 . S
C273 H276 0.950 . S
C274 C273 1.387 . S
C274 C277 1.387 . S
H275 C271 0.950 . S
H276 C273 0.950 . S
C277 C268 1.390 . S
C277 H270 0.950 . S
C277 C274 1.387 . S
C278 C279 1.387 . S
C278 H282 0.950 . S
C278 C287 1.390 1_455 S
C279 C278 1.387 . S
C279 C281 1.387 . S
H280 C287 0.950 . S
C281 C279 1.387 . S
C281 C283 1.390 1_455 S
C281 H285 0.950 . S
H282 C278 0.950 . S
C283 C281 1.390 1_655 S
C283 C284 1.387 . S
C283 H286 0.950 . S
C284 C283 1.387 . S
C284 C287 1.387 . S
H285 C281 0.950 . S
H286 C283 0.950 . S
C287 C278 1.390 1_655 S
C287 H280 0.950 . S
C287 C284 1.387 . S
C288 C289 1.387 . S
C288 H292 0.950 . S
C288 C297 1.390 1_565 S
C289 C288 1.387 . S
C289 C291 1.387 1_455 S
H290 C297 0.950 . S
C291 C289 1.387 1_655 S
C291 C293 1.390 1_565 S
C291 H295 0.950 . S
H292 C288 0.950 . S
C293 C291 1.390 1_545 S
C293 C294 1.387 1_655 S
C293 H296 0.950 . S
C294 C293 1.387 1_455 S
C294 C297 1.387 . S
H295 C291 0.950 . S
H296 C293 0.950 . S
C297 C288 1.390 1_545 S
C297 H290 0.950 . S
C297 C294 1.387 . S
C298 C299 1.387 . S
C298 H302 0.950 . S
C298 C307 1.390 . S
C299 C298 1.387 . S
C299 C301 1.387 . S
H300 C307 0.950 . S
C301 C299 1.387 . S
C301 C303 1.390 . S
C301 H305 0.950 . S
H302 C298 0.950 . S
C303 C301 1.390 . S
C303 C304 1.387 . S
C303 H306 0.950 . S
C304 C303 1.387 . S
C304 C307 1.387 . S
H305 C301 0.950 . S
H306 C303 0.950 . S
C307 C298 1.390 . S
C307 H300 0.950 . S
C307 C304 1.387 . S
C308 C309 1.387 . S
C308 H312 0.950 . S
C308 C317 1.390 1_564 S
C309 C308 1.387 . S
C309 C311 1.387 . S
H310 C317 0.950 . S
C311 C309 1.387 . S
C311 C313 1.390 1_564 S
C311 H315 0.950 . S
H312 C308 0.950 . S
C313 C311 1.390 1_546 S
C313 C314 1.387 . S
C313 H316 0.950 . S
C314 C313 1.387 . S
C314 C317 1.387 . S
H315 C311 0.950 . S
H316 C313 0.950 . S
C317 C308 1.390 1_546 S
C317 H310 0.950 . S
C317 C314 1.387 . S
C318 C319 1.387 . S
C318 H322 0.950 . S
C318 C327 1.390 . S
C319 C318 1.387 . S
C319 C321 1.387 . S
H320 C327 0.950 . S
C321 C319 1.387 . S
C321 C323 1.390 . S
C321 H325 0.950 . S
H322 C318 0.950 . S
C323 C321 1.390 . S
C323 C324 1.387 . S
C323 H326 0.950 . S
C324 C323 1.387 . S
C324 C327 1.387 . S
H325 C321 0.950 . S
H326 C323 0.950 . S
C327 C318 1.390 . S
C327 H320 0.950 . S
C327 C324 1.387 . S
C328 C329 1.387 . S
C328 H332 0.950 . S
C328 C337 1.390 . S
C329 C328 1.387 . S
C329 C331 1.387 . S
H330 C337 0.950 . S
C331 C329 1.387 . S
C331 C333 1.390 . S
C331 H335 0.950 . S
H332 C328 0.950 . S
C333 C331 1.390 . S
C333 C334 1.387 . S
C333 H336 0.950 . S
C334 C333 1.387 . S
C334 C337 1.387 . S
H335 C331 0.950 . S
H336 C333 0.950 . S
C337 C328 1.390 . S
C337 H330 0.950 . S
C337 C334 1.387 . S
C338 C339 1.387 . S
C338 H342 0.950 . S
C338 C347 1.390 . S
C339 C338 1.387 . S
C339 C341 1.387 . S
H340 C347 0.950 . S
C341 C339 1.387 . S
C341 C343 1.390 . S
C341 H345 0.950 . S
H342 C338 0.950 . S
C343 C341 1.390 . S
C343 C344 1.387 . S
C343 H346 0.950 . S
C344 C343 1.387 . S
C344 C347 1.387 . S
H345 C341 0.950 . S
H346 C343 0.950 . S
C347 C338 1.390 . S
C347 H340 0.950 . S
C347 C344 1.387 . S
C348 C349 1.387 . S
C348 H352 0.950 . S
C348 C357 1.390 1_556 S
C349 C348 1.387 . S
C349 C351 1.387 . S
H350 C357 0.950 . S
C351 C349 1.387 . S
C351 C353 1.390 1_556 S
C351 H355 0.950 . S
H352 C348 0.950 . S
C353 C351 1.390 1_554 S
C353 C354 1.387 . S
C353 H356 0.950 . S
C354 C353 1.387 . S
C354 C357 1.387 . S
H355 C351 0.950 . S
H356 C353 0.950 . S
C357 C348 1.390 1_554 S
C357 H350 0.950 . S
C357 C354 1.387 . S
C358 C359 1.387 . S
C358 H362 0.950 . S
C358 C367 1.390 . S
C359 C358 1.387 . S
C359 C361 1.387 1_455 S
H360 C367 0.950 . S
C361 C359 1.387 1_655 S
C361 C363 1.390 . S
C361 H365 0.950 . S
H362 C358 0.950 . S
C363 C361 1.390 . S
C363 C364 1.387 1_655 S
C363 H366 0.950 . S
C364 C363 1.387 1_455 S
C364 C367 1.387 . S
H365 C361 0.950 . S
H366 C363 0.950 . S
C367 C358 1.390 . S
C367 H360 0.950 . S
C367 C364 1.387 . S
C368 C369 1.387 . S
C368 H372 0.950 . S
C368 C377 1.390 . S
C369 C368 1.387 . S
C369 C371 1.387 . S
H370 C377 0.950 . S
C371 C369 1.387 . S
C371 C373 1.390 . S
C371 H375 0.950 . S
H372 C368 0.950 . S
C373 C371 1.390 . S
C373 C374 1.387 . S
C373 H376 0.950 . S
C374 C373 1.387 . S
C374 C377 1.387 . S
H375 C371 0.950 . S
H376 C373 0.950 . S
C377 C368 1.390 . S
C377 H370 0.950 . S
C377 C374 1.387 . S
C378 C379 1.387 . S
C378 H382 0.950 . S
C378 C387 1.390 . S
C379 C378 1.387 . S
C379 C381 1.387 . S
H380 C387 0.950 . S
C381 C379 1.387 . S
C381 C383 1.390 . S
C381 H385 0.950 . S
H382 C378 0.950 . S
C383 C381 1.390 . S
C383 C384 1.387 . S
C383 H386 0.950 . S
C384 C383 1.387 . S
C384 C387 1.387 . S
H385 C381 0.950 . S
H386 C383 0.950 . S
C387 C378 1.390 . S
C387 H380 0.950 . S
C387 C384 1.387 . S
C388 C389 1.387 . S
C388 H392 0.950 . S
C388 C397 1.390 . S
C389 C388 1.387 . S
C389 C391 1.387 . S
H390 C397 0.950 . S
C391 C389 1.387 . S
C391 C393 1.390 . S
C391 H395 0.950 . S
H392 C388 0.950 . S
C393 C391 1.390 . S
C393 C394 1.387 . S
C393 H396 0.950 . S
C394 C393 1.387 . S
C394 C397 1.387 . S
H395 C391 0.950 . S
H396 C393 0.950 . S
C397 C388 1.390 . S
C397 H390 0.950 . S
C397 C394 1.387 . S
C398 C399 1.387 . S
C398 H402 0.950 . S
C398 C407 1.390 . S
C399 C398 1.387 . S
C399 C401 1.387 . S
H400 C407 0.950 . S
C401 C399 1.387 . S
C401 C403 1.390 . S
C401 H405 0.950 . S
H402 C398 0.950 . S
C403 C401 1.390 . S
C403 C404 1.387 . S
C403 H406 0.950 . S
C404 C403 1.387 . S
C404 C407 1.387 . S
H405 C401 0.950 . S
H406 C403 0.950 . S
C407 C398 1.390 . S
C407 H400 0.950 . S
C407 C404 1.387 . S
C408 C409 1.387 . S
C408 H412 0.950 . S
C408 C417 1.390 . S
C409 C408 1.387 . S
C409 C411 1.387 . S
H410 C417 0.950 . S
C411 C409 1.387 . S
C411 C413 1.390 . S
C411 H415 0.950 . S
H412 C408 0.950 . S
C413 C411 1.390 . S
C413 C414 1.387 . S
C413 H416 0.950 . S
C414 C413 1.387 . S
C414 C417 1.387 . S
H415 C411 0.950 . S
H416 C413 0.950 . S
C417 C408 1.390 . S
C417 H410 0.950 . S
C417 C414 1.387 . S
C418 C419 1.387 . S
C418 H422 0.950 . S
C418 C427 1.390 . S
C419 C418 1.387 . S
C419 C421 1.387 . S
H420 C427 0.950 . S
C421 C419 1.387 . S
C421 C423 1.390 . S
C421 H425 0.950 . S
H422 C418 0.950 . S
C423 C421 1.390 . S
C423 C424 1.387 . S
C423 H426 0.950 . S
C424 C423 1.387 . S
C424 C427 1.387 . S
H425 C421 0.950 . S
H426 C423 0.950 . S
C427 C418 1.390 . S
C427 H420 0.950 . S
C427 C424 1.387 . S
C428 C429 1.387 . S
C428 H432 0.950 . S
C428 C437 1.390 . S
C429 C428 1.387 . S
C429 C431 1.387 . S
H430 C437 0.950 . S
C431 C429 1.387 . S
C431 C433 1.390 . S
C431 H435 0.950 . S
H432 C428 0.950 . S
C433 C431 1.390 . S
C433 C434 1.387 . S
C433 H436 0.950 . S
C434 C433 1.387 . S
C434 C437 1.387 . S
H435 C431 0.950 . S
H436 C433 0.950 . S
C437 C428 1.390 . S
C437 H430 0.950 . S
C437 C434 1.387 . S
C438 C439 1.387 . S
C438 H442 0.950 . S
C438 C447 1.390 . S
C439 C438 1.387 . S
C439 C441 1.387 . S
H440 C447 0.950 . S
C441 C439 1.387 . S
C441 C443 1.390 . S
C441 H445 0.950 . S
H442 C438 0.950 . S
C443 C441 1.390 . S
C443 C444 1.387 . S
C443 H446 0.950 . S
C444 C443 1.387 . S
C444 C447 1.387 . S
H445 C441 0.950 . S
H446 C443 0.950 . S
C447 C438 1.390 . S
C447 H440 0.950 . S
C447 C444 1.387 . S
C448 C449 1.387 . S
C448 H452 0.950 . S
C448 C457 1.390 . S
C449 C448 1.387 . S
C449 C451 1.387 . S
H450 C457 0.950 . S
C451 C449 1.387 . S
C451 C453 1.390 . S
C451 H455 0.950 . S
H452 C448 0.950 . S
C453 C451 1.390 . S
C453 C454 1.387 . S
C453 H456 0.950 . S
C454 C453 1.387 . S
C454 C457 1.387 . S
H455 C451 0.950 . S
H456 C453 0.950 . S
C457 C448 1.390 . S
C457 H450 0.950 . S
C457 C454 1.387 . S
C458 C459 1.387 . S
C458 H462 0.950 . S
C458 C467 1.390 . S
C459 C458 1.387 . S
C459 C461 1.387 . S
H460 C467 0.950 . S
C461 C459 1.387 . S
C461 C463 1.390 . S
C461 H465 0.950 . S
H462 C458 0.950 . S
C463 C461 1.390 . S
C463 C464 1.387 . S
C463 H466 0.950 . S
C464 C463 1.387 . S
C464 C467 1.387 . S
H465 C461 0.950 . S
H466 C463 0.950 . S
C467 C458 1.390 . S
C467 H460 0.950 . S
C467 C464 1.387 . S
C468 C469 1.387 . S
C468 H472 0.950 . S
C468 C477 1.390 . S
C469 C468 1.387 . S
C469 C471 1.387 . S
H470 C477 0.950 . S
C471 C469 1.387 . S
C471 C473 1.390 . S
C471 H475 0.950 . S
H472 C468 0.950 . S
C473 C471 1.390 . S
C473 C474 1.387 . S
C473 H476 0.950 . S
C474 C473 1.387 . S
C474 C477 1.387 . S
H475 C471 0.950 . S
H476 C473 0.950 . S
C477 C468 1.390 . S
C477 H470 0.950 . S
C477 C474 1.387 . S
C478 C479 1.387 . S
C478 H482 0.950 . S
C478 C487 1.390 . S
C479 C478 1.387 . S
C479 C481 1.387 . S
H480 C487 0.950 . S
C481 C479 1.387 . S
C481 C483 1.390 . S
C481 H485 0.950 . S
H482 C478 0.950 . S
C483 C481 1.390 . S
C483 C484 1.387 . S
C483 H486 0.950 . S
C484 C483 1.387 . S
C484 C487 1.387 . S
H485 C481 0.950 . S
H486 C483 0.950 . S
C487 C478 1.390 . S
C487 H480 0.950 . S
C487 C484 1.387 . S
C488 C489 1.387 . S
C488 H492 0.950 . S
C488 C497 1.390 . S
C489 C488 1.387 . S
C489 C491 1.387 . S
H490 C497 0.950 . S
C491 C489 1.387 . S
C491 C493 1.390 . S
C491 H495 0.950 . S
H492 C488 0.950 . S
C493 C491 1.390 . S
C493 C494 1.387 . S
C493 H496 0.950 . S
C494 C493 1.387 . S
C494 C497 1.387 . S
H495 C491 0.950 . S
H496 C493 0.950 . S
C497 C488 1.390 . S
C497 H490 0.950 . S
C497 C494 1.387 . S
C498 C499 1.387 . S
C498 H502 0.950 . S
C498 C507 1.390 . S
C499 C498 1.387 . S
C499 C501 1.387 . S
H500 C507 0.950 . S
C501 C499 1.387 . S
C501 C503 1.390 . S
C501 H505 0.950 . S
H502 C498 0.950 . S
C503 C501 1.390 . S
C503 C504 1.387 . S
C503 H506 0.950 . S
C504 C503 1.387 . S
C504 C507 1.387 . S
H505 C501 0.950 . S
H506 C503 0.950 . S
C507 C498 1.390 . S
C507 H500 0.950 . S
C507 C504 1.387 . S
C508 C509 1.387 . S
C508 H512 0.950 . S
C508 C517 1.390 . S
C509 C508 1.387 . S
C509 C511 1.387 . S
H510 C517 0.950 . S
C511 C509 1.387 . S
C511 C513 1.390 . S
C511 H515 0.950 . S
H512 C508 0.950 . S
C513 C511 1.390 . S
C513 C514 1.387 . S
C513 H516 0.950 . S
C514 C513 1.387 . S
C514 C517 1.387 . S
H515 C511 0.950 . S
H516 C513 0.950 . S
C517 C508 1.390 . S
C517 H510 0.950 . S
C517 C514 1.387 . S
C518 C519 1.387 . S
C518 H522 0.950 . S
C518 C527 1.390 . S
C519 C518 1.387 . S
C519 C521 1.387 . S
H520 C527 0.950 . S
C521 C519 1.387 . S
C521 C523 1.390 . S
C521 H525 0.950 . S
H522 C518 0.950 . S
C523 C521 1.390 . S
C523 C524 1.387 . S
C523 H526 0.950 . S
C524 C523 1.387 . S
C524 C527 1.387 . S
H525 C521 0.950 . S
H526 C523 0.950 . S
C527 C518 1.390 . S
C527 H520 0.950 . S
C527 C524 1.387 . S
C209 C0 1.239 . S
C214 C169 1.239 . S
C219 C143 1.239 . S
C224 C13 1.239 . S
C229 C156 1.239 . S
C234 C26 1.239 . S
C239 C130 1.239 . S
C244 C39 1.239 . S
C249 C52 1.239 . S
C254 C195 1.239 . S
C259 C65 1.240 . S
C264 C117 1.240 . S
C269 C182 1.240 . S
C274 C78 1.240 . S
C279 C91 1.239 . S
C284 C104 1.239 . S
C289 C60 1.540 . S
C294 C8 1.540 . S
C299 C21 1.539 . S
C304 C73 1.539 . S
C309 C34 1.537 . S
C314 C86 1.537 . S
C319 C99 1.538 . S
C324 C47 1.538 . S
C329 C112 1.539 . S
C334 C138 1.539 . S
C339 C125 1.539 . S
C344 C151 1.539 . S
C349 C190 1.538 . S
C354 C164 1.538 . S
C359 C177 1.537 . S
C364 C203 1.537 . S
C369 C70 1.314 . S
C374 C5 1.310 . S
C379 C18 1.314 . S
C384 C83 1.310 . S
C389 C31 1.313 . S
C394 C96 1.310 . S
C399 C57 1.311 . S
C404 C44 1.313 . S
C409 C62 1.356 . S
C414 C140 1.358 . S
C419 C36 1.356 . S
C424 C114 1.357 . S
C429 C153 1.357 . S
C434 C88 1.356 . S
C439 C127 1.358 . S
C444 C10 1.356 . S
C449 C109 1.314 . S
C454 C161 1.310 . S
C459 C135 1.310 . S
C464 C200 1.314 . S
C469 C174 1.314 . S
C474 C122 1.310 . S
C479 C148 1.314 . S
C484 C187 1.310 . S
C489 C192 1.355 . S
C494 C23 1.357 . S
C499 C179 1.356 . S
C504 C75 1.357 . S
C509 C205 1.357 . S
C514 C49 1.355 . S
C519 C166 1.356 . S
C524 C101 1.358 . S
