# Generated by pormake.
# Topology ukc, (4)-cn, num edge types: 1
# Building blocks:
#     Node 0, Type 0, BuildingBlock: QUQFOY_clean_sbu_3, # of connection points: 4
#     Node 1, Type 0, BuildingBlock: QUQFOY_clean_sbu_3, # of connection points: 4
#     Node 2, Type 0, BuildingBlock: QUQFOY_clean_sbu_3, # of connection points: 4
#     Node 3, Type 0, BuildingBlock: QUQFOY_clean_sbu_3, # of connection points: 4
#     Node 4, Type 0, BuildingBlock: QUQFOY_clean_sbu_3, # of connection points: 4
#     Node 5, Type 0, BuildingBlock: QUQFOY_clean_sbu_3, # of connection points: 4
#     Node 6, Type 0, BuildingBlock: QUQFOY_clean_sbu_3, # of connection points: 4
#     Node 7, Type 0, BuildingBlock: QUQFOY_clean_sbu_3, # of connection points: 4
#     Node 8, Type 0, BuildingBlock: QUQFOY_clean_sbu_3, # of connection points: 4
#     Node 9, Type 0, BuildingBlock: QUQFOY_clean_sbu_3, # of connection points: 4
#     Node 10, Type 0, BuildingBlock: QUQFOY_clean_sbu_3, # of connection points: 4
#     Node 11, Type 0, BuildingBlock: QUQFOY_clean_sbu_3, # of connection points: 4
#     Node 12, Type 0, BuildingBlock: QUQFOY_clean_sbu_3, # of connection points: 4
#     Node 13, Type 0, BuildingBlock: QUQFOY_clean_sbu_3, # of connection points: 4
#     Node 14, Type 0, BuildingBlock: QUQFOY_clean_sbu_3, # of connection points: 4
#     Node 15, Type 0, BuildingBlock: QUQFOY_clean_sbu_3, # of connection points: 4
#     Node 16, Type 0, BuildingBlock: QUQFOY_clean_sbu_3, # of connection points: 4
#     Node 17, Type 0, BuildingBlock: QUQFOY_clean_sbu_3, # of connection points: 4
#     Node 18, Type 0, BuildingBlock: QUQFOY_clean_sbu_3, # of connection points: 4
#     Node 19, Type 0, BuildingBlock: QUQFOY_clean_sbu_3, # of connection points: 4
#     Node 20, Type 0, BuildingBlock: QUQFOY_clean_sbu_3, # of connection points: 4
#     Node 21, Type 0, BuildingBlock: QUQFOY_clean_sbu_3, # of connection points: 4
#     Node 22, Type 0, BuildingBlock: QUQFOY_clean_sbu_3, # of connection points: 4
#     Node 23, Type 0, BuildingBlock: QUQFOY_clean_sbu_3, # of connection points: 4
#     Node 24, Type 0, BuildingBlock: QUQFOY_clean_sbu_3, # of connection points: 4
#     Node 25, Type 0, BuildingBlock: QUQFOY_clean_sbu_3, # of connection points: 4
#     Node 26, Type 0, BuildingBlock: QUQFOY_clean_sbu_3, # of connection points: 4
#     Node 27, Type 0, BuildingBlock: QUQFOY_clean_sbu_3, # of connection points: 4
#     Node 28, Type 0, BuildingBlock: QUQFOY_clean_sbu_3, # of connection points: 4
#     Node 29, Type 0, BuildingBlock: QUQFOY_clean_sbu_3, # of connection points: 4
#     Node 30, Type 0, BuildingBlock: QUQFOY_clean_sbu_3, # of connection points: 4
#     Node 31, Type 0, BuildingBlock: QUQFOY_clean_sbu_3, # of connection points: 4
#     Edge 32, Type (0, 0), BuildingBlock: OJICUG_clean_linker_0, # of connection points: 2
#     Edge 33, Type (0, 0), BuildingBlock: OJICUG_clean_linker_0, # of connection points: 2
#     Edge 34, Type (0, 0), BuildingBlock: OJICUG_clean_linker_0, # of connection points: 2
#     Edge 35, Type (0, 0), BuildingBlock: OJICUG_clean_linker_0, # of connection points: 2
#     Edge 36, Type (0, 0), BuildingBlock: OJICUG_clean_linker_0, # of connection points: 2
#     Edge 37, Type (0, 0), BuildingBlock: OJICUG_clean_linker_0, # of connection points: 2
#     Edge 38, Type (0, 0), BuildingBlock: OJICUG_clean_linker_0, # of connection points: 2
#     Edge 39, Type (0, 0), BuildingBlock: OJICUG_clean_linker_0, # of connection points: 2
#     Edge 40, Type (0, 0), BuildingBlock: OJICUG_clean_linker_0, # of connection points: 2
#     Edge 41, Type (0, 0), BuildingBlock: OJICUG_clean_linker_0, # of connection points: 2
#     Edge 42, Type (0, 0), BuildingBlock: OJICUG_clean_linker_0, # of connection points: 2
#     Edge 43, Type (0, 0), BuildingBlock: OJICUG_clean_linker_0, # of connection points: 2
#     Edge 44, Type (0, 0), BuildingBlock: OJICUG_clean_linker_0, # of connection points: 2
#     Edge 45, Type (0, 0), BuildingBlock: OJICUG_clean_linker_0, # of connection points: 2
#     Edge 46, Type (0, 0), BuildingBlock: OJICUG_clean_linker_0, # of connection points: 2
#     Edge 47, Type (0, 0), BuildingBlock: OJICUG_clean_linker_0, # of connection points: 2
#     Edge 48, Type (0, 0), BuildingBlock: OJICUG_clean_linker_0, # of connection points: 2
#     Edge 49, Type (0, 0), BuildingBlock: OJICUG_clean_linker_0, # of connection points: 2
#     Edge 50, Type (0, 0), BuildingBlock: OJICUG_clean_linker_0, # of connection points: 2
#     Edge 51, Type (0, 0), BuildingBlock: OJICUG_clean_linker_0, # of connection points: 2
#     Edge 52, Type (0, 0), BuildingBlock: OJICUG_clean_linker_0, # of connection points: 2
#     Edge 53, Type (0, 0), BuildingBlock: OJICUG_clean_linker_0, # of connection points: 2
#     Edge 54, Type (0, 0), BuildingBlock: OJICUG_clean_linker_0, # of connection points: 2
#     Edge 55, Type (0, 0), BuildingBlock: OJICUG_clean_linker_0, # of connection points: 2
#     Edge 56, Type (0, 0), BuildingBlock: OJICUG_clean_linker_0, # of connection points: 2
#     Edge 57, Type (0, 0), BuildingBlock: OJICUG_clean_linker_0, # of connection points: 2
#     Edge 58, Type (0, 0), BuildingBlock: OJICUG_clean_linker_0, # of connection points: 2
#     Edge 59, Type (0, 0), BuildingBlock: OJICUG_clean_linker_0, # of connection points: 2
#     Edge 60, Type (0, 0), BuildingBlock: OJICUG_clean_linker_0, # of connection points: 2
#     Edge 61, Type (0, 0), BuildingBlock: OJICUG_clean_linker_0, # of connection points: 2
#     Edge 62, Type (0, 0), BuildingBlock: OJICUG_clean_linker_0, # of connection points: 2
#     Edge 63, Type (0, 0), BuildingBlock: OJICUG_clean_linker_0, # of connection points: 2
#     Edge 64, Type (0, 0), BuildingBlock: OJICUG_clean_linker_0, # of connection points: 2
#     Edge 65, Type (0, 0), BuildingBlock: OJICUG_clean_linker_0, # of connection points: 2
#     Edge 66, Type (0, 0), BuildingBlock: OJICUG_clean_linker_0, # of connection points: 2
#     Edge 67, Type (0, 0), BuildingBlock: OJICUG_clean_linker_0, # of connection points: 2
#     Edge 68, Type (0, 0), BuildingBlock: OJICUG_clean_linker_0, # of connection points: 2
#     Edge 69, Type (0, 0), BuildingBlock: OJICUG_clean_linker_0, # of connection points: 2
#     Edge 70, Type (0, 0), BuildingBlock: OJICUG_clean_linker_0, # of connection points: 2
#     Edge 71, Type (0, 0), BuildingBlock: OJICUG_clean_linker_0, # of connection points: 2
#     Edge 72, Type (0, 0), BuildingBlock: OJICUG_clean_linker_0, # of connection points: 2
#     Edge 73, Type (0, 0), BuildingBlock: OJICUG_clean_linker_0, # of connection points: 2
#     Edge 74, Type (0, 0), BuildingBlock: OJICUG_clean_linker_0, # of connection points: 2
#     Edge 75, Type (0, 0), BuildingBlock: OJICUG_clean_linker_0, # of connection points: 2
#     Edge 76, Type (0, 0), BuildingBlock: OJICUG_clean_linker_0, # of connection points: 2
#     Edge 77, Type (0, 0), BuildingBlock: OJICUG_clean_linker_0, # of connection points: 2
#     Edge 78, Type (0, 0), BuildingBlock: OJICUG_clean_linker_0, # of connection points: 2
#     Edge 79, Type (0, 0), BuildingBlock: OJICUG_clean_linker_0, # of connection points: 2
#     Edge 80, Type (0, 0), BuildingBlock: OJICUG_clean_linker_0, # of connection points: 2
#     Edge 81, Type (0, 0), BuildingBlock: OJICUG_clean_linker_0, # of connection points: 2
#     Edge 82, Type (0, 0), BuildingBlock: OJICUG_clean_linker_0, # of connection points: 2
#     Edge 83, Type (0, 0), BuildingBlock: OJICUG_clean_linker_0, # of connection points: 2
#     Edge 84, Type (0, 0), BuildingBlock: OJICUG_clean_linker_0, # of connection points: 2
#     Edge 85, Type (0, 0), BuildingBlock: OJICUG_clean_linker_0, # of connection points: 2
#     Edge 86, Type (0, 0), BuildingBlock: OJICUG_clean_linker_0, # of connection points: 2
#     Edge 87, Type (0, 0), BuildingBlock: OJICUG_clean_linker_0, # of connection points: 2
#     Edge 88, Type (0, 0), BuildingBlock: OJICUG_clean_linker_0, # of connection points: 2
#     Edge 89, Type (0, 0), BuildingBlock: OJICUG_clean_linker_0, # of connection points: 2
#     Edge 90, Type (0, 0), BuildingBlock: OJICUG_clean_linker_0, # of connection points: 2
#     Edge 91, Type (0, 0), BuildingBlock: OJICUG_clean_linker_0, # of connection points: 2
#     Edge 92, Type (0, 0), BuildingBlock: OJICUG_clean_linker_0, # of connection points: 2
#     Edge 93, Type (0, 0), BuildingBlock: OJICUG_clean_linker_0, # of connection points: 2
#     Edge 94, Type (0, 0), BuildingBlock: OJICUG_clean_linker_0, # of connection points: 2
#     Edge 95, Type (0, 0), BuildingBlock: OJICUG_clean_linker_0, # of connection points: 2
# Relax obj value: 0.044
# Max RMSD: 0.063
# Mean RMSD: 0.063
data_MOF--net-ukc--node1-QUQFOY_clean_sbu_3--edge1-OJICUG_clean_linker_0
_symmetry_space_group_name_H-M    P1
_symmetry_Int_Tables_number       1
_symmetry_cell_setting            triclinic
loop_
_symmetry_equiv_pos_as_xyz
'x, y, z'
_cell_length_a     34.388979
_cell_length_b     34.176661
_cell_length_c     66.761519
_cell_angle_alpha  89.922486
_cell_angle_beta   90.010331
_cell_angle_gamma 89.948488
loop_
_atom_site_label
_atom_site_type_symbol
_atom_site_fract_x
_atom_site_fract_y
_atom_site_fract_z
_atom_type_partial_charge
C0 C 0.09348 0.39352 0.07189 0.0
O1 O 0.06034 0.40987 0.07111 0.0
Cd2 Cd 0.02609 0.42468 0.04087 0.0
O3 O 0.11236 0.3858 0.05599 0.0
Cd4 Cd 0.10527 0.39458 0.01984 0.0
C5 C 0.02897 0.33255 0.02019 0.0
O6 O 0.07185 0.45642 0.01986 0.0
O7 O 0.07099 0.42471 -0.00803 0.0
O8 O 0.17028 0.41954 0.01499 0.0
C9 C 0.06218 0.45546 0.00158 0.0
O10 O 0.00874 0.36048 0.02736 0.0
C11 C 0.18088 0.39213 0.0034 0.0
O12 O 0.06527 0.33653 0.0171 0.0
O13 O 0.15661 0.36493 2e-05 0.0
C14 C 0.81866 0.83326 0.31585 0.0
O15 O 0.80708 0.79891 0.32001 0.0
Cd16 Cd 0.81105 0.7453 0.29688 0.0
O17 O 0.83153 0.84134 0.29849 0.0
Cd18 Cd 0.84204 0.81064 0.26599 0.0
C19 C 0.90861 0.75005 0.2865 0.0
O20 O 0.78542 0.76939 0.26608 0.0
O21 O 0.82746 0.75806 0.24266 0.0
O22 O 0.81707 0.86701 0.24835 0.0
C23 C 0.79475 0.75038 0.25053 0.0
O24 O 0.8807 0.73028 0.29394 0.0
C25 C 0.84918 0.87572 0.2401 0.0
O26 O 0.90232 0.78141 0.27678 0.0
O27 O 0.87803 0.85352 0.24358 0.0
C28 C 0.40145 0.61627 0.56066 0.0
O29 O 0.43493 0.60102 0.55872 0.0
Cd30 Cd 0.46724 0.59851 0.52701 0.0
O31 O 0.38291 0.62901 0.54551 0.0
Cd32 Cd 0.38664 0.6333 0.50906 0.0
C33 C 0.46114 0.69628 0.51366 0.0
O34 O 0.41925 0.57242 0.5052 0.0
O35 O 0.41699 0.60746 0.47834 0.0
O36 O 0.32215 0.60717 0.50948 0.0
C37 C 0.4265 0.57548 0.48671 0.0
O38 O 0.48164 0.66678 0.51872 0.0
C39 C 0.30675 0.6341 0.49909 0.0
O40 O 0.42488 0.69288 0.51023 0.0
O41 O 0.32874 0.66177 0.49325 0.0
C42 C 0.65002 0.12529 0.83024 0.0
O43 O 0.66249 0.16026 0.83035 0.0
Cd44 Cd 0.66425 0.20142 0.80135 0.0
O45 O 0.63892 0.10932 0.81404 0.0
Cd46 Cd 0.63433 0.12512 0.77851 0.0
C47 C 0.56821 0.19551 0.78826 0.0
O48 O 0.69332 0.16207 0.77603 0.0
O49 O 0.655 0.16626 0.75051 0.0
O50 O 0.6586 0.06171 0.76878 0.0
C51 C 0.68749 0.17451 0.75844 0.0
O52 O 0.59606 0.21742 0.79394 0.0
C53 C 0.62826 0.05199 0.75917 0.0
O54 O 0.57424 0.16024 0.78312 0.0
O55 O 0.60035 0.07632 0.75874 0.0
C56 C 0.08656 0.57585 0.40219 0.0
O57 O 0.05174 0.56382 0.40053 0.0
Cd58 Cd 0.00345 0.5723 0.42599 0.0
O59 O 0.09828 0.59209 0.41822 0.0
Cd60 Cd 0.07745 0.6098 0.45196 0.0
C61 C 0.01198 0.67246 0.4315 0.0
O62 O 0.03792 0.55407 0.45524 0.0
O63 O 0.03224 0.5947 0.47974 0.0
O64 O 0.13846 0.58693 0.46506 0.0
C65 C 0.02215 0.56258 0.47174 0.0
O66 O -0.00875 0.6433 0.42623 0.0
C67 C 0.14924 0.61996 0.47173 0.0
O68 O 0.04462 0.66778 0.44015 0.0
O69 O 0.12592 0.64854 0.46965 0.0
C70 C 0.6343 0.83106 0.64702 0.0
O71 O 0.64755 0.79638 0.64646 0.0
Cd72 Cd 0.6517 0.75484 0.67535 0.0
O73 O 0.62376 0.84638 0.66349 0.0
Cd74 Cd 0.62177 0.8309 0.69911 0.0
C75 C 0.55673 0.75908 0.69181 0.0
O76 O 0.68121 0.79374 0.70058 0.0
O77 O 0.64401 0.79045 0.72665 0.0
O78 O 0.64987 0.89303 0.70768 0.0
C79 C 0.67601 0.78168 0.71832 0.0
O80 O 0.58479 0.7389 0.68482 0.0
C81 C 0.62108 0.90489 0.71787 0.0
O82 O 0.56157 0.79458 0.69695 0.0
O83 O 0.59178 0.8824 0.7191 0.0
C84 C 0.3797 0.41457 0.88208 0.0
O85 O 0.41476 0.42553 0.88 0.0
Cd86 Cd 0.46093 0.42919 0.90691 0.0
O87 O 0.36635 0.40615 0.89929 0.0
Cd88 Cd 0.38957 0.40438 0.93377 0.0
C89 C 0.45524 0.33451 0.9227 0.0
O90 O 0.42973 0.46258 0.93391 0.0
O91 O 0.43675 0.42287 0.95891 0.0
O92 O 0.33044 0.43077 0.94819 0.0
C93 C 0.44462 0.45559 0.9509 0.0
O94 O 0.47712 0.36117 0.91557 0.0
C95 C 0.32213 0.39984 0.95784 0.0
O96 O 0.42121 0.34237 0.9289 0.0
O97 O 0.34509 0.37096 0.95611 0.0
C98 C 0.84808 0.13445 0.14437 0.0
O99 O 0.83047 0.16645 0.14774 0.0
Cd100 Cd 0.81984 0.19156 0.18064 0.0
O101 O 0.85856 0.11222 0.15869 0.0
Cd102 Cd 0.85449 0.10813 0.19522 0.0
C103 C 0.91506 0.18553 0.19668 0.0
O104 O 0.79244 0.1386 0.19887 0.0
O105 O 0.82569 0.13409 0.22613 0.0
O106 O 0.8321 0.0414 0.19336 0.0
C107 C 0.79407 0.14362 0.21761 0.0
O108 O 0.88592 0.2067 0.19197 0.0
C109 C 0.85906 0.02739 0.20419 0.0
O110 O 0.91198 0.1485 0.19804 0.0
O111 O 0.88486 0.051 0.21047 0.0
C112 C 0.88119 0.57995 0.90174 0.0
O113 O 0.91572 0.56704 0.90012 0.0
Cd114 Cd 0.96387 0.5725 0.92578 0.0
O115 O 0.86934 0.59523 0.918 0.0
Cd116 Cd 0.89048 0.60884 0.95223 0.0
C117 C 0.95653 0.67226 0.93337 0.0
O118 O 0.92933 0.55223 0.95458 0.0
O119 O 0.93628 0.59192 0.9794 0.0
O120 O 0.82997 0.58444 0.96504 0.0
C121 C 0.94548 0.55981 0.97111 0.0
O122 O 0.97685 0.64314 0.9276 0.0
C123 C 0.81928 0.61659 0.97278 0.0
O124 O 0.92369 0.66753 0.94179 0.0
O125 O 0.84227 0.64553 0.97127 0.0
C126 C 0.13328 0.13281 0.6413 0.0
O127 O 0.1506 0.16507 0.64434 0.0
Cd128 Cd 0.16291 0.19163 0.67677 0.0
O129 O 0.12374 0.11066 0.65583 0.0
Cd130 Cd 0.12955 0.10833 0.69238 0.0
C131 C 0.06864 0.18581 0.69379 0.0
O132 O 0.19143 0.13952 0.69524 0.0
O133 O 0.15886 0.13591 0.72273 0.0
O134 O 0.1511 0.04099 0.69247 0.0
C135 C 0.19014 0.14546 0.71391 0.0
O136 O 0.09729 0.20729 0.68871 0.0
C137 C 0.12336 0.02866 0.70331 0.0
O138 O 0.07233 0.14888 0.69532 0.0
O139 O 0.09779 0.05339 0.70865 0.0
C140 C 0.59837 0.41719 0.3835 0.0
O141 O 0.56385 0.42875 0.38016 0.0
Cd142 Cd 0.51445 0.43346 0.40547 0.0
O143 O 0.6093 0.4089 0.40119 0.0
Cd144 Cd 0.58173 0.40849 0.43478 0.0
C145 C 0.51703 0.33901 0.4218 0.0
O146 O 0.5423 0.46731 0.43328 0.0
O147 O 0.53182 0.42816 0.4582 0.0
O148 O 0.63941 0.43487 0.45062 0.0
C149 C 0.52537 0.46086 0.44982 0.0
O150 O 0.49637 0.36579 0.41383 0.0
C151 C 0.64657 0.40423 0.46075 0.0
O152 O 0.55024 0.34662 0.42915 0.0
O153 O 0.62355 0.37551 0.45873 0.0
C154 C 0.34175 0.82664 0.15116 0.0
O155 O 0.32725 0.79248 0.15133 0.0
Cd156 Cd 0.32124 0.75438 0.18135 0.0
O157 O 0.3525 0.84303 0.16731 0.0
Cd158 Cd 0.35333 0.83149 0.20332 0.0
C159 C 0.41603 0.7566 0.19822 0.0
O160 O 0.29243 0.79737 0.2051 0.0
O161 O 0.32781 0.79523 0.23179 0.0
O162 O 0.32728 0.89573 0.20894 0.0
C163 C 0.29602 0.78688 0.22318 0.0
O164 O 0.38742 0.73686 0.19151 0.0
C165 C 0.35559 0.90784 0.21939 0.0
O166 O 0.41228 0.79266 0.20254 0.0
O167 O 0.38377 0.88439 0.22221 0.0
C168 C 0.87694 0.39787 0.57459 0.0
O169 O 0.90993 0.41445 0.57359 0.0
Cd170 Cd 0.94293 0.42956 0.543 0.0
O171 O 0.85761 0.39031 0.55882 0.0
Cd172 Cd 0.86317 0.39951 0.52267 0.0
C173 C 0.93969 0.33746 0.52231 0.0
O174 O 0.89664 0.46141 0.52225 0.0
O175 O 0.8963 0.42939 0.49445 0.0
O176 O 0.79782 0.42428 0.51839 0.0
C177 C 0.90558 0.4602 0.50387 0.0
O178 O 0.96011 0.36539 0.5293 0.0
C179 C 0.78694 0.39672 0.50696 0.0
O180 O 0.90327 0.34145 0.51954 0.0
O181 O 0.81124 0.36959 0.50341 0.0
C182 C 0.32313 0.12929 0.3284 0.0
O183 O 0.31135 0.16452 0.32876 0.0
Cd184 Cd 0.31386 0.20753 0.30056 0.0
O185 O 0.33553 0.11405 0.31225 0.0
Cd186 Cd 0.34388 0.13114 0.27702 0.0
C187 C 0.4111 0.19825 0.29005 0.0
O188 O 0.28656 0.17001 0.27413 0.0
O189 O 0.32598 0.17438 0.24908 0.0
O190 O 0.31854 0.06889 0.26634 0.0
C191 C 0.29351 0.1834 0.25685 0.0
O192 O 0.38345 0.22071 0.29547 0.0
C193 C 0.34931 0.05834 0.25733 0.0
O194 O 0.40445 0.16376 0.28385 0.0
O195 O 0.37791 0.08181 0.25752 0.0
C196 C 0.56822 0.60689 0.06464 0.0
O197 O 0.53475 0.59175 0.06258 0.0
Cd198 Cd 0.50306 0.58904 0.03065 0.0
O199 O 0.58707 0.61933 0.04954 0.0
Cd200 Cd 0.58371 0.62345 0.01314 0.0
C201 C 0.50918 0.68657 0.01724 0.0
O202 O 0.55085 0.56267 0.00871 0.0
O203 O 0.55365 0.59888 -0.01775 0.0
O204 O 0.64865 0.59797 0.01267 0.0
C205 C 0.54382 0.56664 -0.00977 0.0
O206 O 0.48842 0.65723 0.02219 0.0
C207 C 0.66327 0.6259 0.00269 0.0
O208 O 0.54549 0.68291 0.01407 0.0
O209 O 0.64067 0.65362 -0.00244 0.0
C210 C 0.15015 0.83115 0.81737 0.0
O211 O 0.16128 0.79639 0.82095 0.0
Cd212 Cd 0.15768 0.74477 0.79666 0.0
O213 O 0.13808 0.84069 0.80004 0.0
Cd214 Cd 0.12916 0.81221 0.76686 0.0
C215 C 0.0607 0.75118 0.78487 0.0
O216 O 0.18546 0.7701 0.76663 0.0
O217 O 0.14354 0.76075 0.74293 0.0
O218 O 0.15693 0.86866 0.75047 0.0
C219 C 0.17625 0.75244 0.75065 0.0
O220 O 0.08817 0.73083 0.79236 0.0
C221 C 0.12581 0.87865 0.74161 0.0
O222 O 0.06759 0.78326 0.77589 0.0
O223 O 0.09602 0.85737 0.74434 0.0
C224 C 0.59773 0.90576 0.57249 0.0
O225 O 0.56494 0.92281 0.57144 0.0
Cd226 Cd 0.53235 0.93934 0.54088 0.0
O227 O 0.61716 0.89813 0.55676 0.0
Cd228 Cd 0.6123 0.90742 0.52059 0.0
C229 C 0.53383 0.84748 0.51993 0.0
O230 O 0.5801 0.96987 0.52049 0.0
O231 O 0.58104 0.93926 0.4923 0.0
O232 O 0.67862 0.92945 0.51633 0.0
C233 C 0.57164 0.96966 0.50205 0.0
O234 O 0.51379 0.87565 0.527 0.0
C235 C 0.68845 0.90121 0.50507 0.0
O236 O 0.57032 0.85091 0.51722 0.0
O237 O 0.66306 0.87513 0.50157 0.0
C238 C 0.32297 0.33699 0.81372 0.0
O239 O 0.31073 0.30275 0.81757 0.0
Cd240 Cd 0.31395 0.24978 0.79411 0.0
O241 O 0.33586 0.3455 0.79641 0.0
Cd242 Cd 0.34466 0.31563 0.76349 0.0
C243 C 0.41147 0.25413 0.78285 0.0
O244 O 0.28784 0.27459 0.76367 0.0
O245 O 0.32965 0.26319 0.74015 0.0
O246 O 0.31738 0.37167 0.74657 0.0
C247 C 0.29692 0.25569 0.74804 0.0
O248 O 0.3834 0.23485 0.79046 0.0
C249 C 0.34858 0.38118 0.73766 0.0
O250 O 0.40549 0.28579 0.7733 0.0
O251 O 0.37826 0.35977 0.74059 0.0
C252 C 0.9004 0.10417 0.06415 0.0
O253 O 0.93334 0.08818 0.06148 0.0
Cd254 Cd 0.96266 0.08345 0.02906 0.0
O255 O 0.88045 0.11651 0.04939 0.0
Cd256 Cd 0.8808 0.11934 0.01285 0.0
C257 C 0.95704 0.18089 0.01535 0.0
O258 O 0.91225 0.05798 0.00851 0.0
O259 O 0.90841 0.09289 0.98166 0.0
O260 O 0.81506 0.09587 0.01371 0.0
C261 C 0.91833 0.06091 -0.0101 0.0
O262 O 0.97775 0.15132 0.02006 0.0
C263 C 0.80069 0.12393 0.0037 0.0
O264 O 0.9205 0.17772 0.0128 0.0
O265 O 0.82382 0.15071 -0.00204 0.0
C266 C 0.15209 0.62274 0.32924 0.0
O267 O 0.16389 0.65788 0.33031 0.0
Cd268 Cd 0.16312 0.70269 0.30284 0.0
O269 O 0.14052 0.60851 0.3127 0.0
Cd270 Cd 0.1345 0.6287 0.27776 0.0
C271 C 0.0667 0.69533 0.29058 0.0
O272 O 0.19239 0.66738 0.27615 0.0
O273 O 0.15334 0.6741 0.25106 0.0
O274 O 0.16042 0.56751 0.2658 0.0
C275 C 0.18586 0.68199 0.25907 0.0
O276 O 0.09414 0.71729 0.29672 0.0
C277 C 0.13003 0.55783 0.25624 0.0
O278 O 0.07353 0.66106 0.28412 0.0
O279 O 0.10133 0.5812 0.25677 0.0
C280 C 0.58313 0.08115 0.90378 0.0
O281 O 0.54846 0.06884 0.90193 0.0
Cd282 Cd 0.49965 0.0766 0.9271 0.0
O283 O 0.59463 0.09677 0.92002 0.0
Cd284 Cd 0.57282 0.11205 0.95396 0.0
C285 C 0.50921 0.1765 0.93378 0.0
O286 O 0.53249 0.05655 0.95649 0.0
O287 O 0.52588 0.09726 0.98092 0.0
O288 O 0.63235 0.08628 0.96738 0.0
C289 C 0.51609 0.06514 0.97282 0.0
O290 O 0.48857 0.14763 0.92802 0.0
C291 C 0.6438 0.11835 0.9749 0.0
O292 O 0.5415 0.17134 0.9427 0.0
O293 O 0.62163 0.1479 0.97302 0.0
C294 C 0.13789 0.32722 0.14745 0.0
O295 O 0.15265 0.29314 0.1477 0.0
Cd296 Cd 0.16029 0.25558 0.17787 0.0
O297 O 0.12782 0.34403 0.16361 0.0
Cd298 Cd 0.12841 0.3336 0.19965 0.0
C299 C 0.06596 0.25823 0.1954 0.0
O300 O 0.18925 0.2989 0.20138 0.0
O301 O 0.1539 0.29814 0.22817 0.0
O302 O 0.15398 0.3981 0.20534 0.0
C303 C 0.18554 0.28905 0.21958 0.0
O304 O 0.09438 0.23828 0.18862 0.0
C305 C 0.12541 0.4099 0.21573 0.0
O306 O 0.06981 0.29439 0.19946 0.0
O307 O 0.09741 0.38623 0.21837 0.0
C308 C 0.87965 0.9119 0.38252 0.0
O309 O 0.91444 0.92274 0.3794 0.0
Cd310 Cd 0.96337 0.92519 0.40498 0.0
O311 O 0.86829 0.9034 0.4001 0.0
Cd312 Cd 0.8952 0.90199 0.43387 0.0
C313 C 0.95775 0.83055 0.42113 0.0
O314 O 0.93614 0.95967 0.43273 0.0
O315 O 0.94549 0.91986 0.4575 0.0
O316 O 0.83829 0.93103 0.44918 0.0
C317 C 0.95265 0.95258 0.44931 0.0
O318 O 0.97903 0.85686 0.41322 0.0
C319 C 0.82969 0.90098 0.45946 0.0
O320 O 0.92469 0.83894 0.42845 0.0
O321 O 0.85152 0.87122 0.45773 0.0
C322 C 0.33899 0.63894 0.63957 0.0
O323 O 0.32107 0.67075 0.64299 0.0
Cd324 Cd 0.30943 0.69531 0.67593 0.0
O325 O 0.34901 0.61638 0.65384 0.0
Cd326 Cd 0.34383 0.61184 0.69031 0.0
C327 C 0.40436 0.68939 0.69194 0.0
O328 O 0.2817 0.64244 0.69422 0.0
O329 O 0.31565 0.63774 0.72126 0.0
O330 O 0.32293 0.54435 0.6894 0.0
C331 C 0.28384 0.64737 0.71297 0.0
O332 O 0.37539 0.71092 0.68736 0.0
C333 C 0.35086 0.5316 0.70001 0.0
O334 O 0.40093 0.6524 0.69317 0.0
O335 O 0.37625 0.55621 0.70567 0.0
C336 C 0.3871 0.08486 0.40214 0.0
O337 O 0.42189 0.07271 0.40046 0.0
Cd338 Cd 0.47059 0.08137 0.42561 0.0
O339 O 0.37543 0.10111 0.41819 0.0
Cd340 Cd 0.39652 0.11802 0.45205 0.0
C341 C 0.46089 0.1816 0.43174 0.0
O342 O 0.43694 0.06284 0.45492 0.0
O343 O 0.44288 0.1034 0.47944 0.0
O344 O 0.33689 0.09226 0.46517 0.0
C345 C 0.45317 0.07148 0.47129 0.0
O346 O 0.48148 0.15246 0.42624 0.0
C347 C 0.32486 0.12444 0.47234 0.0
O348 O 0.42837 0.17688 0.44052 0.0
O349 O 0.34679 0.15413 0.47044 0.0
C350 C 0.62921 0.63225 0.14366 0.0
O351 O 0.64733 0.664 0.14687 0.0
Cd352 Cd 0.66076 0.68883 0.17956 0.0
O353 O 0.61966 0.60975 0.15804 0.0
Cd354 Cd 0.62657 0.60515 0.19445 0.0
C355 C 0.56669 0.68319 0.19726 0.0
O356 O 0.68875 0.63564 0.19735 0.0
O357 O 0.65674 0.6309 0.22497 0.0
O358 O 0.64871 0.53821 0.19273 0.0
C359 C 0.68787 0.64072 0.2161 0.0
O360 O 0.5956 0.70428 0.19214 0.0
C361 C 0.62187 0.52461 0.20377 0.0
O362 O 0.56966 0.64612 0.19839 0.0
O363 O 0.59627 0.54851 0.21002 0.0
C364 C 0.09182 0.90895 0.8853 0.0
O365 O 0.0572 0.92073 0.8825 0.0
Cd366 Cd 0.00876 0.92446 0.90828 0.0
O367 O 0.10365 0.90014 0.90277 0.0
Cd368 Cd 0.07783 0.8994 0.93682 0.0
C369 C 0.01338 0.82962 0.92434 0.0
O370 O 0.03734 0.95746 0.93604 0.0
O371 O 0.02807 0.91739 0.9607 0.0
O372 O 0.13522 0.92723 0.95223 0.0
C373 C 0.02074 0.95015 0.95257 0.0
O374 O -0.0076 0.85642 0.91661 0.0
C375 C 0.14343 0.89681 0.96233 0.0
O376 O 0.04681 0.83719 0.93144 0.0
O377 O 0.12126 0.86739 0.96037 0.0
C378 C 0.83874 0.32538 0.64945 0.0
O379 O 0.82517 0.29083 0.64912 0.0
Cd380 Cd 0.82095 0.25048 0.67846 0.0
O381 O 0.84927 0.34105 0.66583 0.0
Cd382 Cd 0.85095 0.32727 0.70162 0.0
C383 C 0.91606 0.25523 0.69479 0.0
O384 O 0.7915 0.29048 0.70328 0.0
O385 O 0.82821 0.28801 0.72956 0.0
O386 O 0.82261 0.38993 0.70884 0.0
C387 C 0.79638 0.27901 0.72114 0.0
O388 O 0.88798 0.23492 0.68795 0.0
C389 C 0.85104 0.40245 0.71909 0.0
O390 O 0.91121 0.29083 0.69975 0.0
O391 O 0.88024 0.37997 0.72106 0.0
C392 C 0.37708 0.89775 0.07544 0.0
O393 O 0.4098 0.91474 0.07396 0.0
Cd394 Cd 0.44098 0.93086 0.04303 0.0
O395 O 0.35686 0.8901 0.05998 0.0
Cd396 Cd 0.3604 0.89945 0.02373 0.0
C397 C 0.43807 0.8387 0.02255 0.0
O398 O 0.3926 0.96184 0.02318 0.0
O399 O 0.39149 0.93061 -0.00482 0.0
O400 O 0.29409 0.92201 0.0199 0.0
C401 C 0.40065 0.96134 0.0047 0.0
O402 O 0.45859 0.86684 0.02924 0.0
C403 C 0.28394 0.89406 0.00853 0.0
O404 O 0.40153 0.84242 0.02019 0.0
O405 O 0.30908 0.86778 0.00488 0.0
C406 C 0.81788 0.62668 0.82774 0.0
O407 O 0.80571 0.66178 0.82779 0.0
Cd408 Cd 0.80598 0.70297 0.79881 0.0
O409 O 0.82962 0.61078 0.81163 0.0
Cd410 Cd 0.83622 0.62623 0.77615 0.0
C411 C 0.90272 0.6955 0.78716 0.0
O412 O 0.77779 0.66366 0.77322 0.0
O413 O 0.81647 0.66738 0.74784 0.0
O414 O 0.81193 0.56277 0.76663 0.0
C415 C 0.78396 0.67604 0.75566 0.0
O416 O 0.8749 0.71776 0.79257 0.0
C417 C 0.84254 0.55255 0.75739 0.0
O418 O 0.89642 0.66049 0.78167 0.0
O419 O 0.87053 0.57674 0.75693 0.0
C420 C 0.07298 0.10611 0.5623 0.0
O421 O 0.03974 0.09044 0.56026 0.0
Cd422 Cd 0.00799 0.08795 0.52833 0.0
O423 O 0.09139 0.11925 0.54722 0.0
Cd424 Cd 0.08789 0.1244 0.51084 0.0
C425 C 0.01197 0.18594 0.5157 0.0
O426 O 0.05661 0.06289 0.5064 0.0
O427 O 0.05874 0.09887 0.47985 0.0
O428 O 0.15359 0.101 0.51076 0.0
C429 C 0.04969 0.06645 0.48789 0.0
O430 O -0.00825 0.15614 0.52052 0.0
C431 C 0.16756 0.12923 0.50076 0.0
O432 O 0.04826 0.1829 0.5123 0.0
O433 O 0.14419 0.15611 0.49535 0.0
C434 C 0.65938 0.33495 0.31787 0.0
O435 O 0.6703 0.30054 0.32241 0.0
Cd436 Cd 0.66675 0.24636 0.29959 0.0
O437 O 0.64733 0.34272 0.30032 0.0
Cd438 Cd 0.63774 0.31066 0.26812 0.0
C439 C 0.56979 0.25135 0.28823 0.0
O440 O 0.6943 0.26893 0.26888 0.0
O441 O 0.65246 0.25722 0.24542 0.0
O442 O 0.66325 0.36616 0.24992 0.0
C443 C 0.68518 0.24976 0.25334 0.0
O444 O 0.59721 0.2314 0.29604 0.0
C445 C 0.63133 0.37453 0.24135 0.0
O446 O 0.57679 0.28247 0.27845 0.0
O447 O 0.60239 0.35257 0.24495 0.0
C448 C -0.0097 0.50345 0.96695 0.0
C449 C 0.97677 0.53462 0.97875 0.0
H450 H 0.02844 0.45437 0.96481 0.0
C451 C -0.00676 0.54111 -0.00233 0.0
H452 H 0.9784 0.49798 0.95219 0.0
C453 C 0.02202 0.51598 0.00492 0.0
C454 C 0.03476 0.48419 -0.00671 0.0
H455 H 0.98343 0.56508 0.00699 0.0
H456 H 0.03369 0.521 0.01977 0.0
C457 C 0.01912 0.47856 0.97412 0.0
C458 C 0.75127 0.67578 0.21557 0.0
C459 C 0.71728 0.66525 0.22593 0.0
H460 H 0.80262 0.71104 0.2153 0.0
C461 C 0.71028 0.68096 0.245 0.0
H462 H 0.75746 0.66393 0.20087 0.0
C463 C 0.73593 0.70817 0.25316 0.0
C464 C 0.76916 0.71981 0.24246 0.0
H465 H 0.68433 0.6733 0.25332 0.0
H466 H 0.72935 0.72058 0.26769 0.0
C467 C 0.77707 0.70275 0.2238 0.0
C468 C 0.48955 0.52446 0.4485 0.0
C469 C 0.49843 0.48947 0.45861 0.0
H470 H 0.45932 0.57926 0.44943 0.0
C471 C 0.48193 0.48229 0.47747 0.0
H472 H 0.50176 0.53062 0.43388 0.0
C473 C 0.45783 0.51002 0.48632 0.0
C474 C 0.44965 0.54541 0.47646 0.0
H475 H 0.48813 0.45552 0.48558 0.0
H476 H 0.44604 0.5039 0.50104 0.0
C477 C 0.46521 0.55221 0.45735 0.0
C478 C 0.73417 0.24172 0.72066 0.0
C479 C 0.76826 0.25274 0.73078 0.0
H480 H 0.68181 0.20804 0.72148 0.0
C481 C 0.7756 0.23782 0.74999 0.0
H482 H 0.72782 0.25279 0.7058 0.0
C483 C 0.74936 0.21216 0.75891 0.0
C484 C 0.7153 0.20108 0.74879 0.0
H485 H 0.80168 0.24581 0.75813 0.0
H486 H 0.75577 0.20109 0.77376 0.0
C487 C 0.70789 0.21608 0.72959 0.0
C488 C 0.94731 0.48278 0.47579 0.0
C489 C 0.93279 0.48866 0.49517 0.0
H490 H -0.01287 0.50149 0.4533 0.0
C491 C 0.94652 0.52032 0.50658 0.0
H492 H 0.93719 0.45872 0.46663 0.0
C493 C 0.97525 0.545 0.49891 0.0
C494 C -0.00932 0.53816 0.47979 0.0
H495 H 0.93571 0.52553 0.52159 0.0
H496 H 0.9859 0.56881 0.50808 0.0
C497 C 0.97607 0.5072 0.4682 0.0
C498 C 0.73812 0.74404 0.71788 0.0
C499 C 0.70392 0.75507 0.72791 0.0
H500 H 0.79039 0.71006 0.7188 0.0
C501 C 0.69625 0.73989 0.74703 0.0
H502 H 0.74472 0.75531 0.70309 0.0
C503 C 0.72226 0.71398 0.75595 0.0
C504 C 0.75644 0.70288 0.74593 0.0
H505 H 0.67009 0.74787 0.75509 0.0
H506 H 0.71557 0.70273 0.77073 0.0
C507 C 0.76421 0.71811 0.72683 0.0
C508 C 0.48622 0.47539 0.97962 0.0
C509 C 0.47141 0.48333 0.96047 0.0
H510 H 0.52097 0.49555 0.00399 0.0
C511 C 0.48198 0.51819 0.95071 0.0
H512 H 0.47866 0.4487 -0.01253 0.0
C513 C 0.50641 0.54503 0.96015 0.0
C514 C 0.52041 0.53745 0.97951 0.0
H515 H 0.4711 0.52493 0.93587 0.0
H516 H 0.51367 0.57197 0.95245 0.0
C517 C 0.51046 0.50222 -0.01093 0.0
C518 C 0.77167 0.183 0.24686 0.0
C519 C 0.76439 0.16722 0.22784 0.0
H520 H 0.75219 0.22185 0.26985 0.0
C521 C 0.72963 0.17668 0.21789 0.0
H522 H 0.79822 0.17614 0.25487 0.0
C523 C 0.70327 0.20271 0.22646 0.0
C524 C 0.71138 0.2199 0.24506 0.0
H525 H 0.7232 0.16472 0.20324 0.0
H526 H 0.67713 0.21019 0.21824 0.0
C527 C 0.74542 0.20928 0.25537 0.0
C528 C 0.23782 0.21386 0.75068 0.0
C529 C 0.27119 0.22519 0.74001 0.0
H530 H 0.18616 0.17907 0.7509 0.0
C531 C 0.2792 0.20781 0.72144 0.0
H532 H 0.23113 0.22655 0.76513 0.0
C533 C 0.25344 0.1807 0.71329 0.0
C534 C 0.21936 0.17039 0.72364 0.0
H535 H 0.30484 0.21585 0.71297 0.0
H536 H 0.25976 0.16853 0.69868 0.0
C537 C 0.21219 0.18654 0.74259 0.0
C538 C 0.24714 0.7205 0.26047 0.0
C539 C 0.21335 0.70969 0.25002 0.0
H540 H 0.29973 0.7538 0.26023 0.0
C541 C 0.20626 0.72552 0.23098 0.0
H542 H 0.25324 0.70887 0.27525 0.0
C543 C 0.23288 0.75126 0.22238 0.0
C544 C 0.26695 0.76156 0.23272 0.0
H545 H 0.18037 0.71775 0.22263 0.0
H546 H 0.22699 0.7627 0.20756 0.0
C547 C 0.27366 0.74628 0.25191 0.0
C548 C 0.23323 0.22347 0.25767 0.0
C549 C 0.26666 0.21121 0.24734 0.0
H550 H 0.18154 0.25807 0.25703 0.0
C551 C 0.27397 0.22573 0.22804 0.0
H552 H 0.22696 0.21291 0.27263 0.0
C553 C 0.24786 0.25166 0.2191 0.0
C554 C 0.21415 0.26346 0.22935 0.0
H555 H 0.2996 0.2168 0.2198 0.0
H556 H 0.25388 0.2621 0.20409 0.0
C557 C 0.20726 0.24943 0.24877 0.0
C558 C 0.1939 0.70736 0.72278 0.0
C559 C 0.20218 0.72305 0.74171 0.0
H560 H 0.21335 0.67075 0.69887 0.0
C561 C 0.2361 0.71132 0.7518 0.0
H562 H 0.16785 0.71576 0.71472 0.0
C563 C 0.26201 0.68533 0.7428 0.0
C564 C 0.25453 0.67093 0.72351 0.0
H565 H 0.24302 0.72272 0.76651 0.0
H566 H 0.28843 0.67753 0.7507 0.0
C567 C 0.21992 0.68159 0.71373 0.0
C568 C 0.52989 -0.00678 0.47417 0.0
C569 C 0.54432 -0.00163 0.49363 0.0
H570 H 0.48958 0.01224 0.45197 0.0
C571 C 0.53012 0.02931 0.50542 0.0
H572 H 0.54039 0.96975 0.46471 0.0
C573 C 0.50089 0.05384 0.49808 0.0
C574 C 0.48542 0.04755 0.47892 0.0
H575 H 0.54085 0.03396 0.52049 0.0
H576 H 0.48979 0.077 0.50756 0.0
C577 C 0.50063 0.01747 0.46692 0.0
C578 C 0.97646 0.96955 0.98028 0.0
C579 C -0.00729 0.97757 0.96145 0.0
H580 H 0.93988 0.98964 0.00394 0.0
C581 C 0.98248 0.01225 0.95142 0.0
H582 H 0.98368 0.94296 -0.01168 0.0
C583 C 0.95714 0.03897 0.96033 0.0
C584 C 0.94193 0.03146 0.97946 0.0
H585 H -0.00557 0.01902 0.93681 0.0
H586 H 0.95031 0.06589 0.95249 0.0
C587 C 0.95136 -0.00372 -0.01079 0.0
C588 C 0.46912 0.04706 -0.00016 0.0
C589 C 0.48456 0.0406 0.98069 0.0
H590 H 0.42995 0.02689 0.02251 0.0
C591 C 0.47009 0.00975 0.96898 0.0
H592 H 0.47966 0.07079 0.0091 0.0
C593 C 0.44158 0.98496 0.97652 0.0
C594 C 0.42721 -0.00964 -0.00403 0.0
H595 H 0.48116 0.00435 0.95404 0.0
H596 H 0.43164 0.96091 0.96729 0.0
C597 C 0.44067 0.02202 0.00746 0.0
C598 C 0.01247 0.04361 0.45797 0.0
C599 C 0.0273 0.03641 0.4772 0.0
H600 H 0.97691 0.02254 0.434 0.0
C601 C 0.01901 0.00072 0.48673 0.0
H602 H 0.01849 0.07088 0.45029 0.0
C603 C -0.00462 0.97313 0.47745 0.0
C604 C 0.9795 0.98078 0.45849 0.0
H605 H 0.03025 -0.00571 0.50154 0.0
H606 H -0.01103 0.94616 0.48531 0.0
C607 C -0.01137 0.01601 0.44869 0.0
C608 C 0.016 0.22353 0.01366 0.0
C609 C 0.97533 0.21989 0.01431 0.0
H610 H 0.06486 0.26209 0.01472 0.0
C611 C 0.95238 0.25388 0.01528 0.0
H612 H 0.03445 0.19789 0.01276 0.0
C613 C 0.9698 0.29065 0.01661 0.0
C614 C 0.0105 0.29418 0.01672 0.0
H615 H 0.92095 0.25205 0.01579 0.0
H616 H 0.95137 0.31623 0.01798 0.0
C617 C 0.03341 0.26034 0.01472 0.0
C618 C -0.00472 0.68298 0.29178 0.0
C619 C 0.02631 0.70965 0.2907 0.0
H620 H 0.93352 0.67502 0.29169 0.0
C621 C 0.01834 0.74979 0.28912 0.0
H622 H 0.00067 0.65186 0.29314 0.0
C623 C 0.97996 0.76294 0.28792 0.0
C624 C 0.94894 0.73623 0.28876 0.0
H625 H 0.04174 0.77093 0.28823 0.0
H626 H 0.97457 0.79402 0.28628 0.0
C627 C 0.9569 0.69621 0.29105 0.0
C628 C 0.45666 0.76937 0.5143 0.0
C629 C 0.47946 0.73531 0.51307 0.0
H630 H 0.45599 0.83167 0.51753 0.0
C631 C 0.52014 0.73879 0.51255 0.0
H632 H 0.42522 0.76762 0.51473 0.0
C633 C 0.53773 0.77544 0.51394 0.0
C634 C 0.51501 0.80936 0.51617 0.0
H635 H 0.53849 0.71309 0.51145 0.0
H636 H 0.56919 0.77698 0.514 0.0
C637 C 0.47428 0.80604 0.51598 0.0
C638 C 0.52131 0.2511 0.78507 0.0
C639 C 0.52821 0.21091 0.78756 0.0
H640 H 0.47872 0.29626 0.78132 0.0
C641 C 0.49648 0.18519 0.789 0.0
H642 H 0.54527 0.27153 0.78387 0.0
C643 C 0.45849 0.19936 0.7879 0.0
C644 C 0.45156 0.23941 0.7849 0.0
H645 H 0.501 0.15406 0.79106 0.0
H646 H 0.43458 0.17884 0.78897 0.0
C647 C 0.48328 0.26518 0.78352 0.0
C648 C 0.94504 0.7589 0.42399 0.0
C649 C 0.97173 0.78989 0.42246 0.0
H650 H 0.93693 0.69719 0.42772 0.0
C651 C 0.01172 0.78178 0.42306 0.0
H652 H 0.91402 0.76436 0.42345 0.0
C653 C 0.02476 0.74348 0.42588 0.0
C654 C -0.00194 0.71256 0.42769 0.0
H655 H 0.03288 0.80514 0.42196 0.0
H656 H 0.05577 0.73809 0.4267 0.0
C657 C 0.95811 0.72049 0.42636 0.0
C658 C 0.48451 0.76481 0.69534 0.0
C659 C 0.51782 0.74124 0.69347 0.0
H660 H 0.42233 0.76688 0.69632 0.0
C661 C 0.51356 0.70043 0.69258 0.0
H662 H 0.48691 0.79637 0.69611 0.0
C663 C 0.47668 0.68354 0.69297 0.0
C664 C 0.44326 0.70716 0.69398 0.0
H665 H 0.53872 0.68148 0.69132 0.0
H666 H 0.47439 0.65202 0.69178 0.0
C667 C 0.44754 0.74793 0.69545 0.0
C668 C 0.52226 0.24783 0.92923 0.0
C669 C 0.49558 0.21673 0.93007 0.0
H670 H 0.53042 0.30963 0.9258 0.0
C671 C 0.4558 0.22449 0.92762 0.0
H672 H 0.55317 0.24259 0.93092 0.0
C673 C 0.4428 0.26283 0.92501 0.0
C674 C 0.46943 0.29398 0.92436 0.0
H675 H 0.43462 0.20107 0.92821 0.0
H676 H 0.41186 0.26809 0.92354 0.0
C677 C 0.50932 0.28612 0.92618 0.0
C678 C 0.02411 0.19855 0.19713 0.0
C679 C 0.02757 0.23949 0.19773 0.0
H680 H 0.98583 0.14935 0.19669 0.0
C681 C -0.00618 0.26238 0.1997 0.0
H682 H 0.04961 0.18011 0.1958 0.0
C683 C 0.95722 0.24477 0.20007 0.0
C684 C 0.95369 0.2039 0.19873 0.0
H685 H -0.00445 0.294 0.20027 0.0
H686 H 0.93167 0.26325 0.20095 0.0
C687 C -0.01245 0.18092 0.19775 0.0
C688 C 0.01114 0.71951 0.92885 0.0
C689 C 0.97107 0.7123 0.93023 0.0
H690 H 0.05595 0.76257 0.92612 0.0
C691 C 0.94489 0.74381 0.9289 0.0
H692 H 0.03192 0.69574 0.92985 0.0
C693 C 0.95857 0.78193 0.92638 0.0
C694 C -0.00132 0.78925 0.92561 0.0
H695 H 0.91381 0.73899 0.92977 0.0
H696 H 0.93781 0.80574 0.92557 0.0
C697 C 0.02485 0.75771 0.92679 0.0
C698 C -0.01164 0.26114 0.6977 0.0
C699 C 0.95507 0.23747 0.6963 0.0
H700 H 0.05056 0.26335 0.69797 0.0
C701 C 0.95945 0.19665 0.6956 0.0
H702 H 0.98588 0.29272 0.6983 0.0
C703 C -0.0036 0.17984 0.69568 0.0
C704 C 0.02977 0.20354 0.69617 0.0
H705 H 0.93432 0.17764 0.69471 0.0
H706 H -0.00123 0.1483 0.69464 0.0
C707 C 0.02539 0.24434 0.69749 0.0
C708 C 0.46226 0.29119 0.42398 0.0
C709 C 0.50234 0.29863 0.42306 0.0
H710 H 0.4177 0.2481 0.42779 0.0
C711 C 0.52861 0.26719 0.42422 0.0
H712 H 0.44144 0.31494 0.42318 0.0
C713 C 0.51508 0.22899 0.4265 0.0
C714 C 0.47507 0.22165 0.42813 0.0
H715 H 0.55969 0.27215 0.42343 0.0
H716 H 0.53599 0.20534 0.42755 0.0
C717 C 0.44875 0.25303 0.42673 0.0
C718 C 0.48837 0.76041 0.20168 0.0
C719 C 0.45447 0.73769 0.20011 0.0
H720 H 0.55058 0.76097 0.20204 0.0
C721 C 0.45778 0.69675 0.19939 0.0
H722 H 0.48676 0.79204 0.20233 0.0
C723 C 0.4943 0.67894 0.19947 0.0
C724 C 0.52827 0.70175 0.2 0.0
H725 H 0.43216 0.67843 0.19838 0.0
H726 H 0.49586 0.64737 0.19832 0.0
C727 C 0.52494 0.74262 0.2015 0.0
C728 C 0.93527 0.26524 0.51683 0.0
C729 C 0.95814 0.29912 0.51859 0.0
H730 H 0.93437 0.20282 0.51459 0.0
C731 C -0.00117 0.29567 0.51793 0.0
H732 H 0.90382 0.26693 0.51728 0.0
C733 C 0.01632 0.25896 0.51618 0.0
C734 C -0.00654 0.22494 0.51534 0.0
H735 H 0.01723 0.32128 0.51912 0.0
H736 H 0.04778 0.2572 0.51619 0.0
C737 C 0.95276 0.22849 0.51536 0.0
C738 C 0.48232 0.18526 0.29254 0.0
C739 C 0.45158 0.21218 0.29076 0.0
H740 H 0.54398 0.17669 0.29354 0.0
C741 C 0.45997 0.25221 0.28909 0.0
H742 H 0.4766 0.15421 0.294 0.0
C743 C 0.4985 0.26496 0.28848 0.0
C744 C 0.52924 0.23798 0.28999 0.0
H745 H 0.43681 0.27355 0.28768 0.0
H746 H 0.50424 0.29595 0.28675 0.0
C747 C 0.52083 0.19809 0.29239 0.0
C748 C 0.4971 0.79648 0.01862 0.0
C749 C 0.45641 0.80028 0.01895 0.0
H750 H 0.54574 0.7575 0.01755 0.0
C751 C 0.43332 0.76656 0.01713 0.0
H752 H 0.51567 0.82195 0.01987 0.0
C753 C 0.45052 0.72966 0.016 0.0
C754 C 0.49116 0.72574 0.01641 0.0
H755 H 0.40187 0.76848 0.0173 0.0
H756 H 0.43191 0.70415 0.01521 0.0
C757 C 0.51432 0.75957 0.01723 0.0
C758 C 0.95075 0.75028 0.78548 0.0
C759 C 0.943 0.71012 0.78728 0.0
H760 H -0.00568 0.79474 0.78304 0.0
C761 C 0.97419 0.6837 0.78888 0.0
H762 H 0.92724 0.77125 0.7842 0.0
C763 C 0.01247 0.69715 0.78858 0.0
C764 C 0.02027 0.73718 0.78624 0.0
H765 H 0.96902 0.65258 0.79043 0.0
H766 H 0.03595 0.6761 0.78971 0.0
C767 C -0.01091 0.76366 0.78474 0.0
C768 C 0.2707 0.43164 0.97834 0.0
C769 C 0.28717 0.39747 0.97038 0.0
H770 H 0.22446 0.45646 -0.00444 0.0
C771 C 0.26963 0.36116 0.97424 0.0
H772 H 0.28391 0.45994 0.97568 0.0
C773 C 0.23525 0.35922 -0.01469 0.0
C774 C 0.21857 0.39346 -0.00692 0.0
H775 H 0.28186 0.33441 0.96824 0.0
H776 H 0.22159 0.33103 -0.01235 0.0
C777 C 0.23691 0.42959 -0.01018 0.0
C778 C 0.89146 0.96861 0.21895 0.0
C779 C 0.85821 0.98632 0.21076 0.0
H780 H 0.91479 0.91878 0.23432 0.0
C781 C 0.82297 0.9656 0.21046 0.0
H782 H 0.919 0.98396 0.21926 0.0
C783 C 0.82039 0.92882 0.21939 0.0
C784 C 0.85322 0.9118 0.22832 0.0
H785 H 0.79687 0.9786 0.20425 0.0
H786 H 0.79248 0.91416 0.21977 0.0
C787 C 0.88908 0.93135 0.22747 0.0
C788 C 0.207 0.66134 0.47971 0.0
C789 C 0.18811 0.62494 0.48044 0.0
H790 H 0.26006 0.69277 0.4848 0.0
C791 C 0.20776 0.59238 0.48826 0.0
H792 H 0.19241 0.68683 0.47363 0.0
C793 C 0.24597 0.59588 0.49486 0.0
C794 C 0.26551 0.63183 0.4934 0.0
H795 H 0.19376 0.56403 0.48903 0.0
H796 H 0.26057 0.57004 0.50055 0.0
C797 C 0.24565 0.66469 0.48596 0.0
C798 C 0.58985 -0.00226 0.74391 0.0
C799 C 0.62601 0.01438 0.74865 0.0
H800 H 0.55991 0.94928 0.73062 0.0
C801 C 0.6603 -0.00504 0.74312 0.0
H802 H 0.56301 0.01221 0.74808 0.0
C803 C 0.65853 0.9596 0.73284 0.0
C804 C 0.62243 0.94265 0.7283 0.0
H805 H 0.68854 0.00733 0.74651 0.0
H806 H 0.68545 0.94526 0.72869 0.0
C807 C 0.58807 0.96182 0.734 0.0
C808 C 0.72441 0.58899 -0.00317 0.0
C809 C 0.70428 0.62475 -0.00348 0.0
H810 H 0.77669 0.55849 -0.0106 0.0
C811 C 0.72322 0.65855 -0.01038 0.0
H812 H 0.71051 0.56246 0.00209 0.0
C813 C 0.76151 0.65636 -0.01731 0.0
C814 C 0.7809 0.6202 0.98221 0.0
H815 H 0.70833 0.68649 -0.01065 0.0
H816 H 0.77535 0.68259 0.97702 0.0
C817 C 0.76224 0.58667 -0.01046 0.0
C818 C 0.15818 0.93039 0.72141 0.0
C819 C 0.12405 0.91471 0.72965 0.0
H820 H 0.18441 0.97858 0.70611 0.0
C821 C 0.08887 0.9352 0.72761 0.0
H822 H 0.18561 0.91497 0.72271 0.0
C823 C 0.0883 0.97196 0.71846 0.0
C824 C 0.12273 0.98821 0.71081 0.0
H825 H 0.06218 0.92368 0.73389 0.0
H826 H 0.06115 0.988 0.71775 0.0
C827 C 0.15744 0.96666 0.71185 0.0
C828 C 0.73065 0.43406 0.49348 0.0
C829 C 0.74901 0.39795 0.49687 0.0
H830 H 0.68395 0.46436 0.47899 0.0
C831 C 0.73229 0.36363 0.48922 0.0
H832 H 0.74312 0.46098 0.49913 0.0
C833 C 0.69805 0.36551 0.47803 0.0
C834 C 0.68071 0.40184 0.4739 0.0
H835 H 0.74595 0.33544 0.49167 0.0
H836 H 0.68595 0.33873 0.47202 0.0
C837 C 0.69702 0.43604 0.48187 0.0
C838 C 0.31719 0.00198 0.2408 0.0
C839 C 0.35147 0.02042 0.24711 0.0
H840 H 0.29185 0.95207 0.22673 0.0
C841 C 0.38747 0.00206 0.24386 0.0
H842 H 0.2891 0.01567 0.24306 0.0
C843 C 0.38901 0.96525 0.23482 0.0
C844 C 0.35464 0.94688 0.22852 0.0
H845 H 0.41428 0.01576 0.24866 0.0
H846 H 0.41699 0.95127 0.23271 0.0
C847 C 0.3188 0.96572 0.23139 0.0
C848 C 0.77628 0.86513 0.47675 0.0
C849 C 0.79529 0.90049 0.47247 0.0
H850 H 0.72688 0.8377 0.49036 0.0
C851 C 0.78041 0.93563 0.48015 0.0
H852 H 0.78726 0.83766 0.47096 0.0
C853 C 0.74654 0.93554 0.49161 0.0
C854 C 0.72654 0.90042 0.49514 0.0
H855 H 0.79477 0.96323 0.47715 0.0
H856 H 0.73521 0.96315 0.49704 0.0
C857 C 0.74182 0.86515 0.48779 0.0
C858 C 0.38616 0.47453 0.71472 0.0
C859 C 0.35175 0.49083 0.70704 0.0
H860 H 0.41226 0.42614 0.73013 0.0
C861 C 0.31718 0.46906 0.70775 0.0
H862 H 0.41322 0.49072 0.71426 0.0
C863 C 0.31649 0.43263 0.71715 0.0
C864 C 0.35053 0.41702 0.72555 0.0
H865 H 0.29023 0.48098 0.70196 0.0
H866 H 0.28911 0.41712 0.71828 0.0
C867 C 0.38565 0.43762 0.72372 0.0
C868 C 0.73816 0.08887 -0.00102 0.0
C869 C 0.75936 0.12391 -0.00192 0.0
H870 H 0.6848 0.05974 -0.0078 0.0
C871 C 0.74121 0.15801 -0.00905 0.0
H872 H 0.75142 0.06213 0.00443 0.0
C873 C 0.7027 0.15676 -0.0157 0.0
C874 C 0.68226 0.12122 -0.01569 0.0
H875 H 0.75693 0.18543 -0.00978 0.0
H876 H 0.68953 0.18316 0.97837 0.0
C877 C 0.70008 0.08745 -0.00803 0.0
C878 C 0.09249 0.50265 0.24131 0.0
C879 C 0.1283 0.52089 0.2451 0.0
H880 H 0.06351 0.45246 0.22919 0.0
C881 C 0.1628 0.50317 0.23853 0.0
H882 H 0.06551 0.51582 0.24629 0.0
C883 C 0.1616 0.46757 0.22844 0.0
C884 C 0.12595 0.44868 0.22517 0.0
H885 H 0.19075 0.51684 0.24117 0.0
H886 H 0.18871 0.45437 0.22368 0.0
C887 C 0.09135 0.46649 0.23162 0.0
C888 C 0.22671 0.16355 0.48776 0.0
C889 C 0.2088 0.12939 0.49495 0.0
H890 H 0.27835 0.18895 0.47532 0.0
C891 C 0.23029 0.09449 0.49595 0.0
H892 H 0.21077 0.19086 0.48696 0.0
C893 C 0.26846 0.0933 0.48909 0.0
C894 C 0.28611 0.12713 0.48146 0.0
H895 H 0.21724 0.06771 0.50145 0.0
H896 H 0.28398 0.0657 0.48948 0.0
C897 C 0.26532 0.16251 0.48124 0.0
C898 C 0.66047 0.42669 0.22016 0.0
C899 C 0.6275 0.41004 0.22911 0.0
H900 H 0.68417 0.47585 0.20459 0.0
C901 C 0.59161 0.4295 0.22781 0.0
H902 H 0.68841 0.41208 0.22089 0.0
C903 C 0.58931 0.46636 0.21885 0.0
C904 C 0.62268 0.48375 0.21066 0.0
H905 H 0.56578 0.41722 0.23465 0.0
H906 H 0.56173 0.48171 0.21884 0.0
C907 C 0.65798 0.46306 0.21079 0.0
C908 C 0.19612 0.85982 0.97965 0.0
C909 C 0.17765 0.89555 0.97546 0.0
H910 H 0.2449 0.83139 -0.00663 0.0
C911 C 0.19279 0.9303 -0.01656 0.0
H912 H 0.18491 0.83264 0.97365 0.0
C913 C 0.2264 0.92946 -0.0049 0.0
C914 C 0.2459 0.89398 -0.00147 0.0
H915 H 0.17882 0.95817 0.98053 0.0
H916 H 0.23797 0.95679 0.00074 0.0
C917 C 0.23034 0.8591 -0.0091 0.0
C918 C 0.81315 0.45848 0.73244 0.0
C919 C 0.84937 0.44102 0.7287 0.0
H920 H 0.7827 0.50735 0.74478 0.0
C921 C 0.88354 0.46052 0.73436 0.0
H922 H 0.78636 0.44392 0.7283 0.0
C923 C 0.88145 0.49722 0.74348 0.0
C924 C 0.84514 0.51435 0.74746 0.0
H925 H 0.91181 0.44762 0.73157 0.0
H926 H 0.90814 0.51189 0.74766 0.0
C927 C 0.81104 0.49464 0.74194 0.0
C928 C 0.09308 0.39471 0.10919 0.0
C929 C 0.10856 0.37992 0.0913 0.0
H930 H 0.09068 0.38991 0.14102 0.0
C931 C 0.1362 0.34963 0.09209 0.0
H932 H 0.0719 0.4182 0.10901 0.0
C933 C 0.1466 0.33301 0.11041 0.0
C934 C 0.12997 0.34683 0.12824 0.0
H935 H 0.14857 0.3376 0.0785 0.0
H936 H 0.167 0.30884 0.11056 0.0
C937 C 0.10392 0.37852 0.12751 0.0
C938 C 0.86564 0.91267 0.34591 0.0
C939 C 0.85488 0.90144 0.36535 0.0
H940 H 0.86146 0.90037 0.31468 0.0
C941 C 0.82485 0.87397 0.36789 0.0
H942 H 0.8882 0.93428 0.34351 0.0
C943 C 0.8099 0.85403 0.35138 0.0
C944 C 0.82435 0.86178 0.33213 0.0
H945 H 0.81551 0.86506 0.3827 0.0
H946 H 0.78939 0.83049 0.3539 0.0
C947 C 0.85022 0.8932 0.32939 0.0
C948 C 0.33658 0.65053 0.6027 0.0
C949 C 0.35208 0.63007 0.61909 0.0
H950 H 0.33996 0.66198 0.5713 0.0
C951 C 0.38266 0.60344 0.61597 0.0
H952 H 0.31296 0.67117 0.60466 0.0
C953 C 0.39854 0.5986 0.59692 0.0
C954 C 0.38373 0.61987 0.58063 0.0
H955 H 0.39532 0.58735 0.62835 0.0
H956 H 0.42266 0.57853 0.59502 0.0
C957 C 0.35209 0.64527 0.58361 0.0
C958 C 0.65574 0.12143 0.86739 0.0
C959 C 0.64173 0.10566 0.8494 0.0
H960 H 0.6486 0.12511 0.89907 0.0
C961 C 0.61431 0.07519 0.85006 0.0
H962 H 0.67737 0.14446 0.86733 0.0
C963 C 0.59742 0.06443 0.86821 0.0
C964 C 0.60816 0.08358 0.88594 0.0
H965 H 0.60332 0.06205 0.83644 0.0
H966 H 0.57402 0.04322 0.86813 0.0
C967 C 0.63926 0.11024 0.88558 0.0
C968 C 0.16026 0.61445 0.36602 0.0
C969 C 0.14462 0.60106 0.34788 0.0
H970 H 0.15459 0.61586 0.3978 0.0
C971 C 0.116 0.57173 0.3482 0.0
H972 H 0.18289 0.63648 0.36619 0.0
C973 C 0.09932 0.56028 0.3663 0.0
C974 C 0.11149 0.57763 0.38428 0.0
H975 H 0.10375 0.56041 0.33442 0.0
H976 H 0.07486 0.54033 0.36602 0.0
C977 C 0.144 0.60256 0.38413 0.0
C978 C 0.60345 0.88549 0.62788 0.0
C979 C 0.62874 0.85317 0.62831 0.0
H980 H 0.57377 0.92764 0.60975 0.0
C981 C 0.64681 0.84098 0.61054 0.0
H982 H 0.58919 0.89565 0.64137 0.0
C983 C 0.6384 0.85971 0.5925 0.0
C984 C 0.61131 0.89052 0.59188 0.0
H985 H 0.66672 0.8164 0.61049 0.0
H986 H 0.65175 0.84879 0.57891 0.0
C987 C 0.59458 0.90382 0.60979 0.0
C988 C 0.31222 0.35766 0.8491 0.0
C989 C 0.32869 0.36494 0.83024 0.0
H990 H 0.31482 0.36889 0.8805 0.0
C991 C 0.35586 0.39541 0.82816 0.0
H992 H 0.29073 0.33483 0.85108 0.0
C993 C 0.37009 0.41462 0.84505 0.0
C994 C 0.35689 0.40405 0.8642 0.0
H995 H 0.36874 0.4021 0.81375 0.0
H996 H 0.39344 0.43558 0.84323 0.0
C997 C 0.32599 0.37733 0.86595 0.0
C998 C 0.84195 0.14363 0.10745 0.0
C999 C 0.85911 0.12425 0.12374 0.0
H1000 H 0.84136 0.15214 0.07577 0.0
C1001 C 0.88871 0.0967 0.12023 0.0
H1002 H 0.81899 0.16488 0.10971 0.0
C1003 C 0.9019 0.08973 0.10082 0.0
C1004 C 0.88532 0.10979 0.08457 0.0
H1005 H 0.90257 0.08138 0.13253 0.0
H1006 H 0.92531 0.06897 0.09857 0.0
C1007 C 0.85475 0.13626 0.08802 0.0
C1008 C 0.85168 0.57547 0.84775 0.0
C1009 C 0.82508 0.60669 0.84692 0.0
H1010 H 0.89052 0.5422 0.86608 0.0
C1011 C 0.8109 0.6227 0.86483 0.0
H1012 H 0.86275 0.56212 0.83419 0.0
C1013 C 0.82651 0.61088 0.88313 0.0
C1014 C 0.85688 0.58334 0.88369 0.0
H1015 H 0.78988 0.64632 0.86465 0.0
H1016 H 0.81713 0.62587 0.89658 0.0
C1017 C 0.8677 0.56407 0.86601 0.0
C1018 C 0.1218 0.13593 0.58522 0.0
C1019 C 0.09031 0.11035 0.58234 0.0
H1020 H 0.16021 0.16302 0.60619 0.0
C1021 C 0.07509 0.08991 0.5988 0.0
H1022 H 0.13426 0.15202 0.57279 0.0
C1023 C 0.09037 0.09584 0.61791 0.0
C1024 C 0.12073 0.12273 0.62089 0.0
H1025 H 0.05105 0.06976 0.59699 0.0
H1026 H 0.07739 0.08045 0.63043 0.0
C1027 C 0.1367 0.14225 0.60434 0.0
C1028 C 0.61275 0.41612 0.34692 0.0
C1029 C 0.62315 0.40559 0.36652 0.0
H1030 H 0.61717 0.40243 0.31584 0.0
C1031 C 0.65279 0.37777 0.36946 0.0
H1032 H 0.59048 0.43794 0.3442 0.0
C1033 C 0.66768 0.35692 0.35324 0.0
C1034 C 0.6536 0.36409 0.33385 0.0
H1035 H 0.66185 0.36936 0.3844 0.0
H1036 H 0.68788 0.33321 0.35608 0.0
C1037 C 0.62812 0.39572 0.33067 0.0
C1038 C 0.33732 0.85217 0.09618 0.0
C1039 C 0.36439 0.88289 0.09506 0.0
H1040 H 0.30921 0.80988 0.11487 0.0
C1041 C 0.38178 0.89671 0.11269 0.0
H1042 H 0.32354 0.84082 0.08281 0.0
C1043 C 0.37333 0.8792 0.13103 0.0
C1044 C 0.34777 0.84719 0.13202 0.0
H1045 H 0.40262 0.92045 0.11226 0.0
H1046 H 0.38791 0.88992 0.14432 0.0
C1047 C 0.32931 0.83426 0.1145 0.0
C1048 C 0.82694 0.33431 0.61283 0.0
C1049 C 0.84471 0.3469 0.6306 0.0
H1050 H 0.82264 0.3413 0.5811 0.0
C1051 C 0.87012 0.37908 0.63006 0.0
H1052 H 0.80696 0.30982 0.61285 0.0
C1053 C 0.87939 0.39687 0.61189 0.0
C1054 C 0.86295 0.38317 0.594 0.0
H1055 H 0.88416 0.38955 0.64356 0.0
H1056 H 0.90026 0.42059 0.6118 0.0
C1057 C 0.83575 0.35252 0.59469 0.0
C1058 C 0.35719 0.07818 0.34832 0.0
C1059 C 0.32976 0.10867 0.34745 0.0
H1060 H 0.39714 0.04639 0.3667 0.0
C1061 C 0.31478 0.12401 0.36534 0.0
H1062 H 0.36887 0.06531 0.33477 0.0
C1063 C 0.3307 0.11279 0.38366 0.0
C1064 C 0.36217 0.08652 0.38425 0.0
H1065 H 0.29305 0.14698 0.36512 0.0
H1066 H 0.3208 0.12753 0.39708 0.0
C1067 C 0.37352 0.06738 0.36661 0.0
C1068 C 0.63204 0.64264 0.10673 0.0
C1069 C 0.61606 0.62299 0.12325 0.0
H1070 H 0.62957 0.65266 0.0752 0.0
C1071 C 0.58542 0.59644 0.12024 0.0
H1072 H 0.65575 0.66316 0.10861 0.0
C1073 C 0.57002 0.5908 0.10114 0.0
C1074 C 0.58541 0.61118 0.0847 0.0
H1075 H 0.57242 0.58097 0.13273 0.0
H1076 H 0.54586 0.57081 0.09929 0.0
C1077 C 0.61703 0.63659 0.08761 0.0
C1078 C 0.11938 0.89079 0.8318 0.0
C1079 C 0.1446 0.85867 0.83411 0.0
H1080 H 0.08279 0.93245 0.84649 0.0
C1081 C 0.15899 0.84966 0.85324 0.0
H1082 H 0.10817 0.89887 0.8172 0.0
C1083 C 0.14485 0.86939 0.87 0.0
C1084 C 0.11566 0.89794 0.86786 0.0
H1085 H 0.17897 0.8255 0.85543 0.0
H1086 H 0.15419 0.85967 0.88469 0.0
C1087 C 0.10477 0.91008 0.84858 0.0
loop_
_geom_bond_atom_site_label_1
_geom_bond_atom_site_label_2
_geom_bond_distance
_geom_bond_site_symmetry_2
_ccdc_geom_bond_type
C0 O1 1.306 . S
C0 O3 1.160 . S
O1 C0 1.306 . S
O1 Cd2 2.228 . S
Cd2 O1 2.228 . S
Cd2 O6 2.273 . S
Cd2 O10 2.277 . S
O3 C0 1.160 . S
O3 Cd4 2.203 . S
Cd4 O3 2.203 . S
Cd4 O6 2.411 . S
Cd4 O7 2.333 . S
Cd4 O8 2.352 . S
Cd4 O12 2.277 . S
Cd4 O13 2.356 . S
C5 O10 1.209 . S
C5 O12 1.226 . S
O6 Cd2 2.273 . S
O6 Cd4 2.411 . S
O6 C9 1.320 . S
O7 Cd4 2.333 . S
O7 C9 1.214 . S
O8 Cd4 2.352 . S
O8 C11 1.258 . S
C9 O6 1.320 . S
C9 O7 1.214 . S
O10 Cd2 2.277 . S
O10 C5 1.209 . S
C11 O8 1.258 . S
C11 O13 1.282 . S
O12 Cd4 2.277 . S
O12 C5 1.226 . S
O13 Cd4 2.356 . S
O13 C11 1.282 . S
C14 O15 1.306 . S
C14 O17 1.160 . S
O15 C14 1.306 . S
O15 Cd16 2.228 . S
Cd16 O15 2.228 . S
Cd16 O20 2.273 . S
Cd16 O24 2.277 . S
O17 C14 1.160 . S
O17 Cd18 2.203 . S
Cd18 O17 2.203 . S
Cd18 O20 2.411 . S
Cd18 O21 2.333 . S
Cd18 O22 2.352 . S
Cd18 O26 2.277 . S
Cd18 O27 2.356 . S
C19 O24 1.209 . S
C19 O26 1.226 . S
O20 Cd16 2.273 . S
O20 Cd18 2.411 . S
O20 C23 1.320 . S
O21 Cd18 2.333 . S
O21 C23 1.214 . S
O22 Cd18 2.352 . S
O22 C25 1.258 . S
C23 O20 1.320 . S
C23 O21 1.214 . S
O24 Cd16 2.277 . S
O24 C19 1.209 . S
C25 O22 1.258 . S
C25 O27 1.282 . S
O26 Cd18 2.277 . S
O26 C19 1.226 . S
O27 Cd18 2.356 . S
O27 C25 1.282 . S
C28 O29 1.306 . S
C28 O31 1.160 . S
O29 C28 1.306 . S
O29 Cd30 2.228 . S
Cd30 O29 2.228 . S
Cd30 O34 2.273 . S
Cd30 O38 2.277 . S
O31 C28 1.160 . S
O31 Cd32 2.203 . S
Cd32 O31 2.203 . S
Cd32 O34 2.411 . S
Cd32 O35 2.333 . S
Cd32 O36 2.352 . S
Cd32 O40 2.277 . S
Cd32 O41 2.356 . S
C33 O38 1.209 . S
C33 O40 1.226 . S
O34 Cd30 2.273 . S
O34 Cd32 2.411 . S
O34 C37 1.320 . S
O35 Cd32 2.333 . S
O35 C37 1.214 . S
O36 Cd32 2.352 . S
O36 C39 1.258 . S
C37 O34 1.320 . S
C37 O35 1.214 . S
O38 Cd30 2.277 . S
O38 C33 1.209 . S
C39 O36 1.258 . S
C39 O41 1.282 . S
O40 Cd32 2.277 . S
O40 C33 1.226 . S
O41 Cd32 2.356 . S
O41 C39 1.282 . S
C42 O43 1.306 . S
C42 O45 1.160 . S
O43 C42 1.306 . S
O43 Cd44 2.228 . S
Cd44 O43 2.228 . S
Cd44 O48 2.273 . S
Cd44 O52 2.277 . S
O45 C42 1.160 . S
O45 Cd46 2.203 . S
Cd46 O45 2.203 . S
Cd46 O48 2.411 . S
Cd46 O49 2.333 . S
Cd46 O50 2.352 . S
Cd46 O54 2.277 . S
Cd46 O55 2.356 . S
C47 O52 1.209 . S
C47 O54 1.226 . S
O48 Cd44 2.273 . S
O48 Cd46 2.411 . S
O48 C51 1.320 . S
O49 Cd46 2.333 . S
O49 C51 1.214 . S
O50 Cd46 2.352 . S
O50 C53 1.258 . S
C51 O48 1.320 . S
C51 O49 1.214 . S
O52 Cd44 2.277 . S
O52 C47 1.209 . S
C53 O50 1.258 . S
C53 O55 1.282 . S
O54 Cd46 2.277 . S
O54 C47 1.226 . S
O55 Cd46 2.356 . S
O55 C53 1.282 . S
C56 O57 1.306 . S
C56 O59 1.160 . S
O57 C56 1.306 . S
O57 Cd58 2.228 . S
Cd58 O57 2.228 . S
Cd58 O62 2.273 . S
Cd58 O66 2.277 . S
O59 C56 1.160 . S
O59 Cd60 2.203 . S
Cd60 O59 2.203 . S
Cd60 O62 2.411 . S
Cd60 O63 2.333 . S
Cd60 O64 2.352 . S
Cd60 O68 2.277 . S
Cd60 O69 2.356 . S
C61 O66 1.209 . S
C61 O68 1.226 . S
O62 Cd58 2.273 . S
O62 Cd60 2.411 . S
O62 C65 1.320 . S
O63 Cd60 2.333 . S
O63 C65 1.214 . S
O64 Cd60 2.352 . S
O64 C67 1.258 . S
C65 O62 1.320 . S
C65 O63 1.214 . S
O66 Cd58 2.277 . S
O66 C61 1.209 . S
C67 O64 1.258 . S
C67 O69 1.282 . S
O68 Cd60 2.277 . S
O68 C61 1.226 . S
O69 Cd60 2.356 . S
O69 C67 1.282 . S
C70 O71 1.306 . S
C70 O73 1.160 . S
O71 C70 1.306 . S
O71 Cd72 2.228 . S
Cd72 O71 2.228 . S
Cd72 O76 2.273 . S
Cd72 O80 2.277 . S
O73 C70 1.160 . S
O73 Cd74 2.203 . S
Cd74 O73 2.203 . S
Cd74 O76 2.411 . S
Cd74 O77 2.333 . S
Cd74 O78 2.352 . S
Cd74 O82 2.277 . S
Cd74 O83 2.356 . S
C75 O80 1.209 . S
C75 O82 1.226 . S
O76 Cd72 2.273 . S
O76 Cd74 2.411 . S
O76 C79 1.320 . S
O77 Cd74 2.333 . S
O77 C79 1.214 . S
O78 Cd74 2.352 . S
O78 C81 1.258 . S
C79 O76 1.320 . S
C79 O77 1.214 . S
O80 Cd72 2.277 . S
O80 C75 1.209 . S
C81 O78 1.258 . S
C81 O83 1.282 . S
O82 Cd74 2.277 . S
O82 C75 1.226 . S
O83 Cd74 2.356 . S
O83 C81 1.282 . S
C84 O85 1.306 . S
C84 O87 1.160 . S
O85 C84 1.306 . S
O85 Cd86 2.228 . S
Cd86 O85 2.228 . S
Cd86 O90 2.273 . S
Cd86 O94 2.277 . S
O87 C84 1.160 . S
O87 Cd88 2.203 . S
Cd88 O87 2.203 . S
Cd88 O90 2.411 . S
Cd88 O91 2.333 . S
Cd88 O92 2.352 . S
Cd88 O96 2.277 . S
Cd88 O97 2.356 . S
C89 O94 1.209 . S
C89 O96 1.226 . S
O90 Cd86 2.273 . S
O90 Cd88 2.411 . S
O90 C93 1.320 . S
O91 Cd88 2.333 . S
O91 C93 1.214 . S
O92 Cd88 2.352 . S
O92 C95 1.258 . S
C93 O90 1.320 . S
C93 O91 1.214 . S
O94 Cd86 2.277 . S
O94 C89 1.209 . S
C95 O92 1.258 . S
C95 O97 1.282 . S
O96 Cd88 2.277 . S
O96 C89 1.226 . S
O97 Cd88 2.356 . S
O97 C95 1.282 . S
C98 O99 1.306 . S
C98 O101 1.160 . S
O99 C98 1.306 . S
O99 Cd100 2.228 . S
Cd100 O99 2.228 . S
Cd100 O104 2.273 . S
Cd100 O108 2.277 . S
O101 C98 1.160 . S
O101 Cd102 2.203 . S
Cd102 O101 2.203 . S
Cd102 O104 2.411 . S
Cd102 O105 2.333 . S
Cd102 O106 2.352 . S
Cd102 O110 2.277 . S
Cd102 O111 2.356 . S
C103 O108 1.209 . S
C103 O110 1.226 . S
O104 Cd100 2.273 . S
O104 Cd102 2.411 . S
O104 C107 1.320 . S
O105 Cd102 2.333 . S
O105 C107 1.214 . S
O106 Cd102 2.352 . S
O106 C109 1.258 . S
C107 O104 1.320 . S
C107 O105 1.214 . S
O108 Cd100 2.277 . S
O108 C103 1.209 . S
C109 O106 1.258 . S
C109 O111 1.282 . S
O110 Cd102 2.277 . S
O110 C103 1.226 . S
O111 Cd102 2.356 . S
O111 C109 1.282 . S
C112 O113 1.306 . S
C112 O115 1.160 . S
O113 C112 1.306 . S
O113 Cd114 2.228 . S
Cd114 O113 2.228 . S
Cd114 O118 2.273 . S
Cd114 O122 2.277 . S
O115 C112 1.160 . S
O115 Cd116 2.203 . S
Cd116 O115 2.203 . S
Cd116 O118 2.411 . S
Cd116 O119 2.333 . S
Cd116 O120 2.352 . S
Cd116 O124 2.277 . S
Cd116 O125 2.356 . S
C117 O122 1.209 . S
C117 O124 1.226 . S
O118 Cd114 2.273 . S
O118 Cd116 2.411 . S
O118 C121 1.320 . S
O119 Cd116 2.333 . S
O119 C121 1.214 . S
O120 Cd116 2.352 . S
O120 C123 1.258 . S
C121 O118 1.320 . S
C121 O119 1.214 . S
O122 Cd114 2.277 . S
O122 C117 1.209 . S
C123 O120 1.258 . S
C123 O125 1.282 . S
O124 Cd116 2.277 . S
O124 C117 1.226 . S
O125 Cd116 2.356 . S
O125 C123 1.282 . S
C126 O127 1.306 . S
C126 O129 1.160 . S
O127 C126 1.306 . S
O127 Cd128 2.228 . S
Cd128 O127 2.228 . S
Cd128 O132 2.273 . S
Cd128 O136 2.277 . S
O129 C126 1.160 . S
O129 Cd130 2.203 . S
Cd130 O129 2.203 . S
Cd130 O132 2.411 . S
Cd130 O133 2.333 . S
Cd130 O134 2.352 . S
Cd130 O138 2.277 . S
Cd130 O139 2.356 . S
C131 O136 1.209 . S
C131 O138 1.226 . S
O132 Cd128 2.273 . S
O132 Cd130 2.411 . S
O132 C135 1.320 . S
O133 Cd130 2.333 . S
O133 C135 1.214 . S
O134 Cd130 2.352 . S
O134 C137 1.258 . S
C135 O132 1.320 . S
C135 O133 1.214 . S
O136 Cd128 2.277 . S
O136 C131 1.209 . S
C137 O134 1.258 . S
C137 O139 1.282 . S
O138 Cd130 2.277 . S
O138 C131 1.226 . S
O139 Cd130 2.356 . S
O139 C137 1.282 . S
C140 O141 1.306 . S
C140 O143 1.160 . S
O141 C140 1.306 . S
O141 Cd142 2.228 . S
Cd142 O141 2.228 . S
Cd142 O146 2.273 . S
Cd142 O150 2.277 . S
O143 C140 1.160 . S
O143 Cd144 2.203 . S
Cd144 O143 2.203 . S
Cd144 O146 2.411 . S
Cd144 O147 2.333 . S
Cd144 O148 2.352 . S
Cd144 O152 2.277 . S
Cd144 O153 2.356 . S
C145 O150 1.209 . S
C145 O152 1.226 . S
O146 Cd142 2.273 . S
O146 Cd144 2.411 . S
O146 C149 1.320 . S
O147 Cd144 2.333 . S
O147 C149 1.214 . S
O148 Cd144 2.352 . S
O148 C151 1.258 . S
C149 O146 1.320 . S
C149 O147 1.214 . S
O150 Cd142 2.277 . S
O150 C145 1.209 . S
C151 O148 1.258 . S
C151 O153 1.282 . S
O152 Cd144 2.277 . S
O152 C145 1.226 . S
O153 Cd144 2.356 . S
O153 C151 1.282 . S
C154 O155 1.306 . S
C154 O157 1.160 . S
O155 C154 1.306 . S
O155 Cd156 2.228 . S
Cd156 O155 2.228 . S
Cd156 O160 2.273 . S
Cd156 O164 2.277 . S
O157 C154 1.160 . S
O157 Cd158 2.203 . S
Cd158 O157 2.203 . S
Cd158 O160 2.411 . S
Cd158 O161 2.333 . S
Cd158 O162 2.352 . S
Cd158 O166 2.277 . S
Cd158 O167 2.356 . S
C159 O164 1.209 . S
C159 O166 1.226 . S
O160 Cd156 2.273 . S
O160 Cd158 2.411 . S
O160 C163 1.320 . S
O161 Cd158 2.333 . S
O161 C163 1.214 . S
O162 Cd158 2.352 . S
O162 C165 1.258 . S
C163 O160 1.320 . S
C163 O161 1.214 . S
O164 Cd156 2.277 . S
O164 C159 1.209 . S
C165 O162 1.258 . S
C165 O167 1.282 . S
O166 Cd158 2.277 . S
O166 C159 1.226 . S
O167 Cd158 2.356 . S
O167 C165 1.282 . S
C168 O169 1.306 . S
C168 O171 1.160 . S
O169 C168 1.306 . S
O169 Cd170 2.228 . S
Cd170 O169 2.228 . S
Cd170 O174 2.273 . S
Cd170 O178 2.277 . S
O171 C168 1.160 . S
O171 Cd172 2.203 . S
Cd172 O171 2.203 . S
Cd172 O174 2.411 . S
Cd172 O175 2.333 . S
Cd172 O176 2.352 . S
Cd172 O180 2.277 . S
Cd172 O181 2.356 . S
C173 O178 1.209 . S
C173 O180 1.226 . S
O174 Cd170 2.273 . S
O174 Cd172 2.411 . S
O174 C177 1.320 . S
O175 Cd172 2.333 . S
O175 C177 1.214 . S
O176 Cd172 2.352 . S
O176 C179 1.258 . S
C177 O174 1.320 . S
C177 O175 1.214 . S
O178 Cd170 2.277 . S
O178 C173 1.209 . S
C179 O176 1.258 . S
C179 O181 1.282 . S
O180 Cd172 2.277 . S
O180 C173 1.226 . S
O181 Cd172 2.356 . S
O181 C179 1.282 . S
C182 O183 1.306 . S
C182 O185 1.160 . S
O183 C182 1.306 . S
O183 Cd184 2.228 . S
Cd184 O183 2.228 . S
Cd184 O188 2.273 . S
Cd184 O192 2.277 . S
O185 C182 1.160 . S
O185 Cd186 2.203 . S
Cd186 O185 2.203 . S
Cd186 O188 2.411 . S
Cd186 O189 2.333 . S
Cd186 O190 2.352 . S
Cd186 O194 2.277 . S
Cd186 O195 2.356 . S
C187 O192 1.209 . S
C187 O194 1.226 . S
O188 Cd184 2.273 . S
O188 Cd186 2.411 . S
O188 C191 1.320 . S
O189 Cd186 2.333 . S
O189 C191 1.214 . S
O190 Cd186 2.352 . S
O190 C193 1.258 . S
C191 O188 1.320 . S
C191 O189 1.214 . S
O192 Cd184 2.277 . S
O192 C187 1.209 . S
C193 O190 1.258 . S
C193 O195 1.282 . S
O194 Cd186 2.277 . S
O194 C187 1.226 . S
O195 Cd186 2.356 . S
O195 C193 1.282 . S
C196 O197 1.306 . S
C196 O199 1.160 . S
O197 C196 1.306 . S
O197 Cd198 2.228 . S
Cd198 O197 2.228 . S
Cd198 O202 2.273 . S
Cd198 O206 2.277 . S
O199 C196 1.160 . S
O199 Cd200 2.203 . S
Cd200 O199 2.203 . S
Cd200 O202 2.411 . S
Cd200 O203 2.333 . S
Cd200 O204 2.352 . S
Cd200 O208 2.277 . S
Cd200 O209 2.356 . S
C201 O206 1.209 . S
C201 O208 1.226 . S
O202 Cd198 2.273 . S
O202 Cd200 2.411 . S
O202 C205 1.320 . S
O203 Cd200 2.333 . S
O203 C205 1.214 . S
O204 Cd200 2.352 . S
O204 C207 1.258 . S
C205 O202 1.320 . S
C205 O203 1.214 . S
O206 Cd198 2.277 . S
O206 C201 1.209 . S
C207 O204 1.258 . S
C207 O209 1.282 . S
O208 Cd200 2.277 . S
O208 C201 1.226 . S
O209 Cd200 2.356 . S
O209 C207 1.282 . S
C210 O211 1.306 . S
C210 O213 1.160 . S
O211 C210 1.306 . S
O211 Cd212 2.228 . S
Cd212 O211 2.228 . S
Cd212 O216 2.273 . S
Cd212 O220 2.277 . S
O213 C210 1.160 . S
O213 Cd214 2.203 . S
Cd214 O213 2.203 . S
Cd214 O216 2.411 . S
Cd214 O217 2.333 . S
Cd214 O218 2.352 . S
Cd214 O222 2.277 . S
Cd214 O223 2.356 . S
C215 O220 1.209 . S
C215 O222 1.226 . S
O216 Cd212 2.273 . S
O216 Cd214 2.411 . S
O216 C219 1.320 . S
O217 Cd214 2.333 . S
O217 C219 1.214 . S
O218 Cd214 2.352 . S
O218 C221 1.258 . S
C219 O216 1.320 . S
C219 O217 1.214 . S
O220 Cd212 2.277 . S
O220 C215 1.209 . S
C221 O218 1.258 . S
C221 O223 1.282 . S
O222 Cd214 2.277 . S
O222 C215 1.226 . S
O223 Cd214 2.356 . S
O223 C221 1.282 . S
C224 O225 1.306 . S
C224 O227 1.160 . S
O225 C224 1.306 . S
O225 Cd226 2.228 . S
Cd226 O225 2.228 . S
Cd226 O230 2.273 . S
Cd226 O234 2.277 . S
O227 C224 1.160 . S
O227 Cd228 2.203 . S
Cd228 O227 2.203 . S
Cd228 O230 2.411 . S
Cd228 O231 2.333 . S
Cd228 O232 2.352 . S
Cd228 O236 2.277 . S
Cd228 O237 2.356 . S
C229 O234 1.209 . S
C229 O236 1.226 . S
O230 Cd226 2.273 . S
O230 Cd228 2.411 . S
O230 C233 1.320 . S
O231 Cd228 2.333 . S
O231 C233 1.214 . S
O232 Cd228 2.352 . S
O232 C235 1.258 . S
C233 O230 1.320 . S
C233 O231 1.214 . S
O234 Cd226 2.277 . S
O234 C229 1.209 . S
C235 O232 1.258 . S
C235 O237 1.282 . S
O236 Cd228 2.277 . S
O236 C229 1.226 . S
O237 Cd228 2.356 . S
O237 C235 1.282 . S
C238 O239 1.306 . S
C238 O241 1.160 . S
O239 C238 1.306 . S
O239 Cd240 2.228 . S
Cd240 O239 2.228 . S
Cd240 O244 2.273 . S
Cd240 O248 2.277 . S
O241 C238 1.160 . S
O241 Cd242 2.203 . S
Cd242 O241 2.203 . S
Cd242 O244 2.411 . S
Cd242 O245 2.333 . S
Cd242 O246 2.352 . S
Cd242 O250 2.277 . S
Cd242 O251 2.356 . S
C243 O248 1.209 . S
C243 O250 1.226 . S
O244 Cd240 2.273 . S
O244 Cd242 2.411 . S
O244 C247 1.320 . S
O245 Cd242 2.333 . S
O245 C247 1.214 . S
O246 Cd242 2.352 . S
O246 C249 1.258 . S
C247 O244 1.320 . S
C247 O245 1.214 . S
O248 Cd240 2.277 . S
O248 C243 1.209 . S
C249 O246 1.258 . S
C249 O251 1.282 . S
O250 Cd242 2.277 . S
O250 C243 1.226 . S
O251 Cd242 2.356 . S
O251 C249 1.282 . S
C252 O253 1.306 . S
C252 O255 1.160 . S
O253 C252 1.306 . S
O253 Cd254 2.228 . S
Cd254 O253 2.228 . S
Cd254 O258 2.273 . S
Cd254 O262 2.277 . S
O255 C252 1.160 . S
O255 Cd256 2.203 . S
Cd256 O255 2.203 . S
Cd256 O258 2.411 . S
Cd256 O259 2.333 . S
Cd256 O260 2.352 . S
Cd256 O264 2.277 . S
Cd256 O265 2.356 . S
C257 O262 1.209 . S
C257 O264 1.226 . S
O258 Cd254 2.273 . S
O258 Cd256 2.411 . S
O258 C261 1.320 . S
O259 Cd256 2.333 . S
O259 C261 1.214 . S
O260 Cd256 2.352 . S
O260 C263 1.258 . S
C261 O258 1.320 . S
C261 O259 1.214 . S
O262 Cd254 2.277 . S
O262 C257 1.209 . S
C263 O260 1.258 . S
C263 O265 1.282 . S
O264 Cd256 2.277 . S
O264 C257 1.226 . S
O265 Cd256 2.356 . S
O265 C263 1.282 . S
C266 O267 1.306 . S
C266 O269 1.160 . S
O267 C266 1.306 . S
O267 Cd268 2.228 . S
Cd268 O267 2.228 . S
Cd268 O272 2.273 . S
Cd268 O276 2.277 . S
O269 C266 1.160 . S
O269 Cd270 2.203 . S
Cd270 O269 2.203 . S
Cd270 O272 2.411 . S
Cd270 O273 2.333 . S
Cd270 O274 2.352 . S
Cd270 O278 2.277 . S
Cd270 O279 2.356 . S
C271 O276 1.209 . S
C271 O278 1.226 . S
O272 Cd268 2.273 . S
O272 Cd270 2.411 . S
O272 C275 1.320 . S
O273 Cd270 2.333 . S
O273 C275 1.214 . S
O274 Cd270 2.352 . S
O274 C277 1.258 . S
C275 O272 1.320 . S
C275 O273 1.214 . S
O276 Cd268 2.277 . S
O276 C271 1.209 . S
C277 O274 1.258 . S
C277 O279 1.282 . S
O278 Cd270 2.277 . S
O278 C271 1.226 . S
O279 Cd270 2.356 . S
O279 C277 1.282 . S
C280 O281 1.306 . S
C280 O283 1.160 . S
O281 C280 1.306 . S
O281 Cd282 2.228 . S
Cd282 O281 2.228 . S
Cd282 O286 2.273 . S
Cd282 O290 2.277 . S
O283 C280 1.160 . S
O283 Cd284 2.203 . S
Cd284 O283 2.203 . S
Cd284 O286 2.411 . S
Cd284 O287 2.333 . S
Cd284 O288 2.352 . S
Cd284 O292 2.277 . S
Cd284 O293 2.356 . S
C285 O290 1.209 . S
C285 O292 1.226 . S
O286 Cd282 2.273 . S
O286 Cd284 2.411 . S
O286 C289 1.320 . S
O287 Cd284 2.333 . S
O287 C289 1.214 . S
O288 Cd284 2.352 . S
O288 C291 1.258 . S
C289 O286 1.320 . S
C289 O287 1.214 . S
O290 Cd282 2.277 . S
O290 C285 1.209 . S
C291 O288 1.258 . S
C291 O293 1.282 . S
O292 Cd284 2.277 . S
O292 C285 1.226 . S
O293 Cd284 2.356 . S
O293 C291 1.282 . S
C294 O295 1.306 . S
C294 O297 1.160 . S
O295 C294 1.306 . S
O295 Cd296 2.228 . S
Cd296 O295 2.228 . S
Cd296 O300 2.273 . S
Cd296 O304 2.277 . S
O297 C294 1.160 . S
O297 Cd298 2.203 . S
Cd298 O297 2.203 . S
Cd298 O300 2.411 . S
Cd298 O301 2.333 . S
Cd298 O302 2.352 . S
Cd298 O306 2.277 . S
Cd298 O307 2.356 . S
C299 O304 1.209 . S
C299 O306 1.226 . S
O300 Cd296 2.273 . S
O300 Cd298 2.411 . S
O300 C303 1.320 . S
O301 Cd298 2.333 . S
O301 C303 1.214 . S
O302 Cd298 2.352 . S
O302 C305 1.258 . S
C303 O300 1.320 . S
C303 O301 1.214 . S
O304 Cd296 2.277 . S
O304 C299 1.209 . S
C305 O302 1.258 . S
C305 O307 1.282 . S
O306 Cd298 2.277 . S
O306 C299 1.226 . S
O307 Cd298 2.356 . S
O307 C305 1.282 . S
C308 O309 1.306 . S
C308 O311 1.160 . S
O309 C308 1.306 . S
O309 Cd310 2.228 . S
Cd310 O309 2.228 . S
Cd310 O314 2.273 . S
Cd310 O318 2.277 . S
O311 C308 1.160 . S
O311 Cd312 2.203 . S
Cd312 O311 2.203 . S
Cd312 O314 2.411 . S
Cd312 O315 2.333 . S
Cd312 O316 2.352 . S
Cd312 O320 2.277 . S
Cd312 O321 2.356 . S
C313 O318 1.209 . S
C313 O320 1.226 . S
O314 Cd310 2.273 . S
O314 Cd312 2.411 . S
O314 C317 1.320 . S
O315 Cd312 2.333 . S
O315 C317 1.214 . S
O316 Cd312 2.352 . S
O316 C319 1.258 . S
C317 O314 1.320 . S
C317 O315 1.214 . S
O318 Cd310 2.277 . S
O318 C313 1.209 . S
C319 O316 1.258 . S
C319 O321 1.282 . S
O320 Cd312 2.277 . S
O320 C313 1.226 . S
O321 Cd312 2.356 . S
O321 C319 1.282 . S
C322 O323 1.306 . S
C322 O325 1.160 . S
O323 C322 1.306 . S
O323 Cd324 2.228 . S
Cd324 O323 2.228 . S
Cd324 O328 2.273 . S
Cd324 O332 2.277 . S
O325 C322 1.160 . S
O325 Cd326 2.203 . S
Cd326 O325 2.203 . S
Cd326 O328 2.411 . S
Cd326 O329 2.333 . S
Cd326 O330 2.352 . S
Cd326 O334 2.277 . S
Cd326 O335 2.356 . S
C327 O332 1.209 . S
C327 O334 1.226 . S
O328 Cd324 2.273 . S
O328 Cd326 2.411 . S
O328 C331 1.320 . S
O329 Cd326 2.333 . S
O329 C331 1.214 . S
O330 Cd326 2.352 . S
O330 C333 1.258 . S
C331 O328 1.320 . S
C331 O329 1.214 . S
O332 Cd324 2.277 . S
O332 C327 1.209 . S
C333 O330 1.258 . S
C333 O335 1.282 . S
O334 Cd326 2.277 . S
O334 C327 1.226 . S
O335 Cd326 2.356 . S
O335 C333 1.282 . S
C336 O337 1.306 . S
C336 O339 1.160 . S
O337 C336 1.306 . S
O337 Cd338 2.228 . S
Cd338 O337 2.228 . S
Cd338 O342 2.273 . S
Cd338 O346 2.277 . S
O339 C336 1.160 . S
O339 Cd340 2.203 . S
Cd340 O339 2.203 . S
Cd340 O342 2.411 . S
Cd340 O343 2.333 . S
Cd340 O344 2.352 . S
Cd340 O348 2.277 . S
Cd340 O349 2.356 . S
C341 O346 1.209 . S
C341 O348 1.226 . S
O342 Cd338 2.273 . S
O342 Cd340 2.411 . S
O342 C345 1.320 . S
O343 Cd340 2.333 . S
O343 C345 1.214 . S
O344 Cd340 2.352 . S
O344 C347 1.258 . S
C345 O342 1.320 . S
C345 O343 1.214 . S
O346 Cd338 2.277 . S
O346 C341 1.209 . S
C347 O344 1.258 . S
C347 O349 1.282 . S
O348 Cd340 2.277 . S
O348 C341 1.226 . S
O349 Cd340 2.356 . S
O349 C347 1.282 . S
C350 O351 1.306 . S
C350 O353 1.160 . S
O351 C350 1.306 . S
O351 Cd352 2.228 . S
Cd352 O351 2.228 . S
Cd352 O356 2.273 . S
Cd352 O360 2.277 . S
O353 C350 1.160 . S
O353 Cd354 2.203 . S
Cd354 O353 2.203 . S
Cd354 O356 2.411 . S
Cd354 O357 2.333 . S
Cd354 O358 2.352 . S
Cd354 O362 2.277 . S
Cd354 O363 2.356 . S
C355 O360 1.209 . S
C355 O362 1.226 . S
O356 Cd352 2.273 . S
O356 Cd354 2.411 . S
O356 C359 1.320 . S
O357 Cd354 2.333 . S
O357 C359 1.214 . S
O358 Cd354 2.352 . S
O358 C361 1.258 . S
C359 O356 1.320 . S
C359 O357 1.214 . S
O360 Cd352 2.277 . S
O360 C355 1.209 . S
C361 O358 1.258 . S
C361 O363 1.282 . S
O362 Cd354 2.277 . S
O362 C355 1.226 . S
O363 Cd354 2.356 . S
O363 C361 1.282 . S
C364 O365 1.306 . S
C364 O367 1.160 . S
O365 C364 1.306 . S
O365 Cd366 2.228 . S
Cd366 O365 2.228 . S
Cd366 O370 2.273 . S
Cd366 O374 2.277 . S
O367 C364 1.160 . S
O367 Cd368 2.203 . S
Cd368 O367 2.203 . S
Cd368 O370 2.411 . S
Cd368 O371 2.333 . S
Cd368 O372 2.352 . S
Cd368 O376 2.277 . S
Cd368 O377 2.356 . S
C369 O374 1.209 . S
C369 O376 1.226 . S
O370 Cd366 2.273 . S
O370 Cd368 2.411 . S
O370 C373 1.320 . S
O371 Cd368 2.333 . S
O371 C373 1.214 . S
O372 Cd368 2.352 . S
O372 C375 1.258 . S
C373 O370 1.320 . S
C373 O371 1.214 . S
O374 Cd366 2.277 . S
O374 C369 1.209 . S
C375 O372 1.258 . S
C375 O377 1.282 . S
O376 Cd368 2.277 . S
O376 C369 1.226 . S
O377 Cd368 2.356 . S
O377 C375 1.282 . S
C378 O379 1.306 . S
C378 O381 1.160 . S
O379 C378 1.306 . S
O379 Cd380 2.228 . S
Cd380 O379 2.228 . S
Cd380 O384 2.273 . S
Cd380 O388 2.277 . S
O381 C378 1.160 . S
O381 Cd382 2.203 . S
Cd382 O381 2.203 . S
Cd382 O384 2.411 . S
Cd382 O385 2.333 . S
Cd382 O386 2.352 . S
Cd382 O390 2.277 . S
Cd382 O391 2.356 . S
C383 O388 1.209 . S
C383 O390 1.226 . S
O384 Cd380 2.273 . S
O384 Cd382 2.411 . S
O384 C387 1.320 . S
O385 Cd382 2.333 . S
O385 C387 1.214 . S
O386 Cd382 2.352 . S
O386 C389 1.258 . S
C387 O384 1.320 . S
C387 O385 1.214 . S
O388 Cd380 2.277 . S
O388 C383 1.209 . S
C389 O386 1.258 . S
C389 O391 1.282 . S
O390 Cd382 2.277 . S
O390 C383 1.226 . S
O391 Cd382 2.356 . S
O391 C389 1.282 . S
C392 O393 1.306 . S
C392 O395 1.160 . S
O393 C392 1.306 . S
O393 Cd394 2.228 . S
Cd394 O393 2.228 . S
Cd394 O398 2.273 . S
Cd394 O402 2.277 . S
O395 C392 1.160 . S
O395 Cd396 2.203 . S
Cd396 O395 2.203 . S
Cd396 O398 2.411 . S
Cd396 O399 2.333 . S
Cd396 O400 2.352 . S
Cd396 O404 2.277 . S
Cd396 O405 2.356 . S
C397 O402 1.209 . S
C397 O404 1.226 . S
O398 Cd394 2.273 . S
O398 Cd396 2.411 . S
O398 C401 1.320 . S
O399 Cd396 2.333 . S
O399 C401 1.214 . S
O400 Cd396 2.352 . S
O400 C403 1.258 . S
C401 O398 1.320 . S
C401 O399 1.214 . S
O402 Cd394 2.277 . S
O402 C397 1.209 . S
C403 O400 1.258 . S
C403 O405 1.282 . S
O404 Cd396 2.277 . S
O404 C397 1.226 . S
O405 Cd396 2.356 . S
O405 C403 1.282 . S
C406 O407 1.306 . S
C406 O409 1.160 . S
O407 C406 1.306 . S
O407 Cd408 2.228 . S
Cd408 O407 2.228 . S
Cd408 O412 2.273 . S
Cd408 O416 2.277 . S
O409 C406 1.160 . S
O409 Cd410 2.203 . S
Cd410 O409 2.203 . S
Cd410 O412 2.411 . S
Cd410 O413 2.333 . S
Cd410 O414 2.352 . S
Cd410 O418 2.277 . S
Cd410 O419 2.356 . S
C411 O416 1.209 . S
C411 O418 1.226 . S
O412 Cd408 2.273 . S
O412 Cd410 2.411 . S
O412 C415 1.320 . S
O413 Cd410 2.333 . S
O413 C415 1.214 . S
O414 Cd410 2.352 . S
O414 C417 1.258 . S
C415 O412 1.320 . S
C415 O413 1.214 . S
O416 Cd408 2.277 . S
O416 C411 1.209 . S
C417 O414 1.258 . S
C417 O419 1.282 . S
O418 Cd410 2.277 . S
O418 C411 1.226 . S
O419 Cd410 2.356 . S
O419 C417 1.282 . S
C420 O421 1.306 . S
C420 O423 1.160 . S
O421 C420 1.306 . S
O421 Cd422 2.228 . S
Cd422 O421 2.228 . S
Cd422 O426 2.273 . S
Cd422 O430 2.277 . S
O423 C420 1.160 . S
O423 Cd424 2.203 . S
Cd424 O423 2.203 . S
Cd424 O426 2.411 . S
Cd424 O427 2.333 . S
Cd424 O428 2.352 . S
Cd424 O432 2.277 . S
Cd424 O433 2.356 . S
C425 O430 1.209 . S
C425 O432 1.226 . S
O426 Cd422 2.273 . S
O426 Cd424 2.411 . S
O426 C429 1.320 . S
O427 Cd424 2.333 . S
O427 C429 1.214 . S
O428 Cd424 2.352 . S
O428 C431 1.258 . S
C429 O426 1.320 . S
C429 O427 1.214 . S
O430 Cd422 2.277 . S
O430 C425 1.209 . S
C431 O428 1.258 . S
C431 O433 1.282 . S
O432 Cd424 2.277 . S
O432 C425 1.226 . S
O433 Cd424 2.356 . S
O433 C431 1.282 . S
C434 O435 1.306 . S
C434 O437 1.160 . S
O435 C434 1.306 . S
O435 Cd436 2.228 . S
Cd436 O435 2.228 . S
Cd436 O440 2.273 . S
Cd436 O444 2.277 . S
O437 C434 1.160 . S
O437 Cd438 2.203 . S
Cd438 O437 2.203 . S
Cd438 O440 2.411 . S
Cd438 O441 2.333 . S
Cd438 O442 2.352 . S
Cd438 O446 2.277 . S
Cd438 O447 2.356 . S
C439 O444 1.209 . S
C439 O446 1.226 . S
O440 Cd436 2.273 . S
O440 Cd438 2.411 . S
O440 C443 1.320 . S
O441 Cd438 2.333 . S
O441 C443 1.214 . S
O442 Cd438 2.352 . S
O442 C445 1.258 . S
C443 O440 1.320 . S
C443 O441 1.214 . S
O444 Cd436 2.277 . S
O444 C439 1.209 . S
C445 O442 1.258 . S
C445 O447 1.282 . S
O446 Cd438 2.277 . S
O446 C439 1.226 . S
O447 Cd438 2.356 . S
O447 C445 1.282 . S
C448 C449 1.387 1_455 S
C448 H452 0.950 . S
C448 C457 1.390 . S
C449 C448 1.387 1_655 S
C449 C451 1.387 1_556 S
H450 C457 0.950 . S
C451 C449 1.387 1_554 S
C451 C453 1.390 . S
C451 H455 0.950 . S
H452 C448 0.950 . S
C453 C451 1.390 . S
C453 C454 1.387 1_655 S
C453 H456 0.950 . S
C454 C453 1.387 1_455 S
C454 C457 1.387 1_554 S
H455 C451 0.950 . S
H456 C453 0.950 . S
C457 C448 1.390 . S
C457 H450 0.950 . S
C457 C454 1.387 1_556 S
C458 C459 1.387 . S
C458 H462 0.950 . S
C458 C467 1.390 . S
C459 C458 1.387 . S
C459 C461 1.387 . S
H460 C467 0.950 . S
C461 C459 1.387 . S
C461 C463 1.390 . S
C461 H465 0.950 . S
H462 C458 0.950 . S
C463 C461 1.390 . S
C463 C464 1.387 . S
C463 H466 0.950 . S
C464 C463 1.387 . S
C464 C467 1.387 . S
H465 C461 0.950 . S
H466 C463 0.950 . S
C467 C458 1.390 . S
C467 H460 0.950 . S
C467 C464 1.387 . S
C468 C469 1.387 . S
C468 H472 0.950 . S
C468 C477 1.390 . S
C469 C468 1.387 . S
C469 C471 1.387 . S
H470 C477 0.950 . S
C471 C469 1.387 . S
C471 C473 1.390 . S
C471 H475 0.950 . S
H472 C468 0.950 . S
C473 C471 1.390 . S
C473 C474 1.387 . S
C473 H476 0.950 . S
C474 C473 1.387 . S
C474 C477 1.387 . S
H475 C471 0.950 . S
H476 C473 0.950 . S
C477 C468 1.390 . S
C477 H470 0.950 . S
C477 C474 1.387 . S
C478 C479 1.387 . S
C478 H482 0.950 . S
C478 C487 1.390 . S
C479 C478 1.387 . S
C479 C481 1.387 . S
H480 C487 0.950 . S
C481 C479 1.387 . S
C481 C483 1.390 . S
C481 H485 0.950 . S
H482 C478 0.950 . S
C483 C481 1.390 . S
C483 C484 1.387 . S
C483 H486 0.950 . S
C484 C483 1.387 . S
C484 C487 1.387 . S
H485 C481 0.950 . S
H486 C483 0.950 . S
C487 C478 1.390 . S
C487 H480 0.950 . S
C487 C484 1.387 . S
C488 C489 1.387 . S
C488 H492 0.950 . S
C488 C497 1.390 1_655 S
C489 C488 1.387 . S
C489 C491 1.387 . S
H490 C497 0.950 . S
C491 C489 1.387 . S
C491 C493 1.390 1_655 S
C491 H495 0.950 . S
H492 C488 0.950 . S
C493 C491 1.390 1_455 S
C493 C494 1.387 . S
C493 H496 0.950 . S
C494 C493 1.387 . S
C494 C497 1.387 . S
H495 C491 0.950 . S
H496 C493 0.950 . S
C497 C488 1.390 1_455 S
C497 H490 0.950 . S
C497 C494 1.387 . S
C498 C499 1.387 . S
C498 H502 0.950 . S
C498 C507 1.390 . S
C499 C498 1.387 . S
C499 C501 1.387 . S
H500 C507 0.950 . S
C501 C499 1.387 . S
C501 C503 1.390 . S
C501 H505 0.950 . S
H502 C498 0.950 . S
C503 C501 1.390 . S
C503 C504 1.387 . S
C503 H506 0.950 . S
C504 C503 1.387 . S
C504 C507 1.387 . S
H505 C501 0.950 . S
H506 C503 0.950 . S
C507 C498 1.390 . S
C507 H500 0.950 . S
C507 C504 1.387 . S
C508 C509 1.387 1_554 S
C508 H512 0.950 . S
C508 C517 1.390 . S
C509 C508 1.387 1_556 S
C509 C511 1.387 . S
H510 C517 0.950 . S
C511 C509 1.387 . S
C511 C513 1.390 . S
C511 H515 0.950 . S
H512 C508 0.950 . S
C513 C511 1.390 . S
C513 C514 1.387 1_556 S
C513 H516 0.950 . S
C514 C513 1.387 1_554 S
C514 C517 1.387 . S
H515 C511 0.950 . S
H516 C513 0.950 . S
C517 C508 1.390 . S
C517 H510 0.950 . S
C517 C514 1.387 . S
C518 C519 1.387 . S
C518 H522 0.950 . S
C518 C527 1.390 . S
C519 C518 1.387 . S
C519 C521 1.387 . S
H520 C527 0.950 . S
C521 C519 1.387 . S
C521 C523 1.390 . S
C521 H525 0.950 . S
H522 C518 0.950 . S
C523 C521 1.390 . S
C523 C524 1.387 . S
C523 H526 0.950 . S
C524 C523 1.387 . S
C524 C527 1.387 . S
H525 C521 0.950 . S
H526 C523 0.950 . S
C527 C518 1.390 . S
C527 H520 0.950 . S
C527 C524 1.387 . S
C528 C529 1.387 . S
C528 H532 0.950 . S
C528 C537 1.390 . S
C529 C528 1.387 . S
C529 C531 1.387 . S
H530 C537 0.950 . S
C531 C529 1.387 . S
C531 C533 1.390 . S
C531 H535 0.950 . S
H532 C528 0.950 . S
C533 C531 1.390 . S
C533 C534 1.387 . S
C533 H536 0.950 . S
C534 C533 1.387 . S
C534 C537 1.387 . S
H535 C531 0.950 . S
H536 C533 0.950 . S
C537 C528 1.390 . S
C537 H530 0.950 . S
C537 C534 1.387 . S
C538 C539 1.387 . S
C538 H542 0.950 . S
C538 C547 1.390 . S
C539 C538 1.387 . S
C539 C541 1.387 . S
H540 C547 0.950 . S
C541 C539 1.387 . S
C541 C543 1.390 . S
C541 H545 0.950 . S
H542 C538 0.950 . S
C543 C541 1.390 . S
C543 C544 1.387 . S
C543 H546 0.950 . S
C544 C543 1.387 . S
C544 C547 1.387 . S
H545 C541 0.950 . S
H546 C543 0.950 . S
C547 C538 1.390 . S
C547 H540 0.950 . S
C547 C544 1.387 . S
C548 C549 1.387 . S
C548 H552 0.950 . S
C548 C557 1.390 . S
C549 C548 1.387 . S
C549 C551 1.387 . S
H550 C557 0.950 . S
C551 C549 1.387 . S
C551 C553 1.390 . S
C551 H555 0.950 . S
H552 C548 0.950 . S
C553 C551 1.390 . S
C553 C554 1.387 . S
C553 H556 0.950 . S
C554 C553 1.387 . S
C554 C557 1.387 . S
H555 C551 0.950 . S
H556 C553 0.950 . S
C557 C548 1.390 . S
C557 H550 0.950 . S
C557 C554 1.387 . S
C558 C559 1.387 . S
C558 H562 0.950 . S
C558 C567 1.390 . S
C559 C558 1.387 . S
C559 C561 1.387 . S
H560 C567 0.950 . S
C561 C559 1.387 . S
C561 C563 1.390 . S
C561 H565 0.950 . S
H562 C558 0.950 . S
C563 C561 1.390 . S
C563 C564 1.387 . S
C563 H566 0.950 . S
C564 C563 1.387 . S
C564 C567 1.387 . S
H565 C561 0.950 . S
H566 C563 0.950 . S
C567 C558 1.390 . S
C567 H560 0.950 . S
C567 C564 1.387 . S
C568 C569 1.387 . S
C568 H572 0.950 . S
C568 C577 1.390 . S
C569 C568 1.387 . S
C569 C571 1.387 1_565 S
H570 C577 0.950 . S
C571 C569 1.387 1_545 S
C571 C573 1.390 . S
C571 H575 0.950 . S
H572 C568 0.950 . S
C573 C571 1.390 . S
C573 C574 1.387 . S
C573 H576 0.950 . S
C574 C573 1.387 . S
C574 C577 1.387 1_545 S
H575 C571 0.950 . S
H576 C573 0.950 . S
C577 C568 1.390 . S
C577 H570 0.950 . S
C577 C574 1.387 1_565 S
C578 C579 1.387 1_554 S
C578 H582 0.950 . S
C578 C587 1.390 1_455 S
C579 C578 1.387 1_556 S
C579 C581 1.387 1_565 S
H580 C587 0.950 . S
C581 C579 1.387 1_545 S
C581 C583 1.390 1_455 S
C581 H585 0.950 . S
H582 C578 0.950 . S
C583 C581 1.390 1_655 S
C583 C584 1.387 1_556 S
C583 H586 0.950 . S
C584 C583 1.387 1_554 S
C584 C587 1.387 1_545 S
H585 C581 0.950 . S
H586 C583 0.950 . S
C587 C578 1.390 1_655 S
C587 H580 0.950 . S
C587 C584 1.387 1_565 S
C588 C589 1.387 1_554 S
C588 H592 0.950 . S
C588 C597 1.390 1_545 S
C589 C588 1.387 1_556 S
C589 C591 1.387 . S
H590 C597 0.950 . S
C591 C589 1.387 . S
C591 C593 1.390 1_545 S
C591 H595 0.950 . S
H592 C588 0.950 . S
C593 C591 1.390 1_565 S
C593 C594 1.387 1_556 S
C593 H596 0.950 . S
C594 C593 1.387 1_554 S
C594 C597 1.387 . S
H595 C591 0.950 . S
H596 C593 0.950 . S
C597 C588 1.390 1_565 S
C597 H590 0.950 . S
C597 C594 1.387 . S
C598 C599 1.387 . S
C598 H602 0.950 . S
C598 C607 1.390 1_455 S
C599 C598 1.387 . S
C599 C601 1.387 1_545 S
H600 C607 0.950 . S
C601 C599 1.387 1_565 S
C601 C603 1.390 1_455 S
C601 H605 0.950 . S
H602 C598 0.950 . S
C603 C601 1.390 1_655 S
C603 C604 1.387 . S
C603 H606 0.950 . S
C604 C603 1.387 . S
C604 C607 1.387 1_565 S
H605 C601 0.950 . S
H606 C603 0.950 . S
C607 C598 1.390 1_655 S
C607 H600 0.950 . S
C607 C604 1.387 1_545 S
C608 C609 1.387 . S
C608 H612 0.950 . S
C608 C617 1.390 1_655 S
C609 C608 1.387 . S
C609 C611 1.387 . S
H610 C617 0.950 . S
C611 C609 1.387 . S
C611 C613 1.390 1_655 S
C611 H615 0.950 . S
H612 C608 0.950 . S
C613 C611 1.390 1_455 S
C613 C614 1.387 . S
C613 H616 0.950 . S
C614 C613 1.387 . S
C614 C617 1.387 . S
H615 C611 0.950 . S
H616 C613 0.950 . S
C617 C608 1.390 1_455 S
C617 H610 0.950 . S
C617 C614 1.387 . S
C618 C619 1.387 . S
C618 H622 0.950 . S
C618 C627 1.390 1_455 S
C619 C618 1.387 . S
C619 C621 1.387 . S
H620 C627 0.950 . S
C621 C619 1.387 . S
C621 C623 1.390 1_455 S
C621 H625 0.950 . S
H622 C618 0.950 . S
C623 C621 1.390 1_655 S
C623 C624 1.387 . S
C623 H626 0.950 . S
C624 C623 1.387 . S
C624 C627 1.387 . S
H625 C621 0.950 . S
H626 C623 0.950 . S
C627 C618 1.390 1_655 S
C627 H620 0.950 . S
C627 C624 1.387 . S
C628 C629 1.387 . S
C628 H632 0.950 . S
C628 C637 1.390 . S
C629 C628 1.387 . S
C629 C631 1.387 . S
H630 C637 0.950 . S
C631 C629 1.387 . S
C631 C633 1.390 . S
C631 H635 0.950 . S
H632 C628 0.950 . S
C633 C631 1.390 . S
C633 C634 1.387 . S
C633 H636 0.950 . S
C634 C633 1.387 . S
C634 C637 1.387 . S
H635 C631 0.950 . S
H636 C633 0.950 . S
C637 C628 1.390 . S
C637 H630 0.950 . S
C637 C634 1.387 . S
C638 C639 1.387 . S
C638 H642 0.950 . S
C638 C647 1.390 . S
C639 C638 1.387 . S
C639 C641 1.387 . S
H640 C647 0.950 . S
C641 C639 1.387 . S
C641 C643 1.390 . S
C641 H645 0.950 . S
H642 C638 0.950 . S
C643 C641 1.390 . S
C643 C644 1.387 . S
C643 H646 0.950 . S
C644 C643 1.387 . S
C644 C647 1.387 . S
H645 C641 0.950 . S
H646 C643 0.950 . S
C647 C638 1.390 . S
C647 H640 0.950 . S
C647 C644 1.387 . S
C648 C649 1.387 . S
C648 H652 0.950 . S
C648 C657 1.390 1_655 S
C649 C648 1.387 . S
C649 C651 1.387 . S
H650 C657 0.950 . S
C651 C649 1.387 . S
C651 C653 1.390 1_655 S
C651 H655 0.950 . S
H652 C648 0.950 . S
C653 C651 1.390 1_455 S
C653 C654 1.387 . S
C653 H656 0.950 . S
C654 C653 1.387 . S
C654 C657 1.387 . S
H655 C651 0.950 . S
H656 C653 0.950 . S
C657 C648 1.390 1_455 S
C657 H650 0.950 . S
C657 C654 1.387 . S
C658 C659 1.387 . S
C658 H662 0.950 . S
C658 C667 1.390 . S
C659 C658 1.387 . S
C659 C661 1.387 . S
H660 C667 0.950 . S
C661 C659 1.387 . S
C661 C663 1.390 . S
C661 H665 0.950 . S
H662 C658 0.950 . S
C663 C661 1.390 . S
C663 C664 1.387 . S
C663 H666 0.950 . S
C664 C663 1.387 . S
C664 C667 1.387 . S
H665 C661 0.950 . S
H666 C663 0.950 . S
C667 C658 1.390 . S
C667 H660 0.950 . S
C667 C664 1.387 . S
C668 C669 1.387 . S
C668 H672 0.950 . S
C668 C677 1.390 . S
C669 C668 1.387 . S
C669 C671 1.387 . S
H670 C677 0.950 . S
C671 C669 1.387 . S
C671 C673 1.390 . S
C671 H675 0.950 . S
H672 C668 0.950 . S
C673 C671 1.390 . S
C673 C674 1.387 . S
C673 H676 0.950 . S
C674 C673 1.387 . S
C674 C677 1.387 . S
H675 C671 0.950 . S
H676 C673 0.950 . S
C677 C668 1.390 . S
C677 H670 0.950 . S
C677 C674 1.387 . S
C678 C679 1.387 . S
C678 H682 0.950 . S
C678 C687 1.390 1_455 S
C679 C678 1.387 . S
C679 C681 1.387 . S
H680 C687 0.950 . S
C681 C679 1.387 . S
C681 C683 1.390 1_455 S
C681 H685 0.950 . S
H682 C678 0.950 . S
C683 C681 1.390 1_655 S
C683 C684 1.387 . S
C683 H686 0.950 . S
C684 C683 1.387 . S
C684 C687 1.387 . S
H685 C681 0.950 . S
H686 C683 0.950 . S
C687 C678 1.390 1_655 S
C687 H680 0.950 . S
C687 C684 1.387 . S
C688 C689 1.387 . S
C688 H692 0.950 . S
C688 C697 1.390 1_655 S
C689 C688 1.387 . S
C689 C691 1.387 . S
H690 C697 0.950 . S
C691 C689 1.387 . S
C691 C693 1.390 1_655 S
C691 H695 0.950 . S
H692 C688 0.950 . S
C693 C691 1.390 1_455 S
C693 C694 1.387 . S
C693 H696 0.950 . S
C694 C693 1.387 . S
C694 C697 1.387 . S
H695 C691 0.950 . S
H696 C693 0.950 . S
C697 C688 1.390 1_455 S
C697 H690 0.950 . S
C697 C694 1.387 . S
C698 C699 1.387 . S
C698 H702 0.950 . S
C698 C707 1.390 1_655 S
C699 C698 1.387 . S
C699 C701 1.387 . S
H700 C707 0.950 . S
C701 C699 1.387 . S
C701 C703 1.390 1_655 S
C701 H705 0.950 . S
H702 C698 0.950 . S
C703 C701 1.390 1_455 S
C703 C704 1.387 . S
C703 H706 0.950 . S
C704 C703 1.387 . S
C704 C707 1.387 . S
H705 C701 0.950 . S
H706 C703 0.950 . S
C707 C698 1.390 1_455 S
C707 H700 0.950 . S
C707 C704 1.387 . S
C708 C709 1.387 . S
C708 H712 0.950 . S
C708 C717 1.390 . S
C709 C708 1.387 . S
C709 C711 1.387 . S
H710 C717 0.950 . S
C711 C709 1.387 . S
C711 C713 1.390 . S
C711 H715 0.950 . S
H712 C708 0.950 . S
C713 C711 1.390 . S
C713 C714 1.387 . S
C713 H716 0.950 . S
C714 C713 1.387 . S
C714 C717 1.387 . S
H715 C711 0.950 . S
H716 C713 0.950 . S
C717 C708 1.390 . S
C717 H710 0.950 . S
C717 C714 1.387 . S
C718 C719 1.387 . S
C718 H722 0.950 . S
C718 C727 1.390 . S
C719 C718 1.387 . S
C719 C721 1.387 . S
H720 C727 0.950 . S
C721 C719 1.387 . S
C721 C723 1.390 . S
C721 H725 0.950 . S
H722 C718 0.950 . S
C723 C721 1.390 . S
C723 C724 1.387 . S
C723 H726 0.950 . S
C724 C723 1.387 . S
C724 C727 1.387 . S
H725 C721 0.950 . S
H726 C723 0.950 . S
C727 C718 1.390 . S
C727 H720 0.950 . S
C727 C724 1.387 . S
C728 C729 1.387 . S
C728 H732 0.950 . S
C728 C737 1.390 1_655 S
C729 C728 1.387 . S
C729 C731 1.387 . S
H730 C737 0.950 . S
C731 C729 1.387 . S
C731 C733 1.390 1_655 S
C731 H735 0.950 . S
H732 C728 0.950 . S
C733 C731 1.390 1_455 S
C733 C734 1.387 . S
C733 H736 0.950 . S
C734 C733 1.387 . S
C734 C737 1.387 . S
H735 C731 0.950 . S
H736 C733 0.950 . S
C737 C728 1.390 1_455 S
C737 H730 0.950 . S
C737 C734 1.387 . S
C738 C739 1.387 . S
C738 H742 0.950 . S
C738 C747 1.390 . S
C739 C738 1.387 . S
C739 C741 1.387 . S
H740 C747 0.950 . S
C741 C739 1.387 . S
C741 C743 1.390 . S
C741 H745 0.950 . S
H742 C738 0.950 . S
C743 C741 1.390 . S
C743 C744 1.387 . S
C743 H746 0.950 . S
C744 C743 1.387 . S
C744 C747 1.387 . S
H745 C741 0.950 . S
H746 C743 0.950 . S
C747 C738 1.390 . S
C747 H740 0.950 . S
C747 C744 1.387 . S
C748 C749 1.387 . S
C748 H752 0.950 . S
C748 C757 1.390 . S
C749 C748 1.387 . S
C749 C751 1.387 . S
H750 C757 0.950 . S
C751 C749 1.387 . S
C751 C753 1.390 . S
C751 H755 0.950 . S
H752 C748 0.950 . S
C753 C751 1.390 . S
C753 C754 1.387 . S
C753 H756 0.950 . S
C754 C753 1.387 . S
C754 C757 1.387 . S
H755 C751 0.950 . S
H756 C753 0.950 . S
C757 C748 1.390 . S
C757 H750 0.950 . S
C757 C754 1.387 . S
C758 C759 1.387 . S
C758 H762 0.950 . S
C758 C767 1.390 1_655 S
C759 C758 1.387 . S
C759 C761 1.387 . S
H760 C767 0.950 . S
C761 C759 1.387 . S
C761 C763 1.390 1_655 S
C761 H765 0.950 . S
H762 C758 0.950 . S
C763 C761 1.390 1_455 S
C763 C764 1.387 . S
C763 H766 0.950 . S
C764 C763 1.387 . S
C764 C767 1.387 . S
H765 C761 0.950 . S
H766 C763 0.950 . S
C767 C758 1.390 1_455 S
C767 H760 0.950 . S
C767 C764 1.387 . S
C768 C769 1.387 . S
C768 H772 0.950 . S
C768 C777 1.390 1_556 S
C769 C768 1.387 . S
C769 C771 1.387 . S
H770 C777 0.950 . S
C771 C769 1.387 . S
C771 C773 1.390 1_556 S
C771 H775 0.950 . S
H772 C768 0.950 . S
C773 C771 1.390 1_554 S
C773 C774 1.387 . S
C773 H776 0.950 . S
C774 C773 1.387 . S
C774 C777 1.387 . S
H775 C771 0.950 . S
H776 C773 0.950 . S
C777 C768 1.390 1_554 S
C777 H770 0.950 . S
C777 C774 1.387 . S
C778 C779 1.387 . S
C778 H782 0.950 . S
C778 C787 1.390 1_545 S
C779 C778 1.387 . S
C779 C781 1.387 . S
H780 C787 0.950 . S
C781 C779 1.387 . S
C781 C783 1.390 1_545 S
C781 H785 0.950 . S
H782 C778 0.950 . S
C783 C781 1.390 1_565 S
C783 C784 1.387 . S
C783 H786 0.950 . S
C784 C783 1.387 . S
C784 C787 1.387 . S
H785 C781 0.950 . S
H786 C783 0.950 . S
C787 C778 1.390 1_565 S
C787 H780 0.950 . S
C787 C784 1.387 . S
C788 C789 1.387 . S
C788 H792 0.950 . S
C788 C797 1.390 . S
C789 C788 1.387 . S
C789 C791 1.387 . S
H790 C797 0.950 . S
C791 C789 1.387 . S
C791 C793 1.390 . S
C791 H795 0.950 . S
H792 C788 0.950 . S
C793 C791 1.390 . S
C793 C794 1.387 . S
C793 H796 0.950 . S
C794 C793 1.387 . S
C794 C797 1.387 . S
H795 C791 0.950 . S
H796 C793 0.950 . S
C797 C788 1.390 . S
C797 H790 0.950 . S
C797 C794 1.387 . S
C798 C799 1.387 . S
C798 H802 0.950 . S
C798 C807 1.390 1_545 S
C799 C798 1.387 . S
C799 C801 1.387 . S
H800 C807 0.950 . S
C801 C799 1.387 . S
C801 C803 1.390 1_545 S
C801 H805 0.950 . S
H802 C798 0.950 . S
C803 C801 1.390 1_565 S
C803 C804 1.387 . S
C803 H806 0.950 . S
C804 C803 1.387 . S
C804 C807 1.387 . S
H805 C801 0.950 . S
H806 C803 0.950 . S
C807 C798 1.390 1_565 S
C807 H800 0.950 . S
C807 C804 1.387 . S
C808 C809 1.387 . S
C808 H812 0.950 . S
C808 C817 1.390 1_554 S
C809 C808 1.387 . S
C809 C811 1.387 . S
H810 C817 0.950 . S
C811 C809 1.387 . S
C811 C813 1.390 1_554 S
C811 H815 0.950 . S
H812 C808 0.950 . S
C813 C811 1.390 1_556 S
C813 C814 1.387 . S
C813 H816 0.950 . S
C814 C813 1.387 . S
C814 C817 1.387 . S
H815 C811 0.950 . S
H816 C813 0.950 . S
C817 C808 1.390 1_556 S
C817 H810 0.950 . S
C817 C814 1.387 . S
C818 C819 1.387 . S
C818 H822 0.950 . S
C818 C827 1.390 1_565 S
C819 C818 1.387 . S
C819 C821 1.387 . S
H820 C827 0.950 . S
C821 C819 1.387 . S
C821 C823 1.390 1_565 S
C821 H825 0.950 . S
H822 C818 0.950 . S
C823 C821 1.390 1_545 S
C823 C824 1.387 . S
C823 H826 0.950 . S
C824 C823 1.387 . S
C824 C827 1.387 . S
H825 C821 0.950 . S
H826 C823 0.950 . S
C827 C818 1.390 1_545 S
C827 H820 0.950 . S
C827 C824 1.387 . S
C828 C829 1.387 . S
C828 H832 0.950 . S
C828 C837 1.390 . S
C829 C828 1.387 . S
C829 C831 1.387 . S
H830 C837 0.950 . S
C831 C829 1.387 . S
C831 C833 1.390 . S
C831 H835 0.950 . S
H832 C828 0.950 . S
C833 C831 1.390 . S
C833 C834 1.387 . S
C833 H836 0.950 . S
C834 C833 1.387 . S
C834 C837 1.387 . S
H835 C831 0.950 . S
H836 C833 0.950 . S
C837 C828 1.390 . S
C837 H830 0.950 . S
C837 C834 1.387 . S
C838 C839 1.387 . S
C838 H842 0.950 . S
C838 C847 1.390 1_545 S
C839 C838 1.387 . S
C839 C841 1.387 . S
H840 C847 0.950 . S
C841 C839 1.387 . S
C841 C843 1.390 1_545 S
C841 H845 0.950 . S
H842 C838 0.950 . S
C843 C841 1.390 1_565 S
C843 C844 1.387 . S
C843 H846 0.950 . S
C844 C843 1.387 . S
C844 C847 1.387 . S
H845 C841 0.950 . S
H846 C843 0.950 . S
C847 C838 1.390 1_565 S
C847 H840 0.950 . S
C847 C844 1.387 . S
C848 C849 1.387 . S
C848 H852 0.950 . S
C848 C857 1.390 . S
C849 C848 1.387 . S
C849 C851 1.387 . S
H850 C857 0.950 . S
C851 C849 1.387 . S
C851 C853 1.390 . S
C851 H855 0.950 . S
H852 C848 0.950 . S
C853 C851 1.390 . S
C853 C854 1.387 . S
C853 H856 0.950 . S
C854 C853 1.387 . S
C854 C857 1.387 . S
H855 C851 0.950 . S
H856 C853 0.950 . S
C857 C848 1.390 . S
C857 H850 0.950 . S
C857 C854 1.387 . S
C858 C859 1.387 . S
C858 H862 0.950 . S
C858 C867 1.390 . S
C859 C858 1.387 . S
C859 C861 1.387 . S
H860 C867 0.950 . S
C861 C859 1.387 . S
C861 C863 1.390 . S
C861 H865 0.950 . S
H862 C858 0.950 . S
C863 C861 1.390 . S
C863 C864 1.387 . S
C863 H866 0.950 . S
C864 C863 1.387 . S
C864 C867 1.387 . S
H865 C861 0.950 . S
H866 C863 0.950 . S
C867 C858 1.390 . S
C867 H860 0.950 . S
C867 C864 1.387 . S
C868 C869 1.387 . S
C868 H872 0.950 . S
C868 C877 1.390 1_554 S
C869 C868 1.387 . S
C869 C871 1.387 . S
H870 C877 0.950 . S
C871 C869 1.387 . S
C871 C873 1.390 1_554 S
C871 H875 0.950 . S
H872 C868 0.950 . S
C873 C871 1.390 1_556 S
C873 C874 1.387 . S
C873 H876 0.950 . S
C874 C873 1.387 . S
C874 C877 1.387 . S
H875 C871 0.950 . S
H876 C873 0.950 . S
C877 C868 1.390 1_556 S
C877 H870 0.950 . S
C877 C874 1.387 . S
C878 C879 1.387 . S
C878 H882 0.950 . S
C878 C887 1.390 . S
C879 C878 1.387 . S
C879 C881 1.387 . S
H880 C887 0.950 . S
C881 C879 1.387 . S
C881 C883 1.390 . S
C881 H885 0.950 . S
H882 C878 0.950 . S
C883 C881 1.390 . S
C883 C884 1.387 . S
C883 H886 0.950 . S
C884 C883 1.387 . S
C884 C887 1.387 . S
H885 C881 0.950 . S
H886 C883 0.950 . S
C887 C878 1.390 . S
C887 H880 0.950 . S
C887 C884 1.387 . S
C888 C889 1.387 . S
C888 H892 0.950 . S
C888 C897 1.390 . S
C889 C888 1.387 . S
C889 C891 1.387 . S
H890 C897 0.950 . S
C891 C889 1.387 . S
C891 C893 1.390 . S
C891 H895 0.950 . S
H892 C888 0.950 . S
C893 C891 1.390 . S
C893 C894 1.387 . S
C893 H896 0.950 . S
C894 C893 1.387 . S
C894 C897 1.387 . S
H895 C891 0.950 . S
H896 C893 0.950 . S
C897 C888 1.390 . S
C897 H890 0.950 . S
C897 C894 1.387 . S
C898 C899 1.387 . S
C898 H902 0.950 . S
C898 C907 1.390 . S
C899 C898 1.387 . S
C899 C901 1.387 . S
H900 C907 0.950 . S
C901 C899 1.387 . S
C901 C903 1.390 . S
C901 H905 0.950 . S
H902 C898 0.950 . S
C903 C901 1.390 . S
C903 C904 1.387 . S
C903 H906 0.950 . S
C904 C903 1.387 . S
C904 C907 1.387 . S
H905 C901 0.950 . S
H906 C903 0.950 . S
C907 C898 1.390 . S
C907 H900 0.950 . S
C907 C904 1.387 . S
C908 C909 1.387 . S
C908 H912 0.950 . S
C908 C917 1.390 1_556 S
C909 C908 1.387 . S
C909 C911 1.387 . S
H910 C917 0.950 . S
C911 C909 1.387 . S
C911 C913 1.390 1_556 S
C911 H915 0.950 . S
H912 C908 0.950 . S
C913 C911 1.390 1_554 S
C913 C914 1.387 . S
C913 H916 0.950 . S
C914 C913 1.387 . S
C914 C917 1.387 . S
H915 C911 0.950 . S
H916 C913 0.950 . S
C917 C908 1.390 1_554 S
C917 H910 0.950 . S
C917 C914 1.387 . S
C918 C919 1.387 . S
C918 H922 0.950 . S
C918 C927 1.390 . S
C919 C918 1.387 . S
C919 C921 1.387 . S
H920 C927 0.950 . S
C921 C919 1.387 . S
C921 C923 1.390 . S
C921 H925 0.950 . S
H922 C918 0.950 . S
C923 C921 1.390 . S
C923 C924 1.387 . S
C923 H926 0.950 . S
C924 C923 1.387 . S
C924 C927 1.387 . S
H925 C921 0.950 . S
H926 C923 0.950 . S
C927 C918 1.390 . S
C927 H920 0.950 . S
C927 C924 1.387 . S
C928 C929 1.387 . S
C928 H932 0.950 . S
C928 C937 1.390 . S
C929 C928 1.387 . S
C929 C931 1.387 . S
H930 C937 0.950 . S
C931 C929 1.387 . S
C931 C933 1.390 . S
C931 H935 0.950 . S
H932 C928 0.950 . S
C933 C931 1.390 . S
C933 C934 1.387 . S
C933 H936 0.950 . S
C934 C933 1.387 . S
C934 C937 1.387 . S
H935 C931 0.950 . S
H936 C933 0.950 . S
C937 C928 1.390 . S
C937 H930 0.950 . S
C937 C934 1.387 . S
C938 C939 1.387 . S
C938 H942 0.950 . S
C938 C947 1.390 . S
C939 C938 1.387 . S
C939 C941 1.387 . S
H940 C947 0.950 . S
C941 C939 1.387 . S
C941 C943 1.390 . S
C941 H945 0.950 . S
H942 C938 0.950 . S
C943 C941 1.390 . S
C943 C944 1.387 . S
C943 H946 0.950 . S
C944 C943 1.387 . S
C944 C947 1.387 . S
H945 C941 0.950 . S
H946 C943 0.950 . S
C947 C938 1.390 . S
C947 H940 0.950 . S
C947 C944 1.387 . S
C948 C949 1.387 . S
C948 H952 0.950 . S
C948 C957 1.390 . S
C949 C948 1.387 . S
C949 C951 1.387 . S
H950 C957 0.950 . S
C951 C949 1.387 . S
C951 C953 1.390 . S
C951 H955 0.950 . S
H952 C948 0.950 . S
C953 C951 1.390 . S
C953 C954 1.387 . S
C953 H956 0.950 . S
C954 C953 1.387 . S
C954 C957 1.387 . S
H955 C951 0.950 . S
H956 C953 0.950 . S
C957 C948 1.390 . S
C957 H950 0.950 . S
C957 C954 1.387 . S
C958 C959 1.387 . S
C958 H962 0.950 . S
C958 C967 1.390 . S
C959 C958 1.387 . S
C959 C961 1.387 . S
H960 C967 0.950 . S
C961 C959 1.387 . S
C961 C963 1.390 . S
C961 H965 0.950 . S
H962 C958 0.950 . S
C963 C961 1.390 . S
C963 C964 1.387 . S
C963 H966 0.950 . S
C964 C963 1.387 . S
C964 C967 1.387 . S
H965 C961 0.950 . S
H966 C963 0.950 . S
C967 C958 1.390 . S
C967 H960 0.950 . S
C967 C964 1.387 . S
C968 C969 1.387 . S
C968 H972 0.950 . S
C968 C977 1.390 . S
C969 C968 1.387 . S
C969 C971 1.387 . S
H970 C977 0.950 . S
C971 C969 1.387 . S
C971 C973 1.390 . S
C971 H975 0.950 . S
H972 C968 0.950 . S
C973 C971 1.390 . S
C973 C974 1.387 . S
C973 H976 0.950 . S
C974 C973 1.387 . S
C974 C977 1.387 . S
H975 C971 0.950 . S
H976 C973 0.950 . S
C977 C968 1.390 . S
C977 H970 0.950 . S
C977 C974 1.387 . S
C978 C979 1.387 . S
C978 H982 0.950 . S
C978 C987 1.390 . S
C979 C978 1.387 . S
C979 C981 1.387 . S
H980 C987 0.950 . S
C981 C979 1.387 . S
C981 C983 1.390 . S
C981 H985 0.950 . S
H982 C978 0.950 . S
C983 C981 1.390 . S
C983 C984 1.387 . S
C983 H986 0.950 . S
C984 C983 1.387 . S
C984 C987 1.387 . S
H985 C981 0.950 . S
H986 C983 0.950 . S
C987 C978 1.390 . S
C987 H980 0.950 . S
C987 C984 1.387 . S
C988 C989 1.387 . S
C988 H992 0.950 . S
C988 C997 1.390 . S
C989 C988 1.387 . S
C989 C991 1.387 . S
H990 C997 0.950 . S
C991 C989 1.387 . S
C991 C993 1.390 . S
C991 H995 0.950 . S
H992 C988 0.950 . S
C993 C991 1.390 . S
C993 C994 1.387 . S
C993 H996 0.950 . S
C994 C993 1.387 . S
C994 C997 1.387 . S
H995 C991 0.950 . S
H996 C993 0.950 . S
C997 C988 1.390 . S
C997 H990 0.950 . S
C997 C994 1.387 . S
C998 C999 1.387 . S
C998 H1002 0.950 . S
C998 C1007 1.390 . S
C999 C998 1.387 . S
C999 C1001 1.387 . S
H1000 C1007 0.950 . S
C1001 C999 1.387 . S
C1001 C1003 1.390 . S
C1001 H1005 0.950 . S
H1002 C998 0.950 . S
C1003 C1001 1.390 . S
C1003 C1004 1.387 . S
C1003 H1006 0.950 . S
C1004 C1003 1.387 . S
C1004 C1007 1.387 . S
H1005 C1001 0.950 . S
H1006 C1003 0.950 . S
C1007 C998 1.390 . S
C1007 H1000 0.950 . S
C1007 C1004 1.387 . S
C1008 C1009 1.387 . S
C1008 H1012 0.950 . S
C1008 C1017 1.390 . S
C1009 C1008 1.387 . S
C1009 C1011 1.387 . S
H1010 C1017 0.950 . S
C1011 C1009 1.387 . S
C1011 C1013 1.390 . S
C1011 H1015 0.950 . S
H1012 C1008 0.950 . S
C1013 C1011 1.390 . S
C1013 C1014 1.387 . S
C1013 H1016 0.950 . S
C1014 C1013 1.387 . S
C1014 C1017 1.387 . S
H1015 C1011 0.950 . S
H1016 C1013 0.950 . S
C1017 C1008 1.390 . S
C1017 H1010 0.950 . S
C1017 C1014 1.387 . S
C1018 C1019 1.387 . S
C1018 H1022 0.950 . S
C1018 C1027 1.390 . S
C1019 C1018 1.387 . S
C1019 C1021 1.387 . S
H1020 C1027 0.950 . S
C1021 C1019 1.387 . S
C1021 C1023 1.390 . S
C1021 H1025 0.950 . S
H1022 C1018 0.950 . S
C1023 C1021 1.390 . S
C1023 C1024 1.387 . S
C1023 H1026 0.950 . S
C1024 C1023 1.387 . S
C1024 C1027 1.387 . S
H1025 C1021 0.950 . S
H1026 C1023 0.950 . S
C1027 C1018 1.390 . S
C1027 H1020 0.950 . S
C1027 C1024 1.387 . S
C1028 C1029 1.387 . S
C1028 H1032 0.950 . S
C1028 C1037 1.390 . S
C1029 C1028 1.387 . S
C1029 C1031 1.387 . S
H1030 C1037 0.950 . S
C1031 C1029 1.387 . S
C1031 C1033 1.390 . S
C1031 H1035 0.950 . S
H1032 C1028 0.950 . S
C1033 C1031 1.390 . S
C1033 C1034 1.387 . S
C1033 H1036 0.950 . S
C1034 C1033 1.387 . S
C1034 C1037 1.387 . S
H1035 C1031 0.950 . S
H1036 C1033 0.950 . S
C1037 C1028 1.390 . S
C1037 H1030 0.950 . S
C1037 C1034 1.387 . S
C1038 C1039 1.387 . S
C1038 H1042 0.950 . S
C1038 C1047 1.390 . S
C1039 C1038 1.387 . S
C1039 C1041 1.387 . S
H1040 C1047 0.950 . S
C1041 C1039 1.387 . S
C1041 C1043 1.390 . S
C1041 H1045 0.950 . S
H1042 C1038 0.950 . S
C1043 C1041 1.390 . S
C1043 C1044 1.387 . S
C1043 H1046 0.950 . S
C1044 C1043 1.387 . S
C1044 C1047 1.387 . S
H1045 C1041 0.950 . S
H1046 C1043 0.950 . S
C1047 C1038 1.390 . S
C1047 H1040 0.950 . S
C1047 C1044 1.387 . S
C1048 C1049 1.387 . S
C1048 H1052 0.950 . S
C1048 C1057 1.390 . S
C1049 C1048 1.387 . S
C1049 C1051 1.387 . S
H1050 C1057 0.950 . S
C1051 C1049 1.387 . S
C1051 C1053 1.390 . S
C1051 H1055 0.950 . S
H1052 C1048 0.950 . S
C1053 C1051 1.390 . S
C1053 C1054 1.387 . S
C1053 H1056 0.950 . S
C1054 C1053 1.387 . S
C1054 C1057 1.387 . S
H1055 C1051 0.950 . S
H1056 C1053 0.950 . S
C1057 C1048 1.390 . S
C1057 H1050 0.950 . S
C1057 C1054 1.387 . S
C1058 C1059 1.387 . S
C1058 H1062 0.950 . S
C1058 C1067 1.390 . S
C1059 C1058 1.387 . S
C1059 C1061 1.387 . S
H1060 C1067 0.950 . S
C1061 C1059 1.387 . S
C1061 C1063 1.390 . S
C1061 H1065 0.950 . S
H1062 C1058 0.950 . S
C1063 C1061 1.390 . S
C1063 C1064 1.387 . S
C1063 H1066 0.950 . S
C1064 C1063 1.387 . S
C1064 C1067 1.387 . S
H1065 C1061 0.950 . S
H1066 C1063 0.950 . S
C1067 C1058 1.390 . S
C1067 H1060 0.950 . S
C1067 C1064 1.387 . S
C1068 C1069 1.387 . S
C1068 H1072 0.950 . S
C1068 C1077 1.390 . S
C1069 C1068 1.387 . S
C1069 C1071 1.387 . S
H1070 C1077 0.950 . S
C1071 C1069 1.387 . S
C1071 C1073 1.390 . S
C1071 H1075 0.950 . S
H1072 C1068 0.950 . S
C1073 C1071 1.390 . S
C1073 C1074 1.387 . S
C1073 H1076 0.950 . S
C1074 C1073 1.387 . S
C1074 C1077 1.387 . S
H1075 C1071 0.950 . S
H1076 C1073 0.950 . S
C1077 C1068 1.390 . S
C1077 H1070 0.950 . S
C1077 C1074 1.387 . S
C1078 C1079 1.387 . S
C1078 H1082 0.950 . S
C1078 C1087 1.390 . S
C1079 C1078 1.387 . S
C1079 C1081 1.387 . S
H1080 C1087 0.950 . S
C1081 C1079 1.387 . S
C1081 C1083 1.390 . S
C1081 H1085 0.950 . S
H1082 C1078 0.950 . S
C1083 C1081 1.390 . S
C1083 C1084 1.387 . S
C1083 H1086 0.950 . S
C1084 C1083 1.387 . S
C1084 C1087 1.387 . S
H1085 C1081 0.950 . S
H1086 C1083 0.950 . S
C1087 C1078 1.390 . S
C1087 H1080 0.950 . S
C1087 C1084 1.387 . S
C449 C121 1.575 . S
C454 C9 1.575 . S
C459 C359 1.574 . S
C464 C23 1.574 . S
C469 C149 1.575 . S
C474 C37 1.575 . S
C479 C387 1.575 . S
C484 C51 1.575 . S
C489 C177 1.575 . S
C494 C65 1.575 . S
C499 C79 1.574 . S
C504 C415 1.574 . S
C509 C93 1.575 . S
C514 C205 1.575 . S
C519 C107 1.575 . S
C524 C443 1.575 . S
C529 C247 1.575 . S
C534 C135 1.575 . S
C539 C275 1.574 . S
C544 C163 1.574 . S
C549 C191 1.575 . S
C554 C303 1.575 . S
C559 C219 1.574 . S
C564 C331 1.574 . S
C569 C233 1.575 . S
C574 C345 1.575 . S
C579 C373 1.575 . S
C584 C261 1.575 . S
C589 C289 1.575 . S
C594 C401 1.575 . S
C599 C429 1.575 . S
C604 C317 1.575 . S
C609 C257 1.607 . S
C614 C5 1.607 . S
C619 C271 1.605 . S
C624 C19 1.605 . S
C629 C33 1.607 . S
C634 C229 1.607 . S
C639 C47 1.607 . S
C644 C243 1.607 . S
C649 C313 1.607 . S
C654 C61 1.607 . S
C659 C75 1.607 . S
C664 C327 1.607 . S
C669 C285 1.605 . S
C674 C89 1.605 . S
C679 C299 1.605 . S
C684 C103 1.605 . S
C689 C117 1.607 . S
C694 C369 1.607 . S
C699 C383 1.607 . S
C704 C131 1.607 . S
C709 C145 1.607 . S
C714 C341 1.607 . S
C719 C159 1.607 . S
C724 C355 1.607 . S
C729 C173 1.607 . S
C734 C425 1.607 . S
C739 C187 1.607 . S
C744 C439 1.607 . S
C749 C397 1.605 . S
C754 C201 1.605 . S
C759 C411 1.605 . S
C764 C215 1.605 . S
C769 C95 1.461 . S
C774 C11 1.461 . S
C779 C109 1.462 . S
C784 C25 1.462 . S
C789 C67 1.462 . S
C794 C39 1.462 . S
C799 C53 1.462 . S
C804 C81 1.462 . S
C809 C207 1.463 . S
C814 C123 1.463 . S
C819 C221 1.462 . S
C824 C137 1.462 . S
C829 C179 1.462 . S
C834 C151 1.462 . S
C839 C193 1.462 . S
C844 C165 1.462 . S
C849 C319 1.463 . S
C854 C235 1.463 . S
C859 C333 1.462 . S
C864 C249 1.462 . S
C869 C263 1.461 . S
C874 C291 1.461 . S
C879 C277 1.462 . S
C884 C305 1.462 . S
C889 C431 1.461 . S
C894 C347 1.461 . S
C899 C445 1.462 . S
C904 C361 1.462 . S
C909 C375 1.461 . S
C914 C403 1.461 . S
C919 C389 1.462 . S
C924 C417 1.462 . S
C929 C0 1.437 . S
C934 C294 1.435 . S
C939 C308 1.437 . S
C944 C14 1.435 . S
C949 C322 1.436 . S
C954 C28 1.435 . S
C959 C42 1.436 . S
C964 C280 1.436 . S
C969 C266 1.436 . S
C974 C56 1.436 . S
C979 C70 1.435 . S
C984 C224 1.437 . S
C989 C238 1.436 . S
C994 C84 1.435 . S
C999 C98 1.436 . S
C1004 C252 1.435 . S
C1009 C406 1.436 . S
C1014 C112 1.435 . S
C1019 C420 1.437 . S
C1024 C126 1.436 . S
C1029 C140 1.435 . S
C1034 C434 1.437 . S
C1039 C392 1.436 . S
C1044 C154 1.436 . S
C1049 C378 1.436 . S
C1054 C168 1.437 . S
C1059 C182 1.436 . S
C1064 C336 1.435 . S
C1069 C350 1.436 . S
C1074 C196 1.437 . S
C1079 C210 1.436 . S
C1084 C364 1.435 . S
