# Generated by pormake.
# Topology hbo, (4)-cn, num edge types: 1
# Building blocks:
#     Node 0, Type 0, BuildingBlock: GALJAG_clean_sbu_0, # of connection points: 4
#     Node 1, Type 0, BuildingBlock: GALJAG_clean_sbu_0, # of connection points: 4
#     Node 2, Type 0, BuildingBlock: GALJAG_clean_sbu_0, # of connection points: 4
#     Node 3, Type 0, BuildingBlock: GALJAG_clean_sbu_0, # of connection points: 4
#     Node 4, Type 0, BuildingBlock: GALJAG_clean_sbu_0, # of connection points: 4
#     Node 5, Type 0, BuildingBlock: GALJAG_clean_sbu_0, # of connection points: 4
#     Node 6, Type 0, BuildingBlock: GALJAG_clean_sbu_0, # of connection points: 4
#     Node 7, Type 0, BuildingBlock: GALJAG_clean_sbu_0, # of connection points: 4
#     Node 8, Type 0, BuildingBlock: GALJAG_clean_sbu_0, # of connection points: 4
#     Node 9, Type 0, BuildingBlock: GALJAG_clean_sbu_0, # of connection points: 4
#     Node 10, Type 0, BuildingBlock: GALJAG_clean_sbu_0, # of connection points: 4
#     Node 11, Type 0, BuildingBlock: GALJAG_clean_sbu_0, # of connection points: 4
#     Node 12, Type 0, BuildingBlock: GALJAG_clean_sbu_0, # of connection points: 4
#     Node 13, Type 0, BuildingBlock: GALJAG_clean_sbu_0, # of connection points: 4
#     Node 14, Type 0, BuildingBlock: GALJAG_clean_sbu_0, # of connection points: 4
#     Node 15, Type 0, BuildingBlock: GALJAG_clean_sbu_0, # of connection points: 4
#     Node 16, Type 0, BuildingBlock: GALJAG_clean_sbu_0, # of connection points: 4
#     Node 17, Type 0, BuildingBlock: GALJAG_clean_sbu_0, # of connection points: 4
#     Node 18, Type 0, BuildingBlock: GALJAG_clean_sbu_0, # of connection points: 4
#     Node 19, Type 0, BuildingBlock: GALJAG_clean_sbu_0, # of connection points: 4
#     Node 20, Type 0, BuildingBlock: GALJAG_clean_sbu_0, # of connection points: 4
#     Node 21, Type 0, BuildingBlock: GALJAG_clean_sbu_0, # of connection points: 4
#     Node 22, Type 0, BuildingBlock: GALJAG_clean_sbu_0, # of connection points: 4
#     Node 23, Type 0, BuildingBlock: GALJAG_clean_sbu_0, # of connection points: 4
#     Edge 24, Type (0, 0), BuildingBlock: XUDNAN_clean_linker_2, # of connection points: 2
#     Edge 25, Type (0, 0), BuildingBlock: XUDNAN_clean_linker_2, # of connection points: 2
#     Edge 26, Type (0, 0), BuildingBlock: XUDNAN_clean_linker_2, # of connection points: 2
#     Edge 27, Type (0, 0), BuildingBlock: XUDNAN_clean_linker_2, # of connection points: 2
#     Edge 28, Type (0, 0), BuildingBlock: XUDNAN_clean_linker_2, # of connection points: 2
#     Edge 29, Type (0, 0), BuildingBlock: XUDNAN_clean_linker_2, # of connection points: 2
#     Edge 30, Type (0, 0), BuildingBlock: XUDNAN_clean_linker_2, # of connection points: 2
#     Edge 31, Type (0, 0), BuildingBlock: XUDNAN_clean_linker_2, # of connection points: 2
#     Edge 32, Type (0, 0), BuildingBlock: XUDNAN_clean_linker_2, # of connection points: 2
#     Edge 33, Type (0, 0), BuildingBlock: XUDNAN_clean_linker_2, # of connection points: 2
#     Edge 34, Type (0, 0), BuildingBlock: XUDNAN_clean_linker_2, # of connection points: 2
#     Edge 35, Type (0, 0), BuildingBlock: XUDNAN_clean_linker_2, # of connection points: 2
#     Edge 36, Type (0, 0), BuildingBlock: XUDNAN_clean_linker_2, # of connection points: 2
#     Edge 37, Type (0, 0), BuildingBlock: XUDNAN_clean_linker_2, # of connection points: 2
#     Edge 38, Type (0, 0), BuildingBlock: XUDNAN_clean_linker_2, # of connection points: 2
#     Edge 39, Type (0, 0), BuildingBlock: XUDNAN_clean_linker_2, # of connection points: 2
#     Edge 40, Type (0, 0), BuildingBlock: XUDNAN_clean_linker_2, # of connection points: 2
#     Edge 41, Type (0, 0), BuildingBlock: XUDNAN_clean_linker_2, # of connection points: 2
#     Edge 42, Type (0, 0), BuildingBlock: XUDNAN_clean_linker_2, # of connection points: 2
#     Edge 43, Type (0, 0), BuildingBlock: XUDNAN_clean_linker_2, # of connection points: 2
#     Edge 44, Type (0, 0), BuildingBlock: XUDNAN_clean_linker_2, # of connection points: 2
#     Edge 45, Type (0, 0), BuildingBlock: XUDNAN_clean_linker_2, # of connection points: 2
#     Edge 46, Type (0, 0), BuildingBlock: XUDNAN_clean_linker_2, # of connection points: 2
#     Edge 47, Type (0, 0), BuildingBlock: XUDNAN_clean_linker_2, # of connection points: 2
#     Edge 48, Type (0, 0), BuildingBlock: XUDNAN_clean_linker_2, # of connection points: 2
#     Edge 49, Type (0, 0), BuildingBlock: XUDNAN_clean_linker_2, # of connection points: 2
#     Edge 50, Type (0, 0), BuildingBlock: XUDNAN_clean_linker_2, # of connection points: 2
#     Edge 51, Type (0, 0), BuildingBlock: XUDNAN_clean_linker_2, # of connection points: 2
#     Edge 52, Type (0, 0), BuildingBlock: XUDNAN_clean_linker_2, # of connection points: 2
#     Edge 53, Type (0, 0), BuildingBlock: XUDNAN_clean_linker_2, # of connection points: 2
#     Edge 54, Type (0, 0), BuildingBlock: XUDNAN_clean_linker_2, # of connection points: 2
#     Edge 55, Type (0, 0), BuildingBlock: XUDNAN_clean_linker_2, # of connection points: 2
#     Edge 56, Type (0, 0), BuildingBlock: XUDNAN_clean_linker_2, # of connection points: 2
#     Edge 57, Type (0, 0), BuildingBlock: XUDNAN_clean_linker_2, # of connection points: 2
#     Edge 58, Type (0, 0), BuildingBlock: XUDNAN_clean_linker_2, # of connection points: 2
#     Edge 59, Type (0, 0), BuildingBlock: XUDNAN_clean_linker_2, # of connection points: 2
#     Edge 60, Type (0, 0), BuildingBlock: XUDNAN_clean_linker_2, # of connection points: 2
#     Edge 61, Type (0, 0), BuildingBlock: XUDNAN_clean_linker_2, # of connection points: 2
#     Edge 62, Type (0, 0), BuildingBlock: XUDNAN_clean_linker_2, # of connection points: 2
#     Edge 63, Type (0, 0), BuildingBlock: XUDNAN_clean_linker_2, # of connection points: 2
#     Edge 64, Type (0, 0), BuildingBlock: XUDNAN_clean_linker_2, # of connection points: 2
#     Edge 65, Type (0, 0), BuildingBlock: XUDNAN_clean_linker_2, # of connection points: 2
#     Edge 66, Type (0, 0), BuildingBlock: XUDNAN_clean_linker_2, # of connection points: 2
#     Edge 67, Type (0, 0), BuildingBlock: XUDNAN_clean_linker_2, # of connection points: 2
#     Edge 68, Type (0, 0), BuildingBlock: XUDNAN_clean_linker_2, # of connection points: 2
#     Edge 69, Type (0, 0), BuildingBlock: XUDNAN_clean_linker_2, # of connection points: 2
#     Edge 70, Type (0, 0), BuildingBlock: XUDNAN_clean_linker_2, # of connection points: 2
#     Edge 71, Type (0, 0), BuildingBlock: XUDNAN_clean_linker_2, # of connection points: 2
# Relax obj value: 0.092
# Max RMSD: 0.160
# Mean RMSD: 0.160
data_MOF--net-hbo--node1-GALJAG_clean_sbu_0--edge1-XUDNAN_clean_linker_2
_symmetry_space_group_name_H-M    P1
_symmetry_Int_Tables_number       1
_symmetry_cell_setting            triclinic
loop_
_symmetry_equiv_pos_as_xyz
'x, y, z'
_cell_length_a     53.455596
_cell_length_b     53.432415
_cell_length_c     53.443535
_cell_angle_alpha  89.987392
_cell_angle_beta   89.982524
_cell_angle_gamma 90.000873
loop_
_atom_site_label
_atom_site_type_symbol
_atom_site_fract_x
_atom_site_fract_y
_atom_site_fract_z
_atom_type_partial_charge
In0 In 0.14318 0.36899 0.26145 0.0
O1 O 0.12146 0.39876 0.28304 0.0
O2 O 0.16027 0.39566 0.29027 0.0
C3 C 0.14508 0.32739 0.29034 0.0
C4 C 0.10192 0.37261 0.23271 0.0
C5 C 0.18151 0.3676 0.22817 0.0
O6 O 0.16201 0.34381 0.29067 0.0
O7 O 0.12701 0.33234 0.27611 0.0
O8 O 0.16717 0.34932 0.23199 0.0
O9 O 0.17616 0.38687 0.24057 0.0
C10 C 0.14018 0.40719 0.2946 0.0
O11 O 0.10723 0.35355 0.24555 0.0
O12 O 0.11784 0.39007 0.23382 0.0
In13 In 0.14305 0.63272 0.72531 0.0
O14 O 0.14267 0.60268 0.69459 0.0
O15 O 0.13627 0.5919 0.73248 0.0
C16 C 0.14867 0.67547 0.69911 0.0
C17 C 0.09573 0.6366 0.74106 0.0
C18 C 0.18472 0.63192 0.75363 0.0
O19 O 0.15648 0.65474 0.69083 0.0
O20 O 0.13826 0.67441 0.72019 0.0
O21 O 0.16437 0.64106 0.76137 0.0
O22 O 0.18401 0.6233 0.73171 0.0
C23 C 0.13792 0.58524 0.70991 0.0
O24 O 0.11393 0.63656 0.75619 0.0
O25 O 0.10158 0.63486 0.71821 0.0
In26 In 0.84644 0.62573 0.2627 0.0
O27 O 0.84537 0.59081 0.28743 0.0
O28 O 0.84144 0.58617 0.24815 0.0
C29 C 0.83495 0.66087 0.29687 0.0
C30 C 0.89601 0.62887 0.25434 0.0
C31 C 0.81117 0.6395 0.22963 0.0
O32 O 0.82914 0.63813 0.29969 0.0
O33 O 0.84705 0.66565 0.27719 0.0
O34 O 0.83418 0.64347 0.226 0.0
O35 O 0.80609 0.62797 0.24961 0.0
C36 C 0.84268 0.57588 0.26934 0.0
O37 O 0.88031 0.62882 0.23672 0.0
O38 O 0.88665 0.62756 0.27596 0.0
In39 In 0.85368 0.36446 0.76135 0.0
O40 O 0.851 0.39613 0.73304 0.0
O41 O 0.86062 0.40543 0.77058 0.0
C42 C 0.82748 0.33422 0.73094 0.0
C43 C 0.90216 0.35099 0.75904 0.0
C44 C 0.824 0.35635 0.80137 0.0
O45 O 0.82525 0.35774 0.73016 0.0
O46 O 0.84298 0.32621 0.74679 0.0
O47 O 0.84235 0.34246 0.79626 0.0
O48 O 0.82171 0.37513 0.78732 0.0
C49 C 0.85627 0.41308 0.74863 0.0
O50 O 0.89315 0.36116 0.77839 0.0
O51 O 0.88697 0.34822 0.74128 0.0
In52 In 0.25153 0.13725 0.35317 0.0
O53 O 0.23036 0.09987 0.35113 0.0
O54 O 0.26618 0.10228 0.33422 0.0
C55 C 0.21507 0.17207 0.35004 0.0
C56 C 0.26582 0.13289 0.40137 0.0
C57 C 0.28264 0.15764 0.31938 0.0
O58 O 0.21251 0.15034 0.34116 0.0
O59 O 0.23557 0.17584 0.361 0.0
O60 O 0.28812 0.15598 0.34232 0.0
O61 O 0.26145 0.14896 0.31351 0.0
C62 C 0.24741 0.08892 0.33903 0.0
O63 O 0.28085 0.13856 0.38411 0.0
O64 O 0.2436 0.12932 0.39432 0.0
In65 In 0.3658 0.72156 0.85692 0.0
O66 O 0.4015 0.69814 0.85575 0.0
O67 O 0.40433 0.73695 0.86463 0.0
C68 C 0.3311 0.68782 0.84327 0.0
C69 C 0.3547 0.731 0.90501 0.0
C70 C 0.36232 0.75163 0.81666 0.0
O71 O 0.35421 0.68296 0.84241 0.0
O72 O 0.32575 0.70927 0.85146 0.0
O73 O 0.3512 0.75652 0.83694 0.0
O74 O 0.37526 0.73194 0.81694 0.0
C75 C 0.41552 0.71647 0.86102 0.0
O76 O 0.35487 0.74801 0.88858 0.0
O77 O 0.36017 0.70941 0.89711 0.0
In78 In 0.73651 0.85586 0.372 0.0
O79 O 0.70867 0.85841 0.40453 0.0
O80 O 0.74745 0.85416 0.41273 0.0
C81 C 0.70415 0.85469 0.33313 0.0
C82 C 0.75723 0.90162 0.37056 0.0
C83 C 0.76088 0.81213 0.36561 0.0
O84 O 0.69918 0.84467 0.35393 0.0
O85 O 0.72508 0.86543 0.33215 0.0
O86 O 0.76898 0.8324 0.35656 0.0
O87 O 0.74072 0.81404 0.37764 0.0
C88 C 0.72547 0.85636 0.42107 0.0
O89 O 0.76995 0.88203 0.36673 0.0
O90 O 0.73433 0.89795 0.37505 0.0
In91 In 0.6323 0.24078 0.85076 0.0
O92 O 0.64014 0.24685 0.89188 0.0
O93 O 0.63223 0.20963 0.88043 0.0
C94 C 0.63471 0.21234 0.80907 0.0
C95 C 0.58493 0.25817 0.85096 0.0
C96 C 0.67266 0.2708 0.84769 0.0
O97 O 0.63872 0.20366 0.83065 0.0
O98 O 0.62979 0.23541 0.80847 0.0
O99 O 0.65068 0.27902 0.85014 0.0
O100 O 0.67436 0.24726 0.84623 0.0
C101 C 0.63748 0.2243 0.89817 0.0
O102 O 0.60322 0.27145 0.84426 0.0
O103 O 0.59051 0.23614 0.85724 0.0
In104 In 0.26603 0.85926 0.63629 0.0
O105 O 0.25496 0.86906 0.59652 0.0
O106 O 0.29151 0.85452 0.60233 0.0
C107 C 0.29572 0.83876 0.67117 0.0
C108 C 0.26702 0.90782 0.64951 0.0
C109 C 0.22827 0.82611 0.64012 0.0
O110 O 0.30145 0.83887 0.64822 0.0
O111 O 0.27507 0.849 0.67639 0.0
O112 O 0.22646 0.84827 0.64818 0.0
O113 O 0.24883 0.82101 0.62975 0.0
C114 C 0.27556 0.86267 0.58696 0.0
O115 O 0.24689 0.89696 0.6436 0.0
O116 O 0.28626 0.89426 0.64862 0.0
In117 In 0.61978 0.7461 0.15429 0.0
O118 O 0.6222 0.76525 0.11585 0.0
O119 O 0.62171 0.72537 0.11795 0.0
C120 C 0.62487 0.78278 0.18842 0.0
C121 C 0.57189 0.73132 0.1578 0.0
C122 C 0.66292 0.72203 0.1633 0.0
O123 O 0.62707 0.7869 0.16521 0.0
O124 O 0.61935 0.76054 0.19406 0.0
O125 O 0.64227 0.7141 0.17174 0.0
O126 O 0.66164 0.74203 0.15084 0.0
C127 C 0.623 0.74457 0.10428 0.0
O128 O 0.58981 0.71742 0.16453 0.0
O129 O 0.57822 0.75274 0.15008 0.0
In130 In 0.73074 0.15205 0.62274 0.0
O131 O 0.71685 0.15376 0.58204 0.0
O132 O 0.75462 0.16371 0.59033 0.0
C133 C 0.69091 0.148 0.65313 0.0
C134 C 0.74902 0.10544 0.62413 0.0
C135 C 0.74802 0.19464 0.64274 0.0
O136 O 0.68965 0.15993 0.63272 0.0
O137 O 0.71162 0.13764 0.65738 0.0
O138 O 0.75899 0.17392 0.64623 0.0
O139 O 0.72863 0.1936 0.62934 0.0
C140 C 0.73786 0.16119 0.57394 0.0
O141 O 0.76042 0.12362 0.63423 0.0
O142 O 0.72884 0.11107 0.61314 0.0
In143 In 0.36795 0.27106 0.13725 0.0
O144 O 0.40386 0.29435 0.13929 0.0
O145 O 0.40686 0.25489 0.13428 0.0
C146 C 0.33154 0.30412 0.14824 0.0
C147 C 0.36003 0.26116 0.08856 0.0
C148 C 0.36107 0.24184 0.17759 0.0
O149 O 0.35441 0.31009 0.14932 0.0
O150 O 0.32742 0.28199 0.14122 0.0
O151 O 0.35203 0.23637 0.15644 0.0
O152 O 0.37386 0.26166 0.17817 0.0
C153 C 0.41803 0.27555 0.13676 0.0
O154 O 0.35947 0.24422 0.10505 0.0
O155 O 0.36468 0.28283 0.0967 0.0
In156 In 0.86415 0.64547 0.74967 0.0
O157 O 0.89851 0.64717 0.77474 0.0
O158 O 0.90369 0.64108 0.7356 0.0
C159 C 0.83148 0.6599 0.78507 0.0
C160 C 0.85737 0.59632 0.7408 0.0
C161 C 0.85671 0.68415 0.71804 0.0
O162 O 0.85475 0.66314 0.78737 0.0
O163 O 0.8249 0.64885 0.7653 0.0
O164 O 0.8744 0.68342 0.73357 0.0
O165 O 0.84303 0.6649 0.71775 0.0
C166 C 0.91364 0.64365 0.75689 0.0
O167 O 0.8573 0.6123 0.72337 0.0
O168 O 0.8603 0.60527 0.76242 0.0
In169 In 0.87774 0.35244 0.2243 0.0
O170 O 0.87762 0.38011 0.25704 0.0
O171 O 0.86127 0.3912 0.22241 0.0
C172 C 0.88045 0.31374 0.25637 0.0
C173 C 0.92462 0.36116 0.20698 0.0
C174 C 0.83999 0.33724 0.19422 0.0
O175 O 0.8696 0.334 0.26204 0.0
O176 O 0.89027 0.31337 0.23491 0.0
O177 O 0.86187 0.34053 0.18595 0.0
O178 O 0.83745 0.34176 0.21714 0.0
C179 C 0.8665 0.39697 0.24469 0.0
O180 O 0.91807 0.34099 0.2172 0.0
O181 O 0.90728 0.37695 0.20467 0.0
In182 In 0.12969 0.35683 0.72662 0.0
O183 O 0.09564 0.3546 0.75273 0.0
O184 O 0.09232 0.34025 0.71579 0.0
C185 C 0.16772 0.36019 0.75965 0.0
C186 C 0.12433 0.40398 0.70989 0.0
C187 C 0.1457 0.31876 0.69791 0.0
O188 O 0.14862 0.34691 0.76376 0.0
O189 O 0.16746 0.37178 0.73915 0.0
O190 O 0.14113 0.3402 0.68903 0.0
O191 O 0.14245 0.31672 0.72121 0.0
C192 C 0.08196 0.34412 0.73659 0.0
O193 O 0.13405 0.38702 0.69661 0.0
O194 O 0.11697 0.39692 0.73118 0.0
In195 In 0.12653 0.62773 0.28096 0.0
O196 O 0.11387 0.58792 0.28771 0.0
O197 O 0.14315 0.60148 0.31084 0.0
C198 C 0.13397 0.66882 0.30966 0.0
C199 C 0.0787 0.62893 0.26587 0.0
C200 C 0.15995 0.62956 0.24283 0.0
O201 O 0.1494 0.65096 0.30901 0.0
O202 O 0.11474 0.66553 0.29653 0.0
O203 O 0.15614 0.61008 0.2555 0.0
O204 O 0.14648 0.64791 0.24893 0.0
C205 C 0.12908 0.58339 0.3051 0.0
O206 O 0.09663 0.62848 0.2504 0.0
O207 O 0.08508 0.62873 0.28862 0.0
In208 In 0.74605 0.87565 0.65107 0.0
O209 O 0.77306 0.90879 0.6538 0.0
O210 O 0.7361 0.91537 0.64046 0.0
C211 C 0.77777 0.83742 0.65976 0.0
C212 C 0.73175 0.86639 0.60367 0.0
C213 C 0.71844 0.8751 0.69337 0.0
O214 O 0.75445 0.83453 0.65776 0.0
O215 O 0.78523 0.85974 0.6575 0.0
O216 O 0.7113 0.86458 0.67346 0.0
O217 O 0.73924 0.88609 0.69178 0.0
C218 C 0.75729 0.92439 0.64559 0.0
O219 O 0.71603 0.86956 0.62106 0.0
O220 O 0.75433 0.86758 0.61038 0.0
In221 In 0.64604 0.22944 0.12912 0.0
O222 O 0.64721 0.23964 0.08824 0.0
O223 O 0.64017 0.20142 0.09723 0.0
C224 C 0.65813 0.19559 0.1646 0.0
C225 C 0.59925 0.24756 0.13515 0.0
C226 C 0.68753 0.25785 0.13306 0.0
O227 O 0.66075 0.19124 0.14155 0.0
O228 O 0.64869 0.21661 0.16962 0.0
O229 O 0.6686 0.26123 0.14677 0.0
O230 O 0.68541 0.2404 0.11736 0.0
C231 C 0.64317 0.21775 0.08037 0.0
O232 O 0.61811 0.26163 0.13334 0.0
O233 O 0.60406 0.22448 0.13434 0.0
In234 In 0.26569 0.13758 0.63254 0.0
O235 O 0.29192 0.14117 0.59908 0.0
O236 O 0.25574 0.1254 0.59327 0.0
C237 C 0.29389 0.16028 0.66736 0.0
C238 C 0.26653 0.08942 0.64691 0.0
C239 C 0.2281 0.17106 0.63299 0.0
O240 O 0.30021 0.15981 0.64456 0.0
O241 O 0.2736 0.14931 0.67232 0.0
O242 O 0.22781 0.15176 0.64666 0.0
O243 O 0.2468 0.17291 0.61878 0.0
C244 C 0.27636 0.13199 0.58381 0.0
O245 O 0.24641 0.10007 0.6405 0.0
O246 O 0.28577 0.103 0.64588 0.0
In247 In 0.34184 0.7177 0.13582 0.0
O248 O 0.37563 0.69227 0.14268 0.0
O249 O 0.38189 0.7298 0.13064 0.0
C250 C 0.30313 0.68763 0.14754 0.0
C251 C 0.33624 0.728 0.08689 0.0
C252 C 0.33915 0.74867 0.17529 0.0
O253 O 0.32515 0.67928 0.1454 0.0
O254 O 0.30082 0.71067 0.14314 0.0
O255 O 0.3289 0.75386 0.15462 0.0
O256 O 0.35067 0.7281 0.17586 0.0
C257 C 0.39131 0.70919 0.13728 0.0
O258 O 0.33553 0.74481 0.10347 0.0
O259 O 0.33936 0.70606 0.09508 0.0
In260 In 0.77936 0.13081 0.34844 0.0
O261 O 0.80354 0.09535 0.34837 0.0
O262 O 0.76567 0.09274 0.36043 0.0
C263 C 0.81252 0.16556 0.33354 0.0
C264 C 0.77134 0.14565 0.39578 0.0
C265 C 0.74814 0.13245 0.30886 0.0
O266 O 0.81812 0.14256 0.33436 0.0
O267 O 0.7904 0.17067 0.33995 0.0
O268 O 0.74371 0.14415 0.3289 0.0
O269 O 0.76807 0.11985 0.30896 0.0
C270 C 0.78604 0.08156 0.35634 0.0
O271 O 0.75349 0.14011 0.38131 0.0
O272 O 0.79289 0.14338 0.38644 0.0
In273 In 0.35432 0.277 0.85765 0.0
O274 O 0.34641 0.24903 0.88903 0.0
O275 O 0.35171 0.28741 0.89852 0.0
C276 C 0.35165 0.24946 0.81567 0.0
C277 C 0.40397 0.28358 0.85944 0.0
C278 C 0.3164 0.30847 0.84761 0.0
O279 O 0.34199 0.24216 0.83601 0.0
O280 O 0.36257 0.27033 0.81672 0.0
O281 O 0.33897 0.31555 0.84702 0.0
O282 O 0.31321 0.28593 0.85382 0.0
C283 C 0.34761 0.2654 0.90608 0.0
O284 O 0.38919 0.30173 0.85575 0.0
O285 O 0.39355 0.2626 0.86247 0.0
In286 In 0.2497 0.85966 0.35688 0.0
O287 O 0.22813 0.89663 0.35239 0.0
O288 O 0.26544 0.89454 0.33887 0.0
C289 C 0.21398 0.82402 0.3573 0.0
C290 C 0.26501 0.86453 0.40465 0.0
C291 C 0.2778 0.8395 0.3206 0.0
O292 O 0.20972 0.84594 0.34953 0.0
O293 O 0.23587 0.82046 0.36524 0.0
O294 O 0.28541 0.84148 0.34291 0.0
O295 O 0.25601 0.84778 0.31665 0.0
C296 C 0.24607 0.90762 0.34167 0.0
O297 O 0.24302 0.86947 0.39774 0.0
O298 O 0.27942 0.85736 0.38741 0.0
In299 In 0.64286 0.76195 0.87208 0.0
O300 O 0.64024 0.77714 0.91234 0.0
O301 O 0.64446 0.73793 0.90625 0.0
C302 C 0.64752 0.80136 0.84111 0.0
C303 C 0.59616 0.74555 0.8642 0.0
C304 C 0.68662 0.7399 0.8613 0.0
O305 O 0.65171 0.80331 0.86434 0.0
O306 O 0.64034 0.78002 0.8341 0.0
O307 O 0.66611 0.73218 0.85241 0.0
O308 O 0.68496 0.75875 0.87542 0.0
C309 C 0.6421 0.75548 0.92182 0.0
O310 O 0.61514 0.73284 0.85807 0.0
O311 O 0.60085 0.76667 0.87375 0.0
H312 H 0.09576 0.54539 0.30129 0.0
H313 H 0.16884 0.5639 0.33106 0.0
H314 H 0.17634 0.51911 0.34016 0.0
H315 H 0.08293 0.48966 0.34427 0.0
H316 H 0.06772 0.4732 0.31907 0.0
H317 H 0.0658 0.50685 0.32085 0.0
H318 H 0.08345 0.51016 0.27579 0.0
H319 H 0.08556 0.47673 0.27393 0.0
H320 H 0.113 0.49559 0.26854 0.0
H321 H 0.17952 0.47242 0.33677 0.0
H322 H 0.17762 0.42853 0.32234 0.0
H323 H 0.10187 0.44055 0.29607 0.0
C324 C 0.11296 0.5401 0.31061 0.0
C325 C 0.13171 0.55799 0.31556 0.0
C326 C 0.15413 0.55045 0.32739 0.0
C327 C 0.15852 0.52506 0.33264 0.0
C328 C 0.14005 0.50765 0.32642 0.0
C329 C 0.11748 0.51496 0.31607 0.0
C330 C 0.10201 0.49266 0.30805 0.0
C331 C 0.07821 0.49046 0.32402 0.0
C332 C 0.09567 0.49387 0.27993 0.0
C333 C 0.12009 0.47168 0.3138 0.0
C334 C 0.14172 0.48058 0.3249 0.0
C335 C 0.16239 0.46513 0.32882 0.0
C336 C 0.16118 0.44023 0.32052 0.0
C337 C 0.1395 0.43113 0.30834 0.0
C338 C 0.11844 0.44683 0.30587 0.0
H339 H 0.94889 0.63803 0.72068 0.0
H340 H 0.93993 0.64768 0.80081 0.0
H341 H 0.98598 0.64678 0.80594 0.0
H342 H 0.00091 0.59573 0.72328 0.0
H343 H 0.01585 0.60889 0.69605 0.0
H344 H 0.98232 0.61005 0.69905 0.0
H345 H 0.98342 0.65827 0.69348 0.0
H346 H 0.01695 0.65726 0.6905 0.0
H347 H 0.00272 0.67688 0.71395 0.0
H348 H 0.03333 0.64488 0.80185 0.0
H349 H 0.07777 0.64236 0.78886 0.0
H350 H 0.05448 0.63441 0.71148 0.0
C351 C 0.95657 0.6399 0.73934 0.0
C352 C 0.94094 0.64289 0.76036 0.0
C353 C 0.95167 0.64534 0.78445 0.0
C354 C 0.97775 0.64485 0.78754 0.0
C355 C 0.99266 0.64192 0.76633 0.0
C356 C 0.9824 0.6395 0.74272 0.0
C357 C 0.00232 0.63678 0.72288 0.0
C358 C 0.00022 0.61135 0.70954 0.0
C359 C 0.00129 0.6586 0.70411 0.0
C360 C 0.02547 0.6381 0.73897 0.0
C361 C 0.01962 0.64101 0.76399 0.0
C362 C 0.03812 0.64261 0.78231 0.0
C363 C 0.06325 0.64118 0.77478 0.0
C364 C 0.06947 0.63825 0.74919 0.0
C365 C 0.05029 0.63672 0.73118 0.0
H366 H 0.84886 0.43698 0.21886 0.0
H367 H 0.87184 0.41354 0.2931 0.0
H368 H 0.86415 0.45649 0.30886 0.0
H369 H 0.87878 0.49487 0.22004 0.0
H370 H 0.8549 0.51106 0.20257 0.0
H371 H 0.85946 0.47802 0.19812 0.0
H372 H 0.81282 0.46998 0.20883 0.0
H373 H 0.80811 0.50307 0.21332 0.0
H374 H 0.80025 0.48142 0.23797 0.0
H375 H 0.8566 0.50295 0.3155 0.0
H376 H 0.85177 0.54892 0.31206 0.0
H377 H 0.8347 0.54105 0.2331 0.0
C378 C 0.85189 0.44073 0.23855 0.0
C379 C 0.8608 0.42197 0.25484 0.0
C380 C 0.86493 0.4277 0.28036 0.0
C381 C 0.86052 0.45197 0.28946 0.0
C382 C 0.852 0.47015 0.27276 0.0
C383 C 0.84777 0.46475 0.24783 0.0
C384 C 0.84051 0.48783 0.2332 0.0
C385 C 0.85955 0.49326 0.21226 0.0
C386 C 0.81383 0.48542 0.22272 0.0
C387 C 0.84179 0.50726 0.25367 0.0
C388 C 0.84811 0.49674 0.27644 0.0
C389 C 0.85142 0.51134 0.29781 0.0
C390 C 0.84863 0.53739 0.29569 0.0
C391 C 0.84284 0.54846 0.27232 0.0
C392 C 0.83899 0.5331 0.25123 0.0
H393 H 0.04983 0.36417 0.77132 0.0
H394 H 0.05452 0.31017 0.71088 0.0
H395 H 0.00927 0.30222 0.71436 0.0
H396 H -0.0012 0.33201 0.80756 0.0
H397 H 0.9841 0.36128 0.81563 0.0
H398 H 0.01754 0.35979 0.81145 0.0
H399 H 0.01499 0.3952 0.77844 0.0
H400 H 0.98162 0.39672 0.7824 0.0
H401 H 0.99471 0.39149 0.75175 0.0
H402 H 0.96383 0.30413 0.71996 0.0
H403 H 0.9199 0.31562 0.72757 0.0
H404 H 0.94333 0.36845 0.78461 0.0
C405 C 0.04137 0.35015 0.75938 0.0
C406 C 0.05558 0.33761 0.74096 0.0
C407 C 0.0439 0.3199 0.72514 0.0
C408 C 0.01826 0.31517 0.72707 0.0
C409 C 0.00459 0.3283 0.74492 0.0
C410 C 0.01564 0.34537 0.76091 0.0
C411 C 0.99612 0.35879 0.77657 0.0
C412 C -0.00066 0.35259 0.80446 0.0
C413 C 0.99691 0.38723 0.772 0.0
C414 C 0.97239 0.34725 0.76616 0.0
C415 C 0.97784 0.32946 0.74818 0.0
C416 C 0.95926 0.31765 0.73433 0.0
C417 C 0.9344 0.32441 0.73869 0.0
C418 C 0.92833 0.34277 0.75676 0.0
C419 C 0.94751 0.354 0.77103 0.0
H420 H 0.10866 0.44326 0.73796 0.0
H421 H 0.13955 0.42458 0.66527 0.0
H422 H 0.14287 0.46975 0.65521 0.0
H423 H 0.07375 0.49972 0.71878 0.0
H424 H 0.08123 0.51567 0.74753 0.0
H425 H 0.07811 0.48209 0.74721 0.0
H426 H 0.1226 0.47783 0.7661 0.0
H427 H 0.12594 0.5113 0.76631 0.0
H428 H 0.1487 0.49224 0.75032 0.0
H429 H 0.14624 0.51742 0.65503 0.0
H430 H 0.14997 0.56263 0.66516 0.0
H431 H 0.118 0.54847 0.73841 0.0
C432 C 0.11557 0.44861 0.71968 0.0
C433 C 0.1237 0.4305 0.70232 0.0
C434 C 0.13306 0.43824 0.67877 0.0
C435 C 0.13498 0.46381 0.6729 0.0
C436 C 0.12738 0.48125 0.69077 0.0
C437 C 0.11776 0.47388 0.71365 0.0
C438 C 0.11289 0.49597 0.73055 0.0
C439 C 0.08483 0.49851 0.73635 0.0
C440 C 0.12847 0.49422 0.75473 0.0
C441 C 0.12189 0.51695 0.71393 0.0
C442 C 0.12984 0.50829 0.6909 0.0
C443 C 0.13983 0.52441 0.67292 0.0
C444 C 0.1419 0.54999 0.6788 0.0
C445 C 0.13436 0.55891 0.70256 0.0
C446 C 0.12398 0.54216 0.72009 0.0
H447 H 0.93232 0.62863 0.28995 0.0
H448 H 0.92114 0.63109 0.20958 0.0
H449 H 0.96706 0.63173 0.20329 0.0
H450 H 0.98544 0.66971 0.29209 0.0
H451 H 0.00066 0.65232 0.31665 0.0
H452 H 0.96705 0.6524 0.31447 0.0
H453 H 0.96696 0.60389 0.31285 0.0
H454 H 0.00057 0.60365 0.31498 0.0
H455 H 0.98523 0.58807 0.28931 0.0
H456 H 0.01464 0.63143 0.20624 0.0
H457 H 0.05946 0.63061 0.21819 0.0
H458 H 0.03818 0.6284 0.29653 0.0
C459 C 0.93949 0.6294 0.27099 0.0
C460 C 0.92325 0.62985 0.25023 0.0
C461 C 0.93333 0.63078 0.22573 0.0
C462 C 0.95935 0.63113 0.222 0.0
C463 C 0.97487 0.63056 0.24296 0.0
C464 C 0.96525 0.62975 0.26697 0.0
C465 C 0.98572 0.62904 0.2864 0.0
C466 C 0.98465 0.65225 0.3034 0.0
C467 C 0.98455 0.60471 0.30178 0.0
C468 C 0.00845 0.62956 0.26964 0.0
C469 C 0.00192 0.63042 0.24464 0.0
C470 C 0.01995 0.63081 0.22576 0.0
C471 C 0.04529 0.63033 0.23272 0.0
C472 C 0.05221 0.62948 0.25827 0.0
C473 C 0.03348 0.62911 0.27685 0.0
H474 H 0.86119 0.55933 0.77563 0.0
H475 H 0.84972 0.57193 0.69624 0.0
H476 H 0.84833 0.52611 0.68932 0.0
H477 H 0.90161 0.50665 0.76937 0.0
H478 H 0.88918 0.49062 0.79633 0.0
H479 H 0.88849 0.52428 0.79497 0.0
H480 H 0.84052 0.52381 0.80213 0.0
H481 H 0.84108 0.49015 0.80365 0.0
H482 H 0.82088 0.50568 0.78156 0.0
H483 H 0.84853 0.47872 0.69137 0.0
H484 H 0.85 0.43371 0.70217 0.0
H485 H 0.8622 0.45289 0.78011 0.0
C486 C 0.85821 0.55249 0.75679 0.0
C487 C 0.85546 0.56912 0.73646 0.0
C488 C 0.85179 0.55945 0.71207 0.0
C489 C 0.85101 0.5335 0.70798 0.0
C490 C 0.85402 0.5176 0.72847 0.0
C491 C 0.85752 0.52676 0.75239 0.0
C492 C 0.86061 0.50585 0.77121 0.0
C493 C 0.88651 0.50692 0.78369 0.0
C494 C 0.83951 0.50641 0.79078 0.0
C495 C 0.8583 0.48341 0.75417 0.0
C496 C 0.85446 0.49052 0.7296 0.0
C497 C 0.85156 0.47295 0.71055 0.0
C498 C 0.85245 0.44746 0.71685 0.0
C499 C 0.8563 0.43987 0.74195 0.0
C500 C 0.85937 0.45814 0.76075 0.0
H501 H 0.96375 0.32895 0.20993 0.0
H502 H 0.9452 0.40598 0.19248 0.0
H503 H 0.99031 0.41628 0.19042 0.0
H504 H 0.0098 0.34173 0.25114 0.0
H505 H 0.02993 0.31596 0.24286 0.0
H506 H 0.99684 0.31364 0.23767 0.0
H507 H 0.00453 0.3041 0.19073 0.0
H508 H 0.0378 0.3062 0.19581 0.0
H509 H 0.02312 0.32533 0.17223 0.0
H510 H 0.03716 0.41934 0.19718 0.0
H511 H 0.08078 0.4148 0.2122 0.0
H512 H 0.06779 0.33578 0.22534 0.0
C513 C 0.96916 0.34782 0.20485 0.0
C514 C 0.95106 0.36664 0.20121 0.0
C515 C 0.95883 0.39122 0.19507 0.0
C516 C 0.98441 0.39722 0.19384 0.0
C517 C 0.00185 0.37834 0.1985 0.0
C518 C 0.99448 0.35405 0.2036 0.0
C519 C 0.01645 0.33778 0.21077 0.0
C520 C 0.01304 0.32665 0.23717 0.0
C521 C 0.02073 0.31713 0.19121 0.0
C522 C 0.03722 0.35693 0.21014 0.0
C523 C 0.02865 0.38013 0.20254 0.0
C524 C 0.04418 0.40114 0.20263 0.0
C525 C 0.0689 0.39841 0.21118 0.0
C526 C 0.07763 0.37492 0.21979 0.0
C527 C 0.06171 0.35391 0.21861 0.0
H528 H 0.24336 0.11818 0.54752 0.0
H529 H 0.31982 0.14296 0.55888 0.0
H530 H 0.32648 0.14317 0.51305 0.0
H531 H 0.25522 0.07829 0.493 0.0
H532 H 0.22629 0.08709 0.4781 0.0
H533 H 0.22846 0.08669 0.51174 0.0
H534 H 0.21394 0.13296 0.51323 0.0
H535 H 0.21181 0.13354 0.47964 0.0
H536 H 0.23094 0.15623 0.49568 0.0
H537 H 0.32377 0.14311 0.46592 0.0
H538 H 0.31181 0.1434 0.42122 0.0
H539 H 0.23687 0.11939 0.44126 0.0
C540 C 0.26165 0.12326 0.5404 0.0
C541 C 0.28115 0.13042 0.55668 0.0
C542 C 0.30469 0.13731 0.54668 0.0
C543 C 0.30863 0.13744 0.52071 0.0
C544 C 0.28885 0.13062 0.50514 0.0
C545 C 0.26584 0.12362 0.51463 0.0
C546 C 0.24719 0.11854 0.49397 0.0
C547 C 0.2388 0.09101 0.49422 0.0
C548 C 0.22465 0.13639 0.49574 0.0
C549 C 0.26314 0.12424 0.47133 0.0
C550 C 0.28718 0.13092 0.47811 0.0
C551 C 0.30506 0.13772 0.46038 0.0
C552 C 0.29809 0.13785 0.43508 0.0
C553 C 0.27343 0.1314 0.42784 0.0
C554 C 0.25587 0.12432 0.44624 0.0
H555 H 0.35233 0.69678 0.9427 0.0
H556 H 0.34424 0.77608 0.92718 0.0
H557 H 0.336 0.78392 0.97209 0.0
H558 H 0.30408 0.69286 0.99065 0.0
H559 H 0.32155 0.67072 0.00915 0.0
H560 H 0.32537 0.6714 0.97566 0.0
H561 H 0.37318 0.67749 0.98111 0.0
H562 H 0.36953 0.67681 0.01457 0.0
H563 H 0.38456 0.70316 -0.00019 0.0
H564 H 0.33095 0.7831 0.0192 0.0
H565 H 0.32972 0.77371 0.06454 0.0
H566 H 0.34079 0.69489 0.04838 0.0
C567 C 0.34862 0.71578 0.94869 0.0
C568 C 0.34889 0.73584 0.93153 0.0
C569 C 0.34406 0.76045 0.94008 0.0
C570 C 0.33933 0.76506 0.96551 0.0
C571 C 0.33937 0.74483 0.98199 0.0
C572 C 0.34383 0.72068 0.97388 0.0
C573 C 0.34375 0.70229 0.99537 0.0
C574 C 0.32241 0.68319 0.99253 0.0
C575 C 0.36927 0.68918 -0.00214 0.0
C576 C 0.33899 0.7199 0.01696 0.0
C577 C 0.33636 0.74434 0.00891 0.0
C578 C 0.33276 0.76399 0.02568 0.0
C579 C 0.33209 0.7585 0.05136 0.0
C580 C 0.33506 0.73358 0.0599 0.0
C581 C 0.33826 0.7141 0.0424 0.0
H582 H 0.75942 0.85263 0.4587 0.0
H583 H 0.67992 0.86099 0.44463 0.0
H584 H 0.67214 0.86237 0.49037 0.0
H585 H 0.75418 0.81339 0.51364 0.0
H586 H 0.78045 0.82796 0.52895 0.0
H587 H 0.77927 0.82652 0.4953 0.0
H588 H 0.78443 0.87472 0.49292 0.0
H589 H 0.78566 0.87631 0.52653 0.0
H590 H 0.76284 0.89453 0.50965 0.0
H591 H 0.67372 0.86429 0.53811 0.0
H592 H 0.68461 0.86744 0.5831 0.0
H593 H 0.76303 0.85782 0.56451 0.0
C594 C 0.74032 0.85458 0.46518 0.0
C595 C 0.72025 0.85667 0.44818 0.0
C596 C 0.69556 0.85932 0.45741 0.0
C597 C 0.69097 0.86008 0.48331 0.0
C598 C 0.71129 0.85808 0.49958 0.0
C599 C 0.73546 0.85537 0.49079 0.0
C600 C 0.75422 0.85442 0.51189 0.0
C601 C 0.76782 0.82906 0.51248 0.0
C602 C 0.77287 0.8763 0.51014 0.0
C603 C 0.73692 0.85732 0.53403 0.0
C604 C 0.7122 0.85925 0.52669 0.0
C605 C 0.69301 0.86266 0.54405 0.0
C606 C 0.69934 0.8644 0.56953 0.0
C607 C 0.72463 0.86283 0.57724 0.0
C608 C 0.74351 0.859 0.55921 0.0
H609 H 0.65732 0.24842 0.04258 0.0
H610 H 0.62761 0.17435 0.0574 0.0
H611 H 0.62546 0.16625 0.01172 0.0
H612 H 0.61998 0.26262 0.99101 0.0
H613 H 0.64421 0.27901 0.97422 0.0
H614 H 0.64494 0.27784 0.00783 0.0
H615 H 0.68961 0.25893 0.00633 0.0
H616 H 0.68902 0.26003 0.97264 0.0
H617 H 0.69519 0.23087 0.98845 0.0
H618 H 0.62442 0.1678 0.96384 0.0
H619 H 0.62413 0.17902 0.91878 0.0
H620 H 0.65487 0.25191 0.93695 0.0
C621 C 0.6505 0.23041 0.03627 0.0
C622 C 0.64253 0.21202 0.05341 0.0
C623 C 0.63383 0.18866 0.04446 0.0
C624 C 0.6326 0.18391 0.01861 0.0
C625 C 0.64044 0.20263 0.00216 0.0
C626 C 0.64936 0.22534 0.01074 0.0
C627 C 0.6559 0.24277 0.98951 0.0
C628 C 0.64032 0.26697 0.99072 0.0
C629 C 0.68411 0.24847 0.98922 0.0
C630 C 0.64849 0.2267 0.96753 0.0
C631 C 0.63991 0.20347 0.97503 0.0
C632 C 0.63131 0.18586 0.95778 0.0
C633 C 0.63122 0.19236 0.93228 0.0
C634 C 0.63945 0.21631 0.92448 0.0
C635 C 0.64847 0.23344 0.94237 0.0
H636 H 0.23652 0.87839 0.44462 0.0
H637 H 0.3109 0.85302 0.42424 0.0
H638 H 0.32281 0.85225 0.46896 0.0
H639 H 0.25546 0.9179 0.49742 0.0
H640 H 0.22834 0.90955 0.51565 0.0
H641 H 0.22653 0.91004 0.48199 0.0
H642 H 0.21111 0.86403 0.48216 0.0
H643 H 0.21297 0.86336 0.51576 0.0
H644 H 0.22965 0.8404 0.49752 0.0
H645 H 0.32542 0.85131 0.51608 0.0
H646 H 0.31868 0.85087 0.5619 0.0
H647 H 0.24264 0.87705 0.55081 0.0
C648 C 0.25543 0.87303 0.44953 0.0
C649 C 0.27283 0.86582 0.43105 0.0
C650 C 0.29733 0.8587 0.43818 0.0
C651 C 0.30426 0.85823 0.46348 0.0
C652 C 0.28649 0.86507 0.4813 0.0
C653 C 0.26263 0.87248 0.47462 0.0
C654 C 0.24666 0.8778 0.49734 0.0
C655 C 0.23879 0.90547 0.49814 0.0
C656 C 0.22375 0.86035 0.49824 0.0
C657 C 0.26508 0.87173 0.5179 0.0
C658 C 0.28801 0.86458 0.50833 0.0
C659 C 0.30763 0.85713 0.5238 0.0
C660 C 0.30363 0.85688 0.54975 0.0
C661 C 0.28019 0.86399 0.55983 0.0
C662 C 0.26082 0.87169 0.54364 0.0
H663 H 0.62257 0.78207 0.06849 0.0
H664 H 0.63124 0.70182 0.07851 0.0
H665 H 0.63803 0.6968 0.03339 0.0
H666 H 0.58898 0.77808 0.00979 0.0
H667 H 0.60374 0.80523 0.99625 0.0
H668 H 0.59992 0.80304 0.02967 0.0
H669 H 0.64757 0.80962 0.03557 0.0
H670 H 0.65154 0.81174 0.00215 0.0
H671 H 0.66921 0.78908 0.01982 0.0
H672 H 0.64408 0.69971 0.98829 0.0
H673 H 0.64741 0.7102 0.94375 0.0
H674 H 0.63424 0.78861 0.96097 0.0
C675 C 0.6259 0.76349 0.0611 0.0
C676 C 0.6264 0.74233 0.077 0.0
C677 C 0.63071 0.71829 0.06671 0.0
C678 C 0.63468 0.71522 0.0411 0.0
C679 C 0.63416 0.73634 0.02595 0.0
C680 C 0.62975 0.76001 0.03536 0.0
C681 C 0.62972 0.77933 0.0145 0.0
C682 C 0.60406 0.79218 0.01244 0.0
C683 C 0.65077 0.79858 0.01824 0.0
C684 C 0.63481 0.7627 0.99204 0.0
C685 C 0.6374 0.73802 -0.00071 0.0
C686 C 0.64207 0.71894 0.98228 0.0
C687 C 0.64393 0.72515 0.957 0.0
C688 C 0.64105 0.75022 0.94889 0.0
C689 C 0.63658 0.7693 0.96668 0.0
H690 H 0.71187 0.14477 0.53249 0.0
H691 H 0.77687 0.18765 0.55556 0.0
H692 H 0.78983 0.19192 0.51163 0.0
H693 H 0.74218 0.10996 0.48684 0.0
H694 H 0.71683 0.10955 0.46461 0.0
H695 H 0.71028 0.11274 0.49747 0.0
H696 H 0.68588 0.15375 0.48891 0.0
H697 H 0.69222 0.15059 0.45592 0.0
H698 H 0.70092 0.17886 0.47212 0.0
H699 H 0.79906 0.18693 0.46696 0.0
H700 H 0.80308 0.17439 0.42277 0.0
H701 H 0.7319 0.13561 0.42716 0.0
C702 C 0.72843 0.15562 0.52815 0.0
C703 C 0.74334 0.16596 0.54735 0.0
C704 C 0.76519 0.17957 0.5411 0.0
C705 C 0.77267 0.1822 0.5162 0.0
C706 C 0.75804 0.17121 0.49773 0.0
C707 C 0.73626 0.15837 0.50324 0.0
C708 C 0.7252 0.14669 0.47985 0.0
C709 C 0.72354 0.11804 0.48235 0.0
C710 C 0.69953 0.15817 0.47385 0.0
C711 C 0.74463 0.15432 0.46061 0.0
C712 C 0.76328 0.16861 0.4714 0.0
C713 C 0.78435 0.17619 0.45812 0.0
C714 C 0.78654 0.16887 0.43311 0.0
C715 C 0.7677 0.15427 0.42164 0.0
C716 C 0.7463 0.14721 0.43544 0.0
H717 H 0.3593 0.29537 0.05085 0.0
H718 H 0.35113 0.21597 0.06578 0.0
H719 H 0.34478 0.20824 0.02051 0.0
H720 H 0.31294 0.29926 0.00154 0.0
H721 H 0.33085 0.32161 0.98371 0.0
H722 H 0.33364 0.32073 0.01729 0.0
H723 H 0.38164 0.31489 0.01326 0.0
H724 H 0.37901 0.31581 0.97971 0.0
H725 H 0.39372 0.28943 0.99472 0.0
H726 H 0.34108 0.20938 0.97305 0.0
H727 H 0.34083 0.21926 0.92774 0.0
H728 H 0.35115 0.29792 0.94505 0.0
C729 C 0.35602 0.27635 0.04466 0.0
C730 C 0.35569 0.25625 0.06176 0.0
C731 C 0.35142 0.23164 0.05292 0.0
C732 C 0.34776 0.22709 0.02729 0.0
C733 C 0.34832 0.24739 0.01089 0.0
C734 C 0.35231 0.27153 0.01929 0.0
C735 C 0.35279 0.29006 -0.00205 0.0
C736 C 0.33127 0.30903 0.00027 0.0
C737 C 0.37831 0.30331 0.99632 0.0
C738 C 0.34879 0.27258 0.97612 0.0
C739 C 0.34611 0.24805 0.98387 0.0
C740 C 0.34298 0.22856 0.9668 0.0
C741 C 0.34284 0.23432 0.94114 0.0
C742 C 0.34588 0.25934 0.93295 0.0
C743 C 0.34862 0.27863 0.95074 0.0
H744 H 0.55609 0.22035 0.13595 0.0
H745 H 0.58413 0.29653 0.13807 0.0
H746 H 0.54063 0.31243 0.13936 0.0
H747 H 0.5045 0.23223 0.09583 0.0
H748 H 0.48393 0.21052 0.11142 0.0
H749 H 0.5172 0.20533 0.11175 0.0
H750 H 0.51668 0.2039 0.16024 0.0
H751 H 0.48338 0.20899 0.16007 0.0
H752 H 0.50348 0.22974 0.17745 0.0
H753 H 0.4936 0.31977 0.13963 0.0
H754 H 0.44727 0.31782 0.13879 0.0
H755 H 0.45101 0.23676 0.13579 0.0
C756 C 0.55312 0.24038 0.13689 0.0
C757 C 0.57344 0.25723 0.13701 0.0
C758 C 0.56877 0.2833 0.13804 0.0
C759 C 0.54416 0.29249 0.13877 0.0
C760 C 0.52451 0.27533 0.13841 0.0
C761 C 0.52877 0.24983 0.13753 0.0
C762 C 0.50454 0.23527 0.13678 0.0
C763 C 0.50243 0.21994 0.1125 0.0
C764 C 0.50187 0.21849 0.16002 0.0
C765 C 0.48593 0.25655 0.13722 0.0
C766 C 0.49771 0.27954 0.13827 0.0
C767 C 0.48418 0.30186 0.13883 0.0
C768 C 0.45792 0.30059 0.13833 0.0
C769 C 0.4456 0.27716 0.13716 0.0
C770 C 0.45989 0.25496 0.1366 0.0
H771 H 0.55303 0.77059 0.8746 0.0
H772 H 0.58122 0.69921 0.84807 0.0
H773 H 0.53786 0.68312 0.84552 0.0
H774 H 0.50367 0.74629 0.9127 0.0
H775 H 0.48222 0.77118 0.90511 0.0
H776 H 0.51542 0.7769 0.90476 0.0
H777 H 0.51254 0.79241 0.85886 0.0
H778 H 0.47932 0.78692 0.85913 0.0
H779 H 0.49857 0.77248 0.8355 0.0
H780 H 0.49109 0.67497 0.84633 0.0
H781 H 0.4448 0.6762 0.8484 0.0
H782 H 0.44823 0.75313 0.87419 0.0
C783 C 0.55011 0.75159 0.86818 0.0
C784 C 0.57041 0.73611 0.86153 0.0
C785 C 0.56585 0.71137 0.8532 0.0
C786 C 0.54134 0.70206 0.85177 0.0
C787 C 0.52172 0.71779 0.85871 0.0
C788 C 0.52587 0.74207 0.8666 0.0
C789 C 0.50168 0.75534 0.8727 0.0
C790 C 0.5007 0.76286 0.90047 0.0
C791 C 0.4978 0.77813 0.85552 0.0
C792 C 0.48319 0.73477 0.86695 0.0
C793 C 0.49503 0.71318 0.85903 0.0
C794 C 0.48163 0.69176 0.85252 0.0
C795 C 0.4554 0.6926 0.85382 0.0
C796 C 0.44302 0.71474 0.86146 0.0
C797 C 0.45719 0.73592 0.86831 0.0
H798 H 0.73315 0.94531 0.38031 0.0
H799 H 0.80514 0.91536 0.35779 0.0
H800 H 0.82174 0.95853 0.35394 0.0
H801 H 0.73228 0.99606 0.33865 0.0
H802 H 0.71725 0.0172 0.36021 0.0
H803 H 0.71195 0.98405 0.36275 0.0
H804 H 0.72665 0.98509 0.40899 0.0
H805 H 0.73198 0.01829 0.4066 0.0
H806 H 0.75694 -0.00212 0.41649 0.0
H807 H 0.82931 0.0056 0.35021 0.0
H808 H 0.8271 0.05187 0.34708 0.0
H809 H 0.75005 0.04959 0.3725 0.0
C810 C 0.75249 0.94777 0.3748 0.0
C811 C 0.76789 0.92706 0.36935 0.0
C812 C 0.79307 0.93105 0.36211 0.0
C813 C 0.80263 0.95546 0.3599 0.0
C814 C 0.78679 0.97553 0.36518 0.0
C815 C 0.76228 0.97185 0.37259 0.0
C816 C 0.74869 0.99634 0.3763 0.0
C817 C 0.72623 -0.00147 0.35841 0.0
C818 C 0.7406 -0.00041 0.40373 0.0
C819 C 0.76921 0.01447 0.3694 0.0
C820 C 0.79113 0.00225 0.36317 0.0
C821 C 0.8123 0.01535 0.35528 0.0
C822 C 0.81089 0.04157 0.35355 0.0
C823 C 0.78844 0.05426 0.35962 0.0
C824 C 0.76753 0.04045 0.36788 0.0
H825 H 0.43794 0.24667 0.86749 0.0
H826 H 0.4319 0.32575 0.85004 0.0
H827 H 0.47809 0.32841 0.84683 0.0
H828 H 0.49442 0.25053 0.90471 0.0
H829 H 0.5064 0.22124 0.89304 0.0
H830 H 0.47314 0.2262 0.89505 0.0
H831 H 0.46874 0.2157 0.84789 0.0
H832 H 0.50198 0.21085 0.84568 0.0
H833 H 0.48684 0.23303 0.82529 0.0
H834 H 0.52503 0.32149 0.8436 0.0
H835 H 0.56867 0.30599 0.84192 0.0
H836 H 0.54284 0.23158 0.8617 0.0
C837 C 0.44629 0.26465 0.86323 0.0
C838 C 0.43142 0.28604 0.85904 0.0
C839 C 0.44304 0.30917 0.85339 0.0
C840 C 0.46921 0.31083 0.85151 0.0
C841 C 0.48331 0.28921 0.85542 0.0
C842 C 0.47221 0.2666 0.8613 0.0
C843 C 0.4913 0.24594 0.86402 0.0
C844 C 0.49131 0.23537 0.8908 0.0
C845 C 0.48695 0.22516 0.84456 0.0
C846 C 0.51496 0.26036 0.85859 0.0
C847 C 0.51006 0.28528 0.85366 0.0
C848 C 0.52909 0.30205 0.84758 0.0
C849 C 0.55375 0.29308 0.84661 0.0
C850 C 0.55905 0.26762 0.85173 0.0
C851 C 0.53936 0.25116 0.8578 0.0
H852 H 0.21571 0.94509 0.35938 0.0
H853 H 0.27545 0.92953 0.30666 0.0
H854 H 0.27805 0.97436 0.29622 0.0
H855 H 0.18684 -0.00135 0.32408 0.0
H856 H 0.18059 0.01582 0.35243 0.0
H857 H 0.18029 0.98208 0.35273 0.0
H858 H 0.2131 0.98212 0.38841 0.0
H859 H 0.21359 0.01576 0.38814 0.0
H860 H 0.24226 -0.00151 0.38401 0.0
H861 H 0.27835 0.02038 0.29548 0.0
H862 H 0.27646 0.06553 0.30461 0.0
H863 H 0.21672 0.05232 0.35801 0.0
C864 C 0.22878 0.95112 0.34511 0.0
C865 C 0.24525 0.93395 0.33364 0.0
C866 C 0.26263 0.94246 0.31558 0.0
C867 C 0.26416 0.96785 0.30943 0.0
C868 C 0.24817 0.98446 0.32152 0.0
C869 C 0.23073 0.97653 0.33893 0.0
C870 C 0.21772 -0.00137 0.35109 0.0
C871 C 0.18969 -0.0012 0.34469 0.0
C872 C 0.22194 -0.00125 0.37959 0.0
C873 C 0.23126 0.02013 0.33848 0.0
C874 C 0.24846 0.01145 0.32121 0.0
C875 C 0.26465 0.02748 0.30859 0.0
C876 C 0.26351 0.05305 0.31398 0.0
C877 C 0.24634 0.06234 0.33187 0.0
C878 C 0.22969 0.04572 0.34391 0.0
H879 H 0.53145 0.7576 0.14151 0.0
H880 H 0.55315 0.68584 0.17272 0.0
H881 H 0.5092 0.67138 0.16976 0.0
H882 H 0.47212 0.7624 0.1724 0.0
H883 H 0.45702 0.77686 0.14593 0.0
H884 H 0.49005 0.78118 0.15085 0.0
H885 H 0.49885 0.76435 0.10619 0.0
H886 H 0.46585 0.75975 0.10123 0.0
H887 H 0.48721 0.73394 0.09735 0.0
H888 H 0.46239 0.66506 0.16309 0.0
H889 H 0.41687 0.66807 0.15474 0.0
H890 H 0.42718 0.74386 0.12746 0.0
C891 C 0.52698 0.73887 0.14787 0.0
C892 C 0.54563 0.72284 0.15741 0.0
C893 C 0.53906 0.69844 0.16542 0.0
C894 C 0.5142 0.69005 0.16373 0.0
C895 C 0.49628 0.70631 0.15394 0.0
C896 C 0.50242 0.73023 0.14624 0.0
C897 C 0.47987 0.74415 0.13644 0.0
C898 C 0.47445 0.76752 0.15236 0.0
C899 C 0.48315 0.75094 0.10865 0.0
C900 C 0.45997 0.72439 0.13993 0.0
C901 C 0.46971 0.70264 0.14997 0.0
C902 C 0.4546 0.68199 0.15517 0.0
C903 C 0.42882 0.68382 0.15031 0.0
C904 C 0.41856 0.70615 0.1404 0.0
C905 C 0.43447 0.72649 0.13493 0.0
H906 H 0.72833 0.9589 0.6221 0.0
H907 H 0.79845 0.95043 0.66203 0.0
H908 H 0.80594 0.99608 0.6583 0.0
H909 H 0.7496 0.00751 0.57883 0.0
H910 H 0.71987 0.02343 0.57945 0.0
H911 H 0.7212 0.99003 0.5839 0.0
H912 H 0.6975 0.99461 0.62601 0.0
H913 H 0.69611 0.02796 0.6217 0.0
H914 H 0.7098 0.01519 0.64975 0.0
H915 H 0.80364 0.0434 0.65297 0.0
H916 H 0.79213 0.08779 0.64591 0.0
H917 H 0.72416 0.06394 0.60853 0.0
C918 C 0.7454 0.96658 0.62986 0.0
C919 C 0.7628 0.95124 0.6424 0.0
C920 C 0.78491 0.96194 0.6523 0.0
C921 C 0.78931 0.98779 0.65024 0.0
C922 C 0.77155 0.00248 0.63797 0.0
C923 C 0.75014 0.99215 0.62779 0.0
C924 C 0.73347 0.01188 0.61633 0.0
C925 C 0.7309 0.00797 0.58794 0.0
C926 C 0.70771 0.01244 0.62923 0.0
C927 C 0.74849 0.03508 0.62218 0.0
C928 C 0.77048 0.02937 0.63454 0.0
C929 C 0.78664 0.04804 0.64301 0.0
C930 C 0.77996 0.07316 0.63894 0.0
C931 C 0.75736 0.07924 0.62655 0.0
C932 C 0.74171 0.05988 0.6178 0.0
H933 H 0.23244 0.05203 0.6379 0.0
H934 H 0.30458 0.06712 0.67192 0.0
H935 H 0.30985 0.02223 0.68087 0.0
H936 H 0.21435 -0.00115 0.67986 0.0
H937 H 0.20019 0.98168 0.65452 0.0
H938 H 0.20015 0.01542 0.65413 0.0
H939 H 0.22159 0.01495 0.61064 0.0
H940 H 0.2218 0.9813 0.61094 0.0
H941 H 0.25064 -0.00174 0.60672 0.0
H942 H 0.31006 0.97621 0.68143 0.0
H943 H 0.30508 0.93103 0.67371 0.0
H944 H 0.23276 0.94475 0.63947 0.0
C945 C 0.24899 0.04588 0.64783 0.0
C946 C 0.26805 0.06296 0.65438 0.0
C947 C 0.28976 0.05428 0.66679 0.0
C948 C 0.29287 0.02886 0.67207 0.0
C949 C 0.27407 0.01237 0.66486 0.0
C950 C 0.25249 0.02044 0.6531 0.0
C951 C 0.23636 -0.00153 0.64522 0.0
C952 C 0.21127 -0.00138 0.65928 0.0
C953 C 0.23238 -0.00176 0.61669 0.0
C954 C 0.2527 0.97686 0.65361 0.0
C955 C 0.2742 0.98539 0.66518 0.0
C956 C 0.29312 0.96923 0.67283 0.0
C957 C 0.29017 0.94364 0.66825 0.0
C958 C 0.26848 0.93449 0.65616 0.0
C959 C 0.24931 0.95127 0.64916 0.0
H960 H 0.18134 0.3131 0.32347 0.0
H961 H 0.11477 0.28657 0.28541 0.0
H962 H 0.12232 0.24404 0.30178 0.0
H963 H 0.21856 0.26314 0.31041 0.0
H964 H 0.23466 0.26214 0.34003 0.0
H965 H 0.22174 0.29114 0.32897 0.0
H966 H 0.19601 0.29556 0.36987 0.0
H967 H 0.20898 0.26652 0.38115 0.0
H968 H 0.17554 0.27051 0.37945 0.0
H969 H 0.1409 0.20345 0.31633 0.0
H970 H 0.16829 0.16846 0.32933 0.0
H971 H 0.22174 0.2217 0.35921 0.0
C972 C 0.16796 0.29848 0.3192 0.0
C973 C 0.14745 0.30309 0.30327 0.0
C974 C 0.13052 0.28345 0.29776 0.0
C975 C 0.13463 0.25924 0.307 0.0
C976 C 0.15549 0.2551 0.32207 0.0
C977 C 0.17167 0.27428 0.32846 0.0
C978 C 0.19381 0.26456 0.34317 0.0
C979 C 0.21864 0.2706 0.32984 0.0
C980 C 0.19356 0.2749 0.37 0.0
C981 C 0.18828 0.2368 0.34287 0.0
C982 C 0.16592 0.2317 0.33093 0.0
C983 C 0.15814 0.20722 0.32626 0.0
C984 C 0.17381 0.18748 0.33363 0.0
C985 C 0.19696 0.1924 0.34548 0.0
C986 C 0.2039 0.21736 0.35064 0.0
H987 H 0.28072 0.69329 0.84733 0.0
H988 H 0.33787 0.64535 0.81536 0.0
H989 H 0.30521 0.6218 0.79254 0.0
H990 H 0.23051 0.64434 0.85212 0.0
H991 H 0.20661 0.66668 0.84393 0.0
H992 H 0.23397 0.67673 0.8609 0.0
H993 H 0.24281 0.71 0.82672 0.0
H994 H 0.21574 0.69993 0.80953 0.0
H995 H 0.24596 0.70023 0.79458 0.0
H996 H 0.2675 0.60859 0.76795 0.0
H997 H 0.22728 0.60492 0.74544 0.0
H998 H 0.19469 0.6607 0.79454 0.0
C999 C 0.2863 0.67736 0.83611 0.0
C1000 C 0.31174 0.67104 0.8331 0.0
C1001 C 0.31841 0.65032 0.81803 0.0
C1002 C 0.3 0.63687 0.80502 0.0
C1003 C 0.27509 0.64419 0.80767 0.0
C1004 C 0.2682 0.66371 0.82318 0.0
C1005 C 0.24054 0.66934 0.82114 0.0
C1006 C 0.22712 0.66394 0.846 0.0
C1007 C 0.23602 0.69647 0.81247 0.0
C1008 C 0.23311 0.65071 0.80122 0.0
C1009 C 0.25323 0.6362 0.79384 0.0
C1010 C 0.25148 0.6194 0.77398 0.0
C1011 C 0.22863 0.61754 0.76124 0.0
C1012 C 0.20791 0.63236 0.76848 0.0
C1013 C 0.2101 0.64878 0.78899 0.0
H1014 H 0.84047 0.71133 0.29108 0.0
H1015 H 0.80901 0.65517 0.34061 0.0
H1016 H 0.79009 0.6886 0.36634 0.0
H1017 H 0.85263 0.75974 0.33962 0.0
H1018 H 0.84384 0.78483 0.31885 0.0
H1019 H 0.85771 0.75671 0.30641 0.0
H1020 H 0.81972 0.7511 0.27683 0.0
H1021 H 0.80566 0.77904 0.28926 0.0
H1022 H 0.78864 0.74992 0.28989 0.0
H1023 H 0.77047 0.72737 0.38337 0.0
H1024 H 0.7523 0.76906 0.39139 0.0
H1025 H 0.79687 0.80021 0.33108 0.0
C1026 C 0.83014 0.7061 0.30771 0.0
C1027 C 0.82629 0.68071 0.31398 0.0
C1028 C 0.81228 0.67454 0.33558 0.0
C1029 C 0.80151 0.69339 0.35032 0.0
C1030 C 0.80511 0.71824 0.34324 0.0
C1031 C 0.81925 0.72465 0.32257 0.0
C1032 C 0.81859 0.7526 0.31785 0.0
C1033 C 0.84475 0.76415 0.32087 0.0
C1034 C 0.80748 0.75849 0.29193 0.0
C1035 C 0.80125 0.76082 0.33866 0.0
C1036 C 0.79386 0.74073 0.35321 0.0
C1037 C 0.77645 0.74332 0.37241 0.0
C1038 C 0.76617 0.76703 0.37674 0.0
C1039 C 0.77335 0.78781 0.36195 0.0
C1040 C 0.79139 0.7847 0.34293 0.0
H1041 H 0.81218 0.3088 0.81498 0.0
H1042 H 0.78879 0.38602 0.82326 0.0
H1043 H 0.74888 0.37191 0.84181 0.0
H1044 H 0.75725 0.28789 0.79273 0.0
H1045 H 0.75732 0.25763 0.80765 0.0
H1046 H 0.78641 0.2732 0.80119 0.0
H1047 H 0.79894 0.2705 0.84793 0.0
H1048 H 0.77006 0.25437 0.85454 0.0
H1049 H 0.77798 0.28241 0.87153 0.0
H1050 H 0.70926 0.34984 0.85191 0.0
H1051 H 0.6731 0.32132 0.85476 0.0
H1052 H 0.72156 0.25819 0.83859 0.0
C1053 C 0.79917 0.32272 0.82188 0.0
C1054 C 0.80365 0.34849 0.81818 0.0
C1055 C 0.78578 0.3662 0.82635 0.0
C1056 C 0.76308 0.35835 0.83686 0.0
C1057 C 0.7586 0.33274 0.839 0.0
C1058 C 0.77626 0.31515 0.83201 0.0
C1059 C 0.76556 0.28889 0.83295 0.0
C1060 C 0.76671 0.27618 0.8071 0.0
C1061 C 0.77893 0.27312 0.85294 0.0
C1062 C 0.73887 0.29455 0.84053 0.0
C1063 C 0.73537 0.31991 0.84432 0.0
C1064 C 0.71188 0.32991 0.84952 0.0
C1065 C 0.69143 0.31357 0.85092 0.0
C1066 C 0.69458 0.28756 0.84696 0.0
C1067 C 0.71867 0.27796 0.84196 0.0
H1068 H 0.23145 0.77621 0.62995 0.0
H1069 H 0.18225 0.8325 0.66158 0.0
H1070 H 0.15278 0.79931 0.67452 0.0
H1071 H 0.18128 0.73126 0.60945 0.0
H1072 H 0.2001 0.70463 0.61807 0.0
H1073 H 0.21489 0.73294 0.60719 0.0
H1074 H 0.24154 0.73451 0.64766 0.0
H1075 H 0.22679 0.70638 0.65871 0.0
H1076 H 0.22607 0.73428 0.67764 0.0
H1077 H 0.13253 0.76039 0.68989 0.0
H1078 H 0.12251 0.71842 0.70627 0.0
H1079 H 0.18448 0.68705 0.66433 0.0
C1080 C 0.21409 0.78161 0.6389 0.0
C1081 C 0.20899 0.8069 0.64464 0.0
C1082 C 0.18639 0.81322 0.65687 0.0
C1083 C 0.16953 0.79451 0.66421 0.0
C1084 C 0.17549 0.76965 0.65897 0.0
C1085 C 0.19713 0.76317 0.64639 0.0
C1086 C 0.20052 0.73503 0.64549 0.0
C1087 C 0.19911 0.7254 0.61843 0.0
C1088 C 0.22518 0.7271 0.65814 0.0
C1089 C 0.17801 0.72672 0.66051 0.0
C1090 C 0.16361 0.74698 0.66777 0.0
C1091 C 0.14329 0.74434 0.68385 0.0
C1092 C 0.13782 0.72046 0.69313 0.0
C1093 C 0.1526 0.69956 0.68631 0.0
C1094 C 0.17254 0.70265 0.66932 0.0
H1095 H 0.67355 0.68549 0.19774 0.0
H1096 H 0.70649 0.7299 0.13826 0.0
H1097 H 0.74738 0.70994 0.14592 0.0
H1098 H 0.72428 0.69072 0.23895 0.0
H1099 H 0.72173 0.65946 0.25137 0.0
H1100 H 0.69443 0.67502 0.2393 0.0
H1101 H 0.6867 0.638 0.20891 0.0
H1102 H 0.71406 0.62234 0.22087 0.0
H1103 H 0.71121 0.62842 0.18782 0.0
H1104 H 0.78512 0.68773 0.16186 0.0
H1105 H 0.8177 0.66616 0.18651 0.0
H1106 H 0.76053 0.63665 0.2361 0.0
C1107 C 0.68929 0.69065 0.18608 0.0
C1108 C 0.68691 0.70909 0.16734 0.0
C1109 C 0.70797 0.71576 0.15272 0.0
C1110 C 0.73123 0.70445 0.15682 0.0
C1111 C 0.73308 0.68653 0.17563 0.0
C1112 C 0.71273 0.67969 0.19008 0.0
C1113 C 0.72025 0.66146 0.21042 0.0
C1114 C 0.71486 0.67233 0.23655 0.0
C1115 C 0.70728 0.63605 0.20677 0.0
C1116 C 0.74808 0.6596 0.20547 0.0
C1117 C 0.75503 0.67392 0.1851 0.0
C1118 C 0.77991 0.67621 0.17768 0.0
C1119 C 0.79827 0.66391 0.19178 0.0
C1120 C 0.7916 0.64968 0.21311 0.0
C1121 C 0.76614 0.64717 0.2197 0.0
H1122 H 0.78544 0.20179 0.6771 0.0
H1123 H 0.73068 0.24132 0.63199 0.0
H1124 H 0.74537 0.28153 0.64923 0.0
H1125 H 0.77939 0.24105 0.73151 0.0
H1126 H 0.81217 0.23965 0.73925 0.0
H1127 H 0.79762 0.21396 0.72301 0.0
H1128 H 0.83059 0.2176 0.68758 0.0
H1129 H 0.84521 0.24332 0.70371 0.0
H1130 H 0.83483 0.24716 0.67185 0.0
H1131 H 0.76609 0.31744 0.67114 0.0
H1132 H 0.79086 0.34651 0.69731 0.0
H1133 H 0.83137 0.28341 0.72858 0.0
C1134 C 0.77662 0.21892 0.67081 0.0
C1135 C 0.75702 0.2185 0.65317 0.0
C1136 C 0.74576 0.24126 0.64551 0.0
C1137 C 0.75398 0.26418 0.65516 0.0
C1138 C 0.77335 0.26398 0.67253 0.0
C1139 C 0.78446 0.24197 0.6804 0.0
C1140 C 0.8046 0.24694 0.69963 0.0
C1141 C 0.79804 0.23467 0.72484 0.0
C1142 C 0.83033 0.23824 0.69011 0.0
C1143 C 0.80316 0.27517 0.7012 0.0
C1144 C 0.78505 0.28466 0.6854 0.0
C1145 C 0.78033 0.31026 0.68361 0.0
C1146 C 0.79447 0.32659 0.69849 0.0
C1147 C 0.81297 0.31717 0.7149 0.0
C1148 C 0.81733 0.29115 0.71619 0.0
H1149 H 0.19455 0.32902 0.19748 0.0
H1150 H 0.21991 0.40132 0.22423 0.0
H1151 H 0.26032 0.39512 0.20252 0.0
H1152 H 0.24966 0.29736 0.20642 0.0
H1153 H 0.24745 0.27813 0.17881 0.0
H1154 H 0.21949 0.28986 0.19334 0.0
H1155 H 0.20601 0.31035 0.15146 0.0
H1156 H 0.23394 0.29852 0.13672 0.0
H1157 H 0.22706 0.33153 0.13576 0.0
H1158 H 0.29997 0.37822 0.18265 0.0
H1159 H 0.33451 0.35273 0.16504 0.0
H1160 H 0.2822 0.29235 0.15067 0.0
C1161 C 0.20837 0.34383 0.19825 0.0
C1162 C 0.20413 0.36566 0.21244 0.0
C1163 C 0.22275 0.38451 0.21328 0.0
C1164 C 0.24575 0.38115 0.20102 0.0
C1165 C 0.24962 0.35903 0.18774 0.0
C1166 C 0.23127 0.34085 0.18602 0.0
C1167 C 0.24054 0.31804 0.17211 0.0
C1168 C 0.23921 0.29448 0.18866 0.0
C1169 C 0.22602 0.31441 0.14755 0.0
C1170 C 0.26728 0.32576 0.16714 0.0
C1171 C 0.27219 0.34954 0.17603 0.0
C1172 C 0.29621 0.35977 0.17518 0.0
C1173 C 0.31571 0.34519 0.16521 0.0
C1174 C 0.31097 0.32068 0.15635 0.0
C1175 C 0.28636 0.31116 0.15699 0.0
H1176 H 0.32204 0.20984 0.18554 0.0
H1177 H 0.38723 0.24233 0.2213 0.0
H1178 H 0.37578 0.2216 0.26102 0.0
H1179 H 0.28152 0.21934 0.23609 0.0
H1180 H 0.26403 0.19082 0.23184 0.0
H1181 H 0.27894 0.20548 0.20544 0.0
H1182 H 0.30289 0.16441 0.19581 0.0
H1183 H 0.28789 0.14953 0.2221 0.0
H1184 H 0.32154 0.15001 0.21995 0.0
H1185 H 0.35575 0.19993 0.29738 0.0
H1186 H 0.32811 0.17926 0.32815 0.0
H1187 H 0.27522 0.16215 0.26895 0.0
C1188 C 0.33421 0.21205 0.20159 0.0
C1189 C 0.35565 0.22739 0.20039 0.0
C1190 C 0.37079 0.23049 0.22189 0.0
C1191 C 0.36448 0.21877 0.24448 0.0
C1192 C 0.3429 0.20418 0.24522 0.0
C1193 C 0.32798 0.20078 0.22436 0.0
C1194 C 0.30472 0.18589 0.23066 0.0
C1195 C 0.28091 0.20131 0.22572 0.0
C1196 C 0.30425 0.16098 0.21628 0.0
C1197 C 0.30876 0.18171 0.25837 0.0
C1198 C 0.331 0.1922 0.26635 0.0
C1199 C 0.33839 0.19146 0.29133 0.0
C1200 C 0.32256 0.17973 0.30865 0.0
C1201 C 0.29958 0.16911 0.30089 0.0
C1202 C 0.29273 0.17002 0.2754 0.0
H1203 H 0.32628 0.78662 0.80697 0.0
H1204 H 0.3906 0.74939 0.77433 0.0
H1205 H 0.38265 0.77076 0.73416 0.0
H1206 H 0.28759 0.78009 0.75517 0.0
H1207 H 0.27221 0.80994 0.7584 0.0
H1208 H 0.28487 0.79456 0.78553 0.0
H1209 H 0.31154 0.8338 0.79563 0.0
H1210 H 0.2988 0.8494 0.76859 0.0
H1211 H 0.3322 0.84637 0.7721 0.0
H1212 H 0.36552 0.79294 0.69667 0.0
H1213 H 0.34025 0.81444 0.66443 0.0
H1214 H 0.28668 0.83646 0.72138 0.0
C1215 C 0.33904 0.78349 0.79154 0.0
C1216 C 0.35916 0.76656 0.79373 0.0
C1217 C 0.37514 0.76241 0.77301 0.0
C1218 C 0.37082 0.7745 0.75016 0.0
C1219 C 0.35044 0.79063 0.74839 0.0
C1220 C 0.33486 0.79523 0.76854 0.0
C1221 C 0.31309 0.81174 0.76114 0.0
C1222 C 0.28797 0.79827 0.7653 0.0
C1223 C 0.31397 0.83682 0.7752 0.0
C1224 C 0.31855 0.8152 0.73358 0.0
C1225 C 0.34033 0.80313 0.72665 0.0
C1226 C 0.34859 0.80273 0.70191 0.0
C1227 C 0.3341 0.81491 0.68375 0.0
C1228 C 0.31158 0.82711 0.69046 0.0
C1229 C 0.30391 0.82741 0.71574 0.0
H1230 H 0.66831 0.81935 0.32447 0.0
H1231 H 0.70487 0.88366 0.29118 0.0
H1232 H 0.68238 0.87601 0.25154 0.0
H1233 H 0.67523 0.78121 0.27379 0.0
H1234 H 0.64584 0.76496 0.27693 0.0
H1235 H 0.66046 0.77846 0.304 0.0
H1236 H 0.6203 0.80406 0.31321 0.0
H1237 H 0.60548 0.79053 0.28609 0.0
H1238 H 0.60745 0.82406 0.28927 0.0
H1239 H 0.66084 0.85801 0.21409 0.0
H1240 H 0.64348 0.8301 0.18154 0.0
H1241 H 0.62183 0.77695 0.23897 0.0
C1242 C 0.67085 0.83232 0.3091 0.0
C1243 C 0.68802 0.85227 0.31089 0.0
C1244 C 0.6916 0.86838 0.29017 0.0
C1245 C 0.67883 0.86425 0.26764 0.0
C1246 C 0.66257 0.84392 0.26616 0.0
C1247 C 0.6585 0.82823 0.28637 0.0
C1248 C 0.64277 0.80586 0.27901 0.0
C1249 C 0.65693 0.78118 0.2837 0.0
C1250 C 0.6175 0.80616 0.29271 0.0
C1251 C 0.63949 0.81088 0.25133 0.0
C1252 C 0.65056 0.83319 0.24435 0.0
C1253 C 0.6517 0.84074 0.21938 0.0
C1254 C 0.6418 0.82478 0.20102 0.0
C1255 C 0.63122 0.80145 0.20776 0.0
C1256 C 0.62951 0.79483 0.23329 0.0
H1257 H 0.66455 0.18929 0.66636 0.0
H1258 H 0.67799 0.11195 0.68636 0.0
H1259 H 0.65755 0.11883 0.72718 0.0
H1260 H 0.68289 0.21288 0.72061 0.0
H1261 H 0.66077 0.23823 0.72307 0.0
H1262 H 0.66899 0.2261 0.69285 0.0
H1263 H 0.62243 0.21704 0.68304 0.0
H1264 H 0.61387 0.22973 0.71311 0.0
H1265 H 0.60412 0.19859 0.70455 0.0
H1266 H 0.64509 0.1359 0.76833 0.0
H1267 H 0.63914 0.16151 0.8063 0.0
H1268 H 0.63469 0.22837 0.76047 0.0
C1269 C 0.66174 0.17352 0.67877 0.0
C1270 C 0.67216 0.14995 0.67313 0.0
C1271 C 0.66956 0.12998 0.69027 0.0
C1272 C 0.65804 0.13375 0.7135 0.0
C1273 C 0.64932 0.15764 0.71926 0.0
C1274 C 0.65069 0.17716 0.70227 0.0
C1275 C 0.6438 0.20183 0.71447 0.0
C1276 C 0.66541 0.22085 0.71264 0.0
C1277 C 0.61961 0.21242 0.70312 0.0
C1278 C 0.6397 0.19334 0.74119 0.0
C1279 C 0.6425 0.16772 0.74346 0.0
C1280 C 0.64217 0.15587 0.7667 0.0
C1281 C 0.63898 0.17058 0.78818 0.0
C1282 C 0.6363 0.19685 0.78627 0.0
C1283 C 0.63626 0.20825 0.76243 0.0
H1284 H 0.76525 0.78822 0.66577 0.0
H1285 H 0.82866 0.83893 0.66527 0.0
H1286 H 0.8568 0.80366 0.67551 0.0
H1287 H 0.78407 0.75298 0.71753 0.0
H1288 H 0.77286 0.72348 0.70564 0.0
H1289 H 0.75827 0.75217 0.69582 0.0
H1290 H 0.7666 0.74059 0.64945 0.0
H1291 H 0.78135 0.71185 0.65917 0.0
H1292 H 0.79804 0.73355 0.63945 0.0
H1293 H 0.87718 0.76395 0.68984 0.0
H1294 H 0.88831 0.72278 0.7077 0.0
H1295 H 0.8118 0.69769 0.69775 0.0
C1296 C 0.78512 0.79185 0.66745 0.0
C1297 C 0.79484 0.81627 0.66468 0.0
C1298 C 0.82087 0.82033 0.66727 0.0
C1299 C 0.83698 0.80041 0.67298 0.0
C1300 C 0.82676 0.77657 0.67583 0.0
C1301 C 0.80143 0.7722 0.67308 0.0
C1302 C 0.79492 0.74519 0.67869 0.0
C1303 C 0.77645 0.74336 0.70073 0.0
C1304 C 0.78462 0.73202 0.65529 0.0
C1305 C 0.82046 0.73518 0.68568 0.0
C1306 C 0.8386 0.75353 0.68371 0.0
C1307 C 0.86325 0.74931 0.69104 0.0
C1308 C 0.86938 0.7259 0.70117 0.0
C1309 C 0.85097 0.70704 0.70377 0.0
C1310 C 0.82636 0.71158 0.69539 0.0
H1311 H 0.7027 0.28454 0.17383 0.0
H1312 H 0.72539 0.26247 0.09911 0.0
H1313 H 0.76611 0.28359 0.10521 0.0
H1314 H 0.7346 0.34536 0.17576 0.0
H1315 H 0.74352 0.34161 0.20807 0.0
H1316 H 0.71524 0.32726 0.19664 0.0
H1317 H 0.73081 0.28405 0.21228 0.0
H1318 H 0.75914 0.29822 0.22364 0.0
H1319 H 0.76075 0.27251 0.20187 0.0
H1320 H 0.80547 0.3047 0.12067 0.0
H1321 H 0.84058 0.32304 0.14478 0.0
H1322 H 0.79206 0.32992 0.20953 0.0
C1323 C 0.71604 0.28464 0.15858 0.0
C1324 C 0.71091 0.27215 0.13593 0.0
C1325 C 0.72901 0.27208 0.11659 0.0
C1326 C 0.75213 0.28407 0.11984 0.0
C1327 C 0.75683 0.29586 0.14261 0.0
C1328 C 0.73929 0.29619 0.16166 0.0
C1329 C 0.74965 0.3083 0.18502 0.0
C1330 C 0.73487 0.33205 0.19176 0.0
C1331 C 0.75012 0.28966 0.20699 0.0
C1332 C 0.7758 0.31457 0.17621 0.0
C1333 C 0.77958 0.30747 0.15165 0.0
C1334 C 0.80268 0.31053 0.13986 0.0
C1335 C 0.82248 0.32093 0.15366 0.0
C1336 C 0.81899 0.32792 0.17895 0.0
C1337 C 0.79526 0.32489 0.19017 0.0
H1338 H 0.15487 0.27087 0.71312 0.0
H1339 H 0.15601 0.31906 0.64776 0.0
H1340 H 0.17219 0.28398 0.6223 0.0
H1341 H 0.21105 0.24041 0.70123 0.0
H1342 H 0.20098 0.21024 0.71247 0.0
H1343 H 0.18687 0.23824 0.72466 0.0
H1344 H 0.14305 0.22165 0.71209 0.0
H1345 H 0.1571 0.19359 0.69969 0.0
H1346 H 0.13725 0.21258 0.68012 0.0
H1347 H 0.19279 0.24555 0.60541 0.0
H1348 H 0.21671 0.20661 0.59837 0.0
H1349 H 0.2006 0.18288 0.67426 0.0
C1350 C 0.15815 0.27393 0.69336 0.0
C1351 C 0.15419 0.29762 0.68235 0.0
C1352 C 0.1589 0.301 0.65652 0.0
C1353 C 0.16796 0.28118 0.64191 0.0
C1354 C 0.17192 0.25809 0.6534 0.0
C1355 C 0.16706 0.25435 0.67852 0.0
C1356 C 0.17457 0.2283 0.68676 0.0
C1357 C 0.19455 0.22938 0.70749 0.0
C1358 C 0.15162 0.21314 0.69516 0.0
C1359 C 0.18521 0.21824 0.66254 0.0
C1360 C 0.18328 0.23563 0.64346 0.0
C1361 C 0.19394 0.23157 0.62002 0.0
C1362 C 0.20748 0.20945 0.61619 0.0
C1363 C 0.21008 0.19169 0.63566 0.0
C1364 C 0.19823 0.19585 0.65886 0.0
H1365 H 0.173 0.67069 0.21554 0.0
H1366 H 0.193 0.5931 0.22859 0.0
H1367 H 0.23 0.59811 0.20126 0.0
H1368 H 0.1951 0.67421 0.14962 0.0
H1369 H 0.20639 0.70573 0.15372 0.0
H1370 H 0.17977 0.69492 0.17139 0.0
H1371 H 0.20219 0.70714 0.21263 0.0
H1372 H 0.22886 0.71784 0.19515 0.0
H1373 H 0.23277 0.69449 0.21918 0.0
H1374 H 0.26767 0.61326 0.17702 0.0
H1375 H 0.30212 0.63711 0.15718 0.0
H1376 H 0.25666 0.70432 0.15966 0.0
C1377 C 0.1848 0.65457 0.21214 0.0
C1378 C 0.18011 0.63148 0.22405 0.0
C1379 C 0.1962 0.61093 0.21949 0.0
C1380 C 0.21724 0.61359 0.20398 0.0
C1381 C 0.22172 0.63684 0.19303 0.0
C1382 C 0.20579 0.6569 0.19674 0.0
C1383 C 0.21575 0.68041 0.18454 0.0
C1384 C 0.1982 0.68934 0.16357 0.0
C1385 C 0.22016 0.70118 0.20404 0.0
C1386 C 0.24014 0.67067 0.17406 0.0
C1387 C 0.24322 0.64545 0.17892 0.0
C1388 C 0.26526 0.63289 0.17269 0.0
C1389 C 0.28472 0.64657 0.16148 0.0
C1390 C 0.28195 0.67247 0.15671 0.0
C1391 C 0.25919 0.68444 0.1627 0.0
H1392 H 0.84675 0.30354 0.29321 0.0
H1393 H 0.91024 0.27242 0.2535 0.0
H1394 H 0.90324 0.23165 0.27418 0.0
H1395 H 0.85296 0.26489 0.35213 0.0
H1396 H 0.81948 0.26179 0.35465 0.0
H1397 H 0.83287 0.28968 0.34118 0.0
H1398 H 0.8062 0.28299 0.30125 0.0
H1399 H 0.793 0.255 0.31437 0.0
H1400 H 0.80859 0.2538 0.28448 0.0
H1401 H 0.8856 0.19295 0.29412 0.0
H1402 H 0.85847 0.15958 0.31139 0.0
H1403 H 0.80571 0.21589 0.33656 0.0
C1404 C 0.85975 0.28841 0.28967 0.0
C1405 C 0.87919 0.2911 0.27205 0.0
C1406 C 0.89535 0.2707 0.26714 0.0
C1407 C 0.89156 0.24752 0.27885 0.0
C1408 C 0.87154 0.24511 0.29537 0.0
C1409 C 0.85599 0.26508 0.30092 0.0
C1410 C 0.83394 0.25688 0.31665 0.0
C1411 C 0.83488 0.26903 0.3427 0.0
C1412 C 0.80898 0.26249 0.30338 0.0
C1413 C 0.8389 0.22906 0.31814 0.0
C1414 C 0.86095 0.22266 0.30626 0.0
C1415 C 0.86852 0.19778 0.30385 0.0
C1416 C 0.85299 0.17896 0.31362 0.0
C1417 C 0.83004 0.1852 0.32525 0.0
C1418 C 0.82321 0.21058 0.32784 0.0
H1419 H 0.17931 0.32678 0.7965 0.0
H1420 H 0.20609 0.39383 0.75945 0.0
H1421 H 0.24546 0.39143 0.78352 0.0
H1422 H 0.21088 0.33733 0.85837 0.0
H1423 H 0.21795 0.3045 0.86162 0.0
H1424 H 0.19014 0.31422 0.8452 0.0
H1425 H 0.2042 0.28878 0.80636 0.0
H1426 H 0.23199 0.27909 0.82257 0.0
H1427 H 0.23452 0.29475 0.7928 0.0
H1428 H 0.28385 0.3786 0.80712 0.0
H1429 H 0.31857 0.35549 0.82716 0.0
H1430 H 0.26694 0.29641 0.84803 0.0
C1431 C 0.19314 0.3414 0.79409 0.0
C1432 C 0.18964 0.36062 0.77637 0.0
C1433 C 0.20841 0.37902 0.7731 0.0
C1434 C 0.23077 0.37788 0.78676 0.0
C1435 C 0.234 0.35824 0.80361 0.0
C1436 C 0.21565 0.34035 0.80737 0.0
C1437 C 0.22488 0.3195 0.82415 0.0
C1438 C 0.21008 0.31887 0.8488 0.0
C1439 C 0.22384 0.29405 0.81065 0.0
C1440 C 0.25155 0.32794 0.82842 0.0
C1441 C 0.25634 0.35057 0.81687 0.0
C1442 C 0.28022 0.3611 0.81663 0.0
C1443 C 0.29982 0.34785 0.82804 0.0
C1444 C 0.29539 0.32425 0.83921 0.0
C1445 C 0.27083 0.31456 0.83988 0.0
H1446 H 0.22332 0.77422 0.36216 0.0
H1447 H 0.16397 0.82729 0.34645 0.0
H1448 H 0.13488 0.79215 0.33843 0.0
H1449 H 0.20966 0.73429 0.3137 0.0
H1450 H 0.2174 0.70582 0.33005 0.0
H1451 H 0.2321 0.73474 0.33888 0.0
H1452 H 0.21672 0.72884 0.38451 0.0
H1453 H 0.20197 0.69978 0.37581 0.0
H1454 H 0.18387 0.72414 0.39053 0.0
H1455 H 0.11391 0.75168 0.3275 0.0
H1456 H 0.10314 0.70939 0.31247 0.0
H1457 H 0.17671 0.68284 0.33418 0.0
C1458 C 0.204 0.77845 0.35774 0.0
C1459 C 0.19575 0.80342 0.35519 0.0
C1460 C 0.17056 0.80825 0.34868 0.0
C1461 C 0.15392 0.78843 0.34421 0.0
C1462 C 0.16283 0.76398 0.34633 0.0
C1463 C 0.1873 0.75894 0.35295 0.0
C1464 C 0.19306 0.73125 0.35116 0.0
C1465 C 0.2143 0.72625 0.33233 0.0
C1466 C 0.19927 0.72036 0.37705 0.0
C1467 C 0.16825 0.72154 0.34166 0.0
C1468 C 0.15091 0.74063 0.33948 0.0
C1469 C 0.1272 0.73653 0.32948 0.0
C1470 C 0.12128 0.71245 0.32098 0.0
C1471 C 0.13908 0.69285 0.32227 0.0
C1472 C 0.16262 0.69738 0.33329 0.0
H1473 H 0.78071 0.6567 0.78216 0.0
H1474 H 0.84084 0.68715 0.8274 0.0
H1475 H 0.80976 0.70868 0.85407 0.0
H1476 H 0.74414 0.71029 0.78121 0.0
H1477 H 0.71448 0.69433 0.78283 0.0
H1478 H 0.74112 0.67889 0.76924 0.0
H1479 H 0.73601 0.64196 0.80029 0.0
H1480 H 0.70915 0.65717 0.81386 0.0
H1481 H 0.73507 0.64813 0.83344 0.0
H1482 H 0.77255 0.73034 0.87276 0.0
H1483 H 0.7317 0.74919 0.88337 0.0
H1484 H 0.69604 0.70412 0.82602 0.0
C1485 C 0.78733 0.66744 0.79801 0.0
C1486 C 0.81313 0.67022 0.80284 0.0
C1487 C 0.82111 0.6847 0.82352 0.0
C1488 C 0.80362 0.69698 0.83873 0.0
C1489 C 0.7783 0.69437 0.83306 0.0
C1490 C 0.77016 0.67977 0.81334 0.0
C1491 C 0.74208 0.68126 0.81021 0.0
C1492 C 0.73506 0.69183 0.78434 0.0
C1493 C 0.72986 0.6556 0.81473 0.0
C1494 C 0.73572 0.69947 0.83089 0.0
C1495 C 0.75685 0.70672 0.84394 0.0
C1496 C 0.75583 0.72453 0.86294 0.0
C1497 C 0.7326 0.73519 0.86874 0.0
C1498 C 0.71077 0.72798 0.85558 0.0
C1499 C 0.71239 0.70975 0.83657 0.0
H1500 H 0.67969 0.84366 0.70415 0.0
H1501 H 0.72735 0.90061 0.73678 0.0
H1502 H 0.70847 0.89267 0.77822 0.0
H1503 H 0.62404 0.8533 0.74629 0.0
H1504 H 0.61799 0.82014 0.74751 0.0
H1505 H 0.63151 0.83382 0.71978 0.0
H1506 H 0.66868 0.80276 0.72258 0.0
H1507 H 0.65533 0.78907 0.75021 0.0
H1508 H 0.68678 0.80122 0.751 0.0
H1509 H 0.68911 0.87418 0.81689 0.0
H1510 H 0.67218 0.84571 0.84928 0.0
H1511 H 0.63762 0.80072 0.79127 0.0
C1512 C 0.68554 0.85503 0.71986 0.0
C1513 C 0.70478 0.87288 0.71727 0.0
C1514 C 0.71248 0.88693 0.73837 0.0
C1515 C 0.70178 0.88264 0.76196 0.0
C1516 C 0.68334 0.86432 0.76408 0.0
C1517 C 0.6752 0.85082 0.74353 0.0
C1518 C 0.65752 0.83008 0.75119 0.0
C1519 C 0.6312 0.83462 0.74056 0.0
C1520 C 0.6677 0.80428 0.74329 0.0
C1521 C 0.65789 0.83327 0.77931 0.0
C1522 C 0.67242 0.85344 0.78641 0.0
C1523 C 0.67727 0.85865 0.81155 0.0
C1524 C 0.66758 0.84242 0.82983 0.0
C1525 C 0.65352 0.82112 0.82276 0.0
C1526 C 0.64805 0.81704 0.79725 0.0
H1527 H 0.71153 0.16696 0.29969 0.0
H1528 H 0.74978 0.10326 0.26703 0.0
H1529 H 0.72632 0.10932 0.22769 0.0
H1530 H 0.65047 0.15823 0.26729 0.0
H1531 H 0.6463 0.19145 0.26315 0.0
H1532 H 0.6632 0.17978 0.2899 0.0
H1533 H 0.70128 0.20732 0.27789 0.0
H1534 H 0.68456 0.21903 0.25116 0.0
H1535 H 0.71469 0.20445 0.24706 0.0
H1536 H 0.70241 0.12507 0.19063 0.0
H1537 H 0.68079 0.1501 0.15831 0.0
H1538 H 0.65855 0.20381 0.215 0.0
C1539 C 0.71445 0.1539 0.28448 0.0
C1540 C 0.73225 0.13451 0.28641 0.0
C1541 C 0.73609 0.11816 0.26593 0.0
C1542 C 0.72279 0.12139 0.24356 0.0
C1543 C 0.70573 0.14104 0.24203 0.0
C1544 C 0.70149 0.157 0.26196 0.0
C1545 C 0.68408 0.17813 0.25469 0.0
C1546 C 0.65955 0.17681 0.26965 0.0
C1547 C 0.69693 0.20373 0.25788 0.0
C1548 C 0.67981 0.17199 0.22739 0.0
C1549 C 0.69213 0.15031 0.22052 0.0
C1550 C 0.69235 0.14185 0.19585 0.0
C1551 C 0.68004 0.15618 0.17763 0.0
C1552 C 0.66789 0.17878 0.1842 0.0
C1553 C 0.66738 0.18642 0.20949 0.0
H1554 H 0.28451 0.16076 0.71744 0.0
H1555 H 0.33591 0.18906 0.66128 0.0
H1556 H 0.35858 0.21259 0.6941 0.0
H1557 H 0.27933 0.2161 0.75203 0.0
H1558 H 0.27785 0.2009 0.78211 0.0
H1559 H 0.26713 0.18474 0.7546 0.0
H1560 H 0.29748 0.1481 0.76408 0.0
H1561 H 0.3083 0.16415 0.79168 0.0
H1562 H 0.33036 0.1544 0.7681 0.0
H1563 H 0.37309 0.23576 0.73232 0.0
H1564 H 0.37903 0.25636 0.77325 0.0
H1565 H 0.31872 0.21188 0.80451 0.0
C1566 C 0.30074 0.17165 0.71207 0.0
C1567 C 0.30853 0.17312 0.68687 0.0
C1568 C 0.32973 0.18765 0.68053 0.0
C1569 C 0.34271 0.20102 0.69903 0.0
C1570 C 0.33432 0.1994 0.72369 0.0
C1571 C 0.31393 0.18494 0.73025 0.0
C1572 C 0.30796 0.18723 0.75783 0.0
C1573 C 0.28151 0.19788 0.76186 0.0
C1574 C 0.31123 0.16197 0.77121 0.0
C1575 C 0.32787 0.2057 0.76573 0.0
C1576 C 0.34295 0.21241 0.74579 0.0
C1577 C 0.36165 0.23039 0.74814 0.0
C1578 C 0.36483 0.24201 0.77142 0.0
C1579 C 0.34945 0.23552 0.79201 0.0
C1580 C 0.33101 0.21687 0.78918 0.0
H1581 H 0.26594 0.83497 0.27109 0.0
H1582 H 0.3236 0.8174 0.3255 0.0
H1583 H 0.34776 0.79551 0.29275 0.0
H1584 H 0.26699 0.77763 0.23984 0.0
H1585 H 0.26202 0.79049 0.20906 0.0
H1586 H 0.2505 0.80683 0.23613 0.0
H1587 H 0.27506 0.8465 0.22281 0.0
H1588 H 0.28669 0.83025 0.19564 0.0
H1589 H 0.30827 0.84442 0.21733 0.0
H1590 H 0.36323 0.7719 0.25559 0.0
H1591 H 0.36956 0.74885 0.21604 0.0
H1592 H 0.30268 0.78304 0.18532 0.0
C1593 C 0.28384 0.82684 0.27601 0.0
C1594 C 0.29297 0.82786 0.30077 0.0
C1595 C 0.31634 0.81686 0.30659 0.0
C1596 C 0.3302 0.80446 0.28812 0.0
C1597 C 0.32052 0.8035 0.26395 0.0
C1598 C 0.29796 0.81453 0.25779 0.0
C1599 C 0.29109 0.80963 0.23076 0.0
C1600 C 0.26618 0.79529 0.22886 0.0
C1601 C 0.29024 0.83416 0.21575 0.0
C1602 C 0.31297 0.79351 0.22286 0.0
C1603 C 0.32979 0.79032 0.24226 0.0
C1604 C 0.35047 0.77461 0.24012 0.0
C1605 C 0.35386 0.76157 0.21766 0.0
C1606 C 0.33674 0.76445 0.19767 0.0
C1607 C 0.31632 0.78096 0.20016 0.0
loop_
_geom_bond_atom_site_label_1
_geom_bond_atom_site_label_2
_geom_bond_distance
_geom_bond_site_symmetry_2
_ccdc_geom_bond_type
In0 O1 2.294 . S
In0 O2 2.326 . S
In0 O6 2.266 . S
In0 O7 2.326 . S
In0 O8 2.266 . S
In0 O9 2.326 . S
In0 O11 2.294 . S
In0 O12 2.326 . S
O1 In0 2.294 . S
O1 C10 1.240 . S
O2 In0 2.326 . S
O2 C10 1.252 . S
C3 O6 1.252 . S
C3 O7 1.260 . S
C4 O11 1.240 . S
C4 O12 1.252 . S
C5 O8 1.252 . S
C5 O9 1.260 . S
O6 In0 2.266 . S
O6 C3 1.252 . S
O7 In0 2.326 . S
O7 C3 1.260 . S
O8 In0 2.266 . S
O8 C5 1.252 . S
O9 In0 2.326 . S
O9 C5 1.260 . S
C10 O1 1.240 . S
C10 O2 1.252 . S
O11 In0 2.294 . S
O11 C4 1.240 . S
O12 In0 2.326 . S
O12 C4 1.252 . S
In13 O14 2.294 . S
In13 O15 2.326 . S
In13 O19 2.266 . S
In13 O20 2.326 . S
In13 O21 2.266 . S
In13 O22 2.326 . S
In13 O24 2.294 . S
In13 O25 2.326 . S
O14 In13 2.294 . S
O14 C23 1.240 . S
O15 In13 2.326 . S
O15 C23 1.252 . S
C16 O19 1.252 . S
C16 O20 1.260 . S
C17 O24 1.240 . S
C17 O25 1.252 . S
C18 O21 1.252 . S
C18 O22 1.260 . S
O19 In13 2.266 . S
O19 C16 1.252 . S
O20 In13 2.326 . S
O20 C16 1.260 . S
O21 In13 2.266 . S
O21 C18 1.252 . S
O22 In13 2.326 . S
O22 C18 1.260 . S
C23 O14 1.240 . S
C23 O15 1.252 . S
O24 In13 2.294 . S
O24 C17 1.240 . S
O25 In13 2.326 . S
O25 C17 1.252 . S
In26 O27 2.294 . S
In26 O28 2.326 . S
In26 O32 2.266 . S
In26 O33 2.326 . S
In26 O34 2.266 . S
In26 O35 2.326 . S
In26 O37 2.294 . S
In26 O38 2.326 . S
O27 In26 2.294 . S
O27 C36 1.240 . S
O28 In26 2.326 . S
O28 C36 1.252 . S
C29 O32 1.252 . S
C29 O33 1.260 . S
C30 O37 1.240 . S
C30 O38 1.252 . S
C31 O34 1.252 . S
C31 O35 1.260 . S
O32 In26 2.266 . S
O32 C29 1.252 . S
O33 In26 2.326 . S
O33 C29 1.260 . S
O34 In26 2.266 . S
O34 C31 1.252 . S
O35 In26 2.326 . S
O35 C31 1.260 . S
C36 O27 1.240 . S
C36 O28 1.252 . S
O37 In26 2.294 . S
O37 C30 1.240 . S
O38 In26 2.326 . S
O38 C30 1.252 . S
In39 O40 2.294 . S
In39 O41 2.326 . S
In39 O45 2.266 . S
In39 O46 2.326 . S
In39 O47 2.266 . S
In39 O48 2.326 . S
In39 O50 2.294 . S
In39 O51 2.326 . S
O40 In39 2.294 . S
O40 C49 1.240 . S
O41 In39 2.326 . S
O41 C49 1.252 . S
C42 O45 1.252 . S
C42 O46 1.260 . S
C43 O50 1.240 . S
C43 O51 1.252 . S
C44 O47 1.252 . S
C44 O48 1.260 . S
O45 In39 2.266 . S
O45 C42 1.252 . S
O46 In39 2.326 . S
O46 C42 1.260 . S
O47 In39 2.266 . S
O47 C44 1.252 . S
O48 In39 2.326 . S
O48 C44 1.260 . S
C49 O40 1.240 . S
C49 O41 1.252 . S
O50 In39 2.294 . S
O50 C43 1.240 . S
O51 In39 2.326 . S
O51 C43 1.252 . S
In52 O53 2.294 . S
In52 O54 2.326 . S
In52 O58 2.266 . S
In52 O59 2.326 . S
In52 O60 2.266 . S
In52 O61 2.326 . S
In52 O63 2.294 . S
In52 O64 2.326 . S
O53 In52 2.294 . S
O53 C62 1.240 . S
O54 In52 2.326 . S
O54 C62 1.252 . S
C55 O58 1.252 . S
C55 O59 1.260 . S
C56 O63 1.240 . S
C56 O64 1.252 . S
C57 O60 1.252 . S
C57 O61 1.260 . S
O58 In52 2.266 . S
O58 C55 1.252 . S
O59 In52 2.326 . S
O59 C55 1.260 . S
O60 In52 2.266 . S
O60 C57 1.252 . S
O61 In52 2.326 . S
O61 C57 1.260 . S
C62 O53 1.240 . S
C62 O54 1.252 . S
O63 In52 2.294 . S
O63 C56 1.240 . S
O64 In52 2.326 . S
O64 C56 1.252 . S
In65 O66 2.294 . S
In65 O67 2.326 . S
In65 O71 2.266 . S
In65 O72 2.326 . S
In65 O73 2.266 . S
In65 O74 2.326 . S
In65 O76 2.294 . S
In65 O77 2.326 . S
O66 In65 2.294 . S
O66 C75 1.240 . S
O67 In65 2.326 . S
O67 C75 1.252 . S
C68 O71 1.252 . S
C68 O72 1.260 . S
C69 O76 1.240 . S
C69 O77 1.252 . S
C70 O73 1.252 . S
C70 O74 1.260 . S
O71 In65 2.266 . S
O71 C68 1.252 . S
O72 In65 2.326 . S
O72 C68 1.260 . S
O73 In65 2.266 . S
O73 C70 1.252 . S
O74 In65 2.326 . S
O74 C70 1.260 . S
C75 O66 1.240 . S
C75 O67 1.252 . S
O76 In65 2.294 . S
O76 C69 1.240 . S
O77 In65 2.326 . S
O77 C69 1.252 . S
In78 O79 2.294 . S
In78 O80 2.326 . S
In78 O84 2.266 . S
In78 O85 2.326 . S
In78 O86 2.266 . S
In78 O87 2.326 . S
In78 O89 2.294 . S
In78 O90 2.326 . S
O79 In78 2.294 . S
O79 C88 1.240 . S
O80 In78 2.326 . S
O80 C88 1.252 . S
C81 O84 1.252 . S
C81 O85 1.260 . S
C82 O89 1.240 . S
C82 O90 1.252 . S
C83 O86 1.252 . S
C83 O87 1.260 . S
O84 In78 2.266 . S
O84 C81 1.252 . S
O85 In78 2.326 . S
O85 C81 1.260 . S
O86 In78 2.266 . S
O86 C83 1.252 . S
O87 In78 2.326 . S
O87 C83 1.260 . S
C88 O79 1.240 . S
C88 O80 1.252 . S
O89 In78 2.294 . S
O89 C82 1.240 . S
O90 In78 2.326 . S
O90 C82 1.252 . S
In91 O92 2.294 . S
In91 O93 2.326 . S
In91 O97 2.266 . S
In91 O98 2.326 . S
In91 O99 2.266 . S
In91 O100 2.326 . S
In91 O102 2.294 . S
In91 O103 2.326 . S
O92 In91 2.294 . S
O92 C101 1.240 . S
O93 In91 2.326 . S
O93 C101 1.252 . S
C94 O97 1.252 . S
C94 O98 1.260 . S
C95 O102 1.240 . S
C95 O103 1.252 . S
C96 O99 1.252 . S
C96 O100 1.260 . S
O97 In91 2.266 . S
O97 C94 1.252 . S
O98 In91 2.326 . S
O98 C94 1.260 . S
O99 In91 2.266 . S
O99 C96 1.252 . S
O100 In91 2.326 . S
O100 C96 1.260 . S
C101 O92 1.240 . S
C101 O93 1.252 . S
O102 In91 2.294 . S
O102 C95 1.240 . S
O103 In91 2.326 . S
O103 C95 1.252 . S
In104 O105 2.294 . S
In104 O106 2.326 . S
In104 O110 2.266 . S
In104 O111 2.326 . S
In104 O112 2.266 . S
In104 O113 2.326 . S
In104 O115 2.294 . S
In104 O116 2.326 . S
O105 In104 2.294 . S
O105 C114 1.240 . S
O106 In104 2.326 . S
O106 C114 1.252 . S
C107 O110 1.252 . S
C107 O111 1.260 . S
C108 O115 1.240 . S
C108 O116 1.252 . S
C109 O112 1.252 . S
C109 O113 1.260 . S
O110 In104 2.266 . S
O110 C107 1.252 . S
O111 In104 2.326 . S
O111 C107 1.260 . S
O112 In104 2.266 . S
O112 C109 1.252 . S
O113 In104 2.326 . S
O113 C109 1.260 . S
C114 O105 1.240 . S
C114 O106 1.252 . S
O115 In104 2.294 . S
O115 C108 1.240 . S
O116 In104 2.326 . S
O116 C108 1.252 . S
In117 O118 2.294 . S
In117 O119 2.326 . S
In117 O123 2.266 . S
In117 O124 2.326 . S
In117 O125 2.266 . S
In117 O126 2.326 . S
In117 O128 2.294 . S
In117 O129 2.326 . S
O118 In117 2.294 . S
O118 C127 1.240 . S
O119 In117 2.326 . S
O119 C127 1.252 . S
C120 O123 1.252 . S
C120 O124 1.260 . S
C121 O128 1.240 . S
C121 O129 1.252 . S
C122 O125 1.252 . S
C122 O126 1.260 . S
O123 In117 2.266 . S
O123 C120 1.252 . S
O124 In117 2.326 . S
O124 C120 1.260 . S
O125 In117 2.266 . S
O125 C122 1.252 . S
O126 In117 2.326 . S
O126 C122 1.260 . S
C127 O118 1.240 . S
C127 O119 1.252 . S
O128 In117 2.294 . S
O128 C121 1.240 . S
O129 In117 2.326 . S
O129 C121 1.252 . S
In130 O131 2.294 . S
In130 O132 2.326 . S
In130 O136 2.266 . S
In130 O137 2.326 . S
In130 O138 2.266 . S
In130 O139 2.326 . S
In130 O141 2.294 . S
In130 O142 2.326 . S
O131 In130 2.294 . S
O131 C140 1.240 . S
O132 In130 2.326 . S
O132 C140 1.252 . S
C133 O136 1.252 . S
C133 O137 1.260 . S
C134 O141 1.240 . S
C134 O142 1.252 . S
C135 O138 1.252 . S
C135 O139 1.260 . S
O136 In130 2.266 . S
O136 C133 1.252 . S
O137 In130 2.326 . S
O137 C133 1.260 . S
O138 In130 2.266 . S
O138 C135 1.252 . S
O139 In130 2.326 . S
O139 C135 1.260 . S
C140 O131 1.240 . S
C140 O132 1.252 . S
O141 In130 2.294 . S
O141 C134 1.240 . S
O142 In130 2.326 . S
O142 C134 1.252 . S
In143 O144 2.294 . S
In143 O145 2.326 . S
In143 O149 2.266 . S
In143 O150 2.326 . S
In143 O151 2.266 . S
In143 O152 2.326 . S
In143 O154 2.294 . S
In143 O155 2.326 . S
O144 In143 2.294 . S
O144 C153 1.240 . S
O145 In143 2.326 . S
O145 C153 1.252 . S
C146 O149 1.252 . S
C146 O150 1.260 . S
C147 O154 1.240 . S
C147 O155 1.252 . S
C148 O151 1.252 . S
C148 O152 1.260 . S
O149 In143 2.266 . S
O149 C146 1.252 . S
O150 In143 2.326 . S
O150 C146 1.260 . S
O151 In143 2.266 . S
O151 C148 1.252 . S
O152 In143 2.326 . S
O152 C148 1.260 . S
C153 O144 1.240 . S
C153 O145 1.252 . S
O154 In143 2.294 . S
O154 C147 1.240 . S
O155 In143 2.326 . S
O155 C147 1.252 . S
In156 O157 2.294 . S
In156 O158 2.326 . S
In156 O162 2.266 . S
In156 O163 2.326 . S
In156 O164 2.266 . S
In156 O165 2.326 . S
In156 O167 2.294 . S
In156 O168 2.326 . S
O157 In156 2.294 . S
O157 C166 1.240 . S
O158 In156 2.326 . S
O158 C166 1.252 . S
C159 O162 1.252 . S
C159 O163 1.260 . S
C160 O167 1.240 . S
C160 O168 1.252 . S
C161 O164 1.252 . S
C161 O165 1.260 . S
O162 In156 2.266 . S
O162 C159 1.252 . S
O163 In156 2.326 . S
O163 C159 1.260 . S
O164 In156 2.266 . S
O164 C161 1.252 . S
O165 In156 2.326 . S
O165 C161 1.260 . S
C166 O157 1.240 . S
C166 O158 1.252 . S
O167 In156 2.294 . S
O167 C160 1.240 . S
O168 In156 2.326 . S
O168 C160 1.252 . S
In169 O170 2.294 . S
In169 O171 2.326 . S
In169 O175 2.266 . S
In169 O176 2.326 . S
In169 O177 2.266 . S
In169 O178 2.326 . S
In169 O180 2.294 . S
In169 O181 2.326 . S
O170 In169 2.294 . S
O170 C179 1.240 . S
O171 In169 2.326 . S
O171 C179 1.252 . S
C172 O175 1.252 . S
C172 O176 1.260 . S
C173 O180 1.240 . S
C173 O181 1.252 . S
C174 O177 1.252 . S
C174 O178 1.260 . S
O175 In169 2.266 . S
O175 C172 1.252 . S
O176 In169 2.326 . S
O176 C172 1.260 . S
O177 In169 2.266 . S
O177 C174 1.252 . S
O178 In169 2.326 . S
O178 C174 1.260 . S
C179 O170 1.240 . S
C179 O171 1.252 . S
O180 In169 2.294 . S
O180 C173 1.240 . S
O181 In169 2.326 . S
O181 C173 1.252 . S
In182 O183 2.294 . S
In182 O184 2.326 . S
In182 O188 2.266 . S
In182 O189 2.326 . S
In182 O190 2.266 . S
In182 O191 2.326 . S
In182 O193 2.294 . S
In182 O194 2.326 . S
O183 In182 2.294 . S
O183 C192 1.240 . S
O184 In182 2.326 . S
O184 C192 1.252 . S
C185 O188 1.252 . S
C185 O189 1.260 . S
C186 O193 1.240 . S
C186 O194 1.252 . S
C187 O190 1.252 . S
C187 O191 1.260 . S
O188 In182 2.266 . S
O188 C185 1.252 . S
O189 In182 2.326 . S
O189 C185 1.260 . S
O190 In182 2.266 . S
O190 C187 1.252 . S
O191 In182 2.326 . S
O191 C187 1.260 . S
C192 O183 1.240 . S
C192 O184 1.252 . S
O193 In182 2.294 . S
O193 C186 1.240 . S
O194 In182 2.326 . S
O194 C186 1.252 . S
In195 O196 2.294 . S
In195 O197 2.326 . S
In195 O201 2.266 . S
In195 O202 2.326 . S
In195 O203 2.266 . S
In195 O204 2.326 . S
In195 O206 2.294 . S
In195 O207 2.326 . S
O196 In195 2.294 . S
O196 C205 1.240 . S
O197 In195 2.326 . S
O197 C205 1.252 . S
C198 O201 1.252 . S
C198 O202 1.260 . S
C199 O206 1.240 . S
C199 O207 1.252 . S
C200 O203 1.252 . S
C200 O204 1.260 . S
O201 In195 2.266 . S
O201 C198 1.252 . S
O202 In195 2.326 . S
O202 C198 1.260 . S
O203 In195 2.266 . S
O203 C200 1.252 . S
O204 In195 2.326 . S
O204 C200 1.260 . S
C205 O196 1.240 . S
C205 O197 1.252 . S
O206 In195 2.294 . S
O206 C199 1.240 . S
O207 In195 2.326 . S
O207 C199 1.252 . S
In208 O209 2.294 . S
In208 O210 2.326 . S
In208 O214 2.266 . S
In208 O215 2.326 . S
In208 O216 2.266 . S
In208 O217 2.326 . S
In208 O219 2.294 . S
In208 O220 2.326 . S
O209 In208 2.294 . S
O209 C218 1.240 . S
O210 In208 2.326 . S
O210 C218 1.252 . S
C211 O214 1.252 . S
C211 O215 1.260 . S
C212 O219 1.240 . S
C212 O220 1.252 . S
C213 O216 1.252 . S
C213 O217 1.260 . S
O214 In208 2.266 . S
O214 C211 1.252 . S
O215 In208 2.326 . S
O215 C211 1.260 . S
O216 In208 2.266 . S
O216 C213 1.252 . S
O217 In208 2.326 . S
O217 C213 1.260 . S
C218 O209 1.240 . S
C218 O210 1.252 . S
O219 In208 2.294 . S
O219 C212 1.240 . S
O220 In208 2.326 . S
O220 C212 1.252 . S
In221 O222 2.294 . S
In221 O223 2.326 . S
In221 O227 2.266 . S
In221 O228 2.326 . S
In221 O229 2.266 . S
In221 O230 2.326 . S
In221 O232 2.294 . S
In221 O233 2.326 . S
O222 In221 2.294 . S
O222 C231 1.240 . S
O223 In221 2.326 . S
O223 C231 1.252 . S
C224 O227 1.252 . S
C224 O228 1.260 . S
C225 O232 1.240 . S
C225 O233 1.252 . S
C226 O229 1.252 . S
C226 O230 1.260 . S
O227 In221 2.266 . S
O227 C224 1.252 . S
O228 In221 2.326 . S
O228 C224 1.260 . S
O229 In221 2.266 . S
O229 C226 1.252 . S
O230 In221 2.326 . S
O230 C226 1.260 . S
C231 O222 1.240 . S
C231 O223 1.252 . S
O232 In221 2.294 . S
O232 C225 1.240 . S
O233 In221 2.326 . S
O233 C225 1.252 . S
In234 O235 2.294 . S
In234 O236 2.326 . S
In234 O240 2.266 . S
In234 O241 2.326 . S
In234 O242 2.266 . S
In234 O243 2.326 . S
In234 O245 2.294 . S
In234 O246 2.326 . S
O235 In234 2.294 . S
O235 C244 1.240 . S
O236 In234 2.326 . S
O236 C244 1.252 . S
C237 O240 1.252 . S
C237 O241 1.260 . S
C238 O245 1.240 . S
C238 O246 1.252 . S
C239 O242 1.252 . S
C239 O243 1.260 . S
O240 In234 2.266 . S
O240 C237 1.252 . S
O241 In234 2.326 . S
O241 C237 1.260 . S
O242 In234 2.266 . S
O242 C239 1.252 . S
O243 In234 2.326 . S
O243 C239 1.260 . S
C244 O235 1.240 . S
C244 O236 1.252 . S
O245 In234 2.294 . S
O245 C238 1.240 . S
O246 In234 2.326 . S
O246 C238 1.252 . S
In247 O248 2.294 . S
In247 O249 2.326 . S
In247 O253 2.266 . S
In247 O254 2.326 . S
In247 O255 2.266 . S
In247 O256 2.326 . S
In247 O258 2.294 . S
In247 O259 2.326 . S
O248 In247 2.294 . S
O248 C257 1.240 . S
O249 In247 2.326 . S
O249 C257 1.252 . S
C250 O253 1.252 . S
C250 O254 1.260 . S
C251 O258 1.240 . S
C251 O259 1.252 . S
C252 O255 1.252 . S
C252 O256 1.260 . S
O253 In247 2.266 . S
O253 C250 1.252 . S
O254 In247 2.326 . S
O254 C250 1.260 . S
O255 In247 2.266 . S
O255 C252 1.252 . S
O256 In247 2.326 . S
O256 C252 1.260 . S
C257 O248 1.240 . S
C257 O249 1.252 . S
O258 In247 2.294 . S
O258 C251 1.240 . S
O259 In247 2.326 . S
O259 C251 1.252 . S
In260 O261 2.294 . S
In260 O262 2.326 . S
In260 O266 2.266 . S
In260 O267 2.326 . S
In260 O268 2.266 . S
In260 O269 2.326 . S
In260 O271 2.294 . S
In260 O272 2.326 . S
O261 In260 2.294 . S
O261 C270 1.240 . S
O262 In260 2.326 . S
O262 C270 1.252 . S
C263 O266 1.252 . S
C263 O267 1.260 . S
C264 O271 1.240 . S
C264 O272 1.252 . S
C265 O268 1.252 . S
C265 O269 1.260 . S
O266 In260 2.266 . S
O266 C263 1.252 . S
O267 In260 2.326 . S
O267 C263 1.260 . S
O268 In260 2.266 . S
O268 C265 1.252 . S
O269 In260 2.326 . S
O269 C265 1.260 . S
C270 O261 1.240 . S
C270 O262 1.252 . S
O271 In260 2.294 . S
O271 C264 1.240 . S
O272 In260 2.326 . S
O272 C264 1.252 . S
In273 O274 2.294 . S
In273 O275 2.326 . S
In273 O279 2.266 . S
In273 O280 2.326 . S
In273 O281 2.266 . S
In273 O282 2.326 . S
In273 O284 2.294 . S
In273 O285 2.326 . S
O274 In273 2.294 . S
O274 C283 1.240 . S
O275 In273 2.326 . S
O275 C283 1.252 . S
C276 O279 1.252 . S
C276 O280 1.260 . S
C277 O284 1.240 . S
C277 O285 1.252 . S
C278 O281 1.252 . S
C278 O282 1.260 . S
O279 In273 2.266 . S
O279 C276 1.252 . S
O280 In273 2.326 . S
O280 C276 1.260 . S
O281 In273 2.266 . S
O281 C278 1.252 . S
O282 In273 2.326 . S
O282 C278 1.260 . S
C283 O274 1.240 . S
C283 O275 1.252 . S
O284 In273 2.294 . S
O284 C277 1.240 . S
O285 In273 2.326 . S
O285 C277 1.252 . S
In286 O287 2.294 . S
In286 O288 2.326 . S
In286 O292 2.266 . S
In286 O293 2.326 . S
In286 O294 2.266 . S
In286 O295 2.326 . S
In286 O297 2.294 . S
In286 O298 2.326 . S
O287 In286 2.294 . S
O287 C296 1.240 . S
O288 In286 2.326 . S
O288 C296 1.252 . S
C289 O292 1.252 . S
C289 O293 1.260 . S
C290 O297 1.240 . S
C290 O298 1.252 . S
C291 O294 1.252 . S
C291 O295 1.260 . S
O292 In286 2.266 . S
O292 C289 1.252 . S
O293 In286 2.326 . S
O293 C289 1.260 . S
O294 In286 2.266 . S
O294 C291 1.252 . S
O295 In286 2.326 . S
O295 C291 1.260 . S
C296 O287 1.240 . S
C296 O288 1.252 . S
O297 In286 2.294 . S
O297 C290 1.240 . S
O298 In286 2.326 . S
O298 C290 1.252 . S
In299 O300 2.294 . S
In299 O301 2.326 . S
In299 O305 2.266 . S
In299 O306 2.326 . S
In299 O307 2.266 . S
In299 O308 2.326 . S
In299 O310 2.294 . S
In299 O311 2.326 . S
O300 In299 2.294 . S
O300 C309 1.240 . S
O301 In299 2.326 . S
O301 C309 1.252 . S
C302 O305 1.252 . S
C302 O306 1.260 . S
C303 O310 1.240 . S
C303 O311 1.252 . S
C304 O307 1.252 . S
C304 O308 1.260 . S
O305 In299 2.266 . S
O305 C302 1.252 . S
O306 In299 2.326 . S
O306 C302 1.260 . S
O307 In299 2.266 . S
O307 C304 1.252 . S
O308 In299 2.326 . S
O308 C304 1.260 . S
C309 O300 1.240 . S
C309 O301 1.252 . S
O310 In299 2.294 . S
O310 C303 1.240 . S
O311 In299 2.326 . S
O311 C303 1.252 . S
H312 C324 0.930 . S
H313 C326 0.930 . S
H314 C327 0.930 . S
H315 C331 0.959 . S
H316 C331 0.959 . S
H317 C331 0.961 . S
H318 C332 0.960 . S
H319 C332 0.961 . S
H320 C332 0.959 . S
H321 C335 0.929 . S
H322 C336 0.931 . S
H323 C338 0.930 . S
C324 H312 0.930 . S
C324 C325 1.399 . S
C324 C329 1.399 . S
C325 C324 1.399 . S
C325 C326 1.376 . S
C326 H313 0.930 . S
C326 C325 1.376 . S
C326 C327 1.388 . S
C327 H314 0.930 . S
C327 C326 1.388 . S
C327 C328 1.390 . S
C328 C327 1.390 . S
C328 C329 1.394 . S
C328 C334 1.465 . S
C329 C324 1.399 . S
C329 C328 1.394 . S
C329 C330 1.516 . S
C330 C329 1.516 . S
C330 C331 1.502 . S
C330 C332 1.561 . S
C330 C333 1.526 . S
C331 H315 0.959 . S
C331 H316 0.959 . S
C331 H317 0.961 . S
C331 C330 1.502 . S
C332 H318 0.960 . S
C332 H319 0.961 . S
C332 H320 0.959 . S
C332 C330 1.561 . S
C333 C330 1.526 . S
C333 C334 1.396 . S
C333 C338 1.390 . S
C334 C328 1.465 . S
C334 C333 1.396 . S
C334 C335 1.399 . S
C335 H321 0.929 . S
C335 C334 1.399 . S
C335 C336 1.385 . S
C336 H322 0.931 . S
C336 C335 1.385 . S
C336 C337 1.389 . S
C337 C336 1.389 . S
C337 C338 1.387 . S
C338 H323 0.930 . S
C338 C333 1.390 . S
C338 C337 1.387 . S
H339 C351 0.930 . S
H340 C353 0.930 . S
H341 C354 0.930 . S
H342 C358 0.962 . S
H343 C358 0.979 . S
H344 C358 0.939 1_655 S
H345 C359 0.957 1_655 S
H346 C359 0.963 . S
H347 C359 0.959 . S
H348 C362 0.929 . S
H349 C363 0.931 . S
H350 C365 0.930 . S
C351 H339 0.930 . S
C351 C352 1.399 . S
C351 C356 1.399 . S
C352 C351 1.399 . S
C352 C353 1.376 . S
C353 H340 0.930 . S
C353 C352 1.376 . S
C353 C354 1.388 . S
C354 H341 0.930 . S
C354 C353 1.388 . S
C354 C355 1.390 . S
C355 C354 1.390 . S
C355 C356 1.394 . S
C355 C361 1.465 1_655 S
C356 C351 1.399 . S
C356 C355 1.394 . S
C356 C357 1.517 1_655 S
C357 C356 1.517 1_455 S
C357 C358 1.502 . S
C357 C359 1.561 . S
C357 C360 1.525 . S
C358 H342 0.962 . S
C358 H343 0.979 . S
C358 H344 0.939 1_455 S
C358 C357 1.502 . S
C359 H345 0.957 1_455 S
C359 H346 0.963 . S
C359 H347 0.959 . S
C359 C357 1.561 . S
C360 C357 1.525 . S
C360 C361 1.396 . S
C360 C365 1.390 . S
C361 C355 1.465 1_455 S
C361 C360 1.396 . S
C361 C362 1.399 . S
C362 H348 0.929 . S
C362 C361 1.399 . S
C362 C363 1.385 . S
C363 H349 0.931 . S
C363 C362 1.385 . S
C363 C364 1.389 . S
C364 C363 1.389 . S
C364 C365 1.387 . S
C365 H350 0.930 . S
C365 C360 1.390 . S
C365 C364 1.387 . S
H366 C378 0.930 . S
H367 C380 0.930 . S
H368 C381 0.930 . S
H369 C385 0.959 . S
H370 C385 0.959 . S
H371 C385 0.961 . S
H372 C386 0.960 . S
H373 C386 0.961 . S
H374 C386 0.959 . S
H375 C389 0.929 . S
H376 C390 0.931 . S
H377 C392 0.930 . S
C378 H366 0.930 . S
C378 C379 1.399 . S
C378 C383 1.399 . S
C379 C378 1.399 . S
C379 C380 1.376 . S
C380 H367 0.930 . S
C380 C379 1.376 . S
C380 C381 1.388 . S
C381 H368 0.930 . S
C381 C380 1.388 . S
C381 C382 1.390 . S
C382 C381 1.390 . S
C382 C383 1.394 . S
C382 C388 1.465 . S
C383 C378 1.399 . S
C383 C382 1.394 . S
C383 C384 1.516 . S
C384 C383 1.516 . S
C384 C385 1.502 . S
C384 C386 1.561 . S
C384 C387 1.526 . S
C385 H369 0.959 . S
C385 H370 0.959 . S
C385 H371 0.961 . S
C385 C384 1.502 . S
C386 H372 0.960 . S
C386 H373 0.961 . S
C386 H374 0.959 . S
C386 C384 1.561 . S
C387 C384 1.526 . S
C387 C388 1.396 . S
C387 C392 1.390 . S
C388 C382 1.465 . S
C388 C387 1.396 . S
C388 C389 1.399 . S
C389 H375 0.929 . S
C389 C388 1.399 . S
C389 C390 1.385 . S
C390 H376 0.931 . S
C390 C389 1.385 . S
C390 C391 1.389 . S
C391 C390 1.389 . S
C391 C392 1.387 . S
C392 H377 0.930 . S
C392 C387 1.390 . S
C392 C391 1.387 . S
H393 C405 0.930 . S
H394 C407 0.930 . S
H395 C408 0.930 . S
H396 C412 0.962 . S
H397 C412 0.979 . S
H398 C412 0.939 1_455 S
H399 C413 0.957 1_455 S
H400 C413 0.963 . S
H401 C413 0.959 . S
H402 C416 0.929 . S
H403 C417 0.931 . S
H404 C419 0.930 . S
C405 H393 0.930 . S
C405 C406 1.399 . S
C405 C410 1.399 . S
C406 C405 1.399 . S
C406 C407 1.376 . S
C407 H394 0.930 . S
C407 C406 1.376 . S
C407 C408 1.388 . S
C408 H395 0.930 . S
C408 C407 1.388 . S
C408 C409 1.390 . S
C409 C408 1.390 . S
C409 C410 1.394 . S
C409 C415 1.465 1_455 S
C410 C405 1.399 . S
C410 C409 1.394 . S
C410 C411 1.517 1_455 S
C411 C410 1.517 1_655 S
C411 C412 1.502 . S
C411 C413 1.561 . S
C411 C414 1.525 . S
C412 H396 0.962 . S
C412 H397 0.979 . S
C412 H398 0.939 1_655 S
C412 C411 1.502 . S
C413 H399 0.957 1_655 S
C413 H400 0.963 . S
C413 H401 0.959 . S
C413 C411 1.561 . S
C414 C411 1.525 . S
C414 C415 1.396 . S
C414 C419 1.390 . S
C415 C409 1.465 1_655 S
C415 C414 1.396 . S
C415 C416 1.399 . S
C416 H402 0.929 . S
C416 C415 1.399 . S
C416 C417 1.385 . S
C417 H403 0.931 . S
C417 C416 1.385 . S
C417 C418 1.389 . S
C418 C417 1.389 . S
C418 C419 1.387 . S
C419 H404 0.930 . S
C419 C414 1.390 . S
C419 C418 1.387 . S
H420 C432 0.930 . S
H421 C434 0.930 . S
H422 C435 0.930 . S
H423 C439 0.959 . S
H424 C439 0.959 . S
H425 C439 0.961 . S
H426 C440 0.960 . S
H427 C440 0.961 . S
H428 C440 0.959 . S
H429 C443 0.929 . S
H430 C444 0.931 . S
H431 C446 0.930 . S
C432 H420 0.930 . S
C432 C433 1.399 . S
C432 C437 1.399 . S
C433 C432 1.399 . S
C433 C434 1.376 . S
C434 H421 0.930 . S
C434 C433 1.376 . S
C434 C435 1.388 . S
C435 H422 0.930 . S
C435 C434 1.388 . S
C435 C436 1.390 . S
C436 C435 1.390 . S
C436 C437 1.394 . S
C436 C442 1.465 . S
C437 C432 1.399 . S
C437 C436 1.394 . S
C437 C438 1.516 . S
C438 C437 1.516 . S
C438 C439 1.502 . S
C438 C440 1.561 . S
C438 C441 1.526 . S
C439 H423 0.959 . S
C439 H424 0.959 . S
C439 H425 0.961 . S
C439 C438 1.502 . S
C440 H426 0.960 . S
C440 H427 0.961 . S
C440 H428 0.959 . S
C440 C438 1.561 . S
C441 C438 1.526 . S
C441 C442 1.396 . S
C441 C446 1.390 . S
C442 C436 1.465 . S
C442 C441 1.396 . S
C442 C443 1.399 . S
C443 H429 0.929 . S
C443 C442 1.399 . S
C443 C444 1.385 . S
C444 H430 0.931 . S
C444 C443 1.385 . S
C444 C445 1.389 . S
C445 C444 1.389 . S
C445 C446 1.387 . S
C446 H431 0.930 . S
C446 C441 1.390 . S
C446 C445 1.387 . S
H447 C459 0.930 . S
H448 C461 0.930 . S
H449 C462 0.930 . S
H450 C466 0.962 . S
H451 C466 0.979 . S
H452 C466 0.939 1_655 S
H453 C467 0.957 1_655 S
H454 C467 0.963 . S
H455 C467 0.959 . S
H456 C470 0.929 . S
H457 C471 0.931 . S
H458 C473 0.930 . S
C459 H447 0.930 . S
C459 C460 1.399 . S
C459 C464 1.399 . S
C460 C459 1.399 . S
C460 C461 1.376 . S
C461 H448 0.930 . S
C461 C460 1.376 . S
C461 C462 1.388 . S
C462 H449 0.930 . S
C462 C461 1.388 . S
C462 C463 1.390 . S
C463 C462 1.390 . S
C463 C464 1.394 . S
C463 C469 1.465 1_655 S
C464 C459 1.399 . S
C464 C463 1.394 . S
C464 C465 1.517 1_655 S
C465 C464 1.517 1_455 S
C465 C466 1.502 . S
C465 C467 1.561 . S
C465 C468 1.525 . S
C466 H450 0.962 . S
C466 H451 0.979 . S
C466 H452 0.939 1_455 S
C466 C465 1.502 . S
C467 H453 0.957 1_455 S
C467 H454 0.963 . S
C467 H455 0.959 . S
C467 C465 1.561 . S
C468 C465 1.525 . S
C468 C469 1.396 . S
C468 C473 1.390 . S
C469 C463 1.465 1_455 S
C469 C468 1.396 . S
C469 C470 1.399 . S
C470 H456 0.929 . S
C470 C469 1.399 . S
C470 C471 1.385 . S
C471 H457 0.931 . S
C471 C470 1.385 . S
C471 C472 1.389 . S
C472 C471 1.389 . S
C472 C473 1.387 . S
C473 H458 0.930 . S
C473 C468 1.390 . S
C473 C472 1.387 . S
H474 C486 0.930 . S
H475 C488 0.930 . S
H476 C489 0.930 . S
H477 C493 0.959 . S
H478 C493 0.959 . S
H479 C493 0.961 . S
H480 C494 0.960 . S
H481 C494 0.961 . S
H482 C494 0.959 . S
H483 C497 0.929 . S
H484 C498 0.931 . S
H485 C500 0.930 . S
C486 H474 0.930 . S
C486 C487 1.399 . S
C486 C491 1.399 . S
C487 C486 1.399 . S
C487 C488 1.376 . S
C488 H475 0.930 . S
C488 C487 1.376 . S
C488 C489 1.388 . S
C489 H476 0.930 . S
C489 C488 1.388 . S
C489 C490 1.390 . S
C490 C489 1.390 . S
C490 C491 1.394 . S
C490 C496 1.465 . S
C491 C486 1.399 . S
C491 C490 1.394 . S
C491 C492 1.516 . S
C492 C491 1.516 . S
C492 C493 1.502 . S
C492 C494 1.561 . S
C492 C495 1.526 . S
C493 H477 0.959 . S
C493 H478 0.959 . S
C493 H479 0.961 . S
C493 C492 1.502 . S
C494 H480 0.960 . S
C494 H481 0.961 . S
C494 H482 0.959 . S
C494 C492 1.561 . S
C495 C492 1.526 . S
C495 C496 1.396 . S
C495 C500 1.390 . S
C496 C490 1.465 . S
C496 C495 1.396 . S
C496 C497 1.399 . S
C497 H483 0.929 . S
C497 C496 1.399 . S
C497 C498 1.385 . S
C498 H484 0.931 . S
C498 C497 1.385 . S
C498 C499 1.389 . S
C499 C498 1.389 . S
C499 C500 1.387 . S
C500 H485 0.930 . S
C500 C495 1.390 . S
C500 C499 1.387 . S
H501 C513 0.930 . S
H502 C515 0.930 . S
H503 C516 0.930 . S
H504 C520 0.962 . S
H505 C520 0.979 . S
H506 C520 0.939 1_655 S
H507 C521 0.957 1_655 S
H508 C521 0.963 . S
H509 C521 0.959 . S
H510 C524 0.929 . S
H511 C525 0.931 . S
H512 C527 0.930 . S
C513 H501 0.930 . S
C513 C514 1.399 . S
C513 C518 1.399 . S
C514 C513 1.399 . S
C514 C515 1.376 . S
C515 H502 0.930 . S
C515 C514 1.376 . S
C515 C516 1.388 . S
C516 H503 0.930 . S
C516 C515 1.388 . S
C516 C517 1.390 . S
C517 C516 1.390 . S
C517 C518 1.394 . S
C517 C523 1.465 1_655 S
C518 C513 1.399 . S
C518 C517 1.394 . S
C518 C519 1.517 1_655 S
C519 C518 1.517 1_455 S
C519 C520 1.502 . S
C519 C521 1.561 . S
C519 C522 1.525 . S
C520 H504 0.962 . S
C520 H505 0.979 . S
C520 H506 0.939 1_455 S
C520 C519 1.502 . S
C521 H507 0.957 1_455 S
C521 H508 0.963 . S
C521 H509 0.959 . S
C521 C519 1.561 . S
C522 C519 1.525 . S
C522 C523 1.396 . S
C522 C527 1.390 . S
C523 C517 1.465 1_455 S
C523 C522 1.396 . S
C523 C524 1.399 . S
C524 H510 0.929 . S
C524 C523 1.399 . S
C524 C525 1.385 . S
C525 H511 0.931 . S
C525 C524 1.385 . S
C525 C526 1.389 . S
C526 C525 1.389 . S
C526 C527 1.387 . S
C527 H512 0.930 . S
C527 C522 1.390 . S
C527 C526 1.387 . S
H528 C540 0.930 . S
H529 C542 0.930 . S
H530 C543 0.930 . S
H531 C547 0.959 . S
H532 C547 0.959 . S
H533 C547 0.961 . S
H534 C548 0.960 . S
H535 C548 0.961 . S
H536 C548 0.959 . S
H537 C551 0.929 . S
H538 C552 0.931 . S
H539 C554 0.930 . S
C540 H528 0.930 . S
C540 C541 1.399 . S
C540 C545 1.399 . S
C541 C540 1.399 . S
C541 C542 1.376 . S
C542 H529 0.930 . S
C542 C541 1.376 . S
C542 C543 1.388 . S
C543 H530 0.930 . S
C543 C542 1.388 . S
C543 C544 1.390 . S
C544 C543 1.390 . S
C544 C545 1.394 . S
C544 C550 1.465 . S
C545 C540 1.399 . S
C545 C544 1.394 . S
C545 C546 1.516 . S
C546 C545 1.516 . S
C546 C547 1.502 . S
C546 C548 1.561 . S
C546 C549 1.526 . S
C547 H531 0.959 . S
C547 H532 0.959 . S
C547 H533 0.961 . S
C547 C546 1.502 . S
C548 H534 0.960 . S
C548 H535 0.961 . S
C548 H536 0.959 . S
C548 C546 1.561 . S
C549 C546 1.526 . S
C549 C550 1.396 . S
C549 C554 1.390 . S
C550 C544 1.465 . S
C550 C549 1.396 . S
C550 C551 1.399 . S
C551 H537 0.929 . S
C551 C550 1.399 . S
C551 C552 1.385 . S
C552 H538 0.931 . S
C552 C551 1.385 . S
C552 C553 1.389 . S
C553 C552 1.389 . S
C553 C554 1.387 . S
C554 H539 0.930 . S
C554 C549 1.390 . S
C554 C553 1.387 . S
H555 C567 0.930 . S
H556 C569 0.930 . S
H557 C570 0.930 . S
H558 C574 0.962 . S
H559 C574 0.979 . S
H560 C574 0.939 1_556 S
H561 C575 0.957 1_556 S
H562 C575 0.963 . S
H563 C575 0.959 . S
H564 C578 0.929 . S
H565 C579 0.931 . S
H566 C581 0.930 . S
C567 H555 0.930 . S
C567 C568 1.399 . S
C567 C572 1.399 . S
C568 C567 1.399 . S
C568 C569 1.376 . S
C569 H556 0.930 . S
C569 C568 1.376 . S
C569 C570 1.388 . S
C570 H557 0.930 . S
C570 C569 1.388 . S
C570 C571 1.390 . S
C571 C570 1.390 . S
C571 C572 1.394 . S
C571 C577 1.465 1_556 S
C572 C567 1.399 . S
C572 C571 1.394 . S
C572 C573 1.517 1_556 S
C573 C572 1.517 1_554 S
C573 C574 1.502 . S
C573 C575 1.561 . S
C573 C576 1.525 . S
C574 H558 0.962 . S
C574 H559 0.979 . S
C574 H560 0.939 1_554 S
C574 C573 1.502 . S
C575 H561 0.957 1_554 S
C575 H562 0.963 . S
C575 H563 0.959 . S
C575 C573 1.561 . S
C576 C573 1.525 . S
C576 C577 1.396 . S
C576 C581 1.390 . S
C577 C571 1.465 1_554 S
C577 C576 1.396 . S
C577 C578 1.399 . S
C578 H564 0.929 . S
C578 C577 1.399 . S
C578 C579 1.385 . S
C579 H565 0.931 . S
C579 C578 1.385 . S
C579 C580 1.389 . S
C580 C579 1.389 . S
C580 C581 1.387 . S
C581 H566 0.930 . S
C581 C576 1.390 . S
C581 C580 1.387 . S
H582 C594 0.930 . S
H583 C596 0.930 . S
H584 C597 0.930 . S
H585 C601 0.959 . S
H586 C601 0.959 . S
H587 C601 0.961 . S
H588 C602 0.960 . S
H589 C602 0.961 . S
H590 C602 0.959 . S
H591 C605 0.929 . S
H592 C606 0.931 . S
H593 C608 0.930 . S
C594 H582 0.930 . S
C594 C595 1.399 . S
C594 C599 1.399 . S
C595 C594 1.399 . S
C595 C596 1.376 . S
C596 H583 0.930 . S
C596 C595 1.376 . S
C596 C597 1.388 . S
C597 H584 0.930 . S
C597 C596 1.388 . S
C597 C598 1.390 . S
C598 C597 1.390 . S
C598 C599 1.394 . S
C598 C604 1.465 . S
C599 C594 1.399 . S
C599 C598 1.394 . S
C599 C600 1.516 . S
C600 C599 1.516 . S
C600 C601 1.502 . S
C600 C602 1.561 . S
C600 C603 1.526 . S
C601 H585 0.959 . S
C601 H586 0.959 . S
C601 H587 0.961 . S
C601 C600 1.502 . S
C602 H588 0.960 . S
C602 H589 0.961 . S
C602 H590 0.959 . S
C602 C600 1.561 . S
C603 C600 1.526 . S
C603 C604 1.396 . S
C603 C608 1.390 . S
C604 C598 1.465 . S
C604 C603 1.396 . S
C604 C605 1.399 . S
C605 H591 0.929 . S
C605 C604 1.399 . S
C605 C606 1.385 . S
C606 H592 0.931 . S
C606 C605 1.385 . S
C606 C607 1.389 . S
C607 C606 1.389 . S
C607 C608 1.387 . S
C608 H593 0.930 . S
C608 C603 1.390 . S
C608 C607 1.387 . S
H609 C621 0.930 . S
H610 C623 0.930 . S
H611 C624 0.930 . S
H612 C628 0.962 . S
H613 C628 0.979 . S
H614 C628 0.939 1_554 S
H615 C629 0.957 1_554 S
H616 C629 0.963 . S
H617 C629 0.959 . S
H618 C632 0.929 . S
H619 C633 0.931 . S
H620 C635 0.930 . S
C621 H609 0.930 . S
C621 C622 1.399 . S
C621 C626 1.399 . S
C622 C621 1.399 . S
C622 C623 1.376 . S
C623 H610 0.930 . S
C623 C622 1.376 . S
C623 C624 1.388 . S
C624 H611 0.930 . S
C624 C623 1.388 . S
C624 C625 1.390 . S
C625 C624 1.390 . S
C625 C626 1.394 . S
C625 C631 1.465 1_554 S
C626 C621 1.399 . S
C626 C625 1.394 . S
C626 C627 1.517 1_554 S
C627 C626 1.517 1_556 S
C627 C628 1.502 . S
C627 C629 1.561 . S
C627 C630 1.525 . S
C628 H612 0.962 . S
C628 H613 0.979 . S
C628 H614 0.939 1_556 S
C628 C627 1.502 . S
C629 H615 0.957 1_556 S
C629 H616 0.963 . S
C629 H617 0.959 . S
C629 C627 1.561 . S
C630 C627 1.525 . S
C630 C631 1.396 . S
C630 C635 1.390 . S
C631 C625 1.465 1_556 S
C631 C630 1.396 . S
C631 C632 1.399 . S
C632 H618 0.929 . S
C632 C631 1.399 . S
C632 C633 1.385 . S
C633 H619 0.931 . S
C633 C632 1.385 . S
C633 C634 1.389 . S
C634 C633 1.389 . S
C634 C635 1.387 . S
C635 H620 0.930 . S
C635 C630 1.390 . S
C635 C634 1.387 . S
H636 C648 0.930 . S
H637 C650 0.930 . S
H638 C651 0.930 . S
H639 C655 0.959 . S
H640 C655 0.959 . S
H641 C655 0.961 . S
H642 C656 0.960 . S
H643 C656 0.961 . S
H644 C656 0.959 . S
H645 C659 0.929 . S
H646 C660 0.931 . S
H647 C662 0.930 . S
C648 H636 0.930 . S
C648 C649 1.399 . S
C648 C653 1.399 . S
C649 C648 1.399 . S
C649 C650 1.376 . S
C650 H637 0.930 . S
C650 C649 1.376 . S
C650 C651 1.388 . S
C651 H638 0.930 . S
C651 C650 1.388 . S
C651 C652 1.390 . S
C652 C651 1.390 . S
C652 C653 1.394 . S
C652 C658 1.465 . S
C653 C648 1.399 . S
C653 C652 1.394 . S
C653 C654 1.516 . S
C654 C653 1.516 . S
C654 C655 1.502 . S
C654 C656 1.561 . S
C654 C657 1.526 . S
C655 H639 0.959 . S
C655 H640 0.959 . S
C655 H641 0.961 . S
C655 C654 1.502 . S
C656 H642 0.960 . S
C656 H643 0.961 . S
C656 H644 0.959 . S
C656 C654 1.561 . S
C657 C654 1.526 . S
C657 C658 1.396 . S
C657 C662 1.390 . S
C658 C652 1.465 . S
C658 C657 1.396 . S
C658 C659 1.399 . S
C659 H645 0.929 . S
C659 C658 1.399 . S
C659 C660 1.385 . S
C660 H646 0.931 . S
C660 C659 1.385 . S
C660 C661 1.389 . S
C661 C660 1.389 . S
C661 C662 1.387 . S
C662 H647 0.930 . S
C662 C657 1.390 . S
C662 C661 1.387 . S
H663 C675 0.930 . S
H664 C677 0.930 . S
H665 C678 0.930 . S
H666 C682 0.962 . S
H667 C682 0.979 . S
H668 C682 0.939 1_554 S
H669 C683 0.957 1_554 S
H670 C683 0.963 . S
H671 C683 0.959 . S
H672 C686 0.929 . S
H673 C687 0.931 . S
H674 C689 0.930 . S
C675 H663 0.930 . S
C675 C676 1.399 . S
C675 C680 1.399 . S
C676 C675 1.399 . S
C676 C677 1.376 . S
C677 H664 0.930 . S
C677 C676 1.376 . S
C677 C678 1.388 . S
C678 H665 0.930 . S
C678 C677 1.388 . S
C678 C679 1.390 . S
C679 C678 1.390 . S
C679 C680 1.394 . S
C679 C685 1.465 1_554 S
C680 C675 1.399 . S
C680 C679 1.394 . S
C680 C681 1.517 1_554 S
C681 C680 1.517 1_556 S
C681 C682 1.502 . S
C681 C683 1.561 . S
C681 C684 1.525 . S
C682 H666 0.962 . S
C682 H667 0.979 . S
C682 H668 0.939 1_556 S
C682 C681 1.502 . S
C683 H669 0.957 1_556 S
C683 H670 0.963 . S
C683 H671 0.959 . S
C683 C681 1.561 . S
C684 C681 1.525 . S
C684 C685 1.396 . S
C684 C689 1.390 . S
C685 C679 1.465 1_556 S
C685 C684 1.396 . S
C685 C686 1.399 . S
C686 H672 0.929 . S
C686 C685 1.399 . S
C686 C687 1.385 . S
C687 H673 0.931 . S
C687 C686 1.385 . S
C687 C688 1.389 . S
C688 C687 1.389 . S
C688 C689 1.387 . S
C689 H674 0.930 . S
C689 C684 1.390 . S
C689 C688 1.387 . S
H690 C702 0.930 . S
H691 C704 0.930 . S
H692 C705 0.930 . S
H693 C709 0.959 . S
H694 C709 0.959 . S
H695 C709 0.961 . S
H696 C710 0.960 . S
H697 C710 0.961 . S
H698 C710 0.959 . S
H699 C713 0.929 . S
H700 C714 0.931 . S
H701 C716 0.930 . S
C702 H690 0.930 . S
C702 C703 1.399 . S
C702 C707 1.399 . S
C703 C702 1.399 . S
C703 C704 1.376 . S
C704 H691 0.930 . S
C704 C703 1.376 . S
C704 C705 1.388 . S
C705 H692 0.930 . S
C705 C704 1.388 . S
C705 C706 1.390 . S
C706 C705 1.390 . S
C706 C707 1.394 . S
C706 C712 1.465 . S
C707 C702 1.399 . S
C707 C706 1.394 . S
C707 C708 1.516 . S
C708 C707 1.516 . S
C708 C709 1.502 . S
C708 C710 1.561 . S
C708 C711 1.526 . S
C709 H693 0.959 . S
C709 H694 0.959 . S
C709 H695 0.961 . S
C709 C708 1.502 . S
C710 H696 0.960 . S
C710 H697 0.961 . S
C710 H698 0.959 . S
C710 C708 1.561 . S
C711 C708 1.526 . S
C711 C712 1.396 . S
C711 C716 1.390 . S
C712 C706 1.465 . S
C712 C711 1.396 . S
C712 C713 1.399 . S
C713 H699 0.929 . S
C713 C712 1.399 . S
C713 C714 1.385 . S
C714 H700 0.931 . S
C714 C713 1.385 . S
C714 C715 1.389 . S
C715 C714 1.389 . S
C715 C716 1.387 . S
C716 H701 0.930 . S
C716 C711 1.390 . S
C716 C715 1.387 . S
H717 C729 0.930 . S
H718 C731 0.930 . S
H719 C732 0.930 . S
H720 C736 0.962 . S
H721 C736 0.979 . S
H722 C736 0.939 1_554 S
H723 C737 0.957 1_554 S
H724 C737 0.963 . S
H725 C737 0.959 . S
H726 C740 0.929 . S
H727 C741 0.931 . S
H728 C743 0.930 . S
C729 H717 0.930 . S
C729 C730 1.399 . S
C729 C734 1.399 . S
C730 C729 1.399 . S
C730 C731 1.376 . S
C731 H718 0.930 . S
C731 C730 1.376 . S
C731 C732 1.388 . S
C732 H719 0.930 . S
C732 C731 1.388 . S
C732 C733 1.390 . S
C733 C732 1.390 . S
C733 C734 1.394 . S
C733 C739 1.465 1_554 S
C734 C729 1.399 . S
C734 C733 1.394 . S
C734 C735 1.517 1_554 S
C735 C734 1.517 1_556 S
C735 C736 1.502 . S
C735 C737 1.561 . S
C735 C738 1.525 . S
C736 H720 0.962 . S
C736 H721 0.979 . S
C736 H722 0.939 1_556 S
C736 C735 1.502 . S
C737 H723 0.957 1_556 S
C737 H724 0.963 . S
C737 H725 0.959 . S
C737 C735 1.561 . S
C738 C735 1.525 . S
C738 C739 1.396 . S
C738 C743 1.390 . S
C739 C733 1.465 1_556 S
C739 C738 1.396 . S
C739 C740 1.399 . S
C740 H726 0.929 . S
C740 C739 1.399 . S
C740 C741 1.385 . S
C741 H727 0.931 . S
C741 C740 1.385 . S
C741 C742 1.389 . S
C742 C741 1.389 . S
C742 C743 1.387 . S
C743 H728 0.930 . S
C743 C738 1.390 . S
C743 C742 1.387 . S
H744 C756 0.930 . S
H745 C758 0.930 . S
H746 C759 0.930 . S
H747 C763 0.959 . S
H748 C763 0.959 . S
H749 C763 0.961 . S
H750 C764 0.960 . S
H751 C764 0.961 . S
H752 C764 0.959 . S
H753 C767 0.929 . S
H754 C768 0.931 . S
H755 C770 0.930 . S
C756 H744 0.930 . S
C756 C757 1.399 . S
C756 C761 1.399 . S
C757 C756 1.399 . S
C757 C758 1.376 . S
C758 H745 0.930 . S
C758 C757 1.376 . S
C758 C759 1.388 . S
C759 H746 0.930 . S
C759 C758 1.388 . S
C759 C760 1.390 . S
C760 C759 1.390 . S
C760 C761 1.394 . S
C760 C766 1.465 . S
C761 C756 1.399 . S
C761 C760 1.394 . S
C761 C762 1.516 . S
C762 C761 1.516 . S
C762 C763 1.502 . S
C762 C764 1.561 . S
C762 C765 1.526 . S
C763 H747 0.959 . S
C763 H748 0.959 . S
C763 H749 0.961 . S
C763 C762 1.502 . S
C764 H750 0.960 . S
C764 H751 0.961 . S
C764 H752 0.959 . S
C764 C762 1.561 . S
C765 C762 1.526 . S
C765 C766 1.396 . S
C765 C770 1.390 . S
C766 C760 1.465 . S
C766 C765 1.396 . S
C766 C767 1.399 . S
C767 H753 0.929 . S
C767 C766 1.399 . S
C767 C768 1.385 . S
C768 H754 0.931 . S
C768 C767 1.385 . S
C768 C769 1.389 . S
C769 C768 1.389 . S
C769 C770 1.387 . S
C770 H755 0.930 . S
C770 C765 1.390 . S
C770 C769 1.387 . S
H771 C783 0.930 . S
H772 C785 0.930 . S
H773 C786 0.930 . S
H774 C790 0.959 . S
H775 C790 0.959 . S
H776 C790 0.961 . S
H777 C791 0.960 . S
H778 C791 0.961 . S
H779 C791 0.959 . S
H780 C794 0.929 . S
H781 C795 0.931 . S
H782 C797 0.930 . S
C783 H771 0.930 . S
C783 C784 1.399 . S
C783 C788 1.399 . S
C784 C783 1.399 . S
C784 C785 1.376 . S
C785 H772 0.930 . S
C785 C784 1.376 . S
C785 C786 1.388 . S
C786 H773 0.930 . S
C786 C785 1.388 . S
C786 C787 1.390 . S
C787 C786 1.390 . S
C787 C788 1.394 . S
C787 C793 1.465 . S
C788 C783 1.399 . S
C788 C787 1.394 . S
C788 C789 1.516 . S
C789 C788 1.516 . S
C789 C790 1.502 . S
C789 C791 1.561 . S
C789 C792 1.526 . S
C790 H774 0.959 . S
C790 H775 0.959 . S
C790 H776 0.961 . S
C790 C789 1.502 . S
C791 H777 0.960 . S
C791 H778 0.961 . S
C791 H779 0.959 . S
C791 C789 1.561 . S
C792 C789 1.526 . S
C792 C793 1.396 . S
C792 C797 1.390 . S
C793 C787 1.465 . S
C793 C792 1.396 . S
C793 C794 1.399 . S
C794 H780 0.929 . S
C794 C793 1.399 . S
C794 C795 1.385 . S
C795 H781 0.931 . S
C795 C794 1.385 . S
C795 C796 1.389 . S
C796 C795 1.389 . S
C796 C797 1.387 . S
C797 H782 0.930 . S
C797 C792 1.390 . S
C797 C796 1.387 . S
H798 C810 0.930 . S
H799 C812 0.930 . S
H800 C813 0.930 . S
H801 C817 0.962 . S
H802 C817 0.979 . S
H803 C817 0.939 1_565 S
H804 C818 0.957 1_565 S
H805 C818 0.963 . S
H806 C818 0.959 . S
H807 C821 0.929 . S
H808 C822 0.931 . S
H809 C824 0.930 . S
C810 H798 0.930 . S
C810 C811 1.399 . S
C810 C815 1.399 . S
C811 C810 1.399 . S
C811 C812 1.376 . S
C812 H799 0.930 . S
C812 C811 1.376 . S
C812 C813 1.388 . S
C813 H800 0.930 . S
C813 C812 1.388 . S
C813 C814 1.390 . S
C814 C813 1.390 . S
C814 C815 1.394 . S
C814 C820 1.465 1_565 S
C815 C810 1.399 . S
C815 C814 1.394 . S
C815 C816 1.517 1_565 S
C816 C815 1.517 1_545 S
C816 C817 1.502 . S
C816 C818 1.561 . S
C816 C819 1.525 . S
C817 H801 0.962 . S
C817 H802 0.979 . S
C817 H803 0.939 1_545 S
C817 C816 1.502 . S
C818 H804 0.957 1_545 S
C818 H805 0.963 . S
C818 H806 0.959 . S
C818 C816 1.561 . S
C819 C816 1.525 . S
C819 C820 1.396 . S
C819 C824 1.390 . S
C820 C814 1.465 1_545 S
C820 C819 1.396 . S
C820 C821 1.399 . S
C821 H807 0.929 . S
C821 C820 1.399 . S
C821 C822 1.385 . S
C822 H808 0.931 . S
C822 C821 1.385 . S
C822 C823 1.389 . S
C823 C822 1.389 . S
C823 C824 1.387 . S
C824 H809 0.930 . S
C824 C819 1.390 . S
C824 C823 1.387 . S
H825 C837 0.930 . S
H826 C839 0.930 . S
H827 C840 0.930 . S
H828 C844 0.959 . S
H829 C844 0.959 . S
H830 C844 0.961 . S
H831 C845 0.960 . S
H832 C845 0.961 . S
H833 C845 0.959 . S
H834 C848 0.929 . S
H835 C849 0.931 . S
H836 C851 0.930 . S
C837 H825 0.930 . S
C837 C838 1.399 . S
C837 C842 1.399 . S
C838 C837 1.399 . S
C838 C839 1.376 . S
C839 H826 0.930 . S
C839 C838 1.376 . S
C839 C840 1.388 . S
C840 H827 0.930 . S
C840 C839 1.388 . S
C840 C841 1.390 . S
C841 C840 1.390 . S
C841 C842 1.394 . S
C841 C847 1.465 . S
C842 C837 1.399 . S
C842 C841 1.394 . S
C842 C843 1.516 . S
C843 C842 1.516 . S
C843 C844 1.502 . S
C843 C845 1.561 . S
C843 C846 1.526 . S
C844 H828 0.959 . S
C844 H829 0.959 . S
C844 H830 0.961 . S
C844 C843 1.502 . S
C845 H831 0.960 . S
C845 H832 0.961 . S
C845 H833 0.959 . S
C845 C843 1.561 . S
C846 C843 1.526 . S
C846 C847 1.396 . S
C846 C851 1.390 . S
C847 C841 1.465 . S
C847 C846 1.396 . S
C847 C848 1.399 . S
C848 H834 0.929 . S
C848 C847 1.399 . S
C848 C849 1.385 . S
C849 H835 0.931 . S
C849 C848 1.385 . S
C849 C850 1.389 . S
C850 C849 1.389 . S
C850 C851 1.387 . S
C851 H836 0.930 . S
C851 C846 1.390 . S
C851 C850 1.387 . S
H852 C864 0.930 . S
H853 C866 0.930 . S
H854 C867 0.930 . S
H855 C871 0.962 . S
H856 C871 0.979 . S
H857 C871 0.939 1_565 S
H858 C872 0.957 1_565 S
H859 C872 0.963 . S
H860 C872 0.959 . S
H861 C875 0.929 . S
H862 C876 0.931 . S
H863 C878 0.930 . S
C864 H852 0.930 . S
C864 C865 1.399 . S
C864 C869 1.399 . S
C865 C864 1.399 . S
C865 C866 1.376 . S
C866 H853 0.930 . S
C866 C865 1.376 . S
C866 C867 1.388 . S
C867 H854 0.930 . S
C867 C866 1.388 . S
C867 C868 1.390 . S
C868 C867 1.390 . S
C868 C869 1.394 . S
C868 C874 1.465 1_565 S
C869 C864 1.399 . S
C869 C868 1.394 . S
C869 C870 1.517 1_565 S
C870 C869 1.517 1_545 S
C870 C871 1.502 . S
C870 C872 1.561 . S
C870 C873 1.525 . S
C871 H855 0.962 . S
C871 H856 0.979 . S
C871 H857 0.939 1_545 S
C871 C870 1.502 . S
C872 H858 0.957 1_545 S
C872 H859 0.963 . S
C872 H860 0.959 . S
C872 C870 1.561 . S
C873 C870 1.525 . S
C873 C874 1.396 . S
C873 C878 1.390 . S
C874 C868 1.465 1_545 S
C874 C873 1.396 . S
C874 C875 1.399 . S
C875 H861 0.929 . S
C875 C874 1.399 . S
C875 C876 1.385 . S
C876 H862 0.931 . S
C876 C875 1.385 . S
C876 C877 1.389 . S
C877 C876 1.389 . S
C877 C878 1.387 . S
C878 H863 0.930 . S
C878 C873 1.390 . S
C878 C877 1.387 . S
H879 C891 0.930 . S
H880 C893 0.930 . S
H881 C894 0.930 . S
H882 C898 0.959 . S
H883 C898 0.959 . S
H884 C898 0.961 . S
H885 C899 0.960 . S
H886 C899 0.961 . S
H887 C899 0.959 . S
H888 C902 0.929 . S
H889 C903 0.931 . S
H890 C905 0.930 . S
C891 H879 0.930 . S
C891 C892 1.399 . S
C891 C896 1.399 . S
C892 C891 1.399 . S
C892 C893 1.376 . S
C893 H880 0.930 . S
C893 C892 1.376 . S
C893 C894 1.388 . S
C894 H881 0.930 . S
C894 C893 1.388 . S
C894 C895 1.390 . S
C895 C894 1.390 . S
C895 C896 1.394 . S
C895 C901 1.465 . S
C896 C891 1.399 . S
C896 C895 1.394 . S
C896 C897 1.516 . S
C897 C896 1.516 . S
C897 C898 1.502 . S
C897 C899 1.561 . S
C897 C900 1.526 . S
C898 H882 0.959 . S
C898 H883 0.959 . S
C898 H884 0.961 . S
C898 C897 1.502 . S
C899 H885 0.960 . S
C899 H886 0.961 . S
C899 H887 0.959 . S
C899 C897 1.561 . S
C900 C897 1.526 . S
C900 C901 1.396 . S
C900 C905 1.390 . S
C901 C895 1.465 . S
C901 C900 1.396 . S
C901 C902 1.399 . S
C902 H888 0.929 . S
C902 C901 1.399 . S
C902 C903 1.385 . S
C903 H889 0.931 . S
C903 C902 1.385 . S
C903 C904 1.389 . S
C904 C903 1.389 . S
C904 C905 1.387 . S
C905 H890 0.930 . S
C905 C900 1.390 . S
C905 C904 1.387 . S
H906 C918 0.930 . S
H907 C920 0.930 . S
H908 C921 0.930 . S
H909 C925 0.962 . S
H910 C925 0.979 . S
H911 C925 0.939 1_565 S
H912 C926 0.957 1_565 S
H913 C926 0.963 . S
H914 C926 0.959 . S
H915 C929 0.929 . S
H916 C930 0.931 . S
H917 C932 0.930 . S
C918 H906 0.930 . S
C918 C919 1.399 . S
C918 C923 1.399 . S
C919 C918 1.399 . S
C919 C920 1.376 . S
C920 H907 0.930 . S
C920 C919 1.376 . S
C920 C921 1.388 . S
C921 H908 0.930 . S
C921 C920 1.388 . S
C921 C922 1.390 . S
C922 C921 1.390 . S
C922 C923 1.394 . S
C922 C928 1.465 1_565 S
C923 C918 1.399 . S
C923 C922 1.394 . S
C923 C924 1.517 1_565 S
C924 C923 1.517 1_545 S
C924 C925 1.502 . S
C924 C926 1.561 . S
C924 C927 1.525 . S
C925 H909 0.962 . S
C925 H910 0.979 . S
C925 H911 0.939 1_545 S
C925 C924 1.502 . S
C926 H912 0.957 1_545 S
C926 H913 0.963 . S
C926 H914 0.959 . S
C926 C924 1.561 . S
C927 C924 1.525 . S
C927 C928 1.396 . S
C927 C932 1.390 . S
C928 C922 1.465 1_545 S
C928 C927 1.396 . S
C928 C929 1.399 . S
C929 H915 0.929 . S
C929 C928 1.399 . S
C929 C930 1.385 . S
C930 H916 0.931 . S
C930 C929 1.385 . S
C930 C931 1.389 . S
C931 C930 1.389 . S
C931 C932 1.387 . S
C932 H917 0.930 . S
C932 C927 1.390 . S
C932 C931 1.387 . S
H933 C945 0.930 . S
H934 C947 0.930 . S
H935 C948 0.930 . S
H936 C952 0.962 . S
H937 C952 0.979 . S
H938 C952 0.939 1_545 S
H939 C953 0.957 1_545 S
H940 C953 0.963 . S
H941 C953 0.959 . S
H942 C956 0.929 . S
H943 C957 0.931 . S
H944 C959 0.930 . S
C945 H933 0.930 . S
C945 C946 1.399 . S
C945 C950 1.399 . S
C946 C945 1.399 . S
C946 C947 1.376 . S
C947 H934 0.930 . S
C947 C946 1.376 . S
C947 C948 1.388 . S
C948 H935 0.930 . S
C948 C947 1.388 . S
C948 C949 1.390 . S
C949 C948 1.390 . S
C949 C950 1.394 . S
C949 C955 1.465 1_545 S
C950 C945 1.399 . S
C950 C949 1.394 . S
C950 C951 1.517 1_545 S
C951 C950 1.517 1_565 S
C951 C952 1.502 . S
C951 C953 1.561 . S
C951 C954 1.525 . S
C952 H936 0.962 . S
C952 H937 0.979 . S
C952 H938 0.939 1_565 S
C952 C951 1.502 . S
C953 H939 0.957 1_565 S
C953 H940 0.963 . S
C953 H941 0.959 . S
C953 C951 1.561 . S
C954 C951 1.525 . S
C954 C955 1.396 . S
C954 C959 1.390 . S
C955 C949 1.465 1_565 S
C955 C954 1.396 . S
C955 C956 1.399 . S
C956 H942 0.929 . S
C956 C955 1.399 . S
C956 C957 1.385 . S
C957 H943 0.931 . S
C957 C956 1.385 . S
C957 C958 1.389 . S
C958 C957 1.389 . S
C958 C959 1.387 . S
C959 H944 0.930 . S
C959 C954 1.390 . S
C959 C958 1.387 . S
H960 C972 0.930 . S
H961 C974 0.930 . S
H962 C975 0.930 . S
H963 C979 0.959 . S
H964 C979 0.959 . S
H965 C979 0.961 . S
H966 C980 0.960 . S
H967 C980 0.961 . S
H968 C980 0.959 . S
H969 C983 0.929 . S
H970 C984 0.931 . S
H971 C986 0.930 . S
C972 H960 0.930 . S
C972 C973 1.399 . S
C972 C977 1.399 . S
C973 C972 1.399 . S
C973 C974 1.376 . S
C974 H961 0.930 . S
C974 C973 1.376 . S
C974 C975 1.388 . S
C975 H962 0.930 . S
C975 C974 1.388 . S
C975 C976 1.390 . S
C976 C975 1.390 . S
C976 C977 1.394 . S
C976 C982 1.465 . S
C977 C972 1.399 . S
C977 C976 1.394 . S
C977 C978 1.516 . S
C978 C977 1.516 . S
C978 C979 1.502 . S
C978 C980 1.561 . S
C978 C981 1.526 . S
C979 H963 0.959 . S
C979 H964 0.959 . S
C979 H965 0.961 . S
C979 C978 1.502 . S
C980 H966 0.960 . S
C980 H967 0.961 . S
C980 H968 0.959 . S
C980 C978 1.561 . S
C981 C978 1.526 . S
C981 C982 1.396 . S
C981 C986 1.390 . S
C982 C976 1.465 . S
C982 C981 1.396 . S
C982 C983 1.399 . S
C983 H969 0.929 . S
C983 C982 1.399 . S
C983 C984 1.385 . S
C984 H970 0.931 . S
C984 C983 1.385 . S
C984 C985 1.389 . S
C985 C984 1.389 . S
C985 C986 1.387 . S
C986 H971 0.930 . S
C986 C981 1.390 . S
C986 C985 1.387 . S
H987 C999 0.930 . S
H988 C1001 0.930 . S
H989 C1002 0.930 . S
H990 C1006 0.959 . S
H991 C1006 0.959 . S
H992 C1006 0.961 . S
H993 C1007 0.960 . S
H994 C1007 0.961 . S
H995 C1007 0.959 . S
H996 C1010 0.929 . S
H997 C1011 0.931 . S
H998 C1013 0.930 . S
C999 H987 0.930 . S
C999 C1000 1.399 . S
C999 C1004 1.399 . S
C1000 C999 1.399 . S
C1000 C1001 1.376 . S
C1001 H988 0.930 . S
C1001 C1000 1.376 . S
C1001 C1002 1.388 . S
C1002 H989 0.930 . S
C1002 C1001 1.388 . S
C1002 C1003 1.390 . S
C1003 C1002 1.390 . S
C1003 C1004 1.394 . S
C1003 C1009 1.465 . S
C1004 C999 1.399 . S
C1004 C1003 1.394 . S
C1004 C1005 1.516 . S
C1005 C1004 1.516 . S
C1005 C1006 1.502 . S
C1005 C1007 1.561 . S
C1005 C1008 1.526 . S
C1006 H990 0.959 . S
C1006 H991 0.959 . S
C1006 H992 0.961 . S
C1006 C1005 1.502 . S
C1007 H993 0.960 . S
C1007 H994 0.961 . S
C1007 H995 0.959 . S
C1007 C1005 1.561 . S
C1008 C1005 1.526 . S
C1008 C1009 1.396 . S
C1008 C1013 1.390 . S
C1009 C1003 1.465 . S
C1009 C1008 1.396 . S
C1009 C1010 1.399 . S
C1010 H996 0.929 . S
C1010 C1009 1.399 . S
C1010 C1011 1.385 . S
C1011 H997 0.931 . S
C1011 C1010 1.385 . S
C1011 C1012 1.389 . S
C1012 C1011 1.389 . S
C1012 C1013 1.387 . S
C1013 H998 0.930 . S
C1013 C1008 1.390 . S
C1013 C1012 1.387 . S
H1014 C1026 0.930 . S
H1015 C1028 0.930 . S
H1016 C1029 0.930 . S
H1017 C1033 0.959 . S
H1018 C1033 0.959 . S
H1019 C1033 0.961 . S
H1020 C1034 0.960 . S
H1021 C1034 0.961 . S
H1022 C1034 0.959 . S
H1023 C1037 0.929 . S
H1024 C1038 0.931 . S
H1025 C1040 0.930 . S
C1026 H1014 0.930 . S
C1026 C1027 1.399 . S
C1026 C1031 1.399 . S
C1027 C1026 1.399 . S
C1027 C1028 1.376 . S
C1028 H1015 0.930 . S
C1028 C1027 1.376 . S
C1028 C1029 1.388 . S
C1029 H1016 0.930 . S
C1029 C1028 1.388 . S
C1029 C1030 1.390 . S
C1030 C1029 1.390 . S
C1030 C1031 1.394 . S
C1030 C1036 1.465 . S
C1031 C1026 1.399 . S
C1031 C1030 1.394 . S
C1031 C1032 1.516 . S
C1032 C1031 1.516 . S
C1032 C1033 1.502 . S
C1032 C1034 1.561 . S
C1032 C1035 1.526 . S
C1033 H1017 0.959 . S
C1033 H1018 0.959 . S
C1033 H1019 0.961 . S
C1033 C1032 1.502 . S
C1034 H1020 0.960 . S
C1034 H1021 0.961 . S
C1034 H1022 0.959 . S
C1034 C1032 1.561 . S
C1035 C1032 1.526 . S
C1035 C1036 1.396 . S
C1035 C1040 1.390 . S
C1036 C1030 1.465 . S
C1036 C1035 1.396 . S
C1036 C1037 1.399 . S
C1037 H1023 0.929 . S
C1037 C1036 1.399 . S
C1037 C1038 1.385 . S
C1038 H1024 0.931 . S
C1038 C1037 1.385 . S
C1038 C1039 1.389 . S
C1039 C1038 1.389 . S
C1039 C1040 1.387 . S
C1040 H1025 0.930 . S
C1040 C1035 1.390 . S
C1040 C1039 1.387 . S
H1041 C1053 0.930 . S
H1042 C1055 0.930 . S
H1043 C1056 0.930 . S
H1044 C1060 0.959 . S
H1045 C1060 0.959 . S
H1046 C1060 0.961 . S
H1047 C1061 0.960 . S
H1048 C1061 0.961 . S
H1049 C1061 0.959 . S
H1050 C1064 0.929 . S
H1051 C1065 0.931 . S
H1052 C1067 0.930 . S
C1053 H1041 0.930 . S
C1053 C1054 1.399 . S
C1053 C1058 1.399 . S
C1054 C1053 1.399 . S
C1054 C1055 1.376 . S
C1055 H1042 0.930 . S
C1055 C1054 1.376 . S
C1055 C1056 1.388 . S
C1056 H1043 0.930 . S
C1056 C1055 1.388 . S
C1056 C1057 1.390 . S
C1057 C1056 1.390 . S
C1057 C1058 1.394 . S
C1057 C1063 1.465 . S
C1058 C1053 1.399 . S
C1058 C1057 1.394 . S
C1058 C1059 1.516 . S
C1059 C1058 1.516 . S
C1059 C1060 1.502 . S
C1059 C1061 1.561 . S
C1059 C1062 1.526 . S
C1060 H1044 0.959 . S
C1060 H1045 0.959 . S
C1060 H1046 0.961 . S
C1060 C1059 1.502 . S
C1061 H1047 0.960 . S
C1061 H1048 0.961 . S
C1061 H1049 0.959 . S
C1061 C1059 1.561 . S
C1062 C1059 1.526 . S
C1062 C1063 1.396 . S
C1062 C1067 1.390 . S
C1063 C1057 1.465 . S
C1063 C1062 1.396 . S
C1063 C1064 1.399 . S
C1064 H1050 0.929 . S
C1064 C1063 1.399 . S
C1064 C1065 1.385 . S
C1065 H1051 0.931 . S
C1065 C1064 1.385 . S
C1065 C1066 1.389 . S
C1066 C1065 1.389 . S
C1066 C1067 1.387 . S
C1067 H1052 0.930 . S
C1067 C1062 1.390 . S
C1067 C1066 1.387 . S
H1068 C1080 0.930 . S
H1069 C1082 0.930 . S
H1070 C1083 0.930 . S
H1071 C1087 0.959 . S
H1072 C1087 0.959 . S
H1073 C1087 0.961 . S
H1074 C1088 0.960 . S
H1075 C1088 0.961 . S
H1076 C1088 0.959 . S
H1077 C1091 0.929 . S
H1078 C1092 0.931 . S
H1079 C1094 0.930 . S
C1080 H1068 0.930 . S
C1080 C1081 1.399 . S
C1080 C1085 1.399 . S
C1081 C1080 1.399 . S
C1081 C1082 1.376 . S
C1082 H1069 0.930 . S
C1082 C1081 1.376 . S
C1082 C1083 1.388 . S
C1083 H1070 0.930 . S
C1083 C1082 1.388 . S
C1083 C1084 1.390 . S
C1084 C1083 1.390 . S
C1084 C1085 1.394 . S
C1084 C1090 1.465 . S
C1085 C1080 1.399 . S
C1085 C1084 1.394 . S
C1085 C1086 1.516 . S
C1086 C1085 1.516 . S
C1086 C1087 1.502 . S
C1086 C1088 1.561 . S
C1086 C1089 1.526 . S
C1087 H1071 0.959 . S
C1087 H1072 0.959 . S
C1087 H1073 0.961 . S
C1087 C1086 1.502 . S
C1088 H1074 0.960 . S
C1088 H1075 0.961 . S
C1088 H1076 0.959 . S
C1088 C1086 1.561 . S
C1089 C1086 1.526 . S
C1089 C1090 1.396 . S
C1089 C1094 1.390 . S
C1090 C1084 1.465 . S
C1090 C1089 1.396 . S
C1090 C1091 1.399 . S
C1091 H1077 0.929 . S
C1091 C1090 1.399 . S
C1091 C1092 1.385 . S
C1092 H1078 0.931 . S
C1092 C1091 1.385 . S
C1092 C1093 1.389 . S
C1093 C1092 1.389 . S
C1093 C1094 1.387 . S
C1094 H1079 0.930 . S
C1094 C1089 1.390 . S
C1094 C1093 1.387 . S
H1095 C1107 0.930 . S
H1096 C1109 0.930 . S
H1097 C1110 0.930 . S
H1098 C1114 0.959 . S
H1099 C1114 0.959 . S
H1100 C1114 0.961 . S
H1101 C1115 0.960 . S
H1102 C1115 0.961 . S
H1103 C1115 0.959 . S
H1104 C1118 0.929 . S
H1105 C1119 0.931 . S
H1106 C1121 0.930 . S
C1107 H1095 0.930 . S
C1107 C1108 1.399 . S
C1107 C1112 1.399 . S
C1108 C1107 1.399 . S
C1108 C1109 1.376 . S
C1109 H1096 0.930 . S
C1109 C1108 1.376 . S
C1109 C1110 1.388 . S
C1110 H1097 0.930 . S
C1110 C1109 1.388 . S
C1110 C1111 1.390 . S
C1111 C1110 1.390 . S
C1111 C1112 1.394 . S
C1111 C1117 1.465 . S
C1112 C1107 1.399 . S
C1112 C1111 1.394 . S
C1112 C1113 1.516 . S
C1113 C1112 1.516 . S
C1113 C1114 1.502 . S
C1113 C1115 1.561 . S
C1113 C1116 1.526 . S
C1114 H1098 0.959 . S
C1114 H1099 0.959 . S
C1114 H1100 0.961 . S
C1114 C1113 1.502 . S
C1115 H1101 0.960 . S
C1115 H1102 0.961 . S
C1115 H1103 0.959 . S
C1115 C1113 1.561 . S
C1116 C1113 1.526 . S
C1116 C1117 1.396 . S
C1116 C1121 1.390 . S
C1117 C1111 1.465 . S
C1117 C1116 1.396 . S
C1117 C1118 1.399 . S
C1118 H1104 0.929 . S
C1118 C1117 1.399 . S
C1118 C1119 1.385 . S
C1119 H1105 0.931 . S
C1119 C1118 1.385 . S
C1119 C1120 1.389 . S
C1120 C1119 1.389 . S
C1120 C1121 1.387 . S
C1121 H1106 0.930 . S
C1121 C1116 1.390 . S
C1121 C1120 1.387 . S
H1122 C1134 0.930 . S
H1123 C1136 0.930 . S
H1124 C1137 0.930 . S
H1125 C1141 0.959 . S
H1126 C1141 0.959 . S
H1127 C1141 0.961 . S
H1128 C1142 0.960 . S
H1129 C1142 0.961 . S
H1130 C1142 0.959 . S
H1131 C1145 0.929 . S
H1132 C1146 0.931 . S
H1133 C1148 0.930 . S
C1134 H1122 0.930 . S
C1134 C1135 1.399 . S
C1134 C1139 1.399 . S
C1135 C1134 1.399 . S
C1135 C1136 1.376 . S
C1136 H1123 0.930 . S
C1136 C1135 1.376 . S
C1136 C1137 1.388 . S
C1137 H1124 0.930 . S
C1137 C1136 1.388 . S
C1137 C1138 1.390 . S
C1138 C1137 1.390 . S
C1138 C1139 1.394 . S
C1138 C1144 1.465 . S
C1139 C1134 1.399 . S
C1139 C1138 1.394 . S
C1139 C1140 1.516 . S
C1140 C1139 1.516 . S
C1140 C1141 1.502 . S
C1140 C1142 1.561 . S
C1140 C1143 1.526 . S
C1141 H1125 0.959 . S
C1141 H1126 0.959 . S
C1141 H1127 0.961 . S
C1141 C1140 1.502 . S
C1142 H1128 0.960 . S
C1142 H1129 0.961 . S
C1142 H1130 0.959 . S
C1142 C1140 1.561 . S
C1143 C1140 1.526 . S
C1143 C1144 1.396 . S
C1143 C1148 1.390 . S
C1144 C1138 1.465 . S
C1144 C1143 1.396 . S
C1144 C1145 1.399 . S
C1145 H1131 0.929 . S
C1145 C1144 1.399 . S
C1145 C1146 1.385 . S
C1146 H1132 0.931 . S
C1146 C1145 1.385 . S
C1146 C1147 1.389 . S
C1147 C1146 1.389 . S
C1147 C1148 1.387 . S
C1148 H1133 0.930 . S
C1148 C1143 1.390 . S
C1148 C1147 1.387 . S
H1149 C1161 0.930 . S
H1150 C1163 0.930 . S
H1151 C1164 0.930 . S
H1152 C1168 0.959 . S
H1153 C1168 0.959 . S
H1154 C1168 0.961 . S
H1155 C1169 0.960 . S
H1156 C1169 0.961 . S
H1157 C1169 0.959 . S
H1158 C1172 0.929 . S
H1159 C1173 0.931 . S
H1160 C1175 0.930 . S
C1161 H1149 0.930 . S
C1161 C1162 1.399 . S
C1161 C1166 1.399 . S
C1162 C1161 1.399 . S
C1162 C1163 1.376 . S
C1163 H1150 0.930 . S
C1163 C1162 1.376 . S
C1163 C1164 1.388 . S
C1164 H1151 0.930 . S
C1164 C1163 1.388 . S
C1164 C1165 1.390 . S
C1165 C1164 1.390 . S
C1165 C1166 1.394 . S
C1165 C1171 1.465 . S
C1166 C1161 1.399 . S
C1166 C1165 1.394 . S
C1166 C1167 1.516 . S
C1167 C1166 1.516 . S
C1167 C1168 1.502 . S
C1167 C1169 1.561 . S
C1167 C1170 1.526 . S
C1168 H1152 0.959 . S
C1168 H1153 0.959 . S
C1168 H1154 0.961 . S
C1168 C1167 1.502 . S
C1169 H1155 0.960 . S
C1169 H1156 0.961 . S
C1169 H1157 0.959 . S
C1169 C1167 1.561 . S
C1170 C1167 1.526 . S
C1170 C1171 1.396 . S
C1170 C1175 1.390 . S
C1171 C1165 1.465 . S
C1171 C1170 1.396 . S
C1171 C1172 1.399 . S
C1172 H1158 0.929 . S
C1172 C1171 1.399 . S
C1172 C1173 1.385 . S
C1173 H1159 0.931 . S
C1173 C1172 1.385 . S
C1173 C1174 1.389 . S
C1174 C1173 1.389 . S
C1174 C1175 1.387 . S
C1175 H1160 0.930 . S
C1175 C1170 1.390 . S
C1175 C1174 1.387 . S
H1176 C1188 0.930 . S
H1177 C1190 0.930 . S
H1178 C1191 0.930 . S
H1179 C1195 0.959 . S
H1180 C1195 0.959 . S
H1181 C1195 0.961 . S
H1182 C1196 0.960 . S
H1183 C1196 0.961 . S
H1184 C1196 0.959 . S
H1185 C1199 0.929 . S
H1186 C1200 0.931 . S
H1187 C1202 0.930 . S
C1188 H1176 0.930 . S
C1188 C1189 1.399 . S
C1188 C1193 1.399 . S
C1189 C1188 1.399 . S
C1189 C1190 1.376 . S
C1190 H1177 0.930 . S
C1190 C1189 1.376 . S
C1190 C1191 1.388 . S
C1191 H1178 0.930 . S
C1191 C1190 1.388 . S
C1191 C1192 1.390 . S
C1192 C1191 1.390 . S
C1192 C1193 1.394 . S
C1192 C1198 1.465 . S
C1193 C1188 1.399 . S
C1193 C1192 1.394 . S
C1193 C1194 1.516 . S
C1194 C1193 1.516 . S
C1194 C1195 1.502 . S
C1194 C1196 1.561 . S
C1194 C1197 1.526 . S
C1195 H1179 0.959 . S
C1195 H1180 0.959 . S
C1195 H1181 0.961 . S
C1195 C1194 1.502 . S
C1196 H1182 0.960 . S
C1196 H1183 0.961 . S
C1196 H1184 0.959 . S
C1196 C1194 1.561 . S
C1197 C1194 1.526 . S
C1197 C1198 1.396 . S
C1197 C1202 1.390 . S
C1198 C1192 1.465 . S
C1198 C1197 1.396 . S
C1198 C1199 1.399 . S
C1199 H1185 0.929 . S
C1199 C1198 1.399 . S
C1199 C1200 1.385 . S
C1200 H1186 0.931 . S
C1200 C1199 1.385 . S
C1200 C1201 1.389 . S
C1201 C1200 1.389 . S
C1201 C1202 1.387 . S
C1202 H1187 0.930 . S
C1202 C1197 1.390 . S
C1202 C1201 1.387 . S
H1203 C1215 0.930 . S
H1204 C1217 0.930 . S
H1205 C1218 0.930 . S
H1206 C1222 0.959 . S
H1207 C1222 0.959 . S
H1208 C1222 0.961 . S
H1209 C1223 0.960 . S
H1210 C1223 0.961 . S
H1211 C1223 0.959 . S
H1212 C1226 0.929 . S
H1213 C1227 0.931 . S
H1214 C1229 0.930 . S
C1215 H1203 0.930 . S
C1215 C1216 1.399 . S
C1215 C1220 1.399 . S
C1216 C1215 1.399 . S
C1216 C1217 1.376 . S
C1217 H1204 0.930 . S
C1217 C1216 1.376 . S
C1217 C1218 1.388 . S
C1218 H1205 0.930 . S
C1218 C1217 1.388 . S
C1218 C1219 1.390 . S
C1219 C1218 1.390 . S
C1219 C1220 1.394 . S
C1219 C1225 1.465 . S
C1220 C1215 1.399 . S
C1220 C1219 1.394 . S
C1220 C1221 1.516 . S
C1221 C1220 1.516 . S
C1221 C1222 1.502 . S
C1221 C1223 1.561 . S
C1221 C1224 1.526 . S
C1222 H1206 0.959 . S
C1222 H1207 0.959 . S
C1222 H1208 0.961 . S
C1222 C1221 1.502 . S
C1223 H1209 0.960 . S
C1223 H1210 0.961 . S
C1223 H1211 0.959 . S
C1223 C1221 1.561 . S
C1224 C1221 1.526 . S
C1224 C1225 1.396 . S
C1224 C1229 1.390 . S
C1225 C1219 1.465 . S
C1225 C1224 1.396 . S
C1225 C1226 1.399 . S
C1226 H1212 0.929 . S
C1226 C1225 1.399 . S
C1226 C1227 1.385 . S
C1227 H1213 0.931 . S
C1227 C1226 1.385 . S
C1227 C1228 1.389 . S
C1228 C1227 1.389 . S
C1228 C1229 1.387 . S
C1229 H1214 0.930 . S
C1229 C1224 1.390 . S
C1229 C1228 1.387 . S
H1230 C1242 0.930 . S
H1231 C1244 0.930 . S
H1232 C1245 0.930 . S
H1233 C1249 0.959 . S
H1234 C1249 0.959 . S
H1235 C1249 0.961 . S
H1236 C1250 0.960 . S
H1237 C1250 0.961 . S
H1238 C1250 0.959 . S
H1239 C1253 0.929 . S
H1240 C1254 0.931 . S
H1241 C1256 0.930 . S
C1242 H1230 0.930 . S
C1242 C1243 1.399 . S
C1242 C1247 1.399 . S
C1243 C1242 1.399 . S
C1243 C1244 1.376 . S
C1244 H1231 0.930 . S
C1244 C1243 1.376 . S
C1244 C1245 1.388 . S
C1245 H1232 0.930 . S
C1245 C1244 1.388 . S
C1245 C1246 1.390 . S
C1246 C1245 1.390 . S
C1246 C1247 1.394 . S
C1246 C1252 1.465 . S
C1247 C1242 1.399 . S
C1247 C1246 1.394 . S
C1247 C1248 1.516 . S
C1248 C1247 1.516 . S
C1248 C1249 1.502 . S
C1248 C1250 1.561 . S
C1248 C1251 1.526 . S
C1249 H1233 0.959 . S
C1249 H1234 0.959 . S
C1249 H1235 0.961 . S
C1249 C1248 1.502 . S
C1250 H1236 0.960 . S
C1250 H1237 0.961 . S
C1250 H1238 0.959 . S
C1250 C1248 1.561 . S
C1251 C1248 1.526 . S
C1251 C1252 1.396 . S
C1251 C1256 1.390 . S
C1252 C1246 1.465 . S
C1252 C1251 1.396 . S
C1252 C1253 1.399 . S
C1253 H1239 0.929 . S
C1253 C1252 1.399 . S
C1253 C1254 1.385 . S
C1254 H1240 0.931 . S
C1254 C1253 1.385 . S
C1254 C1255 1.389 . S
C1255 C1254 1.389 . S
C1255 C1256 1.387 . S
C1256 H1241 0.930 . S
C1256 C1251 1.390 . S
C1256 C1255 1.387 . S
H1257 C1269 0.930 . S
H1258 C1271 0.930 . S
H1259 C1272 0.930 . S
H1260 C1276 0.959 . S
H1261 C1276 0.959 . S
H1262 C1276 0.961 . S
H1263 C1277 0.960 . S
H1264 C1277 0.961 . S
H1265 C1277 0.959 . S
H1266 C1280 0.929 . S
H1267 C1281 0.931 . S
H1268 C1283 0.930 . S
C1269 H1257 0.930 . S
C1269 C1270 1.399 . S
C1269 C1274 1.399 . S
C1270 C1269 1.399 . S
C1270 C1271 1.376 . S
C1271 H1258 0.930 . S
C1271 C1270 1.376 . S
C1271 C1272 1.388 . S
C1272 H1259 0.930 . S
C1272 C1271 1.388 . S
C1272 C1273 1.390 . S
C1273 C1272 1.390 . S
C1273 C1274 1.394 . S
C1273 C1279 1.465 . S
C1274 C1269 1.399 . S
C1274 C1273 1.394 . S
C1274 C1275 1.516 . S
C1275 C1274 1.516 . S
C1275 C1276 1.502 . S
C1275 C1277 1.561 . S
C1275 C1278 1.526 . S
C1276 H1260 0.959 . S
C1276 H1261 0.959 . S
C1276 H1262 0.961 . S
C1276 C1275 1.502 . S
C1277 H1263 0.960 . S
C1277 H1264 0.961 . S
C1277 H1265 0.959 . S
C1277 C1275 1.561 . S
C1278 C1275 1.526 . S
C1278 C1279 1.396 . S
C1278 C1283 1.390 . S
C1279 C1273 1.465 . S
C1279 C1278 1.396 . S
C1279 C1280 1.399 . S
C1280 H1266 0.929 . S
C1280 C1279 1.399 . S
C1280 C1281 1.385 . S
C1281 H1267 0.931 . S
C1281 C1280 1.385 . S
C1281 C1282 1.389 . S
C1282 C1281 1.389 . S
C1282 C1283 1.387 . S
C1283 H1268 0.930 . S
C1283 C1278 1.390 . S
C1283 C1282 1.387 . S
H1284 C1296 0.930 . S
H1285 C1298 0.930 . S
H1286 C1299 0.930 . S
H1287 C1303 0.959 . S
H1288 C1303 0.959 . S
H1289 C1303 0.961 . S
H1290 C1304 0.960 . S
H1291 C1304 0.961 . S
H1292 C1304 0.959 . S
H1293 C1307 0.929 . S
H1294 C1308 0.931 . S
H1295 C1310 0.930 . S
C1296 H1284 0.930 . S
C1296 C1297 1.399 . S
C1296 C1301 1.399 . S
C1297 C1296 1.399 . S
C1297 C1298 1.376 . S
C1298 H1285 0.930 . S
C1298 C1297 1.376 . S
C1298 C1299 1.388 . S
C1299 H1286 0.930 . S
C1299 C1298 1.388 . S
C1299 C1300 1.390 . S
C1300 C1299 1.390 . S
C1300 C1301 1.394 . S
C1300 C1306 1.465 . S
C1301 C1296 1.399 . S
C1301 C1300 1.394 . S
C1301 C1302 1.516 . S
C1302 C1301 1.516 . S
C1302 C1303 1.502 . S
C1302 C1304 1.561 . S
C1302 C1305 1.526 . S
C1303 H1287 0.959 . S
C1303 H1288 0.959 . S
C1303 H1289 0.961 . S
C1303 C1302 1.502 . S
C1304 H1290 0.960 . S
C1304 H1291 0.961 . S
C1304 H1292 0.959 . S
C1304 C1302 1.561 . S
C1305 C1302 1.526 . S
C1305 C1306 1.396 . S
C1305 C1310 1.390 . S
C1306 C1300 1.465 . S
C1306 C1305 1.396 . S
C1306 C1307 1.399 . S
C1307 H1293 0.929 . S
C1307 C1306 1.399 . S
C1307 C1308 1.385 . S
C1308 H1294 0.931 . S
C1308 C1307 1.385 . S
C1308 C1309 1.389 . S
C1309 C1308 1.389 . S
C1309 C1310 1.387 . S
C1310 H1295 0.930 . S
C1310 C1305 1.390 . S
C1310 C1309 1.387 . S
H1311 C1323 0.930 . S
H1312 C1325 0.930 . S
H1313 C1326 0.930 . S
H1314 C1330 0.959 . S
H1315 C1330 0.959 . S
H1316 C1330 0.961 . S
H1317 C1331 0.960 . S
H1318 C1331 0.961 . S
H1319 C1331 0.959 . S
H1320 C1334 0.929 . S
H1321 C1335 0.931 . S
H1322 C1337 0.930 . S
C1323 H1311 0.930 . S
C1323 C1324 1.399 . S
C1323 C1328 1.399 . S
C1324 C1323 1.399 . S
C1324 C1325 1.376 . S
C1325 H1312 0.930 . S
C1325 C1324 1.376 . S
C1325 C1326 1.388 . S
C1326 H1313 0.930 . S
C1326 C1325 1.388 . S
C1326 C1327 1.390 . S
C1327 C1326 1.390 . S
C1327 C1328 1.394 . S
C1327 C1333 1.465 . S
C1328 C1323 1.399 . S
C1328 C1327 1.394 . S
C1328 C1329 1.516 . S
C1329 C1328 1.516 . S
C1329 C1330 1.502 . S
C1329 C1331 1.561 . S
C1329 C1332 1.526 . S
C1330 H1314 0.959 . S
C1330 H1315 0.959 . S
C1330 H1316 0.961 . S
C1330 C1329 1.502 . S
C1331 H1317 0.960 . S
C1331 H1318 0.961 . S
C1331 H1319 0.959 . S
C1331 C1329 1.561 . S
C1332 C1329 1.526 . S
C1332 C1333 1.396 . S
C1332 C1337 1.390 . S
C1333 C1327 1.465 . S
C1333 C1332 1.396 . S
C1333 C1334 1.399 . S
C1334 H1320 0.929 . S
C1334 C1333 1.399 . S
C1334 C1335 1.385 . S
C1335 H1321 0.931 . S
C1335 C1334 1.385 . S
C1335 C1336 1.389 . S
C1336 C1335 1.389 . S
C1336 C1337 1.387 . S
C1337 H1322 0.930 . S
C1337 C1332 1.390 . S
C1337 C1336 1.387 . S
H1338 C1350 0.930 . S
H1339 C1352 0.930 . S
H1340 C1353 0.930 . S
H1341 C1357 0.959 . S
H1342 C1357 0.959 . S
H1343 C1357 0.961 . S
H1344 C1358 0.960 . S
H1345 C1358 0.961 . S
H1346 C1358 0.959 . S
H1347 C1361 0.929 . S
H1348 C1362 0.931 . S
H1349 C1364 0.930 . S
C1350 H1338 0.930 . S
C1350 C1351 1.399 . S
C1350 C1355 1.399 . S
C1351 C1350 1.399 . S
C1351 C1352 1.376 . S
C1352 H1339 0.930 . S
C1352 C1351 1.376 . S
C1352 C1353 1.388 . S
C1353 H1340 0.930 . S
C1353 C1352 1.388 . S
C1353 C1354 1.390 . S
C1354 C1353 1.390 . S
C1354 C1355 1.394 . S
C1354 C1360 1.465 . S
C1355 C1350 1.399 . S
C1355 C1354 1.394 . S
C1355 C1356 1.516 . S
C1356 C1355 1.516 . S
C1356 C1357 1.502 . S
C1356 C1358 1.561 . S
C1356 C1359 1.526 . S
C1357 H1341 0.959 . S
C1357 H1342 0.959 . S
C1357 H1343 0.961 . S
C1357 C1356 1.502 . S
C1358 H1344 0.960 . S
C1358 H1345 0.961 . S
C1358 H1346 0.959 . S
C1358 C1356 1.561 . S
C1359 C1356 1.526 . S
C1359 C1360 1.396 . S
C1359 C1364 1.390 . S
C1360 C1354 1.465 . S
C1360 C1359 1.396 . S
C1360 C1361 1.399 . S
C1361 H1347 0.929 . S
C1361 C1360 1.399 . S
C1361 C1362 1.385 . S
C1362 H1348 0.931 . S
C1362 C1361 1.385 . S
C1362 C1363 1.389 . S
C1363 C1362 1.389 . S
C1363 C1364 1.387 . S
C1364 H1349 0.930 . S
C1364 C1359 1.390 . S
C1364 C1363 1.387 . S
H1365 C1377 0.930 . S
H1366 C1379 0.930 . S
H1367 C1380 0.930 . S
H1368 C1384 0.959 . S
H1369 C1384 0.959 . S
H1370 C1384 0.961 . S
H1371 C1385 0.960 . S
H1372 C1385 0.961 . S
H1373 C1385 0.959 . S
H1374 C1388 0.929 . S
H1375 C1389 0.931 . S
H1376 C1391 0.930 . S
C1377 H1365 0.930 . S
C1377 C1378 1.399 . S
C1377 C1382 1.399 . S
C1378 C1377 1.399 . S
C1378 C1379 1.376 . S
C1379 H1366 0.930 . S
C1379 C1378 1.376 . S
C1379 C1380 1.388 . S
C1380 H1367 0.930 . S
C1380 C1379 1.388 . S
C1380 C1381 1.390 . S
C1381 C1380 1.390 . S
C1381 C1382 1.394 . S
C1381 C1387 1.465 . S
C1382 C1377 1.399 . S
C1382 C1381 1.394 . S
C1382 C1383 1.516 . S
C1383 C1382 1.516 . S
C1383 C1384 1.502 . S
C1383 C1385 1.561 . S
C1383 C1386 1.526 . S
C1384 H1368 0.959 . S
C1384 H1369 0.959 . S
C1384 H1370 0.961 . S
C1384 C1383 1.502 . S
C1385 H1371 0.960 . S
C1385 H1372 0.961 . S
C1385 H1373 0.959 . S
C1385 C1383 1.561 . S
C1386 C1383 1.526 . S
C1386 C1387 1.396 . S
C1386 C1391 1.390 . S
C1387 C1381 1.465 . S
C1387 C1386 1.396 . S
C1387 C1388 1.399 . S
C1388 H1374 0.929 . S
C1388 C1387 1.399 . S
C1388 C1389 1.385 . S
C1389 H1375 0.931 . S
C1389 C1388 1.385 . S
C1389 C1390 1.389 . S
C1390 C1389 1.389 . S
C1390 C1391 1.387 . S
C1391 H1376 0.930 . S
C1391 C1386 1.390 . S
C1391 C1390 1.387 . S
H1392 C1404 0.930 . S
H1393 C1406 0.930 . S
H1394 C1407 0.930 . S
H1395 C1411 0.959 . S
H1396 C1411 0.959 . S
H1397 C1411 0.961 . S
H1398 C1412 0.960 . S
H1399 C1412 0.961 . S
H1400 C1412 0.959 . S
H1401 C1415 0.929 . S
H1402 C1416 0.931 . S
H1403 C1418 0.930 . S
C1404 H1392 0.930 . S
C1404 C1405 1.399 . S
C1404 C1409 1.399 . S
C1405 C1404 1.399 . S
C1405 C1406 1.376 . S
C1406 H1393 0.930 . S
C1406 C1405 1.376 . S
C1406 C1407 1.388 . S
C1407 H1394 0.930 . S
C1407 C1406 1.388 . S
C1407 C1408 1.390 . S
C1408 C1407 1.390 . S
C1408 C1409 1.394 . S
C1408 C1414 1.465 . S
C1409 C1404 1.399 . S
C1409 C1408 1.394 . S
C1409 C1410 1.516 . S
C1410 C1409 1.516 . S
C1410 C1411 1.502 . S
C1410 C1412 1.561 . S
C1410 C1413 1.526 . S
C1411 H1395 0.959 . S
C1411 H1396 0.959 . S
C1411 H1397 0.961 . S
C1411 C1410 1.502 . S
C1412 H1398 0.960 . S
C1412 H1399 0.961 . S
C1412 H1400 0.959 . S
C1412 C1410 1.561 . S
C1413 C1410 1.526 . S
C1413 C1414 1.396 . S
C1413 C1418 1.390 . S
C1414 C1408 1.465 . S
C1414 C1413 1.396 . S
C1414 C1415 1.399 . S
C1415 H1401 0.929 . S
C1415 C1414 1.399 . S
C1415 C1416 1.385 . S
C1416 H1402 0.931 . S
C1416 C1415 1.385 . S
C1416 C1417 1.389 . S
C1417 C1416 1.389 . S
C1417 C1418 1.387 . S
C1418 H1403 0.930 . S
C1418 C1413 1.390 . S
C1418 C1417 1.387 . S
H1419 C1431 0.930 . S
H1420 C1433 0.930 . S
H1421 C1434 0.930 . S
H1422 C1438 0.959 . S
H1423 C1438 0.959 . S
H1424 C1438 0.961 . S
H1425 C1439 0.960 . S
H1426 C1439 0.961 . S
H1427 C1439 0.959 . S
H1428 C1442 0.929 . S
H1429 C1443 0.931 . S
H1430 C1445 0.930 . S
C1431 H1419 0.930 . S
C1431 C1432 1.399 . S
C1431 C1436 1.399 . S
C1432 C1431 1.399 . S
C1432 C1433 1.376 . S
C1433 H1420 0.930 . S
C1433 C1432 1.376 . S
C1433 C1434 1.388 . S
C1434 H1421 0.930 . S
C1434 C1433 1.388 . S
C1434 C1435 1.390 . S
C1435 C1434 1.390 . S
C1435 C1436 1.394 . S
C1435 C1441 1.465 . S
C1436 C1431 1.399 . S
C1436 C1435 1.394 . S
C1436 C1437 1.516 . S
C1437 C1436 1.516 . S
C1437 C1438 1.502 . S
C1437 C1439 1.561 . S
C1437 C1440 1.526 . S
C1438 H1422 0.959 . S
C1438 H1423 0.959 . S
C1438 H1424 0.961 . S
C1438 C1437 1.502 . S
C1439 H1425 0.960 . S
C1439 H1426 0.961 . S
C1439 H1427 0.959 . S
C1439 C1437 1.561 . S
C1440 C1437 1.526 . S
C1440 C1441 1.396 . S
C1440 C1445 1.390 . S
C1441 C1435 1.465 . S
C1441 C1440 1.396 . S
C1441 C1442 1.399 . S
C1442 H1428 0.929 . S
C1442 C1441 1.399 . S
C1442 C1443 1.385 . S
C1443 H1429 0.931 . S
C1443 C1442 1.385 . S
C1443 C1444 1.389 . S
C1444 C1443 1.389 . S
C1444 C1445 1.387 . S
C1445 H1430 0.930 . S
C1445 C1440 1.390 . S
C1445 C1444 1.387 . S
H1446 C1458 0.930 . S
H1447 C1460 0.930 . S
H1448 C1461 0.930 . S
H1449 C1465 0.959 . S
H1450 C1465 0.959 . S
H1451 C1465 0.961 . S
H1452 C1466 0.960 . S
H1453 C1466 0.961 . S
H1454 C1466 0.959 . S
H1455 C1469 0.929 . S
H1456 C1470 0.931 . S
H1457 C1472 0.930 . S
C1458 H1446 0.930 . S
C1458 C1459 1.399 . S
C1458 C1463 1.399 . S
C1459 C1458 1.399 . S
C1459 C1460 1.376 . S
C1460 H1447 0.930 . S
C1460 C1459 1.376 . S
C1460 C1461 1.388 . S
C1461 H1448 0.930 . S
C1461 C1460 1.388 . S
C1461 C1462 1.390 . S
C1462 C1461 1.390 . S
C1462 C1463 1.394 . S
C1462 C1468 1.465 . S
C1463 C1458 1.399 . S
C1463 C1462 1.394 . S
C1463 C1464 1.516 . S
C1464 C1463 1.516 . S
C1464 C1465 1.502 . S
C1464 C1466 1.561 . S
C1464 C1467 1.526 . S
C1465 H1449 0.959 . S
C1465 H1450 0.959 . S
C1465 H1451 0.961 . S
C1465 C1464 1.502 . S
C1466 H1452 0.960 . S
C1466 H1453 0.961 . S
C1466 H1454 0.959 . S
C1466 C1464 1.561 . S
C1467 C1464 1.526 . S
C1467 C1468 1.396 . S
C1467 C1472 1.390 . S
C1468 C1462 1.465 . S
C1468 C1467 1.396 . S
C1468 C1469 1.399 . S
C1469 H1455 0.929 . S
C1469 C1468 1.399 . S
C1469 C1470 1.385 . S
C1470 H1456 0.931 . S
C1470 C1469 1.385 . S
C1470 C1471 1.389 . S
C1471 C1470 1.389 . S
C1471 C1472 1.387 . S
C1472 H1457 0.930 . S
C1472 C1467 1.390 . S
C1472 C1471 1.387 . S
H1473 C1485 0.930 . S
H1474 C1487 0.930 . S
H1475 C1488 0.930 . S
H1476 C1492 0.959 . S
H1477 C1492 0.959 . S
H1478 C1492 0.961 . S
H1479 C1493 0.960 . S
H1480 C1493 0.961 . S
H1481 C1493 0.959 . S
H1482 C1496 0.929 . S
H1483 C1497 0.931 . S
H1484 C1499 0.930 . S
C1485 H1473 0.930 . S
C1485 C1486 1.399 . S
C1485 C1490 1.399 . S
C1486 C1485 1.399 . S
C1486 C1487 1.376 . S
C1487 H1474 0.930 . S
C1487 C1486 1.376 . S
C1487 C1488 1.388 . S
C1488 H1475 0.930 . S
C1488 C1487 1.388 . S
C1488 C1489 1.390 . S
C1489 C1488 1.390 . S
C1489 C1490 1.394 . S
C1489 C1495 1.465 . S
C1490 C1485 1.399 . S
C1490 C1489 1.394 . S
C1490 C1491 1.516 . S
C1491 C1490 1.516 . S
C1491 C1492 1.502 . S
C1491 C1493 1.561 . S
C1491 C1494 1.526 . S
C1492 H1476 0.959 . S
C1492 H1477 0.959 . S
C1492 H1478 0.961 . S
C1492 C1491 1.502 . S
C1493 H1479 0.960 . S
C1493 H1480 0.961 . S
C1493 H1481 0.959 . S
C1493 C1491 1.561 . S
C1494 C1491 1.526 . S
C1494 C1495 1.396 . S
C1494 C1499 1.390 . S
C1495 C1489 1.465 . S
C1495 C1494 1.396 . S
C1495 C1496 1.399 . S
C1496 H1482 0.929 . S
C1496 C1495 1.399 . S
C1496 C1497 1.385 . S
C1497 H1483 0.931 . S
C1497 C1496 1.385 . S
C1497 C1498 1.389 . S
C1498 C1497 1.389 . S
C1498 C1499 1.387 . S
C1499 H1484 0.930 . S
C1499 C1494 1.390 . S
C1499 C1498 1.387 . S
H1500 C1512 0.930 . S
H1501 C1514 0.930 . S
H1502 C1515 0.930 . S
H1503 C1519 0.959 . S
H1504 C1519 0.959 . S
H1505 C1519 0.961 . S
H1506 C1520 0.960 . S
H1507 C1520 0.961 . S
H1508 C1520 0.959 . S
H1509 C1523 0.929 . S
H1510 C1524 0.931 . S
H1511 C1526 0.930 . S
C1512 H1500 0.930 . S
C1512 C1513 1.399 . S
C1512 C1517 1.399 . S
C1513 C1512 1.399 . S
C1513 C1514 1.376 . S
C1514 H1501 0.930 . S
C1514 C1513 1.376 . S
C1514 C1515 1.388 . S
C1515 H1502 0.930 . S
C1515 C1514 1.388 . S
C1515 C1516 1.390 . S
C1516 C1515 1.390 . S
C1516 C1517 1.394 . S
C1516 C1522 1.465 . S
C1517 C1512 1.399 . S
C1517 C1516 1.394 . S
C1517 C1518 1.516 . S
C1518 C1517 1.516 . S
C1518 C1519 1.502 . S
C1518 C1520 1.561 . S
C1518 C1521 1.526 . S
C1519 H1503 0.959 . S
C1519 H1504 0.959 . S
C1519 H1505 0.961 . S
C1519 C1518 1.502 . S
C1520 H1506 0.960 . S
C1520 H1507 0.961 . S
C1520 H1508 0.959 . S
C1520 C1518 1.561 . S
C1521 C1518 1.526 . S
C1521 C1522 1.396 . S
C1521 C1526 1.390 . S
C1522 C1516 1.465 . S
C1522 C1521 1.396 . S
C1522 C1523 1.399 . S
C1523 H1509 0.929 . S
C1523 C1522 1.399 . S
C1523 C1524 1.385 . S
C1524 H1510 0.931 . S
C1524 C1523 1.385 . S
C1524 C1525 1.389 . S
C1525 C1524 1.389 . S
C1525 C1526 1.387 . S
C1526 H1511 0.930 . S
C1526 C1521 1.390 . S
C1526 C1525 1.387 . S
H1527 C1539 0.930 . S
H1528 C1541 0.930 . S
H1529 C1542 0.930 . S
H1530 C1546 0.959 . S
H1531 C1546 0.959 . S
H1532 C1546 0.961 . S
H1533 C1547 0.960 . S
H1534 C1547 0.961 . S
H1535 C1547 0.959 . S
H1536 C1550 0.929 . S
H1537 C1551 0.931 . S
H1538 C1553 0.930 . S
C1539 H1527 0.930 . S
C1539 C1540 1.399 . S
C1539 C1544 1.399 . S
C1540 C1539 1.399 . S
C1540 C1541 1.376 . S
C1541 H1528 0.930 . S
C1541 C1540 1.376 . S
C1541 C1542 1.388 . S
C1542 H1529 0.930 . S
C1542 C1541 1.388 . S
C1542 C1543 1.390 . S
C1543 C1542 1.390 . S
C1543 C1544 1.394 . S
C1543 C1549 1.465 . S
C1544 C1539 1.399 . S
C1544 C1543 1.394 . S
C1544 C1545 1.516 . S
C1545 C1544 1.516 . S
C1545 C1546 1.502 . S
C1545 C1547 1.561 . S
C1545 C1548 1.526 . S
C1546 H1530 0.959 . S
C1546 H1531 0.959 . S
C1546 H1532 0.961 . S
C1546 C1545 1.502 . S
C1547 H1533 0.960 . S
C1547 H1534 0.961 . S
C1547 H1535 0.959 . S
C1547 C1545 1.561 . S
C1548 C1545 1.526 . S
C1548 C1549 1.396 . S
C1548 C1553 1.390 . S
C1549 C1543 1.465 . S
C1549 C1548 1.396 . S
C1549 C1550 1.399 . S
C1550 H1536 0.929 . S
C1550 C1549 1.399 . S
C1550 C1551 1.385 . S
C1551 H1537 0.931 . S
C1551 C1550 1.385 . S
C1551 C1552 1.389 . S
C1552 C1551 1.389 . S
C1552 C1553 1.387 . S
C1553 H1538 0.930 . S
C1553 C1548 1.390 . S
C1553 C1552 1.387 . S
H1554 C1566 0.930 . S
H1555 C1568 0.930 . S
H1556 C1569 0.930 . S
H1557 C1573 0.959 . S
H1558 C1573 0.959 . S
H1559 C1573 0.961 . S
H1560 C1574 0.960 . S
H1561 C1574 0.961 . S
H1562 C1574 0.959 . S
H1563 C1577 0.929 . S
H1564 C1578 0.931 . S
H1565 C1580 0.930 . S
C1566 H1554 0.930 . S
C1566 C1567 1.399 . S
C1566 C1571 1.399 . S
C1567 C1566 1.399 . S
C1567 C1568 1.376 . S
C1568 H1555 0.930 . S
C1568 C1567 1.376 . S
C1568 C1569 1.388 . S
C1569 H1556 0.930 . S
C1569 C1568 1.388 . S
C1569 C1570 1.390 . S
C1570 C1569 1.390 . S
C1570 C1571 1.394 . S
C1570 C1576 1.465 . S
C1571 C1566 1.399 . S
C1571 C1570 1.394 . S
C1571 C1572 1.516 . S
C1572 C1571 1.516 . S
C1572 C1573 1.502 . S
C1572 C1574 1.561 . S
C1572 C1575 1.526 . S
C1573 H1557 0.959 . S
C1573 H1558 0.959 . S
C1573 H1559 0.961 . S
C1573 C1572 1.502 . S
C1574 H1560 0.960 . S
C1574 H1561 0.961 . S
C1574 H1562 0.959 . S
C1574 C1572 1.561 . S
C1575 C1572 1.526 . S
C1575 C1576 1.396 . S
C1575 C1580 1.390 . S
C1576 C1570 1.465 . S
C1576 C1575 1.396 . S
C1576 C1577 1.399 . S
C1577 H1563 0.929 . S
C1577 C1576 1.399 . S
C1577 C1578 1.385 . S
C1578 H1564 0.931 . S
C1578 C1577 1.385 . S
C1578 C1579 1.389 . S
C1579 C1578 1.389 . S
C1579 C1580 1.387 . S
C1580 H1565 0.930 . S
C1580 C1575 1.390 . S
C1580 C1579 1.387 . S
H1581 C1593 0.930 . S
H1582 C1595 0.930 . S
H1583 C1596 0.930 . S
H1584 C1600 0.959 . S
H1585 C1600 0.959 . S
H1586 C1600 0.961 . S
H1587 C1601 0.960 . S
H1588 C1601 0.961 . S
H1589 C1601 0.959 . S
H1590 C1604 0.929 . S
H1591 C1605 0.931 . S
H1592 C1607 0.930 . S
C1593 H1581 0.930 . S
C1593 C1594 1.399 . S
C1593 C1598 1.399 . S
C1594 C1593 1.399 . S
C1594 C1595 1.376 . S
C1595 H1582 0.930 . S
C1595 C1594 1.376 . S
C1595 C1596 1.388 . S
C1596 H1583 0.930 . S
C1596 C1595 1.388 . S
C1596 C1597 1.390 . S
C1597 C1596 1.390 . S
C1597 C1598 1.394 . S
C1597 C1603 1.465 . S
C1598 C1593 1.399 . S
C1598 C1597 1.394 . S
C1598 C1599 1.516 . S
C1599 C1598 1.516 . S
C1599 C1600 1.502 . S
C1599 C1601 1.561 . S
C1599 C1602 1.526 . S
C1600 H1584 0.959 . S
C1600 H1585 0.959 . S
C1600 H1586 0.961 . S
C1600 C1599 1.502 . S
C1601 H1587 0.960 . S
C1601 H1588 0.961 . S
C1601 H1589 0.959 . S
C1601 C1599 1.561 . S
C1602 C1599 1.526 . S
C1602 C1603 1.396 . S
C1602 C1607 1.390 . S
C1603 C1597 1.465 . S
C1603 C1602 1.396 . S
C1603 C1604 1.399 . S
C1604 H1590 0.929 . S
C1604 C1603 1.399 . S
C1604 C1605 1.385 . S
C1605 H1591 0.931 . S
C1605 C1604 1.385 . S
C1605 C1606 1.389 . S
C1606 C1605 1.389 . S
C1606 C1607 1.387 . S
C1607 H1592 0.930 . S
C1607 C1602 1.390 . S
C1607 C1606 1.387 . S
C325 C205 1.399 . S
C337 C10 1.399 . S
C352 C166 1.405 . S
C364 C17 1.407 . S
C379 C179 1.410 . S
C391 C36 1.409 . S
C406 C192 1.399 . S
C418 C43 1.400 . S
C433 C186 1.409 . S
C445 C23 1.410 . S
C460 C30 1.406 . S
C472 C199 1.408 . S
C487 C160 1.410 . S
C499 C49 1.409 . S
C514 C173 1.403 . S
C526 C4 1.401 . S
C541 C244 1.407 . S
C553 C56 1.408 . S
C568 C69 1.405 . S
C580 C251 1.407 . S
C595 C88 1.410 . S
C607 C212 1.409 . S
C622 C231 1.400 . S
C634 C101 1.400 . S
C649 C290 1.403 . S
C661 C114 1.405 . S
C676 C127 1.404 . S
C688 C309 1.403 . S
C703 C140 1.399 . S
C715 C264 1.399 . S
C730 C147 1.405 . S
C742 C283 1.406 . S
C757 C225 1.404 . S
C769 C153 1.403 . S
C784 C303 1.404 . S
C796 C75 1.406 . S
C811 C82 1.410 . S
C823 C270 1.410 . S
C838 C277 1.409 . S
C850 C95 1.409 . S
C865 C296 1.403 . S
C877 C62 1.405 . S
C892 C121 1.403 . S
C904 C257 1.405 . S
C919 C218 1.405 . S
C931 C134 1.407 . S
C946 C238 1.403 . S
C958 C108 1.405 . S
C973 C3 1.106 . S
C985 C55 1.126 . S
C1000 C68 1.071 . S
C1012 C18 1.073 . S
C1027 C29 1.117 . S
C1039 C83 1.094 . S
C1054 C44 1.077 . S
C1066 C96 1.100 . S
C1081 C109 1.072 . S
C1093 C16 1.072 . S
C1108 C122 1.082 . S
C1120 C31 1.106 . S
C1135 C135 1.069 . S
C1147 C42 1.083 . S
C1162 C5 1.123 . S
C1174 C146 1.130 . S
C1189 C148 1.084 . S
C1201 C57 1.107 . S
C1216 C70 1.070 . S
C1228 C107 1.086 . S
C1243 C81 1.127 . S
C1255 C120 1.129 . S
C1270 C133 1.129 . S
C1282 C94 1.128 . S
C1297 C211 1.105 . S
C1309 C161 1.130 . S
C1324 C226 1.094 . S
C1336 C174 1.129 . S
C1351 C187 1.131 . S
C1363 C239 1.102 . S
C1378 C200 1.112 . S
C1390 C250 1.129 . S
C1405 C172 1.069 . S
C1417 C263 1.094 . S
C1432 C185 1.069 . S
C1444 C278 1.100 . S
C1459 C289 1.116 . S
C1471 C198 1.077 . S
C1486 C159 1.087 . S
C1498 C304 1.071 . S
C1513 C213 1.097 . S
C1525 C302 1.130 . S
C1540 C265 1.069 . S
C1552 C224 1.095 . S
C1567 C237 1.119 . S
C1579 C276 1.080 . S
C1594 C291 1.122 . S
C1606 C252 1.082 . S
