# Generated by pormake.
# Topology sod, (4)-cn, num edge types: 1
# Building blocks:
#     Node 0, Type 0, BuildingBlock: QUQFOY_clean_sbu_3, # of connection points: 4
#     Node 1, Type 0, BuildingBlock: QUQFOY_clean_sbu_3, # of connection points: 4
#     Node 2, Type 0, BuildingBlock: QUQFOY_clean_sbu_3, # of connection points: 4
#     Node 3, Type 0, BuildingBlock: QUQFOY_clean_sbu_3, # of connection points: 4
#     Node 4, Type 0, BuildingBlock: QUQFOY_clean_sbu_3, # of connection points: 4
#     Node 5, Type 0, BuildingBlock: QUQFOY_clean_sbu_3, # of connection points: 4
#     Node 6, Type 0, BuildingBlock: QUQFOY_clean_sbu_3, # of connection points: 4
#     Node 7, Type 0, BuildingBlock: QUQFOY_clean_sbu_3, # of connection points: 4
#     Node 8, Type 0, BuildingBlock: QUQFOY_clean_sbu_3, # of connection points: 4
#     Node 9, Type 0, BuildingBlock: QUQFOY_clean_sbu_3, # of connection points: 4
#     Node 10, Type 0, BuildingBlock: QUQFOY_clean_sbu_3, # of connection points: 4
#     Node 11, Type 0, BuildingBlock: QUQFOY_clean_sbu_3, # of connection points: 4
#     Edge 12, Type (0, 0), BuildingBlock: OJICUG_clean_linker_0, # of connection points: 2
#     Edge 13, Type (0, 0), BuildingBlock: OJICUG_clean_linker_0, # of connection points: 2
#     Edge 14, Type (0, 0), BuildingBlock: OJICUG_clean_linker_0, # of connection points: 2
#     Edge 15, Type (0, 0), BuildingBlock: OJICUG_clean_linker_0, # of connection points: 2
#     Edge 16, Type (0, 0), BuildingBlock: OJICUG_clean_linker_0, # of connection points: 2
#     Edge 17, Type (0, 0), BuildingBlock: OJICUG_clean_linker_0, # of connection points: 2
#     Edge 18, Type (0, 0), BuildingBlock: OJICUG_clean_linker_0, # of connection points: 2
#     Edge 19, Type (0, 0), BuildingBlock: OJICUG_clean_linker_0, # of connection points: 2
#     Edge 20, Type (0, 0), BuildingBlock: OJICUG_clean_linker_0, # of connection points: 2
#     Edge 21, Type (0, 0), BuildingBlock: OJICUG_clean_linker_0, # of connection points: 2
#     Edge 22, Type (0, 0), BuildingBlock: OJICUG_clean_linker_0, # of connection points: 2
#     Edge 23, Type (0, 0), BuildingBlock: OJICUG_clean_linker_0, # of connection points: 2
#     Edge 24, Type (0, 0), BuildingBlock: OJICUG_clean_linker_0, # of connection points: 2
#     Edge 25, Type (0, 0), BuildingBlock: OJICUG_clean_linker_0, # of connection points: 2
#     Edge 26, Type (0, 0), BuildingBlock: OJICUG_clean_linker_0, # of connection points: 2
#     Edge 27, Type (0, 0), BuildingBlock: OJICUG_clean_linker_0, # of connection points: 2
#     Edge 28, Type (0, 0), BuildingBlock: OJICUG_clean_linker_0, # of connection points: 2
#     Edge 29, Type (0, 0), BuildingBlock: OJICUG_clean_linker_0, # of connection points: 2
#     Edge 30, Type (0, 0), BuildingBlock: OJICUG_clean_linker_0, # of connection points: 2
#     Edge 31, Type (0, 0), BuildingBlock: OJICUG_clean_linker_0, # of connection points: 2
#     Edge 32, Type (0, 0), BuildingBlock: OJICUG_clean_linker_0, # of connection points: 2
#     Edge 33, Type (0, 0), BuildingBlock: OJICUG_clean_linker_0, # of connection points: 2
#     Edge 34, Type (0, 0), BuildingBlock: OJICUG_clean_linker_0, # of connection points: 2
#     Edge 35, Type (0, 0), BuildingBlock: OJICUG_clean_linker_0, # of connection points: 2
# Relax obj value: 0.139
# Max RMSD: 0.178
# Mean RMSD: 0.168
data_MOF--net-sod--node1-QUQFOY_clean_sbu_3--edge1-OJICUG_clean_linker_0
_symmetry_space_group_name_H-M    P1
_symmetry_Int_Tables_number       1
_symmetry_cell_setting            triclinic
loop_
_symmetry_equiv_pos_as_xyz
'x, y, z'
_cell_length_a     32.863289
_cell_length_b     33.20714
_cell_length_c     32.762074
_cell_angle_alpha  93.14754
_cell_angle_beta   89.791083
_cell_angle_gamma 91.538353
loop_
_atom_site_label
_atom_site_type_symbol
_atom_site_fract_x
_atom_site_fract_y
_atom_site_fract_z
_atom_type_partial_charge
C0 C 0.95133 0.17456 0.52061 0.0
O1 O 0.96905 0.17814 0.55504 0.0
Cd2 Cd 0.02242 0.22503 0.57161 0.0
O3 O 0.96347 0.19545 0.491 0.0
Cd4 Cd 0.02092 0.24619 0.4828 0.0
C5 C 0.09322 0.18166 0.50988 0.0
O6 O -0.00451 0.28343 0.54213 0.0
O7 O 0.05306 0.30646 0.52132 0.0
O8 O -0.01667 0.27184 0.42536 0.0
C9 C 0.02143 0.31205 0.54293 0.0
O10 O 0.08368 0.19136 0.54669 0.0
C11 C 0.01502 0.2828 0.40609 0.0
O12 O 0.07354 0.19549 0.48069 0.0
O13 O 0.04899 0.27464 0.42141 0.0
C14 C 0.67181 0.04354 0.42506 0.0
O15 O 0.67493 0.08082 0.43571 0.0
Cd16 Cd 0.71655 0.10334 0.4926 0.0
O17 O 0.69166 0.0178 0.44384 0.0
Cd18 Cd 0.74104 0.01471 0.50026 0.0
C19 C 0.67072 0.04909 0.56723 0.0
O20 O 0.78168 0.0731 0.48006 0.0
O21 O 0.796 0.05033 0.53854 0.0
O22 O 0.77066 0.95952 0.45945 0.0
C23 C 0.80569 0.07326 0.51019 0.0
O24 O 0.67753 0.0833 0.55243 0.0
C25 C 0.77636 0.93738 0.48918 0.0
O26 O 0.68878 0.0181 0.55277 0.0
O27 O 0.76457 0.95078 0.52414 0.0
C28 C 0.87982 0.8007 0.46664 0.0
O29 O 0.89329 0.79279 0.43082 0.0
Cd30 Cd 0.94533 0.74673 0.41307 0.0
O31 O 0.89426 0.78338 0.49707 0.0
Cd32 Cd 0.94882 0.73311 0.50379 0.0
C33 C 0.02201 0.7945 0.46693 0.0
O34 O 0.92712 0.68671 0.44722 0.0
O35 O -0.01203 0.67881 0.46835 0.0
O36 O 0.91656 0.70044 0.56167 0.0
C37 C 0.95799 0.66488 0.44729 0.0
O38 O 0.01011 0.78172 0.4315 0.0
C39 C 0.94896 0.70115 0.58283 0.0
O40 O 0.00279 0.78411 0.49854 0.0
O41 O -0.02017 0.71908 0.56826 0.0
C42 C 0.30229 0.92796 0.41426 0.0
O43 O 0.2999 0.89405 0.43042 0.0
Cd44 Cd 0.25384 0.87533 0.48278 0.0
O45 O 0.27961 0.95681 0.42684 0.0
Cd46 Cd 0.22636 0.96373 0.48198 0.0
C47 C 0.2883 0.93753 0.55998 0.0
O48 O 0.19093 0.90139 0.4584 0.0
O49 O 0.16584 0.9301 0.5128 0.0
O50 O 0.19304 0.02088 0.45088 0.0
C51 C 0.16219 0.90319 0.48404 0.0
O52 O 0.28439 0.90054 0.5481 0.0
C53 C 0.19316 0.04268 0.48409 0.0
O54 O 0.27206 0.96437 0.53981 0.0
O55 O 0.20944 0.02801 0.51476 0.0
C56 C 0.56061 -0.01431 0.29753 0.0
O57 O 0.55806 0.94789 0.28942 0.0
Cd58 Cd 0.51226 0.91515 0.24231 0.0
O59 O 0.53777 0.00964 0.27945 0.0
Cd60 Cd 0.48346 0.0023 0.22585 0.0
C61 C 0.42436 0.94799 0.28857 0.0
O62 O 0.52197 0.95438 0.18382 0.0
O63 O 0.4596 0.95873 0.16597 0.0
O64 O 0.50568 0.0678 0.20176 0.0
C65 C 0.49466 0.94544 0.15769 0.0
O66 O 0.44699 0.91846 0.27868 0.0
C67 C 0.47001 0.07978 0.19524 0.0
O68 O 0.43192 -0.01743 0.27506 0.0
O69 O 0.44069 0.0563 0.20439 0.0
C70 C 0.04835 0.53231 0.18679 0.0
O71 O 0.02629 0.56285 0.19299 0.0
Cd72 Cd 0.97033 0.56769 0.23791 0.0
O73 O 0.04053 0.49974 0.20483 0.0
Cd74 Cd -0.01378 0.48024 0.25565 0.0
C75 C 0.90861 0.49583 0.19113 0.0
O76 O -0.00065 0.541 0.2976 0.0
O77 O 0.94425 0.50977 0.31373 0.0
O78 O 0.03008 0.43054 0.28579 0.0
C79 C 0.97123 0.53658 0.32327 0.0
O80 O 0.91319 0.53324 0.20112 0.0
C81 C 0.0014 0.40455 0.28968 0.0
O82 O 0.93279 0.47065 0.20481 0.0
O83 O 0.96689 0.41318 0.27595 0.0
C84 C 0.5391 0.0326 0.68328 0.0
O85 O 0.51554 0.06233 0.68776 0.0
Cd86 Cd 0.45762 0.0716 0.73075 0.0
O87 O 0.53275 0.00044 0.70252 0.0
Cd88 Cd 0.47981 -0.02204 0.75296 0.0
C89 C 0.39909 -0.00668 0.68882 0.0
O90 O 0.48602 0.04303 0.78824 0.0
O91 O 0.4486 0.00132 0.82024 0.0
O92 O 0.52674 0.9295 0.78028 0.0
C93 C 0.46483 0.03621 0.81925 0.0
O94 O 0.40393 0.03124 0.69573 0.0
C95 C 0.49918 0.90228 0.78419 0.0
O96 O 0.42301 0.96896 0.70452 0.0
O97 O 0.46396 0.90968 0.77125 0.0
C98 C 0.06499 0.48629 0.79848 0.0
O99 O 0.06219 0.44847 0.79053 0.0
Cd100 Cd 0.01575 0.41554 0.74423 0.0
O101 O 0.04208 0.51028 0.78056 0.0
Cd102 Cd -0.01281 0.50275 0.72761 0.0
C103 C 0.92871 0.44934 0.79142 0.0
O104 O 0.02461 0.45421 0.68527 0.0
O105 O 0.96185 0.45855 0.66884 0.0
O106 O 0.00856 0.56791 0.70196 0.0
C107 C -0.00335 0.44499 0.65992 0.0
O108 O 0.95094 0.41955 0.78135 0.0
C109 C 0.97262 0.57974 0.69657 0.0
O110 O 0.93639 0.48378 0.77769 0.0
O111 O 0.94372 0.55637 0.70703 0.0
C112 C 0.17677 0.54365 0.92564 0.0
O113 O 0.17969 0.58085 0.93665 0.0
Cd114 Cd 0.22189 0.60316 -0.00684 0.0
O115 O 0.19701 0.51786 0.94394 0.0
Cd116 Cd 0.24698 0.51475 -0.00021 0.0
C117 C 0.17765 0.54812 0.06812 0.0
O118 O 0.287 0.57344 -0.02052 0.0
O119 O 0.30198 0.55067 0.03779 0.0
O120 O 0.27718 0.46046 0.9583 0.0
C121 C 0.31131 0.57364 0.00935 0.0
O122 O 0.18422 0.58246 0.05353 0.0
C123 C 0.28333 0.43807 -0.01228 0.0
O124 O 0.19537 0.5172 0.05302 0.0
O125 O 0.27134 0.45083 0.02284 0.0
C126 C 0.38944 0.30353 0.96404 0.0
O127 O 0.40461 0.2976 0.92854 0.0
Cd128 Cd 0.45568 0.25145 0.90704 0.0
O129 O 0.40185 0.28418 -0.00592 0.0
Cd130 Cd 0.45492 0.23263 0.00178 0.0
C131 C 0.53186 0.2933 0.96626 0.0
O132 O 0.43324 0.19316 0.9407 0.0
O133 O 0.48445 0.1695 0.97109 0.0
O134 O 0.41969 0.20268 0.05964 0.0
C135 C 0.45808 0.1651 0.94304 0.0
O136 O 0.51975 0.28392 0.93005 0.0
C137 C 0.45176 0.20179 0.08119 0.0
O138 O 0.5124 0.28066 -0.00315 0.0
O139 O 0.48383 0.21779 0.06679 0.0
C140 C 0.8079 0.43091 0.91852 0.0
O141 O 0.80576 0.39712 0.93493 0.0
Cd142 Cd 0.76033 0.3784 -0.01246 0.0
O143 O 0.78519 0.45979 0.93101 0.0
Cd144 Cd 0.7319 0.46713 -0.01374 0.0
C145 C 0.79523 0.44252 0.06352 0.0
O146 O 0.69796 0.40441 0.96253 0.0
O147 O 0.67164 0.43194 0.01684 0.0
O148 O 0.69872 0.52373 0.95397 0.0
C149 C 0.66901 0.40511 -0.01211 0.0
O150 O 0.79122 0.40546 0.05188 0.0
C151 C 0.69759 0.54561 -0.01291 0.0
O152 O 0.77853 0.46924 0.04355 0.0
O153 O 0.71297 0.53115 0.01835 0.0
C154 C 0.45594 0.6763 0.01877 0.0
O155 O 0.47321 0.68085 0.05338 0.0
Cd156 Cd 0.5257 0.72872 0.06956 0.0
O157 O 0.46809 0.69675 -0.01117 0.0
Cd158 Cd 0.52475 0.74821 -0.02022 0.0
C159 C 0.59738 0.68489 0.00898 0.0
O160 O 0.49786 0.78562 0.03817 0.0
O161 O 0.55515 0.80975 0.01789 0.0
O162 O 0.48667 0.77119 0.92135 0.0
C163 C 0.52314 0.8148 0.03907 0.0
O164 O 0.58721 0.69502 0.04551 0.0
C165 C 0.51804 0.78302 0.90211 0.0
O166 O 0.57811 0.69821 -0.02077 0.0
O167 O 0.55224 0.77667 0.91799 0.0
C168 C -0.02502 0.31573 0.35295 0.0
C169 C 0.01272 0.30826 0.37055 0.0
H170 H 0.94198 0.35157 0.31286 0.0
C171 C 0.04768 0.32909 0.35708 0.0
H172 H 0.94756 0.30001 0.3625 0.0
C173 C 0.04448 0.35901 0.32892 0.0
C174 C 0.00631 0.36831 0.31336 0.0
H175 H 0.07727 0.32392 0.37 0.0
H176 H 0.0716 0.37604 0.32078 0.0
C177 C 0.97185 0.3453 0.32446 0.0
C178 C 0.6198 0.05663 0.37169 0.0
C179 C 0.64439 0.02953 0.39125 0.0
H180 H 0.5739 0.06414 0.32661 0.0
C181 C 0.64197 -0.01159 0.37883 0.0
H182 H 0.621 0.08855 0.38055 0.0
C183 C 0.61516 0.97452 0.34809 0.0
C184 C 0.59001 0.00138 0.32894 0.0
H185 H 0.66056 0.9667 0.39309 0.0
H186 H 0.61396 0.94251 0.33965 0.0
C187 C 0.59282 0.04268 0.34081 0.0
C188 C 0.92904 0.57741 0.37317 0.0
C189 C 0.96735 0.56593 0.35834 0.0
H190 H 0.89607 0.61853 0.41283 0.0
C191 C 0.00254 0.58517 0.37512 0.0
H192 H 0.90148 0.56311 0.36061 0.0
C193 C -0.00046 0.61621 0.40537 0.0
C194 C 0.96123 0.62923 0.41869 0.0
H195 H 0.03247 0.57668 0.36427 0.0
H196 H 0.02719 0.63105 0.4171 0.0
C197 C 0.92599 0.60919 0.40281 0.0
C198 C 0.33825 0.97082 0.36341 0.0
C199 C 0.3319 0.93328 0.38058 0.0
H200 H 0.37226 0.00495 0.32064 0.0
C201 C 0.35467 0.90034 0.36557 0.0
H202 H 0.32112 -0.00325 0.37413 0.0
C203 C 0.38372 0.90494 0.33493 0.0
C204 C 0.39091 0.94263 0.31845 0.0
H205 H 0.35044 0.87086 0.37779 0.0
H206 H 0.40107 0.87898 0.32473 0.0
C207 C 0.36749 -0.02455 0.33267 0.0
C208 C 0.92556 0.62346 0.66 0.0
C209 C 0.96477 0.6165 0.6747 0.0
H210 H 0.88958 0.65621 0.61942 0.0
C211 C -0.00283 0.64233 0.66413 0.0
H212 H 0.89989 0.60422 0.66785 0.0
C213 C -0.00883 0.67235 0.63672 0.0
C214 C 0.95272 0.67686 0.61906 0.0
H215 H 0.02764 0.63801 0.67533 0.0
H216 H 0.01728 0.69025 0.62741 0.0
C217 C 0.91961 0.65329 0.63228 0.0
C218 C 0.34141 0.00464 0.6415 0.0
C219 C 0.36742 -0.02223 0.65941 0.0
H220 H 0.29602 0.013 0.59657 0.0
C221 C 0.36475 0.9366 0.64665 0.0
H222 H 0.34236 0.03648 0.65071 0.0
C223 C 0.33799 0.923 0.61534 0.0
C224 C 0.31342 0.95033 0.59616 0.0
H225 H 0.38427 0.91503 0.65989 0.0
H226 H 0.33757 0.89137 0.60528 0.0
C227 C 0.3148 -0.00889 0.61031 0.0
C228 C -0.02409 0.35827 0.58282 0.0
C229 C 0.01549 0.34832 0.57012 0.0
H230 H 0.93881 0.39723 0.6205 0.0
C231 C 0.04863 0.37224 0.58488 0.0
H232 H 0.94974 0.34053 0.57156 0.0
C233 C 0.04236 0.4044 0.61344 0.0
C234 C 0.0028 0.41362 0.62697 0.0
H235 H 0.0794 0.36526 0.5755 0.0
H236 H 0.06852 0.42167 0.62544 0.0
C237 C 0.96958 0.39085 0.61065 0.0
C238 C 0.598 0.00312 0.64341 0.0
C239 C 0.57445 0.03643 0.65543 0.0
H240 H 0.64711 -0.01909 0.60608 0.0
C241 C 0.58449 0.07417 0.64002 0.0
H242 H 0.59116 0.9737 0.65484 0.0
C243 C 0.61651 0.07839 0.61248 0.0
C244 C 0.63931 0.04494 0.59937 0.0
H245 H 0.56733 0.10066 0.64891 0.0
H246 H 0.62276 0.10782 0.60082 0.0
C247 C 0.63007 0.00731 0.61552 0.0
C248 C 0.34482 0.34692 0.00969 0.0
C249 C 0.35854 0.3349 0.97031 0.0
H250 H 0.30986 0.38902 0.04613 0.0
C251 C 0.34419 0.35482 0.93663 0.0
H252 H 0.35514 0.33208 0.03624 0.0
C253 C 0.31839 0.38728 0.94227 0.0
C254 C 0.30623 0.40056 -0.01828 0.0
H255 H 0.35376 0.34612 0.90579 0.0
H256 H 0.30896 0.40269 0.91573 0.0
C257 C 0.31885 0.37949 0.01533 0.0
C258 C 0.37451 0.59936 0.04492 0.0
C259 C 0.34871 0.5993 0.01093 0.0
H260 H 0.42864 0.62326 0.07377 0.0
C261 C 0.35929 0.62351 0.97839 0.0
H262 H 0.36736 0.58084 0.07034 0.0
C263 C 0.39475 0.64784 -0.0198 0.0
C264 C 0.42011 0.64848 0.01466 0.0
H265 H 0.34008 0.62385 0.95162 0.0
H266 H 0.40182 0.66668 0.95502 0.0
C267 C 0.40974 0.62367 0.04679 0.0
C268 C 0.59568 0.32621 0.94082 0.0
C269 C 0.56789 0.32059 0.97278 0.0
H270 H 0.6495 0.3569 0.92082 0.0
C271 C 0.57404 0.34249 0.01038 0.0
H272 H 0.59186 0.30976 0.91154 0.0
C273 C 0.60685 0.37009 0.01554 0.0
C274 C 0.63448 0.37573 -0.01657 0.0
H275 H 0.55299 0.33897 0.03553 0.0
H276 H 0.61057 0.38696 0.04459 0.0
C277 C 0.62875 0.3532 0.9462 0.0
C278 C 0.65589 0.59922 0.95728 0.0
C279 C 0.6768 0.5847 -0.00945 0.0
H280 H 0.61474 0.64281 0.93681 0.0
C281 C 0.67512 0.60638 0.02861 0.0
H282 H 0.65675 0.58332 0.92754 0.0
C283 C 0.65107 0.64028 0.03399 0.0
C284 C 0.62822 0.65351 0.00139 0.0
H285 H 0.69116 0.59626 0.05483 0.0
H286 H 0.64922 0.6552 0.06416 0.0
C287 C 0.63191 0.63339 0.96262 0.0
C288 C 0.47694 0.81275 0.8477 0.0
C289 C 0.51488 0.80751 0.86592 0.0
H290 H 0.44245 0.84628 0.80675 0.0
C291 C 0.54893 0.82973 0.85241 0.0
H292 H 0.45021 0.79588 0.85723 0.0
C293 C 0.54445 0.85898 0.82371 0.0
C294 C 0.50592 0.86622 0.80768 0.0
H295 H 0.57865 0.82627 0.86576 0.0
H296 H 0.57078 0.87725 0.81568 0.0
C297 C 0.47255 0.84164 0.8187 0.0
C298 C 0.1244 0.55696 0.8727 0.0
C299 C 0.14921 0.52979 0.8919 0.0
H300 H 0.07821 0.56462 0.82795 0.0
C301 C 0.14694 0.48875 0.87914 0.0
H302 H 0.1255 0.58882 0.88181 0.0
C303 C 0.12003 0.47499 0.84844 0.0
C304 C 0.09464 0.5019 0.82967 0.0
H305 H 0.1657 0.467 0.89311 0.0
H306 H 0.11893 0.44303 0.83975 0.0
C307 C 0.09733 0.54313 0.84184 0.0
C308 C 0.45051 0.10692 0.8413 0.0
C309 C 0.45963 0.06781 0.85179 0.0
H310 H 0.44202 0.16826 0.86246 0.0
C311 C 0.46758 0.06041 0.89272 0.0
H312 H 0.44462 0.11323 0.80979 0.0
C313 C 0.46769 0.09222 0.92265 0.0
C314 C 0.45847 0.13136 0.91206 0.0
H315 H 0.47523 0.03047 0.90123 0.0
H316 H 0.47469 0.08624 0.954 0.0
C317 C 0.44917 0.13829 0.87131 0.0
C318 C 0.88828 0.4069 0.83846 0.0
C319 C 0.89558 0.44444 0.82172 0.0
H320 H 0.85523 0.37331 0.88182 0.0
C321 C 0.87258 0.47754 0.83603 0.0
H322 H 0.90531 0.38074 0.82819 0.0
C323 C 0.84363 0.4733 0.86712 0.0
C324 C 0.8372 0.43591 0.88454 0.0
H325 H 0.87745 0.50692 0.82379 0.0
H326 H 0.82682 0.49942 0.8779 0.0
C327 C 0.85955 0.4027 0.86943 0.0
C328 C 0.49609 0.14262 0.16436 0.0
C329 C 0.46315 0.11684 0.17348 0.0
H330 H 0.518 0.19062 0.12868 0.0
C331 C 0.4246 0.1241 0.15732 0.0
H332 H 0.52606 0.13809 0.17672 0.0
C333 C 0.41996 0.15417 0.12954 0.0
C334 C 0.45375 0.17759 0.11768 0.0
H335 H 0.39853 0.10491 0.16403 0.0
H336 H 0.39051 0.15727 0.11548 0.0
C337 C 0.4914 0.17281 0.13687 0.0
C338 C 0.852 0.50934 0.14303 0.0
C339 C 0.8767 0.48164 0.16142 0.0
H340 H 0.80684 0.51872 0.09803 0.0
C341 C 0.87221 0.4404 0.14937 0.0
H342 H 0.8545 0.54126 0.15165 0.0
C343 C 0.84478 0.42738 0.11854 0.0
C344 C 0.82128 0.45533 0.09902 0.0
H345 H 0.89063 0.41818 0.16304 0.0
H346 H 0.84287 0.39558 0.10925 0.0
C347 C 0.82466 0.49635 0.1122 0.0
C348 C 0.47636 0.86017 0.07835 0.0
C349 C 0.5163 0.85078 0.0664 0.0
H350 H 0.43809 0.89805 0.11593 0.0
C351 C 0.54891 0.87472 0.08235 0.0
H352 H 0.4506 0.84237 0.06619 0.0
C353 C 0.54173 0.90625 0.1114 0.0
C354 C 0.5018 0.91484 0.12422 0.0
H355 H 0.57994 0.86813 0.07359 0.0
H356 H 0.56748 0.92349 0.12434 0.0
C357 C 0.46914 0.89214 0.10666 0.0
C358 C 0.12586 0.57774 0.11599 0.0
C359 C 0.14696 0.54386 0.10094 0.0
H360 H 0.07862 0.60059 0.15461 0.0
C361 C 0.13671 0.5059 0.11589 0.0
H362 H 0.13297 0.60744 0.10536 0.0
C363 C 0.1052 0.50188 0.14447 0.0
C364 C 0.0833 0.53572 0.1584 0.0
H365 H 0.15245 0.47916 0.10493 0.0
H366 H 0.09745 0.47225 0.15491 0.0
C367 C 0.09446 0.57372 0.14424 0.0
C368 C 0.81155 0.87899 0.51755 0.0
C369 C 0.79843 0.89931 0.48363 0.0
H370 H 0.84764 0.83164 0.53891 0.0
C371 C 0.80923 0.88463 0.44422 0.0
H372 H 0.80359 0.88959 0.54833 0.0
C373 C 0.83424 0.85152 0.43884 0.0
C374 C 0.84922 0.83239 0.47276 0.0
H375 H 0.79934 0.89943 0.41746 0.0
H376 H 0.84285 0.84178 0.40798 0.0
C377 C 0.8368 0.84582 0.51217 0.0
C378 C 0.90432 0.12238 0.54829 0.0
C379 C 0.91509 0.14725 0.51633 0.0
H380 H 0.86146 0.07979 0.57145 0.0
C381 C 0.88983 0.14708 0.48181 0.0
H382 H 0.92311 0.12163 0.57532 0.0
C383 C 0.85417 0.12304 0.47973 0.0
C384 C 0.84324 0.09871 0.51207 0.0
H385 H 0.89721 0.16596 0.45675 0.0
H386 H 0.83508 0.1237 0.45291 0.0
C387 C 0.86887 0.0984 0.54617 0.0
C388 C 0.06519 0.84483 0.50846 0.0
C389 C 0.05812 0.82201 0.47156 0.0
H390 H 0.10341 0.88878 0.54125 0.0
C391 C 0.08571 0.82595 0.43911 0.0
H392 H 0.0444 0.84259 0.53401 0.0
C393 C 0.11971 0.85198 0.44349 0.0
C394 C 0.12655 0.87511 0.4802 0.0
H395 H 0.0812 0.80873 0.41036 0.0
H396 H 0.14042 0.8543 0.41788 0.0
C397 C 0.09891 0.87137 0.51262 0.0
C398 C 0.14753 0.13682 0.53316 0.0
C399 C 0.12391 0.15035 0.50128 0.0
H400 H 0.18827 0.09265 0.55251 0.0
C401 C 0.12684 0.13071 0.4622 0.0
H402 H 0.14628 0.15139 0.56352 0.0
C403 C 0.15082 0.09667 0.45589 0.0
C404 C 0.17252 0.08181 0.48846 0.0
H405 H 0.10907 0.1404 0.43692 0.0
H406 H 0.15105 0.0811 0.42596 0.0
C407 C 0.17163 0.10305 0.52679 0.0
loop_
_geom_bond_atom_site_label_1
_geom_bond_atom_site_label_2
_geom_bond_distance
_geom_bond_site_symmetry_2
_ccdc_geom_bond_type
C0 O1 1.306 . S
C0 O3 1.160 . S
O1 C0 1.306 . S
O1 Cd2 2.228 . S
Cd2 O1 2.228 . S
Cd2 O6 2.273 . S
Cd2 O10 2.277 1_655 S
O3 C0 1.160 . S
O3 Cd4 2.203 1_655 S
Cd4 O3 2.203 1_455 S
Cd4 O6 2.411 1_455 S
Cd4 O7 2.333 . S
Cd4 O8 2.352 1_455 S
Cd4 O12 2.277 . S
Cd4 O13 2.356 . S
C5 O10 1.209 . S
C5 O12 1.226 . S
O6 Cd2 2.273 . S
O6 Cd4 2.411 1_655 S
O6 C9 1.320 1_655 S
O7 Cd4 2.333 . S
O7 C9 1.214 . S
O8 Cd4 2.352 1_655 S
O8 C11 1.258 . S
C9 O6 1.320 1_455 S
C9 O7 1.214 . S
O10 Cd2 2.277 1_455 S
O10 C5 1.209 . S
C11 O8 1.258 . S
C11 O13 1.282 1_655 S
O12 Cd4 2.277 . S
O12 C5 1.226 . S
O13 Cd4 2.356 . S
O13 C11 1.282 1_455 S
C14 O15 1.306 . S
C14 O17 1.160 1_545 S
O15 C14 1.306 . S
O15 Cd16 2.228 . S
Cd16 O15 2.228 . S
Cd16 O20 2.273 . S
Cd16 O24 2.277 . S
O17 C14 1.160 1_565 S
O17 Cd18 2.203 1_565 S
Cd18 O17 2.203 1_545 S
Cd18 O20 2.411 . S
Cd18 O21 2.333 . S
Cd18 O22 2.352 1_545 S
Cd18 O26 2.277 1_545 S
Cd18 O27 2.356 1_545 S
C19 O24 1.209 . S
C19 O26 1.226 1_545 S
O20 Cd16 2.273 . S
O20 Cd18 2.411 . S
O20 C23 1.320 . S
O21 Cd18 2.333 . S
O21 C23 1.214 . S
O22 Cd18 2.352 1_565 S
O22 C25 1.258 . S
C23 O20 1.320 . S
C23 O21 1.214 . S
O24 Cd16 2.277 . S
O24 C19 1.209 . S
C25 O22 1.258 . S
C25 O27 1.282 . S
O26 Cd18 2.277 1_565 S
O26 C19 1.226 1_565 S
O27 Cd18 2.356 1_565 S
O27 C25 1.282 . S
C28 O29 1.306 . S
C28 O31 1.160 . S
O29 C28 1.306 . S
O29 Cd30 2.228 1_655 S
Cd30 O29 2.228 1_455 S
Cd30 O34 2.273 . S
Cd30 O38 2.277 . S
O31 C28 1.160 . S
O31 Cd32 2.203 1_655 S
Cd32 O31 2.203 1_455 S
Cd32 O34 2.411 . S
Cd32 O35 2.333 . S
Cd32 O36 2.352 1_455 S
Cd32 O40 2.277 . S
Cd32 O41 2.356 . S
C33 O38 1.209 . S
C33 O40 1.226 . S
O34 Cd30 2.273 . S
O34 Cd32 2.411 . S
O34 C37 1.320 . S
O35 Cd32 2.333 . S
O35 C37 1.214 . S
O36 Cd32 2.352 1_655 S
O36 C39 1.258 1_655 S
C37 O34 1.320 . S
C37 O35 1.214 . S
O38 Cd30 2.277 . S
O38 C33 1.209 . S
C39 O36 1.258 1_455 S
C39 O41 1.282 . S
O40 Cd32 2.277 . S
O40 C33 1.226 . S
O41 Cd32 2.356 . S
O41 C39 1.282 . S
C42 O43 1.306 1_545 S
C42 O45 1.160 . S
O43 C42 1.306 1_565 S
O43 Cd44 2.228 . S
Cd44 O43 2.228 . S
Cd44 O48 2.273 . S
Cd44 O52 2.277 . S
O45 C42 1.160 . S
O45 Cd46 2.203 . S
Cd46 O45 2.203 . S
Cd46 O48 2.411 1_545 S
Cd46 O49 2.333 1_545 S
Cd46 O50 2.352 . S
Cd46 O54 2.277 . S
Cd46 O55 2.356 . S
C47 O52 1.209 1_545 S
C47 O54 1.226 . S
O48 Cd44 2.273 . S
O48 Cd46 2.411 1_565 S
O48 C51 1.320 . S
O49 Cd46 2.333 1_565 S
O49 C51 1.214 . S
O50 Cd46 2.352 . S
O50 C53 1.258 . S
C51 O48 1.320 . S
C51 O49 1.214 . S
O52 Cd44 2.277 . S
O52 C47 1.209 1_565 S
C53 O50 1.258 . S
C53 O55 1.282 . S
O54 Cd46 2.277 . S
O54 C47 1.226 . S
O55 Cd46 2.356 . S
O55 C53 1.282 . S
C56 O57 1.306 1_545 S
C56 O59 1.160 . S
O57 C56 1.306 1_565 S
O57 Cd58 2.228 . S
Cd58 O57 2.228 . S
Cd58 O62 2.273 . S
Cd58 O66 2.277 . S
O59 C56 1.160 . S
O59 Cd60 2.203 . S
Cd60 O59 2.203 . S
Cd60 O62 2.411 1_545 S
Cd60 O63 2.333 1_545 S
Cd60 O64 2.352 . S
Cd60 O68 2.277 . S
Cd60 O69 2.356 . S
C61 O66 1.209 . S
C61 O68 1.226 1_565 S
O62 Cd58 2.273 . S
O62 Cd60 2.411 1_565 S
O62 C65 1.320 . S
O63 Cd60 2.333 1_565 S
O63 C65 1.214 . S
O64 Cd60 2.352 . S
O64 C67 1.258 . S
C65 O62 1.320 . S
C65 O63 1.214 . S
O66 Cd58 2.277 . S
O66 C61 1.209 . S
C67 O64 1.258 . S
C67 O69 1.282 . S
O68 Cd60 2.277 . S
O68 C61 1.226 1_545 S
O69 Cd60 2.356 . S
O69 C67 1.282 . S
C70 O71 1.306 . S
C70 O73 1.160 . S
O71 C70 1.306 . S
O71 Cd72 2.228 . S
Cd72 O71 2.228 . S
Cd72 O76 2.273 . S
Cd72 O80 2.277 1_455 S
O73 C70 1.160 . S
O73 Cd74 2.203 . S
Cd74 O73 2.203 . S
Cd74 O76 2.411 . S
Cd74 O77 2.333 1_455 S
Cd74 O78 2.352 . S
Cd74 O82 2.277 1_455 S
Cd74 O83 2.356 1_455 S
C75 O80 1.209 . S
C75 O82 1.226 . S
O76 Cd72 2.273 . S
O76 Cd74 2.411 . S
O76 C79 1.320 . S
O77 Cd74 2.333 1_655 S
O77 C79 1.214 1_655 S
O78 Cd74 2.352 . S
O78 C81 1.258 . S
C79 O76 1.320 . S
C79 O77 1.214 1_455 S
O80 Cd72 2.277 1_655 S
O80 C75 1.209 . S
C81 O78 1.258 . S
C81 O83 1.282 1_455 S
O82 Cd74 2.277 1_655 S
O82 C75 1.226 . S
O83 Cd74 2.356 1_655 S
O83 C81 1.282 1_655 S
C84 O85 1.306 . S
C84 O87 1.160 1_545 S
O85 C84 1.306 . S
O85 Cd86 2.228 . S
Cd86 O85 2.228 . S
Cd86 O90 2.273 . S
Cd86 O94 2.277 . S
O87 C84 1.160 1_565 S
O87 Cd88 2.203 1_565 S
Cd88 O87 2.203 1_545 S
Cd88 O90 2.411 . S
Cd88 O91 2.333 . S
Cd88 O92 2.352 1_545 S
Cd88 O96 2.277 . S
Cd88 O97 2.356 1_545 S
C89 O94 1.209 . S
C89 O96 1.243 . S
O90 Cd86 2.273 . S
O90 Cd88 2.411 . S
O90 C93 1.320 . S
O91 Cd88 2.333 . S
O91 C93 1.214 . S
O92 Cd88 2.352 1_565 S
O92 C95 1.258 . S
C93 O90 1.320 . S
C93 O91 1.214 . S
O94 Cd86 2.277 . S
O94 C89 1.209 . S
C95 O92 1.258 . S
C95 O97 1.282 . S
O96 Cd88 2.277 . S
O96 C89 1.243 . S
O97 Cd88 2.356 1_565 S
O97 C95 1.282 . S
C98 O99 1.306 . S
C98 O101 1.160 . S
O99 C98 1.306 . S
O99 Cd100 2.228 . S
Cd100 O99 2.228 . S
Cd100 O104 2.273 . S
Cd100 O108 2.277 1_455 S
O101 C98 1.160 . S
O101 Cd102 2.203 . S
Cd102 O101 2.203 . S
Cd102 O104 2.411 . S
Cd102 O105 2.333 1_455 S
Cd102 O106 2.352 . S
Cd102 O110 2.277 1_455 S
Cd102 O111 2.356 1_455 S
C103 O108 1.209 . S
C103 O110 1.226 . S
O104 Cd100 2.273 . S
O104 Cd102 2.411 . S
O104 C107 1.320 1_455 S
O105 Cd102 2.333 1_655 S
O105 C107 1.214 . S
O106 Cd102 2.352 . S
O106 C109 1.258 . S
C107 O104 1.320 1_655 S
C107 O105 1.214 . S
O108 Cd100 2.277 1_655 S
O108 C103 1.209 . S
C109 O106 1.258 . S
C109 O111 1.282 1_455 S
O110 Cd102 2.277 1_655 S
O110 C103 1.226 . S
O111 Cd102 2.356 1_655 S
O111 C109 1.282 1_655 S
C112 O113 1.306 . S
C112 O115 1.160 . S
O113 C112 1.306 . S
O113 Cd114 2.228 . S
Cd114 O113 2.228 . S
Cd114 O118 2.273 . S
Cd114 O122 2.277 1_556 S
O115 C112 1.160 . S
O115 Cd116 2.203 1_556 S
Cd116 O115 2.203 1_554 S
Cd116 O118 2.411 1_554 S
Cd116 O119 2.333 . S
Cd116 O120 2.352 1_554 S
Cd116 O124 2.277 . S
Cd116 O125 2.356 . S
C117 O122 1.209 . S
C117 O124 1.226 . S
O118 Cd114 2.273 . S
O118 Cd116 2.411 1_556 S
O118 C121 1.320 1_556 S
O119 Cd116 2.333 . S
O119 C121 1.214 . S
O120 Cd116 2.352 1_556 S
O120 C123 1.258 . S
C121 O118 1.320 1_554 S
C121 O119 1.214 . S
O122 Cd114 2.277 1_554 S
O122 C117 1.209 . S
C123 O120 1.258 . S
C123 O125 1.282 1_556 S
O124 Cd116 2.277 . S
O124 C117 1.226 . S
O125 Cd116 2.356 . S
O125 C123 1.282 1_554 S
C126 O127 1.306 1_554 S
C126 O129 1.160 . S
O127 C126 1.306 1_556 S
O127 Cd128 2.228 . S
Cd128 O127 2.228 . S
Cd128 O132 2.273 . S
Cd128 O136 2.277 . S
O129 C126 1.160 . S
O129 Cd130 2.203 . S
Cd130 O129 2.203 . S
Cd130 O132 2.411 1_554 S
Cd130 O133 2.333 1_554 S
Cd130 O134 2.352 . S
Cd130 O138 2.277 . S
Cd130 O139 2.356 . S
C131 O136 1.209 . S
C131 O138 1.226 1_556 S
O132 Cd128 2.273 . S
O132 Cd130 2.411 1_556 S
O132 C135 1.320 . S
O133 Cd130 2.333 1_556 S
O133 C135 1.214 . S
O134 Cd130 2.352 . S
O134 C137 1.258 . S
C135 O132 1.320 . S
C135 O133 1.214 . S
O136 Cd128 2.277 . S
O136 C131 1.209 . S
C137 O134 1.258 . S
C137 O139 1.282 . S
O138 Cd130 2.277 . S
O138 C131 1.226 1_554 S
O139 Cd130 2.356 . S
O139 C137 1.282 . S
C140 O141 1.306 . S
C140 O143 1.160 . S
O141 C140 1.306 . S
O141 Cd142 2.228 . S
Cd142 O141 2.228 . S
Cd142 O146 2.273 . S
Cd142 O150 2.277 1_556 S
O143 C140 1.160 . S
O143 Cd144 2.203 1_556 S
Cd144 O143 2.203 1_554 S
Cd144 O146 2.411 1_554 S
Cd144 O147 2.333 . S
Cd144 O148 2.352 1_554 S
Cd144 O152 2.277 . S
Cd144 O153 2.356 . S
C145 O150 1.209 . S
C145 O152 1.226 . S
O146 Cd142 2.273 . S
O146 Cd144 2.411 1_556 S
O146 C149 1.320 1_556 S
O147 Cd144 2.333 . S
O147 C149 1.214 . S
O148 Cd144 2.352 1_556 S
O148 C151 1.258 1_556 S
C149 O146 1.320 1_554 S
C149 O147 1.214 . S
O150 Cd142 2.277 1_554 S
O150 C145 1.209 . S
C151 O148 1.258 1_554 S
C151 O153 1.282 . S
O152 Cd144 2.277 . S
O152 C145 1.226 . S
O153 Cd144 2.356 . S
O153 C151 1.282 . S
C154 O155 1.306 . S
C154 O157 1.160 1_554 S
O155 C154 1.306 . S
O155 Cd156 2.228 . S
Cd156 O155 2.228 . S
Cd156 O160 2.273 . S
Cd156 O164 2.277 . S
O157 C154 1.160 1_556 S
O157 Cd158 2.203 1_556 S
Cd158 O157 2.203 1_554 S
Cd158 O160 2.411 . S
Cd158 O161 2.333 . S
Cd158 O162 2.352 1_554 S
Cd158 O166 2.277 1_554 S
Cd158 O167 2.356 1_554 S
C159 O164 1.209 . S
C159 O166 1.226 1_554 S
O160 Cd156 2.273 . S
O160 Cd158 2.411 . S
O160 C163 1.320 . S
O161 Cd158 2.333 . S
O161 C163 1.214 . S
O162 Cd158 2.352 1_556 S
O162 C165 1.258 . S
C163 O160 1.320 . S
C163 O161 1.214 . S
O164 Cd156 2.277 . S
O164 C159 1.209 . S
C165 O162 1.258 . S
C165 O167 1.282 . S
O166 Cd158 2.277 1_556 S
O166 C159 1.226 1_556 S
O167 Cd158 2.356 1_556 S
O167 C165 1.282 . S
C168 C169 1.387 . S
C168 H172 0.950 . S
C168 C177 1.390 . S
C169 C168 1.387 . S
C169 C171 1.387 1_655 S
H170 C177 0.950 . S
C171 C169 1.387 1_455 S
C171 C173 1.390 . S
C171 H175 0.950 . S
H172 C168 0.950 . S
C173 C171 1.390 . S
C173 C174 1.387 . S
C173 H176 0.950 . S
C174 C173 1.387 . S
C174 C177 1.387 1_455 S
H175 C171 0.950 . S
H176 C173 0.950 . S
C177 C168 1.390 . S
C177 H170 0.950 . S
C177 C174 1.387 1_655 S
C178 C179 1.400 . S
C178 H182 0.950 . S
C178 C187 1.390 . S
C179 C178 1.400 . S
C179 C181 1.380 1_545 S
H180 C187 0.950 . S
C181 C179 1.380 1_565 S
C181 C183 1.390 . S
C181 H185 0.950 . S
H182 C178 0.950 . S
C183 C181 1.390 . S
C183 C184 1.387 1_565 S
C183 H186 0.950 . S
C184 C183 1.387 1_545 S
C184 C187 1.387 . S
H185 C181 0.950 . S
H186 C183 0.950 . S
C187 C178 1.390 . S
C187 H180 0.950 . S
C187 C184 1.387 . S
C188 C189 1.386 1_655 S
C188 H192 0.955 . S
C188 C197 1.387 1_655 S
C189 C188 1.386 1_455 S
C189 C191 1.387 . S
H190 C197 0.950 . S
C191 C189 1.387 . S
C191 C193 1.390 . S
C191 H195 0.950 . S
H192 C188 0.955 . S
C193 C191 1.390 . S
C193 C194 1.387 . S
C193 H196 0.950 . S
C194 C193 1.387 . S
C194 C197 1.387 . S
H195 C191 0.950 . S
H196 C193 0.950 . S
C197 C188 1.387 1_455 S
C197 H190 0.950 . S
C197 C194 1.387 . S
C198 C199 1.387 . S
C198 H202 0.950 . S
C198 C207 1.390 . S
C199 C198 1.387 . S
C199 C201 1.388 1_545 S
H200 C207 0.950 . S
C201 C199 1.388 1_565 S
C201 C203 1.390 . S
C201 H205 0.950 . S
H202 C198 0.950 . S
C203 C201 1.390 . S
C203 C204 1.387 1_565 S
C203 H206 0.950 . S
C204 C203 1.387 1_545 S
C204 C207 1.387 . S
H205 C201 0.950 . S
H206 C203 0.950 . S
C207 C198 1.390 . S
C207 H200 0.950 . S
C207 C204 1.387 . S
C208 C209 1.387 1_655 S
C208 H212 0.950 . S
C208 C217 1.390 . S
C209 C208 1.387 1_455 S
C209 C211 1.387 . S
H210 C217 0.950 . S
C211 C209 1.387 . S
C211 C213 1.390 . S
C211 H215 0.950 . S
H212 C208 0.950 . S
C213 C211 1.390 . S
C213 C214 1.387 . S
C213 H216 0.950 . S
C214 C213 1.387 . S
C214 C217 1.387 1_455 S
H215 C211 0.950 . S
H216 C213 0.950 . S
C217 C208 1.390 . S
C217 H210 0.950 . S
C217 C214 1.387 1_655 S
C218 C219 1.387 . S
C218 H222 0.950 . S
C218 C227 1.390 . S
C219 C218 1.387 . S
C219 C221 1.387 1_545 S
H220 C227 0.950 . S
C221 C219 1.387 1_565 S
C221 C223 1.390 . S
C221 H225 0.950 . S
H222 C218 0.950 . S
C223 C221 1.390 . S
C223 C224 1.387 1_565 S
C223 H226 0.950 . S
C224 C223 1.387 1_545 S
C224 C227 1.387 . S
H225 C221 0.950 . S
H226 C223 0.950 . S
C227 C218 1.390 . S
C227 H220 0.950 . S
C227 C224 1.387 . S
C228 C229 1.387 1_655 S
C228 H232 0.950 . S
C228 C237 1.390 . S
C229 C228 1.387 1_455 S
C229 C231 1.387 . S
H230 C237 0.950 . S
C231 C229 1.387 . S
C231 C233 1.390 . S
C231 H235 0.950 . S
H232 C228 0.950 . S
C233 C231 1.390 . S
C233 C234 1.380 1_455 S
C233 H236 0.950 . S
C234 C233 1.380 1_655 S
C234 C237 1.394 . S
H235 C231 0.950 . S
H236 C233 0.950 . S
C237 C228 1.390 . S
C237 H230 0.950 . S
C237 C234 1.394 . S
C238 C239 1.387 1_565 S
C238 H242 0.950 . S
C238 C247 1.390 1_565 S
C239 C238 1.387 1_545 S
C239 C241 1.387 . S
H240 C247 0.950 1_565 S
C241 C239 1.387 . S
C241 C243 1.390 . S
C241 H245 0.950 . S
H242 C238 0.950 . S
C243 C241 1.390 . S
C243 C244 1.387 . S
C243 H246 0.950 . S
C244 C243 1.387 . S
C244 C247 1.387 . S
H245 C241 0.950 . S
H246 C243 0.950 . S
C247 C238 1.390 1_545 S
C247 H240 0.950 1_545 S
C247 C244 1.387 . S
C248 C249 1.387 . S
C248 H252 0.950 . S
C248 C257 1.390 . S
C249 C248 1.387 . S
C249 C251 1.387 1_554 S
H250 C257 0.950 . S
C251 C249 1.387 1_556 S
C251 C253 1.390 . S
C251 H255 0.950 . S
H252 C248 0.950 . S
C253 C251 1.390 . S
C253 C254 1.387 . S
C253 H256 0.950 . S
C254 C253 1.387 . S
C254 C257 1.387 1_556 S
H255 C251 0.950 . S
H256 C253 0.950 . S
C257 C248 1.390 . S
C257 H250 0.950 . S
C257 C254 1.387 1_554 S
C258 C259 1.387 . S
C258 H262 0.950 . S
C258 C267 1.390 . S
C259 C258 1.387 . S
C259 C261 1.387 1_554 S
H260 C267 0.950 . S
C261 C259 1.387 1_556 S
C261 C263 1.390 . S
C261 H265 0.950 . S
H262 C258 0.950 . S
C263 C261 1.390 . S
C263 C264 1.387 1_556 S
C263 H266 0.950 . S
C264 C263 1.387 1_554 S
C264 C267 1.387 . S
H265 C261 0.950 . S
H266 C263 0.950 . S
C267 C258 1.390 . S
C267 H260 0.950 . S
C267 C264 1.387 . S
C268 C269 1.387 . S
C268 H272 0.950 . S
C268 C277 1.390 . S
C269 C268 1.387 . S
C269 C271 1.387 1_556 S
H270 C277 0.950 . S
C271 C269 1.387 1_554 S
C271 C273 1.390 . S
C271 H275 0.950 . S
H272 C268 0.950 . S
C273 C271 1.390 . S
C273 C274 1.387 . S
C273 H276 0.950 . S
C274 C273 1.387 . S
C274 C277 1.387 1_554 S
H275 C271 0.950 . S
H276 C273 0.950 . S
C277 C268 1.390 . S
C277 H270 0.950 . S
C277 C274 1.387 1_556 S
C278 C279 1.387 1_556 S
C278 H282 0.950 . S
C278 C287 1.390 . S
C279 C278 1.387 1_554 S
C279 C281 1.387 . S
H280 C287 0.950 . S
C281 C279 1.387 . S
C281 C283 1.390 . S
C281 H285 0.950 . S
H282 C278 0.950 . S
C283 C281 1.390 . S
C283 C284 1.387 . S
C283 H286 0.950 . S
C284 C283 1.387 . S
C284 C287 1.387 1_554 S
H285 C281 0.950 . S
H286 C283 0.950 . S
C287 C278 1.390 . S
C287 H280 0.950 . S
C287 C284 1.387 1_556 S
C288 C289 1.387 . S
C288 H292 0.950 . S
C288 C297 1.390 . S
C289 C288 1.387 . S
C289 C291 1.387 . S
H290 C297 0.950 . S
C291 C289 1.387 . S
C291 C293 1.390 . S
C291 H295 0.950 . S
H292 C288 0.950 . S
C293 C291 1.390 . S
C293 C294 1.387 . S
C293 H296 0.950 . S
C294 C293 1.387 . S
C294 C297 1.387 . S
H295 C291 0.950 . S
H296 C293 0.950 . S
C297 C288 1.390 . S
C297 H290 0.950 . S
C297 C294 1.387 . S
C298 C299 1.387 . S
C298 H302 0.950 . S
C298 C307 1.390 . S
C299 C298 1.387 . S
C299 C301 1.387 . S
H300 C307 0.950 . S
C301 C299 1.387 . S
C301 C303 1.390 . S
C301 H305 0.950 . S
H302 C298 0.950 . S
C303 C301 1.390 . S
C303 C304 1.387 . S
C303 H306 0.950 . S
C304 C303 1.387 . S
C304 C307 1.387 . S
H305 C301 0.950 . S
H306 C303 0.950 . S
C307 C298 1.390 . S
C307 H300 0.950 . S
C307 C304 1.387 . S
C308 C309 1.387 . S
C308 H312 0.950 . S
C308 C317 1.390 . S
C309 C308 1.387 . S
C309 C311 1.387 . S
H310 C317 0.950 . S
C311 C309 1.387 . S
C311 C313 1.390 . S
C311 H315 0.950 . S
H312 C308 0.950 . S
C313 C311 1.390 . S
C313 C314 1.387 . S
C313 H316 0.950 . S
C314 C313 1.387 . S
C314 C317 1.387 . S
H315 C311 0.950 . S
H316 C313 0.950 . S
C317 C308 1.390 . S
C317 H310 0.950 . S
C317 C314 1.387 . S
C318 C319 1.387 . S
C318 H322 0.950 . S
C318 C327 1.390 . S
C319 C318 1.387 . S
C319 C321 1.387 . S
H320 C327 0.950 . S
C321 C319 1.387 . S
C321 C323 1.390 . S
C321 H325 0.950 . S
H322 C318 0.950 . S
C323 C321 1.390 . S
C323 C324 1.387 . S
C323 H326 0.950 . S
C324 C323 1.387 . S
C324 C327 1.387 . S
H325 C321 0.950 . S
H326 C323 0.950 . S
C327 C318 1.390 . S
C327 H320 0.950 . S
C327 C324 1.387 . S
C328 C329 1.387 . S
C328 H332 0.950 . S
C328 C337 1.390 . S
C329 C328 1.387 . S
C329 C331 1.387 . S
H330 C337 0.950 . S
C331 C329 1.387 . S
C331 C333 1.390 . S
C331 H335 0.950 . S
H332 C328 0.950 . S
C333 C331 1.390 . S
C333 C334 1.387 . S
C333 H336 0.950 . S
C334 C333 1.387 . S
C334 C337 1.387 . S
H335 C331 0.950 . S
H336 C333 0.950 . S
C337 C328 1.390 . S
C337 H330 0.950 . S
C337 C334 1.387 . S
C338 C339 1.387 . S
C338 H342 0.950 . S
C338 C347 1.390 . S
C339 C338 1.387 . S
C339 C341 1.387 . S
H340 C347 0.950 . S
C341 C339 1.387 . S
C341 C343 1.390 . S
C341 H345 0.950 . S
H342 C338 0.950 . S
C343 C341 1.390 . S
C343 C344 1.387 . S
C343 H346 0.950 . S
C344 C343 1.387 . S
C344 C347 1.387 . S
H345 C341 0.950 . S
H346 C343 0.950 . S
C347 C338 1.390 . S
C347 H340 0.950 . S
C347 C344 1.387 . S
C348 C349 1.387 . S
C348 H352 0.950 . S
C348 C357 1.390 . S
C349 C348 1.387 . S
C349 C351 1.387 . S
H350 C357 0.950 . S
C351 C349 1.387 . S
C351 C353 1.390 . S
C351 H355 0.950 . S
H352 C348 0.950 . S
C353 C351 1.390 . S
C353 C354 1.387 . S
C353 H356 0.950 . S
C354 C353 1.387 . S
C354 C357 1.387 . S
H355 C351 0.950 . S
H356 C353 0.950 . S
C357 C348 1.390 . S
C357 H350 0.950 . S
C357 C354 1.387 . S
C358 C359 1.387 . S
C358 H362 0.950 . S
C358 C367 1.390 . S
C359 C358 1.387 . S
C359 C361 1.387 . S
H360 C367 0.950 . S
C361 C359 1.387 . S
C361 C363 1.390 . S
C361 H365 0.950 . S
H362 C358 0.950 . S
C363 C361 1.390 . S
C363 C364 1.387 . S
C363 H366 0.950 . S
C364 C363 1.387 . S
C364 C367 1.387 . S
H365 C361 0.950 . S
H366 C363 0.950 . S
C367 C358 1.390 . S
C367 H360 0.950 . S
C367 C364 1.387 . S
C368 C369 1.387 . S
C368 H372 0.950 . S
C368 C377 1.390 . S
C369 C368 1.387 . S
C369 C371 1.387 . S
H370 C377 0.950 . S
C371 C369 1.387 . S
C371 C373 1.390 . S
C371 H375 0.950 . S
H372 C368 0.950 . S
C373 C371 1.390 . S
C373 C374 1.387 . S
C373 H376 0.950 . S
C374 C373 1.387 . S
C374 C377 1.387 . S
H375 C371 0.950 . S
H376 C373 0.950 . S
C377 C368 1.390 . S
C377 H370 0.950 . S
C377 C374 1.387 . S
C378 C379 1.387 . S
C378 H382 0.950 . S
C378 C387 1.390 . S
C379 C378 1.387 . S
C379 C381 1.387 . S
H380 C387 0.950 . S
C381 C379 1.387 . S
C381 C383 1.390 . S
C381 H385 0.950 . S
H382 C378 0.950 . S
C383 C381 1.390 . S
C383 C384 1.387 . S
C383 H386 0.950 . S
C384 C383 1.387 . S
C384 C387 1.387 . S
H385 C381 0.950 . S
H386 C383 0.950 . S
C387 C378 1.390 . S
C387 H380 0.950 . S
C387 C384 1.387 . S
C388 C389 1.387 . S
C388 H392 0.950 . S
C388 C397 1.390 . S
C389 C388 1.387 . S
C389 C391 1.387 . S
H390 C397 0.950 . S
C391 C389 1.387 . S
C391 C393 1.390 . S
C391 H395 0.950 . S
H392 C388 0.950 . S
C393 C391 1.390 . S
C393 C394 1.387 . S
C393 H396 0.950 . S
C394 C393 1.387 . S
C394 C397 1.387 . S
H395 C391 0.950 . S
H396 C393 0.950 . S
C397 C388 1.390 . S
C397 H390 0.950 . S
C397 C394 1.387 . S
C398 C399 1.387 . S
C398 H402 0.950 . S
C398 C407 1.390 . S
C399 C398 1.387 . S
C399 C401 1.387 . S
H400 C407 0.950 . S
C401 C399 1.387 . S
C401 C403 1.390 . S
C401 H405 0.950 . S
H402 C398 0.950 . S
C403 C401 1.390 . S
C403 C404 1.387 . S
C403 H406 0.950 . S
C404 C403 1.387 . S
C404 C407 1.387 . S
H405 C401 0.950 . S
H406 C403 0.950 . S
C407 C398 1.390 . S
C407 H400 0.950 . S
C407 C404 1.387 . S
C169 C11 1.504 . S
C174 C81 1.507 . S
C179 C14 1.469 . S
C184 C56 1.474 . S
C189 C79 1.463 . S
C194 C37 1.461 . S
C199 C42 1.464 . S
C204 C61 1.495 1_545 S
C209 C109 1.506 . S
C214 C39 1.511 . S
C219 C89 1.481 . S
C224 C47 1.483 . S
C229 C9 1.461 . S
C234 C107 1.460 . S
C239 C84 1.467 . S
C244 C19 1.496 . S
C249 C126 1.491 . S
C254 C123 1.497 . S
C259 C121 1.483 . S
C264 C154 1.453 . S
C269 C131 1.473 . S
C274 C149 1.473 . S
C279 C151 1.486 . S
C284 C159 1.506 . S
C289 C165 1.504 . S
C294 C95 1.507 . S
C299 C112 1.471 . S
C304 C98 1.476 . S
C309 C93 1.461 . S
C314 C135 1.459 . S
C319 C103 1.497 . S
C324 C140 1.465 . S
C329 C67 1.508 . S
C334 C137 1.512 . S
C339 C75 1.481 . S
C344 C145 1.483 . S
C349 C163 1.461 . S
C354 C65 1.459 . S
C359 C117 1.498 . S
C364 C70 1.468 . S
C369 C25 1.496 . S
C374 C28 1.490 . S
C379 C0 1.453 . S
C384 C23 1.483 . S
C389 C33 1.472 . S
C394 C51 1.474 . S
C399 C5 1.506 . S
C404 C53 1.486 . S
