# Generated by pormake.
# Topology unb, (4)-cn, num edge types: 1
# Building blocks:
#     Node 0, Type 0, BuildingBlock: ICAMEG_clean_sbu_1, # of connection points: 4
#     Node 1, Type 0, BuildingBlock: ICAMEG_clean_sbu_1, # of connection points: 4
#     Node 2, Type 0, BuildingBlock: ICAMEG_clean_sbu_1, # of connection points: 4
#     Node 3, Type 0, BuildingBlock: ICAMEG_clean_sbu_1, # of connection points: 4
#     Node 4, Type 0, BuildingBlock: ICAMEG_clean_sbu_1, # of connection points: 4
#     Node 5, Type 0, BuildingBlock: ICAMEG_clean_sbu_1, # of connection points: 4
#     Node 6, Type 0, BuildingBlock: ICAMEG_clean_sbu_1, # of connection points: 4
#     Node 7, Type 0, BuildingBlock: ICAMEG_clean_sbu_1, # of connection points: 4
#     Node 8, Type 0, BuildingBlock: ICAMEG_clean_sbu_1, # of connection points: 4
#     Node 9, Type 0, BuildingBlock: ICAMEG_clean_sbu_1, # of connection points: 4
#     Node 10, Type 0, BuildingBlock: ICAMEG_clean_sbu_1, # of connection points: 4
#     Node 11, Type 0, BuildingBlock: ICAMEG_clean_sbu_1, # of connection points: 4
#     Node 12, Type 0, BuildingBlock: ICAMEG_clean_sbu_1, # of connection points: 4
#     Node 13, Type 0, BuildingBlock: ICAMEG_clean_sbu_1, # of connection points: 4
#     Node 14, Type 0, BuildingBlock: ICAMEG_clean_sbu_1, # of connection points: 4
#     Node 15, Type 0, BuildingBlock: ICAMEG_clean_sbu_1, # of connection points: 4
#     Node 16, Type 0, BuildingBlock: ICAMEG_clean_sbu_1, # of connection points: 4
#     Node 17, Type 0, BuildingBlock: ICAMEG_clean_sbu_1, # of connection points: 4
#     Edge 18, Type (0, 0), BuildingBlock: CIFDUS_clean_linker_0, # of connection points: 2
#     Edge 19, Type (0, 0), BuildingBlock: CIFDUS_clean_linker_0, # of connection points: 2
#     Edge 20, Type (0, 0), BuildingBlock: CIFDUS_clean_linker_0, # of connection points: 2
#     Edge 21, Type (0, 0), BuildingBlock: CIFDUS_clean_linker_0, # of connection points: 2
#     Edge 22, Type (0, 0), BuildingBlock: CIFDUS_clean_linker_0, # of connection points: 2
#     Edge 23, Type (0, 0), BuildingBlock: CIFDUS_clean_linker_0, # of connection points: 2
#     Edge 24, Type (0, 0), BuildingBlock: CIFDUS_clean_linker_0, # of connection points: 2
#     Edge 25, Type (0, 0), BuildingBlock: CIFDUS_clean_linker_0, # of connection points: 2
#     Edge 26, Type (0, 0), BuildingBlock: CIFDUS_clean_linker_0, # of connection points: 2
#     Edge 27, Type (0, 0), BuildingBlock: CIFDUS_clean_linker_0, # of connection points: 2
#     Edge 28, Type (0, 0), BuildingBlock: CIFDUS_clean_linker_0, # of connection points: 2
#     Edge 29, Type (0, 0), BuildingBlock: CIFDUS_clean_linker_0, # of connection points: 2
#     Edge 30, Type (0, 0), BuildingBlock: CIFDUS_clean_linker_0, # of connection points: 2
#     Edge 31, Type (0, 0), BuildingBlock: CIFDUS_clean_linker_0, # of connection points: 2
#     Edge 32, Type (0, 0), BuildingBlock: CIFDUS_clean_linker_0, # of connection points: 2
#     Edge 33, Type (0, 0), BuildingBlock: CIFDUS_clean_linker_0, # of connection points: 2
#     Edge 34, Type (0, 0), BuildingBlock: CIFDUS_clean_linker_0, # of connection points: 2
#     Edge 35, Type (0, 0), BuildingBlock: CIFDUS_clean_linker_0, # of connection points: 2
#     Edge 36, Type (0, 0), BuildingBlock: CIFDUS_clean_linker_0, # of connection points: 2
#     Edge 37, Type (0, 0), BuildingBlock: CIFDUS_clean_linker_0, # of connection points: 2
#     Edge 38, Type (0, 0), BuildingBlock: CIFDUS_clean_linker_0, # of connection points: 2
#     Edge 39, Type (0, 0), BuildingBlock: CIFDUS_clean_linker_0, # of connection points: 2
#     Edge 40, Type (0, 0), BuildingBlock: CIFDUS_clean_linker_0, # of connection points: 2
#     Edge 41, Type (0, 0), BuildingBlock: CIFDUS_clean_linker_0, # of connection points: 2
#     Edge 42, Type (0, 0), BuildingBlock: CIFDUS_clean_linker_0, # of connection points: 2
#     Edge 43, Type (0, 0), BuildingBlock: CIFDUS_clean_linker_0, # of connection points: 2
#     Edge 44, Type (0, 0), BuildingBlock: CIFDUS_clean_linker_0, # of connection points: 2
#     Edge 45, Type (0, 0), BuildingBlock: CIFDUS_clean_linker_0, # of connection points: 2
#     Edge 46, Type (0, 0), BuildingBlock: CIFDUS_clean_linker_0, # of connection points: 2
#     Edge 47, Type (0, 0), BuildingBlock: CIFDUS_clean_linker_0, # of connection points: 2
#     Edge 48, Type (0, 0), BuildingBlock: CIFDUS_clean_linker_0, # of connection points: 2
#     Edge 49, Type (0, 0), BuildingBlock: CIFDUS_clean_linker_0, # of connection points: 2
#     Edge 50, Type (0, 0), BuildingBlock: CIFDUS_clean_linker_0, # of connection points: 2
#     Edge 51, Type (0, 0), BuildingBlock: CIFDUS_clean_linker_0, # of connection points: 2
#     Edge 52, Type (0, 0), BuildingBlock: CIFDUS_clean_linker_0, # of connection points: 2
#     Edge 53, Type (0, 0), BuildingBlock: CIFDUS_clean_linker_0, # of connection points: 2
# Relax obj value: 0.091
# Max RMSD: 0.093
# Mean RMSD: 0.093
data_MOF--net-unb--node1-ICAMEG_clean_sbu_1--edge1-CIFDUS_clean_linker_0
_symmetry_space_group_name_H-M    P1
_symmetry_Int_Tables_number       1
_symmetry_cell_setting            triclinic
loop_
_symmetry_equiv_pos_as_xyz
'x, y, z'
_cell_length_a     56.09924
_cell_length_b     56.031778
_cell_length_c     25.891145
_cell_angle_alpha  90.021239
_cell_angle_beta   90.051387
_cell_angle_gamma 120.07991
loop_
_atom_site_label
_atom_site_type_symbol
_atom_site_fract_x
_atom_site_fract_y
_atom_site_fract_z
_atom_type_partial_charge
Co0 Co 0.18714 0.3141 0.09568 0.0
Co1 Co 0.13538 0.25422 0.04447 0.0
O2 O 0.1489 0.28301 0.09811 0.0
C3 C 0.18286 0.29902 0.20787 0.0
O4 O 0.17354 0.27315 0.19495 0.0
C5 C 0.08558 0.26035 0.07036 0.0
O6 O 0.099 0.27928 0.10557 0.0
O7 O 0.14529 0.2828 0.99073 0.0
O8 O 0.18774 0.31316 0.01824 0.0
H9 H 0.14237 0.2138 0.87568 0.0
H10 H 0.14582 0.3207 0.15542 0.0
O11 O 0.18835 0.31707 0.17306 0.0
H12 H 0.18019 0.39389 0.0234 0.0
H13 H 0.26638 0.4061 0.15083 0.0
H14 H 0.23711 0.32577 0.03633 0.0
H15 H 0.19857 0.36218 0.02878 0.0
H16 H 0.21836 0.3677 0.15186 0.0
O17 O 0.09716 0.24919 0.0458 0.0
H18 H 0.15834 0.2487 0.9449 0.0
H19 H 0.08419 0.19987 0.02818 0.0
H20 H 0.28526 0.36384 0.03375 0.0
H21 H 0.12706 0.35218 0.15176 0.0
H22 H 0.30019 0.40437 0.09132 0.0
H23 H 0.14422 0.38905 0.08527 0.0
O24 O 0.20116 0.28768 0.09798 0.0
H25 H 0.09568 0.20811 0.21495 0.0
H26 H 0.14424 0.20641 0.05763 0.0
H27 H 0.1334 0.17153 0.12525 0.0
H28 H 0.10881 0.17213 0.20454 0.0
H29 H 0.10722 0.24274 0.14676 0.0
H30 H 0.06731 0.16457 0.95956 0.0
H31 H 0.09653 0.17137 0.88273 0.0
O32 O 0.17276 0.25768 0.03869 0.0
C33 C 0.16922 0.30333 0.98336 0.0
C34 C 0.12947 0.21057 0.90903 0.0
C35 C 0.08733 0.18296 0.95607 0.0
N36 N 0.12231 0.22627 0.99073 0.0
C37 C 0.13844 0.23023 0.94843 0.0
C38 C 0.09698 0.20306 0.99474 0.0
C39 C 0.10375 0.18678 0.91299 0.0
C40 C 0.15347 0.33678 0.12656 0.0
N41 N 0.17321 0.33954 0.09234 0.0
C42 C 0.14274 0.35451 0.1246 0.0
C43 C 0.15236 0.37518 0.08726 0.0
C44 C 0.17253 0.37789 0.05251 0.0
C45 C 0.18278 0.35979 0.05563 0.0
C46 C 0.26012 0.38855 0.12556 0.0
C47 C 0.24339 0.34336 0.0614 0.0
C48 C 0.23297 0.36669 0.12609 0.0
N49 N 0.22488 0.3445 0.09412 0.0
C50 C 0.27071 0.36485 0.05981 0.0
C51 C 0.27908 0.38758 0.09214 0.0
C52 C 0.19492 0.26841 0.06521 0.0
C53 C 0.10618 0.20747 0.18037 0.0
C54 C 0.13347 0.20682 0.09192 0.0
C55 C 0.1274 0.18699 0.13011 0.0
C56 C 0.11361 0.18733 0.17457 0.0
N57 N 0.12585 0.22635 0.09758 0.0
C58 C 0.11259 0.22696 0.14134 0.0
Co59 Co 0.76411 0.88395 0.03045 0.0
Co60 Co 0.70056 0.86771 0.07899 0.0
O61 O 0.7346 0.86592 0.0815 0.0
C62 C 0.7537 0.82645 0.03055 0.0
O63 O 0.72719 0.81759 0.03222 0.0
C64 C 0.69578 0.88329 0.18741 0.0
O65 O 0.69549 0.90508 0.16953 0.0
O66 O 0.72246 0.90916 0.07626 0.0
O67 O 0.75816 0.91616 0.02643 0.0
H68 H 0.63897 0.90223 0.01357 0.0
H69 H 0.77546 0.86423 0.12836 0.0
O70 O 0.77111 0.85218 0.03173 0.0
H71 H 0.84066 0.96444 0.12521 0.0
H72 H 0.85734 0.91295 0.95445 0.0
H73 H 0.77068 0.91424 0.93269 0.0
H74 H 0.80813 0.94174 0.05325 0.0
H75 H 0.82022 0.89099 0.01898 0.0
O76 O 0.7001 0.868 0.15679 0.0
H77 H 0.68133 0.89924 0.01713 0.0
H78 H 0.64717 0.83974 0.13707 0.0
H79 H 0.80738 0.93675 0.86755 0.0
H80 H 0.80782 0.88605 0.20099 0.0
H81 H 0.8511 0.93617 0.87819 0.0
H82 H 0.8407 0.93652 0.19968 0.0
O83 O 0.73756 0.86599 0.97323 0.0
H84 H 0.67808 0.77443 0.14551 0.0
H85 H 0.65254 0.82399 0.02022 0.0
H86 H 0.62679 0.77317 0.02118 0.0
H87 H 0.63944 0.74802 0.08439 0.0
H88 H 0.70362 0.82523 0.14243 0.0
H89 H 0.60452 0.8422 0.13497 0.0
H90 H 0.6002 0.8736 0.07282 0.0
O91 O 0.69974 0.86612 1.00141 0.0
C92 C 0.74322 0.92455 0.04782 0.0
C93 C 0.64061 0.88849 0.04084 0.0
C94 C 0.62127 0.8548 0.10898 0.0
N95 N 0.66679 0.8694 0.07733 0.0
C96 C 0.66455 0.88671 0.04304 0.0
C97 C 0.64551 0.85354 0.11005 0.0
C98 C 0.61887 0.87241 0.0741 0.0
C99 C 0.78984 0.88617 0.12744 0.0
N100 N 0.79003 0.90167 0.08656 0.0
C101 C 0.80805 0.89843 0.1687 0.0
C102 C 0.82647 0.92675 0.16796 0.0
C103 C 0.82645 0.94243 0.12621 0.0
C104 C 0.80794 0.92948 0.08564 0.0
C105 C 0.83842 0.91342 0.94946 0.0
C106 C 0.78974 0.91415 0.93787 0.0
C107 C 0.81731 0.90098 0.98583 0.0
N108 N 0.7934 0.90161 0.97991 0.0
C109 C 0.8104 0.92682 0.90073 0.0
C110 C 0.83491 0.92645 0.90669 0.0
C111 C 0.71376 0.86301 0.96587 0.0
C112 C 0.67236 0.78514 0.11779 0.0
C113 C 0.65845 0.81323 0.04721 0.0
C114 C 0.64365 0.78443 0.0479 0.0
C115 C 0.65072 0.77034 0.08343 0.0
N116 N 0.67969 0.82763 0.08094 0.0
C117 C 0.68668 0.81393 0.11598 0.0
Co118 Co 0.12036 0.87096 0.04624 0.0
Co119 Co 0.13929 0.82385 0.085 0.0
O120 O 0.13977 0.85894 0.09322 0.0
C121 C 0.17557 0.92265 0.03517 0.0
O122 O 0.1859 0.9084 0.0145 0.0
C123 C 0.12272 0.82166 0.19525 0.0
O124 O 0.10562 0.82993 0.18052 0.0
O125 O 0.09806 0.80288 0.08102 0.0
O126 O 0.08918 0.83245 0.03821 0.0
H127 H 0.10999 0.73201 1.00261 0.0
H128 H 0.13977 0.89874 0.14747 0.0
O129 O 0.15094 0.91041 0.05243 0.0
H130 H 0.03893 0.85879 0.14933 0.0
H131 H 0.08724 0.93482 0.98574 0.0
H132 H 0.0892 0.84952 0.94824 0.0
H133 H 0.06212 0.85357 0.07289 0.0
H134 H 0.11083 0.9188 0.04474 0.0
O135 O 0.13763 0.81851 0.16199 0.0
H136 H 0.11118 0.77632 0.01356 0.0
H137 H 0.16636 0.79685 0.14007 0.0
H138 H 0.06515 0.86466 0.88849 0.0
H139 H 0.11744 0.90469 0.22459 0.0
H140 H 0.06409 0.90761 0.90704 0.0
H141 H 0.06665 0.88456 0.22586 0.0
O142 O 0.1383 0.86518 0.98525 0.0
H143 H 0.23066 0.89434 0.15908 0.0
H144 H 0.18443 0.82387 0.02381 0.0
H145 H 0.23517 0.85043 0.02699 0.0
H146 H 0.25863 0.88592 0.09515 0.0
H147 H 0.17992 0.86746 0.15404 0.0
H148 H 0.1655 0.75262 0.13087 0.0
H149 H 0.13726 0.7199 0.06158 0.0
O150 O 0.14159 0.82821 0.00804 0.0
C151 C 0.08202 0.80857 0.0557 0.0
C152 C 0.12242 0.74612 0.03288 0.0
C153 C 0.15354 0.75767 0.10491 0.0
N154 N 0.13892 0.78922 0.07724 0.0
C155 C 0.12323 0.77127 0.03918 0.0
C156 C 0.15387 0.78264 0.11005 0.0
C157 C 0.13771 0.73933 0.06601 0.0
C158 C 0.11769 0.89016 0.14759 0.0
N159 N 0.10229 0.87595 0.10567 0.0
C160 C 0.10515 0.8935 0.19142 0.0
C161 C 0.07664 0.88216 0.19213 0.0
C162 C 0.06107 0.86768 0.14922 0.0
C163 C 0.07432 0.86474 0.10609 0.0
C164 C 0.08756 0.91606 0.97723 0.0
C165 C 0.08874 0.86818 0.95675 0.0
C166 C 0.10097 0.90693 0.01042 0.0
N167 N 0.10137 0.88322 1.00003 0.0
C168 C 0.07513 0.87667 0.92269 0.0
C169 C 0.07456 0.90078 0.9331 0.0
C170 C 0.1429 0.84561 0.97466 0.0
C171 C 0.22068 0.87893 0.12921 0.0
C172 C 0.19447 0.83943 0.05322 0.0
C173 C 0.22322 0.85432 0.05502 0.0
C174 C 0.23636 0.87421 0.0933 0.0
N175 N 0.17923 0.84415 0.08858 0.0
C176 C 0.19197 0.86361 0.12622 0.0
Co177 Co 0.25534 0.13299 0.97861 0.0
Co178 Co 0.31284 0.18019 0.91328 0.0
O179 O 0.2799 0.14335 0.91838 0.0
C180 C 0.26346 0.08413 0.97261 0.0
O181 O 0.29008 0.10066 0.96676 0.0
C182 C 0.30821 0.19731 0.80698 0.0
O183 O 0.30562 0.2173 0.82763 0.0
O184 O 0.28918 0.19737 0.92149 0.0
O185 O 0.26193 0.17138 0.98596 0.0
H186 H 0.37319 0.27932 0.96511 0.0
H187 H 0.23485 0.1006 0.88221 0.0
O188 O 0.24727 0.09387 0.97462 0.0
H189 H 0.17199 0.13638 0.91628 0.0
H190 H 0.17014 0.07104 0.08144 0.0
H191 H 0.25869 0.15859 0.08071 0.0
H192 H 0.21033 0.1468 0.97581 0.0
H193 H 0.20043 0.08479 0.00513 0.0
O194 O 0.30874 0.17909 0.83579 0.0
H195 H 0.33277 0.23254 0.9707 0.0
H196 H 0.36272 0.20638 0.8451 0.0
H197 H 0.22892 0.14576 0.15762 0.0
H198 H 0.19654 0.0894 0.82187 0.0
H199 H 0.18428 0.10169 0.15835 0.0
H200 H 0.16482 0.10739 0.83875 0.0
O201 O 0.28684 0.14232 0.02523 0.0
H202 H 0.33578 0.11093 0.84088 0.0
H203 H 0.36521 0.18888 0.96139 0.0
H204 H 0.39287 0.16606 0.95395 0.0
H205 H 0.37826 0.12683 0.89315 0.0
H206 H 0.3085 0.13412 0.85015 0.0
H207 H 0.40332 0.25291 0.83779 0.0
H208 H 0.4088 0.28979 0.89819 0.0
O209 O 0.3188 0.1821 0.98984 0.0
C210 C 0.27223 0.19298 0.95808 0.0
C211 C 0.37101 0.26345 0.93849 0.0
C212 C 0.38791 0.24864 0.86702 0.0
N213 N 0.34522 0.21674 0.90799 0.0
C214 C 0.34815 0.23691 0.94144 0.0
C215 C 0.3648 0.22234 0.87119 0.0
C216 C 0.39098 0.26931 0.90094 0.0
C217 C 0.22101 0.10833 0.88992 0.0
N218 N 0.22474 0.12421 0.93253 0.0
C219 C 0.19941 0.102 0.85558 0.0
C220 C 0.18164 0.11212 0.86505 0.0
C221 C 0.18565 0.12839 0.90852 0.0
C222 C 0.20745 0.13429 0.94202 0.0
C223 C 0.18952 0.09032 0.08158 0.0
C224 C 0.23924 0.13945 0.08058 0.0
C225 C 0.2068 0.09818 0.03852 0.0
N226 N 0.23128 0.12253 0.03834 0.0
C227 C 0.22249 0.13226 0.12431 0.0
C228 C 0.19746 0.10752 0.12471 0.0
C229 C 0.30977 0.16486 0.02703 0.0
C230 C 0.34239 0.12803 0.86745 0.0
C231 C 0.35855 0.17168 0.93527 0.0
C232 C 0.37439 0.15891 0.93099 0.0
C233 C 0.3662 0.13693 0.89683 0.0
N234 N 0.33524 0.16287 0.90626 0.0
C235 C 0.32708 0.14131 0.87274 0.0
Co236 Co 0.88125 0.1236 0.98304 0.0
Co237 Co 0.8309 0.13909 0.94458 0.0
O238 O 0.86772 0.14277 0.93807 0.0
C239 C 0.92926 0.18255 0.9776 0.0
O240 O 0.91477 0.19102 0.95184 0.0
C241 C 0.83228 0.12489 0.83334 0.0
O242 O 0.84382 0.11045 0.84704 0.0
O243 O 0.81236 0.09782 0.94822 0.0
O244 O 0.84475 0.08925 0.97933 0.0
H245 H 0.73736 0.10288 0.02409 0.0
H246 H 0.91231 0.15201 0.88799 0.0
O247 O 0.91898 0.15733 0.99034 0.0
H248 H 0.8868 0.05467 0.86629 0.0
H249 H 0.94983 0.09706 0.04596 0.0
H250 H 0.85734 0.08508 0.07137 0.0
H251 H 0.87373 0.06999 0.94513 0.0
H252 H 0.93312 0.12108 0.98961 0.0
O253 O 0.82599 0.13713 0.86749 0.0
H254 H 0.78345 0.10801 0.01467 0.0
H255 H 0.80077 0.16259 0.88824 0.0
H256 H 0.87315 0.06049 0.12831 0.0
H257 H 0.92609 0.13766 0.8089 0.0
H258 H 0.91971 0.06642 0.11578 0.0
H259 H 0.91327 0.08863 0.79754 0.0
O260 O 0.86962 0.1353 0.0461 0.0
H261 H 0.89482 0.23237 0.86883 0.0
H262 H 0.82655 0.18209 0.00516 0.0
H263 H 0.84904 0.23278 1.00129 0.0
H264 H 0.88339 0.25827 0.93253 0.0
H265 H 0.87224 0.18171 0.87498 0.0
H266 H 0.75477 0.1578 0.89593 0.0
H267 H 0.72274 0.12786 0.96439 0.0
O268 O 0.83477 0.14171 0.02137 0.0
C269 C 0.82023 0.08151 0.96523 0.0
C270 C 0.75115 0.11603 0.99417 0.0
C271 C 0.7609 0.14682 0.92219 0.0
N272 N 0.79484 0.13567 0.95111 0.0
C273 C 0.7773 0.11907 0.98873 0.0
C274 C 0.7869 0.14937 0.91791 0.0
C275 C 0.74295 0.13003 0.96063 0.0
C276 C 0.90703 0.13077 0.88383 0.0
N277 N 0.8926 0.11201 0.92162 0.0
C278 C 0.91472 0.1227 0.83873 0.0
C279 C 0.90747 0.09518 0.83233 0.0
C280 C 0.89262 0.07612 0.87088 0.0
C281 C 0.88526 0.08493 0.91544 0.0
C282 C 0.92949 0.09429 0.05177 0.0
C283 C 0.87758 0.08767 0.06551 0.0
C284 C 0.91994 0.1079 0.02008 0.0
N285 N 0.89422 0.1044 0.02705 0.0
C286 C 0.88644 0.07374 0.09795 0.0
C287 C 0.91258 0.07709 0.09093 0.0
C288 C 0.85059 0.14079 0.05574 0.0
C289 C 0.87995 0.22151 0.89907 0.0
C290 C 0.84187 0.19307 0.97589 0.0
C291 C 0.85435 0.22176 0.97352 0.0
C292 C 0.87356 0.23604 0.93486 0.0
N293 N 0.84838 0.17898 0.9409 0.0
C294 C 0.86704 0.19282 0.90266 0.0
Co295 Co 0.87792 0.68574 0.90064 0.0
Co296 Co 0.88565 0.74284 0.96334 0.0
O297 O 0.87254 0.71773 0.90397 0.0
C298 C 0.89953 0.69105 0.79364 0.0
O299 O 0.92277 0.69484 0.81325 0.0
C300 C 0.83586 0.7462 0.98904 0.0
O301 O 0.8352 0.73439 0.03321 0.0
O302 O 0.86362 0.71113 0.00949 0.0
O303 O 0.87404 0.68037 0.97749 0.0
H304 H 0.92173 0.77101 0.14407 0.0
H305 H 0.8347 0.68721 0.83715 0.0
O306 O 0.88057 0.68936 0.82323 0.0
H307 H 0.78571 0.60278 0.94216 0.0
H308 H 0.86461 0.59649 0.82686 0.0
H309 H 0.91177 0.66825 0.95973 0.0
H310 H 0.836 0.63279 0.94974 0.0
H311 H 0.85654 0.63577 0.83288 0.0
O312 O 0.85362 0.74942 0.95471 0.0
H313 H 0.90637 0.74067 0.06762 0.0
H314 H 0.89137 0.79777 0.98665 0.0
H315 H 0.92028 0.62918 0.95541 0.0
H316 H 0.78439 0.65757 0.82779 0.0
H317 H 0.89666 0.59297 0.88853 0.0
H318 H 0.75955 0.61503 0.88061 0.0
O319 O 0.91852 0.71099 0.9088 0.0
H320 H 0.90147 0.80025 0.80437 0.0
H321 H 0.94405 0.7891 0.9624 0.0
H322 H 0.97203 0.82744 0.90293 0.0
H323 H 0.95071 0.83329 0.82336 0.0
H324 H 0.87431 0.76195 0.86464 0.0
H325 H 0.90645 0.82868 0.06232 0.0
H326 H 0.92182 0.81537 0.14175 0.0
O327 O 0.91815 0.73747 0.97342 0.0
C328 C 0.86435 0.68885 0.01306 0.0
C329 C 0.91511 0.77705 0.10967 0.0
C330 C 0.90653 0.80941 0.0638 0.0
N331 N 0.89803 0.76744 0.02264 0.0
C332 C 0.90642 0.75997 0.06622 0.0
C333 C 0.89798 0.79181 0.02109 0.0
C334 C 0.91515 0.80194 0.10835 0.0
C335 C 0.82407 0.66866 0.86007 0.0
N336 N 0.83834 0.66173 0.89386 0.0
C337 C 0.79556 0.65198 0.85469 0.0
C338 C 0.78163 0.62813 0.88437 0.0
C339 C 0.79629 0.62126 0.91893 0.0
C340 C 0.82478 0.63842 0.92324 0.0
C341 C 0.87507 0.61216 0.85611 0.0
C342 C 0.9014 0.65258 0.93053 0.0
C343 C 0.87066 0.63452 0.85957 0.0
N344 N 0.88377 0.6544 0.89643 0.0
C345 C 0.9063 0.6305 0.92827 0.0
C346 C 0.89304 0.61019 0.89074 0.0
C347 C 0.93037 0.728 0.94581 0.0
C348 C 0.91097 0.79796 0.83899 0.0
C349 C 0.93465 0.79139 0.92772 0.0
C350 C 0.95059 0.81321 0.89426 0.0
C351 C 0.93861 0.81648 0.84964 0.0
N352 N 0.90751 0.77339 0.91713 0.0
C353 C 0.89567 0.77638 0.87332 0.0
Co354 Co 0.8458 0.63912 0.40546 0.0
Co355 Co 0.79677 0.57513 0.35798 0.0
O356 O 0.81005 0.60458 0.41042 0.0
C357 C 0.84089 0.62225 0.51781 0.0
O358 O 0.81988 0.59782 0.50737 0.0
C359 C 0.74558 0.57993 0.35267 0.0
O360 O 0.75985 0.60506 0.33418 0.0
O361 O 0.80298 0.6018 0.30191 0.0
O362 O 0.84014 0.64086 0.32969 0.0
H363 H 0.80012 0.53252 0.18914 0.0
H364 H 0.80219 0.63356 0.47825 0.0
O365 O 0.8531 0.63967 0.48184 0.0
H366 H 0.82355 0.7142 0.37006 0.0
H367 H 0.92046 0.73343 0.46226 0.0
H368 H 0.8919 0.66039 0.33072 0.0
H369 H 0.84808 0.68848 0.35701 0.0
H370 H 0.87548 0.69066 0.46867 0.0
O371 O 0.75772 0.56695 0.3672 0.0
H372 H 0.81656 0.56907 0.25524 0.0
H373 H 0.748 0.51833 0.35039 0.0
H374 H 0.93695 0.70299 0.32255 0.0
H375 H 0.77743 0.65886 0.49303 0.0
H376 H 0.9515 0.73987 0.38866 0.0
H377 H 0.78801 0.6995 0.43867 0.0
O378 O 0.86554 0.61812 0.39304 0.0
H379 H 0.76012 0.52783 0.52834 0.0
H380 H 0.81371 0.53291 0.37369 0.0
H381 H 0.80699 0.49983 0.4427 0.0
H382 H 0.77993 0.49705 0.52065 0.0
H383 H 0.76777 0.56099 0.45879 0.0
H384 H 0.7306 0.4813 0.28518 0.0
H385 H 0.75678 0.48822 0.2039 0.0
O386 O 0.8348 0.58186 0.34651 0.0
C387 C 0.82233 0.62657 0.29538 0.0
C388 C 0.78852 0.52923 0.2244 0.0
C389 C 0.7495 0.50051 0.27827 0.0
N390 N 0.78333 0.5459 0.30666 0.0
C391 C 0.79777 0.54987 0.26199 0.0
C392 C 0.75941 0.52161 0.31499 0.0
C393 C 0.7642 0.5044 0.23269 0.0
C394 C 0.80719 0.65137 0.4548 0.0
N395 N 0.82684 0.65967 0.41722 0.0
C396 C 0.79298 0.66556 0.46319 0.0
C397 C 0.79889 0.68833 0.43263 0.0
C398 C 0.81882 0.69659 0.39414 0.0
C399 C 0.83261 0.6819 0.38688 0.0
C400 C 0.91434 0.71752 0.43318 0.0
C401 C 0.89801 0.67641 0.35949 0.0
C402 C 0.88893 0.6932 0.43669 0.0
N403 N 0.88099 0.67307 0.39995 0.0
C404 C 0.92358 0.70046 0.35473 0.0
C405 C 0.93174 0.72113 0.39186 0.0
C406 C 0.85907 0.5974 0.36375 0.0
C407 C 0.77193 0.52883 0.49455 0.0
C408 C 0.8022 0.5321 0.40775 0.0
C409 C 0.79832 0.51318 0.44657 0.0
C410 C 0.78309 0.5116 0.49025 0.0
N411 N 0.79125 0.54899 0.41231 0.0
C412 C 0.77623 0.54748 0.45493 0.0
Co413 Co 0.42692 0.22222 0.36714 0.0
Co414 Co 0.36377 0.2051 0.42149 0.0
O415 O 0.39906 0.20532 0.42231 0.0
C416 C 0.41996 0.16577 0.37155 0.0
O417 O 0.39315 0.15533 0.37337 0.0
C418 C 0.38157 0.2144 0.53411 0.0
O419 O 0.40494 0.21546 0.52345 0.0
O420 O 0.38344 0.24594 0.40922 0.0
O421 O 0.41902 0.25303 0.35904 0.0
H422 H 0.29611 0.22981 0.34759 0.0
H423 H 0.44389 0.20774 0.46508 0.0
O424 O 0.43599 0.19183 0.37196 0.0
H425 H 0.5033 0.30852 0.44835 0.0
H426 H 0.51854 0.25183 0.28317 0.0
H427 H 0.42949 0.24872 0.26643 0.0
H428 H 0.46883 0.28173 0.38141 0.0
H429 H 0.48361 0.23129 0.35189 0.0
O430 O 0.36497 0.21186 0.49812 0.0
H431 H 0.33942 0.22856 0.35054 0.0
H432 H 0.31403 0.18236 0.48982 0.0
H433 H 0.46391 0.26967 0.19698 0.0
H434 H 0.47836 0.23369 0.53268 0.0
H435 H 0.50883 0.2713 0.20508 0.0
H436 H 0.50829 0.28447 0.5246 0.0
O437 O 0.39899 0.201 0.31338 0.0
H438 H 0.34961 0.11704 0.50239 0.0
H439 H 0.31283 0.15735 0.37872 0.0
H440 H 0.2885 0.10703 0.39116 0.0
H441 H 0.30679 0.08652 0.45361 0.0
H442 H 0.37346 0.16709 0.48821 0.0
H443 H 0.27066 0.18345 0.48869 0.0
H444 H 0.26139 0.20717 0.41706 0.0
O445 O 0.36009 0.19746 0.34562 0.0
C446 C 0.40337 0.26091 0.37893 0.0
C447 C 0.29988 0.21934 0.37893 0.0
C448 C 0.28561 0.19337 0.45817 0.0
N449 N 0.32922 0.20527 0.42009 0.0
C450 C 0.32432 0.21848 0.38071 0.0
C451 C 0.31029 0.19292 0.45869 0.0
C452 C 0.28042 0.20666 0.41795 0.0
C453 C 0.45698 0.2298 0.46116 0.0
N454 N 0.4543 0.24319 0.41946 0.0
C455 C 0.4764 0.2444 0.49962 0.0
C456 C 0.49316 0.2729 0.4951 0.0
C457 C 0.49034 0.28641 0.45236 0.0
C458 C 0.47069 0.27114 0.4147 0.0
C459 C 0.49904 0.25123 0.27917 0.0
C460 C 0.44898 0.24939 0.27029 0.0
C461 C 0.47913 0.23954 0.31789 0.0
N462 N 0.45448 0.23877 0.31318 0.0
C463 C 0.4684 0.26127 0.23081 0.0
C464 C 0.49359 0.26217 0.23538 0.0
C465 C 0.37379 0.19442 0.30951 0.0
C466 C 0.34131 0.12574 0.47535 0.0
C467 C 0.32099 0.14866 0.40593 0.0
C468 C 0.30707 0.12011 0.41286 0.0
C469 C 0.31733 0.10862 0.44789 0.0
N470 N 0.34442 0.16542 0.43326 0.0
C471 C 0.35467 0.15421 0.46741 0.0
Co472 Co 0.78972 0.20384 0.40054 0.0
Co473 Co 0.81025 0.15807 0.44003 0.0
O474 O 0.81022 0.193 0.44734 0.0
C475 C 0.84414 0.25597 0.38614 0.0
O476 O 0.85498 0.24169 0.36781 0.0
C477 C 0.79551 0.15691 0.55134 0.0
O478 O 0.77759 0.16431 0.53764 0.0
O479 O 0.76894 0.13649 0.43852 0.0
O480 O 0.75899 0.16504 0.39482 0.0
H481 H 0.78092 0.06537 0.36147 0.0
H482 H 0.80992 0.23306 0.50025 0.0
O483 O 0.81969 0.24366 0.40423 0.0
H484 H 0.70889 0.19114 0.5064 0.0
H485 H 0.75316 0.26472 0.33912 0.0
H486 H 0.75805 0.18081 0.3036 0.0
H487 H 0.73152 0.18564 0.42939 0.0
H488 H 0.77819 0.25039 0.39815 0.0
O489 O 0.81005 0.15384 0.51717 0.0
H490 H 0.78149 0.10944 0.37127 0.0
H491 H 0.83907 0.13262 0.49432 0.0
H492 H 0.73254 0.19422 0.24387 0.0
H493 H 0.78815 0.23934 0.57791 0.0
H494 H 0.73 0.23647 0.26143 0.0
H495 H 0.73727 0.21822 0.58133 0.0
O496 O 0.80737 0.19782 0.33941 0.0
H497 H 0.90231 0.23068 0.50791 0.0
H498 H 0.85481 0.15799 0.37692 0.0
H499 H 0.90554 0.18531 0.37704 0.0
H500 H 0.92965 0.22194 0.44303 0.0
H501 H 0.85156 0.20303 0.50593 0.0
H502 H 0.83887 0.08867 0.48624 0.0
H503 H 0.80974 0.05473 0.41927 0.0
O504 O 0.81128 0.16132 0.36289 0.0
C505 C 0.75233 0.14155 0.41358 0.0
C506 C 0.79374 0.08001 0.39073 0.0
C507 C 0.82624 0.09307 0.46081 0.0
N508 N 0.81038 0.12364 0.43316 0.0
C509 C 0.7942 0.10503 0.39639 0.0
C510 C 0.82618 0.11788 0.46533 0.0
C511 C 0.8099 0.07405 0.4232 0.0
C512 C 0.7878 0.22405 0.50131 0.0
N513 N 0.77204 0.20913 0.46028 0.0
C514 C 0.77557 0.22758 0.54544 0.0
C515 C 0.74702 0.21568 0.54737 0.0
C516 C 0.73108 0.20048 0.50535 0.0
C517 C 0.74401 0.19737 0.4619 0.0
C518 C 0.75412 0.24627 0.33104 0.0
C519 C 0.75697 0.19917 0.31165 0.0
C520 C 0.76837 0.23811 0.36422 0.0
N521 N 0.7696 0.21478 0.35439 0.0
C522 C 0.74252 0.20668 0.27762 0.0
C523 C 0.74112 0.2304 0.28747 0.0
C524 C 0.81221 0.17838 0.32915 0.0
C525 C 0.89205 0.21479 0.47896 0.0
C526 C 0.86511 0.17404 0.40538 0.0
C527 C 0.89386 0.18937 0.40546 0.0
C528 C 0.90738 0.20989 0.44252 0.0
N529 N 0.85022 0.17895 0.44124 0.0
C530 C 0.86333 0.19903 0.4777 0.0
Co531 Co 0.91248 0.45865 0.27788 0.0
Co532 Co 0.97952 0.50705 0.24296 0.0
O533 O 0.94553 0.47112 0.23502 0.0
C534 C 0.92538 0.41356 0.29514 0.0
O535 O 0.95178 0.43187 0.29568 0.0
C536 C 0.96454 0.50777 0.13269 0.0
O537 O 0.93883 0.49776 0.14715 0.0
O538 O 0.9585 0.52732 0.24696 0.0
O539 O 0.91592 0.49556 0.27283 0.0
H540 H 0.04028 0.59939 0.32544 0.0
H541 H 0.9099 0.42581 0.18641 0.0
O542 O 0.90765 0.42083 0.28545 0.0
H543 H 0.84182 0.45516 0.1533 0.0
H544 H 0.81584 0.39152 0.33593 0.0
H545 H 0.8973 0.48341 0.36391 0.0
H546 H 0.86852 0.46801 0.23439 0.0
H547 H 0.85736 0.40742 0.28218 0.0
O548 O 0.98301 0.51239 0.16612 0.0
H549 H 0.9978 0.55446 0.31437 0.0
H550 H 0.03358 0.53534 0.18799 0.0
H551 H 0.8561 0.46844 0.41817 0.0
H552 H 0.88347 0.41227 0.10489 0.0
H553 H 0.81499 0.42217 0.40437 0.0
H554 H 0.8492 0.42706 0.0879 0.0
O555 O 0.93472 0.47004 0.34253 0.0
H556 H 1.00315 0.43856 0.16904 0.0
H557 H 0.02526 0.50846 0.30452 0.0
H558 H 0.05058 0.48305 0.30177 0.0
H559 H 0.0396 0.44783 0.23354 0.0
H560 H 0.97811 0.46425 0.17369 0.0
H561 H 0.07631 0.58019 0.19732 0.0
H562 H 0.07991 0.61252 0.26661 0.0
O563 O 0.97742 0.50267 0.3193 0.0
C564 C 0.93398 0.52008 0.26097 0.0
C565 C 0.03899 0.58546 0.29517 0.0
C566 C 0.05919 0.5747 0.22321 0.0
N567 N 0.01324 0.54224 0.25073 0.0
C568 C 0.01501 0.55996 0.28879 0.0
C569 C 0.0349 0.54937 0.21799 0.0
C570 C 0.0612 0.59282 0.26212 0.0
C571 C 0.89483 0.43207 0.17943 0.0
N572 N 0.89064 0.44753 0.21516 0.0
C573 C 0.88001 0.42445 0.13315 0.0
C574 C 0.86081 0.43278 0.12361 0.0
C575 C 0.85666 0.44856 0.16028 0.0
C576 C 0.87188 0.45582 0.20608 0.0
C577 C 0.8336 0.41174 0.34227 0.0
C578 C 0.87943 0.46331 0.35744 0.0
C579 C 0.8572 0.42084 0.31202 0.0
N580 N 0.87968 0.44638 0.3197 0.0
C581 C 0.85619 0.45492 0.38839 0.0
C582 C 0.83314 0.42895 0.38065 0.0
C583 C 0.95963 0.48787 0.35313 0.0
C584 C 0.00812 0.45385 0.19895 0.0
C585 C 0.02019 0.493 0.27508 0.0
C586 C 0.0347 0.47877 0.27352 0.0
C587 C 0.02855 0.45904 0.23519 0.0
N588 N 1.00015 0.48777 0.23948 0.0
C589 C 0.99406 0.46851 0.2017 0.0
Co590 Co 0.53579 0.45222 0.28654 0.0
Co591 Co 0.48825 0.47059 0.24686 0.0
O592 O 0.52366 0.47156 0.2394 0.0
C593 C 0.58438 0.50929 0.29084 0.0
O594 O 0.56765 0.51926 0.29366 0.0
C595 C 0.48733 0.45507 0.1357 0.0
O596 O 0.49615 0.4383 0.14971 0.0
O597 O 0.46763 0.4292 0.25047 0.0
O598 O 0.49764 0.42027 0.29144 0.0
H599 H 0.39588 0.44006 0.32716 0.0
H600 H 0.56518 0.47365 0.18761 0.0
O601 O 0.57485 0.48353 0.28447 0.0
H602 H 0.52755 0.37307 0.18041 0.0
H603 H 0.60004 0.42013 0.34957 0.0
H604 H 0.51335 0.41985 0.38279 0.0
H605 H 0.52032 0.39463 0.25731 0.0
H606 H 0.58432 0.44388 0.29027 0.0
O607 O 0.48328 0.46909 0.16966 0.0
H608 H 0.44045 0.4418 0.31712 0.0
H609 H 0.46109 0.49738 0.19134 0.0
H610 H 0.52817 0.3956 0.44278 0.0
H611 H 0.57315 0.45296 0.11005 0.0
H612 H 0.57182 0.39566 0.42635 0.0
H613 H 0.55419 0.40231 0.10611 0.0
O614 O 0.52883 0.46932 0.34747 0.0
H615 H 0.55832 0.5624 0.17391 0.0
H616 H 0.48745 0.5155 0.30782 0.0
H617 H 0.51367 0.56631 0.30516 0.0
H618 H 0.54938 0.59011 0.23771 0.0
H619 H 0.53181 0.5116 0.17849 0.0
H620 H 0.41662 0.49599 0.19965 0.0
H621 H 0.38371 0.46726 0.26811 0.0
O622 O 0.49223 0.473 0.32404 0.0
C623 C 0.47373 0.41298 0.27419 0.0
C624 C 0.41007 0.45269 0.29725 0.0
C625 C 0.42169 0.48405 0.22563 0.0
N626 N 0.45341 0.46976 0.25385 0.0
C627 C 0.43536 0.45381 0.29145 0.0
C628 C 0.4468 0.48468 0.221 0.0
C629 C 0.40324 0.46794 0.26407 0.0
C630 C 0.55711 0.45163 0.1863 0.0
N631 N 0.54243 0.4354 0.22696 0.0
C632 C 0.56159 0.44002 0.14224 0.0
C633 C 0.5509 0.41159 0.14002 0.0
C634 C 0.53594 0.39517 0.18168 0.0
C635 C 0.53186 0.40749 0.22508 0.0
C636 C 0.58096 0.41992 0.3571 0.0
C637 C 0.5323 0.41984 0.3752 0.0
C638 C 0.57198 0.43339 0.32373 0.0
N639 N 0.54787 0.43316 0.33292 0.0
C640 C 0.54061 0.40613 0.40939 0.0
C641 C 0.56512 0.40619 0.40017 0.0
C642 C 0.50948 0.47424 0.35768 0.0
C643 C 0.54282 0.55228 0.20348 0.0
C644 C 0.50312 0.52569 0.27874 0.0
C645 C 0.51781 0.55448 0.27721 0.0
C646 C 0.53781 0.56781 0.23932 0.0
N647 N 0.50816 0.51059 0.24353 0.0
C648 C 0.52769 0.52352 0.20618 0.0
Co649 Co 0.54464 0.02842 0.27103 0.0
Co650 Co 0.56311 0.09385 0.31446 0.0
O651 O 0.54487 0.06354 0.26409 0.0
C652 C 0.54993 0.03994 0.15509 0.0
O653 O 0.54796 0.06216 0.16055 0.0
C654 C 0.50838 0.09171 0.31927 0.0
O655 O 0.4967 0.06655 0.33789 0.0
O656 O 0.5424 0.06872 0.3722 0.0
O657 O 0.53934 0.02876 0.34761 0.0
H658 H 0.61287 0.13812 0.47975 0.0
H659 H 0.50413 0.03519 0.20543 0.0
O660 O 0.54967 0.02599 0.19424 0.0
H661 H 0.44798 0.95446 0.31529 0.0
H662 H 0.52148 0.93227 0.21989 0.0
H663 H 0.56984 0.00758 0.34595 0.0
H664 H 0.4985 0.97943 0.32213 0.0
H665 H 0.52042 0.97555 0.21131 0.0
O666 O 0.53354 0.10389 0.30496 0.0
H667 H 0.59028 0.10049 0.41623 0.0
H668 H 0.57409 0.15174 0.31889 0.0
H669 H 0.5711 0.96448 0.35635 0.0
H670 H 0.45385 0.01059 0.19666 0.0
H671 H 0.54682 0.92646 0.29299 0.0
H672 H 0.42524 0.96985 0.25187 0.0
O673 O 0.58565 0.04854 0.27946 0.0
H674 H 0.57407 0.1371 0.1397 0.0
H675 H 0.62269 0.13398 0.29607 0.0
H676 H 0.6493 0.16469 0.22429 0.0
H677 H 0.62497 0.16645 0.14543 0.0
H678 H 0.54828 0.10644 0.21224 0.0
H679 H 0.59624 0.18984 0.38163 0.0
H680 H 0.61594 0.18321 0.46267 0.0
O681 O 0.59331 0.08541 0.32627 0.0
C682 C 0.53682 0.04407 0.38117 0.0
C683 C 0.60438 0.14128 0.44457 0.0
C684 C 0.59502 0.17029 0.38953 0.0
N685 N 0.58086 0.12387 0.36383 0.0
C686 C 0.5916 0.12005 0.40839 0.0
C687 C 0.5824 0.14859 0.35423 0.0
C688 C 0.60608 0.16656 0.43498 0.0
C689 C 0.49218 0.01727 0.22891 0.0
N690 N 0.50465 0.00851 0.26334 0.0
C691 C 0.46352 0.00349 0.22408 0.0
C692 C 0.44747 0.98069 0.25514 0.0
C693 C 0.46021 0.97206 0.2907 0.0
C694 C 0.48891 0.98635 0.29443 0.0
C695 C 0.53212 0.94868 0.24777 0.0
C696 C 0.55905 0.99106 0.31843 0.0
C697 C 0.5317 0.97329 0.24299 0.0
N698 N 0.54492 0.99404 0.2783 0.0
C699 C 0.55992 0.96673 0.32442 0.0
C700 C 0.54632 0.94542 0.28882 0.0
C701 C 0.6009 0.06916 0.30816 0.0
C702 C 0.58491 0.13653 0.17387 0.0
C703 C 0.61195 0.13443 0.26173 0.0
C704 C 0.62713 0.15197 0.22129 0.0
C705 C 0.61347 0.15297 0.17708 0.0
N706 N 0.58394 0.11836 0.25827 0.0
C707 C 0.57041 0.11926 0.2151 0.0
Co708 Co 0.50401 0.97404 0.75858 0.0
Co709 Co 0.46266 0.90903 0.70894 0.0
O710 O 0.47034 0.93779 0.76015 0.0
C711 C 0.52449 0.98034 0.86673 0.0
O712 O 0.54709 0.98209 0.84816 0.0
C713 C 0.40946 0.90922 0.69919 0.0
O714 O 0.42318 0.93567 0.68832 0.0
O715 O 0.46829 0.93484 0.65172 0.0
O716 O 0.50387 0.97452 0.68102 0.0
H717 H 0.48008 0.87074 0.54681 0.0
H718 H 0.45545 0.96521 0.81904 0.0
O719 O 0.50435 0.97491 0.83653 0.0
H720 H 0.47351 0.03991 0.69688 0.0
H721 H 0.56636 0.07246 0.81533 0.0
H722 H 0.55576 0.99829 0.6983 0.0
H723 H 0.50338 0.01935 0.69854 0.0
H724 H 0.5239 0.02701 0.81652 0.0
O725 O 0.42229 0.89655 0.71087 0.0
H726 H 0.48957 0.90652 0.61197 0.0
H727 H 0.41869 0.85013 0.69679 0.0
H728 H 0.5985 0.0435 0.69561 0.0
H729 H 0.42523 0.98542 0.81925 0.0
H730 H 0.60402 0.08096 0.75447 0.0
H731 H 0.43412 0.02299 0.75773 0.0
O732 O 0.52718 0.956 0.75768 0.0
H733 H 0.42494 0.86264 0.87945 0.0
H734 H 0.4838 0.87067 0.73147 0.0
H735 H 0.47832 0.83948 0.80334 0.0
H736 H 0.44861 0.83522 0.87794 0.0
H737 H 0.43126 0.89387 0.80692 0.0
H738 H 0.40827 0.81382 0.63222 0.0
H739 H 0.43916 0.82399 0.55668 0.0
O740 O 0.50235 0.92006 0.70495 0.0
C741 C 0.48774 0.95957 0.6449 0.0
C742 C 0.46647 0.86604 0.57958 0.0
C743 C 0.42615 0.83411 0.62747 0.0
N744 N 0.45471 0.88044 0.65821 0.0
C745 C 0.47176 0.88621 0.61668 0.0
C746 C 0.43209 0.8548 0.66381 0.0
C747 C 0.4435 0.83983 0.58512 0.0
C748 C 0.45955 0.98165 0.79233 0.0
N749 N 0.48116 0.99104 0.7587 0.0
C750 C 0.44232 0.99298 0.79256 0.0
C751 C 0.44731 0.01403 0.75799 0.0
C752 C 0.46938 0.02351 0.72381 0.0
C753 C 0.48615 0.01168 0.72468 0.0
C754 C 0.56421 0.05631 0.78951 0.0
C755 C 0.55799 0.01449 0.72399 0.0
C756 C 0.54024 0.03051 0.79007 0.0
N757 N 0.53736 0.00998 0.75754 0.0
C758 C 0.58224 0.04005 0.7223 0.0
C759 C 0.58533 0.06106 0.75535 0.0
C760 C 0.52452 0.9364 0.72858 0.0
C761 C 0.43788 0.86427 0.8471 0.0
C762 C 0.47095 0.86906 0.7639 0.0
C763 C 0.46787 0.85129 0.80443 0.0
C764 C 0.45119 0.84891 0.84625 0.0
N765 N 0.45775 0.88398 0.76494 0.0
C766 C 0.44146 0.88184 0.80589 0.0
Co767 Co 0.08152 0.5482 0.70037 0.0
Co768 Co 0.01566 0.53102 0.73897 0.0
O769 O 0.04961 0.52922 0.74654 0.0
C770 C 0.06874 0.49001 0.69549 0.0
O771 O 0.04246 0.48226 0.69499 0.0
C772 C 0.03101 0.54618 0.8496 0.0
O773 O 0.05671 0.56221 0.83532 0.0
O774 O 0.03715 0.57231 0.73513 0.0
O775 O 0.07708 0.58135 0.69793 0.0
H776 H 0.95523 0.56333 0.65861 0.0
H777 H 0.08744 0.52383 0.79747 0.0
O778 O 0.08696 0.51539 0.69988 0.0
H779 H 0.15406 0.62341 0.81135 0.0
H780 H 0.17716 0.57663 0.63829 0.0
H781 H 0.0938 0.58299 0.60678 0.0
H782 H 0.12532 0.60436 0.73336 0.0
H783 H 0.13702 0.55328 0.69619 0.0
O784 O 0.01251 0.53279 0.8159 0.0
H785 H 0.99749 0.56052 0.66858 0.0
H786 H 0.9618 0.50531 0.79465 0.0
H787 H 0.13356 0.60686 0.5482 0.0
H788 H 0.11596 0.54196 0.87605 0.0
H789 H 0.17562 0.60375 0.56379 0.0
H790 H 0.1495 0.5921 0.88336 0.0
O791 O 0.05779 0.5332 0.63854 0.0
H792 H 0.9914 0.43874 0.81325 0.0
H793 H 0.96957 0.48662 0.67774 0.0
H794 H 0.94385 0.4358 0.68087 0.0
H795 H 0.95467 0.41152 0.74913 0.0
H796 H 0.01686 0.48953 0.80818 0.0
H797 H 0.91929 0.50776 0.7864 0.0
H798 H 0.91576 0.53684 0.71784 0.0
O799 O 0.01713 0.52853 0.66206 0.0
C800 C 0.0602 0.58864 0.71379 0.0
C801 C 0.95649 0.55054 0.68856 0.0
C802 C 0.93634 0.51939 0.76034 0.0
N803 N 0.98207 0.53268 0.73198 0.0
C804 C 0.98034 0.54881 0.69431 0.0
C805 C 0.96051 0.51816 0.76493 0.0
C806 C 0.93437 0.53569 0.72184 0.0
C807 C 0.10219 0.54562 0.80023 0.0
N808 N 0.10483 0.56299 0.76084 0.0
C809 C 0.1182 0.55579 0.84487 0.0
C810 C 0.13698 0.58394 0.84898 0.0
C811 C 0.13954 0.60152 0.8086 0.0
C812 C 0.12317 0.59062 0.76458 0.0
C813 C 0.15897 0.57818 0.63115 0.0
C814 C 0.11209 0.58168 0.61402 0.0
C815 C 0.13615 0.56495 0.66374 0.0
N816 N 0.11316 0.56692 0.65508 0.0
C817 C 0.13451 0.59518 0.58062 0.0
C818 C 0.1581 0.5934 0.58936 0.0
C819 C 0.03348 0.52813 0.62833 0.0
C820 C 0.98647 0.44908 0.78335 0.0
C821 C 0.97458 0.47621 0.70718 0.0
C822 C 0.95984 0.44743 0.70897 0.0
C823 C 0.9659 0.43382 0.74731 0.0
N824 N 0.99477 0.49105 0.74258 0.0
C825 C 1.00076 0.47784 0.78039 0.0
Co826 Co 0.45674 0.54337 0.7081 0.0
Co827 Co 0.47172 0.49214 0.74154 0.0
O828 O 0.4753 0.52873 0.75128 0.0
C829 C 0.51555 0.58931 0.69667 0.0
O830 O 0.52437 0.57164 0.69334 0.0
C831 C 0.45566 0.49098 0.85231 0.0
O832 O 0.44122 0.5025 0.83852 0.0
O833 O 0.43039 0.47324 0.73433 0.0
O834 O 0.42252 0.5069 0.7084 0.0
H835 H 0.43828 0.40097 0.65296 0.0
H836 H 0.48487 0.57169 0.8046 0.0
O837 O 0.49028 0.58105 0.70558 0.0
H838 H 0.38824 0.54821 0.82714 0.0
H839 H 0.43129 0.6139 0.65213 0.0
H840 H 0.41915 0.52186 0.61795 0.0
H841 H 0.40351 0.53694 0.74608 0.0
H842 H 0.45445 0.59557 0.70673 0.0
O843 O 0.46845 0.48532 0.81827 0.0
H844 H 0.44271 0.44661 0.66622 0.0
H845 H 0.49431 0.4608 0.7964 0.0
H846 H 0.39533 0.53927 0.56282 0.0
H847 H 0.47065 0.5837 0.88619 0.0
H848 H 0.40137 0.58563 0.57971 0.0
H849 H 0.42197 0.57181 0.89792 0.0
O850 O 0.46892 0.53315 0.64348 0.0
H851 H 0.56349 0.55667 0.8222 0.0
H852 H 0.51599 0.48943 0.68247 0.0
H853 H 0.56663 0.51291 0.68862 0.0
H854 H 0.59072 0.54677 0.75902 0.0
H855 H 0.5129 0.53295 0.81414 0.0
H856 H 0.4902 0.4152 0.78485 0.0
H857 H 0.46211 0.38498 0.71257 0.0
O858 O 0.47568 0.49811 0.66542 0.0
C859 C 0.41431 0.48175 0.71866 0.0
C860 C 0.4506 0.41396 0.68456 0.0
C861 C 0.4797 0.42193 0.75863 0.0
N862 N 0.46878 0.45639 0.73197 0.0
C863 C 0.45323 0.43985 0.6922 0.0
C864 C 0.48186 0.44769 0.7651 0.0
C865 C 0.46396 0.40499 0.71805 0.0
C866 C 0.46369 0.56658 0.80939 0.0
N867 N 0.44495 0.55338 0.77084 0.0
C868 C 0.45574 0.57338 0.85568 0.0
C869 C 0.42842 0.56667 0.86226 0.0
C870 C 0.40948 0.55338 0.8226 0.0
C871 C 0.41817 0.54686 0.77691 0.0
C872 C 0.42847 0.59366 0.64441 0.0
C873 C 0.42176 0.54199 0.62577 0.0
C874 C 0.44161 0.58319 0.6751 0.0
N875 N 0.43809 0.55761 0.66568 0.0
C876 C 0.40827 0.55176 0.59432 0.0
C877 C 0.41168 0.57778 0.6038 0.0
C878 C 0.47482 0.5145 0.63229 0.0
C879 C 0.55324 0.54197 0.79134 0.0
C880 C 0.52633 0.50434 0.71281 0.0
C881 C 0.55501 0.51746 0.71631 0.0
C882 C 0.56851 0.53643 0.75585 0.0
N883 N 0.5115 0.50991 0.74769 0.0
C884 C 0.52459 0.52843 0.78664 0.0
Co885 Co 0.58138 0.80194 0.63167 0.0
Co886 Co 0.64671 0.85102 0.59102 0.0
O887 O 0.61232 0.81548 0.58256 0.0
C888 C 0.5863 0.75075 0.63659 0.0
O889 O 0.61128 0.7651 0.6557 0.0
C890 C 0.6356 0.84612 0.47499 0.0
O891 O 0.6135 0.82175 0.4796 0.0
O892 O 0.62551 0.87074 0.59987 0.0
O893 O 0.588 0.84001 0.64336 0.0
H894 H 0.70798 0.94121 0.6802 0.0
H895 H 0.57087 0.77476 0.52931 0.0
O896 O 0.57323 0.76283 0.62221 0.0
H897 H 0.50927 0.81372 0.53781 0.0
H898 H 0.48561 0.73544 0.69484 0.0
H899 H 0.57227 0.82142 0.73252 0.0
H900 H 0.53972 0.81908 0.61096 0.0
H901 H 0.52451 0.75315 0.63389 0.0
O902 O 0.64947 0.85935 0.5146 0.0
H903 H 0.66574 0.89624 0.66765 0.0
H904 H 0.69987 0.88162 0.53311 0.0
H905 H 0.53379 0.80462 0.79426 0.0
H906 H 0.54048 0.76862 0.45546 0.0
H907 H 0.49006 0.76129 0.77564 0.0
H908 H 0.50945 0.78826 0.45939 0.0
O909 O 0.60612 0.80725 0.69074 0.0
H910 H 0.66794 0.78115 0.51311 0.0
H911 H 0.69574 0.85459 0.64319 0.0
H912 H 0.72186 0.83025 0.63559 0.0
H913 H 0.70814 0.79331 0.56988 0.0
H914 H 0.64217 0.80562 0.52265 0.0
H915 H 0.7423 0.92659 0.54385 0.0
H916 H 0.74663 0.95666 0.618 0.0
O917 O 0.64598 0.84462 0.6673 0.0
C918 C 0.6041 0.86428 0.62683 0.0
C919 C 0.70638 0.92825 0.64783 0.0
C920 C 0.72562 0.92007 0.57125 0.0
N921 N 0.68038 0.88622 0.59992 0.0
C922 C 0.68254 0.90273 0.64061 0.0
C923 C 0.70148 0.89468 0.56524 0.0
C924 C 0.72804 0.93692 0.61288 0.0
C925 C 0.5573 0.78321 0.53141 0.0
N926 N 0.55713 0.7973 0.57433 0.0
C927 C 0.5402 0.77974 0.48942 0.0
C928 C 0.52282 0.7908 0.49163 0.0
C929 C 0.52273 0.80511 0.53559 0.0
C930 C 0.54013 0.80819 0.57681 0.0
C931 C 0.50457 0.75432 0.70345 0.0
C932 C 0.55332 0.80259 0.72405 0.0
C933 C 0.52673 0.76439 0.66917 0.0
N934 N 0.55072 0.78827 0.67965 0.0
C935 C 0.53159 0.79315 0.7592 0.0
C936 C 0.50707 0.76884 0.74874 0.0
C937 C 0.63053 0.8266 0.70043 0.0
C938 C 0.67427 0.79737 0.54161 0.0
C939 C 0.68953 0.83855 0.61457 0.0
C940 C 0.70448 0.82484 0.61038 0.0
C941 C 0.69678 0.80414 0.57353 0.0
N942 N 0.66763 0.83206 0.58275 0.0
C943 C 0.65982 0.81153 0.54693 0.0
Co944 Co 0.19985 0.78024 0.6276 0.0
Co945 Co 0.15329 0.80029 0.58959 0.0
O946 O 0.18814 0.80029 0.58152 0.0
C947 C 0.24843 0.83699 0.63346 0.0
O948 O 0.23156 0.84672 0.63788 0.0
C949 C 0.15203 0.78443 0.47888 0.0
O950 O 0.16077 0.76764 0.49314 0.0
O951 O 0.13178 0.75894 0.59385 0.0
O952 O 0.16148 0.74872 0.63239 0.0
H953 H 0.06197 0.77238 0.67204 0.0
H954 H 0.22942 0.80226 0.52896 0.0
O955 O 0.23901 0.81133 0.62574 0.0
H956 H 0.19034 0.70154 0.51835 0.0
H957 H 0.26337 0.74662 0.68741 0.0
H958 H 0.17714 0.74687 0.7228 0.0
H959 H 0.18345 0.72272 0.59623 0.0
H960 H 0.24799 0.7713 0.62973 0.0
O961 O 0.14794 0.79852 0.51261 0.0
H962 H 0.10593 0.77293 0.6612 0.0
H963 H 0.12674 0.82769 0.53402 0.0
H964 H 0.19159 0.72168 0.78113 0.0
H965 H 0.23703 0.78196 0.45046 0.0
H966 H 0.23502 0.72148 0.76363 0.0
H967 H 0.21734 0.73124 0.4448 0.0
O968 O 0.1932 0.79693 0.68951 0.0
H969 H 0.2248 0.89111 0.51535 0.0
H970 H 0.15362 0.84606 0.64937 0.0
H971 H 0.18088 0.89683 0.64605 0.0
H972 H 0.21676 0.9197 0.57853 0.0
H973 H 0.19728 0.84038 0.52062 0.0
H974 H 0.08288 0.82747 0.54311 0.0
H975 H 0.0502 0.79977 0.61269 0.0
O976 O 0.15788 0.80298 0.66661 0.0
C977 C 0.1375 0.74218 0.61654 0.0
C978 C 0.07607 0.78458 0.64165 0.0
C979 C 0.08779 0.81546 0.56924 0.0
N980 N 0.11895 0.80042 0.5972 0.0
C981 C 0.10102 0.78503 0.63541 0.0
C982 C 0.11255 0.81542 0.56416 0.0
C983 C 0.06947 0.79993 0.6083 0.0
C984 C 0.22103 0.7802 0.52692 0.0
N985 N 0.20613 0.76371 0.56716 0.0
C986 C 0.22531 0.76882 0.48232 0.0
C987 C 0.21421 0.74035 0.47913 0.0
C988 C 0.19904 0.72367 0.52037 0.0
C989 C 0.19515 0.73578 0.56432 0.0
C990 C 0.24439 0.74654 0.69543 0.0
C991 C 0.19599 0.74677 0.71474 0.0
C992 C 0.23562 0.76054 0.66299 0.0
N993 N 0.21164 0.76047 0.67278 0.0
C994 C 0.2041 0.73251 0.748 0.0
C995 C 0.22848 0.73243 0.73818 0.0
C996 C 0.17465 0.80297 0.70003 0.0
C997 C 0.20926 0.8814 0.54498 0.0
C998 C 0.1694 0.85585 0.62035 0.0
C999 C 0.18466 0.88461 0.61841 0.0
C1000 C 0.20475 0.89742 0.58048 0.0
N1001 N 0.17399 0.84026 0.58555 0.0
C1002 C 0.19357 0.85268 0.5481 0.0
Co1003 Co 0.20805 0.35746 0.59865 0.0
Co1004 Co 0.20374 0.41483 0.6307 0.0
O1005 O 0.19474 0.38353 0.58501 0.0
C1006 C 0.22039 0.37146 0.4869 0.0
O1007 O 0.23123 0.39764 0.49897 0.0
C1008 C 0.14962 0.40969 0.6527 0.0
O1009 O 0.15312 0.40418 0.70041 0.0
O1010 O 0.18838 0.38899 0.68985 0.0
O1011 O 0.20417 0.3599 0.67503 0.0
H1012 H 0.24044 0.46926 0.7947 0.0
H1013 H 0.16146 0.34223 0.52639 0.0
O1014 O 0.21141 0.35331 0.52235 0.0
H1015 H 0.12472 0.2708 0.66181 0.0
H1016 H 0.21433 0.2723 0.56409 0.0
H1017 H 0.24637 0.35463 0.67424 0.0
H1018 H 0.17302 0.30853 0.66475 0.0
H1019 H 0.19763 0.3049 0.54928 0.0
O1020 O 0.16661 0.41164 0.6176 0.0
H1021 H 0.22891 0.43077 0.7347 0.0
H1022 H 0.19834 0.46536 0.62544 0.0
H1023 H 0.26343 0.32245 0.69061 0.0
H1024 H 0.1131 0.30466 0.52167 0.0
H1025 H 0.24741 0.28093 0.63531 0.0
H1026 H 0.09442 0.26862 0.58977 0.0
O1027 O 0.2473 0.38832 0.60343 0.0
H1028 H 0.20192 0.44468 0.4487 0.0
H1029 H 0.25621 0.46758 0.60938 0.0
H1030 H 0.27561 0.49788 0.53358 0.0
H1031 H 0.24834 0.48654 0.45249 0.0
H1032 H 0.18352 0.41473 0.52534 0.0
H1033 H 0.20929 0.50408 0.68439 0.0
H1034 H 0.23057 0.50624 0.76972 0.0
O1035 O 0.24086 0.41964 0.64528 0.0
C1036 C 0.19296 0.3699 0.70396 0.0
C1037 C 0.23115 0.46853 0.75765 0.0
C1038 C 0.21367 0.48808 0.69576 0.0
N1039 N 0.21286 0.44572 0.67664 0.0
C1040 C 0.22458 0.44679 0.7235 0.0
C1041 C 0.20744 0.46605 0.66257 0.0
C1042 C 0.22561 0.48928 0.74362 0.0
C1043 C 0.15355 0.32653 0.55598 0.0
N1044 N 0.17012 0.32751 0.5956 0.0
C1045 C 0.12612 0.30535 0.55319 0.0
C1046 C 0.11564 0.28515 0.59143 0.0
C1047 C 0.13262 0.28636 0.63187 0.0
C1048 C 0.15995 0.30783 0.63339 0.0
C1049 C 0.22147 0.29031 0.58846 0.0
C1050 C 0.23921 0.33656 0.65011 0.0
C1051 C 0.21215 0.30891 0.58016 0.0
N1052 N 0.22096 0.33164 0.61094 0.0
C1053 C 0.24899 0.31844 0.65952 0.0
C1054 C 0.24001 0.29516 0.62844 0.0
C1055 C 0.2563 0.41028 0.6305 0.0
C1056 C 0.21398 0.44987 0.48383 0.0
C1057 C 0.24436 0.46235 0.57417 0.0
C1058 C 0.25537 0.47968 0.53141 0.0
C1059 C 0.24004 0.47333 0.48596 0.0
N1060 N 0.21877 0.4394 0.57182 0.0
C1061 C 0.20363 0.43306 0.5274 0.0
H1062 H 0.1975 0.31887 0.44966 0.0
H1063 H 0.23396 0.40361 0.40009 0.0
H1064 H 0.22537 0.38859 0.31 0.0
H1065 H 0.20694 0.35152 0.24541 0.0
H1066 H 0.17067 0.26675 0.29454 0.0
H1067 H 0.17968 0.28175 0.38475 0.0
C1068 C 0.20373 0.33414 0.41922 0.0
C1069 C 0.21645 0.36243 0.43191 0.0
C1070 C 0.19862 0.32533 0.36739 0.0
C1071 C 0.22425 0.38177 0.3917 0.0
C1072 C 0.21926 0.37317 0.34009 0.0
C1073 C 0.20094 0.33623 0.27572 0.0
C1074 C 0.18803 0.30795 0.26293 0.0
C1075 C 0.20633 0.34501 0.3275 0.0
C1076 C 0.18058 0.28859 0.30303 0.0
C1077 C 0.18576 0.29718 0.3547 0.0
H1078 H 0.63785 0.81798 0.39173 0.0
H1079 H 0.65977 0.89957 0.44338 0.0
H1080 H 0.68062 0.91866 0.35923 0.0
H1081 H 0.69277 0.91202 0.27052 0.0
H1082 H 0.67414 0.83065 0.22262 0.0
H1083 H 0.65234 0.8118 0.30546 0.0
C1084 C 0.64693 0.83989 0.38424 0.0
C1085 C 0.64682 0.85729 0.42321 0.0
C1086 C 0.65984 0.85084 0.33653 0.0
C1087 C 0.65937 0.88575 0.41366 0.0
C1088 C 0.67138 0.89667 0.36565 0.0
C1089 C 0.68413 0.89022 0.27841 0.0
C1090 C 0.68519 0.87287 0.24018 0.0
C1091 C 0.67185 0.87943 0.32676 0.0
C1092 C 0.67393 0.84463 0.25126 0.0
C1093 C 0.66121 0.83372 0.29862 0.0
H1094 H 0.12589 0.81006 0.43809 0.0
H1095 H 0.16867 0.76707 0.39448 0.0
H1096 H 0.16335 0.77478 0.30325 0.0
H1097 H 0.14732 0.79446 0.23587 0.0
H1098 H 0.10347 0.83637 0.27947 0.0
H1099 H 0.10846 0.82831 0.37066 0.0
C1100 C 0.13404 0.80232 0.40869 0.0
C1101 C 0.14778 0.78806 0.42332 0.0
C1102 C 0.13076 0.80668 0.35624 0.0
C1103 C 0.15797 0.77803 0.3845 0.0
C1104 C 0.155 0.78251 0.33226 0.0
C1105 C 0.13884 0.80186 0.26526 0.0
C1106 C 0.12513 0.81615 0.25067 0.0
C1107 C 0.14156 0.79693 0.31768 0.0
C1108 C 0.11407 0.82531 0.28943 0.0
C1109 C 0.11696 0.82075 0.34166 0.0
H1110 H 0.34293 0.22527 0.5729 0.0
H1111 H 0.39739 0.19513 0.61639 0.0
H1112 H 0.37732 0.18447 0.70294 0.0
H1113 H 0.34401 0.18322 0.76595 0.0
H1114 H 0.29309 0.21799 0.72599 0.0
H1115 H 0.31142 0.22655 0.63782 0.0
C1116 C 0.35057 0.21659 0.60149 0.0
C1117 C 0.37169 0.21106 0.58819 0.0
C1118 C 0.3392 0.21087 0.65146 0.0
C1119 C 0.3814 0.19988 0.62571 0.0
C1120 C 0.36974 0.19353 0.67509 0.0
C1121 C 0.3368 0.19255 0.73793 0.0
C1122 C 0.31699 0.19973 0.75235 0.0
C1123 C 0.3485 0.19875 0.68827 0.0
C1124 C 0.30814 0.21208 0.71567 0.0
C1125 C 0.31876 0.21715 0.66541 0.0
H1126 H 0.82408 0.13342 0.59062 0.0
H1127 H 0.77525 0.16967 0.63669 0.0
H1128 H 0.78213 0.16272 0.72751 0.0
H1129 H 0.80247 0.14694 0.79386 0.0
H1130 H 0.85057 0.10985 0.74793 0.0
H1131 H 0.84339 0.11647 0.65704 0.0
C1132 C 0.81492 0.13983 0.62046 0.0
C1133 C 0.79922 0.15218 0.60662 0.0
C1134 C 0.81881 0.13559 0.67268 0.0
C1135 C 0.78738 0.16011 0.64601 0.0
C1136 C 0.79135 0.15617 0.69803 0.0
C1137 C 0.8114 0.14025 0.76406 0.0
C1138 C 0.82715 0.12797 0.77795 0.0
C1139 C 0.80709 0.14402 0.71182 0.0
C1140 C 0.83834 0.1193 0.73856 0.0
C1141 C 0.83429 0.12315 0.68651 0.0
H1142 H 0.84989 0.65402 0.75368 0.0
H1143 H 0.93452 0.70879 0.71093 0.0
H1144 H 0.92387 0.69252 0.62131 0.0
H1145 H 0.89043 0.66194 0.55556 0.0
H1146 H 0.80721 0.60368 0.60173 0.0
H1147 H 0.8175 0.62163 0.68991 0.0
C1148 C 0.86601 0.66251 0.72475 0.0
C1149 C 0.89292 0.68283 0.73877 0.0
C1150 C 0.86003 0.65209 0.67412 0.0
C1151 C 0.91363 0.69329 0.70095 0.0
C1152 C 0.90756 0.6839 0.64983 0.0
C1153 C 0.87463 0.65307 0.58507 0.0
C1154 C 0.84808 0.63149 0.57211 0.0
C1155 C 0.88086 0.66313 0.63605 0.0
C1156 C 0.82785 0.6201 0.61076 0.0
C1157 C 0.83367 0.6305 0.66112 0.0
H1158 H 0.01633 0.53581 0.09238 0.0
H1159 H 0.93051 0.49274 0.04838 0.0
H1160 H 0.94359 0.50124 0.95731 0.0
H1161 H 0.97928 0.52012 0.89021 0.0
H1162 H 0.06512 0.5638 0.93408 0.0
H1163 H 0.05206 0.55591 0.02525 0.0
C1164 C 1.00044 0.52826 0.06293 0.0
C1165 C 0.97242 0.51353 0.07736 0.0
C1166 C 0.0081 0.53335 0.01061 0.0
C1167 C 0.95219 0.50414 0.03854 0.0
C1168 C 0.95966 0.50896 0.98639 0.0
C1169 C 0.9952 0.52799 0.91963 0.0
C1170 C 0.0232 0.54249 0.90512 0.0
C1171 C 0.98754 0.52343 0.97199 0.0
C1172 C 0.04345 0.55265 0.94398 0.0
C1173 C 0.03598 0.54806 0.99618 0.0
H1174 H 0.46232 0.48201 0.09537 0.0
H1175 H 0.50155 0.43571 0.05077 0.0
H1176 H 0.49489 0.4424 0.95968 0.0
H1177 H 0.47871 0.4621 0.89255 0.0
H1178 H 0.43881 0.50776 0.93727 0.0
H1179 H 0.44489 0.50049 0.02831 0.0
C1180 C 0.46942 0.47332 0.06581 0.0
C1181 C 0.48254 0.45842 0.08018 0.0
C1182 C 0.46539 0.47713 0.01339 0.0
C1183 C 0.49137 0.44722 0.04108 0.0
C1184 C 0.48761 0.45108 0.98888 0.0
C1185 C 0.47126 0.47044 0.92213 0.0
C1186 C 0.45834 0.48555 0.90778 0.0
C1187 C 0.47475 0.46611 0.97456 0.0
C1188 C 0.44874 0.49601 0.94691 0.0
C1189 C 0.45228 0.49192 0.9991 0.0
H1190 H 0.5176 0.03647 0.07412 0.0
H1191 H 0.57972 0.01706 0.12047 0.0
H1192 H 0.57718 0.9964 0.03571 0.0
H1193 H 0.55726 0.98397 0.948 0.0
H1194 H 0.49223 0.99994 0.90481 0.0
H1195 H 0.4956 0.02133 0.98862 0.0
C1196 C 0.53076 0.02796 0.06532 0.0
C1197 C 0.54924 0.02877 0.10295 0.0
C1198 C 0.52838 0.01515 0.01725 0.0
C1199 C 0.56559 0.01694 0.09178 0.0
C1200 C 0.56405 0.00504 0.04344 0.0
C1201 C 0.54367 0.99192 0.95712 0.0
C1202 C 0.52455 0.99032 0.92 0.0
C1203 C 0.54546 0.00395 0.00585 0.0
C1204 C 0.507 1.00063 0.93264 0.0
C1205 C 0.50905 0.01311 0.98051 0.0
H1206 H 0.14087 0.31872 0.92032 0.0
H1207 H 0.21519 0.31423 0.93119 0.0
H1208 H 0.22903 0.33415 0.8448 0.0
H1209 H 0.22002 0.353 0.76654 0.0
H1210 H 0.14766 0.36113 0.75804 0.0
H1211 H 0.13305 0.33994 0.84334 0.0
C1212 C 0.15999 0.32205 0.9034 0.0
C1213 C 0.17694 0.31492 0.9313 0.0
C1214 C 0.16821 0.33433 0.85454 0.0
C1215 C 0.20191 0.31965 0.90995 0.0
C1216 C 0.2098 0.33099 0.86074 0.0
C1217 C 0.20109 0.35015 0.78352 0.0
C1218 C 0.18491 0.35855 0.75635 0.0
C1219 C 0.19314 0.33847 0.83277 0.0
C1220 C 0.16057 0.35507 0.77869 0.0
C1221 C 0.15213 0.34279 0.82722 0.0
H1222 H 0.68372 0.847 0.7291 0.0
H1223 H 0.60159 0.81203 0.79087 0.0
H1224 H 0.62012 0.8207 0.87868 0.0
H1225 H 0.6599 0.84015 0.93729 0.0
H1226 H 0.74161 0.87117 0.87521 0.0
H1227 H 0.72297 0.86234 0.78774 0.0
C1228 C 0.66985 0.84115 0.76168 0.0
C1229 C 0.64137 0.82924 0.7534 0.0
C1230 C 0.68059 0.84565 0.81189 0.0
C1231 C 0.62361 0.82132 0.79616 0.0
C1232 C 0.63421 0.82636 0.84637 0.0
C1233 C 0.67364 0.84472 0.90481 0.0
C1234 C 0.70214 0.85643 0.91301 0.0
C1235 C 0.6627 0.83882 0.85463 0.0
C1236 C 0.71959 0.8622 0.87017 0.0
C1237 C 0.70896 0.85716 0.82008 0.0
H1238 H 0.16631 0.8163 0.93986 0.0
H1239 H 0.13266 0.8665 0.8873 0.0
H1240 H 0.1393 0.85751 0.79772 0.0
H1241 H 0.15325 0.83417 0.73463 0.0
H1242 H 0.19009 0.78693 0.78734 0.0
H1243 H 0.18366 0.79611 0.8769 0.0
C1244 C 0.16066 0.82554 0.90897 0.0
C1245 C 0.14889 0.84197 0.92047 0.0
C1246 C 0.165 0.82072 0.85761 0.0
C1247 C 0.14178 0.85378 0.87969 0.0
C1248 C 0.14549 0.84859 0.8284 0.0
C1249 C 0.16002 0.826 0.76558 0.0
C1250 C 0.17196 0.80974 0.75417 0.0
C1251 C 0.15685 0.83189 0.81695 0.0
C1252 C 0.18083 0.79951 0.79495 0.0
C1253 C 0.17712 0.80471 0.84621 0.0
H1254 H 0.39245 0.21472 0.21425 0.0
H1255 H 0.32315 0.14964 0.29461 0.0
H1256 H 0.29757 0.13366 0.21365 0.0
H1257 H 0.29413 0.13971 0.12076 0.0
H1258 H 0.36232 0.2074 0.04181 0.0
H1259 H 0.38913 0.22068 0.12118 0.0
C1260 C 0.3719 0.19687 0.21379 0.0
C1261 C 0.35959 0.18343 0.26011 0.0
C1262 C 0.35708 0.18831 0.16733 0.0
C1263 C 0.33283 0.16051 0.25938 0.0
C1264 C 0.31825 0.15132 0.2131 0.0
C1265 C 0.31493 0.15723 0.12075 0.0
C1266 C 0.32621 0.17229 0.07511 0.0
C1267 C 0.33002 0.16534 0.16695 0.0
C1268 C 0.35312 0.19518 0.0761 0.0
C1269 C 0.36851 0.2029 0.12158 0.0
H1270 H 0.8291 0.17184 0.08995 0.0
H1271 H 0.8623 0.12148 0.14337 0.0
H1272 H 0.85305 0.12845 0.23273 0.0
H1273 H 0.83452 0.14789 0.29496 0.0
H1274 H 0.80422 0.20086 0.24165 0.0
H1275 H 0.81329 0.19367 0.15248 0.0
C1276 C 0.83437 0.16242 0.12102 0.0
C1277 C 0.84621 0.14603 0.10991 0.0
C1278 C 0.82948 0.16694 0.17219 0.0
C1279 C 0.85322 0.13424 0.15085 0.0
C1280 C 0.84787 0.13815 0.20191 0.0
C1281 C 0.83011 0.15811 0.26404 0.0
C1282 C 0.8187 0.17491 0.2752 0.0
C1283 C 0.83588 0.15435 0.21296 0.0
C1284 C 0.81306 0.18787 0.23433 0.0
C1285 C 0.81819 0.18374 0.18328 0.0
H1286 H 0.84887 0.7031 0.10212 0.0
H1287 H 0.85843 0.63819 0.03296 0.0
H1288 H 0.84322 0.6118 0.1128 0.0
H1289 H 0.82972 0.60827 0.2039 0.0
H1290 H 0.82307 0.67427 0.27456 0.0
H1291 H 0.83443 0.6991 0.19236 0.0
C1292 C 0.84743 0.68309 0.10424 0.0
C1293 C 0.85463 0.67264 0.06133 0.0
C1294 C 0.83918 0.66822 0.1506 0.0
C1295 C 0.85289 0.64676 0.06517 0.0
C1296 C 0.84421 0.6316 0.11088 0.0
C1297 C 0.83023 0.6278 0.20086 0.0
C1298 C 0.82546 0.63946 0.24472 0.0
C1299 C 0.83753 0.64223 0.15395 0.0
C1300 C 0.82678 0.66507 0.24102 0.0
C1301 C 0.83329 0.67923 0.19415 0.0
H1302 H 0.0119 0.51091 0.3891 0.0
H1303 H 0.92752 0.47461 0.43983 0.0
H1304 H 0.943 0.48423 0.52969 0.0
H1305 H 0.98061 0.50399 0.59314 0.0
H1306 H 0.06471 0.53795 0.54172 0.0
H1307 H 0.04909 0.52828 0.45233 0.0
C1308 C 0.99682 0.50497 0.41967 0.0
C1309 C 0.96861 0.49215 0.40768 0.0
C1310 C 0.00581 0.51024 0.47101 0.0
C1311 C 0.94937 0.48442 0.44799 0.0
C1312 C 0.95821 0.49001 0.49934 0.0
C1313 C 0.99554 0.50914 0.56252 0.0
C1314 C 0.0238 0.52168 0.57428 0.0
C1315 C 0.9864 0.50306 0.51122 0.0
C1316 C 0.04283 0.52821 0.53391 0.0
C1317 C 0.03394 0.52272 0.48273 0.0
H1318 H 0.50516 0.49256 0.59692 0.0
H1319 H 0.45671 0.52819 0.54501 0.0
H1320 H 0.46295 0.51866 0.45527 0.0
H1321 H 0.48076 0.49859 0.39227 0.0
H1322 H 0.53148 0.46552 0.44484 0.0
H1323 H 0.52552 0.47552 0.53399 0.0
C1324 C 0.49604 0.49838 0.56609 0.0
C1325 C 0.48033 0.5109 0.57777 0.0
C1326 C 0.49999 0.49316 0.51479 0.0
C1327 C 0.46896 0.51859 0.53712 0.0
C1328 C 0.47241 0.51302 0.48584 0.0
C1329 C 0.49072 0.49375 0.42306 0.0
C1330 C 0.50653 0.48126 0.41163 0.0
C1331 C 0.48768 0.50007 0.47428 0.0
C1332 C 0.51924 0.47517 0.45231 0.0
C1333 C 0.51583 0.48085 0.50339 0.0
H1334 H 0.51678 0.01368 0.61729 0.0
H1335 H 0.47021 0.93162 0.55344 0.0
H1336 H 0.48119 0.95061 0.46626 0.0
H1337 H 0.50533 0.99032 0.40858 0.0
H1338 H 0.54846 0.07257 0.4721 0.0
H1339 H 0.53713 0.05365 0.55941 0.0
C1340 C 0.50869 0.99991 0.58446 0.0
C1341 C 0.49277 0.97123 0.59211 0.0
C1342 C 0.51449 0.011 0.53446 0.0
C1343 C 0.48254 0.95376 0.54883 0.0
C1344 C 0.48883 0.9646 0.49892 0.0
C1345 C 0.5121 0.00414 0.44139 0.0
C1346 C 0.52798 0.03279 0.43374 0.0
C1347 C 0.505 0.99315 0.49133 0.0
C1348 C 0.5363 0.05043 0.47684 0.0
C1349 C 0.52988 0.03962 0.52679 0.0
H1350 H 0.21204 0.26196 0.97166 0.0
H1351 H 0.22102 0.25266 0.13453 0.0
H1352 H 0.24785 0.23005 0.11544 0.0
H1353 H 0.26487 0.20921 0.05203 0.0
H1354 H 0.25811 0.22071 0.88919 0.0
H1355 H 0.23461 0.24666 0.90842 0.0
C1356 C 0.22026 0.2553 1.00289 0.0
C1357 C 0.21444 0.25864 0.05442 0.0
C1358 C 0.23594 0.24275 0.99153 0.0
C1359 C 0.22535 0.25031 0.09467 0.0
C1360 C 0.24053 0.23729 0.0837 0.0
C1361 C 0.25867 0.21786 0.02082 0.0
C1362 C 0.26301 0.21297 0.96924 0.0
C1363 C 0.24542 0.23287 0.03227 0.0
C1364 C 0.25513 0.22439 0.92911 0.0
C1365 C 0.24151 0.239 0.94014 0.0
H1366 H 0.78462 0.05254 0.04254 0.0
H1367 H 0.81464 0.04388 0.89468 0.0
H1368 H 0.79131 0.99382 0.9059 0.0
H1369 H 0.7667 0.9535 0.96123 0.0
H1370 H 0.73688 0.96092 0.11031 0.0
H1371 H 0.75535 0.01044 0.09508 0.0
C1372 C 0.7852 0.03947 0.01223 0.0
C1373 C 0.80077 0.05162 0.96731 0.0
C1374 C 0.77216 0.01066 0.01959 0.0
C1375 C 0.80222 0.03478 0.92889 0.0
C1376 C 0.78913 0.00625 0.93559 0.0
C1377 C 0.76405 0.96585 0.99039 0.0
C1378 C 0.75086 0.95361 0.03727 0.0
C1379 C 0.77474 0.9941 0.98135 0.0
C1380 C 0.74706 0.96985 0.07403 0.0
C1381 C 0.75772 0.99817 0.06536 0.0
H1382 H 0.95355 0.7368 0.04062 0.0
H1383 H 0.97268 0.74174 0.87839 0.0
H1384 H 0.02201 0.76512 0.89873 0.0
H1385 H 0.05963 0.78861 0.96253 0.0
H1386 H 0.04047 0.78198 0.12475 0.0
H1387 H 0.9911 0.75443 0.1049 0.0
C1388 C 0.96856 0.74261 0.00981 0.0
C1389 C 0.95961 0.73783 0.95803 0.0
C1390 C 0.99677 0.75573 0.02192 0.0
C1391 C 0.97912 0.74515 0.91846 0.0
C1392 C 0.0073 0.75864 0.93011 0.0
C1393 C 0.04457 0.7804 0.99345 0.0
C1394 C 0.05343 0.78698 0.04501 0.0
C1395 C 0.01636 0.76461 0.98162 0.0
C1396 C 0.03398 0.77668 0.08493 0.0
C1397 C 0.00582 0.76122 0.07349 0.0
H1398 H 0.78899 0.73576 0.03955 0.0
H1399 H 0.84858 0.79087 0.92865 0.0
H1400 H 0.82824 0.82046 0.93173 0.0
H1401 H 0.79573 0.83257 0.97069 0.0
H1402 H 0.73389 0.7762 0.07659 0.0
H1403 H 0.75286 0.74518 0.07087 0.0
C1404 C 0.79724 0.75402 0.01548 0.0
C1405 C 0.82042 0.76118 0.98424 0.0
C1406 C 0.78525 0.77088 0.01705 0.0
C1407 C 0.83072 0.78479 0.95292 0.0
C1408 C 0.81924 0.80187 0.95495 0.0
C1409 C 0.78638 0.81341 0.99232 0.0
C1410 C 0.76378 0.80679 0.02468 0.0
C1411 C 0.79691 0.79544 0.9877 0.0
C1412 C 0.75141 0.78171 0.05168 0.0
C1413 C 0.76226 0.76404 0.04842 0.0
H1414 H 0.22582 0.95707 0.99014 0.0
H1415 H 0.15947 0.95751 0.07401 0.0
H1416 H 0.18078 0.007 0.06158 0.0
H1417 H 0.21681 0.04985 0.02412 0.0
H1418 H 0.28447 0.05119 0.94267 0.0
H1419 H 0.26412 1.0014 0.95701 0.0
C1420 C 0.21619 0.96803 0.0062 0.0
C1421 C 0.19085 0.95333 0.03259 0.0
C1422 C 0.22863 0.99681 0.99894 0.0
C1423 C 0.17879 0.96804 0.05322 0.0
C1424 C 0.19094 0.99644 0.04605 0.0
C1425 C 0.22711 0.03929 0.00922 0.0
C1426 C 0.2519 0.05415 0.9816 0.0
C1427 C 0.21556 0.01093 0.01829 0.0
C1428 C 0.26527 0.0402 0.96376 0.0
C1429 C 0.25363 0.01174 0.97199 0.0
H1430 H 0.9556 0.19709 0.06982 0.0
H1431 H 0.96913 0.20933 0.9059 0.0
H1432 H 0.0191 0.23537 0.92 0.0
H1433 H 0.05899 0.25183 0.97904 0.0
H1434 H 0.04552 0.24339 0.14341 0.0
H1435 H 0.99552 0.21895 0.12951 0.0
C1436 C 0.96958 0.2059 0.0374 0.0
C1437 C 0.95891 0.20138 0.98691 0.0
C1438 C 0.99822 0.22139 0.04599 0.0
C1439 C 0.97701 0.21281 0.94505 0.0
C1440 C 0.00553 0.22753 0.95313 0.0
C1441 C 0.04502 0.24498 0.01173 0.0
C1442 C 0.05577 0.24925 0.06216 0.0
C1443 C 0.01638 0.23156 1.00338 0.0
C1444 C 0.03763 0.24047 0.10431 0.0
C1445 C 0.00908 0.22637 0.09632 0.0
H1446 H 0.86109 0.5744 0.27368 0.0
H1447 H 0.90468 0.60481 0.41763 0.0
H1448 H 0.93537 0.58703 0.39434 0.0
H1449 H 0.94563 0.55747 0.33732 0.0
H1450 H 0.90013 0.52607 0.1956 0.0
H1451 H 0.8745 0.5499 0.21317 0.0
C1452 C 0.87742 0.57735 0.2999 0.0
C1453 C 0.88026 0.59042 0.34779 0.0
C1454 C 0.89469 0.56696 0.28636 0.0
C1455 C 0.90197 0.59468 0.38069 0.0
C1456 C 0.91943 0.58442 0.36741 0.0
C1457 C 0.93082 0.55682 0.30955 0.0
C1458 C 0.92507 0.54062 0.26468 0.0
C1459 C 0.91552 0.56989 0.32089 0.0
C1460 C 0.90523 0.53899 0.22967 0.0
C1461 C 0.89039 0.55231 0.24006 0.0
H1462 H 0.44753 0.3885 0.36271 0.0
H1463 H 0.45611 0.37211 0.20339 0.0
H1464 H 0.43277 0.32249 0.2213 0.0
H1465 H 0.41535 0.28468 0.28469 0.0
H1466 H 0.40566 0.30053 0.4439 0.0
H1467 H 0.42361 0.34944 0.42387 0.0
C1468 C 0.44328 0.37387 0.33168 0.0
C1469 C 0.45296 0.38371 0.28159 0.0
C1470 C 0.43009 0.34543 0.34254 0.0
C1471 C 0.44816 0.36483 0.24183 0.0
C1472 C 0.43516 0.33654 0.25228 0.0
C1473 C 0.41676 0.2988 0.31479 0.0
C1474 C 0.40951 0.28916 0.36582 0.0
C1475 C 0.42686 0.32673 0.3028 0.0
C1476 C 0.41108 0.3075 0.40439 0.0
C1477 C 0.42147 0.33546 0.39294 0.0
H1478 H 0.62435 0.08158 0.40256 0.0
H1479 H 0.64049 0.07112 0.24397 0.0
H1480 H 0.68937 0.08947 0.26454 0.0
H1481 H 0.72825 0.11421 0.32572 0.0
H1482 H 0.71162 0.12363 0.48444 0.0
H1483 H 0.66205 0.09952 0.46631 0.0
C1484 C 0.63853 0.08285 0.37278 0.0
C1485 C 0.62903 0.07531 0.32173 0.0
C1486 C 0.66643 0.09319 0.38507 0.0
C1487 C 0.6474 0.07675 0.2835 0.0
C1488 C 0.67533 0.08738 0.29525 0.0
C1489 C 0.71359 0.10994 0.35662 0.0
C1490 C 0.72333 0.12011 0.40655 0.0
C1491 C 0.68519 0.09636 0.34561 0.0
C1492 C 0.70441 0.11529 0.44614 0.0
C1493 C 0.67615 0.10187 0.43555 0.0
H1494 H 0.45649 0.07555 0.35626 0.0
H1495 H 0.52764 0.1445 0.28663 0.0
H1496 H 0.50682 0.17318 0.29776 0.0
H1497 H 0.46943 0.17955 0.32965 0.0
H1498 H 0.39712 0.11094 0.39624 0.0
H1499 H 0.41738 0.08138 0.384 0.0
C1500 C 0.46732 0.09675 0.34303 0.0
C1501 C 0.49378 0.10777 0.32098 0.0
C1502 C 0.45515 0.11334 0.34945 0.0
C1503 C 0.50739 0.13535 0.30401 0.0
C1504 C 0.49552 0.15189 0.31047 0.0
C1505 C 0.4581 0.15816 0.34179 0.0
C1506 C 0.43193 0.14759 0.36451 0.0
C1507 C 0.46963 0.14125 0.33377 0.0
C1508 C 0.41735 0.11965 0.37891 0.0
C1509 C 0.42893 0.10274 0.37185 0.0
H1510 H 0.89472 0.29032 0.34205 0.0
H1511 H 0.82507 0.2904 0.41304 0.0
H1512 H 0.84395 0.3386 0.39047 0.0
H1513 H 0.8787 0.3802 0.34696 0.0
H1514 H 0.95012 0.38241 0.28022 0.0
H1515 H 0.93215 0.33398 0.30476 0.0
C1516 C 0.88384 0.30097 0.35315 0.0
C1517 C 0.85822 0.28641 0.37864 0.0
C1518 C 0.89499 0.32908 0.34035 0.0
C1519 C 0.84461 0.30076 0.39298 0.0
C1520 C 0.85537 0.32843 0.37998 0.0
C1521 C 0.89034 0.37008 0.33764 0.0
C1522 C 0.91545 0.38467 0.31099 0.0
C1523 C 0.88022 0.34262 0.35286 0.0
C1524 C 0.93063 0.37151 0.30039 0.0
C1525 C 0.92035 0.34385 0.31444 0.0
H1526 H 0.61858 0.49424 0.33422 0.0
H1527 H 0.61718 0.56468 0.27103 0.0
H1528 H 0.66692 0.59346 0.28673 0.0
H1529 H 0.7112 0.59789 0.3158 0.0
H1530 H 0.71068 0.52704 0.38301 0.0
H1531 H 0.66135 0.49934 0.36879 0.0
C1532 C 0.62914 0.51587 0.32361 0.0
C1533 C 0.61431 0.52721 0.30064 0.0
C1534 C 0.65744 0.53229 0.33376 0.0
C1535 C 0.62819 0.55543 0.28842 0.0
C1536 C 0.65661 0.57187 0.29744 0.0
C1537 C 0.70025 0.57649 0.32788 0.0
C1538 C 0.71492 0.56462 0.34993 0.0
C1539 C 0.67153 0.56046 0.31985 0.0
C1540 C 0.70021 0.53682 0.36554 0.0
C1541 C 0.67188 0.52084 0.35733 0.0
H1542 H 0.59165 0.87548 0.721 0.0
H1543 H 0.59912 0.89957 0.56118 0.0
H1544 H 0.57809 0.92784 0.58038 0.0
H1545 H 0.55185 0.94026 0.64078 0.0
H1546 H 0.54567 0.91726 0.80095 0.0
H1547 H 0.57242 0.89437 0.78405 0.0
C1548 C 0.58919 0.88745 0.69069 0.0
C1549 C 0.59666 0.88539 0.63969 0.0
C1550 C 0.57734 0.90376 0.70221 0.0
C1551 C 0.5936 0.901 0.60068 0.0
C1552 C 0.58144 0.917 0.61165 0.0
C1553 C 0.55734 0.93112 0.67222 0.0
C1554 C 0.54723 0.93066 0.72216 0.0
C1555 C 0.57251 0.91788 0.66198 0.0
C1556 C 0.55383 0.91833 0.76255 0.0
C1557 C 0.56877 0.90495 0.75268 0.0
H1558 H 0.12253 0.71767 0.70926 0.0
H1559 H 0.10502 0.70257 0.54675 0.0
H1560 H 0.07664 0.65284 0.56345 0.0
H1561 H 0.06186 0.61348 0.62364 0.0
H1562 H 0.07878 0.62897 0.78624 0.0
H1563 H 0.10217 0.67885 0.77066 0.0
C1564 C 0.11186 0.70347 0.67776 0.0
C1565 C 0.11568 0.71356 0.62689 0.0
C1566 C 0.09572 0.67508 0.6878 0.0
C1567 C 0.10201 0.69518 0.5862 0.0
C1568 C 0.08604 0.66679 0.59577 0.0
C1569 C 0.07 0.62788 0.65567 0.0
C1570 C 0.06849 0.61782 0.70607 0.0
C1571 C 0.08341 0.65646 0.64625 0.0
C1572 C 0.0794 0.63642 0.74737 0.0
C1573 C 0.09294 0.66486 0.73834 0.0
H1574 H 0.3728 0.49241 0.72391 0.0
H1575 H 0.38916 0.427 0.6876 0.0
H1576 H 0.34168 0.39867 0.65528 0.0
H1577 H 0.29586 0.39403 0.63289 0.0
H1578 H 0.28263 0.46165 0.67146 0.0
H1579 H 0.32862 0.48765 0.70559 0.0
C1580 C 0.3661 0.47192 0.7093 0.0
C1581 C 0.38467 0.46202 0.70804 0.0
C1582 C 0.33931 0.45626 0.68991 0.0
C1583 C 0.37527 0.43513 0.68952 0.0
C1584 C 0.3482 0.41907 0.67042 0.0
C1585 C 0.30316 0.41452 0.64835 0.0
C1586 C 0.28556 0.42583 0.64837 0.0
C1587 C 0.3301 0.42967 0.66942 0.0
C1588 C 0.29543 0.4523 0.66968 0.0
C1589 C 0.32185 0.4673 0.68987 0.0
H1590 H 0.10514 0.40069 0.70937 0.0
H1591 H 0.15404 0.4463 0.578 0.0
H1592 H 0.13279 0.47514 0.57929 0.0
H1593 H 0.10424 0.49085 0.62427 0.0
H1594 H 0.05278 0.4433 0.75124 0.0
H1595 H 0.07112 0.41175 0.74544 0.0
C1596 C 0.11068 0.41652 0.68025 0.0
C1597 C 0.13154 0.42163 0.64426 0.0
C1598 C 0.09827 0.43298 0.68109 0.0
C1599 C 0.1382 0.44197 0.60635 0.0
C1600 C 0.12622 0.45868 0.60735 0.0
C1601 C 0.0969 0.47337 0.65023 0.0
C1602 C 0.07762 0.46951 0.68871 0.0
C1603 C 0.10696 0.45498 0.64565 0.0
C1604 C 0.06777 0.44663 0.72161 0.0
C1605 C 0.07825 0.42867 0.71826 0.0
H1606 H 0.50134 0.62334 0.65036 0.0
H1607 H 0.57114 0.62182 0.71615 0.0
H1608 H 0.60003 0.67171 0.70094 0.0
H1609 H 0.6044 0.71627 0.67294 0.0
H1610 H 0.53394 0.71571 0.60391 0.0
H1611 H 0.50652 0.66618 0.61615 0.0
C1612 C 0.52288 0.6339 0.66151 0.0
C1613 C 0.53398 0.61902 0.68523 0.0
C1614 C 0.53928 0.66226 0.65196 0.0
C1615 C 0.5621 0.63287 0.69811 0.0
C1616 C 0.57856 0.66138 0.68947 0.0
C1617 C 0.58316 0.70527 0.66 0.0
C1618 C 0.57128 0.72001 0.63812 0.0
C1619 C 0.56727 0.6764 0.66693 0.0
C1620 C 0.54371 0.70521 0.62134 0.0
C1621 C 0.52789 0.67676 0.62837 0.0
H1622 H 0.28412 0.82108 0.66582 0.0
H1623 H 0.27981 0.89339 0.62481 0.0
H1624 H 0.32922 0.92257 0.64291 0.0
H1625 H 0.37394 0.92718 0.66933 0.0
H1626 H 0.37625 0.85403 0.71377 0.0
H1627 H 0.32738 0.82572 0.69578 0.0
C1628 C 0.29397 0.84321 0.66042 0.0
C1629 C 0.27836 0.85499 0.64326 0.0
C1630 C 0.32208 0.85978 0.67188 0.0
C1631 C 0.29139 0.88379 0.63768 0.0
C1632 C 0.31963 0.90046 0.6481 0.0
C1633 C 0.36371 0.90509 0.67544 0.0
C1634 C 0.37902 0.89287 0.69255 0.0
C1635 C 0.33523 0.88867 0.66522 0.0
C1636 C 0.36525 0.86415 0.70041 0.0
C1637 C 0.3372 0.84781 0.69001 0.0
loop_
_geom_bond_atom_site_label_1
_geom_bond_atom_site_label_2
_geom_bond_distance
_geom_bond_site_symmetry_2
_ccdc_geom_bond_type
Co0 O2 2.143 . S
Co0 O8 2.074 1_554 S
Co0 O11 2.093 . S
Co0 O24 2.097 . S
Co0 N41 2.151 . S
Co0 N49 2.214 . S
Co1 O2 2.160 . S
Co1 O7 2.058 1_554 S
Co1 O17 2.057 . S
Co1 O32 2.037 . S
Co1 N36 2.145 1_554 S
Co1 N57 2.257 . S
O2 Co0 2.143 . S
O2 Co1 2.160 . S
C3 O4 1.278 . S
C3 O11 1.224 . S
O4 C3 1.278 . S
C5 O6 1.245 . S
C5 O17 1.232 . S
O6 C5 1.245 . S
O7 Co1 2.058 1_556 S
O7 C33 1.269 . S
O8 Co0 2.074 1_556 S
O8 C33 1.257 . S
H9 C34 0.930 . S
H10 C40 0.930 . S
O11 Co0 2.093 . S
O11 C3 1.224 . S
H12 C44 0.929 . S
H13 C46 0.930 . S
H14 C47 0.930 . S
H15 C45 0.929 . S
H16 C48 0.928 . S
O17 Co1 2.057 . S
O17 C5 1.232 . S
H18 C37 0.929 . S
H19 C38 0.929 . S
H20 C50 0.931 1_556 S
H21 C42 0.929 . S
H22 C51 0.930 . S
H23 C43 0.931 . S
O24 Co0 2.097 . S
O24 C52 1.214 . S
H25 C53 0.929 . S
H26 C54 0.929 . S
H27 C55 0.930 . S
H28 C56 0.929 . S
H29 C58 0.930 . S
H30 C35 0.930 . S
H31 C39 0.930 . S
O32 Co1 2.037 . S
O32 C52 1.234 . S
C33 O7 1.269 . S
C33 O8 1.257 . S
C34 H9 0.930 . S
C34 C37 1.388 . S
C34 C39 1.418 . S
C35 H30 0.930 . S
C35 C38 1.404 . S
C35 C39 1.353 . S
N36 Co1 2.145 1_556 S
N36 C37 1.397 . S
N36 C38 1.334 . S
C37 H18 0.929 . S
C37 C34 1.388 . S
C37 N36 1.397 . S
C38 H19 0.929 . S
C38 C35 1.404 . S
C38 N36 1.334 . S
C39 H31 0.930 . S
C39 C34 1.418 . S
C39 C35 1.353 . S
C40 H10 0.930 . S
C40 N41 1.330 . S
C40 C42 1.446 . S
N41 Co0 2.151 . S
N41 C40 1.330 . S
N41 C45 1.418 . S
C42 H21 0.929 . S
C42 C40 1.446 . S
C42 C43 1.332 . S
C43 H23 0.931 . S
C43 C42 1.332 . S
C43 C44 1.267 . S
C44 H12 0.929 . S
C44 C43 1.267 . S
C44 C45 1.251 . S
C45 H15 0.929 . S
C45 N41 1.418 . S
C45 C44 1.251 . S
C46 H13 0.930 . S
C46 C48 1.406 . S
C46 C51 1.261 . S
C47 H14 0.930 . S
C47 N49 1.325 . S
C47 C50 1.357 . S
C48 H16 0.928 . S
C48 C46 1.406 . S
C48 N49 1.261 . S
N49 Co0 2.214 . S
N49 C47 1.325 . S
N49 C48 1.261 . S
C50 H20 0.931 1_554 S
C50 C47 1.357 . S
C50 C51 1.312 . S
C51 H22 0.930 . S
C51 C46 1.261 . S
C51 C50 1.312 . S
C52 O24 1.214 . S
C52 O32 1.234 . S
C53 H25 0.929 . S
C53 C56 1.391 . S
C53 C58 1.391 . S
C54 H26 0.929 . S
C54 C55 1.390 . S
C54 N57 1.391 . S
C55 H27 0.930 . S
C55 C54 1.390 . S
C55 C56 1.392 . S
C56 H28 0.929 . S
C56 C53 1.391 . S
C56 C55 1.392 . S
N57 Co1 2.257 . S
N57 C54 1.391 . S
N57 C58 1.388 . S
C58 H29 0.930 . S
C58 C53 1.391 . S
C58 N57 1.388 . S
Co59 O61 2.143 . S
Co59 O67 2.074 . S
Co59 O70 2.093 . S
Co59 O83 2.097 1_554 S
Co59 N100 2.151 . S
Co59 N108 2.214 1_554 S
Co60 O61 2.160 . S
Co60 O66 2.058 . S
Co60 O76 2.057 . S
Co60 O91 2.037 1_554 S
Co60 N95 2.145 . S
Co60 N116 2.257 . S
O61 Co59 2.143 . S
O61 Co60 2.160 . S
C62 O63 1.278 . S
C62 O70 1.224 . S
O63 C62 1.278 . S
C64 O65 1.245 . S
C64 O76 1.232 . S
O65 C64 1.245 . S
O66 Co60 2.058 . S
O66 C92 1.269 . S
O67 Co59 2.074 . S
O67 C92 1.257 . S
H68 C93 0.930 1_556 S
H69 C99 0.930 . S
O70 Co59 2.093 . S
O70 C62 1.224 . S
H71 C103 0.929 . S
H72 C105 0.930 . S
H73 C106 0.930 . S
H74 C104 0.929 . S
H75 C107 0.928 . S
O76 Co60 2.057 . S
O76 C64 1.232 . S
H77 C96 0.929 1_556 S
H78 C97 0.929 . S
H79 C109 0.931 . S
H80 C101 0.929 . S
H81 C110 0.930 . S
H82 C102 0.931 . S
O83 Co59 2.097 1_556 S
O83 C111 1.214 . S
H84 C112 0.929 . S
H85 C113 0.929 . S
H86 C114 0.930 1_556 S
H87 C115 0.929 . S
H88 C117 0.930 . S
H89 C94 0.930 . S
H90 C98 0.930 . S
O91 Co60 2.037 1_556 S
O91 C111 1.234 . S
C92 O66 1.269 . S
C92 O67 1.257 . S
C93 H68 0.930 1_554 S
C93 C96 1.388 . S
C93 C98 1.418 . S
C94 H89 0.930 . S
C94 C97 1.404 . S
C94 C98 1.353 . S
N95 Co60 2.145 . S
N95 C96 1.397 . S
N95 C97 1.334 . S
C96 H77 0.929 1_554 S
C96 C93 1.388 . S
C96 N95 1.397 . S
C97 H78 0.929 . S
C97 C94 1.404 . S
C97 N95 1.334 . S
C98 H90 0.930 . S
C98 C93 1.418 . S
C98 C94 1.353 . S
C99 H69 0.930 . S
C99 N100 1.330 . S
C99 C101 1.446 . S
N100 Co59 2.151 . S
N100 C99 1.330 . S
N100 C104 1.418 . S
C101 H80 0.929 . S
C101 C99 1.446 . S
C101 C102 1.332 . S
C102 H82 0.931 . S
C102 C101 1.332 . S
C102 C103 1.267 . S
C103 H71 0.929 . S
C103 C102 1.267 . S
C103 C104 1.251 . S
C104 H74 0.929 . S
C104 N100 1.418 . S
C104 C103 1.251 . S
C105 H72 0.930 . S
C105 C107 1.406 . S
C105 C110 1.261 . S
C106 H73 0.930 . S
C106 N108 1.325 . S
C106 C109 1.357 . S
C107 H75 0.928 . S
C107 C105 1.406 . S
C107 N108 1.261 . S
N108 Co59 2.214 1_556 S
N108 C106 1.325 . S
N108 C107 1.261 . S
C109 H79 0.931 . S
C109 C106 1.357 . S
C109 C110 1.312 . S
C110 H81 0.930 . S
C110 C105 1.261 . S
C110 C109 1.312 . S
C111 O83 1.214 . S
C111 O91 1.234 . S
C112 H84 0.929 . S
C112 C115 1.391 . S
C112 C117 1.391 . S
C113 H85 0.929 . S
C113 C114 1.390 . S
C113 N116 1.391 . S
C114 H86 0.930 1_554 S
C114 C113 1.390 . S
C114 C115 1.392 . S
C115 H87 0.929 . S
C115 C112 1.391 . S
C115 C114 1.392 . S
N116 Co60 2.257 . S
N116 C113 1.391 . S
N116 C117 1.388 . S
C117 H88 0.930 . S
C117 C112 1.391 . S
C117 N116 1.388 . S
Co118 O120 2.143 . S
Co118 O126 2.074 . S
Co118 O129 2.093 . S
Co118 O142 2.097 1_554 S
Co118 N159 2.151 . S
Co118 N167 2.214 1_554 S
Co119 O120 2.160 . S
Co119 O125 2.058 . S
Co119 O135 2.057 . S
Co119 O150 2.037 1_554 S
Co119 N154 2.145 . S
Co119 N175 2.257 . S
O120 Co118 2.143 . S
O120 Co119 2.160 . S
C121 O122 1.278 . S
C121 O129 1.224 . S
O122 C121 1.278 . S
C123 O124 1.245 . S
C123 O135 1.232 . S
O124 C123 1.245 . S
O125 Co119 2.058 . S
O125 C151 1.269 . S
O126 Co118 2.074 . S
O126 C151 1.257 . S
H127 C152 0.930 1_556 S
H128 C158 0.930 . S
O129 Co118 2.093 . S
O129 C121 1.224 . S
H130 C162 0.929 . S
H131 C164 0.930 . S
H132 C165 0.930 . S
H133 C163 0.929 . S
H134 C166 0.928 . S
O135 Co119 2.057 . S
O135 C123 1.232 . S
H136 C155 0.929 1_556 S
H137 C156 0.929 . S
H138 C168 0.931 . S
H139 C160 0.929 . S
H140 C169 0.930 . S
H141 C161 0.931 . S
O142 Co118 2.097 1_556 S
O142 C170 1.214 . S
H143 C171 0.929 . S
H144 C172 0.929 . S
H145 C173 0.930 1_556 S
H146 C174 0.929 . S
H147 C176 0.930 . S
H148 C153 0.930 . S
H149 C157 0.930 . S
O150 Co119 2.037 1_556 S
O150 C170 1.234 . S
C151 O125 1.269 . S
C151 O126 1.257 . S
C152 H127 0.930 1_554 S
C152 C155 1.388 . S
C152 C157 1.418 . S
C153 H148 0.930 . S
C153 C156 1.404 . S
C153 C157 1.353 . S
N154 Co119 2.145 . S
N154 C155 1.397 . S
N154 C156 1.334 . S
C155 H136 0.929 1_554 S
C155 C152 1.388 . S
C155 N154 1.397 . S
C156 H137 0.929 . S
C156 C153 1.404 . S
C156 N154 1.334 . S
C157 H149 0.930 . S
C157 C152 1.418 . S
C157 C153 1.353 . S
C158 H128 0.930 . S
C158 N159 1.330 . S
C158 C160 1.446 . S
N159 Co118 2.151 . S
N159 C158 1.330 . S
N159 C163 1.418 . S
C160 H139 0.929 . S
C160 C158 1.446 . S
C160 C161 1.332 . S
C161 H141 0.931 . S
C161 C160 1.332 . S
C161 C162 1.267 . S
C162 H130 0.929 . S
C162 C161 1.267 . S
C162 C163 1.251 . S
C163 H133 0.929 . S
C163 N159 1.418 . S
C163 C162 1.251 . S
C164 H131 0.930 . S
C164 C166 1.406 . S
C164 C169 1.261 . S
C165 H132 0.930 . S
C165 N167 1.325 . S
C165 C168 1.357 . S
C166 H134 0.928 . S
C166 C164 1.406 . S
C166 N167 1.261 . S
N167 Co118 2.214 1_556 S
N167 C165 1.325 . S
N167 C166 1.261 . S
C168 H138 0.931 . S
C168 C165 1.357 . S
C168 C169 1.312 . S
C169 H140 0.930 . S
C169 C164 1.261 . S
C169 C168 1.312 . S
C170 O142 1.214 . S
C170 O150 1.234 . S
C171 H143 0.929 . S
C171 C174 1.391 . S
C171 C176 1.391 . S
C172 H144 0.929 . S
C172 C173 1.390 . S
C172 N175 1.391 . S
C173 H145 0.930 1_554 S
C173 C172 1.390 . S
C173 C174 1.392 . S
C174 H146 0.929 . S
C174 C171 1.391 . S
C174 C173 1.392 . S
N175 Co119 2.257 . S
N175 C172 1.391 . S
N175 C176 1.388 . S
C176 H147 0.930 . S
C176 C171 1.391 . S
C176 N175 1.388 . S
Co177 O179 2.143 . S
Co177 O185 2.074 . S
Co177 O188 2.093 . S
Co177 O201 2.097 1_556 S
Co177 N218 2.151 . S
Co177 N226 2.214 1_556 S
Co178 O179 2.160 . S
Co178 O184 2.058 . S
Co178 O194 2.057 . S
Co178 O209 2.037 1_556 S
Co178 N213 2.145 . S
Co178 N234 2.257 . S
O179 Co177 2.143 . S
O179 Co178 2.160 . S
C180 O181 1.278 . S
C180 O188 1.224 . S
O181 C180 1.278 . S
C182 O183 1.245 . S
C182 O194 1.232 . S
O183 C182 1.245 . S
O184 Co178 2.058 . S
O184 C210 1.269 . S
O185 Co177 2.074 . S
O185 C210 1.257 . S
H186 C211 0.930 1_554 S
H187 C217 0.930 . S
O188 Co177 2.093 . S
O188 C180 1.224 . S
H189 C221 0.929 . S
H190 C223 0.930 . S
H191 C224 0.930 . S
H192 C222 0.929 . S
H193 C225 0.928 . S
O194 Co178 2.057 . S
O194 C182 1.232 . S
H195 C214 0.929 1_554 S
H196 C215 0.929 . S
H197 C227 0.931 . S
H198 C219 0.929 . S
H199 C228 0.930 . S
H200 C220 0.931 . S
O201 Co177 2.097 1_554 S
O201 C229 1.214 . S
H202 C230 0.929 . S
H203 C231 0.929 . S
H204 C232 0.930 1_554 S
H205 C233 0.929 . S
H206 C235 0.930 . S
H207 C212 0.930 . S
H208 C216 0.930 . S
O209 Co178 2.037 1_554 S
O209 C229 1.234 . S
C210 O184 1.269 . S
C210 O185 1.257 . S
C211 H186 0.930 1_556 S
C211 C214 1.388 . S
C211 C216 1.418 . S
C212 H207 0.930 . S
C212 C215 1.404 . S
C212 C216 1.353 . S
N213 Co178 2.145 . S
N213 C214 1.397 . S
N213 C215 1.334 . S
C214 H195 0.929 1_556 S
C214 C211 1.388 . S
C214 N213 1.397 . S
C215 H196 0.929 . S
C215 C212 1.404 . S
C215 N213 1.334 . S
C216 H208 0.930 . S
C216 C211 1.418 . S
C216 C212 1.353 . S
C217 H187 0.930 . S
C217 N218 1.330 . S
C217 C219 1.446 . S
N218 Co177 2.151 . S
N218 C217 1.330 . S
N218 C222 1.418 . S
C219 H198 0.929 . S
C219 C217 1.446 . S
C219 C220 1.332 . S
C220 H200 0.931 . S
C220 C219 1.332 . S
C220 C221 1.267 . S
C221 H189 0.929 . S
C221 C220 1.267 . S
C221 C222 1.251 . S
C222 H192 0.929 . S
C222 N218 1.418 . S
C222 C221 1.251 . S
C223 H190 0.930 . S
C223 C225 1.406 . S
C223 C228 1.261 . S
C224 H191 0.930 . S
C224 N226 1.325 . S
C224 C227 1.357 . S
C225 H193 0.928 . S
C225 C223 1.406 . S
C225 N226 1.261 . S
N226 Co177 2.214 1_554 S
N226 C224 1.325 . S
N226 C225 1.261 . S
C227 H197 0.931 . S
C227 C224 1.357 . S
C227 C228 1.312 . S
C228 H199 0.930 . S
C228 C223 1.261 . S
C228 C227 1.312 . S
C229 O201 1.214 . S
C229 O209 1.234 . S
C230 H202 0.929 . S
C230 C233 1.391 . S
C230 C235 1.391 . S
C231 H203 0.929 . S
C231 C232 1.390 . S
C231 N234 1.391 . S
C232 H204 0.930 1_556 S
C232 C231 1.390 . S
C232 C233 1.392 . S
C233 H205 0.929 . S
C233 C230 1.391 . S
C233 C232 1.392 . S
N234 Co178 2.257 . S
N234 C231 1.391 . S
N234 C235 1.388 . S
C235 H206 0.930 . S
C235 C230 1.391 . S
C235 N234 1.388 . S
Co236 O238 2.143 . S
Co236 O244 2.074 . S
Co236 O247 2.093 . S
Co236 O260 2.097 1_556 S
Co236 N277 2.151 . S
Co236 N285 2.214 1_556 S
Co237 O238 2.160 . S
Co237 O243 2.058 . S
Co237 O253 2.057 . S
Co237 O268 2.037 1_556 S
Co237 N272 2.145 . S
Co237 N293 2.257 . S
O238 Co236 2.143 . S
O238 Co237 2.160 . S
C239 O240 1.278 . S
C239 O247 1.224 . S
O240 C239 1.278 . S
C241 O242 1.245 . S
C241 O253 1.232 . S
O242 C241 1.245 . S
O243 Co237 2.058 . S
O243 C269 1.269 . S
O244 Co236 2.074 . S
O244 C269 1.257 . S
H245 C270 0.930 1_554 S
H246 C276 0.930 . S
O247 Co236 2.093 . S
O247 C239 1.224 . S
H248 C280 0.929 . S
H249 C282 0.930 . S
H250 C283 0.930 . S
H251 C281 0.929 . S
H252 C284 0.928 . S
O253 Co237 2.057 . S
O253 C241 1.232 . S
H254 C273 0.929 1_554 S
H255 C274 0.929 . S
H256 C286 0.931 . S
H257 C278 0.929 . S
H258 C287 0.930 . S
H259 C279 0.931 . S
O260 Co236 2.097 1_554 S
O260 C288 1.214 . S
H261 C289 0.929 . S
H262 C290 0.929 . S
H263 C291 0.930 1_554 S
H264 C292 0.929 . S
H265 C294 0.930 . S
H266 C271 0.930 . S
H267 C275 0.930 . S
O268 Co237 2.037 1_554 S
O268 C288 1.234 . S
C269 O243 1.269 . S
C269 O244 1.257 . S
C270 H245 0.930 1_556 S
C270 C273 1.388 . S
C270 C275 1.418 . S
C271 H266 0.930 . S
C271 C274 1.404 . S
C271 C275 1.353 . S
N272 Co237 2.145 . S
N272 C273 1.397 . S
N272 C274 1.334 . S
C273 H254 0.929 1_556 S
C273 C270 1.388 . S
C273 N272 1.397 . S
C274 H255 0.929 . S
C274 C271 1.404 . S
C274 N272 1.334 . S
C275 H267 0.930 . S
C275 C270 1.418 . S
C275 C271 1.353 . S
C276 H246 0.930 . S
C276 N277 1.330 . S
C276 C278 1.446 . S
N277 Co236 2.151 . S
N277 C276 1.330 . S
N277 C281 1.418 . S
C278 H257 0.929 . S
C278 C276 1.446 . S
C278 C279 1.332 . S
C279 H259 0.931 . S
C279 C278 1.332 . S
C279 C280 1.267 . S
C280 H248 0.929 . S
C280 C279 1.267 . S
C280 C281 1.251 . S
C281 H251 0.929 . S
C281 N277 1.418 . S
C281 C280 1.251 . S
C282 H249 0.930 . S
C282 C284 1.406 . S
C282 C287 1.261 . S
C283 H250 0.930 . S
C283 N285 1.325 . S
C283 C286 1.357 . S
C284 H252 0.928 . S
C284 C282 1.406 . S
C284 N285 1.261 . S
N285 Co236 2.214 1_554 S
N285 C283 1.325 . S
N285 C284 1.261 . S
C286 H256 0.931 . S
C286 C283 1.357 . S
C286 C287 1.312 . S
C287 H258 0.930 . S
C287 C282 1.261 . S
C287 C286 1.312 . S
C288 O260 1.214 . S
C288 O268 1.234 . S
C289 H261 0.929 . S
C289 C292 1.391 . S
C289 C294 1.391 . S
C290 H262 0.929 . S
C290 C291 1.390 . S
C290 N293 1.391 . S
C291 H263 0.930 1_556 S
C291 C290 1.390 . S
C291 C292 1.392 . S
C292 H264 0.929 . S
C292 C289 1.391 . S
C292 C291 1.392 . S
N293 Co237 2.257 . S
N293 C290 1.391 . S
N293 C294 1.388 . S
C294 H265 0.930 . S
C294 C289 1.391 . S
C294 N293 1.388 . S
Co295 O297 2.143 . S
Co295 O303 2.074 1_556 S
Co295 O306 2.093 . S
Co295 O319 2.097 . S
Co295 N336 2.151 . S
Co295 N344 2.214 . S
Co296 O297 2.160 . S
Co296 O302 2.058 1_556 S
Co296 O312 2.057 . S
Co296 O327 2.037 . S
Co296 N331 2.145 1_556 S
Co296 N352 2.257 . S
O297 Co295 2.143 . S
O297 Co296 2.160 . S
C298 O299 1.278 . S
C298 O306 1.224 . S
O299 C298 1.278 . S
C300 O301 1.245 . S
C300 O312 1.232 . S
O301 C300 1.245 . S
O302 Co296 2.058 1_554 S
O302 C328 1.269 . S
O303 Co295 2.074 1_554 S
O303 C328 1.257 . S
H304 C329 0.930 . S
H305 C335 0.930 . S
O306 Co295 2.093 . S
O306 C298 1.224 . S
H307 C339 0.929 . S
H308 C341 0.930 . S
H309 C342 0.930 . S
H310 C340 0.929 . S
H311 C343 0.928 . S
O312 Co296 2.057 . S
O312 C300 1.232 . S
H313 C332 0.929 . S
H314 C333 0.929 . S
H315 C345 0.931 1_554 S
H316 C337 0.929 . S
H317 C346 0.930 . S
H318 C338 0.931 . S
O319 Co295 2.097 . S
O319 C347 1.214 . S
H320 C348 0.929 . S
H321 C349 0.929 . S
H322 C350 0.930 . S
H323 C351 0.929 . S
H324 C353 0.930 . S
H325 C330 0.930 . S
H326 C334 0.930 . S
O327 Co296 2.037 . S
O327 C347 1.234 . S
C328 O302 1.269 . S
C328 O303 1.257 . S
C329 H304 0.930 . S
C329 C332 1.388 . S
C329 C334 1.418 . S
C330 H325 0.930 . S
C330 C333 1.404 . S
C330 C334 1.353 . S
N331 Co296 2.145 1_554 S
N331 C332 1.397 . S
N331 C333 1.334 . S
C332 H313 0.929 . S
C332 C329 1.388 . S
C332 N331 1.397 . S
C333 H314 0.929 . S
C333 C330 1.404 . S
C333 N331 1.334 . S
C334 H326 0.930 . S
C334 C329 1.418 . S
C334 C330 1.353 . S
C335 H305 0.930 . S
C335 N336 1.330 . S
C335 C337 1.446 . S
N336 Co295 2.151 . S
N336 C335 1.330 . S
N336 C340 1.418 . S
C337 H316 0.929 . S
C337 C335 1.446 . S
C337 C338 1.332 . S
C338 H318 0.931 . S
C338 C337 1.332 . S
C338 C339 1.267 . S
C339 H307 0.929 . S
C339 C338 1.267 . S
C339 C340 1.251 . S
C340 H310 0.929 . S
C340 N336 1.418 . S
C340 C339 1.251 . S
C341 H308 0.930 . S
C341 C343 1.406 . S
C341 C346 1.261 . S
C342 H309 0.930 . S
C342 N344 1.325 . S
C342 C345 1.357 . S
C343 H311 0.928 . S
C343 C341 1.406 . S
C343 N344 1.261 . S
N344 Co295 2.214 . S
N344 C342 1.325 . S
N344 C343 1.261 . S
C345 H315 0.931 1_556 S
C345 C342 1.357 . S
C345 C346 1.312 . S
C346 H317 0.930 . S
C346 C341 1.261 . S
C346 C345 1.312 . S
C347 O319 1.214 . S
C347 O327 1.234 . S
C348 H320 0.929 . S
C348 C351 1.391 . S
C348 C353 1.391 . S
C349 H321 0.929 . S
C349 C350 1.390 . S
C349 N352 1.391 . S
C350 H322 0.930 . S
C350 C349 1.390 . S
C350 C351 1.392 . S
C351 H323 0.929 . S
C351 C348 1.391 . S
C351 C350 1.392 . S
N352 Co296 2.257 . S
N352 C349 1.391 . S
N352 C353 1.388 . S
C353 H324 0.930 . S
C353 C348 1.391 . S
C353 N352 1.388 . S
Co354 O356 2.143 . S
Co354 O362 2.074 . S
Co354 O365 2.093 . S
Co354 O378 2.097 . S
Co354 N395 2.151 . S
Co354 N403 2.214 . S
Co355 O356 2.160 . S
Co355 O361 2.058 . S
Co355 O371 2.057 . S
Co355 O386 2.037 . S
Co355 N390 2.145 . S
Co355 N411 2.257 . S
O356 Co354 2.143 . S
O356 Co355 2.160 . S
C357 O358 1.278 . S
C357 O365 1.224 . S
O358 C357 1.278 . S
C359 O360 1.245 . S
C359 O371 1.232 . S
O360 C359 1.245 . S
O361 Co355 2.058 . S
O361 C387 1.269 . S
O362 Co354 2.074 . S
O362 C387 1.257 . S
H363 C388 0.930 . S
H364 C394 0.930 . S
O365 Co354 2.093 . S
O365 C357 1.224 . S
H366 C398 0.929 . S
H367 C400 0.930 . S
H368 C401 0.930 . S
H369 C399 0.929 . S
H370 C402 0.928 . S
O371 Co355 2.057 . S
O371 C359 1.232 . S
H372 C391 0.929 . S
H373 C392 0.929 . S
H374 C404 0.931 . S
H375 C396 0.929 . S
H376 C405 0.930 . S
H377 C397 0.931 . S
O378 Co354 2.097 . S
O378 C406 1.214 . S
H379 C407 0.929 . S
H380 C408 0.929 . S
H381 C409 0.930 . S
H382 C410 0.929 . S
H383 C412 0.930 . S
H384 C389 0.930 . S
H385 C393 0.930 . S
O386 Co355 2.037 . S
O386 C406 1.234 . S
C387 O361 1.269 . S
C387 O362 1.257 . S
C388 H363 0.930 . S
C388 C391 1.388 . S
C388 C393 1.418 . S
C389 H384 0.930 . S
C389 C392 1.404 . S
C389 C393 1.353 . S
N390 Co355 2.145 . S
N390 C391 1.397 . S
N390 C392 1.334 . S
C391 H372 0.929 . S
C391 C388 1.388 . S
C391 N390 1.397 . S
C392 H373 0.929 . S
C392 C389 1.404 . S
C392 N390 1.334 . S
C393 H385 0.930 . S
C393 C388 1.418 . S
C393 C389 1.353 . S
C394 H364 0.930 . S
C394 N395 1.330 . S
C394 C396 1.446 . S
N395 Co354 2.151 . S
N395 C394 1.330 . S
N395 C399 1.418 . S
C396 H375 0.929 . S
C396 C394 1.446 . S
C396 C397 1.332 . S
C397 H377 0.931 . S
C397 C396 1.332 . S
C397 C398 1.267 . S
C398 H366 0.929 . S
C398 C397 1.267 . S
C398 C399 1.251 . S
C399 H369 0.929 . S
C399 N395 1.418 . S
C399 C398 1.251 . S
C400 H367 0.930 . S
C400 C402 1.406 . S
C400 C405 1.261 . S
C401 H368 0.930 . S
C401 N403 1.325 . S
C401 C404 1.357 . S
C402 H370 0.928 . S
C402 C400 1.406 . S
C402 N403 1.261 . S
N403 Co354 2.214 . S
N403 C401 1.325 . S
N403 C402 1.261 . S
C404 H374 0.931 . S
C404 C401 1.357 . S
C404 C405 1.312 . S
C405 H376 0.930 . S
C405 C400 1.261 . S
C405 C404 1.312 . S
C406 O378 1.214 . S
C406 O386 1.234 . S
C407 H379 0.929 . S
C407 C410 1.391 . S
C407 C412 1.391 . S
C408 H380 0.929 . S
C408 C409 1.390 . S
C408 N411 1.391 . S
C409 H381 0.930 . S
C409 C408 1.390 . S
C409 C410 1.392 . S
C410 H382 0.929 . S
C410 C407 1.391 . S
C410 C409 1.392 . S
N411 Co355 2.257 . S
N411 C408 1.391 . S
N411 C412 1.388 . S
C412 H383 0.930 . S
C412 C407 1.391 . S
C412 N411 1.388 . S
Co413 O415 2.143 . S
Co413 O421 2.074 . S
Co413 O424 2.093 . S
Co413 O437 2.097 . S
Co413 N454 2.151 . S
Co413 N462 2.214 . S
Co414 O415 2.160 . S
Co414 O420 2.058 . S
Co414 O430 2.057 . S
Co414 O445 2.037 . S
Co414 N449 2.145 . S
Co414 N470 2.257 . S
O415 Co413 2.143 . S
O415 Co414 2.160 . S
C416 O417 1.278 . S
C416 O424 1.224 . S
O417 C416 1.278 . S
C418 O419 1.245 . S
C418 O430 1.232 . S
O419 C418 1.245 . S
O420 Co414 2.058 . S
O420 C446 1.269 . S
O421 Co413 2.074 . S
O421 C446 1.257 . S
H422 C447 0.930 . S
H423 C453 0.930 . S
O424 Co413 2.093 . S
O424 C416 1.224 . S
H425 C457 0.929 . S
H426 C459 0.930 . S
H427 C460 0.930 . S
H428 C458 0.929 . S
H429 C461 0.928 . S
O430 Co414 2.057 . S
O430 C418 1.232 . S
H431 C450 0.929 . S
H432 C451 0.929 . S
H433 C463 0.931 . S
H434 C455 0.929 . S
H435 C464 0.930 . S
H436 C456 0.931 . S
O437 Co413 2.097 . S
O437 C465 1.214 . S
H438 C466 0.929 . S
H439 C467 0.929 . S
H440 C468 0.930 . S
H441 C469 0.929 . S
H442 C471 0.930 . S
H443 C448 0.930 . S
H444 C452 0.930 . S
O445 Co414 2.037 . S
O445 C465 1.234 . S
C446 O420 1.269 . S
C446 O421 1.257 . S
C447 H422 0.930 . S
C447 C450 1.388 . S
C447 C452 1.418 . S
C448 H443 0.930 . S
C448 C451 1.404 . S
C448 C452 1.353 . S
N449 Co414 2.145 . S
N449 C450 1.397 . S
N449 C451 1.334 . S
C450 H431 0.929 . S
C450 C447 1.388 . S
C450 N449 1.397 . S
C451 H432 0.929 . S
C451 C448 1.404 . S
C451 N449 1.334 . S
C452 H444 0.930 . S
C452 C447 1.418 . S
C452 C448 1.353 . S
C453 H423 0.930 . S
C453 N454 1.330 . S
C453 C455 1.446 . S
N454 Co413 2.151 . S
N454 C453 1.330 . S
N454 C458 1.418 . S
C455 H434 0.929 . S
C455 C453 1.446 . S
C455 C456 1.332 . S
C456 H436 0.931 . S
C456 C455 1.332 . S
C456 C457 1.267 . S
C457 H425 0.929 . S
C457 C456 1.267 . S
C457 C458 1.251 . S
C458 H428 0.929 . S
C458 N454 1.418 . S
C458 C457 1.251 . S
C459 H426 0.930 . S
C459 C461 1.406 . S
C459 C464 1.261 . S
C460 H427 0.930 . S
C460 N462 1.325 . S
C460 C463 1.357 . S
C461 H429 0.928 . S
C461 C459 1.406 . S
C461 N462 1.261 . S
N462 Co413 2.214 . S
N462 C460 1.325 . S
N462 C461 1.261 . S
C463 H433 0.931 . S
C463 C460 1.357 . S
C463 C464 1.312 . S
C464 H435 0.930 . S
C464 C459 1.261 . S
C464 C463 1.312 . S
C465 O437 1.214 . S
C465 O445 1.234 . S
C466 H438 0.929 . S
C466 C469 1.391 . S
C466 C471 1.391 . S
C467 H439 0.929 . S
C467 C468 1.390 . S
C467 N470 1.391 . S
C468 H440 0.930 . S
C468 C467 1.390 . S
C468 C469 1.392 . S
C469 H441 0.929 . S
C469 C466 1.391 . S
C469 C468 1.392 . S
N470 Co414 2.257 . S
N470 C467 1.391 . S
N470 C471 1.388 . S
C471 H442 0.930 . S
C471 C466 1.391 . S
C471 N470 1.388 . S
Co472 O474 2.143 . S
Co472 O480 2.074 . S
Co472 O483 2.093 . S
Co472 O496 2.097 . S
Co472 N513 2.151 . S
Co472 N521 2.214 . S
Co473 O474 2.160 . S
Co473 O479 2.058 . S
Co473 O489 2.057 . S
Co473 O504 2.037 . S
Co473 N508 2.145 . S
Co473 N529 2.257 . S
O474 Co472 2.143 . S
O474 Co473 2.160 . S
C475 O476 1.278 . S
C475 O483 1.224 . S
O476 C475 1.278 . S
C477 O478 1.245 . S
C477 O489 1.232 . S
O478 C477 1.245 . S
O479 Co473 2.058 . S
O479 C505 1.269 . S
O480 Co472 2.074 . S
O480 C505 1.257 . S
H481 C506 0.930 . S
H482 C512 0.930 . S
O483 Co472 2.093 . S
O483 C475 1.224 . S
H484 C516 0.929 . S
H485 C518 0.930 . S
H486 C519 0.930 . S
H487 C517 0.929 . S
H488 C520 0.928 . S
O489 Co473 2.057 . S
O489 C477 1.232 . S
H490 C509 0.929 . S
H491 C510 0.929 . S
H492 C522 0.931 . S
H493 C514 0.929 . S
H494 C523 0.930 . S
H495 C515 0.931 . S
O496 Co472 2.097 . S
O496 C524 1.214 . S
H497 C525 0.929 . S
H498 C526 0.929 . S
H499 C527 0.930 . S
H500 C528 0.929 . S
H501 C530 0.930 . S
H502 C507 0.930 . S
H503 C511 0.930 . S
O504 Co473 2.037 . S
O504 C524 1.234 . S
C505 O479 1.269 . S
C505 O480 1.257 . S
C506 H481 0.930 . S
C506 C509 1.388 . S
C506 C511 1.418 . S
C507 H502 0.930 . S
C507 C510 1.404 . S
C507 C511 1.353 . S
N508 Co473 2.145 . S
N508 C509 1.397 . S
N508 C510 1.334 . S
C509 H490 0.929 . S
C509 C506 1.388 . S
C509 N508 1.397 . S
C510 H491 0.929 . S
C510 C507 1.404 . S
C510 N508 1.334 . S
C511 H503 0.930 . S
C511 C506 1.418 . S
C511 C507 1.353 . S
C512 H482 0.930 . S
C512 N513 1.330 . S
C512 C514 1.446 . S
N513 Co472 2.151 . S
N513 C512 1.330 . S
N513 C517 1.418 . S
C514 H493 0.929 . S
C514 C512 1.446 . S
C514 C515 1.332 . S
C515 H495 0.931 . S
C515 C514 1.332 . S
C515 C516 1.267 . S
C516 H484 0.929 . S
C516 C515 1.267 . S
C516 C517 1.251 . S
C517 H487 0.929 . S
C517 N513 1.418 . S
C517 C516 1.251 . S
C518 H485 0.930 . S
C518 C520 1.406 . S
C518 C523 1.261 . S
C519 H486 0.930 . S
C519 N521 1.325 . S
C519 C522 1.357 . S
C520 H488 0.928 . S
C520 C518 1.406 . S
C520 N521 1.261 . S
N521 Co472 2.214 . S
N521 C519 1.325 . S
N521 C520 1.261 . S
C522 H492 0.931 . S
C522 C519 1.357 . S
C522 C523 1.312 . S
C523 H494 0.930 . S
C523 C518 1.261 . S
C523 C522 1.312 . S
C524 O496 1.214 . S
C524 O504 1.234 . S
C525 H497 0.929 . S
C525 C528 1.391 . S
C525 C530 1.391 . S
C526 H498 0.929 . S
C526 C527 1.390 . S
C526 N529 1.391 . S
C527 H499 0.930 . S
C527 C526 1.390 . S
C527 C528 1.392 . S
C528 H500 0.929 . S
C528 C525 1.391 . S
C528 C527 1.392 . S
N529 Co473 2.257 . S
N529 C526 1.391 . S
N529 C530 1.388 . S
C530 H501 0.930 . S
C530 C525 1.391 . S
C530 N529 1.388 . S
Co531 O533 2.143 . S
Co531 O539 2.074 . S
Co531 O542 2.093 . S
Co531 O555 2.097 . S
Co531 N572 2.151 . S
Co531 N580 2.214 . S
Co532 O533 2.160 . S
Co532 O538 2.058 . S
Co532 O548 2.057 . S
Co532 O563 2.037 . S
Co532 N567 2.145 1_655 S
Co532 N588 2.257 1_655 S
O533 Co531 2.143 . S
O533 Co532 2.160 . S
C534 O535 1.278 . S
C534 O542 1.224 . S
O535 C534 1.278 . S
C536 O537 1.245 . S
C536 O548 1.232 . S
O537 C536 1.245 . S
O538 Co532 2.058 . S
O538 C564 1.269 . S
O539 Co531 2.074 . S
O539 C564 1.257 . S
H540 C565 0.930 . S
H541 C571 0.930 . S
O542 Co531 2.093 . S
O542 C534 1.224 . S
H543 C575 0.929 . S
H544 C577 0.930 . S
H545 C578 0.930 . S
H546 C576 0.929 . S
H547 C579 0.928 . S
O548 Co532 2.057 . S
O548 C536 1.232 . S
H549 C568 0.929 . S
H550 C569 0.929 . S
H551 C581 0.931 . S
H552 C573 0.929 . S
H553 C582 0.930 . S
H554 C574 0.931 . S
O555 Co531 2.097 . S
O555 C583 1.214 . S
H556 C584 0.929 . S
H557 C585 0.929 . S
H558 C586 0.930 . S
H559 C587 0.929 . S
H560 C589 0.930 . S
H561 C566 0.930 . S
H562 C570 0.930 . S
O563 Co532 2.037 . S
O563 C583 1.234 . S
C564 O538 1.269 . S
C564 O539 1.257 . S
C565 H540 0.930 . S
C565 C568 1.388 . S
C565 C570 1.418 . S
C566 H561 0.930 . S
C566 C569 1.404 . S
C566 C570 1.353 . S
N567 Co532 2.145 1_455 S
N567 C568 1.397 . S
N567 C569 1.334 . S
C568 H549 0.929 . S
C568 C565 1.388 . S
C568 N567 1.397 . S
C569 H550 0.929 . S
C569 C566 1.404 . S
C569 N567 1.334 . S
C570 H562 0.930 . S
C570 C565 1.418 . S
C570 C566 1.353 . S
C571 H541 0.930 . S
C571 N572 1.330 . S
C571 C573 1.446 . S
N572 Co531 2.151 . S
N572 C571 1.330 . S
N572 C576 1.418 . S
C573 H552 0.929 . S
C573 C571 1.446 . S
C573 C574 1.332 . S
C574 H554 0.931 . S
C574 C573 1.332 . S
C574 C575 1.267 . S
C575 H543 0.929 . S
C575 C574 1.267 . S
C575 C576 1.251 . S
C576 H546 0.929 . S
C576 N572 1.418 . S
C576 C575 1.251 . S
C577 H544 0.930 . S
C577 C579 1.406 . S
C577 C582 1.261 . S
C578 H545 0.930 . S
C578 N580 1.325 . S
C578 C581 1.357 . S
C579 H547 0.928 . S
C579 C577 1.406 . S
C579 N580 1.261 . S
N580 Co531 2.214 . S
N580 C578 1.325 . S
N580 C579 1.261 . S
C581 H551 0.931 . S
C581 C578 1.357 . S
C581 C582 1.312 . S
C582 H553 0.930 . S
C582 C577 1.261 . S
C582 C581 1.312 . S
C583 O555 1.214 . S
C583 O563 1.234 . S
C584 H556 0.929 . S
C584 C587 1.391 . S
C584 C589 1.391 . S
C585 H557 0.929 . S
C585 C586 1.390 . S
C585 N588 1.391 . S
C586 H558 0.930 . S
C586 C585 1.390 . S
C586 C587 1.392 . S
C587 H559 0.929 . S
C587 C584 1.391 . S
C587 C586 1.392 . S
N588 Co532 2.257 1_455 S
N588 C585 1.391 . S
N588 C589 1.388 . S
C589 H560 0.930 . S
C589 C584 1.391 . S
C589 N588 1.388 . S
Co590 O592 2.143 . S
Co590 O598 2.074 . S
Co590 O601 2.093 . S
Co590 O614 2.097 . S
Co590 N631 2.151 . S
Co590 N639 2.214 . S
Co591 O592 2.160 . S
Co591 O597 2.058 . S
Co591 O607 2.057 . S
Co591 O622 2.037 . S
Co591 N626 2.145 . S
Co591 N647 2.257 . S
O592 Co590 2.143 . S
O592 Co591 2.160 . S
C593 O594 1.278 . S
C593 O601 1.224 . S
O594 C593 1.278 . S
C595 O596 1.245 . S
C595 O607 1.232 . S
O596 C595 1.245 . S
O597 Co591 2.058 . S
O597 C623 1.269 . S
O598 Co590 2.074 . S
O598 C623 1.257 . S
H599 C624 0.930 . S
H600 C630 0.930 . S
O601 Co590 2.093 . S
O601 C593 1.224 . S
H602 C634 0.929 . S
H603 C636 0.930 . S
H604 C637 0.930 . S
H605 C635 0.929 . S
H606 C638 0.928 . S
O607 Co591 2.057 . S
O607 C595 1.232 . S
H608 C627 0.929 . S
H609 C628 0.929 . S
H610 C640 0.931 . S
H611 C632 0.929 . S
H612 C641 0.930 . S
H613 C633 0.931 . S
O614 Co590 2.097 . S
O614 C642 1.214 . S
H615 C643 0.929 . S
H616 C644 0.929 . S
H617 C645 0.930 . S
H618 C646 0.929 . S
H619 C648 0.930 . S
H620 C625 0.930 . S
H621 C629 0.930 . S
O622 Co591 2.037 . S
O622 C642 1.234 . S
C623 O597 1.269 . S
C623 O598 1.257 . S
C624 H599 0.930 . S
C624 C627 1.388 . S
C624 C629 1.418 . S
C625 H620 0.930 . S
C625 C628 1.404 . S
C625 C629 1.353 . S
N626 Co591 2.145 . S
N626 C627 1.397 . S
N626 C628 1.334 . S
C627 H608 0.929 . S
C627 C624 1.388 . S
C627 N626 1.397 . S
C628 H609 0.929 . S
C628 C625 1.404 . S
C628 N626 1.334 . S
C629 H621 0.930 . S
C629 C624 1.418 . S
C629 C625 1.353 . S
C630 H600 0.930 . S
C630 N631 1.330 . S
C630 C632 1.446 . S
N631 Co590 2.151 . S
N631 C630 1.330 . S
N631 C635 1.418 . S
C632 H611 0.929 . S
C632 C630 1.446 . S
C632 C633 1.332 . S
C633 H613 0.931 . S
C633 C632 1.332 . S
C633 C634 1.267 . S
C634 H602 0.929 . S
C634 C633 1.267 . S
C634 C635 1.251 . S
C635 H605 0.929 . S
C635 N631 1.418 . S
C635 C634 1.251 . S
C636 H603 0.930 . S
C636 C638 1.406 . S
C636 C641 1.261 . S
C637 H604 0.930 . S
C637 N639 1.325 . S
C637 C640 1.357 . S
C638 H606 0.928 . S
C638 C636 1.406 . S
C638 N639 1.261 . S
N639 Co590 2.214 . S
N639 C637 1.325 . S
N639 C638 1.261 . S
C640 H610 0.931 . S
C640 C637 1.357 . S
C640 C641 1.312 . S
C641 H612 0.930 . S
C641 C636 1.261 . S
C641 C640 1.312 . S
C642 O614 1.214 . S
C642 O622 1.234 . S
C643 H615 0.929 . S
C643 C646 1.391 . S
C643 C648 1.391 . S
C644 H616 0.929 . S
C644 C645 1.390 . S
C644 N647 1.391 . S
C645 H617 0.930 . S
C645 C644 1.390 . S
C645 C646 1.392 . S
C646 H618 0.929 . S
C646 C643 1.391 . S
C646 C645 1.392 . S
N647 Co591 2.257 . S
N647 C644 1.391 . S
N647 C648 1.388 . S
C648 H619 0.930 . S
C648 C643 1.391 . S
C648 N647 1.388 . S
Co649 O651 2.143 . S
Co649 O657 2.074 . S
Co649 O660 2.093 . S
Co649 O673 2.097 . S
Co649 N690 2.151 1_545 S
Co649 N698 2.214 1_545 S
Co650 O651 2.160 . S
Co650 O656 2.058 . S
Co650 O666 2.057 . S
Co650 O681 2.037 . S
Co650 N685 2.145 . S
Co650 N706 2.257 . S
O651 Co649 2.143 . S
O651 Co650 2.160 . S
C652 O653 1.278 . S
C652 O660 1.224 . S
O653 C652 1.278 . S
C654 O655 1.245 . S
C654 O666 1.232 . S
O655 C654 1.245 . S
O656 Co650 2.058 . S
O656 C682 1.269 . S
O657 Co649 2.074 . S
O657 C682 1.257 . S
H658 C683 0.930 . S
H659 C689 0.930 . S
O660 Co649 2.093 . S
O660 C652 1.224 . S
H661 C693 0.929 . S
H662 C695 0.930 . S
H663 C696 0.930 . S
H664 C694 0.929 . S
H665 C697 0.928 . S
O666 Co650 2.057 . S
O666 C654 1.232 . S
H667 C686 0.929 . S
H668 C687 0.929 . S
H669 C699 0.931 . S
H670 C691 0.929 . S
H671 C700 0.930 . S
H672 C692 0.931 . S
O673 Co649 2.097 . S
O673 C701 1.214 . S
H674 C702 0.929 . S
H675 C703 0.929 . S
H676 C704 0.930 . S
H677 C705 0.929 . S
H678 C707 0.930 . S
H679 C684 0.930 . S
H680 C688 0.930 . S
O681 Co650 2.037 . S
O681 C701 1.234 . S
C682 O656 1.269 . S
C682 O657 1.257 . S
C683 H658 0.930 . S
C683 C686 1.388 . S
C683 C688 1.418 . S
C684 H679 0.930 . S
C684 C687 1.404 . S
C684 C688 1.353 . S
N685 Co650 2.145 . S
N685 C686 1.397 . S
N685 C687 1.334 . S
C686 H667 0.929 . S
C686 C683 1.388 . S
C686 N685 1.397 . S
C687 H668 0.929 . S
C687 C684 1.404 . S
C687 N685 1.334 . S
C688 H680 0.930 . S
C688 C683 1.418 . S
C688 C684 1.353 . S
C689 H659 0.930 . S
C689 N690 1.330 . S
C689 C691 1.446 . S
N690 Co649 2.151 1_565 S
N690 C689 1.330 . S
N690 C694 1.418 . S
C691 H670 0.929 . S
C691 C689 1.446 . S
C691 C692 1.332 . S
C692 H672 0.931 . S
C692 C691 1.332 . S
C692 C693 1.267 . S
C693 H661 0.929 . S
C693 C692 1.267 . S
C693 C694 1.251 . S
C694 H664 0.929 . S
C694 N690 1.418 . S
C694 C693 1.251 . S
C695 H662 0.930 . S
C695 C697 1.406 . S
C695 C700 1.261 . S
C696 H663 0.930 . S
C696 N698 1.325 . S
C696 C699 1.357 . S
C697 H665 0.928 . S
C697 C695 1.406 . S
C697 N698 1.261 . S
N698 Co649 2.214 1_565 S
N698 C696 1.325 . S
N698 C697 1.261 . S
C699 H669 0.931 . S
C699 C696 1.357 . S
C699 C700 1.312 . S
C700 H671 0.930 . S
C700 C695 1.261 . S
C700 C699 1.312 . S
C701 O673 1.214 . S
C701 O681 1.234 . S
C702 H674 0.929 . S
C702 C705 1.391 . S
C702 C707 1.391 . S
C703 H675 0.929 . S
C703 C704 1.390 . S
C703 N706 1.391 . S
C704 H676 0.930 . S
C704 C703 1.390 . S
C704 C705 1.392 . S
C705 H677 0.929 . S
C705 C702 1.391 . S
C705 C704 1.392 . S
N706 Co650 2.257 . S
N706 C703 1.391 . S
N706 C707 1.388 . S
C707 H678 0.930 . S
C707 C702 1.391 . S
C707 N706 1.388 . S
Co708 O710 2.143 . S
Co708 O716 2.074 . S
Co708 O719 2.093 . S
Co708 O732 2.097 . S
Co708 N749 2.151 1_565 S
Co708 N757 2.214 1_565 S
Co709 O710 2.160 . S
Co709 O715 2.058 . S
Co709 O725 2.057 . S
Co709 O740 2.037 . S
Co709 N744 2.145 . S
Co709 N765 2.257 . S
O710 Co708 2.143 . S
O710 Co709 2.160 . S
C711 O712 1.278 . S
C711 O719 1.224 . S
O712 C711 1.278 . S
C713 O714 1.245 . S
C713 O725 1.232 . S
O714 C713 1.245 . S
O715 Co709 2.058 . S
O715 C741 1.269 . S
O716 Co708 2.074 . S
O716 C741 1.257 . S
H717 C742 0.930 . S
H718 C748 0.930 . S
O719 Co708 2.093 . S
O719 C711 1.224 . S
H720 C752 0.929 . S
H721 C754 0.930 . S
H722 C755 0.930 . S
H723 C753 0.929 . S
H724 C756 0.928 . S
O725 Co709 2.057 . S
O725 C713 1.232 . S
H726 C745 0.929 . S
H727 C746 0.929 . S
H728 C758 0.931 . S
H729 C750 0.929 . S
H730 C759 0.930 . S
H731 C751 0.931 . S
O732 Co708 2.097 . S
O732 C760 1.214 . S
H733 C761 0.929 . S
H734 C762 0.929 . S
H735 C763 0.930 . S
H736 C764 0.929 . S
H737 C766 0.930 . S
H738 C743 0.930 . S
H739 C747 0.930 . S
O740 Co709 2.037 . S
O740 C760 1.234 . S
C741 O715 1.269 . S
C741 O716 1.257 . S
C742 H717 0.930 . S
C742 C745 1.388 . S
C742 C747 1.418 . S
C743 H738 0.930 . S
C743 C746 1.404 . S
C743 C747 1.353 . S
N744 Co709 2.145 . S
N744 C745 1.397 . S
N744 C746 1.334 . S
C745 H726 0.929 . S
C745 C742 1.388 . S
C745 N744 1.397 . S
C746 H727 0.929 . S
C746 C743 1.404 . S
C746 N744 1.334 . S
C747 H739 0.930 . S
C747 C742 1.418 . S
C747 C743 1.353 . S
C748 H718 0.930 . S
C748 N749 1.330 . S
C748 C750 1.446 . S
N749 Co708 2.151 1_545 S
N749 C748 1.330 . S
N749 C753 1.418 . S
C750 H729 0.929 . S
C750 C748 1.446 . S
C750 C751 1.332 . S
C751 H731 0.931 . S
C751 C750 1.332 . S
C751 C752 1.267 . S
C752 H720 0.929 . S
C752 C751 1.267 . S
C752 C753 1.251 . S
C753 H723 0.929 . S
C753 N749 1.418 . S
C753 C752 1.251 . S
C754 H721 0.930 . S
C754 C756 1.406 . S
C754 C759 1.261 . S
C755 H722 0.930 . S
C755 N757 1.325 . S
C755 C758 1.357 . S
C756 H724 0.928 . S
C756 C754 1.406 . S
C756 N757 1.261 . S
N757 Co708 2.214 1_545 S
N757 C755 1.325 . S
N757 C756 1.261 . S
C758 H728 0.931 . S
C758 C755 1.357 . S
C758 C759 1.312 . S
C759 H730 0.930 . S
C759 C754 1.261 . S
C759 C758 1.312 . S
C760 O732 1.214 . S
C760 O740 1.234 . S
C761 H733 0.929 . S
C761 C764 1.391 . S
C761 C766 1.391 . S
C762 H734 0.929 . S
C762 C763 1.390 . S
C762 N765 1.391 . S
C763 H735 0.930 . S
C763 C762 1.390 . S
C763 C764 1.392 . S
C764 H736 0.929 . S
C764 C761 1.391 . S
C764 C763 1.392 . S
N765 Co709 2.257 . S
N765 C762 1.391 . S
N765 C766 1.388 . S
C766 H737 0.930 . S
C766 C761 1.391 . S
C766 N765 1.388 . S
Co767 O769 2.143 . S
Co767 O775 2.074 . S
Co767 O778 2.093 . S
Co767 O791 2.097 . S
Co767 N808 2.151 . S
Co767 N816 2.214 . S
Co768 O769 2.160 . S
Co768 O774 2.058 . S
Co768 O784 2.057 . S
Co768 O799 2.037 . S
Co768 N803 2.145 1_455 S
Co768 N824 2.257 1_455 S
O769 Co767 2.143 . S
O769 Co768 2.160 . S
C770 O771 1.278 . S
C770 O778 1.224 . S
O771 C770 1.278 . S
C772 O773 1.245 . S
C772 O784 1.232 . S
O773 C772 1.245 . S
O774 Co768 2.058 . S
O774 C800 1.269 . S
O775 Co767 2.074 . S
O775 C800 1.257 . S
H776 C801 0.930 . S
H777 C807 0.930 . S
O778 Co767 2.093 . S
O778 C770 1.224 . S
H779 C811 0.929 . S
H780 C813 0.930 . S
H781 C814 0.930 . S
H782 C812 0.929 . S
H783 C815 0.928 . S
O784 Co768 2.057 . S
O784 C772 1.232 . S
H785 C804 0.929 . S
H786 C805 0.929 . S
H787 C817 0.931 . S
H788 C809 0.929 . S
H789 C818 0.930 . S
H790 C810 0.931 . S
O791 Co767 2.097 . S
O791 C819 1.214 . S
H792 C820 0.929 . S
H793 C821 0.929 . S
H794 C822 0.930 . S
H795 C823 0.929 . S
H796 C825 0.930 . S
H797 C802 0.930 . S
H798 C806 0.930 . S
O799 Co768 2.037 . S
O799 C819 1.234 . S
C800 O774 1.269 . S
C800 O775 1.257 . S
C801 H776 0.930 . S
C801 C804 1.388 . S
C801 C806 1.418 . S
C802 H797 0.930 . S
C802 C805 1.404 . S
C802 C806 1.353 . S
N803 Co768 2.145 1_655 S
N803 C804 1.397 . S
N803 C805 1.334 . S
C804 H785 0.929 . S
C804 C801 1.388 . S
C804 N803 1.397 . S
C805 H786 0.929 . S
C805 C802 1.404 . S
C805 N803 1.334 . S
C806 H798 0.930 . S
C806 C801 1.418 . S
C806 C802 1.353 . S
C807 H777 0.930 . S
C807 N808 1.330 . S
C807 C809 1.446 . S
N808 Co767 2.151 . S
N808 C807 1.330 . S
N808 C812 1.418 . S
C809 H788 0.929 . S
C809 C807 1.446 . S
C809 C810 1.332 . S
C810 H790 0.931 . S
C810 C809 1.332 . S
C810 C811 1.267 . S
C811 H779 0.929 . S
C811 C810 1.267 . S
C811 C812 1.251 . S
C812 H782 0.929 . S
C812 N808 1.418 . S
C812 C811 1.251 . S
C813 H780 0.930 . S
C813 C815 1.406 . S
C813 C818 1.261 . S
C814 H781 0.930 . S
C814 N816 1.325 . S
C814 C817 1.357 . S
C815 H783 0.928 . S
C815 C813 1.406 . S
C815 N816 1.261 . S
N816 Co767 2.214 . S
N816 C814 1.325 . S
N816 C815 1.261 . S
C817 H787 0.931 . S
C817 C814 1.357 . S
C817 C818 1.312 . S
C818 H789 0.930 . S
C818 C813 1.261 . S
C818 C817 1.312 . S
C819 O791 1.214 . S
C819 O799 1.234 . S
C820 H792 0.929 . S
C820 C823 1.391 . S
C820 C825 1.391 . S
C821 H793 0.929 . S
C821 C822 1.390 . S
C821 N824 1.391 . S
C822 H794 0.930 . S
C822 C821 1.390 . S
C822 C823 1.392 . S
C823 H795 0.929 . S
C823 C820 1.391 . S
C823 C822 1.392 . S
N824 Co768 2.257 1_655 S
N824 C821 1.391 . S
N824 C825 1.388 . S
C825 H796 0.930 . S
C825 C820 1.391 . S
C825 N824 1.388 . S
Co826 O828 2.143 . S
Co826 O834 2.074 . S
Co826 O837 2.093 . S
Co826 O850 2.097 . S
Co826 N867 2.151 . S
Co826 N875 2.214 . S
Co827 O828 2.160 . S
Co827 O833 2.058 . S
Co827 O843 2.057 . S
Co827 O858 2.037 . S
Co827 N862 2.145 . S
Co827 N883 2.257 . S
O828 Co826 2.143 . S
O828 Co827 2.160 . S
C829 O830 1.278 . S
C829 O837 1.224 . S
O830 C829 1.278 . S
C831 O832 1.245 . S
C831 O843 1.232 . S
O832 C831 1.245 . S
O833 Co827 2.058 . S
O833 C859 1.269 . S
O834 Co826 2.074 . S
O834 C859 1.257 . S
H835 C860 0.930 . S
H836 C866 0.930 . S
O837 Co826 2.093 . S
O837 C829 1.224 . S
H838 C870 0.929 . S
H839 C872 0.930 . S
H840 C873 0.930 . S
H841 C871 0.929 . S
H842 C874 0.928 . S
O843 Co827 2.057 . S
O843 C831 1.232 . S
H844 C863 0.929 . S
H845 C864 0.929 . S
H846 C876 0.931 . S
H847 C868 0.929 . S
H848 C877 0.930 . S
H849 C869 0.931 . S
O850 Co826 2.097 . S
O850 C878 1.214 . S
H851 C879 0.929 . S
H852 C880 0.929 . S
H853 C881 0.930 . S
H854 C882 0.929 . S
H855 C884 0.930 . S
H856 C861 0.930 . S
H857 C865 0.930 . S
O858 Co827 2.037 . S
O858 C878 1.234 . S
C859 O833 1.269 . S
C859 O834 1.257 . S
C860 H835 0.930 . S
C860 C863 1.388 . S
C860 C865 1.418 . S
C861 H856 0.930 . S
C861 C864 1.404 . S
C861 C865 1.353 . S
N862 Co827 2.145 . S
N862 C863 1.397 . S
N862 C864 1.334 . S
C863 H844 0.929 . S
C863 C860 1.388 . S
C863 N862 1.397 . S
C864 H845 0.929 . S
C864 C861 1.404 . S
C864 N862 1.334 . S
C865 H857 0.930 . S
C865 C860 1.418 . S
C865 C861 1.353 . S
C866 H836 0.930 . S
C866 N867 1.330 . S
C866 C868 1.446 . S
N867 Co826 2.151 . S
N867 C866 1.330 . S
N867 C871 1.418 . S
C868 H847 0.929 . S
C868 C866 1.446 . S
C868 C869 1.332 . S
C869 H849 0.931 . S
C869 C868 1.332 . S
C869 C870 1.267 . S
C870 H838 0.929 . S
C870 C869 1.267 . S
C870 C871 1.251 . S
C871 H841 0.929 . S
C871 N867 1.418 . S
C871 C870 1.251 . S
C872 H839 0.930 . S
C872 C874 1.406 . S
C872 C877 1.261 . S
C873 H840 0.930 . S
C873 N875 1.325 . S
C873 C876 1.357 . S
C874 H842 0.928 . S
C874 C872 1.406 . S
C874 N875 1.261 . S
N875 Co826 2.214 . S
N875 C873 1.325 . S
N875 C874 1.261 . S
C876 H846 0.931 . S
C876 C873 1.357 . S
C876 C877 1.312 . S
C877 H848 0.930 . S
C877 C872 1.261 . S
C877 C876 1.312 . S
C878 O850 1.214 . S
C878 O858 1.234 . S
C879 H851 0.929 . S
C879 C882 1.391 . S
C879 C884 1.391 . S
C880 H852 0.929 . S
C880 C881 1.390 . S
C880 N883 1.391 . S
C881 H853 0.930 . S
C881 C880 1.390 . S
C881 C882 1.392 . S
C882 H854 0.929 . S
C882 C879 1.391 . S
C882 C881 1.392 . S
N883 Co827 2.257 . S
N883 C880 1.391 . S
N883 C884 1.388 . S
C884 H855 0.930 . S
C884 C879 1.391 . S
C884 N883 1.388 . S
Co885 O887 2.143 . S
Co885 O893 2.074 . S
Co885 O896 2.093 . S
Co885 O909 2.097 . S
Co885 N926 2.151 . S
Co885 N934 2.214 . S
Co886 O887 2.160 . S
Co886 O892 2.058 . S
Co886 O902 2.057 . S
Co886 O917 2.037 . S
Co886 N921 2.145 . S
Co886 N942 2.257 . S
O887 Co885 2.143 . S
O887 Co886 2.160 . S
C888 O889 1.278 . S
C888 O896 1.224 . S
O889 C888 1.278 . S
C890 O891 1.245 . S
C890 O902 1.232 . S
O891 C890 1.245 . S
O892 Co886 2.058 . S
O892 C918 1.269 . S
O893 Co885 2.074 . S
O893 C918 1.257 . S
H894 C919 0.930 . S
H895 C925 0.930 . S
O896 Co885 2.093 . S
O896 C888 1.224 . S
H897 C929 0.929 . S
H898 C931 0.930 . S
H899 C932 0.930 . S
H900 C930 0.929 . S
H901 C933 0.928 . S
O902 Co886 2.057 . S
O902 C890 1.232 . S
H903 C922 0.929 . S
H904 C923 0.929 . S
H905 C935 0.931 . S
H906 C927 0.929 . S
H907 C936 0.930 . S
H908 C928 0.931 . S
O909 Co885 2.097 . S
O909 C937 1.214 . S
H910 C938 0.929 . S
H911 C939 0.929 . S
H912 C940 0.930 . S
H913 C941 0.929 . S
H914 C943 0.930 . S
H915 C920 0.930 . S
H916 C924 0.930 . S
O917 Co886 2.037 . S
O917 C937 1.234 . S
C918 O892 1.269 . S
C918 O893 1.257 . S
C919 H894 0.930 . S
C919 C922 1.388 . S
C919 C924 1.418 . S
C920 H915 0.930 . S
C920 C923 1.404 . S
C920 C924 1.353 . S
N921 Co886 2.145 . S
N921 C922 1.397 . S
N921 C923 1.334 . S
C922 H903 0.929 . S
C922 C919 1.388 . S
C922 N921 1.397 . S
C923 H904 0.929 . S
C923 C920 1.404 . S
C923 N921 1.334 . S
C924 H916 0.930 . S
C924 C919 1.418 . S
C924 C920 1.353 . S
C925 H895 0.930 . S
C925 N926 1.330 . S
C925 C927 1.446 . S
N926 Co885 2.151 . S
N926 C925 1.330 . S
N926 C930 1.418 . S
C927 H906 0.929 . S
C927 C925 1.446 . S
C927 C928 1.332 . S
C928 H908 0.931 . S
C928 C927 1.332 . S
C928 C929 1.267 . S
C929 H897 0.929 . S
C929 C928 1.267 . S
C929 C930 1.251 . S
C930 H900 0.929 . S
C930 N926 1.418 . S
C930 C929 1.251 . S
C931 H898 0.930 . S
C931 C933 1.406 . S
C931 C936 1.261 . S
C932 H899 0.930 . S
C932 N934 1.325 . S
C932 C935 1.357 . S
C933 H901 0.928 . S
C933 C931 1.406 . S
C933 N934 1.261 . S
N934 Co885 2.214 . S
N934 C932 1.325 . S
N934 C933 1.261 . S
C935 H905 0.931 . S
C935 C932 1.357 . S
C935 C936 1.312 . S
C936 H907 0.930 . S
C936 C931 1.261 . S
C936 C935 1.312 . S
C937 O909 1.214 . S
C937 O917 1.234 . S
C938 H910 0.929 . S
C938 C941 1.391 . S
C938 C943 1.391 . S
C939 H911 0.929 . S
C939 C940 1.390 . S
C939 N942 1.391 . S
C940 H912 0.930 . S
C940 C939 1.390 . S
C940 C941 1.392 . S
C941 H913 0.929 . S
C941 C938 1.391 . S
C941 C940 1.392 . S
N942 Co886 2.257 . S
N942 C939 1.391 . S
N942 C943 1.388 . S
C943 H914 0.930 . S
C943 C938 1.391 . S
C943 N942 1.388 . S
Co944 O946 2.143 . S
Co944 O952 2.074 . S
Co944 O955 2.093 . S
Co944 O968 2.097 . S
Co944 N985 2.151 . S
Co944 N993 2.214 . S
Co945 O946 2.160 . S
Co945 O951 2.058 . S
Co945 O961 2.057 . S
Co945 O976 2.037 . S
Co945 N980 2.145 . S
Co945 N1001 2.257 . S
O946 Co944 2.143 . S
O946 Co945 2.160 . S
C947 O948 1.278 . S
C947 O955 1.224 . S
O948 C947 1.278 . S
C949 O950 1.245 . S
C949 O961 1.232 . S
O950 C949 1.245 . S
O951 Co945 2.058 . S
O951 C977 1.269 . S
O952 Co944 2.074 . S
O952 C977 1.257 . S
H953 C978 0.930 . S
H954 C984 0.930 . S
O955 Co944 2.093 . S
O955 C947 1.224 . S
H956 C988 0.929 . S
H957 C990 0.930 . S
H958 C991 0.930 . S
H959 C989 0.929 . S
H960 C992 0.928 . S
O961 Co945 2.057 . S
O961 C949 1.232 . S
H962 C981 0.929 . S
H963 C982 0.929 . S
H964 C994 0.931 . S
H965 C986 0.929 . S
H966 C995 0.930 . S
H967 C987 0.931 . S
O968 Co944 2.097 . S
O968 C996 1.214 . S
H969 C997 0.929 . S
H970 C998 0.929 . S
H971 C999 0.930 . S
H972 C1000 0.929 . S
H973 C1002 0.930 . S
H974 C979 0.930 . S
H975 C983 0.930 . S
O976 Co945 2.037 . S
O976 C996 1.234 . S
C977 O951 1.269 . S
C977 O952 1.257 . S
C978 H953 0.930 . S
C978 C981 1.388 . S
C978 C983 1.418 . S
C979 H974 0.930 . S
C979 C982 1.404 . S
C979 C983 1.353 . S
N980 Co945 2.145 . S
N980 C981 1.397 . S
N980 C982 1.334 . S
C981 H962 0.929 . S
C981 C978 1.388 . S
C981 N980 1.397 . S
C982 H963 0.929 . S
C982 C979 1.404 . S
C982 N980 1.334 . S
C983 H975 0.930 . S
C983 C978 1.418 . S
C983 C979 1.353 . S
C984 H954 0.930 . S
C984 N985 1.330 . S
C984 C986 1.446 . S
N985 Co944 2.151 . S
N985 C984 1.330 . S
N985 C989 1.418 . S
C986 H965 0.929 . S
C986 C984 1.446 . S
C986 C987 1.332 . S
C987 H967 0.931 . S
C987 C986 1.332 . S
C987 C988 1.267 . S
C988 H956 0.929 . S
C988 C987 1.267 . S
C988 C989 1.251 . S
C989 H959 0.929 . S
C989 N985 1.418 . S
C989 C988 1.251 . S
C990 H957 0.930 . S
C990 C992 1.406 . S
C990 C995 1.261 . S
C991 H958 0.930 . S
C991 N993 1.325 . S
C991 C994 1.357 . S
C992 H960 0.928 . S
C992 C990 1.406 . S
C992 N993 1.261 . S
N993 Co944 2.214 . S
N993 C991 1.325 . S
N993 C992 1.261 . S
C994 H964 0.931 . S
C994 C991 1.357 . S
C994 C995 1.312 . S
C995 H966 0.930 . S
C995 C990 1.261 . S
C995 C994 1.312 . S
C996 O968 1.214 . S
C996 O976 1.234 . S
C997 H969 0.929 . S
C997 C1000 1.391 . S
C997 C1002 1.391 . S
C998 H970 0.929 . S
C998 C999 1.390 . S
C998 N1001 1.391 . S
C999 H971 0.930 . S
C999 C998 1.390 . S
C999 C1000 1.392 . S
C1000 H972 0.929 . S
C1000 C997 1.391 . S
C1000 C999 1.392 . S
N1001 Co945 2.257 . S
N1001 C998 1.391 . S
N1001 C1002 1.388 . S
C1002 H973 0.930 . S
C1002 C997 1.391 . S
C1002 N1001 1.388 . S
Co1003 O1005 2.143 . S
Co1003 O1011 2.074 . S
Co1003 O1014 2.093 . S
Co1003 O1027 2.097 . S
Co1003 N1044 2.151 . S
Co1003 N1052 2.214 . S
Co1004 O1005 2.160 . S
Co1004 O1010 2.058 . S
Co1004 O1020 2.057 . S
Co1004 O1035 2.037 . S
Co1004 N1039 2.145 . S
Co1004 N1060 2.257 . S
O1005 Co1003 2.143 . S
O1005 Co1004 2.160 . S
C1006 O1007 1.278 . S
C1006 O1014 1.224 . S
O1007 C1006 1.278 . S
C1008 O1009 1.245 . S
C1008 O1020 1.232 . S
O1009 C1008 1.245 . S
O1010 Co1004 2.058 . S
O1010 C1036 1.269 . S
O1011 Co1003 2.074 . S
O1011 C1036 1.257 . S
H1012 C1037 0.930 . S
H1013 C1043 0.930 . S
O1014 Co1003 2.093 . S
O1014 C1006 1.224 . S
H1015 C1047 0.929 . S
H1016 C1049 0.930 . S
H1017 C1050 0.930 . S
H1018 C1048 0.929 . S
H1019 C1051 0.928 . S
O1020 Co1004 2.057 . S
O1020 C1008 1.232 . S
H1021 C1040 0.929 . S
H1022 C1041 0.929 . S
H1023 C1053 0.931 . S
H1024 C1045 0.929 . S
H1025 C1054 0.930 . S
H1026 C1046 0.931 . S
O1027 Co1003 2.097 . S
O1027 C1055 1.214 . S
H1028 C1056 0.929 . S
H1029 C1057 0.929 . S
H1030 C1058 0.930 . S
H1031 C1059 0.929 . S
H1032 C1061 0.930 . S
H1033 C1038 0.930 . S
H1034 C1042 0.930 . S
O1035 Co1004 2.037 . S
O1035 C1055 1.234 . S
C1036 O1010 1.269 . S
C1036 O1011 1.257 . S
C1037 H1012 0.930 . S
C1037 C1040 1.388 . S
C1037 C1042 1.418 . S
C1038 H1033 0.930 . S
C1038 C1041 1.404 . S
C1038 C1042 1.353 . S
N1039 Co1004 2.145 . S
N1039 C1040 1.397 . S
N1039 C1041 1.334 . S
C1040 H1021 0.929 . S
C1040 C1037 1.388 . S
C1040 N1039 1.397 . S
C1041 H1022 0.929 . S
C1041 C1038 1.404 . S
C1041 N1039 1.334 . S
C1042 H1034 0.930 . S
C1042 C1037 1.418 . S
C1042 C1038 1.353 . S
C1043 H1013 0.930 . S
C1043 N1044 1.330 . S
C1043 C1045 1.446 . S
N1044 Co1003 2.151 . S
N1044 C1043 1.330 . S
N1044 C1048 1.418 . S
C1045 H1024 0.929 . S
C1045 C1043 1.446 . S
C1045 C1046 1.332 . S
C1046 H1026 0.931 . S
C1046 C1045 1.332 . S
C1046 C1047 1.267 . S
C1047 H1015 0.929 . S
C1047 C1046 1.267 . S
C1047 C1048 1.251 . S
C1048 H1018 0.929 . S
C1048 N1044 1.418 . S
C1048 C1047 1.251 . S
C1049 H1016 0.930 . S
C1049 C1051 1.406 . S
C1049 C1054 1.261 . S
C1050 H1017 0.930 . S
C1050 N1052 1.325 . S
C1050 C1053 1.357 . S
C1051 H1019 0.928 . S
C1051 C1049 1.406 . S
C1051 N1052 1.261 . S
N1052 Co1003 2.214 . S
N1052 C1050 1.325 . S
N1052 C1051 1.261 . S
C1053 H1023 0.931 . S
C1053 C1050 1.357 . S
C1053 C1054 1.312 . S
C1054 H1025 0.930 . S
C1054 C1049 1.261 . S
C1054 C1053 1.312 . S
C1055 O1027 1.214 . S
C1055 O1035 1.234 . S
C1056 H1028 0.929 . S
C1056 C1059 1.391 . S
C1056 C1061 1.391 . S
C1057 H1029 0.929 . S
C1057 C1058 1.390 . S
C1057 N1060 1.391 . S
C1058 H1030 0.930 . S
C1058 C1057 1.390 . S
C1058 C1059 1.392 . S
C1059 H1031 0.929 . S
C1059 C1056 1.391 . S
C1059 C1058 1.392 . S
N1060 Co1004 2.257 . S
N1060 C1057 1.391 . S
N1060 C1061 1.388 . S
C1061 H1032 0.930 . S
C1061 C1056 1.391 . S
C1061 N1060 1.388 . S
H1062 C1068 0.930 . S
H1063 C1071 0.930 . S
H1064 C1072 0.930 . S
H1065 C1073 0.930 . S
H1066 C1076 0.930 . S
H1067 C1077 0.930 . S
C1068 H1062 0.930 . S
C1068 C1069 1.355 . S
C1068 C1070 1.415 . S
C1069 C1068 1.355 . S
C1069 C1071 1.419 . S
C1070 C1068 1.415 . S
C1070 C1075 1.425 . S
C1070 C1077 1.409 . S
C1071 H1063 0.930 . S
C1071 C1069 1.419 . S
C1071 C1072 1.362 . S
C1072 H1064 0.930 . S
C1072 C1071 1.362 . S
C1072 C1075 1.409 . S
C1073 H1065 0.930 . S
C1073 C1074 1.355 . S
C1073 C1075 1.415 . S
C1074 C1073 1.355 . S
C1074 C1076 1.419 . S
C1075 C1070 1.425 . S
C1075 C1072 1.409 . S
C1075 C1073 1.415 . S
C1076 H1066 0.930 . S
C1076 C1074 1.419 . S
C1076 C1077 1.362 . S
C1077 H1067 0.930 . S
C1077 C1070 1.409 . S
C1077 C1076 1.362 . S
H1078 C1084 0.930 . S
H1079 C1087 0.930 . S
H1080 C1088 0.930 . S
H1081 C1089 0.930 . S
H1082 C1092 0.930 . S
H1083 C1093 0.930 . S
C1084 H1078 0.930 . S
C1084 C1085 1.355 . S
C1084 C1086 1.415 . S
C1085 C1084 1.355 . S
C1085 C1087 1.419 . S
C1086 C1084 1.415 . S
C1086 C1091 1.425 . S
C1086 C1093 1.409 . S
C1087 H1079 0.930 . S
C1087 C1085 1.419 . S
C1087 C1088 1.362 . S
C1088 H1080 0.930 . S
C1088 C1087 1.362 . S
C1088 C1091 1.409 . S
C1089 H1081 0.930 . S
C1089 C1090 1.355 . S
C1089 C1091 1.415 . S
C1090 C1089 1.355 . S
C1090 C1092 1.419 . S
C1091 C1086 1.425 . S
C1091 C1088 1.409 . S
C1091 C1089 1.415 . S
C1092 H1082 0.930 . S
C1092 C1090 1.419 . S
C1092 C1093 1.362 . S
C1093 H1083 0.930 . S
C1093 C1086 1.409 . S
C1093 C1092 1.362 . S
H1094 C1100 0.930 . S
H1095 C1103 0.930 . S
H1096 C1104 0.930 . S
H1097 C1105 0.930 . S
H1098 C1108 0.930 . S
H1099 C1109 0.930 . S
C1100 H1094 0.930 . S
C1100 C1101 1.355 . S
C1100 C1102 1.415 . S
C1101 C1100 1.355 . S
C1101 C1103 1.419 . S
C1102 C1100 1.415 . S
C1102 C1107 1.425 . S
C1102 C1109 1.409 . S
C1103 H1095 0.930 . S
C1103 C1101 1.419 . S
C1103 C1104 1.362 . S
C1104 H1096 0.930 . S
C1104 C1103 1.362 . S
C1104 C1107 1.409 . S
C1105 H1097 0.930 . S
C1105 C1106 1.355 . S
C1105 C1107 1.415 . S
C1106 C1105 1.355 . S
C1106 C1108 1.419 . S
C1107 C1102 1.425 . S
C1107 C1104 1.409 . S
C1107 C1105 1.415 . S
C1108 H1098 0.930 . S
C1108 C1106 1.419 . S
C1108 C1109 1.362 . S
C1109 H1099 0.930 . S
C1109 C1102 1.409 . S
C1109 C1108 1.362 . S
H1110 C1116 0.930 . S
H1111 C1119 0.930 . S
H1112 C1120 0.930 . S
H1113 C1121 0.930 . S
H1114 C1124 0.930 . S
H1115 C1125 0.930 . S
C1116 H1110 0.930 . S
C1116 C1117 1.355 . S
C1116 C1118 1.415 . S
C1117 C1116 1.355 . S
C1117 C1119 1.419 . S
C1118 C1116 1.415 . S
C1118 C1123 1.425 . S
C1118 C1125 1.409 . S
C1119 H1111 0.930 . S
C1119 C1117 1.419 . S
C1119 C1120 1.362 . S
C1120 H1112 0.930 . S
C1120 C1119 1.362 . S
C1120 C1123 1.409 . S
C1121 H1113 0.930 . S
C1121 C1122 1.355 . S
C1121 C1123 1.415 . S
C1122 C1121 1.355 . S
C1122 C1124 1.419 . S
C1123 C1118 1.425 . S
C1123 C1120 1.409 . S
C1123 C1121 1.415 . S
C1124 H1114 0.930 . S
C1124 C1122 1.419 . S
C1124 C1125 1.362 . S
C1125 H1115 0.930 . S
C1125 C1118 1.409 . S
C1125 C1124 1.362 . S
H1126 C1132 0.930 . S
H1127 C1135 0.930 . S
H1128 C1136 0.930 . S
H1129 C1137 0.930 . S
H1130 C1140 0.930 . S
H1131 C1141 0.930 . S
C1132 H1126 0.930 . S
C1132 C1133 1.355 . S
C1132 C1134 1.415 . S
C1133 C1132 1.355 . S
C1133 C1135 1.419 . S
C1134 C1132 1.415 . S
C1134 C1139 1.425 . S
C1134 C1141 1.409 . S
C1135 H1127 0.930 . S
C1135 C1133 1.419 . S
C1135 C1136 1.362 . S
C1136 H1128 0.930 . S
C1136 C1135 1.362 . S
C1136 C1139 1.409 . S
C1137 H1129 0.930 . S
C1137 C1138 1.355 . S
C1137 C1139 1.415 . S
C1138 C1137 1.355 . S
C1138 C1140 1.419 . S
C1139 C1134 1.425 . S
C1139 C1136 1.409 . S
C1139 C1137 1.415 . S
C1140 H1130 0.930 . S
C1140 C1138 1.419 . S
C1140 C1141 1.362 . S
C1141 H1131 0.930 . S
C1141 C1134 1.409 . S
C1141 C1140 1.362 . S
H1142 C1148 0.930 . S
H1143 C1151 0.930 . S
H1144 C1152 0.930 . S
H1145 C1153 0.930 . S
H1146 C1156 0.930 . S
H1147 C1157 0.930 . S
C1148 H1142 0.930 . S
C1148 C1149 1.355 . S
C1148 C1150 1.415 . S
C1149 C1148 1.355 . S
C1149 C1151 1.419 . S
C1150 C1148 1.415 . S
C1150 C1155 1.425 . S
C1150 C1157 1.409 . S
C1151 H1143 0.930 . S
C1151 C1149 1.419 . S
C1151 C1152 1.362 . S
C1152 H1144 0.930 . S
C1152 C1151 1.362 . S
C1152 C1155 1.409 . S
C1153 H1145 0.930 . S
C1153 C1154 1.355 . S
C1153 C1155 1.415 . S
C1154 C1153 1.355 . S
C1154 C1156 1.419 . S
C1155 C1150 1.425 . S
C1155 C1152 1.409 . S
C1155 C1153 1.415 . S
C1156 H1146 0.930 . S
C1156 C1154 1.419 . S
C1156 C1157 1.362 . S
C1157 H1147 0.930 . S
C1157 C1150 1.409 . S
C1157 C1156 1.362 . S
H1158 C1164 0.930 . S
H1159 C1167 0.930 . S
H1160 C1168 0.933 . S
H1161 C1169 0.930 . S
H1162 C1172 0.930 . S
H1163 C1173 0.932 . S
C1164 H1158 0.930 . S
C1164 C1165 1.355 1_455 S
C1164 C1166 1.415 . S
C1165 C1164 1.355 1_655 S
C1165 C1167 1.419 . S
C1166 C1164 1.415 . S
C1166 C1171 1.425 1_454 S
C1166 C1173 1.409 1_554 S
C1167 H1159 0.930 . S
C1167 C1165 1.419 . S
C1167 C1168 1.362 . S
C1168 H1160 0.933 . S
C1168 C1167 1.362 . S
C1168 C1171 1.409 1_554 S
C1169 H1161 0.930 . S
C1169 C1170 1.355 1_655 S
C1169 C1171 1.415 . S
C1170 C1169 1.355 1_455 S
C1170 C1172 1.419 . S
C1171 C1166 1.425 1_656 S
C1171 C1168 1.409 1_556 S
C1171 C1169 1.415 . S
C1172 H1162 0.930 . S
C1172 C1170 1.419 . S
C1172 C1173 1.362 . S
C1173 H1163 0.932 . S
C1173 C1166 1.409 1_556 S
C1173 C1172 1.362 . S
H1174 C1180 0.930 . S
H1175 C1183 0.930 . S
H1176 C1184 0.930 1_556 S
H1177 C1185 0.930 . S
H1178 C1188 0.930 . S
H1179 C1189 0.930 1_554 S
C1180 H1174 0.930 . S
C1180 C1181 1.355 . S
C1180 C1182 1.415 . S
C1181 C1180 1.355 . S
C1181 C1183 1.419 . S
C1182 C1180 1.415 . S
C1182 C1187 1.425 1_554 S
C1182 C1189 1.409 1_554 S
C1183 H1175 0.930 . S
C1183 C1181 1.419 . S
C1183 C1184 1.362 . S
C1184 H1176 0.930 1_554 S
C1184 C1183 1.362 . S
C1184 C1187 1.409 1_554 S
C1185 H1177 0.930 . S
C1185 C1186 1.355 . S
C1185 C1187 1.415 . S
C1186 C1185 1.355 . S
C1186 C1188 1.419 . S
C1187 C1182 1.425 1_556 S
C1187 C1184 1.409 1_556 S
C1187 C1185 1.415 . S
C1188 H1178 0.930 . S
C1188 C1186 1.419 . S
C1188 C1189 1.362 . S
C1189 H1179 0.930 1_556 S
C1189 C1182 1.409 1_556 S
C1189 C1188 1.362 . S
H1190 C1196 0.930 . S
H1191 C1199 0.930 . S
H1192 C1200 0.930 . S
H1193 C1201 0.930 . S
H1194 C1204 0.920 1_545 S
H1195 C1205 0.930 . S
C1196 H1190 0.930 . S
C1196 C1197 1.355 . S
C1196 C1198 1.415 . S
C1197 C1196 1.355 . S
C1197 C1199 1.419 1_545 S
C1198 C1196 1.415 . S
C1198 C1203 1.425 1_544 S
C1198 C1205 1.409 1_554 S
C1199 H1191 0.930 . S
C1199 C1197 1.419 1_565 S
C1199 C1200 1.362 . S
C1200 H1192 0.930 . S
C1200 C1199 1.362 . S
C1200 C1203 1.409 1_554 S
C1201 H1193 0.930 . S
C1201 C1202 1.355 . S
C1201 C1203 1.415 . S
C1202 C1201 1.355 . S
C1202 C1204 1.436 . S
C1203 C1198 1.425 1_566 S
C1203 C1200 1.409 1_556 S
C1203 C1201 1.415 . S
C1204 H1194 0.920 1_565 S
C1204 C1202 1.436 . S
C1204 C1205 1.355 1_565 S
C1205 H1195 0.930 . S
C1205 C1198 1.409 1_556 S
C1205 C1204 1.355 1_545 S
H1206 C1212 0.930 . S
H1207 C1215 0.930 . S
H1208 C1216 0.930 . S
H1209 C1217 0.930 . S
H1210 C1220 0.930 . S
H1211 C1221 0.930 . S
C1212 H1206 0.930 . S
C1212 C1213 1.355 . S
C1212 C1214 1.415 . S
C1213 C1212 1.355 . S
C1213 C1215 1.419 . S
C1214 C1212 1.415 . S
C1214 C1219 1.425 . S
C1214 C1221 1.409 . S
C1215 H1207 0.930 . S
C1215 C1213 1.419 . S
C1215 C1216 1.362 . S
C1216 H1208 0.930 . S
C1216 C1215 1.362 . S
C1216 C1219 1.409 . S
C1217 H1209 0.930 . S
C1217 C1218 1.355 . S
C1217 C1219 1.415 . S
C1218 C1217 1.355 . S
C1218 C1220 1.419 . S
C1219 C1214 1.425 . S
C1219 C1216 1.409 . S
C1219 C1217 1.415 . S
C1220 H1210 0.930 . S
C1220 C1218 1.419 . S
C1220 C1221 1.362 . S
C1221 H1211 0.930 . S
C1221 C1214 1.409 . S
C1221 C1220 1.362 . S
H1222 C1228 0.930 . S
H1223 C1231 0.930 . S
H1224 C1232 0.930 . S
H1225 C1233 0.930 . S
H1226 C1236 0.930 . S
H1227 C1237 0.930 . S
C1228 H1222 0.930 . S
C1228 C1229 1.355 . S
C1228 C1230 1.415 . S
C1229 C1228 1.355 . S
C1229 C1231 1.419 . S
C1230 C1228 1.415 . S
C1230 C1235 1.425 . S
C1230 C1237 1.409 . S
C1231 H1223 0.930 . S
C1231 C1229 1.419 . S
C1231 C1232 1.362 . S
C1232 H1224 0.930 . S
C1232 C1231 1.362 . S
C1232 C1235 1.409 . S
C1233 H1225 0.930 . S
C1233 C1234 1.355 . S
C1233 C1235 1.415 . S
C1234 C1233 1.355 . S
C1234 C1236 1.419 . S
C1235 C1230 1.425 . S
C1235 C1232 1.409 . S
C1235 C1233 1.415 . S
C1236 H1226 0.930 . S
C1236 C1234 1.419 . S
C1236 C1237 1.362 . S
C1237 H1227 0.930 . S
C1237 C1230 1.409 . S
C1237 C1236 1.362 . S
H1238 C1244 0.930 . S
H1239 C1247 0.930 . S
H1240 C1248 0.930 . S
H1241 C1249 0.930 . S
H1242 C1252 0.930 . S
H1243 C1253 0.930 . S
C1244 H1238 0.930 . S
C1244 C1245 1.355 . S
C1244 C1246 1.415 . S
C1245 C1244 1.355 . S
C1245 C1247 1.419 . S
C1246 C1244 1.415 . S
C1246 C1251 1.425 . S
C1246 C1253 1.409 . S
C1247 H1239 0.930 . S
C1247 C1245 1.419 . S
C1247 C1248 1.362 . S
C1248 H1240 0.930 . S
C1248 C1247 1.362 . S
C1248 C1251 1.409 . S
C1249 H1241 0.930 . S
C1249 C1250 1.355 . S
C1249 C1251 1.415 . S
C1250 C1249 1.355 . S
C1250 C1252 1.419 . S
C1251 C1246 1.425 . S
C1251 C1248 1.409 . S
C1251 C1249 1.415 . S
C1252 H1242 0.930 . S
C1252 C1250 1.419 . S
C1252 C1253 1.362 . S
C1253 H1243 0.930 . S
C1253 C1246 1.409 . S
C1253 C1252 1.362 . S
H1254 C1260 0.930 . S
H1255 C1263 0.930 . S
H1256 C1264 0.930 . S
H1257 C1265 0.930 . S
H1258 C1268 0.930 . S
H1259 C1269 0.930 . S
C1260 H1254 0.930 . S
C1260 C1261 1.355 . S
C1260 C1262 1.415 . S
C1261 C1260 1.355 . S
C1261 C1263 1.419 . S
C1262 C1260 1.415 . S
C1262 C1267 1.425 . S
C1262 C1269 1.409 . S
C1263 H1255 0.930 . S
C1263 C1261 1.419 . S
C1263 C1264 1.362 . S
C1264 H1256 0.930 . S
C1264 C1263 1.362 . S
C1264 C1267 1.409 . S
C1265 H1257 0.930 . S
C1265 C1266 1.355 . S
C1265 C1267 1.415 . S
C1266 C1265 1.355 . S
C1266 C1268 1.419 . S
C1267 C1262 1.425 . S
C1267 C1264 1.409 . S
C1267 C1265 1.415 . S
C1268 H1258 0.930 . S
C1268 C1266 1.419 . S
C1268 C1269 1.362 . S
C1269 H1259 0.930 . S
C1269 C1262 1.409 . S
C1269 C1268 1.362 . S
H1270 C1276 0.930 . S
H1271 C1279 0.930 . S
H1272 C1280 0.930 . S
H1273 C1281 0.930 . S
H1274 C1284 0.930 . S
H1275 C1285 0.930 . S
C1276 H1270 0.930 . S
C1276 C1277 1.355 . S
C1276 C1278 1.415 . S
C1277 C1276 1.355 . S
C1277 C1279 1.419 . S
C1278 C1276 1.415 . S
C1278 C1283 1.425 . S
C1278 C1285 1.409 . S
C1279 H1271 0.930 . S
C1279 C1277 1.419 . S
C1279 C1280 1.362 . S
C1280 H1272 0.930 . S
C1280 C1279 1.362 . S
C1280 C1283 1.409 . S
C1281 H1273 0.930 . S
C1281 C1282 1.355 . S
C1281 C1283 1.415 . S
C1282 C1281 1.355 . S
C1282 C1284 1.419 . S
C1283 C1278 1.425 . S
C1283 C1280 1.409 . S
C1283 C1281 1.415 . S
C1284 H1274 0.930 . S
C1284 C1282 1.419 . S
C1284 C1285 1.362 . S
C1285 H1275 0.930 . S
C1285 C1278 1.409 . S
C1285 C1284 1.362 . S
H1286 C1292 0.930 . S
H1287 C1295 0.930 . S
H1288 C1296 0.930 . S
H1289 C1297 0.930 . S
H1290 C1300 0.930 . S
H1291 C1301 0.930 . S
C1292 H1286 0.930 . S
C1292 C1293 1.355 . S
C1292 C1294 1.415 . S
C1293 C1292 1.355 . S
C1293 C1295 1.419 . S
C1294 C1292 1.415 . S
C1294 C1299 1.425 . S
C1294 C1301 1.409 . S
C1295 H1287 0.930 . S
C1295 C1293 1.419 . S
C1295 C1296 1.362 . S
C1296 H1288 0.930 . S
C1296 C1295 1.362 . S
C1296 C1299 1.409 . S
C1297 H1289 0.930 . S
C1297 C1298 1.355 . S
C1297 C1299 1.415 . S
C1298 C1297 1.355 . S
C1298 C1300 1.419 . S
C1299 C1294 1.425 . S
C1299 C1296 1.409 . S
C1299 C1297 1.415 . S
C1300 H1290 0.930 . S
C1300 C1298 1.419 . S
C1300 C1301 1.362 . S
C1301 H1291 0.930 . S
C1301 C1294 1.409 . S
C1301 C1300 1.362 . S
H1302 C1308 0.930 . S
H1303 C1311 0.930 . S
H1304 C1312 0.930 . S
H1305 C1313 0.930 . S
H1306 C1316 0.930 . S
H1307 C1317 0.930 . S
C1308 H1302 0.930 . S
C1308 C1309 1.355 1_455 S
C1308 C1310 1.415 . S
C1309 C1308 1.355 1_655 S
C1309 C1311 1.419 . S
C1310 C1308 1.415 . S
C1310 C1315 1.425 1_455 S
C1310 C1317 1.409 . S
C1311 H1303 0.930 . S
C1311 C1309 1.419 . S
C1311 C1312 1.362 . S
C1312 H1304 0.930 . S
C1312 C1311 1.362 . S
C1312 C1315 1.409 . S
C1313 H1305 0.930 . S
C1313 C1314 1.355 1_655 S
C1313 C1315 1.415 . S
C1314 C1313 1.355 1_455 S
C1314 C1316 1.419 . S
C1315 C1310 1.425 1_655 S
C1315 C1312 1.409 . S
C1315 C1313 1.415 . S
C1316 H1306 0.930 . S
C1316 C1314 1.419 . S
C1316 C1317 1.362 . S
C1317 H1307 0.930 . S
C1317 C1310 1.409 . S
C1317 C1316 1.362 . S
H1318 C1324 0.930 . S
H1319 C1327 0.930 . S
H1320 C1328 0.930 . S
H1321 C1329 0.930 . S
H1322 C1332 0.930 . S
H1323 C1333 0.930 . S
C1324 H1318 0.930 . S
C1324 C1325 1.355 . S
C1324 C1326 1.415 . S
C1325 C1324 1.355 . S
C1325 C1327 1.419 . S
C1326 C1324 1.415 . S
C1326 C1331 1.425 . S
C1326 C1333 1.409 . S
C1327 H1319 0.930 . S
C1327 C1325 1.419 . S
C1327 C1328 1.362 . S
C1328 H1320 0.930 . S
C1328 C1327 1.362 . S
C1328 C1331 1.409 . S
C1329 H1321 0.930 . S
C1329 C1330 1.355 . S
C1329 C1331 1.415 . S
C1330 C1329 1.355 . S
C1330 C1332 1.419 . S
C1331 C1326 1.425 . S
C1331 C1328 1.409 . S
C1331 C1329 1.415 . S
C1332 H1322 0.930 . S
C1332 C1330 1.419 . S
C1332 C1333 1.362 . S
C1333 H1323 0.930 . S
C1333 C1326 1.409 . S
C1333 C1332 1.362 . S
H1334 C1340 0.930 . S
H1335 C1343 0.930 . S
H1336 C1344 0.930 . S
H1337 C1345 0.930 . S
H1338 C1348 0.930 . S
H1339 C1349 0.930 . S
C1340 H1334 0.930 . S
C1340 C1341 1.355 1_545 S
C1340 C1342 1.415 . S
C1341 C1340 1.355 1_565 S
C1341 C1343 1.419 . S
C1342 C1340 1.415 . S
C1342 C1347 1.425 1_545 S
C1342 C1349 1.409 . S
C1343 H1335 0.930 . S
C1343 C1341 1.419 . S
C1343 C1344 1.362 . S
C1344 H1336 0.930 . S
C1344 C1343 1.362 . S
C1344 C1347 1.409 . S
C1345 H1337 0.930 . S
C1345 C1346 1.355 1_565 S
C1345 C1347 1.415 . S
C1346 C1345 1.355 1_545 S
C1346 C1348 1.419 . S
C1347 C1342 1.425 1_565 S
C1347 C1344 1.409 . S
C1347 C1345 1.415 . S
C1348 H1338 0.930 . S
C1348 C1346 1.419 . S
C1348 C1349 1.362 . S
C1349 H1339 0.930 . S
C1349 C1342 1.409 . S
C1349 C1348 1.362 . S
H1350 C1356 0.930 . S
H1351 C1359 0.930 . S
H1352 C1360 0.930 . S
H1353 C1361 0.930 . S
H1354 C1364 0.930 . S
H1355 C1365 0.930 . S
C1356 H1350 0.930 . S
C1356 C1357 1.355 . S
C1356 C1358 1.415 . S
C1357 C1356 1.355 . S
C1357 C1359 1.419 . S
C1358 C1356 1.415 . S
C1358 C1363 1.425 1_554 S
C1358 C1365 1.409 . S
C1359 H1351 0.930 . S
C1359 C1357 1.419 . S
C1359 C1360 1.362 1_554 S
C1360 H1352 0.930 . S
C1360 C1359 1.362 1_556 S
C1360 C1363 1.409 . S
C1361 H1353 0.930 . S
C1361 C1362 1.355 . S
C1361 C1363 1.415 . S
C1362 C1361 1.355 . S
C1362 C1364 1.419 . S
C1363 C1358 1.425 1_556 S
C1363 C1360 1.409 . S
C1363 C1361 1.415 . S
C1364 H1354 0.930 . S
C1364 C1362 1.419 . S
C1364 C1365 1.362 1_556 S
C1365 H1355 0.930 . S
C1365 C1358 1.409 . S
C1365 C1364 1.362 1_554 S
H1366 C1372 0.930 . S
H1367 C1375 0.930 . S
H1368 C1376 0.930 . S
H1369 C1377 0.930 . S
H1370 C1380 0.930 . S
H1371 C1381 0.930 . S
C1372 H1366 0.930 . S
C1372 C1373 1.355 . S
C1372 C1374 1.415 . S
C1373 C1372 1.355 . S
C1373 C1375 1.419 . S
C1374 C1372 1.415 . S
C1374 C1379 1.425 1_546 S
C1374 C1381 1.409 1_545 S
C1375 H1367 0.930 . S
C1375 C1373 1.419 . S
C1375 C1376 1.362 1_556 S
C1376 H1368 0.930 . S
C1376 C1375 1.362 1_554 S
C1376 C1379 1.409 1_545 S
C1377 H1369 0.930 . S
C1377 C1378 1.355 . S
C1377 C1379 1.415 . S
C1378 C1377 1.355 . S
C1378 C1380 1.419 . S
C1379 C1374 1.425 1_564 S
C1379 C1376 1.409 1_565 S
C1379 C1377 1.415 . S
C1380 H1370 0.930 . S
C1380 C1378 1.419 . S
C1380 C1381 1.362 1_554 S
C1381 H1371 0.930 . S
C1381 C1374 1.409 1_565 S
C1381 C1380 1.362 1_556 S
H1382 C1388 0.930 . S
H1383 C1391 0.930 . S
H1384 C1392 0.930 . S
H1385 C1393 0.930 . S
H1386 C1396 0.930 . S
H1387 C1397 0.930 1_655 S
C1388 H1382 0.930 . S
C1388 C1389 1.355 1_554 S
C1388 C1390 1.415 . S
C1389 C1388 1.355 1_556 S
C1389 C1391 1.419 . S
C1390 C1388 1.415 . S
C1390 C1395 1.425 1_654 S
C1390 C1397 1.409 1_655 S
C1391 H1383 0.930 . S
C1391 C1389 1.419 . S
C1391 C1392 1.362 . S
C1392 H1384 0.930 . S
C1392 C1391 1.362 . S
C1392 C1395 1.409 1_655 S
C1393 H1385 0.930 . S
C1393 C1394 1.355 1_556 S
C1393 C1395 1.415 . S
C1394 C1393 1.355 1_554 S
C1394 C1396 1.419 . S
C1395 C1390 1.425 1_456 S
C1395 C1392 1.409 1_455 S
C1395 C1393 1.415 . S
C1396 H1386 0.930 . S
C1396 C1394 1.419 . S
C1396 C1397 1.362 . S
C1397 H1387 0.930 1_455 S
C1397 C1390 1.409 1_455 S
C1397 C1396 1.362 . S
H1398 C1404 0.930 . S
H1399 C1407 0.930 . S
H1400 C1408 0.930 . S
H1401 C1409 0.930 . S
H1402 C1412 0.930 . S
H1403 C1413 0.930 . S
C1404 H1398 0.930 . S
C1404 C1405 1.355 . S
C1404 C1406 1.421 . S
C1405 C1404 1.355 . S
C1405 C1407 1.419 . S
C1406 C1404 1.421 . S
C1406 C1411 1.425 1_556 S
C1406 C1413 1.404 1_556 S
C1407 H1399 0.930 . S
C1407 C1405 1.419 . S
C1407 C1408 1.362 . S
C1408 H1400 0.930 . S
C1408 C1407 1.362 . S
C1408 C1411 1.406 1_556 S
C1409 H1401 0.930 . S
C1409 C1410 1.355 . S
C1409 C1411 1.418 . S
C1410 C1409 1.355 . S
C1410 C1412 1.419 . S
C1411 C1406 1.425 1_554 S
C1411 C1408 1.406 1_554 S
C1411 C1409 1.418 . S
C1412 H1402 0.930 . S
C1412 C1410 1.419 . S
C1412 C1413 1.362 . S
C1413 H1403 0.930 . S
C1413 C1406 1.404 1_554 S
C1413 C1412 1.362 . S
H1414 C1420 0.930 . S
H1415 C1423 0.930 . S
H1416 C1424 0.930 1_545 S
H1417 C1425 0.930 . S
H1418 C1428 0.930 . S
H1419 C1429 0.930 1_565 S
C1420 H1414 0.930 . S
C1420 C1421 1.355 1_556 S
C1420 C1422 1.415 . S
C1421 C1420 1.355 1_554 S
C1421 C1423 1.419 . S
C1422 C1420 1.415 . S
C1422 C1427 1.425 1_566 S
C1422 C1429 1.409 1_565 S
C1423 H1415 0.930 . S
C1423 C1421 1.419 . S
C1423 C1424 1.362 . S
C1424 H1416 0.930 1_565 S
C1424 C1423 1.362 . S
C1424 C1427 1.409 1_565 S
C1425 H1417 0.930 . S
C1425 C1426 1.355 1_554 S
C1425 C1427 1.415 . S
C1426 C1425 1.355 1_556 S
C1426 C1428 1.419 . S
C1427 C1422 1.425 1_544 S
C1427 C1424 1.409 1_545 S
C1427 C1425 1.415 . S
C1428 H1418 0.930 . S
C1428 C1426 1.419 . S
C1428 C1429 1.362 . S
C1429 H1419 0.930 1_545 S
C1429 C1422 1.409 1_545 S
C1429 C1428 1.362 . S
H1430 C1436 0.930 . S
H1431 C1439 0.930 . S
H1432 C1440 0.930 1_455 S
H1433 C1441 0.930 . S
H1434 C1444 0.930 . S
H1435 C1445 0.930 1_655 S
C1436 H1430 0.930 . S
C1436 C1437 1.355 1_554 S
C1436 C1438 1.415 . S
C1437 C1436 1.355 1_556 S
C1437 C1439 1.419 . S
C1438 C1436 1.415 . S
C1438 C1443 1.425 1_654 S
C1438 C1445 1.409 1_655 S
C1439 H1431 0.930 . S
C1439 C1437 1.419 . S
C1439 C1440 1.362 . S
C1440 H1432 0.930 1_655 S
C1440 C1439 1.362 . S
C1440 C1443 1.409 1_655 S
C1441 H1433 0.930 . S
C1441 C1442 1.355 1_556 S
C1441 C1443 1.415 . S
C1442 C1441 1.355 1_554 S
C1442 C1444 1.419 . S
C1443 C1438 1.425 1_456 S
C1443 C1440 1.409 1_455 S
C1443 C1441 1.415 . S
C1444 H1434 0.930 . S
C1444 C1442 1.419 . S
C1444 C1445 1.362 . S
C1445 H1435 0.930 1_455 S
C1445 C1438 1.409 1_455 S
C1445 C1444 1.362 . S
H1446 C1452 0.930 . S
H1447 C1455 0.930 . S
H1448 C1456 0.930 . S
H1449 C1457 0.930 . S
H1450 C1460 0.930 . S
H1451 C1461 0.930 . S
C1452 H1446 0.930 . S
C1452 C1453 1.355 . S
C1452 C1454 1.415 . S
C1453 C1452 1.355 . S
C1453 C1455 1.419 . S
C1454 C1452 1.415 . S
C1454 C1459 1.425 . S
C1454 C1461 1.409 . S
C1455 H1447 0.930 . S
C1455 C1453 1.419 . S
C1455 C1456 1.362 . S
C1456 H1448 0.930 . S
C1456 C1455 1.362 . S
C1456 C1459 1.409 . S
C1457 H1449 0.930 . S
C1457 C1458 1.355 . S
C1457 C1459 1.415 . S
C1458 C1457 1.355 . S
C1458 C1460 1.419 . S
C1459 C1454 1.425 . S
C1459 C1456 1.409 . S
C1459 C1457 1.415 . S
C1460 H1450 0.930 . S
C1460 C1458 1.419 . S
C1460 C1461 1.362 . S
C1461 H1451 0.930 . S
C1461 C1454 1.409 . S
C1461 C1460 1.362 . S
H1462 C1468 0.930 . S
H1463 C1471 0.930 . S
H1464 C1472 0.930 . S
H1465 C1473 0.930 . S
H1466 C1476 0.930 . S
H1467 C1477 0.930 . S
C1468 H1462 0.930 . S
C1468 C1469 1.355 . S
C1468 C1470 1.415 . S
C1469 C1468 1.355 . S
C1469 C1471 1.419 . S
C1470 C1468 1.415 . S
C1470 C1475 1.425 . S
C1470 C1477 1.409 . S
C1471 H1463 0.930 . S
C1471 C1469 1.419 . S
C1471 C1472 1.362 . S
C1472 H1464 0.930 . S
C1472 C1471 1.362 . S
C1472 C1475 1.409 . S
C1473 H1465 0.930 . S
C1473 C1474 1.355 . S
C1473 C1475 1.415 . S
C1474 C1473 1.355 . S
C1474 C1476 1.419 . S
C1475 C1470 1.425 . S
C1475 C1472 1.409 . S
C1475 C1473 1.415 . S
C1476 H1466 0.930 . S
C1476 C1474 1.419 . S
C1476 C1477 1.362 . S
C1477 H1467 0.930 . S
C1477 C1470 1.409 . S
C1477 C1476 1.362 . S
H1478 C1484 0.930 . S
H1479 C1487 0.930 . S
H1480 C1488 0.930 . S
H1481 C1489 0.930 . S
H1482 C1492 0.930 . S
H1483 C1493 0.930 . S
C1484 H1478 0.930 . S
C1484 C1485 1.355 . S
C1484 C1486 1.415 . S
C1485 C1484 1.355 . S
C1485 C1487 1.419 . S
C1486 C1484 1.415 . S
C1486 C1491 1.425 . S
C1486 C1493 1.409 . S
C1487 H1479 0.930 . S
C1487 C1485 1.419 . S
C1487 C1488 1.362 . S
C1488 H1480 0.930 . S
C1488 C1487 1.362 . S
C1488 C1491 1.409 . S
C1489 H1481 0.930 . S
C1489 C1490 1.355 . S
C1489 C1491 1.415 . S
C1490 C1489 1.355 . S
C1490 C1492 1.419 . S
C1491 C1486 1.425 . S
C1491 C1488 1.409 . S
C1491 C1489 1.415 . S
C1492 H1482 0.930 . S
C1492 C1490 1.419 . S
C1492 C1493 1.362 . S
C1493 H1483 0.930 . S
C1493 C1486 1.409 . S
C1493 C1492 1.362 . S
H1494 C1500 0.930 . S
H1495 C1503 0.930 . S
H1496 C1504 0.930 . S
H1497 C1505 0.930 . S
H1498 C1508 0.930 . S
H1499 C1509 0.930 . S
C1500 H1494 0.930 . S
C1500 C1501 1.355 . S
C1500 C1502 1.415 . S
C1501 C1500 1.355 . S
C1501 C1503 1.419 . S
C1502 C1500 1.415 . S
C1502 C1507 1.425 . S
C1502 C1509 1.409 . S
C1503 H1495 0.930 . S
C1503 C1501 1.419 . S
C1503 C1504 1.362 . S
C1504 H1496 0.930 . S
C1504 C1503 1.362 . S
C1504 C1507 1.409 . S
C1505 H1497 0.930 . S
C1505 C1506 1.355 . S
C1505 C1507 1.415 . S
C1506 C1505 1.355 . S
C1506 C1508 1.419 . S
C1507 C1502 1.425 . S
C1507 C1504 1.409 . S
C1507 C1505 1.415 . S
C1508 H1498 0.930 . S
C1508 C1506 1.419 . S
C1508 C1509 1.362 . S
C1509 H1499 0.930 . S
C1509 C1502 1.409 . S
C1509 C1508 1.362 . S
H1510 C1516 0.930 . S
H1511 C1519 0.930 . S
H1512 C1520 0.930 . S
H1513 C1521 0.930 . S
H1514 C1524 0.930 . S
H1515 C1525 0.930 . S
C1516 H1510 0.930 . S
C1516 C1517 1.355 . S
C1516 C1518 1.415 . S
C1517 C1516 1.355 . S
C1517 C1519 1.419 . S
C1518 C1516 1.415 . S
C1518 C1523 1.425 . S
C1518 C1525 1.409 . S
C1519 H1511 0.930 . S
C1519 C1517 1.419 . S
C1519 C1520 1.362 . S
C1520 H1512 0.930 . S
C1520 C1519 1.362 . S
C1520 C1523 1.409 . S
C1521 H1513 0.930 . S
C1521 C1522 1.355 . S
C1521 C1523 1.415 . S
C1522 C1521 1.355 . S
C1522 C1524 1.419 . S
C1523 C1518 1.425 . S
C1523 C1520 1.409 . S
C1523 C1521 1.415 . S
C1524 H1514 0.930 . S
C1524 C1522 1.419 . S
C1524 C1525 1.362 . S
C1525 H1515 0.930 . S
C1525 C1518 1.409 . S
C1525 C1524 1.362 . S
H1526 C1532 0.930 . S
H1527 C1535 0.930 . S
H1528 C1536 0.930 . S
H1529 C1537 0.930 . S
H1530 C1540 0.930 . S
H1531 C1541 0.930 . S
C1532 H1526 0.930 . S
C1532 C1533 1.355 . S
C1532 C1534 1.415 . S
C1533 C1532 1.355 . S
C1533 C1535 1.419 . S
C1534 C1532 1.415 . S
C1534 C1539 1.425 . S
C1534 C1541 1.409 . S
C1535 H1527 0.930 . S
C1535 C1533 1.419 . S
C1535 C1536 1.362 . S
C1536 H1528 0.930 . S
C1536 C1535 1.362 . S
C1536 C1539 1.409 . S
C1537 H1529 0.930 . S
C1537 C1538 1.355 . S
C1537 C1539 1.415 . S
C1538 C1537 1.355 . S
C1538 C1540 1.419 . S
C1539 C1534 1.425 . S
C1539 C1536 1.409 . S
C1539 C1537 1.415 . S
C1540 H1530 0.930 . S
C1540 C1538 1.419 . S
C1540 C1541 1.362 . S
C1541 H1531 0.930 . S
C1541 C1534 1.409 . S
C1541 C1540 1.362 . S
H1542 C1548 0.930 . S
H1543 C1551 0.930 . S
H1544 C1552 0.930 . S
H1545 C1553 0.930 . S
H1546 C1556 0.930 . S
H1547 C1557 0.930 . S
C1548 H1542 0.930 . S
C1548 C1549 1.355 . S
C1548 C1550 1.415 . S
C1549 C1548 1.355 . S
C1549 C1551 1.419 . S
C1550 C1548 1.415 . S
C1550 C1555 1.425 . S
C1550 C1557 1.409 . S
C1551 H1543 0.930 . S
C1551 C1549 1.419 . S
C1551 C1552 1.362 . S
C1552 H1544 0.930 . S
C1552 C1551 1.362 . S
C1552 C1555 1.409 . S
C1553 H1545 0.930 . S
C1553 C1554 1.355 . S
C1553 C1555 1.415 . S
C1554 C1553 1.355 . S
C1554 C1556 1.419 . S
C1555 C1550 1.425 . S
C1555 C1552 1.409 . S
C1555 C1553 1.415 . S
C1556 H1546 0.930 . S
C1556 C1554 1.419 . S
C1556 C1557 1.362 . S
C1557 H1547 0.930 . S
C1557 C1550 1.409 . S
C1557 C1556 1.362 . S
H1558 C1564 0.930 . S
H1559 C1567 0.930 . S
H1560 C1568 0.930 . S
H1561 C1569 0.930 . S
H1562 C1572 0.930 . S
H1563 C1573 0.930 . S
C1564 H1558 0.930 . S
C1564 C1565 1.355 . S
C1564 C1566 1.415 . S
C1565 C1564 1.355 . S
C1565 C1567 1.419 . S
C1566 C1564 1.415 . S
C1566 C1571 1.425 . S
C1566 C1573 1.409 . S
C1567 H1559 0.930 . S
C1567 C1565 1.419 . S
C1567 C1568 1.362 . S
C1568 H1560 0.930 . S
C1568 C1567 1.362 . S
C1568 C1571 1.409 . S
C1569 H1561 0.930 . S
C1569 C1570 1.355 . S
C1569 C1571 1.415 . S
C1570 C1569 1.355 . S
C1570 C1572 1.419 . S
C1571 C1566 1.425 . S
C1571 C1568 1.409 . S
C1571 C1569 1.415 . S
C1572 H1562 0.930 . S
C1572 C1570 1.419 . S
C1572 C1573 1.362 . S
C1573 H1563 0.930 . S
C1573 C1566 1.409 . S
C1573 C1572 1.362 . S
H1574 C1580 0.930 . S
H1575 C1583 0.930 . S
H1576 C1584 0.930 . S
H1577 C1585 0.930 . S
H1578 C1588 0.930 . S
H1579 C1589 0.930 . S
C1580 H1574 0.930 . S
C1580 C1581 1.355 . S
C1580 C1582 1.415 . S
C1581 C1580 1.355 . S
C1581 C1583 1.419 . S
C1582 C1580 1.415 . S
C1582 C1587 1.425 . S
C1582 C1589 1.409 . S
C1583 H1575 0.930 . S
C1583 C1581 1.419 . S
C1583 C1584 1.362 . S
C1584 H1576 0.930 . S
C1584 C1583 1.362 . S
C1584 C1587 1.409 . S
C1585 H1577 0.930 . S
C1585 C1586 1.355 . S
C1585 C1587 1.415 . S
C1586 C1585 1.355 . S
C1586 C1588 1.419 . S
C1587 C1582 1.425 . S
C1587 C1584 1.409 . S
C1587 C1585 1.415 . S
C1588 H1578 0.930 . S
C1588 C1586 1.419 . S
C1588 C1589 1.362 . S
C1589 H1579 0.930 . S
C1589 C1582 1.409 . S
C1589 C1588 1.362 . S
H1590 C1596 0.930 . S
H1591 C1599 0.930 . S
H1592 C1600 0.930 . S
H1593 C1601 0.930 . S
H1594 C1604 0.930 . S
H1595 C1605 0.930 . S
C1596 H1590 0.930 . S
C1596 C1597 1.355 . S
C1596 C1598 1.415 . S
C1597 C1596 1.355 . S
C1597 C1599 1.419 . S
C1598 C1596 1.415 . S
C1598 C1603 1.425 . S
C1598 C1605 1.409 . S
C1599 H1591 0.930 . S
C1599 C1597 1.419 . S
C1599 C1600 1.362 . S
C1600 H1592 0.930 . S
C1600 C1599 1.362 . S
C1600 C1603 1.409 . S
C1601 H1593 0.930 . S
C1601 C1602 1.355 . S
C1601 C1603 1.415 . S
C1602 C1601 1.355 . S
C1602 C1604 1.419 . S
C1603 C1598 1.425 . S
C1603 C1600 1.409 . S
C1603 C1601 1.415 . S
C1604 H1594 0.930 . S
C1604 C1602 1.419 . S
C1604 C1605 1.362 . S
C1605 H1595 0.930 . S
C1605 C1598 1.409 . S
C1605 C1604 1.362 . S
H1606 C1612 0.930 . S
H1607 C1615 0.930 . S
H1608 C1616 0.930 . S
H1609 C1617 0.930 . S
H1610 C1620 0.930 . S
H1611 C1621 0.930 . S
C1612 H1606 0.930 . S
C1612 C1613 1.355 . S
C1612 C1614 1.415 . S
C1613 C1612 1.355 . S
C1613 C1615 1.419 . S
C1614 C1612 1.415 . S
C1614 C1619 1.425 . S
C1614 C1621 1.409 . S
C1615 H1607 0.930 . S
C1615 C1613 1.419 . S
C1615 C1616 1.362 . S
C1616 H1608 0.930 . S
C1616 C1615 1.362 . S
C1616 C1619 1.409 . S
C1617 H1609 0.930 . S
C1617 C1618 1.355 . S
C1617 C1619 1.415 . S
C1618 C1617 1.355 . S
C1618 C1620 1.419 . S
C1619 C1614 1.425 . S
C1619 C1616 1.409 . S
C1619 C1617 1.415 . S
C1620 H1610 0.930 . S
C1620 C1618 1.419 . S
C1620 C1621 1.362 . S
C1621 H1611 0.930 . S
C1621 C1614 1.409 . S
C1621 C1620 1.362 . S
H1622 C1628 0.930 . S
H1623 C1631 0.930 . S
H1624 C1632 0.930 . S
H1625 C1633 0.930 . S
H1626 C1636 0.930 . S
H1627 C1637 0.930 . S
C1628 H1622 0.930 . S
C1628 C1629 1.355 . S
C1628 C1630 1.415 . S
C1629 C1628 1.355 . S
C1629 C1631 1.419 . S
C1630 C1628 1.415 . S
C1630 C1635 1.425 . S
C1630 C1637 1.409 . S
C1631 H1623 0.930 . S
C1631 C1629 1.419 . S
C1631 C1632 1.362 . S
C1632 H1624 0.930 . S
C1632 C1631 1.362 . S
C1632 C1635 1.409 . S
C1633 H1625 0.930 . S
C1633 C1634 1.355 . S
C1633 C1635 1.415 . S
C1634 C1633 1.355 . S
C1634 C1636 1.419 . S
C1635 C1630 1.425 . S
C1635 C1632 1.409 . S
C1635 C1633 1.415 . S
C1636 H1626 0.930 . S
C1636 C1634 1.419 . S
C1636 C1637 1.362 . S
C1637 H1627 0.930 . S
C1637 C1630 1.409 . S
C1637 C1636 1.362 . S
C1069 C1006 1.690 . S
C1074 C3 1.691 . S
C1085 C890 1.695 . S
C1090 C64 1.695 . S
C1101 C949 1.686 . S
C1106 C123 1.684 . S
C1117 C418 1.692 . S
C1122 C182 1.689 . S
C1133 C477 1.684 . S
C1138 C241 1.684 . S
C1149 C298 1.683 . S
C1154 C357 1.705 . S
C1165 C536 1.686 . S
C1170 C772 1.684 . S
C1181 C595 1.684 . S
C1186 C831 1.685 . S
C1197 C652 1.689 . S
C1202 C711 1.706 . S
C1213 C33 0.765 . S
C1218 C1036 0.753 . S
C1229 C937 0.695 . S
C1234 C111 0.704 . S
C1245 C170 0.706 . S
C1250 C996 0.744 . S
C1261 C465 0.762 . S
C1266 C229 0.756 . S
C1277 C288 0.758 . S
C1282 C524 0.724 . S
C1293 C328 0.773 . S
C1298 C387 0.763 . S
C1309 C583 0.697 . S
C1314 C819 0.701 . S
C1325 C878 0.731 . S
C1330 C642 0.697 . S
C1341 C741 0.721 . S
C1346 C682 0.734 . S
C1357 C52 1.825 . S
C1362 C210 1.805 . S
C1373 C269 1.799 . S
C1378 C92 1.814 . S
C1389 C347 1.821 . S
C1394 C151 1.815 . S
C1405 C300 1.785 . S
C1410 C62 1.778 . S
C1421 C121 1.787 . S
C1426 C180 1.783 . S
C1437 C239 1.786 . S
C1442 C5 1.796 . S
C1453 C406 1.822 . S
C1458 C564 1.814 . S
C1469 C623 1.803 . S
C1474 C446 1.821 . S
C1485 C701 1.813 . S
C1490 C505 1.823 . S
C1501 C654 1.778 . S
C1506 C416 1.767 . S
C1517 C475 1.743 . S
C1522 C534 1.752 . S
C1533 C593 1.741 . S
C1538 C359 1.770 . S
C1549 C918 1.824 . S
C1554 C760 1.801 . S
C1565 C977 1.805 . S
C1570 C800 1.823 . S
C1581 C859 1.819 . S
C1586 C1055 1.799 . S
C1597 C1008 1.785 . S
C1602 C770 1.777 . S
C1613 C829 1.760 . S
C1618 C888 1.749 . S
C1629 C947 1.744 . S
C1634 C713 1.770 . S
