# Generated by pormake.
# Topology unu, (4)-cn, num edge types: 1
# Building blocks:
#     Node 0, Type 0, BuildingBlock: GALJAG_clean_sbu_0, # of connection points: 4
#     Node 1, Type 0, BuildingBlock: GALJAG_clean_sbu_0, # of connection points: 4
#     Node 2, Type 0, BuildingBlock: GALJAG_clean_sbu_0, # of connection points: 4
#     Node 3, Type 0, BuildingBlock: GALJAG_clean_sbu_0, # of connection points: 4
#     Node 4, Type 0, BuildingBlock: GALJAG_clean_sbu_0, # of connection points: 4
#     Node 5, Type 0, BuildingBlock: GALJAG_clean_sbu_0, # of connection points: 4
#     Node 6, Type 0, BuildingBlock: GALJAG_clean_sbu_0, # of connection points: 4
#     Node 7, Type 0, BuildingBlock: GALJAG_clean_sbu_0, # of connection points: 4
#     Node 8, Type 0, BuildingBlock: GALJAG_clean_sbu_0, # of connection points: 4
#     Node 9, Type 0, BuildingBlock: GALJAG_clean_sbu_0, # of connection points: 4
#     Node 10, Type 0, BuildingBlock: GALJAG_clean_sbu_0, # of connection points: 4
#     Node 11, Type 0, BuildingBlock: GALJAG_clean_sbu_0, # of connection points: 4
#     Node 12, Type 0, BuildingBlock: GALJAG_clean_sbu_0, # of connection points: 4
#     Node 13, Type 0, BuildingBlock: GALJAG_clean_sbu_0, # of connection points: 4
#     Node 14, Type 0, BuildingBlock: GALJAG_clean_sbu_0, # of connection points: 4
#     Node 15, Type 0, BuildingBlock: GALJAG_clean_sbu_0, # of connection points: 4
#     Node 16, Type 0, BuildingBlock: GALJAG_clean_sbu_0, # of connection points: 4
#     Node 17, Type 0, BuildingBlock: GALJAG_clean_sbu_0, # of connection points: 4
#     Node 18, Type 0, BuildingBlock: GALJAG_clean_sbu_0, # of connection points: 4
#     Node 19, Type 0, BuildingBlock: GALJAG_clean_sbu_0, # of connection points: 4
#     Node 20, Type 0, BuildingBlock: GALJAG_clean_sbu_0, # of connection points: 4
#     Node 21, Type 0, BuildingBlock: GALJAG_clean_sbu_0, # of connection points: 4
#     Node 22, Type 0, BuildingBlock: GALJAG_clean_sbu_0, # of connection points: 4
#     Node 23, Type 0, BuildingBlock: GALJAG_clean_sbu_0, # of connection points: 4
#     Node 24, Type 0, BuildingBlock: GALJAG_clean_sbu_0, # of connection points: 4
#     Node 25, Type 0, BuildingBlock: GALJAG_clean_sbu_0, # of connection points: 4
#     Node 26, Type 0, BuildingBlock: GALJAG_clean_sbu_0, # of connection points: 4
#     Node 27, Type 0, BuildingBlock: GALJAG_clean_sbu_0, # of connection points: 4
#     Node 28, Type 0, BuildingBlock: GALJAG_clean_sbu_0, # of connection points: 4
#     Node 29, Type 0, BuildingBlock: GALJAG_clean_sbu_0, # of connection points: 4
#     Node 30, Type 0, BuildingBlock: GALJAG_clean_sbu_0, # of connection points: 4
#     Node 31, Type 0, BuildingBlock: GALJAG_clean_sbu_0, # of connection points: 4
#     Node 32, Type 0, BuildingBlock: GALJAG_clean_sbu_0, # of connection points: 4
#     Node 33, Type 0, BuildingBlock: GALJAG_clean_sbu_0, # of connection points: 4
#     Node 34, Type 0, BuildingBlock: GALJAG_clean_sbu_0, # of connection points: 4
#     Node 35, Type 0, BuildingBlock: GALJAG_clean_sbu_0, # of connection points: 4
#     Edge 36, Type (0, 0), BuildingBlock: XIVTED_clean_linker_0, # of connection points: 2
#     Edge 37, Type (0, 0), BuildingBlock: XIVTED_clean_linker_0, # of connection points: 2
#     Edge 38, Type (0, 0), BuildingBlock: XIVTED_clean_linker_0, # of connection points: 2
#     Edge 39, Type (0, 0), BuildingBlock: XIVTED_clean_linker_0, # of connection points: 2
#     Edge 40, Type (0, 0), BuildingBlock: XIVTED_clean_linker_0, # of connection points: 2
#     Edge 41, Type (0, 0), BuildingBlock: XIVTED_clean_linker_0, # of connection points: 2
#     Edge 42, Type (0, 0), BuildingBlock: XIVTED_clean_linker_0, # of connection points: 2
#     Edge 43, Type (0, 0), BuildingBlock: XIVTED_clean_linker_0, # of connection points: 2
#     Edge 44, Type (0, 0), BuildingBlock: XIVTED_clean_linker_0, # of connection points: 2
#     Edge 45, Type (0, 0), BuildingBlock: XIVTED_clean_linker_0, # of connection points: 2
#     Edge 46, Type (0, 0), BuildingBlock: XIVTED_clean_linker_0, # of connection points: 2
#     Edge 47, Type (0, 0), BuildingBlock: XIVTED_clean_linker_0, # of connection points: 2
#     Edge 48, Type (0, 0), BuildingBlock: XIVTED_clean_linker_0, # of connection points: 2
#     Edge 49, Type (0, 0), BuildingBlock: XIVTED_clean_linker_0, # of connection points: 2
#     Edge 50, Type (0, 0), BuildingBlock: XIVTED_clean_linker_0, # of connection points: 2
#     Edge 51, Type (0, 0), BuildingBlock: XIVTED_clean_linker_0, # of connection points: 2
#     Edge 52, Type (0, 0), BuildingBlock: XIVTED_clean_linker_0, # of connection points: 2
#     Edge 53, Type (0, 0), BuildingBlock: XIVTED_clean_linker_0, # of connection points: 2
#     Edge 54, Type (0, 0), BuildingBlock: XIVTED_clean_linker_0, # of connection points: 2
#     Edge 55, Type (0, 0), BuildingBlock: XIVTED_clean_linker_0, # of connection points: 2
#     Edge 56, Type (0, 0), BuildingBlock: XIVTED_clean_linker_0, # of connection points: 2
#     Edge 57, Type (0, 0), BuildingBlock: XIVTED_clean_linker_0, # of connection points: 2
#     Edge 58, Type (0, 0), BuildingBlock: XIVTED_clean_linker_0, # of connection points: 2
#     Edge 59, Type (0, 0), BuildingBlock: XIVTED_clean_linker_0, # of connection points: 2
#     Edge 60, Type (0, 0), BuildingBlock: XIVTED_clean_linker_0, # of connection points: 2
#     Edge 61, Type (0, 0), BuildingBlock: XIVTED_clean_linker_0, # of connection points: 2
#     Edge 62, Type (0, 0), BuildingBlock: XIVTED_clean_linker_0, # of connection points: 2
#     Edge 63, Type (0, 0), BuildingBlock: XIVTED_clean_linker_0, # of connection points: 2
#     Edge 64, Type (0, 0), BuildingBlock: XIVTED_clean_linker_0, # of connection points: 2
#     Edge 65, Type (0, 0), BuildingBlock: XIVTED_clean_linker_0, # of connection points: 2
#     Edge 66, Type (0, 0), BuildingBlock: XIVTED_clean_linker_0, # of connection points: 2
#     Edge 67, Type (0, 0), BuildingBlock: XIVTED_clean_linker_0, # of connection points: 2
#     Edge 68, Type (0, 0), BuildingBlock: XIVTED_clean_linker_0, # of connection points: 2
#     Edge 69, Type (0, 0), BuildingBlock: XIVTED_clean_linker_0, # of connection points: 2
#     Edge 70, Type (0, 0), BuildingBlock: XIVTED_clean_linker_0, # of connection points: 2
#     Edge 71, Type (0, 0), BuildingBlock: XIVTED_clean_linker_0, # of connection points: 2
#     Edge 72, Type (0, 0), BuildingBlock: XIVTED_clean_linker_0, # of connection points: 2
#     Edge 73, Type (0, 0), BuildingBlock: XIVTED_clean_linker_0, # of connection points: 2
#     Edge 74, Type (0, 0), BuildingBlock: XIVTED_clean_linker_0, # of connection points: 2
#     Edge 75, Type (0, 0), BuildingBlock: XIVTED_clean_linker_0, # of connection points: 2
#     Edge 76, Type (0, 0), BuildingBlock: XIVTED_clean_linker_0, # of connection points: 2
#     Edge 77, Type (0, 0), BuildingBlock: XIVTED_clean_linker_0, # of connection points: 2
#     Edge 78, Type (0, 0), BuildingBlock: XIVTED_clean_linker_0, # of connection points: 2
#     Edge 79, Type (0, 0), BuildingBlock: XIVTED_clean_linker_0, # of connection points: 2
#     Edge 80, Type (0, 0), BuildingBlock: XIVTED_clean_linker_0, # of connection points: 2
#     Edge 81, Type (0, 0), BuildingBlock: XIVTED_clean_linker_0, # of connection points: 2
#     Edge 82, Type (0, 0), BuildingBlock: XIVTED_clean_linker_0, # of connection points: 2
#     Edge 83, Type (0, 0), BuildingBlock: XIVTED_clean_linker_0, # of connection points: 2
#     Edge 84, Type (0, 0), BuildingBlock: XIVTED_clean_linker_0, # of connection points: 2
#     Edge 85, Type (0, 0), BuildingBlock: XIVTED_clean_linker_0, # of connection points: 2
#     Edge 86, Type (0, 0), BuildingBlock: XIVTED_clean_linker_0, # of connection points: 2
#     Edge 87, Type (0, 0), BuildingBlock: XIVTED_clean_linker_0, # of connection points: 2
#     Edge 88, Type (0, 0), BuildingBlock: XIVTED_clean_linker_0, # of connection points: 2
#     Edge 89, Type (0, 0), BuildingBlock: XIVTED_clean_linker_0, # of connection points: 2
#     Edge 90, Type (0, 0), BuildingBlock: XIVTED_clean_linker_0, # of connection points: 2
#     Edge 91, Type (0, 0), BuildingBlock: XIVTED_clean_linker_0, # of connection points: 2
#     Edge 92, Type (0, 0), BuildingBlock: XIVTED_clean_linker_0, # of connection points: 2
#     Edge 93, Type (0, 0), BuildingBlock: XIVTED_clean_linker_0, # of connection points: 2
#     Edge 94, Type (0, 0), BuildingBlock: XIVTED_clean_linker_0, # of connection points: 2
#     Edge 95, Type (0, 0), BuildingBlock: XIVTED_clean_linker_0, # of connection points: 2
#     Edge 96, Type (0, 0), BuildingBlock: XIVTED_clean_linker_0, # of connection points: 2
#     Edge 97, Type (0, 0), BuildingBlock: XIVTED_clean_linker_0, # of connection points: 2
#     Edge 98, Type (0, 0), BuildingBlock: XIVTED_clean_linker_0, # of connection points: 2
#     Edge 99, Type (0, 0), BuildingBlock: XIVTED_clean_linker_0, # of connection points: 2
#     Edge 100, Type (0, 0), BuildingBlock: XIVTED_clean_linker_0, # of connection points: 2
#     Edge 101, Type (0, 0), BuildingBlock: XIVTED_clean_linker_0, # of connection points: 2
#     Edge 102, Type (0, 0), BuildingBlock: XIVTED_clean_linker_0, # of connection points: 2
#     Edge 103, Type (0, 0), BuildingBlock: XIVTED_clean_linker_0, # of connection points: 2
#     Edge 104, Type (0, 0), BuildingBlock: XIVTED_clean_linker_0, # of connection points: 2
#     Edge 105, Type (0, 0), BuildingBlock: XIVTED_clean_linker_0, # of connection points: 2
#     Edge 106, Type (0, 0), BuildingBlock: XIVTED_clean_linker_0, # of connection points: 2
#     Edge 107, Type (0, 0), BuildingBlock: XIVTED_clean_linker_0, # of connection points: 2
# Relax obj value: 0.103
# Max RMSD: 0.228
# Mean RMSD: 0.228
data_MOF--net-unu--node1-GALJAG_clean_sbu_0--edge1-XIVTED_clean_linker_0
_symmetry_space_group_name_H-M    P1
_symmetry_Int_Tables_number       1
_symmetry_cell_setting            triclinic
loop_
_symmetry_equiv_pos_as_xyz
'x, y, z'
_cell_length_a     46.30004
_cell_length_b     46.277191
_cell_length_c     70.47766
_cell_angle_alpha  89.965079
_cell_angle_beta   90.008985
_cell_angle_gamma 120.01233
loop_
_atom_site_label
_atom_site_type_symbol
_atom_site_fract_x
_atom_site_fract_y
_atom_site_fract_z
_atom_type_partial_charge
In0 In 0.20385 0.06307 0.10011 0.0
O1 O 0.24035 0.05998 0.07941 0.0
O2 O 0.22974 0.0349 0.10636 0.0
C3 C 0.17789 0.10161 0.0923 0.0
C4 C 0.24702 0.10353 0.12578 0.0
C5 C 0.14778 0.00433 0.09648 0.0
O6 O 0.1931 0.09498 0.07952 0.0
O7 O 0.17637 0.089 0.10843 0.0
O8 O 0.1597 0.01678 0.1126 0.0
O9 O 0.16419 0.02167 0.08237 0.0
C10 C 0.2461 0.0424 0.09106 0.0
O11 O 0.22043 0.07709 0.13051 0.0
O12 O 0.25089 0.10983 0.10816 0.0
In13 In 0.93157 0.13958 0.0914 0.0
O14 O 0.93335 0.1766 0.06901 0.0
O15 O 0.95481 0.19372 0.09664 0.0
C16 C 0.89436 0.07449 0.08463 0.0
C17 C 0.89071 0.14128 0.11718 0.0
C18 C 0.99207 0.14563 0.08963 0.0
O19 O 0.90039 0.09551 0.07144 0.0
O20 O 0.90716 0.08664 0.10055 0.0
O21 O 0.97861 0.14582 0.10525 0.0
O22 O 0.97485 0.14222 0.07501 0.0
C23 C 0.94796 0.20078 0.08059 0.0
O24 O 0.91797 0.14279 0.12177 0.0
O25 O 0.8838 0.13773 0.09963 0.0
In26 In 0.85109 0.78837 0.09278 0.0
O27 O 0.81408 0.75285 0.07058 0.0
O28 O 0.79677 0.76135 0.09724 0.0
C29 C 0.9169 0.81705 0.08939 0.0
C30 C 0.84437 0.74274 0.11778 0.0
C31 C 0.84678 0.84338 0.08894 0.0
O32 O 0.89804 0.80254 0.07524 0.0
O33 O 0.90225 0.81646 0.10464 0.0
O34 O 0.8453 0.83038 0.10503 0.0
O35 O 0.85064 0.82861 0.0749 0.0
C36 C 0.78966 0.74582 0.08167 0.0
O37 O 0.84346 0.76872 0.12264 0.0
O38 O 0.85044 0.7409 0.1004 0.0
In39 In 0.04922 0.20529 0.39617 0.0
O40 O 0.05075 0.24386 0.4171 0.0
O41 O 0.02512 0.2352 0.39039 0.0
C42 C 0.0833 0.17373 0.40094 0.0
C43 C 0.09058 0.24594 0.36998 0.0
C44 C 0.9891 0.15231 0.40195 0.0
O45 O 0.0816 0.19137 0.41429 0.0
O46 O 0.06792 0.17248 0.38586 0.0
O47 O -0.00038 0.16379 0.38545 0.0
O48 O 0.00893 0.16789 0.41542 0.0
C49 C 0.03442 0.25167 0.40565 0.0
O50 O 0.06237 0.22114 0.36563 0.0
O51 O 0.09791 0.24938 0.38748 0.0
In52 In 0.79816 0.85265 0.40512 0.0
O53 O 0.78429 0.85154 0.37427 0.0
O54 O 0.75199 0.85255 0.39597 0.0
C55 C 0.85332 0.85069 0.41305 0.0
C56 C 0.75531 0.78881 0.41124 0.0
C57 C 0.82218 0.91718 0.41105 0.0
O58 O 0.84388 0.85059 0.39612 0.0
O59 O 0.8349 0.85203 0.42591 0.0
O60 O 0.80553 0.89612 0.42399 0.0
O61 O 0.82683 0.90534 0.39593 0.0
C62 C 0.75742 0.8513 0.37843 0.0
O63 O 0.75844 0.8107 0.42333 0.0
O64 O 0.77475 0.79951 0.39713 0.0
In65 In 0.14115 0.93653 0.40157 0.0
O66 O 0.13699 0.91656 0.37181 0.0
O67 O 0.14252 0.88982 0.39517 0.0
C68 C 0.13848 0.99281 0.40151 0.0
C69 C 0.20645 0.96226 0.40572 0.0
C70 C 0.08076 0.8971 0.41595 0.0
O71 O 0.1353 0.97652 0.38643 0.0
O72 O 0.14295 0.98054 0.4165 0.0
O73 O 0.10612 0.91058 0.42677 0.0
O74 O 0.08648 0.90358 0.3985 0.0
C75 C 0.13997 0.89207 0.3774 0.0
O76 O 0.18645 0.94449 0.4188 0.0
O77 O 0.19324 0.9678 0.39157 0.0
In78 In 0.7874 0.94122 0.91792 0.0
O79 O 0.74772 0.93886 0.9386 0.0
O80 O 0.77883 0.98379 0.92335 0.0
C81 C 0.80496 0.89535 0.92559 0.0
C82 C 0.74195 0.91182 0.89068 0.0
C83 C 0.84868 0.99412 0.9156 0.0
O84 O 0.80074 0.91139 0.93884 0.0
O85 O 0.79918 0.90184 0.90915 0.0
O86 O 0.83024 0.98193 0.90111 0.0
O87 O 0.83622 0.97921 0.93107 0.0
C88 C 0.75478 0.96838 0.93459 0.0
O89 O 0.7711 0.93543 0.88698 0.0
O90 O 0.73632 0.90333 0.90791 0.0
In91 In 0.04482 0.85219 0.90106 0.0
O92 O 0.04314 0.80945 0.91821 0.0
O93 O 0.01537 0.79927 0.89223 0.0
C94 C 0.0863 0.9151 0.91054 0.0
C95 C 0.0851 0.85346 0.87398 0.0
C96 C 0.9872 0.85021 0.9079 0.0
O97 O 0.07909 0.89185 0.9225 0.0
O98 O 0.07198 0.90627 0.89461 0.0
O99 O -0.00184 0.85201 0.89117 0.0
O100 O 0.00557 0.84971 0.92105 0.0
C101 C 0.02454 0.78806 0.90589 0.0
O102 O 0.05874 0.85436 0.87002 0.0
O103 O 0.09099 0.85272 0.89147 0.0
In104 In 0.14987 0.20313 0.8998 0.0
O105 O 0.14965 0.21953 0.86971 0.0
O106 O 0.14639 0.24842 0.89275 0.0
C107 C 0.1549 0.14919 0.90599 0.0
C108 C 0.21321 0.24702 0.9061 0.0
C109 C 0.08504 0.17309 0.90655 0.0
O110 O 0.1545 0.1595 0.88932 0.0
O111 O 0.153 0.16639 0.9194 0.0
O112 O 0.10586 0.19085 0.91934 0.0
O113 O 0.09737 0.17111 0.89091 0.0
C114 C 0.14808 0.24501 0.87499 0.0
O115 O 0.19123 0.24188 0.91862 0.0
O116 O 0.20284 0.22919 0.89132 0.0
In117 In 0.92798 0.78753 0.59038 0.0
O118 O 0.93509 0.75081 0.57188 0.0
O119 O 0.95648 0.76352 0.59982 0.0
C120 C 0.88835 0.81068 0.57969 0.0
C121 C 0.88486 0.74517 0.6154 0.0
C122 C 0.98602 0.84463 0.58823 0.0
O123 O 0.89778 0.79658 0.56767 0.0
O124 O 0.89915 0.81288 0.59639 0.0
O125 O 0.97202 0.83216 0.60397 0.0
O126 O 0.97045 0.82835 0.57365 0.0
C127 C 0.95149 0.74641 0.58498 0.0
O128 O 0.91019 0.77245 0.62047 0.0
O129 O 0.88112 0.73997 0.59767 0.0
In130 In 0.20394 0.13887 0.59683 0.0
O131 O 0.24202 0.17898 0.57691 0.0
O132 O 0.23279 0.19237 0.60453 0.0
C133 C 0.17465 0.07438 0.58835 0.0
C134 C 0.24319 0.13483 0.62277 0.0
C135 C 0.14973 0.14473 0.59319 0.0
O136 O 0.19149 0.09622 0.57581 0.0
O137 O 0.17305 0.08552 0.60443 0.0
O138 O 0.16141 0.14367 0.6093 0.0
O139 O 0.16564 0.14303 0.57906 0.0
C140 C 0.24902 0.20174 0.58919 0.0
O141 O 0.21765 0.1368 0.62728 0.0
O142 O 0.24846 0.13454 0.60513 0.0
In143 In 0.85058 0.05297 0.5923 0.0
O144 O 0.84845 0.06752 0.62257 0.0
O145 O 0.85351 0.10119 0.59995 0.0
C146 C 0.84467 0.99381 0.58525 0.0
C147 C 0.78807 0.03533 0.58475 0.0
C148 C 0.916 0.0892 0.58797 0.0
O149 O 0.84397 0.00348 0.60203 0.0
O150 O 0.84856 0.01423 0.57215 0.0
O151 O 0.89659 0.0867 0.57444 0.0
O152 O 0.90208 0.0731 0.60293 0.0
C153 C 0.85052 0.09496 0.61761 0.0
O154 O 0.81094 0.05221 0.57266 0.0
O155 O 0.79713 0.02683 0.59966 0.0
In156 In 0.86931 0.39351 0.42866 0.0
O157 O 0.908 0.39134 0.40938 0.0
O158 O 0.89381 0.3642 0.43566 0.0
C159 C 0.8456 0.43335 0.41925 0.0
C160 C 0.91052 0.43384 0.45502 0.0
C161 C 0.81263 0.33545 0.42512 0.0
O162 O 0.85945 0.42442 0.4068 0.0
O163 O 0.84402 0.42213 0.43578 0.0
O164 O 0.82444 0.34816 0.4412 0.0
O165 O 0.82949 0.35217 0.41096 0.0
C166 C 0.9122 0.37284 0.42113 0.0
O167 O 0.88354 0.40751 0.45937 0.0
O168 O 0.91583 0.43991 0.43744 0.0
In169 In 0.60435 0.4788 0.42435 0.0
O170 O 0.58773 0.47713 0.45469 0.0
O171 O 0.55717 0.47833 0.43206 0.0
C172 C 0.66271 0.48048 0.42174 0.0
C173 C 0.62605 0.54289 0.41786 0.0
C174 C 0.56466 0.41563 0.41427 0.0
O175 O 0.64909 0.47905 0.43759 0.0
O176 O 0.64667 0.48083 0.4073 0.0
O177 O 0.57316 0.4389 0.40215 0.0
O178 O 0.57655 0.42466 0.43073 0.0
C179 C 0.56169 0.47787 0.44976 0.0
O180 O 0.60965 0.5212 0.40517 0.0
O181 O 0.632 0.53192 0.43288 0.0
In182 In 0.51232 0.1292 0.42025 0.0
O183 O 0.47518 0.09149 0.39892 0.0
O184 O 0.45838 0.09963 0.42584 0.0
C185 C 0.57791 0.15835 0.41613 0.0
C186 C 0.51104 0.08741 0.44633 0.0
C187 C 0.50626 0.18302 0.41523 0.0
O188 O 0.55868 0.14211 0.40242 0.0
O189 O 0.56375 0.15979 0.43114 0.0
O190 O 0.50454 0.17055 0.43152 0.0
O191 O 0.51104 0.1682 0.40154 0.0
C192 C 0.45116 0.0835 0.41047 0.0
O193 O 0.5086 0.11275 0.45075 0.0
O194 O 0.51504 0.08404 0.42884 0.0
In195 In 0.70361 0.52649 0.73522 0.0
O196 O 0.71537 0.54034 0.70417 0.0
O197 O 0.7495 0.57231 0.72564 0.0
C198 C 0.64649 0.471 0.7431 0.0
C199 C 0.68477 0.57077 0.74237 0.0
C200 C 0.74481 0.50334 0.74141 0.0
O201 O 0.65557 0.48071 0.72617 0.0
O202 O 0.66639 0.48936 0.75591 0.0
O203 O 0.73956 0.51936 0.75434 0.0
O204 O 0.72875 0.49876 0.72613 0.0
C205 C 0.74228 0.56709 0.70817 0.0
O206 O 0.70407 0.56716 0.7538 0.0
O207 O 0.67406 0.55079 0.72851 0.0
In208 In 0.45388 0.17609 0.74882 0.0
O209 O 0.43795 0.16703 0.7178 0.0
O210 O 0.40298 0.1635 0.73885 0.0
C211 C 0.51528 0.18462 0.74823 0.0
C212 C 0.42085 0.11529 0.76416 0.0
C213 C 0.47101 0.23937 0.75629 0.0
O214 O 0.49791 0.17861 0.73329 0.0
O215 O 0.50169 0.18677 0.76333 0.0
O216 O 0.46465 0.21866 0.76967 0.0
O217 O 0.46779 0.22766 0.7398 0.0
C218 C 0.40878 0.16138 0.72155 0.0
O219 O 0.41456 0.13784 0.76929 0.0
O220 O 0.44429 0.12425 0.75243 0.0
In221 In 0.81693 0.28239 0.73433 0.0
O222 O 0.85737 0.28489 0.75406 0.0
O223 O 0.87039 0.30904 0.72678 0.0
C224 C 0.7524 0.24587 0.74209 0.0
C225 C 0.81589 0.23945 0.70919 0.0
C226 C 0.82061 0.34135 0.73833 0.0
O227 O 0.77401 0.25118 0.75483 0.0
O228 O 0.76379 0.25893 0.72607 0.0
O229 O 0.82006 0.32911 0.72214 0.0
O230 O 0.81966 0.32387 0.75239 0.0
C231 C 0.87996 0.30147 0.74181 0.0
O232 O 0.81739 0.26654 0.70411 0.0
O233 O 0.814 0.23399 0.72691 0.0
In234 In 0.46873 0.28028 0.24473 0.0
O235 O 0.42883 0.28679 0.25968 0.0
O236 O 0.44991 0.31256 0.23339 0.0
C237 C 0.48594 0.23722 0.25748 0.0
C238 C 0.42908 0.2398 0.2179 0.0
C239 C 0.52654 0.33491 0.25251 0.0
O240 O 0.46985 0.2464 0.26816 0.0
O241 O 0.49303 0.24995 0.24109 0.0
O242 O 0.52071 0.32099 0.23634 0.0
O243 O 0.50303 0.32159 0.26443 0.0
C244 C 0.42878 0.30566 0.24652 0.0
O245 O 0.45665 0.26572 0.21376 0.0
O246 O 0.42259 0.23437 0.23544 0.0
In247 In 0.71657 0.1861 0.23765 0.0
O248 O 0.73115 0.18753 0.20693 0.0
O249 O 0.76392 0.18823 0.22888 0.0
C250 C 0.65848 0.1826 0.24479 0.0
C251 C 0.69593 0.12206 0.24303 0.0
C252 C 0.75411 0.24969 0.24705 0.0
O253 O 0.66896 0.18418 0.22794 0.0
O254 O 0.67744 0.18286 0.2578 0.0
O255 O 0.74816 0.22684 0.25907 0.0
O256 O 0.74131 0.24013 0.23079 0.0
C257 C 0.75793 0.18772 0.21128 0.0
O258 O 0.71447 0.14366 0.25529 0.0
O259 O 0.68746 0.13313 0.22897 0.0
In260 In 0.80412 0.53874 0.24194 0.0
O261 O 0.79541 0.54065 0.21022 0.0
O262 O 0.78815 0.57276 0.22895 0.0
C263 C 0.8032 0.48067 0.23739 0.0
C264 C 0.86647 0.58941 0.24736 0.0
C265 C 0.75426 0.5174 0.26746 0.0
O266 O 0.77946 0.48473 0.23198 0.0
O267 O 0.82812 0.50639 0.24392 0.0
O268 O 0.77891 0.51314 0.26972 0.0
O269 O 0.75703 0.53586 0.25363 0.0
C270 C 0.78859 0.56381 0.21209 0.0
O271 O 0.84584 0.57797 0.26095 0.0
O272 O 0.85548 0.57517 0.23169 0.0
In273 In 0.59991 0.1229 0.92041 0.0
O274 O 0.58173 0.10702 0.95043 0.0
O275 O 0.55723 0.07229 0.92766 0.0
C276 C 0.65233 0.18433 0.91975 0.0
C277 C 0.63428 0.09149 0.91636 0.0
C278 C 0.55706 0.14007 0.90673 0.0
O279 O 0.63736 0.17047 0.93507 0.0
O280 O 0.64035 0.16722 0.90481 0.0
O281 O 0.57247 0.13083 0.89553 0.0
O282 O 0.56303 0.13966 0.92417 0.0
C283 C 0.55926 0.07805 0.94533 0.0
O284 O 0.61096 0.08587 0.90475 0.0
O285 O 0.64007 0.11305 0.92896 0.0
In286 In 0.87305 0.48391 0.92469 0.0
O287 O 0.88987 0.48541 0.95482 0.0
O288 O 0.91658 0.47757 0.93222 0.0
C289 C 0.8209 0.49259 0.91975 0.0
C290 C 0.91972 0.54506 0.91561 0.0
C291 C 0.83933 0.41839 0.91974 0.0
O292 O 0.83239 0.49266 0.93612 0.0
O293 O 0.83616 0.48861 0.906 0.0
O294 O 0.85712 0.4375 0.90633 0.0
O295 O 0.83918 0.4327 0.93498 0.0
C296 C 0.91397 0.48125 0.94987 0.0
O297 O 0.91079 0.52146 0.90363 0.0
O298 O 0.90434 0.53743 0.93126 0.0
In299 In 0.52154 0.38422 0.92173 0.0
O300 O 0.52014 0.39838 0.95231 0.0
O301 O 0.52139 0.43073 0.92992 0.0
C302 C 0.51879 0.32612 0.91534 0.0
C303 C 0.45816 0.36405 0.91473 0.0
C304 C 0.58593 0.42471 0.91537 0.0
O305 O 0.51859 0.33645 0.93201 0.0
O306 O 0.52083 0.34544 0.90203 0.0
O307 O 0.56469 0.41918 0.90235 0.0
O308 O 0.57438 0.40922 0.93081 0.0
C309 C 0.51992 0.42483 0.94758 0.0
O310 O 0.48052 0.38191 0.90263 0.0
O311 O 0.46814 0.35568 0.9293 0.0
In312 In 0.53817 0.7253 0.76733 0.0
O313 O 0.57662 0.72743 0.74609 0.0
O314 O 0.57246 0.70636 0.77386 0.0
C315 C 0.50257 0.75475 0.76062 0.0
C316 C 0.57506 0.76911 0.79366 0.0
C317 C 0.48778 0.66306 0.7629 0.0
O318 O 0.5218 0.7543 0.74785 0.0
O319 O 0.50194 0.74062 0.77608 0.0
O320 O 0.4992 0.67517 0.77915 0.0
O321 O 0.50227 0.6823 0.74903 0.0
C322 C 0.58708 0.71403 0.75799 0.0
O323 O 0.55155 0.74009 0.79789 0.0
O324 O 0.57947 0.77591 0.77609 0.0
In325 In 0.26031 0.80665 0.75383 0.0
O326 O 0.24526 0.80783 0.78424 0.0
O327 O 0.21906 0.81648 0.76184 0.0
C328 C 0.31226 0.79677 0.75479 0.0
C329 C 0.29452 0.87167 0.7463 0.0
C330 C 0.21678 0.74583 0.7411 0.0
O331 O 0.29739 0.79746 0.76977 0.0
O332 O 0.30038 0.80047 0.7394 0.0
O333 O 0.23298 0.76968 0.72954 0.0
O334 O 0.22196 0.75349 0.75843 0.0
C335 C 0.22279 0.81453 0.7795 0.0
O336 O 0.26911 0.85249 0.73635 0.0
O337 O 0.30238 0.85759 0.75893 0.0
In338 In 0.18786 0.46928 0.75873 0.0
O339 O 0.18548 0.45257 0.78909 0.0
O340 O 0.18861 0.42292 0.76641 0.0
C341 C 0.18396 0.52329 0.75039 0.0
C342 C 0.1246 0.42585 0.75202 0.0
C343 C 0.25295 0.49555 0.75448 0.0
O344 O 0.18308 0.51372 0.7674 0.0
O345 O 0.18729 0.50573 0.73772 0.0
O346 O 0.23313 0.47873 0.74108 0.0
O347 O 0.23961 0.49942 0.76923 0.0
C348 C 0.18618 0.42646 0.78409 0.0
O349 O 0.1469 0.43014 0.73991 0.0
O350 O 0.13462 0.44448 0.76651 0.0
In351 In 0.37204 0.86279 0.06511 0.0
O352 O 0.38611 0.87868 0.03462 0.0
O353 O 0.42003 0.90795 0.05691 0.0
C354 C 0.31313 0.8085 0.07112 0.0
C355 C 0.35471 0.90771 0.07365 0.0
C356 C 0.40839 0.83374 0.07009 0.0
O357 O 0.32318 0.82009 0.05458 0.0
O358 O 0.33286 0.82459 0.08455 0.0
O359 O 0.40541 0.85057 0.08347 0.0
O360 O 0.39287 0.83177 0.05494 0.0
C361 C 0.41363 0.90414 0.03929 0.0
O362 O 0.3723 0.90171 0.08518 0.0
O363 O 0.3453 0.89005 0.0588 0.0
In364 In 0.13022 0.50871 0.06863 0.0
O365 O 0.09043 0.46472 0.08558 0.0
O366 O 0.1091 0.45632 0.05942 0.0
C367 C 0.15204 0.57207 0.07691 0.0
C368 C 0.08857 0.50857 0.04293 0.0
C369 C 0.18677 0.50864 0.07501 0.0
O370 O 0.13661 0.54955 0.08939 0.0
O371 O 0.15669 0.56224 0.06106 0.0
O372 O 0.17654 0.50907 0.05835 0.0
O373 O 0.16843 0.50847 0.08841 0.0
C374 C 0.08873 0.44405 0.07305 0.0
O375 O 0.11574 0.50995 0.03811 0.0
O376 O 0.08329 0.508 0.06062 0.0
In377 In 0.48003 0.607 0.06569 0.0
O378 O 0.47892 0.59006 0.03544 0.0
O379 O 0.48274 0.56135 0.05829 0.0
C380 C 0.47652 0.66277 0.06726 0.0
C381 C 0.54487 0.63255 0.07183 0.0
C382 C 0.41821 0.56522 0.07734 0.0
O383 O 0.47559 0.64866 0.05166 0.0
O384 O 0.47925 0.64863 0.08196 0.0
O385 O 0.44219 0.57729 0.08916 0.0
O386 O 0.4259 0.57438 0.06033 0.0
C387 C 0.48168 0.56521 0.04056 0.0
O388 O 0.52363 0.61344 0.08406 0.0
O389 O 0.53303 0.6395 0.05755 0.0
In390 In 0.1265 0.61024 0.57713 0.0
O391 O 0.08856 0.61585 0.59539 0.0
O392 O 0.10429 0.64088 0.56853 0.0
C393 C 0.14697 0.56838 0.58777 0.0
C394 C 0.08465 0.56921 0.55119 0.0
C395 C 0.18439 0.66734 0.57962 0.0
O396 O 0.13366 0.57865 0.5998 0.0
O397 O 0.14998 0.5796 0.57112 0.0
O398 O 0.17168 0.6539 0.56382 0.0
O399 O 0.16798 0.65166 0.59415 0.0
C400 C 0.08557 0.63398 0.58282 0.0
O401 O 0.1124 0.5944 0.54662 0.0
O402 O 0.07882 0.56456 0.56883 0.0
In403 In 0.37324 0.50825 0.56752 0.0
O404 O 0.37329 0.46877 0.58698 0.0
O405 O 0.34494 0.45434 0.56102 0.0
C406 C 0.4113 0.57357 0.57206 0.0
C407 C 0.41361 0.50699 0.54143 0.0
C408 C 0.31538 0.50508 0.57496 0.0
O409 O 0.40822 0.55372 0.58547 0.0
O410 O 0.39492 0.56012 0.55712 0.0
O411 O 0.32447 0.50376 0.55812 0.0
O412 O 0.33558 0.50788 0.58793 0.0
C413 C 0.3548 0.44551 0.57548 0.0
O414 O 0.38627 0.5055 0.53692 0.0
O415 O 0.42045 0.50988 0.559 0.0
In416 In 0.47984 0.86906 0.56465 0.0
O417 O 0.47809 0.88317 0.53411 0.0
O418 O 0.47862 0.91517 0.55637 0.0
C419 C 0.48069 0.81191 0.56708 0.0
C420 C 0.54373 0.9121 0.57127 0.0
C421 C 0.41702 0.84551 0.57557 0.0
O422 O 0.47933 0.82428 0.55128 0.0
O423 O 0.4818 0.82857 0.58155 0.0
O424 O 0.4407 0.85996 0.58746 0.0
O425 O 0.42553 0.8433 0.55886 0.0
C426 C 0.47839 0.90986 0.53873 0.0
O427 O 0.52174 0.90718 0.58367 0.0
O428 O 0.5332 0.89434 0.55653 0.0
In429 In 0.27338 0.46085 0.24852 0.0
O430 O 0.28043 0.42464 0.22941 0.0
O431 O 0.30181 0.4365 0.25736 0.0
C432 C 0.2308 0.48077 0.23854 0.0
C433 C 0.23218 0.41892 0.27445 0.0
C434 C 0.3307 0.51867 0.24574 0.0
O435 O 0.2401 0.46669 0.22644 0.0
O436 O 0.24359 0.48507 0.25486 0.0
O437 O 0.31761 0.506 0.26161 0.0
O438 O 0.31454 0.50232 0.23132 0.0
C439 C 0.29669 0.41975 0.24237 0.0
O440 O 0.25767 0.44641 0.27907 0.0
O441 O 0.22744 0.41331 0.2568 0.0
In442 In 0.53666 0.81155 0.25938 0.0
O443 O 0.57221 0.85364 0.23944 0.0
O444 O 0.55994 0.86516 0.26671 0.0
C445 C 0.51473 0.74903 0.24802 0.0
C446 C 0.57982 0.81359 0.28488 0.0
C447 C 0.47755 0.80868 0.25922 0.0
O448 O 0.52665 0.77281 0.23607 0.0
O449 O 0.51471 0.75736 0.26505 0.0
O450 O 0.49139 0.80732 0.27444 0.0
O451 O 0.49381 0.81188 0.24421 0.0
C452 C 0.57666 0.87579 0.25162 0.0
O453 O 0.55249 0.81168 0.28969 0.0
O454 O 0.58469 0.81356 0.26719 0.0
In455 In 0.17027 0.70218 0.26153 0.0
O456 O 0.1309 0.70503 0.2435 0.0
O457 O 0.11727 0.677 0.2697 0.0
C458 C 0.23595 0.73434 0.25893 0.0
C459 C 0.17303 0.74522 0.28692 0.0
C460 C 0.16179 0.64332 0.25136 0.0
O461 O 0.21831 0.73577 0.24543 0.0
O462 O 0.22006 0.71643 0.27304 0.0
O463 O 0.16062 0.65067 0.26862 0.0
O464 O 0.16701 0.66579 0.23928 0.0
C465 C 0.10834 0.68788 0.25571 0.0
O466 O 0.16913 0.71697 0.29183 0.0
O467 O 0.17657 0.75169 0.26926 0.0
H468 H 0.24715 0.09378 0.164 0.0
H469 H 0.43101 0.24952 0.17939 0.0
H470 H 0.30654 0.15986 0.11882 0.0
H471 H 0.37087 0.18211 0.22392 0.0
H472 H 0.38653 0.21634 0.15663 0.0
H473 H 0.29265 0.1261 0.18616 0.0
C474 C 0.26968 0.11525 0.15879 0.0
C475 C 0.27311 0.12421 0.13959 0.0
C476 C 0.3832 0.20876 0.17137 0.0
C477 C 0.32538 0.16111 0.16475 0.0
C478 C 0.40862 0.22757 0.18432 0.0
C479 C 0.40451 0.21858 0.20354 0.0
C480 C 0.35358 0.18088 0.17777 0.0
C481 C 0.375 0.19001 0.20923 0.0
C482 C 0.29572 0.13361 0.1714 0.0
C483 C 0.30288 0.15215 0.13354 0.0
N484 N 0.35063 0.17228 0.19642 0.0
N485 N 0.32793 0.1696 0.14608 0.0
H486 H 0.81689 0.18965 0.21733 0.0
H487 H 0.83278 0.14145 0.1105 0.0
H488 H 0.74725 0.17747 0.17305 0.0
H489 H 0.90182 0.1536 0.15514 0.0
H490 H 0.80113 0.15475 0.13307 0.0
H491 H 0.84918 0.1781 0.19441 0.0
C492 C 0.80856 0.18483 0.20271 0.0
C493 C 0.77932 0.18441 0.19705 0.0
C494 C 0.82313 0.15441 0.13795 0.0
C495 C 0.81595 0.17078 0.17079 0.0
C496 C 0.84112 0.14666 0.1251 0.0
C497 C 0.86992 0.1464 0.13101 0.0
C498 C 0.83409 0.16198 0.15681 0.0
C499 C 0.8797 0.15346 0.15003 0.0
C500 C 0.82694 0.1781 0.18965 0.0
C501 C 0.76968 0.17805 0.17797 0.0
N502 N 0.86184 0.16105 0.16226 0.0
N503 N 0.78789 0.17129 0.1655 0.0
H504 H 0.76746 0.60893 0.21261 0.0
H505 H 0.84574 0.6852 0.11125 0.0
H506 H 0.80827 0.56433 0.17538 0.0
H507 H 0.82093 0.73618 0.15389 0.0
H508 H 0.82578 0.63705 0.13249 0.0
H509 H 0.77806 0.65073 0.18845 0.0
C510 C 0.77807 0.60758 0.19917 0.0
C511 C 0.7874 0.58346 0.19603 0.0
C512 C 0.82477 0.65881 0.13717 0.0
C513 C 0.8003 0.63163 0.1685 0.0
C514 C 0.83632 0.68633 0.12514 0.0
C515 C 0.8352 0.71476 0.13092 0.0
C516 C 0.81181 0.65973 0.15502 0.0
C517 C 0.82251 0.71487 0.14895 0.0
C518 C 0.78437 0.6316 0.18544 0.0
C519 C 0.80083 0.58264 0.17834 0.0
N520 N 0.81126 0.68773 0.16034 0.0
N521 N 0.80735 0.60677 0.16528 0.0
H522 H 0.15019 0.30239 0.37627 0.0
H523 H 0.17509 0.36021 0.26777 0.0
H524 H 0.0807 0.24587 0.33173 0.0
H525 H 0.23995 0.42085 0.31301 0.0
H526 H 0.14089 0.31747 0.29092 0.0
H527 H 0.18461 0.34507 0.35312 0.0
C528 C 0.14229 0.29887 0.36158 0.0
C529 C 0.11256 0.27059 0.35587 0.0
C530 C 0.16252 0.34015 0.29581 0.0
C531 C 0.15168 0.31941 0.32936 0.0
C532 C 0.18203 0.36459 0.28262 0.0
C533 C 0.21037 0.39407 0.28852 0.0
C534 C 0.17151 0.34517 0.31505 0.0
C535 C 0.21823 0.39847 0.30789 0.0
C536 C 0.16188 0.32331 0.34839 0.0
C537 C 0.10346 0.26731 0.3367 0.0
N538 N 0.19893 0.37418 0.32049 0.0
N539 N 0.12295 0.29149 0.32411 0.0
H540 H 0.76006 0.84446 0.33994 0.0
H541 H 0.57732 0.81812 0.32338 0.0
H542 H 0.6985 0.84939 0.38438 0.0
H543 H 0.6402 0.81876 0.27797 0.0
H544 H 0.62126 0.82823 0.34605 0.0
H545 H 0.71652 0.83465 0.31686 0.0
C546 C 0.73749 0.8437 0.3448 0.0
C547 C 0.73279 0.84769 0.36406 0.0
C548 C 0.62545 0.82609 0.33113 0.0
C549 C 0.68296 0.83624 0.33791 0.0
C550 C 0.60032 0.82019 0.31821 0.0
C551 C 0.60519 0.81761 0.29881 0.0
C552 C 0.65563 0.82942 0.32458 0.0
C553 C 0.63547 0.82059 0.29283 0.0
C554 C 0.71264 0.83801 0.33166 0.0
C555 C 0.70311 0.84641 0.36965 0.0
N556 N 0.65961 0.82639 0.30569 0.0
N557 N 0.67928 0.84069 0.35664 0.0
H558 H 0.14298 0.83633 0.38622 0.0
H559 H 0.17748 0.80497 0.27932 0.0
H560 H 0.14399 0.89575 0.33871 0.0
H561 H 0.16259 0.73712 0.32526 0.0
H562 H 0.16862 0.84037 0.30134 0.0
H563 H 0.15221 0.80077 0.36442 0.0
C564 C 0.14491 0.84173 0.37116 0.0
C565 C 0.14274 0.86899 0.36421 0.0
C566 C 0.16737 0.81779 0.30664 0.0
C567 C 0.15364 0.82869 0.33927 0.0
C568 C 0.1726 0.79766 0.2941 0.0
C569 C 0.17071 0.76807 0.30051 0.0
C570 C 0.16025 0.80831 0.32574 0.0
C571 C 0.16427 0.75977 0.31977 0.0
C572 C 0.15025 0.82148 0.35875 0.0
C573 C 0.14544 0.87492 0.34462 0.0
N574 N 0.15919 0.77979 0.33173 0.0
N575 N 0.15092 0.85499 0.33282 0.0
H576 H 0.569 0.76243 0.83212 0.0
H577 H 0.74703 0.92257 0.85222 0.0
H578 H 0.63132 0.82935 0.78801 0.0
H579 H 0.67855 0.86117 0.89603 0.0
H580 H 0.70439 0.89032 0.82836 0.0
H581 H 0.60822 0.79995 0.85582 0.0
C582 C 0.59084 0.78516 0.82745 0.0
C583 C 0.59709 0.79275 0.80812 0.0
C584 C 0.69868 0.8841 0.84321 0.0
C585 C 0.64219 0.83567 0.83508 0.0
C586 C 0.72298 0.90246 0.8568 0.0
C587 C 0.71634 0.8943 0.87606 0.0
C588 C 0.6677 0.85742 0.84901 0.0
C589 C 0.68479 0.86813 0.88129 0.0
C590 C 0.61323 0.8066 0.84096 0.0
C591 C 0.62567 0.82257 0.8028 0.0
N592 N 0.66173 0.8505 0.86783 0.0
N593 N 0.64737 0.84286 0.81622 0.0
H594 H 0.07739 0.85061 0.8353 0.0
H595 H 0.22858 0.81641 0.8181 0.0
H596 H 0.14154 0.85044 0.87971 0.0
H597 H 0.172 0.82687 0.77262 0.0
H598 H 0.19611 0.82813 0.84095 0.0
H599 H 0.11156 0.84205 0.81191 0.0
C600 C 0.0988 0.84905 0.84009 0.0
C601 C 0.10662 0.85112 0.85943 0.0
C602 C 0.19079 0.82789 0.82596 0.0
C603 C 0.14547 0.84105 0.83293 0.0
C604 C 0.20924 0.82108 0.81295 0.0
C605 C 0.20288 0.82062 0.79349 0.0
C606 C 0.16574 0.83416 0.81946 0.0
C607 C 0.17765 0.82695 0.78753 0.0
C608 C 0.11823 0.84409 0.82678 0.0
C609 C 0.13456 0.84889 0.86493 0.0
N610 N 0.15993 0.83342 0.80048 0.0
N611 N 0.15287 0.8438 0.85176 0.0
H612 H 0.14605 0.30159 0.88298 0.0
H613 H 0.1874 0.36948 0.77646 0.0
H614 H 0.15714 0.24702 0.83659 0.0
H615 H 0.17502 0.42402 0.8224 0.0
H616 H 0.17664 0.32455 0.79843 0.0
H617 H 0.1557 0.34634 0.86101 0.0
C618 C 0.15024 0.29892 0.86812 0.0
C619 C 0.15085 0.27062 0.86156 0.0
C620 C 0.17635 0.34635 0.80375 0.0
C621 C 0.16222 0.32181 0.83642 0.0
C622 C 0.18261 0.37208 0.79123 0.0
C623 C 0.18209 0.40049 0.79765 0.0
C624 C 0.16948 0.349 0.82285 0.0
C625 C 0.17571 0.40254 0.81689 0.0
C626 C 0.15587 0.32453 0.85561 0.0
C627 C 0.15644 0.26843 0.84222 0.0
N628 N 0.16956 0.37704 0.82884 0.0
N629 N 0.16205 0.2938 0.83032 0.0
H630 H 0.73226 0.56525 0.66968 0.0
H631 H 0.88967 0.7479 0.65401 0.0
H632 H 0.79949 0.62567 0.71417 0.0
H633 H 0.82948 0.68507 0.608 0.0
H634 H 0.85463 0.70404 0.67644 0.0
H635 H 0.76613 0.60922 0.64675 0.0
C636 C 0.75423 0.58764 0.67458 0.0
C637 C 0.76312 0.59188 0.69381 0.0
C638 C 0.849 0.69985 0.66144 0.0
C639 C 0.8016 0.64217 0.66786 0.0
C640 C 0.86892 0.72495 0.64865 0.0
C641 C 0.86246 0.72003 0.62916 0.0
C642 C 0.82244 0.66964 0.65466 0.0
C643 C 0.8353 0.68981 0.62295 0.0
C644 C 0.77346 0.61273 0.66153 0.0
C645 C 0.79172 0.62137 0.69947 0.0
N646 N 0.81629 0.66567 0.63568 0.0
N647 N 0.80986 0.6454 0.68656 0.0
H648 H 0.34487 0.14684 0.72709 0.0
H649 H 0.30159 0.13518 0.61664 0.0
H650 H 0.41444 0.15828 0.68294 0.0
H651 H 0.23712 0.13383 0.6613 0.0
H652 H 0.34118 0.1382 0.64061 0.0
H653 H 0.30312 0.13657 0.70304 0.0
C654 C 0.35133 0.14709 0.7123 0.0
C655 C 0.38322 0.15366 0.70696 0.0
C656 C 0.3183 0.13708 0.64515 0.0
C657 C 0.3355 0.14196 0.67932 0.0
C658 C 0.29568 0.13529 0.6315 0.0
C659 C 0.26616 0.13445 0.63704 0.0
C660 C 0.31127 0.13796 0.66444 0.0
C661 C 0.25967 0.1346 0.65644 0.0
C662 C 0.32745 0.14122 0.69857 0.0
C663 C 0.39016 0.15346 0.68762 0.0
N664 N 0.28213 0.13646 0.66945 0.0
N665 N 0.36647 0.14785 0.67444 0.0
H666 H 0.81307 0.1804 0.71685 0.0
H667 H 0.85369 0.1542 0.61015 0.0
H668 H 0.82564 0.24737 0.67085 0.0
H669 H 0.83929 0.08609 0.65584 0.0
H670 H 0.84416 0.18901 0.6323 0.0
H671 H 0.82216 0.14526 0.69469 0.0
C672 C 0.81752 0.18757 0.70204 0.0
C673 C 0.81865 0.21682 0.69564 0.0
C674 C 0.84317 0.16651 0.63752 0.0
C675 C 0.82937 0.17693 0.67027 0.0
C676 C 0.84873 0.14669 0.6249 0.0
C677 C 0.84726 0.11724 0.63121 0.0
C678 C 0.83605 0.15679 0.65659 0.0
C679 C 0.84069 0.10865 0.65042 0.0
C680 C 0.82281 0.16756 0.68941 0.0
C681 C 0.82453 0.22498 0.67634 0.0
N682 N 0.83523 0.12833 0.66245 0.0
N683 N 0.8298 0.20517 0.66432 0.0
H684 H 0.02439 0.51382 0.55778 0.0
H685 H 0.96991 0.49039 0.44877 0.0
H686 H 0.08781 0.57651 0.51263 0.0
H687 H 0.9079 0.42499 0.4935 0.0
H688 H 0.01286 0.52301 0.47212 0.0
H689 H 0.98131 0.48106 0.53449 0.0
C690 C 0.02932 0.52054 0.54293 0.0
C691 C 0.05966 0.5479 0.53708 0.0
C692 C 0.98985 0.50159 0.47686 0.0
C693 C 0.01041 0.51074 0.51041 0.0
C694 C 0.96526 0.48303 0.46355 0.0
C695 C 0.93536 0.45496 0.46925 0.0
C696 C 0.98449 0.492 0.496 0.0
C697 C 0.93063 0.4465 0.48854 0.0
C698 C 0.00468 0.50189 0.52966 0.0
C699 C 0.06475 0.55556 0.5177 0.0
N700 N 0.95503 0.46494 0.50125 0.0
N701 N 0.04028 0.53711 0.50504 0.0
H702 H 0.40483 0.4985 0.50298 0.0
H703 H 0.56766 0.48217 0.48839 0.0
H704 H 0.47173 0.50761 0.54824 0.0
H705 H 0.50451 0.47903 0.44243 0.0
H706 H 0.53145 0.48945 0.51075 0.0
H707 H 0.44034 0.49017 0.48052 0.0
C708 C 0.42707 0.49892 0.50815 0.0
C709 C 0.43541 0.50375 0.52745 0.0
C710 C 0.52546 0.48708 0.49577 0.0
C711 C 0.47587 0.49401 0.50199 0.0
C712 C 0.54605 0.4828 0.48304 0.0
C713 C 0.53905 0.48005 0.46357 0.0
C714 C 0.49772 0.48859 0.48895 0.0
C715 C 0.51081 0.4811 0.45735 0.0
C716 C 0.44727 0.49408 0.49537 0.0
C717 C 0.46441 0.50398 0.53346 0.0
N718 N 0.49119 0.48536 0.47 0.0
N719 N 0.48356 0.4991 0.52077 0.0
H720 H 0.50014 0.08689 0.48449 0.0
H721 H 0.48412 0.90804 0.50018 0.0
H722 H 0.51253 0.03017 0.43984 0.0
H723 H 0.47806 0.9676 0.54545 0.0
H724 H 0.49201 0.95146 0.47753 0.0
H725 H 0.49045 0.0427 0.50699 0.0
C726 C 0.50102 0.06523 0.47947 0.0
C727 C 0.50719 0.06215 0.46033 0.0
C728 C 0.48884 0.95496 0.49242 0.0
C729 C 0.49587 0.01148 0.48585 0.0
C730 C 0.4842 0.93014 0.50531 0.0
C731 C 0.48054 0.93435 0.52468 0.0
C732 C 0.48979 0.9841 0.49898 0.0
C733 C 0.48088 0.96344 0.53062 0.0
C734 C 0.49539 0.03997 0.49228 0.0
C735 C 0.50792 0.03354 0.45451 0.0
N736 N 0.48554 0.98727 0.51782 0.0
N737 N 0.50225 0.00926 0.46722 0.0
H738 H 0.47131 0.962 0.04641 0.0
H739 H 0.5072 0.01611 0.9375 0.0
H740 H 0.40702 0.90261 0.00065 0.0
H741 H 0.56179 0.0813 0.98405 0.0
H742 H 0.4721 0.97286 0.96023 0.0
H743 H 0.50704 0.00438 0.0235 0.0
C744 C 0.46481 0.95781 0.03151 0.0
C745 C 0.43616 0.92882 0.02538 0.0
C746 C 0.49169 -0.00336 0.96548 0.0
C747 C 0.47684 0.97726 -0.00088 0.0
C748 C 0.51172 0.02134 0.95253 0.0
C749 C 0.53737 0.0523 0.95895 0.0
C750 C 0.4975 0.00293 0.98498 0.0
C751 C 0.54221 0.05777 0.97853 0.0
C752 C 0.48515 0.98207 0.01845 0.0
C753 C 0.42889 0.92466 0.00594 0.0
N754 N 0.52247 0.03325 0.99088 0.0
N755 N 0.44913 0.94869 0.99346 0.0
H756 H 0.96946 0.47685 0.94244 0.0
H757 H 0.03108 0.50881 0.05024 0.0
H758 H 0.91533 0.49034 0.9882 0.0
H759 H 0.08905 0.50198 0.00431 0.0
H760 H 0.988 0.50107 0.02766 0.0
H761 H 0.01267 0.48401 0.96494 0.0
C762 C 0.96657 0.48108 0.95726 0.0
C763 C 0.93883 0.48304 0.96351 0.0
C764 C 0.01016 0.50136 0.02247 0.0
C765 C 0.98821 0.49149 0.98924 0.0
C766 C 0.03481 0.50584 0.03535 0.0
C767 C 0.06364 0.50601 0.0291 0.0
C768 C 0.01429 0.49689 0.00318 0.0
C769 C 0.06719 0.50207 0.00968 0.0
C770 C 0.9913 0.4853 0.97007 0.0
C771 C 0.93633 0.48865 0.98281 0.0
N772 N 0.04269 0.49755 0.99738 0.0
N773 N 0.96078 0.49275 0.995 0.0
H774 H 0.51805 0.4816 0.94034 0.0
H775 H 0.48626 0.51 0.04838 0.0
H776 H 0.51231 0.41691 0.98613 0.0
H777 H 0.48613 0.57071 0.00189 0.0
H778 H 0.49624 0.47584 0.02592 0.0
H779 H 0.50783 0.51534 0.9629 0.0
C780 C 0.51483 0.47461 0.95519 0.0
C781 C 0.51601 0.44642 0.96141 0.0
C782 C 0.49391 0.49654 0.02061 0.0
C783 C 0.50406 0.48482 0.98729 0.0
C784 C 0.48814 0.51601 0.03341 0.0
C785 C 0.4854 0.54322 0.02695 0.0
C786 C 0.49708 0.50442 0.00122 0.0
C787 C 0.48805 0.54992 0.00744 0.0
C788 C 0.50886 0.49383 0.96805 0.0
C789 C 0.51163 0.43849 0.98077 0.0
N790 N 0.49387 0.53069 0.99525 0.0
N791 N 0.50577 0.4576 0.99306 0.0
H792 H 0.27108 0.03514 0.05709 0.0
H793 H 0.35775 0.94152 0.10641 0.0
H794 H 0.27555 0.02368 0.11761 0.0
H795 H 0.3327 0.93404 0.04694 0.0
H796 H 0.33876 0.98217 0.11026 0.0
H797 H 0.30529 0.00872 0.05258 0.0
C798 C 0.27968 0.02751 0.06938 0.0
C799 C 0.27006 0.03092 0.08768 0.0
C800 C 0.33774 0.97178 0.09635 0.0
C801 C 0.3089 0.00098 0.08275 0.0
C802 C 0.34854 0.94865 0.09419 0.0
C803 C 0.34614 0.93402 0.07645 0.0
C804 C 0.3248 0.98034 0.08061 0.0
C805 C 0.33433 0.94427 0.06097 0.0
C806 C 0.29905 0.01239 0.06684 0.0
C807 C 0.28192 0.02085 0.10321 0.0
N808 N 0.32391 0.96662 0.06343 0.0
N809 N 0.30049 0.00608 0.10039 0.0
H810 H 0.07778 0.39909 0.04535 0.0
H811 H 0.94438 0.24408 0.10449 0.0
H812 H 0.04125 0.40805 0.10012 0.0
H813 H 0.97444 0.23612 0.04776 0.0
H814 H 0.97323 0.30458 0.10124 0.0
H815 H 0.03563 0.34033 0.04453 0.0
C816 C 0.0609 0.38864 0.05728 0.0
C817 C 0.06333 0.40836 0.073 0.0
C818 C 0.97307 0.28973 0.08933 0.0
C819 C 0.0147 0.34092 0.07203 0.0
C820 C 0.9565 0.25522 0.09115 0.0
C821 C 0.95748 0.2354 0.07641 0.0
C822 C 0.99131 0.30451 0.07278 0.0
C823 C 0.9732 0.25072 0.0594 0.0
C824 C 0.03662 0.35508 0.0567 0.0
C825 C 0.04047 0.3936 0.08786 0.0
N826 N 0.99017 0.2846 0.05817 0.0
N827 N 0.01723 0.3606 0.08708 0.0
H828 H 0.57986 0.62433 0.10086 0.0
H829 H 0.75557 0.73097 0.04781 0.0
H830 H 0.59149 0.66691 0.04492 0.0
H831 H 0.7449 0.70444 0.10709 0.0
H832 H 0.69461 0.69714 0.04429 0.0
H833 H 0.63999 0.6446 0.10153 0.0
C834 C 0.59505 0.63793 0.08877 0.0
C835 C 0.58085 0.64442 0.07297 0.0
C836 C 0.70574 0.69835 0.05799 0.0
C837 C 0.64918 0.66714 0.07345 0.0
C838 C 0.74043 0.71736 0.05991 0.0
C839 C 0.75488 0.72071 0.07778 0.0
C840 C 0.68587 0.68266 0.07405 0.0
C841 C 0.73441 0.70281 0.09312 0.0
C842 C 0.62926 0.64933 0.08909 0.0
C843 C 0.60151 0.66176 0.05753 0.0
N844 N 0.7009 0.6848 0.09096 0.0
N845 N 0.63463 0.67263 0.05819 0.0
H846 H 0.94835 0.37621 0.38936 0.0
H847 H 0.02687 0.27591 0.43981 0.0
H848 H 0.93354 0.34648 0.44824 0.0
H849 H 0.02331 0.2871 0.37922 0.0
H850 H 0.00417 0.31346 0.44421 0.0
H851 H 0.987 0.35461 0.38639 0.0
C852 C 0.95344 0.36539 0.40165 0.0
C853 C 0.9373 0.36247 0.41893 0.0
C854 C 0.00883 0.308 0.42997 0.0
C855 C 0.98138 0.33815 0.41578 0.0
C856 C 0.02188 0.28676 0.4275 0.0
C857 C 0.02624 0.27802 0.40917 0.0
C858 C 0.00047 0.32055 0.41395 0.0
C859 C 0.01958 0.29275 0.39362 0.0
C860 C 0.97546 0.35313 0.39999 0.0
C861 C 0.94497 0.3486 0.43453 0.0
N862 N 0.00672 0.31304 0.39635 0.0
N863 N 0.96627 0.33675 0.43255 0.0
H864 H 0.63531 0.57961 0.3854 0.0
H865 H 0.71925 0.75288 0.44238 0.0
H866 H 0.64259 0.5873 0.44643 0.0
H867 H 0.73361 0.74403 0.38261 0.0
H868 H 0.68041 0.69235 0.44356 0.0
H869 H 0.66066 0.64059 0.38356 0.0
C870 C 0.64185 0.5941 0.39836 0.0
C871 C 0.63751 0.57867 0.41604 0.0
C872 C 0.69193 0.70383 0.43018 0.0
C873 C 0.66614 0.6478 0.41414 0.0
C874 C 0.71401 0.73825 0.42953 0.0
C875 C 0.73004 0.75321 0.41249 0.0
C876 C 0.68578 0.68461 0.41361 0.0
C877 C 0.72224 0.73331 0.39615 0.0
C878 C 0.65635 0.62878 0.39735 0.0
C879 C 0.64617 0.59839 0.43248 0.0
N880 N 0.70082 0.70002 0.39713 0.0
N881 N 0.66028 0.63196 0.43113 0.0
H882 H 0.41519 0.06556 0.37723 0.0
H883 H 0.2442 0.95689 0.43416 0.0
H884 H 0.40918 0.04158 0.43676 0.0
H885 H 0.25053 0.9946 0.37734 0.0
H886 H 0.30457 0.97851 0.4335 0.0
H887 H 0.35436 0.02897 0.37485 0.0
C888 C 0.40112 0.05193 0.38963 0.0
C889 C 0.41677 0.05681 0.40725 0.0
C890 C 0.29262 0.98184 0.42115 0.0
C891 C 0.34793 0.01565 0.40481 0.0
C892 C 0.25828 0.96967 0.42158 0.0
C893 C 0.24254 0.97449 0.40594 0.0
C894 C 0.31113 -0.0012 0.40493 0.0
C895 C 0.26178 0.99079 0.38986 0.0
C896 C 0.36651 0.03133 0.38835 0.0
C897 C 0.39771 0.0388 0.42298 0.0
N898 N 0.29508 0.00253 0.38981 0.0
N899 N 0.36422 0.01928 0.42145 0.0
H900 H 0.68717 0.93768 0.93108 0.0
H901 H 0.69775 0.11542 0.92727 0.0
H902 H 0.77426 0.03135 0.9452 0.0
H903 H 0.61095 0.02519 0.90833 0.0
H904 H 0.72455 0.08349 0.93543 0.0
H905 H 0.65585 0.96711 0.92617 0.0
C906 C 0.6992 0.9642 0.93397 0.0
C907 C 0.73315 0.98224 0.93871 0.0
C908 C 0.69976 0.07049 0.92935 0.0
C909 C 0.69824 0.016 0.93242 0.0
C910 C 0.6846 0.08881 0.9245 0.0
C911 C 0.65227 0.07287 0.917 0.0
C912 C 0.68242 0.03575 0.92685 0.0
C913 C 0.63616 0.03837 0.91382 0.0
C914 C 0.68158 0.98105 0.93078 0.0
C915 C 0.74801 0.01662 0.9417 0.0
N916 N 0.65137 0.02078 0.9189 0.0
N917 N 0.73057 0.03242 0.93832 0.0
H918 H 0.96174 0.58878 0.9414 0.0
H919 H -0.00429 0.74299 0.87757 0.0
H920 H 0.93518 0.58019 0.8822 0.0
H921 H 0.03343 0.75295 0.93464 0.0
H922 H 0.97913 0.68421 0.87791 0.0
H923 H -0.00503 0.64915 0.93792 0.0
C924 C 0.96352 0.59972 0.92754 0.0
C925 C 0.94544 0.57978 0.91209 0.0
C926 C 0.99125 0.6992 0.89032 0.0
C927 C 0.98271 0.64878 0.9081 0.0
C928 C 0.0005 0.73275 0.89022 0.0
C929 C 0.01543 0.75271 0.90627 0.0
C930 C -0.00342 0.68526 0.90667 0.0
C931 C 0.0216 0.73829 0.92208 0.0
C932 C 0.98244 0.63416 0.92557 0.0
C933 C 0.94874 0.59488 0.89443 0.0
N934 N 0.01176 0.70524 0.92197 0.0
N935 N 0.96653 0.62871 0.89298 0.0
H936 H 0.42329 0.3625 0.88271 0.0
H937 H 0.24892 0.277 0.93845 0.0
H938 H 0.41293 0.34412 0.94306 0.0
H939 H 0.2581 0.2739 0.87765 0.0
H940 H 0.3097 0.31342 0.94055 0.0
H941 H 0.36295 0.34134 0.88077 0.0
C942 C 0.40838 0.35432 0.89552 0.0
C943 C 0.42281 0.35434 0.91297 0.0
C944 C 0.29826 0.305 0.92675 0.0
C945 C 0.35444 0.33062 0.91098 0.0
C946 C 0.26368 0.28435 0.92558 0.0
C947 C 0.24875 0.27201 0.90793 0.0
C948 C 0.31768 0.31337 0.91012 0.0
C949 C 0.26882 0.28238 0.8916 0.0
C950 C 0.37406 0.34228 0.89445 0.0
C951 C 0.40258 0.34381 0.92923 0.0
N952 N 0.3023 0.30224 0.8931 0.0
N953 N 0.3694 0.33217 0.92783 0.0
H954 H 0.96395 0.71992 0.55315 0.0
H955 H 0.04853 0.63445 0.61334 0.0
H956 H 0.96764 0.7197 0.61433 0.0
H957 H 0.06585 0.65797 0.55366 0.0
H958 H 0.0092 0.65555 0.61341 0.0
H959 H 0.99147 0.68623 0.55249 0.0
C960 C 0.97015 0.71241 0.56639 0.0
C961 C 0.96415 0.723 0.58378 0.0
C962 C 0.02154 0.65585 0.60031 0.0
C963 C -0.0047 0.68475 0.58321 0.0
C964 C 0.04394 0.64388 0.60029 0.0
C965 C 0.06082 0.64505 0.58358 0.0
C966 C 0.01591 0.66862 0.58344 0.0
C967 C 0.0538 0.65719 0.56697 0.0
C968 C 0.98591 0.69335 0.56604 0.0
C969 C 0.97246 0.71253 0.60059 0.0
N970 N 0.03199 0.6686 0.56733 0.0
N971 N 0.98782 0.69418 0.5999 0.0
H972 H 0.27274 0.23556 0.55555 0.0
H973 H 0.35991 0.41372 0.6073 0.0
H974 H 0.28034 0.24851 0.61632 0.0
H975 H 0.33087 0.39789 0.54834 0.0
H976 H 0.34198 0.3541 0.61009 0.0
H977 H 0.30617 0.29641 0.55183 0.0
C978 C 0.28197 0.25118 0.56805 0.0
C979 C 0.27338 0.23724 0.58623 0.0
C980 C 0.33983 0.36387 0.59652 0.0
C981 C 0.31121 0.30633 0.58219 0.0
C982 C 0.34999 0.39777 0.59497 0.0
C983 C 0.34623 0.41049 0.5777 0.0
C984 C 0.32622 0.3429 0.58063 0.0
C985 C 0.33358 0.38893 0.56204 0.0
C986 C 0.30085 0.28582 0.56597 0.0
C987 C 0.28595 0.25844 0.60203 0.0
N988 N 0.32387 0.35619 0.5639 0.0
N989 N 0.30398 0.29196 0.59966 0.0
H990 H 0.74316 0.02169 0.61266 0.0
H991 H 0.58917 0.937 0.54295 0.0
H992 H 0.75327 0.02782 0.55172 0.0
H993 H 0.57898 0.94457 0.60333 0.0
H994 H 0.6489 0.97489 0.54563 0.0
H995 H 0.68334 -0.00116 0.60937 0.0
C996 C 0.73271 0.01844 0.59854 0.0
C997 C 0.75296 0.02601 0.58239 0.0
C998 C 0.63368 0.96861 0.55829 0.0
C999 C 0.68442 -0.0004 0.57854 0.0
C1000 C 0.59957 0.9468 0.55681 0.0
C1001 C 0.57927 0.9372 0.57304 0.0
C1002 C 0.64777 0.98063 0.57618 0.0
C1003 C 0.59388 0.95112 0.59054 0.0
C1004 C 0.69856 0.00552 0.59669 0.0
C1005 C 0.73837 0.022 0.56449 0.0
N1006 N 0.62744 0.97184 0.5917 0.0
N1007 N 0.70476 0.00848 0.56302 0.0
H1008 H 0.65622 0.58983 0.71533 0.0
H1009 H 0.62894 0.70981 0.78304 0.0
H1010 H 0.69625 0.61383 0.77212 0.0
H1011 H 0.60207 0.69649 0.7238 0.0
H1012 H 0.6607 0.68142 0.77819 0.0
H1013 H 0.64196 0.63359 0.71719 0.0
C1014 C 0.66197 0.60433 0.72826 0.0
C1015 C 0.67687 0.5978 0.74377 0.0
C1016 C 0.64847 0.68523 0.76614 0.0
C1017 C 0.66069 0.64824 0.74593 0.0
C1018 C 0.6304 0.70149 0.76888 0.0
C1019 C 0.61256 0.70494 0.75382 0.0
C1020 C 0.64813 0.6718 0.74827 0.0
C1021 C 0.61543 0.69414 0.73576 0.0
C1022 C 0.65407 0.62956 0.72923 0.0
C1023 C 0.68437 0.61781 0.75996 0.0
N1024 N 0.63235 0.67736 0.73355 0.0
N1025 N 0.67579 0.64194 0.76072 0.0
H1026 H 0.44034 0.07148 0.77386 0.0
H1027 H 0.26901 0.91325 0.74002 0.0
H1028 H 0.35321 0.07854 0.76074 0.0
H1029 H 0.35987 0.91262 0.75242 0.0
H1030 H 0.29767 0.97329 0.74763 0.0
H1031 H 0.40829 0.0115 0.76874 0.0
C1032 C 0.41401 0.06003 0.77056 0.0
C1033 C 0.39919 0.07966 0.76794 0.0
C1034 C 0.31135 0.96 0.74844 0.0
C1035 C 0.36265 0.0113 0.76094 0.0
C1036 C 0.29521 0.92601 0.74376 0.0
C1037 C 0.3123 0.90825 0.7455 0.0
C1038 C 0.34458 0.9759 0.75486 0.0
C1039 C 0.3459 0.92553 0.75088 0.0
C1040 C 0.3958 0.02588 0.76728 0.0
C1041 C 0.36522 0.06394 0.76324 0.0
N1042 N 0.36083 0.95825 0.75546 0.0
N1043 N 0.3481 0.03057 0.75956 0.0
H1044 H 0.91455 0.30755 0.77473 0.0
H1045 H 0.08999 0.39171 0.72016 0.0
H1046 H 0.92536 0.31751 0.71388 0.0
H1047 H 0.07893 0.40174 0.78021 0.0
H1048 H 0.02957 0.35313 0.71806 0.0
H1049 H 0.97513 0.33075 0.77744 0.0
C1050 C 0.92962 0.31421 0.76198 0.0
C1051 C 0.91525 0.31135 0.74412 0.0
C1052 C 0.04053 0.36359 0.73171 0.0
C1053 C 0.98391 0.33754 0.747 0.0
C1054 C 0.0749 0.38553 0.73288 0.0
C1055 C 0.08919 0.40037 0.75027 0.0
C1056 C 0.02067 0.35643 0.74809 0.0
C1057 C 0.06872 0.39136 0.76642 0.0
C1058 C 0.96408 0.32747 0.76349 0.0
C1059 C 0.93568 0.32004 0.72797 0.0
N1060 N 0.03547 0.37017 0.76492 0.0
N1061 N 0.96901 0.333 0.7298 0.0
H1062 H 0.38433 0.30126 0.27372 0.0
H1063 H 0.31613 0.3989 0.21071 0.0
H1064 H 0.41798 0.33635 0.21677 0.0
H1065 H 0.30412 0.38629 0.27138 0.0
H1066 H 0.34367 0.3651 0.2108 0.0
H1067 H 0.34532 0.32239 0.27133 0.0
C1068 C 0.38346 0.31335 0.26075 0.0
C1069 C 0.40473 0.3176 0.24557 0.0
C1070 C 0.33459 0.36947 0.22403 0.0
C1071 C 0.36013 0.34131 0.2426 0.0
C1072 C 0.31879 0.38852 0.22393 0.0
C1073 C 0.30849 0.39571 0.24108 0.0
C1074 C 0.33958 0.35744 0.24137 0.0
C1075 C 0.31235 0.38175 0.25789 0.0
C1076 C 0.36119 0.32529 0.25934 0.0
C1077 C 0.40236 0.33306 0.22895 0.0
N1078 N 0.32778 0.36348 0.25764 0.0
N1079 N 0.38056 0.34449 0.22792 0.0
H1080 H 0.60293 0.91153 0.21868 0.0
H1081 H 0.69661 0.0863 0.27404 0.0
H1082 H 0.60451 0.92128 0.27962 0.0
H1083 H 0.67059 0.07671 0.21465 0.0
H1084 H 0.67357 0.02563 0.27555 0.0
H1085 H 0.63863 0.97248 0.21618 0.0
C1086 C 0.61109 0.92646 0.23148 0.0
C1087 C 0.60039 0.91162 0.24933 0.0
C1088 C 0.6732 0.03696 0.26217 0.0
C1089 C 0.6411 0.98066 0.24668 0.0
C1090 C 0.68634 0.07147 0.26133 0.0
C1091 C 0.68492 0.0863 0.24431 0.0
C1092 C 0.65894 0.01746 0.24583 0.0
C1093 C 0.67161 0.06611 0.22817 0.0
C1094 C 0.63133 0.96111 0.23008 0.0
C1095 C 0.61173 0.9319 0.26554 0.0
N1096 N 0.65896 0.03269 0.22934 0.0
N1097 N 0.63133 0.96539 0.26383 0.0
H1098 H 0.90976 0.62508 0.21926 0.0
H1099 H 0.06541 0.67159 0.285 0.0
H1100 H 0.90361 0.61116 0.27996 0.0
H1101 H 0.07375 0.69172 0.22486 0.0
H1102 H 0.00744 0.6576 0.28399 0.0
H1103 H 0.97032 0.65814 0.22164 0.0
C1104 C 0.9212 0.62951 0.23316 0.0
C1105 C 0.90182 0.61489 0.24943 0.0
C1106 C 0.02186 0.66531 0.271 0.0
C1107 C 0.97107 0.6523 0.25221 0.0
C1108 C 0.05496 0.6731 0.27153 0.0
C1109 C 0.07411 0.68208 0.25487 0.0
C1110 C 0.00752 0.666 0.25363 0.0
C1111 C 0.05961 0.68446 0.23795 0.0
C1112 C 0.95578 0.64838 0.23449 0.0
C1113 C 0.91774 0.62177 0.26708 0.0
N1114 N 0.02689 0.67591 0.23769 0.0
N1115 N 0.95158 0.63953 0.26796 0.0
H1116 H 0.03722 0.16093 0.11815 0.0
H1117 H 0.14941 0.10709 0.05924 0.0
H1118 H 0.02176 0.13589 0.05864 0.0
H1119 H 0.1651 0.13692 0.11801 0.0
H1120 H 0.10872 0.12631 0.05684 0.0
H1121 H 0.08952 0.16033 0.11677 0.0
C1122 C 0.04498 0.15549 0.10476 0.0
C1123 C 0.02498 0.14799 0.08857 0.0
C1124 C 0.1216 0.12926 0.07014 0.0
C1125 C 0.08473 0.14699 0.08685 0.0
C1126 C 0.14497 0.11855 0.07145 0.0
C1127 C 0.16011 0.12003 0.08891 0.0
C1128 C 0.11361 0.14146 0.08643 0.0
C1129 C 0.15348 0.13487 0.10436 0.0
C1130 C 0.07491 0.15525 0.10394 0.0
C1131 C 0.03638 0.14152 0.07151 0.0
N1132 N 0.13044 0.1446 0.10282 0.0
N1133 N 0.06533 0.14072 0.07114 0.0
H1134 H 0.88896 0.0381 0.05262 0.0
H1135 H 0.83117 0.87554 0.1159 0.0
H1136 H 0.85862 0.02846 0.11121 0.0
H1137 H 0.85847 0.88109 0.05691 0.0
H1138 H 0.83282 0.92877 0.11267 0.0
H1139 H 0.86896 0.97784 0.05183 0.0
C1140 C 0.87726 0.02311 0.06512 0.0
C1141 C 0.87582 0.03811 0.08208 0.0
C1142 C 0.83818 0.91829 0.10034 0.0
C1143 C 0.85349 0.96987 0.08143 0.0
C1144 C 0.83734 0.88793 0.10223 0.0
C1145 C 0.84516 0.8742 0.08673 0.0
C1146 C 0.84735 0.93531 0.08289 0.0
C1147 C 0.85257 0.89105 0.06927 0.0
C1148 C 0.8661 0.98886 0.06473 0.0
C1149 C 0.86064 0.01782 0.09793 0.0
N1150 N 0.85393 0.921 0.06787 0.0
N1151 N 0.85045 0.98486 0.09729 0.0
H1152 H 0.95968 0.82926 0.11833 0.0
H1153 H 0.1146 0.9756 0.06353 0.0
H1154 H 0.95716 0.84907 0.05874 0.0
H1155 H 0.1099 0.96008 0.1241 0.0
H1156 H 0.06093 0.92402 0.06021 0.0
H1157 H 0.01886 0.87046 0.11909 0.0
C1158 C 0.97184 0.84196 0.10529 0.0
C1159 C 0.95355 0.83613 0.08849 0.0
C1160 C 0.0718 0.93176 0.07419 0.0
C1161 C 0.0212 0.88397 0.08934 0.0
C1162 C 0.10238 0.96119 0.07612 0.0
C1163 C 0.1165 0.97227 0.09416 0.0
C1164 C 0.05533 0.91327 0.09042 0.0
C1165 C 0.09975 0.95261 0.10995 0.0
C1166 C 0.00561 0.8656 0.10576 0.0
C1167 C 0.97048 0.85295 0.07197 0.0
N1168 N 0.06997 0.92418 0.10772 0.0
N1169 N 0.00338 0.87663 0.07287 0.0
H1170 H 0.09891 0.15032 0.43309 0.0
H1171 H 0.136 0.02797 0.37113 0.0
H1172 H 0.10576 0.15223 0.37201 0.0
H1173 H 0.13652 0.02763 0.43236 0.0
H1174 H 0.12987 0.07728 0.37169 0.0
H1175 H 0.11841 0.10965 0.43385 0.0
C1176 C 0.10515 0.14268 0.41992 0.0
C1177 C 0.10033 0.15418 0.40246 0.0
C1178 C 0.13154 0.06662 0.38504 0.0
C1179 C 0.12216 0.10783 0.40315 0.0
C1180 C 0.13494 0.03839 0.3847 0.0
C1181 C 0.13646 0.02359 0.40171 0.0
C1182 C 0.12929 0.08 0.40253 0.0
C1183 C 0.13525 0.03826 0.41891 0.0
C1184 C 0.11607 0.11939 0.42032 0.0
C1185 C 0.10864 0.14354 0.38577 0.0
N1186 N 0.13141 0.06552 0.4189 0.0
N1187 N 0.11883 0.12078 0.38652 0.0
H1188 H 0.93954 0.11745 0.37629 0.0
H1189 H 0.84879 0.95684 0.44262 0.0
H1190 H 0.966 0.11689 0.43494 0.0
H1191 H 0.82821 0.95954 0.38319 0.0
H1192 H 0.88321 0.01814 0.44241 0.0
H1193 H 0.89034 0.06263 0.38078 0.0
C1194 C 0.93477 0.1059 0.39017 0.0
C1195 C 0.95711 0.1214 0.40516 0.0
C1196 C 0.87055 0.0053 0.42953 0.0
C1197 C 0.9011 0.05844 0.41041 0.0
C1198 C 0.85081 0.97044 0.42971 0.0
C1199 C 0.83626 0.95338 0.41283 0.0
C1200 C 0.87538 0.02277 0.41237 0.0
C1201 C 0.83958 0.97189 0.39642 0.0
C1202 C 0.90666 0.0746 0.39277 0.0
C1203 C 0.94953 0.10555 0.42294 0.0
N1204 N 0.85908 0.00552 0.39655 0.0
N1205 N 0.9224 0.07463 0.42501 0.0
H1206 H 0.05347 0.90871 0.44748 0.0
H1207 H 0.8845 0.86075 0.44747 0.0
H1208 H 0.02946 0.8448 0.39861 0.0
H1209 H 0.89166 0.83839 0.38881 0.0
H1210 H 0.93751 0.86283 0.45389 0.0
H1211 H 0.99419 0.8904 0.45125 0.0
C1212 C 0.03548 0.88965 0.43811 0.0
C1213 C 0.04613 0.87842 0.42262 0.0
C1214 C 0.92757 0.85759 0.43962 0.0
C1215 C 0.97862 0.85758 0.4266 0.0
C1216 C 0.89723 0.85621 0.43596 0.0
C1217 C 0.88406 0.84998 0.4175 0.0
C1218 C 0.94465 0.8526 0.42466 0.0
C1219 C 0.90121 0.84382 0.40318 0.0
C1220 C 0.00158 0.87925 0.44018 0.0
C1221 C 0.02209 0.85424 0.41062 0.0
N1222 N 0.93065 0.8454 0.40706 0.0
N1223 N 0.98955 0.84514 0.41263 0.0
H1224 H 0.79633 0.84321 0.90408 0.0
H1225 H 0.93924 0.84227 0.88257 0.0
H1226 H 0.85232 0.90372 0.95172 0.0
H1227 H 0.96304 0.85592 0.94227 0.0
H1228 H 0.88819 0.84335 0.88916 0.0
H1229 H 0.83574 0.82302 0.90114 0.0
C1230 C 0.81659 0.85164 0.9142 0.0
C1231 C 0.82149 0.8755 0.92797 0.0
C1232 C 0.90399 0.84518 0.90094 0.0
C1233 C 0.86775 0.85418 0.92399 0.0
C1234 C 0.93344 0.84505 0.89712 0.0
C1235 C 0.95539 0.84909 0.91188 0.0
C1236 C 0.89646 0.84954 0.9197 0.0
C1237 C 0.94672 0.85271 0.93047 0.0
C1238 C 0.83942 0.8406 0.9123 0.0
C1239 C 0.84783 0.88539 0.94087 0.0
N1240 N 0.91811 0.85333 0.93383 0.0
N1241 N 0.87049 0.87517 0.93832 0.0
H1242 H 0.13355 0.95855 0.88692 0.0
H1243 H 0.14261 0.1149 0.93941 0.0
H1244 H 0.09011 0.95195 0.94194 0.0
H1245 H 0.16799 0.11261 0.88073 0.0
H1246 H 0.13658 0.05964 0.94399 0.0
H1247 H 0.16106 0.01918 0.88853 0.0
C1248 C 0.13054 0.97009 0.89957 0.0
C1249 C 0.10938 0.95053 0.91423 0.0
C1250 C 0.14397 0.07149 0.93021 0.0
C1251 C 0.1397 0.01972 0.91591 0.0
C1252 C 0.14742 0.10298 0.92757 0.0
C1253 C 0.15529 0.11802 0.90957 0.0
C1254 C 0.14866 0.05518 0.91476 0.0
C1255 C 0.16141 0.10166 0.89476 0.0
C1256 C 0.14606 0.00465 0.90045 0.0
C1257 C 0.10631 0.96641 0.93037 0.0
N1258 N 0.15769 0.07101 0.89765 0.0
N1259 N 0.12076 0.00027 0.93062 0.0
H1260 H 0.05017 0.15075 0.94003 0.0
H1261 H 0.88026 0.03218 0.88455 0.0
H1262 H 0.03761 0.15111 0.8794 0.0
H1263 H 0.89268 0.02439 0.94469 0.0
H1264 H 0.93601 0.08112 0.8833 0.0
H1265 H 0.99026 0.11032 0.94307 0.0
C1266 C 0.03467 0.14283 0.92745 0.0
C1267 C 0.04874 0.15384 0.90944 0.0
C1268 C 0.92654 0.06882 0.8968 0.0
C1269 C 0.98082 0.10774 0.91271 0.0
C1270 C 0.89474 0.04082 0.8975 0.0
C1271 C 0.88205 0.02406 0.9147 0.0
C1272 C 0.94584 0.08008 0.91343 0.0
C1273 C 0.90172 0.03648 0.93109 0.0
C1274 C 0.00062 0.11964 0.92915 0.0
C1275 C 0.02775 0.14282 0.89353 0.0
N1276 N 0.93277 0.06366 0.93004 0.0
N1277 N -0.00506 0.1202 0.89553 0.0
H1278 H 0.85808 0.97258 0.5519 0.0
H1279 H 0.83913 0.80884 0.60082 0.0
H1280 H 0.82532 0.94128 0.6094 0.0
H1281 H 0.89392 0.84948 0.54893 0.0
H1282 H 0.81883 0.84825 0.59911 0.0
H1283 H 0.85822 0.9203 0.54647 0.0
C1284 C 0.85054 0.95452 0.5633 0.0
C1285 C 0.84215 0.96139 0.58123 0.0
C1286 C 0.8347 0.84818 0.58785 0.0
C1287 C 0.84187 0.90165 0.57503 0.0
C1288 C 0.84604 0.82551 0.58873 0.0
C1289 C 0.86839 0.8263 0.57508 0.0
C1290 C 0.84637 0.87226 0.5734 0.0
C1291 C 0.87664 0.84821 0.5597 0.0
C1292 C 0.85059 0.92474 0.56017 0.0
C1293 C 0.83242 0.93716 0.59546 0.0
N1294 N 0.86619 0.87098 0.55947 0.0
N1295 N 0.83274 0.90847 0.59208 0.0
H1296 H 0.14265 0.04072 0.5558 0.0
H1297 H 0.02959 0.87795 0.61686 0.0
H1298 H 0.16294 0.02622 0.61366 0.0
H1299 H 0.0156 0.8824 0.55662 0.0
H1300 H 0.08161 0.93098 0.61482 0.0
H1301 H 0.10004 0.98116 0.55413 0.0
C1302 C 0.13882 0.02477 0.56791 0.0
C1303 C 0.15585 0.03823 0.58495 0.0
C1304 C 0.06738 0.92033 0.60197 0.0
C1305 C 0.1072 0.97088 0.58335 0.0
C1306 C 0.03756 0.89011 0.60318 0.0
C1307 C 0.01817 0.87601 0.58693 0.0
C1308 C 0.07771 0.93688 0.58442 0.0
C1309 C 0.02983 0.89261 0.56951 0.0
C1310 C 0.11437 0.99093 0.56704 0.0
C1311 C 0.14991 0.01677 0.60033 0.0
N1312 N 0.05871 0.92244 0.56873 0.0
N1313 N 0.12581 0.98431 0.59925 0.0
H1314 H 0.11609 0.14005 0.56038 0.0
H1315 H 0.95836 0.1201 0.6169 0.0
H1316 H 0.11259 0.15173 0.62094 0.0
H1317 H 0.95649 0.10153 0.55685 0.0
H1318 H 0.01838 0.14266 0.61709 0.0
H1319 H 0.0614 0.13579 0.55748 0.0
C1320 C 0.10398 0.14212 0.57304 0.0
C1321 C 0.11862 0.14578 0.59098 0.0
C1322 C 0.00508 0.13409 0.60378 0.0
C1323 C 0.05625 0.14099 0.58774 0.0
C1324 C 0.97081 0.12126 0.60366 0.0
C1325 C 0.95257 0.10856 0.58688 0.0
C1326 C 0.02125 0.13367 0.58704 0.0
C1327 C 0.96981 0.11102 0.57008 0.0
C1328 C 0.0728 0.1397 0.57135 0.0
C1329 C 0.10201 0.14852 0.60687 0.0
N1330 N 0.00328 0.12277 0.57063 0.0
N1331 N 0.0716 0.14578 0.60489 0.0
H1332 H 0.70543 0.48748 0.45027 0.0
H1333 H 0.84968 0.48386 0.44022 0.0
H1334 H 0.69272 0.47476 0.38962 0.0
H1335 H 0.80358 0.42599 0.38997 0.0
H1336 H 0.81064 0.50471 0.43952 0.0
H1337 H 0.75675 0.48547 0.44773 0.0
C1338 C 0.71376 0.48474 0.43637 0.0
C1339 C 0.69482 0.48122 0.42016 0.0
C1340 C 0.80896 0.4875 0.4286 0.0
C1341 C 0.75421 0.47977 0.41696 0.0
C1342 C 0.83164 0.47613 0.4288 0.0
C1343 C 0.82944 0.45301 0.41524 0.0
C1344 C 0.78323 0.47476 0.41509 0.0
C1345 C 0.80593 0.44384 0.40066 0.0
C1346 C 0.74341 0.48408 0.43485 0.0
C1347 C 0.70668 0.4776 0.40248 0.0
N1348 N 0.78315 0.45427 0.40116 0.0
N1349 N 0.73545 0.47651 0.40138 0.0
H1350 H 0.48614 0.21352 0.44076 0.0
H1351 H 0.56265 0.38203 0.38167 0.0
H1352 H 0.52277 0.22231 0.38353 0.0
H1353 H 0.52052 0.3683 0.43773 0.0
H1354 H 0.53881 0.32126 0.37915 0.0
H1355 H 0.48951 0.2675 0.43733 0.0
C1356 C 0.49465 0.22675 0.4274 0.0
C1357 C 0.50471 0.21377 0.41253 0.0
C1358 C 0.53413 0.33152 0.39181 0.0
C1359 C 0.50906 0.27584 0.40851 0.0
C1360 C 0.5475 0.3661 0.39316 0.0
C1361 C 0.54385 0.37994 0.41003 0.0
C1362 C 0.51717 0.3111 0.40747 0.0
C1363 C 0.52427 0.35847 0.4246 0.0
C1364 C 0.49649 0.25756 0.4254 0.0
C1365 C 0.51509 0.23169 0.39542 0.0
N1366 N 0.51206 0.3252 0.42309 0.0
N1367 N 0.51754 0.26214 0.39397 0.0
H1368 H 0.77501 0.29159 0.45284 0.0
H1369 H 0.61881 0.18607 0.38506 0.0
H1370 H 0.77805 0.30773 0.39239 0.0
H1371 H 0.61994 0.171 0.44539 0.0
H1372 H 0.67944 0.22472 0.38611 0.0
H1373 H 0.72037 0.24182 0.44928 0.0
C1374 C 0.76421 0.28451 0.4388 0.0
C1375 C 0.78081 0.30397 0.42293 0.0
C1376 C 0.66643 0.21246 0.39904 0.0
C1377 C 0.71813 0.24715 0.41869 0.0
C1378 C 0.63197 0.19031 0.3984 0.0
C1379 C 0.61452 0.1759 0.41521 0.0
C1380 C 0.68314 0.21989 0.41661 0.0
C1381 C 0.6325 0.18214 0.43216 0.0
C1382 C 0.73304 0.25603 0.43673 0.0
C1383 C 0.76588 0.29349 0.40501 0.0
N1384 N 0.66572 0.20391 0.43246 0.0
N1385 N 0.73515 0.26596 0.40339 0.0
H1386 H 0.78269 0.49895 0.71392 0.0
H1387 H 0.81172 0.36755 0.77113 0.0
H1388 H 0.75782 0.47696 0.7731 0.0
H1389 H 0.82745 0.386 0.71095 0.0
H1390 H 0.80307 0.41542 0.774 0.0
H1391 H 0.81127 0.46691 0.71474 0.0
C1392 C 0.78376 0.4877 0.7272 0.0
C1393 C 0.76754 0.49004 0.74339 0.0
C1394 C 0.8089 0.40927 0.76023 0.0
C1395 C 0.79944 0.45256 0.74436 0.0
C1396 C 0.81385 0.38199 0.75857 0.0
C1397 C 0.81978 0.37256 0.7407 0.0
C1398 C 0.80999 0.42718 0.7439 0.0
C1399 C 0.82248 0.39216 0.72494 0.0
C1400 C 0.80001 0.46935 0.72766 0.0
C1401 C 0.76998 0.4755 0.76031 0.0
N1402 N 0.81725 0.41834 0.72689 0.0
N1403 N 0.78508 0.45669 0.76028 0.0
H1404 H 0.46718 0.28302 0.73241 0.0
H1405 H 0.62713 0.43913 0.77736 0.0
H1406 H 0.51068 0.27803 0.78553 0.0
H1407 H 0.59506 0.43226 0.71922 0.0
H1408 H 0.57718 0.38527 0.78396 0.0
H1409 H 0.50497 0.34314 0.73156 0.0
C1410 C 0.48416 0.29481 0.74417 0.0
C1411 C 0.48621 0.27562 0.75894 0.0
C1412 C 0.58094 0.39578 0.76983 0.0
C1413 C 0.53017 0.34424 0.7578 0.0
C1414 C 0.6094 0.42645 0.76604 0.0
C1415 C 0.61538 0.4399 0.74764 0.0
C1416 C 0.55824 0.37869 0.75516 0.0
C1417 C 0.5916 0.42257 0.73354 0.0
C1418 C 0.5059 0.32909 0.7436 0.0
C1419 C 0.50843 0.29205 0.77389 0.0
N1420 N 0.56417 0.39279 0.73757 0.0
N1421 N 0.53013 0.32548 0.77276 0.0
H1422 H 0.71807 0.23755 0.77541 0.0
H1423 H 0.54773 0.17592 0.71846 0.0
H1424 H 0.70462 0.2137 0.71575 0.0
H1425 H 0.5586 0.20094 0.778 0.0
H1426 H 0.60362 0.18316 0.71845 0.0
H1427 H 0.65784 0.21675 0.77816 0.0
C1428 C 0.70231 0.22723 0.76304 0.0
C1429 C 0.71618 0.22766 0.7453 0.0
C1430 C 0.59379 0.18694 0.73157 0.0
C1431 C 0.64794 0.2044 0.74819 0.0
C1432 C 0.56191 0.18292 0.73154 0.0
C1433 C 0.54873 0.18821 0.74819 0.0
C1434 C 0.61277 0.19656 0.74835 0.0
C1435 C 0.56802 0.1969 0.76481 0.0
C1436 C 0.66807 0.21562 0.76454 0.0
C1437 C 0.69489 0.21422 0.72964 0.0
N1438 N 0.59924 0.20108 0.76444 0.0
N1439 N 0.66193 0.20346 0.73142 0.0
H1440 H 0.60778 0.17015 0.22041 0.0
H1441 H 0.46939 0.17787 0.24195 0.0
H1442 H 0.6374 0.19268 0.27905 0.0
H1443 H 0.53234 0.24804 0.28442 0.0
H1444 H 0.50581 0.15376 0.24142 0.0
H1445 H 0.55723 0.17202 0.2275 0.0
C1446 C 0.60334 0.175 0.23484 0.0
C1447 C 0.62677 0.18138 0.24914 0.0
C1448 C 0.51142 0.17406 0.2511 0.0
C1449 C 0.56864 0.18292 0.25754 0.0
C1450 C 0.49025 0.18727 0.25171 0.0
C1451 C 0.49808 0.21485 0.26324 0.0
C1452 C 0.54106 0.1893 0.26169 0.0
C1453 C 0.52549 0.22656 0.27546 0.0
C1454 C 0.57422 0.17558 0.23898 0.0
C1455 C 0.61987 0.1876 0.26761 0.0
N1456 N 0.54656 0.21415 0.27408 0.0
N1457 N 0.59166 0.18881 0.27123 0.0
H1458 H 0.73491 0.2796 0.2731 0.0
H1459 H 0.85267 0.46482 0.23627 0.0
H1460 H 0.80858 0.29969 0.22999 0.0
H1461 H 0.74653 0.4219 0.24377 0.0
H1462 H 0.84661 0.40966 0.24262 0.0
H1463 H 0.75058 0.33881 0.27257 0.0
C1464 C 0.75543 0.29684 0.2642 0.0
C1465 C 0.7708 0.2852 0.2517 0.0
C1466 C 0.82479 0.41254 0.24286 0.0
C1467 C 0.78831 0.35206 0.2508 0.0
C1468 C 0.82814 0.44372 0.23911 0.0
C1469 C 0.79994 0.44754 0.23917 0.0
C1470 C 0.79325 0.38558 0.24733 0.0
C1471 C 0.76875 0.41972 0.24321 0.0
C1472 C 0.76397 0.33033 0.26368 0.0
C1473 C 0.79651 0.30809 0.23994 0.0
N1474 N 0.76626 0.3899 0.24731 0.0
N1475 N 0.80444 0.34059 0.23968 0.0
H1476 H 0.73326 0.45459 0.2802 0.0
H1477 H 0.53925 0.38732 0.27554 0.0
H1478 H 0.69915 0.52454 0.26977 0.0
H1479 H 0.58762 0.34607 0.2418 0.0
H1480 H 0.59452 0.43326 0.28516 0.0
H1481 H 0.67536 0.40906 0.27971 0.0
C1482 C 0.71356 0.4606 0.27872 0.0
C1483 C 0.72096 0.49335 0.27484 0.0
C1484 C 0.5928 0.41396 0.27575 0.0
C1485 C 0.65506 0.44148 0.27423 0.0
C1486 C 0.56153 0.38799 0.27021 0.0
C1487 C 0.55916 0.3633 0.25771 0.0
C1488 C 0.62155 0.41424 0.2693 0.0
C1489 C 0.58854 0.36497 0.25124 0.0
C1490 C 0.68063 0.43454 0.27817 0.0
C1491 C 0.69439 0.49957 0.27273 0.0
N1492 N 0.61862 0.3899 0.25727 0.0
N1493 N 0.66245 0.47372 0.27221 0.0
H1494 H 0.49901 0.13009 0.92148 0.0
H1495 H 0.50262 0.27533 0.94034 0.0
H1496 H 0.57361 0.18798 0.8796 0.0
H1497 H 0.53045 0.30352 0.88194 0.0
H1498 H 0.5016 0.22301 0.93441 0.0
H1499 H 0.48034 0.17095 0.92101 0.0
C1500 C 0.5107 0.15093 0.91171 0.0
C1501 C 0.53801 0.15598 0.90068 0.0
C1502 C 0.50705 0.24013 0.9227 0.0
C1503 C 0.51849 0.20392 0.90105 0.0
C1504 C 0.50813 0.27028 0.9262 0.0
C1505 C 0.51672 0.29377 0.91164 0.0
C1506 C 0.51486 0.23347 0.90452 0.0
C1507 C 0.52369 0.28599 0.89356 0.0
C1508 C 0.50054 0.1746 0.91174 0.0
C1509 C 0.55239 0.18329 0.88827 0.0
N1510 N 0.52312 0.25666 0.89057 0.0
N1511 N 0.54294 0.20679 0.88909 0.0
H1512 H 0.81277 0.3803 0.88754 0.0
H1513 H 0.68751 0.22251 0.9499 0.0
H1514 H 0.81732 0.37397 0.94844 0.0
H1515 H 0.68573 0.22158 0.88867 0.0
H1516 H 0.7374 0.27745 0.94908 0.0
H1517 H 0.76931 0.32098 0.88683 0.0
C1518 C 0.80512 0.36625 0.90067 0.0
C1519 C 0.81821 0.38197 0.91809 0.0
C1520 C 0.72625 0.26526 0.93578 0.0
C1521 C 0.76867 0.31485 0.91747 0.0
C1522 C 0.69763 0.23394 0.93627 0.0
C1523 C 0.6824 0.21764 0.91935 0.0
C1524 C 0.73963 0.28059 0.91822 0.0
C1525 C 0.69672 0.23345 0.90206 0.0
C1526 C 0.78023 0.33255 0.9003 0.0
C1527 C 0.80746 0.36285 0.93473 0.0
N1528 N 0.72447 0.26421 0.90192 0.0
N1529 N 0.78315 0.33045 0.93402 0.0
H1530 H 0.78665 0.48409 0.88668 0.0
H1531 H 0.62853 0.46349 0.94251 0.0
H1532 H 0.78491 0.50393 0.94637 0.0
H1533 H 0.6251 0.43585 0.88381 0.0
H1534 H 0.6891 0.49097 0.94175 0.0
H1535 H 0.73131 0.4781 0.88324 0.0
C1536 C 0.77484 0.48773 0.899 0.0
C1537 C 0.79007 0.49395 0.91692 0.0
C1538 C 0.67531 0.47938 0.92891 0.0
C1539 C 0.72694 0.48713 0.91307 0.0
C1540 C 0.64073 0.46376 0.92934 0.0
C1541 C 0.62201 0.44703 0.91328 0.0
C1542 C 0.6913 0.47764 0.91241 0.0
C1543 C 0.63883 0.44841 0.8965 0.0
C1544 C 0.74327 0.48429 0.89702 0.0
C1545 C 0.77384 0.49865 0.93236 0.0
N1546 N 0.67268 0.46288 0.89658 0.0
N1547 N 0.743 0.49478 0.93011 0.0
H1548 H 0.34656 0.7955 0.78586 0.0
H1549 H 0.47672 0.76437 0.72749 0.0
H1550 H 0.34656 0.79127 0.72469 0.0
H1551 H 0.47777 0.77628 0.78824 0.0
H1552 H 0.43202 0.77836 0.72531 0.0
H1553 H 0.39685 0.79118 0.78642 0.0
C1554 C 0.35714 0.79357 0.77254 0.0
C1555 C 0.34231 0.79352 0.75523 0.0
C1556 C 0.44242 0.77832 0.73907 0.0
C1557 C 0.40005 0.78869 0.75568 0.0
C1558 C 0.46802 0.7706 0.74027 0.0
C1559 C 0.48055 0.76885 0.75807 0.0
C1560 C 0.4296 0.78428 0.7558 0.0
C1561 C 0.46842 0.77691 0.77425 0.0
C1562 C 0.38598 0.79128 0.77283 0.0
C1563 C 0.35721 0.79124 0.73836 0.0
N1564 N 0.44348 0.78398 0.77273 0.0
N1565 N 0.38523 0.78874 0.73899 0.0
H1566 H 0.16382 0.69624 0.75928 0.0
H1567 H 0.19915 0.55729 0.71671 0.0
H1568 H 0.22958 0.71493 0.71181 0.0
H1569 H 0.16238 0.55635 0.77309 0.0
H1570 H 0.19717 0.60826 0.70973 0.0
H1571 H 0.14755 0.63735 0.75828 0.0
C1572 C 0.17392 0.68764 0.74819 0.0
C1573 C 0.19833 0.71039 0.73575 0.0
C1574 C 0.1892 0.59661 0.72353 0.0
C1575 C 0.18074 0.64338 0.73493 0.0
C1576 C 0.19038 0.56764 0.72755 0.0
C1577 C 0.18133 0.55291 0.7456 0.0
C1578 C 0.17842 0.61054 0.73759 0.0
C1579 C 0.17 0.56717 0.75909 0.0
C1580 C 0.16493 0.65412 0.74777 0.0
C1581 C 0.21066 0.69808 0.72164 0.0
N1582 N 0.16897 0.59525 0.75482 0.0
N1583 N 0.20229 0.66537 0.72187 0.0
H1584 H 0.45313 0.61584 0.78988 0.0
H1585 H 0.29398 0.51785 0.72315 0.0
H1586 H 0.45348 0.63593 0.73005 0.0
H1587 H 0.29442 0.50707 0.78392 0.0
H1588 H 0.35528 0.55159 0.72373 0.0
H1589 H 0.39829 0.56625 0.78623 0.0
C1590 C 0.44183 0.60953 0.77592 0.0
C1591 C 0.4575 0.6303 0.76033 0.0
C1592 C 0.34191 0.54129 0.73687 0.0
C1593 C 0.39456 0.57393 0.75605 0.0
C1594 C 0.30705 0.522 0.73651 0.0
C1595 C 0.28935 0.51037 0.75355 0.0
C1596 C 0.35878 0.54857 0.75438 0.0
C1597 C 0.30723 0.51624 0.77051 0.0
C1598 C 0.4105 0.58124 0.77383 0.0
C1599 C 0.44198 0.62076 0.7425 0.0
N1600 N 0.3409 0.53519 0.77052 0.0
N1601 N 0.41105 0.59353 0.7409 0.0
H1602 H 0.42382 0.80958 0.102 0.0
H1603 H 0.47751 0.70177 0.038 0.0
H1604 H 0.43587 0.8178 0.04119 0.0
H1605 H 0.46884 0.69242 0.09895 0.0
H1606 H 0.46877 0.74941 0.03976 0.0
H1607 H 0.44723 0.77209 0.10224 0.0
C1608 C 0.43202 0.80402 0.0888 0.0
C1609 C 0.42752 0.81628 0.07153 0.0
C1610 C 0.46899 0.73716 0.05281 0.0
C1611 C 0.45386 0.77362 0.07162 0.0
C1612 C 0.47391 0.70989 0.05177 0.0
C1613 C 0.47353 0.69296 0.06832 0.0
C1614 C 0.46325 0.7474 0.07051 0.0
C1615 C 0.46909 0.70472 0.08583 0.0
C1616 C 0.44517 0.78255 0.08891 0.0
C1617 C 0.43841 0.80839 0.05479 0.0
N1618 N 0.46375 0.73105 0.08646 0.0
N1619 N 0.45077 0.78737 0.05524 0.0
H1620 H 0.18054 0.60942 0.10902 0.0
H1621 H 0.26253 0.77406 0.04604 0.0
H1622 H 0.15311 0.61566 0.05135 0.0
H1623 H 0.2925 0.77141 0.10368 0.0
H1624 H 0.21435 0.71853 0.05036 0.0
H1625 H 0.21328 0.67079 0.11018 0.0
C1626 C 0.18065 0.62378 0.09684 0.0
C1627 C 0.16472 0.60778 0.07997 0.0
C1628 C 0.2312 0.73017 0.06218 0.0
C1629 C 0.20199 0.67725 0.08103 0.0
C1630 C 0.25874 0.76187 0.05968 0.0
C1631 C 0.28176 0.77702 0.07441 0.0
C1632 C 0.22695 0.71322 0.07945 0.0
C1633 C 0.27545 0.76036 0.09189 0.0
C1634 C 0.19945 0.65869 0.09743 0.0
C1635 C 0.16561 0.62723 0.06452 0.0
N1636 N 0.2489 0.72904 0.09385 0.0
N1637 N 0.18429 0.6609 0.06533 0.0
H1638 H 0.37111 0.51377 0.05728 0.0
H1639 H 0.22248 0.52362 0.10809 0.0
H1640 H 0.38528 0.57069 0.10828 0.0
H1641 H 0.22238 0.49396 0.05005 0.0
H1642 H 0.27701 0.52774 0.11276 0.0
H1643 H 0.31108 0.49099 0.05984 0.0
C1644 C 0.36136 0.52069 0.06935 0.0
C1645 C 0.38295 0.54433 0.08248 0.0
C1646 C 0.26478 0.51994 0.0991 0.0
C1647 C 0.31453 0.51937 0.08514 0.0
C1648 C 0.23377 0.51762 0.09641 0.0
C1649 C 0.21824 0.50888 0.07856 0.0
C1650 C 0.27994 0.513 0.0839 0.0
C1651 C 0.23375 0.50123 0.06394 0.0
C1652 C 0.32716 0.50793 0.07072 0.0
C1653 C 0.36926 0.55247 0.0979 0.0
N1654 N 0.26379 0.5036 0.06692 0.0
N1655 N 0.33576 0.54053 0.0986 0.0
H1656 H 0.1313 0.51077 0.57024 0.0
H1657 H 0.26464 0.49222 0.55058 0.0
H1658 H 0.19396 0.57733 0.61413 0.0
H1659 H 0.2954 0.5182 0.60883 0.0
H1660 H 0.21579 0.49734 0.55693 0.0
H1661 H 0.16585 0.48467 0.56954 0.0
C1662 C 0.15193 0.51921 0.5801 0.0
C1663 C 0.16006 0.54619 0.5922 0.0
C1664 C 0.23253 0.50092 0.56855 0.0
C1665 C 0.20117 0.51839 0.59049 0.0
C1666 C 0.26073 0.49842 0.56482 0.0
C1667 C 0.28412 0.50493 0.57916 0.0
C1668 C 0.22771 0.51018 0.58679 0.0
C1669 C 0.27792 0.51299 0.59736 0.0
C1670 C 0.17206 0.50482 0.57943 0.0
C1671 C 0.18695 0.55642 0.60468 0.0
N1672 N 0.25055 0.51593 0.60058 0.0
N1673 N 0.20709 0.54291 0.60324 0.0
H1674 H 0.42819 0.61383 0.6037 0.0
H1675 H 0.48485 0.77452 0.53849 0.0
H1676 H 0.43992 0.61622 0.54291 0.0
H1677 H 0.47315 0.77553 0.59919 0.0
H1678 H 0.47693 0.71848 0.5409 0.0
H1679 H 0.45329 0.67495 0.60355 0.0
C1680 C 0.4367 0.62731 0.59043 0.0
C1681 C 0.43157 0.61013 0.57327 0.0
C1682 C 0.47636 0.73099 0.55375 0.0
C1683 C 0.45987 0.67938 0.57291 0.0
C1684 C 0.48084 0.76299 0.55235 0.0
C1685 C 0.4792 0.77943 0.56862 0.0
C1686 C 0.46976 0.7151 0.57153 0.0
C1687 C 0.47432 0.76352 0.58627 0.0
C1688 C 0.45083 0.66207 0.5903 0.0
C1689 C 0.44292 0.62856 0.55642 0.0
N1690 N 0.46932 0.732 0.58724 0.0
N1691 N 0.45622 0.66208 0.55665 0.0
H1692 H 0.38559 0.81346 0.60856 0.0
H1693 H 0.21652 0.71246 0.55152 0.0
H1694 H 0.36784 0.84036 0.55298 0.0
H1695 H 0.22436 0.69414 0.61081 0.0
H1696 H 0.27068 0.76317 0.55331 0.0
H1697 H 0.32534 0.77442 0.61183 0.0
C1698 C 0.36886 0.81192 0.59735 0.0
C1699 C 0.38147 0.82961 0.58038 0.0
C1700 C 0.26054 0.74832 0.56603 0.0
C1701 C 0.31328 0.785 0.58377 0.0
C1702 C 0.22968 0.71924 0.56495 0.0
C1703 C 0.21624 0.69896 0.58097 0.0
C1704 C 0.27845 0.75693 0.58318 0.0
C1705 C 0.23408 0.70908 0.59809 0.0
C1706 C 0.33459 0.7895 0.59912 0.0
C1707 C 0.35901 0.82668 0.56618 0.0
N1708 N 0.26458 0.73718 0.5987 0.0
N1709 N 0.32609 0.80442 0.56807 0.0
H1710 H 0.22898 0.51628 0.20779 0.0
H1711 H 0.13901 0.58683 0.27256 0.0
H1712 H 0.18081 0.47342 0.26105 0.0
H1713 H 0.18046 0.62812 0.21769 0.0
H1714 H 0.14372 0.53795 0.2651 0.0
H1715 H 0.20096 0.54955 0.20725 0.0
C1716 C 0.21154 0.51301 0.21897 0.0
C1717 C 0.20737 0.49261 0.2346 0.0
C1718 C 0.1514 0.55743 0.25453 0.0
C1719 C 0.17602 0.53065 0.23436 0.0
C1720 C 0.14876 0.58538 0.25884 0.0
C1721 C 0.15994 0.61173 0.24586 0.0
C1722 C 0.166 0.55614 0.23728 0.0
C1723 C 0.1719 0.60841 0.22817 0.0
C1724 C 0.19579 0.53215 0.21878 0.0
C1725 C 0.1849 0.48933 0.24887 0.0
N1726 N 0.17526 0.58139 0.22452 0.0
N1727 N 0.17046 0.50854 0.24856 0.0
H1728 H 0.47949 0.71848 0.21567 0.0
H1729 H 0.37656 0.55092 0.27352 0.0
H1730 H 0.51026 0.69886 0.2696 0.0
H1731 H 0.35733 0.55802 0.2143 0.0
H1732 H 0.42818 0.6043 0.27111 0.0
H1733 H 0.43832 0.65873 0.21284 0.0
C1734 C 0.47836 0.70142 0.22656 0.0
C1735 C 0.49783 0.71346 0.243 0.0
C1736 C 0.4129 0.59413 0.25855 0.0
C1737 C 0.45066 0.6458 0.24016 0.0
C1738 C 0.38331 0.56374 0.25999 0.0
C1739 C 0.36257 0.55029 0.24415 0.0
C1740 C 0.4216 0.61154 0.24122 0.0
C1741 C 0.37264 0.56773 0.22688 0.0
C1742 C 0.4547 0.66743 0.22505 0.0
C1743 C 0.49529 0.69051 0.25682 0.0
N1744 N 0.40128 0.59775 0.22592 0.0
N1745 N 0.47174 0.6579 0.25524 0.0
H1746 H 0.44142 0.80744 0.2282 0.0
H1747 H 0.2765 0.74846 0.28925 0.0
H1748 H 0.43713 0.80055 0.28932 0.0
H1749 H 0.27877 0.7602 0.22843 0.0
H1750 H 0.33663 0.7726 0.28937 0.0
H1751 H 0.38351 0.79524 0.22778 0.0
C1752 C 0.42839 0.8037 0.24154 0.0
C1753 C 0.44392 0.80467 0.25883 0.0
C1754 C 0.32419 0.7702 0.27596 0.0
C1755 C 0.37783 0.79064 0.25843 0.0
C1756 C 0.28977 0.75631 0.27588 0.0
C1757 C 0.27265 0.75197 0.25876 0.0
C1758 C 0.34177 0.77951 0.25877 0.0
C1759 C 0.29112 0.76302 0.24191 0.0
C1760 C 0.39537 0.79675 0.24128 0.0
C1761 C 0.42602 0.79978 0.27567 0.0
N1762 N 0.32478 0.77596 0.2423 0.0
N1763 N 0.39385 0.79272 0.27503 0.0
loop_
_geom_bond_atom_site_label_1
_geom_bond_atom_site_label_2
_geom_bond_distance
_geom_bond_site_symmetry_2
_ccdc_geom_bond_type
In0 O1 2.294 . S
In0 O2 2.326 . S
In0 O6 2.266 . S
In0 O7 2.326 . S
In0 O8 2.266 . S
In0 O9 2.326 . S
In0 O11 2.294 . S
In0 O12 2.326 . S
O1 In0 2.294 . S
O1 C10 1.240 . S
O2 In0 2.326 . S
O2 C10 1.252 . S
C3 O6 1.252 . S
C3 O7 1.260 . S
C4 O11 1.240 . S
C4 O12 1.252 . S
C5 O8 1.252 1_565 S
C5 O9 1.260 1_565 S
O6 In0 2.266 . S
O6 C3 1.252 . S
O7 In0 2.326 . S
O7 C3 1.260 . S
O8 In0 2.266 . S
O8 C5 1.252 1_545 S
O9 In0 2.326 . S
O9 C5 1.260 1_545 S
C10 O1 1.240 . S
C10 O2 1.252 . S
O11 In0 2.294 . S
O11 C4 1.240 . S
O12 In0 2.326 . S
O12 C4 1.252 . S
In13 O14 2.294 . S
In13 O15 2.326 . S
In13 O19 2.266 . S
In13 O20 2.326 . S
In13 O21 2.266 . S
In13 O22 2.326 . S
In13 O24 2.294 . S
In13 O25 2.326 . S
O14 In13 2.294 . S
O14 C23 1.240 . S
O15 In13 2.326 . S
O15 C23 1.252 . S
C16 O19 1.252 . S
C16 O20 1.260 . S
C17 O24 1.240 . S
C17 O25 1.252 . S
C18 O21 1.252 1_455 S
C18 O22 1.260 1_455 S
O19 In13 2.266 . S
O19 C16 1.252 . S
O20 In13 2.326 . S
O20 C16 1.260 . S
O21 In13 2.266 . S
O21 C18 1.252 1_655 S
O22 In13 2.326 . S
O22 C18 1.260 1_655 S
C23 O14 1.240 . S
C23 O15 1.252 . S
O24 In13 2.294 . S
O24 C17 1.240 . S
O25 In13 2.326 . S
O25 C17 1.252 . S
In26 O27 2.294 . S
In26 O28 2.326 . S
In26 O32 2.266 . S
In26 O33 2.326 . S
In26 O34 2.266 . S
In26 O35 2.326 . S
In26 O37 2.294 . S
In26 O38 2.326 . S
O27 In26 2.294 . S
O27 C36 1.240 . S
O28 In26 2.326 . S
O28 C36 1.252 . S
C29 O32 1.252 . S
C29 O33 1.260 . S
C30 O37 1.240 . S
C30 O38 1.252 . S
C31 O34 1.252 . S
C31 O35 1.260 . S
O32 In26 2.266 . S
O32 C29 1.252 . S
O33 In26 2.326 . S
O33 C29 1.260 . S
O34 In26 2.266 . S
O34 C31 1.252 . S
O35 In26 2.326 . S
O35 C31 1.260 . S
C36 O27 1.240 . S
C36 O28 1.252 . S
O37 In26 2.294 . S
O37 C30 1.240 . S
O38 In26 2.326 . S
O38 C30 1.252 . S
In39 O40 2.294 . S
In39 O41 2.326 . S
In39 O45 2.266 . S
In39 O46 2.326 . S
In39 O47 2.266 . S
In39 O48 2.326 . S
In39 O50 2.294 . S
In39 O51 2.326 . S
O40 In39 2.294 . S
O40 C49 1.240 . S
O41 In39 2.326 . S
O41 C49 1.252 . S
C42 O45 1.252 . S
C42 O46 1.260 . S
C43 O50 1.240 . S
C43 O51 1.252 . S
C44 O47 1.252 1_655 S
C44 O48 1.260 1_655 S
O45 In39 2.266 . S
O45 C42 1.252 . S
O46 In39 2.326 . S
O46 C42 1.260 . S
O47 In39 2.266 . S
O47 C44 1.252 1_455 S
O48 In39 2.326 . S
O48 C44 1.260 1_455 S
C49 O40 1.240 . S
C49 O41 1.252 . S
O50 In39 2.294 . S
O50 C43 1.240 . S
O51 In39 2.326 . S
O51 C43 1.252 . S
In52 O53 2.294 . S
In52 O54 2.326 . S
In52 O58 2.266 . S
In52 O59 2.326 . S
In52 O60 2.266 . S
In52 O61 2.326 . S
In52 O63 2.294 . S
In52 O64 2.326 . S
O53 In52 2.294 . S
O53 C62 1.240 . S
O54 In52 2.326 . S
O54 C62 1.252 . S
C55 O58 1.252 . S
C55 O59 1.260 . S
C56 O63 1.240 . S
C56 O64 1.252 . S
C57 O60 1.252 . S
C57 O61 1.260 . S
O58 In52 2.266 . S
O58 C55 1.252 . S
O59 In52 2.326 . S
O59 C55 1.260 . S
O60 In52 2.266 . S
O60 C57 1.252 . S
O61 In52 2.326 . S
O61 C57 1.260 . S
C62 O53 1.240 . S
C62 O54 1.252 . S
O63 In52 2.294 . S
O63 C56 1.240 . S
O64 In52 2.326 . S
O64 C56 1.252 . S
In65 O66 2.294 . S
In65 O67 2.326 . S
In65 O71 2.266 . S
In65 O72 2.326 . S
In65 O73 2.266 . S
In65 O74 2.326 . S
In65 O76 2.294 . S
In65 O77 2.326 . S
O66 In65 2.294 . S
O66 C75 1.240 . S
O67 In65 2.326 . S
O67 C75 1.252 . S
C68 O71 1.252 1_545 S
C68 O72 1.260 1_545 S
C69 O76 1.240 . S
C69 O77 1.252 . S
C70 O73 1.252 . S
C70 O74 1.260 . S
O71 In65 2.266 . S
O71 C68 1.252 1_565 S
O72 In65 2.326 . S
O72 C68 1.260 1_565 S
O73 In65 2.266 . S
O73 C70 1.252 . S
O74 In65 2.326 . S
O74 C70 1.260 . S
C75 O66 1.240 . S
C75 O67 1.252 . S
O76 In65 2.294 . S
O76 C69 1.240 . S
O77 In65 2.326 . S
O77 C69 1.252 . S
In78 O79 2.294 . S
In78 O80 2.326 . S
In78 O84 2.266 . S
In78 O85 2.326 . S
In78 O86 2.266 . S
In78 O87 2.326 . S
In78 O89 2.294 . S
In78 O90 2.326 . S
O79 In78 2.294 . S
O79 C88 1.240 . S
O80 In78 2.326 . S
O80 C88 1.252 . S
C81 O84 1.252 . S
C81 O85 1.260 . S
C82 O89 1.240 . S
C82 O90 1.252 . S
C83 O86 1.252 1_545 S
C83 O87 1.260 1_545 S
O84 In78 2.266 . S
O84 C81 1.252 . S
O85 In78 2.326 . S
O85 C81 1.260 . S
O86 In78 2.266 . S
O86 C83 1.252 1_565 S
O87 In78 2.326 . S
O87 C83 1.260 1_565 S
C88 O79 1.240 . S
C88 O80 1.252 . S
O89 In78 2.294 . S
O89 C82 1.240 . S
O90 In78 2.326 . S
O90 C82 1.252 . S
In91 O92 2.294 . S
In91 O93 2.326 . S
In91 O97 2.266 . S
In91 O98 2.326 . S
In91 O99 2.266 . S
In91 O100 2.326 . S
In91 O102 2.294 . S
In91 O103 2.326 . S
O92 In91 2.294 . S
O92 C101 1.240 . S
O93 In91 2.326 . S
O93 C101 1.252 . S
C94 O97 1.252 . S
C94 O98 1.260 . S
C95 O102 1.240 . S
C95 O103 1.252 . S
C96 O99 1.252 1_655 S
C96 O100 1.260 1_655 S
O97 In91 2.266 . S
O97 C94 1.252 . S
O98 In91 2.326 . S
O98 C94 1.260 . S
O99 In91 2.266 . S
O99 C96 1.252 1_455 S
O100 In91 2.326 . S
O100 C96 1.260 1_455 S
C101 O92 1.240 . S
C101 O93 1.252 . S
O102 In91 2.294 . S
O102 C95 1.240 . S
O103 In91 2.326 . S
O103 C95 1.252 . S
In104 O105 2.294 . S
In104 O106 2.326 . S
In104 O110 2.266 . S
In104 O111 2.326 . S
In104 O112 2.266 . S
In104 O113 2.326 . S
In104 O115 2.294 . S
In104 O116 2.326 . S
O105 In104 2.294 . S
O105 C114 1.240 . S
O106 In104 2.326 . S
O106 C114 1.252 . S
C107 O110 1.252 . S
C107 O111 1.260 . S
C108 O115 1.240 . S
C108 O116 1.252 . S
C109 O112 1.252 . S
C109 O113 1.260 . S
O110 In104 2.266 . S
O110 C107 1.252 . S
O111 In104 2.326 . S
O111 C107 1.260 . S
O112 In104 2.266 . S
O112 C109 1.252 . S
O113 In104 2.326 . S
O113 C109 1.260 . S
C114 O105 1.240 . S
C114 O106 1.252 . S
O115 In104 2.294 . S
O115 C108 1.240 . S
O116 In104 2.326 . S
O116 C108 1.252 . S
In117 O118 2.294 . S
In117 O119 2.326 . S
In117 O123 2.266 . S
In117 O124 2.326 . S
In117 O125 2.266 . S
In117 O126 2.326 . S
In117 O128 2.294 . S
In117 O129 2.326 . S
O118 In117 2.294 . S
O118 C127 1.240 . S
O119 In117 2.326 . S
O119 C127 1.252 . S
C120 O123 1.252 . S
C120 O124 1.260 . S
C121 O128 1.240 . S
C121 O129 1.252 . S
C122 O125 1.252 1_455 S
C122 O126 1.260 1_455 S
O123 In117 2.266 . S
O123 C120 1.252 . S
O124 In117 2.326 . S
O124 C120 1.260 . S
O125 In117 2.266 . S
O125 C122 1.252 1_655 S
O126 In117 2.326 . S
O126 C122 1.260 1_655 S
C127 O118 1.240 . S
C127 O119 1.252 . S
O128 In117 2.294 . S
O128 C121 1.240 . S
O129 In117 2.326 . S
O129 C121 1.252 . S
In130 O131 2.294 . S
In130 O132 2.326 . S
In130 O136 2.266 . S
In130 O137 2.326 . S
In130 O138 2.266 . S
In130 O139 2.326 . S
In130 O141 2.294 . S
In130 O142 2.326 . S
O131 In130 2.294 . S
O131 C140 1.240 . S
O132 In130 2.326 . S
O132 C140 1.252 . S
C133 O136 1.252 . S
C133 O137 1.260 . S
C134 O141 1.240 . S
C134 O142 1.252 . S
C135 O138 1.252 . S
C135 O139 1.260 . S
O136 In130 2.266 . S
O136 C133 1.252 . S
O137 In130 2.326 . S
O137 C133 1.260 . S
O138 In130 2.266 . S
O138 C135 1.252 . S
O139 In130 2.326 . S
O139 C135 1.260 . S
C140 O131 1.240 . S
C140 O132 1.252 . S
O141 In130 2.294 . S
O141 C134 1.240 . S
O142 In130 2.326 . S
O142 C134 1.252 . S
In143 O144 2.294 . S
In143 O145 2.326 . S
In143 O149 2.266 . S
In143 O150 2.326 . S
In143 O151 2.266 . S
In143 O152 2.326 . S
In143 O154 2.294 . S
In143 O155 2.326 . S
O144 In143 2.294 . S
O144 C153 1.240 . S
O145 In143 2.326 . S
O145 C153 1.252 . S
C146 O149 1.252 1_565 S
C146 O150 1.260 1_565 S
C147 O154 1.240 . S
C147 O155 1.252 . S
C148 O151 1.252 . S
C148 O152 1.260 . S
O149 In143 2.266 . S
O149 C146 1.252 1_545 S
O150 In143 2.326 . S
O150 C146 1.260 1_545 S
O151 In143 2.266 . S
O151 C148 1.252 . S
O152 In143 2.326 . S
O152 C148 1.260 . S
C153 O144 1.240 . S
C153 O145 1.252 . S
O154 In143 2.294 . S
O154 C147 1.240 . S
O155 In143 2.326 . S
O155 C147 1.252 . S
In156 O157 2.294 . S
In156 O158 2.326 . S
In156 O162 2.266 . S
In156 O163 2.326 . S
In156 O164 2.266 . S
In156 O165 2.326 . S
In156 O167 2.294 . S
In156 O168 2.326 . S
O157 In156 2.294 . S
O157 C166 1.240 . S
O158 In156 2.326 . S
O158 C166 1.252 . S
C159 O162 1.252 . S
C159 O163 1.260 . S
C160 O167 1.240 . S
C160 O168 1.252 . S
C161 O164 1.252 . S
C161 O165 1.260 . S
O162 In156 2.266 . S
O162 C159 1.252 . S
O163 In156 2.326 . S
O163 C159 1.260 . S
O164 In156 2.266 . S
O164 C161 1.252 . S
O165 In156 2.326 . S
O165 C161 1.260 . S
C166 O157 1.240 . S
C166 O158 1.252 . S
O167 In156 2.294 . S
O167 C160 1.240 . S
O168 In156 2.326 . S
O168 C160 1.252 . S
In169 O170 2.294 . S
In169 O171 2.326 . S
In169 O175 2.266 . S
In169 O176 2.326 . S
In169 O177 2.266 . S
In169 O178 2.326 . S
In169 O180 2.294 . S
In169 O181 2.326 . S
O170 In169 2.294 . S
O170 C179 1.240 . S
O171 In169 2.326 . S
O171 C179 1.252 . S
C172 O175 1.252 . S
C172 O176 1.260 . S
C173 O180 1.240 . S
C173 O181 1.252 . S
C174 O177 1.252 . S
C174 O178 1.260 . S
O175 In169 2.266 . S
O175 C172 1.252 . S
O176 In169 2.326 . S
O176 C172 1.260 . S
O177 In169 2.266 . S
O177 C174 1.252 . S
O178 In169 2.326 . S
O178 C174 1.260 . S
C179 O170 1.240 . S
C179 O171 1.252 . S
O180 In169 2.294 . S
O180 C173 1.240 . S
O181 In169 2.326 . S
O181 C173 1.252 . S
In182 O183 2.294 . S
In182 O184 2.326 . S
In182 O188 2.266 . S
In182 O189 2.326 . S
In182 O190 2.266 . S
In182 O191 2.326 . S
In182 O193 2.294 . S
In182 O194 2.326 . S
O183 In182 2.294 . S
O183 C192 1.240 . S
O184 In182 2.326 . S
O184 C192 1.252 . S
C185 O188 1.252 . S
C185 O189 1.260 . S
C186 O193 1.240 . S
C186 O194 1.252 . S
C187 O190 1.252 . S
C187 O191 1.260 . S
O188 In182 2.266 . S
O188 C185 1.252 . S
O189 In182 2.326 . S
O189 C185 1.260 . S
O190 In182 2.266 . S
O190 C187 1.252 . S
O191 In182 2.326 . S
O191 C187 1.260 . S
C192 O183 1.240 . S
C192 O184 1.252 . S
O193 In182 2.294 . S
O193 C186 1.240 . S
O194 In182 2.326 . S
O194 C186 1.252 . S
In195 O196 2.294 . S
In195 O197 2.326 . S
In195 O201 2.266 . S
In195 O202 2.326 . S
In195 O203 2.266 . S
In195 O204 2.326 . S
In195 O206 2.294 . S
In195 O207 2.326 . S
O196 In195 2.294 . S
O196 C205 1.240 . S
O197 In195 2.326 . S
O197 C205 1.252 . S
C198 O201 1.252 . S
C198 O202 1.260 . S
C199 O206 1.240 . S
C199 O207 1.252 . S
C200 O203 1.252 . S
C200 O204 1.260 . S
O201 In195 2.266 . S
O201 C198 1.252 . S
O202 In195 2.326 . S
O202 C198 1.260 . S
O203 In195 2.266 . S
O203 C200 1.252 . S
O204 In195 2.326 . S
O204 C200 1.260 . S
C205 O196 1.240 . S
C205 O197 1.252 . S
O206 In195 2.294 . S
O206 C199 1.240 . S
O207 In195 2.326 . S
O207 C199 1.252 . S
In208 O209 2.294 . S
In208 O210 2.326 . S
In208 O214 2.266 . S
In208 O215 2.326 . S
In208 O216 2.266 . S
In208 O217 2.326 . S
In208 O219 2.294 . S
In208 O220 2.326 . S
O209 In208 2.294 . S
O209 C218 1.240 . S
O210 In208 2.326 . S
O210 C218 1.252 . S
C211 O214 1.252 . S
C211 O215 1.260 . S
C212 O219 1.240 . S
C212 O220 1.252 . S
C213 O216 1.252 . S
C213 O217 1.260 . S
O214 In208 2.266 . S
O214 C211 1.252 . S
O215 In208 2.326 . S
O215 C211 1.260 . S
O216 In208 2.266 . S
O216 C213 1.252 . S
O217 In208 2.326 . S
O217 C213 1.260 . S
C218 O209 1.240 . S
C218 O210 1.252 . S
O219 In208 2.294 . S
O219 C212 1.240 . S
O220 In208 2.326 . S
O220 C212 1.252 . S
In221 O222 2.294 . S
In221 O223 2.326 . S
In221 O227 2.266 . S
In221 O228 2.326 . S
In221 O229 2.266 . S
In221 O230 2.326 . S
In221 O232 2.294 . S
In221 O233 2.326 . S
O222 In221 2.294 . S
O222 C231 1.240 . S
O223 In221 2.326 . S
O223 C231 1.252 . S
C224 O227 1.252 . S
C224 O228 1.260 . S
C225 O232 1.240 . S
C225 O233 1.252 . S
C226 O229 1.252 . S
C226 O230 1.260 . S
O227 In221 2.266 . S
O227 C224 1.252 . S
O228 In221 2.326 . S
O228 C224 1.260 . S
O229 In221 2.266 . S
O229 C226 1.252 . S
O230 In221 2.326 . S
O230 C226 1.260 . S
C231 O222 1.240 . S
C231 O223 1.252 . S
O232 In221 2.294 . S
O232 C225 1.240 . S
O233 In221 2.326 . S
O233 C225 1.252 . S
In234 O235 2.294 . S
In234 O236 2.326 . S
In234 O240 2.266 . S
In234 O241 2.326 . S
In234 O242 2.266 . S
In234 O243 2.326 . S
In234 O245 2.294 . S
In234 O246 2.326 . S
O235 In234 2.294 . S
O235 C244 1.240 . S
O236 In234 2.326 . S
O236 C244 1.252 . S
C237 O240 1.252 . S
C237 O241 1.260 . S
C238 O245 1.240 . S
C238 O246 1.252 . S
C239 O242 1.252 . S
C239 O243 1.260 . S
O240 In234 2.266 . S
O240 C237 1.252 . S
O241 In234 2.326 . S
O241 C237 1.260 . S
O242 In234 2.266 . S
O242 C239 1.252 . S
O243 In234 2.326 . S
O243 C239 1.260 . S
C244 O235 1.240 . S
C244 O236 1.252 . S
O245 In234 2.294 . S
O245 C238 1.240 . S
O246 In234 2.326 . S
O246 C238 1.252 . S
In247 O248 2.294 . S
In247 O249 2.326 . S
In247 O253 2.266 . S
In247 O254 2.326 . S
In247 O255 2.266 . S
In247 O256 2.326 . S
In247 O258 2.294 . S
In247 O259 2.326 . S
O248 In247 2.294 . S
O248 C257 1.240 . S
O249 In247 2.326 . S
O249 C257 1.252 . S
C250 O253 1.252 . S
C250 O254 1.260 . S
C251 O258 1.240 . S
C251 O259 1.252 . S
C252 O255 1.252 . S
C252 O256 1.260 . S
O253 In247 2.266 . S
O253 C250 1.252 . S
O254 In247 2.326 . S
O254 C250 1.260 . S
O255 In247 2.266 . S
O255 C252 1.252 . S
O256 In247 2.326 . S
O256 C252 1.260 . S
C257 O248 1.240 . S
C257 O249 1.252 . S
O258 In247 2.294 . S
O258 C251 1.240 . S
O259 In247 2.326 . S
O259 C251 1.252 . S
In260 O261 2.294 . S
In260 O262 2.326 . S
In260 O266 2.266 . S
In260 O267 2.326 . S
In260 O268 2.266 . S
In260 O269 2.326 . S
In260 O271 2.294 . S
In260 O272 2.326 . S
O261 In260 2.294 . S
O261 C270 1.240 . S
O262 In260 2.326 . S
O262 C270 1.252 . S
C263 O266 1.252 . S
C263 O267 1.260 . S
C264 O271 1.240 . S
C264 O272 1.252 . S
C265 O268 1.252 . S
C265 O269 1.260 . S
O266 In260 2.266 . S
O266 C263 1.252 . S
O267 In260 2.326 . S
O267 C263 1.260 . S
O268 In260 2.266 . S
O268 C265 1.252 . S
O269 In260 2.326 . S
O269 C265 1.260 . S
C270 O261 1.240 . S
C270 O262 1.252 . S
O271 In260 2.294 . S
O271 C264 1.240 . S
O272 In260 2.326 . S
O272 C264 1.252 . S
In273 O274 2.294 . S
In273 O275 2.326 . S
In273 O279 2.266 . S
In273 O280 2.326 . S
In273 O281 2.266 . S
In273 O282 2.326 . S
In273 O284 2.294 . S
In273 O285 2.326 . S
O274 In273 2.294 . S
O274 C283 1.240 . S
O275 In273 2.326 . S
O275 C283 1.252 . S
C276 O279 1.252 . S
C276 O280 1.260 . S
C277 O284 1.240 . S
C277 O285 1.252 . S
C278 O281 1.252 . S
C278 O282 1.260 . S
O279 In273 2.266 . S
O279 C276 1.252 . S
O280 In273 2.326 . S
O280 C276 1.260 . S
O281 In273 2.266 . S
O281 C278 1.252 . S
O282 In273 2.326 . S
O282 C278 1.260 . S
C283 O274 1.240 . S
C283 O275 1.252 . S
O284 In273 2.294 . S
O284 C277 1.240 . S
O285 In273 2.326 . S
O285 C277 1.252 . S
In286 O287 2.294 . S
In286 O288 2.326 . S
In286 O292 2.266 . S
In286 O293 2.326 . S
In286 O294 2.266 . S
In286 O295 2.326 . S
In286 O297 2.294 . S
In286 O298 2.326 . S
O287 In286 2.294 . S
O287 C296 1.240 . S
O288 In286 2.326 . S
O288 C296 1.252 . S
C289 O292 1.252 . S
C289 O293 1.260 . S
C290 O297 1.240 . S
C290 O298 1.252 . S
C291 O294 1.252 . S
C291 O295 1.260 . S
O292 In286 2.266 . S
O292 C289 1.252 . S
O293 In286 2.326 . S
O293 C289 1.260 . S
O294 In286 2.266 . S
O294 C291 1.252 . S
O295 In286 2.326 . S
O295 C291 1.260 . S
C296 O287 1.240 . S
C296 O288 1.252 . S
O297 In286 2.294 . S
O297 C290 1.240 . S
O298 In286 2.326 . S
O298 C290 1.252 . S
In299 O300 2.294 . S
In299 O301 2.326 . S
In299 O305 2.266 . S
In299 O306 2.326 . S
In299 O307 2.266 . S
In299 O308 2.326 . S
In299 O310 2.294 . S
In299 O311 2.326 . S
O300 In299 2.294 . S
O300 C309 1.240 . S
O301 In299 2.326 . S
O301 C309 1.252 . S
C302 O305 1.252 . S
C302 O306 1.260 . S
C303 O310 1.240 . S
C303 O311 1.252 . S
C304 O307 1.252 . S
C304 O308 1.260 . S
O305 In299 2.266 . S
O305 C302 1.252 . S
O306 In299 2.326 . S
O306 C302 1.260 . S
O307 In299 2.266 . S
O307 C304 1.252 . S
O308 In299 2.326 . S
O308 C304 1.260 . S
C309 O300 1.240 . S
C309 O301 1.252 . S
O310 In299 2.294 . S
O310 C303 1.240 . S
O311 In299 2.326 . S
O311 C303 1.252 . S
In312 O313 2.294 . S
In312 O314 2.326 . S
In312 O318 2.266 . S
In312 O319 2.326 . S
In312 O320 2.266 . S
In312 O321 2.326 . S
In312 O323 2.294 . S
In312 O324 2.326 . S
O313 In312 2.294 . S
O313 C322 1.240 . S
O314 In312 2.326 . S
O314 C322 1.252 . S
C315 O318 1.252 . S
C315 O319 1.260 . S
C316 O323 1.240 . S
C316 O324 1.252 . S
C317 O320 1.252 . S
C317 O321 1.260 . S
O318 In312 2.266 . S
O318 C315 1.252 . S
O319 In312 2.326 . S
O319 C315 1.260 . S
O320 In312 2.266 . S
O320 C317 1.252 . S
O321 In312 2.326 . S
O321 C317 1.260 . S
C322 O313 1.240 . S
C322 O314 1.252 . S
O323 In312 2.294 . S
O323 C316 1.240 . S
O324 In312 2.326 . S
O324 C316 1.252 . S
In325 O326 2.294 . S
In325 O327 2.326 . S
In325 O331 2.266 . S
In325 O332 2.326 . S
In325 O333 2.266 . S
In325 O334 2.326 . S
In325 O336 2.294 . S
In325 O337 2.326 . S
O326 In325 2.294 . S
O326 C335 1.240 . S
O327 In325 2.326 . S
O327 C335 1.252 . S
C328 O331 1.252 . S
C328 O332 1.260 . S
C329 O336 1.240 . S
C329 O337 1.252 . S
C330 O333 1.252 . S
C330 O334 1.260 . S
O331 In325 2.266 . S
O331 C328 1.252 . S
O332 In325 2.326 . S
O332 C328 1.260 . S
O333 In325 2.266 . S
O333 C330 1.252 . S
O334 In325 2.326 . S
O334 C330 1.260 . S
C335 O326 1.240 . S
C335 O327 1.252 . S
O336 In325 2.294 . S
O336 C329 1.240 . S
O337 In325 2.326 . S
O337 C329 1.252 . S
In338 O339 2.294 . S
In338 O340 2.326 . S
In338 O344 2.266 . S
In338 O345 2.326 . S
In338 O346 2.266 . S
In338 O347 2.326 . S
In338 O349 2.294 . S
In338 O350 2.326 . S
O339 In338 2.294 . S
O339 C348 1.240 . S
O340 In338 2.326 . S
O340 C348 1.252 . S
C341 O344 1.252 . S
C341 O345 1.260 . S
C342 O349 1.240 . S
C342 O350 1.252 . S
C343 O346 1.252 . S
C343 O347 1.260 . S
O344 In338 2.266 . S
O344 C341 1.252 . S
O345 In338 2.326 . S
O345 C341 1.260 . S
O346 In338 2.266 . S
O346 C343 1.252 . S
O347 In338 2.326 . S
O347 C343 1.260 . S
C348 O339 1.240 . S
C348 O340 1.252 . S
O349 In338 2.294 . S
O349 C342 1.240 . S
O350 In338 2.326 . S
O350 C342 1.252 . S
In351 O352 2.294 . S
In351 O353 2.326 . S
In351 O357 2.266 . S
In351 O358 2.326 . S
In351 O359 2.266 . S
In351 O360 2.326 . S
In351 O362 2.294 . S
In351 O363 2.326 . S
O352 In351 2.294 . S
O352 C361 1.240 . S
O353 In351 2.326 . S
O353 C361 1.252 . S
C354 O357 1.252 . S
C354 O358 1.260 . S
C355 O362 1.240 . S
C355 O363 1.252 . S
C356 O359 1.252 . S
C356 O360 1.260 . S
O357 In351 2.266 . S
O357 C354 1.252 . S
O358 In351 2.326 . S
O358 C354 1.260 . S
O359 In351 2.266 . S
O359 C356 1.252 . S
O360 In351 2.326 . S
O360 C356 1.260 . S
C361 O352 1.240 . S
C361 O353 1.252 . S
O362 In351 2.294 . S
O362 C355 1.240 . S
O363 In351 2.326 . S
O363 C355 1.252 . S
In364 O365 2.294 . S
In364 O366 2.326 . S
In364 O370 2.266 . S
In364 O371 2.326 . S
In364 O372 2.266 . S
In364 O373 2.326 . S
In364 O375 2.294 . S
In364 O376 2.326 . S
O365 In364 2.294 . S
O365 C374 1.240 . S
O366 In364 2.326 . S
O366 C374 1.252 . S
C367 O370 1.252 . S
C367 O371 1.260 . S
C368 O375 1.240 . S
C368 O376 1.252 . S
C369 O372 1.252 . S
C369 O373 1.260 . S
O370 In364 2.266 . S
O370 C367 1.252 . S
O371 In364 2.326 . S
O371 C367 1.260 . S
O372 In364 2.266 . S
O372 C369 1.252 . S
O373 In364 2.326 . S
O373 C369 1.260 . S
C374 O365 1.240 . S
C374 O366 1.252 . S
O375 In364 2.294 . S
O375 C368 1.240 . S
O376 In364 2.326 . S
O376 C368 1.252 . S
In377 O378 2.294 . S
In377 O379 2.326 . S
In377 O383 2.266 . S
In377 O384 2.326 . S
In377 O385 2.266 . S
In377 O386 2.326 . S
In377 O388 2.294 . S
In377 O389 2.326 . S
O378 In377 2.294 . S
O378 C387 1.240 . S
O379 In377 2.326 . S
O379 C387 1.252 . S
C380 O383 1.252 . S
C380 O384 1.260 . S
C381 O388 1.240 . S
C381 O389 1.252 . S
C382 O385 1.252 . S
C382 O386 1.260 . S
O383 In377 2.266 . S
O383 C380 1.252 . S
O384 In377 2.326 . S
O384 C380 1.260 . S
O385 In377 2.266 . S
O385 C382 1.252 . S
O386 In377 2.326 . S
O386 C382 1.260 . S
C387 O378 1.240 . S
C387 O379 1.252 . S
O388 In377 2.294 . S
O388 C381 1.240 . S
O389 In377 2.326 . S
O389 C381 1.252 . S
In390 O391 2.294 . S
In390 O392 2.326 . S
In390 O396 2.266 . S
In390 O397 2.326 . S
In390 O398 2.266 . S
In390 O399 2.326 . S
In390 O401 2.294 . S
In390 O402 2.326 . S
O391 In390 2.294 . S
O391 C400 1.240 . S
O392 In390 2.326 . S
O392 C400 1.252 . S
C393 O396 1.252 . S
C393 O397 1.260 . S
C394 O401 1.240 . S
C394 O402 1.252 . S
C395 O398 1.252 . S
C395 O399 1.260 . S
O396 In390 2.266 . S
O396 C393 1.252 . S
O397 In390 2.326 . S
O397 C393 1.260 . S
O398 In390 2.266 . S
O398 C395 1.252 . S
O399 In390 2.326 . S
O399 C395 1.260 . S
C400 O391 1.240 . S
C400 O392 1.252 . S
O401 In390 2.294 . S
O401 C394 1.240 . S
O402 In390 2.326 . S
O402 C394 1.252 . S
In403 O404 2.294 . S
In403 O405 2.326 . S
In403 O409 2.266 . S
In403 O410 2.326 . S
In403 O411 2.266 . S
In403 O412 2.326 . S
In403 O414 2.294 . S
In403 O415 2.326 . S
O404 In403 2.294 . S
O404 C413 1.240 . S
O405 In403 2.326 . S
O405 C413 1.252 . S
C406 O409 1.252 . S
C406 O410 1.260 . S
C407 O414 1.240 . S
C407 O415 1.252 . S
C408 O411 1.252 . S
C408 O412 1.260 . S
O409 In403 2.266 . S
O409 C406 1.252 . S
O410 In403 2.326 . S
O410 C406 1.260 . S
O411 In403 2.266 . S
O411 C408 1.252 . S
O412 In403 2.326 . S
O412 C408 1.260 . S
C413 O404 1.240 . S
C413 O405 1.252 . S
O414 In403 2.294 . S
O414 C407 1.240 . S
O415 In403 2.326 . S
O415 C407 1.252 . S
In416 O417 2.294 . S
In416 O418 2.326 . S
In416 O422 2.266 . S
In416 O423 2.326 . S
In416 O424 2.266 . S
In416 O425 2.326 . S
In416 O427 2.294 . S
In416 O428 2.326 . S
O417 In416 2.294 . S
O417 C426 1.240 . S
O418 In416 2.326 . S
O418 C426 1.252 . S
C419 O422 1.252 . S
C419 O423 1.260 . S
C420 O427 1.240 . S
C420 O428 1.252 . S
C421 O424 1.252 . S
C421 O425 1.260 . S
O422 In416 2.266 . S
O422 C419 1.252 . S
O423 In416 2.326 . S
O423 C419 1.260 . S
O424 In416 2.266 . S
O424 C421 1.252 . S
O425 In416 2.326 . S
O425 C421 1.260 . S
C426 O417 1.240 . S
C426 O418 1.252 . S
O427 In416 2.294 . S
O427 C420 1.240 . S
O428 In416 2.326 . S
O428 C420 1.252 . S
In429 O430 2.294 . S
In429 O431 2.326 . S
In429 O435 2.266 . S
In429 O436 2.326 . S
In429 O437 2.266 . S
In429 O438 2.326 . S
In429 O440 2.294 . S
In429 O441 2.326 . S
O430 In429 2.294 . S
O430 C439 1.240 . S
O431 In429 2.326 . S
O431 C439 1.252 . S
C432 O435 1.252 . S
C432 O436 1.260 . S
C433 O440 1.240 . S
C433 O441 1.252 . S
C434 O437 1.252 . S
C434 O438 1.260 . S
O435 In429 2.266 . S
O435 C432 1.252 . S
O436 In429 2.326 . S
O436 C432 1.260 . S
O437 In429 2.266 . S
O437 C434 1.252 . S
O438 In429 2.326 . S
O438 C434 1.260 . S
C439 O430 1.240 . S
C439 O431 1.252 . S
O440 In429 2.294 . S
O440 C433 1.240 . S
O441 In429 2.326 . S
O441 C433 1.252 . S
In442 O443 2.294 . S
In442 O444 2.326 . S
In442 O448 2.266 . S
In442 O449 2.326 . S
In442 O450 2.266 . S
In442 O451 2.326 . S
In442 O453 2.294 . S
In442 O454 2.326 . S
O443 In442 2.294 . S
O443 C452 1.240 . S
O444 In442 2.326 . S
O444 C452 1.252 . S
C445 O448 1.252 . S
C445 O449 1.260 . S
C446 O453 1.240 . S
C446 O454 1.252 . S
C447 O450 1.252 . S
C447 O451 1.260 . S
O448 In442 2.266 . S
O448 C445 1.252 . S
O449 In442 2.326 . S
O449 C445 1.260 . S
O450 In442 2.266 . S
O450 C447 1.252 . S
O451 In442 2.326 . S
O451 C447 1.260 . S
C452 O443 1.240 . S
C452 O444 1.252 . S
O453 In442 2.294 . S
O453 C446 1.240 . S
O454 In442 2.326 . S
O454 C446 1.252 . S
In455 O456 2.294 . S
In455 O457 2.326 . S
In455 O461 2.266 . S
In455 O462 2.326 . S
In455 O463 2.266 . S
In455 O464 2.326 . S
In455 O466 2.294 . S
In455 O467 2.326 . S
O456 In455 2.294 . S
O456 C465 1.240 . S
O457 In455 2.326 . S
O457 C465 1.252 . S
C458 O461 1.252 . S
C458 O462 1.260 . S
C459 O466 1.240 . S
C459 O467 1.252 . S
C460 O463 1.252 . S
C460 O464 1.260 . S
O461 In455 2.266 . S
O461 C458 1.252 . S
O462 In455 2.326 . S
O462 C458 1.260 . S
O463 In455 2.266 . S
O463 C460 1.252 . S
O464 In455 2.326 . S
O464 C460 1.260 . S
C465 O456 1.240 . S
C465 O457 1.252 . S
O466 In455 2.294 . S
O466 C459 1.240 . S
O467 In455 2.326 . S
O467 C459 1.252 . S
H468 C474 0.930 . S
H469 C478 0.930 . S
H470 C483 0.929 . S
H471 C481 0.929 . S
H472 C476 0.929 . S
H473 C482 0.929 . S
C474 H468 0.930 . S
C474 C475 1.367 . S
C474 C482 1.378 . S
C475 C474 1.367 . S
C475 C483 1.433 . S
C476 H472 0.929 . S
C476 C478 1.378 . S
C476 C480 1.350 . S
C477 C480 1.463 . S
C477 C482 1.350 . S
C477 N485 1.427 . S
C478 H469 0.930 . S
C478 C476 1.378 . S
C478 C479 1.367 . S
C479 C478 1.367 . S
C479 C481 1.433 . S
C480 C476 1.350 . S
C480 C477 1.463 . S
C480 N484 1.427 . S
C481 H471 0.929 . S
C481 C479 1.433 . S
C481 N484 1.384 . S
C482 H473 0.929 . S
C482 C474 1.378 . S
C482 C477 1.350 . S
C483 H470 0.929 . S
C483 C475 1.433 . S
C483 N485 1.384 . S
N484 C480 1.427 . S
N484 C481 1.384 . S
N485 C477 1.427 . S
N485 C483 1.384 . S
H486 C492 0.930 . S
H487 C496 0.930 . S
H488 C501 0.929 . S
H489 C499 0.929 . S
H490 C494 0.929 . S
H491 C500 0.929 . S
C492 H486 0.930 . S
C492 C493 1.367 . S
C492 C500 1.378 . S
C493 C492 1.367 . S
C493 C501 1.433 . S
C494 H490 0.929 . S
C494 C496 1.378 . S
C494 C498 1.350 . S
C495 C498 1.463 . S
C495 C500 1.350 . S
C495 N503 1.427 . S
C496 H487 0.930 . S
C496 C494 1.378 . S
C496 C497 1.367 . S
C497 C496 1.367 . S
C497 C499 1.433 . S
C498 C494 1.350 . S
C498 C495 1.463 . S
C498 N502 1.427 . S
C499 H489 0.929 . S
C499 C497 1.433 . S
C499 N502 1.384 . S
C500 H491 0.929 . S
C500 C492 1.378 . S
C500 C495 1.350 . S
C501 H488 0.929 . S
C501 C493 1.433 . S
C501 N503 1.384 . S
N502 C498 1.427 . S
N502 C499 1.384 . S
N503 C495 1.427 . S
N503 C501 1.384 . S
H504 C510 0.930 . S
H505 C514 0.930 . S
H506 C519 0.929 . S
H507 C517 0.929 . S
H508 C512 0.929 . S
H509 C518 0.929 . S
C510 H504 0.930 . S
C510 C511 1.367 . S
C510 C518 1.378 . S
C511 C510 1.367 . S
C511 C519 1.433 . S
C512 H508 0.929 . S
C512 C514 1.378 . S
C512 C516 1.350 . S
C513 C516 1.463 . S
C513 C518 1.350 . S
C513 N521 1.427 . S
C514 H505 0.930 . S
C514 C512 1.378 . S
C514 C515 1.367 . S
C515 C514 1.367 . S
C515 C517 1.433 . S
C516 C512 1.350 . S
C516 C513 1.463 . S
C516 N520 1.427 . S
C517 H507 0.929 . S
C517 C515 1.433 . S
C517 N520 1.384 . S
C518 H509 0.929 . S
C518 C510 1.378 . S
C518 C513 1.350 . S
C519 H506 0.929 . S
C519 C511 1.433 . S
C519 N521 1.384 . S
N520 C516 1.427 . S
N520 C517 1.384 . S
N521 C513 1.427 . S
N521 C519 1.384 . S
H522 C528 0.930 . S
H523 C532 0.930 . S
H524 C537 0.929 . S
H525 C535 0.929 . S
H526 C530 0.929 . S
H527 C536 0.929 . S
C528 H522 0.930 . S
C528 C529 1.367 . S
C528 C536 1.378 . S
C529 C528 1.367 . S
C529 C537 1.433 . S
C530 H526 0.929 . S
C530 C532 1.378 . S
C530 C534 1.350 . S
C531 C534 1.463 . S
C531 C536 1.350 . S
C531 N539 1.427 . S
C532 H523 0.930 . S
C532 C530 1.378 . S
C532 C533 1.367 . S
C533 C532 1.367 . S
C533 C535 1.433 . S
C534 C530 1.350 . S
C534 C531 1.463 . S
C534 N538 1.427 . S
C535 H525 0.929 . S
C535 C533 1.433 . S
C535 N538 1.384 . S
C536 H527 0.929 . S
C536 C528 1.378 . S
C536 C531 1.350 . S
C537 H524 0.929 . S
C537 C529 1.433 . S
C537 N539 1.384 . S
N538 C534 1.427 . S
N538 C535 1.384 . S
N539 C531 1.427 . S
N539 C537 1.384 . S
H540 C546 0.930 . S
H541 C550 0.930 . S
H542 C555 0.929 . S
H543 C553 0.929 . S
H544 C548 0.929 . S
H545 C554 0.929 . S
C546 H540 0.930 . S
C546 C547 1.367 . S
C546 C554 1.378 . S
C547 C546 1.367 . S
C547 C555 1.433 . S
C548 H544 0.929 . S
C548 C550 1.378 . S
C548 C552 1.350 . S
C549 C552 1.463 . S
C549 C554 1.350 . S
C549 N557 1.427 . S
C550 H541 0.930 . S
C550 C548 1.378 . S
C550 C551 1.367 . S
C551 C550 1.367 . S
C551 C553 1.433 . S
C552 C548 1.350 . S
C552 C549 1.463 . S
C552 N556 1.427 . S
C553 H543 0.929 . S
C553 C551 1.433 . S
C553 N556 1.384 . S
C554 H545 0.929 . S
C554 C546 1.378 . S
C554 C549 1.350 . S
C555 H542 0.929 . S
C555 C547 1.433 . S
C555 N557 1.384 . S
N556 C552 1.427 . S
N556 C553 1.384 . S
N557 C549 1.427 . S
N557 C555 1.384 . S
H558 C564 0.930 . S
H559 C568 0.930 . S
H560 C573 0.929 . S
H561 C571 0.929 . S
H562 C566 0.929 . S
H563 C572 0.929 . S
C564 H558 0.930 . S
C564 C565 1.367 . S
C564 C572 1.378 . S
C565 C564 1.367 . S
C565 C573 1.433 . S
C566 H562 0.929 . S
C566 C568 1.378 . S
C566 C570 1.350 . S
C567 C570 1.463 . S
C567 C572 1.350 . S
C567 N575 1.427 . S
C568 H559 0.930 . S
C568 C566 1.378 . S
C568 C569 1.367 . S
C569 C568 1.367 . S
C569 C571 1.433 . S
C570 C566 1.350 . S
C570 C567 1.463 . S
C570 N574 1.427 . S
C571 H561 0.929 . S
C571 C569 1.433 . S
C571 N574 1.384 . S
C572 H563 0.929 . S
C572 C564 1.378 . S
C572 C567 1.350 . S
C573 H560 0.929 . S
C573 C565 1.433 . S
C573 N575 1.384 . S
N574 C570 1.427 . S
N574 C571 1.384 . S
N575 C567 1.427 . S
N575 C573 1.384 . S
H576 C582 0.930 . S
H577 C586 0.930 . S
H578 C591 0.929 . S
H579 C589 0.929 . S
H580 C584 0.929 . S
H581 C590 0.929 . S
C582 H576 0.930 . S
C582 C583 1.367 . S
C582 C590 1.378 . S
C583 C582 1.367 . S
C583 C591 1.433 . S
C584 H580 0.929 . S
C584 C586 1.378 . S
C584 C588 1.350 . S
C585 C588 1.463 . S
C585 C590 1.350 . S
C585 N593 1.427 . S
C586 H577 0.930 . S
C586 C584 1.378 . S
C586 C587 1.367 . S
C587 C586 1.367 . S
C587 C589 1.433 . S
C588 C584 1.350 . S
C588 C585 1.463 . S
C588 N592 1.427 . S
C589 H579 0.929 . S
C589 C587 1.433 . S
C589 N592 1.384 . S
C590 H581 0.929 . S
C590 C582 1.378 . S
C590 C585 1.350 . S
C591 H578 0.929 . S
C591 C583 1.433 . S
C591 N593 1.384 . S
N592 C588 1.427 . S
N592 C589 1.384 . S
N593 C585 1.427 . S
N593 C591 1.384 . S
H594 C600 0.930 . S
H595 C604 0.930 . S
H596 C609 0.929 . S
H597 C607 0.929 . S
H598 C602 0.929 . S
H599 C608 0.929 . S
C600 H594 0.930 . S
C600 C601 1.367 . S
C600 C608 1.378 . S
C601 C600 1.367 . S
C601 C609 1.433 . S
C602 H598 0.929 . S
C602 C604 1.378 . S
C602 C606 1.350 . S
C603 C606 1.463 . S
C603 C608 1.350 . S
C603 N611 1.427 . S
C604 H595 0.930 . S
C604 C602 1.378 . S
C604 C605 1.367 . S
C605 C604 1.367 . S
C605 C607 1.433 . S
C606 C602 1.350 . S
C606 C603 1.463 . S
C606 N610 1.427 . S
C607 H597 0.929 . S
C607 C605 1.433 . S
C607 N610 1.384 . S
C608 H599 0.929 . S
C608 C600 1.378 . S
C608 C603 1.350 . S
C609 H596 0.929 . S
C609 C601 1.433 . S
C609 N611 1.384 . S
N610 C606 1.427 . S
N610 C607 1.384 . S
N611 C603 1.427 . S
N611 C609 1.384 . S
H612 C618 0.930 . S
H613 C622 0.930 . S
H614 C627 0.929 . S
H615 C625 0.929 . S
H616 C620 0.929 . S
H617 C626 0.929 . S
C618 H612 0.930 . S
C618 C619 1.367 . S
C618 C626 1.378 . S
C619 C618 1.367 . S
C619 C627 1.433 . S
C620 H616 0.929 . S
C620 C622 1.378 . S
C620 C624 1.350 . S
C621 C624 1.463 . S
C621 C626 1.350 . S
C621 N629 1.427 . S
C622 H613 0.930 . S
C622 C620 1.378 . S
C622 C623 1.367 . S
C623 C622 1.367 . S
C623 C625 1.433 . S
C624 C620 1.350 . S
C624 C621 1.463 . S
C624 N628 1.427 . S
C625 H615 0.929 . S
C625 C623 1.433 . S
C625 N628 1.384 . S
C626 H617 0.929 . S
C626 C618 1.378 . S
C626 C621 1.350 . S
C627 H614 0.929 . S
C627 C619 1.433 . S
C627 N629 1.384 . S
N628 C624 1.427 . S
N628 C625 1.384 . S
N629 C621 1.427 . S
N629 C627 1.384 . S
H630 C636 0.930 . S
H631 C640 0.930 . S
H632 C645 0.929 . S
H633 C643 0.929 . S
H634 C638 0.929 . S
H635 C644 0.929 . S
C636 H630 0.930 . S
C636 C637 1.367 . S
C636 C644 1.378 . S
C637 C636 1.367 . S
C637 C645 1.433 . S
C638 H634 0.929 . S
C638 C640 1.378 . S
C638 C642 1.350 . S
C639 C642 1.463 . S
C639 C644 1.350 . S
C639 N647 1.427 . S
C640 H631 0.930 . S
C640 C638 1.378 . S
C640 C641 1.367 . S
C641 C640 1.367 . S
C641 C643 1.433 . S
C642 C638 1.350 . S
C642 C639 1.463 . S
C642 N646 1.427 . S
C643 H633 0.929 . S
C643 C641 1.433 . S
C643 N646 1.384 . S
C644 H635 0.929 . S
C644 C636 1.378 . S
C644 C639 1.350 . S
C645 H632 0.929 . S
C645 C637 1.433 . S
C645 N647 1.384 . S
N646 C642 1.427 . S
N646 C643 1.384 . S
N647 C639 1.427 . S
N647 C645 1.384 . S
H648 C654 0.930 . S
H649 C658 0.930 . S
H650 C663 0.929 . S
H651 C661 0.929 . S
H652 C656 0.929 . S
H653 C662 0.929 . S
C654 H648 0.930 . S
C654 C655 1.367 . S
C654 C662 1.378 . S
C655 C654 1.367 . S
C655 C663 1.433 . S
C656 H652 0.929 . S
C656 C658 1.378 . S
C656 C660 1.350 . S
C657 C660 1.463 . S
C657 C662 1.350 . S
C657 N665 1.427 . S
C658 H649 0.930 . S
C658 C656 1.378 . S
C658 C659 1.367 . S
C659 C658 1.367 . S
C659 C661 1.433 . S
C660 C656 1.350 . S
C660 C657 1.463 . S
C660 N664 1.427 . S
C661 H651 0.929 . S
C661 C659 1.433 . S
C661 N664 1.384 . S
C662 H653 0.929 . S
C662 C654 1.378 . S
C662 C657 1.350 . S
C663 H650 0.929 . S
C663 C655 1.433 . S
C663 N665 1.384 . S
N664 C660 1.427 . S
N664 C661 1.384 . S
N665 C657 1.427 . S
N665 C663 1.384 . S
H666 C672 0.930 . S
H667 C676 0.930 . S
H668 C681 0.929 . S
H669 C679 0.929 . S
H670 C674 0.929 . S
H671 C680 0.929 . S
C672 H666 0.930 . S
C672 C673 1.367 . S
C672 C680 1.378 . S
C673 C672 1.367 . S
C673 C681 1.433 . S
C674 H670 0.929 . S
C674 C676 1.378 . S
C674 C678 1.350 . S
C675 C678 1.463 . S
C675 C680 1.350 . S
C675 N683 1.427 . S
C676 H667 0.930 . S
C676 C674 1.378 . S
C676 C677 1.367 . S
C677 C676 1.367 . S
C677 C679 1.433 . S
C678 C674 1.350 . S
C678 C675 1.463 . S
C678 N682 1.427 . S
C679 H669 0.929 . S
C679 C677 1.433 . S
C679 N682 1.384 . S
C680 H671 0.929 . S
C680 C672 1.378 . S
C680 C675 1.350 . S
C681 H668 0.929 . S
C681 C673 1.433 . S
C681 N683 1.384 . S
N682 C678 1.427 . S
N682 C679 1.384 . S
N683 C675 1.427 . S
N683 C681 1.384 . S
H684 C690 0.930 . S
H685 C694 0.930 . S
H686 C699 0.929 . S
H687 C697 0.929 . S
H688 C692 0.929 1_455 S
H689 C698 0.929 1_655 S
C690 H684 0.930 . S
C690 C691 1.367 . S
C690 C698 1.378 . S
C691 C690 1.367 . S
C691 C699 1.433 . S
C692 H688 0.929 1_655 S
C692 C694 1.378 . S
C692 C696 1.350 . S
C693 C696 1.463 1_455 S
C693 C698 1.350 . S
C693 N701 1.427 . S
C694 H685 0.930 . S
C694 C692 1.378 . S
C694 C695 1.367 . S
C695 C694 1.367 . S
C695 C697 1.433 . S
C696 C692 1.350 . S
C696 C693 1.463 1_655 S
C696 N700 1.427 . S
C697 H687 0.929 . S
C697 C695 1.433 . S
C697 N700 1.384 . S
C698 H689 0.929 1_455 S
C698 C690 1.378 . S
C698 C693 1.350 . S
C699 H686 0.929 . S
C699 C691 1.433 . S
C699 N701 1.384 . S
N700 C696 1.427 . S
N700 C697 1.384 . S
N701 C693 1.427 . S
N701 C699 1.384 . S
H702 C708 0.930 . S
H703 C712 0.930 . S
H704 C717 0.929 . S
H705 C715 0.929 . S
H706 C710 0.929 . S
H707 C716 0.929 . S
C708 H702 0.930 . S
C708 C709 1.367 . S
C708 C716 1.378 . S
C709 C708 1.367 . S
C709 C717 1.433 . S
C710 H706 0.929 . S
C710 C712 1.378 . S
C710 C714 1.350 . S
C711 C714 1.463 . S
C711 C716 1.350 . S
C711 N719 1.427 . S
C712 H703 0.930 . S
C712 C710 1.378 . S
C712 C713 1.367 . S
C713 C712 1.367 . S
C713 C715 1.433 . S
C714 C710 1.350 . S
C714 C711 1.463 . S
C714 N718 1.427 . S
C715 H705 0.929 . S
C715 C713 1.433 . S
C715 N718 1.384 . S
C716 H707 0.929 . S
C716 C708 1.378 . S
C716 C711 1.350 . S
C717 H704 0.929 . S
C717 C709 1.433 . S
C717 N719 1.384 . S
N718 C714 1.427 . S
N718 C715 1.384 . S
N719 C711 1.427 . S
N719 C717 1.384 . S
H720 C726 0.930 . S
H721 C730 0.930 . S
H722 C735 0.929 . S
H723 C733 0.929 . S
H724 C728 0.929 . S
H725 C734 0.929 . S
C726 H720 0.930 . S
C726 C727 1.367 . S
C726 C734 1.378 . S
C727 C726 1.367 . S
C727 C735 1.433 . S
C728 H724 0.929 . S
C728 C730 1.378 . S
C728 C732 1.350 . S
C729 C732 1.463 1_545 S
C729 C734 1.350 . S
C729 N737 1.427 . S
C730 H721 0.930 . S
C730 C728 1.378 . S
C730 C731 1.367 . S
C731 C730 1.367 . S
C731 C733 1.433 . S
C732 C728 1.350 . S
C732 C729 1.463 1_565 S
C732 N736 1.427 . S
C733 H723 0.929 . S
C733 C731 1.433 . S
C733 N736 1.384 . S
C734 H725 0.929 . S
C734 C726 1.378 . S
C734 C729 1.350 . S
C735 H722 0.929 . S
C735 C727 1.433 . S
C735 N737 1.384 . S
N736 C732 1.427 . S
N736 C733 1.384 . S
N737 C729 1.427 . S
N737 C735 1.384 . S
H738 C744 0.930 . S
H739 C748 0.930 . S
H740 C753 0.929 . S
H741 C751 0.929 . S
H742 C746 0.929 . S
H743 C752 0.929 . S
C744 H738 0.930 . S
C744 C745 1.367 . S
C744 C752 1.378 . S
C745 C744 1.367 . S
C745 C753 1.433 . S
C746 H742 0.929 . S
C746 C748 1.378 . S
C746 C750 1.350 . S
C747 C750 1.463 1_564 S
C747 C752 1.350 . S
C747 N755 1.427 . S
C748 H739 0.930 . S
C748 C746 1.378 . S
C748 C749 1.367 . S
C749 C748 1.367 . S
C749 C751 1.433 . S
C750 C746 1.350 . S
C750 C747 1.463 1_546 S
C750 N754 1.427 . S
C751 H741 0.929 . S
C751 C749 1.433 . S
C751 N754 1.384 . S
C752 H743 0.929 . S
C752 C744 1.378 . S
C752 C747 1.350 . S
C753 H740 0.929 . S
C753 C745 1.433 . S
C753 N755 1.384 . S
N754 C750 1.427 . S
N754 C751 1.384 . S
N755 C747 1.427 . S
N755 C753 1.384 . S
H756 C762 0.930 . S
H757 C766 0.930 . S
H758 C771 0.929 . S
H759 C769 0.929 . S
H760 C764 0.929 . S
H761 C770 0.929 . S
C762 H756 0.930 . S
C762 C763 1.367 . S
C762 C770 1.378 . S
C763 C762 1.367 . S
C763 C771 1.433 . S
C764 H760 0.929 . S
C764 C766 1.378 . S
C764 C768 1.350 . S
C765 C768 1.463 1_656 S
C765 C770 1.350 . S
C765 N773 1.427 . S
C766 H757 0.930 . S
C766 C764 1.378 . S
C766 C767 1.367 . S
C767 C766 1.367 . S
C767 C769 1.433 . S
C768 C764 1.350 . S
C768 C765 1.463 1_454 S
C768 N772 1.427 . S
C769 H759 0.929 . S
C769 C767 1.433 . S
C769 N772 1.384 . S
C770 H761 0.929 . S
C770 C762 1.378 . S
C770 C765 1.350 . S
C771 H758 0.929 . S
C771 C763 1.433 . S
C771 N773 1.384 . S
N772 C768 1.427 . S
N772 C769 1.384 . S
N773 C765 1.427 . S
N773 C771 1.384 . S
H774 C780 0.930 . S
H775 C784 0.930 . S
H776 C789 0.929 . S
H777 C787 0.929 . S
H778 C782 0.929 . S
H779 C788 0.929 . S
C780 H774 0.930 . S
C780 C781 1.367 . S
C780 C788 1.378 . S
C781 C780 1.367 . S
C781 C789 1.433 . S
C782 H778 0.929 . S
C782 C784 1.378 . S
C782 C786 1.350 . S
C783 C786 1.463 1_556 S
C783 C788 1.350 . S
C783 N791 1.429 1_556 S
C784 H775 0.930 . S
C784 C782 1.378 . S
C784 C785 1.367 . S
C785 C784 1.367 . S
C785 C787 1.433 . S
C786 C782 1.350 . S
C786 C783 1.463 1_554 S
C786 N790 1.429 1_554 S
C787 H777 0.929 . S
C787 C785 1.433 . S
C787 N790 1.386 1_554 S
C788 H779 0.929 . S
C788 C780 1.378 . S
C788 C783 1.350 . S
C789 H776 0.929 . S
C789 C781 1.433 . S
C789 N791 1.386 1_556 S
N790 C786 1.429 1_556 S
N790 C787 1.386 1_556 S
N791 C783 1.429 1_554 S
N791 C789 1.386 1_554 S
H792 C798 0.930 . S
H793 C802 0.930 . S
H794 C807 0.929 . S
H795 C805 0.929 . S
H796 C800 0.929 . S
H797 C806 0.929 . S
C798 H792 0.930 . S
C798 C799 1.367 1_565 S
C798 C806 1.378 . S
C799 C798 1.367 1_545 S
C799 C807 1.433 . S
C800 H796 0.929 . S
C800 C802 1.378 . S
C800 C804 1.350 . S
C801 C804 1.463 . S
C801 C806 1.350 . S
C801 N809 1.427 1_565 S
C802 H793 0.930 . S
C802 C800 1.378 . S
C802 C803 1.367 . S
C803 C802 1.367 . S
C803 C805 1.433 . S
C804 C800 1.350 . S
C804 C801 1.463 . S
C804 N808 1.427 . S
C805 H795 0.929 . S
C805 C803 1.433 . S
C805 N808 1.384 . S
C806 H797 0.929 . S
C806 C798 1.378 . S
C806 C801 1.350 . S
C807 H794 0.929 . S
C807 C799 1.433 . S
C807 N809 1.384 . S
N808 C804 1.427 . S
N808 C805 1.384 . S
N809 C801 1.427 1_545 S
N809 C807 1.384 . S
H810 C816 0.930 . S
H811 C820 0.930 . S
H812 C825 0.929 . S
H813 C823 0.929 . S
H814 C818 0.929 . S
H815 C824 0.929 . S
C816 H810 0.930 . S
C816 C817 1.367 . S
C816 C824 1.378 . S
C817 C816 1.367 . S
C817 C825 1.433 . S
C818 H814 0.929 . S
C818 C820 1.378 . S
C818 C822 1.350 1_655 S
C819 C822 1.463 . S
C819 C824 1.350 . S
C819 N827 1.427 . S
C820 H811 0.930 . S
C820 C818 1.378 . S
C820 C821 1.367 . S
C821 C820 1.367 . S
C821 C823 1.433 1_655 S
C822 C818 1.350 1_455 S
C822 C819 1.463 . S
C822 N826 1.427 . S
C823 H813 0.929 . S
C823 C821 1.433 1_455 S
C823 N826 1.384 . S
C824 H815 0.929 . S
C824 C816 1.378 . S
C824 C819 1.350 . S
C825 H812 0.929 . S
C825 C817 1.433 . S
C825 N827 1.384 . S
N826 C822 1.427 . S
N826 C823 1.384 . S
N827 C819 1.427 . S
N827 C825 1.384 . S
H828 C834 0.930 . S
H829 C838 0.930 . S
H830 C843 0.929 . S
H831 C841 0.929 . S
H832 C836 0.929 . S
H833 C842 0.929 . S
C834 H828 0.930 . S
C834 C835 1.367 . S
C834 C842 1.378 . S
C835 C834 1.367 . S
C835 C843 1.433 . S
C836 H832 0.929 . S
C836 C838 1.378 . S
C836 C840 1.350 . S
C837 C840 1.463 . S
C837 C842 1.350 . S
C837 N845 1.427 . S
C838 H829 0.930 . S
C838 C836 1.378 . S
C838 C839 1.367 . S
C839 C838 1.367 . S
C839 C841 1.433 . S
C840 C836 1.350 . S
C840 C837 1.463 . S
C840 N844 1.427 . S
C841 H831 0.929 . S
C841 C839 1.433 . S
C841 N844 1.384 . S
C842 H833 0.929 . S
C842 C834 1.378 . S
C842 C837 1.350 . S
C843 H830 0.929 . S
C843 C835 1.433 . S
C843 N845 1.384 . S
N844 C840 1.427 . S
N844 C841 1.384 . S
N845 C837 1.427 . S
N845 C843 1.384 . S
H846 C852 0.930 . S
H847 C856 0.930 . S
H848 C861 0.929 . S
H849 C859 0.929 . S
H850 C854 0.929 . S
H851 C860 0.929 . S
C852 H846 0.930 . S
C852 C853 1.367 . S
C852 C860 1.378 . S
C853 C852 1.367 . S
C853 C861 1.433 . S
C854 H850 0.929 . S
C854 C856 1.378 . S
C854 C858 1.350 . S
C855 C858 1.463 . S
C855 C860 1.350 . S
C855 N863 1.427 . S
C856 H847 0.930 . S
C856 C854 1.378 . S
C856 C857 1.367 1_655 S
C857 C856 1.367 1_455 S
C857 C859 1.433 . S
C858 C854 1.350 . S
C858 C855 1.463 . S
C858 N862 1.427 1_655 S
C859 H849 0.929 . S
C859 C857 1.433 . S
C859 N862 1.384 . S
C860 H851 0.929 . S
C860 C852 1.378 . S
C860 C855 1.350 . S
C861 H848 0.929 . S
C861 C853 1.433 . S
C861 N863 1.384 . S
N862 C858 1.427 1_455 S
N862 C859 1.384 . S
N863 C855 1.427 . S
N863 C861 1.384 . S
H864 C870 0.930 . S
H865 C874 0.930 . S
H866 C879 0.929 . S
H867 C877 0.929 . S
H868 C872 0.929 . S
H869 C878 0.929 . S
C870 H864 0.930 . S
C870 C871 1.367 . S
C870 C878 1.378 . S
C871 C870 1.367 . S
C871 C879 1.433 . S
C872 H868 0.929 . S
C872 C874 1.378 . S
C872 C876 1.350 . S
C873 C876 1.463 . S
C873 C878 1.350 . S
C873 N881 1.427 . S
C874 H865 0.930 . S
C874 C872 1.378 . S
C874 C875 1.367 . S
C875 C874 1.367 . S
C875 C877 1.433 . S
C876 C872 1.350 . S
C876 C873 1.463 . S
C876 N880 1.427 . S
C877 H867 0.929 . S
C877 C875 1.433 . S
C877 N880 1.384 . S
C878 H869 0.929 . S
C878 C870 1.378 . S
C878 C873 1.350 . S
C879 H866 0.929 . S
C879 C871 1.433 . S
C879 N881 1.384 . S
N880 C876 1.427 . S
N880 C877 1.384 . S
N881 C873 1.427 . S
N881 C879 1.384 . S
H882 C888 0.930 . S
H883 C892 0.930 . S
H884 C897 0.929 . S
H885 C895 0.929 . S
H886 C890 0.929 . S
H887 C896 0.929 . S
C888 H882 0.930 . S
C888 C889 1.367 . S
C888 C896 1.378 . S
C889 C888 1.367 . S
C889 C897 1.433 . S
C890 H886 0.929 . S
C890 C892 1.378 . S
C890 C894 1.350 1_565 S
C891 C894 1.463 . S
C891 C896 1.350 . S
C891 N899 1.427 . S
C892 H883 0.930 . S
C892 C890 1.378 . S
C892 C893 1.367 . S
C893 C892 1.367 . S
C893 C895 1.433 1_565 S
C894 C890 1.350 1_545 S
C894 C891 1.463 . S
C894 N898 1.427 . S
C895 H885 0.929 . S
C895 C893 1.433 1_545 S
C895 N898 1.384 . S
C896 H887 0.929 . S
C896 C888 1.378 . S
C896 C891 1.350 . S
C897 H884 0.929 . S
C897 C889 1.433 . S
C897 N899 1.384 . S
N898 C894 1.427 . S
N898 C895 1.384 . S
N899 C891 1.427 . S
N899 C897 1.384 . S
H900 C906 0.930 . S
H901 C910 0.930 . S
H902 C915 0.929 . S
H903 C913 0.929 . S
H904 C908 0.929 . S
H905 C914 0.929 . S
C906 H900 0.930 . S
C906 C907 1.367 . S
C906 C914 1.378 . S
C907 C906 1.367 . S
C907 C915 1.433 1_565 S
C908 H904 0.929 . S
C908 C910 1.378 . S
C908 C912 1.350 . S
C909 C912 1.463 . S
C909 C914 1.350 1_545 S
C909 N917 1.427 . S
C910 H901 0.930 . S
C910 C908 1.378 . S
C910 C911 1.367 . S
C911 C910 1.367 . S
C911 C913 1.433 . S
C912 C908 1.350 . S
C912 C909 1.463 . S
C912 N916 1.427 . S
C913 H903 0.929 . S
C913 C911 1.433 . S
C913 N916 1.384 . S
C914 H905 0.929 . S
C914 C906 1.378 . S
C914 C909 1.350 1_565 S
C915 H902 0.929 . S
C915 C907 1.433 1_545 S
C915 N917 1.384 . S
N916 C912 1.427 . S
N916 C913 1.384 . S
N917 C909 1.427 . S
N917 C915 1.384 . S
H918 C924 0.930 . S
H919 C928 0.930 . S
H920 C933 0.929 . S
H921 C931 0.929 . S
H922 C926 0.929 . S
H923 C932 0.929 1_455 S
C924 H918 0.930 . S
C924 C925 1.367 . S
C924 C932 1.378 . S
C925 C924 1.367 . S
C925 C933 1.433 . S
C926 H922 0.929 . S
C926 C928 1.378 . S
C926 C930 1.350 . S
C927 C930 1.463 . S
C927 C932 1.350 . S
C927 N935 1.427 . S
C928 H919 0.930 . S
C928 C926 1.378 . S
C928 C929 1.367 1_655 S
C929 C928 1.367 1_455 S
C929 C931 1.433 . S
C930 C926 1.350 . S
C930 C927 1.463 . S
C930 N934 1.427 1_655 S
C931 H921 0.929 . S
C931 C929 1.433 . S
C931 N934 1.384 . S
C932 H923 0.929 1_655 S
C932 C924 1.378 . S
C932 C927 1.350 . S
C933 H920 0.929 . S
C933 C925 1.433 . S
C933 N935 1.384 . S
N934 C930 1.427 1_455 S
N934 C931 1.384 . S
N935 C927 1.427 . S
N935 C933 1.384 . S
H936 C942 0.930 . S
H937 C946 0.930 . S
H938 C951 0.929 . S
H939 C949 0.929 . S
H940 C944 0.929 . S
H941 C950 0.929 . S
C942 H936 0.930 . S
C942 C943 1.367 . S
C942 C950 1.378 . S
C943 C942 1.367 . S
C943 C951 1.433 . S
C944 H940 0.929 . S
C944 C946 1.378 . S
C944 C948 1.350 . S
C945 C948 1.463 . S
C945 C950 1.350 . S
C945 N953 1.427 . S
C946 H937 0.930 . S
C946 C944 1.378 . S
C946 C947 1.367 . S
C947 C946 1.367 . S
C947 C949 1.433 . S
C948 C944 1.350 . S
C948 C945 1.463 . S
C948 N952 1.427 . S
C949 H939 0.929 . S
C949 C947 1.433 . S
C949 N952 1.384 . S
C950 H941 0.929 . S
C950 C942 1.378 . S
C950 C945 1.350 . S
C951 H938 0.929 . S
C951 C943 1.433 . S
C951 N953 1.384 . S
N952 C948 1.427 . S
N952 C949 1.384 . S
N953 C945 1.427 . S
N953 C951 1.384 . S
H954 C960 0.930 . S
H955 C964 0.930 . S
H956 C969 0.929 . S
H957 C967 0.929 . S
H958 C962 0.929 . S
H959 C968 0.929 . S
C960 H954 0.930 . S
C960 C961 1.367 1_455 S
C960 C968 1.378 . S
C961 C960 1.367 1_655 S
C961 C969 1.433 . S
C962 H958 0.929 . S
C962 C964 1.378 . S
C962 C966 1.350 . S
C963 C966 1.463 . S
C963 C968 1.350 . S
C963 N971 1.427 1_455 S
C964 H955 0.930 . S
C964 C962 1.378 . S
C964 C965 1.367 . S
C965 C964 1.367 . S
C965 C967 1.433 . S
C966 C962 1.350 . S
C966 C963 1.463 . S
C966 N970 1.427 . S
C967 H957 0.929 . S
C967 C965 1.433 . S
C967 N970 1.384 . S
C968 H959 0.929 . S
C968 C960 1.378 . S
C968 C963 1.350 . S
C969 H956 0.929 . S
C969 C961 1.433 . S
C969 N971 1.384 . S
N970 C966 1.427 . S
N970 C967 1.384 . S
N971 C963 1.427 1_655 S
N971 C969 1.384 . S
H972 C978 0.930 . S
H973 C982 0.930 . S
H974 C987 0.929 . S
H975 C985 0.929 . S
H976 C980 0.929 . S
H977 C986 0.929 . S
C978 H972 0.930 . S
C978 C979 1.367 . S
C978 C986 1.378 . S
C979 C978 1.367 . S
C979 C987 1.433 . S
C980 H976 0.929 . S
C980 C982 1.378 . S
C980 C984 1.350 . S
C981 C984 1.463 . S
C981 C986 1.350 . S
C981 N989 1.427 . S
C982 H973 0.930 . S
C982 C980 1.378 . S
C982 C983 1.367 . S
C983 C982 1.367 . S
C983 C985 1.433 . S
C984 C980 1.350 . S
C984 C981 1.463 . S
C984 N988 1.427 . S
C985 H975 0.929 . S
C985 C983 1.433 . S
C985 N988 1.384 . S
C986 H977 0.929 . S
C986 C978 1.378 . S
C986 C981 1.350 . S
C987 H974 0.929 . S
C987 C979 1.433 . S
C987 N989 1.384 . S
N988 C984 1.427 . S
N988 C985 1.384 . S
N989 C981 1.427 . S
N989 C987 1.384 . S
H990 C996 0.930 . S
H991 C1000 0.930 . S
H992 C1005 0.929 . S
H993 C1003 0.929 . S
H994 C998 0.929 . S
H995 C1004 0.920 1_545 S
C996 H990 0.930 . S
C996 C997 1.367 . S
C996 C1004 1.378 1_545 S
C997 C996 1.367 . S
C997 C1005 1.433 1_545 S
C998 H994 0.929 . S
C998 C1000 1.378 . S
C998 C1002 1.350 . S
C999 C1002 1.463 . S
C999 C1004 1.359 . S
C999 N1007 1.427 . S
C1000 H991 0.930 . S
C1000 C998 1.378 . S
C1000 C1001 1.367 . S
C1001 C1000 1.367 . S
C1001 C1003 1.433 . S
C1002 C998 1.350 . S
C1002 C999 1.463 . S
C1002 N1006 1.427 . S
C1003 H993 0.929 . S
C1003 C1001 1.433 . S
C1003 N1006 1.384 . S
C1004 H995 0.920 1_565 S
C1004 C996 1.378 1_565 S
C1004 C999 1.359 . S
C1005 H992 0.929 . S
C1005 C997 1.433 1_565 S
C1005 N1007 1.384 . S
N1006 C1002 1.427 . S
N1006 C1003 1.384 . S
N1007 C999 1.427 . S
N1007 C1005 1.384 . S
H1008 C1014 0.930 . S
H1009 C1018 0.930 . S
H1010 C1023 0.929 . S
H1011 C1021 0.929 . S
H1012 C1016 0.929 . S
H1013 C1022 0.929 . S
C1014 H1008 0.930 . S
C1014 C1015 1.367 . S
C1014 C1022 1.378 . S
C1015 C1014 1.367 . S
C1015 C1023 1.433 . S
C1016 H1012 0.929 . S
C1016 C1018 1.378 . S
C1016 C1020 1.350 . S
C1017 C1020 1.463 . S
C1017 C1022 1.350 . S
C1017 N1025 1.427 . S
C1018 H1009 0.930 . S
C1018 C1016 1.378 . S
C1018 C1019 1.367 . S
C1019 C1018 1.367 . S
C1019 C1021 1.433 . S
C1020 C1016 1.350 . S
C1020 C1017 1.463 . S
C1020 N1024 1.427 . S
C1021 H1011 0.929 . S
C1021 C1019 1.433 . S
C1021 N1024 1.384 . S
C1022 H1013 0.929 . S
C1022 C1014 1.378 . S
C1022 C1017 1.350 . S
C1023 H1010 0.929 . S
C1023 C1015 1.433 . S
C1023 N1025 1.384 . S
N1024 C1020 1.427 . S
N1024 C1021 1.384 . S
N1025 C1017 1.427 . S
N1025 C1023 1.384 . S
H1026 C1032 0.930 . S
H1027 C1036 0.930 . S
H1028 C1041 0.929 . S
H1029 C1039 0.929 . S
H1030 C1034 0.929 . S
H1031 C1040 0.929 . S
C1032 H1026 0.930 . S
C1032 C1033 1.367 . S
C1032 C1040 1.378 . S
C1033 C1032 1.367 . S
C1033 C1041 1.433 . S
C1034 H1030 0.929 . S
C1034 C1036 1.378 . S
C1034 C1038 1.350 . S
C1035 C1038 1.463 1_545 S
C1035 C1040 1.350 . S
C1035 N1043 1.427 . S
C1036 H1027 0.930 . S
C1036 C1034 1.378 . S
C1036 C1037 1.367 . S
C1037 C1036 1.367 . S
C1037 C1039 1.433 . S
C1038 C1034 1.350 . S
C1038 C1035 1.463 1_565 S
C1038 N1042 1.427 . S
C1039 H1029 0.929 . S
C1039 C1037 1.433 . S
C1039 N1042 1.384 . S
C1040 H1031 0.929 . S
C1040 C1032 1.378 . S
C1040 C1035 1.350 . S
C1041 H1028 0.929 . S
C1041 C1033 1.433 . S
C1041 N1043 1.384 . S
N1042 C1038 1.427 . S
N1042 C1039 1.384 . S
N1043 C1035 1.427 . S
N1043 C1041 1.384 . S
H1044 C1050 0.930 . S
H1045 C1054 0.930 . S
H1046 C1059 0.929 . S
H1047 C1057 0.929 . S
H1048 C1052 0.929 . S
H1049 C1058 0.929 . S
C1050 H1044 0.930 . S
C1050 C1051 1.367 . S
C1050 C1058 1.378 . S
C1051 C1050 1.367 . S
C1051 C1059 1.433 . S
C1052 H1048 0.929 . S
C1052 C1054 1.378 . S
C1052 C1056 1.350 . S
C1053 C1056 1.463 1_655 S
C1053 C1058 1.350 . S
C1053 N1061 1.427 . S
C1054 H1045 0.930 . S
C1054 C1052 1.378 . S
C1054 C1055 1.367 . S
C1055 C1054 1.367 . S
C1055 C1057 1.433 . S
C1056 C1052 1.350 . S
C1056 C1053 1.463 1_455 S
C1056 N1060 1.427 . S
C1057 H1047 0.929 . S
C1057 C1055 1.433 . S
C1057 N1060 1.384 . S
C1058 H1049 0.929 . S
C1058 C1050 1.378 . S
C1058 C1053 1.350 . S
C1059 H1046 0.929 . S
C1059 C1051 1.433 . S
C1059 N1061 1.384 . S
N1060 C1056 1.427 . S
N1060 C1057 1.384 . S
N1061 C1053 1.427 . S
N1061 C1059 1.384 . S
H1062 C1068 0.930 . S
H1063 C1072 0.930 . S
H1064 C1077 0.929 . S
H1065 C1075 0.929 . S
H1066 C1070 0.929 . S
H1067 C1076 0.929 . S
C1068 H1062 0.930 . S
C1068 C1069 1.367 . S
C1068 C1076 1.378 . S
C1069 C1068 1.367 . S
C1069 C1077 1.433 . S
C1070 H1066 0.929 . S
C1070 C1072 1.378 . S
C1070 C1074 1.350 . S
C1071 C1074 1.463 . S
C1071 C1076 1.350 . S
C1071 N1079 1.427 . S
C1072 H1063 0.930 . S
C1072 C1070 1.378 . S
C1072 C1073 1.367 . S
C1073 C1072 1.367 . S
C1073 C1075 1.433 . S
C1074 C1070 1.350 . S
C1074 C1071 1.463 . S
C1074 N1078 1.427 . S
C1075 H1065 0.929 . S
C1075 C1073 1.433 . S
C1075 N1078 1.384 . S
C1076 H1067 0.929 . S
C1076 C1068 1.378 . S
C1076 C1071 1.350 . S
C1077 H1064 0.929 . S
C1077 C1069 1.433 . S
C1077 N1079 1.384 . S
N1078 C1074 1.427 . S
N1078 C1075 1.384 . S
N1079 C1071 1.427 . S
N1079 C1077 1.384 . S
H1080 C1086 0.930 . S
H1081 C1090 0.930 . S
H1082 C1095 0.929 . S
H1083 C1093 0.929 . S
H1084 C1088 0.929 . S
H1085 C1094 0.929 . S
C1086 H1080 0.930 . S
C1086 C1087 1.367 . S
C1086 C1094 1.378 . S
C1087 C1086 1.367 . S
C1087 C1095 1.433 . S
C1088 H1084 0.929 . S
C1088 C1090 1.378 . S
C1088 C1092 1.350 . S
C1089 C1092 1.463 1_565 S
C1089 C1094 1.350 . S
C1089 N1097 1.427 . S
C1090 H1081 0.930 . S
C1090 C1088 1.378 . S
C1090 C1091 1.367 . S
C1091 C1090 1.367 . S
C1091 C1093 1.433 . S
C1092 C1088 1.350 . S
C1092 C1089 1.463 1_545 S
C1092 N1096 1.427 . S
C1093 H1083 0.929 . S
C1093 C1091 1.433 . S
C1093 N1096 1.384 . S
C1094 H1085 0.929 . S
C1094 C1086 1.378 . S
C1094 C1089 1.350 . S
C1095 H1082 0.929 . S
C1095 C1087 1.433 . S
C1095 N1097 1.384 . S
N1096 C1092 1.427 . S
N1096 C1093 1.384 . S
N1097 C1089 1.427 . S
N1097 C1095 1.384 . S
H1098 C1104 0.930 . S
H1099 C1108 0.930 . S
H1100 C1113 0.929 . S
H1101 C1111 0.929 . S
H1102 C1106 0.929 . S
H1103 C1112 0.929 . S
C1104 H1098 0.930 . S
C1104 C1105 1.367 . S
C1104 C1112 1.378 . S
C1105 C1104 1.367 . S
C1105 C1113 1.433 . S
C1106 H1102 0.929 . S
C1106 C1108 1.378 . S
C1106 C1110 1.350 . S
C1107 C1110 1.463 1_655 S
C1107 C1112 1.350 . S
C1107 N1115 1.427 . S
C1108 H1099 0.930 . S
C1108 C1106 1.378 . S
C1108 C1109 1.367 . S
C1109 C1108 1.367 . S
C1109 C1111 1.433 . S
C1110 C1106 1.350 . S
C1110 C1107 1.463 1_455 S
C1110 N1114 1.427 . S
C1111 H1101 0.929 . S
C1111 C1109 1.433 . S
C1111 N1114 1.384 . S
C1112 H1103 0.929 . S
C1112 C1104 1.378 . S
C1112 C1107 1.350 . S
C1113 H1100 0.929 . S
C1113 C1105 1.433 . S
C1113 N1115 1.384 . S
N1114 C1110 1.427 . S
N1114 C1111 1.384 . S
N1115 C1107 1.427 . S
N1115 C1113 1.384 . S
H1116 C1122 0.930 . S
H1117 C1126 0.930 . S
H1118 C1131 0.929 1_655 S
H1119 C1129 0.929 . S
H1120 C1124 0.929 . S
H1121 C1130 0.929 . S
C1122 H1116 0.930 . S
C1122 C1123 1.367 . S
C1122 C1130 1.378 . S
C1123 C1122 1.367 . S
C1123 C1131 1.433 . S
C1124 H1120 0.929 . S
C1124 C1126 1.378 . S
C1124 C1128 1.350 . S
C1125 C1128 1.463 . S
C1125 C1130 1.350 . S
C1125 N1133 1.427 . S
C1126 H1117 0.930 . S
C1126 C1124 1.378 . S
C1126 C1127 1.367 . S
C1127 C1126 1.367 . S
C1127 C1129 1.433 . S
C1128 C1124 1.350 . S
C1128 C1125 1.463 . S
C1128 N1132 1.427 . S
C1129 H1119 0.929 . S
C1129 C1127 1.433 . S
C1129 N1132 1.384 . S
C1130 H1121 0.929 . S
C1130 C1122 1.378 . S
C1130 C1125 1.350 . S
C1131 H1118 0.929 1_455 S
C1131 C1123 1.433 . S
C1131 N1133 1.384 . S
N1132 C1128 1.427 . S
N1132 C1129 1.384 . S
N1133 C1125 1.427 . S
N1133 C1131 1.384 . S
H1134 C1140 0.930 . S
H1135 C1144 0.930 . S
H1136 C1149 0.929 . S
H1137 C1147 0.929 . S
H1138 C1142 0.929 . S
H1139 C1148 0.943 . S
C1140 H1134 0.930 . S
C1140 C1141 1.367 . S
C1140 C1148 1.354 1_545 S
C1141 C1140 1.367 . S
C1141 C1149 1.433 . S
C1142 H1138 0.929 . S
C1142 C1144 1.378 . S
C1142 C1146 1.350 . S
C1143 C1146 1.463 . S
C1143 C1148 1.360 . S
C1143 N1151 1.427 1_565 S
C1144 H1135 0.930 . S
C1144 C1142 1.378 . S
C1144 C1145 1.367 . S
C1145 C1144 1.367 . S
C1145 C1147 1.433 . S
C1146 C1142 1.350 . S
C1146 C1143 1.463 . S
C1146 N1150 1.427 . S
C1147 H1137 0.929 . S
C1147 C1145 1.433 . S
C1147 N1150 1.384 . S
C1148 H1139 0.943 . S
C1148 C1140 1.354 1_565 S
C1148 C1143 1.360 . S
C1149 H1136 0.929 . S
C1149 C1141 1.433 . S
C1149 N1151 1.384 . S
N1150 C1146 1.427 . S
N1150 C1147 1.384 . S
N1151 C1143 1.427 1_545 S
N1151 C1149 1.384 . S
H1152 C1158 0.930 . S
H1153 C1162 0.930 . S
H1154 C1167 0.929 . S
H1155 C1165 0.929 . S
H1156 C1160 0.929 . S
H1157 C1166 0.929 . S
C1158 H1152 0.930 . S
C1158 C1159 1.367 . S
C1158 C1166 1.378 . S
C1159 C1158 1.367 . S
C1159 C1167 1.433 . S
C1160 H1156 0.929 . S
C1160 C1162 1.378 . S
C1160 C1164 1.350 . S
C1161 C1164 1.463 . S
C1161 C1166 1.350 1_455 S
C1161 N1169 1.428 . S
C1162 H1153 0.930 . S
C1162 C1160 1.378 . S
C1162 C1163 1.367 . S
C1163 C1162 1.367 . S
C1163 C1165 1.433 . S
C1164 C1160 1.350 . S
C1164 C1161 1.463 . S
C1164 N1168 1.427 . S
C1165 H1155 0.929 . S
C1165 C1163 1.433 . S
C1165 N1168 1.384 . S
C1166 H1157 0.929 . S
C1166 C1158 1.378 . S
C1166 C1161 1.350 1_655 S
C1167 H1154 0.929 . S
C1167 C1159 1.433 . S
C1167 N1169 1.365 1_655 S
N1168 C1164 1.427 . S
N1168 C1165 1.384 . S
N1169 C1161 1.428 . S
N1169 C1167 1.365 1_455 S
H1170 C1176 0.930 . S
H1171 C1180 0.930 . S
H1172 C1185 0.929 . S
H1173 C1183 0.929 . S
H1174 C1178 0.929 . S
H1175 C1184 0.929 . S
C1176 H1170 0.930 . S
C1176 C1177 1.367 . S
C1176 C1184 1.378 . S
C1177 C1176 1.367 . S
C1177 C1185 1.433 . S
C1178 H1174 0.929 . S
C1178 C1180 1.378 . S
C1178 C1182 1.350 . S
C1179 C1182 1.463 . S
C1179 C1184 1.350 . S
C1179 N1187 1.427 . S
C1180 H1171 0.930 . S
C1180 C1178 1.378 . S
C1180 C1181 1.367 . S
C1181 C1180 1.367 . S
C1181 C1183 1.433 . S
C1182 C1178 1.350 . S
C1182 C1179 1.463 . S
C1182 N1186 1.427 . S
C1183 H1173 0.929 . S
C1183 C1181 1.433 . S
C1183 N1186 1.384 . S
C1184 H1175 0.929 . S
C1184 C1176 1.378 . S
C1184 C1179 1.350 . S
C1185 H1172 0.929 . S
C1185 C1177 1.433 . S
C1185 N1187 1.384 . S
N1186 C1182 1.427 . S
N1186 C1183 1.384 . S
N1187 C1179 1.427 . S
N1187 C1185 1.384 . S
H1188 C1194 0.930 . S
H1189 C1198 0.930 . S
H1190 C1203 0.929 . S
H1191 C1201 0.929 . S
H1192 C1196 0.929 . S
H1193 C1202 0.929 . S
C1194 H1188 0.930 . S
C1194 C1195 1.367 . S
C1194 C1202 1.378 . S
C1195 C1194 1.367 . S
C1195 C1203 1.433 . S
C1196 H1192 0.929 . S
C1196 C1198 1.378 1_545 S
C1196 C1200 1.350 . S
C1197 C1200 1.463 . S
C1197 C1202 1.350 . S
C1197 N1205 1.427 . S
C1198 H1189 0.930 . S
C1198 C1196 1.378 1_565 S
C1198 C1199 1.367 . S
C1199 C1198 1.367 . S
C1199 C1201 1.433 . S
C1200 C1196 1.350 . S
C1200 C1197 1.463 . S
C1200 N1204 1.427 1_545 S
C1201 H1191 0.929 . S
C1201 C1199 1.433 . S
C1201 N1204 1.384 . S
C1202 H1193 0.929 . S
C1202 C1194 1.378 . S
C1202 C1197 1.350 . S
C1203 H1190 0.929 . S
C1203 C1195 1.433 . S
C1203 N1205 1.384 . S
N1204 C1200 1.427 1_565 S
N1204 C1201 1.384 . S
N1205 C1197 1.427 . S
N1205 C1203 1.384 . S
H1206 C1212 0.930 . S
H1207 C1216 0.930 . S
H1208 C1221 0.929 . S
H1209 C1219 0.929 . S
H1210 C1214 0.929 . S
H1211 C1220 0.929 . S
C1212 H1206 0.930 . S
C1212 C1213 1.367 . S
C1212 C1220 1.378 . S
C1213 C1212 1.367 . S
C1213 C1221 1.433 . S
C1214 H1210 0.929 . S
C1214 C1216 1.378 . S
C1214 C1218 1.350 . S
C1215 C1218 1.463 . S
C1215 C1220 1.350 1_655 S
C1215 N1223 1.427 . S
C1216 H1207 0.930 . S
C1216 C1214 1.378 . S
C1216 C1217 1.367 . S
C1217 C1216 1.367 . S
C1217 C1219 1.433 . S
C1218 C1214 1.350 . S
C1218 C1215 1.463 . S
C1218 N1222 1.427 . S
C1219 H1209 0.929 . S
C1219 C1217 1.433 . S
C1219 N1222 1.384 . S
C1220 H1211 0.929 . S
C1220 C1212 1.378 . S
C1220 C1215 1.350 1_455 S
C1221 H1208 0.929 . S
C1221 C1213 1.433 . S
C1221 N1223 1.384 1_455 S
N1222 C1218 1.427 . S
N1222 C1219 1.384 . S
N1223 C1215 1.427 . S
N1223 C1221 1.384 1_655 S
H1224 C1230 0.930 . S
H1225 C1234 0.937 . S
H1226 C1239 0.929 . S
H1227 C1237 0.929 . S
H1228 C1232 0.929 . S
H1229 C1238 0.929 . S
C1230 H1224 0.930 . S
C1230 C1231 1.367 . S
C1230 C1238 1.378 . S
C1231 C1230 1.367 . S
C1231 C1239 1.433 . S
C1232 H1228 0.929 . S
C1232 C1234 1.378 . S
C1232 C1236 1.350 . S
C1233 C1236 1.463 . S
C1233 C1238 1.350 . S
C1233 N1241 1.427 . S
C1234 H1225 0.937 . S
C1234 C1232 1.378 . S
C1234 C1235 1.367 . S
C1235 C1234 1.367 . S
C1235 C1237 1.433 . S
C1236 C1232 1.350 . S
C1236 C1233 1.463 . S
C1236 N1240 1.427 . S
C1237 H1227 0.929 . S
C1237 C1235 1.433 . S
C1237 N1240 1.384 . S
C1238 H1229 0.929 . S
C1238 C1230 1.378 . S
C1238 C1233 1.350 . S
C1239 H1226 0.929 . S
C1239 C1231 1.433 . S
C1239 N1241 1.384 . S
N1240 C1236 1.427 . S
N1240 C1237 1.384 . S
N1241 C1233 1.427 . S
N1241 C1239 1.384 . S
H1242 C1248 0.930 . S
H1243 C1252 0.930 . S
H1244 C1257 0.929 . S
H1245 C1255 0.929 . S
H1246 C1250 0.929 . S
H1247 C1256 0.929 . S
C1248 H1242 0.930 . S
C1248 C1249 1.367 . S
C1248 C1256 1.378 1_565 S
C1249 C1248 1.367 . S
C1249 C1257 1.433 . S
C1250 H1246 0.929 . S
C1250 C1252 1.378 . S
C1250 C1254 1.350 . S
C1251 C1254 1.463 . S
C1251 C1256 1.350 . S
C1251 N1259 1.427 1_545 S
C1252 H1243 0.930 . S
C1252 C1250 1.378 . S
C1252 C1253 1.367 . S
C1253 C1252 1.367 . S
C1253 C1255 1.433 . S
C1254 C1250 1.350 . S
C1254 C1251 1.463 . S
C1254 N1258 1.427 . S
C1255 H1245 0.929 . S
C1255 C1253 1.433 . S
C1255 N1258 1.384 . S
C1256 H1247 0.929 . S
C1256 C1248 1.378 1_545 S
C1256 C1251 1.350 . S
C1257 H1244 0.929 . S
C1257 C1249 1.433 . S
C1257 N1259 1.384 . S
N1258 C1254 1.427 . S
N1258 C1255 1.384 . S
N1259 C1251 1.427 1_565 S
N1259 C1257 1.384 . S
H1260 C1266 0.930 . S
H1261 C1270 0.930 . S
H1262 C1275 0.929 . S
H1263 C1273 0.929 1_565 S
H1264 C1268 0.929 . S
H1265 C1274 0.929 . S
C1266 H1260 0.930 . S
C1266 C1267 1.367 . S
C1266 C1274 1.378 . S
C1267 C1266 1.367 . S
C1267 C1275 1.433 . S
C1268 H1264 0.929 . S
C1268 C1270 1.378 . S
C1268 C1272 1.350 . S
C1269 C1272 1.463 . S
C1269 C1274 1.350 1_655 S
C1269 N1277 1.427 1_655 S
C1270 H1261 0.930 . S
C1270 C1268 1.378 . S
C1270 C1271 1.367 . S
C1271 C1270 1.367 . S
C1271 C1273 1.433 . S
C1272 C1268 1.350 . S
C1272 C1269 1.463 . S
C1272 N1276 1.427 . S
C1273 H1263 0.929 1_545 S
C1273 C1271 1.433 . S
C1273 N1276 1.384 . S
C1274 H1265 0.929 . S
C1274 C1266 1.378 . S
C1274 C1269 1.350 1_455 S
C1275 H1262 0.929 . S
C1275 C1267 1.433 . S
C1275 N1277 1.384 . S
N1276 C1272 1.427 . S
N1276 C1273 1.384 . S
N1277 C1269 1.427 1_455 S
N1277 C1275 1.384 . S
H1278 C1284 0.930 . S
H1279 C1288 0.930 . S
H1280 C1293 0.929 . S
H1281 C1291 0.929 . S
H1282 C1286 0.929 . S
H1283 C1292 0.929 . S
C1284 H1278 0.930 . S
C1284 C1285 1.367 . S
C1284 C1292 1.378 . S
C1285 C1284 1.367 . S
C1285 C1293 1.433 . S
C1286 H1282 0.929 . S
C1286 C1288 1.378 . S
C1286 C1290 1.350 . S
C1287 C1290 1.463 . S
C1287 C1292 1.350 . S
C1287 N1295 1.427 . S
C1288 H1279 0.930 . S
C1288 C1286 1.378 . S
C1288 C1289 1.367 . S
C1289 C1288 1.367 . S
C1289 C1291 1.433 . S
C1290 C1286 1.350 . S
C1290 C1287 1.463 . S
C1290 N1294 1.427 . S
C1291 H1281 0.929 . S
C1291 C1289 1.433 . S
C1291 N1294 1.384 . S
C1292 H1283 0.929 . S
C1292 C1284 1.378 . S
C1292 C1287 1.350 . S
C1293 H1280 0.929 . S
C1293 C1285 1.433 . S
C1293 N1295 1.384 . S
N1294 C1290 1.427 . S
N1294 C1291 1.384 . S
N1295 C1287 1.427 . S
N1295 C1293 1.384 . S
H1296 C1302 0.930 . S
H1297 C1306 0.930 . S
H1298 C1311 0.929 . S
H1299 C1309 0.929 . S
H1300 C1304 0.929 . S
H1301 C1310 0.929 . S
C1302 H1296 0.930 . S
C1302 C1303 1.367 . S
C1302 C1310 1.378 1_545 S
C1303 C1302 1.367 . S
C1303 C1311 1.433 . S
C1304 H1300 0.929 . S
C1304 C1306 1.378 . S
C1304 C1308 1.350 . S
C1305 C1308 1.463 . S
C1305 C1310 1.350 . S
C1305 N1313 1.427 1_565 S
C1306 H1297 0.930 . S
C1306 C1304 1.378 . S
C1306 C1307 1.367 . S
C1307 C1306 1.367 . S
C1307 C1309 1.433 . S
C1308 C1304 1.350 . S
C1308 C1305 1.463 . S
C1308 N1312 1.427 . S
C1309 H1299 0.929 . S
C1309 C1307 1.433 . S
C1309 N1312 1.384 . S
C1310 H1301 0.929 . S
C1310 C1302 1.378 1_565 S
C1310 C1305 1.350 . S
C1311 H1298 0.929 . S
C1311 C1303 1.433 . S
C1311 N1313 1.384 . S
N1312 C1308 1.427 . S
N1312 C1309 1.384 . S
N1313 C1305 1.427 1_545 S
N1313 C1311 1.384 . S
H1314 C1320 0.930 . S
H1315 C1324 0.930 . S
H1316 C1329 0.929 . S
H1317 C1327 0.929 . S
H1318 C1322 0.929 . S
H1319 C1328 0.929 . S
C1320 H1314 0.930 . S
C1320 C1321 1.367 . S
C1320 C1328 1.378 . S
C1321 C1320 1.367 . S
C1321 C1329 1.433 . S
C1322 H1318 0.929 . S
C1322 C1324 1.378 . S
C1322 C1326 1.350 1_655 S
C1323 C1326 1.463 . S
C1323 C1328 1.350 . S
C1323 N1331 1.427 . S
C1324 H1315 0.930 . S
C1324 C1322 1.378 . S
C1324 C1325 1.367 . S
C1325 C1324 1.367 . S
C1325 C1327 1.433 . S
C1326 C1322 1.350 1_455 S
C1326 C1323 1.463 . S
C1326 N1330 1.427 . S
C1327 H1317 0.929 . S
C1327 C1325 1.433 . S
C1327 N1330 1.384 1_655 S
C1328 H1319 0.929 . S
C1328 C1320 1.378 . S
C1328 C1323 1.350 . S
C1329 H1316 0.929 . S
C1329 C1321 1.433 . S
C1329 N1331 1.384 . S
N1330 C1326 1.427 . S
N1330 C1327 1.384 1_455 S
N1331 C1323 1.427 . S
N1331 C1329 1.384 . S
H1332 C1338 0.930 . S
H1333 C1342 0.930 . S
H1334 C1347 0.929 . S
H1335 C1345 0.929 . S
H1336 C1340 0.929 . S
H1337 C1346 0.929 . S
C1338 H1332 0.930 . S
C1338 C1339 1.367 . S
C1338 C1346 1.378 . S
C1339 C1338 1.367 . S
C1339 C1347 1.433 . S
C1340 H1336 0.929 . S
C1340 C1342 1.378 . S
C1340 C1344 1.350 . S
C1341 C1344 1.463 . S
C1341 C1346 1.350 . S
C1341 N1349 1.427 . S
C1342 H1333 0.930 . S
C1342 C1340 1.378 . S
C1342 C1343 1.367 . S
C1343 C1342 1.367 . S
C1343 C1345 1.433 . S
C1344 C1340 1.350 . S
C1344 C1341 1.463 . S
C1344 N1348 1.427 . S
C1345 H1335 0.929 . S
C1345 C1343 1.433 . S
C1345 N1348 1.384 . S
C1346 H1337 0.929 . S
C1346 C1338 1.378 . S
C1346 C1341 1.350 . S
C1347 H1334 0.929 . S
C1347 C1339 1.433 . S
C1347 N1349 1.384 . S
N1348 C1344 1.427 . S
N1348 C1345 1.384 . S
N1349 C1341 1.427 . S
N1349 C1347 1.384 . S
H1350 C1356 0.930 . S
H1351 C1360 0.930 . S
H1352 C1365 0.929 . S
H1353 C1363 0.929 . S
H1354 C1358 0.929 . S
H1355 C1364 0.929 . S
C1356 H1350 0.930 . S
C1356 C1357 1.367 . S
C1356 C1364 1.378 . S
C1357 C1356 1.367 . S
C1357 C1365 1.433 . S
C1358 H1354 0.929 . S
C1358 C1360 1.378 . S
C1358 C1362 1.350 . S
C1359 C1362 1.463 . S
C1359 C1364 1.350 . S
C1359 N1367 1.427 . S
C1360 H1351 0.930 . S
C1360 C1358 1.378 . S
C1360 C1361 1.367 . S
C1361 C1360 1.367 . S
C1361 C1363 1.433 . S
C1362 C1358 1.350 . S
C1362 C1359 1.463 . S
C1362 N1366 1.427 . S
C1363 H1353 0.929 . S
C1363 C1361 1.433 . S
C1363 N1366 1.384 . S
C1364 H1355 0.929 . S
C1364 C1356 1.378 . S
C1364 C1359 1.350 . S
C1365 H1352 0.929 . S
C1365 C1357 1.433 . S
C1365 N1367 1.384 . S
N1366 C1362 1.427 . S
N1366 C1363 1.384 . S
N1367 C1359 1.427 . S
N1367 C1365 1.384 . S
H1368 C1374 0.930 . S
H1369 C1378 0.930 . S
H1370 C1383 0.929 . S
H1371 C1381 0.929 . S
H1372 C1376 0.929 . S
H1373 C1382 0.929 . S
C1374 H1368 0.930 . S
C1374 C1375 1.367 . S
C1374 C1382 1.378 . S
C1375 C1374 1.367 . S
C1375 C1383 1.433 . S
C1376 H1372 0.929 . S
C1376 C1378 1.378 . S
C1376 C1380 1.350 . S
C1377 C1380 1.463 . S
C1377 C1382 1.350 . S
C1377 N1385 1.427 . S
C1378 H1369 0.930 . S
C1378 C1376 1.378 . S
C1378 C1379 1.367 . S
C1379 C1378 1.367 . S
C1379 C1381 1.433 . S
C1380 C1376 1.350 . S
C1380 C1377 1.463 . S
C1380 N1384 1.427 . S
C1381 H1371 0.929 . S
C1381 C1379 1.433 . S
C1381 N1384 1.384 . S
C1382 H1373 0.929 . S
C1382 C1374 1.378 . S
C1382 C1377 1.350 . S
C1383 H1370 0.929 . S
C1383 C1375 1.433 . S
C1383 N1385 1.384 . S
N1384 C1380 1.427 . S
N1384 C1381 1.384 . S
N1385 C1377 1.427 . S
N1385 C1383 1.384 . S
H1386 C1392 0.930 . S
H1387 C1396 0.930 . S
H1388 C1401 0.929 . S
H1389 C1399 0.929 . S
H1390 C1394 0.929 . S
H1391 C1400 0.929 . S
C1392 H1386 0.930 . S
C1392 C1393 1.367 . S
C1392 C1400 1.378 . S
C1393 C1392 1.367 . S
C1393 C1401 1.433 . S
C1394 H1390 0.929 . S
C1394 C1396 1.378 . S
C1394 C1398 1.350 . S
C1395 C1398 1.463 . S
C1395 C1400 1.350 . S
C1395 N1403 1.427 . S
C1396 H1387 0.930 . S
C1396 C1394 1.378 . S
C1396 C1397 1.367 . S
C1397 C1396 1.367 . S
C1397 C1399 1.433 . S
C1398 C1394 1.350 . S
C1398 C1395 1.463 . S
C1398 N1402 1.427 . S
C1399 H1389 0.929 . S
C1399 C1397 1.433 . S
C1399 N1402 1.384 . S
C1400 H1391 0.929 . S
C1400 C1392 1.378 . S
C1400 C1395 1.350 . S
C1401 H1388 0.929 . S
C1401 C1393 1.433 . S
C1401 N1403 1.384 . S
N1402 C1398 1.427 . S
N1402 C1399 1.384 . S
N1403 C1395 1.427 . S
N1403 C1401 1.384 . S
H1404 C1410 0.930 . S
H1405 C1414 0.930 . S
H1406 C1419 0.929 . S
H1407 C1417 0.929 . S
H1408 C1412 0.929 . S
H1409 C1418 0.929 . S
C1410 H1404 0.930 . S
C1410 C1411 1.367 . S
C1410 C1418 1.378 . S
C1411 C1410 1.367 . S
C1411 C1419 1.433 . S
C1412 H1408 0.929 . S
C1412 C1414 1.378 . S
C1412 C1416 1.350 . S
C1413 C1416 1.463 . S
C1413 C1418 1.350 . S
C1413 N1421 1.427 . S
C1414 H1405 0.930 . S
C1414 C1412 1.378 . S
C1414 C1415 1.367 . S
C1415 C1414 1.367 . S
C1415 C1417 1.433 . S
C1416 C1412 1.350 . S
C1416 C1413 1.463 . S
C1416 N1420 1.427 . S
C1417 H1407 0.929 . S
C1417 C1415 1.433 . S
C1417 N1420 1.384 . S
C1418 H1409 0.929 . S
C1418 C1410 1.378 . S
C1418 C1413 1.350 . S
C1419 H1406 0.929 . S
C1419 C1411 1.433 . S
C1419 N1421 1.384 . S
N1420 C1416 1.427 . S
N1420 C1417 1.384 . S
N1421 C1413 1.427 . S
N1421 C1419 1.384 . S
H1422 C1428 0.930 . S
H1423 C1432 0.930 . S
H1424 C1437 0.929 . S
H1425 C1435 0.929 . S
H1426 C1430 0.929 . S
H1427 C1436 0.929 . S
C1428 H1422 0.930 . S
C1428 C1429 1.367 . S
C1428 C1436 1.378 . S
C1429 C1428 1.367 . S
C1429 C1437 1.433 . S
C1430 H1426 0.929 . S
C1430 C1432 1.378 . S
C1430 C1434 1.350 . S
C1431 C1434 1.463 . S
C1431 C1436 1.350 . S
C1431 N1439 1.427 . S
C1432 H1423 0.930 . S
C1432 C1430 1.378 . S
C1432 C1433 1.367 . S
C1433 C1432 1.367 . S
C1433 C1435 1.433 . S
C1434 C1430 1.350 . S
C1434 C1431 1.463 . S
C1434 N1438 1.427 . S
C1435 H1425 0.929 . S
C1435 C1433 1.433 . S
C1435 N1438 1.384 . S
C1436 H1427 0.929 . S
C1436 C1428 1.378 . S
C1436 C1431 1.350 . S
C1437 H1424 0.929 . S
C1437 C1429 1.433 . S
C1437 N1439 1.384 . S
N1438 C1434 1.427 . S
N1438 C1435 1.384 . S
N1439 C1431 1.427 . S
N1439 C1437 1.384 . S
H1440 C1446 0.930 . S
H1441 C1450 0.930 . S
H1442 C1455 0.929 . S
H1443 C1453 0.929 . S
H1444 C1448 0.929 . S
H1445 C1454 0.929 . S
C1446 H1440 0.930 . S
C1446 C1447 1.367 . S
C1446 C1454 1.378 . S
C1447 C1446 1.367 . S
C1447 C1455 1.433 . S
C1448 H1444 0.929 . S
C1448 C1450 1.378 . S
C1448 C1452 1.350 . S
C1449 C1452 1.463 . S
C1449 C1454 1.350 . S
C1449 N1457 1.427 . S
C1450 H1441 0.930 . S
C1450 C1448 1.378 . S
C1450 C1451 1.367 . S
C1451 C1450 1.367 . S
C1451 C1453 1.433 . S
C1452 C1448 1.350 . S
C1452 C1449 1.463 . S
C1452 N1456 1.427 . S
C1453 H1443 0.929 . S
C1453 C1451 1.433 . S
C1453 N1456 1.384 . S
C1454 H1445 0.929 . S
C1454 C1446 1.378 . S
C1454 C1449 1.350 . S
C1455 H1442 0.929 . S
C1455 C1447 1.433 . S
C1455 N1457 1.384 . S
N1456 C1452 1.427 . S
N1456 C1453 1.384 . S
N1457 C1449 1.427 . S
N1457 C1455 1.384 . S
H1458 C1464 0.930 . S
H1459 C1468 0.930 . S
H1460 C1473 0.929 . S
H1461 C1471 0.929 . S
H1462 C1466 0.929 . S
H1463 C1472 0.929 . S
C1464 H1458 0.930 . S
C1464 C1465 1.367 . S
C1464 C1472 1.378 . S
C1465 C1464 1.367 . S
C1465 C1473 1.433 . S
C1466 H1462 0.929 . S
C1466 C1468 1.378 . S
C1466 C1470 1.350 . S
C1467 C1470 1.463 . S
C1467 C1472 1.350 . S
C1467 N1475 1.427 . S
C1468 H1459 0.930 . S
C1468 C1466 1.378 . S
C1468 C1469 1.367 . S
C1469 C1468 1.367 . S
C1469 C1471 1.433 . S
C1470 C1466 1.350 . S
C1470 C1467 1.463 . S
C1470 N1474 1.427 . S
C1471 H1461 0.929 . S
C1471 C1469 1.433 . S
C1471 N1474 1.384 . S
C1472 H1463 0.929 . S
C1472 C1464 1.378 . S
C1472 C1467 1.350 . S
C1473 H1460 0.929 . S
C1473 C1465 1.433 . S
C1473 N1475 1.384 . S
N1474 C1470 1.427 . S
N1474 C1471 1.384 . S
N1475 C1467 1.427 . S
N1475 C1473 1.384 . S
H1476 C1482 0.930 . S
H1477 C1486 0.930 . S
H1478 C1491 0.929 . S
H1479 C1489 0.929 . S
H1480 C1484 0.929 . S
H1481 C1490 0.929 . S
C1482 H1476 0.930 . S
C1482 C1483 1.367 . S
C1482 C1490 1.378 . S
C1483 C1482 1.367 . S
C1483 C1491 1.433 . S
C1484 H1480 0.929 . S
C1484 C1486 1.378 . S
C1484 C1488 1.350 . S
C1485 C1488 1.463 . S
C1485 C1490 1.350 . S
C1485 N1493 1.427 . S
C1486 H1477 0.930 . S
C1486 C1484 1.378 . S
C1486 C1487 1.367 . S
C1487 C1486 1.367 . S
C1487 C1489 1.433 . S
C1488 C1484 1.350 . S
C1488 C1485 1.463 . S
C1488 N1492 1.427 . S
C1489 H1479 0.929 . S
C1489 C1487 1.433 . S
C1489 N1492 1.384 . S
C1490 H1481 0.929 . S
C1490 C1482 1.378 . S
C1490 C1485 1.350 . S
C1491 H1478 0.929 . S
C1491 C1483 1.433 . S
C1491 N1493 1.384 . S
N1492 C1488 1.427 . S
N1492 C1489 1.384 . S
N1493 C1485 1.427 . S
N1493 C1491 1.384 . S
H1494 C1500 0.930 . S
H1495 C1504 0.930 . S
H1496 C1509 0.929 . S
H1497 C1507 0.929 . S
H1498 C1502 0.929 . S
H1499 C1508 0.929 . S
C1500 H1494 0.930 . S
C1500 C1501 1.367 . S
C1500 C1508 1.378 . S
C1501 C1500 1.367 . S
C1501 C1509 1.433 . S
C1502 H1498 0.929 . S
C1502 C1504 1.378 . S
C1502 C1506 1.350 . S
C1503 C1506 1.463 . S
C1503 C1508 1.350 . S
C1503 N1511 1.427 . S
C1504 H1495 0.930 . S
C1504 C1502 1.378 . S
C1504 C1505 1.367 . S
C1505 C1504 1.367 . S
C1505 C1507 1.433 . S
C1506 C1502 1.350 . S
C1506 C1503 1.463 . S
C1506 N1510 1.427 . S
C1507 H1497 0.929 . S
C1507 C1505 1.433 . S
C1507 N1510 1.384 . S
C1508 H1499 0.929 . S
C1508 C1500 1.378 . S
C1508 C1503 1.350 . S
C1509 H1496 0.929 . S
C1509 C1501 1.433 . S
C1509 N1511 1.384 . S
N1510 C1506 1.427 . S
N1510 C1507 1.384 . S
N1511 C1503 1.427 . S
N1511 C1509 1.384 . S
H1512 C1518 0.930 . S
H1513 C1522 0.930 . S
H1514 C1527 0.929 . S
H1515 C1525 0.929 . S
H1516 C1520 0.929 . S
H1517 C1526 0.929 . S
C1518 H1512 0.930 . S
C1518 C1519 1.367 . S
C1518 C1526 1.378 . S
C1519 C1518 1.367 . S
C1519 C1527 1.433 . S
C1520 H1516 0.929 . S
C1520 C1522 1.378 . S
C1520 C1524 1.350 . S
C1521 C1524 1.463 . S
C1521 C1526 1.350 . S
C1521 N1529 1.427 . S
C1522 H1513 0.930 . S
C1522 C1520 1.378 . S
C1522 C1523 1.367 . S
C1523 C1522 1.367 . S
C1523 C1525 1.433 . S
C1524 C1520 1.350 . S
C1524 C1521 1.463 . S
C1524 N1528 1.427 . S
C1525 H1515 0.929 . S
C1525 C1523 1.433 . S
C1525 N1528 1.384 . S
C1526 H1517 0.929 . S
C1526 C1518 1.378 . S
C1526 C1521 1.350 . S
C1527 H1514 0.929 . S
C1527 C1519 1.433 . S
C1527 N1529 1.384 . S
N1528 C1524 1.427 . S
N1528 C1525 1.384 . S
N1529 C1521 1.427 . S
N1529 C1527 1.384 . S
H1530 C1536 0.930 . S
H1531 C1540 0.930 . S
H1532 C1545 0.929 . S
H1533 C1543 0.929 . S
H1534 C1538 0.929 . S
H1535 C1544 0.929 . S
C1536 H1530 0.930 . S
C1536 C1537 1.367 . S
C1536 C1544 1.378 . S
C1537 C1536 1.367 . S
C1537 C1545 1.433 . S
C1538 H1534 0.929 . S
C1538 C1540 1.378 . S
C1538 C1542 1.350 . S
C1539 C1542 1.463 . S
C1539 C1544 1.350 . S
C1539 N1547 1.427 . S
C1540 H1531 0.930 . S
C1540 C1538 1.378 . S
C1540 C1541 1.367 . S
C1541 C1540 1.367 . S
C1541 C1543 1.433 . S
C1542 C1538 1.350 . S
C1542 C1539 1.463 . S
C1542 N1546 1.427 . S
C1543 H1533 0.929 . S
C1543 C1541 1.433 . S
C1543 N1546 1.384 . S
C1544 H1535 0.929 . S
C1544 C1536 1.378 . S
C1544 C1539 1.350 . S
C1545 H1532 0.929 . S
C1545 C1537 1.433 . S
C1545 N1547 1.384 . S
N1546 C1542 1.427 . S
N1546 C1543 1.384 . S
N1547 C1539 1.427 . S
N1547 C1545 1.384 . S
H1548 C1554 0.930 . S
H1549 C1558 0.930 . S
H1550 C1563 0.929 . S
H1551 C1561 0.929 . S
H1552 C1556 0.929 . S
H1553 C1562 0.929 . S
C1554 H1548 0.930 . S
C1554 C1555 1.367 . S
C1554 C1562 1.378 . S
C1555 C1554 1.367 . S
C1555 C1563 1.433 . S
C1556 H1552 0.929 . S
C1556 C1558 1.378 . S
C1556 C1560 1.350 . S
C1557 C1560 1.463 . S
C1557 C1562 1.350 . S
C1557 N1565 1.427 . S
C1558 H1549 0.930 . S
C1558 C1556 1.378 . S
C1558 C1559 1.367 . S
C1559 C1558 1.367 . S
C1559 C1561 1.433 . S
C1560 C1556 1.350 . S
C1560 C1557 1.463 . S
C1560 N1564 1.427 . S
C1561 H1551 0.929 . S
C1561 C1559 1.433 . S
C1561 N1564 1.384 . S
C1562 H1553 0.929 . S
C1562 C1554 1.378 . S
C1562 C1557 1.350 . S
C1563 H1550 0.929 . S
C1563 C1555 1.433 . S
C1563 N1565 1.384 . S
N1564 C1560 1.427 . S
N1564 C1561 1.384 . S
N1565 C1557 1.427 . S
N1565 C1563 1.384 . S
H1566 C1572 0.930 . S
H1567 C1576 0.930 . S
H1568 C1581 0.929 . S
H1569 C1579 0.929 . S
H1570 C1574 0.929 . S
H1571 C1580 0.929 . S
C1572 H1566 0.930 . S
C1572 C1573 1.367 . S
C1572 C1580 1.378 . S
C1573 C1572 1.367 . S
C1573 C1581 1.433 . S
C1574 H1570 0.929 . S
C1574 C1576 1.378 . S
C1574 C1578 1.350 . S
C1575 C1578 1.463 . S
C1575 C1580 1.350 . S
C1575 N1583 1.427 . S
C1576 H1567 0.930 . S
C1576 C1574 1.378 . S
C1576 C1577 1.367 . S
C1577 C1576 1.367 . S
C1577 C1579 1.433 . S
C1578 C1574 1.350 . S
C1578 C1575 1.463 . S
C1578 N1582 1.427 . S
C1579 H1569 0.929 . S
C1579 C1577 1.433 . S
C1579 N1582 1.384 . S
C1580 H1571 0.929 . S
C1580 C1572 1.378 . S
C1580 C1575 1.350 . S
C1581 H1568 0.929 . S
C1581 C1573 1.433 . S
C1581 N1583 1.384 . S
N1582 C1578 1.427 . S
N1582 C1579 1.384 . S
N1583 C1575 1.427 . S
N1583 C1581 1.384 . S
H1584 C1590 0.930 . S
H1585 C1594 0.930 . S
H1586 C1599 0.929 . S
H1587 C1597 0.929 . S
H1588 C1592 0.929 . S
H1589 C1598 0.929 . S
C1590 H1584 0.930 . S
C1590 C1591 1.367 . S
C1590 C1598 1.378 . S
C1591 C1590 1.367 . S
C1591 C1599 1.433 . S
C1592 H1588 0.929 . S
C1592 C1594 1.378 . S
C1592 C1596 1.350 . S
C1593 C1596 1.463 . S
C1593 C1598 1.350 . S
C1593 N1601 1.427 . S
C1594 H1585 0.930 . S
C1594 C1592 1.378 . S
C1594 C1595 1.367 . S
C1595 C1594 1.367 . S
C1595 C1597 1.433 . S
C1596 C1592 1.350 . S
C1596 C1593 1.463 . S
C1596 N1600 1.427 . S
C1597 H1587 0.929 . S
C1597 C1595 1.433 . S
C1597 N1600 1.384 . S
C1598 H1589 0.929 . S
C1598 C1590 1.378 . S
C1598 C1593 1.350 . S
C1599 H1586 0.929 . S
C1599 C1591 1.433 . S
C1599 N1601 1.384 . S
N1600 C1596 1.427 . S
N1600 C1597 1.384 . S
N1601 C1593 1.427 . S
N1601 C1599 1.384 . S
H1602 C1608 0.930 . S
H1603 C1612 0.930 . S
H1604 C1617 0.929 . S
H1605 C1615 0.929 . S
H1606 C1610 0.929 . S
H1607 C1616 0.929 . S
C1608 H1602 0.930 . S
C1608 C1609 1.367 . S
C1608 C1616 1.378 . S
C1609 C1608 1.367 . S
C1609 C1617 1.433 . S
C1610 H1606 0.929 . S
C1610 C1612 1.378 . S
C1610 C1614 1.350 . S
C1611 C1614 1.463 . S
C1611 C1616 1.350 . S
C1611 N1619 1.427 . S
C1612 H1603 0.930 . S
C1612 C1610 1.378 . S
C1612 C1613 1.367 . S
C1613 C1612 1.367 . S
C1613 C1615 1.433 . S
C1614 C1610 1.350 . S
C1614 C1611 1.463 . S
C1614 N1618 1.427 . S
C1615 H1605 0.929 . S
C1615 C1613 1.433 . S
C1615 N1618 1.384 . S
C1616 H1607 0.929 . S
C1616 C1608 1.378 . S
C1616 C1611 1.350 . S
C1617 H1604 0.929 . S
C1617 C1609 1.433 . S
C1617 N1619 1.384 . S
N1618 C1614 1.427 . S
N1618 C1615 1.384 . S
N1619 C1611 1.427 . S
N1619 C1617 1.384 . S
H1620 C1626 0.930 . S
H1621 C1630 0.930 . S
H1622 C1635 0.929 . S
H1623 C1633 0.929 . S
H1624 C1628 0.929 . S
H1625 C1634 0.929 . S
C1626 H1620 0.930 . S
C1626 C1627 1.367 . S
C1626 C1634 1.378 . S
C1627 C1626 1.367 . S
C1627 C1635 1.433 . S
C1628 H1624 0.929 . S
C1628 C1630 1.378 . S
C1628 C1632 1.350 . S
C1629 C1632 1.463 . S
C1629 C1634 1.350 . S
C1629 N1637 1.427 . S
C1630 H1621 0.930 . S
C1630 C1628 1.378 . S
C1630 C1631 1.367 . S
C1631 C1630 1.367 . S
C1631 C1633 1.433 . S
C1632 C1628 1.350 . S
C1632 C1629 1.463 . S
C1632 N1636 1.427 . S
C1633 H1623 0.929 . S
C1633 C1631 1.433 . S
C1633 N1636 1.384 . S
C1634 H1625 0.929 . S
C1634 C1626 1.378 . S
C1634 C1629 1.350 . S
C1635 H1622 0.929 . S
C1635 C1627 1.433 . S
C1635 N1637 1.384 . S
N1636 C1632 1.427 . S
N1636 C1633 1.384 . S
N1637 C1629 1.427 . S
N1637 C1635 1.384 . S
H1638 C1644 0.930 . S
H1639 C1648 0.930 . S
H1640 C1653 0.929 . S
H1641 C1651 0.929 . S
H1642 C1646 0.929 . S
H1643 C1652 0.929 . S
C1644 H1638 0.930 . S
C1644 C1645 1.367 . S
C1644 C1652 1.378 . S
C1645 C1644 1.367 . S
C1645 C1653 1.433 . S
C1646 H1642 0.929 . S
C1646 C1648 1.378 . S
C1646 C1650 1.350 . S
C1647 C1650 1.463 . S
C1647 C1652 1.350 . S
C1647 N1655 1.427 . S
C1648 H1639 0.930 . S
C1648 C1646 1.378 . S
C1648 C1649 1.367 . S
C1649 C1648 1.367 . S
C1649 C1651 1.433 . S
C1650 C1646 1.350 . S
C1650 C1647 1.463 . S
C1650 N1654 1.427 . S
C1651 H1641 0.929 . S
C1651 C1649 1.433 . S
C1651 N1654 1.384 . S
C1652 H1643 0.929 . S
C1652 C1644 1.378 . S
C1652 C1647 1.350 . S
C1653 H1640 0.929 . S
C1653 C1645 1.433 . S
C1653 N1655 1.384 . S
N1654 C1650 1.427 . S
N1654 C1651 1.384 . S
N1655 C1647 1.427 . S
N1655 C1653 1.384 . S
H1656 C1662 0.930 . S
H1657 C1666 0.930 . S
H1658 C1671 0.929 . S
H1659 C1669 0.929 . S
H1660 C1664 0.929 . S
H1661 C1670 0.929 . S
C1662 H1656 0.930 . S
C1662 C1663 1.367 . S
C1662 C1670 1.378 . S
C1663 C1662 1.367 . S
C1663 C1671 1.433 . S
C1664 H1660 0.929 . S
C1664 C1666 1.378 . S
C1664 C1668 1.350 . S
C1665 C1668 1.463 . S
C1665 C1670 1.350 . S
C1665 N1673 1.427 . S
C1666 H1657 0.930 . S
C1666 C1664 1.378 . S
C1666 C1667 1.367 . S
C1667 C1666 1.367 . S
C1667 C1669 1.433 . S
C1668 C1664 1.350 . S
C1668 C1665 1.463 . S
C1668 N1672 1.427 . S
C1669 H1659 0.929 . S
C1669 C1667 1.433 . S
C1669 N1672 1.384 . S
C1670 H1661 0.929 . S
C1670 C1662 1.378 . S
C1670 C1665 1.350 . S
C1671 H1658 0.929 . S
C1671 C1663 1.433 . S
C1671 N1673 1.384 . S
N1672 C1668 1.427 . S
N1672 C1669 1.384 . S
N1673 C1665 1.427 . S
N1673 C1671 1.384 . S
H1674 C1680 0.930 . S
H1675 C1684 0.930 . S
H1676 C1689 0.929 . S
H1677 C1687 0.929 . S
H1678 C1682 0.929 . S
H1679 C1688 0.929 . S
C1680 H1674 0.930 . S
C1680 C1681 1.367 . S
C1680 C1688 1.378 . S
C1681 C1680 1.367 . S
C1681 C1689 1.433 . S
C1682 H1678 0.929 . S
C1682 C1684 1.378 . S
C1682 C1686 1.350 . S
C1683 C1686 1.463 . S
C1683 C1688 1.350 . S
C1683 N1691 1.427 . S
C1684 H1675 0.930 . S
C1684 C1682 1.378 . S
C1684 C1685 1.367 . S
C1685 C1684 1.367 . S
C1685 C1687 1.433 . S
C1686 C1682 1.350 . S
C1686 C1683 1.463 . S
C1686 N1690 1.427 . S
C1687 H1677 0.929 . S
C1687 C1685 1.433 . S
C1687 N1690 1.384 . S
C1688 H1679 0.929 . S
C1688 C1680 1.378 . S
C1688 C1683 1.350 . S
C1689 H1676 0.929 . S
C1689 C1681 1.433 . S
C1689 N1691 1.384 . S
N1690 C1686 1.427 . S
N1690 C1687 1.384 . S
N1691 C1683 1.427 . S
N1691 C1689 1.384 . S
H1692 C1698 0.930 . S
H1693 C1702 0.930 . S
H1694 C1707 0.929 . S
H1695 C1705 0.929 . S
H1696 C1700 0.929 . S
H1697 C1706 0.929 . S
C1698 H1692 0.930 . S
C1698 C1699 1.367 . S
C1698 C1706 1.378 . S
C1699 C1698 1.367 . S
C1699 C1707 1.433 . S
C1700 H1696 0.929 . S
C1700 C1702 1.378 . S
C1700 C1704 1.350 . S
C1701 C1704 1.463 . S
C1701 C1706 1.350 . S
C1701 N1709 1.427 . S
C1702 H1693 0.930 . S
C1702 C1700 1.378 . S
C1702 C1703 1.367 . S
C1703 C1702 1.367 . S
C1703 C1705 1.433 . S
C1704 C1700 1.350 . S
C1704 C1701 1.463 . S
C1704 N1708 1.427 . S
C1705 H1695 0.929 . S
C1705 C1703 1.433 . S
C1705 N1708 1.384 . S
C1706 H1697 0.929 . S
C1706 C1698 1.378 . S
C1706 C1701 1.350 . S
C1707 H1694 0.929 . S
C1707 C1699 1.433 . S
C1707 N1709 1.384 . S
N1708 C1704 1.427 . S
N1708 C1705 1.384 . S
N1709 C1701 1.427 . S
N1709 C1707 1.384 . S
H1710 C1716 0.930 . S
H1711 C1720 0.930 . S
H1712 C1725 0.929 . S
H1713 C1723 0.929 . S
H1714 C1718 0.929 . S
H1715 C1724 0.929 . S
C1716 H1710 0.930 . S
C1716 C1717 1.367 . S
C1716 C1724 1.378 . S
C1717 C1716 1.367 . S
C1717 C1725 1.433 . S
C1718 H1714 0.929 . S
C1718 C1720 1.378 . S
C1718 C1722 1.350 . S
C1719 C1722 1.463 . S
C1719 C1724 1.350 . S
C1719 N1727 1.427 . S
C1720 H1711 0.930 . S
C1720 C1718 1.378 . S
C1720 C1721 1.367 . S
C1721 C1720 1.367 . S
C1721 C1723 1.433 . S
C1722 C1718 1.350 . S
C1722 C1719 1.463 . S
C1722 N1726 1.427 . S
C1723 H1713 0.929 . S
C1723 C1721 1.433 . S
C1723 N1726 1.384 . S
C1724 H1715 0.929 . S
C1724 C1716 1.378 . S
C1724 C1719 1.350 . S
C1725 H1712 0.929 . S
C1725 C1717 1.433 . S
C1725 N1727 1.384 . S
N1726 C1722 1.427 . S
N1726 C1723 1.384 . S
N1727 C1719 1.427 . S
N1727 C1725 1.384 . S
H1728 C1734 0.930 . S
H1729 C1738 0.930 . S
H1730 C1743 0.929 . S
H1731 C1741 0.929 . S
H1732 C1736 0.929 . S
H1733 C1742 0.929 . S
C1734 H1728 0.930 . S
C1734 C1735 1.367 . S
C1734 C1742 1.378 . S
C1735 C1734 1.367 . S
C1735 C1743 1.433 . S
C1736 H1732 0.929 . S
C1736 C1738 1.378 . S
C1736 C1740 1.350 . S
C1737 C1740 1.463 . S
C1737 C1742 1.350 . S
C1737 N1745 1.427 . S
C1738 H1729 0.930 . S
C1738 C1736 1.378 . S
C1738 C1739 1.367 . S
C1739 C1738 1.367 . S
C1739 C1741 1.433 . S
C1740 C1736 1.350 . S
C1740 C1737 1.463 . S
C1740 N1744 1.427 . S
C1741 H1731 0.929 . S
C1741 C1739 1.433 . S
C1741 N1744 1.384 . S
C1742 H1733 0.929 . S
C1742 C1734 1.378 . S
C1742 C1737 1.350 . S
C1743 H1730 0.929 . S
C1743 C1735 1.433 . S
C1743 N1745 1.384 . S
N1744 C1740 1.427 . S
N1744 C1741 1.384 . S
N1745 C1737 1.427 . S
N1745 C1743 1.384 . S
H1746 C1752 0.930 . S
H1747 C1756 0.930 . S
H1748 C1761 0.929 . S
H1749 C1759 0.929 . S
H1750 C1754 0.929 . S
H1751 C1760 0.929 . S
C1752 H1746 0.930 . S
C1752 C1753 1.367 . S
C1752 C1760 1.378 . S
C1753 C1752 1.367 . S
C1753 C1761 1.433 . S
C1754 H1750 0.929 . S
C1754 C1756 1.378 . S
C1754 C1758 1.350 . S
C1755 C1758 1.463 . S
C1755 C1760 1.350 . S
C1755 N1763 1.427 . S
C1756 H1747 0.930 . S
C1756 C1754 1.378 . S
C1756 C1757 1.367 . S
C1757 C1756 1.367 . S
C1757 C1759 1.433 . S
C1758 C1754 1.350 . S
C1758 C1755 1.463 . S
C1758 N1762 1.427 . S
C1759 H1749 0.929 . S
C1759 C1757 1.433 . S
C1759 N1762 1.384 . S
C1760 H1751 0.929 . S
C1760 C1752 1.378 . S
C1760 C1755 1.350 . S
C1761 H1748 0.929 . S
C1761 C1753 1.433 . S
C1761 N1763 1.384 . S
N1762 C1758 1.427 . S
N1762 C1759 1.384 . S
N1763 C1755 1.427 . S
N1763 C1761 1.384 . S
C475 C4 1.503 . S
C479 C238 1.503 . S
C493 C257 1.503 . S
C497 C17 1.503 . S
C511 C270 1.503 . S
C515 C30 1.503 . S
C529 C43 1.504 . S
C533 C433 1.504 . S
C547 C62 1.503 . S
C551 C446 1.503 . S
C565 C75 1.503 . S
C569 C459 1.503 . S
C583 C316 1.503 . S
C587 C82 1.503 . S
C601 C95 1.505 . S
C605 C335 1.505 . S
C619 C114 1.503 . S
C623 C348 1.503 . S
C637 C205 1.503 . S
C641 C121 1.503 . S
C655 C218 1.504 . S
C659 C134 1.504 . S
C673 C225 1.503 . S
C677 C153 1.503 . S
C691 C394 1.504 . S
C695 C160 1.504 . S
C709 C407 1.505 . S
C713 C179 1.505 . S
C727 C186 1.503 . S
C731 C426 1.503 . S
C745 C361 1.503 . S
C749 C283 1.503 . S
C763 C296 1.503 . S
C767 C368 1.503 . S
C781 C309 1.503 . S
C785 C387 1.503 . S
C799 C10 1.574 . S
C803 C355 1.575 . S
C817 C374 1.564 . S
C821 C23 1.567 . S
C835 C381 1.574 . S
C839 C36 1.571 . S
C853 C166 1.575 . S
C857 C49 1.573 . S
C871 C173 1.576 . S
C875 C56 1.575 . S
C889 C192 1.570 . S
C893 C69 1.573 . S
C907 C88 1.567 . S
C911 C277 1.564 . S
C925 C290 1.569 . S
C929 C101 1.565 . S
C943 C303 1.570 . S
C947 C108 1.573 . S
C961 C127 1.572 . S
C965 C400 1.575 . S
C979 C140 1.575 . S
C983 C413 1.576 . S
C997 C147 1.563 . S
C1001 C420 1.562 . S
C1015 C199 1.563 . S
C1019 C322 1.565 . S
C1033 C212 1.565 . S
C1037 C329 1.568 . S
C1051 C231 1.575 . S
C1055 C342 1.575 . S
C1069 C244 1.575 . S
C1073 C439 1.576 . S
C1087 C452 1.574 . S
C1091 C251 1.575 . S
C1105 C264 1.564 . S
C1109 C465 1.562 . S
C1123 C18 1.220 . S
C1127 C3 1.164 . S
C1141 C16 1.176 . S
C1145 C31 1.220 . S
C1159 C29 1.155 . S
C1163 C5 1.212 . S
C1177 C42 1.177 . S
C1181 C68 1.218 . S
C1195 C44 1.220 . S
C1199 C57 1.177 . S
C1213 C70 1.156 . S
C1217 C55 1.215 . S
C1231 C81 1.175 . S
C1235 C96 1.216 . S
C1249 C94 1.170 . S
C1253 C107 1.213 . S
C1267 C109 1.166 . S
C1271 C83 1.220 . S
C1285 C146 1.210 . S
C1289 C120 1.161 . S
C1303 C133 1.177 . S
C1307 C122 1.219 . S
C1321 C135 1.213 . S
C1325 C148 1.154 . S
C1339 C172 1.215 . S
C1343 C159 1.174 . S
C1357 C187 1.221 . S
C1361 C174 1.174 . S
C1375 C161 1.220 . S
C1379 C185 1.176 . S
C1393 C200 1.168 . S
C1397 C226 1.212 . S
C1411 C213 1.157 . S
C1415 C198 1.211 . S
C1429 C224 1.174 . S
C1433 C211 1.221 . S
C1447 C250 1.218 . S
C1451 C237 1.177 . S
C1465 C252 1.156 . S
C1469 C263 1.215 . S
C1483 C265 1.158 . S
C1487 C239 1.217 . S
C1501 C278 1.174 . S
C1505 C302 1.215 . S
C1519 C291 1.176 . S
C1523 C276 1.220 . S
C1537 C289 1.211 . S
C1541 C304 1.164 . S
C1555 C328 1.216 . S
C1559 C315 1.175 . S
C1573 C330 1.164 . S
C1577 C341 1.211 . S
C1591 C317 1.221 . S
C1595 C343 1.172 . S
C1609 C356 1.177 . S
C1613 C380 1.219 . S
C1627 C367 1.176 . S
C1631 C354 1.220 . S
C1645 C382 1.157 . S
C1649 C369 1.211 . S
C1663 C393 1.174 . S
C1667 C408 1.215 . S
C1681 C406 1.177 . S
C1685 C419 1.219 . S
C1699 C421 1.175 . S
C1703 C395 1.220 . S
C1717 C432 1.167 . S
C1721 C460 1.220 . S
C1735 C445 1.168 . S
C1739 C434 1.221 . S
C1753 C447 1.216 . S
C1757 C458 1.157 . S
