# Generated by pormake.
# Topology dei, (4)-cn, num edge types: 1
# Building blocks:
#     Node 0, Type 0, BuildingBlock: GALJAG_clean_sbu_0, # of connection points: 4
#     Node 1, Type 0, BuildingBlock: GALJAG_clean_sbu_0, # of connection points: 4
#     Node 2, Type 0, BuildingBlock: GALJAG_clean_sbu_0, # of connection points: 4
#     Node 3, Type 0, BuildingBlock: GALJAG_clean_sbu_0, # of connection points: 4
#     Node 4, Type 0, BuildingBlock: GALJAG_clean_sbu_0, # of connection points: 4
#     Node 5, Type 0, BuildingBlock: GALJAG_clean_sbu_0, # of connection points: 4
#     Node 6, Type 0, BuildingBlock: GALJAG_clean_sbu_0, # of connection points: 4
#     Node 7, Type 0, BuildingBlock: GALJAG_clean_sbu_0, # of connection points: 4
#     Node 8, Type 0, BuildingBlock: GALJAG_clean_sbu_0, # of connection points: 4
#     Node 9, Type 0, BuildingBlock: GALJAG_clean_sbu_0, # of connection points: 4
#     Node 10, Type 0, BuildingBlock: GALJAG_clean_sbu_0, # of connection points: 4
#     Node 11, Type 0, BuildingBlock: GALJAG_clean_sbu_0, # of connection points: 4
#     Node 12, Type 0, BuildingBlock: GALJAG_clean_sbu_0, # of connection points: 4
#     Node 13, Type 0, BuildingBlock: GALJAG_clean_sbu_0, # of connection points: 4
#     Node 14, Type 0, BuildingBlock: GALJAG_clean_sbu_0, # of connection points: 4
#     Node 15, Type 0, BuildingBlock: GALJAG_clean_sbu_0, # of connection points: 4
#     Node 16, Type 0, BuildingBlock: GALJAG_clean_sbu_0, # of connection points: 4
#     Node 17, Type 0, BuildingBlock: GALJAG_clean_sbu_0, # of connection points: 4
#     Node 18, Type 0, BuildingBlock: GALJAG_clean_sbu_0, # of connection points: 4
#     Node 19, Type 0, BuildingBlock: GALJAG_clean_sbu_0, # of connection points: 4
#     Node 20, Type 0, BuildingBlock: GALJAG_clean_sbu_0, # of connection points: 4
#     Node 21, Type 0, BuildingBlock: GALJAG_clean_sbu_0, # of connection points: 4
#     Node 22, Type 0, BuildingBlock: GALJAG_clean_sbu_0, # of connection points: 4
#     Node 23, Type 0, BuildingBlock: GALJAG_clean_sbu_0, # of connection points: 4
#     Node 24, Type 0, BuildingBlock: GALJAG_clean_sbu_0, # of connection points: 4
#     Node 25, Type 0, BuildingBlock: GALJAG_clean_sbu_0, # of connection points: 4
#     Node 26, Type 0, BuildingBlock: GALJAG_clean_sbu_0, # of connection points: 4
#     Node 27, Type 0, BuildingBlock: GALJAG_clean_sbu_0, # of connection points: 4
#     Node 28, Type 0, BuildingBlock: GALJAG_clean_sbu_0, # of connection points: 4
#     Node 29, Type 0, BuildingBlock: GALJAG_clean_sbu_0, # of connection points: 4
#     Node 30, Type 0, BuildingBlock: GALJAG_clean_sbu_0, # of connection points: 4
#     Node 31, Type 0, BuildingBlock: GALJAG_clean_sbu_0, # of connection points: 4
#     Edge 32, Type (0, 0), BuildingBlock: CIFDUS_clean_linker_0, # of connection points: 2
#     Edge 33, Type (0, 0), BuildingBlock: CIFDUS_clean_linker_0, # of connection points: 2
#     Edge 34, Type (0, 0), BuildingBlock: CIFDUS_clean_linker_0, # of connection points: 2
#     Edge 35, Type (0, 0), BuildingBlock: CIFDUS_clean_linker_0, # of connection points: 2
#     Edge 36, Type (0, 0), BuildingBlock: CIFDUS_clean_linker_0, # of connection points: 2
#     Edge 37, Type (0, 0), BuildingBlock: CIFDUS_clean_linker_0, # of connection points: 2
#     Edge 38, Type (0, 0), BuildingBlock: CIFDUS_clean_linker_0, # of connection points: 2
#     Edge 39, Type (0, 0), BuildingBlock: CIFDUS_clean_linker_0, # of connection points: 2
#     Edge 40, Type (0, 0), BuildingBlock: CIFDUS_clean_linker_0, # of connection points: 2
#     Edge 41, Type (0, 0), BuildingBlock: CIFDUS_clean_linker_0, # of connection points: 2
#     Edge 42, Type (0, 0), BuildingBlock: CIFDUS_clean_linker_0, # of connection points: 2
#     Edge 43, Type (0, 0), BuildingBlock: CIFDUS_clean_linker_0, # of connection points: 2
#     Edge 44, Type (0, 0), BuildingBlock: CIFDUS_clean_linker_0, # of connection points: 2
#     Edge 45, Type (0, 0), BuildingBlock: CIFDUS_clean_linker_0, # of connection points: 2
#     Edge 46, Type (0, 0), BuildingBlock: CIFDUS_clean_linker_0, # of connection points: 2
#     Edge 47, Type (0, 0), BuildingBlock: CIFDUS_clean_linker_0, # of connection points: 2
#     Edge 48, Type (0, 0), BuildingBlock: CIFDUS_clean_linker_0, # of connection points: 2
#     Edge 49, Type (0, 0), BuildingBlock: CIFDUS_clean_linker_0, # of connection points: 2
#     Edge 50, Type (0, 0), BuildingBlock: CIFDUS_clean_linker_0, # of connection points: 2
#     Edge 51, Type (0, 0), BuildingBlock: CIFDUS_clean_linker_0, # of connection points: 2
#     Edge 52, Type (0, 0), BuildingBlock: CIFDUS_clean_linker_0, # of connection points: 2
#     Edge 53, Type (0, 0), BuildingBlock: CIFDUS_clean_linker_0, # of connection points: 2
#     Edge 54, Type (0, 0), BuildingBlock: CIFDUS_clean_linker_0, # of connection points: 2
#     Edge 55, Type (0, 0), BuildingBlock: CIFDUS_clean_linker_0, # of connection points: 2
#     Edge 56, Type (0, 0), BuildingBlock: CIFDUS_clean_linker_0, # of connection points: 2
#     Edge 57, Type (0, 0), BuildingBlock: CIFDUS_clean_linker_0, # of connection points: 2
#     Edge 58, Type (0, 0), BuildingBlock: CIFDUS_clean_linker_0, # of connection points: 2
#     Edge 59, Type (0, 0), BuildingBlock: CIFDUS_clean_linker_0, # of connection points: 2
#     Edge 60, Type (0, 0), BuildingBlock: CIFDUS_clean_linker_0, # of connection points: 2
#     Edge 61, Type (0, 0), BuildingBlock: CIFDUS_clean_linker_0, # of connection points: 2
#     Edge 62, Type (0, 0), BuildingBlock: CIFDUS_clean_linker_0, # of connection points: 2
#     Edge 63, Type (0, 0), BuildingBlock: CIFDUS_clean_linker_0, # of connection points: 2
#     Edge 64, Type (0, 0), BuildingBlock: CIFDUS_clean_linker_0, # of connection points: 2
#     Edge 65, Type (0, 0), BuildingBlock: CIFDUS_clean_linker_0, # of connection points: 2
#     Edge 66, Type (0, 0), BuildingBlock: CIFDUS_clean_linker_0, # of connection points: 2
#     Edge 67, Type (0, 0), BuildingBlock: CIFDUS_clean_linker_0, # of connection points: 2
#     Edge 68, Type (0, 0), BuildingBlock: CIFDUS_clean_linker_0, # of connection points: 2
#     Edge 69, Type (0, 0), BuildingBlock: CIFDUS_clean_linker_0, # of connection points: 2
#     Edge 70, Type (0, 0), BuildingBlock: CIFDUS_clean_linker_0, # of connection points: 2
#     Edge 71, Type (0, 0), BuildingBlock: CIFDUS_clean_linker_0, # of connection points: 2
#     Edge 72, Type (0, 0), BuildingBlock: CIFDUS_clean_linker_0, # of connection points: 2
#     Edge 73, Type (0, 0), BuildingBlock: CIFDUS_clean_linker_0, # of connection points: 2
#     Edge 74, Type (0, 0), BuildingBlock: CIFDUS_clean_linker_0, # of connection points: 2
#     Edge 75, Type (0, 0), BuildingBlock: CIFDUS_clean_linker_0, # of connection points: 2
#     Edge 76, Type (0, 0), BuildingBlock: CIFDUS_clean_linker_0, # of connection points: 2
#     Edge 77, Type (0, 0), BuildingBlock: CIFDUS_clean_linker_0, # of connection points: 2
#     Edge 78, Type (0, 0), BuildingBlock: CIFDUS_clean_linker_0, # of connection points: 2
#     Edge 79, Type (0, 0), BuildingBlock: CIFDUS_clean_linker_0, # of connection points: 2
#     Edge 80, Type (0, 0), BuildingBlock: CIFDUS_clean_linker_0, # of connection points: 2
#     Edge 81, Type (0, 0), BuildingBlock: CIFDUS_clean_linker_0, # of connection points: 2
#     Edge 82, Type (0, 0), BuildingBlock: CIFDUS_clean_linker_0, # of connection points: 2
#     Edge 83, Type (0, 0), BuildingBlock: CIFDUS_clean_linker_0, # of connection points: 2
#     Edge 84, Type (0, 0), BuildingBlock: CIFDUS_clean_linker_0, # of connection points: 2
#     Edge 85, Type (0, 0), BuildingBlock: CIFDUS_clean_linker_0, # of connection points: 2
#     Edge 86, Type (0, 0), BuildingBlock: CIFDUS_clean_linker_0, # of connection points: 2
#     Edge 87, Type (0, 0), BuildingBlock: CIFDUS_clean_linker_0, # of connection points: 2
#     Edge 88, Type (0, 0), BuildingBlock: CIFDUS_clean_linker_0, # of connection points: 2
#     Edge 89, Type (0, 0), BuildingBlock: CIFDUS_clean_linker_0, # of connection points: 2
#     Edge 90, Type (0, 0), BuildingBlock: CIFDUS_clean_linker_0, # of connection points: 2
#     Edge 91, Type (0, 0), BuildingBlock: CIFDUS_clean_linker_0, # of connection points: 2
#     Edge 92, Type (0, 0), BuildingBlock: CIFDUS_clean_linker_0, # of connection points: 2
#     Edge 93, Type (0, 0), BuildingBlock: CIFDUS_clean_linker_0, # of connection points: 2
#     Edge 94, Type (0, 0), BuildingBlock: CIFDUS_clean_linker_0, # of connection points: 2
#     Edge 95, Type (0, 0), BuildingBlock: CIFDUS_clean_linker_0, # of connection points: 2
# Relax obj value: 0.292
# Max RMSD: 0.107
# Mean RMSD: 0.106
data_MOF--net-dei--node1-GALJAG_clean_sbu_0--edge1-CIFDUS_clean_linker_0
_symmetry_space_group_name_H-M    P1
_symmetry_Int_Tables_number       1
_symmetry_cell_setting            triclinic
loop_
_symmetry_equiv_pos_as_xyz
'x, y, z'
_cell_length_a     49.727444
_cell_length_b     49.702176
_cell_length_c     71.842833
_cell_angle_alpha  89.958964
_cell_angle_beta   90.011724
_cell_angle_gamma 90.004996
loop_
_atom_site_label
_atom_site_type_symbol
_atom_site_fract_x
_atom_site_fract_y
_atom_site_fract_z
_atom_type_partial_charge
In0 In 0.14279 0.62983 0.02879 0.0
O1 O 0.15493 0.60349 0.00357 0.0
O2 O 0.17248 0.59448 0.02948 0.0
C3 C 0.14757 0.68252 0.01839 0.0
C4 C 0.09031 0.61659 0.02565 0.0
C5 C 0.15036 0.63183 0.066 0.0
O6 O 0.16799 0.6681 0.02169 0.0
O7 O 0.12556 0.67022 0.0199 0.0
O8 O 0.133 0.61715 0.05828 0.0
O9 O 0.16426 0.64589 0.05492 0.0
C10 C 0.16949 0.5876 0.0128 0.0
O11 O 0.10399 0.61285 0.04018 0.0
O12 O 0.10312 0.62708 0.0123 0.0
In13 In 0.63994 0.89247 0.28365 0.0
O14 O 0.6263 0.88043 0.31249 0.0
O15 O 0.64446 0.91902 0.30952 0.0
C16 C 0.65074 0.83906 0.28182 0.0
C17 C 0.58921 0.9045 0.27153 0.0
C18 C 0.68525 0.9145 0.26824 0.0
O19 O 0.65459 0.85316 0.2961 0.0
O20 O 0.64176 0.85194 0.26802 0.0
O21 O 0.66342 0.91266 0.25936 0.0
O22 O 0.68375 0.90634 0.28474 0.0
C23 C 0.63455 0.90156 0.32038 0.0
O24 O 0.6021 0.88388 0.26664 0.0
O25 O 0.60243 0.92026 0.28184 0.0
In26 In 0.36978 0.38903 0.53157 0.0
O27 O 0.41149 0.40812 0.53408 0.0
O28 O 0.40684 0.37589 0.51511 0.0
C29 C 0.37333 0.38464 0.56889 0.0
C30 C 0.34811 0.4342 0.51588 0.0
C31 C 0.34502 0.34138 0.52398 0.0
O32 O 0.38886 0.37232 0.55791 0.0
O33 O 0.35556 0.39887 0.56106 0.0
O34 O 0.36393 0.35084 0.51433 0.0
O35 O 0.33693 0.35699 0.53665 0.0
C36 C 0.4225 0.39275 0.52243 0.0
O37 O 0.35223 0.41295 0.50674 0.0
O38 O 0.35344 0.43209 0.53291 0.0
In39 In 0.89284 0.12479 0.78112 0.0
O40 O 0.87568 0.13631 0.80947 0.0
O41 O 0.90426 0.10451 0.80848 0.0
C42 C 0.8971 0.179 0.77935 0.0
C43 C 0.9404 0.10435 0.76827 0.0
C44 C 0.84614 0.10541 0.76606 0.0
O45 O 0.91113 0.1647 0.79011 0.0
O46 O 0.88091 0.16596 0.76927 0.0
O47 O 0.86387 0.11712 0.75645 0.0
O48 O 0.85287 0.10175 0.78274 0.0
C49 C 0.88918 0.11909 0.81838 0.0
O50 O 0.92461 0.09113 0.77853 0.0
O51 O 0.93114 0.12677 0.76319 0.0
In52 In 0.14648 0.39259 0.95805 0.0
O53 O 0.10389 0.37771 0.95326 0.0
O54 O 0.11026 0.40435 0.97599 0.0
C55 C 0.15019 0.39089 0.92065 0.0
C56 C 0.16583 0.44224 0.96737 0.0
C57 C 0.16676 0.34477 0.97046 0.0
O58 O 0.12963 0.39953 0.92901 0.0
O59 O 0.16888 0.38275 0.93114 0.0
O60 O 0.17955 0.36007 0.95958 0.0
O61 O 0.14502 0.35466 0.97629 0.0
C62 C 0.09372 0.39051 0.96669 0.0
O63 O 0.16725 0.42263 0.97856 0.0
O64 O 0.156 0.43625 0.95183 0.0
In65 In 0.88096 0.89522 0.22074 0.0
O66 O 0.91605 0.9263 0.2221 0.0
O67 O 0.92442 0.88548 0.22804 0.0
C68 C 0.83791 0.92022 0.23678 0.0
C69 C 0.87957 0.89159 0.1832 0.0
C70 C 0.87067 0.84505 0.233 0.0
O71 O 0.85851 0.91349 0.24592 0.0
O72 O 0.84013 0.91653 0.21954 0.0
O73 O 0.85975 0.85512 0.21876 0.0
O74 O 0.88669 0.86055 0.24145 0.0
C75 C 0.93363 0.9089 0.22623 0.0
O76 O 0.87965 0.87148 0.19386 0.0
O77 O 0.88096 0.91404 0.19141 0.0
In78 In 0.37266 0.63114 0.46759 0.0
O79 O 0.35393 0.60813 0.49245 0.0
O80 O 0.35615 0.58822 0.46655 0.0
C81 C 0.35029 0.68037 0.47455 0.0
C82 C 0.42525 0.63491 0.47671 0.0
C83 C 0.37572 0.62185 0.43059 0.0
O84 O 0.34339 0.66584 0.46099 0.0
O85 O 0.36702 0.66933 0.48527 0.0
O86 O 0.39578 0.62047 0.44129 0.0
O87 O 0.35387 0.62801 0.43854 0.0
C88 C 0.35003 0.58664 0.48348 0.0
O89 O 0.41382 0.65079 0.46552 0.0
O90 O 0.41005 0.61713 0.48355 0.0
In91 In 0.64679 0.13083 0.7139 0.0
O92 O 0.61364 0.09944 0.71979 0.0
O93 O 0.61458 0.1345 0.73647 0.0
C94 C 0.69844 0.11786 0.72329 0.0
C95 C 0.63694 0.11627 0.67842 0.0
C96 C 0.64642 0.18523 0.71317 0.0
O97 O 0.67864 0.10844 0.73227 0.0
O98 O 0.6919 0.13307 0.71007 0.0
O99 O 0.64394 0.1707 0.69895 0.0
O100 O 0.6492 0.17237 0.72821 0.0
C101 C 0.60202 0.11339 0.73208 0.0
O102 O 0.62196 0.13194 0.6875 0.0
O103 O 0.65658 0.1068 0.68747 0.0
In104 In 0.88018 0.38222 0.96754 0.0
O105 O 0.89515 0.4022 0.94109 0.0
O106 O 0.86251 0.37471 0.93855 0.0
C107 C 0.93423 0.37626 0.969 0.0
C108 C 0.86153 0.33439 0.98137 0.0
C109 C 0.85755 0.428 0.98179 0.0
O110 O 0.91906 0.36108 0.95968 0.0
O111 O 0.92212 0.39446 0.97794 0.0
O112 O 0.8732 0.41323 0.99109 0.0
O113 O 0.85163 0.41855 0.96608 0.0
C114 C 0.87866 0.39054 0.93046 0.0
O115 O 0.85209 0.34505 0.96683 0.0
O116 O 0.87852 0.34887 0.98966 0.0
In117 In 0.39421 0.1208 0.71717 0.0
O118 O 0.37672 0.13245 0.68905 0.0
O119 O 0.40141 0.09753 0.69012 0.0
C120 C 0.39774 0.1751 0.71828 0.0
C121 C 0.44337 0.1024 0.72853 0.0
C122 C 0.34949 0.10121 0.73477 0.0
O123 O 0.41167 0.16073 0.70752 0.0
O124 O 0.38202 0.16209 0.72874 0.0
O125 O 0.36989 0.10947 0.74352 0.0
O126 O 0.35238 0.10127 0.7174 0.0
C127 C 0.38743 0.11329 0.68025 0.0
O128 O 0.42799 0.08892 0.71812 0.0
O129 O 0.43318 0.12408 0.73423 0.0
In130 In 0.63693 0.63424 0.46498 0.0
O131 O 0.62291 0.63152 0.43518 0.0
O132 O 0.6651 0.63551 0.43974 0.0
C133 C 0.58427 0.64445 0.4705 0.0
C134 C 0.65794 0.67998 0.47997 0.0
C135 C 0.64894 0.58209 0.47363 0.0
O136 O 0.59795 0.65562 0.45791 0.0
O137 O 0.59725 0.62824 0.48064 0.0
O138 O 0.66011 0.60134 0.4822 0.0
O139 O 0.63246 0.58947 0.46143 0.0
C140 C 0.64611 0.63284 0.42815 0.0
O141 O 0.66522 0.67079 0.46441 0.0
O142 O 0.64213 0.66471 0.48877 0.0
In143 In 0.14621 0.89616 0.21333 0.0
O144 O 0.16242 0.89101 0.18416 0.0
O145 O 0.13011 0.91866 0.18769 0.0
C146 C 0.1559 0.84262 0.21367 0.0
C147 C 0.09403 0.90123 0.22486 0.0
C148 C 0.18925 0.92095 0.22986 0.0
O149 O 0.152 0.856 0.19903 0.0
O150 O 0.15502 0.85622 0.2285 0.0
O151 O 0.17216 0.90765 0.23898 0.0
O152 O 0.18337 0.92354 0.21297 0.0
C153 C 0.14639 0.90739 0.17661 0.0
O154 O 0.10772 0.92148 0.21996 0.0
O155 O 0.1069 0.87947 0.22452 0.0
In156 In 0.87978 0.62573 0.03292 0.0
O157 O 0.84659 0.6586 0.03203 0.0
O158 O 0.88408 0.66766 0.01978 0.0
C159 C 0.85852 0.57678 0.0232 0.0
C160 C 0.88233 0.63104 0.07024 0.0
C161 C 0.93126 0.61892 0.02218 0.0
O162 O 0.86189 0.59523 0.01131 0.0
O163 O 0.86389 0.5839 0.03952 0.0
O164 O 0.92264 0.61319 0.0382 0.0
O165 O 0.9137 0.6281 0.01113 0.0
C166 C 0.8611 0.6761 0.02419 0.0
O167 O 0.90289 0.63069 0.05998 0.0
O168 O 0.8602 0.62968 0.06164 0.0
In169 In 0.14892 0.12396 0.77784 0.0
O170 O 0.11389 0.12872 0.75747 0.0
O171 O 0.11117 0.09659 0.77666 0.0
C172 C 0.19551 0.10186 0.76452 0.0
C173 C 0.14939 0.11722 0.81511 0.0
C174 C 0.14884 0.17777 0.77267 0.0
O175 O 0.17404 0.10209 0.75513 0.0
O176 O 0.19293 0.11131 0.78063 0.0
O177 O 0.13418 0.16612 0.78449 0.0
O178 O 0.16374 0.16227 0.76334 0.0
C179 C 0.09972 0.10991 0.76395 0.0
O180 O 0.15871 0.13783 0.80715 0.0
O181 O 0.13985 0.09962 0.80424 0.0
In182 In 0.63548 0.3883 0.52844 0.0
O183 O 0.62058 0.3703 0.55569 0.0
O184 O 0.65077 0.40056 0.55717 0.0
C185 C 0.58217 0.39841 0.52549 0.0
C186 C 0.65442 0.33979 0.5161 0.0
C187 C 0.65853 0.43226 0.51222 0.0
O188 O 0.59791 0.41302 0.53478 0.0
O189 O 0.59331 0.37878 0.5175 0.0
O190 O 0.6407 0.41823 0.50441 0.0
O191 O 0.66654 0.42277 0.52752 0.0
C192 C 0.6353 0.38481 0.56588 0.0
O193 O 0.6638 0.35139 0.53029 0.0
O194 O 0.63728 0.3536 0.50741 0.0
In195 In 0.38114 0.8954 0.28883 0.0
O196 O 0.41431 0.92811 0.28749 0.0
O197 O 0.42004 0.89247 0.27195 0.0
C198 C 0.3324 0.91609 0.27875 0.0
C199 C 0.38831 0.89668 0.32593 0.0
C200 C 0.3723 0.84293 0.28114 0.0
O201 O 0.35247 0.9172 0.26796 0.0
O202 O 0.33756 0.90607 0.29439 0.0
O203 O 0.37315 0.85244 0.29734 0.0
O204 O 0.37602 0.85997 0.26836 0.0
C205 C 0.42993 0.91443 0.27735 0.0
O206 O 0.39966 0.87963 0.31555 0.0
O207 O 0.37416 0.91397 0.31751 0.0
In208 In 0.64134 0.13108 0.53138 0.0
O209 O 0.60342 0.11845 0.51544 0.0
O210 O 0.59921 0.14668 0.5374 0.0
C211 C 0.64692 0.12353 0.56834 0.0
C212 C 0.65993 0.08425 0.5164 0.0
C213 C 0.6622 0.18049 0.52257 0.0
O214 O 0.66686 0.12375 0.55742 0.0
O215 O 0.62449 0.12761 0.56063 0.0
O216 O 0.6714 0.16587 0.53541 0.0
O217 O 0.64382 0.16943 0.51324 0.0
C218 C 0.58777 0.13291 0.52498 0.0
O219 O 0.66194 0.10643 0.50784 0.0
O220 O 0.64935 0.08613 0.53222 0.0
In221 In 0.13339 0.39144 0.7736 0.0
O222 O 0.14849 0.38071 0.80244 0.0
O223 O 0.12541 0.41659 0.79966 0.0
C224 C 0.13114 0.33709 0.77382 0.0
C225 C 0.08436 0.40716 0.76049 0.0
C226 C 0.17831 0.41092 0.75626 0.0
O227 O 0.11536 0.35167 0.7831 0.0
O228 O 0.14808 0.3499 0.76421 0.0
O229 O 0.15824 0.40207 0.74745 0.0
O230 O 0.17489 0.41181 0.77358 0.0
C231 C 0.13789 0.40071 0.81037 0.0
O232 O 0.0972 0.42057 0.77246 0.0
O233 O 0.09712 0.38725 0.7542 0.0
In234 In 0.87765 0.88591 0.03545 0.0
O235 O 0.87132 0.91536 0.01108 0.0
O236 O 0.84608 0.91994 0.03447 0.0
C237 C 0.8635 0.83638 0.02186 0.0
C238 C 0.93198 0.88432 0.03533 0.0
C239 C 0.87371 0.89564 0.07227 0.0
O240 O 0.85076 0.84754 0.03494 0.0
O241 O 0.88146 0.85106 0.01483 0.0
O242 O 0.8864 0.91085 0.06128 0.0
O243 O 0.86246 0.87564 0.06465 0.0
C244 C 0.85355 0.92931 0.01901 0.0
O245 O 0.91779 0.87032 0.04614 0.0
O246 O 0.91881 0.8992 0.02441 0.0
In247 In 0.37528 0.62995 0.28389 0.0
O248 O 0.414 0.60434 0.27873 0.0
O249 O 0.4148 0.64614 0.27307 0.0
C250 C 0.33607 0.60561 0.2633 0.0
C251 C 0.36771 0.61742 0.32003 0.0
C252 C 0.36634 0.68359 0.28539 0.0
O253 O 0.35407 0.62013 0.25614 0.0
O254 O 0.3392 0.60155 0.28042 0.0
O255 O 0.37335 0.66974 0.29922 0.0
O256 O 0.36374 0.67049 0.27047 0.0
C257 C 0.42773 0.6244 0.27345 0.0
O258 O 0.35032 0.62921 0.31017 0.0
O259 O 0.38908 0.61108 0.31151 0.0
In260 In 0.63959 0.88761 0.46806 0.0
O261 O 0.60135 0.91082 0.46162 0.0
O262 O 0.59853 0.87961 0.48164 0.0
C263 C 0.63833 0.88399 0.43064 0.0
C264 C 0.66141 0.93077 0.48598 0.0
C265 C 0.6617 0.83896 0.47692 0.0
O266 O 0.62356 0.86989 0.44109 0.0
O267 O 0.65447 0.89938 0.43907 0.0
O268 O 0.67289 0.85538 0.46596 0.0
O269 O 0.64051 0.84783 0.4843 0.0
C270 C 0.58654 0.89773 0.47256 0.0
O271 O 0.65028 0.91155 0.49446 0.0
O272 O 0.66341 0.92722 0.46869 0.0
In273 In 0.38184 0.3885 0.71667 0.0
O274 O 0.41848 0.4172 0.71593 0.0
O275 O 0.41591 0.38962 0.7382 0.0
C276 C 0.33333 0.40641 0.72923 0.0
C277 C 0.37984 0.39589 0.6795 0.0
C278 C 0.38294 0.33472 0.72251 0.0
O279 O 0.35502 0.41142 0.73777 0.0
O280 O 0.33637 0.39301 0.71453 0.0
O281 O 0.39706 0.34638 0.71039 0.0
O282 O 0.36816 0.35022 0.73193 0.0
C283 C 0.42974 0.40733 0.7301 0.0
O284 O 0.38595 0.37377 0.68699 0.0
O285 O 0.37514 0.41481 0.6908 0.0
In286 In 0.87451 0.12739 0.96582 0.0
O287 O 0.91621 0.14333 0.95961 0.0
O288 O 0.91222 0.11748 0.98303 0.0
C289 C 0.87097 0.12829 0.92838 0.0
C290 C 0.85728 0.07687 0.9755 0.0
C291 C 0.85306 0.1751 0.97763 0.0
O292 O 0.89201 0.12148 0.93699 0.0
O293 O 0.85143 0.13486 0.93867 0.0
O294 O 0.84117 0.15965 0.96639 0.0
O295 O 0.87441 0.16534 0.98424 0.0
C296 C 0.92771 0.13126 0.97284 0.0
O297 O 0.85573 0.09633 0.9868 0.0
O298 O 0.86602 0.08346 0.95976 0.0
In299 In 0.14103 0.6308 0.21362 0.0
O300 O 0.10469 0.60273 0.21988 0.0
O301 O 0.09842 0.64484 0.21989 0.0
C302 C 0.18499 0.60681 0.22922 0.0
C303 C 0.14241 0.62243 0.17655 0.0
C304 C 0.14953 0.6834 0.22069 0.0
O305 O 0.16396 0.6117 0.23846 0.0
O306 O 0.18311 0.61259 0.21226 0.0
O307 O 0.14846 0.67356 0.20455 0.0
O308 O 0.14613 0.6666 0.23371 0.0
C309 C 0.08811 0.62185 0.22163 0.0
O310 O 0.15199 0.64305 0.18427 0.0
O311 O 0.13202 0.60552 0.18758 0.0
In312 In 0.37366 0.88948 0.47293 0.0
O313 O 0.38846 0.87901 0.44404 0.0
O314 O 0.34942 0.89651 0.44639 0.0
C315 C 0.42716 0.89225 0.47975 0.0
C316 C 0.35594 0.83951 0.48294 0.0
C317 C 0.35392 0.93668 0.48692 0.0
O318 O 0.41641 0.90126 0.46517 0.0
O319 O 0.41093 0.88189 0.49114 0.0
O320 O 0.34905 0.91436 0.49462 0.0
O321 O 0.36783 0.93481 0.47244 0.0
C322 C 0.3679 0.88801 0.43578 0.0
O323 O 0.34685 0.85186 0.46893 0.0
O324 O 0.37239 0.85304 0.49244 0.0
In325 In 0.87359 0.63659 0.21819 0.0
O326 O 0.85294 0.64532 0.19071 0.0
O327 O 0.88808 0.621 0.18979 0.0
C328 C 0.85912 0.6876 0.22631 0.0
C329 C 0.92766 0.63414 0.22389 0.0
C330 C 0.83641 0.60576 0.23618 0.0
O331 O 0.85237 0.67577 0.21154 0.0
O332 O 0.87309 0.6736 0.23733 0.0
O333 O 0.85307 0.62035 0.2447 0.0
O334 O 0.84032 0.60465 0.21892 0.0
C335 C 0.86938 0.63238 0.18084 0.0
O336 O 0.91335 0.61304 0.22391 0.0
O337 O 0.91465 0.65554 0.22122 0.0
In338 In 0.14134 0.13672 0.96209 0.0
O339 O 0.1694 0.17388 0.96263 0.0
O340 O 0.13761 0.17222 0.98216 0.0
C341 C 0.16116 0.09069 0.97796 0.0
C342 C 0.15212 0.13259 0.92542 0.0
C343 C 0.08714 0.14069 0.96393 0.0
O344 O 0.16066 0.11286 0.98651 0.0
O345 O 0.15274 0.09213 0.96152 0.0
O346 O 0.10125 0.15362 0.95244 0.0
O347 O 0.10033 0.1255 0.97465 0.0
C348 C 0.15665 0.18581 0.9754 0.0
O349 O 0.13081 0.12375 0.93272 0.0
O350 O 0.16836 0.14356 0.93666 0.0
In351 In 0.63669 0.39857 0.71312 0.0
O352 O 0.62523 0.38401 0.68436 0.0
O353 O 0.64299 0.4229 0.68643 0.0
C354 C 0.63954 0.34518 0.71964 0.0
C355 C 0.58834 0.41862 0.72481 0.0
C356 C 0.68707 0.41474 0.72316 0.0
O357 O 0.63425 0.35527 0.70398 0.0
O358 O 0.64314 0.36213 0.7325 0.0
O359 O 0.66698 0.41902 0.73356 0.0
O360 O 0.68135 0.40331 0.7081 0.0
C361 C 0.63374 0.40464 0.67596 0.0
O362 O 0.60366 0.43124 0.7139 0.0
O363 O 0.59833 0.39712 0.73096 0.0
In364 In 0.37382 0.13501 0.53384 0.0
O365 O 0.38749 0.11908 0.5619 0.0
O366 O 0.35058 0.14084 0.56099 0.0
C367 C 0.42795 0.1407 0.53196 0.0
C368 C 0.35432 0.18287 0.521 0.0
C369 C 0.35354 0.09022 0.51676 0.0
O370 O 0.41562 0.12216 0.52356 0.0
O371 O 0.41304 0.15621 0.54121 0.0
O372 O 0.35352 0.09336 0.53412 0.0
O373 O 0.36229 0.11028 0.5079 0.0
C374 C 0.36769 0.12842 0.5708 0.0
O375 O 0.37248 0.16967 0.51287 0.0
O376 O 0.34461 0.17115 0.53506 0.0
In377 In 0.63991 0.6262 0.28082 0.0
O378 O 0.60489 0.59618 0.276 0.0
O379 O 0.59733 0.63781 0.27234 0.0
C380 C 0.684 0.60183 0.26559 0.0
C381 C 0.64001 0.61899 0.318 0.0
C382 C 0.64585 0.67947 0.27434 0.0
O383 O 0.66384 0.60845 0.25596 0.0
O384 O 0.68109 0.60596 0.2827 0.0
O385 O 0.64576 0.66922 0.29037 0.0
O386 O 0.64284 0.66282 0.26123 0.0
C387 C 0.58781 0.61432 0.2724 0.0
O388 O 0.65443 0.63632 0.30995 0.0
O389 O 0.62567 0.60486 0.30727 0.0
In390 In 0.14532 0.89372 0.02937 0.0
O391 O 0.17584 0.85854 0.02646 0.0
O392 O 0.1366 0.85297 0.0159 0.0
C393 C 0.16496 0.93848 0.01196 0.0
C394 C 0.15482 0.8989 0.06618 0.0
C395 C 0.09132 0.89486 0.02619 0.0
O396 O 0.16068 0.91671 0.00339 0.0
O397 O 0.1609 0.93703 0.02919 0.0
O398 O 0.1034 0.88314 0.03933 0.0
O399 O 0.10653 0.90604 0.01442 0.0
C400 C 0.15921 0.84257 0.01908 0.0
O401 O 0.13362 0.90717 0.05844 0.0
O402 O 0.17163 0.88813 0.05529 0.0
In403 In 0.87809 0.39176 0.78215 0.0
O404 O 0.91177 0.42366 0.78365 0.0
O405 O 0.91528 0.3934 0.76319 0.0
C406 C 0.83261 0.41581 0.76877 0.0
C407 C 0.87244 0.389 0.81949 0.0
C408 C 0.8813 0.33843 0.77517 0.0
O409 O 0.85003 0.40538 0.75826 0.0
O410 O 0.83905 0.41574 0.78569 0.0
O411 O 0.89672 0.3504 0.78638 0.0
O412 O 0.8643 0.35342 0.76724 0.0
C413 C 0.92604 0.41334 0.77102 0.0
O414 O 0.86085 0.37299 0.80849 0.0
O415 O 0.8869 0.4066 0.81167 0.0
H416 H 0.16896 0.65324 0.15151 0.0
H417 H 0.11654 0.58431 0.15581 0.0
H418 H 0.11505 0.58082 0.12184 0.0
H419 H 0.12727 0.59844 0.09107 0.0
H420 H 0.18017 0.667 0.08674 0.0
H421 H 0.18295 0.66952 0.12071 0.0
C422 C 0.1573 0.63737 0.14502 0.0
C423 C 0.14274 0.61914 0.15612 0.0
C424 C 0.15659 0.63549 0.12554 0.0
C425 C 0.12789 0.59858 0.14754 0.0
C426 C 0.12699 0.59663 0.12814 0.0
C427 C 0.1395 0.61389 0.09755 0.0
C428 C 0.15337 0.63264 0.08644 0.0
C429 C 0.14104 0.61514 0.11703 0.0
C430 C 0.16929 0.65238 0.09501 0.0
C431 C 0.17084 0.65385 0.11442 0.0
H432 H 0.65678 0.92104 0.40585 0.0
H433 H 0.61307 0.84623 0.40966 0.0
H434 H 0.60682 0.84593 0.37596 0.0
H435 H 0.61426 0.86645 0.34545 0.0
H436 H 0.65727 0.9416 0.34128 0.0
H437 H 0.66289 0.94252 0.37513 0.0
C438 C 0.64603 0.90462 0.39925 0.0
C439 C 0.63561 0.88356 0.41018 0.0
C440 C 0.64212 0.9048 0.37987 0.0
C441 C 0.62138 0.8626 0.40153 0.0
C442 C 0.61772 0.86245 0.38227 0.0
C443 C 0.62465 0.88318 0.35195 0.0
C444 C 0.63533 0.90393 0.34088 0.0
C445 C 0.62799 0.88343 0.37133 0.0
C446 C 0.64875 0.92545 0.34951 0.0
C447 C 0.65212 0.92588 0.36885 0.0
H448 H 0.39766 0.36118 0.65338 0.0
H449 H 0.3561 0.43674 0.65996 0.0
H450 H 0.34953 0.43956 0.62621 0.0
H451 H 0.35519 0.42005 0.59483 0.0
H452 H 0.39874 0.34554 0.58853 0.0
H453 H 0.40479 0.34268 0.62221 0.0
C454 C 0.38724 0.37832 0.64742 0.0
C455 C 0.3773 0.39868 0.65911 0.0
C456 C 0.38375 0.37988 0.62808 0.0
C457 C 0.364 0.42086 0.65121 0.0
C458 C 0.36015 0.42241 0.63194 0.0
C459 C 0.36588 0.40315 0.60089 0.0
C460 C 0.37633 0.38292 0.58928 0.0
C461 C 0.3698 0.40194 0.62025 0.0
C462 C 0.39049 0.36133 0.59722 0.0
C463 C 0.39397 0.35969 0.61645 0.0
H464 H 0.90508 0.10362 0.90469 0.0
H465 H 0.83375 0.15294 0.90617 0.0
H466 H 0.83283 0.1542 0.87209 0.0
H467 H 0.85312 0.14212 0.84191 0.0
H468 H 0.9235 0.09134 0.84075 0.0
H469 H 0.92391 0.08969 0.87471 0.0
C470 C 0.88931 0.11463 0.89754 0.0
C471 C 0.86963 0.12835 0.90787 0.0
C472 C 0.88875 0.11497 0.87804 0.0
C473 C 0.84913 0.14225 0.89848 0.0
C474 C 0.84863 0.14301 0.87902 0.0
C475 C 0.86847 0.13062 0.84912 0.0
C476 C 0.88834 0.11698 0.83887 0.0
C477 C 0.86845 0.12957 0.86866 0.0
C478 C 0.90799 0.10199 0.84834 0.0
C479 C 0.90828 0.1011 0.86775 0.0
H480 H 0.12042 0.41977 0.89622 0.0
H481 H 0.18481 0.36178 0.89929 0.0
H482 H 0.18733 0.36044 0.86529 0.0
H483 H 0.17015 0.37465 0.83478 0.0
H484 H 0.10696 0.43395 0.83167 0.0
H485 H 0.10522 0.43615 0.86566 0.0
C486 C 0.135 0.40686 0.88942 0.0
C487 C 0.15223 0.39068 0.90017 0.0
C488 C 0.13659 0.40652 0.86992 0.0
C489 C 0.1713 0.37434 0.89126 0.0
C490 C 0.17273 0.37357 0.87185 0.0
C491 C 0.15613 0.38819 0.84156 0.0
C492 C 0.1386 0.404 0.83078 0.0
C493 C 0.15535 0.38942 0.86105 0.0
C494 C 0.12069 0.42162 0.83969 0.0
C495 C 0.1196 0.42279 0.85911 0.0
H496 H 0.86296 0.85899 0.09916 0.0
H497 H 0.88542 0.94193 0.09087 0.0
H498 H 0.88859 0.94846 0.12455 0.0
H499 H 0.88633 0.93005 0.15645 0.0
H500 H 0.86633 0.84631 0.16428 0.0
H501 H 0.86097 0.84062 0.1308 0.0
C502 C 0.86828 0.87855 0.10475 0.0
C503 C 0.8738 0.89997 0.0926 0.0
C504 C 0.87074 0.88196 0.12408 0.0
C505 C 0.88104 0.92513 0.09999 0.0
C506 C 0.88291 0.92886 0.11924 0.0
C507 C 0.88078 0.91061 0.15079 0.0
C508 C 0.87679 0.88866 0.16282 0.0
C509 C 0.87807 0.90734 0.13143 0.0
C510 C 0.86968 0.86352 0.15531 0.0
C511 C 0.86651 0.86024 0.13616 0.0
H512 H 0.33594 0.62438 0.40467 0.0
H513 H 0.4208 0.60879 0.41106 0.0
H514 H 0.42546 0.6034 0.37744 0.0
H515 H 0.40599 0.60606 0.34598 0.0
H516 H 0.32139 0.62301 0.33966 0.0
H517 H 0.31602 0.62453 0.3734 0.0
C518 C 0.35541 0.61964 0.39871 0.0
C519 C 0.378 0.61719 0.41033 0.0
C520 C 0.358 0.61676 0.37934 0.0
C521 C 0.40309 0.61092 0.4024 0.0
C522 C 0.40579 0.60781 0.38317 0.0
C523 C 0.38632 0.60963 0.35202 0.0
C524 C 0.36415 0.61447 0.34035 0.0
C525 C 0.38346 0.61105 0.37146 0.0
C526 C 0.3388 0.61929 0.34835 0.0
C527 C 0.33571 0.62026 0.36765 0.0
H528 H 0.67576 0.10519 0.65302 0.0
H529 H 0.5909 0.12119 0.65854 0.0
H530 H 0.58631 0.12347 0.62473 0.0
H531 H 0.607 0.12462 0.59386 0.0
H532 H 0.69232 0.11128 0.58811 0.0
H533 H 0.69624 0.10438 0.62174 0.0
C534 C 0.6562 0.10858 0.64676 0.0
C535 C 0.63366 0.11289 0.65818 0.0
C536 C 0.6539 0.11082 0.62731 0.0
C537 C 0.60849 0.11775 0.64998 0.0
C538 C 0.6059 0.11921 0.63067 0.0
C539 C 0.62645 0.12008 0.59995 0.0
C540 C 0.64937 0.11866 0.58856 0.0
C541 C 0.62857 0.11644 0.61925 0.0
C542 C 0.67441 0.11268 0.59662 0.0
C543 C 0.67664 0.10866 0.61584 0.0
H544 H 0.89781 0.41875 0.84589 0.0
H545 H 0.84057 0.35431 0.83888 0.0
H546 H 0.83656 0.34974 0.87262 0.0
H547 H 0.85026 0.36323 0.90418 0.0
H548 H 0.90833 0.42697 0.91106 0.0
H549 H 0.91095 0.4327 0.87737 0.0
C550 C 0.88439 0.4038 0.85175 0.0
C551 C 0.86956 0.38689 0.83991 0.0
C552 C 0.88233 0.40112 0.87116 0.0
C553 C 0.85226 0.36756 0.84771 0.0
C554 C 0.84994 0.36491 0.867 0.0
C555 C 0.86334 0.37846 0.89829 0.0
C556 C 0.87907 0.39462 0.91009 0.0
C557 C 0.865 0.38148 0.87887 0.0
C558 C 0.89604 0.41422 0.90227 0.0
C559 C 0.89758 0.41752 0.883 0.0
H560 H 0.3529 0.13984 0.65754 0.0
H561 H 0.41644 0.08074 0.65722 0.0
H562 H 0.41503 0.07927 0.62321 0.0
H563 H 0.39758 0.09683 0.59358 0.0
H564 H 0.33347 0.15532 0.59391 0.0
H565 H 0.33311 0.15485 0.62795 0.0
C566 C 0.3663 0.12649 0.65002 0.0
C567 C 0.38491 0.11059 0.65985 0.0
C568 C 0.36532 0.12572 0.6305 0.0
C569 C 0.40197 0.09321 0.64996 0.0
C570 C 0.40123 0.09242 0.63052 0.0
C571 C 0.38339 0.10932 0.60111 0.0
C572 C 0.36573 0.12625 0.59127 0.0
C573 C 0.38327 0.1089 0.62065 0.0
C574 C 0.34729 0.14214 0.60118 0.0
C575 C 0.34713 0.14194 0.62063 0.0
H576 H 0.61315 0.60935 0.40328 0.0
H577 H 0.68858 0.65164 0.40782 0.0
H578 H 0.69385 0.6503 0.37389 0.0
H579 H 0.67579 0.63876 0.34295 0.0
H580 H 0.60135 0.59456 0.3388 0.0
H581 H 0.59697 0.59472 0.37268 0.0
C582 C 0.63076 0.61823 0.39682 0.0
C583 C 0.6503 0.63088 0.4079 0.0
C584 C 0.63381 0.61697 0.37745 0.0
C585 C 0.67327 0.64188 0.39949 0.0
C586 C 0.67624 0.64115 0.38013 0.0
C587 C 0.65873 0.62901 0.3495 0.0
C588 C 0.6388 0.61685 0.33845 0.0
C589 C 0.65647 0.62899 0.36898 0.0
C590 C 0.61693 0.60403 0.34705 0.0
C591 C 0.61436 0.60422 0.3664 0.0
H592 H 0.18181 0.88784 0.15148 0.0
H593 H 0.1096 0.93551 0.15603 0.0
H594 H 0.10665 0.93819 0.12207 0.0
H595 H 0.12314 0.92462 0.0912 0.0
H596 H 0.19533 0.87685 0.08678 0.0
H597 H 0.19983 0.87666 0.12067 0.0
C598 C 0.16554 0.899 0.14505 0.0
C599 C 0.14584 0.91132 0.15623 0.0
C600 C 0.16392 0.90032 0.12558 0.0
C601 C 0.12498 0.92584 0.14771 0.0
C602 C 0.12325 0.9273 0.12831 0.0
C603 C 0.13997 0.91433 0.09765 0.0
C604 C 0.15879 0.9006 0.08652 0.0
C605 C 0.14237 0.91425 0.11712 0.0
C606 C 0.18057 0.88751 0.09505 0.0
C607 C 0.18311 0.88735 0.11442 0.0
H608 H 0.84226 0.63972 0.09524 0.0
H609 H 0.92693 0.62176 0.09115 0.0
H610 H 0.9302 0.61907 0.12501 0.0
H611 H 0.90901 0.62193 0.15589 0.0
H612 H 0.82495 0.6424 0.16002 0.0
H613 H 0.82136 0.64381 0.12612 0.0
C614 C 0.86142 0.63531 0.10179 0.0
C615 C 0.88429 0.63095 0.09074 0.0
C616 C 0.86323 0.63408 0.12128 0.0
C617 C 0.90904 0.62535 0.09938 0.0
C618 C 0.91092 0.62368 0.11874 0.0
C619 C 0.88989 0.62647 0.14933 0.0
C620 C 0.86724 0.63183 0.16037 0.0
C621 C 0.88814 0.62793 0.12984 0.0
C622 C 0.84266 0.63813 0.15176 0.0
C623 C 0.84059 0.639 0.13239 0.0
H624 H 0.17851 0.14578 0.84008 0.0
H625 H 0.11877 0.08312 0.83602 0.0
H626 H 0.11498 0.08179 0.86997 0.0
H627 H 0.12697 0.10014 0.90066 0.0
H628 H 0.18792 0.16162 0.90479 0.0
H629 H 0.19308 0.16162 0.87091 0.0
C630 C 0.16479 0.13172 0.84665 0.0
C631 C 0.14876 0.11473 0.83559 0.0
C632 C 0.1629 0.13093 0.86614 0.0
C633 C 0.1313 0.0964 0.84425 0.0
C634 C 0.12906 0.0957 0.86365 0.0
C635 C 0.1415 0.11343 0.89413 0.0
C636 C 0.15689 0.13104 0.90515 0.0
C637 C 0.14449 0.11313 0.8747 0.0
C638 C 0.17585 0.1479 0.89658 0.0
C639 C 0.17873 0.14797 0.87722 0.0
H640 H 0.65432 0.42217 0.59011 0.0
H641 H 0.61118 0.34693 0.58749 0.0
H642 H 0.60614 0.34697 0.62131 0.0
H643 H 0.61412 0.36819 0.65155 0.0
H644 H 0.65634 0.44393 0.65438 0.0
H645 H 0.6613 0.44409 0.62049 0.0
C646 C 0.64397 0.40572 0.59698 0.0
C647 C 0.63332 0.38447 0.58637 0.0
C648 C 0.64076 0.4061 0.61641 0.0
C649 C 0.61963 0.36346 0.59539 0.0
C650 C 0.61669 0.3635 0.61471 0.0
C651 C 0.62426 0.38484 0.64475 0.0
C652 C 0.63485 0.40602 0.65544 0.0
C653 C 0.62711 0.38473 0.62533 0.0
C654 C 0.64792 0.42744 0.64644 0.0
C655 C 0.65088 0.42747 0.62708 0.0
H656 H 0.35202 0.91598 0.35074 0.0
H657 H 0.42619 0.87137 0.34679 0.0
H658 H 0.42599 0.86408 0.38044 0.0
H659 H 0.40447 0.86987 0.41086 0.0
H660 H 0.32937 0.91294 0.41485 0.0
H661 H 0.32993 0.92099 0.38125 0.0
C662 C 0.36828 0.90496 0.35732 0.0
C663 C 0.38925 0.89448 0.34639 0.0
C664 C 0.36764 0.90023 0.3766 0.0
C665 C 0.40993 0.87976 0.35497 0.0
C666 C 0.40976 0.87549 0.37418 0.0
C667 C 0.38812 0.88086 0.40436 0.0
C668 C 0.36689 0.89075 0.41531 0.0
C669 C 0.38862 0.88544 0.38509 0.0
C670 C 0.34586 0.90498 0.4067 0.0
C671 C 0.34626 0.90973 0.38752 0.0
H672 H 0.05312 0.63337 8e-05 0.0
H673 H 0.06235 0.58667 0.05038 0.0
H674 H 0.01385 0.58105 0.05251 0.0
H675 H 0.96894 0.59289 0.042 0.0
H676 H 0.95831 0.64063 0.99241 0.0
H677 H 1.00722 0.64208 0.98791 0.0
C678 C 0.04446 0.62164 0.01132 0.0
C679 C 0.06125 0.61068 0.02515 0.0
C680 C 0.01636 0.61883 0.01266 0.0
C681 C 0.04984 0.59553 0.03965 0.0
C682 C 0.0221 0.5923 0.04091 0.0
C683 C 0.97728 0.60338 0.03007 0.0
C684 C 0.96014 0.61689 0.01767 0.0
C685 C 1.00519 0.60444 0.02779 0.0
C686 C 0.97117 0.63013 0.00217 0.0
C687 C 0.99911 0.63106 -0.00034 0.0
H688 H 0.66254 0.71586 0.29951 0.0
H689 H 0.63457 0.70877 0.24292 0.0
H690 H 0.63505 0.75791 0.23968 0.0
H691 H 0.64075 0.80303 0.25386 0.0
H692 H 0.66906 0.8089 0.31054 0.0
H693 H 0.67131 0.76011 0.31276 0.0
C694 C 0.65669 0.72505 0.28642 0.0
C695 C 0.64827 0.7088 0.27154 0.0
C696 C 0.65703 0.75311 0.2847 0.0
C697 C 0.64108 0.72093 0.25459 0.0
C698 C 0.64128 0.749 0.25276 0.0
C699 C 0.64767 0.79358 0.2666 0.0
C700 C 0.65452 0.80957 0.28206 0.0
C701 C 0.64883 0.76533 0.26784 0.0
C702 C 0.66354 0.79708 0.29847 0.0
C703 C 0.6648 0.76915 0.29978 0.0
H704 H 0.45984 0.42591 0.5376 0.0
H705 H 0.45074 0.3594 0.49954 0.0
H706 H 0.49954 0.35627 0.49626 0.0
H707 H 0.54481 0.37042 0.50589 0.0
H708 H 0.55381 0.43663 0.54421 0.0
H709 H 0.50504 0.44196 0.54563 0.0
C710 C 0.46854 0.41092 0.52844 0.0
C711 C 0.45175 0.39281 0.51893 0.0
C712 C 0.49659 0.40907 0.52675 0.0
C713 C 0.46327 0.37354 0.50706 0.0
C714 C 0.49117 0.37168 0.50521 0.0
C715 C 0.53608 0.38615 0.51442 0.0
C716 C 0.55284 0.40297 0.52503 0.0
C717 C 0.50802 0.38901 0.51526 0.0
C718 C 0.5413 0.42336 0.53596 0.0
C719 C 0.51342 0.42641 0.53681 0.0
H720 H 0.91511 0.30311 0.7917 0.0
H721 H 0.84933 0.3077 0.75266 0.0
H722 H 0.84914 0.25863 0.74982 0.0
H723 H 0.86644 0.2143 0.75957 0.0
H724 H 0.93171 0.21023 0.79908 0.0
H725 H 0.93337 0.25922 0.80054 0.0
C726 C 0.90084 0.29339 0.78247 0.0
C727 C 0.88221 0.30898 0.77246 0.0
C728 C 0.90069 0.26526 0.78104 0.0
C729 C 0.86386 0.29611 0.76055 0.0
C730 C 0.86371 0.26807 0.75894 0.0
C731 C 0.88112 0.22417 0.76839 0.0
C732 C 0.89885 0.20867 0.77925 0.0
C733 C 0.88184 0.25242 0.76929 0.0
C734 C 0.91778 0.22171 0.79063 0.0
C735 C 0.91875 0.24973 0.79148 0.0
H736 H 0.97139 0.40642 0.98756 0.0
H737 H 0.96344 0.34096 0.94848 0.0
H738 H 0.01212 0.33903 0.94489 0.0
H739 H 0.05674 0.35725 0.95157 0.0
H740 H 0.06545 0.42238 0.99076 0.0
H741 H 0.01672 0.42305 0.99567 0.0
C742 C 0.98037 0.39161 0.97839 0.0
C743 C 0.96382 0.37397 0.96823 0.0
C744 C 1.00848 0.39062 0.97634 0.0
C745 C 0.97571 0.35482 0.95644 0.0
C746 C 1.00356 0.35372 0.95433 0.0
C747 C 0.04799 0.37152 0.96126 0.0
C748 C 0.0646 0.38987 0.97068 0.0
C749 C 0.02009 0.37175 0.96401 0.0
C750 C 0.05303 0.40807 0.98331 0.0
C751 C 0.02519 0.40849 0.98609 0.0
H752 H 0.8352 0.81037 0.21792 0.0
H753 H 0.89894 0.81539 0.2585 0.0
H754 H 0.89848 0.76637 0.262 0.0
H755 H 0.88397 0.72194 0.25029 0.0
H756 H 0.82187 0.71778 0.20842 0.0
H757 H 0.81743 0.76661 0.20882 0.0
C758 C 0.84871 0.80079 0.22776 0.0
C759 C 0.86731 0.81637 0.23775 0.0
C760 C 0.84875 0.77272 0.22935 0.0
C761 C 0.8845 0.80375 0.25059 0.0
C762 C 0.88434 0.77573 0.25252 0.0
C763 C 0.8691 0.73175 0.24157 0.0
C764 C 0.85347 0.71639 0.22919 0.0
C765 C 0.86715 0.75996 0.2415 0.0
C766 C 0.83431 0.72925 0.21792 0.0
C767 C 0.83179 0.75716 0.21811 0.0
H768 H 0.46113 0.66937 0.46156 0.0
H769 H 0.45504 0.60189 0.49913 0.0
H770 H 0.50408 0.60032 0.50187 0.0
H771 H 0.54873 0.61592 0.49151 0.0
H772 H 0.55419 0.68231 0.45294 0.0
H773 H 0.50535 0.68664 0.45278 0.0
C774 C 0.47051 0.6545 0.47052 0.0
C775 C 0.45453 0.63567 0.48003 0.0
C776 C 0.49861 0.65344 0.47176 0.0
C777 C 0.46695 0.61656 0.49161 0.0
C778 C 0.49497 0.61561 0.49315 0.0
C779 C 0.5392 0.63154 0.48328 0.0
C780 C 0.555 0.64866 0.47217 0.0
C781 C 0.51102 0.63362 0.48298 0.0
C782 C 0.54244 0.66878 0.46153 0.0
C783 C 0.51451 0.67126 0.4614 0.0
H784 H 0.64908 0.22209 0.74148 0.0
H785 H 0.64198 0.21483 0.68177 0.0
H786 H 0.63938 0.26343 0.67874 0.0
H787 H 0.63842 0.30778 0.69273 0.0
H788 H 0.6458 0.31673 0.75221 0.0
H789 H 0.64898 0.26767 0.75568 0.0
C790 C 0.64703 0.23123 0.72785 0.0
C791 C 0.64564 0.21486 0.71189 0.0
C792 C 0.64552 0.25942 0.72615 0.0
C793 C 0.64302 0.22692 0.69429 0.0
C794 C 0.64153 0.25474 0.69251 0.0
C795 C 0.64069 0.29906 0.70649 0.0
C796 C 0.64173 0.31579 0.7222 0.0
C797 C 0.6426 0.27112 0.70832 0.0
C798 C 0.6449 0.30419 0.73991 0.0
C799 C 0.64671 0.27619 0.74188 0.0
H800 H 0.41422 0.29903 0.70424 0.0
H801 H 0.35243 0.30424 0.74622 0.0
H802 H 0.35206 0.25513 0.74911 0.0
H803 H 0.36847 0.21062 0.73891 0.0
H804 H 0.43013 0.20615 0.69673 0.0
H805 H 0.43142 0.25509 0.69478 0.0
C806 C 0.40073 0.28945 0.71408 0.0
C807 C 0.38332 0.30521 0.72495 0.0
C808 C 0.40058 0.26134 0.71561 0.0
C809 C 0.36602 0.29251 0.73768 0.0
C810 C 0.36577 0.26445 0.73932 0.0
C811 C 0.38226 0.2204 0.72938 0.0
C812 C 0.39912 0.20479 0.71796 0.0
C813 C 0.38284 0.24864 0.72825 0.0
C814 C 0.41691 0.21771 0.70566 0.0
C815 C 0.41766 0.2457 0.70451 0.0
H816 H 0.16361 0.71981 0.19485 0.0
H817 H 0.14385 0.7123 0.25306 0.0
H818 H 0.14627 0.76136 0.25657 0.0
H819 H 0.15074 0.80662 0.24225 0.0
H820 H 0.16918 0.81275 0.18368 0.0
H821 H 0.1708 0.76394 0.18119 0.0
C822 C 0.16 0.72885 0.20836 0.0
C823 C 0.1533 0.71255 0.22363 0.0
C824 C 0.16115 0.75684 0.21018 0.0
C825 C 0.14896 0.72451 0.24108 0.0
C826 C 0.15028 0.75253 0.24307 0.0
C827 C 0.15545 0.79719 0.22904 0.0
C828 C 0.15964 0.81321 0.21314 0.0
C829 C 0.15589 0.76895 0.22761 0.0
C830 C 0.16566 0.80082 0.19608 0.0
C831 C 0.16658 0.77292 0.19462 0.0
H832 H 0.11599 0.21345 0.78958 0.0
H833 H 0.18103 0.20808 0.75002 0.0
H834 H 0.18095 0.25708 0.74651 0.0
H835 H 0.1629 0.3015 0.75526 0.0
H836 H 0.09769 0.30627 0.79478 0.0
H837 H 0.09729 0.25738 0.79767 0.0
C838 C 0.13013 0.22298 0.78017 0.0
C839 C 0.14855 0.20723 0.77014 0.0
C840 C 0.12993 0.25103 0.77821 0.0
C841 C 0.16666 0.21983 0.75792 0.0
C842 C 0.16664 0.24782 0.75592 0.0
C843 C 0.14855 0.2918 0.76444 0.0
C844 C 0.1304 0.30745 0.77481 0.0
C845 C 0.14844 0.26363 0.76607 0.0
C846 C 0.11188 0.29465 0.78664 0.0
C847 C 0.11165 0.2667 0.78833 0.0
H848 H 0.36824 0.72064 0.25736 0.0
H849 H 0.35703 0.71214 0.31665 0.0
H850 H 0.35584 0.76085 0.32018 0.0
H851 H 0.36132 0.80548 0.30699 0.0
H852 H 0.37455 0.81531 0.24804 0.0
H853 H 0.37148 0.76642 0.24373 0.0
C854 C 0.36518 0.72955 0.27098 0.0
C855 C 0.36287 0.71293 0.28675 0.0
C856 C 0.36512 0.75771 0.27298 0.0
C857 C 0.35907 0.72458 0.30434 0.0
C858 C 0.3584 0.75241 0.30638 0.0
C859 C 0.36337 0.79699 0.29315 0.0
C860 C 0.36838 0.81389 0.27787 0.0
C861 C 0.36198 0.7691 0.29087 0.0
C862 C 0.37078 0.80263 0.26003 0.0
C863 C 0.36907 0.77471 0.25758 0.0
H864 H 0.46403 0.11213 0.51138 0.0
H865 H 0.45818 0.17596 0.55188 0.0
H866 H 0.50706 0.17991 0.55266 0.0
H867 H 0.55146 0.16417 0.54281 0.0
H868 H 0.55784 0.10059 0.5022 0.0
H869 H 0.50878 0.09775 0.50037 0.0
C870 C 0.47349 0.12696 0.52031 0.0
C871 C 0.45752 0.14362 0.53163 0.0
C872 C 0.50167 0.12918 0.52067 0.0
C873 C 0.47002 0.16285 0.54306 0.0
C874 C 0.49797 0.16512 0.54353 0.0
C875 C 0.54212 0.14981 0.53346 0.0
C876 C 0.55823 0.13254 0.52272 0.0
C877 C 0.51399 0.14824 0.53253 0.0
C878 C 0.54585 0.11411 0.51062 0.0
C879 C 0.51781 0.11242 0.50961 0.0
H880 H 0.96687 0.90917 0.01171 0.0
H881 H 0.96349 0.85763 0.06005 0.0
H882 H 0.01245 0.85637 0.06137 0.0
H883 H 0.05612 0.87001 0.04903 0.0
H884 H 0.06022 0.92106 0.00052 0.0
H885 H 0.01104 0.92237 -0.00101 0.0
C886 C 0.9769 0.89767 0.02251 0.0
C887 C 0.96162 0.88353 0.03577 0.0
C888 C 1.00512 0.89693 0.02315 0.0
C889 C 0.97482 0.86865 0.04966 0.0
C890 C 1.00281 0.86793 0.05045 0.0
C891 C 0.04627 0.88141 0.0381 0.0
C892 C 0.06172 0.89545 0.02493 0.0
C893 C 0.01814 0.882 0.03729 0.0
C894 C 0.0487 0.91008 0.01082 0.0
C895 C 0.02061 0.91085 0.00995 0.0
H896 H 0.46359 0.92075 0.46015 0.0
H897 H 0.45646 0.86447 0.5056 0.0
H898 H 0.50554 0.86213 0.50814 0.0
H899 H 0.55046 0.87404 0.49598 0.0
H900 H 0.55682 0.93091 0.45074 0.0
H901 H 0.50804 0.93518 0.44966 0.0
C902 C 0.47278 0.90811 0.47071 0.0
C903 C 0.45653 0.89262 0.48256 0.0
C904 C 0.50085 0.90691 0.47207 0.0
C905 C 0.46863 0.87655 0.4963 0.0
C906 C 0.49666 0.87515 0.49771 0.0
C907 C 0.54113 0.88754 0.48602 0.0
C908 C 0.55719 0.90197 0.47337 0.0
C909 C 0.51298 0.88992 0.48546 0.0
C910 C 0.54489 0.91952 0.46061 0.0
C911 C 0.51699 0.92194 0.45994 0.0
H912 H 0.05203 0.11525 0.98727 0.0
H913 H 0.05583 0.17147 0.9415 0.0
H914 H 1.00695 0.17455 0.94102 0.0
H915 H 0.9632 0.16005 0.9526 0.0
H916 H 0.95844 0.10355 0.99808 0.0
H917 H 1.00763 0.102 -0.00019 0.0
C918 C 0.04212 0.12823 0.97726 0.0
C919 C 0.05753 0.14299 0.96438 0.0
C920 C 0.01388 0.12989 0.97701 0.0
C921 C 0.04444 0.15982 0.95153 0.0
C922 C 0.01648 0.16162 0.95123 0.0
C923 C 0.97289 0.14753 0.963 0.0
C924 C 0.95723 0.13187 0.97515 0.0
C925 C 1.00102 0.14657 0.96377 0.0
C926 C 0.97009 0.11581 0.98857 0.0
C927 C 0.99819 0.11485 0.98951 0.0
H928 H 0.18393 0.46297 0.00063 0.0
H929 H 0.16043 0.48578 0.94497 0.0
H930 H 0.16244 0.53308 0.95345 0.0
H931 H 0.16565 0.56796 0.97751 0.0
H932 H 0.18992 0.54591 0.03308 0.0
H933 H 0.19331 0.49879 0.02374 0.0
C934 C 0.17974 0.47832 0.9903 0.0
C935 C 0.17167 0.4707 0.97227 0.0
C936 C 0.18091 0.50579 0.99526 0.0
C937 C 0.16646 0.49094 0.95902 0.0
C938 C 0.16755 0.51811 0.96384 0.0
C939 C 0.17226 0.55293 0.98747 0.0
C940 C 0.17726 0.56048 0.00599 0.0
C941 C 0.17398 0.52577 0.98204 0.0
C942 C 0.18591 0.54072 0.01871 0.0
C943 C 0.18767 0.51366 0.01342 0.0
H944 H 0.7898 0.9288 0.21961 0.0
H945 H 0.82669 0.92452 0.2739 0.0
H946 H 0.78232 0.92527 0.28853 0.0
H947 H 0.73317 0.92152 0.28574 0.0
H948 H 0.69613 0.92439 0.23148 0.0
H949 H 0.74036 0.93004 0.21702 0.0
C950 C 0.78817 0.92862 0.23466 0.0
C951 C 0.81161 0.92644 0.24563 0.0
C952 C 0.76251 0.92845 0.24298 0.0
C953 C 0.80906 0.92619 0.26511 0.0
C954 C 0.78365 0.92644 0.27349 0.0
C955 C 0.73471 0.92381 0.27076 0.0
C956 C 0.71135 0.92227 0.25969 0.0
C957 C 0.76025 0.92668 0.26254 0.0
C958 C 0.71374 0.92543 0.24032 0.0
C959 C 0.73907 0.92855 0.23205 0.0
H960 H 0.34138 0.48252 0.53305 0.0
H961 H 0.3412 0.44507 0.47889 0.0
H962 H 0.3386 0.48929 0.46407 0.0
H963 H 0.34172 0.53855 0.46645 0.0
H964 H 0.34325 0.57608 0.52057 0.0
H965 H 0.33962 0.53193 0.53544 0.0
C966 C 0.34028 0.484 0.51801 0.0
C967 C 0.34171 0.46048 0.50709 0.0
C968 C 0.33925 0.50955 0.50957 0.0
C969 C 0.3402 0.4628 0.48763 0.0
C970 C 0.33884 0.48811 0.47914 0.0
C971 C 0.34078 0.53713 0.4815 0.0
C972 C 0.34298 0.56061 0.49239 0.0
C973 C 0.33916 0.51163 0.48996 0.0
C974 C 0.34163 0.55837 0.51186 0.0
C975 C 0.3397 0.53309 0.52038 0.0
H976 H 0.82471 0.1182 0.7323 0.0
H977 H 0.80448 0.08245 0.78516 0.0
H978 H 0.757 0.08117 0.77631 0.0
H979 H 0.72043 0.0941 0.75451 0.0
H980 H 0.74146 0.13085 0.70205 0.0
H981 H 0.78898 0.12769 0.70972 0.0
C982 C 0.81 0.10967 0.74175 0.0
C983 C 0.81823 0.10051 0.75938 0.0
C984 C 0.78262 0.10945 0.73672 0.0
C985 C 0.79878 0.08964 0.77148 0.0
C986 C 0.77153 0.08903 0.76647 0.0
C987 C 0.73545 0.10108 0.7447 0.0
C988 C 0.72725 0.11292 0.7278 0.0
C989 C 0.76307 0.09948 0.74928 0.0
C990 C 0.74706 0.12187 0.71524 0.0
C991 C 0.77436 0.12007 0.71959 0.0
H992 H 0.84556 0.5541 0.98931 0.0
H993 H 0.86023 0.53446 0.04695 0.0
H994 H 0.85938 0.48671 0.03966 0.0
H995 H 0.85903 0.4503 0.01648 0.0
H996 H 0.84195 0.46908 0.9591 0.0
H997 H 0.83887 0.5169 0.96672 0.0
C998 C 0.84808 0.53935 0.0003 0.0
C999 C 0.85325 0.54803 0.01862 0.0
C1000 C 0.84734 0.51158 0.99605 0.0
C1001 C 0.85632 0.52853 0.0327 0.0
C1002 C 0.85595 0.50108 0.02855 0.0
C1003 C 0.85414 0.46481 0.00572 0.0
C1004 C 0.85093 0.45609 0.98724 0.0
C1005 C 0.85217 0.49235 0.01021 0.0
C1006 C 0.84446 0.47518 0.97347 0.0
C1007 C 0.84286 0.50263 0.97779 0.0
H1008 H 0.24341 0.10115 0.78273 0.0
H1009 H 0.20805 0.08764 0.72871 0.0
H1010 H 0.25294 0.08333 0.71503 0.0
H1011 H 0.30215 0.0882 0.7179 0.0
H1012 H 0.33724 0.10318 0.77184 0.0
H1013 H 0.29261 0.10182 0.78608 0.0
C1014 C 0.24548 0.09683 0.768 0.0
C1015 C 0.22233 0.09489 0.75674 0.0
C1016 C 0.27136 0.09484 0.76019 0.0
C1017 C 0.22546 0.08923 0.7377 0.0
C1018 C 0.25116 0.0869 0.72986 0.0
C1019 C 0.30009 0.0907 0.73282 0.0
C1020 C 0.32307 0.09594 0.74377 0.0
C1021 C 0.27426 0.09037 0.74088 0.0
C1022 C 0.31997 0.09915 0.76308 0.0
C1023 C 0.2944 0.09849 0.77122 0.0
H1024 H 0.6438 0.4559 0.47983 0.0
H1025 H 0.68734 0.47112 0.53062 0.0
H1026 H 0.69025 0.51902 0.52277 0.0
H1027 H 0.67598 0.55757 0.5028 0.0
H1028 H 0.63171 0.54084 0.45241 0.0
H1029 H 0.63362 0.49296 0.45876 0.0
C1030 C 0.65439 0.46958 0.48903 0.0
C1031 C 0.6652 0.45991 0.50581 0.0
C1032 C 0.65553 0.49711 0.48461 0.0
C1033 C 0.67888 0.47798 0.51756 0.0
C1034 C 0.68036 0.50546 0.51314 0.0
C1035 C 0.6671 0.54338 0.49314 0.0
C1036 C 0.65341 0.55296 0.47728 0.0
C1037 C 0.66807 0.51544 0.49693 0.0
C1038 C 0.64208 0.53421 0.46485 0.0
C1039 C 0.64318 0.5067 0.46843 0.0
H1040 H 0.20723 0.9173 0.26567 0.0
H1041 H 0.23235 0.93983 0.21036 0.0
H1042 H 0.27899 0.94279 0.22079 0.0
H1043 H 0.31348 0.93371 0.24487 0.0
H1044 H 0.28776 0.91191 0.30024 0.0
H1045 H 0.24092 0.91424 0.29061 0.0
C1046 C 0.22283 0.92342 0.25599 0.0
C1047 C 0.21626 0.92807 0.23723 0.0
C1048 C 0.24973 0.92493 0.26206 0.0
C1049 C 0.23677 0.93607 0.2249 0.0
C1050 C 0.26355 0.93761 0.23082 0.0
C1051 C 0.2976 0.92998 0.25489 0.0
C1052 C 0.30426 0.92231 0.27319 0.0
C1053 C 0.27042 0.93129 0.24925 0.0
C1054 C 0.28335 0.91766 0.28601 0.0
C1055 C 0.25644 0.91891 0.28052 0.0
H1056 H 0.66071 0.03623 0.53415 0.0
H1057 H 0.67407 0.0724 0.48035 0.0
H1058 H 0.67902 0.02763 0.46646 0.0
H1059 H 0.67472 0.9782 0.46915 0.0
H1060 H 0.65974 0.94265 0.52298 0.0
H1061 H 0.66064 0.98716 0.53734 0.0
C1062 C 0.66505 0.03437 0.51941 0.0
C1063 C 0.66677 0.05765 0.50826 0.0
C1064 C 0.66748 1.00862 0.51152 0.0
C1065 C 0.6726 0.05484 0.48923 0.0
C1066 C 0.67533 0.02922 0.48128 0.0
C1067 C 0.67221 0.98014 0.48408 0.0
C1068 C 0.66705 0.95707 0.49497 0.0
C1069 C 0.67214 1.00595 0.49221 0.0
C1070 C 0.6637 0.96001 0.51428 0.0
C1071 C 0.66408 0.98549 0.52249 0.0
H1072 H 0.2251 0.4258 0.77322 0.0
H1073 H 0.19184 0.40471 0.71971 0.0
H1074 H 0.23697 0.40353 0.70631 0.0
H1075 H 0.28601 0.4039 0.71052 0.0
H1076 H 0.31964 0.4246 0.76397 0.0
H1077 H 0.2743 0.43069 0.77663 0.0
C1078 C 0.22768 0.42145 0.75854 0.0
C1079 C 0.20506 0.41519 0.74752 0.0
C1080 C 0.25381 0.42042 0.75097 0.0
C1081 C 0.20882 0.40959 0.72852 0.0
C1082 C 0.23468 0.40875 0.72087 0.0
C1083 C 0.28344 0.41006 0.7249 0.0
C1084 C 0.3062 0.41352 0.73634 0.0
C1085 C 0.25734 0.41339 0.73208 0.0
C1086 C 0.3025 0.42175 0.75487 0.0
C1087 C 0.27655 0.42514 0.76213 0.0
H1088 H 0.8607 0.95073 0.98455 0.0
H1089 H 0.8314 0.97017 0.03936 0.0
H1090 H 0.82827 0.01772 0.03072 0.0
H1091 H 0.8384 0.05467 0.00834 0.0
H1092 H 0.86622 0.03391 0.95327 0.0
H1093 H 0.86518 0.98644 0.96121 0.0
C1094 C 0.85311 0.96529 0.99448 0.0
C1095 C 0.84644 0.95687 0.01258 0.0
C1096 C 0.85139 0.99262 0.98944 0.0
C1097 C 0.83657 0.97603 0.02528 0.0
C1098 C 0.83498 1.00333 0.02039 0.0
C1099 C 0.84383 0.03971 0.99803 0.0
C1100 C 0.85269 0.04805 0.9803 0.0
C1101 C 0.84303 0.01202 0.00264 0.0
C1102 C 0.85948 0.02828 0.96707 0.0
C1103 C 0.85896 1.00098 0.97159 0.0
H1104 H 0.28832 0.59128 0.27877 0.0
H1105 H 0.32656 0.6063 0.22588 0.0
H1106 H 0.28288 0.60427 0.21029 0.0
H1107 H 0.23362 0.60405 0.21228 0.0
H1108 H 0.19501 0.59285 0.26549 0.0
H1109 H 0.23898 0.58728 0.28035 0.0
C1110 C 0.28717 0.59346 0.26377 0.0
C1111 C 0.31069 0.59894 0.25348 0.0
C1112 C 0.26184 0.5933 0.255 0.0
C1113 C 0.30879 0.60205 0.2341 0.0
C1114 C 0.28379 0.60104 0.2252 0.0
C1115 C 0.23477 0.5999 0.22708 0.0
C1116 C 0.21103 0.599 0.23778 0.0
C1117 C 0.26012 0.59757 0.2356 0.0
C1118 C 0.21293 0.59369 0.25695 0.0
C1119 C 0.2381 0.59061 0.26545 0.0
H1120 H 0.33901 0.04307 0.53356 0.0
H1121 H 0.35629 0.07801 0.47986 0.0
H1122 H 0.35514 0.03347 0.46562 0.0
H1123 H 0.35432 0.98443 0.46898 0.0
H1124 H 0.33767 0.94879 0.52248 0.0
H1125 H 0.33312 0.99374 0.53622 0.0
C1126 C 0.34202 0.04098 0.51868 0.0
C1127 C 0.34797 0.06388 0.50782 0.0
C1128 C 0.34168 0.01515 0.51059 0.0
C1129 C 0.35177 0.06079 0.48856 0.0
C1130 C 0.35123 0.03528 0.48041 0.0
C1131 C 0.3493 0.98647 0.4836 0.0
C1132 C 0.34662 0.96331 0.49475 0.0
C1133 C 0.34701 0.01229 0.49138 0.0
C1134 C 0.33985 0.96629 0.51361 0.0
C1135 C 0.33741 0.992 0.52148 0.0
H1136 H 0.7314 0.59613 0.28386 0.0
H1137 H 0.69618 0.59169 0.22907 0.0
H1138 H 0.74103 0.58771 0.21529 0.0
H1139 H 0.79012 0.59197 0.21856 0.0
H1140 H 0.82503 0.60058 0.2732 0.0
H1141 H 0.78051 0.59593 0.28733 0.0
C1142 C 0.73347 0.59373 0.26892 0.0
C1143 C 0.71044 0.59438 0.25749 0.0
C1144 C 0.75935 0.59238 0.26108 0.0
C1145 C 0.71354 0.59132 0.23817 0.0
C1146 C 0.73921 0.58916 0.23029 0.0
C1147 C 0.78809 0.59209 0.23359 0.0
C1148 C 0.81089 0.59664 0.24483 0.0
C1149 C 0.76228 0.59057 0.24156 0.0
C1150 C 0.80784 0.59708 0.26426 0.0
C1151 C 0.78235 0.59461 0.27233 0.0
H1152 H 0.17378 0.98722 0.02809 0.0
H1153 H 0.16689 0.94857 0.97455 0.0
H1154 H 0.16761 0.99249 0.95917 0.0
H1155 H 0.16545 0.04188 0.96118 0.0
H1156 H 0.17155 0.0806 0.01473 0.0
H1157 H 0.17614 0.03668 0.02984 0.0
C1158 C 0.1729 0.98836 0.01303 0.0
C1159 C 0.1701 0.96458 0.0025 0.0
C1160 C 0.17293 0.01374 0.00429 0.0
C1161 C 0.16905 0.96649 0.983 0.0
C1162 C 0.16931 0.99163 0.9742 0.0
C1163 C 0.16817 0.04075 0.97614 0.0
C1164 C 0.16793 0.06453 0.98683 0.0
C1165 C 0.17051 0.0154 0.98473 0.0
C1166 C 0.17162 0.06267 0.00617 0.0
C1167 C 0.17413 0.03752 0.01483 0.0
H1168 H 0.81275 0.41449 0.73346 0.0
H1169 H 0.79039 0.43277 0.79004 0.0
H1170 H 0.74327 0.43668 0.78079 0.0
H1171 H 0.70762 0.42985 0.75714 0.0
H1172 H 0.73064 0.41106 0.70071 0.0
H1173 H 0.77792 0.41268 0.70933 0.0
C1174 C 0.79765 0.41985 0.7437 0.0
C1175 C 0.80512 0.42311 0.76243 0.0
C1176 C 0.77048 0.4217 0.73834 0.0
C1177 C 0.78524 0.43008 0.77551 0.0
C1178 C 0.7582 0.43219 0.77025 0.0
C1179 C 0.72301 0.4266 0.7467 0.0
C1180 C 0.7155 0.42004 0.72836 0.0
C1181 C 0.75044 0.42727 0.75179 0.0
C1182 C 0.73576 0.41589 0.71498 0.0
C1183 C 0.7629 0.41678 0.71988 0.0
H1184 H 0.1247 0.80563 0.00507 0.0
H1185 H 0.20422 0.81328 0.02838 0.0
H1186 H 0.20896 0.76415 0.02868 0.0
H1187 H 0.18853 0.71868 0.02497 0.0
H1188 H 0.10805 0.71241 0.00291 0.0
H1189 H 0.10579 0.76107 -0.00061 0.0
C1190 C 0.14327 0.79663 0.00996 0.0
C1191 C 0.16404 0.8132 0.01674 0.0
C1192 C 0.1456 0.76843 0.01047 0.0
C1193 C 0.18792 0.80106 0.02305 0.0
C1194 C 0.19058 0.77292 0.02331 0.0
C1195 C 0.17072 0.72799 0.01911 0.0
C1196 C 0.14845 0.71185 0.01428 0.0
C1197 C 0.16928 0.75633 0.01744 0.0
C1198 C 0.12542 0.72428 0.00684 0.0
C1199 C 0.12407 0.75217 0.00483 0.0
H1200 H 0.5535 0.94099 0.2862 0.0
H1201 H 0.55906 0.87436 0.24792 0.0
H1202 H 0.5103 0.87368 0.24467 0.0
H1203 H 0.46586 0.88844 0.2553 0.0
H1204 H 0.45944 0.95436 0.29402 0.0
H1205 H 0.50847 0.95915 0.29425 0.0
C1206 C 0.54405 0.9267 0.27687 0.0
C1207 C 0.56002 0.90762 0.26743 0.0
C1208 C 0.51573 0.92613 0.27524 0.0
C1209 C 0.54737 0.88918 0.25544 0.0
C1210 C 0.5194 0.88871 0.2536 0.0
C1211 C 0.47512 0.90421 0.26353 0.0
C1212 C 0.45893 0.9209 0.27471 0.0
C1213 C 0.50334 0.90656 0.26382 0.0
C1214 C 0.47135 0.94125 0.28525 0.0
C1215 C 0.49945 0.94388 0.28548 0.0
H1216 H 0.32346 0.21896 0.54026 0.0
H1217 H 0.37275 0.21105 0.49114 0.0
H1218 H 0.37097 0.25958 0.48623 0.0
H1219 H 0.3607 0.30463 0.4982 0.0
H1220 H 0.3126 0.31311 0.54779 0.0
H1221 H 0.30821 0.26418 0.54999 0.0
C1222 C 0.33329 0.2278 0.52825 0.0
C1223 C 0.34845 0.21135 0.51619 0.0
C1224 C 0.33261 0.25593 0.52567 0.0
C1225 C 0.36108 0.22319 0.50071 0.0
C1226 C 0.36016 0.251 0.49792 0.0
C1227 C 0.34874 0.29582 0.50926 0.0
C1228 C 0.3372 0.31256 0.52291 0.0
C1229 C 0.34678 0.26765 0.51066 0.0
C1230 C 0.32171 0.30076 0.5371 0.0
C1231 C 0.31935 0.27272 0.53844 0.0
H1232 H 0.97731 0.12868 0.74584 0.0
H1233 H 0.96839 0.06389 0.78531 0.0
H1234 H 0.01717 0.05776 0.78608 0.0
H1235 H 0.06274 0.07468 0.77852 0.0
H1236 H 0.07117 0.13948 0.73895 0.0
H1237 H 0.02251 0.14145 0.73512 0.0
C1238 C 0.98599 0.11282 0.75431 0.0
C1239 C 0.96915 0.09693 0.7656 0.0
C1240 C 0.01414 0.10957 0.75483 0.0
C1241 C 0.9808 0.07642 0.77645 0.0
C1242 C 1.00878 0.07302 0.777 0.0
C1243 C 0.05396 0.08883 0.76876 0.0
C1244 C 0.0707 0.10708 0.75918 0.0
C1245 C 0.02573 0.09004 0.7667 0.0
C1246 C 0.05888 0.12526 0.74658 0.0
C1247 C 0.03096 0.1265 0.74442 0.0
H1248 H 0.19232 0.22159 0.96004 0.0
H1249 H 0.12907 0.21532 0.00092 0.0
H1250 H 0.1289 0.26405 0.00472 0.0
H1251 H 0.14265 0.30877 0.99364 0.0
H1252 H 0.20561 0.31555 0.95264 0.0
H1253 H 0.21026 0.26658 0.95194 0.0
C1254 C 0.17891 0.23085 0.97006 0.0
C1255 C 0.16055 0.21474 0.98003 0.0
C1256 C 0.1787 0.25911 0.97206 0.0
C1257 C 0.14333 0.22714 0.99298 0.0
C1258 C 0.14314 0.2551 0.99512 0.0
C1259 C 0.1578 0.29958 0.98485 0.0
C1260 C 0.1736 0.31588 0.97311 0.0
C1261 C 0.16012 0.27135 0.98433 0.0
C1262 C 0.19318 0.30357 0.96184 0.0
C1263 C 0.19573 0.27549 0.96133 0.0
H1264 H 0.97195 0.87555 0.2395 0.0
H1265 H 0.96144 0.95434 0.2155 0.0
H1266 H 0.01046 0.96028 0.2143 0.0
H1267 H 0.05664 0.94111 0.21777 0.0
H1268 H 0.06547 0.86176 0.24147 0.0
H1269 H 0.01702 0.85818 0.2452 0.0
C1270 C 0.98032 0.89418 0.23417 0.0
C1271 C 0.96301 0.91438 0.22748 0.0
C1272 C 1.00838 0.89731 0.23339 0.0
C1273 C 0.97428 0.93845 0.22075 0.0
C1274 C 1.00234 0.94179 0.22 0.0
C1275 C 0.04793 0.92327 0.22403 0.0
C1276 C 0.06478 0.90168 0.22924 0.0
C1277 C 0.01967 0.92111 0.22595 0.0
C1278 C 0.0531 0.87863 0.23724 0.0
C1279 C 0.02531 0.8765 0.23936 0.0
H1280 H 0.36537 0.71603 0.50138 0.0
H1281 H 0.31962 0.71007 0.45054 0.0
H1282 H 0.31462 0.75899 0.4497 0.0
H1283 H 0.32785 0.8038 0.46143 0.0
H1284 H 0.37445 0.80946 0.51194 0.0
H1285 H 0.37421 0.76056 0.51497 0.0
C1286 C 0.35386 0.72538 0.49031 0.0
C1287 C 0.34307 0.70934 0.47598 0.0
C1288 C 0.35141 0.75361 0.48975 0.0
C1289 C 0.32818 0.72186 0.46175 0.0
C1290 C 0.32543 0.7499 0.4612 0.0
C1291 C 0.33748 0.79436 0.4733 0.0
C1292 C 0.35132 0.81035 0.48636 0.0
C1293 C 0.33763 0.76605 0.47483 0.0
C1294 C 0.36372 0.79771 0.50164 0.0
C1295 C 0.3637 0.76968 0.50335 0.0
H1296 H 0.47956 0.12796 0.75087 0.0
H1297 H 0.47261 0.06275 0.71159 0.0
H1298 H 0.52153 0.05779 0.71112 0.0
H1299 H 0.56648 0.07603 0.71867 0.0
H1300 H 0.57309 0.14176 0.7576 0.0
H1301 H 0.52437 0.1421 0.76161 0.0
C1302 C 0.4887 0.11228 0.74249 0.0
C1303 C 0.47237 0.09592 0.73115 0.0
C1304 C 0.51693 0.10975 0.74211 0.0
C1305 C 0.48462 0.07566 0.72045 0.0
C1306 C 0.51267 0.0729 0.72009 0.0
C1307 C 0.55733 0.08995 0.72841 0.0
C1308 C 0.57353 0.10898 0.73771 0.0
C1309 C 0.52909 0.09039 0.73041 0.0
C1310 C 0.56122 0.12694 0.75021 0.0
C1311 C 0.53327 0.12727 0.75244 0.0
H1312 H 0.82779 0.29792 0.96478 0.0
H1313 H 0.88638 0.3057 0.00874 0.0
H1314 H 0.88672 0.25701 0.013 0.0
H1315 H 0.87476 0.21181 0.00158 0.0
H1316 H 0.8159 0.20378 0.95784 0.0
H1317 H 0.81101 0.25266 0.95639 0.0
C1318 C 0.84018 0.28901 0.97556 0.0
C1319 C 0.85723 0.30556 0.98629 0.0
C1320 C 0.84044 0.26079 0.97789 0.0
C1321 C 0.8731 0.29357 0.00024 0.0
C1322 C 0.87343 0.26563 0.00263 0.0
C1323 C 0.86041 0.22072 0.99202 0.0
C1324 C 0.84589 0.20405 0.97974 0.0
C1325 C 0.85783 0.24896 0.99115 0.0
C1326 C 0.82734 0.21602 0.96748 0.0
C1327 C 0.82466 0.24406 0.96654 0.0
H1328 H 0.64347 0.8015 0.50163 0.0
H1329 H 0.69766 0.81164 0.45529 0.0
H1330 H 0.70415 0.76296 0.45361 0.0
H1331 H 0.68962 0.71726 0.4626 0.0
H1332 H 0.63552 0.70725 0.50903 0.0
H1333 H 0.63423 0.75591 0.51357 0.0
C1334 C 0.65715 0.7931 0.49142 0.0
C1335 C 0.66983 0.81024 0.47848 0.0
C1336 C 0.66066 0.76499 0.49044 0.0
C1337 C 0.6876 0.79899 0.46541 0.0
C1338 C 0.69121 0.77108 0.46436 0.0
C1339 C 0.67807 0.72567 0.474 0.0
C1340 C 0.66248 0.70854 0.48534 0.0
C1341 C 0.67715 0.75382 0.47641 0.0
C1342 C 0.64769 0.71986 0.50007 0.0
C1343 C 0.64678 0.74777 0.5026 0.0
H1344 H 0.88467 0.7145 0.00271 0.0
H1345 H 0.8214 0.70303 0.04292 0.0
H1346 H 0.81458 0.75178 0.04467 0.0
H1347 H 0.83006 0.79809 0.03718 0.0
H1348 H 0.89284 0.80873 0.99636 0.0
H1349 H 0.89608 0.76021 0.99232 0.0
C1350 C 0.86906 0.72263 0.01161 0.0
C1351 C 0.85371 0.70508 0.02276 0.0
C1352 C 0.86526 0.7507 0.01256 0.0
C1353 C 0.83347 0.71601 0.03415 0.0
C1354 C 0.82967 0.74395 0.03524 0.0
C1355 C 0.84404 0.78981 0.02712 0.0
C1356 C 0.86132 0.8072 0.01721 0.0
C1357 C 0.84592 0.76159 0.02486 0.0
C1358 C 0.87932 0.79599 0.00424 0.0
C1359 C 0.88131 0.76813 0.00196 0.0
H1360 H 0.68561 0.30381 0.53526 0.0
H1361 H 0.63277 0.31032 0.48784 0.0
H1362 H 0.63278 0.26148 0.48435 0.0
H1363 H 0.64332 0.21662 0.49704 0.0
H1364 H 0.69588 0.20997 0.54459 0.0
H1365 H 0.70069 0.25886 0.54557 0.0
C1366 C 0.67457 0.29458 0.52391 0.0
C1367 C 0.65904 0.31081 0.51193 0.0
C1368 C 0.67437 0.2663 0.5221 0.0
C1369 C 0.64485 0.29842 0.49731 0.0
C1370 C 0.64472 0.27041 0.49535 0.0
C1371 C 0.65626 0.22582 0.50739 0.0
C1372 C 0.66903 0.20956 0.52081 0.0
C1373 C 0.65873 0.25408 0.50801 0.0
C1374 C 0.68576 0.22191 0.53409 0.0
C1375 C 0.68843 0.24995 0.53473 0.0
H1376 H 0.96074 0.39219 0.74566 0.0
H1377 H 0.95591 0.45072 0.78982 0.0
H1378 H 1.00471 0.45671 0.78883 0.0
H1379 H 0.04925 0.44094 0.77817 0.0
H1380 H 0.05376 0.38137 0.73463 0.0
H1381 H 1.0048 0.3805 0.73245 0.0
C1382 C 0.97029 0.40667 0.75481 0.0
C1383 C 0.95465 0.42081 0.7679 0.0
C1384 C 0.99844 0.40967 0.75439 0.0
C1385 C 0.96741 0.43952 0.77963 0.0
C1386 C 0.99538 0.44286 0.77914 0.0
C1387 C 0.03954 0.42825 0.76791 0.0
C1388 C 0.05523 0.4111 0.75668 0.0
C1389 C 0.01121 0.42742 0.76698 0.0
C1390 C 0.04224 0.3947 0.7435 0.0
C1391 C 0.01418 0.39408 0.7423 0.0
H1392 H 0.46448 0.58352 0.27936 0.0
H1393 H 0.45703 0.66458 0.25832 0.0
H1394 H 0.50549 0.66764 0.25474 0.0
H1395 H 0.55027 0.64918 0.25992 0.0
H1396 H 0.55934 0.5685 0.28102 0.0
H1397 H 0.51026 0.56329 0.28198 0.0
C1398 C 0.47348 0.60165 0.27373 0.0
C1399 C 0.45703 0.62386 0.26927 0.0
C1400 C 0.50175 0.60345 0.2718 0.0
C1401 C 0.46909 0.64723 0.26201 0.0
C1402 C 0.49689 0.64906 0.25996 0.0
C1403 C 0.54155 0.6303 0.26451 0.0
C1404 C 0.55846 0.60934 0.27049 0.0
C1405 C 0.51345 0.62757 0.26518 0.0
C1406 C 0.54679 0.58496 0.27629 0.0
C1407 C 0.5187 0.58203 0.27695 0.0
H1408 H 0.46508 0.4421 0.71343 0.0
H1409 H 0.45931 0.38267 0.75706 0.0
H1410 H 0.50804 0.38323 0.76085 0.0
H1411 H 0.55266 0.39614 0.74902 0.0
H1412 H 0.55877 0.45565 0.70552 0.0
H1413 H 0.5098 0.45982 0.70466 0.0
C1414 C 0.47444 0.42972 0.72405 0.0
C1415 C 0.45848 0.41215 0.7348 0.0
C1416 C 0.50267 0.42995 0.72607 0.0
C1417 C 0.47101 0.39631 0.74853 0.0
C1418 C 0.49896 0.39651 0.75065 0.0
C1419 C 0.54331 0.41046 0.73964 0.0
C1420 C 0.55941 0.42537 0.72723 0.0
C1421 C 0.51506 0.41258 0.7391 0.0
C1422 C 0.54692 0.44391 0.71522 0.0
C1423 C 0.51885 0.44617 0.71463 0.0
H1424 H 0.96383 0.59185 0.22292 0.0
H1425 H 0.95852 0.67802 0.22962 0.0
H1426 H 1.0072 0.68135 0.23066 0.0
H1427 H 0.05136 0.66074 0.22788 0.0
H1428 H 0.05849 0.57495 0.22065 0.0
H1429 H 1.00931 0.57051 0.22179 0.0
C1430 C 0.97338 0.61126 0.2248 0.0
C1431 C 0.95741 0.63466 0.22607 0.0
C1432 C 1.00179 0.61317 0.22522 0.0
C1433 C 0.97018 0.65968 0.22847 0.0
C1434 C 0.99811 0.66166 0.22907 0.0
C1435 C 0.04224 0.64098 0.2267 0.0
C1436 C 0.05862 0.61824 0.22411 0.0
C1437 C 0.0141 0.63867 0.22717 0.0
C1438 C 0.04637 0.59281 0.22268 0.0
C1439 C 0.01821 0.59029 0.22326 0.0
loop_
_geom_bond_atom_site_label_1
_geom_bond_atom_site_label_2
_geom_bond_distance
_geom_bond_site_symmetry_2
_ccdc_geom_bond_type
In0 O1 2.294 . S
In0 O2 2.326 . S
In0 O6 2.266 . S
In0 O7 2.326 . S
In0 O8 2.266 . S
In0 O9 2.326 . S
In0 O11 2.294 . S
In0 O12 2.326 . S
O1 In0 2.294 . S
O1 C10 1.240 . S
O2 In0 2.326 . S
O2 C10 1.252 . S
C3 O6 1.252 . S
C3 O7 1.260 . S
C4 O11 1.240 . S
C4 O12 1.252 . S
C5 O8 1.252 . S
C5 O9 1.260 . S
O6 In0 2.266 . S
O6 C3 1.252 . S
O7 In0 2.326 . S
O7 C3 1.260 . S
O8 In0 2.266 . S
O8 C5 1.252 . S
O9 In0 2.326 . S
O9 C5 1.260 . S
C10 O1 1.240 . S
C10 O2 1.252 . S
O11 In0 2.294 . S
O11 C4 1.240 . S
O12 In0 2.326 . S
O12 C4 1.252 . S
In13 O14 2.294 . S
In13 O15 2.326 . S
In13 O19 2.266 . S
In13 O20 2.326 . S
In13 O21 2.266 . S
In13 O22 2.326 . S
In13 O24 2.294 . S
In13 O25 2.326 . S
O14 In13 2.294 . S
O14 C23 1.240 . S
O15 In13 2.326 . S
O15 C23 1.252 . S
C16 O19 1.252 . S
C16 O20 1.260 . S
C17 O24 1.240 . S
C17 O25 1.252 . S
C18 O21 1.252 . S
C18 O22 1.260 . S
O19 In13 2.266 . S
O19 C16 1.252 . S
O20 In13 2.326 . S
O20 C16 1.260 . S
O21 In13 2.266 . S
O21 C18 1.252 . S
O22 In13 2.326 . S
O22 C18 1.260 . S
C23 O14 1.240 . S
C23 O15 1.252 . S
O24 In13 2.294 . S
O24 C17 1.240 . S
O25 In13 2.326 . S
O25 C17 1.252 . S
In26 O27 2.294 . S
In26 O28 2.326 . S
In26 O32 2.266 . S
In26 O33 2.326 . S
In26 O34 2.266 . S
In26 O35 2.326 . S
In26 O37 2.294 . S
In26 O38 2.326 . S
O27 In26 2.294 . S
O27 C36 1.240 . S
O28 In26 2.326 . S
O28 C36 1.252 . S
C29 O32 1.252 . S
C29 O33 1.260 . S
C30 O37 1.240 . S
C30 O38 1.252 . S
C31 O34 1.252 . S
C31 O35 1.260 . S
O32 In26 2.266 . S
O32 C29 1.252 . S
O33 In26 2.326 . S
O33 C29 1.260 . S
O34 In26 2.266 . S
O34 C31 1.252 . S
O35 In26 2.326 . S
O35 C31 1.260 . S
C36 O27 1.240 . S
C36 O28 1.252 . S
O37 In26 2.294 . S
O37 C30 1.240 . S
O38 In26 2.326 . S
O38 C30 1.252 . S
In39 O40 2.294 . S
In39 O41 2.326 . S
In39 O45 2.266 . S
In39 O46 2.326 . S
In39 O47 2.266 . S
In39 O48 2.326 . S
In39 O50 2.294 . S
In39 O51 2.326 . S
O40 In39 2.294 . S
O40 C49 1.240 . S
O41 In39 2.326 . S
O41 C49 1.252 . S
C42 O45 1.252 . S
C42 O46 1.260 . S
C43 O50 1.240 . S
C43 O51 1.252 . S
C44 O47 1.252 . S
C44 O48 1.260 . S
O45 In39 2.266 . S
O45 C42 1.252 . S
O46 In39 2.326 . S
O46 C42 1.260 . S
O47 In39 2.266 . S
O47 C44 1.252 . S
O48 In39 2.326 . S
O48 C44 1.260 . S
C49 O40 1.240 . S
C49 O41 1.252 . S
O50 In39 2.294 . S
O50 C43 1.240 . S
O51 In39 2.326 . S
O51 C43 1.252 . S
In52 O53 2.294 . S
In52 O54 2.326 . S
In52 O58 2.266 . S
In52 O59 2.326 . S
In52 O60 2.266 . S
In52 O61 2.326 . S
In52 O63 2.294 . S
In52 O64 2.326 . S
O53 In52 2.294 . S
O53 C62 1.240 . S
O54 In52 2.326 . S
O54 C62 1.252 . S
C55 O58 1.252 . S
C55 O59 1.260 . S
C56 O63 1.240 . S
C56 O64 1.252 . S
C57 O60 1.252 . S
C57 O61 1.260 . S
O58 In52 2.266 . S
O58 C55 1.252 . S
O59 In52 2.326 . S
O59 C55 1.260 . S
O60 In52 2.266 . S
O60 C57 1.252 . S
O61 In52 2.326 . S
O61 C57 1.260 . S
C62 O53 1.240 . S
C62 O54 1.252 . S
O63 In52 2.294 . S
O63 C56 1.240 . S
O64 In52 2.326 . S
O64 C56 1.252 . S
In65 O66 2.294 . S
In65 O67 2.326 . S
In65 O71 2.266 . S
In65 O72 2.326 . S
In65 O73 2.266 . S
In65 O74 2.326 . S
In65 O76 2.294 . S
In65 O77 2.326 . S
O66 In65 2.294 . S
O66 C75 1.240 . S
O67 In65 2.326 . S
O67 C75 1.252 . S
C68 O71 1.252 . S
C68 O72 1.260 . S
C69 O76 1.240 . S
C69 O77 1.252 . S
C70 O73 1.252 . S
C70 O74 1.260 . S
O71 In65 2.266 . S
O71 C68 1.252 . S
O72 In65 2.326 . S
O72 C68 1.260 . S
O73 In65 2.266 . S
O73 C70 1.252 . S
O74 In65 2.326 . S
O74 C70 1.260 . S
C75 O66 1.240 . S
C75 O67 1.252 . S
O76 In65 2.294 . S
O76 C69 1.240 . S
O77 In65 2.326 . S
O77 C69 1.252 . S
In78 O79 2.294 . S
In78 O80 2.326 . S
In78 O84 2.266 . S
In78 O85 2.326 . S
In78 O86 2.266 . S
In78 O87 2.326 . S
In78 O89 2.294 . S
In78 O90 2.326 . S
O79 In78 2.294 . S
O79 C88 1.240 . S
O80 In78 2.326 . S
O80 C88 1.252 . S
C81 O84 1.252 . S
C81 O85 1.260 . S
C82 O89 1.240 . S
C82 O90 1.252 . S
C83 O86 1.252 . S
C83 O87 1.260 . S
O84 In78 2.266 . S
O84 C81 1.252 . S
O85 In78 2.326 . S
O85 C81 1.260 . S
O86 In78 2.266 . S
O86 C83 1.252 . S
O87 In78 2.326 . S
O87 C83 1.260 . S
C88 O79 1.240 . S
C88 O80 1.252 . S
O89 In78 2.294 . S
O89 C82 1.240 . S
O90 In78 2.326 . S
O90 C82 1.252 . S
In91 O92 2.294 . S
In91 O93 2.326 . S
In91 O97 2.266 . S
In91 O98 2.326 . S
In91 O99 2.266 . S
In91 O100 2.326 . S
In91 O102 2.294 . S
In91 O103 2.326 . S
O92 In91 2.294 . S
O92 C101 1.240 . S
O93 In91 2.326 . S
O93 C101 1.252 . S
C94 O97 1.252 . S
C94 O98 1.260 . S
C95 O102 1.240 . S
C95 O103 1.252 . S
C96 O99 1.252 . S
C96 O100 1.260 . S
O97 In91 2.266 . S
O97 C94 1.252 . S
O98 In91 2.326 . S
O98 C94 1.260 . S
O99 In91 2.266 . S
O99 C96 1.252 . S
O100 In91 2.326 . S
O100 C96 1.260 . S
C101 O92 1.240 . S
C101 O93 1.252 . S
O102 In91 2.294 . S
O102 C95 1.240 . S
O103 In91 2.326 . S
O103 C95 1.252 . S
In104 O105 2.294 . S
In104 O106 2.326 . S
In104 O110 2.266 . S
In104 O111 2.326 . S
In104 O112 2.266 . S
In104 O113 2.326 . S
In104 O115 2.294 . S
In104 O116 2.326 . S
O105 In104 2.294 . S
O105 C114 1.240 . S
O106 In104 2.326 . S
O106 C114 1.252 . S
C107 O110 1.252 . S
C107 O111 1.260 . S
C108 O115 1.240 . S
C108 O116 1.252 . S
C109 O112 1.252 . S
C109 O113 1.260 . S
O110 In104 2.266 . S
O110 C107 1.252 . S
O111 In104 2.326 . S
O111 C107 1.260 . S
O112 In104 2.266 . S
O112 C109 1.252 . S
O113 In104 2.326 . S
O113 C109 1.260 . S
C114 O105 1.240 . S
C114 O106 1.252 . S
O115 In104 2.294 . S
O115 C108 1.240 . S
O116 In104 2.326 . S
O116 C108 1.252 . S
In117 O118 2.294 . S
In117 O119 2.326 . S
In117 O123 2.266 . S
In117 O124 2.326 . S
In117 O125 2.266 . S
In117 O126 2.326 . S
In117 O128 2.294 . S
In117 O129 2.326 . S
O118 In117 2.294 . S
O118 C127 1.240 . S
O119 In117 2.326 . S
O119 C127 1.252 . S
C120 O123 1.252 . S
C120 O124 1.260 . S
C121 O128 1.240 . S
C121 O129 1.252 . S
C122 O125 1.252 . S
C122 O126 1.260 . S
O123 In117 2.266 . S
O123 C120 1.252 . S
O124 In117 2.326 . S
O124 C120 1.260 . S
O125 In117 2.266 . S
O125 C122 1.252 . S
O126 In117 2.326 . S
O126 C122 1.260 . S
C127 O118 1.240 . S
C127 O119 1.252 . S
O128 In117 2.294 . S
O128 C121 1.240 . S
O129 In117 2.326 . S
O129 C121 1.252 . S
In130 O131 2.294 . S
In130 O132 2.326 . S
In130 O136 2.266 . S
In130 O137 2.326 . S
In130 O138 2.266 . S
In130 O139 2.326 . S
In130 O141 2.294 . S
In130 O142 2.326 . S
O131 In130 2.294 . S
O131 C140 1.240 . S
O132 In130 2.326 . S
O132 C140 1.252 . S
C133 O136 1.252 . S
C133 O137 1.260 . S
C134 O141 1.240 . S
C134 O142 1.252 . S
C135 O138 1.252 . S
C135 O139 1.260 . S
O136 In130 2.266 . S
O136 C133 1.252 . S
O137 In130 2.326 . S
O137 C133 1.260 . S
O138 In130 2.266 . S
O138 C135 1.252 . S
O139 In130 2.326 . S
O139 C135 1.260 . S
C140 O131 1.240 . S
C140 O132 1.252 . S
O141 In130 2.294 . S
O141 C134 1.240 . S
O142 In130 2.326 . S
O142 C134 1.252 . S
In143 O144 2.294 . S
In143 O145 2.326 . S
In143 O149 2.266 . S
In143 O150 2.326 . S
In143 O151 2.266 . S
In143 O152 2.326 . S
In143 O154 2.294 . S
In143 O155 2.326 . S
O144 In143 2.294 . S
O144 C153 1.240 . S
O145 In143 2.326 . S
O145 C153 1.252 . S
C146 O149 1.252 . S
C146 O150 1.260 . S
C147 O154 1.240 . S
C147 O155 1.252 . S
C148 O151 1.252 . S
C148 O152 1.260 . S
O149 In143 2.266 . S
O149 C146 1.252 . S
O150 In143 2.326 . S
O150 C146 1.260 . S
O151 In143 2.266 . S
O151 C148 1.252 . S
O152 In143 2.326 . S
O152 C148 1.260 . S
C153 O144 1.240 . S
C153 O145 1.252 . S
O154 In143 2.294 . S
O154 C147 1.240 . S
O155 In143 2.326 . S
O155 C147 1.252 . S
In156 O157 2.294 . S
In156 O158 2.326 . S
In156 O162 2.266 . S
In156 O163 2.326 . S
In156 O164 2.266 . S
In156 O165 2.326 . S
In156 O167 2.294 . S
In156 O168 2.326 . S
O157 In156 2.294 . S
O157 C166 1.240 . S
O158 In156 2.326 . S
O158 C166 1.252 . S
C159 O162 1.252 . S
C159 O163 1.260 . S
C160 O167 1.240 . S
C160 O168 1.252 . S
C161 O164 1.252 . S
C161 O165 1.260 . S
O162 In156 2.266 . S
O162 C159 1.252 . S
O163 In156 2.326 . S
O163 C159 1.260 . S
O164 In156 2.266 . S
O164 C161 1.252 . S
O165 In156 2.326 . S
O165 C161 1.260 . S
C166 O157 1.240 . S
C166 O158 1.252 . S
O167 In156 2.294 . S
O167 C160 1.240 . S
O168 In156 2.326 . S
O168 C160 1.252 . S
In169 O170 2.294 . S
In169 O171 2.326 . S
In169 O175 2.266 . S
In169 O176 2.326 . S
In169 O177 2.266 . S
In169 O178 2.326 . S
In169 O180 2.294 . S
In169 O181 2.326 . S
O170 In169 2.294 . S
O170 C179 1.240 . S
O171 In169 2.326 . S
O171 C179 1.252 . S
C172 O175 1.252 . S
C172 O176 1.260 . S
C173 O180 1.240 . S
C173 O181 1.252 . S
C174 O177 1.252 . S
C174 O178 1.260 . S
O175 In169 2.266 . S
O175 C172 1.252 . S
O176 In169 2.326 . S
O176 C172 1.260 . S
O177 In169 2.266 . S
O177 C174 1.252 . S
O178 In169 2.326 . S
O178 C174 1.260 . S
C179 O170 1.240 . S
C179 O171 1.252 . S
O180 In169 2.294 . S
O180 C173 1.240 . S
O181 In169 2.326 . S
O181 C173 1.252 . S
In182 O183 2.294 . S
In182 O184 2.326 . S
In182 O188 2.266 . S
In182 O189 2.326 . S
In182 O190 2.266 . S
In182 O191 2.326 . S
In182 O193 2.294 . S
In182 O194 2.326 . S
O183 In182 2.294 . S
O183 C192 1.240 . S
O184 In182 2.326 . S
O184 C192 1.252 . S
C185 O188 1.252 . S
C185 O189 1.260 . S
C186 O193 1.240 . S
C186 O194 1.252 . S
C187 O190 1.252 . S
C187 O191 1.260 . S
O188 In182 2.266 . S
O188 C185 1.252 . S
O189 In182 2.326 . S
O189 C185 1.260 . S
O190 In182 2.266 . S
O190 C187 1.252 . S
O191 In182 2.326 . S
O191 C187 1.260 . S
C192 O183 1.240 . S
C192 O184 1.252 . S
O193 In182 2.294 . S
O193 C186 1.240 . S
O194 In182 2.326 . S
O194 C186 1.252 . S
In195 O196 2.294 . S
In195 O197 2.326 . S
In195 O201 2.266 . S
In195 O202 2.326 . S
In195 O203 2.266 . S
In195 O204 2.326 . S
In195 O206 2.294 . S
In195 O207 2.326 . S
O196 In195 2.294 . S
O196 C205 1.240 . S
O197 In195 2.326 . S
O197 C205 1.252 . S
C198 O201 1.252 . S
C198 O202 1.260 . S
C199 O206 1.240 . S
C199 O207 1.252 . S
C200 O203 1.252 . S
C200 O204 1.260 . S
O201 In195 2.266 . S
O201 C198 1.252 . S
O202 In195 2.326 . S
O202 C198 1.260 . S
O203 In195 2.266 . S
O203 C200 1.252 . S
O204 In195 2.326 . S
O204 C200 1.260 . S
C205 O196 1.240 . S
C205 O197 1.252 . S
O206 In195 2.294 . S
O206 C199 1.240 . S
O207 In195 2.326 . S
O207 C199 1.252 . S
In208 O209 2.294 . S
In208 O210 2.326 . S
In208 O214 2.266 . S
In208 O215 2.326 . S
In208 O216 2.266 . S
In208 O217 2.326 . S
In208 O219 2.294 . S
In208 O220 2.326 . S
O209 In208 2.294 . S
O209 C218 1.240 . S
O210 In208 2.326 . S
O210 C218 1.252 . S
C211 O214 1.252 . S
C211 O215 1.260 . S
C212 O219 1.240 . S
C212 O220 1.252 . S
C213 O216 1.252 . S
C213 O217 1.260 . S
O214 In208 2.266 . S
O214 C211 1.252 . S
O215 In208 2.326 . S
O215 C211 1.260 . S
O216 In208 2.266 . S
O216 C213 1.252 . S
O217 In208 2.326 . S
O217 C213 1.260 . S
C218 O209 1.240 . S
C218 O210 1.252 . S
O219 In208 2.294 . S
O219 C212 1.240 . S
O220 In208 2.326 . S
O220 C212 1.252 . S
In221 O222 2.294 . S
In221 O223 2.326 . S
In221 O227 2.266 . S
In221 O228 2.326 . S
In221 O229 2.266 . S
In221 O230 2.326 . S
In221 O232 2.294 . S
In221 O233 2.326 . S
O222 In221 2.294 . S
O222 C231 1.240 . S
O223 In221 2.326 . S
O223 C231 1.252 . S
C224 O227 1.252 . S
C224 O228 1.260 . S
C225 O232 1.240 . S
C225 O233 1.252 . S
C226 O229 1.252 . S
C226 O230 1.260 . S
O227 In221 2.266 . S
O227 C224 1.252 . S
O228 In221 2.326 . S
O228 C224 1.260 . S
O229 In221 2.266 . S
O229 C226 1.252 . S
O230 In221 2.326 . S
O230 C226 1.260 . S
C231 O222 1.240 . S
C231 O223 1.252 . S
O232 In221 2.294 . S
O232 C225 1.240 . S
O233 In221 2.326 . S
O233 C225 1.252 . S
In234 O235 2.294 . S
In234 O236 2.326 . S
In234 O240 2.266 . S
In234 O241 2.326 . S
In234 O242 2.266 . S
In234 O243 2.326 . S
In234 O245 2.294 . S
In234 O246 2.326 . S
O235 In234 2.294 . S
O235 C244 1.240 . S
O236 In234 2.326 . S
O236 C244 1.252 . S
C237 O240 1.252 . S
C237 O241 1.260 . S
C238 O245 1.240 . S
C238 O246 1.252 . S
C239 O242 1.252 . S
C239 O243 1.260 . S
O240 In234 2.266 . S
O240 C237 1.252 . S
O241 In234 2.326 . S
O241 C237 1.260 . S
O242 In234 2.266 . S
O242 C239 1.252 . S
O243 In234 2.326 . S
O243 C239 1.260 . S
C244 O235 1.240 . S
C244 O236 1.252 . S
O245 In234 2.294 . S
O245 C238 1.240 . S
O246 In234 2.326 . S
O246 C238 1.252 . S
In247 O248 2.294 . S
In247 O249 2.326 . S
In247 O253 2.266 . S
In247 O254 2.326 . S
In247 O255 2.266 . S
In247 O256 2.326 . S
In247 O258 2.294 . S
In247 O259 2.326 . S
O248 In247 2.294 . S
O248 C257 1.240 . S
O249 In247 2.326 . S
O249 C257 1.252 . S
C250 O253 1.252 . S
C250 O254 1.260 . S
C251 O258 1.240 . S
C251 O259 1.252 . S
C252 O255 1.252 . S
C252 O256 1.260 . S
O253 In247 2.266 . S
O253 C250 1.252 . S
O254 In247 2.326 . S
O254 C250 1.260 . S
O255 In247 2.266 . S
O255 C252 1.252 . S
O256 In247 2.326 . S
O256 C252 1.260 . S
C257 O248 1.240 . S
C257 O249 1.252 . S
O258 In247 2.294 . S
O258 C251 1.240 . S
O259 In247 2.326 . S
O259 C251 1.252 . S
In260 O261 2.294 . S
In260 O262 2.326 . S
In260 O266 2.266 . S
In260 O267 2.326 . S
In260 O268 2.266 . S
In260 O269 2.326 . S
In260 O271 2.294 . S
In260 O272 2.326 . S
O261 In260 2.294 . S
O261 C270 1.240 . S
O262 In260 2.326 . S
O262 C270 1.252 . S
C263 O266 1.252 . S
C263 O267 1.260 . S
C264 O271 1.240 . S
C264 O272 1.252 . S
C265 O268 1.252 . S
C265 O269 1.260 . S
O266 In260 2.266 . S
O266 C263 1.252 . S
O267 In260 2.326 . S
O267 C263 1.260 . S
O268 In260 2.266 . S
O268 C265 1.252 . S
O269 In260 2.326 . S
O269 C265 1.260 . S
C270 O261 1.240 . S
C270 O262 1.252 . S
O271 In260 2.294 . S
O271 C264 1.240 . S
O272 In260 2.326 . S
O272 C264 1.252 . S
In273 O274 2.294 . S
In273 O275 2.326 . S
In273 O279 2.266 . S
In273 O280 2.326 . S
In273 O281 2.266 . S
In273 O282 2.326 . S
In273 O284 2.294 . S
In273 O285 2.326 . S
O274 In273 2.294 . S
O274 C283 1.240 . S
O275 In273 2.326 . S
O275 C283 1.252 . S
C276 O279 1.252 . S
C276 O280 1.260 . S
C277 O284 1.240 . S
C277 O285 1.252 . S
C278 O281 1.252 . S
C278 O282 1.260 . S
O279 In273 2.266 . S
O279 C276 1.252 . S
O280 In273 2.326 . S
O280 C276 1.260 . S
O281 In273 2.266 . S
O281 C278 1.252 . S
O282 In273 2.326 . S
O282 C278 1.260 . S
C283 O274 1.240 . S
C283 O275 1.252 . S
O284 In273 2.294 . S
O284 C277 1.240 . S
O285 In273 2.326 . S
O285 C277 1.252 . S
In286 O287 2.294 . S
In286 O288 2.326 . S
In286 O292 2.266 . S
In286 O293 2.326 . S
In286 O294 2.266 . S
In286 O295 2.326 . S
In286 O297 2.294 . S
In286 O298 2.326 . S
O287 In286 2.294 . S
O287 C296 1.240 . S
O288 In286 2.326 . S
O288 C296 1.252 . S
C289 O292 1.252 . S
C289 O293 1.260 . S
C290 O297 1.240 . S
C290 O298 1.252 . S
C291 O294 1.252 . S
C291 O295 1.260 . S
O292 In286 2.266 . S
O292 C289 1.252 . S
O293 In286 2.326 . S
O293 C289 1.260 . S
O294 In286 2.266 . S
O294 C291 1.252 . S
O295 In286 2.326 . S
O295 C291 1.260 . S
C296 O287 1.240 . S
C296 O288 1.252 . S
O297 In286 2.294 . S
O297 C290 1.240 . S
O298 In286 2.326 . S
O298 C290 1.252 . S
In299 O300 2.294 . S
In299 O301 2.326 . S
In299 O305 2.266 . S
In299 O306 2.326 . S
In299 O307 2.266 . S
In299 O308 2.326 . S
In299 O310 2.294 . S
In299 O311 2.326 . S
O300 In299 2.294 . S
O300 C309 1.240 . S
O301 In299 2.326 . S
O301 C309 1.252 . S
C302 O305 1.252 . S
C302 O306 1.260 . S
C303 O310 1.240 . S
C303 O311 1.252 . S
C304 O307 1.252 . S
C304 O308 1.260 . S
O305 In299 2.266 . S
O305 C302 1.252 . S
O306 In299 2.326 . S
O306 C302 1.260 . S
O307 In299 2.266 . S
O307 C304 1.252 . S
O308 In299 2.326 . S
O308 C304 1.260 . S
C309 O300 1.240 . S
C309 O301 1.252 . S
O310 In299 2.294 . S
O310 C303 1.240 . S
O311 In299 2.326 . S
O311 C303 1.252 . S
In312 O313 2.294 . S
In312 O314 2.326 . S
In312 O318 2.266 . S
In312 O319 2.326 . S
In312 O320 2.266 . S
In312 O321 2.326 . S
In312 O323 2.294 . S
In312 O324 2.326 . S
O313 In312 2.294 . S
O313 C322 1.240 . S
O314 In312 2.326 . S
O314 C322 1.252 . S
C315 O318 1.252 . S
C315 O319 1.260 . S
C316 O323 1.240 . S
C316 O324 1.252 . S
C317 O320 1.252 . S
C317 O321 1.260 . S
O318 In312 2.266 . S
O318 C315 1.252 . S
O319 In312 2.326 . S
O319 C315 1.260 . S
O320 In312 2.266 . S
O320 C317 1.252 . S
O321 In312 2.326 . S
O321 C317 1.260 . S
C322 O313 1.240 . S
C322 O314 1.252 . S
O323 In312 2.294 . S
O323 C316 1.240 . S
O324 In312 2.326 . S
O324 C316 1.252 . S
In325 O326 2.294 . S
In325 O327 2.326 . S
In325 O331 2.266 . S
In325 O332 2.326 . S
In325 O333 2.266 . S
In325 O334 2.326 . S
In325 O336 2.294 . S
In325 O337 2.326 . S
O326 In325 2.294 . S
O326 C335 1.240 . S
O327 In325 2.326 . S
O327 C335 1.252 . S
C328 O331 1.252 . S
C328 O332 1.260 . S
C329 O336 1.240 . S
C329 O337 1.252 . S
C330 O333 1.252 . S
C330 O334 1.260 . S
O331 In325 2.266 . S
O331 C328 1.252 . S
O332 In325 2.326 . S
O332 C328 1.260 . S
O333 In325 2.266 . S
O333 C330 1.252 . S
O334 In325 2.326 . S
O334 C330 1.260 . S
C335 O326 1.240 . S
C335 O327 1.252 . S
O336 In325 2.294 . S
O336 C329 1.240 . S
O337 In325 2.326 . S
O337 C329 1.252 . S
In338 O339 2.294 . S
In338 O340 2.326 . S
In338 O344 2.266 . S
In338 O345 2.326 . S
In338 O346 2.266 . S
In338 O347 2.326 . S
In338 O349 2.294 . S
In338 O350 2.326 . S
O339 In338 2.294 . S
O339 C348 1.240 . S
O340 In338 2.326 . S
O340 C348 1.252 . S
C341 O344 1.252 . S
C341 O345 1.260 . S
C342 O349 1.240 . S
C342 O350 1.252 . S
C343 O346 1.252 . S
C343 O347 1.260 . S
O344 In338 2.266 . S
O344 C341 1.252 . S
O345 In338 2.326 . S
O345 C341 1.260 . S
O346 In338 2.266 . S
O346 C343 1.252 . S
O347 In338 2.326 . S
O347 C343 1.260 . S
C348 O339 1.240 . S
C348 O340 1.252 . S
O349 In338 2.294 . S
O349 C342 1.240 . S
O350 In338 2.326 . S
O350 C342 1.252 . S
In351 O352 2.294 . S
In351 O353 2.326 . S
In351 O357 2.266 . S
In351 O358 2.326 . S
In351 O359 2.266 . S
In351 O360 2.326 . S
In351 O362 2.294 . S
In351 O363 2.326 . S
O352 In351 2.294 . S
O352 C361 1.240 . S
O353 In351 2.326 . S
O353 C361 1.252 . S
C354 O357 1.252 . S
C354 O358 1.260 . S
C355 O362 1.240 . S
C355 O363 1.252 . S
C356 O359 1.252 . S
C356 O360 1.260 . S
O357 In351 2.266 . S
O357 C354 1.252 . S
O358 In351 2.326 . S
O358 C354 1.260 . S
O359 In351 2.266 . S
O359 C356 1.252 . S
O360 In351 2.326 . S
O360 C356 1.260 . S
C361 O352 1.240 . S
C361 O353 1.252 . S
O362 In351 2.294 . S
O362 C355 1.240 . S
O363 In351 2.326 . S
O363 C355 1.252 . S
In364 O365 2.294 . S
In364 O366 2.326 . S
In364 O370 2.266 . S
In364 O371 2.326 . S
In364 O372 2.266 . S
In364 O373 2.326 . S
In364 O375 2.294 . S
In364 O376 2.326 . S
O365 In364 2.294 . S
O365 C374 1.240 . S
O366 In364 2.326 . S
O366 C374 1.252 . S
C367 O370 1.252 . S
C367 O371 1.260 . S
C368 O375 1.240 . S
C368 O376 1.252 . S
C369 O372 1.252 . S
C369 O373 1.260 . S
O370 In364 2.266 . S
O370 C367 1.252 . S
O371 In364 2.326 . S
O371 C367 1.260 . S
O372 In364 2.266 . S
O372 C369 1.252 . S
O373 In364 2.326 . S
O373 C369 1.260 . S
C374 O365 1.240 . S
C374 O366 1.252 . S
O375 In364 2.294 . S
O375 C368 1.240 . S
O376 In364 2.326 . S
O376 C368 1.252 . S
In377 O378 2.294 . S
In377 O379 2.326 . S
In377 O383 2.266 . S
In377 O384 2.326 . S
In377 O385 2.266 . S
In377 O386 2.326 . S
In377 O388 2.294 . S
In377 O389 2.326 . S
O378 In377 2.294 . S
O378 C387 1.240 . S
O379 In377 2.326 . S
O379 C387 1.252 . S
C380 O383 1.252 . S
C380 O384 1.260 . S
C381 O388 1.240 . S
C381 O389 1.252 . S
C382 O385 1.252 . S
C382 O386 1.260 . S
O383 In377 2.266 . S
O383 C380 1.252 . S
O384 In377 2.326 . S
O384 C380 1.260 . S
O385 In377 2.266 . S
O385 C382 1.252 . S
O386 In377 2.326 . S
O386 C382 1.260 . S
C387 O378 1.240 . S
C387 O379 1.252 . S
O388 In377 2.294 . S
O388 C381 1.240 . S
O389 In377 2.326 . S
O389 C381 1.252 . S
In390 O391 2.294 . S
In390 O392 2.326 . S
In390 O396 2.266 . S
In390 O397 2.326 . S
In390 O398 2.266 . S
In390 O399 2.326 . S
In390 O401 2.294 . S
In390 O402 2.326 . S
O391 In390 2.294 . S
O391 C400 1.240 . S
O392 In390 2.326 . S
O392 C400 1.252 . S
C393 O396 1.252 . S
C393 O397 1.260 . S
C394 O401 1.240 . S
C394 O402 1.252 . S
C395 O398 1.252 . S
C395 O399 1.260 . S
O396 In390 2.266 . S
O396 C393 1.252 . S
O397 In390 2.326 . S
O397 C393 1.260 . S
O398 In390 2.266 . S
O398 C395 1.252 . S
O399 In390 2.326 . S
O399 C395 1.260 . S
C400 O391 1.240 . S
C400 O392 1.252 . S
O401 In390 2.294 . S
O401 C394 1.240 . S
O402 In390 2.326 . S
O402 C394 1.252 . S
In403 O404 2.294 . S
In403 O405 2.326 . S
In403 O409 2.266 . S
In403 O410 2.326 . S
In403 O411 2.266 . S
In403 O412 2.326 . S
In403 O414 2.294 . S
In403 O415 2.326 . S
O404 In403 2.294 . S
O404 C413 1.240 . S
O405 In403 2.326 . S
O405 C413 1.252 . S
C406 O409 1.252 . S
C406 O410 1.260 . S
C407 O414 1.240 . S
C407 O415 1.252 . S
C408 O411 1.252 . S
C408 O412 1.260 . S
O409 In403 2.266 . S
O409 C406 1.252 . S
O410 In403 2.326 . S
O410 C406 1.260 . S
O411 In403 2.266 . S
O411 C408 1.252 . S
O412 In403 2.326 . S
O412 C408 1.260 . S
C413 O404 1.240 . S
C413 O405 1.252 . S
O414 In403 2.294 . S
O414 C407 1.240 . S
O415 In403 2.326 . S
O415 C407 1.252 . S
H416 C422 0.930 . S
H417 C425 0.930 . S
H418 C426 0.930 . S
H419 C427 0.930 . S
H420 C430 0.930 . S
H421 C431 0.930 . S
C422 H416 0.930 . S
C422 C423 1.355 . S
C422 C424 1.415 . S
C423 C422 1.355 . S
C423 C425 1.419 . S
C424 C422 1.415 . S
C424 C429 1.425 . S
C424 C431 1.409 . S
C425 H417 0.930 . S
C425 C423 1.419 . S
C425 C426 1.362 . S
C426 H418 0.930 . S
C426 C425 1.362 . S
C426 C429 1.409 . S
C427 H419 0.930 . S
C427 C428 1.355 . S
C427 C429 1.415 . S
C428 C427 1.355 . S
C428 C430 1.419 . S
C429 C424 1.425 . S
C429 C426 1.409 . S
C429 C427 1.415 . S
C430 H420 0.930 . S
C430 C428 1.419 . S
C430 C431 1.362 . S
C431 H421 0.930 . S
C431 C424 1.409 . S
C431 C430 1.362 . S
H432 C438 0.930 . S
H433 C441 0.930 . S
H434 C442 0.930 . S
H435 C443 0.930 . S
H436 C446 0.930 . S
H437 C447 0.930 . S
C438 H432 0.930 . S
C438 C439 1.355 . S
C438 C440 1.415 . S
C439 C438 1.355 . S
C439 C441 1.419 . S
C440 C438 1.415 . S
C440 C445 1.425 . S
C440 C447 1.409 . S
C441 H433 0.930 . S
C441 C439 1.419 . S
C441 C442 1.362 . S
C442 H434 0.930 . S
C442 C441 1.362 . S
C442 C445 1.409 . S
C443 H435 0.930 . S
C443 C444 1.355 . S
C443 C445 1.415 . S
C444 C443 1.355 . S
C444 C446 1.419 . S
C445 C440 1.425 . S
C445 C442 1.409 . S
C445 C443 1.415 . S
C446 H436 0.930 . S
C446 C444 1.419 . S
C446 C447 1.362 . S
C447 H437 0.930 . S
C447 C440 1.409 . S
C447 C446 1.362 . S
H448 C454 0.930 . S
H449 C457 0.930 . S
H450 C458 0.930 . S
H451 C459 0.930 . S
H452 C462 0.930 . S
H453 C463 0.930 . S
C454 H448 0.930 . S
C454 C455 1.355 . S
C454 C456 1.415 . S
C455 C454 1.355 . S
C455 C457 1.419 . S
C456 C454 1.415 . S
C456 C461 1.425 . S
C456 C463 1.409 . S
C457 H449 0.930 . S
C457 C455 1.419 . S
C457 C458 1.362 . S
C458 H450 0.930 . S
C458 C457 1.362 . S
C458 C461 1.409 . S
C459 H451 0.930 . S
C459 C460 1.355 . S
C459 C461 1.415 . S
C460 C459 1.355 . S
C460 C462 1.419 . S
C461 C456 1.425 . S
C461 C458 1.409 . S
C461 C459 1.415 . S
C462 H452 0.930 . S
C462 C460 1.419 . S
C462 C463 1.362 . S
C463 H453 0.930 . S
C463 C456 1.409 . S
C463 C462 1.362 . S
H464 C470 0.930 . S
H465 C473 0.930 . S
H466 C474 0.930 . S
H467 C475 0.930 . S
H468 C478 0.930 . S
H469 C479 0.930 . S
C470 H464 0.930 . S
C470 C471 1.355 . S
C470 C472 1.415 . S
C471 C470 1.355 . S
C471 C473 1.419 . S
C472 C470 1.415 . S
C472 C477 1.425 . S
C472 C479 1.409 . S
C473 H465 0.930 . S
C473 C471 1.419 . S
C473 C474 1.362 . S
C474 H466 0.930 . S
C474 C473 1.362 . S
C474 C477 1.409 . S
C475 H467 0.930 . S
C475 C476 1.355 . S
C475 C477 1.415 . S
C476 C475 1.355 . S
C476 C478 1.419 . S
C477 C472 1.425 . S
C477 C474 1.409 . S
C477 C475 1.415 . S
C478 H468 0.930 . S
C478 C476 1.419 . S
C478 C479 1.362 . S
C479 H469 0.930 . S
C479 C472 1.409 . S
C479 C478 1.362 . S
H480 C486 0.930 . S
H481 C489 0.930 . S
H482 C490 0.930 . S
H483 C491 0.930 . S
H484 C494 0.930 . S
H485 C495 0.930 . S
C486 H480 0.930 . S
C486 C487 1.355 . S
C486 C488 1.415 . S
C487 C486 1.355 . S
C487 C489 1.419 . S
C488 C486 1.415 . S
C488 C493 1.425 . S
C488 C495 1.409 . S
C489 H481 0.930 . S
C489 C487 1.419 . S
C489 C490 1.362 . S
C490 H482 0.930 . S
C490 C489 1.362 . S
C490 C493 1.409 . S
C491 H483 0.930 . S
C491 C492 1.355 . S
C491 C493 1.415 . S
C492 C491 1.355 . S
C492 C494 1.419 . S
C493 C488 1.425 . S
C493 C490 1.409 . S
C493 C491 1.415 . S
C494 H484 0.930 . S
C494 C492 1.419 . S
C494 C495 1.362 . S
C495 H485 0.930 . S
C495 C488 1.409 . S
C495 C494 1.362 . S
H496 C502 0.930 . S
H497 C505 0.930 . S
H498 C506 0.930 . S
H499 C507 0.930 . S
H500 C510 0.930 . S
H501 C511 0.930 . S
C502 H496 0.930 . S
C502 C503 1.355 . S
C502 C504 1.415 . S
C503 C502 1.355 . S
C503 C505 1.419 . S
C504 C502 1.415 . S
C504 C509 1.425 . S
C504 C511 1.409 . S
C505 H497 0.930 . S
C505 C503 1.419 . S
C505 C506 1.362 . S
C506 H498 0.930 . S
C506 C505 1.362 . S
C506 C509 1.409 . S
C507 H499 0.930 . S
C507 C508 1.355 . S
C507 C509 1.415 . S
C508 C507 1.355 . S
C508 C510 1.419 . S
C509 C504 1.425 . S
C509 C506 1.409 . S
C509 C507 1.415 . S
C510 H500 0.930 . S
C510 C508 1.419 . S
C510 C511 1.362 . S
C511 H501 0.930 . S
C511 C504 1.409 . S
C511 C510 1.362 . S
H512 C518 0.930 . S
H513 C521 0.930 . S
H514 C522 0.930 . S
H515 C523 0.930 . S
H516 C526 0.930 . S
H517 C527 0.930 . S
C518 H512 0.930 . S
C518 C519 1.355 . S
C518 C520 1.415 . S
C519 C518 1.355 . S
C519 C521 1.419 . S
C520 C518 1.415 . S
C520 C525 1.425 . S
C520 C527 1.409 . S
C521 H513 0.930 . S
C521 C519 1.419 . S
C521 C522 1.362 . S
C522 H514 0.930 . S
C522 C521 1.362 . S
C522 C525 1.409 . S
C523 H515 0.930 . S
C523 C524 1.355 . S
C523 C525 1.415 . S
C524 C523 1.355 . S
C524 C526 1.419 . S
C525 C520 1.425 . S
C525 C522 1.409 . S
C525 C523 1.415 . S
C526 H516 0.930 . S
C526 C524 1.419 . S
C526 C527 1.362 . S
C527 H517 0.930 . S
C527 C520 1.409 . S
C527 C526 1.362 . S
H528 C534 0.930 . S
H529 C537 0.930 . S
H530 C538 0.930 . S
H531 C539 0.930 . S
H532 C542 0.930 . S
H533 C543 0.930 . S
C534 H528 0.930 . S
C534 C535 1.355 . S
C534 C536 1.415 . S
C535 C534 1.355 . S
C535 C537 1.419 . S
C536 C534 1.415 . S
C536 C541 1.425 . S
C536 C543 1.409 . S
C537 H529 0.930 . S
C537 C535 1.419 . S
C537 C538 1.362 . S
C538 H530 0.930 . S
C538 C537 1.362 . S
C538 C541 1.409 . S
C539 H531 0.930 . S
C539 C540 1.355 . S
C539 C541 1.415 . S
C540 C539 1.355 . S
C540 C542 1.419 . S
C541 C536 1.425 . S
C541 C538 1.409 . S
C541 C539 1.415 . S
C542 H532 0.930 . S
C542 C540 1.419 . S
C542 C543 1.362 . S
C543 H533 0.930 . S
C543 C536 1.409 . S
C543 C542 1.362 . S
H544 C550 0.930 . S
H545 C553 0.930 . S
H546 C554 0.930 . S
H547 C555 0.930 . S
H548 C558 0.930 . S
H549 C559 0.930 . S
C550 H544 0.930 . S
C550 C551 1.355 . S
C550 C552 1.415 . S
C551 C550 1.355 . S
C551 C553 1.419 . S
C552 C550 1.415 . S
C552 C557 1.425 . S
C552 C559 1.409 . S
C553 H545 0.930 . S
C553 C551 1.419 . S
C553 C554 1.362 . S
C554 H546 0.930 . S
C554 C553 1.362 . S
C554 C557 1.409 . S
C555 H547 0.930 . S
C555 C556 1.355 . S
C555 C557 1.415 . S
C556 C555 1.355 . S
C556 C558 1.419 . S
C557 C552 1.425 . S
C557 C554 1.409 . S
C557 C555 1.415 . S
C558 H548 0.930 . S
C558 C556 1.419 . S
C558 C559 1.362 . S
C559 H549 0.930 . S
C559 C552 1.409 . S
C559 C558 1.362 . S
H560 C566 0.930 . S
H561 C569 0.930 . S
H562 C570 0.930 . S
H563 C571 0.930 . S
H564 C574 0.930 . S
H565 C575 0.930 . S
C566 H560 0.930 . S
C566 C567 1.355 . S
C566 C568 1.415 . S
C567 C566 1.355 . S
C567 C569 1.419 . S
C568 C566 1.415 . S
C568 C573 1.425 . S
C568 C575 1.409 . S
C569 H561 0.930 . S
C569 C567 1.419 . S
C569 C570 1.362 . S
C570 H562 0.930 . S
C570 C569 1.362 . S
C570 C573 1.409 . S
C571 H563 0.930 . S
C571 C572 1.355 . S
C571 C573 1.415 . S
C572 C571 1.355 . S
C572 C574 1.419 . S
C573 C568 1.425 . S
C573 C570 1.409 . S
C573 C571 1.415 . S
C574 H564 0.930 . S
C574 C572 1.419 . S
C574 C575 1.362 . S
C575 H565 0.930 . S
C575 C568 1.409 . S
C575 C574 1.362 . S
H576 C582 0.930 . S
H577 C585 0.930 . S
H578 C586 0.930 . S
H579 C587 0.930 . S
H580 C590 0.930 . S
H581 C591 0.930 . S
C582 H576 0.930 . S
C582 C583 1.355 . S
C582 C584 1.415 . S
C583 C582 1.355 . S
C583 C585 1.419 . S
C584 C582 1.415 . S
C584 C589 1.425 . S
C584 C591 1.409 . S
C585 H577 0.930 . S
C585 C583 1.419 . S
C585 C586 1.362 . S
C586 H578 0.930 . S
C586 C585 1.362 . S
C586 C589 1.409 . S
C587 H579 0.930 . S
C587 C588 1.355 . S
C587 C589 1.415 . S
C588 C587 1.355 . S
C588 C590 1.419 . S
C589 C584 1.425 . S
C589 C586 1.409 . S
C589 C587 1.415 . S
C590 H580 0.930 . S
C590 C588 1.419 . S
C590 C591 1.362 . S
C591 H581 0.930 . S
C591 C584 1.409 . S
C591 C590 1.362 . S
H592 C598 0.930 . S
H593 C601 0.930 . S
H594 C602 0.930 . S
H595 C603 0.930 . S
H596 C606 0.930 . S
H597 C607 0.930 . S
C598 H592 0.930 . S
C598 C599 1.355 . S
C598 C600 1.415 . S
C599 C598 1.355 . S
C599 C601 1.419 . S
C600 C598 1.415 . S
C600 C605 1.425 . S
C600 C607 1.409 . S
C601 H593 0.930 . S
C601 C599 1.419 . S
C601 C602 1.362 . S
C602 H594 0.930 . S
C602 C601 1.362 . S
C602 C605 1.409 . S
C603 H595 0.930 . S
C603 C604 1.355 . S
C603 C605 1.415 . S
C604 C603 1.355 . S
C604 C606 1.419 . S
C605 C600 1.425 . S
C605 C602 1.409 . S
C605 C603 1.415 . S
C606 H596 0.930 . S
C606 C604 1.419 . S
C606 C607 1.362 . S
C607 H597 0.930 . S
C607 C600 1.409 . S
C607 C606 1.362 . S
H608 C614 0.930 . S
H609 C617 0.930 . S
H610 C618 0.930 . S
H611 C619 0.930 . S
H612 C622 0.930 . S
H613 C623 0.930 . S
C614 H608 0.930 . S
C614 C615 1.355 . S
C614 C616 1.415 . S
C615 C614 1.355 . S
C615 C617 1.419 . S
C616 C614 1.415 . S
C616 C621 1.425 . S
C616 C623 1.409 . S
C617 H609 0.930 . S
C617 C615 1.419 . S
C617 C618 1.362 . S
C618 H610 0.930 . S
C618 C617 1.362 . S
C618 C621 1.409 . S
C619 H611 0.930 . S
C619 C620 1.355 . S
C619 C621 1.415 . S
C620 C619 1.355 . S
C620 C622 1.419 . S
C621 C616 1.425 . S
C621 C618 1.409 . S
C621 C619 1.415 . S
C622 H612 0.930 . S
C622 C620 1.419 . S
C622 C623 1.362 . S
C623 H613 0.930 . S
C623 C616 1.409 . S
C623 C622 1.362 . S
H624 C630 0.930 . S
H625 C633 0.930 . S
H626 C634 0.930 . S
H627 C635 0.930 . S
H628 C638 0.930 . S
H629 C639 0.930 . S
C630 H624 0.930 . S
C630 C631 1.355 . S
C630 C632 1.415 . S
C631 C630 1.355 . S
C631 C633 1.419 . S
C632 C630 1.415 . S
C632 C637 1.425 . S
C632 C639 1.409 . S
C633 H625 0.930 . S
C633 C631 1.419 . S
C633 C634 1.362 . S
C634 H626 0.930 . S
C634 C633 1.362 . S
C634 C637 1.409 . S
C635 H627 0.930 . S
C635 C636 1.355 . S
C635 C637 1.415 . S
C636 C635 1.355 . S
C636 C638 1.419 . S
C637 C632 1.425 . S
C637 C634 1.409 . S
C637 C635 1.415 . S
C638 H628 0.930 . S
C638 C636 1.419 . S
C638 C639 1.362 . S
C639 H629 0.930 . S
C639 C632 1.409 . S
C639 C638 1.362 . S
H640 C646 0.930 . S
H641 C649 0.930 . S
H642 C650 0.930 . S
H643 C651 0.930 . S
H644 C654 0.930 . S
H645 C655 0.930 . S
C646 H640 0.930 . S
C646 C647 1.355 . S
C646 C648 1.415 . S
C647 C646 1.355 . S
C647 C649 1.419 . S
C648 C646 1.415 . S
C648 C653 1.425 . S
C648 C655 1.409 . S
C649 H641 0.930 . S
C649 C647 1.419 . S
C649 C650 1.362 . S
C650 H642 0.930 . S
C650 C649 1.362 . S
C650 C653 1.409 . S
C651 H643 0.930 . S
C651 C652 1.355 . S
C651 C653 1.415 . S
C652 C651 1.355 . S
C652 C654 1.419 . S
C653 C648 1.425 . S
C653 C650 1.409 . S
C653 C651 1.415 . S
C654 H644 0.930 . S
C654 C652 1.419 . S
C654 C655 1.362 . S
C655 H645 0.930 . S
C655 C648 1.409 . S
C655 C654 1.362 . S
H656 C662 0.930 . S
H657 C665 0.930 . S
H658 C666 0.930 . S
H659 C667 0.930 . S
H660 C670 0.930 . S
H661 C671 0.930 . S
C662 H656 0.930 . S
C662 C663 1.355 . S
C662 C664 1.415 . S
C663 C662 1.355 . S
C663 C665 1.419 . S
C664 C662 1.415 . S
C664 C669 1.425 . S
C664 C671 1.409 . S
C665 H657 0.930 . S
C665 C663 1.419 . S
C665 C666 1.362 . S
C666 H658 0.930 . S
C666 C665 1.362 . S
C666 C669 1.409 . S
C667 H659 0.930 . S
C667 C668 1.355 . S
C667 C669 1.415 . S
C668 C667 1.355 . S
C668 C670 1.419 . S
C669 C664 1.425 . S
C669 C666 1.409 . S
C669 C667 1.415 . S
C670 H660 0.930 . S
C670 C668 1.419 . S
C670 C671 1.362 . S
C671 H661 0.930 . S
C671 C664 1.409 . S
C671 C670 1.362 . S
H672 C678 0.930 . S
H673 C681 0.930 . S
H674 C682 0.930 . S
H675 C683 0.930 . S
H676 C686 0.930 1_556 S
H677 C687 0.930 1_556 S
C678 H672 0.930 . S
C678 C679 1.355 . S
C678 C680 1.415 . S
C679 C678 1.355 . S
C679 C681 1.419 . S
C680 C678 1.415 . S
C680 C685 1.425 1_455 S
C680 C687 1.409 1_455 S
C681 H673 0.930 . S
C681 C679 1.419 . S
C681 C682 1.362 . S
C682 H674 0.930 . S
C682 C681 1.362 . S
C682 C685 1.409 1_455 S
C683 H675 0.930 . S
C683 C684 1.355 . S
C683 C685 1.415 . S
C684 C683 1.355 . S
C684 C686 1.419 . S
C685 C680 1.425 1_655 S
C685 C682 1.409 1_655 S
C685 C683 1.415 . S
C686 H676 0.930 1_554 S
C686 C684 1.419 . S
C686 C687 1.362 . S
C687 H677 0.930 1_554 S
C687 C680 1.409 1_655 S
C687 C686 1.362 . S
H688 C694 0.930 . S
H689 C697 0.930 . S
H690 C698 0.930 . S
H691 C699 0.930 . S
H692 C702 0.930 . S
H693 C703 0.930 . S
C694 H688 0.930 . S
C694 C695 1.355 . S
C694 C696 1.415 . S
C695 C694 1.355 . S
C695 C697 1.419 . S
C696 C694 1.415 . S
C696 C701 1.425 . S
C696 C703 1.409 . S
C697 H689 0.930 . S
C697 C695 1.419 . S
C697 C698 1.362 . S
C698 H690 0.930 . S
C698 C697 1.362 . S
C698 C701 1.409 . S
C699 H691 0.930 . S
C699 C700 1.355 . S
C699 C701 1.415 . S
C700 C699 1.355 . S
C700 C702 1.419 . S
C701 C696 1.425 . S
C701 C698 1.409 . S
C701 C699 1.415 . S
C702 H692 0.930 . S
C702 C700 1.419 . S
C702 C703 1.362 . S
C703 H693 0.930 . S
C703 C696 1.409 . S
C703 C702 1.362 . S
H704 C710 0.930 . S
H705 C713 0.930 . S
H706 C714 0.930 . S
H707 C715 0.930 . S
H708 C718 0.930 . S
H709 C719 0.930 . S
C710 H704 0.930 . S
C710 C711 1.355 . S
C710 C712 1.415 . S
C711 C710 1.355 . S
C711 C713 1.419 . S
C712 C710 1.415 . S
C712 C717 1.425 . S
C712 C719 1.409 . S
C713 H705 0.930 . S
C713 C711 1.419 . S
C713 C714 1.362 . S
C714 H706 0.930 . S
C714 C713 1.362 . S
C714 C717 1.409 . S
C715 H707 0.930 . S
C715 C716 1.355 . S
C715 C717 1.415 . S
C716 C715 1.355 . S
C716 C718 1.419 . S
C717 C712 1.425 . S
C717 C714 1.409 . S
C717 C715 1.415 . S
C718 H708 0.930 . S
C718 C716 1.419 . S
C718 C719 1.362 . S
C719 H709 0.930 . S
C719 C712 1.409 . S
C719 C718 1.362 . S
H720 C726 0.930 . S
H721 C729 0.930 . S
H722 C730 0.930 . S
H723 C731 0.930 . S
H724 C734 0.930 . S
H725 C735 0.930 . S
C726 H720 0.930 . S
C726 C727 1.355 . S
C726 C728 1.415 . S
C727 C726 1.355 . S
C727 C729 1.419 . S
C728 C726 1.415 . S
C728 C733 1.425 . S
C728 C735 1.409 . S
C729 H721 0.930 . S
C729 C727 1.419 . S
C729 C730 1.362 . S
C730 H722 0.930 . S
C730 C729 1.362 . S
C730 C733 1.409 . S
C731 H723 0.930 . S
C731 C732 1.355 . S
C731 C733 1.415 . S
C732 C731 1.355 . S
C732 C734 1.419 . S
C733 C728 1.425 . S
C733 C730 1.409 . S
C733 C731 1.415 . S
C734 H724 0.930 . S
C734 C732 1.419 . S
C734 C735 1.362 . S
C735 H725 0.930 . S
C735 C728 1.409 . S
C735 C734 1.362 . S
H736 C742 0.930 1_554 S
H737 C745 0.930 . S
H738 C746 0.930 . S
H739 C747 0.930 . S
H740 C750 0.930 . S
H741 C751 0.930 . S
C742 H736 0.930 1_556 S
C742 C743 1.355 . S
C742 C744 1.415 . S
C743 C742 1.355 . S
C743 C745 1.419 . S
C744 C742 1.415 . S
C744 C749 1.425 1_655 S
C744 C751 1.409 1_656 S
C745 H737 0.930 . S
C745 C743 1.419 . S
C745 C746 1.362 . S
C746 H738 0.930 . S
C746 C745 1.362 . S
C746 C749 1.409 1_655 S
C747 H739 0.930 . S
C747 C748 1.355 . S
C747 C749 1.415 . S
C748 C747 1.355 . S
C748 C750 1.419 1_556 S
C749 C744 1.425 1_455 S
C749 C746 1.409 1_455 S
C749 C747 1.415 . S
C750 H740 0.930 . S
C750 C748 1.419 1_554 S
C750 C751 1.362 . S
C751 H741 0.930 . S
C751 C744 1.409 1_454 S
C751 C750 1.362 . S
H752 C758 0.930 . S
H753 C761 0.930 . S
H754 C762 0.930 . S
H755 C763 0.930 . S
H756 C766 0.930 . S
H757 C767 0.930 . S
C758 H752 0.930 . S
C758 C759 1.355 . S
C758 C760 1.415 . S
C759 C758 1.355 . S
C759 C761 1.419 . S
C760 C758 1.415 . S
C760 C765 1.425 . S
C760 C767 1.409 . S
C761 H753 0.930 . S
C761 C759 1.419 . S
C761 C762 1.362 . S
C762 H754 0.930 . S
C762 C761 1.362 . S
C762 C765 1.409 . S
C763 H755 0.930 . S
C763 C764 1.355 . S
C763 C765 1.415 . S
C764 C763 1.355 . S
C764 C766 1.419 . S
C765 C760 1.425 . S
C765 C762 1.409 . S
C765 C763 1.415 . S
C766 H756 0.930 . S
C766 C764 1.419 . S
C766 C767 1.362 . S
C767 H757 0.930 . S
C767 C760 1.409 . S
C767 C766 1.362 . S
H768 C774 0.930 . S
H769 C777 0.930 . S
H770 C778 0.930 . S
H771 C779 0.930 . S
H772 C782 0.930 . S
H773 C783 0.930 . S
C774 H768 0.930 . S
C774 C775 1.355 . S
C774 C776 1.415 . S
C775 C774 1.355 . S
C775 C777 1.419 . S
C776 C774 1.415 . S
C776 C781 1.425 . S
C776 C783 1.409 . S
C777 H769 0.930 . S
C777 C775 1.419 . S
C777 C778 1.362 . S
C778 H770 0.930 . S
C778 C777 1.362 . S
C778 C781 1.409 . S
C779 H771 0.930 . S
C779 C780 1.355 . S
C779 C781 1.415 . S
C780 C779 1.355 . S
C780 C782 1.419 . S
C781 C776 1.425 . S
C781 C778 1.409 . S
C781 C779 1.415 . S
C782 H772 0.930 . S
C782 C780 1.419 . S
C782 C783 1.362 . S
C783 H773 0.930 . S
C783 C776 1.409 . S
C783 C782 1.362 . S
H784 C790 0.930 . S
H785 C793 0.930 . S
H786 C794 0.930 . S
H787 C795 0.930 . S
H788 C798 0.930 . S
H789 C799 0.930 . S
C790 H784 0.930 . S
C790 C791 1.355 . S
C790 C792 1.415 . S
C791 C790 1.355 . S
C791 C793 1.419 . S
C792 C790 1.415 . S
C792 C797 1.425 . S
C792 C799 1.409 . S
C793 H785 0.930 . S
C793 C791 1.419 . S
C793 C794 1.362 . S
C794 H786 0.930 . S
C794 C793 1.362 . S
C794 C797 1.409 . S
C795 H787 0.930 . S
C795 C796 1.355 . S
C795 C797 1.415 . S
C796 C795 1.355 . S
C796 C798 1.419 . S
C797 C792 1.425 . S
C797 C794 1.409 . S
C797 C795 1.415 . S
C798 H788 0.930 . S
C798 C796 1.419 . S
C798 C799 1.362 . S
C799 H789 0.930 . S
C799 C792 1.409 . S
C799 C798 1.362 . S
H800 C806 0.930 . S
H801 C809 0.930 . S
H802 C810 0.930 . S
H803 C811 0.930 . S
H804 C814 0.930 . S
H805 C815 0.930 . S
C806 H800 0.930 . S
C806 C807 1.355 . S
C806 C808 1.415 . S
C807 C806 1.355 . S
C807 C809 1.419 . S
C808 C806 1.415 . S
C808 C813 1.425 . S
C808 C815 1.409 . S
C809 H801 0.930 . S
C809 C807 1.419 . S
C809 C810 1.362 . S
C810 H802 0.930 . S
C810 C809 1.362 . S
C810 C813 1.409 . S
C811 H803 0.930 . S
C811 C812 1.355 . S
C811 C813 1.415 . S
C812 C811 1.355 . S
C812 C814 1.419 . S
C813 C808 1.425 . S
C813 C810 1.409 . S
C813 C811 1.415 . S
C814 H804 0.930 . S
C814 C812 1.419 . S
C814 C815 1.362 . S
C815 H805 0.930 . S
C815 C808 1.409 . S
C815 C814 1.362 . S
H816 C822 0.930 . S
H817 C825 0.930 . S
H818 C826 0.930 . S
H819 C827 0.930 . S
H820 C830 0.930 . S
H821 C831 0.930 . S
C822 H816 0.930 . S
C822 C823 1.355 . S
C822 C824 1.415 . S
C823 C822 1.355 . S
C823 C825 1.419 . S
C824 C822 1.415 . S
C824 C829 1.425 . S
C824 C831 1.409 . S
C825 H817 0.930 . S
C825 C823 1.419 . S
C825 C826 1.362 . S
C826 H818 0.930 . S
C826 C825 1.362 . S
C826 C829 1.409 . S
C827 H819 0.930 . S
C827 C828 1.355 . S
C827 C829 1.415 . S
C828 C827 1.355 . S
C828 C830 1.419 . S
C829 C824 1.425 . S
C829 C826 1.409 . S
C829 C827 1.415 . S
C830 H820 0.930 . S
C830 C828 1.419 . S
C830 C831 1.362 . S
C831 H821 0.930 . S
C831 C824 1.409 . S
C831 C830 1.362 . S
H832 C838 0.930 . S
H833 C841 0.930 . S
H834 C842 0.930 . S
H835 C843 0.930 . S
H836 C846 0.930 . S
H837 C847 0.930 . S
C838 H832 0.930 . S
C838 C839 1.355 . S
C838 C840 1.415 . S
C839 C838 1.355 . S
C839 C841 1.419 . S
C840 C838 1.415 . S
C840 C845 1.425 . S
C840 C847 1.409 . S
C841 H833 0.930 . S
C841 C839 1.419 . S
C841 C842 1.362 . S
C842 H834 0.930 . S
C842 C841 1.362 . S
C842 C845 1.409 . S
C843 H835 0.930 . S
C843 C844 1.355 . S
C843 C845 1.415 . S
C844 C843 1.355 . S
C844 C846 1.419 . S
C845 C840 1.425 . S
C845 C842 1.409 . S
C845 C843 1.415 . S
C846 H836 0.930 . S
C846 C844 1.419 . S
C846 C847 1.362 . S
C847 H837 0.930 . S
C847 C840 1.409 . S
C847 C846 1.362 . S
H848 C854 0.930 . S
H849 C857 0.930 . S
H850 C858 0.930 . S
H851 C859 0.930 . S
H852 C862 0.930 . S
H853 C863 0.930 . S
C854 H848 0.930 . S
C854 C855 1.355 . S
C854 C856 1.415 . S
C855 C854 1.355 . S
C855 C857 1.419 . S
C856 C854 1.415 . S
C856 C861 1.425 . S
C856 C863 1.409 . S
C857 H849 0.930 . S
C857 C855 1.419 . S
C857 C858 1.362 . S
C858 H850 0.930 . S
C858 C857 1.362 . S
C858 C861 1.409 . S
C859 H851 0.930 . S
C859 C860 1.355 . S
C859 C861 1.415 . S
C860 C859 1.355 . S
C860 C862 1.419 . S
C861 C856 1.425 . S
C861 C858 1.409 . S
C861 C859 1.415 . S
C862 H852 0.930 . S
C862 C860 1.419 . S
C862 C863 1.362 . S
C863 H853 0.930 . S
C863 C856 1.409 . S
C863 C862 1.362 . S
H864 C870 0.930 . S
H865 C873 0.930 . S
H866 C874 0.930 . S
H867 C875 0.930 . S
H868 C878 0.930 . S
H869 C879 0.930 . S
C870 H864 0.930 . S
C870 C871 1.355 . S
C870 C872 1.415 . S
C871 C870 1.355 . S
C871 C873 1.419 . S
C872 C870 1.415 . S
C872 C877 1.425 . S
C872 C879 1.409 . S
C873 H865 0.930 . S
C873 C871 1.419 . S
C873 C874 1.362 . S
C874 H866 0.930 . S
C874 C873 1.362 . S
C874 C877 1.409 . S
C875 H867 0.930 . S
C875 C876 1.355 . S
C875 C877 1.415 . S
C876 C875 1.355 . S
C876 C878 1.419 . S
C877 C872 1.425 . S
C877 C874 1.409 . S
C877 C875 1.415 . S
C878 H868 0.930 . S
C878 C876 1.419 . S
C878 C879 1.362 . S
C879 H869 0.930 . S
C879 C872 1.409 . S
C879 C878 1.362 . S
H880 C886 0.930 1_556 S
H881 C889 0.930 . S
H882 C890 0.930 . S
H883 C891 0.930 . S
H884 C894 0.930 . S
H885 C895 0.930 . S
C886 H880 0.930 1_554 S
C886 C887 1.355 . S
C886 C888 1.415 . S
C887 C886 1.355 . S
C887 C889 1.419 . S
C888 C886 1.415 . S
C888 C893 1.425 1_655 S
C888 C895 1.409 1_654 S
C889 H881 0.930 . S
C889 C887 1.419 . S
C889 C890 1.362 . S
C890 H882 0.930 . S
C890 C889 1.362 . S
C890 C893 1.409 1_655 S
C891 H883 0.930 . S
C891 C892 1.355 . S
C891 C893 1.415 . S
C892 C891 1.355 . S
C892 C894 1.419 1_554 S
C893 C888 1.425 1_455 S
C893 C890 1.409 1_455 S
C893 C891 1.415 . S
C894 H884 0.930 . S
C894 C892 1.419 1_556 S
C894 C895 1.362 . S
C895 H885 0.930 . S
C895 C888 1.409 1_456 S
C895 C894 1.362 . S
H896 C902 0.930 . S
H897 C905 0.930 . S
H898 C906 0.930 . S
H899 C907 0.930 . S
H900 C910 0.930 . S
H901 C911 0.930 . S
C902 H896 0.930 . S
C902 C903 1.355 . S
C902 C904 1.415 . S
C903 C902 1.355 . S
C903 C905 1.419 . S
C904 C902 1.415 . S
C904 C909 1.425 . S
C904 C911 1.409 . S
C905 H897 0.930 . S
C905 C903 1.419 . S
C905 C906 1.362 . S
C906 H898 0.930 . S
C906 C905 1.362 . S
C906 C909 1.409 . S
C907 H899 0.930 . S
C907 C908 1.355 . S
C907 C909 1.415 . S
C908 C907 1.355 . S
C908 C910 1.419 . S
C909 C904 1.425 . S
C909 C906 1.409 . S
C909 C907 1.415 . S
C910 H900 0.930 . S
C910 C908 1.419 . S
C910 C911 1.362 . S
C911 H901 0.930 . S
C911 C904 1.409 . S
C911 C910 1.362 . S
H912 C918 0.929 1_554 S
H913 C921 0.930 . S
H914 C922 0.930 . S
H915 C923 0.930 . S
H916 C926 0.930 1_554 S
H917 C927 0.930 1_554 S
C918 H912 0.929 1_556 S
C918 C919 1.355 . S
C918 C920 1.415 . S
C919 C918 1.355 . S
C919 C921 1.419 . S
C920 C918 1.415 . S
C920 C925 1.425 1_455 S
C920 C927 1.409 1_455 S
C921 H913 0.930 . S
C921 C919 1.419 . S
C921 C922 1.362 . S
C922 H914 0.930 . S
C922 C921 1.362 . S
C922 C925 1.409 1_455 S
C923 H915 0.930 . S
C923 C924 1.355 . S
C923 C925 1.415 . S
C924 C923 1.355 . S
C924 C926 1.419 . S
C925 C920 1.425 1_655 S
C925 C922 1.409 1_655 S
C925 C923 1.415 . S
C926 H916 0.930 1_556 S
C926 C924 1.419 . S
C926 C927 1.362 . S
C927 H917 0.930 1_556 S
C927 C920 1.409 1_655 S
C927 C926 1.362 . S
H928 C934 0.930 . S
H929 C937 0.930 . S
H930 C938 0.930 . S
H931 C939 0.930 . S
H932 C942 0.930 . S
H933 C943 0.930 . S
C934 H928 0.930 . S
C934 C935 1.355 1_554 S
C934 C936 1.415 . S
C935 C934 1.355 1_556 S
C935 C937 1.419 . S
C936 C934 1.415 . S
C936 C941 1.425 1_554 S
C936 C943 1.409 . S
C937 H929 0.930 . S
C937 C935 1.419 . S
C937 C938 1.362 . S
C938 H930 0.930 . S
C938 C937 1.362 . S
C938 C941 1.409 . S
C939 H931 0.930 . S
C939 C940 1.355 1_556 S
C939 C941 1.415 . S
C940 C939 1.355 1_554 S
C940 C942 1.419 . S
C941 C936 1.425 1_556 S
C941 C938 1.409 . S
C941 C939 1.415 . S
C942 H932 0.930 . S
C942 C940 1.419 . S
C942 C943 1.362 . S
C943 H933 0.930 . S
C943 C936 1.409 . S
C943 C942 1.362 . S
H944 C950 0.930 . S
H945 C953 0.930 . S
H946 C954 0.930 . S
H947 C955 0.930 . S
H948 C958 0.930 . S
H949 C959 0.930 . S
C950 H944 0.930 . S
C950 C951 1.355 . S
C950 C952 1.415 . S
C951 C950 1.355 . S
C951 C953 1.419 . S
C952 C950 1.415 . S
C952 C957 1.425 . S
C952 C959 1.409 . S
C953 H945 0.930 . S
C953 C951 1.419 . S
C953 C954 1.362 . S
C954 H946 0.930 . S
C954 C953 1.362 . S
C954 C957 1.409 . S
C955 H947 0.930 . S
C955 C956 1.355 . S
C955 C957 1.415 . S
C956 C955 1.355 . S
C956 C958 1.419 . S
C957 C952 1.425 . S
C957 C954 1.409 . S
C957 C955 1.415 . S
C958 H948 0.930 . S
C958 C956 1.419 . S
C958 C959 1.362 . S
C959 H949 0.930 . S
C959 C952 1.409 . S
C959 C958 1.362 . S
H960 C966 0.930 . S
H961 C969 0.930 . S
H962 C970 0.930 . S
H963 C971 0.930 . S
H964 C974 0.930 . S
H965 C975 0.930 . S
C966 H960 0.930 . S
C966 C967 1.355 . S
C966 C968 1.415 . S
C967 C966 1.355 . S
C967 C969 1.419 . S
C968 C966 1.415 . S
C968 C973 1.425 . S
C968 C975 1.409 . S
C969 H961 0.930 . S
C969 C967 1.419 . S
C969 C970 1.362 . S
C970 H962 0.930 . S
C970 C969 1.362 . S
C970 C973 1.409 . S
C971 H963 0.930 . S
C971 C972 1.355 . S
C971 C973 1.415 . S
C972 C971 1.355 . S
C972 C974 1.419 . S
C973 C968 1.425 . S
C973 C970 1.409 . S
C973 C971 1.415 . S
C974 H964 0.930 . S
C974 C972 1.419 . S
C974 C975 1.362 . S
C975 H965 0.930 . S
C975 C968 1.409 . S
C975 C974 1.362 . S
H976 C982 0.930 . S
H977 C985 0.930 . S
H978 C986 0.930 . S
H979 C987 0.930 . S
H980 C990 0.930 . S
H981 C991 0.930 . S
C982 H976 0.930 . S
C982 C983 1.355 . S
C982 C984 1.415 . S
C983 C982 1.355 . S
C983 C985 1.419 . S
C984 C982 1.415 . S
C984 C989 1.425 . S
C984 C991 1.409 . S
C985 H977 0.930 . S
C985 C983 1.419 . S
C985 C986 1.362 . S
C986 H978 0.930 . S
C986 C985 1.362 . S
C986 C989 1.409 . S
C987 H979 0.930 . S
C987 C988 1.355 . S
C987 C989 1.415 . S
C988 C987 1.355 . S
C988 C990 1.419 . S
C989 C984 1.425 . S
C989 C986 1.409 . S
C989 C987 1.415 . S
C990 H980 0.930 . S
C990 C988 1.419 . S
C990 C991 1.362 . S
C991 H981 0.930 . S
C991 C984 1.409 . S
C991 C990 1.362 . S
H992 C998 0.930 . S
H993 C1001 0.930 . S
H994 C1002 0.930 . S
H995 C1003 0.930 . S
H996 C1006 0.930 . S
H997 C1007 0.930 . S
C998 H992 0.930 . S
C998 C999 1.355 1_556 S
C998 C1000 1.415 . S
C999 C998 1.355 1_554 S
C999 C1001 1.419 . S
C1000 C998 1.415 . S
C1000 C1005 1.425 1_556 S
C1000 C1007 1.409 . S
C1001 H993 0.930 . S
C1001 C999 1.419 . S
C1001 C1002 1.362 . S
C1002 H994 0.930 . S
C1002 C1001 1.362 . S
C1002 C1005 1.409 . S
C1003 H995 0.930 . S
C1003 C1004 1.355 1_554 S
C1003 C1005 1.415 . S
C1004 C1003 1.355 1_556 S
C1004 C1006 1.419 . S
C1005 C1000 1.425 1_554 S
C1005 C1002 1.409 . S
C1005 C1003 1.415 . S
C1006 H996 0.930 . S
C1006 C1004 1.419 . S
C1006 C1007 1.362 . S
C1007 H997 0.930 . S
C1007 C1000 1.409 . S
C1007 C1006 1.362 . S
H1008 C1014 0.930 . S
H1009 C1017 0.930 . S
H1010 C1018 0.930 . S
H1011 C1019 0.930 . S
H1012 C1022 0.930 . S
H1013 C1023 0.930 . S
C1014 H1008 0.930 . S
C1014 C1015 1.355 . S
C1014 C1016 1.415 . S
C1015 C1014 1.355 . S
C1015 C1017 1.419 . S
C1016 C1014 1.415 . S
C1016 C1021 1.425 . S
C1016 C1023 1.409 . S
C1017 H1009 0.930 . S
C1017 C1015 1.419 . S
C1017 C1018 1.362 . S
C1018 H1010 0.930 . S
C1018 C1017 1.362 . S
C1018 C1021 1.409 . S
C1019 H1011 0.930 . S
C1019 C1020 1.355 . S
C1019 C1021 1.415 . S
C1020 C1019 1.355 . S
C1020 C1022 1.419 . S
C1021 C1016 1.425 . S
C1021 C1018 1.409 . S
C1021 C1019 1.415 . S
C1022 H1012 0.930 . S
C1022 C1020 1.419 . S
C1022 C1023 1.362 . S
C1023 H1013 0.930 . S
C1023 C1016 1.409 . S
C1023 C1022 1.362 . S
H1024 C1030 0.930 . S
H1025 C1033 0.930 . S
H1026 C1034 0.930 . S
H1027 C1035 0.930 . S
H1028 C1038 0.930 . S
H1029 C1039 0.930 . S
C1030 H1024 0.930 . S
C1030 C1031 1.355 . S
C1030 C1032 1.415 . S
C1031 C1030 1.355 . S
C1031 C1033 1.419 . S
C1032 C1030 1.415 . S
C1032 C1037 1.425 . S
C1032 C1039 1.409 . S
C1033 H1025 0.930 . S
C1033 C1031 1.419 . S
C1033 C1034 1.362 . S
C1034 H1026 0.930 . S
C1034 C1033 1.362 . S
C1034 C1037 1.409 . S
C1035 H1027 0.930 . S
C1035 C1036 1.355 . S
C1035 C1037 1.415 . S
C1036 C1035 1.355 . S
C1036 C1038 1.419 . S
C1037 C1032 1.425 . S
C1037 C1034 1.409 . S
C1037 C1035 1.415 . S
C1038 H1028 0.930 . S
C1038 C1036 1.419 . S
C1038 C1039 1.362 . S
C1039 H1029 0.930 . S
C1039 C1032 1.409 . S
C1039 C1038 1.362 . S
H1040 C1046 0.930 . S
H1041 C1049 0.930 . S
H1042 C1050 0.930 . S
H1043 C1051 0.930 . S
H1044 C1054 0.930 . S
H1045 C1055 0.930 . S
C1046 H1040 0.930 . S
C1046 C1047 1.355 . S
C1046 C1048 1.415 . S
C1047 C1046 1.355 . S
C1047 C1049 1.419 . S
C1048 C1046 1.415 . S
C1048 C1053 1.425 . S
C1048 C1055 1.409 . S
C1049 H1041 0.930 . S
C1049 C1047 1.419 . S
C1049 C1050 1.362 . S
C1050 H1042 0.930 . S
C1050 C1049 1.362 . S
C1050 C1053 1.409 . S
C1051 H1043 0.930 . S
C1051 C1052 1.355 . S
C1051 C1053 1.415 . S
C1052 C1051 1.355 . S
C1052 C1054 1.419 . S
C1053 C1048 1.425 . S
C1053 C1050 1.409 . S
C1053 C1051 1.415 . S
C1054 H1044 0.930 . S
C1054 C1052 1.419 . S
C1054 C1055 1.362 . S
C1055 H1045 0.930 . S
C1055 C1048 1.409 . S
C1055 C1054 1.362 . S
H1056 C1062 0.930 . S
H1057 C1065 0.930 . S
H1058 C1066 0.930 . S
H1059 C1067 0.930 . S
H1060 C1070 0.930 . S
H1061 C1071 0.930 . S
C1062 H1056 0.930 . S
C1062 C1063 1.355 . S
C1062 C1064 1.415 . S
C1063 C1062 1.355 . S
C1063 C1065 1.419 . S
C1064 C1062 1.415 . S
C1064 C1069 1.425 1_545 S
C1064 C1071 1.409 1_545 S
C1065 H1057 0.930 . S
C1065 C1063 1.419 . S
C1065 C1066 1.362 . S
C1066 H1058 0.930 . S
C1066 C1065 1.362 . S
C1066 C1069 1.409 1_545 S
C1067 H1059 0.930 . S
C1067 C1068 1.355 . S
C1067 C1069 1.415 . S
C1068 C1067 1.355 . S
C1068 C1070 1.419 . S
C1069 C1064 1.425 1_565 S
C1069 C1066 1.409 1_565 S
C1069 C1067 1.415 . S
C1070 H1060 0.930 . S
C1070 C1068 1.419 . S
C1070 C1071 1.362 . S
C1071 H1061 0.930 . S
C1071 C1064 1.409 1_565 S
C1071 C1070 1.362 . S
H1072 C1078 0.930 . S
H1073 C1081 0.930 . S
H1074 C1082 0.930 . S
H1075 C1083 0.930 . S
H1076 C1086 0.930 . S
H1077 C1087 0.930 . S
C1078 H1072 0.930 . S
C1078 C1079 1.355 . S
C1078 C1080 1.415 . S
C1079 C1078 1.355 . S
C1079 C1081 1.419 . S
C1080 C1078 1.415 . S
C1080 C1085 1.425 . S
C1080 C1087 1.409 . S
C1081 H1073 0.930 . S
C1081 C1079 1.419 . S
C1081 C1082 1.362 . S
C1082 H1074 0.930 . S
C1082 C1081 1.362 . S
C1082 C1085 1.409 . S
C1083 H1075 0.930 . S
C1083 C1084 1.355 . S
C1083 C1085 1.415 . S
C1084 C1083 1.355 . S
C1084 C1086 1.419 . S
C1085 C1080 1.425 . S
C1085 C1082 1.409 . S
C1085 C1083 1.415 . S
C1086 H1076 0.930 . S
C1086 C1084 1.419 . S
C1086 C1087 1.362 . S
C1087 H1077 0.930 . S
C1087 C1080 1.409 . S
C1087 C1086 1.362 . S
H1088 C1094 0.930 . S
H1089 C1097 0.930 . S
H1090 C1098 0.930 1_545 S
H1091 C1099 0.930 . S
H1092 C1102 0.930 . S
H1093 C1103 0.930 1_565 S
C1094 H1088 0.930 . S
C1094 C1095 1.355 1_556 S
C1094 C1096 1.415 . S
C1095 C1094 1.355 1_554 S
C1095 C1097 1.419 . S
C1096 C1094 1.415 . S
C1096 C1101 1.425 1_566 S
C1096 C1103 1.409 1_565 S
C1097 H1089 0.930 . S
C1097 C1095 1.419 . S
C1097 C1098 1.362 . S
C1098 H1090 0.930 1_565 S
C1098 C1097 1.362 . S
C1098 C1101 1.409 1_565 S
C1099 H1091 0.930 . S
C1099 C1100 1.355 1_554 S
C1099 C1101 1.415 . S
C1100 C1099 1.355 1_556 S
C1100 C1102 1.419 . S
C1101 C1096 1.425 1_544 S
C1101 C1098 1.409 1_545 S
C1101 C1099 1.415 . S
C1102 H1092 0.930 . S
C1102 C1100 1.419 . S
C1102 C1103 1.362 . S
C1103 H1093 0.930 1_545 S
C1103 C1096 1.409 1_545 S
C1103 C1102 1.362 . S
H1104 C1110 0.930 . S
H1105 C1113 0.930 . S
H1106 C1114 0.930 . S
H1107 C1115 0.930 . S
H1108 C1118 0.930 . S
H1109 C1119 0.930 . S
C1110 H1104 0.930 . S
C1110 C1111 1.355 . S
C1110 C1112 1.415 . S
C1111 C1110 1.355 . S
C1111 C1113 1.419 . S
C1112 C1110 1.415 . S
C1112 C1117 1.425 . S
C1112 C1119 1.409 . S
C1113 H1105 0.930 . S
C1113 C1111 1.419 . S
C1113 C1114 1.362 . S
C1114 H1106 0.930 . S
C1114 C1113 1.362 . S
C1114 C1117 1.409 . S
C1115 H1107 0.930 . S
C1115 C1116 1.355 . S
C1115 C1117 1.415 . S
C1116 C1115 1.355 . S
C1116 C1118 1.419 . S
C1117 C1112 1.425 . S
C1117 C1114 1.409 . S
C1117 C1115 1.415 . S
C1118 H1108 0.930 . S
C1118 C1116 1.419 . S
C1118 C1119 1.362 . S
C1119 H1109 0.930 . S
C1119 C1112 1.409 . S
C1119 C1118 1.362 . S
H1120 C1126 0.930 . S
H1121 C1129 0.930 . S
H1122 C1130 0.930 . S
H1123 C1131 0.930 . S
H1124 C1134 0.930 . S
H1125 C1135 0.930 . S
C1126 H1120 0.930 . S
C1126 C1127 1.355 . S
C1126 C1128 1.415 . S
C1127 C1126 1.355 . S
C1127 C1129 1.419 . S
C1128 C1126 1.415 . S
C1128 C1133 1.425 1_545 S
C1128 C1135 1.409 1_545 S
C1129 H1121 0.930 . S
C1129 C1127 1.419 . S
C1129 C1130 1.362 . S
C1130 H1122 0.930 . S
C1130 C1129 1.362 . S
C1130 C1133 1.409 1_545 S
C1131 H1123 0.930 . S
C1131 C1132 1.355 . S
C1131 C1133 1.415 . S
C1132 C1131 1.355 . S
C1132 C1134 1.419 . S
C1133 C1128 1.425 1_565 S
C1133 C1130 1.409 1_565 S
C1133 C1131 1.415 . S
C1134 H1124 0.930 . S
C1134 C1132 1.419 . S
C1134 C1135 1.362 . S
C1135 H1125 0.930 . S
C1135 C1128 1.409 1_565 S
C1135 C1134 1.362 . S
H1136 C1142 0.930 . S
H1137 C1145 0.930 . S
H1138 C1146 0.930 . S
H1139 C1147 0.930 . S
H1140 C1150 0.930 . S
H1141 C1151 0.930 . S
C1142 H1136 0.930 . S
C1142 C1143 1.355 . S
C1142 C1144 1.415 . S
C1143 C1142 1.355 . S
C1143 C1145 1.419 . S
C1144 C1142 1.415 . S
C1144 C1149 1.425 . S
C1144 C1151 1.409 . S
C1145 H1137 0.930 . S
C1145 C1143 1.419 . S
C1145 C1146 1.362 . S
C1146 H1138 0.930 . S
C1146 C1145 1.362 . S
C1146 C1149 1.409 . S
C1147 H1139 0.930 . S
C1147 C1148 1.355 . S
C1147 C1149 1.415 . S
C1148 C1147 1.355 . S
C1148 C1150 1.419 . S
C1149 C1144 1.425 . S
C1149 C1146 1.409 . S
C1149 C1147 1.415 . S
C1150 H1140 0.930 . S
C1150 C1148 1.419 . S
C1150 C1151 1.362 . S
C1151 H1141 0.930 . S
C1151 C1144 1.409 . S
C1151 C1150 1.362 . S
H1152 C1158 0.930 . S
H1153 C1161 0.930 . S
H1154 C1162 0.930 . S
H1155 C1163 0.930 . S
H1156 C1166 0.930 . S
H1157 C1167 0.930 . S
C1158 H1152 0.930 . S
C1158 C1159 1.355 . S
C1158 C1160 1.415 . S
C1159 C1158 1.355 . S
C1159 C1161 1.419 1_554 S
C1160 C1158 1.415 . S
C1160 C1165 1.425 1_564 S
C1160 C1167 1.409 1_565 S
C1161 H1153 0.930 . S
C1161 C1159 1.419 1_556 S
C1161 C1162 1.362 . S
C1162 H1154 0.930 . S
C1162 C1161 1.362 . S
C1162 C1165 1.409 1_565 S
C1163 H1155 0.930 . S
C1163 C1164 1.355 . S
C1163 C1165 1.415 . S
C1164 C1163 1.355 . S
C1164 C1166 1.419 1_556 S
C1165 C1160 1.425 1_546 S
C1165 C1162 1.409 1_545 S
C1165 C1163 1.415 . S
C1166 H1156 0.930 . S
C1166 C1164 1.419 1_554 S
C1166 C1167 1.362 . S
C1167 H1157 0.930 . S
C1167 C1160 1.409 1_545 S
C1167 C1166 1.362 . S
H1168 C1174 0.930 . S
H1169 C1177 0.930 . S
H1170 C1178 0.930 . S
H1171 C1179 0.930 . S
H1172 C1182 0.930 . S
H1173 C1183 0.930 . S
C1174 H1168 0.930 . S
C1174 C1175 1.355 . S
C1174 C1176 1.415 . S
C1175 C1174 1.355 . S
C1175 C1177 1.419 . S
C1176 C1174 1.415 . S
C1176 C1181 1.425 . S
C1176 C1183 1.409 . S
C1177 H1169 0.930 . S
C1177 C1175 1.419 . S
C1177 C1178 1.362 . S
C1178 H1170 0.930 . S
C1178 C1177 1.362 . S
C1178 C1181 1.409 . S
C1179 H1171 0.930 . S
C1179 C1180 1.355 . S
C1179 C1181 1.415 . S
C1180 C1179 1.355 . S
C1180 C1182 1.419 . S
C1181 C1176 1.425 . S
C1181 C1178 1.409 . S
C1181 C1179 1.415 . S
C1182 H1172 0.930 . S
C1182 C1180 1.419 . S
C1182 C1183 1.362 . S
C1183 H1173 0.930 . S
C1183 C1176 1.409 . S
C1183 C1182 1.362 . S
H1184 C1190 0.930 . S
H1185 C1193 0.892 1_556 S
H1186 C1194 0.930 1_556 S
H1187 C1195 0.930 . S
H1188 C1198 0.930 . S
H1189 C1199 0.930 . S
C1190 H1184 0.930 . S
C1190 C1191 1.355 . S
C1190 C1192 1.415 . S
C1191 C1190 1.355 . S
C1191 C1193 1.419 . S
C1192 C1190 1.415 . S
C1192 C1197 1.425 . S
C1192 C1199 1.409 . S
C1193 H1185 0.892 1_554 S
C1193 C1191 1.419 . S
C1193 C1194 1.362 . S
C1194 H1186 0.930 1_554 S
C1194 C1193 1.362 . S
C1194 C1197 1.409 . S
C1195 H1187 0.930 . S
C1195 C1196 1.355 . S
C1195 C1197 1.415 . S
C1196 C1195 1.355 . S
C1196 C1198 1.419 . S
C1197 C1192 1.425 . S
C1197 C1194 1.409 . S
C1197 C1195 1.415 . S
C1198 H1188 0.930 . S
C1198 C1196 1.419 . S
C1198 C1199 1.362 . S
C1199 H1189 0.930 . S
C1199 C1192 1.409 . S
C1199 C1198 1.362 . S
H1200 C1206 0.930 . S
H1201 C1209 0.930 . S
H1202 C1210 0.930 . S
H1203 C1211 0.930 . S
H1204 C1214 0.930 . S
H1205 C1215 0.930 . S
C1206 H1200 0.930 . S
C1206 C1207 1.355 . S
C1206 C1208 1.415 . S
C1207 C1206 1.355 . S
C1207 C1209 1.419 . S
C1208 C1206 1.415 . S
C1208 C1213 1.425 . S
C1208 C1215 1.409 . S
C1209 H1201 0.930 . S
C1209 C1207 1.419 . S
C1209 C1210 1.362 . S
C1210 H1202 0.930 . S
C1210 C1209 1.362 . S
C1210 C1213 1.409 . S
C1211 H1203 0.930 . S
C1211 C1212 1.355 . S
C1211 C1213 1.415 . S
C1212 C1211 1.355 . S
C1212 C1214 1.419 . S
C1213 C1208 1.425 . S
C1213 C1210 1.409 . S
C1213 C1211 1.415 . S
C1214 H1204 0.930 . S
C1214 C1212 1.419 . S
C1214 C1215 1.362 . S
C1215 H1205 0.930 . S
C1215 C1208 1.409 . S
C1215 C1214 1.362 . S
H1216 C1222 0.930 . S
H1217 C1225 0.930 . S
H1218 C1226 0.930 . S
H1219 C1227 0.930 . S
H1220 C1230 0.930 . S
H1221 C1231 0.930 . S
C1222 H1216 0.930 . S
C1222 C1223 1.355 . S
C1222 C1224 1.415 . S
C1223 C1222 1.355 . S
C1223 C1225 1.419 . S
C1224 C1222 1.415 . S
C1224 C1229 1.425 . S
C1224 C1231 1.409 . S
C1225 H1217 0.930 . S
C1225 C1223 1.419 . S
C1225 C1226 1.362 . S
C1226 H1218 0.930 . S
C1226 C1225 1.362 . S
C1226 C1229 1.409 . S
C1227 H1219 0.930 . S
C1227 C1228 1.355 . S
C1227 C1229 1.415 . S
C1228 C1227 1.355 . S
C1228 C1230 1.419 . S
C1229 C1224 1.425 . S
C1229 C1226 1.409 . S
C1229 C1227 1.415 . S
C1230 H1220 0.930 . S
C1230 C1228 1.419 . S
C1230 C1231 1.362 . S
C1231 H1221 0.930 . S
C1231 C1224 1.409 . S
C1231 C1230 1.362 . S
H1232 C1238 0.930 . S
H1233 C1241 0.930 . S
H1234 C1242 0.930 . S
H1235 C1243 0.930 . S
H1236 C1246 0.930 . S
H1237 C1247 0.930 . S
C1238 H1232 0.930 . S
C1238 C1239 1.355 . S
C1238 C1240 1.415 . S
C1239 C1238 1.355 . S
C1239 C1241 1.419 . S
C1240 C1238 1.415 . S
C1240 C1245 1.425 1_655 S
C1240 C1247 1.409 1_655 S
C1241 H1233 0.930 . S
C1241 C1239 1.419 . S
C1241 C1242 1.362 . S
C1242 H1234 0.930 . S
C1242 C1241 1.362 . S
C1242 C1245 1.409 1_655 S
C1243 H1235 0.930 . S
C1243 C1244 1.355 . S
C1243 C1245 1.415 . S
C1244 C1243 1.355 . S
C1244 C1246 1.419 . S
C1245 C1240 1.425 1_455 S
C1245 C1242 1.409 1_455 S
C1245 C1243 1.415 . S
C1246 H1236 0.930 . S
C1246 C1244 1.419 . S
C1246 C1247 1.362 . S
C1247 H1237 0.930 . S
C1247 C1240 1.409 1_455 S
C1247 C1246 1.362 . S
H1248 C1254 0.930 . S
H1249 C1257 0.930 . S
H1250 C1258 0.930 . S
H1251 C1259 0.930 . S
H1252 C1262 0.892 1_554 S
H1253 C1263 0.930 1_554 S
C1254 H1248 0.930 . S
C1254 C1255 1.355 . S
C1254 C1256 1.415 . S
C1255 C1254 1.355 . S
C1255 C1257 1.419 . S
C1256 C1254 1.415 . S
C1256 C1261 1.425 . S
C1256 C1263 1.409 . S
C1257 H1249 0.930 . S
C1257 C1255 1.419 . S
C1257 C1258 1.362 . S
C1258 H1250 0.930 . S
C1258 C1257 1.362 . S
C1258 C1261 1.409 . S
C1259 H1251 0.930 . S
C1259 C1260 1.355 . S
C1259 C1261 1.415 . S
C1260 C1259 1.355 . S
C1260 C1262 1.419 . S
C1261 C1256 1.425 . S
C1261 C1258 1.409 . S
C1261 C1259 1.415 . S
C1262 H1252 0.892 1_556 S
C1262 C1260 1.419 . S
C1262 C1263 1.362 . S
C1263 H1253 0.930 1_556 S
C1263 C1256 1.409 . S
C1263 C1262 1.362 . S
H1264 C1270 0.930 . S
H1265 C1273 0.930 . S
H1266 C1274 0.930 . S
H1267 C1275 0.930 . S
H1268 C1278 0.930 . S
H1269 C1279 0.930 . S
C1270 H1264 0.930 . S
C1270 C1271 1.355 . S
C1270 C1272 1.415 . S
C1271 C1270 1.355 . S
C1271 C1273 1.419 . S
C1272 C1270 1.415 . S
C1272 C1277 1.425 1_655 S
C1272 C1279 1.409 1_655 S
C1273 H1265 0.930 . S
C1273 C1271 1.419 . S
C1273 C1274 1.362 . S
C1274 H1266 0.930 . S
C1274 C1273 1.362 . S
C1274 C1277 1.409 1_655 S
C1275 H1267 0.930 . S
C1275 C1276 1.355 . S
C1275 C1277 1.415 . S
C1276 C1275 1.355 . S
C1276 C1278 1.419 . S
C1277 C1272 1.425 1_455 S
C1277 C1274 1.409 1_455 S
C1277 C1275 1.415 . S
C1278 H1268 0.930 . S
C1278 C1276 1.419 . S
C1278 C1279 1.362 . S
C1279 H1269 0.930 . S
C1279 C1272 1.409 1_455 S
C1279 C1278 1.362 . S
H1280 C1286 0.930 . S
H1281 C1289 0.930 . S
H1282 C1290 0.930 . S
H1283 C1291 0.930 . S
H1284 C1294 0.930 . S
H1285 C1295 0.930 . S
C1286 H1280 0.930 . S
C1286 C1287 1.355 . S
C1286 C1288 1.415 . S
C1287 C1286 1.355 . S
C1287 C1289 1.419 . S
C1288 C1286 1.415 . S
C1288 C1293 1.425 . S
C1288 C1295 1.409 . S
C1289 H1281 0.930 . S
C1289 C1287 1.419 . S
C1289 C1290 1.362 . S
C1290 H1282 0.930 . S
C1290 C1289 1.362 . S
C1290 C1293 1.409 . S
C1291 H1283 0.930 . S
C1291 C1292 1.355 . S
C1291 C1293 1.415 . S
C1292 C1291 1.355 . S
C1292 C1294 1.419 . S
C1293 C1288 1.425 . S
C1293 C1290 1.409 . S
C1293 C1291 1.415 . S
C1294 H1284 0.930 . S
C1294 C1292 1.419 . S
C1294 C1295 1.362 . S
C1295 H1285 0.930 . S
C1295 C1288 1.409 . S
C1295 C1294 1.362 . S
H1296 C1302 0.930 . S
H1297 C1305 0.930 . S
H1298 C1306 0.930 . S
H1299 C1307 0.930 . S
H1300 C1310 0.930 . S
H1301 C1311 0.930 . S
C1302 H1296 0.930 . S
C1302 C1303 1.355 . S
C1302 C1304 1.415 . S
C1303 C1302 1.355 . S
C1303 C1305 1.419 . S
C1304 C1302 1.415 . S
C1304 C1309 1.425 . S
C1304 C1311 1.409 . S
C1305 H1297 0.930 . S
C1305 C1303 1.419 . S
C1305 C1306 1.362 . S
C1306 H1298 0.930 . S
C1306 C1305 1.362 . S
C1306 C1309 1.409 . S
C1307 H1299 0.930 . S
C1307 C1308 1.355 . S
C1307 C1309 1.415 . S
C1308 C1307 1.355 . S
C1308 C1310 1.419 . S
C1309 C1304 1.425 . S
C1309 C1306 1.409 . S
C1309 C1307 1.415 . S
C1310 H1300 0.930 . S
C1310 C1308 1.419 . S
C1310 C1311 1.362 . S
C1311 H1301 0.930 . S
C1311 C1304 1.409 . S
C1311 C1310 1.362 . S
H1312 C1318 0.930 . S
H1313 C1321 0.930 . S
H1314 C1322 0.930 . S
H1315 C1323 0.930 . S
H1316 C1326 0.930 . S
H1317 C1327 0.930 . S
C1318 H1312 0.930 . S
C1318 C1319 1.355 . S
C1318 C1320 1.415 . S
C1319 C1318 1.355 . S
C1319 C1321 1.419 . S
C1320 C1318 1.415 . S
C1320 C1325 1.425 . S
C1320 C1327 1.409 . S
C1321 H1313 0.930 . S
C1321 C1319 1.419 . S
C1321 C1322 1.362 . S
C1322 H1314 0.930 . S
C1322 C1321 1.362 . S
C1322 C1325 1.409 . S
C1323 H1315 0.930 . S
C1323 C1324 1.355 . S
C1323 C1325 1.415 . S
C1324 C1323 1.355 . S
C1324 C1326 1.419 . S
C1325 C1320 1.425 . S
C1325 C1322 1.409 . S
C1325 C1323 1.415 . S
C1326 H1316 0.930 . S
C1326 C1324 1.419 . S
C1326 C1327 1.362 . S
C1327 H1317 0.930 . S
C1327 C1320 1.409 . S
C1327 C1326 1.362 . S
H1328 C1334 0.930 . S
H1329 C1337 0.930 . S
H1330 C1338 0.930 . S
H1331 C1339 0.930 . S
H1332 C1342 0.930 . S
H1333 C1343 0.930 . S
C1334 H1328 0.930 . S
C1334 C1335 1.355 . S
C1334 C1336 1.415 . S
C1335 C1334 1.355 . S
C1335 C1337 1.419 . S
C1336 C1334 1.415 . S
C1336 C1341 1.425 . S
C1336 C1343 1.409 . S
C1337 H1329 0.930 . S
C1337 C1335 1.419 . S
C1337 C1338 1.362 . S
C1338 H1330 0.930 . S
C1338 C1337 1.362 . S
C1338 C1341 1.409 . S
C1339 H1331 0.930 . S
C1339 C1340 1.355 . S
C1339 C1341 1.415 . S
C1340 C1339 1.355 . S
C1340 C1342 1.419 . S
C1341 C1336 1.425 . S
C1341 C1338 1.409 . S
C1341 C1339 1.415 . S
C1342 H1332 0.930 . S
C1342 C1340 1.419 . S
C1342 C1343 1.362 . S
C1343 H1333 0.930 . S
C1343 C1336 1.409 . S
C1343 C1342 1.362 . S
H1344 C1350 0.930 . S
H1345 C1353 0.930 . S
H1346 C1354 0.930 . S
H1347 C1355 0.930 . S
H1348 C1358 0.930 . S
H1349 C1359 0.930 . S
C1350 H1344 0.930 . S
C1350 C1351 1.355 . S
C1350 C1352 1.415 . S
C1351 C1350 1.355 . S
C1351 C1353 1.419 . S
C1352 C1350 1.415 . S
C1352 C1357 1.425 . S
C1352 C1359 1.409 . S
C1353 H1345 0.930 . S
C1353 C1351 1.419 . S
C1353 C1354 1.362 . S
C1354 H1346 0.930 . S
C1354 C1353 1.362 . S
C1354 C1357 1.409 . S
C1355 H1347 0.930 . S
C1355 C1356 1.355 . S
C1355 C1357 1.415 . S
C1356 C1355 1.355 . S
C1356 C1358 1.419 . S
C1357 C1352 1.425 . S
C1357 C1354 1.409 . S
C1357 C1355 1.415 . S
C1358 H1348 0.930 . S
C1358 C1356 1.419 . S
C1358 C1359 1.362 . S
C1359 H1349 0.930 . S
C1359 C1352 1.409 . S
C1359 C1358 1.362 . S
H1360 C1366 0.930 . S
H1361 C1369 0.930 . S
H1362 C1370 0.930 . S
H1363 C1371 0.930 . S
H1364 C1374 0.930 . S
H1365 C1375 0.930 . S
C1366 H1360 0.930 . S
C1366 C1367 1.355 . S
C1366 C1368 1.415 . S
C1367 C1366 1.355 . S
C1367 C1369 1.419 . S
C1368 C1366 1.415 . S
C1368 C1373 1.425 . S
C1368 C1375 1.409 . S
C1369 H1361 0.930 . S
C1369 C1367 1.419 . S
C1369 C1370 1.362 . S
C1370 H1362 0.930 . S
C1370 C1369 1.362 . S
C1370 C1373 1.409 . S
C1371 H1363 0.930 . S
C1371 C1372 1.355 . S
C1371 C1373 1.415 . S
C1372 C1371 1.355 . S
C1372 C1374 1.419 . S
C1373 C1368 1.425 . S
C1373 C1370 1.409 . S
C1373 C1371 1.415 . S
C1374 H1364 0.930 . S
C1374 C1372 1.419 . S
C1374 C1375 1.362 . S
C1375 H1365 0.930 . S
C1375 C1368 1.409 . S
C1375 C1374 1.362 . S
H1376 C1382 0.930 . S
H1377 C1385 0.930 . S
H1378 C1386 0.930 . S
H1379 C1387 0.930 . S
H1380 C1390 0.930 . S
H1381 C1391 0.930 . S
C1382 H1376 0.930 . S
C1382 C1383 1.355 . S
C1382 C1384 1.415 . S
C1383 C1382 1.355 . S
C1383 C1385 1.419 . S
C1384 C1382 1.415 . S
C1384 C1389 1.425 1_655 S
C1384 C1391 1.409 1_655 S
C1385 H1377 0.930 . S
C1385 C1383 1.419 . S
C1385 C1386 1.362 . S
C1386 H1378 0.930 . S
C1386 C1385 1.362 . S
C1386 C1389 1.409 1_655 S
C1387 H1379 0.930 . S
C1387 C1388 1.355 . S
C1387 C1389 1.415 . S
C1388 C1387 1.355 . S
C1388 C1390 1.419 . S
C1389 C1384 1.425 1_455 S
C1389 C1386 1.409 1_455 S
C1389 C1387 1.415 . S
C1390 H1380 0.930 . S
C1390 C1388 1.419 . S
C1390 C1391 1.362 . S
C1391 H1381 0.930 . S
C1391 C1384 1.409 1_455 S
C1391 C1390 1.362 . S
H1392 C1398 0.930 . S
H1393 C1401 0.930 . S
H1394 C1402 0.930 . S
H1395 C1403 0.930 . S
H1396 C1406 0.930 . S
H1397 C1407 0.930 . S
C1398 H1392 0.930 . S
C1398 C1399 1.355 . S
C1398 C1400 1.415 . S
C1399 C1398 1.355 . S
C1399 C1401 1.419 . S
C1400 C1398 1.415 . S
C1400 C1405 1.425 . S
C1400 C1407 1.409 . S
C1401 H1393 0.930 . S
C1401 C1399 1.419 . S
C1401 C1402 1.362 . S
C1402 H1394 0.930 . S
C1402 C1401 1.362 . S
C1402 C1405 1.409 . S
C1403 H1395 0.930 . S
C1403 C1404 1.355 . S
C1403 C1405 1.415 . S
C1404 C1403 1.355 . S
C1404 C1406 1.419 . S
C1405 C1400 1.425 . S
C1405 C1402 1.409 . S
C1405 C1403 1.415 . S
C1406 H1396 0.930 . S
C1406 C1404 1.419 . S
C1406 C1407 1.362 . S
C1407 H1397 0.930 . S
C1407 C1400 1.409 . S
C1407 C1406 1.362 . S
H1408 C1414 0.930 . S
H1409 C1417 0.930 . S
H1410 C1418 0.930 . S
H1411 C1419 0.930 . S
H1412 C1422 0.930 . S
H1413 C1423 0.930 . S
C1414 H1408 0.930 . S
C1414 C1415 1.355 . S
C1414 C1416 1.415 . S
C1415 C1414 1.355 . S
C1415 C1417 1.419 . S
C1416 C1414 1.415 . S
C1416 C1421 1.425 . S
C1416 C1423 1.409 . S
C1417 H1409 0.930 . S
C1417 C1415 1.419 . S
C1417 C1418 1.362 . S
C1418 H1410 0.930 . S
C1418 C1417 1.362 . S
C1418 C1421 1.409 . S
C1419 H1411 0.930 . S
C1419 C1420 1.355 . S
C1419 C1421 1.415 . S
C1420 C1419 1.355 . S
C1420 C1422 1.419 . S
C1421 C1416 1.425 . S
C1421 C1418 1.409 . S
C1421 C1419 1.415 . S
C1422 H1412 0.930 . S
C1422 C1420 1.419 . S
C1422 C1423 1.362 . S
C1423 H1413 0.930 . S
C1423 C1416 1.409 . S
C1423 C1422 1.362 . S
H1424 C1430 0.930 . S
H1425 C1433 0.930 . S
H1426 C1434 0.930 . S
H1427 C1435 0.930 . S
H1428 C1438 0.930 . S
H1429 C1439 0.930 . S
C1430 H1424 0.930 . S
C1430 C1431 1.355 . S
C1430 C1432 1.415 . S
C1431 C1430 1.355 . S
C1431 C1433 1.419 . S
C1432 C1430 1.415 . S
C1432 C1437 1.425 1_655 S
C1432 C1439 1.409 1_655 S
C1433 H1425 0.930 . S
C1433 C1431 1.419 . S
C1433 C1434 1.362 . S
C1434 H1426 0.930 . S
C1434 C1433 1.362 . S
C1434 C1437 1.409 1_655 S
C1435 H1427 0.930 . S
C1435 C1436 1.355 . S
C1435 C1437 1.415 . S
C1436 C1435 1.355 . S
C1436 C1438 1.419 . S
C1437 C1432 1.425 1_455 S
C1437 C1434 1.409 1_455 S
C1437 C1435 1.415 . S
C1438 H1428 0.930 . S
C1438 C1436 1.419 . S
C1438 C1439 1.362 . S
C1439 H1429 0.930 . S
C1439 C1432 1.409 1_455 S
C1439 C1438 1.362 . S
C423 C303 1.799 . S
C428 C5 1.818 . S
C439 C263 1.757 . S
C444 C23 1.775 . S
C455 C277 1.808 . S
C460 C29 1.776 . S
C471 C289 1.818 . S
C476 C49 1.793 . S
C487 C55 1.817 . S
C492 C231 1.803 . S
C503 C239 1.774 . S
C508 C69 1.753 . S
C519 C83 1.759 . S
C524 C251 1.765 . S
C535 C95 1.756 . S
C540 C211 1.765 . S
C551 C407 1.743 . S
C556 C114 1.776 . S
C567 C127 1.764 . S
C572 C374 1.800 . S
C583 C140 1.799 . S
C588 C381 1.797 . S
C599 C153 1.779 . S
C604 C394 1.804 . S
C615 C160 1.752 . S
C620 C335 1.745 . S
C631 C173 1.795 . S
C636 C342 1.756 . S
C647 C192 1.766 . S
C652 C361 1.801 . S
C663 C199 1.745 . S
C668 C322 1.782 . S
C679 C4 1.231 . S
C684 C161 1.267 . S
C695 C382 1.240 . S
C700 C16 1.258 . S
C711 C36 1.262 . S
C716 C185 1.244 . S
C727 C408 1.273 . S
C732 C42 1.225 . S
C743 C107 1.226 . S
C748 C62 1.276 . S
C759 C70 1.249 . S
C764 C328 1.250 . S
C775 C82 1.274 . S
C780 C133 1.230 . S
C791 C96 1.237 . S
C796 C354 1.261 . S
C807 C278 1.265 . S
C812 C120 1.233 . S
C823 C304 1.267 . S
C828 C146 1.231 . S
C839 C174 1.260 . S
C844 C224 1.238 . S
C855 C252 1.238 . S
C860 C200 1.260 . S
C871 C367 1.240 . S
C876 C218 1.258 . S
C887 C238 1.229 . S
C892 C395 1.274 . S
C903 C315 1.241 . S
C908 C270 1.257 . S
C919 C343 1.250 . S
C924 C296 1.257 . S
C935 C56 1.196 . S
C940 C10 1.208 . S
C951 C68 1.237 . S
C956 C18 1.234 . S
C967 C30 1.231 . S
C972 C88 1.189 . S
C983 C44 1.191 . S
C988 C94 1.223 . S
C999 C159 1.214 . S
C1004 C109 1.211 . S
C1015 C172 1.247 . S
C1020 C122 1.228 . S
C1031 C187 1.203 . S
C1036 C135 1.231 . S
C1047 C148 1.222 . S
C1052 C198 1.195 . S
C1063 C212 1.198 . S
C1068 C264 1.242 . S
C1079 C226 1.244 . S
C1084 C276 1.221 . S
C1095 C244 1.190 . S
C1100 C290 1.221 . S
C1111 C250 1.243 . S
C1116 C302 1.224 . S
C1127 C369 1.204 . S
C1132 C317 1.243 . S
C1143 C380 1.196 . S
C1148 C330 1.237 . S
C1159 C393 1.212 . S
C1164 C341 1.253 . S
C1175 C406 1.207 . S
C1180 C356 1.202 . S
C1191 C400 1.825 . S
C1196 C3 1.788 . S
C1207 C17 1.812 . S
C1212 C205 1.803 . S
C1223 C368 1.823 . S
C1228 C31 1.791 . S
C1239 C43 1.800 . S
C1244 C179 1.815 . S
C1255 C348 1.800 . S
C1260 C57 1.813 . S
C1271 C75 1.818 . S
C1276 C147 1.796 . S
C1287 C81 1.821 . S
C1292 C316 1.794 . S
C1303 C121 1.815 . S
C1308 C101 1.799 . S
C1319 C108 1.793 . S
C1324 C291 1.823 . S
C1335 C265 1.821 . S
C1340 C134 1.793 . S
C1351 C166 1.825 . S
C1356 C237 1.787 . S
C1367 C186 1.796 . S
C1372 C213 1.820 . S
C1383 C413 1.803 . S
C1388 C225 1.812 . S
C1399 C257 1.792 . S
C1404 C387 1.823 . S
C1415 C283 1.791 . S
C1420 C355 1.823 . S
C1431 C329 1.791 . S
C1436 C309 1.823 . S
