# Generated by pormake.
# Topology uol, (4)-cn, num edge types: 1
# Building blocks:
#     Node 0, Type 0, BuildingBlock: ESEHIV_clean_sbu_0, # of connection points: 4
#     Node 1, Type 0, BuildingBlock: ESEHIV_clean_sbu_0, # of connection points: 4
#     Node 2, Type 0, BuildingBlock: ESEHIV_clean_sbu_0, # of connection points: 4
#     Node 3, Type 0, BuildingBlock: ESEHIV_clean_sbu_0, # of connection points: 4
#     Node 4, Type 0, BuildingBlock: ESEHIV_clean_sbu_0, # of connection points: 4
#     Node 5, Type 0, BuildingBlock: ESEHIV_clean_sbu_0, # of connection points: 4
#     Node 6, Type 0, BuildingBlock: ESEHIV_clean_sbu_0, # of connection points: 4
#     Node 7, Type 0, BuildingBlock: ESEHIV_clean_sbu_0, # of connection points: 4
#     Node 8, Type 0, BuildingBlock: ESEHIV_clean_sbu_0, # of connection points: 4
#     Node 9, Type 0, BuildingBlock: ESEHIV_clean_sbu_0, # of connection points: 4
#     Node 10, Type 0, BuildingBlock: ESEHIV_clean_sbu_0, # of connection points: 4
#     Node 11, Type 0, BuildingBlock: ESEHIV_clean_sbu_0, # of connection points: 4
#     Edge 12, Type (0, 0), BuildingBlock: TEMPAE_clean_linker_10, # of connection points: 2
#     Edge 13, Type (0, 0), BuildingBlock: TEMPAE_clean_linker_10, # of connection points: 2
#     Edge 14, Type (0, 0), BuildingBlock: TEMPAE_clean_linker_10, # of connection points: 2
#     Edge 15, Type (0, 0), BuildingBlock: TEMPAE_clean_linker_10, # of connection points: 2
#     Edge 16, Type (0, 0), BuildingBlock: TEMPAE_clean_linker_10, # of connection points: 2
#     Edge 17, Type (0, 0), BuildingBlock: TEMPAE_clean_linker_10, # of connection points: 2
#     Edge 18, Type (0, 0), BuildingBlock: TEMPAE_clean_linker_10, # of connection points: 2
#     Edge 19, Type (0, 0), BuildingBlock: TEMPAE_clean_linker_10, # of connection points: 2
#     Edge 20, Type (0, 0), BuildingBlock: TEMPAE_clean_linker_10, # of connection points: 2
#     Edge 21, Type (0, 0), BuildingBlock: TEMPAE_clean_linker_10, # of connection points: 2
#     Edge 22, Type (0, 0), BuildingBlock: TEMPAE_clean_linker_10, # of connection points: 2
#     Edge 23, Type (0, 0), BuildingBlock: TEMPAE_clean_linker_10, # of connection points: 2
#     Edge 24, Type (0, 0), BuildingBlock: TEMPAE_clean_linker_10, # of connection points: 2
#     Edge 25, Type (0, 0), BuildingBlock: TEMPAE_clean_linker_10, # of connection points: 2
#     Edge 26, Type (0, 0), BuildingBlock: TEMPAE_clean_linker_10, # of connection points: 2
#     Edge 27, Type (0, 0), BuildingBlock: TEMPAE_clean_linker_10, # of connection points: 2
#     Edge 28, Type (0, 0), BuildingBlock: TEMPAE_clean_linker_10, # of connection points: 2
#     Edge 29, Type (0, 0), BuildingBlock: TEMPAE_clean_linker_10, # of connection points: 2
#     Edge 30, Type (0, 0), BuildingBlock: TEMPAE_clean_linker_10, # of connection points: 2
#     Edge 31, Type (0, 0), BuildingBlock: TEMPAE_clean_linker_10, # of connection points: 2
#     Edge 32, Type (0, 0), BuildingBlock: TEMPAE_clean_linker_10, # of connection points: 2
#     Edge 33, Type (0, 0), BuildingBlock: TEMPAE_clean_linker_10, # of connection points: 2
#     Edge 34, Type (0, 0), BuildingBlock: TEMPAE_clean_linker_10, # of connection points: 2
#     Edge 35, Type (0, 0), BuildingBlock: TEMPAE_clean_linker_10, # of connection points: 2
# Relax obj value: 0.152
# Max RMSD: 0.225
# Mean RMSD: 0.225
data_MOF--net-uol--node1-ESEHIV_clean_sbu_0--edge1-TEMPAE_clean_linker_10
_symmetry_space_group_name_H-M    P1
_symmetry_Int_Tables_number       1
_symmetry_cell_setting            triclinic
loop_
_symmetry_equiv_pos_as_xyz
'x, y, z'
_cell_length_a     39.642751
_cell_length_b     39.611654
_cell_length_c     58.3168
_cell_angle_alpha  89.840674
_cell_angle_beta   90.207444
_cell_angle_gamma 119.88235
loop_
_atom_site_label
_atom_site_type_symbol
_atom_site_fract_x
_atom_site_fract_y
_atom_site_fract_z
_atom_type_partial_charge
Cu0 Cu 0.16211 0.35713 0.11065 0.0
N1 N 0.18967 0.35107 0.13481 0.0
N2 N 0.22622 0.33258 0.15442 0.0
C3 C 0.21459 0.33731 0.13346 0.0
C4 C 0.20817 0.34398 0.16949 0.0
C5 C 0.18578 0.35554 0.15735 0.0
O6 O 0.17351 0.33511 0.08382 0.0
C7 C 0.0935 0.34102 0.13427 0.0
O8 O 0.11593 0.37627 0.14234 0.0
H9 H 0.22258 0.32918 0.11753 0.0
H10 H 0.16708 0.36537 0.16452 0.0
N11 N 0.18041 0.41053 0.10677 0.0
N12 N 0.18517 0.46882 0.10132 0.0
C13 C 0.16109 0.4297 0.10174 0.0
C14 C 0.21776 0.4383 0.10954 0.0
C15 C 0.22082 0.4741 0.10623 0.0
C16 C 0.18689 0.35281 0.06487 0.0
O17 O 0.1899 0.38703 0.06163 0.0
H18 H 0.13006 0.41524 0.09863 0.0
H19 H 0.24107 0.43281 0.11408 0.0
O20 O 0.10714 0.32793 0.11913 0.0
H21 H 0.2105 0.34336 0.18797 0.0
H22 H 0.24718 0.50192 0.10811 0.0
Cu23 Cu 0.82365 0.15969 0.27533 0.0
N24 N 0.85573 0.19066 0.29907 0.0
N25 N 0.90938 0.22908 0.31942 0.0
C26 C 0.89486 0.20865 0.2998 0.0
C27 C 0.87787 0.22357 0.33138 0.0
C28 C 0.84495 0.20004 0.31877 0.0
O29 O 0.85809 0.17092 0.24905 0.0
C30 C 0.77639 0.09309 0.30195 0.0
O31 O 0.76543 0.11644 0.31097 0.0
H32 H 0.91219 0.20702 0.28602 0.0
H33 H 0.81523 0.19046 0.32363 0.0
N34 N 0.78674 0.17521 0.26962 0.0
N35 N 0.73182 0.17734 0.26395 0.0
C36 C 0.74777 0.15418 0.26665 0.0
C37 C 0.79564 0.21264 0.26882 0.0
C38 C 0.7621 0.2141 0.26537 0.0
C39 C 0.853 0.18147 0.22928 0.0
O40 O 0.82039 0.18123 0.22481 0.0
H41 H 0.73158 0.12269 0.26663 0.0
H42 H 0.82462 0.23722 0.27106 0.0
O43 O 0.80026 0.10546 0.28526 0.0
H44 H 0.8783 0.2351 0.34824 0.0
H45 H 0.76019 0.2404 0.26475 0.0
Cu46 Cu 0.68809 0.81522 0.43864 0.0
N47 N 0.68741 0.8456 0.46275 0.0
N48 N 0.70236 0.8977 0.48436 0.0
C49 C 0.71155 0.88405 0.4656 0.0
C50 C 0.67125 0.86651 0.49365 0.0
C51 C 0.66212 0.83441 0.48028 0.0
O52 O 0.71136 0.85135 0.41293 0.0
C53 C 0.70959 0.76972 0.46554 0.0
O54 O 0.67515 0.75769 0.47459 0.0
H55 H 0.73481 0.90176 0.45382 0.0
H56 H 0.63851 0.80504 0.483 0.0
N57 N 0.63619 0.77772 0.43235 0.0
N58 N 0.5794 0.72256 0.42687 0.0
C59 C 0.61838 0.73859 0.43005 0.0
C60 C 0.6077 0.7866 0.43066 0.0
C61 C 0.57291 0.75297 0.42733 0.0
C62 C 0.69569 0.84756 0.39327 0.0
O63 O 0.66336 0.81527 0.38842 0.0
H64 H 0.63364 0.72235 0.43093 0.0
H65 H 0.61197 0.81567 0.43228 0.0
O66 O 0.72018 0.79323 0.44863 0.0
H67 H 0.65631 0.86677 0.50909 0.0
H68 H 0.54482 0.75117 0.4262 0.0
Cu69 Cu 0.88956 0.68394 0.6091 0.0
N70 N 0.85292 0.67726 0.63127 0.0
N71 N 0.81283 0.68886 0.65236 0.0
C72 C 0.84278 0.70373 0.6374 0.0
C73 C 0.8039 0.65158 0.65577 0.0
C74 C 0.82868 0.64452 0.64272 0.0
O75 O 0.88031 0.71138 0.58409 0.0
C76 C 0.9476 0.7064 0.64282 0.0
O77 O 0.91892 0.67709 0.65366 0.0
H78 H 0.85614 0.73284 0.63031 0.0
H79 H 0.82853 0.61722 0.64129 0.0
N80 N 0.87865 0.63441 0.59926 0.0
N81 N 0.8775 0.57765 0.59464 0.0
C82 C 0.89657 0.61375 0.60404 0.0
C83 C 0.84738 0.61062 0.58656 0.0
C84 C 0.8467 0.57591 0.58356 0.0
C85 C 0.88065 0.70461 0.56277 0.0
O86 O 0.89283 0.68087 0.55608 0.0
H87 H 0.92222 0.62448 0.61476 0.0
H88 H 0.82622 0.61799 0.58015 0.0
O89 O 0.9417 0.7141 0.62244 0.0
H90 H 0.78098 0.63083 0.66679 0.0
H91 H 0.82502 0.55125 0.57394 0.0
Cu92 Cu 0.23795 0.88581 0.77504 0.0
N93 N 0.20402 0.85463 0.79797 0.0
N94 N 0.14915 0.8174 0.81732 0.0
C95 C 0.1651 0.83888 0.79823 0.0
C96 C 0.17936 0.81983 0.82946 0.0
C97 C 0.21311 0.84279 0.81749 0.0
O98 O 0.20591 0.87546 0.7474 0.0
C99 C 0.28312 0.95078 0.80291 0.0
O100 O 0.29316 0.92664 0.81196 0.0
H101 H 0.14896 0.84353 0.78478 0.0
H102 H 0.24222 0.85002 0.82255 0.0
N103 N 0.2758 0.87079 0.77145 0.0
N104 N 0.33143 0.8697 0.76682 0.0
C105 C 0.31403 0.89179 0.76615 0.0
C106 C 0.26912 0.83461 0.77578 0.0
C107 C 0.30302 0.83379 0.77293 0.0
C108 C 0.19345 0.84332 0.73674 0.0
O109 O 0.2054 0.81931 0.74334 0.0
H110 H 0.32876 0.92258 0.76224 0.0
H111 H 0.24148 0.81054 0.78121 0.0
O112 O 0.26055 0.93963 0.78553 0.0
H113 H 0.17726 0.80554 0.84566 0.0
H114 H 0.30666 0.80885 0.77604 0.0
Cu115 Cu 0.3609 0.21825 0.94512 0.0
N116 N 0.35519 0.18451 0.96914 0.0
N117 N 0.33669 0.1295 0.98868 0.0
C118 C 0.34058 0.14571 0.96777 0.0
C119 C 0.3495 0.15916 1.00375 0.0
C120 C 0.36108 0.19307 0.99164 0.0
O121 O 0.33977 0.18516 0.91798 0.0
C122 C 0.34432 0.26995 0.96914 0.0
O123 O 0.37955 0.2824 0.9772 0.0
H124 H 0.33135 0.12945 0.95189 0.0
H125 H 0.37199 0.22176 0.99884 0.0
N126 N 0.41413 0.25395 0.94168 0.0
N127 N 0.47191 0.30779 0.93633 0.0
C128 C 0.43275 0.29234 0.93654 0.0
C129 C 0.44232 0.24494 0.94481 0.0
C130 C 0.4778 0.27787 0.94155 0.0
C131 C 0.35872 0.18918 0.89959 0.0
O132 O 0.39339 0.21991 0.89714 0.0
H133 H 0.41791 0.30852 0.93314 0.0
H134 H 0.43729 0.21635 0.94947 0.0
O135 O 0.3312 0.24357 0.95377 0.0
H136 H 0.34989 0.15637 0.02221 0.0
H137 H 0.50585 0.27979 0.94359 0.0
Cu138 Cu 0.70355 0.92035 0.7596 0.0
N139 N 0.68705 0.88156 0.73719 0.0
N140 N 0.68872 0.83598 0.71534 0.0
C141 C 0.70086 0.85684 0.73492 0.0
C142 C 0.66601 0.84798 0.70492 0.0
C143 C 0.66517 0.87617 0.71839 0.0
O144 O 0.7213 0.90292 0.78594 0.0
C145 C 0.73625 0.98714 0.73211 0.0
O146 O 0.69935 0.97408 0.72742 0.0
H147 H 0.72143 0.85593 0.74673 0.0
H148 H 0.65127 0.89292 0.71413 0.0
N149 N 0.66327 0.92816 0.77011 0.0
N150 N 0.60742 0.92847 0.77494 0.0
C151 C 0.62832 0.91871 0.76088 0.0
C152 C 0.66437 0.94452 0.79048 0.0
C153 C 0.63007 0.94466 0.79354 0.0
C154 C 0.75276 0.90168 0.78644 0.0
O155 O 0.77668 0.91542 0.76893 0.0
H156 H 0.61794 0.90416 0.74459 0.0
H157 H 0.68846 0.95522 0.80242 0.0
O158 O 0.74511 0.96844 0.74643 0.0
H159 H 0.65199 0.83812 0.68841 0.0
H160 H 0.62235 0.95585 0.80833 0.0
Cu161 Cu 0.79996 0.67538 0.91922 0.0
N162 N 0.82558 0.66636 0.89549 0.0
N163 N 0.87336 0.67712 0.87124 0.0
C164 C 0.86093 0.69245 0.88754 0.0
C165 C 0.84459 0.63982 0.86886 0.0
C166 C 0.81503 0.63329 0.88384 0.0
O167 O 0.83976 0.70295 0.94253 0.0
C168 C 0.80082 0.7434 0.90473 0.0
O169 O 0.83572 0.75981 0.91394 0.0
H170 H 0.8778 0.7217 0.89426 0.0
H171 H 0.78815 0.6062 0.88641 0.0
N172 N 0.76221 0.62739 0.9313 0.0
N173 N 0.70824 0.57045 0.93837 0.0
C174 C 0.7243 0.60382 0.92589 0.0
C175 C 0.77032 0.60808 0.94737 0.0
C176 C 0.73734 0.57327 0.95181 0.0
C177 C 0.83344 0.70426 0.96381 0.0
O178 O 0.79742 0.68906 0.97106 0.0
H179 H 0.70903 0.61084 0.91301 0.0
H180 H 0.79871 0.61835 0.95498 0.0
O181 O 0.77897 0.70663 0.90642 0.0
H182 H 0.84501 0.61871 0.85729 0.0
H183 H 0.73542 0.5511 0.96349 0.0
Cu184 Cu 0.13076 0.78947 0.08703 0.0
N185 N 0.16292 0.80665 0.06136 0.0
N186 N 0.20272 0.85074 0.036 0.0
C187 C 0.19132 0.8437 0.05808 0.0
C188 C 0.18075 0.81681 0.0249 0.0
C189 C 0.15632 0.78953 0.04065 0.0
O190 O 0.15453 0.83157 0.10936 0.0
C191 C 0.05712 0.74908 0.06615 0.0
O192 O 0.06716 0.72228 0.06386 0.0
H193 H 0.20059 0.86606 0.07108 0.0
H194 H 0.13317 0.76035 0.03688 0.0
N195 N 0.12747 0.74426 0.09968 0.0
N196 N 0.13171 0.69062 0.10572 0.0
C197 C 0.13744 0.71905 0.09064 0.0
C198 C 0.11483 0.73104 0.12099 0.0
C199 C 0.11748 0.69818 0.12478 0.0
C200 C 0.13892 0.83496 0.12759 0.0
O201 O 0.10277 0.80887 0.13237 0.0
H202 H 0.1493 0.7219 0.07359 0.0
H203 H 0.10453 0.74446 0.13306 0.0
O204 O 0.07989 0.78025 0.07692 0.0
H205 H 0.1806 0.8128 1.00654 0.0
H206 H 0.10929 0.68098 0.14035 0.0
Cu207 Cu 0.35913 0.1262 0.25243 0.0
N208 N 0.37537 0.15871 0.22688 0.0
N209 N 0.37192 0.19893 0.20131 0.0
C210 C 0.36768 0.18782 0.22347 0.0
C211 C 0.38288 0.17603 0.19031 0.0
C212 C 0.38514 0.15129 0.20619 0.0
O213 O 0.34179 0.15078 0.2748 0.0
C214 C 0.32207 0.0499 0.23382 0.0
O215 O 0.35719 0.05441 0.23479 0.0
H216 H 0.35503 0.19765 0.23642 0.0
H217 H 0.38993 0.12725 0.20255 0.0
N218 N 0.39993 0.12112 0.26522 0.0
N219 N 0.45683 0.12339 0.27131 0.0
C220 C 0.43413 0.1285 0.2559 0.0
C221 C 0.40114 0.11082 0.28707 0.0
C222 C 0.43608 0.11227 0.2909 0.0
C223 C 0.32136 0.13462 0.29252 0.0
O224 O 0.30927 0.09769 0.29655 0.0
H225 H 0.44263 0.13843 0.23845 0.0
H226 H 0.37839 0.10332 0.29954 0.0
O227 O 0.31634 0.07652 0.24182 0.0
H228 H 0.38622 0.17534 0.17193 0.0
H229 H 0.44557 0.10572 0.30689 0.0
Cu230 Cu 0.25428 0.35185 0.42429 0.0
N231 N 0.23015 0.3691 0.4036 0.0
N232 N 0.18154 0.36353 0.38142 0.0
C233 C 0.19855 0.34492 0.39125 0.0
C234 C 0.20397 0.40129 0.38733 0.0
C235 C 0.2339 0.40462 0.40117 0.0
O236 O 0.21998 0.33222 0.4509 0.0
C237 C 0.29195 0.31282 0.40459 0.0
O238 O 0.3243 0.3428 0.41203 0.0
H239 H 0.18703 0.3138 0.39048 0.0
H240 H 0.25517 0.43049 0.41007 0.0
N241 N 0.30209 0.39259 0.43477 0.0
N242 N 0.3579 0.44882 0.43915 0.0
C243 C 0.32867 0.42605 0.42457 0.0
C244 C 0.31524 0.39431 0.45626 0.0
C245 C 0.34947 0.42884 0.45904 0.0
C246 C 0.18529 0.30373 0.44994 0.0
O247 O 0.17283 0.28375 0.43083 0.0
H248 H 0.32599 0.43411 0.40719 0.0
H249 H 0.30041 0.37214 0.46919 0.0
O250 O 0.25954 0.31085 0.40896 0.0
H251 H 0.19753 0.42422 0.38341 0.0
H252 H 0.36674 0.43869 0.47457 0.0
Cu253 Cu 0.9181 0.24901 0.5894 0.0
N254 N 0.88113 0.22134 0.56697 0.0
N255 N 0.8401 0.17042 0.54563 0.0
C256 C 0.86801 0.18372 0.56195 0.0
C257 C 0.83573 0.20118 0.54009 0.0
C258 C 0.86107 0.23259 0.55335 0.0
O259 O 0.90888 0.21012 0.61284 0.0
C260 C 0.98327 0.24795 0.57176 0.0
O261 O 0.96481 0.21239 0.58007 0.0
H262 H 0.87896 0.16656 0.57017 0.0
H263 H 0.86427 0.26135 0.55333 0.0
N264 N 0.90855 0.28724 0.60164 0.0
N265 N 0.90641 0.34184 0.60838 0.0
C266 C 0.92173 0.32461 0.59526 0.0
C267 C 0.88375 0.28065 0.61898 0.0
C268 C 0.88253 0.31409 0.62326 0.0
C269 C 0.91616 0.21609 0.63418 0.0
O270 O 0.93522 0.25199 0.64189 0.0
H271 H 0.94184 0.3387 0.58127 0.0
H272 H 0.86705 0.25302 0.62766 0.0
O273 O 0.96902 0.27013 0.57504 0.0
H274 H 0.8151 0.20086 0.52776 0.0
H275 H 0.86434 0.31731 0.63586 0.0
C276 C 0.13349 0.64003 0.08168 0.0
C277 C 0.13966 0.65906 0.10282 0.0
C278 C 0.1392 0.60784 0.07923 0.0
C279 C 0.15199 0.59482 0.09829 0.0
C280 C 0.15891 0.61445 0.11954 0.0
C281 C 0.15247 0.64608 0.12155 0.0
C282 C 0.13108 0.58744 0.05638 0.0
C283 C 0.17322 0.6021 0.14021 0.0
C284 C 0.13789 0.49258 0.10312 0.0
C285 C 0.17533 0.49918 0.0981 0.0
C286 C 0.12931 0.52304 0.10216 0.0
C287 C 0.15889 0.56114 0.0962 0.0
C288 C 0.19622 0.56762 0.0902 0.0
C289 C 0.20387 0.53662 0.09108 0.0
C290 C 0.08901 0.51478 0.10848 0.0
C291 C 0.22866 0.60772 0.08379 0.0
H292 H 0.12324 0.64974 0.06724 0.0
H293 H 0.15782 0.66103 0.13783 0.0
H294 H 0.1576 0.58779 0.05004 0.0
H295 H 0.10824 0.55647 0.05838 0.0
H296 H 0.12133 0.60112 0.04325 0.0
H297 H 0.17753 0.62066 0.15542 0.0
H298 H 0.15208 0.57146 0.14471 0.0
H299 H 0.20123 0.60351 0.13618 0.0
H300 H 0.11562 0.46396 0.10865 0.0
H301 H 0.2326 0.54197 0.08662 0.0
H302 H 0.07769 0.52688 0.0953 0.0
H303 H 0.0902 0.52924 0.12497 0.0
H304 H 0.06823 0.4831 0.11031 0.0
H305 H 0.21904 0.62028 0.06995 0.0
H306 H 0.25518 0.60742 0.078 0.0
H307 H 0.23643 0.62734 0.09883 0.0
C308 C 0.66152 0.12982 0.26933 0.0
C309 C 0.69115 0.16619 0.26159 0.0
C310 C 0.62224 0.12043 0.269 0.0
C311 C 0.61229 0.14818 0.26099 0.0
C312 C 0.64183 0.18426 0.25233 0.0
C313 C 0.68066 0.19262 0.25254 0.0
C314 C 0.59156 0.08137 0.27807 0.0
C315 C 0.63267 0.21483 0.24375 0.0
C316 C 0.50693 0.11992 0.24781 0.0
C317 C 0.49581 0.13004 0.2683 0.0
C318 C 0.54448 0.12485 0.24527 0.0
C319 C 0.57174 0.14106 0.26349 0.0
C320 C 0.56067 0.15179 0.28407 0.0
C321 C 0.52286 0.14586 0.28627 0.0
C322 C 0.5549 0.11245 0.22321 0.0
C323 C 0.58894 0.16995 0.30375 0.0
H324 H 0.66902 0.10912 0.2764 0.0
H325 H 0.70295 0.22036 0.2459 0.0
H326 H 0.5798 0.08544 0.29441 0.0
H327 H 0.56693 0.0673 0.2658 0.0
H328 H 0.60324 0.06145 0.28125 0.0
H329 H 0.65855 0.24049 0.23633 0.0
H330 H 0.60948 0.20237 0.23051 0.0
H331 H 0.6216 0.22488 0.25811 0.0
H332 H 0.48595 0.10732 0.234 0.0
H333 H 0.51452 0.15418 0.30202 0.0
H334 H 0.56417 0.09077 0.22689 0.0
H335 H 0.57981 0.13782 0.21493 0.0
H336 H 0.53018 0.0995 0.21091 0.0
H337 H 0.59925 0.14998 0.30964 0.0
H338 H 0.57582 0.17678 0.31855 0.0
H339 H 0.61484 0.19725 0.29796 0.0
C340 C 0.55664 0.65227 0.43321 0.0
C341 C 0.54988 0.68179 0.42504 0.0
C342 C 0.52672 0.61302 0.43346 0.0
C343 C 0.48894 0.603 0.42568 0.0
C344 C 0.48236 0.63236 0.41656 0.0
C345 C 0.51289 0.67111 0.4161 0.0
C346 C 0.53517 0.58248 0.44291 0.0
C347 C 0.44253 0.62317 0.40828 0.0
C348 C 0.41063 0.4974 0.41452 0.0
C349 C 0.39025 0.48747 0.4353 0.0
C350 C 0.44342 0.53459 0.41124 0.0
C351 C 0.45545 0.56271 0.42899 0.0
C352 C 0.43449 0.55284 0.44986 0.0
C353 C 0.40247 0.51534 0.45281 0.0
C354 C 0.46538 0.5437 0.38891 0.0
C355 C 0.4456 0.58207 0.46905 0.0
H356 H 0.5849 0.65984 0.44015 0.0
H357 H 0.50736 0.6932 0.40908 0.0
H358 H 0.5201 0.57167 0.45956 0.0
H359 H 0.52389 0.5572 0.43111 0.0
H360 H 0.5668 0.59401 0.44562 0.0
H361 H 0.44268 0.64886 0.40046 0.0
H362 H 0.43126 0.59938 0.39545 0.0
H363 H 0.42192 0.6129 0.4229 0.0
H364 H 0.40145 0.47574 0.40107 0.0
H365 H 0.38647 0.50788 0.46879 0.0
H366 H 0.49632 0.55279 0.39229 0.0
H367 H 0.46489 0.56839 0.38022 0.0
H368 H 0.45299 0.51837 0.37708 0.0
H369 H 0.47593 0.5922 0.47464 0.0
H370 H 0.42616 0.56985 0.48415 0.0
H371 H 0.44438 0.60797 0.46287 0.0
C372 C 0.92459 0.55411 0.60005 0.0
C373 C 0.88629 0.54639 0.59669 0.0
C374 C 0.93311 0.52358 0.60157 0.0
C375 C 0.90261 0.48441 0.59978 0.0
C376 C 0.86397 0.47654 0.59645 0.0
C377 C 0.85634 0.50747 0.59501 0.0
C378 C 0.97468 0.53318 0.60513 0.0
C379 C 0.83044 0.43528 0.59466 0.0
C380 C 0.91703 0.39871 0.58501 0.0
C381 C 0.91141 0.38047 0.60642 0.0
C382 C 0.91647 0.43386 0.58271 0.0
C383 C 0.91026 0.45122 0.60229 0.0
C384 C 0.90694 0.4341 0.62411 0.0
C385 C 0.90756 0.39905 0.62589 0.0
C386 C 0.92028 0.4512 0.55914 0.0
C387 C 0.90054 0.4516 0.64549 0.0
H388 H 0.94797 0.58401 0.60118 0.0
H389 H 0.82657 0.50099 0.5929 0.0
H390 H 0.97723 0.51999 0.62138 0.0
H391 H 0.98362 0.52053 0.59107 0.0
H392 H 0.99516 0.56507 0.60577 0.0
H393 H 0.80223 0.43411 0.59144 0.0
H394 H 0.83573 0.41977 0.58056 0.0
H395 H 0.82801 0.41927 0.61077 0.0
H396 H 0.91991 0.38454 0.56989 0.0
H397 H 0.90404 0.38559 0.64256 0.0
H398 H 0.94145 0.48289 0.5594 0.0
H399 H 0.89179 0.44755 0.55371 0.0
H400 H 0.92972 0.43715 0.54617 0.0
H401 H 0.92218 0.4831 0.64654 0.0
H402 H 0.90257 0.4371 0.66135 0.0
H403 H 0.87127 0.44879 0.64481 0.0
C404 C 0.54309 0.91148 0.79035 0.0
C405 C 0.56844 0.92171 0.77164 0.0
C406 C 0.50517 0.90513 0.78772 0.0
C407 C 0.49229 0.90973 0.76586 0.0
C408 C 0.51792 0.92057 0.74689 0.0
C409 C 0.55559 0.92602 0.74996 0.0
C410 C 0.47863 0.89277 0.80832 0.0
C411 C 0.50557 0.92645 0.72341 0.0
C412 C 0.38266 0.85355 0.7579 0.0
C413 C 0.37204 0.88142 0.76366 0.0
C414 C 0.42173 0.86278 0.75767 0.0
C415 C 0.45131 0.90114 0.76289 0.0
C416 C 0.44109 0.9301 0.7673 0.0
C417 C 0.40158 0.91987 0.76776 0.0
C418 C 0.43114 0.83089 0.75299 0.0
C419 C 0.47181 0.97151 0.77255 0.0
H420 H 0.55278 0.90769 0.80706 0.0
H421 H 0.5753 0.93436 0.73553 0.0
H422 H 0.46828 0.91375 0.81132 0.0
H423 H 0.45259 0.86391 0.80508 0.0
H424 H 0.49321 0.89081 0.82416 0.0
H425 H 0.52946 0.93655 0.71068 0.0
H426 H 0.48059 0.89879 0.71722 0.0
H427 H 0.49567 0.94814 0.72431 0.0
H428 H 0.36027 0.82404 0.75404 0.0
H429 H 0.39387 0.94167 0.77223 0.0
H430 H 0.44365 0.82537 0.76865 0.0
H431 H 0.4533 0.83992 0.73927 0.0
H432 H 0.40506 0.80319 0.74778 0.0
H433 H 0.48489 0.9727 0.78959 0.0
H434 H 0.45971 0.99149 0.77273 0.0
H435 H 0.49555 0.98218 0.75972 0.0
C436 C 0.53893 0.35673 0.92531 0.0
C437 C 0.50184 0.34793 0.93288 0.0
C438 C 0.56985 0.39524 0.92443 0.0
C439 C 0.56366 0.4261 0.93102 0.0
C440 C 0.52578 0.41773 0.93737 0.0
C441 C 0.49534 0.37874 0.9383 0.0
C442 C 0.60968 0.40267 0.91754 0.0
C443 C 0.51778 0.44979 0.94421 0.0
C444 C 0.65369 0.51234 0.95612 0.0
C445 C 0.66937 0.53712 0.9371 0.0
C446 C 0.61846 0.47704 0.9546 0.0
C447 C 0.5978 0.46621 0.93358 0.0
C448 C 0.61208 0.49218 0.91469 0.0
C449 C 0.64779 0.5273 0.91663 0.0
C450 C 0.60446 0.4504 0.97523 0.0
C451 C 0.59059 0.48207 0.8921 0.0
H452 H 0.54409 0.33331 0.9205 0.0
H453 H 0.46689 0.37239 0.94419 0.0
H454 H 0.62183 0.42492 0.90376 0.0
H455 H 0.62976 0.41425 0.93243 0.0
H456 H 0.60913 0.37586 0.91142 0.0
H457 H 0.48611 0.4393 0.94541 0.0
H458 H 0.53126 0.46159 0.96116 0.0
H459 H 0.53095 0.47414 0.93171 0.0
H460 H 0.66951 0.52012 0.9722 0.0
H461 H 0.65956 0.54617 0.90184 0.0
H462 H 0.60528 0.42338 0.97142 0.0
H463 H 0.57386 0.44178 0.97918 0.0
H464 H 0.62253 0.46416 0.99071 0.0
H465 H 0.59325 0.45842 0.88369 0.0
H466 H 0.60225 0.50744 0.88028 0.0
H467 H 0.55915 0.4712 0.89486 0.0
C468 C 0.33106 0.20793 0.17287 0.0
C469 C 0.35735 0.22234 0.19124 0.0
C470 C 0.31172 0.22749 0.16526 0.0
C471 C 0.31964 0.26278 0.17597 0.0
C472 C 0.34795 0.27858 0.19363 0.0
C473 C 0.366 0.2578 0.2013 0.0
C474 C 0.28108 0.20913 0.14679 0.0
C475 C 0.35799 0.3166 0.20508 0.0
C476 C 0.28303 0.32464 0.14673 0.0
C477 C 0.24986 0.31539 0.15972 0.0
C478 C 0.30647 0.30822 0.15197 0.0
C479 C 0.29576 0.28114 0.17023 0.0
C480 C 0.26189 0.27132 0.18315 0.0
C481 C 0.23966 0.28895 0.17791 0.0
C482 C 0.34285 0.32015 0.13818 0.0
C483 C 0.24886 0.24188 0.20239 0.0
H484 H 0.32395 0.18015 0.16536 0.0
H485 H 0.38638 0.2688 0.2155 0.0
H486 H 0.25203 0.20004 0.1542 0.0
H487 H 0.28619 0.23047 0.133 0.0
H488 H 0.28043 0.18321 0.13906 0.0
H489 H 0.38394 0.32727 0.21638 0.0
H490 H 0.36361 0.33921 0.19201 0.0
H491 H 0.33306 0.31274 0.21561 0.0
H492 H 0.29098 0.34531 0.13276 0.0
H493 H 0.2137 0.28142 0.18773 0.0
H494 H 0.34123 0.29433 0.12974 0.0
H495 H 0.36856 0.33251 0.14973 0.0
H496 H 0.34747 0.34208 0.12481 0.0
H497 H 0.24497 0.21385 0.19588 0.0
H498 H 0.2211 0.23648 0.21021 0.0
H499 H 0.27147 0.25219 0.21598 0.0
C500 C 0.97801 0.24442 0.31642 0.0
C501 C 0.94976 0.25125 0.32643 0.0
C502 C 1.01695 0.26456 0.3238 0.0
C503 C 0.02799 0.29193 0.34184 0.0
C504 C 0.99996 0.29966 0.35168 0.0
C505 C 0.96135 0.27947 0.34378 0.0
C506 C 0.04604 0.25568 0.31275 0.0
C507 C 1.01049 0.32848 0.37105 0.0
C508 C 0.11406 0.30926 0.3789 0.0
C509 C 0.14351 0.3455 0.37096 0.0
C510 C 0.07649 0.29158 0.36952 0.0
C511 C 0.06811 0.31038 0.35155 0.0
C512 C 0.09777 0.34686 0.34329 0.0
C513 C 0.13509 0.36416 0.35325 0.0
C514 C 0.04562 0.253 0.37911 0.0
C515 C 0.09004 0.36756 0.32398 0.0
H516 H 0.96965 0.22258 0.30319 0.0
H517 H 0.94022 0.28575 0.35136 0.0
H518 H 0.07218 0.28303 0.30729 0.0
H519 H 0.05575 0.24129 0.32539 0.0
H520 H 0.03371 0.23632 0.29761 0.0
H521 H 0.98575 0.3325 0.37615 0.0
H522 H 1.01992 0.31828 0.38621 0.0
H523 H 0.03527 0.35715 0.366 0.0
H524 H 0.12014 0.2951 0.39293 0.0
H525 H 0.15785 0.39209 0.34706 0.0
H526 H 0.0338 0.23081 0.36532 0.0
H527 H 1.02106 0.25587 0.38591 0.0
H528 H 0.05692 0.24222 0.3931 0.0
H529 H 0.07931 0.34845 0.30867 0.0
H530 H 0.11644 0.39525 0.31915 0.0
H531 H 0.06694 0.37408 0.32904 0.0
C532 C 0.81517 0.09974 0.54963 0.0
C533 C 0.81907 0.13132 0.53656 0.0
C534 C 0.79573 0.06169 0.54092 0.0
C535 C 0.77943 0.05484 0.51863 0.0
C536 C 0.78274 0.08641 0.50543 0.0
C537 C 0.80257 0.12427 0.51453 0.0
C538 C 0.79279 0.02882 0.55557 0.0
C539 C 0.76562 0.08021 0.48161 0.0
C540 C 0.7613 0.96223 0.48857 0.0
C541 C 0.7215 0.93729 0.49258 0.0
C542 C 0.78042 1.00067 0.49674 0.0
C543 C 0.75921 1.01461 0.50914 0.0
C544 C 0.71894 0.98976 0.51302 0.0
C545 C 0.70061 0.95139 0.50476 0.0
C546 C 0.82348 0.02616 0.49242 0.0
C547 C 0.69526 1.00365 0.52602 0.0
H548 H 0.82704 0.10463 0.56682 0.0
H549 H 0.80572 0.14844 0.50422 0.0
H550 H 0.76179 1.00676 0.55835 0.0
H551 H 0.80653 1.01406 0.54663 0.0
H552 H 0.80707 0.03905 0.57255 0.0
H553 H 0.76985 0.10765 0.47378 0.0
H554 H 0.77928 0.06788 0.47035 0.0
H555 H 0.734 0.05887 0.48214 0.0
H556 H 0.77771 0.95142 0.47943 0.0
H557 H 0.66976 0.9325 0.50762 0.0
H558 H 0.83936 0.03498 0.50899 0.0
H559 H 0.82914 0.05318 0.4834 0.0
H560 H 0.83555 1.01123 0.48199 0.0
H561 H 0.70689 1.01217 0.54368 0.0
H562 H 0.66404 0.98101 0.52709 0.0
H563 H 0.69757 0.02986 0.51759 0.0
C564 C 0.75351 0.68716 0.66696 0.0
C565 C 0.79333 0.70824 0.66174 0.0
C566 C 0.73405 0.70585 0.67567 0.0
C567 C 0.75495 0.74656 0.67941 0.0
C568 C 0.7952 0.76795 0.67433 0.0
C569 C 0.81383 0.74856 0.66549 0.0
C570 C 0.69105 0.68209 0.68066 0.0
C571 C 0.81865 0.81134 0.67832 0.0
C572 C 0.70278 0.80511 0.68261 0.0
C573 C 0.70201 0.81063 0.70634 0.0
C574 C 0.7189 0.78338 0.67364 0.0
C575 C 0.73491 0.76695 0.68872 0.0
C576 C 0.73321 0.77138 0.71269 0.0
C577 C 0.71658 0.79289 0.72118 0.0
C578 C 0.71987 0.77904 0.64797 0.0
C579 C 0.74995 0.75432 0.72936 0.0
H580 H 0.73737 0.65611 0.66382 0.0
H581 H 0.84467 0.76491 0.66176 0.0
H582 H 0.68555 0.68518 0.69896 0.0
H583 H 0.675 0.69307 0.67029 0.0
H584 H 0.67903 0.65068 0.67685 0.0
H585 H 0.84973 0.82366 0.67361 0.0
H586 H 0.80633 0.82633 0.6681 0.0
H587 H 0.81701 0.81787 0.69664 0.0
H588 H 0.69198 0.81884 0.67092 0.0
H589 H 0.71543 0.79618 0.73954 0.0
H590 H 0.70703 0.74787 0.64335 0.0
H591 H 0.75047 0.79422 0.64197 0.0
H592 H 0.70383 0.79123 0.63866 0.0
H593 H 0.73668 0.72253 0.7265 0.0
H594 H 0.74519 0.75931 0.74751 0.0
H595 H 0.7817 0.76752 0.72645 0.0
C596 C 0.92918 0.67491 0.85419 0.0
C597 C 0.91091 0.69612 0.86029 0.0
C598 C 0.96725 0.69374 0.84549 0.0
C599 C 0.98739 0.73471 0.84271 0.0
C600 C 0.96849 0.75605 0.84795 0.0
C601 C 0.93054 0.73651 0.85672 0.0
C602 C 0.98648 0.66999 0.84019 0.0
C603 C 0.98882 0.79972 0.84501 0.0
C604 C 0.09759 0.78902 0.84666 0.0
C605 C 0.10853 0.79645 0.82354 0.0
C606 C 0.0583 0.76871 0.85306 0.0
C607 C 0.02909 0.75559 0.83593 0.0
C608 C 0.03981 0.76293 0.81255 0.0
C609 C 0.0794 0.78322 0.80663 0.0
C610 C 0.04807 0.76154 0.87821 0.0
C611 C 1.00949 0.74941 0.79379 0.0
H612 H 0.91431 0.64377 0.85709 0.0
H613 H 0.91628 0.75292 0.86103 0.0
H614 H 0.99879 0.67652 0.82263 0.0
H615 H 1.01098 0.67791 0.85228 0.0
H616 H 0.96594 0.6382 0.8416 0.0
H617 H 0.96914 0.81161 0.84828 0.0
H618 H 1.0138 0.81374 0.85704 0.0
H619 H 1.00061 0.80792 0.82738 0.0
H620 H 0.11978 0.79961 0.85987 0.0
H621 H 0.08751 0.78831 0.78872 0.0
H622 H 0.02953 0.72986 0.88145 0.0
H623 H 0.03106 0.77564 0.88325 0.0
H624 H 0.07425 0.77292 0.88936 0.0
H625 H 0.99038 0.71735 0.79469 0.0
H626 H 1.02263 0.75726 0.77643 0.0
H627 H 0.99072 0.76254 0.79623 0.0
C628 C 0.21097 0.90063 1.00785 0.0
C629 C 0.22579 0.88871 0.02603 0.0
C630 C 0.23042 0.93944 1.00023 0.0
C631 C 0.26604 0.96663 1.01068 0.0
C632 C 0.28218 0.95408 0.02818 0.0
C633 C 0.26148 0.91537 0.03592 0.0
C634 C 0.21165 0.9518 0.98198 0.0
C635 C 0.32058 0.98184 0.03934 0.0
C636 C 0.32759 0.06429 0.9809 0.0
C637 C 0.31918 0.08874 0.99404 0.0
C638 C 0.311 0.02453 0.98627 0.0
C639 C 0.28456 1.00877 1.0048 0.0
C640 C 0.27554 0.03335 0.01785 0.0
C641 C 0.29338 0.07311 1.01249 0.0
C642 C 0.32212 0.99951 0.97235 0.0
C643 C 0.24675 1.0176 0.03736 0.0
H644 H 0.18303 0.88004 1.00049 0.0
H645 H 0.27277 0.90594 0.04998 0.0
H646 H 0.20324 0.97225 0.9895 0.0
H647 H 0.23251 0.96748 0.96795 0.0
H648 H 0.18528 0.92667 0.97455 0.0
H649 H 0.33137 0.9665 0.05055 0.0
H650 H 0.34284 0.99841 0.02609 0.0
H651 H 0.31727 1.00325 0.04991 0.0
H652 H 0.34778 0.07656 0.96674 0.0
H653 H 0.28653 0.09197 0.02243 0.0
H654 H 0.29592 0.9754 0.96416 0.0
H655 H 0.33468 0.98612 0.98377 0.0
H656 H 0.34362 1.01637 0.95877 0.0
H657 H 0.21845 0.99358 0.03113 0.0
H658 H 0.24185 0.0403 0.04522 0.0
H659 H 0.25736 1.00536 0.05086 0.0
C660 C 0.20687 0.30437 0.05303 0.0
C661 C 0.20377 0.33737 0.04789 0.0
C662 C 0.22699 0.29225 0.03846 0.0
C663 C 0.24437 0.3135 0.01815 0.0
C664 C 0.23978 0.34572 1.01232 0.0
C665 C 0.21963 0.3573 0.02726 0.0
C666 C 0.23121 0.25777 0.04538 0.0
C667 C 0.25763 0.36905 0.99079 0.0
C668 C 0.33415 0.31134 0.99749 0.0
C669 C 0.31907 0.28333 0.97998 0.0
C670 C 0.31029 0.32186 1.00966 0.0
C671 C 0.27021 0.30413 1.00421 0.0
C672 C 0.25495 0.27672 0.98608 0.0
C673 C 0.27954 0.2666 0.97419 0.0
C674 C 0.32786 0.35124 0.02883 0.0
C675 C 0.21245 0.25735 0.97965 0.0
H676 H 0.19475 0.2887 0.0689 0.0
H677 H 0.2173 0.38273 0.02304 0.0
H678 H 0.22256 0.23674 0.03102 0.0
H679 H 0.26214 0.26773 0.04941 0.0
H680 H 0.21335 0.24244 0.06063 0.0
H681 H 0.24814 0.3907 0.9875 0.0
H682 H 0.2898 0.38476 0.99236 0.0
H683 H 0.24982 0.34947 0.97574 0.0
H684 H 0.36463 0.32458 1.00211 0.0
H685 H 0.26755 0.24492 0.96073 0.0
H686 H 0.31407 0.33738 0.04536 0.0
H687 H 0.32218 0.37565 0.02591 0.0
H688 H 0.35978 0.36333 0.03043 0.0
H689 H 0.19445 0.23919 0.99414 0.0
H690 H 0.20558 0.23857 0.96425 0.0
H691 H 0.20388 0.27964 0.97627 0.0
C692 C 0.92234 0.20408 0.21848 0.0
C693 C 0.88566 0.19882 0.21257 0.0
C694 C 0.95465 0.22461 0.20404 0.0
C695 C 0.95029 0.24027 0.18309 0.0
C696 C 0.91301 0.23357 0.17653 0.0
C697 C 0.8812 0.21299 0.19133 0.0
C698 C 0.99383 0.231 0.2117 0.0
C699 C 0.90703 0.24958 0.15432 0.0
C700 C 0.04062 0.33079 0.16157 0.0
C701 C 0.05483 0.31554 0.14492 0.0
C702 C 1.00624 0.30674 0.17366 0.0
C703 C 0.98529 0.26628 0.16906 0.0
C704 C 0.99871 0.25081 0.15175 0.0
C705 C 0.0333 0.27561 0.13988 0.0
C706 C 0.99295 0.32455 0.19188 0.0
C707 C 0.97716 0.20788 0.14626 0.0
H708 H 0.9262 0.19326 0.2348 0.0
H709 H 0.85302 0.20902 0.18652 0.0
H710 H 1.00714 0.22214 0.19798 0.0
H711 H 1.0137 0.26243 0.21502 0.0
H712 H 0.99185 0.2145 0.22756 0.0
H713 H 0.87577 0.23875 0.15067 0.0
H714 H 0.92232 0.28184 0.15517 0.0
H715 H 0.9197 0.24163 0.1398 0.0
H716 H 0.05686 0.36159 0.16557 0.0
H717 H 0.04401 0.26348 0.12709 0.0
H718 H 0.99341 0.31217 0.20889 0.0
H719 H 0.96253 0.31737 0.1885 0.0
H720 H 1.01159 0.35672 0.19274 0.0
H721 H 0.97794 0.19114 0.16134 0.0
H722 H 0.98986 0.20079 0.13135 0.0
H723 H 0.94613 0.19794 0.14255 0.0
C724 C 0.78029 0.03174 0.30614 0.0
C725 C 0.76377 0.05445 0.31266 0.0
C726 C 0.77062 0.99671 0.31761 0.0
C727 C 0.74372 0.98398 0.33598 0.0
C728 C 0.72627 1.0063 0.34223 0.0
C729 C 0.7365 0.04115 0.33055 0.0
C730 C 0.78985 0.97377 0.31041 0.0
C731 C 0.69727 0.99376 0.36161 0.0
C732 C 0.69094 0.87875 0.35675 0.0
C733 C 0.71089 0.88126 0.3772 0.0
C734 C 0.7022 0.91157 0.3427 0.0
C735 C 0.73429 0.94789 0.34917 0.0
C736 C 0.75557 0.95025 0.36926 0.0
C737 C 0.74362 0.91699 0.38302 0.0
C738 C 0.67868 0.90772 0.32145 0.0
C739 C 0.79008 0.98832 0.37674 0.0
H740 H 0.80144 0.04175 0.2924 0.0
H741 H 0.72343 0.05831 0.33571 0.0
H742 H 0.80772 0.97263 0.32476 0.0
H743 H 0.76748 0.94332 0.30639 0.0
H744 H 0.80884 0.98663 0.29519 0.0
H745 H 0.6854 1.01369 0.36388 0.0
H746 H 0.67272 0.96397 0.35838 0.0
H747 H 0.71134 0.9928 0.37789 0.0
H748 H 0.66566 0.85134 0.35202 0.0
H749 H 0.75934 0.91933 0.39873 0.0
H750 H 0.69807 0.9201 0.30638 0.0
H751 H 0.66336 0.92451 0.32369 0.0
H752 H 0.6567 0.87695 0.31772 0.0
H753 H 0.81106 1.00153 0.36244 0.0
H754 H 0.80542 0.98469 0.39171 0.0
H755 H 0.78021 1.00913 0.38147 0.0
C756 C 0.85059 0.74561 0.55278 0.0
C757 C 0.86172 0.71854 0.54609 0.0
C758 C 0.82854 0.75548 0.53814 0.0
C759 C 0.81684 0.73755 0.51634 0.0
C760 C 0.82917 0.7113 0.50915 0.0
C761 C 0.85161 0.70229 0.52404 0.0
C762 C 0.81653 0.78404 0.54639 0.0
C763 C 0.81713 0.69128 0.48615 0.0
C764 C 0.72316 0.72877 0.49266 0.0
C765 C 0.73703 0.75937 0.47671 0.0
C766 C 0.74876 0.72074 0.50512 0.0
C767 C 0.78943 0.74417 0.50185 0.0
C768 C 0.80364 0.77454 0.48538 0.0
C769 C 0.77728 0.78162 0.4729 0.0
C770 C 0.73226 0.68767 0.52221 0.0
C771 C 0.84675 0.80041 0.4815 0.0
H772 H 0.85835 0.75848 0.56972 0.0
H773 H 0.85989 0.68125 0.51868 0.0
H774 H 0.82392 0.80716 0.53337 0.0
H775 H 0.78453 0.7688 0.54881 0.0
H776 H 0.83073 0.79795 0.56287 0.0
H777 H 0.83156 0.67404 0.48235 0.0
H778 H 0.78517 0.67143 0.48587 0.0
H779 H 0.82415 0.71297 0.47228 0.0
H780 H 0.69213 0.71129 0.49565 0.0
H781 H 0.78831 0.80548 0.46073 0.0
H782 H 0.74173 0.6993 0.53978 0.0
H783 H 0.74349 0.66754 0.51871 0.0
H784 H 0.69996 0.67081 0.5218 0.0
H785 H 0.86065 0.81696 0.49739 0.0
H786 H 0.85309 0.82144 0.46728 0.0
H787 H 0.86041 0.78255 0.47757 0.0
C788 C 0.15314 0.79749 0.70563 0.0
C789 C 0.16207 0.83013 0.7192 0.0
C790 C 0.12027 0.78071 0.69128 0.0
C791 C 0.09535 0.79674 0.6905 0.0
C792 C 0.10523 0.83089 0.70326 0.0
C793 C 0.13855 0.84726 0.71742 0.0
C794 C 0.11111 0.74453 0.6779 0.0
C795 C 0.07949 0.8489 0.70295 0.0
C796 C 1.01788 0.76013 0.64332 0.0
C797 C 0.98549 0.73051 0.65477 0.0
C798 C 0.05368 0.78254 0.65477 0.0
C799 C 0.05715 0.77532 0.67825 0.0
C800 C 1.02434 0.74593 0.68994 0.0
C801 C 0.98912 0.7239 0.67809 0.0
C802 C 0.08798 0.81353 0.64168 0.0
C803 C 1.02656 0.73728 0.71499 0.0
H804 H 0.17127 0.7842 0.70673 0.0
H805 H 0.14511 0.87239 0.72788 0.0
H806 H 0.08461 0.71924 0.68501 0.0
H807 H 0.10497 0.74776 0.6597 0.0
H808 H 0.13527 0.73797 0.67856 0.0
H809 H 0.09344 0.87778 0.7115 0.0
H810 H 0.07201 0.85232 0.68507 0.0
H811 H 0.05183 0.82937 0.71193 0.0
H812 H 1.01539 0.76558 0.62534 0.0
H813 H 0.9643 0.70133 0.68721 0.0
H814 H 0.11149 0.80609 0.64108 0.0
H815 H 0.09991 0.84195 0.65058 0.0
H816 H 0.08015 0.81685 0.62383 0.0
H817 H 0.04788 0.72715 0.71734 0.0
H818 H 0.99803 0.71463 0.72185 0.0
H819 H 0.03689 0.76413 0.72534 0.0
C820 C 0.366 0.16072 0.86276 0.0
C821 C 0.34426 0.15699 0.88253 0.0
C822 C 0.35538 0.12905 0.8479 0.0
C823 C 0.32221 0.09262 0.85288 0.0
C824 C 0.29916 0.08911 0.87224 0.0
C825 C 0.31042 0.12128 0.8868 0.0
C826 C 0.38072 0.13415 0.82743 0.0
C827 C 0.26355 0.05085 0.87819 0.0
C828 C 0.27959 1.01225 0.8076 0.0
C829 C 0.29505 0.98866 0.81438 0.0
C830 C 0.28851 0.04647 0.81973 0.0
C831 C 0.31354 0.05741 0.83906 0.0
C832 C 0.32991 0.03418 0.84562 0.0
C833 C 0.3205 1.00023 0.83324 0.0
C834 C 0.27053 0.07046 0.81215 0.0
C835 C 0.35686 0.04478 0.86604 0.0
H836 H 0.39211 0.18816 0.8592 0.0
H837 H 0.29336 0.11799 0.90199 0.0
H838 H 0.39545 0.11684 0.82997 0.0
H839 H 0.36273 0.12315 0.81168 0.0
H840 H 0.40329 0.16507 0.82469 0.0
H841 H 0.24689 0.05372 0.8926 0.0
H842 H 0.24406 0.03901 0.86307 0.0
H843 H 0.27241 0.02931 0.88312 0.0
H844 H 0.25983 1.00358 0.7931 0.0
H845 H 0.33274 0.98237 0.83863 0.0
H846 H 0.29355 0.10108 0.80918 0.0
H847 H 0.25141 0.07077 0.8259 0.0
H848 H 0.25305 0.05902 0.79622 0.0
H849 H 0.38203 0.07457 0.86389 0.0
H850 H 0.36799 0.02424 0.86854 0.0
H851 H 0.34135 0.04484 0.88183 0.0
C852 C 0.73787 0.87091 0.82554 0.0
C853 C 0.75997 0.88079 0.80534 0.0
C854 C 0.74287 0.84916 0.84298 0.0
C855 C 0.77024 0.83645 0.84004 0.0
C856 C 0.7928 0.84654 0.81975 0.0
C857 C 0.78759 0.86879 0.80275 0.0
C858 C 0.71867 0.83953 0.86448 0.0
C859 C 0.82202 0.83327 0.81581 0.0
C860 C 0.81115 0.80776 0.89087 0.0
C861 C 0.7897 0.76694 0.88994 0.0
C862 C 0.80415 0.83072 0.87528 0.0
C863 C 0.77535 0.81249 0.85808 0.0
C864 C 0.75278 0.7713 0.85748 0.0
C865 C 0.76002 0.74902 0.87351 0.0
C866 C 0.82845 0.87451 0.87678 0.0
C867 C 0.72202 0.75069 0.83931 0.0
H868 H 0.71649 0.88011 0.82772 0.0
H869 H 0.80458 0.87596 0.78715 0.0
H870 H 0.70027 0.8075 0.86627 0.0
H871 H 0.7379 0.8502 0.87977 0.0
H872 H 0.69951 0.85257 0.86444 0.0
H873 H 0.83716 0.84343 0.79909 0.0
H874 H 0.84414 0.8443 0.82969 0.0
H875 H 0.8072 0.80101 0.81629 0.0
H876 H 0.83401 0.82187 0.90357 0.0
H877 H 0.74346 0.71752 0.87257 0.0
H878 H 0.8094 0.88762 0.87724 0.0
H879 H 0.84701 0.88601 0.86132 0.0
H880 H 0.84752 0.88419 0.89219 0.0
H881 H 0.70108 0.76155 0.83932 0.0
H882 H 0.7057 0.71863 0.84183 0.0
H883 H 0.73585 0.75704 0.82214 0.0
C884 C 0.90458 0.73379 0.97262 0.0
C885 C 0.86614 0.71758 0.98045 0.0
C886 C 0.93531 0.742 0.98783 0.0
C887 C 0.92752 0.7337 1.01149 0.0
C888 C 0.88909 0.71905 0.01967 0.0
C889 C 0.8589 0.71124 1.00407 0.0
C890 C 0.97586 0.75788 0.97838 0.0
C891 C 0.87953 0.70982 0.04474 0.0
C892 C 0.99672 0.70926 0.04306 0.0
C893 C 1.02193 0.74447 0.0541 0.0
C894 C 0.96537 0.70517 0.0297 0.0
C895 C 0.95891 0.73708 0.0272 0.0
C896 C 0.98348 0.77236 0.03886 0.0
C897 C 1.01467 0.77564 0.0522 0.0
C898 C 0.93981 0.66693 0.01769 0.0
C899 C 0.97755 0.80703 0.03666 0.0
H900 H 0.9106 0.73906 0.95444 0.0
H901 H 0.82936 0.69877 1.01034 0.0
H902 H 0.99686 0.78393 0.98821 0.0
H903 H 0.98498 0.73569 0.98023 0.0
H904 H 0.97771 0.76592 0.95997 0.0
H905 H 0.8492 0.70236 0.04872 0.0
H906 H 0.88328 0.6848 0.04965 0.0
H907 H 0.89975 0.73492 0.05551 0.0
H908 H 1.0019 0.68493 0.04447 0.0
H909 H 0.03399 0.80299 0.06062 0.0
H910 H 0.94251 0.67135 0.99884 0.0
H911 H 0.90885 0.65583 0.02214 0.0
H912 H 0.94754 0.64438 0.02226 0.0
H913 H 0.98278 0.81757 0.01867 0.0
H914 H 0.99739 0.83141 0.04803 0.0
H915 H 0.94707 0.79856 0.04086 0.0
C916 C 0.19678 0.89996 0.13653 0.0
C917 C 0.1624 0.86708 0.14387 0.0
C918 C 0.22046 0.92974 0.15192 0.0
C919 C 0.20998 0.92633 0.17537 0.0
C920 C 0.17504 0.89345 0.18284 0.0
C921 C 0.15149 0.86441 0.16696 0.0
C922 C 0.25706 0.96461 0.14312 0.0
C923 C 0.16312 0.8884 0.20772 0.0
C924 C 0.29443 0.98363 0.21639 0.0
C925 C 0.29097 1.01652 0.22095 0.0
C926 C 0.26742 0.95343 0.2023 0.0
C927 C 0.23652 0.95644 0.19213 0.0
C928 C 0.2323 0.98914 0.19711 0.0
C929 C 0.25937 0.01862 0.21162 0.0
C930 C 0.27262 0.91877 0.1978 0.0
C931 C 0.20015 0.99378 0.18636 0.0
H932 H 0.20529 0.9024 0.11869 0.0
H933 H 0.12509 0.83902 0.1728 0.0
H934 H 0.25744 0.99188 0.14794 0.0
H935 H 0.28291 0.96551 0.15113 0.0
H936 H 0.25982 0.96405 0.12419 0.0
H937 H 0.13445 0.86191 0.21065 0.0
H938 H 0.1853 0.88629 0.21833 0.0
H939 H 0.16166 0.91413 0.21382 0.0
H940 H 0.31864 0.98169 0.22362 0.0
H941 H 0.25664 0.04408 0.21489 0.0
H942 H 0.27958 0.9182 0.17945 0.0
H943 H 0.24518 0.89134 0.20144 0.0
H944 H 0.29629 0.91937 0.20837 0.0
H945 H 0.2041 0.99657 0.16748 0.0
H946 H 0.19956 0.01979 0.19291 0.0
H947 H 0.17149 0.9676 0.18969 0.0
C948 C 0.30055 0.14449 0.33141 0.0
C949 C 0.31319 0.15813 0.30908 0.0
C950 C 0.29511 0.1676 0.34763 0.0
C951 C 0.30196 0.20506 0.3413 0.0
C952 C 0.31363 0.21849 0.31858 0.0
C953 C 0.31936 0.19503 0.30283 0.0
C954 C 0.28304 0.15234 0.37171 0.0
C955 C 0.32071 0.25798 0.31099 0.0
C956 C 0.2606 0.2561 0.3774 0.0
C957 C 0.29358 0.28329 0.38963 0.0
C958 C 0.2627 0.23007 0.36187 0.0
C959 C 0.29853 0.23094 0.35862 0.0
C960 C 0.33162 0.25758 0.37138 0.0
C961 C 0.3288 0.28349 0.38662 0.0
C962 C 0.22682 0.20235 0.34848 0.0
C963 C 0.37029 0.25925 0.36863 0.0
H964 H 0.29584 0.1161 0.33643 0.0
H965 H 0.32887 0.20573 0.28557 0.0
H966 H 0.30621 0.17135 0.38397 0.0
H967 H 0.25633 0.153 0.37652 0.0
H968 H 0.27748 0.12208 0.37369 0.0
H969 H 0.32755 0.26324 0.29242 0.0
H970 H 0.29472 0.26074 0.31457 0.0
H971 H 0.34532 0.28111 0.32086 0.0
H972 H 0.23329 0.25577 0.37952 0.0
H973 H 0.35442 0.30424 0.39603 0.0
H974 H 0.22047 0.17196 0.35098 0.0
H975 H 0.23198 0.20891 0.32989 0.0
H976 H 0.20084 0.20423 0.3536 0.0
H977 H 0.36688 0.23003 0.3716 0.0
H978 H 0.39273 0.28025 0.38062 0.0
H979 H 0.38095 0.26793 0.35082 0.0
C980 C 0.1179 0.27032 0.46623 0.0
C981 C 0.15795 0.2956 0.46931 0.0
C982 C 0.09121 0.26413 0.48378 0.0
C983 C 0.1048 0.28332 0.50511 0.0
C984 C 0.14524 0.3084 0.50848 0.0
C985 C 0.1713 0.31441 0.49052 0.0
C986 C 0.04834 0.23735 0.47937 0.0
C987 C 0.16095 0.32906 0.53103 0.0
C988 C 0.0303 0.29223 0.54193 0.0
C989 C 1.01737 0.25988 0.5565 0.0
C990 C 0.05949 0.30086 0.52553 0.0
C991 C 0.0765 0.27684 0.52381 0.0
C992 C 0.06474 0.24518 0.53915 0.0
C993 C 0.03524 0.23698 0.55519 0.0
C994 C 0.07099 0.33475 0.50942 0.0
C995 C 0.0824 0.21912 0.53813 0.0
H996 H 0.10719 0.25586 0.44989 0.0
H997 H 0.20217 0.334 0.49307 0.0
H998 H 0.03646 0.21305 0.49192 0.0
H999 H 0.03235 0.25345 0.48174 0.0
H1000 H 0.04245 0.22492 0.4618 0.0
H1001 H 0.19321 0.34697 0.53108 0.0
H1002 H 0.1487 0.34825 0.53471 0.0
H1003 H 0.15186 0.30749 0.54517 0.0
H1004 H 1.0166 0.31002 0.54273 0.0
H1005 H 1.02565 0.21206 0.56645 0.0
H1006 H 0.06275 0.32384 0.49161 0.0
H1007 H 0.10299 0.35431 0.50971 0.0
H1008 H 0.05678 0.35198 0.51383 0.0
H1009 H 0.07451 0.20302 0.52165 0.0
H1010 H 0.07234 0.19766 0.55239 0.0
H1011 H 0.11461 0.23682 0.53879 0.0
C1012 C 0.8059 0.03192 0.72052 0.0
C1013 C 0.76663 0.02207 0.71992 0.0
C1014 C 0.83416 0.06367 0.70777 0.0
C1015 C 0.82293 0.08628 0.6943 0.0
C1016 C 0.78349 0.07696 0.69409 0.0
C1017 C 0.7559 0.04498 0.70679 0.0
C1018 C 0.87583 0.0725 0.70832 0.0
C1019 C 0.77024 0.10045 0.68013 0.0
C1020 C 0.8944 0.18886 0.67376 0.0
C1021 C 0.89746 0.18268 0.65035 0.0
C1022 C 0.87169 0.15756 0.68856 0.0
C1023 C 0.85184 0.11909 0.67981 0.0
C1024 C 0.8567 0.11251 0.6565 0.0
C1025 C 0.87927 0.14433 0.64206 0.0
C1026 C 0.86715 0.1659 0.71325 0.0
C1027 C 0.83644 0.07198 0.64649 0.0
H1028 H 0.81444 1.01431 0.73055 0.0
H1029 H 0.72571 0.0378 0.70629 0.0
H1030 H 0.8848 0.06899 0.69089 0.0
H1031 H 0.89536 0.10317 0.71351 0.0
H1032 H 0.88016 0.05313 0.72031 0.0
H1033 H 0.73882 0.09032 0.68249 0.0
H1034 H 0.78722 0.13162 0.68501 0.0
H1035 H 0.77559 0.09844 0.66166 0.0
H1036 H 0.90827 0.21833 0.68035 0.0
H1037 H 0.88165 0.13918 0.62404 0.0
H1038 H 0.87213 0.14662 0.7249 0.0
H1039 H 0.83696 0.15977 0.71612 0.0
H1040 H 0.88753 0.19668 0.71799 0.0
H1041 H 0.8416 0.05199 0.65739 0.0
H1042 H 0.84636 0.07134 0.62878 0.0
H1043 H 0.80458 0.06059 0.64605 0.0
loop_
_geom_bond_atom_site_label_1
_geom_bond_atom_site_label_2
_geom_bond_distance
_geom_bond_site_symmetry_2
_ccdc_geom_bond_type
Cu0 N1 1.999 . S
Cu0 O6 1.974 . S
Cu0 N11 1.985 . S
Cu0 O20 1.959 . S
N1 Cu0 1.999 . S
N1 C3 1.263 . S
N1 C5 1.389 . S
N2 C3 1.358 . S
N2 C4 1.400 . S
C3 N1 1.263 . S
C3 N2 1.358 . S
C3 H9 0.930 . S
C4 N2 1.400 . S
C4 C5 1.351 . S
C4 H21 0.930 . S
C5 N1 1.389 . S
C5 C4 1.351 . S
C5 H10 0.930 . S
O6 Cu0 1.974 . S
O6 C16 1.282 . S
C7 O8 1.261 . S
C7 O20 1.251 . S
O8 C7 1.261 . S
H9 C3 0.930 . S
H10 C5 0.930 . S
N11 Cu0 1.985 . S
N11 C13 1.335 . S
N11 C14 1.390 . S
N12 C13 1.345 . S
N12 C15 1.336 . S
C13 N11 1.335 . S
C13 N12 1.345 . S
C13 H18 0.930 . S
C14 N11 1.390 . S
C14 C15 1.346 . S
C14 H19 0.930 . S
C15 N12 1.336 . S
C15 C14 1.346 . S
C15 H22 0.929 . S
C16 O6 1.282 . S
C16 O17 1.216 . S
O17 C16 1.216 . S
H18 C13 0.930 . S
H19 C14 0.930 . S
O20 Cu0 1.959 . S
O20 C7 1.251 . S
H21 C4 0.930 . S
H22 C15 0.929 . S
Cu23 N24 1.999 . S
Cu23 O29 1.974 . S
Cu23 N34 1.985 . S
Cu23 O43 1.959 . S
N24 Cu23 1.999 . S
N24 C26 1.263 . S
N24 C28 1.389 . S
N25 C26 1.358 . S
N25 C27 1.400 . S
C26 N24 1.263 . S
C26 N25 1.358 . S
C26 H32 0.930 . S
C27 N25 1.400 . S
C27 C28 1.351 . S
C27 H44 0.930 . S
C28 N24 1.389 . S
C28 C27 1.351 . S
C28 H33 0.930 . S
O29 Cu23 1.974 . S
O29 C39 1.282 . S
C30 O31 1.261 . S
C30 O43 1.251 . S
O31 C30 1.261 . S
H32 C26 0.930 . S
H33 C28 0.930 . S
N34 Cu23 1.985 . S
N34 C36 1.335 . S
N34 C37 1.390 . S
N35 C36 1.345 . S
N35 C38 1.336 . S
C36 N34 1.335 . S
C36 N35 1.345 . S
C36 H41 0.930 . S
C37 N34 1.390 . S
C37 C38 1.346 . S
C37 H42 0.930 . S
C38 N35 1.336 . S
C38 C37 1.346 . S
C38 H45 0.929 . S
C39 O29 1.282 . S
C39 O40 1.216 . S
O40 C39 1.216 . S
H41 C36 0.930 . S
H42 C37 0.930 . S
O43 Cu23 1.959 . S
O43 C30 1.251 . S
H44 C27 0.930 . S
H45 C38 0.929 . S
Cu46 N47 1.999 . S
Cu46 O52 1.974 . S
Cu46 N57 1.985 . S
Cu46 O66 1.959 . S
N47 Cu46 1.999 . S
N47 C49 1.263 . S
N47 C51 1.389 . S
N48 C49 1.358 . S
N48 C50 1.400 . S
C49 N47 1.263 . S
C49 N48 1.358 . S
C49 H55 0.930 . S
C50 N48 1.400 . S
C50 C51 1.351 . S
C50 H67 0.930 . S
C51 N47 1.389 . S
C51 C50 1.351 . S
C51 H56 0.930 . S
O52 Cu46 1.974 . S
O52 C62 1.282 . S
C53 O54 1.261 . S
C53 O66 1.251 . S
O54 C53 1.261 . S
H55 C49 0.930 . S
H56 C51 0.930 . S
N57 Cu46 1.985 . S
N57 C59 1.335 . S
N57 C60 1.390 . S
N58 C59 1.345 . S
N58 C61 1.336 . S
C59 N57 1.335 . S
C59 N58 1.345 . S
C59 H64 0.930 . S
C60 N57 1.390 . S
C60 C61 1.346 . S
C60 H65 0.930 . S
C61 N58 1.336 . S
C61 C60 1.346 . S
C61 H68 0.929 . S
C62 O52 1.282 . S
C62 O63 1.216 . S
O63 C62 1.216 . S
H64 C59 0.930 . S
H65 C60 0.930 . S
O66 Cu46 1.959 . S
O66 C53 1.251 . S
H67 C50 0.930 . S
H68 C61 0.929 . S
Cu69 N70 1.999 . S
Cu69 O75 1.974 . S
Cu69 N80 1.985 . S
Cu69 O89 1.959 . S
N70 Cu69 1.999 . S
N70 C72 1.263 . S
N70 C74 1.389 . S
N71 C72 1.358 . S
N71 C73 1.400 . S
C72 N70 1.263 . S
C72 N71 1.358 . S
C72 H78 0.930 . S
C73 N71 1.400 . S
C73 C74 1.351 . S
C73 H90 0.930 . S
C74 N70 1.389 . S
C74 C73 1.351 . S
C74 H79 0.930 . S
O75 Cu69 1.974 . S
O75 C85 1.282 . S
C76 O77 1.261 . S
C76 O89 1.251 . S
O77 C76 1.261 . S
H78 C72 0.930 . S
H79 C74 0.930 . S
N80 Cu69 1.985 . S
N80 C82 1.335 . S
N80 C83 1.390 . S
N81 C82 1.345 . S
N81 C84 1.336 . S
C82 N80 1.335 . S
C82 N81 1.345 . S
C82 H87 0.930 . S
C83 N80 1.390 . S
C83 C84 1.346 . S
C83 H88 0.930 . S
C84 N81 1.336 . S
C84 C83 1.346 . S
C84 H91 0.929 . S
C85 O75 1.282 . S
C85 O86 1.216 . S
O86 C85 1.216 . S
H87 C82 0.930 . S
H88 C83 0.930 . S
O89 Cu69 1.959 . S
O89 C76 1.251 . S
H90 C73 0.930 . S
H91 C84 0.929 . S
Cu92 N93 1.999 . S
Cu92 O98 1.974 . S
Cu92 N103 1.985 . S
Cu92 O112 1.959 . S
N93 Cu92 1.999 . S
N93 C95 1.263 . S
N93 C97 1.389 . S
N94 C95 1.358 . S
N94 C96 1.400 . S
C95 N93 1.263 . S
C95 N94 1.358 . S
C95 H101 0.930 . S
C96 N94 1.400 . S
C96 C97 1.351 . S
C96 H113 0.930 . S
C97 N93 1.389 . S
C97 C96 1.351 . S
C97 H102 0.930 . S
O98 Cu92 1.974 . S
O98 C108 1.282 . S
C99 O100 1.261 . S
C99 O112 1.251 . S
O100 C99 1.261 . S
H101 C95 0.930 . S
H102 C97 0.930 . S
N103 Cu92 1.985 . S
N103 C105 1.335 . S
N103 C106 1.390 . S
N104 C105 1.345 . S
N104 C107 1.336 . S
C105 N103 1.335 . S
C105 N104 1.345 . S
C105 H110 0.930 . S
C106 N103 1.390 . S
C106 C107 1.346 . S
C106 H111 0.930 . S
C107 N104 1.336 . S
C107 C106 1.346 . S
C107 H114 0.929 . S
C108 O98 1.282 . S
C108 O109 1.216 . S
O109 C108 1.216 . S
H110 C105 0.930 . S
H111 C106 0.930 . S
O112 Cu92 1.959 . S
O112 C99 1.251 . S
H113 C96 0.930 . S
H114 C107 0.929 . S
Cu115 N116 1.999 . S
Cu115 O121 1.974 . S
Cu115 N126 1.985 . S
Cu115 O135 1.959 . S
N116 Cu115 1.999 . S
N116 C118 1.263 . S
N116 C120 1.389 . S
N117 C118 1.358 . S
N117 C119 1.400 . S
C118 N116 1.263 . S
C118 N117 1.358 . S
C118 H124 0.930 . S
C119 N117 1.400 . S
C119 C120 1.351 . S
C119 H136 0.930 . S
C120 N116 1.389 . S
C120 C119 1.351 . S
C120 H125 0.930 . S
O121 Cu115 1.974 . S
O121 C131 1.282 . S
C122 O123 1.261 . S
C122 O135 1.251 . S
O123 C122 1.261 . S
H124 C118 0.930 . S
H125 C120 0.930 . S
N126 Cu115 1.985 . S
N126 C128 1.335 . S
N126 C129 1.390 . S
N127 C128 1.345 . S
N127 C130 1.336 . S
C128 N126 1.335 . S
C128 N127 1.345 . S
C128 H133 0.930 . S
C129 N126 1.390 . S
C129 C130 1.346 . S
C129 H134 0.930 . S
C130 N127 1.336 . S
C130 C129 1.346 . S
C130 H137 0.929 . S
C131 O121 1.282 . S
C131 O132 1.216 . S
O132 C131 1.216 . S
H133 C128 0.930 . S
H134 C129 0.930 . S
O135 Cu115 1.959 . S
O135 C122 1.251 . S
H136 C119 0.930 . S
H137 C130 0.929 . S
Cu138 N139 1.999 . S
Cu138 O144 1.974 . S
Cu138 N149 1.985 . S
Cu138 O158 1.959 . S
N139 Cu138 1.999 . S
N139 C141 1.263 . S
N139 C143 1.389 . S
N140 C141 1.358 . S
N140 C142 1.400 . S
C141 N139 1.263 . S
C141 N140 1.358 . S
C141 H147 0.930 . S
C142 N140 1.400 . S
C142 C143 1.351 . S
C142 H159 0.930 . S
C143 N139 1.389 . S
C143 C142 1.351 . S
C143 H148 0.930 . S
O144 Cu138 1.974 . S
O144 C154 1.282 . S
C145 O146 1.261 . S
C145 O158 1.251 . S
O146 C145 1.261 . S
H147 C141 0.930 . S
H148 C143 0.930 . S
N149 Cu138 1.985 . S
N149 C151 1.335 . S
N149 C152 1.390 . S
N150 C151 1.345 . S
N150 C153 1.336 . S
C151 N149 1.335 . S
C151 N150 1.345 . S
C151 H156 0.930 . S
C152 N149 1.390 . S
C152 C153 1.346 . S
C152 H157 0.930 . S
C153 N150 1.336 . S
C153 C152 1.346 . S
C153 H160 0.929 . S
C154 O144 1.282 . S
C154 O155 1.216 . S
O155 C154 1.216 . S
H156 C151 0.930 . S
H157 C152 0.930 . S
O158 Cu138 1.959 . S
O158 C145 1.251 . S
H159 C142 0.930 . S
H160 C153 0.929 . S
Cu161 N162 1.999 . S
Cu161 O167 1.974 . S
Cu161 N172 1.985 . S
Cu161 O181 1.959 . S
N162 Cu161 1.999 . S
N162 C164 1.263 . S
N162 C166 1.389 . S
N163 C164 1.358 . S
N163 C165 1.400 . S
C164 N162 1.263 . S
C164 N163 1.358 . S
C164 H170 0.930 . S
C165 N163 1.400 . S
C165 C166 1.351 . S
C165 H182 0.930 . S
C166 N162 1.389 . S
C166 C165 1.351 . S
C166 H171 0.930 . S
O167 Cu161 1.974 . S
O167 C177 1.282 . S
C168 O169 1.261 . S
C168 O181 1.251 . S
O169 C168 1.261 . S
H170 C164 0.930 . S
H171 C166 0.930 . S
N172 Cu161 1.985 . S
N172 C174 1.335 . S
N172 C175 1.390 . S
N173 C174 1.345 . S
N173 C176 1.336 . S
C174 N172 1.335 . S
C174 N173 1.345 . S
C174 H179 0.930 . S
C175 N172 1.390 . S
C175 C176 1.346 . S
C175 H180 0.930 . S
C176 N173 1.336 . S
C176 C175 1.346 . S
C176 H183 0.929 . S
C177 O167 1.282 . S
C177 O178 1.216 . S
O178 C177 1.216 . S
H179 C174 0.930 . S
H180 C175 0.930 . S
O181 Cu161 1.959 . S
O181 C168 1.251 . S
H182 C165 0.930 . S
H183 C176 0.929 . S
Cu184 N185 1.999 . S
Cu184 O190 1.974 . S
Cu184 N195 1.985 . S
Cu184 O204 1.959 . S
N185 Cu184 1.999 . S
N185 C187 1.263 . S
N185 C189 1.389 . S
N186 C187 1.358 . S
N186 C188 1.400 . S
C187 N185 1.263 . S
C187 N186 1.358 . S
C187 H193 0.930 . S
C188 N186 1.400 . S
C188 C189 1.351 . S
C188 H205 0.930 . S
C189 N185 1.389 . S
C189 C188 1.351 . S
C189 H194 0.930 . S
O190 Cu184 1.974 . S
O190 C200 1.282 . S
C191 O192 1.261 . S
C191 O204 1.251 . S
O192 C191 1.261 . S
H193 C187 0.930 . S
H194 C189 0.930 . S
N195 Cu184 1.985 . S
N195 C197 1.335 . S
N195 C198 1.390 . S
N196 C197 1.345 . S
N196 C199 1.336 . S
C197 N195 1.335 . S
C197 N196 1.345 . S
C197 H202 0.930 . S
C198 N195 1.390 . S
C198 C199 1.346 . S
C198 H203 0.930 . S
C199 N196 1.336 . S
C199 C198 1.346 . S
C199 H206 0.929 . S
C200 O190 1.282 . S
C200 O201 1.216 . S
O201 C200 1.216 . S
H202 C197 0.930 . S
H203 C198 0.930 . S
O204 Cu184 1.959 . S
O204 C191 1.251 . S
H205 C188 0.930 . S
H206 C199 0.929 . S
Cu207 N208 1.999 . S
Cu207 O213 1.974 . S
Cu207 N218 1.985 . S
Cu207 O227 1.959 . S
N208 Cu207 1.999 . S
N208 C210 1.263 . S
N208 C212 1.389 . S
N209 C210 1.358 . S
N209 C211 1.400 . S
C210 N208 1.263 . S
C210 N209 1.358 . S
C210 H216 0.930 . S
C211 N209 1.400 . S
C211 C212 1.351 . S
C211 H228 0.930 . S
C212 N208 1.389 . S
C212 C211 1.351 . S
C212 H217 0.930 . S
O213 Cu207 1.974 . S
O213 C223 1.282 . S
C214 O215 1.261 . S
C214 O227 1.251 . S
O215 C214 1.261 . S
H216 C210 0.930 . S
H217 C212 0.930 . S
N218 Cu207 1.985 . S
N218 C220 1.335 . S
N218 C221 1.390 . S
N219 C220 1.345 . S
N219 C222 1.336 . S
C220 N218 1.335 . S
C220 N219 1.345 . S
C220 H225 0.930 . S
C221 N218 1.390 . S
C221 C222 1.346 . S
C221 H226 0.930 . S
C222 N219 1.336 . S
C222 C221 1.346 . S
C222 H229 0.929 . S
C223 O213 1.282 . S
C223 O224 1.216 . S
O224 C223 1.216 . S
H225 C220 0.930 . S
H226 C221 0.930 . S
O227 Cu207 1.959 . S
O227 C214 1.251 . S
H228 C211 0.930 . S
H229 C222 0.929 . S
Cu230 N231 1.999 . S
Cu230 O236 1.974 . S
Cu230 N241 1.985 . S
Cu230 O250 1.959 . S
N231 Cu230 1.999 . S
N231 C233 1.263 . S
N231 C235 1.389 . S
N232 C233 1.358 . S
N232 C234 1.400 . S
C233 N231 1.263 . S
C233 N232 1.358 . S
C233 H239 0.930 . S
C234 N232 1.400 . S
C234 C235 1.351 . S
C234 H251 0.930 . S
C235 N231 1.389 . S
C235 C234 1.351 . S
C235 H240 0.930 . S
O236 Cu230 1.974 . S
O236 C246 1.282 . S
C237 O238 1.261 . S
C237 O250 1.251 . S
O238 C237 1.261 . S
H239 C233 0.930 . S
H240 C235 0.930 . S
N241 Cu230 1.985 . S
N241 C243 1.335 . S
N241 C244 1.390 . S
N242 C243 1.345 . S
N242 C245 1.336 . S
C243 N241 1.335 . S
C243 N242 1.345 . S
C243 H248 0.930 . S
C244 N241 1.390 . S
C244 C245 1.346 . S
C244 H249 0.930 . S
C245 N242 1.336 . S
C245 C244 1.346 . S
C245 H252 0.929 . S
C246 O236 1.282 . S
C246 O247 1.216 . S
O247 C246 1.216 . S
H248 C243 0.930 . S
H249 C244 0.930 . S
O250 Cu230 1.959 . S
O250 C237 1.251 . S
H251 C234 0.930 . S
H252 C245 0.929 . S
Cu253 N254 1.999 . S
Cu253 O259 1.974 . S
Cu253 N264 1.985 . S
Cu253 O273 1.959 . S
N254 Cu253 1.999 . S
N254 C256 1.263 . S
N254 C258 1.389 . S
N255 C256 1.358 . S
N255 C257 1.400 . S
C256 N254 1.263 . S
C256 N255 1.358 . S
C256 H262 0.930 . S
C257 N255 1.400 . S
C257 C258 1.351 . S
C257 H274 0.930 . S
C258 N254 1.389 . S
C258 C257 1.351 . S
C258 H263 0.930 . S
O259 Cu253 1.974 . S
O259 C269 1.282 . S
C260 O261 1.261 . S
C260 O273 1.251 . S
O261 C260 1.261 . S
H262 C256 0.930 . S
H263 C258 0.930 . S
N264 Cu253 1.985 . S
N264 C266 1.335 . S
N264 C267 1.390 . S
N265 C266 1.345 . S
N265 C268 1.336 . S
C266 N264 1.335 . S
C266 N265 1.345 . S
C266 H271 0.930 . S
C267 N264 1.390 . S
C267 C268 1.346 . S
C267 H272 0.930 . S
C268 N265 1.336 . S
C268 C267 1.346 . S
C268 H275 0.929 . S
C269 O259 1.282 . S
C269 O270 1.216 . S
O270 C269 1.216 . S
H271 C266 0.930 . S
H272 C267 0.930 . S
O273 Cu253 1.959 . S
O273 C260 1.251 . S
H274 C257 0.930 . S
H275 C268 0.929 . S
C276 C277 1.391 . S
C276 C278 1.394 . S
C276 H292 0.931 . S
C277 C276 1.391 . S
C277 C281 1.376 . S
C278 C276 1.394 . S
C278 C279 1.369 . S
C278 C282 1.531 . S
C279 C278 1.369 . S
C279 C280 1.410 . S
C279 C287 1.503 . S
C280 C279 1.410 . S
C280 C281 1.392 . S
C280 C283 1.511 . S
C281 C277 1.376 . S
C281 C280 1.392 . S
C281 H293 0.929 . S
C282 C278 1.531 . S
C282 H294 0.960 . S
C282 H295 0.962 . S
C282 H296 0.960 . S
C283 C280 1.511 . S
C283 H297 0.961 . S
C283 H298 0.961 . S
C283 H299 0.961 . S
C284 C285 1.370 . S
C284 C286 1.363 . S
C284 H300 0.931 . S
C285 C284 1.370 . S
C285 C289 1.408 . S
C286 C284 1.363 . S
C286 C287 1.370 . S
C286 C290 1.524 . S
C287 C279 1.503 . S
C287 C286 1.370 . S
C287 C288 1.403 . S
C288 C287 1.403 . S
C288 C289 1.404 . S
C288 C291 1.539 . S
C289 C285 1.408 . S
C289 C288 1.404 . S
C289 H301 0.930 . S
C290 C286 1.524 . S
C290 H302 0.956 . S
C290 H303 0.961 . S
C290 H304 0.961 . S
C291 C288 1.539 . S
C291 H305 0.958 . S
C291 H306 0.961 . S
C291 H307 0.960 . S
H292 C276 0.931 . S
H293 C281 0.929 . S
H294 C282 0.960 . S
H295 C282 0.962 . S
H296 C282 0.960 . S
H297 C283 0.961 . S
H298 C283 0.961 . S
H299 C283 0.961 . S
H300 C284 0.931 . S
H301 C289 0.930 . S
H302 C290 0.956 . S
H303 C290 0.961 . S
H304 C290 0.961 . S
H305 C291 0.958 . S
H306 C291 0.961 . S
H307 C291 0.960 . S
C308 C309 1.391 . S
C308 C310 1.394 . S
C308 H324 0.931 . S
C309 C308 1.391 . S
C309 C313 1.376 . S
C310 C308 1.394 . S
C310 C311 1.369 . S
C310 C314 1.531 . S
C311 C310 1.369 . S
C311 C312 1.410 . S
C311 C319 1.503 . S
C312 C311 1.410 . S
C312 C313 1.392 . S
C312 C315 1.511 . S
C313 C309 1.376 . S
C313 C312 1.392 . S
C313 H325 0.929 . S
C314 C310 1.531 . S
C314 H326 0.960 . S
C314 H327 0.962 . S
C314 H328 0.960 . S
C315 C312 1.511 . S
C315 H329 0.961 . S
C315 H330 0.961 . S
C315 H331 0.961 . S
C316 C317 1.370 . S
C316 C318 1.363 . S
C316 H332 0.931 . S
C317 C316 1.370 . S
C317 C321 1.408 . S
C318 C316 1.363 . S
C318 C319 1.370 . S
C318 C322 1.524 . S
C319 C311 1.503 . S
C319 C318 1.370 . S
C319 C320 1.403 . S
C320 C319 1.403 . S
C320 C321 1.404 . S
C320 C323 1.539 . S
C321 C317 1.408 . S
C321 C320 1.404 . S
C321 H333 0.930 . S
C322 C318 1.524 . S
C322 H334 0.956 . S
C322 H335 0.961 . S
C322 H336 0.961 . S
C323 C320 1.539 . S
C323 H337 0.958 . S
C323 H338 0.961 . S
C323 H339 0.960 . S
H324 C308 0.931 . S
H325 C313 0.929 . S
H326 C314 0.960 . S
H327 C314 0.962 . S
H328 C314 0.960 . S
H329 C315 0.961 . S
H330 C315 0.961 . S
H331 C315 0.961 . S
H332 C316 0.931 . S
H333 C321 0.930 . S
H334 C322 0.956 . S
H335 C322 0.961 . S
H336 C322 0.961 . S
H337 C323 0.958 . S
H338 C323 0.961 . S
H339 C323 0.960 . S
C340 C341 1.391 . S
C340 C342 1.394 . S
C340 H356 0.931 . S
C341 C340 1.391 . S
C341 C345 1.376 . S
C342 C340 1.394 . S
C342 C343 1.369 . S
C342 C346 1.531 . S
C343 C342 1.369 . S
C343 C344 1.410 . S
C343 C351 1.503 . S
C344 C343 1.410 . S
C344 C345 1.392 . S
C344 C347 1.511 . S
C345 C341 1.376 . S
C345 C344 1.392 . S
C345 H357 0.929 . S
C346 C342 1.531 . S
C346 H358 0.960 . S
C346 H359 0.962 . S
C346 H360 0.960 . S
C347 C344 1.511 . S
C347 H361 0.961 . S
C347 H362 0.961 . S
C347 H363 0.961 . S
C348 C349 1.370 . S
C348 C350 1.363 . S
C348 H364 0.931 . S
C349 C348 1.370 . S
C349 C353 1.408 . S
C350 C348 1.363 . S
C350 C351 1.370 . S
C350 C354 1.524 . S
C351 C343 1.503 . S
C351 C350 1.370 . S
C351 C352 1.403 . S
C352 C351 1.403 . S
C352 C353 1.404 . S
C352 C355 1.539 . S
C353 C349 1.408 . S
C353 C352 1.404 . S
C353 H365 0.930 . S
C354 C350 1.524 . S
C354 H366 0.956 . S
C354 H367 0.961 . S
C354 H368 0.961 . S
C355 C352 1.539 . S
C355 H369 0.958 . S
C355 H370 0.961 . S
C355 H371 0.960 . S
H356 C340 0.931 . S
H357 C345 0.929 . S
H358 C346 0.960 . S
H359 C346 0.962 . S
H360 C346 0.960 . S
H361 C347 0.961 . S
H362 C347 0.961 . S
H363 C347 0.961 . S
H364 C348 0.931 . S
H365 C353 0.930 . S
H366 C354 0.956 . S
H367 C354 0.961 . S
H368 C354 0.961 . S
H369 C355 0.958 . S
H370 C355 0.961 . S
H371 C355 0.960 . S
C372 C373 1.391 . S
C372 C374 1.394 . S
C372 H388 0.931 . S
C373 C372 1.391 . S
C373 C377 1.376 . S
C374 C372 1.394 . S
C374 C375 1.369 . S
C374 C378 1.531 . S
C375 C374 1.369 . S
C375 C376 1.410 . S
C375 C383 1.503 . S
C376 C375 1.410 . S
C376 C377 1.392 . S
C376 C379 1.511 . S
C377 C373 1.376 . S
C377 C376 1.392 . S
C377 H389 0.929 . S
C378 C374 1.531 . S
C378 H390 0.960 . S
C378 H391 0.962 . S
C378 H392 0.960 . S
C379 C376 1.511 . S
C379 H393 0.961 . S
C379 H394 0.961 . S
C379 H395 0.961 . S
C380 C381 1.370 . S
C380 C382 1.363 . S
C380 H396 0.931 . S
C381 C380 1.370 . S
C381 C385 1.408 . S
C382 C380 1.363 . S
C382 C383 1.370 . S
C382 C386 1.524 . S
C383 C375 1.503 . S
C383 C382 1.370 . S
C383 C384 1.403 . S
C384 C383 1.403 . S
C384 C385 1.404 . S
C384 C387 1.539 . S
C385 C381 1.408 . S
C385 C384 1.404 . S
C385 H397 0.930 . S
C386 C382 1.524 . S
C386 H398 0.956 . S
C386 H399 0.961 . S
C386 H400 0.961 . S
C387 C384 1.539 . S
C387 H401 0.958 . S
C387 H402 0.961 . S
C387 H403 0.960 . S
H388 C372 0.931 . S
H389 C377 0.929 . S
H390 C378 0.960 . S
H391 C378 0.962 . S
H392 C378 0.960 . S
H393 C379 0.961 . S
H394 C379 0.961 . S
H395 C379 0.961 . S
H396 C380 0.931 . S
H397 C385 0.930 . S
H398 C386 0.956 . S
H399 C386 0.961 . S
H400 C386 0.961 . S
H401 C387 0.958 . S
H402 C387 0.961 . S
H403 C387 0.960 . S
C404 C405 1.391 . S
C404 C406 1.394 . S
C404 H420 0.931 . S
C405 C404 1.391 . S
C405 C409 1.376 . S
C406 C404 1.394 . S
C406 C407 1.369 . S
C406 C410 1.531 . S
C407 C406 1.369 . S
C407 C408 1.410 . S
C407 C415 1.503 . S
C408 C407 1.410 . S
C408 C409 1.392 . S
C408 C411 1.511 . S
C409 C405 1.376 . S
C409 C408 1.392 . S
C409 H421 0.929 . S
C410 C406 1.531 . S
C410 H422 0.960 . S
C410 H423 0.962 . S
C410 H424 0.960 . S
C411 C408 1.511 . S
C411 H425 0.961 . S
C411 H426 0.961 . S
C411 H427 0.961 . S
C412 C413 1.370 . S
C412 C414 1.363 . S
C412 H428 0.931 . S
C413 C412 1.370 . S
C413 C417 1.408 . S
C414 C412 1.363 . S
C414 C415 1.370 . S
C414 C418 1.524 . S
C415 C407 1.503 . S
C415 C414 1.370 . S
C415 C416 1.403 . S
C416 C415 1.403 . S
C416 C417 1.404 . S
C416 C419 1.539 . S
C417 C413 1.408 . S
C417 C416 1.404 . S
C417 H429 0.930 . S
C418 C414 1.524 . S
C418 H430 0.956 . S
C418 H431 0.961 . S
C418 H432 0.961 . S
C419 C416 1.539 . S
C419 H433 0.958 . S
C419 H434 0.961 . S
C419 H435 0.960 . S
H420 C404 0.931 . S
H421 C409 0.929 . S
H422 C410 0.960 . S
H423 C410 0.962 . S
H424 C410 0.960 . S
H425 C411 0.961 . S
H426 C411 0.961 . S
H427 C411 0.961 . S
H428 C412 0.931 . S
H429 C417 0.930 . S
H430 C418 0.956 . S
H431 C418 0.961 . S
H432 C418 0.961 . S
H433 C419 0.958 . S
H434 C419 0.961 . S
H435 C419 0.960 . S
C436 C437 1.391 . S
C436 C438 1.394 . S
C436 H452 0.931 . S
C437 C436 1.391 . S
C437 C441 1.376 . S
C438 C436 1.394 . S
C438 C439 1.369 . S
C438 C442 1.531 . S
C439 C438 1.369 . S
C439 C440 1.410 . S
C439 C447 1.503 . S
C440 C439 1.410 . S
C440 C441 1.392 . S
C440 C443 1.511 . S
C441 C437 1.376 . S
C441 C440 1.392 . S
C441 H453 0.929 . S
C442 C438 1.531 . S
C442 H454 0.960 . S
C442 H455 0.962 . S
C442 H456 0.960 . S
C443 C440 1.511 . S
C443 H457 0.961 . S
C443 H458 0.961 . S
C443 H459 0.961 . S
C444 C445 1.370 . S
C444 C446 1.363 . S
C444 H460 0.931 . S
C445 C444 1.370 . S
C445 C449 1.408 . S
C446 C444 1.363 . S
C446 C447 1.370 . S
C446 C450 1.524 . S
C447 C439 1.503 . S
C447 C446 1.370 . S
C447 C448 1.403 . S
C448 C447 1.403 . S
C448 C449 1.404 . S
C448 C451 1.539 . S
C449 C445 1.408 . S
C449 C448 1.404 . S
C449 H461 0.930 . S
C450 C446 1.524 . S
C450 H462 0.956 . S
C450 H463 0.961 . S
C450 H464 0.961 . S
C451 C448 1.539 . S
C451 H465 0.958 . S
C451 H466 0.961 . S
C451 H467 0.960 . S
H452 C436 0.931 . S
H453 C441 0.929 . S
H454 C442 0.960 . S
H455 C442 0.962 . S
H456 C442 0.960 . S
H457 C443 0.961 . S
H458 C443 0.961 . S
H459 C443 0.961 . S
H460 C444 0.931 . S
H461 C449 0.930 . S
H462 C450 0.956 . S
H463 C450 0.961 . S
H464 C450 0.961 . S
H465 C451 0.958 . S
H466 C451 0.961 . S
H467 C451 0.960 . S
C468 C469 1.391 . S
C468 C470 1.394 . S
C468 H484 0.931 . S
C469 C468 1.391 . S
C469 C473 1.376 . S
C470 C468 1.394 . S
C470 C471 1.369 . S
C470 C474 1.531 . S
C471 C470 1.369 . S
C471 C472 1.410 . S
C471 C479 1.503 . S
C472 C471 1.410 . S
C472 C473 1.392 . S
C472 C475 1.511 . S
C473 C469 1.376 . S
C473 C472 1.392 . S
C473 H485 0.929 . S
C474 C470 1.531 . S
C474 H486 0.960 . S
C474 H487 0.962 . S
C474 H488 0.960 . S
C475 C472 1.511 . S
C475 H489 0.961 . S
C475 H490 0.961 . S
C475 H491 0.961 . S
C476 C477 1.370 . S
C476 C478 1.363 . S
C476 H492 0.931 . S
C477 C476 1.370 . S
C477 C481 1.408 . S
C478 C476 1.363 . S
C478 C479 1.370 . S
C478 C482 1.524 . S
C479 C471 1.503 . S
C479 C478 1.370 . S
C479 C480 1.403 . S
C480 C479 1.403 . S
C480 C481 1.404 . S
C480 C483 1.539 . S
C481 C477 1.408 . S
C481 C480 1.404 . S
C481 H493 0.930 . S
C482 C478 1.524 . S
C482 H494 0.956 . S
C482 H495 0.961 . S
C482 H496 0.961 . S
C483 C480 1.539 . S
C483 H497 0.958 . S
C483 H498 0.961 . S
C483 H499 0.960 . S
H484 C468 0.931 . S
H485 C473 0.929 . S
H486 C474 0.960 . S
H487 C474 0.962 . S
H488 C474 0.960 . S
H489 C475 0.961 . S
H490 C475 0.961 . S
H491 C475 0.961 . S
H492 C476 0.931 . S
H493 C481 0.930 . S
H494 C482 0.956 . S
H495 C482 0.961 . S
H496 C482 0.961 . S
H497 C483 0.958 . S
H498 C483 0.961 . S
H499 C483 0.960 . S
C500 C501 1.391 . S
C500 C502 1.394 . S
C500 H516 0.931 . S
C501 C500 1.391 . S
C501 C505 1.376 . S
C502 C500 1.394 . S
C502 C503 1.369 . S
C502 C506 1.531 . S
C503 C502 1.369 . S
C503 C504 1.410 . S
C503 C511 1.503 1_655 S
C504 C503 1.410 . S
C504 C505 1.392 . S
C504 C507 1.511 . S
C505 C501 1.376 . S
C505 C504 1.392 . S
C505 H517 0.929 . S
C506 C502 1.531 . S
C506 H518 0.960 1_655 S
C506 H519 0.962 . S
C506 H520 0.960 . S
C507 C504 1.511 . S
C507 H521 0.961 . S
C507 H522 0.961 . S
C507 H523 0.953 1_655 S
C508 C509 1.370 . S
C508 C510 1.363 . S
C508 H524 0.931 . S
C509 C508 1.370 . S
C509 C513 1.408 . S
C510 C508 1.363 . S
C510 C511 1.370 . S
C510 C514 1.524 1_455 S
C511 C503 1.503 1_455 S
C511 C510 1.370 . S
C511 C512 1.403 . S
C512 C511 1.403 . S
C512 C513 1.404 . S
C512 C515 1.539 . S
C513 C509 1.408 . S
C513 C512 1.404 . S
C513 H525 0.930 . S
C514 C510 1.524 1_655 S
C514 H526 0.956 . S
C514 H527 0.961 . S
C514 H528 0.961 . S
C515 C512 1.539 . S
C515 H529 0.958 . S
C515 H530 0.961 . S
C515 H531 0.960 . S
H516 C500 0.931 . S
H517 C505 0.929 . S
H518 C506 0.960 1_455 S
H519 C506 0.962 . S
H520 C506 0.960 . S
H521 C507 0.961 . S
H522 C507 0.961 . S
H523 C507 0.953 1_455 S
H524 C508 0.931 . S
H525 C513 0.930 . S
H526 C514 0.956 . S
H527 C514 0.961 . S
H528 C514 0.961 . S
H529 C515 0.958 . S
H530 C515 0.961 . S
H531 C515 0.960 . S
C532 C533 1.391 . S
C532 C534 1.394 . S
C532 H548 0.931 . S
C533 C532 1.391 . S
C533 C537 1.376 . S
C534 C532 1.394 . S
C534 C535 1.369 . S
C534 C538 1.531 1_545 S
C535 C534 1.369 . S
C535 C536 1.410 . S
C535 C543 1.503 1_545 S
C536 C535 1.410 . S
C536 C537 1.392 . S
C536 C539 1.511 . S
C537 C533 1.376 . S
C537 C536 1.392 . S
C537 H549 0.929 . S
C538 C534 1.531 1_565 S
C538 H550 0.960 . S
C538 H551 0.962 . S
C538 H552 0.960 . S
C539 C536 1.511 . S
C539 H553 0.961 . S
C539 H554 0.961 . S
C539 H555 0.961 . S
C540 C541 1.370 . S
C540 C542 1.363 . S
C540 H556 0.931 . S
C541 C540 1.370 . S
C541 C545 1.408 . S
C542 C540 1.363 . S
C542 C543 1.370 . S
C542 C546 1.522 1_565 S
C543 C535 1.503 1_565 S
C543 C542 1.370 . S
C543 C544 1.403 . S
C544 C543 1.403 . S
C544 C545 1.404 . S
C544 C547 1.539 . S
C545 C541 1.408 . S
C545 C544 1.404 . S
C545 H557 0.930 . S
C546 C542 1.522 1_545 S
C546 H558 0.950 1_545 S
C546 H559 0.973 . S
C546 H560 0.953 1_545 S
C547 C544 1.539 . S
C547 H561 0.958 . S
C547 H562 0.961 . S
C547 H563 0.960 . S
H548 C532 0.931 . S
H549 C537 0.929 . S
H550 C538 0.960 . S
H551 C538 0.962 . S
H552 C538 0.960 . S
H553 C539 0.961 . S
H554 C539 0.961 . S
H555 C539 0.961 . S
H556 C540 0.931 . S
H557 C545 0.930 . S
H558 C546 0.950 1_565 S
H559 C546 0.973 . S
H560 C546 0.953 1_565 S
H561 C547 0.958 . S
H562 C547 0.961 . S
H563 C547 0.960 . S
C564 C565 1.391 . S
C564 C566 1.394 . S
C564 H580 0.931 . S
C565 C564 1.391 . S
C565 C569 1.376 . S
C566 C564 1.394 . S
C566 C567 1.369 . S
C566 C570 1.531 . S
C567 C566 1.369 . S
C567 C568 1.410 . S
C567 C575 1.503 . S
C568 C567 1.410 . S
C568 C569 1.392 . S
C568 C571 1.511 . S
C569 C565 1.376 . S
C569 C568 1.392 . S
C569 H581 0.929 . S
C570 C566 1.531 . S
C570 H582 0.960 . S
C570 H583 0.962 . S
C570 H584 0.960 . S
C571 C568 1.511 . S
C571 H585 0.961 . S
C571 H586 0.961 . S
C571 H587 0.961 . S
C572 C573 1.370 . S
C572 C574 1.363 . S
C572 H588 0.931 . S
C573 C572 1.370 . S
C573 C577 1.408 . S
C574 C572 1.363 . S
C574 C575 1.370 . S
C574 C578 1.524 . S
C575 C567 1.503 . S
C575 C574 1.370 . S
C575 C576 1.403 . S
C576 C575 1.403 . S
C576 C577 1.404 . S
C576 C579 1.539 . S
C577 C573 1.408 . S
C577 C576 1.404 . S
C577 H589 0.930 . S
C578 C574 1.524 . S
C578 H590 0.956 . S
C578 H591 0.961 . S
C578 H592 0.961 . S
C579 C576 1.539 . S
C579 H593 0.958 . S
C579 H594 0.961 . S
C579 H595 0.960 . S
H580 C564 0.931 . S
H581 C569 0.929 . S
H582 C570 0.960 . S
H583 C570 0.962 . S
H584 C570 0.960 . S
H585 C571 0.961 . S
H586 C571 0.961 . S
H587 C571 0.961 . S
H588 C572 0.931 . S
H589 C577 0.930 . S
H590 C578 0.956 . S
H591 C578 0.961 . S
H592 C578 0.961 . S
H593 C579 0.958 . S
H594 C579 0.961 . S
H595 C579 0.960 . S
C596 C597 1.391 . S
C596 C598 1.394 . S
C596 H612 0.931 . S
C597 C596 1.391 . S
C597 C601 1.376 . S
C598 C596 1.394 . S
C598 C599 1.369 . S
C598 C602 1.531 . S
C599 C598 1.369 . S
C599 C600 1.410 . S
C599 C607 1.503 1_655 S
C600 C599 1.410 . S
C600 C601 1.392 . S
C600 C603 1.511 . S
C601 C597 1.376 . S
C601 C600 1.392 . S
C601 H613 0.929 . S
C602 C598 1.531 . S
C602 H614 0.960 . S
C602 H615 0.962 . S
C602 H616 0.960 . S
C603 C600 1.511 . S
C603 H617 0.961 . S
C603 H618 0.961 1_655 S
C603 H619 0.961 . S
C604 C605 1.370 . S
C604 C606 1.363 . S
C604 H620 0.931 . S
C605 C604 1.370 . S
C605 C609 1.408 . S
C606 C604 1.363 . S
C606 C607 1.370 . S
C606 C610 1.524 . S
C607 C599 1.503 1_455 S
C607 C606 1.370 . S
C607 C608 1.403 . S
C608 C607 1.403 . S
C608 C609 1.404 . S
C608 C611 1.539 1_455 S
C609 C605 1.408 . S
C609 C608 1.404 . S
C609 H621 0.930 . S
C610 C606 1.524 . S
C610 H622 0.956 . S
C610 H623 0.961 . S
C610 H624 0.961 . S
C611 C608 1.539 1_655 S
C611 H625 0.958 . S
C611 H626 0.961 . S
C611 H627 0.960 . S
H612 C596 0.931 . S
H613 C601 0.929 . S
H614 C602 0.960 . S
H615 C602 0.962 . S
H616 C602 0.960 . S
H617 C603 0.961 . S
H618 C603 0.961 1_455 S
H619 C603 0.961 . S
H620 C604 0.931 . S
H621 C609 0.930 . S
H622 C610 0.956 . S
H623 C610 0.961 . S
H624 C610 0.961 . S
H625 C611 0.958 . S
H626 C611 0.961 . S
H627 C611 0.960 . S
C628 C629 1.391 . S
C628 C630 1.394 . S
C628 H644 0.931 . S
C629 C628 1.391 . S
C629 C633 1.376 . S
C630 C628 1.394 . S
C630 C631 1.369 . S
C630 C634 1.544 . S
C631 C630 1.369 . S
C631 C632 1.410 . S
C631 C639 1.503 1_564 S
C632 C631 1.410 . S
C632 C633 1.392 . S
C632 C635 1.511 1_565 S
C633 C629 1.376 . S
C633 C632 1.392 . S
C633 H645 0.929 . S
C634 C630 1.544 . S
C634 H646 0.959 1_564 S
C634 H647 0.936 1_554 S
C634 H648 0.975 . S
C635 C632 1.511 1_545 S
C635 H649 0.961 1_545 S
C635 H650 0.961 . S
C635 H651 0.961 . S
C636 C637 1.370 . S
C636 C638 1.363 . S
C636 H652 0.931 . S
C637 C636 1.370 . S
C637 C641 1.408 . S
C638 C636 1.363 . S
C638 C639 1.370 . S
C638 C642 1.524 1_545 S
C639 C631 1.503 1_546 S
C639 C638 1.370 . S
C639 C640 1.403 1_556 S
C640 C639 1.403 1_554 S
C640 C641 1.404 1_554 S
C640 C643 1.539 . S
C641 C637 1.408 . S
C641 C640 1.404 1_556 S
C641 H653 0.930 . S
C642 C638 1.524 1_565 S
C642 H654 0.956 . S
C642 H655 0.961 . S
C642 H656 0.961 . S
C643 C640 1.539 . S
C643 H657 0.958 . S
C643 H658 0.961 . S
C643 H659 0.960 . S
H644 C628 0.931 . S
H645 C633 0.929 . S
H646 C634 0.959 1_546 S
H647 C634 0.936 1_556 S
H648 C634 0.975 . S
H649 C635 0.961 1_565 S
H650 C635 0.961 . S
H651 C635 0.961 . S
H652 C636 0.931 . S
H653 C641 0.930 . S
H654 C642 0.956 . S
H655 C642 0.961 . S
H656 C642 0.961 . S
H657 C643 0.958 . S
H658 C643 0.961 . S
H659 C643 0.960 . S
C660 C661 1.391 . S
C660 C662 1.394 . S
C660 H676 0.931 . S
C661 C660 1.391 . S
C661 C665 1.376 . S
C662 C660 1.394 . S
C662 C663 1.369 . S
C662 C666 1.531 . S
C663 C662 1.369 . S
C663 C664 1.410 . S
C663 C671 1.503 . S
C664 C663 1.410 . S
C664 C665 1.392 . S
C664 C667 1.511 1_554 S
C665 C661 1.376 . S
C665 C664 1.392 . S
C665 H677 0.929 . S
C666 C662 1.531 . S
C666 H678 0.960 . S
C666 H679 0.962 . S
C666 H680 0.960 . S
C667 C664 1.511 1_556 S
C667 H681 0.961 . S
C667 H682 0.961 . S
C667 H683 0.961 . S
C668 C669 1.370 . S
C668 C670 1.363 . S
C668 H684 0.931 . S
C669 C668 1.370 . S
C669 C673 1.408 . S
C670 C668 1.363 . S
C670 C671 1.370 1_556 S
C670 C674 1.524 1_556 S
C671 C663 1.503 . S
C671 C670 1.370 1_554 S
C671 C672 1.403 . S
C672 C671 1.403 . S
C672 C673 1.404 1_554 S
C672 C675 1.539 . S
C673 C669 1.408 . S
C673 C672 1.404 1_556 S
C673 H685 0.930 . S
C674 C670 1.524 1_554 S
C674 H686 0.956 . S
C674 H687 0.961 1_554 S
C674 H688 0.961 1_554 S
C675 C672 1.539 . S
C675 H689 0.958 . S
C675 H690 0.935 1_554 S
C675 H691 0.960 . S
H676 C660 0.931 . S
H677 C665 0.929 . S
H678 C666 0.960 . S
H679 C666 0.962 . S
H680 C666 0.960 . S
H681 C667 0.961 . S
H682 C667 0.961 . S
H683 C667 0.961 . S
H684 C668 0.931 . S
H685 C673 0.930 . S
H686 C674 0.956 . S
H687 C674 0.961 1_556 S
H688 C674 0.961 1_556 S
H689 C675 0.958 . S
H690 C675 0.935 1_556 S
H691 C675 0.960 . S
C692 C693 1.391 . S
C692 C694 1.394 . S
C692 H708 0.931 . S
C693 C692 1.391 . S
C693 C697 1.376 . S
C694 C692 1.394 . S
C694 C695 1.369 . S
C694 C698 1.531 . S
C695 C694 1.369 . S
C695 C696 1.410 . S
C695 C703 1.503 . S
C696 C695 1.410 . S
C696 C697 1.392 . S
C696 C699 1.511 . S
C697 C693 1.376 . S
C697 C696 1.392 . S
C697 H709 0.929 . S
C698 C694 1.531 . S
C698 H710 0.960 . S
C698 H711 0.962 . S
C698 H712 0.960 . S
C699 C696 1.511 . S
C699 H713 0.961 . S
C699 H714 0.961 . S
C699 H715 0.961 . S
C700 C701 1.370 . S
C700 C702 1.363 1_455 S
C700 H716 0.931 . S
C701 C700 1.370 . S
C701 C705 1.408 . S
C702 C700 1.363 1_655 S
C702 C703 1.370 . S
C702 C706 1.524 . S
C703 C695 1.503 . S
C703 C702 1.370 . S
C703 C704 1.403 . S
C704 C703 1.403 . S
C704 C705 1.404 1_655 S
C704 C707 1.539 . S
C705 C701 1.408 . S
C705 C704 1.404 1_455 S
C705 H717 0.930 . S
C706 C702 1.524 . S
C706 H718 0.956 . S
C706 H719 0.961 . S
C706 H720 0.961 . S
C707 C704 1.539 . S
C707 H721 0.958 . S
C707 H722 0.961 . S
C707 H723 0.960 . S
H708 C692 0.931 . S
H709 C697 0.929 . S
H710 C698 0.960 . S
H711 C698 0.962 . S
H712 C698 0.960 . S
H713 C699 0.961 . S
H714 C699 0.961 . S
H715 C699 0.961 . S
H716 C700 0.931 . S
H717 C705 0.930 . S
H718 C706 0.956 . S
H719 C706 0.961 . S
H720 C706 0.961 . S
H721 C707 0.958 . S
H722 C707 0.961 . S
H723 C707 0.960 . S
C724 C725 1.391 . S
C724 C726 1.394 1_545 S
C724 H740 0.931 . S
C725 C724 1.391 . S
C725 C729 1.376 . S
C726 C724 1.394 1_565 S
C726 C727 1.369 . S
C726 C730 1.531 . S
C727 C726 1.369 . S
C727 C728 1.410 . S
C727 C735 1.503 . S
C728 C727 1.410 . S
C728 C729 1.392 1_565 S
C728 C731 1.511 . S
C729 C725 1.376 . S
C729 C728 1.392 1_545 S
C729 H741 0.929 . S
C730 C726 1.531 . S
C730 H742 0.960 . S
C730 H743 0.962 . S
C730 H744 0.960 . S
C731 C728 1.511 . S
C731 H745 0.961 . S
C731 H746 0.961 . S
C731 H747 0.961 . S
C732 C733 1.370 . S
C732 C734 1.363 . S
C732 H748 0.931 . S
C733 C732 1.370 . S
C733 C737 1.408 . S
C734 C732 1.363 . S
C734 C735 1.370 . S
C734 C738 1.524 . S
C735 C727 1.503 . S
C735 C734 1.370 . S
C735 C736 1.403 . S
C736 C735 1.403 . S
C736 C737 1.404 . S
C736 C739 1.539 . S
C737 C733 1.408 . S
C737 C736 1.404 . S
C737 H749 0.930 . S
C738 C734 1.524 . S
C738 H750 0.956 . S
C738 H751 0.961 . S
C738 H752 0.961 . S
C739 C736 1.539 . S
C739 H753 0.958 . S
C739 H754 0.961 . S
C739 H755 0.960 . S
H740 C724 0.931 . S
H741 C729 0.929 . S
H742 C730 0.960 . S
H743 C730 0.962 . S
H744 C730 0.960 . S
H745 C731 0.961 . S
H746 C731 0.961 . S
H747 C731 0.961 . S
H748 C732 0.931 . S
H749 C737 0.930 . S
H750 C738 0.956 . S
H751 C738 0.961 . S
H752 C738 0.961 . S
H753 C739 0.958 . S
H754 C739 0.961 . S
H755 C739 0.960 . S
C756 C757 1.391 . S
C756 C758 1.394 . S
C756 H772 0.931 . S
C757 C756 1.391 . S
C757 C761 1.376 . S
C758 C756 1.394 . S
C758 C759 1.369 . S
C758 C762 1.531 . S
C759 C758 1.369 . S
C759 C760 1.410 . S
C759 C767 1.503 . S
C760 C759 1.410 . S
C760 C761 1.392 . S
C760 C763 1.511 . S
C761 C757 1.376 . S
C761 C760 1.392 . S
C761 H773 0.929 . S
C762 C758 1.531 . S
C762 H774 0.960 . S
C762 H775 0.962 . S
C762 H776 0.960 . S
C763 C760 1.511 . S
C763 H777 0.961 . S
C763 H778 0.961 . S
C763 H779 0.961 . S
C764 C765 1.370 . S
C764 C766 1.363 . S
C764 H780 0.931 . S
C765 C764 1.370 . S
C765 C769 1.408 . S
C766 C764 1.363 . S
C766 C767 1.370 . S
C766 C770 1.524 . S
C767 C759 1.503 . S
C767 C766 1.370 . S
C767 C768 1.403 . S
C768 C767 1.403 . S
C768 C769 1.404 . S
C768 C771 1.539 . S
C769 C765 1.408 . S
C769 C768 1.404 . S
C769 H781 0.930 . S
C770 C766 1.524 . S
C770 H782 0.956 . S
C770 H783 0.961 . S
C770 H784 0.961 . S
C771 C768 1.539 . S
C771 H785 0.958 . S
C771 H786 0.961 . S
C771 H787 0.960 . S
H772 C756 0.931 . S
H773 C761 0.929 . S
H774 C762 0.960 . S
H775 C762 0.962 . S
H776 C762 0.960 . S
H777 C763 0.961 . S
H778 C763 0.961 . S
H779 C763 0.961 . S
H780 C764 0.931 . S
H781 C769 0.930 . S
H782 C770 0.956 . S
H783 C770 0.961 . S
H784 C770 0.961 . S
H785 C771 0.958 . S
H786 C771 0.961 . S
H787 C771 0.960 . S
C788 C789 1.391 . S
C788 C790 1.394 . S
C788 H804 0.931 . S
C789 C788 1.391 . S
C789 C793 1.376 . S
C790 C788 1.394 . S
C790 C791 1.369 . S
C790 C794 1.531 . S
C791 C790 1.369 . S
C791 C792 1.410 . S
C791 C799 1.503 . S
C792 C791 1.410 . S
C792 C793 1.392 . S
C792 C795 1.511 . S
C793 C789 1.376 . S
C793 C792 1.392 . S
C793 H805 0.929 . S
C794 C790 1.531 . S
C794 H806 0.960 . S
C794 H807 0.962 . S
C794 H808 0.960 . S
C795 C792 1.511 . S
C795 H809 0.961 . S
C795 H810 0.961 . S
C795 H811 0.961 . S
C796 C797 1.370 1_455 S
C796 C798 1.363 . S
C796 H812 0.931 . S
C797 C796 1.370 1_655 S
C797 C801 1.408 . S
C798 C796 1.363 . S
C798 C799 1.370 . S
C798 C802 1.524 . S
C799 C791 1.503 . S
C799 C798 1.370 . S
C799 C800 1.403 . S
C800 C799 1.403 . S
C800 C801 1.404 1_455 S
C800 C803 1.539 . S
C801 C797 1.408 . S
C801 C800 1.404 1_655 S
C801 H813 0.930 . S
C802 C798 1.524 . S
C802 H814 0.956 . S
C802 H815 0.961 . S
C802 H816 0.961 . S
C803 C800 1.539 . S
C803 H817 0.958 . S
C803 H818 0.961 1_455 S
C803 H819 0.960 . S
H804 C788 0.931 . S
H805 C793 0.929 . S
H806 C794 0.960 . S
H807 C794 0.962 . S
H808 C794 0.960 . S
H809 C795 0.961 . S
H810 C795 0.961 . S
H811 C795 0.961 . S
H812 C796 0.931 . S
H813 C801 0.930 . S
H814 C802 0.956 . S
H815 C802 0.961 . S
H816 C802 0.961 . S
H817 C803 0.958 . S
H818 C803 0.961 1_655 S
H819 C803 0.960 . S
C820 C821 1.391 . S
C820 C822 1.394 . S
C820 H836 0.931 . S
C821 C820 1.391 . S
C821 C825 1.376 . S
C822 C820 1.394 . S
C822 C823 1.369 . S
C822 C826 1.531 . S
C823 C822 1.369 . S
C823 C824 1.410 . S
C823 C831 1.503 . S
C824 C823 1.410 . S
C824 C825 1.392 . S
C824 C827 1.511 . S
C825 C821 1.376 . S
C825 C824 1.392 . S
C825 H837 0.929 . S
C826 C822 1.531 . S
C826 H838 0.960 . S
C826 H839 0.962 . S
C826 H840 0.960 . S
C827 C824 1.511 . S
C827 H841 0.961 . S
C827 H842 0.961 . S
C827 H843 0.961 . S
C828 C829 1.370 . S
C828 C830 1.363 1_565 S
C828 H844 0.931 . S
C829 C828 1.370 . S
C829 C833 1.408 1_565 S
C830 C828 1.363 1_545 S
C830 C831 1.370 . S
C830 C834 1.524 . S
C831 C823 1.503 . S
C831 C830 1.370 . S
C831 C832 1.403 . S
C832 C831 1.403 . S
C832 C833 1.404 . S
C832 C835 1.539 . S
C833 C829 1.408 1_545 S
C833 C832 1.404 . S
C833 H845 0.930 . S
C834 C830 1.524 . S
C834 H846 0.956 . S
C834 H847 0.961 . S
C834 H848 0.961 1_545 S
C835 C832 1.539 . S
C835 H849 0.958 . S
C835 H850 0.961 . S
C835 H851 0.960 . S
H836 C820 0.931 . S
H837 C825 0.929 . S
H838 C826 0.960 . S
H839 C826 0.962 . S
H840 C826 0.960 . S
H841 C827 0.961 . S
H842 C827 0.961 . S
H843 C827 0.961 . S
H844 C828 0.931 . S
H845 C833 0.930 . S
H846 C834 0.956 . S
H847 C834 0.961 . S
H848 C834 0.961 1_565 S
H849 C835 0.958 . S
H850 C835 0.961 . S
H851 C835 0.960 . S
C852 C853 1.391 . S
C852 C854 1.394 . S
C852 H868 0.931 . S
C853 C852 1.391 . S
C853 C857 1.376 . S
C854 C852 1.394 . S
C854 C855 1.369 . S
C854 C858 1.531 . S
C855 C854 1.369 . S
C855 C856 1.410 . S
C855 C863 1.503 . S
C856 C855 1.410 . S
C856 C857 1.392 . S
C856 C859 1.511 . S
C857 C853 1.376 . S
C857 C856 1.392 . S
C857 H869 0.929 . S
C858 C854 1.531 . S
C858 H870 0.960 . S
C858 H871 0.962 . S
C858 H872 0.960 . S
C859 C856 1.511 . S
C859 H873 0.961 . S
C859 H874 0.961 . S
C859 H875 0.961 . S
C860 C861 1.370 . S
C860 C862 1.363 . S
C860 H876 0.931 . S
C861 C860 1.370 . S
C861 C865 1.408 . S
C862 C860 1.363 . S
C862 C863 1.370 . S
C862 C866 1.524 . S
C863 C855 1.503 . S
C863 C862 1.370 . S
C863 C864 1.403 . S
C864 C863 1.403 . S
C864 C865 1.404 . S
C864 C867 1.539 . S
C865 C861 1.408 . S
C865 C864 1.404 . S
C865 H877 0.930 . S
C866 C862 1.524 . S
C866 H878 0.956 . S
C866 H879 0.961 . S
C866 H880 0.961 . S
C867 C864 1.539 . S
C867 H881 0.958 . S
C867 H882 0.961 . S
C867 H883 0.960 . S
H868 C852 0.931 . S
H869 C857 0.929 . S
H870 C858 0.960 . S
H871 C858 0.962 . S
H872 C858 0.960 . S
H873 C859 0.961 . S
H874 C859 0.961 . S
H875 C859 0.961 . S
H876 C860 0.931 . S
H877 C865 0.930 . S
H878 C866 0.956 . S
H879 C866 0.961 . S
H880 C866 0.961 . S
H881 C867 0.958 . S
H882 C867 0.961 . S
H883 C867 0.960 . S
C884 C885 1.391 . S
C884 C886 1.394 . S
C884 H900 0.931 . S
C885 C884 1.391 . S
C885 C889 1.376 . S
C886 C884 1.394 . S
C886 C887 1.369 . S
C886 C890 1.531 . S
C887 C886 1.369 . S
C887 C888 1.410 . S
C887 C895 1.503 . S
C888 C887 1.410 . S
C888 C889 1.392 . S
C888 C891 1.511 1_556 S
C889 C885 1.376 . S
C889 C888 1.392 . S
C889 H901 0.929 . S
C890 C886 1.531 . S
C890 H902 0.960 . S
C890 H903 0.962 . S
C890 H904 0.960 . S
C891 C888 1.511 1_554 S
C891 H905 0.961 . S
C891 H906 0.961 . S
C891 H907 0.961 . S
C892 C893 1.370 1_655 S
C892 C894 1.363 . S
C892 H908 0.931 . S
C893 C892 1.370 1_455 S
C893 C897 1.408 . S
C894 C892 1.363 . S
C894 C895 1.370 1_554 S
C894 C898 1.524 . S
C895 C887 1.503 . S
C895 C894 1.370 1_556 S
C895 C896 1.403 . S
C896 C895 1.403 . S
C896 C897 1.404 1_656 S
C896 C899 1.539 . S
C897 C893 1.408 . S
C897 C896 1.404 1_454 S
C897 H909 0.930 . S
C898 C894 1.524 . S
C898 H910 0.956 1_554 S
C898 H911 0.961 . S
C898 H912 0.961 . S
C899 C896 1.539 . S
C899 H913 0.958 1_655 S
C899 H914 0.961 1_655 S
C899 H915 0.960 . S
H900 C884 0.931 . S
H901 C889 0.929 . S
H902 C890 0.960 . S
H903 C890 0.962 . S
H904 C890 0.960 . S
H905 C891 0.961 . S
H906 C891 0.961 . S
H907 C891 0.961 . S
H908 C892 0.931 . S
H909 C897 0.930 . S
H910 C898 0.956 1_556 S
H911 C898 0.961 . S
H912 C898 0.961 . S
H913 C899 0.958 1_455 S
H914 C899 0.961 1_455 S
H915 C899 0.960 . S
C916 C917 1.391 . S
C916 C918 1.394 . S
C916 H932 0.931 . S
C917 C916 1.391 . S
C917 C921 1.376 . S
C918 C916 1.394 . S
C918 C919 1.369 . S
C918 C922 1.531 . S
C919 C918 1.369 . S
C919 C920 1.410 . S
C919 C927 1.503 . S
C920 C919 1.410 . S
C920 C921 1.392 . S
C920 C923 1.511 . S
C921 C917 1.376 . S
C921 C920 1.392 . S
C921 H933 0.929 . S
C922 C918 1.531 . S
C922 H934 0.960 . S
C922 H935 0.962 . S
C922 H936 0.960 . S
C923 C920 1.511 . S
C923 H937 0.961 . S
C923 H938 0.961 . S
C923 H939 0.961 . S
C924 C925 1.370 1_565 S
C924 C926 1.363 . S
C924 H940 0.931 . S
C925 C924 1.370 1_545 S
C925 C929 1.408 . S
C926 C924 1.363 . S
C926 C927 1.370 . S
C926 C930 1.524 . S
C927 C919 1.503 . S
C927 C926 1.370 . S
C927 C928 1.403 1_565 S
C928 C927 1.403 1_545 S
C928 C929 1.404 . S
C928 C931 1.539 . S
C929 C925 1.408 . S
C929 C928 1.404 . S
C929 H941 0.930 . S
C930 C926 1.524 . S
C930 H942 0.956 . S
C930 H943 0.961 . S
C930 H944 0.961 . S
C931 C928 1.539 . S
C931 H945 0.958 . S
C931 H946 0.961 . S
C931 H947 0.960 1_545 S
H932 C916 0.931 . S
H933 C921 0.929 . S
H934 C922 0.960 . S
H935 C922 0.962 . S
H936 C922 0.960 . S
H937 C923 0.961 . S
H938 C923 0.961 . S
H939 C923 0.961 . S
H940 C924 0.931 . S
H941 C929 0.930 . S
H942 C930 0.956 . S
H943 C930 0.961 . S
H944 C930 0.961 . S
H945 C931 0.958 . S
H946 C931 0.961 . S
H947 C931 0.960 1_565 S
C948 C949 1.391 . S
C948 C950 1.394 . S
C948 H964 0.931 . S
C949 C948 1.391 . S
C949 C953 1.376 . S
C950 C948 1.394 . S
C950 C951 1.369 . S
C950 C954 1.531 . S
C951 C950 1.369 . S
C951 C952 1.410 . S
C951 C959 1.503 . S
C952 C951 1.410 . S
C952 C953 1.392 . S
C952 C955 1.511 . S
C953 C949 1.376 . S
C953 C952 1.392 . S
C953 H965 0.929 . S
C954 C950 1.531 . S
C954 H966 0.960 . S
C954 H967 0.962 . S
C954 H968 0.960 . S
C955 C952 1.511 . S
C955 H969 0.961 . S
C955 H970 0.961 . S
C955 H971 0.961 . S
C956 C957 1.370 . S
C956 C958 1.363 . S
C956 H972 0.931 . S
C957 C956 1.370 . S
C957 C961 1.408 . S
C958 C956 1.363 . S
C958 C959 1.370 . S
C958 C962 1.524 . S
C959 C951 1.503 . S
C959 C958 1.370 . S
C959 C960 1.403 . S
C960 C959 1.403 . S
C960 C961 1.404 . S
C960 C963 1.539 . S
C961 C957 1.408 . S
C961 C960 1.404 . S
C961 H973 0.930 . S
C962 C958 1.524 . S
C962 H974 0.956 . S
C962 H975 0.961 . S
C962 H976 0.961 . S
C963 C960 1.539 . S
C963 H977 0.958 . S
C963 H978 0.961 . S
C963 H979 0.960 . S
H964 C948 0.931 . S
H965 C953 0.929 . S
H966 C954 0.960 . S
H967 C954 0.962 . S
H968 C954 0.960 . S
H969 C955 0.961 . S
H970 C955 0.961 . S
H971 C955 0.961 . S
H972 C956 0.931 . S
H973 C961 0.930 . S
H974 C962 0.956 . S
H975 C962 0.961 . S
H976 C962 0.961 . S
H977 C963 0.958 . S
H978 C963 0.961 . S
H979 C963 0.960 . S
C980 C981 1.391 . S
C980 C982 1.394 . S
C980 H996 0.931 . S
C981 C980 1.391 . S
C981 C985 1.376 . S
C982 C980 1.394 . S
C982 C983 1.369 . S
C982 C986 1.531 . S
C983 C982 1.369 . S
C983 C984 1.410 . S
C983 C991 1.503 . S
C984 C983 1.410 . S
C984 C985 1.392 . S
C984 C987 1.511 . S
C985 C981 1.376 . S
C985 C984 1.392 . S
C985 H997 0.929 . S
C986 C982 1.531 . S
C986 H998 0.960 . S
C986 H999 0.962 . S
C986 H1000 0.960 . S
C987 C984 1.511 . S
C987 H1001 0.961 . S
C987 H1002 0.961 . S
C987 H1003 0.961 . S
C988 C989 1.370 . S
C988 C990 1.363 1_655 S
C988 H1004 0.931 . S
C989 C988 1.370 . S
C989 C993 1.408 1_655 S
C990 C988 1.363 1_455 S
C990 C991 1.370 . S
C990 C994 1.524 . S
C991 C983 1.503 . S
C991 C990 1.370 . S
C991 C992 1.403 . S
C992 C991 1.403 . S
C992 C993 1.404 . S
C992 C995 1.539 . S
C993 C989 1.408 1_455 S
C993 C992 1.404 . S
C993 H1005 0.930 . S
C994 C990 1.524 . S
C994 H1006 0.956 . S
C994 H1007 0.961 . S
C994 H1008 0.961 1_455 S
C995 C992 1.539 . S
C995 H1009 0.958 . S
C995 H1010 0.961 . S
C995 H1011 0.960 . S
H996 C980 0.931 . S
H997 C985 0.929 . S
H998 C986 0.960 . S
H999 C986 0.962 . S
H1000 C986 0.960 . S
H1001 C987 0.961 . S
H1002 C987 0.961 . S
H1003 C987 0.961 . S
H1004 C988 0.931 . S
H1005 C993 0.930 . S
H1006 C994 0.956 . S
H1007 C994 0.961 . S
H1008 C994 0.961 1_655 S
H1009 C995 0.958 . S
H1010 C995 0.961 . S
H1011 C995 0.960 . S
C1012 C1013 1.391 . S
C1012 C1014 1.393 . S
C1012 H1028 0.931 . S
C1013 C1012 1.391 . S
C1013 C1017 1.376 1_565 S
C1014 C1012 1.393 . S
C1014 C1015 1.370 1_565 S
C1014 C1018 1.530 . S
C1015 C1014 1.370 1_545 S
C1015 C1016 1.410 . S
C1015 C1023 1.503 . S
C1016 C1015 1.410 . S
C1016 C1017 1.392 . S
C1016 C1019 1.511 . S
C1017 C1013 1.376 1_545 S
C1017 C1016 1.392 . S
C1017 H1029 0.929 . S
C1018 C1014 1.530 . S
C1018 H1030 0.960 1_565 S
C1018 H1031 0.962 . S
C1018 H1032 0.960 . S
C1019 C1016 1.511 . S
C1019 H1033 0.961 . S
C1019 H1034 0.961 . S
C1019 H1035 0.961 . S
C1020 C1021 1.370 . S
C1020 C1022 1.363 . S
C1020 H1036 0.931 . S
C1021 C1020 1.370 . S
C1021 C1025 1.408 . S
C1022 C1020 1.363 . S
C1022 C1023 1.370 . S
C1022 C1026 1.524 . S
C1023 C1015 1.503 . S
C1023 C1022 1.370 . S
C1023 C1024 1.403 . S
C1024 C1023 1.403 . S
C1024 C1025 1.404 . S
C1024 C1027 1.539 . S
C1025 C1021 1.408 . S
C1025 C1024 1.404 . S
C1025 H1037 0.930 . S
C1026 C1022 1.524 . S
C1026 H1038 0.956 . S
C1026 H1039 0.961 . S
C1026 H1040 0.961 . S
C1027 C1024 1.539 . S
C1027 H1041 0.958 . S
C1027 H1042 0.961 . S
C1027 H1043 0.960 . S
H1028 C1012 0.931 . S
H1029 C1017 0.929 . S
H1030 C1018 0.960 1_545 S
H1031 C1018 0.962 . S
H1032 C1018 0.960 . S
H1033 C1019 0.961 . S
H1034 C1019 0.961 . S
H1035 C1019 0.961 . S
H1036 C1020 0.931 . S
H1037 C1025 0.930 . S
H1038 C1026 0.956 . S
H1039 C1026 0.961 . S
H1040 C1026 0.961 . S
H1041 C1027 0.958 . S
H1042 C1027 0.961 . S
H1043 C1027 0.960 . S
C277 N196 1.666 . S
C285 N12 1.676 . S
C309 N35 1.668 . S
C317 N219 1.676 . S
C341 N58 1.662 . S
C349 N242 1.675 . S
C373 N81 1.671 . S
C381 N265 1.677 . S
C405 N150 1.697 . S
C413 N104 1.693 . S
C437 N127 1.677 . S
C445 N173 1.687 . S
C469 N209 1.272 . S
C477 N2 1.221 . S
C501 N25 1.270 . S
C509 N232 1.208 . S
C533 N255 1.223 . S
C541 N48 1.217 . S
C565 N71 1.175 . S
C573 N140 1.248 . S
C597 N163 1.179 . S
C605 N94 1.250 . S
C629 N186 1.278 . S
C637 N117 1.211 . S
C661 C16 1.931 . S
C669 C122 1.921 . S
C693 C39 1.932 . S
C701 C7 1.921 . S
C725 C30 1.918 . S
C733 C62 1.951 . S
C757 C85 1.934 . S
C765 C53 1.923 . S
C789 C108 1.960 . S
C797 C76 1.937 . S
C821 C131 1.958 . S
C829 C99 1.934 . S
C853 C154 1.952 . S
C861 C168 1.933 . S
C885 C177 1.933 . S
C893 C191 1.923 . S
C917 C200 1.944 . S
C925 C214 1.929 . S
C949 C223 1.960 . S
C957 C237 1.935 . S
C981 C246 1.946 . S
C989 C260 1.927 . S
C1013 C145 1.948 . S
C1021 C269 1.962 . S
