# Generated by pormake.
# Topology vby, (6)-cn, num edge types: 1
# Building blocks:
#     Node 0, Type 0, BuildingBlock: BETDAH_clean_sbu_0, # of connection points: 6
#     Node 1, Type 0, BuildingBlock: BETDAH_clean_sbu_0, # of connection points: 6
#     Node 2, Type 0, BuildingBlock: BETDAH_clean_sbu_0, # of connection points: 6
#     Node 3, Type 0, BuildingBlock: BETDAH_clean_sbu_0, # of connection points: 6
#     Node 4, Type 0, BuildingBlock: BETDAH_clean_sbu_0, # of connection points: 6
#     Node 5, Type 0, BuildingBlock: BETDAH_clean_sbu_0, # of connection points: 6
#     Node 6, Type 0, BuildingBlock: BETDAH_clean_sbu_0, # of connection points: 6
#     Node 7, Type 0, BuildingBlock: BETDAH_clean_sbu_0, # of connection points: 6
#     Edge 8, Type (0, 0), BuildingBlock: EYOCIG_clean_linker_4, # of connection points: 2
#     Edge 9, Type (0, 0), BuildingBlock: EYOCIG_clean_linker_4, # of connection points: 2
#     Edge 10, Type (0, 0), BuildingBlock: EYOCIG_clean_linker_4, # of connection points: 2
#     Edge 11, Type (0, 0), BuildingBlock: EYOCIG_clean_linker_4, # of connection points: 2
#     Edge 12, Type (0, 0), BuildingBlock: EYOCIG_clean_linker_4, # of connection points: 2
#     Edge 13, Type (0, 0), BuildingBlock: EYOCIG_clean_linker_4, # of connection points: 2
#     Edge 14, Type (0, 0), BuildingBlock: EYOCIG_clean_linker_4, # of connection points: 2
#     Edge 15, Type (0, 0), BuildingBlock: EYOCIG_clean_linker_4, # of connection points: 2
#     Edge 16, Type (0, 0), BuildingBlock: EYOCIG_clean_linker_4, # of connection points: 2
#     Edge 17, Type (0, 0), BuildingBlock: EYOCIG_clean_linker_4, # of connection points: 2
#     Edge 18, Type (0, 0), BuildingBlock: EYOCIG_clean_linker_4, # of connection points: 2
#     Edge 19, Type (0, 0), BuildingBlock: EYOCIG_clean_linker_4, # of connection points: 2
#     Edge 20, Type (0, 0), BuildingBlock: EYOCIG_clean_linker_4, # of connection points: 2
#     Edge 21, Type (0, 0), BuildingBlock: EYOCIG_clean_linker_4, # of connection points: 2
#     Edge 22, Type (0, 0), BuildingBlock: EYOCIG_clean_linker_4, # of connection points: 2
#     Edge 23, Type (0, 0), BuildingBlock: EYOCIG_clean_linker_4, # of connection points: 2
#     Edge 24, Type (0, 0), BuildingBlock: EYOCIG_clean_linker_4, # of connection points: 2
#     Edge 25, Type (0, 0), BuildingBlock: EYOCIG_clean_linker_4, # of connection points: 2
#     Edge 26, Type (0, 0), BuildingBlock: EYOCIG_clean_linker_4, # of connection points: 2
#     Edge 27, Type (0, 0), BuildingBlock: EYOCIG_clean_linker_4, # of connection points: 2
#     Edge 28, Type (0, 0), BuildingBlock: EYOCIG_clean_linker_4, # of connection points: 2
#     Edge 29, Type (0, 0), BuildingBlock: EYOCIG_clean_linker_4, # of connection points: 2
#     Edge 30, Type (0, 0), BuildingBlock: EYOCIG_clean_linker_4, # of connection points: 2
#     Edge 31, Type (0, 0), BuildingBlock: EYOCIG_clean_linker_4, # of connection points: 2
# Relax obj value: 0.206
# Max RMSD: 0.224
# Mean RMSD: 0.224
data_MOF--net-vby--node1-BETDAH_clean_sbu_0--edge1-EYOCIG_clean_linker_4
_symmetry_space_group_name_H-M    P1
_symmetry_Int_Tables_number       1
_symmetry_cell_setting            triclinic
loop_
_symmetry_equiv_pos_as_xyz
'x, y, z'
_cell_length_a     12.312155
_cell_length_b     91.324138
_cell_length_c     22.827359
_cell_angle_alpha  90.010334
_cell_angle_beta   84.763288
_cell_angle_gamma 90.036251
loop_
_atom_site_label
_atom_site_type_symbol
_atom_site_fract_x
_atom_site_fract_y
_atom_site_fract_z
_atom_type_partial_charge
Ho0 Ho 0.08875 0.4071 0.01916 0.0
Ho1 Ho 0.08864 0.37459 0.01413 0.0
C2 C 0.85977 0.38994 0.02058 0.0
C3 C 0.05844 0.43494 0.01374 0.0
C4 C 1.04174 0.45094 0.01369 0.0
C5 C 1.02369 0.45844 0.96173 0.0
C6 C 1.01736 0.47375 0.96152 0.0
C7 C 1.02893 0.48167 0.01321 0.0
C8 C 1.04136 0.47421 0.06566 0.0
C9 C 0.04761 0.45895 0.06597 0.0
C10 C 0.09148 0.3937 0.12481 0.0
C11 C 0.3194 0.39228 0.00797 0.0
C12 C 0.11105 0.34679 0.03273 0.0
C13 C 0.17764 0.33329 0.02423 0.0
C14 C 0.22119 0.32688 0.07298 0.0
C15 C 0.25791 0.31236 0.07058 0.0
C16 C 0.25141 0.30403 0.01946 0.0
C17 C 0.21605 0.31069 0.96927 0.0
C18 C 0.17938 0.32521 0.97156 0.0
C19 C 0.07603 0.38733 0.90865 0.0
O20 O 0.91378 0.402 1.00539 0.0
O21 O 0.90972 0.37806 0.03688 0.0
O22 O 0.07978 0.42813 0.06151 0.0
O23 O 0.05554 0.42654 0.96742 0.0
O24 O 0.14971 0.40499 0.10852 0.0
O25 O 1.03386 0.38996 0.08452 0.0
O26 O 0.26707 0.37984 0.01953 0.0
O27 O 0.26819 0.40454 0.99746 0.0
O28 O 0.06711 0.35221 0.98749 0.0
O29 O 0.14009 0.35689 0.06889 0.0
O30 O 1.02872 0.37518 0.92471 0.0
O31 O 0.13647 0.39171 0.947 0.0
H32 H 1.01745 0.45253 0.92105 0.0
H33 H 1.00686 0.47941 0.92071 0.0
H34 H 0.04964 0.48019 0.10604 0.0
H35 H 0.06001 0.45348 0.10691 0.0
H36 H 0.22022 0.33275 0.11426 0.0
H37 H 0.28559 0.3074 0.1097 0.0
H38 H 0.21114 0.30443 0.92927 0.0
H39 H 0.14612 0.32976 0.9332 0.0
Ho40 Ho 0.99592 0.66073 0.02417 0.0
Ho41 Ho 0.99011 0.62799 0.02285 0.0
C42 C 0.76352 0.64406 0.03192 0.0
C43 C 0.97812 0.6886 1.00515 0.0
C44 C 0.91113 0.70207 0.01398 0.0
C45 C 0.86749 0.70856 0.96541 0.0
C46 C 0.83013 0.72305 0.9683 0.0
C47 C 0.83605 0.73127 0.01973 0.0
C48 C 0.8713 0.72453 0.06975 0.0
C49 C 0.90861 0.71003 0.06699 0.0
C50 C 1.0052 0.64846 0.13086 0.0
C51 C 0.22302 0.64451 0.01803 0.0
C52 C 0.99832 0.60006 0.04109 0.0
C53 C 0.04502 0.58531 0.03033 0.0
C54 C 0.06853 0.57693 0.07914 0.0
C55 C 0.08087 0.56175 0.07429 0.0
C56 C 0.06998 0.55479 0.02052 0.0
C57 C 0.05585 0.5632 0.97045 0.0
C58 C 0.04343 0.57841 0.97524 0.0
C59 C 0.99482 0.64059 0.91472 0.0
O60 O 0.81782 0.65606 0.01603 0.0
O61 O 0.81311 0.63214 0.04771 0.0
O62 O 1.02067 0.68307 0.05058 0.0
O63 O 0.94942 0.67858 0.96858 0.0
O64 O 0.0546 0.66038 0.11396 0.0
O65 O 0.94462 0.64405 0.09261 0.0
O66 O 0.16823 0.6324 0.03228 0.0
O67 O 0.1743 0.65659 1.00243 0.0
O68 O 0.94652 0.60608 0.9999 0.0
O69 O 0.04712 0.60958 0.07263 0.0
O70 O 0.94156 0.62884 0.93013 0.0
O71 O 0.04892 0.64463 0.95593 0.0
H72 H 0.86885 0.70277 0.92393 0.0
H73 H 0.80247 0.72807 0.9293 0.0
H74 H 0.87573 0.73071 0.11 0.0
H75 H 0.94173 0.70543 0.10527 0.0
H76 H 0.0692 0.58195 0.1221 0.0
H77 H 0.09224 0.55539 0.11332 0.0
H78 H 0.04799 0.55795 0.92847 0.0
H79 H 1.02527 0.58457 0.93678 0.0
Ho80 Ho 0.08797 0.661 0.51401 0.0
Ho81 Ho 0.08839 0.6287 0.51899 0.0
C82 C 0.31899 0.64343 0.50758 0.0
C83 C 0.11047 0.68878 0.53284 0.0
C84 C 0.17747 0.70222 0.52406 0.0
C85 C 0.22108 0.70866 0.57274 0.0
C86 C 0.25812 0.72316 0.57013 0.0
C87 C 0.25187 0.73142 0.51885 0.0
C88 C 0.21657 0.72473 0.46872 0.0
C89 C 0.17957 0.71022 0.47122 0.0
C90 C 0.07524 0.64842 0.40824 0.0
C91 C 0.85921 0.64569 0.52051 0.0
C92 C 0.05826 0.60089 0.51397 0.0
C93 C 1.04166 0.58492 0.51431 0.0
C94 C 1.02417 0.57731 0.4625 0.0
C95 C 1.01736 0.56201 0.4629 0.0
C96 C 1.02788 0.55426 0.51506 0.0
C97 C 1.04016 0.56183 0.56724 0.0
C98 C 0.04687 0.57705 0.56695 0.0
C99 C 0.09165 0.64208 0.62483 0.0
O100 O 0.26659 0.65585 0.51924 0.0
O101 O 0.26772 0.63118 0.49707 0.0
O102 O 0.06576 0.68339 0.48777 0.0
O103 O 0.14003 0.67867 0.56875 0.0
O104 O 1.02767 0.66051 0.4247 0.0
O105 O 0.13575 0.64397 0.44645 0.0
O106 O 0.91339 0.63367 0.50509 0.0
O107 O 0.90914 0.65755 0.53697 0.0
O108 O 0.07899 0.60776 0.5617 0.0
O109 O 0.05582 0.6092 0.4674 0.0
O110 O 0.15084 0.63093 0.60802 0.0
O111 O 1.03317 0.64572 0.58478 0.0
H112 H 0.21981 0.70283 0.61413 0.0
H113 H 0.28572 0.72816 0.6092 0.0
H114 H 0.21184 0.73095 0.42862 0.0
H115 H 0.14629 0.70564 0.43292 0.0
H116 H 1.01855 0.58313 0.42156 0.0
H117 H 1.00706 0.55624 0.4223 0.0
H118 H 0.04768 0.55595 0.60792 0.0
H119 H 0.05894 0.58262 0.60776 0.0
Ho120 Ho 0.99664 0.40694 0.52055 0.0
Ho121 Ho 0.99696 0.37459 0.52555 0.0
C122 C 0.22579 0.38991 0.51885 0.0
C123 C 1.02715 0.43473 0.52603 0.0
C124 C 0.04396 0.4507 0.52594 0.0
C125 C 0.06196 0.45824 0.57782 0.0
C126 C 0.06913 0.47354 0.57766 0.0
C127 C 0.05846 0.48135 0.52567 0.0
C128 C 0.04567 0.47385 0.4734 0.0
C129 C 1.0386 0.45863 0.47346 0.0
C130 C 0.9937 0.39362 0.41477 0.0
C131 C 0.76603 0.3922 0.53169 0.0
C132 C 0.97462 0.3468 0.50714 0.0
C133 C 0.90763 0.33335 0.51591 0.0
C134 C 0.86388 0.32691 0.46725 0.0
C135 C 0.82687 0.31241 0.46988 0.0
C136 C 0.83328 0.30415 0.52113 0.0
C137 C 0.86874 0.31083 0.57123 0.0
C138 C 0.90571 0.32534 0.56871 0.0
C139 C 1.00972 0.38729 0.63113 0.0
O140 O 0.17169 0.40194 0.53427 0.0
O141 O 0.17578 0.37804 0.50248 0.0
O142 O 1.00587 0.42793 0.47823 0.0
O143 O 1.02981 0.42637 0.57242 0.0
O144 O 0.93505 0.40483 0.43133 0.0
O145 O 0.05166 0.38988 0.45491 0.0
O146 O 0.81843 0.37977 0.52009 0.0
O147 O 0.81726 0.40444 0.54227 0.0
O148 O 1.0187 0.35224 0.55231 0.0
O149 O 0.94555 0.35687 0.47091 0.0
O150 O 0.0577 0.37522 0.6148 0.0
O151 O 0.94888 0.39164 0.59294 0.0
H152 H 0.06774 0.45237 0.61865 0.0
H153 H 0.07983 0.47927 0.61832 0.0
H154 H 1.03803 0.47978 0.43285 0.0
H155 H 1.02617 0.45311 0.43259 0.0
H156 H 0.86501 0.33275 0.42588 0.0
H157 H 0.79913 0.30742 0.43084 0.0
H158 H 0.87361 0.3046 0.61131 0.0
H159 H 0.93912 0.32992 0.60699 0.0
Ho160 Ho 0.58891 0.9071 0.01936 0.0
Ho161 Ho 0.58874 0.87459 0.01436 0.0
C162 C 0.35991 0.88994 0.0208 0.0
C163 C 0.5589 0.93494 0.0139 0.0
C164 C 0.54235 0.95095 0.01381 0.0
C165 C 0.52484 0.95845 0.96178 0.0
C166 C 0.51886 0.97377 0.9615 0.0
C167 C 0.53025 0.98169 0.0132 0.0
C168 C 0.54212 0.97423 0.06572 0.0
C169 C 0.54801 0.95897 0.06609 0.0
C170 C 0.59172 0.8937 0.125 0.0
C171 C 0.81954 0.89226 0.00821 0.0
C172 C 0.61117 0.84678 0.03294 0.0
C173 C 0.67786 0.8333 0.02433 0.0
C174 C 0.72152 0.82687 0.07303 0.0
C175 C 0.75833 0.81236 0.07055 0.0
C176 C 0.75182 0.80405 0.01938 0.0
C177 C 0.7164 0.81072 0.96924 0.0
C178 C 0.67963 0.82524 0.97162 0.0
C179 C 0.57609 0.88731 0.90888 0.0
O180 O 0.41395 0.902 1.00556 0.0
O181 O 0.40985 0.87806 0.03715 0.0
O182 O 0.57944 0.92812 0.06178 0.0
O183 O 0.5565 0.92655 0.96752 0.0
O184 O 0.64999 0.90498 0.10868 0.0
O185 O 0.53405 0.88996 0.08473 0.0
O186 O 0.76719 0.87982 0.01972 0.0
O187 O 0.76837 0.90452 0.99774 0.0
O188 O 0.56706 0.8522 0.98776 0.0
O189 O 0.64029 0.85688 0.06908 0.0
O190 O 0.5288 0.87516 0.92495 0.0
O191 O 0.63655 0.8917 0.94722 0.0
H192 H 0.51879 0.95253 0.92108 0.0
H193 H 0.50879 0.97942 0.92064 0.0
H194 H 0.55024 0.98021 0.10611 0.0
H195 H 0.56002 0.95349 0.10709 0.0
H196 H 0.72054 0.83274 0.11434 0.0
H197 H 0.78606 0.80739 0.10963 0.0
H198 H 0.71148 0.80447 0.92921 0.0
H199 H 0.64631 0.82979 0.93329 0.0
Ho200 Ho 0.49526 0.16069 0.02453 0.0
Ho201 Ho 0.48928 0.12793 0.02359 0.0
C202 C 0.26281 0.14403 0.03242 0.0
C203 C 0.47779 0.18855 1.00529 0.0
C204 C 0.41104 0.20204 0.0141 0.0
C205 C 0.36745 0.20854 0.96554 0.0
C206 C 0.33015 0.22303 0.96843 0.0
C207 C 0.33609 0.23125 0.01987 0.0
C208 C 0.37138 0.22451 0.06988 0.0
C209 C 0.40862 0.21001 0.0671 0.0
C210 C 0.50441 0.14847 0.13136 0.0
C211 C 0.72227 0.14444 0.01853 0.0
C212 C 0.49771 0.10002 0.04237 0.0
C213 C 0.54482 0.08531 0.03108 0.0
C214 C 0.56972 0.07689 0.07954 0.0
C215 C 0.58267 0.06173 0.07434 0.0
C216 C 0.57104 0.05482 0.02053 0.0
C217 C 0.55561 0.06327 0.97077 0.0
C218 C 0.54253 0.07846 0.97592 0.0
C219 C 0.49425 0.14043 0.91528 0.0
O220 O 0.31718 0.15602 0.01633 0.0
O221 O 0.31233 0.13213 0.04846 0.0
O222 O 0.52048 0.18303 0.05069 0.0
O223 O 0.44874 0.17851 0.96885 0.0
O224 O 0.55385 0.16039 0.11436 0.0
O225 O 0.44387 0.14405 0.09312 0.0
O226 O 0.6674 0.13234 0.033 0.0
O227 O 0.6736 0.1565 1.00274 0.0
O228 O 0.44424 0.10599 1.00174 0.0
O229 O 0.54771 0.10957 0.07315 0.0
O230 O 0.4413 0.12866 0.93074 0.0
O231 O 0.54815 0.14452 0.9565 0.0
H232 H 0.36876 0.20275 0.92405 0.0
H233 H 0.30248 0.22806 0.92945 0.0
H234 H 0.37583 0.23069 0.11014 0.0
H235 H 0.44172 0.2054 0.10539 0.0
H236 H 0.571 0.08188 0.12255 0.0
H237 H 0.59507 0.05533 0.11314 0.0
H238 H 0.54715 0.05806 0.92877 0.0
H239 H 0.52333 0.08465 0.93772 0.0
Ho240 Ho 0.58717 0.16095 0.51469 0.0
Ho241 Ho 0.58763 0.12864 0.5194 0.0
C242 C 0.81819 0.14337 0.50819 0.0
C243 C 0.60942 0.18873 0.53364 0.0
C244 C 0.67616 0.2022 0.52511 0.0
C245 C 0.71926 0.20864 0.57395 0.0
C246 C 0.75602 0.22315 0.57151 0.0
C247 C 0.75001 0.23143 0.52025 0.0
C248 C 0.71518 0.22475 0.46999 0.0
C249 C 0.67845 0.21023 0.47232 0.0
C250 C 0.57442 0.14841 0.40883 0.0
C251 C 0.3584 0.14563 0.52116 0.0
C252 C 0.55746 0.10084 0.51396 0.0
C253 C 0.54085 0.08487 0.51402 0.0
C254 C 0.52309 0.07733 0.46211 0.0
C255 C 0.51629 0.06203 0.46222 0.0
C256 C 0.52708 0.05422 0.5142 0.0
C257 C 0.5396 0.06172 0.5665 0.0
C258 C 0.5463 0.07694 0.56649 0.0
C259 C 0.59089 0.14196 0.62535 0.0
O260 O 0.76577 0.15579 0.51994 0.0
O261 O 0.76696 0.13114 0.49755 0.0
O262 O 0.56511 0.18334 0.48845 0.0
O263 O 0.63886 0.17861 0.56957 0.0
O264 O 0.52675 0.16048 0.42539 0.0
O265 O 0.63497 0.14394 0.447 0.0
O266 O 0.41257 0.13361 0.50565 0.0
O267 O 0.40835 0.15749 0.53766 0.0
O268 O 0.57838 0.10766 0.56178 0.0
O269 O 0.55488 0.1092 0.46755 0.0
O270 O 0.64997 0.1308 0.60848 0.0
O271 O 0.53243 0.14563 0.58533 0.0
H272 H 0.71781 0.20279 0.6153 0.0
H273 H 0.78327 0.22815 0.61068 0.0
H274 H 0.71064 0.23099 0.42991 0.0
H275 H 0.64554 0.20565 0.4339 0.0
H276 H 0.51727 0.0832 0.42129 0.0
H277 H 0.5058 0.0563 0.42154 0.0
H278 H 0.54732 0.05579 0.60704 0.0
H279 H 0.55856 0.08246 0.60738 0.0
Ho280 Ho 0.49619 0.90693 0.52088 0.0
Ho281 Ho 0.49682 0.87462 0.52572 0.0
C282 C 0.72561 0.88995 0.51913 0.0
C283 C 0.52669 0.93472 0.52624 0.0
C284 C 0.54354 0.95069 0.52592 0.0
C285 C 0.5612 0.95829 0.57771 0.0
C286 C 0.56842 0.97358 0.57726 0.0
C287 C 0.55824 0.98133 0.52506 0.0
C288 C 0.54592 0.97376 0.47288 0.0
C289 C 0.53874 0.95854 0.47324 0.0
C290 C 0.49388 0.89365 0.41496 0.0
C291 C 0.26579 0.89217 0.53223 0.0
C292 C 0.47494 0.84683 0.50711 0.0
C293 C 0.40814 0.83336 0.51546 0.0
C294 C 0.36513 0.82695 0.46654 0.0
C295 C 0.32843 0.81243 0.46884 0.0
C296 C 0.33445 0.80413 0.52004 0.0
C297 C 0.36918 0.81079 0.57037 0.0
C298 C 0.40582 0.82531 0.56818 0.0
C299 C 0.50939 0.88728 0.63139 0.0
O300 O 0.67144 0.90199 0.53435 0.0
O301 O 0.67569 0.87807 0.50287 0.0
O302 O 0.50121 0.92797 0.47911 0.0
O303 O 0.53321 0.92631 0.57219 0.0
O304 O 0.4351 0.90484 0.43152 0.0
O305 O 0.5517 0.88991 0.45514 0.0
O306 O 0.31829 0.87978 0.5201 0.0
O307 O 0.31702 0.90439 0.5433 0.0
O308 O 0.51819 0.85226 0.55254 0.0
O309 O 0.44632 0.8569 0.47078 0.0
O310 O 0.55762 0.87523 0.61494 0.0
O311 O 0.44844 0.89163 0.59325 0.0
H312 H 0.56654 0.95247 0.61869 0.0
H313 H 0.57874 0.97936 0.61785 0.0
H314 H 0.5387 0.97964 0.43217 0.0
H315 H 0.52676 0.95297 0.43242 0.0
H316 H 0.36661 0.83281 0.42523 0.0
H317 H 0.30127 0.80746 0.42962 0.0
H318 H 0.37373 0.80453 0.6104 0.0
H319 H 0.4387 0.82986 0.60665 0.0
C320 C 0.53316 0.39174 0.01136 0.0
C321 C 0.43575 0.39243 0.0094 0.0
C322 C 0.64657 0.39062 0.01559 0.0
C323 C 0.7437 0.38988 0.01845 0.0
C324 C 0.43632 0.64432 0.02319 0.0
C325 C 0.33898 0.64457 0.02063 0.0
C326 C 0.54996 0.64403 0.0275 0.0
C327 C 0.6474 0.64385 0.02977 0.0
C328 C 0.64607 0.645 0.51547 0.0
C329 C 0.74318 0.64574 0.51834 0.0
C330 C 0.53267 0.64392 0.51116 0.0
C331 C 0.43528 0.64328 0.50913 0.0
C332 C 0.55236 0.39169 0.52806 0.0
C333 C 0.64975 0.39235 0.53012 0.0
C334 C 0.43896 0.3906 0.52377 0.0
C335 C 0.34184 0.38986 0.52095 0.0
C336 C 1.0333 0.89172 0.01159 0.0
C337 C 0.93588 0.8924 0.00964 0.0
C338 C 0.14672 0.89061 0.01581 0.0
C339 C 0.24385 0.88987 0.01867 0.0
C340 C 0.04925 0.14398 0.02793 0.0
C341 C 0.14668 0.14383 0.03022 0.0
C342 C 0.93559 0.14426 0.02363 0.0
C343 C 0.83824 0.1445 0.02111 0.0
C344 C 0.14525 0.14494 0.51619 0.0
C345 C 0.24237 0.14568 0.51904 0.0
C346 C 1.03185 0.14386 0.51187 0.0
C347 C 0.93447 0.14322 0.50979 0.0
C348 C 0.93873 0.89063 0.52425 0.0
C349 C 0.84162 0.88991 0.52136 0.0
C350 C 0.05211 0.8917 0.52861 0.0
C351 C 0.14951 0.89233 0.53068 0.0
C352 C 0.05453 0.52593 0.0154 0.0
C353 C 0.06166 0.53907 0.0181 0.0
C354 C 0.04275 0.51057 0.01307 0.0
C355 C 1.03616 0.4974 0.01196 0.0
C356 C 0.04811 0.51016 0.52294 0.0
C357 C 0.05329 0.49704 0.52603 0.0
C358 C 1.03872 0.52545 0.51813 0.0
C359 C 1.03335 0.53857 0.51495 0.0
C360 C 0.54461 1.01058 0.01298 0.0
C361 C 0.53779 0.99742 0.01191 0.0
C362 C 0.55632 0.02595 0.01523 0.0
C363 C 0.56307 0.0391 0.01784 0.0
C364 C 0.53815 0.02541 0.5169 0.0
C365 C 0.53264 0.03853 0.5138 0.0
C366 C 0.5477 1.01013 0.52181 0.0
C367 C 0.55294 0.99702 0.52511 0.0
C368 C 0.28616 0.27534 0.02001 0.0
C369 C 0.27051 0.28841 0.02018 0.0
C370 C 0.30084 0.25994 0.02004 0.0
C371 C 0.31673 0.24687 0.01959 0.0
C372 C 0.78646 0.77536 0.01983 0.0
C373 C 0.77086 0.78843 0.02005 0.0
C374 C 0.80102 0.75996 0.01985 0.0
C375 C 0.81682 0.74689 0.01943 0.0
C376 C 0.28626 0.76008 0.51918 0.0
C377 C 0.27076 0.74702 0.51943 0.0
C378 C 0.30044 0.77546 0.51934 0.0
C379 C 0.31575 0.78853 0.51923 0.0
C380 C 0.7987 0.27548 0.52085 0.0
C381 C 0.81428 0.28854 0.52058 0.0
C382 C 0.78435 0.2601 0.52074 0.0
C383 C 0.76888 0.24704 0.52092 0.0
C384 C 0.05077 0.38851 0.23863 0.0
C385 C 0.06514 0.39029 0.18603 0.0
C386 C 1.03413 0.3885 0.30087 0.0
C387 C 1.01983 0.39026 0.35349 0.0
C388 C 1.02753 0.64038 0.23982 0.0
C389 C 1.0094 0.64272 0.18944 0.0
C390 C 0.05337 0.64038 0.29918 0.0
C391 C 0.07114 0.6427 0.34963 0.0
C392 C 1.03494 0.64649 0.80134 0.0
C393 C 1.02077 0.64445 0.85383 0.0
C394 C 0.05108 0.64682 0.73904 0.0
C395 C 0.06511 0.64527 0.68628 0.0
C396 C 1.03044 0.39539 0.74017 0.0
C397 C 1.0132 0.39303 0.68971 0.0
C398 C 0.05539 0.39541 0.79963 0.0
C399 C 0.0726 0.39308 0.85011 0.0
C400 C 0.55102 0.88853 0.23883 0.0
C401 C 0.56539 0.8903 0.18623 0.0
C402 C 0.53439 0.88853 0.30107 0.0
C403 C 0.52007 0.89028 0.35368 0.0
C404 C 0.52677 0.14041 0.24035 0.0
C405 C 0.50866 0.14275 0.18997 0.0
C406 C 0.55258 0.1404 0.29972 0.0
C407 C 0.57032 0.14271 0.35018 0.0
C408 C 0.53433 0.14633 0.8019 0.0
C409 C 0.52014 0.14429 0.85439 0.0
C410 C 0.55044 0.14667 0.7396 0.0
C411 C 0.56443 0.14513 0.68682 0.0
C412 C 0.53023 0.89536 0.74043 0.0
C413 C 0.51292 0.893 0.68998 0.0
C414 C 0.55529 0.89539 0.79987 0.0
C415 C 0.57259 0.89307 0.85035 0.0
loop_
_geom_bond_atom_site_label_1
_geom_bond_atom_site_label_2
_geom_bond_distance
_geom_bond_site_symmetry_2
_ccdc_geom_bond_type
Ho0 C3 2.811 1_455 S
Ho0 O20 2.322 1_455 S
Ho0 O22 2.378 . S
Ho0 O23 2.524 1_454 S
Ho0 O24 2.381 . S
Ho0 O25 2.669 . S
Ho0 O27 2.346 . S
Ho0 O31 2.305 1_554 S
Ho1 C12 2.811 . S
Ho1 O21 2.346 1_455 S
Ho1 O25 2.305 . S
Ho1 O26 2.322 1_554 S
Ho1 O28 2.378 1_554 S
Ho1 O29 2.524 . S
Ho1 O30 2.381 1_554 S
Ho1 O31 2.669 1_554 S
C2 O20 1.259 . S
C2 O21 1.268 . S
C3 Ho0 2.811 1_655 S
C3 C4 1.488 . S
C3 O22 1.215 1_655 S
C3 O23 1.289 1_554 S
C4 C3 1.488 . S
C4 C5 1.348 1_554 S
C4 C9 1.413 . S
C5 C4 1.348 1_556 S
C5 C6 1.442 . S
C5 H32 0.930 . S
C6 C5 1.442 . S
C6 C7 1.383 . S
C6 H33 0.931 . S
C7 C6 1.383 . S
C7 C8 1.319 1_556 S
C8 C7 1.319 1_554 S
C8 C9 1.403 . S
C8 H34 0.934 . S
C9 C4 1.413 . S
C9 C8 1.403 . S
C9 H35 0.930 . S
C10 O24 1.275 . S
C10 O25 1.256 . S
C11 O26 1.259 1_554 S
C11 O27 1.268 . S
C12 Ho1 2.811 . S
C12 C13 1.488 . S
C12 O28 1.215 1_554 S
C12 O29 1.289 . S
C13 C12 1.488 . S
C13 C14 1.348 . S
C13 C18 1.413 1_554 S
C14 C13 1.348 . S
C14 C15 1.442 . S
C14 H36 0.930 . S
C15 C14 1.442 . S
C15 C16 1.381 . S
C15 H37 0.931 . S
C16 C15 1.381 . S
C16 C17 1.321 1_554 S
C17 C16 1.321 1_556 S
C17 C18 1.403 . S
C17 H38 0.934 . S
C18 C13 1.413 1_556 S
C18 C17 1.403 . S
C18 H39 0.930 . S
C19 O30 1.275 . S
C19 O31 1.256 . S
O20 Ho0 2.322 1_655 S
O20 C2 1.259 . S
O21 Ho1 2.346 1_655 S
O21 C2 1.268 . S
O22 Ho0 2.378 . S
O22 C3 1.215 1_455 S
O23 Ho0 2.524 1_656 S
O23 C3 1.289 1_556 S
O24 Ho0 2.381 . S
O24 C10 1.275 . S
O25 Ho0 2.669 . S
O25 Ho1 2.305 . S
O25 C10 1.256 . S
O26 Ho1 2.322 1_556 S
O26 C11 1.259 1_556 S
O27 Ho0 2.346 . S
O27 C11 1.268 . S
O28 Ho1 2.378 1_556 S
O28 C12 1.215 1_556 S
O29 Ho1 2.524 . S
O29 C12 1.289 . S
O30 Ho1 2.381 1_556 S
O30 C19 1.275 . S
O31 Ho0 2.305 1_556 S
O31 Ho1 2.669 1_556 S
O31 C19 1.256 . S
H32 C5 0.930 . S
H33 C6 0.931 . S
H34 C8 0.934 . S
H35 C9 0.930 . S
H36 C14 0.930 . S
H37 C15 0.931 . S
H38 C17 0.934 . S
H39 C18 0.930 . S
Ho40 C43 2.811 . S
Ho40 O60 2.322 . S
Ho40 O62 2.378 . S
Ho40 O63 2.524 1_554 S
Ho40 O64 2.381 . S
Ho40 O65 2.669 . S
Ho40 O67 2.346 1_655 S
Ho40 O71 2.305 1_554 S
Ho41 C52 2.811 1_655 S
Ho41 O61 2.346 . S
Ho41 O65 2.305 . S
Ho41 O66 2.322 1_654 S
Ho41 O68 2.378 1_554 S
Ho41 O69 2.524 1_655 S
Ho41 O70 2.381 1_554 S
Ho41 O71 2.669 1_554 S
C42 O60 1.259 . S
C42 O61 1.268 . S
C43 Ho40 2.811 . S
C43 C44 1.488 . S
C43 O62 1.215 . S
C43 O63 1.289 1_554 S
C44 C43 1.488 . S
C44 C45 1.348 1_554 S
C44 C49 1.413 . S
C45 C44 1.348 1_556 S
C45 C46 1.442 . S
C45 H72 0.930 . S
C46 C45 1.442 . S
C46 C47 1.381 1_556 S
C46 H73 0.931 . S
C47 C46 1.381 1_554 S
C47 C48 1.321 . S
C48 C47 1.321 . S
C48 C49 1.403 . S
C48 H74 0.934 . S
C49 C44 1.413 . S
C49 C48 1.403 . S
C49 H75 0.930 . S
C50 O64 1.275 . S
C50 O65 1.256 . S
C51 O66 1.259 1_554 S
C51 O67 1.268 . S
C52 Ho41 2.811 1_455 S
C52 C53 1.488 . S
C52 O68 1.215 1_454 S
C52 O69 1.289 . S
C53 C52 1.488 . S
C53 C54 1.348 . S
C53 C58 1.413 1_554 S
C54 C53 1.348 . S
C54 C55 1.442 . S
C54 H76 0.930 . S
C55 C54 1.442 . S
C55 C56 1.381 . S
C55 H77 0.931 . S
C56 C55 1.381 . S
C56 C57 1.321 1_554 S
C57 C56 1.321 1_556 S
C57 C58 1.403 . S
C57 H78 0.934 . S
C58 C53 1.413 1_556 S
C58 C57 1.403 . S
C58 H79 0.930 . S
C59 O70 1.275 . S
C59 O71 1.256 . S
O60 Ho40 2.322 . S
O60 C42 1.259 . S
O61 Ho41 2.346 . S
O61 C42 1.268 . S
O62 Ho40 2.378 . S
O62 C43 1.215 . S
O63 Ho40 2.524 1_556 S
O63 C43 1.289 1_556 S
O64 Ho40 2.381 . S
O64 C50 1.275 . S
O65 Ho40 2.669 . S
O65 Ho41 2.305 . S
O65 C50 1.256 . S
O66 Ho41 2.322 1_456 S
O66 C51 1.259 1_556 S
O67 Ho40 2.346 1_455 S
O67 C51 1.268 . S
O68 Ho41 2.378 1_556 S
O68 C52 1.215 1_656 S
O69 Ho41 2.524 1_455 S
O69 C52 1.289 . S
O70 Ho41 2.381 1_556 S
O70 C59 1.275 . S
O71 Ho40 2.305 1_556 S
O71 Ho41 2.669 1_556 S
O71 C59 1.256 . S
H72 C45 0.930 . S
H73 C46 0.931 . S
H74 C48 0.934 . S
H75 C49 0.930 . S
H76 C54 0.930 . S
H77 C55 0.931 . S
H78 C57 0.934 . S
H79 C58 0.930 . S
Ho80 C83 2.811 . S
Ho80 O100 2.322 . S
Ho80 O102 2.378 . S
Ho80 O103 2.524 . S
Ho80 O104 2.381 . S
Ho80 O105 2.669 . S
Ho80 O107 2.346 1_455 S
Ho80 O111 2.305 . S
Ho81 C92 2.811 1_455 S
Ho81 O101 2.346 . S
Ho81 O105 2.305 . S
Ho81 O106 2.322 1_455 S
Ho81 O108 2.378 . S
Ho81 O109 2.524 1_455 S
Ho81 O110 2.381 . S
Ho81 O111 2.669 . S
C82 O100 1.259 . S
C82 O101 1.268 . S
C83 Ho80 2.811 . S
C83 C84 1.488 . S
C83 O102 1.215 . S
C83 O103 1.289 . S
C84 C83 1.488 . S
C84 C85 1.348 . S
C84 C89 1.413 . S
C85 C84 1.348 . S
C85 C86 1.442 . S
C85 H112 0.930 . S
C86 C85 1.442 . S
C86 C87 1.381 . S
C86 H113 0.931 . S
C87 C86 1.381 . S
C87 C88 1.321 . S
C88 C87 1.321 . S
C88 C89 1.403 . S
C88 H114 0.934 . S
C89 C84 1.413 . S
C89 C88 1.403 . S
C89 H115 0.930 . S
C90 O104 1.275 . S
C90 O105 1.256 . S
C91 O106 1.259 . S
C91 O107 1.268 . S
C92 Ho81 2.811 1_655 S
C92 C93 1.488 . S
C92 O108 1.215 1_655 S
C92 O109 1.289 . S
C93 C92 1.488 . S
C93 C94 1.348 . S
C93 C98 1.413 . S
C94 C93 1.348 . S
C94 C95 1.442 . S
C94 H116 0.930 . S
C95 C94 1.442 . S
C95 C96 1.381 . S
C95 H117 0.931 . S
C96 C95 1.381 . S
C96 C97 1.321 . S
C97 C96 1.321 . S
C97 C98 1.403 . S
C97 H118 0.934 . S
C98 C93 1.413 . S
C98 C97 1.403 . S
C98 H119 0.930 . S
C99 O110 1.275 . S
C99 O111 1.256 . S
O100 Ho80 2.322 . S
O100 C82 1.259 . S
O101 Ho81 2.346 . S
O101 C82 1.268 . S
O102 Ho80 2.378 . S
O102 C83 1.215 . S
O103 Ho80 2.524 . S
O103 C83 1.289 . S
O104 Ho80 2.381 . S
O104 C90 1.275 . S
O105 Ho80 2.669 . S
O105 Ho81 2.305 . S
O105 C90 1.256 . S
O106 Ho81 2.322 1_655 S
O106 C91 1.259 . S
O107 Ho80 2.346 1_655 S
O107 C91 1.268 . S
O108 Ho81 2.378 . S
O108 C92 1.215 1_455 S
O109 Ho81 2.524 1_655 S
O109 C92 1.289 . S
O110 Ho81 2.381 . S
O110 C99 1.275 . S
O111 Ho80 2.305 . S
O111 Ho81 2.669 . S
O111 C99 1.256 . S
H112 C85 0.930 . S
H113 C86 0.931 . S
H114 C88 0.934 . S
H115 C89 0.930 . S
H116 C94 0.930 . S
H117 C95 0.931 . S
H118 C97 0.934 . S
H119 C98 0.930 . S
Ho120 C123 2.811 1_655 S
Ho120 O140 2.322 1_655 S
Ho120 O142 2.378 . S
Ho120 O143 2.524 1_655 S
Ho120 O144 2.381 . S
Ho120 O145 2.669 . S
Ho120 O147 2.346 . S
Ho120 O151 2.305 . S
Ho121 C132 2.811 . S
Ho121 O141 2.346 1_655 S
Ho121 O145 2.305 . S
Ho121 O146 2.322 . S
Ho121 O148 2.378 . S
Ho121 O149 2.524 . S
Ho121 O150 2.381 . S
Ho121 O151 2.669 . S
C122 O140 1.259 . S
C122 O141 1.268 . S
C123 Ho120 2.811 1_455 S
C123 C124 1.488 . S
C123 O142 1.215 1_455 S
C123 O143 1.289 . S
C124 C123 1.488 . S
C124 C125 1.348 . S
C124 C129 1.413 . S
C125 C124 1.348 . S
C125 C126 1.442 . S
C125 H152 0.930 . S
C126 C125 1.442 . S
C126 C127 1.381 . S
C126 H153 0.931 . S
C127 C126 1.381 . S
C127 C128 1.321 . S
C128 C127 1.321 . S
C128 C129 1.403 . S
C128 H154 0.934 . S
C129 C124 1.413 . S
C129 C128 1.403 . S
C129 H155 0.930 . S
C130 O144 1.275 . S
C130 O145 1.256 . S
C131 O146 1.259 . S
C131 O147 1.268 . S
C132 Ho121 2.811 . S
C132 C133 1.488 . S
C132 O148 1.215 . S
C132 O149 1.289 . S
C133 C132 1.488 . S
C133 C134 1.348 . S
C133 C138 1.413 . S
C134 C133 1.348 . S
C134 C135 1.442 . S
C134 H156 0.930 . S
C135 C134 1.442 . S
C135 C136 1.381 . S
C135 H157 0.931 . S
C136 C135 1.381 . S
C136 C137 1.321 . S
C137 C136 1.321 . S
C137 C138 1.403 . S
C137 H158 0.934 . S
C138 C133 1.413 . S
C138 C137 1.403 . S
C138 H159 0.930 . S
C139 O150 1.275 . S
C139 O151 1.256 . S
O140 Ho120 2.322 1_455 S
O140 C122 1.259 . S
O141 Ho121 2.346 1_455 S
O141 C122 1.268 . S
O142 Ho120 2.378 . S
O142 C123 1.215 1_655 S
O143 Ho120 2.524 1_455 S
O143 C123 1.289 . S
O144 Ho120 2.381 . S
O144 C130 1.275 . S
O145 Ho120 2.669 . S
O145 Ho121 2.305 . S
O145 C130 1.256 . S
O146 Ho121 2.322 . S
O146 C131 1.259 . S
O147 Ho120 2.346 . S
O147 C131 1.268 . S
O148 Ho121 2.378 . S
O148 C132 1.215 . S
O149 Ho121 2.524 . S
O149 C132 1.289 . S
O150 Ho121 2.381 . S
O150 C139 1.275 . S
O151 Ho120 2.305 . S
O151 Ho121 2.669 . S
O151 C139 1.256 . S
H152 C125 0.930 . S
H153 C126 0.931 . S
H154 C128 0.934 . S
H155 C129 0.930 . S
H156 C134 0.930 . S
H157 C135 0.931 . S
H158 C137 0.934 . S
H159 C138 0.930 . S
Ho160 C163 2.811 . S
Ho160 O180 2.322 . S
Ho160 O182 2.378 . S
Ho160 O183 2.524 1_554 S
Ho160 O184 2.381 . S
Ho160 O185 2.669 . S
Ho160 O187 2.346 . S
Ho160 O191 2.305 1_554 S
Ho161 C172 2.811 . S
Ho161 O181 2.346 . S
Ho161 O185 2.305 . S
Ho161 O186 2.322 1_554 S
Ho161 O188 2.378 1_554 S
Ho161 O189 2.524 . S
Ho161 O190 2.381 1_554 S
Ho161 O191 2.669 1_554 S
C162 O180 1.259 . S
C162 O181 1.268 . S
C163 Ho160 2.811 . S
C163 C164 1.488 . S
C163 O182 1.215 . S
C163 O183 1.289 1_554 S
C164 C163 1.488 . S
C164 C165 1.348 1_554 S
C164 C169 1.413 . S
C165 C164 1.348 1_556 S
C165 C166 1.442 . S
C165 H192 0.930 . S
C166 C165 1.442 . S
C166 C167 1.385 . S
C166 H193 0.931 . S
C167 C166 1.385 . S
C167 C168 1.317 1_556 S
C168 C167 1.317 1_554 S
C168 C169 1.403 . S
C168 H194 0.934 . S
C169 C164 1.413 . S
C169 C168 1.403 . S
C169 H195 0.930 . S
C170 O184 1.275 . S
C170 O185 1.256 . S
C171 O186 1.259 1_554 S
C171 O187 1.268 . S
C172 Ho161 2.811 . S
C172 C173 1.488 . S
C172 O188 1.215 1_554 S
C172 O189 1.289 . S
C173 C172 1.488 . S
C173 C174 1.348 . S
C173 C178 1.413 1_554 S
C174 C173 1.348 . S
C174 C175 1.442 . S
C174 H196 0.930 . S
C175 C174 1.442 . S
C175 C176 1.381 . S
C175 H197 0.931 . S
C176 C175 1.381 . S
C176 C177 1.321 1_554 S
C177 C176 1.321 1_556 S
C177 C178 1.403 . S
C177 H198 0.934 . S
C178 C173 1.413 1_556 S
C178 C177 1.403 . S
C178 H199 0.930 . S
C179 O190 1.275 . S
C179 O191 1.256 . S
O180 Ho160 2.322 . S
O180 C162 1.259 . S
O181 Ho161 2.346 . S
O181 C162 1.268 . S
O182 Ho160 2.378 . S
O182 C163 1.215 . S
O183 Ho160 2.524 1_556 S
O183 C163 1.289 1_556 S
O184 Ho160 2.381 . S
O184 C170 1.275 . S
O185 Ho160 2.669 . S
O185 Ho161 2.305 . S
O185 C170 1.256 . S
O186 Ho161 2.322 1_556 S
O186 C171 1.259 1_556 S
O187 Ho160 2.346 . S
O187 C171 1.268 . S
O188 Ho161 2.378 1_556 S
O188 C172 1.215 1_556 S
O189 Ho161 2.524 . S
O189 C172 1.289 . S
O190 Ho161 2.381 1_556 S
O190 C179 1.275 . S
O191 Ho160 2.305 1_556 S
O191 Ho161 2.669 1_556 S
O191 C179 1.256 . S
H192 C165 0.930 . S
H193 C166 0.931 . S
H194 C168 0.934 . S
H195 C169 0.930 . S
H196 C174 0.930 . S
H197 C175 0.931 . S
H198 C177 0.934 . S
H199 C178 0.930 . S
Ho200 C203 2.811 . S
Ho200 O220 2.322 . S
Ho200 O222 2.378 . S
Ho200 O223 2.524 1_554 S
Ho200 O224 2.381 . S
Ho200 O225 2.669 . S
Ho200 O227 2.346 . S
Ho200 O231 2.305 1_554 S
Ho201 C212 2.811 . S
Ho201 O221 2.346 . S
Ho201 O225 2.305 . S
Ho201 O226 2.322 1_554 S
Ho201 O228 2.378 1_554 S
Ho201 O229 2.524 . S
Ho201 O230 2.381 1_554 S
Ho201 O231 2.669 1_554 S
C202 O220 1.259 . S
C202 O221 1.268 . S
C203 Ho200 2.811 . S
C203 C204 1.488 . S
C203 O222 1.215 . S
C203 O223 1.289 1_554 S
C204 C203 1.488 . S
C204 C205 1.348 1_554 S
C204 C209 1.413 . S
C205 C204 1.348 1_556 S
C205 C206 1.442 . S
C205 H232 0.930 . S
C206 C205 1.442 . S
C206 C207 1.381 1_556 S
C206 H233 0.931 . S
C207 C206 1.381 1_554 S
C207 C208 1.321 . S
C208 C207 1.321 . S
C208 C209 1.403 . S
C208 H234 0.934 . S
C209 C204 1.413 . S
C209 C208 1.403 . S
C209 H235 0.930 . S
C210 O224 1.275 . S
C210 O225 1.256 . S
C211 O226 1.259 1_554 S
C211 O227 1.268 . S
C212 Ho201 2.811 . S
C212 C213 1.488 . S
C212 O228 1.215 1_554 S
C212 O229 1.289 . S
C213 C212 1.488 . S
C213 C214 1.348 . S
C213 C218 1.413 1_554 S
C214 C213 1.348 . S
C214 C215 1.442 . S
C214 H236 0.930 . S
C215 C214 1.442 . S
C215 C216 1.381 . S
C215 H237 0.931 . S
C216 C215 1.381 . S
C216 C217 1.321 1_554 S
C217 C216 1.321 1_556 S
C217 C218 1.403 . S
C217 H238 0.934 . S
C218 C213 1.413 1_556 S
C218 C217 1.403 . S
C218 H239 0.930 . S
C219 O230 1.275 . S
C219 O231 1.256 . S
O220 Ho200 2.322 . S
O220 C202 1.259 . S
O221 Ho201 2.346 . S
O221 C202 1.268 . S
O222 Ho200 2.378 . S
O222 C203 1.215 . S
O223 Ho200 2.524 1_556 S
O223 C203 1.289 1_556 S
O224 Ho200 2.381 . S
O224 C210 1.275 . S
O225 Ho200 2.669 . S
O225 Ho201 2.305 . S
O225 C210 1.256 . S
O226 Ho201 2.322 1_556 S
O226 C211 1.259 1_556 S
O227 Ho200 2.346 . S
O227 C211 1.268 . S
O228 Ho201 2.378 1_556 S
O228 C212 1.215 1_556 S
O229 Ho201 2.524 . S
O229 C212 1.289 . S
O230 Ho201 2.381 1_556 S
O230 C219 1.275 . S
O231 Ho200 2.305 1_556 S
O231 Ho201 2.669 1_556 S
O231 C219 1.256 . S
H232 C205 0.930 . S
H233 C206 0.931 . S
H234 C208 0.934 . S
H235 C209 0.930 . S
H236 C214 0.930 . S
H237 C215 0.931 . S
H238 C217 0.934 . S
H239 C218 0.930 . S
Ho240 C243 2.811 . S
Ho240 O260 2.322 . S
Ho240 O262 2.378 . S
Ho240 O263 2.524 . S
Ho240 O264 2.381 . S
Ho240 O265 2.669 . S
Ho240 O267 2.346 . S
Ho240 O271 2.305 . S
Ho241 C252 2.811 . S
Ho241 O261 2.346 . S
Ho241 O265 2.305 . S
Ho241 O266 2.322 . S
Ho241 O268 2.378 . S
Ho241 O269 2.524 . S
Ho241 O270 2.381 . S
Ho241 O271 2.669 . S
C242 O260 1.259 . S
C242 O261 1.268 . S
C243 Ho240 2.811 . S
C243 C244 1.488 . S
C243 O262 1.215 . S
C243 O263 1.289 . S
C244 C243 1.488 . S
C244 C245 1.348 . S
C244 C249 1.413 . S
C245 C244 1.348 . S
C245 C246 1.442 . S
C245 H272 0.930 . S
C246 C245 1.442 . S
C246 C247 1.381 . S
C246 H273 0.931 . S
C247 C246 1.381 . S
C247 C248 1.321 . S
C248 C247 1.321 . S
C248 C249 1.403 . S
C248 H274 0.934 . S
C249 C244 1.413 . S
C249 C248 1.403 . S
C249 H275 0.930 . S
C250 O264 1.275 . S
C250 O265 1.256 . S
C251 O266 1.259 . S
C251 O267 1.268 . S
C252 Ho241 2.811 . S
C252 C253 1.488 . S
C252 O268 1.215 . S
C252 O269 1.289 . S
C253 C252 1.488 . S
C253 C254 1.348 . S
C253 C258 1.413 . S
C254 C253 1.348 . S
C254 C255 1.442 . S
C254 H276 0.930 . S
C255 C254 1.442 . S
C255 C256 1.381 . S
C255 H277 0.931 . S
C256 C255 1.381 . S
C256 C257 1.321 . S
C257 C256 1.321 . S
C257 C258 1.403 . S
C257 H278 0.934 . S
C258 C253 1.413 . S
C258 C257 1.403 . S
C258 H279 0.930 . S
C259 O270 1.275 . S
C259 O271 1.256 . S
O260 Ho240 2.322 . S
O260 C242 1.259 . S
O261 Ho241 2.346 . S
O261 C242 1.268 . S
O262 Ho240 2.378 . S
O262 C243 1.215 . S
O263 Ho240 2.524 . S
O263 C243 1.289 . S
O264 Ho240 2.381 . S
O264 C250 1.275 . S
O265 Ho240 2.669 . S
O265 Ho241 2.305 . S
O265 C250 1.256 . S
O266 Ho241 2.322 . S
O266 C251 1.259 . S
O267 Ho240 2.346 . S
O267 C251 1.268 . S
O268 Ho241 2.378 . S
O268 C252 1.215 . S
O269 Ho241 2.524 . S
O269 C252 1.289 . S
O270 Ho241 2.381 . S
O270 C259 1.275 . S
O271 Ho240 2.305 . S
O271 Ho241 2.669 . S
O271 C259 1.256 . S
H272 C245 0.930 . S
H273 C246 0.931 . S
H274 C248 0.934 . S
H275 C249 0.930 . S
H276 C254 0.930 . S
H277 C255 0.931 . S
H278 C257 0.934 . S
H279 C258 0.930 . S
Ho280 C283 2.811 . S
Ho280 O300 2.322 . S
Ho280 O302 2.378 . S
Ho280 O303 2.524 . S
Ho280 O304 2.381 . S
Ho280 O305 2.669 . S
Ho280 O307 2.346 . S
Ho280 O311 2.305 . S
Ho281 C292 2.811 . S
Ho281 O301 2.346 . S
Ho281 O305 2.305 . S
Ho281 O306 2.322 . S
Ho281 O308 2.378 . S
Ho281 O309 2.524 . S
Ho281 O310 2.381 . S
Ho281 O311 2.669 . S
C282 O300 1.259 . S
C282 O301 1.268 . S
C283 Ho280 2.811 . S
C283 C284 1.488 . S
C283 O302 1.215 . S
C283 O303 1.289 . S
C284 C283 1.488 . S
C284 C285 1.348 . S
C284 C289 1.413 . S
C285 C284 1.348 . S
C285 C286 1.442 . S
C285 H312 0.930 . S
C286 C285 1.442 . S
C286 C287 1.381 . S
C286 H313 0.931 . S
C287 C286 1.381 . S
C287 C288 1.321 . S
C288 C287 1.321 . S
C288 C289 1.403 . S
C288 H314 0.934 . S
C289 C284 1.413 . S
C289 C288 1.403 . S
C289 H315 0.930 . S
C290 O304 1.275 . S
C290 O305 1.256 . S
C291 O306 1.259 . S
C291 O307 1.268 . S
C292 Ho281 2.811 . S
C292 C293 1.488 . S
C292 O308 1.215 . S
C292 O309 1.289 . S
C293 C292 1.488 . S
C293 C294 1.348 . S
C293 C298 1.413 . S
C294 C293 1.348 . S
C294 C295 1.442 . S
C294 H316 0.930 . S
C295 C294 1.442 . S
C295 C296 1.381 . S
C295 H317 0.931 . S
C296 C295 1.381 . S
C296 C297 1.321 . S
C297 C296 1.321 . S
C297 C298 1.403 . S
C297 H318 0.934 . S
C298 C293 1.413 . S
C298 C297 1.403 . S
C298 H319 0.930 . S
C299 O310 1.275 . S
C299 O311 1.256 . S
O300 Ho280 2.322 . S
O300 C282 1.259 . S
O301 Ho281 2.346 . S
O301 C282 1.268 . S
O302 Ho280 2.378 . S
O302 C283 1.215 . S
O303 Ho280 2.524 . S
O303 C283 1.289 . S
O304 Ho280 2.381 . S
O304 C290 1.275 . S
O305 Ho280 2.669 . S
O305 Ho281 2.305 . S
O305 C290 1.256 . S
O306 Ho281 2.322 . S
O306 C291 1.259 . S
O307 Ho280 2.346 . S
O307 C291 1.268 . S
O308 Ho281 2.378 . S
O308 C292 1.215 . S
O309 Ho281 2.524 . S
O309 C292 1.289 . S
O310 Ho281 2.381 . S
O310 C299 1.275 . S
O311 Ho280 2.305 . S
O311 Ho281 2.669 . S
O311 C299 1.256 . S
H312 C285 0.930 . S
H313 C286 0.931 . S
H314 C288 0.934 . S
H315 C289 0.930 . S
H316 C294 0.930 . S
H317 C295 0.931 . S
H318 C297 0.934 . S
H319 C298 0.930 . S
C320 C321 1.170 . S
C320 C322 1.380 . S
C321 C320 1.170 . S
C322 C320 1.380 . S
C322 C323 1.170 . S
C323 C322 1.170 . S
C324 C325 1.170 . S
C324 C326 1.380 . S
C325 C324 1.170 . S
C326 C324 1.380 . S
C326 C327 1.170 . S
C327 C326 1.170 . S
C328 C329 1.170 . S
C328 C330 1.380 . S
C329 C328 1.170 . S
C330 C328 1.380 . S
C330 C331 1.170 . S
C331 C330 1.170 . S
C332 C333 1.170 . S
C332 C334 1.380 . S
C333 C332 1.170 . S
C334 C332 1.380 . S
C334 C335 1.170 . S
C335 C334 1.170 . S
C336 C337 1.170 1_455 S
C336 C338 1.380 . S
C337 C336 1.170 1_655 S
C338 C336 1.380 . S
C338 C339 1.170 . S
C339 C338 1.170 . S
C340 C341 1.170 1_655 S
C340 C342 1.380 . S
C341 C340 1.170 1_455 S
C342 C340 1.380 . S
C342 C343 1.170 . S
C343 C342 1.170 . S
C344 C345 1.170 . S
C344 C346 1.380 . S
C345 C344 1.170 . S
C346 C344 1.380 . S
C346 C347 1.170 1_455 S
C347 C346 1.170 1_655 S
C348 C349 1.170 . S
C348 C350 1.380 . S
C349 C348 1.170 . S
C350 C348 1.380 . S
C350 C351 1.170 1_655 S
C351 C350 1.170 1_455 S
C352 C353 1.170 . S
C352 C354 1.380 1_455 S
C353 C352 1.170 . S
C354 C352 1.380 1_655 S
C354 C355 1.170 . S
C355 C354 1.170 . S
C356 C357 1.170 . S
C356 C358 1.380 1_455 S
C357 C356 1.170 . S
C358 C356 1.380 1_655 S
C358 C359 1.170 . S
C359 C358 1.170 . S
C360 C361 1.170 . S
C360 C362 1.380 1_565 S
C361 C360 1.170 . S
C362 C360 1.380 1_545 S
C362 C363 1.170 . S
C363 C362 1.170 . S
C364 C365 1.170 . S
C364 C366 1.380 1_545 S
C365 C364 1.170 . S
C366 C364 1.380 1_565 S
C366 C367 1.170 . S
C367 C366 1.170 . S
C368 C369 1.170 . S
C368 C370 1.380 . S
C369 C368 1.170 . S
C370 C368 1.380 . S
C370 C371 1.170 . S
C371 C370 1.170 . S
C372 C373 1.170 . S
C372 C374 1.380 . S
C373 C372 1.170 . S
C374 C372 1.380 . S
C374 C375 1.170 . S
C375 C374 1.170 . S
C376 C377 1.170 . S
C376 C378 1.380 . S
C377 C376 1.170 . S
C378 C376 1.380 . S
C378 C379 1.170 . S
C379 C378 1.170 . S
C380 C381 1.170 . S
C380 C382 1.380 . S
C381 C380 1.170 . S
C382 C380 1.380 . S
C382 C383 1.170 . S
C383 C382 1.170 . S
C384 C385 1.170 . S
C384 C386 1.380 1_455 S
C385 C384 1.170 . S
C386 C384 1.380 1_655 S
C386 C387 1.170 . S
C387 C386 1.170 . S
C388 C389 1.170 . S
C388 C390 1.380 1_655 S
C389 C388 1.170 . S
C390 C388 1.380 1_455 S
C390 C391 1.170 . S
C391 C390 1.170 . S
C392 C393 1.170 . S
C392 C394 1.380 1_655 S
C393 C392 1.170 . S
C394 C392 1.380 1_455 S
C394 C395 1.170 . S
C395 C394 1.170 . S
C396 C397 1.170 . S
C396 C398 1.380 1_655 S
C397 C396 1.170 . S
C398 C396 1.380 1_455 S
C398 C399 1.170 . S
C399 C398 1.170 . S
C400 C401 1.170 . S
C400 C402 1.380 . S
C401 C400 1.170 . S
C402 C400 1.380 . S
C402 C403 1.170 . S
C403 C402 1.170 . S
C404 C405 1.170 . S
C404 C406 1.380 . S
C405 C404 1.170 . S
C406 C404 1.380 . S
C406 C407 1.170 . S
C407 C406 1.170 . S
C408 C409 1.170 . S
C408 C410 1.380 . S
C409 C408 1.170 . S
C410 C408 1.380 . S
C410 C411 1.170 . S
C411 C410 1.170 . S
C412 C413 1.170 . S
C412 C414 1.380 . S
C413 C412 1.170 . S
C414 C412 1.380 . S
C414 C415 1.170 . S
C415 C414 1.170 . S
C321 C11 2.276 . S
C323 C2 2.287 . S
C325 C51 2.280 . S
C327 C42 2.282 . S
C329 C91 2.279 . S
C331 C82 2.297 . S
C333 C131 2.279 . S
C335 C122 2.297 . S
C337 C171 2.290 . S
C339 C162 2.274 . S
C341 C202 2.287 . S
C343 C211 2.276 . S
C345 C251 2.278 . S
C347 C242 2.284 . S
C349 C282 2.292 . S
C351 C291 2.273 . S
C353 C56 2.842 . S
C355 C7 2.863 1_554 S
C357 C127 2.865 . S
C359 C96 2.832 . S
C361 C167 2.838 1_554 S
C363 C216 2.863 . S
C365 C256 2.850 . S
C367 C287 2.837 . S
C369 C16 2.012 . S
C371 C207 1.978 . S
C373 C176 2.011 . S
C375 C47 1.979 . S
C377 C87 1.991 . S
C379 C296 1.981 . S
C381 C136 2.009 . S
C383 C247 1.984 . S
C385 C10 1.500 . S
C387 C130 1.501 . S
C389 C50 1.614 . S
C391 C90 1.588 . S
C393 C59 1.501 . S
C395 C99 1.482 . S
C397 C139 1.596 . S
C399 C19 1.608 . S
C401 C170 1.487 . S
C403 C290 1.488 . S
C405 C210 1.613 . S
C407 C250 1.579 . S
C409 C219 1.493 . S
C411 C259 1.471 . S
C413 C299 1.598 . S
C415 C179 1.610 . S
