# Generated by pormake.
# Topology wjd, (6)-cn, num edge types: 1
# Building blocks:
#     Node 0, Type 0, BuildingBlock: MIDCAF_clean_sbu_0, # of connection points: 6
#     Node 1, Type 0, BuildingBlock: MIDCAF_clean_sbu_0, # of connection points: 6
#     Node 2, Type 0, BuildingBlock: MIDCAF_clean_sbu_0, # of connection points: 6
#     Node 3, Type 0, BuildingBlock: MIDCAF_clean_sbu_0, # of connection points: 6
#     Node 4, Type 0, BuildingBlock: MIDCAF_clean_sbu_0, # of connection points: 6
#     Node 5, Type 0, BuildingBlock: MIDCAF_clean_sbu_0, # of connection points: 6
#     Node 6, Type 0, BuildingBlock: MIDCAF_clean_sbu_0, # of connection points: 6
#     Node 7, Type 0, BuildingBlock: MIDCAF_clean_sbu_0, # of connection points: 6
#     Node 8, Type 0, BuildingBlock: MIDCAF_clean_sbu_0, # of connection points: 6
#     Node 9, Type 0, BuildingBlock: MIDCAF_clean_sbu_0, # of connection points: 6
#     Node 10, Type 0, BuildingBlock: MIDCAF_clean_sbu_0, # of connection points: 6
#     Node 11, Type 0, BuildingBlock: MIDCAF_clean_sbu_0, # of connection points: 6
#     Edge 12, Type (0, 0), BuildingBlock: XUDNAN_clean_linker_2, # of connection points: 2
#     Edge 13, Type (0, 0), BuildingBlock: XUDNAN_clean_linker_2, # of connection points: 2
#     Edge 14, Type (0, 0), BuildingBlock: XUDNAN_clean_linker_2, # of connection points: 2
#     Edge 15, Type (0, 0), BuildingBlock: XUDNAN_clean_linker_2, # of connection points: 2
#     Edge 16, Type (0, 0), BuildingBlock: XUDNAN_clean_linker_2, # of connection points: 2
#     Edge 17, Type (0, 0), BuildingBlock: XUDNAN_clean_linker_2, # of connection points: 2
#     Edge 18, Type (0, 0), BuildingBlock: XUDNAN_clean_linker_2, # of connection points: 2
#     Edge 19, Type (0, 0), BuildingBlock: XUDNAN_clean_linker_2, # of connection points: 2
#     Edge 20, Type (0, 0), BuildingBlock: XUDNAN_clean_linker_2, # of connection points: 2
#     Edge 21, Type (0, 0), BuildingBlock: XUDNAN_clean_linker_2, # of connection points: 2
#     Edge 22, Type (0, 0), BuildingBlock: XUDNAN_clean_linker_2, # of connection points: 2
#     Edge 23, Type (0, 0), BuildingBlock: XUDNAN_clean_linker_2, # of connection points: 2
#     Edge 24, Type (0, 0), BuildingBlock: XUDNAN_clean_linker_2, # of connection points: 2
#     Edge 25, Type (0, 0), BuildingBlock: XUDNAN_clean_linker_2, # of connection points: 2
#     Edge 26, Type (0, 0), BuildingBlock: XUDNAN_clean_linker_2, # of connection points: 2
#     Edge 27, Type (0, 0), BuildingBlock: XUDNAN_clean_linker_2, # of connection points: 2
#     Edge 28, Type (0, 0), BuildingBlock: XUDNAN_clean_linker_2, # of connection points: 2
#     Edge 29, Type (0, 0), BuildingBlock: XUDNAN_clean_linker_2, # of connection points: 2
#     Edge 30, Type (0, 0), BuildingBlock: XUDNAN_clean_linker_2, # of connection points: 2
#     Edge 31, Type (0, 0), BuildingBlock: XUDNAN_clean_linker_2, # of connection points: 2
#     Edge 32, Type (0, 0), BuildingBlock: XUDNAN_clean_linker_2, # of connection points: 2
#     Edge 33, Type (0, 0), BuildingBlock: XUDNAN_clean_linker_2, # of connection points: 2
#     Edge 34, Type (0, 0), BuildingBlock: XUDNAN_clean_linker_2, # of connection points: 2
#     Edge 35, Type (0, 0), BuildingBlock: XUDNAN_clean_linker_2, # of connection points: 2
#     Edge 36, Type (0, 0), BuildingBlock: XUDNAN_clean_linker_2, # of connection points: 2
#     Edge 37, Type (0, 0), BuildingBlock: XUDNAN_clean_linker_2, # of connection points: 2
#     Edge 38, Type (0, 0), BuildingBlock: XUDNAN_clean_linker_2, # of connection points: 2
#     Edge 39, Type (0, 0), BuildingBlock: XUDNAN_clean_linker_2, # of connection points: 2
#     Edge 40, Type (0, 0), BuildingBlock: XUDNAN_clean_linker_2, # of connection points: 2
#     Edge 41, Type (0, 0), BuildingBlock: XUDNAN_clean_linker_2, # of connection points: 2
#     Edge 42, Type (0, 0), BuildingBlock: XUDNAN_clean_linker_2, # of connection points: 2
#     Edge 43, Type (0, 0), BuildingBlock: XUDNAN_clean_linker_2, # of connection points: 2
#     Edge 44, Type (0, 0), BuildingBlock: XUDNAN_clean_linker_2, # of connection points: 2
#     Edge 45, Type (0, 0), BuildingBlock: XUDNAN_clean_linker_2, # of connection points: 2
#     Edge 46, Type (0, 0), BuildingBlock: XUDNAN_clean_linker_2, # of connection points: 2
#     Edge 47, Type (0, 0), BuildingBlock: XUDNAN_clean_linker_2, # of connection points: 2
# Relax obj value: 0.343
# Max RMSD: 0.250
# Mean RMSD: 0.250
data_MOF--net-wjd--node1-MIDCAF_clean_sbu_0--edge1-XUDNAN_clean_linker_2
_symmetry_space_group_name_H-M    P1
_symmetry_Int_Tables_number       1
_symmetry_cell_setting            triclinic
loop_
_symmetry_equiv_pos_as_xyz
'x, y, z'
_cell_length_a     27.933769
_cell_length_b     28.046764
_cell_length_c     60.078995
_cell_angle_alpha  90.168512
_cell_angle_beta   89.882121
_cell_angle_gamma 120.03369
loop_
_atom_site_label
_atom_site_type_symbol
_atom_site_fract_x
_atom_site_fract_y
_atom_site_fract_z
_atom_type_partial_charge
Zn0 Zn 0.25404 0.03887 0.15713 0.0
Zn1 Zn 0.42978 0.13769 0.09907 0.0
Zn2 Zn 0.33406 0.06994 0.1374 0.0
C3 C 0.39792 0.20502 0.12131 0.0
C4 C 0.43258 0.07395 0.14283 0.0
O5 O 0.27303 0.99123 0.12237 0.0
O6 O 0.24096 0.96218 0.15594 0.0
C7 C 0.2577 0.11441 0.13066 0.0
O8 O 0.36582 0.15968 0.1317 0.0
O9 O 0.42884 0.20664 0.10555 0.0
O10 O 0.43141 0.09885 0.12575 0.0
O11 O 0.39325 0.05894 0.15672 0.0
O12 O 0.22017 0.06535 0.13405 0.0
O13 O 0.3073 0.12944 0.13643 0.0
O14 O 0.35311 0.05914 0.17246 0.0
O15 O 0.29489 0.08579 0.18327 0.0
C16 C 0.33477 0.07826 0.18777 0.0
O17 O 0.31167 0.02294 0.10493 0.0
O18 O 0.37081 0.08255 0.07983 0.0
C19 C 0.24513 0.9512 0.13591 0.0
C20 C 0.32808 0.03698 0.08452 0.0
Zn21 Zn 0.75829 0.59887 0.40673 0.0
Zn22 Zn 0.82582 0.75513 0.36638 0.0
Zn23 Zn 0.78521 0.67685 0.38648 0.0
C24 C 0.76972 0.67018 0.33708 0.0
C25 C 0.90709 0.74569 0.38837 0.0
O26 O 0.82703 0.70693 0.41911 0.0
O27 O 0.7601 0.63411 0.43548 0.0
C28 C 0.66733 0.59475 0.38611 0.0
O29 O 0.78571 0.64854 0.35211 0.0
O30 O 0.77566 0.71718 0.3408 0.0
O31 O 0.89767 0.75642 0.36901 0.0
O32 O 0.86675 0.72407 0.40236 0.0
O33 O 0.68841 0.56456 0.38915 0.0
O34 O 0.6969 0.64698 0.38922 0.0
O35 O 0.81095 0.62767 0.36565 0.0
O36 O 0.82416 0.59502 0.39674 0.0
C37 C 0.83439 0.60489 0.37626 0.0
O38 O 0.72786 0.70935 0.38994 0.0
O39 O 0.8025 0.79132 0.38902 0.0
C40 C 0.79945 0.68315 0.43687 0.0
C41 C 0.75221 0.76133 0.39421 0.0
Zn42 Zn 0.95258 0.20621 0.15372 0.0
Zn43 Zn 0.88749 0.28892 0.09242 0.0
Zn44 Zn 0.92488 0.25595 0.12378 0.0
C45 C 0.7962 0.20246 0.10874 0.0
C46 C 0.94561 0.37328 0.12518 0.0
O47 O 0.00079 0.25892 0.11257 0.0
O48 O 0.03092 0.24096 0.14365 0.0
C49 C 0.85848 0.1267 0.13203 0.0
O50 O 0.8363 0.19918 0.11763 0.0
O51 O 0.80571 0.2439 0.09727 0.0
O52 O 0.93214 0.36535 0.10483 0.0
O53 O 0.93732 0.33255 0.13751 0.0
O54 O 0.89695 0.12932 0.14393 0.0
O55 O 0.86034 0.17073 0.12499 0.0
O56 O 0.9314 0.2991 0.15557 0.0
O57 O 0.93395 0.23915 0.1788 0.0
C58 C 0.92938 0.28109 0.17546 0.0
O59 O 0.97863 0.27202 0.09417 0.0
O60 O 0.92051 0.26693 0.06811 0.0
C61 C 0.03888 0.2565 0.12361 0.0
C62 C 0.965 0.26866 0.0735 0.0
Zn63 Zn 0.41164 0.15516 0.41635 0.0
Zn64 Zn 0.23782 0.06705 0.38484 0.0
Zn65 Zn 0.33138 0.11192 0.39281 0.0
C66 C 0.30644 0.1085 0.34612 0.0
C67 C 0.26764 0.17395 0.38555 0.0
O68 O 0.29477 0.10198 0.42525 0.0
O69 O 0.36994 0.13047 0.44525 0.0
C70 C 0.41698 0.07412 0.3883 0.0
O71 O 0.33308 0.14753 0.36036 0.0
O72 O 0.26449 0.06474 0.35286 0.0
O73 O 0.2291 0.13139 0.39464 0.0
O74 O 0.30988 0.17234 0.37787 0.0
O75 O 0.44346 0.11104 0.40275 0.0
O76 O 0.369 0.06418 0.38206 0.0
O77 O 0.37298 0.1947 0.37731 0.0
O78 O 0.43465 0.23089 0.40439 0.0
C79 C 0.41355 0.23707 0.38676 0.0
O80 O 0.3033 0.0241 0.3859 0.0
O81 O 0.22924 0.00708 0.40493 0.0
C82 C 0.31794 0.10878 0.4442 0.0
C83 C 0.26093 0.99067 0.39754 0.0
Zn84 Zn 0.73737 0.59412 0.10182 0.0
Zn85 Zn 0.80232 0.74543 0.1611 0.0
Zn86 Zn 0.75415 0.66491 0.13267 0.0
C87 C 0.72107 0.65083 0.18358 0.0
C88 C 0.8859 0.73472 0.14639 0.0
O89 O 0.7331 0.69149 0.10076 0.0
O90 O 0.74622 0.64067 0.07594 0.0
C91 C 0.64526 0.55736 0.13292 0.0
O92 O 0.70606 0.63077 0.16384 0.0
O93 O 0.76305 0.69781 0.18644 0.0
O94 O 0.88255 0.77132 0.15735 0.0
O95 O 0.8424 0.69397 0.13788 0.0
O96 O 0.66061 0.55072 0.11389 0.0
O97 O 0.67898 0.5967 0.14562 0.0
O98 O 0.81742 0.64057 0.13033 0.0
O99 O 0.79276 0.57062 0.10723 0.0
C100 C 0.82594 0.60367 0.12146 0.0
O101 O 0.74488 0.73118 0.11803 0.0
O102 O 0.7696 0.78611 0.14743 0.0
C103 C 0.73584 0.67864 0.08029 0.0
C104 C 0.74935 0.7737 0.1281 0.0
Zn105 Zn 0.83509 0.26089 0.38487 0.0
Zn106 Zn 0.92055 0.17636 0.35727 0.0
Zn107 Zn 0.88882 0.22658 0.3753 0.0
C108 C 0.8807 0.21999 0.32579 0.0
C109 C 0.84143 0.11355 0.39031 0.0
O110 O 0.88248 0.21546 0.41218 0.0
O111 O 0.87405 0.28885 0.4131 0.0
C112 C 0.91845 0.33678 0.3594 0.0
O113 O 0.84817 0.21066 0.34246 0.0
O114 O 0.92124 0.21241 0.32822 0.0
O115 O 0.8537 0.11142 0.37015 0.0
O116 O 0.8633 0.16079 0.40011 0.0
O117 O 0.86614 0.31127 0.35844 0.0
O118 O 0.94235 0.31505 0.37026 0.0
O119 O 0.80748 0.17919 0.35705 0.0
O120 O 0.76417 0.18953 0.38541 0.0
C121 C 0.7626 0.16268 0.36833 0.0
O122 O 0.97791 0.28259 0.36973 0.0
O123 O 0.99116 0.21223 0.37384 0.0
C124 C 0.88711 0.25735 0.42297 0.0
C125 C 0.01061 0.26369 0.37328 0.0
Zn126 Zn 0.15509 0.4227 0.60052 0.0
Zn127 Zn 0.03809 0.25447 0.6346 0.0
Zn128 Zn 0.09689 0.3348 0.61757 0.0
C129 C 0.0922 0.33196 0.66795 0.0
C130 C 0.11218 0.23953 0.6071 0.0
O131 O 0.05444 0.33419 0.58604 0.0
O132 O 0.12913 0.3961 0.56855 0.0
C133 C 0.0575 0.41047 0.61564 0.0
O134 O 0.10235 0.36442 0.65156 0.0
O135 O 0.06895 0.2808 0.66429 0.0
O136 O 0.0647 0.21224 0.61577 0.0
O137 O 0.13861 0.29212 0.60833 0.0
O138 O 0.10815 0.44208 0.62005 0.0
O139 O 0.0432 0.36461 0.60594 0.0
O140 O 0.18172 0.34724 0.6115 0.0
O141 O 0.22923 0.43784 0.60966 0.0
C142 C 0.22837 0.39263 0.61146 0.0
O143 O 0.01666 0.28521 0.59952 0.0
O144 O 0.96326 0.2428 0.628 0.0
C145 C 0.07972 0.3567 0.56764 0.0
C146 C 0.96836 0.25087 0.60727 0.0
Zn147 Zn 0.2652 0.8518 0.90662 0.0
Zn148 Zn 0.17916 0.94213 0.88255 0.0
Zn149 Zn 0.2268 0.89765 0.88734 0.0
C150 C 0.20565 0.90935 0.84146 0.0
C151 C 0.10104 0.8346 0.87896 0.0
O152 O 0.19996 0.89586 0.92126 0.0
O153 O 0.23532 0.84985 0.937 0.0
C154 C 0.35274 0.94367 0.88495 0.0
O155 O 0.19223 0.86802 0.85444 0.0
O156 O 0.20926 0.95259 0.84982 0.0
O157 O 0.10517 0.87507 0.88992 0.0
O158 O 0.1455 0.8376 0.87109 0.0
O159 O 0.34357 0.90772 0.89958 0.0
O160 O 0.31258 0.94865 0.87745 0.0
O161 O 0.19127 0.82156 0.86715 0.0
O162 O 0.23177 0.78529 0.88693 0.0
C163 C 0.20182 0.78237 0.87062 0.0
O164 O 0.28435 0.98702 0.88271 0.0
O165 O 0.22869 0.99642 0.90559 0.0
C166 C 0.20855 0.87501 0.93858 0.0
C167 C 0.27574 0.01706 0.89651 0.0
Zn168 Zn 0.6079 0.74061 0.60551 0.0
Zn169 Zn 0.77295 0.80903 0.64941 0.0
Zn170 Zn 0.68153 0.76 0.62966 0.0
C171 C 0.69841 0.7974 0.68134 0.0
C172 C 0.78165 0.87998 0.61626 0.0
O173 O 0.71451 0.79287 0.59566 0.0
O174 O 0.64048 0.73768 0.57628 0.0
C175 C 0.58416 0.64176 0.62366 0.0
O176 O 0.66795 0.78443 0.66375 0.0
O177 O 0.74705 0.80568 0.67996 0.0
O178 O 0.80527 0.88263 0.63445 0.0
O179 O 0.73899 0.83437 0.61017 0.0
O180 O 0.55881 0.66705 0.61876 0.0
O181 O 0.63711 0.66897 0.62585 0.0
O182 O 0.63064 0.78631 0.64775 0.0
O183 O 0.60476 0.80674 0.61633 0.0
C184 C 0.60942 0.81124 0.63728 0.0
O185 O 0.69578 0.69112 0.63076 0.0
O186 O 0.78404 0.74804 0.63839 0.0
C187 C 0.69193 0.76996 0.57699 0.0
C188 C 0.74551 0.70061 0.63284 0.0
Zn189 Zn 0.05751 0.23152 0.85924 0.0
Zn190 Zn 0.08907 0.37228 0.90336 0.0
Zn191 Zn 0.08675 0.31058 0.87881 0.0
C192 C 0.19211 0.4056 0.88039 0.0
C193 C 0.07554 0.41045 0.86479 0.0
O194 O 0.99891 0.27456 0.88294 0.0
O195 O 0.98191 0.19225 0.8727 0.0
C196 C 0.14887 0.24542 0.88357 0.0
O197 O 0.1558 0.38322 0.86482 0.0
O198 O 0.17488 0.40341 0.90013 0.0
O199 O 0.0499 0.40015 0.8831 0.0
O200 O 0.1043 0.38721 0.86067 0.0
O201 O 0.11824 0.21754 0.86759 0.0
O202 O 0.13933 0.2805 0.89345 0.0
O203 O 0.11994 0.34972 0.84623 0.0
O204 O 0.06859 0.26894 0.83021 0.0
C205 C 0.10141 0.32024 0.82847 0.0
O206 O 0.11344 0.29674 0.91141 0.0
O207 O 0.04982 0.31195 0.92566 0.0
C208 C 0.96525 0.2232 0.88064 0.0
C209 C 0.0812 0.29178 0.92762 0.0
Zn210 Zn 0.25016 0.82754 0.60385 0.0
Zn211 Zn 0.16708 0.91767 0.65248 0.0
Zn212 Zn 0.21453 0.8755 0.63166 0.0
C213 C 0.22738 0.89325 0.68289 0.0
C214 C 0.08518 0.82304 0.63389 0.0
O215 O 0.23599 0.92027 0.59946 0.0
O216 O 0.24251 0.86238 0.57628 0.0
C217 C 0.32673 0.88163 0.64027 0.0
O218 O 0.25355 0.89422 0.66505 0.0
O219 O 0.18345 0.89549 0.68158 0.0
O220 O 0.09183 0.86977 0.63878 0.0
O221 O 0.12676 0.81528 0.63363 0.0
O222 O 0.32175 0.86318 0.62064 0.0
O223 O 0.28678 0.88455 0.64955 0.0
O224 O 0.15251 0.78756 0.62716 0.0
O225 O 0.19295 0.74874 0.60884 0.0
C226 C 0.15149 0.7446 0.61903 0.0
O227 O 0.22367 0.94896 0.61478 0.0
O228 O 0.21304 0.99571 0.64196 0.0
C229 C 0.24046 0.90576 0.57954 0.0
C230 C 0.22642 0.99343 0.62208 0.0
Zn231 Zn 0.56344 0.72871 0.90282 0.0
Zn232 Zn 0.74573 0.81518 0.88214 0.0
Zn233 Zn 0.65103 0.75678 0.88409 0.0
C234 C 0.69351 0.81519 0.8415 0.0
C235 C 0.70608 0.88164 0.89157 0.0
O236 O 0.67259 0.76719 0.91899 0.0
O237 O 0.59397 0.75227 0.93343 0.0
C238 C 0.55854 0.63807 0.87879 0.0
O239 O 0.6587 0.80947 0.85677 0.0
O240 O 0.73718 0.81514 0.84722 0.0
O241 O 0.74292 0.87413 0.90028 0.0
O242 O 0.66946 0.8433 0.87911 0.0
O243 O 0.53482 0.65086 0.89364 0.0
O244 O 0.60536 0.67427 0.87104 0.0
O245 O 0.6135 0.80555 0.86925 0.0
O246 O 0.53325 0.77017 0.88679 0.0
C247 C 0.56592 0.80232 0.8722 0.0
O248 O 0.69333 0.71432 0.86996 0.0
O249 O 0.75272 0.75481 0.89672 0.0
C250 C 0.64389 0.76502 0.93591 0.0
C251 C 0.73316 0.71799 0.88187 0.0
H252 H 0.14307 0.30551 0.13967 0.0
H253 H 0.0414 0.21234 0.08399 0.0
H254 H 0.1135 0.19331 0.07137 0.0
H255 H 0.28909 0.3427 0.11027 0.0
H256 H 0.31349 0.33449 0.13693 0.0
H257 H 0.27046 0.36547 0.1352 0.0
H258 H 0.20226 0.29405 0.16327 0.0
H259 H 0.24421 0.26273 0.16499 0.0
H260 H 0.1724 0.22154 0.15726 0.0
H261 H 0.16852 0.15083 0.07448 0.0
H262 H 0.20633 0.09652 0.09106 0.0
H263 H 0.27871 0.21513 0.14445 0.0
C264 C 0.13824 0.28429 0.12403 0.0
C265 C 0.08788 0.26182 0.11234 0.0
C266 C 0.08083 0.23212 0.09251 0.0
C267 C 0.12169 0.22082 0.08532 0.0
C268 C 0.1692 0.23927 0.09827 0.0
C269 C 0.17873 0.27215 0.11691 0.0
C270 C 0.22599 0.276 0.13072 0.0
C271 C 0.27783 0.33304 0.12812 0.0
C272 C 0.21014 0.26266 0.15548 0.0
C273 C 0.23412 0.23233 0.11934 0.0
C274 C 0.20326 0.214 0.09992 0.0
C275 C 0.19468 0.16633 0.08904 0.0
C276 C 0.2156 0.13528 0.09869 0.0
C277 C 0.24521 0.15234 0.11884 0.0
C278 C 0.25714 0.20264 0.12868 0.0
H279 H 0.21764 0.92139 0.36308 0.0
H280 H 0.24403 0.92791 0.43396 0.0
H281 H 0.15499 0.84259 0.43872 0.0
H282 H 0.09976 0.90412 0.36517 0.0
H283 H 0.06551 0.85711 0.34245 0.0
H284 H 0.13911 0.89938 0.34227 0.0
H285 H 0.15136 0.81408 0.3391 0.0
H286 H 0.07714 0.77088 0.33825 0.0
H287 H 0.11677 0.75816 0.35858 0.0
H288 H 0.05213 0.78315 0.43763 0.0
H289 H 0.9526 0.74653 0.42955 0.0
H290 H 0.99173 0.77799 0.35937 0.0
C291 C 0.20685 0.90172 0.37923 0.0
C292 C 0.23768 0.93072 0.39808 0.0
C293 C 0.22148 0.90558 0.41924 0.0
C294 C 0.17024 0.85737 0.42212 0.0
C295 C 0.13646 0.83404 0.40356 0.0
C296 C 0.1551 0.85415 0.38228 0.0
C297 C 0.10775 0.83 0.36577 0.0
C298 C 0.10278 0.87535 0.35323 0.0
C299 C 0.11362 0.79094 0.34946 0.0
C300 C 0.05941 0.79824 0.38133 0.0
C301 C 0.07643 0.79949 0.40298 0.0
C302 C 0.03837 0.78009 0.42059 0.0
C303 C 0.98193 0.75972 0.41593 0.0
C304 C 0.96442 0.75971 0.39387 0.0
C305 C 0.00366 0.77733 0.37645 0.0
H306 H 0.77495 0.04096 0.154 0.0
H307 H 0.85189 0.09462 0.08953 0.0
H308 H 0.80037 -0.00084 0.07561 0.0
H309 H 0.78584 0.93718 0.16109 0.0
H310 H 0.71961 0.88908 0.17298 0.0
H311 H 0.74434 0.96118 0.17489 0.0
H312 H 0.65537 0.94745 0.15569 0.0
H313 H 0.63017 0.87446 0.15368 0.0
H314 H 0.63508 0.91329 0.12907 0.0
H315 H 0.77864 0.90402 0.07509 0.0
H316 H 0.77728 0.81929 0.08664 0.0
H317 H 0.69515 0.8178 0.14777 0.0
C318 C 0.77818 0.03232 0.13666 0.0
C319 C 0.81697 0.07388 0.12277 0.0
C320 C 0.82179 0.06257 0.10026 0.0
C321 C 0.79238 0.0086 0.0922 0.0
C322 C 0.75694 0.96705 0.10671 0.0
C323 C 0.74763 0.97865 0.12824 0.0
C324 C 0.71464 0.92639 0.1415 0.0
C325 C 0.74289 0.92864 0.16388 0.0
C326 C 0.65528 0.91471 0.14519 0.0
C327 C 0.7154 0.88497 0.12548 0.0
C328 C 0.73832 0.90877 0.10515 0.0
C329 C 0.75732 0.88351 0.09022 0.0
C330 C 0.75604 0.83494 0.09676 0.0
C331 C 0.73393 0.81121 0.11762 0.0
C332 C 0.71018 0.83455 0.13135 0.0
H333 H 0.2377 0.20887 0.34896 0.0
H334 H 0.27744 0.24346 0.41867 0.0
H335 H 0.23647 0.3036 0.41906 0.0
H336 H 0.24327 0.34978 0.33477 0.0
H337 H 0.18534 0.31312 0.31626 0.0
H338 H 0.23632 0.29193 0.31896 0.0
H339 H 0.15895 0.19314 0.32894 0.0
H340 H 0.10831 0.21386 0.32615 0.0
H341 H 0.11312 0.18348 0.35186 0.0
H342 H 0.16611 0.33124 0.41557 0.0
H343 H 0.07432 0.32081 0.40866 0.0
H344 H 0.07982 0.27305 0.3408 0.0
C345 C 0.24084 0.23225 0.36381 0.0
C346 C 0.26177 0.22304 0.38362 0.0
C347 C 0.26278 0.25141 0.40321 0.0
C348 C 0.2396 0.2857 0.40353 0.0
C349 C 0.21566 0.29135 0.38407 0.0
C350 C 0.21716 0.26621 0.36436 0.0
C351 C 0.17923 0.26922 0.34711 0.0
C352 C 0.21307 0.30835 0.32815 0.0
C353 C 0.13744 0.21153 0.33804 0.0
C354 C 0.15129 0.29373 0.36094 0.0
C355 C 0.17455 0.30856 0.38195 0.0
C356 C 0.1491 0.32219 0.39892 0.0
C357 C 0.09707 0.31682 0.39484 0.0
C358 C 0.07115 0.29794 0.37398 0.0
C359 C 0.10034 0.2901 0.35651 0.0
H360 H 0.1707 0.91962 0.10275 0.0
H361 H 0.22943 0.85789 0.15544 0.0
H362 H 0.13973 0.77217 0.15632 0.0
H363 H 0.06181 0.89551 0.11773 0.0
H364 H 0.01568 0.86656 0.09429 0.0
H365 H 0.08825 0.90782 0.08959 0.0
H366 H 0.08952 0.82933 0.06764 0.0
H367 H 0.01579 0.78744 0.07164 0.0
H368 H 0.06079 0.76182 0.07981 0.0
H369 H 0.04078 0.72147 0.16358 0.0
H370 H 0.94479 0.70005 0.17081 0.0
H371 H 0.94748 0.78527 0.11067 0.0
C372 C 0.16634 0.88567 0.11276 0.0
C373 C 0.20704 0.89455 0.12858 0.0
C374 C 0.19895 0.85115 0.14284 0.0
C375 C 0.148 0.80221 0.14343 0.0
C376 C 0.10633 0.79664 0.12908 0.0
C377 C 0.11603 0.83583 0.11294 0.0
C378 C 0.06243 0.82476 0.10216 0.0
C379 C 0.05678 0.87674 0.10096 0.0
C380 C 0.05681 0.79932 0.07894 0.0
C381 C 0.02143 0.78221 0.11807 0.0
C382 C 0.04713 0.76405 0.13272 0.0
C383 C 0.01973 0.73317 0.15157 0.0
C384 C 0.96564 0.72183 0.15577 0.0
C385 C 0.93984 0.74117 0.14113 0.0
C386 C 0.967 0.76968 0.12174 0.0
H387 H 0.7004 0.80431 0.3712 0.0
H388 H 0.75342 0.79121 0.43711 0.0
H389 H 0.76062 0.87964 0.44757 0.0
H390 H 0.79325 0.9286 0.36308 0.0
H391 H 0.75488 0.95317 0.34749 0.0
H392 H 0.73222 0.88119 0.34774 0.0
H393 H 0.636 0.85859 0.3625 0.0
H394 H 0.65782 0.93095 0.3618 0.0
H395 H 0.63095 0.89253 0.3872 0.0
H396 H 0.79407 0.98168 0.44618 0.0
H397 H 0.83976 0.07927 0.43388 0.0
H398 H 0.7595 0.02558 0.36983 0.0
C399 C 0.70871 0.81787 0.38837 0.0
C400 C 0.7248 0.79022 0.40353 0.0
C401 C 0.73918 0.81084 0.42549 0.0
C402 C 0.74399 0.86159 0.43147 0.0
C403 C 0.73321 0.89091 0.41541 0.0
C404 C 0.71386 0.8687 0.39445 0.0
C405 C 0.71525 0.91177 0.37885 0.0
C406 C 0.75104 0.91909 0.35811 0.0
C407 C 0.65649 0.89759 0.37221 0.0
C408 C 0.74199 0.96227 0.39369 0.0
C409 C 0.75151 0.94977 0.41485 0.0
C410 C 0.78483 0.99166 0.42995 0.0
C411 C 0.81057 0.04716 0.42292 0.0
C412 C 0.80295 0.06 0.40097 0.0
C413 C 0.76562 0.017 0.38683 0.0
H414 H 0.28612 0.10531 0.62538 0.0
H415 H 0.16572 0.97107 0.58494 0.0
H416 H 0.1395 0.03325 0.56722 0.0
H417 H 0.21956 0.1586 0.64104 0.0
H418 H 0.26656 0.2316 0.63822 0.0
H419 H 0.29339 0.18585 0.64071 0.0
H420 H 0.34706 0.22148 0.60373 0.0
H421 H 0.32138 0.26888 0.60132 0.0
H422 H 0.31108 0.22181 0.57892 0.0
H423 H 0.09953 0.09214 0.5676 0.0
H424 H 0.0636 0.1529 0.57889 0.0
H425 H 0.21508 0.25719 0.61473 0.0
C426 C 0.25712 0.09049 0.61166 0.0
C427 C 0.22825 0.03401 0.60628 0.0
C428 C 0.18913 0.01462 0.58886 0.0
C429 C 0.17388 0.04973 0.57873 0.0
C430 C 0.19956 0.10446 0.5857 0.0
C431 C 0.2427 0.12581 0.6009 0.0
C432 C 0.2575 0.18363 0.60793 0.0
C433 C 0.25922 0.19017 0.63347 0.0
C434 C 0.31252 0.22648 0.59734 0.0
C435 C 0.20991 0.18699 0.59763 0.0
C436 C 0.17803 0.14169 0.58422 0.0
C437 C 0.12572 0.12944 0.57685 0.0
C438 C 0.10535 0.16374 0.5835 0.0
C439 C 0.13757 0.21007 0.59707 0.0
C440 C 0.19111 0.22306 0.60353 0.0
H441 H 0.01994 0.77425 0.90815 0.0
H442 H 0.05533 0.79814 0.83772 0.0
H443 H 0.95484 0.74407 0.82952 0.0
H444 H 0.88888 0.63102 0.90371 0.0
H445 H 0.85763 0.64848 0.92622 0.0
H446 H 0.93137 0.67561 0.92583 0.0
H447 H 0.94763 0.77496 0.92889 0.0
H448 H 0.87451 0.74822 0.92942 0.0
H449 H 0.91627 0.79821 0.90865 0.0
H450 H 0.8518 0.71142 0.83013 0.0
H451 H 0.76176 0.70344 0.83952 0.0
H452 H 0.79197 0.69148 0.90926 0.0
C453 C 0.00644 0.76537 0.89099 0.0
C454 C 0.04502 0.7892 0.87356 0.0
C455 C 0.02629 0.77885 0.85127 0.0
C456 C 0.96923 0.74833 0.84651 0.0
C457 C 0.93169 0.72739 0.86423 0.0
C458 C 0.94993 0.73442 0.88605 0.0
C459 C 0.90235 0.71499 0.90229 0.0
C460 C 0.89459 0.66451 0.91528 0.0
C461 C 0.9107 0.76187 0.91821 0.0
C462 C 0.85475 0.69956 0.88639 0.0
C463 C 0.87198 0.70607 0.86444 0.0
C464 C 0.83736 0.70407 0.84718 0.0
C465 C 0.78572 0.6988 0.85261 0.0
C466 C 0.76944 0.69589 0.87511 0.0
C467 C 0.80272 0.69203 0.89188 0.0
H468 H 0.7517 0.95564 0.62393 0.0
H469 H 0.85389 0.91888 0.58129 0.0
H470 H 0.89473 0.01192 0.56457 0.0
H471 H 0.7378 0.05657 0.58424 0.0
H472 H 0.74269 0.09941 0.60754 0.0
H473 H 0.70971 0.02574 0.61089 0.0
H474 H 0.77597 0.03895 0.64351 0.0
H475 H 0.80807 0.11202 0.64041 0.0
H476 H 0.84964 0.07942 0.63911 0.0
H477 H 0.93921 0.11266 0.55952 0.0
H478 H 0.99007 0.21005 0.57002 0.0
H479 H 0.8587 0.18457 0.61517 0.0
C480 C 0.78096 0.96675 0.61035 0.0
C481 C 0.79916 0.93048 0.60344 0.0
C482 C 0.83889 0.94618 0.58635 0.0
C483 C 0.86188 -0.00127 0.57672 0.0
C484 C 0.84429 0.03467 0.58433 0.0
C485 C 0.80438 0.0191 0.60075 0.0
C486 C 0.80005 0.06781 0.60911 0.0
C487 C 0.74424 0.06202 0.60254 0.0
C488 C 0.80905 0.07497 0.63451 0.0
C489 C 0.84711 0.11416 0.59634 0.0
C490 C 0.87056 0.09396 0.58141 0.0
C491 C 0.92006 0.12892 0.57051 0.0
C492 C 0.9485 0.18489 0.5763 0.0
C493 C 0.9279 0.20522 0.59314 0.0
C494 C 0.87452 0.17027 0.60183 0.0
H495 H 0.20516 0.21741 0.85525 0.0
H496 H 0.19797 0.25499 0.92467 0.0
H497 H 0.26525 0.22451 0.93368 0.0
H498 H 0.19452 0.09762 0.86185 0.0
H499 H 0.2404 0.10231 0.83972 0.0
H500 H 0.20763 0.14295 0.83854 0.0
H501 H 0.30394 0.23107 0.83488 0.0
H502 H 0.33704 0.19004 0.83655 0.0
H503 H 0.35613 0.2464 0.85567 0.0
H504 H 0.30994 0.16685 0.9362 0.0
H505 H 0.31622 0.08277 0.93278 0.0
H506 H 0.2982 0.08426 0.86153 0.0
C507 C 0.21914 0.22084 0.87229 0.0
C508 C 0.19612 0.23787 0.88933 0.0
C509 C 0.2153 0.24214 0.91137 0.0
C510 C 0.2538 0.22524 0.91655 0.0
C511 C 0.27361 0.20571 0.89939 0.0
C512 C 0.25729 0.20433 0.87758 0.0
C513 C 0.27595 0.17305 0.86269 0.0
C514 C 0.22671 0.12623 0.85001 0.0
C515 C 0.32096 0.2125 0.84649 0.0
C516 C 0.29977 0.15123 0.87985 0.0
C517 C 0.30061 0.17276 0.90079 0.0
C518 C 0.31122 0.15124 0.91984 0.0
C519 C 0.31554 0.10368 0.91774 0.0
C520 C 0.30825 0.0776 0.89682 0.0
C521 C 0.30587 0.10471 0.87753 0.0
H522 H 0.0075 0.73868 0.65816 0.0
H523 H 0.04242 0.81132 0.59264 0.0
H524 H 0.94689 0.74544 0.58082 0.0
H525 H 0.88954 0.59013 0.6386 0.0
H526 H 0.85171 0.58425 0.66376 0.0
H527 H 0.92631 0.61945 0.66416 0.0
H528 H 0.92946 0.70642 0.68076 0.0
H529 H 0.85574 0.67115 0.68084 0.0
H530 H 0.89384 0.73621 0.66654 0.0
H531 H 0.84647 0.69238 0.57904 0.0
H532 H 0.75691 0.68105 0.58997 0.0
H533 H 0.78171 0.6445 0.65715 0.0
C534 C 0.99502 0.73867 0.64111 0.0
C535 C 0.03134 0.7791 0.62619 0.0
C536 C 0.01457 0.7799 0.60415 0.0
C537 C 0.96069 0.7421 0.59725 0.0
C538 C 0.92426 0.70365 0.61261 0.0
C539 C 0.9409 0.70173 0.63417 0.0
C540 C 0.89172 0.66642 0.64889 0.0
C541 C 0.88968 0.61182 0.65416 0.0
C542 C 0.89276 0.69696 0.67047 0.0
C543 C 0.84478 0.65683 0.6334 0.0
C544 C 0.86418 0.67411 0.61195 0.0
C545 C 0.83065 0.67762 0.59558 0.0
C546 C 0.77901 0.67018 0.60186 0.0
C547 C 0.76338 0.66285 0.6245 0.0
C548 C 0.79301 0.64926 0.63972 0.0
H549 H 0.91869 0.17141 0.91868 0.0
H550 H 0.88224 0.21148 0.85401 0.0
H551 H 0.78725 0.13282 0.85629 0.0
H552 H 0.87476 0.04828 0.91066 0.0
H553 H 0.84291 0.01805 0.93695 0.0
H554 H 0.8951 0.08891 0.93587 0.0
H555 H 0.82874 0.11739 0.95352 0.0
H556 H 0.7758 0.04582 0.9551 0.0
H557 H 0.76182 0.09452 0.94129 0.0
H558 H 0.71631 0.03522 0.85815 0.0
H559 H 0.67755 0.93471 0.86045 0.0
H560 H 0.75436 0.95461 0.92482 0.0
C561 C 0.8889 0.16581 0.90596 0.0
C562 C 0.90666 0.19778 0.8865 0.0
C563 C 0.86844 0.18827 0.86936 0.0
C564 C 0.81441 0.14336 0.87052 0.0
C565 C 0.7993 0.10877 0.88904 0.0
C566 C 0.83506 0.12062 0.9069 0.0
C567 C 0.81467 0.0717 0.92238 0.0
C568 C 0.85949 0.05584 0.92664 0.0
C569 C 0.79401 0.08305 0.94437 0.0
C570 C 0.76687 0.02844 0.90887 0.0
C571 C 0.7568 0.05093 0.89021 0.0
C572 C 0.72214 0.01744 0.87313 0.0
C573 C 0.70004 0.96018 0.87455 0.0
C574 C 0.7128 0.93721 0.89291 0.0
C575 C 0.74354 0.97147 0.91079 0.0
H576 H 0.32337 0.1761 0.31002 0.0
H577 H 0.3362 0.03623 0.33224 0.0
H578 H 0.36296 0.02407 0.29441 0.0
H579 H 0.2563 0.11596 0.26118 0.0
H580 H 0.28871 0.17725 0.24432 0.0
H581 H 0.2829 0.18287 0.27387 0.0
H582 H 0.38887 0.24794 0.27655 0.0
H583 H 0.39494 0.24233 0.24689 0.0
H584 H 0.43476 0.22578 0.26565 0.0
H585 H 0.37721 0.01957 0.25346 0.0
H586 H 0.36835 0.01781 0.21236 0.0
H587 H 0.34074 0.15653 0.21607 0.0
C588 C 0.33389 0.14437 0.30696 0.0
C589 C 0.32942 0.10804 0.32406 0.0
C590 C 0.3408 0.06522 0.31937 0.0
C591 C 0.35611 0.05805 0.29795 0.0
C592 C 0.35917 0.09367 0.28121 0.0
C593 C 0.34813 0.13588 0.2854 0.0
C594 C 0.34678 0.1633 0.26389 0.0
C595 C 0.29031 0.15956 0.26063 0.0
C596 C 0.39416 0.22341 0.26321 0.0
C597 C 0.35605 0.12825 0.24703 0.0
C598 C 0.36491 0.08945 0.25735 0.0
C599 C 0.37121 0.05036 0.24516 0.0
C600 C 0.36651 0.04979 0.22182 0.0
C601 C 0.35438 0.08725 0.21109 0.0
C602 C 0.35074 0.12783 0.22387 0.0
H603 H 0.72315 0.70513 0.30666 0.0
H604 H 0.76066 0.5749 0.31841 0.0
H605 H 0.72916 0.53989 0.28005 0.0
H606 H 0.60091 0.62656 0.27012 0.0
H607 H 0.62045 0.68648 0.25316 0.0
H608 H 0.63679 0.69432 0.28243 0.0
H609 H 0.74053 0.75982 0.27337 0.0
H610 H 0.72418 0.75298 0.24431 0.0
H611 H 0.77515 0.73693 0.25447 0.0
H612 H 0.70989 0.53138 0.23795 0.0
H613 H 0.71067 0.5537 0.198 0.0
H614 H 0.67989 0.68534 0.21569 0.0
C615 C 0.72393 0.66853 0.30147 0.0
C616 C 0.74553 0.6434 0.31542 0.0
C617 C 0.74528 0.59544 0.30787 0.0
C618 C 0.72685 0.57499 0.28619 0.0
C619 C 0.70748 0.60219 0.2726 0.0
C620 C 0.70548 0.6477 0.2802 0.0
C621 C 0.68929 0.67406 0.26208 0.0
C622 C 0.63352 0.67007 0.26727 0.0
C623 C 0.735 0.73443 0.25834 0.0
C624 C 0.68449 0.63775 0.24264 0.0
C625 C 0.69426 0.59587 0.24891 0.0
C626 C 0.70035 0.56278 0.233 0.0
C627 C 0.69993 0.57512 0.2103 0.0
C628 C 0.69374 0.62022 0.20391 0.0
C629 C 0.68238 0.64927 0.22022 0.0
H630 H 0.99672 0.33813 0.20917 0.0
H631 H 0.82805 0.26383 0.18621 0.0
H632 H 0.79573 0.25672 0.22499 0.0
H633 H 0.97753 0.25525 0.24828 0.0
H634 H 0.02386 0.30145 0.26919 0.0
H635 H 0.03613 0.32058 0.24047 0.0
H636 H 0.03415 0.41035 0.24855 0.0
H637 H 0.02345 0.39241 0.27767 0.0
H638 H 0.97602 0.40705 0.26306 0.0
H639 H 0.78054 0.23268 0.26584 0.0
H640 H 0.78569 0.20156 0.30396 0.0
H641 H 0.9643 0.29094 0.29982 0.0
C642 C 0.95359 0.32458 0.21233 0.0
C643 C 0.91501 0.30316 0.19486 0.0
C644 C 0.85833 0.28245 0.1994 0.0
C645 C 0.83961 0.27772 0.22145 0.0
C646 C 0.87837 0.29501 0.23863 0.0
C647 C 0.93458 0.3198 0.23422 0.0
C648 C 0.96715 0.32653 0.25523 0.0
C649 C 0.00318 0.29927 0.25314 0.0
C650 C 0.00227 0.38773 0.2615 0.0
C651 C 0.92042 0.29644 0.2716 0.0
C652 C 0.86952 0.28018 0.26209 0.0
C653 C 0.82031 0.24665 0.27362 0.0
C654 C 0.82342 0.22885 0.2952 0.0
C655 C 0.87526 0.2434 0.30462 0.0
C656 C 0.92404 0.27892 0.29288 0.0
H657 H 0.08837 0.26881 0.70174 0.0
H658 H 0.12767 0.43605 0.68733 0.0
H659 H 0.14414 0.45821 0.72796 0.0
H660 H 0.01099 0.25501 0.74943 0.0
H661 H 0.03091 0.20979 0.76247 0.0
H662 H 0.02759 0.21186 0.73266 0.0
H663 H 0.12989 0.23454 0.73003 0.0
H664 H 0.13355 0.23291 0.75987 0.0
H665 H 0.18283 0.29332 0.74484 0.0
H666 H 0.14872 0.45541 0.77294 0.0
H667 H 0.13845 0.42761 0.81297 0.0
H668 H 0.09758 0.26315 0.79261 0.0
C669 C 0.10089 0.31057 0.70675 0.0
C670 C 0.10663 0.35062 0.69131 0.0
C671 C 0.12319 0.40461 0.69894 0.0
C672 C 0.13252 0.41741 0.72195 0.0
C673 C 0.12516 0.3757 0.73677 0.0
C674 C 0.10964 0.32344 0.72907 0.0
C675 C 0.09995 0.2835 0.74737 0.0
C676 C 0.03878 0.23738 0.74802 0.0
C677 C 0.13892 0.25974 0.7454 0.0
C678 C 0.11409 0.32121 0.76693 0.0
C679 C 0.12797 0.37426 0.76107 0.0
C680 C 0.13832 0.41399 0.77746 0.0
C681 C 0.13268 0.39807 0.80012 0.0
C682 C 0.11675 0.34305 0.80581 0.0
C683 C 0.10944 0.30545 0.7889 0.0
H684 H 0.15366 0.83038 0.80914 0.0
H685 H 0.2982 0.98946 0.82197 0.0
H686 H 0.33002 0.9927 0.78329 0.0
H687 H 0.21681 0.77827 0.76795 0.0
H688 H 0.15588 0.74773 0.75068 0.0
H689 H 0.14956 0.75284 0.78036 0.0
H690 H 0.09654 0.80565 0.7741 0.0
H691 H 0.10195 0.79979 0.74454 0.0
H692 H 0.12732 0.86667 0.75705 0.0
H693 H 0.34235 0.98263 0.74245 0.0
H694 H 0.32562 0.96773 0.70184 0.0
H695 H 0.1702 0.8191 0.71487 0.0
C696 C 0.19246 0.86525 0.8038 0.0
C697 C 0.22376 0.90954 0.8184 0.0
C698 C 0.27367 0.95525 0.81088 0.0
C699 C 0.29237 0.95714 0.78905 0.0
C700 C 0.26036 0.9132 0.77484 0.0
C701 C 0.21097 0.86849 0.78181 0.0
C702 C 0.18041 0.83074 0.76247 0.0
C703 C 0.17539 0.77403 0.76556 0.0
C704 C 0.12321 0.82546 0.75936 0.0
C705 C 0.21933 0.86212 0.74347 0.0
C706 C 0.26617 0.90859 0.75103 0.0
C707 C 0.30626 0.94592 0.73635 0.0
C708 C 0.29684 0.93696 0.71332 0.0
C709 C 0.24726 0.8918 0.70539 0.0
C710 C 0.20916 0.85308 0.72063 0.0
H711 H 0.75999 0.86993 0.71321 0.0
H712 H 0.59487 0.735 0.69993 0.0
H713 H 0.57117 0.73354 0.7399 0.0
H714 H 0.78297 0.82111 0.76035 0.0
H715 H 0.82055 0.88586 0.7749 0.0
H716 H 0.82015 0.88463 0.74502 0.0
H717 H 0.78218 0.95213 0.74412 0.0
H718 H 0.78319 0.95431 0.77413 0.0
H719 H 0.72014 0.93567 0.75934 0.0
H720 H 0.57053 0.74027 0.78229 0.0
H721 H 0.59317 0.75132 0.82246 0.0
H722 H 0.76156 0.87681 0.8074 0.0
C723 C 0.71821 0.84124 0.71859 0.0
C724 C 0.67891 0.80306 0.70352 0.0
C725 C 0.62502 0.7655 0.71115 0.0
C726 C 0.61144 0.76428 0.73383 0.0
C727 C 0.65214 0.8013 0.74844 0.0
C728 C 0.7043 0.83949 0.74099 0.0
C729 C 0.74262 0.87108 0.76004 0.0
C730 C 0.79459 0.86524 0.76007 0.0
C731 C 0.75794 0.9319 0.75937 0.0
C732 C 0.70541 0.84199 0.77961 0.0
C733 C 0.6527 0.80337 0.77264 0.0
C734 C 0.61146 0.77081 0.78784 0.0
C735 C 0.62469 0.77743 0.8106 0.0
C736 C 0.67912 0.81497 0.81788 0.0
C737 C 0.71971 0.84795 0.80219 0.0
H738 H 0.26643 0.97672 0.95559 0.0
H739 H 0.1423 0.80967 0.97211 0.0
H740 H 0.15342 0.83444 0.01221 0.0
H741 H 0.3536 0.98534 0.99811 0.0
H742 H 0.38182 0.05769 0.00363 0.0
H743 H 0.3564 0.03065 0.97629 0.0
H744 H 0.28962 0.06952 0.97755 0.0
H745 H 0.31593 0.09801 0.00466 0.0
H746 H 0.24272 0.0528 1.00071 0.0
H747 H 0.19187 0.87356 0.05063 0.0
H748 H 0.24696 0.92687 0.08336 0.0
H749 H 0.34232 0.06803 0.04104 0.0
C750 C 0.23944 0.94632 0.96762 0.0
C751 C 0.20179 0.89198 0.96092 0.0
C752 C 0.16986 0.85197 0.97706 0.0
C753 C 0.17636 0.86561 0.99981 0.0
C754 C 0.21581 0.9191 0.00602 0.0
C755 C 0.24651 0.95896 0.99031 0.0
C756 C 0.29128 0.01098 1.00112 0.0
C757 C 0.34915 0.02176 0.99438 0.0
C758 C 0.28441 0.06075 0.99569 0.0
C759 C 0.27976 0.99495 0.02535 0.0
C760 C 0.23694 0.94159 0.02797 0.0
C761 C 0.22379 0.91623 0.04884 0.0
C762 C 0.25442 0.94687 0.06746 0.0
C763 C 0.29629 0.00248 0.06522 0.0
C764 C 0.30929 0.02613 0.0437 0.0
H765 H 0.76111 0.63506 0.47672 0.0
H766 H 0.85257 0.79549 0.44562 0.0
H767 H 0.84475 0.83889 0.48057 0.0
H768 H 0.66344 0.65717 0.50043 0.0
H769 H 0.65476 0.61737 0.52516 0.0
H770 H 0.67788 0.60131 0.4998 0.0
H771 H 0.76505 0.61264 0.51987 0.0
H772 H 0.742 0.62831 0.54547 0.0
H773 H 0.80964 0.67565 0.53461 0.0
H774 H 0.81579 0.86234 0.51857 0.0
H775 H 0.76747 0.86201 0.55356 0.0
H776 H 0.69074 0.68459 0.55661 0.0
C777 C 0.78119 0.67957 0.47737 0.0
C778 C 0.80788 0.71194 0.45848 0.0
C779 C 0.83282 0.76995 0.46003 0.0
C780 C 0.82822 0.79483 0.47979 0.0
C781 C 0.79896 0.76103 0.49777 0.0
C782 C 0.77627 0.70452 0.49661 0.0
C783 C 0.74129 0.67583 0.51674 0.0
C784 C 0.6808 0.6356 0.51012 0.0
C785 C 0.76599 0.64639 0.52995 0.0
C786 C 0.74645 0.7247 0.52936 0.0
C787 C 0.78064 0.77382 0.51857 0.0
C788 C 0.78946 0.82406 0.52715 0.0
C789 C 0.76208 0.82365 0.54699 0.0
C790 C 0.72563 0.77327 0.55756 0.0
C791 C 0.71846 0.72362 0.54873 0.0
H792 H 0.99798 0.20973 0.95005 0.0
H793 H 0.17026 0.33478 0.95513 0.0
H794 H 0.16374 0.32876 0.99622 0.0
H795 H 0.95048 0.25771 0.98691 0.0
H796 H 0.89818 0.19452 0.99941 0.0
H797 H 0.92032 0.19394 0.97147 0.0
H798 H 0.94603 0.12007 0.98185 0.0
H799 H 0.92282 0.11943 0.00994 0.0
H800 H 0.99178 0.13185 0.00496 0.0
H801 H 0.13129 0.32864 0.03534 0.0
H802 H 0.07798 0.32789 0.06859 0.0
H803 H 0.92729 0.20198 0.03777 0.0
C804 C 0.03511 0.23284 0.9599 0.0
C805 C 0.08484 0.27165 0.94967 0.0
C806 C 0.13233 0.30351 0.9628 0.0
C807 C 0.12876 0.30062 0.98615 0.0
C808 C 0.07772 0.26476 0.9959 0.0
C809 C 0.03206 0.23006 0.98311 0.0
C810 C 0.98005 0.20167 0.99706 0.0
C811 C 0.93469 0.21271 0.98818 0.0
C812 C 0.95895 0.13957 0.99854 0.0
C813 C 0.00241 0.22959 0.0192 0.0
C814 C 0.05903 0.26471 0.01851 0.0
C815 C 0.08732 0.29984 0.0363 0.0
C816 C 0.05687 0.29938 0.05507 0.0
C817 C 0.9989 0.26434 0.0557 0.0
C818 C 0.97182 0.22846 0.03775 0.0
H819 H 0.35006 0.13619 0.48745 0.0
H820 H 0.21322 0.02004 0.44653 0.0
H821 H 0.17091 0.96078 0.47921 0.0
H822 H 0.36909 0.0482 0.51695 0.0
H823 H 0.38263 0.08158 0.54375 0.0
H824 H 0.39591 0.12145 0.51882 0.0
H825 H 0.33211 0.15759 0.53265 0.0
H826 H 0.3185 0.11817 0.5579 0.0
H827 H 0.26196 0.10946 0.54066 0.0
H828 H 0.15623 0.90484 0.51302 0.0
H829 H 0.16355 0.86076 0.54737 0.0
H830 H 0.30572 0.01456 0.568 0.0
C831 C 0.30992 0.09952 0.48563 0.0
C832 C 0.28496 0.08271 0.46444 0.0
C833 C 0.23292 0.03406 0.46257 0.0
C834 C 0.20854 4e-05 0.48109 0.0
C835 C 0.23581 0.01623 0.5015 0.0
C836 C 0.28448 0.06573 0.50409 0.0
C837 C 0.30791 0.07113 0.52733 0.0
C838 C 0.36737 0.08114 0.52664 0.0
C839 C 0.30495 0.11679 0.54041 0.0
C840 C 0.26773 0.01487 0.53668 0.0
C841 C 0.22584 0.98429 0.52162 0.0
C842 C 0.18764 0.92892 0.52524 0.0
C843 C 0.19241 0.90411 0.54464 0.0
C844 C 0.23482 0.93462 0.56022 0.0
C845 C 0.27233 0.99091 0.55644 0.0
H846 H 0.7679 0.68235 0.03716 0.0
H847 H 0.67545 0.73142 0.08031 0.0
H848 H 0.65468 0.77271 0.04807 0.0
H849 H 0.82181 0.79577 0.99722 0.0
H850 H 0.80964 0.75085 0.97376 0.0
H851 H 0.82461 0.73338 1.00071 0.0
H852 H 0.73408 0.63895 0.99901 0.0
H853 H 0.71901 0.65605 0.97208 0.0
H854 H 0.66931 0.63678 0.99431 0.0
H855 H 0.63698 0.80062 0.01093 0.0
H856 H 0.61654 0.80635 0.97142 0.0
H857 H 0.71652 0.73464 0.95199 0.0
C858 C 0.7443 0.70289 0.03994 0.0
C859 C 0.72543 0.70608 0.06146 0.0
C860 C 0.69269 0.73111 0.0642 0.0
C861 C 0.68037 0.75423 0.04594 0.0
C862 C 0.70001 0.75067 0.02499 0.0
C863 C 0.73066 0.72495 0.02186 0.0
C864 C 0.74082 0.72027 0.99737 0.0
C865 C 0.80293 0.75199 0.99195 0.0
C866 C 0.71421 0.65942 0.99028 0.0
C867 C 0.71116 0.74759 0.98712 0.0
C868 C 0.68828 0.76518 0.00339 0.0
C869 C 0.6553 0.78773 0.99807 0.0
C870 C 0.64399 0.79089 0.97561 0.0
C871 C 0.66563 0.77169 0.95873 0.0
C872 C 0.70083 0.75111 0.96454 0.0
H873 H 0.03604 0.26559 0.53992 0.0
H874 H 0.05471 0.42758 0.54848 0.0
H875 H 0.004 0.41578 0.51346 0.0
H876 H 0.0543 0.27179 0.48116 0.0
H877 H 0.00276 0.20112 0.47568 0.0
H878 H 0.03766 0.21995 0.50216 0.0
H879 H 0.94367 0.17763 0.5224 0.0
H880 H 0.90806 0.15862 0.49605 0.0
H881 H 0.89554 0.20034 0.51545 0.0
H882 H 0.95439 0.38919 0.47874 0.0
H883 H 0.90972 0.35195 0.44338 0.0
H884 H 0.92128 0.20448 0.45422 0.0
C885 C 0.02811 0.29776 0.53457 0.0
C886 C 0.0482 0.34721 0.54694 0.0
C887 C 0.03924 0.3895 0.53918 0.0
C888 C 0.01038 0.38301 0.51941 0.0
C889 C 0.99088 0.33393 0.50757 0.0
C890 C 0.99918 0.29189 0.51466 0.0
C891 C 0.97502 0.24439 0.49796 0.0
C892 C 0.02015 0.23371 0.48869 0.0
C893 C 0.92776 0.19215 0.5086 0.0
C894 C 0.95319 0.26723 0.48015 0.0
C895 C 0.96243 0.3186 0.48654 0.0
C896 C 0.94669 0.34899 0.47353 0.0
C897 C 0.92101 0.32691 0.4533 0.0
C898 C 0.91134 0.2747 0.4457 0.0
C899 C 0.92768 0.24422 0.45946 0.0
H900 H 0.7432 0.1871 0.1478 0.0
H901 H 0.72179 0.12527 0.08039 0.0
H902 H 0.6228 0.06022 0.08804 0.0
H903 H 0.6285 0.05253 0.17479 0.0
H904 H 0.60895 0.09153 0.19275 0.0
H905 H 0.68034 0.11941 0.18471 0.0
H906 H 0.68255 0.20698 0.1695 0.0
H907 H 0.61188 0.17973 0.17763 0.0
H908 H 0.63199 0.19968 0.1491 0.0
H909 H 0.52635 0.01521 0.10036 0.0
H910 H 0.43916 0.00797 0.11269 0.0
H911 H 0.52026 0.10602 0.17097 0.0
C912 C 0.71769 0.15824 0.13502 0.0
C913 C 0.73932 0.16 0.11367 0.0
C914 C 0.70538 0.1236 0.0969 0.0
C915 C 0.6495 0.08623 0.10123 0.0
C916 C 0.62857 0.08625 0.12238 0.0
C917 C 0.66158 0.12173 0.13897 0.0
C918 C 0.62725 0.12183 0.15852 0.0
C919 C 0.63685 0.09472 0.17891 0.0
C920 C 0.63909 0.1805 0.16397 0.0
C921 C 0.56956 0.08566 0.14937 0.0
C922 C 0.57142 0.06259 0.12916 0.0
C923 C 0.52425 0.03177 0.11639 0.0
C924 C 0.47473 0.02747 0.12364 0.0
C925 C 0.47319 0.05558 0.14301 0.0
C926 C 0.52024 0.08247 0.15666 0.0
H927 H 0.58066 0.54647 0.41356 0.0
H928 H 0.62673 0.57137 0.34423 0.0
H929 H 0.54436 0.48256 0.33485 0.0
H930 H 0.56015 0.42686 0.41685 0.0
H931 H 0.50151 0.39504 0.43535 0.0
H932 H 0.54577 0.46812 0.43584 0.0
H933 H 0.46325 0.48312 0.4279 0.0
H934 H 0.41765 0.40947 0.42811 0.0
H935 H 0.41872 0.44935 0.40445 0.0
H936 H 0.47779 0.38029 0.33487 0.0
H937 H 0.43268 0.2808 0.34433 0.0
H938 H 0.43324 0.32121 0.4139 0.0
C939 C 0.57038 0.53522 0.39624 0.0
C940 C 0.60885 0.56629 0.37956 0.0
C941 C 0.59653 0.5491 0.35713 0.0
C942 C 0.55003 0.49812 0.35172 0.0
C943 C 0.5159 0.46517 0.36893 0.0
C944 C 0.52467 0.48393 0.39077 0.0
C945 C 0.49043 0.43745 0.40679 0.0
C946 C 0.52667 0.43156 0.42471 0.0
C947 C 0.4448 0.44532 0.41744 0.0
C948 C 0.46597 0.38897 0.39095 0.0
C949 C 0.47896 0.40557 0.36906 0.0
C950 C 0.46607 0.36705 0.3519 0.0
C951 C 0.4407 0.31066 0.35736 0.0
C952 C 0.43018 0.29383 0.37983 0.0
C953 C 0.44111 0.33332 0.39658 0.0
H954 H 0.99482 0.46865 0.1027 0.0
H955 H 0.93526 0.4009 0.16811 0.0
H956 H 0.93368 0.48475 0.17872 0.0
H957 H 0.05702 0.62973 0.1209 0.0
H958 H 0.03301 0.6403 0.09458 0.0
H959 H 0.06239 0.59589 0.09625 0.0
H960 H 0.97406 0.51761 0.07795 0.0
H961 H 0.94449 0.56093 0.07658 0.0
H962 H 0.90769 0.49565 0.09077 0.0
H963 H 0.90137 0.5501 0.1773 0.0
H964 H 0.84094 0.58468 0.16405 0.0
H965 H 0.90935 0.60502 0.09795 0.0
C966 C 0.98442 0.47323 0.11964 0.0
C967 C 0.96429 0.42847 0.13448 0.0
C968 C 0.95096 0.4349 0.15651 0.0
C969 C 0.95023 0.48277 0.16267 0.0
C970 C 0.96325 0.5236 0.14664 0.0
C971 C 0.98183 0.52002 0.12559 0.0
C972 C 0.97834 0.55976 0.10951 0.0
C973 C 0.03612 0.60935 0.10506 0.0
C974 C 0.9493 0.5317 0.08747 0.0
C975 C 0.94457 0.57724 0.12332 0.0
C976 C 0.94083 0.5603 0.14526 0.0
C977 C 0.90541 0.56489 0.1604 0.0
C978 C 0.8708 0.58396 0.15272 0.0
C979 C 0.87082 0.59651 0.13 0.0
C980 C 0.90954 0.5956 0.11539 0.0
H981 H 0.47197 0.02952 0.40797 0.0
H982 H 0.43407 0.07159 0.3439 0.0
H983 H 0.5136 0.06918 0.32737 0.0
H984 H 0.59852 0.11434 0.40867 0.0
H985 H 0.62554 0.07474 0.42159 0.0
H986 H 0.5551 0.05601 0.42606 0.0
H987 H 0.52282 0.95754 0.41139 0.0
H988 H 0.59399 0.97614 0.40693 0.0
H989 H 0.54513 0.94821 0.38436 0.0
H990 H 0.61186 0.09692 0.32168 0.0
H991 H 0.71289 0.14665 0.32753 0.0
H992 H 0.68869 0.08275 0.39438 0.0
C993 C 0.47842 0.03421 0.39015 0.0
C994 C 0.44647 0.04952 0.37707 0.0
C995 C 0.45686 0.05784 0.354 0.0
C996 C 0.50241 0.05692 0.34452 0.0
C997 C 0.53633 0.04631 0.35826 0.0
C998 C 0.52363 0.03311 0.38054 0.0
C999 C 0.57147 0.03407 0.39281 0.0
C1000 C 0.58865 0.0721 0.41345 0.0
C1001 C 0.5575 0.9755 0.39924 0.0
C1002 C 0.61529 0.05685 0.37482 0.0
C1003 C 0.59388 0.06155 0.35471 0.0
C1004 C 0.62865 0.0912 0.337 0.0
C1005 C 0.68622 0.1192 0.34034 0.0
C1006 C 0.70813 0.11763 0.36127 0.0
C1007 C 0.67244 0.08319 0.37807 0.0
H1008 H 0.40896 0.29083 0.09681 0.0
H1009 H 0.40261 0.23552 0.16436 0.0
H1010 H 0.44375 0.33101 0.17785 0.0
H1011 H 0.52747 0.38937 0.09549 0.0
H1012 H 0.51934 0.4401 0.08018 0.0
H1013 H 0.4693 0.36895 0.07711 0.0
H1014 H 0.39087 0.38785 0.08891 0.0
H1015 H 0.44154 0.46003 0.09151 0.0
H1016 H 0.3968 0.42388 0.11458 0.0
H1017 H 0.51741 0.42752 0.18134 0.0
H1018 H 0.60567 0.51358 0.17445 0.0
H1019 H 0.55803 0.51122 0.10586 0.0
C1020 C 0.41341 0.29902 0.11453 0.0
C1021 C 0.40341 0.25676 0.12957 0.0
C1022 C 0.40987 0.26777 0.15264 0.0
C1023 C 0.43304 0.32194 0.16045 0.0
C1024 C 0.4474 0.36404 0.14501 0.0
C1025 C 0.43539 0.35285 0.12254 0.0
C1026 C 0.4632 0.40501 0.10888 0.0
C1027 C 0.49685 0.40053 0.08933 0.0
C1028 C 0.42054 0.42007 0.10048 0.0
C1029 C 0.49984 0.44537 0.12649 0.0
C1030 C 0.48863 0.42187 0.14746 0.0
C1031 C 0.52502 0.44739 0.16528 0.0
C1032 C 0.57519 0.49623 0.16128 0.0
C1033 C 0.58816 0.51827 0.13961 0.0
C1034 C 0.5484 0.49478 0.12259 0.0
H1035 H 0.90678 0.5834 0.39728 0.0
H1036 H 0.84288 0.58348 0.3317 0.0
H1037 H 0.88786 0.53288 0.31703 0.0
H1038 H 0.03887 0.58482 0.37899 0.0
H1039 H 0.03095 0.53899 0.40148 0.0
H1040 H 0.0087 0.58886 0.40498 0.0
H1041 H 0.91051 0.51083 0.4159 0.0
H1042 H 0.93275 0.46145 0.41276 0.0
H1043 H 0.87379 0.45315 0.39729 0.0
H1044 H 0.91703 0.46228 0.31226 0.0
H1045 H 0.92054 0.37723 0.31833 0.0
H1046 H 0.96829 0.4241 0.38673 0.0
C1047 C 0.90372 0.57444 0.37962 0.0
C1048 C 0.87064 0.58672 0.36564 0.0
C1049 C 0.86776 0.57435 0.34271 0.0
C1050 C 0.89359 0.54588 0.33426 0.0
C1051 C 0.92315 0.5313 0.34889 0.0
C1052 C 0.92886 0.54598 0.3711 0.0
C1053 C 0.95379 0.51788 0.38436 0.0
C1054 C 0.01153 0.56017 0.39295 0.0
C1055 C 0.91541 0.48381 0.40367 0.0
C1056 C 0.95732 0.4814 0.36656 0.0
C1057 C 0.94121 0.49104 0.34601 0.0
C1058 C 0.93163 0.45581 0.32801 0.0
C1059 C 0.93434 0.40773 0.33151 0.0
C1060 C 0.94625 0.3951 0.35285 0.0
C1061 C 0.96184 0.43433 0.37005 0.0
H1062 H 0.11788 0.67522 0.6539 0.0
H1063 H 0.075 0.6937 0.58682 0.0
H1064 H 0.00518 0.59492 0.58543 0.0
H1065 H 0.13242 0.57469 0.64723 0.0
H1066 H 0.10184 0.53528 0.67219 0.0
H1067 H 0.12563 0.6072 0.67208 0.0
H1068 H 0.02851 0.58747 0.68424 0.0
H1069 H 0.00411 0.5145 0.68406 0.0
H1070 H 0.9686 0.54159 0.66804 0.0
H1071 H 0.97397 0.49777 0.58492 0.0
H1072 H 0.99096 0.41973 0.58486 0.0
H1073 H 0.04714 0.45585 0.65286 0.0
C1074 C 0.09121 0.65833 0.63953 0.0
C1075 C 0.101 0.6909 0.62051 0.0
C1076 C 0.06739 0.66868 0.60155 0.0
C1077 C 0.02727 0.61274 0.60077 0.0
C1078 C 0.02135 0.57975 0.61913 0.0
C1079 C 0.05153 0.60216 0.63852 0.0
C1080 C 0.04766 0.55747 0.65376 0.0
C1081 C 0.10528 0.56937 0.66169 0.0
C1082 C 0.00995 0.54979 0.6737 0.0
C1083 C 0.02013 0.50827 0.63822 0.0
C1084 C 0.00154 0.52092 0.61894 0.0
C1085 C 0.98625 0.48654 0.6002 0.0
C1086 C 0.99562 0.44183 0.60027 0.0
C1087 C 0.02023 0.43251 0.61893 0.0
C1088 C 0.02723 0.46239 0.63868 0.0
H1089 H 0.45374 0.98829 0.90344 0.0
H1090 H 0.3681 0.94246 0.84049 0.0
H1091 H 0.43915 0.92433 0.82518 0.0
H1092 H 0.60539 0.03386 0.87834 0.0
H1093 H 0.61808 0.005 0.90285 0.0
H1094 H 0.57937 0.04055 0.90495 0.0
H1095 H 0.49994 0.95456 0.924 0.0
H1096 H 0.53705 0.91838 0.92137 0.0
H1097 H 0.46868 0.88918 0.90963 0.0
H1098 H 0.49131 0.87448 0.82251 0.0
H1099 H 0.52709 0.81162 0.8314 0.0
H1100 H 0.57984 0.88849 0.89592 0.0
C1101 C 0.45298 0.97905 0.88589 0.0
C1102 C 0.40592 0.96678 0.87314 0.0
C1103 C 0.40445 0.95304 0.85042 0.0
C1104 C 0.44457 0.94203 0.84165 0.0
C1105 C 0.48669 0.94687 0.85564 0.0
C1106 C 0.49266 0.9676 0.87711 0.0
C1107 C 0.53322 0.95806 0.89039 0.0
C1108 C 0.58722 0.01262 0.89436 0.0
C1109 C 0.50812 0.92822 0.9126 0.0
C1110 C 0.54262 0.922 0.87432 0.0
C1111 C 0.51766 0.91786 0.85397 0.0
C1112 C 0.5131 0.87936 0.83797 0.0
C1113 C 0.53317 0.84359 0.84312 0.0
C1114 C 0.55671 0.8464 0.86416 0.0
C1115 C 0.56309 0.88706 0.87952 0.0
H1116 H 0.5331 0.57808 0.58873 0.0
H1117 H 0.55435 0.57257 0.6596 0.0
H1118 H 0.4679 0.48237 0.66141 0.0
H1119 H 0.40828 0.54947 0.59099 0.0
H1120 H 0.38165 0.50854 0.56607 0.0
H1121 H 0.4539 0.55684 0.5683 0.0
H1122 H 0.47695 0.47941 0.56096 0.0
H1123 H 0.40407 0.43047 0.55835 0.0
H1124 H 0.44556 0.41821 0.5779 0.0
H1125 H 0.36787 0.41021 0.65744 0.0
H1126 H 0.26842 0.37027 0.64882 0.0
H1127 H 0.30934 0.42655 0.58096 0.0
C1128 C 0.52138 0.55565 0.6043 0.0
C1129 C 0.55099 0.58112 0.62388 0.0
C1130 C 0.53332 0.55266 0.64429 0.0
C1131 C 0.48389 0.50149 0.64543 0.0
C1132 C 0.4528 0.47947 0.62599 0.0
C1133 C 0.47161 0.50553 0.60566 0.0
C1134 C 0.42626 0.48179 0.58826 0.0
C1135 C 0.41699 0.52681 0.57785 0.0
C1136 C 0.43898 0.45061 0.5703 0.0
C1137 C 0.3776 0.44223 0.60237 0.0
C1138 C 0.39397 0.43922 0.62383 0.0
C1139 C 0.35499 0.41092 0.64053 0.0
C1140 C 0.29846 0.38798 0.63549 0.0
C1141 C 0.28166 0.39448 0.61409 0.0
C1142 C 0.32148 0.41957 0.59719 0.0
H1143 H 0.25006 0.72319 0.85955 0.0
H1144 H 0.09738 0.72615 0.85285 0.0
H1145 H 0.04991 0.62899 0.84032 0.0
H1146 H 0.22269 0.61814 0.8126 0.0
H1147 H 0.25447 0.58767 0.82894 0.0
H1148 H 0.2797 0.66065 0.8308 0.0
H1149 H 0.2656 0.65257 0.87348 0.0
H1150 H 0.24087 0.58018 0.87183 0.0
H1151 H 0.19847 0.60438 0.88461 0.0
H1152 H 0.0149 0.52792 0.84084 0.0
H1153 H 0.99762 0.43516 0.8509 0.0
H1154 H 0.17371 0.49733 0.85378 0.0
C1155 C 0.20723 0.704 0.85438 0.0
C1156 C 0.17719 0.73177 0.85706 0.0
C1157 C 0.12113 0.70563 0.85058 0.0
C1158 C 0.09395 0.65042 0.84348 0.0
C1159 C 0.12398 0.6228 0.84241 0.0
C1160 C 0.17997 0.64936 0.84711 0.0
C1161 C 0.20135 0.6093 0.84808 0.0
C1162 C 0.24195 0.61956 0.82896 0.0
C1163 C 0.22805 0.61176 0.87085 0.0
C1164 C 0.14798 0.55544 0.84491 0.0
C1165 C 0.1038 0.56396 0.84137 0.0
C1166 C 0.04926 0.52061 0.84252 0.0
C1167 C 0.03972 0.46805 0.84824 0.0
C1168 C 0.08448 0.45922 0.85234 0.0
C1169 C 0.13904 0.5028 0.84962 0.0
H1170 H 0.4288 0.94149 0.62372 0.0
H1171 H 0.33952 0.84926 0.68183 0.0
H1172 H 0.42134 0.8435 0.69369 0.0
H1173 H 0.47399 0.86246 0.60886 0.0
H1174 H 0.54132 0.91254 0.59853 0.0
H1175 H 0.48726 0.92898 0.59939 0.0
H1176 H 0.54795 0.01524 0.62345 0.0
H1177 H 0.60314 -0.00046 0.62237 0.0
H1178 H 0.57828 0.00857 0.64887 0.0
H1179 H 0.49829 0.82211 0.69239 0.0
H1180 H 0.56084 0.78998 0.67859 0.0
H1181 H 0.60061 0.8962 0.62126 0.0
C1182 C 0.42799 0.92312 0.63965 0.0
C1183 C 0.37854 0.89626 0.652 0.0
C1184 C 0.3776 0.87104 0.67242 0.0
C1185 C 0.42393 0.86748 0.67919 0.0
C1186 C 0.47087 0.89032 0.66554 0.0
C1187 C 0.47361 0.91907 0.64641 0.0
C1188 C 0.52294 0.93022 0.63218 0.0
C1189 C 0.50525 0.90711 0.60838 0.0
C1190 C 0.56561 0.99207 0.63171 0.0
C1191 C 0.54452 0.89876 0.64511 0.0
C1192 C 0.51542 0.8776 0.66471 0.0
C1193 C 0.52259 0.84007 0.67752 0.0
C1194 C 0.55832 0.82203 0.66961 0.0
C1195 C 0.5855 0.84086 0.64894 0.0
C1196 C 0.5806 0.88169 0.63725 0.0
H1197 H 0.49225 0.61424 0.84361 0.0
H1198 H 0.54357 0.54151 0.89471 0.0
H1199 H 0.45209 0.4577 0.89372 0.0
H1200 H 0.38114 0.58956 0.86492 0.0
H1201 H 0.33528 0.57122 0.84139 0.0
H1202 H 0.40837 0.61291 0.83733 0.0
H1203 H 0.40863 0.54364 0.80895 0.0
H1204 H 0.33454 0.50244 0.81196 0.0
H1205 H 0.37721 0.47184 0.8162 0.0
H1206 H 0.35212 0.40334 0.89842 0.0
H1207 H 0.25324 0.37275 0.90323 0.0
H1208 H 0.26158 0.47753 0.84882 0.0
C1209 C 0.48547 0.5785 0.85303 0.0
C1210 C 0.52506 0.58346 0.86881 0.0
C1211 C 0.51433 0.53762 0.88201 0.0
C1212 C 0.46202 0.49007 0.88172 0.0
C1213 C 0.42131 0.489 0.86794 0.0
C1214 C 0.43288 0.5312 0.85313 0.0
C1215 C 0.37996 0.52542 0.84343 0.0
C1216 C 0.37603 0.57787 0.84702 0.0
C1217 C 0.37478 0.50989 0.81866 0.0
C1218 C 0.33714 0.47774 0.85706 0.0
C1219 C 0.36182 0.45636 0.87063 0.0
C1220 C 0.33216 0.41819 0.88725 0.0
C1221 C 0.27626 0.40166 0.89008 0.0
C1222 C 0.25039 0.4229 0.87631 0.0
C1223 C 0.28066 0.4602 0.85922 0.0
loop_
_geom_bond_atom_site_label_1
_geom_bond_atom_site_label_2
_geom_bond_distance
_geom_bond_site_symmetry_2
_ccdc_geom_bond_type
Zn0 O6 1.920 1_545 S
Zn0 O12 1.898 . S
Zn0 O15 1.905 . S
Zn1 O9 1.905 . S
Zn1 O10 1.898 . S
Zn1 O18 1.920 . S
Zn2 O5 2.080 . S
Zn2 O8 2.114 . S
Zn2 O11 2.120 . S
Zn2 O13 2.120 . S
Zn2 O14 2.114 . S
Zn2 O17 2.080 . S
C3 O8 1.166 . S
C3 O9 1.182 . S
C4 O10 1.167 . S
C4 O11 1.299 . S
O5 Zn2 2.080 . S
O5 C19 1.305 1_545 S
O6 Zn0 1.920 1_565 S
O6 C19 1.234 . S
C7 O12 1.167 . S
C7 O13 1.299 . S
O8 Zn2 2.114 . S
O8 C3 1.166 . S
O9 Zn1 1.905 . S
O9 C3 1.182 . S
O10 Zn1 1.898 . S
O10 C4 1.167 . S
O11 Zn2 2.120 . S
O11 C4 1.299 . S
O12 Zn0 1.898 . S
O12 C7 1.167 . S
O13 Zn2 2.120 . S
O13 C7 1.299 . S
O14 Zn2 2.114 . S
O14 C16 1.166 . S
O15 Zn0 1.905 . S
O15 C16 1.182 . S
C16 O14 1.166 . S
C16 O15 1.182 . S
O17 Zn2 2.080 . S
O17 C20 1.305 . S
O18 Zn1 1.920 . S
O18 C20 1.234 . S
C19 O5 1.305 1_565 S
C19 O6 1.234 . S
C20 O17 1.305 . S
C20 O18 1.234 . S
Zn21 O27 1.920 . S
Zn21 O33 1.898 . S
Zn21 O36 1.905 . S
Zn22 O30 1.905 . S
Zn22 O31 1.898 . S
Zn22 O39 1.920 . S
Zn23 O26 2.080 . S
Zn23 O29 2.114 . S
Zn23 O32 2.120 . S
Zn23 O34 2.120 . S
Zn23 O35 2.114 . S
Zn23 O38 2.080 . S
C24 O29 1.166 . S
C24 O30 1.182 . S
C25 O31 1.167 . S
C25 O32 1.299 . S
O26 Zn23 2.080 . S
O26 C40 1.305 . S
O27 Zn21 1.920 . S
O27 C40 1.234 . S
C28 O33 1.167 . S
C28 O34 1.299 . S
O29 Zn23 2.114 . S
O29 C24 1.166 . S
O30 Zn22 1.905 . S
O30 C24 1.182 . S
O31 Zn22 1.898 . S
O31 C25 1.167 . S
O32 Zn23 2.120 . S
O32 C25 1.299 . S
O33 Zn21 1.898 . S
O33 C28 1.167 . S
O34 Zn23 2.120 . S
O34 C28 1.299 . S
O35 Zn23 2.114 . S
O35 C37 1.166 . S
O36 Zn21 1.905 . S
O36 C37 1.182 . S
C37 O35 1.166 . S
C37 O36 1.182 . S
O38 Zn23 2.080 . S
O38 C41 1.305 . S
O39 Zn22 1.920 . S
O39 C41 1.234 . S
C40 O26 1.305 . S
C40 O27 1.234 . S
C41 O38 1.305 . S
C41 O39 1.234 . S
Zn42 O48 1.920 1_655 S
Zn42 O54 1.898 . S
Zn42 O57 1.905 . S
Zn43 O51 1.905 . S
Zn43 O52 1.898 . S
Zn43 O60 1.920 . S
Zn44 O47 2.080 . S
Zn44 O50 2.114 . S
Zn44 O53 2.120 . S
Zn44 O55 2.120 . S
Zn44 O56 2.114 . S
Zn44 O59 2.080 . S
C45 O50 1.166 . S
C45 O51 1.182 . S
C46 O52 1.167 . S
C46 O53 1.299 . S
O47 Zn44 2.080 . S
O47 C61 1.305 1_655 S
O48 Zn42 1.920 1_455 S
O48 C61 1.234 . S
C49 O54 1.167 . S
C49 O55 1.299 . S
O50 Zn44 2.114 . S
O50 C45 1.166 . S
O51 Zn43 1.905 . S
O51 C45 1.182 . S
O52 Zn43 1.898 . S
O52 C46 1.167 . S
O53 Zn44 2.120 . S
O53 C46 1.299 . S
O54 Zn42 1.898 . S
O54 C49 1.167 . S
O55 Zn44 2.120 . S
O55 C49 1.299 . S
O56 Zn44 2.114 . S
O56 C58 1.166 . S
O57 Zn42 1.905 . S
O57 C58 1.182 . S
C58 O56 1.166 . S
C58 O57 1.182 . S
O59 Zn44 2.080 . S
O59 C62 1.305 . S
O60 Zn43 1.920 . S
O60 C62 1.234 . S
C61 O47 1.305 1_455 S
C61 O48 1.234 . S
C62 O59 1.305 . S
C62 O60 1.234 . S
Zn63 O69 1.920 . S
Zn63 O75 1.898 . S
Zn63 O78 1.905 . S
Zn64 O72 1.905 . S
Zn64 O73 1.898 . S
Zn64 O81 1.920 1_545 S
Zn65 O68 2.080 . S
Zn65 O71 2.114 . S
Zn65 O74 2.120 . S
Zn65 O76 2.120 . S
Zn65 O77 2.114 . S
Zn65 O80 2.080 . S
C66 O71 1.166 . S
C66 O72 1.182 . S
C67 O73 1.167 . S
C67 O74 1.299 . S
O68 Zn65 2.080 . S
O68 C82 1.305 . S
O69 Zn63 1.920 . S
O69 C82 1.234 . S
C70 O75 1.167 . S
C70 O76 1.299 . S
O71 Zn65 2.114 . S
O71 C66 1.166 . S
O72 Zn64 1.905 . S
O72 C66 1.182 . S
O73 Zn64 1.898 . S
O73 C67 1.167 . S
O74 Zn65 2.120 . S
O74 C67 1.299 . S
O75 Zn63 1.898 . S
O75 C70 1.167 . S
O76 Zn65 2.120 . S
O76 C70 1.299 . S
O77 Zn65 2.114 . S
O77 C79 1.166 . S
O78 Zn63 1.905 . S
O78 C79 1.182 . S
C79 O77 1.166 . S
C79 O78 1.182 . S
O80 Zn65 2.080 . S
O80 C83 1.305 1_545 S
O81 Zn64 1.920 1_565 S
O81 C83 1.234 . S
C82 O68 1.305 . S
C82 O69 1.234 . S
C83 O80 1.305 1_565 S
C83 O81 1.234 . S
Zn84 O90 1.920 . S
Zn84 O96 1.898 . S
Zn84 O99 1.905 . S
Zn85 O93 1.905 . S
Zn85 O94 1.898 . S
Zn85 O102 1.920 . S
Zn86 O89 2.080 . S
Zn86 O92 2.114 . S
Zn86 O95 2.120 . S
Zn86 O97 2.120 . S
Zn86 O98 2.114 . S
Zn86 O101 2.080 . S
C87 O92 1.166 . S
C87 O93 1.182 . S
C88 O94 1.167 . S
C88 O95 1.299 . S
O89 Zn86 2.080 . S
O89 C103 1.305 . S
O90 Zn84 1.920 . S
O90 C103 1.234 . S
C91 O96 1.167 . S
C91 O97 1.299 . S
O92 Zn86 2.114 . S
O92 C87 1.166 . S
O93 Zn85 1.905 . S
O93 C87 1.182 . S
O94 Zn85 1.898 . S
O94 C88 1.167 . S
O95 Zn86 2.120 . S
O95 C88 1.299 . S
O96 Zn84 1.898 . S
O96 C91 1.167 . S
O97 Zn86 2.120 . S
O97 C91 1.299 . S
O98 Zn86 2.114 . S
O98 C100 1.166 . S
O99 Zn84 1.905 . S
O99 C100 1.182 . S
C100 O98 1.166 . S
C100 O99 1.182 . S
O101 Zn86 2.080 . S
O101 C104 1.305 . S
O102 Zn85 1.920 . S
O102 C104 1.234 . S
C103 O89 1.305 . S
C103 O90 1.234 . S
C104 O101 1.305 . S
C104 O102 1.234 . S
Zn105 O111 1.920 . S
Zn105 O117 1.898 . S
Zn105 O120 1.905 . S
Zn106 O114 1.905 . S
Zn106 O115 1.898 . S
Zn106 O123 1.920 1_655 S
Zn107 O110 2.080 . S
Zn107 O113 2.114 . S
Zn107 O116 2.120 . S
Zn107 O118 2.120 . S
Zn107 O119 2.114 . S
Zn107 O122 2.080 . S
C108 O113 1.166 . S
C108 O114 1.182 . S
C109 O115 1.167 . S
C109 O116 1.299 . S
O110 Zn107 2.080 . S
O110 C124 1.305 . S
O111 Zn105 1.920 . S
O111 C124 1.234 . S
C112 O117 1.167 . S
C112 O118 1.299 . S
O113 Zn107 2.114 . S
O113 C108 1.166 . S
O114 Zn106 1.905 . S
O114 C108 1.182 . S
O115 Zn106 1.898 . S
O115 C109 1.167 . S
O116 Zn107 2.120 . S
O116 C109 1.299 . S
O117 Zn105 1.898 . S
O117 C112 1.167 . S
O118 Zn107 2.120 . S
O118 C112 1.299 . S
O119 Zn107 2.114 . S
O119 C121 1.166 . S
O120 Zn105 1.905 . S
O120 C121 1.182 . S
C121 O119 1.166 . S
C121 O120 1.182 . S
O122 Zn107 2.080 . S
O122 C125 1.305 1_655 S
O123 Zn106 1.920 1_455 S
O123 C125 1.234 . S
C124 O110 1.305 . S
C124 O111 1.234 . S
C125 O122 1.305 1_455 S
C125 O123 1.234 . S
Zn126 O132 1.920 . S
Zn126 O138 1.898 . S
Zn126 O141 1.905 . S
Zn127 O135 1.905 . S
Zn127 O136 1.898 . S
Zn127 O144 1.920 1_455 S
Zn128 O131 2.080 . S
Zn128 O134 2.114 . S
Zn128 O137 2.120 . S
Zn128 O139 2.120 . S
Zn128 O140 2.114 . S
Zn128 O143 2.080 . S
C129 O134 1.166 . S
C129 O135 1.182 . S
C130 O136 1.167 . S
C130 O137 1.299 . S
O131 Zn128 2.080 . S
O131 C145 1.305 . S
O132 Zn126 1.920 . S
O132 C145 1.234 . S
C133 O138 1.167 . S
C133 O139 1.299 . S
O134 Zn128 2.114 . S
O134 C129 1.166 . S
O135 Zn127 1.905 . S
O135 C129 1.182 . S
O136 Zn127 1.898 . S
O136 C130 1.167 . S
O137 Zn128 2.120 . S
O137 C130 1.299 . S
O138 Zn126 1.898 . S
O138 C133 1.167 . S
O139 Zn128 2.120 . S
O139 C133 1.299 . S
O140 Zn128 2.114 . S
O140 C142 1.166 . S
O141 Zn126 1.905 . S
O141 C142 1.182 . S
C142 O140 1.166 . S
C142 O141 1.182 . S
O143 Zn128 2.080 . S
O143 C146 1.305 1_455 S
O144 Zn127 1.920 1_655 S
O144 C146 1.234 . S
C145 O131 1.305 . S
C145 O132 1.234 . S
C146 O143 1.305 1_655 S
C146 O144 1.234 . S
Zn147 O153 1.920 . S
Zn147 O159 1.898 . S
Zn147 O162 1.905 . S
Zn148 O156 1.905 . S
Zn148 O157 1.898 . S
Zn148 O165 1.920 1_565 S
Zn149 O152 2.080 . S
Zn149 O155 2.114 . S
Zn149 O158 2.120 . S
Zn149 O160 2.120 . S
Zn149 O161 2.114 . S
Zn149 O164 2.080 . S
C150 O155 1.166 . S
C150 O156 1.182 . S
C151 O157 1.167 . S
C151 O158 1.299 . S
O152 Zn149 2.080 . S
O152 C166 1.305 . S
O153 Zn147 1.920 . S
O153 C166 1.234 . S
C154 O159 1.167 . S
C154 O160 1.299 . S
O155 Zn149 2.114 . S
O155 C150 1.166 . S
O156 Zn148 1.905 . S
O156 C150 1.182 . S
O157 Zn148 1.898 . S
O157 C151 1.167 . S
O158 Zn149 2.120 . S
O158 C151 1.299 . S
O159 Zn147 1.898 . S
O159 C154 1.167 . S
O160 Zn149 2.120 . S
O160 C154 1.299 . S
O161 Zn149 2.114 . S
O161 C163 1.166 . S
O162 Zn147 1.905 . S
O162 C163 1.182 . S
C163 O161 1.166 . S
C163 O162 1.182 . S
O164 Zn149 2.080 . S
O164 C167 1.305 1_565 S
O165 Zn148 1.920 1_545 S
O165 C167 1.234 . S
C166 O152 1.305 . S
C166 O153 1.234 . S
C167 O164 1.305 1_545 S
C167 O165 1.234 . S
Zn168 O174 1.920 . S
Zn168 O180 1.898 . S
Zn168 O183 1.905 . S
Zn169 O177 1.905 . S
Zn169 O178 1.898 . S
Zn169 O186 1.920 . S
Zn170 O173 2.080 . S
Zn170 O176 2.114 . S
Zn170 O179 2.120 . S
Zn170 O181 2.120 . S
Zn170 O182 2.114 . S
Zn170 O185 2.080 . S
C171 O176 1.166 . S
C171 O177 1.182 . S
C172 O178 1.167 . S
C172 O179 1.299 . S
O173 Zn170 2.080 . S
O173 C187 1.305 . S
O174 Zn168 1.920 . S
O174 C187 1.234 . S
C175 O180 1.167 . S
C175 O181 1.299 . S
O176 Zn170 2.114 . S
O176 C171 1.166 . S
O177 Zn169 1.905 . S
O177 C171 1.182 . S
O178 Zn169 1.898 . S
O178 C172 1.167 . S
O179 Zn170 2.120 . S
O179 C172 1.299 . S
O180 Zn168 1.898 . S
O180 C175 1.167 . S
O181 Zn170 2.120 . S
O181 C175 1.299 . S
O182 Zn170 2.114 . S
O182 C184 1.166 . S
O183 Zn168 1.905 . S
O183 C184 1.182 . S
C184 O182 1.166 . S
C184 O183 1.182 . S
O185 Zn170 2.080 . S
O185 C188 1.305 . S
O186 Zn169 1.920 . S
O186 C188 1.234 . S
C187 O173 1.305 . S
C187 O174 1.234 . S
C188 O185 1.305 . S
C188 O186 1.234 . S
Zn189 O195 1.920 1_455 S
Zn189 O201 1.898 . S
Zn189 O204 1.905 . S
Zn190 O198 1.905 . S
Zn190 O199 1.898 . S
Zn190 O207 1.920 . S
Zn191 O194 2.080 . S
Zn191 O197 2.114 . S
Zn191 O200 2.120 . S
Zn191 O202 2.120 . S
Zn191 O203 2.114 . S
Zn191 O206 2.080 . S
C192 O197 1.166 . S
C192 O198 1.182 . S
C193 O199 1.167 . S
C193 O200 1.299 . S
O194 Zn191 2.080 . S
O194 C208 1.305 1_455 S
O195 Zn189 1.920 1_655 S
O195 C208 1.234 . S
C196 O201 1.167 . S
C196 O202 1.299 . S
O197 Zn191 2.114 . S
O197 C192 1.166 . S
O198 Zn190 1.905 . S
O198 C192 1.182 . S
O199 Zn190 1.898 . S
O199 C193 1.167 . S
O200 Zn191 2.120 . S
O200 C193 1.299 . S
O201 Zn189 1.898 . S
O201 C196 1.167 . S
O202 Zn191 2.120 . S
O202 C196 1.299 . S
O203 Zn191 2.114 . S
O203 C205 1.166 . S
O204 Zn189 1.905 . S
O204 C205 1.182 . S
C205 O203 1.166 . S
C205 O204 1.182 . S
O206 Zn191 2.080 . S
O206 C209 1.305 . S
O207 Zn190 1.920 . S
O207 C209 1.234 . S
C208 O194 1.305 1_655 S
C208 O195 1.234 . S
C209 O206 1.305 . S
C209 O207 1.234 . S
Zn210 O216 1.920 . S
Zn210 O222 1.898 . S
Zn210 O225 1.905 . S
Zn211 O219 1.905 . S
Zn211 O220 1.898 . S
Zn211 O228 1.920 1_565 S
Zn212 O215 2.080 . S
Zn212 O218 2.114 . S
Zn212 O221 2.120 . S
Zn212 O223 2.120 . S
Zn212 O224 2.114 . S
Zn212 O227 2.080 . S
C213 O218 1.166 . S
C213 O219 1.182 . S
C214 O220 1.167 . S
C214 O221 1.299 . S
O215 Zn212 2.080 . S
O215 C229 1.305 . S
O216 Zn210 1.920 . S
O216 C229 1.234 . S
C217 O222 1.167 . S
C217 O223 1.299 . S
O218 Zn212 2.114 . S
O218 C213 1.166 . S
O219 Zn211 1.905 . S
O219 C213 1.182 . S
O220 Zn211 1.898 . S
O220 C214 1.167 . S
O221 Zn212 2.120 . S
O221 C214 1.299 . S
O222 Zn210 1.898 . S
O222 C217 1.167 . S
O223 Zn212 2.120 . S
O223 C217 1.299 . S
O224 Zn212 2.114 . S
O224 C226 1.166 . S
O225 Zn210 1.905 . S
O225 C226 1.182 . S
C226 O224 1.166 . S
C226 O225 1.182 . S
O227 Zn212 2.080 . S
O227 C230 1.305 1_565 S
O228 Zn211 1.920 1_545 S
O228 C230 1.234 . S
C229 O215 1.305 . S
C229 O216 1.234 . S
C230 O227 1.305 1_545 S
C230 O228 1.234 . S
Zn231 O237 1.920 . S
Zn231 O243 1.898 . S
Zn231 O246 1.905 . S
Zn232 O240 1.905 . S
Zn232 O241 1.898 . S
Zn232 O249 1.920 . S
Zn233 O236 2.080 . S
Zn233 O239 2.114 . S
Zn233 O242 2.120 . S
Zn233 O244 2.120 . S
Zn233 O245 2.114 . S
Zn233 O248 2.080 . S
C234 O239 1.166 . S
C234 O240 1.182 . S
C235 O241 1.167 . S
C235 O242 1.299 . S
O236 Zn233 2.080 . S
O236 C250 1.305 . S
O237 Zn231 1.920 . S
O237 C250 1.234 . S
C238 O243 1.167 . S
C238 O244 1.299 . S
O239 Zn233 2.114 . S
O239 C234 1.166 . S
O240 Zn232 1.905 . S
O240 C234 1.182 . S
O241 Zn232 1.898 . S
O241 C235 1.167 . S
O242 Zn233 2.120 . S
O242 C235 1.299 . S
O243 Zn231 1.898 . S
O243 C238 1.167 . S
O244 Zn233 2.120 . S
O244 C238 1.299 . S
O245 Zn233 2.114 . S
O245 C247 1.166 . S
O246 Zn231 1.905 . S
O246 C247 1.182 . S
C247 O245 1.166 . S
C247 O246 1.182 . S
O248 Zn233 2.080 . S
O248 C251 1.305 . S
O249 Zn232 1.920 . S
O249 C251 1.234 . S
C250 O236 1.305 . S
C250 O237 1.234 . S
C251 O248 1.305 . S
C251 O249 1.234 . S
H252 C264 0.930 . S
H253 C266 0.930 1_655 S
H254 C267 0.930 . S
H255 C271 0.959 . S
H256 C271 0.959 . S
H257 C271 0.961 . S
H258 C272 0.960 . S
H259 C272 0.961 . S
H260 C272 0.959 . S
H261 C275 0.929 . S
H262 C276 0.931 . S
H263 C278 0.930 . S
C264 H252 0.930 . S
C264 C265 1.399 . S
C264 C269 1.399 . S
C265 C264 1.399 . S
C265 C266 1.376 . S
C266 H253 0.930 1_455 S
C266 C265 1.376 . S
C266 C267 1.388 . S
C267 H254 0.930 . S
C267 C266 1.388 . S
C267 C268 1.390 . S
C268 C267 1.390 . S
C268 C269 1.394 . S
C268 C274 1.465 . S
C269 C264 1.399 . S
C269 C268 1.394 . S
C269 C270 1.516 . S
C270 C269 1.516 . S
C270 C271 1.502 . S
C270 C272 1.561 . S
C270 C273 1.526 . S
C271 H255 0.959 . S
C271 H256 0.959 . S
C271 H257 0.961 . S
C271 C270 1.502 . S
C272 H258 0.960 . S
C272 H259 0.961 . S
C272 H260 0.959 . S
C272 C270 1.561 . S
C273 C270 1.526 . S
C273 C274 1.396 . S
C273 C278 1.390 . S
C274 C268 1.465 . S
C274 C273 1.396 . S
C274 C275 1.399 . S
C275 H261 0.929 . S
C275 C274 1.399 . S
C275 C276 1.385 . S
C276 H262 0.931 . S
C276 C275 1.385 . S
C276 C277 1.389 . S
C277 C276 1.389 . S
C277 C278 1.387 . S
C278 H263 0.930 . S
C278 C273 1.390 . S
C278 C277 1.387 . S
H279 C291 0.930 . S
H280 C293 0.930 . S
H281 C294 0.930 . S
H282 C298 0.959 . S
H283 C298 0.959 . S
H284 C298 0.961 . S
H285 C299 0.960 . S
H286 C299 0.961 . S
H287 C299 0.959 . S
H288 C302 0.929 1_455 S
H289 C303 0.931 . S
H290 C305 0.930 . S
C291 H279 0.930 . S
C291 C292 1.399 . S
C291 C296 1.399 . S
C292 C291 1.399 . S
C292 C293 1.376 . S
C293 H280 0.930 . S
C293 C292 1.376 . S
C293 C294 1.388 . S
C294 H281 0.930 . S
C294 C293 1.388 . S
C294 C295 1.390 . S
C295 C294 1.390 . S
C295 C296 1.394 . S
C295 C301 1.465 . S
C296 C291 1.399 . S
C296 C295 1.394 . S
C296 C297 1.516 . S
C297 C296 1.516 . S
C297 C298 1.502 . S
C297 C299 1.561 . S
C297 C300 1.526 . S
C298 H282 0.959 . S
C298 H283 0.959 . S
C298 H284 0.961 . S
C298 C297 1.502 . S
C299 H285 0.960 . S
C299 H286 0.961 . S
C299 H287 0.959 . S
C299 C297 1.561 . S
C300 C297 1.526 . S
C300 C301 1.396 . S
C300 C305 1.390 1_455 S
C301 C295 1.465 . S
C301 C300 1.396 . S
C301 C302 1.399 1_455 S
C302 H288 0.929 1_655 S
C302 C301 1.399 1_655 S
C302 C303 1.385 . S
C303 H289 0.931 . S
C303 C302 1.385 . S
C303 C304 1.389 . S
C304 C303 1.389 . S
C304 C305 1.387 . S
C305 H290 0.930 . S
C305 C300 1.390 1_655 S
C305 C304 1.387 . S
H306 C318 0.930 . S
H307 C320 0.930 . S
H308 C321 0.930 1_565 S
H309 C325 0.959 . S
H310 C325 0.959 . S
H311 C325 0.961 . S
H312 C326 0.960 . S
H313 C326 0.961 . S
H314 C326 0.959 . S
H315 C329 0.929 . S
H316 C330 0.931 . S
H317 C332 0.930 . S
C318 H306 0.930 . S
C318 C319 1.399 . S
C318 C323 1.399 1_545 S
C319 C318 1.399 . S
C319 C320 1.376 . S
C320 H307 0.930 . S
C320 C319 1.376 . S
C320 C321 1.388 . S
C321 H308 0.930 1_545 S
C321 C320 1.388 . S
C321 C322 1.390 1_545 S
C322 C321 1.390 1_565 S
C322 C323 1.394 . S
C322 C328 1.465 . S
C323 C318 1.399 1_565 S
C323 C322 1.394 . S
C323 C324 1.516 . S
C324 C323 1.516 . S
C324 C325 1.502 . S
C324 C326 1.561 . S
C324 C327 1.526 . S
C325 H309 0.959 . S
C325 H310 0.959 . S
C325 H311 0.961 . S
C325 C324 1.502 . S
C326 H312 0.960 . S
C326 H313 0.961 . S
C326 H314 0.959 . S
C326 C324 1.561 . S
C327 C324 1.526 . S
C327 C328 1.396 . S
C327 C332 1.390 . S
C328 C322 1.465 . S
C328 C327 1.396 . S
C328 C329 1.399 . S
C329 H315 0.929 . S
C329 C328 1.399 . S
C329 C330 1.385 . S
C330 H316 0.931 . S
C330 C329 1.385 . S
C330 C331 1.389 . S
C331 C330 1.389 . S
C331 C332 1.387 . S
C332 H317 0.930 . S
C332 C327 1.390 . S
C332 C331 1.387 . S
H333 C345 0.930 . S
H334 C347 0.930 . S
H335 C348 0.930 . S
H336 C352 0.959 . S
H337 C352 0.959 . S
H338 C352 0.961 . S
H339 C353 0.960 . S
H340 C353 0.961 . S
H341 C353 0.959 . S
H342 C356 0.929 . S
H343 C357 0.931 . S
H344 C359 0.930 . S
C345 H333 0.930 . S
C345 C346 1.399 . S
C345 C350 1.399 . S
C346 C345 1.399 . S
C346 C347 1.376 . S
C347 H334 0.930 . S
C347 C346 1.376 . S
C347 C348 1.388 . S
C348 H335 0.930 . S
C348 C347 1.388 . S
C348 C349 1.390 . S
C349 C348 1.390 . S
C349 C350 1.394 . S
C349 C355 1.465 . S
C350 C345 1.399 . S
C350 C349 1.394 . S
C350 C351 1.516 . S
C351 C350 1.516 . S
C351 C352 1.502 . S
C351 C353 1.561 . S
C351 C354 1.526 . S
C352 H336 0.959 . S
C352 H337 0.959 . S
C352 H338 0.961 . S
C352 C351 1.502 . S
C353 H339 0.960 . S
C353 H340 0.961 . S
C353 H341 0.959 . S
C353 C351 1.561 . S
C354 C351 1.526 . S
C354 C355 1.396 . S
C354 C359 1.390 . S
C355 C349 1.465 . S
C355 C354 1.396 . S
C355 C356 1.399 . S
C356 H342 0.929 . S
C356 C355 1.399 . S
C356 C357 1.385 . S
C357 H343 0.931 . S
C357 C356 1.385 . S
C357 C358 1.389 . S
C358 C357 1.389 . S
C358 C359 1.387 . S
C359 H344 0.930 . S
C359 C354 1.390 . S
C359 C358 1.387 . S
H360 C372 0.930 . S
H361 C374 0.930 . S
H362 C375 0.930 . S
H363 C379 0.959 . S
H364 C379 0.959 . S
H365 C379 0.961 . S
H366 C380 0.960 . S
H367 C380 0.961 . S
H368 C380 0.959 . S
H369 C383 0.929 1_455 S
H370 C384 0.931 . S
H371 C386 0.930 . S
C372 H360 0.930 . S
C372 C373 1.399 . S
C372 C377 1.399 . S
C373 C372 1.399 . S
C373 C374 1.376 . S
C374 H361 0.930 . S
C374 C373 1.376 . S
C374 C375 1.388 . S
C375 H362 0.930 . S
C375 C374 1.388 . S
C375 C376 1.390 . S
C376 C375 1.390 . S
C376 C377 1.394 . S
C376 C382 1.465 . S
C377 C372 1.399 . S
C377 C376 1.394 . S
C377 C378 1.516 . S
C378 C377 1.516 . S
C378 C379 1.502 . S
C378 C380 1.561 . S
C378 C381 1.526 . S
C379 H363 0.959 . S
C379 H364 0.959 . S
C379 H365 0.961 . S
C379 C378 1.502 . S
C380 H366 0.960 . S
C380 H367 0.961 . S
C380 H368 0.959 . S
C380 C378 1.561 . S
C381 C378 1.526 . S
C381 C382 1.396 . S
C381 C386 1.390 1_455 S
C382 C376 1.465 . S
C382 C381 1.396 . S
C382 C383 1.399 1_455 S
C383 H369 0.929 1_655 S
C383 C382 1.399 1_655 S
C383 C384 1.385 . S
C384 H370 0.931 . S
C384 C383 1.385 . S
C384 C385 1.389 . S
C385 C384 1.389 . S
C385 C386 1.387 . S
C386 H371 0.930 . S
C386 C381 1.390 1_655 S
C386 C385 1.387 . S
H387 C399 0.930 . S
H388 C401 0.930 . S
H389 C402 0.930 . S
H390 C406 0.959 . S
H391 C406 0.959 . S
H392 C406 0.961 . S
H393 C407 0.960 . S
H394 C407 0.961 . S
H395 C407 0.959 . S
H396 C410 0.929 . S
H397 C411 0.931 . S
H398 C413 0.930 . S
C399 H387 0.930 . S
C399 C400 1.399 . S
C399 C404 1.399 . S
C400 C399 1.399 . S
C400 C401 1.376 . S
C401 H388 0.930 . S
C401 C400 1.376 . S
C401 C402 1.388 . S
C402 H389 0.930 . S
C402 C401 1.388 . S
C402 C403 1.390 . S
C403 C402 1.390 . S
C403 C404 1.394 . S
C403 C409 1.465 . S
C404 C399 1.399 . S
C404 C403 1.394 . S
C404 C405 1.516 . S
C405 C404 1.516 . S
C405 C406 1.502 . S
C405 C407 1.561 . S
C405 C408 1.526 . S
C406 H390 0.959 . S
C406 H391 0.959 . S
C406 H392 0.961 . S
C406 C405 1.502 . S
C407 H393 0.960 . S
C407 H394 0.961 . S
C407 H395 0.959 . S
C407 C405 1.561 . S
C408 C405 1.526 . S
C408 C409 1.396 . S
C408 C413 1.390 1_565 S
C409 C403 1.465 . S
C409 C408 1.396 . S
C409 C410 1.399 . S
C410 H396 0.929 . S
C410 C409 1.399 . S
C410 C411 1.385 1_565 S
C411 H397 0.931 . S
C411 C410 1.385 1_545 S
C411 C412 1.389 . S
C412 C411 1.389 . S
C412 C413 1.387 . S
C413 H398 0.930 . S
C413 C408 1.390 1_545 S
C413 C412 1.387 . S
H414 C426 0.930 . S
H415 C428 0.930 1_565 S
H416 C429 0.930 . S
H417 C433 0.959 . S
H418 C433 0.959 . S
H419 C433 0.961 . S
H420 C434 0.960 . S
H421 C434 0.961 . S
H422 C434 0.959 . S
H423 C437 0.929 . S
H424 C438 0.931 . S
H425 C440 0.930 . S
C426 H414 0.930 . S
C426 C427 1.399 . S
C426 C431 1.399 . S
C427 C426 1.399 . S
C427 C428 1.376 . S
C428 H415 0.930 1_545 S
C428 C427 1.376 . S
C428 C429 1.388 . S
C429 H416 0.930 . S
C429 C428 1.388 . S
C429 C430 1.390 . S
C430 C429 1.390 . S
C430 C431 1.394 . S
C430 C436 1.465 . S
C431 C426 1.399 . S
C431 C430 1.394 . S
C431 C432 1.516 . S
C432 C431 1.516 . S
C432 C433 1.502 . S
C432 C434 1.561 . S
C432 C435 1.526 . S
C433 H417 0.959 . S
C433 H418 0.959 . S
C433 H419 0.961 . S
C433 C432 1.502 . S
C434 H420 0.960 . S
C434 H421 0.961 . S
C434 H422 0.959 . S
C434 C432 1.561 . S
C435 C432 1.526 . S
C435 C436 1.396 . S
C435 C440 1.390 . S
C436 C430 1.465 . S
C436 C435 1.396 . S
C436 C437 1.399 . S
C437 H423 0.929 . S
C437 C436 1.399 . S
C437 C438 1.385 . S
C438 H424 0.931 . S
C438 C437 1.385 . S
C438 C439 1.389 . S
C439 C438 1.389 . S
C439 C440 1.387 . S
C440 H425 0.930 . S
C440 C435 1.390 . S
C440 C439 1.387 . S
H441 C453 0.930 . S
H442 C455 0.930 . S
H443 C456 0.930 . S
H444 C460 0.959 . S
H445 C460 0.959 . S
H446 C460 0.961 . S
H447 C461 0.960 . S
H448 C461 0.961 . S
H449 C461 0.959 . S
H450 C464 0.929 . S
H451 C465 0.931 . S
H452 C467 0.930 . S
C453 H441 0.930 . S
C453 C454 1.399 . S
C453 C458 1.399 1_455 S
C454 C453 1.399 . S
C454 C455 1.376 . S
C455 H442 0.930 . S
C455 C454 1.376 . S
C455 C456 1.388 1_455 S
C456 H443 0.930 . S
C456 C455 1.388 1_655 S
C456 C457 1.390 . S
C457 C456 1.390 . S
C457 C458 1.394 . S
C457 C463 1.465 . S
C458 C453 1.399 1_655 S
C458 C457 1.394 . S
C458 C459 1.516 . S
C459 C458 1.516 . S
C459 C460 1.502 . S
C459 C461 1.561 . S
C459 C462 1.526 . S
C460 H444 0.959 . S
C460 H445 0.959 . S
C460 H446 0.961 . S
C460 C459 1.502 . S
C461 H447 0.960 . S
C461 H448 0.961 . S
C461 H449 0.959 . S
C461 C459 1.561 . S
C462 C459 1.526 . S
C462 C463 1.396 . S
C462 C467 1.390 . S
C463 C457 1.465 . S
C463 C462 1.396 . S
C463 C464 1.399 . S
C464 H450 0.929 . S
C464 C463 1.399 . S
C464 C465 1.385 . S
C465 H451 0.931 . S
C465 C464 1.385 . S
C465 C466 1.389 . S
C466 C465 1.389 . S
C466 C467 1.387 . S
C467 H452 0.930 . S
C467 C462 1.390 . S
C467 C466 1.387 . S
H468 C480 0.930 . S
H469 C482 0.930 . S
H470 C483 0.930 . S
H471 C487 0.959 . S
H472 C487 0.959 . S
H473 C487 0.961 . S
H474 C488 0.960 . S
H475 C488 0.961 . S
H476 C488 0.959 . S
H477 C491 0.929 . S
H478 C492 0.931 1_455 S
H479 C494 0.930 . S
C480 H468 0.930 . S
C480 C481 1.399 . S
C480 C485 1.399 1_565 S
C481 C480 1.399 . S
C481 C482 1.376 . S
C482 H469 0.930 . S
C482 C481 1.376 . S
C482 C483 1.388 . S
C483 H470 0.930 . S
C483 C482 1.388 . S
C483 C484 1.390 1_565 S
C484 C483 1.390 1_545 S
C484 C485 1.394 . S
C484 C490 1.465 . S
C485 C480 1.399 1_545 S
C485 C484 1.394 . S
C485 C486 1.516 . S
C486 C485 1.516 . S
C486 C487 1.502 . S
C486 C488 1.561 . S
C486 C489 1.526 . S
C487 H471 0.959 . S
C487 H472 0.959 . S
C487 H473 0.961 . S
C487 C486 1.502 . S
C488 H474 0.960 . S
C488 H475 0.961 . S
C488 H476 0.959 . S
C488 C486 1.561 . S
C489 C486 1.526 . S
C489 C490 1.396 . S
C489 C494 1.390 . S
C490 C484 1.465 . S
C490 C489 1.396 . S
C490 C491 1.399 . S
C491 H477 0.929 . S
C491 C490 1.399 . S
C491 C492 1.385 . S
C492 H478 0.931 1_655 S
C492 C491 1.385 . S
C492 C493 1.389 . S
C493 C492 1.389 . S
C493 C494 1.387 . S
C494 H479 0.930 . S
C494 C489 1.390 . S
C494 C493 1.387 . S
H495 C507 0.930 . S
H496 C509 0.930 . S
H497 C510 0.930 . S
H498 C514 0.959 . S
H499 C514 0.959 . S
H500 C514 0.961 . S
H501 C515 0.960 . S
H502 C515 0.961 . S
H503 C515 0.959 . S
H504 C518 0.929 . S
H505 C519 0.931 . S
H506 C521 0.930 . S
C507 H495 0.930 . S
C507 C508 1.399 . S
C507 C512 1.399 . S
C508 C507 1.399 . S
C508 C509 1.376 . S
C509 H496 0.930 . S
C509 C508 1.376 . S
C509 C510 1.388 . S
C510 H497 0.930 . S
C510 C509 1.388 . S
C510 C511 1.390 . S
C511 C510 1.390 . S
C511 C512 1.394 . S
C511 C517 1.465 . S
C512 C507 1.399 . S
C512 C511 1.394 . S
C512 C513 1.516 . S
C513 C512 1.516 . S
C513 C514 1.502 . S
C513 C515 1.561 . S
C513 C516 1.526 . S
C514 H498 0.959 . S
C514 H499 0.959 . S
C514 H500 0.961 . S
C514 C513 1.502 . S
C515 H501 0.960 . S
C515 H502 0.961 . S
C515 H503 0.959 . S
C515 C513 1.561 . S
C516 C513 1.526 . S
C516 C517 1.396 . S
C516 C521 1.390 . S
C517 C511 1.465 . S
C517 C516 1.396 . S
C517 C518 1.399 . S
C518 H504 0.929 . S
C518 C517 1.399 . S
C518 C519 1.385 . S
C519 H505 0.931 . S
C519 C518 1.385 . S
C519 C520 1.389 . S
C520 C519 1.389 . S
C520 C521 1.387 . S
C521 H506 0.930 . S
C521 C516 1.390 . S
C521 C520 1.387 . S
H522 C534 0.930 . S
H523 C536 0.930 . S
H524 C537 0.930 . S
H525 C541 0.959 . S
H526 C541 0.959 . S
H527 C541 0.961 . S
H528 C542 0.960 . S
H529 C542 0.961 . S
H530 C542 0.959 . S
H531 C545 0.929 . S
H532 C546 0.931 . S
H533 C548 0.930 . S
C534 H522 0.930 . S
C534 C535 1.399 . S
C534 C539 1.399 1_455 S
C535 C534 1.399 . S
C535 C536 1.376 . S
C536 H523 0.930 . S
C536 C535 1.376 . S
C536 C537 1.388 . S
C537 H524 0.930 . S
C537 C536 1.388 . S
C537 C538 1.390 1_455 S
C538 C537 1.390 1_655 S
C538 C539 1.394 . S
C538 C544 1.465 . S
C539 C534 1.399 1_655 S
C539 C538 1.394 . S
C539 C540 1.516 . S
C540 C539 1.516 . S
C540 C541 1.502 . S
C540 C542 1.561 . S
C540 C543 1.526 . S
C541 H525 0.959 . S
C541 H526 0.959 . S
C541 H527 0.961 . S
C541 C540 1.502 . S
C542 H528 0.960 . S
C542 H529 0.961 . S
C542 H530 0.959 . S
C542 C540 1.561 . S
C543 C540 1.526 . S
C543 C544 1.396 . S
C543 C548 1.390 . S
C544 C538 1.465 . S
C544 C543 1.396 . S
C544 C545 1.399 . S
C545 H531 0.929 . S
C545 C544 1.399 . S
C545 C546 1.385 . S
C546 H532 0.931 . S
C546 C545 1.385 . S
C546 C547 1.389 . S
C547 C546 1.389 . S
C547 C548 1.387 . S
C548 H533 0.930 . S
C548 C543 1.390 . S
C548 C547 1.387 . S
H549 C561 0.930 . S
H550 C563 0.930 . S
H551 C564 0.930 . S
H552 C568 0.959 . S
H553 C568 0.959 . S
H554 C568 0.961 . S
H555 C569 0.960 . S
H556 C569 0.961 . S
H557 C569 0.959 . S
H558 C572 0.929 . S
H559 C573 0.931 . S
H560 C575 0.930 . S
C561 H549 0.930 . S
C561 C562 1.399 . S
C561 C566 1.399 . S
C562 C561 1.399 . S
C562 C563 1.376 . S
C563 H550 0.930 . S
C563 C562 1.376 . S
C563 C564 1.388 . S
C564 H551 0.930 . S
C564 C563 1.388 . S
C564 C565 1.390 . S
C565 C564 1.390 . S
C565 C566 1.394 . S
C565 C571 1.465 . S
C566 C561 1.399 . S
C566 C565 1.394 . S
C566 C567 1.516 . S
C567 C566 1.516 . S
C567 C568 1.502 . S
C567 C569 1.561 . S
C567 C570 1.526 . S
C568 H552 0.959 . S
C568 H553 0.959 . S
C568 H554 0.961 . S
C568 C567 1.502 . S
C569 H555 0.960 . S
C569 H556 0.961 . S
C569 H557 0.959 . S
C569 C567 1.561 . S
C570 C567 1.526 . S
C570 C571 1.396 . S
C570 C575 1.390 1_545 S
C571 C565 1.465 . S
C571 C570 1.396 . S
C571 C572 1.399 . S
C572 H558 0.929 . S
C572 C571 1.399 . S
C572 C573 1.385 1_545 S
C573 H559 0.931 . S
C573 C572 1.385 1_565 S
C573 C574 1.389 . S
C574 C573 1.389 . S
C574 C575 1.387 . S
C575 H560 0.930 . S
C575 C570 1.390 1_565 S
C575 C574 1.387 . S
H576 C588 0.930 . S
H577 C590 0.930 . S
H578 C591 0.930 1_565 S
H579 C595 0.959 . S
H580 C595 0.959 . S
H581 C595 0.961 . S
H582 C596 0.960 . S
H583 C596 0.961 . S
H584 C596 0.959 . S
H585 C599 0.929 1_565 S
H586 C600 0.931 . S
H587 C602 0.930 . S
C588 H576 0.930 . S
C588 C589 1.399 . S
C588 C593 1.399 . S
C589 C588 1.399 . S
C589 C590 1.376 . S
C590 H577 0.930 . S
C590 C589 1.376 . S
C590 C591 1.388 . S
C591 H578 0.930 1_545 S
C591 C590 1.388 . S
C591 C592 1.390 . S
C592 C591 1.390 . S
C592 C593 1.394 . S
C592 C598 1.465 . S
C593 C588 1.399 . S
C593 C592 1.394 . S
C593 C594 1.516 . S
C594 C593 1.516 . S
C594 C595 1.502 . S
C594 C596 1.561 . S
C594 C597 1.526 . S
C595 H579 0.959 . S
C595 H580 0.959 . S
C595 H581 0.961 . S
C595 C594 1.502 . S
C596 H582 0.960 . S
C596 H583 0.961 . S
C596 H584 0.959 . S
C596 C594 1.561 . S
C597 C594 1.526 . S
C597 C598 1.396 . S
C597 C602 1.390 . S
C598 C592 1.465 . S
C598 C597 1.396 . S
C598 C599 1.399 . S
C599 H585 0.929 1_545 S
C599 C598 1.399 . S
C599 C600 1.385 . S
C600 H586 0.931 . S
C600 C599 1.385 . S
C600 C601 1.389 . S
C601 C600 1.389 . S
C601 C602 1.387 . S
C602 H587 0.930 . S
C602 C597 1.390 . S
C602 C601 1.387 . S
H603 C615 0.930 . S
H604 C617 0.930 . S
H605 C618 0.930 . S
H606 C622 0.959 . S
H607 C622 0.959 . S
H608 C622 0.961 . S
H609 C623 0.960 . S
H610 C623 0.961 . S
H611 C623 0.959 . S
H612 C626 0.929 . S
H613 C627 0.931 . S
H614 C629 0.930 . S
C615 H603 0.930 . S
C615 C616 1.399 . S
C615 C620 1.399 . S
C616 C615 1.399 . S
C616 C617 1.376 . S
C617 H604 0.930 . S
C617 C616 1.376 . S
C617 C618 1.388 . S
C618 H605 0.930 . S
C618 C617 1.388 . S
C618 C619 1.390 . S
C619 C618 1.390 . S
C619 C620 1.394 . S
C619 C625 1.465 . S
C620 C615 1.399 . S
C620 C619 1.394 . S
C620 C621 1.516 . S
C621 C620 1.516 . S
C621 C622 1.502 . S
C621 C623 1.561 . S
C621 C624 1.526 . S
C622 H606 0.959 . S
C622 H607 0.959 . S
C622 H608 0.961 . S
C622 C621 1.502 . S
C623 H609 0.960 . S
C623 H610 0.961 . S
C623 H611 0.959 . S
C623 C621 1.561 . S
C624 C621 1.526 . S
C624 C625 1.396 . S
C624 C629 1.390 . S
C625 C619 1.465 . S
C625 C624 1.396 . S
C625 C626 1.399 . S
C626 H612 0.929 . S
C626 C625 1.399 . S
C626 C627 1.385 . S
C627 H613 0.931 . S
C627 C626 1.385 . S
C627 C628 1.389 . S
C628 C627 1.389 . S
C628 C629 1.387 . S
C629 H614 0.930 . S
C629 C624 1.390 . S
C629 C628 1.387 . S
H630 C642 0.930 . S
H631 C644 0.930 . S
H632 C645 0.930 . S
H633 C649 0.959 . S
H634 C649 0.959 . S
H635 C649 0.961 . S
H636 C650 0.960 . S
H637 C650 0.961 . S
H638 C650 0.959 . S
H639 C653 0.929 . S
H640 C654 0.931 . S
H641 C656 0.930 . S
C642 H630 0.930 . S
C642 C643 1.399 . S
C642 C647 1.399 . S
C643 C642 1.399 . S
C643 C644 1.376 . S
C644 H631 0.930 . S
C644 C643 1.376 . S
C644 C645 1.388 . S
C645 H632 0.930 . S
C645 C644 1.388 . S
C645 C646 1.390 . S
C646 C645 1.390 . S
C646 C647 1.394 . S
C646 C652 1.465 . S
C647 C642 1.399 . S
C647 C646 1.394 . S
C647 C648 1.516 . S
C648 C647 1.516 . S
C648 C649 1.502 1_655 S
C648 C650 1.561 . S
C648 C651 1.526 . S
C649 H633 0.959 . S
C649 H634 0.959 . S
C649 H635 0.961 . S
C649 C648 1.502 1_455 S
C650 H636 0.960 . S
C650 H637 0.961 . S
C650 H638 0.959 . S
C650 C648 1.561 . S
C651 C648 1.526 . S
C651 C652 1.396 . S
C651 C656 1.390 . S
C652 C646 1.465 . S
C652 C651 1.396 . S
C652 C653 1.399 . S
C653 H639 0.929 . S
C653 C652 1.399 . S
C653 C654 1.385 . S
C654 H640 0.931 . S
C654 C653 1.385 . S
C654 C655 1.389 . S
C655 C654 1.389 . S
C655 C656 1.387 . S
C656 H641 0.930 . S
C656 C651 1.390 . S
C656 C655 1.387 . S
H657 C669 0.930 . S
H658 C671 0.930 . S
H659 C672 0.930 . S
H660 C676 0.959 . S
H661 C676 0.959 . S
H662 C676 0.961 . S
H663 C677 0.960 . S
H664 C677 0.961 . S
H665 C677 0.959 . S
H666 C680 0.929 . S
H667 C681 0.931 . S
H668 C683 0.930 . S
C669 H657 0.930 . S
C669 C670 1.399 . S
C669 C674 1.399 . S
C670 C669 1.399 . S
C670 C671 1.376 . S
C671 H658 0.930 . S
C671 C670 1.376 . S
C671 C672 1.388 . S
C672 H659 0.930 . S
C672 C671 1.388 . S
C672 C673 1.390 . S
C673 C672 1.390 . S
C673 C674 1.394 . S
C673 C679 1.465 . S
C674 C669 1.399 . S
C674 C673 1.394 . S
C674 C675 1.516 . S
C675 C674 1.516 . S
C675 C676 1.502 1_455 S
C675 C677 1.561 . S
C675 C678 1.526 . S
C676 H660 0.959 . S
C676 H661 0.959 . S
C676 H662 0.961 . S
C676 C675 1.502 1_655 S
C677 H663 0.960 . S
C677 H664 0.961 . S
C677 H665 0.959 . S
C677 C675 1.561 . S
C678 C675 1.526 . S
C678 C679 1.396 . S
C678 C683 1.390 . S
C679 C673 1.465 . S
C679 C678 1.396 . S
C679 C680 1.399 . S
C680 H666 0.929 . S
C680 C679 1.399 . S
C680 C681 1.385 . S
C681 H667 0.931 . S
C681 C680 1.385 . S
C681 C682 1.389 . S
C682 C681 1.389 . S
C682 C683 1.387 . S
C683 H668 0.930 . S
C683 C678 1.390 . S
C683 C682 1.387 . S
H684 C696 0.930 . S
H685 C698 0.930 . S
H686 C699 0.930 1_545 S
H687 C703 0.959 . S
H688 C703 0.959 . S
H689 C703 0.961 . S
H690 C704 0.960 . S
H691 C704 0.961 . S
H692 C704 0.959 . S
H693 C707 0.929 1_545 S
H694 C708 0.931 . S
H695 C710 0.930 . S
C696 H684 0.930 . S
C696 C697 1.399 . S
C696 C701 1.399 . S
C697 C696 1.399 . S
C697 C698 1.376 . S
C698 H685 0.930 . S
C698 C697 1.376 . S
C698 C699 1.388 . S
C699 H686 0.930 1_565 S
C699 C698 1.388 . S
C699 C700 1.390 . S
C700 C699 1.390 . S
C700 C701 1.394 . S
C700 C706 1.465 . S
C701 C696 1.399 . S
C701 C700 1.394 . S
C701 C702 1.516 . S
C702 C701 1.516 . S
C702 C703 1.502 . S
C702 C704 1.561 . S
C702 C705 1.526 . S
C703 H687 0.959 . S
C703 H688 0.959 . S
C703 H689 0.961 . S
C703 C702 1.502 . S
C704 H690 0.960 . S
C704 H691 0.961 . S
C704 H692 0.959 . S
C704 C702 1.561 . S
C705 C702 1.526 . S
C705 C706 1.396 . S
C705 C710 1.390 . S
C706 C700 1.465 . S
C706 C705 1.396 . S
C706 C707 1.399 . S
C707 H693 0.929 1_565 S
C707 C706 1.399 . S
C707 C708 1.385 . S
C708 H694 0.931 . S
C708 C707 1.385 . S
C708 C709 1.389 . S
C709 C708 1.389 . S
C709 C710 1.387 . S
C710 H695 0.930 . S
C710 C705 1.390 . S
C710 C709 1.387 . S
H711 C723 0.930 . S
H712 C725 0.930 . S
H713 C726 0.930 . S
H714 C730 0.959 . S
H715 C730 0.959 . S
H716 C730 0.961 . S
H717 C731 0.960 . S
H718 C731 0.961 . S
H719 C731 0.959 . S
H720 C734 0.929 . S
H721 C735 0.931 . S
H722 C737 0.930 . S
C723 H711 0.930 . S
C723 C724 1.399 . S
C723 C728 1.399 . S
C724 C723 1.399 . S
C724 C725 1.376 . S
C725 H712 0.930 . S
C725 C724 1.376 . S
C725 C726 1.388 . S
C726 H713 0.930 . S
C726 C725 1.388 . S
C726 C727 1.390 . S
C727 C726 1.390 . S
C727 C728 1.394 . S
C727 C733 1.465 . S
C728 C723 1.399 . S
C728 C727 1.394 . S
C728 C729 1.516 . S
C729 C728 1.516 . S
C729 C730 1.502 . S
C729 C731 1.561 . S
C729 C732 1.526 . S
C730 H714 0.959 . S
C730 H715 0.959 . S
C730 H716 0.961 . S
C730 C729 1.502 . S
C731 H717 0.960 . S
C731 H718 0.961 . S
C731 H719 0.959 . S
C731 C729 1.561 . S
C732 C729 1.526 . S
C732 C733 1.396 . S
C732 C737 1.390 . S
C733 C727 1.465 . S
C733 C732 1.396 . S
C733 C734 1.399 . S
C734 H720 0.929 . S
C734 C733 1.399 . S
C734 C735 1.385 . S
C735 H721 0.931 . S
C735 C734 1.385 . S
C735 C736 1.389 . S
C736 C735 1.389 . S
C736 C737 1.387 . S
C737 H722 0.930 . S
C737 C732 1.390 . S
C737 C736 1.387 . S
H738 C750 0.930 1_545 S
H739 C752 0.930 . S
H740 C753 0.930 . S
H741 C757 0.959 . S
H742 C757 0.959 1_554 S
H743 C757 0.961 . S
H744 C758 0.960 . S
H745 C758 0.961 . S
H746 C758 0.959 . S
H747 C761 0.929 . S
H748 C762 0.931 . S
H749 C764 0.930 . S
C750 H738 0.930 1_565 S
C750 C751 1.399 . S
C750 C755 1.399 1_565 S
C751 C750 1.399 . S
C751 C752 1.376 . S
C752 H739 0.930 . S
C752 C751 1.376 . S
C752 C753 1.388 . S
C753 H740 0.930 . S
C753 C752 1.388 . S
C753 C754 1.390 . S
C754 C753 1.390 . S
C754 C755 1.394 1_565 S
C754 C760 1.465 1_556 S
C755 C750 1.399 1_545 S
C755 C754 1.394 1_545 S
C755 C756 1.516 . S
C756 C755 1.516 . S
C756 C757 1.502 . S
C756 C758 1.561 . S
C756 C759 1.526 1_556 S
C757 H741 0.959 . S
C757 H742 0.959 1_556 S
C757 H743 0.961 . S
C757 C756 1.502 . S
C758 H744 0.960 . S
C758 H745 0.961 . S
C758 H746 0.959 . S
C758 C756 1.561 . S
C759 C756 1.526 1_554 S
C759 C760 1.396 1_545 S
C759 C764 1.390 . S
C760 C754 1.465 1_554 S
C760 C759 1.396 1_565 S
C760 C761 1.399 . S
C761 H747 0.929 . S
C761 C760 1.399 . S
C761 C762 1.385 . S
C762 H748 0.931 . S
C762 C761 1.385 . S
C762 C763 1.389 1_565 S
C763 C762 1.389 1_545 S
C763 C764 1.387 . S
C764 H749 0.930 . S
C764 C759 1.390 . S
C764 C763 1.387 . S
H765 C777 0.930 . S
H766 C779 0.930 . S
H767 C780 0.930 . S
H768 C784 0.959 . S
H769 C784 0.959 . S
H770 C784 0.961 . S
H771 C785 0.960 . S
H772 C785 0.961 . S
H773 C785 0.959 . S
H774 C788 0.929 . S
H775 C789 0.931 . S
H776 C791 0.930 . S
C777 H765 0.930 . S
C777 C778 1.399 . S
C777 C782 1.399 . S
C778 C777 1.399 . S
C778 C779 1.376 . S
C779 H766 0.930 . S
C779 C778 1.376 . S
C779 C780 1.388 . S
C780 H767 0.930 . S
C780 C779 1.388 . S
C780 C781 1.390 . S
C781 C780 1.390 . S
C781 C782 1.394 . S
C781 C787 1.465 . S
C782 C777 1.399 . S
C782 C781 1.394 . S
C782 C783 1.516 . S
C783 C782 1.516 . S
C783 C784 1.502 . S
C783 C785 1.561 . S
C783 C786 1.526 . S
C784 H768 0.959 . S
C784 H769 0.959 . S
C784 H770 0.961 . S
C784 C783 1.502 . S
C785 H771 0.960 . S
C785 H772 0.961 . S
C785 H773 0.959 . S
C785 C783 1.561 . S
C786 C783 1.526 . S
C786 C787 1.396 . S
C786 C791 1.390 . S
C787 C781 1.465 . S
C787 C786 1.396 . S
C787 C788 1.399 . S
C788 H774 0.929 . S
C788 C787 1.399 . S
C788 C789 1.385 . S
C789 H775 0.931 . S
C789 C788 1.385 . S
C789 C790 1.389 . S
C790 C789 1.389 . S
C790 C791 1.387 . S
C791 H776 0.930 . S
C791 C786 1.390 . S
C791 C790 1.387 . S
H792 C804 0.930 1_655 S
H793 C806 0.930 . S
H794 C807 0.930 . S
H795 C811 0.959 . S
H796 C811 0.959 . S
H797 C811 0.961 . S
H798 C812 0.960 . S
H799 C812 0.961 1_554 S
H800 C812 0.959 1_454 S
H801 C815 0.929 . S
H802 C816 0.931 . S
H803 C818 0.930 . S
C804 H792 0.930 1_455 S
C804 C805 1.399 . S
C804 C809 1.399 . S
C805 C804 1.399 . S
C805 C806 1.376 . S
C806 H793 0.930 . S
C806 C805 1.376 . S
C806 C807 1.388 . S
C807 H794 0.930 . S
C807 C806 1.388 . S
C807 C808 1.390 . S
C808 C807 1.390 . S
C808 C809 1.394 . S
C808 C814 1.465 1_556 S
C809 C804 1.399 . S
C809 C808 1.394 . S
C809 C810 1.516 1_455 S
C810 C809 1.516 1_655 S
C810 C811 1.502 . S
C810 C812 1.561 . S
C810 C813 1.526 1_556 S
C811 H795 0.959 . S
C811 H796 0.959 . S
C811 H797 0.961 . S
C811 C810 1.502 . S
C812 H798 0.960 . S
C812 H799 0.961 1_556 S
C812 H800 0.959 1_656 S
C812 C810 1.561 . S
C813 C810 1.526 1_554 S
C813 C814 1.396 1_655 S
C813 C818 1.390 . S
C814 C808 1.465 1_554 S
C814 C813 1.396 1_455 S
C814 C815 1.399 . S
C815 H801 0.929 . S
C815 C814 1.399 . S
C815 C816 1.384 . S
C816 H802 0.931 . S
C816 C815 1.384 . S
C816 C817 1.390 1_455 S
C817 C816 1.390 1_655 S
C817 C818 1.387 . S
C818 H803 0.930 . S
C818 C813 1.390 . S
C818 C817 1.387 . S
H819 C831 0.930 . S
H820 C833 0.930 . S
H821 C834 0.930 . S
H822 C838 0.959 . S
H823 C838 0.959 . S
H824 C838 0.961 . S
H825 C839 0.960 . S
H826 C839 0.961 . S
H827 C839 0.959 . S
H828 C842 0.929 . S
H829 C843 0.931 . S
H830 C845 0.946 . S
C831 H819 0.930 . S
C831 C832 1.399 . S
C831 C836 1.399 . S
C832 C831 1.399 . S
C832 C833 1.376 1_545 S
C833 H820 0.930 . S
C833 C832 1.376 1_565 S
C833 C834 1.388 . S
C834 H821 0.930 . S
C834 C833 1.388 . S
C834 C835 1.390 . S
C835 C834 1.390 . S
C835 C836 1.394 1_565 S
C835 C841 1.465 . S
C836 C831 1.399 . S
C836 C835 1.394 1_545 S
C836 C837 1.516 . S
C837 C836 1.516 . S
C837 C838 1.502 . S
C837 C839 1.561 . S
C837 C840 1.526 . S
C838 H822 0.959 . S
C838 H823 0.959 . S
C838 H824 0.961 . S
C838 C837 1.502 . S
C839 H825 0.960 . S
C839 H826 0.961 . S
C839 H827 0.959 . S
C839 C837 1.561 . S
C840 C837 1.526 . S
C840 C841 1.396 1_545 S
C840 C845 1.393 . S
C841 C835 1.465 . S
C841 C840 1.396 1_565 S
C841 C842 1.399 . S
C842 H828 0.929 . S
C842 C841 1.399 . S
C842 C843 1.385 . S
C843 H829 0.931 . S
C843 C842 1.385 . S
C843 C844 1.389 . S
C844 C843 1.389 . S
C844 C845 1.367 1_565 S
C845 H830 0.946 . S
C845 C840 1.393 . S
C845 C844 1.367 1_545 S
H846 C858 0.930 . S
H847 C860 0.930 . S
H848 C861 0.930 . S
H849 C865 0.959 . S
H850 C865 0.959 . S
H851 C865 0.961 . S
H852 C866 0.982 . S
H853 C866 0.961 . S
H854 C866 0.959 . S
H855 C869 0.929 . S
H856 C870 0.931 . S
H857 C872 0.930 . S
C858 H846 0.930 . S
C858 C859 1.399 . S
C858 C863 1.399 . S
C859 C858 1.399 . S
C859 C860 1.376 . S
C860 H847 0.930 . S
C860 C859 1.376 . S
C860 C861 1.388 . S
C861 H848 0.930 . S
C861 C860 1.388 . S
C861 C862 1.390 . S
C862 C861 1.390 . S
C862 C863 1.394 . S
C862 C868 1.465 1_554 S
C863 C858 1.399 . S
C863 C862 1.394 . S
C863 C864 1.516 1_554 S
C864 C863 1.516 1_556 S
C864 C865 1.502 . S
C864 C866 1.561 . S
C864 C867 1.526 . S
C865 H849 0.959 . S
C865 H850 0.959 . S
C865 H851 0.961 . S
C865 C864 1.502 . S
C866 H852 0.982 . S
C866 H853 0.961 . S
C866 H854 0.959 . S
C866 C864 1.561 . S
C867 C864 1.526 . S
C867 C868 1.396 . S
C867 C872 1.390 . S
C868 C862 1.465 1_556 S
C868 C867 1.396 . S
C868 C869 1.399 . S
C869 H855 0.929 . S
C869 C868 1.399 . S
C869 C870 1.385 . S
C870 H856 0.931 . S
C870 C869 1.385 . S
C870 C871 1.389 . S
C871 C870 1.389 . S
C871 C872 1.387 . S
C872 H857 0.930 . S
C872 C867 1.390 . S
C872 C871 1.387 . S
H873 C885 0.930 . S
H874 C887 0.930 . S
H875 C888 0.930 . S
H876 C892 0.959 . S
H877 C892 0.959 1_655 S
H878 C892 0.961 . S
H879 C893 0.960 . S
H880 C893 0.961 . S
H881 C893 0.959 . S
H882 C896 0.929 . S
H883 C897 0.931 . S
H884 C899 0.930 . S
C885 H873 0.930 . S
C885 C886 1.399 . S
C885 C890 1.399 . S
C886 C885 1.399 . S
C886 C887 1.376 . S
C887 H874 0.930 . S
C887 C886 1.376 . S
C887 C888 1.388 . S
C888 H875 0.930 . S
C888 C887 1.388 . S
C888 C889 1.390 . S
C889 C888 1.390 . S
C889 C890 1.394 . S
C889 C895 1.465 1_455 S
C890 C885 1.399 . S
C890 C889 1.394 . S
C890 C891 1.516 1_455 S
C891 C890 1.516 1_655 S
C891 C892 1.502 1_655 S
C891 C893 1.561 . S
C891 C894 1.526 . S
C892 H876 0.959 . S
C892 H877 0.959 1_455 S
C892 H878 0.961 . S
C892 C891 1.502 1_455 S
C893 H879 0.960 . S
C893 H880 0.961 . S
C893 H881 0.959 . S
C893 C891 1.561 . S
C894 C891 1.526 . S
C894 C895 1.396 . S
C894 C899 1.390 . S
C895 C889 1.465 1_655 S
C895 C894 1.396 . S
C895 C896 1.399 . S
C896 H882 0.929 . S
C896 C895 1.399 . S
C896 C897 1.385 . S
C897 H883 0.931 . S
C897 C896 1.385 . S
C897 C898 1.389 . S
C898 C897 1.389 . S
C898 C899 1.387 . S
C899 H884 0.930 . S
C899 C894 1.390 . S
C899 C898 1.387 . S
H900 C912 0.930 . S
H901 C914 0.930 . S
H902 C915 0.930 . S
H903 C919 0.959 . S
H904 C919 0.959 . S
H905 C919 0.961 . S
H906 C920 0.960 . S
H907 C920 0.961 . S
H908 C920 0.959 . S
H909 C923 0.929 . S
H910 C924 0.931 . S
H911 C926 0.930 . S
C912 H900 0.930 . S
C912 C913 1.399 . S
C912 C917 1.399 . S
C913 C912 1.399 . S
C913 C914 1.376 . S
C914 H901 0.930 . S
C914 C913 1.376 . S
C914 C915 1.388 . S
C915 H902 0.930 . S
C915 C914 1.388 . S
C915 C916 1.390 . S
C916 C915 1.390 . S
C916 C917 1.394 . S
C916 C922 1.465 . S
C917 C912 1.399 . S
C917 C916 1.394 . S
C917 C918 1.516 . S
C918 C917 1.516 . S
C918 C919 1.502 . S
C918 C920 1.561 . S
C918 C921 1.526 . S
C919 H903 0.959 . S
C919 H904 0.959 . S
C919 H905 0.961 . S
C919 C918 1.502 . S
C920 H906 0.960 . S
C920 H907 0.961 . S
C920 H908 0.959 . S
C920 C918 1.561 . S
C921 C918 1.526 . S
C921 C922 1.396 . S
C921 C926 1.390 . S
C922 C916 1.465 . S
C922 C921 1.396 . S
C922 C923 1.399 . S
C923 H909 0.929 . S
C923 C922 1.399 . S
C923 C924 1.385 . S
C924 H910 0.931 . S
C924 C923 1.385 . S
C924 C925 1.389 . S
C925 C924 1.389 . S
C925 C926 1.387 . S
C926 H911 0.930 . S
C926 C921 1.390 . S
C926 C925 1.387 . S
H927 C939 0.930 . S
H928 C941 0.930 . S
H929 C942 0.930 . S
H930 C946 0.959 . S
H931 C946 0.959 . S
H932 C946 0.961 . S
H933 C947 0.960 . S
H934 C947 0.961 . S
H935 C947 0.959 . S
H936 C950 0.929 . S
H937 C951 0.931 . S
H938 C953 0.930 . S
C939 H927 0.930 . S
C939 C940 1.399 . S
C939 C944 1.399 . S
C940 C939 1.399 . S
C940 C941 1.376 . S
C941 H928 0.930 . S
C941 C940 1.376 . S
C941 C942 1.388 . S
C942 H929 0.930 . S
C942 C941 1.388 . S
C942 C943 1.390 . S
C943 C942 1.390 . S
C943 C944 1.394 . S
C943 C949 1.465 . S
C944 C939 1.399 . S
C944 C943 1.394 . S
C944 C945 1.516 . S
C945 C944 1.516 . S
C945 C946 1.502 . S
C945 C947 1.561 . S
C945 C948 1.526 . S
C946 H930 0.959 . S
C946 H931 0.959 . S
C946 H932 0.961 . S
C946 C945 1.502 . S
C947 H933 0.960 . S
C947 H934 0.961 . S
C947 H935 0.959 . S
C947 C945 1.561 . S
C948 C945 1.526 . S
C948 C949 1.396 . S
C948 C953 1.390 . S
C949 C943 1.465 . S
C949 C948 1.396 . S
C949 C950 1.399 . S
C950 H936 0.929 . S
C950 C949 1.399 . S
C950 C951 1.385 . S
C951 H937 0.931 . S
C951 C950 1.385 . S
C951 C952 1.389 . S
C952 C951 1.389 . S
C952 C953 1.387 . S
C953 H938 0.930 . S
C953 C948 1.390 . S
C953 C952 1.387 . S
H954 C966 0.930 . S
H955 C968 0.930 . S
H956 C969 0.930 . S
H957 C973 0.959 . S
H958 C973 0.959 . S
H959 C973 0.961 . S
H960 C974 0.960 . S
H961 C974 0.961 . S
H962 C974 0.959 . S
H963 C977 0.929 . S
H964 C978 0.931 . S
H965 C980 0.930 . S
C966 H954 0.930 . S
C966 C967 1.399 . S
C966 C971 1.399 . S
C967 C966 1.399 . S
C967 C968 1.376 . S
C968 H955 0.930 . S
C968 C967 1.376 . S
C968 C969 1.388 . S
C969 H956 0.930 . S
C969 C968 1.388 . S
C969 C970 1.390 . S
C970 C969 1.390 . S
C970 C971 1.394 . S
C970 C976 1.465 . S
C971 C966 1.399 . S
C971 C970 1.394 . S
C971 C972 1.516 . S
C972 C971 1.516 . S
C972 C973 1.502 . S
C972 C974 1.561 . S
C972 C975 1.526 . S
C973 H957 0.959 . S
C973 H958 0.959 . S
C973 H959 0.961 . S
C973 C972 1.502 . S
C974 H960 0.960 . S
C974 H961 0.961 . S
C974 H962 0.959 . S
C974 C972 1.561 . S
C975 C972 1.526 . S
C975 C976 1.396 . S
C975 C980 1.390 . S
C976 C970 1.465 . S
C976 C975 1.396 . S
C976 C977 1.399 . S
C977 H963 0.929 . S
C977 C976 1.399 . S
C977 C978 1.385 . S
C978 H964 0.931 . S
C978 C977 1.385 . S
C978 C979 1.389 . S
C979 C978 1.389 . S
C979 C980 1.387 . S
C980 H965 0.930 . S
C980 C975 1.390 . S
C980 C979 1.387 . S
H981 C993 0.930 . S
H982 C995 0.930 . S
H983 C996 0.930 . S
H984 C1000 0.959 . S
H985 C1000 0.959 . S
H986 C1000 0.961 . S
H987 C1001 0.960 . S
H988 C1001 0.961 . S
H989 C1001 0.959 . S
H990 C1004 0.929 . S
H991 C1005 0.931 . S
H992 C1007 0.930 . S
C993 H981 0.930 . S
C993 C994 1.399 . S
C993 C998 1.399 . S
C994 C993 1.399 . S
C994 C995 1.376 . S
C995 H982 0.930 . S
C995 C994 1.376 . S
C995 C996 1.388 . S
C996 H983 0.930 . S
C996 C995 1.388 . S
C996 C997 1.390 . S
C997 C996 1.390 . S
C997 C998 1.394 . S
C997 C1003 1.465 . S
C998 C993 1.399 . S
C998 C997 1.394 . S
C998 C999 1.516 . S
C999 C998 1.516 . S
C999 C1000 1.502 . S
C999 C1001 1.561 . S
C999 C1002 1.526 . S
C1000 H984 0.959 . S
C1000 H985 0.959 . S
C1000 H986 0.961 . S
C1000 C999 1.502 . S
C1001 H987 0.960 . S
C1001 H988 0.961 . S
C1001 H989 0.959 . S
C1001 C999 1.561 . S
C1002 C999 1.526 . S
C1002 C1003 1.396 . S
C1002 C1007 1.390 . S
C1003 C997 1.465 . S
C1003 C1002 1.396 . S
C1003 C1004 1.399 . S
C1004 H990 0.929 . S
C1004 C1003 1.399 . S
C1004 C1005 1.385 . S
C1005 H991 0.931 . S
C1005 C1004 1.385 . S
C1005 C1006 1.389 . S
C1006 C1005 1.389 . S
C1006 C1007 1.387 . S
C1007 H992 0.930 . S
C1007 C1002 1.390 . S
C1007 C1006 1.387 . S
H1008 C1020 0.930 . S
H1009 C1022 0.930 . S
H1010 C1023 0.930 . S
H1011 C1027 0.959 . S
H1012 C1027 0.959 . S
H1013 C1027 0.961 . S
H1014 C1028 0.960 . S
H1015 C1028 0.961 . S
H1016 C1028 0.959 . S
H1017 C1031 0.929 . S
H1018 C1032 0.931 . S
H1019 C1034 0.930 . S
C1020 H1008 0.930 . S
C1020 C1021 1.399 . S
C1020 C1025 1.399 . S
C1021 C1020 1.399 . S
C1021 C1022 1.376 . S
C1022 H1009 0.930 . S
C1022 C1021 1.376 . S
C1022 C1023 1.388 . S
C1023 H1010 0.930 . S
C1023 C1022 1.388 . S
C1023 C1024 1.390 . S
C1024 C1023 1.390 . S
C1024 C1025 1.394 . S
C1024 C1030 1.465 . S
C1025 C1020 1.399 . S
C1025 C1024 1.394 . S
C1025 C1026 1.516 . S
C1026 C1025 1.516 . S
C1026 C1027 1.502 . S
C1026 C1028 1.561 . S
C1026 C1029 1.526 . S
C1027 H1011 0.959 . S
C1027 H1012 0.959 . S
C1027 H1013 0.961 . S
C1027 C1026 1.502 . S
C1028 H1014 0.960 . S
C1028 H1015 0.961 . S
C1028 H1016 0.959 . S
C1028 C1026 1.561 . S
C1029 C1026 1.526 . S
C1029 C1030 1.396 . S
C1029 C1034 1.390 . S
C1030 C1024 1.465 . S
C1030 C1029 1.396 . S
C1030 C1031 1.399 . S
C1031 H1017 0.929 . S
C1031 C1030 1.399 . S
C1031 C1032 1.385 . S
C1032 H1018 0.931 . S
C1032 C1031 1.385 . S
C1032 C1033 1.389 . S
C1033 C1032 1.389 . S
C1033 C1034 1.387 . S
C1034 H1019 0.930 . S
C1034 C1029 1.390 . S
C1034 C1033 1.387 . S
H1035 C1047 0.930 . S
H1036 C1049 0.930 . S
H1037 C1050 0.930 . S
H1038 C1054 0.959 . S
H1039 C1054 0.959 . S
H1040 C1054 0.961 . S
H1041 C1055 0.960 . S
H1042 C1055 0.961 . S
H1043 C1055 0.959 . S
H1044 C1058 0.929 . S
H1045 C1059 0.931 . S
H1046 C1061 0.930 . S
C1047 H1035 0.930 . S
C1047 C1048 1.399 . S
C1047 C1052 1.399 . S
C1048 C1047 1.399 . S
C1048 C1049 1.376 . S
C1049 H1036 0.930 . S
C1049 C1048 1.376 . S
C1049 C1050 1.388 . S
C1050 H1037 0.930 . S
C1050 C1049 1.388 . S
C1050 C1051 1.390 . S
C1051 C1050 1.390 . S
C1051 C1052 1.394 . S
C1051 C1057 1.465 . S
C1052 C1047 1.399 . S
C1052 C1051 1.394 . S
C1052 C1053 1.516 . S
C1053 C1052 1.516 . S
C1053 C1054 1.502 . S
C1053 C1055 1.561 . S
C1053 C1056 1.526 . S
C1054 H1038 0.959 . S
C1054 H1039 0.959 . S
C1054 H1040 0.961 . S
C1054 C1053 1.502 . S
C1055 H1041 0.960 . S
C1055 H1042 0.961 . S
C1055 H1043 0.959 . S
C1055 C1053 1.561 . S
C1056 C1053 1.526 . S
C1056 C1057 1.396 . S
C1056 C1061 1.390 . S
C1057 C1051 1.465 . S
C1057 C1056 1.396 . S
C1057 C1058 1.399 . S
C1058 H1044 0.929 . S
C1058 C1057 1.399 . S
C1058 C1059 1.385 . S
C1059 H1045 0.931 . S
C1059 C1058 1.385 . S
C1059 C1060 1.389 . S
C1060 C1059 1.389 . S
C1060 C1061 1.387 . S
C1061 H1046 0.930 . S
C1061 C1056 1.390 . S
C1061 C1060 1.387 . S
H1062 C1074 0.930 . S
H1063 C1076 0.930 . S
H1064 C1077 0.930 . S
H1065 C1081 0.959 . S
H1066 C1081 0.959 . S
H1067 C1081 0.961 . S
H1068 C1082 0.960 . S
H1069 C1082 0.961 . S
H1070 C1082 0.959 . S
H1071 C1085 0.929 . S
H1072 C1086 0.931 . S
H1073 C1088 0.930 . S
C1074 H1062 0.930 . S
C1074 C1075 1.399 . S
C1074 C1079 1.399 . S
C1075 C1074 1.399 . S
C1075 C1076 1.376 . S
C1076 H1063 0.930 . S
C1076 C1075 1.376 . S
C1076 C1077 1.388 . S
C1077 H1064 0.930 . S
C1077 C1076 1.388 . S
C1077 C1078 1.390 . S
C1078 C1077 1.390 . S
C1078 C1079 1.394 . S
C1078 C1084 1.465 . S
C1079 C1074 1.399 . S
C1079 C1078 1.394 . S
C1079 C1080 1.516 . S
C1080 C1079 1.516 . S
C1080 C1081 1.502 . S
C1080 C1082 1.561 . S
C1080 C1083 1.526 . S
C1081 H1065 0.959 . S
C1081 H1066 0.959 . S
C1081 H1067 0.961 . S
C1081 C1080 1.502 . S
C1082 H1068 0.960 . S
C1082 H1069 0.961 . S
C1082 H1070 0.959 . S
C1082 C1080 1.561 . S
C1083 C1080 1.526 . S
C1083 C1084 1.396 . S
C1083 C1088 1.390 . S
C1084 C1078 1.465 . S
C1084 C1083 1.396 . S
C1084 C1085 1.399 . S
C1085 H1071 0.929 . S
C1085 C1084 1.399 . S
C1085 C1086 1.385 . S
C1086 H1072 0.931 . S
C1086 C1085 1.385 . S
C1086 C1087 1.389 . S
C1087 C1086 1.389 . S
C1087 C1088 1.387 . S
C1088 H1073 0.930 . S
C1088 C1083 1.390 . S
C1088 C1087 1.387 . S
H1089 C1101 0.930 . S
H1090 C1103 0.930 . S
H1091 C1104 0.930 . S
H1092 C1108 0.959 . S
H1093 C1108 0.959 . S
H1094 C1108 0.961 . S
H1095 C1109 0.960 . S
H1096 C1109 0.961 . S
H1097 C1109 0.959 . S
H1098 C1112 0.929 . S
H1099 C1113 0.931 . S
H1100 C1115 0.930 . S
C1101 H1089 0.930 . S
C1101 C1102 1.399 . S
C1101 C1106 1.399 . S
C1102 C1101 1.399 . S
C1102 C1103 1.376 . S
C1103 H1090 0.930 . S
C1103 C1102 1.376 . S
C1103 C1104 1.388 . S
C1104 H1091 0.930 . S
C1104 C1103 1.388 . S
C1104 C1105 1.390 . S
C1105 C1104 1.390 . S
C1105 C1106 1.394 . S
C1105 C1111 1.465 . S
C1106 C1101 1.399 . S
C1106 C1105 1.394 . S
C1106 C1107 1.516 . S
C1107 C1106 1.516 . S
C1107 C1108 1.502 . S
C1107 C1109 1.561 . S
C1107 C1110 1.526 . S
C1108 H1092 0.959 . S
C1108 H1093 0.959 . S
C1108 H1094 0.961 . S
C1108 C1107 1.502 . S
C1109 H1095 0.960 . S
C1109 H1096 0.961 . S
C1109 H1097 0.959 . S
C1109 C1107 1.561 . S
C1110 C1107 1.526 . S
C1110 C1111 1.396 . S
C1110 C1115 1.390 . S
C1111 C1105 1.465 . S
C1111 C1110 1.396 . S
C1111 C1112 1.399 . S
C1112 H1098 0.929 . S
C1112 C1111 1.399 . S
C1112 C1113 1.385 . S
C1113 H1099 0.931 . S
C1113 C1112 1.385 . S
C1113 C1114 1.389 . S
C1114 C1113 1.389 . S
C1114 C1115 1.387 . S
C1115 H1100 0.930 . S
C1115 C1110 1.390 . S
C1115 C1114 1.387 . S
H1116 C1128 0.930 . S
H1117 C1130 0.930 . S
H1118 C1131 0.930 . S
H1119 C1135 0.959 . S
H1120 C1135 0.959 . S
H1121 C1135 0.961 . S
H1122 C1136 0.960 . S
H1123 C1136 0.961 . S
H1124 C1136 0.959 . S
H1125 C1139 0.929 . S
H1126 C1140 0.931 . S
H1127 C1142 0.930 . S
C1128 H1116 0.930 . S
C1128 C1129 1.399 . S
C1128 C1133 1.399 . S
C1129 C1128 1.399 . S
C1129 C1130 1.376 . S
C1130 H1117 0.930 . S
C1130 C1129 1.376 . S
C1130 C1131 1.388 . S
C1131 H1118 0.930 . S
C1131 C1130 1.388 . S
C1131 C1132 1.390 . S
C1132 C1131 1.390 . S
C1132 C1133 1.394 . S
C1132 C1138 1.465 . S
C1133 C1128 1.399 . S
C1133 C1132 1.394 . S
C1133 C1134 1.516 . S
C1134 C1133 1.516 . S
C1134 C1135 1.502 . S
C1134 C1136 1.561 . S
C1134 C1137 1.526 . S
C1135 H1119 0.959 . S
C1135 H1120 0.959 . S
C1135 H1121 0.961 . S
C1135 C1134 1.502 . S
C1136 H1122 0.960 . S
C1136 H1123 0.961 . S
C1136 H1124 0.959 . S
C1136 C1134 1.561 . S
C1137 C1134 1.526 . S
C1137 C1138 1.396 . S
C1137 C1142 1.390 . S
C1138 C1132 1.465 . S
C1138 C1137 1.396 . S
C1138 C1139 1.399 . S
C1139 H1125 0.929 . S
C1139 C1138 1.399 . S
C1139 C1140 1.385 . S
C1140 H1126 0.931 . S
C1140 C1139 1.385 . S
C1140 C1141 1.389 . S
C1141 C1140 1.389 . S
C1141 C1142 1.387 . S
C1142 H1127 0.930 . S
C1142 C1137 1.390 . S
C1142 C1141 1.387 . S
H1143 C1155 0.930 . S
H1144 C1157 0.930 . S
H1145 C1158 0.930 . S
H1146 C1162 0.959 . S
H1147 C1162 0.959 . S
H1148 C1162 0.961 . S
H1149 C1163 0.960 . S
H1150 C1163 0.961 . S
H1151 C1163 0.959 . S
H1152 C1166 0.929 . S
H1153 C1167 0.931 . S
H1154 C1169 0.930 . S
C1155 H1143 0.930 . S
C1155 C1156 1.399 . S
C1155 C1160 1.399 . S
C1156 C1155 1.399 . S
C1156 C1157 1.376 . S
C1157 H1144 0.930 . S
C1157 C1156 1.376 . S
C1157 C1158 1.388 . S
C1158 H1145 0.930 . S
C1158 C1157 1.388 . S
C1158 C1159 1.390 . S
C1159 C1158 1.390 . S
C1159 C1160 1.394 . S
C1159 C1165 1.465 . S
C1160 C1155 1.399 . S
C1160 C1159 1.394 . S
C1160 C1161 1.516 . S
C1161 C1160 1.516 . S
C1161 C1162 1.502 . S
C1161 C1163 1.561 . S
C1161 C1164 1.526 . S
C1162 H1146 0.959 . S
C1162 H1147 0.959 . S
C1162 H1148 0.961 . S
C1162 C1161 1.502 . S
C1163 H1149 0.960 . S
C1163 H1150 0.961 . S
C1163 H1151 0.959 . S
C1163 C1161 1.561 . S
C1164 C1161 1.526 . S
C1164 C1165 1.396 . S
C1164 C1169 1.390 . S
C1165 C1159 1.465 . S
C1165 C1164 1.396 . S
C1165 C1166 1.399 . S
C1166 H1152 0.929 . S
C1166 C1165 1.399 . S
C1166 C1167 1.385 . S
C1167 H1153 0.931 . S
C1167 C1166 1.385 . S
C1167 C1168 1.389 . S
C1168 C1167 1.389 . S
C1168 C1169 1.387 . S
C1169 H1154 0.930 . S
C1169 C1164 1.390 . S
C1169 C1168 1.387 . S
H1170 C1182 0.930 . S
H1171 C1184 0.930 . S
H1172 C1185 0.930 . S
H1173 C1189 0.959 . S
H1174 C1189 0.959 . S
H1175 C1189 0.961 . S
H1176 C1190 0.960 . S
H1177 C1190 0.961 . S
H1178 C1190 0.959 . S
H1179 C1193 0.929 . S
H1180 C1194 0.931 . S
H1181 C1196 0.930 . S
C1182 H1170 0.930 . S
C1182 C1183 1.399 . S
C1182 C1187 1.399 . S
C1183 C1182 1.399 . S
C1183 C1184 1.376 . S
C1184 H1171 0.930 . S
C1184 C1183 1.376 . S
C1184 C1185 1.388 . S
C1185 H1172 0.930 . S
C1185 C1184 1.388 . S
C1185 C1186 1.390 . S
C1186 C1185 1.390 . S
C1186 C1187 1.394 . S
C1186 C1192 1.465 . S
C1187 C1182 1.399 . S
C1187 C1186 1.394 . S
C1187 C1188 1.516 . S
C1188 C1187 1.516 . S
C1188 C1189 1.502 . S
C1188 C1190 1.561 . S
C1188 C1191 1.526 . S
C1189 H1173 0.959 . S
C1189 H1174 0.959 . S
C1189 H1175 0.961 . S
C1189 C1188 1.502 . S
C1190 H1176 0.960 . S
C1190 H1177 0.961 . S
C1190 H1178 0.959 . S
C1190 C1188 1.561 . S
C1191 C1188 1.526 . S
C1191 C1192 1.396 . S
C1191 C1196 1.390 . S
C1192 C1186 1.465 . S
C1192 C1191 1.396 . S
C1192 C1193 1.399 . S
C1193 H1179 0.929 . S
C1193 C1192 1.399 . S
C1193 C1194 1.385 . S
C1194 H1180 0.931 . S
C1194 C1193 1.385 . S
C1194 C1195 1.389 . S
C1195 C1194 1.389 . S
C1195 C1196 1.387 . S
C1196 H1181 0.930 . S
C1196 C1191 1.390 . S
C1196 C1195 1.387 . S
H1197 C1209 0.930 . S
H1198 C1211 0.930 . S
H1199 C1212 0.930 . S
H1200 C1216 0.959 . S
H1201 C1216 0.959 . S
H1202 C1216 0.961 . S
H1203 C1217 0.960 . S
H1204 C1217 0.961 . S
H1205 C1217 0.959 . S
H1206 C1220 0.929 . S
H1207 C1221 0.931 . S
H1208 C1223 0.930 . S
C1209 H1197 0.930 . S
C1209 C1210 1.399 . S
C1209 C1214 1.399 . S
C1210 C1209 1.399 . S
C1210 C1211 1.376 . S
C1211 H1198 0.930 . S
C1211 C1210 1.376 . S
C1211 C1212 1.388 . S
C1212 H1199 0.930 . S
C1212 C1211 1.388 . S
C1212 C1213 1.390 . S
C1213 C1212 1.390 . S
C1213 C1214 1.394 . S
C1213 C1219 1.465 . S
C1214 C1209 1.399 . S
C1214 C1213 1.394 . S
C1214 C1215 1.516 . S
C1215 C1214 1.516 . S
C1215 C1216 1.502 . S
C1215 C1217 1.561 . S
C1215 C1218 1.526 . S
C1216 H1200 0.959 . S
C1216 H1201 0.959 . S
C1216 H1202 0.961 . S
C1216 C1215 1.502 . S
C1217 H1203 0.960 . S
C1217 H1204 0.961 . S
C1217 H1205 0.959 . S
C1217 C1215 1.561 . S
C1218 C1215 1.526 . S
C1218 C1219 1.396 . S
C1218 C1223 1.390 . S
C1219 C1213 1.465 . S
C1219 C1218 1.396 . S
C1219 C1220 1.399 . S
C1220 H1206 0.929 . S
C1220 C1219 1.399 . S
C1220 C1221 1.385 . S
C1221 H1207 0.931 . S
C1221 C1220 1.385 . S
C1221 C1222 1.389 . S
C1222 C1221 1.389 . S
C1222 C1223 1.387 . S
C1223 H1208 0.930 . S
C1223 C1218 1.390 . S
C1223 C1222 1.387 . S
C265 C61 0.820 . S
C277 C7 0.935 . S
C292 C83 1.033 . S
C304 C25 1.074 . S
C319 C49 1.073 . S
C331 C104 1.010 . S
C346 C67 0.999 . S
C358 C125 0.977 . S
C373 C19 0.848 . S
C385 C88 0.955 . S
C400 C41 1.029 . S
C412 C109 1.085 . S
C427 C230 0.818 . S
C439 C130 0.929 . S
C454 C151 0.948 . S
C466 C251 0.841 . S
C481 C172 0.935 . S
C493 C146 0.876 . S
C508 C196 1.088 . S
C520 C167 1.028 . S
C535 C214 0.934 . S
C547 C188 0.876 . S
C562 C208 0.951 . S
C574 C235 1.029 . S
C589 C66 1.373 . S
C601 C16 1.356 . S
C616 C24 1.360 . S
C628 C87 1.377 . S
C643 C58 1.342 . S
C655 C108 1.323 . S
C670 C129 1.371 . S
C682 C205 1.384 . S
C697 C150 1.316 . S
C709 C213 1.336 . S
C724 C171 1.399 . S
C736 C234 1.396 . S
C751 C166 1.394 . S
C763 C20 1.423 . S
C778 C40 1.418 . S
C790 C187 1.390 . S
C805 C209 1.323 . S
C817 C62 1.372 . S
C832 C82 1.421 . S
C844 C229 1.346 . S
C859 C103 1.395 . S
C871 C250 1.340 . S
C886 C145 1.340 . S
C898 C124 1.333 . S
C913 C45 1.046 . S
C925 C4 0.815 . S
C940 C28 1.041 . S
C952 C79 1.133 . S
C967 C46 0.952 . S
C979 C100 1.075 . S
C994 C70 1.041 . S
C1006 C121 1.130 . S
C1021 C3 1.138 . S
C1033 C91 1.031 . S
C1048 C37 1.072 . S
C1060 C112 1.007 . S
C1075 C226 1.139 . S
C1087 C133 0.883 . S
C1102 C154 0.964 . S
C1114 C247 1.082 . S
C1129 C175 1.038 . S
C1141 C142 1.139 . S
C1156 C163 1.160 . S
C1168 C193 1.010 . S
C1183 C217 1.038 . S
C1195 C184 1.108 . S
C1210 C238 0.915 . S
C1222 C192 1.120 . S
