# Generated by pormake.
# Topology uop, (4)-cn, num edge types: 1
# Building blocks:
#     Node 0, Type 0, BuildingBlock: MUDLON_clean_sbu_0, # of connection points: 4
#     Node 1, Type 0, BuildingBlock: MUDLON_clean_sbu_0, # of connection points: 4
#     Node 2, Type 0, BuildingBlock: MUDLON_clean_sbu_0, # of connection points: 4
#     Node 3, Type 0, BuildingBlock: MUDLON_clean_sbu_0, # of connection points: 4
#     Node 4, Type 0, BuildingBlock: MUDLON_clean_sbu_0, # of connection points: 4
#     Node 5, Type 0, BuildingBlock: MUDLON_clean_sbu_0, # of connection points: 4
#     Node 6, Type 0, BuildingBlock: MUDLON_clean_sbu_0, # of connection points: 4
#     Node 7, Type 0, BuildingBlock: MUDLON_clean_sbu_0, # of connection points: 4
#     Node 8, Type 0, BuildingBlock: MUDLON_clean_sbu_0, # of connection points: 4
#     Node 9, Type 0, BuildingBlock: MUDLON_clean_sbu_0, # of connection points: 4
#     Node 10, Type 0, BuildingBlock: MUDLON_clean_sbu_0, # of connection points: 4
#     Node 11, Type 0, BuildingBlock: MUDLON_clean_sbu_0, # of connection points: 4
#     Edge 12, Type (0, 0), BuildingBlock: KIFKEQ_clean_linker_1, # of connection points: 2
#     Edge 13, Type (0, 0), BuildingBlock: KIFKEQ_clean_linker_1, # of connection points: 2
#     Edge 14, Type (0, 0), BuildingBlock: KIFKEQ_clean_linker_1, # of connection points: 2
#     Edge 15, Type (0, 0), BuildingBlock: KIFKEQ_clean_linker_1, # of connection points: 2
#     Edge 16, Type (0, 0), BuildingBlock: KIFKEQ_clean_linker_1, # of connection points: 2
#     Edge 17, Type (0, 0), BuildingBlock: KIFKEQ_clean_linker_1, # of connection points: 2
#     Edge 18, Type (0, 0), BuildingBlock: KIFKEQ_clean_linker_1, # of connection points: 2
#     Edge 19, Type (0, 0), BuildingBlock: KIFKEQ_clean_linker_1, # of connection points: 2
#     Edge 20, Type (0, 0), BuildingBlock: KIFKEQ_clean_linker_1, # of connection points: 2
#     Edge 21, Type (0, 0), BuildingBlock: KIFKEQ_clean_linker_1, # of connection points: 2
#     Edge 22, Type (0, 0), BuildingBlock: KIFKEQ_clean_linker_1, # of connection points: 2
#     Edge 23, Type (0, 0), BuildingBlock: KIFKEQ_clean_linker_1, # of connection points: 2
#     Edge 24, Type (0, 0), BuildingBlock: KIFKEQ_clean_linker_1, # of connection points: 2
#     Edge 25, Type (0, 0), BuildingBlock: KIFKEQ_clean_linker_1, # of connection points: 2
#     Edge 26, Type (0, 0), BuildingBlock: KIFKEQ_clean_linker_1, # of connection points: 2
#     Edge 27, Type (0, 0), BuildingBlock: KIFKEQ_clean_linker_1, # of connection points: 2
#     Edge 28, Type (0, 0), BuildingBlock: KIFKEQ_clean_linker_1, # of connection points: 2
#     Edge 29, Type (0, 0), BuildingBlock: KIFKEQ_clean_linker_1, # of connection points: 2
#     Edge 30, Type (0, 0), BuildingBlock: KIFKEQ_clean_linker_1, # of connection points: 2
#     Edge 31, Type (0, 0), BuildingBlock: KIFKEQ_clean_linker_1, # of connection points: 2
#     Edge 32, Type (0, 0), BuildingBlock: KIFKEQ_clean_linker_1, # of connection points: 2
#     Edge 33, Type (0, 0), BuildingBlock: KIFKEQ_clean_linker_1, # of connection points: 2
#     Edge 34, Type (0, 0), BuildingBlock: KIFKEQ_clean_linker_1, # of connection points: 2
#     Edge 35, Type (0, 0), BuildingBlock: KIFKEQ_clean_linker_1, # of connection points: 2
# Relax obj value: 0.173
# Max RMSD: 0.295
# Mean RMSD: 0.295
data_MOF--net-uop--node1-MUDLON_clean_sbu_0--edge1-KIFKEQ_clean_linker_1
_symmetry_space_group_name_H-M    P1
_symmetry_Int_Tables_number       1
_symmetry_cell_setting            triclinic
loop_
_symmetry_equiv_pos_as_xyz
'x, y, z'
_cell_length_a     34.566451
_cell_length_b     34.791155
_cell_length_c     48.557066
_cell_angle_alpha  89.875795
_cell_angle_beta   90.100508
_cell_angle_gamma 119.80947
loop_
_atom_site_label
_atom_site_type_symbol
_atom_site_fract_x
_atom_site_fract_y
_atom_site_fract_z
_atom_type_partial_charge
Mg0 Mg 0.27439 0.4062 0.19824 0.0
C1 C 0.24868 0.47033 0.17917 0.0
O2 O 0.24123 0.4444 0.15782 0.0
C3 C 0.29489 0.40294 0.25987 0.0
O4 O 0.29494 0.44068 0.26122 0.0
C5 C 0.18032 0.3392 0.19697 0.0
O6 O 0.18748 0.35625 0.22184 0.0
O7 O 0.2133 0.35286 0.18058 0.0
O8 O 0.26235 0.46173 0.20144 0.0
O9 O 0.33613 0.43166 0.17479 0.0
C10 C 0.36483 0.47088 0.18198 0.0
O11 O 0.35356 0.49047 0.20087 0.0
O12 O 0.28661 0.38262 0.23701 0.0
Mg13 Mg 0.86764 0.25869 0.53644 0.0
C14 C 0.90305 0.34976 0.51611 0.0
O15 O 0.86919 0.34308 0.53166 0.0
C16 C 0.84118 0.16387 0.53696 0.0
O17 O 0.82881 0.17002 0.56137 0.0
C18 C 0.93903 0.2949 0.5792 0.0
O19 O 0.96205 0.31088 0.55643 0.0
O20 O 0.89684 0.27068 0.57756 0.0
O21 O 0.91064 0.31786 0.51256 0.0
O22 O 0.80167 0.25255 0.53589 0.0
C23 C 0.77023 0.22207 0.52193 0.0
O24 O 0.77716 0.19267 0.50933 0.0
O25 O 0.86113 0.19704 0.52093 0.0
Mg26 Mg 0.62552 0.86186 0.86666 0.0
C27 C 0.54294 0.78508 0.84324 0.0
O28 O 0.55419 0.81415 0.82322 0.0
C29 C 0.66635 0.93043 0.90969 0.0
O30 O 0.67935 0.95329 0.88666 0.0
C31 C 0.67513 0.83117 0.8297 0.0
O32 O 0.63742 0.81531 0.81609 0.0
O33 O 0.68102 0.85523 0.85072 0.0
O34 O 0.5669 0.79568 0.86491 0.0
O35 O 0.60789 0.90636 0.84519 0.0
C36 C 0.56896 0.89895 0.85129 0.0
O37 O 0.54471 0.86679 0.86857 0.0
O38 O 0.64226 0.88848 0.90825 0.0
Mg39 Mg 0.76881 0.60209 0.20042 0.0
C40 C 0.76594 0.52576 0.17334 0.0
O41 O 0.75864 0.54701 0.15342 0.0
C42 C 0.76031 0.65509 0.24562 0.0
O43 O 0.77201 0.68265 0.2247 0.0
C44 C 0.86491 0.66568 0.20079 0.0
O45 O 0.85758 0.64492 0.2245 0.0
O46 O 0.83183 0.65568 0.18496 0.0
O47 O 0.77278 0.5418 0.19755 0.0
O48 O 0.70822 0.58558 0.17773 0.0
C49 C 0.69367 0.61094 0.16992 0.0
O50 O 0.71861 0.65393 0.17324 0.0
O51 O 0.75762 0.61761 0.24204 0.0
Mg52 Mg 0.17395 0.75637 0.53378 0.0
C53 C 0.13757 0.66601 0.51156 0.0
O54 O 0.1744 0.67317 0.52394 0.0
C55 C 0.20419 0.85184 0.53414 0.0
O56 O 0.21937 0.84541 0.55752 0.0
C57 C 0.11658 0.75402 0.58021 0.0
O58 O 0.10552 0.77296 0.56068 0.0
O59 O 0.14677 0.74417 0.57533 0.0
O60 O 0.12856 0.69729 0.51071 0.0
O61 O 0.23997 0.76315 0.53142 0.0
C62 C 0.26473 0.78576 0.51148 0.0
O63 O 0.25003 0.80489 0.49435 0.0
O64 O 0.18088 0.81856 0.51879 0.0
Mg65 Mg 0.42528 0.16313 0.87025 0.0
C66 C 0.49616 0.24766 0.84737 0.0
O67 O 0.47015 0.22869 0.82603 0.0
C68 C 0.36902 0.10072 0.91594 0.0
O69 O 0.33862 0.08807 0.89651 0.0
C70 C 0.34775 0.18012 0.86999 0.0
O71 O 0.35334 0.17832 0.89662 0.0
O72 O 0.37235 0.17341 0.85345 0.0
O73 O 0.48535 0.22774 0.87048 0.0
O74 O 0.44354 0.12174 0.84604 0.0
C75 C 0.4205 0.07972 0.84691 0.0
O76 O 0.38182 0.0612 0.85952 0.0
O77 O 0.40798 0.13294 0.91119 0.0
Mg78 Mg 0.61827 0.75757 0.46536 0.0
C79 C 0.56342 0.66613 0.4854 0.0
O80 O 0.53581 0.67251 0.47002 0.0
C81 C 0.69031 0.85183 0.46559 0.0
O82 O 0.67769 0.84559 0.43966 0.0
C83 C 0.66393 0.7311 0.42434 0.0
O84 O 0.67791 0.72378 0.44791 0.0
O85 O 0.63746 0.74662 0.42471 0.0
O86 O 0.60288 0.69822 0.48881 0.0
O87 O 0.55729 0.76163 0.46501 0.0
C88 C 0.55661 0.79658 0.47181 0.0
O89 O 0.59431 0.83277 0.47732 0.0
O90 O 0.67195 0.81916 0.48213 0.0
Mg91 Mg 0.87324 0.60398 0.80023 0.0
C92 C 0.78646 0.53477 0.82166 0.0
O93 O 0.80286 0.56308 0.84214 0.0
C94 C 0.93367 0.66132 0.75488 0.0
O95 O 0.93961 0.69149 0.77322 0.0
C96 C 0.84282 0.66908 0.7939 0.0
O97 O 0.83718 0.65137 0.76931 0.0
O98 O 0.85947 0.65629 0.81279 0.0
O99 O 0.80905 0.54328 0.79957 0.0
O100 O 0.91469 0.58948 0.82732 0.0
C101 C 0.95695 0.61063 0.82531 0.0
O102 O 0.97594 0.64574 0.80934 0.0
O103 O 0.90634 0.6208 0.76018 0.0
Mg104 Mg 0.275 0.8474 0.13094 0.0
C105 C 0.25168 0.75959 0.15203 0.0
O106 O 0.24682 0.77991 0.17341 0.0
C107 C 0.30121 0.9212 0.09132 0.0
O108 O 0.30998 0.94135 0.11526 0.0
C109 C 0.18167 0.82392 0.13385 0.0
O110 O 0.18749 0.81387 0.1087 0.0
O111 O 0.21537 0.84211 0.14979 0.0
O112 O 0.2629 0.77996 0.12907 0.0
O113 O 0.33863 0.88236 0.15228 0.0
C114 C 0.35531 0.91585 0.16811 0.0
O115 O 0.33138 0.93399 0.17531 0.0
O116 O 0.28497 0.87938 0.09091 0.0
Mg117 Mg 0.42439 0.26056 0.4676 0.0
C118 C 0.48053 0.35008 0.49068 0.0
O119 O 0.50935 0.34287 0.47735 0.0
C120 C 0.35546 0.16582 0.46636 0.0
O121 O 0.37312 0.17263 0.44164 0.0
C122 C 0.37641 0.2854 0.42777 0.0
O123 O 0.35791 0.28477 0.45152 0.0
O124 O 0.40686 0.27497 0.42732 0.0
O125 O 0.44014 0.31903 0.49193 0.0
O126 O 0.48362 0.25348 0.46769 0.0
C127 C 0.48509 0.22626 0.48463 0.0
O128 O 0.45009 0.20185 0.50006 0.0
O129 O 0.36923 0.19854 0.48275 0.0
Mg130 Mg 0.17491 0.4175 0.80359 0.0
C131 C 0.264 0.48714 0.82197 0.0
O132 O 0.25027 0.4589 0.8426 0.0
C133 C 0.10175 0.37696 0.76189 0.0
O134 O 0.07924 0.37194 0.78466 0.0
C135 C 0.17178 0.32845 0.81805 0.0
O136 O 0.13272 0.30868 0.8058 0.0
O137 O 0.19246 0.37033 0.82082 0.0
O138 O 0.23877 0.47857 0.80105 0.0
O139 O 0.12972 0.43207 0.82717 0.0
C140 C 0.14382 0.46841 0.84014 0.0
O141 O 0.18696 0.49488 0.84271 0.0
O142 O 0.14404 0.39506 0.76323 0.0
Mg143 Mg 0.76629 0.15791 0.13606 0.0
C144 C 0.74303 0.2306 0.13301 0.0
O145 O 0.70338 0.19625 0.12846 0.0
C146 C 0.75652 0.09451 0.09114 0.0
O147 O 0.77163 0.08026 0.11125 0.0
C148 C 0.86127 0.18551 0.13452 0.0
O149 O 0.85342 0.19825 0.11067 0.0
O150 O 0.82874 0.16451 0.15099 0.0
O151 O 0.77622 0.22457 0.13557 0.0
O152 O 0.70665 0.12026 0.16086 0.0
C153 C 0.68746 0.07883 0.16539 0.0
O154 O 0.7069 0.05648 0.15746 0.0
O155 O 0.75184 0.12807 0.09529 0.0
H156 H 0.26781 0.71101 0.11402 0.0
H157 H 0.22537 0.70774 0.19806 0.0
H158 H 0.26471 0.64006 0.12115 0.0
H159 H 0.22136 0.63656 0.20499 0.0
H160 H 0.27268 0.53794 0.2162 0.0
H161 H 0.27111 0.6067 0.20937 0.0
H162 H 0.21348 0.5621 0.12864 0.0
H163 H 0.21592 0.494 0.13521 0.0
C164 C 0.25737 0.69495 0.1339 0.0
C165 C 0.24702 0.71515 0.15548 0.0
C166 C 0.2554 0.65418 0.13798 0.0
C167 C 0.24295 0.63265 0.16371 0.0
C168 C 0.23179 0.65253 0.18508 0.0
C169 C 0.23381 0.69325 0.18102 0.0
C170 C 0.25936 0.5427 0.1971 0.0
C171 C 0.24461 0.51056 0.17623 0.0
C172 C 0.25831 0.58205 0.1932 0.0
C173 C 0.24238 0.59006 0.16836 0.0
C174 C 0.22669 0.55739 0.1478 0.0
C175 C 0.22782 0.51817 0.15167 0.0
H176 H 0.6916 0.15394 0.50313 0.0
H177 H 0.75273 0.28959 0.53098 0.0
H178 H 0.62253 0.15452 0.49348 0.0
H179 H 0.68357 0.29015 0.5211 0.0
H180 H 0.56972 0.28646 0.46799 0.0
H181 H 0.63858 0.28517 0.47774 0.0
H182 H 0.56289 0.1607 0.52054 0.0
H183 H 0.4942 0.16199 0.511 0.0
C184 C 0.69023 0.1838 0.50731 0.0
C185 C 0.7276 0.2217 0.51784 0.0
C186 C 0.65065 0.18408 0.50184 0.0
C187 C 0.6478 0.22245 0.5064 0.0
C188 C 0.68503 0.26026 0.51712 0.0
C189 C 0.72444 0.25979 0.523 0.0
C190 C 0.56777 0.25867 0.47929 0.0
C191 C 0.52653 0.22432 0.48871 0.0
C192 C 0.60719 0.25814 0.48506 0.0
C193 C 0.60605 0.22293 0.49999 0.0
C194 C 0.56473 0.18813 0.50887 0.0
C195 C 0.52544 0.18897 0.50345 0.0
H196 H 0.52133 0.70922 0.87199 0.0
H197 H 0.4738 0.76146 0.8078 0.0
H198 H 0.45583 0.6362 0.86583 0.0
H199 H 0.40743 0.68937 0.8025 0.0
H200 H 0.31127 0.54659 0.78115 0.0
H201 H 0.3801 0.61734 0.78594 0.0
H202 H 0.37907 0.59541 0.87372 0.0
H203 H 0.31185 0.52406 0.86861 0.0
C204 C 0.49663 0.70516 0.85677 0.0
C205 C 0.50273 0.741 0.84035 0.0
C206 C 0.45892 0.66334 0.85328 0.0
C207 C 0.42612 0.65663 0.8336 0.0
C208 C 0.43226 0.69282 0.81742 0.0
C209 C 0.47023 0.73435 0.82061 0.0
C210 C 0.326 0.55688 0.80141 0.0
C211 C 0.30617 0.52974 0.82446 0.0
C212 C 0.36532 0.5976 0.80424 0.0
C213 C 0.3853 0.61241 0.83028 0.0
C214 C 0.36533 0.58496 0.85327 0.0
C215 C 0.32649 0.54405 0.85036 0.0
H216 H 0.73772 0.47751 0.12616 0.0
H217 H 0.79058 0.47789 0.20695 0.0
H218 H 0.73365 0.40713 0.11597 0.0
H219 H 0.78649 0.40703 0.19658 0.0
H220 H 0.81551 0.30445 0.15379 0.0
H221 H 0.82213 0.37632 0.1638 0.0
H222 H 0.68871 0.32877 0.13303 0.0
H223 H 0.68193 0.25696 0.12307 0.0
C224 C 0.74861 0.46265 0.14175 0.0
C225 C 0.76443 0.4833 0.16741 0.0
C226 C 0.74603 0.42218 0.13592 0.0
C227 C 0.75962 0.40154 0.15549 0.0
C228 C 0.77606 0.42238 0.18104 0.0
C229 C 0.77819 0.46277 0.18702 0.0
C230 C 0.78769 0.30941 0.14899 0.0
C231 C 0.7482 0.275 0.13757 0.0
C232 C 0.79139 0.35044 0.15494 0.0
C233 C 0.75591 0.35808 0.14926 0.0
C234 C 0.71673 0.32393 0.13745 0.0
C235 C 0.71282 0.28277 0.1318 0.0
H236 H 0.47312 0.7238 0.47428 0.0
H237 H 0.54293 0.8667 0.47944 0.0
H238 H 0.40294 0.72184 0.48437 0.0
H239 H 0.47271 0.86459 0.4895 0.0
H240 H 0.32993 0.84119 0.47608 0.0
H241 H 0.40028 0.84389 0.46586 0.0
H242 H 0.36863 0.73945 0.52495 0.0
H243 H 0.298 0.73664 0.53523 0.0
C244 C 0.47347 0.7548 0.47736 0.0
C245 C 0.51362 0.79543 0.47605 0.0
C246 C 0.43333 0.75362 0.48337 0.0
C247 C 0.4324 0.79304 0.48788 0.0
C248 C 0.47238 0.83369 0.48599 0.0
C249 C 0.51259 0.83487 0.48029 0.0
C250 C 0.338 0.81891 0.487 0.0
C251 C 0.30836 0.78868 0.50647 0.0
C252 C 0.3784 0.8206 0.4812 0.0
C253 C 0.38988 0.79179 0.49453 0.0
C254 C 0.36041 0.76174 0.51414 0.0
C255 C 0.32016 0.76037 0.52018 0.0
H256 H 0.56119 0.29365 0.88587 0.0
H257 H 0.52599 0.29863 0.80103 0.0
H258 H 0.63117 0.36287 0.87935 0.0
H259 H 0.5953 0.36813 0.79471 0.0
H260 H 0.74484 0.4659 0.78517 0.0
H261 H 0.67476 0.39673 0.79167 0.0
H262 H 0.65992 0.44111 0.87196 0.0
H263 H 0.73023 0.50961 0.86575 0.0
C264 C 0.5682 0.30965 0.8659 0.0
C265 C 0.538 0.29054 0.84398 0.0
C266 C 0.60825 0.34945 0.86218 0.0
C267 C 0.61896 0.37108 0.83646 0.0
C268 C 0.5885 0.35207 0.81465 0.0
C269 C 0.54856 0.31231 0.81835 0.0
C270 C 0.72656 0.4609 0.80418 0.0
C271 C 0.74321 0.49327 0.82494 0.0
C272 C 0.68627 0.42133 0.80787 0.0
C273 C 0.66169 0.41327 0.83239 0.0
C274 C 0.67827 0.44586 0.85302 0.0
C275 C 0.7185 0.48533 0.84935 0.0
H276 H 0.64796 0.65354 0.15496 0.0
H277 H 0.63131 0.52305 0.167 0.0
H278 H 0.56746 0.62074 0.14968 0.0
H279 H 0.55117 0.49059 0.16283 0.0
H280 H 0.40561 0.4371 0.14894 0.0
H281 H 0.485 0.47232 0.1376 0.0
H282 H 0.50841 0.58963 0.18191 0.0
H283 H 0.42978 0.55533 0.1923 0.0
C284 C 0.62725 0.61785 0.15611 0.0
C285 C 0.6461 0.59106 0.16188 0.0
C286 C 0.58102 0.59901 0.15326 0.0
C287 C 0.55257 0.55301 0.15633 0.0
C288 C 0.57182 0.52605 0.16014 0.0
C289 C 0.61797 0.54481 0.16277 0.0
C290 C 0.42769 0.47071 0.15576 0.0
C291 C 0.41142 0.49316 0.17181 0.0
C292 C 0.47324 0.49084 0.14941 0.0
C293 C 0.50336 0.5338 0.15899 0.0
C294 C 0.48641 0.55685 0.17381 0.0
C295 C 0.44114 0.53687 0.18006 0.0
H296 H 0.14632 0.59248 0.51386 0.0
H297 H 0.05379 0.63608 0.49004 0.0
H298 H 0.08861 0.51602 0.50775 0.0
H299 H 0.99603 0.55908 0.4829 0.0
H300 H 0.89573 0.42364 0.52202 0.0
H301 H 0.95227 0.49986 0.51358 0.0
H302 H 0.039 0.45581 0.4794 0.0
H303 H 0.98252 0.37901 0.48884 0.0
C304 C 0.11387 0.58581 0.50668 0.0
C305 C 0.10449 0.62043 0.5029 0.0
C306 C 0.08074 0.54177 0.50292 0.0
C307 C 0.03737 0.53115 0.4951 0.0
C308 C 0.02882 0.56599 0.48947 0.0
C309 C 0.062 0.61016 0.49339 0.0
C310 C 0.92658 0.43003 0.51234 0.0
C311 C 0.93484 0.3952 0.50651 0.0
C312 C 0.95899 0.47393 0.50723 0.0
C313 C 1.0005 0.48422 0.496 0.0
C314 C 1.00771 0.44916 0.48853 0.0
C315 C 0.97524 0.4051 0.49378 0.0
H316 H 0.50038 0.10621 0.82071 0.0
H317 H 0.38653 0.99137 0.85546 0.0
H318 H 0.53744 0.06275 0.81382 0.0
H319 H 0.42388 0.94885 0.8499 0.0
H320 H 0.48612 0.86976 0.8314 0.0
H321 H 0.4501 0.91329 0.82196 0.0
H322 H 0.57364 0.03318 0.84035 0.0
H323 H 0.61012 0.9892 0.84791 0.0
C324 C 0.48304 0.07159 0.82659 0.0
C325 C 0.44055 0.05236 0.83877 0.0
C326 C 0.50446 0.04673 0.82286 0.0
C327 C 0.484 1.00219 0.83143 0.0
C328 C 0.44066 0.98269 0.8425 0.0
C329 C 0.41916 1.0073 0.84592 0.0
C330 C 0.50574 0.90555 0.83265 0.0
C331 C 0.5507 0.92624 0.84047 0.0
C332 C 0.48505 0.93056 0.82756 0.0
C333 C 0.50847 0.97684 0.83109 0.0
C334 C 0.55442 0.99773 0.83723 0.0
C335 C 0.57545 0.97261 0.84164 0.0
H336 H 0.48201 0.59219 0.48035 0.0
H337 H 0.61443 0.63732 0.51233 0.0
H338 H 0.46243 0.51613 0.48927 0.0
H339 H 0.59423 0.56067 0.52224 0.0
H340 H 0.56312 0.42317 0.48801 0.0
H341 H 0.58253 0.4998 0.49413 0.0
H342 H 0.44779 0.4576 0.52039 0.0
H343 H 0.42787 0.38045 0.51324 0.0
C344 C 0.50673 0.58595 0.48986 0.0
C345 C 0.55004 0.62085 0.49522 0.0
C346 C 0.4953 0.54215 0.49526 0.0
C347 C 0.5268 0.53203 0.50631 0.0
C348 C 0.56935 0.56719 0.51328 0.0
C349 C 0.58088 0.61116 0.50776 0.0
C350 C 0.53771 0.43007 0.49553 0.0
C351 C 0.49371 0.39566 0.49965 0.0
C352 C 0.549 0.47421 0.49929 0.0
C353 C 0.51663 0.4851 0.50745 0.0
C354 C 0.47336 0.45047 0.51354 0.0
C355 C 0.46198 0.4062 0.50962 0.0
H356 H 0.92671 0.52958 0.84995 0.0
H357 H 0.04749 0.64725 0.82491 0.0
H358 H 0.96984 0.4932 0.86066 0.0
H359 H 0.0903 0.6108 0.83524 0.0
H360 H 0.16359 0.54523 0.86666 0.0
H361 H 0.11703 0.57939 0.87022 0.0
H362 H 1.0081 0.46439 0.83202 0.0
H363 H 0.0544 0.42988 0.82882 0.0
C364 C 0.96253 0.54801 0.8472 0.0
C365 C 0.98359 0.59125 0.83633 0.0
C366 C 0.98719 0.527 0.85316 0.0
C367 C 0.03347 0.54889 0.8486 0.0
C368 C 0.05479 0.59303 0.83927 0.0
C369 C 0.03016 0.61392 0.83319 0.0
C370 C 0.12941 0.52679 0.85952 0.0
C371 C 0.11294 0.48501 0.84712 0.0
C372 C 0.1028 0.54653 0.86143 0.0
C373 C 0.05905 0.52496 0.85104 0.0
C374 C 0.04156 0.48187 0.84039 0.0
C375 C 0.0682 0.4621 0.83846 0.0
H376 H 0.41366 0.88827 0.15351 0.0
H377 H 0.40615 0.99137 0.19851 0.0
H378 H 0.49369 0.92688 0.1593 0.0
H379 H 0.4869 0.02958 0.20535 0.0
H380 H 0.63142 0.11252 0.17141 0.0
H381 H 0.55128 0.07157 0.17812 0.0
H382 H 0.55625 0.95056 0.18791 0.0
H383 H 0.63649 0.99148 0.17993 0.0
C384 C 0.42899 0.91884 0.16516 0.0
C385 C 0.40337 0.93695 0.17525 0.0
C386 C 0.47514 0.9409 0.16874 0.0
C387 C 0.49713 0.98159 0.18274 0.0
C388 C 0.47126 0.99868 0.19405 0.0
C389 C 0.42489 0.97665 0.1903 0.0
C390 C 0.6156 0.07728 0.17544 0.0
C391 C 0.64034 0.05517 0.17468 0.0
C392 C 0.56946 0.05373 0.17949 0.0
C393 C 0.5469 1.0075 0.18318 0.0
C394 C 0.57224 0.98594 0.18443 0.0
C395 C 0.61835 1.00944 0.18006 0.0
H396 H 0.30676 0.33089 0.26243 0.0
H397 H 0.30822 0.43379 0.31287 0.0
H398 H 0.32587 0.30142 0.30256 0.0
H399 H 0.32777 0.40449 0.35295 0.0
H400 H 0.31432 0.31164 0.42346 0.0
H401 H 0.29415 0.33899 0.3829 0.0
H402 H 0.38878 0.32127 0.33445 0.0
H403 H 0.40876 0.29328 0.37514 0.0
C404 C 0.31113 0.34725 0.28207 0.0
C405 C 0.30587 0.38471 0.28442 0.0
C406 C 0.3224 0.33049 0.30504 0.0
C407 C 0.32839 0.35059 0.33095 0.0
C408 C 0.32293 0.38793 0.33333 0.0
C409 C 0.31192 0.40486 0.31033 0.0
C410 C 0.33082 0.3134 0.40417 0.0
C411 C 0.36328 0.30034 0.40259 0.0
C412 C 0.31941 0.32938 0.38094 0.0
C413 C 0.34004 0.33261 0.35547 0.0
C414 C 0.37201 0.31888 0.35373 0.0
C415 C 0.38358 0.30299 0.37706 0.0
H416 H 0.02569 0.35615 0.58963 0.0
H417 H 0.90536 0.25752 0.62963 0.0
H418 H 0.06456 0.37458 0.63353 0.0
H419 H 0.94477 0.27478 0.6736 0.0
H420 H 1.01454 0.35083 0.75172 0.0
H421 H 0.97536 0.33021 0.70792 0.0
H422 H 0.09517 0.34912 0.6678 0.0
H423 H 0.13488 0.37147 0.71164 0.0
C424 C 1.00759 0.33808 0.6078 0.0
C425 C 0.96235 0.30541 0.60612 0.0
C426 C 0.03004 0.34845 0.63301 0.0
C427 C 1.008 0.32613 0.65723 0.0
C428 C 0.96273 0.29317 0.6555 0.0
C429 C 0.94012 0.28308 0.63025 0.0
C430 C 0.03256 0.35051 0.73357 0.0
C431 C 0.07793 0.36296 0.73518 0.0
C432 C 1.00993 0.33835 0.70842 0.0
C433 C 0.03195 0.33791 0.68419 0.0
C434 C 0.07725 0.34977 0.6859 0.0
C435 C 0.10002 0.36235 0.71107 0.0
H436 H 0.71375 0.01953 0.91843 0.0
H437 H 0.64833 0.89437 0.9617 0.0
H438 H 0.73538 0.05869 0.96213 0.0
H439 H 0.66958 0.93384 0.00564 0.0
H440 H 0.75868 0.01959 0.077 0.0
H441 H 0.73648 0.97952 0.03348 0.0
H442 H 0.7019 0.07453 0.00157 0.0
H443 H 0.72469 0.11504 0.04498 0.0
C444 C 0.70386 1.0003 0.93728 0.0
C445 C 0.6793 0.95375 0.93654 0.0
C446 C 0.71604 0.02284 0.96237 0.0
C447 C 0.7041 0.99945 0.9874 0.0
C448 C 0.67967 0.95285 0.98671 0.0
C449 C 0.6673 0.93023 0.96154 0.0
C450 C 0.74644 0.03204 0.0607 0.0
C451 C 0.74359 0.07063 0.06447 0.0
C452 C 0.7334 1.00883 0.03581 0.0
C453 C 0.71735 0.02375 0.01405 0.0
C454 C 0.71459 0.06241 0.01781 0.0
C455 C 0.7275 0.08555 0.04274 0.0
H456 H 0.64363 0.74371 0.37159 0.0
H457 H 0.71709 0.69444 0.41764 0.0
H458 H 0.6672 0.72515 0.32861 0.0
H459 H 0.74104 0.67655 0.3748 0.0
H460 H 0.73411 0.60625 0.2933 0.0
H461 H 0.71049 0.62461 0.33631 0.0
H462 H 0.73476 0.74878 0.30111 0.0
H463 H 0.75776 0.73027 0.2581 0.0
C464 C 0.66489 0.72908 0.37256 0.0
C465 C 0.67843 0.72056 0.39807 0.0
C466 C 0.67859 0.71863 0.34793 0.0
C467 C 0.70598 0.69931 0.34826 0.0
C468 C 0.71948 0.69085 0.37379 0.0
C469 C 0.70594 0.7014 0.39837 0.0
C470 C 0.73456 0.63753 0.29478 0.0
C471 C 0.74783 0.66675 0.27224 0.0
C472 C 0.72116 0.64813 0.31946 0.0
C473 C 0.72059 0.68813 0.32212 0.0
C474 C 0.73418 0.71744 0.29963 0.0
C475 C 0.74771 0.70693 0.27503 0.0
H476 H 0.06079 0.78193 0.59964 0.0
H477 H 0.11598 0.69811 0.62038 0.0
H478 H 1.01667 0.7591 0.64176 0.0
H479 H 0.0716 0.67523 0.66268 0.0
H480 H 0.94389 0.6081 0.71741 0.0
H481 H 0.98966 0.6311 0.67568 0.0
H482 H 0.02922 0.76754 0.69265 0.0
H483 H 0.98369 0.74475 0.7342 0.0
C484 C 0.0637 0.75879 0.61326 0.0
C485 C 0.09194 0.74187 0.60665 0.0
C486 C 0.0385 0.74584 0.63744 0.0
C487 C 0.04058 0.71529 0.65549 0.0
C488 C 0.069 0.6985 0.64901 0.0
C489 C 0.09466 0.71187 0.62492 0.0
C490 C 0.96223 0.64297 0.71216 0.0
C491 C 0.96007 0.67458 0.72909 0.0
C492 C 0.9887 0.65615 0.6884 0.0
C493 C 1.01307 0.70113 0.68093 0.0
C494 C 1.01056 0.73262 0.69775 0.0
C495 C 0.98456 0.71953 0.72161 0.0
H496 H 0.34206 0.01104 0.08615 0.0
H497 H 0.2822 0.89063 0.03814 0.0
H498 H 0.35806 0.05461 0.04412 0.0
H499 H 0.29871 0.93449 0.99593 0.0
H500 H 0.29176 0.02589 0.92996 0.0
H501 H 0.27537 0.98253 0.97215 0.0
H502 H 0.4065 0.07446 0.00334 0.0
H503 H 0.42286 0.11822 0.96117 0.0
C504 C 0.33235 0.99381 0.06662 0.0
C505 C 0.31079 0.94728 0.06553 0.0
C506 C 0.34181 0.01887 0.0425 0.0
C507 C 0.32974 0.99806 0.01667 0.0
C508 C 0.30804 0.95151 0.01554 0.0
C509 C 0.29879 0.92638 0.0397 0.0
C510 C 0.31708 0.03705 0.94584 0.0
C511 C 0.35864 0.07561 0.94217 0.0
C512 C 0.30777 0.01194 0.96995 0.0
C513 C 0.33967 0.02491 0.99106 0.0
C514 C 0.38105 0.06378 0.98756 0.0
C515 C 0.39048 0.08879 0.96335 0.0
H516 H 0.93698 0.23669 0.10515 0.0
H517 H 0.89112 0.16651 0.18237 0.0
H518 H 1.01371 0.26698 0.11998 0.0
H519 H 0.96843 0.19574 0.19694 0.0
H520 H 0.10433 0.30867 0.22715 0.0
H521 H 0.02783 0.26526 0.21157 0.0
H522 H 0.0741 0.25509 0.13073 0.0
H523 H 0.15124 0.30018 0.14622 0.0
C524 C 0.94326 0.22706 0.12516 0.0
C525 C 0.9078 0.19952 0.1427 0.0
C526 C 0.98747 0.24422 0.13359 0.0
C527 C 0.9975 0.23409 0.15975 0.0
C528 C 0.96199 0.20492 0.17684 0.0
C529 C 0.91764 0.18792 0.16845 0.0
C530 C 0.09834 0.29688 0.2061 0.0
C531 C 0.13402 0.30833 0.18786 0.0
C532 C 0.05426 0.27154 0.1972 0.0
C533 C 0.04454 0.25669 0.16982 0.0
C534 C 0.08028 0.26657 0.15184 0.0
C535 C 0.12454 0.29219 0.16075 0.0
H536 H 0.86197 0.1381 0.48835 0.0
H537 H 0.78814 0.08637 0.56394 0.0
H538 H 0.83316 0.06263 0.47147 0.0
H539 H 0.75809 0.01147 0.5468 0.0
H540 H 0.72634 0.87735 0.51727 0.0
H541 H 0.77041 0.95272 0.53481 0.0
H542 H 0.76495 1.00428 0.45469 0.0
H543 H 0.72269 0.92934 0.43703 0.0
C544 C 0.83979 0.11066 0.50141 0.0
C545 C 0.82718 0.11832 0.52742 0.0
C546 C 0.82301 0.06735 0.49168 0.0
C547 C 0.79295 0.03073 0.50765 0.0
C548 C 0.78161 0.03858 0.53402 0.0
C549 C 0.79864 0.08175 0.54381 0.0
C550 C 0.73514 0.90484 0.50334 0.0
C551 C 0.72072 0.89727 0.4758 0.0
C552 C 0.76017 0.9481 0.51343 0.0
C553 C 0.77101 0.98482 0.49628 0.0
C554 C 0.75789 0.97707 0.46848 0.0
C555 C 0.73327 0.9339 0.45836 0.0
H556 H 0.82746 0.6962 0.84386 0.0
H557 H 0.82212 0.71381 0.75615 0.0
H558 H 0.79249 0.74146 0.85186 0.0
H559 H 0.78859 0.75983 0.76407 0.0
H560 H 0.67089 0.77925 0.78658 0.0
H561 H 0.71679 0.74577 0.77828 0.0
H562 H 0.79779 0.81388 0.84906 0.0
H563 H 0.7508 0.84682 0.85782 0.0
C564 C 0.8196 0.7104 0.82634 0.0
C565 C 0.827 0.70091 0.79937 0.0
C566 C 0.79972 0.73651 0.8309 0.0
C567 C 0.78711 0.75386 0.80858 0.0
C568 C 0.79682 0.74619 0.78172 0.0
C569 C 0.81628 0.71992 0.77719 0.0
C570 C 0.69878 0.78762 0.80024 0.0
C571 C 0.707 0.81567 0.82292 0.0
C572 C 0.72536 0.76853 0.79538 0.0
C573 C 0.7611 0.77704 0.813 0.0
C574 C 0.77024 0.80618 0.83526 0.0
C575 C 0.74353 0.82537 0.84014 0.0
H576 H 0.9415 0.68718 0.22869 0.0
H577 H 0.89364 0.71477 0.15313 0.0
H578 H 1.01779 0.73192 0.21294 0.0
H579 H 0.97052 0.7611 0.13763 0.0
H580 H 0.10441 0.78116 0.1046 0.0
H581 H 0.02865 0.74962 0.12136 0.0
H582 H 0.07858 0.80325 0.20222 0.0
H583 H 0.155 0.83373 0.1855 0.0
C584 C 0.94726 0.70342 0.20885 0.0
C585 C 0.91133 0.69695 0.19204 0.0
C586 C 0.99123 0.7295 0.19989 0.0
C587 C 1.00057 0.7501 0.17392 0.0
C588 C 0.96463 0.74513 0.15756 0.0
C589 C 0.92052 0.71876 0.16649 0.0
C590 C 0.0994 0.78669 0.12592 0.0
C591 C 0.13589 0.80965 0.14378 0.0
C592 C 0.05573 0.76883 0.1355 0.0
C593 C 0.04723 0.77361 0.16322 0.0
C594 C 0.0838 0.79825 0.18085 0.0
C595 C 0.12765 0.816 0.17125 0.0
H596 H 0.25635 0.92867 0.56187 0.0
H597 H 0.18353 0.8787 0.48574 0.0
H598 H 0.28586 1.00404 0.54545 0.0
H599 H 0.21219 0.95463 0.46951 0.0
H600 H 0.32542 0.08934 0.43713 0.0
H601 H 0.28241 0.01373 0.45385 0.0
H602 H 0.27124 0.06233 0.53357 0.0
H603 H 0.31566 0.13838 0.51698 0.0
C604 C 0.24602 0.93376 0.54176 0.0
C605 C 0.21787 0.89756 0.52501 0.0
C606 C 0.26272 0.97716 0.53241 0.0
C607 C 0.2516 0.98559 0.50608 0.0
C608 C 0.22201 0.94937 0.48973 0.0
C609 C 0.20535 0.90583 0.49909 0.0
C610 C 0.31341 0.08399 0.45815 0.0
C611 C 0.32443 0.12 0.4758 0.0
C612 C 0.28837 0.04047 0.4677 0.0
C613 C 0.27351 0.03176 0.49514 0.0
C614 C 0.28279 0.06779 0.51245 0.0
C615 C 0.30803 0.11142 0.5029 0.0
H616 H 0.13446 0.23907 0.82757 0.0
H617 H 0.26083 0.36106 0.82515 0.0
H618 H 0.17363 0.1982 0.83852 0.0
H619 H 0.29953 0.32012 0.83526 0.0
H620 H 0.35211 0.22263 0.82168 0.0
H621 H 0.30655 0.25555 0.80819 0.0
H622 H 0.22764 0.20335 0.88184 0.0
H623 H 0.27382 0.17138 0.89577 0.0
C624 C 0.17046 0.2571 0.82935 0.0
C625 C 0.1945 0.3033 0.82563 0.0
C626 C 0.19278 0.23374 0.83557 0.0
C627 C 0.23954 0.25606 0.83744 0.0
C628 C 0.26349 0.30212 0.83362 0.0
C629 C 0.24124 0.32553 0.82806 0.0
C630 C 0.3246 0.21757 0.83476 0.0
C631 C 0.31663 0.19462 0.85983 0.0
C632 C 0.29872 0.23656 0.82711 0.0
C633 C 0.26375 0.23201 0.84405 0.0
C634 C 0.25429 0.20712 0.86838 0.0
C635 C 0.2808 0.18901 0.87636 0.0
loop_
_geom_bond_atom_site_label_1
_geom_bond_atom_site_label_2
_geom_bond_distance
_geom_bond_site_symmetry_2
_ccdc_geom_bond_type
Mg0 O7 2.141 . S
Mg0 O8 2.048 . S
Mg0 O9 2.048 . S
Mg0 O12 2.141 . S
C1 O2 1.313 . S
C1 O8 1.195 . S
O2 C1 1.313 . S
C3 O4 1.245 . S
C3 O12 1.289 . S
O4 C3 1.245 . S
C5 O6 1.245 . S
C5 O7 1.289 . S
O6 C5 1.245 . S
O7 Mg0 2.141 . S
O7 C5 1.289 . S
O8 Mg0 2.048 . S
O8 C1 1.195 . S
O9 Mg0 2.048 . S
O9 C10 1.195 . S
C10 O9 1.195 . S
C10 O11 1.313 . S
O11 C10 1.313 . S
O12 Mg0 2.141 . S
O12 C3 1.289 . S
Mg13 O20 2.141 . S
Mg13 O21 2.048 . S
Mg13 O22 2.048 . S
Mg13 O25 2.141 . S
C14 O15 1.313 . S
C14 O21 1.195 . S
O15 C14 1.313 . S
C16 O17 1.245 . S
C16 O25 1.289 . S
O17 C16 1.245 . S
C18 O19 1.245 . S
C18 O20 1.289 . S
O19 C18 1.245 . S
O20 Mg13 2.141 . S
O20 C18 1.289 . S
O21 Mg13 2.048 . S
O21 C14 1.195 . S
O22 Mg13 2.048 . S
O22 C23 1.195 . S
C23 O22 1.195 . S
C23 O24 1.313 . S
O24 C23 1.313 . S
O25 Mg13 2.141 . S
O25 C16 1.289 . S
Mg26 O33 2.141 . S
Mg26 O34 2.048 . S
Mg26 O35 2.048 . S
Mg26 O38 2.141 . S
C27 O28 1.313 . S
C27 O34 1.195 . S
O28 C27 1.313 . S
C29 O30 1.245 . S
C29 O38 1.289 . S
O30 C29 1.245 . S
C31 O32 1.245 . S
C31 O33 1.289 . S
O32 C31 1.245 . S
O33 Mg26 2.141 . S
O33 C31 1.289 . S
O34 Mg26 2.048 . S
O34 C27 1.195 . S
O35 Mg26 2.048 . S
O35 C36 1.195 . S
C36 O35 1.195 . S
C36 O37 1.313 . S
O37 C36 1.313 . S
O38 Mg26 2.141 . S
O38 C29 1.289 . S
Mg39 O46 2.141 . S
Mg39 O47 2.048 . S
Mg39 O48 2.048 . S
Mg39 O51 2.141 . S
C40 O41 1.313 . S
C40 O47 1.195 . S
O41 C40 1.313 . S
C42 O43 1.245 . S
C42 O51 1.289 . S
O43 C42 1.245 . S
C44 O45 1.245 . S
C44 O46 1.289 . S
O45 C44 1.245 . S
O46 Mg39 2.141 . S
O46 C44 1.289 . S
O47 Mg39 2.048 . S
O47 C40 1.195 . S
O48 Mg39 2.048 . S
O48 C49 1.195 . S
C49 O48 1.195 . S
C49 O50 1.313 . S
O50 C49 1.313 . S
O51 Mg39 2.141 . S
O51 C42 1.289 . S
Mg52 O59 2.141 . S
Mg52 O60 2.048 . S
Mg52 O61 2.048 . S
Mg52 O64 2.141 . S
C53 O54 1.313 . S
C53 O60 1.195 . S
O54 C53 1.313 . S
C55 O56 1.245 . S
C55 O64 1.289 . S
O56 C55 1.245 . S
C57 O58 1.245 . S
C57 O59 1.289 . S
O58 C57 1.245 . S
O59 Mg52 2.141 . S
O59 C57 1.289 . S
O60 Mg52 2.048 . S
O60 C53 1.195 . S
O61 Mg52 2.048 . S
O61 C62 1.195 . S
C62 O61 1.195 . S
C62 O63 1.313 . S
O63 C62 1.313 . S
O64 Mg52 2.141 . S
O64 C55 1.289 . S
Mg65 O72 2.141 . S
Mg65 O73 2.048 . S
Mg65 O74 2.048 . S
Mg65 O77 2.141 . S
C66 O67 1.313 . S
C66 O73 1.195 . S
O67 C66 1.313 . S
C68 O69 1.245 . S
C68 O77 1.289 . S
O69 C68 1.245 . S
C70 O71 1.245 . S
C70 O72 1.289 . S
O71 C70 1.245 . S
O72 Mg65 2.141 . S
O72 C70 1.289 . S
O73 Mg65 2.048 . S
O73 C66 1.195 . S
O74 Mg65 2.048 . S
O74 C75 1.195 . S
C75 O74 1.195 . S
C75 O76 1.313 . S
O76 C75 1.313 . S
O77 Mg65 2.141 . S
O77 C68 1.289 . S
Mg78 O85 2.141 . S
Mg78 O86 2.048 . S
Mg78 O87 2.048 . S
Mg78 O90 2.141 . S
C79 O80 1.313 . S
C79 O86 1.195 . S
O80 C79 1.313 . S
C81 O82 1.245 . S
C81 O90 1.289 . S
O82 C81 1.245 . S
C83 O84 1.245 . S
C83 O85 1.289 . S
O84 C83 1.245 . S
O85 Mg78 2.141 . S
O85 C83 1.289 . S
O86 Mg78 2.048 . S
O86 C79 1.195 . S
O87 Mg78 2.048 . S
O87 C88 1.195 . S
C88 O87 1.195 . S
C88 O89 1.313 . S
O89 C88 1.313 . S
O90 Mg78 2.141 . S
O90 C81 1.289 . S
Mg91 O98 2.141 . S
Mg91 O99 2.048 . S
Mg91 O100 2.048 . S
Mg91 O103 2.141 . S
C92 O93 1.313 . S
C92 O99 1.195 . S
O93 C92 1.313 . S
C94 O95 1.245 . S
C94 O103 1.289 . S
O95 C94 1.245 . S
C96 O97 1.245 . S
C96 O98 1.289 . S
O97 C96 1.245 . S
O98 Mg91 2.141 . S
O98 C96 1.289 . S
O99 Mg91 2.048 . S
O99 C92 1.195 . S
O100 Mg91 2.048 . S
O100 C101 1.195 . S
C101 O100 1.195 . S
C101 O102 1.313 . S
O102 C101 1.313 . S
O103 Mg91 2.141 . S
O103 C94 1.289 . S
Mg104 O111 2.141 . S
Mg104 O112 2.048 . S
Mg104 O113 2.048 . S
Mg104 O116 2.141 . S
C105 O106 1.313 . S
C105 O112 1.195 . S
O106 C105 1.313 . S
C107 O108 1.245 . S
C107 O116 1.289 . S
O108 C107 1.245 . S
C109 O110 1.245 . S
C109 O111 1.289 . S
O110 C109 1.245 . S
O111 Mg104 2.141 . S
O111 C109 1.289 . S
O112 Mg104 2.048 . S
O112 C105 1.195 . S
O113 Mg104 2.048 . S
O113 C114 1.195 . S
C114 O113 1.195 . S
C114 O115 1.313 . S
O115 C114 1.313 . S
O116 Mg104 2.141 . S
O116 C107 1.289 . S
Mg117 O124 2.141 . S
Mg117 O125 2.048 . S
Mg117 O126 2.048 . S
Mg117 O129 2.141 . S
C118 O119 1.313 . S
C118 O125 1.195 . S
O119 C118 1.313 . S
C120 O121 1.245 . S
C120 O129 1.289 . S
O121 C120 1.245 . S
C122 O123 1.245 . S
C122 O124 1.289 . S
O123 C122 1.245 . S
O124 Mg117 2.141 . S
O124 C122 1.289 . S
O125 Mg117 2.048 . S
O125 C118 1.195 . S
O126 Mg117 2.048 . S
O126 C127 1.195 . S
C127 O126 1.195 . S
C127 O128 1.313 . S
O128 C127 1.313 . S
O129 Mg117 2.141 . S
O129 C120 1.289 . S
Mg130 O137 2.141 . S
Mg130 O138 2.048 . S
Mg130 O139 2.048 . S
Mg130 O142 2.141 . S
C131 O132 1.313 . S
C131 O138 1.195 . S
O132 C131 1.313 . S
C133 O134 1.245 . S
C133 O142 1.289 . S
O134 C133 1.245 . S
C135 O136 1.245 . S
C135 O137 1.289 . S
O136 C135 1.245 . S
O137 Mg130 2.141 . S
O137 C135 1.289 . S
O138 Mg130 2.048 . S
O138 C131 1.195 . S
O139 Mg130 2.048 . S
O139 C140 1.195 . S
C140 O139 1.195 . S
C140 O141 1.313 . S
O141 C140 1.313 . S
O142 Mg130 2.141 . S
O142 C133 1.289 . S
Mg143 O150 2.141 . S
Mg143 O151 2.048 . S
Mg143 O152 2.048 . S
Mg143 O155 2.141 . S
C144 O145 1.313 . S
C144 O151 1.195 . S
O145 C144 1.313 . S
C146 O147 1.245 . S
C146 O155 1.289 . S
O147 C146 1.245 . S
C148 O149 1.245 . S
C148 O150 1.289 . S
O149 C148 1.245 . S
O150 Mg143 2.141 . S
O150 C148 1.289 . S
O151 Mg143 2.048 . S
O151 C144 1.195 . S
O152 Mg143 2.048 . S
O152 C153 1.195 . S
C153 O152 1.195 . S
C153 O154 1.313 . S
O154 C153 1.313 . S
O155 Mg143 2.141 . S
O155 C146 1.289 . S
H156 C164 0.950 . S
H157 C169 0.950 . S
H158 C166 0.950 . S
H159 C168 0.950 . S
H160 C170 0.950 . S
H161 C172 0.950 . S
H162 C174 0.950 . S
H163 C175 0.950 . S
C164 H156 0.950 . S
C164 C165 1.386 . S
C164 C166 1.391 . S
C165 C164 1.386 . S
C165 C169 1.393 . S
C166 H158 0.950 . S
C166 C164 1.391 . S
C166 C167 1.400 . S
C167 C166 1.400 . S
C167 C168 1.398 . S
C167 C173 1.491 . S
C168 H159 0.950 . S
C168 C167 1.398 . S
C168 C169 1.391 . S
C169 H157 0.950 . S
C169 C165 1.393 . S
C169 C168 1.391 . S
C170 H160 0.950 . S
C170 C171 1.386 . S
C170 C172 1.391 . S
C171 C170 1.386 . S
C171 C175 1.393 . S
C172 H161 0.950 . S
C172 C170 1.391 . S
C172 C173 1.400 . S
C173 C167 1.491 . S
C173 C172 1.400 . S
C173 C174 1.398 . S
C174 H162 0.950 . S
C174 C173 1.398 . S
C174 C175 1.391 . S
C175 H163 0.950 . S
C175 C171 1.393 . S
C175 C174 1.391 . S
H176 C184 0.950 . S
H177 C189 0.950 . S
H178 C186 0.950 . S
H179 C188 0.950 . S
H180 C190 0.950 . S
H181 C192 0.950 . S
H182 C194 0.950 . S
H183 C195 0.950 . S
C184 H176 0.950 . S
C184 C185 1.386 . S
C184 C186 1.391 . S
C185 C184 1.386 . S
C185 C189 1.393 . S
C186 H178 0.950 . S
C186 C184 1.391 . S
C186 C187 1.400 . S
C187 C186 1.400 . S
C187 C188 1.398 . S
C187 C193 1.491 . S
C188 H179 0.950 . S
C188 C187 1.398 . S
C188 C189 1.391 . S
C189 H177 0.950 . S
C189 C185 1.393 . S
C189 C188 1.391 . S
C190 H180 0.950 . S
C190 C191 1.386 . S
C190 C192 1.391 . S
C191 C190 1.386 . S
C191 C195 1.393 . S
C192 H181 0.950 . S
C192 C190 1.391 . S
C192 C193 1.400 . S
C193 C187 1.491 . S
C193 C192 1.400 . S
C193 C194 1.398 . S
C194 H182 0.950 . S
C194 C193 1.398 . S
C194 C195 1.391 . S
C195 H183 0.950 . S
C195 C191 1.393 . S
C195 C194 1.391 . S
H196 C204 0.950 . S
H197 C209 0.950 . S
H198 C206 0.950 . S
H199 C208 0.950 . S
H200 C210 0.950 . S
H201 C212 0.950 . S
H202 C214 0.950 . S
H203 C215 0.950 . S
C204 H196 0.950 . S
C204 C205 1.386 . S
C204 C206 1.391 . S
C205 C204 1.386 . S
C205 C209 1.393 . S
C206 H198 0.950 . S
C206 C204 1.391 . S
C206 C207 1.400 . S
C207 C206 1.400 . S
C207 C208 1.398 . S
C207 C213 1.491 . S
C208 H199 0.950 . S
C208 C207 1.398 . S
C208 C209 1.391 . S
C209 H197 0.950 . S
C209 C205 1.393 . S
C209 C208 1.391 . S
C210 H200 0.950 . S
C210 C211 1.386 . S
C210 C212 1.391 . S
C211 C210 1.386 . S
C211 C215 1.393 . S
C212 H201 0.950 . S
C212 C210 1.391 . S
C212 C213 1.400 . S
C213 C207 1.491 . S
C213 C212 1.400 . S
C213 C214 1.398 . S
C214 H202 0.950 . S
C214 C213 1.398 . S
C214 C215 1.391 . S
C215 H203 0.950 . S
C215 C211 1.393 . S
C215 C214 1.391 . S
H216 C224 0.950 . S
H217 C229 0.950 . S
H218 C226 0.950 . S
H219 C228 0.950 . S
H220 C230 0.950 . S
H221 C232 0.950 . S
H222 C234 0.950 . S
H223 C235 0.950 . S
C224 H216 0.950 . S
C224 C225 1.386 . S
C224 C226 1.391 . S
C225 C224 1.386 . S
C225 C229 1.393 . S
C226 H218 0.950 . S
C226 C224 1.391 . S
C226 C227 1.400 . S
C227 C226 1.400 . S
C227 C228 1.398 . S
C227 C233 1.491 . S
C228 H219 0.950 . S
C228 C227 1.398 . S
C228 C229 1.391 . S
C229 H217 0.950 . S
C229 C225 1.393 . S
C229 C228 1.391 . S
C230 H220 0.950 . S
C230 C231 1.386 . S
C230 C232 1.391 . S
C231 C230 1.386 . S
C231 C235 1.393 . S
C232 H221 0.950 . S
C232 C230 1.391 . S
C232 C233 1.400 . S
C233 C227 1.491 . S
C233 C232 1.400 . S
C233 C234 1.398 . S
C234 H222 0.950 . S
C234 C233 1.398 . S
C234 C235 1.391 . S
C235 H223 0.950 . S
C235 C231 1.393 . S
C235 C234 1.391 . S
H236 C244 0.950 . S
H237 C249 0.950 . S
H238 C246 0.950 . S
H239 C248 0.950 . S
H240 C250 0.950 . S
H241 C252 0.950 . S
H242 C254 0.950 . S
H243 C255 0.950 . S
C244 H236 0.950 . S
C244 C245 1.386 . S
C244 C246 1.391 . S
C245 C244 1.386 . S
C245 C249 1.393 . S
C246 H238 0.950 . S
C246 C244 1.391 . S
C246 C247 1.400 . S
C247 C246 1.400 . S
C247 C248 1.398 . S
C247 C253 1.491 . S
C248 H239 0.950 . S
C248 C247 1.398 . S
C248 C249 1.391 . S
C249 H237 0.950 . S
C249 C245 1.393 . S
C249 C248 1.391 . S
C250 H240 0.950 . S
C250 C251 1.386 . S
C250 C252 1.391 . S
C251 C250 1.386 . S
C251 C255 1.393 . S
C252 H241 0.950 . S
C252 C250 1.391 . S
C252 C253 1.400 . S
C253 C247 1.491 . S
C253 C252 1.400 . S
C253 C254 1.398 . S
C254 H242 0.950 . S
C254 C253 1.398 . S
C254 C255 1.391 . S
C255 H243 0.950 . S
C255 C251 1.393 . S
C255 C254 1.391 . S
H256 C264 0.950 . S
H257 C269 0.950 . S
H258 C266 0.950 . S
H259 C268 0.950 . S
H260 C270 0.950 . S
H261 C272 0.950 . S
H262 C274 0.950 . S
H263 C275 0.950 . S
C264 H256 0.950 . S
C264 C265 1.386 . S
C264 C266 1.391 . S
C265 C264 1.386 . S
C265 C269 1.393 . S
C266 H258 0.950 . S
C266 C264 1.391 . S
C266 C267 1.400 . S
C267 C266 1.400 . S
C267 C268 1.398 . S
C267 C273 1.491 . S
C268 H259 0.950 . S
C268 C267 1.398 . S
C268 C269 1.391 . S
C269 H257 0.950 . S
C269 C265 1.393 . S
C269 C268 1.391 . S
C270 H260 0.950 . S
C270 C271 1.386 . S
C270 C272 1.391 . S
C271 C270 1.386 . S
C271 C275 1.393 . S
C272 H261 0.950 . S
C272 C270 1.391 . S
C272 C273 1.400 . S
C273 C267 1.491 . S
C273 C272 1.400 . S
C273 C274 1.398 . S
C274 H262 0.950 . S
C274 C273 1.398 . S
C274 C275 1.391 . S
C275 H263 0.950 . S
C275 C271 1.393 . S
C275 C274 1.391 . S
H276 C284 0.950 . S
H277 C289 0.950 . S
H278 C286 0.950 . S
H279 C288 0.950 . S
H280 C290 0.950 . S
H281 C292 0.950 . S
H282 C294 0.950 . S
H283 C295 0.950 . S
C284 H276 0.950 . S
C284 C285 1.386 . S
C284 C286 1.391 . S
C285 C284 1.386 . S
C285 C289 1.393 . S
C286 H278 0.950 . S
C286 C284 1.391 . S
C286 C287 1.400 . S
C287 C286 1.400 . S
C287 C288 1.398 . S
C287 C293 1.491 . S
C288 H279 0.950 . S
C288 C287 1.398 . S
C288 C289 1.391 . S
C289 H277 0.950 . S
C289 C285 1.393 . S
C289 C288 1.391 . S
C290 H280 0.950 . S
C290 C291 1.386 . S
C290 C292 1.391 . S
C291 C290 1.386 . S
C291 C295 1.393 . S
C292 H281 0.950 . S
C292 C290 1.391 . S
C292 C293 1.400 . S
C293 C287 1.491 . S
C293 C292 1.400 . S
C293 C294 1.398 . S
C294 H282 0.950 . S
C294 C293 1.398 . S
C294 C295 1.391 . S
C295 H283 0.950 . S
C295 C291 1.393 . S
C295 C294 1.391 . S
H296 C304 0.950 . S
H297 C309 0.950 . S
H298 C306 0.950 . S
H299 C308 0.950 1_655 S
H300 C310 0.950 . S
H301 C312 0.950 . S
H302 C314 0.950 1_455 S
H303 C315 0.950 . S
C304 H296 0.950 . S
C304 C305 1.386 . S
C304 C306 1.391 . S
C305 C304 1.386 . S
C305 C309 1.393 . S
C306 H298 0.950 . S
C306 C304 1.391 . S
C306 C307 1.400 . S
C307 C306 1.400 . S
C307 C308 1.398 . S
C307 C313 1.491 1_455 S
C308 H299 0.950 1_455 S
C308 C307 1.398 . S
C308 C309 1.391 . S
C309 H297 0.950 . S
C309 C305 1.393 . S
C309 C308 1.391 . S
C310 H300 0.950 . S
C310 C311 1.386 . S
C310 C312 1.391 . S
C311 C310 1.386 . S
C311 C315 1.393 . S
C312 H301 0.950 . S
C312 C310 1.391 . S
C312 C313 1.400 . S
C313 C307 1.491 1_655 S
C313 C312 1.400 . S
C313 C314 1.398 . S
C314 H302 0.950 1_655 S
C314 C313 1.398 . S
C314 C315 1.391 . S
C315 H303 0.950 . S
C315 C311 1.393 . S
C315 C314 1.391 . S
H316 C324 0.950 . S
H317 C329 0.950 . S
H318 C326 0.950 . S
H319 C328 0.950 1_565 S
H320 C330 0.950 . S
H321 C332 0.950 . S
H322 C334 0.950 1_545 S
H323 C335 0.950 . S
C324 H316 0.950 . S
C324 C325 1.386 . S
C324 C326 1.391 . S
C325 C324 1.386 . S
C325 C329 1.393 . S
C326 H318 0.950 . S
C326 C324 1.391 . S
C326 C327 1.400 . S
C327 C326 1.400 . S
C327 C328 1.398 . S
C327 C333 1.491 1_545 S
C328 H319 0.950 1_545 S
C328 C327 1.398 . S
C328 C329 1.391 . S
C329 H317 0.950 . S
C329 C325 1.393 . S
C329 C328 1.391 . S
C330 H320 0.950 . S
C330 C331 1.386 . S
C330 C332 1.391 . S
C331 C330 1.386 . S
C331 C335 1.393 . S
C332 H321 0.950 . S
C332 C330 1.391 . S
C332 C333 1.400 . S
C333 C327 1.491 1_565 S
C333 C332 1.400 . S
C333 C334 1.398 . S
C334 H322 0.950 1_565 S
C334 C333 1.398 . S
C334 C335 1.391 . S
C335 H323 0.950 . S
C335 C331 1.393 . S
C335 C334 1.391 . S
H336 C344 0.950 . S
H337 C349 0.950 . S
H338 C346 0.950 . S
H339 C348 0.950 . S
H340 C350 0.950 . S
H341 C352 0.950 . S
H342 C354 0.950 . S
H343 C355 0.950 . S
C344 H336 0.950 . S
C344 C345 1.386 . S
C344 C346 1.391 . S
C345 C344 1.386 . S
C345 C349 1.393 . S
C346 H338 0.950 . S
C346 C344 1.391 . S
C346 C347 1.400 . S
C347 C346 1.400 . S
C347 C348 1.398 . S
C347 C353 1.491 . S
C348 H339 0.950 . S
C348 C347 1.398 . S
C348 C349 1.391 . S
C349 H337 0.950 . S
C349 C345 1.393 . S
C349 C348 1.391 . S
C350 H340 0.950 . S
C350 C351 1.386 . S
C350 C352 1.391 . S
C351 C350 1.386 . S
C351 C355 1.393 . S
C352 H341 0.950 . S
C352 C350 1.391 . S
C352 C353 1.400 . S
C353 C347 1.491 . S
C353 C352 1.400 . S
C353 C354 1.398 . S
C354 H342 0.950 . S
C354 C353 1.398 . S
C354 C355 1.391 . S
C355 H343 0.950 . S
C355 C351 1.393 . S
C355 C354 1.391 . S
H356 C364 0.950 . S
H357 C369 0.950 . S
H358 C366 0.950 . S
H359 C368 0.950 1_455 S
H360 C370 0.950 . S
H361 C372 0.950 . S
H362 C374 0.950 1_655 S
H363 C375 0.950 . S
C364 H356 0.950 . S
C364 C365 1.386 . S
C364 C366 1.391 . S
C365 C364 1.386 . S
C365 C369 1.393 . S
C366 H358 0.950 . S
C366 C364 1.391 . S
C366 C367 1.400 . S
C367 C366 1.400 . S
C367 C368 1.398 . S
C367 C373 1.491 1_655 S
C368 H359 0.950 1_655 S
C368 C367 1.398 . S
C368 C369 1.391 . S
C369 H357 0.950 . S
C369 C365 1.393 . S
C369 C368 1.391 . S
C370 H360 0.950 . S
C370 C371 1.386 . S
C370 C372 1.391 . S
C371 C370 1.386 . S
C371 C375 1.393 . S
C372 H361 0.950 . S
C372 C370 1.391 . S
C372 C373 1.400 . S
C373 C367 1.491 1_455 S
C373 C372 1.400 . S
C373 C374 1.398 . S
C374 H362 0.950 1_455 S
C374 C373 1.398 . S
C374 C375 1.391 . S
C375 H363 0.950 . S
C375 C371 1.393 . S
C375 C374 1.391 . S
H376 C384 0.950 . S
H377 C389 0.950 . S
H378 C386 0.950 . S
H379 C388 0.950 1_545 S
H380 C390 0.950 . S
H381 C392 0.950 . S
H382 C394 0.950 1_565 S
H383 C395 0.950 . S
C384 H376 0.950 . S
C384 C385 1.386 . S
C384 C386 1.391 . S
C385 C384 1.386 . S
C385 C389 1.393 . S
C386 H378 0.950 . S
C386 C384 1.391 . S
C386 C387 1.400 . S
C387 C386 1.400 . S
C387 C388 1.398 . S
C387 C393 1.491 1_565 S
C388 H379 0.950 1_565 S
C388 C387 1.398 . S
C388 C389 1.391 . S
C389 H377 0.950 . S
C389 C385 1.393 . S
C389 C388 1.391 . S
C390 H380 0.950 . S
C390 C391 1.386 . S
C390 C392 1.391 . S
C391 C390 1.386 . S
C391 C395 1.393 . S
C392 H381 0.950 . S
C392 C390 1.391 . S
C392 C393 1.400 . S
C393 C387 1.491 1_545 S
C393 C392 1.400 . S
C393 C394 1.398 . S
C394 H382 0.950 1_545 S
C394 C393 1.398 . S
C394 C395 1.391 . S
C395 H383 0.950 . S
C395 C391 1.393 . S
C395 C394 1.391 . S
H396 C404 0.950 . S
H397 C409 0.950 . S
H398 C406 0.950 . S
H399 C408 0.950 . S
H400 C410 0.950 . S
H401 C412 0.950 . S
H402 C414 0.950 . S
H403 C415 0.950 . S
C404 H396 0.950 . S
C404 C405 1.386 . S
C404 C406 1.391 . S
C405 C404 1.386 . S
C405 C409 1.393 . S
C406 H398 0.950 . S
C406 C404 1.391 . S
C406 C407 1.400 . S
C407 C406 1.400 . S
C407 C408 1.398 . S
C407 C413 1.491 . S
C408 H399 0.950 . S
C408 C407 1.398 . S
C408 C409 1.391 . S
C409 H397 0.950 . S
C409 C405 1.393 . S
C409 C408 1.391 . S
C410 H400 0.950 . S
C410 C411 1.386 . S
C410 C412 1.391 . S
C411 C410 1.386 . S
C411 C415 1.393 . S
C412 H401 0.950 . S
C412 C410 1.391 . S
C412 C413 1.400 . S
C413 C407 1.491 . S
C413 C412 1.400 . S
C413 C414 1.398 . S
C414 H402 0.950 . S
C414 C413 1.398 . S
C414 C415 1.391 . S
C415 H403 0.950 . S
C415 C411 1.393 . S
C415 C414 1.391 . S
H416 C424 0.950 . S
H417 C429 0.950 . S
H418 C426 0.950 . S
H419 C428 0.950 . S
H420 C430 0.950 . S
H421 C432 0.950 . S
H422 C434 0.950 . S
H423 C435 0.950 . S
C424 H416 0.950 . S
C424 C425 1.386 1_455 S
C424 C426 1.391 . S
C425 C424 1.386 1_655 S
C425 C429 1.393 . S
C426 H418 0.950 . S
C426 C424 1.391 . S
C426 C427 1.400 1_455 S
C427 C426 1.400 1_655 S
C427 C428 1.398 . S
C427 C433 1.491 1_655 S
C428 H419 0.950 . S
C428 C427 1.398 . S
C428 C429 1.391 . S
C429 H417 0.950 . S
C429 C425 1.393 . S
C429 C428 1.391 . S
C430 H420 0.950 . S
C430 C431 1.386 1_655 S
C430 C432 1.391 . S
C431 C430 1.386 1_455 S
C431 C435 1.393 . S
C432 H421 0.950 . S
C432 C430 1.391 . S
C432 C433 1.400 1_655 S
C433 C427 1.491 1_455 S
C433 C432 1.400 1_455 S
C433 C434 1.398 . S
C434 H422 0.950 . S
C434 C433 1.398 . S
C434 C435 1.391 . S
C435 H423 0.950 . S
C435 C431 1.393 . S
C435 C434 1.391 . S
H436 C444 0.950 1_545 S
H437 C449 0.950 . S
H438 C446 0.950 . S
H439 C448 0.950 . S
H440 C450 0.950 1_565 S
H441 C452 0.950 . S
H442 C454 0.950 . S
H443 C455 0.950 . S
C444 H436 0.950 1_565 S
C444 C445 1.386 . S
C444 C446 1.391 1_565 S
C445 C444 1.386 . S
C445 C449 1.393 . S
C446 H438 0.950 . S
C446 C444 1.391 1_545 S
C446 C447 1.400 1_545 S
C447 C446 1.400 1_565 S
C447 C448 1.398 . S
C447 C453 1.491 1_566 S
C448 H439 0.950 . S
C448 C447 1.398 . S
C448 C449 1.391 . S
C449 H437 0.950 . S
C449 C445 1.393 . S
C449 C448 1.391 . S
C450 H440 0.950 1_545 S
C450 C451 1.386 . S
C450 C452 1.391 1_545 S
C451 C450 1.386 . S
C451 C455 1.393 . S
C452 H441 0.950 . S
C452 C450 1.391 1_565 S
C452 C453 1.400 1_565 S
C453 C447 1.491 1_544 S
C453 C452 1.400 1_545 S
C453 C454 1.398 . S
C454 H442 0.950 . S
C454 C453 1.398 . S
C454 C455 1.391 . S
C455 H443 0.950 . S
C455 C451 1.393 . S
C455 C454 1.391 . S
H456 C464 0.950 . S
H457 C469 0.950 . S
H458 C466 0.950 . S
H459 C468 0.950 . S
H460 C470 0.950 . S
H461 C472 0.950 . S
H462 C474 0.950 . S
H463 C475 0.950 . S
C464 H456 0.950 . S
C464 C465 1.386 . S
C464 C466 1.391 . S
C465 C464 1.386 . S
C465 C469 1.393 . S
C466 H458 0.950 . S
C466 C464 1.391 . S
C466 C467 1.400 . S
C467 C466 1.400 . S
C467 C468 1.398 . S
C467 C473 1.491 . S
C468 H459 0.950 . S
C468 C467 1.398 . S
C468 C469 1.391 . S
C469 H457 0.950 . S
C469 C465 1.393 . S
C469 C468 1.391 . S
C470 H460 0.950 . S
C470 C471 1.386 . S
C470 C472 1.391 . S
C471 C470 1.386 . S
C471 C475 1.393 . S
C472 H461 0.950 . S
C472 C470 1.391 . S
C472 C473 1.400 . S
C473 C467 1.491 . S
C473 C472 1.400 . S
C473 C474 1.398 . S
C474 H462 0.950 . S
C474 C473 1.398 . S
C474 C475 1.391 . S
C475 H463 0.950 . S
C475 C471 1.393 . S
C475 C474 1.391 . S
H476 C484 0.950 . S
H477 C489 0.951 . S
H478 C486 0.950 . S
H479 C488 0.950 . S
H480 C490 0.950 . S
H481 C492 0.950 . S
H482 C494 0.950 . S
H483 C495 0.951 . S
C484 H476 0.950 . S
C484 C485 1.386 . S
C484 C486 1.391 . S
C485 C484 1.386 . S
C485 C489 1.389 1_455 S
C486 H478 0.950 . S
C486 C484 1.391 . S
C486 C487 1.400 . S
C487 C486 1.400 . S
C487 C488 1.398 1_455 S
C487 C493 1.491 1_455 S
C488 H479 0.950 . S
C488 C487 1.398 1_655 S
C488 C489 1.394 . S
C489 H477 0.951 . S
C489 C485 1.389 1_655 S
C489 C488 1.394 . S
C490 H480 0.950 . S
C490 C491 1.386 . S
C490 C492 1.391 . S
C491 C490 1.386 . S
C491 C495 1.388 1_655 S
C492 H481 0.950 . S
C492 C490 1.391 . S
C492 C493 1.400 . S
C493 C487 1.491 1_655 S
C493 C492 1.400 . S
C493 C494 1.398 1_655 S
C494 H482 0.950 . S
C494 C493 1.398 1_455 S
C494 C495 1.394 . S
C495 H483 0.951 . S
C495 C491 1.388 1_455 S
C495 C494 1.394 . S
H496 C504 0.950 . S
H497 C509 0.950 . S
H498 C506 0.950 . S
H499 C508 0.950 . S
H500 C510 0.950 . S
H501 C512 0.950 . S
H502 C514 0.950 . S
H503 C515 0.950 . S
C504 H496 0.950 . S
C504 C505 1.386 1_545 S
C504 C506 1.391 . S
C505 C504 1.386 1_565 S
C505 C509 1.393 . S
C506 H498 0.950 . S
C506 C504 1.391 . S
C506 C507 1.400 1_545 S
C507 C506 1.400 1_565 S
C507 C508 1.398 . S
C507 C513 1.491 1_564 S
C508 H499 0.950 . S
C508 C507 1.398 . S
C508 C509 1.391 . S
C509 H497 0.950 . S
C509 C505 1.393 . S
C509 C508 1.391 . S
C510 H500 0.950 . S
C510 C511 1.386 1_565 S
C510 C512 1.391 . S
C511 C510 1.386 1_545 S
C511 C515 1.393 . S
C512 H501 0.950 . S
C512 C510 1.391 . S
C512 C513 1.400 1_565 S
C513 C507 1.491 1_546 S
C513 C512 1.400 1_545 S
C513 C514 1.398 . S
C514 H502 0.950 . S
C514 C513 1.398 . S
C514 C515 1.391 . S
C515 H503 0.950 . S
C515 C511 1.393 . S
C515 C514 1.391 . S
H516 C524 0.950 . S
H517 C529 0.950 . S
H518 C526 0.950 . S
H519 C528 0.950 . S
H520 C530 0.950 . S
H521 C532 0.950 . S
H522 C534 0.950 . S
H523 C535 0.950 . S
C524 H516 0.950 . S
C524 C525 1.386 . S
C524 C526 1.391 . S
C525 C524 1.386 . S
C525 C529 1.393 . S
C526 H518 0.950 . S
C526 C524 1.391 . S
C526 C527 1.400 . S
C527 C526 1.400 . S
C527 C528 1.398 . S
C527 C533 1.491 1_655 S
C528 H519 0.950 . S
C528 C527 1.398 . S
C528 C529 1.391 . S
C529 H517 0.950 . S
C529 C525 1.393 . S
C529 C528 1.391 . S
C530 H520 0.950 . S
C530 C531 1.386 . S
C530 C532 1.391 . S
C531 C530 1.386 . S
C531 C535 1.393 . S
C532 H521 0.950 . S
C532 C530 1.391 . S
C532 C533 1.400 . S
C533 C527 1.491 1_455 S
C533 C532 1.400 . S
C533 C534 1.398 . S
C534 H522 0.950 . S
C534 C533 1.398 . S
C534 C535 1.391 . S
C535 H523 0.950 . S
C535 C531 1.393 . S
C535 C534 1.391 . S
H536 C544 0.950 . S
H537 C549 0.950 . S
H538 C546 0.950 . S
H539 C548 0.950 . S
H540 C550 0.950 . S
H541 C552 0.950 . S
H542 C554 0.950 . S
H543 C555 0.950 . S
C544 H536 0.950 . S
C544 C545 1.386 . S
C544 C546 1.391 . S
C545 C544 1.386 . S
C545 C549 1.393 . S
C546 H538 0.950 . S
C546 C544 1.391 . S
C546 C547 1.400 . S
C547 C546 1.400 . S
C547 C548 1.398 . S
C547 C553 1.491 1_545 S
C548 H539 0.950 . S
C548 C547 1.398 . S
C548 C549 1.391 . S
C549 H537 0.950 . S
C549 C545 1.393 . S
C549 C548 1.391 . S
C550 H540 0.950 . S
C550 C551 1.386 . S
C550 C552 1.391 . S
C551 C550 1.386 . S
C551 C555 1.393 . S
C552 H541 0.950 . S
C552 C550 1.391 . S
C552 C553 1.400 . S
C553 C547 1.491 1_565 S
C553 C552 1.400 . S
C553 C554 1.398 . S
C554 H542 0.950 . S
C554 C553 1.398 . S
C554 C555 1.391 . S
C555 H543 0.950 . S
C555 C551 1.393 . S
C555 C554 1.391 . S
H556 C564 0.950 . S
H557 C569 0.950 . S
H558 C566 0.950 . S
H559 C568 0.950 . S
H560 C570 0.950 . S
H561 C572 0.950 . S
H562 C574 0.950 . S
H563 C575 0.950 . S
C564 H556 0.950 . S
C564 C565 1.386 . S
C564 C566 1.391 . S
C565 C564 1.386 . S
C565 C569 1.393 . S
C566 H558 0.950 . S
C566 C564 1.391 . S
C566 C567 1.400 . S
C567 C566 1.400 . S
C567 C568 1.398 . S
C567 C573 1.491 . S
C568 H559 0.950 . S
C568 C567 1.398 . S
C568 C569 1.391 . S
C569 H557 0.950 . S
C569 C565 1.393 . S
C569 C568 1.391 . S
C570 H560 0.950 . S
C570 C571 1.386 . S
C570 C572 1.391 . S
C571 C570 1.386 . S
C571 C575 1.393 . S
C572 H561 0.950 . S
C572 C570 1.391 . S
C572 C573 1.400 . S
C573 C567 1.491 . S
C573 C572 1.400 . S
C573 C574 1.398 . S
C574 H562 0.950 . S
C574 C573 1.398 . S
C574 C575 1.391 . S
C575 H563 0.950 . S
C575 C571 1.393 . S
C575 C574 1.391 . S
H576 C584 0.950 . S
H577 C589 0.950 . S
H578 C586 0.950 . S
H579 C588 0.950 . S
H580 C590 0.950 . S
H581 C592 0.950 . S
H582 C594 0.950 . S
H583 C595 0.950 . S
C584 H576 0.950 . S
C584 C585 1.386 . S
C584 C586 1.391 . S
C585 C584 1.386 . S
C585 C589 1.393 . S
C586 H578 0.950 . S
C586 C584 1.391 . S
C586 C587 1.400 . S
C587 C586 1.400 . S
C587 C588 1.398 . S
C587 C593 1.491 1_655 S
C588 H579 0.950 . S
C588 C587 1.398 . S
C588 C589 1.391 . S
C589 H577 0.950 . S
C589 C585 1.393 . S
C589 C588 1.391 . S
C590 H580 0.950 . S
C590 C591 1.386 . S
C590 C592 1.391 . S
C591 C590 1.386 . S
C591 C595 1.393 . S
C592 H581 0.950 . S
C592 C590 1.391 . S
C592 C593 1.400 . S
C593 C587 1.491 1_455 S
C593 C592 1.400 . S
C593 C594 1.398 . S
C594 H582 0.950 . S
C594 C593 1.398 . S
C594 C595 1.391 . S
C595 H583 0.950 . S
C595 C591 1.393 . S
C595 C594 1.391 . S
H596 C604 0.950 . S
H597 C609 0.950 . S
H598 C606 0.950 . S
H599 C608 0.950 . S
H600 C610 0.950 . S
H601 C612 0.950 . S
H602 C614 0.950 . S
H603 C615 0.950 . S
C604 H596 0.950 . S
C604 C605 1.386 . S
C604 C606 1.391 . S
C605 C604 1.386 . S
C605 C609 1.393 . S
C606 H598 0.950 . S
C606 C604 1.391 . S
C606 C607 1.400 . S
C607 C606 1.400 . S
C607 C608 1.398 . S
C607 C613 1.491 1_565 S
C608 H599 0.950 . S
C608 C607 1.398 . S
C608 C609 1.391 . S
C609 H597 0.950 . S
C609 C605 1.393 . S
C609 C608 1.391 . S
C610 H600 0.950 . S
C610 C611 1.386 . S
C610 C612 1.391 . S
C611 C610 1.386 . S
C611 C615 1.393 . S
C612 H601 0.950 . S
C612 C610 1.391 . S
C612 C613 1.400 . S
C613 C607 1.491 1_545 S
C613 C612 1.400 . S
C613 C614 1.398 . S
C614 H602 0.950 . S
C614 C613 1.398 . S
C614 C615 1.391 . S
C615 H603 0.950 . S
C615 C611 1.393 . S
C615 C614 1.391 . S
H616 C624 0.950 . S
H617 C629 0.950 . S
H618 C626 0.950 . S
H619 C628 0.950 . S
H620 C630 0.950 . S
H621 C632 0.950 . S
H622 C634 0.950 . S
H623 C635 0.950 . S
C624 H616 0.950 . S
C624 C625 1.386 . S
C624 C626 1.391 . S
C625 C624 1.386 . S
C625 C629 1.393 . S
C626 H618 0.950 . S
C626 C624 1.391 . S
C626 C627 1.400 . S
C627 C626 1.400 . S
C627 C628 1.398 . S
C627 C633 1.491 . S
C628 H619 0.950 . S
C628 C627 1.398 . S
C628 C629 1.391 . S
C629 H617 0.950 . S
C629 C625 1.393 . S
C629 C628 1.391 . S
C630 H620 0.950 . S
C630 C631 1.386 . S
C630 C632 1.391 . S
C631 C630 1.386 . S
C631 C635 1.393 . S
C632 H621 0.950 . S
C632 C630 1.391 . S
C632 C633 1.400 . S
C633 C627 1.491 . S
C633 C632 1.400 . S
C633 C634 1.398 . S
C634 H622 0.950 . S
C634 C633 1.398 . S
C634 C635 1.391 . S
C635 H623 0.950 . S
C635 C631 1.393 . S
C635 C634 1.391 . S
C165 C105 2.591 . S
C171 C1 2.594 . S
C185 C23 2.464 . S
C191 C127 2.466 . S
C205 C27 2.593 . S
C211 C131 2.595 . S
C225 C40 2.605 . S
C231 C144 2.604 . S
C245 C88 2.461 . S
C251 C62 2.458 . S
C265 C66 2.604 . S
C271 C92 2.605 . S
C285 C49 1.349 . S
C291 C10 1.358 . S
C305 C53 1.362 . S
C311 C14 1.367 . S
C325 C75 1.346 . S
C331 C36 1.341 . S
C345 C79 1.362 . S
C351 C118 1.367 . S
C365 C101 1.349 . S
C371 C140 1.341 . S
C385 C114 1.356 . S
C391 C153 1.345 . S
C405 C3 2.102 . S
C411 C122 1.936 . S
C425 C18 1.939 . S
C431 C133 2.111 . S
C445 C29 2.100 . S
C451 C146 2.105 . S
C465 C83 1.949 . S
C471 C42 2.101 . S
C485 C57 1.965 . S
C491 C94 2.111 . S
C505 C107 2.101 . S
C511 C68 2.108 . S
C525 C148 1.273 . S
C531 C5 1.280 . S
C545 C16 1.315 . S
C551 C81 1.308 . S
C565 C96 1.269 . S
C571 C31 1.272 . S
C585 C44 1.288 . S
C591 C109 1.293 . S
C605 C55 1.309 . S
C611 C120 1.316 . S
C625 C135 1.294 . S
C631 C70 1.289 . S
