# Generated by pormake.
# Topology nfb, (4)-cn, num edge types: 1
# Building blocks:
#     Node 0, Type 0, BuildingBlock: QUQFOY_clean_sbu_1, # of connection points: 4
#     Node 1, Type 0, BuildingBlock: QUQFOY_clean_sbu_1, # of connection points: 4
#     Node 2, Type 0, BuildingBlock: QUQFOY_clean_sbu_1, # of connection points: 4
#     Node 3, Type 0, BuildingBlock: QUQFOY_clean_sbu_1, # of connection points: 4
#     Node 4, Type 0, BuildingBlock: QUQFOY_clean_sbu_1, # of connection points: 4
#     Node 5, Type 0, BuildingBlock: QUQFOY_clean_sbu_1, # of connection points: 4
#     Node 6, Type 0, BuildingBlock: QUQFOY_clean_sbu_1, # of connection points: 4
#     Node 7, Type 0, BuildingBlock: QUQFOY_clean_sbu_1, # of connection points: 4
#     Node 8, Type 0, BuildingBlock: QUQFOY_clean_sbu_1, # of connection points: 4
#     Node 9, Type 0, BuildingBlock: QUQFOY_clean_sbu_1, # of connection points: 4
#     Node 10, Type 0, BuildingBlock: QUQFOY_clean_sbu_1, # of connection points: 4
#     Node 11, Type 0, BuildingBlock: QUQFOY_clean_sbu_1, # of connection points: 4
#     Node 12, Type 0, BuildingBlock: QUQFOY_clean_sbu_1, # of connection points: 4
#     Node 13, Type 0, BuildingBlock: QUQFOY_clean_sbu_1, # of connection points: 4
#     Node 14, Type 0, BuildingBlock: QUQFOY_clean_sbu_1, # of connection points: 4
#     Node 15, Type 0, BuildingBlock: QUQFOY_clean_sbu_1, # of connection points: 4
#     Node 16, Type 0, BuildingBlock: QUQFOY_clean_sbu_1, # of connection points: 4
#     Node 17, Type 0, BuildingBlock: QUQFOY_clean_sbu_1, # of connection points: 4
#     Node 18, Type 0, BuildingBlock: QUQFOY_clean_sbu_1, # of connection points: 4
#     Node 19, Type 0, BuildingBlock: QUQFOY_clean_sbu_1, # of connection points: 4
#     Node 20, Type 0, BuildingBlock: QUQFOY_clean_sbu_1, # of connection points: 4
#     Node 21, Type 0, BuildingBlock: QUQFOY_clean_sbu_1, # of connection points: 4
#     Node 22, Type 0, BuildingBlock: QUQFOY_clean_sbu_1, # of connection points: 4
#     Node 23, Type 0, BuildingBlock: QUQFOY_clean_sbu_1, # of connection points: 4
#     Node 24, Type 0, BuildingBlock: QUQFOY_clean_sbu_1, # of connection points: 4
#     Node 25, Type 0, BuildingBlock: QUQFOY_clean_sbu_1, # of connection points: 4
#     Node 26, Type 0, BuildingBlock: QUQFOY_clean_sbu_1, # of connection points: 4
#     Node 27, Type 0, BuildingBlock: QUQFOY_clean_sbu_1, # of connection points: 4
#     Node 28, Type 0, BuildingBlock: QUQFOY_clean_sbu_1, # of connection points: 4
#     Node 29, Type 0, BuildingBlock: QUQFOY_clean_sbu_1, # of connection points: 4
#     Node 30, Type 0, BuildingBlock: QUQFOY_clean_sbu_1, # of connection points: 4
#     Node 31, Type 0, BuildingBlock: QUQFOY_clean_sbu_1, # of connection points: 4
#     Node 32, Type 0, BuildingBlock: QUQFOY_clean_sbu_1, # of connection points: 4
#     Node 33, Type 0, BuildingBlock: QUQFOY_clean_sbu_1, # of connection points: 4
#     Node 34, Type 0, BuildingBlock: QUQFOY_clean_sbu_1, # of connection points: 4
#     Node 35, Type 0, BuildingBlock: QUQFOY_clean_sbu_1, # of connection points: 4
#     Node 36, Type 0, BuildingBlock: QUQFOY_clean_sbu_1, # of connection points: 4
#     Node 37, Type 0, BuildingBlock: QUQFOY_clean_sbu_1, # of connection points: 4
#     Node 38, Type 0, BuildingBlock: QUQFOY_clean_sbu_1, # of connection points: 4
#     Node 39, Type 0, BuildingBlock: QUQFOY_clean_sbu_1, # of connection points: 4
#     Node 40, Type 0, BuildingBlock: QUQFOY_clean_sbu_1, # of connection points: 4
#     Node 41, Type 0, BuildingBlock: QUQFOY_clean_sbu_1, # of connection points: 4
#     Node 42, Type 0, BuildingBlock: QUQFOY_clean_sbu_1, # of connection points: 4
#     Node 43, Type 0, BuildingBlock: QUQFOY_clean_sbu_1, # of connection points: 4
#     Node 44, Type 0, BuildingBlock: QUQFOY_clean_sbu_1, # of connection points: 4
#     Node 45, Type 0, BuildingBlock: QUQFOY_clean_sbu_1, # of connection points: 4
#     Node 46, Type 0, BuildingBlock: QUQFOY_clean_sbu_1, # of connection points: 4
#     Node 47, Type 0, BuildingBlock: QUQFOY_clean_sbu_1, # of connection points: 4
#     Edge 48, Type (0, 0), BuildingBlock: OJICUG_clean_linker_0, # of connection points: 2
#     Edge 49, Type (0, 0), BuildingBlock: OJICUG_clean_linker_0, # of connection points: 2
#     Edge 50, Type (0, 0), BuildingBlock: OJICUG_clean_linker_0, # of connection points: 2
#     Edge 51, Type (0, 0), BuildingBlock: OJICUG_clean_linker_0, # of connection points: 2
#     Edge 52, Type (0, 0), BuildingBlock: OJICUG_clean_linker_0, # of connection points: 2
#     Edge 53, Type (0, 0), BuildingBlock: OJICUG_clean_linker_0, # of connection points: 2
#     Edge 54, Type (0, 0), BuildingBlock: OJICUG_clean_linker_0, # of connection points: 2
#     Edge 55, Type (0, 0), BuildingBlock: OJICUG_clean_linker_0, # of connection points: 2
#     Edge 56, Type (0, 0), BuildingBlock: OJICUG_clean_linker_0, # of connection points: 2
#     Edge 57, Type (0, 0), BuildingBlock: OJICUG_clean_linker_0, # of connection points: 2
#     Edge 58, Type (0, 0), BuildingBlock: OJICUG_clean_linker_0, # of connection points: 2
#     Edge 59, Type (0, 0), BuildingBlock: OJICUG_clean_linker_0, # of connection points: 2
#     Edge 60, Type (0, 0), BuildingBlock: OJICUG_clean_linker_0, # of connection points: 2
#     Edge 61, Type (0, 0), BuildingBlock: OJICUG_clean_linker_0, # of connection points: 2
#     Edge 62, Type (0, 0), BuildingBlock: OJICUG_clean_linker_0, # of connection points: 2
#     Edge 63, Type (0, 0), BuildingBlock: OJICUG_clean_linker_0, # of connection points: 2
#     Edge 64, Type (0, 0), BuildingBlock: OJICUG_clean_linker_0, # of connection points: 2
#     Edge 65, Type (0, 0), BuildingBlock: OJICUG_clean_linker_0, # of connection points: 2
#     Edge 66, Type (0, 0), BuildingBlock: OJICUG_clean_linker_0, # of connection points: 2
#     Edge 67, Type (0, 0), BuildingBlock: OJICUG_clean_linker_0, # of connection points: 2
#     Edge 68, Type (0, 0), BuildingBlock: OJICUG_clean_linker_0, # of connection points: 2
#     Edge 69, Type (0, 0), BuildingBlock: OJICUG_clean_linker_0, # of connection points: 2
#     Edge 70, Type (0, 0), BuildingBlock: OJICUG_clean_linker_0, # of connection points: 2
#     Edge 71, Type (0, 0), BuildingBlock: OJICUG_clean_linker_0, # of connection points: 2
#     Edge 72, Type (0, 0), BuildingBlock: OJICUG_clean_linker_0, # of connection points: 2
#     Edge 73, Type (0, 0), BuildingBlock: OJICUG_clean_linker_0, # of connection points: 2
#     Edge 74, Type (0, 0), BuildingBlock: OJICUG_clean_linker_0, # of connection points: 2
#     Edge 75, Type (0, 0), BuildingBlock: OJICUG_clean_linker_0, # of connection points: 2
#     Edge 76, Type (0, 0), BuildingBlock: OJICUG_clean_linker_0, # of connection points: 2
#     Edge 77, Type (0, 0), BuildingBlock: OJICUG_clean_linker_0, # of connection points: 2
#     Edge 78, Type (0, 0), BuildingBlock: OJICUG_clean_linker_0, # of connection points: 2
#     Edge 79, Type (0, 0), BuildingBlock: OJICUG_clean_linker_0, # of connection points: 2
#     Edge 80, Type (0, 0), BuildingBlock: OJICUG_clean_linker_0, # of connection points: 2
#     Edge 81, Type (0, 0), BuildingBlock: OJICUG_clean_linker_0, # of connection points: 2
#     Edge 82, Type (0, 0), BuildingBlock: OJICUG_clean_linker_0, # of connection points: 2
#     Edge 83, Type (0, 0), BuildingBlock: OJICUG_clean_linker_0, # of connection points: 2
#     Edge 84, Type (0, 0), BuildingBlock: OJICUG_clean_linker_0, # of connection points: 2
#     Edge 85, Type (0, 0), BuildingBlock: OJICUG_clean_linker_0, # of connection points: 2
#     Edge 86, Type (0, 0), BuildingBlock: OJICUG_clean_linker_0, # of connection points: 2
#     Edge 87, Type (0, 0), BuildingBlock: OJICUG_clean_linker_0, # of connection points: 2
#     Edge 88, Type (0, 0), BuildingBlock: OJICUG_clean_linker_0, # of connection points: 2
#     Edge 89, Type (0, 0), BuildingBlock: OJICUG_clean_linker_0, # of connection points: 2
#     Edge 90, Type (0, 0), BuildingBlock: OJICUG_clean_linker_0, # of connection points: 2
#     Edge 91, Type (0, 0), BuildingBlock: OJICUG_clean_linker_0, # of connection points: 2
#     Edge 92, Type (0, 0), BuildingBlock: OJICUG_clean_linker_0, # of connection points: 2
#     Edge 93, Type (0, 0), BuildingBlock: OJICUG_clean_linker_0, # of connection points: 2
#     Edge 94, Type (0, 0), BuildingBlock: OJICUG_clean_linker_0, # of connection points: 2
#     Edge 95, Type (0, 0), BuildingBlock: OJICUG_clean_linker_0, # of connection points: 2
#     Edge 96, Type (0, 0), BuildingBlock: OJICUG_clean_linker_0, # of connection points: 2
#     Edge 97, Type (0, 0), BuildingBlock: OJICUG_clean_linker_0, # of connection points: 2
#     Edge 98, Type (0, 0), BuildingBlock: OJICUG_clean_linker_0, # of connection points: 2
#     Edge 99, Type (0, 0), BuildingBlock: OJICUG_clean_linker_0, # of connection points: 2
#     Edge 100, Type (0, 0), BuildingBlock: OJICUG_clean_linker_0, # of connection points: 2
#     Edge 101, Type (0, 0), BuildingBlock: OJICUG_clean_linker_0, # of connection points: 2
#     Edge 102, Type (0, 0), BuildingBlock: OJICUG_clean_linker_0, # of connection points: 2
#     Edge 103, Type (0, 0), BuildingBlock: OJICUG_clean_linker_0, # of connection points: 2
#     Edge 104, Type (0, 0), BuildingBlock: OJICUG_clean_linker_0, # of connection points: 2
#     Edge 105, Type (0, 0), BuildingBlock: OJICUG_clean_linker_0, # of connection points: 2
#     Edge 106, Type (0, 0), BuildingBlock: OJICUG_clean_linker_0, # of connection points: 2
#     Edge 107, Type (0, 0), BuildingBlock: OJICUG_clean_linker_0, # of connection points: 2
#     Edge 108, Type (0, 0), BuildingBlock: OJICUG_clean_linker_0, # of connection points: 2
#     Edge 109, Type (0, 0), BuildingBlock: OJICUG_clean_linker_0, # of connection points: 2
#     Edge 110, Type (0, 0), BuildingBlock: OJICUG_clean_linker_0, # of connection points: 2
#     Edge 111, Type (0, 0), BuildingBlock: OJICUG_clean_linker_0, # of connection points: 2
#     Edge 112, Type (0, 0), BuildingBlock: OJICUG_clean_linker_0, # of connection points: 2
#     Edge 113, Type (0, 0), BuildingBlock: OJICUG_clean_linker_0, # of connection points: 2
#     Edge 114, Type (0, 0), BuildingBlock: OJICUG_clean_linker_0, # of connection points: 2
#     Edge 115, Type (0, 0), BuildingBlock: OJICUG_clean_linker_0, # of connection points: 2
#     Edge 116, Type (0, 0), BuildingBlock: OJICUG_clean_linker_0, # of connection points: 2
#     Edge 117, Type (0, 0), BuildingBlock: OJICUG_clean_linker_0, # of connection points: 2
#     Edge 118, Type (0, 0), BuildingBlock: OJICUG_clean_linker_0, # of connection points: 2
#     Edge 119, Type (0, 0), BuildingBlock: OJICUG_clean_linker_0, # of connection points: 2
#     Edge 120, Type (0, 0), BuildingBlock: OJICUG_clean_linker_0, # of connection points: 2
#     Edge 121, Type (0, 0), BuildingBlock: OJICUG_clean_linker_0, # of connection points: 2
#     Edge 122, Type (0, 0), BuildingBlock: OJICUG_clean_linker_0, # of connection points: 2
#     Edge 123, Type (0, 0), BuildingBlock: OJICUG_clean_linker_0, # of connection points: 2
#     Edge 124, Type (0, 0), BuildingBlock: OJICUG_clean_linker_0, # of connection points: 2
#     Edge 125, Type (0, 0), BuildingBlock: OJICUG_clean_linker_0, # of connection points: 2
#     Edge 126, Type (0, 0), BuildingBlock: OJICUG_clean_linker_0, # of connection points: 2
#     Edge 127, Type (0, 0), BuildingBlock: OJICUG_clean_linker_0, # of connection points: 2
#     Edge 128, Type (0, 0), BuildingBlock: OJICUG_clean_linker_0, # of connection points: 2
#     Edge 129, Type (0, 0), BuildingBlock: OJICUG_clean_linker_0, # of connection points: 2
#     Edge 130, Type (0, 0), BuildingBlock: OJICUG_clean_linker_0, # of connection points: 2
#     Edge 131, Type (0, 0), BuildingBlock: OJICUG_clean_linker_0, # of connection points: 2
#     Edge 132, Type (0, 0), BuildingBlock: OJICUG_clean_linker_0, # of connection points: 2
#     Edge 133, Type (0, 0), BuildingBlock: OJICUG_clean_linker_0, # of connection points: 2
#     Edge 134, Type (0, 0), BuildingBlock: OJICUG_clean_linker_0, # of connection points: 2
#     Edge 135, Type (0, 0), BuildingBlock: OJICUG_clean_linker_0, # of connection points: 2
#     Edge 136, Type (0, 0), BuildingBlock: OJICUG_clean_linker_0, # of connection points: 2
#     Edge 137, Type (0, 0), BuildingBlock: OJICUG_clean_linker_0, # of connection points: 2
#     Edge 138, Type (0, 0), BuildingBlock: OJICUG_clean_linker_0, # of connection points: 2
#     Edge 139, Type (0, 0), BuildingBlock: OJICUG_clean_linker_0, # of connection points: 2
#     Edge 140, Type (0, 0), BuildingBlock: OJICUG_clean_linker_0, # of connection points: 2
#     Edge 141, Type (0, 0), BuildingBlock: OJICUG_clean_linker_0, # of connection points: 2
#     Edge 142, Type (0, 0), BuildingBlock: OJICUG_clean_linker_0, # of connection points: 2
#     Edge 143, Type (0, 0), BuildingBlock: OJICUG_clean_linker_0, # of connection points: 2
# Relax obj value: 0.339
# Max RMSD: 0.148
# Mean RMSD: 0.114
data_MOF--net-nfb--node1-QUQFOY_clean_sbu_1--edge1-OJICUG_clean_linker_0
_symmetry_space_group_name_H-M    P1
_symmetry_Int_Tables_number       1
_symmetry_cell_setting            triclinic
loop_
_symmetry_equiv_pos_as_xyz
'x, y, z'
_cell_length_a     43.368701
_cell_length_b     43.439573
_cell_length_c     43.876883
_cell_angle_alpha  91.412833
_cell_angle_beta   91.370165
_cell_angle_gamma 94.256212
loop_
_atom_site_label
_atom_site_type_symbol
_atom_site_fract_x
_atom_site_fract_y
_atom_site_fract_z
_atom_type_partial_charge
O0 O 0.15087 0.14137 0.40278 0.0
Cd1 Cd 0.19176 0.16331 0.41951 0.0
Cd2 Cd 0.21163 0.11097 0.39376 0.0
O3 O 0.16695 0.10637 0.37101 0.0
O4 O 0.17227 0.19501 0.44421 0.0
O5 O 0.2014 0.20663 0.40497 0.0
C6 C 0.18356 0.21545 0.42611 0.0
C7 C 0.26377 0.1259 0.38095 0.0
C8 C 0.14483 0.12071 0.38215 0.0
C9 C 0.21949 0.11647 0.45841 0.0
O10 O 0.21085 0.09619 0.43806 0.0
O11 O 0.21855 0.14495 0.45297 0.0
O12 O 0.25145 0.09828 0.37481 0.0
O13 O 0.24543 0.14599 0.39068 0.0
O14 O 0.37281 0.62846 0.91915 0.0
Cd15 Cd 0.36611 0.5821 0.92725 0.0
Cd16 Cd 0.38771 0.57714 0.8731 0.0
O17 O 0.4061 0.62384 0.88242 0.0
O18 O 0.35782 0.58028 0.97153 0.0
O19 O 0.39988 0.56338 0.95138 0.0
C20 C 0.38402 0.56854 0.97516 0.0
C21 C 0.40717 0.52717 0.87016 0.0
C22 C 0.39201 0.64103 0.90099 0.0
C23 C 0.31995 0.56758 0.87983 0.0
O24 O 0.34138 0.57713 0.86244 0.0
O25 O 0.32642 0.56106 0.90718 0.0
O26 O 0.40616 0.544 0.84625 0.0
O27 O 0.39967 0.53959 0.89571 0.0
O28 O 0.87632 0.8786 0.41412 0.0
Cd29 Cd 0.83823 0.85926 0.43658 0.0
Cd30 Cd 0.81768 0.91165 0.40817 0.0
O31 O 0.8583 0.91153 0.38196 0.0
O32 O 0.86084 0.83384 0.46559 0.0
O33 O 0.82779 0.81371 0.43014 0.0
C34 C 0.84732 0.80974 0.45211 0.0
C35 C 0.76379 0.89795 0.3998 0.0
C36 C 0.88085 0.89719 0.39246 0.0
C37 C 0.81971 0.91092 0.47285 0.0
O38 O 0.82884 0.92846 0.45173 0.0
O39 O 0.81185 0.88287 0.4664 0.0
O40 O 0.77609 0.92487 0.39278 0.0
O41 O 0.78248 0.87781 0.40856 0.0
O42 O 0.68346 0.41933 0.93083 0.0
Cd43 Cd 0.69793 0.46468 0.9365 0.0
Cd44 Cd 0.66688 0.46924 0.88264 0.0
O45 O 0.64993 0.42233 0.89261 0.0
O46 O 0.70776 0.46744 0.98122 0.0
O47 O 0.67173 0.49335 0.95898 0.0
C48 C 0.68557 0.48547 0.98349 0.0
C49 C 0.64564 0.51862 0.88041 0.0
C50 C 0.66325 0.40619 0.91262 0.0
C51 C 0.73674 0.47552 0.88313 0.0
O52 O 0.71161 0.47112 0.86759 0.0
O53 O 0.7366 0.47711 0.91214 0.0
O54 O 0.64429 0.5002 0.85669 0.0
O55 O 0.65614 0.50794 0.90542 0.0
O56 O 0.15628 0.91403 0.62775 0.0
Cd57 Cd 0.1099 0.91078 0.61687 0.0
Cd58 Cd 0.10499 0.90284 0.67618 0.0
O59 O 0.15318 0.91855 0.67771 0.0
O60 O 0.11126 0.92068 0.57313 0.0
O61 O 0.08426 0.94641 0.60584 0.0
C62 C 0.09279 0.94187 0.57834 0.0
C63 C 0.05626 0.92314 0.6852 0.0
C64 C 0.16962 0.91747 0.65378 0.0
C65 C 0.09095 0.84745 0.6368 0.0
O66 O 0.09941 0.85684 0.66357 0.0
O67 O 0.08988 0.86639 0.61528 0.0
O68 O 0.07194 0.91202 0.70734 0.0
O69 O 0.06984 0.92579 0.65944 0.0
O70 O 0.63679 0.74806 0.13182 0.0
Cd71 Cd 0.66268 0.75403 0.17192 0.0
Cd72 Cd 0.70272 0.73194 0.13809 0.0
O73 O 0.67969 0.757 0.10692 0.0
O74 O 0.65497 0.79557 0.19205 0.0
O75 O 0.69684 0.78807 0.16614 0.0
C76 C 0.67987 0.80724 0.17964 0.0
C77 C 0.75524 0.72648 0.14031 0.0
C78 C 0.65033 0.75517 0.10734 0.0
C79 C 0.67173 0.68745 0.17883 0.0
O80 O 0.68143 0.69132 0.15211 0.0
O81 O 0.66637 0.71124 0.19524 0.0
O82 O 0.73834 0.71537 0.11749 0.0
O83 O 0.74293 0.74419 0.15996 0.0
O84 O 0.93837 0.17401 0.63845 0.0
Cd85 Cd 0.98296 0.17182 0.6236 0.0
Cd86 Cd 0.995 0.19224 0.68009 0.0
O87 O 0.94756 0.1784 0.68802 0.0
O88 O 0.97139 0.15993 0.58107 0.0
O89 O 1.00243 0.13304 0.6087 0.0
C90 C 0.98869 0.1374 0.583 0.0
C91 C 0.04314 0.17123 0.69167 0.0
C92 C 0.92829 0.17577 0.6653 0.0
C93 C 1.00573 0.2372 0.63157 0.0
O94 O 0.99909 0.23476 0.65949 0.0
O95 O 1.00563 0.21326 0.61455 0.0
O96 O 0.03087 0.18958 0.71084 0.0
O97 O 1.02691 0.16282 0.66732 0.0
O98 O 0.47269 0.35396 0.12443 0.0
Cd99 Cd 0.46066 0.35413 0.16959 0.0
Cd100 Cd 0.40797 0.37083 0.14736 0.0
O101 O 0.42341 0.34271 0.11334 0.0
O102 O 0.475 0.31485 0.1882 0.0
O103 O 0.42636 0.32006 0.17478 0.0
C104 C 0.44728 0.30211 0.18334 0.0
C105 C 0.35521 0.37596 0.14947 0.0
C106 C 0.45152 0.34314 0.10584 0.0
C107 C 0.45036 0.42096 0.17812 0.0
O108 O 0.42973 0.41353 0.15781 0.0
O109 O 0.46477 0.39967 0.1907 0.0
O110 O 0.37124 0.38616 0.12712 0.0
O111 O 0.36872 0.36041 0.1699 0.0
O112 O 0.46403 0.04898 0.13829 0.0
Cd113 Cd 0.48696 0.08466 0.1617 0.0
Cd114 Cd 0.4418 0.11937 0.14079 0.0
O115 O 0.42027 0.07203 0.14007 0.0
O116 O 0.50797 0.07107 0.19954 0.0
O117 O 0.46618 0.09763 0.1989 0.0
C118 C 0.48694 0.08439 0.21428 0.0
C119 C 0.43199 0.16785 0.16454 0.0
C120 C 0.43482 0.04754 0.13553 0.0
C121 C 0.5035 0.13229 0.11667 0.0
O122 O 0.47495 0.13089 0.10912 0.0
O123 O 0.51277 0.11736 0.13919 0.0
O124 O 0.41523 0.15655 0.14152 0.0
O125 O 0.451 0.14984 0.17662 0.0
O126 O 0.31909 0.93528 0.67615 0.0
Cd127 Cd 0.36555 0.94614 0.67657 0.0
Cd128 Cd 0.36797 0.89026 0.65296 0.0
O129 O 0.32073 0.89885 0.64036 0.0
O130 O 0.37364 0.99218 0.67799 0.0
O131 O 0.38293 0.96274 0.63785 0.0
C132 C 0.38375 0.98972 0.65065 0.0
C133 C 0.41857 0.88892 0.63238 0.0
C134 C 0.305 0.91633 0.65723 0.0
C135 C 0.38516 0.89793 0.717 0.0
O136 O 0.37086 0.87966 0.69758 0.0
O137 O 0.3907 0.92633 0.711 0.0
O138 O 0.39954 0.86444 0.63094 0.0
O139 O 0.40779 0.91397 0.6423 0.0
O140 O 0.66923 0.05379 0.17683 0.0
Cd141 Cd 0.64411 1.01399 0.18674 0.0
Cd142 Cd 0.67362 0.98734 0.13936 0.0
O143 O 0.69296 0.03512 0.1371 0.0
O144 O 0.6205 1.02328 0.22355 0.0
O145 O 0.65364 0.98701 0.22143 0.0
C146 C 0.63217 0.99991 0.23567 0.0
C147 C 0.69047 0.93997 0.15784 0.0
C148 C 0.68726 0.05805 0.15472 0.0
C149 C 0.60572 0.98232 0.13425 0.0
O150 O 0.62997 0.97659 0.12014 0.0
O151 O 0.60782 0.99777 0.15916 0.0
O152 O 0.69814 0.94948 0.13111 0.0
O153 O 0.67738 0.95924 0.17524 0.0
O154 O 0.78133 0.14724 0.6838 0.0
Cd155 Cd 0.73519 0.13253 0.68301 0.0
Cd156 Cd 0.72851 0.19182 0.67421 0.0
O157 O 0.77568 0.19085 0.66011 0.0
O158 O 0.73146 0.08665 0.67719 0.0
O159 O 0.71343 0.11856 0.64372 0.0
C160 C 0.71638 0.09073 0.65208 0.0
C161 C 0.67757 0.19485 0.65311 0.0
C162 C 0.79332 0.17115 0.67126 0.0
C163 C 0.71326 0.16928 0.73416 0.0
O164 O 0.72578 0.19218 0.72048 0.0
O165 O 0.71026 0.14277 0.7211 0.0
O166 O 0.69501 0.2198 0.65953 0.0
O167 O 0.69032 0.16908 0.65522 0.0
O168 O 0.38616 0.84157 0.84929 0.0
Cd169 Cd 0.3833 0.84057 0.89542 0.0
Cd170 Cd 0.44378 0.8356 0.89149 0.0
O171 O 0.43553 0.85791 0.85113 0.0
O172 O 0.35372 0.87394 0.9069 0.0
O173 O 0.40415 0.87967 0.91451 0.0
C174 C 0.378 0.89197 0.91443 0.0
C175 C 0.48349 0.85639 0.9241 0.0
C176 C 0.40986 0.85359 0.83648 0.0
C177 C 0.40565 0.77677 0.90262 0.0
O178 O 0.43059 0.78929 0.89242 0.0
O179 O 0.38407 0.79388 0.91063 0.0
O180 O 0.48932 0.84044 0.90001 0.0
O181 O 0.45504 0.85945 0.9304 0.0
O182 O 0.51649 0.90267 0.39323 0.0
Cd183 Cd 0.55618 0.92825 0.38384 0.0
Cd184 Cd 0.58161 0.90194 0.43381 0.0
O185 O 0.53407 0.88177 0.43507 0.0
O186 O 0.54703 0.95048 0.34619 0.0
O187 O 0.58448 0.91881 0.35009 0.0
C188 C 0.57117 0.93939 0.33497 0.0
C189 C 0.63008 0.8861 0.41725 0.0
C190 C 0.51169 0.88591 0.41616 0.0
C191 C 0.58464 0.9695 0.43611 0.0
O192 O 0.59048 0.94627 0.45169 0.0
O193 O 0.57039 0.96575 0.41061 0.0
O194 O 0.61993 0.87868 0.44381 0.0
O195 O 0.61096 0.8983 0.39896 0.0
O196 O 0.68596 0.206 0.8729 0.0
Cd197 Cd 0.67699 0.2075 0.91787 0.0
Cd198 Cd 0.61968 0.21022 0.89638 0.0
O199 O 0.63865 0.18757 0.85966 0.0
O200 O 0.70404 0.17556 0.93772 0.0
O201 O 0.65398 0.16738 0.92888 0.0
C202 C 0.67959 0.15646 0.93713 0.0
C203 C 0.57642 0.19006 0.92173 0.0
C204 C 0.66696 0.19327 0.85321 0.0
C205 C 0.65046 0.27061 0.91656 0.0
O206 O 0.62983 0.25676 0.89918 0.0
O207 O 0.66958 0.2547 0.9313 0.0
O208 O 0.57359 0.20211 0.89529 0.0
O209 O 0.60363 0.18991 0.93393 0.0
O210 O 0.51799 0.11259 0.4213 0.0
Cd211 Cd 0.48243 0.0892 0.39805 0.0
Cd212 Cd 0.44727 0.13332 0.42042 0.0
O213 O 0.49414 0.15586 0.4217 0.0
O214 O 0.49773 0.06726 0.36167 0.0
O215 O 0.46927 0.10765 0.35955 0.0
C216 C 0.48393 0.08692 0.34557 0.0
C217 C 0.39845 0.14318 0.39757 0.0
C218 C 0.51897 0.14161 0.42526 0.0
C219 C 0.4356 0.07082 0.44319 0.0
O220 O 0.43627 0.09918 0.4512 0.0
O221 O 0.4507 0.06232 0.42049 0.0
O222 O 0.40968 0.15917 0.4211 0.0
O223 O 0.41677 0.12509 0.38447 0.0
O224 O 0.10823 0.42246 0.16177 0.0
Cd225 Cd 0.12957 0.38263 0.16865 0.0
Cd226 Cd 0.17722 0.41528 0.15019 0.0
O227 O 0.15275 0.44975 0.16921 0.0
O228 O 0.11954 0.36397 0.21078 0.0
O229 O 0.16248 0.39195 0.2023 0.0
C230 C 0.14501 0.378 0.22172 0.0
C231 C 0.22963 0.4089 0.15764 0.0
C232 C 0.12341 0.44841 0.16598 0.0
C233 C 0.14579 0.37478 0.10204 0.0
O234 O 0.16186 0.39984 0.10805 0.0
O235 O 0.1334 0.3597 0.12413 0.0
O236 O 0.22038 0.43223 0.14328 0.0
O237 O 0.20913 0.39021 0.16951 0.0
O238 O 0.12562 0.60741 0.80151 0.0
Cd239 Cd 0.12857 0.5904 0.84498 0.0
Cd240 Cd 0.15115 0.64952 0.85835 0.0
O241 O 0.13744 0.6571 0.81172 0.0
O242 O 0.10774 0.54776 0.8427 0.0
O243 O 0.09568 0.58311 0.87635 0.0
C244 C 0.0931 0.55482 0.86678 0.0
C245 C 0.13319 0.65828 0.90903 0.0
C246 C 0.13088 0.63483 0.79224 0.0
C247 C 0.19608 0.60107 0.86021 0.0
O248 O 0.19285 0.62986 0.85908 0.0
O249 O 0.17286 0.58155 0.85784 0.0
O250 O 0.15005 0.67957 0.89569 0.0
O251 O 0.12414 0.63419 0.8925 0.0
O252 O 0.87306 0.66632 0.45368 0.0
Cd253 Cd 0.88911 0.62374 0.45357 0.0
Cd254 Cd 0.93935 0.6527 0.44717 0.0
O255 O 0.91786 0.68582 0.47278 0.0
O256 O 0.86831 0.5988 0.48837 0.0
O257 O 0.91476 0.62261 0.49294 0.0
C258 C 0.89203 0.60772 0.50581 0.0
C259 C 0.97882 0.61985 0.45016 0.0
C260 C 0.8894 0.68883 0.46618 0.0
C261 C 0.91541 0.63192 0.38971 0.0
O262 O 0.92893 0.65585 0.4025 0.0
O263 O 0.90125 0.61166 0.40659 0.0
O264 O 0.98485 0.64955 0.45125 0.0
O265 O 0.95044 0.60908 0.45203 0.0
O266 O 0.91543 0.46191 0.75016 0.0
Cd267 Cd 0.9047 0.48089 0.79108 0.0
Cd268 Cd 0.9044 0.41809 0.81097 0.0
O269 O 0.91064 0.41219 0.76157 0.0
O270 O 0.92488 0.52193 0.80518 0.0
O271 O 0.92964 0.47767 0.82827 0.0
C272 C 0.93394 0.50729 0.82875 0.0
C273 C 0.92829 0.40039 0.85697 0.0
C274 C 0.91413 0.43359 0.74167 0.0
C275 C 0.84823 0.45904 0.8183 0.0
O276 O 0.86334 0.43592 0.82477 0.0
O277 O 0.85912 0.47949 0.80062 0.0
O278 O 0.90699 0.38327 0.84219 0.0
O279 O 0.93943 0.42439 0.84315 0.0
O280 O 0.14184 0.41216 0.47359 0.0
Cd281 Cd 0.12697 0.38841 0.43543 0.0
Cd282 Cd 0.16473 0.4224 0.40427 0.0
O283 O 0.18612 0.4211 0.45051 0.0
O284 O 0.11571 0.34383 0.44317 0.0
O285 O 0.15937 0.36127 0.4221 0.0
C286 C 0.14209 0.33838 0.4318 0.0
C287 C 0.16912 0.40076 0.3533 0.0
C288 C 0.17052 0.42009 0.47527 0.0
C289 C 0.10324 0.43682 0.39623 0.0
O290 O 0.12966 0.45114 0.40027 0.0
O291 O 0.0986 0.40918 0.405 0.0
O292 O 0.18754 0.42384 0.36338 0.0
O293 O 0.15128 0.38767 0.37301 0.0
O294 O 0.89529 0.61307 0.24223 0.0
Cd295 Cd 0.89375 0.60937 0.19619 0.0
Cd296 Cd 0.92609 0.66285 0.19419 0.0
O297 O 0.93562 0.64716 0.24029 0.0
O298 O 0.88706 0.5658 0.17955 0.0
O299 O 0.9326 0.5923 0.18071 0.0
C300 C 0.91595 0.56758 0.17268 0.0
C301 C 0.94419 0.66004 0.14259 0.0
C302 C 0.91722 0.62924 0.25589 0.0
C303 C 0.86356 0.66781 0.17856 0.0
O304 O 0.88563 0.68295 0.19302 0.0
O305 O 0.86453 0.63878 0.17347 0.0
O306 O 0.95509 0.68216 0.16106 0.0
O307 O 0.92557 0.63928 0.15392 0.0
O308 O 0.95067 0.38614 0.49504 0.0
Cd309 Cd 0.97807 0.38686 0.53359 0.0
Cd310 Cd 0.93764 0.42655 0.55796 0.0
O311 O 0.91932 0.42085 0.51098 0.0
O312 O 1.00151 0.34896 0.53594 0.0
O313 O 0.96765 0.36232 0.56989 0.0
C314 C 0.98811 0.34404 0.56153 0.0
C315 C 0.91696 0.42014 0.60796 0.0
C316 C 0.92864 0.40311 0.48961 0.0
C317 C 1.00605 0.44724 0.55667 0.0
O318 O 0.97916 0.4529 0.56504 0.0
O319 O 1.00997 0.42304 0.54094 0.0
O320 O 0.91113 0.44347 0.59153 0.0
O321 O 0.93036 0.3983 0.59442 0.0
O322 O 0.10769 0.65975 0.54364 0.0
Cd323 Cd 0.0877 0.66867 0.58418 0.0
Cd324 Cd 0.12813 0.6295 0.60696 0.0
O325 O 0.14713 0.63568 0.56169 0.0
O326 O 0.06533 0.707 0.58056 0.0
O327 O 0.10697 0.70322 0.61017 0.0
C328 C 0.08533 0.71948 0.60029 0.0
C329 C 0.14246 0.6411 0.65912 0.0
C330 C 0.13287 0.6474 0.53916 0.0
C331 C 0.06391 0.60904 0.61282 0.0
O332 O 0.09024 0.59864 0.60982 0.0
O333 O 0.05942 0.63637 0.60517 0.0
O334 O 0.15406 0.61888 0.64404 0.0
O335 O 0.12685 0.65965 0.64344 0.0
O336 O 0.91758 0.89719 0.65597 0.0
Cd337 Cd 0.87549 0.87827 0.64096 0.0
Cd338 Cd 0.8571 0.89254 0.69589 0.0
O339 O 0.90104 0.91984 0.69737 0.0
O340 O 0.87971 0.87541 0.59575 0.0
O341 O 0.84777 0.90561 0.61836 0.0
C342 C 0.85957 0.8957 0.59373 0.0
C343 C 0.803 0.89896 0.68668 0.0
C344 C 0.92307 0.91466 0.67929 0.0
C345 C 0.86338 0.82723 0.68508 0.0
O346 O 0.86438 0.84798 0.70609 0.0
O347 O 0.86296 0.83445 0.65705 0.0
O348 O 0.81628 0.90732 0.71265 0.0
O349 O 0.82062 0.88952 0.66577 0.0
O350 O 0.63653 0.50329 0.12088 0.0
Cd351 Cd 0.65204 0.50357 0.16581 0.0
Cd352 Cd 0.707 0.49498 0.12501 0.0
O353 O 0.67955 0.53033 0.11586 0.0
O354 O 0.63445 0.53881 0.19004 0.0
O355 O 0.68297 0.54 0.17584 0.0
C356 C 0.66077 0.55453 0.1873 0.0
C357 C 0.75318 0.49362 0.10035 0.0
C358 C 0.65412 0.51955 0.104 0.0
C359 C 0.67578 0.44005 0.16117 0.0
O360 O 0.69124 0.45132 0.13922 0.0
O361 O 0.66117 0.45786 0.17869 0.0
O362 O 0.72731 0.48653 0.08595 0.0
O363 O 0.75266 0.50313 0.12848 0.0
O364 O 0.17813 0.13609 0.65909 0.0
Cd365 Cd 0.20465 0.15605 0.62637 0.0
Cd366 Cd 0.23704 0.18582 0.67071 0.0
O367 O 0.19468 0.17171 0.69325 0.0
O368 O 0.18887 0.13177 0.58965 0.0
O369 O 0.2385 0.13767 0.60277 0.0
C370 C 0.217 0.12679 0.58378 0.0
C371 C 0.29134 0.18073 0.67718 0.0
C372 C 0.17351 0.15147 0.68328 0.0
C373 C 0.20641 0.22498 0.62782 0.0
O374 O 0.22872 0.22434 0.64697 0.0
O375 O 0.19246 0.2 0.61757 0.0
O376 O 0.27665 0.19788 0.69555 0.0
O377 O 0.2747 0.16387 0.65729 0.0
O378 O 0.44899 0.5952 0.10633 0.0
Cd379 Cd 0.45616 0.60283 0.15275 0.0
Cd380 Cd 0.38949 0.61104 0.14211 0.0
O381 O 0.40458 0.57332 0.11922 0.0
O382 O 0.48405 0.57027 0.16831 0.0
O383 O 0.43391 0.56842 0.17618 0.0
C384 C 0.45946 0.55477 0.17746 0.0
C385 C 0.33672 0.61446 0.13351 0.0
C386 C 0.42499 0.57776 0.09935 0.0
C387 C 0.43713 0.66782 0.15627 0.0
O388 O 0.4117 0.65501 0.14565 0.0
O389 O 0.45841 0.65098 0.1656 0.0
O390 O 0.35647 0.62153 0.11301 0.0
O391 O 0.34676 0.60493 0.15927 0.0
O392 O 0.91146 0.14995 0.41666 0.0
Cd393 Cd 0.95786 0.16268 0.41471 0.0
Cd394 Cd 0.96067 0.10477 0.39776 0.0
O395 O 0.91252 0.1097 0.38534 0.0
O396 O 0.9603 0.20885 0.41659 0.0
O397 O 0.97236 0.18183 0.3758 0.0
C398 C 0.96872 0.20828 0.38859 0.0
C399 C 1.01078 0.10653 0.37554 0.0
C400 C 0.89693 0.12887 0.40031 0.0
C401 C 0.98181 0.12009 0.45934 0.0
O402 O 0.96625 0.0991 0.44372 0.0
O403 O 0.98609 0.14718 0.44901 0.0
O404 O 0.99393 0.08067 0.37649 0.0
O405 O 0.99772 0.13108 0.38355 0.0
O406 O 0.42104 0.39157 0.913 0.0
Cd407 Cd 0.40183 0.35899 0.94052 0.0
Cd408 Cd 0.3783 0.33215 0.88965 0.0
O409 O 0.39778 0.37445 0.87011 0.0
O410 O 0.42364 0.37351 0.97895 0.0
O411 O 0.42402 0.3255 0.96132 0.0
C412 C 0.4325 0.34618 0.982 0.0
C413 C 0.38494 0.27787 0.8854 0.0
C414 C 0.41375 0.39594 0.88541 0.0
C415 C 0.33319 0.356 0.93292 0.0
O416 O 0.33677 0.34041 0.90856 0.0
O417 O 0.35639 0.36595 0.94946 0.0
O418 O 0.3703 0.29196 0.86448 0.0
O419 O 0.3986 0.29506 0.90696 0.0
O420 O 0.1193 0.89254 0.42553 0.0
Cd421 Cd 0.07332 0.88079 0.43048 0.0
Cd422 Cd 0.06672 0.9289 0.3964 0.0
O423 O 0.11239 0.91698 0.38283 0.0
O424 O 0.07157 0.83744 0.445 0.0
O425 O 0.05494 0.85021 0.39925 0.0
C426 C 0.06044 0.82909 0.41826 0.0
C427 C 1.01368 0.91809 0.37975 0.0
C428 C 0.13059 0.90457 0.40185 0.0
C429 C 0.0566 0.93751 0.46087 0.0
O430 O 0.069 0.95098 0.43836 0.0
O431 O 0.04978 0.90848 0.4594 0.0
O432 O 1.0293 0.94271 0.37092 0.0
O433 O 1.02881 0.89912 0.39513 0.0
O434 O 0.63778 0.65744 0.92356 0.0
Cd435 Cd 0.65884 0.69319 0.94876 0.0
Cd436 Cd 0.67756 0.71562 0.89541 0.0
O437 O 0.65533 0.67157 0.87882 0.0
O438 O 0.64094 0.68738 0.98982 0.0
O439 O 0.63931 0.7307 0.9648 0.0
C440 C 0.63362 0.71553 0.98909 0.0
C441 C 0.67108 0.76997 0.89279 0.0
C442 C 0.64164 0.6511 0.89559 0.0
C443 C 0.72684 0.69664 0.93802 0.0
O444 O 0.72074 0.7087 0.91273 0.0
O445 O 0.7054 0.68877 0.9561 0.0
O446 O 0.68353 0.75524 0.87078 0.0
O447 O 0.65913 0.75334 0.91413 0.0
O448 O 0.6621 0.96739 0.85736 0.0
Cd449 Cd 0.67825 0.96028 0.90046 0.0
Cd450 Cd 0.61998 0.96908 0.91699 0.0
O451 O 0.61354 0.95933 0.87071 0.0
O452 O 0.70506 0.92311 0.89678 0.0
O453 O 0.65868 0.91987 0.91604 0.0
C454 C 0.6819 0.9058 0.90649 0.0
C455 C 0.58362 0.94126 0.94553 0.0
C456 C 0.63364 0.96246 0.85022 0.0
C457 C 0.66788 1.022 0.93222 0.0
O458 O 0.63954 1.01202 0.93036 0.0
O459 O 0.6888 1.00392 0.92467 0.0
O460 O 0.57676 0.96583 0.93178 0.0
O461 O 0.61201 0.93446 0.94581 0.0
O462 O 0.74515 0.11015 0.38067 0.0
Cd463 Cd 0.69853 0.11361 0.37227 0.0
Cd464 Cd 0.69769 0.13227 0.43023 0.0
O465 O 0.74615 0.14211 0.42067 0.0
O466 O 0.6882 0.11544 0.32735 0.0
O467 O 0.68819 0.15568 0.35915 0.0
C468 C 0.68328 0.14412 0.33207 0.0
C469 C 0.65021 0.15718 0.43187 0.0
C470 C 0.76065 0.1267 0.40081 0.0
C471 C 0.6675 0.07387 0.42044 0.0
O472 O 0.68672 0.0871 0.43962 0.0
O473 O 0.66589 0.08356 0.39326 0.0
O474 O 0.66822 0.15714 0.45588 0.0
O475 O 0.66089 0.14671 0.40693 0.0
O476 O 0.40847 0.08345 0.84067 0.0
Cd477 Cd 0.38575 0.08817 0.88077 0.0
Cd478 Cd 0.44109 0.0793 0.9083 0.0
O479 O 0.45404 0.08852 0.86429 0.0
O480 O 0.35802 0.12418 0.87481 0.0
O481 O 0.40105 0.1285 0.90254 0.0
C482 C 0.37875 0.14194 0.88979 0.0
C483 C 0.47428 0.1087 0.94134 0.0
C484 C 0.43771 0.08753 0.83986 0.0
C485 C 0.39185 1.0265 0.91263 0.0
O486 O 0.41986 0.03671 0.91745 0.0
O487 O 0.37261 0.04415 0.90059 0.0
O488 O 0.48207 0.08286 0.9299 0.0
O489 O 0.44599 0.11534 0.93769 0.0
O490 O 0.27839 0.92493 0.37401 0.0
Cd491 Cd 0.32428 0.93753 0.36774 0.0
Cd492 Cd 0.33224 0.9049 0.42415 0.0
O493 O 0.2832 0.89463 0.41372 0.0
O494 O 0.33487 0.94485 0.32344 0.0
O495 O 0.35016 0.90619 0.35023 0.0
C496 C 0.35072 0.92087 0.32521 0.0
C497 C 0.37925 0.87898 0.42464 0.0
C498 C 0.26609 0.90715 0.39367 0.0
C499 C 0.34885 0.97287 0.42511 0.0
O500 O 0.34309 0.94894 0.4406 0.0
O501 O 0.3446 0.97237 0.39626 0.0
O502 O 0.3623 0.87891 0.44853 0.0
O503 O 0.36759 0.88994 0.40038 0.0
O504 O 0.64548 0.2934 0.18709 0.0
Cd505 Cd 0.62874 0.24879 0.19375 0.0
Cd506 Cd 0.66779 0.23684 0.14084 0.0
O507 O 0.67844 0.28621 0.14988 0.0
O508 O 0.61985 0.23856 0.23785 0.0
O509 O 0.65734 0.22053 0.2111 0.0
C510 C 0.64251 0.22093 0.23601 0.0
C511 C 0.69452 0.19013 0.14246 0.0
C512 C 0.66534 0.30438 0.16857 0.0
C513 C 0.59805 0.22218 0.13548 0.0
O514 O 0.6241 0.22489 0.12279 0.0
O515 O 0.59528 0.22964 0.16347 0.0
O516 O 0.69438 0.20602 0.1179 0.0
O517 O 0.68359 0.20281 0.16621 0.0
O518 O 0.53339 0.14981 0.64835 0.0
Cd519 Cd 0.49123 0.1279 0.65819 0.0
Cd520 Cd 0.48131 0.18362 0.68477 0.0
O521 O 0.52514 0.19696 0.66477 0.0
O522 O 0.48844 0.08634 0.6378 0.0
O523 O 0.45487 0.12122 0.62928 0.0
C524 C 0.46213 0.09309 0.62653 0.0
C525 C 0.42749 0.18933 0.67481 0.0
C526 C 0.54311 0.17797 0.65288 0.0
C527 C 0.48296 0.13268 0.72671 0.0
O528 O 0.48612 0.16189 0.72541 0.0
O529 O 0.48265 0.11596 0.70257 0.0
O530 O 0.44468 0.21075 0.68945 0.0
O531 O 0.44156 0.167 0.66294 0.0
O532 O 0.46182 0.81845 0.17888 0.0
Cd533 Cd 0.45885 0.86484 0.18915 0.0
Cd534 Cd 0.44279 0.86832 0.1309 0.0
O535 O 0.4313 0.81971 0.13801 0.0
O536 O 0.45559 0.87284 0.23435 0.0
O537 O 0.41667 0.87607 0.20143 0.0
C538 C 0.42731 0.87905 0.22904 0.0
C539 C 0.41862 0.9161 0.12898 0.0
C540 C 0.44571 0.80409 0.15767 0.0
C541 C 0.50136 0.89718 0.14419 0.0
O542 O 0.4887 0.87892 0.12384 0.0
O543 O 0.49041 0.89787 0.17091 0.0
O544 O 0.41981 0.89864 0.10471 0.0
O545 O 0.42738 0.90467 0.15423 0.0
O546 O 0.56171 0.93172 0.64074 0.0
Cd547 Cd 0.60387 0.95068 0.65671 0.0
Cd548 Cd 0.61318 0.89241 0.67235 0.0
O549 O 0.57078 0.88275 0.64586 0.0
O550 O 0.60788 0.99458 0.64407 0.0
O551 O 0.63985 0.96002 0.62962 0.0
C552 C 0.63299 0.98834 0.63086 0.0
C553 C 0.66808 0.89155 0.66755 0.0
C554 C 0.5525 0.90329 0.63795 0.0
C555 C 0.60779 0.93397 0.72366 0.0
O556 O 0.60402 0.90554 0.71599 0.0
O557 O 0.61098 0.9545 0.70357 0.0
O558 O 0.65108 0.86627 0.67178 0.0
O559 O 0.65371 0.91596 0.6628 0.0
O560 O 0.9126 0.62212 1.00851 0.0
Cd561 Cd 0.89674 0.61166 0.9664 0.0
Cd562 Cd 0.91427 0.66311 0.94493 0.0
O563 O 0.94001 0.6615 0.98908 0.0
O564 O 0.89873 0.56797 0.95121 0.0
O565 O 0.93359 0.60586 0.9406 0.0
C566 C 0.92314 0.57747 0.93671 0.0
C567 C 0.91498 0.65069 0.89041 0.0
C568 C 0.93275 0.64465 1.0121 0.0
C569 C 0.85095 0.66091 0.95413 0.0
O570 O 0.87382 0.68086 0.95324 0.0
O571 O 0.85528 0.63213 0.95547 0.0
O572 O 0.93197 0.67391 0.90244 0.0
O573 O 0.89931 0.63378 0.90906 0.0
O574 O 0.94316 0.44125 0.99446 0.0
Cd575 Cd 0.92446 0.46674 0.02829 0.0
Cd576 Cd 0.91316 0.40591 0.05605 0.0
O577 O 0.92551 0.39461 1.00918 0.0
O578 O 0.94465 0.50641 0.04702 0.0
O579 O 0.93683 0.46216 0.07054 0.0
C580 C 0.94419 0.49131 0.07211 0.0
C581 C 0.92588 0.39053 0.10703 0.0
C582 C 0.93755 0.41243 0.98874 0.0
C583 C 0.86287 0.45325 0.04691 0.0
O584 O 0.87455 0.43104 0.06032 0.0
O585 O 0.8777 0.46849 0.02699 0.0
O586 O 0.90614 0.3738 0.08989 0.0
O587 O 0.94205 0.41207 0.09378 0.0
O588 O 0.12696 0.38825 0.70652 0.0
Cd589 Cd 0.12661 0.38151 0.66051 0.0
Cd590 Cd 0.16279 0.43228 0.65637 0.0
O591 O 0.17064 0.4175 0.70345 0.0
O592 O 0.11917 0.33708 0.64654 0.0
O593 O 0.16538 0.36241 0.64963 0.0
C594 C 0.14868 0.33735 0.64285 0.0
C595 C 0.18341 0.4271 0.60579 0.0
C596 C 0.15073 0.40194 0.71968 0.0
C597 C 0.10322 0.44014 0.63508 0.0
O598 O 0.12393 0.45553 0.6511 0.0
O599 O 0.10308 0.41081 0.63271 0.0
O600 O 0.1939 0.44944 0.62421 0.0
O601 O 0.16416 0.40675 0.61692 0.0
O602 O 0.13195 0.61891 0.048 0.0
Cd603 Cd 0.14281 0.60143 0.08989 0.0
Cd604 Cd 0.15328 0.66129 0.10717 0.0
O605 O 0.13353 0.66811 0.06234 0.0
O606 O 0.13166 0.55604 0.0866 0.0
O607 O 0.11067 0.5868 0.11978 0.0
C608 C 0.11402 0.55933 0.10949 0.0
C609 C 0.13934 0.66001 0.15972 0.0
C610 C 0.12929 0.64694 0.04134 0.0
C611 C 0.20824 0.62797 0.10665 0.0
O612 O 0.19913 0.65495 0.10456 0.0
O613 O 0.18912 0.60431 0.1041 0.0
O614 O 0.1455 0.68611 0.14662 0.0
O615 O 0.13774 0.63561 0.14231 0.0
O616 O 0.86882 0.67869 0.69802 0.0
Cd617 Cd 0.88353 0.63542 0.70449 0.0
Cd618 Cd 0.93102 0.65825 0.68432 0.0
O619 O 0.91688 0.6971 0.70693 0.0
O620 O 0.87021 0.61856 0.74626 0.0
O621 O 0.91632 0.64124 0.73906 0.0
C622 C 0.8965 0.6299 0.75794 0.0
C623 C 0.97377 0.62993 0.68729 0.0
C624 C 0.88824 0.70151 0.70411 0.0
C625 C 0.89624 0.62519 0.6374 0.0
O626 O 0.91174 0.65083 0.64209 0.0
O627 O 0.88567 0.61051 0.66059 0.0
O628 O 0.97621 0.65855 0.67964 0.0
O629 O 0.94764 0.61838 0.69688 0.0
O630 O 0.09735 0.42173 0.9149 0.0
Cd631 Cd 0.12475 0.3861 0.91741 0.0
Cd632 Cd 0.17009 0.42618 0.91236 0.0
O633 O 0.13688 0.45203 0.93294 0.0
O634 O 0.11184 0.35517 0.95158 0.0
O635 O 0.148 0.39291 0.95834 0.0
C636 C 0.13166 0.37043 0.96992 0.0
C637 C 0.21526 0.40577 0.92993 0.0
C638 C 0.10826 0.44802 0.92502 0.0
C639 C 0.15429 0.3994 0.85388 0.0
O640 O 0.16556 0.42442 0.86657 0.0
O641 O 0.14122 0.37825 0.87062 0.0
O642 O 0.21416 0.43527 0.92717 0.0
O643 O 0.1905 0.38825 0.92387 0.0
O644 O 0.0989 0.66083 0.29968 0.0
Cd645 Cd 0.08031 0.66264 0.34191 0.0
Cd646 Cd 0.12819 0.6238 0.35809 0.0
O647 O 0.13935 0.6344 0.31094 0.0
O648 O 0.05227 0.6971 0.3437 0.0
O649 O 0.09582 0.69616 0.371 0.0
C650 C 0.07115 0.70964 0.36439 0.0
C651 C 0.14784 0.63902 0.40788 0.0
C652 C 0.12337 0.64894 0.29154 0.0
C653 C 0.06437 0.59979 0.36943 0.0
O654 O 0.09181 0.59212 0.36627 0.0
O655 O 0.05663 0.62587 0.36086 0.0
O656 O 0.15909 0.61639 0.39314 0.0
O657 O 0.12953 0.65536 0.39262 0.0
O658 O 0.95341 0.36785 0.24858 0.0
Cd659 Cd 0.97369 0.36393 0.29093 0.0
Cd660 Cd 0.93701 0.41351 0.30795 0.0
O661 O 0.92331 0.4055 0.2601 0.0
O662 O 0.99128 0.32253 0.29479 0.0
O663 O 0.9529 0.33804 0.32216 0.0
C664 C 0.97196 0.31746 0.31636 0.0
C665 C 0.91552 0.40681 0.3575 0.0
C666 C 0.93378 0.38655 0.24043 0.0
C667 C 1.00548 0.42504 0.31441 0.0
O668 O 0.97957 0.43677 0.31501 0.0
O669 O 1.00743 0.39705 0.30594 0.0
O670 O 0.9108 0.4312 0.34216 0.0
O671 O 0.92826 0.38507 0.34307 0.0
C672 C 0.178 0.30049 0.41231 0.0
C673 C 0.15279 0.307 0.43038 0.0
H674 H 0.20759 0.26631 0.3967 0.0
C675 C 0.1385 0.2835 0.44759 0.0
H676 H 0.18948 0.31824 0.39879 0.0
C677 C 0.14919 0.254 0.44676 0.0
C678 C 0.17412 0.24732 0.42838 0.0
H679 H 0.1192 0.28791 0.46188 0.0
H680 H 0.1375 0.23629 0.46016 0.0
C681 C 0.18844 0.27083 0.41115 0.0
C682 C 0.26298 0.55624 0.88579 0.0
C683 C 0.28763 0.57194 0.87104 0.0
H684 H 0.21414 0.55298 0.89342 0.0
C685 C 0.28149 0.5958 0.85121 0.0
H686 H 0.26717 0.53793 0.90134 0.0
C687 C 0.25161 0.60511 0.84769 0.0
C688 C 0.22719 0.59014 0.86316 0.0
H689 H 0.30005 0.60858 0.83979 0.0
H690 H 0.24766 0.62428 0.8331 0.0
C691 C 0.23281 0.56496 0.88144 0.0
C692 C 0.88383 0.77493 0.47601 0.0
C693 C 0.85582 0.77869 0.46015 0.0
H694 H 0.91662 0.74336 0.4905 0.0
C695 C 0.83729 0.75248 0.45005 0.0
H696 H 0.89855 0.79481 0.48418 0.0
C697 C 0.84737 0.7231 0.45415 0.0
C698 C 0.87647 0.71934 0.46794 0.0
H699 H 0.81545 0.75469 0.43809 0.0
H700 H 0.83297 0.70344 0.44498 0.0
C701 C 0.89419 0.74549 0.47969 0.0
C702 C 0.81713 0.45484 0.86502 0.0
C703 C 0.81971 0.46398 0.83465 0.0
H704 H 0.78922 0.45249 0.90455 0.0
C705 C 0.79566 0.47907 0.82095 0.0
H706 H 0.83564 0.44366 0.87629 0.0
C707 C 0.76885 0.48372 0.83702 0.0
C708 C 0.76621 0.47431 0.86734 0.0
H709 H 0.7973 0.4866 0.79765 0.0
H710 H 0.75008 0.49441 0.8257 0.0
C711 C 0.79081 0.46032 0.88135 0.0
C712 C 0.06854 0.77265 0.59363 0.0
C713 C 0.08394 0.75163 0.6111 0.0
H714 H 0.05871 0.81979 0.58816 0.0
C715 C 0.09903 0.76181 0.63859 0.0
H716 H 0.05663 0.76532 0.5724 0.0
C717 C 0.09969 0.79277 0.64792 0.0
C718 C 0.08579 0.81417 0.6296 0.0
H719 H 0.11077 0.74593 0.65266 0.0
H720 H 0.11234 0.80017 0.66874 0.0
C721 C 0.06971 0.80376 0.60266 0.0
C722 C 0.79297 0.68668 0.13255 0.0
C723 C 0.78562 0.71452 0.1467 0.0
H724 H 0.82298 0.64971 0.13201 0.0
C725 C 0.80517 0.72779 0.17018 0.0
H726 H 0.77819 0.67569 0.11456 0.0
C727 C 0.83096 0.71294 0.18003 0.0
C728 C 0.83729 0.68425 0.16698 0.0
H729 H 0.79998 0.74911 0.18162 0.0
H730 H 0.84531 0.72339 0.19861 0.0
C731 C 0.81838 0.67154 0.14279 0.0
C732 C 1.01973 0.27012 0.58762 0.0
C733 C 1.00723 0.26736 0.6168 0.0
H734 H 1.02339 0.29653 0.54717 0.0
C735 C 0.99103 0.29148 0.6288 0.0
H736 H 0.03238 0.25186 0.57783 0.0
C737 C 0.98537 0.31677 0.61099 0.0
C738 C 0.99615 0.31852 0.58105 0.0
H739 H 0.98095 0.28989 0.65111 0.0
H740 H 0.97175 0.33449 0.62037 0.0
C741 C 1.01437 0.29555 0.56996 0.0
C742 C 0.30318 0.36968 0.17324 0.0
C743 C 0.32309 0.38422 0.15237 0.0
H744 H 0.25767 0.36625 0.19143 0.0
C745 C 0.31255 0.40809 0.13474 0.0
H746 H 0.31084 0.35141 0.18729 0.0
C747 C 0.28257 0.41699 0.13754 0.0
C748 C 0.26232 0.40193 0.15772 0.0
H749 H 0.32751 0.42008 0.11876 0.0
H750 H 0.27505 0.43512 0.12322 0.0
C751 C 0.27289 0.37831 0.17572 0.0
C752 C 0.46656 0.10357 0.26321 0.0
C753 C 0.48646 0.08476 0.24786 0.0
H754 H 0.45028 0.11906 0.30607 0.0
C755 C 0.50559 0.06646 0.26487 0.0
H756 H 0.45159 0.118 0.25074 0.0
C757 C 0.50466 0.06691 0.2967 0.0
C758 C 0.48483 0.08589 0.312 0.0
H759 H 0.52112 0.05169 0.25361 0.0
H760 H 0.51961 0.05257 0.3093 0.0
C761 C 0.46585 0.10423 0.29494 0.0
C762 C 0.41601 0.902 0.76629 0.0
C763 C 0.3937 0.886 0.7469 0.0
H764 H 0.43937 0.90364 0.8101 0.0
C765 C 0.3787 0.85827 0.75647 0.0
H766 H 0.42804 0.92332 0.75932 0.0
C767 C 0.38486 0.84737 0.78531 0.0
C768 C 0.40656 0.86362 0.80498 0.0
H769 H 0.36142 0.84537 0.74205 0.0
H770 H 0.37223 0.8264 0.79242 0.0
C771 C 0.42266 0.89065 0.79511 0.0
C772 C 0.59044 0.99606 0.27355 0.0
C773 C 0.61793 0.98547 0.26238 0.0
H774 H 0.55354 0.98915 0.30449 0.0
C775 C 0.62927 0.9587 0.27438 0.0
H776 H 0.58086 1.01637 0.26445 0.0
C777 C 0.6134 0.94288 0.29724 0.0
C778 C 0.58583 0.95345 0.30828 0.0
H779 H 0.65018 0.94975 0.2659 0.0
H780 H 0.62292 0.92261 0.30648 0.0
C781 C 0.57448 0.98014 0.29615 0.0
C782 C 0.70409 0.20408 0.81223 0.0
C783 C 0.67823 0.18642 0.82268 0.0
H784 H 0.73526 0.21245 0.77596 0.0
C785 C 0.66415 0.16238 0.80406 0.0
H786 H 0.71533 0.22285 0.82609 0.0
C787 C 0.67607 0.156 0.77541 0.0
C788 C 0.70167 0.1741 0.76492 0.0
H789 H 0.64428 0.14837 0.81176 0.0
H790 H 0.6649 0.13745 0.76124 0.0
C791 C 0.7155 0.19818 0.78354 0.0
C792 C 0.85039 0.7709 0.67566 0.0
C793 C 0.86621 0.79486 0.69301 0.0
H794 H 0.84428 0.72217 0.66651 0.0
C795 C 0.8872 0.7877 0.71622 0.0
H796 H 0.83414 0.77594 0.65764 0.0
C797 C 0.89372 0.75709 0.72069 0.0
C798 C 0.87852 0.73318 0.70273 0.0
H799 H 0.89986 0.8059 0.72972 0.0
H800 H 0.91114 0.75215 0.73762 0.0
C801 C 0.8561 0.74022 0.68085 0.0
C802 C 0.83249 0.46655 0.09148 0.0
C803 C 0.83503 0.46514 0.05965 0.0
H804 H 0.80504 0.47797 0.12926 0.0
C805 C 0.81154 0.47577 0.04106 0.0
H806 H 0.85055 0.45885 0.1063 0.0
C807 C 0.78498 0.48611 0.05429 0.0
C808 C 0.78236 0.48701 0.0862 0.0
H809 H 0.81328 0.47512 1.01647 0.0
H810 H 0.76636 0.49296 0.03963 0.0
C811 C 0.80663 0.47784 0.10465 0.0
C812 C 0.21035 0.28234 0.62936 0.0
C813 C 0.19255 0.25449 0.62334 0.0
H814 H 0.21033 0.33052 0.63989 0.0
C815 C 0.1603 0.25488 0.61935 0.0
H816 H 0.23524 0.28268 0.63244 0.0
C817 C 0.14587 0.28221 0.6243 0.0
C818 C 0.16356 0.30955 0.63285 0.0
H819 H 0.14597 0.23367 0.61486 0.0
H820 H 0.12085 0.28157 0.62291 0.0
C821 C 0.196 0.30968 0.63385 0.0
C822 C 0.26389 0.64476 0.10165 0.0
C823 C 0.24104 0.62412 0.11334 0.0
H824 H 0.3123 0.65738 0.09862 0.0
C825 C 0.24974 0.60037 0.13218 0.0
H826 H 0.25769 0.66325 0.0871 0.0
C827 C 0.28093 0.59756 0.13953 0.0
C828 C 0.30376 0.6179 0.12734 0.0
H829 H 0.2324 0.58435 0.14166 0.0
H830 H 0.28722 0.5792 0.15419 0.0
C831 C 0.29503 0.64138 0.10822 0.0
C832 C 0.98604 0.23712 0.34252 0.0
C833 C 0.97171 0.23677 0.37094 0.0
H834 H 0.99762 0.26315 0.30292 0.0
C835 C 0.95824 0.2633 0.38145 0.0
H836 H 0.99662 0.21694 0.33388 0.0
C837 C 0.95827 0.28937 0.36353 0.0
C838 C 0.97223 0.28964 0.33495 0.0
H839 H 0.94689 0.26368 0.40316 0.0
H840 H 0.94737 0.30935 0.37213 0.0
C841 C 0.98656 0.26347 0.32479 0.0
C842 C 0.27085 0.40981 0.94767 0.0
C843 C 0.24455 0.39178 0.93665 0.0
H844 H 0.31985 0.41199 0.95614 0.0
C845 C 0.2471 0.36045 0.92901 0.0
H846 H 0.26947 0.43395 0.95389 0.0
C847 C 0.27586 0.3481 0.92976 0.0
C848 C 0.30245 0.36661 0.93897 0.0
H849 H 0.22722 0.3459 0.92054 0.0
H850 H 0.27753 0.32448 0.92181 0.0
C851 C 0.29958 0.39718 0.94917 0.0
C852 C 0.04151 0.78753 0.3809 0.0
C853 C 0.05827 0.79661 0.40784 0.0
H854 H 0.03231 0.75251 0.34599 0.0
C855 C 0.07679 0.77568 0.42194 0.0
H856 H 1.02699 0.80328 0.36964 0.0
C857 C 0.08034 0.747 0.40808 0.0
C858 C 0.06499 0.73863 0.38022 0.0
H859 H 0.09005 0.78215 0.44265 0.0
H860 H 0.09575 0.73172 0.41879 0.0
C861 C 0.04464 0.7586 0.36731 0.0
C862 C 0.7945 0.65345 0.96436 0.0
C863 C 0.81937 0.67108 0.95199 0.0
H864 H 0.74552 0.6484 0.97039 0.0
C865 C 0.8138 0.69831 0.93686 0.0
H866 H 0.79826 0.63247 0.97631 0.0
C867 C 0.7837 0.7071 0.93302 0.0
C868 C 0.75876 0.68925 0.94495 0.0
H869 H 0.8326 0.7123 0.92707 0.0
H870 H 0.77988 0.72765 0.92037 0.0
C871 C 0.76444 0.6627 0.96121 0.0
C872 C 0.6018 0.93387 0.8093 0.0
C873 C 0.62436 0.95752 0.818 0.0
H874 H 0.57926 0.90732 0.77217 0.0
C875 C 0.6398 0.97462 0.79555 0.0
H876 H 0.58981 0.92022 0.82633 0.0
C877 C 0.63319 0.96782 0.76477 0.0
C878 C 0.61176 0.94316 0.75602 0.0
H879 H 0.6573 0.99294 0.80183 0.0
H880 H 0.64586 0.98095 0.74782 0.0
C881 C 0.5959 0.92639 0.77847 0.0
C882 C 0.6465 0.20869 0.29148 0.0
C883 C 0.65133 0.20086 0.26088 0.0
H884 H 0.65343 0.19696 0.33817 0.0
C885 C 0.66584 0.17376 0.25381 0.0
H886 H 0.63536 0.22943 0.29749 0.0
C887 C 0.67575 0.15499 0.27688 0.0
C888 C 0.67187 0.16329 0.30753 0.0
H889 H 0.66948 0.16699 0.23032 0.0
H890 H 0.68698 0.13434 0.27073 0.0
C891 C 0.65701 0.19021 0.31466 0.0
C892 C 0.45231 0.09331 0.7558 0.0
C893 C 0.47493 0.11823 0.75569 0.0
H894 H 0.42223 0.06429 0.78285 0.0
C895 C 0.48719 0.13092 0.78346 0.0
H896 H 0.44229 0.08333 0.7346 0.0
C897 C 0.47638 0.11937 0.81098 0.0
C898 C 0.45242 0.09572 0.81105 0.0
H899 H 0.50457 0.15018 0.78388 0.0
H900 H 0.48554 0.13014 0.83217 0.0
C901 C 0.44075 0.08248 0.78329 0.0
C902 C 0.38202 0.90673 0.24656 0.0
C903 C 0.40772 0.88994 0.25354 0.0
H904 H 0.34399 0.93032 0.26388 0.0
C905 C 0.41463 0.88394 0.28409 0.0
H906 H 0.37634 0.91194 0.22315 0.0
C907 C 0.39587 0.89398 0.30716 0.0
C908 C 0.37019 0.91077 0.30027 0.0
H909 H 0.4343 0.87115 0.29014 0.0
H910 H 0.40171 0.88887 0.33052 0.0
C911 C 0.3636 0.91739 0.26979 0.0
C912 C 0.20145 0.09473 0.53749 0.0
C913 C 0.22405 0.11394 0.55365 0.0
H914 H 0.18311 0.07934 0.49348 0.0
C915 C 0.24969 0.12674 0.53822 0.0
H916 H 0.18153 0.08451 0.54901 0.0
C917 C 0.25022 0.1243 0.50647 0.0
C918 C 0.22562 0.10827 0.49004 0.0
H919 H 0.26737 0.14169 0.55017 0.0
H920 H 0.26826 0.13741 0.49461 0.0
C921 C 0.20243 0.09161 0.50578 0.0
C922 C 0.37584 0.5564 0.02927 0.0
C923 C 0.39634 0.56404 1.00602 0.0
H924 H 0.36916 0.55365 0.07702 0.0
C925 C 0.42773 0.57165 1.01335 0.0
H926 H 0.35157 0.55028 0.02408 0.0
C927 C 0.43786 0.57438 0.0439 0.0
C928 C 0.41678 0.56886 0.06732 0.0
H929 H 0.44391 0.57773 0.99565 0.0
H930 H 0.46171 0.5823 0.04917 0.0
C931 C 0.38603 0.55836 0.0596 0.0
C932 C 0.86145 0.91756 0.5115 0.0
C933 C 0.82977 0.9178 0.50439 0.0
H934 H 0.89572 0.90932 0.54572 0.0
C935 C 0.80826 0.91476 0.52767 0.0
H936 H 0.8783 0.919 0.49364 0.0
C937 C 0.81827 0.90982 0.55754 0.0
C938 C 0.8497 0.90656 0.56397 0.0
H939 H 0.78368 0.91404 0.52238 0.0
H940 H 0.80125 0.90609 0.57501 0.0
C941 C 0.87134 0.91149 0.54106 0.0
C942 C 0.66762 0.47157 0.0347 0.0
C943 C 0.67436 0.49441 1.01336 0.0
H944 H 0.65392 0.46177 0.08014 0.0
C945 C 0.66981 0.52532 1.02064 0.0
H946 H 0.67061 0.44753 0.02922 0.0
C947 C 0.66082 0.53357 0.04995 0.0
C948 C 0.65495 0.51078 0.07163 0.0
H949 H 0.67468 0.54316 1.00424 0.0
H950 H 0.65967 0.55776 0.05609 0.0
C951 C 0.65748 0.47964 0.0635 0.0
C952 C 0.09661 0.97012 0.53058 0.0
C953 C 0.07792 0.95566 0.55242 0.0
H954 H 0.10316 0.97715 0.48314 0.0
C955 C 0.04763 0.94439 0.54435 0.0
H956 H 0.12015 0.97871 0.53649 0.0
C957 C 0.03825 0.94242 0.51368 0.0
C958 C 0.05889 0.95253 0.49123 0.0
H959 H 0.03301 0.93292 0.56096 0.0
H960 H 1.01653 0.92967 0.50732 0.0
C961 C 0.08684 0.96913 0.50005 0.0
C962 C 0.61178 0.71409 0.04082 0.0
C963 C 0.62546 0.73131 1.01739 0.0
H964 H 0.60782 0.70956 0.089 0.0
C965 C 0.63881 0.76124 0.02396 0.0
H966 H 0.60116 0.69104 0.03615 0.0
C967 C 0.64337 0.77146 0.05423 0.0
C968 C 0.63363 0.75225 0.07792 0.0
H969 H 0.64945 0.77499 1.00623 0.0
H970 H 0.65745 0.79275 0.05917 0.0
C971 C 0.61545 0.72479 0.07102 0.0
C972 C 0.97012 0.09719 0.50949 0.0
C973 C 0.99047 0.11493 0.49128 0.0
H974 H 0.95405 0.09018 0.5548 0.0
C975 C 1.01578 0.13236 0.50508 0.0
H976 H 0.95041 0.08358 0.49932 0.0
C977 C 1.01846 0.13511 0.53677 0.0
C978 C 0.99549 0.12106 0.55484 0.0
H979 H 0.03189 0.14601 0.49142 0.0
H980 H 0.03613 0.15145 0.54689 0.0
C981 C 0.97236 0.10064 0.54122 0.0
C982 C 0.43603 0.31292 0.02665 0.0
C983 C 0.44777 0.33857 1.01069 0.0
H984 H 0.42829 0.29429 0.07079 0.0
C985 C 0.46812 0.361 0.02566 0.0
H986 H 0.42018 0.29546 1.01552 0.0
C987 C 0.47345 0.35988 0.05709 0.0
C988 C 0.45773 0.33681 0.07374 0.0
H989 H 0.47744 0.38095 1.01362 0.0
H990 H 0.48655 0.37912 0.06868 0.0
C991 C 0.44063 0.31227 0.05821 0.0
C992 C 0.5779 0.17663 0.10401 0.0
C993 C 0.57215 0.20419 0.11962 0.0
H994 H 0.55949 0.13106 0.09041 0.0
C995 C 0.54156 0.21041 0.12552 0.0
H996 H 0.60137 0.17124 0.09938 0.0
C997 C 0.51746 0.18792 0.119 0.0
C998 C 0.52394 0.15862 0.10768 0.0
H999 H 0.53663 0.23151 0.13754 0.0
H1000 H 0.4945 0.19199 0.12671 0.0
C1001 C 0.55397 0.15368 0.09862 0.0
C1002 C 0.38968 0.04603 0.6413 0.0
C1003 C 0.39922 1.01635 0.63589 0.0
H1004 H 0.40186 0.09444 0.64018 0.0
C1005 C 0.42632 1.01264 0.61973 0.0
H1006 H 0.36864 0.04932 0.65342 0.0
C1007 C 0.44578 0.03842 0.61275 0.0
C1008 C 0.43777 0.06813 0.62105 0.0
H1009 H 0.43401 0.98984 0.61521 0.0
H1010 H 0.46824 0.03502 0.60347 0.0
C1011 C 0.40855 0.07181 0.6333 0.0
C1012 C 0.52523 0.95074 0.14796 0.0
C1013 C 0.52585 0.92059 0.13602 0.0
H1014 H 0.54936 0.99504 0.15457 0.0
C1015 C 0.55004 0.91335 0.11701 0.0
H1016 H 0.50624 0.95718 0.16181 0.0
C1017 C 0.57512 0.93508 0.11299 0.0
C1018 C 0.57588 0.96439 0.12756 0.0
H1019 H 0.55059 0.89034 0.10705 0.0
H1020 H 0.59493 0.928 0.10077 0.0
C1021 C 0.54972 0.97256 0.14337 0.0
C1022 C 0.7084 0.03475 0.6385 0.0
C1023 C 0.69854 0.06465 0.63651 0.0
H1024 H 0.69507 0.98641 0.63644 0.0
C1025 C 0.66867 0.06876 0.62496 0.0
H1026 H 0.73141 0.03112 0.64719 0.0
C1027 C 0.64758 0.04323 0.61959 0.0
C1028 C 0.65649 1.01339 0.62481 0.0
H1029 H 0.66056 0.09167 0.62324 0.0
H1030 H 0.62371 0.04697 0.61394 0.0
C1031 C 0.68761 1.00921 0.63214 0.0
C1032 C 0.50352 0.90494 0.95089 0.0
C1033 C 0.50851 0.87485 0.94066 0.0
H1034 H 0.52434 0.95042 0.96087 0.0
C1035 C 0.53866 0.86528 0.94074 0.0
H1036 H 0.48039 0.9128 0.95113 0.0
C1037 C 0.56374 0.88655 0.94735 0.0
C1038 C 0.55888 0.91783 0.9528 0.0
H1039 H 0.54295 0.84206 0.93324 0.0
H1040 H 0.58684 0.87921 0.94439 0.0
C1041 C 0.52864 0.92647 0.95654 0.0
C1042 C 0.63117 1.00191 0.45609 0.0
C1043 C 0.60161 0.99992 0.44189 0.0
H1044 H 0.6757 1.02718 0.46012 0.0
C1045 C 0.59264 1.02505 0.42503 0.0
H1046 H 0.63885 0.98288 0.46907 0.0
C1047 C 0.61399 0.0495 0.41892 0.0
C1048 C 0.64446 0.04986 0.43037 0.0
H1049 H 0.56993 1.02442 0.41406 0.0
H1050 H 0.60699 0.06755 0.40421 0.0
C1051 C 0.65244 1.02693 0.45052 0.0
C1052 C 0.52842 0.12573 0.9568 0.0
C1053 C 0.49857 0.13337 0.94842 0.0
H1054 H 0.57694 0.13857 0.95532 0.0
C1055 C 0.49441 0.16301 0.93753 0.0
H1056 H 0.5322 0.10301 0.96514 0.0
C1057 C 0.51999 0.18276 0.93068 0.0
C1058 C 0.5499 0.1736 0.93585 0.0
H1059 H 0.47165 0.16949 0.93073 0.0
H1060 H 0.51639 0.20419 0.91945 0.0
C1061 C 0.55398 0.14598 0.95093 0.0
C1062 C 0.35905 0.02969 0.43236 0.0
C1063 C 0.36611 0.99978 0.43975 0.0
H1064 H 0.37587 0.0771 0.43035 0.0
C1065 C 0.39346 0.99549 0.45641 0.0
H1066 H 0.33809 0.0334 0.41946 0.0
C1067 C 0.41545 1.02028 0.46183 0.0
C1068 C 0.40966 0.04969 0.45173 0.0
H1069 H 0.3994 0.97248 0.4621 0.0
H1070 H 0.43806 1.01589 0.47106 0.0
C1071 C 0.38049 0.05467 0.43895 0.0
C1072 C 0.09542 0.47686 0.12769 0.0
C1073 C 0.10944 0.47656 0.15689 0.0
H1074 H 0.08629 0.50428 0.08898 0.0
C1075 C 0.11746 0.50453 0.17268 0.0
H1076 H 0.08944 0.45547 0.11495 0.0
C1077 C 0.11442 0.53246 0.15823 0.0
C1078 C 0.10464 0.53246 0.12747 0.0
H1079 H 0.12859 0.50472 0.19507 0.0
H1080 H 0.12332 0.5537 0.16985 0.0
C1081 C 0.09367 0.50469 0.11277 0.0
C1082 C 0.06996 0.50188 0.87491 0.0
C1083 C 0.08283 0.53011 0.88727 0.0
H1084 H 0.06644 0.45293 0.87872 0.0
C1085 C 0.09536 0.5313 0.91717 0.0
H1086 H 0.06017 0.50048 0.85191 0.0
C1087 C 0.10026 0.50396 0.93207 0.0
C1088 C 0.09157 0.47536 0.91763 0.0
H1089 H 0.1055 0.55288 0.92718 0.0
H1090 H 0.11382 0.50514 0.95319 0.0
C1091 C 0.0737 0.47465 0.89035 0.0
C1092 C 1.01464 0.57751 0.38796 0.0
C1093 C 0.04585 0.58667 0.39407 0.0
H1094 H 0.9683 0.57976 0.40278 0.0
C1095 C 0.05506 0.59745 0.42367 0.0
H1096 H 1.00696 0.56965 0.36521 0.0
C1097 C 0.03287 0.60521 0.44455 0.0
C1098 C 1.0014 0.60026 0.43665 0.0
H1099 H 0.07906 0.60504 0.42877 0.0
H1100 H 0.04024 0.61804 0.46528 0.0
C1101 C 0.99252 0.58367 0.40949 0.0
C1102 C 0.92989 0.52621 0.91199 0.0
C1103 C 0.93513 0.55841 0.91212 0.0
H1104 H 0.92725 0.48434 0.88534 0.0
C1105 C 0.94708 0.57274 0.88604 0.0
H1106 H 0.92101 0.51462 0.9319 0.0
C1107 C 0.94959 0.55563 0.85896 0.0
C1108 C 0.94142 0.5238 0.85803 0.0
H1109 H 0.95174 0.59754 0.88566 0.0
H1110 H 0.95577 0.56761 0.83836 0.0
C1111 C 0.93362 0.50894 0.88528 0.0
C1112 C 0.05239 0.45523 0.38189 0.0
C1113 C 0.08166 0.44719 0.37331 0.0
H1114 H 1.00475 0.45608 0.36846 0.0
C1115 C 0.0869 0.43968 0.34267 0.0
H1116 H 0.0479 0.46054 0.40556 0.0
C1117 C 0.06215 0.43602 0.32169 0.0
C1118 C 0.03214 0.44073 0.33106 0.0
H1119 H 0.10934 0.43295 0.33581 0.0
H1120 H 0.06597 0.42662 0.2991 0.0
C1121 C 1.02778 0.45265 0.36062 0.0
C1122 C 0.96116 0.53458 0.1091 0.0
C1123 C 0.94291 0.50735 0.10188 0.0
H1124 H 0.96865 0.57373 0.13968 0.0
C1125 C 0.91934 0.49733 0.12163 0.0
H1126 H 0.97961 0.54257 0.09436 0.0
C1127 C 0.91175 0.51598 0.14621 0.0
C1128 C 0.92844 0.5444 0.15217 0.0
H1129 H 0.90499 0.47626 0.11662 0.0
H1130 H 0.8918 0.50892 0.15946 0.0
C1131 C 0.95463 0.55244 0.13483 0.0
C1132 C 0.06283 0.45667 0.5627 0.0
C1133 C 0.03338 0.46172 0.57358 0.0
H1134 H 0.10875 0.44558 0.57471 0.0
C1135 C 0.03044 0.46955 0.60469 0.0
H1136 H 0.06586 0.45095 0.53883 0.0
C1137 C 0.055 0.46614 0.62529 0.0
C1138 C 0.08268 0.45576 0.61468 0.0
H1139 H 1.00808 0.47374 0.61378 0.0
H1140 H 0.05117 0.46817 0.64955 0.0
C1141 C 0.0873 0.45335 0.58323 0.0
C1142 C 0.05085 0.60677 0.66618 0.0
C1143 C 0.04335 0.59647 0.63607 0.0
H1144 H 0.03359 0.62697 0.70686 0.0
C1145 C 1.0125 0.58767 0.62791 0.0
H1146 H 0.07457 0.61406 0.67277 0.0
C1147 C 0.98914 0.59358 0.64814 0.0
C1148 C 0.99655 0.60964 0.67586 0.0
H1149 H 1.00621 0.58019 0.6047 0.0
H1150 H 0.96528 0.58993 0.64015 0.0
C1151 C 1.02746 0.61433 0.68572 0.0
C1152 C 0.06127 0.13755 0.3679 0.0
C1153 C 0.04505 0.10839 0.36978 0.0
H1154 H 0.10505 0.16392 0.36961 0.0
C1155 C 0.06266 0.08227 0.37065 0.0
H1156 H 0.04887 0.15828 0.36715 0.0
C1157 C 0.09548 0.08558 0.37178 0.0
C1158 C 0.11142 0.11509 0.37215 0.0
H1159 H 0.05114 0.05942 0.37238 0.0
H1160 H 0.10822 0.06527 0.37461 0.0
C1161 C 0.09372 0.14081 0.36921 0.0
C1162 C 0.40077 0.4403 0.85101 0.0
C1163 C 0.41841 0.42883 0.87507 0.0
H1164 H 0.38391 0.48053 0.83009 0.0
C1165 C 0.43592 0.4507 0.89413 0.0
H1166 H 0.38664 0.42449 0.83608 0.0
C1167 C 0.43349 0.48254 0.89137 0.0
C1168 C 0.41443 0.49395 0.86869 0.0
H1169 H 0.44997 0.4432 0.91289 0.0
H1170 H 0.44564 0.49828 0.90789 0.0
C1171 C 0.39908 0.47251 0.84769 0.0
C1172 C 0.95943 0.93638 0.37072 0.0
C1173 C 0.97912 0.91241 0.37582 0.0
H1174 H 0.91267 0.95059 0.3715 0.0
C1175 C 0.96522 0.88292 0.38169 0.0
H1176 H 0.96922 0.95946 0.36638 0.0
C1177 C 0.93315 0.87792 0.38459 0.0
C1178 C 0.91349 0.90214 0.38168 0.0
H1179 H 0.97934 0.86377 0.38559 0.0
H1180 H 0.92383 0.85511 0.39066 0.0
C1181 C 0.92693 0.93128 0.37359 0.0
C1182 C 0.62248 0.56482 0.90339 0.0
C1183 C 0.63814 0.55179 0.87924 0.0
H1184 H 0.60948 0.60567 0.92619 0.0
C1185 C 0.65068 0.57185 0.85708 0.0
H1186 H 0.61262 0.55022 0.92089 0.0
C1187 C 0.64971 0.60433 0.86051 0.0
C1188 C 0.63564 0.61747 0.8859 0.0
H1189 H 0.66328 0.56263 0.83835 0.0
H1190 H 0.66177 0.61909 0.84443 0.0
C1191 C 0.62075 0.5969 0.90635 0.0
C1192 C 0.97233 0.91853 0.71195 0.0
C1193 C 0.9562 0.92604 0.6852 0.0
H1194 H 1.01658 0.91173 0.7332 0.0
C1195 C 0.97372 0.93695 0.66055 0.0
H1196 H 0.95967 0.90927 0.73107 0.0
C1197 C 1.00618 0.9384 0.6617 0.0
C1198 C 1.02243 0.9285 0.68741 0.0
H1199 H 0.96217 0.94246 0.63942 0.0
H1200 H 1.01845 0.94539 0.64149 0.0
C1201 C 1.00505 0.91968 0.71302 0.0
C1202 C 0.63889 0.60655 0.19847 0.0
C1203 C 0.66445 0.58903 0.19268 0.0
H1204 H 0.62103 0.65172 0.1994 0.0
C1205 C 0.69309 0.60528 0.18761 0.0
H1206 H 0.61637 0.59498 0.20222 0.0
C1207 C 0.69565 0.63761 0.18605 0.0
C1208 C 0.66982 0.65503 0.18986 0.0
H1209 H 0.71333 0.59292 0.183 0.0
H1210 H 0.71768 0.64897 0.18 0.0
C1211 C 0.64155 0.63918 0.19707 0.0
C1212 C 0.08589 0.13683 0.6795 0.0
C1213 C 0.07591 0.1625 0.69557 0.0
H1214 H 0.12393 0.11223 0.66455 0.0
C1215 C 0.09842 0.18157 0.71232 0.0
H1216 H 0.06937 0.12149 0.66649 0.0
C1217 C 0.13023 0.17655 0.71087 0.0
C1218 C 0.14037 0.15199 0.693 0.0
H1219 H 0.0917 0.20166 0.7249 0.0
H1220 H 0.14692 0.19313 0.72207 0.0
C1221 C 0.11742 0.13146 0.67855 0.0
C1222 C 0.43133 0.50401 0.19074 0.0
C1223 C 0.45938 0.52096 0.18477 0.0
H1224 H 0.40689 0.45947 0.19387 0.0
C1225 C 0.48599 0.50427 0.18167 0.0
H1226 H 0.41027 0.51567 0.19319 0.0
C1227 C 0.48408 0.47158 0.18253 0.0
C1228 C 0.45547 0.45475 0.18638 0.0
H1229 H 0.50802 0.51632 0.17682 0.0
H1230 H 0.50449 0.45948 0.17794 0.0
C1231 C 0.4294 0.47159 0.19129 0.0
C1232 C 0.42316 0.99943 0.10327 0.0
C1233 C 0.41924 1.01588 0.13082 0.0
H1234 H 0.42495 0.95511 0.08064 0.0
C1235 C 0.40996 0.99892 0.15635 0.0
H1236 H 0.43135 1.01167 0.08346 0.0
C1237 C 0.40703 0.96638 0.15498 0.0
C1238 C 0.41303 0.94981 0.12796 0.0
H1239 H 0.40781 1.01068 0.17817 0.0
H1240 H 0.40214 0.95416 0.17576 0.0
C1241 C 0.41967 0.96688 0.10172 0.0
C1242 C 0.46876 0.91599 0.61732 0.0
C1243 C 0.45253 0.88872 0.62649 0.0
H1244 H 0.51238 0.94136 0.61247 0.0
C1245 C 0.46995 0.86396 0.63504 0.0
H1246 H 0.45628 0.93553 0.61059 0.0
C1247 C 0.50272 0.86744 0.63664 0.0
C1248 C 0.51881 0.89568 0.62947 0.0
H1249 H 0.45827 0.84272 0.64264 0.0
H1250 H 0.51526 0.84876 0.64538 0.0
C1251 C 0.50118 0.91931 0.6185 0.0
C1252 C 0.70665 0.14331 0.17172 0.0
C1253 C 0.70177 0.15675 0.14331 0.0
H1254 H 0.70669 0.10196 0.19732 0.0
C1255 C 0.69799 0.13676 0.11737 0.0
H1256 H 0.70982 0.15772 0.19222 0.0
C1257 C 0.69647 0.10423 0.12031 0.0
C1258 C 0.69863 0.09098 0.14925 0.0
H1259 H 0.69378 0.14611 0.09513 0.0
H1260 H 0.69102 0.08957 0.10029 0.0
C1261 C 0.70499 0.11113 0.17465 0.0
C1262 C 0.62719 0.16855 0.63334 0.0
C1263 C 0.64321 0.19465 0.64737 0.0
H1264 H 0.58378 0.14351 0.6231 0.0
C1265 C 0.62552 0.21772 0.65977 0.0
H1266 H 0.63982 0.15029 0.62351 0.0
C1267 C 0.59279 0.21363 0.65998 0.0
C1268 C 0.57693 0.18648 0.64753 0.0
H1269 H 0.637 0.23801 0.67108 0.0
H1270 H 0.58011 0.23092 0.67137 0.0
C1271 C 0.59477 0.16467 0.6332 0.0
C1272 C 0.35754 0.97596 0.90485 0.0
C1273 C 0.38387 0.99264 0.91812 0.0
H1274 H 0.33458 0.93113 0.89362 0.0
C1275 C 0.40561 0.97561 0.93361 0.0
H1276 H 0.34036 0.98798 0.89254 0.0
C1277 C 0.40248 0.94323 0.93396 0.0
C1278 C 0.37725 0.92637 0.91921 0.0
H1279 H 0.42615 0.98725 0.94438 0.0
H1280 H 0.42068 0.93129 0.94481 0.0
C1281 C 0.35422 0.94324 0.9055 0.0
C1282 C 0.45921 0.86701 0.39539 0.0
C1283 C 0.47863 0.87453 0.4211 0.0
H1284 H 0.41302 0.8614 0.37664 0.0
C1285 C 0.46453 0.87788 0.44952 0.0
H1286 H 0.46906 0.86433 0.37311 0.0
C1287 C 0.43187 0.87645 0.45151 0.0
C1288 C 0.41263 0.8716 0.42513 0.0
H1289 H 0.47863 0.88423 0.46973 0.0
H1290 H 0.42184 0.88161 0.47325 0.0
C1291 C 0.42689 0.86548 0.39739 0.0
C1292 C 0.6533 0.10564 0.9516 0.0
C1293 C 0.68029 0.12238 0.94235 0.0
H1294 H 0.62884 0.06168 0.95687 0.0
C1295 C 0.7054 0.10544 0.93368 0.0
H1296 H 0.63347 0.11767 0.95845 0.0
C1297 C 0.70262 0.07266 0.93225 0.0
C1298 C 0.67472 0.05603 0.93975 0.0
H1299 H 0.72647 0.11748 0.92604 0.0
H1300 H 0.72162 0.06049 0.9236 0.0
C1301 C 0.65067 0.07324 0.95059 0.0
C1302 C 0.56755 0.16652 0.4046 0.0
C1303 C 0.55049 0.15749 0.43015 0.0
H1304 H 0.6124 0.17389 0.38515 0.0
C1305 C 0.56689 0.15377 0.45778 0.0
H1306 H 0.55583 0.1685 0.38272 0.0
C1307 C 0.59951 0.15712 0.45933 0.0
C1308 C 0.61664 0.1634 0.43303 0.0
H1309 H 0.55458 0.14574 0.47761 0.0
H1310 H 0.61126 0.15188 0.48042 0.0
C1311 C 0.60012 0.1693 0.40597 0.0
C1312 C 0.1109 0.35371 1.02192 0.0
C1313 C 0.1356 0.36421 1.00342 0.0
H1314 H 0.09437 0.34832 0.06787 0.0
C1315 C 0.16421 0.37299 1.01803 0.0
H1316 H 0.08842 0.34699 1.01157 0.0
C1317 C 0.16767 0.37332 0.04988 0.0
C1318 C 0.14264 0.36518 0.06875 0.0
H1319 H 0.18387 0.381 1.0048 0.0
H1320 H 0.18987 0.38178 0.05992 0.0
C1321 C 0.11434 0.3543 0.05428 0.0
C1322 C 0.11142 0.63358 0.95627 0.0
C1323 C 0.12739 0.65907 0.9429 0.0
H1324 H 0.09909 0.61016 0.99716 0.0
C1325 C 0.14045 0.68293 0.96274 0.0
H1326 H 0.10096 0.61466 0.9421 0.0
C1327 C 0.13898 0.68047 0.99486 0.0
C1328 C 0.1247 0.65392 1.00806 0.0
H1329 H 0.15307 0.70288 0.95351 0.0
H1330 H 0.15076 0.69844 1.0093 0.0
C1331 C 0.11027 0.63099 0.98811 0.0
C1332 C 0.86564 0.59964 0.55709 0.0
C1333 C 0.89271 0.60472 0.54 0.0
H1334 H 0.84517 0.60153 0.6016 0.0
C1335 C 0.92083 0.61164 0.55627 0.0
H1336 H 0.84348 0.59455 0.54545 0.0
C1337 C 0.92171 0.61565 0.58807 0.0
C1338 C 0.89461 0.61263 0.60513 0.0
H1339 H 0.94223 0.61565 0.54425 0.0
H1340 H 0.9437 0.62286 0.59926 0.0
C1341 C 0.86658 0.60353 0.58935 0.0
C1342 C 0.95884 0.41655 0.90522 0.0
C1343 C 0.93567 0.3967 0.89047 0.0
H1344 H 0.97815 0.43629 0.94733 0.0
C1345 C 0.91658 0.37765 0.90907 0.0
H1346 H 0.97403 0.43167 0.89201 0.0
C1347 C 0.91907 0.38025 0.94134 0.0
C1348 C 0.94065 0.40205 0.95592 0.0
H1349 H 0.89826 0.36225 0.89876 0.0
H1350 H 0.90245 0.36697 0.95472 0.0
C1351 C 0.96124 0.41919 0.93721 0.0
C1352 C 0.18593 0.39723 0.55617 0.0
C1353 C 0.18948 0.42585 0.57214 0.0
H1354 H 0.17858 0.37319 0.51299 0.0
C1355 C 0.1929 0.45279 0.55481 0.0
H1356 H 0.18294 0.37598 0.56855 0.0
C1357 C 0.19022 0.45113 0.52253 0.0
C1358 C 0.18473 0.42246 0.5068 0.0
H1359 H 0.19504 0.47527 0.56621 0.0
H1360 H 0.19004 0.47234 0.51009 0.0
C1361 C 0.18368 0.39559 0.52415 0.0
C1362 C 0.94895 0.68044 0.05796 0.0
C1363 C 0.94549 0.65069 0.04402 0.0
H1364 H 0.95188 0.70714 0.10041 0.0
C1365 C 0.94722 0.62517 0.06297 0.0
H1366 H 0.94716 0.70065 0.04425 0.0
C1367 C 0.94919 0.62886 0.0947 0.0
C1368 C 0.95035 0.65818 0.10904 0.0
H1369 H 0.94459 0.60188 0.05332 0.0
H1370 H 0.9477 0.60841 0.10815 0.0
C1371 C 0.95153 0.68416 0.09023 0.0
C1372 C 0.91589 0.37742 0.40641 0.0
C1373 C 0.9112 0.4051 0.39154 0.0
H1374 H 0.92415 0.35504 0.44847 0.0
C1375 C 0.90719 0.43154 0.41008 0.0
H1376 H 0.91905 0.35651 0.39326 0.0
C1377 C 0.90998 0.43065 0.44235 0.0
C1378 C 0.91696 0.40331 0.45692 0.0
H1379 H 0.90382 0.45341 0.39964 0.0
H1380 H 0.90888 0.45184 0.45567 0.0
C1381 C 0.91877 0.37657 0.43834 0.0
C1382 C 0.13614 0.67134 0.48781 0.0
C1383 C 0.14399 0.64727 0.50687 0.0
H1384 H 0.13183 0.68801 0.44252 0.0
C1385 C 0.1576 0.62205 0.49321 0.0
H1386 H 0.12573 0.69125 0.4973 0.0
C1387 C 0.16111 0.62015 0.46115 0.0
C1388 C 0.15124 0.64348 0.44203 0.0
H1389 H 0.16362 0.60291 0.50695 0.0
H1390 H 0.16982 0.59955 0.45121 0.0
C1391 C 0.13971 0.66952 0.45614 0.0
C1392 C 0.34491 0.16325 0.40126 0.0
C1393 C 0.36446 0.14187 0.38893 0.0
H1394 H 0.29834 0.17553 0.40785 0.0
C1395 C 0.35043 0.11676 0.37134 0.0
H1396 H 0.35462 0.18274 0.41511 0.0
C1397 C 0.31798 0.11231 0.36757 0.0
C1398 C 0.29837 0.13311 0.38078 0.0
H1399 H 0.36446 0.09953 0.36172 0.0
H1400 H 0.30821 0.09194 0.35507 0.0
C1401 C 0.31247 0.15909 0.39703 0.0
C1402 C 0.3749 0.69338 0.9171 0.0
C1403 C 0.3961 0.67578 0.90148 0.0
H1404 H 0.36082 0.73841 0.92966 0.0
C1405 C 0.42038 0.69187 0.88663 0.0
H1406 H 0.35568 0.68199 0.92876 0.0
C1407 C 0.42347 0.7244 0.88756 0.0
C1408 C 0.40214 0.74201 0.90299 0.0
H1409 H 0.43711 0.67937 0.87438 0.0
H1410 H 0.44257 0.73577 0.87572 0.0
C1411 C 0.37773 0.72591 0.91766 0.0
C1412 C 0.68383 0.86757 0.42631 0.0
C1413 C 0.66372 0.88531 0.40967 0.0
H1414 H 0.73076 0.8569 0.4356 0.0
C1415 C 0.67683 0.90538 0.38785 0.0
H1416 H 0.67478 0.85207 0.44344 0.0
C1417 C 0.70906 0.90879 0.38393 0.0
C1418 C 0.72925 0.89159 0.40105 0.0
H1419 H 0.6623 0.91973 0.37478 0.0
H1420 H 0.71825 0.92545 0.3679 0.0
C1421 C 0.71603 0.87034 0.42174 0.0
C1422 C 0.63366 0.32148 0.89709 0.0
C1423 C 0.65246 0.30542 0.91727 0.0
H1424 H 0.62205 0.3652 0.87948 0.0
C1425 C 0.67355 0.32307 0.9365 0.0
H1426 H 0.61707 0.30889 0.88173 0.0
C1427 C 0.67608 0.35551 0.93532 0.0
C1428 C 0.65786 0.37159 0.91463 0.0
H1429 H 0.68841 0.31185 0.95226 0.0
H1430 H 0.69302 0.36797 0.95043 0.0
C1431 C 0.63641 0.35397 0.89569 0.0
C1432 C 0.25441 0.92646 0.68166 0.0
C1433 C 0.27025 0.91529 0.65626 0.0
H1434 H 0.21084 0.93573 0.70122 0.0
C1435 C 0.25254 0.90471 0.63043 0.0
H1436 H 0.26716 0.93469 0.70215 0.0
C1437 C 0.22016 0.90595 0.62979 0.0
C1438 C 0.20432 0.91725 0.65515 0.0
H1439 H 0.26372 0.89606 0.61049 0.0
H1440 H 0.20746 0.89771 0.60928 0.0
C1441 C 0.22199 0.92713 0.68124 0.0
C1442 C 0.70593 0.85406 0.15464 0.0
C1443 C 0.68657 0.84166 0.17742 0.0
H1444 H 0.72235 0.89434 0.13043 0.0
C1445 C 0.6711 0.86252 0.19554 0.0
H1446 H 0.71804 0.83885 0.13996 0.0
C1447 C 0.67408 0.89452 0.19043 0.0
C1448 C 0.69212 0.90675 0.16657 0.0
H1449 H 0.6559 0.85403 0.21319 0.0
H1450 H 0.66092 0.90953 0.20429 0.0
C1451 C 0.70841 0.88601 0.14909 0.0
C1452 C 0.87615 0.18944 0.64528 0.0
C1453 C 0.89399 0.17674 0.66862 0.0
H1454 H 0.83087 0.19857 0.62799 0.0
C1455 C 0.87839 0.1642 0.69362 0.0
H1456 H 0.88735 0.19958 0.62572 0.0
C1457 C 0.84586 0.16308 0.6945 0.0
C1458 C 0.82799 0.17525 0.67086 0.0
H1459 H 0.8912 0.15426 0.71195 0.0
H1460 H 0.83458 0.15234 0.71372 0.0
C1461 C 0.8437 0.18909 0.64657 0.0
C1462 C 0.41067 0.22088 0.16278 0.0
C1463 C 0.43297 0.20162 0.17378 0.0
H1464 H 0.39717 0.26718 0.15782 0.0
C1465 C 0.45853 0.21576 0.19068 0.0
H1466 H 0.39081 0.21107 0.1495 0.0
C1467 C 0.46249 0.24812 0.19505 0.0
C1468 C 0.44073 0.26749 0.18317 0.0
H1469 H 0.47646 0.20194 0.19927 0.0
H1470 H 0.4832 0.25804 0.20691 0.0
C1471 C 0.41434 0.25322 0.16765 0.0
C1472 C 0.13407 0.36633 0.27741 0.0
C1473 C 0.15304 0.38074 0.25549 0.0
H1474 H 0.12446 0.36079 0.32489 0.0
C1475 C 0.17885 0.40006 0.26636 0.0
H1476 H 0.11393 0.35147 0.27022 0.0
C1477 C 0.18482 0.40567 0.29787 0.0
C1478 C 0.16542 0.39189 0.31978 0.0
H1479 H 0.19406 0.41178 0.25042 0.0
H1480 H 0.20428 0.42148 0.30503 0.0
C1481 C 0.14023 0.37169 0.30895 0.0
C1482 C 0.14923 0.61551 0.70948 0.0
C1483 C 0.14248 0.64197 0.69355 0.0
H1484 H 0.15029 0.59259 0.75198 0.0
C1485 C 0.13225 0.66713 0.7107 0.0
H1486 H 0.15675 0.59548 0.69738 0.0
C1487 C 0.12888 0.66567 0.74277 0.0
C1488 C 0.13461 0.63857 0.75834 0.0
H1489 H 0.12644 0.68783 0.69929 0.0
H1490 H 0.121 0.68534 0.75516 0.0
C1491 C 0.14508 0.61375 0.74103 0.0
C1492 C 0.93873 0.64906 0.30774 0.0
C1493 C 0.91931 0.62789 0.29018 0.0
H1494 H 0.9528 0.66672 0.35225 0.0
C1495 C 0.89971 0.60642 0.30594 0.0
H1496 H 0.95409 0.66592 0.29674 0.0
C1497 C 0.89885 0.6068 0.33807 0.0
C1498 C 0.91742 0.62879 0.35554 0.0
H1499 H 0.88438 0.58957 0.29338 0.0
H1500 H 0.88301 0.59043 0.34913 0.0
C1501 C 0.93777 0.64952 0.33979 0.0
C1502 C 0.92189 0.40003 0.6933 0.0
C1503 C 0.91303 0.42734 0.70754 0.0
H1504 H 0.93022 0.37615 0.65083 0.0
C1505 C 0.90294 0.45051 0.68838 0.0
H1506 H 0.92966 0.38158 0.70702 0.0
C1507 C 0.90266 0.44724 0.65649 0.0
C1508 C 0.91273 0.42073 0.64206 0.0
H1509 H 0.89535 0.47176 0.69807 0.0
H1510 H 0.89544 0.46619 0.64311 0.0
C1511 C 0.92203 0.3969 0.66098 0.0
C1512 C 0.72052 0.86968 0.6614 0.0
C1513 C 0.70276 0.89364 0.6713 0.0
H1514 H 0.76591 0.85317 0.65758 0.0
C1515 C 0.71843 0.91967 0.68621 0.0
H1516 H 0.70935 0.8493 0.64996 0.0
C1517 C 0.75073 0.92136 0.69171 0.0
C1518 C 0.76853 0.89764 0.68135 0.0
H1519 H 0.70552 0.93849 0.69439 0.0
H1520 H 0.76182 0.94145 0.70371 0.0
C1521 C 0.75297 0.87197 0.66577 0.0
C1522 C 0.6556 0.35791 0.18912 0.0
C1523 C 0.6707 0.33917 0.1681 0.0
H1524 H 0.64511 0.40361 0.2037 0.0
C1525 C 0.68854 0.35429 0.14587 0.0
H1526 H 0.64156 0.34745 0.20672 0.0
C1527 C 0.69055 0.38679 0.14427 0.0
C1528 C 0.67476 0.40545 0.16478 0.0
H1529 H 0.7004 0.34102 0.1292 0.0
H1530 H 0.70419 0.39725 0.12638 0.0
C1531 C 0.65756 0.39038 0.18747 0.0
C1532 C 0.34213 0.1629 0.65788 0.0
C1533 C 0.32625 0.18243 0.67715 0.0
H1534 H 0.38587 0.14989 0.64175 0.0
C1535 C 0.34416 0.20509 0.69481 0.0
H1536 H 0.32937 0.14535 0.64368 0.0
C1537 C 0.37673 0.20806 0.69332 0.0
C1538 C 0.39261 0.18834 0.67425 0.0
H1539 H 0.33297 0.22084 0.7097 0.0
H1540 H 0.38952 0.22555 0.70756 0.0
C1541 C 0.37469 0.16569 0.65659 0.0
C1542 C 0.42201 0.75163 0.13834 0.0
C1543 C 0.4442 0.76919 0.15657 0.0
H1544 H 0.40243 0.70673 0.12416 0.0
C1545 C 0.46497 0.75291 0.17438 0.0
H1546 H 0.40564 0.76299 0.12431 0.0
C1547 C 0.46346 0.72026 0.1741 0.0
C1548 C 0.44077 0.70274 0.15635 0.0
H1549 H 0.48258 0.76545 0.18869 0.0
H1550 H 0.47969 0.70879 0.18819 0.0
C1551 C 0.4202 0.71911 0.1384 0.0
C1552 C 0.81067 0.10755 0.38063 0.0
C1553 C 0.79556 0.12728 0.40068 0.0
H1554 H 0.85379 0.09213 0.36465 0.0
C1555 C 0.81428 0.14709 0.42036 0.0
H1556 H 0.79725 0.09178 0.36508 0.0
C1557 C 0.84677 0.14734 0.41991 0.0
C1558 C 0.86196 0.12763 0.39993 0.0
H1559 H 0.80385 0.16258 0.43612 0.0
H1560 H 0.86004 0.16314 0.43555 0.0
C1561 C 0.84327 0.10763 0.38034 0.0
C1562 C 0.40222 0.22787 0.9071 0.0
C1563 C 0.38387 0.24302 0.88608 0.0
H1564 H 0.41496 0.18475 0.9249 0.0
C1565 C 0.36293 0.22443 0.86708 0.0
H1566 H 0.41844 0.24116 0.92232 0.0
C1567 C 0.36045 0.19192 0.86902 0.0
C1568 C 0.37905 0.17676 0.8898 0.0
H1569 H 0.34811 0.23502 0.85081 0.0
H1570 H 0.34429 0.17861 0.85375 0.0
C1571 C 0.40004 0.19536 0.90874 0.0
C1572 C 0.18296 0.88834 0.41936 0.0
C1573 C 0.16503 0.90369 0.39785 0.0
H1574 H 0.22804 0.87698 0.43501 0.0
C1575 C 0.18072 0.91834 0.37394 0.0
H1576 H 0.17202 0.87654 0.43815 0.0
C1577 C 0.21319 0.91838 0.37212 0.0
C1578 C 0.23117 0.90376 0.39416 0.0
H1579 H 0.16802 0.93032 0.35692 0.0
H1580 H 0.22428 0.93057 0.35365 0.0
C1581 C 0.21535 0.88839 0.41755 0.0
C1582 C 0.6951 0.82302 0.87908 0.0
C1583 C 0.67308 0.80484 0.89533 0.0
H1584 H 0.71585 0.86849 0.87039 0.0
C1585 C 0.6548 0.82032 0.91604 0.0
H1586 H 0.70995 0.81211 0.86324 0.0
C1587 C 0.65805 0.85277 0.91999 0.0
C1588 C 0.68026 0.87094 0.90397 0.0
H1589 H 0.6378 0.80733 0.92925 0.0
H1590 H 0.64312 0.86366 0.93576 0.0
C1591 C 0.6988 0.85545 0.88351 0.0
C1592 C 0.9314 0.65929 0.83559 0.0
C1593 C 0.912 0.64389 0.8565 0.0
H1594 H 0.94221 0.66652 0.78863 0.0
C1595 C 0.88852 0.6223 0.84455 0.0
H1596 H 0.94975 0.67596 0.84371 0.0
C1597 C 0.88386 0.61714 0.81284 0.0
C1598 C 0.90291 0.63292 0.7919 0.0
H1599 H 0.87307 0.60983 0.85976 0.0
H1600 H 0.86503 0.60102 0.80473 0.0
C1601 C 0.92709 0.6537 0.80387 0.0
C1602 C 0.9327 0.41584 0.19144 0.0
C1603 C 0.92686 0.38806 0.20678 0.0
H1604 H 0.9382 0.43803 0.1485 0.0
C1605 C 0.92039 0.36076 0.18885 0.0
H1606 H 0.9386 0.43715 0.20431 0.0
C1607 C 0.91954 0.36128 0.15662 0.0
C1608 C 0.92664 0.38891 0.14133 0.0
H1609 H 0.91646 0.33881 0.19983 0.0
H1610 H 0.91424 0.3399 0.1437 0.0
C1611 C 0.93301 0.41618 0.15932 0.0
C1612 C 0.13543 0.37652 0.80187 0.0
C1613 C 0.15579 0.39682 0.8195 0.0
H1614 H 0.11786 0.36227 0.75718 0.0
C1615 C 0.17609 0.41755 0.80366 0.0
H1616 H 0.11934 0.3604 0.81291 0.0
C1617 C 0.1754 0.41867 0.77152 0.0
C1618 C 0.15413 0.3993 0.75393 0.0
H1619 H 0.19226 0.43363 0.81621 0.0
H1620 H 0.1909 0.43541 0.76055 0.0
C1621 C 0.13453 0.37785 0.76971 0.0
C1622 C 0.12722 0.6803 0.24401 0.0
C1623 C 0.13171 0.6523 0.25863 0.0
H1624 H 0.1264 0.70495 0.20206 0.0
C1625 C 0.13925 0.62702 0.24036 0.0
H1626 H 0.121 0.7002 0.25724 0.0
C1627 C 0.14129 0.62951 0.20838 0.0
C1628 C 0.13648 0.6575 0.19377 0.0
H1629 H 0.14224 0.60496 0.25057 0.0
H1630 H 0.14666 0.60937 0.19505 0.0
C1631 C 0.13004 0.68301 0.21224 0.0
loop_
_geom_bond_atom_site_label_1
_geom_bond_atom_site_label_2
_geom_bond_distance
_geom_bond_site_symmetry_2
_ccdc_geom_bond_type
O0 Cd1 2.223 . S
O0 C8 1.315 . S
Cd1 O0 2.223 . S
Cd1 O4 2.297 . S
Cd1 O5 2.439 . S
Cd1 O11 2.240 . S
Cd2 O3 2.240 . S
Cd2 O10 2.223 . S
Cd2 O12 2.297 . S
Cd2 O13 2.439 . S
O3 Cd2 2.240 . S
O3 C8 1.279 . S
O4 Cd1 2.297 . S
O4 C6 1.247 . S
O5 Cd1 2.439 . S
O5 C6 1.208 . S
C6 O4 1.247 . S
C6 O5 1.208 . S
C7 O12 1.247 . S
C7 O13 1.208 . S
C8 O0 1.315 . S
C8 O3 1.279 . S
C9 O10 1.315 . S
C9 O11 1.279 . S
O10 Cd2 2.223 . S
O10 C9 1.315 . S
O11 Cd1 2.240 . S
O11 C9 1.279 . S
O12 Cd2 2.297 . S
O12 C7 1.247 . S
O13 Cd2 2.439 . S
O13 C7 1.208 . S
O14 Cd15 2.223 . S
O14 C22 1.315 . S
Cd15 O14 2.223 . S
Cd15 O18 2.297 . S
Cd15 O19 2.439 . S
Cd15 O25 2.240 . S
Cd16 O17 2.240 . S
Cd16 O24 2.223 . S
Cd16 O26 2.297 . S
Cd16 O27 2.439 . S
O17 Cd16 2.240 . S
O17 C22 1.279 . S
O18 Cd15 2.297 . S
O18 C20 1.247 . S
O19 Cd15 2.439 . S
O19 C20 1.208 . S
C20 O18 1.247 . S
C20 O19 1.208 . S
C21 O26 1.247 . S
C21 O27 1.208 . S
C22 O14 1.315 . S
C22 O17 1.279 . S
C23 O24 1.315 . S
C23 O25 1.279 . S
O24 Cd16 2.223 . S
O24 C23 1.315 . S
O25 Cd15 2.240 . S
O25 C23 1.279 . S
O26 Cd16 2.297 . S
O26 C21 1.247 . S
O27 Cd16 2.439 . S
O27 C21 1.208 . S
O28 Cd29 2.223 . S
O28 C36 1.315 . S
Cd29 O28 2.223 . S
Cd29 O32 2.297 . S
Cd29 O33 2.439 . S
Cd29 O39 2.240 . S
Cd30 O31 2.240 . S
Cd30 O38 2.223 . S
Cd30 O40 2.297 . S
Cd30 O41 2.439 . S
O31 Cd30 2.240 . S
O31 C36 1.279 . S
O32 Cd29 2.297 . S
O32 C34 1.247 . S
O33 Cd29 2.439 . S
O33 C34 1.208 . S
C34 O32 1.247 . S
C34 O33 1.208 . S
C35 O40 1.247 . S
C35 O41 1.208 . S
C36 O28 1.315 . S
C36 O31 1.279 . S
C37 O38 1.315 . S
C37 O39 1.279 . S
O38 Cd30 2.223 . S
O38 C37 1.315 . S
O39 Cd29 2.240 . S
O39 C37 1.279 . S
O40 Cd30 2.297 . S
O40 C35 1.247 . S
O41 Cd30 2.439 . S
O41 C35 1.208 . S
O42 Cd43 2.223 . S
O42 C50 1.315 . S
Cd43 O42 2.223 . S
Cd43 O46 2.297 . S
Cd43 O47 2.439 . S
Cd43 O53 2.240 . S
Cd44 O45 2.240 . S
Cd44 O52 2.223 . S
Cd44 O54 2.297 . S
Cd44 O55 2.439 . S
O45 Cd44 2.240 . S
O45 C50 1.279 . S
O46 Cd43 2.297 . S
O46 C48 1.247 . S
O47 Cd43 2.439 . S
O47 C48 1.208 . S
C48 O46 1.247 . S
C48 O47 1.208 . S
C49 O54 1.247 . S
C49 O55 1.208 . S
C50 O42 1.315 . S
C50 O45 1.279 . S
C51 O52 1.315 . S
C51 O53 1.279 . S
O52 Cd44 2.223 . S
O52 C51 1.315 . S
O53 Cd43 2.240 . S
O53 C51 1.279 . S
O54 Cd44 2.297 . S
O54 C49 1.247 . S
O55 Cd44 2.439 . S
O55 C49 1.208 . S
O56 Cd57 2.223 . S
O56 C64 1.315 . S
Cd57 O56 2.223 . S
Cd57 O60 2.297 . S
Cd57 O61 2.439 . S
Cd57 O67 2.240 . S
Cd58 O59 2.240 . S
Cd58 O66 2.223 . S
Cd58 O68 2.297 . S
Cd58 O69 2.439 . S
O59 Cd58 2.240 . S
O59 C64 1.279 . S
O60 Cd57 2.297 . S
O60 C62 1.247 . S
O61 Cd57 2.439 . S
O61 C62 1.208 . S
C62 O60 1.247 . S
C62 O61 1.208 . S
C63 O68 1.247 . S
C63 O69 1.208 . S
C64 O56 1.315 . S
C64 O59 1.279 . S
C65 O66 1.315 . S
C65 O67 1.279 . S
O66 Cd58 2.223 . S
O66 C65 1.315 . S
O67 Cd57 2.240 . S
O67 C65 1.279 . S
O68 Cd58 2.297 . S
O68 C63 1.247 . S
O69 Cd58 2.439 . S
O69 C63 1.208 . S
O70 Cd71 2.223 . S
O70 C78 1.315 . S
Cd71 O70 2.223 . S
Cd71 O74 2.297 . S
Cd71 O75 2.439 . S
Cd71 O81 2.240 . S
Cd72 O73 2.240 . S
Cd72 O80 2.223 . S
Cd72 O82 2.297 . S
Cd72 O83 2.439 . S
O73 Cd72 2.240 . S
O73 C78 1.279 . S
O74 Cd71 2.297 . S
O74 C76 1.247 . S
O75 Cd71 2.439 . S
O75 C76 1.208 . S
C76 O74 1.247 . S
C76 O75 1.208 . S
C77 O82 1.247 . S
C77 O83 1.208 . S
C78 O70 1.315 . S
C78 O73 1.279 . S
C79 O80 1.315 . S
C79 O81 1.279 . S
O80 Cd72 2.223 . S
O80 C79 1.315 . S
O81 Cd71 2.240 . S
O81 C79 1.279 . S
O82 Cd72 2.297 . S
O82 C77 1.247 . S
O83 Cd72 2.439 . S
O83 C77 1.208 . S
O84 Cd85 2.223 . S
O84 C92 1.315 . S
Cd85 O84 2.223 . S
Cd85 O88 2.297 . S
Cd85 O89 2.439 . S
Cd85 O95 2.240 . S
Cd86 O87 2.240 . S
Cd86 O94 2.223 . S
Cd86 O96 2.297 . S
Cd86 O97 2.439 . S
O87 Cd86 2.240 . S
O87 C92 1.279 . S
O88 Cd85 2.297 . S
O88 C90 1.247 . S
O89 Cd85 2.439 . S
O89 C90 1.208 . S
C90 O88 1.247 . S
C90 O89 1.208 . S
C91 O96 1.247 . S
C91 O97 1.208 . S
C92 O84 1.315 . S
C92 O87 1.279 . S
C93 O94 1.315 . S
C93 O95 1.279 . S
O94 Cd86 2.223 . S
O94 C93 1.315 . S
O95 Cd85 2.240 . S
O95 C93 1.279 . S
O96 Cd86 2.297 . S
O96 C91 1.247 . S
O97 Cd86 2.439 . S
O97 C91 1.208 . S
O98 Cd99 2.223 . S
O98 C106 1.315 . S
Cd99 O98 2.223 . S
Cd99 O102 2.297 . S
Cd99 O103 2.439 . S
Cd99 O109 2.240 . S
Cd100 O101 2.240 . S
Cd100 O108 2.223 . S
Cd100 O110 2.297 . S
Cd100 O111 2.439 . S
O101 Cd100 2.240 . S
O101 C106 1.279 . S
O102 Cd99 2.297 . S
O102 C104 1.247 . S
O103 Cd99 2.439 . S
O103 C104 1.208 . S
C104 O102 1.247 . S
C104 O103 1.208 . S
C105 O110 1.247 . S
C105 O111 1.208 . S
C106 O98 1.315 . S
C106 O101 1.279 . S
C107 O108 1.315 . S
C107 O109 1.279 . S
O108 Cd100 2.223 . S
O108 C107 1.315 . S
O109 Cd99 2.240 . S
O109 C107 1.279 . S
O110 Cd100 2.297 . S
O110 C105 1.247 . S
O111 Cd100 2.439 . S
O111 C105 1.208 . S
O112 Cd113 2.223 . S
O112 C120 1.315 . S
Cd113 O112 2.223 . S
Cd113 O116 2.297 . S
Cd113 O117 2.439 . S
Cd113 O123 2.240 . S
Cd114 O115 2.240 . S
Cd114 O122 2.223 . S
Cd114 O124 2.297 . S
Cd114 O125 2.439 . S
O115 Cd114 2.240 . S
O115 C120 1.279 . S
O116 Cd113 2.297 . S
O116 C118 1.247 . S
O117 Cd113 2.439 . S
O117 C118 1.208 . S
C118 O116 1.247 . S
C118 O117 1.208 . S
C119 O124 1.247 . S
C119 O125 1.208 . S
C120 O112 1.315 . S
C120 O115 1.279 . S
C121 O122 1.315 . S
C121 O123 1.279 . S
O122 Cd114 2.223 . S
O122 C121 1.315 . S
O123 Cd113 2.240 . S
O123 C121 1.279 . S
O124 Cd114 2.297 . S
O124 C119 1.247 . S
O125 Cd114 2.439 . S
O125 C119 1.208 . S
O126 Cd127 2.223 . S
O126 C134 1.315 . S
Cd127 O126 2.223 . S
Cd127 O130 2.297 . S
Cd127 O131 2.439 . S
Cd127 O137 2.240 . S
Cd128 O129 2.240 . S
Cd128 O136 2.223 . S
Cd128 O138 2.297 . S
Cd128 O139 2.439 . S
O129 Cd128 2.240 . S
O129 C134 1.279 . S
O130 Cd127 2.297 . S
O130 C132 1.247 . S
O131 Cd127 2.439 . S
O131 C132 1.208 . S
C132 O130 1.247 . S
C132 O131 1.208 . S
C133 O138 1.247 . S
C133 O139 1.208 . S
C134 O126 1.315 . S
C134 O129 1.279 . S
C135 O136 1.315 . S
C135 O137 1.279 . S
O136 Cd128 2.223 . S
O136 C135 1.315 . S
O137 Cd127 2.240 . S
O137 C135 1.279 . S
O138 Cd128 2.297 . S
O138 C133 1.247 . S
O139 Cd128 2.439 . S
O139 C133 1.208 . S
O140 Cd141 2.223 . S
O140 C148 1.315 . S
Cd141 O140 2.223 . S
Cd141 O144 2.297 . S
Cd141 O145 2.439 . S
Cd141 O151 2.240 . S
Cd142 O143 2.240 . S
Cd142 O150 2.223 . S
Cd142 O152 2.297 . S
Cd142 O153 2.439 . S
O143 Cd142 2.240 . S
O143 C148 1.279 . S
O144 Cd141 2.297 . S
O144 C146 1.247 . S
O145 Cd141 2.439 . S
O145 C146 1.208 . S
C146 O144 1.247 . S
C146 O145 1.208 . S
C147 O152 1.247 . S
C147 O153 1.208 . S
C148 O140 1.315 . S
C148 O143 1.279 . S
C149 O150 1.315 . S
C149 O151 1.279 . S
O150 Cd142 2.223 . S
O150 C149 1.315 . S
O151 Cd141 2.240 . S
O151 C149 1.279 . S
O152 Cd142 2.297 . S
O152 C147 1.247 . S
O153 Cd142 2.439 . S
O153 C147 1.208 . S
O154 Cd155 2.223 . S
O154 C162 1.315 . S
Cd155 O154 2.223 . S
Cd155 O158 2.297 . S
Cd155 O159 2.439 . S
Cd155 O165 2.240 . S
Cd156 O157 2.240 . S
Cd156 O164 2.223 . S
Cd156 O166 2.297 . S
Cd156 O167 2.439 . S
O157 Cd156 2.240 . S
O157 C162 1.279 . S
O158 Cd155 2.297 . S
O158 C160 1.247 . S
O159 Cd155 2.439 . S
O159 C160 1.208 . S
C160 O158 1.247 . S
C160 O159 1.208 . S
C161 O166 1.247 . S
C161 O167 1.208 . S
C162 O154 1.315 . S
C162 O157 1.279 . S
C163 O164 1.315 . S
C163 O165 1.279 . S
O164 Cd156 2.223 . S
O164 C163 1.315 . S
O165 Cd155 2.240 . S
O165 C163 1.279 . S
O166 Cd156 2.297 . S
O166 C161 1.247 . S
O167 Cd156 2.439 . S
O167 C161 1.208 . S
O168 Cd169 2.223 . S
O168 C176 1.315 . S
Cd169 O168 2.223 . S
Cd169 O172 2.297 . S
Cd169 O173 2.439 . S
Cd169 O179 2.240 . S
Cd170 O171 2.240 . S
Cd170 O178 2.223 . S
Cd170 O180 2.297 . S
Cd170 O181 2.439 . S
O171 Cd170 2.240 . S
O171 C176 1.279 . S
O172 Cd169 2.297 . S
O172 C174 1.247 . S
O173 Cd169 2.439 . S
O173 C174 1.208 . S
C174 O172 1.247 . S
C174 O173 1.208 . S
C175 O180 1.247 . S
C175 O181 1.208 . S
C176 O168 1.315 . S
C176 O171 1.279 . S
C177 O178 1.315 . S
C177 O179 1.279 . S
O178 Cd170 2.223 . S
O178 C177 1.315 . S
O179 Cd169 2.240 . S
O179 C177 1.279 . S
O180 Cd170 2.297 . S
O180 C175 1.247 . S
O181 Cd170 2.439 . S
O181 C175 1.208 . S
O182 Cd183 2.223 . S
O182 C190 1.315 . S
Cd183 O182 2.223 . S
Cd183 O186 2.297 . S
Cd183 O187 2.439 . S
Cd183 O193 2.240 . S
Cd184 O185 2.240 . S
Cd184 O192 2.223 . S
Cd184 O194 2.297 . S
Cd184 O195 2.439 . S
O185 Cd184 2.240 . S
O185 C190 1.279 . S
O186 Cd183 2.297 . S
O186 C188 1.247 . S
O187 Cd183 2.439 . S
O187 C188 1.208 . S
C188 O186 1.247 . S
C188 O187 1.208 . S
C189 O194 1.247 . S
C189 O195 1.208 . S
C190 O182 1.315 . S
C190 O185 1.279 . S
C191 O192 1.315 . S
C191 O193 1.279 . S
O192 Cd184 2.223 . S
O192 C191 1.315 . S
O193 Cd183 2.240 . S
O193 C191 1.279 . S
O194 Cd184 2.297 . S
O194 C189 1.247 . S
O195 Cd184 2.439 . S
O195 C189 1.208 . S
O196 Cd197 2.223 . S
O196 C204 1.315 . S
Cd197 O196 2.223 . S
Cd197 O200 2.297 . S
Cd197 O201 2.439 . S
Cd197 O207 2.240 . S
Cd198 O199 2.240 . S
Cd198 O206 2.223 . S
Cd198 O208 2.297 . S
Cd198 O209 2.439 . S
O199 Cd198 2.240 . S
O199 C204 1.279 . S
O200 Cd197 2.297 . S
O200 C202 1.247 . S
O201 Cd197 2.439 . S
O201 C202 1.208 . S
C202 O200 1.247 . S
C202 O201 1.208 . S
C203 O208 1.247 . S
C203 O209 1.208 . S
C204 O196 1.315 . S
C204 O199 1.279 . S
C205 O206 1.315 . S
C205 O207 1.279 . S
O206 Cd198 2.223 . S
O206 C205 1.315 . S
O207 Cd197 2.240 . S
O207 C205 1.279 . S
O208 Cd198 2.297 . S
O208 C203 1.247 . S
O209 Cd198 2.439 . S
O209 C203 1.208 . S
O210 Cd211 2.223 . S
O210 C218 1.315 . S
Cd211 O210 2.223 . S
Cd211 O214 2.297 . S
Cd211 O215 2.439 . S
Cd211 O221 2.240 . S
Cd212 O213 2.240 . S
Cd212 O220 2.223 . S
Cd212 O222 2.297 . S
Cd212 O223 2.439 . S
O213 Cd212 2.240 . S
O213 C218 1.279 . S
O214 Cd211 2.297 . S
O214 C216 1.247 . S
O215 Cd211 2.439 . S
O215 C216 1.208 . S
C216 O214 1.247 . S
C216 O215 1.208 . S
C217 O222 1.247 . S
C217 O223 1.208 . S
C218 O210 1.315 . S
C218 O213 1.279 . S
C219 O220 1.315 . S
C219 O221 1.279 . S
O220 Cd212 2.223 . S
O220 C219 1.315 . S
O221 Cd211 2.240 . S
O221 C219 1.279 . S
O222 Cd212 2.297 . S
O222 C217 1.247 . S
O223 Cd212 2.439 . S
O223 C217 1.208 . S
O224 Cd225 2.223 . S
O224 C232 1.315 . S
Cd225 O224 2.223 . S
Cd225 O228 2.297 . S
Cd225 O229 2.439 . S
Cd225 O235 2.240 . S
Cd226 O227 2.240 . S
Cd226 O234 2.223 . S
Cd226 O236 2.297 . S
Cd226 O237 2.439 . S
O227 Cd226 2.240 . S
O227 C232 1.279 . S
O228 Cd225 2.297 . S
O228 C230 1.247 . S
O229 Cd225 2.439 . S
O229 C230 1.208 . S
C230 O228 1.247 . S
C230 O229 1.208 . S
C231 O236 1.247 . S
C231 O237 1.208 . S
C232 O224 1.315 . S
C232 O227 1.279 . S
C233 O234 1.315 . S
C233 O235 1.279 . S
O234 Cd226 2.223 . S
O234 C233 1.315 . S
O235 Cd225 2.240 . S
O235 C233 1.279 . S
O236 Cd226 2.297 . S
O236 C231 1.247 . S
O237 Cd226 2.439 . S
O237 C231 1.208 . S
O238 Cd239 2.223 . S
O238 C246 1.315 . S
Cd239 O238 2.223 . S
Cd239 O242 2.297 . S
Cd239 O243 2.439 . S
Cd239 O249 2.240 . S
Cd240 O241 2.240 . S
Cd240 O248 2.223 . S
Cd240 O250 2.297 . S
Cd240 O251 2.439 . S
O241 Cd240 2.240 . S
O241 C246 1.279 . S
O242 Cd239 2.297 . S
O242 C244 1.247 . S
O243 Cd239 2.439 . S
O243 C244 1.208 . S
C244 O242 1.247 . S
C244 O243 1.208 . S
C245 O250 1.247 . S
C245 O251 1.208 . S
C246 O238 1.315 . S
C246 O241 1.279 . S
C247 O248 1.315 . S
C247 O249 1.279 . S
O248 Cd240 2.223 . S
O248 C247 1.315 . S
O249 Cd239 2.240 . S
O249 C247 1.279 . S
O250 Cd240 2.297 . S
O250 C245 1.247 . S
O251 Cd240 2.439 . S
O251 C245 1.208 . S
O252 Cd253 2.223 . S
O252 C260 1.315 . S
Cd253 O252 2.223 . S
Cd253 O256 2.297 . S
Cd253 O257 2.439 . S
Cd253 O263 2.240 . S
Cd254 O255 2.240 . S
Cd254 O262 2.223 . S
Cd254 O264 2.297 . S
Cd254 O265 2.439 . S
O255 Cd254 2.240 . S
O255 C260 1.279 . S
O256 Cd253 2.297 . S
O256 C258 1.247 . S
O257 Cd253 2.439 . S
O257 C258 1.208 . S
C258 O256 1.247 . S
C258 O257 1.208 . S
C259 O264 1.247 . S
C259 O265 1.208 . S
C260 O252 1.315 . S
C260 O255 1.279 . S
C261 O262 1.315 . S
C261 O263 1.279 . S
O262 Cd254 2.223 . S
O262 C261 1.315 . S
O263 Cd253 2.240 . S
O263 C261 1.279 . S
O264 Cd254 2.297 . S
O264 C259 1.247 . S
O265 Cd254 2.439 . S
O265 C259 1.208 . S
O266 Cd267 2.223 . S
O266 C274 1.315 . S
Cd267 O266 2.223 . S
Cd267 O270 2.297 . S
Cd267 O271 2.439 . S
Cd267 O277 2.240 . S
Cd268 O269 2.240 . S
Cd268 O276 2.223 . S
Cd268 O278 2.297 . S
Cd268 O279 2.439 . S
O269 Cd268 2.240 . S
O269 C274 1.279 . S
O270 Cd267 2.297 . S
O270 C272 1.247 . S
O271 Cd267 2.439 . S
O271 C272 1.208 . S
C272 O270 1.247 . S
C272 O271 1.208 . S
C273 O278 1.247 . S
C273 O279 1.208 . S
C274 O266 1.315 . S
C274 O269 1.279 . S
C275 O276 1.315 . S
C275 O277 1.279 . S
O276 Cd268 2.223 . S
O276 C275 1.315 . S
O277 Cd267 2.240 . S
O277 C275 1.279 . S
O278 Cd268 2.297 . S
O278 C273 1.247 . S
O279 Cd268 2.439 . S
O279 C273 1.208 . S
O280 Cd281 2.223 . S
O280 C288 1.315 . S
Cd281 O280 2.223 . S
Cd281 O284 2.297 . S
Cd281 O285 2.439 . S
Cd281 O291 2.240 . S
Cd282 O283 2.240 . S
Cd282 O290 2.223 . S
Cd282 O292 2.297 . S
Cd282 O293 2.439 . S
O283 Cd282 2.240 . S
O283 C288 1.279 . S
O284 Cd281 2.297 . S
O284 C286 1.247 . S
O285 Cd281 2.439 . S
O285 C286 1.208 . S
C286 O284 1.247 . S
C286 O285 1.208 . S
C287 O292 1.247 . S
C287 O293 1.208 . S
C288 O280 1.315 . S
C288 O283 1.279 . S
C289 O290 1.315 . S
C289 O291 1.279 . S
O290 Cd282 2.223 . S
O290 C289 1.315 . S
O291 Cd281 2.240 . S
O291 C289 1.279 . S
O292 Cd282 2.297 . S
O292 C287 1.247 . S
O293 Cd282 2.439 . S
O293 C287 1.208 . S
O294 Cd295 2.223 . S
O294 C302 1.315 . S
Cd295 O294 2.223 . S
Cd295 O298 2.297 . S
Cd295 O299 2.439 . S
Cd295 O305 2.240 . S
Cd296 O297 2.240 . S
Cd296 O304 2.223 . S
Cd296 O306 2.297 . S
Cd296 O307 2.439 . S
O297 Cd296 2.240 . S
O297 C302 1.279 . S
O298 Cd295 2.297 . S
O298 C300 1.247 . S
O299 Cd295 2.439 . S
O299 C300 1.208 . S
C300 O298 1.247 . S
C300 O299 1.208 . S
C301 O306 1.247 . S
C301 O307 1.208 . S
C302 O294 1.315 . S
C302 O297 1.279 . S
C303 O304 1.315 . S
C303 O305 1.279 . S
O304 Cd296 2.223 . S
O304 C303 1.315 . S
O305 Cd295 2.240 . S
O305 C303 1.279 . S
O306 Cd296 2.297 . S
O306 C301 1.247 . S
O307 Cd296 2.439 . S
O307 C301 1.208 . S
O308 Cd309 2.223 . S
O308 C316 1.315 . S
Cd309 O308 2.223 . S
Cd309 O312 2.297 . S
Cd309 O313 2.439 . S
Cd309 O319 2.240 . S
Cd310 O311 2.240 . S
Cd310 O318 2.223 . S
Cd310 O320 2.297 . S
Cd310 O321 2.439 . S
O311 Cd310 2.240 . S
O311 C316 1.279 . S
O312 Cd309 2.297 . S
O312 C314 1.247 . S
O313 Cd309 2.439 . S
O313 C314 1.208 . S
C314 O312 1.247 . S
C314 O313 1.208 . S
C315 O320 1.247 . S
C315 O321 1.208 . S
C316 O308 1.315 . S
C316 O311 1.279 . S
C317 O318 1.315 . S
C317 O319 1.279 . S
O318 Cd310 2.223 . S
O318 C317 1.315 . S
O319 Cd309 2.240 . S
O319 C317 1.279 . S
O320 Cd310 2.297 . S
O320 C315 1.247 . S
O321 Cd310 2.439 . S
O321 C315 1.208 . S
O322 Cd323 2.223 . S
O322 C330 1.315 . S
Cd323 O322 2.223 . S
Cd323 O326 2.297 . S
Cd323 O327 2.439 . S
Cd323 O333 2.240 . S
Cd324 O325 2.240 . S
Cd324 O332 2.223 . S
Cd324 O334 2.297 . S
Cd324 O335 2.439 . S
O325 Cd324 2.240 . S
O325 C330 1.279 . S
O326 Cd323 2.297 . S
O326 C328 1.247 . S
O327 Cd323 2.439 . S
O327 C328 1.208 . S
C328 O326 1.247 . S
C328 O327 1.208 . S
C329 O334 1.247 . S
C329 O335 1.208 . S
C330 O322 1.315 . S
C330 O325 1.279 . S
C331 O332 1.315 . S
C331 O333 1.279 . S
O332 Cd324 2.223 . S
O332 C331 1.315 . S
O333 Cd323 2.240 . S
O333 C331 1.279 . S
O334 Cd324 2.297 . S
O334 C329 1.247 . S
O335 Cd324 2.439 . S
O335 C329 1.208 . S
O336 Cd337 2.223 . S
O336 C344 1.315 . S
Cd337 O336 2.223 . S
Cd337 O340 2.297 . S
Cd337 O341 2.439 . S
Cd337 O347 2.240 . S
Cd338 O339 2.240 . S
Cd338 O346 2.223 . S
Cd338 O348 2.297 . S
Cd338 O349 2.439 . S
O339 Cd338 2.240 . S
O339 C344 1.279 . S
O340 Cd337 2.297 . S
O340 C342 1.247 . S
O341 Cd337 2.439 . S
O341 C342 1.208 . S
C342 O340 1.247 . S
C342 O341 1.208 . S
C343 O348 1.247 . S
C343 O349 1.208 . S
C344 O336 1.315 . S
C344 O339 1.279 . S
C345 O346 1.315 . S
C345 O347 1.279 . S
O346 Cd338 2.223 . S
O346 C345 1.315 . S
O347 Cd337 2.240 . S
O347 C345 1.279 . S
O348 Cd338 2.297 . S
O348 C343 1.247 . S
O349 Cd338 2.439 . S
O349 C343 1.208 . S
O350 Cd351 2.223 . S
O350 C358 1.315 . S
Cd351 O350 2.223 . S
Cd351 O354 2.297 . S
Cd351 O355 2.439 . S
Cd351 O361 2.240 . S
Cd352 O353 2.240 . S
Cd352 O360 2.223 . S
Cd352 O362 2.297 . S
Cd352 O363 2.439 . S
O353 Cd352 2.240 . S
O353 C358 1.279 . S
O354 Cd351 2.297 . S
O354 C356 1.247 . S
O355 Cd351 2.439 . S
O355 C356 1.208 . S
C356 O354 1.247 . S
C356 O355 1.208 . S
C357 O362 1.247 . S
C357 O363 1.208 . S
C358 O350 1.315 . S
C358 O353 1.279 . S
C359 O360 1.315 . S
C359 O361 1.279 . S
O360 Cd352 2.223 . S
O360 C359 1.315 . S
O361 Cd351 2.240 . S
O361 C359 1.279 . S
O362 Cd352 2.297 . S
O362 C357 1.247 . S
O363 Cd352 2.439 . S
O363 C357 1.208 . S
O364 Cd365 2.223 . S
O364 C372 1.315 . S
Cd365 O364 2.223 . S
Cd365 O368 2.297 . S
Cd365 O369 2.439 . S
Cd365 O375 2.240 . S
Cd366 O367 2.240 . S
Cd366 O374 2.223 . S
Cd366 O376 2.297 . S
Cd366 O377 2.439 . S
O367 Cd366 2.240 . S
O367 C372 1.279 . S
O368 Cd365 2.297 . S
O368 C370 1.247 . S
O369 Cd365 2.439 . S
O369 C370 1.208 . S
C370 O368 1.247 . S
C370 O369 1.208 . S
C371 O376 1.247 . S
C371 O377 1.208 . S
C372 O364 1.315 . S
C372 O367 1.279 . S
C373 O374 1.315 . S
C373 O375 1.279 . S
O374 Cd366 2.223 . S
O374 C373 1.315 . S
O375 Cd365 2.240 . S
O375 C373 1.279 . S
O376 Cd366 2.297 . S
O376 C371 1.247 . S
O377 Cd366 2.439 . S
O377 C371 1.208 . S
O378 Cd379 2.223 . S
O378 C386 1.315 . S
Cd379 O378 2.223 . S
Cd379 O382 2.297 . S
Cd379 O383 2.439 . S
Cd379 O389 2.240 . S
Cd380 O381 2.240 . S
Cd380 O388 2.223 . S
Cd380 O390 2.297 . S
Cd380 O391 2.439 . S
O381 Cd380 2.240 . S
O381 C386 1.279 . S
O382 Cd379 2.297 . S
O382 C384 1.247 . S
O383 Cd379 2.439 . S
O383 C384 1.208 . S
C384 O382 1.247 . S
C384 O383 1.208 . S
C385 O390 1.247 . S
C385 O391 1.208 . S
C386 O378 1.315 . S
C386 O381 1.279 . S
C387 O388 1.315 . S
C387 O389 1.279 . S
O388 Cd380 2.223 . S
O388 C387 1.315 . S
O389 Cd379 2.240 . S
O389 C387 1.279 . S
O390 Cd380 2.297 . S
O390 C385 1.247 . S
O391 Cd380 2.439 . S
O391 C385 1.208 . S
O392 Cd393 2.223 . S
O392 C400 1.315 . S
Cd393 O392 2.223 . S
Cd393 O396 2.297 . S
Cd393 O397 2.439 . S
Cd393 O403 2.240 . S
Cd394 O395 2.240 . S
Cd394 O402 2.223 . S
Cd394 O404 2.297 . S
Cd394 O405 2.439 . S
O395 Cd394 2.240 . S
O395 C400 1.279 . S
O396 Cd393 2.297 . S
O396 C398 1.247 . S
O397 Cd393 2.439 . S
O397 C398 1.208 . S
C398 O396 1.247 . S
C398 O397 1.208 . S
C399 O404 1.247 . S
C399 O405 1.208 . S
C400 O392 1.315 . S
C400 O395 1.279 . S
C401 O402 1.315 . S
C401 O403 1.279 . S
O402 Cd394 2.223 . S
O402 C401 1.315 . S
O403 Cd393 2.240 . S
O403 C401 1.279 . S
O404 Cd394 2.297 . S
O404 C399 1.247 . S
O405 Cd394 2.439 . S
O405 C399 1.208 . S
O406 Cd407 2.223 . S
O406 C414 1.315 . S
Cd407 O406 2.223 . S
Cd407 O410 2.297 . S
Cd407 O411 2.439 . S
Cd407 O417 2.240 . S
Cd408 O409 2.240 . S
Cd408 O416 2.223 . S
Cd408 O418 2.297 . S
Cd408 O419 2.439 . S
O409 Cd408 2.240 . S
O409 C414 1.279 . S
O410 Cd407 2.297 . S
O410 C412 1.247 . S
O411 Cd407 2.439 . S
O411 C412 1.208 . S
C412 O410 1.247 . S
C412 O411 1.208 . S
C413 O418 1.247 . S
C413 O419 1.208 . S
C414 O406 1.315 . S
C414 O409 1.279 . S
C415 O416 1.315 . S
C415 O417 1.279 . S
O416 Cd408 2.223 . S
O416 C415 1.315 . S
O417 Cd407 2.240 . S
O417 C415 1.279 . S
O418 Cd408 2.297 . S
O418 C413 1.247 . S
O419 Cd408 2.439 . S
O419 C413 1.208 . S
O420 Cd421 2.223 . S
O420 C428 1.315 . S
Cd421 O420 2.223 . S
Cd421 O424 2.297 . S
Cd421 O425 2.439 . S
Cd421 O431 2.240 . S
Cd422 O423 2.240 . S
Cd422 O430 2.223 . S
Cd422 O432 2.297 . S
Cd422 O433 2.439 . S
O423 Cd422 2.240 . S
O423 C428 1.279 . S
O424 Cd421 2.297 . S
O424 C426 1.247 . S
O425 Cd421 2.439 . S
O425 C426 1.208 . S
C426 O424 1.247 . S
C426 O425 1.208 . S
C427 O432 1.247 . S
C427 O433 1.208 . S
C428 O420 1.315 . S
C428 O423 1.279 . S
C429 O430 1.315 . S
C429 O431 1.279 . S
O430 Cd422 2.223 . S
O430 C429 1.315 . S
O431 Cd421 2.240 . S
O431 C429 1.279 . S
O432 Cd422 2.297 . S
O432 C427 1.247 . S
O433 Cd422 2.439 . S
O433 C427 1.208 . S
O434 Cd435 2.223 . S
O434 C442 1.315 . S
Cd435 O434 2.223 . S
Cd435 O438 2.297 . S
Cd435 O439 2.439 . S
Cd435 O445 2.240 . S
Cd436 O437 2.240 . S
Cd436 O444 2.223 . S
Cd436 O446 2.297 . S
Cd436 O447 2.439 . S
O437 Cd436 2.240 . S
O437 C442 1.279 . S
O438 Cd435 2.297 . S
O438 C440 1.247 . S
O439 Cd435 2.439 . S
O439 C440 1.208 . S
C440 O438 1.247 . S
C440 O439 1.208 . S
C441 O446 1.247 . S
C441 O447 1.208 . S
C442 O434 1.315 . S
C442 O437 1.279 . S
C443 O444 1.315 . S
C443 O445 1.279 . S
O444 Cd436 2.223 . S
O444 C443 1.315 . S
O445 Cd435 2.240 . S
O445 C443 1.279 . S
O446 Cd436 2.297 . S
O446 C441 1.247 . S
O447 Cd436 2.439 . S
O447 C441 1.208 . S
O448 Cd449 2.223 . S
O448 C456 1.315 . S
Cd449 O448 2.223 . S
Cd449 O452 2.297 . S
Cd449 O453 2.439 . S
Cd449 O459 2.240 . S
Cd450 O451 2.240 . S
Cd450 O458 2.223 . S
Cd450 O460 2.297 . S
Cd450 O461 2.439 . S
O451 Cd450 2.240 . S
O451 C456 1.279 . S
O452 Cd449 2.297 . S
O452 C454 1.247 . S
O453 Cd449 2.439 . S
O453 C454 1.208 . S
C454 O452 1.247 . S
C454 O453 1.208 . S
C455 O460 1.247 . S
C455 O461 1.208 . S
C456 O448 1.315 . S
C456 O451 1.279 . S
C457 O458 1.315 . S
C457 O459 1.279 . S
O458 Cd450 2.223 . S
O458 C457 1.315 . S
O459 Cd449 2.240 . S
O459 C457 1.279 . S
O460 Cd450 2.297 . S
O460 C455 1.247 . S
O461 Cd450 2.439 . S
O461 C455 1.208 . S
O462 Cd463 2.223 . S
O462 C470 1.315 . S
Cd463 O462 2.223 . S
Cd463 O466 2.297 . S
Cd463 O467 2.439 . S
Cd463 O473 2.240 . S
Cd464 O465 2.240 . S
Cd464 O472 2.223 . S
Cd464 O474 2.297 . S
Cd464 O475 2.439 . S
O465 Cd464 2.240 . S
O465 C470 1.279 . S
O466 Cd463 2.297 . S
O466 C468 1.247 . S
O467 Cd463 2.439 . S
O467 C468 1.208 . S
C468 O466 1.247 . S
C468 O467 1.208 . S
C469 O474 1.247 . S
C469 O475 1.208 . S
C470 O462 1.315 . S
C470 O465 1.279 . S
C471 O472 1.315 . S
C471 O473 1.279 . S
O472 Cd464 2.223 . S
O472 C471 1.315 . S
O473 Cd463 2.240 . S
O473 C471 1.279 . S
O474 Cd464 2.297 . S
O474 C469 1.247 . S
O475 Cd464 2.439 . S
O475 C469 1.208 . S
O476 Cd477 2.223 . S
O476 C484 1.315 . S
Cd477 O476 2.223 . S
Cd477 O480 2.297 . S
Cd477 O481 2.439 . S
Cd477 O487 2.240 . S
Cd478 O479 2.240 . S
Cd478 O486 2.223 . S
Cd478 O488 2.297 . S
Cd478 O489 2.439 . S
O479 Cd478 2.240 . S
O479 C484 1.279 . S
O480 Cd477 2.297 . S
O480 C482 1.247 . S
O481 Cd477 2.439 . S
O481 C482 1.208 . S
C482 O480 1.247 . S
C482 O481 1.208 . S
C483 O488 1.247 . S
C483 O489 1.208 . S
C484 O476 1.315 . S
C484 O479 1.279 . S
C485 O486 1.315 . S
C485 O487 1.279 . S
O486 Cd478 2.223 . S
O486 C485 1.315 . S
O487 Cd477 2.240 . S
O487 C485 1.279 . S
O488 Cd478 2.297 . S
O488 C483 1.247 . S
O489 Cd478 2.439 . S
O489 C483 1.208 . S
O490 Cd491 2.223 . S
O490 C498 1.315 . S
Cd491 O490 2.223 . S
Cd491 O494 2.297 . S
Cd491 O495 2.439 . S
Cd491 O501 2.240 . S
Cd492 O493 2.240 . S
Cd492 O500 2.223 . S
Cd492 O502 2.297 . S
Cd492 O503 2.439 . S
O493 Cd492 2.240 . S
O493 C498 1.279 . S
O494 Cd491 2.297 . S
O494 C496 1.247 . S
O495 Cd491 2.439 . S
O495 C496 1.208 . S
C496 O494 1.247 . S
C496 O495 1.208 . S
C497 O502 1.247 . S
C497 O503 1.208 . S
C498 O490 1.315 . S
C498 O493 1.279 . S
C499 O500 1.315 . S
C499 O501 1.279 . S
O500 Cd492 2.223 . S
O500 C499 1.315 . S
O501 Cd491 2.240 . S
O501 C499 1.279 . S
O502 Cd492 2.297 . S
O502 C497 1.247 . S
O503 Cd492 2.439 . S
O503 C497 1.208 . S
O504 Cd505 2.223 . S
O504 C512 1.315 . S
Cd505 O504 2.223 . S
Cd505 O508 2.297 . S
Cd505 O509 2.439 . S
Cd505 O515 2.240 . S
Cd506 O507 2.240 . S
Cd506 O514 2.223 . S
Cd506 O516 2.297 . S
Cd506 O517 2.439 . S
O507 Cd506 2.240 . S
O507 C512 1.279 . S
O508 Cd505 2.297 . S
O508 C510 1.247 . S
O509 Cd505 2.439 . S
O509 C510 1.208 . S
C510 O508 1.247 . S
C510 O509 1.208 . S
C511 O516 1.247 . S
C511 O517 1.208 . S
C512 O504 1.315 . S
C512 O507 1.279 . S
C513 O514 1.315 . S
C513 O515 1.279 . S
O514 Cd506 2.223 . S
O514 C513 1.315 . S
O515 Cd505 2.240 . S
O515 C513 1.279 . S
O516 Cd506 2.297 . S
O516 C511 1.247 . S
O517 Cd506 2.439 . S
O517 C511 1.208 . S
O518 Cd519 2.223 . S
O518 C526 1.315 . S
Cd519 O518 2.223 . S
Cd519 O522 2.297 . S
Cd519 O523 2.439 . S
Cd519 O529 2.240 . S
Cd520 O521 2.240 . S
Cd520 O528 2.223 . S
Cd520 O530 2.297 . S
Cd520 O531 2.439 . S
O521 Cd520 2.240 . S
O521 C526 1.279 . S
O522 Cd519 2.297 . S
O522 C524 1.247 . S
O523 Cd519 2.439 . S
O523 C524 1.208 . S
C524 O522 1.247 . S
C524 O523 1.208 . S
C525 O530 1.247 . S
C525 O531 1.208 . S
C526 O518 1.315 . S
C526 O521 1.279 . S
C527 O528 1.315 . S
C527 O529 1.279 . S
O528 Cd520 2.223 . S
O528 C527 1.315 . S
O529 Cd519 2.240 . S
O529 C527 1.279 . S
O530 Cd520 2.297 . S
O530 C525 1.247 . S
O531 Cd520 2.439 . S
O531 C525 1.208 . S
O532 Cd533 2.223 . S
O532 C540 1.315 . S
Cd533 O532 2.223 . S
Cd533 O536 2.297 . S
Cd533 O537 2.439 . S
Cd533 O543 2.240 . S
Cd534 O535 2.240 . S
Cd534 O542 2.223 . S
Cd534 O544 2.297 . S
Cd534 O545 2.439 . S
O535 Cd534 2.240 . S
O535 C540 1.279 . S
O536 Cd533 2.297 . S
O536 C538 1.247 . S
O537 Cd533 2.439 . S
O537 C538 1.208 . S
C538 O536 1.247 . S
C538 O537 1.208 . S
C539 O544 1.247 . S
C539 O545 1.208 . S
C540 O532 1.315 . S
C540 O535 1.279 . S
C541 O542 1.315 . S
C541 O543 1.279 . S
O542 Cd534 2.223 . S
O542 C541 1.315 . S
O543 Cd533 2.240 . S
O543 C541 1.279 . S
O544 Cd534 2.297 . S
O544 C539 1.247 . S
O545 Cd534 2.439 . S
O545 C539 1.208 . S
O546 Cd547 2.223 . S
O546 C554 1.315 . S
Cd547 O546 2.223 . S
Cd547 O550 2.297 . S
Cd547 O551 2.439 . S
Cd547 O557 2.240 . S
Cd548 O549 2.240 . S
Cd548 O556 2.223 . S
Cd548 O558 2.297 . S
Cd548 O559 2.439 . S
O549 Cd548 2.240 . S
O549 C554 1.279 . S
O550 Cd547 2.297 . S
O550 C552 1.247 . S
O551 Cd547 2.439 . S
O551 C552 1.208 . S
C552 O550 1.247 . S
C552 O551 1.208 . S
C553 O558 1.247 . S
C553 O559 1.208 . S
C554 O546 1.315 . S
C554 O549 1.279 . S
C555 O556 1.315 . S
C555 O557 1.279 . S
O556 Cd548 2.223 . S
O556 C555 1.315 . S
O557 Cd547 2.240 . S
O557 C555 1.279 . S
O558 Cd548 2.297 . S
O558 C553 1.247 . S
O559 Cd548 2.439 . S
O559 C553 1.208 . S
O560 Cd561 2.223 . S
O560 C568 1.315 . S
Cd561 O560 2.223 . S
Cd561 O564 2.297 . S
Cd561 O565 2.439 . S
Cd561 O571 2.240 . S
Cd562 O563 2.240 . S
Cd562 O570 2.223 . S
Cd562 O572 2.297 . S
Cd562 O573 2.439 . S
O563 Cd562 2.240 . S
O563 C568 1.279 . S
O564 Cd561 2.297 . S
O564 C566 1.247 . S
O565 Cd561 2.439 . S
O565 C566 1.208 . S
C566 O564 1.247 . S
C566 O565 1.208 . S
C567 O572 1.247 . S
C567 O573 1.208 . S
C568 O560 1.315 . S
C568 O563 1.279 . S
C569 O570 1.315 . S
C569 O571 1.279 . S
O570 Cd562 2.223 . S
O570 C569 1.315 . S
O571 Cd561 2.240 . S
O571 C569 1.279 . S
O572 Cd562 2.297 . S
O572 C567 1.247 . S
O573 Cd562 2.439 . S
O573 C567 1.208 . S
O574 Cd575 2.223 . S
O574 C582 1.315 . S
Cd575 O574 2.223 . S
Cd575 O578 2.297 . S
Cd575 O579 2.439 . S
Cd575 O585 2.240 . S
Cd576 O577 2.240 . S
Cd576 O584 2.223 . S
Cd576 O586 2.297 . S
Cd576 O587 2.439 . S
O577 Cd576 2.240 . S
O577 C582 1.279 . S
O578 Cd575 2.297 . S
O578 C580 1.247 . S
O579 Cd575 2.439 . S
O579 C580 1.208 . S
C580 O578 1.247 . S
C580 O579 1.208 . S
C581 O586 1.247 . S
C581 O587 1.208 . S
C582 O574 1.315 . S
C582 O577 1.279 . S
C583 O584 1.315 . S
C583 O585 1.279 . S
O584 Cd576 2.223 . S
O584 C583 1.315 . S
O585 Cd575 2.240 . S
O585 C583 1.279 . S
O586 Cd576 2.297 . S
O586 C581 1.247 . S
O587 Cd576 2.439 . S
O587 C581 1.208 . S
O588 Cd589 2.223 . S
O588 C596 1.315 . S
Cd589 O588 2.223 . S
Cd589 O592 2.297 . S
Cd589 O593 2.439 . S
Cd589 O599 2.240 . S
Cd590 O591 2.240 . S
Cd590 O598 2.223 . S
Cd590 O600 2.297 . S
Cd590 O601 2.439 . S
O591 Cd590 2.240 . S
O591 C596 1.279 . S
O592 Cd589 2.297 . S
O592 C594 1.247 . S
O593 Cd589 2.439 . S
O593 C594 1.208 . S
C594 O592 1.247 . S
C594 O593 1.208 . S
C595 O600 1.247 . S
C595 O601 1.208 . S
C596 O588 1.315 . S
C596 O591 1.279 . S
C597 O598 1.315 . S
C597 O599 1.279 . S
O598 Cd590 2.223 . S
O598 C597 1.315 . S
O599 Cd589 2.240 . S
O599 C597 1.279 . S
O600 Cd590 2.297 . S
O600 C595 1.247 . S
O601 Cd590 2.439 . S
O601 C595 1.208 . S
O602 Cd603 2.223 . S
O602 C610 1.315 . S
Cd603 O602 2.223 . S
Cd603 O606 2.297 . S
Cd603 O607 2.439 . S
Cd603 O613 2.240 . S
Cd604 O605 2.240 . S
Cd604 O612 2.223 . S
Cd604 O614 2.297 . S
Cd604 O615 2.439 . S
O605 Cd604 2.240 . S
O605 C610 1.279 . S
O606 Cd603 2.297 . S
O606 C608 1.247 . S
O607 Cd603 2.439 . S
O607 C608 1.208 . S
C608 O606 1.247 . S
C608 O607 1.208 . S
C609 O614 1.247 . S
C609 O615 1.208 . S
C610 O602 1.315 . S
C610 O605 1.279 . S
C611 O612 1.315 . S
C611 O613 1.279 . S
O612 Cd604 2.223 . S
O612 C611 1.315 . S
O613 Cd603 2.240 . S
O613 C611 1.279 . S
O614 Cd604 2.297 . S
O614 C609 1.247 . S
O615 Cd604 2.439 . S
O615 C609 1.208 . S
O616 Cd617 2.223 . S
O616 C624 1.315 . S
Cd617 O616 2.223 . S
Cd617 O620 2.297 . S
Cd617 O621 2.439 . S
Cd617 O627 2.240 . S
Cd618 O619 2.240 . S
Cd618 O626 2.223 . S
Cd618 O628 2.297 . S
Cd618 O629 2.439 . S
O619 Cd618 2.240 . S
O619 C624 1.279 . S
O620 Cd617 2.297 . S
O620 C622 1.247 . S
O621 Cd617 2.439 . S
O621 C622 1.208 . S
C622 O620 1.247 . S
C622 O621 1.208 . S
C623 O628 1.247 . S
C623 O629 1.208 . S
C624 O616 1.315 . S
C624 O619 1.279 . S
C625 O626 1.315 . S
C625 O627 1.279 . S
O626 Cd618 2.223 . S
O626 C625 1.315 . S
O627 Cd617 2.240 . S
O627 C625 1.279 . S
O628 Cd618 2.297 . S
O628 C623 1.247 . S
O629 Cd618 2.439 . S
O629 C623 1.208 . S
O630 Cd631 2.223 . S
O630 C638 1.315 . S
Cd631 O630 2.223 . S
Cd631 O634 2.297 . S
Cd631 O635 2.439 . S
Cd631 O641 2.240 . S
Cd632 O633 2.240 . S
Cd632 O640 2.223 . S
Cd632 O642 2.297 . S
Cd632 O643 2.439 . S
O633 Cd632 2.240 . S
O633 C638 1.279 . S
O634 Cd631 2.297 . S
O634 C636 1.247 . S
O635 Cd631 2.439 . S
O635 C636 1.208 . S
C636 O634 1.247 . S
C636 O635 1.208 . S
C637 O642 1.247 . S
C637 O643 1.208 . S
C638 O630 1.315 . S
C638 O633 1.279 . S
C639 O640 1.315 . S
C639 O641 1.279 . S
O640 Cd632 2.223 . S
O640 C639 1.315 . S
O641 Cd631 2.240 . S
O641 C639 1.279 . S
O642 Cd632 2.297 . S
O642 C637 1.247 . S
O643 Cd632 2.439 . S
O643 C637 1.208 . S
O644 Cd645 2.223 . S
O644 C652 1.315 . S
Cd645 O644 2.223 . S
Cd645 O648 2.297 . S
Cd645 O649 2.439 . S
Cd645 O655 2.240 . S
Cd646 O647 2.240 . S
Cd646 O654 2.223 . S
Cd646 O656 2.297 . S
Cd646 O657 2.439 . S
O647 Cd646 2.240 . S
O647 C652 1.279 . S
O648 Cd645 2.297 . S
O648 C650 1.247 . S
O649 Cd645 2.439 . S
O649 C650 1.208 . S
C650 O648 1.247 . S
C650 O649 1.208 . S
C651 O656 1.247 . S
C651 O657 1.208 . S
C652 O644 1.315 . S
C652 O647 1.279 . S
C653 O654 1.315 . S
C653 O655 1.279 . S
O654 Cd646 2.223 . S
O654 C653 1.315 . S
O655 Cd645 2.240 . S
O655 C653 1.279 . S
O656 Cd646 2.297 . S
O656 C651 1.247 . S
O657 Cd646 2.439 . S
O657 C651 1.208 . S
O658 Cd659 2.223 . S
O658 C666 1.315 . S
Cd659 O658 2.223 . S
Cd659 O662 2.297 . S
Cd659 O663 2.439 . S
Cd659 O669 2.240 . S
Cd660 O661 2.240 . S
Cd660 O668 2.223 . S
Cd660 O670 2.297 . S
Cd660 O671 2.439 . S
O661 Cd660 2.240 . S
O661 C666 1.279 . S
O662 Cd659 2.297 . S
O662 C664 1.247 . S
O663 Cd659 2.439 . S
O663 C664 1.208 . S
C664 O662 1.247 . S
C664 O663 1.208 . S
C665 O670 1.247 . S
C665 O671 1.208 . S
C666 O658 1.315 . S
C666 O661 1.279 . S
C667 O668 1.315 . S
C667 O669 1.279 . S
O668 Cd660 2.223 . S
O668 C667 1.315 . S
O669 Cd659 2.240 . S
O669 C667 1.279 . S
O670 Cd660 2.297 . S
O670 C665 1.247 . S
O671 Cd660 2.439 . S
O671 C665 1.208 . S
C672 C673 1.387 . S
C672 H676 0.950 . S
C672 C681 1.390 . S
C673 C672 1.387 . S
C673 C675 1.387 . S
H674 C681 0.950 . S
C675 C673 1.387 . S
C675 C677 1.390 . S
C675 H679 0.950 . S
H676 C672 0.950 . S
C677 C675 1.390 . S
C677 C678 1.387 . S
C677 H680 0.950 . S
C678 C677 1.387 . S
C678 C681 1.387 . S
H679 C675 0.950 . S
H680 C677 0.950 . S
C681 C672 1.390 . S
C681 H674 0.950 . S
C681 C678 1.387 . S
C682 C683 1.387 . S
C682 H686 0.950 . S
C682 C691 1.390 . S
C683 C682 1.387 . S
C683 C685 1.387 . S
H684 C691 0.950 . S
C685 C683 1.387 . S
C685 C687 1.390 . S
C685 H689 0.950 . S
H686 C682 0.950 . S
C687 C685 1.390 . S
C687 C688 1.387 . S
C687 H690 0.950 . S
C688 C687 1.387 . S
C688 C691 1.387 . S
H689 C685 0.950 . S
H690 C687 0.950 . S
C691 C682 1.390 . S
C691 H684 0.950 . S
C691 C688 1.387 . S
C692 C693 1.387 . S
C692 H696 0.950 . S
C692 C701 1.390 . S
C693 C692 1.387 . S
C693 C695 1.387 . S
H694 C701 0.950 . S
C695 C693 1.387 . S
C695 C697 1.390 . S
C695 H699 0.950 . S
H696 C692 0.950 . S
C697 C695 1.390 . S
C697 C698 1.387 . S
C697 H700 0.950 . S
C698 C697 1.387 . S
C698 C701 1.387 . S
H699 C695 0.950 . S
H700 C697 0.950 . S
C701 C692 1.390 . S
C701 H694 0.950 . S
C701 C698 1.387 . S
C702 C703 1.387 . S
C702 H706 0.950 . S
C702 C711 1.390 . S
C703 C702 1.387 . S
C703 C705 1.387 . S
H704 C711 0.950 . S
C705 C703 1.387 . S
C705 C707 1.390 . S
C705 H709 0.950 . S
H706 C702 0.950 . S
C707 C705 1.390 . S
C707 C708 1.387 . S
C707 H710 0.950 . S
C708 C707 1.387 . S
C708 C711 1.387 . S
H709 C705 0.950 . S
H710 C707 0.950 . S
C711 C702 1.390 . S
C711 H704 0.950 . S
C711 C708 1.387 . S
C712 C713 1.387 . S
C712 H716 0.950 . S
C712 C721 1.390 . S
C713 C712 1.387 . S
C713 C715 1.387 . S
H714 C721 0.950 . S
C715 C713 1.387 . S
C715 C717 1.390 . S
C715 H719 0.950 . S
H716 C712 0.950 . S
C717 C715 1.390 . S
C717 C718 1.387 . S
C717 H720 0.950 . S
C718 C717 1.387 . S
C718 C721 1.387 . S
H719 C715 0.950 . S
H720 C717 0.950 . S
C721 C712 1.390 . S
C721 H714 0.950 . S
C721 C718 1.387 . S
C722 C723 1.387 . S
C722 H726 0.950 . S
C722 C731 1.390 . S
C723 C722 1.387 . S
C723 C725 1.387 . S
H724 C731 0.950 . S
C725 C723 1.387 . S
C725 C727 1.390 . S
C725 H729 0.950 . S
H726 C722 0.950 . S
C727 C725 1.390 . S
C727 C728 1.387 . S
C727 H730 0.950 . S
C728 C727 1.387 . S
C728 C731 1.387 . S
H729 C725 0.950 . S
H730 C727 0.950 . S
C731 C722 1.390 . S
C731 H724 0.950 . S
C731 C728 1.387 . S
C732 C733 1.387 . S
C732 H736 0.950 . S
C732 C741 1.390 . S
C733 C732 1.387 . S
C733 C735 1.387 . S
H734 C741 0.950 . S
C735 C733 1.387 . S
C735 C737 1.390 . S
C735 H739 0.950 . S
H736 C732 0.950 . S
C737 C735 1.390 . S
C737 C738 1.387 . S
C737 H740 0.950 . S
C738 C737 1.387 . S
C738 C741 1.387 . S
H739 C735 0.950 . S
H740 C737 0.950 . S
C741 C732 1.390 . S
C741 H734 0.950 . S
C741 C738 1.387 . S
C742 C743 1.387 . S
C742 H746 0.950 . S
C742 C751 1.390 . S
C743 C742 1.387 . S
C743 C745 1.387 . S
H744 C751 0.950 . S
C745 C743 1.387 . S
C745 C747 1.390 . S
C745 H749 0.950 . S
H746 C742 0.950 . S
C747 C745 1.390 . S
C747 C748 1.387 . S
C747 H750 0.950 . S
C748 C747 1.387 . S
C748 C751 1.387 . S
H749 C745 0.950 . S
H750 C747 0.950 . S
C751 C742 1.390 . S
C751 H744 0.950 . S
C751 C748 1.387 . S
C752 C753 1.387 . S
C752 H756 0.950 . S
C752 C761 1.390 . S
C753 C752 1.387 . S
C753 C755 1.387 . S
H754 C761 0.950 . S
C755 C753 1.387 . S
C755 C757 1.390 . S
C755 H759 0.950 . S
H756 C752 0.950 . S
C757 C755 1.390 . S
C757 C758 1.387 . S
C757 H760 0.950 . S
C758 C757 1.387 . S
C758 C761 1.387 . S
H759 C755 0.950 . S
H760 C757 0.950 . S
C761 C752 1.390 . S
C761 H754 0.950 . S
C761 C758 1.387 . S
C762 C763 1.387 . S
C762 H766 0.950 . S
C762 C771 1.390 . S
C763 C762 1.387 . S
C763 C765 1.387 . S
H764 C771 0.950 . S
C765 C763 1.387 . S
C765 C767 1.390 . S
C765 H769 0.950 . S
H766 C762 0.950 . S
C767 C765 1.390 . S
C767 C768 1.387 . S
C767 H770 0.950 . S
C768 C767 1.387 . S
C768 C771 1.387 . S
H769 C765 0.950 . S
H770 C767 0.950 . S
C771 C762 1.390 . S
C771 H764 0.950 . S
C771 C768 1.387 . S
C772 C773 1.387 . S
C772 H776 0.950 . S
C772 C781 1.390 . S
C773 C772 1.387 . S
C773 C775 1.387 . S
H774 C781 0.950 . S
C775 C773 1.387 . S
C775 C777 1.390 . S
C775 H779 0.950 . S
H776 C772 0.950 . S
C777 C775 1.390 . S
C777 C778 1.387 . S
C777 H780 0.950 . S
C778 C777 1.387 . S
C778 C781 1.387 . S
H779 C775 0.950 . S
H780 C777 0.950 . S
C781 C772 1.390 . S
C781 H774 0.950 . S
C781 C778 1.387 . S
C782 C783 1.387 . S
C782 H786 0.950 . S
C782 C791 1.390 . S
C783 C782 1.387 . S
C783 C785 1.387 . S
H784 C791 0.950 . S
C785 C783 1.387 . S
C785 C787 1.390 . S
C785 H789 0.950 . S
H786 C782 0.950 . S
C787 C785 1.390 . S
C787 C788 1.387 . S
C787 H790 0.950 . S
C788 C787 1.387 . S
C788 C791 1.387 . S
H789 C785 0.950 . S
H790 C787 0.950 . S
C791 C782 1.390 . S
C791 H784 0.950 . S
C791 C788 1.387 . S
C792 C793 1.387 . S
C792 H796 0.950 . S
C792 C801 1.390 . S
C793 C792 1.387 . S
C793 C795 1.387 . S
H794 C801 0.950 . S
C795 C793 1.387 . S
C795 C797 1.390 . S
C795 H799 0.950 . S
H796 C792 0.950 . S
C797 C795 1.390 . S
C797 C798 1.387 . S
C797 H800 0.950 . S
C798 C797 1.387 . S
C798 C801 1.387 . S
H799 C795 0.950 . S
H800 C797 0.950 . S
C801 C792 1.390 . S
C801 H794 0.950 . S
C801 C798 1.387 . S
C802 C803 1.387 . S
C802 H806 0.950 . S
C802 C811 1.390 . S
C803 C802 1.387 . S
C803 C805 1.387 . S
H804 C811 0.950 . S
C805 C803 1.387 . S
C805 C807 1.390 . S
C805 H809 0.950 . S
H806 C802 0.950 . S
C807 C805 1.390 . S
C807 C808 1.387 . S
C807 H810 0.950 . S
C808 C807 1.387 . S
C808 C811 1.387 . S
H809 C805 0.950 . S
H810 C807 0.950 . S
C811 C802 1.390 . S
C811 H804 0.950 . S
C811 C808 1.387 . S
C812 C813 1.387 . S
C812 H816 0.950 . S
C812 C821 1.390 . S
C813 C812 1.387 . S
C813 C815 1.387 . S
H814 C821 0.950 . S
C815 C813 1.387 . S
C815 C817 1.390 . S
C815 H819 0.950 . S
H816 C812 0.950 . S
C817 C815 1.390 . S
C817 C818 1.387 . S
C817 H820 0.950 . S
C818 C817 1.387 . S
C818 C821 1.387 . S
H819 C815 0.950 . S
H820 C817 0.950 . S
C821 C812 1.390 . S
C821 H814 0.950 . S
C821 C818 1.387 . S
C822 C823 1.387 . S
C822 H826 0.950 . S
C822 C831 1.390 . S
C823 C822 1.387 . S
C823 C825 1.387 . S
H824 C831 0.950 . S
C825 C823 1.387 . S
C825 C827 1.390 . S
C825 H829 0.950 . S
H826 C822 0.950 . S
C827 C825 1.390 . S
C827 C828 1.387 . S
C827 H830 0.950 . S
C828 C827 1.387 . S
C828 C831 1.387 . S
H829 C825 0.950 . S
H830 C827 0.950 . S
C831 C822 1.390 . S
C831 H824 0.950 . S
C831 C828 1.387 . S
C832 C833 1.387 . S
C832 H836 0.950 . S
C832 C841 1.390 . S
C833 C832 1.387 . S
C833 C835 1.387 . S
H834 C841 0.950 . S
C835 C833 1.387 . S
C835 C837 1.390 . S
C835 H839 0.950 . S
H836 C832 0.950 . S
C837 C835 1.390 . S
C837 C838 1.387 . S
C837 H840 0.950 . S
C838 C837 1.387 . S
C838 C841 1.387 . S
H839 C835 0.950 . S
H840 C837 0.950 . S
C841 C832 1.390 . S
C841 H834 0.950 . S
C841 C838 1.387 . S
C842 C843 1.387 . S
C842 H846 0.950 . S
C842 C851 1.390 . S
C843 C842 1.387 . S
C843 C845 1.387 . S
H844 C851 0.950 . S
C845 C843 1.387 . S
C845 C847 1.390 . S
C845 H849 0.950 . S
H846 C842 0.950 . S
C847 C845 1.390 . S
C847 C848 1.387 . S
C847 H850 0.950 . S
C848 C847 1.387 . S
C848 C851 1.387 . S
H849 C845 0.950 . S
H850 C847 0.950 . S
C851 C842 1.390 . S
C851 H844 0.950 . S
C851 C848 1.387 . S
C852 C853 1.387 . S
C852 H856 0.950 . S
C852 C861 1.390 . S
C853 C852 1.387 . S
C853 C855 1.387 . S
H854 C861 0.950 . S
C855 C853 1.387 . S
C855 C857 1.390 . S
C855 H859 0.950 . S
H856 C852 0.950 . S
C857 C855 1.390 . S
C857 C858 1.387 . S
C857 H860 0.950 . S
C858 C857 1.387 . S
C858 C861 1.387 . S
H859 C855 0.950 . S
H860 C857 0.950 . S
C861 C852 1.390 . S
C861 H854 0.950 . S
C861 C858 1.387 . S
C862 C863 1.387 . S
C862 H866 0.950 . S
C862 C871 1.390 . S
C863 C862 1.387 . S
C863 C865 1.387 . S
H864 C871 0.950 . S
C865 C863 1.387 . S
C865 C867 1.390 . S
C865 H869 0.950 . S
H866 C862 0.950 . S
C867 C865 1.390 . S
C867 C868 1.387 . S
C867 H870 0.950 . S
C868 C867 1.387 . S
C868 C871 1.387 . S
H869 C865 0.950 . S
H870 C867 0.950 . S
C871 C862 1.390 . S
C871 H864 0.950 . S
C871 C868 1.387 . S
C872 C873 1.387 . S
C872 H876 0.950 . S
C872 C881 1.390 . S
C873 C872 1.387 . S
C873 C875 1.387 . S
H874 C881 0.950 . S
C875 C873 1.387 . S
C875 C877 1.390 . S
C875 H879 0.950 . S
H876 C872 0.950 . S
C877 C875 1.390 . S
C877 C878 1.387 . S
C877 H880 0.950 . S
C878 C877 1.387 . S
C878 C881 1.387 . S
H879 C875 0.950 . S
H880 C877 0.950 . S
C881 C872 1.390 . S
C881 H874 0.950 . S
C881 C878 1.387 . S
C882 C883 1.387 . S
C882 H886 0.950 . S
C882 C891 1.390 . S
C883 C882 1.387 . S
C883 C885 1.387 . S
H884 C891 0.950 . S
C885 C883 1.387 . S
C885 C887 1.390 . S
C885 H889 0.950 . S
H886 C882 0.950 . S
C887 C885 1.390 . S
C887 C888 1.387 . S
C887 H890 0.950 . S
C888 C887 1.387 . S
C888 C891 1.387 . S
H889 C885 0.950 . S
H890 C887 0.950 . S
C891 C882 1.390 . S
C891 H884 0.950 . S
C891 C888 1.387 . S
C892 C893 1.387 . S
C892 H896 0.950 . S
C892 C901 1.390 . S
C893 C892 1.387 . S
C893 C895 1.387 . S
H894 C901 0.950 . S
C895 C893 1.387 . S
C895 C897 1.390 . S
C895 H899 0.950 . S
H896 C892 0.950 . S
C897 C895 1.390 . S
C897 C898 1.387 . S
C897 H900 0.950 . S
C898 C897 1.387 . S
C898 C901 1.387 . S
H899 C895 0.950 . S
H900 C897 0.950 . S
C901 C892 1.390 . S
C901 H894 0.950 . S
C901 C898 1.387 . S
C902 C903 1.387 . S
C902 H906 0.950 . S
C902 C911 1.390 . S
C903 C902 1.387 . S
C903 C905 1.387 . S
H904 C911 0.950 . S
C905 C903 1.387 . S
C905 C907 1.390 . S
C905 H909 0.950 . S
H906 C902 0.950 . S
C907 C905 1.390 . S
C907 C908 1.387 . S
C907 H910 0.950 . S
C908 C907 1.387 . S
C908 C911 1.387 . S
H909 C905 0.950 . S
H910 C907 0.950 . S
C911 C902 1.390 . S
C911 H904 0.950 . S
C911 C908 1.387 . S
C912 C913 1.387 . S
C912 H916 0.950 . S
C912 C921 1.390 . S
C913 C912 1.387 . S
C913 C915 1.387 . S
H914 C921 0.950 . S
C915 C913 1.387 . S
C915 C917 1.390 . S
C915 H919 0.950 . S
H916 C912 0.950 . S
C917 C915 1.390 . S
C917 C918 1.387 . S
C917 H920 0.950 . S
C918 C917 1.387 . S
C918 C921 1.387 . S
H919 C915 0.950 . S
H920 C917 0.950 . S
C921 C912 1.390 . S
C921 H914 0.950 . S
C921 C918 1.387 . S
C922 C923 1.387 . S
C922 H926 0.950 . S
C922 C931 1.390 1_556 S
C923 C922 1.387 . S
C923 C925 1.387 . S
H924 C931 0.950 . S
C925 C923 1.387 . S
C925 C927 1.390 1_556 S
C925 H929 0.950 . S
H926 C922 0.950 . S
C927 C925 1.390 1_554 S
C927 C928 1.387 . S
C927 H930 0.950 . S
C928 C927 1.387 . S
C928 C931 1.387 . S
H929 C925 0.950 . S
H930 C927 0.950 . S
C931 C922 1.390 1_554 S
C931 H924 0.950 . S
C931 C928 1.387 . S
C932 C933 1.387 . S
C932 H936 0.950 . S
C932 C941 1.390 . S
C933 C932 1.387 . S
C933 C935 1.387 . S
H934 C941 0.950 . S
C935 C933 1.387 . S
C935 C937 1.390 . S
C935 H939 0.950 . S
H936 C932 0.950 . S
C937 C935 1.390 . S
C937 C938 1.387 . S
C937 H940 0.950 . S
C938 C937 1.387 . S
C938 C941 1.387 . S
H939 C935 0.950 . S
H940 C937 0.950 . S
C941 C932 1.390 . S
C941 H934 0.950 . S
C941 C938 1.387 . S
C942 C943 1.387 1_554 S
C942 H946 0.950 1_554 S
C942 C951 1.390 . S
C943 C942 1.387 1_556 S
C943 C945 1.371 1_556 S
H944 C951 0.950 . S
C945 C943 1.371 1_554 S
C945 C947 1.427 . S
C945 H949 0.930 1_554 S
H946 C942 0.950 1_556 S
C947 C945 1.427 . S
C947 C948 1.387 . S
C947 H950 0.950 . S
C948 C947 1.387 . S
C948 C951 1.387 . S
H949 C945 0.930 1_556 S
H950 C947 0.950 . S
C951 C942 1.390 . S
C951 H944 0.950 . S
C951 C948 1.387 . S
C952 C953 1.387 . S
C952 H956 0.950 . S
C952 C961 1.390 . S
C953 C952 1.387 . S
C953 C955 1.387 . S
H954 C961 0.950 . S
C955 C953 1.387 . S
C955 C957 1.390 . S
C955 H959 0.950 . S
H956 C952 0.950 . S
C957 C955 1.390 . S
C957 C958 1.387 . S
C957 H960 0.950 . S
C958 C957 1.387 . S
C958 C961 1.387 . S
H959 C955 0.950 . S
H960 C957 0.950 . S
C961 C952 1.390 . S
C961 H954 0.950 . S
C961 C958 1.387 . S
C962 C963 1.387 . S
C962 H966 0.950 . S
C962 C971 1.390 1_556 S
C963 C962 1.387 . S
C963 C965 1.387 . S
H964 C971 0.950 . S
C965 C963 1.387 . S
C965 C967 1.390 1_556 S
C965 H969 0.950 . S
H966 C962 0.950 . S
C967 C965 1.390 1_554 S
C967 C968 1.387 . S
C967 H970 0.950 . S
C968 C967 1.387 . S
C968 C971 1.387 . S
H969 C965 0.950 . S
H970 C967 0.950 . S
C971 C962 1.390 1_554 S
C971 H964 0.950 . S
C971 C968 1.387 . S
C972 C973 1.387 . S
C972 H976 0.950 . S
C972 C981 1.390 . S
C973 C972 1.387 . S
C973 C975 1.387 . S
H974 C981 0.950 . S
C975 C973 1.387 . S
C975 C977 1.390 . S
C975 H979 0.950 . S
H976 C972 0.950 . S
C977 C975 1.390 . S
C977 C978 1.387 . S
C977 H980 0.950 . S
C978 C977 1.387 . S
C978 C981 1.387 . S
H979 C975 0.950 . S
H980 C977 0.950 . S
C981 C972 1.390 . S
C981 H974 0.950 . S
C981 C978 1.387 . S
C982 C983 1.387 . S
C982 H986 0.950 . S
C982 C991 1.390 . S
C983 C982 1.387 . S
C983 C985 1.387 . S
H984 C991 0.950 1_554 S
C985 C983 1.387 . S
C985 C987 1.372 1_556 S
C985 H989 0.950 . S
H986 C982 0.950 . S
C987 C985 1.372 1_554 S
C987 C988 1.396 . S
C987 H990 0.959 . S
C988 C987 1.396 . S
C988 C991 1.387 1_554 S
H989 C985 0.950 . S
H990 C987 0.959 . S
C991 C982 1.390 . S
C991 H984 0.950 1_556 S
C991 C988 1.387 1_556 S
C992 C993 1.387 . S
C992 H996 0.950 . S
C992 C1001 1.390 . S
C993 C992 1.387 . S
C993 C995 1.387 . S
H994 C1001 0.950 . S
C995 C993 1.387 . S
C995 C997 1.390 . S
C995 H999 0.950 . S
H996 C992 0.950 . S
C997 C995 1.390 . S
C997 C998 1.387 . S
C997 H1000 0.950 . S
C998 C997 1.387 . S
C998 C1001 1.387 . S
H999 C995 0.950 . S
H1000 C997 0.950 . S
C1001 C992 1.390 . S
C1001 H994 0.950 . S
C1001 C998 1.387 . S
C1002 C1003 1.387 . S
C1002 H1006 0.950 . S
C1002 C1011 1.390 1_565 S
C1003 C1002 1.387 . S
C1003 C1005 1.387 . S
H1004 C1011 0.950 . S
C1005 C1003 1.387 . S
C1005 C1007 1.390 1_565 S
C1005 H1009 0.950 . S
H1006 C1002 0.950 . S
C1007 C1005 1.390 1_545 S
C1007 C1008 1.387 . S
C1007 H1010 0.950 . S
C1008 C1007 1.387 . S
C1008 C1011 1.387 . S
H1009 C1005 0.950 . S
H1010 C1007 0.950 . S
C1011 C1002 1.390 1_545 S
C1011 H1004 0.950 . S
C1011 C1008 1.387 . S
C1012 C1013 1.387 . S
C1012 H1016 0.950 . S
C1012 C1021 1.390 . S
C1013 C1012 1.387 . S
C1013 C1015 1.387 . S
H1014 C1021 0.950 . S
C1015 C1013 1.387 . S
C1015 C1017 1.390 . S
C1015 H1019 0.950 . S
H1016 C1012 0.950 . S
C1017 C1015 1.390 . S
C1017 C1018 1.387 . S
C1017 H1020 0.950 . S
C1018 C1017 1.387 . S
C1018 C1021 1.387 . S
H1019 C1015 0.950 . S
H1020 C1017 0.950 . S
C1021 C1012 1.390 . S
C1021 H1014 0.950 . S
C1021 C1018 1.387 . S
C1022 C1023 1.387 . S
C1022 H1026 0.950 . S
C1022 C1031 1.390 1_545 S
C1023 C1022 1.387 . S
C1023 C1025 1.387 . S
H1024 C1031 0.950 . S
C1025 C1023 1.387 . S
C1025 C1027 1.390 1_545 S
C1025 H1029 0.950 . S
H1026 C1022 0.950 . S
C1027 C1025 1.390 1_565 S
C1027 C1028 1.387 . S
C1027 H1030 0.950 . S
C1028 C1027 1.387 . S
C1028 C1031 1.387 . S
H1029 C1025 0.950 . S
H1030 C1027 0.950 . S
C1031 C1022 1.390 1_565 S
C1031 H1024 0.950 . S
C1031 C1028 1.387 . S
C1032 C1033 1.387 . S
C1032 H1036 0.950 . S
C1032 C1041 1.390 . S
C1033 C1032 1.387 . S
C1033 C1035 1.387 . S
H1034 C1041 0.950 . S
C1035 C1033 1.387 . S
C1035 C1037 1.390 . S
C1035 H1039 0.950 . S
H1036 C1032 0.950 . S
C1037 C1035 1.390 . S
C1037 C1038 1.387 . S
C1037 H1040 0.950 . S
C1038 C1037 1.387 . S
C1038 C1041 1.387 . S
H1039 C1035 0.950 . S
H1040 C1037 0.950 . S
C1041 C1032 1.390 . S
C1041 H1034 0.950 . S
C1041 C1038 1.387 . S
C1042 C1043 1.387 1_545 S
C1042 H1046 0.950 1_545 S
C1042 C1051 1.390 . S
C1043 C1042 1.387 1_565 S
C1043 C1045 1.387 1_565 S
H1044 C1051 0.950 . S
C1045 C1043 1.387 1_545 S
C1045 C1047 1.390 . S
C1045 H1049 0.950 1_545 S
H1046 C1042 0.950 1_565 S
C1047 C1045 1.390 . S
C1047 C1048 1.387 . S
C1047 H1050 0.950 . S
C1048 C1047 1.387 . S
C1048 C1051 1.387 . S
H1049 C1045 0.950 1_565 S
H1050 C1047 0.950 . S
C1051 C1042 1.390 . S
C1051 H1044 0.950 . S
C1051 C1048 1.387 . S
C1052 C1053 1.387 . S
C1052 H1056 0.950 . S
C1052 C1061 1.390 . S
C1053 C1052 1.387 . S
C1053 C1055 1.387 . S
H1054 C1061 0.950 . S
C1055 C1053 1.387 . S
C1055 C1057 1.390 . S
C1055 H1059 0.950 . S
H1056 C1052 0.950 . S
C1057 C1055 1.390 . S
C1057 C1058 1.387 . S
C1057 H1060 0.950 . S
C1058 C1057 1.387 . S
C1058 C1061 1.387 . S
H1059 C1055 0.950 . S
H1060 C1057 0.950 . S
C1061 C1052 1.390 . S
C1061 H1054 0.950 . S
C1061 C1058 1.387 . S
C1062 C1063 1.387 . S
C1062 H1066 0.950 . S
C1062 C1071 1.390 1_565 S
C1063 C1062 1.387 . S
C1063 C1065 1.387 . S
H1064 C1071 0.950 . S
C1065 C1063 1.387 . S
C1065 C1067 1.390 1_565 S
C1065 H1069 0.950 . S
H1066 C1062 0.950 . S
C1067 C1065 1.390 1_545 S
C1067 C1068 1.387 . S
C1067 H1070 0.950 . S
C1068 C1067 1.387 . S
C1068 C1071 1.387 . S
H1069 C1065 0.950 . S
H1070 C1067 0.950 . S
C1071 C1062 1.390 1_545 S
C1071 H1064 0.950 . S
C1071 C1068 1.387 . S
C1072 C1073 1.387 . S
C1072 H1076 0.950 . S
C1072 C1081 1.390 . S
C1073 C1072 1.387 . S
C1073 C1075 1.387 . S
H1074 C1081 0.950 . S
C1075 C1073 1.387 . S
C1075 C1077 1.390 . S
C1075 H1079 0.950 . S
H1076 C1072 0.950 . S
C1077 C1075 1.390 . S
C1077 C1078 1.387 . S
C1077 H1080 0.950 . S
C1078 C1077 1.387 . S
C1078 C1081 1.387 . S
H1079 C1075 0.950 . S
H1080 C1077 0.950 . S
C1081 C1072 1.390 . S
C1081 H1074 0.950 . S
C1081 C1078 1.387 . S
C1082 C1083 1.387 . S
C1082 H1086 0.950 . S
C1082 C1091 1.390 . S
C1083 C1082 1.387 . S
C1083 C1085 1.387 . S
H1084 C1091 0.950 . S
C1085 C1083 1.387 . S
C1085 C1087 1.390 . S
C1085 H1089 0.950 . S
H1086 C1082 0.950 . S
C1087 C1085 1.390 . S
C1087 C1088 1.387 . S
C1087 H1090 0.950 . S
C1088 C1087 1.387 . S
C1088 C1091 1.387 . S
H1089 C1085 0.950 . S
H1090 C1087 0.950 . S
C1091 C1082 1.390 . S
C1091 H1084 0.950 . S
C1091 C1088 1.387 . S
C1092 C1093 1.387 . S
C1092 H1096 0.950 . S
C1092 C1101 1.390 . S
C1093 C1092 1.387 . S
C1093 C1095 1.387 . S
H1094 C1101 0.950 . S
C1095 C1093 1.387 . S
C1095 C1097 1.390 . S
C1095 H1099 0.950 . S
H1096 C1092 0.950 . S
C1097 C1095 1.390 . S
C1097 C1098 1.387 . S
C1097 H1100 0.950 . S
C1098 C1097 1.387 . S
C1098 C1101 1.387 . S
H1099 C1095 0.950 . S
H1100 C1097 0.950 . S
C1101 C1092 1.390 . S
C1101 H1094 0.950 . S
C1101 C1098 1.387 . S
C1102 C1103 1.387 . S
C1102 H1106 0.950 . S
C1102 C1111 1.390 . S
C1103 C1102 1.387 . S
C1103 C1105 1.387 . S
H1104 C1111 0.950 . S
C1105 C1103 1.387 . S
C1105 C1107 1.390 . S
C1105 H1109 0.950 . S
H1106 C1102 0.950 . S
C1107 C1105 1.390 . S
C1107 C1108 1.387 . S
C1107 H1110 0.950 . S
C1108 C1107 1.387 . S
C1108 C1111 1.387 . S
H1109 C1105 0.950 . S
H1110 C1107 0.950 . S
C1111 C1102 1.390 . S
C1111 H1104 0.950 . S
C1111 C1108 1.387 . S
C1112 C1113 1.366 1_655 S
C1112 H1116 0.956 . S
C1112 C1121 1.390 . S
C1113 C1112 1.366 1_455 S
C1113 C1115 1.370 1_455 S
H1114 C1121 0.950 . S
C1115 C1113 1.370 1_655 S
C1115 C1117 1.390 . S
C1115 H1119 0.950 . S
H1116 C1112 0.956 . S
C1117 C1115 1.390 . S
C1117 C1118 1.387 . S
C1117 H1120 0.950 . S
C1118 C1117 1.387 . S
C1118 C1121 1.387 . S
H1119 C1115 0.950 . S
H1120 C1117 0.950 . S
C1121 C1112 1.390 . S
C1121 H1114 0.950 . S
C1121 C1118 1.387 . S
C1122 C1123 1.387 . S
C1122 H1126 0.950 . S
C1122 C1131 1.390 . S
C1123 C1122 1.387 . S
C1123 C1125 1.387 . S
H1124 C1131 0.950 . S
C1125 C1123 1.387 . S
C1125 C1127 1.390 . S
C1125 H1129 0.950 . S
H1126 C1122 0.950 . S
C1127 C1125 1.390 . S
C1127 C1128 1.387 . S
C1127 H1130 0.950 . S
C1128 C1127 1.387 . S
C1128 C1131 1.387 . S
H1129 C1125 0.950 . S
H1130 C1127 0.950 . S
C1131 C1122 1.390 . S
C1131 H1124 0.950 . S
C1131 C1128 1.387 . S
C1132 C1133 1.387 . S
C1132 H1136 0.950 . S
C1132 C1141 1.390 1_655 S
C1133 C1132 1.387 . S
C1133 C1135 1.387 . S
H1134 C1141 0.950 . S
C1135 C1133 1.387 . S
C1135 C1137 1.390 1_655 S
C1135 H1139 0.950 . S
H1136 C1132 0.950 . S
C1137 C1135 1.390 1_455 S
C1137 C1138 1.387 . S
C1137 H1140 0.950 . S
C1138 C1137 1.387 . S
C1138 C1141 1.387 . S
H1139 C1135 0.950 . S
H1140 C1137 0.950 . S
C1141 C1132 1.390 1_455 S
C1141 H1134 0.950 . S
C1141 C1138 1.387 . S
C1142 C1143 1.387 . S
C1142 H1146 0.950 . S
C1142 C1151 1.390 . S
C1143 C1142 1.387 . S
C1143 C1145 1.387 . S
H1144 C1151 0.950 . S
C1145 C1143 1.387 . S
C1145 C1147 1.390 . S
C1145 H1149 0.950 . S
H1146 C1142 0.950 . S
C1147 C1145 1.390 . S
C1147 C1148 1.387 . S
C1147 H1150 0.950 . S
C1148 C1147 1.387 . S
C1148 C1151 1.387 . S
H1149 C1145 0.950 . S
H1150 C1147 0.950 . S
C1151 C1142 1.390 . S
C1151 H1144 0.950 . S
C1151 C1148 1.387 . S
C1152 C1153 1.387 . S
C1152 H1156 0.950 . S
C1152 C1161 1.390 . S
C1153 C1152 1.387 . S
C1153 C1155 1.387 . S
H1154 C1161 0.950 1_455 S
C1155 C1153 1.387 . S
C1155 C1157 1.390 . S
C1155 H1159 0.950 . S
H1156 C1152 0.950 . S
C1157 C1155 1.390 . S
C1157 C1158 1.387 1_655 S
C1157 H1160 0.950 1_655 S
C1158 C1157 1.387 1_455 S
C1158 C1161 1.387 1_455 S
H1159 C1155 0.950 . S
H1160 C1157 0.950 1_455 S
C1161 C1152 1.390 . S
C1161 H1154 0.950 1_655 S
C1161 C1158 1.387 1_655 S
C1162 C1163 1.387 . S
C1162 H1166 0.950 . S
C1162 C1171 1.390 . S
C1163 C1162 1.387 . S
C1163 C1165 1.387 . S
H1164 C1171 0.950 . S
C1165 C1163 1.387 . S
C1165 C1167 1.390 . S
C1165 H1169 0.950 . S
H1166 C1162 0.950 . S
C1167 C1165 1.390 . S
C1167 C1168 1.387 . S
C1167 H1170 0.950 . S
C1168 C1167 1.387 . S
C1168 C1171 1.387 . S
H1169 C1165 0.950 . S
H1170 C1167 0.950 . S
C1171 C1162 1.390 . S
C1171 H1164 0.950 . S
C1171 C1168 1.387 . S
C1172 C1173 1.387 . S
C1172 H1176 0.950 . S
C1172 C1181 1.390 . S
C1173 C1172 1.387 . S
C1173 C1175 1.387 . S
H1174 C1181 0.950 1_655 S
C1175 C1173 1.387 . S
C1175 C1177 1.390 . S
C1175 H1179 0.950 . S
H1176 C1172 0.950 . S
C1177 C1175 1.390 . S
C1177 C1178 1.387 1_455 S
C1177 H1180 0.950 1_455 S
C1178 C1177 1.387 1_655 S
C1178 C1181 1.387 1_655 S
H1179 C1175 0.950 . S
H1180 C1177 0.950 1_655 S
C1181 C1172 1.390 . S
C1181 H1174 0.950 1_455 S
C1181 C1178 1.387 1_455 S
C1182 C1183 1.387 . S
C1182 H1186 0.950 . S
C1182 C1191 1.390 . S
C1183 C1182 1.387 . S
C1183 C1185 1.387 . S
H1184 C1191 0.950 . S
C1185 C1183 1.387 . S
C1185 C1187 1.390 . S
C1185 H1189 0.950 . S
H1186 C1182 0.950 . S
C1187 C1185 1.390 . S
C1187 C1188 1.387 . S
C1187 H1190 0.950 . S
C1188 C1187 1.387 . S
C1188 C1191 1.387 . S
H1189 C1185 0.950 . S
H1190 C1187 0.950 . S
C1191 C1182 1.390 . S
C1191 H1184 0.950 . S
C1191 C1188 1.387 . S
C1192 C1193 1.387 1_455 S
C1192 H1196 0.972 . S
C1192 C1201 1.390 . S
C1193 C1192 1.387 1_655 S
C1193 C1195 1.387 1_655 S
H1194 C1201 0.950 . S
C1195 C1193 1.387 1_455 S
C1195 C1197 1.390 . S
C1195 H1199 0.950 . S
H1196 C1192 0.972 . S
C1197 C1195 1.390 . S
C1197 C1198 1.387 . S
C1197 H1200 0.950 . S
C1198 C1197 1.387 . S
C1198 C1201 1.387 . S
H1199 C1195 0.950 . S
H1200 C1197 0.950 . S
C1201 C1192 1.390 . S
C1201 H1194 0.950 . S
C1201 C1198 1.387 . S
C1202 C1203 1.387 . S
C1202 H1206 0.950 . S
C1202 C1211 1.390 . S
C1203 C1202 1.387 . S
C1203 C1205 1.387 . S
H1204 C1211 0.950 . S
C1205 C1203 1.387 . S
C1205 C1207 1.390 . S
C1205 H1209 0.950 . S
H1206 C1202 0.950 . S
C1207 C1205 1.390 . S
C1207 C1208 1.387 . S
C1207 H1210 0.950 . S
C1208 C1207 1.387 . S
C1208 C1211 1.387 . S
H1209 C1205 0.950 . S
H1210 C1207 0.950 . S
C1211 C1202 1.390 . S
C1211 H1204 0.950 . S
C1211 C1208 1.387 . S
C1212 C1213 1.387 . S
C1212 H1216 0.950 . S
C1212 C1221 1.390 1_655 S
C1213 C1212 1.387 . S
C1213 C1215 1.387 . S
H1214 C1221 0.950 . S
C1215 C1213 1.387 . S
C1215 C1217 1.390 1_655 S
C1215 H1219 0.950 . S
H1216 C1212 0.950 . S
C1217 C1215 1.390 1_455 S
C1217 C1218 1.387 . S
C1217 H1220 0.950 . S
C1218 C1217 1.387 . S
C1218 C1221 1.387 . S
H1219 C1215 0.950 . S
H1220 C1217 0.950 . S
C1221 C1212 1.390 1_455 S
C1221 H1214 0.950 . S
C1221 C1218 1.387 . S
C1222 C1223 1.387 . S
C1222 H1226 0.950 . S
C1222 C1231 1.390 . S
C1223 C1222 1.387 . S
C1223 C1225 1.387 . S
H1224 C1231 0.950 . S
C1225 C1223 1.387 . S
C1225 C1227 1.390 . S
C1225 H1229 0.950 . S
H1226 C1222 0.950 . S
C1227 C1225 1.390 . S
C1227 C1228 1.387 . S
C1227 H1230 0.950 . S
C1228 C1227 1.387 . S
C1228 C1231 1.387 . S
H1229 C1225 0.950 . S
H1230 C1227 0.950 . S
C1231 C1222 1.390 . S
C1231 H1224 0.950 . S
C1231 C1228 1.387 . S
C1232 C1233 1.387 . S
C1232 H1236 0.950 . S
C1232 C1241 1.390 . S
C1233 C1232 1.387 . S
C1233 C1235 1.387 . S
H1234 C1241 0.950 1_565 S
C1235 C1233 1.387 . S
C1235 C1237 1.390 1_545 S
C1235 H1239 0.950 . S
H1236 C1232 0.950 . S
C1237 C1235 1.390 1_565 S
C1237 C1238 1.387 . S
C1237 H1240 0.950 . S
C1238 C1237 1.387 . S
C1238 C1241 1.387 1_565 S
H1239 C1235 0.950 . S
H1240 C1237 0.950 . S
C1241 C1232 1.390 . S
C1241 H1234 0.950 1_545 S
C1241 C1238 1.387 1_545 S
C1242 C1243 1.387 . S
C1242 H1246 0.950 . S
C1242 C1251 1.390 . S
C1243 C1242 1.387 . S
C1243 C1245 1.387 . S
H1244 C1251 0.950 . S
C1245 C1243 1.387 . S
C1245 C1247 1.390 . S
C1245 H1249 0.950 . S
H1246 C1242 0.950 . S
C1247 C1245 1.390 . S
C1247 C1248 1.387 . S
C1247 H1250 0.950 . S
C1248 C1247 1.387 . S
C1248 C1251 1.387 . S
H1249 C1245 0.950 . S
H1250 C1247 0.950 . S
C1251 C1242 1.390 . S
C1251 H1244 0.950 . S
C1251 C1248 1.387 . S
C1252 C1253 1.387 . S
C1252 H1256 0.950 . S
C1252 C1261 1.390 1_545 S
C1253 C1252 1.387 . S
C1253 C1255 1.387 . S
H1254 C1261 0.950 . S
C1255 C1253 1.387 . S
C1255 C1257 1.390 1_545 S
C1255 H1259 0.950 . S
H1256 C1252 0.950 . S
C1257 C1255 1.390 1_565 S
C1257 C1258 1.387 . S
C1257 H1260 0.950 . S
C1258 C1257 1.387 . S
C1258 C1261 1.387 . S
H1259 C1255 0.950 . S
H1260 C1257 0.950 . S
C1261 C1252 1.390 1_565 S
C1261 H1254 0.950 . S
C1261 C1258 1.387 . S
C1262 C1263 1.387 . S
C1262 H1266 0.950 . S
C1262 C1271 1.390 . S
C1263 C1262 1.387 . S
C1263 C1265 1.387 . S
H1264 C1271 0.950 . S
C1265 C1263 1.387 . S
C1265 C1267 1.390 . S
C1265 H1269 0.950 . S
H1266 C1262 0.950 . S
C1267 C1265 1.390 . S
C1267 C1268 1.387 . S
C1267 H1270 0.950 . S
C1268 C1267 1.387 . S
C1268 C1271 1.387 . S
H1269 C1265 0.950 . S
H1270 C1267 0.950 . S
C1271 C1262 1.390 . S
C1271 H1264 0.950 . S
C1271 C1268 1.387 . S
C1272 C1273 1.387 . S
C1272 H1276 0.950 . S
C1272 C1281 1.390 1_545 S
C1273 C1272 1.387 . S
C1273 C1275 1.387 . S
H1274 C1281 0.950 . S
C1275 C1273 1.387 . S
C1275 C1277 1.390 1_545 S
C1275 H1279 0.950 . S
H1276 C1272 0.950 . S
C1277 C1275 1.390 1_565 S
C1277 C1278 1.387 . S
C1277 H1280 0.950 . S
C1278 C1277 1.387 . S
C1278 C1281 1.387 . S
H1279 C1275 0.950 . S
H1280 C1277 0.950 . S
C1281 C1272 1.390 1_565 S
C1281 H1274 0.950 . S
C1281 C1278 1.387 . S
C1282 C1283 1.387 . S
C1282 H1286 0.950 . S
C1282 C1291 1.390 . S
C1283 C1282 1.387 . S
C1283 C1285 1.387 . S
H1284 C1291 0.950 . S
C1285 C1283 1.387 . S
C1285 C1287 1.390 . S
C1285 H1289 0.950 . S
H1286 C1282 0.950 . S
C1287 C1285 1.390 . S
C1287 C1288 1.387 . S
C1287 H1290 0.950 . S
C1288 C1287 1.387 . S
C1288 C1291 1.387 . S
H1289 C1285 0.950 . S
H1290 C1287 0.950 . S
C1291 C1282 1.390 . S
C1291 H1284 0.950 . S
C1291 C1288 1.387 . S
C1292 C1293 1.382 1_565 S
C1292 H1296 0.940 1_565 S
C1292 C1301 1.405 . S
C1293 C1292 1.382 1_545 S
C1293 C1295 1.387 1_545 S
H1294 C1301 0.950 . S
C1295 C1293 1.387 1_565 S
C1295 C1297 1.390 . S
C1295 H1299 0.950 1_565 S
H1296 C1292 0.940 1_545 S
C1297 C1295 1.390 . S
C1297 C1298 1.387 . S
C1297 H1300 0.950 . S
C1298 C1297 1.387 . S
C1298 C1301 1.387 . S
H1299 C1295 0.950 1_545 S
H1300 C1297 0.950 . S
C1301 C1292 1.405 . S
C1301 H1294 0.950 . S
C1301 C1298 1.387 . S
C1302 C1303 1.387 . S
C1302 H1306 0.950 . S
C1302 C1311 1.390 . S
C1303 C1302 1.387 . S
C1303 C1305 1.387 . S
H1304 C1311 0.950 . S
C1305 C1303 1.387 . S
C1305 C1307 1.390 . S
C1305 H1309 0.950 . S
H1306 C1302 0.950 . S
C1307 C1305 1.390 . S
C1307 C1308 1.387 . S
C1307 H1310 0.950 . S
C1308 C1307 1.387 . S
C1308 C1311 1.387 . S
H1309 C1305 0.950 . S
H1310 C1307 0.950 . S
C1311 C1302 1.390 . S
C1311 H1304 0.950 . S
C1311 C1308 1.387 . S
C1312 C1313 1.387 . S
C1312 H1316 0.950 . S
C1312 C1321 1.390 1_556 S
C1313 C1312 1.387 . S
C1313 C1315 1.387 . S
H1314 C1321 0.950 . S
C1315 C1313 1.387 . S
C1315 C1317 1.390 1_556 S
C1315 H1319 0.950 . S
H1316 C1312 0.950 . S
C1317 C1315 1.390 1_554 S
C1317 C1318 1.387 . S
C1317 H1320 0.950 . S
C1318 C1317 1.387 . S
C1318 C1321 1.387 . S
H1319 C1315 0.950 . S
H1320 C1317 0.950 . S
C1321 C1312 1.390 1_554 S
C1321 H1314 0.950 . S
C1321 C1318 1.387 . S
C1322 C1323 1.387 . S
C1322 H1326 0.950 . S
C1322 C1331 1.390 1_556 S
C1323 C1322 1.387 . S
C1323 C1325 1.387 . S
H1324 C1331 0.950 . S
C1325 C1323 1.387 . S
C1325 C1327 1.390 1_556 S
C1325 H1329 0.950 . S
H1326 C1322 0.950 . S
C1327 C1325 1.390 1_554 S
C1327 C1328 1.387 . S
C1327 H1330 0.950 . S
C1328 C1327 1.387 . S
C1328 C1331 1.387 . S
H1329 C1325 0.950 . S
H1330 C1327 0.950 . S
C1331 C1322 1.390 1_554 S
C1331 H1324 0.950 . S
C1331 C1328 1.387 . S
C1332 C1333 1.387 . S
C1332 H1336 0.950 . S
C1332 C1341 1.390 . S
C1333 C1332 1.387 . S
C1333 C1335 1.387 . S
H1334 C1341 0.950 . S
C1335 C1333 1.387 . S
C1335 C1337 1.390 . S
C1335 H1339 0.950 . S
H1336 C1332 0.950 . S
C1337 C1335 1.390 . S
C1337 C1338 1.387 . S
C1337 H1340 0.950 . S
C1338 C1337 1.387 . S
C1338 C1341 1.387 . S
H1339 C1335 0.950 . S
H1340 C1337 0.950 . S
C1341 C1332 1.390 . S
C1341 H1334 0.950 . S
C1341 C1338 1.387 . S
C1342 C1343 1.387 . S
C1342 H1346 0.950 . S
C1342 C1351 1.390 . S
C1343 C1342 1.387 . S
C1343 C1345 1.387 . S
H1344 C1351 0.950 . S
C1345 C1343 1.387 . S
C1345 C1347 1.390 . S
C1345 H1349 0.950 . S
H1346 C1342 0.950 . S
C1347 C1345 1.390 . S
C1347 C1348 1.387 . S
C1347 H1350 0.950 . S
C1348 C1347 1.387 . S
C1348 C1351 1.387 . S
H1349 C1345 0.950 . S
H1350 C1347 0.950 . S
C1351 C1342 1.390 . S
C1351 H1344 0.950 . S
C1351 C1348 1.387 . S
C1352 C1353 1.387 . S
C1352 H1356 0.950 . S
C1352 C1361 1.390 . S
C1353 C1352 1.387 . S
C1353 C1355 1.387 . S
H1354 C1361 0.950 . S
C1355 C1353 1.387 . S
C1355 C1357 1.390 . S
C1355 H1359 0.950 . S
H1356 C1352 0.950 . S
C1357 C1355 1.390 . S
C1357 C1358 1.387 . S
C1357 H1360 0.950 . S
C1358 C1357 1.387 . S
C1358 C1361 1.387 . S
H1359 C1355 0.950 . S
H1360 C1357 0.950 . S
C1361 C1352 1.390 . S
C1361 H1354 0.950 . S
C1361 C1358 1.387 . S
C1362 C1363 1.387 . S
C1362 H1366 0.950 . S
C1362 C1371 1.390 1_556 S
C1363 C1362 1.387 . S
C1363 C1365 1.387 . S
H1364 C1371 0.950 . S
C1365 C1363 1.387 . S
C1365 C1367 1.390 1_556 S
C1365 H1369 0.950 . S
H1366 C1362 0.950 . S
C1367 C1365 1.390 1_554 S
C1367 C1368 1.387 . S
C1367 H1370 0.950 . S
C1368 C1367 1.387 . S
C1368 C1371 1.387 . S
H1369 C1365 0.950 . S
H1370 C1367 0.950 . S
C1371 C1362 1.390 1_554 S
C1371 H1364 0.950 . S
C1371 C1368 1.387 . S
C1372 C1373 1.387 . S
C1372 H1376 0.950 . S
C1372 C1381 1.390 . S
C1373 C1372 1.387 . S
C1373 C1375 1.387 . S
H1374 C1381 0.950 . S
C1375 C1373 1.387 . S
C1375 C1377 1.390 . S
C1375 H1379 0.950 . S
H1376 C1372 0.950 . S
C1377 C1375 1.390 . S
C1377 C1378 1.387 . S
C1377 H1380 0.950 . S
C1378 C1377 1.387 . S
C1378 C1381 1.387 . S
H1379 C1375 0.950 . S
H1380 C1377 0.950 . S
C1381 C1372 1.390 . S
C1381 H1374 0.950 . S
C1381 C1378 1.387 . S
C1382 C1383 1.387 . S
C1382 H1386 0.950 . S
C1382 C1391 1.390 . S
C1383 C1382 1.387 . S
C1383 C1385 1.387 . S
H1384 C1391 0.950 . S
C1385 C1383 1.387 . S
C1385 C1387 1.390 . S
C1385 H1389 0.950 . S
H1386 C1382 0.950 . S
C1387 C1385 1.390 . S
C1387 C1388 1.387 . S
C1387 H1390 0.950 . S
C1388 C1387 1.387 . S
C1388 C1391 1.387 . S
H1389 C1385 0.950 . S
H1390 C1387 0.950 . S
C1391 C1382 1.390 . S
C1391 H1384 0.950 . S
C1391 C1388 1.387 . S
C1392 C1393 1.387 . S
C1392 H1396 0.950 . S
C1392 C1401 1.390 . S
C1393 C1392 1.387 . S
C1393 C1395 1.387 . S
H1394 C1401 0.950 . S
C1395 C1393 1.387 . S
C1395 C1397 1.390 . S
C1395 H1399 0.950 . S
H1396 C1392 0.950 . S
C1397 C1395 1.390 . S
C1397 C1398 1.387 . S
C1397 H1400 0.950 . S
C1398 C1397 1.387 . S
C1398 C1401 1.387 . S
H1399 C1395 0.950 . S
H1400 C1397 0.950 . S
C1401 C1392 1.390 . S
C1401 H1394 0.950 . S
C1401 C1398 1.387 . S
C1402 C1403 1.387 . S
C1402 H1406 0.950 . S
C1402 C1411 1.390 . S
C1403 C1402 1.387 . S
C1403 C1405 1.387 . S
H1404 C1411 0.950 . S
C1405 C1403 1.387 . S
C1405 C1407 1.390 . S
C1405 H1409 0.950 . S
H1406 C1402 0.950 . S
C1407 C1405 1.390 . S
C1407 C1408 1.387 . S
C1407 H1410 0.950 . S
C1408 C1407 1.387 . S
C1408 C1411 1.387 . S
H1409 C1405 0.950 . S
H1410 C1407 0.950 . S
C1411 C1402 1.390 . S
C1411 H1404 0.950 . S
C1411 C1408 1.387 . S
C1412 C1413 1.387 . S
C1412 H1416 0.950 . S
C1412 C1421 1.390 . S
C1413 C1412 1.387 . S
C1413 C1415 1.387 . S
H1414 C1421 0.950 . S
C1415 C1413 1.387 . S
C1415 C1417 1.390 . S
C1415 H1419 0.950 . S
H1416 C1412 0.950 . S
C1417 C1415 1.390 . S
C1417 C1418 1.387 . S
C1417 H1420 0.950 . S
C1418 C1417 1.387 . S
C1418 C1421 1.387 . S
H1419 C1415 0.950 . S
H1420 C1417 0.950 . S
C1421 C1412 1.390 . S
C1421 H1414 0.950 . S
C1421 C1418 1.387 . S
C1422 C1423 1.387 . S
C1422 H1426 0.950 . S
C1422 C1431 1.390 . S
C1423 C1422 1.387 . S
C1423 C1425 1.387 . S
H1424 C1431 0.950 . S
C1425 C1423 1.387 . S
C1425 C1427 1.390 . S
C1425 H1429 0.950 . S
H1426 C1422 0.950 . S
C1427 C1425 1.390 . S
C1427 C1428 1.387 . S
C1427 H1430 0.950 . S
C1428 C1427 1.387 . S
C1428 C1431 1.387 . S
H1429 C1425 0.950 . S
H1430 C1427 0.950 . S
C1431 C1422 1.390 . S
C1431 H1424 0.950 . S
C1431 C1428 1.387 . S
C1432 C1433 1.387 . S
C1432 H1436 0.950 . S
C1432 C1441 1.390 . S
C1433 C1432 1.387 . S
C1433 C1435 1.387 . S
H1434 C1441 0.950 . S
C1435 C1433 1.387 . S
C1435 C1437 1.390 . S
C1435 H1439 0.950 . S
H1436 C1432 0.950 . S
C1437 C1435 1.390 . S
C1437 C1438 1.387 . S
C1437 H1440 0.950 . S
C1438 C1437 1.387 . S
C1438 C1441 1.387 . S
H1439 C1435 0.950 . S
H1440 C1437 0.950 . S
C1441 C1432 1.390 . S
C1441 H1434 0.950 . S
C1441 C1438 1.387 . S
C1442 C1443 1.387 . S
C1442 H1446 0.950 . S
C1442 C1451 1.390 . S
C1443 C1442 1.387 . S
C1443 C1445 1.387 . S
H1444 C1451 0.950 . S
C1445 C1443 1.387 . S
C1445 C1447 1.390 . S
C1445 H1449 0.950 . S
H1446 C1442 0.950 . S
C1447 C1445 1.390 . S
C1447 C1448 1.387 . S
C1447 H1450 0.950 . S
C1448 C1447 1.387 . S
C1448 C1451 1.387 . S
H1449 C1445 0.950 . S
H1450 C1447 0.950 . S
C1451 C1442 1.390 . S
C1451 H1444 0.950 . S
C1451 C1448 1.387 . S
C1452 C1453 1.387 . S
C1452 H1456 0.950 . S
C1452 C1461 1.390 . S
C1453 C1452 1.387 . S
C1453 C1455 1.387 . S
H1454 C1461 0.950 . S
C1455 C1453 1.387 . S
C1455 C1457 1.390 . S
C1455 H1459 0.950 . S
H1456 C1452 0.950 . S
C1457 C1455 1.390 . S
C1457 C1458 1.387 . S
C1457 H1460 0.950 . S
C1458 C1457 1.387 . S
C1458 C1461 1.387 . S
H1459 C1455 0.950 . S
H1460 C1457 0.950 . S
C1461 C1452 1.390 . S
C1461 H1454 0.950 . S
C1461 C1458 1.387 . S
C1462 C1463 1.387 . S
C1462 H1466 0.950 . S
C1462 C1471 1.390 . S
C1463 C1462 1.387 . S
C1463 C1465 1.387 . S
H1464 C1471 0.950 . S
C1465 C1463 1.387 . S
C1465 C1467 1.390 . S
C1465 H1469 0.950 . S
H1466 C1462 0.950 . S
C1467 C1465 1.390 . S
C1467 C1468 1.387 . S
C1467 H1470 0.950 . S
C1468 C1467 1.387 . S
C1468 C1471 1.387 . S
H1469 C1465 0.950 . S
H1470 C1467 0.950 . S
C1471 C1462 1.390 . S
C1471 H1464 0.950 . S
C1471 C1468 1.387 . S
C1472 C1473 1.387 . S
C1472 H1476 0.950 . S
C1472 C1481 1.390 . S
C1473 C1472 1.387 . S
C1473 C1475 1.387 . S
H1474 C1481 0.950 . S
C1475 C1473 1.387 . S
C1475 C1477 1.390 . S
C1475 H1479 0.950 . S
H1476 C1472 0.950 . S
C1477 C1475 1.390 . S
C1477 C1478 1.387 . S
C1477 H1480 0.950 . S
C1478 C1477 1.387 . S
C1478 C1481 1.387 . S
H1479 C1475 0.950 . S
H1480 C1477 0.950 . S
C1481 C1472 1.390 . S
C1481 H1474 0.950 . S
C1481 C1478 1.387 . S
C1482 C1483 1.387 . S
C1482 H1486 0.950 . S
C1482 C1491 1.390 . S
C1483 C1482 1.387 . S
C1483 C1485 1.387 . S
H1484 C1491 0.950 . S
C1485 C1483 1.387 . S
C1485 C1487 1.390 . S
C1485 H1489 0.950 . S
H1486 C1482 0.950 . S
C1487 C1485 1.390 . S
C1487 C1488 1.387 . S
C1487 H1490 0.950 . S
C1488 C1487 1.387 . S
C1488 C1491 1.387 . S
H1489 C1485 0.950 . S
H1490 C1487 0.950 . S
C1491 C1482 1.390 . S
C1491 H1484 0.950 . S
C1491 C1488 1.387 . S
C1492 C1493 1.387 . S
C1492 H1496 0.950 . S
C1492 C1501 1.390 . S
C1493 C1492 1.387 . S
C1493 C1495 1.387 . S
H1494 C1501 0.950 . S
C1495 C1493 1.387 . S
C1495 C1497 1.390 . S
C1495 H1499 0.950 . S
H1496 C1492 0.950 . S
C1497 C1495 1.390 . S
C1497 C1498 1.387 . S
C1497 H1500 0.950 . S
C1498 C1497 1.387 . S
C1498 C1501 1.387 . S
H1499 C1495 0.950 . S
H1500 C1497 0.950 . S
C1501 C1492 1.390 . S
C1501 H1494 0.950 . S
C1501 C1498 1.387 . S
C1502 C1503 1.387 . S
C1502 H1506 0.950 . S
C1502 C1511 1.390 . S
C1503 C1502 1.387 . S
C1503 C1505 1.387 . S
H1504 C1511 0.950 . S
C1505 C1503 1.387 . S
C1505 C1507 1.390 . S
C1505 H1509 0.950 . S
H1506 C1502 0.950 . S
C1507 C1505 1.390 . S
C1507 C1508 1.387 . S
C1507 H1510 0.950 . S
C1508 C1507 1.387 . S
C1508 C1511 1.387 . S
H1509 C1505 0.950 . S
H1510 C1507 0.950 . S
C1511 C1502 1.390 . S
C1511 H1504 0.950 . S
C1511 C1508 1.387 . S
C1512 C1513 1.387 . S
C1512 H1516 0.950 . S
C1512 C1521 1.390 . S
C1513 C1512 1.387 . S
C1513 C1515 1.387 . S
H1514 C1521 0.950 . S
C1515 C1513 1.387 . S
C1515 C1517 1.390 . S
C1515 H1519 0.950 . S
H1516 C1512 0.950 . S
C1517 C1515 1.390 . S
C1517 C1518 1.387 . S
C1517 H1520 0.950 . S
C1518 C1517 1.387 . S
C1518 C1521 1.387 . S
H1519 C1515 0.950 . S
H1520 C1517 0.950 . S
C1521 C1512 1.390 . S
C1521 H1514 0.950 . S
C1521 C1518 1.387 . S
C1522 C1523 1.387 . S
C1522 H1526 0.950 . S
C1522 C1531 1.390 . S
C1523 C1522 1.387 . S
C1523 C1525 1.387 . S
H1524 C1531 0.950 . S
C1525 C1523 1.387 . S
C1525 C1527 1.390 . S
C1525 H1529 0.950 . S
H1526 C1522 0.950 . S
C1527 C1525 1.390 . S
C1527 C1528 1.387 . S
C1527 H1530 0.950 . S
C1528 C1527 1.387 . S
C1528 C1531 1.387 . S
H1529 C1525 0.950 . S
H1530 C1527 0.950 . S
C1531 C1522 1.390 . S
C1531 H1524 0.950 . S
C1531 C1528 1.387 . S
C1532 C1533 1.387 . S
C1532 H1536 0.950 . S
C1532 C1541 1.390 . S
C1533 C1532 1.387 . S
C1533 C1535 1.387 . S
H1534 C1541 0.950 . S
C1535 C1533 1.387 . S
C1535 C1537 1.390 . S
C1535 H1539 0.950 . S
H1536 C1532 0.950 . S
C1537 C1535 1.390 . S
C1537 C1538 1.387 . S
C1537 H1540 0.950 . S
C1538 C1537 1.387 . S
C1538 C1541 1.387 . S
H1539 C1535 0.950 . S
H1540 C1537 0.950 . S
C1541 C1532 1.390 . S
C1541 H1534 0.950 . S
C1541 C1538 1.387 . S
C1542 C1543 1.387 . S
C1542 H1546 0.950 . S
C1542 C1551 1.390 . S
C1543 C1542 1.387 . S
C1543 C1545 1.387 . S
H1544 C1551 0.950 . S
C1545 C1543 1.387 . S
C1545 C1547 1.390 . S
C1545 H1549 0.950 . S
H1546 C1542 0.950 . S
C1547 C1545 1.390 . S
C1547 C1548 1.387 . S
C1547 H1550 0.950 . S
C1548 C1547 1.387 . S
C1548 C1551 1.387 . S
H1549 C1545 0.950 . S
H1550 C1547 0.950 . S
C1551 C1542 1.390 . S
C1551 H1544 0.950 . S
C1551 C1548 1.387 . S
C1552 C1553 1.387 . S
C1552 H1556 0.950 . S
C1552 C1561 1.390 . S
C1553 C1552 1.387 . S
C1553 C1555 1.387 . S
H1554 C1561 0.950 . S
C1555 C1553 1.387 . S
C1555 C1557 1.390 . S
C1555 H1559 0.950 . S
H1556 C1552 0.950 . S
C1557 C1555 1.390 . S
C1557 C1558 1.387 . S
C1557 H1560 0.950 . S
C1558 C1557 1.387 . S
C1558 C1561 1.387 . S
H1559 C1555 0.950 . S
H1560 C1557 0.950 . S
C1561 C1552 1.390 . S
C1561 H1554 0.950 . S
C1561 C1558 1.387 . S
C1562 C1563 1.387 . S
C1562 H1566 0.950 . S
C1562 C1571 1.390 . S
C1563 C1562 1.387 . S
C1563 C1565 1.387 . S
H1564 C1571 0.950 . S
C1565 C1563 1.387 . S
C1565 C1567 1.390 . S
C1565 H1569 0.950 . S
H1566 C1562 0.950 . S
C1567 C1565 1.390 . S
C1567 C1568 1.387 . S
C1567 H1570 0.950 . S
C1568 C1567 1.387 . S
C1568 C1571 1.387 . S
H1569 C1565 0.950 . S
H1570 C1567 0.950 . S
C1571 C1562 1.390 . S
C1571 H1564 0.950 . S
C1571 C1568 1.387 . S
C1572 C1573 1.387 . S
C1572 H1576 0.950 . S
C1572 C1581 1.390 . S
C1573 C1572 1.387 . S
C1573 C1575 1.387 . S
H1574 C1581 0.950 . S
C1575 C1573 1.387 . S
C1575 C1577 1.390 . S
C1575 H1579 0.950 . S
H1576 C1572 0.950 . S
C1577 C1575 1.390 . S
C1577 C1578 1.387 . S
C1577 H1580 0.950 . S
C1578 C1577 1.387 . S
C1578 C1581 1.387 . S
H1579 C1575 0.950 . S
H1580 C1577 0.950 . S
C1581 C1572 1.390 . S
C1581 H1574 0.950 . S
C1581 C1578 1.387 . S
C1582 C1583 1.387 . S
C1582 H1586 0.950 . S
C1582 C1591 1.390 . S
C1583 C1582 1.387 . S
C1583 C1585 1.387 . S
H1584 C1591 0.950 . S
C1585 C1583 1.387 . S
C1585 C1587 1.390 . S
C1585 H1589 0.950 . S
H1586 C1582 0.950 . S
C1587 C1585 1.390 . S
C1587 C1588 1.387 . S
C1587 H1590 0.950 . S
C1588 C1587 1.387 . S
C1588 C1591 1.387 . S
H1589 C1585 0.950 . S
H1590 C1587 0.950 . S
C1591 C1582 1.390 . S
C1591 H1584 0.950 . S
C1591 C1588 1.387 . S
C1592 C1593 1.387 . S
C1592 H1596 0.950 . S
C1592 C1601 1.390 . S
C1593 C1592 1.387 . S
C1593 C1595 1.387 . S
H1594 C1601 0.950 . S
C1595 C1593 1.387 . S
C1595 C1597 1.390 . S
C1595 H1599 0.950 . S
H1596 C1592 0.950 . S
C1597 C1595 1.390 . S
C1597 C1598 1.387 . S
C1597 H1600 0.950 . S
C1598 C1597 1.387 . S
C1598 C1601 1.387 . S
H1599 C1595 0.950 . S
H1600 C1597 0.950 . S
C1601 C1592 1.390 . S
C1601 H1594 0.950 . S
C1601 C1598 1.387 . S
C1602 C1603 1.387 . S
C1602 H1606 0.950 . S
C1602 C1611 1.390 . S
C1603 C1602 1.387 . S
C1603 C1605 1.387 . S
H1604 C1611 0.950 . S
C1605 C1603 1.387 . S
C1605 C1607 1.390 . S
C1605 H1609 0.950 . S
H1606 C1602 0.950 . S
C1607 C1605 1.390 . S
C1607 C1608 1.387 . S
C1607 H1610 0.950 . S
C1608 C1607 1.387 . S
C1608 C1611 1.387 . S
H1609 C1605 0.950 . S
H1610 C1607 0.950 . S
C1611 C1602 1.390 . S
C1611 H1604 0.950 . S
C1611 C1608 1.387 . S
C1612 C1613 1.387 . S
C1612 H1616 0.950 . S
C1612 C1621 1.390 . S
C1613 C1612 1.387 . S
C1613 C1615 1.387 . S
H1614 C1621 0.950 . S
C1615 C1613 1.387 . S
C1615 C1617 1.390 . S
C1615 H1619 0.950 . S
H1616 C1612 0.950 . S
C1617 C1615 1.390 . S
C1617 C1618 1.387 . S
C1617 H1620 0.950 . S
C1618 C1617 1.387 . S
C1618 C1621 1.387 . S
H1619 C1615 0.950 . S
H1620 C1617 0.950 . S
C1621 C1612 1.390 . S
C1621 H1614 0.950 . S
C1621 C1618 1.387 . S
C1622 C1623 1.387 . S
C1622 H1626 0.950 . S
C1622 C1631 1.390 . S
C1623 C1622 1.387 . S
C1623 C1625 1.387 . S
H1624 C1631 0.950 . S
C1625 C1623 1.387 . S
C1625 C1627 1.390 . S
C1625 H1629 0.950 . S
H1626 C1622 0.950 . S
C1627 C1625 1.390 . S
C1627 C1628 1.387 . S
C1627 H1630 0.950 . S
C1628 C1627 1.387 . S
C1628 C1631 1.387 . S
H1629 C1625 0.950 . S
H1630 C1627 0.950 . S
C1631 C1622 1.390 . S
C1631 H1624 0.950 . S
C1631 C1628 1.387 . S
C673 C286 1.621 . S
C678 C6 1.575 . S
C683 C23 1.909 . S
C688 C247 1.925 . S
C693 C34 1.714 . S
C698 C260 1.901 . S
C703 C275 1.902 . S
C708 C51 1.901 . S
C713 C328 1.602 . S
C718 C65 1.812 . S
C723 C77 1.749 . S
C728 C303 1.910 . S
C733 C93 1.775 . S
C738 C314 1.618 . S
C743 C105 1.619 . S
C748 C231 1.619 . S
C753 C118 1.659 . S
C758 C216 1.653 . S
C763 C135 1.930 . S
C768 C176 1.929 . S
C773 C146 1.552 . S
C778 C188 1.547 . S
C783 C204 1.918 . S
C788 C163 1.919 . S
C793 C345 1.956 . S
C798 C624 1.953 . S
C803 C583 1.749 . S
C808 C357 1.580 . S
C813 C373 1.848 . S
C818 C594 1.693 . S
C823 C611 1.799 . S
C828 C385 1.638 . S
C833 C398 1.359 . S
C838 C664 1.352 . S
C843 C637 1.657 . S
C848 C415 1.831 . S
C853 C426 1.297 . S
C858 C650 1.287 . S
C863 C569 1.932 . S
C868 C443 1.937 . S
C873 C456 1.805 . S
C878 C555 1.802 . S
C883 C510 1.554 . S
C888 C468 1.548 . S
C893 C527 1.724 . S
C898 C484 1.726 . S
C903 C538 1.540 . S
C908 C496 1.542 . S
C913 C370 1.276 . S
C918 C9 1.351 . S
C923 C20 1.204 . S
C928 C386 1.289 . S
C933 C37 1.312 . S
C938 C342 1.259 . S
C943 C48 1.216 . S
C948 C358 1.298 . S
C953 C62 1.357 . S
C958 C429 1.420 . S
C963 C440 1.249 . S
C968 C78 1.311 . S
C973 C401 1.416 . S
C978 C90 1.353 . S
C983 C412 1.258 . S
C988 C106 1.353 . S
C993 C513 1.511 . S
C998 C121 1.520 . S
C1003 C132 1.093 . S
C1008 C524 1.104 . S
C1013 C541 1.481 . S
C1018 C149 1.488 . S
C1023 C160 1.081 . S
C1028 C552 1.091 . S
C1033 C175 1.196 . S
C1038 C455 1.210 . S
C1043 C191 1.360 . S
C1048 C471 1.358 . S
C1053 C483 1.222 . S
C1058 C203 1.204 . S
C1063 C499 1.391 . S
C1068 C219 1.395 . S
C1073 C232 1.406 . S
C1078 C608 1.296 . S
C1083 C244 1.226 . S
C1088 C638 1.322 . S
C1093 C653 1.331 . S
C1098 C259 1.259 1_455 S
C1103 C566 1.164 . S
C1108 C272 1.122 . S
C1113 C289 1.427 . S
C1118 C667 1.385 . S
C1123 C580 1.220 . S
C1128 C300 1.256 . S
C1133 C317 1.469 . S
C1138 C597 1.466 . S
C1143 C331 1.343 . S
C1148 C623 1.273 1_455 S
C1153 C399 1.842 . S
C1158 C8 1.788 . S
C1163 C414 1.743 . S
C1168 C21 1.835 . S
C1173 C427 1.943 . S
C1178 C36 1.915 . S
C1183 C49 1.870 . S
C1188 C442 1.782 . S
C1193 C344 1.780 . S
C1198 C63 1.830 . S
C1203 C356 1.965 . S
C1208 C79 1.914 . S
C1213 C91 1.797 . S
C1218 C372 1.732 . S
C1223 C384 1.870 . S
C1228 C107 1.797 . S
C1233 C120 1.826 . S
C1238 C539 1.870 . S
C1243 C133 1.907 . S
C1248 C554 1.834 . S
C1253 C511 1.866 . S
C1258 C148 1.809 . S
C1263 C161 1.917 . S
C1268 C526 1.821 . S
C1273 C485 1.833 . S
C1278 C174 1.919 . S
C1283 C190 1.770 . S
C1288 C497 1.823 . S
C1293 C202 1.909 . S
C1298 C457 1.847 . S
C1303 C218 1.795 . S
C1308 C469 1.839 . S
C1313 C636 1.882 . S
C1318 C233 1.815 . S
C1323 C245 1.890 . S
C1328 C610 1.780 . S
C1333 C258 1.795 . S
C1338 C625 1.733 . S
C1343 C273 1.861 1_554 S
C1348 C582 1.770 . S
C1353 C595 1.832 . S
C1358 C288 1.776 . S
C1363 C568 1.780 . S
C1368 C301 1.852 . S
C1373 C665 1.928 . S
C1378 C316 1.883 . S
C1383 C330 1.840 . S
C1388 C651 1.905 . S
C1393 C217 1.803 . S
C1398 C7 1.794 . S
C1403 C22 1.482 . S
C1408 C177 1.444 . S
C1413 C189 1.820 . S
C1418 C35 1.798 . S
C1423 C205 1.422 . S
C1428 C50 1.473 . S
C1433 C134 1.425 . S
C1438 C64 1.500 . S
C1443 C76 1.812 . S
C1448 C147 1.838 . S
C1453 C92 1.501 . S
C1458 C162 1.437 . S
C1463 C119 1.806 . S
C1468 C104 1.785 . S
C1473 C230 1.725 . S
C1478 C287 1.734 . S
C1483 C329 1.745 . S
C1488 C246 1.569 . S
C1493 C302 1.450 . S
C1498 C261 1.477 . S
C1503 C274 1.496 . S
C1508 C315 1.743 . S
C1513 C553 1.729 . S
C1518 C343 1.724 . S
C1523 C512 1.425 . S
C1528 C359 1.436 . S
C1533 C371 1.846 . S
C1538 C525 1.828 . S
C1543 C540 1.415 . S
C1548 C387 1.435 . S
C1553 C470 1.495 . S
C1558 C400 1.458 . S
C1563 C413 1.845 . S
C1568 C482 1.831 . S
C1573 C428 1.444 . S
C1578 C498 1.489 . S
C1583 C441 1.715 . S
C1588 C454 1.729 . S
C1593 C567 1.744 . S
C1598 C622 1.740 . S
C1603 C666 1.504 . S
C1608 C581 1.773 . S
C1613 C639 1.384 . S
C1618 C596 1.372 . S
C1623 C652 1.568 . S
C1628 C609 1.806 . S
