# Generated by pormake.
# Topology qdl, (4)-cn, num edge types: 1
# Building blocks:
#     Node 0, Type 0, BuildingBlock: ESEHIV_clean_sbu_0, # of connection points: 4
#     Node 1, Type 0, BuildingBlock: ESEHIV_clean_sbu_0, # of connection points: 4
#     Node 2, Type 0, BuildingBlock: ESEHIV_clean_sbu_0, # of connection points: 4
#     Node 3, Type 0, BuildingBlock: ESEHIV_clean_sbu_0, # of connection points: 4
#     Node 4, Type 0, BuildingBlock: ESEHIV_clean_sbu_0, # of connection points: 4
#     Node 5, Type 0, BuildingBlock: ESEHIV_clean_sbu_0, # of connection points: 4
#     Edge 6, Type (0, 0), BuildingBlock: AJUNOK_clean_linker_0, # of connection points: 2
#     Edge 7, Type (0, 0), BuildingBlock: AJUNOK_clean_linker_0, # of connection points: 2
#     Edge 8, Type (0, 0), BuildingBlock: AJUNOK_clean_linker_0, # of connection points: 2
#     Edge 9, Type (0, 0), BuildingBlock: AJUNOK_clean_linker_0, # of connection points: 2
#     Edge 10, Type (0, 0), BuildingBlock: AJUNOK_clean_linker_0, # of connection points: 2
#     Edge 11, Type (0, 0), BuildingBlock: AJUNOK_clean_linker_0, # of connection points: 2
#     Edge 12, Type (0, 0), BuildingBlock: AJUNOK_clean_linker_0, # of connection points: 2
#     Edge 13, Type (0, 0), BuildingBlock: AJUNOK_clean_linker_0, # of connection points: 2
#     Edge 14, Type (0, 0), BuildingBlock: AJUNOK_clean_linker_0, # of connection points: 2
#     Edge 15, Type (0, 0), BuildingBlock: AJUNOK_clean_linker_0, # of connection points: 2
#     Edge 16, Type (0, 0), BuildingBlock: AJUNOK_clean_linker_0, # of connection points: 2
#     Edge 17, Type (0, 0), BuildingBlock: AJUNOK_clean_linker_0, # of connection points: 2
# Relax obj value: 0.000
# Max RMSD: 0.127
# Mean RMSD: 0.085
data_MOF--net-qdl--node1-ESEHIV_clean_sbu_0--edge1-AJUNOK_clean_linker_0
_symmetry_space_group_name_H-M    P1
_symmetry_Int_Tables_number       1
_symmetry_cell_setting            triclinic
loop_
_symmetry_equiv_pos_as_xyz
'x, y, z'
_cell_length_a     10.695145
_cell_length_b     13.063852
_cell_length_c     68.458576
_cell_angle_alpha  99.736463
_cell_angle_beta   99.302195
_cell_angle_gamma 114.0916
loop_
_atom_site_label
_atom_site_type_symbol
_atom_site_fract_x
_atom_site_fract_y
_atom_site_fract_z
_atom_type_partial_charge
Cu0 Cu 0.21821 0.10903 0.09579 0.0
N1 N 0.10936 0.94699 0.08665 0.0
N2 N 1.04248 0.75764 0.0834 0.0
C3 C 0.14619 0.86651 0.09213 0.0
C4 C 0.93671 0.76946 0.07196 0.0
C5 C 0.97844 0.88636 0.0739 0.0
O6 O 0.31246 0.1384 0.12464 0.0
C7 C 0.32706 0.10298 0.06027 0.0
O8 O 0.23835 0.99199 0.05514 0.0
H9 H 0.24585 0.88736 0.10257 0.0
H10 H 0.91755 0.92442 0.06653 0.0
N11 N 0.10133 0.18433 0.09421 0.0
N12 N 1.0316 0.32348 0.09197 0.0
C13 C 0.13908 0.29359 0.09234 0.0
C14 C 0.96499 0.14313 0.09488 0.0
C15 C 0.92136 0.22794 0.0933 0.0
C16 C 0.32425 0.21985 0.13914 0.0
O17 O 0.29425 0.30219 0.13452 0.0
H18 H 0.24456 0.35076 0.0917 0.0
H19 H 0.90143 1.0573 0.09638 0.0
O20 O 0.34351 0.16506 0.07793 0.0
H21 H 0.83705 0.69868 0.06277 0.0
H22 H 0.81538 0.21821 0.09274 0.0
Cu23 Cu 0.37875 0.2699 0.43512 0.0
N24 N 0.32515 0.18476 0.40755 0.0
N25 N 0.28629 0.14818 0.37332 0.0
C26 C 0.2986 0.22183 0.39079 0.0
C27 C 0.30591 1.06144 0.37932 0.0
C28 C 0.33137 0.08487 0.40039 0.0
O29 O 0.58163 0.36423 0.43992 0.0
C30 C 0.14651 0.31796 0.42935 0.0
O31 O 0.0906 0.21814 0.41546 0.0
H32 H 0.2935 0.30339 0.39146 0.0
H33 H 0.35795 1.03469 0.40987 0.0
N34 N 0.33406 0.17348 0.45309 0.0
N35 N 0.29918 0.12023 0.48211 0.0
C36 C 0.36091 0.2091 0.4737 0.0
C37 C 0.25051 1.05837 0.44823 0.0
C38 C 0.22998 1.02529 0.46601 0.0
C39 C 0.67807 0.35944 0.45276 0.0
O40 O 0.64393 0.30399 0.46683 0.0
H41 H 0.42451 0.29889 0.48222 0.0
H42 H 0.20252 1.00286 0.4328 0.0
O43 O 0.27615 0.36173 0.43911 0.0
H44 H 0.30237 0.98642 0.36923 0.0
H45 H 0.16443 0.93834 0.46687 0.0
Cu46 Cu 0.16034 0.22107 0.78544 0.0
N47 N 0.96534 0.12175 0.77574 0.0
N48 N 0.75631 0.96908 0.77168 0.0
C49 C 0.89532 1.0253 0.78169 0.0
C50 C 0.73821 1.03409 0.75911 0.0
C51 C 0.86738 0.12791 0.7616 0.0
O52 O 0.22003 0.21678 0.81397 0.0
C53 C 0.20219 0.09287 0.75064 0.0
O54 O 1.07469 1.01209 0.74907 0.0
H55 H 0.94577 0.99879 0.79348 0.0
H56 H 0.88864 0.19541 0.75359 0.0
N57 N 0.19995 0.37475 0.78552 0.0
N58 N 0.32407 0.55648 0.7833 0.0
C59 C 0.31443 0.44828 0.78065 0.0
C60 C 0.13243 0.43754 0.79113 0.0
C61 C 0.20859 0.54951 0.78976 0.0
C62 C 0.1426 0.23279 0.82534 0.0
O63 O 1.03691 0.25183 0.81716 0.0
H64 H 0.38805 0.42152 0.77509 0.0
H65 H 1.03583 0.40495 0.79611 0.0
O66 O 0.26114 0.17996 0.76633 0.0
H67 H 0.6391 1.0145 0.74867 0.0
H68 H 0.18237 0.62081 0.79368 0.0
Cu69 Cu 0.41865 0.25819 0.62764 0.0
N70 N 0.39976 0.16408 0.64597 0.0
N71 N 0.3692 0.10435 0.67443 0.0
C72 C 0.38526 0.1907 0.66513 0.0
C73 C 0.37233 1.01958 0.66049 0.0
C74 C 0.39233 1.05702 0.64301 0.0
O75 O 0.31566 0.34741 0.63481 0.0
C76 C 0.72142 0.35681 0.64267 0.0
O77 O 0.69468 0.32037 0.65897 0.0
H78 H 0.38222 0.27054 0.67188 0.0
H79 H 0.3988 1.00891 0.62903 0.0
N80 N 0.33601 0.16736 0.60042 0.0
N81 N 0.29299 0.11639 0.56618 0.0
C82 C 0.37327 0.19996 0.58371 0.0
C83 C 0.22915 1.05915 0.59324 0.0
C84 C 0.20294 1.02725 0.57214 0.0
C85 C 0.22916 0.36247 0.62182 0.0
O86 O 0.22468 0.3344 0.60229 0.0
H87 H 0.45811 0.28331 0.58444 0.0
H88 H 0.17362 1.00744 0.60267 0.0
O89 O 0.61917 0.34872 0.62899 0.0
H90 H 0.36008 0.93628 0.66274 0.0
H91 H 0.1221 0.94572 0.56192 0.0
Cu92 Cu 0.26783 0.30018 0.95416 0.0
N93 N 0.33404 0.46137 0.96212 0.0
N94 N 0.46652 0.65013 0.9651 0.0
C95 C 0.43493 0.53965 0.95567 0.0
C96 C 0.37949 0.64008 0.97771 0.0
C97 C 0.29793 0.52369 0.97582 0.0
O98 O 0.28407 0.25768 0.92601 0.0
C99 C 0.43377 0.31281 0.99264 0.0
O100 O 0.4791 0.42542 0.99591 0.0
H101 H 0.48208 0.51494 0.94404 0.0
H102 H 0.22016 0.48699 0.98418 0.0
N103 N 1.07612 0.22377 0.95368 0.0
N104 N 0.87375 0.07983 0.95495 0.0
C105 C 1.0152 0.11949 0.95764 0.0
C106 C 0.9706 0.25314 0.94876 0.0
C107 C 0.84571 0.16451 0.9495 0.0
C108 C 0.21718 0.28948 0.91309 0.0
O109 O 0.15132 0.34827 0.91979 0.0
H110 H 1.07519 0.07512 0.9627 0.0
H111 H 0.98303 0.33263 0.94471 0.0
O112 O 0.36014 0.24772 0.97475 0.0
H113 H 0.37703 0.71172 0.98794 0.0
H114 H 0.74192 0.16187 0.94591 0.0
Cu115 Cu 0.0994 0.13591 0.24735 0.0
N116 N 0.98203 0.21038 0.24531 0.0
N117 N 0.91466 0.34924 0.2424 0.0
C118 C 1.02515 0.3241 0.24632 0.0
C119 C 0.79753 0.2481 0.23877 0.0
C120 C 0.83939 0.16272 0.24078 0.0
O121 O 0.22504 0.19203 0.22963 0.0
C122 C 0.1215 0.16277 0.28936 0.0
O123 O 0.98951 0.14428 0.28316 0.0
H124 H 0.13498 0.38628 0.24911 0.0
H125 H 0.77021 0.07201 0.23878 0.0
N126 N 0.99238 0.9744 0.23767 0.0
N127 N 0.92598 0.78447 0.23452 0.0
C128 C 1.02382 0.89455 0.24446 0.0
C129 C 0.872 0.91347 0.22268 0.0
C130 C 0.8304 0.79684 0.22079 0.0
C131 C 0.26423 0.12958 0.21816 0.0
O132 O 0.23761 1.02532 0.22032 0.0
H133 H 0.11974 0.91804 0.25597 0.0
H134 H 0.81881 0.95101 0.21358 0.0
O135 O 0.19457 0.16767 0.27621 0.0
H136 H 0.68968 0.23685 0.23479 0.0
H137 H 0.73638 0.72673 0.21008 0.0
C138 C 0.13072 0.61011 0.07813 0.0
C139 C 1.04189 0.65075 0.08617 0.0
C140 C 0.12684 0.50339 0.08008 0.0
C141 C 1.03478 0.43387 0.09033 0.0
H142 H 0.20161 0.66036 0.06997 0.0
H143 H 0.1949 0.47437 0.0732 0.0
S144 S 0.79223 0.51097 0.116 0.0
N145 N 0.86603 0.61903 0.10565 0.0
N146 N 0.8607 0.42082 0.11005 0.0
C147 C 0.94825 0.47632 0.09893 0.0
C148 C 0.95147 0.58418 0.09669 0.0
C149 C 0.82101 0.36507 0.42723 0.0
C150 C 0.81561 0.38285 0.4479 0.0
C151 C 0.93545 0.35369 0.42146 0.0
C152 C 1.05028 0.36292 0.43615 0.0
H153 H 0.73109 0.34986 0.41522 0.0
H154 H 0.9301 0.33063 0.40527 0.0
S155 S 0.09842 0.42858 0.49245 0.0
N156 N 0.9424 0.42273 0.48324 0.0
N157 N 0.15981 0.40462 0.47239 0.0
C158 C 1.05294 0.39218 0.45698 0.0
C159 C 0.93484 0.4013 0.46285 0.0
C160 C 0.50836 0.8471 0.77194 0.0
C161 C 0.649 0.86356 0.77418 0.0
C162 C 0.40344 0.74692 0.77488 0.0
C163 C 0.43429 0.65852 0.78017 0.0
H164 H 0.47936 0.91304 0.76819 0.0
H165 H 0.29692 0.73851 0.77284 0.0
S166 S 0.7863 0.65792 0.78735 0.0
N167 N 0.81205 0.78013 0.78107 0.0
N168 N 0.61824 0.59584 0.78773 0.0
C169 C 0.57479 0.67381 0.78237 0.0
C170 C 0.68113 0.77524 0.77914 0.0
C171 C 0.96912 0.37821 0.65272 0.0
C172 C 0.86261 0.38338 0.6384 0.0
C173 C 0.09211 0.37979 0.64773 0.0
C174 C 0.11423 0.38629 0.62814 0.0
H175 H 0.95468 0.36704 0.66765 0.0
H176 H 0.1665 0.36933 0.65901 0.0
S177 S 0.87993 0.42161 0.58616 0.0
N178 N 0.79672 0.41031 0.60459 0.0
N179 N 1.02714 0.41316 0.59523 0.0
C180 C 1.01411 0.4009 0.61423 0.0
C181 C 0.88877 0.39955 0.61934 0.0
C182 C 0.55005 0.8576 0.96547 0.0
C183 C 0.57069 0.75684 0.96247 0.0
C184 C 0.64908 0.9621 0.963 0.0
C185 C 0.77318 0.97067 0.95734 0.0
H186 H 0.45575 0.85569 0.96959 0.0
H187 H 0.62858 1.03714 0.96576 0.0
S188 S 0.87855 0.73215 0.94763 0.0
N189 N 0.72805 0.67379 0.95418 0.0
N190 N 0.90871 0.86707 0.94821 0.0
C191 C 0.79481 0.87026 0.95414 0.0
C192 C 0.69496 0.76426 0.95698 0.0
C193 C 0.84593 0.46749 0.22269 0.0
C194 C 0.91968 0.45905 0.24076 0.0
C195 C 0.84986 0.57389 0.22075 0.0
C196 C 0.92514 0.67596 0.23701 0.0
H197 H 0.78666 0.39136 0.20985 0.0
H198 H 0.79433 0.57578 0.20625 0.0
S199 S 0.12456 0.69427 0.28841 0.0
N200 N 1.06544 0.55788 0.27543 0.0
N201 N 1.06728 0.757 0.27251 0.0
C202 C 0.99672 0.66708 0.25543 0.0
C203 C 0.99519 0.5589 0.25712 0.0
C204 C 0.30372 0.26209 0.19468 0.0
C205 C 0.31075 0.16427 0.19984 0.0
C206 C 0.31833 0.28378 0.17557 0.0
C207 C 0.34047 0.20863 0.16068 0.0
H208 H 0.27901 0.31935 0.20502 0.0
H209 H 0.30431 0.35687 0.17209 0.0
S210 S 0.3955 0.95325 0.16801 0.0
N211 N 0.3627 1.00123 0.18955 0.0
N212 N 0.38928 1.04161 0.15367 0.0
C213 C 0.36016 0.11629 0.16631 0.0
C214 C 0.34555 0.09427 0.18584 0.0
C215 C 0.28299 1.02282 0.531 0.0
C216 C 0.29944 0.12091 0.54538 0.0
C217 C 0.28534 1.02425 0.51059 0.0
C218 C 0.30241 0.12342 0.50352 0.0
H219 H 0.26944 0.94451 0.53564 0.0
H220 H 0.27432 0.94678 0.50027 0.0
S221 S 0.33999 0.40083 0.53504 0.0
N222 N 0.32878 0.31869 0.55116 0.0
N223 N 0.3299 0.32131 0.51282 0.0
C224 C 0.31799 0.22212 0.51783 0.0
C225 C 0.31717 0.22081 0.53871 0.0
C226 C 1.05248 0.21748 0.85651 0.0
C227 C 0.16496 0.2307 0.84734 0.0
C228 C 1.07013 0.23045 0.8776 0.0
C229 C 0.20071 0.25623 0.89064 0.0
H230 H 0.94978 0.20027 0.84743 0.0
H231 H 0.98092 0.22346 0.88384 0.0
S232 S 0.52701 0.29021 0.87449 0.0
N233 N 0.41052 0.26382 0.85291 0.0
N234 N 0.44312 0.28737 0.89283 0.0
C235 C 0.31256 0.26301 0.8817 0.0
C236 C 0.2948 0.25039 0.85999 0.0
C237 C 0.34127 0.08912 0.02371 0.0
C238 C 0.38299 0.15768 0.04406 0.0
C239 C 0.3672 0.13949 1.00731 0.0
C240 C 0.43672 0.26084 1.01047 0.0
H241 H 0.28113 0.9956 1.02018 0.0
H242 H 0.32556 0.08268 0.99191 0.0
S243 S 0.58825 0.47861 0.06115 0.0
N244 N 0.51263 0.35284 0.06666 0.0
N245 N 0.56283 0.4477 0.03601 0.0
C246 C 0.48978 0.32997 0.03094 0.0
C247 C 0.46259 0.27847 0.04765 0.0
C248 C 0.11652 0.20309 0.3262 0.0
C249 C 0.17735 0.16892 0.31112 0.0
C250 C 0.1557 0.19925 0.34655 0.0
C251 C 0.25543 0.15899 0.35262 0.0
H252 H 1.03622 0.23174 0.3222 0.0
H253 H 0.10399 0.22433 0.35748 0.0
S254 S 0.45121 1.0643 0.3194 0.0
N255 N 0.34685 0.09763 0.30393 0.0
N256 N 0.41982 0.0897 0.34213 0.0
C257 C 0.31966 0.127 0.33784 0.0
C258 C 0.28108 0.13241 0.31713 0.0
C259 C 0.2351 0.99799 0.69673 0.0
C260 C 0.34089 0.0994 0.69428 0.0
C261 C 0.19623 0.99501 0.71535 0.0
C262 C 0.26279 0.09293 0.73243 0.0
H263 H 0.17765 0.92185 0.68387 0.0
H264 H 0.10994 0.91615 0.71611 0.0
S265 S 0.56076 0.37501 0.73464 0.0
N266 N 0.52107 0.29648 0.71092 0.0
N267 N 0.45048 0.29113 0.746 0.0
C268 C 0.37508 0.19274 0.73049 0.0
C269 C 0.41316 0.19604 0.71141 0.0
loop_
_geom_bond_atom_site_label_1
_geom_bond_atom_site_label_2
_geom_bond_distance
_geom_bond_site_symmetry_2
_ccdc_geom_bond_type
Cu0 N1 1.999 . S
Cu0 O6 1.974 . S
Cu0 N11 1.985 . S
Cu0 O20 1.959 . S
N1 Cu0 1.999 . S
N1 C3 1.263 . S
N1 C5 1.389 . S
N2 C3 1.358 1_565 S
N2 C4 1.400 . S
C3 N1 1.263 . S
C3 N2 1.358 1_545 S
C3 H9 0.930 . S
C4 N2 1.400 . S
C4 C5 1.351 1_565 S
C4 H21 0.930 . S
C5 N1 1.389 . S
C5 C4 1.351 1_545 S
C5 H10 0.930 . S
O6 Cu0 1.974 . S
O6 C16 1.282 . S
C7 O8 1.261 . S
C7 O20 1.251 . S
O8 C7 1.261 . S
H9 C3 0.930 . S
H10 C5 0.930 . S
N11 Cu0 1.985 . S
N11 C13 1.335 . S
N11 C14 1.390 . S
N12 C13 1.345 . S
N12 C15 1.336 . S
C13 N11 1.335 . S
C13 N12 1.345 . S
C13 H18 0.930 . S
C14 N11 1.390 . S
C14 C15 1.346 . S
C14 H19 0.930 . S
C15 N12 1.336 . S
C15 C14 1.346 . S
C15 H22 0.929 . S
C16 O6 1.282 . S
C16 O17 1.216 . S
O17 C16 1.216 . S
H18 C13 0.930 . S
H19 C14 0.930 . S
O20 Cu0 1.959 . S
O20 C7 1.251 . S
H21 C4 0.930 . S
H22 C15 0.929 . S
Cu23 N24 1.999 . S
Cu23 O29 1.974 . S
Cu23 N34 1.985 . S
Cu23 O43 1.959 1_455 S
N24 Cu23 1.999 . S
N24 C26 1.263 . S
N24 C28 1.389 . S
N25 C26 1.358 . S
N25 C27 1.400 . S
C26 N24 1.263 . S
C26 N25 1.358 . S
C26 H32 0.930 . S
C27 N25 1.400 . S
C27 C28 1.351 . S
C27 H44 0.930 . S
C28 N24 1.389 . S
C28 C27 1.351 . S
C28 H33 0.930 . S
O29 Cu23 1.974 . S
O29 C39 1.282 1_545 S
C30 O31 1.261 1_545 S
C30 O43 1.251 . S
O31 C30 1.261 1_565 S
H32 C26 0.930 . S
H33 C28 0.930 . S
N34 Cu23 1.985 . S
N34 C36 1.335 . S
N34 C37 1.390 . S
N35 C36 1.345 . S
N35 C38 1.336 1_545 S
C36 N34 1.335 . S
C36 N35 1.345 . S
C36 H41 0.930 . S
C37 N34 1.390 . S
C37 C38 1.346 1_545 S
C37 H42 0.930 1_545 S
C38 N35 1.336 1_565 S
C38 C37 1.346 1_565 S
C38 H45 0.929 . S
C39 O29 1.282 1_565 S
C39 O40 1.216 . S
O40 C39 1.216 . S
H41 C36 0.930 . S
H42 C37 0.930 1_565 S
O43 Cu23 1.959 1_655 S
O43 C30 1.251 . S
H44 C27 0.930 . S
H45 C38 0.929 . S
Cu46 N47 1.999 1_445 S
Cu46 O52 1.974 . S
Cu46 N57 1.985 . S
Cu46 O66 1.959 . S
N47 Cu46 1.999 1_665 S
N47 C49 1.263 . S
N47 C51 1.389 . S
N48 C49 1.358 . S
N48 C50 1.400 . S
C49 N47 1.263 . S
C49 N48 1.358 . S
C49 H55 0.930 . S
C50 N48 1.400 . S
C50 C51 1.351 . S
C50 H67 0.930 . S
C51 N47 1.389 . S
C51 C50 1.351 . S
C51 H56 0.930 . S
O52 Cu46 1.974 . S
O52 C62 1.282 1_455 S
C53 O54 1.261 . S
C53 O66 1.251 1_655 S
O54 C53 1.261 . S
H55 C49 0.930 . S
H56 C51 0.930 . S
N57 Cu46 1.985 . S
N57 C59 1.335 . S
N57 C60 1.390 . S
N58 C59 1.345 . S
N58 C61 1.336 . S
C59 N57 1.335 . S
C59 N58 1.345 . S
C59 H64 0.930 . S
C60 N57 1.390 . S
C60 C61 1.346 . S
C60 H65 0.930 . S
C61 N58 1.336 . S
C61 C60 1.346 . S
C61 H68 0.929 . S
C62 O52 1.282 1_655 S
C62 O63 1.216 . S
O63 C62 1.216 . S
H64 C59 0.930 . S
H65 C60 0.930 . S
O66 Cu46 1.959 . S
O66 C53 1.251 1_455 S
H67 C50 0.930 . S
H68 C61 0.929 . S
Cu69 N70 1.999 . S
Cu69 O75 1.974 1_455 S
Cu69 N80 1.985 1_455 S
Cu69 O89 1.959 . S
N70 Cu69 1.999 . S
N70 C72 1.263 1_455 S
N70 C74 1.389 . S
N71 C72 1.358 1_455 S
N71 C73 1.400 . S
C72 N70 1.263 1_655 S
C72 N71 1.358 1_655 S
C72 H78 0.930 . S
C73 N71 1.400 . S
C73 C74 1.351 . S
C73 H90 0.930 . S
C74 N70 1.389 . S
C74 C73 1.351 . S
C74 H79 0.930 . S
O75 Cu69 1.974 1_655 S
O75 C85 1.282 1_545 S
C76 O77 1.261 . S
C76 O89 1.251 1_565 S
O77 C76 1.261 . S
H78 C72 0.930 . S
H79 C74 0.930 . S
N80 Cu69 1.985 1_655 S
N80 C82 1.335 1_655 S
N80 C83 1.390 1_545 S
N81 C82 1.345 . S
N81 C84 1.336 1_445 S
C82 N80 1.335 1_455 S
C82 N81 1.345 . S
C82 H87 0.930 . S
C83 N80 1.390 1_565 S
C83 C84 1.346 . S
C83 H88 0.930 . S
C84 N81 1.336 1_665 S
C84 C83 1.346 . S
C84 H91 0.929 . S
C85 O75 1.282 1_565 S
C85 O86 1.216 . S
O86 C85 1.216 . S
H87 C82 0.930 . S
H88 C83 0.930 . S
O89 Cu69 1.959 . S
O89 C76 1.251 1_545 S
H90 C73 0.930 . S
H91 C84 0.929 . S
Cu92 N93 1.999 . S
Cu92 O98 1.974 . S
Cu92 N103 1.985 1_455 S
Cu92 O112 1.959 . S
N93 Cu92 1.999 . S
N93 C95 1.263 . S
N93 C97 1.389 . S
N94 C95 1.358 . S
N94 C96 1.400 . S
C95 N93 1.263 . S
C95 N94 1.358 . S
C95 H101 0.930 . S
C96 N94 1.400 . S
C96 C97 1.351 . S
C96 H113 0.930 . S
C97 N93 1.389 . S
C97 C96 1.351 . S
C97 H102 0.930 . S
O98 Cu92 1.974 . S
O98 C108 1.279 1_455 S
C99 O100 1.261 . S
C99 O112 1.251 . S
O100 C99 1.261 . S
H101 C95 0.930 . S
H102 C97 0.930 . S
N103 Cu92 1.985 1_655 S
N103 C105 1.335 1_545 S
N103 C106 1.390 1_545 S
N104 C105 1.345 . S
N104 C107 1.336 . S
C105 N103 1.335 1_565 S
C105 N104 1.345 . S
C105 H110 0.930 . S
C106 N103 1.390 1_565 S
C106 C107 1.346 . S
C106 H111 0.930 1_565 S
C107 N104 1.336 . S
C107 C106 1.346 . S
C107 H114 0.929 . S
C108 O98 1.279 1_655 S
C108 O109 1.219 . S
O109 C108 1.219 . S
H110 C105 0.930 . S
H111 C106 0.930 1_545 S
O112 Cu92 1.959 . S
O112 C99 1.251 . S
H113 C96 0.930 . S
H114 C107 0.929 . S
Cu115 N116 1.999 . S
Cu115 O121 1.974 . S
Cu115 N126 1.985 . S
Cu115 O135 1.959 . S
N116 Cu115 1.999 . S
N116 C118 1.263 . S
N116 C120 1.389 . S
N117 C118 1.358 . S
N117 C119 1.400 . S
C118 N116 1.263 . S
C118 N117 1.358 . S
C118 H124 0.930 . S
C119 N117 1.400 . S
C119 C120 1.351 . S
C119 H136 0.930 . S
C120 N116 1.389 . S
C120 C119 1.351 . S
C120 H125 0.930 . S
O121 Cu115 1.974 . S
O121 C131 1.282 . S
C122 O123 1.261 . S
C122 O135 1.251 . S
O123 C122 1.261 . S
H124 C118 0.930 . S
H125 C120 0.930 . S
N126 Cu115 1.985 . S
N126 C128 1.335 1_545 S
N126 C129 1.390 1_545 S
N127 C128 1.345 . S
N127 C130 1.336 . S
C128 N126 1.335 1_565 S
C128 N127 1.345 . S
C128 H133 0.930 . S
C129 N126 1.390 1_565 S
C129 C130 1.346 . S
C129 H134 0.930 . S
C130 N127 1.336 . S
C130 C129 1.346 . S
C130 H137 0.929 . S
C131 O121 1.282 . S
C131 O132 1.216 . S
O132 C131 1.216 . S
H133 C128 0.930 . S
H134 C129 0.930 . S
O135 Cu115 1.959 . S
O135 C122 1.251 . S
H136 C119 0.930 . S
H137 C130 0.929 . S
C138 C139 1.369 . S
C138 C140 1.419 . S
C138 H142 0.930 . S
C139 C138 1.369 . S
C139 C148 1.429 . S
C140 C138 1.419 . S
C140 C141 1.363 . S
C140 H143 0.929 . S
C141 C140 1.363 . S
C141 C147 1.428 . S
H142 C138 0.930 . S
H143 C140 0.929 . S
S144 N145 1.613 . S
S144 N146 1.610 . S
N145 S144 1.613 . S
N145 C148 1.350 . S
N146 S144 1.610 . S
N146 C147 1.351 . S
C147 C141 1.428 . S
C147 N146 1.351 . S
C147 C148 1.434 . S
C148 C139 1.429 . S
C148 N145 1.350 . S
C148 C147 1.434 . S
C149 C150 1.369 . S
C149 C151 1.419 . S
C149 H153 0.930 . S
C150 C149 1.369 . S
C150 C159 1.429 1_545 S
C151 C149 1.419 . S
C151 C152 1.363 . S
C151 H154 0.929 . S
C152 C151 1.363 . S
C152 C158 1.428 1_545 S
H153 C149 0.930 . S
H154 C151 0.929 . S
S155 N156 1.613 . S
S155 N157 1.610 . S
N156 S155 1.613 . S
N156 C159 1.350 . S
N157 S155 1.610 . S
N157 C158 1.351 . S
C158 C152 1.428 1_565 S
C158 N157 1.351 . S
C158 C159 1.434 . S
C159 C150 1.429 1_565 S
C159 N156 1.350 . S
C159 C158 1.434 . S
C160 C161 1.369 . S
C160 C162 1.419 . S
C160 H164 0.930 . S
C161 C160 1.369 . S
C161 C170 1.429 . S
C162 C160 1.419 . S
C162 C163 1.363 . S
C162 H165 0.929 . S
C163 C162 1.363 . S
C163 C169 1.428 . S
H164 C160 0.930 . S
H165 C162 0.929 . S
S166 N167 1.613 . S
S166 N168 1.610 . S
N167 S166 1.613 . S
N167 C170 1.350 . S
N168 S166 1.610 . S
N168 C169 1.351 . S
C169 C163 1.428 . S
C169 N168 1.351 . S
C169 C170 1.434 . S
C170 C161 1.429 . S
C170 N167 1.350 . S
C170 C169 1.434 . S
C171 C172 1.369 . S
C171 C173 1.419 . S
C171 H175 0.930 . S
C172 C171 1.369 . S
C172 C181 1.429 1_565 S
C173 C171 1.419 . S
C173 C174 1.363 . S
C173 H176 0.929 . S
C174 C173 1.363 . S
C174 C180 1.428 1_565 S
H175 C171 0.930 . S
H176 C173 0.929 . S
S177 N178 1.613 . S
S177 N179 1.610 . S
N178 S177 1.613 . S
N178 C181 1.350 . S
N179 S177 1.610 . S
N179 C180 1.351 . S
C180 C174 1.428 1_545 S
C180 N179 1.351 . S
C180 C181 1.434 . S
C181 C172 1.429 1_545 S
C181 N178 1.350 . S
C181 C180 1.434 . S
C182 C183 1.369 . S
C182 C184 1.419 . S
C182 H186 0.930 . S
C183 C182 1.369 . S
C183 C192 1.429 . S
C184 C182 1.419 . S
C184 C185 1.363 . S
C184 H187 0.929 . S
C185 C184 1.363 . S
C185 C191 1.428 . S
H186 C182 0.930 . S
H187 C184 0.929 . S
S188 N189 1.613 . S
S188 N190 1.610 . S
N189 S188 1.613 . S
N189 C192 1.350 . S
N190 S188 1.610 . S
N190 C191 1.351 . S
C191 C185 1.428 . S
C191 N190 1.351 . S
C191 C192 1.434 . S
C192 C183 1.429 . S
C192 N189 1.350 . S
C192 C191 1.434 . S
C193 C194 1.369 . S
C193 C195 1.419 . S
C193 H197 0.930 . S
C194 C193 1.369 . S
C194 C203 1.429 . S
C195 C193 1.419 . S
C195 C196 1.363 . S
C195 H198 0.929 . S
C196 C195 1.363 . S
C196 C202 1.428 . S
H197 C193 0.930 . S
H198 C195 0.929 . S
S199 N200 1.613 . S
S199 N201 1.610 . S
N200 S199 1.613 . S
N200 C203 1.350 . S
N201 S199 1.610 . S
N201 C202 1.351 . S
C202 C196 1.428 . S
C202 N201 1.351 . S
C202 C203 1.434 . S
C203 C194 1.429 . S
C203 N200 1.350 . S
C203 C202 1.434 . S
C204 C205 1.369 . S
C204 C206 1.419 . S
C204 H208 0.930 . S
C205 C204 1.369 . S
C205 C214 1.429 . S
C206 C204 1.419 . S
C206 C207 1.363 . S
C206 H209 0.929 . S
C207 C206 1.363 . S
C207 C213 1.428 . S
H208 C204 0.930 . S
H209 C206 0.929 . S
S210 N211 1.613 . S
S210 N212 1.610 . S
N211 S210 1.613 . S
N211 C214 1.350 1_565 S
N212 S210 1.610 . S
N212 C213 1.351 1_565 S
C213 C207 1.428 . S
C213 N212 1.351 1_545 S
C213 C214 1.434 . S
C214 C205 1.429 . S
C214 N211 1.350 1_545 S
C214 C213 1.434 . S
C215 C216 1.369 1_565 S
C215 C217 1.419 . S
C215 H219 0.930 . S
C216 C215 1.369 1_545 S
C216 C225 1.429 . S
C217 C215 1.419 . S
C217 C218 1.363 1_565 S
C217 H220 0.929 . S
C218 C217 1.363 1_545 S
C218 C224 1.428 . S
H219 C215 0.930 . S
H220 C217 0.929 . S
S221 N222 1.613 . S
S221 N223 1.610 1_655 S
N222 S221 1.613 . S
N222 C225 1.350 1_655 S
N223 S221 1.610 1_455 S
N223 C224 1.351 . S
C224 C218 1.428 . S
C224 N223 1.351 . S
C224 C225 1.434 . S
C225 C216 1.429 . S
C225 N222 1.350 1_455 S
C225 C224 1.434 . S
C226 C227 1.369 . S
C226 C228 1.419 . S
C226 H230 0.930 . S
C227 C226 1.369 . S
C227 C236 1.429 1_655 S
C228 C226 1.419 . S
C228 C229 1.363 1_655 S
C228 H231 0.929 . S
C229 C228 1.363 1_455 S
C229 C235 1.428 . S
H230 C226 0.930 . S
H231 C228 0.929 . S
S232 N233 1.613 . S
S232 N234 1.610 . S
N233 S232 1.613 . S
N233 C236 1.350 . S
N234 S232 1.610 . S
N234 C235 1.351 . S
C235 C229 1.428 . S
C235 N234 1.351 . S
C235 C236 1.434 . S
C236 C227 1.429 1_455 S
C236 N233 1.350 . S
C236 C235 1.434 . S
C237 C238 1.369 . S
C237 C239 1.419 1_554 S
C237 H241 0.930 . S
C238 C237 1.369 . S
C238 C247 1.429 . S
C239 C237 1.419 1_556 S
C239 C240 1.363 . S
C239 H242 0.929 . S
C240 C239 1.363 . S
C240 C246 1.428 . S
H241 C237 0.930 . S
H242 C239 0.929 . S
S243 N244 1.613 . S
S243 N245 1.610 1_554 S
N244 S243 1.613 . S
N244 C247 1.350 1_655 S
N245 S243 1.610 1_556 S
N245 C246 1.351 1_655 S
C246 C240 1.428 . S
C246 N245 1.351 1_455 S
C246 C247 1.434 1_556 S
C247 C238 1.429 . S
C247 N244 1.350 1_455 S
C247 C246 1.434 1_554 S
C248 C249 1.369 . S
C248 C250 1.419 . S
C248 H252 0.930 . S
C249 C248 1.369 . S
C249 C258 1.429 . S
C250 C248 1.419 . S
C250 C251 1.363 . S
C250 H253 0.929 . S
C251 C250 1.363 . S
C251 C257 1.428 1_545 S
H252 C248 0.930 . S
H253 C250 0.929 . S
S254 N255 1.613 . S
S254 N256 1.610 . S
N255 S254 1.613 . S
N255 C258 1.350 1_565 S
N256 S254 1.610 . S
N256 C257 1.351 . S
C257 C251 1.428 1_565 S
C257 N256 1.351 . S
C257 C258 1.434 1_565 S
C258 C249 1.429 . S
C258 N255 1.350 1_545 S
C258 C257 1.434 1_545 S
C259 C260 1.369 1_655 S
C259 C261 1.419 . S
C259 H263 0.930 1_545 S
C260 C259 1.369 1_455 S
C260 C269 1.429 . S
C261 C259 1.419 . S
C261 C262 1.363 . S
C261 H264 0.929 1_545 S
C262 C261 1.363 . S
C262 C268 1.428 . S
H263 C259 0.930 1_565 S
H264 C261 0.929 1_565 S
S265 N266 1.613 . S
S265 N267 1.610 . S
N266 S265 1.613 . S
N266 C269 1.350 . S
N267 S265 1.610 . S
N267 C268 1.351 1_455 S
C268 C262 1.428 . S
C268 N267 1.351 1_655 S
C268 C269 1.434 1_655 S
C269 C260 1.429 . S
C269 N266 1.350 . S
C269 C268 1.434 1_455 S
C139 N2 1.466 . S
C141 N12 1.462 . S
C150 C39 1.488 1_545 S
C152 C30 1.497 . S
C161 N48 1.459 . S
C163 N58 1.468 . S
C172 C76 1.497 . S
C174 C85 1.489 . S
C183 N94 1.459 . S
C185 N104 1.466 . S
C194 N117 1.459 . S
C196 N127 1.468 . S
C205 C131 1.476 . S
C207 C16 1.475 . S
C216 N81 1.463 . S
C218 N35 1.467 . S
C227 C62 1.533 . S
C229 C108 1.535 1_455 S
C238 C7 1.529 . S
C240 C99 1.527 . S
C249 C122 1.493 . S
C251 N25 1.454 . S
C260 N71 1.486 . S
C262 C53 1.523 . S
