# Generated by pormake.
# Topology unp, (4)-cn, num edge types: 1
# Building blocks:
#     Node 0, Type 0, BuildingBlock: CEKHIL_clean_sbu_0, # of connection points: 4
#     Node 1, Type 0, BuildingBlock: CEKHIL_clean_sbu_0, # of connection points: 4
#     Node 2, Type 0, BuildingBlock: CEKHIL_clean_sbu_0, # of connection points: 4
#     Node 3, Type 0, BuildingBlock: CEKHIL_clean_sbu_0, # of connection points: 4
#     Node 4, Type 0, BuildingBlock: CEKHIL_clean_sbu_0, # of connection points: 4
#     Node 5, Type 0, BuildingBlock: CEKHIL_clean_sbu_0, # of connection points: 4
#     Node 6, Type 0, BuildingBlock: CEKHIL_clean_sbu_0, # of connection points: 4
#     Node 7, Type 0, BuildingBlock: CEKHIL_clean_sbu_0, # of connection points: 4
#     Node 8, Type 0, BuildingBlock: CEKHIL_clean_sbu_0, # of connection points: 4
#     Node 9, Type 0, BuildingBlock: CEKHIL_clean_sbu_0, # of connection points: 4
#     Node 10, Type 0, BuildingBlock: CEKHIL_clean_sbu_0, # of connection points: 4
#     Node 11, Type 0, BuildingBlock: CEKHIL_clean_sbu_0, # of connection points: 4
#     Node 12, Type 0, BuildingBlock: CEKHIL_clean_sbu_0, # of connection points: 4
#     Node 13, Type 0, BuildingBlock: CEKHIL_clean_sbu_0, # of connection points: 4
#     Node 14, Type 0, BuildingBlock: CEKHIL_clean_sbu_0, # of connection points: 4
#     Node 15, Type 0, BuildingBlock: CEKHIL_clean_sbu_0, # of connection points: 4
#     Node 16, Type 0, BuildingBlock: CEKHIL_clean_sbu_0, # of connection points: 4
#     Node 17, Type 0, BuildingBlock: CEKHIL_clean_sbu_0, # of connection points: 4
#     Edge 18, Type (0, 0), None
#     Edge 19, Type (0, 0), None
#     Edge 20, Type (0, 0), None
#     Edge 21, Type (0, 0), None
#     Edge 22, Type (0, 0), None
#     Edge 23, Type (0, 0), None
#     Edge 24, Type (0, 0), None
#     Edge 25, Type (0, 0), None
#     Edge 26, Type (0, 0), None
#     Edge 27, Type (0, 0), None
#     Edge 28, Type (0, 0), None
#     Edge 29, Type (0, 0), None
#     Edge 30, Type (0, 0), None
#     Edge 31, Type (0, 0), None
#     Edge 32, Type (0, 0), None
#     Edge 33, Type (0, 0), None
#     Edge 34, Type (0, 0), None
#     Edge 35, Type (0, 0), None
#     Edge 36, Type (0, 0), None
#     Edge 37, Type (0, 0), None
#     Edge 38, Type (0, 0), None
#     Edge 39, Type (0, 0), None
#     Edge 40, Type (0, 0), None
#     Edge 41, Type (0, 0), None
#     Edge 42, Type (0, 0), None
#     Edge 43, Type (0, 0), None
#     Edge 44, Type (0, 0), None
#     Edge 45, Type (0, 0), None
#     Edge 46, Type (0, 0), None
#     Edge 47, Type (0, 0), None
#     Edge 48, Type (0, 0), None
#     Edge 49, Type (0, 0), None
#     Edge 50, Type (0, 0), None
#     Edge 51, Type (0, 0), None
#     Edge 52, Type (0, 0), None
#     Edge 53, Type (0, 0), None
# Relax obj value: 0.411
# Max RMSD: 0.192
# Mean RMSD: 0.192
data_MOF--net-unp--node1-CEKHIL_clean_sbu_0--edge1-none
_symmetry_space_group_name_H-M    P1
_symmetry_Int_Tables_number       1
_symmetry_cell_setting            triclinic
loop_
_symmetry_equiv_pos_as_xyz
'x, y, z'
_cell_length_a     22.499155
_cell_length_b     22.474426
_cell_length_c     25.077896
_cell_angle_alpha  90.01062
_cell_angle_beta   89.990295
_cell_angle_gamma 119.90583
loop_
_atom_site_label
_atom_site_type_symbol
_atom_site_fract_x
_atom_site_fract_y
_atom_site_fract_z
_atom_type_partial_charge
Co0 Co 0.169 0.11402 0.10063 0.0
O1 O 0.25681 0.12086 0.09813 0.0
O2 O 0.22825 0.18161 0.15191 0.0
C3 C 0.10294 -0.00298 0.09543 0.0
O4 O 0.07991 0.1169 0.11227 0.0
Co5 Co 0.08979 0.05128 -0.00446 0.0
O6 O 0.02174 0.06407 0.03798 0.0
C7 C 0.20183 0.1789 -0.00656 0.0
C8 C 0.27503 0.16916 0.13297 0.0
C9 C 0.026 0.09272 0.08274 0.0
O10 O 0.19861 0.18845 0.04373 0.0
O11 O 0.18767 0.11942 -0.02149 0.0
O12 O 0.12529 0.02474 0.14217 0.0
O13 O 0.13072 0.03901 0.05719 0.0
Co14 Co 0.84726 0.04683 0.10008 0.0
O15 O 0.84022 0.12779 0.09768 0.0
O16 O 0.77952 0.03835 0.15124 0.0
C17 C 0.96413 0.09756 0.09517 0.0
O18 O 0.8445 0.95489 0.11171 0.0
Co19 Co 0.91058 0.03045 -0.00486 0.0
O20 O 0.89787 0.94965 0.03767 0.0
C21 C 0.78301 0.01507 -0.00729 0.0
C22 C 0.7919 0.09762 0.13244 0.0
C23 C 0.86896 0.92521 0.08232 0.0
O24 O 0.77317 0.00227 0.04298 0.0
O25 O 0.84246 0.06039 -0.02198 0.0
O26 O 0.93626 0.09216 0.14184 0.0
O27 O 0.92237 0.08354 0.05679 0.0
Co28 Co 0.91477 0.79213 0.10017 0.0
O29 O 0.83385 0.70441 0.09736 0.0
O30 O 0.92257 0.73254 0.15151 0.0
C31 C 0.86417 0.85852 0.09482 0.0
O32 O 0.00659 0.88109 0.11214 0.0
Co33 Co 0.93194 0.87198 -0.00487 0.0
O34 O 0.01216 0.93986 0.03809 0.0
C35 C 0.94737 0.75965 -0.00689 0.0
C36 C 0.86351 0.68595 0.13238 0.0
C37 C 0.03633 0.93526 0.08284 0.0
O38 O 0.95976 0.76244 0.04344 0.0
O39 O 0.90215 0.7739 -0.02182 0.0
O40 O 0.86913 0.83592 0.14157 0.0
O41 O 0.87853 0.83079 0.05658 0.0
Co42 Co 0.10779 0.17704 0.85068 0.0
O43 O 0.11483 0.26504 0.85306 0.0
O44 O 0.17559 0.23622 0.79956 0.0
C45 C -0.00917 0.11105 0.85559 0.0
O46 O 0.11058 0.08787 0.8391 0.0
Co47 Co 0.04442 0.09752 0.95567 0.0
O48 O 0.0572 0.02943 0.91315 0.0
C49 C 0.17194 0.20951 0.95805 0.0
C50 C 0.16322 0.28314 0.81836 0.0
C51 C 0.08614 0.03381 0.86852 0.0
O52 O 0.18185 0.20648 0.9078 0.0
O53 O 0.11251 0.19548 0.97279 0.0
O54 O 0.01877 0.13345 0.80892 0.0
O55 O 0.03262 0.13874 0.89394 0.0
Co56 Co 0.78605 0.92272 0.85017 0.0
O57 O 0.69835 0.84174 0.85267 0.0
O58 O 0.72669 0.93084 0.79881 0.0
C59 C 0.85226 0.87187 0.85548 0.0
O60 O 0.87505 0.01466 0.83852 0.0
Co61 Co 0.86532 0.93936 0.95528 0.0
O62 O 0.93331 0.02004 0.91279 0.0
C63 C 0.753 0.95461 0.95731 0.0
C64 C 0.68003 0.87164 0.81775 0.0
C65 C 0.929 0.04437 0.86801 0.0
O66 O 0.75624 0.96748 0.90704 0.0
O67 O 0.76731 0.90938 0.97223 0.0
O68 O 0.82994 0.87718 0.80871 0.0
O69 O 0.82442 0.88612 0.89369 0.0
Co70 Co 0.04048 0.85503 0.85088 0.0
O71 O 0.12139 0.84812 0.8537 0.0
O72 O 0.03259 0.78755 0.79962 0.0
C73 C 0.09102 0.97193 0.85609 0.0
O74 O 0.94867 0.85226 0.83886 0.0
Co75 Co 0.0233 0.91783 0.9558 0.0
O76 O 0.94299 0.90544 0.9129 0.0
C77 C 0.00804 0.7901 0.95801 0.0
C78 C 0.09166 0.79995 0.81875 0.0
C79 C 0.91887 0.87669 0.86814 0.0
O80 O -0.00444 0.78055 0.90769 0.0
O81 O 0.05303 0.84953 0.97311 0.0
O82 O 0.08605 0.94429 0.80937 0.0
O83 O 0.07675 0.92996 0.89438 0.0
Co84 Co 0.83619 0.44861 0.43364 0.0
O85 O 0.92406 0.45552 0.43123 0.0
O86 O 0.89544 0.51634 0.48485 0.0
C87 C 0.77017 0.33154 0.4286 0.0
O88 O 0.74712 0.4515 0.44525 0.0
Co89 Co 0.75668 0.38535 0.32859 0.0
O90 O 0.68871 0.39813 0.37118 0.0
C91 C 0.86855 0.51292 0.32634 0.0
C92 C 0.94225 0.50388 0.46602 0.0
C93 C 0.69311 0.42707 0.41584 0.0
O94 O 0.8657 0.52287 0.37661 0.0
O95 O 0.85465 0.45341 0.31174 0.0
O96 O 0.79255 0.35941 0.47529 0.0
O97 O 0.79785 0.37345 0.39029 0.0
Co98 Co 0.51445 0.38129 0.43341 0.0
O99 O 0.50735 0.46219 0.43067 0.0
O100 O 0.4469 0.37311 0.48462 0.0
C101 C 0.63127 0.43198 0.42825 0.0
O102 O 0.51178 0.28945 0.44534 0.0
Co103 Co 0.57726 0.36434 0.32844 0.0
O104 O 0.56483 0.28385 0.37122 0.0
C105 C 0.44951 0.34871 0.32624 0.0
C106 C 0.45914 0.43221 0.46553 0.0
C107 C 0.53613 0.25965 0.41598 0.0
O108 O 0.44008 0.3363 0.37658 0.0
O109 O 0.50885 0.39385 0.31115 0.0
O110 O 0.60359 0.42691 0.47496 0.0
O111 O 0.58937 0.41774 0.38995 0.0
Co112 Co 0.58191 0.12661 0.43385 0.0
O113 O 0.50095 0.03893 0.43128 0.0
O114 O 0.58988 0.06711 0.4852 0.0
C115 C 0.53134 0.19299 0.42859 0.0
O116 O 0.67383 0.21563 0.44556 0.0
Co117 Co 0.59871 0.2061 0.32881 0.0
O118 O 0.6793 0.27409 0.37134 0.0
C119 C 0.61381 0.09355 0.32669 0.0
C120 C 0.53071 0.02051 0.46624 0.0
C121 C 0.70356 0.26968 0.41611 0.0
O122 O 0.62656 0.09669 0.37698 0.0
O123 O 0.56867 0.10796 0.31183 0.0
O124 O 0.53652 0.17057 0.47536 0.0
O125 O 0.54547 0.1651 0.39035 0.0
Co126 Co 0.77295 0.50975 0.18372 0.0
O127 O 0.77996 0.59772 0.18617 0.0
O128 O 0.84055 0.56889 0.13247 0.0
C129 C 0.65606 0.44374 0.18884 0.0
O130 O 0.7757 0.42055 0.17205 0.0
Co131 Co 0.7102 0.43049 0.28873 0.0
O132 O 0.72295 0.36233 0.24634 0.0
C133 C 0.83776 0.54265 0.29097 0.0
C134 C 0.82823 0.61581 0.15137 0.0
C135 C 0.75154 0.36659 0.20156 0.0
O136 O 0.84723 0.53927 0.24068 0.0
O137 O 0.77837 0.52836 0.30606 0.0
O138 O 0.68382 0.4661 0.14212 0.0
O139 O 0.69796 0.47152 0.22711 0.0
Co140 Co 0.45131 0.25547 0.18402 0.0
O141 O 0.36359 0.17454 0.18683 0.0
O142 O 0.39176 0.26343 0.13277 0.0
C143 C 0.51754 0.20461 0.18928 0.0
O144 O 0.54025 0.34733 0.17207 0.0
Co145 Co 0.53109 0.27245 0.28903 0.0
O146 O 0.5989 0.35279 0.24612 0.0
C147 C 0.41895 0.288 0.29112 0.0
C148 C 0.34515 0.20434 0.1519 0.0
C149 C 0.59435 0.37705 0.20138 0.0
O150 O 0.42181 0.30054 0.24082 0.0
O151 O 0.43316 0.24271 0.30608 0.0
O152 O 0.49497 0.20971 0.14256 0.0
O153 O 0.48991 0.21906 0.22753 0.0
Co154 Co 0.70574 0.18772 0.18401 0.0
O155 O 0.7867 0.18087 0.18643 0.0
O156 O 0.69752 0.12008 0.13276 0.0
C157 C 0.75632 0.30466 0.18906 0.0
O158 O 0.61382 0.18488 0.17238 0.0
Co159 Co 0.68924 0.25095 0.289 0.0
O160 O 0.6086 0.23835 0.2464 0.0
C161 C 0.67419 0.1234 0.29129 0.0
C162 C 0.75676 0.1326 0.15158 0.0
C163 C 0.58419 0.20941 0.20175 0.0
O164 O 0.66128 0.11347 0.24104 0.0
O165 O 0.71942 0.18293 0.30599 0.0
O166 O 0.751 0.27688 0.14234 0.0
O167 O 0.74229 0.2628 0.22738 0.0
Co168 Co 0.50375 0.78135 0.7667 0.0
O169 O 0.59163 0.78832 0.76389 0.0
O170 O 0.56316 0.8489 0.81792 0.0
C171 C 0.43771 0.66431 0.76149 0.0
O172 O 0.41472 0.78417 0.77872 0.0
Co173 Co 0.42394 0.7185 0.66173 0.0
O174 O 0.35609 0.73107 0.70466 0.0
C175 C 0.53576 0.84625 0.65955 0.0
C176 C 0.60992 0.83656 0.79879 0.0
C177 C 0.36063 0.75984 0.74942 0.0
O178 O 0.53299 0.85583 0.70989 0.0
O179 O 0.52172 0.78683 0.64456 0.0
O180 O 0.46032 0.69203 0.80819 0.0
O181 O 0.46524 0.70632 0.72322 0.0
Co182 Co 0.18209 0.71415 0.7673 0.0
O183 O 0.17508 0.7951 0.76487 0.0
O184 O 0.11461 0.70583 0.81865 0.0
C185 C 0.29888 0.76479 0.76205 0.0
O186 O 0.1794 0.62223 0.77893 0.0
Co187 Co 0.24464 0.69749 0.66221 0.0
O188 O 0.23205 0.61666 0.70457 0.0
C189 C 0.11701 0.6822 0.66013 0.0
C190 C 0.12691 0.76503 0.79975 0.0
C191 C 0.20355 0.5924 0.74938 0.0
O192 O 0.10768 0.66946 0.71044 0.0
O193 O 0.17638 0.72724 0.64503 0.0
O194 O 0.27127 0.75954 0.80882 0.0
O195 O 0.25695 0.75076 0.72381 0.0
Co196 Co 0.24953 0.45937 0.76687 0.0
O197 O 0.16855 0.37167 0.76443 0.0
O198 O 0.2577 0.39985 0.81809 0.0
C199 C 0.19889 0.52576 0.76187 0.0
O200 O 0.34148 0.54836 0.77846 0.0
Co201 Co 0.26591 0.53911 0.66188 0.0
O202 O 0.34652 0.60703 0.70449 0.0
C203 C 0.28107 0.4267 0.65958 0.0
C204 C 0.19844 0.35325 0.79926 0.0
C205 C 0.37103 0.60249 0.7491 0.0
O206 O 0.29397 0.4295 0.70981 0.0
O207 O 0.23562 0.44087 0.64512 0.0
O208 O 0.20425 0.50332 0.80858 0.0
O209 O 0.21296 0.49794 0.72353 0.0
Co210 Co 0.44017 0.84421 0.51738 0.0
O211 O 0.4473 0.93224 0.52011 0.0
O212 O 0.50768 0.90345 0.46613 0.0
C213 C 0.32325 0.77823 0.52262 0.0
O214 O 0.44283 0.75505 0.50541 0.0
Co215 Co 0.37749 0.7646 0.62239 0.0
O216 O 0.38994 0.69654 0.57956 0.0
C217 C 0.5052 0.87652 0.62451 0.0
C218 C 0.4955 0.95037 0.48522 0.0
C219 C 0.41857 0.70097 0.53477 0.0
O220 O 0.51459 0.87346 0.57417 0.0
O221 O 0.4459 0.86239 0.63973 0.0
O222 O 0.35094 0.80078 0.47591 0.0
O223 O 0.36524 0.80584 0.56088 0.0
Co224 Co 0.11843 0.58999 0.51742 0.0
O225 O 0.03069 0.50902 0.51991 0.0
O226 O 0.05895 0.59827 0.46625 0.0
C227 C 0.18463 0.53905 0.5224 0.0
O228 O 0.20739 0.68195 0.50575 0.0
Co229 Co 0.19822 0.60637 0.62237 0.0
O230 O 0.26605 0.687 0.57968 0.0
C231 C 0.08606 0.62174 0.62474 0.0
C232 C 0.01232 0.53901 0.4851 0.0
C233 C 0.2615 0.71151 0.53507 0.0
O234 O 0.08883 0.63466 0.57451 0.0
O235 O 0.10016 0.57623 0.63927 0.0
O236 O 0.16217 0.54449 0.47572 0.0
O237 O 0.15696 0.55331 0.56073 0.0
Co238 Co 0.37292 0.52227 0.51694 0.0
O239 O 0.45389 0.51547 0.51941 0.0
O240 O 0.3648 0.45475 0.46561 0.0
C241 C 0.42343 0.63914 0.52214 0.0
O242 O 0.28099 0.51945 0.50533 0.0
Co243 Co 0.3563 0.585 0.62199 0.0
O244 O 0.27556 0.57239 0.5796 0.0
C245 C 0.34139 0.45741 0.62411 0.0
C246 C 0.42401 0.46725 0.48452 0.0
C247 C 0.25126 0.54375 0.53483 0.0
O248 O 0.32844 0.44785 0.57385 0.0
O249 O 0.38635 0.5169 0.63911 0.0
O250 O 0.41817 0.61149 0.47537 0.0
O251 O 0.40943 0.5972 0.56039 0.0
loop_
_geom_bond_atom_site_label_1
_geom_bond_atom_site_label_2
_geom_bond_distance
_geom_bond_site_symmetry_2
_ccdc_geom_bond_type
Co0 O1 2.216 . S
Co0 O2 2.091 . S
Co0 O4 2.004 . S
Co0 O10 2.021 . S
Co0 O12 2.137 . S
Co0 O13 2.244 . S
O1 Co0 2.216 . S
O1 C8 1.247 . S
O2 Co0 2.091 . S
O2 C8 1.261 . S
C3 O12 1.247 . S
C3 O13 1.272 . S
O4 Co0 2.004 . S
O4 C9 1.259 . S
Co5 O6 2.061 . S
Co5 O11 2.052 . S
Co5 O13 2.135 . S
O6 Co5 2.061 . S
O6 C9 1.235 . S
C7 O10 1.238 . S
C7 O11 1.241 . S
C8 O1 1.247 . S
C8 O2 1.261 . S
C9 O4 1.259 . S
C9 O6 1.235 . S
O10 Co0 2.021 . S
O10 C7 1.238 . S
O11 Co5 2.052 . S
O11 C7 1.241 . S
O12 Co0 2.137 . S
O12 C3 1.247 . S
O13 Co0 2.244 . S
O13 C3 1.272 . S
O13 Co5 2.135 . S
Co14 O15 2.216 . S
Co14 O16 2.091 1_545 S
Co14 O18 2.004 1_545 S
Co14 O24 2.021 1_545 S
Co14 O26 2.137 . S
Co14 O27 2.244 . S
O15 Co14 2.216 . S
O15 C22 1.247 . S
O16 Co14 2.091 1_565 S
O16 C22 1.261 1_565 S
C17 O26 1.247 . S
C17 O27 1.272 . S
O18 Co14 2.004 1_565 S
O18 C23 1.259 . S
Co19 O20 2.071 . S
Co19 O25 2.046 . S
Co19 O27 2.124 1_565 S
O20 Co19 2.071 . S
O20 C23 1.235 . S
C21 O24 1.238 . S
C21 O25 1.241 . S
C22 O15 1.247 . S
C22 O16 1.261 1_545 S
C23 O18 1.259 . S
C23 O20 1.235 . S
O24 Co14 2.021 1_565 S
O24 C21 1.238 . S
O25 Co19 2.046 . S
O25 C21 1.241 . S
O26 Co14 2.137 . S
O26 C17 1.247 . S
O27 Co14 2.244 . S
O27 C17 1.272 . S
O27 Co19 2.124 1_545 S
Co28 O29 2.216 . S
Co28 O30 2.091 1_655 S
Co28 O32 2.004 1_655 S
Co28 O38 2.021 1_655 S
Co28 O40 2.137 . S
Co28 O41 2.244 . S
O29 Co28 2.216 . S
O29 C36 1.247 . S
O30 Co28 2.091 1_455 S
O30 C36 1.261 1_455 S
C31 O40 1.247 . S
C31 O41 1.272 . S
O32 Co28 2.004 1_455 S
O32 C37 1.259 . S
Co33 O34 2.064 . S
Co33 O39 2.054 . S
Co33 O41 2.134 1_455 S
O34 Co33 2.064 . S
O34 C37 1.235 . S
C35 O38 1.238 . S
C35 O39 1.241 . S
C36 O29 1.247 . S
C36 O30 1.261 1_655 S
C37 O32 1.259 . S
C37 O34 1.235 . S
O38 Co28 2.021 1_455 S
O38 C35 1.238 . S
O39 Co33 2.054 . S
O39 C35 1.241 . S
O40 Co28 2.137 . S
O40 C31 1.247 . S
O41 Co28 2.244 . S
O41 C31 1.272 . S
O41 Co33 2.134 1_655 S
Co42 O43 2.216 . S
Co42 O44 2.091 . S
Co42 O46 2.004 . S
Co42 O52 2.021 . S
Co42 O54 2.137 . S
Co42 O55 2.244 . S
O43 Co42 2.216 . S
O43 C50 1.247 . S
O44 Co42 2.091 . S
O44 C50 1.261 . S
C45 O54 1.247 . S
C45 O55 1.272 . S
O46 Co42 2.004 . S
O46 C51 1.259 . S
Co47 O48 2.061 . S
Co47 O53 2.052 . S
Co47 O55 2.135 . S
O48 Co47 2.061 . S
O48 C51 1.235 . S
C49 O52 1.238 . S
C49 O53 1.241 . S
C50 O43 1.247 . S
C50 O44 1.261 . S
C51 O46 1.259 . S
C51 O48 1.235 . S
O52 Co42 2.021 . S
O52 C49 1.238 . S
O53 Co47 2.052 . S
O53 C49 1.241 . S
O54 Co42 2.137 . S
O54 C45 1.247 . S
O55 Co42 2.244 . S
O55 C45 1.272 . S
O55 Co47 2.135 . S
Co56 O57 2.216 . S
Co56 O58 2.091 1_565 S
Co56 O60 2.004 1_565 S
Co56 O66 2.021 1_565 S
Co56 O68 2.137 . S
Co56 O69 2.244 . S
O57 Co56 2.216 . S
O57 C64 1.247 . S
O58 Co56 2.091 1_545 S
O58 C64 1.261 1_545 S
C59 O68 1.247 . S
C59 O69 1.272 . S
O60 Co56 2.004 1_545 S
O60 C65 1.259 . S
Co61 O62 2.065 . S
Co61 O67 2.054 . S
Co61 O69 2.133 1_545 S
O62 Co61 2.065 . S
O62 C65 1.235 . S
C63 O66 1.238 . S
C63 O67 1.241 . S
C64 O57 1.247 . S
C64 O58 1.261 1_565 S
C65 O60 1.259 . S
C65 O62 1.235 . S
O66 Co56 2.021 1_545 S
O66 C63 1.238 . S
O67 Co61 2.054 . S
O67 C63 1.241 . S
O68 Co56 2.137 . S
O68 C59 1.247 . S
O69 Co56 2.244 . S
O69 C59 1.272 . S
O69 Co61 2.133 1_565 S
Co70 O71 2.216 . S
Co70 O72 2.091 1_455 S
Co70 O74 2.004 1_455 S
Co70 O80 2.021 1_455 S
Co70 O82 2.137 . S
Co70 O83 2.244 . S
O71 Co70 2.216 . S
O71 C78 1.247 . S
O72 Co70 2.091 1_655 S
O72 C78 1.261 1_655 S
C73 O82 1.247 . S
C73 O83 1.272 . S
O74 Co70 2.004 1_655 S
O74 C79 1.259 . S
Co75 O76 2.072 . S
Co75 O81 2.045 . S
Co75 O83 2.124 1_655 S
O76 Co75 2.072 . S
O76 C79 1.235 . S
C77 O80 1.238 . S
C77 O81 1.241 . S
C78 O71 1.247 . S
C78 O72 1.261 1_455 S
C79 O74 1.259 . S
C79 O76 1.235 . S
O80 Co70 2.021 1_655 S
O80 C77 1.238 . S
O81 Co75 2.045 . S
O81 C77 1.241 . S
O82 Co70 2.137 . S
O82 C73 1.247 . S
O83 Co70 2.244 . S
O83 C73 1.272 . S
O83 Co75 2.124 1_455 S
Co84 O85 2.216 . S
Co84 O86 2.091 . S
Co84 O88 2.004 . S
Co84 O94 2.021 . S
Co84 O96 2.137 . S
Co84 O97 2.244 . S
O85 Co84 2.216 . S
O85 C92 1.247 . S
O86 Co84 2.091 . S
O86 C92 1.261 . S
C87 O96 1.247 . S
C87 O97 1.272 . S
O88 Co84 2.004 . S
O88 C93 1.259 . S
Co89 O90 2.061 . S
Co89 O95 2.052 . S
Co89 O97 2.135 . S
O90 Co89 2.061 . S
O90 C93 1.235 . S
C91 O94 1.238 . S
C91 O95 1.241 . S
C92 O85 1.247 . S
C92 O86 1.261 . S
C93 O88 1.259 . S
C93 O90 1.235 . S
O94 Co84 2.021 . S
O94 C91 1.238 . S
O95 Co89 2.052 . S
O95 C91 1.241 . S
O96 Co84 2.137 . S
O96 C87 1.247 . S
O97 Co84 2.244 . S
O97 C87 1.272 . S
O97 Co89 2.135 . S
Co98 O99 2.216 . S
Co98 O100 2.091 . S
Co98 O102 2.004 . S
Co98 O108 2.021 . S
Co98 O110 2.137 . S
Co98 O111 2.244 . S
O99 Co98 2.216 . S
O99 C106 1.247 . S
O100 Co98 2.091 . S
O100 C106 1.261 . S
C101 O110 1.247 . S
C101 O111 1.272 . S
O102 Co98 2.004 . S
O102 C107 1.259 . S
Co103 O104 2.061 . S
Co103 O109 2.052 . S
Co103 O111 2.135 . S
O104 Co103 2.061 . S
O104 C107 1.235 . S
C105 O108 1.238 . S
C105 O109 1.241 . S
C106 O99 1.247 . S
C106 O100 1.261 . S
C107 O102 1.259 . S
C107 O104 1.235 . S
O108 Co98 2.021 . S
O108 C105 1.238 . S
O109 Co103 2.052 . S
O109 C105 1.241 . S
O110 Co98 2.137 . S
O110 C101 1.247 . S
O111 Co98 2.244 . S
O111 C101 1.272 . S
O111 Co103 2.135 . S
Co112 O113 2.216 . S
Co112 O114 2.091 . S
Co112 O116 2.004 . S
Co112 O122 2.021 . S
Co112 O124 2.137 . S
Co112 O125 2.244 . S
O113 Co112 2.216 . S
O113 C120 1.247 . S
O114 Co112 2.091 . S
O114 C120 1.261 . S
C115 O124 1.247 . S
C115 O125 1.272 . S
O116 Co112 2.004 . S
O116 C121 1.259 . S
Co117 O118 2.061 . S
Co117 O123 2.052 . S
Co117 O125 2.135 . S
O118 Co117 2.061 . S
O118 C121 1.235 . S
C119 O122 1.238 . S
C119 O123 1.241 . S
C120 O113 1.247 . S
C120 O114 1.261 . S
C121 O116 1.259 . S
C121 O118 1.235 . S
O122 Co112 2.021 . S
O122 C119 1.238 . S
O123 Co117 2.052 . S
O123 C119 1.241 . S
O124 Co112 2.137 . S
O124 C115 1.247 . S
O125 Co112 2.244 . S
O125 C115 1.272 . S
O125 Co117 2.135 . S
Co126 O127 2.216 . S
Co126 O128 2.091 . S
Co126 O130 2.004 . S
Co126 O136 2.021 . S
Co126 O138 2.137 . S
Co126 O139 2.244 . S
O127 Co126 2.216 . S
O127 C134 1.247 . S
O128 Co126 2.091 . S
O128 C134 1.261 . S
C129 O138 1.247 . S
C129 O139 1.272 . S
O130 Co126 2.004 . S
O130 C135 1.259 . S
Co131 O132 2.061 . S
Co131 O137 2.052 . S
Co131 O139 2.135 . S
O132 Co131 2.061 . S
O132 C135 1.235 . S
C133 O136 1.238 . S
C133 O137 1.241 . S
C134 O127 1.247 . S
C134 O128 1.261 . S
C135 O130 1.259 . S
C135 O132 1.235 . S
O136 Co126 2.021 . S
O136 C133 1.238 . S
O137 Co131 2.052 . S
O137 C133 1.241 . S
O138 Co126 2.137 . S
O138 C129 1.247 . S
O139 Co126 2.244 . S
O139 C129 1.272 . S
O139 Co131 2.135 . S
Co140 O141 2.216 . S
Co140 O142 2.091 . S
Co140 O144 2.004 . S
Co140 O150 2.021 . S
Co140 O152 2.137 . S
Co140 O153 2.244 . S
O141 Co140 2.216 . S
O141 C148 1.247 . S
O142 Co140 2.091 . S
O142 C148 1.261 . S
C143 O152 1.247 . S
C143 O153 1.272 . S
O144 Co140 2.004 . S
O144 C149 1.259 . S
Co145 O146 2.061 . S
Co145 O151 2.052 . S
Co145 O153 2.135 . S
O146 Co145 2.061 . S
O146 C149 1.235 . S
C147 O150 1.238 . S
C147 O151 1.241 . S
C148 O141 1.247 . S
C148 O142 1.261 . S
C149 O144 1.259 . S
C149 O146 1.235 . S
O150 Co140 2.021 . S
O150 C147 1.238 . S
O151 Co145 2.052 . S
O151 C147 1.241 . S
O152 Co140 2.137 . S
O152 C143 1.247 . S
O153 Co140 2.244 . S
O153 C143 1.272 . S
O153 Co145 2.135 . S
Co154 O155 2.216 . S
Co154 O156 2.091 . S
Co154 O158 2.004 . S
Co154 O164 2.021 . S
Co154 O166 2.137 . S
Co154 O167 2.244 . S
O155 Co154 2.216 . S
O155 C162 1.247 . S
O156 Co154 2.091 . S
O156 C162 1.261 . S
C157 O166 1.247 . S
C157 O167 1.272 . S
O158 Co154 2.004 . S
O158 C163 1.259 . S
Co159 O160 2.061 . S
Co159 O165 2.052 . S
Co159 O167 2.135 . S
O160 Co159 2.061 . S
O160 C163 1.235 . S
C161 O164 1.238 . S
C161 O165 1.241 . S
C162 O155 1.247 . S
C162 O156 1.261 . S
C163 O158 1.259 . S
C163 O160 1.235 . S
O164 Co154 2.021 . S
O164 C161 1.238 . S
O165 Co159 2.052 . S
O165 C161 1.241 . S
O166 Co154 2.137 . S
O166 C157 1.247 . S
O167 Co154 2.244 . S
O167 C157 1.272 . S
O167 Co159 2.135 . S
Co168 O169 2.216 . S
Co168 O170 2.091 . S
Co168 O172 2.004 . S
Co168 O178 2.021 . S
Co168 O180 2.137 . S
Co168 O181 2.244 . S
O169 Co168 2.216 . S
O169 C176 1.247 . S
O170 Co168 2.091 . S
O170 C176 1.261 . S
C171 O180 1.247 . S
C171 O181 1.272 . S
O172 Co168 2.004 . S
O172 C177 1.259 . S
Co173 O174 2.061 . S
Co173 O179 2.052 . S
Co173 O181 2.135 . S
O174 Co173 2.061 . S
O174 C177 1.235 . S
C175 O178 1.238 . S
C175 O179 1.241 . S
C176 O169 1.247 . S
C176 O170 1.261 . S
C177 O172 1.259 . S
C177 O174 1.235 . S
O178 Co168 2.021 . S
O178 C175 1.238 . S
O179 Co173 2.052 . S
O179 C175 1.241 . S
O180 Co168 2.137 . S
O180 C171 1.247 . S
O181 Co168 2.244 . S
O181 C171 1.272 . S
O181 Co173 2.135 . S
Co182 O183 2.216 . S
Co182 O184 2.091 . S
Co182 O186 2.004 . S
Co182 O192 2.021 . S
Co182 O194 2.137 . S
Co182 O195 2.244 . S
O183 Co182 2.216 . S
O183 C190 1.247 . S
O184 Co182 2.091 . S
O184 C190 1.261 . S
C185 O194 1.247 . S
C185 O195 1.272 . S
O186 Co182 2.004 . S
O186 C191 1.259 . S
Co187 O188 2.061 . S
Co187 O193 2.052 . S
Co187 O195 2.135 . S
O188 Co187 2.061 . S
O188 C191 1.235 . S
C189 O192 1.238 . S
C189 O193 1.241 . S
C190 O183 1.247 . S
C190 O184 1.261 . S
C191 O186 1.259 . S
C191 O188 1.235 . S
O192 Co182 2.021 . S
O192 C189 1.238 . S
O193 Co187 2.052 . S
O193 C189 1.241 . S
O194 Co182 2.137 . S
O194 C185 1.247 . S
O195 Co182 2.244 . S
O195 C185 1.272 . S
O195 Co187 2.135 . S
Co196 O197 2.216 . S
Co196 O198 2.091 . S
Co196 O200 2.004 . S
Co196 O206 2.021 . S
Co196 O208 2.137 . S
Co196 O209 2.244 . S
O197 Co196 2.216 . S
O197 C204 1.247 . S
O198 Co196 2.091 . S
O198 C204 1.261 . S
C199 O208 1.247 . S
C199 O209 1.272 . S
O200 Co196 2.004 . S
O200 C205 1.259 . S
Co201 O202 2.061 . S
Co201 O207 2.052 . S
Co201 O209 2.135 . S
O202 Co201 2.061 . S
O202 C205 1.235 . S
C203 O206 1.238 . S
C203 O207 1.241 . S
C204 O197 1.247 . S
C204 O198 1.261 . S
C205 O200 1.259 . S
C205 O202 1.235 . S
O206 Co196 2.021 . S
O206 C203 1.238 . S
O207 Co201 2.052 . S
O207 C203 1.241 . S
O208 Co196 2.137 . S
O208 C199 1.247 . S
O209 Co196 2.244 . S
O209 C199 1.272 . S
O209 Co201 2.135 . S
Co210 O211 2.216 . S
Co210 O212 2.091 . S
Co210 O214 2.004 . S
Co210 O220 2.021 . S
Co210 O222 2.137 . S
Co210 O223 2.244 . S
O211 Co210 2.216 . S
O211 C218 1.247 . S
O212 Co210 2.091 . S
O212 C218 1.261 . S
C213 O222 1.247 . S
C213 O223 1.272 . S
O214 Co210 2.004 . S
O214 C219 1.259 . S
Co215 O216 2.061 . S
Co215 O221 2.052 . S
Co215 O223 2.135 . S
O216 Co215 2.061 . S
O216 C219 1.235 . S
C217 O220 1.238 . S
C217 O221 1.241 . S
C218 O211 1.247 . S
C218 O212 1.261 . S
C219 O214 1.259 . S
C219 O216 1.235 . S
O220 Co210 2.021 . S
O220 C217 1.238 . S
O221 Co215 2.052 . S
O221 C217 1.241 . S
O222 Co210 2.137 . S
O222 C213 1.247 . S
O223 Co210 2.244 . S
O223 C213 1.272 . S
O223 Co215 2.135 . S
Co224 O225 2.216 . S
Co224 O226 2.091 . S
Co224 O228 2.004 . S
Co224 O234 2.021 . S
Co224 O236 2.137 . S
Co224 O237 2.244 . S
O225 Co224 2.216 . S
O225 C232 1.247 . S
O226 Co224 2.091 . S
O226 C232 1.261 . S
C227 O236 1.247 . S
C227 O237 1.272 . S
O228 Co224 2.004 . S
O228 C233 1.259 . S
Co229 O230 2.061 . S
Co229 O235 2.052 . S
Co229 O237 2.135 . S
O230 Co229 2.061 . S
O230 C233 1.235 . S
C231 O234 1.238 . S
C231 O235 1.241 . S
C232 O225 1.247 . S
C232 O226 1.261 . S
C233 O228 1.259 . S
C233 O230 1.235 . S
O234 Co224 2.021 . S
O234 C231 1.238 . S
O235 Co229 2.052 . S
O235 C231 1.241 . S
O236 Co224 2.137 . S
O236 C227 1.247 . S
O237 Co224 2.244 . S
O237 C227 1.272 . S
O237 Co229 2.135 . S
Co238 O239 2.216 . S
Co238 O240 2.091 . S
Co238 O242 2.004 . S
Co238 O248 2.021 . S
Co238 O250 2.137 . S
Co238 O251 2.244 . S
O239 Co238 2.216 . S
O239 C246 1.247 . S
O240 Co238 2.091 . S
O240 C246 1.261 . S
C241 O250 1.247 . S
C241 O251 1.272 . S
O242 Co238 2.004 . S
O242 C247 1.259 . S
Co243 O244 2.061 . S
Co243 O249 2.052 . S
Co243 O251 2.135 . S
O244 Co243 2.061 . S
O244 C247 1.235 . S
C245 O248 1.238 . S
C245 O249 1.241 . S
C246 O239 1.247 . S
C246 O240 1.261 . S
C247 O242 1.259 . S
C247 O244 1.235 . S
O248 Co238 2.021 . S
O248 C245 1.238 . S
O249 Co243 2.052 . S
O249 C245 1.241 . S
O250 Co238 2.137 . S
O250 C241 1.247 . S
O251 Co238 2.244 . S
O251 C241 1.272 . S
O251 Co243 2.135 . S
C148 C8 1.617 . S
C22 C162 1.618 . S
C134 C36 1.617 . S
C204 C50 1.617 . S
C64 C176 1.617 . S
C190 C78 1.618 . S
C92 C232 1.618 1_655 S
C246 C106 1.618 . S
C120 C218 1.618 1_545 S
C9 C17 1.407 1_455 S
C23 C31 1.406 . S
C3 C37 1.406 1_545 S
C73 C51 1.407 1_565 S
C45 C65 1.406 1_455 S
C79 C59 1.406 . S
C93 C101 1.407 . S
C107 C115 1.406 . S
C87 C121 1.406 . S
C157 C135 1.407 . S
C129 C149 1.406 . S
C143 C163 1.406 . S
C185 C177 1.407 . S
C199 C191 1.406 . S
C171 C205 1.406 . S
C219 C241 1.407 . S
C233 C213 1.406 . S
C247 C227 1.406 . S
C7 C49 1.787 1_554 S
C63 C21 1.787 1_546 S
C77 C35 1.787 1_656 S
C133 C91 1.787 . S
C147 C105 1.787 . S
C119 C161 1.787 . S
C217 C175 1.787 . S
C231 C189 1.787 . S
C245 C203 1.787 . S
