# Generated by pormake.
# Topology sxa, (6)-cn, num edge types: 1
# Building blocks:
#     Node 0, Type 0, BuildingBlock: JUFBIX_clean_sbu_0, # of connection points: 6
#     Node 1, Type 0, BuildingBlock: JUFBIX_clean_sbu_0, # of connection points: 6
#     Node 2, Type 0, BuildingBlock: JUFBIX_clean_sbu_0, # of connection points: 6
#     Node 3, Type 0, BuildingBlock: JUFBIX_clean_sbu_0, # of connection points: 6
#     Edge 4, Type (0, 0), BuildingBlock: FUNLAD_clean_linker_0, # of connection points: 2
#     Edge 5, Type (0, 0), BuildingBlock: FUNLAD_clean_linker_0, # of connection points: 2
#     Edge 6, Type (0, 0), BuildingBlock: FUNLAD_clean_linker_0, # of connection points: 2
#     Edge 7, Type (0, 0), BuildingBlock: FUNLAD_clean_linker_0, # of connection points: 2
#     Edge 8, Type (0, 0), BuildingBlock: FUNLAD_clean_linker_0, # of connection points: 2
#     Edge 9, Type (0, 0), BuildingBlock: FUNLAD_clean_linker_0, # of connection points: 2
#     Edge 10, Type (0, 0), BuildingBlock: FUNLAD_clean_linker_0, # of connection points: 2
#     Edge 11, Type (0, 0), BuildingBlock: FUNLAD_clean_linker_0, # of connection points: 2
#     Edge 12, Type (0, 0), BuildingBlock: FUNLAD_clean_linker_0, # of connection points: 2
#     Edge 13, Type (0, 0), BuildingBlock: FUNLAD_clean_linker_0, # of connection points: 2
#     Edge 14, Type (0, 0), BuildingBlock: FUNLAD_clean_linker_0, # of connection points: 2
#     Edge 15, Type (0, 0), BuildingBlock: FUNLAD_clean_linker_0, # of connection points: 2
# Relax obj value: 0.371
# Max RMSD: 0.287
# Mean RMSD: 0.287
data_MOF--net-sxa--node1-JUFBIX_clean_sbu_0--edge1-FUNLAD_clean_linker_0
_symmetry_space_group_name_H-M    P1
_symmetry_Int_Tables_number       1
_symmetry_cell_setting            triclinic
loop_
_symmetry_equiv_pos_as_xyz
'x, y, z'
_cell_length_a     31.766091
_cell_length_b     31.686775
_cell_length_c     18.565544
_cell_angle_alpha  89.546905
_cell_angle_beta   76.353176
_cell_angle_gamma 85.973543
loop_
_atom_site_label
_atom_site_type_symbol
_atom_site_fract_x
_atom_site_fract_y
_atom_site_fract_z
_atom_type_partial_charge
Co0 Co 0.00134 0.80161 0.17105 0.0
C1 C 0.02766 0.87627 0.2198 0.0
Co2 Co 0.04267 0.79155 0.25263 0.0
C3 C 0.92317 0.81212 0.12068 0.0
C4 C 0.9753 0.8405 0.04656 0.0
N5 N 0.96651 0.81457 0.10543 0.0
N6 N 0.90408 0.83734 0.07705 0.0
C7 C 0.93694 0.85467 1.02914 0.0
H8 H 0.90535 0.79613 0.1687 0.0
H9 H 0.00677 0.85223 1.02327 0.0
C10 C 0.01631 0.71723 0.19304 0.0
N11 N 0.07758 0.77877 0.322 0.0
C12 C 0.11695 0.78973 0.33074 0.0
C13 C 0.06501 0.75085 0.37674 0.0
N14 N 0.12904 0.76917 0.38834 0.0
C15 C 0.09599 0.74502 0.41697 0.0
C16 C 0.95417 0.80019 0.31815 0.0
O17 O 0.99691 0.74406 0.15888 0.0
O18 O 0.03724 0.73047 0.23868 0.0
O19 O 0.99129 0.79486 0.33284 0.0
O20 O 0.95204 0.80383 0.25112 0.0
O21 O 0.0481 0.85311 0.25934 0.0
H22 H 0.03518 0.73495 0.38632 0.0
H23 H 0.13686 0.81122 0.29436 0.0
O24 O 0.00549 0.85895 0.18172 0.0
O25 O 0.05148 0.79936 0.09242 0.0
O26 O 0.09166 0.78849 0.17394 0.0
C27 C 0.08833 0.79293 0.10738 0.0
H28 H 0.93341 0.8786 0.98869 0.0
H29 H 0.09427 0.72427 0.46403 0.0
Co30 Co 0.51037 0.28701 0.16331 0.0
C31 C 0.53155 0.36293 0.21339 0.0
Co32 Co 0.54247 0.27891 0.25717 0.0
C33 C 0.4928 0.26804 1.02341 0.0
C34 C 0.46364 0.32879 0.06435 0.0
N35 N 0.4875 0.29492 0.08132 0.0
N36 N 0.47308 0.28358 0.97118 0.0
C37 C 0.45472 0.32188 0.99663 0.0
H38 H 0.51003 0.23714 1.02014 0.0
H39 H 0.45262 0.35633 0.09958 0.0
C40 C 0.5209 0.20314 0.19807 0.0
N41 N 0.56722 0.26999 0.3399 0.0
C42 C 0.60598 0.27938 0.35288 0.0
C43 C 0.54899 0.24704 0.39911 0.0
N44 N 0.61248 0.26268 0.41742 0.0
C45 C 0.57638 0.24259 0.44635 0.0
C46 C 0.45128 0.29024 0.29823 0.0
O47 O 0.50607 0.22933 0.15711 0.0
O48 O 0.53823 0.21709 0.24806 0.0
O49 O 0.4861 0.2849 0.32075 0.0
O50 O 0.45364 0.29231 0.2288 0.0
O51 O 0.54716 0.34086 0.26048 0.0
H52 H 0.51813 0.23315 0.40654 0.0
H53 H 0.62971 0.2965 0.31432 0.0
O54 O 0.5143 0.34459 0.16879 0.0
O55 O 0.56751 0.28154 0.09878 0.0
O56 O 0.5968 0.27324 0.19465 0.0
C57 C 0.60077 0.27533 0.12539 0.0
H58 H 0.43401 0.34222 0.97038 0.0
H59 H 0.57032 0.22532 0.4979 0.0
Co60 Co 0.01249 0.2877 0.83868 0.0
C61 C 0.03894 0.36282 0.89445 0.0
Co62 Co 0.05749 0.27847 0.91362 0.0
C63 C 0.9361 0.28571 0.7674 0.0
C64 C 0.98372 0.32925 0.72196 0.0
N65 N 0.97458 0.29953 0.77472 0.0
N66 N 0.92116 0.30636 0.71274 0.0
C67 C 0.9514 0.33352 0.68443 0.0
H68 H 0.91894 0.26189 0.80239 0.0
H69 H 0.01226 0.34718 0.71152 0.0
C70 C 0.03069 0.20306 0.8691 0.0
N71 N 0.09671 0.26768 0.972 0.0
C72 C 0.13672 0.28192 0.95414 0.0
C73 C 0.10007 0.23374 1.01516 0.0
N74 N 0.16588 0.25636 0.97857 0.0
C75 C 0.14286 0.22639 1.01849 0.0
C76 C 0.97188 0.28492 0.98672 0.0
O77 O 0.00746 0.22601 0.83385 0.0
O78 O 0.05526 0.22073 0.90219 0.0
O79 O 0.00984 0.2782 0.99758 0.0
O80 O 0.96624 0.29036 0.92166 0.0
O81 O 0.05986 0.33638 0.92662 0.0
H82 H 0.07478 0.21222 1.03358 0.0
H83 H 0.14574 0.3063 0.9133 0.0
O84 O 0.01726 0.34903 0.85061 0.0
O85 O 0.06076 0.2848 0.75373 0.0
O86 O 0.10447 0.27847 0.82841 0.0
C87 C 0.09917 0.28126 0.76301 0.0
H88 H 0.95032 0.35505 0.63921 0.0
H89 H 0.15666 0.19846 0.04078 0.0
Co90 Co 0.51978 0.7783 0.83206 0.0
C91 C 0.53763 0.85613 0.88838 0.0
Co92 Co 0.54996 0.77323 0.92903 0.0
C93 C 0.4544 0.77777 0.73816 0.0
C94 C 0.51443 0.80302 0.68463 0.0
N95 N 0.49471 0.78441 0.74807 0.0
N96 N 0.44854 0.79196 0.67148 0.0
C97 C 0.48662 0.8075 0.63808 0.0
H98 H 0.42916 0.76475 0.78034 0.0
H99 H 0.54663 0.81437 0.67363 0.0
C100 C 0.5328 0.69537 0.88144 0.0
N101 N 0.57284 0.76882 1.01143 0.0
C102 C 0.56766 0.79797 0.06588 0.0
C103 C 0.60056 0.73815 1.02785 0.0
N104 N 0.59198 0.78753 0.11463 0.0
C105 C 0.61241 0.74958 0.0912 0.0
C106 C 0.4604 0.78184 0.96399 0.0
O107 O 0.51827 0.71585 0.83136 0.0
O108 O 0.54763 0.71532 0.92753 0.0
O109 O 0.49316 0.77852 0.99219 0.0
O110 O 0.46509 0.7821 0.89438 0.0
O111 O 0.5527 0.83121 0.93089 0.0
H112 H 0.61321 0.71048 0.99376 0.0
H113 H 0.5481 0.82748 0.06756 0.0
O114 O 0.52103 0.84067 0.83871 0.0
O115 O 0.57717 0.77421 0.76952 0.0
O116 O 0.60648 0.76825 0.86543 0.0
C117 C 0.6109 0.77011 0.79558 0.0
H118 H 0.49377 0.82196 0.58393 0.0
H119 H 0.63713 0.73301 0.11422 0.0
C120 C 0.06596 0.42172 0.9566 0.0
C121 C 0.03694 0.40834 0.91591 0.0
C122 C 0.06098 0.46236 0.98781 0.0
C123 C 0.02656 0.49103 0.97972 0.0
C124 C -0.00119 0.47842 0.9359 0.0
C125 C 0.00381 0.43754 0.90454 0.0
C126 C 0.01897 0.53428 1.0149 0.0
C127 C 0.03433 0.54559 0.07384 0.0
C128 C 0.02699 0.58889 0.10891 0.0
C129 C 0.0543 0.60098 0.15392 0.0
C130 C 0.04975 0.64191 0.18497 0.0
C131 C 0.01755 0.67172 0.172 0.0
H132 H 0.97041 0.6101 0.06789 0.0
C133 C 0.9889 0.65889 0.13014 0.0
C134 C 0.9934 0.61817 0.0993 0.0
H135 H 0.96332 0.68078 0.11958 0.0
H136 H 0.09224 0.40031 0.96593 0.0
H137 H 0.08429 0.47092 1.01823 0.0
H138 H 0.97234 0.4999 0.92756 0.0
H139 H 0.98077 0.42835 0.87389 0.0
H140 H -0.00065 0.55731 0.99119 0.0
H141 H 0.05386 0.52246 0.09756 0.0
H142 H 0.08012 0.57904 0.16343 0.0
H143 H 0.07249 0.65066 0.21656 0.0
C144 C 0.49804 0.43321 0.19205 0.0
C145 C 0.53511 0.40898 0.20194 0.0
C146 C 0.50172 0.47081 0.15158 0.0
C147 C 0.54278 0.48518 0.11932 0.0
C148 C 0.57963 0.46304 0.1351 0.0
C149 C 0.57591 0.42512 0.1755 0.0
C150 C 0.54836 0.52245 0.06829 0.0
C151 C 0.51983 0.53554 1.02706 0.0
C152 C 0.52503 0.5729 0.97614 0.0
C153 C 0.48808 0.59342 0.95789 0.0
C154 C 0.49098 0.63136 0.91754 0.0
C155 C 0.53108 0.64921 0.8937 0.0
H156 H 0.59519 0.57361 0.95631 0.0
C157 C 0.56847 0.62674 0.90629 0.0
C158 C 0.56561 0.58906 0.94658 0.0
H159 H 0.59977 0.64009 0.88962 0.0
H160 H 0.46617 0.42124 0.21078 0.0
H161 H 0.47233 0.48764 0.14375 0.0
H162 H 0.6117 0.47364 0.11212 0.0
H163 H 0.60514 0.40664 0.18019 0.0
H164 H 0.57779 0.53875 0.06347 0.0
H165 H 0.49052 0.519 1.03188 0.0
H166 H 0.45639 0.5815 0.97878 0.0
H167 H 0.46145 0.64849 0.91075 0.0
C168 C 0.56854 0.91588 0.93969 0.0
C169 C 0.53704 0.9021 0.90467 0.0
C170 C 0.56386 0.95588 0.973 0.0
C171 C 0.52724 0.98344 0.97281 0.0
C172 C 0.49721 0.97088 0.93329 0.0
C173 C 0.50192 0.93053 0.89977 0.0
C174 C 0.51954 1.02529 1.01274 0.0
C175 C 0.53678 1.03458 0.07069 0.0
C176 C 0.52945 0.07644 0.11068 0.0
C177 C 0.55872 0.08778 0.15267 0.0
C178 C 0.55455 0.12794 0.18663 0.0
C179 C 0.52077 0.15753 0.17958 0.0
H180 H 0.46965 0.09756 0.07944 0.0
C181 C 0.49 0.14511 0.14172 0.0
C182 C 0.4941 0.10523 0.10807 0.0
H183 H 0.4633 0.16702 0.13565 0.0
H184 H 0.59622 0.89485 0.94411 0.0
H185 H 0.58885 0.96463 0.9996 0.0
H186 H 0.469 0.99167 0.93098 0.0
H187 H 0.47684 0.92076 0.87413 0.0
H188 H 0.49819 0.04882 0.99387 0.0
H189 H 0.55796 1.01087 0.08957 0.0
H190 H 0.58594 0.06608 0.15684 0.0
H191 H 0.57904 0.1366 0.2146 0.0
C192 C 0.9955 0.94758 0.19991 0.0
C193 C 0.03269 0.92202 0.20559 0.0
C194 C -0.00114 0.98432 0.15695 0.0
C195 C 0.03968 0.99656 0.11795 0.0
C196 C 0.07703 0.97321 0.12939 0.0
C197 C 0.07362 0.93619 0.17233 0.0
C198 C 0.04456 1.03272 0.06426 0.0
C199 C 0.01357 0.04738 1.02888 0.0
C200 C 0.01852 0.08344 0.97496 0.0
C201 C 0.98122 0.10664 0.96298 0.0
C202 C 0.98469 0.14341 0.91938 0.0
C203 C 0.02565 0.15752 0.88608 0.0
H204 H 0.08898 0.07792 0.9407 0.0
C205 C 0.06281 0.13211 0.89247 0.0
C206 C 0.05939 0.09562 0.93602 0.0
H207 H 0.0949 0.14235 0.86819 0.0
H208 H 0.96344 0.9372 0.22395 0.0
H209 H 0.96924 1.0021 0.1526 0.0
H210 H 0.10903 0.98212 0.1012 0.0
H211 H 0.10284 0.91672 0.1737 0.0
H212 H 0.07557 0.04683 0.05226 0.0
H213 H 0.98256 1.03327 0.04088 0.0
H214 H 0.94919 0.09776 0.99107 0.0
H215 H 0.95547 0.16271 0.91734 0.0
C216 C 0.38005 0.76229 0.65553 0.0
C217 C 0.40971 0.79412 0.64213 0.0
C218 C 0.34446 0.76357 0.62165 0.0
C219 C 0.33737 0.79704 0.57396 0.0
C220 C 0.36632 0.82935 0.56303 0.0
C221 C 0.40186 0.82782 0.59595 0.0
C222 C 0.30014 0.80059 0.53573 0.0
C223 C 0.27773 0.76777 0.52242 0.0
C224 C 0.24096 0.77015 0.48295 0.0
C225 C 0.22025 0.7329 0.47765 0.0
C226 C 0.18498 0.73264 0.44442 0.0
C227 C 0.16879 0.76964 0.41464 0.0
H228 H 0.24055 0.83676 0.45273 0.0
C229 C 0.19019 0.80688 0.41714 0.0
C230 C 0.22571 0.80725 0.4511 0.0
H231 H 0.17856 0.83599 0.39511 0.0
H232 H 0.38492 0.73593 0.69082 0.0
H233 H 0.32253 0.73846 0.63355 0.0
H234 H 0.3618 0.85589 0.52781 0.0
H235 H 0.4233 0.85339 0.58521 0.0
H236 H 0.29227 0.83163 0.51551 0.0
H237 H 0.28694 0.73666 0.54098 0.0
H238 H 0.231 0.70362 0.50043 0.0
H239 H 0.17 0.70314 0.44266 0.0
C240 C 0.17965 0.27591 0.71167 0.0
C241 C 0.13757 0.28114 0.69937 0.0
C242 C 0.21619 0.2768 0.6527 0.0
C243 C 0.21169 0.28337 0.57968 0.0
C244 C 0.16965 0.28757 0.56715 0.0
C245 C 0.13295 0.28668 0.62634 0.0
C246 C 0.25016 0.28459 0.5156 0.0
C247 C 0.28893 0.29654 0.52284 0.0
C248 C 0.32935 0.29563 0.46234 0.0
C249 C 0.36902 0.29698 0.48282 0.0
C250 C 0.40819 0.29557 0.42942 0.0
C251 C 0.40893 0.2932 0.35355 0.0
H252 H 0.29996 0.29368 0.36779 0.0
C253 C 0.36925 0.29271 0.33241 0.0
C254 C 0.32978 0.29384 0.38625 0.0
H255 H 0.36869 0.29106 0.27439 0.0
H256 H 0.18452 0.27102 0.76706 0.0
H257 H 0.24783 0.27162 0.6648 0.0
H258 H 0.16516 0.29208 0.51146 0.0
H259 H 0.10101 0.2906 0.61491 0.0
H260 H 0.24602 0.27549 0.46164 0.0
H261 H 0.29196 0.30664 0.57703 0.0
H262 H 0.36987 0.29859 0.54075 0.0
H263 H 0.43803 0.2962 0.44796 0.0
C264 C 0.86509 0.26361 0.67963 0.0
C265 C 0.88136 0.30294 0.68826 0.0
C266 C 0.82987 0.26086 0.64584 0.0
C267 C 0.80994 0.29758 0.62043 0.0
C268 C 0.82535 0.3368 0.63239 0.0
C269 C 0.86038 0.33944 0.66538 0.0
C270 C 0.77347 0.29752 0.58104 0.0
C271 C 0.75769 0.26278 0.55803 0.0
C272 C 0.72102 0.26407 0.51919 0.0
C273 C 0.69656 0.22851 0.52346 0.0
C274 C 0.6617 0.22804 0.48928 0.0
C275 C 0.6504 0.26292 0.44847 0.0
H276 H 0.72915 0.32643 0.47014 0.0
C277 C 0.6757 0.29811 0.44168 0.0
C278 C 0.71047 0.29881 0.47689 0.0
H279 H 0.66799 0.32543 0.41057 0.0
H280 H 0.88062 0.23491 0.69638 0.0
H281 H 0.81896 0.22989 0.63927 0.0
H282 H 0.81076 0.3658 0.61467 0.0
H283 H 0.87163 0.37032 0.67199 0.0
H284 H 0.75892 0.32828 0.57044 0.0
H285 H 0.77081 0.23172 0.57002 0.0
H286 H 0.70402 0.201 0.55443 0.0
H287 H 0.64357 0.20005 0.49467 0.0
C288 C 0.91293 0.78836 0.44973 0.0
C289 C 0.91335 0.8011 0.37687 0.0
C290 C 0.87349 0.78702 0.50301 0.0
C291 C 0.83372 0.79854 0.48425 0.0
C292 C 0.83456 0.81236 0.41197 0.0
C293 C 0.87369 0.81345 0.35898 0.0
C294 C 0.79052 0.79713 0.53723 0.0
C295 C 0.78277 0.77497 0.60079 0.0
C296 C 0.73838 0.77286 0.64956 0.0
C297 C 0.73361 0.7662 0.72584 0.0
C298 C 0.6923 0.76477 0.77326 0.0
C299 C 0.6548 0.76944 0.74518 0.0
H300 H 0.70311 0.77982 0.56245 0.0
C301 C 0.65964 0.77477 0.6685 0.0
C302 C 0.70087 0.77635 0.62123 0.0
H303 H 0.63151 0.77805 0.64484 0.0
H304 H 0.94297 0.77881 0.46527 0.0
H305 H 0.87454 0.77719 0.55847 0.0
H306 H 0.80464 0.82178 0.39585 0.0
H307 H 0.87271 0.82379 0.3036 0.0
H308 H 0.76346 0.81458 0.5215 0.0
H309 H 0.8094 0.75814 0.61866 0.0
H310 H 0.76191 0.76282 0.74907 0.0
H311 H 0.68979 0.76038 0.83201 0.0
C312 C 0.39145 0.75052 1.00895 0.0
C313 C 0.41656 0.78498 1.00945 0.0
C314 C 0.34659 0.75697 1.02249 0.0
C315 C 0.32673 0.79808 1.03573 0.0
C316 C 0.35147 0.83161 0.04526 0.0
C317 C 0.39655 0.82514 1.03136 0.0
C318 C 0.28103 0.80688 1.03394 0.0
C319 C 0.26381 0.78765 0.98437 0.0
C320 C 0.21684 0.79144 0.99091 0.0
C321 C 0.19518 0.75425 0.99326 0.0
C322 C 0.15065 0.75525 1.02376 0.0
C323 C 0.12785 0.79363 0.04979 0.0
H324 H 0.20922 0.85962 1.00528 0.0
C325 C 0.14842 0.83154 1.03787 0.0
C326 C 0.19297 0.83049 1.00831 0.0
H327 H 0.13098 0.8613 0.05849 0.0
H328 H 0.40673 0.71945 0.99123 0.0
H329 H 0.32778 0.73032 1.01787 0.0
H330 H 0.33641 0.86335 0.05683 0.0
H331 H 0.41584 0.85211 1.03045 0.0
H332 H 0.26148 0.82978 0.07351 0.0
H333 H 0.28338 0.7646 0.94512 0.0
H334 H 0.21325 0.72393 0.97951 0.0
H335 H 0.13498 0.72575 1.03374 0.0
C336 C 0.23194 0.21364 0.91492 0.0
C337 C 0.21118 0.25293 0.9421 0.0
C338 C 0.27365 0.21137 0.86836 0.0
C339 C 0.29541 0.24846 0.84856 0.0
C340 C 0.27437 0.2876 0.87569 0.0
C341 C 0.23288 0.28979 0.92211 0.0
C342 C 0.34138 0.24818 0.80659 0.0
C343 C 0.37078 0.21592 0.81033 0.0
C344 C 0.41297 0.22502 0.82597 0.0
C345 C 0.42667 0.20073 0.88086 0.0
C346 C 0.4515 0.21831 0.92406 0.0
C347 C 0.46295 0.26025 0.91233 0.0
H348 H 0.42449 0.28174 0.75948 0.0
C349 C 0.45624 0.2813 0.84883 0.0
C350 C 0.43212 0.26336 0.80471 0.0
H351 H 0.46628 0.31311 0.83733 0.0
H352 H 0.21527 0.18486 0.92722 0.0
H353 H 0.28828 0.18067 0.84754 0.0
H354 H 0.29037 0.3167 0.862 0.0
H355 H 0.21723 0.32044 0.94145 0.0
H356 H 0.35266 0.27918 0.79045 0.0
H357 H 0.35956 0.18492 0.82665 0.0
H358 H 0.41337 0.17058 0.89722 0.0
H359 H 0.45694 0.20104 0.97198 0.0
C360 C 0.66771 0.30914 0.07383 0.0
C361 C 0.64455 0.27283 0.07904 0.0
C362 C 0.71273 0.30526 0.06186 0.0
C363 C 0.7348 0.26494 0.05523 0.0
C364 C 0.71202 0.22906 0.05135 0.0
C365 C 0.66683 0.23293 0.06424 0.0
C366 C 0.7808 0.25963 0.05774 0.0
C367 C 0.79691 0.28286 0.10405 0.0
C368 C 0.84383 0.28148 0.0994 0.0
C369 C 0.86352 0.31984 0.09727 0.0
C370 C 0.90824 0.32065 0.06983 0.0
C371 C 0.93336 0.28297 0.04655 0.0
H372 H 0.85521 0.21325 0.08881 0.0
C373 C 0.91457 0.24412 0.05914 0.0
C374 C 0.86979 0.24332 0.08545 0.0
H375 H 0.93362 0.21483 0.04042 0.0
H376 H 0.65078 0.34008 0.08649 0.0
H377 H 0.72994 0.33354 0.06232 0.0
H378 H 0.7287 0.1978 0.04501 0.0
H379 H 0.64916 0.20458 0.06983 0.0
H380 H 0.80144 0.23569 1.02185 0.0
H381 H 0.77611 0.30685 0.13961 0.0
H382 H 0.84395 0.34951 0.10866 0.0
H383 H 0.92235 0.35091 0.05914 0.0
C384 C 0.82803 0.82563 0.13631 0.0
C385 C 0.85873 0.85163 0.09482 0.0
C386 C 0.78518 0.84105 0.16348 0.0
C387 C 0.77166 0.8828 0.14893 0.0
C388 C 0.80162 0.90831 0.10459 0.0
C389 C 0.84496 0.89309 0.07846 0.0
C390 C 0.72509 0.89718 0.17016 0.0
C391 C 0.69863 0.88233 0.23138 0.0
C392 C 0.65722 0.86556 0.22583 0.0
C393 C 0.64944 0.82447 0.2519 0.0
C394 C 0.62353 0.79968 0.22098 0.0
C395 C 0.60477 0.81594 0.16438 0.0
H396 H 0.63651 0.91635 0.16028 0.0
C397 C 0.60637 0.8594 0.1483 0.0
C398 C 0.63236 0.88415 0.17913 0.0
H399 H 0.59164 0.87335 0.106 0.0
H400 H 0.83717 0.79327 0.14831 0.0
H401 H 0.7624 0.8197 0.19409 0.0
H402 H 0.79155 0.94012 0.09075 0.0
H403 H 0.8677 0.91418 0.04719 0.0
H404 H 0.71183 0.91135 0.12608 0.0
H405 H 0.71322 0.86935 0.27498 0.0
H406 H 0.6676 0.80968 0.28911 0.0
H407 H 0.6216 0.76669 0.23616 0.0
loop_
_geom_bond_atom_site_label_1
_geom_bond_atom_site_label_2
_geom_bond_distance
_geom_bond_site_symmetry_2
_ccdc_geom_bond_type
Co0 N5 2.057 1_455 S
Co0 O17 2.021 . S
Co0 O20 2.062 1_455 S
Co0 O24 2.117 . S
Co0 O25 2.020 . S
C1 O21 1.259 . S
C1 O24 1.258 . S
Co2 N11 2.057 . S
Co2 O18 2.117 . S
Co2 O19 2.020 1_455 S
Co2 O21 2.021 . S
Co2 O26 2.062 . S
C3 N5 1.316 . S
C3 N6 1.353 . S
C3 H8 0.931 . S
C4 N5 1.375 . S
C4 C7 1.350 . S
C4 H9 0.930 . S
N5 Co0 2.057 1_655 S
N5 C3 1.316 . S
N5 C4 1.375 . S
N6 C3 1.353 . S
N6 C7 1.374 . S
C7 C4 1.350 . S
C7 N6 1.374 . S
C7 H28 0.931 1_554 S
H8 C3 0.931 . S
H9 C4 0.930 . S
C10 O17 1.259 . S
C10 O18 1.258 . S
N11 Co2 2.057 . S
N11 C12 1.316 . S
N11 C13 1.375 . S
C12 N11 1.316 . S
C12 N14 1.347 . S
C12 H23 0.931 . S
C13 N11 1.375 . S
C13 C15 1.350 . S
C13 H22 0.930 . S
N14 C12 1.347 . S
N14 C15 1.373 . S
C15 C13 1.350 . S
C15 N14 1.373 . S
C15 H29 0.931 . S
C16 O19 1.256 . S
C16 O20 1.255 . S
O17 Co0 2.021 . S
O17 C10 1.259 . S
O18 Co2 2.117 . S
O18 C10 1.258 . S
O19 Co2 2.020 1_655 S
O19 C16 1.256 . S
O20 Co0 2.062 1_655 S
O20 C16 1.255 . S
O21 C1 1.259 . S
O21 Co2 2.021 . S
H22 C13 0.930 . S
H23 C12 0.931 . S
O24 Co0 2.117 . S
O24 C1 1.258 . S
O25 Co0 2.020 . S
O25 C27 1.256 . S
O26 Co2 2.062 . S
O26 C27 1.255 . S
C27 O25 1.256 . S
C27 O26 1.255 . S
H28 C7 0.931 1_556 S
H29 C15 0.931 . S
Co30 N35 2.057 . S
Co30 O47 2.021 . S
Co30 O50 2.062 . S
Co30 O54 2.117 . S
Co30 O55 2.020 . S
C31 O51 1.259 . S
C31 O54 1.258 . S
Co32 N41 2.057 . S
Co32 O48 2.117 . S
Co32 O49 2.020 . S
Co32 O51 2.021 . S
Co32 O56 2.062 . S
C33 N35 1.316 . S
C33 N36 1.353 . S
C33 H38 0.931 . S
C34 N35 1.375 . S
C34 C37 1.350 . S
C34 H39 0.930 . S
N35 Co30 2.057 . S
N35 C33 1.316 . S
N35 C34 1.375 . S
N36 C33 1.353 . S
N36 C37 1.374 . S
C37 C34 1.350 . S
C37 N36 1.374 . S
C37 H58 0.931 1_554 S
H38 C33 0.931 . S
H39 C34 0.930 . S
C40 O47 1.259 . S
C40 O48 1.258 . S
N41 Co32 2.057 . S
N41 C42 1.316 . S
N41 C43 1.375 . S
C42 N41 1.316 . S
C42 N44 1.347 . S
C42 H53 0.931 . S
C43 N41 1.375 . S
C43 C45 1.350 . S
C43 H52 0.930 . S
N44 C42 1.347 . S
N44 C45 1.373 . S
C45 C43 1.350 . S
C45 N44 1.373 . S
C45 H59 0.931 . S
C46 O49 1.256 . S
C46 O50 1.255 . S
O47 Co30 2.021 . S
O47 C40 1.259 . S
O48 Co32 2.117 . S
O48 C40 1.258 . S
O49 Co32 2.020 . S
O49 C46 1.256 . S
O50 Co30 2.062 . S
O50 C46 1.255 . S
O51 C31 1.259 . S
O51 Co32 2.021 . S
H52 C43 0.930 . S
H53 C42 0.931 . S
O54 Co30 2.117 . S
O54 C31 1.258 . S
O55 Co30 2.020 . S
O55 C57 1.256 . S
O56 Co32 2.062 . S
O56 C57 1.255 . S
C57 O55 1.256 . S
C57 O56 1.255 . S
H58 C37 0.931 1_556 S
H59 C45 0.931 . S
Co60 N65 2.057 1_455 S
Co60 O77 2.021 . S
Co60 O80 2.062 1_455 S
Co60 O84 2.117 . S
Co60 O85 2.020 . S
C61 O81 1.259 . S
C61 O84 1.258 . S
Co62 N71 2.057 . S
Co62 O78 2.117 . S
Co62 O79 2.020 1_455 S
Co62 O81 2.021 . S
Co62 O86 2.062 . S
C63 N65 1.316 . S
C63 N66 1.347 . S
C63 H68 0.931 . S
C64 N65 1.375 . S
C64 C67 1.350 . S
C64 H69 0.930 . S
N65 Co60 2.057 1_655 S
N65 C63 1.316 . S
N65 C64 1.375 . S
N66 C63 1.347 . S
N66 C67 1.373 . S
C67 C64 1.350 . S
C67 N66 1.373 . S
C67 H88 0.931 . S
H68 C63 0.931 . S
H69 C64 0.930 . S
C70 O77 1.259 . S
C70 O78 1.258 . S
N71 Co62 2.057 . S
N71 C72 1.316 . S
N71 C73 1.375 . S
C72 N71 1.316 . S
C72 N74 1.353 . S
C72 H83 0.931 . S
C73 N71 1.375 . S
C73 C75 1.350 . S
C73 H82 0.930 . S
N74 C72 1.353 . S
N74 C75 1.374 . S
C75 C73 1.350 . S
C75 N74 1.374 . S
C75 H89 0.931 1_556 S
C76 O79 1.256 . S
C76 O80 1.255 . S
O77 Co60 2.021 . S
O77 C70 1.259 . S
O78 Co62 2.117 . S
O78 C70 1.258 . S
O79 Co62 2.020 1_655 S
O79 C76 1.256 . S
O80 Co60 2.062 1_655 S
O80 C76 1.255 . S
O81 C61 1.259 . S
O81 Co62 2.021 . S
H82 C73 0.930 . S
H83 C72 0.931 . S
O84 Co60 2.117 . S
O84 C61 1.258 . S
O85 Co60 2.020 . S
O85 C87 1.256 . S
O86 Co62 2.062 . S
O86 C87 1.255 . S
C87 O85 1.256 . S
C87 O86 1.255 . S
H88 C67 0.931 . S
H89 C75 0.931 1_554 S
Co90 N95 2.057 . S
Co90 O107 2.021 . S
Co90 O110 2.062 . S
Co90 O114 2.117 . S
Co90 O115 2.020 . S
C91 O111 1.259 . S
C91 O114 1.258 . S
Co92 N101 2.057 . S
Co92 O108 2.117 . S
Co92 O109 2.020 . S
Co92 O111 2.021 . S
Co92 O116 2.062 . S
C93 N95 1.316 . S
C93 N96 1.347 . S
C93 H98 0.931 . S
C94 N95 1.375 . S
C94 C97 1.350 . S
C94 H99 0.930 . S
N95 Co90 2.057 . S
N95 C93 1.316 . S
N95 C94 1.375 . S
N96 C93 1.347 . S
N96 C97 1.373 . S
C97 C94 1.350 . S
C97 N96 1.373 . S
C97 H118 0.931 . S
H98 C93 0.931 . S
H99 C94 0.930 . S
C100 O107 1.259 . S
C100 O108 1.258 . S
N101 Co92 2.057 . S
N101 C102 1.316 . S
N101 C103 1.375 . S
C102 N101 1.316 . S
C102 N104 1.353 . S
C102 H113 0.931 . S
C103 N101 1.375 . S
C103 C105 1.350 . S
C103 H112 0.930 . S
N104 C102 1.353 . S
N104 C105 1.374 . S
C105 C103 1.350 . S
C105 N104 1.374 . S
C105 H119 0.931 1_556 S
C106 O109 1.256 . S
C106 O110 1.255 . S
O107 Co90 2.021 . S
O107 C100 1.259 . S
O108 Co92 2.117 . S
O108 C100 1.258 . S
O109 Co92 2.020 . S
O109 C106 1.256 . S
O110 Co90 2.062 . S
O110 C106 1.255 . S
O111 C91 1.259 . S
O111 Co92 2.021 . S
H112 C103 0.930 . S
H113 C102 0.931 . S
O114 Co90 2.117 . S
O114 C91 1.258 . S
O115 Co90 2.020 . S
O115 C117 1.256 . S
O116 Co92 2.062 . S
O116 C117 1.255 . S
C117 O115 1.256 . S
C117 O116 1.255 . S
H118 C97 0.931 . S
H119 C105 0.931 1_554 S
C120 C121 1.386 . S
C120 C122 1.383 . S
C120 H136 0.951 . S
C121 C120 1.386 . S
C121 C125 1.383 . S
C122 C120 1.383 . S
C122 C123 1.402 . S
C122 H137 0.951 1_556 S
C123 C122 1.402 . S
C123 C124 1.375 . S
C123 C126 1.481 . S
C124 C123 1.375 . S
C124 C125 1.367 . S
C124 H138 0.951 . S
C125 C121 1.383 . S
C125 C124 1.367 . S
C125 H139 0.950 . S
C126 C123 1.481 . S
C126 C127 1.297 1_556 S
C126 H140 0.950 . S
C127 C126 1.297 1_554 S
C127 C128 1.479 . S
C127 H141 0.950 . S
C128 C127 1.479 . S
C128 C129 1.375 . S
C128 C134 1.404 . S
C129 C128 1.375 . S
C129 C130 1.369 . S
C129 H142 0.950 . S
C130 C129 1.369 . S
C130 C131 1.392 . S
C130 H143 0.951 . S
C131 C130 1.392 . S
C131 C133 1.384 . S
H132 C134 0.949 1_556 S
C133 C131 1.384 . S
C133 C134 1.385 . S
C133 H135 0.950 . S
C134 C128 1.404 . S
C134 H132 0.949 1_554 S
C134 C133 1.385 . S
H135 C133 0.950 . S
H136 C120 0.951 . S
H137 C122 0.951 1_554 S
H138 C124 0.951 . S
H139 C125 0.950 . S
H140 C126 0.950 . S
H141 C127 0.950 . S
H142 C129 0.950 . S
H143 C130 0.951 . S
C144 C145 1.386 . S
C144 C146 1.383 . S
C144 H160 0.951 . S
C145 C144 1.386 . S
C145 C149 1.383 . S
C146 C144 1.383 . S
C146 C147 1.402 . S
C146 H161 0.951 . S
C147 C146 1.402 . S
C147 C148 1.375 . S
C147 C150 1.481 1_554 S
C148 C147 1.375 . S
C148 C149 1.367 . S
C148 H162 0.951 1_554 S
C149 C145 1.383 . S
C149 C148 1.367 . S
C149 H163 0.950 . S
C150 C147 1.481 1_556 S
C150 C151 1.297 . S
C150 H164 0.950 . S
C151 C150 1.297 . S
C151 C152 1.479 . S
C151 H165 0.950 1_556 S
C152 C151 1.479 . S
C152 C153 1.375 . S
C152 C158 1.404 . S
C153 C152 1.375 . S
C153 C154 1.369 . S
C153 H166 0.950 1_556 S
C154 C153 1.369 . S
C154 C155 1.392 . S
C154 H167 0.951 . S
C155 C154 1.392 . S
C155 C157 1.384 . S
H156 C158 0.949 . S
C157 C155 1.384 . S
C157 C158 1.385 . S
C157 H159 0.950 . S
C158 C152 1.404 . S
C158 H156 0.949 . S
C158 C157 1.385 . S
H159 C157 0.950 . S
H160 C144 0.951 . S
H161 C146 0.951 . S
H162 C148 0.951 1_556 S
H163 C149 0.950 . S
H164 C150 0.950 . S
H165 C151 0.950 1_554 S
H166 C153 0.950 1_554 S
H167 C154 0.951 . S
C168 C169 1.386 . S
C168 C170 1.383 . S
C168 H184 0.951 . S
C169 C168 1.386 . S
C169 C173 1.383 . S
C170 C168 1.383 . S
C170 C171 1.402 . S
C170 H185 0.951 . S
C171 C170 1.402 . S
C171 C172 1.375 . S
C171 C174 1.475 1_565 S
C172 C171 1.375 . S
C172 C173 1.367 . S
C172 H186 0.951 . S
C173 C169 1.383 . S
C173 C172 1.367 . S
C173 H187 0.950 . S
C174 C171 1.475 1_545 S
C174 C175 1.300 . S
C174 H188 0.952 . S
C175 C174 1.300 . S
C175 C176 1.479 1_556 S
C175 H189 0.950 . S
C176 C175 1.479 1_554 S
C176 C177 1.375 . S
C176 C182 1.404 . S
C177 C176 1.375 . S
C177 C178 1.369 . S
C177 H190 0.950 . S
C178 C177 1.369 . S
C178 C179 1.392 . S
C178 H191 0.951 . S
C179 C178 1.392 . S
C179 C181 1.384 . S
H180 C182 0.949 . S
C181 C179 1.384 . S
C181 C182 1.385 . S
C181 H183 0.950 . S
C182 C176 1.404 . S
C182 H180 0.949 . S
C182 C181 1.385 . S
H183 C181 0.950 . S
H184 C168 0.951 . S
H185 C170 0.951 . S
H186 C172 0.951 . S
H187 C173 0.950 . S
H188 C174 0.952 . S
H189 C175 0.950 . S
H190 C177 0.950 . S
H191 C178 0.951 . S
C192 C193 1.386 . S
C192 C194 1.383 . S
C192 H208 0.951 . S
C193 C192 1.386 . S
C193 C197 1.383 . S
C194 C192 1.383 . S
C194 C195 1.402 . S
C194 H209 0.951 . S
C195 C194 1.402 . S
C195 C196 1.375 . S
C195 C198 1.481 1_554 S
C196 C195 1.375 . S
C196 C197 1.367 . S
C196 H210 0.951 1_554 S
C197 C193 1.383 . S
C197 C196 1.367 . S
C197 H211 0.950 . S
C198 C195 1.481 1_556 S
C198 C199 1.297 1_565 S
C198 H212 0.950 . S
C199 C198 1.297 1_545 S
C199 C200 1.479 . S
C199 H213 0.950 1_556 S
C200 C199 1.479 . S
C200 C201 1.375 . S
C200 C206 1.404 . S
C201 C200 1.375 . S
C201 C202 1.369 . S
C201 H214 0.950 1_556 S
C202 C201 1.369 . S
C202 C203 1.392 . S
C202 H215 0.951 . S
C203 C202 1.392 . S
C203 C205 1.384 . S
H204 C206 0.949 . S
C205 C203 1.384 . S
C205 C206 1.385 . S
C205 H207 0.950 . S
C206 C200 1.404 . S
C206 H204 0.949 . S
C206 C205 1.385 . S
H207 C205 0.950 . S
H208 C192 0.951 . S
H209 C194 0.951 . S
H210 C196 0.951 1_556 S
H211 C197 0.950 . S
H212 C198 0.950 . S
H213 C199 0.950 1_554 S
H214 C201 0.950 1_554 S
H215 C202 0.951 . S
C216 C217 1.386 . S
C216 C218 1.383 . S
C216 H232 0.951 . S
C217 C216 1.386 . S
C217 C221 1.383 . S
C218 C216 1.383 . S
C218 C219 1.402 . S
C218 H233 0.951 . S
C219 C218 1.402 . S
C219 C220 1.375 . S
C219 C222 1.481 . S
C220 C219 1.375 . S
C220 C221 1.367 . S
C220 H234 0.951 . S
C221 C217 1.383 . S
C221 C220 1.367 . S
C221 H235 0.950 . S
C222 C219 1.481 . S
C222 C223 1.297 . S
C222 H236 0.950 . S
C223 C222 1.297 . S
C223 C224 1.479 . S
C223 H237 0.950 . S
C224 C223 1.479 . S
C224 C225 1.375 . S
C224 C230 1.404 . S
C225 C224 1.375 . S
C225 C226 1.369 . S
C225 H238 0.950 . S
C226 C225 1.369 . S
C226 C227 1.392 . S
C226 H239 0.951 . S
C227 C226 1.392 . S
C227 C229 1.384 . S
H228 C230 0.949 . S
C229 C227 1.384 . S
C229 C230 1.385 . S
C229 H231 0.950 . S
C230 C224 1.404 . S
C230 H228 0.949 . S
C230 C229 1.385 . S
H231 C229 0.950 . S
H232 C216 0.951 . S
H233 C218 0.951 . S
H234 C220 0.951 . S
H235 C221 0.950 . S
H236 C222 0.950 . S
H237 C223 0.950 . S
H238 C225 0.950 . S
H239 C226 0.951 . S
C240 C241 1.386 . S
C240 C242 1.383 . S
C240 H256 0.951 . S
C241 C240 1.386 . S
C241 C245 1.383 . S
C242 C240 1.383 . S
C242 C243 1.402 . S
C242 H257 0.951 . S
C243 C242 1.402 . S
C243 C244 1.375 . S
C243 C246 1.481 . S
C244 C243 1.375 . S
C244 C245 1.367 . S
C244 H258 0.951 . S
C245 C241 1.383 . S
C245 C244 1.367 . S
C245 H259 0.950 . S
C246 C243 1.481 . S
C246 C247 1.297 . S
C246 H260 0.950 . S
C247 C246 1.297 . S
C247 C248 1.479 . S
C247 H261 0.950 . S
C248 C247 1.479 . S
C248 C249 1.375 . S
C248 C254 1.404 . S
C249 C248 1.375 . S
C249 C250 1.369 . S
C249 H262 0.950 . S
C250 C249 1.369 . S
C250 C251 1.392 . S
C250 H263 0.951 . S
C251 C250 1.392 . S
C251 C253 1.384 . S
H252 C254 0.949 . S
C253 C251 1.384 . S
C253 C254 1.385 . S
C253 H255 0.950 . S
C254 C248 1.404 . S
C254 H252 0.949 . S
C254 C253 1.385 . S
H255 C253 0.950 . S
H256 C240 0.951 . S
H257 C242 0.951 . S
H258 C244 0.951 . S
H259 C245 0.950 . S
H260 C246 0.950 . S
H261 C247 0.950 . S
H262 C249 0.950 . S
H263 C250 0.951 . S
C264 C265 1.386 . S
C264 C266 1.383 . S
C264 H280 0.951 . S
C265 C264 1.386 . S
C265 C269 1.383 . S
C266 C264 1.383 . S
C266 C267 1.402 . S
C266 H281 0.951 . S
C267 C266 1.402 . S
C267 C268 1.375 . S
C267 C270 1.481 . S
C268 C267 1.375 . S
C268 C269 1.367 . S
C268 H282 0.951 . S
C269 C265 1.383 . S
C269 C268 1.367 . S
C269 H283 0.950 . S
C270 C267 1.481 . S
C270 C271 1.297 . S
C270 H284 0.950 . S
C271 C270 1.297 . S
C271 C272 1.479 . S
C271 H285 0.950 . S
C272 C271 1.479 . S
C272 C273 1.375 . S
C272 C278 1.404 . S
C273 C272 1.375 . S
C273 C274 1.369 . S
C273 H286 0.950 . S
C274 C273 1.369 . S
C274 C275 1.392 . S
C274 H287 0.951 . S
C275 C274 1.392 . S
C275 C277 1.384 . S
H276 C278 0.949 . S
C277 C275 1.384 . S
C277 C278 1.385 . S
C277 H279 0.950 . S
C278 C272 1.404 . S
C278 H276 0.949 . S
C278 C277 1.385 . S
H279 C277 0.950 . S
H280 C264 0.951 . S
H281 C266 0.951 . S
H282 C268 0.951 . S
H283 C269 0.950 . S
H284 C270 0.950 . S
H285 C271 0.950 . S
H286 C273 0.950 . S
H287 C274 0.951 . S
C288 C289 1.386 . S
C288 C290 1.383 . S
C288 H304 0.951 . S
C289 C288 1.386 . S
C289 C293 1.383 . S
C290 C288 1.383 . S
C290 C291 1.402 . S
C290 H305 0.951 . S
C291 C290 1.402 . S
C291 C292 1.375 . S
C291 C294 1.481 . S
C292 C291 1.375 . S
C292 C293 1.367 . S
C292 H306 0.951 . S
C293 C289 1.383 . S
C293 C292 1.367 . S
C293 H307 0.950 . S
C294 C291 1.481 . S
C294 C295 1.297 . S
C294 H308 0.950 . S
C295 C294 1.297 . S
C295 C296 1.479 . S
C295 H309 0.950 . S
C296 C295 1.479 . S
C296 C297 1.375 . S
C296 C302 1.404 . S
C297 C296 1.375 . S
C297 C298 1.369 . S
C297 H310 0.950 . S
C298 C297 1.369 . S
C298 C299 1.392 . S
C298 H311 0.951 . S
C299 C298 1.392 . S
C299 C301 1.384 . S
H300 C302 0.949 . S
C301 C299 1.384 . S
C301 C302 1.385 . S
C301 H303 0.950 . S
C302 C296 1.404 . S
C302 H300 0.949 . S
C302 C301 1.385 . S
H303 C301 0.950 . S
H304 C288 0.951 . S
H305 C290 0.951 . S
H306 C292 0.951 . S
H307 C293 0.950 . S
H308 C294 0.950 . S
H309 C295 0.950 . S
H310 C297 0.950 . S
H311 C298 0.951 . S
C312 C313 1.386 . S
C312 C314 1.383 . S
C312 H328 0.951 . S
C313 C312 1.386 . S
C313 C317 1.383 . S
C314 C312 1.383 . S
C314 C315 1.402 1_556 S
C314 H329 0.951 . S
C315 C314 1.402 1_554 S
C315 C316 1.375 . S
C315 C318 1.481 . S
C316 C315 1.375 . S
C316 C317 1.367 1_554 S
C316 H330 0.951 . S
C317 C313 1.383 . S
C317 C316 1.367 1_556 S
C317 H331 0.950 1_556 S
C318 C315 1.481 . S
C318 C319 1.297 . S
C318 H332 0.950 . S
C319 C318 1.297 . S
C319 C320 1.479 . S
C319 H333 0.950 . S
C320 C319 1.479 . S
C320 C321 1.375 . S
C320 C326 1.404 . S
C321 C320 1.375 . S
C321 C322 1.369 . S
C321 H334 0.950 1_554 S
C322 C321 1.369 . S
C322 C323 1.392 . S
C322 H335 0.951 . S
C323 C322 1.392 . S
C323 C325 1.384 . S
H324 C326 0.949 . S
C325 C323 1.384 . S
C325 C326 1.385 . S
C325 H327 0.950 . S
C326 C320 1.404 . S
C326 H324 0.949 . S
C326 C325 1.385 . S
H327 C325 0.950 . S
H328 C312 0.951 . S
H329 C314 0.951 . S
H330 C316 0.951 . S
H331 C317 0.950 1_554 S
H332 C318 0.950 . S
H333 C319 0.950 . S
H334 C321 0.950 1_556 S
H335 C322 0.951 . S
C336 C337 1.386 . S
C336 C338 1.383 . S
C336 H352 0.951 . S
C337 C336 1.386 . S
C337 C341 1.383 1_554 S
C338 C336 1.383 . S
C338 C339 1.402 1_554 S
C338 H353 0.951 . S
C339 C338 1.402 1_556 S
C339 C340 1.375 . S
C339 C342 1.481 . S
C340 C339 1.375 . S
C340 C341 1.367 . S
C340 H354 0.951 . S
C341 C337 1.383 1_556 S
C341 C340 1.367 . S
C341 H355 0.950 . S
C342 C339 1.481 . S
C342 C343 1.297 . S
C342 H356 0.950 . S
C343 C342 1.297 . S
C343 C344 1.479 . S
C343 H357 0.950 . S
C344 C343 1.479 . S
C344 C345 1.375 . S
C344 C350 1.404 . S
C345 C344 1.375 . S
C345 C346 1.369 . S
C345 H358 0.950 1_556 S
C346 C345 1.369 . S
C346 C347 1.392 . S
C346 H359 0.951 1_556 S
C347 C346 1.392 . S
C347 C349 1.384 . S
H348 C350 0.949 . S
C349 C347 1.384 . S
C349 C350 1.385 . S
C349 H351 0.950 . S
C350 C344 1.404 . S
C350 H348 0.949 . S
C350 C349 1.385 . S
H351 C349 0.950 . S
H352 C336 0.951 . S
H353 C338 0.951 . S
H354 C340 0.951 . S
H355 C341 0.950 . S
H356 C342 0.950 . S
H357 C343 0.950 . S
H358 C345 0.950 1_554 S
H359 C346 0.951 1_554 S
C360 C361 1.386 . S
C360 C362 1.383 . S
C360 H376 0.951 . S
C361 C360 1.386 . S
C361 C365 1.383 . S
C362 C360 1.383 . S
C362 C363 1.402 . S
C362 H377 0.951 . S
C363 C362 1.402 . S
C363 C364 1.375 . S
C363 C366 1.481 . S
C364 C363 1.375 . S
C364 C365 1.367 . S
C364 H378 0.951 . S
C365 C361 1.383 . S
C365 C364 1.367 . S
C365 H379 0.950 . S
C366 C363 1.481 . S
C366 C367 1.297 . S
C366 H380 0.950 . S
C367 C366 1.297 . S
C367 C368 1.479 . S
C367 H381 0.950 . S
C368 C367 1.479 . S
C368 C369 1.375 . S
C368 C374 1.404 1_554 S
C369 C368 1.375 . S
C369 C370 1.369 1_554 S
C369 H382 0.950 . S
C370 C369 1.369 1_556 S
C370 C371 1.392 . S
C370 H383 0.951 . S
C371 C370 1.392 . S
C371 C373 1.384 . S
H372 C374 0.949 . S
C373 C371 1.384 . S
C373 C374 1.385 . S
C373 H375 0.950 . S
C374 C368 1.404 1_556 S
C374 H372 0.949 . S
C374 C373 1.385 . S
H375 C373 0.950 . S
H376 C360 0.951 . S
H377 C362 0.951 . S
H378 C364 0.951 . S
H379 C365 0.950 . S
H380 C366 0.950 . S
H381 C367 0.950 . S
H382 C369 0.950 . S
H383 C370 0.951 . S
C384 C385 1.386 1_554 S
C384 C386 1.383 . S
C384 H400 0.951 . S
C385 C384 1.386 1_556 S
C385 C389 1.383 . S
C386 C384 1.383 . S
C386 C387 1.402 . S
C386 H401 0.951 . S
C387 C386 1.402 . S
C387 C388 1.375 1_554 S
C387 C390 1.481 . S
C388 C387 1.375 1_556 S
C388 C389 1.367 . S
C388 H402 0.951 . S
C389 C385 1.383 . S
C389 C388 1.367 . S
C389 H403 0.950 . S
C390 C387 1.481 . S
C390 C391 1.297 . S
C390 H404 0.950 . S
C391 C390 1.297 . S
C391 C392 1.479 . S
C391 H405 0.950 . S
C392 C391 1.479 . S
C392 C393 1.375 . S
C392 C398 1.404 . S
C393 C392 1.375 . S
C393 C394 1.369 . S
C393 H406 0.950 . S
C394 C393 1.369 . S
C394 C395 1.392 . S
C394 H407 0.951 . S
C395 C394 1.392 . S
C395 C397 1.384 . S
H396 C398 0.949 . S
C397 C395 1.384 . S
C397 C398 1.385 . S
C397 H399 0.950 . S
C398 C392 1.404 . S
C398 H396 0.949 . S
C398 C397 1.385 . S
H399 C397 0.950 . S
H400 C384 0.951 . S
H401 C386 0.951 . S
H402 C388 0.951 . S
H403 C389 0.950 . S
H404 C390 0.950 . S
H405 C391 0.950 . S
H406 C393 0.950 . S
H407 C394 0.951 . S
C121 C61 2.256 . S
C131 C10 2.266 . S
C145 C31 2.293 . S
C155 C100 2.302 . S
C169 C91 2.270 . S
C179 C40 2.199 . S
C193 C1 2.296 . S
C203 C70 2.291 . S
C217 N96 1.546 . S
C227 N14 1.524 . S
C241 C87 1.585 . S
C251 C46 1.575 . S
C265 N66 1.540 . S
C275 N44 1.536 . S
C289 C16 1.587 . S
C299 C117 1.576 . S
C313 C106 0.826 . S
C323 C27 0.697 . S
C337 N74 0.388 1_554 S
C347 N36 0.577 1_556 S
C361 C57 0.752 . S
C371 C76 0.865 . S
C385 N6 0.299 1_556 S
C395 N104 0.558 1_554 S
