# Generated by pormake.
# Topology smn, (6)-cn, num edge types: 1
# Building blocks:
#     Node 0, Type 0, BuildingBlock: VOLQOD_clean_sbu_1, # of connection points: 6
#     Node 1, Type 0, BuildingBlock: VOLQOD_clean_sbu_1, # of connection points: 6
#     Node 2, Type 0, BuildingBlock: VOLQOD_clean_sbu_1, # of connection points: 6
#     Node 3, Type 0, BuildingBlock: VOLQOD_clean_sbu_1, # of connection points: 6
#     Node 4, Type 0, BuildingBlock: VOLQOD_clean_sbu_1, # of connection points: 6
#     Node 5, Type 0, BuildingBlock: VOLQOD_clean_sbu_1, # of connection points: 6
#     Node 6, Type 0, BuildingBlock: VOLQOD_clean_sbu_1, # of connection points: 6
#     Node 7, Type 0, BuildingBlock: VOLQOD_clean_sbu_1, # of connection points: 6
#     Node 8, Type 0, BuildingBlock: VOLQOD_clean_sbu_1, # of connection points: 6
#     Node 9, Type 0, BuildingBlock: VOLQOD_clean_sbu_1, # of connection points: 6
#     Node 10, Type 0, BuildingBlock: VOLQOD_clean_sbu_1, # of connection points: 6
#     Node 11, Type 0, BuildingBlock: VOLQOD_clean_sbu_1, # of connection points: 6
#     Node 12, Type 0, BuildingBlock: VOLQOD_clean_sbu_1, # of connection points: 6
#     Node 13, Type 0, BuildingBlock: VOLQOD_clean_sbu_1, # of connection points: 6
#     Node 14, Type 0, BuildingBlock: VOLQOD_clean_sbu_1, # of connection points: 6
#     Node 15, Type 0, BuildingBlock: VOLQOD_clean_sbu_1, # of connection points: 6
#     Node 16, Type 0, BuildingBlock: VOLQOD_clean_sbu_1, # of connection points: 6
#     Node 17, Type 0, BuildingBlock: VOLQOD_clean_sbu_1, # of connection points: 6
#     Edge 18, Type (0, 0), BuildingBlock: UVAHIK_clean_linker_0, # of connection points: 2
#     Edge 19, Type (0, 0), BuildingBlock: UVAHIK_clean_linker_0, # of connection points: 2
#     Edge 20, Type (0, 0), BuildingBlock: UVAHIK_clean_linker_0, # of connection points: 2
#     Edge 21, Type (0, 0), BuildingBlock: UVAHIK_clean_linker_0, # of connection points: 2
#     Edge 22, Type (0, 0), BuildingBlock: UVAHIK_clean_linker_0, # of connection points: 2
#     Edge 23, Type (0, 0), BuildingBlock: UVAHIK_clean_linker_0, # of connection points: 2
#     Edge 24, Type (0, 0), BuildingBlock: UVAHIK_clean_linker_0, # of connection points: 2
#     Edge 25, Type (0, 0), BuildingBlock: UVAHIK_clean_linker_0, # of connection points: 2
#     Edge 26, Type (0, 0), BuildingBlock: UVAHIK_clean_linker_0, # of connection points: 2
#     Edge 27, Type (0, 0), BuildingBlock: UVAHIK_clean_linker_0, # of connection points: 2
#     Edge 28, Type (0, 0), BuildingBlock: UVAHIK_clean_linker_0, # of connection points: 2
#     Edge 29, Type (0, 0), BuildingBlock: UVAHIK_clean_linker_0, # of connection points: 2
#     Edge 30, Type (0, 0), BuildingBlock: UVAHIK_clean_linker_0, # of connection points: 2
#     Edge 31, Type (0, 0), BuildingBlock: UVAHIK_clean_linker_0, # of connection points: 2
#     Edge 32, Type (0, 0), BuildingBlock: UVAHIK_clean_linker_0, # of connection points: 2
#     Edge 33, Type (0, 0), BuildingBlock: UVAHIK_clean_linker_0, # of connection points: 2
#     Edge 34, Type (0, 0), BuildingBlock: UVAHIK_clean_linker_0, # of connection points: 2
#     Edge 35, Type (0, 0), BuildingBlock: UVAHIK_clean_linker_0, # of connection points: 2
#     Edge 36, Type (0, 0), BuildingBlock: UVAHIK_clean_linker_0, # of connection points: 2
#     Edge 37, Type (0, 0), BuildingBlock: UVAHIK_clean_linker_0, # of connection points: 2
#     Edge 38, Type (0, 0), BuildingBlock: UVAHIK_clean_linker_0, # of connection points: 2
#     Edge 39, Type (0, 0), BuildingBlock: UVAHIK_clean_linker_0, # of connection points: 2
#     Edge 40, Type (0, 0), BuildingBlock: UVAHIK_clean_linker_0, # of connection points: 2
#     Edge 41, Type (0, 0), BuildingBlock: UVAHIK_clean_linker_0, # of connection points: 2
#     Edge 42, Type (0, 0), BuildingBlock: UVAHIK_clean_linker_0, # of connection points: 2
#     Edge 43, Type (0, 0), BuildingBlock: UVAHIK_clean_linker_0, # of connection points: 2
#     Edge 44, Type (0, 0), BuildingBlock: UVAHIK_clean_linker_0, # of connection points: 2
#     Edge 45, Type (0, 0), BuildingBlock: UVAHIK_clean_linker_0, # of connection points: 2
#     Edge 46, Type (0, 0), BuildingBlock: UVAHIK_clean_linker_0, # of connection points: 2
#     Edge 47, Type (0, 0), BuildingBlock: UVAHIK_clean_linker_0, # of connection points: 2
#     Edge 48, Type (0, 0), BuildingBlock: UVAHIK_clean_linker_0, # of connection points: 2
#     Edge 49, Type (0, 0), BuildingBlock: UVAHIK_clean_linker_0, # of connection points: 2
#     Edge 50, Type (0, 0), BuildingBlock: UVAHIK_clean_linker_0, # of connection points: 2
#     Edge 51, Type (0, 0), BuildingBlock: UVAHIK_clean_linker_0, # of connection points: 2
#     Edge 52, Type (0, 0), BuildingBlock: UVAHIK_clean_linker_0, # of connection points: 2
#     Edge 53, Type (0, 0), BuildingBlock: UVAHIK_clean_linker_0, # of connection points: 2
#     Edge 54, Type (0, 0), BuildingBlock: UVAHIK_clean_linker_0, # of connection points: 2
#     Edge 55, Type (0, 0), BuildingBlock: UVAHIK_clean_linker_0, # of connection points: 2
#     Edge 56, Type (0, 0), BuildingBlock: UVAHIK_clean_linker_0, # of connection points: 2
#     Edge 57, Type (0, 0), BuildingBlock: UVAHIK_clean_linker_0, # of connection points: 2
#     Edge 58, Type (0, 0), BuildingBlock: UVAHIK_clean_linker_0, # of connection points: 2
#     Edge 59, Type (0, 0), BuildingBlock: UVAHIK_clean_linker_0, # of connection points: 2
#     Edge 60, Type (0, 0), BuildingBlock: UVAHIK_clean_linker_0, # of connection points: 2
#     Edge 61, Type (0, 0), BuildingBlock: UVAHIK_clean_linker_0, # of connection points: 2
#     Edge 62, Type (0, 0), BuildingBlock: UVAHIK_clean_linker_0, # of connection points: 2
#     Edge 63, Type (0, 0), BuildingBlock: UVAHIK_clean_linker_0, # of connection points: 2
#     Edge 64, Type (0, 0), BuildingBlock: UVAHIK_clean_linker_0, # of connection points: 2
#     Edge 65, Type (0, 0), BuildingBlock: UVAHIK_clean_linker_0, # of connection points: 2
#     Edge 66, Type (0, 0), BuildingBlock: UVAHIK_clean_linker_0, # of connection points: 2
#     Edge 67, Type (0, 0), BuildingBlock: UVAHIK_clean_linker_0, # of connection points: 2
#     Edge 68, Type (0, 0), BuildingBlock: UVAHIK_clean_linker_0, # of connection points: 2
#     Edge 69, Type (0, 0), BuildingBlock: UVAHIK_clean_linker_0, # of connection points: 2
#     Edge 70, Type (0, 0), BuildingBlock: UVAHIK_clean_linker_0, # of connection points: 2
#     Edge 71, Type (0, 0), BuildingBlock: UVAHIK_clean_linker_0, # of connection points: 2
# Relax obj value: 0.237
# Max RMSD: 0.243
# Mean RMSD: 0.242
data_MOF--net-smn--node1-VOLQOD_clean_sbu_1--edge1-UVAHIK_clean_linker_0
_symmetry_space_group_name_H-M    P1
_symmetry_Int_Tables_number       1
_symmetry_cell_setting            triclinic
loop_
_symmetry_equiv_pos_as_xyz
'x, y, z'
_cell_length_a     80.134264
_cell_length_b     80.082875
_cell_length_c     26.917495
_cell_angle_alpha  89.984232
_cell_angle_beta   90.054836
_cell_angle_gamma 120.02682
loop_
_atom_site_label
_atom_site_type_symbol
_atom_site_fract_x
_atom_site_fract_y
_atom_site_fract_z
_atom_type_partial_charge
O0 O 0.01508 0.24251 0.67055 0.0
Zn1 Zn 0.99473 0.21835 0.70363 0.0
O2 O 0.00705 0.20898 0.74982 0.0
Zn3 Zn 0.00201 0.18325 0.73156 0.0
Zn4 Zn 0.03452 0.22677 0.75237 0.0
Zn5 Zn -0.00272 0.20774 0.81546 0.0
O6 O 0.98351 0.16248 0.77946 0.0
O7 O 0.97849 0.18078 0.83218 0.0
O8 O 0.98047 0.19864 0.64892 0.0
O9 O 0.98816 0.17623 0.66688 0.0
O10 O 0.02684 0.18289 0.71941 0.0
O11 O 0.04808 0.21428 0.72164 0.0
O12 O 0.04456 0.23228 0.82258 0.0
O13 O 0.97729 0.22598 0.74063 0.0
O14 O 0.01788 0.21677 0.86719 0.0
O15 O 0.98301 0.22196 0.81939 0.0
C16 C 0.03282 0.25426 0.67941 0.0
C17 C 0.97473 0.16428 0.81675 0.0
C18 C 0.04392 0.19699 0.71321 0.0
C19 C 0.98006 0.18285 0.63882 0.0
C20 C 0.03616 0.22647 0.86435 0.0
C21 C 0.97509 0.22737 0.78715 0.0
O22 O 0.04197 0.25088 0.71299 0.0
O23 O 0.77403 0.79438 0.68424 0.0
Zn24 Zn 0.79969 0.80048 0.71238 0.0
O25 O 0.80812 0.82146 0.76066 0.0
Zn26 Zn 0.83181 0.84432 0.7386 0.0
Zn27 Zn 0.78785 0.82772 0.77134 0.0
Zn28 Zn 0.81299 0.81314 0.8232 0.0
O29 O 0.85482 0.8505 0.78312 0.0
O30 O 0.84091 0.82621 0.83673 0.0
O31 O 0.81868 0.80811 0.65503 0.0
O32 O 0.839 0.83892 0.67227 0.0
O33 O 0.82764 0.86707 0.72835 0.0
O34 O 0.7962 0.85368 0.74239 0.0
O35 O 0.78339 0.83019 0.84453 0.0
O36 O 0.79526 0.7757 0.74551 0.0
O37 O 0.80205 0.82048 0.87975 0.0
O38 O 0.80309 0.78492 0.82403 0.0
C39 C 0.76088 0.79784 0.69836 0.0
C40 C 0.85575 0.84099 0.81994 0.0
C41 C 0.81218 0.86797 0.72873 0.0
C42 C 0.83326 0.82437 0.64388 0.0
C43 C 0.79072 0.82721 0.88321 0.0
C44 C 0.79694 0.77194 0.79069 0.0
O45 O 0.76351 0.80912 0.73473 0.0
O46 O 0.21802 0.99267 0.66162 0.0
Zn47 Zn 0.21629 0.014 0.69625 0.0
O48 O 0.19621 0.00265 0.74665 0.0
Zn49 Zn 0.17614 0.00914 0.73489 0.0
Zn50 Zn 0.1855 0.97509 0.75047 0.0
Zn51 Zn 0.20761 0.0125 0.80989 0.0
O52 O 0.17803 0.02951 0.78407 0.0
O53 O 0.20345 0.03402 0.82797 0.0
O54 O 0.20978 0.02811 0.64364 0.0
O55 O 0.18072 0.02167 0.66853 0.0
O56 O 0.14971 0.98494 0.72924 0.0
O57 O 0.15842 0.96255 0.72697 0.0
O58 O 0.18277 0.96558 0.82101 0.0
O59 O 0.24267 0.03105 0.72793 0.0
O60 O 0.19544 0.99286 0.86357 0.0
O61 O 0.23582 0.02282 0.80741 0.0
C62 C 0.21153 0.97482 0.67046 0.0
C63 C 0.19092 0.03873 0.81698 0.0
C64 C 0.14565 0.96749 0.72312 0.0
C65 C 0.19439 0.02886 0.63707 0.0
C66 C 0.18624 0.97454 0.86221 0.0
C67 C 0.248 0.03116 0.77272 0.0
O68 O 0.19984 0.96623 0.70609 0.0
O69 O 0.02975 0.80254 0.25101 0.0
Zn70 Zn 0.01121 0.80885 0.28667 0.0
O71 O -0.00024 0.81896 0.24008 0.0
Zn72 Zn 0.0046 0.84442 0.26083 0.0
Zn73 Zn 0.01045 0.82094 0.17485 0.0
Zn74 Zn 0.97229 0.80123 0.23526 0.0
O75 O 0.97956 0.84432 0.27363 0.0
O76 O 0.95843 0.81295 0.26862 0.0
O77 O 0.02414 0.82733 0.34434 0.0
O78 O 0.01801 0.8508 0.32619 0.0
O79 O 0.02286 0.86576 0.2139 0.0
O80 O 0.02815 0.84831 0.15864 0.0
O81 O 0.99036 0.81175 0.12149 0.0
O82 O 0.99054 0.7838 0.31526 0.0
O83 O 0.96314 0.79759 0.16432 0.0
O84 O 0.9644 0.77604 0.27012 0.0
C85 C 0.03327 0.8021 0.20494 0.0
C86 C 0.96251 0.83008 0.279 0.0
C87 C 0.03139 0.8645 0.17534 0.0
C88 C 0.02507 0.84331 0.35494 0.0
C89 C 0.97206 0.80306 0.12309 0.0
C90 C 0.97308 0.77202 0.30368 0.0
O91 O 0.02591 0.80777 0.17171 0.0
O92 O 0.21219 0.24639 0.24689 0.0
Zn93 Zn 0.20634 0.22163 0.28255 0.0
O94 O 0.19753 0.20007 0.23573 0.0
Zn95 Zn 0.17206 0.1789 0.25439 0.0
Zn96 Zn 0.196 0.20882 0.17005 0.0
Zn97 Zn 0.21575 0.19081 0.23332 0.0
O98 O 0.17226 0.15398 0.2661 0.0
O99 O 0.20361 0.16431 0.26182 0.0
O100 O 0.18693 0.21524 0.33844 0.0
O101 O 0.16491 0.1851 0.31957 0.0
O102 O 0.15106 0.1758 0.20638 0.0
O103 O 0.16876 0.19815 0.15062 0.0
O104 O 0.20744 0.1996 0.1185 0.0
O105 O 0.23128 0.22681 0.31397 0.0
O106 O 0.22269 0.18805 0.16293 0.0
O107 O 0.2392 0.20729 0.27501 0.0
C108 C 0.21287 0.25037 0.20076 0.0
C109 C 0.18644 0.15107 0.27092 0.0
C110 C 0.1525 0.18522 0.16691 0.0
C111 C 0.17142 0.19959 0.34843 0.0
C112 C 0.21768 0.19159 0.1211 0.0
C113 C 0.24285 0.2205 0.30673 0.0
O114 O 0.20797 0.23742 0.16758 0.0
O115 O 0.76386 0.98125 0.23929 0.0
Zn116 Zn 0.78749 -0.00018 0.27917 0.0
O117 O 0.81068 0.01142 0.23763 0.0
Zn118 Zn 0.83058 0.00725 0.26713 0.0
Zn119 Zn 0.80435 -0.00024 0.17262 0.0
Zn120 Zn 0.82031 0.03882 0.22893 0.0
O121 O 0.85551 0.03249 0.2789 0.0
O122 O 0.84628 0.05366 0.2599 0.0
O123 O 0.79094 0.98696 0.34049 0.0
O124 O 0.82181 0.99545 0.3339 0.0
O125 O 0.83413 0.98748 0.22827 0.0
O126 O 0.81425 0.98162 0.16455 0.0
O127 O 0.81595 0.0192 0.11834 0.0
O128 O 0.78236 0.02059 0.3035 0.0
O129 O 0.82437 0.04676 0.15681 0.0
O130 O 0.80352 0.04719 0.26381 0.0
C131 C 0.7616 0.97778 0.19276 0.0
C132 C 0.85886 0.04982 0.27643 0.0
C133 C 0.82602 0.97841 0.18847 0.0
C134 C 0.80603 0.98752 0.35789 0.0
C135 C 0.8229 0.03736 0.1173 0.0
C136 C 0.78942 0.03843 0.29369 0.0
O137 O 0.77591 0.98478 0.16321 0.0
O138 O 0.68481 0.57579 0.01516 0.0
Zn139 Zn 0.66395 0.55043 0.04218 0.0
O140 O 0.67489 0.54086 0.09241 0.0
Zn141 Zn 0.67225 0.51614 0.07183 0.0
Zn142 Zn 0.70183 0.55978 0.10414 0.0
Zn143 Zn 0.66159 0.53729 0.15443 0.0
O144 O 0.65339 0.49368 0.11539 0.0
O145 O 0.64561 0.50965 0.16925 0.0
O146 O 0.65275 0.53169 0.98416 0.0
O147 O 0.66085 0.50974 0.00391 0.0
O148 O 0.69838 0.51801 0.06573 0.0
O149 O 0.71819 0.54919 0.08011 0.0
O150 O 0.70806 0.56521 0.17718 0.0
O151 O 0.6437 0.55568 0.07242 0.0
O152 O 0.67937 0.54837 0.21226 0.0
O153 O 0.64386 0.5478 0.15157 0.0
C154 C 0.70193 0.58781 0.02901 0.0
C155 C 0.64375 0.49399 0.15265 0.0
C156 C 0.71534 0.53262 0.06783 0.0
C157 C 0.65341 0.51647 0.97393 0.0
C158 C 0.69752 0.55912 0.21583 0.0
C159 C 0.63769 0.55411 0.11699 0.0
O160 O 0.70989 0.58412 0.06512 0.0
O161 O 0.44305 0.12793 0.00826 0.0
Zn162 Zn 0.46719 0.13415 0.04511 0.0
O163 O 0.47388 0.15564 0.09033 0.0
Zn164 Zn 0.49906 0.1777 0.07388 0.0
Zn165 Zn 0.45424 0.16308 0.08781 0.0
Zn166 Zn 0.47482 0.14763 0.15717 0.0
O167 O 0.51938 0.18258 0.12588 0.0
O168 O 0.50192 0.15921 0.17951 0.0
O169 O 0.48812 0.14113 0.9935 0.0
O170 O 0.50865 0.17179 0.012 0.0
O171 O 0.4972 0.20147 0.05833 0.0
O172 O 0.46545 0.18917 0.05717 0.0
O173 O 0.44638 0.16653 0.15651 0.0
O174 O 0.46105 0.10973 0.08293 0.0
O175 O 0.46235 0.15699 0.20514 0.0
O176 O 0.46332 0.11916 0.16156 0.0
C177 C 0.43008 0.13257 0.01287 0.0
C178 C 0.518 0.17311 0.16519 0.0
C179 C 0.48244 0.20316 0.04996 0.0
C180 C 0.50347 0.15706 0.98461 0.0
C181 C 0.45153 0.16425 0.19962 0.0
C182 C 0.45938 0.10606 0.12938 0.0
O183 O 0.43165 0.14505 0.04477 0.0
O184 O 0.88691 0.33666 0.01533 0.0
Zn185 Zn 0.88035 0.35583 0.04424 0.0
O186 O 0.85988 0.34325 0.0936 0.0
Zn187 Zn 0.83649 0.34316 0.07179 0.0
Zn188 Zn 0.85475 0.31713 0.10511 0.0
Zn189 Zn 0.86825 0.35686 0.15582 0.0
O190 O 0.82972 0.35937 0.11676 0.0
O191 O 0.85444 0.371 0.16936 0.0
O192 O 0.87198 0.3667 0.98752 0.0
O193 O 0.84117 0.35587 0.00536 0.0
O194 O 0.81431 0.31576 0.06301 0.0
O195 O 0.82846 0.29859 0.0797 0.0
O196 O 0.85416 0.31094 0.17812 0.0
O197 O 0.905 0.37665 0.07635 0.0
O198 O 0.86182 0.33888 0.2132 0.0
O199 O 0.89643 0.37573 0.15525 0.0
C200 C 0.8839 0.32023 0.02974 0.0
C201 C 0.83919 0.37023 0.15304 0.0
C202 C 0.81383 0.29961 0.06573 0.0
C203 C 0.85564 0.3649 0.97684 0.0
C204 C 0.85657 0.3211 0.21672 0.0
C205 C 0.90911 0.38248 0.12118 0.0
O206 O 0.87305 0.31164 0.06677 0.0
O207 O 0.69952 0.13534 0.58157 0.0
Zn208 Zn 0.68193 0.14129 0.62306 0.0
O209 O 0.67111 0.15391 0.58256 0.0
Zn210 Zn 0.67775 0.17901 0.61042 0.0
Zn211 Zn 0.6811 0.15753 0.51599 0.0
Zn212 Zn 0.64341 0.13776 0.57781 0.0
O213 O 0.65398 0.18132 0.62317 0.0
O214 O 0.63102 0.15093 0.61069 0.0
O215 O 0.69542 0.15718 0.68473 0.0
O216 O 0.68947 0.18132 0.6768 0.0
O217 O 0.6983 0.20114 0.56952 0.0
O218 O 0.70078 0.18497 0.50549 0.0
O219 O 0.66079 0.15127 0.46444 0.0
O220 O 0.66048 0.11564 0.64738 0.0
O221 O 0.63389 0.13451 0.50749 0.0
O222 O 0.63388 0.11233 0.61224 0.0
C223 C 0.70161 0.13528 0.53456 0.0
C224 C 0.63631 0.16807 0.62426 0.0
C225 C 0.706 0.20067 0.52853 0.0
C226 C 0.69616 0.17244 0.70152 0.0
C227 C 0.6425 0.14172 0.46665 0.0
C228 C 0.64236 0.10591 0.63973 0.0
O229 O 0.6941 0.14215 0.50519 0.0
O230 O 0.87736 0.58287 0.58382 0.0
Zn231 Zn 0.87085 0.55823 0.62083 0.0
O232 O 0.85908 0.53589 0.57673 0.0
Zn233 Zn 0.83365 0.51643 0.6012 0.0
Zn234 Zn 0.85628 0.54419 0.51182 0.0
Zn235 Zn 0.87566 0.52485 0.56991 0.0
O236 O 0.83208 0.4905 0.6121 0.0
O237 O 0.86283 0.49895 0.60149 0.0
O238 O 0.85412 0.55417 0.68148 0.0
O239 O 0.82998 0.5244 0.66841 0.0
O240 O 0.81181 0.51515 0.55898 0.0
O241 O 0.82909 0.53673 0.50126 0.0
O242 O 0.86291 0.53142 0.4577 0.0
O243 O 0.89606 0.56199 0.64567 0.0
O244 O 0.87859 0.5194 0.49832 0.0
O245 O 0.9012 0.54086 0.60489 0.0
C246 C 0.87768 0.58632 0.53744 0.0
C247 C 0.84568 0.48659 0.61386 0.0
C248 C 0.81294 0.52513 0.52083 0.0
C249 C 0.83852 0.53938 0.69553 0.0
C250 C 0.87189 0.52208 0.45804 0.0
C251 C 0.90663 0.55473 0.63568 0.0
O252 O 0.87124 0.57281 0.50543 0.0
O253 O 0.43222 0.32352 0.58397 0.0
Zn254 Zn 0.45746 0.34184 0.61927 0.0
O255 O 0.47889 0.35432 0.57241 0.0
Zn256 Zn 0.49944 0.34892 0.58933 0.0
Zn257 Zn 0.46951 0.34462 0.50723 0.0
Zn258 Zn 0.48894 0.38193 0.57014 0.0
O259 O 0.52491 0.37365 0.60049 0.0
O260 O 0.51518 0.39523 0.6004 0.0
O261 O 0.46345 0.32824 0.67429 0.0
O262 O 0.49327 0.33551 0.65466 0.0
O263 O 0.50101 0.33033 0.54017 0.0
O264 O 0.4779 0.32627 0.48757 0.0
O265 O 0.48007 0.3651 0.45567 0.0
O266 O 0.45344 0.36219 0.65148 0.0
O267 O 0.49306 0.39205 0.49968 0.0
O268 O 0.47237 0.38932 0.61026 0.0
C269 C 0.42804 0.32184 0.53779 0.0
C270 C 0.52818 0.39079 0.60767 0.0
C271 C 0.49056 0.32225 0.5021 0.0
C272 C 0.47886 0.32786 0.6838 0.0
C273 C 0.48921 0.38338 0.45796 0.0
C274 C 0.45958 0.38 0.64316 0.0
O275 O 0.441 0.3304 0.50501 0.0
O276 O 0.35036 0.90554 0.33927 0.0
Zn277 Zn 0.33029 0.87993 0.36776 0.0
O278 O 0.3417 0.87178 0.42003 0.0
Zn279 Zn 0.34012 0.84726 0.40315 0.0
Zn280 Zn 0.36836 0.89156 0.43001 0.0
Zn281 Zn 0.32846 0.86885 0.48193 0.0
O282 O 0.32305 0.82565 0.45093 0.0
O283 O 0.31316 0.84133 0.49985 0.0
O284 O 0.31946 0.86011 0.31202 0.0
O285 O 0.32759 0.83866 0.33679 0.0
O286 O 0.36674 0.85049 0.3956 0.0
O287 O 0.38545 0.88222 0.4034 0.0
O288 O 0.37511 0.89696 0.50263 0.0
O289 O 0.30943 0.88447 0.39636 0.0
O290 O 0.34662 0.88065 0.5391 0.0
O291 O 0.31033 0.87897 0.47706 0.0
C292 C 0.36682 0.91855 0.35488 0.0
C293 C 0.31277 0.82592 0.48665 0.0
C294 C 0.38328 0.8657 0.39358 0.0
C295 C 0.31996 0.8446 0.30505 0.0
C296 C 0.36483 0.89119 0.54175 0.0
C297 C 0.30364 0.88401 0.44076 0.0
O298 O 0.37482 0.91571 0.39235 0.0
O299 O 0.10446 0.46472 0.34533 0.0
Zn300 Zn 0.12932 0.46858 0.3735 0.0
O301 O 0.13914 0.48896 0.42362 0.0
Zn302 Zn 0.16395 0.51079 0.40244 0.0
Zn303 Zn 0.12026 0.49708 0.43496 0.0
Zn304 Zn 0.14267 0.47903 0.48565 0.0
O305 O 0.18612 0.5146 0.44726 0.0
O306 O 0.17039 0.4906 0.5008 0.0
O307 O 0.14792 0.47556 0.31616 0.0
O308 O 0.17064 0.50541 0.33504 0.0
O309 O 0.16216 0.53507 0.3952 0.0
O310 O 0.13121 0.52417 0.41147 0.0
O311 O 0.11469 0.49767 0.50781 0.0
O312 O 0.12348 0.44301 0.40353 0.0
O313 O 0.13169 0.48603 0.54329 0.0
O314 O 0.13152 0.45055 0.48279 0.0
C315 C 0.09246 0.46988 0.35859 0.0
C316 C 0.18595 0.50462 0.48435 0.0
C317 C 0.14774 0.53768 0.39824 0.0
C318 C 0.16348 0.49104 0.30563 0.0
C319 C 0.12086 0.49335 0.54658 0.0
C320 C 0.12486 0.4382 0.44785 0.0
O321 O 0.0959 0.48124 0.39521 0.0
O322 O 0.55173 0.6637 0.34074 0.0
Zn323 Zn 0.5483 0.68482 0.3707 0.0
O324 O 0.5265 0.67348 0.41687 0.0
Zn325 Zn 0.50618 0.67876 0.39609 0.0
Zn326 Zn 0.51641 0.64598 0.4229 0.0
Zn327 Zn 0.5351 0.68422 0.48179 0.0
O328 O 0.50435 0.6983 0.44117 0.0
O329 O 0.52732 0.7035 0.49528 0.0
O330 O 0.54325 0.69853 0.31366 0.0
O331 O 0.51323 0.69149 0.32991 0.0
O332 O 0.48065 0.65398 0.38609 0.0
O333 O 0.48993 0.6322 0.39467 0.0
O334 O 0.51246 0.63712 0.4942 0.0
O335 O 0.57345 0.70257 0.40731 0.0
O336 O 0.52342 0.66451 0.53566 0.0
O337 O 0.56358 0.69828 0.48592 0.0
C338 C 0.54513 0.64593 0.35083 0.0
C339 C 0.5149 0.70742 0.47826 0.0
C340 C 0.47711 0.63658 0.38421 0.0
C341 C 0.52803 0.69901 0.30207 0.0
C342 C 0.51501 0.6462 0.5349 0.0
C343 C 0.57698 0.70552 0.45375 0.0
O344 O 0.53232 0.6374 0.38419 0.0
O345 O 0.35912 0.46788 0.92245 0.0
Zn346 Zn 0.34001 0.47379 0.95626 0.0
O347 O 0.32871 0.48367 0.90849 0.0
Zn348 Zn 0.33324 0.5091 0.92892 0.0
Zn349 Zn 0.34007 0.48588 0.84398 0.0
Zn350 Zn 0.30129 0.46561 0.90221 0.0
O351 O 0.30803 0.50874 0.93973 0.0
O352 O 0.28683 0.47748 0.93161 0.0
O353 O 0.3525 0.49235 0.01376 0.0
O354 O 0.34626 0.51567 0.99487 0.0
O355 O 0.35157 0.53053 0.8823 0.0
O356 O 0.35736 0.51332 0.82751 0.0
O357 O 0.32044 0.47599 0.7895 0.0
O358 O 0.31936 0.44872 0.98477 0.0
O359 O 0.29285 0.46107 0.83062 0.0
O360 O 0.29324 0.44074 0.93929 0.0
C361 C 0.36333 0.4678 0.87678 0.0
C362 C 0.29082 0.49457 0.9423 0.0
C363 C 0.3603 0.52943 0.84399 0.0
C364 C 0.35327 0.50827 0.02406 0.0
C365 C 0.30212 0.46664 0.78989 0.0
C366 C 0.3019 0.43689 0.97331 0.0
O367 O 0.35621 0.47342 0.8428 0.0
O368 O 0.54344 0.91542 0.90989 0.0
Zn369 Zn 0.5389 0.89128 0.94646 0.0
O370 O 0.52747 0.86867 0.90267 0.0
Zn371 Zn 0.50352 0.84804 0.93088 0.0
Zn372 Zn 0.52198 0.876 0.8393 0.0
Zn373 Zn 0.54536 0.85938 0.89129 0.0
O374 O 0.50426 0.82322 0.93968 0.0
O375 O 0.53485 0.83325 0.92124 0.0
O376 O 0.52281 0.88656 0.00896 0.0
O377 O 0.50077 0.85565 -0.00078 0.0
O378 O 0.47989 0.84451 0.8932 0.0
O379 O 0.49394 0.86589 0.83237 0.0
O380 O 0.52964 0.86521 0.78274 0.0
O381 O 0.56508 0.89656 0.96858 0.0
O382 O 0.5486 0.8559 0.8183 0.0
O383 O 0.57073 0.87625 0.92528 0.0
C384 C 0.54222 0.91841 0.86382 0.0
C385 C 0.51848 0.82027 0.93707 0.0
C386 C 0.47895 0.85342 0.85502 0.0
C387 C 0.50858 0.87096 0.02523 0.0
C388 C 0.54061 0.85803 0.77975 0.0
C389 C 0.57605 0.88996 0.95651 0.0
O390 O 0.53515 0.90459 0.83271 0.0
O391 O 0.0957 0.65015 0.915 0.0
Zn392 Zn 0.1201 0.66785 0.95412 0.0
O393 O 0.14257 0.67931 0.91092 0.0
Zn394 Zn 0.16165 0.67246 0.93209 0.0
Zn395 Zn 0.13441 0.66988 0.84506 0.0
Zn396 Zn 0.15396 0.70698 0.9081 0.0
O397 O 0.1879 0.69637 0.94318 0.0
O398 O 0.17942 0.71892 0.94223 0.0
O399 O 0.12416 0.65434 0.01293 0.0
O400 O 0.15393 0.66024 -0.00124 0.0
O401 O 0.16165 0.65178 0.88748 0.0
O402 O 0.13963 0.64866 0.8325 0.0
O403 O 0.14886 0.69002 0.79369 0.0
O404 O 0.11635 0.68897 0.9822 0.0
O405 O 0.16071 0.71691 0.8379 0.0
O406 O 0.13747 0.71584 0.94324 0.0
C407 C 0.09245 0.6496 0.86838 0.0
C408 C 0.19181 0.71373 0.95049 0.0
C409 C 0.1508 0.6432 0.85032 0.0
C410 C 0.139 0.65346 0.02606 0.0
C411 C 0.15859 0.70831 0.79657 0.0
C412 C 0.12359 0.70693 0.97372 0.0
O413 O 0.10612 0.65848 0.83746 0.0
C414 C 0.05439 0.17585 0.67053 0.0
C415 C 0.059 0.19375 0.69131 0.0
C416 C 0.06804 0.174 0.64235 0.0
C417 C 0.11989 0.19944 0.60457 0.0
H418 H 0.09878 0.17416 0.47859 0.0
C419 C 0.16521 0.2137 0.42513 0.0
C420 C 0.16047 0.19775 0.39436 0.0
C421 C 0.15404 0.21168 0.46714 0.0
C422 C 0.10491 0.18103 0.51385 0.0
H423 H 0.08206 0.22328 0.70237 0.0
H424 H 0.10552 0.22014 0.65273 0.0
H425 H 0.07714 0.17225 0.54415 0.0
H426 H 0.14083 0.16699 0.38507 0.0
H427 H 0.12164 0.16356 0.45792 0.0
H428 H 0.14777 0.20878 0.57307 0.0
C429 C 0.0915 0.20748 0.65825 0.0
C430 C 0.09248 0.17984 0.55161 0.0
C431 C 0.07792 0.20932 0.68642 0.0
C432 C 0.14476 0.17968 0.40741 0.0
C433 C 0.1337 0.17767 0.44921 0.0
C434 C 0.13236 0.20069 0.56658 0.0
C435 C 0.08652 0.19 0.63442 0.0
C436 C 0.0998 0.18925 0.59719 0.0
C437 C 0.13798 0.19368 0.47906 0.0
C438 C 0.12498 0.19168 0.52063 0.0
H439 H 0.04 0.16353 0.67396 0.0
H440 H 0.06389 0.16022 0.62524 0.0
H441 H 0.12598 0.20668 0.63946 0.0
H442 H 0.17726 0.22779 0.41621 0.0
H443 H 0.1576 0.22431 0.48935 0.0
C444 C 0.78842 0.9686 0.43407 0.0
C445 C 0.80555 0.97864 0.40655 0.0
C446 C 0.78823 0.95964 0.47895 0.0
C447 C 0.82066 0.95748 0.57515 0.0
H448 H 0.77959 0.90454 0.59053 0.0
C449 C 0.82832 0.89951 0.68289 0.0
C450 C 0.81213 0.88507 0.70795 0.0
C451 C 0.82704 0.91378 0.65607 0.0
C452 C 0.79099 0.91943 0.58744 0.0
H453 H 0.83602 0.98756 0.40548 0.0
H454 H 0.83555 0.97176 0.4824 0.0
H455 H 0.77765 0.92421 0.52445 0.0
H456 H 0.78235 0.87528 0.72783 0.0
H457 H 0.78023 0.90018 0.68119 0.0
H458 H 0.8344 0.9523 0.63684 0.0
C459 C 0.82232 0.97102 0.47008 0.0
C460 C 0.78985 0.93073 0.54955 0.0
C461 C 0.82252 0.97992 0.4255 0.0
C462 C 0.79506 0.88602 0.70842 0.0
C463 C 0.79378 0.90025 0.68158 0.0
C464 C 0.82185 0.94613 0.61288 0.0
C465 C 0.80517 0.9606 0.49716 0.0
C466 C 0.80493 0.94971 0.5421 0.0
C467 C 0.80956 0.91389 0.65381 0.0
C468 C 0.80724 0.92684 0.61863 0.0
H469 H 0.77513 0.96743 0.42067 0.0
H470 H 0.7748 0.95183 0.49918 0.0
H471 H 0.83235 0.97219 0.571 0.0
H472 H 0.84169 0.89923 0.68184 0.0
H473 H 0.83943 0.92405 0.63479 0.0
C474 C 0.12018 0.93312 0.71473 0.0
C475 C 0.12637 0.95266 0.70588 0.0
C476 C 0.10467 0.91872 0.68839 0.0
C477 C 0.06532 0.90846 0.59913 0.0
H478 H 0.08191 0.87524 0.53839 0.0
C479 C 0.03662 0.87188 0.4108 0.0
C480 C 0.0341 0.85345 0.40192 0.0
C481 C 0.04482 0.8816 0.45499 0.0
C482 C 0.07678 0.88405 0.55566 0.0
H483 H 0.12013 0.97244 0.66616 0.0
H484 H 0.09308 0.94722 0.61942 0.0
H485 H 0.10051 0.89642 0.60609 0.0
H486 H 0.03799 0.83065 0.4331 0.0
H487 H 0.05228 0.84766 0.51083 0.0
H488 H 0.04183 0.89637 0.54755 0.0
C489 C 0.10014 0.94302 0.647 0.0
C490 C 0.08746 0.89623 0.59458 0.0
C491 C 0.11563 0.95748 0.67374 0.0
C492 C 0.03987 0.84489 0.4386 0.0
C493 C 0.04805 0.85464 0.4831 0.0
C494 C 0.05456 0.89618 0.56028 0.0
C495 C 0.09514 0.92357 0.65236 0.0
C496 C 0.08211 0.90888 0.61602 0.0
C497 C 0.05066 0.87314 0.4917 0.0
C498 C 0.06046 0.8842 0.53725 0.0
H499 H 0.12805 0.929 0.73992 0.0
H500 H 0.10085 0.90383 0.69419 0.0
H501 H 0.06074 0.91789 0.61529 0.0
H502 H 0.03241 0.87898 0.38336 0.0
H503 H 0.047 0.89599 0.45981 0.0
C504 C 0.1837 0.06594 0.82184 0.0
C505 C 0.19262 0.05607 0.84137 0.0
C506 C 0.18764 0.08368 0.8422 0.0
C507 C 0.2249 0.12395 0.91635 0.0
H508 H 0.18427 0.13429 0.95377 0.0
C509 C 0.23086 0.17305 0.07763 0.0
C510 C 0.22082 0.18323 0.07542 0.0
C511 C 0.22997 0.16136 0.03806 0.0
C512 C 0.19585 0.13186 0.94252 0.0
H513 H 0.2118 0.05655 0.89923 0.0
H514 H 0.21838 0.08703 0.9345 0.0
H515 H 0.17636 0.1054 0.9057 0.0
H516 H 0.20344 0.19053 0.02794 0.0
H517 H 0.20194 0.1701 0.959 0.0
H518 H 0.24427 0.14994 0.95489 0.0
C519 C 0.2088 0.08145 0.90277 0.0
C520 C 0.19129 0.11528 0.91509 0.0
C521 C 0.20486 0.06386 0.88272 0.0
C522 C 0.21124 0.18276 0.0311 0.0
C523 C 0.21025 0.17096 0.99166 0.0
C524 C 0.22945 0.14048 0.94376 0.0
C525 C 0.20061 0.09178 0.88214 0.0
C526 C 0.20568 0.11082 0.90336 0.0
C527 C 0.21899 0.15958 0.99553 0.0
C528 C 0.21488 0.14426 0.95859 0.0
H529 H 0.17424 0.06032 0.78992 0.0
H530 H 0.18102 0.09132 0.82582 0.0
H531 H 0.23636 0.12108 0.90682 0.0
H532 H 0.23845 0.17315 0.11105 0.0
H533 H 0.2368 0.1527 0.0423 0.0
C534 C 0.83299 0.03804 0.02892 0.0
C535 C 0.83185 0.04794 0.07084 0.0
C536 C 0.84472 0.0482 0.98874 0.0
C537 C 0.87401 0.09731 0.93517 0.0
H538 H 0.91016 0.08009 0.9023 0.0
C539 C 0.95123 0.14975 0.88566 0.0
C540 C 0.95847 0.14728 0.84041 0.0
C541 C 0.93384 0.13523 0.90438 0.0
C542 C 0.89994 0.08484 0.91029 0.0
H543 H 0.84088 0.07626 0.10153 0.0
H544 H 0.86136 0.0939 0.03188 0.0
H545 H 0.88117 0.05903 0.95014 0.0
H546 H 0.95377 0.12704 0.78109 0.0
H547 H 0.92319 0.10115 0.81515 0.0
H548 H 0.89347 0.1236 0.89811 0.0
C549 C 0.85317 0.07831 0.02982 0.0
C550 C 0.88332 0.07281 0.93751 0.0
C551 C 0.84149 0.06818 0.06999 0.0
C552 C 0.94855 0.12935 0.81604 0.0
C553 C 0.93105 0.11462 0.83524 0.0
C554 C 0.89064 0.10933 0.90836 0.0
C555 C 0.85545 0.06843 0.98955 0.0
C556 C 0.87059 0.07926 0.95192 0.0
C557 C 0.9233 0.1178 0.87864 0.0
C558 C 0.90409 0.10349 0.89743 0.0
H559 H 0.82562 0.02243 0.02814 0.0
H560 H 0.84596 0.04021 0.95789 0.0
H561 H 0.86429 0.10252 0.94481 0.0
H562 H 0.95863 0.16326 0.90584 0.0
H563 H 0.92836 0.1378 0.93861 0.0
C564 C 0.8898 0.84802 0.81511 0.0
C565 C 0.87424 0.84609 0.84346 0.0
C566 C 0.90504 0.84718 0.83832 0.0
C567 C 0.92546 0.84686 0.96272 0.0
H568 H 0.93405 0.80723 0.90591 0.0
C569 C 0.94226 0.79927 0.083 0.0
C570 C 0.96142 0.80335 0.07836 0.0
C571 C 0.93399 0.80508 0.04619 0.0
C572 C 0.93194 0.81848 0.92173 0.0
H573 H 0.86292 0.84334 0.91782 0.0
H574 H 0.88936 0.84221 0.95826 0.0
H575 H 0.91739 0.82036 0.85699 0.0
H576 H 0.98604 0.81463 0.02862 0.0
H577 H 0.97119 0.82434 0.96368 0.0
H578 H 0.93885 0.84401 0.02853 0.0
C579 C 0.89007 0.84438 0.91843 0.0
C580 C 0.9226 0.82613 0.89374 0.0
C581 C 0.87486 0.84498 0.89531 0.0
C582 C 0.9713 0.81138 0.03355 0.0
C583 C 0.96288 0.81699 0.99639 0.0
C584 C 0.93452 0.83905 0.99074 0.0
C585 C 0.90495 0.84467 0.89012 0.0
C586 C 0.91865 0.83991 0.91467 0.0
C587 C 0.94455 0.8147 0.00372 0.0
C588 C 0.93727 0.8244 0.97102 0.0
H589 H 0.88944 0.84864 0.77494 0.0
H590 H 0.91639 0.84759 0.81563 0.0
H591 H 0.92297 0.8577 0.97956 0.0
H592 H 0.93416 0.79302 0.11676 0.0
H593 H 0.91971 0.80303 0.05217 0.0
C594 C 0.85962 0.84501 0.58477 0.0
C595 C 0.84426 0.82669 0.59771 0.0
C596 C 0.87093 0.84737 0.54319 0.0
C597 C 0.87334 0.8248 0.42611 0.0
H598 H 0.92846 0.8539 0.44997 0.0
C599 C 0.92853 0.81719 0.30695 0.0
C600 C 0.94735 0.83294 0.30201 0.0
C601 C 0.91486 0.81874 0.33547 0.0
C602 C 0.91315 0.84612 0.44212 0.0
H603 H 0.82832 0.79661 0.57577 0.0
H604 H 0.84831 0.80074 0.50297 0.0
H605 H 0.9064 0.85167 0.5148 0.0
H606 H 0.96608 0.86314 0.32004 0.0
H607 H 0.94202 0.86596 0.36931 0.0
H608 H 0.88015 0.81899 0.35357 0.0
C609 C 0.85144 0.81327 0.52512 0.0
C610 C 0.90048 0.84476 0.47946 0.0
C611 C 0.84007 0.81088 0.56695 0.0
C612 C 0.95177 0.85069 0.32343 0.0
C613 C 0.93803 0.85226 0.35194 0.0
C614 C 0.88605 0.82626 0.38855 0.0
C615 C 0.86719 0.8315 0.5134 0.0
C616 C 0.88045 0.83385 0.47217 0.0
C617 C 0.91962 0.83611 0.35959 0.0
C618 C 0.9061 0.83665 0.39647 0.0
H619 H 0.86317 0.85759 0.60719 0.0
H620 H 0.88276 0.86163 0.53464 0.0
H621 H 0.85797 0.81652 0.41925 0.0
H622 H 0.92454 0.80332 0.29063 0.0
H623 H 0.90092 0.80596 0.34081 0.0
C624 C 0.17393 0.03653 0.58245 0.0
C625 C 0.19188 0.038 0.59201 0.0
C626 C 0.17133 0.04543 0.54109 0.0
C627 C 0.19191 0.0675 0.41943 0.0
H628 H 0.16524 0.09588 0.44433 0.0
C629 C 0.19903 0.12942 0.29623 0.0
C630 C 0.18348 0.13285 0.29295 0.0
C631 C 0.19765 0.11433 0.32517 0.0
C632 C 0.17234 0.08769 0.43629 0.0
H633 H 0.22106 0.04959 0.56462 0.0
H634 H 0.21658 0.06553 0.49242 0.0
H635 H 0.16816 0.0769 0.51046 0.0
H636 H 0.15369 0.12205 0.31403 0.0
H637 H 0.15118 0.09548 0.36417 0.0
H638 H 0.19647 0.07877 0.34538 0.0
C639 C 0.20447 0.05725 0.5169 0.0
C640 C 0.17408 0.07685 0.47435 0.0
C641 C 0.20708 0.04824 0.55842 0.0
C642 C 0.16599 0.1199 0.31608 0.0
C643 C 0.1646 0.10477 0.3451 0.0
C644 C 0.19013 0.07835 0.38121 0.0
C645 C 0.18662 0.05613 0.50822 0.0
C646 C 0.18408 0.06682 0.46658 0.0
C647 C 0.18066 0.10228 0.35144 0.0
C648 C 0.18054 0.08878 0.38945 0.0
H649 H 0.16179 0.02855 0.60709 0.0
H650 H 0.1573 0.044 0.53497 0.0
H651 H 0.19945 0.05969 0.41214 0.0
H652 H 0.21268 0.139 0.27849 0.0
H653 H 0.21032 0.11291 0.32938 0.0
C654 C 0.88808 0.06217 0.3311 0.0
C655 C 0.87672 0.06582 0.29798 0.0
C656 C 0.90265 0.07724 0.35868 0.0
C657 C 0.91293 0.12348 0.41089 0.0
H658 H 0.96131 0.12756 0.45076 0.0
C659 C 0.96254 0.17893 0.55799 0.0
C660 C 0.97018 0.17174 0.59359 0.0
C661 C 0.95344 0.16817 0.51533 0.0
C662 C 0.9478 0.12656 0.4401 0.0
H663 H 0.8729 0.08836 0.26444 0.0
H664 H 0.89831 0.11452 0.31219 0.0
H665 H 0.94187 0.10458 0.38617 0.0
H666 H 0.97417 0.14754 0.61214 0.0
H667 H 0.95808 0.12882 0.53901 0.0
H668 H 0.91839 0.14484 0.466 0.0
C669 C 0.8957 0.1 0.31769 0.0
C670 C 0.93672 0.11343 0.40307 0.0
C671 C 0.88119 0.085 0.29023 0.0
C672 C 0.96855 0.15363 0.58549 0.0
C673 C 0.95946 0.14291 0.54317 0.0
C674 C 0.92395 0.13652 0.44808 0.0
C675 C 0.9061 0.0962 0.35351 0.0
C676 C 0.919 0.11151 0.38871 0.0
C677 C 0.95179 0.15001 0.50753 0.0
C678 C 0.94131 0.13792 0.46388 0.0
H679 H 0.88501 0.04757 0.33792 0.0
H680 H 0.91039 0.07385 0.38616 0.0
H681 H 0.8992 0.12215 0.40114 0.0
H682 H 0.96365 0.19287 0.56295 0.0
H683 H 0.94778 0.1741 0.48837 0.0
C684 C 0.82268 0.94627 0.20334 0.0
C685 C 0.82822 0.96218 0.17186 0.0
C686 C 0.81941 0.92869 0.18381 0.0
C687 C 0.82881 0.90474 0.08339 0.0
H688 H 0.774 0.86762 0.07761 0.0
C689 C 0.77948 0.84549 0.93611 0.0
C690 C 0.78928 0.8351 0.9318 0.0
C691 C 0.78247 0.85721 0.97756 0.0
C692 C 0.78934 0.87772 0.07968 0.0
H693 H 0.83586 0.97279 0.09661 0.0
H694 H 0.83122 0.94235 0.06298 0.0
H695 H 0.78573 0.89673 0.12897 0.0
H696 H 0.80826 0.82727 0.97029 0.0
H697 H 0.81368 0.84801 0.04171 0.0
H698 H 0.83246 0.88612 0.0331 0.0
C699 C 0.82915 0.94339 0.1024 0.0
C700 C 0.79605 0.89424 0.10913 0.0
C701 C 0.83187 0.96075 0.12157 0.0
C702 C 0.80062 0.83523 0.97198 0.0
C703 C 0.8038 0.84713 0.01295 0.0
C704 C 0.82218 0.88804 0.05488 0.0
C705 C 0.8222 0.92706 0.13297 0.0
C706 C 0.81576 0.90809 0.11005 0.0
C707 C 0.79541 0.85883 0.01505 0.0
C708 C 0.80234 0.87466 0.05171 0.0
H709 H 0.81941 0.947 0.24206 0.0
H710 H 0.81396 0.91619 0.20784 0.0
H711 H 0.84404 0.91537 0.08327 0.0
H712 H 0.77057 0.84565 0.90603 0.0
H713 H 0.77585 0.86615 0.97839 0.0
C714 C 0.17812 0.9737 0.95243 0.0
C715 C 0.17578 0.96383 0.90729 0.0
C716 C 0.1644 0.96531 0.99024 0.0
C717 C 0.11396 0.93736 0.99656 0.0
H718 H 0.11597 0.92205 0.13207 0.0
C719 C 0.04774 0.88113 0.09795 0.0
C720 C 0.04617 0.88181 0.14968 0.0
C721 C 0.06399 0.89515 0.07339 0.0
C722 C 0.1153 0.92673 0.09474 0.0
H723 H 0.1584 0.93661 0.86895 0.0
H724 H 0.13447 0.92222 0.93466 0.0
H725 H 0.1455 0.93751 0.08184 0.0
H726 H 0.05976 0.89818 0.21629 0.0
H727 H 0.08852 0.92305 0.17295 0.0
H728 H 0.08395 0.92662 0.00857 0.0
C729 C 0.14684 0.93645 0.94043 0.0
C730 C 0.13213 0.93538 0.06602 0.0
C731 C 0.16062 0.94469 0.90296 0.0
C732 C 0.06061 0.8975 0.17624 0.0
C733 C 0.07711 0.91155 0.15156 0.0
C734 C 0.09728 0.92902 0.02527 0.0
C735 C 0.14819 0.94704 0.98322 0.0
C736 C 0.13135 0.94007 0.01623 0.0
C737 C 0.07916 0.91018 0.10002 0.0
C738 C 0.09757 0.9229 0.07403 0.0
H739 H 0.18972 0.98842 0.95713 0.0
H740 H 0.16568 0.97366 0.02315 0.0
H741 H 0.11319 0.94126 0.95842 0.0
H742 H 0.0368 0.86912 0.07671 0.0
H743 H 0.06515 0.89347 0.03384 0.0
C744 C 0.03843 0.21884 0.95357 0.0
C745 C 0.04763 0.22713 0.90821 0.0
C746 C 0.0478 0.21394 0.9897 0.0
C747 C 0.07896 0.19467 0.98932 0.0
H748 H 0.09168 0.20865 0.12773 0.0
C749 C 0.13653 0.18628 0.08934 0.0
C750 C 0.13527 0.18262 0.14055 0.0
C751 C 0.12229 0.18824 0.06506 0.0
C752 C 0.08777 0.20423 0.08947 0.0
H753 H 0.07468 0.23888 0.86798 0.0
H754 H 0.09081 0.2301 0.93077 0.0
H755 H 0.07489 0.22203 0.08025 0.0
H756 H 0.11763 0.17701 0.20622 0.0
H757 H 0.09239 0.18038 0.16332 0.0
H758 H 0.09168 0.17693 0.99778 0.0
C759 C 0.07631 0.22726 0.93796 0.0
C760 C 0.07837 0.21204 0.06234 0.0
C761 C 0.06707 0.23235 0.90216 0.0
C762 C 0.11883 0.17969 0.16657 0.0
C763 C 0.10455 0.18184 0.14219 0.0
C764 C 0.08805 0.18668 0.01642 0.0
C765 C 0.06642 0.2172 0.98076 0.0
C766 C 0.07454 0.2078 0.01166 0.0
C767 C 0.10644 0.18667 0.09142 0.0
C768 C 0.09322 0.19192 0.06627 0.0
H769 H 0.02351 0.21478 0.95962 0.0
H770 H 0.03998 0.20626 0.02268 0.0
H771 H 0.07571 0.19088 0.95046 0.0
H772 H 0.14906 0.1886 0.06843 0.0
H773 H 0.12438 0.19219 0.02613 0.0
C774 C 0.81301 0.52247 0.75965 0.0
C775 C 0.83 0.5391 0.74455 0.0
C776 C 0.8046 0.52187 0.80533 0.0
C777 C 0.80093 0.55338 0.89719 0.0
H778 H 0.77345 0.50562 0.97161 0.0
C779 C 0.7508 0.54688 0.05546 0.0
C780 C 0.732 0.53114 0.04984 0.0
C781 C 0.76618 0.54744 0.02979 0.0
C782 C 0.78113 0.51907 0.95135 0.0
H783 H 0.85172 0.56803 0.76638 0.0
H784 H 0.83691 0.56697 0.84671 0.0
H785 H 0.79479 0.50811 0.90372 0.0
H786 H 0.71494 0.50288 0.01637 0.0
H787 H 0.74178 0.50393 0.9712 0.0
H788 H 0.78681 0.56415 0.94353 0.0
C789 C 0.83009 0.55445 0.8227 0.0
C790 C 0.79331 0.52051 0.91246 0.0
C791 C 0.83856 0.55505 0.77675 0.0
C792 C 0.72922 0.51524 0.02139 0.0
C793 C 0.74464 0.51582 0.99561 0.0
C794 C 0.78883 0.55197 0.93618 0.0
C795 C 0.81294 0.53786 0.83733 0.0
C796 C 0.80283 0.53746 0.88388 0.0
C797 C 0.76311 0.53228 0.99796 0.0
C798 C 0.77834 0.53462 0.96268 0.0
H799 H 0.80598 0.50987 0.73595 0.0
H800 H 0.79119 0.50902 0.81487 0.0
H801 H 0.80787 0.56656 0.87565 0.0
H802 H 0.75351 0.55925 0.07774 0.0
H803 H 0.78033 0.56014 0.03309 0.0
C804 C 0.46843 0.22299 0.01939 0.0
C805 C 0.48471 0.221 0.0272 0.0
C806 C 0.46977 0.23817 0.99098 0.0
C807 C 0.49835 0.26868 0.88821 0.0
H808 H 0.4672 0.29284 0.90649 0.0
C809 C 0.49853 0.3212 0.74388 0.0
C810 C 0.48047 0.31856 0.72964 0.0
C811 C 0.50031 0.312 0.78575 0.0
C812 C 0.4759 0.28613 0.90084 0.0
H813 H 0.51549 0.23429 0.01454 0.0
H814 H 0.51786 0.26098 0.96522 0.0
H815 H 0.46899 0.27288 0.97276 0.0
H816 H 0.4502 0.30464 0.74929 0.0
H817 H 0.45326 0.28815 0.82229 0.0
H818 H 0.50488 0.2814 0.81604 0.0
C819 C 0.50398 0.25052 0.98037 0.0
C820 C 0.47698 0.27477 0.93879 0.0
C821 C 0.50264 0.2353 0.00886 0.0
C822 C 0.46429 0.30691 0.75919 0.0
C823 C 0.46607 0.29758 0.80115 0.0
C824 C 0.49728 0.28001 0.85042 0.0
C825 C 0.48742 0.25175 0.96978 0.0
C826 C 0.48802 0.26571 0.93257 0.0
C827 C 0.48408 0.29981 0.81437 0.0
C828 C 0.48587 0.28868 0.85603 0.0
H829 H 0.45441 0.21234 0.03336 0.0
H830 H 0.45671 0.23859 0.9833 0.0
H831 H 0.50664 0.26159 0.88171 0.0
H832 H 0.51138 0.33032 0.72249 0.0
H833 H 0.51444 0.31432 0.79549 0.0
C834 C 0.79633 0.26404 0.05042 0.0
C835 C 0.79675 0.2818 0.04754 0.0
C836 C 0.78207 0.24781 0.02583 0.0
C837 C 0.7355 0.22767 0.95912 0.0
H838 H 0.75809 0.20594 0.87133 0.0
C839 C 0.70324 0.19576 0.7706 0.0
C840 C 0.70468 0.18028 0.75085 0.0
C841 C 0.71165 0.20392 0.81601 0.0
C842 C 0.75139 0.21143 0.89635 0.0
H843 H 0.7816 0.29599 0.01977 0.0
H844 H 0.75671 0.26764 0.97666 0.0
H845 H 0.77759 0.22809 0.93679 0.0
H846 H 0.71565 0.16082 0.76437 0.0
H847 H 0.73055 0.17525 0.84437 0.0
H848 H 0.70946 0.21149 0.91753 0.0
C849 C 0.76743 0.26629 0.99807 0.0
C850 C 0.76258 0.22418 0.93387 0.0
C851 C 0.78175 0.28257 0.02259 0.0
C852 C 0.71438 0.1728 0.77842 0.0
C853 C 0.72291 0.18107 0.82414 0.0
C854 C 0.72426 0.21483 0.92179 0.0
C855 C 0.76785 0.24894 0.99802 0.0
C856 C 0.75495 0.23293 0.96452 0.0
C857 C 0.72176 0.19685 0.84316 0.0
C858 C 0.73231 0.20715 0.88878 0.0
H859 H 0.80752 0.26282 0.06987 0.0
H860 H 0.78257 0.23454 0.02708 0.0
H861 H 0.72915 0.23396 0.98274 0.0
H862 H 0.6958 0.20187 0.75066 0.0
H863 H 0.71079 0.21628 0.82894 0.0
C864 C 0.86241 0.51252 0.36919 0.0
C865 C 0.87095 0.51087 0.41334 0.0
C866 C 0.85678 0.49855 0.33187 0.0
C867 C 0.836 0.44817 0.32428 0.0
H868 H 0.85545 0.45113 0.19086 0.0
C869 C 0.83444 0.38474 0.22851 0.0
C870 C 0.83332 0.38299 0.17667 0.0
C871 C 0.83395 0.40001 0.25166 0.0
C872 C 0.84944 0.45016 0.22748 0.0
H873 H 0.88189 0.49422 0.45063 0.0
H874 H 0.87183 0.46985 0.3858 0.0
H875 H 0.86731 0.48062 0.24051 0.0
H876 H 0.82967 0.39498 0.1082 0.0
H877 H 0.82889 0.42206 0.14896 0.0
H878 H 0.81849 0.41783 0.31235 0.0
C879 C 0.86945 0.48191 0.38042 0.0
C880 C 0.85637 0.467 0.25588 0.0
C881 C 0.87529 0.49594 0.41736 0.0
C882 C 0.83033 0.39598 0.14836 0.0
C883 C 0.8301 0.41154 0.1716 0.0
C884 C 0.82892 0.43145 0.29586 0.0
C885 C 0.85951 0.48273 0.33845 0.0
C886 C 0.85023 0.46592 0.3051 0.0
C887 C 0.83255 0.41402 0.22339 0.0
C888 C 0.8362 0.43212 0.24798 0.0
H889 H 0.85896 0.5239 0.3648 0.0
H890 H 0.84919 0.49942 0.29955 0.0
H891 H 0.83089 0.44715 0.36204 0.0
H892 H 0.83687 0.37492 0.25097 0.0
H893 H 0.83612 0.40157 0.29149 0.0
C894 C 0.49598 0.38459 0.36691 0.0
C895 C 0.49854 0.39437 0.41223 0.0
C896 C 0.50841 0.39371 0.32704 0.0
C897 C 0.54797 0.44101 0.28225 0.0
H898 H 0.57039 0.41087 0.23399 0.0
C899 C 0.62562 0.47615 0.22676 0.0
C900 C 0.62856 0.47616 0.17538 0.0
C901 C 0.60799 0.46298 0.24757 0.0
C902 C 0.56401 0.41928 0.24646 0.0
H903 H 0.51491 0.42199 0.44934 0.0
H904 H 0.53654 0.43783 0.38015 0.0
H905 H 0.5407 0.39522 0.28316 0.0
H906 H 0.6162 0.46138 0.10603 0.0
H907 H 0.58506 0.43785 0.14313 0.0
H908 H 0.57201 0.46528 0.24827 0.0
C909 C 0.52497 0.42311 0.37525 0.0
C910 C 0.54701 0.41039 0.27437 0.0
C911 C 0.51256 0.414 0.41511 0.0
C912 C 0.6143 0.46146 0.14585 0.0
C913 C 0.59651 0.44817 0.16688 0.0
C914 C 0.56497 0.44987 0.25479 0.0
C915 C 0.52356 0.41281 0.33158 0.0
C916 C 0.53918 0.42132 0.294 0.0
C917 C 0.59302 0.44956 0.21739 0.0
C918 C 0.57341 0.4392 0.23811 0.0
H919 H 0.48516 0.3695 0.36317 0.0
H920 H 0.50671 0.38553 0.29351 0.0
H921 H 0.54213 0.44974 0.29605 0.0
H922 H 0.63641 0.48736 0.25022 0.0
H923 H 0.60558 0.46411 0.28674 0.0
C924 C 0.61143 0.13592 0.43005 0.0
C925 C 0.63116 0.14239 0.42402 0.0
C926 C 0.60175 0.14113 0.39594 0.0
C927 C 0.6 0.15819 0.27303 0.0
H928 H 0.57782 0.18522 0.34115 0.0
C929 C 0.55311 0.18338 0.16987 0.0
C930 C 0.5353 0.17696 0.19354 0.0
C931 C 0.56827 0.18316 0.19532 0.0
C932 C 0.58394 0.17774 0.32153 0.0
H933 H 0.65563 0.15761 0.37448 0.0
H934 H 0.63839 0.16632 0.31417 0.0
H935 H 0.59639 0.17403 0.38793 0.0
H936 H 0.51977 0.1667 0.26299 0.0
H937 H 0.54594 0.16636 0.30708 0.0
H938 H 0.58664 0.16099 0.20699 0.0
C939 C 0.63066 0.15753 0.34592 0.0
C940 C 0.59452 0.17132 0.34831 0.0
C941 C 0.64046 0.1525 0.38042 0.0
C942 C 0.53333 0.17165 0.24378 0.0
C943 C 0.54841 0.17158 0.26915 0.0
C944 C 0.58915 0.16442 0.24617 0.0
C945 C 0.6115 0.15264 0.35479 0.0
C946 C 0.60213 0.161 0.32459 0.0
C947 C 0.56586 0.17679 0.2449 0.0
C948 C 0.58049 0.17371 0.27056 0.0
H949 H 0.60374 0.12798 0.46289 0.0
H950 H 0.58684 0.13693 0.40296 0.0
H951 H 0.60589 0.15036 0.25406 0.0
H952 H 0.55496 0.18747 0.13104 0.0
H953 H 0.58163 0.18741 0.17586 0.0
C954 C 0.50869 0.1451 0.9031 0.0
C955 C 0.51558 0.15894 0.9412 0.0
C956 C 0.52014 0.14749 0.86152 0.0
C957 C 0.56389 0.18426 0.7944 0.0
H958 H 0.56515 0.13944 0.74529 0.0
C959 C 0.62643 0.18624 0.68167 0.0
C960 C 0.62153 0.17174 0.64592 0.0
C961 C 0.61201 0.18668 0.70996 0.0
C962 C 0.56473 0.15206 0.75794 0.0
H963 H 0.53996 0.18604 0.96579 0.0
H964 H 0.56 0.18984 0.89445 0.0
H965 H 0.54262 0.13557 0.81061 0.0
H966 H 0.59775 0.1477 0.60789 0.0
H967 H 0.57271 0.14864 0.65675 0.0
H968 H 0.58668 0.20081 0.74279 0.0
C969 C 0.5456 0.17743 0.89575 0.0
C970 C 0.55178 0.14983 0.7954 0.0
C971 C 0.53414 0.17513 0.93697 0.0
C972 C 0.60198 0.15884 0.63585 0.0
C973 C 0.58763 0.15932 0.66388 0.0
C974 C 0.57699 0.18651 0.75711 0.0
C975 C 0.53875 0.16369 0.85744 0.0
C976 C 0.55138 0.16593 0.8146 0.0
C977 C 0.59253 0.17267 0.70268 0.0
C978 C 0.57766 0.17044 0.7389 0.0
H979 H 0.49438 0.13257 0.90506 0.0
H980 H 0.51434 0.13672 0.8324 0.0
H981 H 0.56371 0.19693 0.80775 0.0
H982 H 0.64139 0.19636 0.6902 0.0
H983 H 0.61619 0.19713 0.73971 0.0
C984 C 0.83644 0.37482 0.92385 0.0
C985 C 0.85328 0.37376 0.93104 0.0
C986 C 0.83428 0.38374 0.8818 0.0
C987 C 0.86321 0.41965 0.7865 0.0
H988 H 0.8132 0.40301 0.72677 0.0
C989 C 0.85607 0.46236 0.62719 0.0
C990 C 0.84238 0.46816 0.6352 0.0
C991 C 0.8556 0.44746 0.65502 0.0
C992 C 0.82724 0.40778 0.7431 0.0
H993 H 0.88077 0.38067 0.89868 0.0
H994 H 0.87684 0.39594 0.82459 0.0
H995 H 0.81641 0.38326 0.79122 0.0
H996 H 0.81649 0.4618 0.67568 0.0
H997 H 0.81571 0.4357 0.72477 0.0
H998 H 0.87401 0.44423 0.73895 0.0
C999 C 0.86547 0.39022 0.85212 0.0
C1000 C 0.8291 0.39654 0.7801 0.0
C1001 C 0.86771 0.38142 0.89451 0.0
C1002 C 0.82723 0.45766 0.66871 0.0
C1003 C 0.82679 0.44271 0.69678 0.0
C1004 C 0.86138 0.43076 0.74934 0.0
C1005 C 0.84883 0.39171 0.84557 0.0
C1006 C 0.84706 0.40252 0.80285 0.0
C1007 C 0.84145 0.43804 0.69158 0.0
C1008 C 0.84335 0.4251 0.7277 0.0
H1009 H 0.82503 0.36912 0.95128 0.0
H1010 H 0.82143 0.38491 0.87855 0.0
H1011 H 0.87718 0.42493 0.80374 0.0
H1012 H 0.86775 0.46996 0.60101 0.0
H1013 H 0.86683 0.44388 0.64945 0.0
C1014 C 0.64751 0.4902 0.91415 0.0
C1015 C 0.64509 0.5059 0.92694 0.0
C1016 C 0.63875 0.47925 0.87186 0.0
C1017 C 0.61474 0.47815 0.75357 0.0
H1018 H 0.5872 0.42289 0.7758 0.0
C1019 C 0.55053 0.42463 0.63507 0.0
C1020 C 0.54672 0.40558 0.62952 0.0
C1021 C 0.56621 0.43794 0.66311 0.0
C1022 C 0.59516 0.43823 0.76839 0.0
H1023 H 0.63213 0.52282 0.90401 0.0
H1024 H 0.61653 0.50343 0.83014 0.0
H1025 H 0.60741 0.44438 0.84119 0.0
H1026 H 0.55736 0.38603 0.64579 0.0
H1027 H 0.585 0.40943 0.69432 0.0
H1028 H 0.60206 0.47194 0.68099 0.0
C1029 C 0.62541 0.49977 0.85285 0.0
C1030 C 0.6067 0.45059 0.80604 0.0
C1031 C 0.63424 0.5108 0.89531 0.0
C1032 C 0.55979 0.40054 0.64966 0.0
C1033 C 0.57555 0.41391 0.67775 0.0
C1034 C 0.60323 0.46576 0.71571 0.0
C1035 C 0.62729 0.48365 0.84125 0.0
C1036 C 0.61635 0.47069 0.79942 0.0
C1037 C 0.57854 0.43257 0.68619 0.0
C1038 C 0.59299 0.44566 0.72308 0.0
H1039 H 0.65599 0.48614 0.93723 0.0
H1040 H 0.64074 0.46713 0.86346 0.0
H1041 H 0.62224 0.49357 0.74714 0.0
H1042 H 0.54087 0.42909 0.6197 0.0
H1043 H 0.56795 0.4521 0.66907 0.0
C1044 C 0.44287 0.18782 0.23422 0.0
C1045 C 0.44892 0.17433 0.24244 0.0
C1046 C 0.44669 0.20207 0.26946 0.0
C1047 C 0.46154 0.2202 0.39522 0.0
H1048 H 0.49396 0.26893 0.3285 0.0
C1049 C 0.49514 0.29345 0.49926 0.0
C1050 C 0.49187 0.30703 0.4747 0.0
C1051 C 0.49217 0.27681 0.47423 0.0
C1052 C 0.48489 0.25548 0.34773 0.0
H1053 H 0.46113 0.16349 0.29711 0.0
H1054 H 0.46748 0.18831 0.35893 0.0
H1055 H 0.48028 0.23899 0.28154 0.0
H1056 H 0.48428 0.31466 0.40435 0.0
H1057 H 0.47918 0.28602 0.36109 0.0
H1058 H 0.46554 0.23684 0.46114 0.0
C1059 C 0.46015 0.18802 0.32481 0.0
C1060 C 0.47702 0.23837 0.32079 0.0
C1061 C 0.4565 0.17383 0.28934 0.0
C1062 C 0.48687 0.30439 0.4242 0.0
C1063 C 0.48405 0.28798 0.39931 0.0
C1064 C 0.46922 0.23745 0.42223 0.0
C1065 C 0.45632 0.20287 0.31376 0.0
C1066 C 0.46493 0.22064 0.34397 0.0
C1067 C 0.48615 0.27373 0.42425 0.0
C1068 C 0.48061 0.25531 0.39839 0.0
H1069 H 0.43681 0.18854 0.19883 0.0
H1070 H 0.44332 0.21326 0.26062 0.0
H1071 H 0.45242 0.20662 0.41387 0.0
H1072 H 0.49886 0.29511 0.53835 0.0
H1073 H 0.49408 0.26615 0.49425 0.0
C1074 C 0.84499 0.29219 0.27186 0.0
C1075 C 0.84956 0.3114 0.26524 0.0
C1076 C 0.83374 0.28151 0.31222 0.0
C1077 C 0.79575 0.25904 0.36327 0.0
H1078 H 0.78883 0.27933 0.48751 0.0
C1079 C 0.7229 0.22142 0.45665 0.0
C1080 C 0.72237 0.21816 0.5079 0.0
C1081 C 0.74006 0.23465 0.43374 0.0
C1082 C 0.79067 0.2734 0.45317 0.0
H1083 H 0.84767 0.33509 0.2986 0.0
H1084 H 0.82748 0.31638 0.36719 0.0
H1085 H 0.8186 0.29793 0.44017 0.0
H1086 H 0.73887 0.22682 0.57616 0.0
H1087 H 0.76926 0.24983 0.53579 0.0
H1088 H 0.76816 0.23443 0.37635 0.0
C1089 C 0.83275 0.30949 0.3421 0.0
C1090 C 0.80767 0.2841 0.42584 0.0
C1091 C 0.84431 0.32026 0.30237 0.0
C1092 C 0.73896 0.22932 0.53657 0.0
C1093 C 0.75633 0.2424 0.51342 0.0
C1094 C 0.77896 0.24835 0.39066 0.0
C1095 C 0.82646 0.28971 0.34607 0.0
C1096 C 0.8102 0.27725 0.37984 0.0
C1097 C 0.7572 0.24454 0.46141 0.0
C1098 C 0.77591 0.25563 0.4351 0.0
H1099 H 0.84912 0.28506 0.24435 0.0
H1100 H 0.82978 0.26649 0.3151 0.0
H1101 H 0.79689 0.25329 0.32785 0.0
H1102 H 0.71023 0.21298 0.4339 0.0
H1103 H 0.74007 0.23645 0.39385 0.0
C1104 C 0.79695 0.53264 0.45266 0.0
C1105 C 0.7958 0.52511 0.50052 0.0
C1106 C 0.78303 0.53682 0.43609 0.0
C1107 C 0.76196 0.55977 0.43913 0.0
H1108 H 0.71089 0.52217 0.39322 0.0
C1109 C 0.72682 0.57118 0.26955 0.0
C1110 C 0.70666 0.56158 0.26519 0.0
C1111 C 0.73543 0.56936 0.31273 0.0
C1112 C 0.72487 0.53295 0.40713 0.0
H1113 H 0.77834 0.51469 0.56714 0.0
H1114 H 0.75338 0.52166 0.53694 0.0
H1115 H 0.72948 0.5116 0.44295 0.0
H1116 H 0.67977 0.54424 0.30492 0.0
H1117 H 0.69489 0.54117 0.38029 0.0
H1118 H 0.75795 0.58101 0.40139 0.0
C1119 C 0.76541 0.52454 0.51308 0.0
C1120 C 0.73547 0.52684 0.4355 0.0
C1121 C 0.77955 0.52044 0.53006 0.0
C1122 C 0.69536 0.55166 0.30676 0.0
C1123 C 0.70399 0.5498 0.34992 0.0
C1124 C 0.75137 0.56589 0.41113 0.0
C1125 C 0.76752 0.53341 0.46669 0.0
C1126 C 0.7544 0.54011 0.44965 0.0
C1127 C 0.72408 0.55793 0.35252 0.0
C1128 C 0.7331 0.55242 0.3927 0.0
H1129 H 0.80912 0.53615 0.42868 0.0
H1130 H 0.78469 0.54331 0.39976 0.0
H1131 H 0.77657 0.57022 0.44995 0.0
H1132 H 0.73596 0.57902 0.23843 0.0
H1133 H 0.75096 0.57574 0.31329 0.0
C1134 C 0.3982 0.84687 0.36061 0.0
C1135 C 0.39998 0.86464 0.37405 0.0
C1136 C 0.41294 0.8463 0.33429 0.0
C1137 C 0.46329 0.87669 0.28663 0.0
H1138 H 0.44267 0.84229 0.17356 0.0
C1139 C 0.50353 0.88698 0.0996 0.0
C1140 C 0.50042 0.87019 0.07496 0.0
C1141 C 0.49385 0.88561 0.14407 0.0
C1142 C 0.44875 0.85177 0.20532 0.0
H1143 H 0.41931 0.89567 0.37391 0.0
H1144 H 0.44457 0.89468 0.32701 0.0
H1145 H 0.42115 0.84041 0.23914 0.0
H1146 H 0.48602 0.83894 0.07964 0.0
H1147 H 0.46943 0.83665 0.15688 0.0
H1148 H 0.49086 0.88857 0.25096 0.0
C1149 C 0.43199 0.88115 0.33717 0.0
C1150 C 0.4364 0.85062 0.24318 0.0
C1151 C 0.41736 0.88171 0.36383 0.0
C1152 C 0.48842 0.85216 0.09711 0.0
C1153 C 0.4789 0.85081 0.14141 0.0
C1154 C 0.47569 0.87791 0.24841 0.0
C1155 C 0.42966 0.86349 0.32049 0.0
C1156 C 0.44343 0.86323 0.28399 0.0
C1157 C 0.48101 0.86745 0.16458 0.0
C1158 C 0.46847 0.86559 0.20712 0.0
H1159 H 0.38512 0.83344 0.3685 0.0
H1160 H 0.41089 0.83242 0.32302 0.0
H1161 H 0.46921 0.88648 0.31782 0.0
H1162 H 0.51276 0.90107 0.0835 0.0
H1163 H 0.49569 0.89869 0.16107 0.0
C1164 C 0.13384 0.55924 0.38686 0.0
C1165 C 0.14932 0.55587 0.38017 0.0
C1166 C 0.13322 0.57402 0.36106 0.0
C1167 C 0.16105 0.61664 0.27994 0.0
H1168 H 0.1128 0.59582 0.20762 0.0
C1169 C 0.156 0.64412 0.08816 0.0
C1170 C 0.13946 0.64491 0.07446 0.0
C1171 C 0.1569 0.63634 0.13364 0.0
C1172 C 0.12621 0.60209 0.2282 0.0
H1173 H 0.17712 0.5665 0.34469 0.0
H1174 H 0.17596 0.59222 0.2993 0.0
H1175 H 0.1157 0.57754 0.27583 0.0
H1176 H 0.11097 0.63834 0.0984 0.0
H1177 H 0.11256 0.62462 0.17836 0.0
H1178 H 0.17174 0.6409 0.231 0.0
C1179 C 0.16432 0.58346 0.32463 0.0
C1180 C 0.12789 0.5916 0.26738 0.0
C1181 C 0.16496 0.56866 0.35054 0.0
C1182 C 0.12386 0.63784 0.10769 0.0
C1183 C 0.12478 0.62999 0.15345 0.0
C1184 C 0.15935 0.62717 0.24085 0.0
C1185 C 0.14806 0.58575 0.32804 0.0
C1186 C 0.1455 0.59849 0.29266 0.0
C1187 C 0.14132 0.62914 0.16682 0.0
C1188 C 0.1421 0.61969 0.21349 0.0
H1189 H 0.12168 0.54983 0.41007 0.0
H1190 H 0.12069 0.5757 0.36518 0.0
H1191 H 0.17471 0.62244 0.29923 0.0
H1192 H 0.16831 0.6494 0.06359 0.0
H1193 H 0.16968 0.63552 0.14221 0.0
C1194 C 0.36897 0.51046 0.10665 0.0
C1195 C 0.36232 0.51855 0.07084 0.0
C1196 C 0.37766 0.52053 0.1504 0.0
C1197 C 0.38478 0.56229 0.22754 0.0
H1198 H 0.43241 0.56427 0.26538 0.0
C1199 C 0.44699 0.62529 0.33388 0.0
C1200 C 0.45841 0.62109 0.36529 0.0
C1201 C 0.43153 0.61046 0.30798 0.0
C1202 C 0.41893 0.5636 0.25608 0.0
H1203 H 0.35938 0.54345 0.05335 0.0
H1204 H 0.37485 0.56102 0.12851 0.0
H1205 H 0.41256 0.54223 0.20043 0.0
H1206 H 0.4614 0.59799 0.39834 0.0
H1207 H 0.43435 0.57222 0.35375 0.0
H1208 H 0.39174 0.58437 0.28196 0.0
C1209 C 0.37302 0.54678 0.12354 0.0
C1210 C 0.40753 0.55093 0.21878 0.0
C1211 C 0.36431 0.53674 0.08007 0.0
C1212 C 0.45308 0.60172 0.37365 0.0
C1213 C 0.43762 0.58695 0.34804 0.0
C1214 C 0.39627 0.57506 0.26476 0.0
C1215 C 0.37991 0.53888 0.15911 0.0
C1216 C 0.39055 0.55043 0.20325 0.0
C1217 C 0.42722 0.59123 0.31334 0.0
C1218 C 0.41365 0.57611 0.2787 0.0
H1219 H 0.36752 0.49641 0.10087 0.0
H1220 H 0.38267 0.51397 0.17731 0.0
H1221 H 0.37159 0.56199 0.21702 0.0
H1222 H 0.45076 0.64009 0.32675 0.0
H1223 H 0.42381 0.61422 0.28134 0.0
C1224 C 0.55285 0.84042 0.72828 0.0
C1225 C 0.54185 0.84958 0.73197 0.0
C1226 C 0.55106 0.82918 0.68684 0.0
C1227 C 0.51446 0.79882 0.59688 0.0
H1228 H 0.55546 0.79049 0.55015 0.0
C1229 C 0.50601 0.73353 0.4752 0.0
C1230 C 0.51443 0.72412 0.50015 0.0
C1231 C 0.5087 0.75118 0.49309 0.0
C1232 C 0.5439 0.79285 0.56227 0.0
H1233 H 0.52154 0.85541 0.69305 0.0
H1234 H 0.5185 0.83577 0.62068 0.0
H1235 H 0.56345 0.81945 0.59794 0.0
H1236 H 0.53106 0.72516 0.56517 0.0
H1237 H 0.53577 0.75568 0.59546 0.0
H1238 H 0.49492 0.77165 0.56285 0.0
C1239 C 0.52828 0.8371 0.65021 0.0
C1240 C 0.54846 0.80934 0.58976 0.0
C1241 C 0.53012 0.84842 0.69162 0.0
C1242 C 0.52461 0.73212 0.54451 0.0
C1243 C 0.52742 0.74967 0.56185 0.0
C1244 C 0.50991 0.78233 0.56902 0.0
C1245 C 0.53825 0.82685 0.64817 0.0
C1246 C 0.53376 0.81205 0.60935 0.0
C1247 C 0.51998 0.75961 0.53566 0.0
C1248 C 0.52458 0.77885 0.55354 0.0
H1249 H 0.56207 0.84106 0.75855 0.0
H1250 H 0.55883 0.82134 0.68669 0.0
H1251 H 0.50279 0.80044 0.6117 0.0
H1252 H 0.4981 0.72771 0.44094 0.0
H1253 H 0.50266 0.75859 0.47272 0.0
C1254 C 0.28671 0.79125 0.48866 0.0
C1255 C 0.29958 0.80826 0.5138 0.0
C1256 C 0.27121 0.77626 0.51426 0.0
C1257 C 0.25179 0.75939 0.6415 0.0
H1258 H 0.20201 0.74412 0.58217 0.0
C1259 C 0.18605 0.73821 0.76096 0.0
C1260 C 0.17073 0.71931 0.75382 0.0
C1261 C 0.20064 0.74685 0.72559 0.0
C1262 C 0.21583 0.74811 0.59883 0.0
H1263 H 0.30741 0.82254 0.5853 0.0
H1264 H 0.28082 0.7966 0.62983 0.0
H1265 H 0.23136 0.76136 0.53199 0.0
H1266 H 0.15769 0.69547 0.70152 0.0
H1267 H 0.18312 0.71096 0.63905 0.0
H1268 H 0.23639 0.74719 0.70899 0.0
C1269 C 0.28244 0.79458 0.59071 0.0
C1270 C 0.23259 0.7578 0.57013 0.0
C1271 C 0.29766 0.80951 0.5652 0.0
C1272 C 0.16936 0.71001 0.70831 0.0
C1273 C 0.18389 0.71881 0.67257 0.0
C1274 C 0.23514 0.74999 0.67017 0.0
C1275 C 0.26865 0.77806 0.56533 0.0
C1276 C 0.2508 0.76413 0.59174 0.0
C1277 C 0.20004 0.73692 0.68209 0.0
C1278 C 0.21712 0.74484 0.64952 0.0
H1279 H 0.28785 0.79009 0.44885 0.0
H1280 H 0.26085 0.76363 0.49385 0.0
H1281 H 0.26556 0.76374 0.65893 0.0
H1282 H 0.18756 0.74586 0.79537 0.0
H1283 H 0.21286 0.761 0.73323 0.0
C1284 C 0.20394 0.50608 0.56021 0.0
C1285 C 0.20393 0.50831 0.50857 0.0
C1286 C 0.21885 0.50495 0.58335 0.0
C1287 C 0.25208 0.48765 0.55833 0.0
H1288 H 0.2679 0.50506 0.69363 0.0
C1289 C 0.30192 0.47503 0.70018 0.0
C1290 C 0.29166 0.46623 0.74405 0.0
C1291 C 0.29331 0.4801 0.66229 0.0
C1292 C 0.26369 0.50024 0.6557 0.0
H1293 H 0.21987 0.51214 0.4406 0.0
H1294 H 0.24627 0.51006 0.48139 0.0
H1295 H 0.25161 0.51847 0.64521 0.0
H1296 H 0.26365 0.45383 0.77971 0.0
H1297 H 0.24886 0.46289 0.71383 0.0
H1298 H 0.26402 0.46913 0.56987 0.0
C1299 C 0.23466 0.50921 0.50383 0.0
C1300 C 0.25441 0.50788 0.62801 0.0
C1301 C 0.21973 0.51062 0.48062 0.0
C1302 C 0.27205 0.46072 0.74675 0.0
C1303 C 0.26356 0.46595 0.70917 0.0
C1304 C 0.26162 0.48013 0.58605 0.0
C1305 C 0.23406 0.50583 0.5553 0.0
C1306 C 0.24779 0.50112 0.57974 0.0
C1307 C 0.2744 0.47642 0.66788 0.0
C1308 C 0.26682 0.48591 0.63547 0.0
H1309 H 0.19184 0.50419 0.58246 0.0
H1310 H 0.21777 0.5021 0.6229 0.0
H1311 H 0.24702 0.48205 0.52136 0.0
H1312 H 0.31702 0.47937 0.69671 0.0
H1313 H 0.30186 0.48816 0.63057 0.0
C1314 C 0.16581 0.47748 0.22348 0.0
C1315 C 0.17368 0.49247 0.25862 0.0
C1316 C 0.17591 0.47873 0.18001 0.0
C1317 C 0.21727 0.51294 0.10149 0.0
H1318 H 0.21979 0.46719 0.06809 0.0
C1319 C 0.27954 0.51343 0.99236 0.0
C1320 C 0.27527 0.49738 0.96255 0.0
C1321 C 0.26493 0.51407 0.01916 0.0
C1322 C 0.21896 0.48001 0.07613 0.0
H1323 H 0.19814 0.52075 0.27496 0.0
H1324 H 0.21582 0.52269 0.20002 0.0
H1325 H 0.19807 0.46556 0.13308 0.0
H1326 H 0.25214 0.47036 0.93351 0.0
H1327 H 0.22671 0.47166 0.97955 0.0
H1328 H 0.23881 0.52752 0.04555 0.0
C1329 C 0.20173 0.51012 0.20547 0.0
C1330 C 0.20648 0.47907 0.11347 0.0
C1331 C 0.19163 0.50891 0.24876 0.0
C1332 C 0.25595 0.48278 0.95687 0.0
C1333 C 0.24137 0.48348 0.98336 0.0
C1334 C 0.22984 0.5139 0.06414 0.0
C1335 C 0.1941 0.49497 0.17084 0.0
C1336 C 0.20574 0.49559 0.12726 0.0
C1337 C 0.2458 0.49873 0.01634 0.0
C1338 C 0.23103 0.4975 0.05166 0.0
H1339 H 0.15194 0.4647 0.2297 0.0
H1340 H 0.16953 0.46691 0.15374 0.0
H1341 H 0.21681 0.52586 0.11074 0.0
H1342 H 0.29429 0.52491 0.99745 0.0
H1343 H 0.26882 0.52599 0.04442 0.0
C1344 C 0.51046 0.70942 0.24468 0.0
C1345 C 0.52714 0.70847 0.25557 0.0
C1346 C 0.5093 0.71845 0.20167 0.0
C1347 C 0.53963 0.75518 0.11048 0.0
H1348 H 0.49084 0.73655 0.04191 0.0
C1349 C 0.53226 0.79879 0.95229 0.0
C1350 C 0.51694 0.80247 0.95816 0.0
C1351 C 0.53281 0.78427 0.97961 0.0
C1352 C 0.50455 0.7419 0.06066 0.0
H1353 H 0.55561 0.71603 0.22897 0.0
H1354 H 0.55353 0.73181 0.15318 0.0
H1355 H 0.4938 0.71686 0.10676 0.0
H1356 H 0.48946 0.79276 0.99457 0.0
H1357 H 0.49046 0.76739 0.04247 0.0
H1358 H 0.55026 0.78038 0.06517 0.0
C1359 C 0.54141 0.72566 0.17851 0.0
C1360 C 0.50626 0.73067 0.09785 0.0
C1361 C 0.54259 0.7166 0.22185 0.0
C1362 C 0.50147 0.79033 0.9892 0.0
C1363 C 0.50203 0.77576 0.01659 0.0
C1364 C 0.53794 0.76635 0.07313 0.0
C1365 C 0.52475 0.72675 0.16809 0.0
C1366 C 0.52369 0.7374 0.12407 0.0
C1367 C 0.51805 0.77306 0.01337 0.0
C1368 C 0.52028 0.76003 0.04857 0.0
H1369 H 0.49825 0.70337 0.26973 0.0
H1370 H 0.49642 0.71936 0.19547 0.0
H1371 H 0.55317 0.76092 0.13029 0.0
H1372 H 0.54431 0.8077 0.92819 0.0
H1373 H 0.54515 0.78227 0.97562 0.0
C1374 C 0.31256 0.81612 0.25183 0.0
C1375 C 0.31118 0.83275 0.26 0.0
C1376 C 0.3034 0.80412 0.21133 0.0
C1377 C 0.28058 0.80119 0.08988 0.0
H1378 H 0.25012 0.74674 0.12146 0.0
C1379 C 0.21547 0.74757 0.97469 0.0
C1380 C 0.21048 0.72806 0.97267 0.0
C1381 C 0.23134 0.76082 0.00223 0.0
C1382 C 0.25888 0.7618 0.11153 0.0
H1383 H 0.29965 0.85015 0.23074 0.0
H1384 H 0.28343 0.829 0.16 0.0
H1385 H 0.27087 0.7693 0.18453 0.0
H1386 H 0.2191 0.70747 0.9951 0.0
H1387 H 0.24709 0.73077 0.04298 0.0
H1388 H 0.26822 0.79369 0.01707 0.0
C1389 C 0.29177 0.82539 0.18495 0.0
C1390 C 0.27073 0.77477 0.14783 0.0
C1391 C 0.30095 0.83744 0.22564 0.0
C1392 C 0.2225 0.72236 0.99615 0.0
C1393 C 0.23844 0.73568 0.02385 0.0
C1394 C 0.26877 0.78818 0.05342 0.0
C1395 C 0.29264 0.80843 0.1779 0.0
C1396 C 0.28141 0.79464 0.13773 0.0
C1397 C 0.24268 0.75494 0.02841 0.0
C1398 C 0.25745 0.76838 0.06418 0.0
H1399 H 0.32049 0.81213 0.27717 0.0
H1400 H 0.30459 0.79133 0.20648 0.0
H1401 H 0.28889 0.81638 0.0808 0.0
H1402 H 0.20664 0.75252 0.95665 0.0
H1403 H 0.23403 0.77545 0.0052 0.0
C1404 C 0.15759 0.61559 0.85335 0.0
C1405 C 0.14935 0.6254 0.82948 0.0
C1406 C 0.15361 0.59739 0.83626 0.0
C1407 C 0.1164 0.55579 0.7684 0.0
H1408 H 0.15651 0.54637 0.72049 0.0
C1409 C 0.10746 0.5094 0.59999 0.0
C1410 C 0.11827 0.50006 0.59571 0.0
C1411 C 0.10881 0.51987 0.64271 0.0
C1412 C 0.14508 0.54847 0.73491 0.0
H1413 H 0.13138 0.62419 0.7674 0.0
H1414 H 0.1245 0.5928 0.73848 0.0
H1415 H 0.1652 0.57527 0.76949 0.0
H1416 H 0.13745 0.49277 0.6351 0.0
H1417 H 0.13973 0.51106 0.70966 0.0
H1418 H 0.09632 0.52958 0.73194 0.0
C1419 C 0.1337 0.59894 0.77074 0.0
C1420 C 0.1501 0.56505 0.76287 0.0
C1421 C 0.1378 0.61703 0.78722 0.0
C1422 C 0.12905 0.49994 0.63693 0.0
C1423 C 0.13047 0.51052 0.6796 0.0
C1424 C 0.11137 0.53921 0.74074 0.0
C1425 C 0.14118 0.58875 0.79564 0.0
C1426 C 0.13585 0.56927 0.77772 0.0
C1427 C 0.121 0.52124 0.68207 0.0
C1428 C 0.12572 0.53585 0.72164 0.0
H1429 H 0.16653 0.62166 0.886 0.0
H1430 H 0.15972 0.58983 0.85563 0.0
H1431 H 0.10513 0.55864 0.78015 0.0
H1432 H 0.09892 0.50969 0.56913 0.0
H1433 H 0.10139 0.52806 0.64321 0.0
C1434 C 0.38846 0.56318 0.84477 0.0
C1435 C 0.37491 0.54687 0.81828 0.0
C1436 C 0.4047 0.57778 0.82043 0.0
C1437 C 0.42498 0.5956 0.69453 0.0
H1438 H 0.47416 0.60844 0.75381 0.0
C1439 C 0.49038 0.61578 0.57575 0.0
C1440 C 0.50449 0.63538 0.57981 0.0
C1441 C 0.47649 0.60691 0.61272 0.0
C1442 C 0.46051 0.60509 0.73724 0.0
H1443 H 0.36687 0.53354 0.74561 0.0
H1444 H 0.39477 0.55879 0.70336 0.0
H1445 H 0.44448 0.59116 0.80304 0.0
H1446 H 0.51645 0.66031 0.62872 0.0
H1447 H 0.49222 0.64446 0.69389 0.0
H1448 H 0.44084 0.60848 0.62801 0.0
C1449 C 0.39309 0.56054 0.74261 0.0
C1450 C 0.44358 0.5954 0.76537 0.0
C1451 C 0.37711 0.54599 0.76685 0.0
C1452 C 0.50568 0.64524 0.62424 0.0
C1453 C 0.49186 0.63623 0.66156 0.0
C1454 C 0.44178 0.605 0.66644 0.0
C1455 C 0.40737 0.57634 0.76925 0.0
C1456 C 0.42557 0.59 0.74368 0.0
C1457 C 0.47666 0.61733 0.65476 0.0
C1458 C 0.45956 0.6093 0.6871 0.0
H1459 H 0.38712 0.56407 0.88459 0.0
H1460 H 0.41543 0.58986 0.8418 0.0
H1461 H 0.4114 0.592 0.67709 0.0
H1462 H 0.48907 0.60769 0.54229 0.0
H1463 H 0.46492 0.59222 0.60712 0.0
C1464 C 0.3643 0.88012 0.62876 0.0
C1465 C 0.37441 0.89318 0.5902 0.0
C1466 C 0.37425 0.87768 0.66813 0.0
C1467 C 0.42158 0.88211 0.6849 0.0
H1468 H 0.40232 0.86159 0.8162 0.0
C1469 C 0.45483 0.84467 0.78856 0.0
C1470 C 0.46048 0.8508 0.83751 0.0
C1471 C 0.44149 0.84831 0.76493 0.0
C1472 C 0.4079 0.86737 0.7797 0.0
H1473 H 0.40254 0.91586 0.56642 0.0
H1474 H 0.41984 0.91223 0.63623 0.0
H1475 H 0.38623 0.87514 0.7668 0.0
H1476 H 0.45603 0.86442 0.9015 0.0
H1477 H 0.43284 0.87118 0.85991 0.0
H1478 H 0.44336 0.87476 0.69759 0.0
C1479 C 0.4043 0.90321 0.63488 0.0
C1480 C 0.39866 0.87507 0.75135 0.0
C1481 C 0.39438 0.90544 0.59507 0.0
C1482 C 0.45151 0.85924 0.86394 0.0
C1483 C 0.43834 0.86319 0.84001 0.0
C1484 C 0.43077 0.87452 0.71311 0.0
C1485 C 0.39448 0.88846 0.67007 0.0
C1486 C 0.40531 0.88237 0.70333 0.0
C1487 C 0.434 0.85865 0.78943 0.0
C1488 C 0.42387 0.86673 0.76045 0.0
H1489 H 0.34887 0.8705 0.62636 0.0
H1490 H 0.36617 0.86622 0.69453 0.0
H1491 H 0.42694 0.88721 0.64782 0.0
H1492 H 0.46176 0.83831 0.76746 0.0
H1493 H 0.43802 0.84414 0.72636 0.0
C1494 C 0.06137 0.28692 0.66315 0.0
C1495 C 0.04308 0.27193 0.64899 0.0
C1496 C 0.07101 0.30355 0.63417 0.0
C1497 C 0.06211 0.33133 0.53852 0.0
H1498 H 0.11786 0.35874 0.52823 0.0
C1499 C 0.10383 0.40287 0.4308 0.0
C1500 C 0.11791 0.41781 0.46011 0.0
C1501 C 0.09569 0.38367 0.44619 0.0
C1502 C 0.10227 0.35116 0.53064 0.0
H1503 H 0.02077 0.26245 0.59261 0.0
H1504 H 0.03776 0.29122 0.54159 0.0
H1505 H 0.10134 0.32758 0.57037 0.0
H1506 H 0.13537 0.42434 0.52672 0.0
H1507 H 0.12136 0.39092 0.5531 0.0
H1508 H 0.06312 0.35503 0.49912 0.0
C1509 C 0.04448 0.29036 0.57567 0.0
C1510 C 0.09281 0.3334 0.55504 0.0
C1511 C 0.03475 0.27383 0.6049 0.0
C1512 C 0.12443 0.41315 0.50356 0.0
C1513 C 0.11653 0.394 0.51849 0.0
C1514 C 0.07156 0.34898 0.5137 0.0
C1515 C 0.06268 0.30549 0.59009 0.0
C1516 C 0.07264 0.32348 0.56026 0.0
C1517 C 0.10177 0.37913 0.49061 0.0
C1518 C 0.09175 0.35925 0.51049 0.0
H1519 H 0.06815 0.28593 0.69698 0.0
H1520 H 0.08485 0.31505 0.64691 0.0
H1521 H 0.04659 0.32424 0.54237 0.0
H1522 H 0.09852 0.40605 0.39716 0.0
H1523 H 0.08439 0.37242 0.42396 0.0
C1524 C 0.74037 0.77909 0.62598 0.0
C1525 C 0.74237 0.78885 0.67102 0.0
C1526 C 0.72302 0.77084 0.59964 0.0
C1527 C 0.67139 0.75162 0.61692 0.0
H1528 H 0.67018 0.75885 0.47468 0.0
C1529 C 0.59999 0.72696 0.51789 0.0
C1530 C 0.5969 0.71751 0.47202 0.0
C1531 C 0.61831 0.73666 0.53888 0.0
C1532 C 0.6703 0.75651 0.51427 0.0
H1533 H 0.72768 0.79761 0.72357 0.0
H1534 H 0.69733 0.78301 0.67774 0.0
H1535 H 0.70112 0.77361 0.5184 0.0
H1536 H 0.61068 0.71146 0.411 0.0
H1537 H 0.64292 0.72814 0.44847 0.0
H1538 H 0.64077 0.7343 0.61316 0.0
C1539 C 0.70922 0.78175 0.66297 0.0
C1540 C 0.68799 0.76499 0.53928 0.0
C1541 C 0.72662 0.79016 0.68911 0.0
C1542 C 0.6127 0.71865 0.44641 0.0
C1543 C 0.63112 0.72822 0.46785 0.0
C1544 C 0.65378 0.74305 0.59198 0.0
C1545 C 0.70725 0.77201 0.618 0.0
C1546 C 0.68866 0.76277 0.59094 0.0
C1547 C 0.634 0.73693 0.51494 0.0
C1548 C 0.65297 0.74559 0.54048 0.0
H1549 H 0.75223 0.77787 0.61084 0.0
H1550 H 0.72184 0.76326 0.56531 0.0
H1551 H 0.6715 0.74934 0.65657 0.0
H1552 H 0.58813 0.72663 0.53809 0.0
H1553 H 0.6201 0.74372 0.57439 0.0
C1554 C 0.21467 0.94579 0.65276 0.0
C1555 C 0.21768 0.96393 0.63824 0.0
C1556 C 0.22106 0.93586 0.62282 0.0
C1557 C 0.25634 0.94445 0.52364 0.0
H1558 H 0.22946 0.88856 0.51918 0.0
C1559 C 0.28763 0.90322 0.42035 0.0
C1560 C 0.28943 0.89012 0.45146 0.0
C1561 C 0.27596 0.91081 0.43445 0.0
C1562 C 0.23704 0.90418 0.51988 0.0
H1563 H 0.22906 0.98555 0.57995 0.0
H1564 H 0.23976 0.96805 0.52729 0.0
H1565 H 0.21452 0.90489 0.56073 0.0
H1566 H 0.2795 0.8737 0.51988 0.0
H1567 H 0.25902 0.88673 0.54401 0.0
H1568 H 0.27895 0.94368 0.48334 0.0
C1569 C 0.23294 0.96169 0.56239 0.0
C1570 C 0.22857 0.91354 0.54394 0.0
C1571 C 0.22675 0.9717 0.59256 0.0
C1572 C 0.27851 0.8839 0.49534 0.0
C1573 C 0.26666 0.89124 0.50898 0.0
C1574 C 0.2647 0.93509 0.49917 0.0
C1575 C 0.23041 0.94375 0.57742 0.0
C1576 C 0.23834 0.93379 0.54722 0.0
C1577 C 0.26564 0.90513 0.47936 0.0
C1578 C 0.25535 0.91487 0.49813 0.0
H1579 H 0.20776 0.93942 0.68778 0.0
H1580 H 0.21914 0.92223 0.63603 0.0
H1581 H 0.26443 0.96004 0.52595 0.0
H1582 H 0.2959 0.90827 0.38634 0.0
H1583 H 0.27533 0.92145 0.41088 0.0
C1584 C 0.27452 0.03603 0.82953 0.0
C1585 C 0.26865 0.04126 0.78589 0.0
C1586 C 0.29366 0.04619 0.84488 0.0
C1587 C 0.33614 0.09356 0.84059 0.0
H1588 H 0.3608 0.06671 0.89663 0.0
C1589 C 0.39824 0.12786 0.98341 0.0
C1590 C 0.41304 0.12334 0.97979 0.0
C1591 C 0.38213 0.11887 0.95228 0.0
C1592 C 0.35427 0.07448 0.88055 0.0
H1593 H 0.27829 0.06101 0.72346 0.0
H1594 H 0.31204 0.07914 0.75103 0.0
H1595 H 0.33023 0.04852 0.85295 0.0
H1596 H 0.42271 0.1062 0.9396 0.0
H1597 H 0.39471 0.09065 0.88553 0.0
H1598 H 0.36005 0.1195 0.86922 0.0
C1599 C 0.30168 0.06706 0.77304 0.0
C1600 C 0.33671 0.06404 0.85583 0.0
C1601 C 0.28245 0.05665 0.75719 0.0
C1602 C 0.41152 0.10992 0.94379 0.0
C1603 C 0.39545 0.10096 0.91277 0.0
C1604 C 0.35371 0.10403 0.8656 0.0
C1605 C 0.30738 0.06195 0.81723 0.0
C1606 C 0.32727 0.07341 0.83658 0.0
C1607 C 0.38049 0.10519 0.91698 0.0
C1608 C 0.36276 0.09453 0.88664 0.0
H1609 H 0.26425 0.02417 0.85232 0.0
H1610 H 0.29759 0.04207 0.87939 0.0
H1611 H 0.32909 0.10111 0.82636 0.0
H1612 H 0.39898 0.13817 0.01061 0.0
H1613 H 0.37071 0.12225 0.9568 0.0
C1614 C 0.95459 0.22988 0.85238 0.0
C1615 C 0.96322 0.23542 0.80536 0.0
C1616 C 0.94505 0.2387 0.87304 0.0
C1617 C 0.92416 0.26982 0.84648 0.0
H1618 H 0.93362 0.28091 0.98734 0.0
C1619 C 0.90195 0.31812 0.95622 0.0
C1620 C 0.89288 0.31076 0.00221 0.0
C1621 C 0.91017 0.309 0.92988 0.0
C1622 C 0.93073 0.27778 0.9481 0.0
H1623 H 0.96794 0.25397 0.74204 0.0
H1624 H 0.95156 0.26991 0.77889 0.0
H1625 H 0.94838 0.26486 0.9445 0.0
H1626 H 0.88532 0.28803 0.05647 0.0
H1627 H 0.89986 0.27228 0.01069 0.0
H1628 H 0.90671 0.28317 0.85045 0.0
C1629 C 0.952 0.25851 0.79945 0.0
C1630 C 0.93912 0.26852 0.9235 0.0
C1631 C 0.96139 0.24943 0.77836 0.0
C1632 C 0.89223 0.2941 0.02125 0.0
C1633 C 0.90061 0.28512 0.99514 0.0
C1634 C 0.91586 0.27927 0.87113 0.0
C1635 C 0.94414 0.25353 0.84758 0.0
C1636 C 0.93572 0.26416 0.87258 0.0
C1637 C 0.90967 0.29248 0.94924 0.0
C1638 C 0.91889 0.28311 0.92232 0.0
H1639 H 0.95546 0.21885 0.87369 0.0
H1640 H 0.93864 0.23407 0.90947 0.0
H1641 H 0.92116 0.26658 0.80733 0.0
H1642 H 0.90263 0.33088 0.94038 0.0
H1643 H 0.9172 0.31505 0.89476 0.0
C1644 C 0.77541 0.73618 0.78198 0.0
C1645 C 0.7906 0.75199 0.80635 0.0
C1646 C 0.76739 0.71766 0.8024 0.0
C1647 C 0.76261 0.69489 0.92486 0.0
H1648 H 0.74068 0.64737 0.84919 0.0
C1649 C 0.731 0.62067 0.01917 0.0
C1650 C 0.71293 0.60624 0.00176 0.0
C1651 C 0.7414 0.63799 0.99324 0.0
C1652 C 0.74668 0.66055 0.87071 0.0
H1653 H 0.81042 0.76068 0.86856 0.0
H1654 H 0.797 0.72843 0.90301 0.0
H1655 H 0.758 0.67834 0.80601 0.0
H1656 H 0.69175 0.59865 0.94297 0.0
H1657 H 0.70994 0.62894 0.89788 0.0
H1658 H 0.75133 0.67718 0.98945 0.0
C1659 C 0.79071 0.73032 0.86934 0.0
C1660 C 0.75656 0.67827 0.84601 0.0
C1661 C 0.7985 0.74878 0.84941 0.0
C1662 C 0.70559 0.60948 0.95756 0.0
C1663 C 0.71606 0.62676 0.93145 0.0
C1664 C 0.75288 0.67724 0.94946 0.0
C1665 C 0.7746 0.71464 0.84719 0.0
C1666 C 0.76462 0.69566 0.87285 0.0
C1667 C 0.73402 0.64123 0.94918 0.0
C1668 C 0.74476 0.65989 0.92269 0.0
H1669 H 0.76901 0.73828 0.7488 0.0
H1670 H 0.75494 0.70592 0.78445 0.0
H1671 H 0.76817 0.70797 0.94668 0.0
H1672 H 0.73712 0.61863 0.05296 0.0
H1673 H 0.75529 0.64884 0.00753 0.0
C1674 C 0.88086 0.60992 0.47238 0.0
C1675 C 0.88588 0.60636 0.51966 0.0
C1676 C 0.88932 0.62866 0.45382 0.0
C1677 C 0.93339 0.67471 0.46034 0.0
H1678 H 0.90371 0.69441 0.39436 0.0
C1679 C 0.96996 0.75103 0.37596 0.0
C1680 C 0.96263 0.75353 0.33085 0.0
C1681 C 0.96008 0.73375 0.40225 0.0
C1682 C 0.91224 0.68905 0.4121 0.0
H1683 H 0.90344 0.61968 0.58496 0.0
H1684 H 0.91859 0.65258 0.55183 0.0
H1685 H 0.88708 0.66308 0.43555 0.0
H1686 H 0.93922 0.73978 0.27777 0.0
H1687 H 0.9223 0.70934 0.32268 0.0
H1688 H 0.95855 0.70015 0.43537 0.0
C1689 C 0.908 0.64077 0.52946 0.0
C1690 C 0.90269 0.67118 0.43597 0.0
C1691 C 0.89928 0.622 0.54844 0.0
C1692 C 0.9452 0.73834 0.31253 0.0
C1693 C 0.93543 0.72093 0.33853 0.0
C1694 C 0.94295 0.69246 0.43595 0.0
C1695 C 0.90317 0.64422 0.48183 0.0
C1696 C 0.91319 0.66379 0.45999 0.0
C1697 C 0.94274 0.71842 0.38377 0.0
C1698 C 0.93251 0.69981 0.41118 0.0
H1699 H 0.8705 0.59817 0.44943 0.0
H1700 H 0.88547 0.6309 0.41683 0.0
H1701 H 0.94181 0.6692 0.47799 0.0
H1702 H 0.98324 0.76254 0.39142 0.0
H1703 H 0.96597 0.73251 0.43736 0.0
C1704 C 0.27178 0.21928 0.33714 0.0
C1705 C 0.26073 0.22845 0.33656 0.0
C1706 C 0.28865 0.2268 0.36535 0.0
C1707 C 0.31606 0.2619 0.46607 0.0
H1708 H 0.35993 0.26308 0.402 0.0
C1709 C 0.40367 0.3089 0.46981 0.0
C1710 C 0.40791 0.30953 0.52071 0.0
C1711 C 0.38503 0.29707 0.45232 0.0
C1712 C 0.34781 0.26287 0.42043 0.0
H1713 H 0.25864 0.25262 0.3656 0.0
H1714 H 0.28835 0.26606 0.41345 0.0
H1715 H 0.32854 0.24618 0.36232 0.0
H1716 H 0.39569 0.29834 0.59332 0.0
H1717 H 0.36282 0.27742 0.56236 0.0
H1718 H 0.33576 0.27952 0.52297 0.0
C1719 C 0.28376 0.2528 0.39311 0.0
C1720 C 0.32974 0.25296 0.39796 0.0
C1721 C 0.26681 0.24518 0.36525 0.0
C1722 C 0.3929 0.29817 0.5539 0.0
C1723 C 0.3741 0.28624 0.53622 0.0
C1724 C 0.33423 0.27192 0.48849 0.0
C1725 C 0.29496 0.24377 0.39324 0.0
C1726 C 0.31371 0.25268 0.41996 0.0
C1727 C 0.37007 0.28545 0.48511 0.0
C1728 C 0.35037 0.27289 0.46521 0.0
H1729 H 0.26737 0.20623 0.31596 0.0
H1730 H 0.29676 0.21931 0.36521 0.0
H1731 H 0.30393 0.26168 0.48442 0.0
H1732 H 0.41477 0.31756 0.44309 0.0
H1733 H 0.38233 0.29718 0.41292 0.0
C1734 C 0.76418 0.03963 0.34581 0.0
C1735 C 0.78157 0.04936 0.31925 0.0
C1736 C 0.75709 0.04993 0.37143 0.0
C1737 C 0.75027 0.07454 0.44449 0.0
H1738 H 0.75445 0.12052 0.3847 0.0
C1739 C 0.72259 0.1203 0.54317 0.0
C1740 C 0.7127 0.12681 0.5129 0.0
C1741 C 0.7327 0.11203 0.52193 0.0
C1742 C 0.75308 0.10765 0.40184 0.0
H1743 H 0.80524 0.07758 0.29912 0.0
H1744 H 0.79306 0.09554 0.34462 0.0
H1745 H 0.76811 0.10335 0.34227 0.0
H1746 H 0.70568 0.1297 0.43654 0.0
H1747 H 0.72282 0.11501 0.39998 0.0
H1748 H 0.73441 0.07837 0.50293 0.0
C1749 C 0.78469 0.07994 0.34484 0.0
C1750 C 0.76114 0.09794 0.37779 0.0
C1751 C 0.7917 0.06963 0.31883 0.0
C1752 C 0.71322 0.12496 0.46107 0.0
C1753 C 0.7232 0.11664 0.43997 0.0
C1754 C 0.74207 0.0842 0.4684 0.0
C1755 C 0.7673 0.07021 0.37149 0.0
C1756 C 0.75962 0.08112 0.39849 0.0
C1757 C 0.73306 0.11006 0.47005 0.0
C1758 C 0.74314 0.10071 0.44697 0.0
H1759 H 0.75597 0.02402 0.34669 0.0
H1760 H 0.74346 0.04195 0.3907 0.0
H1761 H 0.74913 0.06183 0.46194 0.0
H1762 H 0.72253 0.12157 0.58322 0.0
H1763 H 0.74031 0.10727 0.54612 0.0
C1764 C 0.60493 0.88748 0.98047 0.0
C1765 C 0.59501 0.8978 0.98113 0.0
C1766 C 0.62234 0.8944 0.006 0.0
C1767 C 0.66397 0.91732 0.03857 0.0
H1768 H 0.6722 0.94523 0.16226 0.0
C1769 C 0.73948 0.96466 0.11984 0.0
C1770 C 0.74201 0.96609 0.17167 0.0
C1771 C 0.7211 0.95457 0.09918 0.0
C1772 C 0.67007 0.93722 0.12817 0.0
H1773 H 0.59576 0.92368 0.00824 0.0
H1774 H 0.62643 0.93609 0.0512 0.0
H1775 H 0.64085 0.93079 0.12186 0.0
H1776 H 0.72715 0.9576 0.24246 0.0
H1777 H 0.69492 0.93952 0.2062 0.0
H1778 H 0.693 0.92329 0.04551 0.0
C1779 C 0.62052 0.92235 0.03228 0.0
C1780 C 0.65217 0.9292 0.10454 0.0
C1781 C 0.603 0.91532 0.00725 0.0
C1782 C 0.72569 0.95683 0.2024 0.0
C1783 C 0.70723 0.94657 0.18161 0.0
C1784 C 0.68179 0.92516 0.06243 0.0
C1785 C 0.63035 0.91191 0.03229 0.0
C1786 C 0.649 0.91944 0.059 0.0
C1787 C 0.70472 0.94546 0.1297 0.0
C1788 C 0.68519 0.93552 0.10703 0.0
H1789 H 0.59906 0.87383 0.9611 0.0
H1790 H 0.62936 0.88583 0.00575 0.0
H1791 H 0.66214 0.91004 0.0034 0.0
H1792 H 0.75169 0.9717 0.09495 0.0
H1793 H 0.71975 0.95438 0.05912 0.0
C1794 C 0.04776 0.78099 0.21789 0.0
C1795 C 0.0458 0.79449 0.18887 0.0
C1796 C 0.05815 0.7725 0.19985 0.0
C1797 C 0.0948 0.77805 0.10928 0.0
H1798 H 0.06666 0.72219 0.10359 0.0
C1799 C 0.11931 0.73568 0.98465 0.0
C1800 C 0.11598 0.71765 0.00131 0.0
C1801 C 0.11194 0.74562 0.01101 0.0
C1802 C 0.07494 0.73777 0.10566 0.0
H1803 H 0.05396 0.81045 0.11953 0.0
H1804 H 0.07235 0.79591 0.08864 0.0
H1805 H 0.05264 0.73901 0.14638 0.0
H1806 H 0.10285 0.69617 0.05949 0.0
H1807 H 0.09063 0.71371 0.10619 0.0
H1808 H 0.11719 0.77692 0.06898 0.0
C1809 C 0.06575 0.79177 0.12502 0.0
C1810 C 0.06685 0.74739 0.13015 0.0
C1811 C 0.05512 0.79998 0.14259 0.0
C1812 C 0.10544 0.70992 0.04526 0.0
C1813 C 0.09835 0.71997 0.07197 0.0
C1814 C 0.10304 0.76844 0.08536 0.0
C1815 C 0.06705 0.77769 0.15301 0.0
C1816 C 0.07658 0.7676 0.13157 0.0
C1817 C 0.10135 0.73787 0.05503 0.0
C1818 C 0.09309 0.74817 0.08261 0.0
H1819 H 0.04069 0.77647 0.25364 0.0
H1820 H 0.05903 0.7617 0.22216 0.0
H1821 H 0.10263 0.79367 0.11017 0.0
H1822 H 0.12733 0.74198 0.95082 0.0
H1823 H 0.11428 0.75921 0.99632 0.0
C1824 C 0.21472 0.27394 0.1373 0.0
C1825 C 0.21977 0.27041 0.18458 0.0
C1826 C 0.2222 0.29275 0.11993 0.0
C1827 C 0.26448 0.34005 0.13012 0.0
H1828 H 0.2334 0.3576 0.06195 0.0
C1829 C 0.29869 0.41635 0.04669 0.0
C1830 C 0.29153 0.41848 0.00088 0.0
C1831 C 0.28909 0.39904 0.07295 0.0
C1832 C 0.24233 0.35286 0.08034 0.0
H1833 H 0.23628 0.28386 0.25124 0.0
H1834 H 0.24975 0.31693 0.22023 0.0
H1835 H 0.2178 0.32602 0.10203 0.0
H1836 H 0.26864 0.4041 0.94672 0.0
H1837 H 0.25224 0.37359 0.99158 0.0
H1838 H 0.28906 0.36633 0.10681 0.0
C1839 C 0.23988 0.30502 0.19691 0.0
C1840 C 0.23336 0.33484 0.10359 0.0
C1841 C 0.23212 0.28615 0.21468 0.0
C1842 C 0.27448 0.40293 0.98201 0.0
C1843 C 0.26501 0.38547 0.00798 0.0
C1844 C 0.27347 0.35795 0.10635 0.0
C1845 C 0.23511 0.30846 0.14917 0.0
C1846 C 0.24438 0.32821 0.12834 0.0
C1847 C 0.27223 0.38328 0.05376 0.0
C1848 C 0.26253 0.36454 0.08078 0.0
H1849 H 0.20514 0.26211 0.11333 0.0
H1850 H 0.21841 0.29498 0.08286 0.0
H1851 H 0.27333 0.33514 0.14831 0.0
H1852 H 0.31166 0.42815 0.06261 0.0
H1853 H 0.29488 0.39807 0.10851 0.0
C1854 C 0.93313 0.40617 0.18085 0.0
C1855 C 0.92924 0.39628 0.13537 0.0
C1856 C 0.95201 0.41712 0.19808 0.0
C1857 C -0.00261 0.41765 0.19222 0.0
H1858 H 0.01772 0.46646 0.26153 0.0
C1859 C 0.07248 0.45412 0.28314 0.0
C1860 C 0.07449 0.46296 0.32958 0.0
C1861 C 0.05575 0.44784 0.25505 0.0
C1862 C 0.01218 0.45274 0.24271 0.0
H1863 H 0.94216 0.39088 0.07109 0.0
H1864 H 0.97527 0.40994 0.10165 0.0
H1865 H 0.9869 0.45306 0.21803 0.0
H1866 H 0.06044 0.47214 0.38296 0.0
H1867 H 0.03094 0.46062 0.33466 0.0
H1868 H 0.02211 0.41679 0.21834 0.0
C1869 C 0.96363 0.40914 0.12386 0.0
C1870 C 0.9946 0.44516 0.21754 0.0
C1871 C 0.94471 0.39834 0.10627 0.0
C1872 C 0.05936 0.46542 0.34728 0.0
C1873 C 0.04251 0.45895 0.31936 0.0
C1874 C 0.01485 0.42513 0.21771 0.0
C1875 C 0.96739 0.41826 0.17045 0.0
C1876 C 0.98695 0.42743 0.19251 0.0
C1877 C 0.04049 0.45006 0.27291 0.0
C1878 C 0.02237 0.44266 0.24376 0.0
H1879 H 0.92152 0.40496 0.20398 0.0
H1880 H 0.95446 0.42388 0.23427 0.0
H1881 H 0.99167 0.40379 0.17398 0.0
H1882 H 0.08394 0.4522 0.26808 0.0
H1883 H 0.05485 0.44139 0.2191 0.0
C1884 C 0.62423 0.57626 0.10761 0.0
C1885 C 0.62375 0.56027 0.13041 0.0
C1886 C 0.61319 0.58388 0.12674 0.0
C1887 C 0.59096 0.58518 0.24579 0.0
H1888 H 0.56919 0.61055 0.16859 0.0
C1889 C 0.54721 0.61608 0.3366 0.0
C1890 C 0.55234 0.63496 0.32261 0.0
C1891 C 0.55422 0.60586 0.31019 0.0
C1892 C 0.57528 0.60355 0.19054 0.0
H1893 H 0.6102 0.53863 0.18792 0.0
H1894 H 0.59041 0.55132 0.21983 0.0
H1895 H 0.58377 0.59401 0.12595 0.0
H1896 H 0.56854 0.65775 0.26912 0.0
H1897 H 0.58076 0.63987 0.22321 0.0
H1898 H 0.58253 0.5947 0.31025 0.0
C1899 C 0.59984 0.55856 0.18867 0.0
C1900 C 0.58365 0.59412 0.16617 0.0
C1901 C 0.61107 0.55119 0.17018 0.0
C1902 C 0.56437 0.64326 0.28109 0.0
C1903 C 0.57125 0.63298 0.25447 0.0
C1904 C 0.58248 0.59444 0.27001 0.0
C1905 C 0.60131 0.57543 0.16851 0.0
C1906 C 0.59165 0.58487 0.19357 0.0
C1907 C 0.56638 0.61424 0.26902 0.0
C1908 C 0.57464 0.6038 0.24272 0.0
H1909 H 0.63396 0.58354 0.07697 0.0
H1910 H 0.61473 0.59694 0.11039 0.0
H1911 H 0.59742 0.57867 0.2682 0.0
H1912 H 0.53792 0.60922 0.36824 0.0
H1913 H 0.5501 0.59137 0.32196 0.0
C1914 C 0.39306 0.95308 0.35075 0.0
C1915 C 0.37693 0.93733 0.32889 0.0
C1916 C 0.40251 0.97089 0.32664 0.0
C1917 C 0.4112 0.99424 0.20508 0.0
H1918 H 0.4218 0.03943 0.28197 0.0
C1919 C 0.43976 0.07019 0.11791 0.0
C1920 C 0.45217 0.08618 0.14715 0.0
C1921 C 0.43125 0.05153 0.1377 0.0
C1922 C 0.41928 0.02704 0.26007 0.0
H1923 H 0.35831 0.92784 0.26403 0.0
H1924 H 0.375 0.95902 0.22175 0.0
H1925 H 0.40571 0.00786 0.32114 0.0
H1926 H 0.46649 0.09515 0.21858 0.0
H1927 H 0.45236 0.06277 0.25228 0.0
H1928 H 0.42508 0.01349 0.14413 0.0
C1929 C 0.38025 0.9575 0.2576 0.0
C1930 C 0.40996 0.00894 0.28255 0.0
C1931 C 0.37063 0.93972 0.28199 0.0
C1932 C 0.45672 0.08312 0.19544 0.0
C1933 C 0.44849 0.06455 0.21487 0.0
C1934 C 0.42075 0.01244 0.18262 0.0
C1935 C 0.39617 0.97328 0.27992 0.0
C1936 C 0.40589 0.99238 0.25538 0.0
C1937 C 0.43522 0.04855 0.18686 0.0
C1938 C 0.425 0.02908 0.20998 0.0
H1939 H 0.39831 0.95174 0.38678 0.0
H1940 H 0.41486 0.98279 0.34446 0.0
H1941 H 0.40831 0.98167 0.18342 0.0
H1942 H 0.43597 0.07215 0.08059 0.0
H1943 H 0.42102 0.03957 0.11515 0.0
C1944 C 0.55019 0.94162 0.79367 0.0
C1945 C 0.54992 0.93833 0.84506 0.0
C1946 C 0.55854 0.96032 0.775 0.0
C1947 C 0.59412 0.01052 0.80696 0.0
H1948 H 0.57395 0.02124 0.68767 0.0
C1949 C 0.63997 0.07802 0.68789 0.0
C1950 C 0.63085 0.08707 0.66478 0.0
C1951 C 0.62914 0.06048 0.7126 0.0
C1952 C 0.57968 0.01863 0.72138 0.0
H1953 H 0.55772 0.9522 0.91726 0.0
H1954 H 0.57201 0.98499 0.88456 0.0
H1955 H 0.55581 0.98995 0.72757 0.0
H1956 H 0.6032 0.08488 0.65005 0.0
H1957 H 0.58436 0.05452 0.69406 0.0
H1958 H 0.61779 0.03937 0.80132 0.0
C1959 C 0.56605 0.97302 0.8587 0.0
C1960 C 0.56938 0.00057 0.74394 0.0
C1961 C 0.55776 0.95423 0.87747 0.0
C1962 C 0.61066 0.0782 0.66705 0.0
C1963 C 0.59985 0.06075 0.69219 0.0
C1964 C 0.60435 0.02866 0.78462 0.0
C1965 C 0.56672 0.97628 0.80716 0.0
C1966 C 0.57665 0.99615 0.78641 0.0
C1967 C 0.60894 0.05165 0.71525 0.0
C1968 C 0.59743 0.03283 0.74102 0.0
H1969 H 0.54436 0.92975 0.7675 0.0
H1970 H 0.55909 0.96224 0.73509 0.0
H1971 H 0.60024 0.00759 0.8394 0.0
H1972 H 0.65549 0.08443 0.68664 0.0
H1973 H 0.63662 0.05371 0.72903 0.0
C1974 C 0.05708 0.62592 0.87974 0.0
C1975 C 0.0726 0.63803 0.84875 0.0
C1976 C 0.03856 0.6146 0.8599 0.0
C1977 C 0.01324 0.59483 0.74018 0.0
H1978 H 0.96925 0.59198 0.80797 0.0
C1979 C 0.93221 0.57893 0.69162 0.0
C1980 C 0.92534 0.5624 0.66166 0.0
C1981 C 0.94955 0.58603 0.71738 0.0
C1982 C 0.98141 0.59268 0.78852 0.0
H1983 H 0.08069 0.64795 0.77273 0.0
H1984 H 0.0486 0.62864 0.73876 0.0
H1985 H 0.00086 0.60855 0.84751 0.0
H1986 H 0.93131 0.54029 0.63552 0.0
H1987 H 0.96161 0.55264 0.68102 0.0
H1988 H 0.99403 0.57978 0.68021 0.0
C1989 C 0.05073 0.62748 0.77808 0.0
C1990 C -0.00053 0.60197 0.81147 0.0
C1991 C 0.06915 0.6387 0.79775 0.0
C1992 C 0.93626 0.55313 0.65803 0.0
C1993 C 0.95362 0.56022 0.68404 0.0
C1994 C -0.00479 0.58562 0.71717 0.0
C1995 C 0.03523 0.61519 0.80876 0.0
C1996 C 0.01567 0.60352 0.78706 0.0
C1997 C 0.96045 0.57675 0.71408 0.0
C1998 C 0.97916 0.58479 0.74061 0.0
H1999 H 0.05926 0.62502 0.91914 0.0
H2000 H 0.02691 0.60521 0.88447 0.0
H2001 H 0.02539 0.59548 0.72077 0.0
H2002 H 0.92424 0.58651 0.69511 0.0
H2003 H 0.95457 0.59903 0.73927 0.0
C2004 C 0.45426 0.40789 0.65784 0.0
C2005 C 0.45187 0.39006 0.67319 0.0
C2006 C 0.44668 0.41717 0.6861 0.0
C2007 C 0.41 0.40732 0.78281 0.0
H2008 H 0.43556 0.46315 0.78822 0.0
C2009 C 0.37889 0.44778 0.89187 0.0
C2010 C 0.37657 0.4609 0.86211 0.0
C2011 C 0.39017 0.44007 0.87522 0.0
C2012 C 0.42834 0.44754 0.78716 0.0
H2013 H 0.44022 0.36828 0.73103 0.0
H2014 H 0.42753 0.38469 0.78094 0.0
H2015 H 0.45136 0.44766 0.74676 0.0
H2016 H 0.38498 0.477 0.79299 0.0
H2017 H 0.40485 0.46379 0.76449 0.0
H2018 H 0.38699 0.4073 0.82322 0.0
C2019 C 0.43474 0.39128 0.7464 0.0
C2020 C 0.43728 0.43866 0.76312 0.0
C2021 C 0.44208 0.38189 0.71783 0.0
C2022 C 0.38638 0.46679 0.81656 0.0
C2023 C 0.39788 0.45937 0.8004 0.0
C2024 C 0.40118 0.41621 0.80736 0.0
C2025 C 0.43678 0.40895 0.73069 0.0
C2026 C 0.42805 0.41843 0.75974 0.0
C2027 C 0.3996 0.44568 0.8291 0.0
C2028 C 0.4101 0.43639 0.80888 0.0
H2029 H 0.46167 0.41452 0.62352 0.0
H2030 H 0.44824 0.43058 0.67235 0.0
H2031 H 0.40231 0.39173 0.78036 0.0
H2032 H 0.37147 0.44297 0.92711 0.0
H2033 H 0.39135 0.42956 0.89805 0.0
loop_
_geom_bond_atom_site_label_1
_geom_bond_atom_site_label_2
_geom_bond_distance
_geom_bond_site_symmetry_2
_ccdc_geom_bond_type
O0 Zn1 1.953 1_455 S
O0 C16 1.225 . S
Zn1 O0 1.953 1_655 S
Zn1 O2 1.949 1_655 S
Zn1 O8 1.919 . S
Zn1 O13 1.924 . S
O2 Zn1 1.949 1_455 S
O2 Zn3 1.923 . S
O2 Zn4 1.950 . S
O2 Zn5 1.946 1_455 S
Zn3 O2 1.923 . S
Zn3 O6 1.933 1_455 S
Zn3 O9 1.941 1_455 S
Zn3 O10 1.965 . S
Zn4 O2 1.950 . S
Zn4 O11 1.938 . S
Zn4 O12 1.906 . S
Zn4 O22 1.953 . S
Zn5 O2 1.946 1_655 S
Zn5 O7 1.932 . S
Zn5 O14 1.979 1_655 S
Zn5 O15 1.907 . S
O6 Zn3 1.933 1_655 S
O6 C17 1.226 . S
O7 Zn5 1.932 . S
O7 C17 1.307 . S
O8 Zn1 1.919 . S
O8 C19 1.253 . S
O9 Zn3 1.941 1_655 S
O9 C19 1.283 . S
O10 Zn3 1.965 . S
O10 C18 1.303 . S
O11 Zn4 1.938 . S
O11 C18 1.247 . S
O12 Zn4 1.906 . S
O12 C20 1.304 . S
O13 Zn1 1.924 . S
O13 C21 1.311 . S
O14 Zn5 1.979 1_455 S
O14 C20 1.272 . S
O15 Zn5 1.907 . S
O15 C21 1.231 . S
C16 O0 1.225 . S
C16 O22 1.298 . S
C17 O6 1.226 . S
C17 O7 1.307 . S
C18 O10 1.303 . S
C18 O11 1.247 . S
C19 O8 1.253 . S
C19 O9 1.283 . S
C20 O12 1.304 . S
C20 O14 1.272 . S
C21 O13 1.311 . S
C21 O15 1.231 . S
O22 Zn4 1.953 . S
O22 C16 1.298 . S
O23 Zn24 1.953 . S
O23 C39 1.225 . S
Zn24 O23 1.953 . S
Zn24 O25 1.949 . S
Zn24 O31 1.919 . S
Zn24 O36 1.924 . S
O25 Zn24 1.949 . S
O25 Zn26 1.923 . S
O25 Zn27 1.950 . S
O25 Zn28 1.945 . S
Zn26 O25 1.923 . S
Zn26 O29 1.933 . S
Zn26 O32 1.941 . S
Zn26 O33 1.965 . S
Zn27 O25 1.950 . S
Zn27 O34 1.938 . S
Zn27 O35 1.906 . S
Zn27 O45 1.953 . S
Zn28 O25 1.945 . S
Zn28 O30 1.932 . S
Zn28 O37 1.977 . S
Zn28 O38 1.910 . S
O29 Zn26 1.933 . S
O29 C40 1.226 . S
O30 Zn28 1.932 . S
O30 C40 1.307 . S
O31 Zn24 1.919 . S
O31 C42 1.253 . S
O32 Zn26 1.941 . S
O32 C42 1.283 . S
O33 Zn26 1.965 . S
O33 C41 1.303 . S
O34 Zn27 1.938 . S
O34 C41 1.247 . S
O35 Zn27 1.906 . S
O35 C43 1.304 . S
O36 Zn24 1.924 . S
O36 C44 1.311 . S
O37 Zn28 1.977 . S
O37 C43 1.272 . S
O38 Zn28 1.910 . S
O38 C44 1.231 . S
C39 O23 1.225 . S
C39 O45 1.298 . S
C40 O29 1.226 . S
C40 O30 1.307 . S
C41 O33 1.303 . S
C41 O34 1.247 . S
C42 O31 1.253 . S
C42 O32 1.283 . S
C43 O35 1.304 . S
C43 O37 1.272 . S
C44 O36 1.311 . S
C44 O38 1.231 . S
O45 Zn27 1.953 . S
O45 C39 1.298 . S
O46 Zn47 1.953 . S
O46 C62 1.225 1_545 S
Zn47 O46 1.953 . S
Zn47 O48 1.949 . S
Zn47 O54 1.919 . S
Zn47 O59 1.924 . S
O48 Zn47 1.949 . S
O48 Zn49 1.923 . S
O48 Zn50 1.950 1_545 S
O48 Zn51 1.945 . S
Zn49 O48 1.923 . S
Zn49 O52 1.933 . S
Zn49 O55 1.941 . S
Zn49 O56 1.965 1_545 S
Zn50 O48 1.950 1_565 S
Zn50 O57 1.938 . S
Zn50 O58 1.906 . S
Zn50 O68 1.953 . S
Zn51 O48 1.945 . S
Zn51 O53 1.932 . S
Zn51 O60 1.977 1_545 S
Zn51 O61 1.910 . S
O52 Zn49 1.933 . S
O52 C63 1.226 . S
O53 Zn51 1.932 . S
O53 C63 1.307 . S
O54 Zn47 1.919 . S
O54 C65 1.253 . S
O55 Zn49 1.941 . S
O55 C65 1.283 . S
O56 Zn49 1.965 1_565 S
O56 C64 1.303 . S
O57 Zn50 1.938 . S
O57 C64 1.247 . S
O58 Zn50 1.906 . S
O58 C66 1.304 . S
O59 Zn47 1.924 . S
O59 C67 1.311 . S
O60 Zn51 1.977 1_565 S
O60 C66 1.272 . S
O61 Zn51 1.910 . S
O61 C67 1.231 . S
C62 O46 1.225 1_565 S
C62 O68 1.298 . S
C63 O52 1.226 . S
C63 O53 1.307 . S
C64 O56 1.303 . S
C64 O57 1.247 . S
C65 O54 1.253 . S
C65 O55 1.283 . S
C66 O58 1.304 . S
C66 O60 1.272 . S
C67 O59 1.311 . S
C67 O61 1.231 . S
O68 Zn50 1.953 . S
O68 C62 1.298 . S
O69 Zn70 1.953 . S
O69 C85 1.225 . S
Zn70 O69 1.953 . S
Zn70 O71 1.949 . S
Zn70 O77 1.919 . S
Zn70 O82 1.924 . S
O71 Zn70 1.949 . S
O71 Zn72 1.923 . S
O71 Zn73 1.950 . S
O71 Zn74 1.945 1_455 S
Zn72 O71 1.923 . S
Zn72 O75 1.933 . S
Zn72 O78 1.941 . S
Zn72 O79 1.965 . S
Zn73 O71 1.950 . S
Zn73 O80 1.938 . S
Zn73 O81 1.906 1_455 S
Zn73 O91 1.953 . S
Zn74 O71 1.945 1_655 S
Zn74 O76 1.932 . S
Zn74 O83 1.977 . S
Zn74 O84 1.910 . S
O75 Zn72 1.933 . S
O75 C86 1.226 1_455 S
O76 Zn74 1.932 . S
O76 C86 1.307 . S
O77 Zn70 1.919 . S
O77 C88 1.253 . S
O78 Zn72 1.941 . S
O78 C88 1.283 . S
O79 Zn72 1.965 . S
O79 C87 1.303 . S
O80 Zn73 1.938 . S
O80 C87 1.247 . S
O81 Zn73 1.906 1_655 S
O81 C89 1.304 . S
O82 Zn70 1.924 . S
O82 C90 1.311 1_455 S
O83 Zn74 1.977 . S
O83 C89 1.272 . S
O84 Zn74 1.910 . S
O84 C90 1.231 . S
C85 O69 1.225 . S
C85 O91 1.298 . S
C86 O75 1.226 1_655 S
C86 O76 1.307 . S
C87 O79 1.303 . S
C87 O80 1.247 . S
C88 O77 1.253 . S
C88 O78 1.283 . S
C89 O81 1.304 . S
C89 O83 1.272 . S
C90 O82 1.311 1_655 S
C90 O84 1.231 . S
O91 Zn73 1.953 . S
O91 C85 1.298 . S
O92 Zn93 1.953 . S
O92 C108 1.225 . S
Zn93 O92 1.953 . S
Zn93 O94 1.949 . S
Zn93 O100 1.919 . S
Zn93 O105 1.924 . S
O94 Zn93 1.949 . S
O94 Zn95 1.923 . S
O94 Zn96 1.950 . S
O94 Zn97 1.945 . S
Zn95 O94 1.923 . S
Zn95 O98 1.933 . S
Zn95 O101 1.941 . S
Zn95 O102 1.965 . S
Zn96 O94 1.950 . S
Zn96 O103 1.938 . S
Zn96 O104 1.906 . S
Zn96 O114 1.953 . S
Zn97 O94 1.945 . S
Zn97 O99 1.932 . S
Zn97 O106 1.977 . S
Zn97 O107 1.910 . S
O98 Zn95 1.933 . S
O98 C109 1.226 . S
O99 Zn97 1.932 . S
O99 C109 1.307 . S
O100 Zn93 1.919 . S
O100 C111 1.253 . S
O101 Zn95 1.941 . S
O101 C111 1.283 . S
O102 Zn95 1.965 . S
O102 C110 1.303 . S
O103 Zn96 1.938 . S
O103 C110 1.247 . S
O104 Zn96 1.906 . S
O104 C112 1.304 . S
O105 Zn93 1.924 . S
O105 C113 1.311 . S
O106 Zn97 1.977 . S
O106 C112 1.272 . S
O107 Zn97 1.910 . S
O107 C113 1.231 . S
C108 O92 1.225 . S
C108 O114 1.298 . S
C109 O98 1.226 . S
C109 O99 1.307 . S
C110 O102 1.303 . S
C110 O103 1.247 . S
C111 O100 1.253 . S
C111 O101 1.283 . S
C112 O104 1.304 . S
C112 O106 1.272 . S
C113 O105 1.311 . S
C113 O107 1.231 . S
O114 Zn96 1.953 . S
O114 C108 1.298 . S
O115 Zn116 1.953 . S
O115 C131 1.225 . S
Zn116 O115 1.953 . S
Zn116 O117 1.949 1_565 S
Zn116 O123 1.919 . S
Zn116 O128 1.924 1_565 S
O117 Zn116 1.949 1_545 S
O117 Zn118 1.923 . S
O117 Zn119 1.950 . S
O117 Zn120 1.945 . S
Zn118 O117 1.923 . S
Zn118 O121 1.933 . S
Zn118 O124 1.941 1_545 S
Zn118 O125 1.965 1_545 S
Zn119 O117 1.950 . S
Zn119 O126 1.938 1_545 S
Zn119 O127 1.906 . S
Zn119 O137 1.953 1_545 S
Zn120 O117 1.945 . S
Zn120 O122 1.932 . S
Zn120 O129 1.977 . S
Zn120 O130 1.910 . S
O121 Zn118 1.933 . S
O121 C132 1.226 . S
O122 Zn120 1.932 . S
O122 C132 1.307 . S
O123 Zn116 1.919 . S
O123 C134 1.253 . S
O124 Zn118 1.941 1_565 S
O124 C134 1.283 . S
O125 Zn118 1.965 1_565 S
O125 C133 1.303 . S
O126 Zn119 1.938 1_565 S
O126 C133 1.247 . S
O127 Zn119 1.906 . S
O127 C135 1.304 . S
O128 Zn116 1.924 1_545 S
O128 C136 1.311 . S
O129 Zn120 1.977 . S
O129 C135 1.272 . S
O130 Zn120 1.910 . S
O130 C136 1.231 . S
C131 O115 1.225 . S
C131 O137 1.298 . S
C132 O121 1.226 . S
C132 O122 1.307 . S
C133 O125 1.303 . S
C133 O126 1.247 . S
C134 O123 1.253 . S
C134 O124 1.283 . S
C135 O127 1.304 . S
C135 O129 1.272 . S
C136 O128 1.311 . S
C136 O130 1.231 . S
O137 Zn119 1.953 1_565 S
O137 C131 1.298 . S
O138 Zn139 1.953 . S
O138 C154 1.225 . S
Zn139 O138 1.953 . S
Zn139 O140 1.949 . S
Zn139 O146 1.919 . S
Zn139 O151 1.924 . S
O140 Zn139 1.949 . S
O140 Zn141 1.923 . S
O140 Zn142 1.950 . S
O140 Zn143 1.945 . S
Zn141 O140 1.923 . S
Zn141 O144 1.933 . S
Zn141 O147 1.941 . S
Zn141 O148 1.965 . S
Zn142 O140 1.950 . S
Zn142 O149 1.938 . S
Zn142 O150 1.906 . S
Zn142 O160 1.953 . S
Zn143 O140 1.945 . S
Zn143 O145 1.932 . S
Zn143 O152 1.977 . S
Zn143 O153 1.910 . S
O144 Zn141 1.933 . S
O144 C155 1.226 . S
O145 Zn143 1.932 . S
O145 C155 1.307 . S
O146 Zn139 1.919 . S
O146 C157 1.253 1_554 S
O147 Zn141 1.941 . S
O147 C157 1.283 1_554 S
O148 Zn141 1.965 . S
O148 C156 1.303 . S
O149 Zn142 1.938 . S
O149 C156 1.247 . S
O150 Zn142 1.906 . S
O150 C158 1.304 . S
O151 Zn139 1.924 . S
O151 C159 1.311 . S
O152 Zn143 1.977 . S
O152 C158 1.272 . S
O153 Zn143 1.910 . S
O153 C159 1.231 . S
C154 O138 1.225 . S
C154 O160 1.298 . S
C155 O144 1.226 . S
C155 O145 1.307 . S
C156 O148 1.303 . S
C156 O149 1.247 . S
C157 O146 1.253 1_556 S
C157 O147 1.283 1_556 S
C158 O150 1.304 . S
C158 O152 1.272 . S
C159 O151 1.311 . S
C159 O153 1.231 . S
O160 Zn142 1.953 . S
O160 C154 1.298 . S
O161 Zn162 1.953 . S
O161 C177 1.225 . S
Zn162 O161 1.953 . S
Zn162 O163 1.949 . S
Zn162 O169 1.919 . S
Zn162 O174 1.924 . S
O163 Zn162 1.949 . S
O163 Zn164 1.923 . S
O163 Zn165 1.950 . S
O163 Zn166 1.945 . S
Zn164 O163 1.923 . S
Zn164 O167 1.933 . S
Zn164 O170 1.941 . S
Zn164 O171 1.965 . S
Zn165 O163 1.950 . S
Zn165 O172 1.938 . S
Zn165 O173 1.906 . S
Zn165 O183 1.953 . S
Zn166 O163 1.945 . S
Zn166 O168 1.932 . S
Zn166 O175 1.977 . S
Zn166 O176 1.910 . S
O167 Zn164 1.933 . S
O167 C178 1.226 . S
O168 Zn166 1.932 . S
O168 C178 1.307 . S
O169 Zn162 1.919 . S
O169 C180 1.253 1_554 S
O170 Zn164 1.941 . S
O170 C180 1.283 1_554 S
O171 Zn164 1.965 . S
O171 C179 1.303 . S
O172 Zn165 1.938 . S
O172 C179 1.247 . S
O173 Zn165 1.906 . S
O173 C181 1.304 . S
O174 Zn162 1.924 . S
O174 C182 1.311 . S
O175 Zn166 1.977 . S
O175 C181 1.272 . S
O176 Zn166 1.910 . S
O176 C182 1.231 . S
C177 O161 1.225 . S
C177 O183 1.298 . S
C178 O167 1.226 . S
C178 O168 1.307 . S
C179 O171 1.303 . S
C179 O172 1.247 . S
C180 O169 1.253 1_556 S
C180 O170 1.283 1_556 S
C181 O173 1.304 . S
C181 O175 1.272 . S
C182 O174 1.311 . S
C182 O176 1.231 . S
O183 Zn165 1.953 . S
O183 C177 1.298 . S
O184 Zn185 1.953 . S
O184 C200 1.225 . S
Zn185 O184 1.953 . S
Zn185 O186 1.949 . S
Zn185 O192 1.919 . S
Zn185 O197 1.924 . S
O186 Zn185 1.949 . S
O186 Zn187 1.923 . S
O186 Zn188 1.950 . S
O186 Zn189 1.945 . S
Zn187 O186 1.923 . S
Zn187 O190 1.933 . S
Zn187 O193 1.941 . S
Zn187 O194 1.965 . S
Zn188 O186 1.950 . S
Zn188 O195 1.938 . S
Zn188 O196 1.906 . S
Zn188 O206 1.953 . S
Zn189 O186 1.945 . S
Zn189 O191 1.932 . S
Zn189 O198 1.977 . S
Zn189 O199 1.910 . S
O190 Zn187 1.933 . S
O190 C201 1.226 . S
O191 Zn189 1.932 . S
O191 C201 1.307 . S
O192 Zn185 1.919 . S
O192 C203 1.253 1_554 S
O193 Zn187 1.941 . S
O193 C203 1.283 1_554 S
O194 Zn187 1.965 . S
O194 C202 1.303 . S
O195 Zn188 1.938 . S
O195 C202 1.247 . S
O196 Zn188 1.906 . S
O196 C204 1.304 . S
O197 Zn185 1.924 . S
O197 C205 1.311 . S
O198 Zn189 1.977 . S
O198 C204 1.272 . S
O199 Zn189 1.910 . S
O199 C205 1.231 . S
C200 O184 1.225 . S
C200 O206 1.298 . S
C201 O190 1.226 . S
C201 O191 1.307 . S
C202 O194 1.303 . S
C202 O195 1.247 . S
C203 O192 1.253 1_556 S
C203 O193 1.283 1_556 S
C204 O196 1.304 . S
C204 O198 1.272 . S
C205 O197 1.311 . S
C205 O199 1.231 . S
O206 Zn188 1.953 . S
O206 C200 1.298 . S
O207 Zn208 1.953 . S
O207 C223 1.225 . S
Zn208 O207 1.953 . S
Zn208 O209 1.949 . S
Zn208 O215 1.919 . S
Zn208 O220 1.924 . S
O209 Zn208 1.949 . S
O209 Zn210 1.923 . S
O209 Zn211 1.950 . S
O209 Zn212 1.945 . S
Zn210 O209 1.923 . S
Zn210 O213 1.933 . S
Zn210 O216 1.941 . S
Zn210 O217 1.965 . S
Zn211 O209 1.950 . S
Zn211 O218 1.938 . S
Zn211 O219 1.906 . S
Zn211 O229 1.953 . S
Zn212 O209 1.945 . S
Zn212 O214 1.932 . S
Zn212 O221 1.977 . S
Zn212 O222 1.910 . S
O213 Zn210 1.933 . S
O213 C224 1.226 . S
O214 Zn212 1.932 . S
O214 C224 1.307 . S
O215 Zn208 1.919 . S
O215 C226 1.253 . S
O216 Zn210 1.941 . S
O216 C226 1.283 . S
O217 Zn210 1.965 . S
O217 C225 1.303 . S
O218 Zn211 1.938 . S
O218 C225 1.247 . S
O219 Zn211 1.906 . S
O219 C227 1.304 . S
O220 Zn208 1.924 . S
O220 C228 1.311 . S
O221 Zn212 1.977 . S
O221 C227 1.272 . S
O222 Zn212 1.910 . S
O222 C228 1.231 . S
C223 O207 1.225 . S
C223 O229 1.298 . S
C224 O213 1.226 . S
C224 O214 1.307 . S
C225 O217 1.303 . S
C225 O218 1.247 . S
C226 O215 1.253 . S
C226 O216 1.283 . S
C227 O219 1.304 . S
C227 O221 1.272 . S
C228 O220 1.311 . S
C228 O222 1.231 . S
O229 Zn211 1.953 . S
O229 C223 1.298 . S
O230 Zn231 1.953 . S
O230 C246 1.225 . S
Zn231 O230 1.953 . S
Zn231 O232 1.949 . S
Zn231 O238 1.919 . S
Zn231 O243 1.924 . S
O232 Zn231 1.949 . S
O232 Zn233 1.923 . S
O232 Zn234 1.950 . S
O232 Zn235 1.945 . S
Zn233 O232 1.923 . S
Zn233 O236 1.933 . S
Zn233 O239 1.941 . S
Zn233 O240 1.965 . S
Zn234 O232 1.950 . S
Zn234 O241 1.938 . S
Zn234 O242 1.906 . S
Zn234 O252 1.953 . S
Zn235 O232 1.945 . S
Zn235 O237 1.932 . S
Zn235 O244 1.977 . S
Zn235 O245 1.910 . S
O236 Zn233 1.933 . S
O236 C247 1.226 . S
O237 Zn235 1.932 . S
O237 C247 1.307 . S
O238 Zn231 1.919 . S
O238 C249 1.253 . S
O239 Zn233 1.941 . S
O239 C249 1.283 . S
O240 Zn233 1.965 . S
O240 C248 1.303 . S
O241 Zn234 1.938 . S
O241 C248 1.247 . S
O242 Zn234 1.906 . S
O242 C250 1.304 . S
O243 Zn231 1.924 . S
O243 C251 1.311 . S
O244 Zn235 1.977 . S
O244 C250 1.272 . S
O245 Zn235 1.910 . S
O245 C251 1.231 . S
C246 O230 1.225 . S
C246 O252 1.298 . S
C247 O236 1.226 . S
C247 O237 1.307 . S
C248 O240 1.303 . S
C248 O241 1.247 . S
C249 O238 1.253 . S
C249 O239 1.283 . S
C250 O242 1.304 . S
C250 O244 1.272 . S
C251 O243 1.311 . S
C251 O245 1.231 . S
O252 Zn234 1.953 . S
O252 C246 1.298 . S
O253 Zn254 1.953 . S
O253 C269 1.225 . S
Zn254 O253 1.953 . S
Zn254 O255 1.949 . S
Zn254 O261 1.919 . S
Zn254 O266 1.924 . S
O255 Zn254 1.949 . S
O255 Zn256 1.923 . S
O255 Zn257 1.950 . S
O255 Zn258 1.945 . S
Zn256 O255 1.923 . S
Zn256 O259 1.933 . S
Zn256 O262 1.941 . S
Zn256 O263 1.965 . S
Zn257 O255 1.950 . S
Zn257 O264 1.938 . S
Zn257 O265 1.906 . S
Zn257 O275 1.953 . S
Zn258 O255 1.945 . S
Zn258 O260 1.932 . S
Zn258 O267 1.977 . S
Zn258 O268 1.910 . S
O259 Zn256 1.933 . S
O259 C270 1.226 . S
O260 Zn258 1.932 . S
O260 C270 1.307 . S
O261 Zn254 1.919 . S
O261 C272 1.253 . S
O262 Zn256 1.941 . S
O262 C272 1.283 . S
O263 Zn256 1.965 . S
O263 C271 1.303 . S
O264 Zn257 1.938 . S
O264 C271 1.247 . S
O265 Zn257 1.906 . S
O265 C273 1.304 . S
O266 Zn254 1.924 . S
O266 C274 1.311 . S
O267 Zn258 1.977 . S
O267 C273 1.272 . S
O268 Zn258 1.910 . S
O268 C274 1.231 . S
C269 O253 1.225 . S
C269 O275 1.298 . S
C270 O259 1.226 . S
C270 O260 1.307 . S
C271 O263 1.303 . S
C271 O264 1.247 . S
C272 O261 1.253 . S
C272 O262 1.283 . S
C273 O265 1.304 . S
C273 O267 1.272 . S
C274 O266 1.311 . S
C274 O268 1.231 . S
O275 Zn257 1.953 . S
O275 C269 1.298 . S
O276 Zn277 1.953 . S
O276 C292 1.225 . S
Zn277 O276 1.953 . S
Zn277 O278 1.949 . S
Zn277 O284 1.919 . S
Zn277 O289 1.924 . S
O278 Zn277 1.949 . S
O278 Zn279 1.923 . S
O278 Zn280 1.950 . S
O278 Zn281 1.945 . S
Zn279 O278 1.923 . S
Zn279 O282 1.933 . S
Zn279 O285 1.941 . S
Zn279 O286 1.965 . S
Zn280 O278 1.950 . S
Zn280 O287 1.938 . S
Zn280 O288 1.906 . S
Zn280 O298 1.953 . S
Zn281 O278 1.945 . S
Zn281 O283 1.932 . S
Zn281 O290 1.977 . S
Zn281 O291 1.910 . S
O282 Zn279 1.933 . S
O282 C293 1.226 . S
O283 Zn281 1.932 . S
O283 C293 1.307 . S
O284 Zn277 1.919 . S
O284 C295 1.253 . S
O285 Zn279 1.941 . S
O285 C295 1.283 . S
O286 Zn279 1.965 . S
O286 C294 1.303 . S
O287 Zn280 1.938 . S
O287 C294 1.247 . S
O288 Zn280 1.906 . S
O288 C296 1.304 . S
O289 Zn277 1.924 . S
O289 C297 1.311 . S
O290 Zn281 1.977 . S
O290 C296 1.272 . S
O291 Zn281 1.910 . S
O291 C297 1.231 . S
C292 O276 1.225 . S
C292 O298 1.298 . S
C293 O282 1.226 . S
C293 O283 1.307 . S
C294 O286 1.303 . S
C294 O287 1.247 . S
C295 O284 1.253 . S
C295 O285 1.283 . S
C296 O288 1.304 . S
C296 O290 1.272 . S
C297 O289 1.311 . S
C297 O291 1.231 . S
O298 Zn280 1.953 . S
O298 C292 1.298 . S
O299 Zn300 1.953 . S
O299 C315 1.225 . S
Zn300 O299 1.953 . S
Zn300 O301 1.949 . S
Zn300 O307 1.919 . S
Zn300 O312 1.924 . S
O301 Zn300 1.949 . S
O301 Zn302 1.923 . S
O301 Zn303 1.950 . S
O301 Zn304 1.945 . S
Zn302 O301 1.923 . S
Zn302 O305 1.933 . S
Zn302 O308 1.941 . S
Zn302 O309 1.965 . S
Zn303 O301 1.950 . S
Zn303 O310 1.938 . S
Zn303 O311 1.906 . S
Zn303 O321 1.953 . S
Zn304 O301 1.945 . S
Zn304 O306 1.932 . S
Zn304 O313 1.977 . S
Zn304 O314 1.910 . S
O305 Zn302 1.933 . S
O305 C316 1.226 . S
O306 Zn304 1.932 . S
O306 C316 1.307 . S
O307 Zn300 1.919 . S
O307 C318 1.253 . S
O308 Zn302 1.941 . S
O308 C318 1.283 . S
O309 Zn302 1.965 . S
O309 C317 1.303 . S
O310 Zn303 1.938 . S
O310 C317 1.247 . S
O311 Zn303 1.906 . S
O311 C319 1.304 . S
O312 Zn300 1.924 . S
O312 C320 1.311 . S
O313 Zn304 1.977 . S
O313 C319 1.272 . S
O314 Zn304 1.910 . S
O314 C320 1.231 . S
C315 O299 1.225 . S
C315 O321 1.298 . S
C316 O305 1.226 . S
C316 O306 1.307 . S
C317 O309 1.303 . S
C317 O310 1.247 . S
C318 O307 1.253 . S
C318 O308 1.283 . S
C319 O311 1.304 . S
C319 O313 1.272 . S
C320 O312 1.311 . S
C320 O314 1.231 . S
O321 Zn303 1.953 . S
O321 C315 1.298 . S
O322 Zn323 1.953 . S
O322 C338 1.225 . S
Zn323 O322 1.953 . S
Zn323 O324 1.949 . S
Zn323 O330 1.919 . S
Zn323 O335 1.924 . S
O324 Zn323 1.949 . S
O324 Zn325 1.923 . S
O324 Zn326 1.950 . S
O324 Zn327 1.945 . S
Zn325 O324 1.923 . S
Zn325 O328 1.933 . S
Zn325 O331 1.941 . S
Zn325 O332 1.965 . S
Zn326 O324 1.950 . S
Zn326 O333 1.938 . S
Zn326 O334 1.906 . S
Zn326 O344 1.953 . S
Zn327 O324 1.945 . S
Zn327 O329 1.932 . S
Zn327 O336 1.977 . S
Zn327 O337 1.910 . S
O328 Zn325 1.933 . S
O328 C339 1.226 . S
O329 Zn327 1.932 . S
O329 C339 1.307 . S
O330 Zn323 1.919 . S
O330 C341 1.253 . S
O331 Zn325 1.941 . S
O331 C341 1.283 . S
O332 Zn325 1.965 . S
O332 C340 1.303 . S
O333 Zn326 1.938 . S
O333 C340 1.247 . S
O334 Zn326 1.906 . S
O334 C342 1.304 . S
O335 Zn323 1.924 . S
O335 C343 1.311 . S
O336 Zn327 1.977 . S
O336 C342 1.272 . S
O337 Zn327 1.910 . S
O337 C343 1.231 . S
C338 O322 1.225 . S
C338 O344 1.298 . S
C339 O328 1.226 . S
C339 O329 1.307 . S
C340 O332 1.303 . S
C340 O333 1.247 . S
C341 O330 1.253 . S
C341 O331 1.283 . S
C342 O334 1.304 . S
C342 O336 1.272 . S
C343 O335 1.311 . S
C343 O337 1.231 . S
O344 Zn326 1.953 . S
O344 C338 1.298 . S
O345 Zn346 1.953 . S
O345 C361 1.225 . S
Zn346 O345 1.953 . S
Zn346 O347 1.949 . S
Zn346 O353 1.935 . S
Zn346 O358 1.924 . S
O347 Zn346 1.949 . S
O347 Zn348 1.923 . S
O347 Zn349 1.950 . S
O347 Zn350 1.945 . S
Zn348 O347 1.923 . S
Zn348 O351 1.933 . S
Zn348 O354 1.941 . S
Zn348 O355 1.965 . S
Zn349 O347 1.950 . S
Zn349 O356 1.938 . S
Zn349 O357 1.906 . S
Zn349 O367 1.953 . S
Zn350 O347 1.945 . S
Zn350 O352 1.932 . S
Zn350 O359 1.977 . S
Zn350 O360 1.910 . S
O351 Zn348 1.933 . S
O351 C362 1.226 . S
O352 Zn350 1.932 . S
O352 C362 1.307 . S
O353 Zn346 1.935 . S
O353 C364 1.248 1_556 S
O354 Zn348 1.941 . S
O354 C364 1.283 1_556 S
O355 Zn348 1.965 . S
O355 C363 1.303 . S
O356 Zn349 1.938 . S
O356 C363 1.247 . S
O357 Zn349 1.906 . S
O357 C365 1.304 . S
O358 Zn346 1.924 . S
O358 C366 1.311 . S
O359 Zn350 1.977 . S
O359 C365 1.272 . S
O360 Zn350 1.910 . S
O360 C366 1.231 . S
C361 O345 1.225 . S
C361 O367 1.298 . S
C362 O351 1.226 . S
C362 O352 1.307 . S
C363 O355 1.303 . S
C363 O356 1.247 . S
C364 O353 1.248 1_554 S
C364 O354 1.283 1_554 S
C365 O357 1.304 . S
C365 O359 1.272 . S
C366 O358 1.311 . S
C366 O360 1.231 . S
O367 Zn349 1.953 . S
O367 C361 1.298 . S
O368 Zn369 1.953 . S
O368 C384 1.225 . S
Zn369 O368 1.953 . S
Zn369 O370 1.949 . S
Zn369 O376 1.935 . S
Zn369 O381 1.924 . S
O370 Zn369 1.949 . S
O370 Zn371 1.923 . S
O370 Zn372 1.950 . S
O370 Zn373 1.945 . S
Zn371 O370 1.923 . S
Zn371 O374 1.933 . S
Zn371 O377 1.941 . S
Zn371 O378 1.965 . S
Zn372 O370 1.950 . S
Zn372 O379 1.938 . S
Zn372 O380 1.906 . S
Zn372 O390 1.953 . S
Zn373 O370 1.945 . S
Zn373 O375 1.932 . S
Zn373 O382 1.977 . S
Zn373 O383 1.910 . S
O374 Zn371 1.933 . S
O374 C385 1.226 . S
O375 Zn373 1.932 . S
O375 C385 1.307 . S
O376 Zn369 1.935 . S
O376 C387 1.248 1_556 S
O377 Zn371 1.941 . S
O377 C387 1.283 1_556 S
O378 Zn371 1.965 . S
O378 C386 1.303 . S
O379 Zn372 1.938 . S
O379 C386 1.247 . S
O380 Zn372 1.906 . S
O380 C388 1.304 . S
O381 Zn369 1.924 . S
O381 C389 1.311 . S
O382 Zn373 1.977 . S
O382 C388 1.272 . S
O383 Zn373 1.910 . S
O383 C389 1.231 . S
C384 O368 1.225 . S
C384 O390 1.298 . S
C385 O374 1.226 . S
C385 O375 1.307 . S
C386 O378 1.303 . S
C386 O379 1.247 . S
C387 O376 1.248 1_554 S
C387 O377 1.283 1_554 S
C388 O380 1.304 . S
C388 O382 1.272 . S
C389 O381 1.311 . S
C389 O383 1.231 . S
O390 Zn372 1.953 . S
O390 C384 1.298 . S
O391 Zn392 1.953 . S
O391 C407 1.225 . S
Zn392 O391 1.953 . S
Zn392 O393 1.949 . S
Zn392 O399 1.935 . S
Zn392 O404 1.924 . S
O393 Zn392 1.949 . S
O393 Zn394 1.923 . S
O393 Zn395 1.950 . S
O393 Zn396 1.945 . S
Zn394 O393 1.923 . S
Zn394 O397 1.933 . S
Zn394 O400 1.941 . S
Zn394 O401 1.965 . S
Zn395 O393 1.950 . S
Zn395 O402 1.938 . S
Zn395 O403 1.906 . S
Zn395 O413 1.953 . S
Zn396 O393 1.945 . S
Zn396 O398 1.932 . S
Zn396 O405 1.977 . S
Zn396 O406 1.910 . S
O397 Zn394 1.933 . S
O397 C408 1.226 . S
O398 Zn396 1.932 . S
O398 C408 1.307 . S
O399 Zn392 1.935 . S
O399 C410 1.248 1_556 S
O400 Zn394 1.941 . S
O400 C410 1.283 1_556 S
O401 Zn394 1.965 . S
O401 C409 1.303 . S
O402 Zn395 1.938 . S
O402 C409 1.247 . S
O403 Zn395 1.906 . S
O403 C411 1.304 . S
O404 Zn392 1.924 . S
O404 C412 1.311 . S
O405 Zn396 1.977 . S
O405 C411 1.272 . S
O406 Zn396 1.910 . S
O406 C412 1.231 . S
C407 O391 1.225 . S
C407 O413 1.298 . S
C408 O397 1.226 . S
C408 O398 1.307 . S
C409 O401 1.303 . S
C409 O402 1.247 . S
C410 O399 1.248 1_554 S
C410 O400 1.283 1_554 S
C411 O403 1.304 . S
C411 O405 1.272 . S
C412 O404 1.311 . S
C412 O406 1.231 . S
O413 Zn395 1.953 . S
O413 C407 1.298 . S
C414 C415 1.349 . S
C414 C416 1.327 . S
C414 H439 0.950 . S
C415 C414 1.349 . S
C415 C431 1.349 . S
C416 C414 1.327 . S
C416 C435 1.429 . S
C416 H440 0.950 . S
C417 C434 1.574 . S
C417 C436 1.368 . S
C417 H441 0.949 . S
H418 C422 0.949 . S
C419 C420 1.349 . S
C419 C421 1.327 . S
C419 H442 0.950 . S
C420 C419 1.349 . S
C420 C432 1.349 . S
C421 C419 1.327 . S
C421 C437 1.429 . S
C421 H443 0.950 . S
C422 H418 0.949 . S
C422 C430 1.574 . S
C422 C438 1.368 . S
H423 C431 0.950 . S
H424 C429 0.950 . S
H425 C430 0.949 . S
H426 C432 0.950 . S
H427 C433 0.950 . S
H428 C434 0.949 . S
C429 H424 0.950 . S
C429 C431 1.327 . S
C429 C435 1.429 . S
C430 C422 1.574 . S
C430 H425 0.949 . S
C430 C436 1.368 . S
C431 C415 1.349 . S
C431 H423 0.950 . S
C431 C429 1.327 . S
C432 C420 1.349 . S
C432 H426 0.950 . S
C432 C433 1.327 . S
C433 H427 0.950 . S
C433 C432 1.327 . S
C433 C437 1.429 . S
C434 C417 1.574 . S
C434 H428 0.949 . S
C434 C438 1.368 . S
C435 C416 1.429 . S
C435 C429 1.429 . S
C435 C436 1.523 . S
C436 C417 1.368 . S
C436 C430 1.368 . S
C436 C435 1.523 . S
C437 C421 1.429 . S
C437 C433 1.429 . S
C437 C438 1.523 . S
C438 C422 1.368 . S
C438 C434 1.368 . S
C438 C437 1.523 . S
H439 C414 0.950 . S
H440 C416 0.950 . S
H441 C417 0.949 . S
H442 C419 0.950 . S
H443 C421 0.950 . S
C444 C445 1.349 . S
C444 C446 1.327 . S
C444 H469 0.950 . S
C445 C444 1.349 . S
C445 C461 1.349 . S
C446 C444 1.327 . S
C446 C465 1.429 . S
C446 H470 0.950 . S
C447 C464 1.574 . S
C447 C466 1.368 . S
C447 H471 0.949 . S
H448 C452 0.949 . S
C449 C450 1.349 . S
C449 C451 1.327 . S
C449 H472 0.950 . S
C450 C449 1.349 . S
C450 C462 1.349 . S
C451 C449 1.327 . S
C451 C467 1.429 . S
C451 H473 0.950 . S
C452 H448 0.949 . S
C452 C460 1.574 . S
C452 C468 1.368 . S
H453 C461 0.950 . S
H454 C459 0.950 . S
H455 C460 0.949 . S
H456 C462 0.950 . S
H457 C463 0.950 . S
H458 C464 0.949 . S
C459 H454 0.950 . S
C459 C461 1.327 . S
C459 C465 1.429 . S
C460 C452 1.574 . S
C460 H455 0.949 . S
C460 C466 1.368 . S
C461 C445 1.349 . S
C461 H453 0.950 . S
C461 C459 1.327 . S
C462 C450 1.349 . S
C462 H456 0.950 . S
C462 C463 1.327 . S
C463 H457 0.950 . S
C463 C462 1.327 . S
C463 C467 1.429 . S
C464 C447 1.574 . S
C464 H458 0.949 . S
C464 C468 1.368 . S
C465 C446 1.429 . S
C465 C459 1.429 . S
C465 C466 1.523 . S
C466 C447 1.368 . S
C466 C460 1.368 . S
C466 C465 1.523 . S
C467 C451 1.429 . S
C467 C463 1.429 . S
C467 C468 1.523 . S
C468 C452 1.368 . S
C468 C464 1.368 . S
C468 C467 1.523 . S
H469 C444 0.950 . S
H470 C446 0.950 . S
H471 C447 0.949 . S
H472 C449 0.950 . S
H473 C451 0.950 . S
C474 C475 1.349 . S
C474 C476 1.327 . S
C474 H499 0.950 . S
C475 C474 1.349 . S
C475 C491 1.349 . S
C476 C474 1.327 . S
C476 C495 1.429 . S
C476 H500 0.950 . S
C477 C494 1.574 . S
C477 C496 1.368 . S
C477 H501 0.949 . S
H478 C482 0.949 . S
C479 C480 1.349 . S
C479 C481 1.327 . S
C479 H502 0.950 . S
C480 C479 1.349 . S
C480 C492 1.349 . S
C481 C479 1.327 . S
C481 C497 1.429 . S
C481 H503 0.950 . S
C482 H478 0.949 . S
C482 C490 1.574 . S
C482 C498 1.368 . S
H483 C491 0.950 . S
H484 C489 0.950 . S
H485 C490 0.949 . S
H486 C492 0.950 . S
H487 C493 0.950 . S
H488 C494 0.949 . S
C489 H484 0.950 . S
C489 C491 1.327 . S
C489 C495 1.429 . S
C490 C482 1.574 . S
C490 H485 0.949 . S
C490 C496 1.368 . S
C491 C475 1.349 . S
C491 H483 0.950 . S
C491 C489 1.327 . S
C492 C480 1.349 . S
C492 H486 0.950 . S
C492 C493 1.327 . S
C493 H487 0.950 . S
C493 C492 1.327 . S
C493 C497 1.429 . S
C494 C477 1.574 . S
C494 H488 0.949 . S
C494 C498 1.368 . S
C495 C476 1.429 . S
C495 C489 1.429 . S
C495 C496 1.523 . S
C496 C477 1.368 . S
C496 C490 1.368 . S
C496 C495 1.523 . S
C497 C481 1.429 . S
C497 C493 1.429 . S
C497 C498 1.523 . S
C498 C482 1.368 . S
C498 C494 1.368 . S
C498 C497 1.523 . S
H499 C474 0.950 . S
H500 C476 0.950 . S
H501 C477 0.949 . S
H502 C479 0.950 . S
H503 C481 0.950 . S
C504 C505 1.349 . S
C504 C506 1.327 . S
C504 H529 0.950 . S
C505 C504 1.349 . S
C505 C521 1.349 . S
C506 C504 1.327 . S
C506 C525 1.429 . S
C506 H530 0.950 . S
C507 C524 1.574 . S
C507 C526 1.368 1_554 S
C507 H531 0.949 . S
H508 C512 0.949 . S
C509 C510 1.349 . S
C509 C511 1.327 . S
C509 H532 0.950 . S
C510 C509 1.349 . S
C510 C522 1.349 . S
C511 C509 1.327 . S
C511 C527 1.429 . S
C511 H533 0.950 . S
C512 H508 0.949 . S
C512 C520 1.574 . S
C512 C528 1.368 1_556 S
H513 C521 0.950 . S
H514 C519 0.950 . S
H515 C520 0.949 . S
H516 C522 0.950 . S
H517 C523 0.950 . S
H518 C524 0.949 . S
C519 H514 0.950 . S
C519 C521 1.327 . S
C519 C525 1.429 . S
C520 C512 1.574 . S
C520 H515 0.949 . S
C520 C526 1.368 . S
C521 C505 1.349 . S
C521 H513 0.950 . S
C521 C519 1.327 . S
C522 C510 1.349 . S
C522 H516 0.950 . S
C522 C523 1.327 . S
C523 H517 0.950 . S
C523 C522 1.327 . S
C523 C527 1.429 . S
C524 C507 1.574 . S
C524 H518 0.949 . S
C524 C528 1.368 . S
C525 C506 1.429 . S
C525 C519 1.429 . S
C525 C526 1.523 . S
C526 C507 1.368 1_556 S
C526 C520 1.368 . S
C526 C525 1.523 . S
C527 C511 1.429 . S
C527 C523 1.429 . S
C527 C528 1.523 . S
C528 C512 1.368 1_554 S
C528 C524 1.368 . S
C528 C527 1.523 . S
H529 C504 0.950 . S
H530 C506 0.950 . S
H531 C507 0.949 . S
H532 C509 0.950 . S
H533 C511 0.950 . S
C534 C535 1.349 . S
C534 C536 1.327 . S
C534 H559 0.950 . S
C535 C534 1.349 . S
C535 C551 1.349 . S
C536 C534 1.327 . S
C536 C555 1.429 . S
C536 H560 0.950 . S
C537 C554 1.574 . S
C537 C556 1.368 . S
C537 H561 0.949 . S
H538 C542 0.949 . S
C539 C540 1.349 . S
C539 C541 1.327 . S
C539 H562 0.950 . S
C540 C539 1.349 . S
C540 C552 1.349 . S
C541 C539 1.327 . S
C541 C557 1.429 . S
C541 H563 0.950 . S
C542 H538 0.949 . S
C542 C550 1.574 . S
C542 C558 1.368 . S
H543 C551 0.950 . S
H544 C549 0.950 . S
H545 C550 0.949 . S
H546 C552 0.950 . S
H547 C553 0.950 . S
H548 C554 0.949 . S
C549 H544 0.950 . S
C549 C551 1.327 . S
C549 C555 1.429 . S
C550 C542 1.574 . S
C550 H545 0.949 . S
C550 C556 1.368 1_556 S
C551 C535 1.349 . S
C551 H543 0.950 . S
C551 C549 1.327 . S
C552 C540 1.349 . S
C552 H546 0.950 . S
C552 C553 1.327 . S
C553 H547 0.950 . S
C553 C552 1.327 . S
C553 C557 1.429 . S
C554 C537 1.574 . S
C554 H548 0.949 . S
C554 C558 1.368 1_554 S
C555 C536 1.429 . S
C555 C549 1.429 . S
C555 C556 1.523 . S
C556 C537 1.368 . S
C556 C550 1.368 1_554 S
C556 C555 1.523 . S
C557 C541 1.429 . S
C557 C553 1.429 . S
C557 C558 1.523 . S
C558 C542 1.368 . S
C558 C554 1.368 1_556 S
C558 C557 1.523 . S
H559 C534 0.950 . S
H560 C536 0.950 . S
H561 C537 0.949 . S
H562 C539 0.950 . S
H563 C541 0.950 . S
C564 C565 1.349 . S
C564 C566 1.327 . S
C564 H589 0.950 . S
C565 C564 1.349 . S
C565 C581 1.349 . S
C566 C564 1.327 . S
C566 C585 1.429 . S
C566 H590 0.950 . S
C567 C584 1.570 1_556 S
C567 C586 1.373 . S
C567 H591 0.948 1_556 S
H568 C572 0.949 . S
C569 C570 1.349 . S
C569 C571 1.327 . S
C569 H592 0.950 . S
C570 C569 1.349 . S
C570 C582 1.349 . S
C571 C569 1.327 . S
C571 C587 1.429 . S
C571 H593 0.950 . S
C572 H568 0.949 . S
C572 C580 1.574 . S
C572 C588 1.368 1_556 S
H573 C581 0.950 . S
H574 C579 0.950 . S
H575 C580 0.949 . S
H576 C582 0.950 . S
H577 C583 0.950 . S
H578 C584 0.949 . S
C579 H574 0.950 . S
C579 C581 1.327 . S
C579 C585 1.429 . S
C580 C572 1.574 . S
C580 H575 0.949 . S
C580 C586 1.368 . S
C581 C565 1.349 . S
C581 H573 0.950 . S
C581 C579 1.327 . S
C582 C570 1.349 . S
C582 H576 0.950 . S
C582 C583 1.327 . S
C583 H577 0.950 . S
C583 C582 1.327 . S
C583 C587 1.429 . S
C584 C567 1.570 1_554 S
C584 H578 0.949 . S
C584 C588 1.368 . S
C585 C566 1.429 . S
C585 C579 1.429 . S
C585 C586 1.523 . S
C586 C567 1.373 . S
C586 C580 1.368 . S
C586 C585 1.523 . S
C587 C571 1.429 . S
C587 C583 1.429 . S
C587 C588 1.523 . S
C588 C572 1.368 1_554 S
C588 C584 1.368 . S
C588 C587 1.523 . S
H589 C564 0.950 . S
H590 C566 0.950 . S
H591 C567 0.948 1_554 S
H592 C569 0.950 . S
H593 C571 0.950 . S
C594 C595 1.349 . S
C594 C596 1.327 . S
C594 H619 0.950 . S
C595 C594 1.349 . S
C595 C611 1.349 . S
C596 C594 1.327 . S
C596 C615 1.429 . S
C596 H620 0.950 . S
C597 C614 1.574 . S
C597 C616 1.368 . S
C597 H621 0.949 . S
H598 C602 0.949 . S
C599 C600 1.349 . S
C599 C601 1.327 . S
C599 H622 0.950 . S
C600 C599 1.349 . S
C600 C612 1.349 . S
C601 C599 1.327 . S
C601 C617 1.429 . S
C601 H623 0.950 . S
C602 H598 0.949 . S
C602 C610 1.574 . S
C602 C618 1.368 . S
H603 C611 0.950 . S
H604 C609 0.950 . S
H605 C610 0.949 . S
H606 C612 0.950 . S
H607 C613 0.950 . S
H608 C614 0.949 . S
C609 H604 0.950 . S
C609 C611 1.327 . S
C609 C615 1.429 . S
C610 C602 1.574 . S
C610 H605 0.949 . S
C610 C616 1.368 . S
C611 C595 1.349 . S
C611 H603 0.950 . S
C611 C609 1.327 . S
C612 C600 1.349 . S
C612 H606 0.950 . S
C612 C613 1.327 . S
C613 H607 0.950 . S
C613 C612 1.327 . S
C613 C617 1.429 . S
C614 C597 1.574 . S
C614 H608 0.949 . S
C614 C618 1.368 . S
C615 C596 1.429 . S
C615 C609 1.429 . S
C615 C616 1.523 . S
C616 C597 1.368 . S
C616 C610 1.368 . S
C616 C615 1.523 . S
C617 C601 1.429 . S
C617 C613 1.429 . S
C617 C618 1.523 . S
C618 C602 1.368 . S
C618 C614 1.368 . S
C618 C617 1.523 . S
H619 C594 0.950 . S
H620 C596 0.950 . S
H621 C597 0.949 . S
H622 C599 0.950 . S
H623 C601 0.950 . S
C624 C625 1.349 . S
C624 C626 1.327 . S
C624 H649 0.950 . S
C625 C624 1.349 . S
C625 C641 1.349 . S
C626 C624 1.327 . S
C626 C645 1.429 . S
C626 H650 0.950 . S
C627 C644 1.574 . S
C627 C646 1.368 . S
C627 H651 0.949 . S
H628 C632 0.949 . S
C629 C630 1.349 . S
C629 C631 1.327 . S
C629 H652 0.950 . S
C630 C629 1.349 . S
C630 C642 1.349 . S
C631 C629 1.327 . S
C631 C647 1.429 . S
C631 H653 0.950 . S
C632 H628 0.949 . S
C632 C640 1.574 . S
C632 C648 1.368 . S
H633 C641 0.950 . S
H634 C639 0.950 . S
H635 C640 0.949 . S
H636 C642 0.950 . S
H637 C643 0.950 . S
H638 C644 0.949 . S
C639 H634 0.950 . S
C639 C641 1.327 . S
C639 C645 1.429 . S
C640 C632 1.574 . S
C640 H635 0.949 . S
C640 C646 1.368 . S
C641 C625 1.349 . S
C641 H633 0.950 . S
C641 C639 1.327 . S
C642 C630 1.349 . S
C642 H636 0.950 . S
C642 C643 1.327 . S
C643 H637 0.950 . S
C643 C642 1.327 . S
C643 C647 1.429 . S
C644 C627 1.574 . S
C644 H638 0.949 . S
C644 C648 1.368 . S
C645 C626 1.429 . S
C645 C639 1.429 . S
C645 C646 1.523 . S
C646 C627 1.368 . S
C646 C640 1.368 . S
C646 C645 1.523 . S
C647 C631 1.429 . S
C647 C643 1.429 . S
C647 C648 1.523 . S
C648 C632 1.368 . S
C648 C644 1.368 . S
C648 C647 1.523 . S
H649 C624 0.950 . S
H650 C626 0.950 . S
H651 C627 0.949 . S
H652 C629 0.950 . S
H653 C631 0.950 . S
C654 C655 1.349 . S
C654 C656 1.327 . S
C654 H679 0.950 . S
C655 C654 1.349 . S
C655 C671 1.349 . S
C656 C654 1.327 . S
C656 C675 1.429 . S
C656 H680 0.950 . S
C657 C674 1.574 . S
C657 C676 1.368 . S
C657 H681 0.949 . S
H658 C662 0.949 . S
C659 C660 1.349 . S
C659 C661 1.327 . S
C659 H682 0.950 . S
C660 C659 1.349 . S
C660 C672 1.349 . S
C661 C659 1.327 . S
C661 C677 1.429 . S
C661 H683 0.950 . S
C662 H658 0.949 . S
C662 C670 1.574 . S
C662 C678 1.368 . S
H663 C671 0.950 . S
H664 C669 0.950 . S
H665 C670 0.949 . S
H666 C672 0.950 . S
H667 C673 0.950 . S
H668 C674 0.949 . S
C669 H664 0.950 . S
C669 C671 1.327 . S
C669 C675 1.429 . S
C670 C662 1.574 . S
C670 H665 0.949 . S
C670 C676 1.368 . S
C671 C655 1.349 . S
C671 H663 0.950 . S
C671 C669 1.327 . S
C672 C660 1.349 . S
C672 H666 0.950 . S
C672 C673 1.327 . S
C673 H667 0.950 . S
C673 C672 1.327 . S
C673 C677 1.429 . S
C674 C657 1.574 . S
C674 H668 0.949 . S
C674 C678 1.368 . S
C675 C656 1.429 . S
C675 C669 1.429 . S
C675 C676 1.523 . S
C676 C657 1.368 . S
C676 C670 1.368 . S
C676 C675 1.523 . S
C677 C661 1.429 . S
C677 C673 1.429 . S
C677 C678 1.523 . S
C678 C662 1.368 . S
C678 C674 1.368 . S
C678 C677 1.523 . S
H679 C654 0.950 . S
H680 C656 0.950 . S
H681 C657 0.949 . S
H682 C659 0.950 . S
H683 C661 0.950 . S
C684 C685 1.349 . S
C684 C686 1.327 . S
C684 H709 0.950 . S
C685 C684 1.349 . S
C685 C701 1.349 . S
C686 C684 1.327 . S
C686 C705 1.429 . S
C686 H710 0.950 . S
C687 C704 1.574 1_554 S
C687 C706 1.368 . S
C687 H711 0.949 1_554 S
H688 C692 0.949 . S
C689 C690 1.349 . S
C689 C691 1.327 . S
C689 H712 0.950 . S
C690 C689 1.349 . S
C690 C702 1.349 . S
C691 C689 1.327 . S
C691 C707 1.429 . S
C691 H713 0.950 . S
C692 H688 0.949 . S
C692 C700 1.574 . S
C692 C708 1.368 1_554 S
H693 C701 0.950 . S
H694 C699 0.950 . S
H695 C700 0.949 . S
H696 C702 0.950 . S
H697 C703 0.950 . S
H698 C704 0.949 . S
C699 H694 0.950 . S
C699 C701 1.327 . S
C699 C705 1.429 . S
C700 C692 1.574 . S
C700 H695 0.949 . S
C700 C706 1.368 . S
C701 C685 1.349 . S
C701 H693 0.950 . S
C701 C699 1.327 . S
C702 C690 1.349 . S
C702 H696 0.950 . S
C702 C703 1.327 . S
C703 H697 0.950 . S
C703 C702 1.327 . S
C703 C707 1.429 . S
C704 C687 1.574 1_556 S
C704 H698 0.949 . S
C704 C708 1.368 . S
C705 C686 1.429 . S
C705 C699 1.429 . S
C705 C706 1.523 . S
C706 C687 1.368 . S
C706 C700 1.368 . S
C706 C705 1.523 . S
C707 C691 1.429 . S
C707 C703 1.429 . S
C707 C708 1.523 . S
C708 C692 1.368 1_556 S
C708 C704 1.368 . S
C708 C707 1.523 . S
H709 C684 0.950 . S
H710 C686 0.950 . S
H711 C687 0.949 1_556 S
H712 C689 0.950 . S
H713 C691 0.950 . S
C714 C715 1.349 . S
C714 C716 1.327 . S
C714 H739 0.950 . S
C715 C714 1.349 . S
C715 C731 1.349 . S
C716 C714 1.327 . S
C716 C735 1.429 . S
C716 H740 0.950 . S
C717 C734 1.574 1_556 S
C717 C736 1.368 . S
C717 H741 0.949 . S
H718 C722 0.949 . S
C719 C720 1.349 . S
C719 C721 1.327 . S
C719 H742 0.950 . S
C720 C719 1.349 . S
C720 C732 1.349 . S
C721 C719 1.327 . S
C721 C737 1.429 . S
C721 H743 0.950 . S
C722 H718 0.949 . S
C722 C730 1.574 . S
C722 C738 1.368 . S
H723 C731 0.950 . S
H724 C729 0.950 . S
H725 C730 0.949 . S
H726 C732 0.950 . S
H727 C733 0.950 . S
H728 C734 0.949 . S
C729 H724 0.950 . S
C729 C731 1.327 . S
C729 C735 1.429 . S
C730 C722 1.574 . S
C730 H725 0.949 . S
C730 C736 1.368 1_554 S
C731 C715 1.349 . S
C731 H723 0.950 . S
C731 C729 1.327 . S
C732 C720 1.349 . S
C732 H726 0.950 . S
C732 C733 1.327 . S
C733 H727 0.950 . S
C733 C732 1.327 . S
C733 C737 1.429 . S
C734 C717 1.574 1_554 S
C734 H728 0.949 . S
C734 C738 1.368 . S
C735 C716 1.429 . S
C735 C729 1.429 . S
C735 C736 1.523 . S
C736 C717 1.368 . S
C736 C730 1.368 1_556 S
C736 C735 1.523 . S
C737 C721 1.429 . S
C737 C733 1.429 . S
C737 C738 1.523 . S
C738 C722 1.368 . S
C738 C734 1.368 . S
C738 C737 1.523 . S
H739 C714 0.950 . S
H740 C716 0.950 . S
H741 C717 0.949 . S
H742 C719 0.950 . S
H743 C721 0.950 . S
C744 C745 1.349 . S
C744 C746 1.327 . S
C744 H769 0.950 . S
C745 C744 1.349 . S
C745 C761 1.349 . S
C746 C744 1.327 . S
C746 C765 1.429 . S
C746 H770 0.950 . S
C747 C764 1.574 1_556 S
C747 C766 1.368 . S
C747 H771 0.949 . S
H748 C752 0.949 . S
C749 C750 1.349 . S
C749 C751 1.327 . S
C749 H772 0.950 . S
C750 C749 1.349 . S
C750 C762 1.349 . S
C751 C749 1.327 . S
C751 C767 1.429 . S
C751 H773 0.950 . S
C752 H748 0.949 . S
C752 C760 1.574 . S
C752 C768 1.368 . S
H753 C761 0.950 . S
H754 C759 0.950 . S
H755 C760 0.949 . S
H756 C762 0.950 . S
H757 C763 0.950 . S
H758 C764 0.949 1_556 S
C759 H754 0.950 . S
C759 C761 1.327 . S
C759 C765 1.429 . S
C760 C752 1.574 . S
C760 H755 0.949 . S
C760 C766 1.368 1_554 S
C761 C745 1.349 . S
C761 H753 0.950 . S
C761 C759 1.327 . S
C762 C750 1.349 . S
C762 H756 0.950 . S
C762 C763 1.327 . S
C763 H757 0.950 . S
C763 C762 1.327 . S
C763 C767 1.429 . S
C764 C747 1.574 1_554 S
C764 H758 0.949 1_554 S
C764 C768 1.368 . S
C765 C746 1.429 . S
C765 C759 1.429 . S
C765 C766 1.523 . S
C766 C747 1.368 . S
C766 C760 1.368 1_556 S
C766 C765 1.523 . S
C767 C751 1.429 . S
C767 C763 1.429 . S
C767 C768 1.523 . S
C768 C752 1.368 . S
C768 C764 1.368 . S
C768 C767 1.523 . S
H769 C744 0.950 . S
H770 C746 0.950 . S
H771 C747 0.949 . S
H772 C749 0.950 . S
H773 C751 0.950 . S
C774 C775 1.349 . S
C774 C776 1.327 . S
C774 H799 0.950 . S
C775 C774 1.349 . S
C775 C791 1.349 . S
C776 C774 1.327 . S
C776 C795 1.429 . S
C776 H800 0.950 . S
C777 C794 1.574 . S
C777 C796 1.368 . S
C777 H801 0.949 . S
H778 C782 0.949 . S
C779 C780 1.349 . S
C779 C781 1.327 . S
C779 H802 0.950 . S
C780 C779 1.349 . S
C780 C792 1.349 . S
C781 C779 1.327 . S
C781 C797 1.429 . S
C781 H803 0.950 . S
C782 H778 0.949 . S
C782 C790 1.574 . S
C782 C798 1.368 . S
H783 C791 0.950 . S
H784 C789 0.950 . S
H785 C790 0.949 . S
H786 C792 0.950 1_554 S
H787 C793 0.950 . S
H788 C794 0.949 . S
C789 H784 0.950 . S
C789 C791 1.327 . S
C789 C795 1.429 . S
C790 C782 1.574 . S
C790 H785 0.949 . S
C790 C796 1.368 . S
C791 C775 1.349 . S
C791 H783 0.950 . S
C791 C789 1.327 . S
C792 C780 1.349 . S
C792 H786 0.950 1_556 S
C792 C793 1.327 . S
C793 H787 0.950 . S
C793 C792 1.327 . S
C793 C797 1.429 . S
C794 C777 1.574 . S
C794 H788 0.949 . S
C794 C798 1.368 . S
C795 C776 1.429 . S
C795 C789 1.429 . S
C795 C796 1.523 . S
C796 C777 1.368 . S
C796 C790 1.368 . S
C796 C795 1.523 . S
C797 C781 1.429 . S
C797 C793 1.429 . S
C797 C798 1.523 . S
C798 C782 1.368 . S
C798 C794 1.368 . S
C798 C797 1.523 . S
H799 C774 0.950 . S
H800 C776 0.950 . S
H801 C777 0.949 . S
H802 C779 0.950 . S
H803 C781 0.950 . S
C804 C805 1.349 . S
C804 C806 1.327 . S
C804 H829 0.950 . S
C805 C804 1.349 . S
C805 C821 1.349 . S
C806 C804 1.327 . S
C806 C825 1.429 . S
C806 H830 0.950 . S
C807 C824 1.574 . S
C807 C826 1.368 . S
C807 H831 0.949 . S
H808 C812 0.949 . S
C809 C810 1.349 . S
C809 C811 1.327 . S
C809 H832 0.950 . S
C810 C809 1.349 . S
C810 C822 1.349 . S
C811 C809 1.327 . S
C811 C827 1.429 . S
C811 H833 0.950 . S
C812 H808 0.949 . S
C812 C820 1.574 . S
C812 C828 1.368 . S
H813 C821 0.950 . S
H814 C819 0.950 . S
H815 C820 0.949 . S
H816 C822 0.950 . S
H817 C823 0.950 . S
H818 C824 0.949 . S
C819 H814 0.950 . S
C819 C821 1.327 . S
C819 C825 1.429 . S
C820 C812 1.574 . S
C820 H815 0.949 . S
C820 C826 1.368 . S
C821 C805 1.349 . S
C821 H813 0.950 . S
C821 C819 1.327 . S
C822 C810 1.349 . S
C822 H816 0.950 . S
C822 C823 1.327 . S
C823 H817 0.950 . S
C823 C822 1.327 . S
C823 C827 1.429 . S
C824 C807 1.574 . S
C824 H818 0.949 . S
C824 C828 1.368 . S
C825 C806 1.429 . S
C825 C819 1.429 . S
C825 C826 1.523 . S
C826 C807 1.368 . S
C826 C820 1.368 . S
C826 C825 1.523 . S
C827 C811 1.429 . S
C827 C823 1.429 . S
C827 C828 1.523 . S
C828 C812 1.368 . S
C828 C824 1.368 . S
C828 C827 1.523 . S
H829 C804 0.950 . S
H830 C806 0.950 . S
H831 C807 0.949 . S
H832 C809 0.950 . S
H833 C811 0.950 . S
C834 C835 1.349 . S
C834 C836 1.327 . S
C834 H859 0.950 . S
C835 C834 1.349 . S
C835 C851 1.349 . S
C836 C834 1.327 . S
C836 C855 1.429 . S
C836 H860 0.950 . S
C837 C854 1.574 . S
C837 C856 1.368 . S
C837 H861 0.949 . S
H838 C842 0.949 . S
C839 C840 1.349 . S
C839 C841 1.327 . S
C839 H862 0.950 . S
C840 C839 1.349 . S
C840 C852 1.349 . S
C841 C839 1.327 . S
C841 C857 1.429 . S
C841 H863 0.950 . S
C842 H838 0.949 . S
C842 C850 1.574 . S
C842 C858 1.368 . S
H843 C851 0.950 1_554 S
H844 C849 0.950 . S
H845 C850 0.949 . S
H846 C852 0.950 . S
H847 C853 0.950 . S
H848 C854 0.949 . S
C849 H844 0.950 . S
C849 C851 1.327 . S
C849 C855 1.429 . S
C850 C842 1.574 . S
C850 H845 0.949 . S
C850 C856 1.368 . S
C851 C835 1.349 . S
C851 H843 0.950 1_556 S
C851 C849 1.327 . S
C852 C840 1.349 . S
C852 H846 0.950 . S
C852 C853 1.327 . S
C853 H847 0.950 . S
C853 C852 1.327 . S
C853 C857 1.429 . S
C854 C837 1.574 . S
C854 H848 0.949 . S
C854 C858 1.368 . S
C855 C836 1.429 . S
C855 C849 1.429 . S
C855 C856 1.523 . S
C856 C837 1.368 . S
C856 C850 1.368 . S
C856 C855 1.523 . S
C857 C841 1.429 . S
C857 C853 1.429 . S
C857 C858 1.523 . S
C858 C842 1.368 . S
C858 C854 1.368 . S
C858 C857 1.523 . S
H859 C834 0.950 . S
H860 C836 0.950 . S
H861 C837 0.949 . S
H862 C839 0.950 . S
H863 C841 0.950 . S
C864 C865 1.349 . S
C864 C866 1.327 . S
C864 H889 0.950 . S
C865 C864 1.349 . S
C865 C881 1.349 . S
C866 C864 1.327 . S
C866 C885 1.429 . S
C866 H890 0.950 . S
C867 C884 1.574 . S
C867 C886 1.368 . S
C867 H891 0.949 . S
H868 C872 0.949 . S
C869 C870 1.349 . S
C869 C871 1.327 . S
C869 H892 0.950 . S
C870 C869 1.349 . S
C870 C882 1.349 . S
C871 C869 1.327 . S
C871 C887 1.429 . S
C871 H893 0.950 . S
C872 H868 0.949 . S
C872 C880 1.574 . S
C872 C888 1.368 . S
H873 C881 0.950 . S
H874 C879 0.950 . S
H875 C880 0.949 . S
H876 C882 0.950 . S
H877 C883 0.950 . S
H878 C884 0.949 . S
C879 H874 0.950 . S
C879 C881 1.327 . S
C879 C885 1.429 . S
C880 C872 1.574 . S
C880 H875 0.949 . S
C880 C886 1.368 . S
C881 C865 1.349 . S
C881 H873 0.950 . S
C881 C879 1.327 . S
C882 C870 1.349 . S
C882 H876 0.950 . S
C882 C883 1.327 . S
C883 H877 0.950 . S
C883 C882 1.327 . S
C883 C887 1.429 . S
C884 C867 1.574 . S
C884 H878 0.949 . S
C884 C888 1.368 . S
C885 C866 1.429 . S
C885 C879 1.429 . S
C885 C886 1.523 . S
C886 C867 1.368 . S
C886 C880 1.368 . S
C886 C885 1.523 . S
C887 C871 1.429 . S
C887 C883 1.429 . S
C887 C888 1.523 . S
C888 C872 1.368 . S
C888 C884 1.368 . S
C888 C887 1.523 . S
H889 C864 0.950 . S
H890 C866 0.950 . S
H891 C867 0.949 . S
H892 C869 0.950 . S
H893 C871 0.950 . S
C894 C895 1.349 . S
C894 C896 1.327 . S
C894 H919 0.950 . S
C895 C894 1.349 . S
C895 C911 1.349 . S
C896 C894 1.327 . S
C896 C915 1.429 . S
C896 H920 0.950 . S
C897 C914 1.574 . S
C897 C916 1.368 . S
C897 H921 0.949 . S
H898 C902 0.949 . S
C899 C900 1.349 . S
C899 C901 1.327 . S
C899 H922 0.950 . S
C900 C899 1.349 . S
C900 C912 1.349 . S
C901 C899 1.327 . S
C901 C917 1.429 . S
C901 H923 0.950 . S
C902 H898 0.949 . S
C902 C910 1.574 . S
C902 C918 1.368 . S
H903 C911 0.950 . S
H904 C909 0.950 . S
H905 C910 0.949 . S
H906 C912 0.950 . S
H907 C913 0.950 . S
H908 C914 0.949 . S
C909 H904 0.950 . S
C909 C911 1.327 . S
C909 C915 1.429 . S
C910 C902 1.574 . S
C910 H905 0.949 . S
C910 C916 1.368 . S
C911 C895 1.349 . S
C911 H903 0.950 . S
C911 C909 1.327 . S
C912 C900 1.349 . S
C912 H906 0.950 . S
C912 C913 1.327 . S
C913 H907 0.950 . S
C913 C912 1.327 . S
C913 C917 1.429 . S
C914 C897 1.574 . S
C914 H908 0.949 . S
C914 C918 1.368 . S
C915 C896 1.429 . S
C915 C909 1.429 . S
C915 C916 1.523 . S
C916 C897 1.368 . S
C916 C910 1.368 . S
C916 C915 1.523 . S
C917 C901 1.429 . S
C917 C913 1.429 . S
C917 C918 1.523 . S
C918 C902 1.368 . S
C918 C914 1.368 . S
C918 C917 1.523 . S
H919 C894 0.950 . S
H920 C896 0.950 . S
H921 C897 0.949 . S
H922 C899 0.950 . S
H923 C901 0.950 . S
C924 C925 1.349 . S
C924 C926 1.327 . S
C924 H949 0.950 . S
C925 C924 1.349 . S
C925 C941 1.349 . S
C926 C924 1.327 . S
C926 C945 1.429 . S
C926 H950 0.950 . S
C927 C944 1.574 . S
C927 C946 1.368 . S
C927 H951 0.949 . S
H928 C932 0.949 . S
C929 C930 1.349 . S
C929 C931 1.327 . S
C929 H952 0.950 . S
C930 C929 1.349 . S
C930 C942 1.349 . S
C931 C929 1.327 . S
C931 C947 1.429 . S
C931 H953 0.950 . S
C932 H928 0.949 . S
C932 C940 1.574 . S
C932 C948 1.368 . S
H933 C941 0.950 . S
H934 C939 0.950 . S
H935 C940 0.949 . S
H936 C942 0.950 . S
H937 C943 0.950 . S
H938 C944 0.949 . S
C939 H934 0.950 . S
C939 C941 1.327 . S
C939 C945 1.429 . S
C940 C932 1.574 . S
C940 H935 0.949 . S
C940 C946 1.368 . S
C941 C925 1.349 . S
C941 H933 0.950 . S
C941 C939 1.327 . S
C942 C930 1.349 . S
C942 H936 0.950 . S
C942 C943 1.327 . S
C943 H937 0.950 . S
C943 C942 1.327 . S
C943 C947 1.429 . S
C944 C927 1.574 . S
C944 H938 0.949 . S
C944 C948 1.368 . S
C945 C926 1.429 . S
C945 C939 1.429 . S
C945 C946 1.523 . S
C946 C927 1.368 . S
C946 C940 1.368 . S
C946 C945 1.523 . S
C947 C931 1.429 . S
C947 C943 1.429 . S
C947 C948 1.523 . S
C948 C932 1.368 . S
C948 C944 1.368 . S
C948 C947 1.523 . S
H949 C924 0.950 . S
H950 C926 0.950 . S
H951 C927 0.949 . S
H952 C929 0.950 . S
H953 C931 0.950 . S
C954 C955 1.349 . S
C954 C956 1.327 . S
C954 H979 0.950 . S
C955 C954 1.349 . S
C955 C971 1.349 . S
C956 C954 1.327 . S
C956 C975 1.429 . S
C956 H980 0.950 . S
C957 C974 1.574 . S
C957 C976 1.368 . S
C957 H981 0.949 . S
H958 C962 0.949 . S
C959 C960 1.349 . S
C959 C961 1.327 . S
C959 H982 0.950 . S
C960 C959 1.349 . S
C960 C972 1.349 . S
C961 C959 1.327 . S
C961 C977 1.429 . S
C961 H983 0.950 . S
C962 H958 0.949 . S
C962 C970 1.574 . S
C962 C978 1.368 . S
H963 C971 0.950 1_554 S
H964 C969 0.950 . S
H965 C970 0.949 . S
H966 C972 0.950 . S
H967 C973 0.950 . S
H968 C974 0.949 . S
C969 H964 0.950 . S
C969 C971 1.327 . S
C969 C975 1.429 . S
C970 C962 1.574 . S
C970 H965 0.949 . S
C970 C976 1.368 . S
C971 C955 1.349 . S
C971 H963 0.950 1_556 S
C971 C969 1.327 . S
C972 C960 1.349 . S
C972 H966 0.950 . S
C972 C973 1.327 . S
C973 H967 0.950 . S
C973 C972 1.327 . S
C973 C977 1.429 . S
C974 C957 1.574 . S
C974 H968 0.949 . S
C974 C978 1.368 . S
C975 C956 1.429 . S
C975 C969 1.429 . S
C975 C976 1.523 . S
C976 C957 1.368 . S
C976 C970 1.368 . S
C976 C975 1.523 . S
C977 C961 1.429 . S
C977 C973 1.429 . S
C977 C978 1.523 . S
C978 C962 1.368 . S
C978 C974 1.368 . S
C978 C977 1.523 . S
H979 C954 0.950 . S
H980 C956 0.950 . S
H981 C957 0.949 . S
H982 C959 0.950 . S
H983 C961 0.950 . S
C984 C985 1.349 . S
C984 C986 1.327 . S
C984 H1009 0.950 . S
C985 C984 1.349 . S
C985 C1001 1.349 . S
C986 C984 1.327 . S
C986 C1005 1.429 . S
C986 H1010 0.950 . S
C987 C1004 1.574 . S
C987 C1006 1.368 . S
C987 H1011 0.949 . S
H988 C992 0.949 . S
C989 C990 1.349 . S
C989 C991 1.327 . S
C989 H1012 0.950 . S
C990 C989 1.349 . S
C990 C1002 1.349 . S
C991 C989 1.327 . S
C991 C1007 1.429 . S
C991 H1013 0.950 . S
C992 H988 0.949 . S
C992 C1000 1.574 . S
C992 C1008 1.368 . S
H993 C1001 0.950 . S
H994 C999 0.950 . S
H995 C1000 0.949 . S
H996 C1002 0.950 . S
H997 C1003 0.950 . S
H998 C1004 0.949 . S
C999 H994 0.950 . S
C999 C1001 1.327 . S
C999 C1005 1.429 . S
C1000 C992 1.574 . S
C1000 H995 0.949 . S
C1000 C1006 1.368 . S
C1001 C985 1.349 . S
C1001 H993 0.950 . S
C1001 C999 1.327 . S
C1002 C990 1.349 . S
C1002 H996 0.950 . S
C1002 C1003 1.327 . S
C1003 H997 0.950 . S
C1003 C1002 1.327 . S
C1003 C1007 1.429 . S
C1004 C987 1.574 . S
C1004 H998 0.949 . S
C1004 C1008 1.368 . S
C1005 C986 1.429 . S
C1005 C999 1.429 . S
C1005 C1006 1.523 . S
C1006 C987 1.368 . S
C1006 C1000 1.368 . S
C1006 C1005 1.523 . S
C1007 C991 1.429 . S
C1007 C1003 1.429 . S
C1007 C1008 1.523 . S
C1008 C992 1.368 . S
C1008 C1004 1.368 . S
C1008 C1007 1.523 . S
H1009 C984 0.950 . S
H1010 C986 0.950 . S
H1011 C987 0.949 . S
H1012 C989 0.950 . S
H1013 C991 0.950 . S
C1014 C1015 1.349 . S
C1014 C1016 1.327 . S
C1014 H1039 0.950 . S
C1015 C1014 1.349 . S
C1015 C1031 1.349 . S
C1016 C1014 1.327 . S
C1016 C1035 1.429 . S
C1016 H1040 0.950 . S
C1017 C1034 1.574 . S
C1017 C1036 1.368 . S
C1017 H1041 0.949 . S
H1018 C1022 0.949 . S
C1019 C1020 1.349 . S
C1019 C1021 1.327 . S
C1019 H1042 0.950 . S
C1020 C1019 1.349 . S
C1020 C1032 1.349 . S
C1021 C1019 1.327 . S
C1021 C1037 1.429 . S
C1021 H1043 0.950 . S
C1022 H1018 0.949 . S
C1022 C1030 1.574 . S
C1022 C1038 1.368 . S
H1023 C1031 0.950 . S
H1024 C1029 0.950 . S
H1025 C1030 0.949 . S
H1026 C1032 0.950 . S
H1027 C1033 0.950 . S
H1028 C1034 0.949 . S
C1029 H1024 0.950 . S
C1029 C1031 1.327 . S
C1029 C1035 1.429 . S
C1030 C1022 1.574 . S
C1030 H1025 0.949 . S
C1030 C1036 1.368 . S
C1031 C1015 1.349 . S
C1031 H1023 0.950 . S
C1031 C1029 1.327 . S
C1032 C1020 1.349 . S
C1032 H1026 0.950 . S
C1032 C1033 1.327 . S
C1033 H1027 0.950 . S
C1033 C1032 1.327 . S
C1033 C1037 1.429 . S
C1034 C1017 1.574 . S
C1034 H1028 0.949 . S
C1034 C1038 1.368 . S
C1035 C1016 1.429 . S
C1035 C1029 1.429 . S
C1035 C1036 1.523 . S
C1036 C1017 1.368 . S
C1036 C1030 1.368 . S
C1036 C1035 1.523 . S
C1037 C1021 1.429 . S
C1037 C1033 1.429 . S
C1037 C1038 1.523 . S
C1038 C1022 1.368 . S
C1038 C1034 1.368 . S
C1038 C1037 1.523 . S
H1039 C1014 0.950 . S
H1040 C1016 0.950 . S
H1041 C1017 0.949 . S
H1042 C1019 0.950 . S
H1043 C1021 0.950 . S
C1044 C1045 1.349 . S
C1044 C1046 1.327 . S
C1044 H1069 0.950 . S
C1045 C1044 1.349 . S
C1045 C1061 1.349 . S
C1046 C1044 1.327 . S
C1046 C1065 1.429 . S
C1046 H1070 0.950 . S
C1047 C1064 1.574 . S
C1047 C1066 1.368 . S
C1047 H1071 0.949 . S
H1048 C1052 0.949 . S
C1049 C1050 1.349 . S
C1049 C1051 1.327 . S
C1049 H1072 0.950 . S
C1050 C1049 1.349 . S
C1050 C1062 1.349 . S
C1051 C1049 1.327 . S
C1051 C1067 1.429 . S
C1051 H1073 0.950 . S
C1052 H1048 0.949 . S
C1052 C1060 1.574 . S
C1052 C1068 1.368 . S
H1053 C1061 0.950 . S
H1054 C1059 0.950 . S
H1055 C1060 0.949 . S
H1056 C1062 0.950 . S
H1057 C1063 0.950 . S
H1058 C1064 0.949 . S
C1059 H1054 0.950 . S
C1059 C1061 1.327 . S
C1059 C1065 1.429 . S
C1060 C1052 1.574 . S
C1060 H1055 0.949 . S
C1060 C1066 1.368 . S
C1061 C1045 1.349 . S
C1061 H1053 0.950 . S
C1061 C1059 1.327 . S
C1062 C1050 1.349 . S
C1062 H1056 0.950 . S
C1062 C1063 1.327 . S
C1063 H1057 0.950 . S
C1063 C1062 1.327 . S
C1063 C1067 1.429 . S
C1064 C1047 1.574 . S
C1064 H1058 0.949 . S
C1064 C1068 1.368 . S
C1065 C1046 1.429 . S
C1065 C1059 1.429 . S
C1065 C1066 1.523 . S
C1066 C1047 1.368 . S
C1066 C1060 1.368 . S
C1066 C1065 1.523 . S
C1067 C1051 1.429 . S
C1067 C1063 1.429 . S
C1067 C1068 1.523 . S
C1068 C1052 1.368 . S
C1068 C1064 1.368 . S
C1068 C1067 1.523 . S
H1069 C1044 0.950 . S
H1070 C1046 0.950 . S
H1071 C1047 0.949 . S
H1072 C1049 0.950 . S
H1073 C1051 0.950 . S
C1074 C1075 1.349 . S
C1074 C1076 1.327 . S
C1074 H1099 0.950 . S
C1075 C1074 1.349 . S
C1075 C1091 1.349 . S
C1076 C1074 1.327 . S
C1076 C1095 1.429 . S
C1076 H1100 0.950 . S
C1077 C1094 1.574 . S
C1077 C1096 1.368 . S
C1077 H1101 0.949 . S
H1078 C1082 0.949 . S
C1079 C1080 1.349 . S
C1079 C1081 1.327 . S
C1079 H1102 0.950 . S
C1080 C1079 1.349 . S
C1080 C1092 1.349 . S
C1081 C1079 1.327 . S
C1081 C1097 1.429 . S
C1081 H1103 0.950 . S
C1082 H1078 0.949 . S
C1082 C1090 1.574 . S
C1082 C1098 1.368 . S
H1083 C1091 0.950 . S
H1084 C1089 0.950 . S
H1085 C1090 0.949 . S
H1086 C1092 0.950 . S
H1087 C1093 0.950 . S
H1088 C1094 0.949 . S
C1089 H1084 0.950 . S
C1089 C1091 1.327 . S
C1089 C1095 1.429 . S
C1090 C1082 1.574 . S
C1090 H1085 0.949 . S
C1090 C1096 1.368 . S
C1091 C1075 1.349 . S
C1091 H1083 0.950 . S
C1091 C1089 1.327 . S
C1092 C1080 1.349 . S
C1092 H1086 0.950 . S
C1092 C1093 1.327 . S
C1093 H1087 0.950 . S
C1093 C1092 1.327 . S
C1093 C1097 1.429 . S
C1094 C1077 1.574 . S
C1094 H1088 0.949 . S
C1094 C1098 1.368 . S
C1095 C1076 1.429 . S
C1095 C1089 1.429 . S
C1095 C1096 1.523 . S
C1096 C1077 1.368 . S
C1096 C1090 1.368 . S
C1096 C1095 1.523 . S
C1097 C1081 1.429 . S
C1097 C1093 1.429 . S
C1097 C1098 1.523 . S
C1098 C1082 1.368 . S
C1098 C1094 1.368 . S
C1098 C1097 1.523 . S
H1099 C1074 0.950 . S
H1100 C1076 0.950 . S
H1101 C1077 0.949 . S
H1102 C1079 0.950 . S
H1103 C1081 0.950 . S
C1104 C1105 1.349 . S
C1104 C1106 1.327 . S
C1104 H1129 0.950 . S
C1105 C1104 1.349 . S
C1105 C1121 1.349 . S
C1106 C1104 1.327 . S
C1106 C1125 1.429 . S
C1106 H1130 0.950 . S
C1107 C1124 1.574 . S
C1107 C1126 1.368 . S
C1107 H1131 0.949 . S
H1108 C1112 0.949 . S
C1109 C1110 1.349 . S
C1109 C1111 1.327 . S
C1109 H1132 0.950 . S
C1110 C1109 1.349 . S
C1110 C1122 1.349 . S
C1111 C1109 1.327 . S
C1111 C1127 1.429 . S
C1111 H1133 0.950 . S
C1112 H1108 0.949 . S
C1112 C1120 1.574 . S
C1112 C1128 1.368 . S
H1113 C1121 0.950 . S
H1114 C1119 0.950 . S
H1115 C1120 0.949 . S
H1116 C1122 0.950 . S
H1117 C1123 0.950 . S
H1118 C1124 0.949 . S
C1119 H1114 0.950 . S
C1119 C1121 1.327 . S
C1119 C1125 1.429 . S
C1120 C1112 1.574 . S
C1120 H1115 0.949 . S
C1120 C1126 1.368 . S
C1121 C1105 1.349 . S
C1121 H1113 0.950 . S
C1121 C1119 1.327 . S
C1122 C1110 1.349 . S
C1122 H1116 0.950 . S
C1122 C1123 1.327 . S
C1123 H1117 0.950 . S
C1123 C1122 1.327 . S
C1123 C1127 1.429 . S
C1124 C1107 1.574 . S
C1124 H1118 0.949 . S
C1124 C1128 1.368 . S
C1125 C1106 1.429 . S
C1125 C1119 1.429 . S
C1125 C1126 1.523 . S
C1126 C1107 1.368 . S
C1126 C1120 1.368 . S
C1126 C1125 1.523 . S
C1127 C1111 1.429 . S
C1127 C1123 1.429 . S
C1127 C1128 1.523 . S
C1128 C1112 1.368 . S
C1128 C1124 1.368 . S
C1128 C1127 1.523 . S
H1129 C1104 0.950 . S
H1130 C1106 0.950 . S
H1131 C1107 0.949 . S
H1132 C1109 0.950 . S
H1133 C1111 0.950 . S
C1134 C1135 1.349 . S
C1134 C1136 1.327 . S
C1134 H1159 0.950 . S
C1135 C1134 1.349 . S
C1135 C1151 1.349 . S
C1136 C1134 1.327 . S
C1136 C1155 1.429 . S
C1136 H1160 0.950 . S
C1137 C1154 1.574 . S
C1137 C1156 1.368 . S
C1137 H1161 0.949 . S
H1138 C1142 0.949 . S
C1139 C1140 1.349 . S
C1139 C1141 1.327 . S
C1139 H1162 0.950 . S
C1140 C1139 1.349 . S
C1140 C1152 1.349 . S
C1141 C1139 1.327 . S
C1141 C1157 1.429 . S
C1141 H1163 0.950 . S
C1142 H1138 0.949 . S
C1142 C1150 1.574 . S
C1142 C1158 1.368 . S
H1143 C1151 0.950 . S
H1144 C1149 0.950 . S
H1145 C1150 0.949 . S
H1146 C1152 0.950 . S
H1147 C1153 0.950 . S
H1148 C1154 0.949 . S
C1149 H1144 0.950 . S
C1149 C1151 1.327 . S
C1149 C1155 1.429 . S
C1150 C1142 1.574 . S
C1150 H1145 0.949 . S
C1150 C1156 1.368 . S
C1151 C1135 1.349 . S
C1151 H1143 0.950 . S
C1151 C1149 1.327 . S
C1152 C1140 1.349 . S
C1152 H1146 0.950 . S
C1152 C1153 1.327 . S
C1153 H1147 0.950 . S
C1153 C1152 1.327 . S
C1153 C1157 1.429 . S
C1154 C1137 1.574 . S
C1154 H1148 0.949 . S
C1154 C1158 1.368 . S
C1155 C1136 1.429 . S
C1155 C1149 1.429 . S
C1155 C1156 1.523 . S
C1156 C1137 1.368 . S
C1156 C1150 1.368 . S
C1156 C1155 1.523 . S
C1157 C1141 1.429 . S
C1157 C1153 1.429 . S
C1157 C1158 1.523 . S
C1158 C1142 1.368 . S
C1158 C1154 1.368 . S
C1158 C1157 1.523 . S
H1159 C1134 0.950 . S
H1160 C1136 0.950 . S
H1161 C1137 0.949 . S
H1162 C1139 0.950 . S
H1163 C1141 0.950 . S
C1164 C1165 1.349 . S
C1164 C1166 1.327 . S
C1164 H1189 0.950 . S
C1165 C1164 1.349 . S
C1165 C1181 1.349 . S
C1166 C1164 1.327 . S
C1166 C1185 1.429 . S
C1166 H1190 0.950 . S
C1167 C1184 1.574 . S
C1167 C1186 1.368 . S
C1167 H1191 0.949 . S
H1168 C1172 0.949 . S
C1169 C1170 1.349 . S
C1169 C1171 1.327 . S
C1169 H1192 0.950 . S
C1170 C1169 1.349 . S
C1170 C1182 1.349 . S
C1171 C1169 1.327 . S
C1171 C1187 1.429 . S
C1171 H1193 0.950 . S
C1172 H1168 0.949 . S
C1172 C1180 1.574 . S
C1172 C1188 1.368 . S
H1173 C1181 0.950 . S
H1174 C1179 0.950 . S
H1175 C1180 0.949 . S
H1176 C1182 0.950 . S
H1177 C1183 0.950 . S
H1178 C1184 0.949 . S
C1179 H1174 0.950 . S
C1179 C1181 1.327 . S
C1179 C1185 1.429 . S
C1180 C1172 1.574 . S
C1180 H1175 0.949 . S
C1180 C1186 1.368 . S
C1181 C1165 1.349 . S
C1181 H1173 0.950 . S
C1181 C1179 1.327 . S
C1182 C1170 1.349 . S
C1182 H1176 0.950 . S
C1182 C1183 1.327 . S
C1183 H1177 0.950 . S
C1183 C1182 1.327 . S
C1183 C1187 1.429 . S
C1184 C1167 1.574 . S
C1184 H1178 0.949 . S
C1184 C1188 1.368 . S
C1185 C1166 1.429 . S
C1185 C1179 1.429 . S
C1185 C1186 1.523 . S
C1186 C1167 1.368 . S
C1186 C1180 1.368 . S
C1186 C1185 1.523 . S
C1187 C1171 1.429 . S
C1187 C1183 1.429 . S
C1187 C1188 1.523 . S
C1188 C1172 1.368 . S
C1188 C1184 1.368 . S
C1188 C1187 1.523 . S
H1189 C1164 0.950 . S
H1190 C1166 0.950 . S
H1191 C1167 0.949 . S
H1192 C1169 0.950 . S
H1193 C1171 0.950 . S
C1194 C1195 1.349 . S
C1194 C1196 1.327 . S
C1194 H1219 0.950 . S
C1195 C1194 1.349 . S
C1195 C1211 1.349 . S
C1196 C1194 1.327 . S
C1196 C1215 1.429 . S
C1196 H1220 0.950 . S
C1197 C1214 1.574 . S
C1197 C1216 1.368 . S
C1197 H1221 0.949 . S
H1198 C1202 0.949 . S
C1199 C1200 1.349 . S
C1199 C1201 1.327 . S
C1199 H1222 0.950 . S
C1200 C1199 1.349 . S
C1200 C1212 1.349 . S
C1201 C1199 1.327 . S
C1201 C1217 1.429 . S
C1201 H1223 0.950 . S
C1202 H1198 0.949 . S
C1202 C1210 1.574 . S
C1202 C1218 1.368 . S
H1203 C1211 0.950 . S
H1204 C1209 0.950 . S
H1205 C1210 0.949 . S
H1206 C1212 0.950 . S
H1207 C1213 0.950 . S
H1208 C1214 0.949 . S
C1209 H1204 0.950 . S
C1209 C1211 1.327 . S
C1209 C1215 1.429 . S
C1210 C1202 1.574 . S
C1210 H1205 0.949 . S
C1210 C1216 1.368 . S
C1211 C1195 1.349 . S
C1211 H1203 0.950 . S
C1211 C1209 1.327 . S
C1212 C1200 1.349 . S
C1212 H1206 0.950 . S
C1212 C1213 1.327 . S
C1213 H1207 0.950 . S
C1213 C1212 1.327 . S
C1213 C1217 1.429 . S
C1214 C1197 1.574 . S
C1214 H1208 0.949 . S
C1214 C1218 1.368 . S
C1215 C1196 1.429 . S
C1215 C1209 1.429 . S
C1215 C1216 1.523 . S
C1216 C1197 1.368 . S
C1216 C1210 1.368 . S
C1216 C1215 1.523 . S
C1217 C1201 1.429 . S
C1217 C1213 1.429 . S
C1217 C1218 1.523 . S
C1218 C1202 1.368 . S
C1218 C1214 1.368 . S
C1218 C1217 1.523 . S
H1219 C1194 0.950 . S
H1220 C1196 0.950 . S
H1221 C1197 0.949 . S
H1222 C1199 0.950 . S
H1223 C1201 0.950 . S
C1224 C1225 1.349 . S
C1224 C1226 1.327 . S
C1224 H1249 0.950 . S
C1225 C1224 1.349 . S
C1225 C1241 1.349 . S
C1226 C1224 1.327 . S
C1226 C1245 1.429 . S
C1226 H1250 0.950 . S
C1227 C1244 1.574 . S
C1227 C1246 1.368 . S
C1227 H1251 0.949 . S
H1228 C1232 0.949 . S
C1229 C1230 1.349 . S
C1229 C1231 1.327 . S
C1229 H1252 0.950 . S
C1230 C1229 1.349 . S
C1230 C1242 1.349 . S
C1231 C1229 1.327 . S
C1231 C1247 1.429 . S
C1231 H1253 0.950 . S
C1232 H1228 0.949 . S
C1232 C1240 1.574 . S
C1232 C1248 1.368 . S
H1233 C1241 0.950 . S
H1234 C1239 0.950 . S
H1235 C1240 0.949 . S
H1236 C1242 0.950 . S
H1237 C1243 0.950 . S
H1238 C1244 0.949 . S
C1239 H1234 0.950 . S
C1239 C1241 1.327 . S
C1239 C1245 1.429 . S
C1240 C1232 1.574 . S
C1240 H1235 0.949 . S
C1240 C1246 1.368 . S
C1241 C1225 1.349 . S
C1241 H1233 0.950 . S
C1241 C1239 1.327 . S
C1242 C1230 1.349 . S
C1242 H1236 0.950 . S
C1242 C1243 1.327 . S
C1243 H1237 0.950 . S
C1243 C1242 1.327 . S
C1243 C1247 1.429 . S
C1244 C1227 1.574 . S
C1244 H1238 0.949 . S
C1244 C1248 1.368 . S
C1245 C1226 1.429 . S
C1245 C1239 1.429 . S
C1245 C1246 1.523 . S
C1246 C1227 1.368 . S
C1246 C1240 1.368 . S
C1246 C1245 1.523 . S
C1247 C1231 1.429 . S
C1247 C1243 1.429 . S
C1247 C1248 1.523 . S
C1248 C1232 1.368 . S
C1248 C1244 1.368 . S
C1248 C1247 1.523 . S
H1249 C1224 0.950 . S
H1250 C1226 0.950 . S
H1251 C1227 0.949 . S
H1252 C1229 0.950 . S
H1253 C1231 0.950 . S
C1254 C1255 1.349 . S
C1254 C1256 1.327 . S
C1254 H1279 0.950 . S
C1255 C1254 1.349 . S
C1255 C1271 1.349 . S
C1256 C1254 1.327 . S
C1256 C1275 1.429 . S
C1256 H1280 0.950 . S
C1257 C1274 1.574 . S
C1257 C1276 1.368 . S
C1257 H1281 0.949 . S
H1258 C1262 0.949 . S
C1259 C1260 1.349 . S
C1259 C1261 1.327 . S
C1259 H1282 0.950 . S
C1260 C1259 1.349 . S
C1260 C1272 1.349 . S
C1261 C1259 1.327 . S
C1261 C1277 1.429 . S
C1261 H1283 0.950 . S
C1262 H1258 0.949 . S
C1262 C1270 1.574 . S
C1262 C1278 1.368 . S
H1263 C1271 0.950 . S
H1264 C1269 0.950 . S
H1265 C1270 0.949 . S
H1266 C1272 0.950 . S
H1267 C1273 0.950 . S
H1268 C1274 0.949 . S
C1269 H1264 0.950 . S
C1269 C1271 1.327 . S
C1269 C1275 1.429 . S
C1270 C1262 1.574 . S
C1270 H1265 0.949 . S
C1270 C1276 1.368 . S
C1271 C1255 1.349 . S
C1271 H1263 0.950 . S
C1271 C1269 1.327 . S
C1272 C1260 1.349 . S
C1272 H1266 0.950 . S
C1272 C1273 1.327 . S
C1273 H1267 0.950 . S
C1273 C1272 1.327 . S
C1273 C1277 1.429 . S
C1274 C1257 1.574 . S
C1274 H1268 0.949 . S
C1274 C1278 1.368 . S
C1275 C1256 1.429 . S
C1275 C1269 1.429 . S
C1275 C1276 1.523 . S
C1276 C1257 1.368 . S
C1276 C1270 1.368 . S
C1276 C1275 1.523 . S
C1277 C1261 1.429 . S
C1277 C1273 1.429 . S
C1277 C1278 1.523 . S
C1278 C1262 1.368 . S
C1278 C1274 1.368 . S
C1278 C1277 1.523 . S
H1279 C1254 0.950 . S
H1280 C1256 0.950 . S
H1281 C1257 0.949 . S
H1282 C1259 0.950 . S
H1283 C1261 0.950 . S
C1284 C1285 1.349 . S
C1284 C1286 1.327 . S
C1284 H1309 0.950 . S
C1285 C1284 1.349 . S
C1285 C1301 1.349 . S
C1286 C1284 1.327 . S
C1286 C1305 1.429 . S
C1286 H1310 0.950 . S
C1287 C1304 1.574 . S
C1287 C1306 1.368 . S
C1287 H1311 0.949 . S
H1288 C1292 0.949 . S
C1289 C1290 1.349 . S
C1289 C1291 1.327 . S
C1289 H1312 0.950 . S
C1290 C1289 1.349 . S
C1290 C1302 1.349 . S
C1291 C1289 1.327 . S
C1291 C1307 1.429 . S
C1291 H1313 0.950 . S
C1292 H1288 0.949 . S
C1292 C1300 1.574 . S
C1292 C1308 1.368 . S
H1293 C1301 0.950 . S
H1294 C1299 0.950 . S
H1295 C1300 0.949 . S
H1296 C1302 0.950 . S
H1297 C1303 0.950 . S
H1298 C1304 0.949 . S
C1299 H1294 0.950 . S
C1299 C1301 1.327 . S
C1299 C1305 1.429 . S
C1300 C1292 1.574 . S
C1300 H1295 0.949 . S
C1300 C1306 1.368 . S
C1301 C1285 1.349 . S
C1301 H1293 0.950 . S
C1301 C1299 1.327 . S
C1302 C1290 1.349 . S
C1302 H1296 0.950 . S
C1302 C1303 1.327 . S
C1303 H1297 0.950 . S
C1303 C1302 1.327 . S
C1303 C1307 1.429 . S
C1304 C1287 1.574 . S
C1304 H1298 0.949 . S
C1304 C1308 1.368 . S
C1305 C1286 1.429 . S
C1305 C1299 1.429 . S
C1305 C1306 1.523 . S
C1306 C1287 1.368 . S
C1306 C1300 1.368 . S
C1306 C1305 1.523 . S
C1307 C1291 1.429 . S
C1307 C1303 1.429 . S
C1307 C1308 1.523 . S
C1308 C1292 1.368 . S
C1308 C1304 1.368 . S
C1308 C1307 1.523 . S
H1309 C1284 0.950 . S
H1310 C1286 0.950 . S
H1311 C1287 0.949 . S
H1312 C1289 0.950 . S
H1313 C1291 0.950 . S
C1314 C1315 1.349 . S
C1314 C1316 1.327 . S
C1314 H1339 0.950 . S
C1315 C1314 1.349 . S
C1315 C1331 1.349 . S
C1316 C1314 1.327 . S
C1316 C1335 1.429 . S
C1316 H1340 0.950 . S
C1317 C1334 1.574 . S
C1317 C1336 1.368 . S
C1317 H1341 0.949 . S
H1318 C1322 0.949 . S
C1319 C1320 1.349 . S
C1319 C1321 1.327 . S
C1319 H1342 0.950 . S
C1320 C1319 1.349 . S
C1320 C1332 1.349 . S
C1321 C1319 1.327 . S
C1321 C1337 1.429 . S
C1321 H1343 0.950 . S
C1322 H1318 0.949 . S
C1322 C1330 1.574 . S
C1322 C1338 1.368 . S
H1323 C1331 0.950 . S
H1324 C1329 0.950 . S
H1325 C1330 0.949 . S
H1326 C1332 0.950 1_556 S
H1327 C1333 0.950 . S
H1328 C1334 0.949 . S
C1329 H1324 0.950 . S
C1329 C1331 1.327 . S
C1329 C1335 1.429 . S
C1330 C1322 1.574 . S
C1330 H1325 0.949 . S
C1330 C1336 1.368 . S
C1331 C1315 1.349 . S
C1331 H1323 0.950 . S
C1331 C1329 1.327 . S
C1332 C1320 1.349 . S
C1332 H1326 0.950 1_554 S
C1332 C1333 1.327 . S
C1333 H1327 0.950 . S
C1333 C1332 1.327 . S
C1333 C1337 1.429 . S
C1334 C1317 1.574 . S
C1334 H1328 0.949 . S
C1334 C1338 1.368 . S
C1335 C1316 1.429 . S
C1335 C1329 1.429 . S
C1335 C1336 1.523 . S
C1336 C1317 1.368 . S
C1336 C1330 1.368 . S
C1336 C1335 1.523 . S
C1337 C1321 1.429 . S
C1337 C1333 1.429 . S
C1337 C1338 1.523 . S
C1338 C1322 1.368 . S
C1338 C1334 1.368 . S
C1338 C1337 1.523 . S
H1339 C1314 0.950 . S
H1340 C1316 0.950 . S
H1341 C1317 0.949 . S
H1342 C1319 0.950 . S
H1343 C1321 0.950 . S
C1344 C1345 1.349 . S
C1344 C1346 1.327 . S
C1344 H1369 0.950 . S
C1345 C1344 1.349 . S
C1345 C1361 1.349 . S
C1346 C1344 1.327 . S
C1346 C1365 1.429 . S
C1346 H1370 0.950 . S
C1347 C1364 1.574 . S
C1347 C1366 1.368 . S
C1347 H1371 0.949 . S
H1348 C1352 0.949 . S
C1349 C1350 1.349 . S
C1349 C1351 1.327 . S
C1349 H1372 0.950 1_554 S
C1350 C1349 1.349 . S
C1350 C1362 1.349 . S
C1351 C1349 1.327 . S
C1351 C1367 1.429 . S
C1351 H1373 0.950 . S
C1352 H1348 0.949 . S
C1352 C1360 1.574 . S
C1352 C1368 1.368 . S
H1353 C1361 0.950 . S
H1354 C1359 0.950 . S
H1355 C1360 0.949 . S
H1356 C1362 0.950 . S
H1357 C1363 0.950 . S
H1358 C1364 0.949 . S
C1359 H1354 0.950 . S
C1359 C1361 1.327 . S
C1359 C1365 1.429 . S
C1360 C1352 1.574 . S
C1360 H1355 0.949 . S
C1360 C1366 1.368 . S
C1361 C1345 1.349 . S
C1361 H1353 0.950 . S
C1361 C1359 1.327 . S
C1362 C1350 1.349 . S
C1362 H1356 0.950 . S
C1362 C1363 1.327 . S
C1363 H1357 0.950 . S
C1363 C1362 1.327 . S
C1363 C1367 1.429 . S
C1364 C1347 1.574 . S
C1364 H1358 0.949 . S
C1364 C1368 1.368 . S
C1365 C1346 1.429 . S
C1365 C1359 1.429 . S
C1365 C1366 1.523 . S
C1366 C1347 1.368 . S
C1366 C1360 1.368 . S
C1366 C1365 1.523 . S
C1367 C1351 1.429 . S
C1367 C1363 1.429 . S
C1367 C1368 1.523 . S
C1368 C1352 1.368 . S
C1368 C1364 1.368 . S
C1368 C1367 1.523 . S
H1369 C1344 0.950 . S
H1370 C1346 0.950 . S
H1371 C1347 0.949 . S
H1372 C1349 0.950 1_556 S
H1373 C1351 0.950 . S
C1374 C1375 1.349 . S
C1374 C1376 1.327 . S
C1374 H1399 0.950 . S
C1375 C1374 1.349 . S
C1375 C1391 1.349 . S
C1376 C1374 1.327 . S
C1376 C1395 1.429 . S
C1376 H1400 0.950 . S
C1377 C1394 1.574 . S
C1377 C1396 1.368 . S
C1377 H1401 0.949 . S
H1378 C1382 0.949 . S
C1379 C1380 1.349 . S
C1379 C1381 1.327 . S
C1379 H1402 0.950 1_554 S
C1380 C1379 1.349 . S
C1380 C1392 1.349 . S
C1381 C1379 1.327 . S
C1381 C1397 1.429 . S
C1381 H1403 0.950 . S
C1382 H1378 0.949 . S
C1382 C1390 1.574 . S
C1382 C1398 1.368 . S
H1383 C1391 0.950 . S
H1384 C1389 0.950 . S
H1385 C1390 0.949 . S
H1386 C1392 0.950 . S
H1387 C1393 0.950 . S
H1388 C1394 0.949 . S
C1389 H1384 0.950 . S
C1389 C1391 1.327 . S
C1389 C1395 1.429 . S
C1390 C1382 1.574 . S
C1390 H1385 0.949 . S
C1390 C1396 1.368 . S
C1391 C1375 1.349 . S
C1391 H1383 0.950 . S
C1391 C1389 1.327 . S
C1392 C1380 1.349 . S
C1392 H1386 0.950 . S
C1392 C1393 1.327 . S
C1393 H1387 0.950 . S
C1393 C1392 1.327 . S
C1393 C1397 1.429 . S
C1394 C1377 1.574 . S
C1394 H1388 0.949 . S
C1394 C1398 1.368 . S
C1395 C1376 1.429 . S
C1395 C1389 1.429 . S
C1395 C1396 1.523 . S
C1396 C1377 1.368 . S
C1396 C1390 1.368 . S
C1396 C1395 1.523 . S
C1397 C1381 1.429 . S
C1397 C1393 1.429 . S
C1397 C1398 1.523 . S
C1398 C1382 1.368 . S
C1398 C1394 1.368 . S
C1398 C1397 1.523 . S
H1399 C1374 0.950 . S
H1400 C1376 0.950 . S
H1401 C1377 0.949 . S
H1402 C1379 0.950 1_556 S
H1403 C1381 0.950 . S
C1404 C1405 1.349 . S
C1404 C1406 1.327 . S
C1404 H1429 0.950 . S
C1405 C1404 1.349 . S
C1405 C1421 1.349 . S
C1406 C1404 1.327 . S
C1406 C1425 1.429 . S
C1406 H1430 0.950 . S
C1407 C1424 1.574 . S
C1407 C1426 1.368 . S
C1407 H1431 0.949 . S
H1408 C1412 0.949 . S
C1409 C1410 1.349 . S
C1409 C1411 1.327 . S
C1409 H1432 0.950 . S
C1410 C1409 1.349 . S
C1410 C1422 1.349 . S
C1411 C1409 1.327 . S
C1411 C1427 1.429 . S
C1411 H1433 0.950 . S
C1412 H1408 0.949 . S
C1412 C1420 1.574 . S
C1412 C1428 1.368 . S
H1413 C1421 0.950 . S
H1414 C1419 0.950 . S
H1415 C1420 0.949 . S
H1416 C1422 0.950 . S
H1417 C1423 0.950 . S
H1418 C1424 0.949 . S
C1419 H1414 0.950 . S
C1419 C1421 1.327 . S
C1419 C1425 1.429 . S
C1420 C1412 1.574 . S
C1420 H1415 0.949 . S
C1420 C1426 1.368 . S
C1421 C1405 1.349 . S
C1421 H1413 0.950 . S
C1421 C1419 1.327 . S
C1422 C1410 1.349 . S
C1422 H1416 0.950 . S
C1422 C1423 1.327 . S
C1423 H1417 0.950 . S
C1423 C1422 1.327 . S
C1423 C1427 1.429 . S
C1424 C1407 1.574 . S
C1424 H1418 0.949 . S
C1424 C1428 1.368 . S
C1425 C1406 1.429 . S
C1425 C1419 1.429 . S
C1425 C1426 1.523 . S
C1426 C1407 1.368 . S
C1426 C1420 1.368 . S
C1426 C1425 1.523 . S
C1427 C1411 1.429 . S
C1427 C1423 1.429 . S
C1427 C1428 1.523 . S
C1428 C1412 1.368 . S
C1428 C1424 1.368 . S
C1428 C1427 1.523 . S
H1429 C1404 0.950 . S
H1430 C1406 0.950 . S
H1431 C1407 0.949 . S
H1432 C1409 0.950 . S
H1433 C1411 0.950 . S
C1434 C1435 1.349 . S
C1434 C1436 1.327 . S
C1434 H1459 0.950 . S
C1435 C1434 1.349 . S
C1435 C1451 1.349 . S
C1436 C1434 1.327 . S
C1436 C1455 1.429 . S
C1436 H1460 0.950 . S
C1437 C1454 1.574 . S
C1437 C1456 1.368 . S
C1437 H1461 0.949 . S
H1438 C1442 0.949 . S
C1439 C1440 1.349 . S
C1439 C1441 1.327 . S
C1439 H1462 0.950 . S
C1440 C1439 1.349 . S
C1440 C1452 1.349 . S
C1441 C1439 1.327 . S
C1441 C1457 1.429 . S
C1441 H1463 0.950 . S
C1442 H1438 0.949 . S
C1442 C1450 1.574 . S
C1442 C1458 1.368 . S
H1443 C1451 0.950 . S
H1444 C1449 0.950 . S
H1445 C1450 0.949 . S
H1446 C1452 0.950 . S
H1447 C1453 0.950 . S
H1448 C1454 0.949 . S
C1449 H1444 0.950 . S
C1449 C1451 1.327 . S
C1449 C1455 1.429 . S
C1450 C1442 1.574 . S
C1450 H1445 0.949 . S
C1450 C1456 1.368 . S
C1451 C1435 1.349 . S
C1451 H1443 0.950 . S
C1451 C1449 1.327 . S
C1452 C1440 1.349 . S
C1452 H1446 0.950 . S
C1452 C1453 1.327 . S
C1453 H1447 0.950 . S
C1453 C1452 1.327 . S
C1453 C1457 1.429 . S
C1454 C1437 1.574 . S
C1454 H1448 0.949 . S
C1454 C1458 1.368 . S
C1455 C1436 1.429 . S
C1455 C1449 1.429 . S
C1455 C1456 1.523 . S
C1456 C1437 1.368 . S
C1456 C1450 1.368 . S
C1456 C1455 1.523 . S
C1457 C1441 1.429 . S
C1457 C1453 1.429 . S
C1457 C1458 1.523 . S
C1458 C1442 1.368 . S
C1458 C1454 1.368 . S
C1458 C1457 1.523 . S
H1459 C1434 0.950 . S
H1460 C1436 0.950 . S
H1461 C1437 0.949 . S
H1462 C1439 0.950 . S
H1463 C1441 0.950 . S
C1464 C1465 1.349 . S
C1464 C1466 1.327 . S
C1464 H1489 0.950 . S
C1465 C1464 1.349 . S
C1465 C1481 1.349 . S
C1466 C1464 1.327 . S
C1466 C1485 1.429 . S
C1466 H1490 0.950 . S
C1467 C1484 1.574 . S
C1467 C1486 1.368 . S
C1467 H1491 0.949 . S
H1468 C1472 0.949 . S
C1469 C1470 1.349 . S
C1469 C1471 1.327 . S
C1469 H1492 0.950 . S
C1470 C1469 1.349 . S
C1470 C1482 1.349 . S
C1471 C1469 1.327 . S
C1471 C1487 1.429 . S
C1471 H1493 0.950 . S
C1472 H1468 0.949 . S
C1472 C1480 1.574 . S
C1472 C1488 1.368 . S
H1473 C1481 0.950 . S
H1474 C1479 0.950 . S
H1475 C1480 0.949 . S
H1476 C1482 0.950 . S
H1477 C1483 0.950 . S
H1478 C1484 0.949 . S
C1479 H1474 0.950 . S
C1479 C1481 1.327 . S
C1479 C1485 1.429 . S
C1480 C1472 1.574 . S
C1480 H1475 0.949 . S
C1480 C1486 1.368 . S
C1481 C1465 1.349 . S
C1481 H1473 0.950 . S
C1481 C1479 1.327 . S
C1482 C1470 1.349 . S
C1482 H1476 0.950 . S
C1482 C1483 1.327 . S
C1483 H1477 0.950 . S
C1483 C1482 1.327 . S
C1483 C1487 1.429 . S
C1484 C1467 1.574 . S
C1484 H1478 0.949 . S
C1484 C1488 1.368 . S
C1485 C1466 1.429 . S
C1485 C1479 1.429 . S
C1485 C1486 1.523 . S
C1486 C1467 1.368 . S
C1486 C1480 1.368 . S
C1486 C1485 1.523 . S
C1487 C1471 1.429 . S
C1487 C1483 1.429 . S
C1487 C1488 1.523 . S
C1488 C1472 1.368 . S
C1488 C1484 1.368 . S
C1488 C1487 1.523 . S
H1489 C1464 0.950 . S
H1490 C1466 0.950 . S
H1491 C1467 0.949 . S
H1492 C1469 0.950 . S
H1493 C1471 0.950 . S
C1494 C1495 1.349 . S
C1494 C1496 1.327 . S
C1494 H1519 0.950 . S
C1495 C1494 1.349 . S
C1495 C1511 1.349 . S
C1496 C1494 1.327 . S
C1496 C1515 1.429 . S
C1496 H1520 0.950 . S
C1497 C1514 1.574 . S
C1497 C1516 1.368 . S
C1497 H1521 0.949 . S
H1498 C1502 0.949 . S
C1499 C1500 1.349 . S
C1499 C1501 1.327 . S
C1499 H1522 0.950 . S
C1500 C1499 1.349 . S
C1500 C1512 1.349 . S
C1501 C1499 1.327 . S
C1501 C1517 1.429 . S
C1501 H1523 0.950 . S
C1502 H1498 0.949 . S
C1502 C1510 1.574 . S
C1502 C1518 1.368 . S
H1503 C1511 0.950 . S
H1504 C1509 0.950 . S
H1505 C1510 0.949 . S
H1506 C1512 0.950 . S
H1507 C1513 0.950 . S
H1508 C1514 0.949 . S
C1509 H1504 0.950 . S
C1509 C1511 1.327 . S
C1509 C1515 1.429 . S
C1510 C1502 1.574 . S
C1510 H1505 0.949 . S
C1510 C1516 1.368 . S
C1511 C1495 1.349 . S
C1511 H1503 0.950 . S
C1511 C1509 1.327 . S
C1512 C1500 1.349 . S
C1512 H1506 0.950 . S
C1512 C1513 1.327 . S
C1513 H1507 0.950 . S
C1513 C1512 1.327 . S
C1513 C1517 1.429 . S
C1514 C1497 1.574 . S
C1514 H1508 0.949 . S
C1514 C1518 1.368 . S
C1515 C1496 1.429 . S
C1515 C1509 1.429 . S
C1515 C1516 1.523 . S
C1516 C1497 1.368 . S
C1516 C1510 1.368 . S
C1516 C1515 1.523 . S
C1517 C1501 1.429 . S
C1517 C1513 1.429 . S
C1517 C1518 1.523 . S
C1518 C1502 1.368 . S
C1518 C1514 1.368 . S
C1518 C1517 1.523 . S
H1519 C1494 0.950 . S
H1520 C1496 0.950 . S
H1521 C1497 0.949 . S
H1522 C1499 0.950 . S
H1523 C1501 0.950 . S
C1524 C1525 1.349 . S
C1524 C1526 1.327 . S
C1524 H1549 0.950 . S
C1525 C1524 1.349 . S
C1525 C1541 1.349 . S
C1526 C1524 1.327 . S
C1526 C1545 1.429 . S
C1526 H1550 0.950 . S
C1527 C1544 1.574 . S
C1527 C1546 1.368 . S
C1527 H1551 0.949 . S
H1528 C1532 0.949 . S
C1529 C1530 1.349 . S
C1529 C1531 1.327 . S
C1529 H1552 0.950 . S
C1530 C1529 1.349 . S
C1530 C1542 1.349 . S
C1531 C1529 1.327 . S
C1531 C1547 1.429 . S
C1531 H1553 0.950 . S
C1532 H1528 0.949 . S
C1532 C1540 1.574 . S
C1532 C1548 1.368 . S
H1533 C1541 0.950 . S
H1534 C1539 0.950 . S
H1535 C1540 0.949 . S
H1536 C1542 0.950 . S
H1537 C1543 0.950 . S
H1538 C1544 0.949 . S
C1539 H1534 0.950 . S
C1539 C1541 1.327 . S
C1539 C1545 1.429 . S
C1540 C1532 1.574 . S
C1540 H1535 0.949 . S
C1540 C1546 1.368 . S
C1541 C1525 1.349 . S
C1541 H1533 0.950 . S
C1541 C1539 1.327 . S
C1542 C1530 1.349 . S
C1542 H1536 0.950 . S
C1542 C1543 1.327 . S
C1543 H1537 0.950 . S
C1543 C1542 1.327 . S
C1543 C1547 1.429 . S
C1544 C1527 1.574 . S
C1544 H1538 0.949 . S
C1544 C1548 1.368 . S
C1545 C1526 1.429 . S
C1545 C1539 1.429 . S
C1545 C1546 1.523 . S
C1546 C1527 1.368 . S
C1546 C1540 1.368 . S
C1546 C1545 1.523 . S
C1547 C1531 1.429 . S
C1547 C1543 1.429 . S
C1547 C1548 1.523 . S
C1548 C1532 1.368 . S
C1548 C1544 1.368 . S
C1548 C1547 1.523 . S
H1549 C1524 0.950 . S
H1550 C1526 0.950 . S
H1551 C1527 0.949 . S
H1552 C1529 0.950 . S
H1553 C1531 0.950 . S
C1554 C1555 1.349 . S
C1554 C1556 1.327 . S
C1554 H1579 0.950 . S
C1555 C1554 1.349 . S
C1555 C1571 1.349 . S
C1556 C1554 1.327 . S
C1556 C1575 1.429 . S
C1556 H1580 0.950 . S
C1557 C1574 1.574 . S
C1557 C1576 1.368 . S
C1557 H1581 0.949 . S
H1558 C1562 0.949 . S
C1559 C1560 1.349 . S
C1559 C1561 1.327 . S
C1559 H1582 0.950 . S
C1560 C1559 1.349 . S
C1560 C1572 1.349 . S
C1561 C1559 1.327 . S
C1561 C1577 1.429 . S
C1561 H1583 0.950 . S
C1562 H1558 0.949 . S
C1562 C1570 1.574 . S
C1562 C1578 1.368 . S
H1563 C1571 0.950 1_545 S
H1564 C1569 0.950 . S
H1565 C1570 0.949 . S
H1566 C1572 0.950 . S
H1567 C1573 0.950 . S
H1568 C1574 0.949 . S
C1569 H1564 0.950 . S
C1569 C1571 1.327 . S
C1569 C1575 1.429 . S
C1570 C1562 1.574 . S
C1570 H1565 0.949 . S
C1570 C1576 1.368 . S
C1571 C1555 1.349 . S
C1571 H1563 0.950 1_565 S
C1571 C1569 1.327 . S
C1572 C1560 1.349 . S
C1572 H1566 0.950 . S
C1572 C1573 1.327 . S
C1573 H1567 0.950 . S
C1573 C1572 1.327 . S
C1573 C1577 1.429 . S
C1574 C1557 1.574 . S
C1574 H1568 0.949 . S
C1574 C1578 1.368 . S
C1575 C1556 1.429 . S
C1575 C1569 1.429 . S
C1575 C1576 1.523 . S
C1576 C1557 1.368 . S
C1576 C1570 1.368 . S
C1576 C1575 1.523 . S
C1577 C1561 1.429 . S
C1577 C1573 1.429 . S
C1577 C1578 1.523 . S
C1578 C1562 1.368 . S
C1578 C1574 1.368 . S
C1578 C1577 1.523 . S
H1579 C1554 0.950 . S
H1580 C1556 0.950 . S
H1581 C1557 0.949 . S
H1582 C1559 0.950 . S
H1583 C1561 0.950 . S
C1584 C1585 1.349 . S
C1584 C1586 1.327 . S
C1584 H1609 0.950 . S
C1585 C1584 1.349 . S
C1585 C1601 1.349 . S
C1586 C1584 1.327 . S
C1586 C1605 1.429 . S
C1586 H1610 0.950 . S
C1587 C1604 1.574 . S
C1587 C1606 1.368 . S
C1587 H1611 0.949 . S
H1588 C1592 0.949 . S
C1589 C1590 1.349 . S
C1589 C1591 1.327 . S
C1589 H1612 0.950 . S
C1590 C1589 1.349 . S
C1590 C1602 1.349 . S
C1591 C1589 1.327 . S
C1591 C1607 1.429 . S
C1591 H1613 0.950 . S
C1592 H1588 0.949 . S
C1592 C1600 1.574 . S
C1592 C1608 1.368 . S
H1593 C1601 0.950 . S
H1594 C1599 0.950 . S
H1595 C1600 0.949 . S
H1596 C1602 0.945 1_554 S
H1597 C1603 0.950 . S
H1598 C1604 0.949 . S
C1599 H1594 0.950 . S
C1599 C1601 1.327 . S
C1599 C1605 1.429 . S
C1600 C1592 1.574 . S
C1600 H1595 0.949 . S
C1600 C1606 1.368 . S
C1601 C1585 1.349 . S
C1601 H1593 0.950 . S
C1601 C1599 1.327 . S
C1602 C1590 1.349 . S
C1602 H1596 0.945 1_556 S
C1602 C1603 1.331 . S
C1603 H1597 0.950 . S
C1603 C1602 1.331 . S
C1603 C1607 1.429 . S
C1604 C1587 1.574 . S
C1604 H1598 0.949 . S
C1604 C1608 1.368 . S
C1605 C1586 1.429 . S
C1605 C1599 1.429 . S
C1605 C1606 1.523 . S
C1606 C1587 1.368 . S
C1606 C1600 1.368 . S
C1606 C1605 1.523 . S
C1607 C1591 1.429 . S
C1607 C1603 1.429 . S
C1607 C1608 1.523 . S
C1608 C1592 1.368 . S
C1608 C1604 1.368 . S
C1608 C1607 1.523 . S
H1609 C1584 0.950 . S
H1610 C1586 0.950 . S
H1611 C1587 0.949 . S
H1612 C1589 0.950 . S
H1613 C1591 0.950 . S
C1614 C1615 1.349 . S
C1614 C1616 1.327 . S
C1614 H1639 0.950 . S
C1615 C1614 1.349 . S
C1615 C1631 1.349 . S
C1616 C1614 1.327 . S
C1616 C1635 1.429 . S
C1616 H1640 0.950 . S
C1617 C1634 1.574 . S
C1617 C1636 1.368 . S
C1617 H1641 0.949 . S
H1618 C1622 0.949 . S
C1619 C1620 1.349 . S
C1619 C1621 1.327 . S
C1619 H1642 0.950 . S
C1620 C1619 1.349 . S
C1620 C1632 1.349 1_556 S
C1621 C1619 1.327 . S
C1621 C1637 1.429 . S
C1621 H1643 0.950 . S
C1622 H1618 0.949 . S
C1622 C1630 1.574 . S
C1622 C1638 1.368 . S
H1623 C1631 0.950 . S
H1624 C1629 0.950 . S
H1625 C1630 0.949 . S
H1626 C1632 0.950 . S
H1627 C1633 0.950 . S
H1628 C1634 0.949 . S
C1629 H1624 0.950 . S
C1629 C1631 1.327 . S
C1629 C1635 1.429 . S
C1630 C1622 1.574 . S
C1630 H1625 0.949 . S
C1630 C1636 1.368 . S
C1631 C1615 1.349 . S
C1631 H1623 0.950 . S
C1631 C1629 1.327 . S
C1632 C1620 1.349 1_554 S
C1632 H1626 0.950 . S
C1632 C1633 1.327 . S
C1633 H1627 0.950 . S
C1633 C1632 1.327 . S
C1633 C1637 1.429 1_554 S
C1634 C1617 1.574 . S
C1634 H1628 0.949 . S
C1634 C1638 1.368 . S
C1635 C1616 1.429 . S
C1635 C1629 1.429 . S
C1635 C1636 1.523 . S
C1636 C1617 1.368 . S
C1636 C1630 1.368 . S
C1636 C1635 1.523 . S
C1637 C1621 1.429 . S
C1637 C1633 1.429 1_556 S
C1637 C1638 1.523 . S
C1638 C1622 1.368 . S
C1638 C1634 1.368 . S
C1638 C1637 1.523 . S
H1639 C1614 0.950 . S
H1640 C1616 0.950 . S
H1641 C1617 0.949 . S
H1642 C1619 0.950 . S
H1643 C1621 0.950 . S
C1644 C1645 1.349 . S
C1644 C1646 1.327 . S
C1644 H1669 0.950 . S
C1645 C1644 1.349 . S
C1645 C1661 1.349 . S
C1646 C1644 1.327 . S
C1646 C1665 1.429 . S
C1646 H1670 0.950 . S
C1647 C1664 1.574 . S
C1647 C1666 1.368 . S
C1647 H1671 0.949 . S
H1648 C1652 0.949 . S
C1649 C1650 1.349 1_554 S
C1649 C1651 1.327 . S
C1649 H1672 0.950 . S
C1650 C1649 1.349 1_556 S
C1650 C1662 1.349 . S
C1651 C1649 1.327 . S
C1651 C1667 1.429 1_554 S
C1651 H1673 0.950 . S
C1652 H1648 0.949 . S
C1652 C1660 1.574 . S
C1652 C1668 1.368 . S
H1653 C1661 0.950 . S
H1654 C1659 0.950 . S
H1655 C1660 0.949 . S
H1656 C1662 0.950 . S
H1657 C1663 0.950 . S
H1658 C1664 0.949 . S
C1659 H1654 0.950 . S
C1659 C1661 1.327 . S
C1659 C1665 1.429 . S
C1660 C1652 1.574 . S
C1660 H1655 0.949 . S
C1660 C1666 1.368 . S
C1661 C1645 1.349 . S
C1661 H1653 0.950 . S
C1661 C1659 1.327 . S
C1662 C1650 1.349 . S
C1662 H1656 0.950 . S
C1662 C1663 1.327 . S
C1663 H1657 0.950 . S
C1663 C1662 1.327 . S
C1663 C1667 1.429 . S
C1664 C1647 1.574 . S
C1664 H1658 0.949 . S
C1664 C1668 1.368 . S
C1665 C1646 1.429 . S
C1665 C1659 1.429 . S
C1665 C1666 1.523 . S
C1666 C1647 1.368 . S
C1666 C1660 1.368 . S
C1666 C1665 1.523 . S
C1667 C1651 1.429 1_556 S
C1667 C1663 1.429 . S
C1667 C1668 1.523 . S
C1668 C1652 1.368 . S
C1668 C1664 1.368 . S
C1668 C1667 1.523 . S
H1669 C1644 0.950 . S
H1670 C1646 0.950 . S
H1671 C1647 0.949 . S
H1672 C1649 0.950 . S
H1673 C1651 0.950 . S
C1674 C1675 1.349 . S
C1674 C1676 1.327 . S
C1674 H1699 0.950 . S
C1675 C1674 1.349 . S
C1675 C1691 1.349 . S
C1676 C1674 1.327 . S
C1676 C1695 1.429 . S
C1676 H1700 0.950 . S
C1677 C1694 1.574 . S
C1677 C1696 1.368 . S
C1677 H1701 0.949 . S
H1678 C1682 0.949 . S
C1679 C1680 1.349 . S
C1679 C1681 1.327 . S
C1679 H1702 0.950 1_655 S
C1680 C1679 1.349 . S
C1680 C1692 1.349 . S
C1681 C1679 1.327 . S
C1681 C1697 1.429 . S
C1681 H1703 0.950 . S
C1682 H1678 0.949 . S
C1682 C1690 1.574 . S
C1682 C1698 1.368 . S
H1683 C1691 0.950 . S
H1684 C1689 0.950 . S
H1685 C1690 0.949 . S
H1686 C1692 0.950 . S
H1687 C1693 0.950 . S
H1688 C1694 0.949 . S
C1689 H1684 0.950 . S
C1689 C1691 1.327 . S
C1689 C1695 1.429 . S
C1690 C1682 1.574 . S
C1690 H1685 0.949 . S
C1690 C1696 1.368 . S
C1691 C1675 1.349 . S
C1691 H1683 0.950 . S
C1691 C1689 1.327 . S
C1692 C1680 1.349 . S
C1692 H1686 0.950 . S
C1692 C1693 1.327 . S
C1693 H1687 0.950 . S
C1693 C1692 1.327 . S
C1693 C1697 1.429 . S
C1694 C1677 1.574 . S
C1694 H1688 0.949 . S
C1694 C1698 1.368 . S
C1695 C1676 1.429 . S
C1695 C1689 1.429 . S
C1695 C1696 1.523 . S
C1696 C1677 1.368 . S
C1696 C1690 1.368 . S
C1696 C1695 1.523 . S
C1697 C1681 1.429 . S
C1697 C1693 1.429 . S
C1697 C1698 1.523 . S
C1698 C1682 1.368 . S
C1698 C1694 1.368 . S
C1698 C1697 1.523 . S
H1699 C1674 0.950 . S
H1700 C1676 0.950 . S
H1701 C1677 0.949 . S
H1702 C1679 0.950 1_455 S
H1703 C1681 0.950 . S
C1704 C1705 1.349 . S
C1704 C1706 1.327 . S
C1704 H1729 0.950 . S
C1705 C1704 1.349 . S
C1705 C1721 1.349 . S
C1706 C1704 1.327 . S
C1706 C1725 1.429 . S
C1706 H1730 0.950 . S
C1707 C1724 1.574 . S
C1707 C1726 1.368 . S
C1707 H1731 0.949 . S
H1708 C1712 0.949 . S
C1709 C1710 1.349 . S
C1709 C1711 1.327 . S
C1709 H1732 0.950 . S
C1710 C1709 1.349 . S
C1710 C1722 1.349 . S
C1711 C1709 1.327 . S
C1711 C1727 1.429 . S
C1711 H1733 0.950 . S
C1712 H1708 0.949 . S
C1712 C1720 1.574 . S
C1712 C1728 1.368 . S
H1713 C1721 0.950 . S
H1714 C1719 0.950 . S
H1715 C1720 0.949 . S
H1716 C1722 0.950 . S
H1717 C1723 0.950 . S
H1718 C1724 0.949 . S
C1719 H1714 0.950 . S
C1719 C1721 1.327 . S
C1719 C1725 1.429 . S
C1720 C1712 1.574 . S
C1720 H1715 0.949 . S
C1720 C1726 1.368 . S
C1721 C1705 1.349 . S
C1721 H1713 0.950 . S
C1721 C1719 1.327 . S
C1722 C1710 1.349 . S
C1722 H1716 0.950 . S
C1722 C1723 1.327 . S
C1723 H1717 0.950 . S
C1723 C1722 1.327 . S
C1723 C1727 1.429 . S
C1724 C1707 1.574 . S
C1724 H1718 0.949 . S
C1724 C1728 1.368 . S
C1725 C1706 1.429 . S
C1725 C1719 1.429 . S
C1725 C1726 1.523 . S
C1726 C1707 1.368 . S
C1726 C1720 1.368 . S
C1726 C1725 1.523 . S
C1727 C1711 1.429 . S
C1727 C1723 1.429 . S
C1727 C1728 1.523 . S
C1728 C1712 1.368 . S
C1728 C1724 1.368 . S
C1728 C1727 1.523 . S
H1729 C1704 0.950 . S
H1730 C1706 0.950 . S
H1731 C1707 0.949 . S
H1732 C1709 0.950 . S
H1733 C1711 0.950 . S
C1734 C1735 1.349 . S
C1734 C1736 1.327 . S
C1734 H1759 0.950 . S
C1735 C1734 1.349 . S
C1735 C1751 1.349 . S
C1736 C1734 1.327 . S
C1736 C1755 1.429 . S
C1736 H1760 0.950 . S
C1737 C1754 1.574 . S
C1737 C1756 1.368 . S
C1737 H1761 0.949 . S
H1738 C1742 0.949 . S
C1739 C1740 1.349 . S
C1739 C1741 1.327 . S
C1739 H1762 0.950 . S
C1740 C1739 1.349 . S
C1740 C1752 1.349 . S
C1741 C1739 1.327 . S
C1741 C1757 1.429 . S
C1741 H1763 0.950 . S
C1742 H1738 0.949 . S
C1742 C1750 1.574 . S
C1742 C1758 1.368 . S
H1743 C1751 0.950 . S
H1744 C1749 0.950 . S
H1745 C1750 0.949 . S
H1746 C1752 0.950 . S
H1747 C1753 0.950 . S
H1748 C1754 0.949 . S
C1749 H1744 0.950 . S
C1749 C1751 1.327 . S
C1749 C1755 1.429 . S
C1750 C1742 1.574 . S
C1750 H1745 0.949 . S
C1750 C1756 1.368 . S
C1751 C1735 1.349 . S
C1751 H1743 0.950 . S
C1751 C1749 1.327 . S
C1752 C1740 1.349 . S
C1752 H1746 0.950 . S
C1752 C1753 1.327 . S
C1753 H1747 0.950 . S
C1753 C1752 1.327 . S
C1753 C1757 1.429 . S
C1754 C1737 1.574 . S
C1754 H1748 0.949 . S
C1754 C1758 1.368 . S
C1755 C1736 1.429 . S
C1755 C1749 1.429 . S
C1755 C1756 1.523 . S
C1756 C1737 1.368 . S
C1756 C1750 1.368 . S
C1756 C1755 1.523 . S
C1757 C1741 1.429 . S
C1757 C1753 1.429 . S
C1757 C1758 1.523 . S
C1758 C1742 1.368 . S
C1758 C1754 1.368 . S
C1758 C1757 1.523 . S
H1759 C1734 0.950 . S
H1760 C1736 0.950 . S
H1761 C1737 0.949 . S
H1762 C1739 0.950 . S
H1763 C1741 0.950 . S
C1764 C1765 1.349 1_554 S
C1764 C1766 1.327 . S
C1764 H1789 0.950 . S
C1765 C1764 1.349 1_556 S
C1765 C1781 1.349 . S
C1766 C1764 1.327 . S
C1766 C1785 1.429 . S
C1766 H1790 0.950 . S
C1767 C1784 1.574 . S
C1767 C1786 1.368 . S
C1767 H1791 0.949 1_554 S
H1768 C1772 0.949 . S
C1769 C1770 1.349 . S
C1769 C1771 1.327 . S
C1769 H1792 0.950 . S
C1770 C1769 1.349 . S
C1770 C1782 1.349 . S
C1771 C1769 1.327 . S
C1771 C1787 1.429 . S
C1771 H1793 0.950 . S
C1772 H1768 0.949 . S
C1772 C1780 1.574 . S
C1772 C1788 1.368 . S
H1773 C1781 0.950 . S
H1774 C1779 0.950 . S
H1775 C1780 0.949 . S
H1776 C1782 0.950 . S
H1777 C1783 0.950 . S
H1778 C1784 0.949 . S
C1779 H1774 0.950 . S
C1779 C1781 1.327 . S
C1779 C1785 1.429 1_556 S
C1780 C1772 1.574 . S
C1780 H1775 0.949 . S
C1780 C1786 1.368 . S
C1781 C1765 1.349 . S
C1781 H1773 0.950 . S
C1781 C1779 1.327 . S
C1782 C1770 1.349 . S
C1782 H1776 0.950 . S
C1782 C1783 1.327 . S
C1783 H1777 0.950 . S
C1783 C1782 1.327 . S
C1783 C1787 1.429 . S
C1784 C1767 1.574 . S
C1784 H1778 0.949 . S
C1784 C1788 1.368 . S
C1785 C1766 1.429 . S
C1785 C1779 1.429 1_554 S
C1785 C1786 1.523 . S
C1786 C1767 1.368 . S
C1786 C1780 1.368 . S
C1786 C1785 1.523 . S
C1787 C1771 1.429 . S
C1787 C1783 1.429 . S
C1787 C1788 1.523 . S
C1788 C1772 1.368 . S
C1788 C1784 1.368 . S
C1788 C1787 1.523 . S
H1789 C1764 0.950 . S
H1790 C1766 0.950 . S
H1791 C1767 0.949 1_556 S
H1792 C1769 0.950 . S
H1793 C1771 0.950 . S
C1794 C1795 1.349 . S
C1794 C1796 1.327 . S
C1794 H1819 0.950 . S
C1795 C1794 1.349 . S
C1795 C1811 1.349 . S
C1796 C1794 1.327 . S
C1796 C1815 1.429 . S
C1796 H1820 0.950 . S
C1797 C1814 1.574 . S
C1797 C1816 1.368 . S
C1797 H1821 0.949 . S
H1798 C1802 0.949 . S
C1799 C1800 1.349 . S
C1799 C1801 1.327 . S
C1799 H1822 0.950 . S
C1800 C1799 1.349 . S
C1800 C1812 1.349 1_556 S
C1801 C1799 1.327 . S
C1801 C1817 1.429 1_556 S
C1801 H1823 0.950 . S
C1802 H1798 0.949 . S
C1802 C1810 1.574 . S
C1802 C1818 1.368 . S
H1803 C1811 0.950 . S
H1804 C1809 0.950 . S
H1805 C1810 0.949 . S
H1806 C1812 0.950 . S
H1807 C1813 0.950 . S
H1808 C1814 0.949 . S
C1809 H1804 0.950 . S
C1809 C1811 1.327 . S
C1809 C1815 1.429 . S
C1810 C1802 1.574 . S
C1810 H1805 0.949 . S
C1810 C1816 1.368 . S
C1811 C1795 1.349 . S
C1811 H1803 0.950 . S
C1811 C1809 1.327 . S
C1812 C1800 1.349 1_554 S
C1812 H1806 0.950 . S
C1812 C1813 1.327 . S
C1813 H1807 0.950 . S
C1813 C1812 1.327 . S
C1813 C1817 1.429 . S
C1814 C1797 1.574 . S
C1814 H1808 0.949 . S
C1814 C1818 1.368 . S
C1815 C1796 1.429 . S
C1815 C1809 1.429 . S
C1815 C1816 1.523 . S
C1816 C1797 1.368 . S
C1816 C1810 1.368 . S
C1816 C1815 1.523 . S
C1817 C1801 1.429 1_554 S
C1817 C1813 1.429 . S
C1817 C1818 1.523 . S
C1818 C1802 1.368 . S
C1818 C1814 1.368 . S
C1818 C1817 1.523 . S
H1819 C1794 0.950 . S
H1820 C1796 0.950 . S
H1821 C1797 0.949 . S
H1822 C1799 0.950 . S
H1823 C1801 0.950 . S
C1824 C1825 1.349 . S
C1824 C1826 1.327 . S
C1824 H1849 0.950 . S
C1825 C1824 1.349 . S
C1825 C1841 1.349 . S
C1826 C1824 1.327 . S
C1826 C1845 1.429 . S
C1826 H1850 0.950 . S
C1827 C1844 1.574 . S
C1827 C1846 1.368 . S
C1827 H1851 0.949 . S
H1828 C1832 0.951 1_556 S
C1829 C1830 1.349 1_554 S
C1829 C1831 1.327 . S
C1829 H1852 0.950 . S
C1830 C1829 1.349 1_556 S
C1830 C1842 1.349 . S
C1831 C1829 1.327 . S
C1831 C1847 1.429 . S
C1831 H1853 0.950 . S
C1832 H1828 0.951 1_554 S
C1832 C1840 1.574 . S
C1832 C1848 1.368 . S
H1833 C1841 0.950 . S
H1834 C1839 0.950 . S
H1835 C1840 0.949 . S
H1836 C1842 0.950 . S
H1837 C1843 0.950 . S
H1838 C1844 0.949 . S
C1839 H1834 0.950 . S
C1839 C1841 1.327 . S
C1839 C1845 1.429 . S
C1840 C1832 1.574 . S
C1840 H1835 0.949 . S
C1840 C1846 1.368 . S
C1841 C1825 1.349 . S
C1841 H1833 0.950 . S
C1841 C1839 1.327 . S
C1842 C1830 1.349 . S
C1842 H1836 0.950 . S
C1842 C1843 1.327 . S
C1843 H1837 0.950 . S
C1843 C1842 1.327 . S
C1843 C1847 1.429 1_556 S
C1844 C1827 1.574 . S
C1844 H1838 0.949 . S
C1844 C1848 1.368 . S
C1845 C1826 1.429 . S
C1845 C1839 1.429 . S
C1845 C1846 1.523 . S
C1846 C1827 1.368 . S
C1846 C1840 1.368 . S
C1846 C1845 1.523 . S
C1847 C1831 1.429 . S
C1847 C1843 1.429 1_554 S
C1847 C1848 1.523 . S
C1848 C1832 1.368 . S
C1848 C1844 1.368 . S
C1848 C1847 1.523 . S
H1849 C1824 0.950 . S
H1850 C1826 0.950 . S
H1851 C1827 0.949 . S
H1852 C1829 0.950 . S
H1853 C1831 0.950 . S
C1854 C1855 1.349 . S
C1854 C1856 1.327 . S
C1854 H1879 0.950 . S
C1855 C1854 1.349 . S
C1855 C1871 1.349 . S
C1856 C1854 1.327 . S
C1856 C1875 1.429 . S
C1856 H1880 0.950 . S
C1857 C1874 1.574 1_655 S
C1857 C1876 1.368 . S
C1857 H1881 0.949 . S
H1858 C1862 0.949 . S
C1859 C1860 1.349 . S
C1859 C1861 1.327 . S
C1859 H1882 0.950 . S
C1860 C1859 1.349 . S
C1860 C1872 1.349 . S
C1861 C1859 1.327 . S
C1861 C1877 1.429 . S
C1861 H1883 0.950 . S
C1862 H1858 0.949 . S
C1862 C1870 1.574 1_455 S
C1862 C1878 1.368 . S
H1863 C1871 0.950 . S
H1864 C1869 0.950 . S
H1865 C1870 0.949 . S
H1866 C1872 0.950 . S
H1867 C1873 0.950 . S
H1868 C1874 0.949 . S
C1869 H1864 0.950 . S
C1869 C1871 1.327 . S
C1869 C1875 1.429 . S
C1870 C1862 1.574 1_655 S
C1870 H1865 0.949 . S
C1870 C1876 1.368 . S
C1871 C1855 1.349 . S
C1871 H1863 0.950 . S
C1871 C1869 1.327 . S
C1872 C1860 1.349 . S
C1872 H1866 0.950 . S
C1872 C1873 1.327 . S
C1873 H1867 0.950 . S
C1873 C1872 1.327 . S
C1873 C1877 1.429 . S
C1874 C1857 1.574 1_455 S
C1874 H1868 0.949 . S
C1874 C1878 1.368 . S
C1875 C1856 1.429 . S
C1875 C1869 1.429 . S
C1875 C1876 1.523 . S
C1876 C1857 1.368 . S
C1876 C1870 1.368 . S
C1876 C1875 1.523 . S
C1877 C1861 1.429 . S
C1877 C1873 1.429 . S
C1877 C1878 1.523 . S
C1878 C1862 1.368 . S
C1878 C1874 1.368 . S
C1878 C1877 1.523 . S
H1879 C1854 0.950 . S
H1880 C1856 0.950 . S
H1881 C1857 0.949 . S
H1882 C1859 0.950 . S
H1883 C1861 0.950 . S
C1884 C1885 1.349 . S
C1884 C1886 1.327 . S
C1884 H1909 0.950 . S
C1885 C1884 1.349 . S
C1885 C1901 1.349 . S
C1886 C1884 1.327 . S
C1886 C1905 1.429 . S
C1886 H1910 0.950 . S
C1887 C1904 1.574 . S
C1887 C1906 1.368 . S
C1887 H1911 0.949 . S
H1888 C1892 0.949 . S
C1889 C1890 1.349 . S
C1889 C1891 1.327 . S
C1889 H1912 0.950 . S
C1890 C1889 1.349 . S
C1890 C1902 1.349 . S
C1891 C1889 1.327 . S
C1891 C1907 1.429 . S
C1891 H1913 0.950 . S
C1892 H1888 0.949 . S
C1892 C1900 1.574 . S
C1892 C1908 1.368 . S
H1893 C1901 0.950 . S
H1894 C1899 0.950 . S
H1895 C1900 0.949 . S
H1896 C1902 0.950 . S
H1897 C1903 0.950 . S
H1898 C1904 0.949 . S
C1899 H1894 0.950 . S
C1899 C1901 1.327 . S
C1899 C1905 1.429 . S
C1900 C1892 1.574 . S
C1900 H1895 0.949 . S
C1900 C1906 1.368 . S
C1901 C1885 1.349 . S
C1901 H1893 0.950 . S
C1901 C1899 1.327 . S
C1902 C1890 1.349 . S
C1902 H1896 0.950 . S
C1902 C1903 1.327 . S
C1903 H1897 0.950 . S
C1903 C1902 1.327 . S
C1903 C1907 1.429 . S
C1904 C1887 1.574 . S
C1904 H1898 0.949 . S
C1904 C1908 1.368 . S
C1905 C1886 1.429 . S
C1905 C1899 1.429 . S
C1905 C1906 1.523 . S
C1906 C1887 1.368 . S
C1906 C1900 1.368 . S
C1906 C1905 1.523 . S
C1907 C1891 1.429 . S
C1907 C1903 1.429 . S
C1907 C1908 1.523 . S
C1908 C1892 1.368 . S
C1908 C1904 1.368 . S
C1908 C1907 1.523 . S
H1909 C1884 0.950 . S
H1910 C1886 0.950 . S
H1911 C1887 0.949 . S
H1912 C1889 0.950 . S
H1913 C1891 0.950 . S
C1914 C1915 1.349 . S
C1914 C1916 1.327 . S
C1914 H1939 0.950 . S
C1915 C1914 1.349 . S
C1915 C1931 1.349 . S
C1916 C1914 1.327 . S
C1916 C1935 1.429 . S
C1916 H1940 0.950 . S
C1917 C1934 1.574 1_565 S
C1917 C1936 1.368 . S
C1917 H1941 0.949 . S
H1918 C1922 0.949 . S
C1919 C1920 1.349 . S
C1919 C1921 1.327 . S
C1919 H1942 0.950 . S
C1920 C1919 1.349 . S
C1920 C1932 1.349 . S
C1921 C1919 1.327 . S
C1921 C1937 1.429 . S
C1921 H1943 0.950 . S
C1922 H1918 0.949 . S
C1922 C1930 1.574 . S
C1922 C1938 1.368 . S
H1923 C1931 0.950 . S
H1924 C1929 0.950 . S
H1925 C1930 0.949 . S
H1926 C1932 0.950 . S
H1927 C1933 0.950 . S
H1928 C1934 0.949 . S
C1929 H1924 0.950 . S
C1929 C1931 1.327 . S
C1929 C1935 1.429 . S
C1930 C1922 1.574 . S
C1930 H1925 0.949 . S
C1930 C1936 1.368 1_545 S
C1931 C1915 1.349 . S
C1931 H1923 0.950 . S
C1931 C1929 1.327 . S
C1932 C1920 1.349 . S
C1932 H1926 0.950 . S
C1932 C1933 1.327 . S
C1933 H1927 0.950 . S
C1933 C1932 1.327 . S
C1933 C1937 1.429 . S
C1934 C1917 1.574 1_545 S
C1934 H1928 0.949 . S
C1934 C1938 1.368 . S
C1935 C1916 1.429 . S
C1935 C1929 1.429 . S
C1935 C1936 1.523 . S
C1936 C1917 1.368 . S
C1936 C1930 1.368 1_565 S
C1936 C1935 1.523 . S
C1937 C1921 1.429 . S
C1937 C1933 1.429 . S
C1937 C1938 1.523 . S
C1938 C1922 1.368 . S
C1938 C1934 1.368 . S
C1938 C1937 1.523 . S
H1939 C1914 0.950 . S
H1940 C1916 0.950 . S
H1941 C1917 0.949 . S
H1942 C1919 0.950 . S
H1943 C1921 0.950 . S
C1944 C1945 1.349 . S
C1944 C1946 1.327 . S
C1944 H1969 0.950 . S
C1945 C1944 1.349 . S
C1945 C1961 1.349 . S
C1946 C1944 1.327 . S
C1946 C1965 1.429 . S
C1946 H1970 0.950 . S
C1947 C1964 1.574 . S
C1947 C1966 1.368 1_545 S
C1947 H1971 0.949 . S
H1948 C1952 0.949 . S
C1949 C1950 1.349 . S
C1949 C1951 1.327 . S
C1949 H1972 0.950 . S
C1950 C1949 1.349 . S
C1950 C1962 1.349 . S
C1951 C1949 1.327 . S
C1951 C1967 1.429 . S
C1951 H1973 0.950 . S
C1952 H1948 0.949 . S
C1952 C1960 1.574 1_545 S
C1952 C1968 1.368 . S
H1953 C1961 0.950 . S
H1954 C1959 0.950 . S
H1955 C1960 0.949 . S
H1956 C1962 0.950 . S
H1957 C1963 0.950 . S
H1958 C1964 0.949 . S
C1959 H1954 0.950 . S
C1959 C1961 1.327 . S
C1959 C1965 1.429 . S
C1960 C1952 1.574 1_565 S
C1960 H1955 0.949 . S
C1960 C1966 1.368 . S
C1961 C1945 1.349 . S
C1961 H1953 0.950 . S
C1961 C1959 1.327 . S
C1962 C1950 1.349 . S
C1962 H1956 0.950 . S
C1962 C1963 1.327 . S
C1963 H1957 0.950 . S
C1963 C1962 1.327 . S
C1963 C1967 1.429 . S
C1964 C1947 1.574 . S
C1964 H1958 0.949 . S
C1964 C1968 1.368 . S
C1965 C1946 1.429 . S
C1965 C1959 1.429 . S
C1965 C1966 1.523 . S
C1966 C1947 1.368 1_565 S
C1966 C1960 1.368 . S
C1966 C1965 1.523 . S
C1967 C1951 1.429 . S
C1967 C1963 1.429 . S
C1967 C1968 1.523 . S
C1968 C1952 1.368 . S
C1968 C1964 1.368 . S
C1968 C1967 1.523 . S
H1969 C1944 0.950 . S
H1970 C1946 0.950 . S
H1971 C1947 0.949 . S
H1972 C1949 0.950 . S
H1973 C1951 0.950 . S
C1974 C1975 1.349 . S
C1974 C1976 1.327 . S
C1974 H1999 0.950 . S
C1975 C1974 1.349 . S
C1975 C1991 1.349 . S
C1976 C1974 1.327 . S
C1976 C1995 1.429 . S
C1976 H2000 0.950 . S
C1977 C1994 1.574 . S
C1977 C1996 1.368 . S
C1977 H2001 0.949 . S
H1978 C1982 0.949 . S
C1979 C1980 1.349 . S
C1979 C1981 1.327 . S
C1979 H2002 0.950 . S
C1980 C1979 1.349 . S
C1980 C1992 1.349 . S
C1981 C1979 1.327 . S
C1981 C1997 1.429 . S
C1981 H2003 0.950 . S
C1982 H1978 0.949 . S
C1982 C1990 1.574 1_655 S
C1982 C1998 1.368 . S
H1983 C1991 0.950 . S
H1984 C1989 0.950 . S
H1985 C1990 0.949 . S
H1986 C1992 0.950 . S
H1987 C1993 0.950 . S
H1988 C1994 0.949 . S
C1989 H1984 0.950 . S
C1989 C1991 1.327 . S
C1989 C1995 1.429 . S
C1990 C1982 1.574 1_455 S
C1990 H1985 0.949 . S
C1990 C1996 1.368 . S
C1991 C1975 1.349 . S
C1991 H1983 0.950 . S
C1991 C1989 1.327 . S
C1992 C1980 1.349 . S
C1992 H1986 0.950 . S
C1992 C1993 1.327 . S
C1993 H1987 0.950 . S
C1993 C1992 1.327 . S
C1993 C1997 1.429 . S
C1994 C1977 1.574 . S
C1994 H1988 0.949 . S
C1994 C1998 1.368 1_455 S
C1995 C1976 1.429 . S
C1995 C1989 1.429 . S
C1995 C1996 1.523 . S
C1996 C1977 1.368 . S
C1996 C1990 1.368 . S
C1996 C1995 1.523 . S
C1997 C1981 1.429 . S
C1997 C1993 1.429 . S
C1997 C1998 1.523 . S
C1998 C1982 1.368 . S
C1998 C1994 1.368 1_655 S
C1998 C1997 1.523 . S
H1999 C1974 0.950 . S
H2000 C1976 0.950 . S
H2001 C1977 0.949 . S
H2002 C1979 0.950 . S
H2003 C1981 0.950 . S
C2004 C2005 1.349 . S
C2004 C2006 1.327 . S
C2004 H2029 0.950 . S
C2005 C2004 1.349 . S
C2005 C2021 1.349 . S
C2006 C2004 1.327 . S
C2006 C2025 1.429 . S
C2006 H2030 0.950 . S
C2007 C2024 1.574 . S
C2007 C2026 1.368 . S
C2007 H2031 0.949 . S
H2008 C2012 0.949 . S
C2009 C2010 1.349 . S
C2009 C2011 1.327 . S
C2009 H2032 0.950 . S
C2010 C2009 1.349 . S
C2010 C2022 1.349 . S
C2011 C2009 1.327 . S
C2011 C2027 1.429 . S
C2011 H2033 0.950 . S
C2012 H2008 0.949 . S
C2012 C2020 1.574 . S
C2012 C2028 1.368 . S
H2013 C2021 0.950 . S
H2014 C2019 0.950 . S
H2015 C2020 0.949 . S
H2016 C2022 0.950 . S
H2017 C2023 0.950 . S
H2018 C2024 0.949 . S
C2019 H2014 0.950 . S
C2019 C2021 1.327 . S
C2019 C2025 1.429 . S
C2020 C2012 1.574 . S
C2020 H2015 0.949 . S
C2020 C2026 1.368 . S
C2021 C2005 1.349 . S
C2021 H2013 0.950 . S
C2021 C2019 1.327 . S
C2022 C2010 1.349 . S
C2022 H2016 0.950 . S
C2022 C2023 1.327 . S
C2023 H2017 0.950 . S
C2023 C2022 1.327 . S
C2023 C2027 1.429 . S
C2024 C2007 1.574 . S
C2024 H2018 0.949 . S
C2024 C2028 1.368 . S
C2025 C2006 1.429 . S
C2025 C2019 1.429 . S
C2025 C2026 1.523 . S
C2026 C2007 1.368 . S
C2026 C2020 1.368 . S
C2026 C2025 1.523 . S
C2027 C2011 1.429 . S
C2027 C2023 1.429 . S
C2027 C2028 1.523 . S
C2028 C2012 1.368 . S
C2028 C2024 1.368 . S
C2028 C2027 1.523 . S
H2029 C2004 0.950 . S
H2030 C2006 0.950 . S
H2031 C2007 0.949 . S
H2032 C2009 0.950 . S
H2033 C2011 0.950 . S
C415 C18 1.278 . S
C420 C111 1.266 . S
C445 C134 1.266 . S
C450 C41 1.278 . S
C475 C64 1.278 . S
C480 C88 1.266 . S
C505 C63 1.555 . S
C510 C112 1.605 . S
C535 C135 1.605 . S
C540 C17 1.555 . S
C565 C40 1.555 . S
C570 C89 1.605 . S
C595 C42 1.635 . S
C600 C86 1.639 . S
C625 C65 1.635 . S
C630 C109 1.639 . S
C655 C132 1.639 . S
C660 C19 1.635 . S
C685 C133 1.224 . S
C690 C43 1.231 . S
C715 C66 1.230 . S
C720 C87 1.224 . S
C745 C20 1.230 . S
C750 C110 1.224 . S
C775 C249 1.266 . S
C780 C156 1.278 1_556 S
C805 C179 1.278 1_556 S
C810 C272 1.266 . S
C835 C202 1.278 1_556 S
C840 C226 1.266 . S
C865 C250 1.605 . S
C870 C201 1.555 . S
C895 C273 1.605 . S
C900 C155 1.555 . S
C925 C227 1.605 . S
C930 C178 1.555 . S
C955 C180 1.635 . S
C960 C224 1.639 . S
C985 C203 1.635 . S
C990 C247 1.639 . S
C1015 C157 1.635 . S
C1020 C270 1.639 . S
C1045 C181 1.231 . S
C1050 C271 1.224 . S
C1075 C204 1.230 . S
C1080 C225 1.224 . S
C1105 C248 1.224 . S
C1110 C158 1.231 . S
C1135 C294 1.278 . S
C1140 C387 1.266 . S
C1165 C317 1.278 . S
C1170 C410 1.266 . S
C1195 C364 1.266 . S
C1200 C340 1.278 . S
C1225 C388 1.605 . S
C1230 C339 1.555 . S
C1255 C293 1.555 . S
C1260 C411 1.605 . S
C1285 C316 1.555 . S
C1290 C365 1.605 . S
C1315 C318 1.635 . S
C1320 C362 1.639 1_554 S
C1345 C341 1.635 . S
C1350 C385 1.639 1_554 S
C1375 C295 1.635 . S
C1380 C408 1.639 1_554 S
C1405 C409 1.224 . S
C1410 C319 1.231 . S
C1435 C363 1.224 . S
C1440 C342 1.230 . S
C1465 C296 1.231 . S
C1470 C386 1.224 . S
C1495 C16 1.304 . S
C1500 C320 1.286 . S
C1525 C39 1.304 . S
C1530 C343 1.286 . S
C1555 C62 1.304 . S
C1560 C297 1.286 . S
C1585 C67 1.286 . S
C1590 C177 1.304 1_556 S
C1615 C21 1.286 . S
C1620 C200 1.304 1_556 S
C1645 C44 1.286 . S
C1650 C154 1.304 1_556 S
C1675 C246 1.388 . S
C1680 C90 1.374 . S
C1705 C113 1.373 . S
C1710 C269 1.387 . S
C1735 C136 1.374 . S
C1740 C223 1.388 . S
C1765 C389 1.373 . S
C1770 C131 1.387 . S
C1795 C85 1.388 . S
C1800 C412 1.374 . S
C1825 C108 1.387 . S
C1830 C366 1.374 . S
C1855 C205 1.286 . S
C1860 C315 1.304 . S
C1885 C159 1.286 . S
C1890 C338 1.304 . S
C1915 C292 1.304 . S
C1920 C182 1.286 . S
C1945 C384 1.388 . S
C1950 C228 1.374 . S
C1975 C407 1.387 . S
C1980 C251 1.373 . S
C2005 C274 1.374 . S
C2010 C361 1.388 . S
