# Generated by pormake.
# Topology lcy-e, (6)-cn, num edge types: 1
# Building blocks:
#     Node 0, Type 0, BuildingBlock: BETFAJ_clean_sbu_0, # of connection points: 6
#     Node 1, Type 0, BuildingBlock: BETFAJ_clean_sbu_0, # of connection points: 6
#     Node 2, Type 0, BuildingBlock: BETFAJ_clean_sbu_0, # of connection points: 6
#     Node 3, Type 0, BuildingBlock: BETFAJ_clean_sbu_0, # of connection points: 6
#     Node 4, Type 0, BuildingBlock: BETFAJ_clean_sbu_0, # of connection points: 6
#     Node 5, Type 0, BuildingBlock: BETFAJ_clean_sbu_0, # of connection points: 6
#     Node 6, Type 0, BuildingBlock: BETFAJ_clean_sbu_0, # of connection points: 6
#     Node 7, Type 0, BuildingBlock: BETFAJ_clean_sbu_0, # of connection points: 6
#     Node 8, Type 0, BuildingBlock: BETFAJ_clean_sbu_0, # of connection points: 6
#     Node 9, Type 0, BuildingBlock: BETFAJ_clean_sbu_0, # of connection points: 6
#     Node 10, Type 0, BuildingBlock: BETFAJ_clean_sbu_0, # of connection points: 6
#     Node 11, Type 0, BuildingBlock: BETFAJ_clean_sbu_0, # of connection points: 6
#     Edge 12, Type (0, 0), BuildingBlock: EZIPEK_clean_linker_0, # of connection points: 2
#     Edge 13, Type (0, 0), BuildingBlock: EZIPEK_clean_linker_0, # of connection points: 2
#     Edge 14, Type (0, 0), BuildingBlock: EZIPEK_clean_linker_0, # of connection points: 2
#     Edge 15, Type (0, 0), BuildingBlock: EZIPEK_clean_linker_0, # of connection points: 2
#     Edge 16, Type (0, 0), BuildingBlock: EZIPEK_clean_linker_0, # of connection points: 2
#     Edge 17, Type (0, 0), BuildingBlock: EZIPEK_clean_linker_0, # of connection points: 2
#     Edge 18, Type (0, 0), BuildingBlock: EZIPEK_clean_linker_0, # of connection points: 2
#     Edge 19, Type (0, 0), BuildingBlock: EZIPEK_clean_linker_0, # of connection points: 2
#     Edge 20, Type (0, 0), BuildingBlock: EZIPEK_clean_linker_0, # of connection points: 2
#     Edge 21, Type (0, 0), BuildingBlock: EZIPEK_clean_linker_0, # of connection points: 2
#     Edge 22, Type (0, 0), BuildingBlock: EZIPEK_clean_linker_0, # of connection points: 2
#     Edge 23, Type (0, 0), BuildingBlock: EZIPEK_clean_linker_0, # of connection points: 2
#     Edge 24, Type (0, 0), BuildingBlock: EZIPEK_clean_linker_0, # of connection points: 2
#     Edge 25, Type (0, 0), BuildingBlock: EZIPEK_clean_linker_0, # of connection points: 2
#     Edge 26, Type (0, 0), BuildingBlock: EZIPEK_clean_linker_0, # of connection points: 2
#     Edge 27, Type (0, 0), BuildingBlock: EZIPEK_clean_linker_0, # of connection points: 2
#     Edge 28, Type (0, 0), BuildingBlock: EZIPEK_clean_linker_0, # of connection points: 2
#     Edge 29, Type (0, 0), BuildingBlock: EZIPEK_clean_linker_0, # of connection points: 2
#     Edge 30, Type (0, 0), BuildingBlock: EZIPEK_clean_linker_0, # of connection points: 2
#     Edge 31, Type (0, 0), BuildingBlock: EZIPEK_clean_linker_0, # of connection points: 2
#     Edge 32, Type (0, 0), BuildingBlock: EZIPEK_clean_linker_0, # of connection points: 2
#     Edge 33, Type (0, 0), BuildingBlock: EZIPEK_clean_linker_0, # of connection points: 2
#     Edge 34, Type (0, 0), BuildingBlock: EZIPEK_clean_linker_0, # of connection points: 2
#     Edge 35, Type (0, 0), BuildingBlock: EZIPEK_clean_linker_0, # of connection points: 2
#     Edge 36, Type (0, 0), BuildingBlock: EZIPEK_clean_linker_0, # of connection points: 2
#     Edge 37, Type (0, 0), BuildingBlock: EZIPEK_clean_linker_0, # of connection points: 2
#     Edge 38, Type (0, 0), BuildingBlock: EZIPEK_clean_linker_0, # of connection points: 2
#     Edge 39, Type (0, 0), BuildingBlock: EZIPEK_clean_linker_0, # of connection points: 2
#     Edge 40, Type (0, 0), BuildingBlock: EZIPEK_clean_linker_0, # of connection points: 2
#     Edge 41, Type (0, 0), BuildingBlock: EZIPEK_clean_linker_0, # of connection points: 2
#     Edge 42, Type (0, 0), BuildingBlock: EZIPEK_clean_linker_0, # of connection points: 2
#     Edge 43, Type (0, 0), BuildingBlock: EZIPEK_clean_linker_0, # of connection points: 2
#     Edge 44, Type (0, 0), BuildingBlock: EZIPEK_clean_linker_0, # of connection points: 2
#     Edge 45, Type (0, 0), BuildingBlock: EZIPEK_clean_linker_0, # of connection points: 2
#     Edge 46, Type (0, 0), BuildingBlock: EZIPEK_clean_linker_0, # of connection points: 2
#     Edge 47, Type (0, 0), BuildingBlock: EZIPEK_clean_linker_0, # of connection points: 2
# Relax obj value: 0.203
# Max RMSD: 0.321
# Mean RMSD: 0.297
data_MOF--net-lcy-e--node1-BETFAJ_clean_sbu_0--edge1-EZIPEK_clean_linker_0
_symmetry_space_group_name_H-M    P1
_symmetry_Int_Tables_number       1
_symmetry_cell_setting            triclinic
loop_
_symmetry_equiv_pos_as_xyz
'x, y, z'
_cell_length_a     35.20591
_cell_length_b     32.842554
_cell_length_c     35.355573
_cell_angle_alpha  89.96727
_cell_angle_beta   90.968661
_cell_angle_gamma 88.287603
loop_
_atom_site_label
_atom_site_type_symbol
_atom_site_fract_x
_atom_site_fract_y
_atom_site_fract_z
_atom_type_partial_charge
Sm0 Sm 0.14463 0.28927 0.49025 0.0
Sm1 Sm 0.16935 0.22809 0.54784 0.0
C2 C 0.13964 0.34828 0.43895 0.0
C3 C 0.15491 0.35634 0.40106 0.0
C4 C 0.17031 0.39439 0.3937 0.0
C5 C 0.18452 0.40315 0.35802 0.0
C6 C 0.18355 0.37403 0.32904 0.0
C7 C 0.16862 0.3357 0.33634 0.0
C8 C 0.15454 0.32681 0.37219 0.0
C9 C 0.10129 0.22122 0.48697 0.0
C10 C 0.22061 0.22854 0.47449 0.0
C11 C 0.17301 0.16708 0.5975 0.0
C12 C 0.14752 0.13685 0.61383 0.0
C13 C 0.10966 0.14699 0.62283 0.0
C14 C 0.08615 0.11766 0.63818 0.0
C15 C 0.10033 0.07785 0.64527 0.0
C16 C 0.13798 0.06762 0.63576 0.0
C17 C 0.16128 0.0968 0.62006 0.0
C18 C 0.20579 0.30288 0.55305 0.0
C19 C 0.09721 0.28603 0.56722 0.0
O20 O 0.16414 0.34795 0.46711 0.0
O21 O 0.11465 0.31982 0.44171 0.0
O22 O 0.13726 0.22034 0.49158 0.0
O23 O 0.08812 0.25827 0.48289 0.0
O24 O 0.20036 0.26148 0.46438 0.0
O25 O 0.21274 0.20748 0.50468 0.0
O26 O 0.18054 0.16268 0.56169 0.0
O27 O 0.1679 0.20528 0.60716 0.0
O28 O 0.17118 0.29729 0.54711 0.0
O29 O 0.22256 0.26792 0.56052 0.0
O30 O 0.10966 0.24788 0.56722 0.0
O31 O 0.11158 0.31169 0.54275 0.0
H32 H 0.17107 0.4175 0.41555 0.0
H33 H 0.1958 0.43294 0.35281 0.0
H34 H 0.16755 0.31293 0.31423 0.0
H35 H 0.14314 0.29705 0.37721 0.0
H36 H 0.09837 0.17759 0.61819 0.0
H37 H 0.05727 0.12629 0.64554 0.0
H38 H 0.14956 0.03721 0.64123 0.0
H39 H 0.19031 0.08821 0.61319 0.0
Sm40 Sm 0.98799 0.8652 0.75734 0.0
Sm41 Sm 0.04839 0.89968 0.80934 0.0
C42 C 0.9289 0.85883 0.71036 0.0
C43 C 0.91857 0.87486 0.67218 0.0
C44 C 0.88128 0.88943 0.66481 0.0
C45 C 0.87107 0.90603 0.62943 0.0
C46 C 0.89796 0.9084 0.60068 0.0
C47 C 0.93535 0.89391 0.60791 0.0
C48 C 0.94564 0.87746 0.64345 0.0
C49 C 0.05676 0.82531 0.75008 0.0
C50 C 0.03528 0.94925 0.73281 0.0
C51 C 0.11049 0.91136 0.85147 0.0
C52 C 0.14022 0.88732 0.8722 0.0
C53 C 0.13796 0.84516 0.87713 0.0
C54 C 0.16704 0.82306 0.89652 0.0
C55 C 0.1983 0.84286 0.91364 0.0
C56 C 0.20202 0.88441 0.90366 0.0
C57 C 0.1731 0.90642 0.8844 0.0
C58 C 0.97354 0.93073 0.81724 0.0
C59 C 1.00493 0.82256 0.83988 0.0
O60 O 0.93031 0.8859 0.73741 0.0
O61 O 0.95651 0.83127 0.71288 0.0
O62 O 0.05237 0.86371 0.754 0.0
O63 O 1.02429 0.80753 0.7488 0.0
O64 O 1.00563 0.92574 0.727 0.0
O65 O 0.05841 0.94342 0.76179 0.0
O66 O 0.11056 0.90787 0.81472 0.0
O67 O 0.07621 0.91243 0.86516 0.0
O68 O 0.98478 0.89484 0.81277 0.0
O69 O 1.00313 0.95357 0.82001 0.0
O70 O 0.03906 0.83685 0.83529 0.0
O71 O 0.97707 0.83241 0.8152 0.0
H72 H 0.86002 0.8881 0.68654 0.0
H73 H 0.84207 0.91689 0.62438 0.0
H74 H 0.95649 0.89539 0.5861 0.0
H75 H 0.97473 0.86692 0.64849 0.0
H76 H 0.11403 0.82915 0.86539 0.0
H77 H 0.16456 0.79055 0.89639 0.0
H78 H 0.22748 0.90064 0.91053 0.0
H79 H 0.1767 0.93848 0.87866 0.0
Sm80 Sm 0.38436 0.78024 0.04681 0.0
Sm81 Sm 0.41066 0.71991 0.99095 0.0
C82 C 0.37309 0.83955 0.09669 0.0
C83 C 0.3971 0.86996 0.11523 0.0
C84 C 0.4309 0.88226 0.09855 0.0
C85 C 0.45422 0.90997 0.11701 0.0
C86 C 0.4436 0.92663 0.15197 0.0
C87 C 0.4096 0.91469 0.1684 0.0
C88 C 0.38663 0.88638 0.15024 0.0
C89 C 0.3293 0.76764 0.99146 0.0
C90 C 0.45198 0.80582 0.98725 0.0
C91 C 0.42373 0.67615 0.92854 0.0
C92 C 0.40415 0.65858 0.89506 0.0
C93 C 0.37069 0.67661 0.87933 0.0
C94 C 0.35439 0.66092 0.84599 0.0
C95 C 0.37129 0.62701 0.82784 0.0
C96 C 0.40428 0.60868 0.844 0.0
C97 C 0.42054 0.62433 0.87721 0.0
C98 C 0.45188 0.71634 0.06041 0.0
C99 C 0.35663 0.68771 0.05281 0.0
O100 O 0.3794 0.8015 0.10651 0.0
O101 O 0.36751 0.84408 0.0603 0.0
O102 O 0.36453 0.77063 0.98548 0.0
O103 O 0.32344 0.76898 0.02739 0.0
O104 O 0.42909 0.81787 1.01468 0.0
O105 O 0.45146 0.76868 0.9737 0.0
O106 O 0.42518 0.71575 0.93014 0.0
O107 O 0.41815 0.65981 0.9616 0.0
O108 O 0.44073 0.74757 0.04244 0.0
O109 O 0.44306 0.6848 0.04028 0.0
O110 O 0.36 0.68881 1.0159 0.0
O111 O 0.36907 0.7182 0.07372 0.0
H112 H 0.43961 0.86995 0.07157 0.0
H113 H 0.48043 0.91861 0.104 0.0
H114 H 0.401 0.92714 0.19541 0.0
H115 H 0.36072 0.87727 0.16356 0.0
H116 H 0.35745 0.70306 0.89254 0.0
H117 H 0.32878 0.67536 0.8342 0.0
H118 H 0.41766 0.58238 0.83067 0.0
H119 H 0.44635 0.60998 0.88869 0.0
Sm120 Sm 0.57175 0.13005 0.25568 0.0
Sm121 Sm 0.51161 0.09872 0.3177 0.0
C122 C 0.63257 0.13022 0.21286 0.0
C123 C 0.64133 0.11614 0.174 0.0
C124 C 0.625 0.08084 0.15905 0.0
C125 C 0.63549 0.06599 0.12345 0.0
C126 C 0.66214 0.08637 0.10192 0.0
C127 C 0.67763 0.1223 0.11627 0.0
C128 C 0.66736 0.137 0.15206 0.0
C129 C 0.49924 0.16073 0.23879 0.0
C130 C 0.51943 0.04901 0.23926 0.0
C131 C 0.45407 0.09206 0.36471 0.0
C132 C 0.42012 0.11575 0.37752 0.0
C133 C 0.3941 0.13432 0.35166 0.0
C134 C 0.36153 0.15532 0.3645 0.0
C135 C 0.35395 0.15738 0.40335 0.0
C136 C 0.38 0.139 0.42914 0.0
C137 C 0.4128 0.11852 0.41635 0.0
C138 C 0.58672 0.06981 0.32377 0.0
C139 C 0.55473 0.18473 0.33207 0.0
O140 O 0.62606 0.10146 0.2375 0.0
O141 O 0.6096 0.16225 0.21616 0.0
O142 O 0.50929 0.13719 0.26551 0.0
O143 O 0.52895 0.16869 0.21907 0.0
O144 O 0.55171 0.06755 0.23326 0.0
O145 O 0.49677 0.05871 0.26735 0.0
O146 O 0.45352 0.07859 0.32985 0.0
O147 O 0.48746 0.10477 0.37549 0.0
O148 O 0.57447 0.1043 0.31382 0.0
O149 O 0.55812 0.04844 0.33444 0.0
O150 O 0.52307 0.16448 0.33478 0.0
O151 O 0.58059 0.17445 0.30628 0.0
H152 H 0.6047 0.0642 0.17521 0.0
H153 H 0.62329 0.0382 0.11295 0.0
H154 H 0.69837 0.13836 0.10014 0.0
H155 H 0.68031 0.16423 0.16292 0.0
H156 H 0.39868 0.13237 0.32151 0.0
H157 H 0.34193 0.16943 0.34413 0.0
H158 H 0.37479 0.14034 0.45923 0.0
H159 H 0.43225 0.10435 0.43683 0.0
Sm160 Sm 0.64796 0.22899 0.56044 0.0
Sm161 Sm 0.66972 0.30368 0.51645 0.0
C162 C 0.63772 0.15856 0.59455 0.0
C163 C 0.65039 0.1429 0.63228 0.0
C164 C 0.68931 0.13844 0.64192 0.0
C165 C 0.70088 0.12486 0.67797 0.0
C166 C 0.67385 0.11577 0.70517 0.0
C167 C 0.63505 0.12056 0.69588 0.0
C168 C 0.62343 0.13392 0.65973 0.0
C169 C 0.60307 0.29736 0.57568 0.0
C170 C 0.71109 0.28816 0.59951 0.0
C171 C 0.67658 0.37854 0.49005 0.0
C172 C 0.6529 0.40841 0.46818 0.0
C173 C 0.62771 0.39588 0.43946 0.0
C174 C 0.60724 0.42479 0.41751 0.0
C175 C 0.61143 0.46659 0.42411 0.0
C176 C 0.63535 0.47905 0.45385 0.0
C177 C 0.65597 0.45016 0.47566 0.0
C178 C 0.71269 0.23263 0.50137 0.0
C179 C 0.61435 0.24603 0.4731 0.0
O180 O 0.66399 0.1637 0.5694 0.0
O181 O 0.61221 0.1883 0.59447 0.0
O182 O 0.61401 0.28639 0.54319 0.0
O183 O 0.617 0.27244 0.60108 0.0
O184 O 0.6957 0.25194 0.60035 0.0
O185 O 0.70244 0.3143 0.57213 0.0
O186 O 0.66568 0.37087 0.5245 0.0
O187 O 0.68858 0.3459 0.47202 0.0
O188 O 0.70129 0.24493 0.533 0.0
O189 O 0.70605 0.26169 0.47696 0.0
O190 O 0.61944 0.28464 0.48037 0.0
O191 O 0.62587 0.21752 0.49796 0.0
H192 H 0.71091 0.14539 0.62167 0.0
H193 H 0.73094 0.12094 0.68452 0.0
H194 H 0.6138 0.11321 0.71641 0.0
H195 H 0.59332 0.13725 0.65319 0.0
H196 H 0.62452 0.36381 0.43343 0.0
H197 H 0.58908 0.41461 0.39458 0.0
H198 H 0.6391 0.51117 0.45921 0.0
H199 H 0.675 0.46044 0.49783 0.0
Sm200 Sm 1.00523 0.39462 0.73866 0.0
Sm201 Sm 0.0584 0.35156 0.79549 0.0
C202 C 0.95666 0.40449 0.6813 0.0
C203 C 0.91788 0.38964 0.67447 0.0
C204 C 0.90574 0.38034 0.63755 0.0
C205 C 0.8703 0.36307 0.63104 0.0
C206 C 0.84645 0.35479 0.66136 0.0
C207 C 0.85838 0.36434 0.69831 0.0
C208 C 0.8939 0.38147 0.70484 0.0
C209 C 1.0029 0.43086 0.80775 0.0
C210 C 0.97686 0.31272 0.78595 0.0
C211 C 0.10297 0.33096 0.85415 0.0
C212 C 0.12296 0.35051 0.8858 0.0
C213 C 0.12128 0.39273 0.89072 0.0
C214 C 0.14048 0.41068 0.92115 0.0
C215 C 0.16342 0.38704 0.9468 0.0
C216 C 0.16006 0.34417 0.94393 0.0
C217 C 0.14137 0.32632 0.91327 0.0
C218 C 0.06314 0.32437 0.72117 0.0
C219 C 0.0875 0.43374 0.75521 0.0
O220 O 0.98365 0.37618 0.68201 0.0
O221 O 0.96077 0.43182 0.70798 0.0
O222 O 1.00508 0.39241 0.8028 0.0
O223 O 1.00017 0.45054 0.77582 0.0
O224 O 0.969 0.34146 0.76058 0.0
O225 O 1.00972 0.30973 0.80379 0.0
O226 O 0.06591 0.33269 0.85537 0.0
O227 O 0.11584 0.33707 0.82016 0.0
O228 O 0.05941 0.36007 0.73281 0.0
O229 O 0.06747 0.29993 0.75002 0.0
O230 O 0.08683 0.4126 0.7868 0.0
O231 O 0.06119 0.4282 0.72836 0.0
H232 H 0.92395 0.38585 0.6138 0.0
H233 H 0.86157 0.35586 0.60235 0.0
H234 H 0.84041 0.35806 0.72206 0.0
H235 H 0.90286 0.38779 0.73366 0.0
H236 H 0.1045 0.41175 0.87145 0.0
H237 H 0.1361 0.44311 0.92461 0.0
H238 H 0.17056 0.32344 0.96552 0.0
H239 H 0.1406 0.2934 0.91152 0.0
Sm240 Sm 0.90963 0.77248 0.0618 0.0
Sm241 Sm 0.88645 0.71099 0.99755 0.0
C242 C 0.90955 0.83649 0.10762 0.0
C243 C 0.90181 0.84465 0.14794 0.0
C244 C 0.87653 0.8206 0.168 0.0
C245 C 0.86454 0.8323 0.20409 0.0
C246 C 0.87795 0.86797 0.22084 0.0
C247 C 0.90482 0.89074 0.2017 0.0
C248 C 0.91658 0.87921 0.16547 0.0
C249 C 0.94652 0.69858 0.07647 0.0
C250 C 0.83312 0.7186 0.07215 0.0
C251 C 0.87146 0.64473 0.95802 0.0
C252 C 0.89242 0.60937 0.9417 0.0
C253 C 0.91367 0.58156 0.96459 0.0
C254 C 0.93321 0.54836 0.94838 0.0
C255 C 0.93167 0.54243 0.90911 0.0
C256 C 0.91021 0.56981 0.88632 0.0
C257 C 0.89074 0.60297 0.90246 0.0
C258 C 0.86632 0.79224 0.98478 0.0
C259 C 0.96133 0.7585 0.98451 0.0
O260 O 0.88016 0.82601 0.08712 0.0
O261 O 0.94061 0.81559 0.09943 0.0
O262 O 0.92412 0.70674 0.04909 0.0
O263 O 0.94943 0.7305 0.09776 0.0
O264 O 0.85862 0.74158 0.08898 0.0
O265 O 0.83589 0.70632 0.0368 0.0
O266 O 0.86958 0.64658 0.99493 0.0
O267 O 0.87646 0.68026 0.94233 0.0
O268 O 0.86483 0.77356 1.01584 0.0
O269 O 0.87441 0.7664 0.95802 0.0
O270 O 0.94782 0.72169 0.98361 0.0
O271 O 0.94743 0.78557 1.00911 0.0
H272 H 0.86472 0.79378 0.15506 0.0
H273 H 0.84356 0.81456 0.21825 0.0
H274 H 0.91518 0.91858 0.21402 0.0
H275 H 0.93593 0.89826 0.15049 0.0
H276 H 0.91529 0.5854 0.99498 0.0
H277 H 0.9496 0.52741 0.96634 0.0
H278 H 0.9087 0.56557 0.85594 0.0
H279 H 0.87437 0.62371 0.88426 0.0
Sm280 Sm 0.55528 0.61091 0.23997 0.0
Sm281 Sm 0.49587 0.65486 0.2934 0.0
C282 C 0.61153 0.58903 0.19451 0.0
C283 C 0.64038 0.61111 0.17372 0.0
C284 C 0.64499 0.65298 0.17976 0.0
C285 C 0.67516 0.67296 0.16341 0.0
C286 C 0.70115 0.65131 0.14083 0.0
C287 C 0.69607 0.60967 0.13405 0.0
C288 C 0.66586 0.58969 0.15044 0.0
C289 C 0.54495 0.57181 0.30812 0.0
C290 C 0.57653 0.69719 0.28675 0.0
C291 C 0.45309 0.66923 0.35321 0.0
C292 C 0.43843 0.64663 0.38596 0.0
C293 C 0.42311 0.60793 0.38202 0.0
C294 C 0.40694 0.58862 0.41302 0.0
C295 C 0.4029 0.60862 0.44838 0.0
C296 C 0.42411 0.64442 0.45294 0.0
C297 C 0.44035 0.66376 0.4221 0.0
C298 C 0.49285 0.69021 0.21993 0.0
C299 C 0.46886 0.5811 0.24129 0.0
O300 O 0.61502 0.59072 0.23128 0.0
O301 O 0.57621 0.59327 0.18276 0.0
O302 O 0.54621 0.61003 0.30348 0.0
O303 O 0.54859 0.55363 0.2758 0.0
O304 O 0.58551 0.67016 0.26007 0.0
O305 O 0.5444 0.69692 0.30513 0.0
O306 O 0.43916 0.66049 0.31967 0.0
O307 O 0.48964 0.67548 0.35306 0.0
O308 O 0.51361 0.66174 0.23313 0.0
O309 O 0.47075 0.70134 0.24749 0.0
O310 O 0.46915 0.59518 0.27607 0.0
O311 O 0.49732 0.58738 0.21801 0.0
H312 H 0.62592 0.67002 0.19794 0.0
H313 H 0.67874 0.70506 0.169 0.0
H314 H 0.71595 0.59253 0.11673 0.0
H315 H 0.66297 0.55732 0.14576 0.0
H316 H 0.42362 0.59247 0.35496 0.0
H317 H 0.39837 0.55777 0.40852 0.0
H318 H 0.42863 0.65814 0.48031 0.0
H319 H 0.45434 0.69236 0.42654 0.0
Sm320 Sm 0.2428 0.52189 0.15433 0.0
Sm321 Sm 0.30196 0.45668 0.13815 0.0
C322 C 0.19387 0.58464 0.14995 0.0
C323 C 0.15444 0.59269 0.13715 0.0
C324 C 0.13969 0.63275 0.13734 0.0
C325 C 0.1024 0.64124 0.12499 0.0
C326 C 0.07937 0.6098 0.11212 0.0
C327 C 0.09413 0.5696 0.11168 0.0
C328 C 0.13158 0.56109 0.12407 0.0
C329 C 0.23863 0.45661 0.20203 0.0
C330 C 0.22883 0.45862 0.08232 0.0
C331 C 0.34924 0.39231 0.13941 0.0
C332 C 0.36591 0.35964 0.16379 0.0
C333 C 0.34293 0.33292 0.18379 0.0
C334 C 0.359 0.29811 0.20134 0.0
C335 C 0.3982 0.28965 0.19919 0.0
C336 C 0.42133 0.31732 0.1809 0.0
C337 C 0.40532 0.35204 0.16337 0.0
C338 C 0.30914 0.52832 0.09732 0.0
C339 C 0.32158 0.5212 0.20326 0.0
O340 O 0.2181 0.57539 0.12342 0.0
O341 O 0.19885 0.56234 0.18044 0.0
O342 O 0.24452 0.45367 0.16676 0.0
O343 O 0.23261 0.49423 0.21203 0.0
O344 O 0.2152 0.4892 0.10277 0.0
O345 O 0.2617 0.44058 0.09046 0.0
O346 O 0.313 0.39063 0.13111 0.0
O347 O 0.36072 0.4295 0.14431 0.0
O348 O 0.30067 0.52467 0.13121 0.0
O349 O 0.31868 0.4927 0.08396 0.0
O350 O 0.32219 0.48196 0.19545 0.0
O351 O 0.29635 0.54527 0.18528 0.0
H352 H 0.15699 0.65748 0.14717 0.0
H353 H 0.09134 0.67237 0.12575 0.0
H354 H 0.0766 0.54495 0.10214 0.0
H355 H 0.14264 0.52996 0.12362 0.0
H356 H 0.3124 0.33792 0.18449 0.0
H357 H 0.34073 0.2769 0.21512 0.0
H358 H 0.45162 0.31107 0.17879 0.0
H359 H 0.42354 0.37198 0.14795 0.0
Sm360 Sm 0.73489 0.96883 0.88519 0.0
Sm361 Sm 0.79418 0.02833 0.90293 0.0
C362 C 0.68893 0.9064 0.87566 0.0
C363 C 0.64932 0.89766 0.88497 0.0
C364 C 0.63896 0.85701 0.88898 0.0
C365 C 0.60388 0.8477 0.90431 0.0
C366 C 0.57857 0.87891 0.91587 0.0
C367 C 0.58823 0.91971 0.91056 0.0
C368 C 0.62353 0.92903 0.89542 0.0
C369 C 0.72085 0.04258 0.84895 0.0
C370 C 0.72167 0.02545 0.95986 0.0
C371 C 0.83146 0.09628 0.91241 0.0
C372 C 0.84835 0.12764 0.88834 0.0
C373 C 0.83078 0.16658 0.88569 0.0
C374 C 0.84728 0.19738 0.86486 0.0
C375 C 0.88185 0.18987 0.84665 0.0
C376 C 0.89894 0.15075 0.84817 0.0
C377 C 0.88231 0.11981 0.86881 0.0
C378 C 0.81115 0.95086 0.93142 0.0
C379 C 0.81482 0.97401 0.83454 0.0
O380 O 0.71107 0.91097 0.90509 0.0
O381 O 0.69483 0.9332 0.84925 0.0
O382 O 0.75288 0.02467 0.85311 0.0
O383 O 0.69545 0.02245 0.86665 0.0
O384 O 0.70896 0.99452 0.94015 0.0
O385 O 0.75262 0.04407 0.95046 0.0
O386 O 0.79429 0.09509 0.91165 0.0
O387 O 0.84812 0.06006 0.91371 0.0
O388 O 0.77887 0.9688 0.9319 0.0
O389 O 0.83648 0.97565 0.91963 0.0
O390 O 0.8145 0.01236 0.84453 0.0
O391 O 0.78888 0.95001 0.84887 0.0
H392 H 0.65868 0.8324 0.88171 0.0
H393 H 0.59692 0.81608 0.90824 0.0
H394 H 0.56909 0.94417 0.91942 0.0
H395 H 0.6313 0.96061 0.89324 0.0
H396 H 0.80466 0.17351 0.90046 0.0
H397 H 0.83392 0.22752 0.8642 0.0
H398 H 0.92579 0.1446 0.83446 0.0
H399 H 0.89651 0.09012 0.87013 0.0
Sm400 Sm 0.75829 0.97521 0.42325 0.0
Sm401 Sm 0.81608 0.032 0.39546 0.0
C402 C 0.70399 0.92083 0.42884 0.0
C403 C 0.68817 0.88871 0.40429 0.0
C404 C 0.70818 0.87361 0.37291 0.0
C405 C 0.69284 0.84322 0.3499 0.0
C406 C 0.65752 0.8269 0.35829 0.0
C407 C 0.6375 0.84206 0.38958 0.0
C408 C 0.65263 0.8728 0.41229 0.0
C409 C 0.82048 0.97666 0.47118 0.0
C410 C 0.81746 0.94763 0.35436 0.0
C411 C 0.87241 0.08366 0.38699 0.0
C412 C 0.90888 0.09585 0.40519 0.0
C413 C 0.90972 0.12936 0.42999 0.0
C414 C 0.94434 0.14353 0.44413 0.0
C415 C 0.97891 0.12469 0.43368 0.0
C416 C 0.97825 0.09056 0.40981 0.0
C417 C 0.94362 0.07637 0.3956 0.0
C418 C 0.74669 0.03258 0.35393 0.0
C419 C 0.76163 0.0658 0.4604 0.0
O420 O 0.69741 0.95851 0.41819 0.0
O421 O 0.73877 0.91456 0.4414 0.0
O422 O 0.82237 0.97668 0.4352 0.0
O423 O 0.78545 0.97594 0.48198 0.0
O424 O 0.78317 0.9446 0.36865 0.0
O425 O 0.84023 0.97578 0.36632 0.0
O426 O 0.87148 0.04798 0.37078 0.0
O427 O 0.84077 0.09315 0.40411 0.0
O428 O 0.7517 0.03096 0.38884 0.0
O429 O 0.77927 0.03977 0.33903 0.0
O430 O 0.7975 0.0625 0.45089 0.0
O431 O 0.73763 0.03749 0.44932 0.0
H432 H 0.73565 0.88527 0.36614 0.0
H433 H 0.70872 0.83199 0.32589 0.0
H434 H 0.61018 0.82994 0.39648 0.0
H435 H 0.63667 0.88398 0.43627 0.0
H436 H 0.88365 0.14537 0.4377 0.0
H437 H 0.94423 0.17001 0.46239 0.0
H438 H 1.00462 0.07571 0.40127 0.0
H439 H 0.94419 0.05076 0.37631 0.0
Sm440 Sm 0.30796 0.47827 0.64923 0.0
Sm441 Sm 0.25392 0.54655 0.62686 0.0
C442 C 0.34892 0.41032 0.66176 0.0
C443 C 0.38571 0.39487 0.64676 0.0
C444 C 0.39538 0.40153 0.6088 0.0
C445 C 0.43065 0.38772 0.59518 0.0
C446 C 0.45702 0.36743 0.61933 0.0
C447 C 0.44756 0.36108 0.65728 0.0
C448 C 0.41219 0.37467 0.67086 0.0
C449 C 0.32171 0.54997 0.68791 0.0
C450 C 0.33331 0.53649 0.58006 0.0
C451 C 0.2192 0.61839 0.6149 0.0
C452 C 0.19918 0.65074 0.63707 0.0
C453 C 0.21732 0.68738 0.64545 0.0
C454 C 0.19843 0.71858 0.6654 0.0
C455 C 0.16089 0.7139 0.67702 0.0
C456 C 0.14276 0.67734 0.66893 0.0
C457 C 0.16164 0.64608 0.64913 0.0
C458 C 0.23918 0.47165 0.59239 0.0
C459 C 0.22566 0.49358 0.69294 0.0
O460 O 0.32013 0.4126 0.6379 0.0
O461 O 0.35047 0.44212 0.68381 0.0
O462 O 0.28935 0.53583 0.68069 0.0
O463 O 0.34782 0.52663 0.67309 0.0
O464 O 0.3397 0.50082 0.59662 0.0
O465 O 0.30465 0.56061 0.58985 0.0
O466 O 0.25592 0.61382 0.62063 0.0
O467 O 0.2024 0.58365 0.61025 0.0
O468 O 0.27134 0.48683 0.59773 0.0
O469 O 0.21314 0.49856 0.60118 0.0
O470 O 0.22979 0.5319 0.68413 0.0
O471 O 0.2504 0.46544 0.6802 0.0
H472 H 0.37571 0.41745 0.58965 0.0
H473 H 0.43737 0.39275 0.56579 0.0
H474 H 0.46745 0.34527 0.67629 0.0
H475 H 0.40553 0.36947 0.70025 0.0
H476 H 0.2461 0.69204 0.63639 0.0
H477 H 0.21294 0.74651 0.67149 0.0
H478 H 0.11382 0.67312 0.67776 0.0
H479 H 0.1467 0.6184 0.64312 0.0
C480 C 0.23687 0.36973 0.53776 0.0
C481 C 0.2201 0.34375 0.56461 0.0
C482 C 0.21308 0.40181 0.60805 0.0
C483 C 0.2321 0.42758 0.58235 0.0
N484 N 0.26642 0.43406 0.52435 0.0
N485 N 0.1993 0.33287 0.62808 0.0
C486 C 0.24573 0.41069 0.54791 0.0
C487 C 0.21097 0.35912 0.60084 0.0
N488 N 0.24263 0.35591 0.50182 0.0
N489 N 0.19543 0.41833 0.63865 0.0
H490 H 0.19672 0.30172 0.62335 0.0
H491 H 0.19549 0.34082 0.65626 0.0
H492 H 0.18993 0.4493 0.64109 0.0
H493 H 0.18295 0.40178 0.65986 0.0
H494 H 0.25056 0.37439 0.47955 0.0
H495 H 0.23657 0.32637 0.49351 0.0
H496 H 0.28118 0.42236 0.50131 0.0
H497 H 0.27051 0.46497 0.52897 0.0
C498 C 0.86721 0.92037 0.83233 0.0
C499 C 0.85136 0.95736 0.81805 0.0
C500 C 0.91537 0.97424 0.79578 0.0
C501 C 0.93182 0.94253 0.81878 0.0
N502 N 0.9212 0.88957 0.86478 0.0
N503 N 0.85986 0.0175 0.78055 0.0
C504 C 0.90706 0.91664 0.83852 0.0
C505 C 0.87542 0.98368 0.79795 0.0
N506 N 0.84465 0.88817 0.83888 0.0
N507 N 0.93722 0.99374 0.77037 0.0
H508 H 0.8305 0.02217 0.7775 0.0
H509 H 0.8759 0.04094 0.76995 0.0
H510 H 0.96585 0.98634 0.7669 0.0
H511 H 0.92633 0.01437 0.75031 0.0
H512 H 0.85549 0.85971 0.84753 0.0
H513 H 0.81634 0.88808 0.82977 0.0
H514 H 0.90391 0.87259 0.88208 0.0
H515 H 0.94974 0.88814 0.87256 0.0
C516 C 0.36727 0.62369 0.09181 0.0
C517 C 0.34242 0.64935 0.06945 0.0
C518 C 0.29916 0.59253 0.06008 0.0
C519 C 0.32331 0.56748 0.08322 0.0
N520 N 0.37991 0.55773 0.12164 0.0
N521 N 0.28192 0.66082 0.038 0.0
C522 C 0.35735 0.58268 0.09912 0.0
C523 C 0.30753 0.63438 0.05519 0.0
N524 N 0.40082 0.63821 0.10525 0.0
N525 N 0.26867 0.57582 0.04215 0.0
H526 H 0.28684 0.69185 0.0352 0.0
H527 H 0.2546 0.65315 0.02959 0.0
H528 H 0.2626 0.54507 0.04482 0.0
H529 H 0.25141 0.5911 1.02227 0.0
H530 H 0.42314 0.62019 0.11627 0.0
H531 H 0.40659 0.66897 0.10561 0.0
H532 H 0.40352 0.56705 0.13696 0.0
H533 H 0.37479 0.52691 0.12561 0.0
C534 C 0.65452 0.09012 0.337 0.0
C535 C 0.62836 0.05903 0.32846 0.0
C536 C 0.68174 1.00916 0.33131 0.0
C537 C 0.70796 0.04102 0.33667 0.0
N538 N 0.71873 0.11259 0.32961 0.0
N539 N 0.62014 0.99028 0.30636 0.0
C540 C 0.69417 0.08175 0.33414 0.0
C541 C 0.64284 0.01886 0.32218 0.0
N542 N 0.64205 0.12661 0.35128 0.0
N543 N 0.69352 0.96955 0.33556 0.0
H544 H 0.5922 0.99673 0.29772 0.0
H545 H 0.6303 0.96163 0.29791 0.0
H546 H 0.72152 0.96117 0.3418 0.0
H547 H 0.67489 0.9455 0.33576 0.0
H548 H 0.66029 0.14972 0.35872 0.0
H549 H 0.61453 0.13141 0.36101 0.0
H550 H 0.70949 0.14262 0.32467 0.0
H551 H 0.7479 0.10731 0.3268 0.0
C552 C 0.72165 0.17464 0.45403 0.0
C553 C 0.72479 0.18907 0.49186 0.0
C554 C 0.74654 0.11929 0.51062 0.0
C555 C 0.74752 0.10731 0.47214 0.0
N556 N 0.74998 0.13079 0.40746 0.0
N557 N 0.75191 0.17578 0.55422 0.0
C558 C 0.73951 0.13716 0.44395 0.0
C559 C 0.7403 0.1615 0.51985 0.0
N560 N 0.69977 0.19499 0.42767 0.0
N561 N 0.75239 0.09074 0.53832 0.0
H562 H 0.75211 0.20669 0.5605 0.0
H563 H 0.76607 0.15756 0.5744 0.0
H564 H 0.75805 0.06008 0.53223 0.0
H565 H 0.74852 0.09707 0.56691 0.0
H566 H 0.69644 0.18488 0.39996 0.0
H567 H 0.68026 0.21769 0.43486 0.0
H568 H 0.74913 0.15422 0.3875 0.0
H569 H 0.76384 0.10427 0.39843 0.0
C570 C 0.11987 0.48713 0.71741 0.0
C571 C 0.12176 0.45859 0.74714 0.0
C572 C 0.19177 0.45885 0.74627 0.0
C573 C 0.18996 0.48263 0.71274 0.0
N574 N 0.15068 0.51845 0.66523 0.0
N575 N 0.15902 0.43881 0.80252 0.0
C576 C 0.15361 0.49727 0.69846 0.0
C577 C 0.15757 0.45024 0.76538 0.0
N578 N 0.08598 0.50688 0.70925 0.0
N579 N 0.2261 0.44461 0.76017 0.0
H580 H 0.13533 0.44116 0.81964 0.0
H581 H 0.18418 0.43449 0.81809 0.0
H582 H 0.25198 0.45295 0.74911 0.0
H583 H 0.22878 0.42263 0.78137 0.0
H584 H 0.08297 0.53135 0.69061 0.0
H585 H 0.06172 0.50237 0.72512 0.0
H586 H 0.12505 0.52429 0.65083 0.0
H587 H 0.17373 0.52745 0.64993 0.0
C588 C 0.80576 0.87352 0.9355 0.0
C589 C 0.82092 0.91041 0.94961 0.0
C590 C 0.86439 0.8698 0.99081 0.0
C591 C 0.84821 0.83326 0.97721 0.0
N592 N 0.79496 0.80213 0.94652 0.0
N593 N 0.85743 0.94309 0.99847 0.0
C594 C 0.81613 0.83577 0.95279 0.0
C595 C 0.84806 0.90834 0.97968 0.0
N596 N 0.78348 0.87373 0.90381 0.0
N597 N 0.89621 0.86799 1.0132 0.0
H598 H 0.84517 0.97157 0.99184 0.0
H599 H 0.8742 0.94308 1.02303 0.0
H600 H 0.90734 0.84075 0.02384 0.0
H601 H 0.91238 0.8932 1.01966 0.0
H602 H 0.77583 0.84743 0.88942 0.0
H603 H 0.7754 0.90041 0.89028 0.0
H604 H 0.76902 0.80324 0.93183 0.0
H605 H 0.80108 0.77417 0.95965 0.0
C606 C 0.42326 0.52403 0.2403 0.0
C607 C 0.4325 0.56367 0.22832 0.0
C608 C 0.36503 0.57983 0.2156 0.0
C609 C 0.35635 0.53853 0.22179 0.0
N610 N 0.37363 0.47689 0.2554 0.0
N611 N 0.41313 0.62755 0.1995 0.0
C612 C 0.38459 0.51198 0.23851 0.0
C613 C 0.4036 0.59101 0.21448 0.0
N614 N 0.45174 0.49782 0.25259 0.0
N615 N 0.33655 0.60896 0.21409 0.0
H616 H 0.44128 0.6356 0.19649 0.0
H617 H 0.39361 0.64744 0.18609 0.0
H618 H 0.30867 0.60266 0.22106 0.0
H619 H 0.34137 0.64002 0.21218 0.0
H620 H 0.44797 0.46729 0.25888 0.0
H621 H 0.48015 0.50606 0.25377 0.0
H622 H 0.39196 0.45678 0.26998 0.0
H623 H 0.34504 0.47033 0.25863 0.0
C624 C 0.5982 0.23496 0.36553 0.0
C625 C 0.56432 0.21273 0.36464 0.0
C626 C 0.56147 0.21587 0.43398 0.0
C627 C 0.59682 0.23538 0.43557 0.0
N628 N 0.64194 0.27585 0.40154 0.0
N629 N 0.50436 0.20783 0.39642 0.0
C630 C 0.61301 0.24897 0.40096 0.0
C631 C 0.54295 0.2108 0.39837 0.0
N632 N 0.61593 0.24342 0.33253 0.0
N633 N 0.54479 0.20307 0.46629 0.0
H634 H 0.48918 0.21125 0.37097 0.0
H635 H 0.48722 0.20884 0.42018 0.0
H636 H 0.55615 0.20804 0.49322 0.0
H637 H 0.5209 0.18505 0.46592 0.0
H638 H 0.64386 0.25287 0.33128 0.0
H639 H 0.60221 0.24129 0.30627 0.0
H640 H 0.65118 0.29081 0.37757 0.0
H641 H 0.65574 0.28525 0.42606 0.0
C642 C 0.08328 0.33904 0.6167 0.0
C643 C 0.07564 0.30049 0.60129 0.0
C644 C 0.05076 0.28007 0.66325 0.0
C645 C 0.06815 0.31435 0.68015 0.0
N646 N 0.10707 0.37325 0.67187 0.0
N647 N 0.04293 0.23768 0.60721 0.0
C648 C 0.08581 0.34316 0.65651 0.0
C649 C 0.05638 0.272 0.62387 0.0
N650 N 0.08728 0.37185 0.59358 0.0
N651 N 0.02779 0.25637 0.68424 0.0
H652 H 0.04238 0.234 0.57787 0.0
H653 H 0.0327 0.21306 0.62206 0.0
H654 H 1.02258 0.26171 0.71273 0.0
H655 H 1.01163 0.23313 0.67304 0.0
H656 H 0.09054 0.40134 0.60376 0.0
H657 H 0.08103 0.37066 0.56468 0.0
H658 H 0.12012 0.39501 0.65559 0.0
H659 H 0.11563 0.37344 0.70022 0.0
C660 C 0.98931 0.76335 0.88197 0.0
C661 C 0.99676 0.80521 0.87803 0.0
C662 C 0.99547 0.81283 0.94779 0.0
C663 C 0.98414 0.77195 0.95098 0.0
N664 N 0.99309 0.70503 0.92383 0.0
N665 N 1.01321 0.86891 0.90771 0.0
C666 C 0.98772 0.74604 0.91885 0.0
C667 C 1.00198 0.82962 0.91121 0.0
N668 N 0.98401 0.73988 0.85055 0.0
N669 N 1.00079 0.83515 0.97995 0.0
H670 H 1.01417 0.88385 0.88186 0.0
H671 H 1.02168 0.88723 0.93008 0.0
H672 H 1.00397 0.82137 1.00646 0.0
H673 H 1.00349 0.86657 0.98071 0.0
H674 H 0.9745 0.71017 0.85181 0.0
H675 H 0.98633 0.75114 0.82311 0.0
H676 H 0.99839 0.68483 0.90171 0.0
H677 H 0.99827 0.69223 0.9505 0.0
C678 C 0.50902 0.68167 0.15002 0.0
C679 C 0.48956 0.7037 0.17867 0.0
C680 C 0.46221 0.7465 0.12713 0.0
C681 C 0.47001 0.71538 0.09996 0.0
N682 N 0.50774 0.65431 0.08668 0.0
N683 N 0.45108 0.76416 0.19239 0.0
C684 C 0.49504 0.68285 0.11185 0.0
C685 C 0.46682 0.73799 0.16668 0.0
N686 N 0.54386 0.66456 0.15784 0.0
N687 N 0.45501 0.78558 0.11583 0.0
H688 H 0.45903 0.76456 0.22084 0.0
H689 H 0.43018 0.786 0.18478 0.0
H690 H 0.45458 0.79466 0.08775 0.0
H691 H 0.45475 0.80981 0.13485 0.0
H692 H 0.56128 0.65246 0.13679 0.0
H693 H 0.55764 0.6691 0.18373 0.0
H694 H 0.5226 0.62786 0.09538 0.0
H695 H 0.50341 0.65688 0.05757 0.0
C696 C 0.17047 0.40538 0.2652 0.0
C697 C 0.19641 0.38517 0.29059 0.0
C698 C 0.24947 0.40031 0.24913 0.0
C699 C 0.22397 0.42355 0.22575 0.0
N700 N 0.16007 0.43871 0.20426 0.0
N701 N 0.25839 0.35479 0.30319 0.0
C702 C 0.18429 0.42268 0.23139 0.0
C703 C 0.23528 0.37959 0.28119 0.0
N704 N 0.133 0.40972 0.27444 0.0
N705 N 0.28736 0.39965 0.24135 0.0
H706 H 0.24863 0.33969 0.32694 0.0
H707 H 0.28637 0.3469 0.29678 0.0
H708 H 0.29763 0.41214 0.21655 0.0
H709 H 0.30853 0.38729 0.25914 0.0
H710 H 0.11334 0.42816 0.25964 0.0
H711 H 0.12168 0.39604 0.2982 0.0
H712 H 0.13067 0.43651 0.20481 0.0
H713 H 0.16982 0.45121 0.17919 0.0
C714 C 0.88939 0.96705 0.55475 0.0
C715 C 0.88606 0.92491 0.5627 0.0
C716 C 0.85253 0.91577 0.5018 0.0
C717 C 0.85047 0.9587 0.49693 0.0
N718 N 0.86866 0.02546 0.51634 0.0
N719 N 0.86578 0.8584 0.54397 0.0
C720 C 0.86999 0.98436 0.52245 0.0
C721 C 0.86853 0.89893 0.53591 0.0
N722 N 0.911 0.99038 0.57823 0.0
N723 N 0.83893 0.89122 0.47377 0.0
H724 H 0.87864 0.84475 0.56777 0.0
H725 H 0.8494 0.83848 0.52823 0.0
H726 H 0.82682 0.90268 0.44869 0.0
H727 H 0.84242 0.85966 0.47368 0.0
H728 H 0.91743 0.02048 0.5727 0.0
H729 H 0.92486 0.97868 0.60236 0.0
H730 H 0.87816 0.04686 0.53572 0.0
H731 H 0.85706 0.03831 0.49158 0.0
C732 C 0.32638 0.55179 0.75934 0.0
C733 C 0.33023 0.5719 0.72397 0.0
C734 C 0.36008 0.6292 0.75671 0.0
C735 C 0.35452 0.60992 0.79215 0.0
N736 N 0.32471 0.55752 0.82774 0.0
N737 N 0.34407 0.63269 0.68953 0.0
C738 C 0.3352 0.57267 0.79357 0.0
C739 C 0.34501 0.61159 0.72288 0.0
N740 N 0.31622 0.51194 0.76031 0.0
N741 N 0.38111 0.66346 0.75521 0.0
H742 H 0.33316 0.62059 0.66446 0.0
H743 H 0.35093 0.6632 0.68733 0.0
H744 H 0.39216 0.67746 0.7793 0.0
H745 H 0.3899 0.67639 0.73006 0.0
H746 H 0.31721 0.49434 0.78484 0.0
H747 H 0.30991 0.49513 0.73617 0.0
H748 H 0.30698 0.53291 0.83052 0.0
H749 H 0.33078 0.57193 0.85334 0.0
C750 C 0.70965 0.04413 0.06521 0.0
C751 C 0.67571 0.06864 0.06542 0.0
C752 C 0.67011 0.06263 0.99609 0.0
C753 C 0.70354 0.03739 0.9961 0.0
N754 N 0.75118 0.99762 0.03055 0.0
N755 N 0.62037 0.09649 0.03248 0.0
C756 C 0.72215 0.02626 0.03069 0.0
C757 C 0.65487 0.07634 0.03123 0.0
N758 N 0.7304 0.03861 0.09798 0.0
N759 N 0.65385 0.07475 0.96238 0.0
H760 H 0.60909 0.10821 0.05745 0.0
H761 H 0.60175 0.09939 1.00941 0.0
H762 H 0.66369 0.06437 0.93633 0.0
H763 H 0.63207 0.09676 0.95992 0.0
H764 H 0.75768 0.02551 0.09907 0.0
H765 H 0.72135 0.04942 0.12416 0.0
H766 H 0.7635 0.98486 0.05493 0.0
H767 H 0.76096 0.98381 1.00587 0.0
C768 C 0.69158 0.0548 0.745 0.0
C769 C 0.68623 0.09763 0.7422 0.0
C770 C 0.7024 0.10465 0.80991 0.0
C771 C 0.71003 0.06204 0.81208 0.0
N772 N 0.71779 0.99715 0.78014 0.0
N773 N 0.69066 0.16427 0.76998 0.0
C774 C 0.70635 0.03732 0.77916 0.0
C775 C 0.69283 0.12288 0.77414 0.0
N776 N 0.68144 0.03059 0.71521 0.0
N777 N 0.70369 0.1275 0.84219 0.0
H778 H 0.68284 0.17842 0.74446 0.0
H779 H 0.69892 0.18463 0.79088 0.0
H780 H 0.71175 0.11524 0.86847 0.0
H781 H 0.69468 0.15792 0.84354 0.0
H782 H 0.67978 0.99906 0.71707 0.0
H783 H 0.67172 0.0421 0.68919 0.0
H784 H 0.72069 0.97917 0.75606 0.0
H785 H 0.72732 0.98217 0.80455 0.0
C786 C 0.19678 0.4677 1.01775 0.0
C787 C 0.20763 0.4423 0.04898 0.0
C788 C 0.20459 0.38294 1.00756 0.0
C789 C 0.18657 0.4067 0.97862 0.0
N790 N 0.1948 0.47207 0.94957 0.0
N791 N 0.21362 0.37411 0.07458 0.0
C792 C 0.19026 0.44964 0.98159 0.0
C793 C 0.20856 0.39944 0.04417 0.0
N794 N 0.19265 0.50888 1.02208 0.0
N795 N 0.22496 0.34842 0.99868 0.0
H796 H 0.21492 0.38493 0.10232 0.0
H797 H 0.21234 0.34251 0.07207 0.0
H798 H 0.23021 0.34049 0.97061 0.0
H799 H 0.24128 0.33194 1.01866 0.0
H800 H 0.18118 0.52784 1.00089 0.0
H801 H 0.19697 0.52374 0.04767 0.0
H802 H 0.20137 0.5028 0.94984 0.0
H803 H 0.19797 0.45826 0.92317 0.0
C804 C 0.86031 0.8939 0.32485 0.0
C805 C 0.82942 0.92259 0.32109 0.0
C806 C 0.82921 0.91337 0.25192 0.0
C807 C 0.86 0.88471 0.25572 0.0
N808 N 0.90128 0.84253 0.29514 0.0
N809 N 0.78112 0.95585 0.28174 0.0
C810 C 0.87442 0.87334 0.29208 0.0
C811 C 0.81271 0.93087 0.28484 0.0
N812 N 0.87658 0.88701 0.35975 0.0
N813 N 0.81676 0.92517 0.21656 0.0
H814 H 0.7703 0.97228 0.30433 0.0
H815 H 0.76427 0.95878 0.25737 0.0
H816 H 0.82661 0.91169 0.19174 0.0
H817 H 0.79821 0.94985 0.21133 0.0
H818 H 0.90175 0.8702 0.36431 0.0
H819 H 0.86556 0.89965 0.38447 0.0
H820 H 0.91061 0.82976 0.3207 0.0
H821 H 0.91266 0.82766 0.27164 0.0
C822 C 0.36915 0.59143 0.54967 0.0
C823 C 0.35669 0.55086 0.5481 0.0
C824 C 0.36216 0.5529 0.47897 0.0
C825 C 0.38019 0.59114 0.48118 0.0
N826 N 0.36967 0.65417 0.51496 0.0
N827 N 0.34655 0.49051 0.51068 0.0
C828 C 0.37554 0.61292 0.51567 0.0
C829 C 0.35537 0.53063 0.51268 0.0
N830 N 0.37466 0.60977 0.58388 0.0
N831 N 0.34382 0.54217 0.44636 0.0
H832 H 0.34133 0.47298 0.53446 0.0
H833 H 0.34829 0.47389 0.48561 0.0
H834 H 0.33915 0.56297 0.42431 0.0
H835 H 0.32749 0.5163 0.44397 0.0
H836 H 0.38649 0.63839 0.58654 0.0
H837 H 0.37115 0.59443 0.60941 0.0
H838 H 0.3627 0.67115 0.53891 0.0
H839 H 0.36576 0.67013 0.48958 0.0
C840 C 0.24951 0.18248 0.42549 0.0
C841 C 0.25379 0.21454 0.45192 0.0
C842 C 0.32223 0.21456 0.43954 0.0
C843 C 0.31884 0.17874 0.41746 0.0
N844 N 0.27959 0.12549 0.39284 0.0
N845 N 0.29509 0.25728 0.48849 0.0
C846 C 0.28248 0.16203 0.41099 0.0
C847 C 0.29037 0.22976 0.45997 0.0
N848 N 0.21388 0.1716 0.41429 0.0
N849 N 0.35579 0.23445 0.44048 0.0
H850 H 0.2726 0.26855 0.50451 0.0
H851 H 0.32161 0.26612 0.49844 0.0
H852 H 0.37956 0.22443 0.42548 0.0
H853 H 0.35888 0.26287 0.45303 0.0
H854 H 0.20874 0.15127 0.39233 0.0
H855 H 0.18925 0.18569 0.42475 0.0
H856 H 0.25448 0.10959 0.39098 0.0
H857 H 0.30297 0.10923 0.38228 0.0
C858 C 0.06337 0.01276 0.64714 0.0
C859 C 0.07726 0.04776 0.66591 0.0
C860 C 0.05194 0.0226 0.72551 0.0
C861 C 0.04323 0.98489 0.70794 0.0
N862 N 0.03906 0.94513 0.65038 0.0
N863 N 0.08881 0.08357 0.72439 0.0
C864 C 0.04804 0.98047 0.6683 0.0
C865 C 0.07218 0.05228 0.70541 0.0
N866 N 0.06518 1.00882 0.60887 0.0
N867 N 0.04009 0.03055 0.76142 0.0
H868 H 0.10405 0.10606 0.71111 0.0
H869 H 0.09036 0.08535 0.75379 0.0
H870 H 1.02506 1.0099 0.77715 0.0
H871 H 0.0416 0.05908 0.77412 0.0
H872 H 0.0754 0.03114 0.59097 0.0
H873 H 0.0754 0.03114 0.59097 0.0
H874 H 0.04273 0.94089 0.62139 0.0
H875 H 0.02842 0.92007 0.66425 0.0
C876 C 0.25509 0.84505 0.95983 0.0
C877 C 0.22894 0.82148 0.93878 0.0
C878 C 0.27037 0.76095 0.95164 0.0
C879 C 0.29896 0.7861 0.9665 0.0
N880 N 0.32009 0.85391 0.97994 0.0
N881 N 0.20277 0.75483 0.94494 0.0
C882 C 0.29186 0.82872 0.96883 0.0
C883 C 0.23381 0.77833 0.94202 0.0
N884 N 0.24279 0.88044 0.97648 0.0
N885 N 0.2778 0.72019 0.94753 0.0
H886 H 0.17616 0.76786 0.95096 0.0
H887 H 0.20448 0.72348 0.94959 0.0
H888 H 0.30423 0.70674 0.9546 0.0
H889 H 0.25902 0.7009 0.93383 0.0
H890 H 0.25954 0.89695 0.99522 0.0
H891 H 0.2142 0.88989 0.97565 0.0
H892 H 0.3169 0.88557 0.97901 0.0
H893 H 0.34771 0.8434 0.98615 0.0
C894 C 0.49631 0.02365 0.17611 0.0
C895 C 0.50765 0.01523 0.21409 0.0
C896 C 0.48583 0.94527 0.20689 0.0
C897 C 0.46818 0.95627 0.17184 0.0
N898 N 0.45306 1.00767 0.12463 0.0
N899 N 0.51279 0.96802 0.26641 0.0
C900 C 0.47285 0.99578 0.15657 0.0
C901 C 0.50245 0.97591 0.22965 0.0
N902 N 0.50763 0.05825 0.15867 0.0
N903 N 0.48752 0.90534 0.21793 0.0
H904 H 0.52706 0.9888 0.28332 0.0
H905 H 0.50544 0.94178 0.28077 0.0
H906 H 0.4762 0.88204 0.20158 0.0
H907 H 0.50325 0.89475 0.24133 0.0
H908 H 0.50336 0.06382 0.12987 0.0
H909 H 0.52452 0.07963 0.17195 0.0
H910 H 0.45194 0.03757 0.11471 0.0
H911 H 0.43492 0.98863 0.10982 0.0
C912 C 0.80678 0.29279 0.65221 0.0
C913 C 0.80902 0.33583 0.65408 0.0
C914 C 0.74111 0.3425 0.63803 0.0
C915 C 0.74092 0.30073 0.62779 0.0
N916 N 0.77191 0.234 0.6317 0.0
N917 N 0.77829 0.40226 0.64998 0.0
C918 C 0.77301 0.27503 0.63748 0.0
C919 C 0.776 0.36085 0.64788 0.0
N920 N 0.83684 0.269 0.6651 0.0
N921 N 0.70747 0.36429 0.63894 0.0
H922 H 0.80305 0.41673 0.65829 0.0
H923 H 0.75638 0.42232 0.64133 0.0
H924 H 0.68146 0.35079 0.63347 0.0
H925 H 0.70488 0.39401 0.64904 0.0
H926 H 0.83604 0.23756 0.66835 0.0
H927 H 0.86203 0.28112 0.67546 0.0
H928 H 0.79594 0.21476 0.63158 0.0
H929 H 0.74682 0.21868 0.6275 0.0
C930 C 1.00978 0.48067 0.86026 0.0
C931 C 0.9876 0.45086 0.84208 0.0
C932 C 0.93223 0.47376 0.87847 0.0
C933 C 0.95264 0.50782 0.89115 0.0
N934 N 1.0107 0.54483 0.89421 0.0
N935 N 0.92647 0.42076 0.83141 0.0
C936 C 0.99163 0.51124 0.88265 0.0
C937 C 0.94862 0.44724 0.85106 0.0
N938 N 0.04823 0.47984 0.85569 0.0
N939 N 0.89703 0.46707 0.89251 0.0
H940 H 0.93702 0.40082 0.81098 0.0
H941 H 0.89701 0.42046 0.83344 0.0
H942 H 0.88425 0.48628 0.91241 0.0
H943 H 0.88218 0.44065 0.88724 0.0
H944 H 0.06671 0.49812 0.87088 0.0
H945 H 0.06199 0.45806 0.83903 0.0
H946 H 0.03773 0.55168 0.8851 0.0
H947 H 0.99859 0.56738 0.91135 0.0
C948 C 0.80389 0.67827 0.12403 0.0
C949 C 0.79945 0.70576 0.09319 0.0
C950 C 0.73035 0.69793 0.0936 0.0
C951 C 0.73468 0.6718 0.12545 0.0
N952 N 0.7742 0.64423 0.17621 0.0
N953 N 0.75859 0.74869 0.0538 0.0
C954 C 0.77108 0.66426 0.14234 0.0
C955 C 0.76264 0.71772 0.07957 0.0
N956 N 0.8393 0.6637 0.13447 0.0
N957 N 0.69566 0.7026 0.07588 0.0
H958 H 0.78166 0.76417 0.04335 0.0
H959 H 0.7324 0.76158 0.04545 0.0
H960 H 0.67129 0.68889 0.08553 0.0
H961 H 0.69154 0.7175 0.05007 0.0
H962 H 0.84405 0.64011 0.15382 0.0
H963 H 0.86398 0.67286 0.12147 0.0
H964 H 0.79947 0.64158 0.19189 0.0
H965 H 0.75079 0.63336 0.19037 0.0
C966 C 0.55465 0.50704 0.3978 0.0
C967 C 0.59422 0.49716 0.39719 0.0
C968 C 0.60175 0.54509 0.34484 0.0
C969 C 0.56164 0.55096 0.34215 0.0
N970 N 0.49933 0.53637 0.36442 0.0
N971 N 0.65482 0.50243 0.3669 0.0
C972 C 0.53789 0.53181 0.36839 0.0
C973 C 0.61767 0.51531 0.37006 0.0
N974 N 0.53335 0.4932 0.42681 0.0
N975 N 0.62478 0.56811 0.32327 0.0
H976 H 0.66779 0.48053 0.38458 0.0
H977 H 0.67202 0.51078 0.34469 0.0
H978 H 0.61433 0.58963 0.30386 0.0
H979 H 0.65415 0.56868 0.32709 0.0
H980 H 0.50517 0.50232 0.43105 0.0
H981 H 0.54481 0.47483 0.44849 0.0
H982 H 0.48011 0.51986 0.37985 0.0
H983 H 0.48647 0.55546 0.34405 0.0
C984 C 0.42446 0.24251 0.25037 0.0
C985 C 0.41487 0.2497 0.21177 0.0
C986 C 0.44909 0.18689 0.19377 0.0
C987 C 0.46171 0.18186 0.23183 0.0
N988 N 0.44807 0.19368 0.29729 0.0
N989 N 0.40762 0.22309 0.14867 0.0
C990 C 0.44496 0.20602 0.26057 0.0
C991 C 0.42365 0.2198 0.18408 0.0
N992 N 0.41545 0.27125 0.27692 0.0
N993 N 0.46255 0.16067 0.16684 0.0
H994 H 0.38882 0.24692 0.1409 0.0
H995 H 0.41031 0.20077 0.12794 0.0
H996 H 0.47842 0.1344 0.17398 0.0
H997 H 0.45878 0.16512 0.13786 0.0
H998 H 0.42544 0.26986 0.3048 0.0
H999 H 0.39972 0.29784 0.27045 0.0
H1000 H 0.4347 0.20876 0.31953 0.0
H1001 H 0.45945 0.16505 0.30445 0.0
C1002 C 0.93944 0.28532 0.8386 0.0
C1003 C 0.94674 0.28587 0.79927 0.0
C1004 C 0.9044 0.22856 0.79002 0.0
C1005 C 0.90245 0.22413 0.8299 0.0
N1006 N 0.92203 0.24525 0.89254 0.0
N1007 N 0.93719 0.2577 0.73697 0.0
C1008 C 0.92078 0.25187 0.85432 0.0
C1009 C 0.92908 0.25776 0.77462 0.0
N1010 N 0.94973 0.31734 0.86086 0.0
N1011 N 0.8823 0.20524 0.76703 0.0
H1012 H 0.95424 0.27924 0.72461 0.0
H1013 H 0.92878 0.23504 0.7183 0.0
H1014 H 0.8643 0.18341 0.77755 0.0
H1015 H 0.87945 0.2097 0.73795 0.0
H1016 H 0.94161 0.32062 0.88892 0.0
H1017 H 0.96295 0.34282 0.85024 0.0
H1018 H 0.93884 0.26181 0.91114 0.0
H1019 H 0.90899 0.22093 0.9055 0.0
C1020 C 0.02824 0.62578 0.06296 0.0
C1021 C 0.0391 0.61957 0.10142 0.0
C1022 C 0.97851 0.64987 0.12177 0.0
C1023 C 0.96989 0.66063 0.08362 0.0
N1024 N 0.97672 0.64175 1.01838 0.0
N1025 N 1.02054 0.61328 0.16626 0.0
C1026 C 0.9915 0.64288 0.05421 0.0
C1027 C 1.01264 0.62729 0.13048 0.0
N1028 N 0.05358 0.61727 0.03503 0.0
N1029 N 0.95449 0.66264 0.14961 0.0
H1030 H 0.04542 0.5966 0.1731 0.0
H1031 H 1.00151 0.6152 0.18842 0.0
H1032 H 0.92796 0.67627 0.14349 0.0
H1033 H 0.96081 0.66047 0.1784 0.0
H1034 H 0.04886 0.62557 1.00686 0.0
H1035 H 0.08033 0.60381 0.04045 0.0
H1036 H 0.99018 0.62693 0.99604 0.0
H1037 H 0.94865 0.65076 1.01246 0.0
C1038 C 0.65299 0.75233 0.34242 0.0
C1039 C 0.64146 0.7934 0.33486 0.0
C1040 C 0.59567 0.77003 0.28673 0.0
C1041 C 0.60357 0.72918 0.29805 0.0
N1042 N 0.63857 0.68068 0.33714 0.0
N1043 N 0.60234 0.84221 0.2999 0.0
C1044 C 0.63241 0.72007 0.32557 0.0
C1045 C 0.61317 0.80251 0.3067 0.0
N1046 N 0.68354 0.7442 0.36592 0.0
N1047 N 0.57157 0.7775 0.25662 0.0
H1048 H 0.61578 0.86667 0.31266 0.0
H1049 H 0.57907 0.85113 0.28301 0.0
H1050 H 0.55874 0.75415 0.24151 0.0
H1051 H 0.56658 0.80612 0.2446 0.0
H1052 H 0.69609 0.71533 0.36946 0.0
H1053 H 0.69828 0.76687 0.38003 0.0
H1054 H 0.65555 0.67213 0.36035 0.0
H1055 H 0.62492 0.65635 0.32452 0.0
C1056 C 0.53192 0.29392 0.5784 0.0
C1057 C 0.56515 0.31734 0.582 0.0
C1058 C 0.5264 0.37569 0.60469 0.0
C1059 C 0.49393 0.35097 0.60457 0.0
N1060 N 0.46543 0.28621 0.59344 0.0
N1061 N 0.59515 0.37935 0.60018 0.0
C1062 C 0.49656 0.31007 0.59168 0.0
C1063 C 0.56264 0.35805 0.59535 0.0
N1064 N 0.53415 0.25618 0.56209 0.0
N1065 N 0.52239 0.41613 0.61338 0.0
H1066 H 0.62177 0.3679 0.59214 0.0
H1067 H 0.59627 0.40737 0.61379 0.0
H1068 H 0.49654 0.42966 0.62129 0.0
H1069 H 0.54383 0.43696 0.61038 0.0
H1070 H 0.51058 0.23955 0.55427 0.0
H1071 H 0.55964 0.24224 0.55387 0.0
H1072 H 0.46628 0.25486 0.58918 0.0
H1073 H 0.43868 0.29734 0.60141 0.0
C1074 C 0.12534 0.78192 0.67796 0.0
C1075 C 0.14018 0.74714 0.69773 0.0
C1076 C 0.10624 0.76889 0.75464 0.0
C1077 C 0.09122 0.80376 0.73498 0.0
N1078 N 0.09404 0.8486 0.6809 0.0
N1079 N 0.15293 0.71297 0.75701 0.0
C1080 C 0.10352 0.81213 0.69772 0.0
C1081 C 0.13326 0.74246 0.73683 0.0
N1082 N 0.1302 0.78492 0.63977 0.0
N1083 N 0.09363 0.76019 0.78999 0.0
H1084 H 0.17289 0.69315 0.74474 0.0
H1085 H 0.15213 0.71048 0.78634 0.0
H1086 H 0.07566 0.77989 0.80486 0.0
H1087 H 0.09939 0.73263 0.80381 0.0
H1088 H 0.11617 0.80672 0.62282 0.0
H1089 H 0.14615 0.76369 0.62432 0.0
H1090 H 0.10537 0.85805 0.65546 0.0
H1091 H 0.07775 0.87132 0.69387 0.0
C1092 C 0.51341 0.84315 0.99305 0.0
C1093 C 0.48049 0.83347 0.97149 0.0
C1094 C 0.50995 0.85902 0.91391 0.0
C1095 C 0.54299 0.8682 0.9354 0.0
N1096 N 0.57323 0.87804 0.99622 0.0
N1097 N 0.44354 0.84063 0.91392 0.0
C1098 C 0.5436 0.86343 0.97532 0.0
C1099 C 0.47757 0.84423 0.93265 0.0
N1100 N 0.51698 0.83052 0.02979 0.0
N1101 N 0.51008 0.86312 0.87543 0.0
H1102 H 0.41935 0.83031 0.92716 0.0
H1103 H 0.43825 0.85117 0.88651 0.0
H1104 H 0.53267 0.87549 0.86105 0.0
H1105 H 0.48882 0.85243 0.85755 0.0
H1106 H 0.54203 0.832 0.04573 0.0
H1107 H 0.49549 0.8159 0.04375 0.0
H1108 H 0.57352 0.87949 0.02564 0.0
H1109 H 0.59634 0.89194 0.9841 0.0
C1110 C 0.03021 0.13637 0.48304 0.0
C1111 C 1.0157 0.14278 0.44568 0.0
C1112 C 0.06839 0.18796 0.43282 0.0
C1113 C 0.07877 0.18708 0.47169 0.0
N1114 N 0.07193 0.1592 0.53386 0.0
N1115 N 1.02001 0.17566 0.3849 0.0
C1116 C 0.06073 0.16035 0.49672 0.0
C1117 C 0.03492 0.16833 0.4203 0.0
N1118 N 1.01492 0.10713 0.50517 0.0
N1119 N 0.0908 0.20769 0.40795 0.0
H1120 H 0.9958 0.16166 0.37445 0.0
H1121 H 0.03003 0.19766 0.36669 0.0
H1122 H 0.11563 0.22192 0.41655 0.0
H1123 H 0.08703 0.20661 0.37871 0.0
H1124 H 0.02606 0.09827 0.53146 0.0
H1125 H 0.99251 0.08938 0.49588 0.0
H1126 H 0.05717 0.1446 0.55493 0.0
H1127 H 0.09588 0.17416 0.54364 0.0
loop_
_geom_bond_atom_site_label_1
_geom_bond_atom_site_label_2
_geom_bond_distance
_geom_bond_site_symmetry_2
_ccdc_geom_bond_type
Sm0 C2 2.846 . S
Sm0 O20 2.543 . S
Sm0 O21 2.450 . S
Sm0 O22 2.681 . S
Sm0 O23 2.464 . S
Sm0 O24 2.396 . S
Sm0 O28 2.386 . S
Sm0 O31 2.408 . S
Sm1 C11 2.846 . S
Sm1 O22 2.386 . S
Sm1 O25 2.408 . S
Sm1 O26 2.543 . S
Sm1 O27 2.450 . S
Sm1 O28 2.681 . S
Sm1 O29 2.464 . S
Sm1 O30 2.396 . S
C2 Sm0 2.846 . S
C2 C3 1.506 . S
C2 O20 1.261 . S
C2 O21 1.242 . S
C3 C2 1.506 . S
C3 C4 1.358 . S
C3 C8 1.382 . S
C4 C3 1.358 . S
C4 C5 1.385 . S
C4 H32 0.930 . S
C5 C4 1.385 . S
C5 C6 1.395 . S
C5 H33 0.929 . S
C6 C5 1.395 . S
C6 C7 1.335 . S
C7 C6 1.335 . S
C7 C8 1.398 . S
C7 H34 0.930 . S
C8 C3 1.382 . S
C8 C7 1.398 . S
C8 H35 0.929 . S
C9 O22 1.271 . S
C9 O23 1.251 . S
C10 O24 1.252 . S
C10 O25 1.272 . S
C11 Sm1 2.846 . S
C11 C12 1.506 . S
C11 O26 1.261 . S
C11 O27 1.242 . S
C12 C11 1.506 . S
C12 C13 1.358 . S
C12 C17 1.382 . S
C13 C12 1.358 . S
C13 C14 1.385 . S
C13 H36 0.930 . S
C14 C13 1.385 . S
C14 C15 1.395 . S
C14 H37 0.929 . S
C15 C14 1.395 . S
C15 C16 1.335 . S
C16 C15 1.335 . S
C16 C17 1.398 . S
C16 H38 0.930 . S
C17 C12 1.382 . S
C17 C16 1.398 . S
C17 H39 0.929 . S
C18 O28 1.271 . S
C18 O29 1.251 . S
C19 O30 1.252 . S
C19 O31 1.272 . S
O20 Sm0 2.543 . S
O20 C2 1.261 . S
O21 Sm0 2.450 . S
O21 C2 1.242 . S
O22 Sm0 2.681 . S
O22 Sm1 2.386 . S
O22 C9 1.271 . S
O23 Sm0 2.464 . S
O23 C9 1.251 . S
O24 Sm0 2.396 . S
O24 C10 1.252 . S
O25 Sm1 2.408 . S
O25 C10 1.272 . S
O26 Sm1 2.543 . S
O26 C11 1.261 . S
O27 Sm1 2.450 . S
O27 C11 1.242 . S
O28 Sm0 2.386 . S
O28 Sm1 2.681 . S
O28 C18 1.271 . S
O29 Sm1 2.464 . S
O29 C18 1.251 . S
O30 Sm1 2.396 . S
O30 C19 1.252 . S
O31 Sm0 2.408 . S
O31 C19 1.272 . S
H32 C4 0.930 . S
H33 C5 0.929 . S
H34 C7 0.930 . S
H35 C8 0.929 . S
H36 C13 0.930 . S
H37 C14 0.929 . S
H38 C16 0.930 . S
H39 C17 0.929 . S
Sm40 C42 2.846 . S
Sm40 O60 2.543 . S
Sm40 O61 2.450 . S
Sm40 O62 2.681 1_655 S
Sm40 O63 2.464 1_655 S
Sm40 O64 2.396 1_655 S
Sm40 O68 2.386 . S
Sm40 O71 2.408 . S
Sm41 C51 2.846 . S
Sm41 O62 2.386 . S
Sm41 O65 2.408 . S
Sm41 O66 2.543 . S
Sm41 O67 2.450 . S
Sm41 O68 2.681 1_455 S
Sm41 O69 2.464 1_455 S
Sm41 O70 2.378 1_455 S
C42 Sm40 2.846 . S
C42 C43 1.506 . S
C42 O60 1.261 . S
C42 O61 1.242 . S
C43 C42 1.506 . S
C43 C44 1.358 . S
C43 C48 1.382 . S
C44 C43 1.358 . S
C44 C45 1.385 . S
C44 H72 0.930 . S
C45 C44 1.385 . S
C45 C46 1.395 . S
C45 H73 0.929 . S
C46 C45 1.395 . S
C46 C47 1.335 . S
C47 C46 1.335 . S
C47 C48 1.398 . S
C47 H74 0.930 . S
C48 C43 1.382 . S
C48 C47 1.398 . S
C48 H75 0.929 . S
C49 O62 1.271 . S
C49 O63 1.251 . S
C50 O64 1.252 . S
C50 O65 1.272 . S
C51 Sm41 2.846 . S
C51 C52 1.506 . S
C51 O66 1.261 . S
C51 O67 1.242 . S
C52 C51 1.506 . S
C52 C53 1.358 . S
C52 C57 1.382 . S
C53 C52 1.358 . S
C53 C54 1.385 . S
C53 H76 0.930 . S
C54 C53 1.385 . S
C54 C55 1.395 . S
C54 H77 0.929 . S
C55 C54 1.395 . S
C55 C56 1.335 . S
C56 C55 1.335 . S
C56 C57 1.398 . S
C56 H78 0.930 . S
C57 C52 1.382 . S
C57 C56 1.398 . S
C57 H79 0.929 . S
C58 O68 1.271 . S
C58 O69 1.251 . S
C59 O70 1.267 . S
C59 O71 1.272 . S
O60 Sm40 2.543 . S
O60 C42 1.261 . S
O61 Sm40 2.450 . S
O61 C42 1.242 . S
O62 Sm40 2.681 1_455 S
O62 Sm41 2.386 . S
O62 C49 1.271 . S
O63 Sm40 2.464 1_455 S
O63 C49 1.251 . S
O64 Sm40 2.396 1_455 S
O64 C50 1.252 . S
O65 Sm41 2.408 . S
O65 C50 1.272 . S
O66 Sm41 2.543 . S
O66 C51 1.261 . S
O67 Sm41 2.450 . S
O67 C51 1.242 . S
O68 Sm40 2.386 . S
O68 Sm41 2.681 1_655 S
O68 C58 1.271 . S
O69 Sm41 2.464 1_655 S
O69 C58 1.251 . S
O70 Sm41 2.378 1_655 S
O70 C59 1.267 . S
O71 Sm40 2.408 . S
O71 C59 1.272 . S
H72 C44 0.930 . S
H73 C45 0.929 . S
H74 C47 0.930 . S
H75 C48 0.929 . S
H76 C53 0.930 . S
H77 C54 0.929 . S
H78 C56 0.930 . S
H79 C57 0.929 . S
Sm80 C82 2.846 . S
Sm80 O100 2.543 . S
Sm80 O101 2.450 . S
Sm80 O102 2.681 1_554 S
Sm80 O103 2.464 1_554 S
Sm80 O104 2.396 1_554 S
Sm80 O108 2.386 . S
Sm80 O111 2.408 . S
Sm81 C91 2.846 . S
Sm81 O102 2.386 . S
Sm81 O105 2.408 . S
Sm81 O106 2.543 . S
Sm81 O107 2.450 . S
Sm81 O108 2.681 1_556 S
Sm81 O109 2.464 1_556 S
Sm81 O110 2.381 1_556 S
C82 Sm80 2.846 . S
C82 C83 1.506 . S
C82 O100 1.261 . S
C82 O101 1.242 . S
C83 C82 1.506 . S
C83 C84 1.358 . S
C83 C88 1.382 . S
C84 C83 1.358 . S
C84 C85 1.385 . S
C84 H112 0.930 . S
C85 C84 1.385 . S
C85 C86 1.395 . S
C85 H113 0.929 . S
C86 C85 1.395 . S
C86 C87 1.335 . S
C87 C86 1.335 . S
C87 C88 1.398 . S
C87 H114 0.930 . S
C88 C83 1.382 . S
C88 C87 1.398 . S
C88 H115 0.929 . S
C89 O102 1.271 . S
C89 O103 1.251 . S
C90 O104 1.252 . S
C90 O105 1.272 . S
C91 Sm81 2.846 . S
C91 C92 1.506 . S
C91 O106 1.261 . S
C91 O107 1.242 . S
C92 C91 1.506 . S
C92 C93 1.358 . S
C92 C97 1.382 . S
C93 C92 1.358 . S
C93 C94 1.385 . S
C93 H116 0.930 . S
C94 C93 1.385 . S
C94 C95 1.395 . S
C94 H117 0.929 . S
C95 C94 1.395 . S
C95 C96 1.335 . S
C96 C95 1.335 . S
C96 C97 1.398 . S
C96 H118 0.930 . S
C97 C92 1.382 . S
C97 C96 1.398 . S
C97 H119 0.929 . S
C98 O108 1.271 . S
C98 O109 1.251 . S
C99 O110 1.265 . S
C99 O111 1.272 . S
O100 Sm80 2.543 . S
O100 C82 1.261 . S
O101 Sm80 2.450 . S
O101 C82 1.242 . S
O102 Sm80 2.681 1_556 S
O102 Sm81 2.386 . S
O102 C89 1.271 . S
O103 Sm80 2.464 1_556 S
O103 C89 1.251 . S
O104 Sm80 2.396 1_556 S
O104 C90 1.252 . S
O105 Sm81 2.408 . S
O105 C90 1.272 . S
O106 Sm81 2.543 . S
O106 C91 1.261 . S
O107 Sm81 2.450 . S
O107 C91 1.242 . S
O108 Sm80 2.386 . S
O108 Sm81 2.681 1_554 S
O108 C98 1.271 . S
O109 Sm81 2.464 1_554 S
O109 C98 1.251 . S
O110 Sm81 2.381 1_554 S
O110 C99 1.265 . S
O111 Sm80 2.408 . S
O111 C99 1.272 . S
H112 C84 0.930 . S
H113 C85 0.929 . S
H114 C87 0.930 . S
H115 C88 0.929 . S
H116 C93 0.930 . S
H117 C94 0.929 . S
H118 C96 0.930 . S
H119 C97 0.929 . S
Sm120 C122 2.846 . S
Sm120 O140 2.543 . S
Sm120 O141 2.450 . S
Sm120 O142 2.681 . S
Sm120 O143 2.464 . S
Sm120 O144 2.396 . S
Sm120 O148 2.386 . S
Sm120 O151 2.408 . S
Sm121 C131 2.846 . S
Sm121 O142 2.386 . S
Sm121 O145 2.408 . S
Sm121 O146 2.543 . S
Sm121 O147 2.450 . S
Sm121 O148 2.681 . S
Sm121 O149 2.464 . S
Sm121 O150 2.396 . S
C122 Sm120 2.846 . S
C122 C123 1.506 . S
C122 O140 1.261 . S
C122 O141 1.242 . S
C123 C122 1.506 . S
C123 C124 1.358 . S
C123 C128 1.382 . S
C124 C123 1.358 . S
C124 C125 1.385 . S
C124 H152 0.930 . S
C125 C124 1.385 . S
C125 C126 1.395 . S
C125 H153 0.929 . S
C126 C125 1.395 . S
C126 C127 1.335 . S
C127 C126 1.335 . S
C127 C128 1.398 . S
C127 H154 0.930 . S
C128 C123 1.382 . S
C128 C127 1.398 . S
C128 H155 0.929 . S
C129 O142 1.271 . S
C129 O143 1.251 . S
C130 O144 1.252 . S
C130 O145 1.272 . S
C131 Sm121 2.846 . S
C131 C132 1.506 . S
C131 O146 1.261 . S
C131 O147 1.242 . S
C132 C131 1.506 . S
C132 C133 1.358 . S
C132 C137 1.382 . S
C133 C132 1.358 . S
C133 C134 1.385 . S
C133 H156 0.930 . S
C134 C133 1.385 . S
C134 C135 1.395 . S
C134 H157 0.929 . S
C135 C134 1.395 . S
C135 C136 1.335 . S
C136 C135 1.335 . S
C136 C137 1.398 . S
C136 H158 0.930 . S
C137 C132 1.382 . S
C137 C136 1.398 . S
C137 H159 0.929 . S
C138 O148 1.271 . S
C138 O149 1.251 . S
C139 O150 1.252 . S
C139 O151 1.272 . S
O140 Sm120 2.543 . S
O140 C122 1.261 . S
O141 Sm120 2.450 . S
O141 C122 1.242 . S
O142 Sm120 2.681 . S
O142 Sm121 2.386 . S
O142 C129 1.271 . S
O143 Sm120 2.464 . S
O143 C129 1.251 . S
O144 Sm120 2.396 . S
O144 C130 1.252 . S
O145 Sm121 2.408 . S
O145 C130 1.272 . S
O146 Sm121 2.543 . S
O146 C131 1.261 . S
O147 Sm121 2.450 . S
O147 C131 1.242 . S
O148 Sm120 2.386 . S
O148 Sm121 2.681 . S
O148 C138 1.271 . S
O149 Sm121 2.464 . S
O149 C138 1.251 . S
O150 Sm121 2.396 . S
O150 C139 1.252 . S
O151 Sm120 2.408 . S
O151 C139 1.272 . S
H152 C124 0.930 . S
H153 C125 0.929 . S
H154 C127 0.930 . S
H155 C128 0.929 . S
H156 C133 0.930 . S
H157 C134 0.929 . S
H158 C136 0.930 . S
H159 C137 0.929 . S
Sm160 C162 2.846 . S
Sm160 O180 2.543 . S
Sm160 O181 2.450 . S
Sm160 O182 2.681 . S
Sm160 O183 2.464 . S
Sm160 O184 2.396 . S
Sm160 O188 2.386 . S
Sm160 O191 2.408 . S
Sm161 C171 2.846 . S
Sm161 O182 2.386 . S
Sm161 O185 2.408 . S
Sm161 O186 2.543 . S
Sm161 O187 2.450 . S
Sm161 O188 2.681 . S
Sm161 O189 2.464 . S
Sm161 O190 2.396 . S
C162 Sm160 2.846 . S
C162 C163 1.506 . S
C162 O180 1.261 . S
C162 O181 1.242 . S
C163 C162 1.506 . S
C163 C164 1.358 . S
C163 C168 1.382 . S
C164 C163 1.358 . S
C164 C165 1.385 . S
C164 H192 0.930 . S
C165 C164 1.385 . S
C165 C166 1.395 . S
C165 H193 0.929 . S
C166 C165 1.395 . S
C166 C167 1.335 . S
C167 C166 1.335 . S
C167 C168 1.398 . S
C167 H194 0.930 . S
C168 C163 1.382 . S
C168 C167 1.398 . S
C168 H195 0.929 . S
C169 O182 1.271 . S
C169 O183 1.251 . S
C170 O184 1.252 . S
C170 O185 1.272 . S
C171 Sm161 2.846 . S
C171 C172 1.506 . S
C171 O186 1.261 . S
C171 O187 1.242 . S
C172 C171 1.506 . S
C172 C173 1.358 . S
C172 C177 1.382 . S
C173 C172 1.358 . S
C173 C174 1.385 . S
C173 H196 0.930 . S
C174 C173 1.385 . S
C174 C175 1.395 . S
C174 H197 0.929 . S
C175 C174 1.395 . S
C175 C176 1.335 . S
C176 C175 1.335 . S
C176 C177 1.398 . S
C176 H198 0.930 . S
C177 C172 1.382 . S
C177 C176 1.398 . S
C177 H199 0.929 . S
C178 O188 1.271 . S
C178 O189 1.251 . S
C179 O190 1.252 . S
C179 O191 1.272 . S
O180 Sm160 2.543 . S
O180 C162 1.261 . S
O181 Sm160 2.450 . S
O181 C162 1.242 . S
O182 Sm160 2.681 . S
O182 Sm161 2.386 . S
O182 C169 1.271 . S
O183 Sm160 2.464 . S
O183 C169 1.251 . S
O184 Sm160 2.396 . S
O184 C170 1.252 . S
O185 Sm161 2.408 . S
O185 C170 1.272 . S
O186 Sm161 2.543 . S
O186 C171 1.261 . S
O187 Sm161 2.450 . S
O187 C171 1.242 . S
O188 Sm160 2.386 . S
O188 Sm161 2.681 . S
O188 C178 1.271 . S
O189 Sm161 2.464 . S
O189 C178 1.251 . S
O190 Sm161 2.396 . S
O190 C179 1.252 . S
O191 Sm160 2.408 . S
O191 C179 1.272 . S
H192 C164 0.930 . S
H193 C165 0.929 . S
H194 C167 0.930 . S
H195 C168 0.929 . S
H196 C173 0.930 . S
H197 C174 0.929 . S
H198 C176 0.930 . S
H199 C177 0.929 . S
Sm200 C202 2.846 . S
Sm200 O220 2.543 . S
Sm200 O221 2.450 . S
Sm200 O222 2.681 . S
Sm200 O223 2.464 . S
Sm200 O224 2.396 . S
Sm200 O228 2.386 1_655 S
Sm200 O231 2.408 1_655 S
Sm201 C211 2.846 . S
Sm201 O222 2.386 1_455 S
Sm201 O225 2.408 1_455 S
Sm201 O226 2.543 . S
Sm201 O227 2.450 . S
Sm201 O228 2.681 . S
Sm201 O229 2.464 . S
Sm201 O230 2.396 . S
C202 Sm200 2.846 . S
C202 C203 1.506 . S
C202 O220 1.261 . S
C202 O221 1.242 . S
C203 C202 1.506 . S
C203 C204 1.358 . S
C203 C208 1.382 . S
C204 C203 1.358 . S
C204 C205 1.385 . S
C204 H232 0.930 . S
C205 C204 1.385 . S
C205 C206 1.395 . S
C205 H233 0.929 . S
C206 C205 1.395 . S
C206 C207 1.335 . S
C207 C206 1.335 . S
C207 C208 1.398 . S
C207 H234 0.930 . S
C208 C203 1.382 . S
C208 C207 1.398 . S
C208 H235 0.929 . S
C209 O222 1.271 . S
C209 O223 1.251 . S
C210 O224 1.252 . S
C210 O225 1.272 . S
C211 Sm201 2.846 . S
C211 C212 1.506 . S
C211 O226 1.261 . S
C211 O227 1.242 . S
C212 C211 1.506 . S
C212 C213 1.358 . S
C212 C217 1.382 . S
C213 C212 1.358 . S
C213 C214 1.385 . S
C213 H236 0.930 . S
C214 C213 1.385 . S
C214 C215 1.395 . S
C214 H237 0.929 . S
C215 C214 1.395 . S
C215 C216 1.335 . S
C216 C215 1.335 . S
C216 C217 1.398 . S
C216 H238 0.930 . S
C217 C212 1.382 . S
C217 C216 1.398 . S
C217 H239 0.929 . S
C218 O228 1.271 . S
C218 O229 1.251 . S
C219 O230 1.252 . S
C219 O231 1.272 . S
O220 Sm200 2.543 . S
O220 C202 1.261 . S
O221 Sm200 2.450 . S
O221 C202 1.242 . S
O222 Sm200 2.681 . S
O222 Sm201 2.386 1_655 S
O222 C209 1.271 . S
O223 Sm200 2.464 . S
O223 C209 1.251 . S
O224 Sm200 2.396 . S
O224 C210 1.252 . S
O225 Sm201 2.408 1_655 S
O225 C210 1.272 . S
O226 Sm201 2.543 . S
O226 C211 1.261 . S
O227 Sm201 2.450 . S
O227 C211 1.242 . S
O228 Sm200 2.386 1_455 S
O228 Sm201 2.681 . S
O228 C218 1.271 . S
O229 Sm201 2.464 . S
O229 C218 1.251 . S
O230 Sm201 2.396 . S
O230 C219 1.252 . S
O231 Sm200 2.408 1_455 S
O231 C219 1.272 . S
H232 C204 0.930 . S
H233 C205 0.929 . S
H234 C207 0.930 . S
H235 C208 0.929 . S
H236 C213 0.930 . S
H237 C214 0.929 . S
H238 C216 0.930 . S
H239 C217 0.929 . S
Sm240 C242 2.846 . S
Sm240 O260 2.543 . S
Sm240 O261 2.450 . S
Sm240 O262 2.681 . S
Sm240 O263 2.464 . S
Sm240 O264 2.396 . S
Sm240 O268 2.386 1_554 S
Sm240 O271 2.408 1_554 S
Sm241 C251 2.846 . S
Sm241 O262 2.386 1_556 S
Sm241 O265 2.408 1_556 S
Sm241 O266 2.543 . S
Sm241 O267 2.450 . S
Sm241 O268 2.681 . S
Sm241 O269 2.464 . S
Sm241 O270 2.396 . S
C242 Sm240 2.846 . S
C242 C243 1.506 . S
C242 O260 1.261 . S
C242 O261 1.242 . S
C243 C242 1.506 . S
C243 C244 1.358 . S
C243 C248 1.382 . S
C244 C243 1.358 . S
C244 C245 1.385 . S
C244 H272 0.930 . S
C245 C244 1.385 . S
C245 C246 1.395 . S
C245 H273 0.929 . S
C246 C245 1.395 . S
C246 C247 1.335 . S
C247 C246 1.335 . S
C247 C248 1.398 . S
C247 H274 0.930 . S
C248 C243 1.382 . S
C248 C247 1.398 . S
C248 H275 0.929 . S
C249 O262 1.271 . S
C249 O263 1.251 . S
C250 O264 1.252 . S
C250 O265 1.272 . S
C251 Sm241 2.846 . S
C251 C252 1.506 . S
C251 O266 1.261 . S
C251 O267 1.242 . S
C252 C251 1.506 . S
C252 C253 1.358 . S
C252 C257 1.382 . S
C253 C252 1.358 . S
C253 C254 1.385 . S
C253 H276 0.930 . S
C254 C253 1.385 . S
C254 C255 1.395 . S
C254 H277 0.929 . S
C255 C254 1.395 . S
C255 C256 1.335 . S
C256 C255 1.335 . S
C256 C257 1.398 . S
C256 H278 0.930 . S
C257 C252 1.382 . S
C257 C256 1.398 . S
C257 H279 0.929 . S
C258 O268 1.271 . S
C258 O269 1.251 . S
C259 O270 1.252 . S
C259 O271 1.272 . S
O260 Sm240 2.543 . S
O260 C242 1.261 . S
O261 Sm240 2.450 . S
O261 C242 1.242 . S
O262 Sm240 2.681 . S
O262 Sm241 2.386 1_554 S
O262 C249 1.271 . S
O263 Sm240 2.464 . S
O263 C249 1.251 . S
O264 Sm240 2.396 . S
O264 C250 1.252 . S
O265 Sm241 2.408 1_554 S
O265 C250 1.272 . S
O266 Sm241 2.543 . S
O266 C251 1.261 . S
O267 Sm241 2.450 . S
O267 C251 1.242 . S
O268 Sm240 2.386 1_556 S
O268 Sm241 2.681 . S
O268 C258 1.271 . S
O269 Sm241 2.464 . S
O269 C258 1.251 . S
O270 Sm241 2.396 . S
O270 C259 1.252 . S
O271 Sm240 2.408 1_556 S
O271 C259 1.272 . S
H272 C244 0.930 . S
H273 C245 0.929 . S
H274 C247 0.930 . S
H275 C248 0.929 . S
H276 C253 0.930 . S
H277 C254 0.929 . S
H278 C256 0.930 . S
H279 C257 0.929 . S
Sm280 C282 2.846 . S
Sm280 O300 2.543 . S
Sm280 O301 2.450 . S
Sm280 O302 2.681 . S
Sm280 O303 2.464 . S
Sm280 O304 2.396 . S
Sm280 O308 2.386 . S
Sm280 O311 2.408 . S
Sm281 C291 2.846 . S
Sm281 O302 2.386 . S
Sm281 O305 2.408 . S
Sm281 O306 2.543 . S
Sm281 O307 2.450 . S
Sm281 O308 2.681 . S
Sm281 O309 2.464 . S
Sm281 O310 2.396 . S
C282 Sm280 2.846 . S
C282 C283 1.506 . S
C282 O300 1.261 . S
C282 O301 1.242 . S
C283 C282 1.506 . S
C283 C284 1.358 . S
C283 C288 1.382 . S
C284 C283 1.358 . S
C284 C285 1.385 . S
C284 H312 0.930 . S
C285 C284 1.385 . S
C285 C286 1.395 . S
C285 H313 0.929 . S
C286 C285 1.395 . S
C286 C287 1.335 . S
C287 C286 1.335 . S
C287 C288 1.398 . S
C287 H314 0.930 . S
C288 C283 1.382 . S
C288 C287 1.398 . S
C288 H315 0.929 . S
C289 O302 1.271 . S
C289 O303 1.251 . S
C290 O304 1.252 . S
C290 O305 1.272 . S
C291 Sm281 2.846 . S
C291 C292 1.506 . S
C291 O306 1.261 . S
C291 O307 1.242 . S
C292 C291 1.506 . S
C292 C293 1.358 . S
C292 C297 1.382 . S
C293 C292 1.358 . S
C293 C294 1.385 . S
C293 H316 0.930 . S
C294 C293 1.385 . S
C294 C295 1.395 . S
C294 H317 0.929 . S
C295 C294 1.395 . S
C295 C296 1.335 . S
C296 C295 1.335 . S
C296 C297 1.398 . S
C296 H318 0.930 . S
C297 C292 1.382 . S
C297 C296 1.398 . S
C297 H319 0.929 . S
C298 O308 1.271 . S
C298 O309 1.251 . S
C299 O310 1.252 . S
C299 O311 1.272 . S
O300 Sm280 2.543 . S
O300 C282 1.261 . S
O301 Sm280 2.450 . S
O301 C282 1.242 . S
O302 Sm280 2.681 . S
O302 Sm281 2.386 . S
O302 C289 1.271 . S
O303 Sm280 2.464 . S
O303 C289 1.251 . S
O304 Sm280 2.396 . S
O304 C290 1.252 . S
O305 Sm281 2.408 . S
O305 C290 1.272 . S
O306 Sm281 2.543 . S
O306 C291 1.261 . S
O307 Sm281 2.450 . S
O307 C291 1.242 . S
O308 Sm280 2.386 . S
O308 Sm281 2.681 . S
O308 C298 1.271 . S
O309 Sm281 2.464 . S
O309 C298 1.251 . S
O310 Sm281 2.396 . S
O310 C299 1.252 . S
O311 Sm280 2.408 . S
O311 C299 1.272 . S
H312 C284 0.930 . S
H313 C285 0.929 . S
H314 C287 0.930 . S
H315 C288 0.929 . S
H316 C293 0.930 . S
H317 C294 0.929 . S
H318 C296 0.930 . S
H319 C297 0.929 . S
Sm320 C322 2.846 . S
Sm320 O340 2.543 . S
Sm320 O341 2.450 . S
Sm320 O342 2.681 . S
Sm320 O343 2.464 . S
Sm320 O344 2.396 . S
Sm320 O348 2.386 . S
Sm320 O351 2.408 . S
Sm321 C331 2.846 . S
Sm321 O342 2.386 . S
Sm321 O345 2.408 . S
Sm321 O346 2.543 . S
Sm321 O347 2.450 . S
Sm321 O348 2.681 . S
Sm321 O349 2.464 . S
Sm321 O350 2.396 . S
C322 Sm320 2.846 . S
C322 C323 1.506 . S
C322 O340 1.261 . S
C322 O341 1.242 . S
C323 C322 1.506 . S
C323 C324 1.358 . S
C323 C328 1.382 . S
C324 C323 1.358 . S
C324 C325 1.385 . S
C324 H352 0.930 . S
C325 C324 1.385 . S
C325 C326 1.395 . S
C325 H353 0.929 . S
C326 C325 1.395 . S
C326 C327 1.335 . S
C327 C326 1.335 . S
C327 C328 1.398 . S
C327 H354 0.930 . S
C328 C323 1.382 . S
C328 C327 1.398 . S
C328 H355 0.929 . S
C329 O342 1.271 . S
C329 O343 1.251 . S
C330 O344 1.252 . S
C330 O345 1.272 . S
C331 Sm321 2.846 . S
C331 C332 1.506 . S
C331 O346 1.261 . S
C331 O347 1.242 . S
C332 C331 1.506 . S
C332 C333 1.358 . S
C332 C337 1.382 . S
C333 C332 1.358 . S
C333 C334 1.385 . S
C333 H356 0.930 . S
C334 C333 1.385 . S
C334 C335 1.395 . S
C334 H357 0.929 . S
C335 C334 1.395 . S
C335 C336 1.335 . S
C336 C335 1.335 . S
C336 C337 1.398 . S
C336 H358 0.930 . S
C337 C332 1.382 . S
C337 C336 1.398 . S
C337 H359 0.929 . S
C338 O348 1.271 . S
C338 O349 1.251 . S
C339 O350 1.252 . S
C339 O351 1.272 . S
O340 Sm320 2.543 . S
O340 C322 1.261 . S
O341 Sm320 2.450 . S
O341 C322 1.242 . S
O342 Sm320 2.681 . S
O342 Sm321 2.386 . S
O342 C329 1.271 . S
O343 Sm320 2.464 . S
O343 C329 1.251 . S
O344 Sm320 2.396 . S
O344 C330 1.252 . S
O345 Sm321 2.408 . S
O345 C330 1.272 . S
O346 Sm321 2.543 . S
O346 C331 1.261 . S
O347 Sm321 2.450 . S
O347 C331 1.242 . S
O348 Sm320 2.386 . S
O348 Sm321 2.681 . S
O348 C338 1.271 . S
O349 Sm321 2.464 . S
O349 C338 1.251 . S
O350 Sm321 2.396 . S
O350 C339 1.252 . S
O351 Sm320 2.408 . S
O351 C339 1.272 . S
H352 C324 0.930 . S
H353 C325 0.929 . S
H354 C327 0.930 . S
H355 C328 0.929 . S
H356 C333 0.930 . S
H357 C334 0.929 . S
H358 C336 0.930 . S
H359 C337 0.929 . S
Sm360 C362 2.846 . S
Sm360 O380 2.543 . S
Sm360 O381 2.450 . S
Sm360 O382 2.681 1_565 S
Sm360 O383 2.464 1_565 S
Sm360 O384 2.396 1_565 S
Sm360 O388 2.386 . S
Sm360 O391 2.408 . S
Sm361 C371 2.846 . S
Sm361 O382 2.386 . S
Sm361 O385 2.408 . S
Sm361 O386 2.543 . S
Sm361 O387 2.450 . S
Sm361 O388 2.681 1_545 S
Sm361 O389 2.464 1_545 S
Sm361 O390 2.396 1_545 S
C362 Sm360 2.846 . S
C362 C363 1.506 . S
C362 O380 1.261 . S
C362 O381 1.242 . S
C363 C362 1.506 . S
C363 C364 1.358 . S
C363 C368 1.382 . S
C364 C363 1.358 . S
C364 C365 1.385 . S
C364 H392 0.930 . S
C365 C364 1.385 . S
C365 C366 1.395 . S
C365 H393 0.929 . S
C366 C365 1.395 . S
C366 C367 1.335 . S
C367 C366 1.335 . S
C367 C368 1.398 . S
C367 H394 0.930 . S
C368 C363 1.382 . S
C368 C367 1.398 . S
C368 H395 0.929 . S
C369 O382 1.271 . S
C369 O383 1.251 . S
C370 O384 1.252 . S
C370 O385 1.272 . S
C371 Sm361 2.846 . S
C371 C372 1.506 . S
C371 O386 1.261 . S
C371 O387 1.242 . S
C372 C371 1.506 . S
C372 C373 1.358 . S
C372 C377 1.382 . S
C373 C372 1.358 . S
C373 C374 1.385 . S
C373 H396 0.930 . S
C374 C373 1.385 . S
C374 C375 1.395 . S
C374 H397 0.929 . S
C375 C374 1.395 . S
C375 C376 1.335 . S
C376 C375 1.335 . S
C376 C377 1.398 . S
C376 H398 0.930 . S
C377 C372 1.382 . S
C377 C376 1.398 . S
C377 H399 0.929 . S
C378 O388 1.271 . S
C378 O389 1.251 . S
C379 O390 1.252 . S
C379 O391 1.272 . S
O380 Sm360 2.543 . S
O380 C362 1.261 . S
O381 Sm360 2.450 . S
O381 C362 1.242 . S
O382 Sm360 2.681 1_545 S
O382 Sm361 2.386 . S
O382 C369 1.271 . S
O383 Sm360 2.464 1_545 S
O383 C369 1.251 . S
O384 Sm360 2.396 1_545 S
O384 C370 1.252 . S
O385 Sm361 2.408 . S
O385 C370 1.272 . S
O386 Sm361 2.543 . S
O386 C371 1.261 . S
O387 Sm361 2.450 . S
O387 C371 1.242 . S
O388 Sm360 2.386 . S
O388 Sm361 2.681 1_565 S
O388 C378 1.271 . S
O389 Sm361 2.464 1_565 S
O389 C378 1.251 . S
O390 Sm361 2.396 1_565 S
O390 C379 1.252 . S
O391 Sm360 2.408 . S
O391 C379 1.272 . S
H392 C364 0.930 . S
H393 C365 0.929 . S
H394 C367 0.930 . S
H395 C368 0.929 . S
H396 C373 0.930 . S
H397 C374 0.929 . S
H398 C376 0.930 . S
H399 C377 0.929 . S
Sm400 C402 2.846 . S
Sm400 O420 2.543 . S
Sm400 O421 2.450 . S
Sm400 O422 2.681 . S
Sm400 O423 2.464 . S
Sm400 O424 2.396 . S
Sm400 O428 2.386 1_565 S
Sm400 O431 2.408 1_565 S
Sm401 C411 2.846 . S
Sm401 O422 2.386 1_545 S
Sm401 O425 2.408 1_545 S
Sm401 O426 2.543 . S
Sm401 O427 2.450 . S
Sm401 O428 2.681 . S
Sm401 O429 2.464 . S
Sm401 O430 2.396 . S
C402 Sm400 2.846 . S
C402 C403 1.506 . S
C402 O420 1.261 . S
C402 O421 1.242 . S
C403 C402 1.506 . S
C403 C404 1.358 . S
C403 C408 1.382 . S
C404 C403 1.358 . S
C404 C405 1.385 . S
C404 H432 0.930 . S
C405 C404 1.385 . S
C405 C406 1.395 . S
C405 H433 0.929 . S
C406 C405 1.395 . S
C406 C407 1.335 . S
C407 C406 1.335 . S
C407 C408 1.398 . S
C407 H434 0.930 . S
C408 C403 1.382 . S
C408 C407 1.398 . S
C408 H435 0.929 . S
C409 O422 1.271 . S
C409 O423 1.251 . S
C410 O424 1.252 . S
C410 O425 1.272 . S
C411 Sm401 2.846 . S
C411 C412 1.506 . S
C411 O426 1.261 . S
C411 O427 1.242 . S
C412 C411 1.506 . S
C412 C413 1.358 . S
C412 C417 1.382 . S
C413 C412 1.358 . S
C413 C414 1.385 . S
C413 H436 0.930 . S
C414 C413 1.385 . S
C414 C415 1.395 . S
C414 H437 0.929 . S
C415 C414 1.395 . S
C415 C416 1.335 . S
C416 C415 1.335 . S
C416 C417 1.398 . S
C416 H438 0.930 . S
C417 C412 1.382 . S
C417 C416 1.398 . S
C417 H439 0.929 . S
C418 O428 1.271 . S
C418 O429 1.251 . S
C419 O430 1.252 . S
C419 O431 1.272 . S
O420 Sm400 2.543 . S
O420 C402 1.261 . S
O421 Sm400 2.450 . S
O421 C402 1.242 . S
O422 Sm400 2.681 . S
O422 Sm401 2.386 1_565 S
O422 C409 1.271 . S
O423 Sm400 2.464 . S
O423 C409 1.251 . S
O424 Sm400 2.396 . S
O424 C410 1.252 . S
O425 Sm401 2.408 1_565 S
O425 C410 1.272 . S
O426 Sm401 2.543 . S
O426 C411 1.261 . S
O427 Sm401 2.450 . S
O427 C411 1.242 . S
O428 Sm400 2.386 1_545 S
O428 Sm401 2.681 . S
O428 C418 1.271 . S
O429 Sm401 2.464 . S
O429 C418 1.251 . S
O430 Sm401 2.396 . S
O430 C419 1.252 . S
O431 Sm400 2.408 1_545 S
O431 C419 1.272 . S
H432 C404 0.930 . S
H433 C405 0.929 . S
H434 C407 0.930 . S
H435 C408 0.929 . S
H436 C413 0.930 . S
H437 C414 0.929 . S
H438 C416 0.930 . S
H439 C417 0.929 . S
Sm440 C442 2.846 . S
Sm440 O460 2.543 . S
Sm440 O461 2.450 . S
Sm440 O462 2.681 . S
Sm440 O463 2.464 . S
Sm440 O464 2.396 . S
Sm440 O468 2.386 . S
Sm440 O471 2.408 . S
Sm441 C451 2.846 . S
Sm441 O462 2.386 . S
Sm441 O465 2.408 . S
Sm441 O466 2.543 . S
Sm441 O467 2.450 . S
Sm441 O468 2.681 . S
Sm441 O469 2.464 . S
Sm441 O470 2.396 . S
C442 Sm440 2.846 . S
C442 C443 1.506 . S
C442 O460 1.261 . S
C442 O461 1.242 . S
C443 C442 1.506 . S
C443 C444 1.358 . S
C443 C448 1.382 . S
C444 C443 1.358 . S
C444 C445 1.385 . S
C444 H472 0.930 . S
C445 C444 1.385 . S
C445 C446 1.395 . S
C445 H473 0.929 . S
C446 C445 1.395 . S
C446 C447 1.335 . S
C447 C446 1.335 . S
C447 C448 1.398 . S
C447 H474 0.930 . S
C448 C443 1.382 . S
C448 C447 1.398 . S
C448 H475 0.929 . S
C449 O462 1.271 . S
C449 O463 1.251 . S
C450 O464 1.252 . S
C450 O465 1.272 . S
C451 Sm441 2.846 . S
C451 C452 1.506 . S
C451 O466 1.261 . S
C451 O467 1.242 . S
C452 C451 1.506 . S
C452 C453 1.358 . S
C452 C457 1.382 . S
C453 C452 1.358 . S
C453 C454 1.385 . S
C453 H476 0.930 . S
C454 C453 1.385 . S
C454 C455 1.395 . S
C454 H477 0.929 . S
C455 C454 1.395 . S
C455 C456 1.335 . S
C456 C455 1.335 . S
C456 C457 1.398 . S
C456 H478 0.930 . S
C457 C452 1.382 . S
C457 C456 1.398 . S
C457 H479 0.929 . S
C458 O468 1.271 . S
C458 O469 1.251 . S
C459 O470 1.252 . S
C459 O471 1.272 . S
O460 Sm440 2.543 . S
O460 C442 1.261 . S
O461 Sm440 2.450 . S
O461 C442 1.242 . S
O462 Sm440 2.681 . S
O462 Sm441 2.386 . S
O462 C449 1.271 . S
O463 Sm440 2.464 . S
O463 C449 1.251 . S
O464 Sm440 2.396 . S
O464 C450 1.252 . S
O465 Sm441 2.408 . S
O465 C450 1.272 . S
O466 Sm441 2.543 . S
O466 C451 1.261 . S
O467 Sm441 2.450 . S
O467 C451 1.242 . S
O468 Sm440 2.386 . S
O468 Sm441 2.681 . S
O468 C458 1.271 . S
O469 Sm441 2.464 . S
O469 C458 1.251 . S
O470 Sm441 2.396 . S
O470 C459 1.252 . S
O471 Sm440 2.408 . S
O471 C459 1.272 . S
H472 C444 0.930 . S
H473 C445 0.929 . S
H474 C447 0.930 . S
H475 C448 0.929 . S
H476 C453 0.930 . S
H477 C454 0.929 . S
H478 C456 0.930 . S
H479 C457 0.929 . S
C480 C481 1.363 . S
C480 C486 1.379 . S
C480 N488 1.356 . S
C481 C480 1.363 . S
C481 C487 1.363 . S
C482 C483 1.363 . S
C482 C487 1.379 . S
C482 N489 1.356 . S
C483 C482 1.363 . S
C483 C486 1.363 . S
N484 C486 1.356 . S
N484 H496 0.984 . S
N484 H497 0.985 . S
N485 C487 1.356 . S
N485 H490 0.984 . S
N485 H491 0.985 . S
C486 C480 1.379 . S
C486 C483 1.363 . S
C486 N484 1.356 . S
C487 C481 1.363 . S
C487 C482 1.379 . S
C487 N485 1.356 . S
N488 C480 1.356 . S
N488 H494 0.984 . S
N488 H495 0.984 . S
N489 C482 1.356 . S
N489 H492 0.984 . S
N489 H493 0.985 . S
H490 N485 0.984 . S
H491 N485 0.985 . S
H492 N489 0.984 . S
H493 N489 0.985 . S
H494 N488 0.984 . S
H495 N488 0.984 . S
H496 N484 0.984 . S
H497 N484 0.985 . S
C498 C499 1.363 . S
C498 C504 1.379 . S
C498 N506 1.356 . S
C499 C498 1.363 . S
C499 C505 1.363 . S
C500 C501 1.363 . S
C500 C505 1.379 . S
C500 N507 1.356 . S
C501 C500 1.363 . S
C501 C504 1.363 . S
N502 C504 1.356 . S
N502 H514 0.984 . S
N502 H515 0.985 . S
N503 C505 1.356 . S
N503 H508 0.984 . S
N503 H509 0.985 . S
C504 C498 1.379 . S
C504 C501 1.363 . S
C504 N502 1.356 . S
C505 C499 1.363 . S
C505 C500 1.379 . S
C505 N503 1.356 . S
N506 C498 1.356 . S
N506 H512 0.984 . S
N506 H513 0.984 . S
N507 C500 1.356 . S
N507 H510 0.984 . S
N507 H511 0.985 . S
H508 N503 0.984 . S
H509 N503 0.985 . S
H510 N507 0.984 . S
H511 N507 0.985 . S
H512 N506 0.984 . S
H513 N506 0.984 . S
H514 N502 0.984 . S
H515 N502 0.985 . S
C516 C517 1.363 . S
C516 C522 1.379 . S
C516 N524 1.356 . S
C517 C516 1.363 . S
C517 C523 1.363 . S
C518 C519 1.363 . S
C518 C523 1.379 . S
C518 N525 1.356 . S
C519 C518 1.363 . S
C519 C522 1.363 . S
N520 C522 1.356 . S
N520 H532 0.984 . S
N520 H533 0.985 . S
N521 C523 1.356 1_556 S
N521 H526 0.984 . S
N521 H527 0.985 . S
C522 C516 1.379 . S
C522 C519 1.363 . S
C522 N520 1.356 . S
C523 C517 1.363 . S
C523 C518 1.379 . S
C523 N521 1.356 1_554 S
N524 C516 1.356 . S
N524 H530 0.984 . S
N524 H531 0.984 . S
N525 C518 1.356 . S
N525 H528 0.984 . S
N525 H529 0.985 1_554 S
H526 N521 0.984 . S
H527 N521 0.985 . S
H528 N525 0.984 . S
H529 N525 0.985 1_556 S
H530 N524 0.984 . S
H531 N524 0.984 . S
H532 N520 0.984 . S
H533 N520 0.985 . S
C534 C535 1.363 . S
C534 C540 1.379 . S
C534 N542 1.356 . S
C535 C534 1.363 . S
C535 C541 1.363 . S
C536 C537 1.363 . S
C536 C541 1.379 . S
C536 N543 1.356 1_545 S
C537 C536 1.363 . S
C537 C540 1.363 . S
N538 C540 1.356 . S
N538 H550 0.984 . S
N538 H551 0.985 . S
N539 C541 1.356 . S
N539 H544 0.984 . S
N539 H545 0.985 1_545 S
C540 C534 1.379 . S
C540 C537 1.363 . S
C540 N538 1.356 . S
C541 C535 1.363 . S
C541 C536 1.379 . S
C541 N539 1.356 . S
N542 C534 1.356 . S
N542 H548 0.984 . S
N542 H549 0.984 . S
N543 C536 1.356 1_565 S
N543 H546 0.984 . S
N543 H547 0.985 . S
H544 N539 0.984 . S
H545 N539 0.985 1_565 S
H546 N543 0.984 . S
H547 N543 0.985 . S
H548 N542 0.984 . S
H549 N542 0.984 . S
H550 N538 0.984 . S
H551 N538 0.985 . S
C552 C553 1.363 . S
C552 C558 1.379 . S
C552 N560 1.356 . S
C553 C552 1.363 . S
C553 C559 1.363 . S
C554 C555 1.363 . S
C554 C559 1.379 . S
C554 N561 1.356 . S
C555 C554 1.363 . S
C555 C558 1.363 . S
N556 C558 1.356 . S
N556 H568 0.984 . S
N556 H569 0.985 . S
N557 C559 1.356 . S
N557 H562 0.984 . S
N557 H563 0.985 . S
C558 C552 1.379 . S
C558 C555 1.363 . S
C558 N556 1.356 . S
C559 C553 1.363 . S
C559 C554 1.379 . S
C559 N557 1.356 . S
N560 C552 1.356 . S
N560 H566 0.984 . S
N560 H567 0.984 . S
N561 C554 1.356 . S
N561 H564 0.984 . S
N561 H565 0.985 . S
H562 N557 0.984 . S
H563 N557 0.985 . S
H564 N561 0.984 . S
H565 N561 0.985 . S
H566 N560 0.984 . S
H567 N560 0.984 . S
H568 N556 0.984 . S
H569 N556 0.985 . S
C570 C571 1.363 . S
C570 C576 1.379 . S
C570 N578 1.356 . S
C571 C570 1.363 . S
C571 C577 1.363 . S
C572 C573 1.363 . S
C572 C577 1.379 . S
C572 N579 1.356 . S
C573 C572 1.363 . S
C573 C576 1.363 . S
N574 C576 1.356 . S
N574 H586 0.984 . S
N574 H587 0.985 . S
N575 C577 1.356 . S
N575 H580 0.984 . S
N575 H581 0.985 . S
C576 C570 1.379 . S
C576 C573 1.363 . S
C576 N574 1.356 . S
C577 C571 1.363 . S
C577 C572 1.379 . S
C577 N575 1.356 . S
N578 C570 1.356 . S
N578 H584 0.984 . S
N578 H585 0.984 . S
N579 C572 1.356 . S
N579 H582 0.984 . S
N579 H583 0.985 . S
H580 N575 0.984 . S
H581 N575 0.985 . S
H582 N579 0.984 . S
H583 N579 0.985 . S
H584 N578 0.984 . S
H585 N578 0.984 . S
H586 N574 0.984 . S
H587 N574 0.985 . S
C588 C589 1.363 . S
C588 C594 1.379 . S
C588 N596 1.356 . S
C589 C588 1.363 . S
C589 C595 1.363 . S
C590 C591 1.363 . S
C590 C595 1.379 . S
C590 N597 1.358 . S
C591 C590 1.363 . S
C591 C594 1.363 . S
N592 C594 1.356 . S
N592 H604 0.984 . S
N592 H605 0.985 . S
N593 C595 1.356 . S
N593 H598 0.984 . S
N593 H599 0.985 1_556 S
C594 C588 1.379 . S
C594 C591 1.363 . S
C594 N592 1.356 . S
C595 C589 1.363 . S
C595 C590 1.379 . S
C595 N593 1.356 . S
N596 C588 1.356 . S
N596 H602 0.984 . S
N596 H603 0.984 . S
N597 C590 1.358 . S
N597 H600 0.985 . S
N597 H601 0.983 1_556 S
H598 N593 0.984 . S
H599 N593 0.985 1_554 S
H600 N597 0.985 . S
H601 N597 0.983 1_554 S
H602 N596 0.984 . S
H603 N596 0.984 . S
H604 N592 0.984 . S
H605 N592 0.985 . S
C606 C607 1.363 . S
C606 C612 1.379 . S
C606 N614 1.356 . S
C607 C606 1.363 . S
C607 C613 1.363 . S
C608 C609 1.363 . S
C608 C613 1.379 . S
C608 N615 1.356 . S
C609 C608 1.363 . S
C609 C612 1.363 . S
N610 C612 1.356 . S
N610 H622 0.984 . S
N610 H623 0.985 . S
N611 C613 1.356 . S
N611 H616 0.984 . S
N611 H617 0.985 . S
C612 C606 1.379 . S
C612 C609 1.363 . S
C612 N610 1.356 . S
C613 C607 1.363 . S
C613 C608 1.379 . S
C613 N611 1.356 . S
N614 C606 1.356 . S
N614 H620 0.984 . S
N614 H621 0.984 . S
N615 C608 1.356 . S
N615 H618 0.984 . S
N615 H619 0.985 . S
H616 N611 0.984 . S
H617 N611 0.985 . S
H618 N615 0.984 . S
H619 N615 0.985 . S
H620 N614 0.984 . S
H621 N614 0.984 . S
H622 N610 0.984 . S
H623 N610 0.985 . S
C624 C625 1.363 . S
C624 C630 1.379 . S
C624 N632 1.356 . S
C625 C624 1.363 . S
C625 C631 1.363 . S
C626 C627 1.363 . S
C626 C631 1.379 . S
C626 N633 1.356 . S
C627 C626 1.363 . S
C627 C630 1.363 . S
N628 C630 1.356 . S
N628 H640 0.984 . S
N628 H641 0.985 . S
N629 C631 1.356 . S
N629 H634 0.984 . S
N629 H635 0.985 . S
C630 C624 1.379 . S
C630 C627 1.363 . S
C630 N628 1.356 . S
C631 C625 1.363 . S
C631 C626 1.379 . S
C631 N629 1.356 . S
N632 C624 1.356 . S
N632 H638 0.984 . S
N632 H639 0.984 . S
N633 C626 1.356 . S
N633 H636 0.984 . S
N633 H637 0.985 . S
H634 N629 0.984 . S
H635 N629 0.985 . S
H636 N633 0.984 . S
H637 N633 0.985 . S
H638 N632 0.984 . S
H639 N632 0.984 . S
H640 N628 0.984 . S
H641 N628 0.985 . S
C642 C643 1.363 . S
C642 C648 1.379 . S
C642 N650 1.356 . S
C643 C642 1.363 . S
C643 C649 1.363 . S
C644 C645 1.363 . S
C644 C649 1.379 . S
C644 N651 1.356 . S
C645 C644 1.363 . S
C645 C648 1.363 . S
N646 C648 1.356 . S
N646 H658 0.984 . S
N646 H659 0.985 . S
N647 C649 1.356 . S
N647 H652 0.984 . S
N647 H653 0.985 1_455 S
C648 C642 1.379 . S
C648 C645 1.363 . S
C648 N646 1.356 . S
C649 C643 1.363 . S
C649 C644 1.379 . S
C649 N647 1.356 . S
N650 C642 1.356 . S
N650 H656 0.984 . S
N650 H657 0.984 . S
N651 C644 1.356 . S
N651 H654 0.984 . S
N651 H655 0.985 1_455 S
H652 N647 0.984 . S
H653 N647 0.985 1_655 S
H654 N651 0.984 . S
H655 N651 0.985 1_655 S
H656 N650 0.984 . S
H657 N650 0.984 . S
H658 N646 0.984 . S
H659 N646 0.985 . S
C660 C661 1.363 . S
C660 C666 1.379 . S
C660 N668 1.356 . S
C661 C660 1.363 . S
C661 C667 1.363 . S
C662 C663 1.363 . S
C662 C667 1.379 . S
C662 N669 1.356 . S
C663 C662 1.363 . S
C663 C666 1.363 . S
N664 C666 1.356 . S
N664 H676 0.984 . S
N664 H677 0.985 . S
N665 C667 1.356 . S
N665 H670 0.984 . S
N665 H671 0.985 . S
C666 C660 1.379 . S
C666 C663 1.363 . S
C666 N664 1.356 . S
C667 C661 1.363 . S
C667 C662 1.379 . S
C667 N665 1.356 . S
N668 C660 1.356 . S
N668 H674 0.984 . S
N668 H675 0.984 . S
N669 C662 1.356 . S
N669 H672 0.984 . S
N669 H673 0.985 . S
H670 N665 0.984 . S
H671 N665 0.985 . S
H672 N669 0.984 . S
H673 N669 0.985 . S
H674 N668 0.984 . S
H675 N668 0.984 . S
H676 N664 0.984 . S
H677 N664 0.985 . S
C678 C679 1.363 . S
C678 C684 1.379 . S
C678 N686 1.356 . S
C679 C678 1.363 . S
C679 C685 1.363 . S
C680 C681 1.363 . S
C680 C685 1.379 . S
C680 N687 1.356 . S
C681 C680 1.363 . S
C681 C684 1.363 . S
N682 C684 1.356 . S
N682 H694 0.984 . S
N682 H695 0.985 . S
N683 C685 1.356 . S
N683 H688 0.984 . S
N683 H689 0.985 . S
C684 C678 1.379 . S
C684 C681 1.363 . S
C684 N682 1.356 . S
C685 C679 1.363 . S
C685 C680 1.379 . S
C685 N683 1.356 . S
N686 C678 1.356 . S
N686 H692 0.984 . S
N686 H693 0.984 . S
N687 C680 1.356 . S
N687 H690 0.984 . S
N687 H691 0.985 . S
H688 N683 0.984 . S
H689 N683 0.985 . S
H690 N687 0.984 . S
H691 N687 0.985 . S
H692 N686 0.984 . S
H693 N686 0.984 . S
H694 N682 0.984 . S
H695 N682 0.985 . S
C696 C697 1.363 . S
C696 C702 1.379 . S
C696 N704 1.356 . S
C697 C696 1.363 . S
C697 C703 1.363 . S
C698 C699 1.363 . S
C698 C703 1.379 . S
C698 N705 1.356 . S
C699 C698 1.363 . S
C699 C702 1.363 . S
N700 C702 1.356 . S
N700 H712 0.984 . S
N700 H713 0.985 . S
N701 C703 1.356 . S
N701 H706 0.984 . S
N701 H707 0.985 . S
C702 C696 1.379 . S
C702 C699 1.363 . S
C702 N700 1.356 . S
C703 C697 1.363 . S
C703 C698 1.379 . S
C703 N701 1.356 . S
N704 C696 1.356 . S
N704 H710 0.984 . S
N704 H711 0.984 . S
N705 C698 1.356 . S
N705 H708 0.984 . S
N705 H709 0.985 . S
H706 N701 0.984 . S
H707 N701 0.985 . S
H708 N705 0.984 . S
H709 N705 0.985 . S
H710 N704 0.984 . S
H711 N704 0.984 . S
H712 N700 0.984 . S
H713 N700 0.985 . S
C714 C715 1.363 . S
C714 C720 1.379 . S
C714 N722 1.356 . S
C715 C714 1.363 . S
C715 C721 1.363 . S
C716 C717 1.363 . S
C716 C721 1.379 . S
C716 N723 1.356 . S
C717 C716 1.363 . S
C717 C720 1.363 . S
N718 C720 1.356 . S
N718 H730 0.984 1_565 S
N718 H731 0.985 . S
N719 C721 1.356 . S
N719 H724 0.984 . S
N719 H725 0.985 . S
C720 C714 1.379 . S
C720 C717 1.363 . S
C720 N718 1.356 . S
C721 C715 1.363 . S
C721 C716 1.379 . S
C721 N719 1.356 . S
N722 C714 1.356 . S
N722 H728 0.984 . S
N722 H729 0.984 . S
N723 C716 1.356 . S
N723 H726 0.984 . S
N723 H727 0.985 . S
H724 N719 0.984 . S
H725 N719 0.985 . S
H726 N723 0.984 . S
H727 N723 0.985 . S
H728 N722 0.984 . S
H729 N722 0.984 . S
H730 N718 0.984 1_545 S
H731 N718 0.985 . S
C732 C733 1.363 . S
C732 C738 1.379 . S
C732 N740 1.356 . S
C733 C732 1.363 . S
C733 C739 1.363 . S
C734 C735 1.363 . S
C734 C739 1.379 . S
C734 N741 1.356 . S
C735 C734 1.363 . S
C735 C738 1.363 . S
N736 C738 1.356 . S
N736 H748 0.984 . S
N736 H749 0.985 . S
N737 C739 1.356 . S
N737 H742 0.984 . S
N737 H743 0.985 . S
C738 C732 1.379 . S
C738 C735 1.363 . S
C738 N736 1.356 . S
C739 C733 1.363 . S
C739 C734 1.379 . S
C739 N737 1.356 . S
N740 C732 1.356 . S
N740 H746 0.984 . S
N740 H747 0.984 . S
N741 C734 1.356 . S
N741 H744 0.984 . S
N741 H745 0.985 . S
H742 N737 0.984 . S
H743 N737 0.985 . S
H744 N741 0.984 . S
H745 N741 0.985 . S
H746 N740 0.984 . S
H747 N740 0.984 . S
H748 N736 0.984 . S
H749 N736 0.985 . S
C750 C751 1.363 . S
C750 C756 1.379 1_554 S
C750 N758 1.356 . S
C751 C750 1.363 . S
C751 C757 1.363 1_554 S
C752 C753 1.363 . S
C752 C757 1.379 . S
C752 N759 1.356 . S
C753 C752 1.363 . S
C753 C756 1.363 . S
N754 C756 1.356 1_565 S
N754 H766 0.984 1_556 S
N754 H767 0.985 . S
N755 C757 1.356 . S
N755 H760 0.984 1_556 S
N755 H761 0.985 . S
C756 C750 1.379 1_556 S
C756 C753 1.363 . S
C756 N754 1.356 1_545 S
C757 C751 1.363 1_556 S
C757 C752 1.379 . S
C757 N755 1.356 . S
N758 C750 1.356 . S
N758 H764 0.984 . S
N758 H765 0.984 . S
N759 C752 1.356 . S
N759 H762 0.984 . S
N759 H763 0.985 . S
H760 N755 0.984 1_554 S
H761 N755 0.985 . S
H762 N759 0.984 . S
H763 N759 0.985 . S
H764 N758 0.984 . S
H765 N758 0.984 . S
H766 N754 0.984 1_554 S
H767 N754 0.985 . S
C768 C769 1.363 . S
C768 C774 1.379 . S
C768 N776 1.356 . S
C769 C768 1.363 . S
C769 C775 1.363 . S
C770 C771 1.363 . S
C770 C775 1.379 . S
C770 N777 1.356 . S
C771 C770 1.363 . S
C771 C774 1.363 . S
N772 C774 1.356 . S
N772 H784 0.984 1_545 S
N772 H785 0.985 . S
N773 C775 1.356 . S
N773 H778 0.984 . S
N773 H779 0.985 . S
C774 C768 1.379 . S
C774 C771 1.363 . S
C774 N772 1.356 . S
C775 C769 1.363 . S
C775 C770 1.379 . S
C775 N773 1.356 . S
N776 C768 1.356 . S
N776 H782 0.984 . S
N776 H783 0.984 . S
N777 C770 1.356 . S
N777 H780 0.984 . S
N777 H781 0.985 . S
H778 N773 0.984 . S
H779 N773 0.985 . S
H780 N777 0.984 . S
H781 N777 0.985 . S
H782 N776 0.984 . S
H783 N776 0.984 . S
H784 N772 0.984 1_565 S
H785 N772 0.985 . S
C786 C787 1.363 1_556 S
C786 C792 1.379 . S
C786 N794 1.356 . S
C787 C786 1.363 1_554 S
C787 C793 1.363 1_554 S
C788 C789 1.363 . S
C788 C793 1.379 . S
C788 N795 1.356 . S
C789 C788 1.363 . S
C789 C792 1.363 . S
N790 C792 1.356 . S
N790 H802 0.984 . S
N790 H803 0.985 . S
N791 C793 1.356 1_554 S
N791 H796 0.984 . S
N791 H797 0.985 . S
C792 C786 1.379 . S
C792 C789 1.363 . S
C792 N790 1.356 . S
C793 C787 1.363 1_556 S
C793 C788 1.379 . S
C793 N791 1.356 1_556 S
N794 C786 1.356 . S
N794 H800 0.984 . S
N794 H801 0.984 1_556 S
N795 C788 1.356 . S
N795 H798 0.984 . S
N795 H799 0.985 . S
H796 N791 0.984 . S
H797 N791 0.985 . S
H798 N795 0.984 . S
H799 N795 0.985 . S
H800 N794 0.984 . S
H801 N794 0.984 1_554 S
H802 N790 0.984 . S
H803 N790 0.985 . S
C804 C805 1.363 . S
C804 C810 1.379 . S
C804 N812 1.356 . S
C805 C804 1.363 . S
C805 C811 1.363 . S
C806 C807 1.363 . S
C806 C811 1.379 . S
C806 N813 1.356 . S
C807 C806 1.363 . S
C807 C810 1.363 . S
N808 C810 1.356 . S
N808 H820 0.984 . S
N808 H821 0.985 . S
N809 C811 1.356 . S
N809 H814 0.984 . S
N809 H815 0.985 . S
C810 C804 1.379 . S
C810 C807 1.363 . S
C810 N808 1.356 . S
C811 C805 1.363 . S
C811 C806 1.379 . S
C811 N809 1.356 . S
N812 C804 1.356 . S
N812 H818 0.984 . S
N812 H819 0.984 . S
N813 C806 1.356 . S
N813 H816 0.984 . S
N813 H817 0.985 . S
H814 N809 0.984 . S
H815 N809 0.985 . S
H816 N813 0.984 . S
H817 N813 0.985 . S
H818 N812 0.984 . S
H819 N812 0.984 . S
H820 N808 0.984 . S
H821 N808 0.985 . S
C822 C823 1.363 . S
C822 C828 1.379 . S
C822 N830 1.356 . S
C823 C822 1.363 . S
C823 C829 1.363 . S
C824 C825 1.363 . S
C824 C829 1.379 . S
C824 N831 1.356 . S
C825 C824 1.363 . S
C825 C828 1.363 . S
N826 C828 1.356 . S
N826 H838 0.984 . S
N826 H839 0.985 . S
N827 C829 1.356 . S
N827 H832 0.984 . S
N827 H833 0.985 . S
C828 C822 1.379 . S
C828 C825 1.363 . S
C828 N826 1.356 . S
C829 C823 1.363 . S
C829 C824 1.379 . S
C829 N827 1.356 . S
N830 C822 1.356 . S
N830 H836 0.984 . S
N830 H837 0.984 . S
N831 C824 1.356 . S
N831 H834 0.984 . S
N831 H835 0.985 . S
H832 N827 0.984 . S
H833 N827 0.985 . S
H834 N831 0.984 . S
H835 N831 0.985 . S
H836 N830 0.984 . S
H837 N830 0.984 . S
H838 N826 0.984 . S
H839 N826 0.985 . S
C840 C841 1.363 . S
C840 C846 1.379 . S
C840 N848 1.356 . S
C841 C840 1.363 . S
C841 C847 1.363 . S
C842 C843 1.363 . S
C842 C847 1.379 . S
C842 N849 1.356 . S
C843 C842 1.363 . S
C843 C846 1.363 . S
N844 C846 1.356 . S
N844 H856 0.984 . S
N844 H857 0.985 . S
N845 C847 1.356 . S
N845 H850 0.984 . S
N845 H851 0.985 . S
C846 C840 1.379 . S
C846 C843 1.363 . S
C846 N844 1.356 . S
C847 C841 1.363 . S
C847 C842 1.379 . S
C847 N845 1.356 . S
N848 C840 1.356 . S
N848 H854 0.984 . S
N848 H855 0.984 . S
N849 C842 1.356 . S
N849 H852 0.984 . S
N849 H853 0.985 . S
H850 N845 0.984 . S
H851 N845 0.985 . S
H852 N849 0.984 . S
H853 N849 0.985 . S
H854 N848 0.984 . S
H855 N848 0.984 . S
H856 N844 0.984 . S
H857 N844 0.985 . S
C858 C859 1.363 . S
C858 C864 1.379 . S
C858 N866 1.356 . S
C859 C858 1.363 . S
C859 C865 1.363 . S
C860 C861 1.363 1_545 S
C860 C865 1.379 . S
C860 N867 1.356 1_545 S
C861 C860 1.363 1_565 S
C861 C864 1.363 1_565 S
N862 C864 1.356 1_565 S
N862 H874 0.984 1_465 S
N862 H875 0.981 1_455 S
N863 C865 1.356 . S
N863 H868 0.984 . S
N863 H869 0.985 . S
C864 C858 1.379 . S
C864 C861 1.363 1_545 S
C864 N862 1.356 1_545 S
C865 C859 1.363 . S
C865 C860 1.379 . S
C865 N863 1.356 . S
N866 C858 1.356 . S
N866 H872 0.984 . S
N866 H873 0.984 . S
N867 C860 1.356 1_565 S
N867 H870 0.984 . S
N867 H871 0.985 . S
H868 N863 0.984 . S
H869 N863 0.985 . S
H870 N867 0.984 . S
H871 N867 0.985 . S
H872 N866 0.984 . S
H873 N866 0.984 . S
H874 N862 0.984 1_645 S
H875 N862 0.981 1_655 S
C876 C877 1.363 . S
C876 C882 1.379 . S
C876 N884 1.356 . S
C877 C876 1.363 . S
C877 C883 1.363 . S
C878 C879 1.363 . S
C878 C883 1.379 . S
C878 N885 1.356 . S
C879 C878 1.363 . S
C879 C882 1.363 . S
N880 C882 1.356 . S
N880 H892 0.984 . S
N880 H893 0.985 . S
N881 C883 1.356 . S
N881 H886 0.984 . S
N881 H887 0.985 . S
C882 C876 1.379 . S
C882 C879 1.363 . S
C882 N880 1.356 . S
C883 C877 1.363 . S
C883 C878 1.379 . S
C883 N881 1.356 . S
N884 C876 1.356 . S
N884 H890 0.995 . S
N884 H891 0.984 . S
N885 C878 1.356 . S
N885 H888 0.984 . S
N885 H889 0.985 . S
H886 N881 0.984 . S
H887 N881 0.985 . S
H888 N885 0.984 . S
H889 N885 0.985 . S
H890 N884 0.995 . S
H891 N884 0.984 . S
H892 N880 0.984 . S
H893 N880 0.985 . S
C894 C895 1.363 . S
C894 C900 1.379 . S
C894 N902 1.356 . S
C895 C894 1.363 . S
C895 C901 1.363 . S
C896 C897 1.363 . S
C896 C901 1.379 1_565 S
C896 N903 1.356 . S
C897 C896 1.363 . S
C897 C900 1.363 1_565 S
N898 C900 1.356 1_565 S
N898 H910 0.984 1_565 S
N898 H911 0.985 . S
N899 C901 1.356 . S
N899 H904 0.984 . S
N899 H905 0.985 1_545 S
C900 C894 1.379 . S
C900 C897 1.363 1_545 S
C900 N898 1.356 1_545 S
C901 C895 1.363 . S
C901 C896 1.379 1_545 S
C901 N899 1.356 . S
N902 C894 1.356 . S
N902 H908 0.984 . S
N902 H909 0.984 . S
N903 C896 1.356 . S
N903 H906 0.984 . S
N903 H907 0.985 . S
H904 N899 0.984 . S
H905 N899 0.985 1_565 S
H906 N903 0.984 . S
H907 N903 0.985 . S
H908 N902 0.984 . S
H909 N902 0.984 . S
H910 N898 0.984 1_545 S
H911 N898 0.985 . S
C912 C913 1.363 . S
C912 C918 1.379 . S
C912 N920 1.356 . S
C913 C912 1.363 . S
C913 C919 1.363 . S
C914 C915 1.363 . S
C914 C919 1.379 . S
C914 N921 1.356 . S
C915 C914 1.363 . S
C915 C918 1.363 . S
N916 C918 1.356 . S
N916 H928 0.984 . S
N916 H929 0.985 . S
N917 C919 1.356 . S
N917 H922 0.984 . S
N917 H923 0.985 . S
C918 C912 1.379 . S
C918 C915 1.363 . S
C918 N916 1.356 . S
C919 C913 1.363 . S
C919 C914 1.379 . S
C919 N917 1.356 . S
N920 C912 1.356 . S
N920 H926 0.984 . S
N920 H927 0.984 . S
N921 C914 1.356 . S
N921 H924 0.984 . S
N921 H925 0.985 . S
H922 N917 0.984 . S
H923 N917 0.985 . S
H924 N921 0.984 . S
H925 N921 0.985 . S
H926 N920 0.984 . S
H927 N920 0.984 . S
H928 N916 0.984 . S
H929 N916 0.985 . S
C930 C931 1.363 . S
C930 C936 1.379 . S
C930 N938 1.356 . S
C931 C930 1.363 . S
C931 C937 1.363 . S
C932 C933 1.363 . S
C932 C937 1.379 . S
C932 N939 1.356 . S
C933 C932 1.363 . S
C933 C936 1.363 . S
N934 C936 1.356 . S
N934 H946 0.984 . S
N934 H947 0.985 . S
N935 C937 1.356 . S
N935 H940 0.984 . S
N935 H941 0.985 . S
C936 C930 1.379 . S
C936 C933 1.363 . S
C936 N934 1.356 . S
C937 C931 1.363 . S
C937 C932 1.379 . S
C937 N935 1.356 . S
N938 C930 1.356 . S
N938 H944 0.984 1_655 S
N938 H945 0.984 . S
N939 C932 1.356 . S
N939 H942 0.984 . S
N939 H943 0.985 . S
H940 N935 0.984 . S
H941 N935 0.985 . S
H942 N939 0.984 . S
H943 N939 0.985 . S
H944 N938 0.984 1_455 S
H945 N938 0.984 . S
H946 N934 0.984 . S
H947 N934 0.985 . S
C948 C949 1.363 . S
C948 C954 1.379 . S
C948 N956 1.356 . S
C949 C948 1.363 . S
C949 C955 1.363 . S
C950 C951 1.363 . S
C950 C955 1.379 . S
C950 N957 1.356 . S
C951 C950 1.363 . S
C951 C954 1.363 . S
N952 C954 1.356 . S
N952 H964 0.984 . S
N952 H965 0.985 . S
N953 C955 1.356 . S
N953 H958 0.984 . S
N953 H959 0.985 . S
C954 C948 1.379 . S
C954 C951 1.363 . S
C954 N952 1.356 . S
C955 C949 1.363 . S
C955 C950 1.379 . S
C955 N953 1.356 . S
N956 C948 1.356 . S
N956 H962 0.984 . S
N956 H963 0.984 . S
N957 C950 1.356 . S
N957 H960 0.984 . S
N957 H961 0.985 . S
H958 N953 0.984 . S
H959 N953 0.985 . S
H960 N957 0.984 . S
H961 N957 0.985 . S
H962 N956 0.984 . S
H963 N956 0.984 . S
H964 N952 0.984 . S
H965 N952 0.985 . S
C966 C967 1.363 . S
C966 C972 1.379 . S
C966 N974 1.356 . S
C967 C966 1.363 . S
C967 C973 1.363 . S
C968 C969 1.363 . S
C968 C973 1.379 . S
C968 N975 1.356 . S
C969 C968 1.363 . S
C969 C972 1.363 . S
N970 C972 1.356 . S
N970 H982 0.984 . S
N970 H983 0.985 . S
N971 C973 1.356 . S
N971 H976 0.984 . S
N971 H977 0.985 . S
C972 C966 1.379 . S
C972 C969 1.363 . S
C972 N970 1.356 . S
C973 C967 1.363 . S
C973 C968 1.379 . S
C973 N971 1.356 . S
N974 C966 1.356 . S
N974 H980 0.984 . S
N974 H981 0.984 . S
N975 C968 1.356 . S
N975 H978 0.984 . S
N975 H979 0.985 . S
H976 N971 0.984 . S
H977 N971 0.985 . S
H978 N975 0.984 . S
H979 N975 0.985 . S
H980 N974 0.984 . S
H981 N974 0.984 . S
H982 N970 0.984 . S
H983 N970 0.985 . S
C984 C985 1.363 . S
C984 C990 1.379 . S
C984 N992 1.356 . S
C985 C984 1.363 . S
C985 C991 1.363 . S
C986 C987 1.363 . S
C986 C991 1.379 . S
C986 N993 1.356 . S
C987 C986 1.363 . S
C987 C990 1.363 . S
N988 C990 1.356 . S
N988 H1000 0.984 . S
N988 H1001 0.985 . S
N989 C991 1.356 . S
N989 H994 0.984 . S
N989 H995 0.985 . S
C990 C984 1.379 . S
C990 C987 1.363 . S
C990 N988 1.356 . S
C991 C985 1.363 . S
C991 C986 1.379 . S
C991 N989 1.356 . S
N992 C984 1.356 . S
N992 H998 0.984 . S
N992 H999 0.984 . S
N993 C986 1.356 . S
N993 H996 0.984 . S
N993 H997 0.985 . S
H994 N989 0.984 . S
H995 N989 0.985 . S
H996 N993 0.984 . S
H997 N993 0.985 . S
H998 N992 0.984 . S
H999 N992 0.984 . S
H1000 N988 0.984 . S
H1001 N988 0.985 . S
C1002 C1003 1.363 . S
C1002 C1008 1.379 . S
C1002 N1010 1.356 . S
C1003 C1002 1.363 . S
C1003 C1009 1.363 . S
C1004 C1005 1.363 . S
C1004 C1009 1.379 . S
C1004 N1011 1.356 . S
C1005 C1004 1.363 . S
C1005 C1008 1.363 . S
N1006 C1008 1.356 . S
N1006 H1018 0.984 . S
N1006 H1019 0.985 . S
N1007 C1009 1.356 . S
N1007 H1012 0.984 . S
N1007 H1013 0.985 . S
C1008 C1002 1.379 . S
C1008 C1005 1.363 . S
C1008 N1006 1.356 . S
C1009 C1003 1.363 . S
C1009 C1004 1.379 . S
C1009 N1007 1.356 . S
N1010 C1002 1.356 . S
N1010 H1016 0.984 . S
N1010 H1017 0.984 . S
N1011 C1004 1.356 . S
N1011 H1014 0.984 . S
N1011 H1015 0.985 . S
H1012 N1007 0.984 . S
H1013 N1007 0.985 . S
H1014 N1011 0.984 . S
H1015 N1011 0.985 . S
H1016 N1010 0.984 . S
H1017 N1010 0.984 . S
H1018 N1006 0.984 . S
H1019 N1006 0.985 . S
C1020 C1021 1.363 . S
C1020 C1026 1.379 1_455 S
C1020 N1028 1.356 1_554 S
C1021 C1020 1.363 . S
C1021 C1027 1.363 . S
C1022 C1023 1.363 . S
C1022 C1027 1.379 1_655 S
C1022 N1029 1.356 . S
C1023 C1022 1.363 . S
C1023 C1026 1.363 . S
N1024 C1026 1.356 1_556 S
N1024 H1036 0.984 . S
N1024 H1037 0.985 . S
N1025 C1027 1.356 . S
N1025 H1030 0.984 . S
N1025 H1031 0.985 . S
C1026 C1020 1.379 1_655 S
C1026 C1023 1.363 . S
C1026 N1024 1.356 1_554 S
C1027 C1021 1.363 . S
C1027 C1022 1.379 1_455 S
C1027 N1025 1.356 . S
N1028 C1020 1.356 1_556 S
N1028 H1034 0.984 . S
N1028 H1035 0.984 1_556 S
N1029 C1022 1.356 . S
N1029 H1032 0.984 . S
N1029 H1033 0.985 . S
H1030 N1025 0.984 . S
H1031 N1025 0.985 . S
H1032 N1029 0.984 . S
H1033 N1029 0.985 . S
H1034 N1028 0.984 . S
H1035 N1028 0.984 1_554 S
H1036 N1024 0.984 . S
H1037 N1024 0.985 . S
C1038 C1039 1.363 . S
C1038 C1044 1.379 . S
C1038 N1046 1.356 . S
C1039 C1038 1.363 . S
C1039 C1045 1.363 . S
C1040 C1041 1.363 . S
C1040 C1045 1.379 . S
C1040 N1047 1.356 . S
C1041 C1040 1.363 . S
C1041 C1044 1.363 . S
N1042 C1044 1.356 . S
N1042 H1054 0.984 . S
N1042 H1055 0.985 . S
N1043 C1045 1.356 . S
N1043 H1048 0.984 . S
N1043 H1049 0.985 . S
C1044 C1038 1.379 . S
C1044 C1041 1.363 . S
C1044 N1042 1.356 . S
C1045 C1039 1.363 . S
C1045 C1040 1.379 . S
C1045 N1043 1.356 . S
N1046 C1038 1.356 . S
N1046 H1052 0.984 . S
N1046 H1053 0.984 . S
N1047 C1040 1.356 . S
N1047 H1050 0.984 . S
N1047 H1051 0.985 . S
H1048 N1043 0.984 . S
H1049 N1043 0.985 . S
H1050 N1047 0.984 . S
H1051 N1047 0.985 . S
H1052 N1046 0.984 . S
H1053 N1046 0.984 . S
H1054 N1042 0.984 . S
H1055 N1042 0.985 . S
C1056 C1057 1.363 . S
C1056 C1062 1.379 . S
C1056 N1064 1.356 . S
C1057 C1056 1.363 . S
C1057 C1063 1.363 . S
C1058 C1059 1.363 . S
C1058 C1063 1.379 . S
C1058 N1065 1.356 . S
C1059 C1058 1.363 . S
C1059 C1062 1.363 . S
N1060 C1062 1.356 . S
N1060 H1072 0.984 . S
N1060 H1073 0.985 . S
N1061 C1063 1.356 . S
N1061 H1066 0.984 . S
N1061 H1067 0.985 . S
C1062 C1056 1.379 . S
C1062 C1059 1.363 . S
C1062 N1060 1.356 . S
C1063 C1057 1.363 . S
C1063 C1058 1.379 . S
C1063 N1061 1.356 . S
N1064 C1056 1.356 . S
N1064 H1070 0.984 . S
N1064 H1071 0.984 . S
N1065 C1058 1.356 . S
N1065 H1068 0.984 . S
N1065 H1069 0.985 . S
H1066 N1061 0.984 . S
H1067 N1061 0.985 . S
H1068 N1065 0.984 . S
H1069 N1065 0.985 . S
H1070 N1064 0.984 . S
H1071 N1064 0.984 . S
H1072 N1060 0.984 . S
H1073 N1060 0.985 . S
C1074 C1075 1.363 . S
C1074 C1080 1.379 . S
C1074 N1082 1.356 . S
C1075 C1074 1.363 . S
C1075 C1081 1.363 . S
C1076 C1077 1.363 . S
C1076 C1081 1.379 . S
C1076 N1083 1.356 . S
C1077 C1076 1.363 . S
C1077 C1080 1.363 . S
N1078 C1080 1.356 . S
N1078 H1090 0.984 . S
N1078 H1091 0.985 . S
N1079 C1081 1.356 1_655 S
N1079 H1084 0.985 . S
N1079 H1085 0.985 . S
C1080 C1074 1.379 . S
C1080 C1077 1.363 . S
C1080 N1078 1.356 . S
C1081 C1075 1.363 . S
C1081 C1076 1.379 . S
C1081 N1079 1.356 1_455 S
N1082 C1074 1.356 . S
N1082 H1088 0.984 . S
N1082 H1089 0.984 . S
N1083 C1076 1.356 . S
N1083 H1086 0.984 . S
N1083 H1087 0.985 1_455 S
H1084 N1079 0.985 . S
H1085 N1079 0.985 . S
H1086 N1083 0.984 . S
H1087 N1083 0.985 1_655 S
H1088 N1082 0.984 . S
H1089 N1082 0.984 . S
H1090 N1078 0.984 . S
H1091 N1078 0.985 . S
C1092 C1093 1.363 . S
C1092 C1098 1.379 . S
C1092 N1100 1.356 1_556 S
C1093 C1092 1.363 . S
C1093 C1099 1.363 . S
C1094 C1095 1.363 . S
C1094 C1099 1.379 . S
C1094 N1101 1.356 . S
C1095 C1094 1.363 . S
C1095 C1098 1.363 . S
N1096 C1098 1.356 . S
N1096 H1108 0.984 . S
N1096 H1109 0.985 . S
N1097 C1099 1.356 . S
N1097 H1102 0.984 . S
N1097 H1103 0.985 . S
C1098 C1092 1.379 . S
C1098 C1095 1.363 . S
C1098 N1096 1.356 . S
C1099 C1093 1.363 . S
C1099 C1094 1.379 . S
C1099 N1097 1.356 . S
N1100 C1092 1.356 1_554 S
N1100 H1106 0.984 . S
N1100 H1107 0.984 . S
N1101 C1094 1.356 . S
N1101 H1104 0.984 . S
N1101 H1105 0.985 . S
H1102 N1097 0.984 . S
H1103 N1097 0.985 . S
H1104 N1101 0.984 . S
H1105 N1101 0.985 . S
H1106 N1100 0.984 . S
H1107 N1100 0.984 . S
H1108 N1096 0.984 . S
H1109 N1096 0.985 . S
C1110 C1111 1.363 . S
C1110 C1116 1.379 . S
C1110 N1118 1.356 . S
C1111 C1110 1.363 . S
C1111 C1117 1.363 . S
C1112 C1113 1.367 . S
C1112 C1117 1.366 1_455 S
C1112 N1119 1.368 . S
C1113 C1112 1.367 . S
C1113 C1116 1.363 1_455 S
N1114 C1116 1.356 1_455 S
N1114 H1126 0.984 1_455 S
N1114 H1127 0.985 . S
N1115 C1117 1.356 . S
N1115 H1120 0.984 . S
N1115 H1121 0.985 . S
C1116 C1110 1.379 . S
C1116 C1113 1.363 1_655 S
C1116 N1114 1.356 1_655 S
C1117 C1111 1.363 . S
C1117 C1112 1.366 1_655 S
C1117 N1115 1.356 . S
N1118 C1110 1.356 . S
N1118 H1124 0.984 . S
N1118 H1125 0.984 . S
N1119 C1112 1.368 . S
N1119 H1122 0.984 . S
N1119 H1123 0.985 . S
H1120 N1115 0.984 . S
H1121 N1115 0.985 . S
H1122 N1119 0.984 . S
H1123 N1119 0.985 . S
H1124 N1118 0.984 . S
H1125 N1118 0.984 . S
H1126 N1114 0.984 1_655 S
H1127 N1114 0.985 . S
C481 C18 1.326 . S
C483 C458 1.322 . S
C499 C379 1.832 . S
C501 C58 1.975 . S
C517 C99 1.449 . S
C519 C338 1.548 . S
C535 C138 2.254 . S
C537 C418 2.237 . S
C553 C178 1.847 . S
C555 C419 1.758 . S
C571 C219 1.521 . S
C573 C459 1.567 . S
C589 C378 2.124 . S
C591 C258 2.126 . S
C607 C299 1.679 . S
C609 C339 1.765 . S
C625 C139 1.747 . S
C627 C179 1.801 . S
C643 C19 1.729 . S
C645 C218 1.863 . S
C661 C59 1.641 . S
C663 C259 1.654 . S
C679 C298 2.058 . S
C681 C98 2.058 . S
C697 C6 1.719 . S
C699 C329 1.565 . S
C715 C46 1.780 . S
C717 C409 1.674 . S
C733 C449 2.168 . S
C735 C95 2.202 . S
C751 C126 1.543 . S
C753 C370 1.504 . S
C769 C166 1.306 . S
C771 C369 1.225 . S
C787 C330 2.251 . S
C789 C215 2.107 . S
C805 C410 1.368 . S
C807 C246 1.379 . S
C823 C450 2.741 . S
C825 C295 2.597 . S
C841 C10 2.842 . S
C843 C135 2.698 . S
C859 C15 2.145 . S
C861 C50 2.266 . S
C877 C55 2.438 . S
C879 C89 2.399 . S
C895 C130 1.681 . S
C897 C86 1.725 . S
C913 C206 1.525 . S
C915 C170 1.489 . S
C931 C209 1.554 . S
C933 C255 1.620 . S
C949 C250 1.540 . S
C951 C286 1.574 . S
C967 C175 1.212 . S
C969 C289 1.167 . S
C985 C335 1.224 . S
C987 C129 1.159 . S
C1003 C210 1.869 . S
C1005 C375 1.779 . S
C1021 C326 1.482 . S
C1023 C249 1.387 . S
C1039 C406 1.714 . S
C1041 C290 1.685 . S
C1057 C169 1.361 . S
C1059 C446 1.472 . S
C1075 C455 1.917 . S
C1077 C49 1.849 . S
C1093 C90 1.579 . S
C1095 C366 1.611 . S
C1111 C415 1.978 . S
C1113 C9 1.942 . S
