# Generated by pormake.
# Topology smk, (6)-cn, num edge types: 1
# Building blocks:
#     Node 0, Type 0, BuildingBlock: IZENUY_clean_sbu_0, # of connection points: 6
#     Node 1, Type 0, BuildingBlock: IZENUY_clean_sbu_0, # of connection points: 6
#     Node 2, Type 0, BuildingBlock: IZENUY_clean_sbu_0, # of connection points: 6
#     Node 3, Type 0, BuildingBlock: IZENUY_clean_sbu_0, # of connection points: 6
#     Node 4, Type 0, BuildingBlock: IZENUY_clean_sbu_0, # of connection points: 6
#     Node 5, Type 0, BuildingBlock: IZENUY_clean_sbu_0, # of connection points: 6
#     Edge 6, Type (0, 0), BuildingBlock: EZIPEK_clean_linker_0, # of connection points: 2
#     Edge 7, Type (0, 0), BuildingBlock: EZIPEK_clean_linker_0, # of connection points: 2
#     Edge 8, Type (0, 0), BuildingBlock: EZIPEK_clean_linker_0, # of connection points: 2
#     Edge 9, Type (0, 0), BuildingBlock: EZIPEK_clean_linker_0, # of connection points: 2
#     Edge 10, Type (0, 0), BuildingBlock: EZIPEK_clean_linker_0, # of connection points: 2
#     Edge 11, Type (0, 0), BuildingBlock: EZIPEK_clean_linker_0, # of connection points: 2
#     Edge 12, Type (0, 0), BuildingBlock: EZIPEK_clean_linker_0, # of connection points: 2
#     Edge 13, Type (0, 0), BuildingBlock: EZIPEK_clean_linker_0, # of connection points: 2
#     Edge 14, Type (0, 0), BuildingBlock: EZIPEK_clean_linker_0, # of connection points: 2
#     Edge 15, Type (0, 0), BuildingBlock: EZIPEK_clean_linker_0, # of connection points: 2
#     Edge 16, Type (0, 0), BuildingBlock: EZIPEK_clean_linker_0, # of connection points: 2
#     Edge 17, Type (0, 0), BuildingBlock: EZIPEK_clean_linker_0, # of connection points: 2
#     Edge 18, Type (0, 0), BuildingBlock: EZIPEK_clean_linker_0, # of connection points: 2
#     Edge 19, Type (0, 0), BuildingBlock: EZIPEK_clean_linker_0, # of connection points: 2
#     Edge 20, Type (0, 0), BuildingBlock: EZIPEK_clean_linker_0, # of connection points: 2
#     Edge 21, Type (0, 0), BuildingBlock: EZIPEK_clean_linker_0, # of connection points: 2
#     Edge 22, Type (0, 0), BuildingBlock: EZIPEK_clean_linker_0, # of connection points: 2
#     Edge 23, Type (0, 0), BuildingBlock: EZIPEK_clean_linker_0, # of connection points: 2
# Relax obj value: 0.171
# Max RMSD: 0.207
# Mean RMSD: 0.207
data_MOF--net-smk--node1-IZENUY_clean_sbu_0--edge1-EZIPEK_clean_linker_0
_symmetry_space_group_name_H-M    P1
_symmetry_Int_Tables_number       1
_symmetry_cell_setting            triclinic
loop_
_symmetry_equiv_pos_as_xyz
'x, y, z'
_cell_length_a     31.363337
_cell_length_b     31.376789
_cell_length_c     11.227624
_cell_angle_alpha  89.905271
_cell_angle_beta   90.030084
_cell_angle_gamma 120.0093
loop_
_atom_site_label
_atom_site_type_symbol
_atom_site_fract_x
_atom_site_fract_y
_atom_site_fract_z
_atom_type_partial_charge
Fe0 Fe 0.48631 0.27806 0.70423 0.0
Fe1 Fe 0.39129 0.19872 0.58589 0.0
O2 O 0.4565 0.23169 0.5951 0.0
Fe3 Fe 0.49259 0.21887 0.49579 0.0
O4 O 0.51991 0.20251 0.61691 0.0
O5 O 0.53923 0.26795 0.72147 0.0
O6 O 0.45721 0.23458 0.82262 0.0
C7 C 0.41142 0.20943 0.83715 0.0
C8 C 0.54716 0.32357 0.51878 0.0
O9 O 0.38181 0.19934 0.75014 0.0
C10 C 0.42283 0.21254 0.34085 0.0
O11 O 0.43875 0.29644 0.70933 0.0
O12 O 0.38906 0.25489 0.56288 0.0
O13 O 0.54465 0.28309 0.4913 0.0
O14 O 0.51751 0.3248 0.59211 0.0
C15 C 0.40924 0.12357 0.54146 0.0
O16 O 0.38988 0.19224 0.421 0.0
O17 O 0.46786 0.23383 0.36721 0.0
C18 C 0.40467 0.28943 0.63743 0.0
O19 O 0.3879 0.1397 0.60712 0.0
O20 O 0.44716 0.15258 0.48217 0.0
C21 C 0.5432 0.23023 0.70265 0.0
Fe22 Fe 0.2231 0.47567 0.86768 0.0
Fe23 Fe 0.20383 0.37785 0.76104 0.0
O24 O 0.23721 0.44308 0.76095 0.0
Fe25 Fe 0.28411 0.4757 0.65393 0.0
O26 O 0.33068 0.50699 0.76737 0.0
O27 O 0.28689 0.52872 0.87718 0.0
O28 O 0.23818 0.4479 0.98947 0.0
C29 C 0.21582 0.40223 1.00867 0.0
C30 C 0.23544 0.53222 0.67407 0.0
O31 O 0.19418 0.37179 0.92477 0.0
C32 C 0.21763 0.40231 0.51273 0.0
O33 O 0.15698 0.42913 0.87703 0.0
O34 O 0.14597 0.37656 0.73712 0.0
O35 O 0.27157 0.52725 0.64134 0.0
O36 O 0.20633 0.50514 0.75361 0.0
C37 C 0.29595 0.39336 0.7149 0.0
O38 O 0.20704 0.37163 0.59706 0.0
O39 O 0.24205 0.44776 0.53163 0.0
C40 C 0.12859 0.39665 0.80329 0.0
O41 O 0.25957 0.37494 0.78493 0.0
O42 O 0.30407 0.42924 0.64731 0.0
C43 C 0.32831 0.53438 0.84561 0.0
Fe44 Fe 0.83982 0.19782 0.95961 0.0
Fe45 Fe 0.8279 0.28285 0.85648 0.0
O46 O 0.81012 0.23376 0.95986 0.0
Fe47 Fe 0.76284 0.22145 0.06493 0.0
O48 O 0.80373 0.23223 0.18862 0.0
O49 O 0.83724 0.18938 0.12313 0.0
O50 O 0.90066 0.25138 0.98093 0.0
C51 C 0.9196 0.28904 0.91537 0.0
C52 C 0.74563 0.12507 1.01114 0.0
O53 O 0.89298 0.29993 0.85227 0.0
C54 C 0.72299 0.23978 0.8699 0.0
O55 O 0.84819 0.20052 0.79498 0.0
O56 O 0.81371 0.24256 0.72978 0.0
O57 O 0.73885 0.15497 0.0718 0.0
O58 O 0.78186 0.14054 0.94063 0.0
C59 C 0.81523 0.32631 0.05097 0.0
O60 O 0.76528 0.27488 0.84124 0.0
O61 O 0.71822 0.20924 0.94894 0.0
C62 C 0.83225 0.2157 0.71014 0.0
O63 O 0.84484 0.32755 0.97421 0.0
O64 O 0.77742 0.28596 0.07883 0.0
C65 C 0.8271 0.20982 0.20724 0.0
Fe66 Fe 0.66229 0.83602 0.1002 0.0
Fe67 Fe 0.56373 0.8178 0.99096 0.0
O68 O 0.59632 0.80248 0.09572 0.0
Fe69 Fe 0.56277 0.75413 0.19926 0.0
O70 O 0.5892 0.79655 0.32126 0.0
O71 O 0.66625 0.83105 0.26539 0.0
O72 O 0.6646 0.89468 0.12138 0.0
C73 C 0.64412 0.91185 0.05506 0.0
C74 C 0.64659 0.74353 0.144 0.0
O75 O 0.60756 0.88394 0.99096 0.0
C76 C 0.50625 0.7121 1.00277 0.0
O77 O 0.67007 0.84558 0.93663 0.0
O78 O 0.59398 0.80778 0.8689 0.0
O79 O 0.60931 0.73439 0.20628 0.0
O80 O 0.66653 0.78101 0.07793 0.0
C81 C 0.50309 0.79838 0.1827 0.0
O82 O 0.51423 0.7541 0.97 0.0
O83 O 0.53183 0.7083 0.0845 0.0
C84 C 0.63946 0.8266 0.85178 0.0
O85 O 0.52991 0.82919 0.10517 0.0
O86 O 0.5102 0.76379 0.21283 0.0
C87 C 0.634 0.81848 0.34719 0.0
Fe88 Fe 0.84692 0.65798 0.27816 0.0
Fe89 Fe 0.77011 0.55826 0.17396 0.0
O90 O 0.81398 0.59242 0.28469 0.0
Fe91 Fe 0.82519 0.56116 0.40064 0.0
O92 O 0.80802 0.59152 0.5109 0.0
O93 O 0.85345 0.66687 0.44296 0.0
O94 O 0.79053 0.66061 0.28954 0.0
C95 C 0.75539 0.64006 0.21657 0.0
C96 C 0.9207 0.64116 0.34592 0.0
O97 O 0.75016 0.60439 0.15313 0.0
C98 C 0.81653 0.50129 0.21704 0.0
O99 O 0.84535 0.66112 0.11128 0.0
O100 O 0.81689 0.58462 0.06006 0.0
O101 O 0.89072 0.6069 0.41364 0.0
O102 O 0.90577 0.65994 0.26813 0.0
C103 C 0.72105 0.50239 0.36439 0.0
O104 O 0.78161 0.50605 0.17539 0.0
O105 O 0.84357 0.52875 0.29891 0.0
C106 C 0.83595 0.62889 0.03087 0.0
O107 O 0.7206 0.52885 0.28076 0.0
O108 O 0.76138 0.50904 0.40706 0.0
C109 C 0.82967 0.63741 0.52741 0.0
Fe110 Fe 0.20991 0.83636 0.43321 0.0
Fe111 Fe 0.22453 0.75474 0.32331 0.0
O112 O 0.24158 0.8025 0.4289 0.0
Fe113 Fe 0.29044 0.81573 0.52975 0.0
O114 O 0.25052 0.80315 0.65771 0.0
O115 O 0.21369 0.84364 0.59675 0.0
O116 O 0.15077 0.78094 0.4563 0.0
C117 C 0.13268 0.74155 0.3971 0.0
C118 C 0.30411 0.91103 0.48079 0.0
O119 O 0.15927 0.73571 0.32247 0.0
C120 C 0.3286 0.80268 0.32289 0.0
O121 O 0.19957 0.83421 0.26915 0.0
O122 O 0.23722 0.79611 0.19984 0.0
O123 O 0.31233 0.88155 0.53928 0.0
O124 O 0.26666 0.89509 0.41372 0.0
C125 C 0.24114 0.71082 0.51132 0.0
O126 O 0.28697 0.76521 0.30507 0.0
O127 O 0.33412 0.83054 0.40926 0.0
C128 C 0.21703 0.82155 0.18262 0.0
O129 O 0.21005 0.709 0.43794 0.0
O130 O 0.27835 0.7517 0.53923 0.0
C131 C 0.2256 0.82387 0.67923 0.0
C132 C 0.38519 0.22723 0.15661 0.0
C133 C 0.40916 0.20406 0.21189 0.0
C134 C 0.40774 0.16539 1.02072 0.0
C135 C 0.39432 0.19649 0.96211 0.0
N136 N 0.36879 0.25699 0.97177 0.0
N137 N 0.4494 0.15542 0.18838 0.0
C138 C 0.38155 0.22672 0.02956 0.0
C139 C 0.42176 0.17394 0.14201 0.0
N140 N 0.36731 0.25084 0.22471 0.0
N141 N 0.40808 0.12823 0.95852 0.0
H142 H 0.46187 0.16107 0.27546 0.0
H143 H 0.46379 0.13797 0.13691 0.0
H144 H 0.39692 0.12147 0.86962 0.0
H145 H 0.41359 0.1013 0.99815 0.0
H146 H 0.34553 0.26444 0.19085 0.0
H147 H 0.37143 0.2539 0.31698 0.0
H148 H 0.36511 0.28455 1.0137 0.0
H149 H 0.36366 0.25546 0.87992 0.0
C150 C 0.16997 0.38838 0.32346 0.0
C151 C 0.20799 0.38621 0.38639 0.0
C152 C 0.24537 0.38244 0.19719 0.0
C153 C 0.2079 0.38569 0.13481 0.0
N154 N 0.12607 0.37429 0.13684 0.0
N155 N 0.27356 0.36724 0.38512 0.0
C156 C 0.16727 0.38277 0.19759 0.0
C157 C 0.24282 0.37832 0.32367 0.0
N158 N 0.13781 0.39802 0.38328 0.0
N159 N 0.2843 0.38524 0.13575 0.0
H160 H 0.27172 0.36319 0.47713 0.0
H161 H 0.29712 0.35721 0.34475 0.0
H162 H 0.28581 0.38588 0.04284 0.0
H163 H 0.31591 0.38918 0.17644 0.0
H164 H 0.11298 0.40587 0.34083 0.0
H165 H 0.13817 0.4013 0.47577 0.0
H166 H 0.09384 0.36841 0.17819 0.0
H167 H 0.12222 0.36709 0.04584 0.0
C168 C 0.81892 0.1628 0.3969 0.0
C169 C 0.84189 0.20773 0.33195 0.0
C170 C 0.87627 0.25215 0.51773 0.0
C171 C 0.84277 0.2097 0.58335 0.0
N172 N 0.78438 0.12288 0.58644 0.0
N173 N 0.89726 0.29529 0.32874 0.0
C174 C 0.81533 0.16418 0.52343 0.0
C175 C 0.87237 0.25244 0.39201 0.0
N176 N 0.80129 0.11914 0.33839 0.0
N177 N 0.91335 0.29127 0.57549 0.0
H178 H 0.89845 0.29613 0.23578 0.0
H179 H 0.91483 0.32996 0.3682 0.0
H180 H 0.92007 0.28921 0.66501 0.0
H181 H 0.94123 0.32208 0.53263 0.0
H182 H 0.78786 0.08547 0.38186 0.0
H183 H 0.80438 0.11709 0.24647 0.0
H184 H 0.75887 0.08986 0.54662 0.0
H185 H 0.78291 0.12255 0.67923 0.0
C186 C 0.6194 0.7754 0.54586 0.0
C187 C 0.64661 0.8193 0.47632 0.0
C188 C 0.68678 0.86485 0.66014 0.0
C189 C 0.6542 0.82283 0.72795 0.0
N190 N 0.60363 0.73492 0.7373 0.0
N191 N 0.70519 0.90645 0.46842 0.0
C192 C 0.62539 0.77715 0.67071 0.0
C193 C 0.68114 0.86398 0.53341 0.0
N194 N 0.58509 0.73218 0.49448 0.0
N195 N 0.72352 0.90501 0.71629 0.0
H196 H 0.70178 0.90768 0.37639 0.0
H197 H 0.72588 0.9412 0.50613 0.0
H198 H 0.7292 0.906 0.80784 0.0
H199 H 0.75128 0.93531 0.67174 0.0
H200 H 0.55765 0.70268 0.54201 0.0
H201 H 0.5821 0.72548 0.40389 0.0
H202 H 0.58834 0.69967 0.70162 0.0
H203 H 0.60442 0.73516 0.82996 0.0
C204 C 0.87356 0.68533 0.71597 0.0
C205 C 0.82978 0.65392 0.65279 0.0
C206 C 0.78809 0.6142 0.83744 0.0
C207 C 0.83376 0.64018 0.90143 0.0
N208 N 0.92023 0.70128 0.90012 0.0
N209 N 0.74232 0.61214 0.66172 0.0
C210 C 0.87637 0.67704 0.84086 0.0
C211 C 0.7861 0.62628 0.71714 0.0
N212 N 0.91102 0.7244 0.65832 0.0
N213 N 0.74671 0.57621 0.88737 0.0
H214 H 0.7412 0.62174 0.5734 0.0
H215 H 0.70862 0.59651 0.70598 0.0
H216 H 0.74373 0.56367 0.97374 0.0
H217 H 0.71522 0.55334 0.83844 0.0
H218 H 0.94259 0.75137 0.70042 0.0
H219 H 0.90822 0.73233 0.56948 0.0
H220 H 0.9537 0.72441 0.85869 0.0
H221 H 0.92383 0.69564 0.99024 0.0
C222 C 0.1746 0.7832 0.99217 0.0
C223 C 0.20542 0.82674 0.05633 0.0
C224 C 0.23068 0.8715 0.86688 0.0
C225 C 0.21142 0.82582 0.80522 0.0
N226 N 0.16144 0.73717 0.81036 0.0
N227 N 0.25995 0.91414 0.05593 0.0
C228 C 0.18202 0.7813 0.86822 0.0
C229 C 0.23208 0.8717 0.99403 0.0
N230 N 0.13686 0.74446 0.04966 0.0
N231 N 0.24683 0.91436 0.80519 0.0
H232 H 0.25868 0.91533 0.14861 0.0
H233 H 0.28523 0.94724 1.01576 0.0
H234 H 0.24581 0.91586 0.71272 0.0
H235 H 0.25717 0.9479 0.84623 0.0
H236 H 0.11079 0.7125 1.00693 0.0
H237 H 0.12775 0.74806 0.13668 0.0
H238 H 0.14434 0.70343 0.85463 0.0
H239 H 0.16405 0.73427 0.7185 0.0
C240 C 0.38738 0.03972 0.61816 0.0
C241 C 0.38663 0.06944 0.52433 0.0
C242 C 0.34708 0.99658 0.39617 0.0
C243 C 0.33774 0.96548 0.49603 0.0
N244 N 0.34895 0.95962 0.70992 0.0
N245 N 0.35774 0.07396 0.32778 0.0
C246 C 0.35834 0.98746 0.6092 0.0
C247 C 0.3645 0.04734 0.41407 0.0
N248 N 0.4167 0.06139 0.71506 0.0
N249 N 0.34149 0.97817 0.28354 0.0
H250 H 0.36738 0.11045 0.33993 0.0
H251 H 0.33778 0.05826 0.25011 0.0
H252 H 0.33294 0.94202 0.26708 0.0
H253 H 0.35171 1.00035 0.2077 0.0
H254 H 0.42343 0.04181 0.78023 0.0
H255 H 0.43827 0.09948 0.72415 0.0
H256 H 0.35783 0.97482 0.79498 0.0
H257 H 0.32868 0.92152 0.71294 0.0
C258 C 0.32502 0.2897 0.6696 0.0
C259 C 0.37707 0.31641 0.65509 0.0
C260 C 0.37652 0.39329 0.69563 0.0
C261 C 0.32416 0.36701 0.69622 0.0
N262 N 0.24901 0.29062 0.65292 0.0
N263 N 0.45133 0.39498 0.63271 0.0
C264 C 0.29854 0.31539 0.67466 0.0
C265 C 0.40258 0.36864 0.66225 0.0
N266 N 0.30046 0.23975 0.68442 0.0
N267 N 0.40154 0.44133 0.73121 0.0
H268 H 0.4713 0.37845 0.60466 0.0
H269 H 0.47063 0.43317 0.62452 0.0
H270 H 0.38389 0.46031 0.7585 0.0
H271 H 0.43947 0.46082 0.74475 0.0
H272 H 0.26364 0.21976 0.71033 0.0
H273 H 0.31744 0.21859 0.68405 0.0
H274 H 0.23016 0.25446 0.62211 0.0
H275 H 0.2274 0.30711 0.65231 0.0
C276 C 1.00203 0.36715 0.92758 0.0
C277 C 0.97388 0.31681 0.89445 0.0
C278 C 0.04132 0.32683 0.76579 0.0
C279 C 0.0732 0.37399 0.81511 0.0
N280 N 0.07964 0.44461 0.91733 0.0
N281 N 0.97064 0.24653 0.79716 0.0
C282 C 0.05227 0.39583 0.88915 0.0
C283 C 0.99495 0.29593 0.81941 0.0
N284 N 0.98027 0.38738 0.99469 0.0
N285 N 0.05275 0.3131 0.6606 0.0
H286 H 0.93666 0.22205 0.83441 0.0
H287 H 0.98683 0.2293 0.75161 0.0
H288 H 0.0817 0.33769 0.60678 0.0
H289 H 0.02875 0.28047 0.61682 0.0
H290 H 0.99639 0.42452 1.01547 0.0
H291 H 0.94485 0.36652 0.02965 0.0
H292 H 0.0703 0.4619 0.98277 0.0
H293 H 0.11124 0.46877 0.87003 0.0
C294 C 0.67758 0.98953 0.93111 0.0
C295 C 0.66505 0.96629 0.04506 0.0
C296 C 0.6961 0.04744 0.1399 0.0
C297 C 0.71178 0.07058 0.02559 0.0
N298 N 0.69746 0.06203 0.81434 0.0
N299 N 0.65982 0.97207 0.25779 0.0
C300 C 0.69663 0.04106 0.92185 0.0
C301 C 0.67311 0.99501 0.14921 0.0
N302 N 0.67428 0.96313 0.83137 0.0
N303 N 0.70072 0.07473 0.23906 0.0
H304 H 0.63781 0.93406 0.26747 0.0
H305 H 0.67171 0.99004 0.3391 0.0
H306 H 0.71907 0.11282 0.24206 0.0
H307 H 0.68395 0.0598 0.32028 0.0
H308 H 0.68914 0.97937 0.74939 0.0
H309 H 0.66084 0.92544 0.83159 0.0
H310 H 0.68201 0.04181 0.737 0.0
H311 H 0.70798 0.09913 0.80541 0.0
C312 C 0.72129 0.68038 0.08013 0.0
C313 C 0.72374 0.66225 0.1945 0.0
C314 C 0.67954 0.70094 0.27728 0.0
C315 C 0.67137 0.71363 0.16098 0.0
N316 N 0.67476 0.70283 0.94905 0.0
N317 N 0.69136 0.64286 0.39373 0.0
C318 C 0.68915 0.69934 0.06142 0.0
C319 C 0.69828 0.66844 0.29048 0.0
N320 N 0.75181 0.68265 0.99104 0.0
N321 N 0.67383 0.7231 0.37525 0.0
H322 H 0.70185 0.61626 0.40205 0.0
H323 H 0.66999 0.64373 0.4638 0.0
H324 H 0.6677 0.75254 0.36809 0.0
H325 H 0.68265 0.71735 0.46112 0.0
H326 H 0.75439 0.69948 0.90913 0.0
H327 H 0.77876 0.6733 1.0048 0.0
H328 H 0.68327 0.68876 0.87442 0.0
H329 H 0.64968 0.71456 0.93301 0.0
C330 C 1.00414 0.6588 0.27584 0.0
C331 C 0.97446 0.66213 0.36625 0.0
C332 C 0.04787 0.70763 0.49249 0.0
C333 C 0.07781 0.70624 0.39905 0.0
N334 N 0.07714 0.65376 0.23967 0.0
N335 N 0.96657 0.67513 0.57604 0.0
C336 C 0.0541 0.67404 0.3012 0.0
C337 C 0.99577 0.68203 0.47936 0.0
N338 N 0.98461 0.6396 0.16689 0.0
N339 N 0.06875 0.73232 0.59562 0.0
H340 H 0.92852 0.65786 0.57218 0.0
H341 H 0.97969 0.68285 0.66311 0.0
H342 H 0.10428 0.74197 0.62138 0.0
H343 H 0.05056 0.74284 0.65614 0.0
H344 H 1.00638 0.64164 0.09448 0.0
H345 H 0.94736 0.62446 0.14663 0.0
H346 H 0.05997 0.6279 0.17223 0.0
H347 H 0.10963 0.65583 0.26897 0.0
C348 C 0.62344 0.40444 0.56423 0.0
C349 C 0.58996 0.37074 0.47911 0.0
C350 C 0.6429 0.42277 0.31746 0.0
C351 C 0.67425 0.45849 0.40242 0.0
N352 N 0.68798 0.48773 0.60492 0.0
N353 N 0.56197 0.35364 0.27569 0.0
C354 C 0.66258 0.45058 0.5253 0.0
C355 C 0.59796 0.38165 0.35597 0.0
N356 N 0.61948 0.39176 0.68191 0.0
N357 N 0.6569 0.42628 0.20093 0.0
H358 H 0.52816 0.32386 0.30084 0.0
H359 H 0.56363 0.36297 0.18602 0.0
H360 H 0.68945 0.45509 0.16718 0.0
H361 H 0.63824 0.39808 0.13943 0.0
H362 H 0.64648 0.41229 0.74475 0.0
H363 H 0.59154 0.35867 0.71576 0.0
H364 H 0.67751 0.48593 0.69362 0.0
H365 H 0.71652 0.52224 0.57967 0.0
C366 C 0.22948 0.58345 0.51038 0.0
C367 C 0.23249 0.5759 0.63371 0.0
C368 C 0.23455 0.65384 0.67704 0.0
C369 C 0.23733 0.66399 0.55334 0.0
N370 N 0.24501 0.64145 0.3516 0.0
N371 N 0.24323 0.60691 0.83597 0.0
C372 C 0.23658 0.6295 0.46968 0.0
C373 C 0.23593 0.61162 0.71767 0.0
N374 N 0.21802 0.54585 0.43217 0.0
N375 N 0.22928 0.68394 0.75616 0.0
H376 H 0.24352 0.57664 0.87239 0.0
H377 H 0.25328 0.6351 0.89765 0.0
H378 H 0.23007 0.7162 0.73072 0.0
H379 H 0.22021 0.6751 0.84551 0.0
H380 H 0.20999 0.54719 0.34269 0.0
H381 H 0.21153 0.51128 0.45915 0.0
H382 H 0.25118 0.62051 0.28943 0.0
H383 H 0.2502 0.67439 0.31671 0.0
C384 C 0.66184 0.26957 0.8729 0.0
C385 C 0.67733 0.23772 0.82443 0.0
C386 C 0.59718 0.19039 0.72431 0.0
C387 C 0.58393 0.22557 0.76263 0.0
N388 N 0.59264 0.27966 0.9247 0.0
N389 N 0.66208 0.17048 0.69521 0.0
C390 C 0.61318 0.26001 0.85154 0.0
C391 C 0.64548 0.19871 0.74804 0.0
N392 N 0.69377 0.30962 0.93815 0.0
N393 N 0.5622 0.14656 0.67727 0.0
H394 H 0.69713 0.17555 0.7109 0.0
H395 H 0.64308 0.14517 0.62796 0.0
H396 H 0.52488 0.13541 0.67796 0.0
H397 H 0.56854 0.11797 0.65548 0.0
H398 H 0.6864 0.3372 0.96373 0.0
H399 H 0.72948 0.31782 0.9568 0.0
H400 H 0.61081 0.3019 0.99758 0.0
H401 H 0.555 0.26742 0.92445 0.0
C402 C 0.46058 0.62069 0.95166 0.0
C403 C 0.46177 0.66678 0.95594 0.0
C404 C 0.38031 0.62663 0.8625 0.0
C405 C 0.37482 0.57955 0.88238 0.0
N406 N 0.40924 0.5318 0.96158 0.0
N407 N 0.41331 0.70826 0.93709 0.0
C408 C 0.41485 0.57652 0.93175 0.0
C409 C 0.41904 0.66836 0.91799 0.0
N410 N 0.50318 0.61899 0.95929 0.0
N411 N 0.35058 0.6326 0.78415 0.0
H412 H 0.43758 0.73963 0.9836 0.0
H413 H 0.38027 0.70751 0.9196 0.0
H414 H 0.32526 0.60396 0.73225 0.0
H415 H 0.35626 0.667 0.75821 0.0
H416 H 0.50435 0.58666 0.94733 0.0
H417 H 0.53791 0.65047 0.96144 0.0
H418 H 0.436 0.52802 1.00779 0.0
H419 H 0.37611 0.49891 0.95014 0.0
C420 C 0.81329 0.42078 0.25917 0.0
C421 C 0.82187 0.45912 0.17807 0.0
C422 C 0.82582 0.41052 1.01295 0.0
C423 C 0.82047 0.37337 0.0949 0.0
N424 N 0.82113 0.34913 0.29857 0.0
N425 N 0.84959 0.49608 0.9848 0.0
C426 C 0.81782 0.38032 0.21889 0.0
C427 C 0.8323 0.4557 0.05712 0.0
N428 N 0.79868 0.42166 0.37334 0.0
N429 N 0.8217 0.40195 0.89297 0.0
H430 H 0.85613 0.53018 1.01538 0.0
H431 H 0.86256 0.49716 0.89879 0.0
H432 H 0.81522 0.36911 0.85467 0.0
H433 H 0.81957 0.42573 0.83149 0.0
H434 H 0.78603 0.39178 0.43126 0.0
H435 H 0.79541 0.45063 0.40785 0.0
H436 H 0.82472 0.35541 0.39008 0.0
H437 H 0.82536 0.31962 0.27249 0.0
C438 C 0.46348 0.84501 0.26311 0.0
C439 C 0.45877 0.79949 0.22582 0.0
C440 C 0.36982 0.76404 0.21024 0.0
C441 C 0.37321 0.8063 0.26422 0.0
N442 N 0.42351 0.8935 0.29532 0.0
N443 N 0.40394 0.71099 0.20094 0.0
C444 C 0.42032 0.84888 0.27808 0.0
C445 C 0.41108 0.7575 0.21158 0.0
N446 N 0.50903 0.88341 0.29122 0.0
N447 N 0.32888 0.73225 0.14706 0.0
H448 H 0.43171 0.70218 0.20069 0.0
H449 H 0.36888 0.67987 0.20279 0.0
H450 H 0.30144 0.74037 0.12472 0.0
H451 H 0.32633 0.70246 0.09985 0.0
H452 H 0.5151 0.91624 0.3289 0.0
H453 H 0.54086 0.88077 0.2873 0.0
H454 H 0.45644 0.92685 0.29815 0.0
H455 H 0.39265 0.89786 0.29212 0.0
loop_
_geom_bond_atom_site_label_1
_geom_bond_atom_site_label_2
_geom_bond_distance
_geom_bond_site_symmetry_2
_ccdc_geom_bond_type
Fe0 O2 1.918 . S
Fe0 O5 1.997 . S
Fe0 O6 2.002 . S
Fe0 O11 1.976 . S
Fe0 O14 1.996 . S
Fe1 O2 1.918 . S
Fe1 O9 1.997 . S
Fe1 O12 1.996 . S
Fe1 O16 1.976 . S
Fe1 O19 2.002 . S
O2 Fe0 1.918 . S
O2 Fe1 1.918 . S
O2 Fe3 1.918 . S
Fe3 O2 1.918 . S
Fe3 O4 2.002 . S
Fe3 O13 1.976 . S
Fe3 O17 1.996 . S
Fe3 O20 1.997 . S
O4 Fe3 2.002 . S
O4 C21 1.295 . S
O5 Fe0 1.997 . S
O5 C21 1.235 . S
O6 Fe0 2.002 . S
O6 C7 1.295 . S
C7 O6 1.295 . S
C7 O9 1.235 . S
C8 O13 1.287 . S
C8 O14 1.255 . S
O9 Fe1 1.997 . S
O9 C7 1.235 . S
C10 O16 1.287 . S
C10 O17 1.255 . S
O11 Fe0 1.976 . S
O11 C18 1.287 . S
O12 Fe1 1.996 . S
O12 C18 1.255 . S
O13 Fe3 1.976 . S
O13 C8 1.287 . S
O14 Fe0 1.996 . S
O14 C8 1.255 . S
C15 O19 1.295 . S
C15 O20 1.235 . S
O16 Fe1 1.976 . S
O16 C10 1.287 . S
O17 Fe3 1.996 . S
O17 C10 1.255 . S
C18 O11 1.287 . S
C18 O12 1.255 . S
O19 Fe1 2.002 . S
O19 C15 1.295 . S
O20 Fe3 1.997 . S
O20 C15 1.235 . S
C21 O4 1.295 . S
C21 O5 1.235 . S
Fe22 O24 1.918 . S
Fe22 O27 1.997 . S
Fe22 O28 2.002 . S
Fe22 O33 1.976 . S
Fe22 O36 1.996 . S
Fe23 O24 1.918 . S
Fe23 O31 1.997 . S
Fe23 O34 1.996 . S
Fe23 O38 1.976 . S
Fe23 O41 2.002 . S
O24 Fe22 1.918 . S
O24 Fe23 1.918 . S
O24 Fe25 1.918 . S
Fe25 O24 1.918 . S
Fe25 O26 2.002 . S
Fe25 O35 1.976 . S
Fe25 O39 1.996 . S
Fe25 O42 1.997 . S
O26 Fe25 2.002 . S
O26 C43 1.295 . S
O27 Fe22 1.997 . S
O27 C43 1.235 . S
O28 Fe22 2.002 . S
O28 C29 1.295 . S
C29 O28 1.295 . S
C29 O31 1.235 . S
C30 O35 1.287 . S
C30 O36 1.255 . S
O31 Fe23 1.997 . S
O31 C29 1.235 . S
C32 O38 1.287 . S
C32 O39 1.255 . S
O33 Fe22 1.976 . S
O33 C40 1.287 . S
O34 Fe23 1.996 . S
O34 C40 1.255 . S
O35 Fe25 1.976 . S
O35 C30 1.287 . S
O36 Fe22 1.996 . S
O36 C30 1.255 . S
C37 O41 1.295 . S
C37 O42 1.235 . S
O38 Fe23 1.976 . S
O38 C32 1.287 . S
O39 Fe25 1.996 . S
O39 C32 1.255 . S
C40 O33 1.287 . S
C40 O34 1.255 . S
O41 Fe23 2.002 . S
O41 C37 1.295 . S
O42 Fe25 1.997 . S
O42 C37 1.235 . S
C43 O26 1.295 . S
C43 O27 1.235 . S
Fe44 O46 1.918 . S
Fe44 O49 1.997 1_556 S
Fe44 O50 2.002 . S
Fe44 O55 1.976 . S
Fe44 O58 1.996 . S
Fe45 O46 1.918 . S
Fe45 O53 1.997 . S
Fe45 O56 1.996 . S
Fe45 O60 1.976 . S
Fe45 O63 2.002 . S
O46 Fe44 1.918 . S
O46 Fe45 1.918 . S
O46 Fe47 1.918 1_556 S
Fe47 O46 1.918 1_554 S
Fe47 O48 2.002 . S
Fe47 O57 1.976 . S
Fe47 O61 1.996 1_554 S
Fe47 O64 1.997 . S
O48 Fe47 2.002 . S
O48 C65 1.295 . S
O49 Fe44 1.997 1_554 S
O49 C65 1.235 . S
O50 Fe44 2.002 . S
O50 C51 1.295 . S
C51 O50 1.295 . S
C51 O53 1.235 . S
C52 O57 1.287 1_556 S
C52 O58 1.255 . S
O53 Fe45 1.997 . S
O53 C51 1.235 . S
C54 O60 1.287 . S
C54 O61 1.255 . S
O55 Fe44 1.976 . S
O55 C62 1.287 . S
O56 Fe45 1.996 . S
O56 C62 1.255 . S
O57 Fe47 1.976 . S
O57 C52 1.287 1_554 S
O58 Fe44 1.996 . S
O58 C52 1.255 . S
C59 O63 1.295 1_554 S
C59 O64 1.235 . S
O60 Fe45 1.976 . S
O60 C54 1.287 . S
O61 Fe47 1.996 1_556 S
O61 C54 1.255 . S
C62 O55 1.287 . S
C62 O56 1.255 . S
O63 Fe45 2.002 . S
O63 C59 1.295 1_556 S
O64 Fe47 1.997 . S
O64 C59 1.235 . S
C65 O48 1.295 . S
C65 O49 1.235 . S
Fe66 O68 1.918 . S
Fe66 O71 1.997 . S
Fe66 O72 2.002 . S
Fe66 O77 1.976 1_554 S
Fe66 O80 1.996 . S
Fe67 O68 1.918 1_556 S
Fe67 O75 1.997 . S
Fe67 O78 1.996 . S
Fe67 O82 1.976 . S
Fe67 O85 2.002 1_556 S
O68 Fe66 1.918 . S
O68 Fe67 1.918 1_554 S
O68 Fe69 1.918 . S
Fe69 O68 1.918 . S
Fe69 O70 2.002 . S
Fe69 O79 1.976 . S
Fe69 O83 1.996 . S
Fe69 O86 1.997 . S
O70 Fe69 2.002 . S
O70 C87 1.295 . S
O71 Fe66 1.997 . S
O71 C87 1.235 . S
O72 Fe66 2.002 . S
O72 C73 1.295 . S
C73 O72 1.295 . S
C73 O75 1.235 1_554 S
C74 O79 1.287 . S
C74 O80 1.255 . S
O75 Fe67 1.997 . S
O75 C73 1.235 1_556 S
C76 O82 1.287 . S
C76 O83 1.255 1_556 S
O77 Fe66 1.976 1_556 S
O77 C84 1.287 . S
O78 Fe67 1.996 . S
O78 C84 1.255 . S
O79 Fe69 1.976 . S
O79 C74 1.287 . S
O80 Fe66 1.996 . S
O80 C74 1.255 . S
C81 O85 1.295 . S
C81 O86 1.235 . S
O82 Fe67 1.976 . S
O82 C76 1.287 . S
O83 Fe69 1.996 . S
O83 C76 1.255 1_554 S
C84 O77 1.287 . S
C84 O78 1.255 . S
O85 Fe67 2.002 1_554 S
O85 C81 1.295 . S
O86 Fe69 1.997 . S
O86 C81 1.235 . S
C87 O70 1.295 . S
C87 O71 1.235 . S
Fe88 O90 1.918 . S
Fe88 O93 1.997 . S
Fe88 O94 2.002 . S
Fe88 O99 1.976 . S
Fe88 O102 1.996 . S
Fe89 O90 1.918 . S
Fe89 O97 1.997 . S
Fe89 O100 1.992 1_554 S
Fe89 O104 1.976 . S
Fe89 O107 2.002 . S
O90 Fe88 1.918 . S
O90 Fe89 1.918 . S
O90 Fe91 1.918 . S
Fe91 O90 1.918 . S
Fe91 O92 2.002 . S
Fe91 O101 1.976 . S
Fe91 O105 1.996 . S
Fe91 O108 1.997 . S
O92 Fe91 2.002 . S
O92 C109 1.295 . S
O93 Fe88 1.997 . S
O93 C109 1.235 . S
O94 Fe88 2.002 . S
O94 C95 1.295 . S
C95 O94 1.295 . S
C95 O97 1.235 . S
C96 O101 1.287 . S
C96 O102 1.255 . S
O97 Fe89 1.997 . S
O97 C95 1.235 . S
C98 O104 1.287 . S
C98 O105 1.255 . S
O99 Fe88 1.976 . S
O99 C106 1.287 1_554 S
O100 Fe89 1.992 1_556 S
O100 C106 1.255 . S
O101 Fe91 1.976 . S
O101 C96 1.287 . S
O102 Fe88 1.996 . S
O102 C96 1.255 . S
C103 O107 1.295 . S
C103 O108 1.235 . S
O104 Fe89 1.976 . S
O104 C98 1.287 . S
O105 Fe91 1.996 . S
O105 C98 1.255 . S
C106 O99 1.287 1_556 S
C106 O100 1.255 . S
O107 Fe89 2.002 . S
O107 C103 1.295 . S
O108 Fe91 1.997 . S
O108 C103 1.235 . S
C109 O92 1.295 . S
C109 O93 1.235 . S
Fe110 O112 1.918 . S
Fe110 O115 1.997 . S
Fe110 O116 2.002 . S
Fe110 O121 1.976 . S
Fe110 O124 1.996 . S
Fe111 O112 1.918 . S
Fe111 O119 1.997 . S
Fe111 O122 1.996 . S
Fe111 O126 1.976 . S
Fe111 O129 2.002 . S
O112 Fe110 1.918 . S
O112 Fe111 1.918 . S
O112 Fe113 1.918 . S
Fe113 O112 1.918 . S
Fe113 O114 2.002 . S
Fe113 O123 1.976 . S
Fe113 O127 1.996 . S
Fe113 O130 1.997 . S
O114 Fe113 2.002 . S
O114 C131 1.295 . S
O115 Fe110 1.997 . S
O115 C131 1.235 . S
O116 Fe110 2.002 . S
O116 C117 1.295 . S
C117 O116 1.295 . S
C117 O119 1.235 . S
C118 O123 1.287 . S
C118 O124 1.255 . S
O119 Fe111 1.997 . S
O119 C117 1.235 . S
C120 O126 1.287 . S
C120 O127 1.255 . S
O121 Fe110 1.976 . S
O121 C128 1.287 . S
O122 Fe111 1.996 . S
O122 C128 1.255 . S
O123 Fe113 1.976 . S
O123 C118 1.287 . S
O124 Fe110 1.996 . S
O124 C118 1.255 . S
C125 O129 1.295 . S
C125 O130 1.235 . S
O126 Fe111 1.976 . S
O126 C120 1.287 . S
O127 Fe113 1.996 . S
O127 C120 1.255 . S
C128 O121 1.287 . S
C128 O122 1.255 . S
O129 Fe111 2.002 . S
O129 C125 1.295 . S
O130 Fe113 1.997 . S
O130 C125 1.235 . S
C131 O114 1.295 . S
C131 O115 1.235 . S
C132 C133 1.363 . S
C132 C138 1.379 . S
C132 N140 1.356 . S
C133 C132 1.363 . S
C133 C139 1.363 . S
C134 C135 1.363 1_554 S
C134 C139 1.379 . S
C134 N141 1.356 1_554 S
C135 C134 1.363 1_556 S
C135 C138 1.363 1_556 S
N136 C138 1.356 1_556 S
N136 H148 0.984 . S
N136 H149 0.985 . S
N137 C139 1.356 . S
N137 H142 0.984 . S
N137 H143 0.985 . S
C138 C132 1.379 . S
C138 C135 1.363 1_554 S
C138 N136 1.356 1_554 S
C139 C133 1.363 . S
C139 C134 1.379 . S
C139 N137 1.356 . S
N140 C132 1.356 . S
N140 H146 0.984 . S
N140 H147 0.984 . S
N141 C134 1.356 1_556 S
N141 H144 0.984 . S
N141 H145 0.985 . S
H142 N137 0.984 . S
H143 N137 0.985 . S
H144 N141 0.984 . S
H145 N141 0.985 . S
H146 N140 0.984 . S
H147 N140 0.984 . S
H148 N136 0.984 . S
H149 N136 0.985 . S
C150 C151 1.363 . S
C150 C156 1.379 . S
C150 N158 1.356 . S
C151 C150 1.363 . S
C151 C157 1.363 . S
C152 C153 1.363 . S
C152 C157 1.379 . S
C152 N159 1.356 . S
C153 C152 1.363 . S
C153 C156 1.363 . S
N154 C156 1.356 . S
N154 H166 0.984 . S
N154 H167 0.985 . S
N155 C157 1.356 . S
N155 H160 0.984 . S
N155 H161 0.985 . S
C156 C150 1.379 . S
C156 C153 1.363 . S
C156 N154 1.356 . S
C157 C151 1.363 . S
C157 C152 1.379 . S
C157 N155 1.356 . S
N158 C150 1.356 . S
N158 H164 0.984 . S
N158 H165 0.984 . S
N159 C152 1.356 . S
N159 H162 0.984 . S
N159 H163 0.985 . S
H160 N155 0.984 . S
H161 N155 0.985 . S
H162 N159 0.984 . S
H163 N159 0.985 . S
H164 N158 0.984 . S
H165 N158 0.984 . S
H166 N154 0.984 . S
H167 N154 0.985 . S
C168 C169 1.363 . S
C168 C174 1.379 . S
C168 N176 1.356 . S
C169 C168 1.363 . S
C169 C175 1.363 . S
C170 C171 1.363 . S
C170 C175 1.379 . S
C170 N177 1.356 . S
C171 C170 1.363 . S
C171 C174 1.363 . S
N172 C174 1.356 . S
N172 H184 0.984 . S
N172 H185 0.985 . S
N173 C175 1.356 . S
N173 H178 0.984 . S
N173 H179 0.985 . S
C174 C168 1.379 . S
C174 C171 1.363 . S
C174 N172 1.356 . S
C175 C169 1.363 . S
C175 C170 1.379 . S
C175 N173 1.356 . S
N176 C168 1.356 . S
N176 H182 0.984 . S
N176 H183 0.984 . S
N177 C170 1.356 . S
N177 H180 0.984 . S
N177 H181 0.985 . S
H178 N173 0.984 . S
H179 N173 0.985 . S
H180 N177 0.984 . S
H181 N177 0.985 . S
H182 N176 0.984 . S
H183 N176 0.984 . S
H184 N172 0.984 . S
H185 N172 0.985 . S
C186 C187 1.363 . S
C186 C192 1.379 . S
C186 N194 1.356 . S
C187 C186 1.363 . S
C187 C193 1.363 . S
C188 C189 1.363 . S
C188 C193 1.379 . S
C188 N195 1.356 . S
C189 C188 1.363 . S
C189 C192 1.363 . S
N190 C192 1.356 . S
N190 H202 0.984 . S
N190 H203 0.985 . S
N191 C193 1.356 . S
N191 H196 0.984 . S
N191 H197 0.985 . S
C192 C186 1.379 . S
C192 C189 1.363 . S
C192 N190 1.356 . S
C193 C187 1.363 . S
C193 C188 1.379 . S
C193 N191 1.356 . S
N194 C186 1.356 . S
N194 H200 0.984 . S
N194 H201 0.984 . S
N195 C188 1.356 . S
N195 H198 0.984 . S
N195 H199 0.985 . S
H196 N191 0.984 . S
H197 N191 0.985 . S
H198 N195 0.984 . S
H199 N195 0.985 . S
H200 N194 0.984 . S
H201 N194 0.984 . S
H202 N190 0.984 . S
H203 N190 0.985 . S
C204 C205 1.363 . S
C204 C210 1.379 . S
C204 N212 1.356 . S
C205 C204 1.363 . S
C205 C211 1.363 . S
C206 C207 1.363 . S
C206 C211 1.379 . S
C206 N213 1.356 . S
C207 C206 1.363 . S
C207 C210 1.363 . S
N208 C210 1.356 . S
N208 H220 0.984 . S
N208 H221 0.985 . S
N209 C211 1.356 . S
N209 H214 0.984 . S
N209 H215 0.985 . S
C210 C204 1.379 . S
C210 C207 1.363 . S
C210 N208 1.356 . S
C211 C205 1.363 . S
C211 C206 1.379 . S
C211 N209 1.356 . S
N212 C204 1.356 . S
N212 H218 0.984 . S
N212 H219 0.984 . S
N213 C206 1.356 . S
N213 H216 0.984 . S
N213 H217 0.985 . S
H214 N209 0.984 . S
H215 N209 0.985 . S
H216 N213 0.984 . S
H217 N213 0.985 . S
H218 N212 0.984 . S
H219 N212 0.984 . S
H220 N208 0.984 . S
H221 N208 0.985 . S
C222 C223 1.363 1_556 S
C222 C228 1.379 . S
C222 N230 1.356 1_556 S
C223 C222 1.363 1_554 S
C223 C229 1.363 1_554 S
C224 C225 1.363 . S
C224 C229 1.379 . S
C224 N231 1.356 . S
C225 C224 1.363 . S
C225 C228 1.363 . S
N226 C228 1.356 . S
N226 H238 0.984 . S
N226 H239 0.985 . S
N227 C229 1.356 1_554 S
N227 H232 0.984 . S
N227 H233 0.985 . S
C228 C222 1.379 . S
C228 C225 1.363 . S
C228 N226 1.356 . S
C229 C223 1.363 1_556 S
C229 C224 1.379 . S
C229 N227 1.356 1_556 S
N230 C222 1.356 1_554 S
N230 H236 0.984 . S
N230 H237 0.984 . S
N231 C224 1.356 . S
N231 H234 0.984 . S
N231 H235 0.985 . S
H232 N227 0.984 . S
H233 N227 0.985 . S
H234 N231 0.984 . S
H235 N231 0.985 . S
H236 N230 0.984 . S
H237 N230 0.984 . S
H238 N226 0.984 . S
H239 N226 0.985 . S
C240 C241 1.363 . S
C240 C246 1.379 1_545 S
C240 N248 1.356 . S
C241 C240 1.363 . S
C241 C247 1.363 . S
C242 C243 1.363 . S
C242 C247 1.379 1_565 S
C242 N249 1.356 . S
C243 C242 1.363 . S
C243 C246 1.363 . S
N244 C246 1.356 . S
N244 H256 0.984 . S
N244 H257 0.985 . S
N245 C247 1.356 . S
N245 H250 0.984 . S
N245 H251 0.985 . S
C246 C240 1.379 1_565 S
C246 C243 1.363 . S
C246 N244 1.356 . S
C247 C241 1.363 . S
C247 C242 1.379 1_545 S
C247 N245 1.356 . S
N248 C240 1.356 . S
N248 H254 0.984 . S
N248 H255 0.984 . S
N249 C242 1.356 . S
N249 H252 0.984 . S
N249 H253 0.985 . S
H250 N245 0.984 . S
H251 N245 0.985 . S
H252 N249 0.984 . S
H253 N249 0.985 . S
H254 N248 0.984 . S
H255 N248 0.984 . S
H256 N244 0.984 . S
H257 N244 0.985 . S
C258 C259 1.363 . S
C258 C264 1.379 . S
C258 N266 1.356 . S
C259 C258 1.363 . S
C259 C265 1.363 . S
C260 C261 1.363 . S
C260 C265 1.379 . S
C260 N267 1.356 . S
C261 C260 1.363 . S
C261 C264 1.363 . S
N262 C264 1.356 . S
N262 H274 0.984 . S
N262 H275 0.985 . S
N263 C265 1.356 . S
N263 H268 0.984 . S
N263 H269 0.985 . S
C264 C258 1.379 . S
C264 C261 1.363 . S
C264 N262 1.356 . S
C265 C259 1.363 . S
C265 C260 1.379 . S
C265 N263 1.356 . S
N266 C258 1.356 . S
N266 H272 0.984 . S
N266 H273 0.984 . S
N267 C260 1.356 . S
N267 H270 0.984 . S
N267 H271 0.985 . S
H268 N263 0.984 . S
H269 N263 0.985 . S
H270 N267 0.984 . S
H271 N267 0.985 . S
H272 N266 0.984 . S
H273 N266 0.984 . S
H274 N262 0.984 . S
H275 N262 0.985 . S
C276 C277 1.363 . S
C276 C282 1.379 1_655 S
C276 N284 1.356 . S
C277 C276 1.363 . S
C277 C283 1.363 . S
C278 C279 1.363 . S
C278 C283 1.379 1_455 S
C278 N285 1.356 . S
C279 C278 1.363 . S
C279 C282 1.363 . S
N280 C282 1.356 . S
N280 H292 0.984 . S
N280 H293 0.985 . S
N281 C283 1.356 . S
N281 H286 0.984 . S
N281 H287 0.985 . S
C282 C276 1.379 1_455 S
C282 C279 1.363 . S
C282 N280 1.356 . S
C283 C277 1.363 . S
C283 C278 1.379 1_655 S
C283 N281 1.356 . S
N284 C276 1.356 . S
N284 H290 0.984 1_556 S
N284 H291 0.984 . S
N285 C278 1.356 . S
N285 H288 0.984 . S
N285 H289 0.985 . S
H286 N281 0.984 . S
H287 N281 0.985 . S
H288 N285 0.984 . S
H289 N285 0.985 . S
H290 N284 0.984 1_554 S
H291 N284 0.984 . S
H292 N280 0.984 . S
H293 N280 0.985 . S
C294 C295 1.363 1_556 S
C294 C300 1.379 1_565 S
C294 N302 1.356 . S
C295 C294 1.363 1_554 S
C295 C301 1.363 . S
C296 C297 1.363 1_554 S
C296 C301 1.379 1_545 S
C296 N303 1.356 . S
C297 C296 1.363 1_556 S
C297 C300 1.363 . S
N298 C300 1.356 . S
N298 H310 0.984 . S
N298 H311 0.985 . S
N299 C301 1.356 . S
N299 H304 0.984 . S
N299 H305 0.985 . S
C300 C294 1.379 1_545 S
C300 C297 1.363 . S
C300 N298 1.356 . S
C301 C295 1.363 . S
C301 C296 1.379 1_565 S
C301 N299 1.356 . S
N302 C294 1.356 . S
N302 H308 0.984 . S
N302 H309 0.984 . S
N303 C296 1.356 . S
N303 H306 0.984 . S
N303 H307 0.985 . S
H304 N299 0.984 . S
H305 N299 0.985 . S
H306 N303 0.984 . S
H307 N303 0.985 . S
H308 N302 0.984 . S
H309 N302 0.984 . S
H310 N298 0.984 . S
H311 N298 0.985 . S
C312 C313 1.363 . S
C312 C318 1.379 . S
C312 N320 1.356 . S
C313 C312 1.363 . S
C313 C319 1.363 . S
C314 C315 1.363 . S
C314 C319 1.379 . S
C314 N321 1.356 . S
C315 C314 1.363 . S
C315 C318 1.363 . S
N316 C318 1.356 1_556 S
N316 H328 0.984 . S
N316 H329 0.985 . S
N317 C319 1.356 . S
N317 H322 0.984 . S
N317 H323 0.985 . S
C318 C312 1.379 . S
C318 C315 1.363 . S
C318 N316 1.356 1_554 S
C319 C313 1.363 . S
C319 C314 1.379 . S
C319 N317 1.356 . S
N320 C312 1.356 . S
N320 H326 0.984 1_554 S
N320 H327 0.984 . S
N321 C314 1.356 . S
N321 H324 0.984 . S
N321 H325 0.985 . S
H322 N317 0.984 . S
H323 N317 0.985 . S
H324 N321 0.984 . S
H325 N321 0.985 . S
H326 N320 0.984 1_556 S
H327 N320 0.984 . S
H328 N316 0.984 . S
H329 N316 0.985 . S
C330 C331 1.363 . S
C330 C336 1.379 1_655 S
C330 N338 1.356 . S
C331 C330 1.363 . S
C331 C337 1.363 . S
C332 C333 1.363 . S
C332 C337 1.379 1_455 S
C332 N339 1.356 . S
C333 C332 1.363 . S
C333 C336 1.363 . S
N334 C336 1.356 . S
N334 H346 0.984 . S
N334 H347 0.985 . S
N335 C337 1.356 . S
N335 H340 0.984 . S
N335 H341 0.985 . S
C336 C330 1.379 1_455 S
C336 C333 1.363 . S
C336 N334 1.356 . S
C337 C331 1.363 . S
C337 C332 1.379 1_655 S
C337 N335 1.356 . S
N338 C330 1.356 . S
N338 H344 0.984 . S
N338 H345 0.984 . S
N339 C332 1.356 . S
N339 H342 0.984 . S
N339 H343 0.985 . S
H340 N335 0.984 . S
H341 N335 0.985 . S
H342 N339 0.984 . S
H343 N339 0.985 . S
H344 N338 0.984 . S
H345 N338 0.984 . S
H346 N334 0.984 . S
H347 N334 0.985 . S
C348 C349 1.363 . S
C348 C354 1.379 . S
C348 N356 1.356 . S
C349 C348 1.363 . S
C349 C355 1.363 . S
C350 C351 1.363 . S
C350 C355 1.379 . S
C350 N357 1.356 . S
C351 C350 1.363 . S
C351 C354 1.363 . S
N352 C354 1.356 . S
N352 H364 0.984 . S
N352 H365 0.985 . S
N353 C355 1.356 . S
N353 H358 0.984 . S
N353 H359 0.985 . S
C354 C348 1.379 . S
C354 C351 1.363 . S
C354 N352 1.356 . S
C355 C349 1.363 . S
C355 C350 1.379 . S
C355 N353 1.356 . S
N356 C348 1.356 . S
N356 H362 0.984 . S
N356 H363 0.984 . S
N357 C350 1.356 . S
N357 H360 0.984 . S
N357 H361 0.985 . S
H358 N353 0.984 . S
H359 N353 0.985 . S
H360 N357 0.984 . S
H361 N357 0.985 . S
H362 N356 0.984 . S
H363 N356 0.984 . S
H364 N352 0.984 . S
H365 N352 0.985 . S
C366 C367 1.363 . S
C366 C372 1.379 . S
C366 N374 1.356 . S
C367 C366 1.363 . S
C367 C373 1.363 . S
C368 C369 1.363 . S
C368 C373 1.379 . S
C368 N375 1.356 . S
C369 C368 1.363 . S
C369 C372 1.363 . S
N370 C372 1.356 . S
N370 H382 0.984 . S
N370 H383 0.985 . S
N371 C373 1.356 . S
N371 H376 0.984 . S
N371 H377 0.985 . S
C372 C366 1.379 . S
C372 C369 1.363 . S
C372 N370 1.356 . S
C373 C367 1.363 . S
C373 C368 1.379 . S
C373 N371 1.356 . S
N374 C366 1.356 . S
N374 H380 0.984 . S
N374 H381 0.984 . S
N375 C368 1.356 . S
N375 H378 0.984 . S
N375 H379 0.985 . S
H376 N371 0.984 . S
H377 N371 0.985 . S
H378 N375 0.984 . S
H379 N375 0.985 . S
H380 N374 0.984 . S
H381 N374 0.984 . S
H382 N370 0.984 . S
H383 N370 0.985 . S
C384 C385 1.363 . S
C384 C390 1.379 . S
C384 N392 1.356 . S
C385 C384 1.363 . S
C385 C391 1.363 . S
C386 C387 1.363 . S
C386 C391 1.379 . S
C386 N393 1.356 . S
C387 C386 1.363 . S
C387 C390 1.363 . S
N388 C390 1.356 . S
N388 H400 0.984 . S
N388 H401 0.985 . S
N389 C391 1.356 . S
N389 H394 0.984 . S
N389 H395 0.985 . S
C390 C384 1.379 . S
C390 C387 1.363 . S
C390 N388 1.356 . S
C391 C385 1.363 . S
C391 C386 1.379 . S
C391 N389 1.356 . S
N392 C384 1.356 . S
N392 H398 0.984 . S
N392 H399 0.984 . S
N393 C386 1.356 . S
N393 H396 0.984 . S
N393 H397 0.985 . S
H394 N389 0.984 . S
H395 N389 0.985 . S
H396 N393 0.984 . S
H397 N393 0.985 . S
H398 N392 0.984 . S
H399 N392 0.984 . S
H400 N388 0.984 . S
H401 N388 0.985 . S
C402 C403 1.363 1_554 S
C402 C408 1.379 1_554 S
C402 N410 1.356 . S
C403 C402 1.363 1_556 S
C403 C409 1.363 . S
C404 C405 1.363 . S
C404 C409 1.379 . S
C404 N411 1.356 . S
C405 C404 1.363 . S
C405 C408 1.363 . S
N406 C408 1.356 1_554 S
N406 H418 0.984 . S
N406 H419 0.985 1_554 S
N407 C409 1.356 . S
N407 H412 0.984 . S
N407 H413 0.985 . S
C408 C402 1.379 1_556 S
C408 C405 1.363 . S
C408 N406 1.356 1_556 S
C409 C403 1.363 . S
C409 C404 1.379 . S
C409 N407 1.356 . S
N410 C402 1.356 . S
N410 H416 0.984 . S
N410 H417 0.984 . S
N411 C404 1.356 . S
N411 H414 0.984 . S
N411 H415 0.985 . S
H412 N407 0.984 . S
H413 N407 0.985 . S
H414 N411 0.984 . S
H415 N411 0.985 . S
H416 N410 0.984 . S
H417 N410 0.984 . S
H418 N406 0.984 . S
H419 N406 0.985 1_556 S
C420 C421 1.363 . S
C420 C426 1.379 . S
C420 N428 1.356 . S
C421 C420 1.363 . S
C421 C427 1.363 . S
C422 C423 1.363 1_556 S
C422 C427 1.379 1_556 S
C422 N429 1.356 . S
C423 C422 1.363 1_554 S
C423 C426 1.363 . S
N424 C426 1.356 . S
N424 H436 0.984 . S
N424 H437 0.985 . S
N425 C427 1.356 1_556 S
N425 H430 0.984 . S
N425 H431 0.985 . S
C426 C420 1.379 . S
C426 C423 1.363 . S
C426 N424 1.356 . S
C427 C421 1.363 . S
C427 C422 1.379 1_554 S
C427 N425 1.356 1_554 S
N428 C420 1.356 . S
N428 H434 0.984 . S
N428 H435 0.984 . S
N429 C422 1.356 . S
N429 H432 0.984 . S
N429 H433 0.985 . S
H430 N425 0.984 . S
H431 N425 0.985 . S
H432 N429 0.984 . S
H433 N429 0.985 . S
H434 N428 0.984 . S
H435 N428 0.984 . S
H436 N424 0.984 . S
H437 N424 0.985 . S
C438 C439 1.363 . S
C438 C444 1.379 . S
C438 N446 1.356 . S
C439 C438 1.363 . S
C439 C445 1.363 . S
C440 C441 1.363 . S
C440 C445 1.379 . S
C440 N447 1.356 . S
C441 C440 1.363 . S
C441 C444 1.363 . S
N442 C444 1.356 . S
N442 H454 0.984 . S
N442 H455 0.985 . S
N443 C445 1.356 . S
N443 H448 0.984 . S
N443 H449 0.985 . S
C444 C438 1.379 . S
C444 C441 1.363 . S
C444 N442 1.356 . S
C445 C439 1.363 . S
C445 C440 1.379 . S
C445 N443 1.356 . S
N446 C438 1.356 . S
N446 H452 0.984 . S
N446 H453 0.984 . S
N447 C440 1.356 . S
N447 H450 0.984 . S
N447 H451 0.985 . S
H448 N443 0.984 . S
H449 N443 0.985 . S
H450 N447 0.984 . S
H451 N447 0.985 . S
H452 N446 0.984 . S
H453 N446 0.984 . S
H454 N442 0.984 . S
H455 N442 0.985 . S
C133 C10 1.530 . S
C135 C7 1.525 . S
C151 C32 1.530 . S
C153 C29 1.525 1_554 S
C169 C65 1.525 . S
C171 C62 1.530 . S
C187 C87 1.525 . S
C189 C84 1.530 . S
C205 C109 1.525 . S
C207 C106 1.530 . S
C223 C128 1.530 . S
C225 C131 1.525 . S
C241 C15 1.556 . S
C243 C118 1.569 . S
C259 C18 1.569 . S
C261 C37 1.556 . S
C277 C51 1.556 . S
C279 C40 1.568 . S
C295 C73 1.556 . S
C297 C52 1.569 . S
C313 C95 1.556 . S
C315 C74 1.568 . S
C331 C96 1.568 . S
C333 C117 1.556 . S
C349 C8 1.374 . S
C351 C103 1.359 . S
C367 C30 1.374 . S
C369 C125 1.359 . S
C385 C54 1.373 . S
C387 C21 1.359 . S
C403 C76 1.374 . S
C405 C43 1.359 . S
C421 C98 1.374 . S
C423 C59 1.359 . S
C439 C81 1.359 . S
C441 C120 1.374 . S
