# Generated by pormake.
# Topology vbf, (5)-cn, num edge types: 1
# Building blocks:
#     Node 0, Type 0, BuildingBlock: XOMCOT_clean_sbu_0, # of connection points: 5
#     Node 1, Type 0, BuildingBlock: XOMCOT_clean_sbu_0, # of connection points: 5
#     Node 2, Type 0, BuildingBlock: XOMCOT_clean_sbu_0, # of connection points: 5
#     Node 3, Type 0, BuildingBlock: XOMCOT_clean_sbu_0, # of connection points: 5
#     Node 4, Type 0, BuildingBlock: XOMCOT_clean_sbu_0, # of connection points: 5
#     Node 5, Type 0, BuildingBlock: XOMCOT_clean_sbu_0, # of connection points: 5
#     Node 6, Type 0, BuildingBlock: XOMCOT_clean_sbu_0, # of connection points: 5
#     Node 7, Type 0, BuildingBlock: XOMCOT_clean_sbu_0, # of connection points: 5
#     Node 8, Type 0, BuildingBlock: XOMCOT_clean_sbu_0, # of connection points: 5
#     Node 9, Type 0, BuildingBlock: XOMCOT_clean_sbu_0, # of connection points: 5
#     Node 10, Type 0, BuildingBlock: XOMCOT_clean_sbu_0, # of connection points: 5
#     Node 11, Type 0, BuildingBlock: XOMCOT_clean_sbu_0, # of connection points: 5
#     Node 12, Type 0, BuildingBlock: XOMCOT_clean_sbu_0, # of connection points: 5
#     Node 13, Type 0, BuildingBlock: XOMCOT_clean_sbu_0, # of connection points: 5
#     Node 14, Type 0, BuildingBlock: XOMCOT_clean_sbu_0, # of connection points: 5
#     Node 15, Type 0, BuildingBlock: XOMCOT_clean_sbu_0, # of connection points: 5
#     Edge 16, Type (0, 0), BuildingBlock: EZIPEK_clean_linker_0, # of connection points: 2
#     Edge 17, Type (0, 0), BuildingBlock: EZIPEK_clean_linker_0, # of connection points: 2
#     Edge 18, Type (0, 0), BuildingBlock: EZIPEK_clean_linker_0, # of connection points: 2
#     Edge 19, Type (0, 0), BuildingBlock: EZIPEK_clean_linker_0, # of connection points: 2
#     Edge 20, Type (0, 0), BuildingBlock: EZIPEK_clean_linker_0, # of connection points: 2
#     Edge 21, Type (0, 0), BuildingBlock: EZIPEK_clean_linker_0, # of connection points: 2
#     Edge 22, Type (0, 0), BuildingBlock: EZIPEK_clean_linker_0, # of connection points: 2
#     Edge 23, Type (0, 0), BuildingBlock: EZIPEK_clean_linker_0, # of connection points: 2
#     Edge 24, Type (0, 0), BuildingBlock: EZIPEK_clean_linker_0, # of connection points: 2
#     Edge 25, Type (0, 0), BuildingBlock: EZIPEK_clean_linker_0, # of connection points: 2
#     Edge 26, Type (0, 0), BuildingBlock: EZIPEK_clean_linker_0, # of connection points: 2
#     Edge 27, Type (0, 0), BuildingBlock: EZIPEK_clean_linker_0, # of connection points: 2
#     Edge 28, Type (0, 0), BuildingBlock: EZIPEK_clean_linker_0, # of connection points: 2
#     Edge 29, Type (0, 0), BuildingBlock: EZIPEK_clean_linker_0, # of connection points: 2
#     Edge 30, Type (0, 0), BuildingBlock: EZIPEK_clean_linker_0, # of connection points: 2
#     Edge 31, Type (0, 0), BuildingBlock: EZIPEK_clean_linker_0, # of connection points: 2
#     Edge 32, Type (0, 0), BuildingBlock: EZIPEK_clean_linker_0, # of connection points: 2
#     Edge 33, Type (0, 0), BuildingBlock: EZIPEK_clean_linker_0, # of connection points: 2
#     Edge 34, Type (0, 0), BuildingBlock: EZIPEK_clean_linker_0, # of connection points: 2
#     Edge 35, Type (0, 0), BuildingBlock: EZIPEK_clean_linker_0, # of connection points: 2
#     Edge 36, Type (0, 0), BuildingBlock: EZIPEK_clean_linker_0, # of connection points: 2
#     Edge 37, Type (0, 0), BuildingBlock: EZIPEK_clean_linker_0, # of connection points: 2
#     Edge 38, Type (0, 0), BuildingBlock: EZIPEK_clean_linker_0, # of connection points: 2
#     Edge 39, Type (0, 0), BuildingBlock: EZIPEK_clean_linker_0, # of connection points: 2
#     Edge 40, Type (0, 0), BuildingBlock: EZIPEK_clean_linker_0, # of connection points: 2
#     Edge 41, Type (0, 0), BuildingBlock: EZIPEK_clean_linker_0, # of connection points: 2
#     Edge 42, Type (0, 0), BuildingBlock: EZIPEK_clean_linker_0, # of connection points: 2
#     Edge 43, Type (0, 0), BuildingBlock: EZIPEK_clean_linker_0, # of connection points: 2
#     Edge 44, Type (0, 0), BuildingBlock: EZIPEK_clean_linker_0, # of connection points: 2
#     Edge 45, Type (0, 0), BuildingBlock: EZIPEK_clean_linker_0, # of connection points: 2
#     Edge 46, Type (0, 0), BuildingBlock: EZIPEK_clean_linker_0, # of connection points: 2
#     Edge 47, Type (0, 0), BuildingBlock: EZIPEK_clean_linker_0, # of connection points: 2
#     Edge 48, Type (0, 0), BuildingBlock: EZIPEK_clean_linker_0, # of connection points: 2
#     Edge 49, Type (0, 0), BuildingBlock: EZIPEK_clean_linker_0, # of connection points: 2
#     Edge 50, Type (0, 0), BuildingBlock: EZIPEK_clean_linker_0, # of connection points: 2
#     Edge 51, Type (0, 0), BuildingBlock: EZIPEK_clean_linker_0, # of connection points: 2
#     Edge 52, Type (0, 0), BuildingBlock: EZIPEK_clean_linker_0, # of connection points: 2
#     Edge 53, Type (0, 0), BuildingBlock: EZIPEK_clean_linker_0, # of connection points: 2
#     Edge 54, Type (0, 0), BuildingBlock: EZIPEK_clean_linker_0, # of connection points: 2
#     Edge 55, Type (0, 0), BuildingBlock: EZIPEK_clean_linker_0, # of connection points: 2
# Relax obj value: 0.129
# Max RMSD: 0.206
# Mean RMSD: 0.206
data_MOF--net-vbf--node1-XOMCOT_clean_sbu_0--edge1-EZIPEK_clean_linker_0
_symmetry_space_group_name_H-M    P1
_symmetry_Int_Tables_number       1
_symmetry_cell_setting            triclinic
loop_
_symmetry_equiv_pos_as_xyz
'x, y, z'
_cell_length_a     34.167595
_cell_length_b     56.478309
_cell_length_c     19.443395
_cell_angle_alpha  90.117472
_cell_angle_beta   90.215474
_cell_angle_gamma 90.074852
loop_
_atom_site_label
_atom_site_type_symbol
_atom_site_fract_x
_atom_site_fract_y
_atom_site_fract_z
_atom_type_partial_charge
Co0 Co 0.08864 0.31925 0.01803 0.0
C1 C 0.15473 0.28564 0.98422 0.0
C2 C 0.15382 0.29878 0.08809 0.0
C3 C 0.18615 0.28492 0.08075 0.0
N4 N 0.13413 0.29944 0.02801 0.0
N5 N 0.18696 0.27671 0.01579 0.0
H6 H 0.14691 0.2826 0.93093 0.0
H7 H 0.1457 0.30845 0.13393 0.0
C8 C 0.03733 0.29818 0.13012 0.0
O9 O 1.00728 0.29916 0.08787 0.0
N10 N 0.04275 0.33994 0.01536 0.0
C11 C 0.01936 0.34659 0.96259 0.0
C12 C 0.98889 0.36 0.98793 0.0
C13 C 0.02663 0.35025 0.07157 0.0
N14 N 0.99323 0.36191 0.05649 0.0
C15 C 0.05591 0.29973 0.89537 0.0
C16 C 0.03698 0.2551 0.94156 0.0
C17 C 0.0295 0.26093 0.87248 0.0
C18 C 0.03932 0.28352 0.84993 0.0
C19 C 0.05391 0.27211 0.98595 0.0
N20 N 0.06182 0.29458 0.96339 0.0
H21 H 0.065 0.31637 0.87407 0.0
H22 H 0.06145 0.26686 0.03744 0.0
H23 H 0.02377 0.34266 0.90906 0.0
H24 H 0.03924 0.34934 0.12259 0.0
O25 O 0.11246 0.33532 0.94061 0.0
O26 O 0.12148 0.34639 0.04785 0.0
O27 O 0.07069 0.30609 0.11088 0.0
C28 C 0.12998 0.34939 0.98292 0.0
H29 H 0.20802 0.28138 0.11985 0.0
H30 H 0.96562 0.36807 0.95822 0.0
H31 H 0.03081 0.23746 0.96036 0.0
H32 H 0.03517 0.28846 0.79656 0.0
Co33 Co 0.93076 0.69141 0.01998 0.0
C34 C 0.85137 0.71259 0.98663 0.0
C35 C 0.89343 0.73878 0.01603 0.0
C36 C 0.85835 0.74986 1.00497 0.0
N37 N 0.88936 0.71521 1.00632 0.0
N38 N 0.83181 0.73342 0.98682 0.0
H39 H 0.83782 0.69605 0.9727 0.0
H40 H 0.92007 0.74781 0.02864 0.0
C41 C 0.96579 0.72614 0.12715 0.0
O42 O 0.98044 0.74006 0.08002 0.0
N43 N 0.97181 0.66805 0.03644 0.0
C44 C 0.9928 0.65628 0.98885 0.0
C45 C 0.02139 0.64317 0.0218 0.0
C46 C 0.9878 0.66176 0.09778 0.0
N47 N 0.01827 0.64666 0.09023 0.0
C48 C 0.95002 0.71732 0.90085 0.0
C49 C 0.02789 0.72674 0.92762 0.0
C50 C 1.01101 0.73525 0.86635 0.0
C51 C 0.97179 0.72992 0.85299 0.0
C52 C 1.00509 0.71334 0.97362 0.0
N53 N 0.96592 0.71004 0.96182 0.0
H54 H 0.91994 0.7132 0.88832 0.0
H55 H 0.01863 0.70625 0.01952 0.0
H56 H 0.98858 0.65781 0.93388 0.0
H57 H 0.97812 0.66851 0.14695 0.0
O58 O 0.90943 0.67223 0.94601 0.0
O59 O 0.89175 0.66878 0.05423 0.0
O60 O 0.94609 0.70752 0.11112 0.0
C61 C 0.88747 0.66163 0.99066 0.0
H62 H 0.85264 0.76864 1.00981 0.0
H63 H 0.04371 0.63254 0.9973 0.0
H64 H 0.05839 0.73017 0.93929 0.0
H65 H 0.95789 0.73559 0.80562 0.0
Co66 Co 0.18025 0.56907 0.26747 0.0
C67 C 0.11451 0.53999 0.20864 0.0
C68 C 0.12003 0.53777 0.31863 0.0
C69 C 0.08708 0.52568 0.29917 0.0
N70 N 0.13758 0.54658 0.26227 0.0
N71 N 0.0834 0.52716 0.23042 0.0
H72 H 0.11942 0.54519 0.15583 0.0
H73 H 0.12925 0.54101 0.37104 0.0
C74 C 0.23393 0.54558 0.37333 0.0
O75 O 0.26386 0.5497 0.33281 0.0
N76 N 0.22263 0.59222 0.27738 0.0
C77 C 0.24431 0.60301 0.22868 0.0
C78 C 0.27289 0.61655 0.26026 0.0
C79 C 0.23753 0.60027 0.33785 0.0
N80 N 0.26886 0.61461 0.32892 0.0
C81 C 0.21641 0.55728 0.13953 0.0
C82 C 0.24541 0.51328 0.1709 0.0
C83 C 0.25663 0.52328 0.10702 0.0
C84 C 0.23745 0.54464 0.09047 0.0
C85 C 0.22313 0.52642 0.21876 0.0
N86 N 0.21157 0.54909 0.20489 0.0
H87 H 0.20329 0.57365 0.1233 0.0
H88 H 0.21464 0.51802 0.26599 0.0
H89 H 0.24037 0.60124 0.17393 0.0
H90 H 0.2263 0.59523 0.38764 0.0
O91 O 0.15517 0.5881 0.19724 0.0
O92 O 0.14343 0.5921 0.30778 0.0
O93 O 0.1995 0.5522 0.35494 0.0
C94 C 0.13523 0.59848 0.24478 0.0
H95 H 0.06637 0.51715 0.33312 0.0
H96 H 0.29575 0.62648 0.2348 0.0
H97 H 0.2519 0.49518 0.18406 0.0
H98 H 0.23754 0.55188 0.03915 0.0
Co99 Co 0.84591 0.4456 0.27273 0.0
C100 C 0.90827 0.47956 0.22032 0.0
C101 C 0.91243 0.47086 0.32742 0.0
C102 C 0.94456 0.48396 0.3103 0.0
N103 N 0.88944 0.46792 0.27146 0.0
N104 N 0.94243 0.48911 0.24297 0.0
H105 H 0.89798 0.48052 0.16782 0.0
H106 H 0.90773 0.46251 0.37667 0.0
C107 C 0.80875 0.47074 0.3937 0.0
O108 O 0.77847 0.47598 0.35498 0.0
N109 N 0.80336 0.42195 0.2811 0.0
C110 C 0.7986 0.40192 0.24353 0.0
C111 C 0.76949 0.38815 0.27227 0.0
C112 C 0.7765 0.41978 0.33222 0.0
N113 N 0.7558 0.39944 0.32809 0.0
C114 C 0.78613 0.46035 0.18028 0.0
C115 C 0.79793 0.50861 0.19199 0.0
C116 C 0.77477 0.49989 0.13791 0.0
C117 C 0.76784 0.47557 0.13394 0.0
C118 C 0.81618 0.49267 0.23706 0.0
N119 N 0.81065 0.46874 0.23046 0.0
H120 H 0.78298 0.44161 0.17157 0.0
H121 H 0.83614 0.4996 0.27506 0.0
H122 H 0.81569 0.39709 0.19905 0.0
H123 H 0.77237 0.43212 0.37334 0.0
O124 O 0.86259 0.43212 0.18618 0.0
O125 O 0.88527 0.42047 0.28654 0.0
O126 O 0.83586 0.45713 0.37113 0.0
C127 C 0.88708 0.41896 0.21933 0.0
H128 H 0.96942 0.4877 0.34333 0.0
H129 H 0.7598 0.37091 0.25463 0.0
H130 H 0.80396 0.52738 0.19638 0.0
H131 H 0.75036 0.46821 0.09244 0.0
Co132 Co 0.09096 0.82103 0.52514 0.0
C133 C 0.15798 0.78769 0.4823 0.0
C134 C 0.15931 0.80061 0.5861 0.0
C135 C 0.19166 0.78689 0.57627 0.0
N136 N 0.13782 0.8013 0.52776 0.0
N137 N 0.19097 0.77881 0.51131 0.0
H138 H 0.14962 0.78431 0.42972 0.0
H139 H 0.152 0.80987 0.63306 0.0
C140 C 0.0739 0.78331 0.6281 0.0
O141 O 0.08438 0.76825 0.57997 0.0
N142 N 0.04498 0.84133 0.52984 0.0
C143 C 0.02301 0.84991 0.47794 0.0
C144 C 0.99195 0.86244 0.50555 0.0
C145 C 0.0271 0.84885 0.58812 0.0
N146 N 0.99448 0.86167 0.57487 0.0
C147 C 0.07455 0.79493 0.40282 0.0
C148 C 1.00545 0.77367 0.44252 0.0
C149 C 0.01955 0.76966 0.3757 0.0
C150 C 0.05442 0.7806 0.35631 0.0
C151 C 0.0265 0.78857 0.48769 0.0
N152 N 0.0616 0.79824 0.46855 0.0
H153 H 0.10029 0.80393 0.38462 0.0
H154 H 0.01423 0.79255 0.5374 0.0
H155 H 0.0287 0.84689 0.42394 0.0
H156 H 0.03743 0.84482 0.63943 0.0
O157 O 0.11209 0.83914 0.4495 0.0
O158 O 0.12417 0.84738 0.55824 0.0
O159 O 0.07427 0.80559 0.61522 0.0
C160 C 0.13096 0.85198 0.49346 0.0
H161 H 0.2142 0.78306 0.61394 0.0
H162 H 0.96874 0.87102 0.47695 0.0
H163 H 0.97809 0.76585 0.45892 0.0
H164 H 0.06579 0.77839 0.30474 0.0
Co165 Co 0.93099 0.1877 0.51742 0.0
C166 C 0.86618 0.21933 0.46348 0.0
C167 C 0.86657 0.21503 0.57329 0.0
C168 C 0.83495 0.2287 0.55568 0.0
N169 N 0.88649 0.20923 0.51604 0.0
N170 N 0.83454 0.23142 0.48698 0.0
H171 H 0.8737 0.21743 0.40974 0.0
H172 H 0.87382 0.20905 0.62455 0.0
C173 C 0.9825 0.20975 0.62737 0.0
O174 O 1.01162 0.20827 0.5836 0.0
N175 N 0.97526 0.16535 0.52435 0.0
C176 C 0.99767 0.15548 0.47486 0.0
C177 C 0.02722 0.14241 0.50524 0.0
C178 C 0.9908 0.15694 0.58407 0.0
N179 N 0.02324 0.14358 0.57407 0.0
C180 C 0.96986 0.20401 0.39629 0.0
C181 C 0.98316 0.25021 0.4365 0.0
C182 C 0.99279 0.24341 0.3691 0.0
C183 C 0.98599 0.21996 0.3496 0.0
C184 C 0.96621 0.23365 0.48156 0.0
N185 N 0.96104 0.2105 0.46225 0.0
H186 H 0.96232 0.18674 0.37718 0.0
H187 H 0.95606 0.23976 0.53088 0.0
H188 H 0.99345 0.15731 0.42028 0.0
H189 H 0.97915 0.16097 0.63439 0.0
O190 O 0.90846 0.17046 0.44076 0.0
O191 O 0.8954 0.16253 0.54913 0.0
O192 O 0.94833 0.20235 0.60943 0.0
C193 C 0.88851 0.1581 0.48413 0.0
H194 H 0.81318 0.23571 0.59053 0.0
H195 H 0.0505 0.13318 0.47879 0.0
H196 H 0.98717 0.26836 0.45312 0.0
H197 H 0.99195 0.21415 0.29753 0.0
Co198 Co 0.18095 0.06727 0.77317 0.0
C199 C 0.11219 0.03469 0.73541 0.0
C200 C 0.11562 0.04556 0.841 0.0
C201 C 0.08272 0.03205 0.83286 0.0
N202 N 0.13444 0.0474 0.78035 0.0
N203 N 0.08042 0.02526 0.76673 0.0
H204 H 0.11794 0.03259 0.68133 0.0
H205 H 0.12462 0.0542 0.88816 0.0
C206 C 0.22923 0.05035 0.89951 0.0
O207 O 0.26184 0.05964 0.87722 0.0
N208 N 0.22726 0.08787 0.77189 0.0
C209 C 0.25488 0.08919 0.72262 0.0
C210 C 0.28538 0.10324 0.74597 0.0
C211 C 0.24088 0.10195 0.82363 0.0
N212 N 0.27692 0.11086 0.80994 0.0
C213 C 0.19383 0.04047 0.65094 0.0
C214 C 0.2632 0.01864 0.6854 0.0
C215 C 0.24914 0.01647 0.61776 0.0
C216 C 0.21313 0.02681 0.60201 0.0
C217 C 0.24178 0.03168 0.73431 0.0
N218 N 0.2079 0.04316 0.71653 0.0
H219 H 0.1682 0.04983 0.63395 0.0
H220 H 0.25392 0.03316 0.78472 0.0
H221 H 0.25371 0.07996 0.67389 0.0
H222 H 0.22583 0.10441 0.87201 0.0
O223 O 0.15826 0.08467 0.69694 0.0
O224 O 0.14812 0.09398 0.80513 0.0
O225 O 0.19744 0.05223 0.86479 0.0
C226 C 0.13988 0.09782 0.74035 0.0
H227 H 0.0616 0.02774 0.87231 0.0
H228 H 0.31227 0.10703 0.71885 0.0
H229 H 0.29109 0.01096 0.69975 0.0
H230 H 0.20118 0.02568 0.55039 0.0
Co231 Co 0.83533 0.94058 0.76209 0.0
C232 C 0.91487 0.96273 0.73418 0.0
C233 C 0.87334 0.98674 0.77808 0.0
C234 C 0.90809 0.99853 0.7703 0.0
N235 N 0.87732 0.96415 0.75647 0.0
N236 N 0.93422 0.98346 0.74315 0.0
H237 H 0.92807 0.94711 0.71236 0.0
H238 H 0.84688 0.99431 0.79835 0.0
C239 C 0.78716 0.95983 0.8861 0.0
O240 O 0.75464 0.94938 0.86746 0.0
N241 N 0.79347 0.91704 0.7711 0.0
C242 C 0.76873 0.9094 0.72162 0.0
C243 C 0.74041 0.89523 0.75127 0.0
C244 C 0.78099 0.9063 0.82947 0.0
N245 N 0.74764 0.89371 0.81943 0.0
C246 C 0.8216 0.96946 0.64552 0.0
C247 C 0.74273 0.97823 0.66094 0.0
C248 C 0.76196 0.98705 0.6027 0.0
C249 C 0.802 0.98282 0.59612 0.0
C250 C 0.76383 0.96527 0.71048 0.0
N251 N 0.80304 0.96105 0.70279 0.0
H252 H 0.85191 0.96522 0.63617 0.0
H253 H 0.7478 0.95756 0.75191 0.0
H254 H 0.76992 0.91478 0.66831 0.0
H255 H 0.79435 0.90905 0.87935 0.0
O256 O 0.85792 0.92218 0.68805 0.0
O257 O 0.87304 0.91712 0.79722 0.0
O258 O 0.8189 0.95745 0.85147 0.0
C259 C 0.87869 0.9109 0.73314 0.0
H260 H 0.91403 0.01675 0.78438 0.0
H261 H 0.71507 0.8878 0.72551 0.0
H262 H 0.71147 0.98058 0.66675 0.0
H263 H 0.81773 0.98887 0.55115 0.0
Co264 Co 0.60025 0.32083 0.51725 0.0
C265 C 0.66959 0.29326 0.45796 0.0
C266 C 0.66826 0.29593 0.56817 0.0
C267 C 0.70137 0.28393 0.55005 0.0
N268 N 0.64783 0.30172 0.51113 0.0
N269 N 0.70242 0.28216 0.48119 0.0
H270 H 0.66192 0.29532 0.40426 0.0
H271 H 0.66027 0.3008 0.62004 0.0
C272 C 0.55833 0.29024 0.62135 0.0
O273 O 0.52813 0.28914 0.57944 0.0
N274 N 0.55309 0.34099 0.5306 0.0
C275 C 0.53876 0.35777 0.48776 0.0
C276 C 0.5076 0.36922 0.5184 0.0
C277 C 0.53072 0.34347 0.58832 0.0
N278 N 0.50255 0.36022 0.58171 0.0
C279 C 0.54847 0.30619 0.40753 0.0
C280 C 0.55999 0.258 0.4195 0.0
C281 C 0.53594 0.26643 0.36625 0.0
C282 C 0.53021 0.29084 0.36097 0.0
C283 C 0.57818 0.27411 0.46471 0.0
N284 N 0.57136 0.29792 0.46002 0.0
H285 H 0.54565 0.3248 0.39842 0.0
H286 H 0.59859 0.26749 0.50251 0.0
H287 H 0.55029 0.36185 0.43754 0.0
H288 H 0.53513 0.33387 0.63533 0.0
O289 O 0.61876 0.34043 0.44264 0.0
O290 O 0.63338 0.3467 0.55183 0.0
O291 O 0.58808 0.30292 0.60568 0.0
C292 C 0.63886 0.35242 0.4874 0.0
H293 H 0.72354 0.2772 0.58482 0.0
H294 H 0.49034 0.38337 0.4963 0.0
H295 H 0.56593 0.23924 0.42428 0.0
H296 H 0.51282 0.29811 0.31936 0.0
Co297 Co 0.42961 0.68971 0.52497 0.0
C298 C 0.35397 0.71437 0.48611 0.0
C299 C 0.38976 0.7349 0.55453 0.0
C300 C 0.35605 0.74727 0.54207 0.0
N301 N 0.38895 0.71415 0.51973 0.0
N302 N 0.33353 0.73439 0.49949 0.0
H303 H 0.34296 0.70011 0.4543 0.0
H304 H 0.41268 0.74076 0.58864 0.0
C305 C 0.48166 0.70861 0.63991 0.0
O306 O 0.51162 0.70614 0.59827 0.0
N307 N 0.47034 0.66528 0.53314 0.0
C308 C 0.49099 0.65452 0.48288 0.0
C309 C 0.5196 0.64053 0.51215 0.0
C310 C 0.48596 0.65666 0.5924 0.0
N311 N 0.51679 0.64218 0.58104 0.0
C312 C 0.46912 0.70374 0.40214 0.0
C313 C 0.49319 0.74826 0.44284 0.0
C314 C 0.498 0.7415 0.37411 0.0
C315 C 0.48648 0.71881 0.35437 0.0
C316 C 0.47573 0.73252 0.48944 0.0
N317 N 0.4638 0.71034 0.46928 0.0
H318 H 0.4579 0.68721 0.38299 0.0
H319 H 0.47072 0.73888 0.54071 0.0
H320 H 0.48638 0.65663 0.42846 0.0
H321 H 0.47602 0.6615 0.64323 0.0
O322 O 0.40542 0.67264 0.44922 0.0
O323 O 0.39065 0.66666 0.55781 0.0
O324 O 0.44736 0.70342 0.61759 0.0
C325 C 0.38437 0.66126 0.49337 0.0
H326 H 0.34788 0.76407 0.56475 0.0
H327 H 0.54189 0.63068 0.48496 0.0
H328 H 0.50137 0.76589 0.45964 0.0
H329 H 0.48911 0.71314 0.3013 0.0
Co330 Co 0.68098 0.56892 0.77345 0.0
C331 C 0.60353 0.54482 0.74176 0.0
C332 C 0.64449 0.52158 0.79038 0.0
C333 C 0.61044 0.50931 0.77942 0.0
N334 N 0.64052 0.54409 0.76781 0.0
N335 N 0.58469 0.5239 0.74924 0.0
H336 H 0.59037 0.56004 0.71765 0.0
H337 H 0.67025 0.514 0.81272 0.0
C338 C 0.72178 0.53855 0.88285 0.0
O339 O 0.7365 0.52429 0.83646 0.0
N340 N 0.72109 0.59342 0.7831 0.0
C341 C 0.73999 0.60511 0.73272 0.0
C342 C 0.76974 0.61849 0.76179 0.0
C343 C 0.73953 0.60001 0.84209 0.0
N344 N 0.76946 0.61515 0.83048 0.0
C345 C 0.69976 0.53814 0.66233 0.0
C346 C 0.77982 0.53566 0.68096 0.0
C347 C 0.76246 0.52303 0.62665 0.0
C348 C 0.72206 0.52456 0.61734 0.0
C349 C 0.75624 0.54927 0.72497 0.0
N350 N 0.71632 0.54946 0.7175 0.0
H351 H 0.6689 0.5399 0.65157 0.0
H352 H 0.77009 0.55901 0.76623 0.0
H353 H 0.73385 0.60315 0.6784 0.0
H354 H 0.73236 0.59329 0.89252 0.0
O355 O 0.65728 0.58571 0.69721 0.0
O356 O 0.64158 0.59152 0.80588 0.0
O357 O 0.69899 0.55561 0.86601 0.0
C358 C 0.63569 0.59692 0.74135 0.0
H359 H 0.6048 0.49103 0.79296 0.0
H360 H 0.79101 0.62907 0.73439 0.0
H361 H 0.81121 0.53521 0.68872 0.0
H362 H 0.70787 0.51561 0.57464 0.0
Co363 Co 0.34198 0.43636 0.76736 0.0
C364 C 0.40994 0.46936 0.72832 0.0
C365 C 0.41266 0.45388 0.82895 0.0
C366 C 0.44507 0.46772 0.82062 0.0
N367 N 0.39034 0.4547 0.77158 0.0
N368 N 0.44345 0.47742 0.7577 0.0
H369 H 0.40041 0.47436 0.67749 0.0
H370 H 0.40536 0.44398 0.87471 0.0
C371 C 0.32841 0.47487 0.87177 0.0
O372 O 0.34883 0.48855 0.83076 0.0
N373 N 0.29449 0.4173 0.7707 0.0
C374 C 0.27175 0.40922 0.71897 0.0
C375 C 0.24013 0.39722 0.74696 0.0
C376 C 0.27646 0.4101 0.82914 0.0
N377 N 0.24316 0.39785 0.81626 0.0
C378 C 0.32923 0.46127 0.64154 0.0
C379 C 0.26496 0.48773 0.67947 0.0
C380 C 0.27954 0.48999 0.61224 0.0
C381 C 0.31181 0.47632 0.59366 0.0
C382 C 0.283 0.47194 0.72594 0.0
N383 N 0.31583 0.45959 0.70756 0.0
H384 H 0.35394 0.45096 0.62477 0.0
H385 H 0.27019 0.46952 0.77612 0.0
H386 H 0.27746 0.41206 0.66493 0.0
H387 H 0.28737 0.41381 0.88037 0.0
O388 O 0.3638 0.41709 0.69417 0.0
O389 O 0.37283 0.40928 0.80344 0.0
O390 O 0.32305 0.45309 0.85499 0.0
C391 C 0.3813 0.40422 0.73948 0.0
H392 H 0.46804 0.47075 0.85817 0.0
H393 H 0.21651 0.38887 0.71866 0.0
H394 H 0.23959 0.49778 0.69544 0.0
H395 H 0.32372 0.47738 0.54217 0.0
Co396 Co 0.59132 0.8189 0.02582 0.0
C397 C 0.65464 0.78475 0.98085 0.0
C398 C 0.65646 0.79501 0.08737 0.0
C399 C 0.68766 0.78061 0.07485 0.0
N400 N 0.63568 0.79773 0.02898 0.0
N401 N 0.68677 0.77417 1.00819 0.0
H402 H 0.64561 0.78333 0.92758 0.0
H403 H 0.64985 0.80358 0.13575 0.0
C404 C 0.54058 0.7953 0.13223 0.0
O405 O 0.51201 0.79571 0.08679 0.0
N406 N 0.54707 0.84115 0.03057 0.0
C407 C 0.52856 0.85376 0.98118 0.0
C408 C 0.49842 0.86657 1.01067 0.0
C409 C 0.52918 0.8479 0.08975 0.0
N410 N 0.4987 0.86266 0.07898 0.0
C411 C 0.54862 0.80247 0.90798 0.0
C412 C 0.5442 0.75524 0.94313 0.0
C413 C 0.53029 0.7624 0.87847 0.0
C414 C 0.5324 0.78635 0.86146 0.0
C415 C 0.56048 0.77206 0.98831 0.0
N416 N 0.56163 0.79559 0.97142 0.0
H417 H 0.55302 0.82025 0.89046 0.0
H418 H 0.57337 0.76597 0.03571 0.0
H419 H 0.53656 0.85443 0.92766 0.0
H420 H 0.53841 0.84241 0.14043 0.0
O421 O 0.61401 0.83523 0.94814 0.0
O422 O 0.62697 0.84446 0.05606 0.0
O423 O 0.57382 0.80457 0.11737 0.0
C424 C 0.63408 0.848 0.99077 0.0
H425 H 0.70989 0.77543 0.1117 0.0
H426 H 0.47779 0.87786 0.984 0.0
H427 H 0.54378 0.73672 0.95745 0.0
H428 H 0.52296 0.79243 0.81125 0.0
Co429 Co 0.43378 0.19467 1.0097 0.0
C430 C 0.35376 0.21696 1.00053 0.0
C431 C 0.39864 0.24294 0.01439 0.0
C432 C 0.36326 0.25435 1.01121 0.0
N433 N 0.39316 0.21936 1.00651 0.0
N434 N 0.33513 0.23801 1.00194 0.0
H435 H 0.33846 0.20033 0.99563 0.0
H436 H 0.42643 0.25173 0.01923 0.0
C437 C 0.47154 0.22505 0.12174 0.0
O438 O 0.48476 0.2396 0.07497 0.0
N439 N 0.4737 0.17011 0.01948 0.0
C440 C 0.49266 0.15798 0.96999 0.0
C441 C 0.52214 0.14472 1.00033 0.0
C442 C 0.49159 0.16374 0.0791 0.0
N443 N 0.52147 0.14851 0.0689 0.0
C444 C 0.45363 0.2261 0.9027 0.0
C445 C 0.53392 0.22667 0.91782 0.0
C446 C 0.51661 0.2393 0.86356 0.0
C447 C 0.47603 0.23905 0.85691 0.0
C448 C 0.50998 0.21437 0.96448 0.0
N449 N 0.47001 0.2148 0.95788 0.0
H450 H 0.42274 0.2245 0.89185 0.0
H451 H 0.52365 0.20442 1.00527 0.0
H452 H 0.48678 0.15951 0.91549 0.0
H453 H 0.48395 0.17057 0.12924 0.0
O454 O 0.41314 0.17957 0.92755 0.0
O455 O 0.39269 0.17107 0.03151 0.0
O456 O 0.44997 0.20724 0.10505 0.0
C457 C 0.38917 0.16763 0.96497 0.0
H458 H 0.35852 0.27328 0.01386 0.0
H459 H 0.54342 0.13386 0.97388 0.0
H460 H 0.56546 0.22582 0.92287 0.0
H461 H 0.46181 0.24771 0.81386 0.0
Co462 Co 0.67584 0.07137 0.26354 0.0
C463 C 0.60592 0.04121 0.21482 0.0
C464 C 0.60622 0.05112 0.32131 0.0
C465 C 0.57271 0.03862 0.30855 0.0
N466 N 0.62775 0.05256 0.26336 0.0
N467 N 0.57256 0.03233 0.24198 0.0
H468 H 0.61308 0.0396 0.16118 0.0
H469 H 0.61423 0.05912 0.36992 0.0
C470 C 0.69018 0.03204 0.36347 0.0
O471 O 0.67263 0.01816 0.3186 0.0
N472 N 0.72269 0.09088 0.27089 0.0
C473 C 0.74376 0.10109 0.22058 0.0
C474 C 0.7749 0.11317 0.25025 0.0
C475 C 0.74129 0.09684 0.33024 0.0
N476 N 0.77323 0.11047 0.31919 0.0
C477 C 0.69076 0.04564 0.13987 0.0
C478 C 0.76016 0.02449 0.17874 0.0
C479 C 0.7449 0.01983 0.11286 0.0
C480 C 0.7099 0.03079 0.09377 0.0
C481 C 0.73931 0.03918 0.22432 0.0
N482 N 0.70413 0.04881 0.2055 0.0
H483 H 0.6657 0.05525 0.12137 0.0
H484 H 0.75191 0.04317 0.27408 0.0
H485 H 0.73713 0.09975 0.16627 0.0
H486 H 0.73169 0.09142 0.38078 0.0
O487 O 0.65534 0.09056 0.18975 0.0
O488 O 0.64397 0.09776 0.29919 0.0
O489 O 0.69328 0.05428 0.35094 0.0
C490 C 0.63698 0.1031 0.23482 0.0
H491 H 0.5498 0.03462 0.34509 0.0
H492 H 0.79727 0.12302 0.22329 0.0
H493 H 0.7879 0.01697 0.19453 0.0
H494 H 0.69791 0.02839 0.04255 0.0
Co495 Co 0.34154 0.93808 0.27261 0.0
C496 C 0.4095 0.96869 0.22263 0.0
C497 C 0.41249 0.95813 0.32847 0.0
C498 C 0.44558 0.97076 0.31364 0.0
N499 N 0.38929 0.95703 0.27217 0.0
N500 N 0.44364 0.97743 0.24748 0.0
H501 H 0.4005 0.97058 0.16979 0.0
H502 H 0.40581 0.94994 0.37727 0.0
C503 C 0.32879 0.97604 0.37923 0.0
O504 O 0.34834 0.99048 0.33909 0.0
N505 N 0.29488 0.91847 0.27895 0.0
C506 C 0.27208 0.90984 0.22805 0.0
C507 C 0.24076 0.89795 0.25718 0.0
C508 C 0.2772 0.91172 0.33808 0.0
N509 N 0.24407 0.89921 0.32633 0.0
C510 C 0.3238 0.96335 0.14917 0.0
C511 C 0.25916 0.98794 0.19518 0.0
C512 C 0.27201 0.9914 0.12747 0.0
C513 C 0.30438 0.97865 0.10454 0.0
C514 C 0.27965 0.97231 0.2386 0.0
N515 N 0.31271 0.961 0.21628 0.0
H516 H 0.34762 0.95309 0.12874 0.0
H517 H 0.26838 0.96905 0.2895 0.0
H518 H 0.27747 0.91234 0.17376 0.0
H519 H 0.28809 0.916 0.38894 0.0
O520 O 0.36196 0.9192 0.19791 0.0
O521 O 0.37381 0.9117 0.30704 0.0
O522 O 0.3244 0.9543 0.36149 0.0
C523 C 0.38078 0.90665 0.24255 0.0
H524 H 0.46956 0.97463 0.34848 0.0
H525 H 0.21706 0.88932 0.22979 0.0
H526 H 0.23342 0.99702 0.21397 0.0
H527 H 0.31444 0.98036 0.05199 0.0
C528 C 0.20052 0.35962 0.95854 0.0
C529 C 0.16039 0.36616 0.95556 0.0
C530 C 0.17729 0.39708 0.87097 0.0
C531 C 0.21588 0.38797 0.86604 0.0
N532 N 0.26345 0.359 0.90054 0.0
N533 N 0.11005 0.39099 0.90794 0.0
C534 C 0.22743 0.36898 0.9093 0.0
C535 C 0.14873 0.38501 0.91172 0.0
N536 N 0.21285 0.34437 1.00845 0.0
N537 N 0.16835 0.4177 0.83795 0.0
H538 H 0.08901 0.38359 0.94026 0.0
H539 H 0.09862 0.40248 0.87122 0.0
H540 H 0.18893 0.42703 0.80917 0.0
H541 H 0.14193 0.42661 0.84396 0.0
H542 H 0.24209 0.34009 0.01701 0.0
H543 H 0.19407 0.33802 0.04618 0.0
H544 H 0.27248 0.34361 0.92532 0.0
H545 H 0.28327 0.365 0.86383 0.0
C546 C 0.86741 0.62725 0.91503 0.0
C547 C 0.85688 0.64425 0.96589 0.0
C548 C 0.78767 0.63966 0.93243 0.0
C549 C 0.79839 0.62357 0.87978 0.0
N550 N 0.84625 0.59686 0.83397 0.0
N551 N 0.80547 0.6588 0.03971 0.0
C552 C 0.8377 0.61576 0.87516 0.0
C553 C 0.81652 0.64787 0.98028 0.0
N554 N 0.90603 0.62221 0.90478 0.0
N555 N 0.75032 0.64816 0.93443 0.0
H556 H 0.82534 0.66424 0.07718 0.0
H557 H 0.77642 0.65998 0.05543 0.0
H558 H 0.72875 0.64275 0.89969 0.0
H559 H 0.74171 0.662 0.96648 0.0
H560 H 0.91642 0.61255 0.86302 0.0
H561 H 0.92792 0.6282 0.93807 0.0
H562 H 0.87354 0.58873 0.83239 0.0
H563 H 0.82483 0.5879 0.80573 0.0
C564 C 0.0845 0.64702 0.14271 0.0
C565 C 0.04562 0.63827 0.14227 0.0
C566 C 0.0635 0.60953 0.23274 0.0
C567 C 0.10367 0.61563 0.22428 0.0
N568 N 0.15244 0.6416 0.17715 0.0
N569 N 0.99615 0.6134 0.19108 0.0
C570 C 0.11399 0.63508 0.18165 0.0
C571 C 0.03442 0.62042 0.18963 0.0
N572 N 0.09275 0.66711 0.10653 0.0
N573 N 0.05356 0.59274 0.28011 0.0
H574 H 0.97492 0.62067 0.15882 0.0
H575 H 0.98501 0.60028 0.22286 0.0
H576 H 0.07407 0.5846 0.31193 0.0
H577 H 0.0251 0.58748 0.2909 0.0
H578 H 0.11954 0.67586 0.10819 0.0
H579 H 0.0714 0.67623 0.07873 0.0
H580 H 0.16326 0.65354 0.14123 0.0
H581 H 0.17399 0.63452 0.20923 0.0
C582 C 0.97224 0.40042 0.10204 0.0
C583 C 0.9689 0.37564 0.10228 0.0
C584 C 0.9158 0.37871 0.18719 0.0
C585 C 0.91596 0.40382 0.18051 0.0
N586 N 0.93689 0.43684 0.10889 0.0
N587 N 0.93104 0.34131 0.13127 0.0
C588 C 0.94209 0.41427 0.13168 0.0
C589 C 0.93895 0.36473 0.14131 0.0
N590 N 1.00389 0.41082 0.07186 0.0
N591 N 0.89289 0.36808 0.23551 0.0
H592 H 0.94713 0.33094 0.0971 0.0
H593 H 0.90698 0.33276 0.15276 0.0
H594 H 0.87425 0.37747 0.26785 0.0
H595 H 0.89454 0.35005 0.24651 0.0
H596 H 1.00976 0.4289 0.07594 0.0
H597 H 0.02609 0.401 0.04863 0.0
H598 H 0.9534 0.44428 0.06945 0.0
H599 H 0.91309 0.44707 0.12205 0.0
C600 C 0.14975 0.88746 0.42237 0.0
C601 C 0.16134 0.86894 0.46742 0.0
C602 C 0.22844 0.87145 0.42191 0.0
C603 C 0.21688 0.88994 0.37697 0.0
N604 N 0.16956 0.91954 0.34662 0.0
N605 N 0.21397 0.84829 0.52381 0.0
C606 C 0.17836 0.89918 0.38107 0.0
C607 C 0.20153 0.86266 0.47187 0.0
N608 N 0.1111 0.89346 0.41807 0.0
N609 N 0.26447 0.86138 0.41419 0.0
H610 H 0.19534 0.84271 0.56275 0.0
H611 H 0.24326 0.84428 0.53293 0.0
H612 H 0.28435 0.86699 0.37706 0.0
H613 H 0.27337 0.84623 0.4403 0.0
H614 H 0.09973 0.90465 0.38052 0.0
H615 H 0.09006 0.88641 0.45107 0.0
H616 H 0.14314 0.92851 0.35183 0.0
H617 H 0.19024 0.92864 0.31743 0.0
C618 C 0.81745 0.14655 0.46593 0.0
C619 C 0.85786 0.14128 0.45732 0.0
C620 C 0.84016 0.11142 0.36954 0.0
C621 C 0.80095 0.11957 0.36983 0.0
N622 N 0.75165 0.14505 0.4171 0.0
N623 N 0.90793 0.11792 0.40316 0.0
C624 C 0.78927 0.13691 0.41865 0.0
C625 C 0.86916 0.1233 0.41008 0.0
N626 N 0.80613 0.16113 0.51833 0.0
N627 N 0.84924 0.09177 0.3318 0.0
H628 H 0.92938 0.12475 0.43603 0.0
H629 H 0.91902 0.10735 0.36389 0.0
H630 H 0.82829 0.0825 0.30328 0.0
H631 H 0.87635 0.08341 0.33344 0.0
H632 H 0.77711 0.16432 0.53136 0.0
H633 H 0.82586 0.16866 0.55296 0.0
H634 H 0.74114 0.1586 0.44815 0.0
H635 H 0.73104 0.13913 0.38134 0.0
C636 C 0.04031 0.11679 0.67207 0.0
C637 C 0.05106 0.13489 0.62525 0.0
C638 C 0.11921 0.13265 0.66763 0.0
C639 C 0.10863 0.11432 0.71396 0.0
N640 N 0.05736 0.09334 0.77268 0.0
N641 N 0.09798 0.16432 0.59153 0.0
C642 C 0.06848 0.10796 0.72046 0.0
C643 C 0.08978 0.14411 0.62712 0.0
N644 N 1.00371 0.10717 0.66765 0.0
N645 N 0.15775 0.13874 0.66128 0.0
H646 H 0.07676 0.17337 0.56329 0.0
H647 H 0.12446 0.17337 0.59532 0.0
H648 H 0.17948 0.13195 0.69354 0.0
H649 H 0.16837 0.14972 0.62264 0.0
H650 H 0.99477 0.0924 0.69542 0.0
H651 H 0.98294 0.11296 0.63206 0.0
H652 H 0.02836 0.08922 0.78372 0.0
H653 H 0.07703 0.08729 0.80962 0.0
C654 C 0.94942 0.89739 0.72069 0.0
C655 C 0.90889 0.89331 0.70871 0.0
C656 C 0.9269 0.86312 0.62227 0.0
C657 C 0.96631 0.87106 0.62395 0.0
N658 N 0.01458 0.89755 0.67146 0.0
N659 N 0.85885 0.87075 0.65055 0.0
C660 C 0.97757 0.88844 0.67303 0.0
C661 C 0.89766 0.87558 0.66036 0.0
N662 N 0.96123 0.90963 0.77762 0.0
N663 N 0.91781 0.84312 0.58598 0.0
H664 H 0.83709 0.87781 0.68201 0.0
H665 H 0.84822 0.86039 0.61024 0.0
H666 H 0.93896 0.83324 0.56015 0.0
H667 H 0.89041 0.83505 0.58705 0.0
H668 H 0.99051 0.91127 0.79207 0.0
H669 H 0.9417 0.9158 0.81443 0.0
H670 H 0.0233 0.91208 0.70089 0.0
H671 H 0.03548 0.89202 0.63599 0.0
C672 C 0.73895 0.37683 0.43347 0.0
C673 C 0.72699 0.39069 0.37642 0.0
C674 C 0.65849 0.38657 0.41257 0.0
C675 C 0.66959 0.36948 0.46244 0.0
N676 N 0.72113 0.34958 0.5249 0.0
N677 N 0.67601 0.40897 0.31046 0.0
C678 C 0.71015 0.36529 0.47515 0.0
C679 C 0.68689 0.39579 0.36609 0.0
N680 N 0.77802 0.37475 0.44726 0.0
N681 N 0.62081 0.39453 0.41167 0.0
H682 H 0.69639 0.41646 0.27704 0.0
H683 H 0.64706 0.41133 0.2951 0.0
H684 H 0.60063 0.38926 0.44871 0.0
H685 H 0.61088 0.40815 0.38018 0.0
H686 H 0.78943 0.3668 0.49115 0.0
H687 H 0.79937 0.38245 0.41623 0.0
H688 H 0.74961 0.34359 0.53208 0.0
H689 H 0.70151 0.342 0.55911 0.0
C690 C 0.33536 0.61438 0.3807 0.0
C691 C 0.29641 0.62302 0.3806 0.0
C692 C 0.31332 0.64906 0.47794 0.0
C693 C 0.35368 0.64421 0.46791 0.0
N694 N 0.40326 0.62053 0.4135 0.0
N695 N 0.24821 0.6494 0.42728 0.0
C696 C 0.36464 0.62618 0.42063 0.0
C697 C 0.28518 0.64032 0.42956 0.0
N698 N 0.34392 0.59444 0.34394 0.0
N699 N 0.30173 0.66176 0.53391 0.0
H700 H 0.22722 0.64355 0.39205 0.0
H701 H 0.23942 0.66395 0.45638 0.0
H702 H 0.32137 0.66776 0.57111 0.0
H703 H 0.27247 0.6639 0.54741 0.0
H704 H 0.37081 0.58583 0.34618 0.0
H705 H 0.3227 0.58515 0.31612 0.0
H706 H 0.41406 0.60994 0.37403 0.0
H707 H 0.42475 0.62708 0.44671 0.0
C708 C 0.53516 0.61692 0.68106 0.0
C709 C 0.54547 0.63389 0.63074 0.0
C710 C 0.61437 0.63118 0.66717 0.0
C711 C 0.60432 0.61347 0.71592 0.0
N712 N 0.55334 0.59636 0.7857 0.0
N713 N 0.59225 0.66236 0.59033 0.0
C714 C 0.5641 0.60862 0.72846 0.0
C715 C 0.58439 0.64259 0.62822 0.0
N716 N 0.49821 0.60771 0.68109 0.0
N717 N 0.65279 0.63702 0.65802 0.0
H718 H 0.57054 0.67152 0.5636 0.0
H719 H 0.61914 0.67105 0.59081 0.0
H720 H 0.67477 0.63104 0.69096 0.0
H721 H 0.6629 0.64726 0.61732 0.0
H722 H 0.48997 0.59332 0.71123 0.0
H723 H 0.47663 0.61323 0.64661 0.0
H724 H 0.5243 0.59425 0.80063 0.0
H725 H 0.57339 0.59054 0.8223 0.0
C726 C 0.4825 0.38325 0.68559 0.0
C727 C 0.47291 0.36744 0.6313 0.0
C728 C 0.40306 0.37065 0.66223 0.0
C729 C 0.41246 0.38707 0.71556 0.0
N730 N 0.46219 0.4031 0.79057 0.0
N731 N 0.42582 0.34212 0.57685 0.0
C732 C 0.45258 0.39139 0.73144 0.0
C733 C 0.43363 0.35985 0.62274 0.0
N734 N 0.52002 0.39137 0.69116 0.0
N735 N 0.36461 0.36585 0.64851 0.0
H736 H 0.44777 0.33416 0.54763 0.0
H737 H 0.39858 0.33409 0.57127 0.0
H738 H 0.34201 0.37194 0.67988 0.0
H739 H 0.35496 0.35644 0.60561 0.0
H740 H 0.52842 0.40506 0.724 0.0
H741 H 0.54237 0.38549 0.65898 0.0
H742 H 0.49082 0.40549 0.80769 0.0
H743 H 0.44136 0.40794 0.8268 0.0
C744 C 0.70511 0.85632 0.96376 0.0
C745 C 0.66547 0.864 0.96308 0.0
C746 C 0.68327 0.89494 0.87941 0.0
C747 C 0.72098 0.88467 0.87153 0.0
N748 N 0.76748 0.85483 0.90366 0.0
N749 N 0.61655 0.89088 0.92088 0.0
C750 C 0.732 0.86533 0.91383 0.0
C751 C 0.65464 0.88354 0.92139 0.0
N752 N 0.71695 0.84037 1.01214 0.0
N753 N 0.67526 0.91602 0.84815 0.0
H754 H 0.59582 0.88422 0.95504 0.0
H755 H 0.60523 0.90282 0.88531 0.0
H756 H 0.69564 0.92494 0.81803 0.0
H757 H 0.64988 0.92573 0.85686 0.0
H758 H 0.74587 0.8351 0.01897 0.0
H759 H 0.69826 0.83432 0.05043 0.0
H760 H 0.77623 0.83928 0.92785 0.0
H761 H 0.78728 0.86079 0.86685 0.0
C762 C 0.33127 0.16366 0.88152 0.0
C763 C 0.35727 0.15308 0.93085 0.0
C764 C 0.33121 0.11401 0.89642 0.0
C765 C 0.30237 0.12493 0.85426 0.0
N766 N 0.27058 0.16033 0.81651 0.0
N767 N 0.3777 0.11777 0.99073 0.0
C768 C 0.30091 0.14983 0.85063 0.0
C769 C 0.3554 0.12815 0.94079 0.0
N770 N 0.33641 0.18654 0.86065 0.0
N771 N 0.33744 0.09027 0.89043 0.0
H772 H 0.39737 0.12719 0.02145 0.0
H773 H 0.37452 0.1001 1.00492 0.0
H774 H 0.32267 0.08 0.85417 0.0
H775 H 0.36018 0.08139 0.91512 0.0
H776 H 0.321 0.19399 0.81975 0.0
H777 H 0.35841 0.19762 0.8787 0.0
H778 H 0.26525 0.17849 0.81831 0.0
H779 H 0.24877 0.15059 0.79155 0.0
C780 C 0.61815 0.13722 0.15889 0.0
C781 C 0.6069 0.12053 0.20981 0.0
C782 C 0.53805 0.12465 0.17288 0.0
C783 C 0.54972 0.14031 0.1197 0.0
N784 N 0.59832 0.16668 0.07453 0.0
N785 N 0.55525 0.10373 0.27815 0.0
C786 C 0.58909 0.14819 0.11665 0.0
C787 C 0.56644 0.11616 0.22137 0.0
N788 N 0.65698 0.14212 0.15004 0.0
N789 N 0.50008 0.11709 0.17482 0.0
H790 H 0.57509 0.09806 0.31529 0.0
H791 H 0.52628 0.10107 0.29247 0.0
H792 H 0.47921 0.12236 0.13874 0.0
H793 H 0.4895 0.10461 0.20929 0.0
H794 H 0.66802 0.15159 0.10854 0.0
H795 H 0.67845 0.13599 0.18392 0.0
H796 H 0.62558 0.17491 0.07396 0.0
H797 H 0.57745 0.17524 0.04425 0.0
C798 C 0.43082 0.86234 0.12433 0.0
C799 C 0.46995 0.87061 0.12893 0.0
C800 C 0.45182 0.89432 0.23065 0.0
C801 C 0.41152 0.8897 0.2173 0.0
N802 N 0.36247 0.86798 0.15434 0.0
N803 N 0.51845 0.89434 0.18618 0.0
C804 C 0.4011 0.87309 0.16531 0.0
C805 C 0.48078 0.8863 0.18281 0.0
N806 N 0.4225 0.84363 0.08212 0.0
N807 N 0.46238 0.90644 0.28865 0.0
H808 H 0.53969 0.88941 0.15059 0.0
H809 H 0.52831 0.90696 0.2212 0.0
H810 H 0.44223 0.91153 0.32576 0.0
H811 H 0.49121 0.90921 0.30404 0.0
H812 H 0.39543 0.83517 0.0805 0.0
H813 H 0.44396 0.83509 0.05324 0.0
H814 H 0.35216 0.85852 0.11197 0.0
H815 H 0.34046 0.87395 0.18715 0.0
C816 C 0.98486 0.27957 0.2928 0.0
C817 C 1.00823 0.26051 0.31676 0.0
C818 C 0.05506 0.2679 0.22306 0.0
C819 C 0.03182 0.28727 0.19994 0.0
N820 N 0.9842 0.31665 0.23106 0.0
N821 N 0.07107 0.24125 0.31694 0.0
C822 C 0.99966 0.29467 0.24056 0.0
C823 C 0.04517 0.25624 0.28578 0.0
N824 N 0.94766 0.28266 0.31675 0.0
N825 N 0.08534 0.25973 0.18406 0.0
H826 H 0.06494 0.2328 0.36338 0.0
H827 H 0.09987 0.23913 0.3007 0.0
H828 H 0.09465 0.26789 0.13921 0.0
H829 H 0.09978 0.24386 0.19403 0.0
H830 H 0.92824 0.29484 0.29538 0.0
H831 H 0.9349 0.27167 0.35337 0.0
H832 H 0.96296 0.32386 0.26322 0.0
H833 H 0.9964 0.32863 0.19659 0.0
C834 C 0.01761 0.73376 0.29977 0.0
C835 C 0.99871 0.75452 0.32389 0.0
C836 C 0.94978 0.7503 0.23157 0.0
C837 C 0.97317 0.7326 0.20033 0.0
N838 N 0.03121 0.7084 0.20208 0.0
N839 N 0.9474 0.78353 0.31066 0.0
C840 C 1.00731 0.72428 0.23425 0.0
C841 C 0.96445 0.76284 0.29002 0.0
N842 N 0.0457 0.72328 0.33953 0.0
N843 N 0.91367 0.7552 0.20487 0.0
H844 H 0.95705 0.7932 0.35316 0.0
H845 H 0.92532 0.79196 0.28299 0.0
H846 H 0.9023 0.74612 0.1625 0.0
H847 H 0.89365 0.76643 0.22854 0.0
H848 H 0.05826 0.70699 0.32776 0.0
H849 H 0.05353 0.72984 0.38792 0.0
H850 H 0.05868 0.7036 0.22074 0.0
H851 H 0.02481 0.70132 0.15382 0.0
C852 C 0.22009 0.51217 0.45855 0.0
C853 C 0.2409 0.53324 0.44105 0.0
C854 C 0.28325 0.52767 0.54311 0.0
C855 C 0.26252 0.5067 0.56016 0.0
N856 N 0.20638 0.4816 0.54315 0.0
N857 N 0.2863 0.56379 0.47637 0.0
C858 C 0.2292 0.49994 0.52098 0.0
C859 C 0.27072 0.54177 0.4863 0.0
N860 N 0.19348 0.50277 0.41346 0.0
N861 N 0.31573 0.53381 0.58046 0.0
H862 H 0.27803 0.57471 0.43594 0.0
H863 H 0.30481 0.57222 0.51133 0.0
H864 H 0.32405 0.52503 0.62537 0.0
H865 H 0.33555 0.54679 0.56536 0.0
H866 H 0.18125 0.48599 0.41869 0.0
H867 H 0.18551 0.51087 0.36766 0.0
H868 H 0.17919 0.47747 0.52194 0.0
H869 H 0.21303 0.47165 0.58673 0.0
C870 C 0.80533 0.52 0.52188 0.0
C871 C 0.7857 0.50869 0.577 0.0
C872 C 0.79437 0.47003 0.52063 0.0
C873 C 0.81093 0.48171 0.46328 0.0
N874 N 0.84575 0.51542 0.42036 0.0
N875 N 0.77026 0.4729 0.63811 0.0
C876 C 0.82091 0.50597 0.46776 0.0
C877 C 0.78326 0.48358 0.57945 0.0
N878 N 0.80699 0.54416 0.51904 0.0
N879 N 0.78849 0.44614 0.51773 0.0
H880 H 0.76236 0.48254 0.68177 0.0
H881 H 0.76997 0.45468 0.64569 0.0
H882 H 0.80031 0.43578 0.47857 0.0
H883 H 0.77222 0.43664 0.55341 0.0
H884 H 0.81661 0.55345 0.47611 0.0
H885 H 0.79651 0.55506 0.55817 0.0
H886 H 0.85674 0.5326 0.4231 0.0
H887 H 0.85901 0.50494 0.38297 0.0
C888 C 0.06508 0.74043 0.77794 0.0
C889 C 0.03294 0.74986 0.81497 0.0
C890 C 0.02823 0.78243 0.73182 0.0
C891 C 0.06186 0.77379 0.69684 0.0
N892 N 0.11956 0.74911 0.70303 0.0
N893 N 0.99286 0.78392 0.83947 0.0
C894 C 0.08264 0.75424 0.7252 0.0
C895 C 0.01771 0.77232 0.79611 0.0
N896 N 0.07762 0.71785 0.78987 0.0
N897 N 1.00432 0.79884 0.70194 0.0
H898 H 0.98519 0.77716 0.88752 0.0
H899 H 0.9835 0.80123 0.83092 0.0
H900 H 1.00865 0.8054 0.65272 0.0
H901 H 0.97757 0.80388 0.72294 0.0
H902 H 0.09817 0.70941 0.75888 0.0
H903 H 0.06507 0.70678 0.82648 0.0
H904 H 0.13708 0.73625 0.72608 0.0
H905 H 0.13436 0.75956 0.66743 0.0
C906 C 0.03838 0.22639 0.79128 0.0
C907 C 0.01361 0.24372 0.82078 0.0
C908 C 0.96617 0.23781 0.72667 0.0
C909 C 0.99039 0.21981 0.69791 0.0
N910 N 0.04384 0.19249 0.71614 0.0
N911 N 0.94977 0.26136 0.82725 0.0
C912 C 0.0247 0.21272 0.73445 0.0
C913 C 0.976 0.24775 0.79205 0.0
N914 N 0.07582 0.22374 0.81503 0.0
N915 N 0.93552 0.24682 0.68982 0.0
H916 H 0.95631 0.26885 0.87507 0.0
H917 H 0.92057 0.26317 0.81255 0.0
H918 H 0.92794 0.24101 0.64084 0.0
H919 H 0.9198 0.2617 0.70509 0.0
H920 H 0.09678 0.21358 0.78977 0.0
H921 H 0.08691 0.23304 0.85719 0.0
H922 H 0.06652 0.18515 0.745 0.0
H923 H 0.03428 0.18163 0.67636 0.0
C924 C 0.24764 0.04685 0.02395 0.0
C925 C 0.23088 0.03626 0.96435 0.0
C926 C 0.22873 0.99806 0.02476 0.0
C927 C 0.25195 0.00776 0.07848 0.0
N928 N 0.2847 0.04131 0.12943 0.0
N929 N 0.20733 1.00108 0.90618 0.0
C930 C 0.26124 0.03225 0.0787 0.0
C931 C 0.22114 0.01175 0.96462 0.0
N932 N 0.25007 0.07097 0.02835 0.0
N933 N 0.21417 0.97564 0.03132 0.0
H934 H 0.2014 0.01017 0.86083 0.0
H935 H 0.20437 0.98282 0.90087 0.0
H936 H 0.21948 0.96526 0.07471 0.0
H937 H 0.19393 0.96825 0.9973 0.0
H938 H 0.25873 0.07995 0.07269 0.0
H939 H 0.23964 0.08213 0.98968 0.0
H940 H 0.29664 0.05828 0.12795 0.0
H941 H 0.29417 0.03135 0.17141 0.0
C942 C 0.78247 1.00044 0.93911 0.0
C943 C 0.78562 0.97558 0.94751 0.0
C944 C 0.76734 0.97968 0.06919 0.0
C945 C 0.76543 1.00466 0.06107 0.0
N946 N 0.78281 0.03895 0.9943 0.0
N947 N 0.79037 0.94214 0.02356 0.0
C948 C 0.77714 0.01505 0.99797 0.0
C949 C 0.78127 0.96543 0.01378 0.0
N950 N 0.78156 0.01002 0.87467 0.0
N951 N 0.75361 0.9694 0.12792 0.0
H952 H 0.80082 0.93141 0.98398 0.0
H953 H 0.79123 0.93417 0.07179 0.0
H954 H 0.74312 0.9791 0.16958 0.0
H955 H 0.74996 0.9512 0.13345 0.0
H956 H 0.77522 0.02777 0.86536 0.0
H957 H 0.78334 0.99981 0.83008 0.0
H958 H 0.79456 0.0473 0.9513 0.0
H959 H 0.77961 0.05004 0.03694 0.0
C960 C 0.56113 0.28709 0.75209 0.0
C961 C 0.55763 0.276 0.68632 0.0
C962 C 0.53952 0.23847 0.74212 0.0
C963 C 0.5395 0.25011 0.80666 0.0
N964 N 0.55865 0.28312 0.87696 0.0
N965 N 0.55388 0.23972 0.62063 0.0
C966 C 0.55333 0.27367 0.81282 0.0
C967 C 0.55009 0.25122 0.68208 0.0
N968 N 0.56981 0.31067 0.75651 0.0
N969 N 0.5275 0.21537 0.73821 0.0
H970 H 0.56086 0.24838 0.57543 0.0
H971 H 0.55328 0.22141 0.61489 0.0
H972 H 0.52264 0.20501 0.78175 0.0
H973 H 0.5209 0.20663 0.69246 0.0
H974 H 0.56753 0.32062 0.80137 0.0
H975 H 0.57854 0.32078 0.71469 0.0
H976 H 0.57181 0.29942 0.8865 0.0
H977 H 0.55253 0.27369 0.92173 0.0
C978 C 0.47502 0.74503 0.80834 0.0
C979 C 0.51531 0.7451 0.82634 0.0
C980 C 0.52676 0.7138 0.74148 0.0
C981 C 0.48904 0.71758 0.71232 0.0
N982 N 0.42411 0.73425 0.72746 0.0
N983 N 0.58068 0.73058 0.806 0.0
C984 C 0.46202 0.73223 0.74888 0.0
C985 C 0.54145 0.72959 0.7923 0.0
N986 N 0.44896 0.75657 0.84977 0.0
N987 N 0.54787 0.69431 0.723 0.0
H988 H 0.59293 0.74196 0.84247 0.0
H989 H 0.60138 0.72148 0.77691 0.0
H990 H 0.53632 0.68122 0.69098 0.0
H991 H 0.57416 0.68956 0.74654 0.0
H992 H 0.41872 0.75535 0.8443 0.0
H993 H 0.45753 0.76583 0.89383 0.0
H994 H 0.40585 0.74808 0.74227 0.0
H995 H 0.41016 0.72173 0.69688 0.0
C996 C 0.78804 0.524 0.03145 0.0
C997 C 0.76091 0.51533 0.08064 0.0
C998 C 0.70624 0.52633 1.00469 0.0
C999 C 0.73352 0.53474 0.95557 0.0
N1000 N 0.79855 0.5487 0.93138 0.0
N1001 N 0.69476 0.51376 0.12242 0.0
C1002 C 0.77385 0.53597 0.97227 0.0
C1003 C 0.72011 0.51842 0.06997 0.0
N1004 N 0.82713 0.51939 0.0384 0.0
N1005 N 0.66751 0.52464 0.98769 0.0
H1006 H 0.7043 0.50808 0.17071 0.0
H1007 H 0.66498 0.51758 0.12027 0.0
H1008 H 0.6562 0.5308 0.94121 0.0
H1009 H 0.64692 0.51597 0.01795 0.0
H1010 H 0.84746 0.52285 0.99991 0.0
H1011 H 0.8391 0.51035 0.0801 0.0
H1012 H 0.82762 0.55219 0.94428 0.0
H1013 H 0.78874 0.55791 0.8882 0.0
C1014 C 0.2996 0.48808 0.06112 0.0
C1015 C 0.28329 0.51117 0.05362 0.0
C1016 C 0.29843 0.50998 0.931 0.0
C1017 C 0.31046 0.48594 0.93498 0.0
N1018 N 0.32302 0.45187 1.00748 0.0
N1019 N 0.30256 0.5465 0.993 0.0
C1020 C 0.31095 0.47479 1.00105 0.0
C1021 C 0.29291 0.52307 0.9919 0.0
N1022 N 0.31183 0.48096 0.12464 0.0
N1023 N 0.29075 0.52049 0.86926 0.0
H1024 H 0.30525 0.55589 0.03914 0.0
H1025 H 0.31278 0.55537 0.94955 0.0
H1026 H 0.29019 0.51121 0.82289 0.0
H1027 H 0.28003 0.53776 0.86598 0.0
H1028 H 0.32643 0.46512 0.13404 0.0
H1029 H 0.31378 0.49287 0.16558 0.0
H1030 H 0.31856 0.44195 0.05188 0.0
H1031 H 0.33585 0.44226 0.96789 0.0
C1032 C 0.48539 0.77505 0.29184 0.0
C1033 C 0.5118 0.75841 0.32056 0.0
C1034 C 0.55901 0.76689 0.22887 0.0
C1035 C 0.53316 0.78428 0.20113 0.0
N1036 N 0.47647 0.80916 0.21859 0.0
N1037 N 0.57699 0.74263 0.32706 0.0
C1038 C 0.49781 0.78967 0.23652 0.0
C1039 C 0.54976 0.7558 0.29259 0.0
N1040 N 0.44773 0.7762 0.31521 0.0
N1041 N 0.59092 0.75957 0.19247 0.0
H1042 H 0.5709 0.73417 0.3735 0.0
H1043 H 0.6064 0.742 0.31327 0.0
H1044 H 0.59861 0.76649 0.145 0.0
H1045 H 0.60795 0.74506 0.2064 0.0
H1046 H 0.4258 0.78578 0.29047 0.0
H1047 H 0.43752 0.76618 0.3564 0.0
H1048 H 0.45284 0.81537 0.24711 0.0
H1049 H 0.48468 0.8206 0.17941 0.0
C1050 C 0.47755 0.24821 0.306 0.0
C1051 C 0.5189 0.25045 0.31219 0.0
C1052 C 0.52644 0.22706 0.20645 0.0
C1053 C 0.48568 0.22889 0.19357 0.0
N1054 N 0.42176 0.24123 0.23045 0.0
N1055 N 0.5831 0.24348 0.26442 0.0
C1056 C 0.46088 0.2391 0.24379 0.0
C1057 C 0.54353 0.23989 0.26203 0.0
N1058 N 0.45435 0.25475 0.35985 0.0
N1059 N 0.54883 0.21303 0.16506 0.0
H1060 H 0.59706 0.25304 0.30329 0.0
H1061 H 0.60189 0.23861 0.2248 0.0
H1062 H 0.53688 0.20335 0.12444 0.0
H1063 H 0.57802 0.20904 0.17537 0.0
H1064 H 0.4243 0.25174 0.36126 0.0
H1065 H 0.46585 0.26126 0.40598 0.0
H1066 H 0.40273 0.25103 0.26096 0.0
H1067 H 0.40866 0.23407 0.18652 0.0
C1068 C 0.72404 0.02132 0.55018 0.0
C1069 C 0.74036 0.99831 0.5442 0.0
C1070 C 0.72885 0.99927 0.4198 0.0
C1071 C 0.70845 0.02114 0.42616 0.0
N1072 N 0.67973 0.05038 0.50182 0.0
N1073 N 0.7485 0.963 0.47584 0.0
C1074 C 0.70415 0.03152 0.49262 0.0
C1075 C 0.73958 0.98655 0.47978 0.0
N1076 N 0.72845 0.03376 0.61002 0.0
N1077 N 0.74021 0.99111 0.35672 0.0
H1078 H 0.75559 0.95287 0.51893 0.0
H1079 H 0.74468 0.95304 0.4311 0.0
H1080 H 0.7356 1.0004 0.31129 0.0
H1081 H 0.75844 0.9765 0.3504 0.0
H1082 H 0.72102 0.05158 0.61482 0.0
H1083 H 0.74249 0.02683 0.65323 0.0
H1084 H 0.67256 0.05706 0.55015 0.0
H1085 H 0.66346 0.05789 0.46213 0.0
C1086 C 0.28443 0.98175 0.56059 0.0
C1087 C 0.273 0.00594 0.56068 0.0
C1088 C 0.29279 0.00901 0.44014 0.0
C1089 C 0.30905 0.98583 0.44207 0.0
N1090 N 0.3282 0.95242 0.51244 0.0
N1091 N 0.27863 0.04417 0.50611 0.0
C1092 C 0.30712 0.97277 0.50469 0.0
C1093 C 0.28126 0.02006 0.50228 0.0
N1094 N 0.27261 0.96709 0.61225 0.0
N1095 N 0.28575 0.02011 0.37895 0.0
H1096 H 0.27201 0.05308 0.55167 0.0
H1097 H 0.28749 0.05523 0.4662 0.0
H1098 H 0.28965 0.01199 0.33137 0.0
H1099 H 0.27098 0.03622 0.37571 0.0
H1100 H 0.27679 0.94882 0.61085 0.0
H1101 H 0.25552 0.97286 0.6533 0.0
H1102 H 0.33036 0.94348 0.55914 0.0
H1103 H 0.34708 0.94593 0.47493 0.0
C1104 C 0.26526 0.2332 0.03511 0.0
C1105 C 0.2941 0.24285 0.991 0.0
C1106 C 0.2462 0.27092 0.94471 0.0
C1107 C 0.21787 0.26178 0.99052 0.0
N1108 N 0.19591 0.22949 0.05991 0.0
N1109 N 0.30813 0.26426 0.88726 0.0
C1110 C 0.22595 0.24092 0.028 0.0
C1111 C 0.28309 0.25946 0.93991 0.0
N1112 N 0.27572 0.21849 0.08764 0.0
N1113 N 0.23915 0.29143 0.90989 0.0
H1114 H 0.33474 0.2554 0.88189 0.0
H1115 H 0.30066 0.27494 0.84561 0.0
H1116 H 0.21247 0.30025 0.91191 0.0
H1117 H 0.26059 0.30034 0.88205 0.0
H1118 H 0.25621 0.21284 0.12526 0.0
H1119 H 0.30454 0.21363 0.09761 0.0
H1120 H 0.19914 0.2132 0.08438 0.0
H1121 H 0.16706 0.23541 0.05547 0.0
C1122 C 0.76133 0.72821 0.01582 0.0
C1123 C 0.79089 0.73822 0.97376 0.0
C1124 C 0.74462 0.7684 0.93344 0.0
C1125 C 0.71587 0.75894 0.9779 0.0
N1126 N 0.69177 0.72545 0.03977 0.0
N1127 N 0.80682 0.76218 0.87597 0.0
C1128 C 0.72252 0.73694 1.01026 0.0
C1129 C 0.78093 0.75632 0.92639 0.0
N1130 N 0.77077 0.71238 0.06611 0.0
N1131 N 0.73854 0.78971 0.90237 0.0
H1132 H 0.83328 0.75318 0.86998 0.0
H1133 H 0.80038 0.77409 0.83669 0.0
H1134 H 0.71221 0.79887 0.90608 0.0
H1135 H 0.76023 0.79878 0.87565 0.0
H1136 H 0.75075 0.70634 0.10237 0.0
H1137 H 0.79929 0.70695 0.07605 0.0
H1138 H 0.69393 0.70848 0.06036 0.0
H1139 H 0.66336 0.73222 0.03692 0.0
C1140 C 0.01738 0.53168 0.18178 0.0
C1141 C 0.05056 0.51734 0.1934 0.0
C1142 C 1.00894 0.48224 0.19993 0.0
C1143 C 0.97575 0.49727 0.20435 0.0
N1144 N 0.94651 0.53542 0.19001 0.0
N1145 N 0.08 0.47918 0.19052 0.0
C1146 C 0.97932 0.52169 0.18975 0.0
C1147 C 0.04675 0.4925 0.1929 0.0
N1148 N 0.02275 0.55485 0.16504 0.0
N1149 N 1.00415 0.45848 0.20943 0.0
H1150 H 0.10753 0.48711 0.18618 0.0
H1151 H 0.08051 0.46078 0.18889 0.0
H1152 H 0.97664 0.45098 0.21726 0.0
H1153 H 0.02683 0.44623 0.21058 0.0
H1154 H 1.00014 0.56605 0.15023 0.0
H1155 H 0.05069 0.56205 0.15957 0.0
H1156 H 0.94684 0.55381 0.18688 0.0
H1157 H 0.91861 0.52806 0.19497 0.0
C1158 C 0.28671 0.75971 0.43777 0.0
C1159 C 0.29366 0.74038 0.48241 0.0
C1160 C 0.22473 0.74089 0.5159 0.0
C1161 C 0.22029 0.76314 0.48388 0.0
N1162 N 0.24611 0.79393 0.41214 0.0
N1163 N 0.27021 0.71387 0.5697 0.0
C1164 C 0.25069 0.77233 0.4424 0.0
C1165 C 0.2626 0.73081 0.52163 0.0
N1166 N 0.31541 0.76635 0.39319 0.0
N1167 N 0.19277 0.73032 0.5444 0.0
H1168 H 0.29825 0.7073 0.57829 0.0
H1169 H 0.24955 0.70785 0.60485 0.0
H1170 H 0.16501 0.73801 0.54139 0.0
H1171 H 0.19318 0.71326 0.56467 0.0
H1172 H 0.31172 0.77931 0.35571 0.0
H1173 H 0.34202 0.75732 0.39046 0.0
H1174 H 0.26856 0.80294 0.38731 0.0
H1175 H 0.21988 0.8033 0.41449 0.0
C1176 C 0.80576 0.26906 0.44759 0.0
C1177 C 0.80404 0.24405 0.45062 0.0
C1178 C 0.73256 0.24548 0.43855 0.0
C1179 C 0.73396 0.2704 0.44547 0.0
N1180 N 0.77029 0.30626 0.434 0.0
N1181 N 0.76858 0.20851 0.42624 0.0
C1182 C 0.77034 0.28227 0.44111 0.0
C1183 C 0.76819 0.23233 0.4374 0.0
N1184 N 0.84115 0.27994 0.45564 0.0
N1185 N 0.69699 0.2345 0.43903 0.0
H1186 H 0.7947 0.19895 0.42583 0.0
H1187 H 0.74402 0.19889 0.41121 0.0
H1188 H 0.6709 0.24411 0.4384 0.0
H1189 H 0.69329 0.21623 0.44177 0.0
H1190 H 0.84478 0.29817 0.46037 0.0
H1191 H 0.86713 0.27027 0.4588 0.0
H1192 H 0.79542 0.31647 0.42796 0.0
H1193 H 0.74412 0.31561 0.42859 0.0
C1194 C 0.02026 0.02044 0.69597 0.0
C1195 C 0.04933 0.01064 0.73957 0.0
C1196 C 1.0044 0.97908 0.77382 0.0
C1197 C 0.97487 0.98912 0.73168 0.0
N1198 N 0.95767 0.01473 0.63822 0.0
N1199 N 0.07375 0.97695 0.8006 0.0
C1200 C 0.98413 0.00817 0.68729 0.0
C1201 C 0.04293 0.98842 0.77093 0.0
N1202 N 0.02591 0.0422 0.66726 0.0
N1203 N 0.99495 0.96233 0.82143 0.0
H1204 H 0.10209 0.98387 0.79904 0.0
H1205 H 0.0718 0.95981 0.82011 0.0
H1206 H 0.96652 0.9562 0.82828 0.0
H1207 H 0.01462 0.9561 0.85823 0.0
H1208 H 1.00409 0.0514 0.64108 0.0
H1209 H 0.05188 0.05167 0.67283 0.0
H1210 H 0.96351 0.02734 0.60059 0.0
H1211 H 0.93117 0.00577 0.6316 0.0
C1212 C 0.50243 0.48585 0.68914 0.0
C1213 C 0.47217 0.49393 0.73265 0.0
C1214 C 0.51374 0.52625 0.77411 0.0
C1215 C 0.54478 0.5176 0.73302 0.0
N1216 N 0.56602 0.49377 0.63815 0.0
N1217 N 0.44406 0.52533 0.79859 0.0
C1218 C 0.5379 0.49904 0.68536 0.0
C1219 C 0.47615 0.51568 0.76796 0.0
N1220 N 0.49831 0.46468 0.65592 0.0
N1221 N 0.52105 0.5428 0.82374 0.0
H1222 H 0.41656 0.51731 0.79498 0.0
H1223 H 0.444 0.54206 0.82128 0.0
H1224 H 0.54877 0.54988 0.8323 0.0
H1225 H 0.50044 0.54808 0.85996 0.0
H1226 H 0.52095 0.45633 0.62967 0.0
H1227 H 0.47238 0.45495 0.65745 0.0
H1228 H 0.5621 0.48151 0.59865 0.0
H1229 H 0.5921 0.50338 0.63536 0.0
C1230 C 0.46998 0.01592 0.21042 0.0
C1231 C 0.47356 0.99101 0.21368 0.0
C1232 C 0.5448 0.99413 0.20485 0.0
C1233 C 0.54142 0.01901 0.21016 0.0
N1234 N 0.50277 0.05383 0.19516 0.0
N1235 N 0.51136 0.9563 0.19147 0.0
C1236 C 0.5044 0.02993 0.20408 0.0
C1237 C 0.51017 0.98014 0.20218 0.0
N1238 N 0.4341 0.02604 0.21909 0.0
N1239 N 0.58095 0.98397 0.20825 0.0
H1240 H 0.48584 0.9461 0.19043 0.0
H1241 H 0.53664 0.94724 0.17762 0.0
H1242 H 0.60657 0.99403 0.20908 0.0
H1243 H 0.58554 0.96581 0.21245 0.0
H1244 H 0.42971 0.04417 0.22492 0.0
H1245 H 0.40858 0.01597 0.22269 0.0
H1246 H 0.47694 0.06301 0.18561 0.0
H1247 H 0.52821 0.06401 0.1912 0.0
loop_
_geom_bond_atom_site_label_1
_geom_bond_atom_site_label_2
_geom_bond_distance
_geom_bond_site_symmetry_2
_ccdc_geom_bond_type
Co0 N4 2.148 . S
Co0 N10 2.128 . S
Co0 N20 2.194 1_554 S
Co0 O25 2.351 1_554 S
Co0 O26 2.155 . S
Co0 O27 2.096 . S
C1 N4 1.301 1_556 S
C1 N5 1.328 . S
C1 H6 0.930 . S
C2 C3 1.333 . S
C2 N4 1.317 . S
C2 H7 0.930 . S
C3 C2 1.333 . S
C3 N5 1.350 1_554 S
C3 H29 0.931 . S
N4 Co0 2.148 . S
N4 C1 1.301 1_554 S
N4 C2 1.317 . S
N5 C1 1.328 . S
N5 C3 1.350 1_556 S
H6 C1 0.930 . S
H7 C2 0.930 . S
C8 O9 1.224 . S
C8 O27 1.247 . S
O9 C8 1.224 . S
N10 Co0 2.128 . S
N10 C11 1.355 1_554 S
N10 C13 1.311 . S
C11 N10 1.355 1_556 S
C11 C12 1.363 1_455 S
C11 H23 0.929 . S
C12 C11 1.363 1_655 S
C12 N14 1.375 1_556 S
C12 H30 0.931 . S
C13 N10 1.311 . S
C13 N14 1.347 1_455 S
C13 H24 0.929 . S
N14 C12 1.375 1_554 S
N14 C13 1.347 1_655 S
C15 C18 1.365 . S
C15 N20 1.328 . S
C15 H21 0.929 . S
C16 C17 1.362 . S
C16 C19 1.378 . S
C16 H31 0.929 1_455 S
C17 C16 1.362 . S
C17 C18 1.366 . S
C18 C15 1.365 . S
C18 C17 1.366 . S
C18 H32 0.930 . S
C19 C16 1.378 . S
C19 N20 1.315 . S
C19 H22 0.930 . S
N20 Co0 2.194 1_556 S
N20 C15 1.328 . S
N20 C19 1.315 . S
H21 C15 0.929 . S
H22 C19 0.930 . S
H23 C11 0.929 . S
H24 C13 0.929 . S
O25 Co0 2.351 1_556 S
O25 C28 1.244 . S
O26 Co0 2.155 . S
O26 C28 1.240 1_554 S
O27 Co0 2.096 . S
O27 C8 1.247 . S
C28 O25 1.244 . S
C28 O26 1.240 1_556 S
H29 C3 0.931 . S
H30 C12 0.931 . S
H31 C16 0.929 1_655 S
H32 C18 0.930 . S
Co33 N37 2.148 . S
Co33 N43 2.128 . S
Co33 N53 2.194 1_554 S
Co33 O58 2.351 1_554 S
Co33 O59 2.155 . S
Co33 O60 2.096 . S
C34 N37 1.301 1_556 S
C34 N38 1.328 . S
C34 H39 0.930 . S
C35 C36 1.333 . S
C35 N37 1.317 . S
C35 H40 0.930 . S
C36 C35 1.333 . S
C36 N38 1.350 1_554 S
C36 H62 0.931 . S
N37 Co33 2.148 . S
N37 C34 1.301 1_554 S
N37 C35 1.317 . S
N38 C34 1.328 . S
N38 C36 1.350 1_556 S
H39 C34 0.930 . S
H40 C35 0.930 . S
C41 O42 1.224 . S
C41 O60 1.247 . S
O42 C41 1.224 . S
N43 Co33 2.128 . S
N43 C44 1.355 1_554 S
N43 C46 1.311 . S
C44 N43 1.355 1_556 S
C44 C45 1.363 1_655 S
C44 H56 0.929 . S
C45 C44 1.363 1_455 S
C45 N47 1.375 1_556 S
C45 H63 0.931 . S
C46 N43 1.311 . S
C46 N47 1.347 1_655 S
C46 H57 0.929 . S
N47 C45 1.375 1_554 S
N47 C46 1.347 1_455 S
C48 C51 1.365 . S
C48 N53 1.328 . S
C48 H54 0.929 . S
C49 C50 1.362 . S
C49 C52 1.378 . S
C49 H64 0.929 1_655 S
C50 C49 1.362 . S
C50 C51 1.366 . S
C51 C48 1.365 . S
C51 C50 1.366 . S
C51 H65 0.930 . S
C52 C49 1.378 . S
C52 N53 1.315 . S
C52 H55 0.930 . S
N53 Co33 2.194 1_556 S
N53 C48 1.328 . S
N53 C52 1.315 . S
H54 C48 0.929 . S
H55 C52 0.930 . S
H56 C44 0.929 . S
H57 C46 0.929 . S
O58 Co33 2.351 1_556 S
O58 C61 1.244 . S
O59 Co33 2.155 . S
O59 C61 1.240 1_554 S
O60 Co33 2.096 . S
O60 C41 1.247 . S
C61 O58 1.244 . S
C61 O59 1.240 1_556 S
H62 C36 0.931 . S
H63 C45 0.931 . S
H64 C49 0.929 1_455 S
H65 C51 0.930 . S
Co66 N70 2.148 . S
Co66 N76 2.128 . S
Co66 N86 2.194 . S
Co66 O91 2.351 . S
Co66 O92 2.155 . S
Co66 O93 2.096 . S
C67 N70 1.301 . S
C67 N71 1.328 . S
C67 H72 0.930 . S
C68 C69 1.333 . S
C68 N70 1.317 . S
C68 H73 0.930 . S
C69 C68 1.333 . S
C69 N71 1.350 . S
C69 H95 0.931 . S
N70 Co66 2.148 . S
N70 C67 1.301 . S
N70 C68 1.317 . S
N71 C67 1.328 . S
N71 C69 1.350 . S
H72 C67 0.930 . S
H73 C68 0.930 . S
C74 O75 1.224 . S
C74 O93 1.247 . S
O75 C74 1.224 . S
N76 Co66 2.128 . S
N76 C77 1.355 . S
N76 C79 1.311 . S
C77 N76 1.355 . S
C77 C78 1.363 . S
C77 H89 0.929 . S
C78 C77 1.363 . S
C78 N80 1.375 . S
C78 H96 0.931 . S
C79 N76 1.311 . S
C79 N80 1.347 . S
C79 H90 0.929 . S
N80 C78 1.375 . S
N80 C79 1.347 . S
C81 C84 1.365 . S
C81 N86 1.328 . S
C81 H87 0.929 . S
C82 C83 1.362 . S
C82 C85 1.378 . S
C82 H97 0.929 . S
C83 C82 1.362 . S
C83 C84 1.366 . S
C84 C81 1.365 . S
C84 C83 1.366 . S
C84 H98 0.930 . S
C85 C82 1.378 . S
C85 N86 1.315 . S
C85 H88 0.930 . S
N86 Co66 2.194 . S
N86 C81 1.328 . S
N86 C85 1.315 . S
H87 C81 0.929 . S
H88 C85 0.930 . S
H89 C77 0.929 . S
H90 C79 0.929 . S
O91 Co66 2.351 . S
O91 C94 1.244 . S
O92 Co66 2.155 . S
O92 C94 1.240 . S
O93 Co66 2.096 . S
O93 C74 1.247 . S
C94 O91 1.244 . S
C94 O92 1.240 . S
H95 C69 0.931 . S
H96 C78 0.931 . S
H97 C82 0.929 . S
H98 C84 0.930 . S
Co99 N103 2.148 . S
Co99 N109 2.128 . S
Co99 N119 2.194 . S
Co99 O124 2.351 . S
Co99 O125 2.155 . S
Co99 O126 2.096 . S
C100 N103 1.301 . S
C100 N104 1.328 . S
C100 H105 0.930 . S
C101 C102 1.333 . S
C101 N103 1.317 . S
C101 H106 0.930 . S
C102 C101 1.333 . S
C102 N104 1.350 . S
C102 H128 0.931 . S
N103 Co99 2.148 . S
N103 C100 1.301 . S
N103 C101 1.317 . S
N104 C100 1.328 . S
N104 C102 1.350 . S
H105 C100 0.930 . S
H106 C101 0.930 . S
C107 O108 1.224 . S
C107 O126 1.247 . S
O108 C107 1.224 . S
N109 Co99 2.128 . S
N109 C110 1.355 . S
N109 C112 1.311 . S
C110 N109 1.355 . S
C110 C111 1.363 . S
C110 H122 0.929 . S
C111 C110 1.363 . S
C111 N113 1.375 . S
C111 H129 0.931 . S
C112 N109 1.311 . S
C112 N113 1.347 . S
C112 H123 0.929 . S
N113 C111 1.375 . S
N113 C112 1.347 . S
C114 C117 1.365 . S
C114 N119 1.328 . S
C114 H120 0.929 . S
C115 C116 1.362 . S
C115 C118 1.378 . S
C115 H130 0.929 . S
C116 C115 1.362 . S
C116 C117 1.366 . S
C117 C114 1.365 . S
C117 C116 1.366 . S
C117 H131 0.930 . S
C118 C115 1.378 . S
C118 N119 1.315 . S
C118 H121 0.930 . S
N119 Co99 2.194 . S
N119 C114 1.328 . S
N119 C118 1.315 . S
H120 C114 0.929 . S
H121 C118 0.930 . S
H122 C110 0.929 . S
H123 C112 0.929 . S
O124 Co99 2.351 . S
O124 C127 1.244 . S
O125 Co99 2.155 . S
O125 C127 1.240 . S
O126 Co99 2.096 . S
O126 C107 1.247 . S
C127 O124 1.244 . S
C127 O125 1.240 . S
H128 C102 0.931 . S
H129 C111 0.931 . S
H130 C115 0.929 . S
H131 C117 0.930 . S
Co132 N136 2.148 . S
Co132 N142 2.128 . S
Co132 N152 2.194 . S
Co132 O157 2.351 . S
Co132 O158 2.155 . S
Co132 O159 2.096 . S
C133 N136 1.301 . S
C133 N137 1.328 . S
C133 H138 0.930 . S
C134 C135 1.333 . S
C134 N136 1.317 . S
C134 H139 0.930 . S
C135 C134 1.333 . S
C135 N137 1.350 . S
C135 H161 0.931 . S
N136 Co132 2.148 . S
N136 C133 1.301 . S
N136 C134 1.317 . S
N137 C133 1.328 . S
N137 C135 1.350 . S
H138 C133 0.930 . S
H139 C134 0.930 . S
C140 O141 1.224 . S
C140 O159 1.247 . S
O141 C140 1.224 . S
N142 Co132 2.128 . S
N142 C143 1.355 . S
N142 C145 1.311 . S
C143 N142 1.355 . S
C143 C144 1.363 1_455 S
C143 H155 0.929 . S
C144 C143 1.363 1_655 S
C144 N146 1.375 . S
C144 H162 0.931 . S
C145 N142 1.311 . S
C145 N146 1.347 1_455 S
C145 H156 0.929 . S
N146 C144 1.375 . S
N146 C145 1.347 1_655 S
C147 C150 1.365 . S
C147 N152 1.328 . S
C147 H153 0.929 . S
C148 C149 1.362 . S
C148 C151 1.378 . S
C148 H163 0.929 1_455 S
C149 C148 1.362 . S
C149 C150 1.366 . S
C150 C147 1.365 . S
C150 C149 1.366 . S
C150 H164 0.930 . S
C151 C148 1.378 . S
C151 N152 1.315 . S
C151 H154 0.930 . S
N152 Co132 2.194 . S
N152 C147 1.328 . S
N152 C151 1.315 . S
H153 C147 0.929 . S
H154 C151 0.930 . S
H155 C143 0.929 . S
H156 C145 0.929 . S
O157 Co132 2.351 . S
O157 C160 1.244 . S
O158 Co132 2.155 . S
O158 C160 1.240 . S
O159 Co132 2.096 . S
O159 C140 1.247 . S
C160 O157 1.244 . S
C160 O158 1.240 . S
H161 C135 0.931 . S
H162 C144 0.931 . S
H163 C148 0.929 1_655 S
H164 C150 0.930 . S
Co165 N169 2.148 . S
Co165 N175 2.128 . S
Co165 N185 2.194 . S
Co165 O190 2.351 . S
Co165 O191 2.155 . S
Co165 O192 2.096 . S
C166 N169 1.301 . S
C166 N170 1.328 . S
C166 H171 0.930 . S
C167 C168 1.333 . S
C167 N169 1.317 . S
C167 H172 0.930 . S
C168 C167 1.333 . S
C168 N170 1.350 . S
C168 H194 0.931 . S
N169 Co165 2.148 . S
N169 C166 1.301 . S
N169 C167 1.317 . S
N170 C166 1.328 . S
N170 C168 1.350 . S
H171 C166 0.930 . S
H172 C167 0.930 . S
C173 O174 1.224 . S
C173 O192 1.247 . S
O174 C173 1.224 . S
N175 Co165 2.128 . S
N175 C176 1.355 . S
N175 C178 1.311 . S
C176 N175 1.355 . S
C176 C177 1.363 1_655 S
C176 H188 0.929 . S
C177 C176 1.363 1_455 S
C177 N179 1.375 . S
C177 H195 0.931 . S
C178 N175 1.311 . S
C178 N179 1.347 1_655 S
C178 H189 0.929 . S
N179 C177 1.375 . S
N179 C178 1.347 1_455 S
C180 C183 1.365 . S
C180 N185 1.328 . S
C180 H186 0.929 . S
C181 C182 1.362 . S
C181 C184 1.378 . S
C181 H196 0.929 1_655 S
C182 C181 1.362 . S
C182 C183 1.366 . S
C183 C180 1.365 . S
C183 C182 1.366 . S
C183 H197 0.930 . S
C184 C181 1.378 . S
C184 N185 1.315 . S
C184 H187 0.930 . S
N185 Co165 2.194 . S
N185 C180 1.328 . S
N185 C184 1.315 . S
H186 C180 0.929 . S
H187 C184 0.930 . S
H188 C176 0.929 . S
H189 C178 0.929 . S
O190 Co165 2.351 . S
O190 C193 1.244 . S
O191 Co165 2.155 . S
O191 C193 1.240 . S
O192 Co165 2.096 . S
O192 C173 1.247 . S
C193 O190 1.244 . S
C193 O191 1.240 . S
H194 C168 0.931 . S
H195 C177 0.931 . S
H196 C181 0.929 1_455 S
H197 C183 0.930 . S
Co198 N202 2.148 . S
Co198 N208 2.128 . S
Co198 N218 2.194 . S
Co198 O223 2.351 . S
Co198 O224 2.155 . S
Co198 O225 2.096 . S
C199 N202 1.301 . S
C199 N203 1.328 . S
C199 H204 0.930 . S
C200 C201 1.333 . S
C200 N202 1.317 . S
C200 H205 0.930 . S
C201 C200 1.333 . S
C201 N203 1.350 . S
C201 H227 0.931 1_545 S
N202 Co198 2.148 . S
N202 C199 1.301 . S
N202 C200 1.317 . S
N203 C199 1.328 . S
N203 C201 1.350 . S
H204 C199 0.930 . S
H205 C200 0.930 . S
C206 O207 1.224 . S
C206 O225 1.247 . S
O207 C206 1.224 . S
N208 Co198 2.128 . S
N208 C209 1.355 . S
N208 C211 1.311 . S
C209 N208 1.355 . S
C209 C210 1.363 . S
C209 H221 0.929 . S
C210 C209 1.363 . S
C210 N212 1.375 . S
C210 H228 0.931 . S
C211 N208 1.311 . S
C211 N212 1.347 . S
C211 H222 0.929 . S
N212 C210 1.375 . S
N212 C211 1.347 . S
C213 C216 1.365 . S
C213 N218 1.328 . S
C213 H219 0.929 . S
C214 C215 1.362 . S
C214 C217 1.378 . S
C214 H229 0.919 1_545 S
C215 C214 1.362 . S
C215 C216 1.366 . S
C216 C213 1.365 . S
C216 C215 1.366 . S
C216 H230 0.930 . S
C217 C214 1.378 . S
C217 N218 1.315 . S
C217 H220 0.930 . S
N218 Co198 2.194 . S
N218 C213 1.328 . S
N218 C217 1.315 . S
H219 C213 0.929 . S
H220 C217 0.930 . S
H221 C209 0.929 . S
H222 C211 0.929 . S
O223 Co198 2.351 . S
O223 C226 1.244 . S
O224 Co198 2.155 . S
O224 C226 1.240 . S
O225 Co198 2.096 . S
O225 C206 1.247 . S
C226 O223 1.244 . S
C226 O224 1.240 . S
H227 C201 0.931 1_565 S
H228 C210 0.931 . S
H229 C214 0.919 1_565 S
H230 C216 0.930 . S
Co231 N235 2.148 . S
Co231 N241 2.128 . S
Co231 N251 2.194 . S
Co231 O256 2.351 . S
Co231 O257 2.155 . S
Co231 O258 2.096 . S
C232 N235 1.301 . S
C232 N236 1.328 . S
C232 H237 0.930 . S
C233 C234 1.333 . S
C233 N235 1.317 . S
C233 H238 0.930 . S
C234 C233 1.333 . S
C234 N236 1.350 . S
C234 H260 0.931 1_565 S
N235 Co231 2.148 . S
N235 C232 1.301 . S
N235 C233 1.317 . S
N236 C232 1.328 . S
N236 C234 1.350 . S
H237 C232 0.930 . S
H238 C233 0.930 . S
C239 O240 1.224 . S
C239 O258 1.247 . S
O240 C239 1.224 . S
N241 Co231 2.128 . S
N241 C242 1.355 . S
N241 C244 1.311 . S
C242 N241 1.355 . S
C242 C243 1.363 . S
C242 H254 0.929 . S
C243 C242 1.363 . S
C243 N245 1.375 . S
C243 H261 0.931 . S
C244 N241 1.311 . S
C244 N245 1.347 . S
C244 H255 0.929 . S
N245 C243 1.375 . S
N245 C244 1.347 . S
C246 C249 1.365 . S
C246 N251 1.328 . S
C246 H252 0.929 . S
C247 C248 1.362 . S
C247 C250 1.378 . S
C247 H262 0.919 1_565 S
C248 C247 1.362 . S
C248 C249 1.366 . S
C249 C246 1.365 . S
C249 C248 1.366 . S
C249 H263 0.930 . S
C250 C247 1.378 . S
C250 N251 1.315 . S
C250 H253 0.930 . S
N251 Co231 2.194 . S
N251 C246 1.328 . S
N251 C250 1.315 . S
H252 C246 0.929 . S
H253 C250 0.930 . S
H254 C242 0.929 . S
H255 C244 0.929 . S
O256 Co231 2.351 . S
O256 C259 1.244 . S
O257 Co231 2.155 . S
O257 C259 1.240 . S
O258 Co231 2.096 . S
O258 C239 1.247 . S
C259 O256 1.244 . S
C259 O257 1.240 . S
H260 C234 0.931 1_545 S
H261 C243 0.931 . S
H262 C247 0.919 1_545 S
H263 C249 0.930 . S
Co264 N268 2.148 . S
Co264 N274 2.128 . S
Co264 N284 2.194 . S
Co264 O289 2.351 . S
Co264 O290 2.155 . S
Co264 O291 2.096 . S
C265 N268 1.301 . S
C265 N269 1.328 . S
C265 H270 0.930 . S
C266 C267 1.333 . S
C266 N268 1.317 . S
C266 H271 0.930 . S
C267 C266 1.333 . S
C267 N269 1.350 . S
C267 H293 0.931 . S
N268 Co264 2.148 . S
N268 C265 1.301 . S
N268 C266 1.317 . S
N269 C265 1.328 . S
N269 C267 1.350 . S
H270 C265 0.930 . S
H271 C266 0.930 . S
C272 O273 1.224 . S
C272 O291 1.247 . S
O273 C272 1.224 . S
N274 Co264 2.128 . S
N274 C275 1.355 . S
N274 C277 1.311 . S
C275 N274 1.355 . S
C275 C276 1.363 . S
C275 H287 0.929 . S
C276 C275 1.363 . S
C276 N278 1.375 . S
C276 H294 0.931 . S
C277 N274 1.311 . S
C277 N278 1.347 . S
C277 H288 0.929 . S
N278 C276 1.375 . S
N278 C277 1.347 . S
C279 C282 1.365 . S
C279 N284 1.328 . S
C279 H285 0.929 . S
C280 C281 1.362 . S
C280 C283 1.378 . S
C280 H295 0.929 . S
C281 C280 1.362 . S
C281 C282 1.366 . S
C282 C279 1.365 . S
C282 C281 1.366 . S
C282 H296 0.930 . S
C283 C280 1.378 . S
C283 N284 1.315 . S
C283 H286 0.930 . S
N284 Co264 2.194 . S
N284 C279 1.328 . S
N284 C283 1.315 . S
H285 C279 0.929 . S
H286 C283 0.930 . S
H287 C275 0.929 . S
H288 C277 0.929 . S
O289 Co264 2.351 . S
O289 C292 1.244 . S
O290 Co264 2.155 . S
O290 C292 1.240 . S
O291 Co264 2.096 . S
O291 C272 1.247 . S
C292 O289 1.244 . S
C292 O290 1.240 . S
H293 C267 0.931 . S
H294 C276 0.931 . S
H295 C280 0.929 . S
H296 C282 0.930 . S
Co297 N301 2.148 . S
Co297 N307 2.128 . S
Co297 N317 2.194 . S
Co297 O322 2.351 . S
Co297 O323 2.155 . S
Co297 O324 2.096 . S
C298 N301 1.301 . S
C298 N302 1.328 . S
C298 H303 0.930 . S
C299 C300 1.333 . S
C299 N301 1.317 . S
C299 H304 0.930 . S
C300 C299 1.333 . S
C300 N302 1.350 . S
C300 H326 0.931 . S
N301 Co297 2.148 . S
N301 C298 1.301 . S
N301 C299 1.317 . S
N302 C298 1.328 . S
N302 C300 1.350 . S
H303 C298 0.930 . S
H304 C299 0.930 . S
C305 O306 1.224 . S
C305 O324 1.247 . S
O306 C305 1.224 . S
N307 Co297 2.128 . S
N307 C308 1.355 . S
N307 C310 1.311 . S
C308 N307 1.355 . S
C308 C309 1.363 . S
C308 H320 0.929 . S
C309 C308 1.363 . S
C309 N311 1.375 . S
C309 H327 0.931 . S
C310 N307 1.311 . S
C310 N311 1.347 . S
C310 H321 0.929 . S
N311 C309 1.375 . S
N311 C310 1.347 . S
C312 C315 1.365 . S
C312 N317 1.328 . S
C312 H318 0.929 . S
C313 C314 1.362 . S
C313 C316 1.378 . S
C313 H328 0.929 . S
C314 C313 1.362 . S
C314 C315 1.366 . S
C315 C312 1.365 . S
C315 C314 1.366 . S
C315 H329 0.930 . S
C316 C313 1.378 . S
C316 N317 1.315 . S
C316 H319 0.930 . S
N317 Co297 2.194 . S
N317 C312 1.328 . S
N317 C316 1.315 . S
H318 C312 0.929 . S
H319 C316 0.930 . S
H320 C308 0.929 . S
H321 C310 0.929 . S
O322 Co297 2.351 . S
O322 C325 1.244 . S
O323 Co297 2.155 . S
O323 C325 1.240 . S
O324 Co297 2.096 . S
O324 C305 1.247 . S
C325 O322 1.244 . S
C325 O323 1.240 . S
H326 C300 0.931 . S
H327 C309 0.931 . S
H328 C313 0.929 . S
H329 C315 0.930 . S
Co330 N334 2.148 . S
Co330 N340 2.128 . S
Co330 N350 2.194 . S
Co330 O355 2.351 . S
Co330 O356 2.155 . S
Co330 O357 2.096 . S
C331 N334 1.301 . S
C331 N335 1.328 . S
C331 H336 0.930 . S
C332 C333 1.333 . S
C332 N334 1.317 . S
C332 H337 0.930 . S
C333 C332 1.333 . S
C333 N335 1.350 . S
C333 H359 0.931 . S
N334 Co330 2.148 . S
N334 C331 1.301 . S
N334 C332 1.317 . S
N335 C331 1.328 . S
N335 C333 1.350 . S
H336 C331 0.930 . S
H337 C332 0.930 . S
C338 O339 1.224 . S
C338 O357 1.247 . S
O339 C338 1.224 . S
N340 Co330 2.128 . S
N340 C341 1.355 . S
N340 C343 1.311 . S
C341 N340 1.355 . S
C341 C342 1.363 . S
C341 H353 0.929 . S
C342 C341 1.363 . S
C342 N344 1.375 . S
C342 H360 0.931 . S
C343 N340 1.311 . S
C343 N344 1.347 . S
C343 H354 0.929 . S
N344 C342 1.375 . S
N344 C343 1.347 . S
C345 C348 1.365 . S
C345 N350 1.328 . S
C345 H351 0.929 . S
C346 C347 1.362 . S
C346 C349 1.378 . S
C346 H361 0.929 . S
C347 C346 1.362 . S
C347 C348 1.366 . S
C348 C345 1.365 . S
C348 C347 1.366 . S
C348 H362 0.930 . S
C349 C346 1.378 . S
C349 N350 1.315 . S
C349 H352 0.930 . S
N350 Co330 2.194 . S
N350 C345 1.328 . S
N350 C349 1.315 . S
H351 C345 0.929 . S
H352 C349 0.930 . S
H353 C341 0.929 . S
H354 C343 0.929 . S
O355 Co330 2.351 . S
O355 C358 1.244 . S
O356 Co330 2.155 . S
O356 C358 1.240 . S
O357 Co330 2.096 . S
O357 C338 1.247 . S
C358 O355 1.244 . S
C358 O356 1.240 . S
H359 C333 0.931 . S
H360 C342 0.931 . S
H361 C346 0.929 . S
H362 C348 0.930 . S
Co363 N367 2.148 . S
Co363 N373 2.128 . S
Co363 N383 2.194 . S
Co363 O388 2.351 . S
Co363 O389 2.155 . S
Co363 O390 2.096 . S
C364 N367 1.301 . S
C364 N368 1.328 . S
C364 H369 0.930 . S
C365 C366 1.333 . S
C365 N367 1.317 . S
C365 H370 0.930 . S
C366 C365 1.333 . S
C366 N368 1.350 . S
C366 H392 0.931 . S
N367 Co363 2.148 . S
N367 C364 1.301 . S
N367 C365 1.317 . S
N368 C364 1.328 . S
N368 C366 1.350 . S
H369 C364 0.930 . S
H370 C365 0.930 . S
C371 O372 1.224 . S
C371 O390 1.247 . S
O372 C371 1.224 . S
N373 Co363 2.128 . S
N373 C374 1.355 . S
N373 C376 1.311 . S
C374 N373 1.355 . S
C374 C375 1.363 . S
C374 H386 0.929 . S
C375 C374 1.363 . S
C375 N377 1.375 . S
C375 H393 0.931 . S
C376 N373 1.311 . S
C376 N377 1.347 . S
C376 H387 0.929 . S
N377 C375 1.375 . S
N377 C376 1.347 . S
C378 C381 1.365 . S
C378 N383 1.328 . S
C378 H384 0.929 . S
C379 C380 1.362 . S
C379 C382 1.378 . S
C379 H394 0.929 . S
C380 C379 1.362 . S
C380 C381 1.366 . S
C381 C378 1.365 . S
C381 C380 1.366 . S
C381 H395 0.930 . S
C382 C379 1.378 . S
C382 N383 1.315 . S
C382 H385 0.930 . S
N383 Co363 2.194 . S
N383 C378 1.328 . S
N383 C382 1.315 . S
H384 C378 0.929 . S
H385 C382 0.930 . S
H386 C374 0.929 . S
H387 C376 0.929 . S
O388 Co363 2.351 . S
O388 C391 1.244 . S
O389 Co363 2.155 . S
O389 C391 1.240 . S
O390 Co363 2.096 . S
O390 C371 1.247 . S
C391 O388 1.244 . S
C391 O389 1.240 . S
H392 C366 0.931 . S
H393 C375 0.931 . S
H394 C379 0.929 . S
H395 C381 0.930 . S
Co396 N400 2.148 . S
Co396 N406 2.128 . S
Co396 N416 2.194 1_554 S
Co396 O421 2.351 1_554 S
Co396 O422 2.155 . S
Co396 O423 2.096 . S
C397 N400 1.301 1_556 S
C397 N401 1.328 . S
C397 H402 0.930 . S
C398 C399 1.333 . S
C398 N400 1.317 . S
C398 H403 0.930 . S
C399 C398 1.333 . S
C399 N401 1.350 1_554 S
C399 H425 0.931 . S
N400 Co396 2.148 . S
N400 C397 1.301 1_554 S
N400 C398 1.317 . S
N401 C397 1.328 . S
N401 C399 1.350 1_556 S
H402 C397 0.930 . S
H403 C398 0.930 . S
C404 O405 1.224 . S
C404 O423 1.247 . S
O405 C404 1.224 . S
N406 Co396 2.128 . S
N406 C407 1.355 1_554 S
N406 C409 1.311 . S
C407 N406 1.355 1_556 S
C407 C408 1.363 . S
C407 H419 0.929 . S
C408 C407 1.363 . S
C408 N410 1.375 1_556 S
C408 H426 0.931 . S
C409 N406 1.311 . S
C409 N410 1.347 . S
C409 H420 0.929 . S
N410 C408 1.375 1_554 S
N410 C409 1.347 . S
C411 C414 1.365 . S
C411 N416 1.328 . S
C411 H417 0.929 . S
C412 C413 1.362 . S
C412 C415 1.378 . S
C412 H427 0.929 . S
C413 C412 1.362 . S
C413 C414 1.366 . S
C414 C411 1.365 . S
C414 C413 1.366 . S
C414 H428 0.930 . S
C415 C412 1.378 . S
C415 N416 1.315 . S
C415 H418 0.930 . S
N416 Co396 2.194 1_556 S
N416 C411 1.328 . S
N416 C415 1.315 . S
H417 C411 0.929 . S
H418 C415 0.930 . S
H419 C407 0.929 . S
H420 C409 0.929 . S
O421 Co396 2.351 1_556 S
O421 C424 1.244 . S
O422 Co396 2.155 . S
O422 C424 1.240 1_554 S
O423 Co396 2.096 . S
O423 C404 1.247 . S
C424 O421 1.244 . S
C424 O422 1.240 1_556 S
H425 C399 0.931 . S
H426 C408 0.931 . S
H427 C412 0.929 . S
H428 C414 0.930 . S
Co429 N433 2.148 . S
Co429 N439 2.128 . S
Co429 N449 2.194 1_554 S
Co429 O454 2.351 1_554 S
Co429 O455 2.155 . S
Co429 O456 2.096 . S
C430 N433 1.301 1_556 S
C430 N434 1.328 . S
C430 H435 0.930 . S
C431 C432 1.333 . S
C431 N433 1.317 . S
C431 H436 0.930 . S
C432 C431 1.333 . S
C432 N434 1.350 1_554 S
C432 H458 0.931 . S
N433 Co429 2.148 . S
N433 C430 1.301 1_554 S
N433 C431 1.317 . S
N434 C430 1.328 . S
N434 C432 1.350 1_556 S
H435 C430 0.930 . S
H436 C431 0.930 . S
C437 O438 1.224 . S
C437 O456 1.247 . S
O438 C437 1.224 . S
N439 Co429 2.128 . S
N439 C440 1.355 1_554 S
N439 C442 1.311 . S
C440 N439 1.355 1_556 S
C440 C441 1.363 . S
C440 H452 0.929 . S
C441 C440 1.363 . S
C441 N443 1.375 1_556 S
C441 H459 0.931 . S
C442 N439 1.311 . S
C442 N443 1.347 . S
C442 H453 0.929 . S
N443 C441 1.375 1_554 S
N443 C442 1.347 . S
C444 C447 1.365 . S
C444 N449 1.328 . S
C444 H450 0.929 . S
C445 C446 1.362 . S
C445 C448 1.378 . S
C445 H460 0.929 . S
C446 C445 1.362 . S
C446 C447 1.366 . S
C447 C444 1.365 . S
C447 C446 1.366 . S
C447 H461 0.930 . S
C448 C445 1.378 . S
C448 N449 1.315 . S
C448 H451 0.930 . S
N449 Co429 2.194 1_556 S
N449 C444 1.328 . S
N449 C448 1.315 . S
H450 C444 0.929 . S
H451 C448 0.930 . S
H452 C440 0.929 . S
H453 C442 0.929 . S
O454 Co429 2.351 1_556 S
O454 C457 1.244 . S
O455 Co429 2.155 . S
O455 C457 1.240 1_554 S
O456 Co429 2.096 . S
O456 C437 1.247 . S
C457 O454 1.244 . S
C457 O455 1.240 1_556 S
H458 C432 0.931 . S
H459 C441 0.931 . S
H460 C445 0.929 . S
H461 C447 0.930 . S
Co462 N466 2.148 . S
Co462 N472 2.128 . S
Co462 N482 2.194 . S
Co462 O487 2.351 . S
Co462 O488 2.155 . S
Co462 O489 2.096 . S
C463 N466 1.301 . S
C463 N467 1.328 . S
C463 H468 0.930 . S
C464 C465 1.333 . S
C464 N466 1.317 . S
C464 H469 0.930 . S
C465 C464 1.333 . S
C465 N467 1.350 . S
C465 H491 0.931 1_545 S
N466 Co462 2.148 . S
N466 C463 1.301 . S
N466 C464 1.317 . S
N467 C463 1.328 . S
N467 C465 1.350 . S
H468 C463 0.930 . S
H469 C464 0.930 . S
C470 O471 1.224 . S
C470 O489 1.247 . S
O471 C470 1.224 . S
N472 Co462 2.128 . S
N472 C473 1.355 . S
N472 C475 1.311 . S
C473 N472 1.355 . S
C473 C474 1.363 . S
C473 H485 0.929 . S
C474 C473 1.363 . S
C474 N476 1.375 . S
C474 H492 0.931 . S
C475 N472 1.311 . S
C475 N476 1.347 . S
C475 H486 0.929 . S
N476 C474 1.375 . S
N476 C475 1.347 . S
C477 C480 1.365 . S
C477 N482 1.328 . S
C477 H483 0.929 . S
C478 C479 1.362 . S
C478 C481 1.378 . S
C478 H493 0.919 1_545 S
C479 C478 1.362 . S
C479 C480 1.366 . S
C480 C477 1.365 . S
C480 C479 1.366 . S
C480 H494 0.930 . S
C481 C478 1.378 . S
C481 N482 1.315 . S
C481 H484 0.930 . S
N482 Co462 2.194 . S
N482 C477 1.328 . S
N482 C481 1.315 . S
H483 C477 0.929 . S
H484 C481 0.930 . S
H485 C473 0.929 . S
H486 C475 0.929 . S
O487 Co462 2.351 . S
O487 C490 1.244 . S
O488 Co462 2.155 . S
O488 C490 1.240 . S
O489 Co462 2.096 . S
O489 C470 1.247 . S
C490 O487 1.244 . S
C490 O488 1.240 . S
H491 C465 0.931 1_565 S
H492 C474 0.931 . S
H493 C478 0.919 1_565 S
H494 C480 0.930 . S
Co495 N499 2.148 . S
Co495 N505 2.128 . S
Co495 N515 2.194 . S
Co495 O520 2.351 . S
Co495 O521 2.155 . S
Co495 O522 2.096 . S
C496 N499 1.301 . S
C496 N500 1.328 . S
C496 H501 0.930 . S
C497 C498 1.333 . S
C497 N499 1.317 . S
C497 H502 0.930 . S
C498 C497 1.333 . S
C498 N500 1.350 . S
C498 H524 0.931 1_565 S
N499 Co495 2.148 . S
N499 C496 1.301 . S
N499 C497 1.317 . S
N500 C496 1.328 . S
N500 C498 1.350 . S
H501 C496 0.930 . S
H502 C497 0.930 . S
C503 O504 1.224 . S
C503 O522 1.247 . S
O504 C503 1.224 . S
N505 Co495 2.128 . S
N505 C506 1.355 . S
N505 C508 1.311 . S
C506 N505 1.355 . S
C506 C507 1.363 . S
C506 H518 0.929 . S
C507 C506 1.363 . S
C507 N509 1.375 . S
C507 H525 0.931 . S
C508 N505 1.311 . S
C508 N509 1.347 . S
C508 H519 0.929 . S
N509 C507 1.375 . S
N509 C508 1.347 . S
C510 C513 1.365 . S
C510 N515 1.328 . S
C510 H516 0.929 . S
C511 C512 1.362 . S
C511 C514 1.378 . S
C511 H526 0.919 1_565 S
C512 C511 1.362 . S
C512 C513 1.366 . S
C513 C510 1.365 . S
C513 C512 1.366 . S
C513 H527 0.930 . S
C514 C511 1.378 . S
C514 N515 1.315 . S
C514 H517 0.930 . S
N515 Co495 2.194 . S
N515 C510 1.328 . S
N515 C514 1.315 . S
H516 C510 0.929 . S
H517 C514 0.930 . S
H518 C506 0.929 . S
H519 C508 0.929 . S
O520 Co495 2.351 . S
O520 C523 1.244 . S
O521 Co495 2.155 . S
O521 C523 1.240 . S
O522 Co495 2.096 . S
O522 C503 1.247 . S
C523 O520 1.244 . S
C523 O521 1.240 . S
H524 C498 0.931 1_545 S
H525 C507 0.931 . S
H526 C511 0.919 1_545 S
H527 C513 0.930 . S
C528 C529 1.363 . S
C528 C534 1.379 . S
C528 N536 1.356 . S
C529 C528 1.363 . S
C529 C535 1.363 . S
C530 C531 1.363 . S
C530 C535 1.379 . S
C530 N537 1.356 . S
C531 C530 1.363 . S
C531 C534 1.363 . S
N532 C534 1.356 . S
N532 H544 0.984 . S
N532 H545 0.985 . S
N533 C535 1.356 1_554 S
N533 H538 0.984 . S
N533 H539 0.985 . S
C534 C528 1.379 . S
C534 C531 1.363 . S
C534 N532 1.356 . S
C535 C529 1.363 . S
C535 C530 1.379 . S
C535 N533 1.356 1_556 S
N536 C528 1.356 . S
N536 H542 0.984 . S
N536 H543 0.984 . S
N537 C530 1.356 . S
N537 H540 0.984 . S
N537 H541 0.985 . S
H538 N533 0.984 . S
H539 N533 0.985 . S
H540 N537 0.984 . S
H541 N537 0.985 . S
H542 N536 0.984 . S
H543 N536 0.984 . S
H544 N532 0.984 . S
H545 N532 0.985 . S
C546 C547 1.363 . S
C546 C552 1.379 . S
C546 N554 1.356 . S
C547 C546 1.363 . S
C547 C553 1.363 . S
C548 C549 1.363 . S
C548 C553 1.379 . S
C548 N555 1.356 . S
C549 C548 1.363 . S
C549 C552 1.363 . S
N550 C552 1.356 . S
N550 H562 0.984 . S
N550 H563 0.985 . S
N551 C553 1.356 . S
N551 H556 0.984 . S
N551 H557 0.985 . S
C552 C546 1.379 . S
C552 C549 1.363 . S
C552 N550 1.356 . S
C553 C547 1.363 . S
C553 C548 1.379 . S
C553 N551 1.356 . S
N554 C546 1.356 . S
N554 H560 0.984 . S
N554 H561 0.987 . S
N555 C548 1.356 . S
N555 H558 0.984 . S
N555 H559 0.985 . S
H556 N551 0.984 . S
H557 N551 0.985 . S
H558 N555 0.984 . S
H559 N555 0.985 . S
H560 N554 0.984 . S
H561 N554 0.987 . S
H562 N550 0.984 . S
H563 N550 0.985 . S
C564 C565 1.363 . S
C564 C570 1.379 . S
C564 N572 1.356 . S
C565 C564 1.363 . S
C565 C571 1.363 . S
C566 C567 1.363 . S
C566 C571 1.379 . S
C566 N573 1.356 . S
C567 C566 1.363 . S
C567 C570 1.363 . S
N568 C570 1.356 . S
N568 H580 0.984 . S
N568 H581 0.985 . S
N569 C571 1.356 . S
N569 H574 0.984 . S
N569 H575 0.985 . S
C570 C564 1.379 . S
C570 C567 1.363 . S
C570 N568 1.356 . S
C571 C565 1.363 . S
C571 C566 1.379 . S
C571 N569 1.356 . S
N572 C564 1.356 . S
N572 H578 0.984 . S
N572 H579 0.984 . S
N573 C566 1.356 . S
N573 H576 0.984 . S
N573 H577 0.985 . S
H574 N569 0.984 . S
H575 N569 0.985 . S
H576 N573 0.984 . S
H577 N573 0.985 . S
H578 N572 0.984 . S
H579 N572 0.984 . S
H580 N568 0.984 . S
H581 N568 0.985 . S
C582 C583 1.363 . S
C582 C588 1.379 . S
C582 N590 1.356 . S
C583 C582 1.363 . S
C583 C589 1.363 . S
C584 C585 1.363 . S
C584 C589 1.379 . S
C584 N591 1.356 . S
C585 C584 1.363 . S
C585 C588 1.363 . S
N586 C588 1.356 . S
N586 H598 0.984 . S
N586 H599 0.985 . S
N587 C589 1.356 . S
N587 H592 0.984 . S
N587 H593 0.985 . S
C588 C582 1.379 . S
C588 C585 1.363 . S
C588 N586 1.356 . S
C589 C583 1.363 . S
C589 C584 1.379 . S
C589 N587 1.356 . S
N590 C582 1.356 . S
N590 H596 0.984 1_554 S
N590 H597 0.984 1_554 S
N591 C584 1.356 . S
N591 H594 0.984 . S
N591 H595 0.985 . S
H592 N587 0.984 . S
H593 N587 0.985 . S
H594 N591 0.984 . S
H595 N591 0.985 . S
H596 N590 0.984 1_556 S
H597 N590 0.984 1_556 S
H598 N586 0.984 . S
H599 N586 0.985 . S
C600 C601 1.363 . S
C600 C606 1.379 . S
C600 N608 1.356 . S
C601 C600 1.363 . S
C601 C607 1.363 . S
C602 C603 1.363 . S
C602 C607 1.379 . S
C602 N609 1.356 . S
C603 C602 1.363 . S
C603 C606 1.363 . S
N604 C606 1.356 . S
N604 H616 0.984 . S
N604 H617 0.985 . S
N605 C607 1.356 . S
N605 H610 0.984 . S
N605 H611 0.985 . S
C606 C600 1.379 . S
C606 C603 1.363 . S
C606 N604 1.356 . S
C607 C601 1.363 . S
C607 C602 1.379 . S
C607 N605 1.356 . S
N608 C600 1.356 . S
N608 H614 0.984 . S
N608 H615 0.984 . S
N609 C602 1.356 . S
N609 H612 0.984 . S
N609 H613 0.985 . S
H610 N605 0.984 . S
H611 N605 0.985 . S
H612 N609 0.984 . S
H613 N609 0.985 . S
H614 N608 0.984 . S
H615 N608 0.984 . S
H616 N604 0.984 . S
H617 N604 0.985 . S
C618 C619 1.363 . S
C618 C624 1.379 . S
C618 N626 1.356 . S
C619 C618 1.363 . S
C619 C625 1.363 . S
C620 C621 1.363 . S
C620 C625 1.379 . S
C620 N627 1.356 . S
C621 C620 1.363 . S
C621 C624 1.363 . S
N622 C624 1.356 . S
N622 H634 0.984 . S
N622 H635 0.985 . S
N623 C625 1.356 . S
N623 H628 0.984 . S
N623 H629 0.985 . S
C624 C618 1.379 . S
C624 C621 1.363 . S
C624 N622 1.356 . S
C625 C619 1.363 . S
C625 C620 1.379 . S
C625 N623 1.356 . S
N626 C618 1.356 . S
N626 H632 0.984 . S
N626 H633 0.984 . S
N627 C620 1.356 . S
N627 H630 0.984 . S
N627 H631 0.985 . S
H628 N623 0.984 . S
H629 N623 0.985 . S
H630 N627 0.984 . S
H631 N627 0.985 . S
H632 N626 0.984 . S
H633 N626 0.984 . S
H634 N622 0.984 . S
H635 N622 0.985 . S
C636 C637 1.363 . S
C636 C642 1.379 . S
C636 N644 1.356 . S
C637 C636 1.363 . S
C637 C643 1.363 . S
C638 C639 1.363 . S
C638 C643 1.379 . S
C638 N645 1.356 . S
C639 C638 1.363 . S
C639 C642 1.363 . S
N640 C642 1.356 . S
N640 H652 0.984 . S
N640 H653 0.985 . S
N641 C643 1.356 . S
N641 H646 0.984 . S
N641 H647 0.985 . S
C642 C636 1.379 . S
C642 C639 1.363 . S
C642 N640 1.356 . S
C643 C637 1.363 . S
C643 C638 1.379 . S
C643 N641 1.356 . S
N644 C636 1.356 . S
N644 H650 0.984 . S
N644 H651 0.984 . S
N645 C638 1.356 . S
N645 H648 0.984 . S
N645 H649 0.985 . S
H646 N641 0.984 . S
H647 N641 0.985 . S
H648 N645 0.984 . S
H649 N645 0.985 . S
H650 N644 0.984 . S
H651 N644 0.984 . S
H652 N640 0.984 . S
H653 N640 0.985 . S
C654 C655 1.363 . S
C654 C660 1.379 . S
C654 N662 1.356 . S
C655 C654 1.363 . S
C655 C661 1.363 . S
C656 C657 1.363 . S
C656 C661 1.379 . S
C656 N663 1.356 . S
C657 C656 1.363 . S
C657 C660 1.363 . S
N658 C660 1.356 . S
N658 H670 0.984 1_655 S
N658 H671 0.985 . S
N659 C661 1.356 . S
N659 H664 0.984 . S
N659 H665 0.985 . S
C660 C654 1.379 . S
C660 C657 1.363 . S
C660 N658 1.356 . S
C661 C655 1.363 . S
C661 C656 1.379 . S
C661 N659 1.356 . S
N662 C654 1.356 . S
N662 H668 0.984 . S
N662 H669 0.984 . S
N663 C656 1.356 . S
N663 H666 0.984 . S
N663 H667 0.985 . S
H664 N659 0.984 . S
H665 N659 0.985 . S
H666 N663 0.984 . S
H667 N663 0.985 . S
H668 N662 0.984 . S
H669 N662 0.984 . S
H670 N658 0.984 1_455 S
H671 N658 0.985 . S
C672 C673 1.363 . S
C672 C678 1.379 . S
C672 N680 1.356 . S
C673 C672 1.363 . S
C673 C679 1.363 . S
C674 C675 1.363 . S
C674 C679 1.379 . S
C674 N681 1.356 . S
C675 C674 1.363 . S
C675 C678 1.363 . S
N676 C678 1.356 . S
N676 H688 0.984 . S
N676 H689 0.985 . S
N677 C679 1.356 . S
N677 H682 0.984 . S
N677 H683 0.985 . S
C678 C672 1.379 . S
C678 C675 1.363 . S
C678 N676 1.356 . S
C679 C673 1.363 . S
C679 C674 1.379 . S
C679 N677 1.356 . S
N680 C672 1.356 . S
N680 H686 0.984 . S
N680 H687 0.984 . S
N681 C674 1.356 . S
N681 H684 0.984 . S
N681 H685 0.985 . S
H682 N677 0.984 . S
H683 N677 0.985 . S
H684 N681 0.984 . S
H685 N681 0.985 . S
H686 N680 0.984 . S
H687 N680 0.984 . S
H688 N676 0.984 . S
H689 N676 0.985 . S
C690 C691 1.363 . S
C690 C696 1.379 . S
C690 N698 1.356 . S
C691 C690 1.363 . S
C691 C697 1.363 . S
C692 C693 1.363 . S
C692 C697 1.379 . S
C692 N699 1.356 . S
C693 C692 1.363 . S
C693 C696 1.363 . S
N694 C696 1.356 . S
N694 H706 0.984 . S
N694 H707 0.985 . S
N695 C697 1.356 . S
N695 H700 0.984 . S
N695 H701 0.985 . S
C696 C690 1.379 . S
C696 C693 1.363 . S
C696 N694 1.356 . S
C697 C691 1.363 . S
C697 C692 1.379 . S
C697 N695 1.356 . S
N698 C690 1.356 . S
N698 H704 0.984 . S
N698 H705 0.984 . S
N699 C692 1.356 . S
N699 H702 0.984 . S
N699 H703 0.985 . S
H700 N695 0.984 . S
H701 N695 0.985 . S
H702 N699 0.984 . S
H703 N699 0.985 . S
H704 N698 0.984 . S
H705 N698 0.984 . S
H706 N694 0.984 . S
H707 N694 0.985 . S
C708 C709 1.363 . S
C708 C714 1.379 . S
C708 N716 1.356 . S
C709 C708 1.363 . S
C709 C715 1.363 . S
C710 C711 1.363 . S
C710 C715 1.379 . S
C710 N717 1.356 . S
C711 C710 1.363 . S
C711 C714 1.363 . S
N712 C714 1.356 . S
N712 H724 0.984 . S
N712 H725 0.985 . S
N713 C715 1.356 . S
N713 H718 0.984 . S
N713 H719 0.985 . S
C714 C708 1.379 . S
C714 C711 1.363 . S
C714 N712 1.356 . S
C715 C709 1.363 . S
C715 C710 1.379 . S
C715 N713 1.356 . S
N716 C708 1.356 . S
N716 H722 0.984 . S
N716 H723 0.984 . S
N717 C710 1.356 . S
N717 H720 0.984 . S
N717 H721 0.985 . S
H718 N713 0.984 . S
H719 N713 0.985 . S
H720 N717 0.984 . S
H721 N717 0.985 . S
H722 N716 0.984 . S
H723 N716 0.984 . S
H724 N712 0.984 . S
H725 N712 0.985 . S
C726 C727 1.363 . S
C726 C732 1.379 . S
C726 N734 1.356 . S
C727 C726 1.363 . S
C727 C733 1.363 . S
C728 C729 1.363 . S
C728 C733 1.379 . S
C728 N735 1.356 . S
C729 C728 1.363 . S
C729 C732 1.363 . S
N730 C732 1.356 . S
N730 H742 0.984 . S
N730 H743 0.985 . S
N731 C733 1.356 . S
N731 H736 0.984 . S
N731 H737 0.985 . S
C732 C726 1.379 . S
C732 C729 1.363 . S
C732 N730 1.356 . S
C733 C727 1.363 . S
C733 C728 1.379 . S
C733 N731 1.356 . S
N734 C726 1.356 . S
N734 H740 0.984 . S
N734 H741 0.984 . S
N735 C728 1.356 . S
N735 H738 0.984 . S
N735 H739 0.985 . S
H736 N731 0.984 . S
H737 N731 0.985 . S
H738 N735 0.984 . S
H739 N735 0.985 . S
H740 N734 0.984 . S
H741 N734 0.984 . S
H742 N730 0.984 . S
H743 N730 0.985 . S
C744 C745 1.363 . S
C744 C750 1.379 . S
C744 N752 1.356 . S
C745 C744 1.363 . S
C745 C751 1.363 . S
C746 C747 1.363 . S
C746 C751 1.379 . S
C746 N753 1.356 . S
C747 C746 1.363 . S
C747 C750 1.363 . S
N748 C750 1.356 . S
N748 H760 0.984 . S
N748 H761 0.985 . S
N749 C751 1.356 . S
N749 H754 0.984 1_556 S
N749 H755 0.985 1_556 S
C750 C744 1.379 . S
C750 C747 1.363 . S
C750 N748 1.356 . S
C751 C745 1.363 . S
C751 C746 1.379 . S
C751 N749 1.356 . S
N752 C744 1.356 . S
N752 H758 0.984 . S
N752 H759 0.984 . S
N753 C746 1.356 . S
N753 H756 0.984 . S
N753 H757 0.985 . S
H754 N749 0.984 1_554 S
H755 N749 0.985 1_554 S
H756 N753 0.984 . S
H757 N753 0.985 . S
H758 N752 0.984 . S
H759 N752 0.984 . S
H760 N748 0.984 . S
H761 N748 0.985 . S
C762 C763 1.363 . S
C762 C768 1.379 . S
C762 N770 1.356 . S
C763 C762 1.363 . S
C763 C769 1.363 . S
C764 C765 1.363 . S
C764 C769 1.379 . S
C764 N771 1.356 . S
C765 C764 1.363 . S
C765 C768 1.363 . S
N766 C768 1.356 . S
N766 H778 0.984 . S
N766 H779 0.985 . S
N767 C769 1.356 1_554 S
N767 H772 0.984 . S
N767 H773 0.985 . S
C768 C762 1.379 . S
C768 C765 1.363 . S
C768 N766 1.356 . S
C769 C763 1.363 . S
C769 C764 1.379 . S
C769 N767 1.356 1_556 S
N770 C762 1.356 . S
N770 H776 0.984 . S
N770 H777 0.984 . S
N771 C764 1.356 . S
N771 H774 0.984 . S
N771 H775 0.985 . S
H772 N767 0.984 . S
H773 N767 0.985 . S
H774 N771 0.984 . S
H775 N771 0.985 . S
H776 N770 0.984 . S
H777 N770 0.984 . S
H778 N766 0.984 . S
H779 N766 0.985 . S
C780 C781 1.363 . S
C780 C786 1.379 . S
C780 N788 1.356 . S
C781 C780 1.363 . S
C781 C787 1.363 . S
C782 C783 1.363 . S
C782 C787 1.379 . S
C782 N789 1.356 . S
C783 C782 1.363 . S
C783 C786 1.363 . S
N784 C786 1.356 . S
N784 H796 0.984 . S
N784 H797 0.985 . S
N785 C787 1.356 . S
N785 H790 0.984 . S
N785 H791 0.985 . S
C786 C780 1.379 . S
C786 C783 1.363 . S
C786 N784 1.356 . S
C787 C781 1.363 . S
C787 C782 1.379 . S
C787 N785 1.356 . S
N788 C780 1.356 . S
N788 H794 0.984 . S
N788 H795 0.984 . S
N789 C782 1.356 . S
N789 H792 0.984 . S
N789 H793 0.985 . S
H790 N785 0.984 . S
H791 N785 0.985 . S
H792 N789 0.984 . S
H793 N789 0.985 . S
H794 N788 0.984 . S
H795 N788 0.984 . S
H796 N784 0.984 . S
H797 N784 0.985 . S
C798 C799 1.363 . S
C798 C804 1.379 . S
C798 N806 1.356 . S
C799 C798 1.363 . S
C799 C805 1.363 . S
C800 C801 1.363 . S
C800 C805 1.379 . S
C800 N807 1.356 . S
C801 C800 1.363 . S
C801 C804 1.363 . S
N802 C804 1.356 . S
N802 H814 0.984 . S
N802 H815 0.985 . S
N803 C805 1.356 . S
N803 H808 0.984 . S
N803 H809 0.985 . S
C804 C798 1.379 . S
C804 C801 1.363 . S
C804 N802 1.356 . S
C805 C799 1.363 . S
C805 C800 1.379 . S
C805 N803 1.356 . S
N806 C798 1.356 . S
N806 H812 0.984 . S
N806 H813 0.984 . S
N807 C800 1.356 . S
N807 H810 0.984 . S
N807 H811 0.985 . S
H808 N803 0.984 . S
H809 N803 0.985 . S
H810 N807 0.984 . S
H811 N807 0.985 . S
H812 N806 0.984 . S
H813 N806 0.984 . S
H814 N802 0.984 . S
H815 N802 0.985 . S
C816 C817 1.363 . S
C816 C822 1.379 . S
C816 N824 1.356 1_455 S
C817 C816 1.363 . S
C817 C823 1.363 . S
C818 C819 1.363 . S
C818 C823 1.379 . S
C818 N825 1.356 . S
C819 C818 1.363 . S
C819 C822 1.363 . S
N820 C822 1.356 . S
N820 H832 0.984 . S
N820 H833 0.985 . S
N821 C823 1.356 . S
N821 H826 0.984 1_455 S
N821 H827 0.985 . S
C822 C816 1.379 . S
C822 C819 1.363 . S
C822 N820 1.356 . S
C823 C817 1.363 . S
C823 C818 1.379 . S
C823 N821 1.356 . S
N824 C816 1.356 1_655 S
N824 H830 0.984 . S
N824 H831 0.984 . S
N825 C818 1.356 . S
N825 H828 0.984 . S
N825 H829 0.985 . S
H826 N821 0.984 1_655 S
H827 N821 0.985 . S
H828 N825 0.984 . S
H829 N825 0.985 . S
H830 N824 0.984 . S
H831 N824 0.984 . S
H832 N820 0.984 . S
H833 N820 0.985 . S
C834 C835 1.363 1_455 S
C834 C840 1.379 . S
C834 N842 1.356 . S
C835 C834 1.363 1_655 S
C835 C841 1.363 . S
C836 C837 1.363 . S
C836 C841 1.379 . S
C836 N843 1.356 . S
C837 C836 1.363 . S
C837 C840 1.363 1_655 S
N838 C840 1.356 . S
N838 H850 0.984 . S
N838 H851 0.985 1_455 S
N839 C841 1.356 . S
N839 H844 0.984 . S
N839 H845 0.985 . S
C840 C834 1.379 . S
C840 C837 1.363 1_455 S
C840 N838 1.356 . S
C841 C835 1.363 . S
C841 C836 1.379 . S
C841 N839 1.356 . S
N842 C834 1.356 . S
N842 H848 0.984 . S
N842 H849 0.984 . S
N843 C836 1.356 . S
N843 H846 0.984 . S
N843 H847 0.985 . S
H844 N839 0.984 . S
H845 N839 0.985 . S
H846 N843 0.984 . S
H847 N843 0.985 . S
H848 N842 0.984 . S
H849 N842 0.984 . S
H850 N838 0.984 . S
H851 N838 0.985 1_655 S
C852 C853 1.363 . S
C852 C858 1.379 . S
C852 N860 1.356 . S
C853 C852 1.363 . S
C853 C859 1.363 . S
C854 C855 1.363 . S
C854 C859 1.379 . S
C854 N861 1.356 . S
C855 C854 1.363 . S
C855 C858 1.363 . S
N856 C858 1.356 . S
N856 H868 0.984 . S
N856 H869 0.985 . S
N857 C859 1.356 . S
N857 H862 0.984 . S
N857 H863 0.985 . S
C858 C852 1.379 . S
C858 C855 1.363 . S
C858 N856 1.356 . S
C859 C853 1.363 . S
C859 C854 1.379 . S
C859 N857 1.356 . S
N860 C852 1.356 . S
N860 H866 0.984 . S
N860 H867 0.984 . S
N861 C854 1.356 . S
N861 H864 0.984 . S
N861 H865 0.985 . S
H862 N857 0.984 . S
H863 N857 0.985 . S
H864 N861 0.984 . S
H865 N861 0.985 . S
H866 N860 0.984 . S
H867 N860 0.984 . S
H868 N856 0.984 . S
H869 N856 0.985 . S
C870 C871 1.363 . S
C870 C876 1.379 . S
C870 N878 1.356 . S
C871 C870 1.363 . S
C871 C877 1.363 . S
C872 C873 1.363 . S
C872 C877 1.379 . S
C872 N879 1.356 . S
C873 C872 1.363 . S
C873 C876 1.363 . S
N874 C876 1.356 . S
N874 H886 0.984 . S
N874 H887 0.985 . S
N875 C877 1.356 . S
N875 H880 0.984 . S
N875 H881 0.985 . S
C876 C870 1.379 . S
C876 C873 1.363 . S
C876 N874 1.356 . S
C877 C871 1.363 . S
C877 C872 1.379 . S
C877 N875 1.356 . S
N878 C870 1.356 . S
N878 H884 0.984 . S
N878 H885 0.984 . S
N879 C872 1.356 . S
N879 H882 0.984 . S
N879 H883 0.985 . S
H880 N875 0.984 . S
H881 N875 0.985 . S
H882 N879 0.984 . S
H883 N879 0.985 . S
H884 N878 0.984 . S
H885 N878 0.984 . S
H886 N874 0.984 . S
H887 N874 0.985 . S
C888 C889 1.363 . S
C888 C894 1.379 . S
C888 N896 1.356 . S
C889 C888 1.363 . S
C889 C895 1.363 1_455 S
C890 C891 1.363 1_655 S
C890 C895 1.379 . S
C890 N897 1.356 . S
C891 C890 1.363 1_455 S
C891 C894 1.363 . S
N892 C894 1.356 . S
N892 H904 0.984 . S
N892 H905 0.985 . S
N893 C895 1.356 . S
N893 H898 0.984 . S
N893 H899 0.985 . S
C894 C888 1.379 . S
C894 C891 1.363 . S
C894 N892 1.356 . S
C895 C889 1.363 1_655 S
C895 C890 1.379 . S
C895 N893 1.356 . S
N896 C888 1.356 . S
N896 H902 0.984 . S
N896 H903 0.984 . S
N897 C890 1.356 . S
N897 H900 0.984 1_655 S
N897 H901 0.985 . S
H898 N893 0.984 . S
H899 N893 0.985 . S
H900 N897 0.984 1_455 S
H901 N897 0.985 . S
H902 N896 0.984 . S
H903 N896 0.984 . S
H904 N892 0.984 . S
H905 N892 0.985 . S
C906 C907 1.363 1_455 S
C906 C912 1.379 1_455 S
C906 N914 1.356 . S
C907 C906 1.363 1_655 S
C907 C913 1.363 . S
C908 C909 1.363 . S
C908 C913 1.379 . S
C908 N915 1.356 . S
C909 C908 1.363 . S
C909 C912 1.363 . S
N910 C912 1.356 . S
N910 H922 0.984 1_655 S
N910 H923 0.985 . S
N911 C913 1.356 . S
N911 H916 0.984 . S
N911 H917 0.985 . S
C912 C906 1.379 1_655 S
C912 C909 1.363 . S
C912 N910 1.356 . S
C913 C907 1.363 . S
C913 C908 1.379 . S
C913 N911 1.356 . S
N914 C906 1.356 . S
N914 H920 0.984 . S
N914 H921 0.984 . S
N915 C908 1.356 . S
N915 H918 0.984 . S
N915 H919 0.985 . S
H916 N911 0.984 . S
H917 N911 0.985 . S
H918 N915 0.984 . S
H919 N915 0.985 . S
H920 N914 0.984 . S
H921 N914 0.984 . S
H922 N910 0.984 1_455 S
H923 N910 0.985 . S
C924 C925 1.363 . S
C924 C930 1.379 1_556 S
C924 N932 1.356 . S
C925 C924 1.363 . S
C925 C931 1.363 . S
C926 C927 1.363 1_556 S
C926 C931 1.379 1_565 S
C926 N933 1.356 1_556 S
C927 C926 1.363 1_554 S
C927 C930 1.363 1_565 S
N928 C930 1.356 . S
N928 H940 0.984 . S
N928 H941 0.985 . S
N929 C931 1.356 . S
N929 H934 0.984 . S
N929 H935 0.985 1_545 S
C930 C924 1.379 1_554 S
C930 C927 1.363 1_545 S
C930 N928 1.356 . S
C931 C925 1.363 . S
C931 C926 1.379 1_545 S
C931 N929 1.356 . S
N932 C924 1.356 . S
N932 H938 0.984 . S
N932 H939 0.984 . S
N933 C926 1.356 1_554 S
N933 H936 0.984 . S
N933 H937 0.985 1_554 S
H934 N929 0.984 . S
H935 N929 0.985 1_565 S
H936 N933 0.984 . S
H937 N933 0.985 1_556 S
H938 N932 0.984 . S
H939 N932 0.984 . S
H940 N928 0.984 . S
H941 N928 0.985 . S
C942 C943 1.363 . S
C942 C948 1.379 1_565 S
C942 N950 1.356 . S
C943 C942 1.363 . S
C943 C949 1.363 . S
C944 C945 1.363 1_565 S
C944 C949 1.379 1_554 S
C944 N951 1.356 . S
C945 C944 1.363 1_545 S
C945 C948 1.363 1_554 S
N946 C948 1.356 . S
N946 H958 0.984 . S
N946 H959 0.985 1_556 S
N947 C949 1.356 . S
N947 H952 0.984 . S
N947 H953 0.985 1_556 S
C948 C942 1.379 1_545 S
C948 C945 1.363 1_556 S
C948 N946 1.356 . S
C949 C943 1.363 . S
C949 C944 1.379 1_556 S
C949 N947 1.356 . S
N950 C942 1.356 . S
N950 H956 0.984 1_565 S
N950 H957 0.984 . S
N951 C944 1.356 . S
N951 H954 0.984 . S
N951 H955 0.985 . S
H952 N947 0.984 . S
H953 N947 0.985 1_554 S
H954 N951 0.984 . S
H955 N951 0.985 . S
H956 N950 0.984 1_545 S
H957 N950 0.984 . S
H958 N946 0.984 . S
H959 N946 0.985 1_554 S
C960 C961 1.363 . S
C960 C966 1.379 . S
C960 N968 1.356 . S
C961 C960 1.363 . S
C961 C967 1.363 . S
C962 C963 1.363 . S
C962 C967 1.379 . S
C962 N969 1.356 . S
C963 C962 1.363 . S
C963 C966 1.363 . S
N964 C966 1.356 . S
N964 H976 0.984 . S
N964 H977 0.985 . S
N965 C967 1.356 . S
N965 H970 0.984 . S
N965 H971 0.985 . S
C966 C960 1.379 . S
C966 C963 1.363 . S
C966 N964 1.356 . S
C967 C961 1.363 . S
C967 C962 1.379 . S
C967 N965 1.356 . S
N968 C960 1.356 . S
N968 H974 0.984 . S
N968 H975 0.984 . S
N969 C962 1.356 . S
N969 H972 0.984 . S
N969 H973 0.985 . S
H970 N965 0.984 . S
H971 N965 0.985 . S
H972 N969 0.984 . S
H973 N969 0.985 . S
H974 N968 0.984 . S
H975 N968 0.984 . S
H976 N964 0.984 . S
H977 N964 0.985 . S
C978 C979 1.363 . S
C978 C984 1.379 . S
C978 N986 1.356 . S
C979 C978 1.363 . S
C979 C985 1.363 . S
C980 C981 1.363 . S
C980 C985 1.379 . S
C980 N987 1.356 . S
C981 C980 1.363 . S
C981 C984 1.363 . S
N982 C984 1.356 . S
N982 H994 0.984 . S
N982 H995 0.985 . S
N983 C985 1.356 . S
N983 H988 0.984 . S
N983 H989 0.985 . S
C984 C978 1.379 . S
C984 C981 1.363 . S
C984 N982 1.356 . S
C985 C979 1.363 . S
C985 C980 1.379 . S
C985 N983 1.356 . S
N986 C978 1.356 . S
N986 H992 0.984 . S
N986 H993 0.984 . S
N987 C980 1.356 . S
N987 H990 0.984 . S
N987 H991 0.985 . S
H988 N983 0.984 . S
H989 N983 0.985 . S
H990 N987 0.984 . S
H991 N987 0.985 . S
H992 N986 0.984 . S
H993 N986 0.984 . S
H994 N982 0.984 . S
H995 N982 0.985 . S
C996 C997 1.363 1_556 S
C996 C1002 1.379 . S
C996 N1004 1.356 . S
C997 C996 1.363 1_554 S
C997 C1003 1.363 . S
C998 C999 1.363 1_554 S
C998 C1003 1.379 . S
C998 N1005 1.356 . S
C999 C998 1.363 1_556 S
C999 C1002 1.363 . S
N1000 C1002 1.356 . S
N1000 H1012 0.984 . S
N1000 H1013 0.985 . S
N1001 C1003 1.356 . S
N1001 H1006 0.984 . S
N1001 H1007 0.985 . S
C1002 C996 1.379 . S
C1002 C999 1.363 . S
C1002 N1000 1.356 . S
C1003 C997 1.363 . S
C1003 C998 1.379 . S
C1003 N1001 1.356 . S
N1004 C996 1.356 . S
N1004 H1010 0.984 . S
N1004 H1011 0.984 1_556 S
N1005 C998 1.356 . S
N1005 H1008 0.984 1_554 S
N1005 H1009 0.985 . S
H1006 N1001 0.984 . S
H1007 N1001 0.985 . S
H1008 N1005 0.984 1_556 S
H1009 N1005 0.985 . S
H1010 N1004 0.984 . S
H1011 N1004 0.984 1_554 S
H1012 N1000 0.984 . S
H1013 N1000 0.985 . S
C1014 C1015 1.363 . S
C1014 C1020 1.379 . S
C1014 N1022 1.356 . S
C1015 C1014 1.363 . S
C1015 C1021 1.363 1_554 S
C1016 C1017 1.363 . S
C1016 C1021 1.379 . S
C1016 N1023 1.356 . S
C1017 C1016 1.363 . S
C1017 C1020 1.363 1_556 S
N1018 C1020 1.356 . S
N1018 H1030 0.984 . S
N1018 H1031 0.985 1_554 S
N1019 C1021 1.356 . S
N1019 H1024 0.984 1_556 S
N1019 H1025 0.985 . S
C1020 C1014 1.379 . S
C1020 C1017 1.363 1_554 S
C1020 N1018 1.356 . S
C1021 C1015 1.363 1_556 S
C1021 C1016 1.379 . S
C1021 N1019 1.356 . S
N1022 C1014 1.356 . S
N1022 H1028 0.984 . S
N1022 H1029 0.984 . S
N1023 C1016 1.356 . S
N1023 H1026 0.984 . S
N1023 H1027 0.985 . S
H1024 N1019 0.984 1_554 S
H1025 N1019 0.985 . S
H1026 N1023 0.984 . S
H1027 N1023 0.985 . S
H1028 N1022 0.984 . S
H1029 N1022 0.984 . S
H1030 N1018 0.984 . S
H1031 N1018 0.985 1_556 S
C1032 C1033 1.363 . S
C1032 C1038 1.379 . S
C1032 N1040 1.356 . S
C1033 C1032 1.363 . S
C1033 C1039 1.363 . S
C1034 C1035 1.363 . S
C1034 C1039 1.379 . S
C1034 N1041 1.356 . S
C1035 C1034 1.363 . S
C1035 C1038 1.363 . S
N1036 C1038 1.356 . S
N1036 H1048 0.984 . S
N1036 H1049 0.985 . S
N1037 C1039 1.356 . S
N1037 H1042 0.984 . S
N1037 H1043 0.985 . S
C1038 C1032 1.379 . S
C1038 C1035 1.363 . S
C1038 N1036 1.356 . S
C1039 C1033 1.363 . S
C1039 C1034 1.379 . S
C1039 N1037 1.356 . S
N1040 C1032 1.356 . S
N1040 H1046 0.984 . S
N1040 H1047 0.984 . S
N1041 C1034 1.356 . S
N1041 H1044 0.984 . S
N1041 H1045 0.985 . S
H1042 N1037 0.984 . S
H1043 N1037 0.985 . S
H1044 N1041 0.984 . S
H1045 N1041 0.985 . S
H1046 N1040 0.984 . S
H1047 N1040 0.984 . S
H1048 N1036 0.984 . S
H1049 N1036 0.985 . S
C1050 C1051 1.363 . S
C1050 C1056 1.379 . S
C1050 N1058 1.356 . S
C1051 C1050 1.363 . S
C1051 C1057 1.363 . S
C1052 C1053 1.363 . S
C1052 C1057 1.379 . S
C1052 N1059 1.356 . S
C1053 C1052 1.363 . S
C1053 C1056 1.363 . S
N1054 C1056 1.356 . S
N1054 H1066 0.984 . S
N1054 H1067 0.985 . S
N1055 C1057 1.356 . S
N1055 H1060 0.984 . S
N1055 H1061 0.985 . S
C1056 C1050 1.379 . S
C1056 C1053 1.363 . S
C1056 N1054 1.356 . S
C1057 C1051 1.363 . S
C1057 C1052 1.379 . S
C1057 N1055 1.356 . S
N1058 C1050 1.356 . S
N1058 H1064 0.984 . S
N1058 H1065 0.984 . S
N1059 C1052 1.356 . S
N1059 H1062 0.984 . S
N1059 H1063 0.985 . S
H1060 N1055 0.984 . S
H1061 N1055 0.985 . S
H1062 N1059 0.984 . S
H1063 N1059 0.985 . S
H1064 N1058 0.984 . S
H1065 N1058 0.984 . S
H1066 N1054 0.984 . S
H1067 N1054 0.985 . S
C1068 C1069 1.363 1_545 S
C1068 C1074 1.379 . S
C1068 N1076 1.356 . S
C1069 C1068 1.363 1_565 S
C1069 C1075 1.363 . S
C1070 C1071 1.363 . S
C1070 C1075 1.379 1_545 S
C1070 N1077 1.356 . S
C1071 C1070 1.363 . S
C1071 C1074 1.363 . S
N1072 C1074 1.356 . S
N1072 H1084 0.984 . S
N1072 H1085 0.985 . S
N1073 C1075 1.356 . S
N1073 H1078 0.984 . S
N1073 H1079 0.985 . S
C1074 C1068 1.379 . S
C1074 C1071 1.363 . S
C1074 N1072 1.356 . S
C1075 C1069 1.363 . S
C1075 C1070 1.379 1_565 S
C1075 N1073 1.356 . S
N1076 C1068 1.356 . S
N1076 H1082 0.984 . S
N1076 H1083 0.984 1_545 S
N1077 C1070 1.356 . S
N1077 H1080 0.984 . S
N1077 H1081 0.985 . S
H1078 N1073 0.984 . S
H1079 N1073 0.985 . S
H1080 N1077 0.984 . S
H1081 N1077 0.985 . S
H1082 N1076 0.984 . S
H1083 N1076 0.984 1_565 S
H1084 N1072 0.984 . S
H1085 N1072 0.985 . S
C1086 C1087 1.363 1_565 S
C1086 C1092 1.379 . S
C1086 N1094 1.356 . S
C1087 C1086 1.363 1_545 S
C1087 C1093 1.363 . S
C1088 C1089 1.363 . S
C1088 C1093 1.379 1_565 S
C1088 N1095 1.356 . S
C1089 C1088 1.363 . S
C1089 C1092 1.363 . S
N1090 C1092 1.356 . S
N1090 H1102 0.984 . S
N1090 H1103 0.985 . S
N1091 C1093 1.356 . S
N1091 H1096 0.984 . S
N1091 H1097 0.985 . S
C1092 C1086 1.379 . S
C1092 C1089 1.363 . S
C1092 N1090 1.356 . S
C1093 C1087 1.363 . S
C1093 C1088 1.379 1_545 S
C1093 N1091 1.356 . S
N1094 C1086 1.356 . S
N1094 H1100 0.984 . S
N1094 H1101 0.984 1_565 S
N1095 C1088 1.356 . S
N1095 H1098 0.984 . S
N1095 H1099 0.985 . S
H1096 N1091 0.984 . S
H1097 N1091 0.985 . S
H1098 N1095 0.984 . S
H1099 N1095 0.985 . S
H1100 N1094 0.984 . S
H1101 N1094 0.984 1_545 S
H1102 N1090 0.984 . S
H1103 N1090 0.985 . S
C1104 C1105 1.363 1_554 S
C1104 C1110 1.379 . S
C1104 N1112 1.356 . S
C1105 C1104 1.363 1_556 S
C1105 C1111 1.363 . S
C1106 C1107 1.363 . S
C1106 C1111 1.379 . S
C1106 N1113 1.356 . S
C1107 C1106 1.363 . S
C1107 C1110 1.363 1_556 S
N1108 C1110 1.356 . S
N1108 H1120 0.984 . S
N1108 H1121 0.985 . S
N1109 C1111 1.356 . S
N1109 H1114 0.984 . S
N1109 H1115 0.985 . S
C1110 C1104 1.379 . S
C1110 C1107 1.363 1_554 S
C1110 N1108 1.356 . S
C1111 C1105 1.363 . S
C1111 C1106 1.379 . S
C1111 N1109 1.356 . S
N1112 C1104 1.356 . S
N1112 H1118 0.984 . S
N1112 H1119 0.984 . S
N1113 C1106 1.356 . S
N1113 H1116 0.984 . S
N1113 H1117 0.985 . S
H1114 N1109 0.984 . S
H1115 N1109 0.985 . S
H1116 N1113 0.984 . S
H1117 N1113 0.985 . S
H1118 N1112 0.984 . S
H1119 N1112 0.984 . S
H1120 N1108 0.984 . S
H1121 N1108 0.985 . S
C1122 C1123 1.363 1_554 S
C1122 C1128 1.379 . S
C1122 N1130 1.356 . S
C1123 C1122 1.363 1_556 S
C1123 C1129 1.363 . S
C1124 C1125 1.363 . S
C1124 C1129 1.379 . S
C1124 N1131 1.356 . S
C1125 C1124 1.363 . S
C1125 C1128 1.363 1_556 S
N1126 C1128 1.356 . S
N1126 H1138 0.984 . S
N1126 H1139 0.985 . S
N1127 C1129 1.356 . S
N1127 H1132 0.984 . S
N1127 H1133 0.985 . S
C1128 C1122 1.379 . S
C1128 C1125 1.363 1_554 S
C1128 N1126 1.356 . S
C1129 C1123 1.363 . S
C1129 C1124 1.379 . S
C1129 N1127 1.356 . S
N1130 C1122 1.356 . S
N1130 H1136 0.984 . S
N1130 H1137 0.984 . S
N1131 C1124 1.356 . S
N1131 H1134 0.984 . S
N1131 H1135 0.985 . S
H1132 N1127 0.984 . S
H1133 N1127 0.985 . S
H1134 N1131 0.984 . S
H1135 N1131 0.985 . S
H1136 N1130 0.984 . S
H1137 N1130 0.984 . S
H1138 N1126 0.984 . S
H1139 N1126 0.985 . S
C1140 C1141 1.363 . S
C1140 C1146 1.379 1_455 S
C1140 N1148 1.356 . S
C1141 C1140 1.363 . S
C1141 C1147 1.363 . S
C1142 C1143 1.363 . S
C1142 C1147 1.379 1_655 S
C1142 N1149 1.356 . S
C1143 C1142 1.363 . S
C1143 C1146 1.363 . S
N1144 C1146 1.356 . S
N1144 H1156 0.984 . S
N1144 H1157 0.985 . S
N1145 C1147 1.356 . S
N1145 H1150 0.984 . S
N1145 H1151 0.985 . S
C1146 C1140 1.379 1_655 S
C1146 C1143 1.363 . S
C1146 N1144 1.356 . S
C1147 C1141 1.363 . S
C1147 C1142 1.379 1_455 S
C1147 N1145 1.356 . S
N1148 C1140 1.356 . S
N1148 H1154 0.984 . S
N1148 H1155 0.984 . S
N1149 C1142 1.356 . S
N1149 H1152 0.984 . S
N1149 H1153 0.985 . S
H1150 N1145 0.984 . S
H1151 N1145 0.985 . S
H1152 N1149 0.984 . S
H1153 N1149 0.985 . S
H1154 N1148 0.984 . S
H1155 N1148 0.984 . S
H1156 N1144 0.984 . S
H1157 N1144 0.985 . S
C1158 C1159 1.363 . S
C1158 C1164 1.379 . S
C1158 N1166 1.356 . S
C1159 C1158 1.363 . S
C1159 C1165 1.363 . S
C1160 C1161 1.363 . S
C1160 C1165 1.379 . S
C1160 N1167 1.356 . S
C1161 C1160 1.363 . S
C1161 C1164 1.363 . S
N1162 C1164 1.356 . S
N1162 H1174 0.984 . S
N1162 H1175 0.985 . S
N1163 C1165 1.356 . S
N1163 H1168 0.984 . S
N1163 H1169 0.985 . S
C1164 C1158 1.379 . S
C1164 C1161 1.363 . S
C1164 N1162 1.356 . S
C1165 C1159 1.363 . S
C1165 C1160 1.379 . S
C1165 N1163 1.356 . S
N1166 C1158 1.356 . S
N1166 H1172 0.984 . S
N1166 H1173 0.984 . S
N1167 C1160 1.356 . S
N1167 H1170 0.984 . S
N1167 H1171 0.985 . S
H1168 N1163 0.984 . S
H1169 N1163 0.985 . S
H1170 N1167 0.984 . S
H1171 N1167 0.985 . S
H1172 N1166 0.984 . S
H1173 N1166 0.984 . S
H1174 N1162 0.984 . S
H1175 N1162 0.985 . S
C1176 C1177 1.363 . S
C1176 C1182 1.379 . S
C1176 N1184 1.356 . S
C1177 C1176 1.363 . S
C1177 C1183 1.363 . S
C1178 C1179 1.363 . S
C1178 C1183 1.379 . S
C1178 N1185 1.356 . S
C1179 C1178 1.363 . S
C1179 C1182 1.363 . S
N1180 C1182 1.356 . S
N1180 H1192 0.984 . S
N1180 H1193 0.985 . S
N1181 C1183 1.356 . S
N1181 H1186 0.984 . S
N1181 H1187 0.985 . S
C1182 C1176 1.379 . S
C1182 C1179 1.363 . S
C1182 N1180 1.356 . S
C1183 C1177 1.363 . S
C1183 C1178 1.379 . S
C1183 N1181 1.356 . S
N1184 C1176 1.356 . S
N1184 H1190 0.984 . S
N1184 H1191 0.984 . S
N1185 C1178 1.356 . S
N1185 H1188 0.984 . S
N1185 H1189 0.985 . S
H1186 N1181 0.984 . S
H1187 N1181 0.985 . S
H1188 N1185 0.984 . S
H1189 N1185 0.985 . S
H1190 N1184 0.984 . S
H1191 N1184 0.984 . S
H1192 N1180 0.984 . S
H1193 N1180 0.985 . S
C1194 C1195 1.363 . S
C1194 C1200 1.379 1_455 S
C1194 N1202 1.356 . S
C1195 C1194 1.363 . S
C1195 C1201 1.363 1_545 S
C1196 C1197 1.363 . S
C1196 C1201 1.379 1_655 S
C1196 N1203 1.356 . S
C1197 C1196 1.363 . S
C1197 C1200 1.363 1_565 S
N1198 C1200 1.356 . S
N1198 H1210 0.984 . S
N1198 H1211 0.985 . S
N1199 C1201 1.356 . S
N1199 H1204 0.984 . S
N1199 H1205 0.985 . S
C1200 C1194 1.379 1_655 S
C1200 C1197 1.363 1_545 S
C1200 N1198 1.356 . S
C1201 C1195 1.363 1_565 S
C1201 C1196 1.379 1_455 S
C1201 N1199 1.356 . S
N1202 C1194 1.356 . S
N1202 H1208 0.984 . S
N1202 H1209 0.984 . S
N1203 C1196 1.356 . S
N1203 H1206 0.984 . S
N1203 H1207 0.985 . S
H1204 N1199 0.984 . S
H1205 N1199 0.985 . S
H1206 N1203 0.984 . S
H1207 N1203 0.985 . S
H1208 N1202 0.984 . S
H1209 N1202 0.984 . S
H1210 N1198 0.984 . S
H1211 N1198 0.985 . S
C1212 C1213 1.363 . S
C1212 C1218 1.379 . S
C1212 N1220 1.356 . S
C1213 C1212 1.363 . S
C1213 C1219 1.363 . S
C1214 C1215 1.363 . S
C1214 C1219 1.379 . S
C1214 N1221 1.356 . S
C1215 C1214 1.363 . S
C1215 C1218 1.363 . S
N1216 C1218 1.356 . S
N1216 H1228 0.984 . S
N1216 H1229 0.985 . S
N1217 C1219 1.356 . S
N1217 H1222 0.984 . S
N1217 H1223 0.985 . S
C1218 C1212 1.379 . S
C1218 C1215 1.363 . S
C1218 N1216 1.356 . S
C1219 C1213 1.363 . S
C1219 C1214 1.379 . S
C1219 N1217 1.356 . S
N1220 C1212 1.356 . S
N1220 H1226 0.984 . S
N1220 H1227 0.984 . S
N1221 C1214 1.356 . S
N1221 H1224 0.984 . S
N1221 H1225 0.985 . S
H1222 N1217 0.984 . S
H1223 N1217 0.985 . S
H1224 N1221 0.984 . S
H1225 N1221 0.985 . S
H1226 N1220 0.984 . S
H1227 N1220 0.984 . S
H1228 N1216 0.984 . S
H1229 N1216 0.985 . S
C1230 C1231 1.363 1_545 S
C1230 C1236 1.379 . S
C1230 N1238 1.356 . S
C1231 C1230 1.363 1_565 S
C1231 C1237 1.363 . S
C1232 C1233 1.363 1_565 S
C1232 C1237 1.379 . S
C1232 N1239 1.356 . S
C1233 C1232 1.363 1_545 S
C1233 C1236 1.363 . S
N1234 C1236 1.356 . S
N1234 H1246 0.984 . S
N1234 H1247 0.985 . S
N1235 C1237 1.356 . S
N1235 H1240 0.984 . S
N1235 H1241 0.985 . S
C1236 C1230 1.379 . S
C1236 C1233 1.363 . S
C1236 N1234 1.356 . S
C1237 C1231 1.363 . S
C1237 C1232 1.379 . S
C1237 N1235 1.356 . S
N1238 C1230 1.356 . S
N1238 H1244 0.984 . S
N1238 H1245 0.984 . S
N1239 C1232 1.356 . S
N1239 H1242 0.984 . S
N1239 H1243 0.985 . S
H1240 N1235 0.984 . S
H1241 N1235 0.985 . S
H1242 N1239 0.984 . S
H1243 N1239 0.985 . S
H1244 N1238 0.984 . S
H1245 N1238 0.984 . S
H1246 N1234 0.984 . S
H1247 N1234 0.985 . S
C529 C28 1.774 . S
C531 N377 1.801 . S
C547 C61 1.774 . S
C549 N344 1.801 . S
C565 N47 1.802 . S
C567 C94 1.774 . S
C583 N14 1.802 . S
C585 C127 1.774 . S
C601 C160 1.774 . S
C603 N509 1.801 . S
C619 C193 1.774 . S
C621 N476 1.801 . S
C637 N179 1.801 . S
C639 C226 1.774 . S
C655 C259 1.774 . S
C657 N146 1.801 . S
C673 N113 1.802 . S
C675 C292 1.774 . S
C691 N80 1.802 . S
C693 C325 1.774 . S
C709 N311 1.802 . S
C711 C358 1.774 . S
C727 N278 1.802 . S
C729 C391 1.774 . S
C745 C424 1.774 . S
C747 N245 1.801 . S
C763 C457 1.774 . S
C765 N212 1.801 . S
C781 C490 1.774 . S
C783 N443 1.801 . S
C799 N410 1.801 . S
C801 C523 1.774 . S
C817 C182 1.273 1_455 S
C819 C8 1.248 . S
C835 C149 1.273 1_655 S
C837 C41 1.248 . S
C853 C74 1.248 . S
C855 C380 1.273 . S
C871 C347 1.273 . S
C873 C107 1.248 . S
C889 C50 1.273 1_455 S
C891 C140 1.248 . S
C907 C17 1.273 1_655 S
C909 C173 1.248 . S
C925 C206 1.248 . S
C927 C512 1.273 . S
C943 C239 1.248 . S
C945 C479 1.273 . S
C961 C272 1.248 . S
C963 C446 1.273 . S
C979 C413 1.273 . S
C981 C305 1.248 . S
C997 C116 1.273 . S
C999 C338 1.248 . S
C1015 C83 1.273 . S
C1017 C371 1.248 . S
C1033 C314 1.273 . S
C1035 C404 1.248 . S
C1051 C281 1.273 . S
C1053 C437 1.248 . S
C1069 C248 1.273 . S
C1071 C470 1.248 . S
C1087 C215 1.273 . S
C1089 C503 1.248 . S
C1105 N434 1.445 . S
C1107 N5 1.445 . S
C1123 N38 1.445 . S
C1125 N401 1.445 . S
C1141 N71 1.445 . S
C1143 N104 1.445 . S
C1159 N302 1.445 . S
C1161 N137 1.445 . S
C1177 N170 1.445 . S
C1179 N269 1.445 . S
C1195 N203 1.445 . S
C1197 N236 1.445 . S
C1213 N368 1.445 . S
C1215 N335 1.445 . S
C1231 N500 1.445 . S
C1233 N467 1.445 . S
