# Generated by pormake.
# Topology whk, (6)-cn, num edge types: 1
# Building blocks:
#     Node 0, Type 0, BuildingBlock: OJICUG_clean_sbu_0, # of connection points: 6
#     Node 1, Type 0, BuildingBlock: OJICUG_clean_sbu_0, # of connection points: 6
#     Node 2, Type 0, BuildingBlock: OJICUG_clean_sbu_0, # of connection points: 6
#     Node 3, Type 0, BuildingBlock: OJICUG_clean_sbu_0, # of connection points: 6
#     Node 4, Type 0, BuildingBlock: OJICUG_clean_sbu_0, # of connection points: 6
#     Node 5, Type 0, BuildingBlock: OJICUG_clean_sbu_0, # of connection points: 6
#     Node 6, Type 0, BuildingBlock: OJICUG_clean_sbu_0, # of connection points: 6
#     Node 7, Type 0, BuildingBlock: OJICUG_clean_sbu_0, # of connection points: 6
#     Node 8, Type 0, BuildingBlock: OJICUG_clean_sbu_0, # of connection points: 6
#     Node 9, Type 0, BuildingBlock: OJICUG_clean_sbu_0, # of connection points: 6
#     Node 10, Type 0, BuildingBlock: OJICUG_clean_sbu_0, # of connection points: 6
#     Node 11, Type 0, BuildingBlock: OJICUG_clean_sbu_0, # of connection points: 6
#     Node 12, Type 0, BuildingBlock: OJICUG_clean_sbu_0, # of connection points: 6
#     Node 13, Type 0, BuildingBlock: OJICUG_clean_sbu_0, # of connection points: 6
#     Node 14, Type 0, BuildingBlock: OJICUG_clean_sbu_0, # of connection points: 6
#     Node 15, Type 0, BuildingBlock: OJICUG_clean_sbu_0, # of connection points: 6
#     Edge 16, Type (0, 0), BuildingBlock: ZUJKAS_clean_linker_0, # of connection points: 2
#     Edge 17, Type (0, 0), BuildingBlock: ZUJKAS_clean_linker_0, # of connection points: 2
#     Edge 18, Type (0, 0), BuildingBlock: ZUJKAS_clean_linker_0, # of connection points: 2
#     Edge 19, Type (0, 0), BuildingBlock: ZUJKAS_clean_linker_0, # of connection points: 2
#     Edge 20, Type (0, 0), BuildingBlock: ZUJKAS_clean_linker_0, # of connection points: 2
#     Edge 21, Type (0, 0), BuildingBlock: ZUJKAS_clean_linker_0, # of connection points: 2
#     Edge 22, Type (0, 0), BuildingBlock: ZUJKAS_clean_linker_0, # of connection points: 2
#     Edge 23, Type (0, 0), BuildingBlock: ZUJKAS_clean_linker_0, # of connection points: 2
#     Edge 24, Type (0, 0), BuildingBlock: ZUJKAS_clean_linker_0, # of connection points: 2
#     Edge 25, Type (0, 0), BuildingBlock: ZUJKAS_clean_linker_0, # of connection points: 2
#     Edge 26, Type (0, 0), BuildingBlock: ZUJKAS_clean_linker_0, # of connection points: 2
#     Edge 27, Type (0, 0), BuildingBlock: ZUJKAS_clean_linker_0, # of connection points: 2
#     Edge 28, Type (0, 0), BuildingBlock: ZUJKAS_clean_linker_0, # of connection points: 2
#     Edge 29, Type (0, 0), BuildingBlock: ZUJKAS_clean_linker_0, # of connection points: 2
#     Edge 30, Type (0, 0), BuildingBlock: ZUJKAS_clean_linker_0, # of connection points: 2
#     Edge 31, Type (0, 0), BuildingBlock: ZUJKAS_clean_linker_0, # of connection points: 2
#     Edge 32, Type (0, 0), BuildingBlock: ZUJKAS_clean_linker_0, # of connection points: 2
#     Edge 33, Type (0, 0), BuildingBlock: ZUJKAS_clean_linker_0, # of connection points: 2
#     Edge 34, Type (0, 0), BuildingBlock: ZUJKAS_clean_linker_0, # of connection points: 2
#     Edge 35, Type (0, 0), BuildingBlock: ZUJKAS_clean_linker_0, # of connection points: 2
#     Edge 36, Type (0, 0), BuildingBlock: ZUJKAS_clean_linker_0, # of connection points: 2
#     Edge 37, Type (0, 0), BuildingBlock: ZUJKAS_clean_linker_0, # of connection points: 2
#     Edge 38, Type (0, 0), BuildingBlock: ZUJKAS_clean_linker_0, # of connection points: 2
#     Edge 39, Type (0, 0), BuildingBlock: ZUJKAS_clean_linker_0, # of connection points: 2
#     Edge 40, Type (0, 0), BuildingBlock: ZUJKAS_clean_linker_0, # of connection points: 2
#     Edge 41, Type (0, 0), BuildingBlock: ZUJKAS_clean_linker_0, # of connection points: 2
#     Edge 42, Type (0, 0), BuildingBlock: ZUJKAS_clean_linker_0, # of connection points: 2
#     Edge 43, Type (0, 0), BuildingBlock: ZUJKAS_clean_linker_0, # of connection points: 2
#     Edge 44, Type (0, 0), BuildingBlock: ZUJKAS_clean_linker_0, # of connection points: 2
#     Edge 45, Type (0, 0), BuildingBlock: ZUJKAS_clean_linker_0, # of connection points: 2
#     Edge 46, Type (0, 0), BuildingBlock: ZUJKAS_clean_linker_0, # of connection points: 2
#     Edge 47, Type (0, 0), BuildingBlock: ZUJKAS_clean_linker_0, # of connection points: 2
#     Edge 48, Type (0, 0), BuildingBlock: ZUJKAS_clean_linker_0, # of connection points: 2
#     Edge 49, Type (0, 0), BuildingBlock: ZUJKAS_clean_linker_0, # of connection points: 2
#     Edge 50, Type (0, 0), BuildingBlock: ZUJKAS_clean_linker_0, # of connection points: 2
#     Edge 51, Type (0, 0), BuildingBlock: ZUJKAS_clean_linker_0, # of connection points: 2
#     Edge 52, Type (0, 0), BuildingBlock: ZUJKAS_clean_linker_0, # of connection points: 2
#     Edge 53, Type (0, 0), BuildingBlock: ZUJKAS_clean_linker_0, # of connection points: 2
#     Edge 54, Type (0, 0), BuildingBlock: ZUJKAS_clean_linker_0, # of connection points: 2
#     Edge 55, Type (0, 0), BuildingBlock: ZUJKAS_clean_linker_0, # of connection points: 2
#     Edge 56, Type (0, 0), BuildingBlock: ZUJKAS_clean_linker_0, # of connection points: 2
#     Edge 57, Type (0, 0), BuildingBlock: ZUJKAS_clean_linker_0, # of connection points: 2
#     Edge 58, Type (0, 0), BuildingBlock: ZUJKAS_clean_linker_0, # of connection points: 2
#     Edge 59, Type (0, 0), BuildingBlock: ZUJKAS_clean_linker_0, # of connection points: 2
#     Edge 60, Type (0, 0), BuildingBlock: ZUJKAS_clean_linker_0, # of connection points: 2
#     Edge 61, Type (0, 0), BuildingBlock: ZUJKAS_clean_linker_0, # of connection points: 2
#     Edge 62, Type (0, 0), BuildingBlock: ZUJKAS_clean_linker_0, # of connection points: 2
#     Edge 63, Type (0, 0), BuildingBlock: ZUJKAS_clean_linker_0, # of connection points: 2
# Relax obj value: 0.277
# Max RMSD: 0.215
# Mean RMSD: 0.215
data_MOF--net-whk--node1-OJICUG_clean_sbu_0--edge1-ZUJKAS_clean_linker_0
_symmetry_space_group_name_H-M    P1
_symmetry_Int_Tables_number       1
_symmetry_cell_setting            triclinic
loop_
_symmetry_equiv_pos_as_xyz
'x, y, z'
_cell_length_a     46.404618
_cell_length_b     46.36901
_cell_length_c     69.490695
_cell_angle_alpha  89.988138
_cell_angle_beta   89.961442
_cell_angle_gamma 90.085202
loop_
_atom_site_label
_atom_site_type_symbol
_atom_site_fract_x
_atom_site_fract_y
_atom_site_fract_z
_atom_type_partial_charge
Sc0 Sc 0.56897 0.1455 0.39199 0.0
Sc1 Sc 0.57655 0.2182 0.37833 0.0
Sc2 Sc 0.52561 0.1982 0.41341 0.0
O3 O 0.55674 0.18737 0.39435 0.0
C4 C 0.5012 0.14026 0.39367 0.0
C5 C 0.57488 0.16737 0.3481 0.0
C6 C 0.51115 0.24039 0.37869 0.0
C7 C 0.6283 0.17836 0.39262 0.0
C8 C 0.55937 0.15081 0.43728 0.0
C9 C 0.57071 0.24993 0.41887 0.0
O10 O 0.52522 0.13197 0.38671 0.0
O11 O 0.57236 0.19411 0.35186 0.0
O12 O 0.50332 0.22453 0.39272 0.0
O13 O 0.61291 0.15715 0.39797 0.0
O14 O 0.54583 0.17452 0.43641 0.0
O15 O 0.58388 0.2456 0.40306 0.0
O16 O 0.56567 0.13636 0.42235 0.0
O17 O 0.61843 0.19992 0.38343 0.0
O18 O 0.54881 0.23526 0.42396 0.0
O19 O 0.57542 0.14817 0.36118 0.0
O20 O 0.49886 0.1622 0.40463 0.0
O21 O 0.5368 0.24058 0.37215 0.0
Sc22 Sc 0.35108 0.56867 0.39259 0.0
Sc23 Sc 0.27861 0.57989 0.37908 0.0
Sc24 Sc 0.29638 0.52624 0.41286 0.0
O25 O 0.30863 0.55804 0.39462 0.0
C26 C 0.35346 0.50049 0.39304 0.0
C27 C 0.32987 0.57757 0.34885 0.0
C28 C 0.25406 0.51532 0.37755 0.0
C29 C 0.32069 0.62947 0.39426 0.0
C30 C 0.34492 0.557 0.43766 0.0
C31 C 0.24645 0.57268 0.41952 0.0
O32 O 0.36321 0.52451 0.38693 0.0
O33 O 0.303 0.57699 0.35257 0.0
O34 O 0.26901 0.50639 0.39169 0.0
O35 O 0.3415 0.6131 0.39885 0.0
O36 O 0.32104 0.54379 0.43635 0.0
O37 O 0.25085 0.58634 0.40388 0.0
O38 O 0.35941 0.56441 0.42296 0.0
O39 O 0.29813 0.62076 0.38566 0.0
O40 O 0.2607 0.55036 0.42413 0.0
O41 O 0.349 0.57581 0.3619 0.0
O42 O 0.33088 0.4985 0.4034 0.0
O43 O 0.25521 0.5412 0.37143 0.0
Sc44 Sc 0.9285 0.35263 0.39434 0.0
Sc45 Sc 0.921 0.27988 0.38069 0.0
Sc46 Sc 0.97363 0.30019 0.41449 0.0
O47 O 0.9413 0.31086 0.39631 0.0
C48 C 0.99644 0.35841 0.39441 0.0
C49 C 0.92179 0.33085 0.35051 0.0
C50 C 0.98638 0.25775 0.37966 0.0
C51 C 0.86937 0.31944 0.39555 0.0
C52 C 0.94071 0.3472 0.43938 0.0
C53 C 0.9288 0.24853 0.42118 0.0
O54 O 0.97187 0.36685 0.38851 0.0
O55 O 0.92423 0.30407 0.35419 0.0
O56 O 0.99487 0.2738 0.39338 0.0
O57 O 0.88475 0.3407 0.40079 0.0
O58 O 0.95501 0.32399 0.43802 0.0
O59 O 0.91482 0.25265 0.40567 0.0
O60 O 0.93252 0.36129 0.42471 0.0
O61 O 0.87922 0.29788 0.38638 0.0
O62 O 0.95094 0.26327 0.42568 0.0
O63 O 0.92151 0.35003 0.36361 0.0
O64 O -0.00024 0.33608 0.40488 0.0
O65 O 0.96043 0.25745 0.37374 0.0
Sc66 Sc 0.20064 0.97267 0.4153 0.0
Sc67 Sc 0.21705 0.92093 0.38006 0.0
Sc68 Sc 0.14597 0.92948 0.3963 0.0
O69 O 0.18797 0.94137 0.39699 0.0
C70 C 0.15439 0.94074 0.44109 0.0
C71 C 0.25185 0.92685 0.41936 0.0
C72 C 0.1778 0.87002 0.39641 0.0
C73 C 0.24068 0.98607 0.37942 0.0
C74 C 0.14179 0.99715 0.39699 0.0
C75 C 0.16429 0.92207 0.35181 0.0
O76 O 0.17872 0.95295 0.43929 0.0
O77 O 0.24577 0.91296 0.40408 0.0
O78 O 0.15794 0.88593 0.40312 0.0
O79 O 0.22542 0.99455 0.39355 0.0
O80 O 0.13286 0.97316 0.39026 0.0
O81 O 0.19114 0.92616 0.3544 0.0
O82 O 0.16417 0.9993 0.40757 0.0
O83 O 0.24019 0.96018 0.37328 0.0
O84 O 0.1465 0.92079 0.36573 0.0
O85 O 0.23827 0.94939 0.4245 0.0
O86 O 0.13854 0.93499 0.42671 0.0
O87 O 0.19786 0.87932 0.38554 0.0
Sc88 Sc 0.06647 0.85489 0.11904 0.0
Sc89 Sc 0.07042 0.78197 0.13345 0.0
Sc90 Sc 0.02306 0.80298 0.09638 0.0
O91 O 0.05311 0.81325 0.11645 0.0
C92 C 0.99825 0.86052 0.11592 0.0
C93 C 0.06901 0.83405 0.16318 0.0
C94 C 0.00551 0.76043 0.13095 0.0
C95 C 0.12476 0.8201 0.12088 0.0
C96 C 0.05859 0.85079 0.07348 0.0
C97 C 0.06732 0.75111 0.09216 0.0
O98 O 0.02255 0.86959 0.12201 0.0
O99 O 0.06709 0.80719 0.15962 0.0
O100 O 0.00033 0.77413 0.11547 0.0
O101 O 0.11078 0.84234 0.11573 0.0
O102 O 0.04256 0.82865 0.07404 0.0
O103 O 0.07668 0.75274 0.10936 0.0
O104 O 0.06721 0.86336 0.08861 0.0
O105 O 0.11321 0.79795 0.12846 0.0
O106 O 0.04847 0.76808 0.08532 0.0
O107 O 0.06955 0.85296 0.14995 0.0
O108 O 0.99541 0.83756 0.10598 0.0
O109 O 0.02948 0.7622 0.13975 0.0
Sc110 Sc 0.69881 0.02782 0.09453 0.0
Sc111 Sc 0.71629 0.08105 0.12846 0.0
Sc112 Sc 0.64438 0.0709 0.11398 0.0
O113 O 0.68656 0.05964 0.11256 0.0
C114 C 0.65156 0.05859 0.06919 0.0
C115 C 0.74988 0.07358 0.08881 0.0
C116 C 0.67566 0.13098 0.11233 0.0
C117 C 0.73969 0.01597 0.13012 0.0
C118 C 0.64071 0.00318 0.11393 0.0
C119 C 0.66471 0.07991 0.15796 0.0
O120 O 0.67617 0.04697 0.07077 0.0
O121 O 0.74422 0.08808 0.1039 0.0
O122 O 0.65532 0.1147 0.10663 0.0
O123 O 0.72414 0.00685 0.11631 0.0
O124 O 0.63199 0.02721 0.12065 0.0
O125 O 0.69155 0.07717 0.15466 0.0
O126 O 0.66267 0.00102 0.10297 0.0
O127 O 0.7395 0.04214 0.13572 0.0
O128 O 0.646 0.07986 0.14457 0.0
O129 O 0.73619 0.05079 0.08434 0.0
O130 O 0.63593 0.06451 0.08366 0.0
O131 O 0.69682 0.12215 0.12235 0.0
Sc132 Sc 0.47708 0.69761 0.09564 0.0
Sc133 Sc 0.42583 0.7183 0.13034 0.0
Sc134 Sc 0.43232 0.6453 0.11684 0.0
O135 O 0.44528 0.68711 0.11444 0.0
C136 C 0.44321 0.65003 0.07156 0.0
C137 C 0.43257 0.74937 0.08942 0.0
C138 C 0.3733 0.67859 0.11676 0.0
C139 C 0.49117 0.74036 0.13036 0.0
C140 C 0.50045 0.63981 0.11577 0.0
C141 C 0.42652 0.66721 0.16068 0.0
O142 O 0.45819 0.67289 0.07257 0.0
O143 O 0.41982 0.74604 0.10551 0.0
O144 O 0.38811 0.65691 0.11164 0.0
O145 O 0.49878 0.72512 0.11601 0.0
O146 O 0.47594 0.63111 0.1217 0.0
O147 O 0.42864 0.694 0.15687 0.0
O148 O 0.50364 0.66232 0.10544 0.0
O149 O 0.46572 0.73988 0.13719 0.0
O150 O 0.42662 0.64793 0.14766 0.0
O151 O 0.45379 0.73386 0.08426 0.0
O152 O 0.43472 0.63658 0.08643 0.0
O153 O 0.38388 0.70079 0.12482 0.0
Sc154 Sc 0.79835 0.47074 0.09736 0.0
Sc155 Sc 0.78244 0.41798 0.13176 0.0
Sc156 Sc 0.85334 0.42872 0.11652 0.0
O157 O 0.8113 0.4396 0.11554 0.0
C158 C 0.84452 0.43919 0.07184 0.0
C159 C 0.74805 0.42409 0.09292 0.0
C160 C 0.82283 0.36866 0.11539 0.0
C161 C 0.75807 0.48298 0.13268 0.0
C162 C 0.85682 0.49599 0.11579 0.0
C163 C 0.8337 0.42051 0.16073 0.0
O164 O 0.81951 0.44993 0.07353 0.0
O165 O 0.75572 0.40863 0.10712 0.0
O166 O 0.8421 0.38531 0.10863 0.0
O167 O 0.77477 0.49256 0.11961 0.0
O168 O 0.86518 0.47243 0.12341 0.0
O169 O 0.80697 0.42458 0.1577 0.0
O170 O 0.83538 0.49738 0.10432 0.0
O171 O 0.75764 0.45655 0.13775 0.0
O172 O 0.85203 0.41902 0.1471 0.0
O173 O 0.75974 0.44811 0.08878 0.0
O174 O 0.86113 0.43588 0.0862 0.0
O175 O 0.80347 0.37707 0.12709 0.0
Sc176 Sc 0.47184 0.79695 0.59544 0.0
Sc177 Sc 0.41862 0.77893 0.62938 0.0
Sc178 Sc 0.42875 0.85129 0.61527 0.0
O179 O 0.43997 0.80901 0.61358 0.0
C180 C 0.49667 0.85494 0.61476 0.0
C181 C 0.48355 0.7555 0.63094 0.0
C182 C 0.42028 0.83048 0.65919 0.0
C183 C 0.42615 0.74593 0.58945 0.0
C184 C 0.44048 0.8444 0.57024 0.0
C185 C 0.36854 0.82003 0.61393 0.0
O186 O 0.49885 0.83249 0.60429 0.0
O187 O 0.45752 0.75578 0.6368 0.0
O188 O 0.42112 0.84949 0.64599 0.0
O189 O 0.4486 0.76006 0.58481 0.0
O190 O 0.43345 0.85934 0.58482 0.0
O191 O 0.37749 0.79805 0.62308 0.0
O192 O 0.45348 0.82046 0.57174 0.0
O193 O 0.41204 0.751 0.60479 0.0
O194 O 0.38468 0.84078 0.60879 0.0
O195 O 0.49241 0.77095 0.617 0.0
O196 O 0.47261 0.86415 0.6211 0.0
O197 O 0.42197 0.80359 0.65567 0.0
Sc198 Sc 0.64566 0.42877 0.61544 0.0
Sc199 Sc 0.71765 0.42099 0.63066 0.0
Sc200 Sc 0.69963 0.47225 0.59532 0.0
O201 O 0.6877 0.44093 0.61401 0.0
C202 C 0.65278 0.43928 0.57032 0.0
C203 C 0.67821 0.36926 0.61557 0.0
C204 C 0.75123 0.42711 0.59068 0.0
C205 C 0.66518 0.4225 0.65975 0.0
C206 C 0.64113 0.49673 0.61404 0.0
C207 C 0.74043 0.48626 0.63095 0.0
O208 O 0.63807 0.43209 0.58495 0.0
O209 O 0.69959 0.37919 0.62491 0.0
O210 O 0.73659 0.44878 0.58524 0.0
O211 O 0.64674 0.42238 0.64622 0.0
O212 O 0.66385 0.49914 0.60383 0.0
O213 O 0.73971 0.4607 0.63767 0.0
O214 O 0.63198 0.4726 0.62039 0.0
O215 O 0.69214 0.42472 0.65665 0.0
O216 O 0.72567 0.49406 0.61644 0.0
O217 O 0.65728 0.38466 0.60984 0.0
O218 O 0.6764 0.45295 0.57172 0.0
O219 O 0.74644 0.41405 0.60649 0.0
Sc220 Sc 0.06838 0.64599 0.61857 0.0
Sc221 Sc 0.07698 0.71852 0.63244 0.0
Sc222 Sc 0.0253 0.69949 0.59761 0.0
O223 O 0.05662 0.68806 0.61641 0.0
C224 C 0.05834 0.65199 0.57329 0.0
C225 C 0.12822 0.67812 0.61792 0.0
C226 C 0.07069 0.75092 0.59212 0.0
C227 C 0.07491 0.66726 0.66251 0.0
C228 C 0.00045 0.64155 0.61707 0.0
C229 C 0.01176 0.74127 0.63277 0.0
O230 O 0.06516 0.63754 0.58812 0.0
O231 O 0.11862 0.7001 0.62678 0.0
O232 O 0.04876 0.73635 0.58701 0.0
O233 O 0.07464 0.64811 0.6494 0.0
O234 O 0.99817 0.66383 0.60642 0.0
O235 O 0.03744 0.74088 0.63924 0.0
O236 O 0.02448 0.63279 0.62371 0.0
O237 O 0.07323 0.69409 0.65881 0.0
O238 O 0.00368 0.726 0.61853 0.0
O239 O 0.11257 0.65699 0.61279 0.0
O240 O 0.04471 0.67564 0.57436 0.0
O241 O 0.08394 0.74636 0.60786 0.0
Sc242 Sc 0.85259 0.06847 0.61815 0.0
Sc243 Sc 0.77977 0.07696 0.6313 0.0
Sc244 Sc 0.7998 0.02484 0.59699 0.0
O245 O 0.81065 0.05649 0.61569 0.0
C246 C 0.84798 0.05745 0.57297 0.0
C247 C 0.82055 0.12818 0.61702 0.0
C248 C 0.74888 0.07037 0.59045 0.0
C249 C 0.83026 0.07539 0.66184 0.0
C250 C 0.8571 0.0005 0.61731 0.0
C251 C 0.75683 0.01173 0.63158 0.0
O252 O 0.862 0.06459 0.58791 0.0
O253 O 0.79857 0.11855 0.62589 0.0
O254 O 0.76348 0.04825 0.5858 0.0
O255 O 0.84954 0.07529 0.64882 0.0
O256 O 0.83513 0.99793 0.60643 0.0
O257 O 0.75686 0.03754 0.63786 0.0
O258 O 0.86567 0.02471 0.62384 0.0
O259 O 0.80349 0.07333 0.65803 0.0
O260 O 0.77275 0.00347 0.61772 0.0
O261 O 0.84164 0.11254 0.61189 0.0
O262 O 0.82426 0.04388 0.57387 0.0
O263 O 0.75283 0.08386 0.6062 0.0
Sc264 Sc 0.93251 0.14602 0.89335 0.0
Sc265 Sc 0.92472 0.21845 0.87926 0.0
Sc266 Sc 0.97646 0.19924 0.91393 0.0
O267 O 0.94486 0.18795 0.8953 0.0
C268 C 0.9434 0.15183 0.93848 0.0
C269 C 0.87314 0.17828 0.89362 0.0
C270 C 0.93072 0.25015 0.91983 0.0
C271 C 0.92612 0.16728 0.84935 0.0
C272 C 0.00045 0.1412 0.89424 0.0
C273 C 0.98986 0.24166 0.87912 0.0
O274 O 0.9361 0.13741 0.92375 0.0
O275 O 0.88304 0.19981 0.88441 0.0
O276 O 0.95294 0.23587 0.9247 0.0
O277 O 0.9257 0.14833 0.8626 0.0
O278 O 0.00325 0.16354 0.9048 0.0
O279 O 0.96413 0.24131 0.87276 0.0
O280 O 0.97616 0.13253 0.88793 0.0
O281 O 0.92887 0.1941 0.85285 0.0
O282 O 0.9981 0.22597 0.89309 0.0
O283 O 0.88855 0.15741 0.89938 0.0
O284 O 0.95727 0.17535 0.93725 0.0
O285 O 0.91738 0.24573 0.90409 0.0
Sc286 Sc 0.35425 0.92748 0.89266 0.0
Sc287 Sc 0.28101 0.91839 0.88004 0.0
Sc288 Sc 0.3012 0.97119 0.91385 0.0
O289 O 0.31212 0.93924 0.89533 0.0
C290 C 0.35045 0.93951 0.93776 0.0
C291 C 0.3218 0.86755 0.89479 0.0
C292 C 0.25059 0.92582 0.9212 0.0
C293 C 0.33165 0.91954 0.84919 0.0
C294 C 0.35758 0.99575 0.89263 0.0
C295 C 0.25776 0.98313 0.87906 0.0
O296 O 0.36352 0.9308 0.92284 0.0
O297 O 0.29909 0.87706 0.8868 0.0
O298 O 0.26625 0.94704 0.92621 0.0
O299 O 0.35123 0.92118 0.86193 0.0
O300 O 0.33487 0.99864 0.90274 0.0
O301 O 0.25897 0.95768 0.87224 0.0
O302 O 0.36758 0.97144 0.88735 0.0
O303 O 0.30493 0.92016 0.85332 0.0
O304 O 0.27241 0.99112 0.89359 0.0
O305 O 0.34357 0.88314 0.89868 0.0
O306 O 0.32732 0.95401 0.93687 0.0
O307 O 0.2534 0.91321 0.90503 0.0
Sc308 Sc 0.56821 0.35321 0.89036 0.0
Sc309 Sc 0.56938 0.27946 0.87734 0.0
Sc310 Sc 0.52622 0.30307 0.91582 0.0
O311 O 0.55443 0.31196 0.89433 0.0
C312 C 0.56397 0.35167 0.9362 0.0
C313 C 0.62551 0.31612 0.88785 0.0
C314 C 0.5686 0.25021 0.91934 0.0
C315 C 0.5676 0.33094 0.8467 0.0
C316 C 0.50016 0.35962 0.89603 0.0
C317 C 0.50496 0.25974 0.88238 0.0
O318 O 0.57282 0.36229 0.92048 0.0
O319 O 0.61279 0.2934 0.88206 0.0
O320 O 0.55281 0.26934 0.92705 0.0
O321 O 0.56746 0.35053 0.85946 0.0
O322 O 0.49783 0.33657 0.90592 0.0
O323 O 0.52704 0.26233 0.87165 0.0
O324 O 0.52419 0.36887 0.88949 0.0
O325 O 0.56735 0.30423 0.8509 0.0
O326 O 0.50263 0.27253 0.89851 0.0
O327 O 0.61264 0.33967 0.89161 0.0
O328 O 0.54644 0.33071 0.93679 0.0
O329 O 0.57457 0.24985 0.90144 0.0
Sc330 Sc 0.19866 0.52812 0.91583 0.0
Sc331 Sc 0.21676 0.58046 0.88145 0.0
Sc332 Sc 0.14491 0.57159 0.89628 0.0
O333 O 0.18686 0.5597 0.89757 0.0
C334 C 0.14018 0.50408 0.89658 0.0
C335 C 0.23957 0.5151 0.8805 0.0
C336 C 0.16522 0.57953 0.85217 0.0
C337 C 0.25021 0.57352 0.92109 0.0
C338 C 0.15204 0.55999 0.94104 0.0
C339 C 0.17717 0.631 0.89764 0.0
O340 O 0.16195 0.50177 0.90771 0.0
O341 O 0.23993 0.54123 0.8748 0.0
O342 O 0.1467 0.58056 0.86568 0.0
O343 O 0.23646 0.55077 0.92566 0.0
O344 O 0.1362 0.56526 0.92658 0.0
O345 O 0.19752 0.62193 0.88695 0.0
O346 O 0.17661 0.54832 0.93947 0.0
O347 O 0.24457 0.58794 0.90597 0.0
O348 O 0.15688 0.615 0.90375 0.0
O349 O 0.22345 0.50632 0.89413 0.0
O350 O 0.13194 0.52812 0.88962 0.0
O351 O 0.19198 0.57586 0.85534 0.0
H352 H 0.57047 0.11295 0.33299 0.0
H353 H 0.58361 0.09704 0.30064 0.0
H354 H 0.60483 0.18458 0.28513 0.0
H355 H 0.59087 0.20084 0.31729 0.0
H356 H 0.57781 0.15816 0.25623 0.0
H357 H 0.66516 0.08711 0.28254 0.0
H358 H 0.63067 0.07788 0.29245 0.0
H359 H 0.64673 0.11225 0.29802 0.0
C360 C 0.57772 0.1289 0.32267 0.0
C361 C 0.57982 0.15819 0.32784 0.0
C362 C 0.58548 0.1197 0.30419 0.0
C363 C 0.59604 0.13945 0.29057 0.0
C364 C 0.59701 0.16886 0.29542 0.0
H365 H 0.69717 0.09665 0.18902 0.0
H366 H 0.68005 0.11077 0.22093 0.0
C367 C 0.58893 0.17815 0.31383 0.0
C368 C 0.60634 0.12948 0.27136 0.0
H369 H 0.65341 0.08335 0.24935 0.0
C370 C 0.59438 0.14184 0.25473 0.0
C371 C 0.62838 0.10856 0.26935 0.0
C372 C 0.64371 0.09589 0.28653 0.0
C373 C 0.60354 0.13365 0.23622 0.0
C374 C 0.62471 0.11184 0.23421 0.0
C375 C 0.63692 0.09975 0.25084 0.0
C376 C 0.63511 0.10188 0.21501 0.0
C377 C 0.59098 0.1491 0.21906 0.0
C378 C 0.61574 0.09133 0.20117 0.0
C379 C 0.62544 0.08349 0.18282 0.0
C380 C 0.65485 0.08549 0.178 0.0
C381 C 0.6744 0.09477 0.19219 0.0
C382 C 0.66461 0.10294 0.21047 0.0
H383 H 0.58198 0.17045 0.22312 0.0
H384 H 0.60744 0.1524 0.20766 0.0
H385 H 0.57315 0.13599 0.21299 0.0
H386 H 0.59302 0.0894 0.20447 0.0
H387 H 0.6098 0.07613 0.17234 0.0
H388 H 0.42971 0.61266 0.17571 0.0
H389 H 0.41469 0.59659 0.20765 0.0
H390 H 0.39447 0.68426 0.22321 0.0
H391 H 0.41013 0.70069 0.19141 0.0
H392 H 0.4201 0.65623 0.25256 0.0
H393 H 0.3315 0.58868 0.22376 0.0
H394 H 0.36611 0.57896 0.21426 0.0
H395 H 0.35123 0.61391 0.209 0.0
C396 C 0.42232 0.62863 0.18596 0.0
C397 C 0.42093 0.65799 0.18087 0.0
C398 C 0.41349 0.61933 0.20419 0.0
C399 C 0.40264 0.63907 0.21768 0.0
C400 C 0.40248 0.66856 0.21299 0.0
H401 H 0.29789 0.59684 0.31815 0.0
H402 H 0.31557 0.61141 0.2864 0.0
C403 C 0.41155 0.67794 0.19479 0.0
C404 C 0.39116 0.62898 0.23656 0.0
H405 H 0.34176 0.5836 0.25711 0.0
C406 C 0.40293 0.64039 0.25355 0.0
C407 C 0.36835 0.60871 0.2379 0.0
C408 C 0.35334 0.59706 0.22027 0.0
C409 C 0.39292 0.63176 0.27177 0.0
C410 C 0.37097 0.61055 0.27311 0.0
C411 C 0.35884 0.59953 0.25613 0.0
C412 C 0.35998 0.59994 0.29199 0.0
C413 C 0.40553 0.646 0.28939 0.0
C414 C 0.37881 0.58767 0.30551 0.0
C415 C 0.36881 0.57947 0.32371 0.0
C416 C 0.33961 0.58293 0.32874 0.0
C417 C 0.32049 0.59383 0.31481 0.0
C418 C 0.33059 0.60227 0.29664 0.0
H419 H 0.4155 0.66716 0.28587 0.0
H420 H 0.38883 0.64942 0.30061 0.0
H421 H 0.42259 0.63197 0.29547 0.0
H422 H 0.40139 0.5848 0.30209 0.0
H423 H 0.38412 0.57086 0.33396 0.0
H424 H 0.92855 0.38492 0.33531 0.0
H425 H 0.91595 0.40131 0.30298 0.0
H426 H 0.89021 0.31485 0.28782 0.0
H427 H 0.90369 0.29807 0.31995 0.0
H428 H 0.91815 0.33954 0.25876 0.0
H429 H 0.83505 0.41544 0.28523 0.0
H430 H 0.87008 0.42298 0.29489 0.0
H431 H 0.85232 0.38955 0.30075 0.0
C432 C 0.9204 0.36932 0.32506 0.0
C433 C 0.91692 0.34019 0.33031 0.0
C434 C 0.91296 0.37879 0.30661 0.0
C435 C 0.90132 0.35951 0.2931 0.0
C436 C 0.89891 0.33021 0.29803 0.0
H437 H 0.80109 0.40628 0.19226 0.0
H438 H 0.81812 0.39191 0.22412 0.0
C439 C 0.9067 0.32062 0.31642 0.0
C440 C 0.89138 0.36987 0.27392 0.0
H441 H 0.84665 0.4183 0.25198 0.0
C442 C 0.90247 0.35673 0.25729 0.0
C443 C 0.8705 0.39196 0.27194 0.0
C444 C 0.85606 0.4056 0.28915 0.0
C445 C 0.89353 0.3652 0.2388 0.0
C446 C 0.87355 0.3881 0.23682 0.0
C447 C 0.86225 0.40104 0.25345 0.0
C448 C 0.86333 0.39829 0.21766 0.0
C449 C 0.90499 0.34887 0.22164 0.0
C450 C 0.88294 0.40753 0.20353 0.0
C451 C 0.87327 0.41549 0.18521 0.0
C452 C 0.8437 0.41494 0.18071 0.0
C453 C 0.824 0.40702 0.19519 0.0
C454 C 0.83372 0.39872 0.21343 0.0
H455 H 0.91292 0.32714 0.22577 0.0
H456 H 0.88819 0.34629 0.2104 0.0
H457 H 0.92337 0.36095 0.21534 0.0
H458 H 0.9058 0.40832 0.20659 0.0
H459 H 0.88904 0.42179 0.17449 0.0
H460 H 0.19383 0.92418 0.3174 0.0
H461 H 0.1757 0.91159 0.28536 0.0
H462 H 0.09205 0.89339 0.30956 0.0
H463 H 0.10958 0.90659 0.34135 0.0
H464 H 0.15515 0.86083 0.27269 0.0
H465 H 0.06984 0.9432 0.26476 0.0
H466 H 0.09683 0.94511 0.2834 0.0
H467 H 0.06563 0.92239 0.28633 0.0
C468 C 0.17146 0.91793 0.31587 0.0
C469 C 0.15319 0.91661 0.33203 0.0
C470 C 0.16114 0.91064 0.29753 0.0
C471 C 0.13236 0.90193 0.29494 0.0
C472 C 0.1141 0.90074 0.31102 0.0
H473 H 0.07111 0.80133 0.1963 0.0
H474 H 0.08492 0.81737 0.22859 0.0
C475 C 0.12429 0.90819 0.32929 0.0
C476 C 0.12174 0.89268 0.27567 0.0
H477 H 0.06835 0.90383 0.24263 0.0
C478 C 0.13627 0.87036 0.26607 0.0
C479 C 0.09724 0.90526 0.26689 0.0
C480 C 0.08166 0.93051 0.27578 0.0
C481 C 0.12682 0.86004 0.24811 0.0
C482 C 0.10164 0.87183 0.23971 0.0
C483 C 0.08735 0.89443 0.24918 0.0
C484 C 0.09072 0.86214 0.2206 0.0
C485 C 0.14437 0.83709 0.23814 0.0
C486 C 0.08781 0.88215 0.20558 0.0
C487 C 0.07944 0.87316 0.18722 0.0
C488 C 0.07382 0.84385 0.18335 0.0
C489 C 0.07546 0.82401 0.19866 0.0
C490 C 0.08365 0.83311 0.21711 0.0
H491 H 0.16672 0.8361 0.24384 0.0
H492 H 0.13417 0.81575 0.24057 0.0
H493 H 0.14542 0.84102 0.22239 0.0
H494 H 0.09288 0.9047 0.20791 0.0
H495 H 0.07835 0.88917 0.17589 0.0
H496 H 0.29838 0.90067 0.81901 0.0
H497 H 0.31463 0.88665 0.78684 0.0
H498 H 0.40117 0.91304 0.80105 0.0
H499 H 0.38533 0.92638 0.83336 0.0
H500 H 0.33945 0.91483 0.75727 0.0
H501 H 0.41441 0.83105 0.78402 0.0
H502 H 0.38852 0.84859 0.79942 0.0
H503 H 0.42203 0.86615 0.79361 0.0
C504 C 0.32083 0.90373 0.81526 0.0
C505 C 0.34058 0.91438 0.8289 0.0
C506 C 0.33011 0.89562 0.79685 0.0
C507 C 0.35929 0.89806 0.79165 0.0
C508 C 0.37874 0.91008 0.80489 0.0
H509 H 0.42319 0.88542 0.6737 0.0
H510 H 0.40941 0.90183 0.70581 0.0
C511 C 0.36956 0.91793 0.82334 0.0
C512 C 0.36939 0.88775 0.77249 0.0
H513 H 0.41726 0.84224 0.75069 0.0
C514 C 0.35643 0.89892 0.75584 0.0
C515 C 0.39119 0.86656 0.77058 0.0
C516 C 0.40465 0.85215 0.78785 0.0
C517 C 0.36493 0.88986 0.73737 0.0
C518 C 0.38756 0.86956 0.73545 0.0
C519 C 0.40021 0.85807 0.75212 0.0
C520 C 0.39788 0.8594 0.71631 0.0
C521 C 0.34901 0.9016 0.72014 0.0
C522 C 0.3975 0.82988 0.71177 0.0
C523 C 0.40586 0.82032 0.69348 0.0
C524 C 0.41475 0.84011 0.67929 0.0
C525 C 0.41618 0.86956 0.68416 0.0
C526 C 0.40805 0.87905 0.70249 0.0
H527 H 0.32743 0.91001 0.72417 0.0
H528 H 0.36154 0.91969 0.71385 0.0
H529 H 0.3462 0.88479 0.70891 0.0
H530 H 0.38998 0.81425 0.72222 0.0
H531 H 0.40444 0.7975 0.69029 0.0
H532 H 0.55995 0.38469 0.83123 0.0
H533 H 0.57344 0.40121 0.7991 0.0
H534 H 0.59947 0.31484 0.78411 0.0
H535 H 0.58539 0.29797 0.8161 0.0
H536 H 0.62642 0.40099 0.78392 0.0
H537 H 0.55407 0.337 0.73706 0.0
H538 H 0.54862 0.33986 0.7627 0.0
H539 H 0.57475 0.31501 0.75318 0.0
C540 C 0.568 0.36903 0.82099 0.0
C541 C 0.57151 0.33994 0.82631 0.0
C542 C 0.57582 0.37857 0.80262 0.0
C543 C 0.58734 0.3593 0.78907 0.0
C544 C 0.59008 0.33007 0.79411 0.0
H545 H 0.6964 0.40652 0.69162 0.0
H546 H 0.67777 0.39254 0.72322 0.0
C547 C 0.58204 0.32043 0.81247 0.0
C548 C 0.59826 0.37023 0.77025 0.0
H549 H 0.59322 0.36102 0.72159 0.0
C550 C 0.61901 0.39236 0.77029 0.0
C551 C 0.58844 0.35923 0.75242 0.0
C552 C 0.56503 0.33667 0.75127 0.0
C553 C 0.63045 0.40349 0.75307 0.0
C554 C 0.62142 0.39174 0.73526 0.0
C555 C 0.60037 0.36989 0.73522 0.0
C556 C 0.6332 0.40191 0.71648 0.0
C557 C 0.65169 0.42811 0.75415 0.0
C558 C 0.61443 0.41165 0.70205 0.0
C559 C 0.62499 0.41937 0.6839 0.0
C560 C 0.65463 0.41755 0.67972 0.0
C561 C 0.67352 0.40852 0.69436 0.0
C562 C 0.66288 0.40057 0.7125 0.0
H563 H 0.64978 0.44004 0.76796 0.0
H564 H 0.67391 0.41942 0.75323 0.0
H565 H 0.64853 0.44353 0.74211 0.0
H566 H 0.59147 0.41291 0.70474 0.0
H567 H 0.60977 0.42625 0.67302 0.0
H568 H 0.06959 0.6128 0.67746 0.0
H569 H 0.08188 0.59652 0.70987 0.0
H570 H 0.10503 0.68353 0.72549 0.0
H571 H 0.09193 0.70014 0.69331 0.0
H572 H 0.13256 0.59714 0.72717 0.0
H573 H 0.05675 0.66172 0.77092 0.0
H574 H 0.05352 0.65875 0.74513 0.0
H575 H 0.07864 0.68387 0.75561 0.0
C576 C 0.07685 0.6286 0.68787 0.0
C577 C 0.07961 0.65785 0.68275 0.0
C578 C 0.08396 0.61921 0.70642 0.0
C579 C 0.0941 0.63879 0.72028 0.0
C580 C 0.09657 0.66807 0.71528 0.0
H581 H 0.19758 0.59423 0.82055 0.0
H582 H 0.18029 0.60722 0.78849 0.0
C583 C 0.08915 0.67754 0.69679 0.0
C584 C 0.10357 0.62829 0.73955 0.0
H585 H 0.09541 0.63919 0.78788 0.0
C586 C 0.12425 0.6062 0.74044 0.0
C587 C 0.09253 0.63977 0.75694 0.0
C588 C 0.06892 0.66212 0.75714 0.0
C589 C 0.13452 0.59567 0.75813 0.0
C590 C 0.12447 0.6081 0.7755 0.0
C591 C 0.10341 0.62982 0.77462 0.0
C592 C 0.13531 0.5989 0.79475 0.0
C593 C 0.15563 0.57094 0.75799 0.0
C594 C 0.11585 0.59034 0.80916 0.0
C595 C 0.12565 0.58332 0.82761 0.0
C596 C 0.1552 0.58459 0.83211 0.0
C597 C 0.17473 0.59264 0.81756 0.0
C598 C 0.16486 0.59998 0.79915 0.0
H599 H 0.15403 0.55822 0.74448 0.0
H600 H 0.17788 0.57963 0.75891 0.0
H601 H 0.15203 0.55624 0.77037 0.0
H602 H 0.09296 0.58935 0.80617 0.0
H603 H 0.10997 0.5772 0.83842 0.0
H604 H 0.88433 0.06885 0.6768 0.0
H605 H 0.90122 0.08214 0.70885 0.0
H606 H 0.8151 0.10807 0.72444 0.0
H607 H 0.79783 0.09406 0.6925 0.0
H608 H 0.90166 0.13432 0.72473 0.0
H609 H 0.83703 0.06125 0.77081 0.0
H610 H 0.83957 0.05663 0.74509 0.0
H611 H 0.81527 0.08286 0.75511 0.0
C612 C 0.86883 0.07694 0.68713 0.0
C613 C 0.83966 0.0803 0.68204 0.0
C614 C 0.87857 0.08463 0.70546 0.0
C615 C 0.85946 0.09593 0.71918 0.0
C616 C 0.8302 0.09881 0.7143 0.0
H617 H 0.91049 0.20017 0.81817 0.0
H618 H 0.89551 0.18319 0.7864 0.0
C619 C 0.82035 0.09084 0.69598 0.0
C620 C 0.8706 0.10615 0.73812 0.0
H621 H 0.86206 0.09922 0.78675 0.0
C622 C 0.89308 0.12651 0.73829 0.0
C623 C 0.85969 0.09579 0.75585 0.0
C624 C 0.83677 0.07271 0.75677 0.0
C625 C 0.90473 0.13698 0.75562 0.0
C626 C 0.89312 0.12739 0.77335 0.0
C627 C 0.87085 0.10679 0.77318 0.0
C628 C 0.90387 0.1381 0.79225 0.0
C629 C 0.92977 0.15773 0.75472 0.0
C630 C 0.91337 0.11849 0.80627 0.0
C631 C 0.92166 0.12811 0.82453 0.0
C632 C 0.92068 0.15763 0.82924 0.0
C633 C 0.91188 0.17734 0.81501 0.0
C634 C 0.90335 0.16765 0.79677 0.0
H635 H 0.94144 0.15612 0.74079 0.0
H636 H 0.92159 0.18011 0.75608 0.0
H637 H 0.94529 0.15375 0.76657 0.0
H638 H 0.914 0.0956 0.80316 0.0
H639 H 0.92832 0.11228 0.83509 0.0
H640 H 0.44616 0.15046 0.40612 0.0
H641 H 0.40224 0.12481 0.3972 0.0
H642 H 0.45131 0.0689 0.36005 0.0
H643 H 0.49562 0.09418 0.36905 0.0
H644 H 0.37735 0.1167 0.3604 0.0
H645 H 0.40714 0.01264 0.39497 0.0
H646 H 0.42602 0.04584 0.39999 0.0
H647 H 0.43265 0.02677 0.37794 0.0
C648 C 0.44776 0.13264 0.39611 0.0
C649 C 0.47457 0.12428 0.38844 0.0
C650 C 0.42255 0.11809 0.39096 0.0
C651 C 0.42355 0.09482 0.3781 0.0
C652 C 0.45014 0.08654 0.37023 0.0
H653 H 0.28405 0.97395 0.3538 0.0
H654 H 0.32793 0.00207 0.3487 0.0
C655 C 0.47544 0.10106 0.37539 0.0
C656 C 0.39667 0.07913 0.37325 0.0
H657 H 0.36238 0.01465 0.37934 0.0
C658 C 0.37412 0.0943 0.36438 0.0
C659 C 0.39258 0.0499 0.37838 0.0
C660 C 0.41574 0.03279 0.38848 0.0
C661 C 0.34735 0.08115 0.36084 0.0
C662 C 0.34294 0.05223 0.3666 0.0
C663 C 0.36584 0.03679 0.37484 0.0
C664 C 0.31418 0.03824 0.36605 0.0
C665 C 0.32401 0.09839 0.35109 0.0
C666 C 0.2914 0.04973 0.37689 0.0
C667 C 0.26621 0.03377 0.37981 0.0
C668 C 0.26343 0.00581 0.37212 0.0
C669 C 0.28539 0.99534 0.36001 0.0
C670 C 0.31059 0.01135 0.3571 0.0
H671 H 0.33328 0.11578 0.34198 0.0
H672 H 0.3101 0.08444 0.34201 0.0
H673 H 0.31032 0.10873 0.36222 0.0
H674 H 0.29382 0.0702 0.38421 0.0
H675 H 0.24979 0.04261 0.38918 0.0
H676 H 0.40308 0.49398 0.3717 0.0
H677 H 0.42823 0.44893 0.36416 0.0
H678 H 0.36331 0.40083 0.3949 0.0
H679 H 0.33823 0.4454 0.40266 0.0
H680 H 0.42027 0.38865 0.40592 0.0
H681 H 0.40661 0.38295 0.32648 0.0
H682 H 0.42062 0.41629 0.33587 0.0
H683 H 0.38441 0.40562 0.34155 0.0
C684 C 0.39405 0.47381 0.37676 0.0
C685 C 0.36866 0.47342 0.38788 0.0
C686 C 0.40834 0.44808 0.37229 0.0
C687 C 0.3974 0.42155 0.37878 0.0
C688 C 0.372 0.42108 0.38968 0.0
H689 H 0.45339 0.24482 0.38634 0.0
H690 H 0.42403 0.28825 0.38336 0.0
C691 C 0.35774 0.44667 0.39414 0.0
C692 C 0.41334 0.39434 0.37554 0.0
H693 H 0.43569 0.34695 0.34095 0.0
C694 C 0.42357 0.37949 0.39172 0.0
C695 C 0.41776 0.38262 0.35698 0.0
C696 C 0.40663 0.39751 0.33918 0.0
C697 C 0.43816 0.35323 0.38989 0.0
C698 C 0.44209 0.34114 0.37138 0.0
C699 C 0.43231 0.35616 0.35512 0.0
C700 C 0.45702 0.31319 0.36894 0.0
C701 C 0.44968 0.33885 0.40781 0.0
C702 C 0.48448 0.31228 0.36057 0.0
C703 C 0.5013 0.28738 0.36209 0.0
C704 C 0.49091 0.26309 0.37213 0.0
C705 C 0.46225 0.26324 0.37877 0.0
C706 C 0.44544 0.28807 0.37713 0.0
H707 H 0.45077 0.35403 0.42016 0.0
H708 H 0.43522 0.32077 0.41189 0.0
H709 H 0.47154 0.32992 0.40525 0.0
H710 H 0.49369 0.33143 0.35406 0.0
H711 H 0.5232 0.28803 0.35671 0.0
H712 H -0.0005 0.40731 0.37212 0.0
H713 H 0.04289 0.43313 0.36179 0.0
H714 H 0.09567 0.37229 0.39268 0.0
H715 H 0.0527 0.34621 0.40292 0.0
H716 H 0.08402 0.45873 0.38526 0.0
H717 H 0.13424 0.37465 0.33977 0.0
H718 H 0.09684 0.37331 0.34698 0.0
H719 H 0.12465 0.36174 0.36327 0.0
C720 C 0.02033 0.39932 0.37667 0.0
C721 C 0.02253 0.37462 0.38836 0.0
C722 C 0.0451 0.41407 0.37069 0.0
C723 C 0.07249 0.40425 0.37613 0.0
C724 C 0.07477 0.37979 0.38789 0.0
H725 H 0.24429 0.45874 0.38684 0.0
H726 H 0.19973 0.4319 0.38191 0.0
C727 C 0.05009 0.36507 0.3939 0.0
C728 C 0.09873 0.42056 0.37068 0.0
H729 H 0.16541 0.41292 0.35048 0.0
C730 C 0.10163 0.44897 0.37732 0.0
C731 C 0.12161 0.40771 0.36033 0.0
C732 C 0.11912 0.37776 0.35201 0.0
C733 C 0.12745 0.46431 0.3749 0.0
C734 C 0.15078 0.45104 0.36519 0.0
C735 C 0.14747 0.42304 0.35786 0.0
C736 C 0.17957 0.46482 0.36447 0.0
C737 C 0.13008 0.49396 0.38372 0.0
C738 C 0.18365 0.49149 0.35532 0.0
C739 C 0.20914 0.50704 0.35817 0.0
C740 C 0.23096 0.49609 0.37019 0.0
C741 C 0.22785 0.46805 0.3777 0.0
C742 C 0.20236 0.4526 0.37488 0.0
H743 H 0.112 0.49881 0.39369 0.0
H744 H 0.15066 0.49607 0.39176 0.0
H745 H 0.12999 0.51042 0.37213 0.0
H746 H 0.1665 0.50099 0.34688 0.0
H747 H 0.21087 0.52842 0.35198 0.0
H748 H 0.09295 0.00326 0.37487 0.0
H749 H 0.06777 0.0481 0.36688 0.0
H750 H 0.13029 0.09658 0.39946 0.0
H751 H 0.15533 0.0522 0.40772 0.0
H752 H 0.07324 0.10928 0.4086 0.0
H753 H 0.09153 0.11326 0.32952 0.0
H754 H 0.07645 0.08027 0.3387 0.0
H755 H 0.11243 0.09049 0.34532 0.0
C756 C 0.1014 0.02346 0.3803 0.0
C757 C 0.12616 0.02403 0.39201 0.0
C758 C 0.08712 0.04908 0.37556 0.0
C759 C 0.09744 0.07567 0.38234 0.0
C760 C 0.12209 0.07629 0.39398 0.0
H761 H 0.04432 0.25304 0.38645 0.0
H762 H 0.07297 0.20909 0.38385 0.0
C763 C 0.13632 0.05081 0.39873 0.0
C764 C 0.08176 0.10283 0.37846 0.0
H765 H 0.06168 0.14963 0.34289 0.0
C766 C 0.07077 0.11812 0.39423 0.0
C767 C 0.07845 0.11417 0.35968 0.0
C768 C 0.09049 0.09888 0.3423 0.0
C769 C 0.05657 0.14448 0.39179 0.0
C770 C 0.05373 0.15615 0.37308 0.0
C771 C 0.06422 0.14069 0.35721 0.0
C772 C 0.03937 0.18423 0.37007 0.0
C773 C 0.0444 0.15952 0.40927 0.0
C774 C 0.01176 0.18525 0.36194 0.0
C775 C 0.99531 0.21042 0.36329 0.0
C776 C 0.00624 0.23484 0.37292 0.0
C777 C 0.03507 0.23454 0.37919 0.0
C778 C 0.05149 0.20943 0.37775 0.0
H779 H 0.04291 0.14484 0.42188 0.0
H780 H 0.05864 0.17782 0.41322 0.0
H781 H 0.02262 0.16828 0.40621 0.0
H782 H 0.00215 0.16601 0.35585 0.0
H783 H 0.97327 0.20988 0.35819 0.0
H784 H 0.94277 0.84955 0.10467 0.0
H785 H 0.89924 0.8757 0.11369 0.0
H786 H 0.94982 0.93384 0.14841 0.0
H787 H 0.99371 0.90808 0.13928 0.0
H788 H 0.87587 0.88598 0.15068 0.0
H789 H 0.90448 0.98786 0.11279 0.0
H790 H 0.92312 0.95439 0.10836 0.0
H791 H 0.93065 0.97484 0.12972 0.0
C792 C 0.94478 0.86797 0.11416 0.0
C793 C 0.97187 0.87682 0.12111 0.0
C794 C 0.91981 0.8828 0.11937 0.0
C795 C 0.92136 0.90681 0.13158 0.0
C796 C 0.94824 0.9156 0.13873 0.0
H797 H 0.78351 0.02916 0.15512 0.0
H798 H 0.82721 0.00105 0.1605 0.0
C799 C 0.97329 0.90081 0.1335 0.0
C800 C 0.89474 0.92276 0.1365 0.0
H801 H 0.86045 0.98687 0.12941 0.0
C802 C 0.87253 0.90812 0.14619 0.0
C803 C 0.89055 0.95167 0.13069 0.0
C804 C 0.91332 0.96814 0.11968 0.0
C805 C 0.84597 0.9215 0.14989 0.0
C806 C 0.84145 0.95007 0.14349 0.0
C807 C 0.86404 0.96501 0.13442 0.0
C808 C 0.81279 0.96408 0.14415 0.0
C809 C 0.82294 0.90486 0.16047 0.0
C810 C 0.78973 0.95213 0.13381 0.0
C811 C 0.76466 0.96809 0.13071 0.0
C812 C 0.76232 0.99647 0.13772 0.0
C813 C 0.78454 0.00744 0.14942 0.0
C814 C 0.80962 0.99143 0.1525 0.0
H815 H 0.83247 0.88791 0.1698 0.0
H816 H 0.80949 0.91933 0.16948 0.0
H817 H 0.80874 0.89402 0.14985 0.0
H818 H 0.79185 0.93126 0.12696 0.0
H819 H 0.74799 0.95886 0.12171 0.0
H820 H 0.54655 0.75067 0.11843 0.0
H821 H 0.57397 0.79493 0.12306 0.0
H822 H 0.50882 0.8266 0.16191 0.0
H823 H 0.48093 0.7825 0.15721 0.0
H824 H 0.51812 0.86223 0.13102 0.0
H825 H 0.62249 0.83368 0.16433 0.0
H826 H 0.61388 0.81113 0.14415 0.0
H827 H 0.59146 0.81013 0.16528 0.0
C828 C 0.53839 0.76659 0.12844 0.0
C829 C 0.51125 0.7631 0.13721 0.0
C830 C 0.55425 0.7919 0.13115 0.0
C831 C 0.54347 0.81407 0.14285 0.0
C832 C 0.51753 0.80973 0.15283 0.0
H833 H 0.59612 0.99674 0.13967 0.0
H834 H 0.57204 0.9519 0.14913 0.0
C835 C 0.50165 0.78441 0.15014 0.0
C836 C 0.55691 0.84309 0.14221 0.0
H837 H 0.62111 0.87845 0.1467 0.0
C838 C 0.54049 0.86596 0.13481 0.0
C839 C 0.58611 0.84782 0.14704 0.0
C840 C 0.60443 0.82443 0.15582 0.0
C841 C 0.55286 0.89305 0.13117 0.0
C842 C 0.58234 0.8975 0.13537 0.0
C843 C 0.59851 0.87494 0.14344 0.0
C844 C 0.59726 0.92472 0.13025 0.0
C845 C 0.53466 0.91616 0.12192 0.0
C846 C 0.61973 0.92422 0.11677 0.0
C847 C 0.6336 0.9497 0.11138 0.0
C848 C 0.62533 0.97631 0.11941 0.0
C849 C 0.60288 0.97671 0.13305 0.0
C850 C 0.58905 0.95111 0.13847 0.0
H851 H 0.51426 0.90735 0.11594 0.0
H852 H 0.52904 0.93266 0.13286 0.0
H853 H 0.54668 0.92705 0.11015 0.0
H854 H 0.62637 0.90407 0.11024 0.0
H855 H 0.65082 0.94846 0.10089 0.0
H856 H 0.50375 0.59054 0.13764 0.0
H857 H 0.54727 0.56485 0.14768 0.0
H858 H 0.59973 0.62663 0.1172 0.0
H859 H 0.55663 0.65259 0.10725 0.0
H860 H 0.58849 0.54007 0.12379 0.0
H861 H 0.63827 0.62351 0.17013 0.0
H862 H 0.60087 0.62469 0.16298 0.0
H863 H 0.62859 0.63677 0.14675 0.0
C864 C 0.52454 0.59876 0.13312 0.0
C865 C 0.52662 0.62369 0.12163 0.0
C866 C 0.54937 0.58409 0.13894 0.0
C867 C 0.57671 0.5942 0.13352 0.0
C868 C 0.57887 0.6189 0.12196 0.0
H869 H 0.74895 0.5397 0.12346 0.0
H870 H 0.70447 0.56672 0.12806 0.0
C871 C 0.55412 0.63354 0.11612 0.0
C872 C 0.603 0.57797 0.13879 0.0
H873 H 0.66944 0.58545 0.15934 0.0
C874 C 0.60601 0.54974 0.13187 0.0
C875 C 0.62577 0.59073 0.14933 0.0
C876 C 0.62317 0.6205 0.1579 0.0
C877 C 0.63181 0.53445 0.13426 0.0
C878 C 0.65498 0.54759 0.14422 0.0
C879 C 0.65161 0.57544 0.15177 0.0
C880 C 0.68366 0.53372 0.14515 0.0
C881 C 0.63458 0.50499 0.12518 0.0
C882 C 0.6873 0.50696 0.15423 0.0
C883 C 0.71272 0.49131 0.15157 0.0
C884 C 0.73492 0.50227 0.13982 0.0
C885 C 0.73223 0.53039 0.1324 0.0
C886 C 0.70679 0.54594 0.13503 0.0
H887 H 0.61673 0.50038 0.11498 0.0
H888 H 0.65534 0.50304 0.11733 0.0
H889 H 0.63413 0.48829 0.1366 0.0
H890 H 0.66987 0.49747 0.16246 0.0
H891 H 0.71413 0.46988 0.1577 0.0
H892 H 0.01121 0.72125 0.16036 0.0
H893 H 0.98345 0.67687 0.16457 0.0
H894 H 0.92583 0.70295 0.11919 0.0
H895 H 0.95307 0.74752 0.11497 0.0
H896 H 0.89854 0.67279 0.15049 0.0
H897 H 0.99503 0.61582 0.12177 0.0
H898 H 0.00053 0.63748 0.14289 0.0
H899 H 0.99123 0.65448 0.12053 0.0
C900 C 0.99218 0.718 0.1516 0.0
C901 C 0.98477 0.73777 0.13703 0.0
C902 C 0.97646 0.69249 0.15397 0.0
C903 C 0.95311 0.68635 0.14184 0.0
C904 C 0.94399 0.70721 0.12857 0.0
H905 H 0.84661 0.54989 0.10137 0.0
H906 H 0.86981 0.59505 0.11033 0.0
C907 C 0.95964 0.73271 0.12619 0.0
C908 C 0.94003 0.6572 0.1414 0.0
H909 H 0.9538 0.58789 0.12758 0.0
C910 C 0.91065 0.65414 0.14569 0.0
C911 C 0.95594 0.63293 0.1351 0.0
C912 C 0.98737 0.63519 0.12965 0.0
C913 C 0.89661 0.62748 0.14355 0.0
C914 C 0.91227 0.60349 0.13656 0.0
C915 C 0.94187 0.60632 0.13294 0.0
C916 C 0.898 0.57588 0.13154 0.0
C917 C 0.86508 0.62531 0.14868 0.0
C918 C 0.90688 0.54988 0.14 0.0
C919 C 0.89383 0.5238 0.13476 0.0
C920 C 0.87178 0.52327 0.12086 0.0
C921 C 0.86336 0.54939 0.11221 0.0
C922 C 0.87641 0.57535 0.11745 0.0
H923 H 0.85878 0.64213 0.15925 0.0
H924 H 0.85198 0.62857 0.1355 0.0
H925 H 0.85978 0.60378 0.15474 0.0
H926 H 0.92378 0.5498 0.15075 0.0
H927 H 0.90086 0.50413 0.14172 0.0
H928 H 0.70942 0.02441 0.65359 0.0
H929 H 0.66571 0.99536 0.65636 0.0
H930 H 0.7078 0.92517 0.627 0.0
H931 H 0.75154 0.95405 0.62397 0.0
H932 H 0.65858 0.94726 0.6084 0.0
H933 H 0.6358 0.92336 0.68532 0.0
H934 H 0.64493 0.96017 0.67988 0.0
H935 H 0.67144 0.93242 0.6767 0.0
C936 C 0.7098 0.00243 0.64832 0.0
C937 C 0.7339 0.99176 0.63825 0.0
C938 C 0.68474 0.98581 0.64998 0.0
C939 C 0.68351 0.95816 0.64184 0.0
C940 C 0.70833 0.94651 0.63336 0.0
H941 H 0.55198 0.83898 0.60664 0.0
H942 H 0.5963 0.86455 0.6144 0.0
C943 C 0.73334 0.96308 0.63164 0.0
C944 C 0.65545 0.94345 0.63922 0.0
H945 H 0.59857 0.91284 0.66289 0.0
C946 C 0.64555 0.93957 0.62032 0.0
C947 C 0.63828 0.93402 0.65481 0.0
C948 C 0.64814 0.93746 0.67534 0.0
C949 C 0.61901 0.92637 0.61654 0.0
C950 C 0.60212 0.91624 0.63207 0.0
C951 C 0.61167 0.92057 0.65103 0.0
C952 C 0.57506 0.90011 0.62866 0.0
C953 C 0.60912 0.92368 0.59592 0.0
C954 C 0.54842 0.91128 0.6346 0.0
C955 C 0.52282 0.89663 0.63021 0.0
C956 C 0.52355 0.87054 0.61985 0.0
C957 C 0.55046 0.85917 0.61441 0.0
C958 C 0.5759 0.87374 0.61883 0.0
H959 H 0.62043 0.93923 0.58636 0.0
H960 H 0.61387 0.9016 0.59065 0.0
H961 H 0.58554 0.92732 0.5947 0.0
H962 H 0.5474 0.93159 0.64227 0.0
H963 H 0.50252 0.90592 0.63474 0.0
H964 H 0.58964 0.50195 0.63342 0.0
H965 H 0.56364 0.54654 0.64102 0.0
H966 H 0.63103 0.59638 0.61412 0.0
H967 H 0.6569 0.5523 0.60624 0.0
H968 H 0.58124 0.59685 0.66229 0.0
H969 H 0.55748 0.62138 0.58579 0.0
H970 H 0.56946 0.58631 0.59369 0.0
H971 H 0.595 0.61513 0.59045 0.0
C972 C 0.59891 0.52239 0.62909 0.0
C973 C 0.62521 0.52345 0.61898 0.0
C974 C 0.58408 0.54782 0.63352 0.0
C975 C 0.59527 0.57466 0.62789 0.0
C976 C 0.6218 0.57582 0.61829 0.0
H977 H 0.54172 0.75111 0.62536 0.0
H978 H 0.57052 0.70742 0.62859 0.0
C979 C 0.63656 0.55053 0.6138 0.0
C980 C 0.57903 0.60157 0.63149 0.0
H981 H 0.5488 0.65882 0.60831 0.0
C982 C 0.57395 0.61038 0.65054 0.0
C983 C 0.56943 0.619 0.61609 0.0
C984 C 0.57284 0.6099 0.59536 0.0
C985 C 0.56028 0.63677 0.65455 0.0
C986 C 0.55143 0.65449 0.63912 0.0
C987 C 0.55605 0.64535 0.62012 0.0
C988 C 0.53662 0.68241 0.64197 0.0
C989 C 0.55594 0.64583 0.67518 0.0
C990 C 0.50846 0.68319 0.6493 0.0
C991 C 0.49188 0.70822 0.64752 0.0
C992 C 0.50314 0.7327 0.63814 0.0
C993 C 0.53225 0.73259 0.63247 0.0
C994 C 0.54878 0.70762 0.63431 0.0
H995 H 0.56932 0.6329 0.68524 0.0
H996 H 0.56126 0.66902 0.67707 0.0
H997 H 0.53297 0.64278 0.67915 0.0
H998 H 0.49856 0.66385 0.65504 0.0
H999 H 0.46955 0.7075 0.65203 0.0
H1000 H 0.99459 0.59563 0.64179 0.0
H1001 H 0.95019 0.57039 0.65068 0.0
H1002 H 0.90152 0.62615 0.61321 0.0
H1003 H 0.94553 0.65178 0.60443 0.0
H1004 H 0.87597 0.6182 0.64958 0.0
H1005 H 0.90676 0.51379 0.61593 0.0
H1006 H 0.93187 0.52799 0.63317 0.0
H1007 H 0.92581 0.54693 0.611 0.0
C1008 C 0.97448 0.60249 0.63537 0.0
C1009 C 0.97374 0.62565 0.62227 0.0
C1010 C 0.94912 0.58799 0.64046 0.0
C1011 C 0.92262 0.59622 0.63245 0.0
C1012 C 0.92176 0.61946 0.61956 0.0
H1013 H 0.7494 0.54253 0.62047 0.0
H1014 H 0.79316 0.57058 0.62543 0.0
C1015 C 0.94702 0.63401 0.61449 0.0
C1016 C 0.8957 0.58049 0.63719 0.0
H1017 H 0.86184 0.51573 0.63142 0.0
C1018 C 0.87291 0.59572 0.64576 0.0
C1019 C 0.89184 0.55116 0.63226 0.0
C1020 C 0.91523 0.53398 0.62244 0.0
C1021 C 0.84614 0.5825 0.64922 0.0
C1022 C 0.842 0.55345 0.6437 0.0
C1023 C 0.86511 0.53797 0.63575 0.0
C1024 C 0.81332 0.5393 0.6442 0.0
C1025 C 0.82251 0.59981 0.65861 0.0
C1026 C 0.80972 0.51266 0.65349 0.0
C1027 C 0.78469 0.4964 0.6506 0.0
C1028 C 0.76293 0.50636 0.63815 0.0
C1029 C 0.76569 0.53409 0.63009 0.0
C1030 C 0.79071 0.5503 0.63301 0.0
H1031 H 0.83149 0.61753 0.66755 0.0
H1032 H 0.80889 0.60969 0.64727 0.0
H1033 H 0.80859 0.58598 0.66779 0.0
H1034 H 0.82694 0.50375 0.66216 0.0
H1035 H 0.78334 0.4752 0.65709 0.0
H1036 H 0.90257 0.99536 0.6424 0.0
H1037 H 0.92769 0.95121 0.65184 0.0
H1038 H 0.87251 0.90149 0.61453 0.0
H1039 H 0.847 0.94524 0.60519 0.0
H1040 H 0.8802 0.87674 0.65128 0.0
H1041 H 0.98458 0.90743 0.61742 0.0
H1042 H 0.97015 0.93282 0.63439 0.0
H1043 H 0.95141 0.92613 0.61223 0.0
C1044 C 0.8958 0.97506 0.63613 0.0
C1045 C 0.87286 0.97396 0.6229 0.0
C1046 C 0.91023 0.94986 0.64154 0.0
C1047 C 0.90213 0.92315 0.63373 0.0
C1048 C 0.87909 0.92191 0.62072 0.0
H1049 H 0.9555 0.75011 0.62242 0.0
H1050 H 0.92754 0.79385 0.62741 0.0
C1051 C 0.86461 0.94702 0.61534 0.0
C1052 C 0.91787 0.89641 0.63872 0.0
H1053 H 0.98255 0.86262 0.63305 0.0
C1054 C 0.90266 0.87369 0.64746 0.0
C1055 C 0.94718 0.89257 0.63378 0.0
C1056 C 0.96432 0.91589 0.6238 0.0
C1057 C 0.91586 0.84699 0.65105 0.0
C1058 C 0.94487 0.84284 0.64549 0.0
C1059 C 0.96034 0.86591 0.6374 0.0
C1060 C 0.95894 0.81417 0.64603 0.0
C1061 C 0.89858 0.82342 0.66059 0.0
C1062 C 0.98562 0.81069 0.65523 0.0
C1063 C 0.00183 0.78567 0.65231 0.0
C1064 C 0.99178 0.76382 0.63994 0.0
C1065 C 0.96402 0.76648 0.63198 0.0
C1066 C 0.94785 0.79148 0.63492 0.0
H1067 H 0.88094 0.83248 0.66956 0.0
H1068 H 0.8886 0.80967 0.64935 0.0
H1069 H 0.91242 0.80959 0.66978 0.0
H1070 H 0.99459 0.82798 0.66384 0.0
H1071 H 0.02305 0.7844 0.65874 0.0
H1072 H 0.00491 0.09494 0.86975 0.0
H1073 H 0.04862 0.06902 0.86046 0.0
H1074 H 0.09928 0.12479 0.89682 0.0
H1075 H 0.05591 0.15111 0.90601 0.0
H1076 H 0.12352 0.11562 0.85999 0.0
H1077 H 0.09201 0.01262 0.89543 0.0
H1078 H 0.06658 0.02683 0.87842 0.0
H1079 H 0.0738 0.0462 0.90027 0.0
C1080 C 0.02531 0.10167 0.87584 0.0
C1081 C 0.02679 0.12502 0.88876 0.0
C1082 C 0.05027 0.08678 0.87052 0.0
C1083 C 0.07711 0.09481 0.87811 0.0
C1084 C 0.07874 0.11826 0.8908 0.0
H1085 H 0.24958 0.03978 0.88864 0.0
H1086 H 0.20604 0.06798 0.88366 0.0
C1087 C 0.05386 0.1332 0.8961 0.0
C1088 C 0.10358 0.07858 0.87319 0.0
H1089 H 0.1365 0.01352 0.87937 0.0
C1090 C 0.12632 0.09321 0.86407 0.0
C1091 C 0.10708 0.04933 0.87845 0.0
C1092 C 0.08371 0.03279 0.88882 0.0
C1093 C 0.15273 0.07951 0.86041 0.0
C1094 C 0.15657 0.05058 0.86629 0.0
C1095 C 0.13346 0.03567 0.87477 0.0
C1096 C 0.18503 0.03611 0.86574 0.0
C1097 C 0.17633 0.09619 0.85043 0.0
C1098 C 0.18804 0.00902 0.85696 0.0
C1099 C 0.21295 0.99265 0.85988 0.0
C1100 C 0.23514 0.00297 0.87186 0.0
C1101 C 0.23291 0.03105 0.87941 0.0
C1102 C 0.20804 0.04737 0.87646 0.0
H1103 H 0.16732 0.11359 0.84124 0.0
H1104 H 0.19032 0.10647 0.86142 0.0
H1105 H 0.18988 0.08187 0.84138 0.0
H1106 H 0.17049 -9e-05 0.84866 0.0
H1107 H 0.21388 0.97116 0.85382 0.0
H1108 H 0.33353 0.03867 0.87198 0.0
H1109 H 0.35574 0.08423 0.86213 0.0
H1110 H 0.43485 0.05892 0.89016 0.0
H1111 H 0.41318 0.01238 0.8986 0.0
H1112 H 0.37133 0.1256 0.88188 0.0
H1113 H 0.46917 0.09134 0.84351 0.0
H1114 H 0.44123 0.06605 0.84994 0.0
H1115 H 0.46917 0.07534 0.86694 0.0
C1116 C 0.35588 0.04273 0.87563 0.0
C1117 C 0.37182 0.02219 0.88591 0.0
C1118 C 0.36855 0.06874 0.87005 0.0
C1119 C 0.39721 0.07504 0.87509 0.0
C1120 C 0.41312 0.05433 0.88541 0.0
H1121 H 0.46412 0.23702 0.90609 0.0
H1122 H 0.43522 0.19431 0.90075 0.0
C1123 C 0.40069 0.02786 0.89045 0.0
C1124 C 0.40941 0.1042 0.87118 0.0
H1125 H 0.47101 0.13921 0.85786 0.0
C1126 C 0.39294 0.12848 0.87623 0.0
C1127 C 0.43727 0.1084 0.86329 0.0
C1128 C 0.45501 0.08384 0.8554 0.0
C1129 C 0.40409 0.1565 0.8747 0.0
C1130 C 0.43309 0.16039 0.86891 0.0
C1131 C 0.44896 0.13634 0.86269 0.0
C1132 C 0.44821 0.18852 0.87104 0.0
C1133 C 0.38458 0.18153 0.87942 0.0
C1134 C 0.46566 0.19958 0.85623 0.0
C1135 C 0.48302 0.22386 0.85943 0.0
C1136 C 0.48306 0.23762 0.87748 0.0
C1137 C 0.46445 0.22731 0.89191 0.0
C1138 C 0.44762 0.20284 0.88883 0.0
H1139 H 0.36194 0.17659 0.87537 0.0
H1140 H 0.38491 0.1854 0.89518 0.0
H1141 H 0.39131 0.20157 0.8719 0.0
H1142 H 0.4666 0.18888 0.84239 0.0
H1143 H 0.49715 0.23119 0.84801 0.0
H1144 H 0.49429 0.41074 0.87619 0.0
H1145 H 0.44946 0.43664 0.86911 0.0
H1146 H 0.40074 0.37037 0.89809 0.0
H1147 H 0.44499 0.34462 0.90544 0.0
H1148 H 0.39827 0.41762 0.84902 0.0
H1149 H 0.37667 0.44535 0.92533 0.0
H1150 H 0.41148 0.43322 0.91706 0.0
H1151 H 0.38307 0.40763 0.92144 0.0
C1152 C 0.47405 0.40173 0.88112 0.0
C1153 C 0.47336 0.37573 0.8916 0.0
C1154 C 0.44847 0.41649 0.87697 0.0
C1155 C 0.42189 0.40556 0.88329 0.0
C1156 C 0.4211 0.3794 0.89337 0.0
H1157 H 0.24509 0.45732 0.88772 0.0
H1158 H 0.28904 0.42894 0.88459 0.0
C1159 C 0.44651 0.36471 0.89755 0.0
C1160 C 0.39482 0.42154 0.87982 0.0
H1161 H 0.33818 0.45233 0.90333 0.0
C1162 C 0.38516 0.42544 0.86084 0.0
C1163 C 0.37791 0.43178 0.8953 0.0
C1164 C 0.38789 0.42957 0.91592 0.0
C1165 C 0.35844 0.43853 0.857 0.0
C1166 C 0.34125 0.44801 0.87254 0.0
C1167 C 0.35124 0.44459 0.89145 0.0
C1168 C 0.31305 0.4623 0.86984 0.0
C1169 C 0.34847 0.44154 0.83645 0.0
C1170 C 0.31159 0.48996 0.86175 0.0
C1171 C 0.28642 0.50631 0.86348 0.0
C1172 C 0.26244 0.49534 0.87356 0.0
C1173 C 0.26319 0.46659 0.88005 0.0
C1174 C 0.28832 0.4503 0.87827 0.0
H1175 H 0.36109 0.42767 0.82651 0.0
H1176 H 0.32528 0.4359 0.83516 0.0
H1177 H 0.35113 0.46429 0.83183 0.0
H1178 H 0.33055 0.49975 0.85539 0.0
H1179 H 0.28666 0.52833 0.85828 0.0
H1180 H 0.09514 0.49822 0.87119 0.0
H1181 H 0.07065 0.45368 0.86166 0.0
H1182 H 0.12522 0.40499 0.89988 0.0
H1183 H 0.15006 0.44913 0.90933 0.0
H1184 H 0.11929 0.38024 0.86291 0.0
H1185 H 0.01323 0.40861 0.89517 0.0
H1186 H 0.02792 0.43436 0.8785 0.0
H1187 H 0.04589 0.42791 0.90097 0.0
C1188 C 0.10187 0.47808 0.87766 0.0
C1189 C 0.1245 0.47737 0.89114 0.0
C1190 C 0.0878 0.45264 0.8722 0.0
C1191 C 0.09597 0.42609 0.8802 0.0
C1192 C 0.11861 0.42527 0.89353 0.0
H1193 H 0.0457 0.2516 0.89014 0.0
H1194 H 0.07288 0.29605 0.88575 0.0
C1195 C 0.1327 0.4506 0.89898 0.0
C1196 C 0.08088 0.39903 0.87495 0.0
H1197 H 0.01666 0.36383 0.87963 0.0
C1198 C 0.09678 0.37669 0.8664 0.0
C1199 C 0.05149 0.39455 0.87944 0.0
C1200 C 0.03359 0.41748 0.88916 0.0
C1201 C 0.08419 0.34972 0.86257 0.0
C1202 C 0.0551 0.34491 0.86771 0.0
C1203 C 0.03894 0.36761 0.87561 0.0
C1204 C 0.04158 0.31593 0.86688 0.0
C1205 C 0.10222 0.32661 0.85321 0.0
C1206 C 0.01522 0.31196 0.85735 0.0
C1207 C -0.00055 0.28652 0.85992 0.0
C1208 C 0.00961 0.26472 0.87228 0.0
C1209 C 0.03711 0.2679 0.88057 0.0
C1210 C 0.05283 0.29332 0.87799 0.0
H1211 H 0.1199 0.33612 0.84447 0.0
H1212 H 0.11218 0.31306 0.86456 0.0
H1213 H 0.08893 0.31249 0.84383 0.0
H1214 H 0.00614 0.32916 0.84873 0.0
H1215 H 0.97844 0.28486 0.85323 0.0
H1216 H 0.64506 0.17037 0.42963 0.0
H1217 H 0.68728 0.19325 0.44458 0.0
H1218 H 0.71819 0.21819 0.38845 0.0
H1219 H 0.67586 0.19619 0.37356 0.0
H1220 H 0.76065 0.19637 0.42557 0.0
H1221 H 0.68622 0.29007 0.43166 0.0
H1222 H 0.67502 0.25365 0.43717 0.0
H1223 H 0.67964 0.26456 0.4126 0.0
C1224 C 0.66162 0.17954 0.42047 0.0
C1225 C 0.65742 0.18162 0.40046 0.0
C1226 C 0.68552 0.19275 0.42904 0.0
C1227 C 0.70549 0.20751 0.41756 0.0
C1228 C 0.70287 0.20681 0.39746 0.0
H1229 H 0.8214 0.30491 0.37582 0.0
H1230 H 0.7785 0.28259 0.38981 0.0
C1231 C 0.67885 0.19415 0.38896 0.0
C1232 C 0.72652 0.22767 0.4259 0.0
H1233 H 0.73615 0.30051 0.42735 0.0
C1234 C 0.75535 0.21905 0.42699 0.0
C1235 C 0.71931 0.25716 0.42779 0.0
C1236 C 0.68836 0.26709 0.42738 0.0
C1237 C 0.77748 0.23962 0.42765 0.0
C1238 C 0.7703 0.26922 0.42676 0.0
C1239 C 0.74144 0.27775 0.42798 0.0
C1240 C 0.7915 0.29 0.4193 0.0
C1241 C 0.80843 0.2297 0.427 0.0
C1242 C 0.81188 0.30304 0.43136 0.0
C1243 C 0.83609 0.31646 0.42333 0.0
C1244 C 0.84019 0.31629 0.40327 0.0
C1245 C 0.81845 0.30552 0.39129 0.0
C1246 C 0.7941 0.29269 0.39927 0.0
H1247 H 0.81051 0.20636 0.43033 0.0
H1248 H 0.81739 0.23363 0.41241 0.0
H1249 H 0.82162 0.24217 0.43741 0.0
H1250 H 0.81018 0.30092 0.44684 0.0
H1251 H 0.85294 0.3242 0.43282 0.0
H1252 H 0.31243 0.6794 0.37495 0.0
H1253 H 0.29233 0.7234 0.38892 0.0
H1254 H 0.30146 0.68736 0.4458 0.0
H1255 H 0.32284 0.6437 0.43186 0.0
H1256 H 0.24082 0.69858 0.42719 0.0
H1257 H 0.31526 0.79237 0.42913 0.0
H1258 H 0.31942 0.76883 0.40871 0.0
H1259 H 0.32729 0.75555 0.43241 0.0
C1260 C 0.31171 0.68164 0.39046 0.0
C1261 C 0.31933 0.65853 0.40238 0.0
C1262 C 0.30018 0.70665 0.39844 0.0
C1263 C 0.29552 0.70848 0.41836 0.0
C1264 C 0.30531 0.68639 0.43044 0.0
H1265 H 0.17895 0.85517 0.43402 0.0
H1266 H 0.20339 0.81254 0.44712 0.0
C1267 C 0.31762 0.66162 0.42247 0.0
C1268 C 0.2749 0.73013 0.42539 0.0
H1269 H 0.26477 0.80275 0.42473 0.0
C1270 C 0.24607 0.72139 0.42746 0.0
C1271 C 0.28194 0.75968 0.42572 0.0
C1272 C 0.31271 0.76979 0.42403 0.0
C1273 C 0.22374 0.7417 0.42759 0.0
C1274 C 0.23068 0.77116 0.42585 0.0
C1275 C 0.25963 0.78 0.42605 0.0
C1276 C 0.20917 0.79228 0.41937 0.0
C1277 C 0.19288 0.73158 0.4278 0.0
C1278 C 0.20348 0.79417 0.39959 0.0
C1279 C 0.19013 0.81858 0.39208 0.0
C1280 C 0.18179 0.84104 0.40434 0.0
C1281 C 0.18475 0.83777 0.42436 0.0
C1282 C 0.19882 0.81361 0.43185 0.0
H1283 H 0.19096 0.7091 0.4332 0.0
H1284 H 0.17949 0.74601 0.43689 0.0
H1285 H 0.18417 0.73235 0.41293 0.0
H1286 H 0.21164 0.77794 0.38979 0.0
H1287 H 0.18837 0.82091 0.37661 0.0
H1288 H 0.32675 0.68602 0.13937 0.0
H1289 H 0.28258 0.71027 0.12919 0.0
H1290 H 0.31009 0.70525 0.07001 0.0
H1291 H 0.35405 0.68004 0.08015 0.0
H1292 H 0.30231 0.76548 0.10323 0.0
H1293 H 0.2134 0.69487 0.07694 0.0
H1294 H 0.23614 0.68187 0.09613 0.0
H1295 H 0.25094 0.68663 0.07252 0.0
C1296 C 0.32248 0.68853 0.12413 0.0
C1297 C 0.34342 0.68111 0.1105 0.0
C1298 C 0.29744 0.7025 0.11833 0.0
C1299 C 0.29339 0.70959 0.09891 0.0
C1300 C 0.31287 0.69963 0.08503 0.0
H1301 H 0.14704 0.82723 0.08524 0.0
H1302 H 0.19276 0.80661 0.07388 0.0
C1303 C 0.33777 0.6851 0.09082 0.0
C1304 C 0.27258 0.73236 0.09425 0.0
H1305 H 0.20109 0.74271 0.08615 0.0
C1306 C 0.28033 0.76078 0.0989 0.0
C1307 C 0.24424 0.72598 0.08843 0.0
C1308 C 0.23547 0.69572 0.0831 0.0
C1309 C 0.25959 0.78259 0.09971 0.0
C1310 C 0.23066 0.77562 0.0957 0.0
C1311 C 0.22345 0.74787 0.08915 0.0
C1312 C 0.20711 0.79429 0.10231 0.0
C1313 C 0.26822 0.81234 0.1063 0.0
C1314 C 0.20083 0.79491 0.12205 0.0
C1315 C 0.17475 0.80611 0.12847 0.0
C1316 C 0.15495 0.81731 0.11525 0.0
C1317 C 0.16237 0.81915 0.09568 0.0
C1318 C 0.18826 0.80726 0.08918 0.0
H1319 H 0.2916 0.81631 0.10405 0.0
H1320 H 0.2557 0.82911 0.09855 0.0
H1321 H 0.26356 0.81448 0.1219 0.0
H1322 H 0.21508 0.78463 0.13231 0.0
H1323 H 0.16916 0.80419 0.14356 0.0
H1324 H 0.82514 0.35498 0.07742 0.0
H1325 H 0.80087 0.31349 0.06254 0.0
H1326 H 0.78489 0.27767 0.11883 0.0
H1327 H 0.80835 0.31922 0.13372 0.0
H1328 H 0.80036 0.23698 0.08289 0.0
H1329 H 0.7082 0.31363 0.07699 0.0
H1330 H 0.74374 0.32291 0.06842 0.0
H1331 H 0.73689 0.32119 0.09378 0.0
C1332 C 0.81763 0.33755 0.08654 0.0
C1333 C 0.81852 0.34013 0.10671 0.0
C1334 C 0.8036 0.31406 0.07802 0.0
C1335 C 0.79097 0.29283 0.08965 0.0
C1336 C 0.79461 0.29393 0.10967 0.0
H1337 H 0.68709 0.18021 0.13169 0.0
H1338 H 0.71012 0.22282 0.1178 0.0
C1339 C 0.80808 0.31754 0.11817 0.0
C1340 C 0.77005 0.27196 0.08189 0.0
H1341 H 0.697 0.26411 0.08015 0.0
C1342 C 0.77785 0.24283 0.08133 0.0
C1343 C 0.74077 0.27986 0.07986 0.0
C1344 C 0.73165 0.31108 0.07973 0.0
C1345 C 0.75674 0.2212 0.08085 0.0
C1346 C 0.72733 0.22915 0.08134 0.0
C1347 C 0.71961 0.25823 0.07981 0.0
C1348 C 0.70568 0.20841 0.08834 0.0
C1349 C 0.76586 0.19001 0.08198 0.0
C1350 C 0.69398 0.18732 0.07619 0.0
C1351 C 0.68016 0.16325 0.08412 0.0
C1352 C 0.67857 0.15999 0.10422 0.0
C1353 C 0.68783 0.1825 0.11617 0.0
C1354 C 0.70106 0.20671 0.10825 0.0
H1355 H 0.78945 0.18735 0.07986 0.0
H1356 H 0.75998 0.18105 0.09627 0.0
H1357 H 0.75438 0.17716 0.07089 0.0
H1358 H 0.69758 0.18832 0.0608 0.0
H1359 H 0.67363 0.14584 0.07467 0.0
H1360 H 0.14387 0.67333 0.58061 0.0
H1361 H 0.18657 0.69619 0.56629 0.0
H1362 H 0.21992 0.71331 0.62305 0.0
H1363 H 0.17687 0.69164 0.63738 0.0
H1364 H 0.19547 0.76127 0.58613 0.0
H1365 H 0.28896 0.6871 0.57962 0.0
H1366 H 0.25204 0.67527 0.57652 0.0
H1367 H 0.2659 0.68188 0.60022 0.0
C1368 C 0.16105 0.68069 0.58997 0.0
C1369 C 0.15737 0.68075 0.61006 0.0
C1370 C 0.18524 0.69386 0.58178 0.0
C1371 C 0.20618 0.70632 0.59367 0.0
C1372 C 0.20397 0.70351 0.61371 0.0
H1373 H 0.31868 0.81292 0.63353 0.0
H1374 H 0.27471 0.79168 0.62025 0.0
C1375 C 0.17953 0.69107 0.62189 0.0
C1376 C 0.22705 0.72722 0.586 0.0
H1377 H 0.29951 0.73746 0.58355 0.0
C1378 C 0.21818 0.7561 0.58477 0.0
C1379 C 0.25644 0.72023 0.58419 0.0
C1380 C 0.26655 0.6894 0.58505 0.0
C1381 C 0.23846 0.77848 0.58406 0.0
C1382 C 0.268 0.77156 0.58442 0.0
C1383 C 0.27671 0.74262 0.58328 0.0
C1384 C 0.28964 0.79273 0.59074 0.0
C1385 C 0.22835 0.80933 0.5847 0.0
C1386 C 0.31172 0.80167 0.57834 0.0
C1387 C 0.33646 0.81464 0.58588 0.0
C1388 C 0.33952 0.81786 0.60589 0.0
C1389 C 0.31645 0.81104 0.61805 0.0
C1390 C 0.29146 0.79886 0.61047 0.0
H1391 H 0.20578 0.8114 0.57955 0.0
H1392 H 0.22931 0.81719 0.59978 0.0
H1393 H 0.24255 0.82332 0.57582 0.0
H1394 H 0.31075 0.79668 0.56312 0.0
H1395 H 0.35436 0.81923 0.57632 0.0
H1396 H 0.80608 0.17618 0.63675 0.0
H1397 H 0.78416 0.21911 0.62263 0.0
H1398 H 0.80384 0.18765 0.56573 0.0
H1399 H 0.82668 0.14485 0.5799 0.0
H1400 H 0.80231 0.26183 0.58576 0.0
H1401 H 0.70926 0.18595 0.58105 0.0
H1402 H 0.73635 0.17935 0.5991 0.0
H1403 H 0.74528 0.17547 0.57414 0.0
C1404 C 0.8071 0.17921 0.6213 0.0
C1405 C 0.81805 0.15748 0.60938 0.0
C1406 C 0.7945 0.20358 0.61324 0.0
C1407 C 0.79224 0.2062 0.5932 0.0
C1408 C 0.8056 0.18592 0.58123 0.0
H1409 H 0.67342 0.35199 0.57848 0.0
H1410 H 0.69719 0.30929 0.56486 0.0
C1411 C 0.81878 0.16168 0.58934 0.0
C1412 C 0.77148 0.22718 0.58556 0.0
H1413 H 0.69853 0.23569 0.58491 0.0
C1414 C 0.77969 0.25619 0.58458 0.0
C1415 C 0.74205 0.21952 0.58404 0.0
C1416 C 0.73251 0.18839 0.58453 0.0
C1417 C 0.75884 0.278 0.58423 0.0
C1418 C 0.72937 0.27033 0.58528 0.0
C1419 C 0.72119 0.24134 0.58411 0.0
C1420 C 0.7083 0.2913 0.59257 0.0
C1421 C 0.76836 0.30913 0.58491 0.0
C1422 C 0.7055 0.29419 0.61256 0.0
C1423 C 0.69235 0.3185 0.62032 0.0
C1424 C 0.68141 0.33991 0.60814 0.0
C1425 C 0.6813 0.33542 0.58812 0.0
C1426 C 0.69501 0.31124 0.58032 0.0
H1427 H 0.79166 0.31159 0.58158 0.0
H1428 H 0.75574 0.32217 0.57451 0.0
H1429 H 0.7643 0.31798 0.59951 0.0
H1430 H 0.71577 0.27892 0.62217 0.0
H1431 H 0.6929 0.32175 0.63576 0.0
H1432 H 0.82578 0.18906 0.87239 0.0
H1433 H 0.78175 0.21145 0.88453 0.0
H1434 H 0.81138 0.19988 0.94283 0.0
H1435 H 0.85531 0.17654 0.93068 0.0
H1436 H 0.73834 0.19588 0.92166 0.0
H1437 H 0.80993 0.29252 0.92245 0.0
H1438 H 0.81848 0.26373 0.90597 0.0
H1439 H 0.82158 0.25786 0.93139 0.0
C1440 C 0.82214 0.18991 0.88779 0.0
C1441 C 0.84359 0.18104 0.90064 0.0
C1442 C 0.79717 0.2028 0.89471 0.0
C1443 C 0.79368 0.20745 0.91451 0.0
C1444 C 0.81381 0.19626 0.92751 0.0
H1445 H 0.64996 0.33119 0.92186 0.0
H1446 H 0.69356 0.30893 0.93538 0.0
C1447 C 0.83867 0.18278 0.92057 0.0
C1448 C 0.77161 0.22818 0.92062 0.0
H1449 H 0.75999 0.30055 0.91681 0.0
C1450 C 0.74298 0.21881 0.92155 0.0
C1451 C 0.77795 0.25803 0.92054 0.0
C1452 C 0.80864 0.26885 0.92014 0.0
C1453 C 0.72035 0.23863 0.92026 0.0
C1454 C 0.7268 0.26815 0.91749 0.0
C1455 C 0.7553 0.27782 0.9188 0.0
C1456 C 0.70513 0.28731 0.90893 0.0
C1457 C 0.68973 0.22765 0.91986 0.0
C1458 C 0.69854 0.2837 0.8894 0.0
C1459 C 0.67383 0.29612 0.88174 0.0
C1460 C 0.65569 0.31263 0.89348 0.0
C1461 C 0.66398 0.31886 0.91249 0.0
C1462 C 0.68863 0.30601 0.92027 0.0
H1463 H 0.68786 0.20608 0.92672 0.0
H1464 H 0.67504 0.24289 0.92732 0.0
H1465 H 0.68251 0.22574 0.90468 0.0
H1466 H 0.71128 0.26938 0.88048 0.0
H1467 H 0.66767 0.29091 0.8671 0.0
H1468 H 0.30623 0.81877 0.8763 0.0
H1469 H 0.28483 0.77651 0.89171 0.0
H1470 H 0.3075 0.81024 0.94752 0.0
H1471 H 0.32986 0.85236 0.93204 0.0
H1472 H 0.3041 0.73492 0.9283 0.0
H1473 H 0.21252 0.81193 0.93519 0.0
H1474 H 0.23891 0.8184 0.91662 0.0
H1475 H 0.24899 0.82187 0.94142 0.0
C1476 C 0.30804 0.81637 0.89177 0.0
C1477 C 0.31971 0.83855 0.90301 0.0
C1478 C 0.29572 0.79237 0.90057 0.0
C1479 C 0.29442 0.79058 0.9207 0.0
C1480 C 0.30849 0.81132 0.93196 0.0
H1481 H 0.17532 0.64499 0.93548 0.0
H1482 H 0.20025 0.68643 0.94997 0.0
C1483 C 0.32141 0.83517 0.9231 0.0
C1484 C 0.27386 0.76997 0.92916 0.0
H1485 H 0.20085 0.76239 0.93123 0.0
C1486 C 0.28164 0.74085 0.92996 0.0
C1487 C 0.24464 0.77799 0.93138 0.0
C1488 C 0.23556 0.80924 0.93122 0.0
C1489 C 0.26046 0.71928 0.93066 0.0
C1490 C 0.23108 0.72733 0.93011 0.0
C1491 C 0.22344 0.75643 0.93161 0.0
C1492 C 0.2095 0.70687 0.9227 0.0
C1493 C 0.26946 0.68805 0.92974 0.0
C1494 C 0.20532 0.7057 0.90273 0.0
C1495 C 0.19153 0.68209 0.89445 0.0
C1496 C 0.18128 0.65965 0.9061 0.0
C1497 C 0.18263 0.66238 0.92625 0.0
C1498 C 0.19701 0.68583 0.93454 0.0
H1499 H 0.29297 0.68532 0.93216 0.0
H1500 H 0.25759 0.6753 0.94071 0.0
H1501 H 0.26398 0.67906 0.91539 0.0
H1502 H 0.21497 0.7218 0.89341 0.0
H1503 H 0.19097 0.68023 0.87891 0.0
H1504 H 0.55961 0.18009 0.47172 0.0
H1505 H 0.58861 0.16902 0.50022 0.0
H1506 H 0.61738 0.0902 0.47362 0.0
H1507 H 0.58867 0.10095 0.44512 0.0
H1508 H 0.59256 0.11808 0.52576 0.0
H1509 H 0.69188 0.13909 0.48342 0.0
H1510 H 0.65666 0.15073 0.47559 0.0
H1511 H 0.66748 0.11383 0.4725 0.0
C1512 C 0.57159 0.16007 0.47206 0.0
C1513 C 0.57198 0.14157 0.45597 0.0
C1514 C 0.58823 0.15385 0.48836 0.0
C1515 C 0.60556 0.1291 0.48884 0.0
C1516 C 0.60451 0.10968 0.47339 0.0
H1517 H 0.733 0.04563 0.55639 0.0
H1518 H 0.69753 0.06263 0.53326 0.0
C1519 C 0.58794 0.11582 0.45712 0.0
C1520 C 0.62618 0.12428 0.50482 0.0
H1521 H 0.69807 0.11713 0.51408 0.0
C1522 C 0.61564 0.11817 0.52332 0.0
C1523 C 0.65628 0.12475 0.50159 0.0
C1524 C 0.66885 0.13271 0.48226 0.0
C1525 C 0.63447 0.11105 0.53847 0.0
C1526 C 0.66452 0.11039 0.53501 0.0
C1527 C 0.67502 0.11752 0.51667 0.0
C1528 C 0.6854 0.10028 0.54971 0.0
C1529 C 0.6221 0.10311 0.55784 0.0
C1530 C 0.6905 0.11592 0.56668 0.0
C1531 C 0.71094 0.10624 0.58007 0.0
C1532 C 0.72668 0.08077 0.57666 0.0
C1533 C 0.72137 0.06529 0.55959 0.0
C1534 C 0.70106 0.07497 0.54629 0.0
H1535 H 0.59834 0.10023 0.55731 0.0
H1536 H 0.63202 0.08288 0.56323 0.0
H1537 H 0.62705 0.12047 0.56832 0.0
H1538 H 0.67898 0.13579 0.56944 0.0
H1539 H 0.71459 0.11884 0.59296 0.0
H1540 H 0.37631 0.71366 0.59141 0.0
H1541 H 0.3608 0.6753 0.56939 0.0
H1542 H 0.43795 0.68741 0.53573 0.0
H1543 H 0.45372 0.72534 0.55754 0.0
H1544 H 0.35115 0.67923 0.52942 0.0
H1545 H 0.43732 0.60027 0.54529 0.0
H1546 H 0.42945 0.63039 0.5609 0.0
H1547 H 0.45103 0.63549 0.53964 0.0
C1548 C 0.39009 0.70801 0.57941 0.0
C1549 C 0.41638 0.72254 0.57635 0.0
C1550 C 0.38117 0.6861 0.56684 0.0
C1551 C 0.39852 0.67811 0.55116 0.0
C1552 C 0.42457 0.69273 0.54801 0.0
H1553 H 0.39576 0.58383 0.44674 0.0
H1554 H 0.40719 0.60981 0.47631 0.0
C1555 C 0.43343 0.71462 0.56045 0.0
C1556 C 0.38907 0.65547 0.53745 0.0
H1557 H 0.4112 0.59311 0.51586 0.0
C1558 C 0.36394 0.66011 0.52667 0.0
C1559 C 0.40585 0.63056 0.5339 0.0
C1560 C 0.43226 0.62368 0.54568 0.0
C1561 C 0.35599 0.64132 0.51171 0.0
C1562 C 0.37339 0.61698 0.5077 0.0
C1563 C 0.39793 0.61178 0.51895 0.0
C1564 C 0.3677 0.59808 0.49091 0.0
C1565 C 0.32988 0.64846 0.49968 0.0
C1566 C 0.34223 0.58186 0.48961 0.0
C1567 C 0.3356 0.56685 0.4727 0.0
C1568 C 0.35437 0.56783 0.45677 0.0
C1569 C 0.38071 0.58267 0.45863 0.0
C1570 C 0.38731 0.59758 0.47554 0.0
H1571 H 0.32196 0.6707 0.50238 0.0
H1572 H 0.33484 0.64624 0.48411 0.0
H1573 H 0.31222 0.63318 0.50319 0.0
H1574 H 0.32704 0.58156 0.50146 0.0
H1575 H 0.31514 0.55566 0.47183 0.0
H1576 H 0.9432 0.31735 0.47349 0.0
H1577 H 0.9175 0.32848 0.50334 0.0
H1578 H 0.88672 0.40781 0.47845 0.0
H1579 H 0.91243 0.39712 0.44865 0.0
H1580 H 0.90461 0.4122 0.51793 0.0
H1581 H 0.82841 0.32121 0.50529 0.0
H1582 H 0.86616 0.31254 0.50558 0.0
H1583 H 0.85198 0.33475 0.48668 0.0
C1584 C 0.93146 0.33747 0.47446 0.0
C1585 C 0.92973 0.35622 0.45855 0.0
C1586 C 0.91658 0.34365 0.4915 0.0
C1587 C 0.89976 0.36868 0.49295 0.0
C1588 C 0.89943 0.38827 0.47757 0.0
H1589 H 0.77227 0.45383 0.5586 0.0
H1590 H 0.81058 0.43773 0.53729 0.0
C1591 C 0.91419 0.3821 0.46053 0.0
C1592 C 0.88116 0.37395 0.50996 0.0
H1593 H 0.81945 0.35085 0.53202 0.0
C1594 C 0.88618 0.39862 0.52116 0.0
C1595 C 0.85717 0.35612 0.51418 0.0
C1596 C 0.85034 0.32975 0.50227 0.0
C1597 C 0.86745 0.40634 0.53617 0.0
C1598 C 0.84274 0.38925 0.53982 0.0
C1599 C 0.83839 0.3639 0.52918 0.0
C1600 C 0.81983 0.39881 0.55329 0.0
C1601 C 0.87408 0.43298 0.54783 0.0
C1602 C 0.81167 0.38184 0.56914 0.0
C1603 C 0.78951 0.39097 0.58144 0.0
C1604 C 0.77492 0.41707 0.57794 0.0
C1605 C 0.78302 0.4337 0.56186 0.0
C1606 C 0.80514 0.42465 0.5497 0.0
H1607 H 0.89746 0.43817 0.54751 0.0
H1608 H 0.8623 0.4516 0.54164 0.0
H1609 H 0.86721 0.43032 0.56304 0.0
H1610 H 0.82251 0.36163 0.57202 0.0
H1611 H 0.7837 0.37751 0.59358 0.0
H1612 H 0.12102 0.78231 0.59435 0.0
H1613 H 0.13747 0.8205 0.57249 0.0
H1614 H 0.06044 0.81009 0.53854 0.0
H1615 H 0.04377 0.77223 0.56017 0.0
H1616 H 0.14703 0.81636 0.53211 0.0
H1617 H 0.06314 0.89743 0.54888 0.0
H1618 H 0.07061 0.86709 0.5644 0.0
H1619 H 0.04868 0.86249 0.54328 0.0
C1620 C 0.10747 0.78829 0.58231 0.0
C1621 C 0.08096 0.77424 0.57912 0.0
C1622 C 0.11693 0.8101 0.56983 0.0
C1623 C 0.09991 0.8185 0.55411 0.0
C1624 C 0.07362 0.80441 0.55083 0.0
H1625 H 0.10301 0.91566 0.45095 0.0
H1626 H 0.0918 0.88926 0.48037 0.0
C1627 C 0.06423 0.78257 0.56317 0.0
C1628 C 0.10992 0.84109 0.54052 0.0
H1629 H 0.08951 0.90452 0.51959 0.0
C1630 C 0.13479 0.83591 0.52958 0.0
C1631 C 0.09388 0.86656 0.53727 0.0
C1632 C 0.06774 0.87392 0.5492 0.0
C1633 C 0.14316 0.85471 0.51471 0.0
C1634 C 0.12649 0.87967 0.51099 0.0
C1635 C 0.10225 0.88539 0.52245 0.0
C1636 C 0.13245 0.89866 0.49425 0.0
C1637 C 0.16887 0.84692 0.50246 0.0
C1638 C 0.15861 0.91371 0.49258 0.0
C1639 C 0.16514 0.92893 0.47571 0.0
C1640 C 0.14558 0.92939 0.46022 0.0
C1641 C 0.11869 0.9157 0.46249 0.0
C1642 C 0.11221 0.90055 0.47933 0.0
H1643 H 0.17591 0.8243 0.50482 0.0
H1644 H 0.1639 0.84982 0.48694 0.0
H1645 H 0.18716 0.86135 0.50611 0.0
H1646 H 0.1743 0.91301 0.50409 0.0
H1647 H 0.18602 0.93924 0.47452 0.0
H1648 H 0.23699 0.94884 0.95624 0.0
H1649 H 0.19941 0.93362 0.97848 0.0
H1650 H 0.17465 0.86548 0.93962 0.0
H1651 H 0.21268 0.88033 0.91718 0.0
H1652 H 0.14014 0.93117 0.97172 0.0
H1653 H 0.18396 0.82333 0.99115 0.0
H1654 H 0.20538 0.85028 0.97898 0.0
H1655 H 0.17879 0.83007 0.96592 0.0
C1656 C 0.22372 0.93051 0.95235 0.0
C1657 C 0.22793 0.91587 0.93482 0.0
C1658 C 0.20216 0.92188 0.96512 0.0
C1659 C 0.18432 0.89834 0.96078 0.0
C1660 C 0.18841 0.8835 0.94337 0.0
H1661 H 0.05462 0.82358 0.03846 0.0
H1662 H 0.08119 0.83519 0.00901 0.0
C1663 C 0.21008 0.89213 0.93052 0.0
C1664 C 0.16123 0.89004 0.97452 0.0
H1665 H 0.14078 0.83751 0.00619 0.0
C1666 C 0.14013 0.91058 0.97914 0.0
C1667 C 0.16111 0.8631 0.98408 0.0
C1668 C 0.18359 0.84043 0.97995 0.0
C1669 C 0.11937 0.90524 0.99341 0.0
C1670 C 0.12001 0.87883 1.00358 0.0
C1671 C 0.14035 0.85778 0.99841 0.0
C1672 C 0.10137 0.8735 0.02061 0.0
C1673 C 0.09707 0.92806 0.99757 0.0
C1674 C 0.10358 0.89139 0.03683 0.0
C1675 C 0.08838 0.8849 0.05366 0.0
C1676 C 0.07075 0.86022 0.0547 0.0
C1677 C 0.06779 0.84288 0.03817 0.0
C1678 C 0.08309 0.84938 0.02133 0.0
H1679 H 0.09358 0.94225 0.9849 0.0
H1680 H 0.07614 0.91826 1.00177 0.0
H1681 H 0.1047 0.94179 0.00962 0.0
H1682 H 0.11797 0.90979 0.03676 0.0
H1683 H 0.09136 0.89868 0.06608 0.0
H1684 H 0.59669 0.06341 0.05522 0.0
H1685 H 0.58153 0.08826 0.02584 0.0
H1686 H 0.67056 0.10612 0.01216 0.0
H1687 H 0.68569 0.07965 0.04068 0.0
H1688 H 0.58561 0.1408 0.01893 0.0
H1689 H 0.6447 0.08816 0.95992 0.0
H1690 H 0.64286 0.07255 0.98366 0.0
H1691 H 0.66975 0.09943 0.97799 0.0
C1692 C 0.61299 0.07186 0.04557 0.0
C1693 C 0.64235 0.06935 0.05013 0.0
C1694 C 0.60435 0.08618 0.02882 0.0
C1695 C 0.62485 0.09889 0.0165 0.0
C1696 C 0.65425 0.09575 0.02089 0.0
H1697 H 0.59031 0.25643 0.95527 0.0
H1698 H 0.6047 0.21844 0.97762 0.0
C1699 C 0.66291 0.08072 0.03734 0.0
C1700 C 0.61549 0.11824 1.00053 0.0
H1701 H 0.62998 0.13764 0.95404 0.0
C1702 C 0.59502 0.13967 1.00466 0.0
C1703 C 0.62724 0.11676 0.98171 0.0
C1704 C 0.64709 0.09274 0.97553 0.0
C1705 C 0.58677 0.16011 0.99085 0.0
C1706 C 0.60043 0.1602 0.97261 0.0
C1707 C 0.62 0.13809 0.96815 0.0
C1708 C 0.59483 0.18327 0.95817 0.0
C1709 C 0.56315 0.18111 0.99602 0.0
C1710 C 0.58663 0.17637 0.93924 0.0
C1711 C 0.5794 0.19823 0.92616 0.0
C1712 C 0.57986 0.22725 0.93195 0.0
C1713 C 0.58931 0.23416 0.95058 0.0
C1714 C 0.59725 0.21243 0.96341 0.0
H1715 H 0.5484 0.17189 0.00703 0.0
H1716 H 0.57289 0.20088 1.00224 0.0
H1717 H 0.55018 0.18721 0.98323 0.0
H1718 H 0.58492 0.15406 0.93475 0.0
H1719 H 0.57219 0.19239 0.91186 0.0
H1720 H 0.26804 0.54836 0.95459 0.0
H1721 H 0.30641 0.56392 0.97606 0.0
H1722 H 0.32478 0.63598 0.93878 0.0
H1723 H 0.28586 0.62082 0.91717 0.0
H1724 H 0.3648 0.57038 0.96841 0.0
H1725 H 0.31584 0.67437 0.99139 0.0
H1726 H 0.29552 0.64706 0.97878 0.0
H1727 H 0.32048 0.66955 0.96592 0.0
C1728 C 0.2801 0.56759 0.95088 0.0
C1729 C 0.27373 0.58333 0.93408 0.0
C1730 C 0.30213 0.57642 0.9632 0.0
C1731 C 0.31833 0.60123 0.95914 0.0
C1732 C 0.31226 0.617 0.94236 0.0
H1733 H 0.44572 0.67899 0.0371 0.0
H1734 H 0.41972 0.66731 0.00746 0.0
C1735 C 0.29009 0.6082 0.92997 0.0
C1736 C 0.34158 0.61008 0.97259 0.0
H1737 H 0.36033 0.66185 1.00525 0.0
C1738 C 0.36397 0.59051 0.97634 0.0
C1739 C 0.34061 0.63645 0.98283 0.0
C1740 C 0.31675 0.65805 0.9797 0.0
C1741 C 0.38493 0.59619 0.99041 0.0
C1742 C 0.38321 0.62193 1.00126 0.0
C1743 C 0.36159 0.6421 0.99693 0.0
C1744 C 0.40197 0.62727 0.01822 0.0
C1745 C 0.40855 0.57442 0.99366 0.0
C1746 C 0.40104 0.60841 0.03401 0.0
C1747 C 0.41589 0.61495 0.05094 0.0
C1748 C 0.43192 0.64064 0.05254 0.0
C1749 C 0.43379 0.65893 0.03639 0.0
C1750 C 0.41881 0.65238 0.01944 0.0
H1751 H 0.41243 0.56123 0.98057 0.0
H1752 H 0.42904 0.58511 0.99786 0.0
H1753 H 0.40205 0.55957 0.00542 0.0
H1754 H 0.38777 0.58919 0.03356 0.0
H1755 H 0.41381 0.6004 0.06306 0.0
H1756 H 0.81235 0.43361 0.03882 0.0
H1757 H 0.82413 0.40458 0.01043 0.0
H1758 H 0.9079 0.38628 0.03415 0.0
H1759 H 0.89652 0.41512 0.0625 0.0
H1760 H 0.87449 0.40541 0.98305 0.0
H1761 H 0.86534 0.30631 0.02756 0.0
H1762 H 0.85025 0.34048 0.03489 0.0
H1763 H 0.8882 0.33393 0.03741 0.0
C1764 C 0.83354 0.42396 0.03784 0.0
C1765 C 0.85338 0.42655 0.05309 0.0
C1766 C 0.84017 0.40731 0.02161 0.0
C1767 C 0.86667 0.39293 0.02039 0.0
C1768 C 0.88717 0.39692 0.03497 0.0
H1769 H 0.95618 0.26904 0.95296 0.0
H1770 H 0.93804 0.30431 0.9759 0.0
C1771 C 0.88062 0.41354 0.05115 0.0
C1772 C 0.87242 0.3722 1.00463 0.0
H1773 H 0.88545 0.30084 0.99634 0.0
C1774 C 0.87661 0.3825 0.98584 0.0
C1775 C 0.87487 0.34232 0.00835 0.0
C1776 C 0.86919 0.32995 0.0281 0.0
C1777 C 0.88459 0.36377 0.97082 0.0
C1778 C 0.88808 0.33402 0.97473 0.0
C1779 C 0.8829 0.32367 0.9934 0.0
C1780 C 0.89899 0.31344 0.96009 0.0
C1781 C 0.8904 0.37604 0.95109 0.0
C1782 C 0.88298 0.30676 0.94353 0.0
C1783 C 0.89334 0.28649 0.93025 0.0
C1784 C 0.91983 0.27244 0.93338 0.0
C1785 C 0.93572 0.27934 0.95001 0.0
C1786 C 0.92539 0.29954 0.96319 0.0
H1787 H 0.89171 0.39997 0.95128 0.0
H1788 H 0.91084 0.36733 0.94517 0.0
H1789 H 0.87271 0.36966 0.94123 0.0
H1790 H 0.86228 0.31685 0.94103 0.0
H1791 H 0.88039 0.28155 0.91771 0.0
H1792 H 0.41413 0.89527 0.56067 0.0
H1793 H 0.38857 0.9064 0.53089 0.0
H1794 H 0.41587 0.8254 0.50659 0.0
H1795 H 0.44142 0.81384 0.5364 0.0
H1796 H 0.40632 0.90888 0.49099 0.0
H1797 H 0.3263 0.82193 0.50572 0.0
H1798 H 0.35065 0.83516 0.52394 0.0
H1799 H 0.36363 0.81161 0.50538 0.0
C1800 C 0.41517 0.87997 0.54892 0.0
C1801 C 0.42966 0.85351 0.55106 0.0
C1802 C 0.40051 0.88639 0.53189 0.0
C1803 C 0.39989 0.86649 0.5167 0.0
C1804 C 0.4157 0.84084 0.51829 0.0
H1805 H 0.28226 0.87589 0.41718 0.0
H1806 H 0.32102 0.85956 0.43859 0.0
C1807 C 0.43049 0.8344 0.53531 0.0
C1808 C 0.38127 0.87207 0.49978 0.0
H1809 H 0.31829 0.85091 0.47854 0.0
C1810 C 0.38724 0.89604 0.48812 0.0
C1811 C 0.35644 0.85519 0.49604 0.0
C1812 C 0.34861 0.82962 0.50845 0.0
C1813 C 0.36868 0.904 0.47308 0.0
C1814 C 0.3432 0.88789 0.46988 0.0
C1815 C 0.33784 0.86321 0.48102 0.0
C1816 C 0.32056 0.89787 0.45636 0.0
C1817 C 0.37638 0.92981 0.46088 0.0
C1818 C 0.30717 0.92454 0.45945 0.0
C1819 C 0.28508 0.93387 0.44737 0.0
C1820 C 0.27569 0.91666 0.4319 0.0
C1821 C 0.28907 0.88979 0.42885 0.0
C1822 C 0.3112 0.88041 0.44107 0.0
H1823 H 0.39999 0.93385 0.46091 0.0
H1824 H 0.3691 0.9269 0.44578 0.0
H1825 H 0.36566 0.94923 0.46684 0.0
H1826 H 0.31352 0.93805 0.47145 0.0
H1827 H 0.27529 0.95461 0.45026 0.0
H1828 H 0.68324 0.43944 0.53637 0.0
H1829 H 0.67105 0.41388 0.50662 0.0
H1830 H 0.59032 0.38691 0.5316 0.0
H1831 H 0.602 0.41257 0.56116 0.0
H1832 H 0.66217 0.35518 0.50414 0.0
H1833 H 0.56536 0.41286 0.47843 0.0
H1834 H 0.58953 0.42804 0.49611 0.0
H1835 H 0.56227 0.40248 0.50321 0.0
C1836 C 0.66254 0.4287 0.53538 0.0
C1837 C 0.6436 0.42813 0.55122 0.0
C1838 C 0.65569 0.41397 0.51838 0.0
C1839 C 0.62965 0.3987 0.5168 0.0
C1840 C 0.61027 0.39901 0.53231 0.0
H1841 H 0.54586 0.26825 0.45238 0.0
H1842 H 0.56268 0.3058 0.47417 0.0
C1843 C 0.61709 0.41363 0.54928 0.0
C1844 C 0.62368 0.38024 0.49978 0.0
H1845 H 0.57191 0.36456 0.46648 0.0
C1846 C 0.64271 0.35752 0.49564 0.0
C1847 C 0.59832 0.38334 0.4887 0.0
C1848 C 0.57785 0.40819 0.4917 0.0
C1849 C 0.63622 0.33686 0.48148 0.0
C1850 C 0.61018 0.33924 0.47102 0.0
C1851 C 0.59178 0.36266 0.4746 0.0
C1852 C 0.60047 0.31656 0.4574 0.0
C1853 C 0.65655 0.31187 0.47849 0.0
C1854 C 0.6161 0.31017 0.44063 0.0
C1855 C 0.60654 0.28855 0.42805 0.0
C1856 C 0.58112 0.27299 0.43202 0.0
C1857 C 0.56553 0.27966 0.44882 0.0
C1858 C 0.57507 0.30122 0.46131 0.0
H1859 H 0.67265 0.31014 0.49025 0.0
H1860 H 0.64448 0.29123 0.47754 0.0
H1861 H 0.66837 0.31493 0.46475 0.0
H1862 H 0.63557 0.32201 0.43719 0.0
H1863 H 0.61911 0.28402 0.41527 0.0
H1864 H 0.21093 0.62024 0.41643 0.0
H1865 H 0.17543 0.63734 0.44007 0.0
H1866 H 0.19614 0.56582 0.47717 0.0
H1867 H 0.23141 0.54868 0.45397 0.0
H1868 H 0.12594 0.60602 0.45709 0.0
H1869 H 0.20759 0.63892 0.51105 0.0
H1870 H 0.21626 0.63346 0.48596 0.0
H1871 H 0.21276 0.60308 0.50188 0.0
C1872 C 0.20788 0.60812 0.42961 0.0
C1873 C 0.22421 0.58312 0.43328 0.0
C1874 C 0.18756 0.61792 0.44307 0.0
C1875 C 0.18344 0.60301 0.46045 0.0
C1876 C 0.19929 0.57787 0.46397 0.0
H1877 H 0.08909 0.60308 0.56529 0.0
H1878 H 0.11661 0.59259 0.53623 0.0
C1879 C 0.21944 0.56806 0.4506 0.0
C1880 C 0.16283 0.61343 0.4752 0.0
H1881 H 0.1593 0.63361 0.52238 0.0
C1882 C 0.13315 0.61251 0.47129 0.0
C1883 C 0.17236 0.62195 0.49368 0.0
C1884 C 0.20399 0.62471 0.4984 0.0
C1885 C 0.11272 0.6185 0.48573 0.0
C1886 C 0.12232 0.62575 0.50442 0.0
C1887 C 0.152 0.62773 0.50808 0.0
C1888 C 0.10221 0.63034 0.52074 0.0
C1889 C 0.08105 0.61589 0.48119 0.0
C1890 C 0.08436 0.65472 0.52148 0.0
C1891 C 0.06849 0.66086 0.53815 0.0
C1892 C 0.07033 0.64277 0.5544 0.0
C1893 C 0.0871 0.61756 0.55313 0.0
C1894 C 0.10295 0.61152 0.53652 0.0
H1895 H 0.07722 0.60585 0.46691 0.0
H1896 H 0.06996 0.60285 0.49238 0.0
H1897 H 0.07119 0.63768 0.48119 0.0
H1898 H 0.08374 0.6697 0.50952 0.0
H1899 H 0.05596 0.68053 0.5386 0.0
H1900 H 0.81888 0.05766 0.53853 0.0
H1901 H 0.83083 0.08588 0.50985 0.0
H1902 H 0.91042 0.11294 0.53624 0.0
H1903 H 0.89876 0.08501 0.56495 0.0
H1904 H 0.87273 0.15849 0.52421 0.0
H1905 H 0.89172 0.07826 0.46598 0.0
H1906 H 0.85975 0.07364 0.48035 0.0
H1907 H 0.89452 0.06907 0.49118 0.0
C1908 C 0.83932 0.06894 0.53806 0.0
C1909 C 0.85776 0.06916 0.55416 0.0
C1910 C 0.84611 0.08506 0.52161 0.0
C1911 C 0.87151 0.10148 0.52093 0.0
C1912 C 0.89069 0.10042 0.53649 0.0
H1913 H 0.95544 0.23079 0.45416 0.0
H1914 H 0.93895 0.19491 0.47726 0.0
C1915 C 0.88398 0.08436 0.5529 0.0
C1916 C 0.8768 0.12221 0.50506 0.0
H1917 H 0.89327 0.12753 0.45726 0.0
C1918 C 0.87716 0.15172 0.50956 0.0
C1919 C 0.88211 0.11332 0.48593 0.0
C1920 C 0.88222 0.08186 0.48046 0.0
C1921 C 0.88327 0.17257 0.49553 0.0
C1922 C 0.88971 0.16367 0.47655 0.0
C1923 C 0.8884 0.13424 0.47185 0.0
C1924 C 0.89979 0.18457 0.46187 0.0
C1925 C 0.88289 0.20401 0.50115 0.0
C1926 C 0.88353 0.19017 0.44527 0.0
C1927 C 0.89294 0.21077 0.43189 0.0
C1928 C 0.91888 0.22597 0.43487 0.0
C1929 C 0.93529 0.21974 0.45139 0.0
C1930 C 0.92588 0.19924 0.46468 0.0
H1931 H 0.87005 0.20767 0.51442 0.0
H1932 H 0.90528 0.21132 0.50397 0.0
H1933 H 0.87389 0.21751 0.4894 0.0
H1934 H 0.86334 0.17899 0.44284 0.0
H1935 H 0.87974 0.21501 0.41936 0.0
H1936 H 0.91562 0.10142 0.94751 0.0
H1937 H 0.88852 0.09069 0.97677 0.0
H1938 H 0.91665 0.17101 1.00174 0.0
H1939 H 0.94372 0.18218 0.97243 0.0
H1940 H 0.90424 0.08728 0.0167 0.0
H1941 H 0.82742 0.17658 1.00148 0.0
H1942 H 0.85221 0.16314 0.98358 0.0
H1943 H 0.86496 0.18611 1.00256 0.0
C1944 C 0.91651 0.11665 0.95931 0.0
C1945 C 0.93171 0.14281 0.95748 0.0
C1946 C 0.90095 0.11046 0.97604 0.0
C1947 C 0.90012 0.13031 0.99126 0.0
C1948 C 0.91661 0.15563 0.99001 0.0
H1949 H 0.78177 0.12375 0.09054 0.0
H1950 H 0.82054 0.139 0.06873 0.0
C1951 C 0.93229 0.16184 0.97329 0.0
C1952 C 0.88071 0.12499 0.00787 0.0
H1953 H 0.81797 0.14786 0.02863 0.0
C1954 C 0.88553 0.10067 0.01943 0.0
C1955 C 0.85634 0.14254 0.01143 0.0
C1956 C 0.84965 0.16846 0.99907 0.0
C1957 C 0.86635 0.09312 0.03425 0.0
C1958 C 0.84139 0.11002 0.03733 0.0
C1959 C 0.83712 0.13495 0.02624 0.0
C1960 C 0.81834 0.10086 0.05086 0.0
C1961 C 0.87287 0.06695 0.04639 0.0
C1962 C 0.80391 0.07468 0.04782 0.0
C1963 C 0.7818 0.06596 0.06014 0.0
C1964 C 0.77344 0.08329 0.07581 0.0
C1965 C 0.78774 0.10976 0.07872 0.0
C1966 C 0.80989 0.11853 0.06628 0.0
H1967 H 0.89627 0.06191 0.04636 0.0
H1968 H 0.86569 0.07009 0.06149 0.0
H1969 H 0.86129 0.04803 0.04039 0.0
H1970 H 0.80957 0.06104 0.03575 0.0
H1971 H 0.77126 0.04554 0.05733 0.0
H1972 H 0.40104 0.91182 0.94575 0.0
H1973 H 0.41247 0.88393 0.9745 0.0
H1974 H 0.33381 0.91257 1.00131 0.0
H1975 H 0.32195 0.94066 0.97249 0.0
H1976 H 0.38934 0.9084 0.02609 0.0
H1977 H 0.35891 0.81019 0.98492 0.0
H1978 H 0.38327 0.83447 0.97292 0.0
H1979 H 0.34715 0.84588 0.97811 0.0
C1980 C 0.38638 0.91279 0.95787 0.0
C1981 C 0.36038 0.9283 0.95667 0.0
C1982 C 0.39296 0.89675 0.97429 0.0
C1983 C 0.37376 0.89588 0.98985 0.0
C1984 C 0.34884 0.91293 0.98937 0.0
H1985 H 0.38762 0.78762 0.09403 0.0
H1986 H 0.371 0.82421 0.07109 0.0
C1987 C 0.34217 0.92905 0.9729 0.0
C1988 C 0.37871 0.87514 0.00572 0.0
H1989 H 0.38219 0.80292 0.0149 0.0
C1990 C 0.38748 0.88534 0.0238 0.0
C1991 C 0.37605 0.84512 1.00262 0.0
C1992 C 0.36561 0.83313 0.98366 0.0
C1993 C 0.39501 0.86611 0.03864 0.0
C1994 C 0.39329 0.83604 0.03531 0.0
C1995 C 0.38357 0.82597 0.01741 0.0
C1996 C 0.40335 0.81453 0.04962 0.0
C1997 C 0.40589 0.87802 0.05748 0.0
C1998 C 0.42673 0.79669 0.04504 0.0
C1999 C 0.43619 0.77577 0.058 0.0
C2000 C 0.4224 0.77204 0.07589 0.0
C2001 C 0.39886 0.78995 0.08045 0.0
C2002 C 0.38941 0.81099 0.06741 0.0
H2003 H 0.41075 0.90145 0.05656 0.0
H2004 H 0.38924 0.87479 0.06875 0.0
H2005 H 0.42566 0.86647 0.0621 0.0
H2006 H 0.43773 0.79898 0.03136 0.0
H2007 H 0.45432 0.76243 0.0539 0.0
H2008 H 0.69547 0.44826 0.08867 0.0
H2009 H 0.65775 0.43436 0.0658 0.0
H2010 H 0.71175 0.36521 0.04503 0.0
H2011 H 0.74859 0.37815 0.06879 0.0
H2012 H 0.65907 0.43717 0.02967 0.0
H2013 H 0.63835 0.32279 0.04677 0.0
H2014 H 0.65931 0.34568 0.06241 0.0
H2015 H 0.67585 0.32835 0.04197 0.0
C2016 C 0.69881 0.42966 0.07949 0.0
C2017 C 0.72455 0.41397 0.08051 0.0
C2018 C 0.67737 0.42177 0.0664 0.0
C2019 C 0.68157 0.39842 0.05379 0.0
C2020 C 0.70741 0.38264 0.05496 0.0
H2021 H 0.6119 0.38528 0.94019 0.0
H2022 H 0.63741 0.39731 0.96964 0.0
C2023 C 0.72856 0.39012 0.06842 0.0
C2024 C 0.66019 0.39248 0.03828 0.0
H2025 H 0.62398 0.33857 0.01505 0.0
C2026 C 0.65109 0.41563 0.02673 0.0
C2027 C 0.64924 0.36451 0.03449 0.0
C2028 C 0.65597 0.33903 0.04723 0.0
C2029 C 0.63228 0.41149 0.01117 0.0
C2030 C 0.62316 0.38323 0.00647 0.0
C2031 C 0.63128 0.36021 0.01844 0.0
C2032 C 0.60651 0.37693 0.98866 0.0
C2033 C 0.62233 0.4376 1.00004 0.0
C2034 C 0.58086 0.36083 0.98939 0.0
C2035 C 0.56633 0.35343 0.97241 0.0
C2036 C 0.57716 0.36209 0.95439 0.0
C2037 C 0.60258 0.37865 0.95379 0.0
C2038 C 0.61722 0.38568 0.97069 0.0
H2039 H 0.62219 0.45717 0.00928 0.0
H2040 H 0.63748 0.4417 0.98799 0.0
H2041 H 0.60037 0.43444 0.99406 0.0
H2042 H 0.57225 0.35367 1.00308 0.0
H2043 H 0.54693 0.34049 0.9734 0.0
H2044 H 0.07226 0.69319 0.09855 0.0
H2045 H 0.08693 0.65632 0.07519 0.0
H2046 H 0.10489 0.72307 0.03349 0.0
H2047 H 0.08823 0.75948 0.05632 0.0
H2048 H 0.07662 0.68431 0.01691 0.0
H2049 H 0.16227 0.628 0.05745 0.0
H2050 H 0.12858 0.62722 0.07005 0.0
H2051 H 0.14647 0.66118 0.06583 0.0
C2052 C 0.07971 0.69983 0.08445 0.0
C2053 C 0.07919 0.72903 0.07915 0.0
C2054 C 0.08831 0.67881 0.07114 0.0
C2055 C 0.09752 0.68679 0.05257 0.0
C2056 C 0.09783 0.71621 0.04764 0.0
H2057 H 0.18692 0.58244 0.96865 0.0
H2058 H 0.17248 0.61097 0.99655 0.0
C2059 C 0.08842 0.73704 0.06069 0.0
C2060 C 0.10491 0.66475 0.03773 0.0
H2061 H 0.14596 0.60509 0.02873 0.0
C2062 C 0.09195 0.66712 0.01952 0.0
C2063 C 0.12509 0.64236 0.04095 0.0
C2064 C 0.14162 0.6397 0.05956 0.0
C2065 C 0.09887 0.64827 1.00443 0.0
C2066 C 0.11808 0.62509 0.00787 0.0
C2067 C 0.13086 0.62249 0.02613 0.0
C2068 C 0.12665 0.60465 0.99233 0.0
C2069 C 0.08645 0.6544 0.98476 0.0
C2070 C 0.10584 0.59046 0.98105 0.0
C2071 C 0.11406 0.57476 0.96474 0.0
C2072 C 0.1433 0.57193 0.95989 0.0
C2073 C 0.1642 0.58406 0.9721 0.0
C2074 C 0.15595 0.60046 0.98806 0.0
H2075 H 0.07978 0.67731 0.98332 0.0
H2076 H 0.10225 0.64959 0.97319 0.0
H2077 H 0.06701 0.64086 0.98252 0.0
H2078 H 0.08316 0.59236 0.98443 0.0
H2079 H 0.09752 0.56542 0.95566 0.0
loop_
_geom_bond_atom_site_label_1
_geom_bond_atom_site_label_2
_geom_bond_distance
_geom_bond_site_symmetry_2
_ccdc_geom_bond_type
Sc0 O3 2.025 . S
Sc0 O10 2.105 . S
Sc0 O13 2.105 . S
Sc0 O16 2.105 . S
Sc0 O19 2.105 . S
Sc1 O3 2.025 . S
Sc1 O11 2.105 . S
Sc1 O15 2.105 . S
Sc1 O17 2.105 . S
Sc1 O21 2.105 . S
Sc2 O3 2.025 . S
Sc2 O12 2.105 . S
Sc2 O14 2.105 . S
Sc2 O18 2.105 . S
Sc2 O20 2.105 . S
O3 Sc0 2.025 . S
O3 Sc1 2.025 . S
O3 Sc2 2.025 . S
C4 O10 1.268 . S
C4 O20 1.268 . S
C5 O11 1.268 . S
C5 O19 1.268 . S
C6 O12 1.268 . S
C6 O21 1.268 . S
C7 O13 1.268 . S
C7 O17 1.268 . S
C8 O14 1.268 . S
C8 O16 1.268 . S
C9 O15 1.268 . S
C9 O18 1.268 . S
O10 Sc0 2.105 . S
O10 C4 1.268 . S
O11 Sc1 2.105 . S
O11 C5 1.268 . S
O12 Sc2 2.105 . S
O12 C6 1.268 . S
O13 Sc0 2.105 . S
O13 C7 1.268 . S
O14 Sc2 2.105 . S
O14 C8 1.268 . S
O15 Sc1 2.105 . S
O15 C9 1.268 . S
O16 Sc0 2.105 . S
O16 C8 1.268 . S
O17 Sc1 2.105 . S
O17 C7 1.268 . S
O18 Sc2 2.105 . S
O18 C9 1.268 . S
O19 Sc0 2.105 . S
O19 C5 1.268 . S
O20 Sc2 2.105 . S
O20 C4 1.268 . S
O21 Sc1 2.105 . S
O21 C6 1.268 . S
Sc22 O25 2.025 . S
Sc22 O32 2.105 . S
Sc22 O35 2.105 . S
Sc22 O38 2.105 . S
Sc22 O41 2.105 . S
Sc23 O25 2.025 . S
Sc23 O33 2.105 . S
Sc23 O37 2.105 . S
Sc23 O39 2.105 . S
Sc23 O43 2.105 . S
Sc24 O25 2.025 . S
Sc24 O34 2.105 . S
Sc24 O36 2.105 . S
Sc24 O40 2.105 . S
Sc24 O42 2.105 . S
O25 Sc22 2.025 . S
O25 Sc23 2.025 . S
O25 Sc24 2.025 . S
C26 O32 1.268 . S
C26 O42 1.268 . S
C27 O33 1.268 . S
C27 O41 1.268 . S
C28 O34 1.268 . S
C28 O43 1.268 . S
C29 O35 1.268 . S
C29 O39 1.268 . S
C30 O36 1.268 . S
C30 O38 1.268 . S
C31 O37 1.268 . S
C31 O40 1.268 . S
O32 Sc22 2.105 . S
O32 C26 1.268 . S
O33 Sc23 2.105 . S
O33 C27 1.268 . S
O34 Sc24 2.105 . S
O34 C28 1.268 . S
O35 Sc22 2.105 . S
O35 C29 1.268 . S
O36 Sc24 2.105 . S
O36 C30 1.268 . S
O37 Sc23 2.105 . S
O37 C31 1.268 . S
O38 Sc22 2.105 . S
O38 C30 1.268 . S
O39 Sc23 2.105 . S
O39 C29 1.268 . S
O40 Sc24 2.105 . S
O40 C31 1.268 . S
O41 Sc22 2.105 . S
O41 C27 1.268 . S
O42 Sc24 2.105 . S
O42 C26 1.268 . S
O43 Sc23 2.105 . S
O43 C28 1.268 . S
Sc44 O47 2.025 . S
Sc44 O54 2.105 . S
Sc44 O57 2.105 . S
Sc44 O60 2.105 . S
Sc44 O63 2.105 . S
Sc45 O47 2.025 . S
Sc45 O55 2.105 . S
Sc45 O59 2.105 . S
Sc45 O61 2.105 . S
Sc45 O65 2.105 . S
Sc46 O47 2.025 . S
Sc46 O56 2.105 . S
Sc46 O58 2.105 . S
Sc46 O62 2.105 . S
Sc46 O64 2.105 . S
O47 Sc44 2.025 . S
O47 Sc45 2.025 . S
O47 Sc46 2.025 . S
C48 O54 1.268 . S
C48 O64 1.268 . S
C49 O55 1.268 . S
C49 O63 1.268 . S
C50 O56 1.268 . S
C50 O65 1.268 . S
C51 O57 1.268 . S
C51 O61 1.268 . S
C52 O58 1.268 . S
C52 O60 1.268 . S
C53 O59 1.268 . S
C53 O62 1.268 . S
O54 Sc44 2.105 . S
O54 C48 1.268 . S
O55 Sc45 2.105 . S
O55 C49 1.268 . S
O56 Sc46 2.105 . S
O56 C50 1.268 . S
O57 Sc44 2.105 . S
O57 C51 1.268 . S
O58 Sc46 2.105 . S
O58 C52 1.268 . S
O59 Sc45 2.105 . S
O59 C53 1.268 . S
O60 Sc44 2.105 . S
O60 C52 1.268 . S
O61 Sc45 2.105 . S
O61 C51 1.268 . S
O62 Sc46 2.105 . S
O62 C53 1.268 . S
O63 Sc44 2.105 . S
O63 C49 1.268 . S
O64 Sc46 2.105 . S
O64 C48 1.268 . S
O65 Sc45 2.105 . S
O65 C50 1.268 . S
Sc66 O69 2.025 . S
Sc66 O76 2.105 . S
Sc66 O79 2.105 . S
Sc66 O82 2.105 . S
Sc66 O85 2.105 . S
Sc67 O69 2.025 . S
Sc67 O77 2.105 . S
Sc67 O81 2.105 . S
Sc67 O83 2.105 . S
Sc67 O87 2.105 . S
Sc68 O69 2.025 . S
Sc68 O78 2.105 . S
Sc68 O80 2.105 . S
Sc68 O84 2.105 . S
Sc68 O86 2.105 . S
O69 Sc66 2.025 . S
O69 Sc67 2.025 . S
O69 Sc68 2.025 . S
C70 O76 1.268 . S
C70 O86 1.268 . S
C71 O77 1.268 . S
C71 O85 1.268 . S
C72 O78 1.268 . S
C72 O87 1.268 . S
C73 O79 1.268 . S
C73 O83 1.268 . S
C74 O80 1.268 . S
C74 O82 1.268 . S
C75 O81 1.268 . S
C75 O84 1.268 . S
O76 Sc66 2.105 . S
O76 C70 1.268 . S
O77 Sc67 2.105 . S
O77 C71 1.268 . S
O78 Sc68 2.105 . S
O78 C72 1.268 . S
O79 Sc66 2.105 . S
O79 C73 1.268 . S
O80 Sc68 2.105 . S
O80 C74 1.268 . S
O81 Sc67 2.105 . S
O81 C75 1.268 . S
O82 Sc66 2.105 . S
O82 C74 1.268 . S
O83 Sc67 2.105 . S
O83 C73 1.268 . S
O84 Sc68 2.105 . S
O84 C75 1.268 . S
O85 Sc66 2.105 . S
O85 C71 1.268 . S
O86 Sc68 2.105 . S
O86 C70 1.268 . S
O87 Sc67 2.105 . S
O87 C72 1.268 . S
Sc88 O91 2.025 . S
Sc88 O98 2.105 . S
Sc88 O101 2.105 . S
Sc88 O104 2.105 . S
Sc88 O107 2.105 . S
Sc89 O91 2.025 . S
Sc89 O99 2.105 . S
Sc89 O103 2.105 . S
Sc89 O105 2.105 . S
Sc89 O109 2.105 . S
Sc90 O91 2.025 . S
Sc90 O100 2.105 . S
Sc90 O102 2.105 . S
Sc90 O106 2.105 . S
Sc90 O108 2.105 . S
O91 Sc88 2.025 . S
O91 Sc89 2.025 . S
O91 Sc90 2.025 . S
C92 O98 1.268 . S
C92 O108 1.268 . S
C93 O99 1.268 . S
C93 O107 1.268 . S
C94 O100 1.268 . S
C94 O109 1.268 . S
C95 O101 1.268 . S
C95 O105 1.268 . S
C96 O102 1.268 . S
C96 O104 1.268 . S
C97 O103 1.268 . S
C97 O106 1.268 . S
O98 Sc88 2.105 . S
O98 C92 1.268 . S
O99 Sc89 2.105 . S
O99 C93 1.268 . S
O100 Sc90 2.105 . S
O100 C94 1.268 . S
O101 Sc88 2.105 . S
O101 C95 1.268 . S
O102 Sc90 2.105 . S
O102 C96 1.268 . S
O103 Sc89 2.105 . S
O103 C97 1.268 . S
O104 Sc88 2.105 . S
O104 C96 1.268 . S
O105 Sc89 2.105 . S
O105 C95 1.268 . S
O106 Sc90 2.105 . S
O106 C97 1.268 . S
O107 Sc88 2.105 . S
O107 C93 1.268 . S
O108 Sc90 2.105 . S
O108 C92 1.268 . S
O109 Sc89 2.105 . S
O109 C94 1.268 . S
Sc110 O113 2.025 . S
Sc110 O120 2.105 . S
Sc110 O123 2.105 . S
Sc110 O126 2.105 . S
Sc110 O129 2.105 . S
Sc111 O113 2.025 . S
Sc111 O121 2.105 . S
Sc111 O125 2.105 . S
Sc111 O127 2.105 . S
Sc111 O131 2.105 . S
Sc112 O113 2.025 . S
Sc112 O122 2.105 . S
Sc112 O124 2.105 . S
Sc112 O128 2.105 . S
Sc112 O130 2.105 . S
O113 Sc110 2.025 . S
O113 Sc111 2.025 . S
O113 Sc112 2.025 . S
C114 O120 1.268 . S
C114 O130 1.268 . S
C115 O121 1.268 . S
C115 O129 1.268 . S
C116 O122 1.268 . S
C116 O131 1.268 . S
C117 O123 1.268 . S
C117 O127 1.268 . S
C118 O124 1.268 . S
C118 O126 1.268 . S
C119 O125 1.268 . S
C119 O128 1.268 . S
O120 Sc110 2.105 . S
O120 C114 1.268 . S
O121 Sc111 2.105 . S
O121 C115 1.268 . S
O122 Sc112 2.105 . S
O122 C116 1.268 . S
O123 Sc110 2.105 . S
O123 C117 1.268 . S
O124 Sc112 2.105 . S
O124 C118 1.268 . S
O125 Sc111 2.105 . S
O125 C119 1.268 . S
O126 Sc110 2.105 . S
O126 C118 1.268 . S
O127 Sc111 2.105 . S
O127 C117 1.268 . S
O128 Sc112 2.105 . S
O128 C119 1.268 . S
O129 Sc110 2.105 . S
O129 C115 1.268 . S
O130 Sc112 2.105 . S
O130 C114 1.268 . S
O131 Sc111 2.105 . S
O131 C116 1.268 . S
Sc132 O135 2.025 . S
Sc132 O142 2.105 . S
Sc132 O145 2.105 . S
Sc132 O148 2.105 . S
Sc132 O151 2.105 . S
Sc133 O135 2.025 . S
Sc133 O143 2.105 . S
Sc133 O147 2.105 . S
Sc133 O149 2.105 . S
Sc133 O153 2.105 . S
Sc134 O135 2.025 . S
Sc134 O144 2.105 . S
Sc134 O146 2.105 . S
Sc134 O150 2.105 . S
Sc134 O152 2.105 . S
O135 Sc132 2.025 . S
O135 Sc133 2.025 . S
O135 Sc134 2.025 . S
C136 O142 1.268 . S
C136 O152 1.268 . S
C137 O143 1.268 . S
C137 O151 1.268 . S
C138 O144 1.268 . S
C138 O153 1.268 . S
C139 O145 1.268 . S
C139 O149 1.268 . S
C140 O146 1.268 . S
C140 O148 1.268 . S
C141 O147 1.268 . S
C141 O150 1.268 . S
O142 Sc132 2.105 . S
O142 C136 1.268 . S
O143 Sc133 2.105 . S
O143 C137 1.268 . S
O144 Sc134 2.105 . S
O144 C138 1.268 . S
O145 Sc132 2.105 . S
O145 C139 1.268 . S
O146 Sc134 2.105 . S
O146 C140 1.268 . S
O147 Sc133 2.105 . S
O147 C141 1.268 . S
O148 Sc132 2.105 . S
O148 C140 1.268 . S
O149 Sc133 2.105 . S
O149 C139 1.268 . S
O150 Sc134 2.105 . S
O150 C141 1.268 . S
O151 Sc132 2.105 . S
O151 C137 1.268 . S
O152 Sc134 2.105 . S
O152 C136 1.268 . S
O153 Sc133 2.105 . S
O153 C138 1.268 . S
Sc154 O157 2.025 . S
Sc154 O164 2.105 . S
Sc154 O167 2.105 . S
Sc154 O170 2.105 . S
Sc154 O173 2.105 . S
Sc155 O157 2.025 . S
Sc155 O165 2.105 . S
Sc155 O169 2.105 . S
Sc155 O171 2.105 . S
Sc155 O175 2.105 . S
Sc156 O157 2.025 . S
Sc156 O166 2.105 . S
Sc156 O168 2.105 . S
Sc156 O172 2.105 . S
Sc156 O174 2.105 . S
O157 Sc154 2.025 . S
O157 Sc155 2.025 . S
O157 Sc156 2.025 . S
C158 O164 1.268 . S
C158 O174 1.268 . S
C159 O165 1.268 . S
C159 O173 1.268 . S
C160 O166 1.268 . S
C160 O175 1.268 . S
C161 O167 1.268 . S
C161 O171 1.268 . S
C162 O168 1.268 . S
C162 O170 1.268 . S
C163 O169 1.268 . S
C163 O172 1.268 . S
O164 Sc154 2.105 . S
O164 C158 1.268 . S
O165 Sc155 2.105 . S
O165 C159 1.268 . S
O166 Sc156 2.105 . S
O166 C160 1.268 . S
O167 Sc154 2.105 . S
O167 C161 1.268 . S
O168 Sc156 2.105 . S
O168 C162 1.268 . S
O169 Sc155 2.105 . S
O169 C163 1.268 . S
O170 Sc154 2.105 . S
O170 C162 1.268 . S
O171 Sc155 2.105 . S
O171 C161 1.268 . S
O172 Sc156 2.105 . S
O172 C163 1.268 . S
O173 Sc154 2.105 . S
O173 C159 1.268 . S
O174 Sc156 2.105 . S
O174 C158 1.268 . S
O175 Sc155 2.105 . S
O175 C160 1.268 . S
Sc176 O179 2.025 . S
Sc176 O186 2.105 . S
Sc176 O189 2.105 . S
Sc176 O192 2.105 . S
Sc176 O195 2.105 . S
Sc177 O179 2.025 . S
Sc177 O187 2.105 . S
Sc177 O191 2.105 . S
Sc177 O193 2.105 . S
Sc177 O197 2.105 . S
Sc178 O179 2.025 . S
Sc178 O188 2.105 . S
Sc178 O190 2.105 . S
Sc178 O194 2.105 . S
Sc178 O196 2.105 . S
O179 Sc176 2.025 . S
O179 Sc177 2.025 . S
O179 Sc178 2.025 . S
C180 O186 1.268 . S
C180 O196 1.268 . S
C181 O187 1.268 . S
C181 O195 1.268 . S
C182 O188 1.268 . S
C182 O197 1.268 . S
C183 O189 1.268 . S
C183 O193 1.268 . S
C184 O190 1.268 . S
C184 O192 1.268 . S
C185 O191 1.268 . S
C185 O194 1.268 . S
O186 Sc176 2.105 . S
O186 C180 1.268 . S
O187 Sc177 2.105 . S
O187 C181 1.268 . S
O188 Sc178 2.105 . S
O188 C182 1.268 . S
O189 Sc176 2.105 . S
O189 C183 1.268 . S
O190 Sc178 2.105 . S
O190 C184 1.268 . S
O191 Sc177 2.105 . S
O191 C185 1.268 . S
O192 Sc176 2.105 . S
O192 C184 1.268 . S
O193 Sc177 2.105 . S
O193 C183 1.268 . S
O194 Sc178 2.105 . S
O194 C185 1.268 . S
O195 Sc176 2.105 . S
O195 C181 1.268 . S
O196 Sc178 2.105 . S
O196 C180 1.268 . S
O197 Sc177 2.105 . S
O197 C182 1.268 . S
Sc198 O201 2.025 . S
Sc198 O208 2.105 . S
Sc198 O211 2.105 . S
Sc198 O214 2.105 . S
Sc198 O217 2.105 . S
Sc199 O201 2.025 . S
Sc199 O209 2.105 . S
Sc199 O213 2.105 . S
Sc199 O215 2.105 . S
Sc199 O219 2.105 . S
Sc200 O201 2.025 . S
Sc200 O210 2.105 . S
Sc200 O212 2.105 . S
Sc200 O216 2.105 . S
Sc200 O218 2.105 . S
O201 Sc198 2.025 . S
O201 Sc199 2.025 . S
O201 Sc200 2.025 . S
C202 O208 1.268 . S
C202 O218 1.268 . S
C203 O209 1.268 . S
C203 O217 1.268 . S
C204 O210 1.268 . S
C204 O219 1.268 . S
C205 O211 1.268 . S
C205 O215 1.268 . S
C206 O212 1.268 . S
C206 O214 1.268 . S
C207 O213 1.268 . S
C207 O216 1.268 . S
O208 Sc198 2.105 . S
O208 C202 1.268 . S
O209 Sc199 2.105 . S
O209 C203 1.268 . S
O210 Sc200 2.105 . S
O210 C204 1.268 . S
O211 Sc198 2.105 . S
O211 C205 1.268 . S
O212 Sc200 2.105 . S
O212 C206 1.268 . S
O213 Sc199 2.105 . S
O213 C207 1.268 . S
O214 Sc198 2.105 . S
O214 C206 1.268 . S
O215 Sc199 2.105 . S
O215 C205 1.268 . S
O216 Sc200 2.105 . S
O216 C207 1.268 . S
O217 Sc198 2.105 . S
O217 C203 1.268 . S
O218 Sc200 2.105 . S
O218 C202 1.268 . S
O219 Sc199 2.105 . S
O219 C204 1.268 . S
Sc220 O223 2.025 . S
Sc220 O230 2.105 . S
Sc220 O233 2.105 . S
Sc220 O236 2.105 . S
Sc220 O239 2.105 . S
Sc221 O223 2.025 . S
Sc221 O231 2.105 . S
Sc221 O235 2.105 . S
Sc221 O237 2.105 . S
Sc221 O241 2.105 . S
Sc222 O223 2.025 . S
Sc222 O232 2.105 . S
Sc222 O234 2.105 . S
Sc222 O238 2.105 . S
Sc222 O240 2.105 . S
O223 Sc220 2.025 . S
O223 Sc221 2.025 . S
O223 Sc222 2.025 . S
C224 O230 1.268 . S
C224 O240 1.268 . S
C225 O231 1.268 . S
C225 O239 1.268 . S
C226 O232 1.268 . S
C226 O241 1.268 . S
C227 O233 1.268 . S
C227 O237 1.268 . S
C228 O234 1.268 . S
C228 O236 1.268 . S
C229 O235 1.268 . S
C229 O238 1.268 . S
O230 Sc220 2.105 . S
O230 C224 1.268 . S
O231 Sc221 2.105 . S
O231 C225 1.268 . S
O232 Sc222 2.105 . S
O232 C226 1.268 . S
O233 Sc220 2.105 . S
O233 C227 1.268 . S
O234 Sc222 2.105 . S
O234 C228 1.268 . S
O235 Sc221 2.105 . S
O235 C229 1.268 . S
O236 Sc220 2.105 . S
O236 C228 1.268 . S
O237 Sc221 2.105 . S
O237 C227 1.268 . S
O238 Sc222 2.105 . S
O238 C229 1.268 . S
O239 Sc220 2.105 . S
O239 C225 1.268 . S
O240 Sc222 2.105 . S
O240 C224 1.268 . S
O241 Sc221 2.105 . S
O241 C226 1.268 . S
Sc242 O245 2.025 . S
Sc242 O252 2.105 . S
Sc242 O255 2.105 . S
Sc242 O258 2.105 . S
Sc242 O261 2.105 . S
Sc243 O245 2.025 . S
Sc243 O253 2.105 . S
Sc243 O257 2.105 . S
Sc243 O259 2.105 . S
Sc243 O263 2.105 . S
Sc244 O245 2.025 . S
Sc244 O254 2.105 . S
Sc244 O256 2.105 . S
Sc244 O260 2.105 . S
Sc244 O262 2.105 . S
O245 Sc242 2.025 . S
O245 Sc243 2.025 . S
O245 Sc244 2.025 . S
C246 O252 1.268 . S
C246 O262 1.268 . S
C247 O253 1.268 . S
C247 O261 1.268 . S
C248 O254 1.268 . S
C248 O263 1.268 . S
C249 O255 1.268 . S
C249 O259 1.268 . S
C250 O256 1.268 . S
C250 O258 1.268 . S
C251 O257 1.268 . S
C251 O260 1.268 . S
O252 Sc242 2.105 . S
O252 C246 1.268 . S
O253 Sc243 2.105 . S
O253 C247 1.268 . S
O254 Sc244 2.105 . S
O254 C248 1.268 . S
O255 Sc242 2.105 . S
O255 C249 1.268 . S
O256 Sc244 2.105 . S
O256 C250 1.268 . S
O257 Sc243 2.105 . S
O257 C251 1.268 . S
O258 Sc242 2.105 . S
O258 C250 1.268 . S
O259 Sc243 2.105 . S
O259 C249 1.268 . S
O260 Sc244 2.105 . S
O260 C251 1.268 . S
O261 Sc242 2.105 . S
O261 C247 1.268 . S
O262 Sc244 2.105 . S
O262 C246 1.268 . S
O263 Sc243 2.105 . S
O263 C248 1.268 . S
Sc264 O267 2.025 . S
Sc264 O274 2.105 . S
Sc264 O277 2.105 . S
Sc264 O280 2.105 . S
Sc264 O283 2.105 . S
Sc265 O267 2.025 . S
Sc265 O275 2.105 . S
Sc265 O279 2.105 . S
Sc265 O281 2.105 . S
Sc265 O285 2.105 . S
Sc266 O267 2.025 . S
Sc266 O276 2.105 . S
Sc266 O278 2.105 . S
Sc266 O282 2.105 . S
Sc266 O284 2.105 . S
O267 Sc264 2.025 . S
O267 Sc265 2.025 . S
O267 Sc266 2.025 . S
C268 O274 1.268 . S
C268 O284 1.268 . S
C269 O275 1.268 . S
C269 O283 1.268 . S
C270 O276 1.268 . S
C270 O285 1.268 . S
C271 O277 1.268 . S
C271 O281 1.268 . S
C272 O278 1.268 . S
C272 O280 1.268 . S
C273 O279 1.268 . S
C273 O282 1.268 . S
O274 Sc264 2.105 . S
O274 C268 1.268 . S
O275 Sc265 2.105 . S
O275 C269 1.268 . S
O276 Sc266 2.105 . S
O276 C270 1.268 . S
O277 Sc264 2.105 . S
O277 C271 1.268 . S
O278 Sc266 2.105 . S
O278 C272 1.268 . S
O279 Sc265 2.105 . S
O279 C273 1.268 . S
O280 Sc264 2.105 . S
O280 C272 1.268 . S
O281 Sc265 2.105 . S
O281 C271 1.268 . S
O282 Sc266 2.105 . S
O282 C273 1.268 . S
O283 Sc264 2.105 . S
O283 C269 1.268 . S
O284 Sc266 2.105 . S
O284 C268 1.268 . S
O285 Sc265 2.105 . S
O285 C270 1.268 . S
Sc286 O289 2.025 . S
Sc286 O296 2.105 . S
Sc286 O299 2.105 . S
Sc286 O302 2.105 . S
Sc286 O305 2.105 . S
Sc287 O289 2.025 . S
Sc287 O297 2.105 . S
Sc287 O301 2.105 . S
Sc287 O303 2.105 . S
Sc287 O307 2.105 . S
Sc288 O289 2.025 . S
Sc288 O298 2.105 . S
Sc288 O300 2.105 . S
Sc288 O304 2.105 . S
Sc288 O306 2.105 . S
O289 Sc286 2.025 . S
O289 Sc287 2.025 . S
O289 Sc288 2.025 . S
C290 O296 1.268 . S
C290 O306 1.268 . S
C291 O297 1.268 . S
C291 O305 1.268 . S
C292 O298 1.268 . S
C292 O307 1.268 . S
C293 O299 1.268 . S
C293 O303 1.268 . S
C294 O300 1.268 . S
C294 O302 1.268 . S
C295 O301 1.268 . S
C295 O304 1.268 . S
O296 Sc286 2.105 . S
O296 C290 1.268 . S
O297 Sc287 2.105 . S
O297 C291 1.268 . S
O298 Sc288 2.105 . S
O298 C292 1.268 . S
O299 Sc286 2.105 . S
O299 C293 1.268 . S
O300 Sc288 2.105 . S
O300 C294 1.268 . S
O301 Sc287 2.105 . S
O301 C295 1.268 . S
O302 Sc286 2.105 . S
O302 C294 1.268 . S
O303 Sc287 2.105 . S
O303 C293 1.268 . S
O304 Sc288 2.105 . S
O304 C295 1.268 . S
O305 Sc286 2.105 . S
O305 C291 1.268 . S
O306 Sc288 2.105 . S
O306 C290 1.268 . S
O307 Sc287 2.105 . S
O307 C292 1.268 . S
Sc308 O311 2.025 . S
Sc308 O318 2.105 . S
Sc308 O321 2.105 . S
Sc308 O324 2.105 . S
Sc308 O327 2.105 . S
Sc309 O311 2.025 . S
Sc309 O319 2.105 . S
Sc309 O323 2.105 . S
Sc309 O325 2.105 . S
Sc309 O329 2.105 . S
Sc310 O311 2.025 . S
Sc310 O320 2.105 . S
Sc310 O322 2.105 . S
Sc310 O326 2.105 . S
Sc310 O328 2.105 . S
O311 Sc308 2.025 . S
O311 Sc309 2.025 . S
O311 Sc310 2.025 . S
C312 O318 1.268 . S
C312 O328 1.268 . S
C313 O319 1.268 . S
C313 O327 1.268 . S
C314 O320 1.268 . S
C314 O329 1.268 . S
C315 O321 1.268 . S
C315 O325 1.268 . S
C316 O322 1.268 . S
C316 O324 1.268 . S
C317 O323 1.268 . S
C317 O326 1.268 . S
O318 Sc308 2.105 . S
O318 C312 1.268 . S
O319 Sc309 2.105 . S
O319 C313 1.268 . S
O320 Sc310 2.105 . S
O320 C314 1.268 . S
O321 Sc308 2.105 . S
O321 C315 1.268 . S
O322 Sc310 2.105 . S
O322 C316 1.268 . S
O323 Sc309 2.105 . S
O323 C317 1.268 . S
O324 Sc308 2.105 . S
O324 C316 1.268 . S
O325 Sc309 2.105 . S
O325 C315 1.268 . S
O326 Sc310 2.105 . S
O326 C317 1.268 . S
O327 Sc308 2.105 . S
O327 C313 1.268 . S
O328 Sc310 2.105 . S
O328 C312 1.268 . S
O329 Sc309 2.105 . S
O329 C314 1.268 . S
Sc330 O333 2.025 . S
Sc330 O340 2.105 . S
Sc330 O343 2.105 . S
Sc330 O346 2.105 . S
Sc330 O349 2.105 . S
Sc331 O333 2.025 . S
Sc331 O341 2.105 . S
Sc331 O345 2.105 . S
Sc331 O347 2.105 . S
Sc331 O351 2.105 . S
Sc332 O333 2.025 . S
Sc332 O342 2.105 . S
Sc332 O344 2.105 . S
Sc332 O348 2.105 . S
Sc332 O350 2.105 . S
O333 Sc330 2.025 . S
O333 Sc331 2.025 . S
O333 Sc332 2.025 . S
C334 O340 1.268 . S
C334 O350 1.268 . S
C335 O341 1.268 . S
C335 O349 1.268 . S
C336 O342 1.268 . S
C336 O351 1.268 . S
C337 O343 1.268 . S
C337 O347 1.268 . S
C338 O344 1.268 . S
C338 O346 1.268 . S
C339 O345 1.268 . S
C339 O348 1.268 . S
O340 Sc330 2.105 . S
O340 C334 1.268 . S
O341 Sc331 2.105 . S
O341 C335 1.268 . S
O342 Sc332 2.105 . S
O342 C336 1.268 . S
O343 Sc330 2.105 . S
O343 C337 1.268 . S
O344 Sc332 2.105 . S
O344 C338 1.268 . S
O345 Sc331 2.105 . S
O345 C339 1.268 . S
O346 Sc330 2.105 . S
O346 C338 1.268 . S
O347 Sc331 2.105 . S
O347 C337 1.268 . S
O348 Sc332 2.105 . S
O348 C339 1.268 . S
O349 Sc330 2.105 . S
O349 C335 1.268 . S
O350 Sc332 2.105 . S
O350 C334 1.268 . S
O351 Sc331 2.105 . S
O351 C336 1.268 . S
H352 C360 0.929 . S
H353 C362 0.930 . S
H354 C364 0.930 . S
H355 C367 0.929 . S
H356 C370 0.930 . S
H357 C372 0.960 . S
H358 C372 0.960 . S
H359 C372 0.960 . S
C360 H352 0.929 . S
C360 C361 1.377 . S
C360 C362 1.384 . S
C361 C360 1.377 . S
C361 C367 1.390 . S
C362 H353 0.930 . S
C362 C360 1.384 . S
C362 C363 1.372 . S
C363 C362 1.372 . S
C363 C364 1.400 . S
C363 C368 1.490 . S
C364 H354 0.930 . S
C364 C363 1.400 . S
C364 C367 1.386 . S
H365 C381 0.930 . S
H366 C382 0.931 . S
C367 H355 0.929 . S
C367 C361 1.390 . S
C367 C364 1.386 . S
C368 C363 1.490 . S
C368 C370 1.395 . S
C368 C371 1.403 . S
H369 C375 0.930 . S
C370 H356 0.930 . S
C370 C368 1.395 . S
C370 C373 1.403 . S
C371 C368 1.403 . S
C371 C372 1.524 . S
C371 C375 1.400 . S
C372 H357 0.960 . S
C372 H358 0.960 . S
C372 H359 0.960 . S
C372 C371 1.524 . S
C373 C370 1.403 . S
C373 C374 1.392 . S
C373 C377 1.495 . S
C374 C373 1.392 . S
C374 C375 1.385 . S
C374 C376 1.478 . S
C375 H369 0.930 . S
C375 C371 1.400 . S
C375 C374 1.385 . S
C376 C374 1.478 . S
C376 C378 1.381 . S
C376 C382 1.383 . S
C377 C373 1.495 . S
C377 H383 0.959 . S
C377 H384 0.961 . S
C377 H385 0.960 . S
C378 C376 1.381 . S
C378 C379 1.394 . S
C378 H386 0.930 . S
C379 C378 1.394 . S
C379 C380 1.383 . S
C379 H387 0.929 . S
C380 C379 1.383 . S
C380 C381 1.377 . S
C381 H365 0.930 . S
C381 C380 1.377 . S
C381 C382 1.379 . S
C382 H366 0.931 . S
C382 C376 1.383 . S
C382 C381 1.379 . S
H383 C377 0.959 . S
H384 C377 0.961 . S
H385 C377 0.960 . S
H386 C378 0.930 . S
H387 C379 0.929 . S
H388 C396 0.929 . S
H389 C398 0.930 . S
H390 C400 0.930 . S
H391 C403 0.929 . S
H392 C406 0.930 . S
H393 C408 0.960 . S
H394 C408 0.960 . S
H395 C408 0.960 . S
C396 H388 0.929 . S
C396 C397 1.377 . S
C396 C398 1.384 . S
C397 C396 1.377 . S
C397 C403 1.390 . S
C398 H389 0.930 . S
C398 C396 1.384 . S
C398 C399 1.372 . S
C399 C398 1.372 . S
C399 C400 1.400 . S
C399 C404 1.490 . S
C400 H390 0.930 . S
C400 C399 1.400 . S
C400 C403 1.386 . S
H401 C417 0.930 . S
H402 C418 0.931 . S
C403 H391 0.929 . S
C403 C397 1.390 . S
C403 C400 1.386 . S
C404 C399 1.490 . S
C404 C406 1.395 . S
C404 C407 1.403 . S
H405 C411 0.930 . S
C406 H392 0.930 . S
C406 C404 1.395 . S
C406 C409 1.403 . S
C407 C404 1.403 . S
C407 C408 1.524 . S
C407 C411 1.400 . S
C408 H393 0.960 . S
C408 H394 0.960 . S
C408 H395 0.960 . S
C408 C407 1.524 . S
C409 C406 1.403 . S
C409 C410 1.392 . S
C409 C413 1.495 . S
C410 C409 1.392 . S
C410 C411 1.385 . S
C410 C412 1.478 . S
C411 H405 0.930 . S
C411 C407 1.400 . S
C411 C410 1.385 . S
C412 C410 1.478 . S
C412 C414 1.381 . S
C412 C418 1.383 . S
C413 C409 1.495 . S
C413 H419 0.959 . S
C413 H420 0.961 . S
C413 H421 0.960 . S
C414 C412 1.381 . S
C414 C415 1.394 . S
C414 H422 0.930 . S
C415 C414 1.394 . S
C415 C416 1.383 . S
C415 H423 0.929 . S
C416 C415 1.383 . S
C416 C417 1.377 . S
C417 H401 0.930 . S
C417 C416 1.377 . S
C417 C418 1.379 . S
C418 H402 0.931 . S
C418 C412 1.383 . S
C418 C417 1.379 . S
H419 C413 0.959 . S
H420 C413 0.961 . S
H421 C413 0.960 . S
H422 C414 0.930 . S
H423 C415 0.929 . S
H424 C432 0.929 . S
H425 C434 0.930 . S
H426 C436 0.930 . S
H427 C439 0.929 . S
H428 C442 0.930 . S
H429 C444 0.960 . S
H430 C444 0.960 . S
H431 C444 0.960 . S
C432 H424 0.929 . S
C432 C433 1.377 . S
C432 C434 1.384 . S
C433 C432 1.377 . S
C433 C439 1.390 . S
C434 H425 0.930 . S
C434 C432 1.384 . S
C434 C435 1.372 . S
C435 C434 1.372 . S
C435 C436 1.400 . S
C435 C440 1.490 . S
C436 H426 0.930 . S
C436 C435 1.400 . S
C436 C439 1.386 . S
H437 C453 0.930 . S
H438 C454 0.931 . S
C439 H427 0.929 . S
C439 C433 1.390 . S
C439 C436 1.386 . S
C440 C435 1.490 . S
C440 C442 1.395 . S
C440 C443 1.403 . S
H441 C447 0.930 . S
C442 H428 0.930 . S
C442 C440 1.395 . S
C442 C445 1.403 . S
C443 C440 1.403 . S
C443 C444 1.524 . S
C443 C447 1.400 . S
C444 H429 0.960 . S
C444 H430 0.960 . S
C444 H431 0.960 . S
C444 C443 1.524 . S
C445 C442 1.403 . S
C445 C446 1.392 . S
C445 C449 1.495 . S
C446 C445 1.392 . S
C446 C447 1.385 . S
C446 C448 1.478 . S
C447 H441 0.930 . S
C447 C443 1.400 . S
C447 C446 1.385 . S
C448 C446 1.478 . S
C448 C450 1.381 . S
C448 C454 1.383 . S
C449 C445 1.495 . S
C449 H455 0.959 . S
C449 H456 0.961 . S
C449 H457 0.960 . S
C450 C448 1.381 . S
C450 C451 1.394 . S
C450 H458 0.930 . S
C451 C450 1.394 . S
C451 C452 1.383 . S
C451 H459 0.929 . S
C452 C451 1.383 . S
C452 C453 1.377 . S
C453 H437 0.930 . S
C453 C452 1.377 . S
C453 C454 1.379 . S
C454 H438 0.931 . S
C454 C448 1.383 . S
C454 C453 1.379 . S
H455 C449 0.959 . S
H456 C449 0.961 . S
H457 C449 0.960 . S
H458 C450 0.930 . S
H459 C451 0.929 . S
H460 C468 0.929 . S
H461 C470 0.930 . S
H462 C472 0.930 . S
H463 C475 0.929 . S
H464 C478 0.930 . S
H465 C480 0.960 . S
H466 C480 0.960 . S
H467 C480 0.960 . S
C468 H460 0.929 . S
C468 C469 1.377 . S
C468 C470 1.384 . S
C469 C468 1.377 . S
C469 C475 1.390 . S
C470 H461 0.930 . S
C470 C468 1.384 . S
C470 C471 1.372 . S
C471 C470 1.372 . S
C471 C472 1.400 . S
C471 C476 1.490 . S
C472 H462 0.930 . S
C472 C471 1.400 . S
C472 C475 1.386 . S
H473 C489 0.930 . S
H474 C490 0.931 . S
C475 H463 0.929 . S
C475 C469 1.390 . S
C475 C472 1.386 . S
C476 C471 1.490 . S
C476 C478 1.395 . S
C476 C479 1.403 . S
H477 C483 0.930 . S
C478 H464 0.930 . S
C478 C476 1.395 . S
C478 C481 1.403 . S
C479 C476 1.403 . S
C479 C480 1.524 . S
C479 C483 1.400 . S
C480 H465 0.960 . S
C480 H466 0.960 . S
C480 H467 0.960 . S
C480 C479 1.524 . S
C481 C478 1.403 . S
C481 C482 1.392 . S
C481 C485 1.495 . S
C482 C481 1.392 . S
C482 C483 1.385 . S
C482 C484 1.478 . S
C483 H477 0.930 . S
C483 C479 1.400 . S
C483 C482 1.385 . S
C484 C482 1.478 . S
C484 C486 1.381 . S
C484 C490 1.383 . S
C485 C481 1.495 . S
C485 H491 0.959 . S
C485 H492 0.961 . S
C485 H493 0.960 . S
C486 C484 1.381 . S
C486 C487 1.394 . S
C486 H494 0.930 . S
C487 C486 1.394 . S
C487 C488 1.383 . S
C487 H495 0.929 . S
C488 C487 1.383 . S
C488 C489 1.377 . S
C489 H473 0.930 . S
C489 C488 1.377 . S
C489 C490 1.379 . S
C490 H474 0.931 . S
C490 C484 1.383 . S
C490 C489 1.379 . S
H491 C485 0.959 . S
H492 C485 0.961 . S
H493 C485 0.960 . S
H494 C486 0.930 . S
H495 C487 0.929 . S
H496 C504 0.929 . S
H497 C506 0.930 . S
H498 C508 0.930 . S
H499 C511 0.929 . S
H500 C514 0.930 . S
H501 C516 0.960 . S
H502 C516 0.960 . S
H503 C516 0.960 . S
C504 H496 0.929 . S
C504 C505 1.377 . S
C504 C506 1.384 . S
C505 C504 1.377 . S
C505 C511 1.390 . S
C506 H497 0.930 . S
C506 C504 1.384 . S
C506 C507 1.372 . S
C507 C506 1.372 . S
C507 C508 1.400 . S
C507 C512 1.490 . S
C508 H498 0.930 . S
C508 C507 1.400 . S
C508 C511 1.386 . S
H509 C525 0.930 . S
H510 C526 0.931 . S
C511 H499 0.929 . S
C511 C505 1.390 . S
C511 C508 1.386 . S
C512 C507 1.490 . S
C512 C514 1.395 . S
C512 C515 1.403 . S
H513 C519 0.930 . S
C514 H500 0.930 . S
C514 C512 1.395 . S
C514 C517 1.403 . S
C515 C512 1.403 . S
C515 C516 1.524 . S
C515 C519 1.400 . S
C516 H501 0.960 . S
C516 H502 0.960 . S
C516 H503 0.960 . S
C516 C515 1.524 . S
C517 C514 1.403 . S
C517 C518 1.392 . S
C517 C521 1.495 . S
C518 C517 1.392 . S
C518 C519 1.385 . S
C518 C520 1.478 . S
C519 H513 0.930 . S
C519 C515 1.400 . S
C519 C518 1.385 . S
C520 C518 1.478 . S
C520 C522 1.381 . S
C520 C526 1.383 . S
C521 C517 1.495 . S
C521 H527 0.959 . S
C521 H528 0.961 . S
C521 H529 0.960 . S
C522 C520 1.381 . S
C522 C523 1.394 . S
C522 H530 0.930 . S
C523 C522 1.394 . S
C523 C524 1.383 . S
C523 H531 0.929 . S
C524 C523 1.383 . S
C524 C525 1.377 . S
C525 H509 0.930 . S
C525 C524 1.377 . S
C525 C526 1.379 . S
C526 H510 0.931 . S
C526 C520 1.383 . S
C526 C525 1.379 . S
H527 C521 0.959 . S
H528 C521 0.961 . S
H529 C521 0.960 . S
H530 C522 0.930 . S
H531 C523 0.929 . S
H532 C540 0.929 . S
H533 C542 0.930 . S
H534 C544 0.930 . S
H535 C547 0.929 . S
H536 C550 0.930 . S
H537 C552 0.960 . S
H538 C552 0.960 . S
H539 C552 0.960 . S
C540 H532 0.929 . S
C540 C541 1.377 . S
C540 C542 1.384 . S
C541 C540 1.377 . S
C541 C547 1.390 . S
C542 H533 0.930 . S
C542 C540 1.384 . S
C542 C543 1.372 . S
C543 C542 1.372 . S
C543 C544 1.400 . S
C543 C548 1.490 . S
C544 H534 0.930 . S
C544 C543 1.400 . S
C544 C547 1.386 . S
H545 C561 0.930 . S
H546 C562 0.931 . S
C547 H535 0.929 . S
C547 C541 1.390 . S
C547 C544 1.386 . S
C548 C543 1.490 . S
C548 C550 1.395 . S
C548 C551 1.403 . S
H549 C555 0.930 . S
C550 H536 0.930 . S
C550 C548 1.395 . S
C550 C553 1.403 . S
C551 C548 1.403 . S
C551 C552 1.524 . S
C551 C555 1.400 . S
C552 H537 0.960 . S
C552 H538 0.960 . S
C552 H539 0.960 . S
C552 C551 1.524 . S
C553 C550 1.403 . S
C553 C554 1.392 . S
C553 C557 1.495 . S
C554 C553 1.392 . S
C554 C555 1.385 . S
C554 C556 1.478 . S
C555 H549 0.930 . S
C555 C551 1.400 . S
C555 C554 1.385 . S
C556 C554 1.478 . S
C556 C558 1.381 . S
C556 C562 1.383 . S
C557 C553 1.495 . S
C557 H563 0.959 . S
C557 H564 0.961 . S
C557 H565 0.960 . S
C558 C556 1.381 . S
C558 C559 1.394 . S
C558 H566 0.930 . S
C559 C558 1.394 . S
C559 C560 1.383 . S
C559 H567 0.929 . S
C560 C559 1.383 . S
C560 C561 1.377 . S
C561 H545 0.930 . S
C561 C560 1.377 . S
C561 C562 1.379 . S
C562 H546 0.931 . S
C562 C556 1.383 . S
C562 C561 1.379 . S
H563 C557 0.959 . S
H564 C557 0.961 . S
H565 C557 0.960 . S
H566 C558 0.930 . S
H567 C559 0.929 . S
H568 C576 0.929 . S
H569 C578 0.930 . S
H570 C580 0.930 . S
H571 C583 0.929 . S
H572 C586 0.930 . S
H573 C588 0.960 . S
H574 C588 0.960 . S
H575 C588 0.960 . S
C576 H568 0.929 . S
C576 C577 1.377 . S
C576 C578 1.384 . S
C577 C576 1.377 . S
C577 C583 1.390 . S
C578 H569 0.930 . S
C578 C576 1.384 . S
C578 C579 1.372 . S
C579 C578 1.372 . S
C579 C580 1.400 . S
C579 C584 1.490 . S
C580 H570 0.930 . S
C580 C579 1.400 . S
C580 C583 1.386 . S
H581 C597 0.930 . S
H582 C598 0.931 . S
C583 H571 0.929 . S
C583 C577 1.390 . S
C583 C580 1.386 . S
C584 C579 1.490 . S
C584 C586 1.395 . S
C584 C587 1.403 . S
H585 C591 0.930 . S
C586 H572 0.930 . S
C586 C584 1.395 . S
C586 C589 1.403 . S
C587 C584 1.403 . S
C587 C588 1.524 . S
C587 C591 1.400 . S
C588 H573 0.960 . S
C588 H574 0.960 . S
C588 H575 0.960 . S
C588 C587 1.524 . S
C589 C586 1.403 . S
C589 C590 1.392 . S
C589 C593 1.495 . S
C590 C589 1.392 . S
C590 C591 1.385 . S
C590 C592 1.478 . S
C591 H585 0.930 . S
C591 C587 1.400 . S
C591 C590 1.385 . S
C592 C590 1.478 . S
C592 C594 1.381 . S
C592 C598 1.383 . S
C593 C589 1.495 . S
C593 H599 0.959 . S
C593 H600 0.961 . S
C593 H601 0.960 . S
C594 C592 1.381 . S
C594 C595 1.394 . S
C594 H602 0.930 . S
C595 C594 1.394 . S
C595 C596 1.383 . S
C595 H603 0.929 . S
C596 C595 1.383 . S
C596 C597 1.377 . S
C597 H581 0.930 . S
C597 C596 1.377 . S
C597 C598 1.379 . S
C598 H582 0.931 . S
C598 C592 1.383 . S
C598 C597 1.379 . S
H599 C593 0.959 . S
H600 C593 0.961 . S
H601 C593 0.960 . S
H602 C594 0.930 . S
H603 C595 0.929 . S
H604 C612 0.929 . S
H605 C614 0.930 . S
H606 C616 0.930 . S
H607 C619 0.929 . S
H608 C622 0.930 . S
H609 C624 0.960 . S
H610 C624 0.960 . S
H611 C624 0.960 . S
C612 H604 0.929 . S
C612 C613 1.377 . S
C612 C614 1.384 . S
C613 C612 1.377 . S
C613 C619 1.390 . S
C614 H605 0.930 . S
C614 C612 1.384 . S
C614 C615 1.372 . S
C615 C614 1.372 . S
C615 C616 1.400 . S
C615 C620 1.490 . S
C616 H606 0.930 . S
C616 C615 1.400 . S
C616 C619 1.386 . S
H617 C633 0.930 . S
H618 C634 0.931 . S
C619 H607 0.929 . S
C619 C613 1.390 . S
C619 C616 1.386 . S
C620 C615 1.490 . S
C620 C622 1.395 . S
C620 C623 1.403 . S
H621 C627 0.930 . S
C622 H608 0.930 . S
C622 C620 1.395 . S
C622 C625 1.403 . S
C623 C620 1.403 . S
C623 C624 1.524 . S
C623 C627 1.400 . S
C624 H609 0.960 . S
C624 H610 0.960 . S
C624 H611 0.960 . S
C624 C623 1.524 . S
C625 C622 1.403 . S
C625 C626 1.392 . S
C625 C629 1.495 . S
C626 C625 1.392 . S
C626 C627 1.385 . S
C626 C628 1.478 . S
C627 H621 0.930 . S
C627 C623 1.400 . S
C627 C626 1.385 . S
C628 C626 1.478 . S
C628 C630 1.381 . S
C628 C634 1.383 . S
C629 C625 1.495 . S
C629 H635 0.959 . S
C629 H636 0.961 . S
C629 H637 0.960 . S
C630 C628 1.381 . S
C630 C631 1.394 . S
C630 H638 0.930 . S
C631 C630 1.394 . S
C631 C632 1.383 . S
C631 H639 0.929 . S
C632 C631 1.383 . S
C632 C633 1.377 . S
C633 H617 0.930 . S
C633 C632 1.377 . S
C633 C634 1.379 . S
C634 H618 0.931 . S
C634 C628 1.383 . S
C634 C633 1.379 . S
H635 C629 0.959 . S
H636 C629 0.961 . S
H637 C629 0.960 . S
H638 C630 0.930 . S
H639 C631 0.929 . S
H640 C648 0.929 . S
H641 C650 0.930 . S
H642 C652 0.930 . S
H643 C655 0.929 . S
H644 C658 0.930 . S
H645 C660 0.960 . S
H646 C660 0.960 . S
H647 C660 0.960 . S
C648 H640 0.929 . S
C648 C649 1.377 . S
C648 C650 1.384 . S
C649 C648 1.377 . S
C649 C655 1.390 . S
C650 H641 0.930 . S
C650 C648 1.384 . S
C650 C651 1.372 . S
C651 C650 1.372 . S
C651 C652 1.400 . S
C651 C656 1.490 . S
C652 H642 0.930 . S
C652 C651 1.400 . S
C652 C655 1.386 . S
H653 C669 0.930 . S
H654 C670 0.931 . S
C655 H643 0.929 . S
C655 C649 1.390 . S
C655 C652 1.386 . S
C656 C651 1.490 . S
C656 C658 1.395 . S
C656 C659 1.403 . S
H657 C663 0.930 . S
C658 H644 0.930 . S
C658 C656 1.395 . S
C658 C661 1.403 . S
C659 C656 1.403 . S
C659 C660 1.524 . S
C659 C663 1.400 . S
C660 H645 0.960 . S
C660 H646 0.960 . S
C660 H647 0.960 . S
C660 C659 1.524 . S
C661 C658 1.403 . S
C661 C662 1.392 . S
C661 C665 1.495 . S
C662 C661 1.392 . S
C662 C663 1.385 . S
C662 C664 1.478 . S
C663 H657 0.930 . S
C663 C659 1.400 . S
C663 C662 1.385 . S
C664 C662 1.478 . S
C664 C666 1.381 . S
C664 C670 1.383 . S
C665 C661 1.495 . S
C665 H671 0.959 . S
C665 H672 0.961 . S
C665 H673 0.960 . S
C666 C664 1.381 . S
C666 C667 1.394 . S
C666 H674 0.930 . S
C667 C666 1.394 . S
C667 C668 1.383 . S
C667 H675 0.929 . S
C668 C667 1.383 . S
C668 C669 1.377 . S
C669 H653 0.930 . S
C669 C668 1.377 . S
C669 C670 1.379 . S
C670 H654 0.931 . S
C670 C664 1.383 . S
C670 C669 1.379 . S
H671 C665 0.959 . S
H672 C665 0.961 . S
H673 C665 0.960 . S
H674 C666 0.930 . S
H675 C667 0.929 . S
H676 C684 0.929 . S
H677 C686 0.930 . S
H678 C688 0.930 . S
H679 C691 0.929 . S
H680 C694 0.930 . S
H681 C696 0.960 . S
H682 C696 0.960 . S
H683 C696 0.960 . S
C684 H676 0.929 . S
C684 C685 1.377 . S
C684 C686 1.384 . S
C685 C684 1.377 . S
C685 C691 1.390 . S
C686 H677 0.930 . S
C686 C684 1.384 . S
C686 C687 1.372 . S
C687 C686 1.372 . S
C687 C688 1.400 . S
C687 C692 1.490 . S
C688 H678 0.930 . S
C688 C687 1.400 . S
C688 C691 1.386 . S
H689 C705 0.930 . S
H690 C706 0.931 . S
C691 H679 0.929 . S
C691 C685 1.390 . S
C691 C688 1.386 . S
C692 C687 1.490 . S
C692 C694 1.395 . S
C692 C695 1.403 . S
H693 C699 0.930 . S
C694 H680 0.930 . S
C694 C692 1.395 . S
C694 C697 1.403 . S
C695 C692 1.403 . S
C695 C696 1.524 . S
C695 C699 1.400 . S
C696 H681 0.960 . S
C696 H682 0.960 . S
C696 H683 0.960 . S
C696 C695 1.524 . S
C697 C694 1.403 . S
C697 C698 1.392 . S
C697 C701 1.495 . S
C698 C697 1.392 . S
C698 C699 1.385 . S
C698 C700 1.478 . S
C699 H693 0.930 . S
C699 C695 1.400 . S
C699 C698 1.385 . S
C700 C698 1.478 . S
C700 C702 1.381 . S
C700 C706 1.383 . S
C701 C697 1.495 . S
C701 H707 0.959 . S
C701 H708 0.961 . S
C701 H709 0.960 . S
C702 C700 1.381 . S
C702 C703 1.394 . S
C702 H710 0.930 . S
C703 C702 1.394 . S
C703 C704 1.383 . S
C703 H711 0.929 . S
C704 C703 1.383 . S
C704 C705 1.377 . S
C705 H689 0.930 . S
C705 C704 1.377 . S
C705 C706 1.379 . S
C706 H690 0.931 . S
C706 C700 1.383 . S
C706 C705 1.379 . S
H707 C701 0.959 . S
H708 C701 0.961 . S
H709 C701 0.960 . S
H710 C702 0.930 . S
H711 C703 0.929 . S
H712 C720 0.929 1_655 S
H713 C722 0.930 . S
H714 C724 0.930 . S
H715 C727 0.929 . S
H716 C730 0.930 . S
H717 C732 0.960 . S
H718 C732 0.960 . S
H719 C732 0.960 . S
C720 H712 0.929 1_455 S
C720 C721 1.377 . S
C720 C722 1.384 . S
C721 C720 1.377 . S
C721 C727 1.390 . S
C722 H713 0.930 . S
C722 C720 1.384 . S
C722 C723 1.372 . S
C723 C722 1.372 . S
C723 C724 1.400 . S
C723 C728 1.490 . S
C724 H714 0.930 . S
C724 C723 1.400 . S
C724 C727 1.386 . S
H725 C741 0.930 . S
H726 C742 0.931 . S
C727 H715 0.929 . S
C727 C721 1.390 . S
C727 C724 1.386 . S
C728 C723 1.490 . S
C728 C730 1.395 . S
C728 C731 1.403 . S
H729 C735 0.930 . S
C730 H716 0.930 . S
C730 C728 1.395 . S
C730 C733 1.403 . S
C731 C728 1.403 . S
C731 C732 1.524 . S
C731 C735 1.400 . S
C732 H717 0.960 . S
C732 H718 0.960 . S
C732 H719 0.960 . S
C732 C731 1.524 . S
C733 C730 1.403 . S
C733 C734 1.392 . S
C733 C737 1.495 . S
C734 C733 1.392 . S
C734 C735 1.385 . S
C734 C736 1.478 . S
C735 H729 0.930 . S
C735 C731 1.400 . S
C735 C734 1.385 . S
C736 C734 1.478 . S
C736 C738 1.381 . S
C736 C742 1.383 . S
C737 C733 1.495 . S
C737 H743 0.959 . S
C737 H744 0.961 . S
C737 H745 0.960 . S
C738 C736 1.381 . S
C738 C739 1.394 . S
C738 H746 0.930 . S
C739 C738 1.394 . S
C739 C740 1.383 . S
C739 H747 0.929 . S
C740 C739 1.383 . S
C740 C741 1.377 . S
C741 H725 0.930 . S
C741 C740 1.377 . S
C741 C742 1.379 . S
C742 H726 0.931 . S
C742 C736 1.383 . S
C742 C741 1.379 . S
H743 C737 0.959 . S
H744 C737 0.961 . S
H745 C737 0.960 . S
H746 C738 0.930 . S
H747 C739 0.929 . S
H748 C756 0.929 1_565 S
H749 C758 0.930 . S
H750 C760 0.930 . S
H751 C763 0.929 . S
H752 C766 0.930 . S
H753 C768 0.960 . S
H754 C768 0.960 . S
H755 C768 0.960 . S
C756 H748 0.929 1_545 S
C756 C757 1.377 . S
C756 C758 1.384 . S
C757 C756 1.377 . S
C757 C763 1.390 . S
C758 H749 0.930 . S
C758 C756 1.384 . S
C758 C759 1.372 . S
C759 C758 1.372 . S
C759 C760 1.400 . S
C759 C764 1.490 . S
C760 H750 0.930 . S
C760 C759 1.400 . S
C760 C763 1.386 . S
H761 C777 0.930 . S
H762 C778 0.931 . S
C763 H751 0.929 . S
C763 C757 1.390 . S
C763 C760 1.386 . S
C764 C759 1.490 . S
C764 C766 1.395 . S
C764 C767 1.403 . S
H765 C771 0.930 . S
C766 H752 0.930 . S
C766 C764 1.395 . S
C766 C769 1.403 . S
C767 C764 1.403 . S
C767 C768 1.524 . S
C767 C771 1.400 . S
C768 H753 0.960 . S
C768 H754 0.960 . S
C768 H755 0.960 . S
C768 C767 1.524 . S
C769 C766 1.403 . S
C769 C770 1.392 . S
C769 C773 1.495 . S
C770 C769 1.392 . S
C770 C771 1.385 . S
C770 C772 1.478 . S
C771 H765 0.930 . S
C771 C767 1.400 . S
C771 C770 1.385 . S
C772 C770 1.478 . S
C772 C774 1.381 . S
C772 C778 1.383 . S
C773 C769 1.495 . S
C773 H779 0.959 . S
C773 H780 0.961 . S
C773 H781 0.960 . S
C774 C772 1.381 . S
C774 C775 1.375 1_455 S
C774 H782 0.930 . S
C775 C774 1.375 1_655 S
C775 C776 1.371 1_655 S
C775 H783 0.961 . S
C776 C775 1.371 1_455 S
C776 C777 1.377 . S
C777 H761 0.930 . S
C777 C776 1.377 . S
C777 C778 1.379 . S
C778 H762 0.931 . S
C778 C772 1.383 . S
C778 C777 1.379 . S
H779 C773 0.959 . S
H780 C773 0.961 . S
H781 C773 0.960 . S
H782 C774 0.930 . S
H783 C775 0.961 . S
H784 C792 0.929 . S
H785 C794 0.930 . S
H786 C796 0.930 . S
H787 C799 0.929 1_455 S
H788 C802 0.930 . S
H789 C804 0.960 . S
H790 C804 0.960 . S
H791 C804 0.960 . S
C792 H784 0.929 . S
C792 C793 1.377 . S
C792 C794 1.384 . S
C793 C792 1.377 . S
C793 C799 1.390 . S
C794 H785 0.930 . S
C794 C792 1.384 . S
C794 C795 1.372 . S
C795 C794 1.372 . S
C795 C796 1.400 . S
C795 C800 1.490 . S
C796 H786 0.930 . S
C796 C795 1.400 . S
C796 C799 1.386 . S
H797 C813 0.930 1_545 S
H798 C814 0.931 . S
C799 H787 0.929 1_655 S
C799 C793 1.390 . S
C799 C796 1.386 . S
C800 C795 1.490 . S
C800 C802 1.395 . S
C800 C803 1.403 . S
H801 C807 0.930 . S
C802 H788 0.930 . S
C802 C800 1.395 . S
C802 C805 1.403 . S
C803 C800 1.403 . S
C803 C804 1.524 . S
C803 C807 1.400 . S
C804 H789 0.960 . S
C804 H790 0.960 . S
C804 H791 0.960 . S
C804 C803 1.524 . S
C805 C802 1.403 . S
C805 C806 1.392 . S
C805 C809 1.495 . S
C806 C805 1.392 . S
C806 C807 1.385 . S
C806 C808 1.478 . S
C807 H801 0.930 . S
C807 C803 1.400 . S
C807 C806 1.385 . S
C808 C806 1.478 . S
C808 C810 1.381 . S
C808 C814 1.383 . S
C809 C805 1.495 . S
C809 H815 0.959 . S
C809 H816 0.961 . S
C809 H817 0.960 . S
C810 C808 1.381 . S
C810 C811 1.394 . S
C810 H818 0.930 . S
C811 C810 1.394 . S
C811 C812 1.383 . S
C811 H819 0.929 . S
C812 C811 1.383 . S
C812 C813 1.377 . S
C813 H797 0.930 1_565 S
C813 C812 1.377 . S
C813 C814 1.379 . S
C814 H798 0.931 . S
C814 C808 1.383 . S
C814 C813 1.379 . S
H815 C809 0.959 . S
H816 C809 0.961 . S
H817 C809 0.960 . S
H818 C810 0.930 . S
H819 C811 0.929 . S
H820 C828 0.929 . S
H821 C830 0.930 . S
H822 C832 0.930 . S
H823 C835 0.929 . S
H824 C838 0.930 . S
H825 C840 0.960 . S
H826 C840 0.960 . S
H827 C840 0.960 . S
C828 H820 0.929 . S
C828 C829 1.377 . S
C828 C830 1.384 . S
C829 C828 1.377 . S
C829 C835 1.390 . S
C830 H821 0.930 . S
C830 C828 1.384 . S
C830 C831 1.372 . S
C831 C830 1.372 . S
C831 C832 1.400 . S
C831 C836 1.490 . S
C832 H822 0.930 . S
C832 C831 1.400 . S
C832 C835 1.386 . S
H833 C849 0.930 . S
H834 C850 0.931 . S
C835 H823 0.929 . S
C835 C829 1.390 . S
C835 C832 1.386 . S
C836 C831 1.490 . S
C836 C838 1.395 . S
C836 C839 1.403 . S
H837 C843 0.930 . S
C838 H824 0.930 . S
C838 C836 1.395 . S
C838 C841 1.403 . S
C839 C836 1.403 . S
C839 C840 1.524 . S
C839 C843 1.400 . S
C840 H825 0.960 . S
C840 H826 0.960 . S
C840 H827 0.960 . S
C840 C839 1.524 . S
C841 C838 1.403 . S
C841 C842 1.392 . S
C841 C845 1.495 . S
C842 C841 1.392 . S
C842 C843 1.385 . S
C842 C844 1.478 . S
C843 H837 0.930 . S
C843 C839 1.400 . S
C843 C842 1.385 . S
C844 C842 1.478 . S
C844 C846 1.381 . S
C844 C850 1.383 . S
C845 C841 1.495 . S
C845 H851 0.959 . S
C845 H852 0.961 . S
C845 H853 0.960 . S
C846 C844 1.381 . S
C846 C847 1.394 . S
C846 H854 0.930 . S
C847 C846 1.394 . S
C847 C848 1.383 . S
C847 H855 0.929 . S
C848 C847 1.383 . S
C848 C849 1.377 . S
C849 H833 0.930 . S
C849 C848 1.377 . S
C849 C850 1.379 . S
C850 H834 0.931 . S
C850 C844 1.383 . S
C850 C849 1.379 . S
H851 C845 0.959 . S
H852 C845 0.961 . S
H853 C845 0.960 . S
H854 C846 0.930 . S
H855 C847 0.929 . S
H856 C864 0.929 . S
H857 C866 0.930 . S
H858 C868 0.930 . S
H859 C871 0.929 . S
H860 C874 0.930 . S
H861 C876 0.960 . S
H862 C876 0.960 . S
H863 C876 0.960 . S
C864 H856 0.929 . S
C864 C865 1.377 . S
C864 C866 1.384 . S
C865 C864 1.377 . S
C865 C871 1.390 . S
C866 H857 0.930 . S
C866 C864 1.384 . S
C866 C867 1.372 . S
C867 C866 1.372 . S
C867 C868 1.400 . S
C867 C872 1.490 . S
C868 H858 0.930 . S
C868 C867 1.400 . S
C868 C871 1.386 . S
H869 C885 0.930 . S
H870 C886 0.931 . S
C871 H859 0.929 . S
C871 C865 1.390 . S
C871 C868 1.386 . S
C872 C867 1.490 . S
C872 C874 1.395 . S
C872 C875 1.403 . S
H873 C879 0.930 . S
C874 H860 0.930 . S
C874 C872 1.395 . S
C874 C877 1.403 . S
C875 C872 1.403 . S
C875 C876 1.524 . S
C875 C879 1.400 . S
C876 H861 0.960 . S
C876 H862 0.960 . S
C876 H863 0.960 . S
C876 C875 1.524 . S
C877 C874 1.403 . S
C877 C878 1.392 . S
C877 C881 1.495 . S
C878 C877 1.392 . S
C878 C879 1.385 . S
C878 C880 1.478 . S
C879 H873 0.930 . S
C879 C875 1.400 . S
C879 C878 1.385 . S
C880 C878 1.478 . S
C880 C882 1.381 . S
C880 C886 1.383 . S
C881 C877 1.495 . S
C881 H887 0.959 . S
C881 H888 0.961 . S
C881 H889 0.960 . S
C882 C880 1.381 . S
C882 C883 1.394 . S
C882 H890 0.930 . S
C883 C882 1.394 . S
C883 C884 1.383 . S
C883 H891 0.929 . S
C884 C883 1.383 . S
C884 C885 1.377 . S
C885 H869 0.930 . S
C885 C884 1.377 . S
C885 C886 1.379 . S
C886 H870 0.931 . S
C886 C880 1.383 . S
C886 C885 1.379 . S
H887 C881 0.959 . S
H888 C881 0.961 . S
H889 C881 0.960 . S
H890 C882 0.930 . S
H891 C883 0.929 . S
H892 C900 0.929 . S
H893 C902 0.930 . S
H894 C904 0.930 . S
H895 C907 0.929 1_455 S
H896 C910 0.930 . S
H897 C912 0.960 . S
H898 C912 0.960 . S
H899 C912 0.960 . S
C900 H892 0.929 . S
C900 C901 1.377 . S
C900 C902 1.384 . S
C901 C900 1.377 . S
C901 C907 1.390 . S
C902 H893 0.930 . S
C902 C900 1.384 . S
C902 C903 1.372 . S
C903 C902 1.372 . S
C903 C904 1.400 . S
C903 C908 1.490 . S
C904 H894 0.930 . S
C904 C903 1.400 . S
C904 C907 1.386 . S
H905 C921 0.930 . S
H906 C922 0.931 . S
C907 H895 0.929 1_655 S
C907 C901 1.390 . S
C907 C904 1.386 . S
C908 C903 1.490 . S
C908 C910 1.395 . S
C908 C911 1.403 . S
H909 C915 0.930 . S
C910 H896 0.930 . S
C910 C908 1.395 . S
C910 C913 1.403 . S
C911 C908 1.403 . S
C911 C912 1.524 . S
C911 C915 1.400 . S
C912 H897 0.960 . S
C912 H898 0.960 . S
C912 H899 0.960 . S
C912 C911 1.524 . S
C913 C910 1.403 . S
C913 C914 1.392 . S
C913 C917 1.495 . S
C914 C913 1.392 . S
C914 C915 1.385 . S
C914 C916 1.478 . S
C915 H909 0.930 . S
C915 C911 1.400 . S
C915 C914 1.385 . S
C916 C914 1.478 . S
C916 C918 1.381 . S
C916 C922 1.383 . S
C917 C913 1.495 . S
C917 H923 0.959 . S
C917 H924 0.961 . S
C917 H925 0.960 . S
C918 C916 1.381 . S
C918 C919 1.394 . S
C918 H926 0.930 . S
C919 C918 1.394 . S
C919 C920 1.383 . S
C919 H927 0.929 . S
C920 C919 1.383 . S
C920 C921 1.377 . S
C921 H905 0.930 . S
C921 C920 1.377 . S
C921 C922 1.379 . S
C922 H906 0.931 . S
C922 C916 1.383 . S
C922 C921 1.379 . S
H923 C917 0.959 . S
H924 C917 0.961 . S
H925 C917 0.960 . S
H926 C918 0.930 . S
H927 C919 0.929 . S
H928 C936 0.929 . S
H929 C938 0.930 . S
H930 C940 0.930 . S
H931 C943 0.929 . S
H932 C946 0.930 . S
H933 C948 0.960 . S
H934 C948 0.960 . S
H935 C948 0.960 . S
C936 H928 0.929 . S
C936 C937 1.377 1_545 S
C936 C938 1.384 1_545 S
C937 C936 1.377 1_565 S
C937 C943 1.390 . S
C938 H929 0.930 . S
C938 C936 1.384 1_565 S
C938 C939 1.372 . S
C939 C938 1.372 . S
C939 C940 1.400 . S
C939 C944 1.490 . S
C940 H930 0.930 . S
C940 C939 1.400 . S
C940 C943 1.386 . S
H941 C957 0.930 . S
H942 C958 0.931 . S
C943 H931 0.929 . S
C943 C937 1.390 . S
C943 C940 1.386 . S
C944 C939 1.490 . S
C944 C946 1.395 . S
C944 C947 1.403 . S
H945 C951 0.930 . S
C946 H932 0.930 . S
C946 C944 1.395 . S
C946 C949 1.403 . S
C947 C944 1.403 . S
C947 C948 1.524 . S
C947 C951 1.400 . S
C948 H933 0.960 . S
C948 H934 0.960 . S
C948 H935 0.960 . S
C948 C947 1.524 . S
C949 C946 1.403 . S
C949 C950 1.392 . S
C949 C953 1.495 . S
C950 C949 1.392 . S
C950 C951 1.385 . S
C950 C952 1.478 . S
C951 H945 0.930 . S
C951 C947 1.400 . S
C951 C950 1.385 . S
C952 C950 1.478 . S
C952 C954 1.381 . S
C952 C958 1.383 . S
C953 C949 1.495 . S
C953 H959 0.959 . S
C953 H960 0.961 . S
C953 H961 0.960 . S
C954 C952 1.381 . S
C954 C955 1.394 . S
C954 H962 0.930 . S
C955 C954 1.394 . S
C955 C956 1.383 . S
C955 H963 0.929 . S
C956 C955 1.383 . S
C956 C957 1.377 . S
C957 H941 0.930 . S
C957 C956 1.377 . S
C957 C958 1.379 . S
C958 H942 0.931 . S
C958 C952 1.383 . S
C958 C957 1.379 . S
H959 C953 0.959 . S
H960 C953 0.961 . S
H961 C953 0.960 . S
H962 C954 0.930 . S
H963 C955 0.929 . S
H964 C972 0.929 . S
H965 C974 0.930 . S
H966 C976 0.930 . S
H967 C979 0.929 . S
H968 C982 0.930 . S
H969 C984 0.960 . S
H970 C984 0.960 . S
H971 C984 0.960 . S
C972 H964 0.929 . S
C972 C973 1.377 . S
C972 C974 1.384 . S
C973 C972 1.377 . S
C973 C979 1.390 . S
C974 H965 0.930 . S
C974 C972 1.384 . S
C974 C975 1.372 . S
C975 C974 1.372 . S
C975 C976 1.400 . S
C975 C980 1.490 . S
C976 H966 0.930 . S
C976 C975 1.400 . S
C976 C979 1.386 . S
H977 C993 0.930 . S
H978 C994 0.931 . S
C979 H967 0.929 . S
C979 C973 1.390 . S
C979 C976 1.386 . S
C980 C975 1.490 . S
C980 C982 1.395 . S
C980 C983 1.403 . S
H981 C987 0.930 . S
C982 H968 0.930 . S
C982 C980 1.395 . S
C982 C985 1.403 . S
C983 C980 1.403 . S
C983 C984 1.524 . S
C983 C987 1.400 . S
C984 H969 0.960 . S
C984 H970 0.960 . S
C984 H971 0.960 . S
C984 C983 1.524 . S
C985 C982 1.403 . S
C985 C986 1.392 . S
C985 C989 1.495 . S
C986 C985 1.392 . S
C986 C987 1.385 . S
C986 C988 1.478 . S
C987 H981 0.930 . S
C987 C983 1.400 . S
C987 C986 1.385 . S
C988 C986 1.478 . S
C988 C990 1.381 . S
C988 C994 1.383 . S
C989 C985 1.495 . S
C989 H995 0.959 . S
C989 H996 0.961 . S
C989 H997 0.960 . S
C990 C988 1.381 . S
C990 C991 1.394 . S
C990 H998 0.930 . S
C991 C990 1.394 . S
C991 C992 1.383 . S
C991 H999 0.929 . S
C992 C991 1.383 . S
C992 C993 1.377 . S
C993 H977 0.930 . S
C993 C992 1.377 . S
C993 C994 1.379 . S
C994 H978 0.931 . S
C994 C988 1.383 . S
C994 C993 1.379 . S
H995 C989 0.959 . S
H996 C989 0.961 . S
H997 C989 0.960 . S
H998 C990 0.930 . S
H999 C991 0.929 . S
H1000 C1008 0.929 . S
H1001 C1010 0.930 . S
H1002 C1012 0.930 . S
H1003 C1015 0.929 . S
H1004 C1018 0.930 . S
H1005 C1020 0.960 . S
H1006 C1020 0.960 . S
H1007 C1020 0.960 . S
C1008 H1000 0.929 . S
C1008 C1009 1.377 . S
C1008 C1010 1.384 . S
C1009 C1008 1.377 . S
C1009 C1015 1.390 . S
C1010 H1001 0.930 . S
C1010 C1008 1.384 . S
C1010 C1011 1.372 . S
C1011 C1010 1.372 . S
C1011 C1012 1.400 . S
C1011 C1016 1.490 . S
C1012 H1002 0.930 . S
C1012 C1011 1.400 . S
C1012 C1015 1.386 . S
H1013 C1029 0.930 . S
H1014 C1030 0.931 . S
C1015 H1003 0.929 . S
C1015 C1009 1.390 . S
C1015 C1012 1.386 . S
C1016 C1011 1.490 . S
C1016 C1018 1.395 . S
C1016 C1019 1.403 . S
H1017 C1023 0.930 . S
C1018 H1004 0.930 . S
C1018 C1016 1.395 . S
C1018 C1021 1.403 . S
C1019 C1016 1.403 . S
C1019 C1020 1.524 . S
C1019 C1023 1.400 . S
C1020 H1005 0.960 . S
C1020 H1006 0.960 . S
C1020 H1007 0.960 . S
C1020 C1019 1.524 . S
C1021 C1018 1.403 . S
C1021 C1022 1.392 . S
C1021 C1025 1.495 . S
C1022 C1021 1.392 . S
C1022 C1023 1.385 . S
C1022 C1024 1.478 . S
C1023 H1017 0.930 . S
C1023 C1019 1.400 . S
C1023 C1022 1.385 . S
C1024 C1022 1.478 . S
C1024 C1026 1.381 . S
C1024 C1030 1.383 . S
C1025 C1021 1.495 . S
C1025 H1031 0.959 . S
C1025 H1032 0.961 . S
C1025 H1033 0.960 . S
C1026 C1024 1.381 . S
C1026 C1027 1.394 . S
C1026 H1034 0.930 . S
C1027 C1026 1.394 . S
C1027 C1028 1.383 . S
C1027 H1035 0.929 . S
C1028 C1027 1.383 . S
C1028 C1029 1.377 . S
C1029 H1013 0.930 . S
C1029 C1028 1.377 . S
C1029 C1030 1.379 . S
C1030 H1014 0.931 . S
C1030 C1024 1.383 . S
C1030 C1029 1.379 . S
H1031 C1025 0.959 . S
H1032 C1025 0.961 . S
H1033 C1025 0.960 . S
H1034 C1026 0.930 . S
H1035 C1027 0.929 . S
H1036 C1044 0.929 . S
H1037 C1046 0.930 . S
H1038 C1048 0.930 . S
H1039 C1051 0.929 . S
H1040 C1054 0.930 . S
H1041 C1056 0.960 . S
H1042 C1056 0.960 . S
H1043 C1056 0.960 . S
C1044 H1036 0.929 . S
C1044 C1045 1.377 . S
C1044 C1046 1.384 . S
C1045 C1044 1.377 . S
C1045 C1051 1.390 . S
C1046 H1037 0.930 . S
C1046 C1044 1.384 . S
C1046 C1047 1.372 . S
C1047 C1046 1.372 . S
C1047 C1048 1.400 . S
C1047 C1052 1.490 . S
C1048 H1038 0.930 . S
C1048 C1047 1.400 . S
C1048 C1051 1.386 . S
H1049 C1065 0.930 . S
H1050 C1066 0.931 . S
C1051 H1039 0.929 . S
C1051 C1045 1.390 . S
C1051 C1048 1.386 . S
C1052 C1047 1.490 . S
C1052 C1054 1.395 . S
C1052 C1055 1.403 . S
H1053 C1059 0.930 . S
C1054 H1040 0.930 . S
C1054 C1052 1.395 . S
C1054 C1057 1.403 . S
C1055 C1052 1.403 . S
C1055 C1056 1.524 . S
C1055 C1059 1.400 . S
C1056 H1041 0.960 . S
C1056 H1042 0.960 . S
C1056 H1043 0.960 . S
C1056 C1055 1.524 . S
C1057 C1054 1.403 . S
C1057 C1058 1.392 . S
C1057 C1061 1.495 . S
C1058 C1057 1.392 . S
C1058 C1059 1.385 . S
C1058 C1060 1.478 . S
C1059 H1053 0.930 . S
C1059 C1055 1.400 . S
C1059 C1058 1.385 . S
C1060 C1058 1.478 . S
C1060 C1062 1.381 . S
C1060 C1066 1.383 . S
C1061 C1057 1.495 . S
C1061 H1067 0.959 . S
C1061 H1068 0.961 . S
C1061 H1069 0.960 . S
C1062 C1060 1.381 . S
C1062 C1063 1.394 . S
C1062 H1070 0.930 . S
C1063 C1062 1.394 . S
C1063 C1064 1.383 . S
C1063 H1071 0.929 . S
C1064 C1063 1.383 . S
C1064 C1065 1.377 . S
C1065 H1049 0.930 . S
C1065 C1064 1.377 . S
C1065 C1066 1.379 . S
C1066 H1050 0.931 . S
C1066 C1060 1.383 . S
C1066 C1065 1.379 . S
H1067 C1061 0.959 . S
H1068 C1061 0.961 . S
H1069 C1061 0.960 . S
H1070 C1062 0.930 . S
H1071 C1063 0.929 . S
H1072 C1080 0.929 . S
H1073 C1082 0.930 . S
H1074 C1084 0.930 . S
H1075 C1087 0.929 . S
H1076 C1090 0.930 . S
H1077 C1092 0.960 . S
H1078 C1092 0.960 . S
H1079 C1092 0.960 . S
C1080 H1072 0.929 . S
C1080 C1081 1.377 . S
C1080 C1082 1.384 . S
C1081 C1080 1.377 . S
C1081 C1087 1.390 . S
C1082 H1073 0.930 . S
C1082 C1080 1.384 . S
C1082 C1083 1.372 . S
C1083 C1082 1.372 . S
C1083 C1084 1.400 . S
C1083 C1088 1.490 . S
C1084 H1074 0.930 . S
C1084 C1083 1.400 . S
C1084 C1087 1.386 . S
H1085 C1101 0.930 1_565 S
H1086 C1102 0.931 . S
C1087 H1075 0.929 . S
C1087 C1081 1.390 . S
C1087 C1084 1.386 . S
C1088 C1083 1.490 . S
C1088 C1090 1.395 . S
C1088 C1091 1.403 . S
H1089 C1095 0.930 . S
C1090 H1076 0.930 . S
C1090 C1088 1.395 . S
C1090 C1093 1.403 . S
C1091 C1088 1.403 . S
C1091 C1092 1.524 . S
C1091 C1095 1.400 . S
C1092 H1077 0.960 . S
C1092 H1078 0.960 . S
C1092 H1079 0.960 . S
C1092 C1091 1.524 . S
C1093 C1090 1.403 . S
C1093 C1094 1.392 . S
C1093 C1097 1.495 . S
C1094 C1093 1.392 . S
C1094 C1095 1.385 . S
C1094 C1096 1.478 . S
C1095 H1089 0.930 . S
C1095 C1091 1.400 . S
C1095 C1094 1.385 . S
C1096 C1094 1.478 . S
C1096 C1098 1.381 . S
C1096 C1102 1.383 . S
C1097 C1093 1.495 . S
C1097 H1103 0.959 . S
C1097 H1104 0.961 . S
C1097 H1105 0.960 . S
C1098 C1096 1.381 . S
C1098 C1099 1.394 . S
C1098 H1106 0.930 . S
C1099 C1098 1.394 . S
C1099 C1100 1.383 . S
C1099 H1107 0.929 . S
C1100 C1099 1.383 . S
C1100 C1101 1.377 . S
C1101 H1085 0.930 1_545 S
C1101 C1100 1.377 . S
C1101 C1102 1.379 . S
C1102 H1086 0.931 . S
C1102 C1096 1.383 . S
C1102 C1101 1.379 . S
H1103 C1097 0.959 . S
H1104 C1097 0.961 . S
H1105 C1097 0.960 . S
H1106 C1098 0.930 . S
H1107 C1099 0.929 . S
H1108 C1116 0.929 . S
H1109 C1118 0.930 . S
H1110 C1120 0.930 . S
H1111 C1123 0.929 1_565 S
H1112 C1126 0.930 . S
H1113 C1128 0.960 . S
H1114 C1128 0.960 . S
H1115 C1128 0.960 . S
C1116 H1108 0.929 . S
C1116 C1117 1.377 . S
C1116 C1118 1.384 . S
C1117 C1116 1.377 . S
C1117 C1123 1.390 . S
C1118 H1109 0.930 . S
C1118 C1116 1.384 . S
C1118 C1119 1.372 . S
C1119 C1118 1.372 . S
C1119 C1120 1.400 . S
C1119 C1124 1.490 . S
C1120 H1110 0.930 . S
C1120 C1119 1.400 . S
C1120 C1123 1.386 . S
H1121 C1137 0.930 . S
H1122 C1138 0.931 . S
C1123 H1111 0.929 1_545 S
C1123 C1117 1.390 . S
C1123 C1120 1.386 . S
C1124 C1119 1.490 . S
C1124 C1126 1.395 . S
C1124 C1127 1.403 . S
H1125 C1131 0.930 . S
C1126 H1112 0.930 . S
C1126 C1124 1.395 . S
C1126 C1129 1.403 . S
C1127 C1124 1.403 . S
C1127 C1128 1.524 . S
C1127 C1131 1.400 . S
C1128 H1113 0.960 . S
C1128 H1114 0.960 . S
C1128 H1115 0.960 . S
C1128 C1127 1.524 . S
C1129 C1126 1.403 . S
C1129 C1130 1.392 . S
C1129 C1133 1.495 . S
C1130 C1129 1.392 . S
C1130 C1131 1.385 . S
C1130 C1132 1.478 . S
C1131 H1125 0.930 . S
C1131 C1127 1.400 . S
C1131 C1130 1.385 . S
C1132 C1130 1.478 . S
C1132 C1134 1.381 . S
C1132 C1138 1.383 . S
C1133 C1129 1.495 . S
C1133 H1139 0.959 . S
C1133 H1140 0.961 . S
C1133 H1141 0.960 . S
C1134 C1132 1.381 . S
C1134 C1135 1.394 . S
C1134 H1142 0.930 . S
C1135 C1134 1.394 . S
C1135 C1136 1.383 . S
C1135 H1143 0.929 . S
C1136 C1135 1.383 . S
C1136 C1137 1.377 . S
C1137 H1121 0.930 . S
C1137 C1136 1.377 . S
C1137 C1138 1.379 . S
C1138 H1122 0.931 . S
C1138 C1132 1.383 . S
C1138 C1137 1.379 . S
H1139 C1133 0.959 . S
H1140 C1133 0.961 . S
H1141 C1133 0.960 . S
H1142 C1134 0.930 . S
H1143 C1135 0.929 . S
H1144 C1152 0.929 . S
H1145 C1154 0.930 . S
H1146 C1156 0.930 . S
H1147 C1159 0.929 . S
H1148 C1162 0.930 . S
H1149 C1164 0.960 . S
H1150 C1164 0.960 . S
H1151 C1164 0.960 . S
C1152 H1144 0.929 . S
C1152 C1153 1.377 . S
C1152 C1154 1.384 . S
C1153 C1152 1.377 . S
C1153 C1159 1.390 . S
C1154 H1145 0.930 . S
C1154 C1152 1.384 . S
C1154 C1155 1.372 . S
C1155 C1154 1.372 . S
C1155 C1156 1.400 . S
C1155 C1160 1.490 . S
C1156 H1146 0.930 . S
C1156 C1155 1.400 . S
C1156 C1159 1.386 . S
H1157 C1173 0.930 . S
H1158 C1174 0.931 . S
C1159 H1147 0.929 . S
C1159 C1153 1.390 . S
C1159 C1156 1.386 . S
C1160 C1155 1.490 . S
C1160 C1162 1.395 . S
C1160 C1163 1.403 . S
H1161 C1167 0.930 . S
C1162 H1148 0.930 . S
C1162 C1160 1.395 . S
C1162 C1165 1.403 . S
C1163 C1160 1.403 . S
C1163 C1164 1.524 . S
C1163 C1167 1.400 . S
C1164 H1149 0.960 . S
C1164 H1150 0.960 . S
C1164 H1151 0.960 . S
C1164 C1163 1.524 . S
C1165 C1162 1.403 . S
C1165 C1166 1.392 . S
C1165 C1169 1.495 . S
C1166 C1165 1.392 . S
C1166 C1167 1.385 . S
C1166 C1168 1.478 . S
C1167 H1161 0.930 . S
C1167 C1163 1.400 . S
C1167 C1166 1.385 . S
C1168 C1166 1.478 . S
C1168 C1170 1.381 . S
C1168 C1174 1.383 . S
C1169 C1165 1.495 . S
C1169 H1175 0.959 . S
C1169 H1176 0.961 . S
C1169 H1177 0.960 . S
C1170 C1168 1.381 . S
C1170 C1171 1.394 . S
C1170 H1178 0.930 . S
C1171 C1170 1.394 . S
C1171 C1172 1.383 . S
C1171 H1179 0.929 . S
C1172 C1171 1.383 . S
C1172 C1173 1.377 . S
C1173 H1157 0.930 . S
C1173 C1172 1.377 . S
C1173 C1174 1.379 . S
C1174 H1158 0.931 . S
C1174 C1168 1.383 . S
C1174 C1173 1.379 . S
H1175 C1169 0.959 . S
H1176 C1169 0.961 . S
H1177 C1169 0.960 . S
H1178 C1170 0.930 . S
H1179 C1171 0.929 . S
H1180 C1188 0.929 . S
H1181 C1190 0.930 . S
H1182 C1192 0.930 . S
H1183 C1195 0.929 . S
H1184 C1198 0.930 . S
H1185 C1200 0.960 . S
H1186 C1200 0.960 . S
H1187 C1200 0.960 . S
C1188 H1180 0.929 . S
C1188 C1189 1.377 . S
C1188 C1190 1.384 . S
C1189 C1188 1.377 . S
C1189 C1195 1.390 . S
C1190 H1181 0.930 . S
C1190 C1188 1.384 . S
C1190 C1191 1.372 . S
C1191 C1190 1.372 . S
C1191 C1192 1.400 . S
C1191 C1196 1.490 . S
C1192 H1182 0.930 . S
C1192 C1191 1.400 . S
C1192 C1195 1.386 . S
H1193 C1209 0.930 . S
H1194 C1210 0.931 . S
C1195 H1183 0.929 . S
C1195 C1189 1.390 . S
C1195 C1192 1.386 . S
C1196 C1191 1.490 . S
C1196 C1198 1.395 . S
C1196 C1199 1.403 . S
H1197 C1203 0.930 . S
C1198 H1184 0.930 . S
C1198 C1196 1.395 . S
C1198 C1201 1.403 . S
C1199 C1196 1.403 . S
C1199 C1200 1.524 . S
C1199 C1203 1.400 . S
C1200 H1185 0.960 . S
C1200 H1186 0.960 . S
C1200 H1187 0.960 . S
C1200 C1199 1.524 . S
C1201 C1198 1.403 . S
C1201 C1202 1.392 . S
C1201 C1205 1.495 . S
C1202 C1201 1.392 . S
C1202 C1203 1.385 . S
C1202 C1204 1.478 . S
C1203 H1197 0.930 . S
C1203 C1199 1.400 . S
C1203 C1202 1.385 . S
C1204 C1202 1.478 . S
C1204 C1206 1.381 . S
C1204 C1210 1.383 . S
C1205 C1201 1.495 . S
C1205 H1211 0.959 . S
C1205 H1212 0.961 . S
C1205 H1213 0.960 . S
C1206 C1204 1.381 . S
C1206 C1207 1.394 . S
C1206 H1214 0.930 . S
C1207 C1206 1.394 . S
C1207 C1208 1.383 . S
C1207 H1215 0.929 . S
C1208 C1207 1.383 . S
C1208 C1209 1.377 . S
C1209 H1193 0.930 . S
C1209 C1208 1.377 . S
C1209 C1210 1.379 . S
C1210 H1194 0.931 . S
C1210 C1204 1.383 . S
C1210 C1209 1.379 . S
H1211 C1205 0.959 . S
H1212 C1205 0.961 . S
H1213 C1205 0.960 . S
H1214 C1206 0.930 . S
H1215 C1207 0.929 . S
H1216 C1224 0.929 . S
H1217 C1226 0.930 . S
H1218 C1228 0.930 . S
H1219 C1231 0.929 . S
H1220 C1234 0.930 . S
H1221 C1236 0.960 . S
H1222 C1236 0.960 . S
H1223 C1236 0.960 . S
C1224 H1216 0.929 . S
C1224 C1225 1.377 . S
C1224 C1226 1.384 . S
C1225 C1224 1.377 . S
C1225 C1231 1.390 . S
C1226 H1217 0.930 . S
C1226 C1224 1.384 . S
C1226 C1227 1.372 . S
C1227 C1226 1.372 . S
C1227 C1228 1.400 . S
C1227 C1232 1.490 . S
C1228 H1218 0.930 . S
C1228 C1227 1.400 . S
C1228 C1231 1.386 . S
H1229 C1245 0.930 . S
H1230 C1246 0.931 . S
C1231 H1219 0.929 . S
C1231 C1225 1.390 . S
C1231 C1228 1.386 . S
C1232 C1227 1.490 . S
C1232 C1234 1.395 . S
C1232 C1235 1.403 . S
H1233 C1239 0.930 . S
C1234 H1220 0.930 . S
C1234 C1232 1.395 . S
C1234 C1237 1.403 . S
C1235 C1232 1.403 . S
C1235 C1236 1.524 . S
C1235 C1239 1.400 . S
C1236 H1221 0.960 . S
C1236 H1222 0.960 . S
C1236 H1223 0.960 . S
C1236 C1235 1.524 . S
C1237 C1234 1.403 . S
C1237 C1238 1.392 . S
C1237 C1241 1.495 . S
C1238 C1237 1.392 . S
C1238 C1239 1.385 . S
C1238 C1240 1.478 . S
C1239 H1233 0.930 . S
C1239 C1235 1.400 . S
C1239 C1238 1.385 . S
C1240 C1238 1.478 . S
C1240 C1242 1.381 . S
C1240 C1246 1.383 . S
C1241 C1237 1.495 . S
C1241 H1247 0.959 . S
C1241 H1248 0.961 . S
C1241 H1249 0.960 . S
C1242 C1240 1.381 . S
C1242 C1243 1.394 . S
C1242 H1250 0.930 . S
C1243 C1242 1.394 . S
C1243 C1244 1.383 . S
C1243 H1251 0.929 . S
C1244 C1243 1.383 . S
C1244 C1245 1.377 . S
C1245 H1229 0.930 . S
C1245 C1244 1.377 . S
C1245 C1246 1.379 . S
C1246 H1230 0.931 . S
C1246 C1240 1.383 . S
C1246 C1245 1.379 . S
H1247 C1241 0.959 . S
H1248 C1241 0.961 . S
H1249 C1241 0.960 . S
H1250 C1242 0.930 . S
H1251 C1243 0.929 . S
H1252 C1260 0.929 . S
H1253 C1262 0.930 . S
H1254 C1264 0.930 . S
H1255 C1267 0.929 . S
H1256 C1270 0.930 . S
H1257 C1272 0.960 . S
H1258 C1272 0.960 . S
H1259 C1272 0.960 . S
C1260 H1252 0.929 . S
C1260 C1261 1.377 . S
C1260 C1262 1.384 . S
C1261 C1260 1.377 . S
C1261 C1267 1.390 . S
C1262 H1253 0.930 . S
C1262 C1260 1.384 . S
C1262 C1263 1.372 . S
C1263 C1262 1.372 . S
C1263 C1264 1.400 . S
C1263 C1268 1.490 . S
C1264 H1254 0.930 . S
C1264 C1263 1.400 . S
C1264 C1267 1.386 . S
H1265 C1281 0.930 . S
H1266 C1282 0.931 . S
C1267 H1255 0.929 . S
C1267 C1261 1.390 . S
C1267 C1264 1.386 . S
C1268 C1263 1.490 . S
C1268 C1270 1.395 . S
C1268 C1271 1.403 . S
H1269 C1275 0.930 . S
C1270 H1256 0.930 . S
C1270 C1268 1.395 . S
C1270 C1273 1.403 . S
C1271 C1268 1.403 . S
C1271 C1272 1.524 . S
C1271 C1275 1.400 . S
C1272 H1257 0.960 . S
C1272 H1258 0.960 . S
C1272 H1259 0.960 . S
C1272 C1271 1.524 . S
C1273 C1270 1.403 . S
C1273 C1274 1.392 . S
C1273 C1277 1.495 . S
C1274 C1273 1.392 . S
C1274 C1275 1.385 . S
C1274 C1276 1.478 . S
C1275 H1269 0.930 . S
C1275 C1271 1.400 . S
C1275 C1274 1.385 . S
C1276 C1274 1.478 . S
C1276 C1278 1.381 . S
C1276 C1282 1.383 . S
C1277 C1273 1.495 . S
C1277 H1283 0.959 . S
C1277 H1284 0.961 . S
C1277 H1285 0.960 . S
C1278 C1276 1.381 . S
C1278 C1279 1.394 . S
C1278 H1286 0.930 . S
C1279 C1278 1.394 . S
C1279 C1280 1.383 . S
C1279 H1287 0.929 . S
C1280 C1279 1.383 . S
C1280 C1281 1.377 . S
C1281 H1265 0.930 . S
C1281 C1280 1.377 . S
C1281 C1282 1.379 . S
C1282 H1266 0.931 . S
C1282 C1276 1.383 . S
C1282 C1281 1.379 . S
H1283 C1277 0.959 . S
H1284 C1277 0.961 . S
H1285 C1277 0.960 . S
H1286 C1278 0.930 . S
H1287 C1279 0.929 . S
H1288 C1296 0.929 . S
H1289 C1298 0.930 . S
H1290 C1300 0.930 . S
H1291 C1303 0.929 . S
H1292 C1306 0.930 . S
H1293 C1308 0.960 . S
H1294 C1308 0.960 . S
H1295 C1308 0.960 . S
C1296 H1288 0.929 . S
C1296 C1297 1.377 . S
C1296 C1298 1.384 . S
C1297 C1296 1.377 . S
C1297 C1303 1.390 . S
C1298 H1289 0.930 . S
C1298 C1296 1.384 . S
C1298 C1299 1.372 . S
C1299 C1298 1.372 . S
C1299 C1300 1.400 . S
C1299 C1304 1.490 . S
C1300 H1290 0.930 . S
C1300 C1299 1.400 . S
C1300 C1303 1.386 . S
H1301 C1317 0.930 . S
H1302 C1318 0.931 . S
C1303 H1291 0.929 . S
C1303 C1297 1.390 . S
C1303 C1300 1.386 . S
C1304 C1299 1.490 . S
C1304 C1306 1.395 . S
C1304 C1307 1.403 . S
H1305 C1311 0.930 . S
C1306 H1292 0.930 . S
C1306 C1304 1.395 . S
C1306 C1309 1.403 . S
C1307 C1304 1.403 . S
C1307 C1308 1.524 . S
C1307 C1311 1.400 . S
C1308 H1293 0.960 . S
C1308 H1294 0.960 . S
C1308 H1295 0.960 . S
C1308 C1307 1.524 . S
C1309 C1306 1.403 . S
C1309 C1310 1.392 . S
C1309 C1313 1.495 . S
C1310 C1309 1.392 . S
C1310 C1311 1.385 . S
C1310 C1312 1.478 . S
C1311 H1305 0.930 . S
C1311 C1307 1.400 . S
C1311 C1310 1.385 . S
C1312 C1310 1.478 . S
C1312 C1314 1.381 . S
C1312 C1318 1.383 . S
C1313 C1309 1.495 . S
C1313 H1319 0.959 . S
C1313 H1320 0.961 . S
C1313 H1321 0.960 . S
C1314 C1312 1.381 . S
C1314 C1315 1.394 . S
C1314 H1322 0.930 . S
C1315 C1314 1.394 . S
C1315 C1316 1.383 . S
C1315 H1323 0.929 . S
C1316 C1315 1.383 . S
C1316 C1317 1.377 . S
C1317 H1301 0.930 . S
C1317 C1316 1.377 . S
C1317 C1318 1.379 . S
C1318 H1302 0.931 . S
C1318 C1312 1.383 . S
C1318 C1317 1.379 . S
H1319 C1313 0.959 . S
H1320 C1313 0.961 . S
H1321 C1313 0.960 . S
H1322 C1314 0.930 . S
H1323 C1315 0.929 . S
H1324 C1332 0.929 . S
H1325 C1334 0.930 . S
H1326 C1336 0.930 . S
H1327 C1339 0.929 . S
H1328 C1342 0.930 . S
H1329 C1344 0.960 . S
H1330 C1344 0.960 . S
H1331 C1344 0.960 . S
C1332 H1324 0.929 . S
C1332 C1333 1.377 . S
C1332 C1334 1.384 . S
C1333 C1332 1.377 . S
C1333 C1339 1.390 . S
C1334 H1325 0.930 . S
C1334 C1332 1.384 . S
C1334 C1335 1.372 . S
C1335 C1334 1.372 . S
C1335 C1336 1.400 . S
C1335 C1340 1.490 . S
C1336 H1326 0.930 . S
C1336 C1335 1.400 . S
C1336 C1339 1.386 . S
H1337 C1353 0.930 . S
H1338 C1354 0.931 . S
C1339 H1327 0.929 . S
C1339 C1333 1.390 . S
C1339 C1336 1.386 . S
C1340 C1335 1.490 . S
C1340 C1342 1.395 . S
C1340 C1343 1.403 . S
H1341 C1347 0.930 . S
C1342 H1328 0.930 . S
C1342 C1340 1.395 . S
C1342 C1345 1.403 . S
C1343 C1340 1.403 . S
C1343 C1344 1.524 . S
C1343 C1347 1.400 . S
C1344 H1329 0.960 . S
C1344 H1330 0.960 . S
C1344 H1331 0.960 . S
C1344 C1343 1.524 . S
C1345 C1342 1.403 . S
C1345 C1346 1.392 . S
C1345 C1349 1.495 . S
C1346 C1345 1.392 . S
C1346 C1347 1.385 . S
C1346 C1348 1.478 . S
C1347 H1341 0.930 . S
C1347 C1343 1.400 . S
C1347 C1346 1.385 . S
C1348 C1346 1.478 . S
C1348 C1350 1.381 . S
C1348 C1354 1.383 . S
C1349 C1345 1.495 . S
C1349 H1355 0.959 . S
C1349 H1356 0.961 . S
C1349 H1357 0.960 . S
C1350 C1348 1.381 . S
C1350 C1351 1.394 . S
C1350 H1358 0.930 . S
C1351 C1350 1.394 . S
C1351 C1352 1.383 . S
C1351 H1359 0.929 . S
C1352 C1351 1.383 . S
C1352 C1353 1.377 . S
C1353 H1337 0.930 . S
C1353 C1352 1.377 . S
C1353 C1354 1.379 . S
C1354 H1338 0.931 . S
C1354 C1348 1.383 . S
C1354 C1353 1.379 . S
H1355 C1349 0.959 . S
H1356 C1349 0.961 . S
H1357 C1349 0.960 . S
H1358 C1350 0.930 . S
H1359 C1351 0.929 . S
H1360 C1368 0.929 . S
H1361 C1370 0.930 . S
H1362 C1372 0.930 . S
H1363 C1375 0.929 . S
H1364 C1378 0.930 . S
H1365 C1380 0.960 . S
H1366 C1380 0.960 . S
H1367 C1380 0.960 . S
C1368 H1360 0.929 . S
C1368 C1369 1.377 . S
C1368 C1370 1.384 . S
C1369 C1368 1.377 . S
C1369 C1375 1.390 . S
C1370 H1361 0.930 . S
C1370 C1368 1.384 . S
C1370 C1371 1.372 . S
C1371 C1370 1.372 . S
C1371 C1372 1.400 . S
C1371 C1376 1.490 . S
C1372 H1362 0.930 . S
C1372 C1371 1.400 . S
C1372 C1375 1.386 . S
H1373 C1389 0.930 . S
H1374 C1390 0.931 . S
C1375 H1363 0.929 . S
C1375 C1369 1.390 . S
C1375 C1372 1.386 . S
C1376 C1371 1.490 . S
C1376 C1378 1.395 . S
C1376 C1379 1.403 . S
H1377 C1383 0.930 . S
C1378 H1364 0.930 . S
C1378 C1376 1.395 . S
C1378 C1381 1.403 . S
C1379 C1376 1.403 . S
C1379 C1380 1.524 . S
C1379 C1383 1.400 . S
C1380 H1365 0.960 . S
C1380 H1366 0.960 . S
C1380 H1367 0.960 . S
C1380 C1379 1.524 . S
C1381 C1378 1.403 . S
C1381 C1382 1.392 . S
C1381 C1385 1.495 . S
C1382 C1381 1.392 . S
C1382 C1383 1.385 . S
C1382 C1384 1.478 . S
C1383 H1377 0.930 . S
C1383 C1379 1.400 . S
C1383 C1382 1.385 . S
C1384 C1382 1.478 . S
C1384 C1386 1.381 . S
C1384 C1390 1.383 . S
C1385 C1381 1.495 . S
C1385 H1391 0.959 . S
C1385 H1392 0.961 . S
C1385 H1393 0.960 . S
C1386 C1384 1.381 . S
C1386 C1387 1.394 . S
C1386 H1394 0.930 . S
C1387 C1386 1.394 . S
C1387 C1388 1.383 . S
C1387 H1395 0.929 . S
C1388 C1387 1.383 . S
C1388 C1389 1.377 . S
C1389 H1373 0.930 . S
C1389 C1388 1.377 . S
C1389 C1390 1.379 . S
C1390 H1374 0.931 . S
C1390 C1384 1.383 . S
C1390 C1389 1.379 . S
H1391 C1385 0.959 . S
H1392 C1385 0.961 . S
H1393 C1385 0.960 . S
H1394 C1386 0.930 . S
H1395 C1387 0.929 . S
H1396 C1404 0.929 . S
H1397 C1406 0.930 . S
H1398 C1408 0.930 . S
H1399 C1411 0.929 . S
H1400 C1414 0.930 . S
H1401 C1416 0.960 . S
H1402 C1416 0.960 . S
H1403 C1416 0.960 . S
C1404 H1396 0.929 . S
C1404 C1405 1.377 . S
C1404 C1406 1.384 . S
C1405 C1404 1.377 . S
C1405 C1411 1.390 . S
C1406 H1397 0.930 . S
C1406 C1404 1.384 . S
C1406 C1407 1.372 . S
C1407 C1406 1.372 . S
C1407 C1408 1.400 . S
C1407 C1412 1.490 . S
C1408 H1398 0.930 . S
C1408 C1407 1.400 . S
C1408 C1411 1.386 . S
H1409 C1425 0.930 . S
H1410 C1426 0.931 . S
C1411 H1399 0.929 . S
C1411 C1405 1.390 . S
C1411 C1408 1.386 . S
C1412 C1407 1.490 . S
C1412 C1414 1.395 . S
C1412 C1415 1.403 . S
H1413 C1419 0.930 . S
C1414 H1400 0.930 . S
C1414 C1412 1.395 . S
C1414 C1417 1.403 . S
C1415 C1412 1.403 . S
C1415 C1416 1.524 . S
C1415 C1419 1.400 . S
C1416 H1401 0.960 . S
C1416 H1402 0.960 . S
C1416 H1403 0.960 . S
C1416 C1415 1.524 . S
C1417 C1414 1.403 . S
C1417 C1418 1.392 . S
C1417 C1421 1.495 . S
C1418 C1417 1.392 . S
C1418 C1419 1.385 . S
C1418 C1420 1.478 . S
C1419 H1413 0.930 . S
C1419 C1415 1.400 . S
C1419 C1418 1.385 . S
C1420 C1418 1.478 . S
C1420 C1422 1.381 . S
C1420 C1426 1.383 . S
C1421 C1417 1.495 . S
C1421 H1427 0.959 . S
C1421 H1428 0.961 . S
C1421 H1429 0.960 . S
C1422 C1420 1.381 . S
C1422 C1423 1.394 . S
C1422 H1430 0.930 . S
C1423 C1422 1.394 . S
C1423 C1424 1.383 . S
C1423 H1431 0.929 . S
C1424 C1423 1.383 . S
C1424 C1425 1.377 . S
C1425 H1409 0.930 . S
C1425 C1424 1.377 . S
C1425 C1426 1.379 . S
C1426 H1410 0.931 . S
C1426 C1420 1.383 . S
C1426 C1425 1.379 . S
H1427 C1421 0.959 . S
H1428 C1421 0.961 . S
H1429 C1421 0.960 . S
H1430 C1422 0.930 . S
H1431 C1423 0.929 . S
H1432 C1440 0.929 . S
H1433 C1442 0.930 . S
H1434 C1444 0.930 . S
H1435 C1447 0.929 . S
H1436 C1450 0.930 . S
H1437 C1452 0.960 . S
H1438 C1452 0.960 . S
H1439 C1452 0.960 . S
C1440 H1432 0.929 . S
C1440 C1441 1.377 . S
C1440 C1442 1.384 . S
C1441 C1440 1.377 . S
C1441 C1447 1.390 . S
C1442 H1433 0.930 . S
C1442 C1440 1.384 . S
C1442 C1443 1.372 . S
C1443 C1442 1.372 . S
C1443 C1444 1.400 . S
C1443 C1448 1.490 . S
C1444 H1434 0.930 . S
C1444 C1443 1.400 . S
C1444 C1447 1.386 . S
H1445 C1461 0.930 . S
H1446 C1462 0.931 . S
C1447 H1435 0.929 . S
C1447 C1441 1.390 . S
C1447 C1444 1.386 . S
C1448 C1443 1.490 . S
C1448 C1450 1.395 . S
C1448 C1451 1.403 . S
H1449 C1455 0.930 . S
C1450 H1436 0.930 . S
C1450 C1448 1.395 . S
C1450 C1453 1.403 . S
C1451 C1448 1.403 . S
C1451 C1452 1.524 . S
C1451 C1455 1.400 . S
C1452 H1437 0.960 . S
C1452 H1438 0.960 . S
C1452 H1439 0.960 . S
C1452 C1451 1.524 . S
C1453 C1450 1.403 . S
C1453 C1454 1.392 . S
C1453 C1457 1.495 . S
C1454 C1453 1.392 . S
C1454 C1455 1.385 . S
C1454 C1456 1.478 . S
C1455 H1449 0.930 . S
C1455 C1451 1.400 . S
C1455 C1454 1.385 . S
C1456 C1454 1.478 . S
C1456 C1458 1.381 . S
C1456 C1462 1.383 . S
C1457 C1453 1.495 . S
C1457 H1463 0.959 . S
C1457 H1464 0.961 . S
C1457 H1465 0.960 . S
C1458 C1456 1.381 . S
C1458 C1459 1.394 . S
C1458 H1466 0.930 . S
C1459 C1458 1.394 . S
C1459 C1460 1.383 . S
C1459 H1467 0.929 . S
C1460 C1459 1.383 . S
C1460 C1461 1.377 . S
C1461 H1445 0.930 . S
C1461 C1460 1.377 . S
C1461 C1462 1.379 . S
C1462 H1446 0.931 . S
C1462 C1456 1.383 . S
C1462 C1461 1.379 . S
H1463 C1457 0.959 . S
H1464 C1457 0.961 . S
H1465 C1457 0.960 . S
H1466 C1458 0.930 . S
H1467 C1459 0.929 . S
H1468 C1476 0.929 . S
H1469 C1478 0.930 . S
H1470 C1480 0.930 . S
H1471 C1483 0.929 . S
H1472 C1486 0.930 . S
H1473 C1488 0.960 . S
H1474 C1488 0.960 . S
H1475 C1488 0.960 . S
C1476 H1468 0.929 . S
C1476 C1477 1.377 . S
C1476 C1478 1.384 . S
C1477 C1476 1.377 . S
C1477 C1483 1.390 . S
C1478 H1469 0.930 . S
C1478 C1476 1.384 . S
C1478 C1479 1.372 . S
C1479 C1478 1.372 . S
C1479 C1480 1.400 . S
C1479 C1484 1.490 . S
C1480 H1470 0.930 . S
C1480 C1479 1.400 . S
C1480 C1483 1.386 . S
H1481 C1497 0.930 . S
H1482 C1498 0.931 . S
C1483 H1471 0.929 . S
C1483 C1477 1.390 . S
C1483 C1480 1.386 . S
C1484 C1479 1.490 . S
C1484 C1486 1.395 . S
C1484 C1487 1.403 . S
H1485 C1491 0.930 . S
C1486 H1472 0.930 . S
C1486 C1484 1.395 . S
C1486 C1489 1.403 . S
C1487 C1484 1.403 . S
C1487 C1488 1.524 . S
C1487 C1491 1.400 . S
C1488 H1473 0.960 . S
C1488 H1474 0.960 . S
C1488 H1475 0.960 . S
C1488 C1487 1.524 . S
C1489 C1486 1.403 . S
C1489 C1490 1.392 . S
C1489 C1493 1.495 . S
C1490 C1489 1.392 . S
C1490 C1491 1.385 . S
C1490 C1492 1.478 . S
C1491 H1485 0.930 . S
C1491 C1487 1.400 . S
C1491 C1490 1.385 . S
C1492 C1490 1.478 . S
C1492 C1494 1.381 . S
C1492 C1498 1.383 . S
C1493 C1489 1.495 . S
C1493 H1499 0.959 . S
C1493 H1500 0.961 . S
C1493 H1501 0.960 . S
C1494 C1492 1.381 . S
C1494 C1495 1.394 . S
C1494 H1502 0.930 . S
C1495 C1494 1.394 . S
C1495 C1496 1.383 . S
C1495 H1503 0.929 . S
C1496 C1495 1.383 . S
C1496 C1497 1.377 . S
C1497 H1481 0.930 . S
C1497 C1496 1.377 . S
C1497 C1498 1.379 . S
C1498 H1482 0.931 . S
C1498 C1492 1.383 . S
C1498 C1497 1.379 . S
H1499 C1493 0.959 . S
H1500 C1493 0.961 . S
H1501 C1493 0.960 . S
H1502 C1494 0.930 . S
H1503 C1495 0.929 . S
H1504 C1512 0.929 . S
H1505 C1514 0.930 . S
H1506 C1516 0.930 . S
H1507 C1519 0.929 . S
H1508 C1522 0.930 . S
H1509 C1524 0.960 . S
H1510 C1524 0.960 . S
H1511 C1524 0.960 . S
C1512 H1504 0.929 . S
C1512 C1513 1.377 . S
C1512 C1514 1.384 . S
C1513 C1512 1.377 . S
C1513 C1519 1.390 . S
C1514 H1505 0.930 . S
C1514 C1512 1.384 . S
C1514 C1515 1.372 . S
C1515 C1514 1.372 . S
C1515 C1516 1.400 . S
C1515 C1520 1.490 . S
C1516 H1506 0.930 . S
C1516 C1515 1.400 . S
C1516 C1519 1.386 . S
H1517 C1533 0.930 . S
H1518 C1534 0.931 . S
C1519 H1507 0.929 . S
C1519 C1513 1.390 . S
C1519 C1516 1.386 . S
C1520 C1515 1.490 . S
C1520 C1522 1.395 . S
C1520 C1523 1.403 . S
H1521 C1527 0.930 . S
C1522 H1508 0.930 . S
C1522 C1520 1.395 . S
C1522 C1525 1.403 . S
C1523 C1520 1.403 . S
C1523 C1524 1.524 . S
C1523 C1527 1.400 . S
C1524 H1509 0.960 . S
C1524 H1510 0.960 . S
C1524 H1511 0.960 . S
C1524 C1523 1.524 . S
C1525 C1522 1.403 . S
C1525 C1526 1.392 . S
C1525 C1529 1.495 . S
C1526 C1525 1.392 . S
C1526 C1527 1.385 . S
C1526 C1528 1.478 . S
C1527 H1521 0.930 . S
C1527 C1523 1.400 . S
C1527 C1526 1.385 . S
C1528 C1526 1.478 . S
C1528 C1530 1.381 . S
C1528 C1534 1.383 . S
C1529 C1525 1.495 . S
C1529 H1535 0.959 . S
C1529 H1536 0.961 . S
C1529 H1537 0.960 . S
C1530 C1528 1.381 . S
C1530 C1531 1.394 . S
C1530 H1538 0.930 . S
C1531 C1530 1.394 . S
C1531 C1532 1.383 . S
C1531 H1539 0.929 . S
C1532 C1531 1.383 . S
C1532 C1533 1.377 . S
C1533 H1517 0.930 . S
C1533 C1532 1.377 . S
C1533 C1534 1.379 . S
C1534 H1518 0.931 . S
C1534 C1528 1.383 . S
C1534 C1533 1.379 . S
H1535 C1529 0.959 . S
H1536 C1529 0.961 . S
H1537 C1529 0.960 . S
H1538 C1530 0.930 . S
H1539 C1531 0.929 . S
H1540 C1548 0.929 . S
H1541 C1550 0.930 . S
H1542 C1552 0.930 . S
H1543 C1555 0.929 . S
H1544 C1558 0.930 . S
H1545 C1560 0.960 . S
H1546 C1560 0.960 . S
H1547 C1560 0.960 . S
C1548 H1540 0.929 . S
C1548 C1549 1.377 . S
C1548 C1550 1.384 . S
C1549 C1548 1.377 . S
C1549 C1555 1.390 . S
C1550 H1541 0.930 . S
C1550 C1548 1.384 . S
C1550 C1551 1.372 . S
C1551 C1550 1.372 . S
C1551 C1552 1.400 . S
C1551 C1556 1.490 . S
C1552 H1542 0.930 . S
C1552 C1551 1.400 . S
C1552 C1555 1.386 . S
H1553 C1569 0.930 . S
H1554 C1570 0.931 . S
C1555 H1543 0.929 . S
C1555 C1549 1.390 . S
C1555 C1552 1.386 . S
C1556 C1551 1.490 . S
C1556 C1558 1.395 . S
C1556 C1559 1.403 . S
H1557 C1563 0.930 . S
C1558 H1544 0.930 . S
C1558 C1556 1.395 . S
C1558 C1561 1.403 . S
C1559 C1556 1.403 . S
C1559 C1560 1.524 . S
C1559 C1563 1.400 . S
C1560 H1545 0.960 . S
C1560 H1546 0.960 . S
C1560 H1547 0.960 . S
C1560 C1559 1.524 . S
C1561 C1558 1.403 . S
C1561 C1562 1.392 . S
C1561 C1565 1.495 . S
C1562 C1561 1.392 . S
C1562 C1563 1.385 . S
C1562 C1564 1.478 . S
C1563 H1557 0.930 . S
C1563 C1559 1.400 . S
C1563 C1562 1.385 . S
C1564 C1562 1.478 . S
C1564 C1566 1.381 . S
C1564 C1570 1.383 . S
C1565 C1561 1.495 . S
C1565 H1571 0.959 . S
C1565 H1572 0.961 . S
C1565 H1573 0.960 . S
C1566 C1564 1.381 . S
C1566 C1567 1.394 . S
C1566 H1574 0.930 . S
C1567 C1566 1.394 . S
C1567 C1568 1.383 . S
C1567 H1575 0.929 . S
C1568 C1567 1.383 . S
C1568 C1569 1.377 . S
C1569 H1553 0.930 . S
C1569 C1568 1.377 . S
C1569 C1570 1.379 . S
C1570 H1554 0.931 . S
C1570 C1564 1.383 . S
C1570 C1569 1.379 . S
H1571 C1565 0.959 . S
H1572 C1565 0.961 . S
H1573 C1565 0.960 . S
H1574 C1566 0.930 . S
H1575 C1567 0.929 . S
H1576 C1584 0.929 . S
H1577 C1586 0.930 . S
H1578 C1588 0.930 . S
H1579 C1591 0.929 . S
H1580 C1594 0.930 . S
H1581 C1596 0.960 . S
H1582 C1596 0.960 . S
H1583 C1596 0.960 . S
C1584 H1576 0.929 . S
C1584 C1585 1.377 . S
C1584 C1586 1.384 . S
C1585 C1584 1.377 . S
C1585 C1591 1.390 . S
C1586 H1577 0.930 . S
C1586 C1584 1.384 . S
C1586 C1587 1.372 . S
C1587 C1586 1.372 . S
C1587 C1588 1.400 . S
C1587 C1592 1.490 . S
C1588 H1578 0.930 . S
C1588 C1587 1.400 . S
C1588 C1591 1.386 . S
H1589 C1605 0.930 . S
H1590 C1606 0.931 . S
C1591 H1579 0.929 . S
C1591 C1585 1.390 . S
C1591 C1588 1.386 . S
C1592 C1587 1.490 . S
C1592 C1594 1.395 . S
C1592 C1595 1.403 . S
H1593 C1599 0.930 . S
C1594 H1580 0.930 . S
C1594 C1592 1.395 . S
C1594 C1597 1.403 . S
C1595 C1592 1.403 . S
C1595 C1596 1.524 . S
C1595 C1599 1.400 . S
C1596 H1581 0.960 . S
C1596 H1582 0.960 . S
C1596 H1583 0.960 . S
C1596 C1595 1.524 . S
C1597 C1594 1.403 . S
C1597 C1598 1.392 . S
C1597 C1601 1.495 . S
C1598 C1597 1.392 . S
C1598 C1599 1.385 . S
C1598 C1600 1.478 . S
C1599 H1593 0.930 . S
C1599 C1595 1.400 . S
C1599 C1598 1.385 . S
C1600 C1598 1.478 . S
C1600 C1602 1.381 . S
C1600 C1606 1.383 . S
C1601 C1597 1.495 . S
C1601 H1607 0.959 . S
C1601 H1608 0.961 . S
C1601 H1609 0.960 . S
C1602 C1600 1.381 . S
C1602 C1603 1.394 . S
C1602 H1610 0.930 . S
C1603 C1602 1.394 . S
C1603 C1604 1.383 . S
C1603 H1611 0.929 . S
C1604 C1603 1.383 . S
C1604 C1605 1.377 . S
C1605 H1589 0.930 . S
C1605 C1604 1.377 . S
C1605 C1606 1.379 . S
C1606 H1590 0.931 . S
C1606 C1600 1.383 . S
C1606 C1605 1.379 . S
H1607 C1601 0.959 . S
H1608 C1601 0.961 . S
H1609 C1601 0.960 . S
H1610 C1602 0.930 . S
H1611 C1603 0.929 . S
H1612 C1620 0.929 . S
H1613 C1622 0.930 . S
H1614 C1624 0.930 . S
H1615 C1627 0.929 . S
H1616 C1630 0.930 . S
H1617 C1632 0.960 . S
H1618 C1632 0.960 . S
H1619 C1632 0.960 . S
C1620 H1612 0.929 . S
C1620 C1621 1.377 . S
C1620 C1622 1.384 . S
C1621 C1620 1.377 . S
C1621 C1627 1.390 . S
C1622 H1613 0.930 . S
C1622 C1620 1.384 . S
C1622 C1623 1.372 . S
C1623 C1622 1.372 . S
C1623 C1624 1.400 . S
C1623 C1628 1.490 . S
C1624 H1614 0.930 . S
C1624 C1623 1.400 . S
C1624 C1627 1.386 . S
H1625 C1641 0.930 . S
H1626 C1642 0.931 . S
C1627 H1615 0.929 . S
C1627 C1621 1.390 . S
C1627 C1624 1.386 . S
C1628 C1623 1.490 . S
C1628 C1630 1.395 . S
C1628 C1631 1.403 . S
H1629 C1635 0.930 . S
C1630 H1616 0.930 . S
C1630 C1628 1.395 . S
C1630 C1633 1.403 . S
C1631 C1628 1.403 . S
C1631 C1632 1.524 . S
C1631 C1635 1.400 . S
C1632 H1617 0.960 . S
C1632 H1618 0.960 . S
C1632 H1619 0.960 . S
C1632 C1631 1.524 . S
C1633 C1630 1.403 . S
C1633 C1634 1.392 . S
C1633 C1637 1.495 . S
C1634 C1633 1.392 . S
C1634 C1635 1.385 . S
C1634 C1636 1.478 . S
C1635 H1629 0.930 . S
C1635 C1631 1.400 . S
C1635 C1634 1.385 . S
C1636 C1634 1.478 . S
C1636 C1638 1.381 . S
C1636 C1642 1.383 . S
C1637 C1633 1.495 . S
C1637 H1643 0.959 . S
C1637 H1644 0.961 . S
C1637 H1645 0.960 . S
C1638 C1636 1.381 . S
C1638 C1639 1.394 . S
C1638 H1646 0.930 . S
C1639 C1638 1.394 . S
C1639 C1640 1.383 . S
C1639 H1647 0.929 . S
C1640 C1639 1.383 . S
C1640 C1641 1.377 . S
C1641 H1625 0.930 . S
C1641 C1640 1.377 . S
C1641 C1642 1.379 . S
C1642 H1626 0.931 . S
C1642 C1636 1.383 . S
C1642 C1641 1.379 . S
H1643 C1637 0.959 . S
H1644 C1637 0.961 . S
H1645 C1637 0.960 . S
H1646 C1638 0.930 . S
H1647 C1639 0.929 . S
H1648 C1656 0.929 . S
H1649 C1658 0.930 . S
H1650 C1660 0.930 . S
H1651 C1663 0.929 . S
H1652 C1666 0.930 . S
H1653 C1668 0.960 . S
H1654 C1668 0.960 . S
H1655 C1668 0.960 . S
C1656 H1648 0.929 . S
C1656 C1657 1.377 . S
C1656 C1658 1.384 . S
C1657 C1656 1.377 . S
C1657 C1663 1.390 . S
C1658 H1649 0.930 . S
C1658 C1656 1.384 . S
C1658 C1659 1.372 . S
C1659 C1658 1.372 . S
C1659 C1660 1.400 . S
C1659 C1664 1.490 . S
C1660 H1650 0.930 . S
C1660 C1659 1.400 . S
C1660 C1663 1.386 . S
H1661 C1677 0.930 . S
H1662 C1678 0.931 . S
C1663 H1651 0.929 . S
C1663 C1657 1.390 . S
C1663 C1660 1.386 . S
C1664 C1659 1.490 . S
C1664 C1666 1.395 . S
C1664 C1667 1.403 . S
H1665 C1671 0.926 1_554 S
C1666 H1652 0.930 . S
C1666 C1664 1.395 . S
C1666 C1669 1.403 1_556 S
C1667 C1664 1.403 . S
C1667 C1668 1.524 . S
C1667 C1671 1.416 . S
C1668 H1653 0.960 . S
C1668 H1654 0.960 . S
C1668 H1655 0.960 . S
C1668 C1667 1.524 . S
C1669 C1666 1.403 1_554 S
C1669 C1670 1.392 . S
C1669 C1673 1.495 . S
C1670 C1669 1.392 . S
C1670 C1671 1.370 1_554 S
C1670 C1672 1.478 . S
C1671 H1665 0.926 1_556 S
C1671 C1667 1.416 . S
C1671 C1670 1.370 1_556 S
C1672 C1670 1.478 . S
C1672 C1674 1.381 . S
C1672 C1678 1.383 . S
C1673 C1669 1.495 . S
C1673 H1679 0.959 . S
C1673 H1680 0.961 . S
C1673 H1681 0.960 . S
C1674 C1672 1.381 . S
C1674 C1675 1.394 . S
C1674 H1682 0.930 . S
C1675 C1674 1.394 . S
C1675 C1676 1.383 . S
C1675 H1683 0.929 . S
C1676 C1675 1.383 . S
C1676 C1677 1.377 . S
C1677 H1661 0.930 . S
C1677 C1676 1.377 . S
C1677 C1678 1.379 . S
C1678 H1662 0.931 . S
C1678 C1672 1.383 . S
C1678 C1677 1.379 . S
H1679 C1673 0.959 . S
H1680 C1673 0.961 . S
H1681 C1673 0.960 . S
H1682 C1674 0.930 . S
H1683 C1675 0.929 . S
H1684 C1692 0.929 . S
H1685 C1694 0.930 . S
H1686 C1696 0.930 . S
H1687 C1699 0.929 . S
H1688 C1702 0.930 . S
H1689 C1704 0.960 . S
H1690 C1704 0.960 . S
H1691 C1704 0.956 1_554 S
C1692 H1684 0.929 . S
C1692 C1693 1.377 . S
C1692 C1694 1.384 . S
C1693 C1692 1.377 . S
C1693 C1699 1.390 . S
C1694 H1685 0.930 . S
C1694 C1692 1.384 . S
C1694 C1695 1.372 . S
C1695 C1694 1.372 . S
C1695 C1696 1.400 . S
C1695 C1700 1.490 . S
C1696 H1686 0.930 . S
C1696 C1695 1.400 . S
C1696 C1699 1.386 . S
H1697 C1713 0.930 . S
H1698 C1714 0.931 . S
C1699 H1687 0.929 . S
C1699 C1693 1.390 . S
C1699 C1696 1.386 . S
C1700 C1695 1.490 . S
C1700 C1702 1.395 . S
C1700 C1703 1.403 1_554 S
H1701 C1707 0.930 . S
C1702 H1688 0.930 . S
C1702 C1700 1.395 . S
C1702 C1705 1.357 1_554 S
C1703 C1700 1.403 1_556 S
C1703 C1704 1.524 . S
C1703 C1707 1.400 . S
C1704 H1689 0.960 . S
C1704 H1690 0.960 . S
C1704 H1691 0.956 1_556 S
C1704 C1703 1.524 . S
C1705 C1702 1.357 1_556 S
C1705 C1706 1.446 . S
C1705 C1709 1.488 1_556 S
C1706 C1705 1.446 . S
C1706 C1707 1.385 . S
C1706 C1708 1.478 . S
C1707 H1701 0.930 . S
C1707 C1703 1.400 . S
C1707 C1706 1.385 . S
C1708 C1706 1.478 . S
C1708 C1710 1.381 . S
C1708 C1714 1.383 . S
C1709 C1705 1.488 1_554 S
C1709 H1715 0.959 . S
C1709 H1716 0.957 1_554 S
C1709 H1717 0.960 1_554 S
C1710 C1708 1.381 . S
C1710 C1711 1.394 . S
C1710 H1718 0.930 . S
C1711 C1710 1.394 . S
C1711 C1712 1.383 . S
C1711 H1719 0.929 . S
C1712 C1711 1.383 . S
C1712 C1713 1.377 . S
C1713 H1697 0.930 . S
C1713 C1712 1.377 . S
C1713 C1714 1.379 . S
C1714 H1698 0.931 . S
C1714 C1708 1.383 . S
C1714 C1713 1.379 . S
H1715 C1709 0.959 . S
H1716 C1709 0.957 1_556 S
H1717 C1709 0.960 1_556 S
H1718 C1710 0.930 . S
H1719 C1711 0.929 . S
H1720 C1728 0.929 . S
H1721 C1730 0.930 . S
H1722 C1732 0.930 . S
H1723 C1735 0.929 . S
H1724 C1738 0.930 . S
H1725 C1740 0.960 . S
H1726 C1740 0.960 . S
H1727 C1740 0.960 . S
C1728 H1720 0.929 . S
C1728 C1729 1.377 . S
C1728 C1730 1.384 . S
C1729 C1728 1.377 . S
C1729 C1735 1.390 . S
C1730 H1721 0.930 . S
C1730 C1728 1.384 . S
C1730 C1731 1.372 . S
C1731 C1730 1.372 . S
C1731 C1732 1.400 . S
C1731 C1736 1.490 . S
C1732 H1722 0.930 . S
C1732 C1731 1.400 . S
C1732 C1735 1.386 . S
H1733 C1749 0.930 . S
H1734 C1750 0.931 . S
C1735 H1723 0.929 . S
C1735 C1729 1.390 . S
C1735 C1732 1.386 . S
C1736 C1731 1.490 . S
C1736 C1738 1.395 . S
C1736 C1739 1.403 . S
H1737 C1743 0.937 . S
C1738 H1724 0.930 . S
C1738 C1736 1.395 . S
C1738 C1741 1.403 1_556 S
C1739 C1736 1.403 . S
C1739 C1740 1.524 . S
C1739 C1743 1.366 1_556 S
C1740 H1725 0.960 . S
C1740 H1726 0.960 . S
C1740 H1727 0.960 . S
C1740 C1739 1.524 . S
C1741 C1738 1.403 1_554 S
C1741 C1742 1.392 . S
C1741 C1745 1.495 . S
C1742 C1741 1.392 . S
C1742 C1743 1.413 . S
C1742 C1744 1.478 . S
C1743 H1737 0.937 . S
C1743 C1739 1.366 1_554 S
C1743 C1742 1.413 . S
C1744 C1742 1.478 . S
C1744 C1746 1.381 . S
C1744 C1750 1.383 . S
C1745 C1741 1.495 . S
C1745 H1751 0.959 . S
C1745 H1752 0.961 . S
C1745 H1753 0.960 . S
C1746 C1744 1.381 . S
C1746 C1747 1.394 . S
C1746 H1754 0.930 . S
C1747 C1746 1.394 . S
C1747 C1748 1.383 . S
C1747 H1755 0.929 . S
C1748 C1747 1.383 . S
C1748 C1749 1.377 . S
C1749 H1733 0.930 . S
C1749 C1748 1.377 . S
C1749 C1750 1.379 . S
C1750 H1734 0.931 . S
C1750 C1744 1.383 . S
C1750 C1749 1.379 . S
H1751 C1745 0.959 . S
H1752 C1745 0.961 . S
H1753 C1745 0.960 . S
H1754 C1746 0.930 . S
H1755 C1747 0.929 . S
H1756 C1764 0.929 . S
H1757 C1766 0.930 . S
H1758 C1768 0.930 . S
H1759 C1771 0.929 . S
H1760 C1774 0.930 . S
H1761 C1776 0.960 . S
H1762 C1776 0.960 . S
H1763 C1776 0.960 . S
C1764 H1756 0.929 . S
C1764 C1765 1.377 . S
C1764 C1766 1.384 . S
C1765 C1764 1.377 . S
C1765 C1771 1.390 . S
C1766 H1757 0.930 . S
C1766 C1764 1.384 . S
C1766 C1767 1.372 . S
C1767 C1766 1.372 . S
C1767 C1768 1.400 . S
C1767 C1772 1.490 . S
C1768 H1758 0.930 . S
C1768 C1767 1.400 . S
C1768 C1771 1.386 . S
H1769 C1785 0.930 . S
H1770 C1786 0.931 . S
C1771 H1759 0.929 . S
C1771 C1765 1.390 . S
C1771 C1768 1.386 . S
C1772 C1767 1.490 . S
C1772 C1774 1.395 1_554 S
C1772 C1775 1.403 . S
H1773 C1779 0.930 . S
C1774 H1760 0.930 . S
C1774 C1772 1.395 1_556 S
C1774 C1777 1.403 . S
C1775 C1772 1.403 . S
C1775 C1776 1.524 . S
C1775 C1779 1.400 1_554 S
C1776 H1761 0.960 . S
C1776 H1762 0.960 . S
C1776 H1763 0.960 . S
C1776 C1775 1.524 . S
C1777 C1774 1.403 . S
C1777 C1778 1.392 . S
C1777 C1781 1.495 . S
C1778 C1777 1.392 . S
C1778 C1779 1.385 . S
C1778 C1780 1.478 . S
C1779 H1773 0.930 . S
C1779 C1775 1.400 1_556 S
C1779 C1778 1.385 . S
C1780 C1778 1.478 . S
C1780 C1782 1.381 . S
C1780 C1786 1.383 . S
C1781 C1777 1.495 . S
C1781 H1787 0.959 . S
C1781 H1788 0.961 . S
C1781 H1789 0.960 . S
C1782 C1780 1.381 . S
C1782 C1783 1.394 . S
C1782 H1790 0.930 . S
C1783 C1782 1.394 . S
C1783 C1784 1.383 . S
C1783 H1791 0.929 . S
C1784 C1783 1.383 . S
C1784 C1785 1.377 . S
C1785 H1769 0.930 . S
C1785 C1784 1.377 . S
C1785 C1786 1.379 . S
C1786 H1770 0.931 . S
C1786 C1780 1.383 . S
C1786 C1785 1.379 . S
H1787 C1781 0.959 . S
H1788 C1781 0.961 . S
H1789 C1781 0.960 . S
H1790 C1782 0.930 . S
H1791 C1783 0.929 . S
H1792 C1800 0.929 . S
H1793 C1802 0.930 . S
H1794 C1804 0.930 . S
H1795 C1807 0.929 . S
H1796 C1810 0.930 . S
H1797 C1812 0.960 . S
H1798 C1812 0.960 . S
H1799 C1812 0.960 . S
C1800 H1792 0.929 . S
C1800 C1801 1.377 . S
C1800 C1802 1.384 . S
C1801 C1800 1.377 . S
C1801 C1807 1.390 . S
C1802 H1793 0.930 . S
C1802 C1800 1.384 . S
C1802 C1803 1.372 . S
C1803 C1802 1.372 . S
C1803 C1804 1.400 . S
C1803 C1808 1.490 . S
C1804 H1794 0.930 . S
C1804 C1803 1.400 . S
C1804 C1807 1.386 . S
H1805 C1821 0.930 . S
H1806 C1822 0.931 . S
C1807 H1795 0.929 . S
C1807 C1801 1.390 . S
C1807 C1804 1.386 . S
C1808 C1803 1.490 . S
C1808 C1810 1.395 . S
C1808 C1811 1.403 . S
H1809 C1815 0.930 . S
C1810 H1796 0.930 . S
C1810 C1808 1.395 . S
C1810 C1813 1.403 . S
C1811 C1808 1.403 . S
C1811 C1812 1.524 . S
C1811 C1815 1.400 . S
C1812 H1797 0.960 . S
C1812 H1798 0.960 . S
C1812 H1799 0.960 . S
C1812 C1811 1.524 . S
C1813 C1810 1.403 . S
C1813 C1814 1.392 . S
C1813 C1817 1.495 . S
C1814 C1813 1.392 . S
C1814 C1815 1.385 . S
C1814 C1816 1.478 . S
C1815 H1809 0.930 . S
C1815 C1811 1.400 . S
C1815 C1814 1.385 . S
C1816 C1814 1.478 . S
C1816 C1818 1.381 . S
C1816 C1822 1.383 . S
C1817 C1813 1.495 . S
C1817 H1823 0.959 . S
C1817 H1824 0.961 . S
C1817 H1825 0.960 . S
C1818 C1816 1.381 . S
C1818 C1819 1.394 . S
C1818 H1826 0.930 . S
C1819 C1818 1.394 . S
C1819 C1820 1.383 . S
C1819 H1827 0.929 . S
C1820 C1819 1.383 . S
C1820 C1821 1.377 . S
C1821 H1805 0.930 . S
C1821 C1820 1.377 . S
C1821 C1822 1.379 . S
C1822 H1806 0.931 . S
C1822 C1816 1.383 . S
C1822 C1821 1.379 . S
H1823 C1817 0.959 . S
H1824 C1817 0.961 . S
H1825 C1817 0.960 . S
H1826 C1818 0.930 . S
H1827 C1819 0.929 . S
H1828 C1836 0.929 . S
H1829 C1838 0.930 . S
H1830 C1840 0.930 . S
H1831 C1843 0.929 . S
H1832 C1846 0.930 . S
H1833 C1848 0.960 . S
H1834 C1848 0.960 . S
H1835 C1848 0.960 . S
C1836 H1828 0.929 . S
C1836 C1837 1.377 . S
C1836 C1838 1.384 . S
C1837 C1836 1.377 . S
C1837 C1843 1.390 . S
C1838 H1829 0.930 . S
C1838 C1836 1.384 . S
C1838 C1839 1.372 . S
C1839 C1838 1.372 . S
C1839 C1840 1.400 . S
C1839 C1844 1.490 . S
C1840 H1830 0.930 . S
C1840 C1839 1.400 . S
C1840 C1843 1.386 . S
H1841 C1857 0.930 . S
H1842 C1858 0.931 . S
C1843 H1831 0.929 . S
C1843 C1837 1.390 . S
C1843 C1840 1.386 . S
C1844 C1839 1.490 . S
C1844 C1846 1.395 . S
C1844 C1847 1.403 . S
H1845 C1851 0.930 . S
C1846 H1832 0.930 . S
C1846 C1844 1.395 . S
C1846 C1849 1.403 . S
C1847 C1844 1.403 . S
C1847 C1848 1.524 . S
C1847 C1851 1.400 . S
C1848 H1833 0.960 . S
C1848 H1834 0.960 . S
C1848 H1835 0.960 . S
C1848 C1847 1.524 . S
C1849 C1846 1.403 . S
C1849 C1850 1.392 . S
C1849 C1853 1.495 . S
C1850 C1849 1.392 . S
C1850 C1851 1.385 . S
C1850 C1852 1.478 . S
C1851 H1845 0.930 . S
C1851 C1847 1.400 . S
C1851 C1850 1.385 . S
C1852 C1850 1.478 . S
C1852 C1854 1.381 . S
C1852 C1858 1.383 . S
C1853 C1849 1.495 . S
C1853 H1859 0.959 . S
C1853 H1860 0.961 . S
C1853 H1861 0.960 . S
C1854 C1852 1.381 . S
C1854 C1855 1.394 . S
C1854 H1862 0.930 . S
C1855 C1854 1.394 . S
C1855 C1856 1.383 . S
C1855 H1863 0.929 . S
C1856 C1855 1.383 . S
C1856 C1857 1.377 . S
C1857 H1841 0.930 . S
C1857 C1856 1.377 . S
C1857 C1858 1.379 . S
C1858 H1842 0.931 . S
C1858 C1852 1.383 . S
C1858 C1857 1.379 . S
H1859 C1853 0.959 . S
H1860 C1853 0.961 . S
H1861 C1853 0.960 . S
H1862 C1854 0.930 . S
H1863 C1855 0.929 . S
H1864 C1872 0.929 . S
H1865 C1874 0.930 . S
H1866 C1876 0.930 . S
H1867 C1879 0.929 . S
H1868 C1882 0.930 . S
H1869 C1884 0.960 . S
H1870 C1884 0.960 . S
H1871 C1884 0.960 . S
C1872 H1864 0.929 . S
C1872 C1873 1.377 . S
C1872 C1874 1.384 . S
C1873 C1872 1.377 . S
C1873 C1879 1.390 . S
C1874 H1865 0.930 . S
C1874 C1872 1.384 . S
C1874 C1875 1.372 . S
C1875 C1874 1.372 . S
C1875 C1876 1.400 . S
C1875 C1880 1.490 . S
C1876 H1866 0.930 . S
C1876 C1875 1.400 . S
C1876 C1879 1.386 . S
H1877 C1893 0.930 . S
H1878 C1894 0.931 . S
C1879 H1867 0.929 . S
C1879 C1873 1.390 . S
C1879 C1876 1.386 . S
C1880 C1875 1.490 . S
C1880 C1882 1.395 . S
C1880 C1883 1.403 . S
H1881 C1887 0.930 . S
C1882 H1868 0.930 . S
C1882 C1880 1.395 . S
C1882 C1885 1.403 . S
C1883 C1880 1.403 . S
C1883 C1884 1.524 . S
C1883 C1887 1.400 . S
C1884 H1869 0.960 . S
C1884 H1870 0.960 . S
C1884 H1871 0.960 . S
C1884 C1883 1.524 . S
C1885 C1882 1.403 . S
C1885 C1886 1.392 . S
C1885 C1889 1.495 . S
C1886 C1885 1.392 . S
C1886 C1887 1.385 . S
C1886 C1888 1.478 . S
C1887 H1881 0.930 . S
C1887 C1883 1.400 . S
C1887 C1886 1.385 . S
C1888 C1886 1.478 . S
C1888 C1890 1.381 . S
C1888 C1894 1.383 . S
C1889 C1885 1.495 . S
C1889 H1895 0.959 . S
C1889 H1896 0.961 . S
C1889 H1897 0.960 . S
C1890 C1888 1.381 . S
C1890 C1891 1.394 . S
C1890 H1898 0.930 . S
C1891 C1890 1.394 . S
C1891 C1892 1.383 . S
C1891 H1899 0.929 . S
C1892 C1891 1.383 . S
C1892 C1893 1.377 . S
C1893 H1877 0.930 . S
C1893 C1892 1.377 . S
C1893 C1894 1.379 . S
C1894 H1878 0.931 . S
C1894 C1888 1.383 . S
C1894 C1893 1.379 . S
H1895 C1889 0.959 . S
H1896 C1889 0.961 . S
H1897 C1889 0.960 . S
H1898 C1890 0.930 . S
H1899 C1891 0.929 . S
H1900 C1908 0.929 . S
H1901 C1910 0.930 . S
H1902 C1912 0.930 . S
H1903 C1915 0.929 . S
H1904 C1918 0.930 . S
H1905 C1920 0.960 . S
H1906 C1920 0.960 . S
H1907 C1920 0.960 . S
C1908 H1900 0.929 . S
C1908 C1909 1.377 . S
C1908 C1910 1.384 . S
C1909 C1908 1.377 . S
C1909 C1915 1.390 . S
C1910 H1901 0.930 . S
C1910 C1908 1.384 . S
C1910 C1911 1.372 . S
C1911 C1910 1.372 . S
C1911 C1912 1.400 . S
C1911 C1916 1.490 . S
C1912 H1902 0.930 . S
C1912 C1911 1.400 . S
C1912 C1915 1.386 . S
H1913 C1929 0.930 . S
H1914 C1930 0.931 . S
C1915 H1903 0.929 . S
C1915 C1909 1.390 . S
C1915 C1912 1.386 . S
C1916 C1911 1.490 . S
C1916 C1918 1.395 . S
C1916 C1919 1.403 . S
H1917 C1923 0.930 . S
C1918 H1904 0.930 . S
C1918 C1916 1.395 . S
C1918 C1921 1.403 . S
C1919 C1916 1.403 . S
C1919 C1920 1.524 . S
C1919 C1923 1.400 . S
C1920 H1905 0.960 . S
C1920 H1906 0.960 . S
C1920 H1907 0.960 . S
C1920 C1919 1.524 . S
C1921 C1918 1.403 . S
C1921 C1922 1.392 . S
C1921 C1925 1.495 . S
C1922 C1921 1.392 . S
C1922 C1923 1.385 . S
C1922 C1924 1.478 . S
C1923 H1917 0.930 . S
C1923 C1919 1.400 . S
C1923 C1922 1.385 . S
C1924 C1922 1.478 . S
C1924 C1926 1.381 . S
C1924 C1930 1.383 . S
C1925 C1921 1.495 . S
C1925 H1931 0.959 . S
C1925 H1932 0.961 . S
C1925 H1933 0.960 . S
C1926 C1924 1.381 . S
C1926 C1927 1.394 . S
C1926 H1934 0.930 . S
C1927 C1926 1.394 . S
C1927 C1928 1.383 . S
C1927 H1935 0.929 . S
C1928 C1927 1.383 . S
C1928 C1929 1.377 . S
C1929 H1913 0.930 . S
C1929 C1928 1.377 . S
C1929 C1930 1.379 . S
C1930 H1914 0.931 . S
C1930 C1924 1.383 . S
C1930 C1929 1.379 . S
H1931 C1925 0.959 . S
H1932 C1925 0.961 . S
H1933 C1925 0.960 . S
H1934 C1926 0.930 . S
H1935 C1927 0.929 . S
H1936 C1944 0.929 . S
H1937 C1946 0.930 . S
H1938 C1948 0.930 . S
H1939 C1951 0.929 . S
H1940 C1954 0.930 . S
H1941 C1956 0.960 . S
H1942 C1956 0.960 . S
H1943 C1956 0.960 . S
C1944 H1936 0.929 . S
C1944 C1945 1.377 . S
C1944 C1946 1.384 . S
C1945 C1944 1.377 . S
C1945 C1951 1.390 . S
C1946 H1937 0.930 . S
C1946 C1944 1.384 . S
C1946 C1947 1.372 . S
C1947 C1946 1.372 . S
C1947 C1948 1.400 . S
C1947 C1952 1.490 . S
C1948 H1938 0.930 . S
C1948 C1947 1.400 . S
C1948 C1951 1.386 . S
H1949 C1965 0.930 . S
H1950 C1966 0.931 . S
C1951 H1939 0.929 . S
C1951 C1945 1.390 . S
C1951 C1948 1.386 . S
C1952 C1947 1.490 . S
C1952 C1954 1.395 . S
C1952 C1955 1.403 . S
H1953 C1959 0.930 . S
C1954 H1940 0.930 . S
C1954 C1952 1.395 . S
C1954 C1957 1.403 1_556 S
C1955 C1952 1.403 . S
C1955 C1956 1.524 . S
C1955 C1959 1.400 1_556 S
C1956 H1941 0.960 . S
C1956 H1942 0.960 . S
C1956 H1943 0.960 . S
C1956 C1955 1.524 . S
C1957 C1954 1.403 1_554 S
C1957 C1958 1.392 . S
C1957 C1961 1.495 . S
C1958 C1957 1.392 . S
C1958 C1959 1.385 . S
C1958 C1960 1.478 . S
C1959 H1953 0.930 . S
C1959 C1955 1.400 1_554 S
C1959 C1958 1.385 . S
C1960 C1958 1.478 . S
C1960 C1962 1.381 . S
C1960 C1966 1.383 . S
C1961 C1957 1.495 . S
C1961 H1967 0.959 . S
C1961 H1968 0.961 . S
C1961 H1969 0.960 . S
C1962 C1960 1.381 . S
C1962 C1963 1.394 . S
C1962 H1970 0.930 . S
C1963 C1962 1.394 . S
C1963 C1964 1.383 . S
C1963 H1971 0.929 . S
C1964 C1963 1.383 . S
C1964 C1965 1.377 . S
C1965 H1949 0.930 . S
C1965 C1964 1.377 . S
C1965 C1966 1.379 . S
C1966 H1950 0.931 . S
C1966 C1960 1.383 . S
C1966 C1965 1.379 . S
H1967 C1961 0.959 . S
H1968 C1961 0.961 . S
H1969 C1961 0.960 . S
H1970 C1962 0.930 . S
H1971 C1963 0.929 . S
H1972 C1980 0.929 . S
H1973 C1982 0.930 . S
H1974 C1984 0.930 . S
H1975 C1987 0.929 . S
H1976 C1990 0.930 . S
H1977 C1992 0.960 . S
H1978 C1992 0.960 . S
H1979 C1992 0.960 . S
C1980 H1972 0.929 . S
C1980 C1981 1.377 . S
C1980 C1982 1.384 . S
C1981 C1980 1.377 . S
C1981 C1987 1.390 . S
C1982 H1973 0.930 . S
C1982 C1980 1.384 . S
C1982 C1983 1.372 . S
C1983 C1982 1.372 . S
C1983 C1984 1.400 . S
C1983 C1988 1.490 . S
C1984 H1974 0.930 . S
C1984 C1983 1.400 . S
C1984 C1987 1.386 . S
H1985 C2001 0.930 . S
H1986 C2002 0.931 . S
C1987 H1975 0.929 . S
C1987 C1981 1.390 . S
C1987 C1984 1.386 . S
C1988 C1983 1.490 . S
C1988 C1990 1.395 1_556 S
C1988 C1991 1.403 . S
H1989 C1995 0.930 . S
C1990 H1976 0.930 . S
C1990 C1988 1.395 1_554 S
C1990 C1993 1.403 . S
C1991 C1988 1.403 . S
C1991 C1992 1.524 . S
C1991 C1995 1.400 1_556 S
C1992 H1977 0.960 . S
C1992 H1978 0.960 . S
C1992 H1979 0.960 . S
C1992 C1991 1.524 . S
C1993 C1990 1.403 . S
C1993 C1994 1.392 . S
C1993 C1997 1.495 . S
C1994 C1993 1.392 . S
C1994 C1995 1.385 . S
C1994 C1996 1.478 . S
C1995 H1989 0.930 . S
C1995 C1991 1.400 1_554 S
C1995 C1994 1.385 . S
C1996 C1994 1.478 . S
C1996 C1998 1.381 . S
C1996 C2002 1.383 . S
C1997 C1993 1.495 . S
C1997 H2003 0.959 . S
C1997 H2004 0.961 . S
C1997 H2005 0.960 . S
C1998 C1996 1.381 . S
C1998 C1999 1.394 . S
C1998 H2006 0.930 . S
C1999 C1998 1.394 . S
C1999 C2000 1.383 . S
C1999 H2007 0.929 . S
C2000 C1999 1.383 . S
C2000 C2001 1.377 . S
C2001 H1985 0.930 . S
C2001 C2000 1.377 . S
C2001 C2002 1.379 . S
C2002 H1986 0.931 . S
C2002 C1996 1.383 . S
C2002 C2001 1.379 . S
H2003 C1997 0.959 . S
H2004 C1997 0.961 . S
H2005 C1997 0.960 . S
H2006 C1998 0.930 . S
H2007 C1999 0.929 . S
H2008 C2016 0.929 . S
H2009 C2018 0.930 . S
H2010 C2020 0.930 . S
H2011 C2023 0.929 . S
H2012 C2026 0.930 . S
H2013 C2028 0.960 . S
H2014 C2028 0.960 . S
H2015 C2028 0.960 . S
C2016 H2008 0.929 . S
C2016 C2017 1.377 . S
C2016 C2018 1.384 . S
C2017 C2016 1.377 . S
C2017 C2023 1.390 . S
C2018 H2009 0.930 . S
C2018 C2016 1.384 . S
C2018 C2019 1.372 . S
C2019 C2018 1.372 . S
C2019 C2020 1.400 . S
C2019 C2024 1.490 . S
C2020 H2010 0.930 . S
C2020 C2019 1.400 . S
C2020 C2023 1.386 . S
H2021 C2037 0.930 . S
H2022 C2038 0.931 . S
C2023 H2011 0.929 . S
C2023 C2017 1.390 . S
C2023 C2020 1.386 . S
C2024 C2019 1.490 . S
C2024 C2026 1.395 . S
C2024 C2027 1.403 . S
H2025 C2031 0.927 1_556 S
C2026 H2012 0.930 . S
C2026 C2024 1.395 . S
C2026 C2029 1.403 1_554 S
C2027 C2024 1.403 . S
C2027 C2028 1.524 . S
C2027 C2031 1.429 . S
C2028 H2013 0.960 . S
C2028 H2014 0.960 . S
C2028 H2015 0.960 . S
C2028 C2027 1.524 . S
C2029 C2026 1.403 1_556 S
C2029 C2030 1.392 . S
C2029 C2033 1.495 . S
C2030 C2029 1.392 . S
C2030 C2031 1.361 1_556 S
C2030 C2032 1.478 . S
C2031 H2025 0.927 1_554 S
C2031 C2027 1.429 . S
C2031 C2030 1.361 1_554 S
C2032 C2030 1.478 . S
C2032 C2034 1.381 . S
C2032 C2038 1.383 . S
C2033 C2029 1.495 . S
C2033 H2039 0.959 . S
C2033 H2040 0.961 . S
C2033 H2041 0.960 . S
C2034 C2032 1.381 . S
C2034 C2035 1.394 . S
C2034 H2042 0.930 . S
C2035 C2034 1.394 . S
C2035 C2036 1.383 . S
C2035 H2043 0.929 . S
C2036 C2035 1.383 . S
C2036 C2037 1.377 . S
C2037 H2021 0.930 . S
C2037 C2036 1.377 . S
C2037 C2038 1.379 . S
C2038 H2022 0.931 . S
C2038 C2032 1.383 . S
C2038 C2037 1.379 . S
H2039 C2033 0.959 . S
H2040 C2033 0.961 . S
H2041 C2033 0.960 . S
H2042 C2034 0.930 . S
H2043 C2035 0.929 . S
H2044 C2052 0.929 . S
H2045 C2054 0.930 . S
H2046 C2056 0.930 . S
H2047 C2059 0.929 . S
H2048 C2062 0.930 . S
H2049 C2064 0.960 . S
H2050 C2064 0.960 . S
H2051 C2064 0.960 . S
C2052 H2044 0.929 . S
C2052 C2053 1.377 . S
C2052 C2054 1.384 . S
C2053 C2052 1.377 . S
C2053 C2059 1.390 . S
C2054 H2045 0.930 . S
C2054 C2052 1.384 . S
C2054 C2055 1.372 . S
C2055 C2054 1.372 . S
C2055 C2056 1.400 . S
C2055 C2060 1.490 . S
C2056 H2046 0.930 . S
C2056 C2055 1.400 . S
C2056 C2059 1.386 . S
H2057 C2073 0.930 . S
H2058 C2074 0.931 . S
C2059 H2047 0.929 . S
C2059 C2053 1.390 . S
C2059 C2056 1.386 . S
C2060 C2055 1.490 . S
C2060 C2062 1.395 . S
C2060 C2063 1.403 . S
H2061 C2067 0.930 . S
C2062 H2048 0.930 . S
C2062 C2060 1.395 . S
C2062 C2065 1.403 1_554 S
C2063 C2060 1.403 . S
C2063 C2064 1.524 . S
C2063 C2067 1.400 . S
C2064 H2049 0.960 . S
C2064 H2050 0.960 . S
C2064 H2051 0.960 . S
C2064 C2063 1.524 . S
C2065 C2062 1.403 1_556 S
C2065 C2066 1.392 . S
C2065 C2069 1.495 . S
C2066 C2065 1.392 . S
C2066 C2067 1.385 1_556 S
C2066 C2068 1.478 . S
C2067 H2061 0.930 . S
C2067 C2063 1.400 . S
C2067 C2066 1.385 1_554 S
C2068 C2066 1.478 . S
C2068 C2070 1.381 . S
C2068 C2074 1.383 . S
C2069 C2065 1.495 . S
C2069 H2075 0.959 . S
C2069 H2076 0.961 . S
C2069 H2077 0.960 . S
C2070 C2068 1.381 . S
C2070 C2071 1.394 . S
C2070 H2078 0.930 . S
C2071 C2070 1.394 . S
C2071 C2072 1.383 . S
C2071 H2079 0.929 . S
C2072 C2071 1.383 . S
C2072 C2073 1.377 . S
C2073 H2057 0.930 . S
C2073 C2072 1.377 . S
C2073 C2074 1.379 . S
C2074 H2058 0.931 . S
C2074 C2068 1.383 . S
C2074 C2073 1.379 . S
H2075 C2069 0.959 . S
H2076 C2069 0.961 . S
H2077 C2069 0.960 . S
H2078 C2070 0.930 . S
H2079 C2071 0.929 . S
C361 C5 2.353 . S
C380 C119 2.352 . S
C397 C141 2.353 . S
C416 C27 2.352 . S
C433 C49 2.355 . S
C452 C163 2.341 . S
C469 C75 2.362 . S
C488 C93 2.333 . S
C505 C293 2.353 . S
C524 C182 2.330 . S
C541 C315 2.362 . S
C560 C205 2.376 . S
C577 C227 2.362 . S
C596 C336 2.376 . S
C613 C249 2.363 . S
C632 C271 2.373 . S
C649 C4 1.605 . S
C668 C73 1.535 1_545 S
C685 C26 1.608 . S
C704 C6 1.505 . S
C721 C48 1.610 1_455 S
C740 C28 1.492 . S
C757 C74 1.608 1_545 S
C776 C50 1.506 1_455 S
C793 C92 1.605 1_655 S
C812 C117 1.556 1_565 S
C829 C139 1.529 . S
C848 C118 1.593 1_565 S
C865 C140 1.610 . S
C884 C161 1.491 . S
C901 C94 1.529 1_655 S
C920 C162 1.607 . S
C937 C251 1.525 1_565 S
C956 C180 1.590 . S
C973 C206 1.605 . S
C992 C181 1.536 . S
C1009 C228 1.609 1_655 S
C1028 C207 1.551 . S
C1045 C250 1.608 1_565 S
C1064 C229 1.556 1_655 S
C1081 C272 1.610 1_455 S
C1100 C295 1.542 1_545 S
C1117 C294 1.611 1_545 S
C1136 C317 1.532 . S
C1153 C316 1.605 . S
C1172 C335 1.519 . S
C1189 C334 1.610 . S
C1208 C273 1.546 1_455 S
C1225 C7 0.383 . S
C1244 C51 0.350 . S
C1261 C29 0.378 . S
C1280 C72 0.439 . S
C1297 C138 0.392 . S
C1316 C95 0.358 . S
C1333 C160 0.369 . S
C1352 C116 0.418 . S
C1369 C225 0.390 . S
C1388 C185 0.432 . S
C1405 C247 0.369 . S
C1424 C203 0.354 . S
C1441 C269 0.370 . S
C1460 C313 0.362 . S
C1477 C291 0.369 . S
C1496 C339 0.337 . S
C1513 C8 1.092 . S
C1532 C248 1.092 . S
C1549 C183 1.089 . S
C1568 C30 1.090 . S
C1585 C52 1.091 . S
C1604 C204 1.078 . S
C1621 C226 1.088 . S
C1640 C70 1.089 . S
C1657 C292 1.088 . S
C1676 C96 1.091 . S
C1693 C114 1.091 . S
C1712 C314 1.072 . S
C1729 C337 1.088 . S
C1748 C136 1.091 . S
C1765 C158 1.092 . S
C1784 C270 1.099 . S
C1801 C184 1.092 . S
C1820 C71 1.082 . S
C1837 C202 1.091 . S
C1856 C9 1.096 . S
C1873 C31 1.090 . S
C1892 C224 1.089 . S
C1909 C246 1.091 . S
C1928 C53 1.078 . S
C1945 C268 1.092 . S
C1964 C115 1.081 . S
C1981 C290 1.092 . S
C2000 C137 1.091 . S
C2017 C159 1.089 . S
C2036 C312 1.091 . S
C2053 C97 1.088 . S
C2072 C338 1.092 . S
