# Generated by pormake.
# Topology fau, (4)-cn, num edge types: 1
# Building blocks:
#     Node 0, Type 0, BuildingBlock: KUFVIS_clean_sbu_0, # of connection points: 4
#     Node 1, Type 0, BuildingBlock: KUFVIS_clean_sbu_0, # of connection points: 4
#     Node 2, Type 0, BuildingBlock: KUFVIS_clean_sbu_0, # of connection points: 4
#     Node 3, Type 0, BuildingBlock: KUFVIS_clean_sbu_0, # of connection points: 4
#     Node 4, Type 0, BuildingBlock: KUFVIS_clean_sbu_0, # of connection points: 4
#     Node 5, Type 0, BuildingBlock: KUFVIS_clean_sbu_0, # of connection points: 4
#     Node 6, Type 0, BuildingBlock: KUFVIS_clean_sbu_0, # of connection points: 4
#     Node 7, Type 0, BuildingBlock: KUFVIS_clean_sbu_0, # of connection points: 4
#     Node 8, Type 0, BuildingBlock: KUFVIS_clean_sbu_0, # of connection points: 4
#     Node 9, Type 0, BuildingBlock: KUFVIS_clean_sbu_0, # of connection points: 4
#     Node 10, Type 0, BuildingBlock: KUFVIS_clean_sbu_0, # of connection points: 4
#     Node 11, Type 0, BuildingBlock: KUFVIS_clean_sbu_0, # of connection points: 4
#     Node 12, Type 0, BuildingBlock: KUFVIS_clean_sbu_0, # of connection points: 4
#     Node 13, Type 0, BuildingBlock: KUFVIS_clean_sbu_0, # of connection points: 4
#     Node 14, Type 0, BuildingBlock: KUFVIS_clean_sbu_0, # of connection points: 4
#     Node 15, Type 0, BuildingBlock: KUFVIS_clean_sbu_0, # of connection points: 4
#     Node 16, Type 0, BuildingBlock: KUFVIS_clean_sbu_0, # of connection points: 4
#     Node 17, Type 0, BuildingBlock: KUFVIS_clean_sbu_0, # of connection points: 4
#     Node 18, Type 0, BuildingBlock: KUFVIS_clean_sbu_0, # of connection points: 4
#     Node 19, Type 0, BuildingBlock: KUFVIS_clean_sbu_0, # of connection points: 4
#     Node 20, Type 0, BuildingBlock: KUFVIS_clean_sbu_0, # of connection points: 4
#     Node 21, Type 0, BuildingBlock: KUFVIS_clean_sbu_0, # of connection points: 4
#     Node 22, Type 0, BuildingBlock: KUFVIS_clean_sbu_0, # of connection points: 4
#     Node 23, Type 0, BuildingBlock: KUFVIS_clean_sbu_0, # of connection points: 4
#     Node 24, Type 0, BuildingBlock: KUFVIS_clean_sbu_0, # of connection points: 4
#     Node 25, Type 0, BuildingBlock: KUFVIS_clean_sbu_0, # of connection points: 4
#     Node 26, Type 0, BuildingBlock: KUFVIS_clean_sbu_0, # of connection points: 4
#     Node 27, Type 0, BuildingBlock: KUFVIS_clean_sbu_0, # of connection points: 4
#     Node 28, Type 0, BuildingBlock: KUFVIS_clean_sbu_0, # of connection points: 4
#     Node 29, Type 0, BuildingBlock: KUFVIS_clean_sbu_0, # of connection points: 4
#     Node 30, Type 0, BuildingBlock: KUFVIS_clean_sbu_0, # of connection points: 4
#     Node 31, Type 0, BuildingBlock: KUFVIS_clean_sbu_0, # of connection points: 4
#     Node 32, Type 0, BuildingBlock: KUFVIS_clean_sbu_0, # of connection points: 4
#     Node 33, Type 0, BuildingBlock: KUFVIS_clean_sbu_0, # of connection points: 4
#     Node 34, Type 0, BuildingBlock: KUFVIS_clean_sbu_0, # of connection points: 4
#     Node 35, Type 0, BuildingBlock: KUFVIS_clean_sbu_0, # of connection points: 4
#     Node 36, Type 0, BuildingBlock: KUFVIS_clean_sbu_0, # of connection points: 4
#     Node 37, Type 0, BuildingBlock: KUFVIS_clean_sbu_0, # of connection points: 4
#     Node 38, Type 0, BuildingBlock: KUFVIS_clean_sbu_0, # of connection points: 4
#     Node 39, Type 0, BuildingBlock: KUFVIS_clean_sbu_0, # of connection points: 4
#     Node 40, Type 0, BuildingBlock: KUFVIS_clean_sbu_0, # of connection points: 4
#     Node 41, Type 0, BuildingBlock: KUFVIS_clean_sbu_0, # of connection points: 4
#     Node 42, Type 0, BuildingBlock: KUFVIS_clean_sbu_0, # of connection points: 4
#     Node 43, Type 0, BuildingBlock: KUFVIS_clean_sbu_0, # of connection points: 4
#     Node 44, Type 0, BuildingBlock: KUFVIS_clean_sbu_0, # of connection points: 4
#     Node 45, Type 0, BuildingBlock: KUFVIS_clean_sbu_0, # of connection points: 4
#     Node 46, Type 0, BuildingBlock: KUFVIS_clean_sbu_0, # of connection points: 4
#     Node 47, Type 0, BuildingBlock: KUFVIS_clean_sbu_0, # of connection points: 4
#     Node 48, Type 0, BuildingBlock: KUFVIS_clean_sbu_0, # of connection points: 4
#     Node 49, Type 0, BuildingBlock: KUFVIS_clean_sbu_0, # of connection points: 4
#     Node 50, Type 0, BuildingBlock: KUFVIS_clean_sbu_0, # of connection points: 4
#     Node 51, Type 0, BuildingBlock: KUFVIS_clean_sbu_0, # of connection points: 4
#     Node 52, Type 0, BuildingBlock: KUFVIS_clean_sbu_0, # of connection points: 4
#     Node 53, Type 0, BuildingBlock: KUFVIS_clean_sbu_0, # of connection points: 4
#     Node 54, Type 0, BuildingBlock: KUFVIS_clean_sbu_0, # of connection points: 4
#     Node 55, Type 0, BuildingBlock: KUFVIS_clean_sbu_0, # of connection points: 4
#     Node 56, Type 0, BuildingBlock: KUFVIS_clean_sbu_0, # of connection points: 4
#     Node 57, Type 0, BuildingBlock: KUFVIS_clean_sbu_0, # of connection points: 4
#     Node 58, Type 0, BuildingBlock: KUFVIS_clean_sbu_0, # of connection points: 4
#     Node 59, Type 0, BuildingBlock: KUFVIS_clean_sbu_0, # of connection points: 4
#     Node 60, Type 0, BuildingBlock: KUFVIS_clean_sbu_0, # of connection points: 4
#     Node 61, Type 0, BuildingBlock: KUFVIS_clean_sbu_0, # of connection points: 4
#     Node 62, Type 0, BuildingBlock: KUFVIS_clean_sbu_0, # of connection points: 4
#     Node 63, Type 0, BuildingBlock: KUFVIS_clean_sbu_0, # of connection points: 4
#     Node 64, Type 0, BuildingBlock: KUFVIS_clean_sbu_0, # of connection points: 4
#     Node 65, Type 0, BuildingBlock: KUFVIS_clean_sbu_0, # of connection points: 4
#     Node 66, Type 0, BuildingBlock: KUFVIS_clean_sbu_0, # of connection points: 4
#     Node 67, Type 0, BuildingBlock: KUFVIS_clean_sbu_0, # of connection points: 4
#     Node 68, Type 0, BuildingBlock: KUFVIS_clean_sbu_0, # of connection points: 4
#     Node 69, Type 0, BuildingBlock: KUFVIS_clean_sbu_0, # of connection points: 4
#     Node 70, Type 0, BuildingBlock: KUFVIS_clean_sbu_0, # of connection points: 4
#     Node 71, Type 0, BuildingBlock: KUFVIS_clean_sbu_0, # of connection points: 4
#     Node 72, Type 0, BuildingBlock: KUFVIS_clean_sbu_0, # of connection points: 4
#     Node 73, Type 0, BuildingBlock: KUFVIS_clean_sbu_0, # of connection points: 4
#     Node 74, Type 0, BuildingBlock: KUFVIS_clean_sbu_0, # of connection points: 4
#     Node 75, Type 0, BuildingBlock: KUFVIS_clean_sbu_0, # of connection points: 4
#     Node 76, Type 0, BuildingBlock: KUFVIS_clean_sbu_0, # of connection points: 4
#     Node 77, Type 0, BuildingBlock: KUFVIS_clean_sbu_0, # of connection points: 4
#     Node 78, Type 0, BuildingBlock: KUFVIS_clean_sbu_0, # of connection points: 4
#     Node 79, Type 0, BuildingBlock: KUFVIS_clean_sbu_0, # of connection points: 4
#     Node 80, Type 0, BuildingBlock: KUFVIS_clean_sbu_0, # of connection points: 4
#     Node 81, Type 0, BuildingBlock: KUFVIS_clean_sbu_0, # of connection points: 4
#     Node 82, Type 0, BuildingBlock: KUFVIS_clean_sbu_0, # of connection points: 4
#     Node 83, Type 0, BuildingBlock: KUFVIS_clean_sbu_0, # of connection points: 4
#     Node 84, Type 0, BuildingBlock: KUFVIS_clean_sbu_0, # of connection points: 4
#     Node 85, Type 0, BuildingBlock: KUFVIS_clean_sbu_0, # of connection points: 4
#     Node 86, Type 0, BuildingBlock: KUFVIS_clean_sbu_0, # of connection points: 4
#     Node 87, Type 0, BuildingBlock: KUFVIS_clean_sbu_0, # of connection points: 4
#     Node 88, Type 0, BuildingBlock: KUFVIS_clean_sbu_0, # of connection points: 4
#     Node 89, Type 0, BuildingBlock: KUFVIS_clean_sbu_0, # of connection points: 4
#     Node 90, Type 0, BuildingBlock: KUFVIS_clean_sbu_0, # of connection points: 4
#     Node 91, Type 0, BuildingBlock: KUFVIS_clean_sbu_0, # of connection points: 4
#     Node 92, Type 0, BuildingBlock: KUFVIS_clean_sbu_0, # of connection points: 4
#     Node 93, Type 0, BuildingBlock: KUFVIS_clean_sbu_0, # of connection points: 4
#     Node 94, Type 0, BuildingBlock: KUFVIS_clean_sbu_0, # of connection points: 4
#     Node 95, Type 0, BuildingBlock: KUFVIS_clean_sbu_0, # of connection points: 4
#     Node 96, Type 0, BuildingBlock: KUFVIS_clean_sbu_0, # of connection points: 4
#     Node 97, Type 0, BuildingBlock: KUFVIS_clean_sbu_0, # of connection points: 4
#     Node 98, Type 0, BuildingBlock: KUFVIS_clean_sbu_0, # of connection points: 4
#     Node 99, Type 0, BuildingBlock: KUFVIS_clean_sbu_0, # of connection points: 4
#     Node 100, Type 0, BuildingBlock: KUFVIS_clean_sbu_0, # of connection points: 4
#     Node 101, Type 0, BuildingBlock: KUFVIS_clean_sbu_0, # of connection points: 4
#     Node 102, Type 0, BuildingBlock: KUFVIS_clean_sbu_0, # of connection points: 4
#     Node 103, Type 0, BuildingBlock: KUFVIS_clean_sbu_0, # of connection points: 4
#     Node 104, Type 0, BuildingBlock: KUFVIS_clean_sbu_0, # of connection points: 4
#     Node 105, Type 0, BuildingBlock: KUFVIS_clean_sbu_0, # of connection points: 4
#     Node 106, Type 0, BuildingBlock: KUFVIS_clean_sbu_0, # of connection points: 4
#     Node 107, Type 0, BuildingBlock: KUFVIS_clean_sbu_0, # of connection points: 4
#     Node 108, Type 0, BuildingBlock: KUFVIS_clean_sbu_0, # of connection points: 4
#     Node 109, Type 0, BuildingBlock: KUFVIS_clean_sbu_0, # of connection points: 4
#     Node 110, Type 0, BuildingBlock: KUFVIS_clean_sbu_0, # of connection points: 4
#     Node 111, Type 0, BuildingBlock: KUFVIS_clean_sbu_0, # of connection points: 4
#     Node 112, Type 0, BuildingBlock: KUFVIS_clean_sbu_0, # of connection points: 4
#     Node 113, Type 0, BuildingBlock: KUFVIS_clean_sbu_0, # of connection points: 4
#     Node 114, Type 0, BuildingBlock: KUFVIS_clean_sbu_0, # of connection points: 4
#     Node 115, Type 0, BuildingBlock: KUFVIS_clean_sbu_0, # of connection points: 4
#     Node 116, Type 0, BuildingBlock: KUFVIS_clean_sbu_0, # of connection points: 4
#     Node 117, Type 0, BuildingBlock: KUFVIS_clean_sbu_0, # of connection points: 4
#     Node 118, Type 0, BuildingBlock: KUFVIS_clean_sbu_0, # of connection points: 4
#     Node 119, Type 0, BuildingBlock: KUFVIS_clean_sbu_0, # of connection points: 4
#     Node 120, Type 0, BuildingBlock: KUFVIS_clean_sbu_0, # of connection points: 4
#     Node 121, Type 0, BuildingBlock: KUFVIS_clean_sbu_0, # of connection points: 4
#     Node 122, Type 0, BuildingBlock: KUFVIS_clean_sbu_0, # of connection points: 4
#     Node 123, Type 0, BuildingBlock: KUFVIS_clean_sbu_0, # of connection points: 4
#     Node 124, Type 0, BuildingBlock: KUFVIS_clean_sbu_0, # of connection points: 4
#     Node 125, Type 0, BuildingBlock: KUFVIS_clean_sbu_0, # of connection points: 4
#     Node 126, Type 0, BuildingBlock: KUFVIS_clean_sbu_0, # of connection points: 4
#     Node 127, Type 0, BuildingBlock: KUFVIS_clean_sbu_0, # of connection points: 4
#     Node 128, Type 0, BuildingBlock: KUFVIS_clean_sbu_0, # of connection points: 4
#     Node 129, Type 0, BuildingBlock: KUFVIS_clean_sbu_0, # of connection points: 4
#     Node 130, Type 0, BuildingBlock: KUFVIS_clean_sbu_0, # of connection points: 4
#     Node 131, Type 0, BuildingBlock: KUFVIS_clean_sbu_0, # of connection points: 4
#     Node 132, Type 0, BuildingBlock: KUFVIS_clean_sbu_0, # of connection points: 4
#     Node 133, Type 0, BuildingBlock: KUFVIS_clean_sbu_0, # of connection points: 4
#     Node 134, Type 0, BuildingBlock: KUFVIS_clean_sbu_0, # of connection points: 4
#     Node 135, Type 0, BuildingBlock: KUFVIS_clean_sbu_0, # of connection points: 4
#     Node 136, Type 0, BuildingBlock: KUFVIS_clean_sbu_0, # of connection points: 4
#     Node 137, Type 0, BuildingBlock: KUFVIS_clean_sbu_0, # of connection points: 4
#     Node 138, Type 0, BuildingBlock: KUFVIS_clean_sbu_0, # of connection points: 4
#     Node 139, Type 0, BuildingBlock: KUFVIS_clean_sbu_0, # of connection points: 4
#     Node 140, Type 0, BuildingBlock: KUFVIS_clean_sbu_0, # of connection points: 4
#     Node 141, Type 0, BuildingBlock: KUFVIS_clean_sbu_0, # of connection points: 4
#     Node 142, Type 0, BuildingBlock: KUFVIS_clean_sbu_0, # of connection points: 4
#     Node 143, Type 0, BuildingBlock: KUFVIS_clean_sbu_0, # of connection points: 4
#     Node 144, Type 0, BuildingBlock: KUFVIS_clean_sbu_0, # of connection points: 4
#     Node 145, Type 0, BuildingBlock: KUFVIS_clean_sbu_0, # of connection points: 4
#     Node 146, Type 0, BuildingBlock: KUFVIS_clean_sbu_0, # of connection points: 4
#     Node 147, Type 0, BuildingBlock: KUFVIS_clean_sbu_0, # of connection points: 4
#     Node 148, Type 0, BuildingBlock: KUFVIS_clean_sbu_0, # of connection points: 4
#     Node 149, Type 0, BuildingBlock: KUFVIS_clean_sbu_0, # of connection points: 4
#     Node 150, Type 0, BuildingBlock: KUFVIS_clean_sbu_0, # of connection points: 4
#     Node 151, Type 0, BuildingBlock: KUFVIS_clean_sbu_0, # of connection points: 4
#     Node 152, Type 0, BuildingBlock: KUFVIS_clean_sbu_0, # of connection points: 4
#     Node 153, Type 0, BuildingBlock: KUFVIS_clean_sbu_0, # of connection points: 4
#     Node 154, Type 0, BuildingBlock: KUFVIS_clean_sbu_0, # of connection points: 4
#     Node 155, Type 0, BuildingBlock: KUFVIS_clean_sbu_0, # of connection points: 4
#     Node 156, Type 0, BuildingBlock: KUFVIS_clean_sbu_0, # of connection points: 4
#     Node 157, Type 0, BuildingBlock: KUFVIS_clean_sbu_0, # of connection points: 4
#     Node 158, Type 0, BuildingBlock: KUFVIS_clean_sbu_0, # of connection points: 4
#     Node 159, Type 0, BuildingBlock: KUFVIS_clean_sbu_0, # of connection points: 4
#     Node 160, Type 0, BuildingBlock: KUFVIS_clean_sbu_0, # of connection points: 4
#     Node 161, Type 0, BuildingBlock: KUFVIS_clean_sbu_0, # of connection points: 4
#     Node 162, Type 0, BuildingBlock: KUFVIS_clean_sbu_0, # of connection points: 4
#     Node 163, Type 0, BuildingBlock: KUFVIS_clean_sbu_0, # of connection points: 4
#     Node 164, Type 0, BuildingBlock: KUFVIS_clean_sbu_0, # of connection points: 4
#     Node 165, Type 0, BuildingBlock: KUFVIS_clean_sbu_0, # of connection points: 4
#     Node 166, Type 0, BuildingBlock: KUFVIS_clean_sbu_0, # of connection points: 4
#     Node 167, Type 0, BuildingBlock: KUFVIS_clean_sbu_0, # of connection points: 4
#     Node 168, Type 0, BuildingBlock: KUFVIS_clean_sbu_0, # of connection points: 4
#     Node 169, Type 0, BuildingBlock: KUFVIS_clean_sbu_0, # of connection points: 4
#     Node 170, Type 0, BuildingBlock: KUFVIS_clean_sbu_0, # of connection points: 4
#     Node 171, Type 0, BuildingBlock: KUFVIS_clean_sbu_0, # of connection points: 4
#     Node 172, Type 0, BuildingBlock: KUFVIS_clean_sbu_0, # of connection points: 4
#     Node 173, Type 0, BuildingBlock: KUFVIS_clean_sbu_0, # of connection points: 4
#     Node 174, Type 0, BuildingBlock: KUFVIS_clean_sbu_0, # of connection points: 4
#     Node 175, Type 0, BuildingBlock: KUFVIS_clean_sbu_0, # of connection points: 4
#     Node 176, Type 0, BuildingBlock: KUFVIS_clean_sbu_0, # of connection points: 4
#     Node 177, Type 0, BuildingBlock: KUFVIS_clean_sbu_0, # of connection points: 4
#     Node 178, Type 0, BuildingBlock: KUFVIS_clean_sbu_0, # of connection points: 4
#     Node 179, Type 0, BuildingBlock: KUFVIS_clean_sbu_0, # of connection points: 4
#     Node 180, Type 0, BuildingBlock: KUFVIS_clean_sbu_0, # of connection points: 4
#     Node 181, Type 0, BuildingBlock: KUFVIS_clean_sbu_0, # of connection points: 4
#     Node 182, Type 0, BuildingBlock: KUFVIS_clean_sbu_0, # of connection points: 4
#     Node 183, Type 0, BuildingBlock: KUFVIS_clean_sbu_0, # of connection points: 4
#     Node 184, Type 0, BuildingBlock: KUFVIS_clean_sbu_0, # of connection points: 4
#     Node 185, Type 0, BuildingBlock: KUFVIS_clean_sbu_0, # of connection points: 4
#     Node 186, Type 0, BuildingBlock: KUFVIS_clean_sbu_0, # of connection points: 4
#     Node 187, Type 0, BuildingBlock: KUFVIS_clean_sbu_0, # of connection points: 4
#     Node 188, Type 0, BuildingBlock: KUFVIS_clean_sbu_0, # of connection points: 4
#     Node 189, Type 0, BuildingBlock: KUFVIS_clean_sbu_0, # of connection points: 4
#     Node 190, Type 0, BuildingBlock: KUFVIS_clean_sbu_0, # of connection points: 4
#     Node 191, Type 0, BuildingBlock: KUFVIS_clean_sbu_0, # of connection points: 4
#     Edge 192, Type (0, 0), BuildingBlock: OJICUG_clean_linker_0, # of connection points: 2
#     Edge 193, Type (0, 0), BuildingBlock: OJICUG_clean_linker_0, # of connection points: 2
#     Edge 194, Type (0, 0), BuildingBlock: OJICUG_clean_linker_0, # of connection points: 2
#     Edge 195, Type (0, 0), BuildingBlock: OJICUG_clean_linker_0, # of connection points: 2
#     Edge 196, Type (0, 0), BuildingBlock: OJICUG_clean_linker_0, # of connection points: 2
#     Edge 197, Type (0, 0), BuildingBlock: OJICUG_clean_linker_0, # of connection points: 2
#     Edge 198, Type (0, 0), BuildingBlock: OJICUG_clean_linker_0, # of connection points: 2
#     Edge 199, Type (0, 0), BuildingBlock: OJICUG_clean_linker_0, # of connection points: 2
#     Edge 200, Type (0, 0), BuildingBlock: OJICUG_clean_linker_0, # of connection points: 2
#     Edge 201, Type (0, 0), BuildingBlock: OJICUG_clean_linker_0, # of connection points: 2
#     Edge 202, Type (0, 0), BuildingBlock: OJICUG_clean_linker_0, # of connection points: 2
#     Edge 203, Type (0, 0), BuildingBlock: OJICUG_clean_linker_0, # of connection points: 2
#     Edge 204, Type (0, 0), BuildingBlock: OJICUG_clean_linker_0, # of connection points: 2
#     Edge 205, Type (0, 0), BuildingBlock: OJICUG_clean_linker_0, # of connection points: 2
#     Edge 206, Type (0, 0), BuildingBlock: OJICUG_clean_linker_0, # of connection points: 2
#     Edge 207, Type (0, 0), BuildingBlock: OJICUG_clean_linker_0, # of connection points: 2
#     Edge 208, Type (0, 0), BuildingBlock: OJICUG_clean_linker_0, # of connection points: 2
#     Edge 209, Type (0, 0), BuildingBlock: OJICUG_clean_linker_0, # of connection points: 2
#     Edge 210, Type (0, 0), BuildingBlock: OJICUG_clean_linker_0, # of connection points: 2
#     Edge 211, Type (0, 0), BuildingBlock: OJICUG_clean_linker_0, # of connection points: 2
#     Edge 212, Type (0, 0), BuildingBlock: OJICUG_clean_linker_0, # of connection points: 2
#     Edge 213, Type (0, 0), BuildingBlock: OJICUG_clean_linker_0, # of connection points: 2
#     Edge 214, Type (0, 0), BuildingBlock: OJICUG_clean_linker_0, # of connection points: 2
#     Edge 215, Type (0, 0), BuildingBlock: OJICUG_clean_linker_0, # of connection points: 2
#     Edge 216, Type (0, 0), BuildingBlock: OJICUG_clean_linker_0, # of connection points: 2
#     Edge 217, Type (0, 0), BuildingBlock: OJICUG_clean_linker_0, # of connection points: 2
#     Edge 218, Type (0, 0), BuildingBlock: OJICUG_clean_linker_0, # of connection points: 2
#     Edge 219, Type (0, 0), BuildingBlock: OJICUG_clean_linker_0, # of connection points: 2
#     Edge 220, Type (0, 0), BuildingBlock: OJICUG_clean_linker_0, # of connection points: 2
#     Edge 221, Type (0, 0), BuildingBlock: OJICUG_clean_linker_0, # of connection points: 2
#     Edge 222, Type (0, 0), BuildingBlock: OJICUG_clean_linker_0, # of connection points: 2
#     Edge 223, Type (0, 0), BuildingBlock: OJICUG_clean_linker_0, # of connection points: 2
#     Edge 224, Type (0, 0), BuildingBlock: OJICUG_clean_linker_0, # of connection points: 2
#     Edge 225, Type (0, 0), BuildingBlock: OJICUG_clean_linker_0, # of connection points: 2
#     Edge 226, Type (0, 0), BuildingBlock: OJICUG_clean_linker_0, # of connection points: 2
#     Edge 227, Type (0, 0), BuildingBlock: OJICUG_clean_linker_0, # of connection points: 2
#     Edge 228, Type (0, 0), BuildingBlock: OJICUG_clean_linker_0, # of connection points: 2
#     Edge 229, Type (0, 0), BuildingBlock: OJICUG_clean_linker_0, # of connection points: 2
#     Edge 230, Type (0, 0), BuildingBlock: OJICUG_clean_linker_0, # of connection points: 2
#     Edge 231, Type (0, 0), BuildingBlock: OJICUG_clean_linker_0, # of connection points: 2
#     Edge 232, Type (0, 0), BuildingBlock: OJICUG_clean_linker_0, # of connection points: 2
#     Edge 233, Type (0, 0), BuildingBlock: OJICUG_clean_linker_0, # of connection points: 2
#     Edge 234, Type (0, 0), BuildingBlock: OJICUG_clean_linker_0, # of connection points: 2
#     Edge 235, Type (0, 0), BuildingBlock: OJICUG_clean_linker_0, # of connection points: 2
#     Edge 236, Type (0, 0), BuildingBlock: OJICUG_clean_linker_0, # of connection points: 2
#     Edge 237, Type (0, 0), BuildingBlock: OJICUG_clean_linker_0, # of connection points: 2
#     Edge 238, Type (0, 0), BuildingBlock: OJICUG_clean_linker_0, # of connection points: 2
#     Edge 239, Type (0, 0), BuildingBlock: OJICUG_clean_linker_0, # of connection points: 2
#     Edge 240, Type (0, 0), BuildingBlock: OJICUG_clean_linker_0, # of connection points: 2
#     Edge 241, Type (0, 0), BuildingBlock: OJICUG_clean_linker_0, # of connection points: 2
#     Edge 242, Type (0, 0), BuildingBlock: OJICUG_clean_linker_0, # of connection points: 2
#     Edge 243, Type (0, 0), BuildingBlock: OJICUG_clean_linker_0, # of connection points: 2
#     Edge 244, Type (0, 0), BuildingBlock: OJICUG_clean_linker_0, # of connection points: 2
#     Edge 245, Type (0, 0), BuildingBlock: OJICUG_clean_linker_0, # of connection points: 2
#     Edge 246, Type (0, 0), BuildingBlock: OJICUG_clean_linker_0, # of connection points: 2
#     Edge 247, Type (0, 0), BuildingBlock: OJICUG_clean_linker_0, # of connection points: 2
#     Edge 248, Type (0, 0), BuildingBlock: OJICUG_clean_linker_0, # of connection points: 2
#     Edge 249, Type (0, 0), BuildingBlock: OJICUG_clean_linker_0, # of connection points: 2
#     Edge 250, Type (0, 0), BuildingBlock: OJICUG_clean_linker_0, # of connection points: 2
#     Edge 251, Type (0, 0), BuildingBlock: OJICUG_clean_linker_0, # of connection points: 2
#     Edge 252, Type (0, 0), BuildingBlock: OJICUG_clean_linker_0, # of connection points: 2
#     Edge 253, Type (0, 0), BuildingBlock: OJICUG_clean_linker_0, # of connection points: 2
#     Edge 254, Type (0, 0), BuildingBlock: OJICUG_clean_linker_0, # of connection points: 2
#     Edge 255, Type (0, 0), BuildingBlock: OJICUG_clean_linker_0, # of connection points: 2
#     Edge 256, Type (0, 0), BuildingBlock: OJICUG_clean_linker_0, # of connection points: 2
#     Edge 257, Type (0, 0), BuildingBlock: OJICUG_clean_linker_0, # of connection points: 2
#     Edge 258, Type (0, 0), BuildingBlock: OJICUG_clean_linker_0, # of connection points: 2
#     Edge 259, Type (0, 0), BuildingBlock: OJICUG_clean_linker_0, # of connection points: 2
#     Edge 260, Type (0, 0), BuildingBlock: OJICUG_clean_linker_0, # of connection points: 2
#     Edge 261, Type (0, 0), BuildingBlock: OJICUG_clean_linker_0, # of connection points: 2
#     Edge 262, Type (0, 0), BuildingBlock: OJICUG_clean_linker_0, # of connection points: 2
#     Edge 263, Type (0, 0), BuildingBlock: OJICUG_clean_linker_0, # of connection points: 2
#     Edge 264, Type (0, 0), BuildingBlock: OJICUG_clean_linker_0, # of connection points: 2
#     Edge 265, Type (0, 0), BuildingBlock: OJICUG_clean_linker_0, # of connection points: 2
#     Edge 266, Type (0, 0), BuildingBlock: OJICUG_clean_linker_0, # of connection points: 2
#     Edge 267, Type (0, 0), BuildingBlock: OJICUG_clean_linker_0, # of connection points: 2
#     Edge 268, Type (0, 0), BuildingBlock: OJICUG_clean_linker_0, # of connection points: 2
#     Edge 269, Type (0, 0), BuildingBlock: OJICUG_clean_linker_0, # of connection points: 2
#     Edge 270, Type (0, 0), BuildingBlock: OJICUG_clean_linker_0, # of connection points: 2
#     Edge 271, Type (0, 0), BuildingBlock: OJICUG_clean_linker_0, # of connection points: 2
#     Edge 272, Type (0, 0), BuildingBlock: OJICUG_clean_linker_0, # of connection points: 2
#     Edge 273, Type (0, 0), BuildingBlock: OJICUG_clean_linker_0, # of connection points: 2
#     Edge 274, Type (0, 0), BuildingBlock: OJICUG_clean_linker_0, # of connection points: 2
#     Edge 275, Type (0, 0), BuildingBlock: OJICUG_clean_linker_0, # of connection points: 2
#     Edge 276, Type (0, 0), BuildingBlock: OJICUG_clean_linker_0, # of connection points: 2
#     Edge 277, Type (0, 0), BuildingBlock: OJICUG_clean_linker_0, # of connection points: 2
#     Edge 278, Type (0, 0), BuildingBlock: OJICUG_clean_linker_0, # of connection points: 2
#     Edge 279, Type (0, 0), BuildingBlock: OJICUG_clean_linker_0, # of connection points: 2
#     Edge 280, Type (0, 0), BuildingBlock: OJICUG_clean_linker_0, # of connection points: 2
#     Edge 281, Type (0, 0), BuildingBlock: OJICUG_clean_linker_0, # of connection points: 2
#     Edge 282, Type (0, 0), BuildingBlock: OJICUG_clean_linker_0, # of connection points: 2
#     Edge 283, Type (0, 0), BuildingBlock: OJICUG_clean_linker_0, # of connection points: 2
#     Edge 284, Type (0, 0), BuildingBlock: OJICUG_clean_linker_0, # of connection points: 2
#     Edge 285, Type (0, 0), BuildingBlock: OJICUG_clean_linker_0, # of connection points: 2
#     Edge 286, Type (0, 0), BuildingBlock: OJICUG_clean_linker_0, # of connection points: 2
#     Edge 287, Type (0, 0), BuildingBlock: OJICUG_clean_linker_0, # of connection points: 2
#     Edge 288, Type (0, 0), BuildingBlock: OJICUG_clean_linker_0, # of connection points: 2
#     Edge 289, Type (0, 0), BuildingBlock: OJICUG_clean_linker_0, # of connection points: 2
#     Edge 290, Type (0, 0), BuildingBlock: OJICUG_clean_linker_0, # of connection points: 2
#     Edge 291, Type (0, 0), BuildingBlock: OJICUG_clean_linker_0, # of connection points: 2
#     Edge 292, Type (0, 0), BuildingBlock: OJICUG_clean_linker_0, # of connection points: 2
#     Edge 293, Type (0, 0), BuildingBlock: OJICUG_clean_linker_0, # of connection points: 2
#     Edge 294, Type (0, 0), BuildingBlock: OJICUG_clean_linker_0, # of connection points: 2
#     Edge 295, Type (0, 0), BuildingBlock: OJICUG_clean_linker_0, # of connection points: 2
#     Edge 296, Type (0, 0), BuildingBlock: OJICUG_clean_linker_0, # of connection points: 2
#     Edge 297, Type (0, 0), BuildingBlock: OJICUG_clean_linker_0, # of connection points: 2
#     Edge 298, Type (0, 0), BuildingBlock: OJICUG_clean_linker_0, # of connection points: 2
#     Edge 299, Type (0, 0), BuildingBlock: OJICUG_clean_linker_0, # of connection points: 2
#     Edge 300, Type (0, 0), BuildingBlock: OJICUG_clean_linker_0, # of connection points: 2
#     Edge 301, Type (0, 0), BuildingBlock: OJICUG_clean_linker_0, # of connection points: 2
#     Edge 302, Type (0, 0), BuildingBlock: OJICUG_clean_linker_0, # of connection points: 2
#     Edge 303, Type (0, 0), BuildingBlock: OJICUG_clean_linker_0, # of connection points: 2
#     Edge 304, Type (0, 0), BuildingBlock: OJICUG_clean_linker_0, # of connection points: 2
#     Edge 305, Type (0, 0), BuildingBlock: OJICUG_clean_linker_0, # of connection points: 2
#     Edge 306, Type (0, 0), BuildingBlock: OJICUG_clean_linker_0, # of connection points: 2
#     Edge 307, Type (0, 0), BuildingBlock: OJICUG_clean_linker_0, # of connection points: 2
#     Edge 308, Type (0, 0), BuildingBlock: OJICUG_clean_linker_0, # of connection points: 2
#     Edge 309, Type (0, 0), BuildingBlock: OJICUG_clean_linker_0, # of connection points: 2
#     Edge 310, Type (0, 0), BuildingBlock: OJICUG_clean_linker_0, # of connection points: 2
#     Edge 311, Type (0, 0), BuildingBlock: OJICUG_clean_linker_0, # of connection points: 2
#     Edge 312, Type (0, 0), BuildingBlock: OJICUG_clean_linker_0, # of connection points: 2
#     Edge 313, Type (0, 0), BuildingBlock: OJICUG_clean_linker_0, # of connection points: 2
#     Edge 314, Type (0, 0), BuildingBlock: OJICUG_clean_linker_0, # of connection points: 2
#     Edge 315, Type (0, 0), BuildingBlock: OJICUG_clean_linker_0, # of connection points: 2
#     Edge 316, Type (0, 0), BuildingBlock: OJICUG_clean_linker_0, # of connection points: 2
#     Edge 317, Type (0, 0), BuildingBlock: OJICUG_clean_linker_0, # of connection points: 2
#     Edge 318, Type (0, 0), BuildingBlock: OJICUG_clean_linker_0, # of connection points: 2
#     Edge 319, Type (0, 0), BuildingBlock: OJICUG_clean_linker_0, # of connection points: 2
#     Edge 320, Type (0, 0), BuildingBlock: OJICUG_clean_linker_0, # of connection points: 2
#     Edge 321, Type (0, 0), BuildingBlock: OJICUG_clean_linker_0, # of connection points: 2
#     Edge 322, Type (0, 0), BuildingBlock: OJICUG_clean_linker_0, # of connection points: 2
#     Edge 323, Type (0, 0), BuildingBlock: OJICUG_clean_linker_0, # of connection points: 2
#     Edge 324, Type (0, 0), BuildingBlock: OJICUG_clean_linker_0, # of connection points: 2
#     Edge 325, Type (0, 0), BuildingBlock: OJICUG_clean_linker_0, # of connection points: 2
#     Edge 326, Type (0, 0), BuildingBlock: OJICUG_clean_linker_0, # of connection points: 2
#     Edge 327, Type (0, 0), BuildingBlock: OJICUG_clean_linker_0, # of connection points: 2
#     Edge 328, Type (0, 0), BuildingBlock: OJICUG_clean_linker_0, # of connection points: 2
#     Edge 329, Type (0, 0), BuildingBlock: OJICUG_clean_linker_0, # of connection points: 2
#     Edge 330, Type (0, 0), BuildingBlock: OJICUG_clean_linker_0, # of connection points: 2
#     Edge 331, Type (0, 0), BuildingBlock: OJICUG_clean_linker_0, # of connection points: 2
#     Edge 332, Type (0, 0), BuildingBlock: OJICUG_clean_linker_0, # of connection points: 2
#     Edge 333, Type (0, 0), BuildingBlock: OJICUG_clean_linker_0, # of connection points: 2
#     Edge 334, Type (0, 0), BuildingBlock: OJICUG_clean_linker_0, # of connection points: 2
#     Edge 335, Type (0, 0), BuildingBlock: OJICUG_clean_linker_0, # of connection points: 2
#     Edge 336, Type (0, 0), BuildingBlock: OJICUG_clean_linker_0, # of connection points: 2
#     Edge 337, Type (0, 0), BuildingBlock: OJICUG_clean_linker_0, # of connection points: 2
#     Edge 338, Type (0, 0), BuildingBlock: OJICUG_clean_linker_0, # of connection points: 2
#     Edge 339, Type (0, 0), BuildingBlock: OJICUG_clean_linker_0, # of connection points: 2
#     Edge 340, Type (0, 0), BuildingBlock: OJICUG_clean_linker_0, # of connection points: 2
#     Edge 341, Type (0, 0), BuildingBlock: OJICUG_clean_linker_0, # of connection points: 2
#     Edge 342, Type (0, 0), BuildingBlock: OJICUG_clean_linker_0, # of connection points: 2
#     Edge 343, Type (0, 0), BuildingBlock: OJICUG_clean_linker_0, # of connection points: 2
#     Edge 344, Type (0, 0), BuildingBlock: OJICUG_clean_linker_0, # of connection points: 2
#     Edge 345, Type (0, 0), BuildingBlock: OJICUG_clean_linker_0, # of connection points: 2
#     Edge 346, Type (0, 0), BuildingBlock: OJICUG_clean_linker_0, # of connection points: 2
#     Edge 347, Type (0, 0), BuildingBlock: OJICUG_clean_linker_0, # of connection points: 2
#     Edge 348, Type (0, 0), BuildingBlock: OJICUG_clean_linker_0, # of connection points: 2
#     Edge 349, Type (0, 0), BuildingBlock: OJICUG_clean_linker_0, # of connection points: 2
#     Edge 350, Type (0, 0), BuildingBlock: OJICUG_clean_linker_0, # of connection points: 2
#     Edge 351, Type (0, 0), BuildingBlock: OJICUG_clean_linker_0, # of connection points: 2
#     Edge 352, Type (0, 0), BuildingBlock: OJICUG_clean_linker_0, # of connection points: 2
#     Edge 353, Type (0, 0), BuildingBlock: OJICUG_clean_linker_0, # of connection points: 2
#     Edge 354, Type (0, 0), BuildingBlock: OJICUG_clean_linker_0, # of connection points: 2
#     Edge 355, Type (0, 0), BuildingBlock: OJICUG_clean_linker_0, # of connection points: 2
#     Edge 356, Type (0, 0), BuildingBlock: OJICUG_clean_linker_0, # of connection points: 2
#     Edge 357, Type (0, 0), BuildingBlock: OJICUG_clean_linker_0, # of connection points: 2
#     Edge 358, Type (0, 0), BuildingBlock: OJICUG_clean_linker_0, # of connection points: 2
#     Edge 359, Type (0, 0), BuildingBlock: OJICUG_clean_linker_0, # of connection points: 2
#     Edge 360, Type (0, 0), BuildingBlock: OJICUG_clean_linker_0, # of connection points: 2
#     Edge 361, Type (0, 0), BuildingBlock: OJICUG_clean_linker_0, # of connection points: 2
#     Edge 362, Type (0, 0), BuildingBlock: OJICUG_clean_linker_0, # of connection points: 2
#     Edge 363, Type (0, 0), BuildingBlock: OJICUG_clean_linker_0, # of connection points: 2
#     Edge 364, Type (0, 0), BuildingBlock: OJICUG_clean_linker_0, # of connection points: 2
#     Edge 365, Type (0, 0), BuildingBlock: OJICUG_clean_linker_0, # of connection points: 2
#     Edge 366, Type (0, 0), BuildingBlock: OJICUG_clean_linker_0, # of connection points: 2
#     Edge 367, Type (0, 0), BuildingBlock: OJICUG_clean_linker_0, # of connection points: 2
#     Edge 368, Type (0, 0), BuildingBlock: OJICUG_clean_linker_0, # of connection points: 2
#     Edge 369, Type (0, 0), BuildingBlock: OJICUG_clean_linker_0, # of connection points: 2
#     Edge 370, Type (0, 0), BuildingBlock: OJICUG_clean_linker_0, # of connection points: 2
#     Edge 371, Type (0, 0), BuildingBlock: OJICUG_clean_linker_0, # of connection points: 2
#     Edge 372, Type (0, 0), BuildingBlock: OJICUG_clean_linker_0, # of connection points: 2
#     Edge 373, Type (0, 0), BuildingBlock: OJICUG_clean_linker_0, # of connection points: 2
#     Edge 374, Type (0, 0), BuildingBlock: OJICUG_clean_linker_0, # of connection points: 2
#     Edge 375, Type (0, 0), BuildingBlock: OJICUG_clean_linker_0, # of connection points: 2
#     Edge 376, Type (0, 0), BuildingBlock: OJICUG_clean_linker_0, # of connection points: 2
#     Edge 377, Type (0, 0), BuildingBlock: OJICUG_clean_linker_0, # of connection points: 2
#     Edge 378, Type (0, 0), BuildingBlock: OJICUG_clean_linker_0, # of connection points: 2
#     Edge 379, Type (0, 0), BuildingBlock: OJICUG_clean_linker_0, # of connection points: 2
#     Edge 380, Type (0, 0), BuildingBlock: OJICUG_clean_linker_0, # of connection points: 2
#     Edge 381, Type (0, 0), BuildingBlock: OJICUG_clean_linker_0, # of connection points: 2
#     Edge 382, Type (0, 0), BuildingBlock: OJICUG_clean_linker_0, # of connection points: 2
#     Edge 383, Type (0, 0), BuildingBlock: OJICUG_clean_linker_0, # of connection points: 2
#     Edge 384, Type (0, 0), BuildingBlock: OJICUG_clean_linker_0, # of connection points: 2
#     Edge 385, Type (0, 0), BuildingBlock: OJICUG_clean_linker_0, # of connection points: 2
#     Edge 386, Type (0, 0), BuildingBlock: OJICUG_clean_linker_0, # of connection points: 2
#     Edge 387, Type (0, 0), BuildingBlock: OJICUG_clean_linker_0, # of connection points: 2
#     Edge 388, Type (0, 0), BuildingBlock: OJICUG_clean_linker_0, # of connection points: 2
#     Edge 389, Type (0, 0), BuildingBlock: OJICUG_clean_linker_0, # of connection points: 2
#     Edge 390, Type (0, 0), BuildingBlock: OJICUG_clean_linker_0, # of connection points: 2
#     Edge 391, Type (0, 0), BuildingBlock: OJICUG_clean_linker_0, # of connection points: 2
#     Edge 392, Type (0, 0), BuildingBlock: OJICUG_clean_linker_0, # of connection points: 2
#     Edge 393, Type (0, 0), BuildingBlock: OJICUG_clean_linker_0, # of connection points: 2
#     Edge 394, Type (0, 0), BuildingBlock: OJICUG_clean_linker_0, # of connection points: 2
#     Edge 395, Type (0, 0), BuildingBlock: OJICUG_clean_linker_0, # of connection points: 2
#     Edge 396, Type (0, 0), BuildingBlock: OJICUG_clean_linker_0, # of connection points: 2
#     Edge 397, Type (0, 0), BuildingBlock: OJICUG_clean_linker_0, # of connection points: 2
#     Edge 398, Type (0, 0), BuildingBlock: OJICUG_clean_linker_0, # of connection points: 2
#     Edge 399, Type (0, 0), BuildingBlock: OJICUG_clean_linker_0, # of connection points: 2
#     Edge 400, Type (0, 0), BuildingBlock: OJICUG_clean_linker_0, # of connection points: 2
#     Edge 401, Type (0, 0), BuildingBlock: OJICUG_clean_linker_0, # of connection points: 2
#     Edge 402, Type (0, 0), BuildingBlock: OJICUG_clean_linker_0, # of connection points: 2
#     Edge 403, Type (0, 0), BuildingBlock: OJICUG_clean_linker_0, # of connection points: 2
#     Edge 404, Type (0, 0), BuildingBlock: OJICUG_clean_linker_0, # of connection points: 2
#     Edge 405, Type (0, 0), BuildingBlock: OJICUG_clean_linker_0, # of connection points: 2
#     Edge 406, Type (0, 0), BuildingBlock: OJICUG_clean_linker_0, # of connection points: 2
#     Edge 407, Type (0, 0), BuildingBlock: OJICUG_clean_linker_0, # of connection points: 2
#     Edge 408, Type (0, 0), BuildingBlock: OJICUG_clean_linker_0, # of connection points: 2
#     Edge 409, Type (0, 0), BuildingBlock: OJICUG_clean_linker_0, # of connection points: 2
#     Edge 410, Type (0, 0), BuildingBlock: OJICUG_clean_linker_0, # of connection points: 2
#     Edge 411, Type (0, 0), BuildingBlock: OJICUG_clean_linker_0, # of connection points: 2
#     Edge 412, Type (0, 0), BuildingBlock: OJICUG_clean_linker_0, # of connection points: 2
#     Edge 413, Type (0, 0), BuildingBlock: OJICUG_clean_linker_0, # of connection points: 2
#     Edge 414, Type (0, 0), BuildingBlock: OJICUG_clean_linker_0, # of connection points: 2
#     Edge 415, Type (0, 0), BuildingBlock: OJICUG_clean_linker_0, # of connection points: 2
#     Edge 416, Type (0, 0), BuildingBlock: OJICUG_clean_linker_0, # of connection points: 2
#     Edge 417, Type (0, 0), BuildingBlock: OJICUG_clean_linker_0, # of connection points: 2
#     Edge 418, Type (0, 0), BuildingBlock: OJICUG_clean_linker_0, # of connection points: 2
#     Edge 419, Type (0, 0), BuildingBlock: OJICUG_clean_linker_0, # of connection points: 2
#     Edge 420, Type (0, 0), BuildingBlock: OJICUG_clean_linker_0, # of connection points: 2
#     Edge 421, Type (0, 0), BuildingBlock: OJICUG_clean_linker_0, # of connection points: 2
#     Edge 422, Type (0, 0), BuildingBlock: OJICUG_clean_linker_0, # of connection points: 2
#     Edge 423, Type (0, 0), BuildingBlock: OJICUG_clean_linker_0, # of connection points: 2
#     Edge 424, Type (0, 0), BuildingBlock: OJICUG_clean_linker_0, # of connection points: 2
#     Edge 425, Type (0, 0), BuildingBlock: OJICUG_clean_linker_0, # of connection points: 2
#     Edge 426, Type (0, 0), BuildingBlock: OJICUG_clean_linker_0, # of connection points: 2
#     Edge 427, Type (0, 0), BuildingBlock: OJICUG_clean_linker_0, # of connection points: 2
#     Edge 428, Type (0, 0), BuildingBlock: OJICUG_clean_linker_0, # of connection points: 2
#     Edge 429, Type (0, 0), BuildingBlock: OJICUG_clean_linker_0, # of connection points: 2
#     Edge 430, Type (0, 0), BuildingBlock: OJICUG_clean_linker_0, # of connection points: 2
#     Edge 431, Type (0, 0), BuildingBlock: OJICUG_clean_linker_0, # of connection points: 2
#     Edge 432, Type (0, 0), BuildingBlock: OJICUG_clean_linker_0, # of connection points: 2
#     Edge 433, Type (0, 0), BuildingBlock: OJICUG_clean_linker_0, # of connection points: 2
#     Edge 434, Type (0, 0), BuildingBlock: OJICUG_clean_linker_0, # of connection points: 2
#     Edge 435, Type (0, 0), BuildingBlock: OJICUG_clean_linker_0, # of connection points: 2
#     Edge 436, Type (0, 0), BuildingBlock: OJICUG_clean_linker_0, # of connection points: 2
#     Edge 437, Type (0, 0), BuildingBlock: OJICUG_clean_linker_0, # of connection points: 2
#     Edge 438, Type (0, 0), BuildingBlock: OJICUG_clean_linker_0, # of connection points: 2
#     Edge 439, Type (0, 0), BuildingBlock: OJICUG_clean_linker_0, # of connection points: 2
#     Edge 440, Type (0, 0), BuildingBlock: OJICUG_clean_linker_0, # of connection points: 2
#     Edge 441, Type (0, 0), BuildingBlock: OJICUG_clean_linker_0, # of connection points: 2
#     Edge 442, Type (0, 0), BuildingBlock: OJICUG_clean_linker_0, # of connection points: 2
#     Edge 443, Type (0, 0), BuildingBlock: OJICUG_clean_linker_0, # of connection points: 2
#     Edge 444, Type (0, 0), BuildingBlock: OJICUG_clean_linker_0, # of connection points: 2
#     Edge 445, Type (0, 0), BuildingBlock: OJICUG_clean_linker_0, # of connection points: 2
#     Edge 446, Type (0, 0), BuildingBlock: OJICUG_clean_linker_0, # of connection points: 2
#     Edge 447, Type (0, 0), BuildingBlock: OJICUG_clean_linker_0, # of connection points: 2
#     Edge 448, Type (0, 0), BuildingBlock: OJICUG_clean_linker_0, # of connection points: 2
#     Edge 449, Type (0, 0), BuildingBlock: OJICUG_clean_linker_0, # of connection points: 2
#     Edge 450, Type (0, 0), BuildingBlock: OJICUG_clean_linker_0, # of connection points: 2
#     Edge 451, Type (0, 0), BuildingBlock: OJICUG_clean_linker_0, # of connection points: 2
#     Edge 452, Type (0, 0), BuildingBlock: OJICUG_clean_linker_0, # of connection points: 2
#     Edge 453, Type (0, 0), BuildingBlock: OJICUG_clean_linker_0, # of connection points: 2
#     Edge 454, Type (0, 0), BuildingBlock: OJICUG_clean_linker_0, # of connection points: 2
#     Edge 455, Type (0, 0), BuildingBlock: OJICUG_clean_linker_0, # of connection points: 2
#     Edge 456, Type (0, 0), BuildingBlock: OJICUG_clean_linker_0, # of connection points: 2
#     Edge 457, Type (0, 0), BuildingBlock: OJICUG_clean_linker_0, # of connection points: 2
#     Edge 458, Type (0, 0), BuildingBlock: OJICUG_clean_linker_0, # of connection points: 2
#     Edge 459, Type (0, 0), BuildingBlock: OJICUG_clean_linker_0, # of connection points: 2
#     Edge 460, Type (0, 0), BuildingBlock: OJICUG_clean_linker_0, # of connection points: 2
#     Edge 461, Type (0, 0), BuildingBlock: OJICUG_clean_linker_0, # of connection points: 2
#     Edge 462, Type (0, 0), BuildingBlock: OJICUG_clean_linker_0, # of connection points: 2
#     Edge 463, Type (0, 0), BuildingBlock: OJICUG_clean_linker_0, # of connection points: 2
#     Edge 464, Type (0, 0), BuildingBlock: OJICUG_clean_linker_0, # of connection points: 2
#     Edge 465, Type (0, 0), BuildingBlock: OJICUG_clean_linker_0, # of connection points: 2
#     Edge 466, Type (0, 0), BuildingBlock: OJICUG_clean_linker_0, # of connection points: 2
#     Edge 467, Type (0, 0), BuildingBlock: OJICUG_clean_linker_0, # of connection points: 2
#     Edge 468, Type (0, 0), BuildingBlock: OJICUG_clean_linker_0, # of connection points: 2
#     Edge 469, Type (0, 0), BuildingBlock: OJICUG_clean_linker_0, # of connection points: 2
#     Edge 470, Type (0, 0), BuildingBlock: OJICUG_clean_linker_0, # of connection points: 2
#     Edge 471, Type (0, 0), BuildingBlock: OJICUG_clean_linker_0, # of connection points: 2
#     Edge 472, Type (0, 0), BuildingBlock: OJICUG_clean_linker_0, # of connection points: 2
#     Edge 473, Type (0, 0), BuildingBlock: OJICUG_clean_linker_0, # of connection points: 2
#     Edge 474, Type (0, 0), BuildingBlock: OJICUG_clean_linker_0, # of connection points: 2
#     Edge 475, Type (0, 0), BuildingBlock: OJICUG_clean_linker_0, # of connection points: 2
#     Edge 476, Type (0, 0), BuildingBlock: OJICUG_clean_linker_0, # of connection points: 2
#     Edge 477, Type (0, 0), BuildingBlock: OJICUG_clean_linker_0, # of connection points: 2
#     Edge 478, Type (0, 0), BuildingBlock: OJICUG_clean_linker_0, # of connection points: 2
#     Edge 479, Type (0, 0), BuildingBlock: OJICUG_clean_linker_0, # of connection points: 2
#     Edge 480, Type (0, 0), BuildingBlock: OJICUG_clean_linker_0, # of connection points: 2
#     Edge 481, Type (0, 0), BuildingBlock: OJICUG_clean_linker_0, # of connection points: 2
#     Edge 482, Type (0, 0), BuildingBlock: OJICUG_clean_linker_0, # of connection points: 2
#     Edge 483, Type (0, 0), BuildingBlock: OJICUG_clean_linker_0, # of connection points: 2
#     Edge 484, Type (0, 0), BuildingBlock: OJICUG_clean_linker_0, # of connection points: 2
#     Edge 485, Type (0, 0), BuildingBlock: OJICUG_clean_linker_0, # of connection points: 2
#     Edge 486, Type (0, 0), BuildingBlock: OJICUG_clean_linker_0, # of connection points: 2
#     Edge 487, Type (0, 0), BuildingBlock: OJICUG_clean_linker_0, # of connection points: 2
#     Edge 488, Type (0, 0), BuildingBlock: OJICUG_clean_linker_0, # of connection points: 2
#     Edge 489, Type (0, 0), BuildingBlock: OJICUG_clean_linker_0, # of connection points: 2
#     Edge 490, Type (0, 0), BuildingBlock: OJICUG_clean_linker_0, # of connection points: 2
#     Edge 491, Type (0, 0), BuildingBlock: OJICUG_clean_linker_0, # of connection points: 2
#     Edge 492, Type (0, 0), BuildingBlock: OJICUG_clean_linker_0, # of connection points: 2
#     Edge 493, Type (0, 0), BuildingBlock: OJICUG_clean_linker_0, # of connection points: 2
#     Edge 494, Type (0, 0), BuildingBlock: OJICUG_clean_linker_0, # of connection points: 2
#     Edge 495, Type (0, 0), BuildingBlock: OJICUG_clean_linker_0, # of connection points: 2
#     Edge 496, Type (0, 0), BuildingBlock: OJICUG_clean_linker_0, # of connection points: 2
#     Edge 497, Type (0, 0), BuildingBlock: OJICUG_clean_linker_0, # of connection points: 2
#     Edge 498, Type (0, 0), BuildingBlock: OJICUG_clean_linker_0, # of connection points: 2
#     Edge 499, Type (0, 0), BuildingBlock: OJICUG_clean_linker_0, # of connection points: 2
#     Edge 500, Type (0, 0), BuildingBlock: OJICUG_clean_linker_0, # of connection points: 2
#     Edge 501, Type (0, 0), BuildingBlock: OJICUG_clean_linker_0, # of connection points: 2
#     Edge 502, Type (0, 0), BuildingBlock: OJICUG_clean_linker_0, # of connection points: 2
#     Edge 503, Type (0, 0), BuildingBlock: OJICUG_clean_linker_0, # of connection points: 2
#     Edge 504, Type (0, 0), BuildingBlock: OJICUG_clean_linker_0, # of connection points: 2
#     Edge 505, Type (0, 0), BuildingBlock: OJICUG_clean_linker_0, # of connection points: 2
#     Edge 506, Type (0, 0), BuildingBlock: OJICUG_clean_linker_0, # of connection points: 2
#     Edge 507, Type (0, 0), BuildingBlock: OJICUG_clean_linker_0, # of connection points: 2
#     Edge 508, Type (0, 0), BuildingBlock: OJICUG_clean_linker_0, # of connection points: 2
#     Edge 509, Type (0, 0), BuildingBlock: OJICUG_clean_linker_0, # of connection points: 2
#     Edge 510, Type (0, 0), BuildingBlock: OJICUG_clean_linker_0, # of connection points: 2
#     Edge 511, Type (0, 0), BuildingBlock: OJICUG_clean_linker_0, # of connection points: 2
#     Edge 512, Type (0, 0), BuildingBlock: OJICUG_clean_linker_0, # of connection points: 2
#     Edge 513, Type (0, 0), BuildingBlock: OJICUG_clean_linker_0, # of connection points: 2
#     Edge 514, Type (0, 0), BuildingBlock: OJICUG_clean_linker_0, # of connection points: 2
#     Edge 515, Type (0, 0), BuildingBlock: OJICUG_clean_linker_0, # of connection points: 2
#     Edge 516, Type (0, 0), BuildingBlock: OJICUG_clean_linker_0, # of connection points: 2
#     Edge 517, Type (0, 0), BuildingBlock: OJICUG_clean_linker_0, # of connection points: 2
#     Edge 518, Type (0, 0), BuildingBlock: OJICUG_clean_linker_0, # of connection points: 2
#     Edge 519, Type (0, 0), BuildingBlock: OJICUG_clean_linker_0, # of connection points: 2
#     Edge 520, Type (0, 0), BuildingBlock: OJICUG_clean_linker_0, # of connection points: 2
#     Edge 521, Type (0, 0), BuildingBlock: OJICUG_clean_linker_0, # of connection points: 2
#     Edge 522, Type (0, 0), BuildingBlock: OJICUG_clean_linker_0, # of connection points: 2
#     Edge 523, Type (0, 0), BuildingBlock: OJICUG_clean_linker_0, # of connection points: 2
#     Edge 524, Type (0, 0), BuildingBlock: OJICUG_clean_linker_0, # of connection points: 2
#     Edge 525, Type (0, 0), BuildingBlock: OJICUG_clean_linker_0, # of connection points: 2
#     Edge 526, Type (0, 0), BuildingBlock: OJICUG_clean_linker_0, # of connection points: 2
#     Edge 527, Type (0, 0), BuildingBlock: OJICUG_clean_linker_0, # of connection points: 2
#     Edge 528, Type (0, 0), BuildingBlock: OJICUG_clean_linker_0, # of connection points: 2
#     Edge 529, Type (0, 0), BuildingBlock: OJICUG_clean_linker_0, # of connection points: 2
#     Edge 530, Type (0, 0), BuildingBlock: OJICUG_clean_linker_0, # of connection points: 2
#     Edge 531, Type (0, 0), BuildingBlock: OJICUG_clean_linker_0, # of connection points: 2
#     Edge 532, Type (0, 0), BuildingBlock: OJICUG_clean_linker_0, # of connection points: 2
#     Edge 533, Type (0, 0), BuildingBlock: OJICUG_clean_linker_0, # of connection points: 2
#     Edge 534, Type (0, 0), BuildingBlock: OJICUG_clean_linker_0, # of connection points: 2
#     Edge 535, Type (0, 0), BuildingBlock: OJICUG_clean_linker_0, # of connection points: 2
#     Edge 536, Type (0, 0), BuildingBlock: OJICUG_clean_linker_0, # of connection points: 2
#     Edge 537, Type (0, 0), BuildingBlock: OJICUG_clean_linker_0, # of connection points: 2
#     Edge 538, Type (0, 0), BuildingBlock: OJICUG_clean_linker_0, # of connection points: 2
#     Edge 539, Type (0, 0), BuildingBlock: OJICUG_clean_linker_0, # of connection points: 2
#     Edge 540, Type (0, 0), BuildingBlock: OJICUG_clean_linker_0, # of connection points: 2
#     Edge 541, Type (0, 0), BuildingBlock: OJICUG_clean_linker_0, # of connection points: 2
#     Edge 542, Type (0, 0), BuildingBlock: OJICUG_clean_linker_0, # of connection points: 2
#     Edge 543, Type (0, 0), BuildingBlock: OJICUG_clean_linker_0, # of connection points: 2
#     Edge 544, Type (0, 0), BuildingBlock: OJICUG_clean_linker_0, # of connection points: 2
#     Edge 545, Type (0, 0), BuildingBlock: OJICUG_clean_linker_0, # of connection points: 2
#     Edge 546, Type (0, 0), BuildingBlock: OJICUG_clean_linker_0, # of connection points: 2
#     Edge 547, Type (0, 0), BuildingBlock: OJICUG_clean_linker_0, # of connection points: 2
#     Edge 548, Type (0, 0), BuildingBlock: OJICUG_clean_linker_0, # of connection points: 2
#     Edge 549, Type (0, 0), BuildingBlock: OJICUG_clean_linker_0, # of connection points: 2
#     Edge 550, Type (0, 0), BuildingBlock: OJICUG_clean_linker_0, # of connection points: 2
#     Edge 551, Type (0, 0), BuildingBlock: OJICUG_clean_linker_0, # of connection points: 2
#     Edge 552, Type (0, 0), BuildingBlock: OJICUG_clean_linker_0, # of connection points: 2
#     Edge 553, Type (0, 0), BuildingBlock: OJICUG_clean_linker_0, # of connection points: 2
#     Edge 554, Type (0, 0), BuildingBlock: OJICUG_clean_linker_0, # of connection points: 2
#     Edge 555, Type (0, 0), BuildingBlock: OJICUG_clean_linker_0, # of connection points: 2
#     Edge 556, Type (0, 0), BuildingBlock: OJICUG_clean_linker_0, # of connection points: 2
#     Edge 557, Type (0, 0), BuildingBlock: OJICUG_clean_linker_0, # of connection points: 2
#     Edge 558, Type (0, 0), BuildingBlock: OJICUG_clean_linker_0, # of connection points: 2
#     Edge 559, Type (0, 0), BuildingBlock: OJICUG_clean_linker_0, # of connection points: 2
#     Edge 560, Type (0, 0), BuildingBlock: OJICUG_clean_linker_0, # of connection points: 2
#     Edge 561, Type (0, 0), BuildingBlock: OJICUG_clean_linker_0, # of connection points: 2
#     Edge 562, Type (0, 0), BuildingBlock: OJICUG_clean_linker_0, # of connection points: 2
#     Edge 563, Type (0, 0), BuildingBlock: OJICUG_clean_linker_0, # of connection points: 2
#     Edge 564, Type (0, 0), BuildingBlock: OJICUG_clean_linker_0, # of connection points: 2
#     Edge 565, Type (0, 0), BuildingBlock: OJICUG_clean_linker_0, # of connection points: 2
#     Edge 566, Type (0, 0), BuildingBlock: OJICUG_clean_linker_0, # of connection points: 2
#     Edge 567, Type (0, 0), BuildingBlock: OJICUG_clean_linker_0, # of connection points: 2
#     Edge 568, Type (0, 0), BuildingBlock: OJICUG_clean_linker_0, # of connection points: 2
#     Edge 569, Type (0, 0), BuildingBlock: OJICUG_clean_linker_0, # of connection points: 2
#     Edge 570, Type (0, 0), BuildingBlock: OJICUG_clean_linker_0, # of connection points: 2
#     Edge 571, Type (0, 0), BuildingBlock: OJICUG_clean_linker_0, # of connection points: 2
#     Edge 572, Type (0, 0), BuildingBlock: OJICUG_clean_linker_0, # of connection points: 2
#     Edge 573, Type (0, 0), BuildingBlock: OJICUG_clean_linker_0, # of connection points: 2
#     Edge 574, Type (0, 0), BuildingBlock: OJICUG_clean_linker_0, # of connection points: 2
#     Edge 575, Type (0, 0), BuildingBlock: OJICUG_clean_linker_0, # of connection points: 2
# Relax obj value: 0.096
# Max RMSD: 0.097
# Mean RMSD: 0.097
data_MOF--net-fau--node1-KUFVIS_clean_sbu_0--edge1-OJICUG_clean_linker_0
_symmetry_space_group_name_H-M    P1
_symmetry_Int_Tables_number       1
_symmetry_cell_setting            triclinic
loop_
_symmetry_equiv_pos_as_xyz
'x, y, z'
_cell_length_a     87.004527
_cell_length_b     86.999228
_cell_length_c     86.963373
_cell_angle_alpha  90.016691
_cell_angle_beta   89.99591
_cell_angle_gamma 89.977336
loop_
_atom_site_label
_atom_site_type_symbol
_atom_site_fract_x
_atom_site_fract_y
_atom_site_fract_z
_atom_type_partial_charge
Mn0 Mn 0.03668 0.12527 0.44841 0.0
Mn1 Mn 0.02644 0.08997 0.46107 0.0
C2 C 0.05267 0.10415 0.44384 0.0
C3 C 0.04935 0.14867 0.45366 0.0
C4 C 0.01204 0.10575 0.43331 0.0
O5 O 0.01935 0.12979 0.46415 0.0
O6 O 0.01741 0.10611 0.47449 0.0
C7 C 0.0421 0.09155 0.49076 0.0
N8 N 0.04034 0.08375 0.47744 0.0
C9 C 0.04843 0.05838 0.49038 0.0
C10 C 0.0507 0.06847 0.50382 0.0
C11 C 0.04814 0.08433 0.5036 0.0
C12 C 0.04675 0.06973 0.47574 0.0
H13 H 0.0388 0.10345 0.4916 0.0
C14 C 0.01432 0.12049 0.47441 0.0
O15 O 0.03899 0.14768 0.44293 0.0
O16 O 0.05183 0.13633 0.46159 0.0
N17 N 0.03319 0.07237 0.44883 0.0
C18 C 0.02113 0.06505 0.43645 0.0
C19 C 0.01843 0.04513 0.43246 0.0
C20 C 0.02853 0.02986 0.44119 0.0
C21 C 0.04258 0.03358 0.45533 0.0
C22 C 0.04492 0.06303 0.45947 0.0
H23 H 0.013 0.07246 0.43085 0.0
O24 O 0.05421 0.11663 0.43585 0.0
O25 O 0.04195 0.10449 0.45409 0.0
O26 O 0.02114 0.11726 0.43243 0.0
O27 O 0.01212 0.09608 0.44441 0.0
C28 C 0.04413 0.02225 0.46917 0.0
C29 C 0.04638 0.02915 0.48589 0.0
H30 H 0.05398 0.06465 0.51519 0.0
H31 H 0.04976 0.09095 0.51403 0.0
H32 H 0.00949 0.04213 0.42436 0.0
H33 H 0.02496 0.01816 0.43899 0.0
H34 H 0.04186 0.01013 0.46765 0.0
H35 H 0.04683 0.01948 0.49402 0.0
Mn36 Mn 0.87806 0.29551 0.70288 0.0
Mn37 Mn 0.91317 0.28756 0.71715 0.0
C38 C 0.89848 0.31225 0.69919 0.0
C39 C 0.85387 0.30783 0.70482 0.0
C40 C 0.90239 0.27463 0.68716 0.0
O41 O 0.87269 0.27858 0.7185 0.0
O42 O 0.89722 0.27264 0.72368 0.0
C43 C 0.90283 0.29406 0.74991 0.0
N44 N 0.91326 0.29569 0.73834 0.0
C45 C 0.93412 0.3004 0.76057 0.0
C46 C 0.9219 0.29977 0.77086 0.0
C47 C 0.90672 0.29693 0.76556 0.0
C48 C 0.92728 0.30015 0.74183 0.0
H49 H 0.8912 0.29061 0.74725 0.0
C50 C 0.88283 0.26994 0.72467 0.0
O51 O 0.8562 0.29682 0.69496 0.0
O52 O 0.86518 0.31088 0.71397 0.0
N53 N 0.93151 0.29996 0.7115 0.0
C54 C 0.93886 0.30105 0.69611 0.0
C55 C 0.95689 0.30357 0.69301 0.0
C56 C 0.97574 0.30542 0.71596 0.0
C57 C 0.96644 0.30422 0.73198 0.0
C58 C 0.93855 0.30166 0.72643 0.0
H59 H 0.93186 0.29872 0.68611 0.0
O60 O 0.88676 0.31238 0.69003 0.0
O61 O 0.89795 0.30266 0.71063 0.0
O62 O 0.88835 0.27904 0.68861 0.0
O63 O 0.91311 0.27838 0.69647 0.0
C64 C 0.97048 0.30428 0.75224 0.0
C65 C 0.95423 0.30221 0.76627 0.0
H66 H 0.92389 0.30181 0.78294 0.0
H67 H 0.89762 0.29636 0.77402 0.0
H68 H 0.95904 0.30393 0.68056 0.0
H69 H 0.98823 0.30686 0.7167 0.0
H70 H 0.98371 0.30563 0.7544 0.0
H71 H 0.96389 0.30339 0.76043 0.0
Mn72 Mn 0.70952 0.12579 0.95233 0.0
Mn73 Mn 0.71905 0.16119 0.96594 0.0
C74 C 0.69277 0.14614 0.95026 0.0
C75 C 0.69768 0.1015 0.95459 0.0
C76 C 0.72883 0.14988 0.93478 0.0
O77 O 0.7273 0.12041 0.96655 0.0
O78 O 0.73398 0.14484 0.97181 0.0
C79 C 0.71721 0.1535 0.99994 0.0
N80 N 0.71313 0.16277 0.98794 0.0
C81 C 0.71113 0.1853 0.00916 0.0
C82 C 0.71503 0.17426 0.02 0.0
C83 C 0.71764 0.15882 0.01546 0.0
C84 C 0.7091 0.17713 0.99097 0.0
H85 H 0.72066 0.14179 0.99771 0.0
C86 C 0.73629 0.13032 0.9725 0.0
O87 O 0.70797 0.10417 0.9441 0.0
O88 O 0.69508 0.11255 0.96424 0.0
N89 N 0.70653 0.17955 0.96048 0.0
C90 C 0.70414 0.18603 0.94483 0.0
C91 C 0.70191 0.20394 0.94083 0.0
C92 C 0.70288 0.22415 0.96266 0.0
C93 C 0.70526 0.21578 0.979 0.0
C94 C 0.7064 0.1875 0.97503 0.0
H95 H 0.70516 0.17838 0.93514 0.0
O96 O 0.69187 0.13447 0.94106 0.0
O97 O 0.70321 0.14577 0.961 0.0
O98 O 0.72462 0.13587 0.93658 0.0
O99 O 0.72631 0.16042 0.94464 0.0
C100 C 0.70733 0.22108 0.99881 0.0
C101 C 0.71041 0.20575 0.01358 0.0
H102 H 0.71656 0.17757 0.03189 0.0
H103 H 0.72096 0.1507 0.02428 0.0
H104 H 0.70042 0.20538 0.92837 0.0
H105 H 0.70195 0.23671 0.96278 0.0
H106 H 0.70655 0.23448 1.00022 0.0
H107 H 0.70884 0.21501 0.00724 0.0
Mn108 Mn 0.87493 0.95954 0.19622 0.0
Mn109 Mn 0.84034 0.97028 0.21093 0.0
C110 C 0.85353 0.94372 0.19347 0.0
C111 C 0.89863 0.9464 0.19969 0.0
C112 C 0.85496 0.9845 0.18235 0.0
O113 O 0.88016 0.97734 0.2111 0.0
O114 O 0.85717 0.97941 0.22315 0.0
C115 C 0.8423 0.9559 0.24133 0.0
N116 N 0.83439 0.9569 0.22798 0.0
C117 C 0.80912 0.94941 0.24186 0.0
C118 C 0.81948 0.94743 0.2551 0.0
C119 C 0.8353 0.95022 0.2545 0.0
C120 C 0.8202 0.95064 0.22686 0.0
H121 H 0.85412 0.95961 0.24201 0.0
C122 C 0.87136 0.9829 0.22157 0.0
O123 O 0.89693 0.95687 0.18916 0.0
O124 O 0.88696 0.94434 0.20871 0.0
N125 N 0.82226 0.96355 0.19953 0.0
C126 C 0.81474 0.97541 0.18708 0.0
C127 C 0.79476 0.97825 0.18356 0.0
C128 C 0.77964 0.96853 0.19292 0.0
C129 C 0.78358 0.95477 0.20727 0.0
C130 C 0.8131 0.95218 0.21072 0.0
H131 H 0.8221 0.9832 0.18094 0.0
O132 O 0.8654 0.94192 0.18464 0.0
O133 O 0.85454 0.95459 0.2035 0.0
O134 O 0.86608 0.97506 0.18059 0.0
O135 O 0.84588 0.98437 0.19392 0.0
C136 C 0.77258 0.95365 0.22138 0.0
C137 C 0.77985 0.95173 0.23796 0.0
H138 H 0.81587 0.94436 0.2666 0.0
H139 H 0.84208 0.94907 0.26488 0.0
H140 H 0.79163 0.98701 0.17531 0.0
H141 H 0.76792 0.97215 0.19093 0.0
H142 H 0.76045 0.95604 0.2201 0.0
H143 H 0.77034 0.95164 0.2463 0.0
Mn144 Mn 0.04576 0.12559 0.80054 0.0
Mn145 Mn 0.03502 0.16115 0.78835 0.0
C146 C 0.06213 0.14624 0.80273 0.0
C147 C 0.05797 0.10156 0.79715 0.0
C148 C 0.02667 0.14882 0.81957 0.0
O149 O 0.02759 0.12028 0.78675 0.0
O150 O 0.02006 0.14467 0.78255 0.0
C151 C 0.03593 0.15415 0.75418 0.0
N152 N 0.04021 0.16327 0.76622 0.0
C153 C 0.04139 0.18614 0.74536 0.0
C154 C 0.03732 0.17524 0.73443 0.0
C155 C 0.03502 0.15971 0.73877 0.0
C156 C 0.04406 0.1777 0.76333 0.0
H157 H 0.03271 0.14236 0.75627 0.0
C158 C 0.0181 0.13011 0.78144 0.0
O159 O 0.04797 0.10378 0.80802 0.0
O160 O 0.06008 0.11293 0.78776 0.0
N161 N 0.04743 0.17966 0.79379 0.0
C162 C 0.05017 0.18596 0.80948 0.0
C163 C 0.05224 0.20386 0.81371 0.0
C164 C 0.05031 0.22437 0.79223 0.0
C165 C 0.04762 0.21621 0.77585 0.0
C166 C 0.04706 0.18786 0.77938 0.0
H167 H 0.0495 0.17816 0.81907 0.0
O168 O 0.06361 0.13429 0.81148 0.0
O169 O 0.05134 0.14595 0.79233 0.0
O170 O 0.03107 0.13495 0.81715 0.0
O171 O 0.02856 0.1597 0.80993 0.0
C172 C 0.04491 0.22179 0.75621 0.0
C173 C 0.04168 0.20666 0.74127 0.0
H174 H 0.03541 0.17872 0.72264 0.0
H175 H 0.03156 0.15169 0.7299 0.0
H176 H 0.05408 0.20514 0.82614 0.0
H177 H 0.05103 0.23694 0.79229 0.0
H178 H 0.04541 0.23521 0.75503 0.0
H179 H 0.04327 0.21584 0.74773 0.0
Mn180 Mn 0.87627 0.29099 0.05906 0.0
Mn181 Mn 0.84307 0.28022 0.04212 0.0
C182 C 0.85483 0.30698 0.06068 0.0
C183 C 0.90006 0.30368 0.05645 0.0
C184 C 0.85586 0.26605 0.07152 0.0
O185 O 0.88235 0.27294 0.04485 0.0
O186 O 0.86073 0.27174 0.03053 0.0
C187 C 0.84653 0.29566 0.01239 0.0
N188 N 0.83792 0.29411 0.02525 0.0
C189 C 0.81353 0.30272 0.01053 0.0
C190 C 0.8246 0.30526 0.99798 0.0
C191 C 0.84032 0.30214 0.99921 0.0
C192 C 0.82378 0.30054 0.02598 0.0
H193 H 0.85833 0.29184 0.01211 0.0
C194 C 0.87458 0.26779 0.03343 0.0
O195 O 0.89783 0.29355 0.06721 0.0
O196 O 0.88884 0.30573 0.04688 0.0
N197 N 0.82429 0.28623 0.05265 0.0
C198 C 0.81605 0.27377 0.06401 0.0
C199 C 0.79589 0.27097 0.06634 0.0
C200 C 0.78135 0.28135 0.05675 0.0
C201 C 0.78614 0.29582 0.04339 0.0
C202 C 0.81582 0.29825 0.04163 0.0
H203 H 0.82301 0.26549 0.06997 0.0
O204 O 0.86632 0.3088 0.06999 0.0
O205 O 0.85636 0.29605 0.05074 0.0
O206 O 0.86641 0.27586 0.07427 0.0
O207 O 0.84797 0.26578 0.05909 0.0
C208 C 0.77591 0.29781 0.02879 0.0
C209 C 0.78406 0.30053 0.01273 0.0
H210 H 0.82166 0.30902 0.98649 0.0
H211 H 0.84764 0.30371 0.98926 0.0
H212 H 0.79227 0.26179 0.0739 0.0
H213 H 0.76951 0.27775 0.05792 0.0
H214 H 0.76371 0.2955 0.02931 0.0
H215 H 0.77503 0.3012 0.0039 0.0
Mn216 Mn 0.7083 0.12585 0.29782 0.0
Mn217 Mn 0.71816 0.09014 0.28563 0.0
C218 C 0.69192 0.10544 0.30117 0.0
C219 C 0.69627 0.14985 0.29446 0.0
C220 C 0.72834 0.10278 0.31594 0.0
O221 O 0.72569 0.1309 0.28316 0.0
O222 O 0.73301 0.10641 0.2792 0.0
C223 C 0.7162 0.09664 0.25141 0.0
N224 N 0.71218 0.0878 0.26374 0.0
C225 C 0.71 0.06456 0.24331 0.0
C226 C 0.71386 0.07521 0.23207 0.0
C227 C 0.71654 0.09079 0.23608 0.0
C228 C 0.70816 0.07334 0.26123 0.0
H229 H 0.71967 0.10841 0.25319 0.0
C230 C 0.73499 0.12094 0.27785 0.0
O231 O 0.70669 0.14779 0.30497 0.0
O232 O 0.6935 0.13827 0.28552 0.0
N233 N 0.70577 0.07194 0.29181 0.0
C234 C 0.70347 0.066 0.3077 0.0
C235 C 0.70105 0.04825 0.31228 0.0
C236 C 0.70166 0.02734 0.29112 0.0
C237 C 0.70402 0.03515 0.27449 0.0
C238 C 0.70548 0.06352 0.27753 0.0
H239 H 0.70481 0.07391 0.31716 0.0
O240 O 0.69104 0.1175 0.30986 0.0
O241 O 0.70213 0.10548 0.29018 0.0
O242 O 0.72396 0.11666 0.31358 0.0
O243 O 0.72555 0.09171 0.30679 0.0
C244 C 0.70591 0.02918 0.25485 0.0
C245 C 0.70904 0.04399 0.23956 0.0
H246 H 0.71532 0.0715 0.22029 0.0
H247 H 0.71981 0.0986 0.22696 0.0
H248 H 0.69964 0.04725 0.3248 0.0
H249 H 0.70057 0.01479 0.29143 0.0
H250 H 0.705 0.01575 0.25391 0.0
H251 H 0.70743 0.03495 0.24622 0.0
Mn252 Mn 0.87819 0.9638 0.55368 0.0
Mn253 Mn 0.91307 0.97417 0.53956 0.0
C254 C 0.89941 0.94787 0.55716 0.0
C255 C 0.85472 0.95038 0.54962 0.0
C256 C 0.89853 0.98825 0.56832 0.0
O257 O 0.87307 0.98135 0.53835 0.0
O258 O 0.89631 0.98339 0.52688 0.0
C259 C 0.91129 0.95926 0.50931 0.0
N260 N 0.91903 0.9604 0.52274 0.0
C261 C 0.94415 0.95121 0.50952 0.0
C262 C 0.93391 0.9493 0.49619 0.0
C263 C 0.91822 0.95283 0.49645 0.0
C264 C 0.9329 0.95345 0.52429 0.0
H265 H 0.89963 0.96332 0.50835 0.0
C266 C 0.88195 0.98664 0.5278 0.0
O267 O 0.85598 0.96087 0.5602 0.0
O268 O 0.86664 0.94853 0.54092 0.0
N269 N 0.93099 0.96724 0.55117 0.0
C270 C 0.93884 0.97914 0.56337 0.0
C271 C 0.95887 0.98117 0.56716 0.0
C272 C 0.97369 0.97048 0.55836 0.0
C273 C 0.96936 0.95647 0.54436 0.0
C274 C 0.93981 0.95512 0.54049 0.0
H275 H 0.93178 0.98756 0.56902 0.0
O276 O 0.88731 0.94632 0.5657 0.0
O277 O 0.89872 0.95859 0.54693 0.0
O278 O 0.88698 0.97921 0.56951 0.0
O279 O 0.9076 0.98837 0.5567 0.0
C280 C 0.98051 0.95442 0.53048 0.0
C281 C 0.97343 0.95231 0.51386 0.0
H282 H 0.93755 0.94568 0.48485 0.0
H283 H 0.91154 0.95161 0.48601 0.0
H284 H 0.96226 0.99005 0.57517 0.0
H285 H 0.98553 0.97364 0.56044 0.0
H286 H 0.99271 0.95633 0.53189 0.0
H287 H 0.98305 0.95153 0.5057 0.0
Mn288 Mn 0.44489 0.04679 0.12642 0.0
Mn289 Mn 0.46108 0.0401 0.09238 0.0
C290 C 0.44283 0.06517 0.10644 0.0
C291 C 0.44844 0.05763 0.15114 0.0
C292 C 0.43353 0.02243 0.10528 0.0
O293 O 0.45994 0.0283 0.12982 0.0
O294 O 0.47459 0.03179 0.10869 0.0
C295 C 0.49007 0.0565 0.09397 0.0
N296 N 0.47673 0.0546 0.08625 0.0
C297 C 0.49022 0.05872 0.06022 0.0
C298 C 0.50365 0.06162 0.07017 0.0
C299 C 0.50322 0.06105 0.08623 0.0
C300 C 0.47546 0.05905 0.07147 0.0
H301 H 0.49075 0.05414 0.10614 0.0
C302 C 0.47158 0.02484 0.1213 0.0
O303 O 0.43771 0.04754 0.14857 0.0
O304 O 0.45745 0.0606 0.13971 0.0
N305 N 0.44808 0.04683 0.07522 0.0
C306 C 0.43494 0.03508 0.06911 0.0
C307 C 0.431 0.03022 0.04957 0.0
C308 C 0.4404 0.03799 0.03339 0.0
C309 C 0.45519 0.0516 0.03571 0.0
C310 C 0.45924 0.05697 0.06484 0.0
H311 H 0.42642 0.03159 0.07718 0.0
O312 O 0.43353 0.06574 0.11809 0.0
O313 O 0.45267 0.0542 0.10706 0.0
O314 O 0.42935 0.03172 0.1159 0.0
O315 O 0.44611 0.02437 0.098 0.0
C316 C 0.46918 0.05129 0.02446 0.0
C317 C 0.48591 0.05361 0.0313 0.0
H318 H 0.5152 0.06388 0.06615 0.0
H319 H 0.51369 0.06286 0.09271 0.0
H320 H 0.42166 0.02234 0.04738 0.0
H321 H 0.43791 0.03345 0.02208 0.0
H322 H 0.46771 0.04773 0.01264 0.0
H323 H 0.49415 0.05267 0.02175 0.0
Mn324 Mn 0.96258 0.69592 0.37718 0.0
Mn325 Mn 0.97294 0.71116 0.34319 0.0
C326 C 0.947 0.69201 0.35565 0.0
C327 C 0.94934 0.70083 0.4003 0.0
C328 C 0.98794 0.68286 0.35743 0.0
O329 O 0.98018 0.71079 0.38272 0.0
O330 O 0.98153 0.72349 0.36024 0.0
C331 C 0.9556 0.73953 0.34747 0.0
N332 N 0.95816 0.72717 0.33838 0.0
C333 C 0.94804 0.74156 0.31469 0.0
C334 C 0.94454 0.75358 0.32613 0.0
C335 C 0.94789 0.75223 0.34177 0.0
C336 C 0.9513 0.72611 0.32448 0.0
H337 H 0.9595 0.73973 0.35924 0.0
C338 C 0.98539 0.72161 0.37426 0.0
O339 O 0.95953 0.68991 0.39943 0.0
O340 O 0.94738 0.709 0.38805 0.0
N341 N 0.96725 0.70038 0.32446 0.0
C342 C 0.98053 0.69013 0.31606 0.0
C343 C 0.98371 0.68858 0.29586 0.0
C344 C 0.97286 0.69785 0.28145 0.0
C345 C 0.95746 0.71008 0.28643 0.0
C346 C 0.95462 0.71083 0.31614 0.0
H347 H 0.98908 0.68452 0.32303 0.0
O348 O 0.94517 0.68367 0.36785 0.0
O349 O 0.95763 0.70229 0.35665 0.0
O350 O 0.97849 0.68066 0.36853 0.0
O351 O 0.98765 0.69456 0.34843 0.0
C352 C 0.95454 0.72484 0.27659 0.0
C353 C 0.9506 0.74044 0.2852 0.0
H354 H 0.93988 0.76482 0.32355 0.0
H355 H 0.94554 0.76179 0.34941 0.0
H356 H 0.99341 0.68174 0.29215 0.0
H357 H 0.97667 0.69726 0.26962 0.0
H358 H 0.95699 0.72485 0.2644 0.0
H359 H 0.94933 0.74949 0.27645 0.0
Mn360 Mn 0.30551 0.20908 0.62777 0.0
Mn361 Mn 0.292 0.22149 0.59323 0.0
C362 C 0.3084 0.19389 0.60593 0.0
C363 C 0.30167 0.19616 0.65133 0.0
C364 C 0.32068 0.23384 0.609 0.0
O365 O 0.29125 0.22734 0.63317 0.0
O366 O 0.27943 0.23006 0.61015 0.0
C367 C 0.26166 0.20701 0.59402 0.0
N368 N 0.27506 0.20851 0.58627 0.0
C369 C 0.26154 0.2021 0.56058 0.0
C370 C 0.24824 0.19942 0.57071 0.0
C371 C 0.24865 0.20149 0.58665 0.0
C372 C 0.27642 0.20281 0.57183 0.0
H373 H 0.26085 0.21017 0.60599 0.0
C374 C 0.28099 0.23333 0.62442 0.0
O375 O 0.31243 0.20634 0.64961 0.0
O376 O 0.29256 0.19417 0.63967 0.0
N377 N 0.30365 0.21569 0.57491 0.0
C378 C 0.31601 0.22812 0.56821 0.0
C379 C 0.31964 0.23225 0.54848 0.0
C380 C 0.31047 0.22344 0.53269 0.0
C381 C 0.29623 0.20934 0.53563 0.0
C382 C 0.29262 0.20484 0.56494 0.0
H383 H 0.32182 0.23568 0.57602 0.0
O384 O 0.31667 0.19129 0.61807 0.0
O385 O 0.29861 0.20496 0.60701 0.0
O386 O 0.32178 0.22379 0.61956 0.0
O387 O 0.30917 0.23499 0.5999 0.0
C388 C 0.28219 0.20879 0.52449 0.0
C389 C 0.26559 0.20625 0.53152 0.0
H390 H 0.23682 0.1964 0.56685 0.0
H391 H 0.23821 0.19992 0.59327 0.0
H392 H 0.32779 0.24129 0.54599 0.0
H393 H 0.3125 0.22785 0.52125 0.0
H394 H 0.2835 0.21196 0.51254 0.0
H395 H 0.25731 0.20666 0.52197 0.0
Mn396 Mn 0.79142 0.5493 0.87571 0.0
Mn397 Mn 0.78281 0.53675 0.83977 0.0
C398 C 0.80891 0.55163 0.85605 0.0
C399 C 0.80191 0.54599 0.90029 0.0
C400 C 0.77329 0.56785 0.85161 0.0
O401 O 0.77329 0.53535 0.88013 0.0
O402 O 0.76727 0.53045 0.85547 0.0
C403 C 0.78411 0.50252 0.84643 0.0
N404 N 0.78863 0.51476 0.83771 0.0
C405 C 0.79127 0.49427 0.81458 0.0
C406 C 0.7869 0.48312 0.82512 0.0
C407 C 0.78376 0.48719 0.84059 0.0
C408 C 0.79315 0.51215 0.8234 0.0
H409 H 0.78024 0.5044 0.85807 0.0
C410 C 0.7646 0.52952 0.86993 0.0
O411 O 0.79209 0.55688 0.89748 0.0
O412 O 0.80496 0.53665 0.88907 0.0
N413 N 0.79599 0.54267 0.82206 0.0
C414 C 0.79871 0.5585 0.81619 0.0
C415 C 0.8015 0.56307 0.7985 0.0
C416 C 0.80103 0.54193 0.77756 0.0
C417 C 0.7983 0.52535 0.78531 0.0
C418 C 0.79629 0.52839 0.81365 0.0
H419 H 0.79767 0.56789 0.82416 0.0
O420 O 0.80959 0.56043 0.86805 0.0
O421 O 0.79827 0.54108 0.85576 0.0
O422 O 0.77712 0.56567 0.86566 0.0
O423 O 0.77571 0.5581 0.84094 0.0
C424 C 0.79628 0.50575 0.77928 0.0
C425 C 0.79263 0.49051 0.79402 0.0
H426 H 0.78535 0.47136 0.82136 0.0
H427 H 0.78007 0.47815 0.84831 0.0
H428 H 0.80312 0.57556 0.79752 0.0
H429 H 0.8023 0.54221 0.76504 0.0
H430 H 0.79747 0.5048 0.76588 0.0
H431 H 0.79453 0.49714 0.78502 0.0
Mn432 Mn 0.45499 0.20764 0.12892 0.0
Mn433 Mn 0.46609 0.21682 0.16514 0.0
C434 C 0.4515 0.19049 0.14897 0.0
C435 C 0.45922 0.19716 0.10448 0.0
C436 C 0.43568 0.22632 0.15192 0.0
O437 O 0.46912 0.22587 0.12472 0.0
O438 O 0.473 0.23201 0.14946 0.0
C439 C 0.50031 0.21344 0.15871 0.0
N440 N 0.4878 0.21057 0.1677 0.0
C441 C 0.50788 0.20805 0.19105 0.0
C442 C 0.51935 0.21008 0.18026 0.0
C443 C 0.51562 0.21234 0.16451 0.0
C444 C 0.49006 0.20664 0.18217 0.0
H445 H 0.4987 0.21664 0.14681 0.0
C446 C 0.47442 0.23474 0.13508 0.0
O447 O 0.44828 0.20701 0.10694 0.0
O448 O 0.46803 0.19389 0.11607 0.0
N449 N 0.45956 0.20437 0.18316 0.0
C450 C 0.44361 0.2022 0.18893 0.0
C451 C 0.43879 0.19983 0.20662 0.0
C452 C 0.4597 0.20018 0.22779 0.0
C453 C 0.47643 0.20241 0.22018 0.0
C454 C 0.47371 0.20408 0.19178 0.0
H455 H 0.43432 0.20334 0.18085 0.0
O456 O 0.44339 0.18956 0.13652 0.0
O457 O 0.46213 0.20103 0.14941 0.0
O458 O 0.43841 0.22214 0.13809 0.0
O459 O 0.4449 0.22412 0.1631 0.0
C460 C 0.49602 0.20401 0.22635 0.0
C461 C 0.51148 0.20696 0.21167 0.0
H462 H 0.53111 0.20957 0.18405 0.0
H463 H 0.52496 0.21382 0.15647 0.0
H464 H 0.42626 0.19852 0.20748 0.0
H465 H 0.45924 0.19905 0.24033 0.0
H466 H 0.49682 0.20304 0.23978 0.0
H467 H 0.50474 0.20544 0.22066 0.0
Mn468 Mn 0.79224 0.69974 0.37685 0.0
Mn469 Mn 0.78216 0.71502 0.41129 0.0
C470 C 0.80809 0.69645 0.39818 0.0
C471 C 0.80559 0.70297 0.35323 0.0
C472 C 0.76689 0.68688 0.39684 0.0
O473 O 0.77487 0.71516 0.37156 0.0
O474 O 0.77374 0.72787 0.39426 0.0
C475 C 0.7979 0.74479 0.4099 0.0
N476 N 0.79633 0.73134 0.41755 0.0
C477 C 0.80473 0.74436 0.44307 0.0
C478 C 0.8072 0.75769 0.43295 0.0
C479 C 0.80424 0.75752 0.41713 0.0
C480 C 0.80264 0.72967 0.4317 0.0
H481 H 0.79416 0.74587 0.39813 0.0
C482 C 0.77002 0.72622 0.38006 0.0
O483 O 0.7949 0.69264 0.35478 0.0
O484 O 0.80772 0.71188 0.36496 0.0
N485 N 0.78838 0.70309 0.42929 0.0
C486 C 0.77605 0.69107 0.43674 0.0
C487 C 0.77334 0.68726 0.45669 0.0
C488 C 0.78372 0.69582 0.47186 0.0
C489 C 0.79809 0.70958 0.46801 0.0
C490 C 0.80042 0.7135 0.43852 0.0
H491 H 0.76783 0.68551 0.42939 0.0
O492 O 0.8095 0.68758 0.38628 0.0
O493 O 0.79758 0.70688 0.3972 0.0
O494 O 0.77636 0.68458 0.38584 0.0
O495 O 0.76728 0.69871 0.40559 0.0
C496 C 0.80002 0.72338 0.47928 0.0
C497 C 0.80262 0.73998 0.47232 0.0
H498 H 0.81083 0.76895 0.43675 0.0
H499 H 0.80582 0.76797 0.41054 0.0
H500 H 0.76424 0.67938 0.45978 0.0
H501 H 0.78016 0.69377 0.4836 0.0
H502 H 0.79774 0.72196 0.49142 0.0
H503 H 0.80323 0.7481 0.48199 0.0
Mn504 Mn 0.30112 0.04747 0.62618 0.0
Mn505 Mn 0.28924 0.03782 0.66201 0.0
C506 C 0.3046 0.0641 0.64683 0.0
C507 C 0.29719 0.05962 0.60206 0.0
C508 C 0.31973 0.02779 0.64933 0.0
O509 O 0.28663 0.02937 0.62134 0.0
O510 O 0.28265 0.02311 0.646 0.0
C511 C 0.25554 0.04239 0.65403 0.0
N512 N 0.26764 0.04455 0.66374 0.0
C513 C 0.24658 0.04688 0.68615 0.0
C514 C 0.23561 0.04597 0.67464 0.0
C515 C 0.24003 0.04398 0.65905 0.0
C516 C 0.2648 0.0482 0.67817 0.0
H517 H 0.25766 0.03951 0.64213 0.0
C518 C 0.28126 0.02042 0.63165 0.0
O519 O 0.30793 0.04941 0.604 0.0
O520 O 0.28833 0.06203 0.61379 0.0
N521 N 0.29528 0.04973 0.68055 0.0
C522 C 0.311 0.0513 0.68705 0.0
C523 C 0.31509 0.05288 0.70501 0.0
C524 C 0.29329 0.05219 0.72526 0.0
C525 C 0.27684 0.0506 0.71686 0.0
C526 C 0.28076 0.05003 0.68856 0.0
H527 H 0.32063 0.05014 0.67934 0.0
O528 O 0.31294 0.06524 0.63456 0.0
O529 O 0.29389 0.0537 0.64673 0.0
O530 O 0.31737 0.0323 0.63546 0.0
O531 O 0.31038 0.03016 0.6604 0.0
C532 C 0.25693 0.04919 0.7221 0.0
C533 C 0.24207 0.0472 0.70663 0.0
H534 H 0.22372 0.04742 0.67761 0.0
H535 H 0.23105 0.04317 0.65048 0.0
H536 H 0.32759 0.05386 0.70644 0.0
H537 H 0.29324 0.05283 0.73784 0.0
H538 H 0.25553 0.04963 0.73551 0.0
H539 H 0.24843 0.04818 0.71598 0.0
Mn540 Mn 0.9574 0.55733 0.87689 0.0
Mn541 Mn 0.96394 0.54093 0.91093 0.0
C542 C 0.9394 0.56005 0.89705 0.0
C543 C 0.94594 0.55359 0.85259 0.0
C544 C 0.98173 0.56878 0.89844 0.0
O545 O 0.97514 0.54176 0.87271 0.0
O546 O 0.97286 0.52792 0.89451 0.0
C547 C 0.94689 0.51245 0.90711 0.0
N548 N 0.94899 0.5252 0.91572 0.0
C549 C 0.94209 0.51071 0.94048 0.0
C550 C 0.93903 0.49804 0.9296 0.0
C551 C 0.9409 0.49926 0.91369 0.0
C552 C 0.94329 0.52602 0.9301 0.0
H553 H 0.95007 0.51227 0.89511 0.0
C554 C 0.97842 0.53002 0.88106 0.0
O555 O 0.95622 0.56425 0.85468 0.0
O556 O 0.94301 0.54492 0.86426 0.0
N557 N 0.9569 0.55295 0.92857 0.0
C558 C 0.96901 0.56501 0.93598 0.0
C559 C 0.97315 0.56754 0.95591 0.0
C560 C 0.96411 0.5577 0.97114 0.0
C561 C 0.94985 0.54384 0.96733 0.0
C562 C 0.94575 0.54175 0.93777 0.0
H563 H 0.97277 0.57401 0.92863 0.0
O564 O 0.939 0.56933 0.8854 0.0
O565 O 0.95011 0.54992 0.89638 0.0
O566 O 0.97302 0.57239 0.88713 0.0
O567 O 0.97965 0.55648 0.90626 0.0
C568 C 0.94879 0.52924 0.97774 0.0
C569 C 0.94589 0.51307 0.9698 0.0
H570 H 0.93575 0.48648 0.93279 0.0
H571 H 0.93891 0.48929 0.90649 0.0
H572 H 0.98141 0.57629 0.95898 0.0
H573 H 0.96822 0.5593 0.98277 0.0
H574 H 0.9518 0.52987 0.98979 0.0
H575 H 0.94585 0.50427 0.97887 0.0
Mn576 Mn 0.12983 0.45155 0.0428 0.0
Mn577 Mn 0.09513 0.4661 0.03447 0.0
C578 C 0.10978 0.44842 0.05997 0.0
C579 C 0.15373 0.4549 0.05504 0.0
C580 C 0.10542 0.43526 0.02252 0.0
O581 O 0.13523 0.46632 0.02535 0.0
O582 O 0.11099 0.47262 0.01935 0.0
C583 C 0.10383 0.49975 0.03932 0.0
N584 N 0.09426 0.48762 0.04189 0.0
C585 C 0.07236 0.50884 0.04742 0.0
C586 C 0.08377 0.51974 0.04554 0.0
C587 C 0.09907 0.51525 0.04192 0.0
C588 C 0.08018 0.49051 0.04669 0.0
H589 H 0.11541 0.49769 0.03534 0.0
C590 C 0.12544 0.47297 0.01676 0.0
O591 O 0.15184 0.44418 0.04475 0.0
O592 O 0.14217 0.46385 0.0574 0.0
N593 N 0.07767 0.46017 0.04748 0.0
C594 C 0.07154 0.44446 0.04955 0.0
C595 C 0.05433 0.44041 0.05414 0.0
C596 C 0.03426 0.46211 0.0579 0.0
C597 C 0.04238 0.47869 0.05541 0.0
C598 C 0.07003 0.47466 0.04964 0.0
H599 H 0.0789 0.43485 0.04679 0.0
O600 O 0.12156 0.43937 0.06015 0.0
O601 O 0.11011 0.45967 0.04998 0.0
O602 O 0.11946 0.43622 0.02714 0.0
O603 O 0.09523 0.44536 0.02555 0.0
C604 C 0.03721 0.49869 0.05567 0.0
C605 C 0.0523 0.51352 0.0515 0.0
H606 H 0.08094 0.5316 0.04762 0.0
H607 H 0.10763 0.52416 0.04076 0.0
H608 H 0.05312 0.42785 0.05485 0.0
H609 H 0.02201 0.46202 0.06082 0.0
H610 H 0.02413 0.50018 0.05852 0.0
H611 H 0.04317 0.50721 0.05389 0.0
Mn612 Mn 0.62822 0.30857 0.21186 0.0
Mn613 Mn 0.59442 0.29283 0.2223 0.0
C614 C 0.60628 0.3126 0.19675 0.0
C615 C 0.6512 0.30503 0.19783 0.0
C616 C 0.60865 0.32075 0.23793 0.0
O617 O 0.63435 0.29264 0.22853 0.0
O618 O 0.61164 0.28037 0.23014 0.0
C619 C 0.5985 0.26476 0.20439 0.0
N620 N 0.58941 0.27701 0.2074 0.0
C621 C 0.5654 0.26237 0.19851 0.0
C622 C 0.57674 0.25034 0.19473 0.0
C623 C 0.59253 0.25191 0.19716 0.0
C624 C 0.57522 0.27789 0.20122 0.0
H625 H 0.61048 0.26478 0.20757 0.0
C626 C 0.62591 0.28154 0.23327 0.0
O627 O 0.65025 0.31531 0.20865 0.0
O628 O 0.63916 0.29657 0.19575 0.0
N629 N 0.57563 0.30375 0.21698 0.0
C630 C 0.56758 0.31418 0.23034 0.0
C631 C 0.54749 0.31577 0.23405 0.0
C632 C 0.53281 0.30636 0.2237 0.0
C633 C 0.53738 0.29395 0.20832 0.0
C634 C 0.56698 0.29318 0.20467 0.0
H635 H 0.57474 0.31995 0.23862 0.0
O636 O 0.61821 0.32136 0.19514 0.0
O637 O 0.6077 0.30199 0.20698 0.0
O638 O 0.61972 0.32313 0.22852 0.0
O639 O 0.59971 0.30905 0.23738 0.0
C640 C 0.52748 0.27914 0.2059 0.0
C641 C 0.53599 0.26348 0.20193 0.0
H642 H 0.57403 0.239 0.19042 0.0
H643 H 0.60013 0.2424 0.19449 0.0
H644 H 0.54403 0.32273 0.24376 0.0
H645 H 0.52109 0.307 0.22783 0.0
H646 H 0.51537 0.27915 0.2087 0.0
H647 H 0.52723 0.25441 0.20104 0.0
Mn648 Mn 0.70321 0.87579 0.45826 0.0
Mn649 Mn 0.71407 0.83978 0.46804 0.0
C650 C 0.69964 0.85556 0.44153 0.0
C651 C 0.70772 0.8997 0.44646 0.0
C652 C 0.68357 0.85304 0.47718 0.0
O653 O 0.71767 0.88027 0.47618 0.0
O654 O 0.72071 0.85567 0.48333 0.0
C655 C 0.74832 0.84628 0.46569 0.0
N656 N 0.73593 0.83728 0.46237 0.0
C657 C 0.7562 0.81404 0.46026 0.0
C658 C 0.76751 0.82479 0.46305 0.0
C659 C 0.76366 0.8405 0.46526 0.0
C660 C 0.73838 0.82284 0.45845 0.0
H661 H 0.74661 0.85818 0.46877 0.0
C662 C 0.72268 0.87012 0.48546 0.0
O663 O 0.69683 0.89796 0.45655 0.0
O664 O 0.71639 0.88786 0.44396 0.0
N665 N 0.70794 0.82168 0.45529 0.0
C666 C 0.69212 0.81583 0.45244 0.0
C667 C 0.68755 0.79814 0.44945 0.0
C668 C 0.70866 0.77718 0.45 0.0
C669 C 0.72519 0.78487 0.45294 0.0
C670 C 0.72218 0.81318 0.45517 0.0
H671 H 0.6827 0.82379 0.45355 0.0
O672 O 0.69141 0.86792 0.44049 0.0
O673 O 0.71031 0.85526 0.45205 0.0
O674 O 0.68656 0.86692 0.47318 0.0
O675 O 0.69267 0.84179 0.47482 0.0
C676 C 0.74475 0.7788 0.45503 0.0
C677 C 0.75999 0.79349 0.45882 0.0
H678 H 0.77925 0.82095 0.4632 0.0
H679 H 0.77287 0.84856 0.46724 0.0
H680 H 0.67508 0.79719 0.44768 0.0
H681 H 0.70838 0.76467 0.44859 0.0
H682 H 0.74562 0.76542 0.45376 0.0
H683 H 0.75336 0.78449 0.45687 0.0
Mn684 Mn 0.12569 0.94502 0.71162 0.0
Mn685 Mn 0.15983 0.96014 0.7224 0.0
C686 C 0.14747 0.94177 0.69607 0.0
C687 C 0.10218 0.94808 0.69864 0.0
C688 C 0.14554 0.93165 0.7367 0.0
O689 O 0.11987 0.96043 0.72896 0.0
O690 O 0.14274 0.97244 0.73078 0.0
C691 C 0.15602 0.98889 0.70562 0.0
N692 N 0.16504 0.97649 0.70818 0.0
C693 C 0.1892 0.99137 0.70024 0.0
C694 C 0.17795 0.00362 0.69688 0.0
C695 C 0.16212 0.00202 0.69904 0.0
C696 C 0.17928 0.9758 0.70209 0.0
H697 H 0.14401 0.98876 0.70866 0.0
C698 C 0.12847 0.97133 0.73394 0.0
O699 O 0.10392 0.9377 0.70923 0.0
O700 O 0.1138 0.95708 0.6962 0.0
N701 N 0.17857 0.94926 0.71662 0.0
C702 C 0.18644 0.93819 0.72958 0.0
C703 C 0.20647 0.93635 0.73345 0.0
C704 C 0.22132 0.94615 0.72374 0.0
C705 C 0.21699 0.95927 0.70891 0.0
C706 C 0.18743 0.96033 0.70491 0.0
H707 H 0.17924 0.93233 0.7377 0.0
O708 O 0.13556 0.93301 0.69424 0.0
O709 O 0.14617 0.95198 0.70671 0.0
O710 O 0.13449 0.92987 0.72725 0.0
O711 O 0.15447 0.94335 0.73687 0.0
C712 C 0.22696 0.97414 0.70732 0.0
C713 C 0.21856 0.98999 0.70398 0.0
H714 H 0.18076 0.01513 0.69315 0.0
H715 H 0.1546 0.01167 0.69672 0.0
H716 H 0.20977 0.92899 0.74292 0.0
H717 H 0.23297 0.94529 0.72799 0.0
H718 H 0.23904 0.97397 0.71025 0.0
H719 H 0.22737 0.99905 0.70365 0.0
Mn720 Mn 0.55862 0.37616 0.46334 0.0
Mn721 Mn 0.54359 0.41042 0.47388 0.0
C722 C 0.56213 0.39785 0.4478 0.0
C723 C 0.55495 0.3529 0.4496 0.0
C724 C 0.57184 0.39617 0.4888 0.0
O725 O 0.54285 0.3704 0.48031 0.0
O726 O 0.53129 0.39349 0.48252 0.0
C727 C 0.51438 0.40691 0.45773 0.0
N728 N 0.5271 0.4156 0.45976 0.0
C729 C 0.51266 0.44002 0.45146 0.0
C730 C 0.50003 0.42903 0.44878 0.0
C731 C 0.50125 0.41323 0.45136 0.0
C732 C 0.52799 0.42971 0.45343 0.0
H733 H 0.51423 0.39498 0.46107 0.0
C734 C 0.53215 0.37916 0.48545 0.0
O735 O 0.56534 0.35407 0.46028 0.0
O736 O 0.54637 0.36486 0.44754 0.0
N737 N 0.55469 0.42881 0.46762 0.0
C738 C 0.56622 0.43684 0.48006 0.0
C739 C 0.56875 0.45696 0.48302 0.0
C740 C 0.55923 0.47167 0.47282 0.0
C741 C 0.54573 0.46712 0.45839 0.0
C742 C 0.54369 0.43748 0.45572 0.0
H743 H 0.57221 0.42972 0.4882 0.0
O744 O 0.57096 0.38595 0.44622 0.0
O745 O 0.55182 0.39664 0.45837 0.0
O746 O 0.57372 0.38483 0.47957 0.0
O747 O 0.56026 0.40523 0.48839 0.0
C748 C 0.53116 0.47749 0.4566 0.0
C749 C 0.51501 0.46947 0.4539 0.0
H750 H 0.48851 0.43206 0.44521 0.0
H751 H 0.49134 0.40593 0.44949 0.0
H752 H 0.57641 0.46043 0.49218 0.0
H753 H 0.56053 0.48347 0.47652 0.0
H754 H 0.53179 0.48968 0.459 0.0
H755 H 0.50621 0.47854 0.45333 0.0
Mn756 Mn 0.12742 0.79883 0.04534 0.0
Mn757 Mn 0.16377 0.78903 0.03542 0.0
C758 C 0.14764 0.80272 0.06216 0.0
C759 C 0.10341 0.79388 0.05672 0.0
C760 C 0.1496 0.81916 0.02659 0.0
O761 O 0.12333 0.7846 0.02709 0.0
O762 O 0.14805 0.78222 0.0202 0.0
C763 C 0.15805 0.75462 0.03771 0.0
N764 N 0.16683 0.76719 0.04091 0.0
C765 C 0.19055 0.74745 0.04264 0.0
C766 C 0.18 0.7359 0.04004 0.0
C767 C 0.16417 0.73941 0.0381 0.0
C768 C 0.18136 0.76506 0.04465 0.0
H769 H 0.14608 0.75609 0.03477 0.0
C770 C 0.1337 0.78008 0.01779 0.0
O771 O 0.10519 0.80486 0.04676 0.0
O772 O 0.11534 0.78536 0.05941 0.0
N773 N 0.18181 0.7955 0.04796 0.0
C774 C 0.1873 0.81146 0.05069 0.0
C775 C 0.2049 0.81647 0.05337 0.0
C776 C 0.2264 0.79592 0.05243 0.0
C777 C 0.21909 0.77917 0.04957 0.0
C778 C 0.19067 0.78148 0.04782 0.0
H779 H 0.1791 0.8207 0.04968 0.0
O780 O 0.13505 0.81057 0.06333 0.0
O781 O 0.14819 0.7922 0.05151 0.0
O782 O 0.13587 0.81578 0.03068 0.0
O783 O 0.16115 0.81041 0.02882 0.0
C784 C 0.2256 0.75974 0.04732 0.0
C785 C 0.21121 0.74416 0.04372 0.0
H786 H 0.18407 0.72422 0.03982 0.0
H787 H 0.15627 0.73002 0.03631 0.0
H788 H 0.20554 0.82896 0.05512 0.0
H789 H 0.23892 0.79654 0.05367 0.0
H790 H 0.23903 0.75911 0.04835 0.0
H791 H 0.22007 0.751 0.04554 0.0
Mn792 Mn 0.6941 0.8777 0.29141 0.0
Mn793 Mn 0.70879 0.91209 0.28013 0.0
C794 C 0.69135 0.89933 0.30692 0.0
C795 C 0.69812 0.85434 0.30498 0.0
C796 C 0.6799 0.89766 0.26638 0.0
O797 O 0.70885 0.87199 0.27376 0.0
O798 O 0.72051 0.89502 0.27072 0.0
C799 C 0.73933 0.90948 0.29412 0.0
N800 N 0.72612 0.91765 0.29332 0.0
C801 C 0.74045 0.94248 0.30137 0.0
C802 C 0.75348 0.93183 0.30317 0.0
C803 C 0.7526 0.91609 0.29999 0.0
C804 C 0.72526 0.93173 0.29992 0.0
H805 H 0.7398 0.89774 0.29015 0.0
C806 C 0.71909 0.8807 0.26773 0.0
O807 O 0.68735 0.85565 0.29468 0.0
O808 O 0.70688 0.86623 0.30672 0.0
N809 N 0.69791 0.9304 0.287 0.0
C810 C 0.68564 0.93833 0.27521 0.0
C811 C 0.68252 0.95842 0.27266 0.0
C812 C 0.69215 0.97322 0.28262 0.0
C813 C 0.7064 0.9688 0.29635 0.0
C814 C 0.70926 0.93918 0.2985 0.0
H815 H 0.67941 0.93119 0.26727 0.0
O816 O 0.68254 0.88749 0.30889 0.0
O817 O 0.70133 0.89816 0.29601 0.0
O818 O 0.67839 0.88635 0.27571 0.0
O819 O 0.69139 0.90683 0.26645 0.0
C820 C 0.72072 0.97949 0.29765 0.0
C821 C 0.73714 0.97187 0.29949 0.0
H822 H 0.76503 0.93515 0.30636 0.0
H823 H 0.76285 0.9091 0.30099 0.0
H824 H 0.67436 0.96183 0.26392 0.0
H825 H 0.69041 0.98503 0.27915 0.0
H826 H 0.71969 0.99168 0.29545 0.0
H827 H 0.74567 0.9812 0.29976 0.0
Mn828 Mn 0.04938 0.38011 0.79609 0.0
Mn829 Mn 0.03758 0.34448 0.78543 0.0
C830 C 0.05201 0.35951 0.81238 0.0
C831 C 0.04571 0.40388 0.80888 0.0
C832 C 0.06861 0.35706 0.77683 0.0
O833 O 0.03522 0.3853 0.77812 0.0
O834 O 0.03167 0.36088 0.77034 0.0
C835 C 0.00333 0.35124 0.78616 0.0
N836 N 0.01544 0.34226 0.79056 0.0
C837 C 0.9947 0.3193 0.79218 0.0
C838 C 0.98372 0.33005 0.7879 0.0
C839 C 0.98796 0.34556 0.78532 0.0
C840 C 0.01263 0.32787 0.79461 0.0
H841 H 0.00532 0.363 0.7828 0.0
C842 C 0.03014 0.37544 0.76853 0.0
O843 O 0.05648 0.40209 0.79867 0.0
O844 O 0.03653 0.39233 0.81073 0.0
N845 N 0.04308 0.32613 0.79809 0.0
C846 C 0.05877 0.31998 0.80105 0.0
C847 C 0.06305 0.30217 0.8037 0.0
C848 C 0.04167 0.28154 0.80236 0.0
C849 C 0.02527 0.28955 0.79938 0.0
C850 C 0.0287 0.31787 0.79794 0.0
H851 H 0.06834 0.32779 0.80018 0.0
O852 O 0.06069 0.37151 0.81373 0.0
O853 O 0.04147 0.35969 0.80172 0.0
O854 O 0.06597 0.37097 0.78108 0.0
O855 O 0.05918 0.34605 0.779 0.0
C856 C 0.00567 0.28381 0.79681 0.0
C857 C 0.99069 0.29879 0.79308 0.0
H858 H 0.97195 0.32647 0.78607 0.0
H859 H 0.97905 0.35348 0.78175 0.0
H860 H 0.07548 0.30099 0.8056 0.0
H861 H 0.04177 0.26899 0.80347 0.0
H862 H 0.00455 0.27041 0.79773 0.0
H863 H 0.99718 0.28968 0.79497 0.0
Mn864 Mn 0.95812 0.87728 0.54975 0.0
Mn865 Mn 0.96877 0.91268 0.53713 0.0
C866 C 0.94175 0.898 0.55194 0.0
C867 C 0.94622 0.85313 0.54718 0.0
C868 C 0.97748 0.90049 0.56822 0.0
O869 O 0.97598 0.87176 0.53569 0.0
O870 O 0.98361 0.89607 0.53127 0.0
C871 C 0.9676 0.90558 0.50298 0.0
N872 N 0.96346 0.91476 0.51504 0.0
C873 C 0.96247 0.93764 0.49416 0.0
C874 C 0.96637 0.92668 0.48323 0.0
C875 C 0.96852 0.91113 0.48757 0.0
C876 C 0.95982 0.92925 0.51215 0.0
H877 H 0.97069 0.89376 0.50508 0.0
C878 C 0.98545 0.88148 0.5302 0.0
O879 O 0.95643 0.85571 0.55775 0.0
O880 O 0.94362 0.86427 0.5376 0.0
N881 N 0.95651 0.93127 0.54261 0.0
C882 C 0.95384 0.9376 0.55829 0.0
C883 C 0.95183 0.9555 0.56251 0.0
C884 C 0.95377 0.97599 0.54102 0.0
C885 C 0.95641 0.9678 0.52462 0.0
C886 C 0.9569 0.93945 0.52819 0.0
H887 H 0.95449 0.9298 0.56789 0.0
O888 O 0.94047 0.88617 0.5609 0.0
O889 O 0.95237 0.89757 0.54136 0.0
O890 O 0.97311 0.88665 0.56587 0.0
O891 O 0.97542 0.91137 0.55864 0.0
C892 C 0.95908 0.97334 0.50496 0.0
C893 C 0.96223 0.95816 0.49004 0.0
H894 H 0.96825 0.93013 0.47142 0.0
H895 H 0.97184 0.90306 0.47869 0.0
H896 H 0.95003 0.95678 0.57495 0.0
H897 H 0.95309 0.98857 0.54108 0.0
H898 H 0.95862 0.98676 0.50376 0.0
H899 H 0.96068 0.96736 0.49649 0.0
Mn900 Mn 0.12694 0.71478 0.30611 0.0
Mn901 Mn 0.09208 0.72449 0.29216 0.0
C902 C 0.10598 0.69841 0.30982 0.0
C903 C 0.15056 0.70242 0.30139 0.0
C904 C 0.10696 0.73951 0.32008 0.0
O905 O 0.13167 0.73223 0.29068 0.0
O906 O 0.10848 0.73348 0.27912 0.0
C907 C 0.09407 0.70904 0.26238 0.0
N908 N 0.08621 0.71054 0.27571 0.0
C909 C 0.06093 0.70241 0.26251 0.0
C910 C 0.07112 0.7004 0.24911 0.0
C911 C 0.08694 0.70311 0.24943 0.0
C912 C 0.07218 0.70412 0.27723 0.0
H913 H 0.10592 0.71252 0.26159 0.0
C914 C 0.12275 0.73696 0.27996 0.0
O915 O 0.14921 0.71266 0.3122 0.0
O916 O 0.13845 0.69987 0.29314 0.0
N917 N 0.07444 0.7176 0.30421 0.0
C918 C 0.06688 0.72944 0.31665 0.0
C919 C 0.0469 0.73177 0.32059 0.0
C920 C 0.03185 0.72148 0.31172 0.0
C921 C 0.03587 0.70759 0.29749 0.0
C922 C 0.06537 0.70578 0.29346 0.0
H923 H 0.07415 0.73759 0.3224 0.0
O924 O 0.11816 0.69707 0.3183 0.0
O925 O 0.10652 0.70919 0.29966 0.0
O926 O 0.11829 0.73031 0.32179 0.0
O927 O 0.09772 0.73907 0.30865 0.0
C928 C 0.02462 0.70598 0.28358 0.0
C929 C 0.03163 0.70398 0.26687 0.0
H930 H 0.06739 0.69721 0.23767 0.0
H931 H 0.09361 0.7017 0.23901 0.0
H932 H 0.04371 0.74059 0.32876 0.0
H933 H 0.02007 0.72482 0.3139 0.0
H934 H 0.01246 0.70807 0.28506 0.0
H935 H 0.02202 0.70346 0.25868 0.0
Mn936 Mn 0.29444 0.87696 0.04984 0.0
Mn937 Mn 0.28374 0.8414 0.03807 0.0
C938 C 0.31087 0.85638 0.05225 0.0
C939 C 0.30634 0.90093 0.04628 0.0
C940 C 0.27555 0.85399 0.06913 0.0
O941 O 0.27636 0.88218 0.03599 0.0
O942 O 0.26853 0.85781 0.03252 0.0
C943 C 0.28419 0.8486 0.0039 0.0
N944 N 0.28863 0.83944 0.01586 0.0
C945 C 0.29024 0.81681 0.99476 0.0
C946 C 0.28595 0.82772 0.98395 0.0
C947 C 0.28335 0.84316 0.98844 0.0
C948 C 0.29274 0.82511 0.01282 0.0
H949 H 0.28083 0.86032 0.00609 0.0
C950 C 0.26668 0.87237 0.03111 0.0
O951 O 0.29639 0.89875 0.0572 0.0
O952 O 0.30866 0.88949 0.037 0.0
N953 N 0.2964 0.82293 0.04324 0.0
C954 C 0.2994 0.81653 0.05884 0.0
C955 C 0.30203 0.79864 0.06283 0.0
C956 C 0.30055 0.77833 0.04113 0.0
C957 C 0.29753 0.7866 0.02486 0.0
C958 C 0.29614 0.81488 0.02874 0.0
H959 H 0.29853 0.82419 0.06855 0.0
O960 O 0.31228 0.86839 0.06093 0.0
O961 O 0.30011 0.85658 0.04181 0.0
O962 O 0.27971 0.86784 0.06637 0.0
O963 O 0.27763 0.84287 0.05978 0.0
C964 C 0.29489 0.78116 0.00518 0.0
C965 C 0.29113 0.79635 0.99044 0.0
H966 H 0.28415 0.82432 0.97212 0.0
H967 H 0.27977 0.85121 0.97965 0.0
H968 H 0.30397 0.79728 0.07524 0.0
H969 H 0.30163 0.76578 0.04103 0.0
H970 H 0.29572 0.76778 0.00391 0.0
H971 H 0.29302 0.78715 0.99678 0.0
Mn972 Mn 0.12796 0.04095 0.80382 0.0
Mn973 Mn 0.16264 0.03046 0.78955 0.0
C974 C 0.14912 0.05688 0.8072 0.0
C975 C 0.10451 0.05393 0.79931 0.0
C976 C 0.14781 0.01624 0.81808 0.0
O977 O 0.12291 0.02318 0.78896 0.0
O978 O 0.14578 0.02155 0.77672 0.0
C979 C 0.16141 0.0454 0.75933 0.0
N980 N 0.16895 0.04422 0.77288 0.0
C981 C 0.19441 0.0529 0.75996 0.0
C982 C 0.18438 0.05493 0.74649 0.0
C983 C 0.16863 0.05166 0.74655 0.0
C984 C 0.18294 0.05087 0.77458 0.0
H985 H 0.14972 0.04146 0.7582 0.0
C986 C 0.13152 0.01803 0.77817 0.0
O987 O 0.10577 0.04371 0.81015 0.0
O988 O 0.11651 0.0559 0.79075 0.0
N989 N 0.18051 0.03711 0.80142 0.0
C990 C 0.18803 0.02512 0.81374 0.0
C991 C 0.20798 0.02279 0.81778 0.0
C992 C 0.22306 0.03326 0.80917 0.0
C993 C 0.21911 0.04731 0.79511 0.0
C994 C 0.18964 0.0491 0.79087 0.0
H995 H 0.18076 0.01684 0.81931 0.0
O996 O 0.13698 0.05858 0.81567 0.0
O997 O 0.14843 0.04608 0.79704 0.0
O998 O 0.13664 0.02566 0.8197 0.0
O999 O 0.1568 0.01614 0.8064 0.0
C1000 C 0.23047 0.04919 0.78138 0.0
C1001 C 0.22363 0.05138 0.76466 0.0
H1002 H 0.18821 0.05844 0.73519 0.0
H1003 H 0.16211 0.05293 0.73601 0.0
H1004 H 0.21114 0.01387 0.82584 0.0
H1005 H 0.23483 0.02992 0.8114 0.0
H1006 H 0.24264 0.04714 0.78295 0.0
H1007 H 0.23336 0.05201 0.75661 0.0
Mn1008 Mn 0.96097 0.87677 0.19449 0.0
Mn1009 Mn 0.97227 0.8423 0.20872 0.0
C1010 C 0.94573 0.85492 0.19098 0.0
C1011 C 0.94683 0.89985 0.19848 0.0
C1012 C 0.98663 0.85742 0.18061 0.0
O1013 O 0.97804 0.88245 0.2102 0.0
O1014 O 0.98074 0.85918 0.22141 0.0
C1015 C 0.95695 0.84414 0.23855 0.0
N1016 N 0.95869 0.83611 0.22536 0.0
C1017 C 0.952 0.81072 0.23909 0.0
C1018 C 0.94961 0.82105 0.25233 0.0
C1019 C 0.95151 0.83698 0.25169 0.0
C1020 C 0.95296 0.82175 0.22416 0.0
H1021 H 0.95986 0.85617 0.23908 0.0
C1022 C 0.98342 0.87362 0.22074 0.0
O1023 O 0.95748 0.8989 0.18802 0.0
O1024 O 0.94509 0.8878 0.20701 0.0
N1025 N 0.96601 0.8242 0.19698 0.0
C1026 C 0.97808 0.81701 0.18454 0.0
C1027 C 0.98141 0.79711 0.18095 0.0
C1028 C 0.97201 0.78172 0.19021 0.0
C1029 C 0.9581 0.78529 0.20453 0.0
C1030 C 0.95479 0.81473 0.20804 0.0
H1031 H 0.9858 0.82455 0.17857 0.0
O1032 O 0.94386 0.86687 0.18227 0.0
O1033 O 0.95641 0.85612 0.20117 0.0
O1034 O 0.97715 0.86858 0.17898 0.0
O1035 O 0.98647 0.84821 0.19206 0.0
C1036 C 0.95723 0.77424 0.21866 0.0
C1037 C 0.95506 0.78146 0.23526 0.0
H1038 H 0.94674 0.81739 0.26387 0.0
H1039 H 0.94987 0.84377 0.26201 0.0
H1040 H 0.99029 0.79422 0.17274 0.0
H1041 H 0.97594 0.7701 0.18821 0.0
H1042 H 0.95991 0.76216 0.21737 0.0
H1043 H 0.95513 0.77199 0.24364 0.0
Mn1044 Mn 0.12934 0.70897 0.94966 0.0
Mn1045 Mn 0.16414 0.71715 0.96437 0.0
C1046 C 0.14983 0.69206 0.94659 0.0
C1047 C 0.10492 0.69748 0.95179 0.0
C1048 C 0.15394 0.72936 0.93393 0.0
O1049 O 0.12377 0.72622 0.9648 0.0
O1050 O 0.14816 0.73221 0.9703 0.0
C1051 C 0.15275 0.711 0.99683 0.0
N1052 N 0.16358 0.70933 0.98563 0.0
C1053 C 0.18366 0.70478 0.00855 0.0
C1054 C 0.17112 0.70551 0.01843 0.0
C1055 C 0.15612 0.70827 0.01262 0.0
C1056 C 0.17746 0.70487 0.9896 0.0
H1057 H 0.14121 0.71437 0.99374 0.0
C1058 C 0.13378 0.73494 0.97099 0.0
O1059 O 0.10762 0.708 0.94152 0.0
O1060 O 0.11615 0.69415 0.96096 0.0
N1061 N 0.18268 0.70477 0.9594 0.0
C1062 C 0.19056 0.70364 0.94427 0.0
C1063 C 0.20872 0.70125 0.9418 0.0
C1064 C 0.22678 0.6997 0.9654 0.0
C1065 C 0.21692 0.70094 0.98107 0.0
C1066 C 0.18923 0.7033 0.97457 0.0
H1067 H 0.18388 0.7058 0.93402 0.0
O1068 O 0.13818 0.69169 0.93733 0.0
O1069 O 0.1491 0.7019 0.9578 0.0
O1070 O 0.13989 0.72499 0.93523 0.0
O1071 O 0.16451 0.7259 0.94353 0.0
C1072 C 0.22028 0.70101 1.00144 0.0
C1073 C 0.20357 0.70309 0.01491 0.0
H1074 H 0.1727 0.70362 0.0306 0.0
H1075 H 0.14673 0.70891 0.02075 0.0
H1076 H 0.2113 0.70082 0.92943 0.0
H1077 H 0.23924 0.69837 0.96658 0.0
H1078 H 0.2334 0.6996 0.00397 0.0
H1079 H 0.21343 0.70191 0.0094 0.0
Mn1080 Mn 0.29378 0.87828 0.70379 0.0
Mn1081 Mn 0.28348 0.91381 0.71595 0.0
C1082 C 0.30972 0.89894 0.7001 0.0
C1083 C 0.30646 0.85452 0.70703 0.0
C1084 C 0.27297 0.90098 0.68589 0.0
O1085 O 0.27691 0.873 0.71897 0.0
O1086 O 0.26884 0.89732 0.72247 0.0
C1087 C 0.28551 0.90732 0.75023 0.0
N1088 N 0.28943 0.91619 0.73787 0.0
C1089 C 0.29152 0.93943 0.75833 0.0
C1090 C 0.2877 0.92877 0.76956 0.0
C1091 C 0.28512 0.91318 0.76556 0.0
C1092 C 0.2933 0.93068 0.74039 0.0
H1093 H 0.28221 0.89551 0.74847 0.0
C1094 C 0.26735 0.88276 0.72419 0.0
O1095 O 0.29576 0.85628 0.69674 0.0
O1096 O 0.30914 0.86624 0.7158 0.0
N1097 N 0.29578 0.93212 0.70982 0.0
C1098 C 0.29821 0.93806 0.69396 0.0
C1099 C 0.30092 0.95578 0.68943 0.0
C1100 C 0.30053 0.97666 0.71063 0.0
C1101 C 0.29799 0.96885 0.72724 0.0
C1102 C 0.29614 0.9405 0.72413 0.0
H1103 H 0.29677 0.93018 0.68447 0.0
O1104 O 0.31056 0.88694 0.69132 0.0
O1105 O 0.29972 0.89874 0.71128 0.0
O1106 O 0.27748 0.88715 0.6884 0.0
O1107 O 0.27601 0.91221 0.69477 0.0
C1108 C 0.29613 0.97479 0.74689 0.0
C1109 C 0.29274 0.95999 0.76214 0.0
H1110 H 0.28629 0.93246 0.78136 0.0
H1111 H 0.28193 0.90534 0.77468 0.0
H1112 H 0.30238 0.95679 0.67693 0.0
H1113 H 0.30179 0.98919 0.71035 0.0
H1114 H 0.29723 0.9882 0.74789 0.0
H1115 H 0.2945 0.96902 0.75551 0.0
Mn1116 Mn 0.12226 0.04392 0.45156 0.0
Mn1117 Mn 0.08674 0.0334 0.4632 0.0
C1118 C 0.10134 0.05996 0.448 0.0
C1119 C 0.14609 0.05672 0.45444 0.0
C1120 C 0.09983 0.02308 0.43339 0.0
O1121 O 0.12759 0.02696 0.46693 0.0
O1122 O 0.10327 0.01869 0.46957 0.0
C1123 C 0.09368 0.0357 0.49737 0.0
N1124 N 0.08443 0.03891 0.48512 0.0
C1125 C 0.06131 0.03964 0.50566 0.0
C1126 C 0.07227 0.03686 0.51679 0.0
C1127 C 0.08801 0.03537 0.51274 0.0
C1128 C 0.06984 0.04203 0.48776 0.0
H1129 H 0.10569 0.03322 0.49551 0.0
C1130 C 0.11777 0.01723 0.47181 0.0
O1131 O 0.14422 0.04593 0.44429 0.0
O1132 O 0.13446 0.05943 0.46335 0.0
N1133 N 0.06821 0.04562 0.45737 0.0
C1134 C 0.0621 0.04854 0.44165 0.0
C1135 C 0.04429 0.05122 0.43734 0.0
C1136 C 0.02359 0.04981 0.45867 0.0
C1137 C 0.03156 0.04675 0.4751 0.0
C1138 C 0.05988 0.04529 0.47171 0.0
H1139 H 0.06995 0.04754 0.43206 0.0
O1140 O 0.11326 0.06079 0.43912 0.0
O1141 O 0.1017 0.04982 0.45902 0.0
O1142 O 0.1136 0.02745 0.43629 0.0
O1143 O 0.08837 0.02639 0.44187 0.0
C1144 C 0.0258 0.04416 0.49472 0.0
C1145 C 0.04078 0.04047 0.50972 0.0
H1146 H 0.06857 0.03608 0.52855 0.0
H1147 H 0.09622 0.03334 0.52181 0.0
H1148 H 0.04316 0.05315 0.42491 0.0
H1149 H 0.01105 0.05095 0.45854 0.0
H1150 H 0.01239 0.04505 0.49585 0.0
H1151 H 0.03166 0.04231 0.50323 0.0
Mn1152 Mn 0.55237 0.95683 0.87651 0.0
Mn1153 Mn 0.53793 0.96453 0.91185 0.0
C1154 C 0.55476 0.93934 0.8965 0.0
C1155 C 0.55019 0.94578 0.85182 0.0
C1156 C 0.5691 0.9756 0.90166 0.0
O1157 O 0.53806 0.97501 0.87157 0.0
O1158 O 0.53201 0.97977 0.89615 0.0
C1159 C 0.50516 0.95905 0.9011 0.0
N1160 N 0.51653 0.95694 0.91167 0.0
C1161 C 0.49391 0.95275 0.93218 0.0
C1162 C 0.48378 0.95402 0.91989 0.0
C1163 C 0.48937 0.95674 0.90479 0.0
C1164 C 0.51274 0.95233 0.9256 0.0
H1165 H 0.50809 0.96262 0.88957 0.0
C1166 C 0.53169 0.98324 0.88192 0.0
O1167 O 0.56065 0.956 0.85484 0.0
O1168 O 0.54056 0.9428 0.86277 0.0
N1169 N 0.54301 0.95206 0.93029 0.0
C1170 C 0.55825 0.95102 0.93796 0.0
C1171 C 0.56104 0.94938 0.95616 0.0
C1172 C 0.53774 0.9488 0.97467 0.0
C1173 C 0.52193 0.9498 0.96506 0.0
C1174 C 0.52795 0.95098 0.93716 0.0
H1175 H 0.56835 0.95255 0.931 0.0
O1176 O 0.56387 0.9388 0.88475 0.0
O1177 O 0.54396 0.9496 0.89618 0.0
O1178 O 0.56775 0.9716 0.88751 0.0
O1179 O 0.55898 0.97281 0.91197 0.0
C1180 C 0.50165 0.95028 0.96879 0.0
C1181 C 0.48791 0.9519 0.95226 0.0
H1182 H 0.47155 0.95302 0.92182 0.0
H1183 H 0.48104 0.95793 0.89563 0.0
H1184 H 0.57343 0.9489 0.95854 0.0
H1185 H 0.53676 0.948 0.98721 0.0
H1186 H 0.49929 0.94956 0.98204 0.0
H1187 H 0.49359 0.95102 0.96205 0.0
Mn1188 Mn 0.04571 0.30172 0.62937 0.0
Mn1189 Mn 0.03584 0.29091 0.6654 0.0
C1190 C 0.06232 0.30549 0.64979 0.0
C1191 C 0.05769 0.29807 0.60541 0.0
C1192 C 0.02648 0.3211 0.65193 0.0
O1193 O 0.02798 0.28694 0.62478 0.0
O1194 O 0.02083 0.28419 0.64942 0.0
C1195 C 0.03836 0.25663 0.65909 0.0
N1196 N 0.04153 0.26908 0.66807 0.0
C1197 C 0.04319 0.249 0.6915 0.0
C1198 C 0.0406 0.2376 0.68076 0.0
C1199 C 0.03864 0.24134 0.66499 0.0
C1200 C 0.04511 0.26676 0.68262 0.0
H1201 H 0.03548 0.25826 0.64713 0.0
C1202 C 0.01866 0.28209 0.63501 0.0
O1203 O 0.04721 0.30852 0.60737 0.0
O1204 O 0.0604 0.28914 0.61704 0.0
N1205 N 0.04822 0.29721 0.68362 0.0
C1206 C 0.05086 0.3131 0.68941 0.0
C1207 C 0.05351 0.31782 0.70711 0.0
C1208 C 0.05267 0.29689 0.72824 0.0
C1209 C 0.0499 0.28025 0.72061 0.0
C1210 C 0.04816 0.28305 0.69223 0.0
H1211 H 0.04982 0.32246 0.68137 0.0
O1212 O 0.06323 0.3138 0.63748 0.0
O1213 O 0.05196 0.29466 0.65 0.0
O1214 O 0.03047 0.31801 0.6381 0.0
O1215 O 0.029 0.3122 0.66328 0.0
C1216 C 0.04777 0.26072 0.72677 0.0
C1217 C 0.04428 0.24536 0.71211 0.0
H1218 H 0.04038 0.22588 0.68464 0.0
H1219 H 0.03675 0.23206 0.65697 0.0
H1220 H 0.0552 0.3303 0.70799 0.0
H1221 H 0.05389 0.29729 0.74078 0.0
H1222 H 0.04879 0.2599 0.74019 0.0
H1223 H 0.04605 0.25206 0.72109 0.0
Mn1224 Mn 0.69642 0.79267 0.37498 0.0
Mn1225 Mn 0.7102 0.78118 0.40968 0.0
C1226 C 0.69299 0.80802 0.39674 0.0
C1227 C 0.70003 0.80638 0.35167 0.0
C1228 C 0.68171 0.76778 0.39452 0.0
O1229 O 0.71187 0.77524 0.36949 0.0
O1230 O 0.72291 0.77254 0.39286 0.0
C1231 C 0.7402 0.79624 0.40811 0.0
N1232 N 0.72694 0.79459 0.41605 0.0
C1233 C 0.74045 0.80185 0.44145 0.0
C1234 C 0.75373 0.80418 0.43118 0.0
C1235 C 0.75323 0.80193 0.41527 0.0
C1236 C 0.7256 0.80063 0.43031 0.0
H1237 H 0.74085 0.79312 0.39614 0.0
C1238 C 0.7223 0.76977 0.37842 0.0
O1239 O 0.68964 0.79573 0.35298 0.0
O1240 O 0.70892 0.80827 0.36349 0.0
N1241 N 0.69852 0.78744 0.42783 0.0
C1242 C 0.68619 0.77531 0.43511 0.0
C1243 C 0.6825 0.77219 0.45502 0.0
C1244 C 0.69159 0.78183 0.47037 0.0
C1245 C 0.7058 0.7958 0.46675 0.0
C1246 C 0.70945 0.79882 0.43726 0.0
H1247 H 0.68074 0.76712 0.42773 0.0
O1248 O 0.68447 0.81001 0.38467 0.0
O1249 O 0.70312 0.79724 0.39569 0.0
O1250 O 0.68058 0.77721 0.38332 0.0
O1251 O 0.69324 0.76725 0.40362 0.0
C1252 C 0.71984 0.79689 0.47787 0.0
C1253 C 0.73645 0.79909 0.47073 0.0
H1254 H 0.7652 0.80723 0.43489 0.0
H1255 H 0.76358 0.80351 0.40854 0.0
H1256 H 0.67445 0.76318 0.45795 0.0
H1257 H 0.68957 0.77799 0.48202 0.0
H1258 H 0.7185 0.79433 0.48997 0.0
H1259 H 0.74476 0.79917 0.48026 0.0
Mn1260 Mn 0.20861 0.45167 0.12894 0.0
Mn1261 Mn 0.21864 0.46323 0.16474 0.0
C1262 C 0.19199 0.44836 0.14959 0.0
C1263 C 0.19736 0.45517 0.10466 0.0
C1264 C 0.22786 0.43272 0.15177 0.0
O1265 O 0.22655 0.46616 0.12407 0.0
O1266 O 0.23338 0.46979 0.14863 0.0
C1267 C 0.21517 0.4972 0.15739 0.0
N1268 N 0.21255 0.48499 0.16685 0.0
C1269 C 0.21099 0.50573 0.18966 0.0
C1270 C 0.21276 0.51684 0.17845 0.0
C1271 C 0.2145 0.51267 0.16277 0.0
C1272 C 0.20916 0.48768 0.18137 0.0
H1273 H 0.21787 0.49523 0.14543 0.0
C1274 C 0.23569 0.47143 0.13423 0.0
O1275 O 0.20746 0.44447 0.10708 0.0
O1276 O 0.1943 0.46421 0.11615 0.0
N1277 N 0.20675 0.45721 0.18332 0.0
C1278 C 0.20474 0.44145 0.18963 0.0
C1279 C 0.203 0.43716 0.20755 0.0
C1280 C 0.20424 0.45869 0.22806 0.0
C1281 C 0.20627 0.47518 0.21988 0.0
C1282 C 0.20688 0.47162 0.19153 0.0
H1283 H 0.20559 0.4319 0.1818 0.0
O1284 O 0.19085 0.43996 0.13733 0.0
O1285 O 0.20245 0.45906 0.14951 0.0
O1286 O 0.22357 0.43543 0.13797 0.0
O1287 O 0.22574 0.44196 0.16295 0.0
C1288 C 0.20819 0.49494 0.22541 0.0
C1289 C 0.21067 0.50994 0.21018 0.0
H1290 H 0.21241 0.52868 0.18186 0.0
H1291 H 0.21592 0.52175 0.15442 0.0
H1292 H 0.20166 0.42467 0.20883 0.0
H1293 H 0.20359 0.45861 0.24064 0.0
H1294 H 0.20771 0.49615 0.23884 0.0
H1295 H 0.20945 0.50347 0.21942 0.0
Mn1296 Mn 0.5523 0.79571 0.87613 0.0
Mn1297 Mn 0.53889 0.78722 0.84062 0.0
C1298 C 0.55524 0.81286 0.85583 0.0
C1299 C 0.54998 0.80685 0.90065 0.0
C1300 C 0.56964 0.77639 0.85201 0.0
O1301 O 0.53766 0.77782 0.8811 0.0
O1302 O 0.53241 0.77224 0.8565 0.0
C1303 C 0.5056 0.79257 0.84981 0.0
N1304 N 0.51743 0.79455 0.83973 0.0
C1305 C 0.49575 0.798 0.81809 0.0
C1306 C 0.48514 0.7974 0.82998 0.0
C1307 C 0.49 0.7949 0.84537 0.0
C1308 C 0.51424 0.79866 0.82551 0.0
H1309 H 0.50802 0.78933 0.86155 0.0
C1310 C 0.53155 0.76928 0.87085 0.0
O1311 O 0.56031 0.79646 0.89778 0.0
O1312 O 0.54052 0.81005 0.88957 0.0
N1313 N 0.54464 0.79944 0.82221 0.0
C1314 C 0.56019 0.80076 0.81526 0.0
C1315 C 0.56379 0.80254 0.79723 0.0
C1316 C 0.54139 0.80278 0.77764 0.0
C1317 C 0.52516 0.80145 0.7865 0.0
C1318 C 0.52991 0.80027 0.81465 0.0
H1319 H 0.57 0.79934 0.82267 0.0
O1320 O 0.56412 0.81347 0.86776 0.0
O1321 O 0.54435 0.80265 0.85609 0.0
O1322 O 0.56779 0.78062 0.86599 0.0
O1323 O 0.55994 0.77904 0.84132 0.0
C1324 C 0.50506 0.80065 0.78186 0.0
C1325 C 0.49062 0.79879 0.79776 0.0
H1326 H 0.4732 0.79952 0.82754 0.0
H1327 H 0.48128 0.79427 0.85422 0.0
H1328 H 0.57627 0.80324 0.79544 0.0
H1329 H 0.54099 0.80363 0.76507 0.0
H1330 H 0.50326 0.80135 0.76851 0.0
H1331 H 0.49672 0.79976 0.78823 0.0
Mn1332 Mn 0.21002 0.3008 0.62758 0.0
Mn1333 Mn 0.21932 0.28706 0.59218 0.0
C1334 C 0.19378 0.30398 0.607 0.0
C1335 C 0.19716 0.29917 0.65171 0.0
C1336 C 0.23096 0.31726 0.60372 0.0
O1337 O 0.22669 0.28529 0.63312 0.0
O1338 O 0.2341 0.28071 0.60871 0.0
C1339 C 0.21665 0.25311 0.59979 0.0
N1340 N 0.21285 0.26524 0.59057 0.0
C1341 C 0.21022 0.24412 0.56799 0.0
C1342 C 0.21398 0.23317 0.57897 0.0
C1343 C 0.21677 0.23761 0.5944 0.0
C1344 C 0.20878 0.26234 0.57619 0.0
H1345 H 0.2201 0.25518 0.61152 0.0
C1346 C 0.23588 0.27942 0.62331 0.0
O1347 O 0.20825 0.30891 0.64941 0.0
O1348 O 0.19435 0.28985 0.64045 0.0
N1349 N 0.20679 0.29286 0.57382 0.0
C1350 C 0.2045 0.30855 0.56738 0.0
C1351 C 0.20163 0.31256 0.54954 0.0
C1352 C 0.20152 0.29072 0.52934 0.0
C1353 C 0.20392 0.27434 0.53765 0.0
C1354 C 0.20608 0.27832 0.56588 0.0
H1355 H 0.20622 0.31827 0.57493 0.0
O1356 O 0.19341 0.3133 0.6186 0.0
O1357 O 0.20354 0.29261 0.60748 0.0
O1358 O 0.22663 0.31538 0.61774 0.0
O1359 O 0.22738 0.3081 0.59288 0.0
C1360 C 0.20545 0.2545 0.53231 0.0
C1361 C 0.20876 0.23969 0.54757 0.0
H1362 H 0.2152 0.22125 0.57562 0.0
H1363 H 0.21991 0.22869 0.6025 0.0
H1364 H 0.20032 0.32504 0.54815 0.0
H1365 H 0.20009 0.29061 0.51682 0.0
H1366 H 0.20422 0.2531 0.51895 0.0
H1367 H 0.20701 0.24605 0.53834 0.0
Mn1368 Mn 0.70365 0.9588 0.37602 0.0
Mn1369 Mn 0.71482 0.96887 0.34006 0.0
C1370 C 0.69999 0.94236 0.35563 0.0
C1371 C 0.708 0.94678 0.39986 0.0
C1372 C 0.68438 0.97826 0.3534 0.0
O1373 O 0.71806 0.97663 0.38072 0.0
O1374 O 0.72156 0.98372 0.35614 0.0
C1375 C 0.74913 0.96654 0.34619 0.0
N1376 N 0.73667 0.9629 0.33738 0.0
C1377 C 0.75682 0.96059 0.31395 0.0
C1378 C 0.76822 0.96406 0.32457 0.0
C1379 C 0.76442 0.96651 0.34025 0.0
C1380 C 0.739 0.95888 0.3229 0.0
H1381 H 0.74749 0.9699 0.35803 0.0
C1382 C 0.7232 0.98587 0.3706 0.0
O1383 O 0.69717 0.95694 0.39816 0.0
O1384 O 0.71672 0.94435 0.38803 0.0
N1385 N 0.70843 0.95655 0.32187 0.0
C1386 C 0.69249 0.95433 0.31609 0.0
C1387 C 0.68768 0.95198 0.29839 0.0
C1388 C 0.70859 0.95251 0.27723 0.0
C1389 C 0.72531 0.9548 0.28485 0.0
C1390 C 0.72261 0.95627 0.31327 0.0
H1391 H 0.68316 0.95553 0.32415 0.0
O1392 O 0.6918 0.9412 0.368 0.0
O1393 O 0.71077 0.95277 0.35542 0.0
O1394 O 0.68711 0.97387 0.36723 0.0
O1395 O 0.69356 0.97603 0.34219 0.0
C1396 C 0.74489 0.95658 0.27867 0.0
C1397 C 0.76035 0.95962 0.29333 0.0
H1398 H 0.78001 0.96529 0.32078 0.0
H1399 H 0.77367 0.96942 0.34805 0.0
H1400 H 0.67516 0.95061 0.29753 0.0
H1401 H 0.70814 0.9514 0.26469 0.0
H1402 H 0.7457 0.95566 0.26523 0.0
H1403 H 0.75359 0.95805 0.28435 0.0
Mn1404 Mn 0.04825 0.4446 0.12966 0.0
Mn1405 Mn 0.04077 0.4617 0.09607 0.0
C1406 C 0.06562 0.44214 0.10886 0.0
C1407 C 0.06013 0.44783 0.15401 0.0
C1408 C 0.02313 0.43391 0.10891 0.0
O1409 O 0.03007 0.45969 0.13403 0.0
O1410 O 0.03301 0.4747 0.11314 0.0
C1411 C 0.05894 0.48944 0.09961 0.0
N1412 N 0.05591 0.47704 0.09076 0.0
C1413 C 0.06134 0.49215 0.06607 0.0
C1414 C 0.06554 0.50438 0.07709 0.0
C1415 C 0.06482 0.50268 0.09305 0.0
C1416 C 0.06061 0.47653 0.076 0.0
H1417 H 0.05655 0.48929 0.1118 0.0
C1418 C 0.02638 0.47146 0.12586 0.0
O1419 O 0.04977 0.43729 0.15177 0.0
O1420 O 0.06283 0.45681 0.14248 0.0
N1421 N 0.04652 0.44984 0.07777 0.0
C1422 C 0.03357 0.43831 0.07096 0.0
C1423 C 0.02777 0.43658 0.05136 0.0
C1424 C 0.03578 0.44676 0.03578 0.0
C1425 C 0.05064 0.46016 0.03886 0.0
C1426 C 0.0572 0.46111 0.06803 0.0
H1427 H 0.02992 0.4293 0.07836 0.0
O1428 O 0.06659 0.43289 0.12051 0.0
O1429 O 0.05492 0.4522 0.10999 0.0
O1430 O 0.0325 0.42972 0.11948 0.0
O1431 O 0.02494 0.44645 0.10137 0.0
C1432 C 0.05118 0.4751 0.0289 0.0
C1433 C 0.05511 0.49092 0.03711 0.0
H1434 H 0.06884 0.51597 0.07404 0.0
H1435 H 0.06757 0.51235 0.10039 0.0
H1436 H 0.01905 0.42816 0.04867 0.0
H1437 H 0.03068 0.44568 0.02449 0.0
H1438 H 0.04719 0.47497 0.01712 0.0
H1439 H 0.05462 0.50004 0.02837 0.0
Mn1440 Mn 0.8712 0.55135 0.95958 0.0
Mn1441 Mn 0.9059 0.53706 0.96892 0.0
C1442 C 0.89143 0.55347 0.94231 0.0
C1443 C 0.84709 0.54758 0.94813 0.0
C1444 C 0.89542 0.56861 0.97898 0.0
O1445 O 0.86578 0.53773 0.97799 0.0
O1446 O 0.88989 0.53075 0.9837 0.0
C1447 C 0.89785 0.50319 0.96478 0.0
N1448 N 0.90731 0.51538 0.96213 0.0
C1449 C 0.92988 0.49443 0.95877 0.0
C1450 C 0.91856 0.48339 0.96039 0.0
C1451 C 0.90301 0.4877 0.96305 0.0
C1452 C 0.92168 0.51259 0.95821 0.0
H1453 H 0.88608 0.50521 0.96819 0.0
C1454 C 0.87552 0.53088 0.98649 0.0
O1455 O 0.84935 0.55885 0.95771 0.0
O1456 O 0.85851 0.53835 0.94589 0.0
N1457 N 0.92366 0.5429 0.95645 0.0
C1458 C 0.92958 0.55865 0.95432 0.0
C1459 C 0.94701 0.56298 0.95111 0.0
C1460 C 0.96779 0.54165 0.94979 0.0
C1461 C 0.95983 0.52496 0.95217 0.0
C1462 C 0.93172 0.52854 0.95551 0.0
H1463 H 0.92178 0.5681 0.95591 0.0
O1464 O 0.87953 0.56233 0.94141 0.0
O1465 O 0.89105 0.54283 0.95295 0.0
O1466 O 0.88152 0.5677 0.97403 0.0
O1467 O 0.90535 0.55802 0.97715 0.0
C1468 C 0.96539 0.50509 0.95305 0.0
C1469 C 0.9503 0.49006 0.9565 0.0
H1470 H 0.92167 0.47154 0.9589 0.0
H1471 H 0.89457 0.47867 0.96418 0.0
H1472 H 0.94799 0.57554 0.95007 0.0
H1473 H 0.98023 0.54194 0.94788 0.0
H1474 H 0.97869 0.50383 0.9513 0.0
H1475 H 0.95948 0.49649 0.95463 0.0
Mn1476 Mn 0.37713 0.69627 0.79045 0.0
Mn1477 Mn 0.41134 0.71092 0.77988 0.0
C1478 C 0.3988 0.6922 0.80586 0.0
C1479 C 0.35416 0.70084 0.80393 0.0
C1480 C 0.3964 0.68308 0.76477 0.0
O1481 O 0.37147 0.71187 0.77342 0.0
O1482 O 0.39443 0.72365 0.77152 0.0
C1483 C 0.40806 0.73972 0.79672 0.0
N1484 N 0.41675 0.72707 0.79427 0.0
C1485 C 0.44126 0.74129 0.80248 0.0
C1486 C 0.43031 0.75388 0.8056 0.0
C1487 C 0.41447 0.75272 0.80329 0.0
C1488 C 0.43092 0.72601 0.80046 0.0
H1489 H 0.39608 0.73994 0.79356 0.0
C1490 C 0.3801 0.72268 0.76844 0.0
O1491 O 0.35497 0.69016 0.79347 0.0
O1492 O 0.36641 0.70898 0.80605 0.0
N1493 N 0.42973 0.69954 0.78584 0.0
C1494 C 0.4375 0.6882 0.77308 0.0
C1495 C 0.45756 0.68572 0.76966 0.0
C1496 C 0.47249 0.69508 0.7797 0.0
C1497 C 0.46824 0.70835 0.79444 0.0
C1498 C 0.43865 0.71033 0.79777 0.0
H1499 H 0.43019 0.68231 0.76502 0.0
O1500 O 0.38669 0.68371 0.80756 0.0
O1501 O 0.39771 0.70258 0.79534 0.0
O1502 O 0.38528 0.68114 0.7742 0.0
O1503 O 0.40572 0.69448 0.76521 0.0
C1504 C 0.47863 0.72289 0.79627 0.0
C1505 C 0.47065 0.739 0.79942 0.0
H1506 H 0.4334 0.76534 0.80932 0.0
H1507 H 0.4072 0.76259 0.80548 0.0
H1508 H 0.46084 0.67819 0.76031 0.0
H1509 H 0.4842 0.69384 0.77572 0.0
H1510 H 0.49076 0.72233 0.79358 0.0
H1511 H 0.47972 0.74778 0.79997 0.0
Mn1512 Mn 0.29991 0.12949 0.5411 0.0
Mn1513 Mn 0.28806 0.16541 0.53223 0.0
C1514 C 0.30347 0.14943 0.558 0.0
C1515 C 0.29625 0.10549 0.55359 0.0
C1516 C 0.31848 0.15299 0.52156 0.0
O1517 O 0.28462 0.12504 0.52389 0.0
O1518 O 0.28145 0.14968 0.51672 0.0
C1519 C 0.25369 0.15905 0.53361 0.0
N1520 N 0.26607 0.16763 0.53804 0.0
C1521 C 0.24574 0.19087 0.54113 0.0
C1522 C 0.23449 0.1805 0.53663 0.0
C1523 C 0.23841 0.16503 0.53334 0.0
C1524 C 0.26359 0.18191 0.54265 0.0
H1525 H 0.25535 0.14736 0.52985 0.0
C1526 C 0.27927 0.13522 0.51479 0.0
O1527 O 0.30667 0.10722 0.543 0.0
O1528 O 0.28748 0.11723 0.55601 0.0
N1529 N 0.2941 0.18296 0.54567 0.0
C1530 C 0.30993 0.1886 0.5488 0.0
C1531 C 0.31451 0.20607 0.55274 0.0
C1532 C 0.29346 0.22708 0.55331 0.0
C1533 C 0.27687 0.21958 0.54998 0.0
C1534 C 0.27984 0.19141 0.54638 0.0
H1535 H 0.31938 0.18074 0.54708 0.0
O1536 O 0.31224 0.13741 0.55837 0.0
O1537 O 0.29245 0.14967 0.54782 0.0
O1538 O 0.3158 0.13894 0.52539 0.0
O1539 O 0.30944 0.16405 0.52489 0.0
C1540 C 0.25731 0.22579 0.54816 0.0
C1541 C 0.24203 0.21134 0.54359 0.0
H1542 H 0.22272 0.18434 0.5353 0.0
H1543 H 0.22927 0.15741 0.5297 0.0
H1544 H 0.32698 0.20689 0.5545 0.0
H1545 H 0.29379 0.23949 0.55529 0.0
H1546 H 0.25639 0.2391 0.55009 0.0
H1547 H 0.24868 0.2202 0.54602 0.0
Mn1548 Mn 0.8771 0.05216 0.29126 0.0
Mn1549 Mn 0.84025 0.04316 0.28171 0.0
C1550 C 0.85697 0.05698 0.30783 0.0
C1551 C 0.90056 0.04578 0.30259 0.0
C1552 C 0.85764 0.0709 0.26915 0.0
O1553 O 0.87997 0.03734 0.27326 0.0
O1554 O 0.85507 0.03097 0.26898 0.0
C1555 C 0.8399 0.00895 0.28848 0.0
N1556 N 0.83384 0.02303 0.29224 0.0
C1557 C 0.80684 0.00472 0.29577 0.0
C1558 C 0.81595 0.99238 0.29192 0.0
C1559 C 0.83186 0.99457 0.28925 0.0
C1560 C 0.82019 0.02307 0.29935 0.0
H1561 H 0.85151 0.00839 0.28416 0.0
C1562 C 0.86955 0.02976 0.2662 0.0
O1563 O 0.89952 0.05678 0.29256 0.0
O1564 O 0.88815 0.038 0.30539 0.0
N1565 N 0.82444 0.05688 0.29201 0.0
C1566 C 0.81801 0.0726 0.2825 0.0
C1567 C 0.79733 0.07742 0.27777 0.0
C1568 C 0.78031 0.06566 0.28355 0.0
C1569 C 0.78227 0.04769 0.29461 0.0
C1570 C 0.81447 0.04396 0.30056 0.0
H1571 H 0.82628 0.07998 0.2772 0.0
O1572 O 0.86984 0.06436 0.30938 0.0
O1573 O 0.85628 0.0469 0.29694 0.0
O1574 O 0.8701 0.06932 0.27666 0.0
O1575 O 0.84633 0.0616 0.27001 0.0
C1576 C 0.77236 0.02715 0.28947 0.0
C1577 C 0.78359 0.00569 0.28978 0.0
H1578 H 0.81074 0.98132 0.28964 0.0
H1579 H 0.83832 0.98445 0.28596 0.0
H1580 H 0.79526 0.08744 0.27073 0.0
H1581 H 0.76921 0.06855 0.27874 0.0
H1582 H 0.76086 0.02737 0.28482 0.0
H1583 H 0.77767 0.99544 0.28596 0.0
Mn1584 Mn 0.45108 0.62545 0.54589 0.0
Mn1585 Mn 0.46179 0.58934 0.53585 0.0
C1586 C 0.44774 0.60503 0.56256 0.0
C1587 C 0.45499 0.64961 0.55757 0.0
C1588 C 0.43141 0.60282 0.52692 0.0
O1589 O 0.46556 0.62998 0.52793 0.0
O1590 O 0.46834 0.60534 0.52078 0.0
C1591 C 0.49606 0.59571 0.53797 0.0
N1592 N 0.48369 0.58667 0.54127 0.0
C1593 C 0.50383 0.56326 0.54214 0.0
C1594 C 0.51515 0.57405 0.53948 0.0
C1595 C 0.51136 0.58984 0.53785 0.0
C1596 C 0.48611 0.5721 0.54467 0.0
H1597 H 0.49434 0.6077 0.53527 0.0
C1598 C 0.47039 0.61974 0.5186 0.0
O1599 O 0.44432 0.64749 0.54735 0.0
O1600 O 0.4639 0.63797 0.56031 0.0
N1601 N 0.45571 0.57101 0.54825 0.0
C1602 C 0.43988 0.56515 0.55105 0.0
C1603 C 0.43522 0.54736 0.5533 0.0
C1604 C 0.45616 0.5263 0.55146 0.0
C1605 C 0.47271 0.534 0.54859 0.0
C1606 C 0.46988 0.56241 0.54775 0.0
H1607 H 0.43049 0.5732 0.55037 0.0
O1608 O 0.4394 0.61732 0.56369 0.0
O1609 O 0.45831 0.60484 0.55196 0.0
O1610 O 0.43454 0.61664 0.53092 0.0
O1611 O 0.44037 0.59147 0.52927 0.0
C1612 C 0.4922 0.52789 0.5459 0.0
C1613 C 0.50749 0.54265 0.54255 0.0
H1614 H 0.52685 0.57018 0.53889 0.0
H1615 H 0.52057 0.59789 0.53584 0.0
H1616 H 0.42277 0.54641 0.5552 0.0
H1617 H 0.45581 0.51374 0.55231 0.0
H1618 H 0.49303 0.51445 0.5465 0.0
H1619 H 0.50082 0.53362 0.54419 0.0
Mn1620 Mn 0.87931 0.20294 0.96044 0.0
Mn1621 Mn 0.8438 0.2155 0.97092 0.0
C1622 C 0.85867 0.20051 0.9441 0.0
C1623 C 0.90334 0.20575 0.94806 0.0
C1624 C 0.85596 0.18448 0.97982 0.0
O1625 O 0.88469 0.21716 0.97828 0.0
O1626 O 0.8603 0.22138 0.98582 0.0
C1627 C 0.8509 0.24965 0.96974 0.0
N1628 N 0.84176 0.23758 0.96557 0.0
C1629 C 0.81892 0.25849 0.96418 0.0
C1630 C 0.82982 0.26942 0.96819 0.0
C1631 C 0.84535 0.26506 0.97054 0.0
C1632 C 0.82732 0.24046 0.96179 0.0
H1633 H 0.8627 0.24756 0.97293 0.0
C1634 C 0.87486 0.22256 0.98773 0.0
O1635 O 0.90106 0.1952 0.95839 0.0
O1636 O 0.89206 0.21521 0.94577 0.0
N1637 N 0.82529 0.21001 0.95853 0.0
C1638 C 0.81898 0.19434 0.9558 0.0
C1639 C 0.80111 0.19018 0.95338 0.0
C1640 C 0.78065 0.21174 0.95476 0.0
C1641 C 0.78883 0.22812 0.95752 0.0
C1642 C 0.81715 0.22445 0.95872 0.0
H1643 H 0.82672 0.18471 0.95671 0.0
O1644 O 0.87055 0.19161 0.94288 0.0
O1645 O 0.859 0.21118 0.95463 0.0
O1646 O 0.86988 0.18678 0.97555 0.0
O1647 O 0.84511 0.19406 0.9776 0.0
C1648 C 0.78329 0.24781 0.95999 0.0
C1649 C 0.79843 0.26268 0.96345 0.0
H1650 H 0.82636 0.28123 0.96994 0.0
H1651 H 0.85339 0.27395 0.97391 0.0
H1652 H 0.79983 0.17775 0.9516 0.0
H1653 H 0.76809 0.21173 0.95377 0.0
H1654 H 0.76988 0.24907 0.95918 0.0
H1655 H 0.78925 0.25626 0.96171 0.0
Mn1656 Mn 0.30848 0.12709 0.71322 0.0
Mn1657 Mn 0.29418 0.09257 0.72371 0.0
C1658 C 0.31202 0.10569 0.69735 0.0
C1659 C 0.30388 0.15021 0.69963 0.0
C1660 C 0.32271 0.10691 0.73803 0.0
O1661 O 0.29344 0.13252 0.73081 0.0
O1662 O 0.28234 0.10927 0.73354 0.0
C1663 C 0.26435 0.0965 0.70881 0.0
N1664 N 0.27721 0.08784 0.70997 0.0
C1665 C 0.2628 0.06394 0.70016 0.0
C1666 C 0.25014 0.07504 0.69816 0.0
C1667 C 0.25124 0.09058 0.702 0.0
C1668 C 0.27812 0.07415 0.70267 0.0
H1669 H 0.26405 0.10811 0.71317 0.0
C1670 C 0.2834 0.12354 0.73677 0.0
O1671 O 0.31463 0.1493 0.70999 0.0
O1672 O 0.29547 0.1381 0.69789 0.0
N1673 N 0.30493 0.07433 0.71667 0.0
C1674 C 0.31647 0.06572 0.7287 0.0
C1675 C 0.31899 0.04548 0.73071 0.0
C1676 C 0.30942 0.03126 0.71985 0.0
C1677 C 0.29588 0.03651 0.70569 0.0
C1678 C 0.29386 0.06625 0.70445 0.0
H1679 H 0.32247 0.07248 0.73716 0.0
O1680 O 0.32057 0.11777 0.69573 0.0
O1681 O 0.30191 0.10658 0.70817 0.0
O1682 O 0.3241 0.11854 0.72907 0.0
O1683 O 0.31145 0.09746 0.73759 0.0
C1684 C 0.28132 0.02626 0.70341 0.0
C1685 C 0.26517 0.03442 0.70114 0.0
H1686 H 0.23865 0.07221 0.69433 0.0
H1687 H 0.24125 0.09792 0.70077 0.0
H1688 H 0.32667 0.04157 0.73967 0.0
H1689 H 0.31072 0.0193 0.72298 0.0
H1690 H 0.28193 0.01397 0.70522 0.0
H1691 H 0.25638 0.02539 0.70014 0.0
Mn1692 Mn 0.95265 0.62513 0.20866 0.0
Mn1693 Mn 0.96559 0.66068 0.21685 0.0
C1694 C 0.94824 0.64549 0.192 0.0
C1695 C 0.9563 0.6011 0.19589 0.0
C1696 C 0.93581 0.64904 0.22951 0.0
O1697 O 0.96823 0.62029 0.22584 0.0
O1698 O 0.97237 0.64497 0.23187 0.0
C1699 C 0.99857 0.65095 0.21049 0.0
N1700 N 0.98682 0.66118 0.20886 0.0
C1701 C 0.00864 0.68237 0.20388 0.0
C1702 C 0.01914 0.67033 0.20456 0.0
C1703 C 0.01413 0.65509 0.20751 0.0
C1704 C 0.99004 0.67521 0.20426 0.0
H1705 H 0.99611 0.63929 0.21397 0.0
C1706 C 0.97385 0.63064 0.23461 0.0
O1707 O 0.94602 0.6027 0.20665 0.0
O1708 O 0.96474 0.61301 0.19332 0.0
N1709 N 0.95964 0.67889 0.20438 0.0
C1710 C 0.94413 0.68596 0.20325 0.0
C1711 C 0.94071 0.70391 0.20053 0.0
C1712 C 0.96331 0.72313 0.19841 0.0
C1713 C 0.97948 0.71413 0.19969 0.0
C1714 C 0.97444 0.68618 0.20262 0.0
H1715 H 0.93426 0.67881 0.20563 0.0
O1716 O 0.93965 0.63337 0.19164 0.0
O1717 O 0.95958 0.64534 0.20169 0.0
O1718 O 0.9377 0.63499 0.22507 0.0
O1719 O 0.94484 0.66003 0.22581 0.0
C1720 C 0.99966 0.71852 0.19955 0.0
C1721 C 0.01397 0.70254 0.2018 0.0
H1722 H 0.03117 0.67251 0.20243 0.0
H1723 H 0.02273 0.64612 0.20809 0.0
H1724 H 0.92823 0.70584 0.20017 0.0
H1725 H 0.96383 0.73561 0.19683 0.0
H1726 H 1.00159 0.73177 0.19803 0.0
H1727 H 0.00796 0.71209 0.20051 0.0
Mn1728 Mn 0.04487 0.62825 0.94762 0.0
Mn1729 Mn 0.03845 0.59451 0.96465 0.0
C1730 C 0.06272 0.60791 0.94455 0.0
C1731 C 0.05656 0.65245 0.951 0.0
C1732 C 0.02041 0.60675 0.93668 0.0
O1733 O 0.02712 0.63262 0.96325 0.0
O1734 O 0.02993 0.61125 0.97755 0.0
C1735 C 0.05675 0.59929 0.9923 0.0
N1736 N 0.05402 0.59019 0.97999 0.0
C1737 C 0.06307 0.56625 0.99465 0.0
C1738 C 0.06676 0.57764 0.00667 0.0
C1739 C 0.06408 0.5934 0.00514 0.0
C1740 C 0.06032 0.57605 0.97913 0.0
H1741 H 0.05314 0.61116 0.99236 0.0
C1742 C 0.02393 0.62444 0.97515 0.0
O1743 O 0.04612 0.65038 0.94049 0.0
O1744 O 0.05943 0.64085 0.9598 0.0
N1745 N 0.04482 0.57632 0.95319 0.0
C1746 C 0.03193 0.5682 0.94245 0.0
C1747 C 0.0281 0.54813 0.94093 0.0
C1748 C 0.03826 0.53347 0.95055 0.0
C1749 C 0.05346 0.53809 0.96312 0.0
C1750 C 0.05697 0.56777 0.96387 0.0
H1751 H 0.02717 0.57509 0.93366 0.0
O1752 O 0.06304 0.61963 0.93537 0.0
O1753 O 0.05219 0.60866 0.95489 0.0
O1754 O 0.02915 0.61797 0.9329 0.0
O1755 O 0.02247 0.59899 0.9491 0.0
C1756 C 0.05591 0.52825 0.97795 0.0
C1757 C 0.05984 0.53681 0.99358 0.0
H1758 H 0.07114 0.57496 0.01799 0.0
H1759 H 0.06658 0.60101 0.01468 0.0
H1760 H 0.01916 0.54461 0.93304 0.0
H1761 H 0.03432 0.52172 0.94969 0.0
H1762 H 0.05319 0.51611 0.97795 0.0
H1763 H 0.0608 0.52807 0.00266 0.0
Mn1764 Mn 0.87786 0.79362 0.20286 0.0
Mn1765 Mn 0.91404 0.7839 0.21314 0.0
C1766 C 0.89808 0.8103 0.19874 0.0
C1767 C 0.85396 0.8055 0.20763 0.0
C1768 C 0.9003 0.77443 0.18305 0.0
O1769 O 0.8736 0.77578 0.21754 0.0
O1770 O 0.89826 0.76864 0.21992 0.0
C1771 C 0.90781 0.78646 0.24747 0.0
N1772 N 0.91674 0.7896 0.23498 0.0
C1773 C 0.94012 0.79191 0.25506 0.0
C1774 C 0.92943 0.78931 0.26649 0.0
C1775 C 0.91369 0.78708 0.26277 0.0
C1776 C 0.93119 0.7935 0.23727 0.0
H1777 H 0.89589 0.78339 0.24588 0.0
C1778 C 0.88388 0.76643 0.22216 0.0
O1779 O 0.85556 0.79529 0.19683 0.0
O1780 O 0.86594 0.8081 0.21607 0.0
N1781 N 0.93209 0.79655 0.2068 0.0
C1782 C 0.93781 0.79931 0.19091 0.0
C1783 C 0.95544 0.80244 0.18618 0.0
C1784 C 0.97656 0.80222 0.20714 0.0
C1785 C 0.96901 0.79931 0.22378 0.0
C1786 C 0.9407 0.79676 0.22097 0.0
H1787 H 0.92981 0.79801 0.18153 0.0
O1788 O 0.88558 0.81126 0.19073 0.0
O1789 O 0.89853 0.7999 0.20952 0.0
O1790 O 0.88647 0.77844 0.18629 0.0
O1791 O 0.91176 0.77706 0.1918 0.0
C1792 C 0.97522 0.79741 0.24332 0.0
C1793 C 0.96067 0.79358 0.25869 0.0
H1794 H 0.93332 0.78941 0.27822 0.0
H1795 H 0.90569 0.7853 0.27208 0.0
H1796 H 0.95627 0.80412 0.17369 0.0
H1797 H 0.98905 0.80378 0.20675 0.0
H1798 H 0.98861 0.79882 0.24412 0.0
H1799 H 0.9696 0.79557 0.25199 0.0
Mn1800 Mn 0.70901 0.62772 0.45193 0.0
Mn1801 Mn 0.71842 0.66303 0.46567 0.0
C1802 C 0.69193 0.64787 0.45047 0.0
C1803 C 0.69737 0.60332 0.454 0.0
C1804 C 0.72778 0.65213 0.43421 0.0
O1805 O 0.72703 0.62236 0.46588 0.0
O1806 O 0.73379 0.64676 0.47128 0.0
C1807 C 0.71759 0.65541 0.4997 0.0
N1808 N 0.71299 0.66455 0.48779 0.0
C1809 C 0.71156 0.6872 0.50892 0.0
C1810 C 0.71594 0.67627 0.51969 0.0
C1811 C 0.71852 0.66083 0.51516 0.0
C1812 C 0.70894 0.6789 0.49088 0.0
H1813 H 0.72109 0.64372 0.49743 0.0
C1814 C 0.73608 0.63219 0.47189 0.0
O1815 O 0.70753 0.60622 0.44344 0.0
O1816 O 0.69484 0.61419 0.46387 0.0
N1817 N 0.70536 0.68115 0.46048 0.0
C1818 C 0.70227 0.68751 0.44489 0.0
C1819 C 0.69965 0.70538 0.44089 0.0
C1820 C 0.70121 0.72569 0.46257 0.0
C1821 C 0.7043 0.71743 0.47883 0.0
C1822 C 0.70557 0.68917 0.47498 0.0
H1823 H 0.70303 0.67981 0.43522 0.0
O1824 O 0.6911 0.63636 0.44106 0.0
O1825 O 0.70262 0.64749 0.46098 0.0
O1826 O 0.72378 0.63805 0.436 0.0
O1827 O 0.72527 0.66253 0.44421 0.0
C1828 C 0.70706 0.72287 0.49849 0.0
C1829 C 0.7108 0.70767 0.51325 0.0
H1830 H 0.71788 0.67968 0.5315 0.0
H1831 H 0.72223 0.6528 0.52391 0.0
H1832 H 0.69765 0.70673 0.42849 0.0
H1833 H 0.70014 0.73824 0.46267 0.0
H1834 H 0.70641 0.73626 0.49967 0.0
H1835 H 0.70894 0.7169 0.50691 0.0
Mn1836 Mn 0.8767 0.4613 0.70183 0.0
Mn1837 Mn 0.84123 0.47096 0.71463 0.0
C1838 C 0.85617 0.4451 0.69835 0.0
C1839 C 0.90065 0.44872 0.70423 0.0
C1840 C 0.8535 0.48213 0.68464 0.0
O1841 O 0.88202 0.47803 0.71721 0.0
O1842 O 0.85763 0.48582 0.72098 0.0
C1843 C 0.84824 0.46885 0.74879 0.0
N1844 N 0.83925 0.46487 0.73654 0.0
C1845 C 0.81635 0.46232 0.75732 0.0
C1846 C 0.82712 0.46626 0.76842 0.0
C1847 C 0.8426 0.46909 0.7642 0.0
C1848 C 0.82486 0.46078 0.73925 0.0
H1849 H 0.85998 0.47232 0.74689 0.0
C1850 C 0.87219 0.48747 0.72256 0.0
O1851 O 0.89857 0.45963 0.69423 0.0
O1852 O 0.88918 0.44584 0.71327 0.0
N1853 N 0.82302 0.45837 0.7087 0.0
C1854 C 0.81689 0.45586 0.69292 0.0
C1855 C 0.79917 0.4528 0.68864 0.0
C1856 C 0.7786 0.45271 0.71015 0.0
C1857 C 0.78661 0.45537 0.72665 0.0
C1858 C 0.81486 0.4578 0.72312 0.0
H1859 H 0.82461 0.45748 0.68332 0.0
O1860 O 0.86796 0.4446 0.68927 0.0
O1861 O 0.85647 0.45497 0.70964 0.0
O1862 O 0.8674 0.4778 0.68697 0.0
O1863 O 0.84236 0.47862 0.69346 0.0
C1864 C 0.78092 0.45705 0.74639 0.0
C1865 C 0.79588 0.46068 0.76143 0.0
H1866 H 0.82358 0.46753 0.78028 0.0
H1867 H 0.85053 0.47235 0.77323 0.0
H1868 H 0.798 0.45135 0.67615 0.0
H1869 H 0.7661 0.45119 0.71005 0.0
H1870 H 0.76756 0.45568 0.74758 0.0
H1871 H 0.78679 0.45877 0.75493 0.0
Mn1872 Mn 0.04688 0.62791 0.30069 0.0
Mn1873 Mn 0.0363 0.66364 0.28933 0.0
C1874 C 0.06327 0.64867 0.30376 0.0
C1875 C 0.05897 0.60388 0.29735 0.0
C1876 C 0.02751 0.65054 0.31987 0.0
O1877 O 0.02899 0.62282 0.28623 0.0
O1878 O 0.02151 0.6473 0.28293 0.0
C1879 C 0.0386 0.65694 0.2551 0.0
N1880 N 0.04171 0.66614 0.26741 0.0
C1881 C 0.04247 0.68937 0.24704 0.0
C1882 C 0.04006 0.67844 0.2358 0.0
C1883 C 0.03857 0.66267 0.23973 0.0
C1884 C 0.04488 0.68074 0.26488 0.0
H1885 H 0.03602 0.64494 0.25691 0.0
C1886 C 0.01954 0.63282 0.28115 0.0
O1887 O 0.04869 0.60604 0.30795 0.0
O1888 O 0.06151 0.61536 0.28817 0.0
N1889 N 0.04842 0.68218 0.29528 0.0
C1890 C 0.05117 0.68823 0.31106 0.0
C1891 C 0.05347 0.70605 0.31553 0.0
C1892 C 0.05176 0.72688 0.29435 0.0
C1893 C 0.04894 0.71898 0.27786 0.0
C1894 C 0.04793 0.69061 0.28102 0.0
H1895 H 0.05045 0.68029 0.32054 0.0
O1896 O 0.0645 0.63653 0.3123 0.0
O1897 O 0.05272 0.64851 0.29312 0.0
O1898 O 0.03176 0.63674 0.31703 0.0
O1899 O 0.02968 0.66174 0.31072 0.0
C1900 C 0.04635 0.72485 0.2583 0.0
C1901 C 0.04299 0.70994 0.24315 0.0
H1902 H 0.03967 0.68219 0.22404 0.0
H1903 H 0.0368 0.6545 0.23056 0.0
H1904 H 0.05533 0.70712 0.32798 0.0
H1905 H 0.05267 0.73944 0.29458 0.0
H1906 H 0.04701 0.73827 0.25737 0.0
H1907 H 0.04464 0.71905 0.24972 0.0
Mn1908 Mn 0.87758 0.79182 0.5565 0.0
Mn1909 Mn 0.84366 0.78166 0.54101 0.0
C1910 C 0.85617 0.80766 0.56005 0.0
C1911 C 0.90077 0.805 0.55175 0.0
C1912 C 0.85747 0.76674 0.56956 0.0
O1913 O 0.88313 0.77403 0.5418 0.0
O1914 O 0.86071 0.77265 0.52902 0.0
C1915 C 0.84846 0.79841 0.51237 0.0
N1916 N 0.83925 0.79624 0.52471 0.0
C1917 C 0.81586 0.80656 0.50997 0.0
C1918 C 0.82744 0.80962 0.49797 0.0
C1919 C 0.84299 0.80599 0.49949 0.0
C1920 C 0.82547 0.80334 0.52555 0.0
H1921 H 0.86016 0.79431 0.51232 0.0
C1922 C 0.87467 0.76869 0.53104 0.0
O1923 O 0.89979 0.79486 0.56272 0.0
O1924 O 0.88864 0.80687 0.54341 0.0
N1925 N 0.82493 0.78778 0.5515 0.0
C1926 C 0.81619 0.77484 0.56188 0.0
C1927 C 0.79593 0.77213 0.56336 0.0
C1928 C 0.78182 0.78317 0.55383 0.0
C1929 C 0.78722 0.79827 0.54141 0.0
C1930 C 0.81696 0.80043 0.54082 0.0
H1931 H 0.82295 0.76623 0.56766 0.0
O1932 O 0.86827 0.80938 0.56854 0.0
O1933 O 0.85718 0.79693 0.54985 0.0
O1934 O 0.86869 0.77605 0.57177 0.0
O1935 O 0.84851 0.76713 0.55784 0.0
C1936 C 0.77754 0.80119 0.52654 0.0
C1937 C 0.78632 0.8047 0.51093 0.0
H1938 H 0.82502 0.81414 0.48663 0.0
H1939 H 0.85073 0.80803 0.48995 0.0
H1940 H 0.79196 0.76262 0.57031 0.0
H1941 H 0.76991 0.77964 0.5544 0.0
H1942 H 0.7653 0.79901 0.52649 0.0
H1943 H 0.77766 0.80603 0.50181 0.0
Mn1944 Mn 0.70997 0.62576 0.80456 0.0
Mn1945 Mn 0.72031 0.59166 0.78883 0.0
C1946 C 0.69417 0.60437 0.8074 0.0
C1947 C 0.69721 0.64953 0.80178 0.0
C1948 C 0.7353 0.60591 0.81717 0.0
O1949 O 0.72731 0.63133 0.78929 0.0
O1950 O 0.72837 0.60891 0.77612 0.0
C1951 C 0.7045 0.59313 0.7591 0.0
N1952 N 0.70625 0.58535 0.77245 0.0
C1953 C 0.69865 0.55979 0.75904 0.0
C1954 C 0.69602 0.57001 0.74582 0.0
C1955 C 0.69847 0.5859 0.74622 0.0
C1956 C 0.70033 0.57102 0.7739 0.0
H1957 H 0.70786 0.60503 0.75822 0.0
C1958 C 0.73194 0.62311 0.77794 0.0
O1959 O 0.70779 0.64755 0.81213 0.0
O1960 O 0.69468 0.63803 0.79264 0.0
N1961 N 0.71435 0.57346 0.80061 0.0
C1962 C 0.72675 0.56615 0.81266 0.0
C1963 C 0.72991 0.54623 0.81626 0.0
C1964 C 0.71996 0.53093 0.80744 0.0
C1965 C 0.70561 0.5346 0.79361 0.0
C1966 C 0.7026 0.56407 0.79001 0.0
H1967 H 0.73477 0.5736 0.81835 0.0
O1968 O 0.69262 0.61613 0.81645 0.0
O1969 O 0.70473 0.60554 0.79705 0.0
O1970 O 0.72561 0.61662 0.81965 0.0
O1971 O 0.73518 0.59741 0.80516 0.0
C1972 C 0.70406 0.52346 0.77965 0.0
C1973 C 0.70143 0.53056 0.7631 0.0
H1974 H 0.6926 0.56626 0.73446 0.0
H1975 H 0.69675 0.59258 0.73585 0.0
H1976 H 0.73902 0.54327 0.82418 0.0
H1977 H 0.72378 0.51926 0.80939 0.0
H1978 H 0.70662 0.51136 0.78094 0.0
H1979 H 0.70111 0.52098 0.75484 0.0
Mn1980 Mn 0.8727 0.46004 0.0541 0.0
Mn1981 Mn 0.90681 0.46827 0.03816 0.0
C1982 C 0.89299 0.44297 0.05683 0.0
C1983 C 0.84865 0.44815 0.05083 0.0
C1984 C 0.89745 0.48079 0.06922 0.0
O1985 O 0.86685 0.47761 0.03961 0.0
O1986 O 0.8907 0.48288 0.03157 0.0
C1987 C 0.89665 0.46133 0.00532 0.0
N1988 N 0.9069 0.45979 0.01706 0.0
C1989 C 0.928 0.45407 0.99515 0.0
C1990 C 0.91589 0.45453 0.98477 0.0
C1991 C 0.90069 0.45784 0.98981 0.0
C1992 C 0.92096 0.45522 0.01376 0.0
H1993 H 0.88506 0.46509 0.00777 0.0
C1994 C 0.87635 0.48573 0.03204 0.0
O1995 O 0.85077 0.45816 0.06176 0.0
O1996 O 0.86016 0.44562 0.04187 0.0
N1997 N 0.92471 0.45592 0.04399 0.0
C1998 C 0.93152 0.4549 0.0595 0.0
C1999 C 0.94911 0.45154 0.06304 0.0
C2000 C 0.96854 0.44797 0.04072 0.0
C2001 C 0.95966 0.44926 0.02436 0.0
C2002 C 0.93189 0.45355 0.02928 0.0
H2003 H 0.92439 0.45768 0.06928 0.0
O2004 O 0.88133 0.44256 0.06602 0.0
O2005 O 0.89224 0.45295 0.04563 0.0
O2006 O 0.88355 0.47563 0.06914 0.0
O2007 O 0.90716 0.47808 0.05855 0.0
C2008 C 0.96402 0.44842 0.00415 0.0
C2009 C 0.94809 0.45099 0.98979 0.0
H2010 H 0.91796 0.45157 0.97291 0.0
H2011 H 0.89164 0.45808 0.98128 0.0
H2012 H 0.95083 0.4515 0.07556 0.0
H2013 H 0.98093 0.44576 0.04044 0.0
H2014 H 0.97718 0.4463 0.00223 0.0
H2015 H 0.95761 0.44945 0.9958 0.0
Mn2016 Mn 0.44604 0.54064 0.62726 0.0
Mn2017 Mn 0.45801 0.52879 0.59213 0.0
C2018 C 0.44167 0.55591 0.60568 0.0
C2019 C 0.45185 0.55436 0.64988 0.0
C2020 C 0.42956 0.51626 0.6084 0.0
O2021 O 0.46123 0.52313 0.63239 0.0
O2022 O 0.47074 0.51939 0.60858 0.0
C2023 C 0.48852 0.54293 0.59357 0.0
N2024 N 0.47512 0.54179 0.58579 0.0
C2025 C 0.48829 0.55031 0.56061 0.0
C2026 C 0.50174 0.55204 0.57076 0.0
C2027 C 0.50148 0.54892 0.58652 0.0
C2028 C 0.4736 0.54864 0.57192 0.0
H2029 H 0.48935 0.53925 0.60536 0.0
C2030 C 0.47087 0.51704 0.62309 0.0
O2031 O 0.44089 0.5442 0.64958 0.0
O2032 O 0.45977 0.55588 0.63739 0.0
N2033 N 0.44641 0.53567 0.57422 0.0
C2034 C 0.43392 0.52392 0.56662 0.0
C2035 C 0.42989 0.52172 0.54664 0.0
C2036 C 0.43882 0.53198 0.5316 0.0
C2037 C 0.45319 0.54569 0.53564 0.0
C2038 C 0.45732 0.54733 0.56515 0.0
H2039 H 0.42865 0.51535 0.57375 0.0
O2040 O 0.43384 0.55806 0.61817 0.0
O2041 O 0.45168 0.54498 0.60624 0.0
O2042 O 0.42952 0.52531 0.61999 0.0
O2043 O 0.44038 0.51573 0.5984 0.0
C2044 C 0.46707 0.5472 0.52436 0.0
C2045 C 0.4838 0.54895 0.53132 0.0
H2046 H 0.51316 0.55524 0.56703 0.0
H2047 H 0.51194 0.55009 0.59317 0.0
H2048 H 0.42176 0.51288 0.54343 0.0
H2049 H 0.43661 0.52868 0.51981 0.0
H2050 H 0.46554 0.5452 0.51218 0.0
H2051 H 0.49196 0.54942 0.52167 0.0
Mn2052 Mn 0.96427 0.19715 0.87816 0.0
Mn2053 Mn 0.97477 0.21097 0.84338 0.0
C2054 C 0.9485 0.19333 0.85677 0.0
C2055 C 0.95079 0.20184 0.90135 0.0
C2056 C 0.98937 0.1829 0.85844 0.0
O2057 O 0.98146 0.21275 0.88337 0.0
O2058 O 0.98382 0.22372 0.85997 0.0
C2059 C 0.95964 0.2409 0.84556 0.0
N2060 N 0.96108 0.22766 0.83755 0.0
C2061 C 0.95314 0.2412 0.81239 0.0
C2062 C 0.95118 0.2545 0.82272 0.0
C2063 C 0.95383 0.25397 0.83857 0.0
C2064 C 0.95468 0.22635 0.82348 0.0
H2065 H 0.96306 0.24153 0.85745 0.0
C2066 C 0.98674 0.22317 0.87438 0.0
O2067 O 0.96123 0.19116 0.90046 0.0
O2068 O 0.94881 0.21005 0.88913 0.0
N2069 N 0.9679 0.19923 0.82553 0.0
C2070 C 0.97969 0.18679 0.81789 0.0
C2071 C 0.9821 0.18306 0.79787 0.0
C2072 C 0.97197 0.19219 0.78285 0.0
C2073 C 0.95818 0.20648 0.78695 0.0
C2074 C 0.95623 0.21019 0.8165 0.0
H2075 H 0.98774 0.18089 0.82516 0.0
O2076 O 0.94693 0.18482 0.86889 0.0
O2077 O 0.95922 0.20353 0.85757 0.0
O2078 O 0.98022 0.18151 0.8699 0.0
O2079 O 0.98899 0.19417 0.849 0.0
C2080 C 0.95674 0.22052 0.77585 0.0
C2081 C 0.95484 0.23716 0.78305 0.0
H2082 H 0.94809 0.26599 0.81912 0.0
H2083 H 0.95246 0.26433 0.84535 0.0
H2084 H 0.99087 0.17486 0.79463 0.0
H2085 H 0.97536 0.19011 0.77107 0.0
H2086 H 0.95889 0.21916 0.76368 0.0
H2087 H 0.95444 0.24545 0.77352 0.0
Mn2088 Mn 0.30059 0.70943 0.12699 0.0
Mn2089 Mn 0.28742 0.71853 0.09136 0.0
C2090 C 0.30261 0.69226 0.10695 0.0
C2091 C 0.29846 0.69803 0.15142 0.0
C2092 C 0.31854 0.72811 0.10284 0.0
O2093 O 0.28636 0.72734 0.13201 0.0
O2094 O 0.28136 0.73386 0.10746 0.0
C2095 C 0.25327 0.7174 0.09829 0.0
N2096 N 0.26541 0.71291 0.0894 0.0
C2097 C 0.24479 0.71123 0.0663 0.0
C2098 C 0.23375 0.71551 0.077 0.0
C2099 C 0.23793 0.71816 0.09254 0.0
C2100 C 0.26268 0.70884 0.07498 0.0
H2101 H 0.25525 0.72094 0.11002 0.0
C2102 C 0.28046 0.73625 0.12199 0.0
O2103 O 0.30885 0.70834 0.14853 0.0
O2104 O 0.2887 0.69523 0.1405 0.0
N2105 N 0.29314 0.70554 0.07337 0.0
C2106 C 0.30888 0.70263 0.06734 0.0
C2107 C 0.3133 0.70003 0.04956 0.0
C2108 C 0.29204 0.70128 0.02879 0.0
C2109 C 0.27557 0.7042 0.03671 0.0
C2110 C 0.27882 0.70562 0.06505 0.0
H2111 H 0.31837 0.70349 0.07524 0.0
O2112 O 0.31181 0.6916 0.11865 0.0
O2113 O 0.29196 0.70281 0.10707 0.0
O2114 O 0.31651 0.72424 0.11689 0.0
O2115 O 0.30876 0.72554 0.09227 0.0
C2116 C 0.25602 0.70671 0.03085 0.0
C2117 C 0.24091 0.71034 0.04574 0.0
H2118 H 0.222 0.71731 0.07335 0.0
H2119 H 0.22897 0.72178 0.10039 0.0
H2120 H 0.32574 0.69817 0.04846 0.0
H2121 H 0.29222 0.70018 0.01624 0.0
H2122 H 0.25512 0.70594 0.01744 0.0
H2123 H 0.24745 0.70852 0.03664 0.0
Mn2124 Mn 0.7932 0.05506 0.37373 0.0
Mn2125 Mn 0.7843 0.0391 0.33891 0.0
C2126 C 0.80958 0.05787 0.35287 0.0
C2127 C 0.80548 0.05306 0.39793 0.0
C2128 C 0.77027 0.06893 0.35053 0.0
O2129 O 0.77606 0.04004 0.37972 0.0
O2130 O 0.77204 0.03046 0.35606 0.0
C2131 C 0.78794 0.00855 0.3401 0.0
N2132 N 0.79612 0.02093 0.33597 0.0
C2133 C 0.79095 0.02241 0.30832 0.0
C2134 C 0.77575 0.01256 0.31602 0.0
C2135 C 0.77584 0.00531 0.33046 0.0
C2136 C 0.80092 0.02055 0.32092 0.0
H2137 H 0.78763 0.00479 0.35195 0.0
C2138 C 0.76909 0.03112 0.37041 0.0
O2139 O 0.79485 0.06326 0.39545 0.0
O2140 O 0.8084 0.04377 0.38667 0.0
N2141 N 0.79388 0.04547 0.32049 0.0
C2142 C 0.79617 0.06065 0.31686 0.0
C2143 C 0.80035 0.0654 0.30144 0.0
C2144 C 0.80237 0.05139 0.27938 0.0
C2145 C 0.79935 0.03279 0.2839 0.0
C2146 C 0.79486 0.03109 0.31001 0.0
H2147 H 0.79463 0.06926 0.32572 0.0
O2148 O 0.8103 0.06717 0.36448 0.0
O2149 O 0.79949 0.04695 0.35369 0.0
O2150 O 0.77715 0.06947 0.36357 0.0
O2151 O 0.77211 0.05821 0.3406 0.0
C2152 C 0.79926 0.02217 0.26955 0.0
C2153 C 0.79828 0.02599 0.2839 0.0
H2154 H 0.76493 0.01047 0.31016 0.0
H2155 H 0.76633 0.99826 0.33424 0.0
H2156 H 0.80207 0.0778 0.30352 0.0
H2157 H 0.80497 0.05386 0.26723 0.0
H2158 H 0.80131 0.02985 0.2589 0.0
H2159 H 0.79934 0.01345 0.27225 0.0
Mn2160 Mn 0.44792 0.71282 0.62473 0.0
Mn2161 Mn 0.4608 0.72406 0.65964 0.0
C2162 C 0.44395 0.6972 0.64614 0.0
C2163 C 0.45312 0.69926 0.60181 0.0
C2164 C 0.43233 0.73722 0.64416 0.0
O2165 O 0.46297 0.73055 0.61964 0.0
O2166 O 0.47354 0.73325 0.64315 0.0
C2167 C 0.49096 0.7093 0.65785 0.0
N2168 N 0.47764 0.71066 0.66574 0.0
C2169 C 0.49086 0.70207 0.69085 0.0
C2170 C 0.50421 0.70011 0.6806 0.0
C2171 C 0.50388 0.70316 0.66483 0.0
C2172 C 0.47612 0.70392 0.67965 0.0
H2173 H 0.49176 0.71297 0.64604 0.0
C2174 C 0.47308 0.73617 0.62876 0.0
O2175 O 0.44224 0.7095 0.60247 0.0
O2176 O 0.46141 0.69769 0.61405 0.0
N2177 N 0.44912 0.71734 0.67753 0.0
C2178 C 0.43683 0.72927 0.6852 0.0
C2179 C 0.43297 0.73155 0.70521 0.0
C2180 C 0.44186 0.72118 0.7202 0.0
C2181 C 0.45601 0.70726 0.71608 0.0
C2182 C 0.45991 0.70552 0.68654 0.0
H2183 H 0.4315 0.7378 0.67808 0.0
O2184 O 0.43589 0.69524 0.63377 0.0
O2185 O 0.45398 0.70812 0.64552 0.0
O2186 O 0.43161 0.72802 0.63271 0.0
O2187 O 0.44359 0.7377 0.65362 0.0
C2188 C 0.46995 0.70555 0.72726 0.0
C2189 C 0.48661 0.70354 0.72018 0.0
H2190 H 0.51562 0.69676 0.68425 0.0
H2191 H 0.51429 0.70182 0.65811 0.0
H2192 H 0.42496 0.74049 0.70846 0.0
H2193 H 0.43976 0.72451 0.732 0.0
H2194 H 0.46852 0.70758 0.73946 0.0
H2195 H 0.49484 0.70296 0.72977 0.0
Mn2196 Mn 0.79403 0.19871 0.87969 0.0
Mn2197 Mn 0.78341 0.21318 0.91422 0.0
C2198 C 0.80965 0.19511 0.90102 0.0
C2199 C 0.80724 0.20348 0.85646 0.0
C2200 C 0.76883 0.18491 0.89922 0.0
O2201 O 0.77662 0.21374 0.87441 0.0
O2202 O 0.77467 0.22585 0.89732 0.0
C2203 C 0.79858 0.24323 0.91254 0.0
N2204 N 0.79725 0.22982 0.9203 0.0
C2205 C 0.80576 0.2431 0.9456 0.0
C2206 C 0.80797 0.25639 0.93537 0.0
C2207 C 0.80484 0.25609 0.91959 0.0
C2208 C 0.80378 0.22831 0.93436 0.0
H2209 H 0.79473 0.24419 0.90079 0.0
C2210 C 0.77142 0.22447 0.88301 0.0
O2211 O 0.797 0.19263 0.85744 0.0
O2212 O 0.80923 0.21175 0.86865 0.0
N2213 N 0.78991 0.20149 0.93222 0.0
C2214 C 0.7778 0.18936 0.93982 0.0
C2215 C 0.77527 0.18566 0.95982 0.0
C2216 C 0.78562 0.19447 0.97487 0.0
C2217 C 0.79978 0.2084 0.97082 0.0
C2218 C 0.80185 0.21215 0.94129 0.0
H2219 H 0.76962 0.18365 0.93251 0.0
O2220 O 0.81139 0.1866 0.8889 0.0
O2221 O 0.79897 0.20537 0.90019 0.0
O2222 O 0.77827 0.18313 0.88807 0.0
O2223 O 0.76906 0.19642 0.90842 0.0
C2224 C 0.8016 0.22231 0.98197 0.0
C2225 C 0.80394 0.23889 0.97487 0.0
H2226 H 0.8115 0.26773 0.93905 0.0
H2227 H 0.80623 0.2665 0.91291 0.0
H2228 H 0.76629 0.17767 0.96302 0.0
H2229 H 0.78217 0.19245 0.98664 0.0
H2230 H 0.79943 0.22097 0.99414 0.0
H2231 H 0.80455 0.24707 0.98447 0.0
Mn2232 Mn 0.30116 0.54491 0.12941 0.0
Mn2233 Mn 0.28788 0.537 0.16496 0.0
C2234 C 0.30532 0.56172 0.14961 0.0
C2235 C 0.29823 0.55694 0.10519 0.0
C2236 C 0.31764 0.5242 0.15341 0.0
O2237 O 0.28563 0.52791 0.12452 0.0
O2238 O 0.28103 0.52192 0.14917 0.0
C2239 C 0.25471 0.54307 0.15568 0.0
N2240 N 0.26663 0.54497 0.16568 0.0
C2241 C 0.24505 0.54983 0.1872 0.0
C2242 C 0.23438 0.54899 0.17537 0.0
C2243 C 0.23917 0.54591 0.16007 0.0
C2244 C 0.26357 0.54959 0.17977 0.0
H2245 H 0.25699 0.53944 0.14402 0.0
C2246 C 0.27979 0.51922 0.13477 0.0
O2247 O 0.30832 0.5461 0.10728 0.0
O2248 O 0.28951 0.56009 0.11681 0.0
N2249 N 0.294 0.54957 0.18309 0.0
C2250 C 0.30959 0.5508 0.18999 0.0
C2251 C 0.3132 0.55353 0.20792 0.0
C2252 C 0.29081 0.55544 0.22741 0.0
C2253 C 0.27456 0.55409 0.21859 0.0
C2254 C 0.27929 0.55129 0.19056 0.0
H2255 H 0.31939 0.54844 0.18273 0.0
O2256 O 0.31411 0.56188 0.13761 0.0
O2257 O 0.29391 0.55208 0.14948 0.0
O2258 O 0.31582 0.52856 0.13938 0.0
O2259 O 0.30859 0.52797 0.16436 0.0
C2260 C 0.25449 0.55411 0.22324 0.0
C2261 C 0.23997 0.55182 0.20746 0.0
H2262 H 0.2224 0.55114 0.1778 0.0
H2263 H 0.23042 0.54517 0.15126 0.0
H2264 H 0.3257 0.55398 0.20971 0.0
H2265 H 0.29041 0.55701 0.23991 0.0
H2266 H 0.25287 0.55552 0.23651 0.0
H2267 H 0.24609 0.55312 0.21695 0.0
Mn2268 Mn 0.95843 0.04875 0.37285 0.0
Mn2269 Mn 0.96781 0.03679 0.40833 0.0
C2270 C 0.94115 0.05198 0.39295 0.0
C2271 C 0.94727 0.04422 0.34883 0.0
C2272 C 0.9771 0.06782 0.39617 0.0
O2273 O 0.97684 0.03476 0.36821 0.0
O2274 O 0.98301 0.03036 0.39276 0.0
C2275 C 0.96463 0.00264 0.40103 0.0
N2276 N 0.96167 0.01498 0.41024 0.0
C2277 C 0.95809 0.99442 0.43307 0.0
C2278 C 0.96004 0.9832 0.42197 0.0
C2279 C 0.96302 0.98724 0.40642 0.0
C2280 C 0.95741 0.01241 0.42454 0.0
H2281 H 0.96816 0.00447 0.38927 0.0
C2282 C 0.98573 0.02923 0.37842 0.0
O2283 O 0.95704 0.05535 0.35081 0.0
O2284 O 0.94472 0.03538 0.36053 0.0
N2285 N 0.95509 0.04277 0.42595 0.0
C2286 C 0.95267 0.0586 0.43165 0.0
C2287 C 0.94916 0.06316 0.44902 0.0
C2288 C 0.94788 0.0421 0.47007 0.0
C2289 C 0.95059 0.02536 0.46239 0.0
C2290 C 0.9543 0.02852 0.43426 0.0
H2291 H 0.95428 0.06797 0.42376 0.0
O2292 O 0.94025 0.06021 0.3806 0.0
O2293 O 0.95178 0.04134 0.39313 0.0
O2294 O 0.97276 0.06559 0.38225 0.0
O2295 O 0.97516 0.05805 0.40693 0.0
C2296 C 0.95166 0.00561 0.46829 0.0
C2297 C 0.95555 0.99038 0.45351 0.0
H2298 H 0.9585 0.97142 0.42525 0.0
H2299 H 0.96448 0.97806 0.39817 0.0
H2300 H 0.94791 0.07571 0.44982 0.0
H2301 H 0.94583 0.04254 0.48249 0.0
H2302 H 0.94974 0.00455 0.48159 0.0
H2303 H 0.95345 0.99695 0.46254 0.0
Mn2304 Mn 0.12668 0.95367 0.54705 0.0
Mn2305 Mn 0.09097 0.96657 0.53906 0.0
C2306 C 0.10665 0.95015 0.56432 0.0
C2307 C 0.15102 0.95719 0.5583 0.0
C2308 C 0.10253 0.9359 0.52801 0.0
O2309 O 0.13121 0.96817 0.52891 0.0
O2310 O 0.10649 0.97302 0.52375 0.0
C2311 C 0.10082 0.99958 0.54491 0.0
N2312 N 0.09053 0.98793 0.54677 0.0
C2313 C 0.06956 0.00995 0.55171 0.0
C2314 C 0.08162 0.02039 0.55069 0.0
C2315 C 0.09681 0.01522 0.54771 0.0
C2316 C 0.07659 0.99128 0.55164 0.0
H2317 H 0.1124 0.99699 0.54123 0.0
C2318 C 0.12073 0.97397 0.52045 0.0
O2319 O 0.1487 0.94651 0.5481 0.0
O2320 O 0.13954 0.9662 0.56118 0.0
N2321 N 0.07266 0.9609 0.55151 0.0
C2322 C 0.06537 0.94547 0.55242 0.0
C2323 C 0.04728 0.94223 0.55439 0.0
C2324 C 0.02823 0.96505 0.55572 0.0
C2325 C 0.03744 0.98111 0.55481 0.0
C2326 C 0.06544 0.97578 0.55296 0.0
H2327 H 0.0725 0.93555 0.55049 0.0
O2328 O 0.11885 0.94168 0.56497 0.0
O2329 O 0.1066 0.96105 0.55414 0.0
O2330 O 0.11657 0.93788 0.53214 0.0
O2331 O 0.09171 0.9455 0.53077 0.0
C2332 C 0.03323 1.00131 0.55476 0.0
C2333 C 0.04938 0.01546 0.55306 0.0
H2334 H 0.07941 0.03254 0.55207 0.0
H2335 H 0.10578 0.02378 0.54674 0.0
H2336 H 0.04521 0.92977 0.5547 0.0
H2337 H 0.0157 0.96571 0.55679 0.0
H2338 H 0.01995 0.00332 0.55578 0.0
H2339 H 0.03975 0.00953 0.55403 0.0
Mn2340 Mn 0.62853 0.79882 0.70827 0.0
Mn2341 Mn 0.59299 0.78672 0.71894 0.0
C2342 C 0.6078 0.80179 0.6921 0.0
C2343 C 0.65239 0.79568 0.69586 0.0
C2344 C 0.60568 0.81753 0.72792 0.0
O2345 O 0.63385 0.78444 0.72598 0.0
O2346 O 0.60952 0.78042 0.73372 0.0
C2347 C 0.59969 0.75251 0.71724 0.0
N2348 N 0.59067 0.76475 0.71327 0.0
C2349 C 0.56768 0.74408 0.7113 0.0
C2350 C 0.57847 0.73297 0.71514 0.0
C2351 C 0.59401 0.73714 0.71768 0.0
C2352 C 0.57623 0.76208 0.70932 0.0
H2353 H 0.61148 0.75442 0.72054 0.0
C2354 C 0.62409 0.77904 0.73547 0.0
O2355 O 0.65033 0.80624 0.70621 0.0
O2356 O 0.64096 0.78641 0.69352 0.0
N2357 N 0.57447 0.79261 0.70671 0.0
C2358 C 0.56828 0.80839 0.70431 0.0
C2359 C 0.55045 0.81276 0.70198 0.0
C2360 C 0.52981 0.79136 0.7029 0.0
C2361 C 0.53786 0.77486 0.7053 0.0
C2362 C 0.56621 0.77825 0.70657 0.0
H2363 H 0.5761 0.81792 0.7054 0.0
O2364 O 0.61985 0.81042 0.69084 0.0
O2365 O 0.60805 0.791 0.70253 0.0
O2366 O 0.6195 0.81504 0.72347 0.0
O2367 O 0.59466 0.80811 0.72585 0.0
C2368 C 0.53215 0.75519 0.70732 0.0
C2369 C 0.54716 0.7401 0.71046 0.0
H2370 H 0.5749 0.72116 0.71664 0.0
H2371 H 0.60195 0.72812 0.72092 0.0
H2372 H 0.54927 0.82524 0.70048 0.0
H2373 H 0.51726 0.7915 0.70193 0.0
H2374 H 0.51875 0.75412 0.7065 0.0
H2375 H 0.53803 0.74665 0.70886 0.0
Mn2376 Mn 0.69737 0.3769 0.95951 0.0
Mn2377 Mn 0.70738 0.34007 0.96835 0.0
C2378 C 0.69348 0.35665 0.94264 0.0
C2379 C 0.70221 0.40054 0.94685 0.0
C2380 C 0.67947 0.35615 0.98176 0.0
O2381 O 0.71271 0.38012 0.97731 0.0
O2382 O 0.7185 0.35502 0.98165 0.0
C2383 C 0.74178 0.34103 0.96284 0.0
N2384 N 0.72806 0.33456 0.95856 0.0
C2385 C 0.74707 0.30785 0.95676 0.0
C2386 C 0.75899 0.31732 0.96092 0.0
C2387 C 0.75635 0.33328 0.96289 0.0
C2388 C 0.7287 0.32075 0.95194 0.0
H2389 H 0.74185 0.35277 0.96686 0.0
C2390 C 0.71982 0.36943 0.98466 0.0
O2391 O 0.69179 0.39935 0.9575 0.0
O2392 O 0.71059 0.38844 0.94459 0.0
N2393 N 0.69447 0.32426 0.9571 0.0
C2394 C 0.67827 0.31753 0.96554 0.0
C2395 C 0.67358 0.29675 0.96992 0.0
C2396 C 0.68606 0.27996 0.96493 0.0
C2397 C 0.70469 0.28232 0.95509 0.0
C2398 C 0.70811 0.31458 0.94942 0.0
H2399 H 0.67026 0.32577 0.97016 0.0
O2400 O 0.68516 0.36897 0.94154 0.0
O2401 O 0.70349 0.35635 0.95356 0.0
O2402 O 0.68089 0.36915 0.97505 0.0
O2403 O 0.68869 0.34499 0.9798 0.0
C2404 C 0.72508 0.27285 0.96157 0.0
C2405 C 0.74626 0.28456 0.96271 0.0
H2406 H 0.77002 0.31235 0.96372 0.0
H2407 H 0.76615 0.34013 0.9662 0.0
H2408 H 0.66312 0.29446 0.97622 0.0
H2409 H 0.68308 0.2688 0.9695 0.0
H2410 H 0.72476 0.2613 0.96616 0.0
H2411 H 0.75639 0.27885 0.96715 0.0
Mn2412 Mn 0.12911 0.44466 0.2163 0.0
Mn2413 Mn 0.16379 0.4591 0.22629 0.0
C2414 C 0.15043 0.44102 0.20027 0.0
C2415 C 0.10565 0.44815 0.20283 0.0
C2416 C 0.14971 0.43065 0.24105 0.0
O2417 O 0.12375 0.46076 0.23324 0.0
O2418 O 0.14717 0.47163 0.23547 0.0
C2419 C 0.16044 0.48867 0.2106 0.0
N2420 N 0.16891 0.47576 0.21228 0.0
C2421 C 0.1934 0.48978 0.20331 0.0
C2422 C 0.18264 0.50272 0.20127 0.0
C2423 C 0.16689 0.50179 0.20428 0.0
C2424 C 0.18278 0.47467 0.20548 0.0
H2425 H 0.14859 0.48894 0.2141 0.0
C2426 C 0.13278 0.47128 0.23835 0.0
O2427 O 0.10699 0.43787 0.2136 0.0
O2428 O 0.11752 0.45684 0.20065 0.0
N2429 N 0.18181 0.44779 0.21931 0.0
C2430 C 0.19008 0.43587 0.2312 0.0
C2431 C 0.21023 0.43276 0.23322 0.0
C2432 C 0.22473 0.44205 0.22251 0.0
C2433 C 0.21989 0.4559 0.20851 0.0
C2434 C 0.19024 0.45875 0.20721 0.0
H2435 H 0.18319 0.42999 0.23961 0.0
O2436 O 0.13848 0.43223 0.19904 0.0
O2437 O 0.14955 0.45136 0.21087 0.0
O2438 O 0.13799 0.42933 0.23223 0.0
O2439 O 0.15886 0.44216 0.24072 0.0
C2440 C 0.23055 0.4702 0.20649 0.0
C2441 C 0.22285 0.48659 0.2044 0.0
H2442 H 0.18584 0.51422 0.1978 0.0
H2443 H 0.15974 0.51187 0.20275 0.0
H2444 H 0.2139 0.42487 0.2421 0.0
H2445 H 0.23663 0.44039 0.22568 0.0
H2446 H 0.2428 0.46923 0.20839 0.0
H2447 H 0.23213 0.49514 0.20357 0.0
Mn2448 Mn 0.5583 0.87533 0.96191 0.0
Mn2449 Mn 0.54101 0.90824 0.97235 0.0
C2450 C 0.56044 0.89662 0.94594 0.0
C2451 C 0.55427 0.8518 0.9491 0.0
C2452 C 0.57066 0.89624 0.98653 0.0
O2453 O 0.54446 0.86928 0.98008 0.0
O2454 O 0.52957 0.89041 0.98065 0.0
C2455 C 0.51217 0.90356 0.95564 0.0
N2456 N 0.52458 0.91269 0.95776 0.0
C2457 C 0.5098 0.93615 0.94717 0.0
C2458 C 0.49784 0.92456 0.94411 0.0
C2459 C 0.49933 0.90904 0.94795 0.0
C2460 C 0.52536 0.92654 0.95073 0.0
H2461 H 0.51202 0.8919 0.95983 0.0
C2462 C 0.53281 0.87675 0.98493 0.0
O2463 O 0.56552 0.8534 0.95886 0.0
O2464 O 0.54532 0.86351 0.94743 0.0
N2465 N 0.55104 0.92733 0.9667 0.0
C2466 C 0.56117 0.93626 0.97974 0.0
C2467 C 0.56261 0.95655 0.98218 0.0
C2468 C 0.55327 0.9705 0.97079 0.0
C2469 C 0.5411 0.96488 0.95556 0.0
C2470 C 0.54055 0.93511 0.9538 0.0
H2471 H 0.56658 0.92969 0.9887 0.0
O2472 O 0.56939 0.88489 0.94403 0.0
O2473 O 0.55045 0.89529 0.95685 0.0
O2474 O 0.57353 0.88541 0.97695 0.0
O2475 O 0.55795 0.90374 0.98699 0.0
C2476 C 0.52632 0.97452 0.95231 0.0
C2477 C 0.51078 0.96572 0.94871 0.0
H2478 H 0.48658 0.92695 0.93941 0.0
H2479 H 0.48978 0.90131 0.94593 0.0
H2480 H 0.56933 0.96065 0.99181 0.0
H2481 H 0.55377 0.98245 0.97417 0.0
H2482 H 0.52625 0.98679 0.95432 0.0
H2483 H 0.5017 0.97439 0.94718 0.0
Mn2484 Mn 0.12721 0.30607 0.54461 0.0
Mn2485 Mn 0.16116 0.2909 0.53305 0.0
C2486 C 0.149 0.30935 0.55956 0.0
C2487 C 0.10422 0.3017 0.55819 0.0
C2488 C 0.14632 0.3194 0.51886 0.0
O2489 O 0.12119 0.29134 0.5273 0.0
O2490 O 0.14375 0.27882 0.52429 0.0
C2491 C 0.15882 0.26101 0.54832 0.0
N2492 N 0.16702 0.27412 0.54682 0.0
C2493 C 0.19192 0.26005 0.55511 0.0
C2494 C 0.18124 0.24719 0.55771 0.0
C2495 C 0.16547 0.24799 0.55472 0.0
C2496 C 0.1812 0.27523 0.55321 0.0
H2497 H 0.14703 0.26041 0.54453 0.0
C2498 C 0.12942 0.28073 0.52137 0.0
O2499 O 0.1052 0.31257 0.54797 0.0
O2500 O 0.1163 0.29324 0.56004 0.0
N2501 N 0.1797 0.30198 0.53914 0.0
C2502 C 0.1874 0.31365 0.52663 0.0
C2503 C 0.20744 0.31651 0.52344 0.0
C2504 C 0.22244 0.30723 0.53345 0.0
C2505 C 0.21829 0.29364 0.54792 0.0
C2506 C 0.18871 0.29111 0.55094 0.0
H2507 H 0.18008 0.31957 0.51861 0.0
O2508 O 0.13707 0.31802 0.56169 0.0
O2509 O 0.14771 0.29904 0.54896 0.0
O2510 O 0.13545 0.32141 0.52857 0.0
O2511 O 0.15547 0.30785 0.51897 0.0
C2512 C 0.22893 0.27932 0.54963 0.0
C2513 C 0.22125 0.26306 0.55242 0.0
H2514 H 0.18456 0.23578 0.56138 0.0
H2515 H 0.15845 0.23783 0.55629 0.0
H2516 H 0.21068 0.32425 0.51426 0.0
H2517 H 0.23416 0.30874 0.52961 0.0
H2518 H 0.24107 0.28016 0.54708 0.0
H2519 H 0.23054 0.25449 0.55284 0.0
Mn2520 Mn 0.70379 0.37513 0.79217 0.0
Mn2521 Mn 0.71439 0.4111 0.78183 0.0
C2522 C 0.70024 0.39548 0.80862 0.0
C2523 C 0.70803 0.35138 0.80419 0.0
C2524 C 0.68393 0.39746 0.77317 0.0
O2525 O 0.71822 0.37052 0.77437 0.0
O2526 O 0.72077 0.39505 0.7667 0.0
C2527 C 0.74886 0.4053 0.78264 0.0
N2528 N 0.73646 0.41391 0.78698 0.0
C2529 C 0.75658 0.43738 0.78914 0.0
C2530 C 0.76789 0.42698 0.78484 0.0
C2531 C 0.76408 0.41139 0.78203 0.0
C2532 C 0.73885 0.42832 0.79119 0.0
H2533 H 0.74723 0.39351 0.77917 0.0
C2534 C 0.72286 0.38059 0.76483 0.0
O2535 O 0.69726 0.35309 0.79399 0.0
O2536 O 0.71685 0.36314 0.80661 0.0
N2537 N 0.70834 0.42919 0.79449 0.0
C2538 C 0.69245 0.43487 0.79735 0.0
C2539 C 0.68768 0.45249 0.80029 0.0
C2540 C 0.70851 0.47371 0.79965 0.0
C2541 C 0.72517 0.46619 0.79668 0.0
C2542 C 0.7225 0.43782 0.79455 0.0
H2543 H 0.68311 0.42682 0.79624 0.0
O2544 O 0.692 0.38314 0.80978 0.0
O2545 O 0.71093 0.39574 0.7981 0.0
O2546 O 0.68715 0.38367 0.7772 0.0
O2547 O 0.69287 0.40886 0.77542 0.0
C2548 C 0.74466 0.47248 0.79447 0.0
C2549 C 0.76006 0.45797 0.79056 0.0
H2550 H 0.77959 0.43089 0.78321 0.0
H2551 H 0.77324 0.40375 0.77848 0.0
H2552 H 0.6752 0.45328 0.80205 0.0
H2553 H 0.70806 0.48622 0.80103 0.0
H2554 H 0.74545 0.48589 0.79572 0.0
H2555 H 0.75332 0.46687 0.79258 0.0
Mn2556 Mn 0.05192 0.87585 0.29177 0.0
Mn2557 Mn 0.03774 0.84112 0.28133 0.0
C2558 C 0.05521 0.85479 0.30787 0.0
C2559 C 0.04786 0.8994 0.30438 0.0
C2560 C 0.06656 0.8558 0.26767 0.0
O2561 O 0.03729 0.88079 0.27375 0.0
O2562 O 0.02503 0.85794 0.27233 0.0
C2563 C 0.00752 0.84257 0.29633 0.0
N2564 N 0.02102 0.83494 0.29512 0.0
C2565 C 0.0081 0.80977 0.30463 0.0
C2566 C 0.99474 0.81993 0.30672 0.0
C2567 C 0.99482 0.83559 0.30302 0.0
C2568 C 0.02275 0.8211 0.30211 0.0
H2569 H 0.00637 0.85417 0.29213 0.0
C2570 C 0.02654 0.87213 0.26862 0.0
O2571 O 0.05862 0.89785 0.29413 0.0
O2572 O 0.03895 0.88765 0.30646 0.0
N2573 N 0.04938 0.82312 0.28789 0.0
C2574 C 0.06133 0.8153 0.27571 0.0
C2575 C 0.06521 0.79529 0.27364 0.0
C2576 C 0.05672 0.78045 0.28451 0.0
C2577 C 0.04297 0.78473 0.29878 0.0
C2578 C 0.03897 0.81426 0.30018 0.0
H2579 H 0.06634 0.82226 0.26685 0.0
O2580 O 0.06359 0.86699 0.30956 0.0
O2581 O 0.04507 0.85538 0.29703 0.0
O2582 O 0.06788 0.86703 0.27698 0.0
O2583 O 0.05485 0.84686 0.26719 0.0
C2584 C 0.02921 0.77351 0.30108 0.0
C2585 C 0.01259 0.7805 0.30347 0.0
H2586 H 0.98351 0.81624 0.31057 0.0
H2587 H 0.98435 0.84219 0.30433 0.0
H2588 H 0.07296 0.79193 0.26451 0.0
H2589 H 0.05878 0.76861 0.28131 0.0
H2590 H 0.03067 0.7613 0.2992 0.0
H2591 H 0.00451 0.77084 0.3044 0.0
Mn2592 Mn 0.9574 0.37604 0.06107 0.0
Mn2593 Mn 0.96428 0.40944 0.04341 0.0
C2594 C 0.93976 0.39657 0.06346 0.0
C2595 C 0.94585 0.35169 0.05785 0.0
C2596 C 0.98203 0.39755 0.07171 0.0
O2597 O 0.97544 0.37146 0.04603 0.0
O2598 O 0.97291 0.39236 0.03099 0.0
C2599 C 0.94602 0.40385 0.01601 0.0
N2600 N 0.94885 0.41342 0.02792 0.0
C2601 C 0.94087 0.43691 0.01214 0.0
C2602 C 0.93693 0.42512 1.00057 0.0
C2603 C 0.93903 0.40936 0.00283 0.0
C2604 C 0.9429 0.42774 0.02811 0.0
H2605 H 0.94932 0.3919 0.01653 0.0
C2606 C 0.97911 0.37942 0.03416 0.0
O2607 O 0.9561 0.354 0.0685 0.0
O2608 O 0.94299 0.36318 0.0489 0.0
N2609 N 0.9579 0.42801 0.05437 0.0
C2610 C 0.97087 0.43606 0.06503 0.0
C2611 C 0.97559 0.45599 0.06568 0.0
C2612 C 0.96629 0.47061 0.05517 0.0
C2613 C 0.95113 0.46609 0.04251 0.0
C2614 C 0.94631 0.43658 0.04307 0.0
H2615 H 0.97499 0.42941 0.07436 0.0
O2616 O 0.93903 0.385 0.07281 0.0
O2617 O 0.95046 0.39553 0.05336 0.0
O2618 O 0.97307 0.38655 0.07571 0.0
O2619 O 0.98009 0.40518 0.05919 0.0
C2620 C 0.94939 0.47532 0.02717 0.0
C2621 C 0.94535 0.46619 0.01188 0.0
H2622 H 0.93286 0.42742 0.98905 0.0
H2623 H 0.93643 0.40143 0.99359 0.0
H2624 H 0.9845 0.45948 0.07361 0.0
H2625 H 0.97075 0.4822 0.05557 0.0
H2626 H 0.95269 0.48729 0.02664 0.0
H2627 H 0.94494 0.47451 0.00238 0.0
Mn2628 Mn 0.12598 0.21152 0.80454 0.0
Mn2629 Mn 0.09109 0.22234 0.79084 0.0
C2630 C 0.10481 0.19559 0.80786 0.0
C2631 C 0.14941 0.19849 0.79963 0.0
C2632 C 0.10598 0.23563 0.81981 0.0
O2633 O 0.13093 0.22962 0.79007 0.0
O2634 O 0.10787 0.23165 0.77828 0.0
C2635 C 0.09259 0.20788 0.76034 0.0
N2636 N 0.08494 0.20885 0.77385 0.0
C2637 C 0.0598 0.19961 0.76069 0.0
C2638 C 0.06999 0.19773 0.74732 0.0
C2639 C 0.08564 0.20142 0.7475 0.0
C2640 C 0.0711 0.20182 0.77543 0.0
H2641 H 0.1042 0.2121 0.7593 0.0
C2642 C 0.12214 0.23511 0.7796 0.0
O2643 O 0.14824 0.20855 0.81064 0.0
O2644 O 0.13736 0.19678 0.79108 0.0
N2645 N 0.0731 0.21551 0.80235 0.0
C2646 C 0.06528 0.22747 0.81453 0.0
C2647 C 0.04527 0.22955 0.81837 0.0
C2648 C 0.03041 0.21891 0.80961 0.0
C2649 C 0.03468 0.2049 0.79559 0.0
C2650 C 0.06422 0.20345 0.79166 0.0
H2651 H 0.07228 0.23614 0.8198 0.0
O2652 O 0.11707 0.19367 0.8161 0.0
O2653 O 0.10538 0.20658 0.7979 0.0
O2654 O 0.11737 0.2264 0.82083 0.0
O2655 O 0.09683 0.23611 0.80824 0.0
C2656 C 0.02349 0.2029 0.78175 0.0
C2657 C 0.03053 0.2008 0.76511 0.0
H2658 H 0.06632 0.19408 0.73601 0.0
H2659 H 0.09228 0.20029 0.73702 0.0
H2660 H 0.04192 0.23852 0.82631 0.0
H2661 H 0.01858 0.22212 0.8117 0.0
H2662 H 0.01129 0.20481 0.78319 0.0
H2663 H 0.02089 0.20007 0.75699 0.0
Mn2664 Mn 0.29354 0.37459 0.55085 0.0
Mn2665 Mn 0.28633 0.33876 0.53818 0.0
C2666 C 0.31093 0.35492 0.55503 0.0
C2667 C 0.30496 0.3989 0.54688 0.0
C2668 C 0.2738 0.35035 0.5682 0.0
O2669 O 0.27613 0.3788 0.53561 0.0
O2670 O 0.27075 0.354 0.53121 0.0
C2671 C 0.29215 0.34794 0.50491 0.0
N2672 N 0.29422 0.33805 0.51688 0.0
C2673 C 0.29949 0.31648 0.49547 0.0
C2674 C 0.29838 0.32823 0.48469 0.0
C2675 C 0.29511 0.34351 0.4894 0.0
C2676 C 0.29924 0.32408 0.51392 0.0
H2677 H 0.2883 0.35953 0.50714 0.0
C2678 C 0.26769 0.36831 0.52985 0.0
O2679 O 0.29449 0.39691 0.55739 0.0
O2680 O 0.30809 0.38709 0.53844 0.0
N2681 N 0.29946 0.32109 0.54438 0.0
C2682 C 0.30097 0.31441 0.56004 0.0
C2683 C 0.30404 0.2966 0.56383 0.0
C2684 C 0.30615 0.2769 0.54162 0.0
C2685 C 0.30452 0.2855 0.52528 0.0
C2686 C 0.30125 0.3135 0.52973 0.0
H2687 H 0.29856 0.32174 0.56978 0.0
O2688 O 0.31103 0.36709 0.56359 0.0
O2689 O 0.30104 0.35464 0.54385 0.0
O2690 O 0.27784 0.36446 0.56618 0.0
O2691 O 0.27748 0.33943 0.55905 0.0
C2692 C 0.30448 0.28063 0.50524 0.0
C2693 C 0.30181 0.29621 0.49057 0.0
H2694 H 0.30034 0.32575 0.47267 0.0
H2695 H 0.29424 0.35226 0.4806 0.0
H2696 H 0.30462 0.29497 0.57634 0.0
H2697 H 0.30789 0.26444 0.54135 0.0
H2698 H 0.30616 0.26738 0.50372 0.0
H2699 H 0.30332 0.28682 0.49678 0.0
Mn2700 Mn 0.13002 0.54531 0.30396 0.0
Mn2701 Mn 0.16398 0.53836 0.28735 0.0
C2702 C 0.15 0.56328 0.3063 0.0
C2703 C 0.10574 0.55688 0.29988 0.0
C2704 C 0.15139 0.52098 0.31556 0.0
O2705 O 0.12594 0.5272 0.28909 0.0
O2706 O 0.14727 0.52923 0.27438 0.0
C2707 C 0.16173 0.55446 0.25793 0.0
N2708 N 0.16952 0.55303 0.2713 0.0
C2709 C 0.19495 0.56087 0.25791 0.0
C2710 C 0.1847 0.56337 0.24467 0.0
C2711 C 0.16885 0.56062 0.24504 0.0
C2712 C 0.18374 0.5592 0.27274 0.0
H2713 H 0.14995 0.55067 0.25702 0.0
C2714 C 0.13401 0.52339 0.27733 0.0
O2715 O 0.10774 0.54683 0.31079 0.0
O2716 O 0.11745 0.55942 0.29116 0.0
N2717 N 0.18145 0.54553 0.29961 0.0
C2718 C 0.18879 0.53368 0.31202 0.0
C2719 C 0.2087 0.53047 0.31558 0.0
C2720 C 0.22397 0.54022 0.30653 0.0
C2721 C 0.22023 0.55432 0.29248 0.0
C2722 C 0.19071 0.55711 0.28886 0.0
H2723 H 0.18122 0.52903 0.32035 0.0
O2724 O 0.13836 0.56377 0.31558 0.0
O2725 O 0.14945 0.55248 0.29619 0.0
O2726 O 0.1403 0.52994 0.31932 0.0
O2727 O 0.15904 0.52291 0.30312 0.0
C2728 C 0.23133 0.55584 0.27851 0.0
C2729 C 0.22418 0.55834 0.26198 0.0
H2730 H 0.18842 0.56684 0.23332 0.0
H2731 H 0.16217 0.56214 0.23464 0.0
H2732 H 0.21166 0.52217 0.32435 0.0
H2733 H 0.23566 0.5366 0.30869 0.0
H2734 H 0.24345 0.55338 0.2798 0.0
H2735 H 0.23372 0.55875 0.25377 0.0
Mn2736 Mn 0.96168 0.37899 0.69689 0.0
Mn2737 Mn 0.9723 0.34528 0.71279 0.0
C2738 C 0.94615 0.35727 0.69366 0.0
C2739 C 0.94827 0.40228 0.70092 0.0
C2740 C 0.987 0.35896 0.68408 0.0
O2741 O 0.97938 0.38488 0.71164 0.0
O2742 O 0.98093 0.36259 0.72467 0.0
C2743 C 0.95527 0.35007 0.74127 0.0
N2744 N 0.95774 0.34073 0.72908 0.0
C2745 C 0.94814 0.31728 0.74418 0.0
C2746 C 0.94471 0.32895 0.756 0.0
C2747 C 0.94785 0.34459 0.75423 0.0
C2748 C 0.95104 0.32674 0.72845 0.0
H2749 H 0.95904 0.36188 0.74113 0.0
C2750 C 0.98474 0.37658 0.72254 0.0
O2751 O 0.95855 0.40104 0.69012 0.0
O2752 O 0.94641 0.39035 0.70958 0.0
N2753 N 0.96659 0.32628 0.70248 0.0
C2754 C 0.97979 0.31778 0.69221 0.0
C2755 C 0.98317 0.2976 0.69106 0.0
C2756 C 0.97262 0.2833 0.70084 0.0
C2757 C 0.95737 0.2884 0.7132 0.0
C2758 C 0.95422 0.31808 0.71331 0.0
H2759 H 0.98817 0.3247 0.68627 0.0
O2760 O 0.94424 0.36922 0.68499 0.0
O2761 O 0.95683 0.35858 0.70386 0.0
O2762 O 0.97752 0.37 0.68176 0.0
O2763 O 0.98683 0.35021 0.69595 0.0
C2764 C 0.95478 0.27888 0.72823 0.0
C2765 C 0.95098 0.28781 0.7437 0.0
H2766 H 0.94027 0.32658 0.76737 0.0
H2767 H 0.94556 0.35241 0.76365 0.0
H2768 H 0.9928 0.29383 0.68415 0.0
H2769 H 0.97655 0.27151 0.70045 0.0
H2770 H 0.95736 0.26672 0.72848 0.0
H2771 H 0.94994 0.27926 0.75296 0.0
Mn2772 Mn 0.1185 0.20944 0.45541 0.0
Mn2773 Mn 0.15373 0.21966 0.46835 0.0
C2774 C 0.13895 0.19262 0.4532 0.0
C2775 C 0.09453 0.19719 0.45846 0.0
C2776 C 0.14213 0.22843 0.43687 0.0
O2777 O 0.11318 0.22766 0.46939 0.0
O2778 O 0.13759 0.23448 0.47424 0.0
C2779 C 0.1471 0.21877 0.50273 0.0
N2780 N 0.15589 0.21433 0.4905 0.0
C2781 C 0.1791 0.21222 0.51104 0.0
C2782 C 0.1685 0.21652 0.52217 0.0
C2783 C 0.15297 0.2194 0.51807 0.0
C2784 C 0.17031 0.21033 0.49315 0.0
H2785 H 0.13537 0.2223 0.50086 0.0
C2786 C 0.12314 0.23677 0.47512 0.0
O2787 O 0.09677 0.20733 0.44771 0.0
O2788 O 0.10575 0.19517 0.46803 0.0
N2789 N 0.17159 0.20707 0.46277 0.0
C2790 C 0.17726 0.20425 0.44698 0.0
C2791 C 0.19469 0.20114 0.44239 0.0
C2792 C 0.21591 0.20133 0.4633 0.0
C2793 C 0.20828 0.20437 0.48001 0.0
C2794 C 0.18 0.20695 0.477 0.0
H2795 H 0.16928 0.20537 0.4376 0.0
O2796 O 0.12704 0.19157 0.44436 0.0
O2797 O 0.13869 0.2033 0.46382 0.0
O2798 O 0.1282 0.224 0.43881 0.0
O2799 O 0.15261 0.2266 0.44692 0.0
C2800 C 0.21434 0.20642 0.49963 0.0
C2801 C 0.19965 0.2105 0.51486 0.0
H2802 H 0.1722 0.21807 0.53394 0.0
H2803 H 0.1452 0.223 0.5271 0.0
H2804 H 0.19545 0.19949 0.42987 0.0
H2805 H 0.22839 0.19969 0.46283 0.0
H2806 H 0.22771 0.20497 0.50062 0.0
H2807 H 0.20863 0.20837 0.50825 0.0
Mn2808 Mn 0.29311 0.37412 0.19425 0.0
Mn2809 Mn 0.28224 0.40688 0.21177 0.0
C2810 C 0.30838 0.39604 0.1919 0.0
C2811 C 0.30625 0.35068 0.19695 0.0
C2812 C 0.26721 0.39391 0.18292 0.0
O2813 O 0.27576 0.36746 0.209 0.0
O2814 O 0.27446 0.38892 0.22346 0.0
C2815 C 0.29968 0.40241 0.24005 0.0
N2816 N 0.29692 0.4117 0.22789 0.0
C2817 C 0.30563 0.43545 0.2432 0.0
C2818 C 0.3094 0.42384 0.25496 0.0
C2819 C 0.30683 0.40811 0.25308 0.0
C2820 C 0.30302 0.42599 0.2274 0.0
H2821 H 0.29632 0.39048 0.23986 0.0
C2822 C 0.27083 0.37496 0.22066 0.0
O2823 O 0.29589 0.35253 0.18632 0.0
O2824 O 0.30849 0.36218 0.20612 0.0
N2825 N 0.28734 0.42614 0.20151 0.0
C2826 C 0.27393 0.43435 0.19128 0.0
C2827 C 0.27003 0.45444 0.19023 0.0
C2828 C 0.28021 0.46897 0.20006 0.0
C2829 C 0.2956 0.46422 0.21237 0.0
C2830 C 0.29955 0.43463 0.21233 0.0
H2831 H 0.26572 0.42727 0.18531 0.0
O2832 O 0.3103 0.38453 0.18262 0.0
O2833 O 0.29786 0.39416 0.20219 0.0
O2834 O 0.27712 0.38353 0.17973 0.0
O2835 O 0.2673 0.40192 0.19529 0.0
C2836 C 0.29792 0.47374 0.22744 0.0
C2837 C 0.30196 0.46486 0.24286 0.0
H2838 H 0.3137 0.42629 0.26637 0.0
H2839 H 0.30934 0.40033 0.26247 0.0
H2840 H 0.26031 0.45798 0.18334 0.0
H2841 H 0.27596 0.48065 0.19973 0.0
H2842 H 0.29501 0.48583 0.22775 0.0
H2843 H 0.30275 0.47339 0.25217 0.0
Mn2844 Mn 0.13127 0.54503 0.95013 0.0
Mn2845 Mn 0.0973 0.53695 0.96658 0.0
C2846 C 0.11122 0.56276 0.9488 0.0
C2847 C 0.15581 0.55595 0.95199 0.0
C2848 C 0.10574 0.52582 0.93474 0.0
O2849 O 0.13709 0.5267 0.96389 0.0
O2850 O 0.11325 0.52196 0.97227 0.0
C2851 C 0.1082 0.54241 0.99942 0.0
N2852 N 0.09772 0.54458 0.98799 0.0
C2853 C 0.077 0.54884 0.01055 0.0
C2854 C 0.08933 0.54792 0.02067 0.0
C2855 C 0.10444 0.545 0.01517 0.0
C2856 C 0.08371 0.5489 0.99178 0.0
H2857 H 0.11973 0.53879 0.99654 0.0
C2858 C 0.12746 0.51866 0.97145 0.0
O2859 O 0.1526 0.54612 0.94119 0.0
O2860 O 0.14509 0.55871 0.96191 0.0
N2861 N 0.07936 0.54953 0.96164 0.0
C2862 C 0.07219 0.55101 0.94634 0.0
C2863 C 0.05441 0.55364 0.94327 0.0
C2864 C 0.03531 0.55531 0.9661 0.0
C2865 C 0.04458 0.55367 0.98221 0.0
C2866 C 0.0724 0.55086 0.97657 0.0
H2867 H 0.0793 0.54928 0.93637 0.0
O2868 O 0.12257 0.56323 0.93923 0.0
O2869 O 0.1121 0.55232 0.95955 0.0
O2870 O 0.11975 0.53048 0.93484 0.0
O2871 O 0.09636 0.52815 0.94577 0.0
C2872 C 0.04061 0.55338 0.0025 0.0
C2873 C 0.05692 0.55082 0.01643 0.0
H2874 H 0.08749 0.5501 0.03271 0.0
H2875 H 0.11364 0.54424 0.02351 0.0
H2876 H 0.05243 0.55422 0.93079 0.0
H2877 H 0.02284 0.55692 0.96671 0.0
H2878 H 0.02741 0.55485 0.00476 0.0
H2879 H 0.04722 0.55224 0.01067 0.0
Mn2880 Mn 0.55022 0.45769 0.37836 0.0
Mn2881 Mn 0.53919 0.4673 0.41425 0.0
C2882 C 0.55429 0.44107 0.39877 0.0
C2883 C 0.54573 0.44589 0.35447 0.0
C2884 C 0.56944 0.47703 0.40108 0.0
O2885 O 0.53561 0.47562 0.37381 0.0
O2886 O 0.53264 0.48235 0.39846 0.0
C2887 C 0.50539 0.46309 0.4063 0.0
N2888 N 0.51751 0.46086 0.41599 0.0
C2889 C 0.49645 0.45773 0.43829 0.0
C2890 C 0.48548 0.45888 0.42681 0.0
C2891 C 0.48989 0.46125 0.41127 0.0
C2892 C 0.51469 0.45682 0.43029 0.0
H2893 H 0.50748 0.46613 0.39445 0.0
C2894 C 0.53078 0.48483 0.38412 0.0
O2895 O 0.55653 0.45607 0.35617 0.0
O2896 O 0.53717 0.44325 0.36636 0.0
N2897 N 0.54516 0.45505 0.43262 0.0
C2898 C 0.56088 0.45318 0.4391 0.0
C2899 C 0.56492 0.45076 0.45699 0.0
C2900 C 0.54306 0.45054 0.47718 0.0
C2901 C 0.52665 0.45253 0.46882 0.0
C2902 C 0.53063 0.45449 0.4406 0.0
H2903 H 0.57053 0.45462 0.43146 0.0
O2904 O 0.56236 0.44 0.38631 0.0
O2905 O 0.54347 0.45139 0.39894 0.0
O2906 O 0.56655 0.47283 0.38723 0.0
O2907 O 0.56045 0.47456 0.41243 0.0
C2908 C 0.50675 0.45369 0.47409 0.0
C2909 C 0.49191 0.45642 0.45872 0.0
H2910 H 0.47362 0.45716 0.42975 0.0
H2911 H 0.48092 0.46208 0.40271 0.0
H2912 H 0.57743 0.44969 0.45841 0.0
H2913 H 0.54298 0.44933 0.48972 0.0
H2914 H 0.50535 0.45264 0.48746 0.0
H2915 H 0.49827 0.45499 0.46801 0.0
Mn2916 Mn 0.04213 0.79721 0.12504 0.0
Mn2917 Mn 0.03182 0.78606 0.16084 0.0
C2918 C 0.05855 0.80045 0.14537 0.0
C2919 C 0.05447 0.79277 0.10138 0.0
C2920 C 0.02319 0.81691 0.14778 0.0
O2921 O 0.02423 0.78299 0.12024 0.0
O2922 O 0.0165 0.77981 0.1447 0.0
C2923 C 0.0328 0.75173 0.15443 0.0
N2924 N 0.03718 0.76398 0.16322 0.0
C2925 C 0.03991 0.74341 0.18623 0.0
C2926 C 0.03556 0.73228 0.17566 0.0
C2927 C 0.03245 0.73638 0.16021 0.0
C2928 C 0.04173 0.76134 0.17749 0.0
H2929 H 0.02911 0.75356 0.14274 0.0
C2930 C 0.01468 0.77802 0.13016 0.0
O2931 O 0.04439 0.80371 0.10293 0.0
O2932 O 0.0565 0.78394 0.11318 0.0
N2933 N 0.04471 0.79186 0.17896 0.0
C2934 C 0.04756 0.80764 0.18495 0.0
C2935 C 0.05063 0.81207 0.20267 0.0
C2936 C 0.0503 0.79078 0.22344 0.0
C2937 C 0.04741 0.77429 0.21559 0.0
C2938 C 0.04506 0.77753 0.1873 0.0
H2939 H 0.04636 0.81713 0.1771 0.0
O2940 O 0.0598 0.80879 0.13311 0.0
O2941 O 0.04797 0.78983 0.14551 0.0
O2942 O 0.02729 0.81399 0.13389 0.0
O2943 O 0.02531 0.80765 0.15897 0.0
C2944 C 0.0454 0.75468 0.22151 0.0
C2945 C 0.04152 0.73954 0.20673 0.0
H2946 H 0.03412 0.7205 0.17935 0.0
H2947 H 0.02886 0.72735 0.15244 0.0
H2948 H 0.05234 0.82454 0.20373 0.0
H2949 H 0.05176 0.79096 0.23595 0.0
H2950 H 0.04676 0.7537 0.23487 0.0
H2951 H 0.04355 0.74612 0.21575 0.0
Mn2952 Mn 0.70224 0.29394 0.87597 0.0
Mn2953 Mn 0.71629 0.28489 0.91136 0.0
C2954 C 0.69807 0.31035 0.89655 0.0
C2955 C 0.70635 0.3059 0.85212 0.0
C2956 C 0.68683 0.27137 0.89811 0.0
O2957 O 0.71723 0.27655 0.87088 0.0
O2958 O 0.72666 0.2733 0.89465 0.0
C2959 C 0.74687 0.2892 0.91245 0.0
N2960 N 0.73396 0.29697 0.91566 0.0
C2961 C 0.73066 0.29156 0.94309 0.0
C2962 C 0.74143 0.27667 0.93605 0.0
C2963 C 0.74984 0.27715 0.92224 0.0
C2964 C 0.73313 0.30164 0.93069 0.0
H2965 H 0.75167 0.2893 0.90098 0.0
C2966 C 0.72646 0.27026 0.88032 0.0
O2967 O 0.69567 0.29557 0.85383 0.0
O2968 O 0.71482 0.30873 0.86401 0.0
N2969 N 0.70843 0.29403 0.92943 0.0
C2970 C 0.693 0.29606 0.93203 0.0
C2971 C 0.68709 0.30003 0.94711 0.0
C2972 C 0.69955 0.30229 0.97006 0.0
C2973 C 0.71848 0.29968 0.96678 0.0
C2974 C 0.72203 0.29526 0.94084 0.0
H2975 H 0.68516 0.29476 0.92252 0.0
O2976 O 0.68977 0.31125 0.88424 0.0
O2977 O 0.70904 0.30024 0.89646 0.0
O2978 O 0.6868 0.27849 0.88522 0.0
O2979 O 0.69743 0.27256 0.90825 0.0
C2980 C 0.72814 0.29988 0.98178 0.0
C2981 C 0.72528 0.29878 0.96722 0.0
H2982 H 0.74336 0.26587 0.94201 0.0
H2983 H 0.75773 0.26805 0.91905 0.0
H2984 H 0.67483 0.30152 0.9442 0.0
H2985 H 0.69621 0.30481 0.98202 0.0
H2986 H 0.71972 0.30176 0.99188 0.0
H2987 H 0.73702 0.30017 0.97966 0.0
Mn2988 Mn 0.20997 0.95259 0.62896 0.0
Mn2989 Mn 0.21876 0.96515 0.6645 0.0
C2990 C 0.19337 0.94842 0.64931 0.0
C2991 C 0.1979 0.95621 0.60499 0.0
C2992 C 0.23041 0.93514 0.65236 0.0
O2993 O 0.22706 0.96795 0.62406 0.0
O2994 O 0.23383 0.972 0.64859 0.0
C2995 C 0.21364 0.9987 0.65593 0.0
N2996 N 0.21144 0.98663 0.66568 0.0
C2997 C 0.20694 0.00792 0.68759 0.0
C2998 C 0.2082 0.01877 0.67603 0.0
C2999 C 0.21124 0.01422 0.66065 0.0
C3000 C 0.20694 0.98953 0.67984 0.0
H3001 H 0.21713 0.99658 0.64421 0.0
C3002 C 0.23607 0.97358 0.63413 0.0
O3003 O 0.20847 0.94578 0.6068 0.0
O3004 O 0.19496 0.96475 0.61679 0.0
N3005 N 0.20618 0.95906 0.68265 0.0
C3006 C 0.20447 0.94339 0.68928 0.0
C3007 C 0.20131 0.93956 0.70711 0.0
C3008 C 0.1995 0.96172 0.72689 0.0
C3009 C 0.20137 0.97804 0.71836 0.0
C3010 C 0.20469 0.97368 0.69033 0.0
H3011 H 0.20666 0.93365 0.68189 0.0
O3012 O 0.19289 0.93983 0.63717 0.0
O3013 O 0.20321 0.95969 0.64922 0.0
O3014 O 0.22604 0.93734 0.63841 0.0
O3015 O 0.22715 0.9442 0.66345 0.0
C3016 C 0.20164 0.99803 0.72334 0.0
C3017 C 0.20459 0.01273 0.70787 0.0
H3018 H 0.20607 0.03064 0.67877 0.0
H3019 H 0.21217 0.02311 0.65201 0.0
H3020 H 0.20055 0.92706 0.7087 0.0
H3021 H 0.19771 0.96197 0.73936 0.0
H3022 H 0.19977 0.99953 0.73659 0.0
H3023 H 0.20294 0.00648 0.71721 0.0
Mn3024 Mn 0.55777 0.29223 0.37894 0.0
Mn3025 Mn 0.54391 0.28081 0.34429 0.0
C3026 C 0.56099 0.30773 0.35727 0.0
C3027 C 0.55399 0.30561 0.40234 0.0
C3028 C 0.57247 0.26746 0.35936 0.0
O3029 O 0.54255 0.27464 0.38436 0.0
O3030 O 0.53129 0.27217 0.36107 0.0
C3031 C 0.51382 0.29572 0.34588 0.0
N3032 N 0.52709 0.29416 0.33795 0.0
C3033 C 0.51353 0.3013 0.31254 0.0
C3034 C 0.50023 0.30355 0.3228 0.0
C3035 C 0.50074 0.30131 0.33871 0.0
C3036 C 0.52839 0.30016 0.32369 0.0
H3037 H 0.51317 0.29259 0.35785 0.0
C3038 C 0.53205 0.26927 0.37546 0.0
O3039 O 0.56454 0.29513 0.40094 0.0
O3040 O 0.54512 0.30757 0.39053 0.0
N3041 N 0.55556 0.28712 0.32616 0.0
C3042 C 0.56797 0.27506 0.31887 0.0
C3043 C 0.57169 0.27198 0.29896 0.0
C3044 C 0.56255 0.28159 0.28362 0.0
C3045 C 0.54825 0.29548 0.28727 0.0
C3046 C 0.54456 0.29844 0.31675 0.0
H3047 H 0.57348 0.26691 0.32625 0.0
O3048 O 0.56953 0.30974 0.36933 0.0
O3049 O 0.55097 0.29686 0.35829 0.0
O3050 O 0.5737 0.27694 0.37049 0.0
O3051 O 0.56089 0.26691 0.35032 0.0
C3052 C 0.53421 0.29651 0.27613 0.0
C3053 C 0.51758 0.2986 0.28326 0.0
H3054 H 0.48874 0.30653 0.31909 0.0
H3055 H 0.49037 0.30281 0.34543 0.0
H3056 H 0.5798 0.26303 0.29602 0.0
H3057 H 0.5646 0.27779 0.27196 0.0
H3058 H 0.53558 0.29397 0.26403 0.0
H3059 H 0.50928 0.29864 0.27372 0.0
Mn3060 Mn 0.21187 0.80769 0.12731 0.0
Mn3061 Mn 0.22314 0.79415 0.09261 0.0
C3062 C 0.19623 0.81098 0.10573 0.0
C3063 C 0.1981 0.80297 0.15034 0.0
C3064 C 0.23698 0.82232 0.10802 0.0
O3065 O 0.22967 0.79279 0.13257 0.0
O3066 O 0.23259 0.78183 0.10917 0.0
C3067 C 0.20913 0.76371 0.09446 0.0
N3068 N 0.21003 0.77709 0.08658 0.0
C3069 C 0.20268 0.76345 0.06129 0.0
C3070 C 0.2009 0.75008 0.07155 0.0
C3071 C 0.20362 0.75056 0.08738 0.0
C3072 C 0.2037 0.77831 0.07245 0.0
H3073 H 0.2128 0.76302 0.10629 0.0
C3074 C 0.23575 0.78288 0.12349 0.0
O3075 O 0.2084 0.81377 0.1495 0.0
O3076 O 0.19659 0.79448 0.13823 0.0
N3077 N 0.21622 0.80574 0.07476 0.0
C3078 C 0.22787 0.81845 0.06736 0.0
C3079 C 0.23061 0.82223 0.0474 0.0
C3080 C 0.22098 0.8129 0.03219 0.0
C3081 C 0.20744 0.79831 0.03601 0.0
C3082 C 0.205 0.79452 0.06551 0.0
H3083 H 0.23562 0.82456 0.0748 0.0
O3084 O 0.19427 0.81948 0.11782 0.0
O3085 O 0.20724 0.80109 0.10667 0.0
O3086 O 0.22756 0.8237 0.11926 0.0
O3087 O 0.23679 0.81117 0.09848 0.0
C3088 C 0.20652 0.78426 0.02487 0.0
C3089 C 0.20486 0.76759 0.032 0.0
H3090 H 0.19803 0.73856 0.06787 0.0
H3091 H 0.20259 0.74011 0.09407 0.0
H3092 H 0.23925 0.83063 0.04435 0.0
H3093 H 0.22456 0.81505 0.02047 0.0
H3094 H 0.20886 0.78568 0.01273 0.0
H3095 H 0.20484 0.7593 0.02244 0.0
Mn3096 Mn 0.69561 0.45903 0.87441 0.0
Mn3097 Mn 0.71012 0.46993 0.83987 0.0
C3098 C 0.69291 0.44313 0.85306 0.0
C3099 C 0.70005 0.44623 0.89811 0.0
C3100 C 0.68158 0.48398 0.85472 0.0
O3101 O 0.70993 0.47719 0.87948 0.0
O3102 O 0.72246 0.47888 0.85673 0.0
C3103 C 0.74053 0.45557 0.84136 0.0
N3104 N 0.72709 0.45659 0.83362 0.0
C3105 C 0.74072 0.44941 0.80809 0.0
C3106 C 0.75407 0.44736 0.81829 0.0
C3107 C 0.75364 0.45001 0.83416 0.0
C3108 C 0.72584 0.4505 0.81935 0.0
H3109 H 0.74134 0.45918 0.85321 0.0
C3110 C 0.7204 0.4828 0.87077 0.0
O3111 O 0.68909 0.45628 0.89658 0.0
O3112 O 0.70876 0.44426 0.8862 0.0
N3113 N 0.69854 0.46338 0.82183 0.0
C3114 C 0.686 0.47531 0.81457 0.0
C3115 C 0.68227 0.47835 0.79464 0.0
C3116 C 0.69148 0.46879 0.77931 0.0
C3117 C 0.70588 0.455 0.78296 0.0
C3118 C 0.70963 0.45211 0.81242 0.0
H3119 H 0.67994 0.48303 0.82207 0.0
O3120 O 0.68431 0.44112 0.86507 0.0
O3121 O 0.70274 0.45417 0.85397 0.0
O3122 O 0.67965 0.47429 0.86562 0.0
O3123 O 0.69323 0.48396 0.84575 0.0
C3124 C 0.71988 0.45402 0.7718 0.0
C3125 C 0.73651 0.45204 0.77888 0.0
H3126 H 0.76553 0.44435 0.81453 0.0
H3127 H 0.7641 0.44885 0.8408 0.0
H3128 H 0.67397 0.48713 0.7917 0.0
H3129 H 0.68937 0.47254 0.76764 0.0
H3130 H 0.71849 0.45657 0.75971 0.0
H3131 H 0.74475 0.45206 0.76928 0.0
Mn3132 Mn 0.04162 0.94366 0.62863 0.0
Mn3133 Mn 0.03113 0.96154 0.596 0.0
C3134 C 0.05737 0.94183 0.60702 0.0
C3135 C 0.0548 0.94666 0.65211 0.0
C3136 C 0.01625 0.93218 0.60809 0.0
O3137 O 0.02392 0.95795 0.63521 0.0
O3138 O 0.0228 0.97275 0.61399 0.0
C3139 C 0.04772 0.99032 0.60107 0.0
N3140 N 0.04562 0.97805 0.59174 0.0
C3141 C 0.05531 0.99344 0.56832 0.0
C3142 C 0.05835 0.00527 0.58006 0.0
C3143 C 0.05497 0.00342 0.59566 0.0
C3144 C 0.05232 0.97765 0.57772 0.0
H3145 H 0.0438 0.99016 0.61284 0.0
C3146 C 0.01892 0.96962 0.6278 0.0
O3147 O 0.04466 0.93581 0.65031 0.0
O3148 O 0.05667 0.95588 0.64062 0.0
N3149 N 0.03689 0.95165 0.57681 0.0
C3150 C 0.02399 0.9413 0.56797 0.0
C3151 C 0.02119 0.94013 0.54769 0.0
C3152 C 0.03207 0.94996 0.53369 0.0
C3153 C 0.04709 0.96241 0.53921 0.0
C3154 C 0.04942 0.96254 0.56896 0.0
H3155 H 0.01545 0.93534 0.57464 0.0
O3156 O 0.05914 0.93241 0.61842 0.0
O3157 O 0.04662 0.95191 0.6088 0.0
O3158 O 0.02592 0.92897 0.61872 0.0
O3159 O 0.01639 0.94471 0.60032 0.0
C3160 C 0.04979 0.97743 0.52975 0.0
C3161 C 0.0532 0.99291 0.53875 0.0
H3162 H 0.06268 0.0167 0.57777 0.0
H3163 H 0.05697 0.01288 0.60351 0.0
H3164 H 0.01172 0.93316 0.54366 0.0
H3165 H 0.02849 0.94955 0.52178 0.0
H3166 H 0.04754 0.97764 0.51752 0.0
H3167 H 0.05434 0.00217 0.53022 0.0
Mn3168 Mn 0.87532 0.0577 0.45844 0.0
Mn3169 Mn 0.90898 0.04076 0.46545 0.0
C3170 C 0.89581 0.06003 0.44069 0.0
C3171 C 0.85119 0.05444 0.4462 0.0
C3172 C 0.89652 0.06854 0.48334 0.0
O3173 O 0.87072 0.04205 0.4761 0.0
O3174 O 0.89232 0.0278 0.47396 0.0
C3175 C 0.90585 0.01209 0.44858 0.0
N3176 N 0.91422 0.02501 0.45066 0.0
C3177 C 0.93938 0.01067 0.44469 0.0
C3178 C 0.92874 0.9978 0.44165 0.0
C3179 C 0.91277 0.99887 0.44306 0.0
C3180 C 0.92878 0.02587 0.44545 0.0
H3181 H 0.89378 0.01182 0.45145 0.0
C3182 C 0.87889 0.03018 0.4795 0.0
O3183 O 0.85318 0.065 0.45662 0.0
O3184 O 0.86278 0.04553 0.4437 0.0
N3185 N 0.92667 0.05292 0.45876 0.0
C3186 C 0.93373 0.06526 0.47085 0.0
C3187 C 0.95356 0.06815 0.47517 0.0
C3188 C 0.96904 0.0584 0.46644 0.0
C3189 C 0.96561 0.04429 0.45231 0.0
C3190 C 0.93618 0.04172 0.44785 0.0
H3191 H 0.92614 0.07392 0.47497 0.0
O3192 O 0.88438 0.06958 0.44021 0.0
O3193 O 0.89477 0.04989 0.45137 0.0
O3194 O 0.88554 0.0726 0.47439 0.0
O3195 O 0.90404 0.05611 0.48114 0.0
C3196 C 0.97624 0.02983 0.45164 0.0
C3197 C 0.96859 0.0135 0.44891 0.0
H3198 H 0.93215 0.98622 0.43869 0.0
H3199 H 0.90576 0.98876 0.4411 0.0
H3200 H 0.95637 0.07696 0.48347 0.0
H3201 H 0.98058 0.0602 0.47069 0.0
H3202 H 0.98824 0.03068 0.45479 0.0
H3203 H 0.97778 0.00482 0.44916 0.0
Mn3204 Mn 0.3762 0.20458 0.29551 0.0
Mn3205 Mn 0.41167 0.21668 0.28472 0.0
C3206 C 0.39694 0.20211 0.3118 0.0
C3207 C 0.35228 0.20741 0.30778 0.0
C3208 C 0.39916 0.18567 0.27626 0.0
O3209 O 0.37079 0.21869 0.2776 0.0
O3210 O 0.39513 0.22247 0.26973 0.0
C3211 C 0.40461 0.25085 0.28562 0.0
N3212 N 0.41375 0.23881 0.28988 0.0
C3213 C 0.43651 0.25976 0.29143 0.0
C3214 C 0.42561 0.27066 0.28732 0.0
C3215 C 0.41012 0.26628 0.28484 0.0
C3216 C 0.42814 0.24173 0.29384 0.0
H3217 H 0.39284 0.24875 0.28235 0.0
C3218 C 0.38055 0.22383 0.26796 0.0
O3219 O 0.35456 0.19683 0.2975 0.0
O3220 O 0.36351 0.21693 0.3101 0.0
N3221 N 0.43022 0.21128 0.29714 0.0
C3222 C 0.43657 0.19562 0.29991 0.0
C3223 C 0.45446 0.1915 0.3023 0.0
C3224 C 0.47486 0.21309 0.30086 0.0
C3225 C 0.46664 0.22944 0.2981 0.0
C3226 C 0.43833 0.22573 0.29695 0.0
H3227 H 0.42886 0.18598 0.29904 0.0
O3228 O 0.38501 0.19331 0.31312 0.0
O3229 O 0.3966 0.2127 0.30119 0.0
O3230 O 0.38533 0.18831 0.28053 0.0
O3231 O 0.41021 0.19508 0.27832 0.0
C3232 C 0.47214 0.24911 0.29561 0.0
C3233 C 0.45698 0.26397 0.29215 0.0
H3234 H 0.42905 0.28248 0.28554 0.0
H3235 H 0.40209 0.27514 0.28139 0.0
H3236 H 0.45577 0.17907 0.30409 0.0
H3237 H 0.48742 0.2131 0.30181 0.0
H3238 H 0.48553 0.25033 0.29636 0.0
H3239 H 0.46617 0.25756 0.29389 0.0
Mn3240 Mn 0.30434 0.62596 0.04372 0.0
Mn3241 Mn 0.29066 0.6606 0.03204 0.0
C3242 C 0.30736 0.64745 0.05933 0.0
C3243 C 0.29978 0.60262 0.05681 0.0
C3244 C 0.31977 0.64549 0.0195 0.0
O3245 O 0.29002 0.62063 0.02555 0.0
O3246 O 0.27819 0.64362 0.02313 0.0
C3247 C 0.26012 0.65941 0.04637 0.0
N3248 N 0.27359 0.66709 0.04523 0.0
C3249 C 0.26028 0.69248 0.0535 0.0
C3250 C 0.24692 0.68232 0.05556 0.0
C3251 C 0.2472 0.66654 0.05244 0.0
C3252 C 0.27506 0.68116 0.05179 0.0
H3253 H 0.25919 0.64765 0.04258 0.0
C3254 C 0.27951 0.62929 0.01995 0.0
O3255 O 0.3108 0.6039 0.0468 0.0
O3256 O 0.29098 0.61452 0.05846 0.0
N3257 N 0.30211 0.67879 0.03844 0.0
C3258 C 0.31438 0.68625 0.02636 0.0
C3259 C 0.3182 0.7062 0.0237 0.0
C3260 C 0.30931 0.72137 0.0338 0.0
C3261 C 0.29517 0.71752 0.04781 0.0
C3262 C 0.29129 0.68802 0.05011 0.0
H3263 H 0.31984 0.67898 0.01803 0.0
O3264 O 0.31563 0.63526 0.06157 0.0
O3265 O 0.29751 0.64664 0.04825 0.0
O3266 O 0.32072 0.63439 0.02904 0.0
O3267 O 0.30814 0.65449 0.01851 0.0
C3268 C 0.28128 0.72874 0.04935 0.0
C3269 C 0.26463 0.72173 0.05151 0.0
H3270 H 0.23556 0.68608 0.05894 0.0
H3271 H 0.23674 0.65991 0.05371 0.0
H3272 H 0.32623 0.70928 0.01472 0.0
H3273 H 0.31141 0.7331 0.03026 0.0
H3274 H 0.28272 0.74088 0.0471 0.0
H3275 H 0.25646 0.73137 0.0519 0.0
Mn3276 Mn 0.87561 0.5561 0.79331 0.0
Mn3277 Mn 0.84158 0.54127 0.78153 0.0
C3278 C 0.8543 0.55778 0.80926 0.0
C3279 C 0.89952 0.55242 0.80535 0.0
C3280 C 0.85568 0.57092 0.76944 0.0
O3281 O 0.88098 0.54274 0.77449 0.0
O3282 O 0.85882 0.52929 0.77278 0.0
C3283 C 0.84312 0.51062 0.79553 0.0
N3284 N 0.83526 0.524 0.79453 0.0
C3285 C 0.80998 0.51017 0.80223 0.0
C3286 C 0.82034 0.49697 0.80435 0.0
C3287 C 0.83614 0.49752 0.80138 0.0
C3288 C 0.82105 0.52517 0.80084 0.0
H3289 H 0.85492 0.50987 0.79177 0.0
C3290 C 0.87276 0.53188 0.7689 0.0
O3291 O 0.89729 0.56361 0.79572 0.0
O3292 O 0.88818 0.54293 0.80726 0.0
N3293 N 0.82313 0.55236 0.78771 0.0
C3294 C 0.81564 0.56457 0.77557 0.0
C3295 C 0.79568 0.56803 0.77257 0.0
C3296 C 0.78052 0.55879 0.78233 0.0
C3297 C 0.7844 0.54463 0.7963 0.0
C3298 C 0.81392 0.54128 0.79912 0.0
H3299 H 0.82292 0.57022 0.7674 0.0
O3300 O 0.86624 0.56638 0.81169 0.0
O3301 O 0.85534 0.54828 0.79789 0.0
O3302 O 0.86625 0.57248 0.77943 0.0
O3303 O 0.84748 0.55877 0.768 0.0
C3304 C 0.77342 0.53054 0.79753 0.0
C3305 C 0.7807 0.51401 0.7997 0.0
H3306 H 0.81674 0.48552 0.8076 0.0
H3307 H 0.84291 0.48713 0.80256 0.0
H3308 H 0.7926 0.57606 0.76359 0.0
H3309 H 0.76881 0.56069 0.77858 0.0
H3310 H 0.7613 0.53177 0.79506 0.0
H3311 H 0.77121 0.50566 0.79983 0.0
Mn3312 Mn 0.45369 0.13119 0.04204 0.0
Mn3313 Mn 0.46437 0.0955 0.03215 0.0
C3314 C 0.45018 0.11113 0.05922 0.0
C3315 C 0.45897 0.15474 0.05402 0.0
C3316 C 0.43359 0.10858 0.02346 0.0
O3317 O 0.46779 0.1356 0.02366 0.0
O3318 O 0.47088 0.111 0.01681 0.0
C3319 C 0.49892 0.10124 0.03374 0.0
N3320 N 0.48634 0.09268 0.03742 0.0
C3321 C 0.50606 0.06897 0.04039 0.0
C3322 C 0.5176 0.07936 0.03719 0.0
C3323 C 0.51411 0.09507 0.03435 0.0
C3324 C 0.48847 0.07828 0.04159 0.0
H3325 H 0.4975 0.11307 0.03027 0.0
C3326 C 0.47271 0.12535 0.01443 0.0
O3327 O 0.44775 0.15344 0.04422 0.0
O3328 O 0.46755 0.14276 0.05593 0.0
N3329 N 0.45821 0.07821 0.0452 0.0
C3330 C 0.4423 0.07326 0.04848 0.0
C3331 C 0.43723 0.05625 0.05283 0.0
C3332 C 0.45746 0.0344 0.05396 0.0
C3333 C 0.47436 0.04128 0.05028 0.0
C3334 C 0.47214 0.06936 0.04568 0.0
H3335 H 0.43318 0.08149 0.04701 0.0
O3336 O 0.44214 0.1236 0.06014 0.0
O3337 O 0.46072 0.11069 0.04846 0.0
O3338 O 0.4364 0.12246 0.02763 0.0
O3339 O 0.44299 0.09753 0.02545 0.0
C3340 C 0.49378 0.03452 0.04859 0.0
C3341 C 0.50938 0.04848 0.04349 0.0
H3342 H 0.52924 0.07528 0.03741 0.0
H3343 H 0.52349 0.10286 0.03217 0.0
H3344 H 0.42472 0.05603 0.05466 0.0
H3345 H 0.45662 0.02209 0.05648 0.0
H3346 H 0.4944 0.02126 0.05094 0.0
H3347 H 0.50256 0.03983 0.04621 0.0
Mn3348 Mn 0.87765 0.70362 0.45811 0.0
Mn3349 Mn 0.8422 0.71603 0.46851 0.0
C3350 C 0.85708 0.70129 0.44161 0.0
C3351 C 0.9018 0.70617 0.44626 0.0
C3352 C 0.85433 0.68493 0.4771 0.0
O3353 O 0.883 0.7178 0.47595 0.0
O3354 O 0.85862 0.72158 0.48367 0.0
C3355 C 0.8497 0.75012 0.46779 0.0
N3356 N 0.84044 0.73821 0.46344 0.0
C3357 C 0.81793 0.75945 0.46188 0.0
C3358 C 0.82892 0.77019 0.46613 0.0
C3359 C 0.84435 0.76561 0.46864 0.0
C3360 C 0.82611 0.74132 0.45944 0.0
H3361 H 0.86143 0.74788 0.47107 0.0
C3362 C 0.87318 0.72294 0.48553 0.0
O3363 O 0.89924 0.69567 0.45655 0.0
O3364 O 0.89066 0.71574 0.44362 0.0
N3365 N 0.82371 0.71091 0.45592 0.0
C3366 C 0.8172 0.69535 0.45302 0.0
C3367 C 0.79929 0.69147 0.45044 0.0
C3368 C 0.77913 0.7133 0.45184 0.0
C3369 C 0.78751 0.72954 0.45477 0.0
C3370 C 0.81576 0.72547 0.45615 0.0
H3371 H 0.82479 0.68561 0.45391 0.0
O3372 O 0.86893 0.69234 0.44045 0.0
O3373 O 0.85741 0.71192 0.45219 0.0
O3374 O 0.86824 0.68752 0.47309 0.0
O3375 O 0.84335 0.69438 0.47484 0.0
C3376 C 0.78221 0.74926 0.45733 0.0
C3377 C 0.79751 0.76391 0.46101 0.0
H3378 H 0.82559 0.78204 0.46797 0.0
H3379 H 0.85247 0.77435 0.47218 0.0
H3380 H 0.79785 0.67906 0.44857 0.0
H3381 H 0.76658 0.71348 0.45078 0.0
H3382 H 0.76884 0.75065 0.45646 0.0
H3383 H 0.78827 0.75762 0.45915 0.0
Mn3384 Mn 0.30956 0.62874 0.21213 0.0
Mn3385 Mn 0.29365 0.59534 0.22353 0.0
C3386 C 0.31243 0.60682 0.19693 0.0
C3387 C 0.30497 0.65177 0.19858 0.0
C3388 C 0.32257 0.60913 0.23771 0.0
O3389 O 0.29511 0.63509 0.22975 0.0
O3390 O 0.28202 0.61291 0.2322 0.0
C3391 C 0.26473 0.59983 0.20719 0.0
N3392 N 0.27704 0.59059 0.20938 0.0
C3393 C 0.26177 0.56693 0.20054 0.0
C3394 C 0.2498 0.5785 0.19735 0.0
C3395 C 0.25158 0.59419 0.20024 0.0
C3396 C 0.27752 0.57649 0.20288 0.0
H3397 H 0.26491 0.61169 0.21083 0.0
C3398 C 0.28421 0.62706 0.23542 0.0
O3399 O 0.3161 0.65077 0.20853 0.0
O3400 O 0.29652 0.63968 0.19694 0.0
N3401 N 0.30389 0.57629 0.21773 0.0
C3402 C 0.31458 0.56796 0.23069 0.0
C3403 C 0.31593 0.54781 0.2342 0.0
C3404 C 0.30594 0.53337 0.22405 0.0
C3405 C 0.29313 0.53827 0.20911 0.0
C3406 C 0.29278 0.56793 0.2057 0.0
H3407 H 0.32071 0.57498 0.23885 0.0
O3408 O 0.32118 0.61866 0.19471 0.0
O3409 O 0.30242 0.60835 0.20775 0.0
O3410 O 0.32487 0.62002 0.22803 0.0
O3411 O 0.3107 0.60039 0.2377 0.0
C3412 C 0.27809 0.52866 0.20705 0.0
C3413 C 0.26248 0.53747 0.20364 0.0
H3414 H 0.23831 0.57603 0.1933 0.0
H3415 H 0.24205 0.60193 0.19818 0.0
H3416 H 0.32312 0.54416 0.24366 0.0
H3417 H 0.30649 0.52162 0.22808 0.0
H3418 H 0.27797 0.51652 0.20975 0.0
H3419 H 0.25324 0.52887 0.20296 0.0
Mn3420 Mn 0.9458 0.12613 0.71409 0.0
Mn3421 Mn 0.96206 0.15975 0.72416 0.0
C3422 C 0.94301 0.14747 0.69797 0.0
C3423 C 0.94996 0.10232 0.70188 0.0
C3424 C 0.93319 0.14653 0.73899 0.0
O3425 O 0.9602 0.12062 0.73216 0.0
O3426 O 0.97405 0.14244 0.73263 0.0
C3427 C 0.99045 0.15503 0.70696 0.0
N3428 N 0.97823 0.16431 0.70947 0.0
C3429 C 0.99325 0.18787 0.69996 0.0
C3430 C 0.00512 0.17625 0.6965 0.0
C3431 C 0.00339 0.16059 0.69957 0.0
C3432 C 0.97756 0.17834 0.70285 0.0
H3433 H 0.99036 0.1432 0.71067 0.0
C3434 C 0.97149 0.12868 0.737 0.0
O3435 O 0.9389 0.1041 0.7118 0.0
O3436 O 0.95865 0.11414 0.69949 0.0
N3437 N 0.95162 0.17869 0.71846 0.0
C3438 C 0.94132 0.18716 0.73167 0.0
C3439 C 0.94009 0.20733 0.73503 0.0
C3440 C 0.9498 0.22166 0.72446 0.0
C3441 C 0.96216 0.21661 0.7092 0.0
C3442 C 0.9624 0.18693 0.70606 0.0
H3443 H 0.93543 0.18024 0.74006 0.0
O3444 O 0.93431 0.13552 0.69616 0.0
O3445 O 0.95302 0.14634 0.70884 0.0
O3446 O 0.93057 0.13568 0.7294 0.0
O3447 O 0.94536 0.15487 0.73895 0.0
C3448 C 0.97713 0.22619 0.70662 0.0
C3449 C 0.99263 0.21734 0.70282 0.0
H3450 H 0.01648 0.17868 0.69209 0.0
H3451 H 0.01284 0.15282 0.69725 0.0
H3452 H 0.93318 0.21108 0.74466 0.0
H3453 H 0.94936 0.23345 0.72839 0.0
H3454 H 0.97733 0.23836 0.70919 0.0
H3455 H 0.00185 0.22593 0.70178 0.0
Mn3456 Mn 0.54663 0.12638 0.9495 0.0
Mn3457 Mn 0.5376 0.09196 0.96457 0.0
C3458 C 0.56294 0.10552 0.94654 0.0
C3459 C 0.5588 0.15043 0.95183 0.0
C3460 C 0.52567 0.10211 0.93393 0.0
O3461 O 0.52941 0.13252 0.96437 0.0
O3462 O 0.52282 0.10838 0.9703 0.0
C3463 C 0.54451 0.10382 0.99675 0.0
N3464 N 0.5456 0.09269 0.98578 0.0
C3465 C 0.55022 0.073 0.00901 0.0
C3466 C 0.55011 0.08578 0.01862 0.0
C3467 C 0.54767 0.10073 0.01253 0.0
C3468 C 0.54993 0.07883 0.98995 0.0
H3469 H 0.54134 0.11536 0.99348 0.0
C3470 C 0.52042 0.12285 0.97066 0.0
O3471 O 0.54831 0.14808 0.94143 0.0
O3472 O 0.56169 0.13908 0.96098 0.0
N3473 N 0.54961 0.07306 0.95987 0.0
C3474 C 0.55049 0.06488 0.94488 0.0
C3475 C 0.55268 0.04666 0.94272 0.0
C3476 C 0.5543 0.02901 0.96663 0.0
C3477 C 0.55334 0.03916 0.98214 0.0
C3478 C 0.5512 0.06676 0.97515 0.0
H3479 H 0.54829 0.0714 0.93454 0.0
O3480 O 0.56371 0.11713 0.93728 0.0
O3481 O 0.55312 0.10654 0.95774 0.0
O3482 O 0.53045 0.11606 0.93503 0.0
O3483 O 0.52877 0.09157 0.94372 0.0
C3484 C 0.55345 0.03619 0.00258 0.0
C3485 C 0.55174 0.05318 0.01575 0.0
H3486 H 0.55217 0.08439 0.0308 0.0
H3487 H 0.54754 0.11031 0.02047 0.0
H3488 H 0.55295 0.04385 0.93041 0.0
H3489 H 0.55552 0.01655 0.96802 0.0
H3490 H 0.55463 0.02307 0.0054 0.0
H3491 H 0.55272 0.0432 0.01041 0.0
Mn3492 Mn 0.37639 0.29077 0.19502 0.0
Mn3493 Mn 0.40966 0.28111 0.21212 0.0
C3494 C 0.39774 0.30686 0.19237 0.0
C3495 C 0.35268 0.30337 0.19783 0.0
C3496 C 0.39692 0.26562 0.1834 0.0
O3497 O 0.37058 0.27304 0.20981 0.0
O3498 O 0.3922 0.27284 0.22403 0.0
C3499 C 0.40475 0.29858 0.24035 0.0
N3500 N 0.41406 0.29602 0.22815 0.0
C3501 C 0.43757 0.30574 0.24318 0.0
C3502 C 0.42592 0.30919 0.25501 0.0
C3503 C 0.41027 0.30606 0.25327 0.0
C3504 C 0.42808 0.30263 0.2275 0.0
H3505 H 0.39293 0.29482 0.24026 0.0
C3506 C 0.3785 0.26839 0.22133 0.0
O3507 O 0.35467 0.29296 0.18728 0.0
O3508 O 0.36412 0.30578 0.20703 0.0
N3509 N 0.42862 0.28676 0.20171 0.0
C3510 C 0.43723 0.27356 0.19152 0.0
C3511 C 0.45744 0.27042 0.19033 0.0
C3512 C 0.47165 0.28124 0.19994 0.0
C3513 C 0.46641 0.29655 0.21216 0.0
C3514 C 0.43671 0.29935 0.21237 0.0
H3515 H 0.43041 0.26504 0.1857 0.0
O3516 O 0.38605 0.30834 0.18326 0.0
O3517 O 0.39636 0.29627 0.20266 0.0
O3518 O 0.38617 0.27516 0.18035 0.0
O3519 O 0.40505 0.26597 0.1957 0.0
C3520 C 0.47596 0.29936 0.22713 0.0
C3521 C 0.46707 0.30318 0.2426 0.0
H3522 H 0.4283 0.31368 0.26636 0.0
H3523 H 0.40247 0.3084 0.26269 0.0
H3524 H 0.4613 0.26077 0.18349 0.0
H3525 H 0.48348 0.27745 0.19954 0.0
H3526 H 0.48815 0.29691 0.22735 0.0
H3527 H 0.47565 0.30437 0.25182 0.0
Mn3528 Mn 0.20506 0.1279 0.44884 0.0
Mn3529 Mn 0.21222 0.16184 0.46552 0.0
C3530 C 0.18719 0.14805 0.44671 0.0
C3531 C 0.19333 0.1036 0.45267 0.0
C3532 C 0.22958 0.14909 0.43744 0.0
O3533 O 0.22335 0.12389 0.46356 0.0
O3534 O 0.22109 0.14515 0.47835 0.0
C3535 C 0.19641 0.15973 0.49506 0.0
N3536 N 0.19781 0.16754 0.48169 0.0
C3537 C 0.19114 0.19316 0.49533 0.0
C3538 C 0.1887 0.18295 0.50861 0.0
C3539 C 0.19088 0.16702 0.50813 0.0
C3540 C 0.19216 0.18196 0.48044 0.0
H3541 H 0.19981 0.14782 0.49582 0.0
C3542 C 0.22742 0.13224 0.47505 0.0
O3543 O 0.20343 0.10566 0.44182 0.0
O3544 O 0.19091 0.11522 0.46156 0.0
N3545 N 0.20526 0.17937 0.45329 0.0
C3546 C 0.21703 0.18643 0.44063 0.0
C3547 C 0.22063 0.20627 0.43702 0.0
C3548 C 0.21142 0.22176 0.4463 0.0
C3549 C 0.19753 0.21834 0.46065 0.0
C3550 C 0.19413 0.18889 0.46429 0.0
H3551 H 0.22157 0.17872 0.43231 0.0
O3552 O 0.18654 0.13645 0.43738 0.0
O3553 O 0.19802 0.14736 0.45674 0.0
O3554 O 0.22052 0.13817 0.43348 0.0
O3555 O 0.22751 0.15672 0.44983 0.0
C3556 C 0.19658 0.22945 0.47468 0.0
C3557 C 0.19426 0.22234 0.49127 0.0
H3558 H 0.18567 0.18674 0.52007 0.0
H3559 H 0.18943 0.16036 0.51855 0.0
H3560 H 0.22886 0.20904 0.42812 0.0
H3561 H 0.21527 0.23337 0.44408 0.0
H3562 H 0.19931 0.24151 0.47337 0.0
H3563 H 0.19431 0.2319 0.49955 0.0
Mn3564 Mn 0.37547 0.96224 0.69711 0.0
Mn3565 Mn 0.34079 0.97335 0.71124 0.0
C3566 C 0.35392 0.94682 0.69366 0.0
C3567 C 0.39874 0.94882 0.70179 0.0
C3568 C 0.35587 0.98737 0.68281 0.0
O3569 O 0.38084 0.9798 0.71201 0.0
O3570 O 0.35765 0.98262 0.72341 0.0
C3571 C 0.34301 0.95881 0.74152 0.0
N3572 N 0.33496 0.95992 0.72827 0.0
C3573 C 0.30994 0.95196 0.74226 0.0
C3574 C 0.32045 0.94984 0.75536 0.0
C3575 C 0.33623 0.95283 0.75466 0.0
C3576 C 0.32084 0.95345 0.72717 0.0
H3577 H 0.35479 0.96264 0.74214 0.0
C3578 C 0.37198 0.98571 0.72217 0.0
O3579 O 0.3977 0.95905 0.69094 0.0
O3580 O 0.3866 0.94696 0.71016 0.0
N3581 N 0.32259 0.9667 0.69998 0.0
C3582 C 0.31494 0.97876 0.68781 0.0
C3583 C 0.29492 0.98167 0.68457 0.0
C3584 C 0.27989 0.97182 0.69396 0.0
C3585 C 0.28399 0.95784 0.70806 0.0
C3586 C 0.31355 0.95518 0.71111 0.0
H3587 H 0.32226 0.98665 0.68173 0.0
O3588 O 0.36602 0.94483 0.68518 0.0
O3589 O 0.35485 0.9576 0.70379 0.0
O3590 O 0.36717 0.97803 0.68137 0.0
O3591 O 0.34643 0.98719 0.69411 0.0
C3592 C 0.27316 0.95649 0.72229 0.0
C3593 C 0.28063 0.9543 0.73874 0.0
H3594 H 0.31699 0.94654 0.76684 0.0
H3595 H 0.34312 0.95161 0.76496 0.0
H3596 H 0.2917 0.99056 0.67649 0.0
H3597 H 0.26815 0.97549 0.69217 0.0
H3598 H 0.26102 0.95886 0.7212 0.0
H3599 H 0.27122 0.95406 0.74719 0.0
Mn3600 Mn 0.54516 0.12691 0.30025 0.0
Mn3601 Mn 0.53526 0.16236 0.2871 0.0
C3602 C 0.56198 0.14722 0.30195 0.0
C3603 C 0.5571 0.10265 0.29755 0.0
C3604 C 0.52623 0.15092 0.31844 0.0
O3605 O 0.52704 0.12159 0.28643 0.0
O3606 O 0.52003 0.146 0.28135 0.0
C3607 C 0.53606 0.1552 0.25298 0.0
N3608 N 0.54058 0.16424 0.26499 0.0
C3609 C 0.54176 0.18717 0.24415 0.0
C3610 C 0.53751 0.17632 0.23325 0.0
C3611 C 0.53509 0.1608 0.23759 0.0
C3612 C 0.54448 0.17868 0.26209 0.0
H3613 H 0.53267 0.14346 0.25511 0.0
C3614 C 0.51785 0.13142 0.28064 0.0
O3615 O 0.54703 0.10523 0.30828 0.0
O3616 O 0.55937 0.11376 0.28789 0.0
N3617 N 0.54811 0.18057 0.2925 0.0
C3618 C 0.55116 0.18678 0.30816 0.0
C3619 C 0.55362 0.20462 0.31239 0.0
C3620 C 0.55183 0.22519 0.29098 0.0
C3621 C 0.54879 0.2171 0.27461 0.0
C3622 C 0.54779 0.18878 0.27811 0.0
H3623 H 0.55048 0.17896 0.31774 0.0
O3624 O 0.56306 0.13553 0.31111 0.0
O3625 O 0.55123 0.1469 0.2915 0.0
O3626 O 0.53041 0.13691 0.31649 0.0
O3627 O 0.52851 0.16146 0.30855 0.0
C3628 C 0.54595 0.22276 0.25502 0.0
C3629 C 0.54232 0.2077 0.24009 0.0
H3630 H 0.53558 0.17984 0.22148 0.0
H3631 H 0.53148 0.15283 0.22874 0.0
H3632 H 0.55562 0.20584 0.32481 0.0
H3633 H 0.55278 0.23775 0.29104 0.0
H3634 H 0.54653 0.23616 0.25397 0.0
H3635 H 0.54411 0.21686 0.24653 0.0
Mn3636 Mn 0.37949 0.29393 0.55957 0.0
Mn3637 Mn 0.34606 0.28157 0.54429 0.0
C3638 C 0.35749 0.30908 0.56192 0.0
C3639 C 0.40264 0.30709 0.55499 0.0
C3640 C 0.35997 0.2692 0.57389 0.0
O3641 O 0.3858 0.27567 0.54583 0.0
O3642 O 0.36366 0.27299 0.5327 0.0
C3643 C 0.34993 0.29733 0.51494 0.0
N3644 N 0.34083 0.29519 0.52737 0.0
C3645 C 0.31694 0.30362 0.5122 0.0
C3646 C 0.32837 0.30685 0.5001 0.0
C3647 C 0.3441 0.3041 0.50177 0.0
C3648 C 0.32666 0.30159 0.52791 0.0
H3649 H 0.36182 0.29383 0.51505 0.0
C3650 C 0.37781 0.26981 0.53498 0.0
O3651 O 0.40135 0.29748 0.56637 0.0
O3652 O 0.39077 0.30854 0.54614 0.0
N3653 N 0.32691 0.28712 0.55448 0.0
C3654 C 0.31887 0.27411 0.56534 0.0
C3655 C 0.29881 0.27028 0.56689 0.0
C3656 C 0.28412 0.28004 0.55688 0.0
C3657 C 0.28866 0.2949 0.54387 0.0
C3658 C 0.31826 0.29883 0.54327 0.0
H3659 H 0.32601 0.26592 0.5712 0.0
O3660 O 0.36942 0.3118 0.57041 0.0
O3661 O 0.359 0.29791 0.55228 0.0
O3662 O 0.3707 0.27909 0.57557 0.0
O3663 O 0.35151 0.26805 0.56185 0.0
C3664 C 0.27891 0.29662 0.52886 0.0
C3665 C 0.28755 0.30001 0.51315 0.0
H3666 H 0.32575 0.31078 0.4886 0.0
H3667 H 0.35174 0.30616 0.49215 0.0
H3668 H 0.29539 0.26086 0.57424 0.0
H3669 H 0.27245 0.27582 0.55757 0.0
H3670 H 0.26682 0.29371 0.52886 0.0
H3671 H 0.27888 0.30044 0.50395 0.0
Mn3672 Mn 0.20848 0.12676 0.79991 0.0
Mn3673 Mn 0.21915 0.09119 0.7878 0.0
C3674 C 0.19214 0.10608 0.80231 0.0
C3675 C 0.19602 0.15077 0.79676 0.0
C3676 C 0.22784 0.1036 0.81881 0.0
O3677 O 0.22643 0.1321 0.78579 0.0
O3678 O 0.23415 0.10769 0.78206 0.0
C3679 C 0.21846 0.09817 0.75361 0.0
N3680 N 0.21411 0.08908 0.76564 0.0
C3681 C 0.21311 0.06615 0.7448 0.0
C3682 C 0.21728 0.07701 0.73389 0.0
C3683 C 0.21952 0.09256 0.73822 0.0
C3684 C 0.21036 0.07462 0.76275 0.0
H3685 H 0.22162 0.10998 0.75569 0.0
C3686 C 0.23601 0.12225 0.78069 0.0
O3687 O 0.20625 0.14861 0.80742 0.0
O3688 O 0.19384 0.13938 0.7874 0.0
N3689 N 0.20666 0.07271 0.79318 0.0
C3690 C 0.20371 0.06644 0.80884 0.0
C3691 C 0.20137 0.04856 0.81304 0.0
C3692 C 0.20329 0.02803 0.79158 0.0
C3693 C 0.20625 0.03617 0.77522 0.0
C3694 C 0.20711 0.0645 0.77878 0.0
H3695 H 0.20443 0.07422 0.81846 0.0
O3696 O 0.19083 0.118 0.81115 0.0
O3697 O 0.2028 0.10638 0.79177 0.0
O3698 O 0.22357 0.11749 0.81626 0.0
O3699 O 0.22556 0.09261 0.80938 0.0
C3700 C 0.2091 0.03055 0.75563 0.0
C3701 C 0.21265 0.04563 0.74072 0.0
H3702 H 0.21928 0.0735 0.72212 0.0
H3703 H 0.22303 0.10056 0.72936 0.0
H3704 H 0.1994 0.04732 0.82545 0.0
H3705 H 0.20242 0.01547 0.79163 0.0
H3706 H 0.20861 0.01714 0.75455 0.0
H3707 H 0.2109 0.03646 0.74716 0.0
Mn3708 Mn 0.37781 0.95831 0.05258 0.0
Mn3709 Mn 0.41235 0.96559 0.03721 0.0
C3710 C 0.3979 0.94048 0.05538 0.0
C3711 C 0.35361 0.94708 0.04821 0.0
C3712 C 0.39857 0.98258 0.06517 0.0
O3713 O 0.37401 0.97638 0.03754 0.0
O3714 O 0.39602 0.97478 0.02379 0.0
C3715 C 0.41091 0.94967 0.00766 0.0
N3716 N 0.41844 0.95114 0.02117 0.0
C3717 C 0.44425 0.94403 0.0082 0.0
C3718 C 0.43431 0.94145 0.99474 0.0
C3719 C 0.41839 0.94381 0.99484 0.0
C3720 C 0.43274 0.9452 0.02282 0.0
H3721 H 0.39906 0.95322 0.00659 0.0
C3722 C 0.38247 0.98026 0.02608 0.0
O3723 O 0.35557 0.95715 0.0591 0.0
O3724 O 0.36539 0.94423 0.03962 0.0
N3725 N 0.42954 0.95836 0.04986 0.0
C3726 C 0.4363 0.97016 0.06261 0.0
C3727 C 0.45604 0.97392 0.06659 0.0
C3728 C 0.47177 0.96478 0.05766 0.0
C3729 C 0.46872 0.9508 0.04332 0.0
C3730 C 0.43935 0.94722 0.03911 0.0
H3731 H 0.42844 0.97397 0.07113 0.0
O3732 O 0.386 0.93984 0.06434 0.0
O3733 O 0.39753 0.9513 0.04531 0.0
O3734 O 0.38742 0.97354 0.06829 0.0
O3735 O 0.40681 0.98088 0.05306 0.0
C3736 C 0.48011 0.94978 0.02952 0.0
C3737 C 0.47332 0.94729 0.01282 0.0
H3738 H 0.43832 0.93821 0.98341 0.0
H3739 H 0.41194 0.94225 0.9843 0.0
H3740 H 0.45859 0.98206 0.07563 0.0
H3741 H 0.48331 0.96868 0.06013 0.0
H3742 H 0.49213 0.95256 0.03107 0.0
H3743 H 0.48304 0.94729 0.00475 0.0
Mn3744 Mn 0.95298 0.04171 0.63304 0.0
Mn3745 Mn 0.96777 0.03224 0.59829 0.0
C3746 C 0.95163 0.05899 0.61293 0.0
C3747 C 0.95515 0.05349 0.65731 0.0
C3748 C 0.93591 0.02258 0.60844 0.0
O3749 O 0.96672 0.02347 0.63863 0.0
O3750 O 0.97384 0.01734 0.61453 0.0
C3751 C 0.00202 0.03371 0.60519 0.0
N3752 N 0.98978 0.03822 0.59647 0.0
C3753 C 0.01038 0.04094 0.57331 0.0
C3754 C 0.0215 0.03659 0.5839 0.0
C3755 C 0.01738 0.03337 0.59936 0.0
C3756 C 0.99244 0.04244 0.58207 0.0
H3757 H 1.00012 0.02982 0.61682 0.0
C3758 C 0.97367 0.01486 0.62902 0.0
O3759 O 0.94442 0.04348 0.6545 0.0
O3760 O 0.96512 0.05567 0.64649 0.0
N3761 N 0.96207 0.04512 0.58068 0.0
C3762 C 0.94629 0.04787 0.57507 0.0
C3763 C 0.94169 0.05124 0.55772 0.0
C3764 C 0.9626 0.05174 0.53649 0.0
C3765 C 0.97935 0.04879 0.54411 0.0
C3766 C 0.9763 0.04572 0.57234 0.0
H3767 H 0.93695 0.04654 0.58305 0.0
O3768 O 0.94228 0.0597 0.62447 0.0
O3769 O 0.96227 0.04832 0.61339 0.0
O3770 O 0.93685 0.02728 0.6224 0.0
O3771 O 0.9466 0.02446 0.59864 0.0
C3772 C 0.99902 0.04711 0.53809 0.0
C3773 C 0.01425 0.04303 0.55279 0.0
H3774 H 0.03331 0.03522 0.58023 0.0
H3775 H 0.02641 0.0297 0.6071 0.0
H3776 H 0.92916 0.05273 0.557 0.0
H3777 H 0.96211 0.0536 0.52405 0.0
H3778 H 1.00004 0.04877 0.52475 0.0
H3779 H 0.00766 0.0452 0.54381 0.0
Mn3780 Mn 0.46021 0.70149 0.87431 0.0
Mn3781 Mn 0.46921 0.71436 0.83883 0.0
C3782 C 0.44368 0.69772 0.85377 0.0
C3783 C 0.44802 0.70401 0.89849 0.0
C3784 C 0.48083 0.68444 0.85076 0.0
O3785 O 0.47718 0.71698 0.87949 0.0
O3786 O 0.48415 0.7209 0.85496 0.0
C3787 C 0.4647 0.74798 0.84739 0.0
N3788 N 0.46232 0.73595 0.83761 0.0
C3789 C 0.4592 0.7573 0.81553 0.0
C3790 C 0.4606 0.76813 0.82708 0.0
C3791 C 0.46305 0.76355 0.84255 0.0
C3792 C 0.45843 0.73895 0.82329 0.0
H3793 H 0.4678 0.74577 0.8592 0.0
C3794 C 0.48631 0.7225 0.86943 0.0
O3795 O 0.45889 0.69399 0.89626 0.0
O3796 O 0.4449 0.71295 0.88701 0.0
N3797 N 0.45681 0.70851 0.82046 0.0
C3798 C 0.45481 0.69288 0.81378 0.0
C3799 C 0.45193 0.68913 0.79587 0.0
C3800 C 0.45126 0.71131 0.77606 0.0
C3801 C 0.45343 0.72758 0.78465 0.0
C3802 C 0.45597 0.72315 0.81275 0.0
H3803 H 0.45663 0.68309 0.8212 0.0
O3804 O 0.44327 0.6888 0.86567 0.0
O3805 O 0.4535 0.709 0.85408 0.0
O3806 O 0.47655 0.68664 0.86472 0.0
O3807 O 0.47733 0.69338 0.83969 0.0
C3808 C 0.45445 0.74753 0.77967 0.0
C3809 C 0.45748 0.76215 0.7952 0.0
H3810 H 0.45905 0.78001 0.82418 0.0
H3811 H 0.46413 0.77244 0.85117 0.0
H3812 H 0.45083 0.67665 0.79427 0.0
H3813 H 0.44975 0.7116 0.76356 0.0
H3814 H 0.45302 0.74904 0.76638 0.0
H3815 H 0.45586 0.75594 0.78583 0.0
Mn3816 Mn 0.79737 0.20862 0.12683 0.0
Mn3817 Mn 0.78603 0.21892 0.09095 0.0
C3818 C 0.80074 0.19228 0.10639 0.0
C3819 C 0.79386 0.19649 0.15067 0.0
C3820 C 0.81651 0.22806 0.10426 0.0
O3821 O 0.78285 0.22624 0.1317 0.0
O3822 O 0.77936 0.23376 0.1072 0.0
C3823 C 0.75162 0.21746 0.09662 0.0
N3824 N 0.7641 0.21333 0.08803 0.0
C3825 C 0.74418 0.21152 0.06432 0.0
C3826 C 0.73276 0.21549 0.07474 0.0
C3827 C 0.73644 0.21803 0.09042 0.0
C3828 C 0.76186 0.20941 0.07349 0.0
H3829 H 0.75317 0.2208 0.10846 0.0
C3830 C 0.77768 0.23562 0.12172 0.0
O3831 O 0.80436 0.20692 0.14873 0.0
O3832 O 0.78479 0.19394 0.13912 0.0
N3833 N 0.7924 0.20654 0.07277 0.0
C3834 C 0.80836 0.20399 0.06717 0.0
C3835 C 0.81333 0.20158 0.04953 0.0
C3836 C 0.79268 0.20255 0.02813 0.0
C3837 C 0.77592 0.20514 0.03558 0.0
C3838 C 0.77833 0.2065 0.06403 0.0
H3839 H 0.81761 0.20497 0.07534 0.0
O3840 O 0.80921 0.19119 0.11859 0.0
O3841 O 0.78993 0.20268 0.10629 0.0
O3842 O 0.81371 0.2238 0.11807 0.0
O3843 O 0.80734 0.22583 0.09307 0.0
C3844 C 0.75646 0.20732 0.02917 0.0
C3845 C 0.74089 0.21064 0.04366 0.0
H3846 H 0.72109 0.21712 0.07077 0.0
H3847 H 0.72719 0.22138 0.09805 0.0
H3848 H 0.82583 0.19996 0.04881 0.0
H3849 H 0.79326 0.20147 0.01559 0.0
H3850 H 0.7558 0.20644 0.01573 0.0
H3851 H 0.74772 0.20895 0.03476 0.0
Mn3852 Mn 0.28931 0.5571 0.37697 0.0
Mn3853 Mn 0.27907 0.54354 0.34188 0.0
C3854 C 0.30509 0.56123 0.35557 0.0
C3855 C 0.30301 0.5534 0.40036 0.0
C3856 C 0.26424 0.57144 0.35695 0.0
O3857 O 0.2725 0.54075 0.38198 0.0
O3858 O 0.27008 0.5305 0.35824 0.0
C3859 C 0.29459 0.51378 0.34387 0.0
N3860 N 0.29293 0.52703 0.33593 0.0
C3861 C 0.30089 0.51374 0.31065 0.0
C3862 C 0.30295 0.50037 0.32086 0.0
C3863 C 0.30044 0.50079 0.33674 0.0
C3864 C 0.29929 0.52849 0.32187 0.0
H3865 H 0.29138 0.51313 0.3558 0.0
C3866 C 0.26731 0.53048 0.37268 0.0
O3867 O 0.29205 0.5635 0.39922 0.0
O3868 O 0.30523 0.5449 0.38834 0.0
N3869 N 0.28592 0.55552 0.32418 0.0
C3870 C 0.27407 0.56797 0.31664 0.0
C3871 C 0.27163 0.57185 0.29666 0.0
C3872 C 0.28182 0.56291 0.28157 0.0
C3873 C 0.29568 0.54866 0.28554 0.0
C3874 C 0.29764 0.5447 0.31505 0.0
H3875 H 0.26594 0.57375 0.32392 0.0
O3876 O 0.30641 0.56981 0.36769 0.0
O3877 O 0.29456 0.55084 0.35631 0.0
O3878 O 0.27318 0.57256 0.3686 0.0
O3879 O 0.26462 0.5602 0.34749 0.0
C3880 C 0.29718 0.53473 0.27431 0.0
C3881 C 0.29915 0.51804 0.28135 0.0
H3882 H 0.30608 0.48892 0.31714 0.0
H3883 H 0.30196 0.49041 0.34345 0.0
H3884 H 0.26281 0.58002 0.2935 0.0
H3885 H 0.27841 0.56506 0.2698 0.0
H3886 H 0.29503 0.53618 0.26215 0.0
H3887 H 0.29959 0.50983 0.27174 0.0
Mn3888 Mn 0.95193 0.20942 0.62986 0.0
Mn3889 Mn 0.96607 0.21748 0.66501 0.0
C3890 C 0.94843 0.19258 0.65027 0.0
C3891 C 0.95422 0.19727 0.60564 0.0
C3892 C 0.93591 0.23005 0.65421 0.0
O3893 O 0.96727 0.2266 0.62454 0.0
O3894 O 0.97248 0.23248 0.64908 0.0
C3895 C 0.99889 0.21127 0.65467 0.0
N3896 N 0.98732 0.20952 0.6651 0.0
C3897 C 0.00956 0.20484 0.68595 0.0
C3898 C 0.01986 0.20565 0.67375 0.0
C3899 C 0.01455 0.2085 0.65857 0.0
C3900 C 0.99083 0.205 0.6791 0.0
H3901 H 0.9962 0.21476 0.64306 0.0
C3902 C 0.97339 0.23525 0.63469 0.0
O3903 O 0.94411 0.20804 0.60796 0.0
O3904 O 0.96334 0.19431 0.617 0.0
N3905 N 0.96051 0.20503 0.68334 0.0
C3906 C 0.94512 0.20388 0.69069 0.0
C3907 C 0.94204 0.20135 0.70874 0.0
C3908 C 0.965 0.19961 0.72758 0.0
C3909 C 0.981 0.20087 0.71827 0.0
C3910 C 0.97544 0.20341 0.69038 0.0
H3911 H 0.93512 0.20612 0.68369 0.0
O3912 O 0.93933 0.19232 0.63851 0.0
O3913 O 0.95972 0.20233 0.64977 0.0
O3914 O 0.93738 0.22564 0.64017 0.0
O3915 O 0.94531 0.22646 0.66492 0.0
C3916 C 1.00124 0.20089 0.72231 0.0
C3917 C 0.01526 0.20303 0.70606 0.0
H3918 H 0.03196 0.20376 0.67576 0.0
H3919 H 0.023 0.20918 0.64947 0.0
H3920 H 0.92961 0.20094 0.71089 0.0
H3921 H 0.96576 0.19817 0.74008 0.0
H3922 H 0.00338 0.19953 0.73554 0.0
H3923 H 0.00942 0.20182 0.71573 0.0
Mn3924 Mn 0.29775 0.70178 0.87644 0.0
Mn3925 Mn 0.28911 0.71451 0.91208 0.0
C3926 C 0.31495 0.69881 0.89659 0.0
C3927 C 0.30889 0.70473 0.85205 0.0
C3928 C 0.27901 0.68375 0.90045 0.0
O3929 O 0.27973 0.71627 0.87169 0.0
O3930 O 0.27393 0.72075 0.89637 0.0
C3931 C 0.29331 0.74799 0.90315 0.0
N3932 N 0.29579 0.73614 0.9131 0.0
C3933 C 0.29859 0.75771 0.93494 0.0
C3934 C 0.29727 0.76841 0.92319 0.0
C3935 C 0.2949 0.76362 0.90776 0.0
C3936 C 0.29978 0.73932 0.92734 0.0
H3937 H 0.29017 0.74557 0.89139 0.0
C3938 C 0.27102 0.72191 0.88205 0.0
O3939 O 0.29865 0.69419 0.85465 0.0
O3940 O 0.3119 0.71403 0.8633 0.0
N3941 N 0.30155 0.7089 0.93037 0.0
C3942 C 0.30336 0.69333 0.93717 0.0
C3943 C 0.30539 0.68964 0.95517 0.0
C3944 C 0.30513 0.7119 0.97492 0.0
C3945 C 0.30325 0.72814 0.9662 0.0
C3946 C 0.30194 0.72359 0.93804 0.0
H3947 H 0.3022 0.68355 0.92968 0.0
O3948 O 0.31566 0.69007 0.88456 0.0
O3949 O 0.3046 0.70958 0.89651 0.0
O3950 O 0.28291 0.68589 0.8864 0.0
O3951 O 0.28159 0.69336 0.91122 0.0
C3952 C 0.3019 0.74815 0.97104 0.0
C3953 C 0.29944 0.76267 0.95531 0.0
H3954 H 0.29863 0.78042 0.92573 0.0
H3955 H 0.29376 0.77238 0.89902 0.0
H3956 H 0.30649 0.67717 0.95686 0.0
H3957 H 0.30607 0.71225 0.98748 0.0
H3958 H 0.30274 0.74979 0.98438 0.0
H3959 H 0.3007 0.75651 0.96477 0.0
Mn3960 Mn 0.7999 0.04397 0.12532 0.0
Mn3961 Mn 0.78815 0.03414 0.16127 0.0
C3962 C 0.80284 0.06061 0.14568 0.0
C3963 C 0.79672 0.05629 0.10132 0.0
C3964 C 0.81872 0.02462 0.14842 0.0
O3965 O 0.7854 0.02618 0.12049 0.0
O3966 O 0.78169 0.01922 0.14514 0.0
C3967 C 0.75377 0.03537 0.15543 0.0
N3968 N 0.76617 0.03966 0.16403 0.0
C3969 C 0.74624 0.04095 0.18778 0.0
C3970 C 0.73488 0.0369 0.17733 0.0
C3971 C 0.7386 0.03453 0.16162 0.0
C3972 C 0.76387 0.04344 0.17861 0.0
H3973 H 0.75539 0.03207 0.14357 0.0
C3974 C 0.78015 0.01701 0.13066 0.0
O3975 O 0.80718 0.04583 0.10339 0.0
O3976 O 0.78746 0.05865 0.11275 0.0
N3977 N 0.79437 0.0467 0.17932 0.0
C3978 C 0.8103 0.04943 0.18489 0.0
C3979 C 0.81526 0.05174 0.20255 0.0
C3980 C 0.79465 0.05027 0.22396 0.0
C3981 C 0.77793 0.04748 0.21654 0.0
C3982 C 0.7803 0.04648 0.18808 0.0
H3983 H 0.81956 0.04863 0.17669 0.0
O3984 O 0.81156 0.06152 0.13365 0.0
O3985 O 0.79213 0.05013 0.14572 0.0
O3986 O 0.81614 0.02875 0.1345 0.0
O3987 O 0.80945 0.02718 0.15945 0.0
C3988 C 0.75851 0.04492 0.22296 0.0
C3989 C 0.74297 0.04153 0.20846 0.0
H3990 H 0.72324 0.03506 0.18129 0.0
H3991 H 0.72941 0.03108 0.15397 0.0
H3992 H 0.82774 0.05352 0.20328 0.0
H3993 H 0.79523 0.0512 0.23651 0.0
H3994 H 0.75786 0.04564 0.23642 0.0
H3995 H 0.74979 0.04322 0.21737 0.0
Mn3996 Mn 0.45858 0.55149 0.37999 0.0
Mn3997 Mn 0.46747 0.53949 0.41563 0.0
C3998 C 0.44204 0.55588 0.4003 0.0
C3999 C 0.44617 0.54757 0.35613 0.0
C4000 C 0.47909 0.56923 0.40323 0.0
O4001 O 0.47565 0.53606 0.37521 0.0
O4002 O 0.48269 0.53291 0.3998 0.0
C4003 C 0.46296 0.50582 0.40715 0.0
N4004 N 0.46061 0.51788 0.41689 0.0
C4005 C 0.45654 0.4966 0.43888 0.0
C4006 C 0.45792 0.48574 0.42732 0.0
C4007 C 0.46081 0.49029 0.41191 0.0
C4008 C 0.45623 0.51495 0.43107 0.0
H4009 H 0.46632 0.50797 0.3954 0.0
C4010 C 0.4849 0.53101 0.38538 0.0
O4011 O 0.45682 0.55796 0.35768 0.0
O4012 O 0.44341 0.53921 0.36809 0.0
N4013 N 0.45473 0.5454 0.43372 0.0
C4014 C 0.45261 0.56106 0.44025 0.0
C4015 C 0.44913 0.5649 0.45801 0.0
C4016 C 0.44755 0.54283 0.47789 0.0
C4017 C 0.44991 0.52649 0.46947 0.0
C4018 C 0.4535 0.53078 0.44146 0.0
H4019 H 0.4547 0.5708 0.43285 0.0
O4020 O 0.44158 0.5644 0.38812 0.0
O4021 O 0.45188 0.54461 0.40031 0.0
O4022 O 0.47487 0.56672 0.38926 0.0
O4023 O 0.47547 0.56056 0.4145 0.0
C4024 C 0.4506 0.5065 0.47455 0.0
C4025 C 0.45406 0.49182 0.45915 0.0
H4026 H 0.45589 0.47386 0.43006 0.0
H4027 H 0.46176 0.4814 0.40327 0.0
H4028 H 0.44808 0.5774 0.45951 0.0
H4029 H 0.44556 0.54262 0.49033 0.0
H4030 H 0.44877 0.50493 0.48782 0.0
H4031 H 0.45218 0.49808 0.46844 0.0
Mn4032 Mn 0.6285 0.45597 0.54366 0.0
Mn4033 Mn 0.59301 0.46791 0.53305 0.0
C4034 C 0.60805 0.45352 0.56008 0.0
C4035 C 0.6523 0.46005 0.55573 0.0
C4036 C 0.6053 0.43662 0.52498 0.0
O4037 O 0.63368 0.46964 0.52547 0.0
O4038 O 0.60932 0.47343 0.51776 0.0
C4039 C 0.60048 0.50202 0.53371 0.0
N4040 N 0.59128 0.4901 0.53814 0.0
C4041 C 0.56893 0.51142 0.54052 0.0
C4042 C 0.57987 0.52217 0.53613 0.0
C4043 C 0.5952 0.51754 0.53317 0.0
C4044 C 0.57708 0.49324 0.54258 0.0
H4045 H 0.61212 0.49976 0.53011 0.0
C4046 C 0.62388 0.47467 0.51585 0.0
O4047 O 0.65041 0.44893 0.54591 0.0
O4048 O 0.64073 0.46919 0.55772 0.0
N4049 N 0.57463 0.4628 0.54581 0.0
C4050 C 0.5681 0.44725 0.54865 0.0
C4051 C 0.55022 0.4434 0.55147 0.0
C4052 C 0.53013 0.46534 0.55068 0.0
C4053 C 0.53853 0.48156 0.54783 0.0
C4054 C 0.56674 0.47739 0.5459 0.0
H4055 H 0.57565 0.43749 0.54759 0.0
O4056 O 0.62012 0.44496 0.56157 0.0
O4057 O 0.60818 0.46396 0.54932 0.0
O4058 O 0.61922 0.43919 0.52915 0.0
O4059 O 0.59435 0.44622 0.52686 0.0
C4060 C 0.53326 0.50133 0.5456 0.0
C4061 C 0.54855 0.51595 0.54182 0.0
H4062 H 0.57656 0.53405 0.53451 0.0
H4063 H 0.60327 0.52628 0.52954 0.0
H4064 H 0.54876 0.43098 0.55323 0.0
H4065 H 0.5176 0.46555 0.55195 0.0
H4066 H 0.51991 0.5028 0.54676 0.0
H4067 H 0.53932 0.50968 0.54377 0.0
Mn4068 Mn 0.12764 0.30911 0.71393 0.0
Mn4069 Mn 0.09291 0.29531 0.72492 0.0
C4070 C 0.10599 0.31288 0.69844 0.0
C4071 C 0.15069 0.30435 0.69984 0.0
C4072 C 0.10805 0.32345 0.7393 0.0
O4073 O 0.13303 0.29347 0.73111 0.0
O4074 O 0.10959 0.28265 0.73381 0.0
C4075 C 0.09499 0.26535 0.70985 0.0
N4076 N 0.08696 0.27856 0.71135 0.0
C4077 C 0.06172 0.26489 0.70392 0.0
C4078 C 0.07207 0.25163 0.70182 0.0
C4079 C 0.08794 0.25223 0.7042 0.0
C4080 C 0.07278 0.2798 0.70519 0.0
H4081 H 0.10693 0.26477 0.71308 0.0
C4082 C 0.12402 0.28314 0.73657 0.0
O4083 O 0.15 0.31502 0.71031 0.0
O4084 O 0.1384 0.29617 0.69822 0.0
N4085 N 0.07495 0.30698 0.71827 0.0
C4086 C 0.06747 0.31944 0.73015 0.0
C4087 C 0.0475 0.32309 0.73294 0.0
C4088 C 0.03234 0.31386 0.72311 0.0
C4089 C 0.03625 0.29953 0.70931 0.0
C4090 C 0.06576 0.29593 0.70681 0.0
H4091 H 0.07485 0.32541 0.73805 0.0
O4092 O 0.11808 0.32139 0.69668 0.0
O4093 O 0.10694 0.30273 0.7092 0.0
O4094 O 0.11948 0.32481 0.73007 0.0
O4095 O 0.09865 0.31215 0.73901 0.0
C4096 C 0.02519 0.28545 0.70812 0.0
C4097 C 0.03241 0.26883 0.70616 0.0
H4098 H 0.06845 0.24012 0.69883 0.0
H4099 H 0.09474 0.24189 0.70276 0.0
H4100 H 0.04439 0.33131 0.74173 0.0
H4101 H 0.02062 0.3159 0.72672 0.0
H4102 H 0.01305 0.28677 0.71048 0.0
H4103 H 0.02291 0.2605 0.70597 0.0
Mn4104 Mn 0.19516 0.87775 0.963 0.0
Mn4105 Mn 0.20969 0.84347 0.97405 0.0
C4106 C 0.19227 0.85615 0.94724 0.0
C4107 C 0.19999 0.9011 0.94988 0.0
C4108 C 0.18092 0.85788 0.98781 0.0
O4109 O 0.20958 0.88327 0.98107 0.0
O4110 O 0.22147 0.86037 0.98346 0.0
C4111 C 0.23934 0.84739 0.95896 0.0
N4112 N 0.2267 0.83848 0.96052 0.0
C4113 C 0.24182 0.81436 0.95275 0.0
C4114 C 0.25428 0.82558 0.95024 0.0
C4115 C 0.25273 0.84134 0.95285 0.0
C4116 C 0.22623 0.82435 0.95411 0.0
H4117 H 0.23924 0.85928 0.96252 0.0
C4118 C 0.21987 0.87453 0.98693 0.0
O4119 O 0.18887 0.89993 0.95981 0.0
O4120 O 0.20849 0.88902 0.94814 0.0
N4121 N 0.19905 0.82492 0.96743 0.0
C4122 C 0.18735 0.81687 0.9797 0.0
C4123 C 0.18525 0.79677 0.98306 0.0
C4124 C 0.19542 0.78206 0.97349 0.0
C4125 C 0.20922 0.78661 0.95935 0.0
C4126 C 0.21061 0.81625 0.95605 0.0
H4127 H 0.18092 0.82403 0.98748 0.0
O4128 O 0.18375 0.86818 0.9451 0.0
O4129 O 0.20202 0.85725 0.95832 0.0
O4130 O 0.17928 0.86911 0.97841 0.0
O4131 O 0.19241 0.84869 0.98779 0.0
C4132 C 0.22407 0.77657 0.95818 0.0
C4133 C 0.24009 0.78492 0.95573 0.0
H4134 H 0.26593 0.82276 0.94692 0.0
H4135 H 0.26256 0.84881 0.95129 0.0
H4136 H 0.1774 0.79331 0.99207 0.0
H4137 H 0.1943 0.77033 0.97744 0.0
H4138 H 0.22368 0.76443 0.96085 0.0
H4139 H 0.2491 0.77606 0.95559 0.0
Mn4140 Mn 0.62359 0.9539 0.20699 0.0
Mn4141 Mn 0.65933 0.96536 0.21813 0.0
C4142 C 0.64447 0.95086 0.19099 0.0
C4143 C 0.59972 0.95788 0.19435 0.0
C4144 C 0.64609 0.93472 0.22691 0.0
O4145 O 0.61837 0.96812 0.22489 0.0
O4146 O 0.64278 0.97178 0.23259 0.0
C4147 C 0.65335 0.99971 0.21667 0.0
N4148 N 0.66219 0.98734 0.21272 0.0
C4149 C 0.68575 0.00746 0.21196 0.0
C4150 C 0.6751 0.01876 0.21564 0.0
C4151 C 0.65938 0.01493 0.21759 0.0
C4152 C 0.67682 0.98974 0.20932 0.0
H4153 H 0.64142 0.99801 0.21961 0.0
C4154 C 0.62825 0.97326 0.2344 0.0
O4155 O 0.60151 0.94708 0.20451 0.0
O4156 O 0.61146 0.96681 0.19224 0.0
N4157 N 0.67789 0.95922 0.20623 0.0
C4158 C 0.68373 0.94332 0.2038 0.0
C4159 C 0.70149 0.93851 0.20207 0.0
C4160 C 0.72265 0.95931 0.20411 0.0
C4161 C 0.71498 0.976 0.20653 0.0
C4162 C 0.68652 0.97337 0.20667 0.0
H4163 H 0.67562 0.93398 0.20448 0.0
O4164 O 0.63229 0.94244 0.18944 0.0
O4165 O 0.64429 0.96146 0.20159 0.0
O4166 O 0.63233 0.93732 0.2222 0.0
O4167 O 0.65721 0.94402 0.22494 0.0
C4168 C 0.72113 0.99549 0.20914 0.0
C4169 C 0.7064 0.01092 0.21199 0.0
H4170 H 0.67891 0.03045 0.21751 0.0
H4171 H 0.65156 0.02408 0.22076 0.0
H4172 H 0.70239 0.92602 0.20041 0.0
H4173 H 0.73523 0.95884 0.20357 0.0
H4174 H 0.73459 0.99627 0.20883 0.0
H4175 H 0.71541 0.00416 0.21061 0.0
Mn4176 Mn 0.0476 0.37897 0.9631 0.0
Mn4177 Mn 0.03526 0.41445 0.97349 0.0
C4178 C 0.05073 0.39973 0.94697 0.0
C4179 C 0.04484 0.35517 0.94981 0.0
C4180 C 0.06585 0.40205 0.98345 0.0
O4181 O 0.03249 0.37362 0.98037 0.0
O4182 O 0.02901 0.39796 0.98843 0.0
C4183 C 1.00109 0.4074 0.97178 0.0
N4184 N 0.01326 0.4165 0.96782 0.0
C4185 C 0.99243 0.43937 0.96591 0.0
C4186 C 0.9814 0.42851 0.96975 0.0
C4187 C 0.98568 0.41299 0.97226 0.0
C4188 C 0.01047 0.43091 0.9639 0.0
H4189 H 0.00305 0.3956 0.97499 0.0
C4190 C 0.02717 0.38339 0.98996 0.0
O4191 O 0.05503 0.35699 0.96059 0.0
O4192 O 0.03564 0.36667 0.94766 0.0
N4193 N 0.04094 0.43281 0.96089 0.0
C4194 C 0.05664 0.439 0.95807 0.0
C4195 C 0.06082 0.45679 0.95512 0.0
C4196 C 0.0393 0.47732 0.95579 0.0
C4197 C 0.02289 0.46925 0.9587 0.0
C4198 C 0.02651 0.44097 0.96069 0.0
H4199 H 0.06628 0.43129 0.95938 0.0
O4200 O 0.05967 0.38786 0.94606 0.0
O4201 O 0.03978 0.39937 0.95721 0.0
O4202 O 0.06333 0.38815 0.97908 0.0
O4203 O 0.05668 0.41314 0.98064 0.0
C4204 C 0.00319 0.47488 0.96087 0.0
C4205 C 0.98826 0.45985 0.96461 0.0
H4206 H 0.96955 0.43197 0.97114 0.0
H4207 H 0.97671 0.40498 0.97545 0.0
H4208 H 0.07327 0.45799 0.95339 0.0
H4209 H 0.03934 0.48984 0.95445 0.0
H4210 H 0.00198 0.48826 0.95973 0.0
H4211 H 0.99471 0.46898 0.96269 0.0
Mn4212 Mn 0.6249 0.80859 0.54193 0.0
Mn4213 Mn 0.65875 0.79294 0.53118 0.0
C4214 C 0.647 0.8126 0.55687 0.0
C4215 C 0.6019 0.80511 0.5562 0.0
C4216 C 0.64434 0.82082 0.51568 0.0
O4217 O 0.61876 0.79258 0.52523 0.0
O4218 O 0.64151 0.78035 0.52356 0.0
C4219 C 0.65503 0.765 0.54927 0.0
N4220 N 0.66405 0.77723 0.54607 0.0
C4221 C 0.68825 0.76259 0.55431 0.0
C4222 C 0.677 0.75057 0.55839 0.0
C4223 C 0.66115 0.75215 0.55636 0.0
C4224 C 0.67838 0.77812 0.55192 0.0
H4225 H 0.64298 0.76503 0.54633 0.0
C4226 C 0.62723 0.78148 0.52045 0.0
O4227 O 0.60284 0.81534 0.54533 0.0
O4228 O 0.61394 0.79662 0.55817 0.0
N4229 N 0.67756 0.80401 0.53623 0.0
C4230 C 0.68526 0.81447 0.52269 0.0
C4231 C 0.70524 0.81602 0.51844 0.0
C4232 C 0.72019 0.80655 0.52833 0.0
C4233 C 0.71604 0.79412 0.54379 0.0
C4234 C 0.68654 0.7934 0.54829 0.0
H4235 H 0.67791 0.82029 0.51464 0.0
O4236 O 0.63506 0.82132 0.55864 0.0
O4237 O 0.64551 0.80203 0.54661 0.0
O4238 O 0.63335 0.82321 0.52522 0.0
O4239 O 0.65319 0.80905 0.51609 0.0
C4240 C 0.72598 0.77927 0.54588 0.0
C4241 C 0.71756 0.76362 0.55005 0.0
H4242 H 0.67981 0.73922 0.5626 0.0
H4243 H 0.65362 0.74265 0.5592 0.0
H4244 H 0.70844 0.823 0.50866 0.0
H4245 H 0.73178 0.80717 0.52388 0.0
H4246 H 0.73801 0.77926 0.54274 0.0
H4247 H 0.72632 0.75452 0.55066 0.0
Mn4248 Mn 0.20018 0.87684 0.79607 0.0
Mn4249 Mn 0.21306 0.9117 0.78435 0.0
C4250 C 0.19708 0.89808 0.81188 0.0
C4251 C 0.20566 0.85346 0.80838 0.0
C4252 C 0.18412 0.89605 0.7723 0.0
O4253 O 0.21372 0.87208 0.7773 0.0
O4254 O 0.22554 0.89509 0.77513 0.0
C4255 C 0.24373 0.91073 0.7983 0.0
N4256 N 0.23019 0.91832 0.79734 0.0
C4257 C 0.24335 0.94373 0.80559 0.0
C4258 C 0.25678 0.93364 0.80763 0.0
C4259 C 0.25662 0.91789 0.80438 0.0
C4260 C 0.22863 0.93234 0.80398 0.0
H4261 H 0.24476 0.89902 0.79435 0.0
C4262 C 0.22379 0.88099 0.77136 0.0
O4263 O 0.19427 0.8547 0.79879 0.0
O4264 O 0.21425 0.8655 0.8101 0.0
N4265 N 0.20152 0.92976 0.79077 0.0
C4266 C 0.18921 0.93708 0.77863 0.0
C4267 C 0.18531 0.95699 0.77579 0.0
C4268 C 0.19417 0.97228 0.78573 0.0
C4269 C 0.20835 0.96859 0.79974 0.0
C4270 C 0.21235 0.93912 0.80229 0.0
H4271 H 0.18379 0.92971 0.77035 0.0
O4272 O 0.18925 0.88564 0.81436 0.0
O4273 O 0.20666 0.89758 0.80056 0.0
O4274 O 0.18334 0.88508 0.78198 0.0
O4275 O 0.19555 0.90527 0.77114 0.0
C4276 C 0.2222 0.97986 0.80116 0.0
C4277 C 0.23888 0.97293 0.80336 0.0
H4278 H 0.26812 0.93745 0.81103 0.0
H4279 H 0.26715 0.91134 0.80552 0.0
H4280 H 0.17727 0.95997 0.76679 0.0
H4281 H 0.19203 0.98397 0.78208 0.0
H4282 H 0.22072 0.99198 0.79881 0.0
H4283 H 0.24701 0.9826 0.80365 0.0
Mn4284 Mn 0.55026 0.37546 0.29577 0.0
Mn4285 Mn 0.53973 0.33935 0.28606 0.0
C4286 C 0.55391 0.35531 0.31258 0.0
C4287 C 0.54559 0.39936 0.30744 0.0
C4288 C 0.57012 0.35281 0.27704 0.0
O4289 O 0.53592 0.37979 0.27772 0.0
O4290 O 0.53312 0.35513 0.27073 0.0
C4291 C 0.50543 0.34569 0.28823 0.0
N4292 N 0.51786 0.33676 0.29163 0.0
C4293 C 0.49772 0.31342 0.29373 0.0
C4294 C 0.48635 0.32411 0.29084 0.0
C4295 C 0.49013 0.33983 0.28859 0.0
C4296 C 0.51549 0.32232 0.29558 0.0
H4297 H 0.50709 0.35758 0.2851 0.0
C4298 C 0.53112 0.36954 0.26844 0.0
O4299 O 0.55652 0.39764 0.2974 0.0
O4300 O 0.53695 0.38751 0.30995 0.0
N4301 N 0.54593 0.32133 0.2988 0.0
C4302 C 0.56179 0.31557 0.30163 0.0
C4303 C 0.56647 0.2979 0.30458 0.0
C4304 C 0.54549 0.27683 0.30397 0.0
C4305 C 0.52891 0.28443 0.30103 0.0
C4306 C 0.53175 0.31275 0.29886 0.0
H4307 H 0.57116 0.32358 0.30055 0.0
O4308 O 0.56203 0.36773 0.31363 0.0
O4309 O 0.54329 0.35491 0.30202 0.0
O4310 O 0.56701 0.36667 0.28098 0.0
O4311 O 0.56112 0.34148 0.27939 0.0
C4312 C 0.5094 0.27825 0.29892 0.0
C4313 C 0.49407 0.29285 0.29513 0.0
H4314 H 0.47462 0.32023 0.29058 0.0
H4315 H 0.48088 0.34783 0.28653 0.0
H4316 H 0.57895 0.29702 0.30634 0.0
H4317 H 0.54585 0.26432 0.30536 0.0
H4318 H 0.50862 0.26486 0.30017 0.0
H4319 H 0.50075 0.28389 0.29708 0.0
Mn4320 Mn 0.46022 0.87223 0.04987 0.0
Mn4321 Mn 0.4706 0.90699 0.03596 0.0
C4322 C 0.44334 0.89268 0.05126 0.0
C4323 C 0.448 0.84825 0.04707 0.0
C4324 C 0.4795 0.89619 0.06775 0.0
O4325 O 0.47841 0.86644 0.03625 0.0
O4326 O 0.48555 0.89059 0.03044 0.0
C4327 C 0.47023 0.90002 1.00166 0.0
N4328 N 0.46544 0.90885 0.01374 0.0
C4329 C 0.46365 0.93192 0.99297 0.0
C4330 C 0.46824 0.92125 0.98202 0.0
C4331 C 0.47113 0.90577 0.9863 0.0
C4332 C 0.46144 0.92327 0.01088 0.0
H4333 H 0.47389 0.88834 0.00371 0.0
C4334 C 0.48764 0.87604 0.03015 0.0
O4335 O 0.45791 0.85065 0.058 0.0
O4336 O 0.44609 0.85933 0.03734 0.0
N4337 N 0.45775 0.9248 0.04117 0.0
C4338 C 0.45453 0.93052 0.05684 0.0
C4339 C 0.45118 0.94793 0.06124 0.0
C4340 C 0.45165 0.96906 0.04023 0.0
C4341 C 0.45508 0.96133 0.02362 0.0
C4342 C 0.45772 0.93309 0.02688 0.0
H4343 H 0.45558 0.92261 0.0663 0.0
O4344 O 0.4423 0.88109 0.06053 0.0
O4345 O 0.45417 0.89211 0.04078 0.0
O4346 O 0.47488 0.88226 0.06624 0.0
O4347 O 0.47757 0.9064 0.05744 0.0
C4348 C 0.45751 0.96725 0.00399 0.0
C4349 C 0.46193 0.95244 0.98895 0.0
H4350 H 0.47002 0.92485 0.97024 0.0
H4351 H 0.47498 0.89795 0.97741 0.0
H4352 H 0.44928 0.94873 0.07371 0.0
H4353 H 0.44992 0.98153 0.04061 0.0
H4354 H 0.45603 0.9806 0.00287 0.0
H4355 H 0.45964 0.96147 0.99544 0.0
Mn4356 Mn 0.62792 0.71114 0.80745 0.0
Mn4357 Mn 0.59452 0.7217 0.79101 0.0
C4358 C 0.60617 0.69563 0.81039 0.0
C4359 C 0.65119 0.69762 0.80378 0.0
C4360 C 0.60791 0.73669 0.81968 0.0
O4361 O 0.63399 0.72877 0.79268 0.0
O4362 O 0.61197 0.73 0.77912 0.0
C4363 C 0.59921 0.70449 0.76264 0.0
N4364 N 0.5899 0.70707 0.77482 0.0
C4365 C 0.56629 0.69796 0.75966 0.0
C4366 C 0.57791 0.69445 0.74781 0.0
C4367 C 0.5936 0.69726 0.74962 0.0
C4368 C 0.57578 0.70066 0.7754 0.0
H4369 H 0.61109 0.70804 0.76281 0.0
C4370 C 0.6259 0.73391 0.7815 0.0
O4371 O 0.64986 0.70797 0.81451 0.0
O4372 O 0.63937 0.69579 0.79496 0.0
N4373 N 0.57552 0.71616 0.8014 0.0
C4374 C 0.56715 0.72938 0.81177 0.0
C4375 C 0.547 0.73293 0.81296 0.0
C4376 C 0.5326 0.72255 0.80316 0.0
C4377 C 0.53755 0.70731 0.79072 0.0
C4378 C 0.56719 0.70389 0.79055 0.0
H4379 H 0.57414 0.73766 0.81775 0.0
O4380 O 0.61797 0.69376 0.81928 0.0
O4381 O 0.60765 0.70628 0.8002 0.0
O4382 O 0.61875 0.72709 0.82239 0.0
O4383 O 0.59945 0.73646 0.80761 0.0
C4384 C 0.52798 0.70491 0.77569 0.0
C4385 C 0.53684 0.70111 0.76018 0.0
H4386 H 0.57548 0.69015 0.7364 0.0
H4387 H 0.60139 0.6949 0.74019 0.0
H4388 H 0.54333 0.74255 0.81993 0.0
H4389 H 0.52084 0.72658 0.80359 0.0
H4390 H 0.51584 0.70761 0.77547 0.0
H4391 H 0.52828 0.70022 0.75092 0.0
Mn4392 Mn 0.79619 0.87757 0.55118 0.0
Mn4393 Mn 0.78757 0.84231 0.53751 0.0
C4394 C 0.81279 0.85691 0.55476 0.0
C4395 C 0.80874 0.90174 0.5485 0.0
C4396 C 0.77535 0.85355 0.56761 0.0
O4397 O 0.77879 0.8829 0.53595 0.0
O4398 O 0.77277 0.85832 0.53124 0.0
C4399 C 0.79377 0.85258 0.50469 0.0
N4400 N 0.79533 0.84207 0.5162 0.0
C4401 C 0.79918 0.82116 0.49388 0.0
C4402 C 0.79872 0.83343 0.48363 0.0
C4403 C 0.79635 0.84866 0.48899 0.0
C4404 C 0.79944 0.82797 0.51262 0.0
H4405 H 0.79062 0.86427 0.50745 0.0
C4406 C 0.76997 0.87266 0.53019 0.0
O4407 O 0.79799 0.89964 0.55869 0.0
O4408 O 0.81144 0.89022 0.53952 0.0
N4409 N 0.79968 0.82373 0.54295 0.0
C4410 C 0.80075 0.81632 0.55832 0.0
C4411 C 0.80271 0.79821 0.56136 0.0
C4412 C 0.80357 0.77934 0.53835 0.0
C4413 C 0.80242 0.78869 0.52236 0.0
C4414 C 0.80086 0.81665 0.52798 0.0
H4415 H 0.7988 0.82338 0.56836 0.0
O4416 O 0.81335 0.86878 0.5637 0.0
O4417 O 0.80293 0.85744 0.54358 0.0
O4418 O 0.77993 0.86754 0.56595 0.0
O4419 O 0.77882 0.84267 0.55836 0.0
C4420 C 0.80201 0.78468 0.50209 0.0
C4421 C 0.80024 0.80101 0.48812 0.0
H4422 H 0.80053 0.83144 0.4715 0.0
H4423 H 0.79585 0.8578 0.48057 0.0
H4424 H 0.80319 0.79603 0.57379 0.0
H4425 H 0.80458 0.76681 0.53757 0.0
H4426 H 0.80289 0.77142 0.49989 0.0
H4427 H 0.8012 0.7913 0.49393 0.0
Mn4428 Mn 0.62684 0.04164 0.30545 0.0
Mn4429 Mn 0.66118 0.03032 0.29082 0.0
C4430 C 0.64839 0.0571 0.30835 0.0
C4431 C 0.60357 0.05501 0.30104 0.0
C4432 C 0.64661 0.01672 0.31972 0.0
O4433 O 0.6212 0.0239 0.29089 0.0
O4434 O 0.6441 0.02104 0.27893 0.0
C4435 C 0.65881 0.04452 0.26036 0.0
N4436 N 0.6669 0.0436 0.27361 0.0
C4437 C 0.6918 0.05183 0.25947 0.0
C4438 C 0.68122 0.05377 0.24641 0.0
C4439 C 0.66548 0.05054 0.24717 0.0
C4440 C 0.68096 0.05021 0.27461 0.0
H4441 H 0.64708 0.04055 0.25978 0.0
C4442 C 0.6298 0.01796 0.28053 0.0
O4443 O 0.60476 0.04492 0.312 0.0
O4444 O 0.61555 0.05671 0.29238 0.0
N4445 N 0.6795 0.03701 0.30183 0.0
C4446 C 0.68736 0.02508 0.31399 0.0
C4447 C 0.70744 0.02246 0.31717 0.0
C4448 C 0.72229 0.03251 0.30771 0.0
C4449 C 0.71794 0.0464 0.2936 0.0
C4450 C 0.68834 0.04863 0.29065 0.0
H4451 H 0.68019 0.01705 0.32006 0.0
O4452 O 0.63643 0.05917 0.31701 0.0
O4453 O 0.64731 0.04621 0.29834 0.0
O4454 O 0.63541 0.02615 0.32128 0.0
O4455 O 0.65573 0.01663 0.30816 0.0
C4456 C 0.72869 0.04789 0.27934 0.0
C4457 C 0.72115 0.04991 0.26291 0.0
H4458 H 0.68459 0.05709 0.23491 0.0
H4459 H 0.65854 0.05164 0.23689 0.0
H4460 H 0.71081 0.01362 0.32524 0.0
H4461 H 0.73409 0.029 0.30946 0.0
H4462 H 0.74088 0.04582 0.28042 0.0
H4463 H 0.73053 0.05026 0.25443 0.0
Mn4464 Mn 0.45854 0.87795 0.70348 0.0
Mn4465 Mn 0.46838 0.84235 0.71622 0.0
C4466 C 0.44178 0.85759 0.70132 0.0
C4467 C 0.44623 0.90208 0.70621 0.0
C4468 C 0.47767 0.85418 0.68515 0.0
O4469 O 0.47652 0.88314 0.71764 0.0
O4470 O 0.48354 0.85863 0.72216 0.0
C4471 C 0.4675 0.84914 0.75042 0.0
N4472 N 0.463 0.84024 0.73829 0.0
C4473 C 0.46167 0.8171 0.75888 0.0
C4474 C 0.46594 0.8278 0.76991 0.0
C4475 C 0.46843 0.84336 0.76575 0.0
C4476 C 0.4591 0.82579 0.74101 0.0
H4477 H 0.4709 0.8609 0.74845 0.0
C4478 C 0.48573 0.87318 0.7232 0.0
O4479 O 0.45654 0.89972 0.69566 0.0
O4480 O 0.44402 0.89088 0.71577 0.0
N4481 N 0.45559 0.82421 0.71056 0.0
C4482 C 0.45263 0.81819 0.69481 0.0
C4483 C 0.4501 0.8004 0.69039 0.0
C4484 C 0.45164 0.77961 0.71161 0.0
C4485 C 0.45462 0.78752 0.72807 0.0
C4486 C 0.45583 0.81587 0.72487 0.0
H4487 H 0.4534 0.8261 0.68531 0.0
O4488 O 0.44081 0.86937 0.69227 0.0
O4489 O 0.4524 0.85782 0.7119 0.0
O4490 O 0.47356 0.86819 0.6873 0.0
O4491 O 0.4752 0.84349 0.69482 0.0
C4492 C 0.4573 0.78165 0.74762 0.0
C4493 C 0.46095 0.79653 0.76273 0.0
H4494 H 0.46786 0.82414 0.78165 0.0
H4495 H 0.47205 0.85121 0.7747 0.0
H4496 H 0.44817 0.79932 0.67795 0.0
H4497 H 0.4506 0.76706 0.71141 0.0
H4498 H 0.45656 0.76825 0.74853 0.0
H4499 H 0.45913 0.78745 0.75618 0.0
Mn4500 Mn 0.62558 0.71114 0.45103 0.0
Mn4501 Mn 0.66048 0.7226 0.46428 0.0
C4502 C 0.64697 0.69549 0.44754 0.0
C4503 C 0.60218 0.69821 0.45565 0.0
C4504 C 0.64505 0.73523 0.43536 0.0
O4505 O 0.62053 0.72925 0.46557 0.0
O4506 O 0.64367 0.73146 0.47715 0.0
C4507 C 0.6597 0.70785 0.49466 0.0
N4508 N 0.66721 0.70917 0.48111 0.0
C4509 C 0.69269 0.70038 0.49391 0.0
C4510 C 0.68267 0.69812 0.50736 0.0
C4511 C 0.66693 0.70142 0.50736 0.0
C4512 C 0.6812 0.70247 0.47931 0.0
H4513 H 0.64799 0.71175 0.49583 0.0
C4514 C 0.62932 0.73473 0.47605 0.0
O4515 O 0.60347 0.70833 0.44475 0.0
O4516 O 0.61413 0.69637 0.46437 0.0
N4517 N 0.67857 0.71633 0.45255 0.0
C4518 C 0.68596 0.72863 0.44045 0.0
C4519 C 0.70587 0.7313 0.43645 0.0
C4520 C 0.7211 0.72097 0.44495 0.0
C4521 C 0.71735 0.7067 0.45885 0.0
C4522 C 0.68788 0.70442 0.46302 0.0
H4523 H 0.67869 0.73721 0.43538 0.0
O4524 O 0.63463 0.69335 0.43948 0.0
O4525 O 0.64636 0.70647 0.45752 0.0
O4526 O 0.63386 0.7258 0.43463 0.0
O4527 O 0.65417 0.73624 0.44692 0.0
C4528 C 0.72872 0.70482 0.47257 0.0
C4529 C 0.72189 0.70235 0.48925 0.0
H4530 H 0.68653 0.69445 0.51859 0.0
H4531 H 0.66042 0.70001 0.51788 0.0
H4532 H 0.70889 0.74044 0.42858 0.0
H4533 H 0.73281 0.72452 0.44279 0.0
H4534 H 0.74086 0.70706 0.47103 0.0
H4535 H 0.73162 0.70175 0.49731 0.0
Mn4536 Mn 0.7935 0.87505 0.20463 0.0
Mn4537 Mn 0.78298 0.9109 0.21576 0.0
C4538 C 0.80978 0.89555 0.2012 0.0
C4539 C 0.80592 0.85134 0.20883 0.0
C4540 C 0.77406 0.89758 0.18523 0.0
O4541 O 0.77564 0.87018 0.21894 0.0
O4542 O 0.76807 0.89468 0.22217 0.0
C4543 C 0.78417 0.90503 0.25017 0.0
N4544 N 0.78839 0.91367 0.23776 0.0
C4545 C 0.79048 0.93716 0.25791 0.0
C4546 C 0.78637 0.9267 0.26923 0.0
C4547 C 0.78364 0.9111 0.26541 0.0
C4548 C 0.79245 0.92813 0.24013 0.0
H4549 H 0.7807 0.89323 0.24852 0.0
C4550 C 0.76615 0.88018 0.22385 0.0
O4551 O 0.79572 0.85296 0.19803 0.0
O4552 O 0.80808 0.86312 0.21768 0.0
N4553 N 0.79541 0.92908 0.20959 0.0
C4554 C 0.79804 0.93479 0.19367 0.0
C4555 C 0.80074 0.95244 0.18889 0.0
C4556 C 0.80008 0.97364 0.20976 0.0
C4557 C 0.79736 0.96608 0.22645 0.0
C4558 C 0.79553 0.93769 0.22375 0.0
H4559 H 0.79691 0.92674 0.18432 0.0
O4560 O 0.81104 0.88326 0.1929 0.0
O4561 O 0.79929 0.89566 0.21193 0.0
O4562 O 0.7784 0.88376 0.18803 0.0
O4563 O 0.77626 0.9088 0.1944 0.0
C4564 C 0.79528 0.97233 0.24598 0.0
C4565 C 0.7917 0.95776 0.26141 0.0
H4566 H 0.78482 0.93059 0.28095 0.0
H4567 H 0.78021 0.90343 0.27459 0.0
H4568 H 0.80236 0.95326 0.17638 0.0
H4569 H 0.80135 0.98616 0.20931 0.0
H4570 H 0.79638 0.98575 0.24679 0.0
H4571 H 0.79354 0.96669 0.25466 0.0
Mn4572 Mn 0.62796 0.04064 0.94674 0.0
Mn4573 Mn 0.59416 0.03156 0.96324 0.0
C4574 C 0.60645 0.05628 0.94256 0.0
C4575 C 0.65129 0.05406 0.9505 0.0
C4576 C 0.60741 0.01497 0.93532 0.0
O4577 O 0.63377 0.02396 0.96269 0.0
O4578 O 0.61141 0.02353 0.97563 0.0
C4579 C 0.59947 0.05031 0.99051 0.0
N4580 N 0.58997 0.04715 0.97862 0.0
C4581 C 0.56676 0.05785 0.99329 0.0
C4582 C 0.57855 0.06176 0.00484 0.0
C4583 C 0.59416 0.05848 0.00309 0.0
C4584 C 0.57607 0.05397 0.97771 0.0
H4585 H 0.61129 0.04655 0.99042 0.0
C4586 C 0.6255 0.01978 0.97411 0.0
O4587 O 0.65016 0.04333 0.94011 0.0
O4588 O 0.6392 0.05647 0.95875 0.0
N4589 N 0.57525 0.03704 0.95262 0.0
C4590 C 0.56649 0.02348 0.94308 0.0
C4591 C 0.54624 0.02042 0.94219 0.0
C4592 C 0.53217 0.03173 0.95145 0.0
C4593 C 0.53759 0.04752 0.96296 0.0
C4594 C 0.56731 0.05014 0.9628 0.0
H4595 H 0.57323 0.01468 0.93756 0.0
O4596 O 0.61842 0.05748 0.93379 0.0
O4597 O 0.60763 0.04617 0.95331 0.0
O4598 O 0.61873 0.02402 0.93254 0.0
O4599 O 0.59876 0.01594 0.94725 0.0
C4600 C 0.52818 0.05104 0.97789 0.0
C4601 C 0.53724 0.05548 0.99311 0.0
H4602 H 0.57632 0.06679 0.016 0.0
H4603 H 0.6021 0.06127 0.01227 0.0
H4604 H 0.54228 0.01052 0.9358 0.0
H4605 H 0.52031 0.028 0.95131 0.0
H4606 H 0.51598 0.0487 0.97833 0.0
H4607 H 0.52877 0.05716 0.00235 0.0
Mn4608 Mn 0.05185 0.95676 0.37705 0.0
Mn4609 Mn 0.03798 0.96622 0.41198 0.0
C4610 C 0.05555 0.94074 0.39795 0.0
C4611 C 0.04881 0.94437 0.35315 0.0
C4612 C 0.06814 0.97813 0.40049 0.0
O4613 O 0.03669 0.97375 0.37127 0.0
O4614 O 0.03149 0.98068 0.39553 0.0
C4615 C 0.00513 0.95947 0.40204 0.0
N4616 N 0.01674 0.95829 0.4125 0.0
C4617 C 0.99461 0.95422 0.43357 0.0
C4618 C 0.98433 0.95411 0.42137 0.0
C4619 C 0.98954 0.95647 0.40607 0.0
C4620 C 0.01331 0.95428 0.42668 0.0
H4621 H 0.00775 0.9625 0.39028 0.0
C4622 C 0.03063 0.98282 0.38102 0.0
O4623 O 0.0592 0.95495 0.3551 0.0
O4624 O 0.04008 0.94148 0.36483 0.0
N4625 N 0.04362 0.95447 0.43079 0.0
C4626 C 0.05902 0.95358 0.43814 0.0
C4627 C 0.06216 0.9516 0.45625 0.0
C4628 C 0.03926 0.95038 0.47521 0.0
C4629 C 0.02324 0.95133 0.46592 0.0
C4630 C 0.02872 0.95306 0.43794 0.0
H4631 H 0.06901 0.95564 0.43105 0.0
O4632 O 0.06444 0.93989 0.38605 0.0
O4633 O 0.04426 0.9505 0.39726 0.0
O4634 O 0.06659 0.97317 0.38664 0.0
O4635 O 0.05875 0.97511 0.41138 0.0
C4636 C 0.003 0.95141 0.47002 0.0
C4637 C 0.98895 0.95301 0.45374 0.0
H4638 H 0.97244 0.95143 0.42352 0.0
H4639 H 0.9811 0.95638 0.39695 0.0
H4640 H 0.07461 0.95128 0.45838 0.0
H4641 H 0.03855 0.94932 0.48775 0.0
H4642 H 1.00088 0.95046 0.48329 0.0
H4643 H 0.99481 0.95212 0.46343 0.0
Mn4644 Mn 0.54456 0.30316 0.12858 0.0
Mn4645 Mn 0.53608 0.29013 0.1639 0.0
C4646 C 0.56123 0.30721 0.14898 0.0
C4647 C 0.55651 0.29978 0.10444 0.0
C4648 C 0.52405 0.32003 0.15245 0.0
O4649 O 0.52748 0.28773 0.12355 0.0
O4650 O 0.5209 0.28398 0.14811 0.0
C4651 C 0.54145 0.25716 0.1536 0.0
N4652 N 0.54342 0.26868 0.16404 0.0
C4653 C 0.54789 0.24637 0.18482 0.0
C4654 C 0.5468 0.23611 0.17262 0.0
C4655 C 0.5439 0.24145 0.15748 0.0
C4656 C 0.54792 0.2651 0.178 0.0
H4657 H 0.53812 0.2599 0.14196 0.0
C4658 C 0.51841 0.28245 0.13375 0.0
O4659 O 0.54591 0.31015 0.10642 0.0
O4660 O 0.55962 0.29124 0.1162 0.0
N4661 N 0.54861 0.29544 0.18225 0.0
C4662 C 0.55012 0.31078 0.18963 0.0
C4663 C 0.55298 0.31378 0.20766 0.0
C4664 C 0.55463 0.29074 0.22641 0.0
C4665 C 0.55294 0.2748 0.21709 0.0
C4666 C 0.54998 0.28046 0.18925 0.0
H4667 H 0.54795 0.32085 0.18268 0.0
O4668 O 0.56164 0.31598 0.13696 0.0
O4669 O 0.55146 0.29592 0.14869 0.0
O4670 O 0.52828 0.31797 0.13841 0.0
O4671 O 0.52777 0.3111 0.16351 0.0
C4672 C 0.55267 0.25457 0.22109 0.0
C4673 C 0.54999 0.24062 0.20488 0.0
H4674 H 0.54883 0.22405 0.17455 0.0
H4675 H 0.54308 0.23304 0.14835 0.0
H4676 H 0.55365 0.32621 0.20984 0.0
H4677 H 0.55626 0.28993 0.23888 0.0
H4678 H 0.55435 0.25244 0.23427 0.0
H4679 H 0.55148 0.24642 0.21453 0.0
Mn4680 Mn 0.20518 0.79483 0.87947 0.0
Mn4681 Mn 0.21707 0.78576 0.91526 0.0
C4682 C 0.20054 0.81118 0.89989 0.0
C4683 C 0.20852 0.80708 0.85561 0.0
C4684 C 0.18767 0.77383 0.90219 0.0
O4685 O 0.22079 0.77798 0.87467 0.0
O4686 O 0.22442 0.77104 0.89925 0.0
C4687 C 0.25098 0.79092 0.90821 0.0
N4688 N 0.23848 0.79308 0.91744 0.0
C4689 C 0.25881 0.79677 0.94043 0.0
C4690 C 0.27017 0.79549 0.92939 0.0
C4691 C 0.2663 0.79295 0.91373 0.0
C4692 C 0.24079 0.79712 0.93186 0.0
H4693 H 0.24935 0.78767 0.89634 0.0
C4694 C 0.22621 0.76889 0.88479 0.0
O4695 O 0.19845 0.79618 0.85737 0.0
O4696 O 0.21705 0.81019 0.8674 0.0
N4697 N 0.21024 0.798 0.93336 0.0
C4698 C 0.19429 0.79965 0.93932 0.0
C4699 C 0.18969 0.80245 0.95701 0.0
C4700 C 0.21093 0.80369 0.97781 0.0
C4701 C 0.22762 0.80189 0.96997 0.0
C4702 C 0.2245 0.79923 0.9417 0.0
H4703 H 0.18489 0.79763 0.93147 0.0
O4704 O 0.19207 0.8116 0.88766 0.0
O4705 O 0.21194 0.80148 0.89995 0.0
O4706 O 0.19014 0.77839 0.88838 0.0
O4707 O 0.19629 0.7772 0.91355 0.0
C4708 C 0.24738 0.80132 0.97583 0.0
C4709 C 0.26272 0.79861 0.96095 0.0
H4710 H 0.28195 0.79705 0.93287 0.0
H4711 H 0.27557 0.79206 0.90551 0.0
H4712 H 0.17713 0.80325 0.95805 0.0
H4713 H 0.21062 0.80525 0.9903 0.0
H4714 H 0.24833 0.80275 0.98919 0.0
H4715 H 0.25607 0.80009 0.97003 0.0
Mn4716 Mn 0.70907 0.45433 0.62785 0.0
Mn4717 Mn 0.71846 0.46452 0.6642 0.0
C4718 C 0.69215 0.45026 0.64789 0.0
C4719 C 0.69769 0.45914 0.60384 0.0
C4720 C 0.72811 0.43452 0.65025 0.0
O4721 O 0.72699 0.46887 0.62381 0.0
O4722 O 0.73373 0.47172 0.64856 0.0
C4723 C 0.71552 0.49889 0.65867 0.0
N4724 N 0.7125 0.48621 0.66734 0.0
C4725 C 0.71025 0.50573 0.69124 0.0
C4726 C 0.71278 0.51741 0.68078 0.0
C4727 C 0.71479 0.51403 0.66491 0.0
C4728 C 0.70864 0.48817 0.68188 0.0
H4729 H 0.71856 0.49755 0.6467 0.0
C4730 C 0.7361 0.47378 0.63416 0.0
O4731 O 0.7078 0.44829 0.6056 0.0
O4732 O 0.69486 0.4676 0.61578 0.0
N4733 N 0.70576 0.45771 0.68202 0.0
C4734 C 0.70307 0.44167 0.68731 0.0
C4735 C 0.70006 0.43648 0.7048 0.0
C4736 C 0.70029 0.45684 0.72651 0.0
C4737 C 0.70313 0.4737 0.7194 0.0
C4738 C 0.70549 0.47165 0.691 0.0
H4739 H 0.70433 0.43254 0.67903 0.0
O4740 O 0.69128 0.44229 0.63534 0.0
O4741 O 0.7026 0.46097 0.6485 0.0
O4742 O 0.72402 0.43768 0.63645 0.0
O4743 O 0.72559 0.44332 0.66169 0.0
C4744 C 0.70502 0.4931 0.72611 0.0
C4745 C 0.70873 0.50885 0.71191 0.0
H4746 H 0.71286 0.52909 0.68491 0.0
H4747 H 0.71633 0.52348 0.65703 0.0
H4748 H 0.69842 0.42397 0.7053 0.0
H4749 H 0.69873 0.4561 0.73898 0.0
H4750 H 0.70372 0.4936 0.73953 0.0
H4751 H 0.70681 0.50192 0.72069 0.0
Mn4752 Mn 0.04965 0.7954 0.37796 0.0
Mn4753 Mn 0.03654 0.78512 0.34256 0.0
C4754 C 0.05129 0.81204 0.3574 0.0
C4755 C 0.04751 0.80718 0.40229 0.0
C4756 C 0.06796 0.77658 0.35412 0.0
O4757 O 0.03581 0.77728 0.38344 0.0
O4758 O 0.03106 0.77008 0.35905 0.0
C4759 C 0.00254 0.78603 0.3503 0.0
N4760 N 0.01439 0.79033 0.34094 0.0
C4761 C 0.99309 0.79137 0.31846 0.0
C4762 C 0.9824 0.78727 0.32957 0.0
C4763 C 0.98704 0.78503 0.34503 0.0
C4764 C 0.0112 0.79412 0.32655 0.0
H4765 H 0.00488 0.78285 0.36206 0.0
C4766 C 0.03021 0.76796 0.37361 0.0
O4767 O 0.05805 0.79702 0.39943 0.0
O4768 O 0.03764 0.80969 0.39138 0.0
N4769 N 0.0416 0.7976 0.324 0.0
C4770 C 0.05715 0.80035 0.31739 0.0
C4771 C 0.06103 0.80235 0.2994 0.0
C4772 C 0.03917 0.80027 0.27931 0.0
C4773 C 0.02297 0.79757 0.28779 0.0
C4774 C 0.02704 0.79713 0.31608 0.0
H4775 H 0.06688 0.79978 0.32502 0.0
O4776 O 0.06045 0.81327 0.36908 0.0
O4777 O 0.04086 0.80131 0.35787 0.0
O4778 O 0.0658 0.78072 0.36808 0.0
O4779 O 0.05813 0.77863 0.34345 0.0
C4780 C 0.00325 0.79478 0.28258 0.0
C4781 C 0.98862 0.79156 0.29802 0.0
H4782 H 0.97057 0.78525 0.3263 0.0
H4783 H 0.97835 0.78155 0.35323 0.0
H4784 H 0.07342 0.80422 0.29787 0.0
H4785 H 0.03898 0.80093 0.26673 0.0
H4786 H 0.00183 0.79522 0.26918 0.0
H4787 H 0.9949 0.79313 0.2887 0.0
Mn4788 Mn 0.70932 0.30692 0.1255 0.0
Mn4789 Mn 0.71947 0.29127 0.09134 0.0
C4790 C 0.69342 0.30985 0.10425 0.0
C4791 C 0.69681 0.30376 0.14934 0.0
C4792 C 0.7347 0.31933 0.10578 0.0
O4793 O 0.72696 0.29197 0.13069 0.0
O4794 O 0.72762 0.27856 0.10839 0.0
C4795 C 0.70366 0.26162 0.09279 0.0
N4796 N 0.70536 0.27498 0.08503 0.0
C4797 C 0.69792 0.26161 0.05944 0.0
C4798 C 0.6952 0.24839 0.06964 0.0
C4799 C 0.69765 0.24875 0.08554 0.0
C4800 C 0.69953 0.27646 0.07066 0.0
H4801 H 0.70707 0.2607 0.10469 0.0
C4802 C 0.7318 0.28084 0.12233 0.0
O4803 O 0.70728 0.31423 0.14739 0.0
O4804 O 0.69427 0.29474 0.13776 0.0
N4805 N 0.7136 0.30314 0.07321 0.0
C4806 C 0.72611 0.31514 0.06603 0.0
C4807 C 0.72948 0.3187 0.04613 0.0
C4808 C 0.71967 0.30989 0.03074 0.0
C4809 C 0.70524 0.29611 0.03428 0.0
C4810 C 0.70192 0.29256 0.06372 0.0
H4811 H 0.73404 0.32084 0.07356 0.0
O4812 O 0.69181 0.31875 0.11611 0.0
O4813 O 0.70401 0.29953 0.1053 0.0
O4814 O 0.7249 0.32207 0.11635 0.0
O4815 O 0.73438 0.30739 0.09721 0.0
C4816 C 0.70375 0.28214 0.02314 0.0
C4817 C 0.70099 0.26562 0.03023 0.0
H4818 H 0.69177 0.23705 0.06588 0.0
H4819 H 0.69596 0.23837 0.0922 0.0
H4820 H 0.73865 0.32658 0.04325 0.0
H4821 H 0.72361 0.31183 0.01911 0.0
H4822 H 0.70643 0.28341 0.01106 0.0
H4823 H 0.70074 0.25736 0.02065 0.0
Mn4824 Mn 0.20297 0.96036 0.87903 0.0
Mn4825 Mn 0.21609 0.96974 0.84341 0.0
C4826 C 0.20101 0.94338 0.85889 0.0
C4827 C 0.2054 0.94844 0.90332 0.0
C4828 C 0.18486 0.97914 0.85491 0.0
O4829 O 0.21716 0.9783 0.88411 0.0
O4830 O 0.22207 0.98494 0.85956 0.0
C4831 C 0.25029 0.96876 0.85026 0.0
N4832 N 0.23815 0.96425 0.84138 0.0
C4833 C 0.25877 0.96262 0.81824 0.0
C4834 C 0.2698 0.96694 0.82893 0.0
C4835 C 0.26562 0.96958 0.84448 0.0
C4836 C 0.24089 0.96024 0.82694 0.0
H4837 H 0.24831 0.97225 0.862 0.0
C4838 C 0.22301 0.98726 0.87409 0.0
O4839 O 0.1949 0.95873 0.90071 0.0
O4840 O 0.2151 0.94603 0.89227 0.0
N4841 N 0.21045 0.9568 0.8254 0.0
C4842 C 0.19471 0.95381 0.81942 0.0
C4843 C 0.19029 0.95106 0.80169 0.0
C4844 C 0.21151 0.95219 0.78086 0.0
C4845 C 0.22799 0.95525 0.78871 0.0
C4846 C 0.22477 0.95689 0.81706 0.0
H4847 H 0.18524 0.95468 0.82734 0.0
O4848 O 0.19184 0.94256 0.87059 0.0
O4849 O 0.21161 0.95397 0.85906 0.0
O4850 O 0.18686 0.97517 0.86898 0.0
O4851 O 0.19471 0.97668 0.84437 0.0
C4852 C 0.24758 0.95777 0.78281 0.0
C4853 C 0.26266 0.96159 0.79768 0.0
H4854 H 0.28154 0.96875 0.82527 0.0
H4855 H 0.27457 0.97322 0.85232 0.0
H4856 H 0.17785 0.94917 0.80064 0.0
H4857 H 0.2113 0.95097 0.76832 0.0
H4858 H 0.24864 0.95674 0.7694 0.0
H4859 H 0.25612 0.95965 0.78862 0.0
Mn4860 Mn 0.54374 0.45045 0.62516 0.0
Mn4861 Mn 0.5338 0.4666 0.59117 0.0
C4862 C 0.55993 0.44804 0.60409 0.0
C4863 C 0.55619 0.4532 0.64921 0.0
C4864 C 0.51893 0.43798 0.60473 0.0
O4865 O 0.52577 0.46513 0.63033 0.0
O4866 O 0.52571 0.47925 0.60846 0.0
C4867 C 0.5497 0.49627 0.59266 0.0
N4868 N 0.548 0.4829 0.58491 0.0
C4869 C 0.55601 0.49618 0.55939 0.0
C4870 C 0.55871 0.50937 0.56962 0.0
C4871 C 0.55599 0.50905 0.58548 0.0
C4872 C 0.55406 0.48136 0.57062 0.0
H4873 H 0.5461 0.49726 0.6045 0.0
C4874 C 0.52121 0.47664 0.62227 0.0
O4875 O 0.54577 0.44273 0.64697 0.0
O4876 O 0.55855 0.46258 0.63789 0.0
N4877 N 0.53971 0.45482 0.57294 0.0
C4878 C 0.52721 0.44295 0.56553 0.0
C4879 C 0.52416 0.43938 0.54559 0.0
C4880 C 0.53432 0.44807 0.53036 0.0
C4881 C 0.5488 0.46172 0.53415 0.0
C4882 C 0.55165 0.46528 0.56365 0.0
H4883 H 0.51894 0.43751 0.57284 0.0
O4884 O 0.56151 0.43901 0.61585 0.0
O4885 O 0.54923 0.45824 0.60514 0.0
O4886 O 0.52866 0.43518 0.61535 0.0
O4887 O 0.51883 0.45038 0.59683 0.0
C4888 C 0.55058 0.47563 0.52302 0.0
C4889 C 0.55335 0.49213 0.53014 0.0
H4890 H 0.56235 0.52066 0.56589 0.0
H4891 H 0.5577 0.51943 0.59216 0.0
H4892 H 0.51494 0.43162 0.54255 0.0
H4893 H 0.53055 0.44618 0.51866 0.0
H4894 H 0.54808 0.47436 0.5109 0.0
H4895 H 0.55382 0.50034 0.52057 0.0
Mn4896 Mn 0.3737 0.55817 0.4617 0.0
Mn4897 Mn 0.40797 0.54345 0.47284 0.0
C4898 C 0.39566 0.56194 0.4466 0.0
C4899 C 0.35052 0.55434 0.44769 0.0
C4900 C 0.39294 0.57137 0.48762 0.0
O4901 O 0.36804 0.54264 0.47895 0.0
O4902 O 0.39106 0.53087 0.48116 0.0
C4903 C 0.40498 0.51457 0.45619 0.0
N4904 N 0.41364 0.52723 0.45866 0.0
C4905 C 0.43829 0.51281 0.45126 0.0
C4906 C 0.42736 0.50029 0.44784 0.0
C4907 C 0.41148 0.50153 0.44982 0.0
C4908 C 0.42799 0.52817 0.45286 0.0
H4909 H 0.39296 0.51437 0.45925 0.0
C4910 C 0.37681 0.53207 0.48437 0.0
O4911 O 0.35157 0.56471 0.45841 0.0
O4912 O 0.36255 0.54579 0.44578 0.0
N4913 N 0.42649 0.55476 0.46726 0.0
C4914 C 0.43391 0.5661 0.48025 0.0
C4915 C 0.45384 0.5684 0.4844 0.0
C4916 C 0.46904 0.55885 0.47495 0.0
C4917 C 0.46522 0.54555 0.46013 0.0
C4918 C 0.43575 0.54382 0.45574 0.0
H4919 H 0.4264 0.57212 0.488 0.0
O4920 O 0.38363 0.57051 0.44463 0.0
O4921 O 0.39437 0.55164 0.45715 0.0
O4922 O 0.38195 0.57335 0.47802 0.0
O4923 O 0.40214 0.55989 0.48736 0.0
C4924 C 0.47555 0.5309 0.45874 0.0
C4925 C 0.46756 0.51485 0.45536 0.0
H4926 H 0.43047 0.4888 0.44424 0.0
H4927 H 0.40423 0.49166 0.44754 0.0
H4928 H 0.45685 0.57594 0.49381 0.0
H4929 H 0.48061 0.56 0.47935 0.0
H4930 H 0.48759 0.53137 0.46185 0.0
H4931 H 0.47657 0.50598 0.45517 0.0
Mn4932 Mn 0.87815 0.69938 0.29445 0.0
Mn4933 Mn 0.91325 0.71331 0.28587 0.0
C4934 C 0.89872 0.69606 0.31114 0.0
C4935 C 0.85399 0.70229 0.30702 0.0
C4936 C 0.90248 0.68292 0.27382 0.0
O4937 O 0.87275 0.71452 0.27708 0.0
O4938 O 0.89725 0.71931 0.27084 0.0
C4939 C 0.90244 0.74604 0.2917 0.0
N4940 N 0.91309 0.73469 0.29346 0.0
C4941 C 0.93359 0.75733 0.29758 0.0
C4942 C 0.92119 0.76739 0.29686 0.0
C4943 C 0.90608 0.7618 0.29426 0.0
C4944 C 0.92706 0.73849 0.29781 0.0
H4945 H 0.89083 0.74311 0.28844 0.0
C4946 C 0.88287 0.72032 0.26818 0.0
O4947 O 0.85604 0.69193 0.29641 0.0
O4948 O 0.86556 0.71122 0.30959 0.0
N4949 N 0.93175 0.70824 0.29831 0.0
C4950 C 0.93936 0.693 0.29967 0.0
C4951 C 0.95747 0.69025 0.30206 0.0
C4952 C 0.97596 0.71352 0.30319 0.0
C4953 C 0.9664 0.72935 0.30172 0.0
C4954 C 0.93858 0.72331 0.29958 0.0
H4955 H 0.93249 0.68285 0.29765 0.0
O4956 O 0.88693 0.68702 0.3117 0.0
O4957 O 0.89813 0.70717 0.3012 0.0
O4958 O 0.88841 0.68451 0.27828 0.0
O4959 O 0.91323 0.69234 0.27731 0.0
C4960 C 0.97011 0.74966 0.30128 0.0
C4961 C 0.95362 0.76338 0.29907 0.0
H4962 H 0.92295 0.77953 0.29874 0.0
H4963 H 0.89681 0.77007 0.29363 0.0
H4964 H 0.95982 0.67785 0.30269 0.0
H4965 H 0.98845 0.71448 0.30449 0.0
H4966 H 0.98332 0.75204 0.30244 0.0
H4967 H 0.96339 0.75772 0.30028 0.0
Mn4968 Mn 0.80587 0.12752 0.04217 0.0
Mn4969 Mn 0.79172 0.1621 0.03094 0.0
C4970 C 0.80852 0.14886 0.05798 0.0
C4971 C 0.80103 0.10405 0.05504 0.0
C4972 C 0.82073 0.14736 0.01771 0.0
O4973 O 0.79172 0.12226 0.024 0.0
O4974 O 0.77981 0.14522 0.02135 0.0
C4975 C 0.76096 0.16009 0.04455 0.0
N4976 N 0.77434 0.16799 0.04394 0.0
C4977 C 0.76036 0.1931 0.05189 0.0
C4978 C 0.74712 0.1827 0.05352 0.0
C4979 C 0.74774 0.16695 0.05029 0.0
C4980 C 0.77538 0.18204 0.05059 0.0
H4981 H 0.76031 0.14837 0.04052 0.0
C4982 C 0.7815 0.13099 0.01801 0.0
O4983 O 0.81221 0.10536 0.0452 0.0
O4984 O 0.79241 0.11605 0.05679 0.0
N4985 N 0.80284 0.18021 0.03797 0.0
C4986 C 0.81538 0.18793 0.02634 0.0
C4987 C 0.8189 0.20796 0.02386 0.0
C4988 C 0.80943 0.22292 0.03375 0.0
C4989 C 0.79495 0.21875 0.04731 0.0
C4990 C 0.79153 0.18919 0.04937 0.0
H4991 H 0.82156 0.18069 0.01844 0.0
O4992 O 0.81704 0.13682 0.06011 0.0
O4993 O 0.79877 0.14799 0.04684 0.0
O4994 O 0.82209 0.13617 0.02716 0.0
O4995 O 0.80921 0.15652 0.01745 0.0
C4996 C 0.78083 0.22972 0.04848 0.0
C4997 C 0.76425 0.22241 0.05012 0.0
H4998 H 0.7356 0.18624 0.05659 0.0
H4999 H 0.73735 0.16016 0.05115 0.0
H5000 H 0.82722 0.21123 0.01522 0.0
H5001 H 0.81144 0.2347 0.03032 0.0
H5002 H 0.78212 0.24189 0.04631 0.0
H5003 H 0.7559 0.23191 0.0503 0.0
Mn5004 Mn 0.37775 0.04911 0.79631 0.0
Mn5005 Mn 0.34192 0.03803 0.78564 0.0
C5006 C 0.35717 0.05249 0.81251 0.0
C5007 C 0.40146 0.04495 0.80873 0.0
C5008 C 0.35528 0.06859 0.77688 0.0
O5009 O 0.38269 0.03483 0.77844 0.0
O5010 O 0.35822 0.03177 0.77075 0.0
C5011 C 0.34809 0.00367 0.7868 0.0
N5012 N 0.33929 0.01599 0.79097 0.0
C5013 C 0.31601 0.99563 0.79292 0.0
C5014 C 0.3266 0.98441 0.78886 0.0
C5015 C 0.34218 0.98838 0.78622 0.0
C5016 C 0.32485 0.01348 0.79502 0.0
H5017 H 0.35989 0.00543 0.78342 0.0
C5018 C 0.37271 0.03004 0.76887 0.0
O5019 O 0.39981 0.05575 0.79853 0.0
O5020 O 0.3897 0.03609 0.8109 0.0
N5021 N 0.32358 0.04401 0.79799 0.0
C5022 C 0.31767 0.05986 0.80056 0.0
C5023 C 0.29994 0.06447 0.80305 0.0
C5024 C 0.27896 0.04341 0.80211 0.0
C5025 C 0.28672 0.0268 0.79948 0.0
C5026 C 0.3151 0.02976 0.798 0.0
H5027 H 0.32563 0.06929 0.79949 0.0
O5028 O 0.36945 0.06079 0.81386 0.0
O5029 O 0.35712 0.04179 0.802 0.0
O5030 O 0.36908 0.06568 0.78121 0.0
O5031 O 0.344 0.05948 0.77905 0.0
C5032 C 0.28068 0.00723 0.7973 0.0
C5033 C 0.29543 0.99195 0.79389 0.0
H5034 H 0.32284 0.97267 0.78723 0.0
H5035 H 0.34997 0.97928 0.78282 0.0
H5036 H 0.29897 0.07696 0.80467 0.0
H5037 H 0.26642 0.04375 0.8032 0.0
H5038 H 0.26726 0.00631 0.79824 0.0
H5039 H 0.28642 0.99861 0.79563 0.0
Mn5040 Mn 0.94898 0.62335 0.04107 0.0
Mn5041 Mn 0.96379 0.58886 0.0301 0.0
C5042 C 0.94588 0.60163 0.05657 0.0
C5043 C 0.9517 0.64692 0.05462 0.0
C5044 C 0.93511 0.6034 0.01592 0.0
O5045 O 0.96454 0.62909 0.02383 0.0
O5046 O 0.97625 0.606 0.0213 0.0
C5047 C 0.99367 0.59109 0.04547 0.0
N5048 N 0.98056 0.58292 0.04385 0.0
C5049 C 0.99457 0.55787 0.05166 0.0
C5050 C 0.00756 0.56844 0.05415 0.0
C5051 C 0.00675 0.58429 0.05155 0.0
C5052 C 0.97946 0.56871 0.05012 0.0
H5053 H 0.99419 0.60299 0.04203 0.0
C5054 C 0.97522 0.62043 0.01838 0.0
O5055 O 0.94155 0.64521 0.0438 0.0
O5056 O 0.96084 0.63535 0.05682 0.0
N5057 N 0.95246 0.57051 0.03654 0.0
C5058 C 0.94044 0.56293 0.02428 0.0
C5059 C 0.93735 0.54294 0.0211 0.0
C5060 C 0.9467 0.52784 0.03085 0.0
C5061 C 0.96062 0.53182 0.04504 0.0
C5062 C 0.96348 0.56136 0.04812 0.0
H5063 H 0.93439 0.57027 0.01641 0.0
O5064 O 0.93699 0.61346 0.05828 0.0
O5065 O 0.95616 0.60284 0.04595 0.0
O5066 O 0.93366 0.61463 0.02527 0.0
O5067 O 0.94673 0.59435 0.01581 0.0
C5068 C 0.9749 0.52105 0.04638 0.0
C5069 C 0.99128 0.52857 0.04887 0.0
H5070 H 0.01902 0.565 0.05753 0.0
H5071 H 0.01694 0.59125 0.05317 0.0
H5072 H 0.92937 0.5398 0.01208 0.0
H5073 H 0.945 0.51614 0.02701 0.0
H5074 H 0.9739 0.50894 0.04374 0.0
H5075 H 0.99979 0.51922 0.04908 0.0
Mn5076 Mn 0.38201 0.20387 0.46269 0.0
Mn5077 Mn 0.34741 0.21856 0.4727 0.0
C5078 C 0.36134 0.20166 0.44622 0.0
C5079 C 0.40581 0.2062 0.44959 0.0
C5080 C 0.35803 0.18735 0.48339 0.0
O5081 O 0.38807 0.21837 0.4802 0.0
O5082 O 0.364 0.22474 0.48722 0.0
C5083 C 0.35479 0.25264 0.47032 0.0
N5084 N 0.34578 0.24044 0.46628 0.0
C5085 C 0.323 0.26137 0.46332 0.0
C5086 C 0.33382 0.27241 0.46726 0.0
C5087 C 0.34924 0.2681 0.47036 0.0
C5088 C 0.3314 0.24323 0.46218 0.0
H5089 H 0.36646 0.25065 0.47403 0.0
C5090 C 0.37857 0.22501 0.48919 0.0
O5091 O 0.40371 0.19571 0.46004 0.0
O5092 O 0.3946 0.21576 0.44767 0.0
N5093 N 0.32942 0.21279 0.46026 0.0
C5094 C 0.32344 0.19703 0.45794 0.0
C5095 C 0.30594 0.19275 0.4547 0.0
C5096 C 0.28519 0.21412 0.45384 0.0
C5097 C 0.29317 0.23075 0.45636 0.0
C5098 C 0.32135 0.22718 0.45934 0.0
H5099 H 0.33114 0.18747 0.45977 0.0
O5100 O 0.37289 0.19233 0.44546 0.0
O5101 O 0.36209 0.21267 0.45646 0.0
O5102 O 0.37192 0.18837 0.47839 0.0
O5103 O 0.34788 0.1976 0.48097 0.0
C5104 C 0.28755 0.25057 0.45762 0.0
C5105 C 0.30256 0.26559 0.46126 0.0
H5106 H 0.33037 0.28432 0.46835 0.0
H5107 H 0.35719 0.27708 0.47367 0.0
H5108 H 0.30491 0.18021 0.45351 0.0
H5109 H 0.27273 0.21388 0.45207 0.0
H5110 H 0.27422 0.25181 0.45602 0.0
H5111 H 0.29344 0.25912 0.4593 0.0
Mn5112 Mn 0.80524 0.12609 0.2093 0.0
Mn5113 Mn 0.79337 0.09088 0.22134 0.0
C5114 C 0.80874 0.10472 0.19369 0.0
C5115 C 0.79912 0.14919 0.19674 0.0
C5116 C 0.82234 0.10705 0.23282 0.0
O5117 O 0.79136 0.13099 0.22773 0.0
O5118 O 0.78137 0.10734 0.23137 0.0
C5119 C 0.76217 0.09224 0.20858 0.0
N5120 N 0.77569 0.08456 0.20893 0.0
C5121 C 0.76214 0.05946 0.2004 0.0
C5122 C 0.74873 0.06967 0.199 0.0
C5123 C 0.74907 0.08532 0.20267 0.0
C5124 C 0.77697 0.07073 0.20185 0.0
H5125 H 0.76133 0.10386 0.21285 0.0
C5126 C 0.78205 0.12171 0.23428 0.0
O5127 O 0.81058 0.14833 0.2063 0.0
O5128 O 0.79094 0.13686 0.19504 0.0
N5129 N 0.8045 0.07285 0.21425 0.0
C5130 C 0.8171 0.0652 0.22587 0.0
C5131 C 0.82095 0.0452 0.22815 0.0
C5132 C 0.81171 0.03019 0.21812 0.0
C5133 C 0.79715 0.03428 0.20463 0.0
C5134 C 0.79326 0.06382 0.20286 0.0
H5135 H 0.82269 0.07234 0.23422 0.0
O5136 O 0.81644 0.11723 0.19119 0.0
O5137 O 0.79917 0.10515 0.20501 0.0
O5138 O 0.82228 0.11851 0.22368 0.0
O5139 O 0.8115 0.0971 0.23372 0.0
C5140 C 0.78319 0.02312 0.20335 0.0
C5141 C 0.7665 0.0302 0.20182 0.0
H5142 H 0.73728 0.06601 0.19582 0.0
H5143 H 0.73856 0.09197 0.20199 0.0
H5144 H 0.82922 0.04197 0.23686 0.0
H5145 H 0.81388 0.01841 0.22145 0.0
H5146 H 0.78467 0.01095 0.20538 0.0
H5147 H 0.75831 0.02058 0.20155 0.0
Mn5148 Mn 0.45265 0.62761 0.70609 0.0
Mn5149 Mn 0.46398 0.66356 0.71586 0.0
C5150 C 0.44962 0.64799 0.68927 0.0
C5151 C 0.45603 0.60338 0.69453 0.0
C5152 C 0.43345 0.65065 0.72495 0.0
O5153 O 0.46701 0.62291 0.72412 0.0
O5154 O 0.4703 0.64757 0.73096 0.0
C5155 C 0.49812 0.65657 0.71343 0.0
N5156 N 0.48587 0.66582 0.71029 0.0
C5157 C 0.50634 0.68889 0.7092 0.0
C5158 C 0.51753 0.67789 0.71148 0.0
C5159 C 0.51352 0.66217 0.7132 0.0
C5160 C 0.48848 0.68034 0.70685 0.0
H5161 H 0.49623 0.64462 0.7162 0.0
C5162 C 0.472 0.63316 0.73334 0.0
O5163 O 0.44546 0.60574 0.70479 0.0
O5164 O 0.4652 0.6148 0.69172 0.0
N5165 N 0.45809 0.6819 0.70345 0.0
C5166 C 0.44232 0.68799 0.70076 0.0
C5167 C 0.4379 0.70583 0.69855 0.0
C5168 C 0.45915 0.72658 0.70021 0.0
C5169 C 0.47561 0.71863 0.70296 0.0
C5170 C 0.47238 0.69027 0.70387 0.0
H5171 H 0.43283 0.68007 0.7015 0.0
O5172 O 0.44107 0.63584 0.68824 0.0
O5173 O 0.46019 0.64805 0.69985 0.0
O5174 O 0.4363 0.63677 0.721 0.0
O5175 O 0.4426 0.66182 0.72256 0.0
C5176 C 0.4952 0.72444 0.7055 0.0
C5177 C 0.5103 0.70946 0.70874 0.0
H5178 H 0.52929 0.68156 0.71154 0.0
H5179 H 0.52267 0.65395 0.71494 0.0
H5180 H 0.42545 0.70696 0.69673 0.0
H5181 H 0.45896 0.73914 0.69935 0.0
H5182 H 0.49619 0.73786 0.70487 0.0
H5183 H 0.50376 0.71859 0.70716 0.0
Mn5184 Mn 0.54403 0.62607 0.45311 0.0
Mn5185 Mn 0.53597 0.5905 0.46603 0.0
C5186 C 0.56087 0.60584 0.44889 0.0
C5187 C 0.55612 0.65019 0.45647 0.0
C5188 C 0.52359 0.60219 0.43614 0.0
O5189 O 0.52676 0.63085 0.4685 0.0
O5190 O 0.52083 0.60617 0.47273 0.0
C5191 C 0.54205 0.6001 0.49913 0.0
N5192 N 0.54381 0.58994 0.48733 0.0
C5193 C 0.54873 0.56866 0.5091 0.0
C5194 C 0.54789 0.58062 0.51967 0.0
C5195 C 0.54493 0.59589 0.5147 0.0
C5196 C 0.54847 0.57591 0.49051 0.0
H5197 H 0.5385 0.61175 0.49671 0.0
C5198 C 0.51801 0.6205 0.47409 0.0
O5199 O 0.54541 0.64826 0.44621 0.0
O5200 O 0.55907 0.63847 0.46511 0.0
N5201 N 0.54851 0.57234 0.46008 0.0
C5202 C 0.54971 0.56532 0.44454 0.0
C5203 C 0.55241 0.54737 0.44107 0.0
C5204 C 0.55436 0.52808 0.46364 0.0
C5205 C 0.55302 0.53703 0.47983 0.0
C5206 C 0.55018 0.565 0.47487 0.0
H5207 H 0.5474 0.5725 0.43468 0.0
O5208 O 0.56118 0.61794 0.44025 0.0
O5209 O 0.55111 0.60593 0.46019 0.0
O5210 O 0.5279 0.61621 0.43813 0.0
O5211 O 0.52719 0.59117 0.44519 0.0
C5212 C 0.55306 0.53255 0.49997 0.0
C5213 C 0.55076 0.54846 0.51436 0.0
H5214 H 0.54979 0.57834 0.53173 0.0
H5215 H 0.54424 0.6048 0.52335 0.0
H5216 H 0.55284 0.54547 0.42858 0.0
H5217 H 0.55591 0.51558 0.46413 0.0
H5218 H 0.55458 0.51931 0.50177 0.0
H5219 H 0.55207 0.53893 0.50831 0.0
Mn5220 Mn 0.37604 0.79393 0.7003 0.0
Mn5221 Mn 0.41101 0.78251 0.71331 0.0
C5222 C 0.39734 0.80969 0.69692 0.0
C5223 C 0.35271 0.80676 0.7053 0.0
C5224 C 0.39552 0.77001 0.68435 0.0
O5225 O 0.3711 0.77568 0.71463 0.0
O5226 O 0.39434 0.77334 0.72596 0.0
C5227 C 0.40992 0.79676 0.7439 0.0
N5228 N 0.41753 0.79569 0.73037 0.0
C5229 C 0.4429 0.80421 0.74349 0.0
C5230 C 0.43282 0.80618 0.75693 0.0
C5231 C 0.41707 0.80291 0.75678 0.0
C5232 C 0.43149 0.80244 0.72879 0.0
H5233 H 0.3982 0.79287 0.74492 0.0
C5234 C 0.38002 0.77008 0.72492 0.0
O5235 O 0.35389 0.79678 0.69423 0.0
O5236 O 0.36473 0.80851 0.71391 0.0
N5237 N 0.42902 0.78914 0.7017 0.0
C5238 C 0.43648 0.77714 0.68935 0.0
C5239 C 0.45642 0.7746 0.68538 0.0
C5240 C 0.47158 0.78478 0.69419 0.0
C5241 C 0.46773 0.79873 0.70839 0.0
C5242 C 0.43824 0.80084 0.71249 0.0
H5243 H 0.42924 0.76874 0.68396 0.0
O5244 O 0.38498 0.81187 0.68889 0.0
O5245 O 0.39679 0.7986 0.70675 0.0
O5246 O 0.38427 0.77939 0.68373 0.0
O5247 O 0.40482 0.76909 0.69577 0.0
C5248 C 0.47903 0.80032 0.72221 0.0
C5249 C 0.47212 0.80241 0.73891 0.0
H5250 H 0.43662 0.80959 0.76827 0.0
H5251 H 0.41051 0.80412 0.76729 0.0
H5252 H 0.45951 0.76565 0.67732 0.0
H5253 H 0.48332 0.7813 0.692 0.0
H5254 H 0.49118 0.79814 0.72067 0.0
H5255 H 0.48182 0.80284 0.74702 0.0
Mn5256 Mn 0.21448 0.62624 0.94587 0.0
Mn5257 Mn 0.2237 0.65982 0.9625 0.0
C5258 C 0.19842 0.64761 0.94234 0.0
C5259 C 0.20217 0.60256 0.94919 0.0
C5260 C 0.23978 0.6466 0.9343 0.0
O5261 O 0.23162 0.62051 0.96139 0.0
O5262 O 0.23158 0.64252 0.97491 0.0
C5263 C 0.20526 0.65499 0.99011 0.0
N5264 N 0.20835 0.66431 0.97806 0.0
C5265 C 0.1983 0.68785 0.99273 0.0
C5266 C 0.19444 0.67625 0.00447 0.0
C5267 C 0.19743 0.66056 0.00279 0.0
C5268 C 0.20176 0.67832 0.97716 0.0
H5269 H 0.20881 0.64311 0.99006 0.0
C5270 C 0.2356 0.62855 0.97306 0.0
O5271 O 0.21262 0.60435 0.93865 0.0
O5272 O 0.19928 0.61431 0.95785 0.0
N5273 N 0.21828 0.67868 0.95178 0.0
C5274 C 0.23175 0.6872 0.94189 0.0
C5275 C 0.235 0.7074 0.94072 0.0
C5276 C 0.22401 0.72169 0.95003 0.0
C5277 C 0.20838 0.71657 0.96188 0.0
C5278 C 0.20545 0.68688 0.9621 0.0
H5279 H 0.24038 0.68032 0.93628 0.0
O5280 O 0.19717 0.63571 0.93345 0.0
O5281 O 0.20879 0.64641 0.95287 0.0
O5282 O 0.23041 0.63568 0.93141 0.0
O5283 O 0.23923 0.65501 0.94643 0.0
C5284 C 0.20525 0.72618 0.97676 0.0
C5285 C 0.201 0.71735 0.99216 0.0
H5286 H 0.18967 0.67868 0.0157 0.0
H5287 H 0.19469 0.65277 0.01211 0.0
H5288 H 0.24482 0.71119 0.93411 0.0
H5289 H 0.22786 0.73351 0.94969 0.0
H5290 H 0.20774 0.73836 0.97701 0.0
H5291 H 0.1996 0.72595 1.00133 0.0
Mn5292 Mn 0.37518 0.4589 0.20248 0.0
Mn5293 Mn 0.33982 0.46627 0.21632 0.0
C5294 C 0.35515 0.44183 0.19849 0.0
C5295 C 0.39949 0.44709 0.20526 0.0
C5296 C 0.35066 0.47926 0.18636 0.0
O5297 O 0.38007 0.47596 0.21802 0.0
O5298 O 0.35543 0.48164 0.22291 0.0
C5299 C 0.35018 0.4601 0.24916 0.0
N5300 N 0.33984 0.45817 0.23754 0.0
C5301 C 0.31912 0.45266 0.2597 0.0
C5302 C 0.33123 0.45379 0.27005 0.0
C5303 C 0.34632 0.4571 0.2648 0.0
C5304 C 0.32598 0.45319 0.24096 0.0
H5305 H 0.3617 0.46391 0.24655 0.0
C5306 C 0.36979 0.48452 0.22402 0.0
O5307 O 0.39726 0.45783 0.19509 0.0
O5308 O 0.38795 0.44392 0.21406 0.0
N5309 N 0.32177 0.45341 0.21061 0.0
C5310 C 0.31443 0.45217 0.19522 0.0
C5311 C 0.29646 0.44915 0.19211 0.0
C5312 C 0.2777 0.44671 0.21507 0.0
C5313 C 0.28698 0.44806 0.23106 0.0
C5314 C 0.31478 0.45142 0.22553 0.0
H5315 H 0.32135 0.45475 0.18522 0.0
O5316 O 0.36704 0.44182 0.18956 0.0
O5317 O 0.35534 0.45145 0.20992 0.0
O5318 O 0.36478 0.47511 0.18797 0.0
O5319 O 0.33989 0.47534 0.19557 0.0
C5320 C 0.28293 0.44779 0.25127 0.0
C5321 C 0.29907 0.45025 0.26534 0.0
H5322 H 0.32919 0.45192 0.28217 0.0
H5323 H 0.35537 0.45799 0.27329 0.0
H5324 H 0.29431 0.44878 0.17967 0.0
H5325 H 0.26526 0.44494 0.21582 0.0
H5326 H 0.26976 0.44611 0.25323 0.0
H5327 H 0.28944 0.44883 0.25949 0.0
Mn5328 Mn 0.54457 0.62764 0.79977 0.0
Mn5329 Mn 0.5364 0.66305 0.78659 0.0
C5330 C 0.56141 0.64788 0.80377 0.0
C5331 C 0.55627 0.60347 0.79631 0.0
C5332 C 0.52433 0.65161 0.81671 0.0
O5333 O 0.52722 0.62275 0.78458 0.0
O5334 O 0.52123 0.64734 0.78005 0.0
C5335 C 0.54262 0.65294 0.75368 0.0
N5336 N 0.54424 0.66333 0.7653 0.0
C5337 C 0.54926 0.68421 0.74321 0.0
C5338 C 0.54872 0.67203 0.73288 0.0
C5339 C 0.54571 0.65686 0.73808 0.0
C5340 C 0.54892 0.67729 0.76191 0.0
H5341 H 0.5391 0.64132 0.75629 0.0
C5342 C 0.51847 0.63299 0.77885 0.0
O5343 O 0.54578 0.60553 0.80678 0.0
O5344 O 0.55935 0.61516 0.78767 0.0
N5345 N 0.54891 0.68132 0.79227 0.0
C5346 C 0.55007 0.6886 0.8077 0.0
C5347 C 0.55274 0.70661 0.81089 0.0
C5348 C 0.55472 0.72554 0.78802 0.0
C5349 C 0.55343 0.71633 0.77197 0.0
C5350 C 0.55059 0.68844 0.77737 0.0
H5351 H 0.54775 0.68157 0.81767 0.0
O5352 O 0.56185 0.6358 0.81244 0.0
O5353 O 0.55158 0.64771 0.79254 0.0
O5354 O 0.52866 0.63759 0.81482 0.0
O5355 O 0.5277 0.66255 0.80748 0.0
C5356 C 0.55351 0.72048 0.75174 0.0
C5357 C 0.55127 0.70432 0.73762 0.0
H5358 H 0.5511 0.67404 0.72087 0.0
H5359 H 0.54525 0.64776 0.7296 0.0
H5360 H 0.55314 0.70869 0.82334 0.0
H5361 H 0.55626 0.73802 0.78734 0.0
H5362 H 0.555 0.7337 0.74967 0.0
H5363 H 0.55255 0.71395 0.74351 0.0
Mn5364 Mn 0.37542 0.79134 0.05424 0.0
Mn5365 Mn 0.34106 0.78132 0.03917 0.0
C5366 C 0.35444 0.8076 0.05721 0.0
C5367 C 0.39929 0.80337 0.05011 0.0
C5368 C 0.35548 0.76659 0.06761 0.0
O5369 O 0.3804 0.77347 0.03953 0.0
O5370 O 0.35807 0.77284 0.02624 0.0
C5371 C 0.34226 0.79685 0.00927 0.0
N5372 N 0.3347 0.79537 0.02278 0.0
C5373 C 0.30913 0.80373 0.00985 0.0
C5374 C 0.31918 0.80612 0.99645 0.0
C5375 C 0.33499 0.80315 0.99654 0.0
C5376 C 0.32057 0.80173 0.02449 0.0
H5377 H 0.35403 0.7931 0.00813 0.0
C5378 C 0.37216 0.76887 0.02823 0.0
O5379 O 0.39747 0.79333 0.06102 0.0
O5380 O 0.38749 0.8059 0.04139 0.0
N5381 N 0.32313 0.78765 0.05116 0.0
C5382 C 0.31575 0.7754 0.06332 0.0
C5383 C 0.29582 0.77271 0.06725 0.0
C5384 C 0.28061 0.78302 0.05869 0.0
C5385 C 0.28438 0.7973 0.04482 0.0
C5386 C 0.31384 0.79963 0.04072 0.0
H5387 H 0.32311 0.76718 0.06884 0.0
O5388 O 0.36646 0.80919 0.06588 0.0
O5389 O 0.35519 0.79679 0.04707 0.0
O5390 O 0.36626 0.77626 0.06988 0.0
O5391 O 0.34692 0.76656 0.05562 0.0
C5392 C 0.27305 0.79913 0.03106 0.0
C5393 C 0.27992 0.80162 0.0144 0.0
H5394 H 0.31533 0.8097 0.98518 0.0
H5395 H 0.34152 0.80467 0.98604 0.0
H5396 H 0.29278 0.76365 0.07519 0.0
H5397 H 0.26889 0.77947 0.06083 0.0
H5398 H 0.26092 0.79684 0.03255 0.0
H5399 H 0.27023 0.80216 0.00632 0.0
Mn5400 Mn 0.21068 0.63288 0.29968 0.0
Mn5401 Mn 0.22109 0.59806 0.28576 0.0
C5402 C 0.19383 0.61238 0.30105 0.0
C5403 C 0.19868 0.65697 0.29704 0.0
C5404 C 0.22968 0.60883 0.31769 0.0
O5405 O 0.22907 0.63861 0.28619 0.0
O5406 O 0.23598 0.61445 0.28022 0.0
C5407 C 0.22019 0.60548 0.25158 0.0
N5408 N 0.21568 0.59642 0.26358 0.0
C5409 C 0.21376 0.57367 0.2425 0.0
C5410 C 0.21806 0.58455 0.23164 0.0
C5411 C 0.22087 0.59998 0.23612 0.0
C5412 C 0.21164 0.58205 0.26057 0.0
H5413 H 0.22377 0.61715 0.25376 0.0
C5414 C 0.23819 0.62897 0.27998 0.0
O5415 O 0.20856 0.65438 0.30794 0.0
O5416 O 0.19668 0.64598 0.28718 0.0
N5417 N 0.20847 0.58004 0.29091 0.0
C5418 C 0.20569 0.57398 0.30655 0.0
C5419 C 0.20296 0.55639 0.31076 0.0
C5420 C 0.20367 0.53561 0.2894 0.0
C5421 C 0.20654 0.54366 0.27287 0.0
C5422 C 0.20843 0.57194 0.2765 0.0
H5423 H 0.20662 0.58179 0.31608 0.0
O5424 O 0.19262 0.62405 0.3102 0.0
O5425 O 0.20468 0.61295 0.29063 0.0
O5426 O 0.22503 0.62275 0.31618 0.0
O5427 O 0.22807 0.59866 0.30727 0.0
C5428 C 0.20877 0.53808 0.25314 0.0
C5429 C 0.21252 0.55319 0.23825 0.0
H5430 H 0.21975 0.58111 0.2198 0.0
H5431 H 0.22452 0.60796 0.22729 0.0
H5432 H 0.20129 0.55534 0.32325 0.0
H5433 H 0.20233 0.52309 0.2896 0.0
H5434 H 0.20765 0.52471 0.25186 0.0
H5435 H 0.21059 0.54402 0.24465 0.0
Mn5436 Mn 0.37367 0.45975 0.55156 0.0
Mn5437 Mn 0.41015 0.47022 0.54149 0.0
C5438 C 0.3943 0.44354 0.55519 0.0
C5439 C 0.35016 0.44745 0.54625 0.0
C5440 C 0.3935 0.48185 0.57021 0.0
O5441 O 0.36996 0.47799 0.53708 0.0
O5442 O 0.39461 0.48291 0.53001 0.0
C5443 C 0.41001 0.46442 0.50706 0.0
N5444 N 0.41637 0.46031 0.52091 0.0
C5445 C 0.44305 0.4575 0.5019 0.0
C5446 C 0.43363 0.46161 0.48988 0.0
C5447 C 0.41776 0.46411 0.4925 0.0
C5448 C 0.43014 0.45336 0.52046 0.0
H5449 H 0.39837 0.46868 0.50687 0.0
C5450 C 0.38003 0.48542 0.52929 0.0
O5451 O 0.35139 0.45755 0.55717 0.0
O5452 O 0.36225 0.44539 0.53774 0.0
N5453 N 0.42655 0.45988 0.5545 0.0
C5454 C 0.43324 0.46907 0.57032 0.0
C5455 C 0.45397 0.47385 0.57482 0.0
C5456 C 0.47079 0.46851 0.56257 0.0
C5457 C 0.46856 0.45788 0.54437 0.0
C5458 C 0.43634 0.45172 0.54117 0.0
H5459 H 0.42511 0.47417 0.57798 0.0
O5460 O 0.3818 0.44164 0.5631 0.0
O5461 O 0.39444 0.45463 0.54532 0.0
O5462 O 0.38109 0.4742 0.56882 0.0
O5463 O 0.40445 0.48141 0.56045 0.0
C5464 C 0.47797 0.46355 0.52372 0.0
C5465 C 0.46628 0.46369 0.5025 0.0
H5466 H 0.43858 0.46423 0.47877 0.0
H5467 H 0.41107 0.46765 0.48261 0.0
H5468 H 0.4562 0.48065 0.585 0.0
H5469 H 0.48191 0.47333 0.56536 0.0
H5470 H 0.48946 0.46827 0.52385 0.0
H5471 H 0.47194 0.46783 0.49223 0.0
Mn5472 Mn 0.95572 0.54047 0.12487 0.0
Mn5473 Mn 0.96813 0.53059 0.08924 0.0
C5474 C 0.95219 0.55674 0.10422 0.0
C5475 C 0.95854 0.55343 0.14885 0.0
C5476 C 0.93772 0.52 0.10172 0.0
O5477 O 0.97111 0.52341 0.13003 0.0
O5478 O 0.97488 0.51569 0.10561 0.0
C5479 C 0.0023 0.533 0.09607 0.0
N5480 N 0.98998 0.53678 0.08709 0.0
C5481 C 0.01063 0.53939 0.0641 0.0
C5482 C 0.0218 0.53566 0.07487 0.0
C5483 C 0.01768 0.53291 0.09039 0.0
C5484 C 0.9926 0.54091 0.07268 0.0
H5485 H 1.00049 0.52963 0.10786 0.0
C5486 C 0.97676 0.51407 0.12019 0.0
O5487 O 0.9484 0.54262 0.14695 0.0
O5488 O 0.96756 0.55588 0.13727 0.0
N5489 N 0.96205 0.54318 0.07097 0.0
C5490 C 0.94626 0.54567 0.06487 0.0
C5491 C 0.9419 0.54864 0.04712 0.0
C5492 C 0.96331 0.54862 0.02646 0.0
C5493 C 0.97984 0.54607 0.03443 0.0
C5494 C 0.97642 0.5438 0.06272 0.0
H5495 H 0.9367 0.54409 0.07263 0.0
O5496 O 0.94335 0.55743 0.11619 0.0
O5497 O 0.96332 0.54668 0.10445 0.0
O5498 O 0.94017 0.52439 0.11563 0.0
O5499 O 0.94687 0.52295 0.09063 0.0
C5500 C 0.99955 0.54441 0.02868 0.0
C5501 C 0.01465 0.54093 0.04361 0.0
H5502 H 0.03367 0.53454 0.07132 0.0
H5503 H 0.02677 0.52984 0.09832 0.0
H5504 H 0.92941 0.55008 0.046 0.0
H5505 H 0.96316 0.55005 0.01394 0.0
H5506 H 1.00066 0.54569 0.01529 0.0
H5507 H 0.0081 0.54276 0.03453 0.0
Mn5508 Mn 0.46253 0.19936 0.3759 0.0
Mn5509 Mn 0.47228 0.21463 0.34142 0.0
C5510 C 0.44615 0.19653 0.35491 0.0
C5511 C 0.45031 0.20318 0.39995 0.0
C5512 C 0.48725 0.1861 0.35549 0.0
O5513 O 0.48033 0.21424 0.38088 0.0
O5514 O 0.48102 0.22734 0.35842 0.0
C5515 C 0.45688 0.24458 0.34312 0.0
N5516 N 0.45822 0.23116 0.33539 0.0
C5517 C 0.4497 0.24441 0.31003 0.0
C5518 C 0.44747 0.25771 0.32026 0.0
C5519 C 0.45059 0.25743 0.33604 0.0
C5520 C 0.45173 0.22964 0.3213 0.0
H5521 H 0.46074 0.24557 0.35487 0.0
C5522 C 0.485 0.22544 0.37251 0.0
O5523 O 0.46049 0.19241 0.39802 0.0
O5524 O 0.44781 0.21198 0.38821 0.0
N5525 N 0.4657 0.20287 0.32343 0.0
C5526 C 0.47781 0.19073 0.31579 0.0
C5527 C 0.4803 0.18701 0.29579 0.0
C5528 C 0.46989 0.19578 0.28077 0.0
C5529 C 0.45572 0.20969 0.28483 0.0
C5530 C 0.45369 0.21347 0.31437 0.0
H5531 H 0.48604 0.18504 0.32303 0.0
O5532 O 0.44471 0.18772 0.36685 0.0
O5533 O 0.45695 0.20667 0.35569 0.0
O5534 O 0.47779 0.18386 0.36651 0.0
O5535 O 0.48705 0.19807 0.3469 0.0
C5536 C 0.45385 0.22357 0.27367 0.0
C5537 C 0.4515 0.24016 0.28075 0.0
H5538 H 0.44392 0.26904 0.31656 0.0
H5539 H 0.44919 0.26786 0.34271 0.0
H5540 H 0.48929 0.17904 0.29257 0.0
H5541 H 0.47332 0.19375 0.26899 0.0
H5542 H 0.45601 0.22219 0.26149 0.0
H5543 H 0.4509 0.24833 0.27114 0.0
Mn5544 Mn 0.8005 0.70806 0.62437 0.0
Mn5545 Mn 0.78922 0.71727 0.5883 0.0
C5546 C 0.80391 0.69098 0.60422 0.0
C5547 C 0.7967 0.69694 0.64866 0.0
C5548 C 0.81964 0.72686 0.60128 0.0
O5549 O 0.78615 0.72618 0.62878 0.0
O5550 O 0.78264 0.7325 0.60403 0.0
C5551 C 0.75508 0.71414 0.59527 0.0
N5552 N 0.76744 0.71122 0.58607 0.0
C5553 C 0.747 0.7089 0.56303 0.0
C5554 C 0.73572 0.71092 0.57401 0.0
C5555 C 0.73969 0.71313 0.5897 0.0
C5556 C 0.76493 0.70733 0.57164 0.0
H5557 H 0.75689 0.71726 0.60716 0.0
C5558 C 0.78106 0.73518 0.6184 0.0
O5559 O 0.80741 0.70708 0.64635 0.0
O5560 O 0.78774 0.69397 0.63712 0.0
N5561 N 0.79539 0.7047 0.57021 0.0
C5562 C 0.81123 0.70232 0.56424 0.0
C5563 C 0.81576 0.69977 0.54649 0.0
C5564 C 0.79455 0.70023 0.52562 0.0
C5565 C 0.77796 0.70272 0.53347 0.0
C5566 C 0.78111 0.70452 0.56181 0.0
H5567 H 0.82068 0.70348 0.57217 0.0
O5568 O 0.81224 0.69013 0.61652 0.0
O5569 O 0.79323 0.70148 0.60394 0.0
O5570 O 0.81686 0.72285 0.61516 0.0
O5571 O 0.81051 0.72438 0.59009 0.0
C5572 C 0.75829 0.70452 0.52757 0.0
C5573 C 0.74307 0.70774 0.54247 0.0
H5574 H 0.72392 0.7103 0.57043 0.0
H5575 H 0.73048 0.71461 0.5979 0.0
H5576 H 0.82826 0.6983 0.54546 0.0
H5577 H 0.79481 0.69902 0.51308 0.0
H5578 H 0.75726 0.70349 0.51416 0.0
H5579 H 0.74967 0.7061 0.53338 0.0
Mn5580 Mn 0.29271 0.05738 0.87701 0.0
Mn5581 Mn 0.28195 0.04238 0.84256 0.0
C5582 C 0.30838 0.06018 0.85554 0.0
C5583 C 0.30627 0.05368 0.90053 0.0
C5584 C 0.26752 0.07096 0.85697 0.0
O5585 O 0.27505 0.04254 0.88246 0.0
O5586 O 0.27279 0.03028 0.85958 0.0
C5587 C 0.29634 0.01198 0.84454 0.0
N5588 N 0.29543 0.02536 0.83668 0.0
C5589 C 0.30338 0.01155 0.81144 0.0
C5590 C 0.30531 0.99832 0.82181 0.0
C5591 C 0.30222 0.99887 0.8376 0.0
C5592 C 0.30186 0.02652 0.82253 0.0
H5593 H 0.29242 0.01124 0.85629 0.0
C5594 C 0.26932 0.03207 0.87379 0.0
O5595 O 0.29581 0.06427 0.89911 0.0
O5596 O 0.30808 0.04481 0.88872 0.0
N5597 N 0.28866 0.05371 0.82443 0.0
C5598 C 0.27677 0.06605 0.81677 0.0
C5599 C 0.27416 0.06956 0.79675 0.0
C5600 C 0.28418 0.0603 0.78174 0.0
C5601 C 0.29802 0.04608 0.78585 0.0
C5602 C 0.30026 0.04265 0.8154 0.0
H5603 H 0.2688 0.07208 0.82404 0.0
O5604 O 0.31016 0.06906 0.86738 0.0
O5605 O 0.2976 0.05008 0.85663 0.0
O5606 O 0.27693 0.07291 0.86814 0.0
O5607 O 0.26782 0.05932 0.84799 0.0
C5608 C 0.29942 0.032 0.77485 0.0
C5609 C 0.3014 0.01545 0.78213 0.0
H5610 H 0.30854 0.98686 0.81823 0.0
H5611 H 0.30329 0.98847 0.84436 0.0
H5612 H 0.26536 0.07773 0.79352 0.0
H5613 H 0.28068 0.06226 0.76996 0.0
H5614 H 0.29718 0.03327 0.76268 0.0
H5615 H 0.30169 0.00712 0.77261 0.0
Mn5616 Mn 0.94427 0.70836 0.12499 0.0
Mn5617 Mn 0.96025 0.71918 0.15865 0.0
C5618 C 0.9413 0.69288 0.14683 0.0
C5619 C 0.94838 0.69454 0.1017 0.0
C5620 C 0.93146 0.73384 0.14503 0.0
O5621 O 0.95885 0.72624 0.11904 0.0
O5622 O 0.97203 0.7277 0.14128 0.0
C5623 C 0.98884 0.70235 0.15392 0.0
N5624 N 0.97665 0.70479 0.16326 0.0
C5625 C 0.99198 0.69588 0.18684 0.0
C5626 C 0.00383 0.69249 0.17519 0.0
C5627 C 0.00195 0.69528 0.1595 0.0
C5628 C 0.97619 0.69836 0.17738 0.0
H5629 H 0.98859 0.7059 0.14203 0.0
C5630 C 0.96971 0.7317 0.12737 0.0
O5631 O 0.93757 0.70482 0.10286 0.0
O5632 O 0.95707 0.69299 0.11365 0.0
N5633 N 0.94997 0.71351 0.17768 0.0
C5634 C 0.93948 0.72663 0.18604 0.0
C5635 C 0.93832 0.73023 0.20619 0.0
C5636 C 0.94829 0.72002 0.2206 0.0
C5637 C 0.9609 0.70492 0.21566 0.0
C5638 C 0.96102 0.70141 0.18601 0.0
H5639 H 0.93338 0.73481 0.17904 0.0
O5640 O 0.93259 0.69084 0.13493 0.0
O5641 O 0.95135 0.70367 0.14541 0.0
O5642 O 0.92906 0.72428 0.13403 0.0
O5643 O 0.94339 0.73366 0.15369 0.0
C5644 C 0.97598 0.70273 0.22519 0.0
C5645 C 0.9915 0.69909 0.21629 0.0
H5646 H 0.0153 0.68833 0.1776 0.0
H5647 H 0.01138 0.69302 0.15168 0.0
H5648 H 0.93125 0.73978 0.20986 0.0
H5649 H 0.94786 0.72408 0.23235 0.0
H5650 H 0.97621 0.70546 0.23733 0.0
H5651 H 1.00079 0.69833 0.22484 0.0
Mn5652 Mn 0.29607 0.19819 0.38058 0.0
Mn5653 Mn 0.28885 0.21488 0.41452 0.0
C5654 C 0.31381 0.19586 0.40081 0.0
C5655 C 0.3074 0.20254 0.3563 0.0
C5656 C 0.27162 0.18658 0.40177 0.0
O5657 O 0.27794 0.21289 0.37636 0.0
O5658 O 0.27982 0.22763 0.39765 0.0
C5659 C 0.30527 0.24397 0.41143 0.0
N5660 N 0.30352 0.23096 0.41974 0.0
C5661 C 0.31077 0.24523 0.44476 0.0
C5662 C 0.31363 0.25805 0.43408 0.0
C5663 C 0.31135 0.25708 0.41818 0.0
C5664 C 0.30943 0.23 0.4341 0.0
H5665 H 0.30179 0.2444 0.39952 0.0
C5666 C 0.27408 0.22464 0.38437 0.0
O5667 O 0.29751 0.1915 0.35829 0.0
O5668 O 0.31013 0.21109 0.36811 0.0
N5669 N 0.29582 0.20304 0.43238 0.0
C5670 C 0.28372 0.19094 0.4398 0.0
C5671 C 0.27982 0.18818 0.45972 0.0
C5672 C 0.28906 0.19782 0.47497 0.0
C5673 C 0.30332 0.21171 0.47117 0.0
C5674 C 0.30712 0.21413 0.44162 0.0
H5675 H 0.27915 0.18243 0.43235 0.0
O5676 O 0.31457 0.18665 0.38911 0.0
O5677 O 0.30296 0.20587 0.40013 0.0
O5678 O 0.28064 0.18289 0.39071 0.0
O5679 O 0.27352 0.19893 0.40962 0.0
C5680 C 0.3045 0.22612 0.48175 0.0
C5681 C 0.30729 0.24235 0.47403 0.0
H5682 H 0.31704 0.26953 0.43745 0.0
H5683 H 0.31312 0.26719 0.41113 0.0
H5684 H 0.27138 0.17957 0.46273 0.0
H5685 H 0.28504 0.19613 0.48661 0.0
H5686 H 0.30163 0.22533 0.49381 0.0
H5687 H 0.30738 0.25095 0.48324 0.0
Mn5688 Mn 0.80322 0.54567 0.62676 0.0
Mn5689 Mn 0.78919 0.53741 0.66187 0.0
C5690 C 0.80596 0.56279 0.64712 0.0
C5691 C 0.80099 0.55742 0.60231 0.0
C5692 C 0.81979 0.52587 0.65143 0.0
O5693 O 0.78833 0.52803 0.62149 0.0
O5694 O 0.78365 0.52208 0.64609 0.0
C5695 C 0.75641 0.54227 0.65079 0.0
N5696 N 0.76765 0.54446 0.66149 0.0
C5697 C 0.74481 0.548 0.68186 0.0
C5698 C 0.73482 0.54682 0.66944 0.0
C5699 C 0.74057 0.5443 0.65436 0.0
C5700 C 0.76366 0.54876 0.67541 0.0
H5701 H 0.7595 0.53902 0.63921 0.0
C5702 C 0.78269 0.51918 0.63175 0.0
O5703 O 0.81127 0.5469 0.60496 0.0
O5704 O 0.79165 0.56039 0.6135 0.0
N5705 N 0.79387 0.55012 0.68026 0.0
C5706 C 0.80903 0.55188 0.68795 0.0
C5707 C 0.81161 0.55434 0.70608 0.0
C5708 C 0.7882 0.55482 0.72445 0.0
C5709 C 0.77249 0.55292 0.7148 0.0
C5710 C 0.77873 0.55094 0.68701 0.0
H5711 H 0.81927 0.55015 0.68114 0.0
O5712 O 0.81522 0.56324 0.63548 0.0
O5713 O 0.79503 0.55267 0.64655 0.0
O5714 O 0.81809 0.52995 0.63732 0.0
O5715 O 0.81033 0.52938 0.66213 0.0
C5716 C 0.7522 0.55194 0.71842 0.0
C5717 C 0.73862 0.54934 0.70187 0.0
H5718 H 0.72262 0.54816 0.67118 0.0
H5719 H 0.73235 0.54325 0.64508 0.0
H5720 H 0.82397 0.55531 0.70851 0.0
H5721 H 0.78712 0.55606 0.73694 0.0
H5722 H 0.74977 0.55314 0.7316 0.0
H5723 H 0.7442 0.55071 0.71167 0.0
Mn5724 Mn 0.46021 0.05014 0.88011 0.0
Mn5725 Mn 0.47021 0.03957 0.91601 0.0
C5726 C 0.44405 0.05478 0.9006 0.0
C5727 C 0.44765 0.04593 0.85644 0.0
C5728 C 0.48091 0.06889 0.90221 0.0
O5729 O 0.47712 0.03465 0.87546 0.0
O5730 O 0.48522 0.03268 0.89989 0.0
C5731 C 0.46752 0.00528 0.90981 0.0
N5732 N 0.46437 0.01778 0.91872 0.0
C5733 C 0.46218 0.99773 0.94218 0.0
C5734 C 0.46509 0.9863 0.93153 0.0
C5735 C 0.46718 0.99002 0.91576 0.0
C5736 C 0.46064 0.01552 0.93323 0.0
H5737 H 0.47043 0.00682 0.89785 0.0
C5738 C 0.48682 0.03013 0.88545 0.0
O5739 O 0.45836 0.05627 0.85781 0.0
O5740 O 0.44485 0.03772 0.86853 0.0
N5741 N 0.45766 0.04598 0.93412 0.0
C5742 C 0.45483 0.06188 0.93978 0.0
C5743 C 0.45141 0.0666 0.95736 0.0
C5744 C 0.45131 0.04568 0.97851 0.0
C5745 C 0.45437 0.02903 0.971 0.0
C5746 C 0.45729 0.03182 0.94272 0.0
H5747 H 0.45636 0.07127 0.9318 0.0
O5748 O 0.44338 0.0631 0.88827 0.0
O5749 O 0.45403 0.04359 0.9008 0.0
O5750 O 0.47664 0.06565 0.88845 0.0
O5751 O 0.47743 0.06076 0.91387 0.0
C5752 C 0.4562 0.00948 0.97725 0.0
C5753 C 0.46025 0.9941 0.96273 0.0
H5754 H 0.46547 0.97454 0.9354 0.0
H5755 H 0.46909 0.98076 0.90775 0.0
H5756 H 0.44971 0.07909 0.95816 0.0
H5757 H 0.44949 0.04608 0.99096 0.0
H5758 H 0.45463 0.00865 0.99062 0.0
H5759 H 0.45813 1.00081 0.97164 0.0
Mn5760 Mn 0.62638 0.95239 0.0458 0.0
Mn5761 Mn 0.59183 0.96798 0.03533 0.0
C5762 C 0.60501 0.9495 0.06147 0.0
C5763 C 0.65014 0.95475 0.05872 0.0
C5764 C 0.6044 0.93786 0.0224 0.0
O5765 O 0.63272 0.96706 0.02846 0.0
O5766 O 0.60952 0.97773 0.02442 0.0
C5767 C 0.59163 0.99856 0.03968 0.0
N5768 N 0.58746 0.98582 0.04724 0.0
C5769 C 0.56031 0.98347 0.0401 0.0
C5770 C 0.56873 0.99384 0.02565 0.0
C5771 C 0.58274 0.0018 0.02701 0.0
C5772 C 0.5721 0.98559 0.05098 0.0
H5773 H 0.60323 0.00293 0.04049 0.0
C5774 C 0.62396 0.97678 0.02183 0.0
O5775 O 0.64802 0.94441 0.04814 0.0
O5776 O 0.63881 0.96411 0.06113 0.0
N5777 N 0.57304 0.96082 0.04368 0.0
C5778 C 0.56979 0.94552 0.04575 0.0
C5779 C 0.55428 0.94017 0.04878 0.0
C5780 C 0.53167 0.95339 0.04921 0.0
C5781 C 0.53573 0.97216 0.04662 0.0
C5782 C 0.56201 0.97479 0.04402 0.0
H5783 H 0.57907 0.93732 0.04503 0.0
O5784 O 0.61682 0.94054 0.06287 0.0
O5785 O 0.60599 0.96033 0.05126 0.0
O5786 O 0.61691 0.93735 0.03012 0.0
O5787 O 0.5947 0.94893 0.02308 0.0
C5788 C 0.52108 0.98227 0.04556 0.0
C5789 C 0.53558 0.97895 0.04561 0.0
H5790 H 0.56361 0.9958 0.01443 0.0
H5791 H 0.58679 0.00948 0.01809 0.0
H5792 H 0.55668 0.92785 0.05064 0.0
H5793 H 0.51945 0.95047 0.05091 0.0
H5794 H 0.5106 0.9742 0.04672 0.0
H5795 H 0.52345 0.99109 0.04596 0.0
Mn5796 Mn 0.12509 0.80456 0.20812 0.0
Mn5797 Mn 0.09071 0.78972 0.21932 0.0
C5798 C 0.10366 0.80695 0.19232 0.0
C5799 C 0.149 0.80117 0.19559 0.0
C5800 C 0.10513 0.81881 0.23255 0.0
O5801 O 0.13043 0.79023 0.22631 0.0
O5802 O 0.1079 0.77733 0.22785 0.0
C5803 C 0.09211 0.75946 0.20451 0.0
N5804 N 0.08428 0.77283 0.20589 0.0
C5805 C 0.05883 0.75919 0.19841 0.0
C5806 C 0.06912 0.74597 0.19601 0.0
C5807 C 0.08498 0.74646 0.19862 0.0
C5808 C 0.06998 0.77412 0.19978 0.0
H5809 H 0.10397 0.75867 0.20801 0.0
C5810 C 0.12205 0.77925 0.23149 0.0
O5811 O 0.14691 0.81191 0.20575 0.0
O5812 O 0.13752 0.79191 0.19341 0.0
N5813 N 0.07235 0.80116 0.21318 0.0
C5814 C 0.06502 0.81333 0.22547 0.0
C5815 C 0.04511 0.81687 0.2287 0.0
C5816 C 0.02981 0.80777 0.21903 0.0
C5817 C 0.03346 0.7937 0.20492 0.0
C5818 C 0.06294 0.79024 0.20173 0.0
H5819 H 0.07237 0.81879 0.23369 0.0
O5820 O 0.1156 0.81563 0.1902 0.0
O5821 O 0.1047 0.79708 0.20333 0.0
O5822 O 0.11594 0.82048 0.22281 0.0
O5823 O 0.09663 0.80681 0.23335 0.0
C5824 C 0.02241 0.77966 0.20373 0.0
C5825 C 0.0296 0.76312 0.20135 0.0
H5826 H 0.06543 0.73456 0.19273 0.0
H5827 H 0.09171 0.73608 0.19715 0.0
H5828 H 0.04217 0.82482 0.23779 0.0
H5829 H 0.01816 0.80969 0.22293 0.0
H5830 H 0.01032 0.78093 0.20636 0.0
H5831 H 0.02007 0.75481 0.20128 0.0
Mn5832 Mn 0.20113 0.37353 0.45758 0.0
Mn5833 Mn 0.21197 0.33769 0.46826 0.0
C5834 C 0.19786 0.3527 0.4412 0.0
C5835 C 0.20497 0.39748 0.44541 0.0
C5836 C 0.18167 0.35119 0.47709 0.0
O5837 O 0.21557 0.37847 0.47556 0.0
O5838 O 0.21839 0.35393 0.48295 0.0
C5839 C 0.24619 0.34423 0.46597 0.0
N5840 N 0.23386 0.33505 0.46292 0.0
C5841 C 0.25408 0.3117 0.46266 0.0
C5842 C 0.26536 0.32261 0.46497 0.0
C5843 C 0.26151 0.33842 0.46621 0.0
C5844 C 0.23633 0.3204 0.45997 0.0
H5845 H 0.24441 0.35628 0.46836 0.0
C5846 C 0.22035 0.36834 0.48504 0.0
O5847 O 0.19425 0.39554 0.45561 0.0
O5848 O 0.21392 0.38581 0.44296 0.0
N5849 N 0.20595 0.31913 0.4563 0.0
C5850 C 0.19013 0.31318 0.45364 0.0
C5851 C 0.18552 0.29536 0.45173 0.0
C5852 C 0.20652 0.27438 0.45396 0.0
C5853 C 0.22307 0.28218 0.45671 0.0
C5854 C 0.22014 0.3106 0.45706 0.0
H5855 H 0.18071 0.32122 0.45418 0.0
O5856 O 0.18948 0.36494 0.43988 0.0
O5857 O 0.20841 0.3528 0.45182 0.0
O5858 O 0.18467 0.36494 0.47277 0.0
O5859 O 0.19062 0.33983 0.47483 0.0
C5860 C 0.24259 0.27621 0.45951 0.0
C5861 C 0.25782 0.29109 0.46261 0.0
H5862 H 0.27708 0.31882 0.46551 0.0
H5863 H 0.2707 0.34657 0.46796 0.0
H5864 H 0.17308 0.29435 0.44984 0.0
H5865 H 0.20619 0.26181 0.4533 0.0
H5866 H 0.24351 0.26276 0.45914 0.0
H5867 H 0.25119 0.28201 0.46113 0.0
Mn5868 Mn 0.62563 0.44484 0.71079 0.0
Mn5869 Mn 0.66025 0.45824 0.72258 0.0
C5870 C 0.64733 0.44186 0.69526 0.0
C5871 C 0.60251 0.44976 0.69723 0.0
C5872 C 0.64483 0.42971 0.73567 0.0
O5873 O 0.62026 0.45937 0.72886 0.0
O5874 O 0.64357 0.47038 0.73202 0.0
C5875 C 0.65834 0.48878 0.70882 0.0
N5876 N 0.66635 0.47548 0.70974 0.0
C5877 C 0.69158 0.48943 0.70288 0.0
C5878 C 0.6812 0.5027 0.70101 0.0
C5879 C 0.66535 0.50204 0.70349 0.0
C5880 C 0.68057 0.47445 0.70357 0.0
H5881 H 0.64646 0.48933 0.71233 0.0
C5882 C 0.62926 0.46925 0.7351 0.0
O5883 O 0.60347 0.43874 0.70728 0.0
O5884 O 0.6146 0.4583 0.69577 0.0
N5885 N 0.67831 0.44686 0.71576 0.0
C5886 C 0.68561 0.43414 0.72747 0.0
C5887 C 0.70554 0.43055 0.7306 0.0
C5888 C 0.72084 0.44014 0.72138 0.0
C5889 C 0.71715 0.45481 0.70788 0.0
C5890 C 0.68767 0.45829 0.70484 0.0
H5891 H 0.67811 0.42789 0.73503 0.0
O5892 O 0.63524 0.43345 0.69298 0.0
O5893 O 0.64631 0.45153 0.70644 0.0
O5894 O 0.63369 0.42854 0.72612 0.0
O5895 O 0.65428 0.44094 0.7359 0.0
C5896 C 0.72813 0.46898 0.70731 0.0
C5897 C 0.72085 0.4856 0.70562 0.0
H5898 H 0.68479 0.51428 0.69827 0.0
H5899 H 0.65855 0.51243 0.70242 0.0
H5900 H 0.70851 0.42211 0.73924 0.0
H5901 H 0.73249 0.43807 0.72519 0.0
H5902 H 0.74023 0.46767 0.70988 0.0
H5903 H 0.73029 0.49399 0.70585 0.0
Mn5904 Mn 0.058 0.87647 0.46326 0.0
Mn5905 Mn 0.04227 0.91048 0.47298 0.0
C5906 C 0.06159 0.89782 0.44738 0.0
C5907 C 0.05331 0.85319 0.44999 0.0
C5908 C 0.07071 0.89702 0.48836 0.0
O5909 O 0.04303 0.87093 0.48079 0.0
O5910 O 0.03036 0.89345 0.48211 0.0
C5911 C 0.01389 0.90516 0.45603 0.0
N5912 N 0.02606 0.91457 0.45825 0.0
C5913 C 0.01099 0.93775 0.44804 0.0
C5914 C 0.99915 0.926 0.44497 0.0
C5915 C 1.00093 0.91044 0.44849 0.0
C5916 C 0.02669 0.92836 0.45117 0.0
H5917 H 0.01404 0.89344 0.4601 0.0
C5918 C 0.0322 0.87943 0.48596 0.0
O5919 O 0.0642 0.85417 0.46021 0.0
O5920 O 0.04508 0.86537 0.44805 0.0
N5921 N 0.05266 0.92922 0.46667 0.0
C5922 C 0.06299 0.93808 0.47959 0.0
C5923 C 0.06417 0.95835 0.48235 0.0
C5924 C 0.0544 0.97235 0.4714 0.0
C5925 C 0.04201 0.96683 0.45632 0.0
C5926 C 0.04184 0.93707 0.45406 0.0
H5927 H 0.06892 0.9314 0.48815 0.0
O5928 O 0.0702 0.88578 0.44579 0.0
O5929 O 0.05133 0.8968 0.45801 0.0
O5930 O 0.07303 0.8856 0.47928 0.0
O5931 O 0.05899 0.90594 0.48768 0.0
C5932 C 0.02698 0.9763 0.4535 0.0
C5933 C 0.0115 0.9673 0.45002 0.0
H5934 H 0.98776 0.92825 0.44053 0.0
H5935 H 0.9915 0.90257 0.44642 0.0
H5936 H 0.07111 0.9624 0.49184 0.0
H5937 H 0.05483 0.98425 0.47497 0.0
H5938 H 0.02674 0.98853 0.4557 0.0
H5939 H 0.00225 0.97582 0.44876 0.0
Mn5940 Mn 0.62534 0.30136 0.04322 0.0
Mn5941 Mn 0.66089 0.28948 0.0329 0.0
C5942 C 0.64589 0.30452 0.05947 0.0
C5943 C 0.60158 0.29799 0.05578 0.0
C5944 C 0.64828 0.32013 0.02361 0.0
O5945 O 0.62019 0.28667 0.02577 0.0
O5946 O 0.64458 0.28368 0.0178 0.0
C5947 C 0.65367 0.25527 0.03394 0.0
N5948 N 0.6628 0.26733 0.03815 0.0
C5949 C 0.6854 0.24623 0.04042 0.0
C5950 C 0.67455 0.23535 0.03618 0.0
C5951 C 0.65912 0.2398 0.03339 0.0
C5952 C 0.67709 0.26436 0.04235 0.0
H5953 H 0.64193 0.25735 0.03058 0.0
C5954 C 0.63007 0.28185 0.01611 0.0
O5955 O 0.6034 0.30854 0.04535 0.0
O5956 O 0.61318 0.28895 0.0581 0.0
N5957 N 0.67923 0.29482 0.04557 0.0
C5958 C 0.68557 0.31045 0.04845 0.0
C5959 C 0.70336 0.31444 0.05156 0.0
C5960 C 0.72366 0.29269 0.05113 0.0
C5961 C 0.71545 0.27638 0.04813 0.0
C5962 C 0.68725 0.28029 0.04575 0.0
H5963 H 0.67795 0.32016 0.04718 0.0
O5964 O 0.63389 0.31328 0.06049 0.0
O5965 O 0.64572 0.29365 0.04914 0.0
O5966 O 0.63437 0.31732 0.02765 0.0
O5967 O 0.65948 0.31105 0.02635 0.0
C5968 C 0.72092 0.25663 0.04601 0.0
C5969 C 0.70581 0.24186 0.04202 0.0
H5970 H 0.67796 0.22349 0.03464 0.0
H5971 H 0.6511 0.23094 0.02993 0.0
H5972 H 0.70468 0.32688 0.05331 0.0
H5973 H 0.73617 0.29259 0.05261 0.0
H5974 H 0.73427 0.25525 0.04738 0.0
H5975 H 0.71496 0.24822 0.0441 0.0
Mn5976 Mn 0.20666 0.36859 0.29464 0.0
Mn5977 Mn 0.22083 0.40341 0.28428 0.0
C5978 C 0.20518 0.38918 0.31146 0.0
C5979 C 0.20876 0.34445 0.30685 0.0
C5980 C 0.18903 0.3926 0.27524 0.0
O5981 O 0.2204 0.36279 0.27635 0.0
O5982 O 0.22679 0.38691 0.26963 0.0
C5983 C 0.25506 0.39645 0.28571 0.0
N5984 N 0.24288 0.40537 0.29001 0.0
C5985 C 0.26356 0.4285 0.29176 0.0
C5986 C 0.27462 0.41774 0.28768 0.0
C5987 C 0.27042 0.40219 0.28505 0.0
C5988 C 0.24562 0.41986 0.29382 0.0
H5989 H 0.25308 0.38471 0.28226 0.0
C5990 C 0.22694 0.37239 0.2674 0.0
O5991 O 0.19815 0.34716 0.29669 0.0
O5992 O 0.21875 0.35529 0.30895 0.0
N5993 N 0.21525 0.42144 0.29669 0.0
C5994 C 0.19949 0.42728 0.29927 0.0
C5995 C 0.19497 0.44481 0.30182 0.0
C5996 C 0.21597 0.46593 0.3011 0.0
C5997 C 0.23265 0.45812 0.29844 0.0
C5998 C 0.2295 0.42976 0.29678 0.0
H5999 H 0.1901 0.41932 0.29829 0.0
O6000 O 0.19598 0.37755 0.31255 0.0
O6001 O 0.21573 0.38855 0.30072 0.0
O6002 O 0.19037 0.37875 0.28008 0.0
O6003 O 0.1995 0.40269 0.27685 0.0
C6004 C 0.25231 0.46398 0.29631 0.0
C6005 C 0.26747 0.44907 0.29283 0.0
H6006 H 0.28641 0.42134 0.28603 0.0
H6007 H 0.2794 0.39431 0.28156 0.0
H6008 H 0.18246 0.44567 0.30336 0.0
H6009 H 0.21554 0.47846 0.30233 0.0
H6010 H 0.25337 0.47739 0.29731 0.0
H6011 H 0.2609 0.45816 0.29461 0.0
Mn6012 Mn 0.55863 0.87709 0.79021 0.0
Mn6013 Mn 0.54337 0.84304 0.77978 0.0
C6014 C 0.56171 0.85569 0.80618 0.0
C6015 C 0.55425 0.90046 0.80335 0.0
C6016 C 0.57224 0.85669 0.76543 0.0
O6017 O 0.54392 0.88269 0.77238 0.0
O6018 O 0.53156 0.86003 0.77048 0.0
C6019 C 0.51409 0.84746 0.79559 0.0
N6020 N 0.52668 0.83848 0.79391 0.0
C6021 C 0.51198 0.81485 0.80386 0.0
C6022 C 0.49968 0.82624 0.80643 0.0
C6023 C 0.50106 0.8418 0.80275 0.0
C6024 C 0.52747 0.82471 0.80104 0.0
H6025 H 0.51396 0.85914 0.79141 0.0
C6026 C 0.53329 0.87413 0.76687 0.0
O6027 O 0.5652 0.89923 0.79324 0.0
O6028 O 0.54565 0.8885 0.80518 0.0
N6029 N 0.55388 0.82445 0.78626 0.0
C6030 C 0.56481 0.81576 0.77373 0.0
C6031 C 0.56674 0.7955 0.7713 0.0
C6032 C 0.55713 0.78135 0.78219 0.0
C6033 C 0.54415 0.78668 0.79683 0.0
C6034 C 0.54295 0.81644 0.79866 0.0
H6035 H 0.57073 0.8225 0.76521 0.0
O6036 O 0.57037 0.86768 0.8079 0.0
O6037 O 0.55167 0.85673 0.7953 0.0
O6038 O 0.57414 0.86802 0.77467 0.0
O6039 O 0.56049 0.84781 0.76558 0.0
C6040 C 0.52939 0.77677 0.79937 0.0
C6041 C 0.51353 0.7853 0.8023 0.0
H6042 H 0.48826 0.82365 0.81059 0.0
H6043 H 0.49131 0.84937 0.80441 0.0
H6044 H 0.57405 0.79156 0.76204 0.0
H6045 H 0.55803 0.76941 0.7788 0.0
H6046 H 0.52963 0.7645 0.79733 0.0
H6047 H 0.50454 0.77649 0.80341 0.0
Mn6048 Mn 0.4596 0.37921 0.55171 0.0
Mn6049 Mn 0.4671 0.41384 0.53487 0.0
C6050 C 0.44223 0.39921 0.55399 0.0
C6051 C 0.44841 0.35468 0.54995 0.0
C6052 C 0.4813 0.40328 0.56534 0.0
O6053 O 0.47732 0.37382 0.53725 0.0
O6054 O 0.47928 0.3967 0.52534 0.0
C6055 C 0.46238 0.41316 0.50436 0.0
N6056 N 0.45462 0.41694 0.51712 0.0
C6057 C 0.45942 0.44467 0.5189 0.0
C6058 C 0.47435 0.43733 0.50839 0.0
C6059 C 0.47413 0.42309 0.50073 0.0
C6060 C 0.44957 0.43196 0.51713 0.0
H6061 H 0.46263 0.40141 0.5003 0.0
C6062 C 0.48308 0.38257 0.52701 0.0
O6063 O 0.45879 0.35771 0.56027 0.0
O6064 O 0.44532 0.36555 0.54026 0.0
N6065 N 0.45728 0.43199 0.54176 0.0
C6066 C 0.45505 0.43521 0.55703 0.0
C6067 C 0.4509 0.45046 0.56228 0.0
C6068 C 0.44841 0.47281 0.54886 0.0
C6069 C 0.45107 0.46876 0.53009 0.0
C6070 C 0.45579 0.44276 0.52767 0.0
H6071 H 0.45634 0.42602 0.56524 0.0
O6072 O 0.44188 0.38768 0.56337 0.0
O6073 O 0.45247 0.39876 0.54315 0.0
O6074 O 0.47459 0.39024 0.56638 0.0
O6075 O 0.47977 0.41246 0.5539 0.0
C6076 C 0.45081 0.48335 0.51982 0.0
C6077 C 0.45198 0.46892 0.52327 0.0
H6078 H 0.48505 0.44334 0.50613 0.0
H6079 H 0.48328 0.41967 0.49299 0.0
H6080 H 0.4494 0.44806 0.57465 0.0
H6081 H 0.44575 0.48488 0.55168 0.0
H6082 H 0.44887 0.4938 0.52781 0.0
H6083 H 0.45051 0.48086 0.51103 0.0
Mn6084 Mn 0.62756 0.21093 0.30195 0.0
Mn6085 Mn 0.59257 0.22247 0.28917 0.0
C6086 C 0.60626 0.19526 0.30554 0.0
C6087 C 0.65075 0.19808 0.29666 0.0
C6088 C 0.60827 0.2348 0.31812 0.0
O6089 O 0.63251 0.22915 0.28768 0.0
O6090 O 0.60928 0.23163 0.27639 0.0
C6091 C 0.59342 0.20815 0.25858 0.0
N6092 N 0.58591 0.20924 0.27216 0.0
C6093 C 0.56053 0.20033 0.2593 0.0
C6094 C 0.57054 0.19832 0.24581 0.0
C6095 C 0.58625 0.20179 0.24582 0.0
C6096 C 0.57202 0.20235 0.2739 0.0
H6097 H 0.60508 0.21217 0.25743 0.0
C6098 C 0.62364 0.23481 0.2774 0.0
O6099 O 0.64973 0.20799 0.3078 0.0
O6100 O 0.63863 0.19637 0.28818 0.0
N6101 N 0.57457 0.2159 0.30084 0.0
C6102 C 0.5671 0.22798 0.31311 0.0
C6103 C 0.54717 0.23043 0.31718 0.0
C6104 C 0.53202 0.22008 0.30857 0.0
C6105 C 0.53587 0.20601 0.29448 0.0
C6106 C 0.56535 0.20404 0.29023 0.0
H6107 H 0.57432 0.23653 0.31831 0.0
O6108 O 0.6187 0.19303 0.31343 0.0
O6109 O 0.60675 0.20634 0.29567 0.0
O6110 O 0.61954 0.22543 0.3186 0.0
O6111 O 0.59889 0.23582 0.30676 0.0
C6112 C 0.5245 0.20421 0.28075 0.0
C6113 C 0.53132 0.20199 0.26403 0.0
H6114 H 0.5667 0.19474 0.23454 0.0
H6115 H 0.59275 0.20055 0.23527 0.0
H6116 H 0.54408 0.23944 0.32517 0.0
H6117 H 0.52028 0.2235 0.31079 0.0
H6118 H 0.51235 0.20632 0.28234 0.0
H6119 H 0.52159 0.20141 0.25599 0.0
Mn6120 Mn 0.79347 0.37533 0.05011 0.0
Mn6121 Mn 0.78555 0.33947 0.0372 0.0
C6122 C 0.81105 0.35552 0.05308 0.0
C6123 C 0.80387 0.40003 0.04753 0.0
C6124 C 0.7749 0.35108 0.06795 0.0
O6125 O 0.77549 0.37978 0.03558 0.0
O6126 O 0.77016 0.35503 0.03073 0.0
C6127 C 0.78931 0.34777 0.00349 0.0
N6128 N 0.7924 0.33822 0.01553 0.0
C6129 C 0.79592 0.31609 0.99425 0.0
C6130 C 0.79328 0.32741 0.98331 0.0
C6131 C 0.79047 0.34282 0.9879 0.0
C6132 C 0.79691 0.32405 0.01256 0.0
H6133 H 0.78568 0.35943 0.0057 0.0
C6134 C 0.76705 0.36935 0.0297 0.0
O6135 O 0.79367 0.39698 0.05799 0.0
O6136 O 0.80735 0.38898 0.03812 0.0
N6137 N 0.7983 0.32145 0.04309 0.0
C6138 C 0.80007 0.31487 0.05878 0.0
C6139 C 0.80232 0.29696 0.06274 0.0
C6140 C 0.8026 0.27692 0.04074 0.0
C6141 C 0.80082 0.28539 0.02436 0.0
C6142 C 0.79908 0.3136 0.0285 0.0
H6143 H 0.79866 0.32246 0.06845 0.0
O6144 O 0.81143 0.36753 0.06186 0.0
O6145 O 0.80077 0.35537 0.04221 0.0
O6146 O 0.77872 0.36512 0.06582 0.0
O6147 O 0.77773 0.34032 0.05838 0.0
C6148 C 0.79974 0.28024 0.00443 0.0
C6149 C 0.79714 0.29569 0.98965 0.0
H6150 H 0.79319 0.32444 0.97124 0.0
H6151 H 0.78834 0.35124 0.97899 0.0
H6152 H 0.80329 0.29545 0.07525 0.0
H6153 H 0.80372 0.26437 0.04058 0.0
H6154 H 0.80073 0.26689 0.003 0.0
H6155 H 0.79852 0.28636 0.99597 0.0
Mn6156 Mn 0.62585 0.54343 0.79875 0.0
Mn6157 Mn 0.66146 0.53332 0.78675 0.0
C6158 C 0.64627 0.55996 0.80161 0.0
C6159 C 0.60193 0.55552 0.79519 0.0
C6160 C 0.64905 0.52425 0.81759 0.0
O6161 O 0.62078 0.52561 0.78448 0.0
O6162 O 0.64523 0.51806 0.78091 0.0
C6163 C 0.6543 0.53427 0.75257 0.0
N6164 N 0.66336 0.53862 0.76463 0.0
C6165 C 0.68603 0.54088 0.74362 0.0
C6166 C 0.67521 0.5366 0.73271 0.0
C6167 C 0.65979 0.53374 0.73711 0.0
C6168 C 0.67765 0.5429 0.7617 0.0
H6169 H 0.64261 0.53073 0.75466 0.0
C6170 C 0.63069 0.5161 0.77944 0.0
O6171 O 0.60394 0.54537 0.80596 0.0
O6172 O 0.61346 0.55787 0.78607 0.0
N6173 N 0.67972 0.5461 0.79218 0.0
C6174 C 0.68604 0.54897 0.80784 0.0
C6175 C 0.70385 0.55192 0.81191 0.0
C6176 C 0.72421 0.55125 0.79022 0.0
C6177 C 0.71602 0.54832 0.77389 0.0
C6178 C 0.68779 0.54623 0.77769 0.0
H6179 H 0.67838 0.54779 0.81752 0.0
O6180 O 0.63423 0.56105 0.8103 0.0
O6181 O 0.64617 0.54946 0.7909 0.0
O6182 O 0.63512 0.52833 0.81499 0.0
O6183 O 0.6601 0.52675 0.80828 0.0
C6184 C 0.72154 0.54613 0.75419 0.0
C6185 C 0.70646 0.54228 0.73935 0.0
H6186 H 0.67867 0.53503 0.72086 0.0
H6187 H 0.65181 0.5302 0.72824 0.0
H6188 H 0.70515 0.55368 0.82435 0.0
H6189 H 0.73673 0.55261 0.79016 0.0
H6190 H 0.7349 0.54726 0.75301 0.0
H6191 H 0.71562 0.54427 0.74574 0.0
Mn6192 Mn 0.4584 0.376 0.20211 0.0
Mn6193 Mn 0.4668 0.34074 0.21568 0.0
C6194 C 0.44168 0.35552 0.19838 0.0
C6195 C 0.44635 0.40016 0.20502 0.0
C6196 C 0.47894 0.35197 0.18555 0.0
O6197 O 0.47574 0.38119 0.21731 0.0
O6198 O 0.48178 0.35663 0.22194 0.0
C6199 C 0.46065 0.35124 0.24846 0.0
N6200 N 0.459 0.34069 0.23699 0.0
C6201 C 0.45439 0.32005 0.25939 0.0
C6202 C 0.45513 0.33234 0.2696 0.0
C6203 C 0.45788 0.34748 0.26416 0.0
C6204 C 0.4545 0.32673 0.2406 0.0
H6205 H 0.46403 0.36285 0.24567 0.0
C6206 C 0.48456 0.37097 0.22302 0.0
O6207 O 0.45695 0.39802 0.19469 0.0
O6208 O 0.44341 0.38861 0.2139 0.0
N6209 N 0.4545 0.32226 0.21028 0.0
C6210 C 0.45346 0.31475 0.19496 0.0
C6211 C 0.45116 0.29665 0.19203 0.0
C6212 C 0.44963 0.278 0.21518 0.0
C6213 C 0.45076 0.28746 0.23109 0.0
C6214 C 0.45301 0.31533 0.22529 0.0
H6215 H 0.45563 0.32168 0.18488 0.0
O6216 O 0.44119 0.36746 0.18952 0.0
O6217 O 0.45151 0.35593 0.2096 0.0
O6218 O 0.47449 0.36597 0.18731 0.0
O6219 O 0.47549 0.34106 0.19478 0.0
C6220 C 0.45082 0.2836 0.25138 0.0
C6221 C 0.45279 0.29998 0.26526 0.0
H6222 H 0.45326 0.33043 0.28172 0.0
H6223 H 0.4585 0.35666 0.27253 0.0
H6224 H 0.45078 0.29437 0.17961 0.0
H6225 H 0.44835 0.2655 0.21604 0.0
H6226 H 0.44961 0.27038 0.25364 0.0
H6227 H 0.45168 0.29026 0.2595 0.0
Mn6228 Mn 0.62811 0.21075 0.94762 0.0
Mn6229 Mn 0.66222 0.22143 0.96293 0.0
C6230 C 0.64917 0.19465 0.94525 0.0
C6231 C 0.60436 0.19848 0.95145 0.0
C6232 C 0.64838 0.23491 0.93371 0.0
O6233 O 0.6229 0.22912 0.96156 0.0
O6234 O 0.64507 0.23036 0.97505 0.0
C6235 C 0.66005 0.20655 0.99312 0.0
N6236 N 0.66803 0.20773 0.97983 0.0
C6237 C 0.69295 0.19875 0.99355 0.0
C6238 C 0.68243 0.19654 0.00661 0.0
C6239 C 0.66674 0.20005 0.00607 0.0
C6240 C 0.68203 0.20099 0.97853 0.0
H6241 H 0.64838 0.21068 0.99392 0.0
C6242 C 0.63116 0.23447 0.9725 0.0
O6243 O 0.60625 0.20839 0.94042 0.0
O6244 O 0.61591 0.19648 0.96063 0.0
N6245 N 0.68055 0.21506 0.95177 0.0
C6246 C 0.68848 0.22733 0.93999 0.0
C6247 C 0.70856 0.22981 0.93676 0.0
C6248 C 0.72335 0.21929 0.94577 0.0
C6249 C 0.71894 0.20499 0.95945 0.0
C6250 C 0.68933 0.203 0.96252 0.0
H6251 H 0.68144 0.23581 0.93445 0.0
O6252 O 0.63721 0.1927 0.93659 0.0
O6253 O 0.64829 0.20566 0.95518 0.0
O6254 O 0.63752 0.22528 0.93172 0.0
O6255 O 0.65675 0.23553 0.94582 0.0
C6256 C 0.72977 0.20295 0.97357 0.0
C6257 C 0.72231 0.20047 0.98998 0.0
H6258 H 0.68584 0.19279 0.01797 0.0
H6259 H 0.65987 0.19876 0.01637 0.0
H6260 H 0.71197 0.23892 0.92902 0.0
H6261 H 0.73518 0.22272 0.94407 0.0
H6262 H 0.74198 0.20507 0.97249 0.0
H6263 H 0.73173 0.19975 0.99837 0.0
Mn6264 Mn 0.79372 0.37819 0.69596 0.0
Mn6265 Mn 0.78264 0.41256 0.71063 0.0
C6266 C 0.80928 0.39969 0.69287 0.0
C6267 C 0.8068 0.35478 0.70052 0.0
C6268 C 0.7686 0.39767 0.6821 0.0
O6269 O 0.77577 0.37286 0.71041 0.0
O6270 O 0.77383 0.39555 0.72294 0.0
C6271 C 0.79773 0.41051 0.74063 0.0
N6272 N 0.79627 0.41858 0.72742 0.0
C6273 C 0.80395 0.44371 0.74137 0.0
C6274 C 0.80647 0.43321 0.7544 0.0
C6275 C 0.80377 0.41737 0.7537 0.0
C6276 C 0.80245 0.43283 0.72627 0.0
H6277 H 0.79412 0.39866 0.74127 0.0
C6278 C 0.77011 0.38145 0.72094 0.0
O6279 O 0.79674 0.35603 0.68953 0.0
O6280 O 0.80865 0.36679 0.70911 0.0
N6281 N 0.78883 0.43088 0.69928 0.0
C6282 C 0.77645 0.43834 0.68731 0.0
C6283 C 0.77309 0.45831 0.68418 0.0
C6284 C 0.78278 0.4735 0.69348 0.0
C6285 C 0.79705 0.46964 0.70735 0.0
C6286 C 0.80034 0.44013 0.71026 0.0
H6287 H 0.76859 0.4309 0.68134 0.0
O6288 O 0.81138 0.38762 0.68438 0.0
O6289 O 0.79841 0.3987 0.7029 0.0
O6290 O 0.77828 0.38676 0.68018 0.0
O6291 O 0.76856 0.40672 0.69372 0.0
C6292 C 0.79839 0.48045 0.7216 0.0
C6293 C 0.80098 0.47298 0.73799 0.0
H6294 H 0.80988 0.4367 0.76585 0.0
H6295 H 0.80528 0.41048 0.76396 0.0
H6296 H 0.76401 0.46136 0.67626 0.0
H6297 H 0.77884 0.48517 0.69178 0.0
H6298 H 0.7957 0.49255 0.72058 0.0
H6299 H 0.80116 0.48236 0.74647 0.0
Mn6300 Mn 0.62761 0.54278 0.44453 0.0
Mn6301 Mn 0.59418 0.532 0.46076 0.0
C6302 C 0.60589 0.55838 0.44179 0.0
C6303 C 0.65093 0.55603 0.44884 0.0
C6304 C 0.60769 0.51739 0.43188 0.0
O6305 O 0.63362 0.52489 0.4589 0.0
O6306 O 0.61165 0.52357 0.47251 0.0
C6307 C 0.59877 0.54872 0.48945 0.0
N6308 N 0.58951 0.54636 0.47718 0.0
C6309 C 0.56584 0.5552 0.49246 0.0
C6310 C 0.57742 0.55851 0.5044 0.0
C6311 C 0.59312 0.55571 0.50258 0.0
C6312 C 0.57538 0.55276 0.4767 0.0
H6313 H 0.61066 0.54517 0.48926 0.0
C6314 C 0.62554 0.51961 0.46999 0.0
O6315 O 0.64966 0.54603 0.43778 0.0
O6316 O 0.63898 0.5578 0.45748 0.0
N6317 N 0.57518 0.53767 0.45044 0.0
C6318 C 0.56685 0.52461 0.43986 0.0
C6319 C 0.5467 0.52108 0.43857 0.0
C6320 C 0.53227 0.5313 0.44851 0.0
C6321 C 0.53717 0.54634 0.46119 0.0
C6322 C 0.56681 0.54977 0.46148 0.0
H6323 H 0.57386 0.51642 0.43377 0.0
O6324 O 0.61774 0.56043 0.43301 0.0
O6325 O 0.60731 0.54752 0.45177 0.0
O6326 O 0.6185 0.52706 0.42929 0.0
O6327 O 0.59917 0.5175 0.44393 0.0
C6328 C 0.52757 0.54851 0.47623 0.0
C6329 C 0.53639 0.55205 0.49182 0.0
H6330 H 0.57495 0.56261 0.51588 0.0
H6331 H 0.60087 0.5579 0.51208 0.0
H6332 H 0.54305 0.51156 0.43145 0.0
H6333 H 0.52052 0.52727 0.448 0.0
H6334 H 0.51543 0.5458 0.47639 0.0
H6335 H 0.5278 0.5528 0.50107 0.0
Mn6336 Mn 0.05185 0.46315 0.8807 0.0
Mn6337 Mn 0.03787 0.47387 0.91552 0.0
C6338 C 0.05552 0.44747 0.90213 0.0
C6339 C 0.0476 0.45004 0.85717 0.0
C6340 C 0.06618 0.48812 0.90038 0.0
O6341 O 0.03657 0.48066 0.87555 0.0
O6342 O 0.02497 0.48265 0.89872 0.0
C6343 C 0.00801 0.45842 0.91392 0.0
N6344 N 0.02132 0.46004 0.92178 0.0
C6345 C 0.00796 0.45203 0.94712 0.0
C6346 C 0.99473 0.44954 0.93685 0.0
C6347 C 0.99513 0.45225 0.921 0.0
C6348 C 0.0228 0.45371 0.93594 0.0
H6349 H 0.00717 0.46194 0.90206 0.0
C6350 C 0.02596 0.48589 0.88436 0.0
O6351 O 0.05822 0.46046 0.8585 0.0
O6352 O 0.03908 0.44787 0.86919 0.0
N6353 N 0.04966 0.46744 0.93357 0.0
C6354 C 0.06179 0.47972 0.94094 0.0
C6355 C 0.06536 0.4828 0.96088 0.0
C6356 C 0.05643 0.47289 0.97615 0.0
C6357 C 0.0425 0.45866 0.97241 0.0
C6358 C 0.03894 0.45575 0.94291 0.0
H6359 H 0.0676 0.48767 0.93348 0.0
O6360 O 0.06394 0.44569 0.88996 0.0
O6361 O 0.0453 0.45819 0.90134 0.0
O6362 O 0.06757 0.47872 0.88916 0.0
O6363 O 0.05468 0.4882 0.9096 0.0
C6364 C 0.0285 0.45715 0.98352 0.0
C6365 C 0.01195 0.45463 0.97637 0.0
H6366 H 0.98337 0.44609 0.94054 0.0
H6367 H 0.98477 0.45065 0.91428 0.0
H6368 H 0.07335 0.49183 0.96389 0.0
H6369 H 0.0584 0.47666 0.98783 0.0
H6370 H 0.02978 0.45966 0.99564 0.0
H6371 H 0.00368 0.45431 0.98593 0.0
Mn6372 Mn 0.54248 0.80647 0.62814 0.0
Mn6373 Mn 0.53244 0.79069 0.66237 0.0
C6374 C 0.5585 0.80908 0.64942 0.0
C6375 C 0.55548 0.8036 0.60434 0.0
C6376 C 0.51745 0.81936 0.64859 0.0
O6377 O 0.52502 0.79133 0.62259 0.0
O6378 O 0.5236 0.77844 0.64515 0.0
C6379 C 0.5476 0.76067 0.65994 0.0
N6380 N 0.54635 0.77391 0.668 0.0
C6381 C 0.55467 0.75999 0.69305 0.0
C6382 C 0.55678 0.74691 0.68252 0.0
C6383 C 0.55373 0.74759 0.66673 0.0
C6384 C 0.55282 0.77504 0.68213 0.0
H6385 H 0.54379 0.76001 0.64816 0.0
C6386 C 0.52004 0.78024 0.63094 0.0
O6387 O 0.5449 0.81399 0.60625 0.0
O6388 O 0.55776 0.79446 0.61586 0.0
N6389 N 0.53912 0.802 0.68059 0.0
C6390 C 0.52713 0.81409 0.68847 0.0
C6391 C 0.52465 0.81738 0.70855 0.0
C6392 C 0.53493 0.80816 0.72339 0.0
C6393 C 0.54897 0.79419 0.71903 0.0
C6394 C 0.55101 0.79106 0.68942 0.0
H6395 H 0.51902 0.82008 0.68133 0.0
O6396 O 0.55993 0.81822 0.63774 0.0
O6397 O 0.54784 0.79884 0.64828 0.0
O6398 O 0.52679 0.8216 0.63748 0.0
O6399 O 0.51781 0.80747 0.65726 0.0
C6400 C 0.55067 0.78003 0.72987 0.0
C6401 C 0.55286 0.76358 0.72242 0.0
H6402 H 0.5602 0.73546 0.68596 0.0
H6403 H 0.55506 0.73731 0.65983 0.0
H6404 H 0.51575 0.82538 0.71194 0.0
H6405 H 0.53151 0.80996 0.73521 0.0
H6406 H 0.54849 0.78115 0.74207 0.0
H6407 H 0.55336 0.75519 0.73184 0.0
Mn6408 Mn 0.19625 0.28606 0.37817 0.0
Mn6409 Mn 0.20874 0.27595 0.41354 0.0
C6410 C 0.19193 0.30234 0.39913 0.0
C6411 C 0.20196 0.29878 0.35481 0.0
C6412 C 0.18058 0.2619 0.39816 0.0
O6413 O 0.21184 0.26858 0.37373 0.0
O6414 O 0.22182 0.26639 0.39753 0.0
C6415 C 0.23878 0.2909 0.41147 0.0
N6416 N 0.22547 0.28958 0.41936 0.0
C6417 C 0.2386 0.29834 0.44442 0.0
C6418 C 0.25205 0.30002 0.43424 0.0
C6419 C 0.25174 0.29694 0.41847 0.0
C6420 C 0.22392 0.29648 0.43315 0.0
H6421 H 0.23952 0.28728 0.39967 0.0
C6422 C 0.2219 0.26337 0.38315 0.0
O6423 O 0.19103 0.28861 0.35564 0.0
O6424 O 0.20977 0.30101 0.36726 0.0
N6425 N 0.1968 0.28328 0.43104 0.0
C6426 C 0.18426 0.27169 0.43882 0.0
C6427 C 0.18024 0.26983 0.45883 0.0
C6428 C 0.18913 0.28039 0.4737 0.0
C6429 C 0.20349 0.29405 0.46943 0.0
C6430 C 0.20764 0.29516 0.43991 0.0
H6431 H 0.17856 0.26336 0.43171 0.0
O6432 O 0.18392 0.30381 0.38665 0.0
O6433 O 0.20198 0.29143 0.3989 0.0
O6434 O 0.17999 0.27072 0.38636 0.0
O6435 O 0.19168 0.26195 0.40783 0.0
C6436 C 0.21735 0.2958 0.4807 0.0
C6437 C 0.2341 0.29749 0.47372 0.0
H6438 H 0.26348 0.30323 0.43793 0.0
H6439 H 0.26217 0.29818 0.41178 0.0
H6440 H 0.17202 0.26113 0.46218 0.0
H6441 H 0.18689 0.27732 0.48554 0.0
H6442 H 0.21582 0.29403 0.49291 0.0
H6443 H 0.24225 0.29817 0.48337 0.0
Mn6444 Mn 0.71077 0.94674 0.12851 0.0
Mn6445 Mn 0.72135 0.96048 0.16345 0.0
C6446 C 0.69479 0.9435 0.14965 0.0
C6447 C 0.69776 0.9515 0.10516 0.0
C6448 C 0.73513 0.93181 0.14857 0.0
O6449 O 0.72859 0.96141 0.12349 0.0
O6450 O 0.73144 0.97245 0.14686 0.0
C6451 C 0.70786 0.9913 0.16128 0.0
N6452 N 0.70819 0.97784 0.16906 0.0
C6453 C 0.69906 0.99154 0.19394 0.0
C6454 C 0.6978 0.00486 0.18359 0.0
C6455 C 0.70176 0.00442 0.168 0.0
C6456 C 0.70095 0.97663 0.18282 0.0
H6457 H 0.71238 0.99209 0.14975 0.0
C6458 C 0.73466 0.9713 0.13253 0.0
O6459 O 0.7079 0.94057 0.10629 0.0
O6460 O 0.69589 0.95999 0.11723 0.0
N6461 N 0.71382 0.94927 0.1813 0.0
C6462 C 0.72523 0.93676 0.18938 0.0
C6463 C 0.72691 0.93307 0.20947 0.0
C6464 C 0.71633 0.94234 0.2241 0.0
C6465 C 0.70285 0.95676 0.21948 0.0
C6466 C 0.70199 0.96042 0.18988 0.0
H6467 H 0.73348 0.93073 0.18239 0.0
O6468 O 0.69307 0.93501 0.13752 0.0
O6469 O 0.70573 0.95349 0.14901 0.0
O6470 O 0.72612 0.93072 0.13699 0.0
O6471 O 0.7349 0.94299 0.15814 0.0
C6472 C 0.7011 0.97078 0.2305 0.0
C6473 C 0.69963 0.9874 0.22327 0.0
H6474 H 0.69449 0.01633 0.1871 0.0
H6475 H 0.70115 0.01488 0.16128 0.0
H6476 H 0.73547 0.92479 0.21303 0.0
H6477 H 0.71927 0.94026 0.236 0.0
H6478 H 0.70277 0.96942 0.24275 0.0
H6479 H 0.69899 0.99566 0.23283 0.0
Mn6480 Mn 0.0537 0.29572 0.8779 0.0
Mn6481 Mn 0.04002 0.28463 0.84296 0.0
C6482 C 0.05695 0.3115 0.85658 0.0
C6483 C 0.04878 0.30877 0.90149 0.0
C6484 C 0.06885 0.2714 0.85803 0.0
O6485 O 0.03928 0.27752 0.8828 0.0
O6486 O 0.02735 0.27564 0.85977 0.0
C6487 C 0.00964 0.29925 0.84408 0.0
N6488 N 0.02316 0.29809 0.83648 0.0
C6489 C 0.01004 0.30646 0.81102 0.0
C6490 C 0.99665 0.30861 0.82113 0.0
C6491 C 0.99681 0.30544 0.8369 0.0
C6492 C 0.02475 0.30467 0.82242 0.0
H6493 H 0.0086 0.29537 0.85581 0.0
C6494 C 0.02878 0.27207 0.874 0.0
O6495 O 0.0598 0.29874 0.90023 0.0
O6496 O 0.04024 0.31048 0.88942 0.0
N6497 N 0.05169 0.29112 0.8249 0.0
C6498 C 0.06394 0.27898 0.81747 0.0
C6499 C 0.06783 0.27629 0.79753 0.0
C6500 C 0.05907 0.28643 0.78232 0.0
C6501 C 0.045 0.30052 0.78613 0.0
C6502 C 0.041 0.30287 0.81562 0.0
H6503 H 0.06923 0.27054 0.82472 0.0
O6504 O 0.06514 0.3136 0.86885 0.0
O6505 O 0.04706 0.30048 0.85722 0.0
O6506 O 0.07003 0.28084 0.86925 0.0
O6507 O 0.0572 0.27079 0.84902 0.0
C6508 C 0.03117 0.30212 0.77485 0.0
C6509 C 0.01451 0.30438 0.78179 0.0
H6510 H 0.98533 0.31208 0.81732 0.0
H6511 H 0.98631 0.30674 0.84347 0.0
H6512 H 0.0758 0.26725 0.79447 0.0
H6513 H 0.06119 0.28287 0.7706 0.0
H6514 H 0.03265 0.29983 0.76271 0.0
H6515 H 0.0064 0.30479 0.77211 0.0
Mn6516 Mn 0.71003 0.80297 0.62373 0.0
Mn6517 Mn 0.71842 0.79023 0.58835 0.0
C6518 C 0.69328 0.8072 0.60347 0.0
C6519 C 0.69798 0.79901 0.64775 0.0
C6520 C 0.73039 0.82019 0.59989 0.0
O6521 O 0.72717 0.78759 0.62858 0.0
O6522 O 0.73383 0.78403 0.604 0.0
C6523 C 0.71316 0.75719 0.59857 0.0
N6524 N 0.71113 0.76875 0.58819 0.0
C6525 C 0.7061 0.74651 0.56744 0.0
C6526 C 0.70726 0.73622 0.5796 0.0
C6527 C 0.71045 0.74151 0.5947 0.0
C6528 C 0.70633 0.76523 0.57431 0.0
H6529 H 0.71667 0.75987 0.61016 0.0
C6530 C 0.73628 0.78238 0.61838 0.0
O6531 O 0.70848 0.80954 0.64605 0.0
O6532 O 0.69505 0.7907 0.63581 0.0
N6533 N 0.70558 0.79557 0.57018 0.0
C6534 C 0.70386 0.81093 0.56289 0.0
C6535 C 0.70048 0.81398 0.54496 0.0
C6536 C 0.69827 0.79099 0.5262 0.0
C6537 C 0.7002 0.77503 0.53542 0.0
C6538 C 0.70397 0.78061 0.56317 0.0
H6539 H 0.70621 0.82097 0.56982 0.0
O6540 O 0.69287 0.81583 0.61559 0.0
O6541 O 0.70309 0.79594 0.60361 0.0
O6542 O 0.72622 0.81802 0.61395 0.0
O6543 O 0.72665 0.81128 0.5888 0.0
C6544 C 0.7003 0.75482 0.53135 0.0
C6545 C 0.70342 0.74081 0.54743 0.0
H6546 H 0.70494 0.72421 0.57768 0.0
H6547 H 0.71123 0.73309 0.60382 0.0
H6548 H 0.69976 0.82641 0.54284 0.0
H6549 H 0.69629 0.79021 0.51378 0.0
H6550 H 0.69817 0.75276 0.51823 0.0
H6551 H 0.70166 0.74664 0.53784 0.0
Mn6552 Mn 0.20106 0.4568 0.37478 0.0
Mn6553 Mn 0.21778 0.46365 0.34078 0.0
C6554 C 0.19899 0.43875 0.35479 0.0
C6555 C 0.20461 0.44512 0.3991 0.0
C6556 C 0.18939 0.48097 0.35309 0.0
O6557 O 0.21601 0.47486 0.37902 0.0
O6558 O 0.23049 0.47316 0.35747 0.0
C6559 C 0.24739 0.44799 0.34349 0.0
N6560 N 0.23408 0.44915 0.33556 0.0
C6561 C 0.24779 0.44126 0.31032 0.0
C6562 C 0.26098 0.43909 0.3207 0.0
C6563 C 0.26043 0.44198 0.33653 0.0
C6564 C 0.23285 0.44281 0.32139 0.0
H6565 H 0.24813 0.45191 0.35524 0.0
C6566 C 0.22768 0.47878 0.37087 0.0
O6567 O 0.19385 0.45529 0.39693 0.0
O6568 O 0.21359 0.44261 0.38757 0.0
N6569 N 0.20576 0.45606 0.32333 0.0
C6570 C 0.1932 0.46761 0.31579 0.0
C6571 C 0.18976 0.47059 0.29581 0.0
C6572 C 0.1991 0.46085 0.28069 0.0
C6573 C 0.21336 0.44702 0.28467 0.0
C6574 C 0.21676 0.44457 0.31426 0.0
H6575 H 0.18464 0.47204 0.32327 0.0
O6576 O 0.18952 0.43835 0.36629 0.0
O6577 O 0.20907 0.44956 0.35543 0.0
O6578 O 0.18579 0.47218 0.36435 0.0
O6579 O 0.20178 0.47898 0.34538 0.0
C6580 C 0.22743 0.44561 0.27371 0.0
C6581 C 0.24393 0.44343 0.28102 0.0
H6582 H 0.27241 0.43576 0.3171 0.0
H6583 H 0.2708 0.44069 0.34331 0.0
H6584 H 0.18085 0.47869 0.29271 0.0
H6585 H 0.19697 0.46432 0.26895 0.0
H6586 H 0.22621 0.44796 0.26155 0.0
H6587 H 0.2522 0.44303 0.27156 0.0
Mn6588 Mn 0.53902 0.952 0.12462 0.0
Mn6589 Mn 0.53117 0.96149 0.08744 0.0
C6590 C 0.55624 0.94733 0.10498 0.0
C6591 C 0.55129 0.9576 0.14834 0.0
C6592 C 0.51735 0.93358 0.10352 0.0
O6593 O 0.5214 0.96763 0.12718 0.0
O6594 O 0.51751 0.97319 0.10197 0.0
C6595 C 0.53698 0.99591 0.08774 0.0
N6596 N 0.54153 0.98198 0.08188 0.0
C6597 C 0.54603 1.00056 0.05514 0.0
C6598 C 0.54124 0.01271 0.06405 0.0
C6599 C 0.53773 0.01034 0.07979 0.0
C6600 C 0.54931 0.98224 0.06861 0.0
H6601 H 0.53201 0.99629 0.09909 0.0
C6602 C 0.51438 0.97487 0.11638 0.0
O6603 O 0.54069 0.94711 0.14732 0.0
O6604 O 0.55372 0.96555 0.136 0.0
N6605 N 0.54281 0.94823 0.07214 0.0
C6606 C 0.53436 0.93221 0.065 0.0
C6607 C 0.53135 0.92734 0.04401 0.0
C6608 C 0.53794 0.93939 0.02747 0.0
C6609 C 0.54817 0.95774 0.0303 0.0
C6610 C 0.55163 0.96147 0.06286 0.0
H6611 H 0.52881 0.92453 0.07294 0.0
O6612 O 0.55695 0.93939 0.11756 0.0
O6613 O 0.54554 0.95757 0.10412 0.0
O6614 O 0.52372 0.93527 0.1167 0.0
O6615 O 0.51941 0.94281 0.09233 0.0
C6616 C 0.54306 0.97818 0.02014 0.0
C6617 C 0.54175 0.99956 0.03148 0.0
H6618 H 0.53893 0.02373 0.05876 0.0
H6619 H 0.53375 0.02032 0.08608 0.0
H6620 H 0.52491 0.91703 0.04138 0.0
H6621 H 0.53409 0.93638 0.01603 0.0
H6622 H 0.53929 0.97783 0.0083 0.0
H6623 H 0.53794 0.0097 0.02537 0.0
Mn6624 Mn 0.37646 0.0571 0.96258 0.0
Mn6625 Mn 0.41147 0.044 0.97399 0.0
C6626 C 0.39836 0.06135 0.9475 0.0
C6627 C 0.35337 0.05323 0.94839 0.0
C6628 C 0.3956 0.07188 0.98805 0.0
O6629 O 0.37113 0.04086 0.97942 0.0
O6630 O 0.39494 0.03101 0.98268 0.0
C6631 C 0.40976 0.01427 0.95847 0.0
N6632 N 0.41781 0.02739 0.96044 0.0
C6633 C 0.44321 0.0137 0.95385 0.0
C6634 C 0.43292 1.00047 0.95132 0.0
C6635 C 0.41695 1.00114 0.95303 0.0
C6636 C 0.43215 0.02863 0.95469 0.0
H6637 H 0.39768 0.01383 0.96113 0.0
C6638 C 0.38044 0.03082 0.98504 0.0
O6639 O 0.35427 0.06336 0.95932 0.0
O6640 O 0.36548 0.04478 0.94641 0.0
N6641 N 0.42948 0.05585 0.96764 0.0
C6642 C 0.43651 0.0683 0.9798 0.0
C6643 C 0.45636 0.07186 0.98341 0.0
C6644 C 0.47188 0.06258 0.97423 0.0
C6645 C 0.46852 0.04826 0.96028 0.0
C6646 C 0.43912 0.04476 0.95656 0.0
H6647 H 0.42886 0.07433 0.98738 0.0
O6648 O 0.38618 0.06974 0.94563 0.0
O6649 O 0.39737 0.05103 0.95806 0.0
O6650 O 0.38418 0.0727 0.97882 0.0
O6651 O 0.40532 0.06084 0.98803 0.0
C6652 C 0.47958 0.03413 0.95955 0.0
C6653 C 0.4724 0.01753 0.95727 0.0
H6654 H 0.43662 0.98895 0.94847 0.0
H6655 H 0.41017 0.99085 0.95124 0.0
H6656 H 0.45912 0.08008 0.99232 0.0
H6657 H 0.48344 0.06458 0.97834 0.0
H6658 H 0.49161 0.03541 0.96241 0.0
H6659 H 0.48188 0.00917 0.95745 0.0
Mn6660 Mn 0.87839 0.20395 0.7976 0.0
Mn6661 Mn 0.91428 0.21497 0.78727 0.0
C6662 C 0.89903 0.20042 0.81399 0.0
C6663 C 0.85446 0.20741 0.80982 0.0
C6664 C 0.90087 0.18467 0.77818 0.0
O6665 O 0.87352 0.21862 0.77982 0.0
O6666 O 0.89806 0.2216 0.77246 0.0
C6667 C 0.90786 0.24922 0.78984 0.0
N6668 N 0.91695 0.23681 0.79287 0.0
C6669 C 0.94032 0.25698 0.79403 0.0
C6670 C 0.92949 0.26833 0.79167 0.0
C6671 C 0.91371 0.26454 0.79002 0.0
C6672 C 0.93154 0.23919 0.79618 0.0
H6673 H 0.89587 0.24753 0.78716 0.0
C6674 C 0.88362 0.22356 0.77041 0.0
O6675 O 0.85645 0.19696 0.79934 0.0
O6676 O 0.86602 0.21646 0.8124 0.0
N6677 N 0.93272 0.20876 0.7994 0.0
C6678 C 0.93862 0.19291 0.802 0.0
C6679 C 0.95639 0.18826 0.80434 0.0
C6680 C 0.9774 0.20927 0.80301 0.0
C6681 C 0.96966 0.22586 0.80032 0.0
C6682 C 0.94127 0.22295 0.79911 0.0
H6683 H 0.93061 0.18351 0.80113 0.0
O6684 O 0.88679 0.19203 0.8151 0.0
O6685 O 0.89905 0.21119 0.80358 0.0
O6686 O 0.88707 0.18766 0.78234 0.0
O6687 O 0.91217 0.19367 0.78049 0.0
C6688 C 0.9757 0.2454 0.79799 0.0
C6689 C 0.96092 0.26069 0.79471 0.0
H6690 H 0.93333 0.28006 0.79143 0.0
H6691 H 0.90562 0.27379 0.78829 0.0
H6692 H 0.95735 0.17579 0.80607 0.0
H6693 H 0.98995 0.20892 0.804 0.0
H6694 H 0.98913 0.24627 0.79875 0.0
H6695 H 0.96996 0.25403 0.79634 0.0
Mn6696 Mn 0.80809 0.62564 0.53977 0.0
Mn6697 Mn 0.79379 0.66007 0.52891 0.0
C6698 C 0.81119 0.6471 0.55564 0.0
C6699 C 0.80362 0.60239 0.55317 0.0
C6700 C 0.82217 0.6453 0.51477 0.0
O6701 O 0.79331 0.62037 0.52182 0.0
O6702 O 0.78149 0.64339 0.51975 0.0
C6703 C 0.76383 0.65754 0.5438 0.0
N6704 N 0.77697 0.66574 0.54247 0.0
C6705 C 0.76303 0.69065 0.55035 0.0
C6706 C 0.74997 0.68009 0.55256 0.0
C6707 C 0.75071 0.66429 0.54978 0.0
C6708 C 0.77809 0.67984 0.54884 0.0
H6709 H 0.7633 0.6457 0.54014 0.0
C6710 C 0.78296 0.62924 0.51616 0.0
O6711 O 0.81449 0.60349 0.54295 0.0
O6712 O 0.79499 0.61438 0.55483 0.0
N6713 N 0.80519 0.67814 0.5355 0.0
C6714 C 0.81735 0.68582 0.52345 0.0
C6715 C 0.82059 0.70585 0.5206 0.0
C6716 C 0.81122 0.72085 0.53053 0.0
C6717 C 0.79714 0.71671 0.54452 0.0
C6718 C 0.7941 0.68714 0.54706 0.0
H6719 H 0.82337 0.67853 0.51548 0.0
O6720 O 0.81976 0.63506 0.55751 0.0
O6721 O 0.80127 0.64614 0.54466 0.0
O6722 O 0.82394 0.63419 0.52426 0.0
O6723 O 0.81067 0.65444 0.5149 0.0
C6724 C 0.78287 0.72752 0.54589 0.0
C6725 C 0.76641 0.72002 0.54807 0.0
H6726 H 0.73846 0.68349 0.55581 0.0
H6727 H 0.74046 0.65735 0.55115 0.0
H6728 H 0.82864 0.70909 0.5117 0.0
H6729 H 0.813 0.7326 0.52689 0.0
H6730 H 0.78395 0.73969 0.54353 0.0
H6731 H 0.75791 0.72937 0.54838 0.0
Mn6732 Mn 0.37557 0.55072 0.29663 0.0
Mn6733 Mn 0.33966 0.54043 0.28589 0.0
C6734 C 0.35481 0.55445 0.31291 0.0
C6735 C 0.39933 0.54655 0.30899 0.0
C6736 C 0.35349 0.57065 0.27731 0.0
O6737 O 0.38033 0.53616 0.27869 0.0
O6738 O 0.35582 0.53405 0.27102 0.0
C6739 C 0.34616 0.50616 0.28792 0.0
N6740 N 0.33701 0.51849 0.2911 0.0
C6741 C 0.31377 0.49818 0.29211 0.0
C6742 C 0.32464 0.48692 0.28947 0.0
C6743 C 0.3404 0.49082 0.28783 0.0
C6744 C 0.32246 0.516 0.29444 0.0
H6745 H 0.35816 0.50792 0.28532 0.0
C6746 C 0.3702 0.53174 0.26904 0.0
O6747 O 0.39766 0.55723 0.29869 0.0
O6748 O 0.38753 0.53777 0.31134 0.0
N6749 N 0.32115 0.54641 0.298 0.0
C6750 C 0.31516 0.56221 0.30072 0.0
C6751 C 0.29737 0.56674 0.3031 0.0
C6752 C 0.27647 0.54563 0.30157 0.0
C6753 C 0.28429 0.52911 0.29873 0.0
C6754 C 0.31267 0.53217 0.29754 0.0
H6755 H 0.32313 0.57167 0.29993 0.0
O6756 O 0.36719 0.56261 0.31424 0.0
O6757 O 0.35475 0.54381 0.30237 0.0
O6758 O 0.36723 0.56731 0.28146 0.0
O6759 O 0.34197 0.56189 0.27955 0.0
C6760 C 0.27834 0.50955 0.29622 0.0
C6761 C 0.2932 0.49436 0.29279 0.0
H6762 H 0.32088 0.47518 0.28894 0.0
H6763 H 0.34852 0.48164 0.28588 0.0
H6764 H 0.29635 0.57919 0.30493 0.0
H6765 H 0.26392 0.54591 0.30254 0.0
H6766 H 0.26492 0.50857 0.29699 0.0
H6767 H 0.28414 0.50097 0.29449 0.0
Mn6768 Mn 0.94803 0.1252 0.548 0.0
Mn6769 Mn 0.96427 0.09101 0.54043 0.0
C6770 C 0.94589 0.10489 0.56573 0.0
C6771 C 0.95178 0.14957 0.5595 0.0
C6772 C 0.93588 0.10412 0.52362 0.0
O6773 O 0.96288 0.1294 0.52981 0.0
O6774 O 0.9771 0.10768 0.53138 0.0
C6775 C 0.9938 0.09335 0.55627 0.0
N6776 N 0.98055 0.08536 0.55476 0.0
C6777 C 0.99445 0.05995 0.56149 0.0
C6778 C 0.00756 0.07031 0.56414 0.0
C6779 C 0.00689 0.08624 0.56198 0.0
C6780 C 0.97943 0.07096 0.56053 0.0
H6781 H 0.99443 0.10527 0.55288 0.0
C6782 C 0.97447 0.12112 0.52586 0.0
O6783 O 0.94093 0.14736 0.54945 0.0
O6784 O 0.96068 0.13797 0.56215 0.0
N6785 N 0.95224 0.07338 0.54753 0.0
C6786 C 0.9397 0.06632 0.53567 0.0
C6787 C 0.93641 0.0465 0.53168 0.0
C6788 C 0.94591 0.03098 0.54059 0.0
C6789 C 0.96019 0.03436 0.55456 0.0
C6790 C 0.96338 0.06382 0.55849 0.0
H6791 H 0.93097 0.07394 0.53185 0.0
O6792 O 0.93663 0.11654 0.56653 0.0
O6793 O 0.95583 0.10558 0.55482 0.0
O6794 O 0.93253 0.11519 0.53272 0.0
O6795 O 0.94819 0.09616 0.52525 0.0
C6796 C 0.97437 0.02345 0.55538 0.0
C6797 C 0.99083 0.03077 0.55789 0.0
H6798 H 0.01903 0.06665 0.56728 0.0
H6799 H 0.0172 0.09304 0.56357 0.0
H6800 H 0.92746 0.04374 0.5235 0.0
H6801 H 0.94385 0.0194 0.53655 0.0
H6802 H 0.97323 0.01142 0.55244 0.0
H6803 H 0.99922 0.02134 0.55774 0.0
Mn6804 Mn 0.37996 0.69671 0.96122 0.0
Mn6805 Mn 0.34555 0.71102 0.97218 0.0
C6806 C 0.35837 0.69301 0.94566 0.0
C6807 C 0.40303 0.70122 0.94756 0.0
C6808 C 0.35996 0.68225 0.9859 0.0
O6809 O 0.38555 0.71191 0.97874 0.0
O6810 O 0.36241 0.72328 0.98097 0.0
C6811 C 0.34898 0.7404 0.9562 0.0
N6812 N 0.34031 0.72767 0.95821 0.0
C6813 C 0.31608 0.74184 0.94885 0.0
C6814 C 0.32708 0.75446 0.94621 0.0
C6815 C 0.34279 0.75338 0.94936 0.0
C6816 C 0.32641 0.72659 0.95141 0.0
H6817 H 0.36082 0.74067 0.95982 0.0
C6818 C 0.37672 0.72247 0.98401 0.0
O6819 O 0.40213 0.69045 0.9579 0.0
O6820 O 0.39094 0.70969 0.94589 0.0
N6821 N 0.32709 0.70011 0.966 0.0
C6822 C 0.31883 0.68887 0.97855 0.0
C6823 C 0.29867 0.68632 0.98114 0.0
C6824 C 0.28414 0.69558 0.97043 0.0
C6825 C 0.28896 0.7088 0.95584 0.0
C6826 C 0.31864 0.71088 0.95377 0.0
H6827 H 0.32574 0.68342 0.98721 0.0
O6828 O 0.37053 0.68463 0.9438 0.0
O6829 O 0.35931 0.70317 0.95642 0.0
O6830 O 0.37142 0.68098 0.97674 0.0
O6831 O 0.3509 0.69387 0.98622 0.0
C6832 C 0.27858 0.72329 0.95352 0.0
C6833 C 0.2866 0.73942 0.95067 0.0
H6834 H 0.3241 0.76587 0.94227 0.0
H6835 H 0.3501 0.76328 0.9475 0.0
H6836 H 0.29504 0.67891 0.99044 0.0
H6837 H 0.27227 0.69431 0.97391 0.0
H6838 H 0.26635 0.72267 0.95569 0.0
H6839 H 0.27752 0.74816 0.94972 0.0
Mn6840 Mn 0.80389 0.62932 0.7107 0.0
Mn6841 Mn 0.78959 0.59498 0.72125 0.0
C6842 C 0.80835 0.60779 0.69517 0.0
C6843 C 0.79905 0.65235 0.69747 0.0
C6844 C 0.81785 0.60969 0.73562 0.0
O6845 O 0.7886 0.6347 0.72816 0.0
O6846 O 0.77675 0.6118 0.72945 0.0
C6847 C 0.76123 0.59843 0.70363 0.0
N6848 N 0.77373 0.58963 0.70648 0.0
C6849 C 0.76003 0.56555 0.69638 0.0
C6850 C 0.74773 0.57665 0.69275 0.0
C6851 C 0.74872 0.59236 0.6959 0.0
C6852 C 0.77519 0.57574 0.69971 0.0
H6853 H 0.76079 0.61027 0.70726 0.0
C6854 C 0.77775 0.626 0.73293 0.0
O6855 O 0.8098 0.65152 0.70784 0.0
O6856 O 0.79086 0.64012 0.69542 0.0
N6857 N 0.8008 0.57643 0.7158 0.0
C6858 C 0.81116 0.56831 0.72917 0.0
C6859 C 0.81328 0.54818 0.73234 0.0
C6860 C 0.80449 0.53352 0.72143 0.0
C6861 C 0.79223 0.53817 0.70596 0.0
C6862 C 0.79067 0.56783 0.70312 0.0
H6863 H 0.81619 0.57535 0.73799 0.0
O6864 O 0.81639 0.62018 0.69335 0.0
O6865 O 0.79796 0.60859 0.70573 0.0
O6866 O 0.81938 0.62094 0.7263 0.0
O6867 O 0.80618 0.60067 0.73591 0.0
C6868 C 0.77776 0.52793 0.70297 0.0
C6869 C 0.76194 0.5361 0.69895 0.0
H6870 H 0.73659 0.57375 0.68806 0.0
H6871 H 0.73904 0.59975 0.69333 0.0
H6872 H 0.82015 0.54467 0.74209 0.0
H6873 H 0.80539 0.52173 0.72524 0.0
H6874 H 0.77807 0.51574 0.70542 0.0
H6875 H 0.75315 0.52711 0.69763 0.0
Mn6876 Mn 0.445 0.12578 0.21378 0.0
Mn6877 Mn 0.46 0.15993 0.22466 0.0
C6878 C 0.44258 0.14726 0.19783 0.0
C6879 C 0.44862 0.10231 0.20051 0.0
C6880 C 0.43124 0.14581 0.23868 0.0
O6881 O 0.45969 0.12018 0.2317 0.0
O6882 O 0.47189 0.14301 0.23392 0.0
C6883 C 0.49016 0.15697 0.2102 0.0
N6884 N 0.47708 0.16532 0.2113 0.0
C6885 C 0.49145 0.19006 0.20357 0.0
C6886 C 0.50442 0.17933 0.20159 0.0
C6887 C 0.50345 0.16355 0.2044 0.0
C6888 C 0.47625 0.17944 0.20491 0.0
H6889 H 0.49051 0.14514 0.21391 0.0
C6890 C 0.4702 0.12885 0.23738 0.0
O6891 O 0.43786 0.10386 0.21077 0.0
O6892 O 0.45769 0.11397 0.19874 0.0
N6893 N 0.44895 0.17816 0.21789 0.0
C6894 C 0.43671 0.18606 0.22973 0.0
C6895 C 0.43365 0.20615 0.2324 0.0
C6896 C 0.44334 0.22096 0.22252 0.0
C6897 C 0.45757 0.21656 0.20877 0.0
C6898 C 0.4603 0.18695 0.20644 0.0
H6899 H 0.43048 0.17891 0.23764 0.0
O6900 O 0.43364 0.13549 0.196 0.0
O6901 O 0.45243 0.14607 0.20885 0.0
O6902 O 0.42931 0.13473 0.2292 0.0
O6903 O 0.44292 0.1547 0.2386 0.0
C6904 C 0.47197 0.2272 0.20755 0.0
C6905 C 0.48837 0.21948 0.20565 0.0
H6906 H 0.51601 0.18258 0.19847 0.0
H6907 H 0.51363 0.15648 0.20319 0.0
H6908 H 0.42551 0.20954 0.24117 0.0
H6909 H 0.44164 0.23276 0.22606 0.0
H6910 H 0.47099 0.23938 0.20983 0.0
H6911 H 0.49698 0.22873 0.20543 0.0
C6912 C 0.07041 0.18642 0.4463 0.0
C6913 C 0.08104 0.18662 0.45851 0.0
H6914 H 0.05191 0.17434 0.4352 0.0
C6915 C 0.07989 0.17519 0.46989 0.0
H6916 H 0.071 0.195 0.4373 0.0
C6917 C 0.06908 0.16336 0.46864 0.0
C6918 C 0.05902 0.16262 0.45601 0.0
H6919 H 0.08785 0.17495 0.47947 0.0
H6920 H 0.06901 0.15444 0.47733 0.0
C6921 C 0.05948 0.17456 0.44508 0.0
C6922 C 0.82672 0.34024 0.71536 0.0
C6923 C 0.81693 0.34106 0.70252 0.0
H6924 H 0.8457 0.32906 0.72624 0.0
C6925 C 0.81819 0.32956 0.69117 0.0
H6926 H 0.82606 0.34879 0.7244 0.0
C6927 C 0.82961 0.31809 0.69224 0.0
C6928 C 0.83996 0.31789 0.7047 0.0
H6929 H 0.81086 0.32985 0.68111 0.0
H6930 H 0.83079 0.30987 0.68297 0.0
C6931 C 0.83803 0.32886 0.71643 0.0
C6932 C 0.67628 0.06568 0.9409 0.0
C6933 C 0.66499 0.06418 0.9524 0.0
H6934 H 0.69564 0.07864 0.93256 0.0
C6935 C 0.66588 0.07383 0.96536 0.0
H6936 H 0.67591 0.05847 0.93075 0.0
C6937 C 0.6771 0.08527 0.96641 0.0
C6938 C 0.68781 0.08748 0.95453 0.0
H6939 H 0.65748 0.07295 0.97452 0.0
H6940 H 0.67694 0.09283 0.97631 0.0
C6941 C 0.68758 0.07725 0.94195 0.0
C6942 C 0.93555 0.92498 0.18869 0.0
C6943 C 0.93599 0.91318 0.19978 0.0
H6944 H 0.92354 0.9448 0.17995 0.0
C6945 C 0.92488 0.91341 0.21156 0.0
H6946 H 0.94386 0.92518 0.17942 0.0
C6947 C 0.91328 0.92462 0.21187 0.0
C6948 C 0.91236 0.93601 0.20041 0.0
H6949 H 0.92481 0.90459 0.22034 0.0
H6950 H 0.90469 0.92402 0.22087 0.0
C6951 C 0.92387 0.93625 0.189 0.0
C6952 C 0.07894 0.08614 0.78471 0.0
C6953 C 0.06804 0.08766 0.79655 0.0
H6954 H 0.09874 0.07428 0.7762 0.0
C6955 C 0.06815 0.07676 0.80853 0.0
H6956 H 0.07922 0.09426 0.77527 0.0
C6957 C 0.07946 0.06517 0.80907 0.0
C6958 C 0.0909 0.06426 0.79765 0.0
H6959 H 0.05996 0.07759 0.81786 0.0
H6960 H 0.07966 0.05741 0.8188 0.0
C6961 C 0.09019 0.07464 0.78526 0.0
C6962 C 0.92695 0.33537 0.04369 0.0
C6963 C 0.93641 0.33744 0.05664 0.0
H6964 H 0.90837 0.32304 0.0334 0.0
C6965 C 0.93516 0.3269 0.06886 0.0
H6966 H 0.92765 0.34317 0.034 0.0
C6967 C 0.92395 0.31521 0.0685 0.0
C6968 C 0.91383 0.31386 0.05592 0.0
H6969 H 0.94223 0.3282 0.07902 0.0
H6970 H 0.92269 0.30777 0.07841 0.0
C6971 C 0.91585 0.32378 0.04333 0.0
C6972 C 0.66454 0.17715 0.28251 0.0
C6973 C 0.66419 0.18766 0.29479 0.0
H6974 H 0.67501 0.1572 0.27268 0.0
C6975 C 0.67578 0.18676 0.30606 0.0
H6976 H 0.65586 0.17753 0.27359 0.0
C6977 C 0.68686 0.175 0.30553 0.0
C6978 C 0.68656 0.16392 0.29374 0.0
H6979 H 0.67584 0.19465 0.31569 0.0
H6980 H 0.69517 0.17415 0.31477 0.0
C6981 C 0.67556 0.16546 0.28199 0.0
C6982 C 0.8296 0.91729 0.53601 0.0
C6983 C 0.81875 0.91577 0.54792 0.0
H6984 H 0.8491 0.92934 0.52712 0.0
C6985 C 0.81882 0.92686 0.55974 0.0
H6986 H 0.82995 0.90906 0.52667 0.0
C6987 C 0.82996 0.93867 0.55999 0.0
C6988 C 0.84128 0.93965 0.54843 0.0
H6989 H 0.81069 0.92604 0.56914 0.0
H6990 H 0.83011 0.94661 0.56958 0.0
C6991 C 0.84066 0.929 0.53626 0.0
C6992 C 0.43746 0.07823 0.18839 0.0
C6993 C 0.44958 0.08888 0.18984 0.0
H6994 H 0.42756 0.05984 0.17508 0.0
C6995 C 0.46204 0.08771 0.17961 0.0
H6996 H 0.42765 0.07882 0.19603 0.0
C6997 C 0.46199 0.0769 0.16769 0.0
C6998 C 0.44948 0.06688 0.16558 0.0
H6999 H 0.47162 0.09562 0.18038 0.0
H7000 H 0.47154 0.07686 0.1597 0.0
C7001 C 0.4374 0.06734 0.17637 0.0
C7002 C 0.92619 0.69359 0.43676 0.0
C7003 C 0.91581 0.70603 0.43644 0.0
H7004 H 0.9451 0.68216 0.42562 0.0
C7005 C 0.91789 0.71753 0.4253 0.0
H7006 H 0.92489 0.68452 0.44518 0.0
C7007 C 0.9294 0.71617 0.41417 0.0
C7008 C 0.93917 0.70327 0.41384 0.0
H7009 H 0.91018 0.72729 0.42473 0.0
H7010 H 0.9302 0.72498 0.40541 0.0
C7011 C 0.93777 0.69223 0.42555 0.0
C7012 C 0.28962 0.17457 0.66628 0.0
C7013 C 0.30098 0.18599 0.66515 0.0
H7014 H 0.28152 0.15458 0.67808 0.0
C7015 C 0.31249 0.18652 0.67655 0.0
H7016 H 0.28057 0.17378 0.65776 0.0
C7017 C 0.31307 0.17541 0.6883 0.0
C7018 C 0.30214 0.16351 0.68892 0.0
H7019 H 0.32145 0.19515 0.67604 0.0
H7020 H 0.32245 0.17576 0.69648 0.0
C7021 C 0.29019 0.16351 0.67798 0.0
C7022 C 0.83119 0.53289 0.9294 0.0
C7023 C 0.83311 0.54613 0.93848 0.0
H7024 H 0.81969 0.52241 0.91039 0.0
C7025 C 0.82292 0.55851 0.93642 0.0
H7026 H 0.83874 0.52308 0.93076 0.0
C7027 C 0.81186 0.55809 0.92466 0.0
C7028 C 0.81087 0.5453 0.91477 0.0
H7029 H 0.82413 0.56887 0.94322 0.0
H7030 H 0.80479 0.56815 0.92269 0.0
C7031 C 0.82024 0.53249 0.91769 0.0
C7032 C 0.44869 0.17887 0.06627 0.0
C7033 C 0.46056 0.16803 0.0646 0.0
H7034 H 0.43899 0.19678 0.08022 0.0
C7035 C 0.473 0.16848 0.07492 0.0
H7036 H 0.43893 0.1788 0.05854 0.0
C7037 C 0.47298 0.17865 0.08735 0.0
C7038 C 0.46057 0.18868 0.08974 0.0
H7039 H 0.48238 0.16036 0.07393 0.0
H7040 H 0.48237 0.1781 0.09552 0.0
C7041 C 0.44871 0.18914 0.07873 0.0
C7042 C 0.82688 0.71575 0.33856 0.0
C7043 C 0.81621 0.70366 0.33968 0.0
H7044 H 0.84677 0.72488 0.3274 0.0
C7045 C 0.81709 0.6917 0.32875 0.0
H7046 H 0.82661 0.72519 0.34668 0.0
C7047 C 0.82884 0.6915 0.31753 0.0
C7048 C 0.83997 0.70326 0.317 0.0
H7049 H 0.80912 0.68216 0.32928 0.0
H7050 H 0.82961 0.68182 0.30974 0.0
C7051 C 0.83852 0.71556 0.32743 0.0
C7052 C 0.28332 0.0907 0.57469 0.0
C7053 C 0.29545 0.09184 0.56404 0.0
H7054 H 0.27428 0.07967 0.59473 0.0
C7055 C 0.30746 0.081 0.56497 0.0
H7056 H 0.27385 0.09878 0.57437 0.0
C7057 C 0.3077 0.0699 0.5768 0.0
C7058 C 0.29596 0.06942 0.58797 0.0
H7059 H 0.31703 0.08157 0.55703 0.0
H7060 H 0.31745 0.0622 0.57762 0.0
C7061 C 0.28358 0.0797 0.58645 0.0
C7062 C 0.92666 0.53941 0.83674 0.0
C7063 C 0.93641 0.5522 0.83844 0.0
H7064 H 0.9076 0.52936 0.82491 0.0
C7065 C 0.93529 0.56423 0.8277 0.0
H7066 H 0.92726 0.52987 0.84472 0.0
C7067 C 0.9239 0.56391 0.81621 0.0
C7068 C 0.91344 0.55157 0.81527 0.0
H7069 H 0.94259 0.57426 0.8287 0.0
H7070 H 0.92276 0.57372 0.80862 0.0
C7071 C 0.91534 0.5391 0.82534 0.0
C7072 C 0.17905 0.4689 0.08732 0.0
C7073 C 0.1885 0.45613 0.09009 0.0
H7074 H 0.16108 0.47867 0.07379 0.0
C7075 C 0.18805 0.44372 0.07966 0.0
H7076 H 0.1792 0.4787 0.09501 0.0
C7077 C 0.1775 0.44365 0.0674 0.0
C7078 C 0.1673 0.45601 0.06535 0.0
H7079 H 0.1952 0.4337 0.08149 0.0
H7080 H 0.1767 0.43355 0.06015 0.0
C7081 C 0.16866 0.46887 0.07509 0.0
C7082 C 0.67598 0.31512 0.1863 0.0
C7083 C 0.66455 0.30371 0.18716 0.0
H7084 H 0.6953 0.32409 0.17372 0.0
C7085 C 0.665 0.29156 0.17649 0.0
H7086 H 0.67595 0.32466 0.19431 0.0
C7087 C 0.676 0.29123 0.16477 0.0
C7088 C 0.68692 0.30305 0.16333 0.0
H7089 H 0.65646 0.28251 0.17681 0.0
H7090 H 0.67556 0.28196 0.15647 0.0
C7091 C 0.68706 0.31479 0.17449 0.0
C7092 C 0.72138 0.91489 0.42623 0.0
C7093 C 0.70911 0.91366 0.43667 0.0
H7094 H 0.73076 0.92641 0.40666 0.0
C7095 C 0.6974 0.92483 0.43619 0.0
H7096 H 0.73064 0.90656 0.42631 0.0
C7097 C 0.69748 0.93632 0.42482 0.0
C7098 C 0.70925 0.93684 0.41373 0.0
H7099 H 0.68777 0.9242 0.44405 0.0
H7100 H 0.68789 0.94424 0.42422 0.0
C7101 C 0.72145 0.92631 0.41493 0.0
C7102 C 0.06609 0.93617 0.67681 0.0
C7103 C 0.06506 0.94791 0.66575 0.0
H7104 H 0.07861 0.92703 0.69608 0.0
C7105 C 0.07523 0.96044 0.66683 0.0
H7106 H 0.05846 0.92635 0.6763 0.0
C7107 C 0.08673 0.96081 0.67804 0.0
C7108 C 0.08838 0.94869 0.68856 0.0
H7109 H 0.07474 0.96977 0.65859 0.0
H7110 H 0.0947 0.97037 0.67806 0.0
C7111 C 0.07764 0.93657 0.68814 0.0
C7112 C 0.5419 0.33888 0.42799 0.0
C7113 C 0.5537 0.33936 0.43906 0.0
H7114 H 0.53264 0.3279 0.40801 0.0
C7115 C 0.56484 0.32761 0.43886 0.0
H7116 H 0.53308 0.34767 0.42777 0.0
C7117 C 0.56457 0.31615 0.42741 0.0
C7118 C 0.55316 0.31616 0.4159 0.0
H7119 H 0.57411 0.32762 0.44717 0.0
H7120 H 0.57366 0.30764 0.42721 0.0
C7121 C 0.54163 0.32748 0.41661 0.0
C7122 C 0.07576 0.77964 0.08717 0.0
C7123 C 0.06495 0.79165 0.0879 0.0
H7124 H 0.09621 0.77085 0.0767 0.0
C7125 C 0.06577 0.80345 0.07687 0.0
H7126 H 0.07546 0.77033 0.09542 0.0
C7127 C 0.07775 0.80373 0.06603 0.0
C7128 C 0.08916 0.79224 0.06604 0.0
H7129 H 0.05766 0.8129 0.07713 0.0
H7130 H 0.07853 0.81338 0.0582 0.0
C7131 C 0.0877 0.77995 0.07641 0.0
C7132 C 0.68862 0.82883 0.31556 0.0
C7133 C 0.6996 0.84073 0.31543 0.0
H7134 H 0.68017 0.80857 0.32697 0.0
C7135 C 0.71147 0.84025 0.32643 0.0
H7136 H 0.6793 0.82881 0.30732 0.0
C7137 C 0.71197 0.82869 0.33766 0.0
C7138 C 0.70063 0.81718 0.33827 0.0
H7139 H 0.72016 0.84916 0.32672 0.0
H7140 H 0.72101 0.82911 0.34621 0.0
C7141 C 0.68913 0.8172 0.32685 0.0
C7142 C 0.05729 0.43968 0.83166 0.0
C7143 C 0.04607 0.43992 0.84334 0.0
H7144 H 0.06599 0.42823 0.8115 0.0
C7145 C 0.03394 0.42926 0.84248 0.0
H7146 H 0.06682 0.44768 0.83196 0.0
C7147 C 0.03344 0.41819 0.83077 0.0
C7148 C 0.04506 0.41738 0.81954 0.0
H7149 H 0.02506 0.42908 0.8512 0.0
H7150 H 0.02419 0.40986 0.83091 0.0
C7151 C 0.0568 0.42852 0.8199 0.0
C7152 C 0.92559 0.83682 0.53552 0.0
C7153 C 0.93652 0.83903 0.54718 0.0
H7154 H 0.906 0.82424 0.52772 0.0
C7155 C 0.9368 0.82861 0.55959 0.0
H7156 H 0.92505 0.84454 0.52576 0.0
C7157 C 0.92575 0.81686 0.56076 0.0
C7158 C 0.91423 0.81532 0.54953 0.0
H7159 H 0.94507 0.83 0.5688 0.0
H7160 H 0.92577 0.80952 0.57081 0.0
C7161 C 0.91462 0.82514 0.53667 0.0
C7162 C 0.16579 0.6833 0.28627 0.0
C7163 C 0.1646 0.69287 0.29924 0.0
H7164 H 0.17762 0.66478 0.27526 0.0
C7165 C 0.17603 0.6919 0.31064 0.0
H7166 H 0.15727 0.6838 0.2772 0.0
C7167 C 0.18781 0.68086 0.30954 0.0
C7168 C 0.18838 0.67064 0.29698 0.0
H7169 H 0.17544 0.6991 0.32079 0.0
H7170 H 0.19596 0.67981 0.31889 0.0
C7171 C 0.17752 0.67238 0.28514 0.0
C7172 C 0.32854 0.93659 0.05843 0.0
C7173 C 0.33945 0.93767 0.04654 0.0
H7174 H 0.3093 0.92413 0.06766 0.0
C7175 C 0.33787 0.92799 0.03368 0.0
H7176 H 0.32945 0.94385 0.06851 0.0
C7177 C 0.32642 0.91674 0.0332 0.0
C7178 C 0.3162 0.91486 0.04556 0.0
H7179 H 0.34598 0.92857 0.02425 0.0
H7180 H 0.32608 0.90902 0.02343 0.0
C7181 C 0.317 0.92527 0.05794 0.0
C7182 C 0.0875 0.6792 0.96532 0.0
C7183 C 0.09042 0.68844 0.9524 0.0
H7184 H 0.07431 0.66098 0.97509 0.0
C7185 C 0.08042 0.68737 0.9397 0.0
H7186 H 0.09484 0.67982 0.97536 0.0
C7187 C 0.06849 0.67642 0.93953 0.0
C7188 C 0.06639 0.6664 0.95208 0.0
H7189 H 0.08238 0.69433 0.92956 0.0
H7190 H 0.06159 0.67514 0.92925 0.0
C7191 C 0.07566 0.66838 0.96517 0.0
C7192 C 0.32752 0.83936 0.71952 0.0
C7193 C 0.31647 0.84063 0.70778 0.0
H7194 H 0.34737 0.82763 0.72805 0.0
C7195 C 0.31633 0.82943 0.69609 0.0
H7196 H 0.32796 0.84771 0.72875 0.0
C7197 C 0.32758 0.8178 0.69569 0.0
C7198 C 0.33917 0.81714 0.70697 0.0
H7199 H 0.308 0.83007 0.68686 0.0
H7200 H 0.32761 0.8098 0.68615 0.0
C7201 C 0.33869 0.8278 0.71912 0.0
C7202 C 0.17347 0.08831 0.46677 0.0
C7203 C 0.18339 0.08966 0.45405 0.0
H7204 H 0.15419 0.07691 0.47691 0.0
C7205 C 0.18211 0.07874 0.44216 0.0
H7206 H 0.17412 0.09641 0.47621 0.0
C7207 C 0.17055 0.06737 0.44261 0.0
C7208 C 0.16003 0.06674 0.45493 0.0
H7209 H 0.18949 0.07946 0.43216 0.0
H7210 H 0.16938 0.0596 0.43295 0.0
C7211 C 0.16197 0.07708 0.46719 0.0
C7212 C 0.56294 0.93613 0.82743 0.0
C7213 C 0.55024 0.93633 0.8375 0.0
H7214 H 0.57421 0.92469 0.80856 0.0
C7215 C 0.5382 0.92589 0.83484 0.0
H7216 H 0.57244 0.94397 0.82917 0.0
C7217 C 0.53921 0.91493 0.82314 0.0
C7218 C 0.5523 0.91402 0.81367 0.0
H7219 H 0.5282 0.92572 0.84227 0.0
H7220 H 0.52995 0.9067 0.82194 0.0
C7221 C 0.56395 0.92508 0.81562 0.0
C7222 C 0.09027 0.28717 0.57871 0.0
C7223 C 0.09066 0.29965 0.56843 0.0
H7224 H 0.07948 0.27677 0.5982 0.0
C7225 C 0.07885 0.31067 0.56922 0.0
H7226 H 0.0991 0.27839 0.57839 0.0
C7227 C 0.06748 0.3097 0.58067 0.0
C7228 C 0.0677 0.29769 0.59154 0.0
H7229 H 0.07881 0.32042 0.56148 0.0
H7230 H 0.05898 0.31876 0.58147 0.0
C7231 C 0.07897 0.28621 0.5901 0.0
C7232 C 0.53899 0.83717 0.92975 0.0
C7233 C 0.55228 0.8382 0.93893 0.0
H7234 H 0.52779 0.82641 0.9107 0.0
C7235 C 0.56404 0.82733 0.93672 0.0
H7236 H 0.52962 0.84525 0.93119 0.0
C7237 C 0.56293 0.81636 0.92486 0.0
C7238 C 0.55006 0.81612 0.91502 0.0
H7239 H 0.57443 0.82783 0.94356 0.0
H7240 H 0.57251 0.80866 0.92288 0.0
C7241 C 0.53791 0.82632 0.91796 0.0
C7242 C 0.17522 0.28849 0.66721 0.0
C7243 C 0.18685 0.29961 0.66555 0.0
H7244 H 0.15506 0.28118 0.67923 0.0
C7245 C 0.18734 0.31174 0.67632 0.0
H7246 H 0.17441 0.27897 0.65923 0.0
C7247 C 0.17607 0.31302 0.68797 0.0
C7248 C 0.16404 0.30223 0.68911 0.0
H7249 H 0.19606 0.32056 0.67539 0.0
H7250 H 0.17644 0.32279 0.69568 0.0
C7251 C 0.16404 0.28978 0.67875 0.0
C7252 C 0.09116 0.46122 0.18162 0.0
C7253 C 0.09217 0.44902 0.19218 0.0
H7254 H 0.08024 0.4705 0.16166 0.0
C7255 C 0.08126 0.43709 0.19113 0.0
H7256 H 0.09928 0.47064 0.18207 0.0
C7257 C 0.0702 0.43699 0.17925 0.0
C7258 C 0.06982 0.44882 0.16819 0.0
H7259 H 0.08172 0.42747 0.19902 0.0
H7260 H 0.06244 0.4273 0.17831 0.0
C7261 C 0.08019 0.46113 0.16986 0.0
C7262 C 0.31811 0.69267 0.8273 0.0
C7263 C 0.31834 0.70499 0.83781 0.0
H7264 H 0.32925 0.68167 0.80814 0.0
C7265 C 0.32917 0.71676 0.83569 0.0
H7266 H 0.30992 0.6834 0.82863 0.0
C7267 C 0.34018 0.71576 0.82405 0.0
C7268 C 0.34067 0.70296 0.81417 0.0
H7269 H 0.32964 0.72646 0.84349 0.0
H7270 H 0.34875 0.72475 0.82323 0.0
C7271 C 0.32919 0.69167 0.81556 0.0
C7272 C 0.92675 0.03098 0.33379 0.0
C7273 C 0.93766 0.04286 0.33484 0.0
H7274 H 0.90655 0.02251 0.32264 0.0
C7275 C 0.93767 0.05443 0.32357 0.0
H7276 H 0.92648 0.02181 0.34222 0.0
C7277 C 0.92622 0.05478 0.31224 0.0
C7278 C 0.91454 0.0436 0.31206 0.0
H7279 H 0.94594 0.06372 0.32404 0.0
H7280 H 0.92596 0.06434 0.30427 0.0
C7281 C 0.9153 0.03137 0.32256 0.0
C7282 C 0.44429 0.6752 0.56626 0.0
C7283 C 0.45584 0.66387 0.56705 0.0
H7284 H 0.43438 0.6954 0.57651 0.0
C7285 C 0.4674 0.66547 0.57822 0.0
H7286 H 0.43518 0.67432 0.55781 0.0
C7287 C 0.46696 0.67753 0.58888 0.0
C7288 C 0.45492 0.68835 0.5887 0.0
H7289 H 0.47651 0.65703 0.57917 0.0
H7290 H 0.47574 0.67797 0.59769 0.0
C7291 C 0.44383 0.68731 0.57697 0.0
C7292 C 0.92794 0.19376 0.93801 0.0
C7293 C 0.91715 0.20586 0.93785 0.0
H7294 H 0.94715 0.18298 0.92671 0.0
C7295 C 0.91869 0.21732 0.92657 0.0
H7296 H 0.92708 0.18469 0.9465 0.0
C7297 C 0.93012 0.21632 0.91527 0.0
C7298 C 0.94041 0.20384 0.91489 0.0
H7299 H 0.91066 0.22682 0.92605 0.0
H7300 H 0.93051 0.22512 0.90647 0.0
C7301 C 0.93946 0.19277 0.92666 0.0
C7302 C 0.97066 0.57479 0.16404 0.0
C7303 C 0.95885 0.56386 0.16261 0.0
H7304 H 0.97922 0.5947 0.17562 0.0
C7305 C 0.94677 0.56428 0.17344 0.0
H7306 H 0.98018 0.57488 0.156 0.0
C7307 C 0.9462 0.57583 0.18488 0.0
C7308 C 0.95769 0.58723 0.18572 0.0
H7309 H 0.93742 0.55611 0.17268 0.0
H7310 H 0.93643 0.57625 0.19258 0.0
C7311 C 0.9701 0.58623 0.17537 0.0
C7312 C 0.82712 0.83678 0.22177 0.0
C7313 C 0.81625 0.8377 0.20984 0.0
H7314 H 0.84733 0.82583 0.23052 0.0
C7315 C 0.81676 0.82659 0.19808 0.0
H7316 H 0.82708 0.84508 0.23106 0.0
C7317 C 0.82848 0.81544 0.19777 0.0
C7318 C 0.83993 0.8152 0.20922 0.0
H7319 H 0.80859 0.82698 0.18869 0.0
H7320 H 0.82902 0.80754 0.18816 0.0
C7321 C 0.83879 0.8257 0.22146 0.0
C7322 C 0.66546 0.57553 0.46418 0.0
C7323 C 0.66459 0.56615 0.45102 0.0
H7324 H 0.67655 0.5943 0.47554 0.0
C7325 C 0.67592 0.56786 0.4396 0.0
H7326 H 0.65702 0.5745 0.47329 0.0
C7327 C 0.68725 0.57935 0.44092 0.0
C7328 C 0.68748 0.58932 0.45369 0.0
H7329 H 0.67558 0.56085 0.42931 0.0
H7330 H 0.69534 0.5809 0.43158 0.0
C7331 C 0.67672 0.58692 0.4655 0.0
C7332 C 0.93677 0.42732 0.6913 0.0
C7333 C 0.93792 0.41585 0.70267 0.0
H7334 H 0.92415 0.44688 0.68287 0.0
C7335 C 0.9278 0.4165 0.71527 0.0
H7336 H 0.94435 0.42714 0.68142 0.0
C7337 C 0.91631 0.42772 0.7161 0.0
C7338 C 0.91456 0.43868 0.70436 0.0
H7339 H 0.92835 0.40795 0.72431 0.0
H7340 H 0.90841 0.4274 0.72572 0.0
C7341 C 0.9252 0.43863 0.69214 0.0
C7342 C 0.08079 0.56801 0.31002 0.0
C7343 C 0.09173 0.5666 0.2982 0.0
H7344 H 0.06165 0.58085 0.319 0.0
C7345 C 0.09038 0.57627 0.28528 0.0
H7346 H 0.08152 0.5608 0.32015 0.0
C7347 C 0.07913 0.58774 0.28465 0.0
C7348 C 0.06883 0.58987 0.29689 0.0
H7349 H 0.09851 0.57548 0.27588 0.0
H7350 H 0.07898 0.59539 0.27483 0.0
C7351 C 0.06942 0.57953 0.30936 0.0
C7352 C 0.66532 0.67674 0.78993 0.0
C7353 C 0.66465 0.6871 0.80234 0.0
H7354 H 0.6761 0.65703 0.77995 0.0
C7355 C 0.67598 0.68603 0.81385 0.0
H7356 H 0.65686 0.67723 0.78079 0.0
C7357 C 0.68715 0.67432 0.81334 0.0
C7358 C 0.68721 0.66345 0.80132 0.0
H7359 H 0.67579 0.69379 0.8236 0.0
H7360 H 0.6953 0.67337 0.82271 0.0
C7361 C 0.67639 0.66511 0.78943 0.0
C7362 C 0.82198 0.41813 0.03473 0.0
C7363 C 0.81269 0.41462 0.04742 0.0
H7364 H 0.84025 0.43178 0.02577 0.0
C7365 C 0.81361 0.42402 0.0606 0.0
H7366 H 0.82147 0.41123 0.02436 0.0
C7367 C 0.82455 0.43589 0.06147 0.0
C7368 C 0.83467 0.43853 0.04915 0.0
H7369 H 0.80659 0.42157 0.07059 0.0
H7370 H 0.82576 0.44227 0.0721 0.0
C7371 C 0.83277 0.42995 0.03556 0.0
C7372 C 0.44356 0.56618 0.6751 0.0
C7373 C 0.45426 0.56508 0.66302 0.0
H7374 H 0.43578 0.57907 0.69468 0.0
C7375 C 0.46653 0.57561 0.66262 0.0
H7376 H 0.43396 0.55828 0.67574 0.0
C7377 C 0.46758 0.58748 0.67343 0.0
C7378 C 0.45638 0.58918 0.68495 0.0
H7379 H 0.47504 0.57509 0.65354 0.0
H7380 H 0.47683 0.59573 0.67232 0.0
C7381 C 0.44461 0.57811 0.68596 0.0
C7382 C 0.28917 0.6659 0.1792 0.0
C7383 C 0.30241 0.66535 0.18848 0.0
H7384 H 0.27744 0.67673 0.16051 0.0
C7385 C 0.31352 0.67696 0.18676 0.0
H7386 H 0.2803 0.65724 0.18026 0.0
C7387 C 0.31183 0.68828 0.17532 0.0
C7388 C 0.299 0.68819 0.16542 0.0
H7389 H 0.32384 0.67687 0.19372 0.0
H7390 H 0.32094 0.69661 0.17374 0.0
C7391 C 0.28749 0.67715 0.16785 0.0
C7392 C 0.83572 0.04035 0.42655 0.0
C7393 C 0.83736 0.05331 0.4361 0.0
H7394 H 0.82439 0.03009 0.40732 0.0
C7395 C 0.82698 0.06559 0.43421 0.0
H7396 H 0.84341 0.03062 0.42769 0.0
C7397 C 0.8159 0.06526 0.42236 0.0
C7398 C 0.81504 0.05266 0.41219 0.0
H7399 H 0.82797 0.07577 0.4413 0.0
H7400 H 0.80858 0.07519 0.42066 0.0
C7401 C 0.82478 0.04005 0.41479 0.0
C7402 C 0.82775 0.2181 0.84254 0.0
C7403 C 0.81745 0.20563 0.84287 0.0
H7404 H 0.84726 0.22855 0.83182 0.0
C7405 C 0.81827 0.19467 0.83099 0.0
H7406 H 0.82743 0.22683 0.85142 0.0
C7407 C 0.82973 0.1957 0.81962 0.0
C7408 C 0.84061 0.2077 0.81991 0.0
H7409 H 0.81053 0.18492 0.83089 0.0
H7410 H 0.83053 0.18668 0.81107 0.0
C7411 C 0.83916 0.21912 0.83124 0.0
C7412 C 0.28558 0.57741 0.0894 0.0
C7413 C 0.29755 0.56665 0.09106 0.0
H7414 H 0.2768 0.59691 0.07728 0.0
C7415 C 0.30946 0.56667 0.0801 0.0
H7416 H 0.27616 0.57772 0.09754 0.0
C7417 C 0.30982 0.57781 0.06834 0.0
C7418 C 0.29828 0.58913 0.06731 0.0
H7419 H 0.31888 0.55858 0.08105 0.0
H7420 H 0.31952 0.57799 0.06053 0.0
C7421 C 0.28594 0.58846 0.07772 0.0
C7422 C 0.18704 0.9454 0.58025 0.0
C7423 C 0.18825 0.9575 0.59093 0.0
H7424 H 0.1743 0.93579 0.56133 0.0
C7425 C 0.17855 0.97031 0.5892 0.0
H7426 H 0.19431 0.93535 0.58128 0.0
C7427 C 0.1672 0.97058 0.57786 0.0
C7428 C 0.16517 0.95803 0.56788 0.0
H7429 H 0.17924 0.9799 0.59712 0.0
H7430 H 0.1595 0.98035 0.57742 0.0
C7431 C 0.17558 0.94565 0.56881 0.0
C7432 C 0.66776 0.78343 0.67487 0.0
C7433 C 0.66609 0.79539 0.68559 0.0
H7434 H 0.67924 0.77512 0.65482 0.0
C7435 C 0.67648 0.80781 0.68496 0.0
H7436 H 0.66006 0.77365 0.67503 0.0
C7437 C 0.6876 0.80869 0.67322 0.0
C7438 C 0.68851 0.79716 0.66191 0.0
H7439 H 0.67549 0.81725 0.69302 0.0
H7440 H 0.69488 0.81875 0.67253 0.0
C7441 C 0.6788 0.7843 0.66322 0.0
C7442 C 0.69146 0.42534 0.93589 0.0
C7443 C 0.703 0.41396 0.9361 0.0
H7444 H 0.68144 0.4445 0.92384 0.0
C7445 C 0.71434 0.41442 0.92457 0.0
H7446 H 0.68247 0.42532 0.94451 0.0
C7447 C 0.71374 0.42537 0.91275 0.0
C7448 C 0.70176 0.43623 0.91203 0.0
H7449 H 0.72341 0.40589 0.9243 0.0
H7450 H 0.7224 0.42492 0.90382 0.0
C7451 C 0.69084 0.43634 0.924 0.0
C7452 C 0.6969 0.32688 0.81496 0.0
C7453 C 0.70895 0.33766 0.81431 0.0
H7454 H 0.6866 0.3082 0.82744 0.0
C7455 C 0.72102 0.33642 0.82496 0.0
H7456 H 0.6874 0.32755 0.80694 0.0
C7457 C 0.72055 0.32542 0.83664 0.0
C7458 C 0.708 0.31534 0.83799 0.0
H7459 H 0.73053 0.34446 0.82476 0.0
H7460 H 0.72974 0.3253 0.84504 0.0
C7461 C 0.69643 0.3158 0.82671 0.0
C7462 C 0.03509 0.92475 0.33731 0.0
C7463 C 0.04756 0.9349 0.33896 0.0
H7464 H 0.02529 0.90588 0.32501 0.0
C7465 C 0.05928 0.9346 0.32781 0.0
H7466 H 0.02579 0.92472 0.34559 0.0
C7467 C 0.05898 0.92368 0.31586 0.0
C7468 C 0.04694 0.9129 0.31486 0.0
H7469 H 0.06905 0.94226 0.32875 0.0
H7470 H 0.06855 0.92318 0.30792 0.0
C7471 C 0.03478 0.91392 0.32545 0.0
C7472 C 0.1859 0.17556 0.80831 0.0
C7473 C 0.18582 0.16462 0.79636 0.0
H7474 H 0.17458 0.19496 0.81872 0.0
C7475 C 0.17467 0.16608 0.78474 0.0
H7476 H 0.19428 0.17478 0.81748 0.0
C7477 C 0.16342 0.1776 0.78545 0.0
C7478 C 0.16295 0.18805 0.79781 0.0
H7479 H 0.17422 0.15792 0.77534 0.0
H7480 H 0.15471 0.17791 0.77656 0.0
C7481 C 0.17459 0.18715 0.80902 0.0
C7482 C 0.32494 0.41445 0.53324 0.0
C7483 C 0.31437 0.41314 0.54543 0.0
H7484 H 0.3443 0.42635 0.52382 0.0
C7485 C 0.31438 0.42456 0.55689 0.0
H7486 H 0.32524 0.40594 0.52415 0.0
C7487 C 0.32539 0.4364 0.55666 0.0
C7488 C 0.33662 0.43705 0.54498 0.0
H7489 H 0.30643 0.42389 0.56645 0.0
H7490 H 0.32562 0.44455 0.56607 0.0
C7491 C 0.33591 0.42621 0.53303 0.0
C7492 C 0.31714 0.32604 0.18599 0.0
C7493 C 0.31618 0.33682 0.19802 0.0
H7494 H 0.32944 0.30679 0.17647 0.0
C7495 C 0.32605 0.33516 0.2107 0.0
H7496 H 0.3097 0.32701 0.17605 0.0
C7497 C 0.33724 0.32366 0.21095 0.0
C7498 C 0.33891 0.31347 0.19853 0.0
H7499 H 0.32557 0.34315 0.22024 0.0
H7500 H 0.34502 0.3232 0.22066 0.0
C7501 C 0.32843 0.31445 0.18623 0.0
C7502 C 0.17949 0.56666 0.9391 0.0
C7503 C 0.17004 0.56531 0.95217 0.0
H7504 H 0.19735 0.57958 0.92789 0.0
C7505 C 0.17296 0.57481 0.96491 0.0
H7506 H 0.17749 0.55952 0.9291 0.0
C7507 C 0.18415 0.58624 0.96418 0.0
C7508 C 0.19281 0.58843 0.95073 0.0
H7509 H 0.16601 0.57399 0.97521 0.0
H7510 H 0.18551 0.59385 0.97395 0.0
C7511 C 0.19084 0.57814 0.9384 0.0
C7512 C 0.532 0.41447 0.32777 0.0
C7513 C 0.54423 0.41328 0.31727 0.0
H7514 H 0.52278 0.42582 0.34753 0.0
C7515 C 0.55598 0.42439 0.3178 0.0
H7516 H 0.5227 0.40619 0.32765 0.0
C7517 C 0.55602 0.43575 0.3293 0.0
C7518 C 0.54432 0.43618 0.34047 0.0
H7519 H 0.56558 0.42379 0.30989 0.0
H7520 H 0.56565 0.4436 0.32995 0.0
C7521 C 0.53205 0.42576 0.33921 0.0
C7522 C 0.17634 0.78936 0.16357 0.0
C7523 C 0.18718 0.80138 0.16353 0.0
H7524 H 0.15605 0.77977 0.17369 0.0
C7525 C 0.18624 0.81255 0.17521 0.0
H7526 H 0.17667 0.78052 0.1548 0.0
C7527 C 0.17429 0.81211 0.18615 0.0
C7528 C 0.16301 0.80049 0.18565 0.0
H7529 H 0.19433 0.822 0.17552 0.0
H7530 H 0.17355 0.82123 0.19459 0.0
C7531 C 0.16446 0.78892 0.17445 0.0
C7532 C 0.31776 0.19325 0.33071 0.0
C7533 C 0.31653 0.20477 0.34198 0.0
H7534 H 0.32999 0.18508 0.31083 0.0
C7535 C 0.32568 0.21803 0.34049 0.0
H7536 H 0.3109 0.18289 0.33153 0.0
C7537 C 0.33656 0.21928 0.32873 0.0
C7538 C 0.3386 0.20733 0.31808 0.0
H7539 H 0.32496 0.22722 0.34886 0.0
H7540 H 0.34388 0.22934 0.32846 0.0
C7541 C 0.32871 0.19452 0.31885 0.0
C7542 C 0.96686 0.07444 0.67308 0.0
C7543 C 0.95484 0.06386 0.67093 0.0
H7544 H 0.97476 0.09466 0.68455 0.0
C7545 C 0.94183 0.06491 0.68052 0.0
H7546 H 0.97708 0.07398 0.66597 0.0
C7547 C 0.9405 0.07691 0.69131 0.0
C7548 C 0.95212 0.08808 0.69264 0.0
H7549 H 0.93234 0.05699 0.67912 0.0
H7550 H 0.93004 0.07789 0.698 0.0
C7551 C 0.9655 0.08638 0.68374 0.0
C7552 C 0.57808 0.16683 0.9653 0.0
C7553 C 0.56828 0.16463 0.95264 0.0
H7554 H 0.59686 0.17936 0.97495 0.0
C7555 C 0.56906 0.1751 0.94033 0.0
H7556 H 0.57772 0.15909 0.97505 0.0
C7557 C 0.58017 0.18686 0.94028 0.0
C7558 C 0.59064 0.18834 0.95254 0.0
H7559 H 0.56168 0.1737 0.9304 0.0
H7560 H 0.58108 0.19424 0.93029 0.0
C7561 C 0.58909 0.17851 0.96526 0.0
C7562 C 0.42451 0.91728 0.71763 0.0
C7563 C 0.43583 0.91578 0.70618 0.0
H7564 H 0.40419 0.92884 0.72529 0.0
C7565 C 0.43577 0.9264 0.69393 0.0
H7566 H 0.42414 0.90937 0.72724 0.0
C7567 C 0.4242 0.9377 0.69281 0.0
C7568 C 0.41241 0.9386 0.70387 0.0
H7569 H 0.44426 0.92556 0.68486 0.0
H7570 H 0.42412 0.94527 0.68292 0.0
C7571 C 0.413 0.92849 0.71649 0.0
C7572 C 0.5786 0.06664 0.3106 0.0
C7573 C 0.59001 0.06537 0.29918 0.0
H7574 H 0.55911 0.07934 0.31904 0.0
C7575 C 0.58927 0.07535 0.28647 0.0
H7576 H 0.57883 0.05918 0.32056 0.0
C7577 C 0.57802 0.08682 0.28558 0.0
C7578 C 0.56713 0.08872 0.29739 0.0
H7579 H 0.59779 0.0747 0.27741 0.0
H7580 H 0.57827 0.09463 0.27589 0.0
C7581 C 0.56729 0.07821 0.30972 0.0
C7582 C 0.42737 0.31914 0.56438 0.0
C7583 C 0.41626 0.31718 0.55279 0.0
H7584 H 0.44648 0.33252 0.57257 0.0
C7585 C 0.41727 0.3263 0.53948 0.0
H7586 H 0.42691 0.3123 0.57477 0.0
C7587 C 0.42842 0.33777 0.53821 0.0
C7588 C 0.43889 0.34049 0.55021 0.0
H7589 H 0.409 0.32504 0.53025 0.0
H7590 H 0.42835 0.34499 0.52807 0.0
C7591 C 0.4386 0.33071 0.56311 0.0
C7592 C 0.43875 0.69233 0.92356 0.0
C7593 C 0.43835 0.70432 0.91267 0.0
H7594 H 0.42798 0.68191 0.94327 0.0
C7595 C 0.42736 0.71601 0.91456 0.0
H7596 H 0.44704 0.68311 0.92244 0.0
C7597 C 0.41653 0.71534 0.92643 0.0
C7598 C 0.4163 0.70294 0.93681 0.0
H7599 H 0.42671 0.72547 0.90648 0.0
H7600 H 0.40791 0.72431 0.92707 0.0
C7601 C 0.42783 0.69165 0.93551 0.0
C7602 C 0.80563 0.18667 0.17525 0.0
C7603 C 0.79366 0.18628 0.16437 0.0
H7604 H 0.81674 0.1753 0.19414 0.0
C7605 C 0.78252 0.17463 0.16556 0.0
H7606 H 0.81442 0.19547 0.17465 0.0
C7607 C 0.78387 0.16309 0.17668 0.0
C7608 C 0.79638 0.16289 0.18691 0.0
H7609 H 0.77312 0.17398 0.15742 0.0
H7610 H 0.77543 0.15394 0.17679 0.0
C7611 C 0.80698 0.17509 0.18641 0.0
C7612 C 0.32505 0.56403 0.43704 0.0
C7613 C 0.33704 0.55313 0.437 0.0
H7614 H 0.30482 0.57266 0.42566 0.0
C7615 C 0.3368 0.54161 0.42562 0.0
H7616 H 0.32486 0.57309 0.44558 0.0
C7617 C 0.32535 0.54137 0.41425 0.0
C7618 C 0.31372 0.55261 0.41385 0.0
H7619 H 0.34577 0.533 0.42516 0.0
H7620 H 0.32594 0.53257 0.40545 0.0
C7621 C 0.31353 0.56377 0.42561 0.0
C7622 C 0.96635 0.16575 0.57823 0.0
C7623 C 0.95325 0.1638 0.56896 0.0
H7624 H 0.97699 0.1779 0.59673 0.0
C7625 C 0.94115 0.17447 0.57044 0.0
H7626 H 0.97595 0.15786 0.57737 0.0
C7627 C 0.94176 0.18614 0.5817 0.0
C7628 C 0.95448 0.18732 0.59166 0.0
H7629 H 0.93087 0.17329 0.56352 0.0
H7630 H 0.93193 0.19364 0.58317 0.0
C7631 C 0.96695 0.1773 0.58939 0.0
C7632 C 0.78625 0.08957 0.07513 0.0
C7633 C 0.79889 0.09027 0.06506 0.0
H7634 H 0.77553 0.07827 0.09417 0.0
C7635 C 0.80998 0.0785 0.06585 0.0
H7636 H 0.77743 0.09836 0.07484 0.0
C7637 C 0.80886 0.06685 0.07704 0.0
C7638 C 0.79663 0.0667 0.08767 0.0
H7639 H 0.81988 0.07868 0.05831 0.0
H7640 H 0.81797 0.05839 0.07783 0.0
C7641 C 0.78514 0.07798 0.08625 0.0
C7642 C 0.4144 0.5336 0.32983 0.0
C7643 C 0.41315 0.5456 0.31909 0.0
H7644 H 0.42589 0.52471 0.34964 0.0
C7645 C 0.42421 0.55743 0.31945 0.0
H7646 H 0.40617 0.52426 0.32988 0.0
C7647 C 0.43564 0.55771 0.33092 0.0
C7648 C 0.43622 0.54617 0.34224 0.0
H7649 H 0.42358 0.56688 0.31137 0.0
H7650 H 0.44349 0.56736 0.33139 0.0
C7651 C 0.42576 0.53388 0.34121 0.0
C7652 C 0.6781 0.47315 0.58815 0.0
C7653 C 0.68829 0.4607 0.58966 0.0
H7654 H 0.65901 0.48283 0.5761 0.0
C7655 C 0.68794 0.449 0.57848 0.0
H7656 H 0.67811 0.48241 0.59648 0.0
C7657 C 0.67687 0.44922 0.56671 0.0
C7658 C 0.66599 0.46116 0.5659 0.0
H7659 H 0.69562 0.43924 0.57932 0.0
H7660 H 0.67631 0.43962 0.5588 0.0
C7661 C 0.66712 0.47339 0.57642 0.0
C7662 C 0.19115 0.92649 0.93858 0.0
C7663 C 0.20231 0.91483 0.93984 0.0
H7664 H 0.18339 0.94642 0.92614 0.0
C7665 C 0.21527 0.91554 0.93018 0.0
H7666 H 0.18102 0.92629 0.9458 0.0
C7667 C 0.21665 0.92704 0.91901 0.0
C7668 C 0.20512 0.9382 0.9171 0.0
H7669 H 0.22415 0.90684 0.93084 0.0
H7670 H 0.22652 0.92676 0.91141 0.0
C7671 C 0.19254 0.93805 0.92731 0.0
C7672 C 0.573 0.97073 0.16217 0.0
C7673 C 0.56184 0.95902 0.16187 0.0
H7674 H 0.59342 0.97967 0.17262 0.0
C7675 C 0.56233 0.94774 0.17349 0.0
H7676 H 0.57304 0.97962 0.15345 0.0
C7677 C 0.57416 0.94775 0.18457 0.0
C7678 C 0.58578 0.95903 0.18431 0.0
H7679 H 0.55401 0.93849 0.17359 0.0
H7680 H 0.57457 0.93853 0.19293 0.0
C7681 C 0.58475 0.97075 0.1732 0.0
C7682 C 0.03453 0.32955 0.91577 0.0
C7683 C 0.04683 0.31903 0.91524 0.0
H7684 H 0.02417 0.34885 0.92702 0.0
C7685 C 0.05775 0.31954 0.92721 0.0
H7686 H 0.02586 0.32956 0.90684 0.0
C7687 C 0.05676 0.33074 0.93894 0.0
C7688 C 0.04481 0.3417 0.93901 0.0
H7689 H 0.0674 0.31168 0.9272 0.0
H7690 H 0.0657 0.33118 0.94759 0.0
C7691 C 0.03354 0.34067 0.92743 0.0
C7692 C 0.58813 0.79184 0.57778 0.0
C7693 C 0.58853 0.80385 0.56696 0.0
H7694 H 0.57742 0.78224 0.59773 0.0
C7695 C 0.57691 0.81512 0.56762 0.0
H7696 H 0.5968 0.7829 0.57765 0.0
C7697 C 0.56565 0.81474 0.5793 0.0
C7698 C 0.56576 0.80307 0.59055 0.0
H7699 H 0.57688 0.82457 0.55952 0.0
H7700 H 0.55725 0.82391 0.57987 0.0
C7701 C 0.57694 0.79144 0.58936 0.0
C7702 C 0.19653 0.82812 0.81919 0.0
C7703 C 0.20772 0.83978 0.81844 0.0
H7704 H 0.18804 0.80844 0.83148 0.0
C7705 C 0.22013 0.83925 0.82877 0.0
H7706 H 0.18682 0.8282 0.81141 0.0
C7707 C 0.22082 0.828 0.84022 0.0
C7708 C 0.20914 0.81693 0.84165 0.0
H7709 H 0.22901 0.84798 0.82849 0.0
H7710 H 0.23021 0.82841 0.84839 0.0
C7711 C 0.19724 0.81679 0.83069 0.0
C7712 C 0.43651 0.82454 0.05935 0.0
C7713 C 0.43759 0.83467 0.04677 0.0
H7714 H 0.42358 0.80651 0.07028 0.0
C7715 C 0.4271 0.83299 0.03459 0.0
H7716 H 0.44437 0.82555 0.06895 0.0
C7717 C 0.41521 0.82222 0.03539 0.0
C7718 C 0.41349 0.81274 0.04836 0.0
H7719 H 0.42759 0.84053 0.02469 0.0
H7720 H 0.40698 0.82177 0.02605 0.0
C7721 C 0.42458 0.81364 0.06012 0.0
C7722 C 0.56605 0.67537 0.44566 0.0
C7723 C 0.56595 0.66422 0.45739 0.0
H7724 H 0.57751 0.695 0.43592 0.0
C7725 C 0.57674 0.66559 0.46937 0.0
H7726 H 0.55795 0.67465 0.43623 0.0
C7727 C 0.5879 0.67717 0.46919 0.0
C7728 C 0.58863 0.68778 0.45703 0.0
H7729 H 0.57701 0.65728 0.47864 0.0
H7730 H 0.59637 0.67739 0.47831 0.0
C7731 C 0.57728 0.68704 0.44548 0.0
C7732 C 0.58653 0.28514 0.07659 0.0
C7733 C 0.58797 0.29738 0.06615 0.0
H7734 H 0.5754 0.27624 0.09658 0.0
C7735 C 0.57751 0.30971 0.06723 0.0
H7736 H 0.5943 0.27542 0.07608 0.0
C7737 C 0.56653 0.31019 0.07913 0.0
C7738 C 0.56586 0.29837 0.09016 0.0
H7739 H 0.57833 0.31935 0.0594 0.0
H7740 H 0.55917 0.32017 0.08017 0.0
C7741 C 0.57566 0.28563 0.0884 0.0
C7742 C 0.03782 0.83917 0.43024 0.0
C7743 C 0.05089 0.83962 0.43978 0.0
H7744 H 0.02641 0.82855 0.41122 0.0
C7745 C 0.06204 0.82804 0.43808 0.0
H7746 H 0.02892 0.84782 0.43126 0.0
C7747 C 0.06056 0.81685 0.42645 0.0
C7748 C 0.0479 0.81703 0.41633 0.0
H7749 H 0.07226 0.82806 0.44519 0.0
H7750 H 0.0697 0.80854 0.42493 0.0
C7751 C 0.03634 0.82806 0.41871 0.0
C7752 C 0.58881 0.46404 0.6762 0.0
C7753 C 0.5891 0.45167 0.68663 0.0
H7754 H 0.5782 0.47431 0.65651 0.0
C7755 C 0.57736 0.44057 0.68564 0.0
H7756 H 0.5976 0.47285 0.67659 0.0
C7757 C 0.56611 0.44143 0.674 0.0
C7758 C 0.56635 0.45341 0.66309 0.0
H7759 H 0.57723 0.43087 0.69343 0.0
H7760 H 0.55764 0.43235 0.67315 0.0
C7761 C 0.57762 0.46489 0.66463 0.0
C7762 C 0.43754 0.0559 0.83105 0.0
C7763 C 0.43779 0.04448 0.84251 0.0
H7764 H 0.4259 0.065 0.81122 0.0
C7765 C 0.42721 0.03231 0.84148 0.0
H7766 H 0.44551 0.06545 0.83152 0.0
C7767 C 0.41606 0.03203 0.8299 0.0
C7768 C 0.41513 0.04393 0.819 0.0
H7769 H 0.4271 0.02325 0.85003 0.0
H7770 H 0.40772 0.02279 0.82992 0.0
C7771 C 0.4263 0.05564 0.81941 0.0
C7772 C 0.94002 0.67166 0.06493 0.0
C7773 C 0.95182 0.66053 0.06519 0.0
H7774 H 0.92962 0.69119 0.07612 0.0
C7775 C 0.96308 0.6617 0.07673 0.0
H7776 H 0.9311 0.67112 0.05627 0.0
C7777 C 0.96224 0.67316 0.08804 0.0
C7778 C 0.95009 0.68388 0.08826 0.0
H7779 H 0.97235 0.65341 0.07736 0.0
H7780 H 0.97093 0.67329 0.09696 0.0
C7781 C 0.93916 0.68319 0.07633 0.0
C7782 C 0.44014 0.19305 0.42541 0.0
C7783 C 0.44083 0.20475 0.41421 0.0
H7784 H 0.42861 0.18429 0.44552 0.0
C7785 C 0.43115 0.21757 0.41596 0.0
H7786 H 0.4474 0.18299 0.42441 0.0
C7787 C 0.42052 0.21835 0.42802 0.0
C7788 C 0.41915 0.20631 0.43874 0.0
H7789 H 0.43137 0.22685 0.40766 0.0
H7790 H 0.41291 0.22819 0.42854 0.0
C7791 C 0.42939 0.19381 0.43754 0.0
C7792 C 0.43535 0.42464 0.19354 0.0
C7793 C 0.43668 0.41428 0.20593 0.0
H7794 H 0.42255 0.44337 0.18356 0.0
C7795 C 0.42708 0.41639 0.21876 0.0
H7796 H 0.44253 0.42331 0.18346 0.0
C7797 C 0.41576 0.42777 0.21882 0.0
C7798 C 0.41364 0.43745 0.20606 0.0
H7799 H 0.42783 0.40874 0.22857 0.0
H7800 H 0.40818 0.4285 0.22868 0.0
C7801 C 0.42391 0.43614 0.1936 0.0
C7802 C 0.57769 0.56672 0.80673 0.0
C7803 C 0.58812 0.56559 0.79439 0.0
H7804 H 0.55924 0.57959 0.81706 0.0
C7805 C 0.58644 0.57572 0.78192 0.0
H7806 H 0.5787 0.55912 0.81654 0.0
C7807 C 0.57539 0.58736 0.78223 0.0
C7808 C 0.56566 0.58923 0.79501 0.0
H7809 H 0.59417 0.57515 0.77217 0.0
H7810 H 0.57495 0.59536 0.77269 0.0
C7811 C 0.56654 0.57845 0.80704 0.0
C7812 C 0.80786 0.68808 0.67392 0.0
C7813 C 0.79593 0.68766 0.66298 0.0
H7814 H 0.8182 0.67727 0.6936 0.0
C7815 C 0.78409 0.67685 0.66487 0.0
H7816 H 0.81717 0.69626 0.67279 0.0
C7817 C 0.78468 0.66605 0.67674 0.0
C7818 C 0.79714 0.66573 0.68704 0.0
H7819 H 0.77468 0.67625 0.65674 0.0
H7820 H 0.77569 0.65746 0.67738 0.0
C7821 C 0.80846 0.6772 0.68586 0.0
C7822 C 0.31681 0.0636 0.92599 0.0
C7823 C 0.3169 0.05259 0.9141 0.0
H7824 H 0.32808 0.07242 0.9462 0.0
C7825 C 0.32831 0.0411 0.9145 0.0
H7826 H 0.30827 0.07266 0.92606 0.0
C7827 C 0.33965 0.04099 0.92598 0.0
C7828 C 0.33999 0.05233 0.93752 0.0
H7829 H 0.32882 0.0324 0.9056 0.0
H7830 H 0.34848 0.03221 0.92552 0.0
C7831 C 0.32819 0.06346 0.93756 0.0
C7832 C 0.81364 0.57788 0.56549 0.0
C7833 C 0.80201 0.58904 0.56387 0.0
H7834 H 0.82247 0.55899 0.57885 0.0
C7835 C 0.78937 0.58843 0.57393 0.0
H7836 H 0.82357 0.57804 0.55799 0.0
C7837 C 0.78874 0.5776 0.5858 0.0
C7838 C 0.80073 0.56698 0.58803 0.0
H7839 H 0.78015 0.59676 0.57304 0.0
H7840 H 0.77906 0.57796 0.59363 0.0
C7841 C 0.813 0.56696 0.57746 0.0
C7842 C 0.66562 0.96665 0.0799 0.0
C7843 C 0.66398 0.95497 0.06884 0.0
H7844 H 0.67761 0.97481 0.09974 0.0
C7845 C 0.67477 0.94289 0.06876 0.0
H7846 H 0.65761 0.97617 0.0803 0.0
C7847 C 0.68638 0.9421 0.08003 0.0
C7848 C 0.68741 0.95337 0.0916 0.0
H7849 H 0.67384 0.93368 0.06043 0.0
H7850 H 0.69406 0.9323 0.0801 0.0
C7851 C 0.67715 0.96586 0.09109 0.0
C7852 C 0.21835 0.42511 0.4145 0.0
C7853 C 0.20574 0.43516 0.41302 0.0
H7854 H 0.22805 0.40557 0.42587 0.0
C7855 C 0.19365 0.43391 0.42369 0.0
H7856 H 0.22793 0.42575 0.40658 0.0
C7857 C 0.19376 0.42223 0.43492 0.0
C7858 C 0.20594 0.41155 0.43565 0.0
H7859 H 0.18374 0.4414 0.42285 0.0
H7860 H 0.18393 0.42107 0.44247 0.0
C7861 C 0.21843 0.41348 0.4256 0.0
C7862 C 0.21767 0.31823 0.34052 0.0
C7863 C 0.20473 0.30855 0.34098 0.0
H7864 H 0.22923 0.33682 0.32932 0.0
C7865 C 0.19397 0.30955 0.32894 0.0
H7866 H 0.22626 0.31775 0.34953 0.0
C7867 C 0.19568 0.32061 0.31724 0.0
C7868 C 0.20822 0.33086 0.31732 0.0
H7869 H 0.18385 0.3023 0.32894 0.0
H7870 H 0.1868 0.3216 0.30857 0.0
C7871 C 0.21941 0.32918 0.32886 0.0
C7872 C 0.08302 0.0781 0.46001 0.0
C7873 C 0.08911 0.07145 0.4467 0.0
H7874 H 0.06743 0.09463 0.46925 0.0
C7875 C 0.0839 0.07636 0.4322 0.0
H7876 H 0.08735 0.07497 0.47127 0.0
C7877 C 0.07175 0.08685 0.43112 0.0
C7878 C 0.06513 0.09285 0.44453 0.0
H7879 H 0.08881 0.07162 0.42177 0.0
H7880 H 0.06746 0.09016 0.41991 0.0
C7881 C 0.07144 0.08907 0.45887 0.0
C7882 C 0.91676 0.32725 0.68301 0.0
C7883 C 0.91061 0.32377 0.69754 0.0
H7884 H 0.93367 0.34022 0.67047 0.0
C7885 C 0.91556 0.33196 0.71046 0.0
H7886 H 0.91272 0.32129 0.67283 0.0
C7887 C 0.92692 0.34311 0.70896 0.0
C7888 C 0.93414 0.34556 0.69476 0.0
H7889 H 0.91049 0.32989 0.72166 0.0
H7890 H 0.93007 0.34984 0.71894 0.0
C7891 C 0.92868 0.33795 0.68166 0.0
C7892 C 0.66689 0.17601 0.9331 0.0
C7893 C 0.66064 0.18256 0.9464 0.0
H7894 H 0.68209 0.1589 0.92402 0.0
C7895 C 0.66394 0.17621 0.96083 0.0
H7896 H 0.66386 0.18036 0.92183 0.0
C7897 C 0.67472 0.1645 0.96217 0.0
C7898 C 0.68158 0.15847 0.94894 0.0
H7899 H 0.65812 0.18023 0.97106 0.0
H7900 H 0.67753 0.16003 0.97345 0.0
C7901 C 0.67715 0.16379 0.93436 0.0
C7902 C 0.82518 0.91248 0.18424 0.0
C7903 C 0.82089 0.90788 0.19912 0.0
H7904 H 0.83847 0.92833 0.17075 0.0
C7905 C 0.82809 0.91434 0.21193 0.0
H7906 H 0.82 0.9072 0.17421 0.0
C7907 C 0.8391 0.92572 0.20987 0.0
C7908 C 0.84225 0.93146 0.19514 0.0
H7909 H 0.82544 0.91039 0.22344 0.0
H7910 H 0.84518 0.93003 0.21983 0.0
C7911 C 0.83563 0.92448 0.18225 0.0
C7912 C 0.0777 0.1639 0.81871 0.0
C7913 C 0.07306 0.15879 0.80411 0.0
H7914 H 0.09091 0.18049 0.83133 0.0
C7915 C 0.07951 0.16524 0.79089 0.0
H7916 H 0.07309 0.15868 0.82904 0.0
C7917 C 0.09008 0.17713 0.79226 0.0
C7918 C 0.09356 0.18328 0.80675 0.0
H7919 H 0.07656 0.16095 0.77957 0.0
H7920 H 0.09561 0.18146 0.782 0.0
C7921 C 0.08773 0.17632 0.82003 0.0
C7922 C 0.82997 0.33715 0.04233 0.0
C7923 C 0.82238 0.34328 0.05512 0.0
H7924 H 0.84714 0.32149 0.03441 0.0
C7925 C 0.82615 0.33807 0.06994 0.0
H7926 H 0.82769 0.3415 0.03088 0.0
C7927 C 0.83643 0.32588 0.07181 0.0
C7928 C 0.8434 0.3192 0.05891 0.0
H7929 H 0.82067 0.34301 0.07998 0.0
H7930 H 0.83889 0.32163 0.08325 0.0
C7931 C 0.84078 0.32551 0.0443 0.0
C7932 C 0.67657 0.08831 0.31794 0.0
C7933 C 0.68076 0.09316 0.30311 0.0
H7934 H 0.66345 0.07215 0.33121 0.0
C7935 C 0.67361 0.0868 0.29022 0.0
H7936 H 0.68173 0.09348 0.32803 0.0
C7937 C 0.66279 0.07522 0.29212 0.0
C7938 C 0.65974 0.06927 0.30678 0.0
H7939 H 0.67621 0.09092 0.27876 0.0
H7940 H 0.65676 0.07095 0.28211 0.0
C7941 C 0.66627 0.07617 0.31976 0.0
C7942 C 0.9138 0.92904 0.54157 0.0
C7943 C 0.91048 0.93532 0.55604 0.0
H7944 H 0.92712 0.9127 0.52884 0.0
C7945 C 0.91635 0.92834 0.5693 0.0
H7946 H 0.90823 0.93336 0.53132 0.0
C7947 C 0.92628 0.91581 0.56797 0.0
C7948 C 0.9308 0.9106 0.55335 0.0
H7949 H 0.9133 0.93259 0.58061 0.0
H7950 H 0.93092 0.91061 0.57829 0.0
C7951 C 0.92428 0.91705 0.54016 0.0
C7952 C 0.45884 0.08377 0.09175 0.0
C7953 C 0.44424 0.07771 0.09506 0.0
H7954 H 0.47239 0.09815 0.07693 0.0
C7955 C 0.43141 0.08367 0.08738 0.0
H7956 H 0.46872 0.08037 0.09847 0.0
C7957 C 0.43338 0.09476 0.07584 0.0
C7958 C 0.44823 0.0994 0.07131 0.0
H7959 H 0.41997 0.07957 0.09008 0.0
H7960 H 0.42334 0.09923 0.06997 0.0
C7961 C 0.46093 0.09408 0.0796 0.0
C7962 C 0.92746 0.7068 0.34138 0.0
C7963 C 0.93488 0.69274 0.34402 0.0
H7964 H 0.91068 0.719 0.32813 0.0
C7965 C 0.92945 0.67941 0.33679 0.0
H7966 H 0.93059 0.71695 0.34785 0.0
C7967 C 0.91735 0.68038 0.32624 0.0
C7968 C 0.91098 0.69476 0.32255 0.0
H7969 H 0.93459 0.66834 0.33925 0.0
H7970 H 0.91333 0.67005 0.32057 0.0
C7971 C 0.91591 0.70792 0.33037 0.0
C7972 C 0.32073 0.17652 0.5869 0.0
C7973 C 0.30744 0.18255 0.59365 0.0
H7974 H 0.32978 0.16092 0.57008 0.0
C7975 C 0.29298 0.17682 0.58945 0.0
H7976 H 0.332 0.18041 0.59047 0.0
C7977 C 0.29163 0.16635 0.57746 0.0
C7978 C 0.30485 0.16084 0.57018 0.0
H7979 H 0.28271 0.18046 0.59544 0.0
H7980 H 0.28033 0.16237 0.57407 0.0
C7981 C 0.31944 0.16546 0.57535 0.0
C7982 C 0.83608 0.56947 0.82774 0.0
C7983 C 0.84247 0.55635 0.82098 0.0
H7984 H 0.8203 0.57813 0.84455 0.0
C7985 C 0.83874 0.54175 0.82668 0.0
H7986 H 0.83937 0.58085 0.8239 0.0
C7987 C 0.82748 0.54013 0.83789 0.0
C7988 C 0.82052 0.5532 0.84412 0.0
H7989 H 0.8446 0.5316 0.82251 0.0
H7990 H 0.82438 0.52873 0.84185 0.0
C7991 C 0.82531 0.5679 0.83949 0.0
C7992 C 0.43412 0.17539 0.16593 0.0
C7993 C 0.44909 0.17936 0.16133 0.0
H7994 H 0.4203 0.16259 0.18194 0.0
C7995 C 0.4617 0.17202 0.16805 0.0
H7996 H 0.42422 0.18067 0.16051 0.0
C7997 C 0.45938 0.16124 0.17964 0.0
C7998 C 0.44457 0.15843 0.18539 0.0
H7999 H 0.47329 0.17442 0.16416 0.0
H8000 H 0.46919 0.15504 0.1841 0.0
C8001 C 0.43187 0.16516 0.17813 0.0
C8002 C 0.83859 0.71316 0.42361 0.0
C8003 C 0.84466 0.69995 0.43044 0.0
H8004 H 0.82292 0.72209 0.40699 0.0
C8005 C 0.83936 0.68538 0.42591 0.0
H8006 H 0.84305 0.72444 0.42645 0.0
C8007 C 0.82708 0.68414 0.41565 0.0
C8008 C 0.82048 0.69744 0.40945 0.0
H8009 H 0.84428 0.67503 0.43079 0.0
H8010 H 0.82271 0.67288 0.41263 0.0
C8011 C 0.8269 0.71184 0.4128 0.0
C8012 C 0.32152 0.07853 0.66488 0.0
C8013 C 0.30671 0.07489 0.65955 0.0
H8014 H 0.33479 0.09065 0.68186 0.0
C8015 C 0.2939 0.08206 0.6661 0.0
H8016 H 0.33157 0.07337 0.65964 0.0
C8017 C 0.29583 0.09233 0.67822 0.0
C8018 C 0.31043 0.0948 0.68461 0.0
H8019 H 0.28245 0.07989 0.66171 0.0
H8020 H 0.28588 0.09838 0.68258 0.0
C8021 C 0.32336 0.08828 0.67755 0.0
C8022 C 0.90885 0.54243 0.92238 0.0
C8023 C 0.90367 0.55516 0.93072 0.0
H8024 H 0.92314 0.5345 0.90399 0.0
C8025 C 0.90916 0.5699 0.92683 0.0
H8026 H 0.9042 0.53109 0.92458 0.0
C8027 C 0.92082 0.57166 0.91585 0.0
C8028 C 0.92661 0.55878 0.90813 0.0
H8029 H 0.90486 0.57998 0.93276 0.0
H8030 H 0.92547 0.58299 0.91359 0.0
C8031 C 0.91982 0.54436 0.91079 0.0
C8032 C 0.09248 0.43217 0.07609 0.0
C8033 C 0.09829 0.4468 0.07229 0.0
H8034 H 0.07689 0.41925 0.09034 0.0
C8035 C 0.09455 0.45937 0.08159 0.0
H8036 H 0.09573 0.42218 0.0694 0.0
C8037 C 0.08467 0.45744 0.0941 0.0
C8038 C 0.07757 0.44321 0.0969 0.0
H8039 H 0.09953 0.47058 0.0794 0.0
H8040 H 0.08238 0.46717 0.1015 0.0
C8041 C 0.08188 0.43044 0.08811 0.0
C8042 C 0.59217 0.29748 0.17732 0.0
C8043 C 0.59466 0.31165 0.18458 0.0
H8044 H 0.57886 0.2848 0.16096 0.0
C8045 C 0.58705 0.32477 0.17915 0.0
H8046 H 0.59892 0.2875 0.1804 0.0
C8047 C 0.57631 0.32344 0.16723 0.0
C8048 C 0.57277 0.30891 0.1611 0.0
H8049 H 0.58933 0.33594 0.18417 0.0
H8050 H 0.57036 0.33361 0.1632 0.0
C8051 C 0.58095 0.29599 0.16603 0.0
C8052 C 0.68129 0.82689 0.41484 0.0
C8053 C 0.69434 0.82012 0.40829 0.0
H8054 H 0.67285 0.84386 0.43065 0.0
C8055 C 0.70895 0.82595 0.41177 0.0
H8056 H 0.66988 0.82297 0.41176 0.0
C8057 C 0.71072 0.8372 0.42299 0.0
C8058 C 0.69776 0.84345 0.43011 0.0
H8059 H 0.71904 0.82184 0.40578 0.0
H8060 H 0.72216 0.8412 0.42587 0.0
C8061 C 0.683 0.83876 0.42553 0.0
C8062 C 0.17352 0.95929 0.66649 0.0
C8063 C 0.18175 0.9465 0.66131 0.0
H8064 H 0.15525 0.96738 0.68073 0.0
C8065 C 0.17797 0.93178 0.66683 0.0
H8066 H 0.17579 0.97063 0.66186 0.0
C8067 C 0.16691 0.93009 0.67841 0.0
C8068 C 0.15922 0.94305 0.68408 0.0
H8069 H 0.18393 0.92171 0.66257 0.0
H8070 H 0.16447 0.91877 0.68298 0.0
C8071 C 0.16199 0.95747 0.67742 0.0
C8072 C 0.54594 0.41151 0.42892 0.0
C8073 C 0.56054 0.409 0.43529 0.0
H8074 H 0.53239 0.42447 0.41297 0.0
C8075 C 0.57338 0.4161 0.42865 0.0
H8076 H 0.53609 0.40506 0.43291 0.0
C8077 C 0.57141 0.42638 0.41643 0.0
C8078 C 0.55655 0.43001 0.41121 0.0
H8079 H 0.58483 0.41377 0.43296 0.0
H8080 H 0.58139 0.43193 0.41146 0.0
C8081 C 0.54386 0.42232 0.41734 0.0
C8082 C 0.16676 0.79228 0.08039 0.0
C8083 C 0.15992 0.80501 0.07338 0.0
H8084 H 0.18284 0.78449 0.09718 0.0
C8085 C 0.16432 0.81992 0.07778 0.0
H8086 H 0.16302 0.78071 0.07765 0.0
C8087 C 0.17646 0.82202 0.08811 0.0
C8088 C 0.18383 0.80921 0.0945 0.0
H8089 H 0.1588 0.82989 0.07277 0.0
H8090 H 0.18013 0.83356 0.09103 0.0
C8091 C 0.17828 0.79443 0.09126 0.0
C8092 C 0.70806 0.91336 0.32496 0.0
C8093 C 0.69326 0.91053 0.31924 0.0
H8094 H 0.7219 0.92654 0.34048 0.0
C8095 C 0.68051 0.91719 0.32644 0.0
H8096 H 0.71791 0.90722 0.32048 0.0
C8097 C 0.6827 0.9274 0.33862 0.0
C8098 C 0.69766 0.93139 0.34322 0.0
H8099 H 0.66895 0.91456 0.32261 0.0
H8100 H 0.67279 0.93264 0.34405 0.0
C8101 C 0.71033 0.92411 0.33655 0.0
C8102 C 0.06923 0.3302 0.83893 0.0
C8103 C 0.05593 0.32353 0.84502 0.0
H8104 H 0.07829 0.34726 0.82364 0.0
C8105 C 0.04147 0.32956 0.84129 0.0
H8106 H 0.08051 0.3261 0.84225 0.0
C8107 C 0.04013 0.34103 0.83027 0.0
C8108 C 0.05336 0.3472 0.8236 0.0
H8109 H 0.03119 0.32545 0.84696 0.0
H8110 H 0.02883 0.34525 0.82716 0.0
C8111 C 0.06795 0.34223 0.82842 0.0
C8112 C 0.07884 0.66622 0.32018 0.0
C8113 C 0.07433 0.66121 0.30548 0.0
H8114 H 0.09191 0.68276 0.3331 0.0
C8115 C 0.08105 0.66775 0.29243 0.0
H8116 H 0.07406 0.66095 0.33041 0.0
C8117 C 0.0917 0.67957 0.29405 0.0
C8118 C 0.09501 0.6857 0.3086 0.0
H8119 H 0.07825 0.66357 0.28103 0.0
H8120 H 0.09741 0.68389 0.28389 0.0
C8121 C 0.08894 0.67863 0.32173 0.0
C8122 C 0.32875 0.8378 0.04038 0.0
C8123 C 0.32199 0.84395 0.0536 0.0
H8124 H 0.34539 0.82214 0.03147 0.0
C8125 C 0.32663 0.83878 0.06819 0.0
H8126 H 0.32582 0.84216 0.02909 0.0
C8127 C 0.33696 0.82657 0.06946 0.0
C8128 C 0.34311 0.81991 0.05617 0.0
H8129 H 0.3218 0.84378 0.07853 0.0
H8130 H 0.34008 0.82232 0.08074 0.0
C8131 C 0.33963 0.82618 0.04173 0.0
C8132 C 0.17633 0.08851 0.81822 0.0
C8133 C 0.18104 0.09363 0.80364 0.0
H8134 H 0.16302 0.07194 0.83075 0.0
C8135 C 0.17453 0.08728 0.79039 0.0
H8136 H 0.18097 0.09365 0.82857 0.0
C8137 C 0.16387 0.07547 0.79171 0.0
C8138 C 0.16035 0.06926 0.80616 0.0
H8139 H 0.17752 0.09159 0.77909 0.0
H8140 H 0.1583 0.07123 0.78142 0.0
C8141 C 0.16621 0.07614 0.81947 0.0
C8142 C 0.92666 0.83668 0.17968 0.0
C8143 C 0.9335 0.84349 0.19256 0.0
H8144 H 0.90965 0.8207 0.17164 0.0
C8145 C 0.92768 0.84032 0.20726 0.0
H8146 H 0.93054 0.83951 0.16818 0.0
C8147 C 0.91648 0.82912 0.20932 0.0
C8148 C 0.91018 0.82171 0.19655 0.0
H8149 H 0.93179 0.84654 0.21721 0.0
H8150 H 0.91253 0.82647 0.22084 0.0
C8151 C 0.91479 0.82602 0.18166 0.0
C8152 C 0.17843 0.66147 0.95708 0.0
C8153 C 0.1861 0.65911 0.9431 0.0
H8154 H 0.16149 0.67451 0.96934 0.0
C8155 C 0.18088 0.66667 0.92986 0.0
H8156 H 0.18137 0.65476 0.96713 0.0
C8157 C 0.16876 0.67723 0.93088 0.0
C8158 C 0.16215 0.68064 0.94524 0.0
H8159 H 0.18621 0.66449 0.91881 0.0
H8160 H 0.16493 0.68314 0.92061 0.0
C8161 C 0.16689 0.67251 0.95828 0.0
C8162 C 0.32535 0.91609 0.68354 0.0
C8163 C 0.32102 0.91113 0.6983 0.0
H8164 H 0.3388 0.93218 0.67051 0.0
C8165 C 0.32823 0.91723 0.71128 0.0
H8166 H 0.32015 0.91111 0.67337 0.0
C8167 C 0.33926 0.92862 0.70956 0.0
C8168 C 0.34249 0.93468 0.69498 0.0
H8169 H 0.32553 0.91302 0.7227 0.0
H8170 H 0.34529 0.9327 0.71965 0.0
C8171 C 0.33589 0.92806 0.68189 0.0
C8172 C 0.54337 0.92062 0.91452 0.0
C8173 C 0.55636 0.9283 0.90899 0.0
H8174 H 0.53486 0.9037 0.93012 0.0
C8175 C 0.5709 0.92505 0.91518 0.0
H8176 H 0.53217 0.92256 0.90943 0.0
C8177 C 0.57223 0.91511 0.92771 0.0
C8178 C 0.55908 0.90804 0.93374 0.0
H8179 H 0.58109 0.93065 0.91072 0.0
H8180 H 0.58344 0.91295 0.93266 0.0
C8181 C 0.54484 0.91018 0.92653 0.0
C8182 C 0.0807 0.29473 0.66859 0.0
C8183 C 0.07359 0.30757 0.66206 0.0
H8184 H 0.09758 0.28668 0.68442 0.0
C8185 C 0.07794 0.32241 0.66678 0.0
H8186 H 0.07801 0.28323 0.6646 0.0
C8187 C 0.0883 0.32429 0.67893 0.0
C8188 C 0.09477 0.31136 0.686 0.0
H8189 H 0.07286 0.33247 0.66149 0.0
H8190 H 0.09116 0.33576 0.68285 0.0
C8191 C 0.09159 0.29668 0.68012 0.0
C8192 C 0.17414 0.45909 0.16898 0.0
C8193 C 0.18116 0.44627 0.16231 0.0
H8194 H 0.15789 0.46715 0.18549 0.0
C8195 C 0.17729 0.43145 0.16748 0.0
H8196 H 0.17646 0.47056 0.16471 0.0
C8197 C 0.16753 0.42961 0.18015 0.0
C8198 C 0.16118 0.44255 0.18735 0.0
H8199 H 0.18232 0.42138 0.16214 0.0
H8200 H 0.16504 0.41817 0.18437 0.0
C8201 C 0.16384 0.45717 0.18107 0.0
C8202 C 0.57334 0.83758 0.82514 0.0
C8203 C 0.5603 0.84448 0.81867 0.0
H8204 H 0.5819 0.8221 0.84238 0.0
C8205 C 0.54587 0.84202 0.82543 0.0
H8206 H 0.58468 0.83992 0.82055 0.0
C8207 C 0.54417 0.83147 0.83734 0.0
C8208 C 0.55707 0.82395 0.84331 0.0
H8209 H 0.53588 0.84832 0.82152 0.0
H8210 H 0.53283 0.82933 0.84203 0.0
C8211 C 0.57176 0.82753 0.8376 0.0
C8212 C 0.17491 0.29238 0.58934 0.0
C8213 C 0.1823 0.30549 0.59495 0.0
H8214 H 0.15765 0.28368 0.57425 0.0
C8215 C 0.17806 0.3201 0.58955 0.0
H8216 H 0.17756 0.28109 0.59389 0.0
C8217 C 0.16745 0.32145 0.57761 0.0
C8218 C 0.16069 0.30823 0.57146 0.0
H8219 H 0.1834 0.33037 0.59414 0.0
H8220 H 0.16458 0.33273 0.57317 0.0
C8221 C 0.16382 0.29383 0.57795 0.0
C8222 C 0.42813 0.68145 0.83599 0.0
C8223 C 0.43213 0.69606 0.84164 0.0
H8224 H 0.41483 0.6688 0.8194 0.0
C8225 C 0.42441 0.70906 0.83622 0.0
H8226 H 0.4337 0.67122 0.84041 0.0
C8227 C 0.41323 0.70755 0.82488 0.0
C8228 C 0.41033 0.69322 0.81809 0.0
H8229 H 0.42684 0.72034 0.84092 0.0
H8230 H 0.40683 0.71763 0.82141 0.0
C8231 C 0.41744 0.68006 0.82404 0.0
C8232 C 0.82812 0.04396 0.33666 0.0
C8233 C 0.82171 0.05793 0.34135 0.0
H8234 H 0.84465 0.03289 0.32231 0.0
C8235 C 0.82764 0.07185 0.33576 0.0
H8236 H 0.82424 0.03318 0.3415 0.0
C8237 C 0.83938 0.0717 0.32483 0.0
C8238 C 0.84519 0.05763 0.31962 0.0
H8239 H 0.823 0.08275 0.33961 0.0
H8240 H 0.84367 0.08245 0.32024 0.0
C8241 C 0.83983 0.04381 0.32586 0.0
C8242 C 0.45906 0.5859 0.58016 0.0
C8243 C 0.44599 0.59267 0.57374 0.0
H8244 H 0.46768 0.56952 0.59624 0.0
C8245 C 0.4313 0.58793 0.57849 0.0
H8246 H 0.47047 0.58987 0.57712 0.0
C8247 C 0.42975 0.57557 0.58862 0.0
C8248 C 0.44288 0.56828 0.5944 0.0
H8249 H 0.42108 0.59337 0.5739 0.0
H8250 H 0.41838 0.57168 0.59189 0.0
C8251 C 0.45747 0.57408 0.59078 0.0
C8252 C 0.82873 0.183 0.91843 0.0
C8253 C 0.82198 0.19623 0.91226 0.0
H8254 H 0.8461 0.1741 0.93347 0.0
C8255 C 0.82826 0.21071 0.91553 0.0
H8256 H 0.82447 0.1717 0.91542 0.0
C8257 C 0.83999 0.21217 0.92626 0.0
C8258 C 0.84622 0.19903 0.93305 0.0
H8259 H 0.82413 0.22091 0.90974 0.0
H8260 H 0.84436 0.2235 0.92905 0.0
C8261 C 0.84104 0.18439 0.9286 0.0
C8262 C 0.95893 0.66275 0.17215 0.0
C8263 C 0.94621 0.6576 0.18051 0.0
H8264 H 0.9669 0.67724 0.15402 0.0
C8265 C 0.93153 0.66344 0.17715 0.0
H8266 H 0.97024 0.6579 0.17412 0.0
C8267 C 0.92982 0.67526 0.16637 0.0
C8268 C 0.94272 0.6809 0.15856 0.0
H8269 H 0.92151 0.65924 0.18324 0.0
H8270 H 0.91852 0.68003 0.1642 0.0
C8271 C 0.95708 0.67396 0.1609 0.0
C8272 C 0.08304 0.59413 0.95934 0.0
C8273 C 0.07545 0.59669 0.9453 0.0
H8274 H 0.09956 0.58058 0.97175 0.0
C8275 C 0.08065 0.589 0.93213 0.0
H8276 H 0.08016 0.60089 0.96937 0.0
C8277 C 0.09254 0.57816 0.93327 0.0
C8278 C 0.09892 0.57442 0.94768 0.0
H8279 H 0.07541 0.59121 0.92106 0.0
H8280 H 0.09632 0.57222 0.92299 0.0
C8281 C 0.0943 0.58272 0.96067 0.0
C8282 C 0.67508 0.66515 0.43535 0.0
C8283 C 0.68033 0.65992 0.4497 0.0
H8284 H 0.66085 0.68142 0.42345 0.0
C8285 C 0.67393 0.66581 0.46323 0.0
H8286 H 0.67965 0.66038 0.42478 0.0
C8287 C 0.66285 0.6773 0.46239 0.0
C8288 C 0.65871 0.68358 0.44814 0.0
H8289 H 0.67736 0.66142 0.47437 0.0
H8290 H 0.65745 0.68124 0.47289 0.0
C8291 C 0.66449 0.67715 0.43457 0.0
C8292 C 0.82736 0.41816 0.68077 0.0
C8293 C 0.82115 0.41142 0.69398 0.0
H8294 H 0.84374 0.43429 0.67189 0.0
C8295 C 0.82738 0.41484 0.70844 0.0
H8296 H 0.8231 0.41511 0.66946 0.0
C8297 C 0.83854 0.42616 0.70993 0.0
C8298 C 0.84422 0.43349 0.69681 0.0
H8299 H 0.82363 0.40874 0.71861 0.0
H8300 H 0.84289 0.429 0.72125 0.0
C8301 C 0.83909 0.429 0.68217 0.0
C8302 C 0.84244 0.82725 0.54479 0.0
C8303 C 0.84479 0.82001 0.55899 0.0
H8304 H 0.82972 0.84414 0.53218 0.0
C8305 C 0.83762 0.82589 0.57217 0.0
H8306 H 0.84891 0.82378 0.53474 0.0
C8307 C 0.8274 0.83826 0.5709 0.0
C8308 C 0.82397 0.84446 0.55638 0.0
H8309 H 0.83987 0.82091 0.58336 0.0
H8310 H 0.82176 0.8426 0.58113 0.0
C8311 C 0.83176 0.83907 0.54338 0.0
C8312 C 0.66441 0.57849 0.79013 0.0
C8313 C 0.65848 0.57129 0.8032 0.0
H8314 H 0.67962 0.5957 0.78157 0.0
C8315 C 0.66357 0.57574 0.81788 0.0
H8316 H 0.66008 0.57572 0.77878 0.0
C8317 C 0.67553 0.58632 0.81937 0.0
C8318 C 0.68199 0.59292 0.8062 0.0
H8319 H 0.65871 0.57057 0.82812 0.0
H8320 H 0.67976 0.58927 0.83071 0.0
C8321 C 0.67575 0.58962 0.7917 0.0
C8322 C 0.9114 0.42817 0.07312 0.0
C8323 C 0.9051 0.43127 0.05852 0.0
H8324 H 0.92799 0.41511 0.08605 0.0
C8325 C 0.9092 0.42197 0.04606 0.0
H8326 H 0.90793 0.43488 0.08303 0.0
C8327 C 0.91987 0.41013 0.04806 0.0
C8328 C 0.92737 0.40807 0.06222 0.0
H8329 H 0.90392 0.42364 0.0349 0.0
H8330 H 0.92242 0.40267 0.03844 0.0
C8331 C 0.92273 0.41684 0.07489 0.0
C8332 C 0.91813 0.2113 0.83197 0.0
C8333 C 0.9115 0.19841 0.82506 0.0
H8334 H 0.93429 0.21947 0.84849 0.0
C8335 C 0.91635 0.18361 0.82937 0.0
H8336 H 0.91406 0.22277 0.82932 0.0
C8337 C 0.92872 0.1818 0.83948 0.0
C8338 C 0.93588 0.19478 0.84574 0.0
H8339 H 0.911 0.1735 0.82443 0.0
H8340 H 0.93273 0.17036 0.84232 0.0
C8341 C 0.92989 0.20943 0.84263 0.0
C8342 C 0.29058 0.67405 0.08874 0.0
C8343 C 0.30385 0.68068 0.09492 0.0
H8344 H 0.28155 0.65742 0.07311 0.0
C8345 C 0.3184 0.67568 0.09 0.0
H8346 H 0.27929 0.67729 0.09289 0.0
C8347 C 0.31963 0.66512 0.07801 0.0
C8348 C 0.30631 0.65913 0.07127 0.0
H8349 H 0.32878 0.68042 0.095 0.0
H8350 H 0.3309 0.66169 0.07396 0.0
C8351 C 0.29186 0.663 0.07726 0.0
C8352 C 0.46111 0.66691 0.67152 0.0
C8353 C 0.44799 0.66036 0.67806 0.0
H8354 H 0.46985 0.68312 0.65534 0.0
C8355 C 0.43334 0.66533 0.67341 0.0
H8356 H 0.47248 0.66276 0.67448 0.0
C8357 C 0.4319 0.67772 0.66329 0.0
C8358 C 0.4451 0.6848 0.6574 0.0
H8359 H 0.42307 0.66006 0.67809 0.0
H8360 H 0.42057 0.68179 0.66012 0.0
C8361 C 0.45963 0.67875 0.66089 0.0
C8362 C 0.32382 0.58739 0.1792 0.0
C8363 C 0.31092 0.59507 0.18501 0.0
H8364 H 0.33209 0.57065 0.16303 0.0
C8365 C 0.29651 0.59269 0.17821 0.0
H8366 H 0.33515 0.58962 0.18386 0.0
C8367 C 0.29462 0.5815 0.16695 0.0
C8368 C 0.30735 0.57324 0.16166 0.0
H8369 H 0.28667 0.59951 0.18162 0.0
H8370 H 0.28328 0.57947 0.16221 0.0
C8371 C 0.32207 0.57666 0.16735 0.0
C8372 C 0.92567 0.06903 0.41019 0.0
C8373 C 0.92951 0.05414 0.40508 0.0
H8374 H 0.91249 0.08259 0.4262 0.0
C8375 C 0.9211 0.0416 0.41056 0.0
H8376 H 0.93166 0.07896 0.40565 0.0
C8377 C 0.9095 0.04386 0.42145 0.0
C8378 C 0.90691 0.05843 0.42793 0.0
H8379 H 0.92325 0.03013 0.4062 0.0
H8380 H 0.90261 0.03412 0.42494 0.0
C8381 C 0.9147 0.07114 0.42183 0.0
C8382 C 0.08837 0.96039 0.58349 0.0
C8383 C 0.09416 0.94784 0.57528 0.0
H8384 H 0.07282 0.96788 0.60094 0.0
C8385 C 0.08838 0.93303 0.5781 0.0
H8386 H 0.09315 0.97178 0.58192 0.0
C8387 C 0.07599 0.93103 0.58813 0.0
C8388 C 0.06969 0.94374 0.59576 0.0
H8389 H 0.09306 0.92316 0.57211 0.0
H8390 H 0.07131 0.91962 0.5899 0.0
C8391 C 0.07656 0.95822 0.59405 0.0
C8392 C 0.57791 0.82041 0.66708 0.0
C8393 C 0.571 0.80747 0.66049 0.0
H8394 H 0.59542 0.82863 0.68236 0.0
C8395 C 0.57713 0.79283 0.66331 0.0
H8396 H 0.57376 0.83186 0.66446 0.0
C8397 C 0.58885 0.79088 0.674 0.0
C8398 C 0.59524 0.80373 0.68121 0.0
H8399 H 0.5729 0.78287 0.65719 0.0
H8400 H 0.59309 0.77943 0.67643 0.0
C8401 C 0.59022 0.81856 0.6772 0.0
C8402 C 0.68209 0.32745 0.9129 0.0
C8403 C 0.69666 0.32216 0.90833 0.0
H8404 H 0.6696 0.34267 0.92784 0.0
C8405 C 0.70992 0.32909 0.91415 0.0
H8406 H 0.67174 0.3224 0.90817 0.0
C8407 C 0.70868 0.34071 0.925 0.0
C8408 C 0.69419 0.34536 0.93031 0.0
H8409 H 0.7212 0.32569 0.91015 0.0
H8410 H 0.71908 0.34595 0.92941 0.0
C8411 C 0.68085 0.339 0.92397 0.0
C8412 C 0.70917 0.42535 0.83819 0.0
C8413 C 0.69447 0.43102 0.84159 0.0
H8414 H 0.7226 0.41018 0.8242 0.0
C8415 C 0.68153 0.42409 0.83504 0.0
H8416 H 0.71919 0.42961 0.84421 0.0
C8417 C 0.68341 0.41221 0.82442 0.0
C8418 C 0.69825 0.40767 0.81991 0.0
H8419 H 0.67006 0.4279 0.83806 0.0
H8420 H 0.67334 0.40698 0.81929 0.0
C8421 C 0.71112 0.41408 0.82703 0.0
C8422 C 0.06781 0.83783 0.32699 0.0
C8423 C 0.05437 0.84354 0.32023 0.0
H8424 H 0.07727 0.82329 0.3445 0.0
C8425 C 0.04004 0.83997 0.32666 0.0
H8426 H 0.079 0.84107 0.32261 0.0
C8427 C 0.03897 0.82944 0.33863 0.0
C8428 C 0.05235 0.82309 0.34487 0.0
H8429 H 0.02965 0.8454 0.32249 0.0
H8430 H 0.02776 0.8264 0.34313 0.0
C8431 C 0.06681 0.82782 0.33947 0.0
C8432 C 0.32662 0.3378 0.57171 0.0
C8433 C 0.32278 0.34321 0.55699 0.0
H8434 H 0.34031 0.32187 0.58476 0.0
C8435 C 0.33094 0.33798 0.54415 0.0
H8436 H 0.32067 0.34208 0.58179 0.0
C8437 C 0.34248 0.32707 0.54597 0.0
C8438 C 0.34535 0.32057 0.56043 0.0
H8439 H 0.32856 0.34251 0.53279 0.0
H8440 H 0.34919 0.32369 0.53604 0.0
C8441 C 0.33772 0.3263 0.57341 0.0
C8442 C 0.16753 0.58255 0.31833 0.0
C8443 C 0.16092 0.57611 0.30515 0.0
H8444 H 0.18315 0.5994 0.32725 0.0
C8445 C 0.16408 0.58266 0.29073 0.0
H8446 H 0.16475 0.5781 0.32963 0.0
C8447 C 0.17519 0.59414 0.28923 0.0
C8448 C 0.18248 0.59996 0.30232 0.0
H8449 H 0.158 0.57884 0.28059 0.0
H8450 H 0.17788 0.59863 0.27792 0.0
C8451 C 0.178 0.59465 0.31694 0.0
C8452 C 0.16825 0.16224 0.46264 0.0
C8453 C 0.17449 0.15909 0.44809 0.0
H8454 H 0.1528 0.17624 0.47587 0.0
C8455 C 0.16804 0.16601 0.43508 0.0
H8456 H 0.17209 0.15596 0.47266 0.0
C8457 C 0.1562 0.17675 0.43679 0.0
C8458 C 0.1512 0.18115 0.45155 0.0
H8459 H 0.17228 0.16329 0.42369 0.0
H8460 H 0.15139 0.18212 0.42663 0.0
C8461 C 0.15706 0.17359 0.46446 0.0
C8462 C 0.32553 0.41591 0.18036 0.0
C8463 C 0.3202 0.40792 0.19329 0.0
H8464 H 0.34118 0.43305 0.17194 0.0
C8465 C 0.32733 0.41022 0.20756 0.0
H8466 H 0.32062 0.41377 0.16912 0.0
C8467 C 0.33842 0.42161 0.20934 0.0
C8468 C 0.34323 0.43015 0.1966 0.0
H8469 H 0.32432 0.4032 0.21737 0.0
H8470 H 0.34342 0.42356 0.22058 0.0
C8471 C 0.33722 0.42682 0.18197 0.0
C8472 C 0.08846 0.79096 0.17464 0.0
C8473 C 0.09196 0.80557 0.18047 0.0
H8474 H 0.07422 0.7778 0.15949 0.0
C8475 C 0.08527 0.81864 0.17392 0.0
H8476 H 0.09455 0.78088 0.17864 0.0
C8477 C 0.07444 0.81696 0.16222 0.0
C8478 C 0.06988 0.80221 0.15751 0.0
H8479 H 0.08837 0.83003 0.17787 0.0
H8480 H 0.06924 0.82712 0.15724 0.0
C8481 C 0.07711 0.78922 0.16356 0.0
C8482 C 0.54299 0.33683 0.33111 0.0
C8483 C 0.55589 0.3432 0.32399 0.0
H8484 H 0.53482 0.32139 0.34829 0.0
C8485 C 0.5707 0.33862 0.32856 0.0
H8486 H 0.53152 0.34075 0.32823 0.0
C8487 C 0.57251 0.32675 0.33922 0.0
C8488 C 0.55953 0.31986 0.34575 0.0
H8489 H 0.5808 0.34381 0.32344 0.0
H8490 H 0.58396 0.32291 0.34228 0.0
C8491 C 0.54487 0.32559 0.3423 0.0
C8492 C 0.42745 0.21222 0.34045 0.0
C8493 C 0.4337 0.19773 0.34372 0.0
H8494 H 0.41139 0.22507 0.3269 0.0
C8495 C 0.42693 0.18453 0.33749 0.0
H8496 H 0.43158 0.22239 0.34627 0.0
C8497 C 0.41463 0.18596 0.32728 0.0
C8498 C 0.40947 0.20061 0.32283 0.0
H8499 H 0.43117 0.17321 0.34046 0.0
H8500 H 0.40956 0.17569 0.3224 0.0
C8501 C 0.41573 0.21373 0.32967 0.0
C8502 C 0.95978 0.17291 0.66739 0.0
C8503 C 0.94684 0.18106 0.66242 0.0
H8504 H 0.96829 0.155 0.68188 0.0
C8505 C 0.93232 0.17751 0.66855 0.0
H8506 H 0.97097 0.17503 0.66234 0.0
C8507 C 0.93099 0.16676 0.68045 0.0
C8508 C 0.94411 0.15917 0.68591 0.0
H8509 H 0.92213 0.18342 0.66451 0.0
H8510 H 0.91981 0.16444 0.68542 0.0
C8511 C 0.9583 0.16171 0.67872 0.0
C8512 C 0.57707 0.08603 0.93097 0.0
C8513 C 0.57401 0.09293 0.94526 0.0
H8514 H 0.58936 0.06817 0.91903 0.0
C8515 C 0.58225 0.08834 0.95827 0.0
H8516 H 0.57107 0.08978 0.92072 0.0
C8517 C 0.5931 0.07664 0.95711 0.0
C8518 C 0.59511 0.06869 0.94323 0.0
H8519 H 0.58052 0.09398 0.96925 0.0
H8520 H 0.59993 0.0738 0.96711 0.0
C8521 C 0.58742 0.07374 0.93001 0.0
C8522 C 0.41678 0.32479 0.18057 0.0
C8523 C 0.40918 0.31914 0.19361 0.0
H8524 H 0.43315 0.34114 0.17191 0.0
C8525 C 0.41134 0.32642 0.20783 0.0
H8526 H 0.41473 0.31977 0.16936 0.0
C8527 C 0.42225 0.33801 0.20944 0.0
C8528 C 0.43042 0.34316 0.19659 0.0
H8529 H 0.40456 0.32315 0.21773 0.0
H8530 H 0.42411 0.34311 0.22066 0.0
C8531 C 0.4272 0.33696 0.18203 0.0
C8532 C 0.59061 0.17714 0.29045 0.0
C8533 C 0.59464 0.18328 0.30479 0.0
H8534 H 0.57632 0.16124 0.27825 0.0
C8535 C 0.58896 0.17662 0.31827 0.0
H8536 H 0.59597 0.18127 0.28001 0.0
C8537 C 0.57852 0.16451 0.31733 0.0
C8538 C 0.57337 0.15941 0.3029 0.0
H8539 H 0.59254 0.18079 0.32945 0.0
H8540 H 0.57402 0.15954 0.32783 0.0
C8541 C 0.57969 0.16554 0.28946 0.0
C8542 C 0.42438 0.91031 0.03898 0.0
C8543 C 0.43159 0.90478 0.05223 0.0
H8544 H 0.4069 0.92505 0.02992 0.0
C8545 C 0.42662 0.90999 0.06674 0.0
H8546 H 0.42747 0.9059 0.02774 0.0
C8547 C 0.41568 0.92171 0.06788 0.0
C8548 C 0.40911 0.92786 0.05455 0.0
H8549 H 0.43171 0.90545 0.07717 0.0
H8550 H 0.41252 0.92611 0.07911 0.0
C8551 C 0.41284 0.92141 0.04021 0.0
C8552 C 0.93562 0.07536 0.59581 0.0
C8553 C 0.9503 0.07079 0.60092 0.0
H8554 H 0.92274 0.08928 0.57996 0.0
C8555 C 0.96328 0.07853 0.59547 0.0
H8556 H 0.92538 0.06987 0.60029 0.0
C8557 C 0.96161 0.09021 0.58456 0.0
C8558 C 0.94714 0.09357 0.57822 0.0
H8559 H 0.97462 0.07575 0.59981 0.0
H8560 H 0.97168 0.09655 0.58099 0.0
C8561 C 0.93407 0.08645 0.58428 0.0
C8562 C 0.78999 0.17421 0.08738 0.0
C8563 C 0.80281 0.18117 0.09407 0.0
H8564 H 0.78206 0.15749 0.07129 0.0
C8565 C 0.81769 0.1768 0.08955 0.0
H8566 H 0.77847 0.17695 0.09125 0.0
C8567 C 0.81968 0.1665 0.07742 0.0
C8568 C 0.80679 0.16016 0.0702 0.0
H8569 H 0.82772 0.1818 0.09498 0.0
H8570 H 0.83118 0.16356 0.07365 0.0
C8571 C 0.79204 0.16339 0.07581 0.0
C8572 C 0.33567 0.54351 0.33079 0.0
C8573 C 0.34228 0.55643 0.32394 0.0
H8574 H 0.31953 0.53522 0.34726 0.0
C8575 C 0.33738 0.57121 0.32831 0.0
H8576 H 0.33978 0.53206 0.32811 0.0
C8577 C 0.32497 0.57294 0.33842 0.0
C8578 C 0.31784 0.55991 0.34463 0.0
H8579 H 0.34271 0.58134 0.32342 0.0
H8580 H 0.32091 0.58436 0.34128 0.0
C8581 C 0.32389 0.5453 0.34145 0.0
C8582 C 0.34412 0.70862 0.92673 0.0
C8583 C 0.34702 0.69419 0.93331 0.0
H8584 H 0.33093 0.72148 0.9104 0.0
C8585 C 0.34042 0.68103 0.92679 0.0
H8586 H 0.35019 0.71873 0.93066 0.0
C8587 C 0.33021 0.68247 0.91446 0.0
C8588 C 0.32619 0.69712 0.90895 0.0
H8589 H 0.3431 0.66972 0.93126 0.0
H8590 H 0.32499 0.67224 0.90963 0.0
C8591 C 0.33342 0.71016 0.91495 0.0
C8592 C 0.81912 0.07693 0.1624 0.0
C8593 C 0.80444 0.07196 0.15785 0.0
H8594 H 0.83201 0.09081 0.17822 0.0
C8595 C 0.79133 0.07842 0.16451 0.0
H8596 H 0.82935 0.07229 0.15702 0.0
C8597 C 0.79289 0.0893 0.17609 0.0
C8598 C 0.8075 0.09318 0.18166 0.0
H8599 H 0.77993 0.07518 0.16066 0.0
H8600 H 0.78267 0.09473 0.18066 0.0
C8601 C 0.82065 0.08735 0.17447 0.0
C8602 C 0.4262 0.57237 0.41759 0.0
C8603 C 0.43026 0.5577 0.41215 0.0
H8604 H 0.41236 0.5852 0.43361 0.0
C8605 C 0.42221 0.54479 0.41728 0.0
H8606 H 0.43204 0.58252 0.41336 0.0
C8607 C 0.41057 0.54646 0.42811 0.0
C8608 C 0.40753 0.56084 0.43472 0.0
H8609 H 0.4247 0.53347 0.41269 0.0
H8610 H 0.40396 0.53645 0.43137 0.0
C8611 C 0.41504 0.57391 0.42908 0.0
C8612 C 0.57846 0.436 0.58606 0.0
C8613 C 0.57207 0.44921 0.59265 0.0
H8614 H 0.59532 0.42714 0.57042 0.0
C8615 C 0.57839 0.46366 0.58941 0.0
H8616 H 0.57414 0.42469 0.589 0.0
C8617 C 0.58979 0.46516 0.57833 0.0
C8618 C 0.59567 0.45205 0.57118 0.0
H8619 H 0.57456 0.47381 0.5955 0.0
H8620 H 0.59423 0.47648 0.5756 0.0
C8621 C 0.59048 0.4374 0.57556 0.0
C8622 C 0.21085 0.83063 0.91785 0.0
C8623 C 0.19822 0.82264 0.91197 0.0
H8624 H 0.21847 0.84847 0.93288 0.0
C8625 C 0.18332 0.82641 0.91698 0.0
H8626 H 0.22235 0.82838 0.91363 0.0
C8627 C 0.18123 0.83718 0.92874 0.0
C8628 C 0.194 0.8446 0.93513 0.0
H8629 H 0.17339 0.82062 0.91219 0.0
H8630 H 0.16975 0.83962 0.9329 0.0
C8631 C 0.20866 0.84189 0.929 0.0
C8632 C 0.66198 0.93405 0.17606 0.0
C8633 C 0.6572 0.94888 0.18032 0.0
H8634 H 0.67854 0.92071 0.16351 0.0
C8635 C 0.66419 0.96177 0.17379 0.0
H8636 H 0.65635 0.92397 0.18073 0.0
C8637 C 0.67629 0.95984 0.16354 0.0
C8638 C 0.68213 0.94513 0.16049 0.0
H8639 H 0.66017 0.97326 0.17643 0.0
H8640 H 0.68105 0.96988 0.15795 0.0
C8641 C 0.67462 0.93218 0.16637 0.0
C8642 C 0.06666 0.41705 0.93079 0.0
C8643 C 0.05209 0.41189 0.9355 0.0
H8644 H 0.07915 0.43324 0.91693 0.0
C8645 C 0.03888 0.41772 0.92846 0.0
H8646 H 0.07701 0.41229 0.93582 0.0
C8647 C 0.0402 0.42904 0.91726 0.0
C8648 C 0.0546 0.43533 0.91368 0.0
H8649 H 0.0276 0.41336 0.93143 0.0
H8650 H 0.02994 0.43288 0.91138 0.0
C8651 C 0.0679 0.42896 0.9201 0.0
C8652 C 0.67784 0.82341 0.58551 0.0
C8653 C 0.68151 0.80888 0.59157 0.0
H8654 H 0.66436 0.83592 0.56894 0.0
C8655 C 0.67312 0.79599 0.58694 0.0
H8656 H 0.68394 0.83357 0.58934 0.0
C8657 C 0.66153 0.79751 0.57602 0.0
C8658 C 0.65887 0.81167 0.5688 0.0
H8659 H 0.67531 0.78481 0.59198 0.0
H8660 H 0.65465 0.78755 0.57317 0.0
C8661 C 0.66673 0.82477 0.57393 0.0
C8662 C 0.21335 0.92527 0.84088 0.0
C8663 C 0.19996 0.93178 0.84691 0.0
H8664 H 0.22267 0.90857 0.82549 0.0
C8665 C 0.18549 0.92658 0.84199 0.0
H8666 H 0.22458 0.9287 0.84504 0.0
C8667 C 0.18446 0.91583 0.83017 0.0
C8668 C 0.19789 0.90991 0.82361 0.0
H8669 H 0.17504 0.93126 0.84689 0.0
H8670 H 0.17326 0.9122 0.82612 0.0
C8671 C 0.21227 0.91406 0.82956 0.0
C8672 C 0.58114 0.66516 0.79295 0.0
C8673 C 0.57281 0.66006 0.80571 0.0
H8674 H 0.59917 0.67971 0.78489 0.0
C8675 C 0.57608 0.66605 0.82036 0.0
H8676 H 0.57923 0.6602 0.78168 0.0
C8677 C 0.58675 0.67798 0.82198 0.0
C8678 C 0.59453 0.68357 0.80904 0.0
H8679 H 0.57001 0.66188 0.8304 0.0
H8680 H 0.58885 0.68286 0.83325 0.0
C8681 C 0.59228 0.67649 0.79474 0.0
C8682 C 0.42387 0.83923 0.71348 0.0
C8683 C 0.43034 0.84544 0.70015 0.0
H8684 H 0.4074 0.82353 0.72264 0.0
C8685 C 0.42528 0.8405 0.68563 0.0
H8686 H 0.42716 0.8434 0.72475 0.0
C8687 C 0.41478 0.82846 0.68448 0.0
C8688 C 0.40893 0.82171 0.69785 0.0
H8689 H 0.42991 0.84554 0.67521 0.0
H8690 H 0.41128 0.8244 0.67323 0.0
C8691 C 0.41287 0.82771 0.71228 0.0
C8692 C 0.07192 0.92671 0.41679 0.0
C8693 C 0.05734 0.92981 0.41056 0.0
H8694 H 0.08461 0.91454 0.43418 0.0
C8695 C 0.0445 0.92175 0.41589 0.0
H8696 H 0.08202 0.93257 0.41246 0.0
C8697 C 0.04614 0.91106 0.42766 0.0
C8698 C 0.06038 0.90904 0.43493 0.0
H8699 H 0.03328 0.92351 0.41077 0.0
H8700 H 0.03625 0.90436 0.43109 0.0
C8701 C 0.0734 0.91652 0.42914 0.0
C8702 C 0.67345 0.46067 0.66658 0.0
C8703 C 0.68068 0.44796 0.65993 0.0
H8704 H 0.65618 0.46839 0.68219 0.0
C8705 C 0.67619 0.43303 0.66418 0.0
H8706 H 0.67626 0.47224 0.66293 0.0
C8707 C 0.6655 0.43088 0.67598 0.0
C8708 C 0.65886 0.44366 0.68316 0.0
H8709 H 0.68138 0.42307 0.65878 0.0
H8710 H 0.66251 0.41933 0.67955 0.0
C8711 C 0.66223 0.45847 0.67776 0.0
C8712 C 0.67506 0.32202 0.08606 0.0
C8713 C 0.68133 0.30879 0.09271 0.0
H8714 H 0.65848 0.33094 0.07014 0.0
C8715 C 0.67502 0.29436 0.08933 0.0
H8716 H 0.67937 0.33331 0.08907 0.0
C8717 C 0.66379 0.2929 0.07809 0.0
C8718 C 0.65804 0.30603 0.07086 0.0
H8719 H 0.67877 0.28418 0.09543 0.0
H8720 H 0.65939 0.28159 0.07527 0.0
C8721 C 0.66321 0.32066 0.07535 0.0
C8722 C 0.33818 0.04176 0.83057 0.0
C8723 C 0.34472 0.05457 0.82346 0.0
H8724 H 0.32222 0.03384 0.84739 0.0
C8725 C 0.33999 0.06945 0.82763 0.0
H8726 H 0.34223 0.03026 0.82801 0.0
C8727 C 0.32778 0.07141 0.83785 0.0
C8728 C 0.32072 0.05851 0.84435 0.0
H8729 H 0.34532 0.07947 0.82253 0.0
H8730 H 0.32384 0.08289 0.84061 0.0
C8731 C 0.32658 0.04379 0.84135 0.0
C8732 C 0.93411 0.58327 0.07516 0.0
C8733 C 0.94718 0.59009 0.06872 0.0
H8734 H 0.92554 0.56724 0.09183 0.0
C8735 C 0.96171 0.58685 0.07493 0.0
H8736 H 0.92274 0.58614 0.07096 0.0
C8737 C 0.96341 0.57563 0.08619 0.0
C8738 C 0.95044 0.56822 0.09209 0.0
H8739 H 0.97179 0.59302 0.07105 0.0
H8740 H 0.9748 0.57295 0.09048 0.0
C8741 C 0.93572 0.57256 0.08702 0.0
C8742 C 0.34398 0.21315 0.42659 0.0
C8743 C 0.34918 0.20023 0.43461 0.0
H8744 H 0.32959 0.22145 0.40846 0.0
C8745 C 0.34373 0.18556 0.43046 0.0
H8746 H 0.34861 0.22445 0.42905 0.0
C8747 C 0.33211 0.18401 0.41946 0.0
C8748 C 0.32633 0.19706 0.41206 0.0
H8749 H 0.34803 0.17537 0.43619 0.0
H8750 H 0.32752 0.17272 0.41692 0.0
C8751 C 0.33299 0.21145 0.41502 0.0
C8752 C 0.59185 0.57724 0.45768 0.0
C8753 C 0.59419 0.57037 0.44328 0.0
H8754 H 0.57866 0.59328 0.4709 0.0
C8755 C 0.58645 0.57612 0.43038 0.0
H8756 H 0.5987 0.57388 0.4675 0.0
C8757 C 0.57572 0.58798 0.43213 0.0
C8758 C 0.57234 0.59374 0.44685 0.0
H8759 H 0.58864 0.57142 0.41906 0.0
H8760 H 0.56968 0.59227 0.42211 0.0
C8761 C 0.58064 0.58849 0.45957 0.0
C8762 C 0.42431 0.41577 0.56862 0.0
C8763 C 0.43 0.41056 0.55444 0.0
H8764 H 0.40837 0.43082 0.57996 0.0
C8765 C 0.42324 0.41547 0.54072 0.0
H8766 H 0.42925 0.41175 0.57933 0.0
C8767 C 0.4114 0.42613 0.5411 0.0
C8768 C 0.40629 0.43198 0.5552 0.0
H8769 H 0.42693 0.41089 0.52975 0.0
H8770 H 0.40627 0.42987 0.53037 0.0
C8771 C 0.41247 0.42654 0.569 0.0
C8772 C 0.82075 0.67539 0.5871 0.0
C8773 C 0.80593 0.67966 0.59195 0.0
H8774 H 0.83403 0.66218 0.57096 0.0
C8775 C 0.79308 0.67247 0.58554 0.0
H8776 H 0.83083 0.68055 0.59228 0.0
C8777 C 0.79499 0.66155 0.574 0.0
C8778 C 0.80963 0.65843 0.56801 0.0
H8779 H 0.7816 0.67511 0.58962 0.0
H8780 H 0.78498 0.65551 0.56976 0.0
C8781 C 0.82258 0.665 0.57496 0.0
C8782 C 0.82107 0.57861 0.66569 0.0
C8783 C 0.80686 0.57442 0.65925 0.0
H8784 H 0.83259 0.59208 0.68295 0.0
C8785 C 0.79343 0.58183 0.66412 0.0
H8786 H 0.83161 0.57324 0.66177 0.0
C8787 C 0.79413 0.5929 0.67564 0.0
C8788 C 0.80804 0.59605 0.68312 0.0
H8789 H 0.78245 0.57919 0.65886 0.0
H8790 H 0.78375 0.59903 0.67871 0.0
C8791 C 0.82163 0.58924 0.67776 0.0
C8792 C 0.41679 0.0732 0.92889 0.0
C8793 C 0.40996 0.06015 0.93537 0.0
H8794 H 0.43311 0.08165 0.91239 0.0
C8795 C 0.41345 0.04557 0.92942 0.0
H8796 H 0.41376 0.08459 0.9329 0.0
C8797 C 0.42492 0.0438 0.91844 0.0
C8798 C 0.43235 0.05674 0.9125 0.0
H8799 H 0.40731 0.03549 0.9333 0.0
H8800 H 0.42778 0.03237 0.91439 0.0
C8801 C 0.42777 0.0715 0.91725 0.0
C8802 C 0.57508 0.96169 0.0897 0.0
C8803 C 0.56898 0.94748 0.09419 0.0
H8804 H 0.59145 0.97337 0.07566 0.0
C8805 C 0.5753 0.9338 0.08855 0.0
H8806 H 0.57069 0.97233 0.09446 0.0
C8807 C 0.58718 0.93442 0.07781 0.0
C8808 C 0.59261 0.94871 0.07265 0.0
H8809 H 0.57084 0.92276 0.09219 0.0
H8810 H 0.59187 0.92382 0.07327 0.0
C8811 C 0.5868 0.96231 0.07892 0.0
C8812 C 0.20766 0.3212 0.41342 0.0
C8813 C 0.19311 0.31517 0.40999 0.0
H8814 H 0.22062 0.33734 0.42675 0.0
C8815 C 0.17996 0.32252 0.41569 0.0
H8816 H 0.21787 0.31662 0.408 0.0
C8817 C 0.18147 0.33513 0.42558 0.0
C8818 C 0.19614 0.34007 0.43021 0.0
H8819 H 0.1686 0.31848 0.41259 0.0
H8820 H 0.17124 0.34059 0.43011 0.0
C8821 C 0.20922 0.33324 0.42384 0.0
C8822 C 0.18735 0.41911 0.33737 0.0
C8823 C 0.20039 0.42578 0.34403 0.0
H8824 H 0.17878 0.40199 0.32185 0.0
C8825 C 0.21491 0.41934 0.34106 0.0
H8826 H 0.17598 0.42346 0.33999 0.0
C8827 C 0.21664 0.40774 0.33008 0.0
C8828 C 0.20369 0.40169 0.32273 0.0
H8829 H 0.22495 0.42334 0.34719 0.0
H8830 H 0.22802 0.40336 0.32752 0.0
C8831 C 0.18898 0.4069 0.32704 0.0
C8832 C 1.00093 0.12388 0.51527 0.0
C8833 C 0.98506 0.12622 0.51345 0.0
H8834 H 0.02274 0.12104 0.50428 0.0
C8835 C 0.97943 0.1298 0.49869 0.0
H8836 H 0.00559 0.12094 0.52644 0.0
C8837 C 0.98931 0.12962 0.48582 0.0
C8838 C 0.00499 0.12605 0.48759 0.0
H8839 H 0.9672 0.13129 0.49687 0.0
H8840 H 0.98447 0.13095 0.47443 0.0
C8841 C 0.01075 0.12389 0.50253 0.0
C8842 C 0.86908 0.25742 0.747 0.0
C8843 C 0.87864 0.25627 0.73399 0.0
H8844 H 0.86295 0.24763 0.76894 0.0
C8845 C 0.88733 0.24281 0.73195 0.0
H8846 H 0.86251 0.2678 0.74902 0.0
C8847 C 0.88766 0.23143 0.74326 0.0
C8848 C 0.87926 0.23314 0.75694 0.0
H8849 H 0.89487 0.24162 0.72209 0.0
H8850 H 0.8954 0.22178 0.74178 0.0
C8851 C 0.86937 0.24589 0.75841 0.0
C8852 C 0.74702 0.1175 0.99584 0.0
C8853 C 0.74945 0.1254 0.98194 0.0
H8854 H 0.75567 0.11295 0.0186 0.0
C8855 C 0.76383 0.13212 0.97915 0.0
H8856 H 0.73587 0.11257 0.99837 0.0
C8857 C 0.77512 0.13213 0.99054 0.0
C8858 C 0.77219 0.12558 0.00499 0.0
H8859 H 0.76586 0.1385 0.96864 0.0
H8860 H 0.78562 0.13854 0.98855 0.0
C8861 C 0.75831 0.1177 0.00739 0.0
C8862 C 0.88107 0.00487 0.25737 0.0
C8863 C 0.87408 0.01901 0.25388 0.0
H8864 H 0.88603 0.98195 0.24942 0.0
C8865 C 0.86924 0.02187 0.23878 0.0
H8866 H 0.88464 0.00236 0.26903 0.0
C8867 C 0.8705 0.01046 0.22754 0.0
C8868 C 0.87634 0.99587 0.23124 0.0
H8869 H 0.86363 0.03263 0.23591 0.0
H8870 H 0.86554 0.01257 0.2163 0.0
C8871 C 0.88203 0.99327 0.24614 0.0
C8872 C 0.00701 0.11682 0.7584 0.0
C8873 C 0.00478 0.125 0.77218 0.0
H8874 H 0.99782 0.11138 0.73606 0.0
C8875 C 0.99023 0.13126 0.77526 0.0
H8876 H 0.01824 0.11222 0.75561 0.0
C8877 C 0.9785 0.13038 0.76432 0.0
C8878 C 0.98114 0.1235 0.74994 0.0
H8879 H 0.98829 0.13782 0.78568 0.0
H8880 H 0.96783 0.13646 0.7665 0.0
C8881 C 0.99532 0.11626 0.74724 0.0
C8882 C 0.88725 0.24629 0.99824 0.0
C8883 C 0.87989 0.23213 1.00085 0.0
H8884 H 0.89149 0.26909 0.0069 0.0
C8885 C 0.87399 0.22902 0.01554 0.0
H8886 H 0.89153 0.2491 0.98688 0.0
C8887 C 0.87435 0.24025 0.02704 0.0
C8888 C 0.88035 0.25492 0.02401 0.0
H8889 H 0.868 0.21832 0.01775 0.0
H8890 H 0.86851 0.23797 0.03782 0.0
C8891 C 0.88729 0.25771 0.00969 0.0
C8892 C 0.7746 0.11999 0.2614 0.0
C8893 C 0.77222 0.12685 0.24699 0.0
H8894 H 0.76445 0.11286 0.28264 0.0
C8895 C 0.75832 0.13452 0.2441 0.0
H8896 H 0.78516 0.11382 0.26375 0.0
C8897 C 0.74646 0.13414 0.25505 0.0
C8898 C 0.74839 0.12586 0.2688 0.0
H8899 H 0.75612 0.13951 0.2329 0.0
H8900 H 0.73536 0.13896 0.25213 0.0
C8901 C 0.76276 0.1194 0.27217 0.0
C8902 C 0.87742 0.9923 0.5001 0.0
C8903 C 0.87586 0.99689 0.5155 0.0
H8904 H 0.87895 0.99926 0.47653 0.0
C8905 C 0.87196 0.01231 0.51857 0.0
H8906 H 0.88055 0.98057 0.49735 0.0
C8907 C 0.87095 0.02313 0.5065 0.0
C8908 C 0.87386 0.0187 0.49119 0.0
H8909 H 0.87105 0.01626 0.53035 0.0
H8910 H 0.8694 0.03517 0.50931 0.0
C8911 C 0.87642 0.00303 0.48813 0.0
C8912 C 0.47833 0.99884 0.11224 0.0
C8913 C 0.48026 0.01029 0.12349 0.0
H8914 H 0.48752 0.97884 0.10125 0.0
C8915 C 0.49269 0.009 0.13376 0.0
H8916 H 0.46903 0.99968 0.10398 0.0
C8917 C 0.50335 0.99681 0.13227 0.0
C8918 C 0.50191 0.986 0.12025 0.0
H8919 H 0.49471 0.01788 0.14225 0.0
H8920 H 0.51324 0.99646 0.13981 0.0
C8921 C 0.48902 0.98696 0.11058 0.0
C8922 C 0.02385 0.7402 0.37217 0.0
C8923 C 0.02088 0.75467 0.37864 0.0
H8924 H 0.01488 0.71801 0.36646 0.0
C8925 C 0.00702 0.75695 0.38667 0.0
H8926 H 0.0343 0.73824 0.36568 0.0
C8927 C 0.99571 0.74538 0.3869 0.0
C8928 C 0.99832 0.73131 0.37941 0.0
H8929 H 0.0043 0.76815 0.39141 0.0
H8930 H 0.98452 0.74792 0.39174 0.0
C8931 C 0.01274 0.72861 0.37266 0.0
C8932 C 0.27481 0.26089 0.62339 0.0
C8933 C 0.27151 0.24638 0.62967 0.0
H8934 H 0.26597 0.28285 0.61655 0.0
C8935 C 0.25707 0.24394 0.63648 0.0
H8936 H 0.2857 0.26291 0.61769 0.0
C8937 C 0.24578 0.25552 0.63603 0.0
C8938 C 0.24871 0.2695 0.62844 0.0
H8939 H 0.25408 0.2327 0.64092 0.0
H8940 H 0.23435 0.25299 0.64026 0.0
C8941 C 0.2635 0.27228 0.62266 0.0
C8942 C 0.75398 0.50661 0.88364 0.0
C8943 C 0.75155 0.51978 0.87456 0.0
H8944 H 0.74563 0.4841 0.88971 0.0
C8945 C 0.73737 0.52173 0.86718 0.0
H8946 H 0.76498 0.50476 0.88918 0.0
C8947 C 0.72628 0.51018 0.86781 0.0
C8948 C 0.72926 0.49635 0.87559 0.0
H8949 H 0.73532 0.53169 0.85998 0.0
H8950 H 0.71594 0.51146 0.86097 0.0
C8951 C 0.74293 0.49484 0.88401 0.0
C8952 C 0.4918 0.27397 0.13895 0.0
C8953 C 0.50502 0.27273 0.12974 0.0
H8954 H 0.4717 0.26287 0.14768 0.0
C8955 C 0.5065 0.25998 0.11989 0.0
H8956 H 0.49037 0.28365 0.14667 0.0
C8957 C 0.49563 0.24799 0.12043 0.0
C8958 C 0.4833 0.24863 0.13089 0.0
H8959 H 0.51671 0.25861 0.1129 0.0
H8960 H 0.49763 0.23769 0.11371 0.0
C8961 C 0.48113 0.26205 0.13958 0.0
C8962 C 0.76192 0.75337 0.37605 0.0
C8963 C 0.75886 0.73766 0.37399 0.0
H8964 H 0.75266 0.77606 0.37812 0.0
C8965 C 0.74387 0.7332 0.36981 0.0
H8966 H 0.77328 0.75713 0.37947 0.0
C8967 C 0.7319 0.74412 0.36921 0.0
C8968 C 0.73479 0.75967 0.37261 0.0
H8969 H 0.74111 0.72113 0.36853 0.0
H8970 H 0.7202 0.74018 0.3676 0.0
C8971 C 0.75007 0.76423 0.37526 0.0
C8972 C 0.24768 0.99567 0.61923 0.0
C8973 C 0.24934 0.9833 0.62957 0.0
H8974 H 0.25683 0.01739 0.61152 0.0
C8975 C 0.2631 0.98196 0.63789 0.0
H8976 H 0.2371 0.99709 0.61284 0.0
C8977 C 0.27436 0.99334 0.63697 0.0
C8978 C 0.27213 0.0065 0.62784 0.0
H8979 H 0.26471 0.97258 0.64593 0.0
H8980 H 0.2843 0.99246 0.64443 0.0
C8981 C 0.25901 0.00725 0.61842 0.0
C8982 C 0.98656 0.50273 0.87899 0.0
C8983 C 0.98985 0.51829 0.87612 0.0
H8984 H 0.99547 0.48023 0.88349 0.0
C8985 C 0.00517 0.52243 0.87288 0.0
H8986 H 0.97493 0.4992 0.88173 0.0
C8987 C 0.01705 0.51143 0.87392 0.0
C8988 C 0.01377 0.49616 0.8782 0.0
H8989 H 0.00813 0.53438 0.87105 0.0
H8990 H 0.02888 0.51516 0.87277 0.0
C8991 C 0.99835 0.49184 0.88006 0.0
C8992 C 0.14035 0.49479 0.00505 0.0
C8993 C 0.13043 0.48214 0.00333 0.0
H8994 H 0.14751 0.51661 0.99576 0.0
C8995 C 0.12258 0.48021 0.98938 0.0
H8996 H 0.1463 0.49665 0.01582 0.0
C8997 C 0.12346 0.4914 0.97792 0.0
C8998 C 0.13208 0.50485 0.98019 0.0
H8999 H 0.11478 0.47062 0.98781 0.0
H9000 H 0.11617 0.49023 0.96787 0.0
C9001 C 0.14112 0.50616 0.99354 0.0
C9002 C 0.63416 0.2607 0.2701 0.0
C9003 C 0.62975 0.24573 0.26584 0.0
H9004 H 0.63688 0.28417 0.26269 0.0
C9005 C 0.6279 0.24234 0.25018 0.0
H9006 H 0.63535 0.26367 0.28214 0.0
C9007 C 0.62906 0.25393 0.23911 0.0
C9008 C 0.63188 0.26925 0.24343 0.0
H9009 H 0.62439 0.23095 0.2466 0.0
H9010 H 0.62621 0.25117 0.2273 0.0
C9011 C 0.63516 0.27242 0.25895 0.0
C9012 C 0.74284 0.86732 0.52362 0.0
C9013 C 0.75594 0.87652 0.52127 0.0
H9014 H 0.72206 0.85819 0.51416 0.0
C9015 C 0.75651 0.88592 0.50814 0.0
H9016 H 0.74211 0.85987 0.53359 0.0
C9017 C 0.7448 0.88504 0.49694 0.0
C9018 C 0.73252 0.87462 0.49869 0.0
H9019 H 0.76659 0.89285 0.50586 0.0
H9020 H 0.74608 0.89146 0.48635 0.0
C9021 C 0.73137 0.8663 0.51245 0.0
C9022 C 0.12688 0.01051 0.75097 0.0
C9023 C 0.12526 0.00712 0.76665 0.0
H9024 H 0.1281 1.00171 0.72805 0.0
C9025 C 0.12082 0.99216 0.77094 0.0
H9026 H 0.13041 0.02189 0.74735 0.0
C9027 C 0.1196 0.98045 0.75979 0.0
C9028 C 0.12263 0.98362 0.74422 0.0
H9029 H 0.11978 0.98918 0.78299 0.0
H9030 H 0.11789 0.9687 0.76354 0.0
C9031 C 0.12544 0.99894 0.73989 0.0
C9032 C 0.52224 0.37195 0.51138 0.0
C9033 C 0.5197 0.37338 0.49547 0.0
H9034 H 0.51236 0.37352 0.53404 0.0
C9035 C 0.5045 0.37497 0.4902 0.0
H9036 H 0.53386 0.37128 0.5158 0.0
C9037 C 0.49232 0.37667 0.50057 0.0
C9038 C 0.49502 0.37653 0.51647 0.0
H9039 H 0.50221 0.37642 0.47804 0.0
H9040 H 0.48095 0.37915 0.49616 0.0
C9041 C 0.50995 0.37341 0.52182 0.0
C9042 C 0.13855 0.77286 0.99061 0.0
C9043 C 0.12973 0.77088 0.00398 0.0
H9044 H 0.14622 0.76316 0.96937 0.0
C9045 C 0.11957 0.75831 0.00479 0.0
H9046 H 0.14647 0.78243 0.98963 0.0
C9047 C 0.11944 0.74712 0.99305 0.0
C9048 C 0.12941 0.74848 0.98038 0.0
H9049 H 0.11279 0.7564 0.01506 0.0
H9050 H 0.11265 0.7368 0.99458 0.0
C9051 C 0.13837 0.76184 0.97896 0.0
C9052 C 0.74286 0.86761 0.25814 0.0
C9053 C 0.72891 0.87516 0.2551 0.0
H9054 H 0.76578 0.86289 0.25012 0.0
C9055 C 0.72652 0.88163 0.2405 0.0
H9056 H 0.74512 0.86297 0.26947 0.0
C9057 C 0.73833 0.88188 0.22965 0.0
C9058 C 0.75271 0.87546 0.23308 0.0
H9059 H 0.71599 0.88783 0.23803 0.0
H9060 H 0.73661 0.88815 0.21902 0.0
C9061 C 0.75467 0.86763 0.2471 0.0
C9062 C 0.99538 0.38905 0.74628 0.0
C9063 C 0.99783 0.38177 0.73206 0.0
H9064 H 0.00417 0.39321 0.76905 0.0
C9065 C 0.01218 0.37491 0.72922 0.0
H9066 H 0.98424 0.39392 0.74897 0.0
C9067 C 0.02334 0.3741 0.74076 0.0
C9068 C 0.02054 0.38041 0.75534 0.0
H9069 H 0.01419 0.36881 0.71853 0.0
H9070 H 0.03374 0.36756 0.73864 0.0
C9071 C 0.00676 0.38856 0.75779 0.0
C9072 C 0.01334 0.88196 0.52416 0.0
C9073 C 0.99865 0.87619 0.5209 0.0
H9074 H 0.03594 0.8866 0.5156 0.0
C9075 C 0.99625 0.8683 0.50698 0.0
H9076 H 0.01541 0.88828 0.5347 0.0
C9077 C 0.00799 0.86755 0.49588 0.0
C9078 C 0.02235 0.87434 0.49876 0.0
H9079 H 0.98491 0.86406 0.50407 0.0
H9080 H 0.00541 0.86291 0.4846 0.0
C9081 C 0.02511 0.88089 0.51327 0.0
C9082 C 0.12649 0.74189 0.25218 0.0
C9083 C 0.12855 0.74687 0.26741 0.0
H9084 H 0.12323 0.74841 0.22867 0.0
C9085 C 0.13196 0.76244 0.2701 0.0
H9086 H 0.12371 0.73 0.24978 0.0
C9087 C 0.13182 0.77305 0.25788 0.0
C9088 C 0.12818 0.7682 0.24287 0.0
H9089 H 0.13322 0.76663 0.28177 0.0
H9090 H 0.13297 0.78519 0.26041 0.0
C9091 C 0.12626 0.75243 0.24007 0.0
C9092 C 0.23882 0.87106 0.02496 0.0
C9093 C 0.25328 0.8775 0.02196 0.0
H9094 H 0.2164 0.86602 0.01622 0.0
C9095 C 0.25534 0.88619 0.00847 0.0
H9096 H 0.23699 0.86418 0.03518 0.0
C9097 C 0.24355 0.88706 0.99742 0.0
C9098 C 0.22948 0.87957 0.99996 0.0
H9099 H 0.2665 0.89101 0.00577 0.0
H9100 H 0.24592 0.89232 0.98639 0.0
C9101 C 0.227 0.87224 0.01415 0.0
C9102 C 0.98871 0.87704 0.24848 0.0
C9103 C 0.99339 0.87955 0.23322 0.0
H9104 H 0.99564 0.87291 0.27176 0.0
C9105 C 0.00896 0.88283 0.23037 0.0
H9106 H 0.97685 0.87427 0.25102 0.0
C9107 C 0.01981 0.88221 0.24239 0.0
C9108 C 0.01522 0.87812 0.25736 0.0
H9109 H 0.01298 0.88435 0.21867 0.0
H9110 H 0.0319 0.8834 0.23969 0.0
C9111 C 0.99949 0.87622 0.26038 0.0
C9112 C 0.24675 0.86851 0.75943 0.0
C9113 C 0.23265 0.87617 0.75782 0.0
H9114 H 0.26896 0.86421 0.74946 0.0
C9115 C 0.22912 0.88334 0.7438 0.0
H9116 H 0.24984 0.86329 0.77031 0.0
C9117 C 0.24006 0.88418 0.73211 0.0
C9118 C 0.25464 0.87765 0.73415 0.0
H9119 H 0.21842 0.8896 0.74245 0.0
H9120 H 0.23753 0.89094 0.72195 0.0
C9121 C 0.25766 0.86909 0.74755 0.0
C9122 C 0.13291 0.00649 0.49419 0.0
C9123 C 0.12252 0.00431 0.48195 0.0
H9124 H 0.14072 0.9983 0.51627 0.0
C9125 C 0.1142 0.99049 0.48127 0.0
H9126 H 0.1393 0.01713 0.49513 0.0
C9127 C 0.1151 0.9798 0.49319 0.0
C9128 C 0.1243 0.98259 0.50617 0.0
H9129 H 0.10613 0.98845 0.472 0.0
H9130 H 0.10762 0.96983 0.49281 0.0
C9131 C 0.13376 0.9957 0.50628 0.0
C9132 C 0.49831 0.00828 0.87015 0.0
C9133 C 0.50003 0.02037 0.88079 0.0
H9134 H 0.50739 0.98674 0.86187 0.0
C9135 C 0.51387 0.02157 0.88899 0.0
H9136 H 0.48769 0.007 0.86379 0.0
C9137 C 0.52514 0.01023 0.88768 0.0
C9138 C 0.52283 0.9973 0.87825 0.0
H9139 H 0.51557 0.03078 0.89721 0.0
H9140 H 0.53514 0.0109 0.89509 0.0
C9141 C 0.50963 0.99674 0.86895 0.0
C9142 C 0.99538 0.24807 0.62069 0.0
C9143 C 0.98254 0.24902 0.6305 0.0
H9144 H 0.01708 0.25814 0.6142 0.0
C9145 C 0.98052 0.2624 0.63933 0.0
H9146 H 0.99737 0.23776 0.61399 0.0
C9147 C 0.9917 0.27389 0.63952 0.0
C9148 C 0.00524 0.27238 0.63085 0.0
H9149 H 0.97078 0.26343 0.64704 0.0
H9150 H 0.99026 0.28348 0.64735 0.0
C9151 C 0.00666 0.25972 0.62084 0.0
C9152 C 0.24726 0.49407 0.12029 0.0
C9153 C 0.24897 0.48127 0.13005 0.0
H9154 H 0.25597 0.51641 0.11395 0.0
C9155 C 0.26242 0.48002 0.13889 0.0
H9156 H 0.23686 0.49547 0.11358 0.0
C9157 C 0.27318 0.4919 0.13917 0.0
C9158 C 0.27083 0.50535 0.13057 0.0
H9159 H 0.26404 0.47034 0.14657 0.0
H9160 H 0.28284 0.49102 0.14699 0.0
C9161 C 0.25816 0.50607 0.12054 0.0
C9162 C 0.51335 0.73068 0.86548 0.0
C9163 C 0.49966 0.73216 0.87392 0.0
H9164 H 0.5344 0.74116 0.85839 0.0
C9165 C 0.49808 0.74474 0.884 0.0
H9166 H 0.5149 0.72115 0.85761 0.0
C9167 C 0.50939 0.75636 0.88444 0.0
C9168 C 0.52241 0.75546 0.87487 0.0
H9169 H 0.48754 0.7463 0.89044 0.0
H9170 H 0.50729 0.76663 0.89117 0.0
C9171 C 0.52455 0.74215 0.86596 0.0
C9172 C 0.74599 0.99724 0.38415 0.0
C9173 C 0.73271 0.99918 0.37511 0.0
H9174 H 0.76833 0.00625 0.38993 0.0
C9175 C 0.73043 0.01318 0.36745 0.0
H9176 H 0.74812 0.98641 0.38992 0.0
C9177 C 0.74178 0.02447 0.36763 0.0
C9178 C 0.75573 0.02197 0.37536 0.0
H9179 H 0.72036 0.01491 0.36032 0.0
H9180 H 0.74023 0.03462 0.36057 0.0
C9181 C 0.75753 0.00858 0.3842 0.0
C9182 C 0.98719 0.48735 0.11759 0.0
C9183 C 0.98745 0.5016 0.1252 0.0
H9184 H 0.99908 0.46636 0.11258 0.0
C9185 C 0.99965 0.50459 0.13546 0.0
H9186 H 0.97809 0.48474 0.1095 0.0
C9187 C 0.01192 0.49407 0.13704 0.0
C9188 C 0.01196 0.48017 0.12876 0.0
H9189 H 1.00036 0.51559 0.14125 0.0
H9190 H 0.02183 0.49726 0.14388 0.0
C9191 C 0.99919 0.47676 0.11945 0.0
C9192 C 0.86189 0.49731 0.00997 0.0
C9193 C 0.87122 0.49914 0.02304 0.0
H9194 H 0.85564 0.50647 0.98783 0.0
C9195 C 0.87898 0.5131 0.02524 0.0
H9196 H 0.85609 0.4865 0.0079 0.0
C9197 C 0.87871 0.52442 0.0139 0.0
C9198 C 0.87068 0.52202 1.00011 0.0
H9199 H 0.8864 0.5147 0.03513 0.0
H9200 H 0.88594 0.53447 0.0153 0.0
C9201 C 0.86162 0.50873 0.99852 0.0
C9202 C 0.37635 0.75033 0.76293 0.0
C9203 C 0.37402 0.735 0.75841 0.0
H9204 H 0.37964 0.77362 0.75573 0.0
C9205 C 0.37028 0.73194 0.74297 0.0
H9206 H 0.37946 0.753 0.77469 0.0
C9207 C 0.37035 0.74387 0.73202 0.0
C9208 C 0.3742 0.75895 0.7364 0.0
H9209 H 0.36886 0.72019 0.73911 0.0
H9210 H 0.36893 0.74103 0.71997 0.0
C9211 C 0.37647 0.76215 0.75206 0.0
C9212 C 0.24311 0.11969 0.496 0.0
C9213 C 0.24215 0.12921 0.48299 0.0
H9214 H 0.25612 0.11375 0.5162 0.0
C9215 C 0.25468 0.1387 0.47933 0.0
H9216 H 0.23346 0.11254 0.49924 0.0
C9217 C 0.26745 0.13958 0.48904 0.0
C9218 C 0.26809 0.13086 0.50261 0.0
H9219 H 0.25411 0.14633 0.46949 0.0
H9220 H 0.2764 0.14782 0.48642 0.0
C9221 C 0.2561 0.12039 0.50567 0.0
C9222 C 0.50455 0.63439 0.49579 0.0
C9223 C 0.50405 0.62438 0.48308 0.0
H9224 H 0.49392 0.64097 0.5172 0.0
C9225 C 0.49089 0.61529 0.4809 0.0
H9226 H 0.51467 0.64133 0.49788 0.0
C9227 C 0.47917 0.61503 0.49185 0.0
C9228 C 0.48025 0.6239 0.50529 0.0
H9229 H 0.49017 0.60746 0.47122 0.0
H9230 H 0.46975 0.60702 0.49031 0.0
C9231 C 0.49268 0.63417 0.50684 0.0
C9232 C 0.24754 0.13557 0.75778 0.0
C9233 C 0.24948 0.12724 0.77153 0.0
H9234 H 0.25715 0.14115 0.73563 0.0
C9235 C 0.26389 0.12075 0.77472 0.0
H9236 H 0.23642 0.14037 0.75491 0.0
C9237 C 0.27576 0.12153 0.76393 0.0
C9238 C 0.27344 0.12857 0.74957 0.0
H9239 H 0.26563 0.1141 0.78511 0.0
H9240 H 0.28632 0.11531 0.76622 0.0
C9241 C 0.25941 0.13609 0.74678 0.0
C9242 C 0.9811 0.63586 0.26166 0.0
C9243 C 0.98321 0.62685 0.2484 0.0
H9244 H 0.99085 0.64455 0.28249 0.0
C9245 C 0.9963 0.61737 0.24751 0.0
H9246 H 0.97118 0.64334 0.26265 0.0
C9247 C 0.00769 0.61803 0.25907 0.0
C9248 C 0.00613 0.62823 0.27157 0.0
H9249 H 0.99838 0.61055 0.2373 0.0
H9250 H 0.01825 0.61162 0.25751 0.0
C9251 C 0.9924 0.63659 0.27303 0.0
C9252 C 0.00296 0.62512 0.01296 0.0
C9253 C 0.98758 0.62681 0.00833 0.0
H9254 H 0.02657 0.62368 0.00613 0.0
C9255 C 0.98464 0.63099 0.99295 0.0
H9256 H 0.00563 0.62174 0.02464 0.0
C9257 C 0.9968 0.63219 0.98221 0.0
C9258 C 0.01208 0.62917 0.98666 0.0
H9259 H 0.9729 0.632 0.98893 0.0
H9260 H 0.99407 0.63399 0.97019 0.0
C9261 C 0.015 0.6263 0.00232 0.0
C9262 C 0.86904 0.7425 0.25556 0.0
C9263 C 0.87875 0.72961 0.25447 0.0
H9264 H 0.86287 0.76447 0.24588 0.0
C9265 C 0.88778 0.72783 0.24118 0.0
H9266 H 0.86221 0.74434 0.26582 0.0
C9267 C 0.88831 0.73931 0.22999 0.0
C9268 C 0.87973 0.75287 0.23168 0.0
H9269 H 0.89543 0.71806 0.24004 0.0
H9270 H 0.89628 0.73803 0.22049 0.0
C9271 C 0.86949 0.75406 0.24419 0.0
C9272 C 0.74716 0.61834 0.49467 0.0
C9273 C 0.74938 0.62694 0.48113 0.0
H9274 H 0.75647 0.61205 0.51675 0.0
C9275 C 0.76395 0.63313 0.47815 0.0
H9276 H 0.73591 0.61374 0.49736 0.0
C9277 C 0.77577 0.63172 0.48895 0.0
C9278 C 0.77319 0.62441 0.50314 0.0
H9279 H 0.7659 0.63997 0.46792 0.0
H9280 H 0.78649 0.63772 0.48687 0.0
C9281 C 0.75895 0.61725 0.50571 0.0
C9282 C 0.88509 0.4974 0.74625 0.0
C9283 C 0.87723 0.50031 0.73242 0.0
H9284 H 0.88999 0.50555 0.7691 0.0
C9285 C 0.87114 0.515 0.7298 0.0
H9286 H 0.88958 0.48603 0.74863 0.0
C9287 C 0.87174 0.5262 0.74128 0.0
C9288 C 0.87819 0.52283 0.75569 0.0
H9289 H 0.86486 0.51744 0.71931 0.0
H9290 H 0.86576 0.53698 0.73945 0.0
C9291 C 0.88539 0.50856 0.75793 0.0
C9292 C 0.88668 0.74608 0.4962 0.0
C9293 C 0.87821 0.73251 0.49867 0.0
H9294 H 0.89237 0.76858 0.50486 0.0
C9295 C 0.87163 0.72999 0.51318 0.0
H9296 H 0.89156 0.74844 0.48498 0.0
C9297 C 0.87246 0.74127 0.52459 0.0
C9298 C 0.87963 0.75544 0.52167 0.0
H9299 H 0.86487 0.71975 0.51531 0.0
H9300 H 0.86618 0.7395 0.53522 0.0
C9301 C 0.88722 0.75758 0.50757 0.0
C9302 C 0.75738 0.63436 0.77011 0.0
C9303 C 0.74241 0.62963 0.76618 0.0
H9304 H 0.78068 0.63732 0.76225 0.0
C9305 C 0.7388 0.62751 0.7506 0.0
H9306 H 0.76054 0.63575 0.78208 0.0
C9307 C 0.75019 0.62859 0.73932 0.0
C9308 C 0.76552 0.63167 0.74335 0.0
H9309 H 0.72741 0.62375 0.74725 0.0
H9310 H 0.74728 0.62551 0.72761 0.0
C9311 C 0.7689 0.63533 0.75875 0.0
C9312 C 0.48153 0.49152 0.63113 0.0
C9313 C 0.48366 0.50736 0.62879 0.0
H9314 H 0.49214 0.46917 0.63142 0.0
C9315 C 0.49872 0.51305 0.62753 0.0
H9316 H 0.47003 0.48679 0.63169 0.0
C9317 C 0.51128 0.50302 0.62707 0.0
C9318 C 0.5091 0.48707 0.62816 0.0
H9319 H 0.5007 0.52518 0.62557 0.0
H9320 H 0.52259 0.50764 0.62467 0.0
C9321 C 0.4942 0.48144 0.63095 0.0
C9322 C 0.99152 0.25095 0.87836 0.0
C9323 C 0.99661 0.23573 0.88024 0.0
H9324 H 0.99785 0.27454 0.8752 0.0
C9325 C 0.01226 0.23312 0.8833 0.0
H9326 H 0.97957 0.2533 0.8758 0.0
C9327 C 0.02279 0.24542 0.88314 0.0
C9328 C 0.01779 0.26043 0.87979 0.0
H9329 H 0.01656 0.22148 0.88434 0.0
H9330 H 0.03496 0.24296 0.88412 0.0
C9331 C 0.00199 0.26314 0.87804 0.0
C9332 C 0.24627 0.75911 0.13603 0.0
C9333 C 0.24875 0.77314 0.12843 0.0
H9334 H 0.25484 0.73628 0.1403 0.0
C9335 C 0.26298 0.77568 0.1212 0.0
H9336 H 0.23522 0.75669 0.14123 0.0
C9337 C 0.27395 0.76398 0.12031 0.0
C9338 C 0.27106 0.74956 0.12689 0.0
H9339 H 0.26503 0.78626 0.11494 0.0
H9340 H 0.28423 0.76585 0.11353 0.0
C9341 C 0.25746 0.74742 0.1354 0.0
C9342 C 0.50069 0.74215 0.62538 0.0
C9343 C 0.48533 0.74659 0.62315 0.0
H9344 H 0.52387 0.74946 0.62929 0.0
C9345 C 0.48211 0.76216 0.62022 0.0
H9346 H 0.50349 0.73028 0.62788 0.0
C9347 C 0.49392 0.77323 0.6209 0.0
C9348 C 0.50904 0.76885 0.62464 0.0
H9349 H 0.47033 0.76597 0.61893 0.0
H9350 H 0.49095 0.7853 0.62003 0.0
C9351 C 0.51239 0.75315 0.6262 0.0
C9352 C 0.75348 0.26285 0.87581 0.0
C9353 C 0.73786 0.25891 0.87509 0.0
H9354 H 0.77659 0.25475 0.87862 0.0
C9355 C 0.73374 0.24334 0.87392 0.0
H9356 H 0.75689 0.27476 0.87702 0.0
C9357 C 0.74506 0.23186 0.87469 0.0
C9358 C 0.76056 0.23585 0.87678 0.0
H9359 H 0.72174 0.24003 0.87388 0.0
H9360 H 0.74155 0.21992 0.87516 0.0
C9361 C 0.76474 0.25142 0.87673 0.0
C9362 C 0.00911 0.99496 0.36593 0.0
C9363 C 0.02166 0.99637 0.37603 0.0
H9364 H 0.98761 0.00475 0.35847 0.0
C9365 C 0.02372 0.01024 0.38402 0.0
H9366 H 0.00716 0.98429 0.35982 0.0
C9367 C 0.01272 0.02186 0.38317 0.0
C9368 C 0.99934 0.01989 0.37435 0.0
H9369 H 0.03328 0.01161 0.3919 0.0
H9370 H 0.01403 0.03186 0.3905 0.0
C9371 C 0.99796 0.00669 0.36511 0.0
C9372 C 0.6248 0.76137 0.77493 0.0
C9373 C 0.63121 0.74685 0.77189 0.0
H9374 H 0.61748 0.783 0.76563 0.0
C9375 C 0.63778 0.74413 0.75737 0.0
H9376 H 0.6192 0.76358 0.78585 0.0
C9377 C 0.63702 0.75543 0.74582 0.0
C9378 C 0.62929 0.76939 0.74851 0.0
H9379 H 0.64224 0.73286 0.75455 0.0
H9380 H 0.64113 0.75267 0.73438 0.0
C9381 C 0.62369 0.77245 0.76332 0.0
C9382 C 0.74016 0.36399 0.02224 0.0
C9383 C 0.75326 0.37323 0.02049 0.0
H9384 H 0.71919 0.35592 0.01236 0.0
C9385 C 0.75395 0.38348 0.00798 0.0
H9386 H 0.73932 0.35596 0.03173 0.0
C9387 C 0.74229 0.38344 0.99671 0.0
C9388 C 0.72988 0.37314 0.9979 0.0
H9389 H 0.76406 0.39054 0.00623 0.0
H9390 H 0.7436 0.3905 0.98654 0.0
C9391 C 0.72864 0.36395 0.01111 0.0
C9392 C 0.12889 0.49938 0.24147 0.0
C9393 C 0.12708 0.48451 0.24758 0.0
H9394 H 0.13261 0.52334 0.24608 0.0
C9395 C 0.12473 0.48304 0.26352 0.0
H9396 H 0.13079 0.50095 0.22928 0.0
C9397 C 0.12537 0.49605 0.27319 0.0
C9398 C 0.12875 0.51069 0.26711 0.0
H9399 H 0.12377 0.47173 0.26865 0.0
H9400 H 0.12466 0.49444 0.28552 0.0
C9401 C 0.12994 0.51226 0.2511 0.0
C9402 C 0.52675 0.87644 0.01254 0.0
C9403 C 0.52351 0.87084 0.99775 0.0
H9404 H 0.51768 0.88229 0.03469 0.0
C9405 C 0.50921 0.86391 0.99494 0.0
H9406 H 0.53754 0.88225 0.01482 0.0
C9407 C 0.49791 0.86365 0.00647 0.0
C9408 C 0.50068 0.87069 0.02075 0.0
H9409 H 0.50631 0.85998 0.98348 0.0
H9410 H 0.48652 0.85949 0.00364 0.0
C9411 C 0.51539 0.87649 0.0239 0.0
C9412 C 0.1277 0.27481 0.49369 0.0
C9413 C 0.12306 0.27141 0.50874 0.0
H9414 H 0.13063 0.26642 0.47075 0.0
C9415 C 0.11493 0.25777 0.51159 0.0
H9416 H 0.13414 0.28521 0.49129 0.0
C9417 C 0.11266 0.24706 0.49969 0.0
C9418 C 0.1187 0.24985 0.48494 0.0
H9419 H 0.11147 0.25484 0.52319 0.0
H9420 H 0.10777 0.23595 0.50244 0.0
C9421 C 0.12554 0.26414 0.48189 0.0
C9422 C 0.74255 0.38338 0.7267 0.0
C9423 C 0.75671 0.37632 0.7299 0.0
H9424 H 0.7205 0.39004 0.73537 0.0
C9425 C 0.75844 0.36801 0.74362 0.0
H9426 H 0.74107 0.39009 0.71631 0.0
C9427 C 0.74649 0.36778 0.75451 0.0
C9428 C 0.73288 0.37614 0.75187 0.0
H9429 H 0.7694 0.36284 0.74648 0.0
H9430 H 0.74849 0.3624 0.76556 0.0
C9431 C 0.73079 0.38337 0.73761 0.0
C9432 C 0.00656 0.38383 0.02824 0.0
C9433 C 0.99298 0.37572 0.02491 0.0
H9434 H 0.02803 0.39254 0.01981 0.0
C9435 C 0.99186 0.36811 0.01068 0.0
H9436 H 0.00755 0.39022 0.0389 0.0
C9437 C 0.0038 0.36922 0.99976 0.0
C9438 C 0.01685 0.37836 0.00271 0.0
H9439 H 0.98132 0.36226 0.00758 0.0
H9440 H 0.00221 0.36408 0.98853 0.0
C9441 C 0.01826 0.38525 0.01726 0.0
C9442 C 0.13257 0.27355 0.76234 0.0
C9443 C 0.12974 0.27069 0.74668 0.0
H9444 H 0.13271 0.2642 0.78528 0.0
C9445 C 0.12751 0.25541 0.7419 0.0
H9446 H 0.13383 0.28525 0.76642 0.0
C9447 C 0.12659 0.24348 0.75264 0.0
C9448 C 0.12811 0.24649 0.76842 0.0
H9449 H 0.12508 0.25287 0.72996 0.0
H9450 H 0.12353 0.23207 0.7487 0.0
C9451 C 0.13184 0.2615 0.77314 0.0
C9452 C 0.2406 0.36319 0.52269 0.0
C9453 C 0.25385 0.37217 0.52067 0.0
H9454 H 0.21931 0.35548 0.5132 0.0
C9455 C 0.25446 0.38243 0.50817 0.0
H9456 H 0.23979 0.3552 0.53222 0.0
C9457 C 0.24261 0.38256 0.4971 0.0
C9458 C 0.23004 0.37246 0.49848 0.0
H9459 H 0.26464 0.38933 0.50625 0.0
H9460 H 0.24397 0.38949 0.48685 0.0
C9461 C 0.22884 0.36338 0.5118 0.0
C9462 C 0.26259 0.36259 0.24526 0.0
C9463 C 0.25878 0.36848 0.23071 0.0
H9464 H 0.25494 0.35845 0.2684 0.0
C9465 C 0.24343 0.37248 0.2277 0.0
H9466 H 0.27443 0.35992 0.24801 0.0
C9467 C 0.23239 0.37195 0.2394 0.0
C9468 C 0.23641 0.36715 0.25428 0.0
H9469 H 0.24032 0.37751 0.21672 0.0
H9470 H 0.22104 0.37658 0.23718 0.0
C9471 C 0.25142 0.36176 0.25692 0.0
C9472 C 0.51194 0.52312 0.38974 0.0
C9473 C 0.49841 0.52153 0.38109 0.0
H9474 H 0.53305 0.51288 0.39699 0.0
C9475 C 0.49715 0.50907 0.37082 0.0
H9476 H 0.51326 0.53261 0.3977 0.0
C9477 C 0.50862 0.49761 0.37042 0.0
C9478 C 0.52144 0.49857 0.38025 0.0
H9479 H 0.48675 0.50747 0.36417 0.0
H9480 H 0.50677 0.48742 0.36351 0.0
C9481 C 0.52331 0.51182 0.3893 0.0
C9482 C 0.00435 0.7549 0.11626 0.0
C9483 C 1.00169 0.76818 0.12515 0.0
H9484 H 0.99594 0.73253 0.10975 0.0
C9485 C 0.98709 0.77041 0.1316 0.0
H9486 H 0.01562 0.75278 0.11141 0.0
C9487 C 0.97572 0.75914 0.13013 0.0
C9488 C 0.9788 0.7452 0.12253 0.0
H9489 H 0.98478 0.78044 0.13864 0.0
H9490 H 0.96501 0.76067 0.13632 0.0
C9491 C 0.99305 0.74337 0.11516 0.0
C9492 C 0.52283 0.24341 0.38409 0.0
C9493 C 0.51973 0.25902 0.3812 0.0
H9494 H 0.51392 0.2203 0.3839 0.0
C9495 C 0.50442 0.2635 0.37862 0.0
H9496 H 0.53457 0.23956 0.38562 0.0
C9497 C 0.49275 0.25254 0.37729 0.0
C9498 C 0.49604 0.23682 0.37878 0.0
H9499 H 0.50171 0.27539 0.37614 0.0
H9500 H 0.48135 0.25627 0.37393 0.0
C9501 C 0.51102 0.23238 0.38298 0.0
C9502 C 0.9913 0.97567 0.62925 0.0
C9503 C 0.00634 0.9791 0.63403 0.0
H9504 H 0.96889 0.98456 0.62409 0.0
C9505 C 0.00945 0.99368 0.64021 0.0
H9506 H 0.98876 0.96467 0.62398 0.0
C9507 C 0.99794 0.005 0.64056 0.0
C9508 C 0.98332 0.00198 0.63438 0.0
H9509 H 0.02108 0.99674 0.64345 0.0
H9510 H 1.00095 0.01655 0.64414 0.0
C9511 C 0.97994 0.98705 0.62929 0.0
C9512 C 0.36646 0.25816 0.24537 0.0
C9513 C 0.37336 0.25543 0.23101 0.0
H9514 H 0.36286 0.24982 0.26839 0.0
C9515 C 0.38017 0.24104 0.22827 0.0
H9516 H 0.36167 0.26935 0.24797 0.0
C9517 C 0.38132 0.23012 0.24003 0.0
C9518 C 0.37536 0.23321 0.2547 0.0
H9519 H 0.38602 0.23884 0.21748 0.0
H9520 H 0.38782 0.2197 0.23796 0.0
C9521 C 0.36725 0.24701 0.25707 0.0
C9522 C 0.24141 0.62456 1.00061 0.0
C9523 C 0.24581 0.62237 0.98522 0.0
H9524 H 0.24878 0.6281 0.02383 0.0
C9525 C 0.26129 0.61897 0.982 0.0
H9526 H 0.22962 0.62744 0.00342 0.0
C9527 C 0.27236 0.61934 0.99382 0.0
C9528 C 0.26806 0.62313 0.00895 0.0
H9529 H 0.26507 0.61767 0.9702 0.0
H9530 H 0.2844 0.61821 0.99085 0.0
C9531 C 0.2524 0.62498 0.01232 0.0
C9532 C 0.49557 0.13867 0.0027 0.0
C9533 C 0.48249 0.1293 1.00103 0.0
H9534 H 0.51815 0.14414 0.99405 0.0
C9535 C 0.48095 0.12045 0.98761 0.0
H9536 H 0.49719 0.14536 0.01308 0.0
C9537 C 0.49285 0.11971 0.97688 0.0
C9538 C 0.50658 0.12785 0.97924 0.0
H9539 H 0.47106 0.11304 0.98605 0.0
H9540 H 0.49179 0.1118 0.9673 0.0
C9541 C 0.50758 0.13795 0.99184 0.0
C9542 C 0.27753 0.62794 0.26293 0.0
C9543 C 0.27457 0.63318 0.24795 0.0
H9544 H 0.26813 0.62281 0.28512 0.0
C9545 C 0.26036 0.64016 0.24477 0.0
H9546 H 0.28825 0.62214 0.26553 0.0
C9547 C 0.24887 0.64079 0.25613 0.0
C9548 C 0.25139 0.63415 0.27066 0.0
H9549 H 0.25766 0.64383 0.23318 0.0
H9550 H 0.23755 0.64493 0.25302 0.0
C9551 C 0.26602 0.62833 0.27414 0.0
C9552 C 0.38526 0.00675 0.75751 0.0
C9553 C 0.37739 0.02073 0.75547 0.0
H9554 H 0.38985 0.98427 0.74815 0.0
C9555 C 0.37076 0.02397 0.74114 0.0
H9556 H 0.39016 0.00387 0.76859 0.0
C9557 C 0.37082 0.01296 0.72948 0.0
C9558 C 0.37735 0.99841 0.73197 0.0
H9559 H 0.36445 0.03457 0.73937 0.0
H9560 H 0.3645 0.01529 0.71899 0.0
C9561 C 0.38512 0.99555 0.74584 0.0
C9562 C 0.47778 0.13073 0.26452 0.0
C9563 C 0.48013 0.1237 0.25015 0.0
H9564 H 0.48804 0.13877 0.28545 0.0
C9565 C 0.49439 0.11674 0.24714 0.0
H9566 H 0.46705 0.1366 0.26693 0.0
C9567 C 0.50642 0.1178 0.25792 0.0
C9568 C 0.50441 0.12617 0.27163 0.0
H9569 H 0.49669 0.11177 0.23595 0.0
H9570 H 0.51766 0.11338 0.25488 0.0
C9571 C 0.48983 0.13211 0.27506 0.0
C9572 C 0.37904 0.23103 0.51704 0.0
C9573 C 0.38405 0.23457 0.50211 0.0
H9574 H 0.37386 0.2396 0.53955 0.0
C9575 C 0.39032 0.24919 0.49925 0.0
H9576 H 0.37381 0.21998 0.51943 0.0
C9577 C 0.39012 0.26055 0.51075 0.0
C9578 C 0.38396 0.25731 0.52532 0.0
H9579 H 0.39385 0.25232 0.48772 0.0
H9580 H 0.39344 0.27219 0.50782 0.0
C9581 C 0.3791 0.24226 0.52855 0.0
C9582 C 0.37163 0.01953 0.0102 0.0
C9583 C 0.37503 0.01762 0.99449 0.0
H9584 H 0.37095 0.00896 0.03261 0.0
C9585 C 0.37816 0.00268 0.98911 0.0
H9586 H 0.36966 0.03093 0.0148 0.0
C9587 C 0.37938 0.99027 0.9993 0.0
C9588 C 0.37713 0.99233 0.01514 0.0
H9589 H 0.38095 1.00079 0.97714 0.0
H9590 H 0.383 0.9792 0.99487 0.0
C9591 C 0.37251 0.00695 0.02042 0.0
C9592 C 0.74245 0.25716 0.13467 0.0
C9593 C 0.74485 0.27136 0.1274 0.0
H9594 H 0.75153 0.23457 0.13902 0.0
C9595 C 0.75925 0.27451 0.12085 0.0
H9596 H 0.73127 0.25433 0.13936 0.0
C9597 C 0.77061 0.26319 0.1203 0.0
C9598 C 0.76787 0.24859 0.12655 0.0
H9599 H 0.76121 0.28525 0.11485 0.0
H9600 H 0.78111 0.26547 0.114 0.0
C9601 C 0.75401 0.24587 0.13442 0.0
C9602 C 0.24221 0.51872 0.38102 0.0
C9603 C 0.25804 0.51715 0.3781 0.0
H9604 H 0.22009 0.50757 0.38144 0.0
C9605 C 0.2639 0.50228 0.37559 0.0
H9606 H 0.23725 0.53005 0.38253 0.0
C9607 C 0.2541 0.48955 0.3745 0.0
C9608 C 0.23815 0.49124 0.37627 0.0
H9609 H 0.27599 0.50063 0.37322 0.0
H9610 H 0.25891 0.47851 0.37133 0.0
C9611 C 0.23236 0.50584 0.38029 0.0
C9612 C 0.23347 0.74158 0.88852 0.0
C9613 C 0.23542 0.75529 0.88024 0.0
H9614 H 0.24304 0.7199 0.89495 0.0
C9615 C 0.24772 0.7564 0.86978 0.0
H9616 H 0.22406 0.74038 0.8966 0.0
C9617 C 0.25873 0.74454 0.86883 0.0
C9618 C 0.25744 0.73146 0.87826 0.0
H9619 H 0.24955 0.76691 0.86338 0.0
H9620 H 0.26891 0.74625 0.86187 0.0
C9621 C 0.24429 0.72981 0.88749 0.0
C9622 C 0.77337 0.98959 0.13366 0.0
C9623 C 0.77061 0.00368 0.12629 0.0
H9624 H 0.76401 0.96806 0.14093 0.0
C9625 C 0.75674 0.00573 0.11823 0.0
H9626 H 0.78386 0.98782 0.14014 0.0
C9627 C 0.74523 0.99439 0.11881 0.0
C9628 C 0.74762 0.98087 0.1273 0.0
H9629 H 0.75422 0.01665 0.11279 0.0
H9630 H 0.73409 0.99674 0.11378 0.0
C9631 C 0.76201 0.9783 0.13412 0.0
C9632 C 0.63741 0.49763 0.50504 0.0
C9633 C 0.62903 0.48401 0.50263 0.0
H9634 H 0.64309 0.52003 0.49616 0.0
C9635 C 0.62279 0.48116 0.48804 0.0
H9636 H 0.64206 0.50021 0.51631 0.0
C9637 C 0.62384 0.49222 0.47645 0.0
C9638 C 0.63082 0.5065 0.4793 0.0
H9639 H 0.61611 0.47085 0.48597 0.0
H9640 H 0.61775 0.49025 0.46575 0.0
C9641 C 0.63811 0.50893 0.4935 0.0
C9642 C 0.62973 0.97938 0.26213 0.0
C9643 C 0.62344 0.9827 0.24765 0.0
H9644 H 0.63607 0.98813 0.28423 0.0
C9645 C 0.6162 0.99697 0.24531 0.0
H9646 H 0.63561 0.96858 0.26411 0.0
C9647 C 0.61664 0.0083 0.25683 0.0
C9648 C 0.62409 0.00532 0.27084 0.0
H9649 H 0.61163 0.99991 0.2341 0.0
H9650 H 0.61242 0.01973 0.25429 0.0
C9651 C 0.62998 0.99056 0.27363 0.0
C9652 C 0.61768 0.77226 0.49482 0.0
C9653 C 0.62128 0.76912 0.51029 0.0
H9654 H 0.61715 0.76354 0.47162 0.0
C9655 C 0.62435 0.75381 0.5145 0.0
H9656 H 0.61577 0.784 0.49114 0.0
C9657 C 0.6254 0.74224 0.50337 0.0
C9658 C 0.62322 0.7456 0.48774 0.0
H9659 H 0.62746 0.75106 0.52624 0.0
H9660 H 0.62911 0.73088 0.50688 0.0
C9661 C 0.61859 0.76055 0.48362 0.0
C9662 C 0.52293 0.36512 0.24144 0.0
C9663 C 0.52155 0.37379 0.25497 0.0
H9664 H 0.51247 0.35803 0.22038 0.0
C9665 C 0.50921 0.38421 0.25631 0.0
H9666 H 0.53231 0.35702 0.24006 0.0
C9667 C 0.49766 0.38474 0.24495 0.0
C9668 C 0.49843 0.37493 0.2321 0.0
H9669 H 0.50776 0.39089 0.26672 0.0
H9670 H 0.48753 0.39171 0.2469 0.0
C9671 C 0.51158 0.36574 0.23013 0.0
C9672 C 0.49737 0.8863 0.74615 0.0
C9673 C 0.49924 0.87809 0.73232 0.0
H9674 H 0.50709 0.89171 0.76829 0.0
C9675 C 0.51365 0.87167 0.72899 0.0
H9676 H 0.48625 0.89104 0.74914 0.0
C9677 C 0.5256 0.87241 0.7397 0.0
C9678 C 0.52336 0.87935 0.75412 0.0
H9679 H 0.51533 0.86509 0.71853 0.0
H9680 H 0.53616 0.86622 0.73731 0.0
C9681 C 0.50931 0.88677 0.75708 0.0
C9682 C 0.63396 0.99388 0.98328 0.0
C9683 C 0.63151 0.00958 0.98632 0.0
H9684 H 0.63371 0.9709 0.99249 0.0
C9685 C 0.62988 0.01433 1.00168 0.0
H9686 H 0.63474 0.98985 0.97152 0.0
C9687 C 0.62922 0.00355 0.01359 0.0
C9688 C 0.6302 0.98777 0.01044 0.0
H9689 H 0.62765 0.02629 0.00433 0.0
H9690 H 0.62665 0.00749 0.02512 0.0
C9691 C 0.63329 0.98303 0.99528 0.0
C9692 C 0.7487 0.49528 0.6192 0.0
C9693 C 0.74972 0.48315 0.6299 0.0
H9694 H 0.75872 0.51646 0.61113 0.0
C9695 C 0.76329 0.48151 0.63846 0.0
H9696 H 0.73829 0.49689 0.61255 0.0
C9697 C 0.77499 0.49242 0.6374 0.0
C9698 C 0.77338 0.50542 0.62792 0.0
H9699 H 0.76446 0.47226 0.64673 0.0
H9700 H 0.78478 0.49138 0.64504 0.0
C9701 C 0.76043 0.50642 0.61828 0.0
C9702 C 0.24658 0.99768 0.88688 0.0
C9703 C 0.23277 1.0003 0.87888 0.0
H9704 H 0.26942 0.00601 0.89167 0.0
C9705 C 0.23027 0.01473 0.87213 0.0
H9706 H 0.24892 0.98649 0.89183 0.0
C9707 C 0.24179 0.02589 0.87231 0.0
C9708 C 0.25614 0.0228 0.87903 0.0
H9709 H 0.21984 0.01693 0.86567 0.0
H9710 H 0.23999 0.03645 0.86593 0.0
C9711 C 0.2583 0.00882 0.88682 0.0
C9712 C 0.37819 0.51324 0.52272 0.0
C9713 C 0.37492 0.49792 0.51891 0.0
H9714 H 0.38034 0.53643 0.51468 0.0
C9715 C 0.36904 0.49462 0.50421 0.0
H9716 H 0.383 0.51603 0.53388 0.0
C9717 C 0.3676 0.50633 0.49314 0.0
C9718 C 0.3717 0.52156 0.49671 0.0
H9719 H 0.36672 0.48284 0.50092 0.0
H9720 H 0.36454 0.50328 0.48145 0.0
C9721 C 0.37647 0.52494 0.51179 0.0
C9722 C 0.5056 0.6188 0.75705 0.0
C9723 C 0.50471 0.6289 0.76966 0.0
H9724 H 0.49556 0.61201 0.73543 0.0
C9725 C 0.49142 0.63788 0.7715 0.0
H9726 H 0.51583 0.61194 0.75524 0.0
C9727 C 0.47996 0.63794 0.7603 0.0
C9728 C 0.48145 0.62901 0.74693 0.0
H9729 H 0.49043 0.64578 0.7811 0.0
H9730 H 0.47044 0.64588 0.76155 0.0
C9731 C 0.494 0.61884 0.74573 0.0
C9732 C 0.36533 0.52338 0.24218 0.0
C9733 C 0.37425 0.52199 0.25558 0.0
H9734 H 0.35724 0.51267 0.22159 0.0
C9735 C 0.38417 0.50926 0.25698 0.0
H9736 H 0.35756 0.53302 0.24075 0.0
C9737 C 0.384 0.49747 0.24583 0.0
C9738 C 0.3739 0.4983 0.23321 0.0
H9739 H 0.39098 0.50774 0.2673 0.0
H9740 H 0.39071 0.48716 0.24779 0.0
C9741 C 0.36513 0.5117 0.23119 0.0
C9742 C 0.37956 0.75001 0.99006 0.0
C9743 C 0.38231 0.73469 0.99443 0.0
H9744 H 0.3741 0.77288 0.99746 0.0
C9745 C 0.38482 0.73146 0.01007 0.0
H9746 H 0.37735 0.75283 0.97814 0.0
C9747 C 0.38313 0.74309 0.02122 0.0
C9748 C 0.37868 0.75801 0.01684 0.0
H9749 H 0.38646 0.7197 0.01382 0.0
H9750 H 0.38381 0.74006 0.03328 0.0
C9751 C 0.37759 0.7615 1.00114 0.0
C9752 C 0.74838 0.76023 0.63267 0.0
C9753 C 0.74972 0.77273 0.62248 0.0
H9754 H 0.7576 0.73827 0.63955 0.0
C9755 C 0.76303 0.77398 0.61344 0.0
H9756 H 0.73812 0.75886 0.63959 0.0
C9757 C 0.77402 0.76231 0.61337 0.0
C9758 C 0.77203 0.74907 0.62239 0.0
H9759 H 0.76439 0.78348 0.60549 0.0
H9760 H 0.78356 0.76314 0.60539 0.0
C9761 C 0.75951 0.74844 0.63263 0.0
C9762 C 0.24674 0.22859 0.37594 0.0
C9763 C 0.26138 0.23475 0.3791 0.0
H9764 H 0.2224 0.23302 0.37459 0.0
C9765 C 0.26291 0.25076 0.38028 0.0
H9766 H 0.24518 0.21625 0.37528 0.0
C9767 C 0.25 0.26032 0.37943 0.0
C9768 C 0.23517 0.2541 0.37779 0.0
H9769 H 0.27401 0.25582 0.38281 0.0
H9770 H 0.25151 0.27252 0.38128 0.0
C9771 C 0.2337 0.23818 0.37546 0.0
C9772 C 0.61657 0.49296 0.74549 0.0
C9773 C 0.62419 0.47896 0.74806 0.0
H9774 H 0.6123 0.51586 0.75388 0.0
C9775 C 0.63141 0.47652 0.76232 0.0
H9776 H 0.61137 0.4953 0.73442 0.0
C9777 C 0.63231 0.4883 0.77319 0.0
C9778 C 0.62576 0.50271 0.77018 0.0
H9779 H 0.63768 0.46596 0.76443 0.0
H9780 H 0.6391 0.4865 0.78348 0.0
C9781 C 0.6172 0.50473 0.75658 0.0
C9782 C 0.63218 0.26219 0.97794 0.0
C9783 C 0.62583 0.24779 0.98147 0.0
H9784 H 0.63814 0.28457 0.98626 0.0
C9785 C 0.61807 0.24584 0.99549 0.0
H9786 H 0.6385 0.26384 0.96732 0.0
C9787 C 0.61767 0.25786 0.00629 0.0
C9788 C 0.62536 0.27176 0.00328 0.0
H9789 H 0.61347 0.2347 0.9986 0.0
H9790 H 0.61278 0.25571 0.01754 0.0
C9791 C 0.63201 0.27404 0.98877 0.0
C9792 C 1.00026 0.08468 0.39779 0.0
C9793 C 0.98461 0.08231 0.40089 0.0
H9794 H 0.02135 0.09485 0.40563 0.0
C9795 C 0.97755 0.09116 0.41244 0.0
H9796 H 0.00605 0.07777 0.38919 0.0
C9797 C 0.98633 0.10052 0.42212 0.0
C9798 C 0.00225 0.10165 0.42006 0.0
H9799 H 0.96547 0.0897 0.41496 0.0
H9800 H 0.98089 0.10579 0.43202 0.0
C9801 C 0.00901 0.09445 0.40723 0.0
C9802 C 0.91701 0.26777 0.66344 0.0
C9803 C 0.90676 0.26341 0.67515 0.0
H9804 H 0.93392 0.26033 0.647 0.0
C9805 C 0.90423 0.24768 0.6778 0.0
H9806 H 0.91953 0.27981 0.66152 0.0
C9807 C 0.91271 0.23656 0.66974 0.0
C9808 C 0.92361 0.24094 0.65864 0.0
H9809 H 0.89679 0.24403 0.6871 0.0
H9810 H 0.91158 0.22459 0.67299 0.0
C9811 C 0.92523 0.25662 0.65513 0.0
C9812 C 0.76267 0.15887 0.90957 0.0
C9813 C 0.75761 0.17275 0.90297 0.0
H9814 H 0.75717 0.14029 0.92496 0.0
C9815 C 0.74204 0.17669 0.9041 0.0
H9816 H 0.77474 0.1558 0.90917 0.0
C9817 C 0.73201 0.16773 0.91287 0.0
C9818 C 0.73741 0.15483 0.92097 0.0
H9819 H 0.73791 0.18742 0.8993 0.0
H9820 H 0.72034 0.17172 0.91445 0.0
C9821 C 0.75263 0.14998 0.91859 0.0
C9822 C 0.8348 1.00075 0.14788 0.0
C9823 C 0.83276 0.01602 0.15273 0.0
H9824 H 0.84413 0.97855 0.15353 0.0
C9825 C 0.84139 0.02139 0.16529 0.0
H9826 H 0.82801 0.99621 0.13847 0.0
C9827 C 0.85035 0.0113 0.17401 0.0
C9828 C 0.85113 0.99568 0.17015 0.0
H9829 H 0.84004 0.03309 0.1693 0.0
H9830 H 0.85553 0.01543 0.18456 0.0
C9831 C 0.84401 0.99064 0.15652 0.0
C9832 C 0.02506 0.16546 0.84264 0.0
C9833 C 0.01892 0.15321 0.83408 0.0
H9834 H 0.02037 0.18445 0.85762 0.0
C9835 C 0.00376 0.14852 0.83706 0.0
H9836 H 0.03671 0.16929 0.84062 0.0
C9837 C 0.99444 0.15704 0.84719 0.0
C9838 C 1.00014 0.17043 0.85428 0.0
H9839 H 0.99864 0.13933 0.83039 0.0
H9840 H 0.98233 0.15425 0.84799 0.0
C9841 C 0.01575 0.17406 0.85253 0.0
C9842 C 0.83993 0.23007 0.08834 0.0
C9843 C 0.83093 0.23607 0.10033 0.0
H9844 H 0.85526 0.23507 0.06973 0.0
C9845 C 0.83337 0.2513 0.10508 0.0
H9846 H 0.83836 0.21834 0.08454 0.0
C9847 C 0.84344 0.26083 0.0968 0.0
C9848 C 0.85095 0.25523 0.0836 0.0
H9849 H 0.82635 0.25627 0.11409 0.0
H9850 H 0.84396 0.27295 0.09962 0.0
C9851 C 0.84972 0.2396 0.07993 0.0
C9852 C 0.74354 0.07828 0.34756 0.0
C9853 C 0.75934 0.08114 0.34626 0.0
H9854 H 0.721 0.08363 0.33921 0.0
C9855 C 0.76435 0.09368 0.33741 0.0
H9856 H 0.73946 0.06844 0.35402 0.0
C9857 C 0.75376 0.10248 0.32899 0.0
C9858 C 0.73806 0.09872 0.32922 0.0
H9859 H 0.77653 0.0958 0.33591 0.0
H9860 H 0.75801 0.11109 0.32106 0.0
C9861 C 0.73299 0.087 0.33913 0.0
C9862 C 0.91026 0.9906 0.5945 0.0
C9863 C 0.90334 0.99773 0.5817 0.0
H9864 H 0.92614 0.99303 0.61335 0.0
C9865 C 0.90467 0.01372 0.58016 0.0
H9866 H 0.90975 0.97822 0.59573 0.0
C9867 C 0.91359 0.02223 0.59055 0.0
C9868 C 0.92188 0.01492 0.60239 0.0
H9869 H 0.89967 0.01949 0.57032 0.0
H9870 H 0.91497 0.03441 0.58854 0.0
C9871 C 0.9196 0.99908 0.60465 0.0
C9872 C 0.41931 0.99988 0.07289 0.0
C9873 C 0.40484 0.99403 0.07653 0.0
H9874 H 0.44108 0.00531 0.08091 0.0
C9875 C 0.39892 0.99771 0.09131 0.0
H9876 H 0.42434 0.9987 0.06156 0.0
C9877 C 0.40778 0.00709 0.10157 0.0
C9878 C 0.42333 0.01046 0.09801 0.0
H9879 H 0.38758 0.99384 0.09465 0.0
H9880 H 0.40268 0.01135 0.1121 0.0
C9881 C 0.42915 0.00421 0.08432 0.0
C9882 C 0.0247 0.66672 0.343 0.0
C9883 C 0.01924 0.65437 0.33414 0.0
H9884 H 0.0188 0.68549 0.3578 0.0
C9885 C 0.00413 0.64918 0.3364 0.0
H9886 H 0.0363 0.67091 0.34146 0.0
C9887 C 0.99414 0.65741 0.34604 0.0
C9888 C 0.99918 0.67091 0.35337 0.0
H9889 H 0.99959 0.63989 0.32946 0.0
H9890 H 0.98209 0.65428 0.34632 0.0
C9891 C 0.01472 0.675 0.35243 0.0
C9892 C 0.33381 0.25896 0.60581 0.0
C9893 C 0.33431 0.2429 0.605 0.0
H9894 H 0.34274 0.28012 0.59695 0.0
C9895 C 0.34611 0.23571 0.59663 0.0
H9896 H 0.32461 0.26468 0.61198 0.0
C9897 C 0.35602 0.24448 0.58752 0.0
C9898 C 0.35466 0.26052 0.58731 0.0
H9899 H 0.34645 0.22329 0.59564 0.0
H9900 H 0.36376 0.23871 0.57964 0.0
C9901 C 0.3442 0.26775 0.59727 0.0
C9902 C 0.77131 0.59017 0.83411 0.0
C9903 C 0.76542 0.5821 0.8468 0.0
H9904 H 0.7662 0.60438 0.81467 0.0
C9905 C 0.7504 0.58529 0.85178 0.0
H9906 H 0.7829 0.58814 0.83016 0.0
C9907 C 0.74091 0.59507 0.8431 0.0
C9908 C 0.74632 0.60151 0.82927 0.0
H9909 H 0.74552 0.57905 0.86139 0.0
H9910 H 0.7289 0.59612 0.84621 0.0
C9911 C 0.7618 0.59963 0.82531 0.0
C9912 C 0.40283 0.23889 0.17612 0.0
C9913 C 0.40164 0.25434 0.17179 0.0
H9914 H 0.41407 0.21743 0.17231 0.0
C9915 C 0.40898 0.25937 0.1583 0.0
H9916 H 0.39736 0.23482 0.18656 0.0
C9917 C 0.41892 0.24948 0.15033 0.0
C9918 C 0.4214 0.2345 0.15576 0.0
H9919 H 0.40844 0.27136 0.15497 0.0
H9920 H 0.42583 0.25402 0.14102 0.0
C9921 C 0.41251 0.229 0.16805 0.0
C9922 C 0.7305 0.67057 0.41266 0.0
C9923 C 0.73593 0.65734 0.42018 0.0
H9924 H 0.73612 0.69027 0.399 0.0
C9925 C 0.75081 0.65205 0.41674 0.0
H9926 H 0.71908 0.6749 0.415 0.0
C9927 C 0.76056 0.66078 0.4072 0.0
C9928 C 0.75556 0.67494 0.40115 0.0
H9929 H 0.75541 0.64207 0.42261 0.0
H9930 H 0.77246 0.65732 0.40597 0.0
C9931 C 0.74022 0.67934 0.40337 0.0
C9932 C 0.3447 0.9935 0.65714 0.0
C9933 C 0.35223 0.99853 0.67055 0.0
H9934 H 0.32835 0.99918 0.63945 0.0
C9935 C 0.35174 0.01419 0.67433 0.0
H9936 H 0.34454 0.98139 0.65424 0.0
C9937 C 0.34267 0.02434 0.66581 0.0
C9938 C 0.33369 0.019 0.65348 0.0
H9939 H 0.3572 0.01829 0.68476 0.0
H9940 H 0.34153 0.03607 0.66978 0.0
C9941 C 0.33541 0.00368 0.64867 0.0
C9942 C 0.99676 0.59484 0.90066 0.0
C9943 C 0.99317 0.57968 0.9055 0.0
H9944 H 0.0101 0.61541 0.90614 0.0
C9945 C 0.99885 0.57517 0.91985 0.0
H9946 H 0.99306 0.59891 0.8895 0.0
C9947 C 0.00235 0.58612 0.93061 0.0
C9948 C 0.00876 0.6 0.92583 0.0
H9949 H 0.99786 0.5635 0.92408 0.0
H9950 H 0.00301 0.58222 0.94241 0.0
C9951 C 0.0058 0.60455 0.91043 0.0
C9952 C 0.08002 0.40312 0.00857 0.0
C9953 C 0.07969 0.40613 0.99268 0.0
H9954 H 0.0889 0.40992 0.03064 0.0
C9955 C 0.09041 0.41663 0.98665 0.0
H9956 H 0.07157 0.39552 0.01364 0.0
C9957 C 0.10052 0.42468 0.99635 0.0
C9958 C 0.10005 0.42258 0.01237 0.0
H9959 H 0.09012 0.41953 0.97454 0.0
H9960 H 0.10764 0.43366 0.99147 0.0
C9961 C 0.09001 0.41136 0.01832 0.0
C9962 C 0.59335 0.33665 0.27452 0.0
C9963 C 0.58454 0.34899 0.26895 0.0
H9964 H 0.60836 0.31797 0.26884 0.0
C9965 C 0.58713 0.35427 0.25391 0.0
H9966 H 0.59163 0.3324 0.28608 0.0
C9967 C 0.59706 0.34614 0.24409 0.0
C9968 C 0.60434 0.33263 0.2492 0.0
H9969 H 0.58026 0.36356 0.24927 0.0
H9970 H 0.59759 0.34937 0.23207 0.0
C9971 C 0.60305 0.32845 0.2647 0.0
C9972 C 0.66624 0.85434 0.50017 0.0
C9973 C 0.66908 0.8491 0.48516 0.0
H9974 H 0.65534 0.84945 0.52181 0.0
C9975 C 0.66032 0.8368 0.47942 0.0
H9976 H 0.67305 0.8636 0.50496 0.0
C9977 C 0.65038 0.82865 0.48903 0.0
C9978 C 0.64879 0.8328 0.50452 0.0
H9979 H 0.6622 0.83259 0.46787 0.0
H9980 H 0.6451 0.81821 0.48475 0.0
C9981 C 0.65607 0.84626 0.50979 0.0
C9982 C 0.15949 0.90989 0.77086 0.0
C9983 C 0.1703 0.90029 0.76367 0.0
H9984 H 0.14298 0.92796 0.76765 0.0
C9985 C 0.16996 0.89853 0.74767 0.0
H9986 H 0.15982 0.91159 0.78321 0.0
C9987 C 0.15982 0.90735 0.73886 0.0
C9988 C 0.1505 0.91848 0.74595 0.0
H9989 H 0.17841 0.8914 0.74193 0.0
H9990 H 0.16068 0.90685 0.72643 0.0
C9991 C 0.14987 0.91925 0.76202 0.0
C9992 C 0.5975 0.40789 0.49359 0.0
C9993 C 0.58418 0.40083 0.49949 0.0
H9994 H 0.61497 0.42502 0.49729 0.0
C9995 C 0.58043 0.40308 0.515 0.0
H9996 H 0.60038 0.40668 0.48153 0.0
C9997 C 0.58881 0.41343 0.52399 0.0
C9998 C 0.60097 0.42192 0.5176 0.0
H9999 H 0.57009 0.39801 0.51975 0.0
H10000 H 0.58491 0.41577 0.53557 0.0
C10001 C 0.60582 0.41845 0.50259 0.0
C10002 C 0.17253 0.85311 0.01441 0.0
C10003 C 0.16867 0.85392 0.99878 0.0
H10004 H 0.16879 0.84166 0.03583 0.0
C10005 C 0.15564 0.84595 0.99348 0.0
H10006 H 0.18269 0.85892 0.01868 0.0
C10007 C 0.1478 0.8358 0.00329 0.0
C10008 C 0.1529 0.83365 0.01845 0.0
H10009 H 0.15273 0.84608 0.98137 0.0
H10010 H 0.13896 0.82843 0.99854 0.0
C10011 C 0.16466 0.84311 0.02418 0.0
C10012 C 0.64565 0.91874 0.25086 0.0
C10013 C 0.6501 0.92052 0.23542 0.0
H10014 H 0.6516 0.9094 0.27298 0.0
C10015 C 0.66225 0.91146 0.22979 0.0
H10016 H 0.63662 0.92589 0.25561 0.0
C10017 C 0.67094 0.90226 0.23972 0.0
C10018 C 0.66748 0.90166 0.25546 0.0
H10019 H 0.66601 0.91266 0.21799 0.0
H10020 H 0.68123 0.89675 0.23535 0.0
C10021 C 0.65425 0.9093 0.2608 0.0
C10022 C 0.08624 0.35759 0.75387 0.0
C10023 C 0.08317 0.35275 0.76899 0.0
H10024 H 0.09739 0.35217 0.73245 0.0
C10025 C 0.09182 0.34051 0.77504 0.0
H10026 H 0.07952 0.36676 0.74878 0.0
C10027 C 0.10193 0.33214 0.76573 0.0
C10028 C 0.10381 0.33591 0.75015 0.0
H10029 H 0.08974 0.33651 0.78664 0.0
H10030 H 0.10709 0.32177 0.7703 0.0
C10031 C 0.09655 0.34927 0.74453 0.0
C10032 C 0.98963 0.92528 0.60103 0.0
C10033 C 0.00494 0.92064 0.603 0.0
H10034 H 0.96861 0.92187 0.58885 0.0
C10035 C 0.00997 0.90697 0.59596 0.0
H10036 H 0.98555 0.93587 0.6062 0.0
C10037 C 1.00029 0.89906 0.58572 0.0
C10038 C 0.98551 0.90473 0.58255 0.0
H10039 H 0.02184 0.90338 0.59703 0.0
H10040 H 0.00487 0.88951 0.57917 0.0
C10041 C 0.97999 0.91735 0.59098 0.0
C10042 C 0.10056 0.76586 0.3284 0.0
C10043 C 0.10274 0.7504 0.33236 0.0
H10044 H 0.08825 0.78662 0.33292 0.0
C10045 C 0.09611 0.74482 0.34603 0.0
H10046 H 0.10537 0.77038 0.31783 0.0
C10047 C 0.0859 0.75406 0.3545 0.0
C10048 C 0.08241 0.76899 0.34945 0.0
H10049 H 0.09731 0.73281 0.34909 0.0
H10050 H 0.07957 0.74901 0.36396 0.0
C10051 C 0.09059 0.77509 0.33694 0.0
C10052 C 0.24316 0.84798 0.09709 0.0
C10053 C 0.24823 0.83445 0.10437 0.0
H10054 H 0.24815 0.8651 0.07994 0.0
C10055 C 0.26365 0.83003 0.10268 0.0
H10056 H 0.2312 0.85137 0.09786 0.0
C10057 C 0.27325 0.83776 0.09241 0.0
C10058 C 0.26763 0.85009 0.08364 0.0
H10059 H 0.26776 0.8195 0.10793 0.0
H10060 H 0.28463 0.8332 0.09028 0.0
C10061 C 0.25282 0.85576 0.08673 0.0
C10062 C 0.15871 0.01181 0.84428 0.0
C10063 C 0.15207 0.00578 0.8308 0.0
H10064 H 0.1745 0.00781 0.86294 0.0
C10065 C 0.1535 0.99002 0.82782 0.0
H10066 H 0.15807 0.02402 0.84662 0.0
C10067 C 0.16254 0.98073 0.83733 0.0
C10068 C 0.1707 0.98707 0.84977 0.0
H10069 H 0.14867 0.98513 0.81743 0.0
H10070 H 0.16425 0.96886 0.83409 0.0
C10071 C 0.16809 0.00253 0.85366 0.0
C10072 C 0.99162 0.84578 0.15489 0.0
C10073 C 0.99739 0.85307 0.16816 0.0
H10074 H 0.99547 0.82829 0.13775 0.0
C10075 C 0.01292 0.85097 0.17196 0.0
H10076 H 0.97957 0.84685 0.15195 0.0
C10077 C 0.02198 0.84048 0.16382 0.0
C10078 C 0.01568 0.83169 0.15181 0.0
H10079 H 0.0176 0.85622 0.18225 0.0
H10080 H 0.03353 0.83827 0.16782 0.0
C10081 C 1.0007 0.83506 0.14681 0.0
C10082 C 0.16329 0.76704 0.91545 0.0
C10083 C 0.17531 0.76274 0.90555 0.0
H10084 H 0.14646 0.75948 0.93186 0.0
C10085 C 0.178 0.74705 0.90286 0.0
H10086 H 0.16135 0.77906 0.91808 0.0
C10087 C 0.16975 0.73587 0.91101 0.0
C10088 C 0.15844 0.7402 0.9217 0.0
H10089 H 0.18754 0.74347 0.89569 0.0
H10090 H 0.17306 0.72391 0.9099 0.0
C10091 C 0.15479 0.75584 0.92333 0.0
C10092 C 0.26728 0.91491 0.66158 0.0
C10093 C 0.26241 0.90466 0.67309 0.0
H10094 H 0.26066 0.93231 0.64534 0.0
C10095 C 0.24658 0.90232 0.6752 0.0
H10096 H 0.27941 0.91732 0.66011 0.0
C10097 C 0.23586 0.91115 0.66699 0.0
C10098 C 0.24077 0.92224 0.65631 0.0
H10099 H 0.24252 0.89492 0.68436 0.0
H10100 H 0.22379 0.91026 0.66996 0.0
C10101 C 0.25654 0.92351 0.65314 0.0
C10102 C 0.086 0.01619 0.40933 0.0
C10103 C 0.09657 0.01209 0.42086 0.0
H10104 H 0.06906 0.00832 0.39319 0.0
C10105 C 0.09992 0.99646 0.42313 0.0
H10106 H 0.08285 0.02813 0.40772 0.0
C10107 C 0.09176 0.98511 0.41508 0.0
C10108 C 0.08039 0.98922 0.40436 0.0
H10109 H 0.1076 0.99298 0.43231 0.0
H10110 H 0.09338 0.97316 0.41819 0.0
C10111 C 0.07811 0.00485 0.40103 0.0
C10112 C 0.60031 0.98832 0.92844 0.0
C10113 C 0.60257 0.00356 0.92376 0.0
H10114 H 0.58852 0.96721 0.92444 0.0
C10115 C 0.59614 0.0085 0.90975 0.0
H10116 H 0.605 0.98431 0.93926 0.0
C10117 C 0.5863 0.99876 0.9014 0.0
C10118 C 0.5829 0.98399 0.90697 0.0
H10119 H 0.59742 0.02034 0.90611 0.0
H10120 H 0.58029 0.00326 0.89147 0.0
C10121 C 0.59069 0.97861 0.92005 0.0
C10122 C 0.01372 0.35394 0.67604 0.0
C10123 C 0.99814 0.35471 0.67209 0.0
H10124 H 0.03534 0.34307 0.67187 0.0
C10125 C 0.99299 0.34713 0.65877 0.0
H10126 H 0.01788 0.35951 0.68638 0.0
C10127 C 0.00296 0.33743 0.65058 0.0
C10128 C 0.01814 0.33535 0.65564 0.0
H10129 H 0.98091 0.34729 0.65575 0.0
H10130 H 0.99836 0.33032 0.64145 0.0
C10131 C 0.02367 0.34445 0.66779 0.0
C10132 C 0.65685 0.76684 0.40825 0.0
C10133 C 0.6681 0.75905 0.39959 0.0
H10134 H 0.6409 0.76538 0.42712 0.0
C10135 C 0.6689 0.74298 0.40052 0.0
H10136 H 0.6563 0.77929 0.40801 0.0
C10137 C 0.65959 0.735 0.41094 0.0
C10138 C 0.64995 0.74304 0.42112 0.0
H10139 H 0.67769 0.73677 0.39424 0.0
H10140 H 0.6613 0.72273 0.4123 0.0
C10141 C 0.64812 0.75894 0.41928 0.0
C10142 C 0.26075 0.40573 0.15777 0.0
C10143 C 0.25582 0.39848 0.17135 0.0
H10144 H 0.25534 0.42259 0.14052 0.0
C10145 C 0.24043 0.39981 0.17586 0.0
H10146 H 0.27269 0.40508 0.15429 0.0
C10147 C 0.23055 0.4096 0.16793 0.0
C10148 C 0.23599 0.41841 0.15556 0.0
H10149 H 0.23644 0.39442 0.18637 0.0
H10150 H 0.21906 0.41132 0.17234 0.0
C10151 C 0.25086 0.41574 0.14991 0.0
C10152 C 0.58635 0.753 0.85302 0.0
C10153 C 0.58357 0.76789 0.84744 0.0
H10154 H 0.59703 0.73118 0.8485 0.0
C10155 C 0.59213 0.77329 0.83488 0.0
H10156 H 0.57972 0.74854 0.86258 0.0
C10157 C 0.6019 0.76344 0.82685 0.0
C10158 C 0.60343 0.74806 0.83138 0.0
H10159 H 0.59036 0.78478 0.8305 0.0
H10160 H 0.60715 0.76744 0.81628 0.0
C10161 C 0.59629 0.74311 0.84502 0.0
C10162 C 0.2684 0.33489 0.59181 0.0
C10163 C 0.26349 0.34596 0.5811 0.0
H10164 H 0.26178 0.31755 0.60811 0.0
C10165 C 0.24776 0.34957 0.5804 0.0
H10166 H 0.2804 0.33158 0.5923 0.0
C10167 C 0.23705 0.34133 0.5893 0.0
C10168 C 0.24189 0.32959 0.59933 0.0
H10169 H 0.24359 0.35767 0.57192 0.0
H10170 H 0.22489 0.34326 0.58739 0.0
C10171 C 0.25774 0.3269 0.60094 0.0
C10172 C 0.65842 0.01165 0.34529 0.0
C10173 C 0.65068 0.00603 0.33224 0.0
H10174 H 0.67537 0.00692 0.36268 0.0
C10175 C 0.65138 0.99026 0.32897 0.0
H10176 H 0.65839 0.02386 0.34778 0.0
C10177 C 0.66087 0.98059 0.3376 0.0
C10178 C 0.67008 0.98654 0.34946 0.0
H10179 H 0.64575 0.9857 0.31883 0.0
H10180 H 0.66212 0.96875 0.33402 0.0
C10181 C 0.66815 0.00197 0.35382 0.0
C10182 C 0.00421 0.4288 0.08878 0.0
C10183 C 0.01092 0.42356 0.10241 0.0
H10184 H 0.99873 0.42268 0.06626 0.0
C10185 C 0.00756 0.40823 0.10685 0.0
H10186 H 0.00514 0.44061 0.08495 0.0
C10187 C 0.99781 0.39899 0.09734 0.0
C10188 C 0.99384 0.40422 0.0824 0.0
H10189 H 0.01209 0.40362 0.11749 0.0
H10190 H 0.9939 0.38788 0.10135 0.0
C10191 C 0.99984 0.41836 0.07787 0.0
C10192 C 0.90886 0.59229 0.01237 0.0
C10193 C 0.92201 0.59913 0.00589 0.0
H10194 H 0.88963 0.57717 0.00866 0.0
C10195 C 0.92387 0.59871 0.98989 0.0
H10196 H 0.90734 0.59219 0.02474 0.0
C10197 C 0.9134 0.59066 0.98067 0.0
C10198 C 0.90119 0.58233 0.98728 0.0
H10199 H 0.93396 0.60376 0.98462 0.0
H10200 H 0.91565 0.58984 0.96847 0.0
C10201 C 0.89862 0.58379 0.00316 0.0
C10202 C 0.40115 0.67538 0.73791 0.0
C10203 C 0.40012 0.67113 0.75341 0.0
H10204 H 0.41215 0.67142 0.71632 0.0
C10205 C 0.40722 0.65747 0.75832 0.0
H10206 H 0.39595 0.68599 0.73394 0.0
C10207 C 0.4168 0.64924 0.74826 0.0
C10208 C 0.41922 0.6546 0.73324 0.0
H10209 H 0.40686 0.6542 0.77034 0.0
H10210 H 0.42359 0.6398 0.75273 0.0
C10211 C 0.41052 0.66711 0.72788 0.0
C10212 C 0.35304 0.17621 0.50931 0.0
C10213 C 0.35278 0.17437 0.49325 0.0
H10214 H 0.3425 0.17058 0.53093 0.0
C10215 C 0.34292 0.16312 0.48703 0.0
H10216 H 0.36 0.18519 0.51442 0.0
C10217 C 0.33291 0.15461 0.49655 0.0
C10218 C 0.33237 0.15735 0.51248 0.0
H10219 H 0.34195 0.16188 0.47467 0.0
H10220 H 0.3246 0.147 0.49126 0.0
C10221 C 0.34292 0.16788 0.51878 0.0
C10222 C 0.83801 0.10632 0.25674 0.0
C10223 C 0.83656 0.10313 0.24101 0.0
H10224 H 0.84748 0.09888 0.27824 0.0
C10225 C 0.84633 0.0922 0.23424 0.0
H10226 H 0.83049 0.11462 0.26219 0.0
C10227 C 0.85538 0.08268 0.24348 0.0
C10228 C 0.85526 0.08453 0.25948 0.0
H10229 H 0.84529 0.08952 0.22211 0.0
H10230 H 0.86099 0.07283 0.23832 0.0
C10231 C 0.84774 0.09731 0.26588 0.0
C10232 C 0.39813 0.57898 0.51442 0.0
C10233 C 0.39682 0.58334 0.49896 0.0
H10234 H 0.40984 0.5824 0.53573 0.0
C10235 C 0.40421 0.59684 0.49399 0.0
H10236 H 0.39276 0.56849 0.51845 0.0
C10237 C 0.4143 0.6047 0.50386 0.0
C10238 C 0.41697 0.59915 0.51879 0.0
H10239 H 0.4037 0.60019 0.482 0.0
H10240 H 0.42124 0.61398 0.4993 0.0
C10241 C 0.40804 0.58686 0.52426 0.0
C10242 C 0.85563 0.168 0.00337 0.0
C10243 C 0.85144 0.17026 0.98794 0.0
H10244 H 0.84912 0.15821 0.02513 0.0
C10245 C 0.83925 0.1616 0.98184 0.0
H10246 H 0.86473 0.17482 0.00845 0.0
C10247 C 0.83022 0.15234 0.99136 0.0
C10248 C 0.83339 0.15132 0.00713 0.0
H10249 H 0.83576 0.16314 0.96999 0.0
H10250 H 0.81991 0.14714 0.98668 0.0
C10251 C 0.84669 0.15849 0.01291 0.0
C10252 C 0.33131 0.10192 0.76463 0.0
C10253 C 0.33502 0.10283 0.74896 0.0
H10254 H 0.33556 0.0907 0.78608 0.0
C10255 C 0.34811 0.09501 0.74357 0.0
H10256 H 0.32108 0.10756 0.76898 0.0
C10257 C 0.35631 0.08508 0.75335 0.0
C10258 C 0.3515 0.08295 0.76863 0.0
H10259 H 0.35091 0.09515 0.73143 0.0
H10260 H 0.36525 0.07787 0.74855 0.0
C10261 C 0.33953 0.09216 0.77438 0.0
C10262 C 0.91804 0.65955 0.2675 0.0
C10263 C 0.90694 0.67044 0.26301 0.0
H10264 H 0.93545 0.64357 0.26023 0.0
C10265 C 0.90352 0.67188 0.24728 0.0
H10266 H 0.92127 0.65855 0.27949 0.0
C10267 C 0.91186 0.66351 0.23622 0.0
C10268 C 0.92356 0.65325 0.24067 0.0
H10269 H 0.89544 0.68055 0.24344 0.0
H10270 H 0.91001 0.66596 0.22415 0.0
C10271 C 0.92614 0.65093 0.25646 0.0
C10272 C 0.90629 0.74053 0.15701 0.0
C10273 C 0.91968 0.74529 0.14928 0.0
H10274 H 0.88921 0.74641 0.17393 0.0
C10275 C 0.92404 0.76078 0.15009 0.0
H10276 H 0.90296 0.72853 0.15689 0.0
C10277 C 0.91617 0.77095 0.1597 0.0
C10278 C 0.90388 0.76581 0.16884 0.0
H10279 H 0.93446 0.76466 0.14447 0.0
H10280 H 0.92062 0.78248 0.16109 0.0
C10281 C 0.89843 0.75075 0.16678 0.0
C10282 C 0.83159 0.49977 0.65195 0.0
C10283 C 0.83241 0.5154 0.65593 0.0
H10284 H 0.83798 0.47669 0.65804 0.0
C10285 C 0.84284 0.51997 0.6674 0.0
H10286 H 0.8233 0.49591 0.64349 0.0
C10287 C 0.85153 0.50902 0.67543 0.0
C10288 C 0.8497 0.49327 0.67238 0.0
H10289 H 0.84337 0.53189 0.67097 0.0
H10290 H 0.85848 0.51275 0.68508 0.0
C10291 C 0.84002 0.48878 0.66024 0.0
C10292 C 0.85237 0.73994 0.57708 0.0
C10293 C 0.85334 0.75542 0.58139 0.0
H10294 H 0.84124 0.71837 0.58073 0.0
C10295 C 0.84586 0.76035 0.59485 0.0
H10296 H 0.85785 0.73596 0.56661 0.0
C10297 C 0.83609 0.7503 0.60284 0.0
C10298 C 0.8338 0.73528 0.59741 0.0
H10299 H 0.84616 0.77236 0.59814 0.0
H10300 H 0.82911 0.75475 0.61215 0.0
C10301 C 0.84275 0.72992 0.58508 0.0
C10302 C 0.92315 0.49504 0.10106 0.0
C10303 C 0.92387 0.51081 0.09759 0.0
H10304 H 0.91376 0.47299 0.09488 0.0
C10305 C 0.91338 0.51677 0.08681 0.0
H10306 H 0.93141 0.49002 0.10892 0.0
C10307 C 0.90312 0.50707 0.07896 0.0
C10308 C 0.90316 0.49113 0.08157 0.0
H10309 H 0.91392 0.52879 0.08359 0.0
H10310 H 0.89616 0.51186 0.0698 0.0
C10311 C 0.91299 0.48529 0.09305 0.0
C10312 C 0.4054 0.51556 0.59363 0.0
C10313 C 0.41529 0.50819 0.60408 0.0
H10314 H 0.39065 0.51268 0.57406 0.0
C10315 C 0.41397 0.49226 0.60613 0.0
H10316 H 0.40635 0.52784 0.59175 0.0
C10317 C 0.40417 0.48368 0.59661 0.0
C10318 C 0.39646 0.49082 0.58431 0.0
H10319 H 0.42158 0.4863 0.61398 0.0
H10320 H 0.40444 0.47125 0.59741 0.0
C10321 C 0.39636 0.50691 0.58351 0.0
C10322 C 0.34057 0.7304 0.08504 0.0
C10323 C 0.3326 0.7362 0.09785 0.0
H10324 H 0.35434 0.73566 0.06532 0.0
C10325 C 0.33548 0.75135 0.10262 0.0
H10326 H 0.33868 0.71874 0.08119 0.0
C10327 C 0.34488 0.761 0.09368 0.0
C10328 C 0.35125 0.7556 0.07981 0.0
H10329 H 0.32926 0.75618 0.11227 0.0
H10330 H 0.34571 0.77306 0.09668 0.0
C10331 C 0.34964 0.74005 0.076 0.0
C10332 C 0.40946 0.76993 0.65959 0.0
C10333 C 0.40019 0.76198 0.67018 0.0
H10334 H 0.42738 0.76807 0.64272 0.0
C10335 C 0.39882 0.74598 0.66893 0.0
H10336 H 0.41085 0.78228 0.66054 0.0
C10337 C 0.40766 0.73794 0.6581 0.0
C10338 C 0.41853 0.74574 0.64901 0.0
H10339 H 0.39194 0.73962 0.67713 0.0
H10340 H 0.4075 0.72548 0.65835 0.0
C10341 C 0.41886 0.76184 0.64932 0.0
C10342 C 0.34138 0.5172 0.16791 0.0
C10343 C 0.32973 0.51297 0.15754 0.0
H10344 H 0.35776 0.50959 0.18479 0.0
C10345 C 0.32714 0.49727 0.15479 0.0
H10346 H 0.34325 0.52922 0.17062 0.0
C10347 C 0.33517 0.48605 0.16316 0.0
C10348 C 0.34621 0.49031 0.17418 0.0
H10349 H 0.31787 0.49369 0.14727 0.0
H10350 H 0.33196 0.47408 0.16186 0.0
C10351 C 0.34968 0.50597 0.17602 0.0
C10352 C 0.10369 0.91912 0.50461 0.0
C10353 C 0.09806 0.92191 0.51949 0.0
H10354 H 0.09939 0.90825 0.48283 0.0
C10355 C 0.08562 0.91318 0.5249 0.0
H10356 H 0.11315 0.92586 0.50012 0.0
C10357 C 0.07782 0.90316 0.5151 0.0
C10358 C 0.0824 0.90156 0.49973 0.0
H10359 H 0.08117 0.91498 0.53638 0.0
H10360 H 0.06732 0.89778 0.51912 0.0
C10361 C 0.09589 0.90897 0.49476 0.0
C10362 C 0.58116 0.85082 0.7391 0.0
C10363 C 0.5846 0.8521 0.75479 0.0
H10364 H 0.58599 0.8393 0.71793 0.0
C10365 C 0.59763 0.84449 0.7606 0.0
H10366 H 0.57102 0.85635 0.73442 0.0
C10367 C 0.60604 0.83438 0.7512 0.0
C10368 C 0.60154 0.83193 0.73589 0.0
H10369 H 0.60024 0.84496 0.77278 0.0
H10370 H 0.61495 0.82734 0.75631 0.0
C10371 C 0.58965 0.84094 0.72971 0.0
C10372 C 0.67233 0.3526 0.00886 0.0
C10373 C 0.66751 0.35338 0.99348 0.0
H10374 H 0.66968 0.3415 0.03066 0.0
C10375 C 0.65382 0.34586 0.98927 0.0
H10376 H 0.68304 0.35795 0.01233 0.0
C10377 C 0.64614 0.33629 0.99982 0.0
C10378 C 0.65214 0.3341 0.01467 0.0
H10379 H 0.65008 0.34593 0.97739 0.0
H10380 H 0.6366 0.32935 0.99584 0.0
C10381 C 0.66477 0.34302 0.01932 0.0
C10382 C 0.1662 0.40984 0.27508 0.0
C10383 C 0.17467 0.39813 0.2678 0.0
H10384 H 0.15146 0.42945 0.27226 0.0
C10385 C 0.1719 0.39525 0.25214 0.0
H10386 H 0.16795 0.41227 0.28714 0.0
C10387 C 0.16188 0.40477 0.24371 0.0
C10388 C 0.15475 0.41753 0.25072 0.0
H10389 H 0.17852 0.38658 0.24612 0.0
H10390 H 0.16104 0.40318 0.23138 0.0
C10391 C 0.15657 0.41959 0.26661 0.0
C10392 C 0.60261 0.92237 0.9982 0.0
C10393 C 0.59945 0.92406 0.01392 0.0
H10394 H 0.59621 0.91123 0.97711 0.0
C10395 C 0.58903 0.91395 0.02099 0.0
H10396 H 0.61044 0.93019 0.99249 0.0
C10397 C 0.58071 0.90338 0.01221 0.0
C10398 C 0.58302 0.90242 0.99629 0.0
H10399 H 0.58649 0.91495 0.03312 0.0
H10400 H 0.57164 0.8968 0.01766 0.0
C10401 C 0.59457 0.91144 0.98946 0.0
C10402 C 0.15703 0.34491 0.51166 0.0
C10403 C 0.14968 0.33121 0.50723 0.0
H10404 H 0.17307 0.36252 0.50508 0.0
C10405 C 0.14992 0.32683 0.49173 0.0
H10406 H 0.15729 0.34828 0.52365 0.0
C10407 C 0.15875 0.33503 0.48114 0.0
C10408 C 0.16767 0.34761 0.48593 0.0
H10409 H 0.14454 0.3162 0.48811 0.0
H10410 H 0.15987 0.33056 0.46958 0.0
C10411 C 0.16604 0.35307 0.50104 0.0
C10412 C 0.66002 0.41274 0.77146 0.0
C10413 C 0.6693 0.40103 0.76535 0.0
H10414 H 0.64416 0.43092 0.7666 0.0
C10415 C 0.66668 0.39609 0.7502 0.0
H10416 H 0.66176 0.41672 0.78312 0.0
C10417 C 0.65627 0.40408 0.74076 0.0
C10418 C 0.64855 0.41714 0.74639 0.0
H10419 H 0.67387 0.38725 0.74516 0.0
H10420 H 0.65584 0.40131 0.72862 0.0
C10421 C 0.64977 0.42076 0.76206 0.0
C10422 C 0.09098 0.84339 0.23435 0.0
C10423 C 0.10007 0.83215 0.24162 0.0
H10424 H 0.07254 0.85962 0.23706 0.0
C10425 C 0.1004 0.83153 0.25772 0.0
H10426 H 0.09034 0.84383 0.22191 0.0
C10427 C 0.09081 0.84111 0.26637 0.0
C10428 C 0.08019 0.8508 0.25899 0.0
H10429 H 0.10711 0.82279 0.26353 0.0
H10430 H 0.09038 0.8396 0.27873 0.0
C10431 C 0.08076 0.85238 0.24297 0.0
C10432 C 0.08179 0.24615 0.85374 0.0
C10433 C 0.08236 0.26226 0.85319 0.0
H10434 H 0.08984 0.22497 0.844 0.0
C10435 C 0.09354 0.26934 0.84388 0.0
H10436 H 0.07306 0.24043 0.86054 0.0
C10437 C 0.10258 0.26054 0.83381 0.0
C10438 C 0.10112 0.24448 0.8335 0.0
H10439 H 0.09393 0.28176 0.84297 0.0
H10440 H 0.10977 0.26633 0.82545 0.0
C10441 C 0.09139 0.23733 0.84424 0.0
C10442 C 0.16347 0.49639 0.35107 0.0
C10443 C 0.17851 0.49251 0.34604 0.0
H10444 H 0.14304 0.51013 0.34604 0.0
C10445 C 0.18304 0.4983 0.33173 0.0
H10446 H 0.15942 0.49258 0.3622 0.0
C10447 C 0.17223 0.50285 0.32124 0.0
C10448 C 0.15832 0.50921 0.32626 0.0
H10449 H 0.19463 0.49699 0.32735 0.0
H10450 H 0.17623 0.50392 0.30948 0.0
C10451 C 0.15383 0.50583 0.34159 0.0
C10452 C 0.15448 0.25977 0.40981 0.0
C10453 C 0.16706 0.25254 0.40261 0.0
H10454 H 0.13634 0.25762 0.42653 0.0
C10455 C 0.16866 0.23657 0.4041 0.0
H10456 H 0.15325 0.27215 0.40922 0.0
C10457 C 0.15871 0.22822 0.41364 0.0
C10458 C 0.14729 0.23571 0.42232 0.0
H10459 H 0.17838 0.23074 0.39894 0.0
H10460 H 0.1609 0.2161 0.41531 0.0
C10461 C 0.14476 0.25145 0.41974 0.0
C10462 C 0.09268 0.49238 0.91063 0.0
C10463 C 0.07905 0.49849 0.90437 0.0
H10464 H 0.11219 0.49649 0.9253 0.0
C10465 C 0.07642 0.51434 0.90549 0.0
H10466 H 0.09478 0.48011 0.91021 0.0
C10467 C 0.08658 0.52372 0.9137 0.0
C10468 C 0.09931 0.5174 0.9214 0.0
H10469 H 0.06595 0.5193 0.90091 0.0
H10470 H 0.08378 0.53575 0.91499 0.0
C10471 C 0.10268 0.50175 0.91922 0.0
C10472 C 0.59271 0.48038 0.417 0.0
C10473 C 0.58361 0.48556 0.40473 0.0
H10474 H 0.6081 0.48662 0.43516 0.0
C10475 C 0.58585 0.50051 0.39907 0.0
H10476 H 0.59123 0.46889 0.42153 0.0
C10477 C 0.59577 0.51066 0.40678 0.0
C10478 C 0.60343 0.50591 0.4202 0.0
H10479 H 0.57876 0.50484 0.38979 0.0
H10480 H 0.59603 0.52262 0.40332 0.0
C10481 C 0.60248 0.49048 0.42472 0.0
C10482 C 0.65347 0.2606 0.92265 0.0
C10483 C 0.65334 0.24462 0.92083 0.0
H10484 H 0.66359 0.28187 0.91574 0.0
C10485 C 0.66195 0.23792 0.90888 0.0
H10486 H 0.6471 0.26595 0.93193 0.0
C10487 C 0.67199 0.24695 0.90009 0.0
C10488 C 0.67309 0.26278 0.90287 0.0
H10489 H 0.66227 0.22554 0.90756 0.0
H10490 H 0.6798 0.2414 0.89213 0.0
C10491 C 0.66307 0.26965 0.91351 0.0
C10492 C 0.59386 0.23451 0.34257 0.0
C10493 C 0.60361 0.2425 0.33247 0.0
H10494 H 0.57591 0.23642 0.35938 0.0
C10495 C 0.60587 0.2583 0.33459 0.0
H10496 H 0.59188 0.22231 0.34102 0.0
C10497 C 0.59737 0.26624 0.34577 0.0
C10498 C 0.58597 0.25856 0.35433 0.0
H10499 H 0.61321 0.26469 0.32682 0.0
H10500 H 0.59818 0.27866 0.34619 0.0
C10501 C 0.58482 0.24253 0.35318 0.0
C10502 C 0.66593 0.52095 0.84026 0.0
C10503 C 0.65323 0.51578 0.83173 0.0
H10504 H 0.68476 0.51476 0.85483 0.0
C10505 C 0.6477 0.50082 0.83431 0.0
H10506 H 0.67043 0.53242 0.8385 0.0
C10507 C 0.65585 0.4907 0.84394 0.0
C10508 C 0.66963 0.49544 0.85097 0.0
H10509 H 0.63813 0.49647 0.82765 0.0
H10510 H 0.65241 0.47874 0.8444 0.0
C10511 C 0.67408 0.51088 0.84973 0.0
C10512 C 0.91749 0.07326 0.50155 0.0
C10513 C 0.90369 0.07881 0.49534 0.0
H10514 H 0.94016 0.07861 0.50707 0.0
C10515 C 0.89974 0.09423 0.49895 0.0
H10516 H 0.92112 0.06141 0.50033 0.0
C10517 C 0.90976 0.10323 0.50846 0.0
C10518 C 0.92468 0.09764 0.51209 0.0
H10519 H 0.88909 0.09911 0.49477 0.0
H10520 H 0.90612 0.11443 0.51248 0.0
C10521 C 0.92869 0.08334 0.50602 0.0
C10522 C 0.40575 0.15747 0.2442 0.0
C10523 C 0.41909 0.15014 0.24966 0.0
H10524 H 0.38864 0.17479 0.24866 0.0
C10525 C 0.42323 0.15198 0.26513 0.0
H10526 H 0.40258 0.15656 0.23219 0.0
C10527 C 0.4153 0.16233 0.27448 0.0
C10528 C 0.40316 0.17113 0.2685 0.0
H10529 H 0.4336 0.14665 0.26953 0.0
H10530 H 0.41956 0.16446 0.28598 0.0
C10531 C 0.39783 0.16799 0.25359 0.0
C10532 C 0.33433 0.64931 0.99504 0.0
C10533 C 0.3337 0.65029 0.01111 0.0
H10534 H 0.34433 0.65824 0.97436 0.0
C10535 C 0.34461 0.65935 0.01887 0.0
H10536 H 0.32586 0.64263 0.98882 0.0
C10537 C 0.35472 0.66878 0.01061 0.0
C10538 C 0.35456 0.66869 0.9945 0.0
H10539 H 0.34409 0.66052 0.03127 0.0
H10540 H 0.3617 0.67705 0.01677 0.0
C10541 C 0.34496 0.65819 0.9868 0.0
C10542 C 0.8319 0.60528 0.76017 0.0
C10543 C 0.8314 0.60432 0.7441 0.0
H10544 H 0.84109 0.59567 0.78092 0.0
C10545 C 0.84167 0.5945 0.7364 0.0
H10546 H 0.82383 0.61252 0.7663 0.0
C10547 C 0.85095 0.58437 0.74471 0.0
C10548 C 0.85059 0.58449 0.76081 0.0
H10549 H 0.84118 0.59338 0.72399 0.0
H10550 H 0.85746 0.57567 0.73862 0.0
C10551 C 0.84175 0.59565 0.76848 0.0
C10552 C 0.4166 0.10739 1.00027 0.0
C10553 C 0.41894 0.10419 0.01593 0.0
H10554 H 0.40651 0.09971 0.97905 0.0
C10555 C 0.41006 0.09256 0.02282 0.0
H10556 H 0.42355 0.116 0.99455 0.0
C10557 C 0.4007 0.08296 0.01391 0.0
C10558 C 0.39959 0.08513 0.99798 0.0
H10559 H 0.41155 0.08986 0.03486 0.0
H10560 H 0.39545 0.07301 0.01926 0.0
C10561 C 0.40685 0.09802 0.99139 0.0
C10562 C 0.85568 0.6671 0.49968 0.0
C10563 C 0.85018 0.67043 0.48486 0.0
H10564 H 0.85108 0.65556 0.52104 0.0
C10565 C 0.8379 0.66179 0.47896 0.0
H10566 H 0.865 0.67377 0.50454 0.0
C10567 C 0.83003 0.65139 0.48829 0.0
C10568 C 0.83432 0.64941 0.50371 0.0
H10569 H 0.83352 0.66406 0.46754 0.0
H10570 H 0.81957 0.6462 0.48397 0.0
C10571 C 0.84779 0.65658 0.50907 0.0
C10572 C 0.33809 0.59431 0.27448 0.0
C10573 C 0.35015 0.58505 0.26905 0.0
H10574 H 0.31994 0.60982 0.26855 0.0
C10575 C 0.35555 0.58723 0.25399 0.0
H10576 H 0.33372 0.59281 0.28603 0.0
C10577 C 0.34775 0.59722 0.24398 0.0
C10578 C 0.33448 0.605 0.24897 0.0
H10579 H 0.36463 0.58 0.24947 0.0
H10580 H 0.35095 0.5974 0.23194 0.0
C10581 C 0.33027 0.60414 0.26451 0.0
C10582 C 0.89965 0.16825 0.75472 0.0
C10583 C 0.90461 0.17038 0.76993 0.0
H10584 H 0.90493 0.15828 0.73273 0.0
C10585 C 0.91677 0.16137 0.77555 0.0
H10586 H 0.89051 0.1753 0.75005 0.0
C10587 C 0.92513 0.15191 0.76567 0.0
C10588 C 0.92125 0.15105 0.75007 0.0
H10589 H 0.92077 0.16279 0.78725 0.0
H10590 H 0.93546 0.14638 0.76991 0.0
C10591 C 0.90791 0.15853 0.74483 0.0
C10592 C 0.48789 0.09331 0.91526 0.0
C10593 C 0.49205 0.08131 0.90526 0.0
H10594 H 0.49562 0.10988 0.93187 0.0
C10595 C 0.50772 0.07848 0.90257 0.0
H10596 H 0.4759 0.09534 0.91794 0.0
C10597 C 0.51899 0.08651 0.91085 0.0
C10598 C 0.51477 0.09776 0.92166 0.0
H10599 H 0.5112 0.06894 0.89536 0.0
H10600 H 0.5309 0.08307 0.90974 0.0
C10601 C 0.49918 0.10159 0.92327 0.0
C10602 C 0.24803 0.16981 0.43249 0.0
C10603 C 0.24173 0.15597 0.42715 0.0
H10604 H 0.25467 0.19205 0.42681 0.0
C10605 C 0.24573 0.15144 0.41199 0.0
H10606 H 0.24655 0.17383 0.44419 0.0
C10607 C 0.25575 0.16095 0.40299 0.0
C10608 C 0.25968 0.17588 0.40828 0.0
H10609 H 0.2415 0.14071 0.40733 0.0
H10610 H 0.25998 0.15687 0.39202 0.0
C10611 C 0.25335 0.18051 0.42231 0.0
C10612 C 0.49315 0.16003 0.34478 0.0
C10613 C 0.49837 0.17399 0.35111 0.0
H10614 H 0.49818 0.14135 0.3293 0.0
C10615 C 0.51389 0.17796 0.34937 0.0
H10616 H 0.48113 0.15691 0.34566 0.0
C10617 C 0.52364 0.16894 0.34033 0.0
C10618 C 0.51804 0.15595 0.33251 0.0
H10619 H 0.51816 0.18872 0.35397 0.0
H10620 H 0.53524 0.17294 0.33836 0.0
C10621 C 0.50291 0.1511 0.33544 0.0
C10622 C 0.23083 0.08665 0.84153 0.0
C10623 C 0.23615 0.09934 0.83307 0.0
H10624 H 0.2367 0.06784 0.85629 0.0
C10625 C 0.25111 0.10478 0.83589 0.0
H10626 H 0.21939 0.08217 0.83958 0.0
C10627 C 0.26104 0.09663 0.84576 0.0
C10628 C 0.25614 0.08291 0.85282 0.0
H10629 H 0.25562 0.11432 0.82928 0.0
H10630 H 0.27299 0.10005 0.84643 0.0
C10631 C 0.24071 0.07849 0.85122 0.0
C10632 C 0.50749 0.67449 0.84921 0.0
C10633 C 0.49172 0.67204 0.8468 0.0
H10634 H 0.53042 0.66968 0.84142 0.0
C10635 C 0.48712 0.66048 0.83649 0.0
H10636 H 0.51131 0.6837 0.85668 0.0
C10637 C 0.49806 0.65224 0.82796 0.0
C10638 C 0.51376 0.65571 0.82936 0.0
H10639 H 0.47503 0.65875 0.83404 0.0
H10640 H 0.49416 0.64432 0.81918 0.0
C10641 C 0.51842 0.66651 0.84044 0.0
C10642 C 0.2385 0.58185 0.35011 0.0
C10643 C 0.25424 0.58448 0.35236 0.0
H10644 H 0.21805 0.58843 0.33819 0.0
C10645 C 0.26091 0.59764 0.34566 0.0
H10646 H 0.23312 0.57169 0.35489 0.0
C10647 C 0.25237 0.60695 0.33551 0.0
C10648 C 0.23697 0.60341 0.33217 0.0
H10649 H 0.27313 0.59969 0.34684 0.0
H10650 H 0.25821 0.61594 0.32918 0.0
C10651 C 0.22993 0.59134 0.34032 0.0
C10652 C 0.2458 0.65782 0.90874 0.0
C10653 C 0.25097 0.65118 0.92254 0.0
H10654 H 0.25104 0.67361 0.89046 0.0
C10655 C 0.26647 0.65248 0.92662 0.0
H10656 H 0.23378 0.65715 0.90557 0.0
C10657 C 0.27634 0.66153 0.91783 0.0
C10658 C 0.27076 0.66976 0.90511 0.0
H10659 H 0.27065 0.64751 0.93725 0.0
H10660 H 0.288 0.66317 0.9218 0.0
C10661 C 0.25566 0.66718 0.90007 0.0
C10662 C 0.50584 0.57922 0.40411 0.0
C10663 C 0.49013 0.58163 0.40697 0.0
H10664 H 0.52899 0.5841 0.41123 0.0
C10665 C 0.48583 0.59322 0.4174 0.0
H10666 H 0.50948 0.57 0.39656 0.0
C10667 C 0.49701 0.60152 0.42556 0.0
C10668 C 0.51269 0.59812 0.42372 0.0
H10669 H 0.47381 0.59494 0.42019 0.0
H10670 H 0.49334 0.60946 0.43445 0.0
C10671 C 0.51701 0.58726 0.41254 0.0
C10672 C 0.51257 0.90695 0.09363 0.0
C10673 C 0.5068 0.92055 0.10028 0.0
H10674 H 0.50825 0.88817 0.07805 0.0
C10675 C 0.49102 0.92362 0.09892 0.0
H10676 H 0.52477 0.90449 0.09414 0.0
C10677 C 0.48156 0.9142 0.0899 0.0
C10678 C 0.48765 0.90157 0.08181 0.0
H10679 H 0.4863 0.93416 0.10359 0.0
H10680 H 0.46974 0.91764 0.08815 0.0
C10681 C 0.5031 0.89757 0.08439 0.0
C10682 C 0.75696 0.83091 0.59955 0.0
C10683 C 0.74133 0.83261 0.59586 0.0
H10684 H 0.78025 0.83647 0.5934 0.0
C10685 C 0.73713 0.84363 0.5848 0.0
H10686 H 0.76055 0.82213 0.60763 0.0
C10687 C 0.74838 0.8521 0.57693 0.0
C10688 C 0.76407 0.84945 0.57969 0.0
H10689 H 0.72521 0.84482 0.5814 0.0
H10690 H 0.74486 0.85958 0.56761 0.0
C10691 C 0.76824 0.83911 0.5914 0.0
C10692 C 0.51127 0.84532 0.65943 0.0
C10693 C 0.50621 0.83139 0.65292 0.0
H10694 H 0.50588 0.86391 0.67489 0.0
C10695 C 0.49068 0.82738 0.65431 0.0
H10696 H 0.5233 0.84847 0.65882 0.0
C10697 C 0.48071 0.83634 0.66317 0.0
C10698 C 0.48611 0.84932 0.67116 0.0
H10699 H 0.48652 0.81663 0.64956 0.0
H10700 H 0.46909 0.8323 0.6649 0.0
C10701 C 0.5013 0.8542 0.6686 0.0
C10702 C 0.76163 0.92238 0.15275 0.0
C10703 C 0.74584 0.91922 0.15236 0.0
H10704 H 0.78334 0.91707 0.16298 0.0
C10705 C 0.74031 0.9061 0.16002 0.0
H10706 H 0.76612 0.93259 0.14719 0.0
C10707 C 0.75016 0.89733 0.16937 0.0
C10708 C 0.76566 0.90155 0.17101 0.0
H10709 H 0.72809 0.90369 0.16023 0.0
H10710 H 0.74531 0.88842 0.17658 0.0
C10711 C 0.77147 0.91353 0.16186 0.0
C10712 C 0.50552 0.35171 0.17508 0.0
C10713 C 0.48993 0.34796 0.17324 0.0
H10714 H 0.52885 0.34568 0.16962 0.0
C10715 C 0.4858 0.33704 0.16208 0.0
H10716 H 0.50902 0.35973 0.18396 0.0
C10717 C 0.49712 0.3293 0.15359 0.0
C10718 C 0.51277 0.33208 0.15641 0.0
H10719 H 0.47389 0.33365 0.16077 0.0
H10720 H 0.49368 0.32005 0.14599 0.0
C10721 C 0.51686 0.34369 0.16687 0.0
C10722 C 0.75187 0.4185 0.64856 0.0
C10723 C 0.73671 0.42034 0.65381 0.0
H10724 H 0.77417 0.40907 0.6535 0.0
C10725 C 0.7315 0.41115 0.66601 0.0
H10726 H 0.75624 0.42569 0.63938 0.0
C10727 C 0.74171 0.40182 0.67414 0.0
C10728 C 0.75729 0.40134 0.67005 0.0
H10729 H 0.71987 0.41234 0.67026 0.0
H10730 H 0.73777 0.39623 0.68455 0.0
C10731 C 0.76212 0.40897 0.65663 0.0
C10732 C 0.7419 0.34486 0.09513 0.0
C10733 C 0.74641 0.33082 0.10175 0.0
H10734 H 0.74772 0.36259 0.07889 0.0
C10735 C 0.7616 0.32579 0.09992 0.0
H10736 H 0.73012 0.34877 0.09614 0.0
C10737 C 0.77157 0.33364 0.09017 0.0
C10738 C 0.7665 0.34657 0.08196 0.0
H10739 H 0.76528 0.31494 0.10482 0.0
H10740 H 0.78284 0.32885 0.0881 0.0
C10741 C 0.75192 0.35271 0.0852 0.0
C10742 C 0.48368 0.42165 0.58702 0.0
C10743 C 0.48983 0.40922 0.57877 0.0
H10744 H 0.48815 0.44042 0.60228 0.0
C10745 C 0.50479 0.40421 0.58217 0.0
H10746 H 0.47208 0.42554 0.585 0.0
C10747 C 0.5139 0.41248 0.59266 0.0
C10748 C 0.50817 0.42596 0.59958 0.0
H10749 H 0.50979 0.39467 0.57592 0.0
H10750 H 0.52587 0.40934 0.59402 0.0
C10751 C 0.49278 0.43002 0.59721 0.0
loop_
_geom_bond_atom_site_label_1
_geom_bond_atom_site_label_2
_geom_bond_distance
_geom_bond_site_symmetry_2
_ccdc_geom_bond_type
Mn0 O5 2.095 . S
Mn0 O15 2.162 . S
Mn0 O16 2.297 . S
Mn0 O24 2.385 . S
Mn0 O25 2.209 . S
Mn0 O26 2.094 . S
Mn1 O6 2.121 . S
Mn1 N8 2.257 . S
Mn1 N17 2.282 . S
Mn1 O25 2.215 . S
Mn1 O27 2.117 . S
C2 O24 1.234 . S
C2 O25 1.283 . S
C3 O15 1.281 . S
C3 O16 1.236 . S
C4 O26 1.240 . S
C4 O27 1.264 . S
O5 Mn0 2.095 . S
O5 C14 1.250 . S
O6 Mn1 2.121 . S
O6 C14 1.258 . S
C7 N8 1.326 . S
C7 C11 1.460 . S
C7 H13 0.929 . S
N8 Mn1 2.257 . S
N8 C7 1.326 . S
N8 C12 1.362 . S
C9 C10 1.258 . S
C9 C12 1.431 . S
C9 C29 1.449 . S
C10 C9 1.258 . S
C10 C11 1.477 . S
C10 H30 0.931 . S
C11 C7 1.460 . S
C11 C10 1.477 . S
C11 H31 0.930 . S
C12 N8 1.362 . S
C12 C9 1.431 . S
C12 C22 1.476 . S
H13 C7 0.929 . S
C14 O5 1.250 . S
C14 O6 1.258 . S
O15 Mn0 2.162 . S
O15 C3 1.281 . S
O16 Mn0 2.297 . S
O16 C3 1.236 . S
N17 Mn1 2.282 . S
N17 C18 1.328 . S
N17 C22 1.318 . S
C18 N17 1.328 . S
C18 C19 1.457 . S
C18 H23 0.929 . S
C19 C18 1.457 . S
C19 C20 1.291 . S
C19 H32 0.931 . S
C20 C19 1.291 . S
C20 C21 1.373 . S
C20 H33 0.929 . S
C21 C20 1.373 . S
C21 C22 1.396 . S
C21 C28 1.403 . S
C22 C12 1.476 . S
C22 N17 1.318 . S
C22 C21 1.396 . S
H23 C18 0.929 . S
O24 Mn0 2.385 . S
O24 C2 1.234 . S
O25 Mn0 2.209 . S
O25 Mn1 2.215 . S
O25 C2 1.283 . S
O26 Mn0 2.094 . S
O26 C4 1.240 . S
O27 Mn1 2.117 . S
O27 C4 1.264 . S
C28 C21 1.403 . S
C28 C29 1.399 . S
C28 H34 0.929 . S
C29 C9 1.449 . S
C29 C28 1.399 . S
C29 H35 0.930 . S
H30 C10 0.931 . S
H31 C11 0.930 . S
H32 C19 0.931 . S
H33 C20 0.929 . S
H34 C28 0.929 . S
H35 C29 0.930 . S
Mn36 O41 2.095 . S
Mn36 O51 2.162 . S
Mn36 O52 2.297 . S
Mn36 O60 2.385 . S
Mn36 O61 2.209 . S
Mn36 O62 2.094 . S
Mn37 O42 2.121 . S
Mn37 N44 2.257 . S
Mn37 N53 2.282 . S
Mn37 O61 2.215 . S
Mn37 O63 2.117 . S
C38 O60 1.234 . S
C38 O61 1.283 . S
C39 O51 1.281 . S
C39 O52 1.236 . S
C40 O62 1.240 . S
C40 O63 1.264 . S
O41 Mn36 2.095 . S
O41 C50 1.250 . S
O42 Mn37 2.121 . S
O42 C50 1.258 . S
C43 N44 1.326 . S
C43 C47 1.460 . S
C43 H49 0.929 . S
N44 Mn37 2.257 . S
N44 C43 1.326 . S
N44 C48 1.362 . S
C45 C46 1.258 . S
C45 C48 1.431 . S
C45 C65 1.449 . S
C46 C45 1.258 . S
C46 C47 1.477 . S
C46 H66 0.931 . S
C47 C43 1.460 . S
C47 C46 1.477 . S
C47 H67 0.930 . S
C48 N44 1.362 . S
C48 C45 1.431 . S
C48 C58 1.476 . S
H49 C43 0.929 . S
C50 O41 1.250 . S
C50 O42 1.258 . S
O51 Mn36 2.162 . S
O51 C39 1.281 . S
O52 Mn36 2.297 . S
O52 C39 1.236 . S
N53 Mn37 2.282 . S
N53 C54 1.328 . S
N53 C58 1.318 . S
C54 N53 1.328 . S
C54 C55 1.457 . S
C54 H59 0.929 . S
C55 C54 1.457 . S
C55 C56 1.291 . S
C55 H68 0.931 . S
C56 C55 1.291 . S
C56 C57 1.373 . S
C56 H69 0.929 . S
C57 C56 1.373 . S
C57 C58 1.396 . S
C57 C64 1.403 . S
C58 C48 1.476 . S
C58 N53 1.318 . S
C58 C57 1.396 . S
H59 C54 0.929 . S
O60 Mn36 2.385 . S
O60 C38 1.234 . S
O61 Mn36 2.209 . S
O61 Mn37 2.215 . S
O61 C38 1.283 . S
O62 Mn36 2.094 . S
O62 C40 1.240 . S
O63 Mn37 2.117 . S
O63 C40 1.264 . S
C64 C57 1.403 . S
C64 C65 1.399 . S
C64 H70 0.929 . S
C65 C45 1.449 . S
C65 C64 1.399 . S
C65 H71 0.930 . S
H66 C46 0.931 . S
H67 C47 0.930 . S
H68 C55 0.931 . S
H69 C56 0.929 . S
H70 C64 0.929 . S
H71 C65 0.930 . S
Mn72 O77 2.095 . S
Mn72 O87 2.162 . S
Mn72 O88 2.297 . S
Mn72 O96 2.385 . S
Mn72 O97 2.209 . S
Mn72 O98 2.094 . S
Mn73 O78 2.121 . S
Mn73 N80 2.257 . S
Mn73 N89 2.282 . S
Mn73 O97 2.215 . S
Mn73 O99 2.117 . S
C74 O96 1.234 . S
C74 O97 1.283 . S
C75 O87 1.281 . S
C75 O88 1.236 . S
C76 O98 1.240 . S
C76 O99 1.264 . S
O77 Mn72 2.095 . S
O77 C86 1.250 . S
O78 Mn73 2.121 . S
O78 C86 1.258 . S
C79 N80 1.326 . S
C79 C83 1.460 1_556 S
C79 H85 0.929 . S
N80 Mn73 2.257 . S
N80 C79 1.326 . S
N80 C84 1.362 . S
C81 C82 1.258 1_556 S
C81 C84 1.431 . S
C81 C101 1.449 . S
C82 C81 1.258 1_554 S
C82 C83 1.477 . S
C82 H102 0.931 . S
C83 C79 1.460 1_554 S
C83 C82 1.477 . S
C83 H103 0.930 . S
C84 N80 1.362 . S
C84 C81 1.431 . S
C84 C94 1.476 . S
H85 C79 0.929 . S
C86 O77 1.250 . S
C86 O78 1.258 . S
O87 Mn72 2.162 . S
O87 C75 1.281 . S
O88 Mn72 2.297 . S
O88 C75 1.236 . S
N89 Mn73 2.282 . S
N89 C90 1.328 . S
N89 C94 1.318 . S
C90 N89 1.328 . S
C90 C91 1.457 . S
C90 H95 0.929 . S
C91 C90 1.457 . S
C91 C92 1.291 . S
C91 H104 0.931 . S
C92 C91 1.291 . S
C92 C93 1.373 . S
C92 H105 0.929 . S
C93 C92 1.373 . S
C93 C94 1.396 . S
C93 C100 1.403 . S
C94 C84 1.476 . S
C94 N89 1.318 . S
C94 C93 1.396 . S
H95 C90 0.929 . S
O96 Mn72 2.385 . S
O96 C74 1.234 . S
O97 Mn72 2.209 . S
O97 Mn73 2.215 . S
O97 C74 1.283 . S
O98 Mn72 2.094 . S
O98 C76 1.240 . S
O99 Mn73 2.117 . S
O99 C76 1.264 . S
C100 C93 1.403 . S
C100 C101 1.399 . S
C100 H106 0.929 . S
C101 C81 1.449 . S
C101 C100 1.399 . S
C101 H107 0.930 . S
H102 C82 0.931 . S
H103 C83 0.930 . S
H104 C91 0.931 . S
H105 C92 0.929 . S
H106 C100 0.929 . S
H107 C101 0.930 . S
Mn108 O113 2.095 . S
Mn108 O123 2.162 . S
Mn108 O124 2.297 . S
Mn108 O132 2.385 . S
Mn108 O133 2.209 . S
Mn108 O134 2.094 . S
Mn109 O114 2.121 . S
Mn109 N116 2.257 . S
Mn109 N125 2.282 . S
Mn109 O133 2.215 . S
Mn109 O135 2.117 . S
C110 O132 1.234 . S
C110 O133 1.283 . S
C111 O123 1.281 . S
C111 O124 1.236 . S
C112 O134 1.240 . S
C112 O135 1.264 . S
O113 Mn108 2.095 . S
O113 C122 1.250 . S
O114 Mn109 2.121 . S
O114 C122 1.258 . S
C115 N116 1.326 . S
C115 C119 1.460 . S
C115 H121 0.929 . S
N116 Mn109 2.257 . S
N116 C115 1.326 . S
N116 C120 1.362 . S
C117 C118 1.258 . S
C117 C120 1.431 . S
C117 C137 1.449 . S
C118 C117 1.258 . S
C118 C119 1.477 . S
C118 H138 0.931 . S
C119 C115 1.460 . S
C119 C118 1.477 . S
C119 H139 0.930 . S
C120 N116 1.362 . S
C120 C117 1.431 . S
C120 C130 1.476 . S
H121 C115 0.929 . S
C122 O113 1.250 . S
C122 O114 1.258 . S
O123 Mn108 2.162 . S
O123 C111 1.281 . S
O124 Mn108 2.297 . S
O124 C111 1.236 . S
N125 Mn109 2.282 . S
N125 C126 1.328 . S
N125 C130 1.318 . S
C126 N125 1.328 . S
C126 C127 1.457 . S
C126 H131 0.929 . S
C127 C126 1.457 . S
C127 C128 1.291 . S
C127 H140 0.931 . S
C128 C127 1.291 . S
C128 C129 1.373 . S
C128 H141 0.929 . S
C129 C128 1.373 . S
C129 C130 1.396 . S
C129 C136 1.403 . S
C130 C120 1.476 . S
C130 N125 1.318 . S
C130 C129 1.396 . S
H131 C126 0.929 . S
O132 Mn108 2.385 . S
O132 C110 1.234 . S
O133 Mn108 2.209 . S
O133 Mn109 2.215 . S
O133 C110 1.283 . S
O134 Mn108 2.094 . S
O134 C112 1.240 . S
O135 Mn109 2.117 . S
O135 C112 1.264 . S
C136 C129 1.403 . S
C136 C137 1.399 . S
C136 H142 0.929 . S
C137 C117 1.449 . S
C137 C136 1.399 . S
C137 H143 0.930 . S
H138 C118 0.931 . S
H139 C119 0.930 . S
H140 C127 0.931 . S
H141 C128 0.929 . S
H142 C136 0.929 . S
H143 C137 0.930 . S
Mn144 O149 2.095 . S
Mn144 O159 2.162 . S
Mn144 O160 2.297 . S
Mn144 O168 2.385 . S
Mn144 O169 2.209 . S
Mn144 O170 2.094 . S
Mn145 O150 2.121 . S
Mn145 N152 2.257 . S
Mn145 N161 2.282 . S
Mn145 O169 2.215 . S
Mn145 O171 2.117 . S
C146 O168 1.234 . S
C146 O169 1.283 . S
C147 O159 1.281 . S
C147 O160 1.236 . S
C148 O170 1.240 . S
C148 O171 1.264 . S
O149 Mn144 2.095 . S
O149 C158 1.250 . S
O150 Mn145 2.121 . S
O150 C158 1.258 . S
C151 N152 1.326 . S
C151 C155 1.460 . S
C151 H157 0.929 . S
N152 Mn145 2.257 . S
N152 C151 1.326 . S
N152 C156 1.362 . S
C153 C154 1.258 . S
C153 C156 1.431 . S
C153 C173 1.449 . S
C154 C153 1.258 . S
C154 C155 1.477 . S
C154 H174 0.931 . S
C155 C151 1.460 . S
C155 C154 1.477 . S
C155 H175 0.930 . S
C156 N152 1.362 . S
C156 C153 1.431 . S
C156 C166 1.476 . S
H157 C151 0.929 . S
C158 O149 1.250 . S
C158 O150 1.258 . S
O159 Mn144 2.162 . S
O159 C147 1.281 . S
O160 Mn144 2.297 . S
O160 C147 1.236 . S
N161 Mn145 2.282 . S
N161 C162 1.328 . S
N161 C166 1.318 . S
C162 N161 1.328 . S
C162 C163 1.457 . S
C162 H167 0.929 . S
C163 C162 1.457 . S
C163 C164 1.291 . S
C163 H176 0.931 . S
C164 C163 1.291 . S
C164 C165 1.373 . S
C164 H177 0.929 . S
C165 C164 1.373 . S
C165 C166 1.396 . S
C165 C172 1.403 . S
C166 C156 1.476 . S
C166 N161 1.318 . S
C166 C165 1.396 . S
H167 C162 0.929 . S
O168 Mn144 2.385 . S
O168 C146 1.234 . S
O169 Mn144 2.209 . S
O169 Mn145 2.215 . S
O169 C146 1.283 . S
O170 Mn144 2.094 . S
O170 C148 1.240 . S
O171 Mn145 2.117 . S
O171 C148 1.264 . S
C172 C165 1.403 . S
C172 C173 1.399 . S
C172 H178 0.929 . S
C173 C153 1.449 . S
C173 C172 1.399 . S
C173 H179 0.930 . S
H174 C154 0.931 . S
H175 C155 0.930 . S
H176 C163 0.931 . S
H177 C164 0.929 . S
H178 C172 0.929 . S
H179 C173 0.930 . S
Mn180 O185 2.095 . S
Mn180 O195 2.162 . S
Mn180 O196 2.297 . S
Mn180 O204 2.385 . S
Mn180 O205 2.209 . S
Mn180 O206 2.094 . S
Mn181 O186 2.121 . S
Mn181 N188 2.257 . S
Mn181 N197 2.282 . S
Mn181 O205 2.215 . S
Mn181 O207 2.117 . S
C182 O204 1.234 . S
C182 O205 1.283 . S
C183 O195 1.281 . S
C183 O196 1.236 . S
C184 O206 1.240 . S
C184 O207 1.264 . S
O185 Mn180 2.095 . S
O185 C194 1.250 . S
O186 Mn181 2.121 . S
O186 C194 1.258 . S
C187 N188 1.326 . S
C187 C191 1.460 1_554 S
C187 H193 0.929 . S
N188 Mn181 2.257 . S
N188 C187 1.326 . S
N188 C192 1.362 . S
C189 C190 1.258 1_554 S
C189 C192 1.431 . S
C189 C209 1.449 . S
C190 C189 1.258 1_556 S
C190 C191 1.477 . S
C190 H210 0.931 . S
C191 C187 1.460 1_556 S
C191 C190 1.477 . S
C191 H211 0.930 . S
C192 N188 1.362 . S
C192 C189 1.431 . S
C192 C202 1.476 . S
H193 C187 0.929 . S
C194 O185 1.250 . S
C194 O186 1.258 . S
O195 Mn180 2.162 . S
O195 C183 1.281 . S
O196 Mn180 2.297 . S
O196 C183 1.236 . S
N197 Mn181 2.282 . S
N197 C198 1.328 . S
N197 C202 1.318 . S
C198 N197 1.328 . S
C198 C199 1.457 . S
C198 H203 0.929 . S
C199 C198 1.457 . S
C199 C200 1.291 . S
C199 H212 0.931 . S
C200 C199 1.291 . S
C200 C201 1.373 . S
C200 H213 0.929 . S
C201 C200 1.373 . S
C201 C202 1.396 . S
C201 C208 1.403 . S
C202 C192 1.476 . S
C202 N197 1.318 . S
C202 C201 1.396 . S
H203 C198 0.929 . S
O204 Mn180 2.385 . S
O204 C182 1.234 . S
O205 Mn180 2.209 . S
O205 Mn181 2.215 . S
O205 C182 1.283 . S
O206 Mn180 2.094 . S
O206 C184 1.240 . S
O207 Mn181 2.117 . S
O207 C184 1.264 . S
C208 C201 1.403 . S
C208 C209 1.399 . S
C208 H214 0.929 . S
C209 C189 1.449 . S
C209 C208 1.399 . S
C209 H215 0.930 . S
H210 C190 0.931 . S
H211 C191 0.930 . S
H212 C199 0.931 . S
H213 C200 0.929 . S
H214 C208 0.929 . S
H215 C209 0.930 . S
Mn216 O221 2.095 . S
Mn216 O231 2.162 . S
Mn216 O232 2.297 . S
Mn216 O240 2.385 . S
Mn216 O241 2.209 . S
Mn216 O242 2.094 . S
Mn217 O222 2.121 . S
Mn217 N224 2.257 . S
Mn217 N233 2.282 . S
Mn217 O241 2.215 . S
Mn217 O243 2.117 . S
C218 O240 1.234 . S
C218 O241 1.283 . S
C219 O231 1.281 . S
C219 O232 1.236 . S
C220 O242 1.240 . S
C220 O243 1.264 . S
O221 Mn216 2.095 . S
O221 C230 1.250 . S
O222 Mn217 2.121 . S
O222 C230 1.258 . S
C223 N224 1.326 . S
C223 C227 1.460 . S
C223 H229 0.929 . S
N224 Mn217 2.257 . S
N224 C223 1.326 . S
N224 C228 1.362 . S
C225 C226 1.258 . S
C225 C228 1.431 . S
C225 C245 1.449 . S
C226 C225 1.258 . S
C226 C227 1.477 . S
C226 H246 0.931 . S
C227 C223 1.460 . S
C227 C226 1.477 . S
C227 H247 0.930 . S
C228 N224 1.362 . S
C228 C225 1.431 . S
C228 C238 1.476 . S
H229 C223 0.929 . S
C230 O221 1.250 . S
C230 O222 1.258 . S
O231 Mn216 2.162 . S
O231 C219 1.281 . S
O232 Mn216 2.297 . S
O232 C219 1.236 . S
N233 Mn217 2.282 . S
N233 C234 1.328 . S
N233 C238 1.318 . S
C234 N233 1.328 . S
C234 C235 1.457 . S
C234 H239 0.929 . S
C235 C234 1.457 . S
C235 C236 1.291 . S
C235 H248 0.931 . S
C236 C235 1.291 . S
C236 C237 1.373 . S
C236 H249 0.929 . S
C237 C236 1.373 . S
C237 C238 1.396 . S
C237 C244 1.403 . S
C238 C228 1.476 . S
C238 N233 1.318 . S
C238 C237 1.396 . S
H239 C234 0.929 . S
O240 Mn216 2.385 . S
O240 C218 1.234 . S
O241 Mn216 2.209 . S
O241 Mn217 2.215 . S
O241 C218 1.283 . S
O242 Mn216 2.094 . S
O242 C220 1.240 . S
O243 Mn217 2.117 . S
O243 C220 1.264 . S
C244 C237 1.403 . S
C244 C245 1.399 . S
C244 H250 0.929 . S
C245 C225 1.449 . S
C245 C244 1.399 . S
C245 H251 0.930 . S
H246 C226 0.931 . S
H247 C227 0.930 . S
H248 C235 0.931 . S
H249 C236 0.929 . S
H250 C244 0.929 . S
H251 C245 0.930 . S
Mn252 O257 2.095 . S
Mn252 O267 2.162 . S
Mn252 O268 2.297 . S
Mn252 O276 2.385 . S
Mn252 O277 2.209 . S
Mn252 O278 2.094 . S
Mn253 O258 2.121 . S
Mn253 N260 2.257 . S
Mn253 N269 2.282 . S
Mn253 O277 2.215 . S
Mn253 O279 2.117 . S
C254 O276 1.234 . S
C254 O277 1.283 . S
C255 O267 1.281 . S
C255 O268 1.236 . S
C256 O278 1.240 . S
C256 O279 1.264 . S
O257 Mn252 2.095 . S
O257 C266 1.250 . S
O258 Mn253 2.121 . S
O258 C266 1.258 . S
C259 N260 1.326 . S
C259 C263 1.460 . S
C259 H265 0.929 . S
N260 Mn253 2.257 . S
N260 C259 1.326 . S
N260 C264 1.362 . S
C261 C262 1.258 . S
C261 C264 1.431 . S
C261 C281 1.449 . S
C262 C261 1.258 . S
C262 C263 1.477 . S
C262 H282 0.931 . S
C263 C259 1.460 . S
C263 C262 1.477 . S
C263 H283 0.930 . S
C264 N260 1.362 . S
C264 C261 1.431 . S
C264 C274 1.476 . S
H265 C259 0.929 . S
C266 O257 1.250 . S
C266 O258 1.258 . S
O267 Mn252 2.162 . S
O267 C255 1.281 . S
O268 Mn252 2.297 . S
O268 C255 1.236 . S
N269 Mn253 2.282 . S
N269 C270 1.328 . S
N269 C274 1.318 . S
C270 N269 1.328 . S
C270 C271 1.457 . S
C270 H275 0.929 . S
C271 C270 1.457 . S
C271 C272 1.291 . S
C271 H284 0.931 . S
C272 C271 1.291 . S
C272 C273 1.373 . S
C272 H285 0.929 . S
C273 C272 1.373 . S
C273 C274 1.396 . S
C273 C280 1.403 . S
C274 C264 1.476 . S
C274 N269 1.318 . S
C274 C273 1.396 . S
H275 C270 0.929 . S
O276 Mn252 2.385 . S
O276 C254 1.234 . S
O277 Mn252 2.209 . S
O277 Mn253 2.215 . S
O277 C254 1.283 . S
O278 Mn252 2.094 . S
O278 C256 1.240 . S
O279 Mn253 2.117 . S
O279 C256 1.264 . S
C280 C273 1.403 . S
C280 C281 1.399 . S
C280 H286 0.929 . S
C281 C261 1.449 . S
C281 C280 1.399 . S
C281 H287 0.930 . S
H282 C262 0.931 . S
H283 C263 0.930 . S
H284 C271 0.931 . S
H285 C272 0.929 . S
H286 C280 0.929 . S
H287 C281 0.930 . S
Mn288 O293 2.095 . S
Mn288 O303 2.162 . S
Mn288 O304 2.297 . S
Mn288 O312 2.385 . S
Mn288 O313 2.209 . S
Mn288 O314 2.094 . S
Mn289 O294 2.121 . S
Mn289 N296 2.257 . S
Mn289 N305 2.282 . S
Mn289 O313 2.215 . S
Mn289 O315 2.117 . S
C290 O312 1.234 . S
C290 O313 1.283 . S
C291 O303 1.281 . S
C291 O304 1.236 . S
C292 O314 1.240 . S
C292 O315 1.264 . S
O293 Mn288 2.095 . S
O293 C302 1.250 . S
O294 Mn289 2.121 . S
O294 C302 1.258 . S
C295 N296 1.326 . S
C295 C299 1.460 . S
C295 H301 0.929 . S
N296 Mn289 2.257 . S
N296 C295 1.326 . S
N296 C300 1.362 . S
C297 C298 1.258 . S
C297 C300 1.431 . S
C297 C317 1.449 . S
C298 C297 1.258 . S
C298 C299 1.477 . S
C298 H318 0.931 . S
C299 C295 1.460 . S
C299 C298 1.477 . S
C299 H319 0.930 . S
C300 N296 1.362 . S
C300 C297 1.431 . S
C300 C310 1.476 . S
H301 C295 0.929 . S
C302 O293 1.250 . S
C302 O294 1.258 . S
O303 Mn288 2.162 . S
O303 C291 1.281 . S
O304 Mn288 2.297 . S
O304 C291 1.236 . S
N305 Mn289 2.282 . S
N305 C306 1.328 . S
N305 C310 1.318 . S
C306 N305 1.328 . S
C306 C307 1.457 . S
C306 H311 0.929 . S
C307 C306 1.457 . S
C307 C308 1.291 . S
C307 H320 0.931 . S
C308 C307 1.291 . S
C308 C309 1.373 . S
C308 H321 0.929 . S
C309 C308 1.373 . S
C309 C310 1.396 . S
C309 C316 1.403 . S
C310 C300 1.476 . S
C310 N305 1.318 . S
C310 C309 1.396 . S
H311 C306 0.929 . S
O312 Mn288 2.385 . S
O312 C290 1.234 . S
O313 Mn288 2.209 . S
O313 Mn289 2.215 . S
O313 C290 1.283 . S
O314 Mn288 2.094 . S
O314 C292 1.240 . S
O315 Mn289 2.117 . S
O315 C292 1.264 . S
C316 C309 1.403 . S
C316 C317 1.399 . S
C316 H322 0.929 . S
C317 C297 1.449 . S
C317 C316 1.399 . S
C317 H323 0.930 . S
H318 C298 0.931 . S
H319 C299 0.930 . S
H320 C307 0.931 . S
H321 C308 0.929 . S
H322 C316 0.929 . S
H323 C317 0.930 . S
Mn324 O329 2.095 . S
Mn324 O339 2.162 . S
Mn324 O340 2.297 . S
Mn324 O348 2.385 . S
Mn324 O349 2.209 . S
Mn324 O350 2.094 . S
Mn325 O330 2.121 . S
Mn325 N332 2.257 . S
Mn325 N341 2.282 . S
Mn325 O349 2.215 . S
Mn325 O351 2.117 . S
C326 O348 1.234 . S
C326 O349 1.283 . S
C327 O339 1.281 . S
C327 O340 1.236 . S
C328 O350 1.240 . S
C328 O351 1.264 . S
O329 Mn324 2.095 . S
O329 C338 1.250 . S
O330 Mn325 2.121 . S
O330 C338 1.258 . S
C331 N332 1.326 . S
C331 C335 1.460 . S
C331 H337 0.929 . S
N332 Mn325 2.257 . S
N332 C331 1.326 . S
N332 C336 1.362 . S
C333 C334 1.258 . S
C333 C336 1.431 . S
C333 C353 1.449 . S
C334 C333 1.258 . S
C334 C335 1.477 . S
C334 H354 0.931 . S
C335 C331 1.460 . S
C335 C334 1.477 . S
C335 H355 0.930 . S
C336 N332 1.362 . S
C336 C333 1.431 . S
C336 C346 1.476 . S
H337 C331 0.929 . S
C338 O329 1.250 . S
C338 O330 1.258 . S
O339 Mn324 2.162 . S
O339 C327 1.281 . S
O340 Mn324 2.297 . S
O340 C327 1.236 . S
N341 Mn325 2.282 . S
N341 C342 1.328 . S
N341 C346 1.318 . S
C342 N341 1.328 . S
C342 C343 1.457 . S
C342 H347 0.929 . S
C343 C342 1.457 . S
C343 C344 1.291 . S
C343 H356 0.931 . S
C344 C343 1.291 . S
C344 C345 1.373 . S
C344 H357 0.929 . S
C345 C344 1.373 . S
C345 C346 1.396 . S
C345 C352 1.403 . S
C346 C336 1.476 . S
C346 N341 1.318 . S
C346 C345 1.396 . S
H347 C342 0.929 . S
O348 Mn324 2.385 . S
O348 C326 1.234 . S
O349 Mn324 2.209 . S
O349 Mn325 2.215 . S
O349 C326 1.283 . S
O350 Mn324 2.094 . S
O350 C328 1.240 . S
O351 Mn325 2.117 . S
O351 C328 1.264 . S
C352 C345 1.403 . S
C352 C353 1.399 . S
C352 H358 0.929 . S
C353 C333 1.449 . S
C353 C352 1.399 . S
C353 H359 0.930 . S
H354 C334 0.931 . S
H355 C335 0.930 . S
H356 C343 0.931 . S
H357 C344 0.929 . S
H358 C352 0.929 . S
H359 C353 0.930 . S
Mn360 O365 2.095 . S
Mn360 O375 2.162 . S
Mn360 O376 2.297 . S
Mn360 O384 2.385 . S
Mn360 O385 2.209 . S
Mn360 O386 2.094 . S
Mn361 O366 2.121 . S
Mn361 N368 2.257 . S
Mn361 N377 2.282 . S
Mn361 O385 2.215 . S
Mn361 O387 2.117 . S
C362 O384 1.234 . S
C362 O385 1.283 . S
C363 O375 1.281 . S
C363 O376 1.236 . S
C364 O386 1.240 . S
C364 O387 1.264 . S
O365 Mn360 2.095 . S
O365 C374 1.250 . S
O366 Mn361 2.121 . S
O366 C374 1.258 . S
C367 N368 1.326 . S
C367 C371 1.460 . S
C367 H373 0.929 . S
N368 Mn361 2.257 . S
N368 C367 1.326 . S
N368 C372 1.362 . S
C369 C370 1.258 . S
C369 C372 1.431 . S
C369 C389 1.449 . S
C370 C369 1.258 . S
C370 C371 1.477 . S
C370 H390 0.931 . S
C371 C367 1.460 . S
C371 C370 1.477 . S
C371 H391 0.930 . S
C372 N368 1.362 . S
C372 C369 1.431 . S
C372 C382 1.476 . S
H373 C367 0.929 . S
C374 O365 1.250 . S
C374 O366 1.258 . S
O375 Mn360 2.162 . S
O375 C363 1.281 . S
O376 Mn360 2.297 . S
O376 C363 1.236 . S
N377 Mn361 2.282 . S
N377 C378 1.328 . S
N377 C382 1.318 . S
C378 N377 1.328 . S
C378 C379 1.457 . S
C378 H383 0.929 . S
C379 C378 1.457 . S
C379 C380 1.291 . S
C379 H392 0.931 . S
C380 C379 1.291 . S
C380 C381 1.373 . S
C380 H393 0.929 . S
C381 C380 1.373 . S
C381 C382 1.396 . S
C381 C388 1.403 . S
C382 C372 1.476 . S
C382 N377 1.318 . S
C382 C381 1.396 . S
H383 C378 0.929 . S
O384 Mn360 2.385 . S
O384 C362 1.234 . S
O385 Mn360 2.209 . S
O385 Mn361 2.215 . S
O385 C362 1.283 . S
O386 Mn360 2.094 . S
O386 C364 1.240 . S
O387 Mn361 2.117 . S
O387 C364 1.264 . S
C388 C381 1.403 . S
C388 C389 1.399 . S
C388 H394 0.929 . S
C389 C369 1.449 . S
C389 C388 1.399 . S
C389 H395 0.930 . S
H390 C370 0.931 . S
H391 C371 0.930 . S
H392 C379 0.931 . S
H393 C380 0.929 . S
H394 C388 0.929 . S
H395 C389 0.930 . S
Mn396 O401 2.095 . S
Mn396 O411 2.162 . S
Mn396 O412 2.297 . S
Mn396 O420 2.385 . S
Mn396 O421 2.209 . S
Mn396 O422 2.094 . S
Mn397 O402 2.121 . S
Mn397 N404 2.257 . S
Mn397 N413 2.282 . S
Mn397 O421 2.215 . S
Mn397 O423 2.117 . S
C398 O420 1.234 . S
C398 O421 1.283 . S
C399 O411 1.281 . S
C399 O412 1.236 . S
C400 O422 1.240 . S
C400 O423 1.264 . S
O401 Mn396 2.095 . S
O401 C410 1.250 . S
O402 Mn397 2.121 . S
O402 C410 1.258 . S
C403 N404 1.326 . S
C403 C407 1.460 . S
C403 H409 0.929 . S
N404 Mn397 2.257 . S
N404 C403 1.326 . S
N404 C408 1.362 . S
C405 C406 1.258 . S
C405 C408 1.431 . S
C405 C425 1.449 . S
C406 C405 1.258 . S
C406 C407 1.477 . S
C406 H426 0.931 . S
C407 C403 1.460 . S
C407 C406 1.477 . S
C407 H427 0.930 . S
C408 N404 1.362 . S
C408 C405 1.431 . S
C408 C418 1.476 . S
H409 C403 0.929 . S
C410 O401 1.250 . S
C410 O402 1.258 . S
O411 Mn396 2.162 . S
O411 C399 1.281 . S
O412 Mn396 2.297 . S
O412 C399 1.236 . S
N413 Mn397 2.282 . S
N413 C414 1.328 . S
N413 C418 1.318 . S
C414 N413 1.328 . S
C414 C415 1.457 . S
C414 H419 0.929 . S
C415 C414 1.457 . S
C415 C416 1.291 . S
C415 H428 0.931 . S
C416 C415 1.291 . S
C416 C417 1.373 . S
C416 H429 0.929 . S
C417 C416 1.373 . S
C417 C418 1.396 . S
C417 C424 1.403 . S
C418 C408 1.476 . S
C418 N413 1.318 . S
C418 C417 1.396 . S
H419 C414 0.929 . S
O420 Mn396 2.385 . S
O420 C398 1.234 . S
O421 Mn396 2.209 . S
O421 Mn397 2.215 . S
O421 C398 1.283 . S
O422 Mn396 2.094 . S
O422 C400 1.240 . S
O423 Mn397 2.117 . S
O423 C400 1.264 . S
C424 C417 1.403 . S
C424 C425 1.399 . S
C424 H430 0.929 . S
C425 C405 1.449 . S
C425 C424 1.399 . S
C425 H431 0.930 . S
H426 C406 0.931 . S
H427 C407 0.930 . S
H428 C415 0.931 . S
H429 C416 0.929 . S
H430 C424 0.929 . S
H431 C425 0.930 . S
Mn432 O437 2.095 . S
Mn432 O447 2.162 . S
Mn432 O448 2.297 . S
Mn432 O456 2.385 . S
Mn432 O457 2.209 . S
Mn432 O458 2.094 . S
Mn433 O438 2.121 . S
Mn433 N440 2.257 . S
Mn433 N449 2.282 . S
Mn433 O457 2.215 . S
Mn433 O459 2.117 . S
C434 O456 1.234 . S
C434 O457 1.283 . S
C435 O447 1.281 . S
C435 O448 1.236 . S
C436 O458 1.240 . S
C436 O459 1.264 . S
O437 Mn432 2.095 . S
O437 C446 1.250 . S
O438 Mn433 2.121 . S
O438 C446 1.258 . S
C439 N440 1.326 . S
C439 C443 1.460 . S
C439 H445 0.929 . S
N440 Mn433 2.257 . S
N440 C439 1.326 . S
N440 C444 1.362 . S
C441 C442 1.258 . S
C441 C444 1.431 . S
C441 C461 1.449 . S
C442 C441 1.258 . S
C442 C443 1.477 . S
C442 H462 0.931 . S
C443 C439 1.460 . S
C443 C442 1.477 . S
C443 H463 0.930 . S
C444 N440 1.362 . S
C444 C441 1.431 . S
C444 C454 1.476 . S
H445 C439 0.929 . S
C446 O437 1.250 . S
C446 O438 1.258 . S
O447 Mn432 2.162 . S
O447 C435 1.281 . S
O448 Mn432 2.297 . S
O448 C435 1.236 . S
N449 Mn433 2.282 . S
N449 C450 1.328 . S
N449 C454 1.318 . S
C450 N449 1.328 . S
C450 C451 1.457 . S
C450 H455 0.929 . S
C451 C450 1.457 . S
C451 C452 1.291 . S
C451 H464 0.931 . S
C452 C451 1.291 . S
C452 C453 1.373 . S
C452 H465 0.929 . S
C453 C452 1.373 . S
C453 C454 1.396 . S
C453 C460 1.403 . S
C454 C444 1.476 . S
C454 N449 1.318 . S
C454 C453 1.396 . S
H455 C450 0.929 . S
O456 Mn432 2.385 . S
O456 C434 1.234 . S
O457 Mn432 2.209 . S
O457 Mn433 2.215 . S
O457 C434 1.283 . S
O458 Mn432 2.094 . S
O458 C436 1.240 . S
O459 Mn433 2.117 . S
O459 C436 1.264 . S
C460 C453 1.403 . S
C460 C461 1.399 . S
C460 H466 0.929 . S
C461 C441 1.449 . S
C461 C460 1.399 . S
C461 H467 0.930 . S
H462 C442 0.931 . S
H463 C443 0.930 . S
H464 C451 0.931 . S
H465 C452 0.929 . S
H466 C460 0.929 . S
H467 C461 0.930 . S
Mn468 O473 2.095 . S
Mn468 O483 2.162 . S
Mn468 O484 2.297 . S
Mn468 O492 2.385 . S
Mn468 O493 2.209 . S
Mn468 O494 2.094 . S
Mn469 O474 2.121 . S
Mn469 N476 2.257 . S
Mn469 N485 2.282 . S
Mn469 O493 2.215 . S
Mn469 O495 2.117 . S
C470 O492 1.234 . S
C470 O493 1.283 . S
C471 O483 1.281 . S
C471 O484 1.236 . S
C472 O494 1.240 . S
C472 O495 1.264 . S
O473 Mn468 2.095 . S
O473 C482 1.250 . S
O474 Mn469 2.121 . S
O474 C482 1.258 . S
C475 N476 1.326 . S
C475 C479 1.460 . S
C475 H481 0.929 . S
N476 Mn469 2.257 . S
N476 C475 1.326 . S
N476 C480 1.362 . S
C477 C478 1.258 . S
C477 C480 1.431 . S
C477 C497 1.449 . S
C478 C477 1.258 . S
C478 C479 1.477 . S
C478 H498 0.931 . S
C479 C475 1.460 . S
C479 C478 1.477 . S
C479 H499 0.930 . S
C480 N476 1.362 . S
C480 C477 1.431 . S
C480 C490 1.476 . S
H481 C475 0.929 . S
C482 O473 1.250 . S
C482 O474 1.258 . S
O483 Mn468 2.162 . S
O483 C471 1.281 . S
O484 Mn468 2.297 . S
O484 C471 1.236 . S
N485 Mn469 2.282 . S
N485 C486 1.328 . S
N485 C490 1.318 . S
C486 N485 1.328 . S
C486 C487 1.457 . S
C486 H491 0.929 . S
C487 C486 1.457 . S
C487 C488 1.291 . S
C487 H500 0.931 . S
C488 C487 1.291 . S
C488 C489 1.373 . S
C488 H501 0.929 . S
C489 C488 1.373 . S
C489 C490 1.396 . S
C489 C496 1.403 . S
C490 C480 1.476 . S
C490 N485 1.318 . S
C490 C489 1.396 . S
H491 C486 0.929 . S
O492 Mn468 2.385 . S
O492 C470 1.234 . S
O493 Mn468 2.209 . S
O493 Mn469 2.215 . S
O493 C470 1.283 . S
O494 Mn468 2.094 . S
O494 C472 1.240 . S
O495 Mn469 2.117 . S
O495 C472 1.264 . S
C496 C489 1.403 . S
C496 C497 1.399 . S
C496 H502 0.929 . S
C497 C477 1.449 . S
C497 C496 1.399 . S
C497 H503 0.930 . S
H498 C478 0.931 . S
H499 C479 0.930 . S
H500 C487 0.931 . S
H501 C488 0.929 . S
H502 C496 0.929 . S
H503 C497 0.930 . S
Mn504 O509 2.095 . S
Mn504 O519 2.162 . S
Mn504 O520 2.297 . S
Mn504 O528 2.385 . S
Mn504 O529 2.209 . S
Mn504 O530 2.094 . S
Mn505 O510 2.121 . S
Mn505 N512 2.257 . S
Mn505 N521 2.282 . S
Mn505 O529 2.215 . S
Mn505 O531 2.117 . S
C506 O528 1.234 . S
C506 O529 1.283 . S
C507 O519 1.281 . S
C507 O520 1.236 . S
C508 O530 1.240 . S
C508 O531 1.264 . S
O509 Mn504 2.095 . S
O509 C518 1.250 . S
O510 Mn505 2.121 . S
O510 C518 1.258 . S
C511 N512 1.326 . S
C511 C515 1.460 . S
C511 H517 0.929 . S
N512 Mn505 2.257 . S
N512 C511 1.326 . S
N512 C516 1.362 . S
C513 C514 1.258 . S
C513 C516 1.431 . S
C513 C533 1.449 . S
C514 C513 1.258 . S
C514 C515 1.477 . S
C514 H534 0.931 . S
C515 C511 1.460 . S
C515 C514 1.477 . S
C515 H535 0.930 . S
C516 N512 1.362 . S
C516 C513 1.431 . S
C516 C526 1.476 . S
H517 C511 0.929 . S
C518 O509 1.250 . S
C518 O510 1.258 . S
O519 Mn504 2.162 . S
O519 C507 1.281 . S
O520 Mn504 2.297 . S
O520 C507 1.236 . S
N521 Mn505 2.282 . S
N521 C522 1.328 . S
N521 C526 1.318 . S
C522 N521 1.328 . S
C522 C523 1.457 . S
C522 H527 0.929 . S
C523 C522 1.457 . S
C523 C524 1.291 . S
C523 H536 0.931 . S
C524 C523 1.291 . S
C524 C525 1.373 . S
C524 H537 0.929 . S
C525 C524 1.373 . S
C525 C526 1.396 . S
C525 C532 1.403 . S
C526 C516 1.476 . S
C526 N521 1.318 . S
C526 C525 1.396 . S
H527 C522 0.929 . S
O528 Mn504 2.385 . S
O528 C506 1.234 . S
O529 Mn504 2.209 . S
O529 Mn505 2.215 . S
O529 C506 1.283 . S
O530 Mn504 2.094 . S
O530 C508 1.240 . S
O531 Mn505 2.117 . S
O531 C508 1.264 . S
C532 C525 1.403 . S
C532 C533 1.399 . S
C532 H538 0.929 . S
C533 C513 1.449 . S
C533 C532 1.399 . S
C533 H539 0.930 . S
H534 C514 0.931 . S
H535 C515 0.930 . S
H536 C523 0.931 . S
H537 C524 0.929 . S
H538 C532 0.929 . S
H539 C533 0.930 . S
Mn540 O545 2.095 . S
Mn540 O555 2.162 . S
Mn540 O556 2.297 . S
Mn540 O564 2.385 . S
Mn540 O565 2.209 . S
Mn540 O566 2.094 . S
Mn541 O546 2.121 . S
Mn541 N548 2.257 . S
Mn541 N557 2.282 . S
Mn541 O565 2.215 . S
Mn541 O567 2.117 . S
C542 O564 1.234 . S
C542 O565 1.283 . S
C543 O555 1.281 . S
C543 O556 1.236 . S
C544 O566 1.240 . S
C544 O567 1.264 . S
O545 Mn540 2.095 . S
O545 C554 1.250 . S
O546 Mn541 2.121 . S
O546 C554 1.258 . S
C547 N548 1.326 . S
C547 C551 1.460 . S
C547 H553 0.929 . S
N548 Mn541 2.257 . S
N548 C547 1.326 . S
N548 C552 1.362 . S
C549 C550 1.258 . S
C549 C552 1.431 . S
C549 C569 1.449 . S
C550 C549 1.258 . S
C550 C551 1.477 . S
C550 H570 0.931 . S
C551 C547 1.460 . S
C551 C550 1.477 . S
C551 H571 0.930 . S
C552 N548 1.362 . S
C552 C549 1.431 . S
C552 C562 1.476 . S
H553 C547 0.929 . S
C554 O545 1.250 . S
C554 O546 1.258 . S
O555 Mn540 2.162 . S
O555 C543 1.281 . S
O556 Mn540 2.297 . S
O556 C543 1.236 . S
N557 Mn541 2.282 . S
N557 C558 1.328 . S
N557 C562 1.318 . S
C558 N557 1.328 . S
C558 C559 1.457 . S
C558 H563 0.929 . S
C559 C558 1.457 . S
C559 C560 1.291 . S
C559 H572 0.931 . S
C560 C559 1.291 . S
C560 C561 1.373 . S
C560 H573 0.929 . S
C561 C560 1.373 . S
C561 C562 1.396 . S
C561 C568 1.403 . S
C562 C552 1.476 . S
C562 N557 1.318 . S
C562 C561 1.396 . S
H563 C558 0.929 . S
O564 Mn540 2.385 . S
O564 C542 1.234 . S
O565 Mn540 2.209 . S
O565 Mn541 2.215 . S
O565 C542 1.283 . S
O566 Mn540 2.094 . S
O566 C544 1.240 . S
O567 Mn541 2.117 . S
O567 C544 1.264 . S
C568 C561 1.403 . S
C568 C569 1.399 . S
C568 H574 0.929 . S
C569 C549 1.449 . S
C569 C568 1.399 . S
C569 H575 0.930 . S
H570 C550 0.931 . S
H571 C551 0.930 . S
H572 C559 0.931 . S
H573 C560 0.929 . S
H574 C568 0.929 . S
H575 C569 0.930 . S
Mn576 O581 2.095 . S
Mn576 O591 2.162 . S
Mn576 O592 2.297 . S
Mn576 O600 2.385 . S
Mn576 O601 2.209 . S
Mn576 O602 2.094 . S
Mn577 O582 2.121 . S
Mn577 N584 2.257 . S
Mn577 N593 2.282 . S
Mn577 O601 2.215 . S
Mn577 O603 2.117 . S
C578 O600 1.234 . S
C578 O601 1.283 . S
C579 O591 1.281 . S
C579 O592 1.236 . S
C580 O602 1.240 . S
C580 O603 1.264 . S
O581 Mn576 2.095 . S
O581 C590 1.250 . S
O582 Mn577 2.121 . S
O582 C590 1.258 . S
C583 N584 1.326 . S
C583 C587 1.460 . S
C583 H589 0.929 . S
N584 Mn577 2.257 . S
N584 C583 1.326 . S
N584 C588 1.362 . S
C585 C586 1.258 . S
C585 C588 1.431 . S
C585 C605 1.449 . S
C586 C585 1.258 . S
C586 C587 1.477 . S
C586 H606 0.931 . S
C587 C583 1.460 . S
C587 C586 1.477 . S
C587 H607 0.930 . S
C588 N584 1.362 . S
C588 C585 1.431 . S
C588 C598 1.476 . S
H589 C583 0.929 . S
C590 O581 1.250 . S
C590 O582 1.258 . S
O591 Mn576 2.162 . S
O591 C579 1.281 . S
O592 Mn576 2.297 . S
O592 C579 1.236 . S
N593 Mn577 2.282 . S
N593 C594 1.328 . S
N593 C598 1.318 . S
C594 N593 1.328 . S
C594 C595 1.457 . S
C594 H599 0.929 . S
C595 C594 1.457 . S
C595 C596 1.291 . S
C595 H608 0.931 . S
C596 C595 1.291 . S
C596 C597 1.373 . S
C596 H609 0.929 . S
C597 C596 1.373 . S
C597 C598 1.396 . S
C597 C604 1.403 . S
C598 C588 1.476 . S
C598 N593 1.318 . S
C598 C597 1.396 . S
H599 C594 0.929 . S
O600 Mn576 2.385 . S
O600 C578 1.234 . S
O601 Mn576 2.209 . S
O601 Mn577 2.215 . S
O601 C578 1.283 . S
O602 Mn576 2.094 . S
O602 C580 1.240 . S
O603 Mn577 2.117 . S
O603 C580 1.264 . S
C604 C597 1.403 . S
C604 C605 1.399 . S
C604 H610 0.929 . S
C605 C585 1.449 . S
C605 C604 1.399 . S
C605 H611 0.930 . S
H606 C586 0.931 . S
H607 C587 0.930 . S
H608 C595 0.931 . S
H609 C596 0.929 . S
H610 C604 0.929 . S
H611 C605 0.930 . S
Mn612 O617 2.095 . S
Mn612 O627 2.162 . S
Mn612 O628 2.297 . S
Mn612 O636 2.385 . S
Mn612 O637 2.209 . S
Mn612 O638 2.094 . S
Mn613 O618 2.121 . S
Mn613 N620 2.257 . S
Mn613 N629 2.282 . S
Mn613 O637 2.215 . S
Mn613 O639 2.117 . S
C614 O636 1.234 . S
C614 O637 1.283 . S
C615 O627 1.281 . S
C615 O628 1.236 . S
C616 O638 1.240 . S
C616 O639 1.264 . S
O617 Mn612 2.095 . S
O617 C626 1.250 . S
O618 Mn613 2.121 . S
O618 C626 1.258 . S
C619 N620 1.326 . S
C619 C623 1.460 . S
C619 H625 0.929 . S
N620 Mn613 2.257 . S
N620 C619 1.326 . S
N620 C624 1.362 . S
C621 C622 1.258 . S
C621 C624 1.431 . S
C621 C641 1.449 . S
C622 C621 1.258 . S
C622 C623 1.477 . S
C622 H642 0.931 . S
C623 C619 1.460 . S
C623 C622 1.477 . S
C623 H643 0.930 . S
C624 N620 1.362 . S
C624 C621 1.431 . S
C624 C634 1.476 . S
H625 C619 0.929 . S
C626 O617 1.250 . S
C626 O618 1.258 . S
O627 Mn612 2.162 . S
O627 C615 1.281 . S
O628 Mn612 2.297 . S
O628 C615 1.236 . S
N629 Mn613 2.282 . S
N629 C630 1.328 . S
N629 C634 1.318 . S
C630 N629 1.328 . S
C630 C631 1.457 . S
C630 H635 0.929 . S
C631 C630 1.457 . S
C631 C632 1.291 . S
C631 H644 0.931 . S
C632 C631 1.291 . S
C632 C633 1.373 . S
C632 H645 0.929 . S
C633 C632 1.373 . S
C633 C634 1.396 . S
C633 C640 1.403 . S
C634 C624 1.476 . S
C634 N629 1.318 . S
C634 C633 1.396 . S
H635 C630 0.929 . S
O636 Mn612 2.385 . S
O636 C614 1.234 . S
O637 Mn612 2.209 . S
O637 Mn613 2.215 . S
O637 C614 1.283 . S
O638 Mn612 2.094 . S
O638 C616 1.240 . S
O639 Mn613 2.117 . S
O639 C616 1.264 . S
C640 C633 1.403 . S
C640 C641 1.399 . S
C640 H646 0.929 . S
C641 C621 1.449 . S
C641 C640 1.399 . S
C641 H647 0.930 . S
H642 C622 0.931 . S
H643 C623 0.930 . S
H644 C631 0.931 . S
H645 C632 0.929 . S
H646 C640 0.929 . S
H647 C641 0.930 . S
Mn648 O653 2.095 . S
Mn648 O663 2.162 . S
Mn648 O664 2.297 . S
Mn648 O672 2.385 . S
Mn648 O673 2.209 . S
Mn648 O674 2.094 . S
Mn649 O654 2.121 . S
Mn649 N656 2.257 . S
Mn649 N665 2.282 . S
Mn649 O673 2.215 . S
Mn649 O675 2.117 . S
C650 O672 1.234 . S
C650 O673 1.283 . S
C651 O663 1.281 . S
C651 O664 1.236 . S
C652 O674 1.240 . S
C652 O675 1.264 . S
O653 Mn648 2.095 . S
O653 C662 1.250 . S
O654 Mn649 2.121 . S
O654 C662 1.258 . S
C655 N656 1.326 . S
C655 C659 1.460 . S
C655 H661 0.929 . S
N656 Mn649 2.257 . S
N656 C655 1.326 . S
N656 C660 1.362 . S
C657 C658 1.258 . S
C657 C660 1.431 . S
C657 C677 1.449 . S
C658 C657 1.258 . S
C658 C659 1.477 . S
C658 H678 0.931 . S
C659 C655 1.460 . S
C659 C658 1.477 . S
C659 H679 0.930 . S
C660 N656 1.362 . S
C660 C657 1.431 . S
C660 C670 1.476 . S
H661 C655 0.929 . S
C662 O653 1.250 . S
C662 O654 1.258 . S
O663 Mn648 2.162 . S
O663 C651 1.281 . S
O664 Mn648 2.297 . S
O664 C651 1.236 . S
N665 Mn649 2.282 . S
N665 C666 1.328 . S
N665 C670 1.318 . S
C666 N665 1.328 . S
C666 C667 1.457 . S
C666 H671 0.929 . S
C667 C666 1.457 . S
C667 C668 1.291 . S
C667 H680 0.931 . S
C668 C667 1.291 . S
C668 C669 1.373 . S
C668 H681 0.929 . S
C669 C668 1.373 . S
C669 C670 1.396 . S
C669 C676 1.403 . S
C670 C660 1.476 . S
C670 N665 1.318 . S
C670 C669 1.396 . S
H671 C666 0.929 . S
O672 Mn648 2.385 . S
O672 C650 1.234 . S
O673 Mn648 2.209 . S
O673 Mn649 2.215 . S
O673 C650 1.283 . S
O674 Mn648 2.094 . S
O674 C652 1.240 . S
O675 Mn649 2.117 . S
O675 C652 1.264 . S
C676 C669 1.403 . S
C676 C677 1.399 . S
C676 H682 0.929 . S
C677 C657 1.449 . S
C677 C676 1.399 . S
C677 H683 0.930 . S
H678 C658 0.931 . S
H679 C659 0.930 . S
H680 C667 0.931 . S
H681 C668 0.929 . S
H682 C676 0.929 . S
H683 C677 0.930 . S
Mn684 O689 2.095 . S
Mn684 O699 2.162 . S
Mn684 O700 2.297 . S
Mn684 O708 2.385 . S
Mn684 O709 2.209 . S
Mn684 O710 2.094 . S
Mn685 O690 2.121 . S
Mn685 N692 2.257 . S
Mn685 N701 2.282 . S
Mn685 O709 2.215 . S
Mn685 O711 2.117 . S
C686 O708 1.234 . S
C686 O709 1.283 . S
C687 O699 1.281 . S
C687 O700 1.236 . S
C688 O710 1.240 . S
C688 O711 1.264 . S
O689 Mn684 2.095 . S
O689 C698 1.250 . S
O690 Mn685 2.121 . S
O690 C698 1.258 . S
C691 N692 1.326 . S
C691 C695 1.460 1_565 S
C691 H697 0.929 . S
N692 Mn685 2.257 . S
N692 C691 1.326 . S
N692 C696 1.362 . S
C693 C694 1.258 1_565 S
C693 C696 1.431 . S
C693 C713 1.449 . S
C694 C693 1.258 1_545 S
C694 C695 1.477 . S
C694 H714 0.931 . S
C695 C691 1.460 1_545 S
C695 C694 1.477 . S
C695 H715 0.930 . S
C696 N692 1.362 . S
C696 C693 1.431 . S
C696 C706 1.476 . S
H697 C691 0.929 . S
C698 O689 1.250 . S
C698 O690 1.258 . S
O699 Mn684 2.162 . S
O699 C687 1.281 . S
O700 Mn684 2.297 . S
O700 C687 1.236 . S
N701 Mn685 2.282 . S
N701 C702 1.328 . S
N701 C706 1.318 . S
C702 N701 1.328 . S
C702 C703 1.457 . S
C702 H707 0.929 . S
C703 C702 1.457 . S
C703 C704 1.291 . S
C703 H716 0.931 . S
C704 C703 1.291 . S
C704 C705 1.373 . S
C704 H717 0.929 . S
C705 C704 1.373 . S
C705 C706 1.396 . S
C705 C712 1.403 . S
C706 C696 1.476 . S
C706 N701 1.318 . S
C706 C705 1.396 . S
H707 C702 0.929 . S
O708 Mn684 2.385 . S
O708 C686 1.234 . S
O709 Mn684 2.209 . S
O709 Mn685 2.215 . S
O709 C686 1.283 . S
O710 Mn684 2.094 . S
O710 C688 1.240 . S
O711 Mn685 2.117 . S
O711 C688 1.264 . S
C712 C705 1.403 . S
C712 C713 1.399 . S
C712 H718 0.929 . S
C713 C693 1.449 . S
C713 C712 1.399 . S
C713 H719 0.930 . S
H714 C694 0.931 . S
H715 C695 0.930 . S
H716 C703 0.931 . S
H717 C704 0.929 . S
H718 C712 0.929 . S
H719 C713 0.930 . S
Mn720 O725 2.095 . S
Mn720 O735 2.162 . S
Mn720 O736 2.297 . S
Mn720 O744 2.385 . S
Mn720 O745 2.209 . S
Mn720 O746 2.094 . S
Mn721 O726 2.121 . S
Mn721 N728 2.257 . S
Mn721 N737 2.282 . S
Mn721 O745 2.215 . S
Mn721 O747 2.117 . S
C722 O744 1.234 . S
C722 O745 1.283 . S
C723 O735 1.281 . S
C723 O736 1.236 . S
C724 O746 1.240 . S
C724 O747 1.264 . S
O725 Mn720 2.095 . S
O725 C734 1.250 . S
O726 Mn721 2.121 . S
O726 C734 1.258 . S
C727 N728 1.326 . S
C727 C731 1.460 . S
C727 H733 0.929 . S
N728 Mn721 2.257 . S
N728 C727 1.326 . S
N728 C732 1.362 . S
C729 C730 1.258 . S
C729 C732 1.431 . S
C729 C749 1.449 . S
C730 C729 1.258 . S
C730 C731 1.477 . S
C730 H750 0.931 . S
C731 C727 1.460 . S
C731 C730 1.477 . S
C731 H751 0.930 . S
C732 N728 1.362 . S
C732 C729 1.431 . S
C732 C742 1.476 . S
H733 C727 0.929 . S
C734 O725 1.250 . S
C734 O726 1.258 . S
O735 Mn720 2.162 . S
O735 C723 1.281 . S
O736 Mn720 2.297 . S
O736 C723 1.236 . S
N737 Mn721 2.282 . S
N737 C738 1.328 . S
N737 C742 1.318 . S
C738 N737 1.328 . S
C738 C739 1.457 . S
C738 H743 0.929 . S
C739 C738 1.457 . S
C739 C740 1.291 . S
C739 H752 0.931 . S
C740 C739 1.291 . S
C740 C741 1.373 . S
C740 H753 0.929 . S
C741 C740 1.373 . S
C741 C742 1.396 . S
C741 C748 1.403 . S
C742 C732 1.476 . S
C742 N737 1.318 . S
C742 C741 1.396 . S
H743 C738 0.929 . S
O744 Mn720 2.385 . S
O744 C722 1.234 . S
O745 Mn720 2.209 . S
O745 Mn721 2.215 . S
O745 C722 1.283 . S
O746 Mn720 2.094 . S
O746 C724 1.240 . S
O747 Mn721 2.117 . S
O747 C724 1.264 . S
C748 C741 1.403 . S
C748 C749 1.399 . S
C748 H754 0.929 . S
C749 C729 1.449 . S
C749 C748 1.399 . S
C749 H755 0.930 . S
H750 C730 0.931 . S
H751 C731 0.930 . S
H752 C739 0.931 . S
H753 C740 0.929 . S
H754 C748 0.929 . S
H755 C749 0.930 . S
Mn756 O761 2.095 . S
Mn756 O771 2.162 . S
Mn756 O772 2.297 . S
Mn756 O780 2.385 . S
Mn756 O781 2.209 . S
Mn756 O782 2.094 . S
Mn757 O762 2.121 . S
Mn757 N764 2.257 . S
Mn757 N773 2.282 . S
Mn757 O781 2.215 . S
Mn757 O783 2.117 . S
C758 O780 1.234 . S
C758 O781 1.283 . S
C759 O771 1.281 . S
C759 O772 1.236 . S
C760 O782 1.240 . S
C760 O783 1.264 . S
O761 Mn756 2.095 . S
O761 C770 1.250 . S
O762 Mn757 2.121 . S
O762 C770 1.258 . S
C763 N764 1.326 . S
C763 C767 1.460 . S
C763 H769 0.929 . S
N764 Mn757 2.257 . S
N764 C763 1.326 . S
N764 C768 1.362 . S
C765 C766 1.258 . S
C765 C768 1.431 . S
C765 C785 1.449 . S
C766 C765 1.258 . S
C766 C767 1.477 . S
C766 H786 0.931 . S
C767 C763 1.460 . S
C767 C766 1.477 . S
C767 H787 0.930 . S
C768 N764 1.362 . S
C768 C765 1.431 . S
C768 C778 1.476 . S
H769 C763 0.929 . S
C770 O761 1.250 . S
C770 O762 1.258 . S
O771 Mn756 2.162 . S
O771 C759 1.281 . S
O772 Mn756 2.297 . S
O772 C759 1.236 . S
N773 Mn757 2.282 . S
N773 C774 1.328 . S
N773 C778 1.318 . S
C774 N773 1.328 . S
C774 C775 1.457 . S
C774 H779 0.929 . S
C775 C774 1.457 . S
C775 C776 1.291 . S
C775 H788 0.931 . S
C776 C775 1.291 . S
C776 C777 1.373 . S
C776 H789 0.929 . S
C777 C776 1.373 . S
C777 C778 1.396 . S
C777 C784 1.403 . S
C778 C768 1.476 . S
C778 N773 1.318 . S
C778 C777 1.396 . S
H779 C774 0.929 . S
O780 Mn756 2.385 . S
O780 C758 1.234 . S
O781 Mn756 2.209 . S
O781 Mn757 2.215 . S
O781 C758 1.283 . S
O782 Mn756 2.094 . S
O782 C760 1.240 . S
O783 Mn757 2.117 . S
O783 C760 1.264 . S
C784 C777 1.403 . S
C784 C785 1.399 . S
C784 H790 0.929 . S
C785 C765 1.449 . S
C785 C784 1.399 . S
C785 H791 0.930 . S
H786 C766 0.931 . S
H787 C767 0.930 . S
H788 C775 0.931 . S
H789 C776 0.929 . S
H790 C784 0.929 . S
H791 C785 0.930 . S
Mn792 O797 2.095 . S
Mn792 O807 2.162 . S
Mn792 O808 2.297 . S
Mn792 O816 2.385 . S
Mn792 O817 2.209 . S
Mn792 O818 2.094 . S
Mn793 O798 2.121 . S
Mn793 N800 2.257 . S
Mn793 N809 2.282 . S
Mn793 O817 2.215 . S
Mn793 O819 2.117 . S
C794 O816 1.234 . S
C794 O817 1.283 . S
C795 O807 1.281 . S
C795 O808 1.236 . S
C796 O818 1.240 . S
C796 O819 1.264 . S
O797 Mn792 2.095 . S
O797 C806 1.250 . S
O798 Mn793 2.121 . S
O798 C806 1.258 . S
C799 N800 1.326 . S
C799 C803 1.460 . S
C799 H805 0.929 . S
N800 Mn793 2.257 . S
N800 C799 1.326 . S
N800 C804 1.362 . S
C801 C802 1.258 . S
C801 C804 1.431 . S
C801 C821 1.449 . S
C802 C801 1.258 . S
C802 C803 1.477 . S
C802 H822 0.931 . S
C803 C799 1.460 . S
C803 C802 1.477 . S
C803 H823 0.930 . S
C804 N800 1.362 . S
C804 C801 1.431 . S
C804 C814 1.476 . S
H805 C799 0.929 . S
C806 O797 1.250 . S
C806 O798 1.258 . S
O807 Mn792 2.162 . S
O807 C795 1.281 . S
O808 Mn792 2.297 . S
O808 C795 1.236 . S
N809 Mn793 2.282 . S
N809 C810 1.328 . S
N809 C814 1.318 . S
C810 N809 1.328 . S
C810 C811 1.457 . S
C810 H815 0.929 . S
C811 C810 1.457 . S
C811 C812 1.291 . S
C811 H824 0.931 . S
C812 C811 1.291 . S
C812 C813 1.373 . S
C812 H825 0.929 . S
C813 C812 1.373 . S
C813 C814 1.396 . S
C813 C820 1.403 . S
C814 C804 1.476 . S
C814 N809 1.318 . S
C814 C813 1.396 . S
H815 C810 0.929 . S
O816 Mn792 2.385 . S
O816 C794 1.234 . S
O817 Mn792 2.209 . S
O817 Mn793 2.215 . S
O817 C794 1.283 . S
O818 Mn792 2.094 . S
O818 C796 1.240 . S
O819 Mn793 2.117 . S
O819 C796 1.264 . S
C820 C813 1.403 . S
C820 C821 1.399 . S
C820 H826 0.929 . S
C821 C801 1.449 . S
C821 C820 1.399 . S
C821 H827 0.930 . S
H822 C802 0.931 . S
H823 C803 0.930 . S
H824 C811 0.931 . S
H825 C812 0.929 . S
H826 C820 0.929 . S
H827 C821 0.930 . S
Mn828 O833 2.095 . S
Mn828 O843 2.162 . S
Mn828 O844 2.297 . S
Mn828 O852 2.385 . S
Mn828 O853 2.209 . S
Mn828 O854 2.094 . S
Mn829 O834 2.121 . S
Mn829 N836 2.257 . S
Mn829 N845 2.282 . S
Mn829 O853 2.215 . S
Mn829 O855 2.117 . S
C830 O852 1.234 . S
C830 O853 1.283 . S
C831 O843 1.281 . S
C831 O844 1.236 . S
C832 O854 1.240 . S
C832 O855 1.264 . S
O833 Mn828 2.095 . S
O833 C842 1.250 . S
O834 Mn829 2.121 . S
O834 C842 1.258 . S
C835 N836 1.326 . S
C835 C839 1.460 1_455 S
C835 H841 0.929 . S
N836 Mn829 2.257 . S
N836 C835 1.326 . S
N836 C840 1.362 . S
C837 C838 1.258 1_455 S
C837 C840 1.431 . S
C837 C857 1.449 . S
C838 C837 1.258 1_655 S
C838 C839 1.477 . S
C838 H858 0.931 . S
C839 C835 1.460 1_655 S
C839 C838 1.477 . S
C839 H859 0.930 . S
C840 N836 1.362 . S
C840 C837 1.431 . S
C840 C850 1.476 . S
H841 C835 0.929 . S
C842 O833 1.250 . S
C842 O834 1.258 . S
O843 Mn828 2.162 . S
O843 C831 1.281 . S
O844 Mn828 2.297 . S
O844 C831 1.236 . S
N845 Mn829 2.282 . S
N845 C846 1.328 . S
N845 C850 1.318 . S
C846 N845 1.328 . S
C846 C847 1.457 . S
C846 H851 0.929 . S
C847 C846 1.457 . S
C847 C848 1.291 . S
C847 H860 0.931 . S
C848 C847 1.291 . S
C848 C849 1.373 . S
C848 H861 0.929 . S
C849 C848 1.373 . S
C849 C850 1.396 . S
C849 C856 1.403 . S
C850 C840 1.476 . S
C850 N845 1.318 . S
C850 C849 1.396 . S
H851 C846 0.929 . S
O852 Mn828 2.385 . S
O852 C830 1.234 . S
O853 Mn828 2.209 . S
O853 Mn829 2.215 . S
O853 C830 1.283 . S
O854 Mn828 2.094 . S
O854 C832 1.240 . S
O855 Mn829 2.117 . S
O855 C832 1.264 . S
C856 C849 1.403 . S
C856 C857 1.399 . S
C856 H862 0.929 . S
C857 C837 1.449 . S
C857 C856 1.399 . S
C857 H863 0.930 . S
H858 C838 0.931 . S
H859 C839 0.930 . S
H860 C847 0.931 . S
H861 C848 0.929 . S
H862 C856 0.929 . S
H863 C857 0.930 . S
Mn864 O869 2.095 . S
Mn864 O879 2.162 . S
Mn864 O880 2.297 . S
Mn864 O888 2.385 . S
Mn864 O889 2.209 . S
Mn864 O890 2.094 . S
Mn865 O870 2.121 . S
Mn865 N872 2.257 . S
Mn865 N881 2.282 . S
Mn865 O889 2.215 . S
Mn865 O891 2.117 . S
C866 O888 1.234 . S
C866 O889 1.283 . S
C867 O879 1.281 . S
C867 O880 1.236 . S
C868 O890 1.240 . S
C868 O891 1.264 . S
O869 Mn864 2.095 . S
O869 C878 1.250 . S
O870 Mn865 2.121 . S
O870 C878 1.258 . S
C871 N872 1.326 . S
C871 C875 1.460 . S
C871 H877 0.929 . S
N872 Mn865 2.257 . S
N872 C871 1.326 . S
N872 C876 1.362 . S
C873 C874 1.258 . S
C873 C876 1.431 . S
C873 C893 1.449 . S
C874 C873 1.258 . S
C874 C875 1.477 . S
C874 H894 0.931 . S
C875 C871 1.460 . S
C875 C874 1.477 . S
C875 H895 0.930 . S
C876 N872 1.362 . S
C876 C873 1.431 . S
C876 C886 1.476 . S
H877 C871 0.929 . S
C878 O869 1.250 . S
C878 O870 1.258 . S
O879 Mn864 2.162 . S
O879 C867 1.281 . S
O880 Mn864 2.297 . S
O880 C867 1.236 . S
N881 Mn865 2.282 . S
N881 C882 1.328 . S
N881 C886 1.318 . S
C882 N881 1.328 . S
C882 C883 1.457 . S
C882 H887 0.929 . S
C883 C882 1.457 . S
C883 C884 1.291 . S
C883 H896 0.931 . S
C884 C883 1.291 . S
C884 C885 1.373 . S
C884 H897 0.929 . S
C885 C884 1.373 . S
C885 C886 1.396 . S
C885 C892 1.403 . S
C886 C876 1.476 . S
C886 N881 1.318 . S
C886 C885 1.396 . S
H887 C882 0.929 . S
O888 Mn864 2.385 . S
O888 C866 1.234 . S
O889 Mn864 2.209 . S
O889 Mn865 2.215 . S
O889 C866 1.283 . S
O890 Mn864 2.094 . S
O890 C868 1.240 . S
O891 Mn865 2.117 . S
O891 C868 1.264 . S
C892 C885 1.403 . S
C892 C893 1.399 . S
C892 H898 0.929 . S
C893 C873 1.449 . S
C893 C892 1.399 . S
C893 H899 0.930 . S
H894 C874 0.931 . S
H895 C875 0.930 . S
H896 C883 0.931 . S
H897 C884 0.929 . S
H898 C892 0.929 . S
H899 C893 0.930 . S
Mn900 O905 2.095 . S
Mn900 O915 2.162 . S
Mn900 O916 2.297 . S
Mn900 O924 2.385 . S
Mn900 O925 2.209 . S
Mn900 O926 2.094 . S
Mn901 O906 2.121 . S
Mn901 N908 2.257 . S
Mn901 N917 2.282 . S
Mn901 O925 2.215 . S
Mn901 O927 2.117 . S
C902 O924 1.234 . S
C902 O925 1.283 . S
C903 O915 1.281 . S
C903 O916 1.236 . S
C904 O926 1.240 . S
C904 O927 1.264 . S
O905 Mn900 2.095 . S
O905 C914 1.250 . S
O906 Mn901 2.121 . S
O906 C914 1.258 . S
C907 N908 1.326 . S
C907 C911 1.460 . S
C907 H913 0.929 . S
N908 Mn901 2.257 . S
N908 C907 1.326 . S
N908 C912 1.362 . S
C909 C910 1.258 . S
C909 C912 1.431 . S
C909 C929 1.449 . S
C910 C909 1.258 . S
C910 C911 1.477 . S
C910 H930 0.931 . S
C911 C907 1.460 . S
C911 C910 1.477 . S
C911 H931 0.930 . S
C912 N908 1.362 . S
C912 C909 1.431 . S
C912 C922 1.476 . S
H913 C907 0.929 . S
C914 O905 1.250 . S
C914 O906 1.258 . S
O915 Mn900 2.162 . S
O915 C903 1.281 . S
O916 Mn900 2.297 . S
O916 C903 1.236 . S
N917 Mn901 2.282 . S
N917 C918 1.328 . S
N917 C922 1.318 . S
C918 N917 1.328 . S
C918 C919 1.457 . S
C918 H923 0.929 . S
C919 C918 1.457 . S
C919 C920 1.291 . S
C919 H932 0.931 . S
C920 C919 1.291 . S
C920 C921 1.373 . S
C920 H933 0.929 . S
C921 C920 1.373 . S
C921 C922 1.396 . S
C921 C928 1.403 . S
C922 C912 1.476 . S
C922 N917 1.318 . S
C922 C921 1.396 . S
H923 C918 0.929 . S
O924 Mn900 2.385 . S
O924 C902 1.234 . S
O925 Mn900 2.209 . S
O925 Mn901 2.215 . S
O925 C902 1.283 . S
O926 Mn900 2.094 . S
O926 C904 1.240 . S
O927 Mn901 2.117 . S
O927 C904 1.264 . S
C928 C921 1.403 . S
C928 C929 1.399 . S
C928 H934 0.929 . S
C929 C909 1.449 . S
C929 C928 1.399 . S
C929 H935 0.930 . S
H930 C910 0.931 . S
H931 C911 0.930 . S
H932 C919 0.931 . S
H933 C920 0.929 . S
H934 C928 0.929 . S
H935 C929 0.930 . S
Mn936 O941 2.095 . S
Mn936 O951 2.162 . S
Mn936 O952 2.297 . S
Mn936 O960 2.385 . S
Mn936 O961 2.209 . S
Mn936 O962 2.094 . S
Mn937 O942 2.121 . S
Mn937 N944 2.257 . S
Mn937 N953 2.282 . S
Mn937 O961 2.215 . S
Mn937 O963 2.117 . S
C938 O960 1.234 . S
C938 O961 1.283 . S
C939 O951 1.281 . S
C939 O952 1.236 . S
C940 O962 1.240 . S
C940 O963 1.264 . S
O941 Mn936 2.095 . S
O941 C950 1.250 . S
O942 Mn937 2.121 . S
O942 C950 1.258 . S
C943 N944 1.326 . S
C943 C947 1.460 1_554 S
C943 H949 0.929 . S
N944 Mn937 2.257 . S
N944 C943 1.326 . S
N944 C948 1.362 . S
C945 C946 1.258 1_554 S
C945 C948 1.431 . S
C945 C965 1.449 . S
C946 C945 1.258 1_556 S
C946 C947 1.477 . S
C946 H966 0.931 . S
C947 C943 1.460 1_556 S
C947 C946 1.477 . S
C947 H967 0.930 . S
C948 N944 1.362 . S
C948 C945 1.431 . S
C948 C958 1.476 . S
H949 C943 0.929 . S
C950 O941 1.250 . S
C950 O942 1.258 . S
O951 Mn936 2.162 . S
O951 C939 1.281 . S
O952 Mn936 2.297 . S
O952 C939 1.236 . S
N953 Mn937 2.282 . S
N953 C954 1.328 . S
N953 C958 1.318 . S
C954 N953 1.328 . S
C954 C955 1.457 . S
C954 H959 0.929 . S
C955 C954 1.457 . S
C955 C956 1.291 . S
C955 H968 0.931 . S
C956 C955 1.291 . S
C956 C957 1.373 . S
C956 H969 0.929 . S
C957 C956 1.373 . S
C957 C958 1.396 . S
C957 C964 1.403 . S
C958 C948 1.476 . S
C958 N953 1.318 . S
C958 C957 1.396 . S
H959 C954 0.929 . S
O960 Mn936 2.385 . S
O960 C938 1.234 . S
O961 Mn936 2.209 . S
O961 Mn937 2.215 . S
O961 C938 1.283 . S
O962 Mn936 2.094 . S
O962 C940 1.240 . S
O963 Mn937 2.117 . S
O963 C940 1.264 . S
C964 C957 1.403 . S
C964 C965 1.399 . S
C964 H970 0.929 . S
C965 C945 1.449 . S
C965 C964 1.399 . S
C965 H971 0.930 . S
H966 C946 0.931 . S
H967 C947 0.930 . S
H968 C955 0.931 . S
H969 C956 0.929 . S
H970 C964 0.929 . S
H971 C965 0.930 . S
Mn972 O977 2.095 . S
Mn972 O987 2.162 . S
Mn972 O988 2.297 . S
Mn972 O996 2.385 . S
Mn972 O997 2.209 . S
Mn972 O998 2.094 . S
Mn973 O978 2.121 . S
Mn973 N980 2.257 . S
Mn973 N989 2.282 . S
Mn973 O997 2.215 . S
Mn973 O999 2.117 . S
C974 O996 1.234 . S
C974 O997 1.283 . S
C975 O987 1.281 . S
C975 O988 1.236 . S
C976 O998 1.240 . S
C976 O999 1.264 . S
O977 Mn972 2.095 . S
O977 C986 1.250 . S
O978 Mn973 2.121 . S
O978 C986 1.258 . S
C979 N980 1.326 . S
C979 C983 1.460 . S
C979 H985 0.929 . S
N980 Mn973 2.257 . S
N980 C979 1.326 . S
N980 C984 1.362 . S
C981 C982 1.258 . S
C981 C984 1.431 . S
C981 C1001 1.449 . S
C982 C981 1.258 . S
C982 C983 1.477 . S
C982 H1002 0.931 . S
C983 C979 1.460 . S
C983 C982 1.477 . S
C983 H1003 0.930 . S
C984 N980 1.362 . S
C984 C981 1.431 . S
C984 C994 1.476 . S
H985 C979 0.929 . S
C986 O977 1.250 . S
C986 O978 1.258 . S
O987 Mn972 2.162 . S
O987 C975 1.281 . S
O988 Mn972 2.297 . S
O988 C975 1.236 . S
N989 Mn973 2.282 . S
N989 C990 1.328 . S
N989 C994 1.318 . S
C990 N989 1.328 . S
C990 C991 1.457 . S
C990 H995 0.929 . S
C991 C990 1.457 . S
C991 C992 1.291 . S
C991 H1004 0.931 . S
C992 C991 1.291 . S
C992 C993 1.373 . S
C992 H1005 0.929 . S
C993 C992 1.373 . S
C993 C994 1.396 . S
C993 C1000 1.403 . S
C994 C984 1.476 . S
C994 N989 1.318 . S
C994 C993 1.396 . S
H995 C990 0.929 . S
O996 Mn972 2.385 . S
O996 C974 1.234 . S
O997 Mn972 2.209 . S
O997 Mn973 2.215 . S
O997 C974 1.283 . S
O998 Mn972 2.094 . S
O998 C976 1.240 . S
O999 Mn973 2.117 . S
O999 C976 1.264 . S
C1000 C993 1.403 . S
C1000 C1001 1.399 . S
C1000 H1006 0.929 . S
C1001 C981 1.449 . S
C1001 C1000 1.399 . S
C1001 H1007 0.930 . S
H1002 C982 0.931 . S
H1003 C983 0.930 . S
H1004 C991 0.931 . S
H1005 C992 0.929 . S
H1006 C1000 0.929 . S
H1007 C1001 0.930 . S
Mn1008 O1013 2.095 . S
Mn1008 O1023 2.162 . S
Mn1008 O1024 2.297 . S
Mn1008 O1032 2.385 . S
Mn1008 O1033 2.209 . S
Mn1008 O1034 2.094 . S
Mn1009 O1014 2.121 . S
Mn1009 N1016 2.257 . S
Mn1009 N1025 2.282 . S
Mn1009 O1033 2.215 . S
Mn1009 O1035 2.117 . S
C1010 O1032 1.234 . S
C1010 O1033 1.283 . S
C1011 O1023 1.281 . S
C1011 O1024 1.236 . S
C1012 O1034 1.240 . S
C1012 O1035 1.264 . S
O1013 Mn1008 2.095 . S
O1013 C1022 1.250 . S
O1014 Mn1009 2.121 . S
O1014 C1022 1.258 . S
C1015 N1016 1.326 . S
C1015 C1019 1.460 . S
C1015 H1021 0.929 . S
N1016 Mn1009 2.257 . S
N1016 C1015 1.326 . S
N1016 C1020 1.362 . S
C1017 C1018 1.258 . S
C1017 C1020 1.431 . S
C1017 C1037 1.449 . S
C1018 C1017 1.258 . S
C1018 C1019 1.477 . S
C1018 H1038 0.931 . S
C1019 C1015 1.460 . S
C1019 C1018 1.477 . S
C1019 H1039 0.930 . S
C1020 N1016 1.362 . S
C1020 C1017 1.431 . S
C1020 C1030 1.476 . S
H1021 C1015 0.929 . S
C1022 O1013 1.250 . S
C1022 O1014 1.258 . S
O1023 Mn1008 2.162 . S
O1023 C1011 1.281 . S
O1024 Mn1008 2.297 . S
O1024 C1011 1.236 . S
N1025 Mn1009 2.282 . S
N1025 C1026 1.328 . S
N1025 C1030 1.318 . S
C1026 N1025 1.328 . S
C1026 C1027 1.457 . S
C1026 H1031 0.929 . S
C1027 C1026 1.457 . S
C1027 C1028 1.291 . S
C1027 H1040 0.931 . S
C1028 C1027 1.291 . S
C1028 C1029 1.373 . S
C1028 H1041 0.929 . S
C1029 C1028 1.373 . S
C1029 C1030 1.396 . S
C1029 C1036 1.403 . S
C1030 C1020 1.476 . S
C1030 N1025 1.318 . S
C1030 C1029 1.396 . S
H1031 C1026 0.929 . S
O1032 Mn1008 2.385 . S
O1032 C1010 1.234 . S
O1033 Mn1008 2.209 . S
O1033 Mn1009 2.215 . S
O1033 C1010 1.283 . S
O1034 Mn1008 2.094 . S
O1034 C1012 1.240 . S
O1035 Mn1009 2.117 . S
O1035 C1012 1.264 . S
C1036 C1029 1.403 . S
C1036 C1037 1.399 . S
C1036 H1042 0.929 . S
C1037 C1017 1.449 . S
C1037 C1036 1.399 . S
C1037 H1043 0.930 . S
H1038 C1018 0.931 . S
H1039 C1019 0.930 . S
H1040 C1027 0.931 . S
H1041 C1028 0.929 . S
H1042 C1036 0.929 . S
H1043 C1037 0.930 . S
Mn1044 O1049 2.095 . S
Mn1044 O1059 2.162 . S
Mn1044 O1060 2.297 . S
Mn1044 O1068 2.385 . S
Mn1044 O1069 2.209 . S
Mn1044 O1070 2.094 . S
Mn1045 O1050 2.121 . S
Mn1045 N1052 2.257 . S
Mn1045 N1061 2.282 . S
Mn1045 O1069 2.215 . S
Mn1045 O1071 2.117 . S
C1046 O1068 1.234 . S
C1046 O1069 1.283 . S
C1047 O1059 1.281 . S
C1047 O1060 1.236 . S
C1048 O1070 1.240 . S
C1048 O1071 1.264 . S
O1049 Mn1044 2.095 . S
O1049 C1058 1.250 . S
O1050 Mn1045 2.121 . S
O1050 C1058 1.258 . S
C1051 N1052 1.326 . S
C1051 C1055 1.460 1_556 S
C1051 H1057 0.929 . S
N1052 Mn1045 2.257 . S
N1052 C1051 1.326 . S
N1052 C1056 1.362 . S
C1053 C1054 1.258 1_556 S
C1053 C1056 1.431 . S
C1053 C1073 1.449 . S
C1054 C1053 1.258 1_554 S
C1054 C1055 1.477 . S
C1054 H1074 0.931 . S
C1055 C1051 1.460 1_554 S
C1055 C1054 1.477 . S
C1055 H1075 0.930 . S
C1056 N1052 1.362 . S
C1056 C1053 1.431 . S
C1056 C1066 1.476 . S
H1057 C1051 0.929 . S
C1058 O1049 1.250 . S
C1058 O1050 1.258 . S
O1059 Mn1044 2.162 . S
O1059 C1047 1.281 . S
O1060 Mn1044 2.297 . S
O1060 C1047 1.236 . S
N1061 Mn1045 2.282 . S
N1061 C1062 1.328 . S
N1061 C1066 1.318 . S
C1062 N1061 1.328 . S
C1062 C1063 1.457 . S
C1062 H1067 0.929 . S
C1063 C1062 1.457 . S
C1063 C1064 1.291 . S
C1063 H1076 0.931 . S
C1064 C1063 1.291 . S
C1064 C1065 1.373 . S
C1064 H1077 0.929 . S
C1065 C1064 1.373 . S
C1065 C1066 1.396 . S
C1065 C1072 1.403 . S
C1066 C1056 1.476 . S
C1066 N1061 1.318 . S
C1066 C1065 1.396 . S
H1067 C1062 0.929 . S
O1068 Mn1044 2.385 . S
O1068 C1046 1.234 . S
O1069 Mn1044 2.209 . S
O1069 Mn1045 2.215 . S
O1069 C1046 1.283 . S
O1070 Mn1044 2.094 . S
O1070 C1048 1.240 . S
O1071 Mn1045 2.117 . S
O1071 C1048 1.264 . S
C1072 C1065 1.403 . S
C1072 C1073 1.399 . S
C1072 H1078 0.929 . S
C1073 C1053 1.449 . S
C1073 C1072 1.399 . S
C1073 H1079 0.930 . S
H1074 C1054 0.931 . S
H1075 C1055 0.930 . S
H1076 C1063 0.931 . S
H1077 C1064 0.929 . S
H1078 C1072 0.929 . S
H1079 C1073 0.930 . S
Mn1080 O1085 2.095 . S
Mn1080 O1095 2.162 . S
Mn1080 O1096 2.297 . S
Mn1080 O1104 2.385 . S
Mn1080 O1105 2.209 . S
Mn1080 O1106 2.094 . S
Mn1081 O1086 2.121 . S
Mn1081 N1088 2.257 . S
Mn1081 N1097 2.282 . S
Mn1081 O1105 2.215 . S
Mn1081 O1107 2.117 . S
C1082 O1104 1.234 . S
C1082 O1105 1.283 . S
C1083 O1095 1.281 . S
C1083 O1096 1.236 . S
C1084 O1106 1.240 . S
C1084 O1107 1.264 . S
O1085 Mn1080 2.095 . S
O1085 C1094 1.250 . S
O1086 Mn1081 2.121 . S
O1086 C1094 1.258 . S
C1087 N1088 1.326 . S
C1087 C1091 1.460 . S
C1087 H1093 0.929 . S
N1088 Mn1081 2.257 . S
N1088 C1087 1.326 . S
N1088 C1092 1.362 . S
C1089 C1090 1.258 . S
C1089 C1092 1.431 . S
C1089 C1109 1.449 . S
C1090 C1089 1.258 . S
C1090 C1091 1.477 . S
C1090 H1110 0.931 . S
C1091 C1087 1.460 . S
C1091 C1090 1.477 . S
C1091 H1111 0.930 . S
C1092 N1088 1.362 . S
C1092 C1089 1.431 . S
C1092 C1102 1.476 . S
H1093 C1087 0.929 . S
C1094 O1085 1.250 . S
C1094 O1086 1.258 . S
O1095 Mn1080 2.162 . S
O1095 C1083 1.281 . S
O1096 Mn1080 2.297 . S
O1096 C1083 1.236 . S
N1097 Mn1081 2.282 . S
N1097 C1098 1.328 . S
N1097 C1102 1.318 . S
C1098 N1097 1.328 . S
C1098 C1099 1.457 . S
C1098 H1103 0.929 . S
C1099 C1098 1.457 . S
C1099 C1100 1.291 . S
C1099 H1112 0.931 . S
C1100 C1099 1.291 . S
C1100 C1101 1.373 . S
C1100 H1113 0.929 . S
C1101 C1100 1.373 . S
C1101 C1102 1.396 . S
C1101 C1108 1.403 . S
C1102 C1092 1.476 . S
C1102 N1097 1.318 . S
C1102 C1101 1.396 . S
H1103 C1098 0.929 . S
O1104 Mn1080 2.385 . S
O1104 C1082 1.234 . S
O1105 Mn1080 2.209 . S
O1105 Mn1081 2.215 . S
O1105 C1082 1.283 . S
O1106 Mn1080 2.094 . S
O1106 C1084 1.240 . S
O1107 Mn1081 2.117 . S
O1107 C1084 1.264 . S
C1108 C1101 1.403 . S
C1108 C1109 1.399 . S
C1108 H1114 0.929 . S
C1109 C1089 1.449 . S
C1109 C1108 1.399 . S
C1109 H1115 0.930 . S
H1110 C1090 0.931 . S
H1111 C1091 0.930 . S
H1112 C1099 0.931 . S
H1113 C1100 0.929 . S
H1114 C1108 0.929 . S
H1115 C1109 0.930 . S
Mn1116 O1121 2.095 . S
Mn1116 O1131 2.162 . S
Mn1116 O1132 2.297 . S
Mn1116 O1140 2.385 . S
Mn1116 O1141 2.209 . S
Mn1116 O1142 2.094 . S
Mn1117 O1122 2.121 . S
Mn1117 N1124 2.257 . S
Mn1117 N1133 2.282 . S
Mn1117 O1141 2.215 . S
Mn1117 O1143 2.117 . S
C1118 O1140 1.234 . S
C1118 O1141 1.283 . S
C1119 O1131 1.281 . S
C1119 O1132 1.236 . S
C1120 O1142 1.240 . S
C1120 O1143 1.264 . S
O1121 Mn1116 2.095 . S
O1121 C1130 1.250 . S
O1122 Mn1117 2.121 . S
O1122 C1130 1.258 . S
C1123 N1124 1.326 . S
C1123 C1127 1.460 . S
C1123 H1129 0.929 . S
N1124 Mn1117 2.257 . S
N1124 C1123 1.326 . S
N1124 C1128 1.362 . S
C1125 C1126 1.258 . S
C1125 C1128 1.431 . S
C1125 C1145 1.449 . S
C1126 C1125 1.258 . S
C1126 C1127 1.477 . S
C1126 H1146 0.931 . S
C1127 C1123 1.460 . S
C1127 C1126 1.477 . S
C1127 H1147 0.930 . S
C1128 N1124 1.362 . S
C1128 C1125 1.431 . S
C1128 C1138 1.476 . S
H1129 C1123 0.929 . S
C1130 O1121 1.250 . S
C1130 O1122 1.258 . S
O1131 Mn1116 2.162 . S
O1131 C1119 1.281 . S
O1132 Mn1116 2.297 . S
O1132 C1119 1.236 . S
N1133 Mn1117 2.282 . S
N1133 C1134 1.328 . S
N1133 C1138 1.318 . S
C1134 N1133 1.328 . S
C1134 C1135 1.457 . S
C1134 H1139 0.929 . S
C1135 C1134 1.457 . S
C1135 C1136 1.291 . S
C1135 H1148 0.931 . S
C1136 C1135 1.291 . S
C1136 C1137 1.373 . S
C1136 H1149 0.929 . S
C1137 C1136 1.373 . S
C1137 C1138 1.396 . S
C1137 C1144 1.403 . S
C1138 C1128 1.476 . S
C1138 N1133 1.318 . S
C1138 C1137 1.396 . S
H1139 C1134 0.929 . S
O1140 Mn1116 2.385 . S
O1140 C1118 1.234 . S
O1141 Mn1116 2.209 . S
O1141 Mn1117 2.215 . S
O1141 C1118 1.283 . S
O1142 Mn1116 2.094 . S
O1142 C1120 1.240 . S
O1143 Mn1117 2.117 . S
O1143 C1120 1.264 . S
C1144 C1137 1.403 . S
C1144 C1145 1.399 . S
C1144 H1150 0.929 . S
C1145 C1125 1.449 . S
C1145 C1144 1.399 . S
C1145 H1151 0.930 . S
H1146 C1126 0.931 . S
H1147 C1127 0.930 . S
H1148 C1135 0.931 . S
H1149 C1136 0.929 . S
H1150 C1144 0.929 . S
H1151 C1145 0.930 . S
Mn1152 O1157 2.095 . S
Mn1152 O1167 2.162 . S
Mn1152 O1168 2.297 . S
Mn1152 O1176 2.385 . S
Mn1152 O1177 2.209 . S
Mn1152 O1178 2.094 . S
Mn1153 O1158 2.121 . S
Mn1153 N1160 2.257 . S
Mn1153 N1169 2.282 . S
Mn1153 O1177 2.215 . S
Mn1153 O1179 2.117 . S
C1154 O1176 1.234 . S
C1154 O1177 1.283 . S
C1155 O1167 1.281 . S
C1155 O1168 1.236 . S
C1156 O1178 1.240 . S
C1156 O1179 1.264 . S
O1157 Mn1152 2.095 . S
O1157 C1166 1.250 . S
O1158 Mn1153 2.121 . S
O1158 C1166 1.258 . S
C1159 N1160 1.326 . S
C1159 C1163 1.460 . S
C1159 H1165 0.929 . S
N1160 Mn1153 2.257 . S
N1160 C1159 1.326 . S
N1160 C1164 1.362 . S
C1161 C1162 1.258 . S
C1161 C1164 1.431 . S
C1161 C1181 1.449 . S
C1162 C1161 1.258 . S
C1162 C1163 1.477 . S
C1162 H1182 0.931 . S
C1163 C1159 1.460 . S
C1163 C1162 1.477 . S
C1163 H1183 0.930 . S
C1164 N1160 1.362 . S
C1164 C1161 1.431 . S
C1164 C1174 1.476 . S
H1165 C1159 0.929 . S
C1166 O1157 1.250 . S
C1166 O1158 1.258 . S
O1167 Mn1152 2.162 . S
O1167 C1155 1.281 . S
O1168 Mn1152 2.297 . S
O1168 C1155 1.236 . S
N1169 Mn1153 2.282 . S
N1169 C1170 1.328 . S
N1169 C1174 1.318 . S
C1170 N1169 1.328 . S
C1170 C1171 1.457 . S
C1170 H1175 0.929 . S
C1171 C1170 1.457 . S
C1171 C1172 1.291 . S
C1171 H1184 0.931 . S
C1172 C1171 1.291 . S
C1172 C1173 1.373 . S
C1172 H1185 0.929 . S
C1173 C1172 1.373 . S
C1173 C1174 1.396 . S
C1173 C1180 1.403 . S
C1174 C1164 1.476 . S
C1174 N1169 1.318 . S
C1174 C1173 1.396 . S
H1175 C1170 0.929 . S
O1176 Mn1152 2.385 . S
O1176 C1154 1.234 . S
O1177 Mn1152 2.209 . S
O1177 Mn1153 2.215 . S
O1177 C1154 1.283 . S
O1178 Mn1152 2.094 . S
O1178 C1156 1.240 . S
O1179 Mn1153 2.117 . S
O1179 C1156 1.264 . S
C1180 C1173 1.403 . S
C1180 C1181 1.399 . S
C1180 H1186 0.929 . S
C1181 C1161 1.449 . S
C1181 C1180 1.399 . S
C1181 H1187 0.930 . S
H1182 C1162 0.931 . S
H1183 C1163 0.930 . S
H1184 C1171 0.931 . S
H1185 C1172 0.929 . S
H1186 C1180 0.929 . S
H1187 C1181 0.930 . S
Mn1188 O1193 2.095 . S
Mn1188 O1203 2.162 . S
Mn1188 O1204 2.297 . S
Mn1188 O1212 2.385 . S
Mn1188 O1213 2.209 . S
Mn1188 O1214 2.094 . S
Mn1189 O1194 2.121 . S
Mn1189 N1196 2.257 . S
Mn1189 N1205 2.282 . S
Mn1189 O1213 2.215 . S
Mn1189 O1215 2.117 . S
C1190 O1212 1.234 . S
C1190 O1213 1.283 . S
C1191 O1203 1.281 . S
C1191 O1204 1.236 . S
C1192 O1214 1.240 . S
C1192 O1215 1.264 . S
O1193 Mn1188 2.095 . S
O1193 C1202 1.250 . S
O1194 Mn1189 2.121 . S
O1194 C1202 1.258 . S
C1195 N1196 1.326 . S
C1195 C1199 1.460 . S
C1195 H1201 0.929 . S
N1196 Mn1189 2.257 . S
N1196 C1195 1.326 . S
N1196 C1200 1.362 . S
C1197 C1198 1.258 . S
C1197 C1200 1.431 . S
C1197 C1217 1.449 . S
C1198 C1197 1.258 . S
C1198 C1199 1.477 . S
C1198 H1218 0.931 . S
C1199 C1195 1.460 . S
C1199 C1198 1.477 . S
C1199 H1219 0.930 . S
C1200 N1196 1.362 . S
C1200 C1197 1.431 . S
C1200 C1210 1.476 . S
H1201 C1195 0.929 . S
C1202 O1193 1.250 . S
C1202 O1194 1.258 . S
O1203 Mn1188 2.162 . S
O1203 C1191 1.281 . S
O1204 Mn1188 2.297 . S
O1204 C1191 1.236 . S
N1205 Mn1189 2.282 . S
N1205 C1206 1.328 . S
N1205 C1210 1.318 . S
C1206 N1205 1.328 . S
C1206 C1207 1.457 . S
C1206 H1211 0.929 . S
C1207 C1206 1.457 . S
C1207 C1208 1.291 . S
C1207 H1220 0.931 . S
C1208 C1207 1.291 . S
C1208 C1209 1.373 . S
C1208 H1221 0.929 . S
C1209 C1208 1.373 . S
C1209 C1210 1.396 . S
C1209 C1216 1.403 . S
C1210 C1200 1.476 . S
C1210 N1205 1.318 . S
C1210 C1209 1.396 . S
H1211 C1206 0.929 . S
O1212 Mn1188 2.385 . S
O1212 C1190 1.234 . S
O1213 Mn1188 2.209 . S
O1213 Mn1189 2.215 . S
O1213 C1190 1.283 . S
O1214 Mn1188 2.094 . S
O1214 C1192 1.240 . S
O1215 Mn1189 2.117 . S
O1215 C1192 1.264 . S
C1216 C1209 1.403 . S
C1216 C1217 1.399 . S
C1216 H1222 0.929 . S
C1217 C1197 1.449 . S
C1217 C1216 1.399 . S
C1217 H1223 0.930 . S
H1218 C1198 0.931 . S
H1219 C1199 0.930 . S
H1220 C1207 0.931 . S
H1221 C1208 0.929 . S
H1222 C1216 0.929 . S
H1223 C1217 0.930 . S
Mn1224 O1229 2.095 . S
Mn1224 O1239 2.162 . S
Mn1224 O1240 2.297 . S
Mn1224 O1248 2.385 . S
Mn1224 O1249 2.209 . S
Mn1224 O1250 2.094 . S
Mn1225 O1230 2.121 . S
Mn1225 N1232 2.257 . S
Mn1225 N1241 2.282 . S
Mn1225 O1249 2.215 . S
Mn1225 O1251 2.117 . S
C1226 O1248 1.234 . S
C1226 O1249 1.283 . S
C1227 O1239 1.281 . S
C1227 O1240 1.236 . S
C1228 O1250 1.240 . S
C1228 O1251 1.264 . S
O1229 Mn1224 2.095 . S
O1229 C1238 1.250 . S
O1230 Mn1225 2.121 . S
O1230 C1238 1.258 . S
C1231 N1232 1.326 . S
C1231 C1235 1.460 . S
C1231 H1237 0.929 . S
N1232 Mn1225 2.257 . S
N1232 C1231 1.326 . S
N1232 C1236 1.362 . S
C1233 C1234 1.258 . S
C1233 C1236 1.431 . S
C1233 C1253 1.449 . S
C1234 C1233 1.258 . S
C1234 C1235 1.477 . S
C1234 H1254 0.931 . S
C1235 C1231 1.460 . S
C1235 C1234 1.477 . S
C1235 H1255 0.930 . S
C1236 N1232 1.362 . S
C1236 C1233 1.431 . S
C1236 C1246 1.476 . S
H1237 C1231 0.929 . S
C1238 O1229 1.250 . S
C1238 O1230 1.258 . S
O1239 Mn1224 2.162 . S
O1239 C1227 1.281 . S
O1240 Mn1224 2.297 . S
O1240 C1227 1.236 . S
N1241 Mn1225 2.282 . S
N1241 C1242 1.328 . S
N1241 C1246 1.318 . S
C1242 N1241 1.328 . S
C1242 C1243 1.457 . S
C1242 H1247 0.929 . S
C1243 C1242 1.457 . S
C1243 C1244 1.291 . S
C1243 H1256 0.931 . S
C1244 C1243 1.291 . S
C1244 C1245 1.373 . S
C1244 H1257 0.929 . S
C1245 C1244 1.373 . S
C1245 C1246 1.396 . S
C1245 C1252 1.403 . S
C1246 C1236 1.476 . S
C1246 N1241 1.318 . S
C1246 C1245 1.396 . S
H1247 C1242 0.929 . S
O1248 Mn1224 2.385 . S
O1248 C1226 1.234 . S
O1249 Mn1224 2.209 . S
O1249 Mn1225 2.215 . S
O1249 C1226 1.283 . S
O1250 Mn1224 2.094 . S
O1250 C1228 1.240 . S
O1251 Mn1225 2.117 . S
O1251 C1228 1.264 . S
C1252 C1245 1.403 . S
C1252 C1253 1.399 . S
C1252 H1258 0.929 . S
C1253 C1233 1.449 . S
C1253 C1252 1.399 . S
C1253 H1259 0.930 . S
H1254 C1234 0.931 . S
H1255 C1235 0.930 . S
H1256 C1243 0.931 . S
H1257 C1244 0.929 . S
H1258 C1252 0.929 . S
H1259 C1253 0.930 . S
Mn1260 O1265 2.095 . S
Mn1260 O1275 2.162 . S
Mn1260 O1276 2.297 . S
Mn1260 O1284 2.385 . S
Mn1260 O1285 2.209 . S
Mn1260 O1286 2.094 . S
Mn1261 O1266 2.121 . S
Mn1261 N1268 2.257 . S
Mn1261 N1277 2.282 . S
Mn1261 O1285 2.215 . S
Mn1261 O1287 2.117 . S
C1262 O1284 1.234 . S
C1262 O1285 1.283 . S
C1263 O1275 1.281 . S
C1263 O1276 1.236 . S
C1264 O1286 1.240 . S
C1264 O1287 1.264 . S
O1265 Mn1260 2.095 . S
O1265 C1274 1.250 . S
O1266 Mn1261 2.121 . S
O1266 C1274 1.258 . S
C1267 N1268 1.326 . S
C1267 C1271 1.460 . S
C1267 H1273 0.929 . S
N1268 Mn1261 2.257 . S
N1268 C1267 1.326 . S
N1268 C1272 1.362 . S
C1269 C1270 1.258 . S
C1269 C1272 1.431 . S
C1269 C1289 1.449 . S
C1270 C1269 1.258 . S
C1270 C1271 1.477 . S
C1270 H1290 0.931 . S
C1271 C1267 1.460 . S
C1271 C1270 1.477 . S
C1271 H1291 0.930 . S
C1272 N1268 1.362 . S
C1272 C1269 1.431 . S
C1272 C1282 1.476 . S
H1273 C1267 0.929 . S
C1274 O1265 1.250 . S
C1274 O1266 1.258 . S
O1275 Mn1260 2.162 . S
O1275 C1263 1.281 . S
O1276 Mn1260 2.297 . S
O1276 C1263 1.236 . S
N1277 Mn1261 2.282 . S
N1277 C1278 1.328 . S
N1277 C1282 1.318 . S
C1278 N1277 1.328 . S
C1278 C1279 1.457 . S
C1278 H1283 0.929 . S
C1279 C1278 1.457 . S
C1279 C1280 1.291 . S
C1279 H1292 0.931 . S
C1280 C1279 1.291 . S
C1280 C1281 1.373 . S
C1280 H1293 0.929 . S
C1281 C1280 1.373 . S
C1281 C1282 1.396 . S
C1281 C1288 1.403 . S
C1282 C1272 1.476 . S
C1282 N1277 1.318 . S
C1282 C1281 1.396 . S
H1283 C1278 0.929 . S
O1284 Mn1260 2.385 . S
O1284 C1262 1.234 . S
O1285 Mn1260 2.209 . S
O1285 Mn1261 2.215 . S
O1285 C1262 1.283 . S
O1286 Mn1260 2.094 . S
O1286 C1264 1.240 . S
O1287 Mn1261 2.117 . S
O1287 C1264 1.264 . S
C1288 C1281 1.403 . S
C1288 C1289 1.399 . S
C1288 H1294 0.929 . S
C1289 C1269 1.449 . S
C1289 C1288 1.399 . S
C1289 H1295 0.930 . S
H1290 C1270 0.931 . S
H1291 C1271 0.930 . S
H1292 C1279 0.931 . S
H1293 C1280 0.929 . S
H1294 C1288 0.929 . S
H1295 C1289 0.930 . S
Mn1296 O1301 2.095 . S
Mn1296 O1311 2.162 . S
Mn1296 O1312 2.297 . S
Mn1296 O1320 2.385 . S
Mn1296 O1321 2.209 . S
Mn1296 O1322 2.094 . S
Mn1297 O1302 2.121 . S
Mn1297 N1304 2.257 . S
Mn1297 N1313 2.282 . S
Mn1297 O1321 2.215 . S
Mn1297 O1323 2.117 . S
C1298 O1320 1.234 . S
C1298 O1321 1.283 . S
C1299 O1311 1.281 . S
C1299 O1312 1.236 . S
C1300 O1322 1.240 . S
C1300 O1323 1.264 . S
O1301 Mn1296 2.095 . S
O1301 C1310 1.250 . S
O1302 Mn1297 2.121 . S
O1302 C1310 1.258 . S
C1303 N1304 1.326 . S
C1303 C1307 1.460 . S
C1303 H1309 0.929 . S
N1304 Mn1297 2.257 . S
N1304 C1303 1.326 . S
N1304 C1308 1.362 . S
C1305 C1306 1.258 . S
C1305 C1308 1.431 . S
C1305 C1325 1.449 . S
C1306 C1305 1.258 . S
C1306 C1307 1.477 . S
C1306 H1326 0.931 . S
C1307 C1303 1.460 . S
C1307 C1306 1.477 . S
C1307 H1327 0.930 . S
C1308 N1304 1.362 . S
C1308 C1305 1.431 . S
C1308 C1318 1.476 . S
H1309 C1303 0.929 . S
C1310 O1301 1.250 . S
C1310 O1302 1.258 . S
O1311 Mn1296 2.162 . S
O1311 C1299 1.281 . S
O1312 Mn1296 2.297 . S
O1312 C1299 1.236 . S
N1313 Mn1297 2.282 . S
N1313 C1314 1.328 . S
N1313 C1318 1.318 . S
C1314 N1313 1.328 . S
C1314 C1315 1.457 . S
C1314 H1319 0.929 . S
C1315 C1314 1.457 . S
C1315 C1316 1.291 . S
C1315 H1328 0.931 . S
C1316 C1315 1.291 . S
C1316 C1317 1.373 . S
C1316 H1329 0.929 . S
C1317 C1316 1.373 . S
C1317 C1318 1.396 . S
C1317 C1324 1.403 . S
C1318 C1308 1.476 . S
C1318 N1313 1.318 . S
C1318 C1317 1.396 . S
H1319 C1314 0.929 . S
O1320 Mn1296 2.385 . S
O1320 C1298 1.234 . S
O1321 Mn1296 2.209 . S
O1321 Mn1297 2.215 . S
O1321 C1298 1.283 . S
O1322 Mn1296 2.094 . S
O1322 C1300 1.240 . S
O1323 Mn1297 2.117 . S
O1323 C1300 1.264 . S
C1324 C1317 1.403 . S
C1324 C1325 1.399 . S
C1324 H1330 0.929 . S
C1325 C1305 1.449 . S
C1325 C1324 1.399 . S
C1325 H1331 0.930 . S
H1326 C1306 0.931 . S
H1327 C1307 0.930 . S
H1328 C1315 0.931 . S
H1329 C1316 0.929 . S
H1330 C1324 0.929 . S
H1331 C1325 0.930 . S
Mn1332 O1337 2.095 . S
Mn1332 O1347 2.162 . S
Mn1332 O1348 2.297 . S
Mn1332 O1356 2.385 . S
Mn1332 O1357 2.209 . S
Mn1332 O1358 2.094 . S
Mn1333 O1338 2.121 . S
Mn1333 N1340 2.257 . S
Mn1333 N1349 2.282 . S
Mn1333 O1357 2.215 . S
Mn1333 O1359 2.117 . S
C1334 O1356 1.234 . S
C1334 O1357 1.283 . S
C1335 O1347 1.281 . S
C1335 O1348 1.236 . S
C1336 O1358 1.240 . S
C1336 O1359 1.264 . S
O1337 Mn1332 2.095 . S
O1337 C1346 1.250 . S
O1338 Mn1333 2.121 . S
O1338 C1346 1.258 . S
C1339 N1340 1.326 . S
C1339 C1343 1.460 . S
C1339 H1345 0.929 . S
N1340 Mn1333 2.257 . S
N1340 C1339 1.326 . S
N1340 C1344 1.362 . S
C1341 C1342 1.258 . S
C1341 C1344 1.431 . S
C1341 C1361 1.449 . S
C1342 C1341 1.258 . S
C1342 C1343 1.477 . S
C1342 H1362 0.931 . S
C1343 C1339 1.460 . S
C1343 C1342 1.477 . S
C1343 H1363 0.930 . S
C1344 N1340 1.362 . S
C1344 C1341 1.431 . S
C1344 C1354 1.476 . S
H1345 C1339 0.929 . S
C1346 O1337 1.250 . S
C1346 O1338 1.258 . S
O1347 Mn1332 2.162 . S
O1347 C1335 1.281 . S
O1348 Mn1332 2.297 . S
O1348 C1335 1.236 . S
N1349 Mn1333 2.282 . S
N1349 C1350 1.328 . S
N1349 C1354 1.318 . S
C1350 N1349 1.328 . S
C1350 C1351 1.457 . S
C1350 H1355 0.929 . S
C1351 C1350 1.457 . S
C1351 C1352 1.291 . S
C1351 H1364 0.931 . S
C1352 C1351 1.291 . S
C1352 C1353 1.373 . S
C1352 H1365 0.929 . S
C1353 C1352 1.373 . S
C1353 C1354 1.396 . S
C1353 C1360 1.403 . S
C1354 C1344 1.476 . S
C1354 N1349 1.318 . S
C1354 C1353 1.396 . S
H1355 C1350 0.929 . S
O1356 Mn1332 2.385 . S
O1356 C1334 1.234 . S
O1357 Mn1332 2.209 . S
O1357 Mn1333 2.215 . S
O1357 C1334 1.283 . S
O1358 Mn1332 2.094 . S
O1358 C1336 1.240 . S
O1359 Mn1333 2.117 . S
O1359 C1336 1.264 . S
C1360 C1353 1.403 . S
C1360 C1361 1.399 . S
C1360 H1366 0.929 . S
C1361 C1341 1.449 . S
C1361 C1360 1.399 . S
C1361 H1367 0.930 . S
H1362 C1342 0.931 . S
H1363 C1343 0.930 . S
H1364 C1351 0.931 . S
H1365 C1352 0.929 . S
H1366 C1360 0.929 . S
H1367 C1361 0.930 . S
Mn1368 O1373 2.095 . S
Mn1368 O1383 2.162 . S
Mn1368 O1384 2.297 . S
Mn1368 O1392 2.385 . S
Mn1368 O1393 2.209 . S
Mn1368 O1394 2.094 . S
Mn1369 O1374 2.121 . S
Mn1369 N1376 2.257 . S
Mn1369 N1385 2.282 . S
Mn1369 O1393 2.215 . S
Mn1369 O1395 2.117 . S
C1370 O1392 1.234 . S
C1370 O1393 1.283 . S
C1371 O1383 1.281 . S
C1371 O1384 1.236 . S
C1372 O1394 1.240 . S
C1372 O1395 1.264 . S
O1373 Mn1368 2.095 . S
O1373 C1382 1.250 . S
O1374 Mn1369 2.121 . S
O1374 C1382 1.258 . S
C1375 N1376 1.326 . S
C1375 C1379 1.460 . S
C1375 H1381 0.929 . S
N1376 Mn1369 2.257 . S
N1376 C1375 1.326 . S
N1376 C1380 1.362 . S
C1377 C1378 1.258 . S
C1377 C1380 1.431 . S
C1377 C1397 1.449 . S
C1378 C1377 1.258 . S
C1378 C1379 1.477 . S
C1378 H1398 0.931 . S
C1379 C1375 1.460 . S
C1379 C1378 1.477 . S
C1379 H1399 0.930 . S
C1380 N1376 1.362 . S
C1380 C1377 1.431 . S
C1380 C1390 1.476 . S
H1381 C1375 0.929 . S
C1382 O1373 1.250 . S
C1382 O1374 1.258 . S
O1383 Mn1368 2.162 . S
O1383 C1371 1.281 . S
O1384 Mn1368 2.297 . S
O1384 C1371 1.236 . S
N1385 Mn1369 2.282 . S
N1385 C1386 1.328 . S
N1385 C1390 1.318 . S
C1386 N1385 1.328 . S
C1386 C1387 1.457 . S
C1386 H1391 0.929 . S
C1387 C1386 1.457 . S
C1387 C1388 1.291 . S
C1387 H1400 0.931 . S
C1388 C1387 1.291 . S
C1388 C1389 1.373 . S
C1388 H1401 0.929 . S
C1389 C1388 1.373 . S
C1389 C1390 1.396 . S
C1389 C1396 1.403 . S
C1390 C1380 1.476 . S
C1390 N1385 1.318 . S
C1390 C1389 1.396 . S
H1391 C1386 0.929 . S
O1392 Mn1368 2.385 . S
O1392 C1370 1.234 . S
O1393 Mn1368 2.209 . S
O1393 Mn1369 2.215 . S
O1393 C1370 1.283 . S
O1394 Mn1368 2.094 . S
O1394 C1372 1.240 . S
O1395 Mn1369 2.117 . S
O1395 C1372 1.264 . S
C1396 C1389 1.403 . S
C1396 C1397 1.399 . S
C1396 H1402 0.929 . S
C1397 C1377 1.449 . S
C1397 C1396 1.399 . S
C1397 H1403 0.930 . S
H1398 C1378 0.931 . S
H1399 C1379 0.930 . S
H1400 C1387 0.931 . S
H1401 C1388 0.929 . S
H1402 C1396 0.929 . S
H1403 C1397 0.930 . S
Mn1404 O1409 2.095 . S
Mn1404 O1419 2.162 . S
Mn1404 O1420 2.297 . S
Mn1404 O1428 2.385 . S
Mn1404 O1429 2.209 . S
Mn1404 O1430 2.094 . S
Mn1405 O1410 2.121 . S
Mn1405 N1412 2.257 . S
Mn1405 N1421 2.282 . S
Mn1405 O1429 2.215 . S
Mn1405 O1431 2.117 . S
C1406 O1428 1.234 . S
C1406 O1429 1.283 . S
C1407 O1419 1.281 . S
C1407 O1420 1.236 . S
C1408 O1430 1.240 . S
C1408 O1431 1.264 . S
O1409 Mn1404 2.095 . S
O1409 C1418 1.250 . S
O1410 Mn1405 2.121 . S
O1410 C1418 1.258 . S
C1411 N1412 1.326 . S
C1411 C1415 1.460 . S
C1411 H1417 0.929 . S
N1412 Mn1405 2.257 . S
N1412 C1411 1.326 . S
N1412 C1416 1.362 . S
C1413 C1414 1.258 . S
C1413 C1416 1.431 . S
C1413 C1433 1.449 . S
C1414 C1413 1.258 . S
C1414 C1415 1.477 . S
C1414 H1434 0.931 . S
C1415 C1411 1.460 . S
C1415 C1414 1.477 . S
C1415 H1435 0.930 . S
C1416 N1412 1.362 . S
C1416 C1413 1.431 . S
C1416 C1426 1.476 . S
H1417 C1411 0.929 . S
C1418 O1409 1.250 . S
C1418 O1410 1.258 . S
O1419 Mn1404 2.162 . S
O1419 C1407 1.281 . S
O1420 Mn1404 2.297 . S
O1420 C1407 1.236 . S
N1421 Mn1405 2.282 . S
N1421 C1422 1.328 . S
N1421 C1426 1.318 . S
C1422 N1421 1.328 . S
C1422 C1423 1.457 . S
C1422 H1427 0.929 . S
C1423 C1422 1.457 . S
C1423 C1424 1.291 . S
C1423 H1436 0.931 . S
C1424 C1423 1.291 . S
C1424 C1425 1.373 . S
C1424 H1437 0.929 . S
C1425 C1424 1.373 . S
C1425 C1426 1.396 . S
C1425 C1432 1.403 . S
C1426 C1416 1.476 . S
C1426 N1421 1.318 . S
C1426 C1425 1.396 . S
H1427 C1422 0.929 . S
O1428 Mn1404 2.385 . S
O1428 C1406 1.234 . S
O1429 Mn1404 2.209 . S
O1429 Mn1405 2.215 . S
O1429 C1406 1.283 . S
O1430 Mn1404 2.094 . S
O1430 C1408 1.240 . S
O1431 Mn1405 2.117 . S
O1431 C1408 1.264 . S
C1432 C1425 1.403 . S
C1432 C1433 1.399 . S
C1432 H1438 0.929 . S
C1433 C1413 1.449 . S
C1433 C1432 1.399 . S
C1433 H1439 0.930 . S
H1434 C1414 0.931 . S
H1435 C1415 0.930 . S
H1436 C1423 0.931 . S
H1437 C1424 0.929 . S
H1438 C1432 0.929 . S
H1439 C1433 0.930 . S
Mn1440 O1445 2.095 . S
Mn1440 O1455 2.162 . S
Mn1440 O1456 2.297 . S
Mn1440 O1464 2.385 . S
Mn1440 O1465 2.209 . S
Mn1440 O1466 2.094 . S
Mn1441 O1446 2.121 . S
Mn1441 N1448 2.257 . S
Mn1441 N1457 2.282 . S
Mn1441 O1465 2.215 . S
Mn1441 O1467 2.117 . S
C1442 O1464 1.234 . S
C1442 O1465 1.283 . S
C1443 O1455 1.281 . S
C1443 O1456 1.236 . S
C1444 O1466 1.240 . S
C1444 O1467 1.264 . S
O1445 Mn1440 2.095 . S
O1445 C1454 1.250 . S
O1446 Mn1441 2.121 . S
O1446 C1454 1.258 . S
C1447 N1448 1.326 . S
C1447 C1451 1.460 . S
C1447 H1453 0.929 . S
N1448 Mn1441 2.257 . S
N1448 C1447 1.326 . S
N1448 C1452 1.362 . S
C1449 C1450 1.258 . S
C1449 C1452 1.431 . S
C1449 C1469 1.449 . S
C1450 C1449 1.258 . S
C1450 C1451 1.477 . S
C1450 H1470 0.931 . S
C1451 C1447 1.460 . S
C1451 C1450 1.477 . S
C1451 H1471 0.930 . S
C1452 N1448 1.362 . S
C1452 C1449 1.431 . S
C1452 C1462 1.476 . S
H1453 C1447 0.929 . S
C1454 O1445 1.250 . S
C1454 O1446 1.258 . S
O1455 Mn1440 2.162 . S
O1455 C1443 1.281 . S
O1456 Mn1440 2.297 . S
O1456 C1443 1.236 . S
N1457 Mn1441 2.282 . S
N1457 C1458 1.328 . S
N1457 C1462 1.318 . S
C1458 N1457 1.328 . S
C1458 C1459 1.457 . S
C1458 H1463 0.929 . S
C1459 C1458 1.457 . S
C1459 C1460 1.291 . S
C1459 H1472 0.931 . S
C1460 C1459 1.291 . S
C1460 C1461 1.373 . S
C1460 H1473 0.929 . S
C1461 C1460 1.373 . S
C1461 C1462 1.396 . S
C1461 C1468 1.403 . S
C1462 C1452 1.476 . S
C1462 N1457 1.318 . S
C1462 C1461 1.396 . S
H1463 C1458 0.929 . S
O1464 Mn1440 2.385 . S
O1464 C1442 1.234 . S
O1465 Mn1440 2.209 . S
O1465 Mn1441 2.215 . S
O1465 C1442 1.283 . S
O1466 Mn1440 2.094 . S
O1466 C1444 1.240 . S
O1467 Mn1441 2.117 . S
O1467 C1444 1.264 . S
C1468 C1461 1.403 . S
C1468 C1469 1.399 . S
C1468 H1474 0.929 . S
C1469 C1449 1.449 . S
C1469 C1468 1.399 . S
C1469 H1475 0.930 . S
H1470 C1450 0.931 . S
H1471 C1451 0.930 . S
H1472 C1459 0.931 . S
H1473 C1460 0.929 . S
H1474 C1468 0.929 . S
H1475 C1469 0.930 . S
Mn1476 O1481 2.095 . S
Mn1476 O1491 2.162 . S
Mn1476 O1492 2.297 . S
Mn1476 O1500 2.385 . S
Mn1476 O1501 2.209 . S
Mn1476 O1502 2.094 . S
Mn1477 O1482 2.121 . S
Mn1477 N1484 2.257 . S
Mn1477 N1493 2.282 . S
Mn1477 O1501 2.215 . S
Mn1477 O1503 2.117 . S
C1478 O1500 1.234 . S
C1478 O1501 1.283 . S
C1479 O1491 1.281 . S
C1479 O1492 1.236 . S
C1480 O1502 1.240 . S
C1480 O1503 1.264 . S
O1481 Mn1476 2.095 . S
O1481 C1490 1.250 . S
O1482 Mn1477 2.121 . S
O1482 C1490 1.258 . S
C1483 N1484 1.326 . S
C1483 C1487 1.460 . S
C1483 H1489 0.929 . S
N1484 Mn1477 2.257 . S
N1484 C1483 1.326 . S
N1484 C1488 1.362 . S
C1485 C1486 1.258 . S
C1485 C1488 1.431 . S
C1485 C1505 1.449 . S
C1486 C1485 1.258 . S
C1486 C1487 1.477 . S
C1486 H1506 0.931 . S
C1487 C1483 1.460 . S
C1487 C1486 1.477 . S
C1487 H1507 0.930 . S
C1488 N1484 1.362 . S
C1488 C1485 1.431 . S
C1488 C1498 1.476 . S
H1489 C1483 0.929 . S
C1490 O1481 1.250 . S
C1490 O1482 1.258 . S
O1491 Mn1476 2.162 . S
O1491 C1479 1.281 . S
O1492 Mn1476 2.297 . S
O1492 C1479 1.236 . S
N1493 Mn1477 2.282 . S
N1493 C1494 1.328 . S
N1493 C1498 1.318 . S
C1494 N1493 1.328 . S
C1494 C1495 1.457 . S
C1494 H1499 0.929 . S
C1495 C1494 1.457 . S
C1495 C1496 1.291 . S
C1495 H1508 0.931 . S
C1496 C1495 1.291 . S
C1496 C1497 1.373 . S
C1496 H1509 0.929 . S
C1497 C1496 1.373 . S
C1497 C1498 1.396 . S
C1497 C1504 1.403 . S
C1498 C1488 1.476 . S
C1498 N1493 1.318 . S
C1498 C1497 1.396 . S
H1499 C1494 0.929 . S
O1500 Mn1476 2.385 . S
O1500 C1478 1.234 . S
O1501 Mn1476 2.209 . S
O1501 Mn1477 2.215 . S
O1501 C1478 1.283 . S
O1502 Mn1476 2.094 . S
O1502 C1480 1.240 . S
O1503 Mn1477 2.117 . S
O1503 C1480 1.264 . S
C1504 C1497 1.403 . S
C1504 C1505 1.399 . S
C1504 H1510 0.929 . S
C1505 C1485 1.449 . S
C1505 C1504 1.399 . S
C1505 H1511 0.930 . S
H1506 C1486 0.931 . S
H1507 C1487 0.930 . S
H1508 C1495 0.931 . S
H1509 C1496 0.929 . S
H1510 C1504 0.929 . S
H1511 C1505 0.930 . S
Mn1512 O1517 2.095 . S
Mn1512 O1527 2.162 . S
Mn1512 O1528 2.297 . S
Mn1512 O1536 2.385 . S
Mn1512 O1537 2.209 . S
Mn1512 O1538 2.094 . S
Mn1513 O1518 2.121 . S
Mn1513 N1520 2.257 . S
Mn1513 N1529 2.282 . S
Mn1513 O1537 2.215 . S
Mn1513 O1539 2.117 . S
C1514 O1536 1.234 . S
C1514 O1537 1.283 . S
C1515 O1527 1.281 . S
C1515 O1528 1.236 . S
C1516 O1538 1.240 . S
C1516 O1539 1.264 . S
O1517 Mn1512 2.095 . S
O1517 C1526 1.250 . S
O1518 Mn1513 2.121 . S
O1518 C1526 1.258 . S
C1519 N1520 1.326 . S
C1519 C1523 1.460 . S
C1519 H1525 0.929 . S
N1520 Mn1513 2.257 . S
N1520 C1519 1.326 . S
N1520 C1524 1.362 . S
C1521 C1522 1.258 . S
C1521 C1524 1.431 . S
C1521 C1541 1.449 . S
C1522 C1521 1.258 . S
C1522 C1523 1.477 . S
C1522 H1542 0.931 . S
C1523 C1519 1.460 . S
C1523 C1522 1.477 . S
C1523 H1543 0.930 . S
C1524 N1520 1.362 . S
C1524 C1521 1.431 . S
C1524 C1534 1.476 . S
H1525 C1519 0.929 . S
C1526 O1517 1.250 . S
C1526 O1518 1.258 . S
O1527 Mn1512 2.162 . S
O1527 C1515 1.281 . S
O1528 Mn1512 2.297 . S
O1528 C1515 1.236 . S
N1529 Mn1513 2.282 . S
N1529 C1530 1.328 . S
N1529 C1534 1.318 . S
C1530 N1529 1.328 . S
C1530 C1531 1.457 . S
C1530 H1535 0.929 . S
C1531 C1530 1.457 . S
C1531 C1532 1.291 . S
C1531 H1544 0.931 . S
C1532 C1531 1.291 . S
C1532 C1533 1.373 . S
C1532 H1545 0.929 . S
C1533 C1532 1.373 . S
C1533 C1534 1.396 . S
C1533 C1540 1.403 . S
C1534 C1524 1.476 . S
C1534 N1529 1.318 . S
C1534 C1533 1.396 . S
H1535 C1530 0.929 . S
O1536 Mn1512 2.385 . S
O1536 C1514 1.234 . S
O1537 Mn1512 2.209 . S
O1537 Mn1513 2.215 . S
O1537 C1514 1.283 . S
O1538 Mn1512 2.094 . S
O1538 C1516 1.240 . S
O1539 Mn1513 2.117 . S
O1539 C1516 1.264 . S
C1540 C1533 1.403 . S
C1540 C1541 1.399 . S
C1540 H1546 0.929 . S
C1541 C1521 1.449 . S
C1541 C1540 1.399 . S
C1541 H1547 0.930 . S
H1542 C1522 0.931 . S
H1543 C1523 0.930 . S
H1544 C1531 0.931 . S
H1545 C1532 0.929 . S
H1546 C1540 0.929 . S
H1547 C1541 0.930 . S
Mn1548 O1553 2.095 . S
Mn1548 O1563 2.162 . S
Mn1548 O1564 2.297 . S
Mn1548 O1572 2.385 . S
Mn1548 O1573 2.209 . S
Mn1548 O1574 2.094 . S
Mn1549 O1554 2.121 . S
Mn1549 N1556 2.257 . S
Mn1549 N1565 2.282 . S
Mn1549 O1573 2.215 . S
Mn1549 O1575 2.117 . S
C1550 O1572 1.234 . S
C1550 O1573 1.283 . S
C1551 O1563 1.281 . S
C1551 O1564 1.236 . S
C1552 O1574 1.240 . S
C1552 O1575 1.264 . S
O1553 Mn1548 2.095 . S
O1553 C1562 1.250 . S
O1554 Mn1549 2.121 . S
O1554 C1562 1.258 . S
C1555 N1556 1.326 . S
C1555 C1559 1.460 1_545 S
C1555 H1561 0.929 . S
N1556 Mn1549 2.257 . S
N1556 C1555 1.326 . S
N1556 C1560 1.362 . S
C1557 C1558 1.258 1_545 S
C1557 C1560 1.431 . S
C1557 C1577 1.449 . S
C1558 C1557 1.258 1_565 S
C1558 C1559 1.477 . S
C1558 H1578 0.931 . S
C1559 C1555 1.460 1_565 S
C1559 C1558 1.477 . S
C1559 H1579 0.930 . S
C1560 N1556 1.362 . S
C1560 C1557 1.431 . S
C1560 C1570 1.476 . S
H1561 C1555 0.929 . S
C1562 O1553 1.250 . S
C1562 O1554 1.258 . S
O1563 Mn1548 2.162 . S
O1563 C1551 1.281 . S
O1564 Mn1548 2.297 . S
O1564 C1551 1.236 . S
N1565 Mn1549 2.282 . S
N1565 C1566 1.328 . S
N1565 C1570 1.318 . S
C1566 N1565 1.328 . S
C1566 C1567 1.457 . S
C1566 H1571 0.929 . S
C1567 C1566 1.457 . S
C1567 C1568 1.291 . S
C1567 H1580 0.931 . S
C1568 C1567 1.291 . S
C1568 C1569 1.373 . S
C1568 H1581 0.929 . S
C1569 C1568 1.373 . S
C1569 C1570 1.396 . S
C1569 C1576 1.403 . S
C1570 C1560 1.476 . S
C1570 N1565 1.318 . S
C1570 C1569 1.396 . S
H1571 C1566 0.929 . S
O1572 Mn1548 2.385 . S
O1572 C1550 1.234 . S
O1573 Mn1548 2.209 . S
O1573 Mn1549 2.215 . S
O1573 C1550 1.283 . S
O1574 Mn1548 2.094 . S
O1574 C1552 1.240 . S
O1575 Mn1549 2.117 . S
O1575 C1552 1.264 . S
C1576 C1569 1.403 . S
C1576 C1577 1.399 . S
C1576 H1582 0.929 . S
C1577 C1557 1.449 . S
C1577 C1576 1.399 . S
C1577 H1583 0.930 . S
H1578 C1558 0.931 . S
H1579 C1559 0.930 . S
H1580 C1567 0.931 . S
H1581 C1568 0.929 . S
H1582 C1576 0.929 . S
H1583 C1577 0.930 . S
Mn1584 O1589 2.095 . S
Mn1584 O1599 2.162 . S
Mn1584 O1600 2.297 . S
Mn1584 O1608 2.385 . S
Mn1584 O1609 2.209 . S
Mn1584 O1610 2.094 . S
Mn1585 O1590 2.121 . S
Mn1585 N1592 2.257 . S
Mn1585 N1601 2.282 . S
Mn1585 O1609 2.215 . S
Mn1585 O1611 2.117 . S
C1586 O1608 1.234 . S
C1586 O1609 1.283 . S
C1587 O1599 1.281 . S
C1587 O1600 1.236 . S
C1588 O1610 1.240 . S
C1588 O1611 1.264 . S
O1589 Mn1584 2.095 . S
O1589 C1598 1.250 . S
O1590 Mn1585 2.121 . S
O1590 C1598 1.258 . S
C1591 N1592 1.326 . S
C1591 C1595 1.460 . S
C1591 H1597 0.929 . S
N1592 Mn1585 2.257 . S
N1592 C1591 1.326 . S
N1592 C1596 1.362 . S
C1593 C1594 1.258 . S
C1593 C1596 1.431 . S
C1593 C1613 1.449 . S
C1594 C1593 1.258 . S
C1594 C1595 1.477 . S
C1594 H1614 0.931 . S
C1595 C1591 1.460 . S
C1595 C1594 1.477 . S
C1595 H1615 0.930 . S
C1596 N1592 1.362 . S
C1596 C1593 1.431 . S
C1596 C1606 1.476 . S
H1597 C1591 0.929 . S
C1598 O1589 1.250 . S
C1598 O1590 1.258 . S
O1599 Mn1584 2.162 . S
O1599 C1587 1.281 . S
O1600 Mn1584 2.297 . S
O1600 C1587 1.236 . S
N1601 Mn1585 2.282 . S
N1601 C1602 1.328 . S
N1601 C1606 1.318 . S
C1602 N1601 1.328 . S
C1602 C1603 1.457 . S
C1602 H1607 0.929 . S
C1603 C1602 1.457 . S
C1603 C1604 1.291 . S
C1603 H1616 0.931 . S
C1604 C1603 1.291 . S
C1604 C1605 1.373 . S
C1604 H1617 0.929 . S
C1605 C1604 1.373 . S
C1605 C1606 1.396 . S
C1605 C1612 1.403 . S
C1606 C1596 1.476 . S
C1606 N1601 1.318 . S
C1606 C1605 1.396 . S
H1607 C1602 0.929 . S
O1608 Mn1584 2.385 . S
O1608 C1586 1.234 . S
O1609 Mn1584 2.209 . S
O1609 Mn1585 2.215 . S
O1609 C1586 1.283 . S
O1610 Mn1584 2.094 . S
O1610 C1588 1.240 . S
O1611 Mn1585 2.117 . S
O1611 C1588 1.264 . S
C1612 C1605 1.403 . S
C1612 C1613 1.399 . S
C1612 H1618 0.929 . S
C1613 C1593 1.449 . S
C1613 C1612 1.399 . S
C1613 H1619 0.930 . S
H1614 C1594 0.931 . S
H1615 C1595 0.930 . S
H1616 C1603 0.931 . S
H1617 C1604 0.929 . S
H1618 C1612 0.929 . S
H1619 C1613 0.930 . S
Mn1620 O1625 2.095 . S
Mn1620 O1635 2.162 . S
Mn1620 O1636 2.297 . S
Mn1620 O1644 2.385 . S
Mn1620 O1645 2.209 . S
Mn1620 O1646 2.094 . S
Mn1621 O1626 2.121 . S
Mn1621 N1628 2.257 . S
Mn1621 N1637 2.282 . S
Mn1621 O1645 2.215 . S
Mn1621 O1647 2.117 . S
C1622 O1644 1.234 . S
C1622 O1645 1.283 . S
C1623 O1635 1.281 . S
C1623 O1636 1.236 . S
C1624 O1646 1.240 . S
C1624 O1647 1.264 . S
O1625 Mn1620 2.095 . S
O1625 C1634 1.250 . S
O1626 Mn1621 2.121 . S
O1626 C1634 1.258 . S
C1627 N1628 1.326 . S
C1627 C1631 1.460 . S
C1627 H1633 0.929 . S
N1628 Mn1621 2.257 . S
N1628 C1627 1.326 . S
N1628 C1632 1.362 . S
C1629 C1630 1.258 . S
C1629 C1632 1.431 . S
C1629 C1649 1.449 . S
C1630 C1629 1.258 . S
C1630 C1631 1.477 . S
C1630 H1650 0.931 . S
C1631 C1627 1.460 . S
C1631 C1630 1.477 . S
C1631 H1651 0.930 . S
C1632 N1628 1.362 . S
C1632 C1629 1.431 . S
C1632 C1642 1.476 . S
H1633 C1627 0.929 . S
C1634 O1625 1.250 . S
C1634 O1626 1.258 . S
O1635 Mn1620 2.162 . S
O1635 C1623 1.281 . S
O1636 Mn1620 2.297 . S
O1636 C1623 1.236 . S
N1637 Mn1621 2.282 . S
N1637 C1638 1.328 . S
N1637 C1642 1.318 . S
C1638 N1637 1.328 . S
C1638 C1639 1.457 . S
C1638 H1643 0.929 . S
C1639 C1638 1.457 . S
C1639 C1640 1.291 . S
C1639 H1652 0.931 . S
C1640 C1639 1.291 . S
C1640 C1641 1.373 . S
C1640 H1653 0.929 . S
C1641 C1640 1.373 . S
C1641 C1642 1.396 . S
C1641 C1648 1.403 . S
C1642 C1632 1.476 . S
C1642 N1637 1.318 . S
C1642 C1641 1.396 . S
H1643 C1638 0.929 . S
O1644 Mn1620 2.385 . S
O1644 C1622 1.234 . S
O1645 Mn1620 2.209 . S
O1645 Mn1621 2.215 . S
O1645 C1622 1.283 . S
O1646 Mn1620 2.094 . S
O1646 C1624 1.240 . S
O1647 Mn1621 2.117 . S
O1647 C1624 1.264 . S
C1648 C1641 1.403 . S
C1648 C1649 1.399 . S
C1648 H1654 0.929 . S
C1649 C1629 1.449 . S
C1649 C1648 1.399 . S
C1649 H1655 0.930 . S
H1650 C1630 0.931 . S
H1651 C1631 0.930 . S
H1652 C1639 0.931 . S
H1653 C1640 0.929 . S
H1654 C1648 0.929 . S
H1655 C1649 0.930 . S
Mn1656 O1661 2.095 . S
Mn1656 O1671 2.162 . S
Mn1656 O1672 2.297 . S
Mn1656 O1680 2.385 . S
Mn1656 O1681 2.209 . S
Mn1656 O1682 2.094 . S
Mn1657 O1662 2.121 . S
Mn1657 N1664 2.257 . S
Mn1657 N1673 2.282 . S
Mn1657 O1681 2.215 . S
Mn1657 O1683 2.117 . S
C1658 O1680 1.234 . S
C1658 O1681 1.283 . S
C1659 O1671 1.281 . S
C1659 O1672 1.236 . S
C1660 O1682 1.240 . S
C1660 O1683 1.264 . S
O1661 Mn1656 2.095 . S
O1661 C1670 1.250 . S
O1662 Mn1657 2.121 . S
O1662 C1670 1.258 . S
C1663 N1664 1.326 . S
C1663 C1667 1.460 . S
C1663 H1669 0.929 . S
N1664 Mn1657 2.257 . S
N1664 C1663 1.326 . S
N1664 C1668 1.362 . S
C1665 C1666 1.258 . S
C1665 C1668 1.431 . S
C1665 C1685 1.449 . S
C1666 C1665 1.258 . S
C1666 C1667 1.477 . S
C1666 H1686 0.931 . S
C1667 C1663 1.460 . S
C1667 C1666 1.477 . S
C1667 H1687 0.930 . S
C1668 N1664 1.362 . S
C1668 C1665 1.431 . S
C1668 C1678 1.476 . S
H1669 C1663 0.929 . S
C1670 O1661 1.250 . S
C1670 O1662 1.258 . S
O1671 Mn1656 2.162 . S
O1671 C1659 1.281 . S
O1672 Mn1656 2.297 . S
O1672 C1659 1.236 . S
N1673 Mn1657 2.282 . S
N1673 C1674 1.328 . S
N1673 C1678 1.318 . S
C1674 N1673 1.328 . S
C1674 C1675 1.457 . S
C1674 H1679 0.929 . S
C1675 C1674 1.457 . S
C1675 C1676 1.291 . S
C1675 H1688 0.931 . S
C1676 C1675 1.291 . S
C1676 C1677 1.373 . S
C1676 H1689 0.929 . S
C1677 C1676 1.373 . S
C1677 C1678 1.396 . S
C1677 C1684 1.403 . S
C1678 C1668 1.476 . S
C1678 N1673 1.318 . S
C1678 C1677 1.396 . S
H1679 C1674 0.929 . S
O1680 Mn1656 2.385 . S
O1680 C1658 1.234 . S
O1681 Mn1656 2.209 . S
O1681 Mn1657 2.215 . S
O1681 C1658 1.283 . S
O1682 Mn1656 2.094 . S
O1682 C1660 1.240 . S
O1683 Mn1657 2.117 . S
O1683 C1660 1.264 . S
C1684 C1677 1.403 . S
C1684 C1685 1.399 . S
C1684 H1690 0.929 . S
C1685 C1665 1.449 . S
C1685 C1684 1.399 . S
C1685 H1691 0.930 . S
H1686 C1666 0.931 . S
H1687 C1667 0.930 . S
H1688 C1675 0.931 . S
H1689 C1676 0.929 . S
H1690 C1684 0.929 . S
H1691 C1685 0.930 . S
Mn1692 O1697 2.095 . S
Mn1692 O1707 2.162 . S
Mn1692 O1708 2.297 . S
Mn1692 O1716 2.385 . S
Mn1692 O1717 2.209 . S
Mn1692 O1718 2.094 . S
Mn1693 O1698 2.121 . S
Mn1693 N1700 2.257 . S
Mn1693 N1709 2.282 . S
Mn1693 O1717 2.215 . S
Mn1693 O1719 2.117 . S
C1694 O1716 1.234 . S
C1694 O1717 1.283 . S
C1695 O1707 1.281 . S
C1695 O1708 1.236 . S
C1696 O1718 1.240 . S
C1696 O1719 1.264 . S
O1697 Mn1692 2.095 . S
O1697 C1706 1.250 . S
O1698 Mn1693 2.121 . S
O1698 C1706 1.258 . S
C1699 N1700 1.326 . S
C1699 C1703 1.460 1_655 S
C1699 H1705 0.929 . S
N1700 Mn1693 2.257 . S
N1700 C1699 1.326 . S
N1700 C1704 1.362 . S
C1701 C1702 1.258 1_655 S
C1701 C1704 1.431 . S
C1701 C1721 1.449 . S
C1702 C1701 1.258 1_455 S
C1702 C1703 1.477 . S
C1702 H1722 0.931 . S
C1703 C1699 1.460 1_455 S
C1703 C1702 1.477 . S
C1703 H1723 0.930 . S
C1704 N1700 1.362 . S
C1704 C1701 1.431 . S
C1704 C1714 1.476 . S
H1705 C1699 0.929 . S
C1706 O1697 1.250 . S
C1706 O1698 1.258 . S
O1707 Mn1692 2.162 . S
O1707 C1695 1.281 . S
O1708 Mn1692 2.297 . S
O1708 C1695 1.236 . S
N1709 Mn1693 2.282 . S
N1709 C1710 1.328 . S
N1709 C1714 1.318 . S
C1710 N1709 1.328 . S
C1710 C1711 1.457 . S
C1710 H1715 0.929 . S
C1711 C1710 1.457 . S
C1711 C1712 1.291 . S
C1711 H1724 0.931 . S
C1712 C1711 1.291 . S
C1712 C1713 1.373 . S
C1712 H1725 0.929 . S
C1713 C1712 1.373 . S
C1713 C1714 1.396 . S
C1713 C1720 1.403 . S
C1714 C1704 1.476 . S
C1714 N1709 1.318 . S
C1714 C1713 1.396 . S
H1715 C1710 0.929 . S
O1716 Mn1692 2.385 . S
O1716 C1694 1.234 . S
O1717 Mn1692 2.209 . S
O1717 Mn1693 2.215 . S
O1717 C1694 1.283 . S
O1718 Mn1692 2.094 . S
O1718 C1696 1.240 . S
O1719 Mn1693 2.117 . S
O1719 C1696 1.264 . S
C1720 C1713 1.403 . S
C1720 C1721 1.399 . S
C1720 H1726 0.929 . S
C1721 C1701 1.449 . S
C1721 C1720 1.399 . S
C1721 H1727 0.930 . S
H1722 C1702 0.931 . S
H1723 C1703 0.930 . S
H1724 C1711 0.931 . S
H1725 C1712 0.929 . S
H1726 C1720 0.929 . S
H1727 C1721 0.930 . S
Mn1728 O1733 2.095 . S
Mn1728 O1743 2.162 . S
Mn1728 O1744 2.297 . S
Mn1728 O1752 2.385 . S
Mn1728 O1753 2.209 . S
Mn1728 O1754 2.094 . S
Mn1729 O1734 2.121 . S
Mn1729 N1736 2.257 . S
Mn1729 N1745 2.282 . S
Mn1729 O1753 2.215 . S
Mn1729 O1755 2.117 . S
C1730 O1752 1.234 . S
C1730 O1753 1.283 . S
C1731 O1743 1.281 . S
C1731 O1744 1.236 . S
C1732 O1754 1.240 . S
C1732 O1755 1.264 . S
O1733 Mn1728 2.095 . S
O1733 C1742 1.250 . S
O1734 Mn1729 2.121 . S
O1734 C1742 1.258 . S
C1735 N1736 1.326 . S
C1735 C1739 1.460 1_556 S
C1735 H1741 0.929 . S
N1736 Mn1729 2.257 . S
N1736 C1735 1.326 . S
N1736 C1740 1.362 . S
C1737 C1738 1.258 1_556 S
C1737 C1740 1.431 . S
C1737 C1757 1.449 . S
C1738 C1737 1.258 1_554 S
C1738 C1739 1.477 . S
C1738 H1758 0.931 . S
C1739 C1735 1.460 1_554 S
C1739 C1738 1.477 . S
C1739 H1759 0.930 . S
C1740 N1736 1.362 . S
C1740 C1737 1.431 . S
C1740 C1750 1.476 . S
H1741 C1735 0.929 . S
C1742 O1733 1.250 . S
C1742 O1734 1.258 . S
O1743 Mn1728 2.162 . S
O1743 C1731 1.281 . S
O1744 Mn1728 2.297 . S
O1744 C1731 1.236 . S
N1745 Mn1729 2.282 . S
N1745 C1746 1.328 . S
N1745 C1750 1.318 . S
C1746 N1745 1.328 . S
C1746 C1747 1.457 . S
C1746 H1751 0.929 . S
C1747 C1746 1.457 . S
C1747 C1748 1.291 . S
C1747 H1760 0.931 . S
C1748 C1747 1.291 . S
C1748 C1749 1.373 . S
C1748 H1761 0.929 . S
C1749 C1748 1.373 . S
C1749 C1750 1.396 . S
C1749 C1756 1.403 . S
C1750 C1740 1.476 . S
C1750 N1745 1.318 . S
C1750 C1749 1.396 . S
H1751 C1746 0.929 . S
O1752 Mn1728 2.385 . S
O1752 C1730 1.234 . S
O1753 Mn1728 2.209 . S
O1753 Mn1729 2.215 . S
O1753 C1730 1.283 . S
O1754 Mn1728 2.094 . S
O1754 C1732 1.240 . S
O1755 Mn1729 2.117 . S
O1755 C1732 1.264 . S
C1756 C1749 1.403 . S
C1756 C1757 1.399 . S
C1756 H1762 0.929 . S
C1757 C1737 1.449 . S
C1757 C1756 1.399 . S
C1757 H1763 0.930 . S
H1758 C1738 0.931 . S
H1759 C1739 0.930 . S
H1760 C1747 0.931 . S
H1761 C1748 0.929 . S
H1762 C1756 0.929 . S
H1763 C1757 0.930 . S
Mn1764 O1769 2.095 . S
Mn1764 O1779 2.162 . S
Mn1764 O1780 2.297 . S
Mn1764 O1788 2.385 . S
Mn1764 O1789 2.209 . S
Mn1764 O1790 2.094 . S
Mn1765 O1770 2.121 . S
Mn1765 N1772 2.257 . S
Mn1765 N1781 2.282 . S
Mn1765 O1789 2.215 . S
Mn1765 O1791 2.117 . S
C1766 O1788 1.234 . S
C1766 O1789 1.283 . S
C1767 O1779 1.281 . S
C1767 O1780 1.236 . S
C1768 O1790 1.240 . S
C1768 O1791 1.264 . S
O1769 Mn1764 2.095 . S
O1769 C1778 1.250 . S
O1770 Mn1765 2.121 . S
O1770 C1778 1.258 . S
C1771 N1772 1.326 . S
C1771 C1775 1.460 . S
C1771 H1777 0.929 . S
N1772 Mn1765 2.257 . S
N1772 C1771 1.326 . S
N1772 C1776 1.362 . S
C1773 C1774 1.258 . S
C1773 C1776 1.431 . S
C1773 C1793 1.449 . S
C1774 C1773 1.258 . S
C1774 C1775 1.477 . S
C1774 H1794 0.931 . S
C1775 C1771 1.460 . S
C1775 C1774 1.477 . S
C1775 H1795 0.930 . S
C1776 N1772 1.362 . S
C1776 C1773 1.431 . S
C1776 C1786 1.476 . S
H1777 C1771 0.929 . S
C1778 O1769 1.250 . S
C1778 O1770 1.258 . S
O1779 Mn1764 2.162 . S
O1779 C1767 1.281 . S
O1780 Mn1764 2.297 . S
O1780 C1767 1.236 . S
N1781 Mn1765 2.282 . S
N1781 C1782 1.328 . S
N1781 C1786 1.318 . S
C1782 N1781 1.328 . S
C1782 C1783 1.457 . S
C1782 H1787 0.929 . S
C1783 C1782 1.457 . S
C1783 C1784 1.291 . S
C1783 H1796 0.931 . S
C1784 C1783 1.291 . S
C1784 C1785 1.373 . S
C1784 H1797 0.929 . S
C1785 C1784 1.373 . S
C1785 C1786 1.396 . S
C1785 C1792 1.403 . S
C1786 C1776 1.476 . S
C1786 N1781 1.318 . S
C1786 C1785 1.396 . S
H1787 C1782 0.929 . S
O1788 Mn1764 2.385 . S
O1788 C1766 1.234 . S
O1789 Mn1764 2.209 . S
O1789 Mn1765 2.215 . S
O1789 C1766 1.283 . S
O1790 Mn1764 2.094 . S
O1790 C1768 1.240 . S
O1791 Mn1765 2.117 . S
O1791 C1768 1.264 . S
C1792 C1785 1.403 . S
C1792 C1793 1.399 . S
C1792 H1798 0.929 . S
C1793 C1773 1.449 . S
C1793 C1792 1.399 . S
C1793 H1799 0.930 . S
H1794 C1774 0.931 . S
H1795 C1775 0.930 . S
H1796 C1783 0.931 . S
H1797 C1784 0.929 . S
H1798 C1792 0.929 . S
H1799 C1793 0.930 . S
Mn1800 O1805 2.095 . S
Mn1800 O1815 2.162 . S
Mn1800 O1816 2.297 . S
Mn1800 O1824 2.385 . S
Mn1800 O1825 2.209 . S
Mn1800 O1826 2.094 . S
Mn1801 O1806 2.121 . S
Mn1801 N1808 2.257 . S
Mn1801 N1817 2.282 . S
Mn1801 O1825 2.215 . S
Mn1801 O1827 2.117 . S
C1802 O1824 1.234 . S
C1802 O1825 1.283 . S
C1803 O1815 1.281 . S
C1803 O1816 1.236 . S
C1804 O1826 1.240 . S
C1804 O1827 1.264 . S
O1805 Mn1800 2.095 . S
O1805 C1814 1.250 . S
O1806 Mn1801 2.121 . S
O1806 C1814 1.258 . S
C1807 N1808 1.326 . S
C1807 C1811 1.460 . S
C1807 H1813 0.929 . S
N1808 Mn1801 2.257 . S
N1808 C1807 1.326 . S
N1808 C1812 1.362 . S
C1809 C1810 1.258 . S
C1809 C1812 1.431 . S
C1809 C1829 1.449 . S
C1810 C1809 1.258 . S
C1810 C1811 1.477 . S
C1810 H1830 0.931 . S
C1811 C1807 1.460 . S
C1811 C1810 1.477 . S
C1811 H1831 0.930 . S
C1812 N1808 1.362 . S
C1812 C1809 1.431 . S
C1812 C1822 1.476 . S
H1813 C1807 0.929 . S
C1814 O1805 1.250 . S
C1814 O1806 1.258 . S
O1815 Mn1800 2.162 . S
O1815 C1803 1.281 . S
O1816 Mn1800 2.297 . S
O1816 C1803 1.236 . S
N1817 Mn1801 2.282 . S
N1817 C1818 1.328 . S
N1817 C1822 1.318 . S
C1818 N1817 1.328 . S
C1818 C1819 1.457 . S
C1818 H1823 0.929 . S
C1819 C1818 1.457 . S
C1819 C1820 1.291 . S
C1819 H1832 0.931 . S
C1820 C1819 1.291 . S
C1820 C1821 1.373 . S
C1820 H1833 0.929 . S
C1821 C1820 1.373 . S
C1821 C1822 1.396 . S
C1821 C1828 1.403 . S
C1822 C1812 1.476 . S
C1822 N1817 1.318 . S
C1822 C1821 1.396 . S
H1823 C1818 0.929 . S
O1824 Mn1800 2.385 . S
O1824 C1802 1.234 . S
O1825 Mn1800 2.209 . S
O1825 Mn1801 2.215 . S
O1825 C1802 1.283 . S
O1826 Mn1800 2.094 . S
O1826 C1804 1.240 . S
O1827 Mn1801 2.117 . S
O1827 C1804 1.264 . S
C1828 C1821 1.403 . S
C1828 C1829 1.399 . S
C1828 H1834 0.929 . S
C1829 C1809 1.449 . S
C1829 C1828 1.399 . S
C1829 H1835 0.930 . S
H1830 C1810 0.931 . S
H1831 C1811 0.930 . S
H1832 C1819 0.931 . S
H1833 C1820 0.929 . S
H1834 C1828 0.929 . S
H1835 C1829 0.930 . S
Mn1836 O1841 2.095 . S
Mn1836 O1851 2.162 . S
Mn1836 O1852 2.297 . S
Mn1836 O1860 2.385 . S
Mn1836 O1861 2.209 . S
Mn1836 O1862 2.094 . S
Mn1837 O1842 2.121 . S
Mn1837 N1844 2.257 . S
Mn1837 N1853 2.282 . S
Mn1837 O1861 2.215 . S
Mn1837 O1863 2.117 . S
C1838 O1860 1.234 . S
C1838 O1861 1.283 . S
C1839 O1851 1.281 . S
C1839 O1852 1.236 . S
C1840 O1862 1.240 . S
C1840 O1863 1.264 . S
O1841 Mn1836 2.095 . S
O1841 C1850 1.250 . S
O1842 Mn1837 2.121 . S
O1842 C1850 1.258 . S
C1843 N1844 1.326 . S
C1843 C1847 1.460 . S
C1843 H1849 0.929 . S
N1844 Mn1837 2.257 . S
N1844 C1843 1.326 . S
N1844 C1848 1.362 . S
C1845 C1846 1.258 . S
C1845 C1848 1.431 . S
C1845 C1865 1.449 . S
C1846 C1845 1.258 . S
C1846 C1847 1.477 . S
C1846 H1866 0.931 . S
C1847 C1843 1.460 . S
C1847 C1846 1.477 . S
C1847 H1867 0.930 . S
C1848 N1844 1.362 . S
C1848 C1845 1.431 . S
C1848 C1858 1.476 . S
H1849 C1843 0.929 . S
C1850 O1841 1.250 . S
C1850 O1842 1.258 . S
O1851 Mn1836 2.162 . S
O1851 C1839 1.281 . S
O1852 Mn1836 2.297 . S
O1852 C1839 1.236 . S
N1853 Mn1837 2.282 . S
N1853 C1854 1.328 . S
N1853 C1858 1.318 . S
C1854 N1853 1.328 . S
C1854 C1855 1.457 . S
C1854 H1859 0.929 . S
C1855 C1854 1.457 . S
C1855 C1856 1.291 . S
C1855 H1868 0.931 . S
C1856 C1855 1.291 . S
C1856 C1857 1.373 . S
C1856 H1869 0.929 . S
C1857 C1856 1.373 . S
C1857 C1858 1.396 . S
C1857 C1864 1.403 . S
C1858 C1848 1.476 . S
C1858 N1853 1.318 . S
C1858 C1857 1.396 . S
H1859 C1854 0.929 . S
O1860 Mn1836 2.385 . S
O1860 C1838 1.234 . S
O1861 Mn1836 2.209 . S
O1861 Mn1837 2.215 . S
O1861 C1838 1.283 . S
O1862 Mn1836 2.094 . S
O1862 C1840 1.240 . S
O1863 Mn1837 2.117 . S
O1863 C1840 1.264 . S
C1864 C1857 1.403 . S
C1864 C1865 1.399 . S
C1864 H1870 0.929 . S
C1865 C1845 1.449 . S
C1865 C1864 1.399 . S
C1865 H1871 0.930 . S
H1866 C1846 0.931 . S
H1867 C1847 0.930 . S
H1868 C1855 0.931 . S
H1869 C1856 0.929 . S
H1870 C1864 0.929 . S
H1871 C1865 0.930 . S
Mn1872 O1877 2.095 . S
Mn1872 O1887 2.162 . S
Mn1872 O1888 2.297 . S
Mn1872 O1896 2.385 . S
Mn1872 O1897 2.209 . S
Mn1872 O1898 2.094 . S
Mn1873 O1878 2.121 . S
Mn1873 N1880 2.257 . S
Mn1873 N1889 2.282 . S
Mn1873 O1897 2.215 . S
Mn1873 O1899 2.117 . S
C1874 O1896 1.234 . S
C1874 O1897 1.283 . S
C1875 O1887 1.281 . S
C1875 O1888 1.236 . S
C1876 O1898 1.240 . S
C1876 O1899 1.264 . S
O1877 Mn1872 2.095 . S
O1877 C1886 1.250 . S
O1878 Mn1873 2.121 . S
O1878 C1886 1.258 . S
C1879 N1880 1.326 . S
C1879 C1883 1.460 . S
C1879 H1885 0.929 . S
N1880 Mn1873 2.257 . S
N1880 C1879 1.326 . S
N1880 C1884 1.362 . S
C1881 C1882 1.258 . S
C1881 C1884 1.431 . S
C1881 C1901 1.449 . S
C1882 C1881 1.258 . S
C1882 C1883 1.477 . S
C1882 H1902 0.931 . S
C1883 C1879 1.460 . S
C1883 C1882 1.477 . S
C1883 H1903 0.930 . S
C1884 N1880 1.362 . S
C1884 C1881 1.431 . S
C1884 C1894 1.476 . S
H1885 C1879 0.929 . S
C1886 O1877 1.250 . S
C1886 O1878 1.258 . S
O1887 Mn1872 2.162 . S
O1887 C1875 1.281 . S
O1888 Mn1872 2.297 . S
O1888 C1875 1.236 . S
N1889 Mn1873 2.282 . S
N1889 C1890 1.328 . S
N1889 C1894 1.318 . S
C1890 N1889 1.328 . S
C1890 C1891 1.457 . S
C1890 H1895 0.929 . S
C1891 C1890 1.457 . S
C1891 C1892 1.291 . S
C1891 H1904 0.931 . S
C1892 C1891 1.291 . S
C1892 C1893 1.373 . S
C1892 H1905 0.929 . S
C1893 C1892 1.373 . S
C1893 C1894 1.396 . S
C1893 C1900 1.403 . S
C1894 C1884 1.476 . S
C1894 N1889 1.318 . S
C1894 C1893 1.396 . S
H1895 C1890 0.929 . S
O1896 Mn1872 2.385 . S
O1896 C1874 1.234 . S
O1897 Mn1872 2.209 . S
O1897 Mn1873 2.215 . S
O1897 C1874 1.283 . S
O1898 Mn1872 2.094 . S
O1898 C1876 1.240 . S
O1899 Mn1873 2.117 . S
O1899 C1876 1.264 . S
C1900 C1893 1.403 . S
C1900 C1901 1.399 . S
C1900 H1906 0.929 . S
C1901 C1881 1.449 . S
C1901 C1900 1.399 . S
C1901 H1907 0.930 . S
H1902 C1882 0.931 . S
H1903 C1883 0.930 . S
H1904 C1891 0.931 . S
H1905 C1892 0.929 . S
H1906 C1900 0.929 . S
H1907 C1901 0.930 . S
Mn1908 O1913 2.095 . S
Mn1908 O1923 2.162 . S
Mn1908 O1924 2.297 . S
Mn1908 O1932 2.385 . S
Mn1908 O1933 2.209 . S
Mn1908 O1934 2.094 . S
Mn1909 O1914 2.121 . S
Mn1909 N1916 2.257 . S
Mn1909 N1925 2.282 . S
Mn1909 O1933 2.215 . S
Mn1909 O1935 2.117 . S
C1910 O1932 1.234 . S
C1910 O1933 1.283 . S
C1911 O1923 1.281 . S
C1911 O1924 1.236 . S
C1912 O1934 1.240 . S
C1912 O1935 1.264 . S
O1913 Mn1908 2.095 . S
O1913 C1922 1.250 . S
O1914 Mn1909 2.121 . S
O1914 C1922 1.258 . S
C1915 N1916 1.326 . S
C1915 C1919 1.460 . S
C1915 H1921 0.929 . S
N1916 Mn1909 2.257 . S
N1916 C1915 1.326 . S
N1916 C1920 1.362 . S
C1917 C1918 1.258 . S
C1917 C1920 1.431 . S
C1917 C1937 1.449 . S
C1918 C1917 1.258 . S
C1918 C1919 1.477 . S
C1918 H1938 0.931 . S
C1919 C1915 1.460 . S
C1919 C1918 1.477 . S
C1919 H1939 0.930 . S
C1920 N1916 1.362 . S
C1920 C1917 1.431 . S
C1920 C1930 1.476 . S
H1921 C1915 0.929 . S
C1922 O1913 1.250 . S
C1922 O1914 1.258 . S
O1923 Mn1908 2.162 . S
O1923 C1911 1.281 . S
O1924 Mn1908 2.297 . S
O1924 C1911 1.236 . S
N1925 Mn1909 2.282 . S
N1925 C1926 1.328 . S
N1925 C1930 1.318 . S
C1926 N1925 1.328 . S
C1926 C1927 1.457 . S
C1926 H1931 0.929 . S
C1927 C1926 1.457 . S
C1927 C1928 1.291 . S
C1927 H1940 0.931 . S
C1928 C1927 1.291 . S
C1928 C1929 1.373 . S
C1928 H1941 0.929 . S
C1929 C1928 1.373 . S
C1929 C1930 1.396 . S
C1929 C1936 1.403 . S
C1930 C1920 1.476 . S
C1930 N1925 1.318 . S
C1930 C1929 1.396 . S
H1931 C1926 0.929 . S
O1932 Mn1908 2.385 . S
O1932 C1910 1.234 . S
O1933 Mn1908 2.209 . S
O1933 Mn1909 2.215 . S
O1933 C1910 1.283 . S
O1934 Mn1908 2.094 . S
O1934 C1912 1.240 . S
O1935 Mn1909 2.117 . S
O1935 C1912 1.264 . S
C1936 C1929 1.403 . S
C1936 C1937 1.399 . S
C1936 H1942 0.929 . S
C1937 C1917 1.449 . S
C1937 C1936 1.399 . S
C1937 H1943 0.930 . S
H1938 C1918 0.931 . S
H1939 C1919 0.930 . S
H1940 C1927 0.931 . S
H1941 C1928 0.929 . S
H1942 C1936 0.929 . S
H1943 C1937 0.930 . S
Mn1944 O1949 2.095 . S
Mn1944 O1959 2.162 . S
Mn1944 O1960 2.297 . S
Mn1944 O1968 2.385 . S
Mn1944 O1969 2.209 . S
Mn1944 O1970 2.094 . S
Mn1945 O1950 2.121 . S
Mn1945 N1952 2.257 . S
Mn1945 N1961 2.282 . S
Mn1945 O1969 2.215 . S
Mn1945 O1971 2.117 . S
C1946 O1968 1.234 . S
C1946 O1969 1.283 . S
C1947 O1959 1.281 . S
C1947 O1960 1.236 . S
C1948 O1970 1.240 . S
C1948 O1971 1.264 . S
O1949 Mn1944 2.095 . S
O1949 C1958 1.250 . S
O1950 Mn1945 2.121 . S
O1950 C1958 1.258 . S
C1951 N1952 1.326 . S
C1951 C1955 1.460 . S
C1951 H1957 0.929 . S
N1952 Mn1945 2.257 . S
N1952 C1951 1.326 . S
N1952 C1956 1.362 . S
C1953 C1954 1.258 . S
C1953 C1956 1.431 . S
C1953 C1973 1.449 . S
C1954 C1953 1.258 . S
C1954 C1955 1.477 . S
C1954 H1974 0.931 . S
C1955 C1951 1.460 . S
C1955 C1954 1.477 . S
C1955 H1975 0.930 . S
C1956 N1952 1.362 . S
C1956 C1953 1.431 . S
C1956 C1966 1.476 . S
H1957 C1951 0.929 . S
C1958 O1949 1.250 . S
C1958 O1950 1.258 . S
O1959 Mn1944 2.162 . S
O1959 C1947 1.281 . S
O1960 Mn1944 2.297 . S
O1960 C1947 1.236 . S
N1961 Mn1945 2.282 . S
N1961 C1962 1.328 . S
N1961 C1966 1.318 . S
C1962 N1961 1.328 . S
C1962 C1963 1.457 . S
C1962 H1967 0.929 . S
C1963 C1962 1.457 . S
C1963 C1964 1.291 . S
C1963 H1976 0.931 . S
C1964 C1963 1.291 . S
C1964 C1965 1.373 . S
C1964 H1977 0.929 . S
C1965 C1964 1.373 . S
C1965 C1966 1.396 . S
C1965 C1972 1.403 . S
C1966 C1956 1.476 . S
C1966 N1961 1.318 . S
C1966 C1965 1.396 . S
H1967 C1962 0.929 . S
O1968 Mn1944 2.385 . S
O1968 C1946 1.234 . S
O1969 Mn1944 2.209 . S
O1969 Mn1945 2.215 . S
O1969 C1946 1.283 . S
O1970 Mn1944 2.094 . S
O1970 C1948 1.240 . S
O1971 Mn1945 2.117 . S
O1971 C1948 1.264 . S
C1972 C1965 1.403 . S
C1972 C1973 1.399 . S
C1972 H1978 0.929 . S
C1973 C1953 1.449 . S
C1973 C1972 1.399 . S
C1973 H1979 0.930 . S
H1974 C1954 0.931 . S
H1975 C1955 0.930 . S
H1976 C1963 0.931 . S
H1977 C1964 0.929 . S
H1978 C1972 0.929 . S
H1979 C1973 0.930 . S
Mn1980 O1985 2.095 . S
Mn1980 O1995 2.162 . S
Mn1980 O1996 2.297 . S
Mn1980 O2004 2.385 . S
Mn1980 O2005 2.209 . S
Mn1980 O2006 2.094 . S
Mn1981 O1986 2.121 . S
Mn1981 N1988 2.257 . S
Mn1981 N1997 2.282 . S
Mn1981 O2005 2.215 . S
Mn1981 O2007 2.117 . S
C1982 O2004 1.234 . S
C1982 O2005 1.283 . S
C1983 O1995 1.281 . S
C1983 O1996 1.236 . S
C1984 O2006 1.240 . S
C1984 O2007 1.264 . S
O1985 Mn1980 2.095 . S
O1985 C1994 1.250 . S
O1986 Mn1981 2.121 . S
O1986 C1994 1.258 . S
C1987 N1988 1.326 . S
C1987 C1991 1.460 1_554 S
C1987 H1993 0.929 . S
N1988 Mn1981 2.257 . S
N1988 C1987 1.326 . S
N1988 C1992 1.362 . S
C1989 C1990 1.258 1_554 S
C1989 C1992 1.431 . S
C1989 C2009 1.449 . S
C1990 C1989 1.258 1_556 S
C1990 C1991 1.477 . S
C1990 H2010 0.931 . S
C1991 C1987 1.460 1_556 S
C1991 C1990 1.477 . S
C1991 H2011 0.930 . S
C1992 N1988 1.362 . S
C1992 C1989 1.431 . S
C1992 C2002 1.476 . S
H1993 C1987 0.929 . S
C1994 O1985 1.250 . S
C1994 O1986 1.258 . S
O1995 Mn1980 2.162 . S
O1995 C1983 1.281 . S
O1996 Mn1980 2.297 . S
O1996 C1983 1.236 . S
N1997 Mn1981 2.282 . S
N1997 C1998 1.328 . S
N1997 C2002 1.318 . S
C1998 N1997 1.328 . S
C1998 C1999 1.457 . S
C1998 H2003 0.929 . S
C1999 C1998 1.457 . S
C1999 C2000 1.291 . S
C1999 H2012 0.931 . S
C2000 C1999 1.291 . S
C2000 C2001 1.373 . S
C2000 H2013 0.929 . S
C2001 C2000 1.373 . S
C2001 C2002 1.396 . S
C2001 C2008 1.403 . S
C2002 C1992 1.476 . S
C2002 N1997 1.318 . S
C2002 C2001 1.396 . S
H2003 C1998 0.929 . S
O2004 Mn1980 2.385 . S
O2004 C1982 1.234 . S
O2005 Mn1980 2.209 . S
O2005 Mn1981 2.215 . S
O2005 C1982 1.283 . S
O2006 Mn1980 2.094 . S
O2006 C1984 1.240 . S
O2007 Mn1981 2.117 . S
O2007 C1984 1.264 . S
C2008 C2001 1.403 . S
C2008 C2009 1.399 . S
C2008 H2014 0.929 . S
C2009 C1989 1.449 . S
C2009 C2008 1.399 . S
C2009 H2015 0.930 . S
H2010 C1990 0.931 . S
H2011 C1991 0.930 . S
H2012 C1999 0.931 . S
H2013 C2000 0.929 . S
H2014 C2008 0.929 . S
H2015 C2009 0.930 . S
Mn2016 O2021 2.095 . S
Mn2016 O2031 2.162 . S
Mn2016 O2032 2.297 . S
Mn2016 O2040 2.385 . S
Mn2016 O2041 2.209 . S
Mn2016 O2042 2.094 . S
Mn2017 O2022 2.121 . S
Mn2017 N2024 2.257 . S
Mn2017 N2033 2.282 . S
Mn2017 O2041 2.215 . S
Mn2017 O2043 2.117 . S
C2018 O2040 1.234 . S
C2018 O2041 1.283 . S
C2019 O2031 1.281 . S
C2019 O2032 1.236 . S
C2020 O2042 1.240 . S
C2020 O2043 1.264 . S
O2021 Mn2016 2.095 . S
O2021 C2030 1.250 . S
O2022 Mn2017 2.121 . S
O2022 C2030 1.258 . S
C2023 N2024 1.326 . S
C2023 C2027 1.460 . S
C2023 H2029 0.929 . S
N2024 Mn2017 2.257 . S
N2024 C2023 1.326 . S
N2024 C2028 1.362 . S
C2025 C2026 1.258 . S
C2025 C2028 1.431 . S
C2025 C2045 1.449 . S
C2026 C2025 1.258 . S
C2026 C2027 1.477 . S
C2026 H2046 0.931 . S
C2027 C2023 1.460 . S
C2027 C2026 1.477 . S
C2027 H2047 0.930 . S
C2028 N2024 1.362 . S
C2028 C2025 1.431 . S
C2028 C2038 1.476 . S
H2029 C2023 0.929 . S
C2030 O2021 1.250 . S
C2030 O2022 1.258 . S
O2031 Mn2016 2.162 . S
O2031 C2019 1.281 . S
O2032 Mn2016 2.297 . S
O2032 C2019 1.236 . S
N2033 Mn2017 2.282 . S
N2033 C2034 1.328 . S
N2033 C2038 1.318 . S
C2034 N2033 1.328 . S
C2034 C2035 1.457 . S
C2034 H2039 0.929 . S
C2035 C2034 1.457 . S
C2035 C2036 1.291 . S
C2035 H2048 0.931 . S
C2036 C2035 1.291 . S
C2036 C2037 1.373 . S
C2036 H2049 0.929 . S
C2037 C2036 1.373 . S
C2037 C2038 1.396 . S
C2037 C2044 1.403 . S
C2038 C2028 1.476 . S
C2038 N2033 1.318 . S
C2038 C2037 1.396 . S
H2039 C2034 0.929 . S
O2040 Mn2016 2.385 . S
O2040 C2018 1.234 . S
O2041 Mn2016 2.209 . S
O2041 Mn2017 2.215 . S
O2041 C2018 1.283 . S
O2042 Mn2016 2.094 . S
O2042 C2020 1.240 . S
O2043 Mn2017 2.117 . S
O2043 C2020 1.264 . S
C2044 C2037 1.403 . S
C2044 C2045 1.399 . S
C2044 H2050 0.929 . S
C2045 C2025 1.449 . S
C2045 C2044 1.399 . S
C2045 H2051 0.930 . S
H2046 C2026 0.931 . S
H2047 C2027 0.930 . S
H2048 C2035 0.931 . S
H2049 C2036 0.929 . S
H2050 C2044 0.929 . S
H2051 C2045 0.930 . S
Mn2052 O2057 2.095 . S
Mn2052 O2067 2.162 . S
Mn2052 O2068 2.297 . S
Mn2052 O2076 2.385 . S
Mn2052 O2077 2.209 . S
Mn2052 O2078 2.094 . S
Mn2053 O2058 2.121 . S
Mn2053 N2060 2.257 . S
Mn2053 N2069 2.282 . S
Mn2053 O2077 2.215 . S
Mn2053 O2079 2.117 . S
C2054 O2076 1.234 . S
C2054 O2077 1.283 . S
C2055 O2067 1.281 . S
C2055 O2068 1.236 . S
C2056 O2078 1.240 . S
C2056 O2079 1.264 . S
O2057 Mn2052 2.095 . S
O2057 C2066 1.250 . S
O2058 Mn2053 2.121 . S
O2058 C2066 1.258 . S
C2059 N2060 1.326 . S
C2059 C2063 1.460 . S
C2059 H2065 0.929 . S
N2060 Mn2053 2.257 . S
N2060 C2059 1.326 . S
N2060 C2064 1.362 . S
C2061 C2062 1.258 . S
C2061 C2064 1.431 . S
C2061 C2081 1.449 . S
C2062 C2061 1.258 . S
C2062 C2063 1.477 . S
C2062 H2082 0.931 . S
C2063 C2059 1.460 . S
C2063 C2062 1.477 . S
C2063 H2083 0.930 . S
C2064 N2060 1.362 . S
C2064 C2061 1.431 . S
C2064 C2074 1.476 . S
H2065 C2059 0.929 . S
C2066 O2057 1.250 . S
C2066 O2058 1.258 . S
O2067 Mn2052 2.162 . S
O2067 C2055 1.281 . S
O2068 Mn2052 2.297 . S
O2068 C2055 1.236 . S
N2069 Mn2053 2.282 . S
N2069 C2070 1.328 . S
N2069 C2074 1.318 . S
C2070 N2069 1.328 . S
C2070 C2071 1.457 . S
C2070 H2075 0.929 . S
C2071 C2070 1.457 . S
C2071 C2072 1.291 . S
C2071 H2084 0.931 . S
C2072 C2071 1.291 . S
C2072 C2073 1.373 . S
C2072 H2085 0.929 . S
C2073 C2072 1.373 . S
C2073 C2074 1.396 . S
C2073 C2080 1.403 . S
C2074 C2064 1.476 . S
C2074 N2069 1.318 . S
C2074 C2073 1.396 . S
H2075 C2070 0.929 . S
O2076 Mn2052 2.385 . S
O2076 C2054 1.234 . S
O2077 Mn2052 2.209 . S
O2077 Mn2053 2.215 . S
O2077 C2054 1.283 . S
O2078 Mn2052 2.094 . S
O2078 C2056 1.240 . S
O2079 Mn2053 2.117 . S
O2079 C2056 1.264 . S
C2080 C2073 1.403 . S
C2080 C2081 1.399 . S
C2080 H2086 0.929 . S
C2081 C2061 1.449 . S
C2081 C2080 1.399 . S
C2081 H2087 0.930 . S
H2082 C2062 0.931 . S
H2083 C2063 0.930 . S
H2084 C2071 0.931 . S
H2085 C2072 0.929 . S
H2086 C2080 0.929 . S
H2087 C2081 0.930 . S
Mn2088 O2093 2.095 . S
Mn2088 O2103 2.162 . S
Mn2088 O2104 2.297 . S
Mn2088 O2112 2.385 . S
Mn2088 O2113 2.209 . S
Mn2088 O2114 2.094 . S
Mn2089 O2094 2.121 . S
Mn2089 N2096 2.257 . S
Mn2089 N2105 2.282 . S
Mn2089 O2113 2.215 . S
Mn2089 O2115 2.117 . S
C2090 O2112 1.234 . S
C2090 O2113 1.283 . S
C2091 O2103 1.281 . S
C2091 O2104 1.236 . S
C2092 O2114 1.240 . S
C2092 O2115 1.264 . S
O2093 Mn2088 2.095 . S
O2093 C2102 1.250 . S
O2094 Mn2089 2.121 . S
O2094 C2102 1.258 . S
C2095 N2096 1.326 . S
C2095 C2099 1.460 . S
C2095 H2101 0.929 . S
N2096 Mn2089 2.257 . S
N2096 C2095 1.326 . S
N2096 C2100 1.362 . S
C2097 C2098 1.258 . S
C2097 C2100 1.431 . S
C2097 C2117 1.449 . S
C2098 C2097 1.258 . S
C2098 C2099 1.477 . S
C2098 H2118 0.931 . S
C2099 C2095 1.460 . S
C2099 C2098 1.477 . S
C2099 H2119 0.930 . S
C2100 N2096 1.362 . S
C2100 C2097 1.431 . S
C2100 C2110 1.476 . S
H2101 C2095 0.929 . S
C2102 O2093 1.250 . S
C2102 O2094 1.258 . S
O2103 Mn2088 2.162 . S
O2103 C2091 1.281 . S
O2104 Mn2088 2.297 . S
O2104 C2091 1.236 . S
N2105 Mn2089 2.282 . S
N2105 C2106 1.328 . S
N2105 C2110 1.318 . S
C2106 N2105 1.328 . S
C2106 C2107 1.457 . S
C2106 H2111 0.929 . S
C2107 C2106 1.457 . S
C2107 C2108 1.291 . S
C2107 H2120 0.931 . S
C2108 C2107 1.291 . S
C2108 C2109 1.373 . S
C2108 H2121 0.929 . S
C2109 C2108 1.373 . S
C2109 C2110 1.396 . S
C2109 C2116 1.403 . S
C2110 C2100 1.476 . S
C2110 N2105 1.318 . S
C2110 C2109 1.396 . S
H2111 C2106 0.929 . S
O2112 Mn2088 2.385 . S
O2112 C2090 1.234 . S
O2113 Mn2088 2.209 . S
O2113 Mn2089 2.215 . S
O2113 C2090 1.283 . S
O2114 Mn2088 2.094 . S
O2114 C2092 1.240 . S
O2115 Mn2089 2.117 . S
O2115 C2092 1.264 . S
C2116 C2109 1.403 . S
C2116 C2117 1.399 . S
C2116 H2122 0.929 . S
C2117 C2097 1.449 . S
C2117 C2116 1.399 . S
C2117 H2123 0.930 . S
H2118 C2098 0.931 . S
H2119 C2099 0.930 . S
H2120 C2107 0.931 . S
H2121 C2108 0.929 . S
H2122 C2116 0.929 . S
H2123 C2117 0.930 . S
Mn2124 O2129 2.095 . S
Mn2124 O2139 2.162 . S
Mn2124 O2140 2.297 . S
Mn2124 O2148 2.385 . S
Mn2124 O2149 2.209 . S
Mn2124 O2150 2.094 . S
Mn2125 O2130 2.121 . S
Mn2125 N2132 2.257 . S
Mn2125 N2141 2.282 . S
Mn2125 O2149 2.215 . S
Mn2125 O2151 2.117 . S
C2126 O2148 1.234 . S
C2126 O2149 1.283 . S
C2127 O2139 1.281 . S
C2127 O2140 1.236 . S
C2128 O2150 1.240 . S
C2128 O2151 1.264 . S
O2129 Mn2124 2.095 . S
O2129 C2138 1.250 . S
O2130 Mn2125 2.121 . S
O2130 C2138 1.258 . S
C2131 N2132 1.326 . S
C2131 C2135 1.460 1_545 S
C2131 H2137 0.929 . S
N2132 Mn2125 2.257 . S
N2132 C2131 1.326 . S
N2132 C2136 1.362 . S
C2133 C2134 1.258 1_545 S
C2133 C2136 1.431 . S
C2133 C2153 1.449 . S
C2134 C2133 1.258 1_565 S
C2134 C2135 1.477 . S
C2134 H2154 0.931 . S
C2135 C2131 1.460 1_565 S
C2135 C2134 1.477 . S
C2135 H2155 0.930 . S
C2136 N2132 1.362 . S
C2136 C2133 1.431 . S
C2136 C2146 1.476 . S
H2137 C2131 0.929 . S
C2138 O2129 1.250 . S
C2138 O2130 1.258 . S
O2139 Mn2124 2.162 . S
O2139 C2127 1.281 . S
O2140 Mn2124 2.297 . S
O2140 C2127 1.236 . S
N2141 Mn2125 2.282 . S
N2141 C2142 1.328 . S
N2141 C2146 1.318 . S
C2142 N2141 1.328 . S
C2142 C2143 1.457 . S
C2142 H2147 0.929 . S
C2143 C2142 1.457 . S
C2143 C2144 1.291 . S
C2143 H2156 0.931 . S
C2144 C2143 1.291 . S
C2144 C2145 1.373 . S
C2144 H2157 0.929 . S
C2145 C2144 1.373 . S
C2145 C2146 1.396 . S
C2145 C2152 1.403 . S
C2146 C2136 1.476 . S
C2146 N2141 1.318 . S
C2146 C2145 1.396 . S
H2147 C2142 0.929 . S
O2148 Mn2124 2.385 . S
O2148 C2126 1.234 . S
O2149 Mn2124 2.209 . S
O2149 Mn2125 2.215 . S
O2149 C2126 1.283 . S
O2150 Mn2124 2.094 . S
O2150 C2128 1.240 . S
O2151 Mn2125 2.117 . S
O2151 C2128 1.264 . S
C2152 C2145 1.403 . S
C2152 C2153 1.399 . S
C2152 H2158 0.929 . S
C2153 C2133 1.449 . S
C2153 C2152 1.399 . S
C2153 H2159 0.930 . S
H2154 C2134 0.931 . S
H2155 C2135 0.930 . S
H2156 C2143 0.931 . S
H2157 C2144 0.929 . S
H2158 C2152 0.929 . S
H2159 C2153 0.930 . S
Mn2160 O2165 2.095 . S
Mn2160 O2175 2.162 . S
Mn2160 O2176 2.297 . S
Mn2160 O2184 2.385 . S
Mn2160 O2185 2.209 . S
Mn2160 O2186 2.094 . S
Mn2161 O2166 2.121 . S
Mn2161 N2168 2.257 . S
Mn2161 N2177 2.282 . S
Mn2161 O2185 2.215 . S
Mn2161 O2187 2.117 . S
C2162 O2184 1.234 . S
C2162 O2185 1.283 . S
C2163 O2175 1.281 . S
C2163 O2176 1.236 . S
C2164 O2186 1.240 . S
C2164 O2187 1.264 . S
O2165 Mn2160 2.095 . S
O2165 C2174 1.250 . S
O2166 Mn2161 2.121 . S
O2166 C2174 1.258 . S
C2167 N2168 1.326 . S
C2167 C2171 1.460 . S
C2167 H2173 0.929 . S
N2168 Mn2161 2.257 . S
N2168 C2167 1.326 . S
N2168 C2172 1.362 . S
C2169 C2170 1.258 . S
C2169 C2172 1.431 . S
C2169 C2189 1.449 . S
C2170 C2169 1.258 . S
C2170 C2171 1.477 . S
C2170 H2190 0.931 . S
C2171 C2167 1.460 . S
C2171 C2170 1.477 . S
C2171 H2191 0.930 . S
C2172 N2168 1.362 . S
C2172 C2169 1.431 . S
C2172 C2182 1.476 . S
H2173 C2167 0.929 . S
C2174 O2165 1.250 . S
C2174 O2166 1.258 . S
O2175 Mn2160 2.162 . S
O2175 C2163 1.281 . S
O2176 Mn2160 2.297 . S
O2176 C2163 1.236 . S
N2177 Mn2161 2.282 . S
N2177 C2178 1.328 . S
N2177 C2182 1.318 . S
C2178 N2177 1.328 . S
C2178 C2179 1.457 . S
C2178 H2183 0.929 . S
C2179 C2178 1.457 . S
C2179 C2180 1.291 . S
C2179 H2192 0.931 . S
C2180 C2179 1.291 . S
C2180 C2181 1.373 . S
C2180 H2193 0.929 . S
C2181 C2180 1.373 . S
C2181 C2182 1.396 . S
C2181 C2188 1.403 . S
C2182 C2172 1.476 . S
C2182 N2177 1.318 . S
C2182 C2181 1.396 . S
H2183 C2178 0.929 . S
O2184 Mn2160 2.385 . S
O2184 C2162 1.234 . S
O2185 Mn2160 2.209 . S
O2185 Mn2161 2.215 . S
O2185 C2162 1.283 . S
O2186 Mn2160 2.094 . S
O2186 C2164 1.240 . S
O2187 Mn2161 2.117 . S
O2187 C2164 1.264 . S
C2188 C2181 1.403 . S
C2188 C2189 1.399 . S
C2188 H2194 0.929 . S
C2189 C2169 1.449 . S
C2189 C2188 1.399 . S
C2189 H2195 0.930 . S
H2190 C2170 0.931 . S
H2191 C2171 0.930 . S
H2192 C2179 0.931 . S
H2193 C2180 0.929 . S
H2194 C2188 0.929 . S
H2195 C2189 0.930 . S
Mn2196 O2201 2.095 . S
Mn2196 O2211 2.162 . S
Mn2196 O2212 2.297 . S
Mn2196 O2220 2.385 . S
Mn2196 O2221 2.209 . S
Mn2196 O2222 2.094 . S
Mn2197 O2202 2.121 . S
Mn2197 N2204 2.257 . S
Mn2197 N2213 2.282 . S
Mn2197 O2221 2.215 . S
Mn2197 O2223 2.117 . S
C2198 O2220 1.234 . S
C2198 O2221 1.283 . S
C2199 O2211 1.281 . S
C2199 O2212 1.236 . S
C2200 O2222 1.240 . S
C2200 O2223 1.264 . S
O2201 Mn2196 2.095 . S
O2201 C2210 1.250 . S
O2202 Mn2197 2.121 . S
O2202 C2210 1.258 . S
C2203 N2204 1.326 . S
C2203 C2207 1.460 . S
C2203 H2209 0.929 . S
N2204 Mn2197 2.257 . S
N2204 C2203 1.326 . S
N2204 C2208 1.362 . S
C2205 C2206 1.258 . S
C2205 C2208 1.431 . S
C2205 C2225 1.449 . S
C2206 C2205 1.258 . S
C2206 C2207 1.477 . S
C2206 H2226 0.931 . S
C2207 C2203 1.460 . S
C2207 C2206 1.477 . S
C2207 H2227 0.930 . S
C2208 N2204 1.362 . S
C2208 C2205 1.431 . S
C2208 C2218 1.476 . S
H2209 C2203 0.929 . S
C2210 O2201 1.250 . S
C2210 O2202 1.258 . S
O2211 Mn2196 2.162 . S
O2211 C2199 1.281 . S
O2212 Mn2196 2.297 . S
O2212 C2199 1.236 . S
N2213 Mn2197 2.282 . S
N2213 C2214 1.328 . S
N2213 C2218 1.318 . S
C2214 N2213 1.328 . S
C2214 C2215 1.457 . S
C2214 H2219 0.929 . S
C2215 C2214 1.457 . S
C2215 C2216 1.291 . S
C2215 H2228 0.931 . S
C2216 C2215 1.291 . S
C2216 C2217 1.373 . S
C2216 H2229 0.929 . S
C2217 C2216 1.373 . S
C2217 C2218 1.396 . S
C2217 C2224 1.403 . S
C2218 C2208 1.476 . S
C2218 N2213 1.318 . S
C2218 C2217 1.396 . S
H2219 C2214 0.929 . S
O2220 Mn2196 2.385 . S
O2220 C2198 1.234 . S
O2221 Mn2196 2.209 . S
O2221 Mn2197 2.215 . S
O2221 C2198 1.283 . S
O2222 Mn2196 2.094 . S
O2222 C2200 1.240 . S
O2223 Mn2197 2.117 . S
O2223 C2200 1.264 . S
C2224 C2217 1.403 . S
C2224 C2225 1.399 . S
C2224 H2230 0.929 . S
C2225 C2205 1.449 . S
C2225 C2224 1.399 . S
C2225 H2231 0.930 . S
H2226 C2206 0.931 . S
H2227 C2207 0.930 . S
H2228 C2215 0.931 . S
H2229 C2216 0.929 . S
H2230 C2224 0.929 . S
H2231 C2225 0.930 . S
Mn2232 O2237 2.095 . S
Mn2232 O2247 2.162 . S
Mn2232 O2248 2.297 . S
Mn2232 O2256 2.385 . S
Mn2232 O2257 2.209 . S
Mn2232 O2258 2.094 . S
Mn2233 O2238 2.121 . S
Mn2233 N2240 2.257 . S
Mn2233 N2249 2.282 . S
Mn2233 O2257 2.215 . S
Mn2233 O2259 2.117 . S
C2234 O2256 1.234 . S
C2234 O2257 1.283 . S
C2235 O2247 1.281 . S
C2235 O2248 1.236 . S
C2236 O2258 1.240 . S
C2236 O2259 1.264 . S
O2237 Mn2232 2.095 . S
O2237 C2246 1.250 . S
O2238 Mn2233 2.121 . S
O2238 C2246 1.258 . S
C2239 N2240 1.326 . S
C2239 C2243 1.460 . S
C2239 H2245 0.929 . S
N2240 Mn2233 2.257 . S
N2240 C2239 1.326 . S
N2240 C2244 1.362 . S
C2241 C2242 1.258 . S
C2241 C2244 1.431 . S
C2241 C2261 1.449 . S
C2242 C2241 1.258 . S
C2242 C2243 1.477 . S
C2242 H2262 0.931 . S
C2243 C2239 1.460 . S
C2243 C2242 1.477 . S
C2243 H2263 0.930 . S
C2244 N2240 1.362 . S
C2244 C2241 1.431 . S
C2244 C2254 1.476 . S
H2245 C2239 0.929 . S
C2246 O2237 1.250 . S
C2246 O2238 1.258 . S
O2247 Mn2232 2.162 . S
O2247 C2235 1.281 . S
O2248 Mn2232 2.297 . S
O2248 C2235 1.236 . S
N2249 Mn2233 2.282 . S
N2249 C2250 1.328 . S
N2249 C2254 1.318 . S
C2250 N2249 1.328 . S
C2250 C2251 1.457 . S
C2250 H2255 0.929 . S
C2251 C2250 1.457 . S
C2251 C2252 1.291 . S
C2251 H2264 0.931 . S
C2252 C2251 1.291 . S
C2252 C2253 1.373 . S
C2252 H2265 0.929 . S
C2253 C2252 1.373 . S
C2253 C2254 1.396 . S
C2253 C2260 1.403 . S
C2254 C2244 1.476 . S
C2254 N2249 1.318 . S
C2254 C2253 1.396 . S
H2255 C2250 0.929 . S
O2256 Mn2232 2.385 . S
O2256 C2234 1.234 . S
O2257 Mn2232 2.209 . S
O2257 Mn2233 2.215 . S
O2257 C2234 1.283 . S
O2258 Mn2232 2.094 . S
O2258 C2236 1.240 . S
O2259 Mn2233 2.117 . S
O2259 C2236 1.264 . S
C2260 C2253 1.403 . S
C2260 C2261 1.399 . S
C2260 H2266 0.929 . S
C2261 C2241 1.449 . S
C2261 C2260 1.399 . S
C2261 H2267 0.930 . S
H2262 C2242 0.931 . S
H2263 C2243 0.930 . S
H2264 C2251 0.931 . S
H2265 C2252 0.929 . S
H2266 C2260 0.929 . S
H2267 C2261 0.930 . S
Mn2268 O2273 2.095 . S
Mn2268 O2283 2.162 . S
Mn2268 O2284 2.297 . S
Mn2268 O2292 2.385 . S
Mn2268 O2293 2.209 . S
Mn2268 O2294 2.094 . S
Mn2269 O2274 2.121 . S
Mn2269 N2276 2.257 . S
Mn2269 N2285 2.282 . S
Mn2269 O2293 2.215 . S
Mn2269 O2295 2.117 . S
C2270 O2292 1.234 . S
C2270 O2293 1.283 . S
C2271 O2283 1.281 . S
C2271 O2284 1.236 . S
C2272 O2294 1.240 . S
C2272 O2295 1.264 . S
O2273 Mn2268 2.095 . S
O2273 C2282 1.250 . S
O2274 Mn2269 2.121 . S
O2274 C2282 1.258 . S
C2275 N2276 1.326 . S
C2275 C2279 1.460 1_545 S
C2275 H2281 0.929 . S
N2276 Mn2269 2.257 . S
N2276 C2275 1.326 . S
N2276 C2280 1.362 . S
C2277 C2278 1.258 1_545 S
C2277 C2280 1.431 . S
C2277 C2297 1.449 . S
C2278 C2277 1.258 1_565 S
C2278 C2279 1.477 . S
C2278 H2298 0.931 . S
C2279 C2275 1.460 1_565 S
C2279 C2278 1.477 . S
C2279 H2299 0.930 . S
C2280 N2276 1.362 . S
C2280 C2277 1.431 . S
C2280 C2290 1.476 . S
H2281 C2275 0.929 . S
C2282 O2273 1.250 . S
C2282 O2274 1.258 . S
O2283 Mn2268 2.162 . S
O2283 C2271 1.281 . S
O2284 Mn2268 2.297 . S
O2284 C2271 1.236 . S
N2285 Mn2269 2.282 . S
N2285 C2286 1.328 . S
N2285 C2290 1.318 . S
C2286 N2285 1.328 . S
C2286 C2287 1.457 . S
C2286 H2291 0.929 . S
C2287 C2286 1.457 . S
C2287 C2288 1.291 . S
C2287 H2300 0.931 . S
C2288 C2287 1.291 . S
C2288 C2289 1.373 . S
C2288 H2301 0.929 . S
C2289 C2288 1.373 . S
C2289 C2290 1.396 . S
C2289 C2296 1.403 . S
C2290 C2280 1.476 . S
C2290 N2285 1.318 . S
C2290 C2289 1.396 . S
H2291 C2286 0.929 . S
O2292 Mn2268 2.385 . S
O2292 C2270 1.234 . S
O2293 Mn2268 2.209 . S
O2293 Mn2269 2.215 . S
O2293 C2270 1.283 . S
O2294 Mn2268 2.094 . S
O2294 C2272 1.240 . S
O2295 Mn2269 2.117 . S
O2295 C2272 1.264 . S
C2296 C2289 1.403 . S
C2296 C2297 1.399 . S
C2296 H2302 0.929 . S
C2297 C2277 1.449 . S
C2297 C2296 1.399 . S
C2297 H2303 0.930 . S
H2298 C2278 0.931 . S
H2299 C2279 0.930 . S
H2300 C2287 0.931 . S
H2301 C2288 0.929 . S
H2302 C2296 0.929 . S
H2303 C2297 0.930 . S
Mn2304 O2309 2.095 . S
Mn2304 O2319 2.162 . S
Mn2304 O2320 2.297 . S
Mn2304 O2328 2.385 . S
Mn2304 O2329 2.209 . S
Mn2304 O2330 2.094 . S
Mn2305 O2310 2.121 . S
Mn2305 N2312 2.257 . S
Mn2305 N2321 2.282 . S
Mn2305 O2329 2.215 . S
Mn2305 O2331 2.117 . S
C2306 O2328 1.234 . S
C2306 O2329 1.283 . S
C2307 O2319 1.281 . S
C2307 O2320 1.236 . S
C2308 O2330 1.240 . S
C2308 O2331 1.264 . S
O2309 Mn2304 2.095 . S
O2309 C2318 1.250 . S
O2310 Mn2305 2.121 . S
O2310 C2318 1.258 . S
C2311 N2312 1.326 . S
C2311 C2315 1.460 1_565 S
C2311 H2317 0.929 . S
N2312 Mn2305 2.257 . S
N2312 C2311 1.326 . S
N2312 C2316 1.362 . S
C2313 C2314 1.258 1_565 S
C2313 C2316 1.431 . S
C2313 C2333 1.449 . S
C2314 C2313 1.258 1_545 S
C2314 C2315 1.477 . S
C2314 H2334 0.931 . S
C2315 C2311 1.460 1_545 S
C2315 C2314 1.477 . S
C2315 H2335 0.930 . S
C2316 N2312 1.362 . S
C2316 C2313 1.431 . S
C2316 C2326 1.476 . S
H2317 C2311 0.929 . S
C2318 O2309 1.250 . S
C2318 O2310 1.258 . S
O2319 Mn2304 2.162 . S
O2319 C2307 1.281 . S
O2320 Mn2304 2.297 . S
O2320 C2307 1.236 . S
N2321 Mn2305 2.282 . S
N2321 C2322 1.328 . S
N2321 C2326 1.318 . S
C2322 N2321 1.328 . S
C2322 C2323 1.457 . S
C2322 H2327 0.929 . S
C2323 C2322 1.457 . S
C2323 C2324 1.291 . S
C2323 H2336 0.931 . S
C2324 C2323 1.291 . S
C2324 C2325 1.373 . S
C2324 H2337 0.929 . S
C2325 C2324 1.373 . S
C2325 C2326 1.396 . S
C2325 C2332 1.403 . S
C2326 C2316 1.476 . S
C2326 N2321 1.318 . S
C2326 C2325 1.396 . S
H2327 C2322 0.929 . S
O2328 Mn2304 2.385 . S
O2328 C2306 1.234 . S
O2329 Mn2304 2.209 . S
O2329 Mn2305 2.215 . S
O2329 C2306 1.283 . S
O2330 Mn2304 2.094 . S
O2330 C2308 1.240 . S
O2331 Mn2305 2.117 . S
O2331 C2308 1.264 . S
C2332 C2325 1.403 . S
C2332 C2333 1.399 . S
C2332 H2338 0.929 . S
C2333 C2313 1.449 . S
C2333 C2332 1.399 . S
C2333 H2339 0.930 . S
H2334 C2314 0.931 . S
H2335 C2315 0.930 . S
H2336 C2323 0.931 . S
H2337 C2324 0.929 . S
H2338 C2332 0.929 . S
H2339 C2333 0.930 . S
Mn2340 O2345 2.095 . S
Mn2340 O2355 2.162 . S
Mn2340 O2356 2.297 . S
Mn2340 O2364 2.385 . S
Mn2340 O2365 2.209 . S
Mn2340 O2366 2.094 . S
Mn2341 O2346 2.121 . S
Mn2341 N2348 2.257 . S
Mn2341 N2357 2.282 . S
Mn2341 O2365 2.215 . S
Mn2341 O2367 2.117 . S
C2342 O2364 1.234 . S
C2342 O2365 1.283 . S
C2343 O2355 1.281 . S
C2343 O2356 1.236 . S
C2344 O2366 1.240 . S
C2344 O2367 1.264 . S
O2345 Mn2340 2.095 . S
O2345 C2354 1.250 . S
O2346 Mn2341 2.121 . S
O2346 C2354 1.258 . S
C2347 N2348 1.326 . S
C2347 C2351 1.460 . S
C2347 H2353 0.929 . S
N2348 Mn2341 2.257 . S
N2348 C2347 1.326 . S
N2348 C2352 1.362 . S
C2349 C2350 1.258 . S
C2349 C2352 1.431 . S
C2349 C2369 1.449 . S
C2350 C2349 1.258 . S
C2350 C2351 1.477 . S
C2350 H2370 0.931 . S
C2351 C2347 1.460 . S
C2351 C2350 1.477 . S
C2351 H2371 0.930 . S
C2352 N2348 1.362 . S
C2352 C2349 1.431 . S
C2352 C2362 1.476 . S
H2353 C2347 0.929 . S
C2354 O2345 1.250 . S
C2354 O2346 1.258 . S
O2355 Mn2340 2.162 . S
O2355 C2343 1.281 . S
O2356 Mn2340 2.297 . S
O2356 C2343 1.236 . S
N2357 Mn2341 2.282 . S
N2357 C2358 1.328 . S
N2357 C2362 1.318 . S
C2358 N2357 1.328 . S
C2358 C2359 1.457 . S
C2358 H2363 0.929 . S
C2359 C2358 1.457 . S
C2359 C2360 1.291 . S
C2359 H2372 0.931 . S
C2360 C2359 1.291 . S
C2360 C2361 1.373 . S
C2360 H2373 0.929 . S
C2361 C2360 1.373 . S
C2361 C2362 1.396 . S
C2361 C2368 1.403 . S
C2362 C2352 1.476 . S
C2362 N2357 1.318 . S
C2362 C2361 1.396 . S
H2363 C2358 0.929 . S
O2364 Mn2340 2.385 . S
O2364 C2342 1.234 . S
O2365 Mn2340 2.209 . S
O2365 Mn2341 2.215 . S
O2365 C2342 1.283 . S
O2366 Mn2340 2.094 . S
O2366 C2344 1.240 . S
O2367 Mn2341 2.117 . S
O2367 C2344 1.264 . S
C2368 C2361 1.403 . S
C2368 C2369 1.399 . S
C2368 H2374 0.929 . S
C2369 C2349 1.449 . S
C2369 C2368 1.399 . S
C2369 H2375 0.930 . S
H2370 C2350 0.931 . S
H2371 C2351 0.930 . S
H2372 C2359 0.931 . S
H2373 C2360 0.929 . S
H2374 C2368 0.929 . S
H2375 C2369 0.930 . S
Mn2376 O2381 2.095 . S
Mn2376 O2391 2.162 . S
Mn2376 O2392 2.297 . S
Mn2376 O2400 2.385 . S
Mn2376 O2401 2.209 . S
Mn2376 O2402 2.094 . S
Mn2377 O2382 2.121 . S
Mn2377 N2384 2.257 . S
Mn2377 N2393 2.282 . S
Mn2377 O2401 2.215 . S
Mn2377 O2403 2.117 . S
C2378 O2400 1.234 . S
C2378 O2401 1.283 . S
C2379 O2391 1.281 . S
C2379 O2392 1.236 . S
C2380 O2402 1.240 . S
C2380 O2403 1.264 . S
O2381 Mn2376 2.095 . S
O2381 C2390 1.250 . S
O2382 Mn2377 2.121 . S
O2382 C2390 1.258 . S
C2383 N2384 1.326 . S
C2383 C2387 1.460 . S
C2383 H2389 0.929 . S
N2384 Mn2377 2.257 . S
N2384 C2383 1.326 . S
N2384 C2388 1.362 . S
C2385 C2386 1.258 . S
C2385 C2388 1.431 . S
C2385 C2405 1.449 . S
C2386 C2385 1.258 . S
C2386 C2387 1.477 . S
C2386 H2406 0.931 . S
C2387 C2383 1.460 . S
C2387 C2386 1.477 . S
C2387 H2407 0.930 . S
C2388 N2384 1.362 . S
C2388 C2385 1.431 . S
C2388 C2398 1.476 . S
H2389 C2383 0.929 . S
C2390 O2381 1.250 . S
C2390 O2382 1.258 . S
O2391 Mn2376 2.162 . S
O2391 C2379 1.281 . S
O2392 Mn2376 2.297 . S
O2392 C2379 1.236 . S
N2393 Mn2377 2.282 . S
N2393 C2394 1.328 . S
N2393 C2398 1.318 . S
C2394 N2393 1.328 . S
C2394 C2395 1.457 . S
C2394 H2399 0.929 . S
C2395 C2394 1.457 . S
C2395 C2396 1.291 . S
C2395 H2408 0.931 . S
C2396 C2395 1.291 . S
C2396 C2397 1.373 . S
C2396 H2409 0.929 . S
C2397 C2396 1.373 . S
C2397 C2398 1.396 . S
C2397 C2404 1.403 . S
C2398 C2388 1.476 . S
C2398 N2393 1.318 . S
C2398 C2397 1.396 . S
H2399 C2394 0.929 . S
O2400 Mn2376 2.385 . S
O2400 C2378 1.234 . S
O2401 Mn2376 2.209 . S
O2401 Mn2377 2.215 . S
O2401 C2378 1.283 . S
O2402 Mn2376 2.094 . S
O2402 C2380 1.240 . S
O2403 Mn2377 2.117 . S
O2403 C2380 1.264 . S
C2404 C2397 1.403 . S
C2404 C2405 1.399 . S
C2404 H2410 0.929 . S
C2405 C2385 1.449 . S
C2405 C2404 1.399 . S
C2405 H2411 0.930 . S
H2406 C2386 0.931 . S
H2407 C2387 0.930 . S
H2408 C2395 0.931 . S
H2409 C2396 0.929 . S
H2410 C2404 0.929 . S
H2411 C2405 0.930 . S
Mn2412 O2417 2.095 . S
Mn2412 O2427 2.162 . S
Mn2412 O2428 2.297 . S
Mn2412 O2436 2.385 . S
Mn2412 O2437 2.209 . S
Mn2412 O2438 2.094 . S
Mn2413 O2418 2.121 . S
Mn2413 N2420 2.257 . S
Mn2413 N2429 2.282 . S
Mn2413 O2437 2.215 . S
Mn2413 O2439 2.117 . S
C2414 O2436 1.234 . S
C2414 O2437 1.283 . S
C2415 O2427 1.281 . S
C2415 O2428 1.236 . S
C2416 O2438 1.240 . S
C2416 O2439 1.264 . S
O2417 Mn2412 2.095 . S
O2417 C2426 1.250 . S
O2418 Mn2413 2.121 . S
O2418 C2426 1.258 . S
C2419 N2420 1.326 . S
C2419 C2423 1.460 . S
C2419 H2425 0.929 . S
N2420 Mn2413 2.257 . S
N2420 C2419 1.326 . S
N2420 C2424 1.362 . S
C2421 C2422 1.258 . S
C2421 C2424 1.431 . S
C2421 C2441 1.449 . S
C2422 C2421 1.258 . S
C2422 C2423 1.477 . S
C2422 H2442 0.931 . S
C2423 C2419 1.460 . S
C2423 C2422 1.477 . S
C2423 H2443 0.930 . S
C2424 N2420 1.362 . S
C2424 C2421 1.431 . S
C2424 C2434 1.476 . S
H2425 C2419 0.929 . S
C2426 O2417 1.250 . S
C2426 O2418 1.258 . S
O2427 Mn2412 2.162 . S
O2427 C2415 1.281 . S
O2428 Mn2412 2.297 . S
O2428 C2415 1.236 . S
N2429 Mn2413 2.282 . S
N2429 C2430 1.328 . S
N2429 C2434 1.318 . S
C2430 N2429 1.328 . S
C2430 C2431 1.457 . S
C2430 H2435 0.929 . S
C2431 C2430 1.457 . S
C2431 C2432 1.291 . S
C2431 H2444 0.931 . S
C2432 C2431 1.291 . S
C2432 C2433 1.373 . S
C2432 H2445 0.929 . S
C2433 C2432 1.373 . S
C2433 C2434 1.396 . S
C2433 C2440 1.403 . S
C2434 C2424 1.476 . S
C2434 N2429 1.318 . S
C2434 C2433 1.396 . S
H2435 C2430 0.929 . S
O2436 Mn2412 2.385 . S
O2436 C2414 1.234 . S
O2437 Mn2412 2.209 . S
O2437 Mn2413 2.215 . S
O2437 C2414 1.283 . S
O2438 Mn2412 2.094 . S
O2438 C2416 1.240 . S
O2439 Mn2413 2.117 . S
O2439 C2416 1.264 . S
C2440 C2433 1.403 . S
C2440 C2441 1.399 . S
C2440 H2446 0.929 . S
C2441 C2421 1.449 . S
C2441 C2440 1.399 . S
C2441 H2447 0.930 . S
H2442 C2422 0.931 . S
H2443 C2423 0.930 . S
H2444 C2431 0.931 . S
H2445 C2432 0.929 . S
H2446 C2440 0.929 . S
H2447 C2441 0.930 . S
Mn2448 O2453 2.095 . S
Mn2448 O2463 2.162 . S
Mn2448 O2464 2.297 . S
Mn2448 O2472 2.385 . S
Mn2448 O2473 2.209 . S
Mn2448 O2474 2.094 . S
Mn2449 O2454 2.121 . S
Mn2449 N2456 2.257 . S
Mn2449 N2465 2.282 . S
Mn2449 O2473 2.215 . S
Mn2449 O2475 2.117 . S
C2450 O2472 1.234 . S
C2450 O2473 1.283 . S
C2451 O2463 1.281 . S
C2451 O2464 1.236 . S
C2452 O2474 1.240 . S
C2452 O2475 1.264 . S
O2453 Mn2448 2.095 . S
O2453 C2462 1.250 . S
O2454 Mn2449 2.121 . S
O2454 C2462 1.258 . S
C2455 N2456 1.326 . S
C2455 C2459 1.460 . S
C2455 H2461 0.929 . S
N2456 Mn2449 2.257 . S
N2456 C2455 1.326 . S
N2456 C2460 1.362 . S
C2457 C2458 1.258 . S
C2457 C2460 1.431 . S
C2457 C2477 1.449 . S
C2458 C2457 1.258 . S
C2458 C2459 1.477 . S
C2458 H2478 0.931 . S
C2459 C2455 1.460 . S
C2459 C2458 1.477 . S
C2459 H2479 0.930 . S
C2460 N2456 1.362 . S
C2460 C2457 1.431 . S
C2460 C2470 1.476 . S
H2461 C2455 0.929 . S
C2462 O2453 1.250 . S
C2462 O2454 1.258 . S
O2463 Mn2448 2.162 . S
O2463 C2451 1.281 . S
O2464 Mn2448 2.297 . S
O2464 C2451 1.236 . S
N2465 Mn2449 2.282 . S
N2465 C2466 1.328 . S
N2465 C2470 1.318 . S
C2466 N2465 1.328 . S
C2466 C2467 1.457 . S
C2466 H2471 0.929 . S
C2467 C2466 1.457 . S
C2467 C2468 1.291 . S
C2467 H2480 0.931 . S
C2468 C2467 1.291 . S
C2468 C2469 1.373 . S
C2468 H2481 0.929 . S
C2469 C2468 1.373 . S
C2469 C2470 1.396 . S
C2469 C2476 1.403 . S
C2470 C2460 1.476 . S
C2470 N2465 1.318 . S
C2470 C2469 1.396 . S
H2471 C2466 0.929 . S
O2472 Mn2448 2.385 . S
O2472 C2450 1.234 . S
O2473 Mn2448 2.209 . S
O2473 Mn2449 2.215 . S
O2473 C2450 1.283 . S
O2474 Mn2448 2.094 . S
O2474 C2452 1.240 . S
O2475 Mn2449 2.117 . S
O2475 C2452 1.264 . S
C2476 C2469 1.403 . S
C2476 C2477 1.399 . S
C2476 H2482 0.929 . S
C2477 C2457 1.449 . S
C2477 C2476 1.399 . S
C2477 H2483 0.930 . S
H2478 C2458 0.931 . S
H2479 C2459 0.930 . S
H2480 C2467 0.931 . S
H2481 C2468 0.929 . S
H2482 C2476 0.929 . S
H2483 C2477 0.930 . S
Mn2484 O2489 2.095 . S
Mn2484 O2499 2.162 . S
Mn2484 O2500 2.297 . S
Mn2484 O2508 2.385 . S
Mn2484 O2509 2.209 . S
Mn2484 O2510 2.094 . S
Mn2485 O2490 2.121 . S
Mn2485 N2492 2.257 . S
Mn2485 N2501 2.282 . S
Mn2485 O2509 2.215 . S
Mn2485 O2511 2.117 . S
C2486 O2508 1.234 . S
C2486 O2509 1.283 . S
C2487 O2499 1.281 . S
C2487 O2500 1.236 . S
C2488 O2510 1.240 . S
C2488 O2511 1.264 . S
O2489 Mn2484 2.095 . S
O2489 C2498 1.250 . S
O2490 Mn2485 2.121 . S
O2490 C2498 1.258 . S
C2491 N2492 1.326 . S
C2491 C2495 1.460 . S
C2491 H2497 0.929 . S
N2492 Mn2485 2.257 . S
N2492 C2491 1.326 . S
N2492 C2496 1.362 . S
C2493 C2494 1.258 . S
C2493 C2496 1.431 . S
C2493 C2513 1.449 . S
C2494 C2493 1.258 . S
C2494 C2495 1.477 . S
C2494 H2514 0.931 . S
C2495 C2491 1.460 . S
C2495 C2494 1.477 . S
C2495 H2515 0.930 . S
C2496 N2492 1.362 . S
C2496 C2493 1.431 . S
C2496 C2506 1.476 . S
H2497 C2491 0.929 . S
C2498 O2489 1.250 . S
C2498 O2490 1.258 . S
O2499 Mn2484 2.162 . S
O2499 C2487 1.281 . S
O2500 Mn2484 2.297 . S
O2500 C2487 1.236 . S
N2501 Mn2485 2.282 . S
N2501 C2502 1.328 . S
N2501 C2506 1.318 . S
C2502 N2501 1.328 . S
C2502 C2503 1.457 . S
C2502 H2507 0.929 . S
C2503 C2502 1.457 . S
C2503 C2504 1.291 . S
C2503 H2516 0.931 . S
C2504 C2503 1.291 . S
C2504 C2505 1.373 . S
C2504 H2517 0.929 . S
C2505 C2504 1.373 . S
C2505 C2506 1.396 . S
C2505 C2512 1.403 . S
C2506 C2496 1.476 . S
C2506 N2501 1.318 . S
C2506 C2505 1.396 . S
H2507 C2502 0.929 . S
O2508 Mn2484 2.385 . S
O2508 C2486 1.234 . S
O2509 Mn2484 2.209 . S
O2509 Mn2485 2.215 . S
O2509 C2486 1.283 . S
O2510 Mn2484 2.094 . S
O2510 C2488 1.240 . S
O2511 Mn2485 2.117 . S
O2511 C2488 1.264 . S
C2512 C2505 1.403 . S
C2512 C2513 1.399 . S
C2512 H2518 0.929 . S
C2513 C2493 1.449 . S
C2513 C2512 1.399 . S
C2513 H2519 0.930 . S
H2514 C2494 0.931 . S
H2515 C2495 0.930 . S
H2516 C2503 0.931 . S
H2517 C2504 0.929 . S
H2518 C2512 0.929 . S
H2519 C2513 0.930 . S
Mn2520 O2525 2.095 . S
Mn2520 O2535 2.162 . S
Mn2520 O2536 2.297 . S
Mn2520 O2544 2.385 . S
Mn2520 O2545 2.209 . S
Mn2520 O2546 2.094 . S
Mn2521 O2526 2.121 . S
Mn2521 N2528 2.257 . S
Mn2521 N2537 2.282 . S
Mn2521 O2545 2.215 . S
Mn2521 O2547 2.117 . S
C2522 O2544 1.234 . S
C2522 O2545 1.283 . S
C2523 O2535 1.281 . S
C2523 O2536 1.236 . S
C2524 O2546 1.240 . S
C2524 O2547 1.264 . S
O2525 Mn2520 2.095 . S
O2525 C2534 1.250 . S
O2526 Mn2521 2.121 . S
O2526 C2534 1.258 . S
C2527 N2528 1.326 . S
C2527 C2531 1.460 . S
C2527 H2533 0.929 . S
N2528 Mn2521 2.257 . S
N2528 C2527 1.326 . S
N2528 C2532 1.362 . S
C2529 C2530 1.258 . S
C2529 C2532 1.431 . S
C2529 C2549 1.449 . S
C2530 C2529 1.258 . S
C2530 C2531 1.477 . S
C2530 H2550 0.931 . S
C2531 C2527 1.460 . S
C2531 C2530 1.477 . S
C2531 H2551 0.930 . S
C2532 N2528 1.362 . S
C2532 C2529 1.431 . S
C2532 C2542 1.476 . S
H2533 C2527 0.929 . S
C2534 O2525 1.250 . S
C2534 O2526 1.258 . S
O2535 Mn2520 2.162 . S
O2535 C2523 1.281 . S
O2536 Mn2520 2.297 . S
O2536 C2523 1.236 . S
N2537 Mn2521 2.282 . S
N2537 C2538 1.328 . S
N2537 C2542 1.318 . S
C2538 N2537 1.328 . S
C2538 C2539 1.457 . S
C2538 H2543 0.929 . S
C2539 C2538 1.457 . S
C2539 C2540 1.291 . S
C2539 H2552 0.931 . S
C2540 C2539 1.291 . S
C2540 C2541 1.373 . S
C2540 H2553 0.929 . S
C2541 C2540 1.373 . S
C2541 C2542 1.396 . S
C2541 C2548 1.403 . S
C2542 C2532 1.476 . S
C2542 N2537 1.318 . S
C2542 C2541 1.396 . S
H2543 C2538 0.929 . S
O2544 Mn2520 2.385 . S
O2544 C2522 1.234 . S
O2545 Mn2520 2.209 . S
O2545 Mn2521 2.215 . S
O2545 C2522 1.283 . S
O2546 Mn2520 2.094 . S
O2546 C2524 1.240 . S
O2547 Mn2521 2.117 . S
O2547 C2524 1.264 . S
C2548 C2541 1.403 . S
C2548 C2549 1.399 . S
C2548 H2554 0.929 . S
C2549 C2529 1.449 . S
C2549 C2548 1.399 . S
C2549 H2555 0.930 . S
H2550 C2530 0.931 . S
H2551 C2531 0.930 . S
H2552 C2539 0.931 . S
H2553 C2540 0.929 . S
H2554 C2548 0.929 . S
H2555 C2549 0.930 . S
Mn2556 O2561 2.095 . S
Mn2556 O2571 2.162 . S
Mn2556 O2572 2.297 . S
Mn2556 O2580 2.385 . S
Mn2556 O2581 2.209 . S
Mn2556 O2582 2.094 . S
Mn2557 O2562 2.121 . S
Mn2557 N2564 2.257 . S
Mn2557 N2573 2.282 . S
Mn2557 O2581 2.215 . S
Mn2557 O2583 2.117 . S
C2558 O2580 1.234 . S
C2558 O2581 1.283 . S
C2559 O2571 1.281 . S
C2559 O2572 1.236 . S
C2560 O2582 1.240 . S
C2560 O2583 1.264 . S
O2561 Mn2556 2.095 . S
O2561 C2570 1.250 . S
O2562 Mn2557 2.121 . S
O2562 C2570 1.258 . S
C2563 N2564 1.326 . S
C2563 C2567 1.460 1_455 S
C2563 H2569 0.929 . S
N2564 Mn2557 2.257 . S
N2564 C2563 1.326 . S
N2564 C2568 1.362 . S
C2565 C2566 1.258 1_455 S
C2565 C2568 1.431 . S
C2565 C2585 1.449 . S
C2566 C2565 1.258 1_655 S
C2566 C2567 1.477 . S
C2566 H2586 0.931 . S
C2567 C2563 1.460 1_655 S
C2567 C2566 1.477 . S
C2567 H2587 0.930 . S
C2568 N2564 1.362 . S
C2568 C2565 1.431 . S
C2568 C2578 1.476 . S
H2569 C2563 0.929 . S
C2570 O2561 1.250 . S
C2570 O2562 1.258 . S
O2571 Mn2556 2.162 . S
O2571 C2559 1.281 . S
O2572 Mn2556 2.297 . S
O2572 C2559 1.236 . S
N2573 Mn2557 2.282 . S
N2573 C2574 1.328 . S
N2573 C2578 1.318 . S
C2574 N2573 1.328 . S
C2574 C2575 1.457 . S
C2574 H2579 0.929 . S
C2575 C2574 1.457 . S
C2575 C2576 1.291 . S
C2575 H2588 0.931 . S
C2576 C2575 1.291 . S
C2576 C2577 1.373 . S
C2576 H2589 0.929 . S
C2577 C2576 1.373 . S
C2577 C2578 1.396 . S
C2577 C2584 1.403 . S
C2578 C2568 1.476 . S
C2578 N2573 1.318 . S
C2578 C2577 1.396 . S
H2579 C2574 0.929 . S
O2580 Mn2556 2.385 . S
O2580 C2558 1.234 . S
O2581 Mn2556 2.209 . S
O2581 Mn2557 2.215 . S
O2581 C2558 1.283 . S
O2582 Mn2556 2.094 . S
O2582 C2560 1.240 . S
O2583 Mn2557 2.117 . S
O2583 C2560 1.264 . S
C2584 C2577 1.403 . S
C2584 C2585 1.399 . S
C2584 H2590 0.929 . S
C2585 C2565 1.449 . S
C2585 C2584 1.399 . S
C2585 H2591 0.930 . S
H2586 C2566 0.931 . S
H2587 C2567 0.930 . S
H2588 C2575 0.931 . S
H2589 C2576 0.929 . S
H2590 C2584 0.929 . S
H2591 C2585 0.930 . S
Mn2592 O2597 2.095 . S
Mn2592 O2607 2.162 . S
Mn2592 O2608 2.297 . S
Mn2592 O2616 2.385 . S
Mn2592 O2617 2.209 . S
Mn2592 O2618 2.094 . S
Mn2593 O2598 2.121 . S
Mn2593 N2600 2.257 . S
Mn2593 N2609 2.282 . S
Mn2593 O2617 2.215 . S
Mn2593 O2619 2.117 . S
C2594 O2616 1.234 . S
C2594 O2617 1.283 . S
C2595 O2607 1.281 . S
C2595 O2608 1.236 . S
C2596 O2618 1.240 . S
C2596 O2619 1.264 . S
O2597 Mn2592 2.095 . S
O2597 C2606 1.250 . S
O2598 Mn2593 2.121 . S
O2598 C2606 1.258 . S
C2599 N2600 1.326 . S
C2599 C2603 1.460 1_554 S
C2599 H2605 0.929 . S
N2600 Mn2593 2.257 . S
N2600 C2599 1.326 . S
N2600 C2604 1.362 . S
C2601 C2602 1.258 1_554 S
C2601 C2604 1.431 . S
C2601 C2621 1.449 . S
C2602 C2601 1.258 1_556 S
C2602 C2603 1.477 . S
C2602 H2622 0.931 . S
C2603 C2599 1.460 1_556 S
C2603 C2602 1.477 . S
C2603 H2623 0.930 . S
C2604 N2600 1.362 . S
C2604 C2601 1.431 . S
C2604 C2614 1.476 . S
H2605 C2599 0.929 . S
C2606 O2597 1.250 . S
C2606 O2598 1.258 . S
O2607 Mn2592 2.162 . S
O2607 C2595 1.281 . S
O2608 Mn2592 2.297 . S
O2608 C2595 1.236 . S
N2609 Mn2593 2.282 . S
N2609 C2610 1.328 . S
N2609 C2614 1.318 . S
C2610 N2609 1.328 . S
C2610 C2611 1.457 . S
C2610 H2615 0.929 . S
C2611 C2610 1.457 . S
C2611 C2612 1.291 . S
C2611 H2624 0.931 . S
C2612 C2611 1.291 . S
C2612 C2613 1.373 . S
C2612 H2625 0.929 . S
C2613 C2612 1.373 . S
C2613 C2614 1.396 . S
C2613 C2620 1.403 . S
C2614 C2604 1.476 . S
C2614 N2609 1.318 . S
C2614 C2613 1.396 . S
H2615 C2610 0.929 . S
O2616 Mn2592 2.385 . S
O2616 C2594 1.234 . S
O2617 Mn2592 2.209 . S
O2617 Mn2593 2.215 . S
O2617 C2594 1.283 . S
O2618 Mn2592 2.094 . S
O2618 C2596 1.240 . S
O2619 Mn2593 2.117 . S
O2619 C2596 1.264 . S
C2620 C2613 1.403 . S
C2620 C2621 1.399 . S
C2620 H2626 0.929 . S
C2621 C2601 1.449 . S
C2621 C2620 1.399 . S
C2621 H2627 0.930 . S
H2622 C2602 0.931 . S
H2623 C2603 0.930 . S
H2624 C2611 0.931 . S
H2625 C2612 0.929 . S
H2626 C2620 0.929 . S
H2627 C2621 0.930 . S
Mn2628 O2633 2.095 . S
Mn2628 O2643 2.162 . S
Mn2628 O2644 2.297 . S
Mn2628 O2652 2.385 . S
Mn2628 O2653 2.209 . S
Mn2628 O2654 2.094 . S
Mn2629 O2634 2.121 . S
Mn2629 N2636 2.257 . S
Mn2629 N2645 2.282 . S
Mn2629 O2653 2.215 . S
Mn2629 O2655 2.117 . S
C2630 O2652 1.234 . S
C2630 O2653 1.283 . S
C2631 O2643 1.281 . S
C2631 O2644 1.236 . S
C2632 O2654 1.240 . S
C2632 O2655 1.264 . S
O2633 Mn2628 2.095 . S
O2633 C2642 1.250 . S
O2634 Mn2629 2.121 . S
O2634 C2642 1.258 . S
C2635 N2636 1.326 . S
C2635 C2639 1.460 . S
C2635 H2641 0.929 . S
N2636 Mn2629 2.257 . S
N2636 C2635 1.326 . S
N2636 C2640 1.362 . S
C2637 C2638 1.258 . S
C2637 C2640 1.431 . S
C2637 C2657 1.449 . S
C2638 C2637 1.258 . S
C2638 C2639 1.477 . S
C2638 H2658 0.931 . S
C2639 C2635 1.460 . S
C2639 C2638 1.477 . S
C2639 H2659 0.930 . S
C2640 N2636 1.362 . S
C2640 C2637 1.431 . S
C2640 C2650 1.476 . S
H2641 C2635 0.929 . S
C2642 O2633 1.250 . S
C2642 O2634 1.258 . S
O2643 Mn2628 2.162 . S
O2643 C2631 1.281 . S
O2644 Mn2628 2.297 . S
O2644 C2631 1.236 . S
N2645 Mn2629 2.282 . S
N2645 C2646 1.328 . S
N2645 C2650 1.318 . S
C2646 N2645 1.328 . S
C2646 C2647 1.457 . S
C2646 H2651 0.929 . S
C2647 C2646 1.457 . S
C2647 C2648 1.291 . S
C2647 H2660 0.931 . S
C2648 C2647 1.291 . S
C2648 C2649 1.373 . S
C2648 H2661 0.929 . S
C2649 C2648 1.373 . S
C2649 C2650 1.396 . S
C2649 C2656 1.403 . S
C2650 C2640 1.476 . S
C2650 N2645 1.318 . S
C2650 C2649 1.396 . S
H2651 C2646 0.929 . S
O2652 Mn2628 2.385 . S
O2652 C2630 1.234 . S
O2653 Mn2628 2.209 . S
O2653 Mn2629 2.215 . S
O2653 C2630 1.283 . S
O2654 Mn2628 2.094 . S
O2654 C2632 1.240 . S
O2655 Mn2629 2.117 . S
O2655 C2632 1.264 . S
C2656 C2649 1.403 . S
C2656 C2657 1.399 . S
C2656 H2662 0.929 . S
C2657 C2637 1.449 . S
C2657 C2656 1.399 . S
C2657 H2663 0.930 . S
H2658 C2638 0.931 . S
H2659 C2639 0.930 . S
H2660 C2647 0.931 . S
H2661 C2648 0.929 . S
H2662 C2656 0.929 . S
H2663 C2657 0.930 . S
Mn2664 O2669 2.095 . S
Mn2664 O2679 2.162 . S
Mn2664 O2680 2.297 . S
Mn2664 O2688 2.385 . S
Mn2664 O2689 2.209 . S
Mn2664 O2690 2.094 . S
Mn2665 O2670 2.121 . S
Mn2665 N2672 2.257 . S
Mn2665 N2681 2.282 . S
Mn2665 O2689 2.215 . S
Mn2665 O2691 2.117 . S
C2666 O2688 1.234 . S
C2666 O2689 1.283 . S
C2667 O2679 1.281 . S
C2667 O2680 1.236 . S
C2668 O2690 1.240 . S
C2668 O2691 1.264 . S
O2669 Mn2664 2.095 . S
O2669 C2678 1.250 . S
O2670 Mn2665 2.121 . S
O2670 C2678 1.258 . S
C2671 N2672 1.326 . S
C2671 C2675 1.460 . S
C2671 H2677 0.929 . S
N2672 Mn2665 2.257 . S
N2672 C2671 1.326 . S
N2672 C2676 1.362 . S
C2673 C2674 1.258 . S
C2673 C2676 1.431 . S
C2673 C2693 1.449 . S
C2674 C2673 1.258 . S
C2674 C2675 1.477 . S
C2674 H2694 0.931 . S
C2675 C2671 1.460 . S
C2675 C2674 1.477 . S
C2675 H2695 0.930 . S
C2676 N2672 1.362 . S
C2676 C2673 1.431 . S
C2676 C2686 1.476 . S
H2677 C2671 0.929 . S
C2678 O2669 1.250 . S
C2678 O2670 1.258 . S
O2679 Mn2664 2.162 . S
O2679 C2667 1.281 . S
O2680 Mn2664 2.297 . S
O2680 C2667 1.236 . S
N2681 Mn2665 2.282 . S
N2681 C2682 1.328 . S
N2681 C2686 1.318 . S
C2682 N2681 1.328 . S
C2682 C2683 1.457 . S
C2682 H2687 0.929 . S
C2683 C2682 1.457 . S
C2683 C2684 1.291 . S
C2683 H2696 0.931 . S
C2684 C2683 1.291 . S
C2684 C2685 1.373 . S
C2684 H2697 0.929 . S
C2685 C2684 1.373 . S
C2685 C2686 1.396 . S
C2685 C2692 1.403 . S
C2686 C2676 1.476 . S
C2686 N2681 1.318 . S
C2686 C2685 1.396 . S
H2687 C2682 0.929 . S
O2688 Mn2664 2.385 . S
O2688 C2666 1.234 . S
O2689 Mn2664 2.209 . S
O2689 Mn2665 2.215 . S
O2689 C2666 1.283 . S
O2690 Mn2664 2.094 . S
O2690 C2668 1.240 . S
O2691 Mn2665 2.117 . S
O2691 C2668 1.264 . S
C2692 C2685 1.403 . S
C2692 C2693 1.399 . S
C2692 H2698 0.929 . S
C2693 C2673 1.449 . S
C2693 C2692 1.399 . S
C2693 H2699 0.930 . S
H2694 C2674 0.931 . S
H2695 C2675 0.930 . S
H2696 C2683 0.931 . S
H2697 C2684 0.929 . S
H2698 C2692 0.929 . S
H2699 C2693 0.930 . S
Mn2700 O2705 2.095 . S
Mn2700 O2715 2.162 . S
Mn2700 O2716 2.297 . S
Mn2700 O2724 2.385 . S
Mn2700 O2725 2.209 . S
Mn2700 O2726 2.094 . S
Mn2701 O2706 2.121 . S
Mn2701 N2708 2.257 . S
Mn2701 N2717 2.282 . S
Mn2701 O2725 2.215 . S
Mn2701 O2727 2.117 . S
C2702 O2724 1.234 . S
C2702 O2725 1.283 . S
C2703 O2715 1.281 . S
C2703 O2716 1.236 . S
C2704 O2726 1.240 . S
C2704 O2727 1.264 . S
O2705 Mn2700 2.095 . S
O2705 C2714 1.250 . S
O2706 Mn2701 2.121 . S
O2706 C2714 1.258 . S
C2707 N2708 1.326 . S
C2707 C2711 1.460 . S
C2707 H2713 0.929 . S
N2708 Mn2701 2.257 . S
N2708 C2707 1.326 . S
N2708 C2712 1.362 . S
C2709 C2710 1.258 . S
C2709 C2712 1.431 . S
C2709 C2729 1.449 . S
C2710 C2709 1.258 . S
C2710 C2711 1.477 . S
C2710 H2730 0.931 . S
C2711 C2707 1.460 . S
C2711 C2710 1.477 . S
C2711 H2731 0.930 . S
C2712 N2708 1.362 . S
C2712 C2709 1.431 . S
C2712 C2722 1.476 . S
H2713 C2707 0.929 . S
C2714 O2705 1.250 . S
C2714 O2706 1.258 . S
O2715 Mn2700 2.162 . S
O2715 C2703 1.281 . S
O2716 Mn2700 2.297 . S
O2716 C2703 1.236 . S
N2717 Mn2701 2.282 . S
N2717 C2718 1.328 . S
N2717 C2722 1.318 . S
C2718 N2717 1.328 . S
C2718 C2719 1.457 . S
C2718 H2723 0.929 . S
C2719 C2718 1.457 . S
C2719 C2720 1.291 . S
C2719 H2732 0.931 . S
C2720 C2719 1.291 . S
C2720 C2721 1.373 . S
C2720 H2733 0.929 . S
C2721 C2720 1.373 . S
C2721 C2722 1.396 . S
C2721 C2728 1.403 . S
C2722 C2712 1.476 . S
C2722 N2717 1.318 . S
C2722 C2721 1.396 . S
H2723 C2718 0.929 . S
O2724 Mn2700 2.385 . S
O2724 C2702 1.234 . S
O2725 Mn2700 2.209 . S
O2725 Mn2701 2.215 . S
O2725 C2702 1.283 . S
O2726 Mn2700 2.094 . S
O2726 C2704 1.240 . S
O2727 Mn2701 2.117 . S
O2727 C2704 1.264 . S
C2728 C2721 1.403 . S
C2728 C2729 1.399 . S
C2728 H2734 0.929 . S
C2729 C2709 1.449 . S
C2729 C2728 1.399 . S
C2729 H2735 0.930 . S
H2730 C2710 0.931 . S
H2731 C2711 0.930 . S
H2732 C2719 0.931 . S
H2733 C2720 0.929 . S
H2734 C2728 0.929 . S
H2735 C2729 0.930 . S
Mn2736 O2741 2.095 . S
Mn2736 O2751 2.162 . S
Mn2736 O2752 2.297 . S
Mn2736 O2760 2.385 . S
Mn2736 O2761 2.209 . S
Mn2736 O2762 2.094 . S
Mn2737 O2742 2.121 . S
Mn2737 N2744 2.257 . S
Mn2737 N2753 2.282 . S
Mn2737 O2761 2.215 . S
Mn2737 O2763 2.117 . S
C2738 O2760 1.234 . S
C2738 O2761 1.283 . S
C2739 O2751 1.281 . S
C2739 O2752 1.236 . S
C2740 O2762 1.240 . S
C2740 O2763 1.264 . S
O2741 Mn2736 2.095 . S
O2741 C2750 1.250 . S
O2742 Mn2737 2.121 . S
O2742 C2750 1.258 . S
C2743 N2744 1.326 . S
C2743 C2747 1.460 . S
C2743 H2749 0.929 . S
N2744 Mn2737 2.257 . S
N2744 C2743 1.326 . S
N2744 C2748 1.362 . S
C2745 C2746 1.258 . S
C2745 C2748 1.431 . S
C2745 C2765 1.449 . S
C2746 C2745 1.258 . S
C2746 C2747 1.477 . S
C2746 H2766 0.931 . S
C2747 C2743 1.460 . S
C2747 C2746 1.477 . S
C2747 H2767 0.930 . S
C2748 N2744 1.362 . S
C2748 C2745 1.431 . S
C2748 C2758 1.476 . S
H2749 C2743 0.929 . S
C2750 O2741 1.250 . S
C2750 O2742 1.258 . S
O2751 Mn2736 2.162 . S
O2751 C2739 1.281 . S
O2752 Mn2736 2.297 . S
O2752 C2739 1.236 . S
N2753 Mn2737 2.282 . S
N2753 C2754 1.328 . S
N2753 C2758 1.318 . S
C2754 N2753 1.328 . S
C2754 C2755 1.457 . S
C2754 H2759 0.929 . S
C2755 C2754 1.457 . S
C2755 C2756 1.291 . S
C2755 H2768 0.931 . S
C2756 C2755 1.291 . S
C2756 C2757 1.373 . S
C2756 H2769 0.929 . S
C2757 C2756 1.373 . S
C2757 C2758 1.396 . S
C2757 C2764 1.403 . S
C2758 C2748 1.476 . S
C2758 N2753 1.318 . S
C2758 C2757 1.396 . S
H2759 C2754 0.929 . S
O2760 Mn2736 2.385 . S
O2760 C2738 1.234 . S
O2761 Mn2736 2.209 . S
O2761 Mn2737 2.215 . S
O2761 C2738 1.283 . S
O2762 Mn2736 2.094 . S
O2762 C2740 1.240 . S
O2763 Mn2737 2.117 . S
O2763 C2740 1.264 . S
C2764 C2757 1.403 . S
C2764 C2765 1.399 . S
C2764 H2770 0.929 . S
C2765 C2745 1.449 . S
C2765 C2764 1.399 . S
C2765 H2771 0.930 . S
H2766 C2746 0.931 . S
H2767 C2747 0.930 . S
H2768 C2755 0.931 . S
H2769 C2756 0.929 . S
H2770 C2764 0.929 . S
H2771 C2765 0.930 . S
Mn2772 O2777 2.095 . S
Mn2772 O2787 2.162 . S
Mn2772 O2788 2.297 . S
Mn2772 O2796 2.385 . S
Mn2772 O2797 2.209 . S
Mn2772 O2798 2.094 . S
Mn2773 O2778 2.121 . S
Mn2773 N2780 2.257 . S
Mn2773 N2789 2.282 . S
Mn2773 O2797 2.215 . S
Mn2773 O2799 2.117 . S
C2774 O2796 1.234 . S
C2774 O2797 1.283 . S
C2775 O2787 1.281 . S
C2775 O2788 1.236 . S
C2776 O2798 1.240 . S
C2776 O2799 1.264 . S
O2777 Mn2772 2.095 . S
O2777 C2786 1.250 . S
O2778 Mn2773 2.121 . S
O2778 C2786 1.258 . S
C2779 N2780 1.326 . S
C2779 C2783 1.460 . S
C2779 H2785 0.929 . S
N2780 Mn2773 2.257 . S
N2780 C2779 1.326 . S
N2780 C2784 1.362 . S
C2781 C2782 1.258 . S
C2781 C2784 1.431 . S
C2781 C2801 1.449 . S
C2782 C2781 1.258 . S
C2782 C2783 1.477 . S
C2782 H2802 0.931 . S
C2783 C2779 1.460 . S
C2783 C2782 1.477 . S
C2783 H2803 0.930 . S
C2784 N2780 1.362 . S
C2784 C2781 1.431 . S
C2784 C2794 1.476 . S
H2785 C2779 0.929 . S
C2786 O2777 1.250 . S
C2786 O2778 1.258 . S
O2787 Mn2772 2.162 . S
O2787 C2775 1.281 . S
O2788 Mn2772 2.297 . S
O2788 C2775 1.236 . S
N2789 Mn2773 2.282 . S
N2789 C2790 1.328 . S
N2789 C2794 1.318 . S
C2790 N2789 1.328 . S
C2790 C2791 1.457 . S
C2790 H2795 0.929 . S
C2791 C2790 1.457 . S
C2791 C2792 1.291 . S
C2791 H2804 0.931 . S
C2792 C2791 1.291 . S
C2792 C2793 1.373 . S
C2792 H2805 0.929 . S
C2793 C2792 1.373 . S
C2793 C2794 1.396 . S
C2793 C2800 1.403 . S
C2794 C2784 1.476 . S
C2794 N2789 1.318 . S
C2794 C2793 1.396 . S
H2795 C2790 0.929 . S
O2796 Mn2772 2.385 . S
O2796 C2774 1.234 . S
O2797 Mn2772 2.209 . S
O2797 Mn2773 2.215 . S
O2797 C2774 1.283 . S
O2798 Mn2772 2.094 . S
O2798 C2776 1.240 . S
O2799 Mn2773 2.117 . S
O2799 C2776 1.264 . S
C2800 C2793 1.403 . S
C2800 C2801 1.399 . S
C2800 H2806 0.929 . S
C2801 C2781 1.449 . S
C2801 C2800 1.399 . S
C2801 H2807 0.930 . S
H2802 C2782 0.931 . S
H2803 C2783 0.930 . S
H2804 C2791 0.931 . S
H2805 C2792 0.929 . S
H2806 C2800 0.929 . S
H2807 C2801 0.930 . S
Mn2808 O2813 2.095 . S
Mn2808 O2823 2.162 . S
Mn2808 O2824 2.297 . S
Mn2808 O2832 2.385 . S
Mn2808 O2833 2.209 . S
Mn2808 O2834 2.094 . S
Mn2809 O2814 2.121 . S
Mn2809 N2816 2.257 . S
Mn2809 N2825 2.282 . S
Mn2809 O2833 2.215 . S
Mn2809 O2835 2.117 . S
C2810 O2832 1.234 . S
C2810 O2833 1.283 . S
C2811 O2823 1.281 . S
C2811 O2824 1.236 . S
C2812 O2834 1.240 . S
C2812 O2835 1.264 . S
O2813 Mn2808 2.095 . S
O2813 C2822 1.250 . S
O2814 Mn2809 2.121 . S
O2814 C2822 1.258 . S
C2815 N2816 1.326 . S
C2815 C2819 1.460 . S
C2815 H2821 0.929 . S
N2816 Mn2809 2.257 . S
N2816 C2815 1.326 . S
N2816 C2820 1.362 . S
C2817 C2818 1.258 . S
C2817 C2820 1.431 . S
C2817 C2837 1.449 . S
C2818 C2817 1.258 . S
C2818 C2819 1.477 . S
C2818 H2838 0.931 . S
C2819 C2815 1.460 . S
C2819 C2818 1.477 . S
C2819 H2839 0.930 . S
C2820 N2816 1.362 . S
C2820 C2817 1.431 . S
C2820 C2830 1.476 . S
H2821 C2815 0.929 . S
C2822 O2813 1.250 . S
C2822 O2814 1.258 . S
O2823 Mn2808 2.162 . S
O2823 C2811 1.281 . S
O2824 Mn2808 2.297 . S
O2824 C2811 1.236 . S
N2825 Mn2809 2.282 . S
N2825 C2826 1.328 . S
N2825 C2830 1.318 . S
C2826 N2825 1.328 . S
C2826 C2827 1.457 . S
C2826 H2831 0.929 . S
C2827 C2826 1.457 . S
C2827 C2828 1.291 . S
C2827 H2840 0.931 . S
C2828 C2827 1.291 . S
C2828 C2829 1.373 . S
C2828 H2841 0.929 . S
C2829 C2828 1.373 . S
C2829 C2830 1.396 . S
C2829 C2836 1.403 . S
C2830 C2820 1.476 . S
C2830 N2825 1.318 . S
C2830 C2829 1.396 . S
H2831 C2826 0.929 . S
O2832 Mn2808 2.385 . S
O2832 C2810 1.234 . S
O2833 Mn2808 2.209 . S
O2833 Mn2809 2.215 . S
O2833 C2810 1.283 . S
O2834 Mn2808 2.094 . S
O2834 C2812 1.240 . S
O2835 Mn2809 2.117 . S
O2835 C2812 1.264 . S
C2836 C2829 1.403 . S
C2836 C2837 1.399 . S
C2836 H2842 0.929 . S
C2837 C2817 1.449 . S
C2837 C2836 1.399 . S
C2837 H2843 0.930 . S
H2838 C2818 0.931 . S
H2839 C2819 0.930 . S
H2840 C2827 0.931 . S
H2841 C2828 0.929 . S
H2842 C2836 0.929 . S
H2843 C2837 0.930 . S
Mn2844 O2849 2.095 . S
Mn2844 O2859 2.162 . S
Mn2844 O2860 2.297 . S
Mn2844 O2868 2.385 . S
Mn2844 O2869 2.209 . S
Mn2844 O2870 2.094 . S
Mn2845 O2850 2.121 . S
Mn2845 N2852 2.257 . S
Mn2845 N2861 2.282 . S
Mn2845 O2869 2.215 . S
Mn2845 O2871 2.117 . S
C2846 O2868 1.234 . S
C2846 O2869 1.283 . S
C2847 O2859 1.281 . S
C2847 O2860 1.236 . S
C2848 O2870 1.240 . S
C2848 O2871 1.264 . S
O2849 Mn2844 2.095 . S
O2849 C2858 1.250 . S
O2850 Mn2845 2.121 . S
O2850 C2858 1.258 . S
C2851 N2852 1.326 . S
C2851 C2855 1.460 1_556 S
C2851 H2857 0.929 . S
N2852 Mn2845 2.257 . S
N2852 C2851 1.326 . S
N2852 C2856 1.362 . S
C2853 C2854 1.258 1_556 S
C2853 C2856 1.431 . S
C2853 C2873 1.449 . S
C2854 C2853 1.258 1_554 S
C2854 C2855 1.477 . S
C2854 H2874 0.931 . S
C2855 C2851 1.460 1_554 S
C2855 C2854 1.477 . S
C2855 H2875 0.930 . S
C2856 N2852 1.362 . S
C2856 C2853 1.431 . S
C2856 C2866 1.476 . S
H2857 C2851 0.929 . S
C2858 O2849 1.250 . S
C2858 O2850 1.258 . S
O2859 Mn2844 2.162 . S
O2859 C2847 1.281 . S
O2860 Mn2844 2.297 . S
O2860 C2847 1.236 . S
N2861 Mn2845 2.282 . S
N2861 C2862 1.328 . S
N2861 C2866 1.318 . S
C2862 N2861 1.328 . S
C2862 C2863 1.457 . S
C2862 H2867 0.929 . S
C2863 C2862 1.457 . S
C2863 C2864 1.291 . S
C2863 H2876 0.931 . S
C2864 C2863 1.291 . S
C2864 C2865 1.373 . S
C2864 H2877 0.929 . S
C2865 C2864 1.373 . S
C2865 C2866 1.396 . S
C2865 C2872 1.403 . S
C2866 C2856 1.476 . S
C2866 N2861 1.318 . S
C2866 C2865 1.396 . S
H2867 C2862 0.929 . S
O2868 Mn2844 2.385 . S
O2868 C2846 1.234 . S
O2869 Mn2844 2.209 . S
O2869 Mn2845 2.215 . S
O2869 C2846 1.283 . S
O2870 Mn2844 2.094 . S
O2870 C2848 1.240 . S
O2871 Mn2845 2.117 . S
O2871 C2848 1.264 . S
C2872 C2865 1.403 . S
C2872 C2873 1.399 . S
C2872 H2878 0.929 . S
C2873 C2853 1.449 . S
C2873 C2872 1.399 . S
C2873 H2879 0.930 . S
H2874 C2854 0.931 . S
H2875 C2855 0.930 . S
H2876 C2863 0.931 . S
H2877 C2864 0.929 . S
H2878 C2872 0.929 . S
H2879 C2873 0.930 . S
Mn2880 O2885 2.095 . S
Mn2880 O2895 2.162 . S
Mn2880 O2896 2.297 . S
Mn2880 O2904 2.385 . S
Mn2880 O2905 2.209 . S
Mn2880 O2906 2.094 . S
Mn2881 O2886 2.121 . S
Mn2881 N2888 2.257 . S
Mn2881 N2897 2.282 . S
Mn2881 O2905 2.215 . S
Mn2881 O2907 2.117 . S
C2882 O2904 1.234 . S
C2882 O2905 1.283 . S
C2883 O2895 1.281 . S
C2883 O2896 1.236 . S
C2884 O2906 1.240 . S
C2884 O2907 1.264 . S
O2885 Mn2880 2.095 . S
O2885 C2894 1.250 . S
O2886 Mn2881 2.121 . S
O2886 C2894 1.258 . S
C2887 N2888 1.326 . S
C2887 C2891 1.460 . S
C2887 H2893 0.929 . S
N2888 Mn2881 2.257 . S
N2888 C2887 1.326 . S
N2888 C2892 1.362 . S
C2889 C2890 1.258 . S
C2889 C2892 1.431 . S
C2889 C2909 1.449 . S
C2890 C2889 1.258 . S
C2890 C2891 1.477 . S
C2890 H2910 0.931 . S
C2891 C2887 1.460 . S
C2891 C2890 1.477 . S
C2891 H2911 0.930 . S
C2892 N2888 1.362 . S
C2892 C2889 1.431 . S
C2892 C2902 1.476 . S
H2893 C2887 0.929 . S
C2894 O2885 1.250 . S
C2894 O2886 1.258 . S
O2895 Mn2880 2.162 . S
O2895 C2883 1.281 . S
O2896 Mn2880 2.297 . S
O2896 C2883 1.236 . S
N2897 Mn2881 2.282 . S
N2897 C2898 1.328 . S
N2897 C2902 1.318 . S
C2898 N2897 1.328 . S
C2898 C2899 1.457 . S
C2898 H2903 0.929 . S
C2899 C2898 1.457 . S
C2899 C2900 1.291 . S
C2899 H2912 0.931 . S
C2900 C2899 1.291 . S
C2900 C2901 1.373 . S
C2900 H2913 0.929 . S
C2901 C2900 1.373 . S
C2901 C2902 1.396 . S
C2901 C2908 1.403 . S
C2902 C2892 1.476 . S
C2902 N2897 1.318 . S
C2902 C2901 1.396 . S
H2903 C2898 0.929 . S
O2904 Mn2880 2.385 . S
O2904 C2882 1.234 . S
O2905 Mn2880 2.209 . S
O2905 Mn2881 2.215 . S
O2905 C2882 1.283 . S
O2906 Mn2880 2.094 . S
O2906 C2884 1.240 . S
O2907 Mn2881 2.117 . S
O2907 C2884 1.264 . S
C2908 C2901 1.403 . S
C2908 C2909 1.399 . S
C2908 H2914 0.929 . S
C2909 C2889 1.449 . S
C2909 C2908 1.399 . S
C2909 H2915 0.930 . S
H2910 C2890 0.931 . S
H2911 C2891 0.930 . S
H2912 C2899 0.931 . S
H2913 C2900 0.929 . S
H2914 C2908 0.929 . S
H2915 C2909 0.930 . S
Mn2916 O2921 2.095 . S
Mn2916 O2931 2.162 . S
Mn2916 O2932 2.297 . S
Mn2916 O2940 2.385 . S
Mn2916 O2941 2.209 . S
Mn2916 O2942 2.094 . S
Mn2917 O2922 2.121 . S
Mn2917 N2924 2.257 . S
Mn2917 N2933 2.282 . S
Mn2917 O2941 2.215 . S
Mn2917 O2943 2.117 . S
C2918 O2940 1.234 . S
C2918 O2941 1.283 . S
C2919 O2931 1.281 . S
C2919 O2932 1.236 . S
C2920 O2942 1.240 . S
C2920 O2943 1.264 . S
O2921 Mn2916 2.095 . S
O2921 C2930 1.250 . S
O2922 Mn2917 2.121 . S
O2922 C2930 1.258 . S
C2923 N2924 1.326 . S
C2923 C2927 1.460 . S
C2923 H2929 0.929 . S
N2924 Mn2917 2.257 . S
N2924 C2923 1.326 . S
N2924 C2928 1.362 . S
C2925 C2926 1.258 . S
C2925 C2928 1.431 . S
C2925 C2945 1.449 . S
C2926 C2925 1.258 . S
C2926 C2927 1.477 . S
C2926 H2946 0.931 . S
C2927 C2923 1.460 . S
C2927 C2926 1.477 . S
C2927 H2947 0.930 . S
C2928 N2924 1.362 . S
C2928 C2925 1.431 . S
C2928 C2938 1.476 . S
H2929 C2923 0.929 . S
C2930 O2921 1.250 . S
C2930 O2922 1.258 . S
O2931 Mn2916 2.162 . S
O2931 C2919 1.281 . S
O2932 Mn2916 2.297 . S
O2932 C2919 1.236 . S
N2933 Mn2917 2.282 . S
N2933 C2934 1.328 . S
N2933 C2938 1.318 . S
C2934 N2933 1.328 . S
C2934 C2935 1.457 . S
C2934 H2939 0.929 . S
C2935 C2934 1.457 . S
C2935 C2936 1.291 . S
C2935 H2948 0.931 . S
C2936 C2935 1.291 . S
C2936 C2937 1.373 . S
C2936 H2949 0.929 . S
C2937 C2936 1.373 . S
C2937 C2938 1.396 . S
C2937 C2944 1.403 . S
C2938 C2928 1.476 . S
C2938 N2933 1.318 . S
C2938 C2937 1.396 . S
H2939 C2934 0.929 . S
O2940 Mn2916 2.385 . S
O2940 C2918 1.234 . S
O2941 Mn2916 2.209 . S
O2941 Mn2917 2.215 . S
O2941 C2918 1.283 . S
O2942 Mn2916 2.094 . S
O2942 C2920 1.240 . S
O2943 Mn2917 2.117 . S
O2943 C2920 1.264 . S
C2944 C2937 1.403 . S
C2944 C2945 1.399 . S
C2944 H2950 0.929 . S
C2945 C2925 1.449 . S
C2945 C2944 1.399 . S
C2945 H2951 0.930 . S
H2946 C2926 0.931 . S
H2947 C2927 0.930 . S
H2948 C2935 0.931 . S
H2949 C2936 0.929 . S
H2950 C2944 0.929 . S
H2951 C2945 0.930 . S
Mn2952 O2957 2.095 . S
Mn2952 O2967 2.162 . S
Mn2952 O2968 2.297 . S
Mn2952 O2976 2.385 . S
Mn2952 O2977 2.209 . S
Mn2952 O2978 2.094 . S
Mn2953 O2958 2.121 . S
Mn2953 N2960 2.257 . S
Mn2953 N2969 2.282 . S
Mn2953 O2977 2.215 . S
Mn2953 O2979 2.117 . S
C2954 O2976 1.234 . S
C2954 O2977 1.283 . S
C2955 O2967 1.281 . S
C2955 O2968 1.236 . S
C2956 O2978 1.240 . S
C2956 O2979 1.264 . S
O2957 Mn2952 2.095 . S
O2957 C2966 1.250 . S
O2958 Mn2953 2.121 . S
O2958 C2966 1.258 . S
C2959 N2960 1.326 . S
C2959 C2963 1.460 . S
C2959 H2965 0.929 . S
N2960 Mn2953 2.257 . S
N2960 C2959 1.326 . S
N2960 C2964 1.362 . S
C2961 C2962 1.258 . S
C2961 C2964 1.431 . S
C2961 C2981 1.449 . S
C2962 C2961 1.258 . S
C2962 C2963 1.477 . S
C2962 H2982 0.931 . S
C2963 C2959 1.460 . S
C2963 C2962 1.477 . S
C2963 H2983 0.930 . S
C2964 N2960 1.362 . S
C2964 C2961 1.431 . S
C2964 C2974 1.476 . S
H2965 C2959 0.929 . S
C2966 O2957 1.250 . S
C2966 O2958 1.258 . S
O2967 Mn2952 2.162 . S
O2967 C2955 1.281 . S
O2968 Mn2952 2.297 . S
O2968 C2955 1.236 . S
N2969 Mn2953 2.282 . S
N2969 C2970 1.328 . S
N2969 C2974 1.318 . S
C2970 N2969 1.328 . S
C2970 C2971 1.457 . S
C2970 H2975 0.929 . S
C2971 C2970 1.457 . S
C2971 C2972 1.291 . S
C2971 H2984 0.931 . S
C2972 C2971 1.291 . S
C2972 C2973 1.373 . S
C2972 H2985 0.929 . S
C2973 C2972 1.373 . S
C2973 C2974 1.396 . S
C2973 C2980 1.403 . S
C2974 C2964 1.476 . S
C2974 N2969 1.318 . S
C2974 C2973 1.396 . S
H2975 C2970 0.929 . S
O2976 Mn2952 2.385 . S
O2976 C2954 1.234 . S
O2977 Mn2952 2.209 . S
O2977 Mn2953 2.215 . S
O2977 C2954 1.283 . S
O2978 Mn2952 2.094 . S
O2978 C2956 1.240 . S
O2979 Mn2953 2.117 . S
O2979 C2956 1.264 . S
C2980 C2973 1.403 . S
C2980 C2981 1.399 . S
C2980 H2986 0.929 . S
C2981 C2961 1.449 . S
C2981 C2980 1.399 . S
C2981 H2987 0.930 . S
H2982 C2962 0.931 . S
H2983 C2963 0.930 . S
H2984 C2971 0.931 . S
H2985 C2972 0.929 . S
H2986 C2980 0.929 . S
H2987 C2981 0.930 . S
Mn2988 O2993 2.095 . S
Mn2988 O3003 2.162 . S
Mn2988 O3004 2.297 . S
Mn2988 O3012 2.385 . S
Mn2988 O3013 2.209 . S
Mn2988 O3014 2.094 . S
Mn2989 O2994 2.121 . S
Mn2989 N2996 2.257 . S
Mn2989 N3005 2.282 . S
Mn2989 O3013 2.215 . S
Mn2989 O3015 2.117 . S
C2990 O3012 1.234 . S
C2990 O3013 1.283 . S
C2991 O3003 1.281 . S
C2991 O3004 1.236 . S
C2992 O3014 1.240 . S
C2992 O3015 1.264 . S
O2993 Mn2988 2.095 . S
O2993 C3002 1.250 . S
O2994 Mn2989 2.121 . S
O2994 C3002 1.258 . S
C2995 N2996 1.326 . S
C2995 C2999 1.460 1_565 S
C2995 H3001 0.929 . S
N2996 Mn2989 2.257 . S
N2996 C2995 1.326 . S
N2996 C3000 1.362 . S
C2997 C2998 1.258 1_565 S
C2997 C3000 1.431 . S
C2997 C3017 1.449 . S
C2998 C2997 1.258 1_545 S
C2998 C2999 1.477 . S
C2998 H3018 0.931 . S
C2999 C2995 1.460 1_545 S
C2999 C2998 1.477 . S
C2999 H3019 0.930 . S
C3000 N2996 1.362 . S
C3000 C2997 1.431 . S
C3000 C3010 1.476 . S
H3001 C2995 0.929 . S
C3002 O2993 1.250 . S
C3002 O2994 1.258 . S
O3003 Mn2988 2.162 . S
O3003 C2991 1.281 . S
O3004 Mn2988 2.297 . S
O3004 C2991 1.236 . S
N3005 Mn2989 2.282 . S
N3005 C3006 1.328 . S
N3005 C3010 1.318 . S
C3006 N3005 1.328 . S
C3006 C3007 1.457 . S
C3006 H3011 0.929 . S
C3007 C3006 1.457 . S
C3007 C3008 1.291 . S
C3007 H3020 0.931 . S
C3008 C3007 1.291 . S
C3008 C3009 1.373 . S
C3008 H3021 0.929 . S
C3009 C3008 1.373 . S
C3009 C3010 1.396 . S
C3009 C3016 1.403 . S
C3010 C3000 1.476 . S
C3010 N3005 1.318 . S
C3010 C3009 1.396 . S
H3011 C3006 0.929 . S
O3012 Mn2988 2.385 . S
O3012 C2990 1.234 . S
O3013 Mn2988 2.209 . S
O3013 Mn2989 2.215 . S
O3013 C2990 1.283 . S
O3014 Mn2988 2.094 . S
O3014 C2992 1.240 . S
O3015 Mn2989 2.117 . S
O3015 C2992 1.264 . S
C3016 C3009 1.403 . S
C3016 C3017 1.399 . S
C3016 H3022 0.929 . S
C3017 C2997 1.449 . S
C3017 C3016 1.399 . S
C3017 H3023 0.930 . S
H3018 C2998 0.931 . S
H3019 C2999 0.930 . S
H3020 C3007 0.931 . S
H3021 C3008 0.929 . S
H3022 C3016 0.929 . S
H3023 C3017 0.930 . S
Mn3024 O3029 2.095 . S
Mn3024 O3039 2.162 . S
Mn3024 O3040 2.297 . S
Mn3024 O3048 2.385 . S
Mn3024 O3049 2.209 . S
Mn3024 O3050 2.094 . S
Mn3025 O3030 2.121 . S
Mn3025 N3032 2.257 . S
Mn3025 N3041 2.282 . S
Mn3025 O3049 2.215 . S
Mn3025 O3051 2.117 . S
C3026 O3048 1.234 . S
C3026 O3049 1.283 . S
C3027 O3039 1.281 . S
C3027 O3040 1.236 . S
C3028 O3050 1.240 . S
C3028 O3051 1.264 . S
O3029 Mn3024 2.095 . S
O3029 C3038 1.250 . S
O3030 Mn3025 2.121 . S
O3030 C3038 1.258 . S
C3031 N3032 1.326 . S
C3031 C3035 1.460 . S
C3031 H3037 0.929 . S
N3032 Mn3025 2.257 . S
N3032 C3031 1.326 . S
N3032 C3036 1.362 . S
C3033 C3034 1.258 . S
C3033 C3036 1.431 . S
C3033 C3053 1.449 . S
C3034 C3033 1.258 . S
C3034 C3035 1.477 . S
C3034 H3054 0.931 . S
C3035 C3031 1.460 . S
C3035 C3034 1.477 . S
C3035 H3055 0.930 . S
C3036 N3032 1.362 . S
C3036 C3033 1.431 . S
C3036 C3046 1.476 . S
H3037 C3031 0.929 . S
C3038 O3029 1.250 . S
C3038 O3030 1.258 . S
O3039 Mn3024 2.162 . S
O3039 C3027 1.281 . S
O3040 Mn3024 2.297 . S
O3040 C3027 1.236 . S
N3041 Mn3025 2.282 . S
N3041 C3042 1.328 . S
N3041 C3046 1.318 . S
C3042 N3041 1.328 . S
C3042 C3043 1.457 . S
C3042 H3047 0.929 . S
C3043 C3042 1.457 . S
C3043 C3044 1.291 . S
C3043 H3056 0.931 . S
C3044 C3043 1.291 . S
C3044 C3045 1.373 . S
C3044 H3057 0.929 . S
C3045 C3044 1.373 . S
C3045 C3046 1.396 . S
C3045 C3052 1.403 . S
C3046 C3036 1.476 . S
C3046 N3041 1.318 . S
C3046 C3045 1.396 . S
H3047 C3042 0.929 . S
O3048 Mn3024 2.385 . S
O3048 C3026 1.234 . S
O3049 Mn3024 2.209 . S
O3049 Mn3025 2.215 . S
O3049 C3026 1.283 . S
O3050 Mn3024 2.094 . S
O3050 C3028 1.240 . S
O3051 Mn3025 2.117 . S
O3051 C3028 1.264 . S
C3052 C3045 1.403 . S
C3052 C3053 1.399 . S
C3052 H3058 0.929 . S
C3053 C3033 1.449 . S
C3053 C3052 1.399 . S
C3053 H3059 0.930 . S
H3054 C3034 0.931 . S
H3055 C3035 0.930 . S
H3056 C3043 0.931 . S
H3057 C3044 0.929 . S
H3058 C3052 0.929 . S
H3059 C3053 0.930 . S
Mn3060 O3065 2.095 . S
Mn3060 O3075 2.162 . S
Mn3060 O3076 2.297 . S
Mn3060 O3084 2.385 . S
Mn3060 O3085 2.209 . S
Mn3060 O3086 2.094 . S
Mn3061 O3066 2.121 . S
Mn3061 N3068 2.257 . S
Mn3061 N3077 2.282 . S
Mn3061 O3085 2.215 . S
Mn3061 O3087 2.117 . S
C3062 O3084 1.234 . S
C3062 O3085 1.283 . S
C3063 O3075 1.281 . S
C3063 O3076 1.236 . S
C3064 O3086 1.240 . S
C3064 O3087 1.264 . S
O3065 Mn3060 2.095 . S
O3065 C3074 1.250 . S
O3066 Mn3061 2.121 . S
O3066 C3074 1.258 . S
C3067 N3068 1.326 . S
C3067 C3071 1.460 . S
C3067 H3073 0.929 . S
N3068 Mn3061 2.257 . S
N3068 C3067 1.326 . S
N3068 C3072 1.362 . S
C3069 C3070 1.258 . S
C3069 C3072 1.431 . S
C3069 C3089 1.449 . S
C3070 C3069 1.258 . S
C3070 C3071 1.477 . S
C3070 H3090 0.931 . S
C3071 C3067 1.460 . S
C3071 C3070 1.477 . S
C3071 H3091 0.930 . S
C3072 N3068 1.362 . S
C3072 C3069 1.431 . S
C3072 C3082 1.476 . S
H3073 C3067 0.929 . S
C3074 O3065 1.250 . S
C3074 O3066 1.258 . S
O3075 Mn3060 2.162 . S
O3075 C3063 1.281 . S
O3076 Mn3060 2.297 . S
O3076 C3063 1.236 . S
N3077 Mn3061 2.282 . S
N3077 C3078 1.328 . S
N3077 C3082 1.318 . S
C3078 N3077 1.328 . S
C3078 C3079 1.457 . S
C3078 H3083 0.929 . S
C3079 C3078 1.457 . S
C3079 C3080 1.291 . S
C3079 H3092 0.931 . S
C3080 C3079 1.291 . S
C3080 C3081 1.373 . S
C3080 H3093 0.929 . S
C3081 C3080 1.373 . S
C3081 C3082 1.396 . S
C3081 C3088 1.403 . S
C3082 C3072 1.476 . S
C3082 N3077 1.318 . S
C3082 C3081 1.396 . S
H3083 C3078 0.929 . S
O3084 Mn3060 2.385 . S
O3084 C3062 1.234 . S
O3085 Mn3060 2.209 . S
O3085 Mn3061 2.215 . S
O3085 C3062 1.283 . S
O3086 Mn3060 2.094 . S
O3086 C3064 1.240 . S
O3087 Mn3061 2.117 . S
O3087 C3064 1.264 . S
C3088 C3081 1.403 . S
C3088 C3089 1.399 . S
C3088 H3094 0.929 . S
C3089 C3069 1.449 . S
C3089 C3088 1.399 . S
C3089 H3095 0.930 . S
H3090 C3070 0.931 . S
H3091 C3071 0.930 . S
H3092 C3079 0.931 . S
H3093 C3080 0.929 . S
H3094 C3088 0.929 . S
H3095 C3089 0.930 . S
Mn3096 O3101 2.095 . S
Mn3096 O3111 2.162 . S
Mn3096 O3112 2.297 . S
Mn3096 O3120 2.385 . S
Mn3096 O3121 2.209 . S
Mn3096 O3122 2.094 . S
Mn3097 O3102 2.121 . S
Mn3097 N3104 2.257 . S
Mn3097 N3113 2.282 . S
Mn3097 O3121 2.215 . S
Mn3097 O3123 2.117 . S
C3098 O3120 1.234 . S
C3098 O3121 1.283 . S
C3099 O3111 1.281 . S
C3099 O3112 1.236 . S
C3100 O3122 1.240 . S
C3100 O3123 1.264 . S
O3101 Mn3096 2.095 . S
O3101 C3110 1.250 . S
O3102 Mn3097 2.121 . S
O3102 C3110 1.258 . S
C3103 N3104 1.326 . S
C3103 C3107 1.460 . S
C3103 H3109 0.929 . S
N3104 Mn3097 2.257 . S
N3104 C3103 1.326 . S
N3104 C3108 1.362 . S
C3105 C3106 1.258 . S
C3105 C3108 1.431 . S
C3105 C3125 1.449 . S
C3106 C3105 1.258 . S
C3106 C3107 1.477 . S
C3106 H3126 0.931 . S
C3107 C3103 1.460 . S
C3107 C3106 1.477 . S
C3107 H3127 0.930 . S
C3108 N3104 1.362 . S
C3108 C3105 1.431 . S
C3108 C3118 1.476 . S
H3109 C3103 0.929 . S
C3110 O3101 1.250 . S
C3110 O3102 1.258 . S
O3111 Mn3096 2.162 . S
O3111 C3099 1.281 . S
O3112 Mn3096 2.297 . S
O3112 C3099 1.236 . S
N3113 Mn3097 2.282 . S
N3113 C3114 1.328 . S
N3113 C3118 1.318 . S
C3114 N3113 1.328 . S
C3114 C3115 1.457 . S
C3114 H3119 0.929 . S
C3115 C3114 1.457 . S
C3115 C3116 1.291 . S
C3115 H3128 0.931 . S
C3116 C3115 1.291 . S
C3116 C3117 1.373 . S
C3116 H3129 0.929 . S
C3117 C3116 1.373 . S
C3117 C3118 1.396 . S
C3117 C3124 1.403 . S
C3118 C3108 1.476 . S
C3118 N3113 1.318 . S
C3118 C3117 1.396 . S
H3119 C3114 0.929 . S
O3120 Mn3096 2.385 . S
O3120 C3098 1.234 . S
O3121 Mn3096 2.209 . S
O3121 Mn3097 2.215 . S
O3121 C3098 1.283 . S
O3122 Mn3096 2.094 . S
O3122 C3100 1.240 . S
O3123 Mn3097 2.117 . S
O3123 C3100 1.264 . S
C3124 C3117 1.403 . S
C3124 C3125 1.399 . S
C3124 H3130 0.929 . S
C3125 C3105 1.449 . S
C3125 C3124 1.399 . S
C3125 H3131 0.930 . S
H3126 C3106 0.931 . S
H3127 C3107 0.930 . S
H3128 C3115 0.931 . S
H3129 C3116 0.929 . S
H3130 C3124 0.929 . S
H3131 C3125 0.930 . S
Mn3132 O3137 2.095 . S
Mn3132 O3147 2.162 . S
Mn3132 O3148 2.297 . S
Mn3132 O3156 2.385 . S
Mn3132 O3157 2.209 . S
Mn3132 O3158 2.094 . S
Mn3133 O3138 2.121 . S
Mn3133 N3140 2.257 . S
Mn3133 N3149 2.282 . S
Mn3133 O3157 2.215 . S
Mn3133 O3159 2.117 . S
C3134 O3156 1.234 . S
C3134 O3157 1.283 . S
C3135 O3147 1.281 . S
C3135 O3148 1.236 . S
C3136 O3158 1.240 . S
C3136 O3159 1.264 . S
O3137 Mn3132 2.095 . S
O3137 C3146 1.250 . S
O3138 Mn3133 2.121 . S
O3138 C3146 1.258 . S
C3139 N3140 1.326 . S
C3139 C3143 1.460 1_565 S
C3139 H3145 0.929 . S
N3140 Mn3133 2.257 . S
N3140 C3139 1.326 . S
N3140 C3144 1.362 . S
C3141 C3142 1.258 1_565 S
C3141 C3144 1.431 . S
C3141 C3161 1.449 . S
C3142 C3141 1.258 1_545 S
C3142 C3143 1.477 . S
C3142 H3162 0.931 . S
C3143 C3139 1.460 1_545 S
C3143 C3142 1.477 . S
C3143 H3163 0.930 . S
C3144 N3140 1.362 . S
C3144 C3141 1.431 . S
C3144 C3154 1.476 . S
H3145 C3139 0.929 . S
C3146 O3137 1.250 . S
C3146 O3138 1.258 . S
O3147 Mn3132 2.162 . S
O3147 C3135 1.281 . S
O3148 Mn3132 2.297 . S
O3148 C3135 1.236 . S
N3149 Mn3133 2.282 . S
N3149 C3150 1.328 . S
N3149 C3154 1.318 . S
C3150 N3149 1.328 . S
C3150 C3151 1.457 . S
C3150 H3155 0.929 . S
C3151 C3150 1.457 . S
C3151 C3152 1.291 . S
C3151 H3164 0.931 . S
C3152 C3151 1.291 . S
C3152 C3153 1.373 . S
C3152 H3165 0.929 . S
C3153 C3152 1.373 . S
C3153 C3154 1.396 . S
C3153 C3160 1.403 . S
C3154 C3144 1.476 . S
C3154 N3149 1.318 . S
C3154 C3153 1.396 . S
H3155 C3150 0.929 . S
O3156 Mn3132 2.385 . S
O3156 C3134 1.234 . S
O3157 Mn3132 2.209 . S
O3157 Mn3133 2.215 . S
O3157 C3134 1.283 . S
O3158 Mn3132 2.094 . S
O3158 C3136 1.240 . S
O3159 Mn3133 2.117 . S
O3159 C3136 1.264 . S
C3160 C3153 1.403 . S
C3160 C3161 1.399 . S
C3160 H3166 0.929 . S
C3161 C3141 1.449 . S
C3161 C3160 1.399 . S
C3161 H3167 0.930 . S
H3162 C3142 0.931 . S
H3163 C3143 0.930 . S
H3164 C3151 0.931 . S
H3165 C3152 0.929 . S
H3166 C3160 0.929 . S
H3167 C3161 0.930 . S
Mn3168 O3173 2.095 . S
Mn3168 O3183 2.162 . S
Mn3168 O3184 2.297 . S
Mn3168 O3192 2.385 . S
Mn3168 O3193 2.209 . S
Mn3168 O3194 2.094 . S
Mn3169 O3174 2.121 . S
Mn3169 N3176 2.257 . S
Mn3169 N3185 2.282 . S
Mn3169 O3193 2.215 . S
Mn3169 O3195 2.117 . S
C3170 O3192 1.234 . S
C3170 O3193 1.283 . S
C3171 O3183 1.281 . S
C3171 O3184 1.236 . S
C3172 O3194 1.240 . S
C3172 O3195 1.264 . S
O3173 Mn3168 2.095 . S
O3173 C3182 1.250 . S
O3174 Mn3169 2.121 . S
O3174 C3182 1.258 . S
C3175 N3176 1.326 . S
C3175 C3179 1.460 1_545 S
C3175 H3181 0.929 . S
N3176 Mn3169 2.257 . S
N3176 C3175 1.326 . S
N3176 C3180 1.362 . S
C3177 C3178 1.258 1_545 S
C3177 C3180 1.431 . S
C3177 C3197 1.449 . S
C3178 C3177 1.258 1_565 S
C3178 C3179 1.477 . S
C3178 H3198 0.931 . S
C3179 C3175 1.460 1_565 S
C3179 C3178 1.477 . S
C3179 H3199 0.930 . S
C3180 N3176 1.362 . S
C3180 C3177 1.431 . S
C3180 C3190 1.476 . S
H3181 C3175 0.929 . S
C3182 O3173 1.250 . S
C3182 O3174 1.258 . S
O3183 Mn3168 2.162 . S
O3183 C3171 1.281 . S
O3184 Mn3168 2.297 . S
O3184 C3171 1.236 . S
N3185 Mn3169 2.282 . S
N3185 C3186 1.328 . S
N3185 C3190 1.318 . S
C3186 N3185 1.328 . S
C3186 C3187 1.457 . S
C3186 H3191 0.929 . S
C3187 C3186 1.457 . S
C3187 C3188 1.291 . S
C3187 H3200 0.931 . S
C3188 C3187 1.291 . S
C3188 C3189 1.373 . S
C3188 H3201 0.929 . S
C3189 C3188 1.373 . S
C3189 C3190 1.396 . S
C3189 C3196 1.403 . S
C3190 C3180 1.476 . S
C3190 N3185 1.318 . S
C3190 C3189 1.396 . S
H3191 C3186 0.929 . S
O3192 Mn3168 2.385 . S
O3192 C3170 1.234 . S
O3193 Mn3168 2.209 . S
O3193 Mn3169 2.215 . S
O3193 C3170 1.283 . S
O3194 Mn3168 2.094 . S
O3194 C3172 1.240 . S
O3195 Mn3169 2.117 . S
O3195 C3172 1.264 . S
C3196 C3189 1.403 . S
C3196 C3197 1.399 . S
C3196 H3202 0.929 . S
C3197 C3177 1.449 . S
C3197 C3196 1.399 . S
C3197 H3203 0.930 . S
H3198 C3178 0.931 . S
H3199 C3179 0.930 . S
H3200 C3187 0.931 . S
H3201 C3188 0.929 . S
H3202 C3196 0.929 . S
H3203 C3197 0.930 . S
Mn3204 O3209 2.095 . S
Mn3204 O3219 2.162 . S
Mn3204 O3220 2.297 . S
Mn3204 O3228 2.385 . S
Mn3204 O3229 2.209 . S
Mn3204 O3230 2.094 . S
Mn3205 O3210 2.121 . S
Mn3205 N3212 2.257 . S
Mn3205 N3221 2.282 . S
Mn3205 O3229 2.215 . S
Mn3205 O3231 2.117 . S
C3206 O3228 1.234 . S
C3206 O3229 1.283 . S
C3207 O3219 1.281 . S
C3207 O3220 1.236 . S
C3208 O3230 1.240 . S
C3208 O3231 1.264 . S
O3209 Mn3204 2.095 . S
O3209 C3218 1.250 . S
O3210 Mn3205 2.121 . S
O3210 C3218 1.258 . S
C3211 N3212 1.326 . S
C3211 C3215 1.460 . S
C3211 H3217 0.929 . S
N3212 Mn3205 2.257 . S
N3212 C3211 1.326 . S
N3212 C3216 1.362 . S
C3213 C3214 1.258 . S
C3213 C3216 1.431 . S
C3213 C3233 1.449 . S
C3214 C3213 1.258 . S
C3214 C3215 1.477 . S
C3214 H3234 0.931 . S
C3215 C3211 1.460 . S
C3215 C3214 1.477 . S
C3215 H3235 0.930 . S
C3216 N3212 1.362 . S
C3216 C3213 1.431 . S
C3216 C3226 1.476 . S
H3217 C3211 0.929 . S
C3218 O3209 1.250 . S
C3218 O3210 1.258 . S
O3219 Mn3204 2.162 . S
O3219 C3207 1.281 . S
O3220 Mn3204 2.297 . S
O3220 C3207 1.236 . S
N3221 Mn3205 2.282 . S
N3221 C3222 1.328 . S
N3221 C3226 1.318 . S
C3222 N3221 1.328 . S
C3222 C3223 1.457 . S
C3222 H3227 0.929 . S
C3223 C3222 1.457 . S
C3223 C3224 1.291 . S
C3223 H3236 0.931 . S
C3224 C3223 1.291 . S
C3224 C3225 1.373 . S
C3224 H3237 0.929 . S
C3225 C3224 1.373 . S
C3225 C3226 1.396 . S
C3225 C3232 1.403 . S
C3226 C3216 1.476 . S
C3226 N3221 1.318 . S
C3226 C3225 1.396 . S
H3227 C3222 0.929 . S
O3228 Mn3204 2.385 . S
O3228 C3206 1.234 . S
O3229 Mn3204 2.209 . S
O3229 Mn3205 2.215 . S
O3229 C3206 1.283 . S
O3230 Mn3204 2.094 . S
O3230 C3208 1.240 . S
O3231 Mn3205 2.117 . S
O3231 C3208 1.264 . S
C3232 C3225 1.403 . S
C3232 C3233 1.399 . S
C3232 H3238 0.929 . S
C3233 C3213 1.449 . S
C3233 C3232 1.399 . S
C3233 H3239 0.930 . S
H3234 C3214 0.931 . S
H3235 C3215 0.930 . S
H3236 C3223 0.931 . S
H3237 C3224 0.929 . S
H3238 C3232 0.929 . S
H3239 C3233 0.930 . S
Mn3240 O3245 2.095 . S
Mn3240 O3255 2.162 . S
Mn3240 O3256 2.297 . S
Mn3240 O3264 2.385 . S
Mn3240 O3265 2.209 . S
Mn3240 O3266 2.094 . S
Mn3241 O3246 2.121 . S
Mn3241 N3248 2.257 . S
Mn3241 N3257 2.282 . S
Mn3241 O3265 2.215 . S
Mn3241 O3267 2.117 . S
C3242 O3264 1.234 . S
C3242 O3265 1.283 . S
C3243 O3255 1.281 . S
C3243 O3256 1.236 . S
C3244 O3266 1.240 . S
C3244 O3267 1.264 . S
O3245 Mn3240 2.095 . S
O3245 C3254 1.250 . S
O3246 Mn3241 2.121 . S
O3246 C3254 1.258 . S
C3247 N3248 1.326 . S
C3247 C3251 1.460 . S
C3247 H3253 0.929 . S
N3248 Mn3241 2.257 . S
N3248 C3247 1.326 . S
N3248 C3252 1.362 . S
C3249 C3250 1.258 . S
C3249 C3252 1.431 . S
C3249 C3269 1.449 . S
C3250 C3249 1.258 . S
C3250 C3251 1.477 . S
C3250 H3270 0.931 . S
C3251 C3247 1.460 . S
C3251 C3250 1.477 . S
C3251 H3271 0.930 . S
C3252 N3248 1.362 . S
C3252 C3249 1.431 . S
C3252 C3262 1.476 . S
H3253 C3247 0.929 . S
C3254 O3245 1.250 . S
C3254 O3246 1.258 . S
O3255 Mn3240 2.162 . S
O3255 C3243 1.281 . S
O3256 Mn3240 2.297 . S
O3256 C3243 1.236 . S
N3257 Mn3241 2.282 . S
N3257 C3258 1.328 . S
N3257 C3262 1.318 . S
C3258 N3257 1.328 . S
C3258 C3259 1.457 . S
C3258 H3263 0.929 . S
C3259 C3258 1.457 . S
C3259 C3260 1.291 . S
C3259 H3272 0.931 . S
C3260 C3259 1.291 . S
C3260 C3261 1.373 . S
C3260 H3273 0.929 . S
C3261 C3260 1.373 . S
C3261 C3262 1.396 . S
C3261 C3268 1.403 . S
C3262 C3252 1.476 . S
C3262 N3257 1.318 . S
C3262 C3261 1.396 . S
H3263 C3258 0.929 . S
O3264 Mn3240 2.385 . S
O3264 C3242 1.234 . S
O3265 Mn3240 2.209 . S
O3265 Mn3241 2.215 . S
O3265 C3242 1.283 . S
O3266 Mn3240 2.094 . S
O3266 C3244 1.240 . S
O3267 Mn3241 2.117 . S
O3267 C3244 1.264 . S
C3268 C3261 1.403 . S
C3268 C3269 1.399 . S
C3268 H3274 0.929 . S
C3269 C3249 1.449 . S
C3269 C3268 1.399 . S
C3269 H3275 0.930 . S
H3270 C3250 0.931 . S
H3271 C3251 0.930 . S
H3272 C3259 0.931 . S
H3273 C3260 0.929 . S
H3274 C3268 0.929 . S
H3275 C3269 0.930 . S
Mn3276 O3281 2.095 . S
Mn3276 O3291 2.162 . S
Mn3276 O3292 2.297 . S
Mn3276 O3300 2.385 . S
Mn3276 O3301 2.209 . S
Mn3276 O3302 2.094 . S
Mn3277 O3282 2.121 . S
Mn3277 N3284 2.257 . S
Mn3277 N3293 2.282 . S
Mn3277 O3301 2.215 . S
Mn3277 O3303 2.117 . S
C3278 O3300 1.234 . S
C3278 O3301 1.283 . S
C3279 O3291 1.281 . S
C3279 O3292 1.236 . S
C3280 O3302 1.240 . S
C3280 O3303 1.264 . S
O3281 Mn3276 2.095 . S
O3281 C3290 1.250 . S
O3282 Mn3277 2.121 . S
O3282 C3290 1.258 . S
C3283 N3284 1.326 . S
C3283 C3287 1.460 . S
C3283 H3289 0.929 . S
N3284 Mn3277 2.257 . S
N3284 C3283 1.326 . S
N3284 C3288 1.362 . S
C3285 C3286 1.258 . S
C3285 C3288 1.431 . S
C3285 C3305 1.449 . S
C3286 C3285 1.258 . S
C3286 C3287 1.477 . S
C3286 H3306 0.931 . S
C3287 C3283 1.460 . S
C3287 C3286 1.477 . S
C3287 H3307 0.930 . S
C3288 N3284 1.362 . S
C3288 C3285 1.431 . S
C3288 C3298 1.476 . S
H3289 C3283 0.929 . S
C3290 O3281 1.250 . S
C3290 O3282 1.258 . S
O3291 Mn3276 2.162 . S
O3291 C3279 1.281 . S
O3292 Mn3276 2.297 . S
O3292 C3279 1.236 . S
N3293 Mn3277 2.282 . S
N3293 C3294 1.328 . S
N3293 C3298 1.318 . S
C3294 N3293 1.328 . S
C3294 C3295 1.457 . S
C3294 H3299 0.929 . S
C3295 C3294 1.457 . S
C3295 C3296 1.291 . S
C3295 H3308 0.931 . S
C3296 C3295 1.291 . S
C3296 C3297 1.373 . S
C3296 H3309 0.929 . S
C3297 C3296 1.373 . S
C3297 C3298 1.396 . S
C3297 C3304 1.403 . S
C3298 C3288 1.476 . S
C3298 N3293 1.318 . S
C3298 C3297 1.396 . S
H3299 C3294 0.929 . S
O3300 Mn3276 2.385 . S
O3300 C3278 1.234 . S
O3301 Mn3276 2.209 . S
O3301 Mn3277 2.215 . S
O3301 C3278 1.283 . S
O3302 Mn3276 2.094 . S
O3302 C3280 1.240 . S
O3303 Mn3277 2.117 . S
O3303 C3280 1.264 . S
C3304 C3297 1.403 . S
C3304 C3305 1.399 . S
C3304 H3310 0.929 . S
C3305 C3285 1.449 . S
C3305 C3304 1.399 . S
C3305 H3311 0.930 . S
H3306 C3286 0.931 . S
H3307 C3287 0.930 . S
H3308 C3295 0.931 . S
H3309 C3296 0.929 . S
H3310 C3304 0.929 . S
H3311 C3305 0.930 . S
Mn3312 O3317 2.095 . S
Mn3312 O3327 2.162 . S
Mn3312 O3328 2.297 . S
Mn3312 O3336 2.385 . S
Mn3312 O3337 2.209 . S
Mn3312 O3338 2.094 . S
Mn3313 O3318 2.121 . S
Mn3313 N3320 2.257 . S
Mn3313 N3329 2.282 . S
Mn3313 O3337 2.215 . S
Mn3313 O3339 2.117 . S
C3314 O3336 1.234 . S
C3314 O3337 1.283 . S
C3315 O3327 1.281 . S
C3315 O3328 1.236 . S
C3316 O3338 1.240 . S
C3316 O3339 1.264 . S
O3317 Mn3312 2.095 . S
O3317 C3326 1.250 . S
O3318 Mn3313 2.121 . S
O3318 C3326 1.258 . S
C3319 N3320 1.326 . S
C3319 C3323 1.460 . S
C3319 H3325 0.929 . S
N3320 Mn3313 2.257 . S
N3320 C3319 1.326 . S
N3320 C3324 1.362 . S
C3321 C3322 1.258 . S
C3321 C3324 1.431 . S
C3321 C3341 1.449 . S
C3322 C3321 1.258 . S
C3322 C3323 1.477 . S
C3322 H3342 0.931 . S
C3323 C3319 1.460 . S
C3323 C3322 1.477 . S
C3323 H3343 0.930 . S
C3324 N3320 1.362 . S
C3324 C3321 1.431 . S
C3324 C3334 1.476 . S
H3325 C3319 0.929 . S
C3326 O3317 1.250 . S
C3326 O3318 1.258 . S
O3327 Mn3312 2.162 . S
O3327 C3315 1.281 . S
O3328 Mn3312 2.297 . S
O3328 C3315 1.236 . S
N3329 Mn3313 2.282 . S
N3329 C3330 1.328 . S
N3329 C3334 1.318 . S
C3330 N3329 1.328 . S
C3330 C3331 1.457 . S
C3330 H3335 0.929 . S
C3331 C3330 1.457 . S
C3331 C3332 1.291 . S
C3331 H3344 0.931 . S
C3332 C3331 1.291 . S
C3332 C3333 1.373 . S
C3332 H3345 0.929 . S
C3333 C3332 1.373 . S
C3333 C3334 1.396 . S
C3333 C3340 1.403 . S
C3334 C3324 1.476 . S
C3334 N3329 1.318 . S
C3334 C3333 1.396 . S
H3335 C3330 0.929 . S
O3336 Mn3312 2.385 . S
O3336 C3314 1.234 . S
O3337 Mn3312 2.209 . S
O3337 Mn3313 2.215 . S
O3337 C3314 1.283 . S
O3338 Mn3312 2.094 . S
O3338 C3316 1.240 . S
O3339 Mn3313 2.117 . S
O3339 C3316 1.264 . S
C3340 C3333 1.403 . S
C3340 C3341 1.399 . S
C3340 H3346 0.929 . S
C3341 C3321 1.449 . S
C3341 C3340 1.399 . S
C3341 H3347 0.930 . S
H3342 C3322 0.931 . S
H3343 C3323 0.930 . S
H3344 C3331 0.931 . S
H3345 C3332 0.929 . S
H3346 C3340 0.929 . S
H3347 C3341 0.930 . S
Mn3348 O3353 2.095 . S
Mn3348 O3363 2.162 . S
Mn3348 O3364 2.297 . S
Mn3348 O3372 2.385 . S
Mn3348 O3373 2.209 . S
Mn3348 O3374 2.094 . S
Mn3349 O3354 2.121 . S
Mn3349 N3356 2.257 . S
Mn3349 N3365 2.282 . S
Mn3349 O3373 2.215 . S
Mn3349 O3375 2.117 . S
C3350 O3372 1.234 . S
C3350 O3373 1.283 . S
C3351 O3363 1.281 . S
C3351 O3364 1.236 . S
C3352 O3374 1.240 . S
C3352 O3375 1.264 . S
O3353 Mn3348 2.095 . S
O3353 C3362 1.250 . S
O3354 Mn3349 2.121 . S
O3354 C3362 1.258 . S
C3355 N3356 1.326 . S
C3355 C3359 1.460 . S
C3355 H3361 0.929 . S
N3356 Mn3349 2.257 . S
N3356 C3355 1.326 . S
N3356 C3360 1.362 . S
C3357 C3358 1.258 . S
C3357 C3360 1.431 . S
C3357 C3377 1.449 . S
C3358 C3357 1.258 . S
C3358 C3359 1.477 . S
C3358 H3378 0.931 . S
C3359 C3355 1.460 . S
C3359 C3358 1.477 . S
C3359 H3379 0.930 . S
C3360 N3356 1.362 . S
C3360 C3357 1.431 . S
C3360 C3370 1.476 . S
H3361 C3355 0.929 . S
C3362 O3353 1.250 . S
C3362 O3354 1.258 . S
O3363 Mn3348 2.162 . S
O3363 C3351 1.281 . S
O3364 Mn3348 2.297 . S
O3364 C3351 1.236 . S
N3365 Mn3349 2.282 . S
N3365 C3366 1.328 . S
N3365 C3370 1.318 . S
C3366 N3365 1.328 . S
C3366 C3367 1.457 . S
C3366 H3371 0.929 . S
C3367 C3366 1.457 . S
C3367 C3368 1.291 . S
C3367 H3380 0.931 . S
C3368 C3367 1.291 . S
C3368 C3369 1.373 . S
C3368 H3381 0.929 . S
C3369 C3368 1.373 . S
C3369 C3370 1.396 . S
C3369 C3376 1.403 . S
C3370 C3360 1.476 . S
C3370 N3365 1.318 . S
C3370 C3369 1.396 . S
H3371 C3366 0.929 . S
O3372 Mn3348 2.385 . S
O3372 C3350 1.234 . S
O3373 Mn3348 2.209 . S
O3373 Mn3349 2.215 . S
O3373 C3350 1.283 . S
O3374 Mn3348 2.094 . S
O3374 C3352 1.240 . S
O3375 Mn3349 2.117 . S
O3375 C3352 1.264 . S
C3376 C3369 1.403 . S
C3376 C3377 1.399 . S
C3376 H3382 0.929 . S
C3377 C3357 1.449 . S
C3377 C3376 1.399 . S
C3377 H3383 0.930 . S
H3378 C3358 0.931 . S
H3379 C3359 0.930 . S
H3380 C3367 0.931 . S
H3381 C3368 0.929 . S
H3382 C3376 0.929 . S
H3383 C3377 0.930 . S
Mn3384 O3389 2.095 . S
Mn3384 O3399 2.162 . S
Mn3384 O3400 2.297 . S
Mn3384 O3408 2.385 . S
Mn3384 O3409 2.209 . S
Mn3384 O3410 2.094 . S
Mn3385 O3390 2.121 . S
Mn3385 N3392 2.257 . S
Mn3385 N3401 2.282 . S
Mn3385 O3409 2.215 . S
Mn3385 O3411 2.117 . S
C3386 O3408 1.234 . S
C3386 O3409 1.283 . S
C3387 O3399 1.281 . S
C3387 O3400 1.236 . S
C3388 O3410 1.240 . S
C3388 O3411 1.264 . S
O3389 Mn3384 2.095 . S
O3389 C3398 1.250 . S
O3390 Mn3385 2.121 . S
O3390 C3398 1.258 . S
C3391 N3392 1.326 . S
C3391 C3395 1.460 . S
C3391 H3397 0.929 . S
N3392 Mn3385 2.257 . S
N3392 C3391 1.326 . S
N3392 C3396 1.362 . S
C3393 C3394 1.258 . S
C3393 C3396 1.431 . S
C3393 C3413 1.449 . S
C3394 C3393 1.258 . S
C3394 C3395 1.477 . S
C3394 H3414 0.931 . S
C3395 C3391 1.460 . S
C3395 C3394 1.477 . S
C3395 H3415 0.930 . S
C3396 N3392 1.362 . S
C3396 C3393 1.431 . S
C3396 C3406 1.476 . S
H3397 C3391 0.929 . S
C3398 O3389 1.250 . S
C3398 O3390 1.258 . S
O3399 Mn3384 2.162 . S
O3399 C3387 1.281 . S
O3400 Mn3384 2.297 . S
O3400 C3387 1.236 . S
N3401 Mn3385 2.282 . S
N3401 C3402 1.328 . S
N3401 C3406 1.318 . S
C3402 N3401 1.328 . S
C3402 C3403 1.457 . S
C3402 H3407 0.929 . S
C3403 C3402 1.457 . S
C3403 C3404 1.291 . S
C3403 H3416 0.931 . S
C3404 C3403 1.291 . S
C3404 C3405 1.373 . S
C3404 H3417 0.929 . S
C3405 C3404 1.373 . S
C3405 C3406 1.396 . S
C3405 C3412 1.403 . S
C3406 C3396 1.476 . S
C3406 N3401 1.318 . S
C3406 C3405 1.396 . S
H3407 C3402 0.929 . S
O3408 Mn3384 2.385 . S
O3408 C3386 1.234 . S
O3409 Mn3384 2.209 . S
O3409 Mn3385 2.215 . S
O3409 C3386 1.283 . S
O3410 Mn3384 2.094 . S
O3410 C3388 1.240 . S
O3411 Mn3385 2.117 . S
O3411 C3388 1.264 . S
C3412 C3405 1.403 . S
C3412 C3413 1.399 . S
C3412 H3418 0.929 . S
C3413 C3393 1.449 . S
C3413 C3412 1.399 . S
C3413 H3419 0.930 . S
H3414 C3394 0.931 . S
H3415 C3395 0.930 . S
H3416 C3403 0.931 . S
H3417 C3404 0.929 . S
H3418 C3412 0.929 . S
H3419 C3413 0.930 . S
Mn3420 O3425 2.095 . S
Mn3420 O3435 2.162 . S
Mn3420 O3436 2.297 . S
Mn3420 O3444 2.385 . S
Mn3420 O3445 2.209 . S
Mn3420 O3446 2.094 . S
Mn3421 O3426 2.121 . S
Mn3421 N3428 2.257 . S
Mn3421 N3437 2.282 . S
Mn3421 O3445 2.215 . S
Mn3421 O3447 2.117 . S
C3422 O3444 1.234 . S
C3422 O3445 1.283 . S
C3423 O3435 1.281 . S
C3423 O3436 1.236 . S
C3424 O3446 1.240 . S
C3424 O3447 1.264 . S
O3425 Mn3420 2.095 . S
O3425 C3434 1.250 . S
O3426 Mn3421 2.121 . S
O3426 C3434 1.258 . S
C3427 N3428 1.326 . S
C3427 C3431 1.460 1_655 S
C3427 H3433 0.929 . S
N3428 Mn3421 2.257 . S
N3428 C3427 1.326 . S
N3428 C3432 1.362 . S
C3429 C3430 1.258 1_655 S
C3429 C3432 1.431 . S
C3429 C3449 1.449 . S
C3430 C3429 1.258 1_455 S
C3430 C3431 1.477 . S
C3430 H3450 0.931 . S
C3431 C3427 1.460 1_455 S
C3431 C3430 1.477 . S
C3431 H3451 0.930 . S
C3432 N3428 1.362 . S
C3432 C3429 1.431 . S
C3432 C3442 1.476 . S
H3433 C3427 0.929 . S
C3434 O3425 1.250 . S
C3434 O3426 1.258 . S
O3435 Mn3420 2.162 . S
O3435 C3423 1.281 . S
O3436 Mn3420 2.297 . S
O3436 C3423 1.236 . S
N3437 Mn3421 2.282 . S
N3437 C3438 1.328 . S
N3437 C3442 1.318 . S
C3438 N3437 1.328 . S
C3438 C3439 1.457 . S
C3438 H3443 0.929 . S
C3439 C3438 1.457 . S
C3439 C3440 1.291 . S
C3439 H3452 0.931 . S
C3440 C3439 1.291 . S
C3440 C3441 1.373 . S
C3440 H3453 0.929 . S
C3441 C3440 1.373 . S
C3441 C3442 1.396 . S
C3441 C3448 1.403 . S
C3442 C3432 1.476 . S
C3442 N3437 1.318 . S
C3442 C3441 1.396 . S
H3443 C3438 0.929 . S
O3444 Mn3420 2.385 . S
O3444 C3422 1.234 . S
O3445 Mn3420 2.209 . S
O3445 Mn3421 2.215 . S
O3445 C3422 1.283 . S
O3446 Mn3420 2.094 . S
O3446 C3424 1.240 . S
O3447 Mn3421 2.117 . S
O3447 C3424 1.264 . S
C3448 C3441 1.403 . S
C3448 C3449 1.399 . S
C3448 H3454 0.929 . S
C3449 C3429 1.449 . S
C3449 C3448 1.399 . S
C3449 H3455 0.930 . S
H3450 C3430 0.931 . S
H3451 C3431 0.930 . S
H3452 C3439 0.931 . S
H3453 C3440 0.929 . S
H3454 C3448 0.929 . S
H3455 C3449 0.930 . S
Mn3456 O3461 2.095 . S
Mn3456 O3471 2.162 . S
Mn3456 O3472 2.297 . S
Mn3456 O3480 2.385 . S
Mn3456 O3481 2.209 . S
Mn3456 O3482 2.094 . S
Mn3457 O3462 2.121 . S
Mn3457 N3464 2.257 . S
Mn3457 N3473 2.282 . S
Mn3457 O3481 2.215 . S
Mn3457 O3483 2.117 . S
C3458 O3480 1.234 . S
C3458 O3481 1.283 . S
C3459 O3471 1.281 . S
C3459 O3472 1.236 . S
C3460 O3482 1.240 . S
C3460 O3483 1.264 . S
O3461 Mn3456 2.095 . S
O3461 C3470 1.250 . S
O3462 Mn3457 2.121 . S
O3462 C3470 1.258 . S
C3463 N3464 1.326 . S
C3463 C3467 1.460 1_556 S
C3463 H3469 0.929 . S
N3464 Mn3457 2.257 . S
N3464 C3463 1.326 . S
N3464 C3468 1.362 . S
C3465 C3466 1.258 1_556 S
C3465 C3468 1.431 . S
C3465 C3485 1.449 . S
C3466 C3465 1.258 1_554 S
C3466 C3467 1.477 . S
C3466 H3486 0.931 . S
C3467 C3463 1.460 1_554 S
C3467 C3466 1.477 . S
C3467 H3487 0.930 . S
C3468 N3464 1.362 . S
C3468 C3465 1.431 . S
C3468 C3478 1.476 . S
H3469 C3463 0.929 . S
C3470 O3461 1.250 . S
C3470 O3462 1.258 . S
O3471 Mn3456 2.162 . S
O3471 C3459 1.281 . S
O3472 Mn3456 2.297 . S
O3472 C3459 1.236 . S
N3473 Mn3457 2.282 . S
N3473 C3474 1.328 . S
N3473 C3478 1.318 . S
C3474 N3473 1.328 . S
C3474 C3475 1.457 . S
C3474 H3479 0.929 . S
C3475 C3474 1.457 . S
C3475 C3476 1.291 . S
C3475 H3488 0.931 . S
C3476 C3475 1.291 . S
C3476 C3477 1.373 . S
C3476 H3489 0.929 . S
C3477 C3476 1.373 . S
C3477 C3478 1.396 . S
C3477 C3484 1.403 . S
C3478 C3468 1.476 . S
C3478 N3473 1.318 . S
C3478 C3477 1.396 . S
H3479 C3474 0.929 . S
O3480 Mn3456 2.385 . S
O3480 C3458 1.234 . S
O3481 Mn3456 2.209 . S
O3481 Mn3457 2.215 . S
O3481 C3458 1.283 . S
O3482 Mn3456 2.094 . S
O3482 C3460 1.240 . S
O3483 Mn3457 2.117 . S
O3483 C3460 1.264 . S
C3484 C3477 1.403 . S
C3484 C3485 1.399 . S
C3484 H3490 0.929 . S
C3485 C3465 1.449 . S
C3485 C3484 1.399 . S
C3485 H3491 0.930 . S
H3486 C3466 0.931 . S
H3487 C3467 0.930 . S
H3488 C3475 0.931 . S
H3489 C3476 0.929 . S
H3490 C3484 0.929 . S
H3491 C3485 0.930 . S
Mn3492 O3497 2.095 . S
Mn3492 O3507 2.162 . S
Mn3492 O3508 2.297 . S
Mn3492 O3516 2.385 . S
Mn3492 O3517 2.209 . S
Mn3492 O3518 2.094 . S
Mn3493 O3498 2.121 . S
Mn3493 N3500 2.257 . S
Mn3493 N3509 2.282 . S
Mn3493 O3517 2.215 . S
Mn3493 O3519 2.117 . S
C3494 O3516 1.234 . S
C3494 O3517 1.283 . S
C3495 O3507 1.281 . S
C3495 O3508 1.236 . S
C3496 O3518 1.240 . S
C3496 O3519 1.264 . S
O3497 Mn3492 2.095 . S
O3497 C3506 1.250 . S
O3498 Mn3493 2.121 . S
O3498 C3506 1.258 . S
C3499 N3500 1.326 . S
C3499 C3503 1.460 . S
C3499 H3505 0.929 . S
N3500 Mn3493 2.257 . S
N3500 C3499 1.326 . S
N3500 C3504 1.362 . S
C3501 C3502 1.258 . S
C3501 C3504 1.431 . S
C3501 C3521 1.449 . S
C3502 C3501 1.258 . S
C3502 C3503 1.477 . S
C3502 H3522 0.931 . S
C3503 C3499 1.460 . S
C3503 C3502 1.477 . S
C3503 H3523 0.930 . S
C3504 N3500 1.362 . S
C3504 C3501 1.431 . S
C3504 C3514 1.476 . S
H3505 C3499 0.929 . S
C3506 O3497 1.250 . S
C3506 O3498 1.258 . S
O3507 Mn3492 2.162 . S
O3507 C3495 1.281 . S
O3508 Mn3492 2.297 . S
O3508 C3495 1.236 . S
N3509 Mn3493 2.282 . S
N3509 C3510 1.328 . S
N3509 C3514 1.318 . S
C3510 N3509 1.328 . S
C3510 C3511 1.457 . S
C3510 H3515 0.929 . S
C3511 C3510 1.457 . S
C3511 C3512 1.291 . S
C3511 H3524 0.931 . S
C3512 C3511 1.291 . S
C3512 C3513 1.373 . S
C3512 H3525 0.929 . S
C3513 C3512 1.373 . S
C3513 C3514 1.396 . S
C3513 C3520 1.403 . S
C3514 C3504 1.476 . S
C3514 N3509 1.318 . S
C3514 C3513 1.396 . S
H3515 C3510 0.929 . S
O3516 Mn3492 2.385 . S
O3516 C3494 1.234 . S
O3517 Mn3492 2.209 . S
O3517 Mn3493 2.215 . S
O3517 C3494 1.283 . S
O3518 Mn3492 2.094 . S
O3518 C3496 1.240 . S
O3519 Mn3493 2.117 . S
O3519 C3496 1.264 . S
C3520 C3513 1.403 . S
C3520 C3521 1.399 . S
C3520 H3526 0.929 . S
C3521 C3501 1.449 . S
C3521 C3520 1.399 . S
C3521 H3527 0.930 . S
H3522 C3502 0.931 . S
H3523 C3503 0.930 . S
H3524 C3511 0.931 . S
H3525 C3512 0.929 . S
H3526 C3520 0.929 . S
H3527 C3521 0.930 . S
Mn3528 O3533 2.095 . S
Mn3528 O3543 2.162 . S
Mn3528 O3544 2.297 . S
Mn3528 O3552 2.385 . S
Mn3528 O3553 2.209 . S
Mn3528 O3554 2.094 . S
Mn3529 O3534 2.121 . S
Mn3529 N3536 2.257 . S
Mn3529 N3545 2.282 . S
Mn3529 O3553 2.215 . S
Mn3529 O3555 2.117 . S
C3530 O3552 1.234 . S
C3530 O3553 1.283 . S
C3531 O3543 1.281 . S
C3531 O3544 1.236 . S
C3532 O3554 1.240 . S
C3532 O3555 1.264 . S
O3533 Mn3528 2.095 . S
O3533 C3542 1.250 . S
O3534 Mn3529 2.121 . S
O3534 C3542 1.258 . S
C3535 N3536 1.326 . S
C3535 C3539 1.460 . S
C3535 H3541 0.929 . S
N3536 Mn3529 2.257 . S
N3536 C3535 1.326 . S
N3536 C3540 1.362 . S
C3537 C3538 1.258 . S
C3537 C3540 1.431 . S
C3537 C3557 1.449 . S
C3538 C3537 1.258 . S
C3538 C3539 1.477 . S
C3538 H3558 0.931 . S
C3539 C3535 1.460 . S
C3539 C3538 1.477 . S
C3539 H3559 0.930 . S
C3540 N3536 1.362 . S
C3540 C3537 1.431 . S
C3540 C3550 1.476 . S
H3541 C3535 0.929 . S
C3542 O3533 1.250 . S
C3542 O3534 1.258 . S
O3543 Mn3528 2.162 . S
O3543 C3531 1.281 . S
O3544 Mn3528 2.297 . S
O3544 C3531 1.236 . S
N3545 Mn3529 2.282 . S
N3545 C3546 1.328 . S
N3545 C3550 1.318 . S
C3546 N3545 1.328 . S
C3546 C3547 1.457 . S
C3546 H3551 0.929 . S
C3547 C3546 1.457 . S
C3547 C3548 1.291 . S
C3547 H3560 0.931 . S
C3548 C3547 1.291 . S
C3548 C3549 1.373 . S
C3548 H3561 0.929 . S
C3549 C3548 1.373 . S
C3549 C3550 1.396 . S
C3549 C3556 1.403 . S
C3550 C3540 1.476 . S
C3550 N3545 1.318 . S
C3550 C3549 1.396 . S
H3551 C3546 0.929 . S
O3552 Mn3528 2.385 . S
O3552 C3530 1.234 . S
O3553 Mn3528 2.209 . S
O3553 Mn3529 2.215 . S
O3553 C3530 1.283 . S
O3554 Mn3528 2.094 . S
O3554 C3532 1.240 . S
O3555 Mn3529 2.117 . S
O3555 C3532 1.264 . S
C3556 C3549 1.403 . S
C3556 C3557 1.399 . S
C3556 H3562 0.929 . S
C3557 C3537 1.449 . S
C3557 C3556 1.399 . S
C3557 H3563 0.930 . S
H3558 C3538 0.931 . S
H3559 C3539 0.930 . S
H3560 C3547 0.931 . S
H3561 C3548 0.929 . S
H3562 C3556 0.929 . S
H3563 C3557 0.930 . S
Mn3564 O3569 2.095 . S
Mn3564 O3579 2.162 . S
Mn3564 O3580 2.297 . S
Mn3564 O3588 2.385 . S
Mn3564 O3589 2.209 . S
Mn3564 O3590 2.094 . S
Mn3565 O3570 2.121 . S
Mn3565 N3572 2.257 . S
Mn3565 N3581 2.282 . S
Mn3565 O3589 2.215 . S
Mn3565 O3591 2.117 . S
C3566 O3588 1.234 . S
C3566 O3589 1.283 . S
C3567 O3579 1.281 . S
C3567 O3580 1.236 . S
C3568 O3590 1.240 . S
C3568 O3591 1.264 . S
O3569 Mn3564 2.095 . S
O3569 C3578 1.250 . S
O3570 Mn3565 2.121 . S
O3570 C3578 1.258 . S
C3571 N3572 1.326 . S
C3571 C3575 1.460 . S
C3571 H3577 0.929 . S
N3572 Mn3565 2.257 . S
N3572 C3571 1.326 . S
N3572 C3576 1.362 . S
C3573 C3574 1.258 . S
C3573 C3576 1.431 . S
C3573 C3593 1.449 . S
C3574 C3573 1.258 . S
C3574 C3575 1.477 . S
C3574 H3594 0.931 . S
C3575 C3571 1.460 . S
C3575 C3574 1.477 . S
C3575 H3595 0.930 . S
C3576 N3572 1.362 . S
C3576 C3573 1.431 . S
C3576 C3586 1.476 . S
H3577 C3571 0.929 . S
C3578 O3569 1.250 . S
C3578 O3570 1.258 . S
O3579 Mn3564 2.162 . S
O3579 C3567 1.281 . S
O3580 Mn3564 2.297 . S
O3580 C3567 1.236 . S
N3581 Mn3565 2.282 . S
N3581 C3582 1.328 . S
N3581 C3586 1.318 . S
C3582 N3581 1.328 . S
C3582 C3583 1.457 . S
C3582 H3587 0.929 . S
C3583 C3582 1.457 . S
C3583 C3584 1.291 . S
C3583 H3596 0.931 . S
C3584 C3583 1.291 . S
C3584 C3585 1.373 . S
C3584 H3597 0.929 . S
C3585 C3584 1.373 . S
C3585 C3586 1.396 . S
C3585 C3592 1.403 . S
C3586 C3576 1.476 . S
C3586 N3581 1.318 . S
C3586 C3585 1.396 . S
H3587 C3582 0.929 . S
O3588 Mn3564 2.385 . S
O3588 C3566 1.234 . S
O3589 Mn3564 2.209 . S
O3589 Mn3565 2.215 . S
O3589 C3566 1.283 . S
O3590 Mn3564 2.094 . S
O3590 C3568 1.240 . S
O3591 Mn3565 2.117 . S
O3591 C3568 1.264 . S
C3592 C3585 1.403 . S
C3592 C3593 1.399 . S
C3592 H3598 0.929 . S
C3593 C3573 1.449 . S
C3593 C3592 1.399 . S
C3593 H3599 0.930 . S
H3594 C3574 0.931 . S
H3595 C3575 0.930 . S
H3596 C3583 0.931 . S
H3597 C3584 0.929 . S
H3598 C3592 0.929 . S
H3599 C3593 0.930 . S
Mn3600 O3605 2.095 . S
Mn3600 O3615 2.162 . S
Mn3600 O3616 2.297 . S
Mn3600 O3624 2.385 . S
Mn3600 O3625 2.209 . S
Mn3600 O3626 2.094 . S
Mn3601 O3606 2.121 . S
Mn3601 N3608 2.257 . S
Mn3601 N3617 2.282 . S
Mn3601 O3625 2.215 . S
Mn3601 O3627 2.117 . S
C3602 O3624 1.234 . S
C3602 O3625 1.283 . S
C3603 O3615 1.281 . S
C3603 O3616 1.236 . S
C3604 O3626 1.240 . S
C3604 O3627 1.264 . S
O3605 Mn3600 2.095 . S
O3605 C3614 1.250 . S
O3606 Mn3601 2.121 . S
O3606 C3614 1.258 . S
C3607 N3608 1.326 . S
C3607 C3611 1.460 . S
C3607 H3613 0.929 . S
N3608 Mn3601 2.257 . S
N3608 C3607 1.326 . S
N3608 C3612 1.362 . S
C3609 C3610 1.258 . S
C3609 C3612 1.431 . S
C3609 C3629 1.449 . S
C3610 C3609 1.258 . S
C3610 C3611 1.477 . S
C3610 H3630 0.931 . S
C3611 C3607 1.460 . S
C3611 C3610 1.477 . S
C3611 H3631 0.930 . S
C3612 N3608 1.362 . S
C3612 C3609 1.431 . S
C3612 C3622 1.476 . S
H3613 C3607 0.929 . S
C3614 O3605 1.250 . S
C3614 O3606 1.258 . S
O3615 Mn3600 2.162 . S
O3615 C3603 1.281 . S
O3616 Mn3600 2.297 . S
O3616 C3603 1.236 . S
N3617 Mn3601 2.282 . S
N3617 C3618 1.328 . S
N3617 C3622 1.318 . S
C3618 N3617 1.328 . S
C3618 C3619 1.457 . S
C3618 H3623 0.929 . S
C3619 C3618 1.457 . S
C3619 C3620 1.291 . S
C3619 H3632 0.931 . S
C3620 C3619 1.291 . S
C3620 C3621 1.373 . S
C3620 H3633 0.929 . S
C3621 C3620 1.373 . S
C3621 C3622 1.396 . S
C3621 C3628 1.403 . S
C3622 C3612 1.476 . S
C3622 N3617 1.318 . S
C3622 C3621 1.396 . S
H3623 C3618 0.929 . S
O3624 Mn3600 2.385 . S
O3624 C3602 1.234 . S
O3625 Mn3600 2.209 . S
O3625 Mn3601 2.215 . S
O3625 C3602 1.283 . S
O3626 Mn3600 2.094 . S
O3626 C3604 1.240 . S
O3627 Mn3601 2.117 . S
O3627 C3604 1.264 . S
C3628 C3621 1.403 . S
C3628 C3629 1.399 . S
C3628 H3634 0.929 . S
C3629 C3609 1.449 . S
C3629 C3628 1.399 . S
C3629 H3635 0.930 . S
H3630 C3610 0.931 . S
H3631 C3611 0.930 . S
H3632 C3619 0.931 . S
H3633 C3620 0.929 . S
H3634 C3628 0.929 . S
H3635 C3629 0.930 . S
Mn3636 O3641 2.095 . S
Mn3636 O3651 2.162 . S
Mn3636 O3652 2.297 . S
Mn3636 O3660 2.385 . S
Mn3636 O3661 2.209 . S
Mn3636 O3662 2.094 . S
Mn3637 O3642 2.121 . S
Mn3637 N3644 2.257 . S
Mn3637 N3653 2.282 . S
Mn3637 O3661 2.215 . S
Mn3637 O3663 2.117 . S
C3638 O3660 1.234 . S
C3638 O3661 1.283 . S
C3639 O3651 1.281 . S
C3639 O3652 1.236 . S
C3640 O3662 1.240 . S
C3640 O3663 1.264 . S
O3641 Mn3636 2.095 . S
O3641 C3650 1.250 . S
O3642 Mn3637 2.121 . S
O3642 C3650 1.258 . S
C3643 N3644 1.326 . S
C3643 C3647 1.460 . S
C3643 H3649 0.929 . S
N3644 Mn3637 2.257 . S
N3644 C3643 1.326 . S
N3644 C3648 1.362 . S
C3645 C3646 1.258 . S
C3645 C3648 1.431 . S
C3645 C3665 1.449 . S
C3646 C3645 1.258 . S
C3646 C3647 1.477 . S
C3646 H3666 0.931 . S
C3647 C3643 1.460 . S
C3647 C3646 1.477 . S
C3647 H3667 0.930 . S
C3648 N3644 1.362 . S
C3648 C3645 1.431 . S
C3648 C3658 1.476 . S
H3649 C3643 0.929 . S
C3650 O3641 1.250 . S
C3650 O3642 1.258 . S
O3651 Mn3636 2.162 . S
O3651 C3639 1.281 . S
O3652 Mn3636 2.297 . S
O3652 C3639 1.236 . S
N3653 Mn3637 2.282 . S
N3653 C3654 1.328 . S
N3653 C3658 1.318 . S
C3654 N3653 1.328 . S
C3654 C3655 1.457 . S
C3654 H3659 0.929 . S
C3655 C3654 1.457 . S
C3655 C3656 1.291 . S
C3655 H3668 0.931 . S
C3656 C3655 1.291 . S
C3656 C3657 1.373 . S
C3656 H3669 0.929 . S
C3657 C3656 1.373 . S
C3657 C3658 1.396 . S
C3657 C3664 1.403 . S
C3658 C3648 1.476 . S
C3658 N3653 1.318 . S
C3658 C3657 1.396 . S
H3659 C3654 0.929 . S
O3660 Mn3636 2.385 . S
O3660 C3638 1.234 . S
O3661 Mn3636 2.209 . S
O3661 Mn3637 2.215 . S
O3661 C3638 1.283 . S
O3662 Mn3636 2.094 . S
O3662 C3640 1.240 . S
O3663 Mn3637 2.117 . S
O3663 C3640 1.264 . S
C3664 C3657 1.403 . S
C3664 C3665 1.399 . S
C3664 H3670 0.929 . S
C3665 C3645 1.449 . S
C3665 C3664 1.399 . S
C3665 H3671 0.930 . S
H3666 C3646 0.931 . S
H3667 C3647 0.930 . S
H3668 C3655 0.931 . S
H3669 C3656 0.929 . S
H3670 C3664 0.929 . S
H3671 C3665 0.930 . S
Mn3672 O3677 2.095 . S
Mn3672 O3687 2.162 . S
Mn3672 O3688 2.297 . S
Mn3672 O3696 2.385 . S
Mn3672 O3697 2.209 . S
Mn3672 O3698 2.094 . S
Mn3673 O3678 2.121 . S
Mn3673 N3680 2.257 . S
Mn3673 N3689 2.282 . S
Mn3673 O3697 2.215 . S
Mn3673 O3699 2.117 . S
C3674 O3696 1.234 . S
C3674 O3697 1.283 . S
C3675 O3687 1.281 . S
C3675 O3688 1.236 . S
C3676 O3698 1.240 . S
C3676 O3699 1.264 . S
O3677 Mn3672 2.095 . S
O3677 C3686 1.250 . S
O3678 Mn3673 2.121 . S
O3678 C3686 1.258 . S
C3679 N3680 1.326 . S
C3679 C3683 1.460 . S
C3679 H3685 0.929 . S
N3680 Mn3673 2.257 . S
N3680 C3679 1.326 . S
N3680 C3684 1.362 . S
C3681 C3682 1.258 . S
C3681 C3684 1.431 . S
C3681 C3701 1.449 . S
C3682 C3681 1.258 . S
C3682 C3683 1.477 . S
C3682 H3702 0.931 . S
C3683 C3679 1.460 . S
C3683 C3682 1.477 . S
C3683 H3703 0.930 . S
C3684 N3680 1.362 . S
C3684 C3681 1.431 . S
C3684 C3694 1.476 . S
H3685 C3679 0.929 . S
C3686 O3677 1.250 . S
C3686 O3678 1.258 . S
O3687 Mn3672 2.162 . S
O3687 C3675 1.281 . S
O3688 Mn3672 2.297 . S
O3688 C3675 1.236 . S
N3689 Mn3673 2.282 . S
N3689 C3690 1.328 . S
N3689 C3694 1.318 . S
C3690 N3689 1.328 . S
C3690 C3691 1.457 . S
C3690 H3695 0.929 . S
C3691 C3690 1.457 . S
C3691 C3692 1.291 . S
C3691 H3704 0.931 . S
C3692 C3691 1.291 . S
C3692 C3693 1.373 . S
C3692 H3705 0.929 . S
C3693 C3692 1.373 . S
C3693 C3694 1.396 . S
C3693 C3700 1.403 . S
C3694 C3684 1.476 . S
C3694 N3689 1.318 . S
C3694 C3693 1.396 . S
H3695 C3690 0.929 . S
O3696 Mn3672 2.385 . S
O3696 C3674 1.234 . S
O3697 Mn3672 2.209 . S
O3697 Mn3673 2.215 . S
O3697 C3674 1.283 . S
O3698 Mn3672 2.094 . S
O3698 C3676 1.240 . S
O3699 Mn3673 2.117 . S
O3699 C3676 1.264 . S
C3700 C3693 1.403 . S
C3700 C3701 1.399 . S
C3700 H3706 0.929 . S
C3701 C3681 1.449 . S
C3701 C3700 1.399 . S
C3701 H3707 0.930 . S
H3702 C3682 0.931 . S
H3703 C3683 0.930 . S
H3704 C3691 0.931 . S
H3705 C3692 0.929 . S
H3706 C3700 0.929 . S
H3707 C3701 0.930 . S
Mn3708 O3713 2.095 . S
Mn3708 O3723 2.162 . S
Mn3708 O3724 2.297 . S
Mn3708 O3732 2.385 . S
Mn3708 O3733 2.209 . S
Mn3708 O3734 2.094 . S
Mn3709 O3714 2.121 . S
Mn3709 N3716 2.257 . S
Mn3709 N3725 2.282 . S
Mn3709 O3733 2.215 . S
Mn3709 O3735 2.117 . S
C3710 O3732 1.234 . S
C3710 O3733 1.283 . S
C3711 O3723 1.281 . S
C3711 O3724 1.236 . S
C3712 O3734 1.240 . S
C3712 O3735 1.264 . S
O3713 Mn3708 2.095 . S
O3713 C3722 1.250 . S
O3714 Mn3709 2.121 . S
O3714 C3722 1.258 . S
C3715 N3716 1.326 . S
C3715 C3719 1.460 1_554 S
C3715 H3721 0.929 . S
N3716 Mn3709 2.257 . S
N3716 C3715 1.326 . S
N3716 C3720 1.362 . S
C3717 C3718 1.258 1_554 S
C3717 C3720 1.431 . S
C3717 C3737 1.449 . S
C3718 C3717 1.258 1_556 S
C3718 C3719 1.477 . S
C3718 H3738 0.931 . S
C3719 C3715 1.460 1_556 S
C3719 C3718 1.477 . S
C3719 H3739 0.930 . S
C3720 N3716 1.362 . S
C3720 C3717 1.431 . S
C3720 C3730 1.476 . S
H3721 C3715 0.929 . S
C3722 O3713 1.250 . S
C3722 O3714 1.258 . S
O3723 Mn3708 2.162 . S
O3723 C3711 1.281 . S
O3724 Mn3708 2.297 . S
O3724 C3711 1.236 . S
N3725 Mn3709 2.282 . S
N3725 C3726 1.328 . S
N3725 C3730 1.318 . S
C3726 N3725 1.328 . S
C3726 C3727 1.457 . S
C3726 H3731 0.929 . S
C3727 C3726 1.457 . S
C3727 C3728 1.291 . S
C3727 H3740 0.931 . S
C3728 C3727 1.291 . S
C3728 C3729 1.373 . S
C3728 H3741 0.929 . S
C3729 C3728 1.373 . S
C3729 C3730 1.396 . S
C3729 C3736 1.403 . S
C3730 C3720 1.476 . S
C3730 N3725 1.318 . S
C3730 C3729 1.396 . S
H3731 C3726 0.929 . S
O3732 Mn3708 2.385 . S
O3732 C3710 1.234 . S
O3733 Mn3708 2.209 . S
O3733 Mn3709 2.215 . S
O3733 C3710 1.283 . S
O3734 Mn3708 2.094 . S
O3734 C3712 1.240 . S
O3735 Mn3709 2.117 . S
O3735 C3712 1.264 . S
C3736 C3729 1.403 . S
C3736 C3737 1.399 . S
C3736 H3742 0.929 . S
C3737 C3717 1.449 . S
C3737 C3736 1.399 . S
C3737 H3743 0.930 . S
H3738 C3718 0.931 . S
H3739 C3719 0.930 . S
H3740 C3727 0.931 . S
H3741 C3728 0.929 . S
H3742 C3736 0.929 . S
H3743 C3737 0.930 . S
Mn3744 O3749 2.095 . S
Mn3744 O3759 2.162 . S
Mn3744 O3760 2.297 . S
Mn3744 O3768 2.385 . S
Mn3744 O3769 2.209 . S
Mn3744 O3770 2.094 . S
Mn3745 O3750 2.121 . S
Mn3745 N3752 2.257 . S
Mn3745 N3761 2.282 . S
Mn3745 O3769 2.215 . S
Mn3745 O3771 2.117 . S
C3746 O3768 1.234 . S
C3746 O3769 1.283 . S
C3747 O3759 1.281 . S
C3747 O3760 1.236 . S
C3748 O3770 1.240 . S
C3748 O3771 1.264 . S
O3749 Mn3744 2.095 . S
O3749 C3758 1.250 . S
O3750 Mn3745 2.121 . S
O3750 C3758 1.258 . S
C3751 N3752 1.326 . S
C3751 C3755 1.460 1_655 S
C3751 H3757 0.929 . S
N3752 Mn3745 2.257 . S
N3752 C3751 1.326 . S
N3752 C3756 1.362 . S
C3753 C3754 1.258 1_655 S
C3753 C3756 1.431 . S
C3753 C3773 1.449 . S
C3754 C3753 1.258 1_455 S
C3754 C3755 1.477 . S
C3754 H3774 0.931 . S
C3755 C3751 1.460 1_455 S
C3755 C3754 1.477 . S
C3755 H3775 0.930 . S
C3756 N3752 1.362 . S
C3756 C3753 1.431 . S
C3756 C3766 1.476 . S
H3757 C3751 0.929 . S
C3758 O3749 1.250 . S
C3758 O3750 1.258 . S
O3759 Mn3744 2.162 . S
O3759 C3747 1.281 . S
O3760 Mn3744 2.297 . S
O3760 C3747 1.236 . S
N3761 Mn3745 2.282 . S
N3761 C3762 1.328 . S
N3761 C3766 1.318 . S
C3762 N3761 1.328 . S
C3762 C3763 1.457 . S
C3762 H3767 0.929 . S
C3763 C3762 1.457 . S
C3763 C3764 1.291 . S
C3763 H3776 0.931 . S
C3764 C3763 1.291 . S
C3764 C3765 1.373 . S
C3764 H3777 0.929 . S
C3765 C3764 1.373 . S
C3765 C3766 1.396 . S
C3765 C3772 1.403 . S
C3766 C3756 1.476 . S
C3766 N3761 1.318 . S
C3766 C3765 1.396 . S
H3767 C3762 0.929 . S
O3768 Mn3744 2.385 . S
O3768 C3746 1.234 . S
O3769 Mn3744 2.209 . S
O3769 Mn3745 2.215 . S
O3769 C3746 1.283 . S
O3770 Mn3744 2.094 . S
O3770 C3748 1.240 . S
O3771 Mn3745 2.117 . S
O3771 C3748 1.264 . S
C3772 C3765 1.403 . S
C3772 C3773 1.399 . S
C3772 H3778 0.929 . S
C3773 C3753 1.449 . S
C3773 C3772 1.399 . S
C3773 H3779 0.930 . S
H3774 C3754 0.931 . S
H3775 C3755 0.930 . S
H3776 C3763 0.931 . S
H3777 C3764 0.929 . S
H3778 C3772 0.929 . S
H3779 C3773 0.930 . S
Mn3780 O3785 2.095 . S
Mn3780 O3795 2.162 . S
Mn3780 O3796 2.297 . S
Mn3780 O3804 2.385 . S
Mn3780 O3805 2.209 . S
Mn3780 O3806 2.094 . S
Mn3781 O3786 2.121 . S
Mn3781 N3788 2.257 . S
Mn3781 N3797 2.282 . S
Mn3781 O3805 2.215 . S
Mn3781 O3807 2.117 . S
C3782 O3804 1.234 . S
C3782 O3805 1.283 . S
C3783 O3795 1.281 . S
C3783 O3796 1.236 . S
C3784 O3806 1.240 . S
C3784 O3807 1.264 . S
O3785 Mn3780 2.095 . S
O3785 C3794 1.250 . S
O3786 Mn3781 2.121 . S
O3786 C3794 1.258 . S
C3787 N3788 1.326 . S
C3787 C3791 1.460 . S
C3787 H3793 0.929 . S
N3788 Mn3781 2.257 . S
N3788 C3787 1.326 . S
N3788 C3792 1.362 . S
C3789 C3790 1.258 . S
C3789 C3792 1.431 . S
C3789 C3809 1.449 . S
C3790 C3789 1.258 . S
C3790 C3791 1.477 . S
C3790 H3810 0.931 . S
C3791 C3787 1.460 . S
C3791 C3790 1.477 . S
C3791 H3811 0.930 . S
C3792 N3788 1.362 . S
C3792 C3789 1.431 . S
C3792 C3802 1.476 . S
H3793 C3787 0.929 . S
C3794 O3785 1.250 . S
C3794 O3786 1.258 . S
O3795 Mn3780 2.162 . S
O3795 C3783 1.281 . S
O3796 Mn3780 2.297 . S
O3796 C3783 1.236 . S
N3797 Mn3781 2.282 . S
N3797 C3798 1.328 . S
N3797 C3802 1.318 . S
C3798 N3797 1.328 . S
C3798 C3799 1.457 . S
C3798 H3803 0.929 . S
C3799 C3798 1.457 . S
C3799 C3800 1.291 . S
C3799 H3812 0.931 . S
C3800 C3799 1.291 . S
C3800 C3801 1.373 . S
C3800 H3813 0.929 . S
C3801 C3800 1.373 . S
C3801 C3802 1.396 . S
C3801 C3808 1.403 . S
C3802 C3792 1.476 . S
C3802 N3797 1.318 . S
C3802 C3801 1.396 . S
H3803 C3798 0.929 . S
O3804 Mn3780 2.385 . S
O3804 C3782 1.234 . S
O3805 Mn3780 2.209 . S
O3805 Mn3781 2.215 . S
O3805 C3782 1.283 . S
O3806 Mn3780 2.094 . S
O3806 C3784 1.240 . S
O3807 Mn3781 2.117 . S
O3807 C3784 1.264 . S
C3808 C3801 1.403 . S
C3808 C3809 1.399 . S
C3808 H3814 0.929 . S
C3809 C3789 1.449 . S
C3809 C3808 1.399 . S
C3809 H3815 0.930 . S
H3810 C3790 0.931 . S
H3811 C3791 0.930 . S
H3812 C3799 0.931 . S
H3813 C3800 0.929 . S
H3814 C3808 0.929 . S
H3815 C3809 0.930 . S
Mn3816 O3821 2.095 . S
Mn3816 O3831 2.162 . S
Mn3816 O3832 2.297 . S
Mn3816 O3840 2.385 . S
Mn3816 O3841 2.209 . S
Mn3816 O3842 2.094 . S
Mn3817 O3822 2.121 . S
Mn3817 N3824 2.257 . S
Mn3817 N3833 2.282 . S
Mn3817 O3841 2.215 . S
Mn3817 O3843 2.117 . S
C3818 O3840 1.234 . S
C3818 O3841 1.283 . S
C3819 O3831 1.281 . S
C3819 O3832 1.236 . S
C3820 O3842 1.240 . S
C3820 O3843 1.264 . S
O3821 Mn3816 2.095 . S
O3821 C3830 1.250 . S
O3822 Mn3817 2.121 . S
O3822 C3830 1.258 . S
C3823 N3824 1.326 . S
C3823 C3827 1.460 . S
C3823 H3829 0.929 . S
N3824 Mn3817 2.257 . S
N3824 C3823 1.326 . S
N3824 C3828 1.362 . S
C3825 C3826 1.258 . S
C3825 C3828 1.431 . S
C3825 C3845 1.449 . S
C3826 C3825 1.258 . S
C3826 C3827 1.477 . S
C3826 H3846 0.931 . S
C3827 C3823 1.460 . S
C3827 C3826 1.477 . S
C3827 H3847 0.930 . S
C3828 N3824 1.362 . S
C3828 C3825 1.431 . S
C3828 C3838 1.476 . S
H3829 C3823 0.929 . S
C3830 O3821 1.250 . S
C3830 O3822 1.258 . S
O3831 Mn3816 2.162 . S
O3831 C3819 1.281 . S
O3832 Mn3816 2.297 . S
O3832 C3819 1.236 . S
N3833 Mn3817 2.282 . S
N3833 C3834 1.328 . S
N3833 C3838 1.318 . S
C3834 N3833 1.328 . S
C3834 C3835 1.457 . S
C3834 H3839 0.929 . S
C3835 C3834 1.457 . S
C3835 C3836 1.291 . S
C3835 H3848 0.931 . S
C3836 C3835 1.291 . S
C3836 C3837 1.373 . S
C3836 H3849 0.929 . S
C3837 C3836 1.373 . S
C3837 C3838 1.396 . S
C3837 C3844 1.403 . S
C3838 C3828 1.476 . S
C3838 N3833 1.318 . S
C3838 C3837 1.396 . S
H3839 C3834 0.929 . S
O3840 Mn3816 2.385 . S
O3840 C3818 1.234 . S
O3841 Mn3816 2.209 . S
O3841 Mn3817 2.215 . S
O3841 C3818 1.283 . S
O3842 Mn3816 2.094 . S
O3842 C3820 1.240 . S
O3843 Mn3817 2.117 . S
O3843 C3820 1.264 . S
C3844 C3837 1.403 . S
C3844 C3845 1.399 . S
C3844 H3850 0.929 . S
C3845 C3825 1.449 . S
C3845 C3844 1.399 . S
C3845 H3851 0.930 . S
H3846 C3826 0.931 . S
H3847 C3827 0.930 . S
H3848 C3835 0.931 . S
H3849 C3836 0.929 . S
H3850 C3844 0.929 . S
H3851 C3845 0.930 . S
Mn3852 O3857 2.095 . S
Mn3852 O3867 2.162 . S
Mn3852 O3868 2.297 . S
Mn3852 O3876 2.385 . S
Mn3852 O3877 2.209 . S
Mn3852 O3878 2.094 . S
Mn3853 O3858 2.121 . S
Mn3853 N3860 2.257 . S
Mn3853 N3869 2.282 . S
Mn3853 O3877 2.215 . S
Mn3853 O3879 2.117 . S
C3854 O3876 1.234 . S
C3854 O3877 1.283 . S
C3855 O3867 1.281 . S
C3855 O3868 1.236 . S
C3856 O3878 1.240 . S
C3856 O3879 1.264 . S
O3857 Mn3852 2.095 . S
O3857 C3866 1.250 . S
O3858 Mn3853 2.121 . S
O3858 C3866 1.258 . S
C3859 N3860 1.326 . S
C3859 C3863 1.460 . S
C3859 H3865 0.929 . S
N3860 Mn3853 2.257 . S
N3860 C3859 1.326 . S
N3860 C3864 1.362 . S
C3861 C3862 1.258 . S
C3861 C3864 1.431 . S
C3861 C3881 1.449 . S
C3862 C3861 1.258 . S
C3862 C3863 1.477 . S
C3862 H3882 0.931 . S
C3863 C3859 1.460 . S
C3863 C3862 1.477 . S
C3863 H3883 0.930 . S
C3864 N3860 1.362 . S
C3864 C3861 1.431 . S
C3864 C3874 1.476 . S
H3865 C3859 0.929 . S
C3866 O3857 1.250 . S
C3866 O3858 1.258 . S
O3867 Mn3852 2.162 . S
O3867 C3855 1.281 . S
O3868 Mn3852 2.297 . S
O3868 C3855 1.236 . S
N3869 Mn3853 2.282 . S
N3869 C3870 1.328 . S
N3869 C3874 1.318 . S
C3870 N3869 1.328 . S
C3870 C3871 1.457 . S
C3870 H3875 0.929 . S
C3871 C3870 1.457 . S
C3871 C3872 1.291 . S
C3871 H3884 0.931 . S
C3872 C3871 1.291 . S
C3872 C3873 1.373 . S
C3872 H3885 0.929 . S
C3873 C3872 1.373 . S
C3873 C3874 1.396 . S
C3873 C3880 1.403 . S
C3874 C3864 1.476 . S
C3874 N3869 1.318 . S
C3874 C3873 1.396 . S
H3875 C3870 0.929 . S
O3876 Mn3852 2.385 . S
O3876 C3854 1.234 . S
O3877 Mn3852 2.209 . S
O3877 Mn3853 2.215 . S
O3877 C3854 1.283 . S
O3878 Mn3852 2.094 . S
O3878 C3856 1.240 . S
O3879 Mn3853 2.117 . S
O3879 C3856 1.264 . S
C3880 C3873 1.403 . S
C3880 C3881 1.399 . S
C3880 H3886 0.929 . S
C3881 C3861 1.449 . S
C3881 C3880 1.399 . S
C3881 H3887 0.930 . S
H3882 C3862 0.931 . S
H3883 C3863 0.930 . S
H3884 C3871 0.931 . S
H3885 C3872 0.929 . S
H3886 C3880 0.929 . S
H3887 C3881 0.930 . S
Mn3888 O3893 2.095 . S
Mn3888 O3903 2.162 . S
Mn3888 O3904 2.297 . S
Mn3888 O3912 2.385 . S
Mn3888 O3913 2.209 . S
Mn3888 O3914 2.094 . S
Mn3889 O3894 2.121 . S
Mn3889 N3896 2.257 . S
Mn3889 N3905 2.282 . S
Mn3889 O3913 2.215 . S
Mn3889 O3915 2.117 . S
C3890 O3912 1.234 . S
C3890 O3913 1.283 . S
C3891 O3903 1.281 . S
C3891 O3904 1.236 . S
C3892 O3914 1.240 . S
C3892 O3915 1.264 . S
O3893 Mn3888 2.095 . S
O3893 C3902 1.250 . S
O3894 Mn3889 2.121 . S
O3894 C3902 1.258 . S
C3895 N3896 1.326 . S
C3895 C3899 1.460 1_655 S
C3895 H3901 0.929 . S
N3896 Mn3889 2.257 . S
N3896 C3895 1.326 . S
N3896 C3900 1.362 . S
C3897 C3898 1.258 1_655 S
C3897 C3900 1.431 . S
C3897 C3917 1.449 . S
C3898 C3897 1.258 1_455 S
C3898 C3899 1.477 . S
C3898 H3918 0.931 . S
C3899 C3895 1.460 1_455 S
C3899 C3898 1.477 . S
C3899 H3919 0.930 . S
C3900 N3896 1.362 . S
C3900 C3897 1.431 . S
C3900 C3910 1.476 . S
H3901 C3895 0.929 . S
C3902 O3893 1.250 . S
C3902 O3894 1.258 . S
O3903 Mn3888 2.162 . S
O3903 C3891 1.281 . S
O3904 Mn3888 2.297 . S
O3904 C3891 1.236 . S
N3905 Mn3889 2.282 . S
N3905 C3906 1.328 . S
N3905 C3910 1.318 . S
C3906 N3905 1.328 . S
C3906 C3907 1.457 . S
C3906 H3911 0.929 . S
C3907 C3906 1.457 . S
C3907 C3908 1.291 . S
C3907 H3920 0.931 . S
C3908 C3907 1.291 . S
C3908 C3909 1.373 . S
C3908 H3921 0.929 . S
C3909 C3908 1.373 . S
C3909 C3910 1.396 . S
C3909 C3916 1.403 . S
C3910 C3900 1.476 . S
C3910 N3905 1.318 . S
C3910 C3909 1.396 . S
H3911 C3906 0.929 . S
O3912 Mn3888 2.385 . S
O3912 C3890 1.234 . S
O3913 Mn3888 2.209 . S
O3913 Mn3889 2.215 . S
O3913 C3890 1.283 . S
O3914 Mn3888 2.094 . S
O3914 C3892 1.240 . S
O3915 Mn3889 2.117 . S
O3915 C3892 1.264 . S
C3916 C3909 1.403 . S
C3916 C3917 1.399 . S
C3916 H3922 0.929 . S
C3917 C3897 1.449 . S
C3917 C3916 1.399 . S
C3917 H3923 0.930 . S
H3918 C3898 0.931 . S
H3919 C3899 0.930 . S
H3920 C3907 0.931 . S
H3921 C3908 0.929 . S
H3922 C3916 0.929 . S
H3923 C3917 0.930 . S
Mn3924 O3929 2.095 . S
Mn3924 O3939 2.162 . S
Mn3924 O3940 2.297 . S
Mn3924 O3948 2.385 . S
Mn3924 O3949 2.209 . S
Mn3924 O3950 2.094 . S
Mn3925 O3930 2.121 . S
Mn3925 N3932 2.257 . S
Mn3925 N3941 2.282 . S
Mn3925 O3949 2.215 . S
Mn3925 O3951 2.117 . S
C3926 O3948 1.234 . S
C3926 O3949 1.283 . S
C3927 O3939 1.281 . S
C3927 O3940 1.236 . S
C3928 O3950 1.240 . S
C3928 O3951 1.264 . S
O3929 Mn3924 2.095 . S
O3929 C3938 1.250 . S
O3930 Mn3925 2.121 . S
O3930 C3938 1.258 . S
C3931 N3932 1.326 . S
C3931 C3935 1.460 . S
C3931 H3937 0.929 . S
N3932 Mn3925 2.257 . S
N3932 C3931 1.326 . S
N3932 C3936 1.362 . S
C3933 C3934 1.258 . S
C3933 C3936 1.431 . S
C3933 C3953 1.449 . S
C3934 C3933 1.258 . S
C3934 C3935 1.477 . S
C3934 H3954 0.931 . S
C3935 C3931 1.460 . S
C3935 C3934 1.477 . S
C3935 H3955 0.930 . S
C3936 N3932 1.362 . S
C3936 C3933 1.431 . S
C3936 C3946 1.476 . S
H3937 C3931 0.929 . S
C3938 O3929 1.250 . S
C3938 O3930 1.258 . S
O3939 Mn3924 2.162 . S
O3939 C3927 1.281 . S
O3940 Mn3924 2.297 . S
O3940 C3927 1.236 . S
N3941 Mn3925 2.282 . S
N3941 C3942 1.328 . S
N3941 C3946 1.318 . S
C3942 N3941 1.328 . S
C3942 C3943 1.457 . S
C3942 H3947 0.929 . S
C3943 C3942 1.457 . S
C3943 C3944 1.291 . S
C3943 H3956 0.931 . S
C3944 C3943 1.291 . S
C3944 C3945 1.373 . S
C3944 H3957 0.929 . S
C3945 C3944 1.373 . S
C3945 C3946 1.396 . S
C3945 C3952 1.403 . S
C3946 C3936 1.476 . S
C3946 N3941 1.318 . S
C3946 C3945 1.396 . S
H3947 C3942 0.929 . S
O3948 Mn3924 2.385 . S
O3948 C3926 1.234 . S
O3949 Mn3924 2.209 . S
O3949 Mn3925 2.215 . S
O3949 C3926 1.283 . S
O3950 Mn3924 2.094 . S
O3950 C3928 1.240 . S
O3951 Mn3925 2.117 . S
O3951 C3928 1.264 . S
C3952 C3945 1.403 . S
C3952 C3953 1.399 . S
C3952 H3958 0.929 . S
C3953 C3933 1.449 . S
C3953 C3952 1.399 . S
C3953 H3959 0.930 . S
H3954 C3934 0.931 . S
H3955 C3935 0.930 . S
H3956 C3943 0.931 . S
H3957 C3944 0.929 . S
H3958 C3952 0.929 . S
H3959 C3953 0.930 . S
Mn3960 O3965 2.095 . S
Mn3960 O3975 2.162 . S
Mn3960 O3976 2.297 . S
Mn3960 O3984 2.385 . S
Mn3960 O3985 2.209 . S
Mn3960 O3986 2.094 . S
Mn3961 O3966 2.121 . S
Mn3961 N3968 2.257 . S
Mn3961 N3977 2.282 . S
Mn3961 O3985 2.215 . S
Mn3961 O3987 2.117 . S
C3962 O3984 1.234 . S
C3962 O3985 1.283 . S
C3963 O3975 1.281 . S
C3963 O3976 1.236 . S
C3964 O3986 1.240 . S
C3964 O3987 1.264 . S
O3965 Mn3960 2.095 . S
O3965 C3974 1.250 . S
O3966 Mn3961 2.121 . S
O3966 C3974 1.258 . S
C3967 N3968 1.326 . S
C3967 C3971 1.460 . S
C3967 H3973 0.929 . S
N3968 Mn3961 2.257 . S
N3968 C3967 1.326 . S
N3968 C3972 1.362 . S
C3969 C3970 1.258 . S
C3969 C3972 1.431 . S
C3969 C3989 1.449 . S
C3970 C3969 1.258 . S
C3970 C3971 1.477 . S
C3970 H3990 0.931 . S
C3971 C3967 1.460 . S
C3971 C3970 1.477 . S
C3971 H3991 0.930 . S
C3972 N3968 1.362 . S
C3972 C3969 1.431 . S
C3972 C3982 1.476 . S
H3973 C3967 0.929 . S
C3974 O3965 1.250 . S
C3974 O3966 1.258 . S
O3975 Mn3960 2.162 . S
O3975 C3963 1.281 . S
O3976 Mn3960 2.297 . S
O3976 C3963 1.236 . S
N3977 Mn3961 2.282 . S
N3977 C3978 1.328 . S
N3977 C3982 1.318 . S
C3978 N3977 1.328 . S
C3978 C3979 1.457 . S
C3978 H3983 0.929 . S
C3979 C3978 1.457 . S
C3979 C3980 1.291 . S
C3979 H3992 0.931 . S
C3980 C3979 1.291 . S
C3980 C3981 1.373 . S
C3980 H3993 0.929 . S
C3981 C3980 1.373 . S
C3981 C3982 1.396 . S
C3981 C3988 1.403 . S
C3982 C3972 1.476 . S
C3982 N3977 1.318 . S
C3982 C3981 1.396 . S
H3983 C3978 0.929 . S
O3984 Mn3960 2.385 . S
O3984 C3962 1.234 . S
O3985 Mn3960 2.209 . S
O3985 Mn3961 2.215 . S
O3985 C3962 1.283 . S
O3986 Mn3960 2.094 . S
O3986 C3964 1.240 . S
O3987 Mn3961 2.117 . S
O3987 C3964 1.264 . S
C3988 C3981 1.403 . S
C3988 C3989 1.399 . S
C3988 H3994 0.929 . S
C3989 C3969 1.449 . S
C3989 C3988 1.399 . S
C3989 H3995 0.930 . S
H3990 C3970 0.931 . S
H3991 C3971 0.930 . S
H3992 C3979 0.931 . S
H3993 C3980 0.929 . S
H3994 C3988 0.929 . S
H3995 C3989 0.930 . S
Mn3996 O4001 2.095 . S
Mn3996 O4011 2.162 . S
Mn3996 O4012 2.297 . S
Mn3996 O4020 2.385 . S
Mn3996 O4021 2.209 . S
Mn3996 O4022 2.094 . S
Mn3997 O4002 2.121 . S
Mn3997 N4004 2.257 . S
Mn3997 N4013 2.282 . S
Mn3997 O4021 2.215 . S
Mn3997 O4023 2.117 . S
C3998 O4020 1.234 . S
C3998 O4021 1.283 . S
C3999 O4011 1.281 . S
C3999 O4012 1.236 . S
C4000 O4022 1.240 . S
C4000 O4023 1.264 . S
O4001 Mn3996 2.095 . S
O4001 C4010 1.250 . S
O4002 Mn3997 2.121 . S
O4002 C4010 1.258 . S
C4003 N4004 1.326 . S
C4003 C4007 1.460 . S
C4003 H4009 0.929 . S
N4004 Mn3997 2.257 . S
N4004 C4003 1.326 . S
N4004 C4008 1.362 . S
C4005 C4006 1.258 . S
C4005 C4008 1.431 . S
C4005 C4025 1.449 . S
C4006 C4005 1.258 . S
C4006 C4007 1.477 . S
C4006 H4026 0.931 . S
C4007 C4003 1.460 . S
C4007 C4006 1.477 . S
C4007 H4027 0.930 . S
C4008 N4004 1.362 . S
C4008 C4005 1.431 . S
C4008 C4018 1.476 . S
H4009 C4003 0.929 . S
C4010 O4001 1.250 . S
C4010 O4002 1.258 . S
O4011 Mn3996 2.162 . S
O4011 C3999 1.281 . S
O4012 Mn3996 2.297 . S
O4012 C3999 1.236 . S
N4013 Mn3997 2.282 . S
N4013 C4014 1.328 . S
N4013 C4018 1.318 . S
C4014 N4013 1.328 . S
C4014 C4015 1.457 . S
C4014 H4019 0.929 . S
C4015 C4014 1.457 . S
C4015 C4016 1.291 . S
C4015 H4028 0.931 . S
C4016 C4015 1.291 . S
C4016 C4017 1.373 . S
C4016 H4029 0.929 . S
C4017 C4016 1.373 . S
C4017 C4018 1.396 . S
C4017 C4024 1.403 . S
C4018 C4008 1.476 . S
C4018 N4013 1.318 . S
C4018 C4017 1.396 . S
H4019 C4014 0.929 . S
O4020 Mn3996 2.385 . S
O4020 C3998 1.234 . S
O4021 Mn3996 2.209 . S
O4021 Mn3997 2.215 . S
O4021 C3998 1.283 . S
O4022 Mn3996 2.094 . S
O4022 C4000 1.240 . S
O4023 Mn3997 2.117 . S
O4023 C4000 1.264 . S
C4024 C4017 1.403 . S
C4024 C4025 1.399 . S
C4024 H4030 0.929 . S
C4025 C4005 1.449 . S
C4025 C4024 1.399 . S
C4025 H4031 0.930 . S
H4026 C4006 0.931 . S
H4027 C4007 0.930 . S
H4028 C4015 0.931 . S
H4029 C4016 0.929 . S
H4030 C4024 0.929 . S
H4031 C4025 0.930 . S
Mn4032 O4037 2.095 . S
Mn4032 O4047 2.162 . S
Mn4032 O4048 2.297 . S
Mn4032 O4056 2.385 . S
Mn4032 O4057 2.209 . S
Mn4032 O4058 2.094 . S
Mn4033 O4038 2.121 . S
Mn4033 N4040 2.257 . S
Mn4033 N4049 2.282 . S
Mn4033 O4057 2.215 . S
Mn4033 O4059 2.117 . S
C4034 O4056 1.234 . S
C4034 O4057 1.283 . S
C4035 O4047 1.281 . S
C4035 O4048 1.236 . S
C4036 O4058 1.240 . S
C4036 O4059 1.264 . S
O4037 Mn4032 2.095 . S
O4037 C4046 1.250 . S
O4038 Mn4033 2.121 . S
O4038 C4046 1.258 . S
C4039 N4040 1.326 . S
C4039 C4043 1.460 . S
C4039 H4045 0.929 . S
N4040 Mn4033 2.257 . S
N4040 C4039 1.326 . S
N4040 C4044 1.362 . S
C4041 C4042 1.258 . S
C4041 C4044 1.431 . S
C4041 C4061 1.449 . S
C4042 C4041 1.258 . S
C4042 C4043 1.477 . S
C4042 H4062 0.931 . S
C4043 C4039 1.460 . S
C4043 C4042 1.477 . S
C4043 H4063 0.930 . S
C4044 N4040 1.362 . S
C4044 C4041 1.431 . S
C4044 C4054 1.476 . S
H4045 C4039 0.929 . S
C4046 O4037 1.250 . S
C4046 O4038 1.258 . S
O4047 Mn4032 2.162 . S
O4047 C4035 1.281 . S
O4048 Mn4032 2.297 . S
O4048 C4035 1.236 . S
N4049 Mn4033 2.282 . S
N4049 C4050 1.328 . S
N4049 C4054 1.318 . S
C4050 N4049 1.328 . S
C4050 C4051 1.457 . S
C4050 H4055 0.929 . S
C4051 C4050 1.457 . S
C4051 C4052 1.291 . S
C4051 H4064 0.931 . S
C4052 C4051 1.291 . S
C4052 C4053 1.373 . S
C4052 H4065 0.929 . S
C4053 C4052 1.373 . S
C4053 C4054 1.396 . S
C4053 C4060 1.403 . S
C4054 C4044 1.476 . S
C4054 N4049 1.318 . S
C4054 C4053 1.396 . S
H4055 C4050 0.929 . S
O4056 Mn4032 2.385 . S
O4056 C4034 1.234 . S
O4057 Mn4032 2.209 . S
O4057 Mn4033 2.215 . S
O4057 C4034 1.283 . S
O4058 Mn4032 2.094 . S
O4058 C4036 1.240 . S
O4059 Mn4033 2.117 . S
O4059 C4036 1.264 . S
C4060 C4053 1.403 . S
C4060 C4061 1.399 . S
C4060 H4066 0.929 . S
C4061 C4041 1.449 . S
C4061 C4060 1.399 . S
C4061 H4067 0.930 . S
H4062 C4042 0.931 . S
H4063 C4043 0.930 . S
H4064 C4051 0.931 . S
H4065 C4052 0.929 . S
H4066 C4060 0.929 . S
H4067 C4061 0.930 . S
Mn4068 O4073 2.095 . S
Mn4068 O4083 2.162 . S
Mn4068 O4084 2.297 . S
Mn4068 O4092 2.385 . S
Mn4068 O4093 2.209 . S
Mn4068 O4094 2.094 . S
Mn4069 O4074 2.121 . S
Mn4069 N4076 2.257 . S
Mn4069 N4085 2.282 . S
Mn4069 O4093 2.215 . S
Mn4069 O4095 2.117 . S
C4070 O4092 1.234 . S
C4070 O4093 1.283 . S
C4071 O4083 1.281 . S
C4071 O4084 1.236 . S
C4072 O4094 1.240 . S
C4072 O4095 1.264 . S
O4073 Mn4068 2.095 . S
O4073 C4082 1.250 . S
O4074 Mn4069 2.121 . S
O4074 C4082 1.258 . S
C4075 N4076 1.326 . S
C4075 C4079 1.460 . S
C4075 H4081 0.929 . S
N4076 Mn4069 2.257 . S
N4076 C4075 1.326 . S
N4076 C4080 1.362 . S
C4077 C4078 1.258 . S
C4077 C4080 1.431 . S
C4077 C4097 1.449 . S
C4078 C4077 1.258 . S
C4078 C4079 1.477 . S
C4078 H4098 0.931 . S
C4079 C4075 1.460 . S
C4079 C4078 1.477 . S
C4079 H4099 0.930 . S
C4080 N4076 1.362 . S
C4080 C4077 1.431 . S
C4080 C4090 1.476 . S
H4081 C4075 0.929 . S
C4082 O4073 1.250 . S
C4082 O4074 1.258 . S
O4083 Mn4068 2.162 . S
O4083 C4071 1.281 . S
O4084 Mn4068 2.297 . S
O4084 C4071 1.236 . S
N4085 Mn4069 2.282 . S
N4085 C4086 1.328 . S
N4085 C4090 1.318 . S
C4086 N4085 1.328 . S
C4086 C4087 1.457 . S
C4086 H4091 0.929 . S
C4087 C4086 1.457 . S
C4087 C4088 1.291 . S
C4087 H4100 0.931 . S
C4088 C4087 1.291 . S
C4088 C4089 1.373 . S
C4088 H4101 0.929 . S
C4089 C4088 1.373 . S
C4089 C4090 1.396 . S
C4089 C4096 1.403 . S
C4090 C4080 1.476 . S
C4090 N4085 1.318 . S
C4090 C4089 1.396 . S
H4091 C4086 0.929 . S
O4092 Mn4068 2.385 . S
O4092 C4070 1.234 . S
O4093 Mn4068 2.209 . S
O4093 Mn4069 2.215 . S
O4093 C4070 1.283 . S
O4094 Mn4068 2.094 . S
O4094 C4072 1.240 . S
O4095 Mn4069 2.117 . S
O4095 C4072 1.264 . S
C4096 C4089 1.403 . S
C4096 C4097 1.399 . S
C4096 H4102 0.929 . S
C4097 C4077 1.449 . S
C4097 C4096 1.399 . S
C4097 H4103 0.930 . S
H4098 C4078 0.931 . S
H4099 C4079 0.930 . S
H4100 C4087 0.931 . S
H4101 C4088 0.929 . S
H4102 C4096 0.929 . S
H4103 C4097 0.930 . S
Mn4104 O4109 2.095 . S
Mn4104 O4119 2.162 . S
Mn4104 O4120 2.297 . S
Mn4104 O4128 2.385 . S
Mn4104 O4129 2.209 . S
Mn4104 O4130 2.094 . S
Mn4105 O4110 2.121 . S
Mn4105 N4112 2.257 . S
Mn4105 N4121 2.282 . S
Mn4105 O4129 2.215 . S
Mn4105 O4131 2.117 . S
C4106 O4128 1.234 . S
C4106 O4129 1.283 . S
C4107 O4119 1.281 . S
C4107 O4120 1.236 . S
C4108 O4130 1.240 . S
C4108 O4131 1.264 . S
O4109 Mn4104 2.095 . S
O4109 C4118 1.250 . S
O4110 Mn4105 2.121 . S
O4110 C4118 1.258 . S
C4111 N4112 1.326 . S
C4111 C4115 1.460 . S
C4111 H4117 0.929 . S
N4112 Mn4105 2.257 . S
N4112 C4111 1.326 . S
N4112 C4116 1.362 . S
C4113 C4114 1.258 . S
C4113 C4116 1.431 . S
C4113 C4133 1.449 . S
C4114 C4113 1.258 . S
C4114 C4115 1.477 . S
C4114 H4134 0.931 . S
C4115 C4111 1.460 . S
C4115 C4114 1.477 . S
C4115 H4135 0.930 . S
C4116 N4112 1.362 . S
C4116 C4113 1.431 . S
C4116 C4126 1.476 . S
H4117 C4111 0.929 . S
C4118 O4109 1.250 . S
C4118 O4110 1.258 . S
O4119 Mn4104 2.162 . S
O4119 C4107 1.281 . S
O4120 Mn4104 2.297 . S
O4120 C4107 1.236 . S
N4121 Mn4105 2.282 . S
N4121 C4122 1.328 . S
N4121 C4126 1.318 . S
C4122 N4121 1.328 . S
C4122 C4123 1.457 . S
C4122 H4127 0.929 . S
C4123 C4122 1.457 . S
C4123 C4124 1.291 . S
C4123 H4136 0.931 . S
C4124 C4123 1.291 . S
C4124 C4125 1.373 . S
C4124 H4137 0.929 . S
C4125 C4124 1.373 . S
C4125 C4126 1.396 . S
C4125 C4132 1.403 . S
C4126 C4116 1.476 . S
C4126 N4121 1.318 . S
C4126 C4125 1.396 . S
H4127 C4122 0.929 . S
O4128 Mn4104 2.385 . S
O4128 C4106 1.234 . S
O4129 Mn4104 2.209 . S
O4129 Mn4105 2.215 . S
O4129 C4106 1.283 . S
O4130 Mn4104 2.094 . S
O4130 C4108 1.240 . S
O4131 Mn4105 2.117 . S
O4131 C4108 1.264 . S
C4132 C4125 1.403 . S
C4132 C4133 1.399 . S
C4132 H4138 0.929 . S
C4133 C4113 1.449 . S
C4133 C4132 1.399 . S
C4133 H4139 0.930 . S
H4134 C4114 0.931 . S
H4135 C4115 0.930 . S
H4136 C4123 0.931 . S
H4137 C4124 0.929 . S
H4138 C4132 0.929 . S
H4139 C4133 0.930 . S
Mn4140 O4145 2.095 . S
Mn4140 O4155 2.162 . S
Mn4140 O4156 2.297 . S
Mn4140 O4164 2.385 . S
Mn4140 O4165 2.209 . S
Mn4140 O4166 2.094 . S
Mn4141 O4146 2.121 . S
Mn4141 N4148 2.257 . S
Mn4141 N4157 2.282 . S
Mn4141 O4165 2.215 . S
Mn4141 O4167 2.117 . S
C4142 O4164 1.234 . S
C4142 O4165 1.283 . S
C4143 O4155 1.281 . S
C4143 O4156 1.236 . S
C4144 O4166 1.240 . S
C4144 O4167 1.264 . S
O4145 Mn4140 2.095 . S
O4145 C4154 1.250 . S
O4146 Mn4141 2.121 . S
O4146 C4154 1.258 . S
C4147 N4148 1.326 . S
C4147 C4151 1.460 1_565 S
C4147 H4153 0.929 . S
N4148 Mn4141 2.257 . S
N4148 C4147 1.326 . S
N4148 C4152 1.362 . S
C4149 C4150 1.258 1_565 S
C4149 C4152 1.431 . S
C4149 C4169 1.449 . S
C4150 C4149 1.258 1_545 S
C4150 C4151 1.477 . S
C4150 H4170 0.931 . S
C4151 C4147 1.460 1_545 S
C4151 C4150 1.477 . S
C4151 H4171 0.930 . S
C4152 N4148 1.362 . S
C4152 C4149 1.431 . S
C4152 C4162 1.476 . S
H4153 C4147 0.929 . S
C4154 O4145 1.250 . S
C4154 O4146 1.258 . S
O4155 Mn4140 2.162 . S
O4155 C4143 1.281 . S
O4156 Mn4140 2.297 . S
O4156 C4143 1.236 . S
N4157 Mn4141 2.282 . S
N4157 C4158 1.328 . S
N4157 C4162 1.318 . S
C4158 N4157 1.328 . S
C4158 C4159 1.457 . S
C4158 H4163 0.929 . S
C4159 C4158 1.457 . S
C4159 C4160 1.291 . S
C4159 H4172 0.931 . S
C4160 C4159 1.291 . S
C4160 C4161 1.373 . S
C4160 H4173 0.929 . S
C4161 C4160 1.373 . S
C4161 C4162 1.396 . S
C4161 C4168 1.403 . S
C4162 C4152 1.476 . S
C4162 N4157 1.318 . S
C4162 C4161 1.396 . S
H4163 C4158 0.929 . S
O4164 Mn4140 2.385 . S
O4164 C4142 1.234 . S
O4165 Mn4140 2.209 . S
O4165 Mn4141 2.215 . S
O4165 C4142 1.283 . S
O4166 Mn4140 2.094 . S
O4166 C4144 1.240 . S
O4167 Mn4141 2.117 . S
O4167 C4144 1.264 . S
C4168 C4161 1.403 . S
C4168 C4169 1.399 . S
C4168 H4174 0.929 . S
C4169 C4149 1.449 . S
C4169 C4168 1.399 . S
C4169 H4175 0.930 . S
H4170 C4150 0.931 . S
H4171 C4151 0.930 . S
H4172 C4159 0.931 . S
H4173 C4160 0.929 . S
H4174 C4168 0.929 . S
H4175 C4169 0.930 . S
Mn4176 O4181 2.095 . S
Mn4176 O4191 2.162 . S
Mn4176 O4192 2.297 . S
Mn4176 O4200 2.385 . S
Mn4176 O4201 2.209 . S
Mn4176 O4202 2.094 . S
Mn4177 O4182 2.121 . S
Mn4177 N4184 2.257 . S
Mn4177 N4193 2.282 . S
Mn4177 O4201 2.215 . S
Mn4177 O4203 2.117 . S
C4178 O4200 1.234 . S
C4178 O4201 1.283 . S
C4179 O4191 1.281 . S
C4179 O4192 1.236 . S
C4180 O4202 1.240 . S
C4180 O4203 1.264 . S
O4181 Mn4176 2.095 . S
O4181 C4190 1.250 . S
O4182 Mn4177 2.121 . S
O4182 C4190 1.258 . S
C4183 N4184 1.326 . S
C4183 C4187 1.460 1_455 S
C4183 H4189 0.929 . S
N4184 Mn4177 2.257 . S
N4184 C4183 1.326 . S
N4184 C4188 1.362 . S
C4185 C4186 1.258 1_455 S
C4185 C4188 1.431 . S
C4185 C4205 1.449 . S
C4186 C4185 1.258 1_655 S
C4186 C4187 1.477 . S
C4186 H4206 0.931 . S
C4187 C4183 1.460 1_655 S
C4187 C4186 1.477 . S
C4187 H4207 0.930 . S
C4188 N4184 1.362 . S
C4188 C4185 1.431 . S
C4188 C4198 1.476 . S
H4189 C4183 0.929 . S
C4190 O4181 1.250 . S
C4190 O4182 1.258 . S
O4191 Mn4176 2.162 . S
O4191 C4179 1.281 . S
O4192 Mn4176 2.297 . S
O4192 C4179 1.236 . S
N4193 Mn4177 2.282 . S
N4193 C4194 1.328 . S
N4193 C4198 1.318 . S
C4194 N4193 1.328 . S
C4194 C4195 1.457 . S
C4194 H4199 0.929 . S
C4195 C4194 1.457 . S
C4195 C4196 1.291 . S
C4195 H4208 0.931 . S
C4196 C4195 1.291 . S
C4196 C4197 1.373 . S
C4196 H4209 0.929 . S
C4197 C4196 1.373 . S
C4197 C4198 1.396 . S
C4197 C4204 1.403 . S
C4198 C4188 1.476 . S
C4198 N4193 1.318 . S
C4198 C4197 1.396 . S
H4199 C4194 0.929 . S
O4200 Mn4176 2.385 . S
O4200 C4178 1.234 . S
O4201 Mn4176 2.209 . S
O4201 Mn4177 2.215 . S
O4201 C4178 1.283 . S
O4202 Mn4176 2.094 . S
O4202 C4180 1.240 . S
O4203 Mn4177 2.117 . S
O4203 C4180 1.264 . S
C4204 C4197 1.403 . S
C4204 C4205 1.399 . S
C4204 H4210 0.929 . S
C4205 C4185 1.449 . S
C4205 C4204 1.399 . S
C4205 H4211 0.930 . S
H4206 C4186 0.931 . S
H4207 C4187 0.930 . S
H4208 C4195 0.931 . S
H4209 C4196 0.929 . S
H4210 C4204 0.929 . S
H4211 C4205 0.930 . S
Mn4212 O4217 2.095 . S
Mn4212 O4227 2.162 . S
Mn4212 O4228 2.297 . S
Mn4212 O4236 2.385 . S
Mn4212 O4237 2.209 . S
Mn4212 O4238 2.094 . S
Mn4213 O4218 2.121 . S
Mn4213 N4220 2.257 . S
Mn4213 N4229 2.282 . S
Mn4213 O4237 2.215 . S
Mn4213 O4239 2.117 . S
C4214 O4236 1.234 . S
C4214 O4237 1.283 . S
C4215 O4227 1.281 . S
C4215 O4228 1.236 . S
C4216 O4238 1.240 . S
C4216 O4239 1.264 . S
O4217 Mn4212 2.095 . S
O4217 C4226 1.250 . S
O4218 Mn4213 2.121 . S
O4218 C4226 1.258 . S
C4219 N4220 1.326 . S
C4219 C4223 1.460 . S
C4219 H4225 0.929 . S
N4220 Mn4213 2.257 . S
N4220 C4219 1.326 . S
N4220 C4224 1.362 . S
C4221 C4222 1.258 . S
C4221 C4224 1.431 . S
C4221 C4241 1.449 . S
C4222 C4221 1.258 . S
C4222 C4223 1.477 . S
C4222 H4242 0.931 . S
C4223 C4219 1.460 . S
C4223 C4222 1.477 . S
C4223 H4243 0.930 . S
C4224 N4220 1.362 . S
C4224 C4221 1.431 . S
C4224 C4234 1.476 . S
H4225 C4219 0.929 . S
C4226 O4217 1.250 . S
C4226 O4218 1.258 . S
O4227 Mn4212 2.162 . S
O4227 C4215 1.281 . S
O4228 Mn4212 2.297 . S
O4228 C4215 1.236 . S
N4229 Mn4213 2.282 . S
N4229 C4230 1.328 . S
N4229 C4234 1.318 . S
C4230 N4229 1.328 . S
C4230 C4231 1.457 . S
C4230 H4235 0.929 . S
C4231 C4230 1.457 . S
C4231 C4232 1.291 . S
C4231 H4244 0.931 . S
C4232 C4231 1.291 . S
C4232 C4233 1.373 . S
C4232 H4245 0.929 . S
C4233 C4232 1.373 . S
C4233 C4234 1.396 . S
C4233 C4240 1.403 . S
C4234 C4224 1.476 . S
C4234 N4229 1.318 . S
C4234 C4233 1.396 . S
H4235 C4230 0.929 . S
O4236 Mn4212 2.385 . S
O4236 C4214 1.234 . S
O4237 Mn4212 2.209 . S
O4237 Mn4213 2.215 . S
O4237 C4214 1.283 . S
O4238 Mn4212 2.094 . S
O4238 C4216 1.240 . S
O4239 Mn4213 2.117 . S
O4239 C4216 1.264 . S
C4240 C4233 1.403 . S
C4240 C4241 1.399 . S
C4240 H4246 0.929 . S
C4241 C4221 1.449 . S
C4241 C4240 1.399 . S
C4241 H4247 0.930 . S
H4242 C4222 0.931 . S
H4243 C4223 0.930 . S
H4244 C4231 0.931 . S
H4245 C4232 0.929 . S
H4246 C4240 0.929 . S
H4247 C4241 0.930 . S
Mn4248 O4253 2.095 . S
Mn4248 O4263 2.162 . S
Mn4248 O4264 2.297 . S
Mn4248 O4272 2.385 . S
Mn4248 O4273 2.209 . S
Mn4248 O4274 2.094 . S
Mn4249 O4254 2.121 . S
Mn4249 N4256 2.257 . S
Mn4249 N4265 2.282 . S
Mn4249 O4273 2.215 . S
Mn4249 O4275 2.117 . S
C4250 O4272 1.234 . S
C4250 O4273 1.283 . S
C4251 O4263 1.281 . S
C4251 O4264 1.236 . S
C4252 O4274 1.240 . S
C4252 O4275 1.264 . S
O4253 Mn4248 2.095 . S
O4253 C4262 1.250 . S
O4254 Mn4249 2.121 . S
O4254 C4262 1.258 . S
C4255 N4256 1.326 . S
C4255 C4259 1.460 . S
C4255 H4261 0.929 . S
N4256 Mn4249 2.257 . S
N4256 C4255 1.326 . S
N4256 C4260 1.362 . S
C4257 C4258 1.258 . S
C4257 C4260 1.431 . S
C4257 C4277 1.449 . S
C4258 C4257 1.258 . S
C4258 C4259 1.477 . S
C4258 H4278 0.931 . S
C4259 C4255 1.460 . S
C4259 C4258 1.477 . S
C4259 H4279 0.930 . S
C4260 N4256 1.362 . S
C4260 C4257 1.431 . S
C4260 C4270 1.476 . S
H4261 C4255 0.929 . S
C4262 O4253 1.250 . S
C4262 O4254 1.258 . S
O4263 Mn4248 2.162 . S
O4263 C4251 1.281 . S
O4264 Mn4248 2.297 . S
O4264 C4251 1.236 . S
N4265 Mn4249 2.282 . S
N4265 C4266 1.328 . S
N4265 C4270 1.318 . S
C4266 N4265 1.328 . S
C4266 C4267 1.457 . S
C4266 H4271 0.929 . S
C4267 C4266 1.457 . S
C4267 C4268 1.291 . S
C4267 H4280 0.931 . S
C4268 C4267 1.291 . S
C4268 C4269 1.373 . S
C4268 H4281 0.929 . S
C4269 C4268 1.373 . S
C4269 C4270 1.396 . S
C4269 C4276 1.403 . S
C4270 C4260 1.476 . S
C4270 N4265 1.318 . S
C4270 C4269 1.396 . S
H4271 C4266 0.929 . S
O4272 Mn4248 2.385 . S
O4272 C4250 1.234 . S
O4273 Mn4248 2.209 . S
O4273 Mn4249 2.215 . S
O4273 C4250 1.283 . S
O4274 Mn4248 2.094 . S
O4274 C4252 1.240 . S
O4275 Mn4249 2.117 . S
O4275 C4252 1.264 . S
C4276 C4269 1.403 . S
C4276 C4277 1.399 . S
C4276 H4282 0.929 . S
C4277 C4257 1.449 . S
C4277 C4276 1.399 . S
C4277 H4283 0.930 . S
H4278 C4258 0.931 . S
H4279 C4259 0.930 . S
H4280 C4267 0.931 . S
H4281 C4268 0.929 . S
H4282 C4276 0.929 . S
H4283 C4277 0.930 . S
Mn4284 O4289 2.095 . S
Mn4284 O4299 2.162 . S
Mn4284 O4300 2.297 . S
Mn4284 O4308 2.385 . S
Mn4284 O4309 2.209 . S
Mn4284 O4310 2.094 . S
Mn4285 O4290 2.121 . S
Mn4285 N4292 2.257 . S
Mn4285 N4301 2.282 . S
Mn4285 O4309 2.215 . S
Mn4285 O4311 2.117 . S
C4286 O4308 1.234 . S
C4286 O4309 1.283 . S
C4287 O4299 1.281 . S
C4287 O4300 1.236 . S
C4288 O4310 1.240 . S
C4288 O4311 1.264 . S
O4289 Mn4284 2.095 . S
O4289 C4298 1.250 . S
O4290 Mn4285 2.121 . S
O4290 C4298 1.258 . S
C4291 N4292 1.326 . S
C4291 C4295 1.460 . S
C4291 H4297 0.929 . S
N4292 Mn4285 2.257 . S
N4292 C4291 1.326 . S
N4292 C4296 1.362 . S
C4293 C4294 1.258 . S
C4293 C4296 1.431 . S
C4293 C4313 1.449 . S
C4294 C4293 1.258 . S
C4294 C4295 1.477 . S
C4294 H4314 0.931 . S
C4295 C4291 1.460 . S
C4295 C4294 1.477 . S
C4295 H4315 0.930 . S
C4296 N4292 1.362 . S
C4296 C4293 1.431 . S
C4296 C4306 1.476 . S
H4297 C4291 0.929 . S
C4298 O4289 1.250 . S
C4298 O4290 1.258 . S
O4299 Mn4284 2.162 . S
O4299 C4287 1.281 . S
O4300 Mn4284 2.297 . S
O4300 C4287 1.236 . S
N4301 Mn4285 2.282 . S
N4301 C4302 1.328 . S
N4301 C4306 1.318 . S
C4302 N4301 1.328 . S
C4302 C4303 1.457 . S
C4302 H4307 0.929 . S
C4303 C4302 1.457 . S
C4303 C4304 1.291 . S
C4303 H4316 0.931 . S
C4304 C4303 1.291 . S
C4304 C4305 1.373 . S
C4304 H4317 0.929 . S
C4305 C4304 1.373 . S
C4305 C4306 1.396 . S
C4305 C4312 1.403 . S
C4306 C4296 1.476 . S
C4306 N4301 1.318 . S
C4306 C4305 1.396 . S
H4307 C4302 0.929 . S
O4308 Mn4284 2.385 . S
O4308 C4286 1.234 . S
O4309 Mn4284 2.209 . S
O4309 Mn4285 2.215 . S
O4309 C4286 1.283 . S
O4310 Mn4284 2.094 . S
O4310 C4288 1.240 . S
O4311 Mn4285 2.117 . S
O4311 C4288 1.264 . S
C4312 C4305 1.403 . S
C4312 C4313 1.399 . S
C4312 H4318 0.929 . S
C4313 C4293 1.449 . S
C4313 C4312 1.399 . S
C4313 H4319 0.930 . S
H4314 C4294 0.931 . S
H4315 C4295 0.930 . S
H4316 C4303 0.931 . S
H4317 C4304 0.929 . S
H4318 C4312 0.929 . S
H4319 C4313 0.930 . S
Mn4320 O4325 2.095 . S
Mn4320 O4335 2.162 . S
Mn4320 O4336 2.297 . S
Mn4320 O4344 2.385 . S
Mn4320 O4345 2.209 . S
Mn4320 O4346 2.094 . S
Mn4321 O4326 2.121 . S
Mn4321 N4328 2.257 . S
Mn4321 N4337 2.282 . S
Mn4321 O4345 2.215 . S
Mn4321 O4347 2.117 . S
C4322 O4344 1.234 . S
C4322 O4345 1.283 . S
C4323 O4335 1.281 . S
C4323 O4336 1.236 . S
C4324 O4346 1.240 . S
C4324 O4347 1.264 . S
O4325 Mn4320 2.095 . S
O4325 C4334 1.250 . S
O4326 Mn4321 2.121 . S
O4326 C4334 1.258 . S
C4327 N4328 1.326 . S
C4327 C4331 1.460 1_554 S
C4327 H4333 0.929 . S
N4328 Mn4321 2.257 . S
N4328 C4327 1.326 . S
N4328 C4332 1.362 . S
C4329 C4330 1.258 1_554 S
C4329 C4332 1.431 . S
C4329 C4349 1.449 . S
C4330 C4329 1.258 1_556 S
C4330 C4331 1.477 . S
C4330 H4350 0.931 . S
C4331 C4327 1.460 1_556 S
C4331 C4330 1.477 . S
C4331 H4351 0.930 . S
C4332 N4328 1.362 . S
C4332 C4329 1.431 . S
C4332 C4342 1.476 . S
H4333 C4327 0.929 . S
C4334 O4325 1.250 . S
C4334 O4326 1.258 . S
O4335 Mn4320 2.162 . S
O4335 C4323 1.281 . S
O4336 Mn4320 2.297 . S
O4336 C4323 1.236 . S
N4337 Mn4321 2.282 . S
N4337 C4338 1.328 . S
N4337 C4342 1.318 . S
C4338 N4337 1.328 . S
C4338 C4339 1.457 . S
C4338 H4343 0.929 . S
C4339 C4338 1.457 . S
C4339 C4340 1.291 . S
C4339 H4352 0.931 . S
C4340 C4339 1.291 . S
C4340 C4341 1.373 . S
C4340 H4353 0.929 . S
C4341 C4340 1.373 . S
C4341 C4342 1.396 . S
C4341 C4348 1.403 . S
C4342 C4332 1.476 . S
C4342 N4337 1.318 . S
C4342 C4341 1.396 . S
H4343 C4338 0.929 . S
O4344 Mn4320 2.385 . S
O4344 C4322 1.234 . S
O4345 Mn4320 2.209 . S
O4345 Mn4321 2.215 . S
O4345 C4322 1.283 . S
O4346 Mn4320 2.094 . S
O4346 C4324 1.240 . S
O4347 Mn4321 2.117 . S
O4347 C4324 1.264 . S
C4348 C4341 1.403 . S
C4348 C4349 1.399 . S
C4348 H4354 0.929 . S
C4349 C4329 1.449 . S
C4349 C4348 1.399 . S
C4349 H4355 0.930 . S
H4350 C4330 0.931 . S
H4351 C4331 0.930 . S
H4352 C4339 0.931 . S
H4353 C4340 0.929 . S
H4354 C4348 0.929 . S
H4355 C4349 0.930 . S
Mn4356 O4361 2.095 . S
Mn4356 O4371 2.162 . S
Mn4356 O4372 2.297 . S
Mn4356 O4380 2.385 . S
Mn4356 O4381 2.209 . S
Mn4356 O4382 2.094 . S
Mn4357 O4362 2.121 . S
Mn4357 N4364 2.257 . S
Mn4357 N4373 2.282 . S
Mn4357 O4381 2.215 . S
Mn4357 O4383 2.117 . S
C4358 O4380 1.234 . S
C4358 O4381 1.283 . S
C4359 O4371 1.281 . S
C4359 O4372 1.236 . S
C4360 O4382 1.240 . S
C4360 O4383 1.264 . S
O4361 Mn4356 2.095 . S
O4361 C4370 1.250 . S
O4362 Mn4357 2.121 . S
O4362 C4370 1.258 . S
C4363 N4364 1.326 . S
C4363 C4367 1.460 . S
C4363 H4369 0.929 . S
N4364 Mn4357 2.257 . S
N4364 C4363 1.326 . S
N4364 C4368 1.362 . S
C4365 C4366 1.258 . S
C4365 C4368 1.431 . S
C4365 C4385 1.449 . S
C4366 C4365 1.258 . S
C4366 C4367 1.477 . S
C4366 H4386 0.931 . S
C4367 C4363 1.460 . S
C4367 C4366 1.477 . S
C4367 H4387 0.930 . S
C4368 N4364 1.362 . S
C4368 C4365 1.431 . S
C4368 C4378 1.476 . S
H4369 C4363 0.929 . S
C4370 O4361 1.250 . S
C4370 O4362 1.258 . S
O4371 Mn4356 2.162 . S
O4371 C4359 1.281 . S
O4372 Mn4356 2.297 . S
O4372 C4359 1.236 . S
N4373 Mn4357 2.282 . S
N4373 C4374 1.328 . S
N4373 C4378 1.318 . S
C4374 N4373 1.328 . S
C4374 C4375 1.457 . S
C4374 H4379 0.929 . S
C4375 C4374 1.457 . S
C4375 C4376 1.291 . S
C4375 H4388 0.931 . S
C4376 C4375 1.291 . S
C4376 C4377 1.373 . S
C4376 H4389 0.929 . S
C4377 C4376 1.373 . S
C4377 C4378 1.396 . S
C4377 C4384 1.403 . S
C4378 C4368 1.476 . S
C4378 N4373 1.318 . S
C4378 C4377 1.396 . S
H4379 C4374 0.929 . S
O4380 Mn4356 2.385 . S
O4380 C4358 1.234 . S
O4381 Mn4356 2.209 . S
O4381 Mn4357 2.215 . S
O4381 C4358 1.283 . S
O4382 Mn4356 2.094 . S
O4382 C4360 1.240 . S
O4383 Mn4357 2.117 . S
O4383 C4360 1.264 . S
C4384 C4377 1.403 . S
C4384 C4385 1.399 . S
C4384 H4390 0.929 . S
C4385 C4365 1.449 . S
C4385 C4384 1.399 . S
C4385 H4391 0.930 . S
H4386 C4366 0.931 . S
H4387 C4367 0.930 . S
H4388 C4375 0.931 . S
H4389 C4376 0.929 . S
H4390 C4384 0.929 . S
H4391 C4385 0.930 . S
Mn4392 O4397 2.095 . S
Mn4392 O4407 2.162 . S
Mn4392 O4408 2.297 . S
Mn4392 O4416 2.385 . S
Mn4392 O4417 2.209 . S
Mn4392 O4418 2.094 . S
Mn4393 O4398 2.121 . S
Mn4393 N4400 2.257 . S
Mn4393 N4409 2.282 . S
Mn4393 O4417 2.215 . S
Mn4393 O4419 2.117 . S
C4394 O4416 1.234 . S
C4394 O4417 1.283 . S
C4395 O4407 1.281 . S
C4395 O4408 1.236 . S
C4396 O4418 1.240 . S
C4396 O4419 1.264 . S
O4397 Mn4392 2.095 . S
O4397 C4406 1.250 . S
O4398 Mn4393 2.121 . S
O4398 C4406 1.258 . S
C4399 N4400 1.326 . S
C4399 C4403 1.460 . S
C4399 H4405 0.929 . S
N4400 Mn4393 2.257 . S
N4400 C4399 1.326 . S
N4400 C4404 1.362 . S
C4401 C4402 1.258 . S
C4401 C4404 1.431 . S
C4401 C4421 1.449 . S
C4402 C4401 1.258 . S
C4402 C4403 1.477 . S
C4402 H4422 0.931 . S
C4403 C4399 1.460 . S
C4403 C4402 1.477 . S
C4403 H4423 0.930 . S
C4404 N4400 1.362 . S
C4404 C4401 1.431 . S
C4404 C4414 1.476 . S
H4405 C4399 0.929 . S
C4406 O4397 1.250 . S
C4406 O4398 1.258 . S
O4407 Mn4392 2.162 . S
O4407 C4395 1.281 . S
O4408 Mn4392 2.297 . S
O4408 C4395 1.236 . S
N4409 Mn4393 2.282 . S
N4409 C4410 1.328 . S
N4409 C4414 1.318 . S
C4410 N4409 1.328 . S
C4410 C4411 1.457 . S
C4410 H4415 0.929 . S
C4411 C4410 1.457 . S
C4411 C4412 1.291 . S
C4411 H4424 0.931 . S
C4412 C4411 1.291 . S
C4412 C4413 1.373 . S
C4412 H4425 0.929 . S
C4413 C4412 1.373 . S
C4413 C4414 1.396 . S
C4413 C4420 1.403 . S
C4414 C4404 1.476 . S
C4414 N4409 1.318 . S
C4414 C4413 1.396 . S
H4415 C4410 0.929 . S
O4416 Mn4392 2.385 . S
O4416 C4394 1.234 . S
O4417 Mn4392 2.209 . S
O4417 Mn4393 2.215 . S
O4417 C4394 1.283 . S
O4418 Mn4392 2.094 . S
O4418 C4396 1.240 . S
O4419 Mn4393 2.117 . S
O4419 C4396 1.264 . S
C4420 C4413 1.403 . S
C4420 C4421 1.399 . S
C4420 H4426 0.929 . S
C4421 C4401 1.449 . S
C4421 C4420 1.399 . S
C4421 H4427 0.930 . S
H4422 C4402 0.931 . S
H4423 C4403 0.930 . S
H4424 C4411 0.931 . S
H4425 C4412 0.929 . S
H4426 C4420 0.929 . S
H4427 C4421 0.930 . S
Mn4428 O4433 2.095 . S
Mn4428 O4443 2.162 . S
Mn4428 O4444 2.297 . S
Mn4428 O4452 2.385 . S
Mn4428 O4453 2.209 . S
Mn4428 O4454 2.094 . S
Mn4429 O4434 2.121 . S
Mn4429 N4436 2.257 . S
Mn4429 N4445 2.282 . S
Mn4429 O4453 2.215 . S
Mn4429 O4455 2.117 . S
C4430 O4452 1.234 . S
C4430 O4453 1.283 . S
C4431 O4443 1.281 . S
C4431 O4444 1.236 . S
C4432 O4454 1.240 . S
C4432 O4455 1.264 . S
O4433 Mn4428 2.095 . S
O4433 C4442 1.250 . S
O4434 Mn4429 2.121 . S
O4434 C4442 1.258 . S
C4435 N4436 1.326 . S
C4435 C4439 1.460 . S
C4435 H4441 0.929 . S
N4436 Mn4429 2.257 . S
N4436 C4435 1.326 . S
N4436 C4440 1.362 . S
C4437 C4438 1.258 . S
C4437 C4440 1.431 . S
C4437 C4457 1.449 . S
C4438 C4437 1.258 . S
C4438 C4439 1.477 . S
C4438 H4458 0.931 . S
C4439 C4435 1.460 . S
C4439 C4438 1.477 . S
C4439 H4459 0.930 . S
C4440 N4436 1.362 . S
C4440 C4437 1.431 . S
C4440 C4450 1.476 . S
H4441 C4435 0.929 . S
C4442 O4433 1.250 . S
C4442 O4434 1.258 . S
O4443 Mn4428 2.162 . S
O4443 C4431 1.281 . S
O4444 Mn4428 2.297 . S
O4444 C4431 1.236 . S
N4445 Mn4429 2.282 . S
N4445 C4446 1.328 . S
N4445 C4450 1.318 . S
C4446 N4445 1.328 . S
C4446 C4447 1.457 . S
C4446 H4451 0.929 . S
C4447 C4446 1.457 . S
C4447 C4448 1.291 . S
C4447 H4460 0.931 . S
C4448 C4447 1.291 . S
C4448 C4449 1.373 . S
C4448 H4461 0.929 . S
C4449 C4448 1.373 . S
C4449 C4450 1.396 . S
C4449 C4456 1.403 . S
C4450 C4440 1.476 . S
C4450 N4445 1.318 . S
C4450 C4449 1.396 . S
H4451 C4446 0.929 . S
O4452 Mn4428 2.385 . S
O4452 C4430 1.234 . S
O4453 Mn4428 2.209 . S
O4453 Mn4429 2.215 . S
O4453 C4430 1.283 . S
O4454 Mn4428 2.094 . S
O4454 C4432 1.240 . S
O4455 Mn4429 2.117 . S
O4455 C4432 1.264 . S
C4456 C4449 1.403 . S
C4456 C4457 1.399 . S
C4456 H4462 0.929 . S
C4457 C4437 1.449 . S
C4457 C4456 1.399 . S
C4457 H4463 0.930 . S
H4458 C4438 0.931 . S
H4459 C4439 0.930 . S
H4460 C4447 0.931 . S
H4461 C4448 0.929 . S
H4462 C4456 0.929 . S
H4463 C4457 0.930 . S
Mn4464 O4469 2.095 . S
Mn4464 O4479 2.162 . S
Mn4464 O4480 2.297 . S
Mn4464 O4488 2.385 . S
Mn4464 O4489 2.209 . S
Mn4464 O4490 2.094 . S
Mn4465 O4470 2.121 . S
Mn4465 N4472 2.257 . S
Mn4465 N4481 2.282 . S
Mn4465 O4489 2.215 . S
Mn4465 O4491 2.117 . S
C4466 O4488 1.234 . S
C4466 O4489 1.283 . S
C4467 O4479 1.281 . S
C4467 O4480 1.236 . S
C4468 O4490 1.240 . S
C4468 O4491 1.264 . S
O4469 Mn4464 2.095 . S
O4469 C4478 1.250 . S
O4470 Mn4465 2.121 . S
O4470 C4478 1.258 . S
C4471 N4472 1.326 . S
C4471 C4475 1.460 . S
C4471 H4477 0.929 . S
N4472 Mn4465 2.257 . S
N4472 C4471 1.326 . S
N4472 C4476 1.362 . S
C4473 C4474 1.258 . S
C4473 C4476 1.431 . S
C4473 C4493 1.449 . S
C4474 C4473 1.258 . S
C4474 C4475 1.477 . S
C4474 H4494 0.931 . S
C4475 C4471 1.460 . S
C4475 C4474 1.477 . S
C4475 H4495 0.930 . S
C4476 N4472 1.362 . S
C4476 C4473 1.431 . S
C4476 C4486 1.476 . S
H4477 C4471 0.929 . S
C4478 O4469 1.250 . S
C4478 O4470 1.258 . S
O4479 Mn4464 2.162 . S
O4479 C4467 1.281 . S
O4480 Mn4464 2.297 . S
O4480 C4467 1.236 . S
N4481 Mn4465 2.282 . S
N4481 C4482 1.328 . S
N4481 C4486 1.318 . S
C4482 N4481 1.328 . S
C4482 C4483 1.457 . S
C4482 H4487 0.929 . S
C4483 C4482 1.457 . S
C4483 C4484 1.291 . S
C4483 H4496 0.931 . S
C4484 C4483 1.291 . S
C4484 C4485 1.373 . S
C4484 H4497 0.929 . S
C4485 C4484 1.373 . S
C4485 C4486 1.396 . S
C4485 C4492 1.403 . S
C4486 C4476 1.476 . S
C4486 N4481 1.318 . S
C4486 C4485 1.396 . S
H4487 C4482 0.929 . S
O4488 Mn4464 2.385 . S
O4488 C4466 1.234 . S
O4489 Mn4464 2.209 . S
O4489 Mn4465 2.215 . S
O4489 C4466 1.283 . S
O4490 Mn4464 2.094 . S
O4490 C4468 1.240 . S
O4491 Mn4465 2.117 . S
O4491 C4468 1.264 . S
C4492 C4485 1.403 . S
C4492 C4493 1.399 . S
C4492 H4498 0.929 . S
C4493 C4473 1.449 . S
C4493 C4492 1.399 . S
C4493 H4499 0.930 . S
H4494 C4474 0.931 . S
H4495 C4475 0.930 . S
H4496 C4483 0.931 . S
H4497 C4484 0.929 . S
H4498 C4492 0.929 . S
H4499 C4493 0.930 . S
Mn4500 O4505 2.095 . S
Mn4500 O4515 2.162 . S
Mn4500 O4516 2.297 . S
Mn4500 O4524 2.385 . S
Mn4500 O4525 2.209 . S
Mn4500 O4526 2.094 . S
Mn4501 O4506 2.121 . S
Mn4501 N4508 2.257 . S
Mn4501 N4517 2.282 . S
Mn4501 O4525 2.215 . S
Mn4501 O4527 2.117 . S
C4502 O4524 1.234 . S
C4502 O4525 1.283 . S
C4503 O4515 1.281 . S
C4503 O4516 1.236 . S
C4504 O4526 1.240 . S
C4504 O4527 1.264 . S
O4505 Mn4500 2.095 . S
O4505 C4514 1.250 . S
O4506 Mn4501 2.121 . S
O4506 C4514 1.258 . S
C4507 N4508 1.326 . S
C4507 C4511 1.460 . S
C4507 H4513 0.929 . S
N4508 Mn4501 2.257 . S
N4508 C4507 1.326 . S
N4508 C4512 1.362 . S
C4509 C4510 1.258 . S
C4509 C4512 1.431 . S
C4509 C4529 1.449 . S
C4510 C4509 1.258 . S
C4510 C4511 1.477 . S
C4510 H4530 0.931 . S
C4511 C4507 1.460 . S
C4511 C4510 1.477 . S
C4511 H4531 0.930 . S
C4512 N4508 1.362 . S
C4512 C4509 1.431 . S
C4512 C4522 1.476 . S
H4513 C4507 0.929 . S
C4514 O4505 1.250 . S
C4514 O4506 1.258 . S
O4515 Mn4500 2.162 . S
O4515 C4503 1.281 . S
O4516 Mn4500 2.297 . S
O4516 C4503 1.236 . S
N4517 Mn4501 2.282 . S
N4517 C4518 1.328 . S
N4517 C4522 1.318 . S
C4518 N4517 1.328 . S
C4518 C4519 1.457 . S
C4518 H4523 0.929 . S
C4519 C4518 1.457 . S
C4519 C4520 1.291 . S
C4519 H4532 0.931 . S
C4520 C4519 1.291 . S
C4520 C4521 1.373 . S
C4520 H4533 0.929 . S
C4521 C4520 1.373 . S
C4521 C4522 1.396 . S
C4521 C4528 1.403 . S
C4522 C4512 1.476 . S
C4522 N4517 1.318 . S
C4522 C4521 1.396 . S
H4523 C4518 0.929 . S
O4524 Mn4500 2.385 . S
O4524 C4502 1.234 . S
O4525 Mn4500 2.209 . S
O4525 Mn4501 2.215 . S
O4525 C4502 1.283 . S
O4526 Mn4500 2.094 . S
O4526 C4504 1.240 . S
O4527 Mn4501 2.117 . S
O4527 C4504 1.264 . S
C4528 C4521 1.403 . S
C4528 C4529 1.399 . S
C4528 H4534 0.929 . S
C4529 C4509 1.449 . S
C4529 C4528 1.399 . S
C4529 H4535 0.930 . S
H4530 C4510 0.931 . S
H4531 C4511 0.930 . S
H4532 C4519 0.931 . S
H4533 C4520 0.929 . S
H4534 C4528 0.929 . S
H4535 C4529 0.930 . S
Mn4536 O4541 2.095 . S
Mn4536 O4551 2.162 . S
Mn4536 O4552 2.297 . S
Mn4536 O4560 2.385 . S
Mn4536 O4561 2.209 . S
Mn4536 O4562 2.094 . S
Mn4537 O4542 2.121 . S
Mn4537 N4544 2.257 . S
Mn4537 N4553 2.282 . S
Mn4537 O4561 2.215 . S
Mn4537 O4563 2.117 . S
C4538 O4560 1.234 . S
C4538 O4561 1.283 . S
C4539 O4551 1.281 . S
C4539 O4552 1.236 . S
C4540 O4562 1.240 . S
C4540 O4563 1.264 . S
O4541 Mn4536 2.095 . S
O4541 C4550 1.250 . S
O4542 Mn4537 2.121 . S
O4542 C4550 1.258 . S
C4543 N4544 1.326 . S
C4543 C4547 1.460 . S
C4543 H4549 0.929 . S
N4544 Mn4537 2.257 . S
N4544 C4543 1.326 . S
N4544 C4548 1.362 . S
C4545 C4546 1.258 . S
C4545 C4548 1.431 . S
C4545 C4565 1.449 . S
C4546 C4545 1.258 . S
C4546 C4547 1.477 . S
C4546 H4566 0.931 . S
C4547 C4543 1.460 . S
C4547 C4546 1.477 . S
C4547 H4567 0.930 . S
C4548 N4544 1.362 . S
C4548 C4545 1.431 . S
C4548 C4558 1.476 . S
H4549 C4543 0.929 . S
C4550 O4541 1.250 . S
C4550 O4542 1.258 . S
O4551 Mn4536 2.162 . S
O4551 C4539 1.281 . S
O4552 Mn4536 2.297 . S
O4552 C4539 1.236 . S
N4553 Mn4537 2.282 . S
N4553 C4554 1.328 . S
N4553 C4558 1.318 . S
C4554 N4553 1.328 . S
C4554 C4555 1.457 . S
C4554 H4559 0.929 . S
C4555 C4554 1.457 . S
C4555 C4556 1.291 . S
C4555 H4568 0.931 . S
C4556 C4555 1.291 . S
C4556 C4557 1.373 . S
C4556 H4569 0.929 . S
C4557 C4556 1.373 . S
C4557 C4558 1.396 . S
C4557 C4564 1.403 . S
C4558 C4548 1.476 . S
C4558 N4553 1.318 . S
C4558 C4557 1.396 . S
H4559 C4554 0.929 . S
O4560 Mn4536 2.385 . S
O4560 C4538 1.234 . S
O4561 Mn4536 2.209 . S
O4561 Mn4537 2.215 . S
O4561 C4538 1.283 . S
O4562 Mn4536 2.094 . S
O4562 C4540 1.240 . S
O4563 Mn4537 2.117 . S
O4563 C4540 1.264 . S
C4564 C4557 1.403 . S
C4564 C4565 1.399 . S
C4564 H4570 0.929 . S
C4565 C4545 1.449 . S
C4565 C4564 1.399 . S
C4565 H4571 0.930 . S
H4566 C4546 0.931 . S
H4567 C4547 0.930 . S
H4568 C4555 0.931 . S
H4569 C4556 0.929 . S
H4570 C4564 0.929 . S
H4571 C4565 0.930 . S
Mn4572 O4577 2.095 . S
Mn4572 O4587 2.162 . S
Mn4572 O4588 2.297 . S
Mn4572 O4596 2.385 . S
Mn4572 O4597 2.209 . S
Mn4572 O4598 2.094 . S
Mn4573 O4578 2.121 . S
Mn4573 N4580 2.257 . S
Mn4573 N4589 2.282 . S
Mn4573 O4597 2.215 . S
Mn4573 O4599 2.117 . S
C4574 O4596 1.234 . S
C4574 O4597 1.283 . S
C4575 O4587 1.281 . S
C4575 O4588 1.236 . S
C4576 O4598 1.240 . S
C4576 O4599 1.264 . S
O4577 Mn4572 2.095 . S
O4577 C4586 1.250 . S
O4578 Mn4573 2.121 . S
O4578 C4586 1.258 . S
C4579 N4580 1.326 . S
C4579 C4583 1.460 1_556 S
C4579 H4585 0.929 . S
N4580 Mn4573 2.257 . S
N4580 C4579 1.326 . S
N4580 C4584 1.362 . S
C4581 C4582 1.258 1_556 S
C4581 C4584 1.431 . S
C4581 C4601 1.449 . S
C4582 C4581 1.258 1_554 S
C4582 C4583 1.477 . S
C4582 H4602 0.931 . S
C4583 C4579 1.460 1_554 S
C4583 C4582 1.477 . S
C4583 H4603 0.930 . S
C4584 N4580 1.362 . S
C4584 C4581 1.431 . S
C4584 C4594 1.476 . S
H4585 C4579 0.929 . S
C4586 O4577 1.250 . S
C4586 O4578 1.258 . S
O4587 Mn4572 2.162 . S
O4587 C4575 1.281 . S
O4588 Mn4572 2.297 . S
O4588 C4575 1.236 . S
N4589 Mn4573 2.282 . S
N4589 C4590 1.328 . S
N4589 C4594 1.318 . S
C4590 N4589 1.328 . S
C4590 C4591 1.457 . S
C4590 H4595 0.929 . S
C4591 C4590 1.457 . S
C4591 C4592 1.291 . S
C4591 H4604 0.931 . S
C4592 C4591 1.291 . S
C4592 C4593 1.373 . S
C4592 H4605 0.929 . S
C4593 C4592 1.373 . S
C4593 C4594 1.396 . S
C4593 C4600 1.403 . S
C4594 C4584 1.476 . S
C4594 N4589 1.318 . S
C4594 C4593 1.396 . S
H4595 C4590 0.929 . S
O4596 Mn4572 2.385 . S
O4596 C4574 1.234 . S
O4597 Mn4572 2.209 . S
O4597 Mn4573 2.215 . S
O4597 C4574 1.283 . S
O4598 Mn4572 2.094 . S
O4598 C4576 1.240 . S
O4599 Mn4573 2.117 . S
O4599 C4576 1.264 . S
C4600 C4593 1.403 . S
C4600 C4601 1.399 . S
C4600 H4606 0.929 . S
C4601 C4581 1.449 . S
C4601 C4600 1.399 . S
C4601 H4607 0.930 . S
H4602 C4582 0.931 . S
H4603 C4583 0.930 . S
H4604 C4591 0.931 . S
H4605 C4592 0.929 . S
H4606 C4600 0.929 . S
H4607 C4601 0.930 . S
Mn4608 O4613 2.095 . S
Mn4608 O4623 2.162 . S
Mn4608 O4624 2.297 . S
Mn4608 O4632 2.385 . S
Mn4608 O4633 2.209 . S
Mn4608 O4634 2.094 . S
Mn4609 O4614 2.121 . S
Mn4609 N4616 2.257 . S
Mn4609 N4625 2.282 . S
Mn4609 O4633 2.215 . S
Mn4609 O4635 2.117 . S
C4610 O4632 1.234 . S
C4610 O4633 1.283 . S
C4611 O4623 1.281 . S
C4611 O4624 1.236 . S
C4612 O4634 1.240 . S
C4612 O4635 1.264 . S
O4613 Mn4608 2.095 . S
O4613 C4622 1.250 . S
O4614 Mn4609 2.121 . S
O4614 C4622 1.258 . S
C4615 N4616 1.326 . S
C4615 C4619 1.460 1_455 S
C4615 H4621 0.929 . S
N4616 Mn4609 2.257 . S
N4616 C4615 1.326 . S
N4616 C4620 1.362 . S
C4617 C4618 1.258 1_455 S
C4617 C4620 1.431 . S
C4617 C4637 1.449 . S
C4618 C4617 1.258 1_655 S
C4618 C4619 1.477 . S
C4618 H4638 0.931 . S
C4619 C4615 1.460 1_655 S
C4619 C4618 1.477 . S
C4619 H4639 0.930 . S
C4620 N4616 1.362 . S
C4620 C4617 1.431 . S
C4620 C4630 1.476 . S
H4621 C4615 0.929 . S
C4622 O4613 1.250 . S
C4622 O4614 1.258 . S
O4623 Mn4608 2.162 . S
O4623 C4611 1.281 . S
O4624 Mn4608 2.297 . S
O4624 C4611 1.236 . S
N4625 Mn4609 2.282 . S
N4625 C4626 1.328 . S
N4625 C4630 1.318 . S
C4626 N4625 1.328 . S
C4626 C4627 1.457 . S
C4626 H4631 0.929 . S
C4627 C4626 1.457 . S
C4627 C4628 1.291 . S
C4627 H4640 0.931 . S
C4628 C4627 1.291 . S
C4628 C4629 1.373 . S
C4628 H4641 0.929 . S
C4629 C4628 1.373 . S
C4629 C4630 1.396 . S
C4629 C4636 1.403 . S
C4630 C4620 1.476 . S
C4630 N4625 1.318 . S
C4630 C4629 1.396 . S
H4631 C4626 0.929 . S
O4632 Mn4608 2.385 . S
O4632 C4610 1.234 . S
O4633 Mn4608 2.209 . S
O4633 Mn4609 2.215 . S
O4633 C4610 1.283 . S
O4634 Mn4608 2.094 . S
O4634 C4612 1.240 . S
O4635 Mn4609 2.117 . S
O4635 C4612 1.264 . S
C4636 C4629 1.403 . S
C4636 C4637 1.399 . S
C4636 H4642 0.929 . S
C4637 C4617 1.449 . S
C4637 C4636 1.399 . S
C4637 H4643 0.930 . S
H4638 C4618 0.931 . S
H4639 C4619 0.930 . S
H4640 C4627 0.931 . S
H4641 C4628 0.929 . S
H4642 C4636 0.929 . S
H4643 C4637 0.930 . S
Mn4644 O4649 2.095 . S
Mn4644 O4659 2.162 . S
Mn4644 O4660 2.297 . S
Mn4644 O4668 2.385 . S
Mn4644 O4669 2.209 . S
Mn4644 O4670 2.094 . S
Mn4645 O4650 2.121 . S
Mn4645 N4652 2.257 . S
Mn4645 N4661 2.282 . S
Mn4645 O4669 2.215 . S
Mn4645 O4671 2.117 . S
C4646 O4668 1.234 . S
C4646 O4669 1.283 . S
C4647 O4659 1.281 . S
C4647 O4660 1.236 . S
C4648 O4670 1.240 . S
C4648 O4671 1.264 . S
O4649 Mn4644 2.095 . S
O4649 C4658 1.250 . S
O4650 Mn4645 2.121 . S
O4650 C4658 1.258 . S
C4651 N4652 1.326 . S
C4651 C4655 1.460 . S
C4651 H4657 0.929 . S
N4652 Mn4645 2.257 . S
N4652 C4651 1.326 . S
N4652 C4656 1.362 . S
C4653 C4654 1.258 . S
C4653 C4656 1.431 . S
C4653 C4673 1.449 . S
C4654 C4653 1.258 . S
C4654 C4655 1.477 . S
C4654 H4674 0.931 . S
C4655 C4651 1.460 . S
C4655 C4654 1.477 . S
C4655 H4675 0.930 . S
C4656 N4652 1.362 . S
C4656 C4653 1.431 . S
C4656 C4666 1.476 . S
H4657 C4651 0.929 . S
C4658 O4649 1.250 . S
C4658 O4650 1.258 . S
O4659 Mn4644 2.162 . S
O4659 C4647 1.281 . S
O4660 Mn4644 2.297 . S
O4660 C4647 1.236 . S
N4661 Mn4645 2.282 . S
N4661 C4662 1.328 . S
N4661 C4666 1.318 . S
C4662 N4661 1.328 . S
C4662 C4663 1.457 . S
C4662 H4667 0.929 . S
C4663 C4662 1.457 . S
C4663 C4664 1.291 . S
C4663 H4676 0.931 . S
C4664 C4663 1.291 . S
C4664 C4665 1.373 . S
C4664 H4677 0.929 . S
C4665 C4664 1.373 . S
C4665 C4666 1.396 . S
C4665 C4672 1.403 . S
C4666 C4656 1.476 . S
C4666 N4661 1.318 . S
C4666 C4665 1.396 . S
H4667 C4662 0.929 . S
O4668 Mn4644 2.385 . S
O4668 C4646 1.234 . S
O4669 Mn4644 2.209 . S
O4669 Mn4645 2.215 . S
O4669 C4646 1.283 . S
O4670 Mn4644 2.094 . S
O4670 C4648 1.240 . S
O4671 Mn4645 2.117 . S
O4671 C4648 1.264 . S
C4672 C4665 1.403 . S
C4672 C4673 1.399 . S
C4672 H4678 0.929 . S
C4673 C4653 1.449 . S
C4673 C4672 1.399 . S
C4673 H4679 0.930 . S
H4674 C4654 0.931 . S
H4675 C4655 0.930 . S
H4676 C4663 0.931 . S
H4677 C4664 0.929 . S
H4678 C4672 0.929 . S
H4679 C4673 0.930 . S
Mn4680 O4685 2.095 . S
Mn4680 O4695 2.162 . S
Mn4680 O4696 2.297 . S
Mn4680 O4704 2.385 . S
Mn4680 O4705 2.209 . S
Mn4680 O4706 2.094 . S
Mn4681 O4686 2.121 . S
Mn4681 N4688 2.257 . S
Mn4681 N4697 2.282 . S
Mn4681 O4705 2.215 . S
Mn4681 O4707 2.117 . S
C4682 O4704 1.234 . S
C4682 O4705 1.283 . S
C4683 O4695 1.281 . S
C4683 O4696 1.236 . S
C4684 O4706 1.240 . S
C4684 O4707 1.264 . S
O4685 Mn4680 2.095 . S
O4685 C4694 1.250 . S
O4686 Mn4681 2.121 . S
O4686 C4694 1.258 . S
C4687 N4688 1.326 . S
C4687 C4691 1.460 . S
C4687 H4693 0.929 . S
N4688 Mn4681 2.257 . S
N4688 C4687 1.326 . S
N4688 C4692 1.362 . S
C4689 C4690 1.258 . S
C4689 C4692 1.431 . S
C4689 C4709 1.449 . S
C4690 C4689 1.258 . S
C4690 C4691 1.477 . S
C4690 H4710 0.931 . S
C4691 C4687 1.460 . S
C4691 C4690 1.477 . S
C4691 H4711 0.930 . S
C4692 N4688 1.362 . S
C4692 C4689 1.431 . S
C4692 C4702 1.476 . S
H4693 C4687 0.929 . S
C4694 O4685 1.250 . S
C4694 O4686 1.258 . S
O4695 Mn4680 2.162 . S
O4695 C4683 1.281 . S
O4696 Mn4680 2.297 . S
O4696 C4683 1.236 . S
N4697 Mn4681 2.282 . S
N4697 C4698 1.328 . S
N4697 C4702 1.318 . S
C4698 N4697 1.328 . S
C4698 C4699 1.457 . S
C4698 H4703 0.929 . S
C4699 C4698 1.457 . S
C4699 C4700 1.291 . S
C4699 H4712 0.931 . S
C4700 C4699 1.291 . S
C4700 C4701 1.373 . S
C4700 H4713 0.929 . S
C4701 C4700 1.373 . S
C4701 C4702 1.396 . S
C4701 C4708 1.403 . S
C4702 C4692 1.476 . S
C4702 N4697 1.318 . S
C4702 C4701 1.396 . S
H4703 C4698 0.929 . S
O4704 Mn4680 2.385 . S
O4704 C4682 1.234 . S
O4705 Mn4680 2.209 . S
O4705 Mn4681 2.215 . S
O4705 C4682 1.283 . S
O4706 Mn4680 2.094 . S
O4706 C4684 1.240 . S
O4707 Mn4681 2.117 . S
O4707 C4684 1.264 . S
C4708 C4701 1.403 . S
C4708 C4709 1.399 . S
C4708 H4714 0.929 . S
C4709 C4689 1.449 . S
C4709 C4708 1.399 . S
C4709 H4715 0.930 . S
H4710 C4690 0.931 . S
H4711 C4691 0.930 . S
H4712 C4699 0.931 . S
H4713 C4700 0.929 . S
H4714 C4708 0.929 . S
H4715 C4709 0.930 . S
Mn4716 O4721 2.095 . S
Mn4716 O4731 2.162 . S
Mn4716 O4732 2.297 . S
Mn4716 O4740 2.385 . S
Mn4716 O4741 2.209 . S
Mn4716 O4742 2.094 . S
Mn4717 O4722 2.121 . S
Mn4717 N4724 2.257 . S
Mn4717 N4733 2.282 . S
Mn4717 O4741 2.215 . S
Mn4717 O4743 2.117 . S
C4718 O4740 1.234 . S
C4718 O4741 1.283 . S
C4719 O4731 1.281 . S
C4719 O4732 1.236 . S
C4720 O4742 1.240 . S
C4720 O4743 1.264 . S
O4721 Mn4716 2.095 . S
O4721 C4730 1.250 . S
O4722 Mn4717 2.121 . S
O4722 C4730 1.258 . S
C4723 N4724 1.326 . S
C4723 C4727 1.460 . S
C4723 H4729 0.929 . S
N4724 Mn4717 2.257 . S
N4724 C4723 1.326 . S
N4724 C4728 1.362 . S
C4725 C4726 1.258 . S
C4725 C4728 1.431 . S
C4725 C4745 1.449 . S
C4726 C4725 1.258 . S
C4726 C4727 1.477 . S
C4726 H4746 0.931 . S
C4727 C4723 1.460 . S
C4727 C4726 1.477 . S
C4727 H4747 0.930 . S
C4728 N4724 1.362 . S
C4728 C4725 1.431 . S
C4728 C4738 1.476 . S
H4729 C4723 0.929 . S
C4730 O4721 1.250 . S
C4730 O4722 1.258 . S
O4731 Mn4716 2.162 . S
O4731 C4719 1.281 . S
O4732 Mn4716 2.297 . S
O4732 C4719 1.236 . S
N4733 Mn4717 2.282 . S
N4733 C4734 1.328 . S
N4733 C4738 1.318 . S
C4734 N4733 1.328 . S
C4734 C4735 1.457 . S
C4734 H4739 0.929 . S
C4735 C4734 1.457 . S
C4735 C4736 1.291 . S
C4735 H4748 0.931 . S
C4736 C4735 1.291 . S
C4736 C4737 1.373 . S
C4736 H4749 0.929 . S
C4737 C4736 1.373 . S
C4737 C4738 1.396 . S
C4737 C4744 1.403 . S
C4738 C4728 1.476 . S
C4738 N4733 1.318 . S
C4738 C4737 1.396 . S
H4739 C4734 0.929 . S
O4740 Mn4716 2.385 . S
O4740 C4718 1.234 . S
O4741 Mn4716 2.209 . S
O4741 Mn4717 2.215 . S
O4741 C4718 1.283 . S
O4742 Mn4716 2.094 . S
O4742 C4720 1.240 . S
O4743 Mn4717 2.117 . S
O4743 C4720 1.264 . S
C4744 C4737 1.403 . S
C4744 C4745 1.399 . S
C4744 H4750 0.929 . S
C4745 C4725 1.449 . S
C4745 C4744 1.399 . S
C4745 H4751 0.930 . S
H4746 C4726 0.931 . S
H4747 C4727 0.930 . S
H4748 C4735 0.931 . S
H4749 C4736 0.929 . S
H4750 C4744 0.929 . S
H4751 C4745 0.930 . S
Mn4752 O4757 2.095 . S
Mn4752 O4767 2.162 . S
Mn4752 O4768 2.297 . S
Mn4752 O4776 2.385 . S
Mn4752 O4777 2.209 . S
Mn4752 O4778 2.094 . S
Mn4753 O4758 2.121 . S
Mn4753 N4760 2.257 . S
Mn4753 N4769 2.282 . S
Mn4753 O4777 2.215 . S
Mn4753 O4779 2.117 . S
C4754 O4776 1.234 . S
C4754 O4777 1.283 . S
C4755 O4767 1.281 . S
C4755 O4768 1.236 . S
C4756 O4778 1.240 . S
C4756 O4779 1.264 . S
O4757 Mn4752 2.095 . S
O4757 C4766 1.250 . S
O4758 Mn4753 2.121 . S
O4758 C4766 1.258 . S
C4759 N4760 1.326 . S
C4759 C4763 1.460 1_455 S
C4759 H4765 0.929 . S
N4760 Mn4753 2.257 . S
N4760 C4759 1.326 . S
N4760 C4764 1.362 . S
C4761 C4762 1.258 1_455 S
C4761 C4764 1.431 . S
C4761 C4781 1.449 . S
C4762 C4761 1.258 1_655 S
C4762 C4763 1.477 . S
C4762 H4782 0.931 . S
C4763 C4759 1.460 1_655 S
C4763 C4762 1.477 . S
C4763 H4783 0.930 . S
C4764 N4760 1.362 . S
C4764 C4761 1.431 . S
C4764 C4774 1.476 . S
H4765 C4759 0.929 . S
C4766 O4757 1.250 . S
C4766 O4758 1.258 . S
O4767 Mn4752 2.162 . S
O4767 C4755 1.281 . S
O4768 Mn4752 2.297 . S
O4768 C4755 1.236 . S
N4769 Mn4753 2.282 . S
N4769 C4770 1.328 . S
N4769 C4774 1.318 . S
C4770 N4769 1.328 . S
C4770 C4771 1.457 . S
C4770 H4775 0.929 . S
C4771 C4770 1.457 . S
C4771 C4772 1.291 . S
C4771 H4784 0.931 . S
C4772 C4771 1.291 . S
C4772 C4773 1.373 . S
C4772 H4785 0.929 . S
C4773 C4772 1.373 . S
C4773 C4774 1.396 . S
C4773 C4780 1.403 . S
C4774 C4764 1.476 . S
C4774 N4769 1.318 . S
C4774 C4773 1.396 . S
H4775 C4770 0.929 . S
O4776 Mn4752 2.385 . S
O4776 C4754 1.234 . S
O4777 Mn4752 2.209 . S
O4777 Mn4753 2.215 . S
O4777 C4754 1.283 . S
O4778 Mn4752 2.094 . S
O4778 C4756 1.240 . S
O4779 Mn4753 2.117 . S
O4779 C4756 1.264 . S
C4780 C4773 1.403 . S
C4780 C4781 1.399 . S
C4780 H4786 0.929 . S
C4781 C4761 1.449 . S
C4781 C4780 1.399 . S
C4781 H4787 0.930 . S
H4782 C4762 0.931 . S
H4783 C4763 0.930 . S
H4784 C4771 0.931 . S
H4785 C4772 0.929 . S
H4786 C4780 0.929 . S
H4787 C4781 0.930 . S
Mn4788 O4793 2.095 . S
Mn4788 O4803 2.162 . S
Mn4788 O4804 2.297 . S
Mn4788 O4812 2.385 . S
Mn4788 O4813 2.209 . S
Mn4788 O4814 2.094 . S
Mn4789 O4794 2.121 . S
Mn4789 N4796 2.257 . S
Mn4789 N4805 2.282 . S
Mn4789 O4813 2.215 . S
Mn4789 O4815 2.117 . S
C4790 O4812 1.234 . S
C4790 O4813 1.283 . S
C4791 O4803 1.281 . S
C4791 O4804 1.236 . S
C4792 O4814 1.240 . S
C4792 O4815 1.264 . S
O4793 Mn4788 2.095 . S
O4793 C4802 1.250 . S
O4794 Mn4789 2.121 . S
O4794 C4802 1.258 . S
C4795 N4796 1.326 . S
C4795 C4799 1.460 . S
C4795 H4801 0.929 . S
N4796 Mn4789 2.257 . S
N4796 C4795 1.326 . S
N4796 C4800 1.362 . S
C4797 C4798 1.258 . S
C4797 C4800 1.431 . S
C4797 C4817 1.449 . S
C4798 C4797 1.258 . S
C4798 C4799 1.477 . S
C4798 H4818 0.931 . S
C4799 C4795 1.460 . S
C4799 C4798 1.477 . S
C4799 H4819 0.930 . S
C4800 N4796 1.362 . S
C4800 C4797 1.431 . S
C4800 C4810 1.476 . S
H4801 C4795 0.929 . S
C4802 O4793 1.250 . S
C4802 O4794 1.258 . S
O4803 Mn4788 2.162 . S
O4803 C4791 1.281 . S
O4804 Mn4788 2.297 . S
O4804 C4791 1.236 . S
N4805 Mn4789 2.282 . S
N4805 C4806 1.328 . S
N4805 C4810 1.318 . S
C4806 N4805 1.328 . S
C4806 C4807 1.457 . S
C4806 H4811 0.929 . S
C4807 C4806 1.457 . S
C4807 C4808 1.291 . S
C4807 H4820 0.931 . S
C4808 C4807 1.291 . S
C4808 C4809 1.373 . S
C4808 H4821 0.929 . S
C4809 C4808 1.373 . S
C4809 C4810 1.396 . S
C4809 C4816 1.403 . S
C4810 C4800 1.476 . S
C4810 N4805 1.318 . S
C4810 C4809 1.396 . S
H4811 C4806 0.929 . S
O4812 Mn4788 2.385 . S
O4812 C4790 1.234 . S
O4813 Mn4788 2.209 . S
O4813 Mn4789 2.215 . S
O4813 C4790 1.283 . S
O4814 Mn4788 2.094 . S
O4814 C4792 1.240 . S
O4815 Mn4789 2.117 . S
O4815 C4792 1.264 . S
C4816 C4809 1.403 . S
C4816 C4817 1.399 . S
C4816 H4822 0.929 . S
C4817 C4797 1.449 . S
C4817 C4816 1.399 . S
C4817 H4823 0.930 . S
H4818 C4798 0.931 . S
H4819 C4799 0.930 . S
H4820 C4807 0.931 . S
H4821 C4808 0.929 . S
H4822 C4816 0.929 . S
H4823 C4817 0.930 . S
Mn4824 O4829 2.095 . S
Mn4824 O4839 2.162 . S
Mn4824 O4840 2.297 . S
Mn4824 O4848 2.385 . S
Mn4824 O4849 2.209 . S
Mn4824 O4850 2.094 . S
Mn4825 O4830 2.121 . S
Mn4825 N4832 2.257 . S
Mn4825 N4841 2.282 . S
Mn4825 O4849 2.215 . S
Mn4825 O4851 2.117 . S
C4826 O4848 1.234 . S
C4826 O4849 1.283 . S
C4827 O4839 1.281 . S
C4827 O4840 1.236 . S
C4828 O4850 1.240 . S
C4828 O4851 1.264 . S
O4829 Mn4824 2.095 . S
O4829 C4838 1.250 . S
O4830 Mn4825 2.121 . S
O4830 C4838 1.258 . S
C4831 N4832 1.326 . S
C4831 C4835 1.460 . S
C4831 H4837 0.929 . S
N4832 Mn4825 2.257 . S
N4832 C4831 1.326 . S
N4832 C4836 1.362 . S
C4833 C4834 1.258 . S
C4833 C4836 1.431 . S
C4833 C4853 1.449 . S
C4834 C4833 1.258 . S
C4834 C4835 1.477 . S
C4834 H4854 0.931 . S
C4835 C4831 1.460 . S
C4835 C4834 1.477 . S
C4835 H4855 0.930 . S
C4836 N4832 1.362 . S
C4836 C4833 1.431 . S
C4836 C4846 1.476 . S
H4837 C4831 0.929 . S
C4838 O4829 1.250 . S
C4838 O4830 1.258 . S
O4839 Mn4824 2.162 . S
O4839 C4827 1.281 . S
O4840 Mn4824 2.297 . S
O4840 C4827 1.236 . S
N4841 Mn4825 2.282 . S
N4841 C4842 1.328 . S
N4841 C4846 1.318 . S
C4842 N4841 1.328 . S
C4842 C4843 1.457 . S
C4842 H4847 0.929 . S
C4843 C4842 1.457 . S
C4843 C4844 1.291 . S
C4843 H4856 0.931 . S
C4844 C4843 1.291 . S
C4844 C4845 1.373 . S
C4844 H4857 0.929 . S
C4845 C4844 1.373 . S
C4845 C4846 1.396 . S
C4845 C4852 1.403 . S
C4846 C4836 1.476 . S
C4846 N4841 1.318 . S
C4846 C4845 1.396 . S
H4847 C4842 0.929 . S
O4848 Mn4824 2.385 . S
O4848 C4826 1.234 . S
O4849 Mn4824 2.209 . S
O4849 Mn4825 2.215 . S
O4849 C4826 1.283 . S
O4850 Mn4824 2.094 . S
O4850 C4828 1.240 . S
O4851 Mn4825 2.117 . S
O4851 C4828 1.264 . S
C4852 C4845 1.403 . S
C4852 C4853 1.399 . S
C4852 H4858 0.929 . S
C4853 C4833 1.449 . S
C4853 C4852 1.399 . S
C4853 H4859 0.930 . S
H4854 C4834 0.931 . S
H4855 C4835 0.930 . S
H4856 C4843 0.931 . S
H4857 C4844 0.929 . S
H4858 C4852 0.929 . S
H4859 C4853 0.930 . S
Mn4860 O4865 2.095 . S
Mn4860 O4875 2.162 . S
Mn4860 O4876 2.297 . S
Mn4860 O4884 2.385 . S
Mn4860 O4885 2.209 . S
Mn4860 O4886 2.094 . S
Mn4861 O4866 2.121 . S
Mn4861 N4868 2.257 . S
Mn4861 N4877 2.282 . S
Mn4861 O4885 2.215 . S
Mn4861 O4887 2.117 . S
C4862 O4884 1.234 . S
C4862 O4885 1.283 . S
C4863 O4875 1.281 . S
C4863 O4876 1.236 . S
C4864 O4886 1.240 . S
C4864 O4887 1.264 . S
O4865 Mn4860 2.095 . S
O4865 C4874 1.250 . S
O4866 Mn4861 2.121 . S
O4866 C4874 1.258 . S
C4867 N4868 1.326 . S
C4867 C4871 1.460 . S
C4867 H4873 0.929 . S
N4868 Mn4861 2.257 . S
N4868 C4867 1.326 . S
N4868 C4872 1.362 . S
C4869 C4870 1.258 . S
C4869 C4872 1.431 . S
C4869 C4889 1.449 . S
C4870 C4869 1.258 . S
C4870 C4871 1.477 . S
C4870 H4890 0.931 . S
C4871 C4867 1.460 . S
C4871 C4870 1.477 . S
C4871 H4891 0.930 . S
C4872 N4868 1.362 . S
C4872 C4869 1.431 . S
C4872 C4882 1.476 . S
H4873 C4867 0.929 . S
C4874 O4865 1.250 . S
C4874 O4866 1.258 . S
O4875 Mn4860 2.162 . S
O4875 C4863 1.281 . S
O4876 Mn4860 2.297 . S
O4876 C4863 1.236 . S
N4877 Mn4861 2.282 . S
N4877 C4878 1.328 . S
N4877 C4882 1.318 . S
C4878 N4877 1.328 . S
C4878 C4879 1.457 . S
C4878 H4883 0.929 . S
C4879 C4878 1.457 . S
C4879 C4880 1.291 . S
C4879 H4892 0.931 . S
C4880 C4879 1.291 . S
C4880 C4881 1.373 . S
C4880 H4893 0.929 . S
C4881 C4880 1.373 . S
C4881 C4882 1.396 . S
C4881 C4888 1.403 . S
C4882 C4872 1.476 . S
C4882 N4877 1.318 . S
C4882 C4881 1.396 . S
H4883 C4878 0.929 . S
O4884 Mn4860 2.385 . S
O4884 C4862 1.234 . S
O4885 Mn4860 2.209 . S
O4885 Mn4861 2.215 . S
O4885 C4862 1.283 . S
O4886 Mn4860 2.094 . S
O4886 C4864 1.240 . S
O4887 Mn4861 2.117 . S
O4887 C4864 1.264 . S
C4888 C4881 1.403 . S
C4888 C4889 1.399 . S
C4888 H4894 0.929 . S
C4889 C4869 1.449 . S
C4889 C4888 1.399 . S
C4889 H4895 0.930 . S
H4890 C4870 0.931 . S
H4891 C4871 0.930 . S
H4892 C4879 0.931 . S
H4893 C4880 0.929 . S
H4894 C4888 0.929 . S
H4895 C4889 0.930 . S
Mn4896 O4901 2.095 . S
Mn4896 O4911 2.162 . S
Mn4896 O4912 2.297 . S
Mn4896 O4920 2.385 . S
Mn4896 O4921 2.209 . S
Mn4896 O4922 2.094 . S
Mn4897 O4902 2.121 . S
Mn4897 N4904 2.257 . S
Mn4897 N4913 2.282 . S
Mn4897 O4921 2.215 . S
Mn4897 O4923 2.117 . S
C4898 O4920 1.234 . S
C4898 O4921 1.283 . S
C4899 O4911 1.281 . S
C4899 O4912 1.236 . S
C4900 O4922 1.240 . S
C4900 O4923 1.264 . S
O4901 Mn4896 2.095 . S
O4901 C4910 1.250 . S
O4902 Mn4897 2.121 . S
O4902 C4910 1.258 . S
C4903 N4904 1.326 . S
C4903 C4907 1.460 . S
C4903 H4909 0.929 . S
N4904 Mn4897 2.257 . S
N4904 C4903 1.326 . S
N4904 C4908 1.362 . S
C4905 C4906 1.258 . S
C4905 C4908 1.431 . S
C4905 C4925 1.449 . S
C4906 C4905 1.258 . S
C4906 C4907 1.477 . S
C4906 H4926 0.931 . S
C4907 C4903 1.460 . S
C4907 C4906 1.477 . S
C4907 H4927 0.930 . S
C4908 N4904 1.362 . S
C4908 C4905 1.431 . S
C4908 C4918 1.476 . S
H4909 C4903 0.929 . S
C4910 O4901 1.250 . S
C4910 O4902 1.258 . S
O4911 Mn4896 2.162 . S
O4911 C4899 1.281 . S
O4912 Mn4896 2.297 . S
O4912 C4899 1.236 . S
N4913 Mn4897 2.282 . S
N4913 C4914 1.328 . S
N4913 C4918 1.318 . S
C4914 N4913 1.328 . S
C4914 C4915 1.457 . S
C4914 H4919 0.929 . S
C4915 C4914 1.457 . S
C4915 C4916 1.291 . S
C4915 H4928 0.931 . S
C4916 C4915 1.291 . S
C4916 C4917 1.373 . S
C4916 H4929 0.929 . S
C4917 C4916 1.373 . S
C4917 C4918 1.396 . S
C4917 C4924 1.403 . S
C4918 C4908 1.476 . S
C4918 N4913 1.318 . S
C4918 C4917 1.396 . S
H4919 C4914 0.929 . S
O4920 Mn4896 2.385 . S
O4920 C4898 1.234 . S
O4921 Mn4896 2.209 . S
O4921 Mn4897 2.215 . S
O4921 C4898 1.283 . S
O4922 Mn4896 2.094 . S
O4922 C4900 1.240 . S
O4923 Mn4897 2.117 . S
O4923 C4900 1.264 . S
C4924 C4917 1.403 . S
C4924 C4925 1.399 . S
C4924 H4930 0.929 . S
C4925 C4905 1.449 . S
C4925 C4924 1.399 . S
C4925 H4931 0.930 . S
H4926 C4906 0.931 . S
H4927 C4907 0.930 . S
H4928 C4915 0.931 . S
H4929 C4916 0.929 . S
H4930 C4924 0.929 . S
H4931 C4925 0.930 . S
Mn4932 O4937 2.095 . S
Mn4932 O4947 2.162 . S
Mn4932 O4948 2.297 . S
Mn4932 O4956 2.385 . S
Mn4932 O4957 2.209 . S
Mn4932 O4958 2.094 . S
Mn4933 O4938 2.121 . S
Mn4933 N4940 2.257 . S
Mn4933 N4949 2.282 . S
Mn4933 O4957 2.215 . S
Mn4933 O4959 2.117 . S
C4934 O4956 1.234 . S
C4934 O4957 1.283 . S
C4935 O4947 1.281 . S
C4935 O4948 1.236 . S
C4936 O4958 1.240 . S
C4936 O4959 1.264 . S
O4937 Mn4932 2.095 . S
O4937 C4946 1.250 . S
O4938 Mn4933 2.121 . S
O4938 C4946 1.258 . S
C4939 N4940 1.326 . S
C4939 C4943 1.460 . S
C4939 H4945 0.929 . S
N4940 Mn4933 2.257 . S
N4940 C4939 1.326 . S
N4940 C4944 1.362 . S
C4941 C4942 1.258 . S
C4941 C4944 1.431 . S
C4941 C4961 1.449 . S
C4942 C4941 1.258 . S
C4942 C4943 1.477 . S
C4942 H4962 0.931 . S
C4943 C4939 1.460 . S
C4943 C4942 1.477 . S
C4943 H4963 0.930 . S
C4944 N4940 1.362 . S
C4944 C4941 1.431 . S
C4944 C4954 1.476 . S
H4945 C4939 0.929 . S
C4946 O4937 1.250 . S
C4946 O4938 1.258 . S
O4947 Mn4932 2.162 . S
O4947 C4935 1.281 . S
O4948 Mn4932 2.297 . S
O4948 C4935 1.236 . S
N4949 Mn4933 2.282 . S
N4949 C4950 1.328 . S
N4949 C4954 1.318 . S
C4950 N4949 1.328 . S
C4950 C4951 1.457 . S
C4950 H4955 0.929 . S
C4951 C4950 1.457 . S
C4951 C4952 1.291 . S
C4951 H4964 0.931 . S
C4952 C4951 1.291 . S
C4952 C4953 1.373 . S
C4952 H4965 0.929 . S
C4953 C4952 1.373 . S
C4953 C4954 1.396 . S
C4953 C4960 1.403 . S
C4954 C4944 1.476 . S
C4954 N4949 1.318 . S
C4954 C4953 1.396 . S
H4955 C4950 0.929 . S
O4956 Mn4932 2.385 . S
O4956 C4934 1.234 . S
O4957 Mn4932 2.209 . S
O4957 Mn4933 2.215 . S
O4957 C4934 1.283 . S
O4958 Mn4932 2.094 . S
O4958 C4936 1.240 . S
O4959 Mn4933 2.117 . S
O4959 C4936 1.264 . S
C4960 C4953 1.403 . S
C4960 C4961 1.399 . S
C4960 H4966 0.929 . S
C4961 C4941 1.449 . S
C4961 C4960 1.399 . S
C4961 H4967 0.930 . S
H4962 C4942 0.931 . S
H4963 C4943 0.930 . S
H4964 C4951 0.931 . S
H4965 C4952 0.929 . S
H4966 C4960 0.929 . S
H4967 C4961 0.930 . S
Mn4968 O4973 2.095 . S
Mn4968 O4983 2.162 . S
Mn4968 O4984 2.297 . S
Mn4968 O4992 2.385 . S
Mn4968 O4993 2.209 . S
Mn4968 O4994 2.094 . S
Mn4969 O4974 2.121 . S
Mn4969 N4976 2.257 . S
Mn4969 N4985 2.282 . S
Mn4969 O4993 2.215 . S
Mn4969 O4995 2.117 . S
C4970 O4992 1.234 . S
C4970 O4993 1.283 . S
C4971 O4983 1.281 . S
C4971 O4984 1.236 . S
C4972 O4994 1.240 . S
C4972 O4995 1.264 . S
O4973 Mn4968 2.095 . S
O4973 C4982 1.250 . S
O4974 Mn4969 2.121 . S
O4974 C4982 1.258 . S
C4975 N4976 1.326 . S
C4975 C4979 1.460 . S
C4975 H4981 0.929 . S
N4976 Mn4969 2.257 . S
N4976 C4975 1.326 . S
N4976 C4980 1.362 . S
C4977 C4978 1.258 . S
C4977 C4980 1.431 . S
C4977 C4997 1.449 . S
C4978 C4977 1.258 . S
C4978 C4979 1.477 . S
C4978 H4998 0.931 . S
C4979 C4975 1.460 . S
C4979 C4978 1.477 . S
C4979 H4999 0.930 . S
C4980 N4976 1.362 . S
C4980 C4977 1.431 . S
C4980 C4990 1.476 . S
H4981 C4975 0.929 . S
C4982 O4973 1.250 . S
C4982 O4974 1.258 . S
O4983 Mn4968 2.162 . S
O4983 C4971 1.281 . S
O4984 Mn4968 2.297 . S
O4984 C4971 1.236 . S
N4985 Mn4969 2.282 . S
N4985 C4986 1.328 . S
N4985 C4990 1.318 . S
C4986 N4985 1.328 . S
C4986 C4987 1.457 . S
C4986 H4991 0.929 . S
C4987 C4986 1.457 . S
C4987 C4988 1.291 . S
C4987 H5000 0.931 . S
C4988 C4987 1.291 . S
C4988 C4989 1.373 . S
C4988 H5001 0.929 . S
C4989 C4988 1.373 . S
C4989 C4990 1.396 . S
C4989 C4996 1.403 . S
C4990 C4980 1.476 . S
C4990 N4985 1.318 . S
C4990 C4989 1.396 . S
H4991 C4986 0.929 . S
O4992 Mn4968 2.385 . S
O4992 C4970 1.234 . S
O4993 Mn4968 2.209 . S
O4993 Mn4969 2.215 . S
O4993 C4970 1.283 . S
O4994 Mn4968 2.094 . S
O4994 C4972 1.240 . S
O4995 Mn4969 2.117 . S
O4995 C4972 1.264 . S
C4996 C4989 1.403 . S
C4996 C4997 1.399 . S
C4996 H5002 0.929 . S
C4997 C4977 1.449 . S
C4997 C4996 1.399 . S
C4997 H5003 0.930 . S
H4998 C4978 0.931 . S
H4999 C4979 0.930 . S
H5000 C4987 0.931 . S
H5001 C4988 0.929 . S
H5002 C4996 0.929 . S
H5003 C4997 0.930 . S
Mn5004 O5009 2.095 . S
Mn5004 O5019 2.162 . S
Mn5004 O5020 2.297 . S
Mn5004 O5028 2.385 . S
Mn5004 O5029 2.209 . S
Mn5004 O5030 2.094 . S
Mn5005 O5010 2.121 . S
Mn5005 N5012 2.257 . S
Mn5005 N5021 2.282 . S
Mn5005 O5029 2.215 . S
Mn5005 O5031 2.117 . S
C5006 O5028 1.234 . S
C5006 O5029 1.283 . S
C5007 O5019 1.281 . S
C5007 O5020 1.236 . S
C5008 O5030 1.240 . S
C5008 O5031 1.264 . S
O5009 Mn5004 2.095 . S
O5009 C5018 1.250 . S
O5010 Mn5005 2.121 . S
O5010 C5018 1.258 . S
C5011 N5012 1.326 . S
C5011 C5015 1.460 1_545 S
C5011 H5017 0.929 . S
N5012 Mn5005 2.257 . S
N5012 C5011 1.326 . S
N5012 C5016 1.362 . S
C5013 C5014 1.258 1_545 S
C5013 C5016 1.431 . S
C5013 C5033 1.449 . S
C5014 C5013 1.258 1_565 S
C5014 C5015 1.477 . S
C5014 H5034 0.931 . S
C5015 C5011 1.460 1_565 S
C5015 C5014 1.477 . S
C5015 H5035 0.930 . S
C5016 N5012 1.362 . S
C5016 C5013 1.431 . S
C5016 C5026 1.476 . S
H5017 C5011 0.929 . S
C5018 O5009 1.250 . S
C5018 O5010 1.258 . S
O5019 Mn5004 2.162 . S
O5019 C5007 1.281 . S
O5020 Mn5004 2.297 . S
O5020 C5007 1.236 . S
N5021 Mn5005 2.282 . S
N5021 C5022 1.328 . S
N5021 C5026 1.318 . S
C5022 N5021 1.328 . S
C5022 C5023 1.457 . S
C5022 H5027 0.929 . S
C5023 C5022 1.457 . S
C5023 C5024 1.291 . S
C5023 H5036 0.931 . S
C5024 C5023 1.291 . S
C5024 C5025 1.373 . S
C5024 H5037 0.929 . S
C5025 C5024 1.373 . S
C5025 C5026 1.396 . S
C5025 C5032 1.403 . S
C5026 C5016 1.476 . S
C5026 N5021 1.318 . S
C5026 C5025 1.396 . S
H5027 C5022 0.929 . S
O5028 Mn5004 2.385 . S
O5028 C5006 1.234 . S
O5029 Mn5004 2.209 . S
O5029 Mn5005 2.215 . S
O5029 C5006 1.283 . S
O5030 Mn5004 2.094 . S
O5030 C5008 1.240 . S
O5031 Mn5005 2.117 . S
O5031 C5008 1.264 . S
C5032 C5025 1.403 . S
C5032 C5033 1.399 . S
C5032 H5038 0.929 . S
C5033 C5013 1.449 . S
C5033 C5032 1.399 . S
C5033 H5039 0.930 . S
H5034 C5014 0.931 . S
H5035 C5015 0.930 . S
H5036 C5023 0.931 . S
H5037 C5024 0.929 . S
H5038 C5032 0.929 . S
H5039 C5033 0.930 . S
Mn5040 O5045 2.095 . S
Mn5040 O5055 2.162 . S
Mn5040 O5056 2.297 . S
Mn5040 O5064 2.385 . S
Mn5040 O5065 2.209 . S
Mn5040 O5066 2.094 . S
Mn5041 O5046 2.121 . S
Mn5041 N5048 2.257 . S
Mn5041 N5057 2.282 . S
Mn5041 O5065 2.215 . S
Mn5041 O5067 2.117 . S
C5042 O5064 1.234 . S
C5042 O5065 1.283 . S
C5043 O5055 1.281 . S
C5043 O5056 1.236 . S
C5044 O5066 1.240 . S
C5044 O5067 1.264 . S
O5045 Mn5040 2.095 . S
O5045 C5054 1.250 . S
O5046 Mn5041 2.121 . S
O5046 C5054 1.258 . S
C5047 N5048 1.326 . S
C5047 C5051 1.460 1_655 S
C5047 H5053 0.929 . S
N5048 Mn5041 2.257 . S
N5048 C5047 1.326 . S
N5048 C5052 1.362 . S
C5049 C5050 1.258 1_655 S
C5049 C5052 1.431 . S
C5049 C5069 1.449 . S
C5050 C5049 1.258 1_455 S
C5050 C5051 1.477 . S
C5050 H5070 0.931 . S
C5051 C5047 1.460 1_455 S
C5051 C5050 1.477 . S
C5051 H5071 0.930 . S
C5052 N5048 1.362 . S
C5052 C5049 1.431 . S
C5052 C5062 1.476 . S
H5053 C5047 0.929 . S
C5054 O5045 1.250 . S
C5054 O5046 1.258 . S
O5055 Mn5040 2.162 . S
O5055 C5043 1.281 . S
O5056 Mn5040 2.297 . S
O5056 C5043 1.236 . S
N5057 Mn5041 2.282 . S
N5057 C5058 1.328 . S
N5057 C5062 1.318 . S
C5058 N5057 1.328 . S
C5058 C5059 1.457 . S
C5058 H5063 0.929 . S
C5059 C5058 1.457 . S
C5059 C5060 1.291 . S
C5059 H5072 0.931 . S
C5060 C5059 1.291 . S
C5060 C5061 1.373 . S
C5060 H5073 0.929 . S
C5061 C5060 1.373 . S
C5061 C5062 1.396 . S
C5061 C5068 1.403 . S
C5062 C5052 1.476 . S
C5062 N5057 1.318 . S
C5062 C5061 1.396 . S
H5063 C5058 0.929 . S
O5064 Mn5040 2.385 . S
O5064 C5042 1.234 . S
O5065 Mn5040 2.209 . S
O5065 Mn5041 2.215 . S
O5065 C5042 1.283 . S
O5066 Mn5040 2.094 . S
O5066 C5044 1.240 . S
O5067 Mn5041 2.117 . S
O5067 C5044 1.264 . S
C5068 C5061 1.403 . S
C5068 C5069 1.399 . S
C5068 H5074 0.929 . S
C5069 C5049 1.449 . S
C5069 C5068 1.399 . S
C5069 H5075 0.930 . S
H5070 C5050 0.931 . S
H5071 C5051 0.930 . S
H5072 C5059 0.931 . S
H5073 C5060 0.929 . S
H5074 C5068 0.929 . S
H5075 C5069 0.930 . S
Mn5076 O5081 2.095 . S
Mn5076 O5091 2.162 . S
Mn5076 O5092 2.297 . S
Mn5076 O5100 2.385 . S
Mn5076 O5101 2.209 . S
Mn5076 O5102 2.094 . S
Mn5077 O5082 2.121 . S
Mn5077 N5084 2.257 . S
Mn5077 N5093 2.282 . S
Mn5077 O5101 2.215 . S
Mn5077 O5103 2.117 . S
C5078 O5100 1.234 . S
C5078 O5101 1.283 . S
C5079 O5091 1.281 . S
C5079 O5092 1.236 . S
C5080 O5102 1.240 . S
C5080 O5103 1.264 . S
O5081 Mn5076 2.095 . S
O5081 C5090 1.250 . S
O5082 Mn5077 2.121 . S
O5082 C5090 1.258 . S
C5083 N5084 1.326 . S
C5083 C5087 1.460 . S
C5083 H5089 0.929 . S
N5084 Mn5077 2.257 . S
N5084 C5083 1.326 . S
N5084 C5088 1.362 . S
C5085 C5086 1.258 . S
C5085 C5088 1.431 . S
C5085 C5105 1.449 . S
C5086 C5085 1.258 . S
C5086 C5087 1.477 . S
C5086 H5106 0.931 . S
C5087 C5083 1.460 . S
C5087 C5086 1.477 . S
C5087 H5107 0.930 . S
C5088 N5084 1.362 . S
C5088 C5085 1.431 . S
C5088 C5098 1.476 . S
H5089 C5083 0.929 . S
C5090 O5081 1.250 . S
C5090 O5082 1.258 . S
O5091 Mn5076 2.162 . S
O5091 C5079 1.281 . S
O5092 Mn5076 2.297 . S
O5092 C5079 1.236 . S
N5093 Mn5077 2.282 . S
N5093 C5094 1.328 . S
N5093 C5098 1.318 . S
C5094 N5093 1.328 . S
C5094 C5095 1.457 . S
C5094 H5099 0.929 . S
C5095 C5094 1.457 . S
C5095 C5096 1.291 . S
C5095 H5108 0.931 . S
C5096 C5095 1.291 . S
C5096 C5097 1.373 . S
C5096 H5109 0.929 . S
C5097 C5096 1.373 . S
C5097 C5098 1.396 . S
C5097 C5104 1.403 . S
C5098 C5088 1.476 . S
C5098 N5093 1.318 . S
C5098 C5097 1.396 . S
H5099 C5094 0.929 . S
O5100 Mn5076 2.385 . S
O5100 C5078 1.234 . S
O5101 Mn5076 2.209 . S
O5101 Mn5077 2.215 . S
O5101 C5078 1.283 . S
O5102 Mn5076 2.094 . S
O5102 C5080 1.240 . S
O5103 Mn5077 2.117 . S
O5103 C5080 1.264 . S
C5104 C5097 1.403 . S
C5104 C5105 1.399 . S
C5104 H5110 0.929 . S
C5105 C5085 1.449 . S
C5105 C5104 1.399 . S
C5105 H5111 0.930 . S
H5106 C5086 0.931 . S
H5107 C5087 0.930 . S
H5108 C5095 0.931 . S
H5109 C5096 0.929 . S
H5110 C5104 0.929 . S
H5111 C5105 0.930 . S
Mn5112 O5117 2.095 . S
Mn5112 O5127 2.162 . S
Mn5112 O5128 2.297 . S
Mn5112 O5136 2.385 . S
Mn5112 O5137 2.209 . S
Mn5112 O5138 2.094 . S
Mn5113 O5118 2.121 . S
Mn5113 N5120 2.257 . S
Mn5113 N5129 2.282 . S
Mn5113 O5137 2.215 . S
Mn5113 O5139 2.117 . S
C5114 O5136 1.234 . S
C5114 O5137 1.283 . S
C5115 O5127 1.281 . S
C5115 O5128 1.236 . S
C5116 O5138 1.240 . S
C5116 O5139 1.264 . S
O5117 Mn5112 2.095 . S
O5117 C5126 1.250 . S
O5118 Mn5113 2.121 . S
O5118 C5126 1.258 . S
C5119 N5120 1.326 . S
C5119 C5123 1.460 . S
C5119 H5125 0.929 . S
N5120 Mn5113 2.257 . S
N5120 C5119 1.326 . S
N5120 C5124 1.362 . S
C5121 C5122 1.258 . S
C5121 C5124 1.431 . S
C5121 C5141 1.449 . S
C5122 C5121 1.258 . S
C5122 C5123 1.477 . S
C5122 H5142 0.931 . S
C5123 C5119 1.460 . S
C5123 C5122 1.477 . S
C5123 H5143 0.930 . S
C5124 N5120 1.362 . S
C5124 C5121 1.431 . S
C5124 C5134 1.476 . S
H5125 C5119 0.929 . S
C5126 O5117 1.250 . S
C5126 O5118 1.258 . S
O5127 Mn5112 2.162 . S
O5127 C5115 1.281 . S
O5128 Mn5112 2.297 . S
O5128 C5115 1.236 . S
N5129 Mn5113 2.282 . S
N5129 C5130 1.328 . S
N5129 C5134 1.318 . S
C5130 N5129 1.328 . S
C5130 C5131 1.457 . S
C5130 H5135 0.929 . S
C5131 C5130 1.457 . S
C5131 C5132 1.291 . S
C5131 H5144 0.931 . S
C5132 C5131 1.291 . S
C5132 C5133 1.373 . S
C5132 H5145 0.929 . S
C5133 C5132 1.373 . S
C5133 C5134 1.396 . S
C5133 C5140 1.403 . S
C5134 C5124 1.476 . S
C5134 N5129 1.318 . S
C5134 C5133 1.396 . S
H5135 C5130 0.929 . S
O5136 Mn5112 2.385 . S
O5136 C5114 1.234 . S
O5137 Mn5112 2.209 . S
O5137 Mn5113 2.215 . S
O5137 C5114 1.283 . S
O5138 Mn5112 2.094 . S
O5138 C5116 1.240 . S
O5139 Mn5113 2.117 . S
O5139 C5116 1.264 . S
C5140 C5133 1.403 . S
C5140 C5141 1.399 . S
C5140 H5146 0.929 . S
C5141 C5121 1.449 . S
C5141 C5140 1.399 . S
C5141 H5147 0.930 . S
H5142 C5122 0.931 . S
H5143 C5123 0.930 . S
H5144 C5131 0.931 . S
H5145 C5132 0.929 . S
H5146 C5140 0.929 . S
H5147 C5141 0.930 . S
Mn5148 O5153 2.095 . S
Mn5148 O5163 2.162 . S
Mn5148 O5164 2.297 . S
Mn5148 O5172 2.385 . S
Mn5148 O5173 2.209 . S
Mn5148 O5174 2.094 . S
Mn5149 O5154 2.121 . S
Mn5149 N5156 2.257 . S
Mn5149 N5165 2.282 . S
Mn5149 O5173 2.215 . S
Mn5149 O5175 2.117 . S
C5150 O5172 1.234 . S
C5150 O5173 1.283 . S
C5151 O5163 1.281 . S
C5151 O5164 1.236 . S
C5152 O5174 1.240 . S
C5152 O5175 1.264 . S
O5153 Mn5148 2.095 . S
O5153 C5162 1.250 . S
O5154 Mn5149 2.121 . S
O5154 C5162 1.258 . S
C5155 N5156 1.326 . S
C5155 C5159 1.460 . S
C5155 H5161 0.929 . S
N5156 Mn5149 2.257 . S
N5156 C5155 1.326 . S
N5156 C5160 1.362 . S
C5157 C5158 1.258 . S
C5157 C5160 1.431 . S
C5157 C5177 1.449 . S
C5158 C5157 1.258 . S
C5158 C5159 1.477 . S
C5158 H5178 0.931 . S
C5159 C5155 1.460 . S
C5159 C5158 1.477 . S
C5159 H5179 0.930 . S
C5160 N5156 1.362 . S
C5160 C5157 1.431 . S
C5160 C5170 1.476 . S
H5161 C5155 0.929 . S
C5162 O5153 1.250 . S
C5162 O5154 1.258 . S
O5163 Mn5148 2.162 . S
O5163 C5151 1.281 . S
O5164 Mn5148 2.297 . S
O5164 C5151 1.236 . S
N5165 Mn5149 2.282 . S
N5165 C5166 1.328 . S
N5165 C5170 1.318 . S
C5166 N5165 1.328 . S
C5166 C5167 1.457 . S
C5166 H5171 0.929 . S
C5167 C5166 1.457 . S
C5167 C5168 1.291 . S
C5167 H5180 0.931 . S
C5168 C5167 1.291 . S
C5168 C5169 1.373 . S
C5168 H5181 0.929 . S
C5169 C5168 1.373 . S
C5169 C5170 1.396 . S
C5169 C5176 1.403 . S
C5170 C5160 1.476 . S
C5170 N5165 1.318 . S
C5170 C5169 1.396 . S
H5171 C5166 0.929 . S
O5172 Mn5148 2.385 . S
O5172 C5150 1.234 . S
O5173 Mn5148 2.209 . S
O5173 Mn5149 2.215 . S
O5173 C5150 1.283 . S
O5174 Mn5148 2.094 . S
O5174 C5152 1.240 . S
O5175 Mn5149 2.117 . S
O5175 C5152 1.264 . S
C5176 C5169 1.403 . S
C5176 C5177 1.399 . S
C5176 H5182 0.929 . S
C5177 C5157 1.449 . S
C5177 C5176 1.399 . S
C5177 H5183 0.930 . S
H5178 C5158 0.931 . S
H5179 C5159 0.930 . S
H5180 C5167 0.931 . S
H5181 C5168 0.929 . S
H5182 C5176 0.929 . S
H5183 C5177 0.930 . S
Mn5184 O5189 2.095 . S
Mn5184 O5199 2.162 . S
Mn5184 O5200 2.297 . S
Mn5184 O5208 2.385 . S
Mn5184 O5209 2.209 . S
Mn5184 O5210 2.094 . S
Mn5185 O5190 2.121 . S
Mn5185 N5192 2.257 . S
Mn5185 N5201 2.282 . S
Mn5185 O5209 2.215 . S
Mn5185 O5211 2.117 . S
C5186 O5208 1.234 . S
C5186 O5209 1.283 . S
C5187 O5199 1.281 . S
C5187 O5200 1.236 . S
C5188 O5210 1.240 . S
C5188 O5211 1.264 . S
O5189 Mn5184 2.095 . S
O5189 C5198 1.250 . S
O5190 Mn5185 2.121 . S
O5190 C5198 1.258 . S
C5191 N5192 1.326 . S
C5191 C5195 1.460 . S
C5191 H5197 0.929 . S
N5192 Mn5185 2.257 . S
N5192 C5191 1.326 . S
N5192 C5196 1.362 . S
C5193 C5194 1.258 . S
C5193 C5196 1.431 . S
C5193 C5213 1.449 . S
C5194 C5193 1.258 . S
C5194 C5195 1.477 . S
C5194 H5214 0.931 . S
C5195 C5191 1.460 . S
C5195 C5194 1.477 . S
C5195 H5215 0.930 . S
C5196 N5192 1.362 . S
C5196 C5193 1.431 . S
C5196 C5206 1.476 . S
H5197 C5191 0.929 . S
C5198 O5189 1.250 . S
C5198 O5190 1.258 . S
O5199 Mn5184 2.162 . S
O5199 C5187 1.281 . S
O5200 Mn5184 2.297 . S
O5200 C5187 1.236 . S
N5201 Mn5185 2.282 . S
N5201 C5202 1.328 . S
N5201 C5206 1.318 . S
C5202 N5201 1.328 . S
C5202 C5203 1.457 . S
C5202 H5207 0.929 . S
C5203 C5202 1.457 . S
C5203 C5204 1.291 . S
C5203 H5216 0.931 . S
C5204 C5203 1.291 . S
C5204 C5205 1.373 . S
C5204 H5217 0.929 . S
C5205 C5204 1.373 . S
C5205 C5206 1.396 . S
C5205 C5212 1.403 . S
C5206 C5196 1.476 . S
C5206 N5201 1.318 . S
C5206 C5205 1.396 . S
H5207 C5202 0.929 . S
O5208 Mn5184 2.385 . S
O5208 C5186 1.234 . S
O5209 Mn5184 2.209 . S
O5209 Mn5185 2.215 . S
O5209 C5186 1.283 . S
O5210 Mn5184 2.094 . S
O5210 C5188 1.240 . S
O5211 Mn5185 2.117 . S
O5211 C5188 1.264 . S
C5212 C5205 1.403 . S
C5212 C5213 1.399 . S
C5212 H5218 0.929 . S
C5213 C5193 1.449 . S
C5213 C5212 1.399 . S
C5213 H5219 0.930 . S
H5214 C5194 0.931 . S
H5215 C5195 0.930 . S
H5216 C5203 0.931 . S
H5217 C5204 0.929 . S
H5218 C5212 0.929 . S
H5219 C5213 0.930 . S
Mn5220 O5225 2.095 . S
Mn5220 O5235 2.162 . S
Mn5220 O5236 2.297 . S
Mn5220 O5244 2.385 . S
Mn5220 O5245 2.209 . S
Mn5220 O5246 2.094 . S
Mn5221 O5226 2.121 . S
Mn5221 N5228 2.257 . S
Mn5221 N5237 2.282 . S
Mn5221 O5245 2.215 . S
Mn5221 O5247 2.117 . S
C5222 O5244 1.234 . S
C5222 O5245 1.283 . S
C5223 O5235 1.281 . S
C5223 O5236 1.236 . S
C5224 O5246 1.240 . S
C5224 O5247 1.264 . S
O5225 Mn5220 2.095 . S
O5225 C5234 1.250 . S
O5226 Mn5221 2.121 . S
O5226 C5234 1.258 . S
C5227 N5228 1.326 . S
C5227 C5231 1.460 . S
C5227 H5233 0.929 . S
N5228 Mn5221 2.257 . S
N5228 C5227 1.326 . S
N5228 C5232 1.362 . S
C5229 C5230 1.258 . S
C5229 C5232 1.431 . S
C5229 C5249 1.449 . S
C5230 C5229 1.258 . S
C5230 C5231 1.477 . S
C5230 H5250 0.931 . S
C5231 C5227 1.460 . S
C5231 C5230 1.477 . S
C5231 H5251 0.930 . S
C5232 N5228 1.362 . S
C5232 C5229 1.431 . S
C5232 C5242 1.476 . S
H5233 C5227 0.929 . S
C5234 O5225 1.250 . S
C5234 O5226 1.258 . S
O5235 Mn5220 2.162 . S
O5235 C5223 1.281 . S
O5236 Mn5220 2.297 . S
O5236 C5223 1.236 . S
N5237 Mn5221 2.282 . S
N5237 C5238 1.328 . S
N5237 C5242 1.318 . S
C5238 N5237 1.328 . S
C5238 C5239 1.457 . S
C5238 H5243 0.929 . S
C5239 C5238 1.457 . S
C5239 C5240 1.291 . S
C5239 H5252 0.931 . S
C5240 C5239 1.291 . S
C5240 C5241 1.373 . S
C5240 H5253 0.929 . S
C5241 C5240 1.373 . S
C5241 C5242 1.396 . S
C5241 C5248 1.403 . S
C5242 C5232 1.476 . S
C5242 N5237 1.318 . S
C5242 C5241 1.396 . S
H5243 C5238 0.929 . S
O5244 Mn5220 2.385 . S
O5244 C5222 1.234 . S
O5245 Mn5220 2.209 . S
O5245 Mn5221 2.215 . S
O5245 C5222 1.283 . S
O5246 Mn5220 2.094 . S
O5246 C5224 1.240 . S
O5247 Mn5221 2.117 . S
O5247 C5224 1.264 . S
C5248 C5241 1.403 . S
C5248 C5249 1.399 . S
C5248 H5254 0.929 . S
C5249 C5229 1.449 . S
C5249 C5248 1.399 . S
C5249 H5255 0.930 . S
H5250 C5230 0.931 . S
H5251 C5231 0.930 . S
H5252 C5239 0.931 . S
H5253 C5240 0.929 . S
H5254 C5248 0.929 . S
H5255 C5249 0.930 . S
Mn5256 O5261 2.095 . S
Mn5256 O5271 2.162 . S
Mn5256 O5272 2.297 . S
Mn5256 O5280 2.385 . S
Mn5256 O5281 2.209 . S
Mn5256 O5282 2.094 . S
Mn5257 O5262 2.121 . S
Mn5257 N5264 2.257 . S
Mn5257 N5273 2.282 . S
Mn5257 O5281 2.215 . S
Mn5257 O5283 2.117 . S
C5258 O5280 1.234 . S
C5258 O5281 1.283 . S
C5259 O5271 1.281 . S
C5259 O5272 1.236 . S
C5260 O5282 1.240 . S
C5260 O5283 1.264 . S
O5261 Mn5256 2.095 . S
O5261 C5270 1.250 . S
O5262 Mn5257 2.121 . S
O5262 C5270 1.258 . S
C5263 N5264 1.326 . S
C5263 C5267 1.460 1_556 S
C5263 H5269 0.929 . S
N5264 Mn5257 2.257 . S
N5264 C5263 1.326 . S
N5264 C5268 1.362 . S
C5265 C5266 1.258 1_556 S
C5265 C5268 1.431 . S
C5265 C5285 1.449 . S
C5266 C5265 1.258 1_554 S
C5266 C5267 1.477 . S
C5266 H5286 0.931 . S
C5267 C5263 1.460 1_554 S
C5267 C5266 1.477 . S
C5267 H5287 0.930 . S
C5268 N5264 1.362 . S
C5268 C5265 1.431 . S
C5268 C5278 1.476 . S
H5269 C5263 0.929 . S
C5270 O5261 1.250 . S
C5270 O5262 1.258 . S
O5271 Mn5256 2.162 . S
O5271 C5259 1.281 . S
O5272 Mn5256 2.297 . S
O5272 C5259 1.236 . S
N5273 Mn5257 2.282 . S
N5273 C5274 1.328 . S
N5273 C5278 1.318 . S
C5274 N5273 1.328 . S
C5274 C5275 1.457 . S
C5274 H5279 0.929 . S
C5275 C5274 1.457 . S
C5275 C5276 1.291 . S
C5275 H5288 0.931 . S
C5276 C5275 1.291 . S
C5276 C5277 1.373 . S
C5276 H5289 0.929 . S
C5277 C5276 1.373 . S
C5277 C5278 1.396 . S
C5277 C5284 1.403 . S
C5278 C5268 1.476 . S
C5278 N5273 1.318 . S
C5278 C5277 1.396 . S
H5279 C5274 0.929 . S
O5280 Mn5256 2.385 . S
O5280 C5258 1.234 . S
O5281 Mn5256 2.209 . S
O5281 Mn5257 2.215 . S
O5281 C5258 1.283 . S
O5282 Mn5256 2.094 . S
O5282 C5260 1.240 . S
O5283 Mn5257 2.117 . S
O5283 C5260 1.264 . S
C5284 C5277 1.403 . S
C5284 C5285 1.399 . S
C5284 H5290 0.929 . S
C5285 C5265 1.449 . S
C5285 C5284 1.399 . S
C5285 H5291 0.930 . S
H5286 C5266 0.931 . S
H5287 C5267 0.930 . S
H5288 C5275 0.931 . S
H5289 C5276 0.929 . S
H5290 C5284 0.929 . S
H5291 C5285 0.930 . S
Mn5292 O5297 2.095 . S
Mn5292 O5307 2.162 . S
Mn5292 O5308 2.297 . S
Mn5292 O5316 2.385 . S
Mn5292 O5317 2.209 . S
Mn5292 O5318 2.094 . S
Mn5293 O5298 2.121 . S
Mn5293 N5300 2.257 . S
Mn5293 N5309 2.282 . S
Mn5293 O5317 2.215 . S
Mn5293 O5319 2.117 . S
C5294 O5316 1.234 . S
C5294 O5317 1.283 . S
C5295 O5307 1.281 . S
C5295 O5308 1.236 . S
C5296 O5318 1.240 . S
C5296 O5319 1.264 . S
O5297 Mn5292 2.095 . S
O5297 C5306 1.250 . S
O5298 Mn5293 2.121 . S
O5298 C5306 1.258 . S
C5299 N5300 1.326 . S
C5299 C5303 1.460 . S
C5299 H5305 0.929 . S
N5300 Mn5293 2.257 . S
N5300 C5299 1.326 . S
N5300 C5304 1.362 . S
C5301 C5302 1.258 . S
C5301 C5304 1.431 . S
C5301 C5321 1.449 . S
C5302 C5301 1.258 . S
C5302 C5303 1.477 . S
C5302 H5322 0.931 . S
C5303 C5299 1.460 . S
C5303 C5302 1.477 . S
C5303 H5323 0.930 . S
C5304 N5300 1.362 . S
C5304 C5301 1.431 . S
C5304 C5314 1.476 . S
H5305 C5299 0.929 . S
C5306 O5297 1.250 . S
C5306 O5298 1.258 . S
O5307 Mn5292 2.162 . S
O5307 C5295 1.281 . S
O5308 Mn5292 2.297 . S
O5308 C5295 1.236 . S
N5309 Mn5293 2.282 . S
N5309 C5310 1.328 . S
N5309 C5314 1.318 . S
C5310 N5309 1.328 . S
C5310 C5311 1.457 . S
C5310 H5315 0.929 . S
C5311 C5310 1.457 . S
C5311 C5312 1.291 . S
C5311 H5324 0.931 . S
C5312 C5311 1.291 . S
C5312 C5313 1.373 . S
C5312 H5325 0.929 . S
C5313 C5312 1.373 . S
C5313 C5314 1.396 . S
C5313 C5320 1.403 . S
C5314 C5304 1.476 . S
C5314 N5309 1.318 . S
C5314 C5313 1.396 . S
H5315 C5310 0.929 . S
O5316 Mn5292 2.385 . S
O5316 C5294 1.234 . S
O5317 Mn5292 2.209 . S
O5317 Mn5293 2.215 . S
O5317 C5294 1.283 . S
O5318 Mn5292 2.094 . S
O5318 C5296 1.240 . S
O5319 Mn5293 2.117 . S
O5319 C5296 1.264 . S
C5320 C5313 1.403 . S
C5320 C5321 1.399 . S
C5320 H5326 0.929 . S
C5321 C5301 1.449 . S
C5321 C5320 1.399 . S
C5321 H5327 0.930 . S
H5322 C5302 0.931 . S
H5323 C5303 0.930 . S
H5324 C5311 0.931 . S
H5325 C5312 0.929 . S
H5326 C5320 0.929 . S
H5327 C5321 0.930 . S
Mn5328 O5333 2.095 . S
Mn5328 O5343 2.162 . S
Mn5328 O5344 2.297 . S
Mn5328 O5352 2.385 . S
Mn5328 O5353 2.209 . S
Mn5328 O5354 2.094 . S
Mn5329 O5334 2.121 . S
Mn5329 N5336 2.257 . S
Mn5329 N5345 2.282 . S
Mn5329 O5353 2.215 . S
Mn5329 O5355 2.117 . S
C5330 O5352 1.234 . S
C5330 O5353 1.283 . S
C5331 O5343 1.281 . S
C5331 O5344 1.236 . S
C5332 O5354 1.240 . S
C5332 O5355 1.264 . S
O5333 Mn5328 2.095 . S
O5333 C5342 1.250 . S
O5334 Mn5329 2.121 . S
O5334 C5342 1.258 . S
C5335 N5336 1.326 . S
C5335 C5339 1.460 . S
C5335 H5341 0.929 . S
N5336 Mn5329 2.257 . S
N5336 C5335 1.326 . S
N5336 C5340 1.362 . S
C5337 C5338 1.258 . S
C5337 C5340 1.431 . S
C5337 C5357 1.449 . S
C5338 C5337 1.258 . S
C5338 C5339 1.477 . S
C5338 H5358 0.931 . S
C5339 C5335 1.460 . S
C5339 C5338 1.477 . S
C5339 H5359 0.930 . S
C5340 N5336 1.362 . S
C5340 C5337 1.431 . S
C5340 C5350 1.476 . S
H5341 C5335 0.929 . S
C5342 O5333 1.250 . S
C5342 O5334 1.258 . S
O5343 Mn5328 2.162 . S
O5343 C5331 1.281 . S
O5344 Mn5328 2.297 . S
O5344 C5331 1.236 . S
N5345 Mn5329 2.282 . S
N5345 C5346 1.328 . S
N5345 C5350 1.318 . S
C5346 N5345 1.328 . S
C5346 C5347 1.457 . S
C5346 H5351 0.929 . S
C5347 C5346 1.457 . S
C5347 C5348 1.291 . S
C5347 H5360 0.931 . S
C5348 C5347 1.291 . S
C5348 C5349 1.373 . S
C5348 H5361 0.929 . S
C5349 C5348 1.373 . S
C5349 C5350 1.396 . S
C5349 C5356 1.403 . S
C5350 C5340 1.476 . S
C5350 N5345 1.318 . S
C5350 C5349 1.396 . S
H5351 C5346 0.929 . S
O5352 Mn5328 2.385 . S
O5352 C5330 1.234 . S
O5353 Mn5328 2.209 . S
O5353 Mn5329 2.215 . S
O5353 C5330 1.283 . S
O5354 Mn5328 2.094 . S
O5354 C5332 1.240 . S
O5355 Mn5329 2.117 . S
O5355 C5332 1.264 . S
C5356 C5349 1.403 . S
C5356 C5357 1.399 . S
C5356 H5362 0.929 . S
C5357 C5337 1.449 . S
C5357 C5356 1.399 . S
C5357 H5363 0.930 . S
H5358 C5338 0.931 . S
H5359 C5339 0.930 . S
H5360 C5347 0.931 . S
H5361 C5348 0.929 . S
H5362 C5356 0.929 . S
H5363 C5357 0.930 . S
Mn5364 O5369 2.095 . S
Mn5364 O5379 2.162 . S
Mn5364 O5380 2.297 . S
Mn5364 O5388 2.385 . S
Mn5364 O5389 2.209 . S
Mn5364 O5390 2.094 . S
Mn5365 O5370 2.121 . S
Mn5365 N5372 2.257 . S
Mn5365 N5381 2.282 . S
Mn5365 O5389 2.215 . S
Mn5365 O5391 2.117 . S
C5366 O5388 1.234 . S
C5366 O5389 1.283 . S
C5367 O5379 1.281 . S
C5367 O5380 1.236 . S
C5368 O5390 1.240 . S
C5368 O5391 1.264 . S
O5369 Mn5364 2.095 . S
O5369 C5378 1.250 . S
O5370 Mn5365 2.121 . S
O5370 C5378 1.258 . S
C5371 N5372 1.326 . S
C5371 C5375 1.460 1_554 S
C5371 H5377 0.929 . S
N5372 Mn5365 2.257 . S
N5372 C5371 1.326 . S
N5372 C5376 1.362 . S
C5373 C5374 1.258 1_554 S
C5373 C5376 1.431 . S
C5373 C5393 1.449 . S
C5374 C5373 1.258 1_556 S
C5374 C5375 1.477 . S
C5374 H5394 0.931 . S
C5375 C5371 1.460 1_556 S
C5375 C5374 1.477 . S
C5375 H5395 0.930 . S
C5376 N5372 1.362 . S
C5376 C5373 1.431 . S
C5376 C5386 1.476 . S
H5377 C5371 0.929 . S
C5378 O5369 1.250 . S
C5378 O5370 1.258 . S
O5379 Mn5364 2.162 . S
O5379 C5367 1.281 . S
O5380 Mn5364 2.297 . S
O5380 C5367 1.236 . S
N5381 Mn5365 2.282 . S
N5381 C5382 1.328 . S
N5381 C5386 1.318 . S
C5382 N5381 1.328 . S
C5382 C5383 1.457 . S
C5382 H5387 0.929 . S
C5383 C5382 1.457 . S
C5383 C5384 1.291 . S
C5383 H5396 0.931 . S
C5384 C5383 1.291 . S
C5384 C5385 1.373 . S
C5384 H5397 0.929 . S
C5385 C5384 1.373 . S
C5385 C5386 1.396 . S
C5385 C5392 1.403 . S
C5386 C5376 1.476 . S
C5386 N5381 1.318 . S
C5386 C5385 1.396 . S
H5387 C5382 0.929 . S
O5388 Mn5364 2.385 . S
O5388 C5366 1.234 . S
O5389 Mn5364 2.209 . S
O5389 Mn5365 2.215 . S
O5389 C5366 1.283 . S
O5390 Mn5364 2.094 . S
O5390 C5368 1.240 . S
O5391 Mn5365 2.117 . S
O5391 C5368 1.264 . S
C5392 C5385 1.403 . S
C5392 C5393 1.399 . S
C5392 H5398 0.929 . S
C5393 C5373 1.449 . S
C5393 C5392 1.399 . S
C5393 H5399 0.930 . S
H5394 C5374 0.931 . S
H5395 C5375 0.930 . S
H5396 C5383 0.931 . S
H5397 C5384 0.929 . S
H5398 C5392 0.929 . S
H5399 C5393 0.930 . S
Mn5400 O5405 2.095 . S
Mn5400 O5415 2.162 . S
Mn5400 O5416 2.297 . S
Mn5400 O5424 2.385 . S
Mn5400 O5425 2.209 . S
Mn5400 O5426 2.094 . S
Mn5401 O5406 2.121 . S
Mn5401 N5408 2.257 . S
Mn5401 N5417 2.282 . S
Mn5401 O5425 2.215 . S
Mn5401 O5427 2.117 . S
C5402 O5424 1.234 . S
C5402 O5425 1.283 . S
C5403 O5415 1.281 . S
C5403 O5416 1.236 . S
C5404 O5426 1.240 . S
C5404 O5427 1.264 . S
O5405 Mn5400 2.095 . S
O5405 C5414 1.250 . S
O5406 Mn5401 2.121 . S
O5406 C5414 1.258 . S
C5407 N5408 1.326 . S
C5407 C5411 1.460 . S
C5407 H5413 0.929 . S
N5408 Mn5401 2.257 . S
N5408 C5407 1.326 . S
N5408 C5412 1.362 . S
C5409 C5410 1.258 . S
C5409 C5412 1.431 . S
C5409 C5429 1.449 . S
C5410 C5409 1.258 . S
C5410 C5411 1.477 . S
C5410 H5430 0.931 . S
C5411 C5407 1.460 . S
C5411 C5410 1.477 . S
C5411 H5431 0.930 . S
C5412 N5408 1.362 . S
C5412 C5409 1.431 . S
C5412 C5422 1.476 . S
H5413 C5407 0.929 . S
C5414 O5405 1.250 . S
C5414 O5406 1.258 . S
O5415 Mn5400 2.162 . S
O5415 C5403 1.281 . S
O5416 Mn5400 2.297 . S
O5416 C5403 1.236 . S
N5417 Mn5401 2.282 . S
N5417 C5418 1.328 . S
N5417 C5422 1.318 . S
C5418 N5417 1.328 . S
C5418 C5419 1.457 . S
C5418 H5423 0.929 . S
C5419 C5418 1.457 . S
C5419 C5420 1.291 . S
C5419 H5432 0.931 . S
C5420 C5419 1.291 . S
C5420 C5421 1.373 . S
C5420 H5433 0.929 . S
C5421 C5420 1.373 . S
C5421 C5422 1.396 . S
C5421 C5428 1.403 . S
C5422 C5412 1.476 . S
C5422 N5417 1.318 . S
C5422 C5421 1.396 . S
H5423 C5418 0.929 . S
O5424 Mn5400 2.385 . S
O5424 C5402 1.234 . S
O5425 Mn5400 2.209 . S
O5425 Mn5401 2.215 . S
O5425 C5402 1.283 . S
O5426 Mn5400 2.094 . S
O5426 C5404 1.240 . S
O5427 Mn5401 2.117 . S
O5427 C5404 1.264 . S
C5428 C5421 1.403 . S
C5428 C5429 1.399 . S
C5428 H5434 0.929 . S
C5429 C5409 1.449 . S
C5429 C5428 1.399 . S
C5429 H5435 0.930 . S
H5430 C5410 0.931 . S
H5431 C5411 0.930 . S
H5432 C5419 0.931 . S
H5433 C5420 0.929 . S
H5434 C5428 0.929 . S
H5435 C5429 0.930 . S
Mn5436 O5441 2.095 . S
Mn5436 O5451 2.162 . S
Mn5436 O5452 2.297 . S
Mn5436 O5460 2.385 . S
Mn5436 O5461 2.209 . S
Mn5436 O5462 2.094 . S
Mn5437 O5442 2.121 . S
Mn5437 N5444 2.257 . S
Mn5437 N5453 2.282 . S
Mn5437 O5461 2.215 . S
Mn5437 O5463 2.117 . S
C5438 O5460 1.234 . S
C5438 O5461 1.283 . S
C5439 O5451 1.281 . S
C5439 O5452 1.236 . S
C5440 O5462 1.240 . S
C5440 O5463 1.264 . S
O5441 Mn5436 2.095 . S
O5441 C5450 1.250 . S
O5442 Mn5437 2.121 . S
O5442 C5450 1.258 . S
C5443 N5444 1.326 . S
C5443 C5447 1.460 . S
C5443 H5449 0.929 . S
N5444 Mn5437 2.257 . S
N5444 C5443 1.326 . S
N5444 C5448 1.362 . S
C5445 C5446 1.258 . S
C5445 C5448 1.431 . S
C5445 C5465 1.449 . S
C5446 C5445 1.258 . S
C5446 C5447 1.477 . S
C5446 H5466 0.931 . S
C5447 C5443 1.460 . S
C5447 C5446 1.477 . S
C5447 H5467 0.930 . S
C5448 N5444 1.362 . S
C5448 C5445 1.431 . S
C5448 C5458 1.476 . S
H5449 C5443 0.929 . S
C5450 O5441 1.250 . S
C5450 O5442 1.258 . S
O5451 Mn5436 2.162 . S
O5451 C5439 1.281 . S
O5452 Mn5436 2.297 . S
O5452 C5439 1.236 . S
N5453 Mn5437 2.282 . S
N5453 C5454 1.328 . S
N5453 C5458 1.318 . S
C5454 N5453 1.328 . S
C5454 C5455 1.457 . S
C5454 H5459 0.929 . S
C5455 C5454 1.457 . S
C5455 C5456 1.291 . S
C5455 H5468 0.931 . S
C5456 C5455 1.291 . S
C5456 C5457 1.373 . S
C5456 H5469 0.929 . S
C5457 C5456 1.373 . S
C5457 C5458 1.396 . S
C5457 C5464 1.403 . S
C5458 C5448 1.476 . S
C5458 N5453 1.318 . S
C5458 C5457 1.396 . S
H5459 C5454 0.929 . S
O5460 Mn5436 2.385 . S
O5460 C5438 1.234 . S
O5461 Mn5436 2.209 . S
O5461 Mn5437 2.215 . S
O5461 C5438 1.283 . S
O5462 Mn5436 2.094 . S
O5462 C5440 1.240 . S
O5463 Mn5437 2.117 . S
O5463 C5440 1.264 . S
C5464 C5457 1.403 . S
C5464 C5465 1.399 . S
C5464 H5470 0.929 . S
C5465 C5445 1.449 . S
C5465 C5464 1.399 . S
C5465 H5471 0.930 . S
H5466 C5446 0.931 . S
H5467 C5447 0.930 . S
H5468 C5455 0.931 . S
H5469 C5456 0.929 . S
H5470 C5464 0.929 . S
H5471 C5465 0.930 . S
Mn5472 O5477 2.095 . S
Mn5472 O5487 2.162 . S
Mn5472 O5488 2.297 . S
Mn5472 O5496 2.385 . S
Mn5472 O5497 2.209 . S
Mn5472 O5498 2.094 . S
Mn5473 O5478 2.121 . S
Mn5473 N5480 2.257 . S
Mn5473 N5489 2.282 . S
Mn5473 O5497 2.215 . S
Mn5473 O5499 2.117 . S
C5474 O5496 1.234 . S
C5474 O5497 1.283 . S
C5475 O5487 1.281 . S
C5475 O5488 1.236 . S
C5476 O5498 1.240 . S
C5476 O5499 1.264 . S
O5477 Mn5472 2.095 . S
O5477 C5486 1.250 . S
O5478 Mn5473 2.121 . S
O5478 C5486 1.258 . S
C5479 N5480 1.326 . S
C5479 C5483 1.460 1_655 S
C5479 H5485 0.929 . S
N5480 Mn5473 2.257 . S
N5480 C5479 1.326 . S
N5480 C5484 1.362 . S
C5481 C5482 1.258 1_655 S
C5481 C5484 1.431 . S
C5481 C5501 1.449 . S
C5482 C5481 1.258 1_455 S
C5482 C5483 1.477 . S
C5482 H5502 0.931 . S
C5483 C5479 1.460 1_455 S
C5483 C5482 1.477 . S
C5483 H5503 0.930 . S
C5484 N5480 1.362 . S
C5484 C5481 1.431 . S
C5484 C5494 1.476 . S
H5485 C5479 0.929 . S
C5486 O5477 1.250 . S
C5486 O5478 1.258 . S
O5487 Mn5472 2.162 . S
O5487 C5475 1.281 . S
O5488 Mn5472 2.297 . S
O5488 C5475 1.236 . S
N5489 Mn5473 2.282 . S
N5489 C5490 1.328 . S
N5489 C5494 1.318 . S
C5490 N5489 1.328 . S
C5490 C5491 1.457 . S
C5490 H5495 0.929 . S
C5491 C5490 1.457 . S
C5491 C5492 1.291 . S
C5491 H5504 0.931 . S
C5492 C5491 1.291 . S
C5492 C5493 1.373 . S
C5492 H5505 0.929 . S
C5493 C5492 1.373 . S
C5493 C5494 1.396 . S
C5493 C5500 1.403 . S
C5494 C5484 1.476 . S
C5494 N5489 1.318 . S
C5494 C5493 1.396 . S
H5495 C5490 0.929 . S
O5496 Mn5472 2.385 . S
O5496 C5474 1.234 . S
O5497 Mn5472 2.209 . S
O5497 Mn5473 2.215 . S
O5497 C5474 1.283 . S
O5498 Mn5472 2.094 . S
O5498 C5476 1.240 . S
O5499 Mn5473 2.117 . S
O5499 C5476 1.264 . S
C5500 C5493 1.403 . S
C5500 C5501 1.399 . S
C5500 H5506 0.929 . S
C5501 C5481 1.449 . S
C5501 C5500 1.399 . S
C5501 H5507 0.930 . S
H5502 C5482 0.931 . S
H5503 C5483 0.930 . S
H5504 C5491 0.931 . S
H5505 C5492 0.929 . S
H5506 C5500 0.929 . S
H5507 C5501 0.930 . S
Mn5508 O5513 2.095 . S
Mn5508 O5523 2.162 . S
Mn5508 O5524 2.297 . S
Mn5508 O5532 2.385 . S
Mn5508 O5533 2.209 . S
Mn5508 O5534 2.094 . S
Mn5509 O5514 2.121 . S
Mn5509 N5516 2.257 . S
Mn5509 N5525 2.282 . S
Mn5509 O5533 2.215 . S
Mn5509 O5535 2.117 . S
C5510 O5532 1.234 . S
C5510 O5533 1.283 . S
C5511 O5523 1.281 . S
C5511 O5524 1.236 . S
C5512 O5534 1.240 . S
C5512 O5535 1.264 . S
O5513 Mn5508 2.095 . S
O5513 C5522 1.250 . S
O5514 Mn5509 2.121 . S
O5514 C5522 1.258 . S
C5515 N5516 1.326 . S
C5515 C5519 1.460 . S
C5515 H5521 0.929 . S
N5516 Mn5509 2.257 . S
N5516 C5515 1.326 . S
N5516 C5520 1.362 . S
C5517 C5518 1.258 . S
C5517 C5520 1.431 . S
C5517 C5537 1.449 . S
C5518 C5517 1.258 . S
C5518 C5519 1.477 . S
C5518 H5538 0.931 . S
C5519 C5515 1.460 . S
C5519 C5518 1.477 . S
C5519 H5539 0.930 . S
C5520 N5516 1.362 . S
C5520 C5517 1.431 . S
C5520 C5530 1.476 . S
H5521 C5515 0.929 . S
C5522 O5513 1.250 . S
C5522 O5514 1.258 . S
O5523 Mn5508 2.162 . S
O5523 C5511 1.281 . S
O5524 Mn5508 2.297 . S
O5524 C5511 1.236 . S
N5525 Mn5509 2.282 . S
N5525 C5526 1.328 . S
N5525 C5530 1.318 . S
C5526 N5525 1.328 . S
C5526 C5527 1.457 . S
C5526 H5531 0.929 . S
C5527 C5526 1.457 . S
C5527 C5528 1.291 . S
C5527 H5540 0.931 . S
C5528 C5527 1.291 . S
C5528 C5529 1.373 . S
C5528 H5541 0.929 . S
C5529 C5528 1.373 . S
C5529 C5530 1.396 . S
C5529 C5536 1.403 . S
C5530 C5520 1.476 . S
C5530 N5525 1.318 . S
C5530 C5529 1.396 . S
H5531 C5526 0.929 . S
O5532 Mn5508 2.385 . S
O5532 C5510 1.234 . S
O5533 Mn5508 2.209 . S
O5533 Mn5509 2.215 . S
O5533 C5510 1.283 . S
O5534 Mn5508 2.094 . S
O5534 C5512 1.240 . S
O5535 Mn5509 2.117 . S
O5535 C5512 1.264 . S
C5536 C5529 1.403 . S
C5536 C5537 1.399 . S
C5536 H5542 0.929 . S
C5537 C5517 1.449 . S
C5537 C5536 1.399 . S
C5537 H5543 0.930 . S
H5538 C5518 0.931 . S
H5539 C5519 0.930 . S
H5540 C5527 0.931 . S
H5541 C5528 0.929 . S
H5542 C5536 0.929 . S
H5543 C5537 0.930 . S
Mn5544 O5549 2.095 . S
Mn5544 O5559 2.162 . S
Mn5544 O5560 2.297 . S
Mn5544 O5568 2.385 . S
Mn5544 O5569 2.209 . S
Mn5544 O5570 2.094 . S
Mn5545 O5550 2.121 . S
Mn5545 N5552 2.257 . S
Mn5545 N5561 2.282 . S
Mn5545 O5569 2.215 . S
Mn5545 O5571 2.117 . S
C5546 O5568 1.234 . S
C5546 O5569 1.283 . S
C5547 O5559 1.281 . S
C5547 O5560 1.236 . S
C5548 O5570 1.240 . S
C5548 O5571 1.264 . S
O5549 Mn5544 2.095 . S
O5549 C5558 1.250 . S
O5550 Mn5545 2.121 . S
O5550 C5558 1.258 . S
C5551 N5552 1.326 . S
C5551 C5555 1.460 . S
C5551 H5557 0.929 . S
N5552 Mn5545 2.257 . S
N5552 C5551 1.326 . S
N5552 C5556 1.362 . S
C5553 C5554 1.258 . S
C5553 C5556 1.431 . S
C5553 C5573 1.449 . S
C5554 C5553 1.258 . S
C5554 C5555 1.477 . S
C5554 H5574 0.931 . S
C5555 C5551 1.460 . S
C5555 C5554 1.477 . S
C5555 H5575 0.930 . S
C5556 N5552 1.362 . S
C5556 C5553 1.431 . S
C5556 C5566 1.476 . S
H5557 C5551 0.929 . S
C5558 O5549 1.250 . S
C5558 O5550 1.258 . S
O5559 Mn5544 2.162 . S
O5559 C5547 1.281 . S
O5560 Mn5544 2.297 . S
O5560 C5547 1.236 . S
N5561 Mn5545 2.282 . S
N5561 C5562 1.328 . S
N5561 C5566 1.318 . S
C5562 N5561 1.328 . S
C5562 C5563 1.457 . S
C5562 H5567 0.929 . S
C5563 C5562 1.457 . S
C5563 C5564 1.291 . S
C5563 H5576 0.931 . S
C5564 C5563 1.291 . S
C5564 C5565 1.373 . S
C5564 H5577 0.929 . S
C5565 C5564 1.373 . S
C5565 C5566 1.396 . S
C5565 C5572 1.403 . S
C5566 C5556 1.476 . S
C5566 N5561 1.318 . S
C5566 C5565 1.396 . S
H5567 C5562 0.929 . S
O5568 Mn5544 2.385 . S
O5568 C5546 1.234 . S
O5569 Mn5544 2.209 . S
O5569 Mn5545 2.215 . S
O5569 C5546 1.283 . S
O5570 Mn5544 2.094 . S
O5570 C5548 1.240 . S
O5571 Mn5545 2.117 . S
O5571 C5548 1.264 . S
C5572 C5565 1.403 . S
C5572 C5573 1.399 . S
C5572 H5578 0.929 . S
C5573 C5553 1.449 . S
C5573 C5572 1.399 . S
C5573 H5579 0.930 . S
H5574 C5554 0.931 . S
H5575 C5555 0.930 . S
H5576 C5563 0.931 . S
H5577 C5564 0.929 . S
H5578 C5572 0.929 . S
H5579 C5573 0.930 . S
Mn5580 O5585 2.095 . S
Mn5580 O5595 2.162 . S
Mn5580 O5596 2.297 . S
Mn5580 O5604 2.385 . S
Mn5580 O5605 2.209 . S
Mn5580 O5606 2.094 . S
Mn5581 O5586 2.121 . S
Mn5581 N5588 2.257 . S
Mn5581 N5597 2.282 . S
Mn5581 O5605 2.215 . S
Mn5581 O5607 2.117 . S
C5582 O5604 1.234 . S
C5582 O5605 1.283 . S
C5583 O5595 1.281 . S
C5583 O5596 1.236 . S
C5584 O5606 1.240 . S
C5584 O5607 1.264 . S
O5585 Mn5580 2.095 . S
O5585 C5594 1.250 . S
O5586 Mn5581 2.121 . S
O5586 C5594 1.258 . S
C5587 N5588 1.326 . S
C5587 C5591 1.460 1_545 S
C5587 H5593 0.929 . S
N5588 Mn5581 2.257 . S
N5588 C5587 1.326 . S
N5588 C5592 1.362 . S
C5589 C5590 1.258 1_545 S
C5589 C5592 1.431 . S
C5589 C5609 1.449 . S
C5590 C5589 1.258 1_565 S
C5590 C5591 1.477 . S
C5590 H5610 0.931 . S
C5591 C5587 1.460 1_565 S
C5591 C5590 1.477 . S
C5591 H5611 0.930 . S
C5592 N5588 1.362 . S
C5592 C5589 1.431 . S
C5592 C5602 1.476 . S
H5593 C5587 0.929 . S
C5594 O5585 1.250 . S
C5594 O5586 1.258 . S
O5595 Mn5580 2.162 . S
O5595 C5583 1.281 . S
O5596 Mn5580 2.297 . S
O5596 C5583 1.236 . S
N5597 Mn5581 2.282 . S
N5597 C5598 1.328 . S
N5597 C5602 1.318 . S
C5598 N5597 1.328 . S
C5598 C5599 1.457 . S
C5598 H5603 0.929 . S
C5599 C5598 1.457 . S
C5599 C5600 1.291 . S
C5599 H5612 0.931 . S
C5600 C5599 1.291 . S
C5600 C5601 1.373 . S
C5600 H5613 0.929 . S
C5601 C5600 1.373 . S
C5601 C5602 1.396 . S
C5601 C5608 1.403 . S
C5602 C5592 1.476 . S
C5602 N5597 1.318 . S
C5602 C5601 1.396 . S
H5603 C5598 0.929 . S
O5604 Mn5580 2.385 . S
O5604 C5582 1.234 . S
O5605 Mn5580 2.209 . S
O5605 Mn5581 2.215 . S
O5605 C5582 1.283 . S
O5606 Mn5580 2.094 . S
O5606 C5584 1.240 . S
O5607 Mn5581 2.117 . S
O5607 C5584 1.264 . S
C5608 C5601 1.403 . S
C5608 C5609 1.399 . S
C5608 H5614 0.929 . S
C5609 C5589 1.449 . S
C5609 C5608 1.399 . S
C5609 H5615 0.930 . S
H5610 C5590 0.931 . S
H5611 C5591 0.930 . S
H5612 C5599 0.931 . S
H5613 C5600 0.929 . S
H5614 C5608 0.929 . S
H5615 C5609 0.930 . S
Mn5616 O5621 2.095 . S
Mn5616 O5631 2.162 . S
Mn5616 O5632 2.297 . S
Mn5616 O5640 2.385 . S
Mn5616 O5641 2.209 . S
Mn5616 O5642 2.094 . S
Mn5617 O5622 2.121 . S
Mn5617 N5624 2.257 . S
Mn5617 N5633 2.282 . S
Mn5617 O5641 2.215 . S
Mn5617 O5643 2.117 . S
C5618 O5640 1.234 . S
C5618 O5641 1.283 . S
C5619 O5631 1.281 . S
C5619 O5632 1.236 . S
C5620 O5642 1.240 . S
C5620 O5643 1.264 . S
O5621 Mn5616 2.095 . S
O5621 C5630 1.250 . S
O5622 Mn5617 2.121 . S
O5622 C5630 1.258 . S
C5623 N5624 1.326 . S
C5623 C5627 1.460 1_655 S
C5623 H5629 0.929 . S
N5624 Mn5617 2.257 . S
N5624 C5623 1.326 . S
N5624 C5628 1.362 . S
C5625 C5626 1.258 1_655 S
C5625 C5628 1.431 . S
C5625 C5645 1.449 . S
C5626 C5625 1.258 1_455 S
C5626 C5627 1.477 . S
C5626 H5646 0.931 . S
C5627 C5623 1.460 1_455 S
C5627 C5626 1.477 . S
C5627 H5647 0.930 . S
C5628 N5624 1.362 . S
C5628 C5625 1.431 . S
C5628 C5638 1.476 . S
H5629 C5623 0.929 . S
C5630 O5621 1.250 . S
C5630 O5622 1.258 . S
O5631 Mn5616 2.162 . S
O5631 C5619 1.281 . S
O5632 Mn5616 2.297 . S
O5632 C5619 1.236 . S
N5633 Mn5617 2.282 . S
N5633 C5634 1.328 . S
N5633 C5638 1.318 . S
C5634 N5633 1.328 . S
C5634 C5635 1.457 . S
C5634 H5639 0.929 . S
C5635 C5634 1.457 . S
C5635 C5636 1.291 . S
C5635 H5648 0.931 . S
C5636 C5635 1.291 . S
C5636 C5637 1.373 . S
C5636 H5649 0.929 . S
C5637 C5636 1.373 . S
C5637 C5638 1.396 . S
C5637 C5644 1.403 . S
C5638 C5628 1.476 . S
C5638 N5633 1.318 . S
C5638 C5637 1.396 . S
H5639 C5634 0.929 . S
O5640 Mn5616 2.385 . S
O5640 C5618 1.234 . S
O5641 Mn5616 2.209 . S
O5641 Mn5617 2.215 . S
O5641 C5618 1.283 . S
O5642 Mn5616 2.094 . S
O5642 C5620 1.240 . S
O5643 Mn5617 2.117 . S
O5643 C5620 1.264 . S
C5644 C5637 1.403 . S
C5644 C5645 1.399 . S
C5644 H5650 0.929 . S
C5645 C5625 1.449 . S
C5645 C5644 1.399 . S
C5645 H5651 0.930 . S
H5646 C5626 0.931 . S
H5647 C5627 0.930 . S
H5648 C5635 0.931 . S
H5649 C5636 0.929 . S
H5650 C5644 0.929 . S
H5651 C5645 0.930 . S
Mn5652 O5657 2.095 . S
Mn5652 O5667 2.162 . S
Mn5652 O5668 2.297 . S
Mn5652 O5676 2.385 . S
Mn5652 O5677 2.209 . S
Mn5652 O5678 2.094 . S
Mn5653 O5658 2.121 . S
Mn5653 N5660 2.257 . S
Mn5653 N5669 2.282 . S
Mn5653 O5677 2.215 . S
Mn5653 O5679 2.117 . S
C5654 O5676 1.234 . S
C5654 O5677 1.283 . S
C5655 O5667 1.281 . S
C5655 O5668 1.236 . S
C5656 O5678 1.240 . S
C5656 O5679 1.264 . S
O5657 Mn5652 2.095 . S
O5657 C5666 1.250 . S
O5658 Mn5653 2.121 . S
O5658 C5666 1.258 . S
C5659 N5660 1.326 . S
C5659 C5663 1.460 . S
C5659 H5665 0.929 . S
N5660 Mn5653 2.257 . S
N5660 C5659 1.326 . S
N5660 C5664 1.362 . S
C5661 C5662 1.258 . S
C5661 C5664 1.431 . S
C5661 C5681 1.449 . S
C5662 C5661 1.258 . S
C5662 C5663 1.477 . S
C5662 H5682 0.931 . S
C5663 C5659 1.460 . S
C5663 C5662 1.477 . S
C5663 H5683 0.930 . S
C5664 N5660 1.362 . S
C5664 C5661 1.431 . S
C5664 C5674 1.476 . S
H5665 C5659 0.929 . S
C5666 O5657 1.250 . S
C5666 O5658 1.258 . S
O5667 Mn5652 2.162 . S
O5667 C5655 1.281 . S
O5668 Mn5652 2.297 . S
O5668 C5655 1.236 . S
N5669 Mn5653 2.282 . S
N5669 C5670 1.328 . S
N5669 C5674 1.318 . S
C5670 N5669 1.328 . S
C5670 C5671 1.457 . S
C5670 H5675 0.929 . S
C5671 C5670 1.457 . S
C5671 C5672 1.291 . S
C5671 H5684 0.931 . S
C5672 C5671 1.291 . S
C5672 C5673 1.373 . S
C5672 H5685 0.929 . S
C5673 C5672 1.373 . S
C5673 C5674 1.396 . S
C5673 C5680 1.403 . S
C5674 C5664 1.476 . S
C5674 N5669 1.318 . S
C5674 C5673 1.396 . S
H5675 C5670 0.929 . S
O5676 Mn5652 2.385 . S
O5676 C5654 1.234 . S
O5677 Mn5652 2.209 . S
O5677 Mn5653 2.215 . S
O5677 C5654 1.283 . S
O5678 Mn5652 2.094 . S
O5678 C5656 1.240 . S
O5679 Mn5653 2.117 . S
O5679 C5656 1.264 . S
C5680 C5673 1.403 . S
C5680 C5681 1.399 . S
C5680 H5686 0.929 . S
C5681 C5661 1.449 . S
C5681 C5680 1.399 . S
C5681 H5687 0.930 . S
H5682 C5662 0.931 . S
H5683 C5663 0.930 . S
H5684 C5671 0.931 . S
H5685 C5672 0.929 . S
H5686 C5680 0.929 . S
H5687 C5681 0.930 . S
Mn5688 O5693 2.095 . S
Mn5688 O5703 2.162 . S
Mn5688 O5704 2.297 . S
Mn5688 O5712 2.385 . S
Mn5688 O5713 2.209 . S
Mn5688 O5714 2.094 . S
Mn5689 O5694 2.121 . S
Mn5689 N5696 2.257 . S
Mn5689 N5705 2.282 . S
Mn5689 O5713 2.215 . S
Mn5689 O5715 2.117 . S
C5690 O5712 1.234 . S
C5690 O5713 1.283 . S
C5691 O5703 1.281 . S
C5691 O5704 1.236 . S
C5692 O5714 1.240 . S
C5692 O5715 1.264 . S
O5693 Mn5688 2.095 . S
O5693 C5702 1.250 . S
O5694 Mn5689 2.121 . S
O5694 C5702 1.258 . S
C5695 N5696 1.326 . S
C5695 C5699 1.460 . S
C5695 H5701 0.929 . S
N5696 Mn5689 2.257 . S
N5696 C5695 1.326 . S
N5696 C5700 1.362 . S
C5697 C5698 1.258 . S
C5697 C5700 1.431 . S
C5697 C5717 1.449 . S
C5698 C5697 1.258 . S
C5698 C5699 1.477 . S
C5698 H5718 0.931 . S
C5699 C5695 1.460 . S
C5699 C5698 1.477 . S
C5699 H5719 0.930 . S
C5700 N5696 1.362 . S
C5700 C5697 1.431 . S
C5700 C5710 1.476 . S
H5701 C5695 0.929 . S
C5702 O5693 1.250 . S
C5702 O5694 1.258 . S
O5703 Mn5688 2.162 . S
O5703 C5691 1.281 . S
O5704 Mn5688 2.297 . S
O5704 C5691 1.236 . S
N5705 Mn5689 2.282 . S
N5705 C5706 1.328 . S
N5705 C5710 1.318 . S
C5706 N5705 1.328 . S
C5706 C5707 1.457 . S
C5706 H5711 0.929 . S
C5707 C5706 1.457 . S
C5707 C5708 1.291 . S
C5707 H5720 0.931 . S
C5708 C5707 1.291 . S
C5708 C5709 1.373 . S
C5708 H5721 0.929 . S
C5709 C5708 1.373 . S
C5709 C5710 1.396 . S
C5709 C5716 1.403 . S
C5710 C5700 1.476 . S
C5710 N5705 1.318 . S
C5710 C5709 1.396 . S
H5711 C5706 0.929 . S
O5712 Mn5688 2.385 . S
O5712 C5690 1.234 . S
O5713 Mn5688 2.209 . S
O5713 Mn5689 2.215 . S
O5713 C5690 1.283 . S
O5714 Mn5688 2.094 . S
O5714 C5692 1.240 . S
O5715 Mn5689 2.117 . S
O5715 C5692 1.264 . S
C5716 C5709 1.403 . S
C5716 C5717 1.399 . S
C5716 H5722 0.929 . S
C5717 C5697 1.449 . S
C5717 C5716 1.399 . S
C5717 H5723 0.930 . S
H5718 C5698 0.931 . S
H5719 C5699 0.930 . S
H5720 C5707 0.931 . S
H5721 C5708 0.929 . S
H5722 C5716 0.929 . S
H5723 C5717 0.930 . S
Mn5724 O5729 2.095 . S
Mn5724 O5739 2.162 . S
Mn5724 O5740 2.297 . S
Mn5724 O5748 2.385 . S
Mn5724 O5749 2.209 . S
Mn5724 O5750 2.094 . S
Mn5725 O5730 2.121 . S
Mn5725 N5732 2.257 . S
Mn5725 N5741 2.282 . S
Mn5725 O5749 2.215 . S
Mn5725 O5751 2.117 . S
C5726 O5748 1.234 . S
C5726 O5749 1.283 . S
C5727 O5739 1.281 . S
C5727 O5740 1.236 . S
C5728 O5750 1.240 . S
C5728 O5751 1.264 . S
O5729 Mn5724 2.095 . S
O5729 C5738 1.250 . S
O5730 Mn5725 2.121 . S
O5730 C5738 1.258 . S
C5731 N5732 1.326 . S
C5731 C5735 1.460 1_545 S
C5731 H5737 0.929 . S
N5732 Mn5725 2.257 . S
N5732 C5731 1.326 . S
N5732 C5736 1.362 . S
C5733 C5734 1.258 1_545 S
C5733 C5736 1.431 . S
C5733 C5753 1.449 . S
C5734 C5733 1.258 1_565 S
C5734 C5735 1.477 . S
C5734 H5754 0.931 . S
C5735 C5731 1.460 1_565 S
C5735 C5734 1.477 . S
C5735 H5755 0.930 . S
C5736 N5732 1.362 . S
C5736 C5733 1.431 . S
C5736 C5746 1.476 . S
H5737 C5731 0.929 . S
C5738 O5729 1.250 . S
C5738 O5730 1.258 . S
O5739 Mn5724 2.162 . S
O5739 C5727 1.281 . S
O5740 Mn5724 2.297 . S
O5740 C5727 1.236 . S
N5741 Mn5725 2.282 . S
N5741 C5742 1.328 . S
N5741 C5746 1.318 . S
C5742 N5741 1.328 . S
C5742 C5743 1.457 . S
C5742 H5747 0.929 . S
C5743 C5742 1.457 . S
C5743 C5744 1.291 . S
C5743 H5756 0.931 . S
C5744 C5743 1.291 . S
C5744 C5745 1.373 . S
C5744 H5757 0.929 . S
C5745 C5744 1.373 . S
C5745 C5746 1.396 . S
C5745 C5752 1.403 . S
C5746 C5736 1.476 . S
C5746 N5741 1.318 . S
C5746 C5745 1.396 . S
H5747 C5742 0.929 . S
O5748 Mn5724 2.385 . S
O5748 C5726 1.234 . S
O5749 Mn5724 2.209 . S
O5749 Mn5725 2.215 . S
O5749 C5726 1.283 . S
O5750 Mn5724 2.094 . S
O5750 C5728 1.240 . S
O5751 Mn5725 2.117 . S
O5751 C5728 1.264 . S
C5752 C5745 1.403 . S
C5752 C5753 1.399 . S
C5752 H5758 0.929 . S
C5753 C5733 1.449 . S
C5753 C5752 1.399 . S
C5753 H5759 0.930 . S
H5754 C5734 0.931 . S
H5755 C5735 0.930 . S
H5756 C5743 0.931 . S
H5757 C5744 0.929 . S
H5758 C5752 0.929 . S
H5759 C5753 0.930 . S
Mn5760 O5765 2.095 . S
Mn5760 O5775 2.162 . S
Mn5760 O5776 2.297 . S
Mn5760 O5784 2.385 . S
Mn5760 O5785 2.209 . S
Mn5760 O5786 2.094 . S
Mn5761 O5766 2.121 . S
Mn5761 N5768 2.257 . S
Mn5761 N5777 2.282 . S
Mn5761 O5785 2.215 . S
Mn5761 O5787 2.117 . S
C5762 O5784 1.234 . S
C5762 O5785 1.283 . S
C5763 O5775 1.281 . S
C5763 O5776 1.236 . S
C5764 O5786 1.240 . S
C5764 O5787 1.264 . S
O5765 Mn5760 2.095 . S
O5765 C5774 1.250 . S
O5766 Mn5761 2.121 . S
O5766 C5774 1.258 . S
C5767 N5768 1.326 . S
C5767 C5771 1.460 1_565 S
C5767 H5773 0.929 . S
N5768 Mn5761 2.257 . S
N5768 C5767 1.326 . S
N5768 C5772 1.362 . S
C5769 C5770 1.258 1_565 S
C5769 C5772 1.431 . S
C5769 C5789 1.449 . S
C5770 C5769 1.258 1_545 S
C5770 C5771 1.477 . S
C5770 H5790 0.931 . S
C5771 C5767 1.460 1_545 S
C5771 C5770 1.477 . S
C5771 H5791 0.930 . S
C5772 N5768 1.362 . S
C5772 C5769 1.431 . S
C5772 C5782 1.476 . S
H5773 C5767 0.929 . S
C5774 O5765 1.250 . S
C5774 O5766 1.258 . S
O5775 Mn5760 2.162 . S
O5775 C5763 1.281 . S
O5776 Mn5760 2.297 . S
O5776 C5763 1.236 . S
N5777 Mn5761 2.282 . S
N5777 C5778 1.328 . S
N5777 C5782 1.318 . S
C5778 N5777 1.328 . S
C5778 C5779 1.457 . S
C5778 H5783 0.929 . S
C5779 C5778 1.457 . S
C5779 C5780 1.291 . S
C5779 H5792 0.931 . S
C5780 C5779 1.291 . S
C5780 C5781 1.373 . S
C5780 H5793 0.929 . S
C5781 C5780 1.373 . S
C5781 C5782 1.396 . S
C5781 C5788 1.403 . S
C5782 C5772 1.476 . S
C5782 N5777 1.318 . S
C5782 C5781 1.396 . S
H5783 C5778 0.929 . S
O5784 Mn5760 2.385 . S
O5784 C5762 1.234 . S
O5785 Mn5760 2.209 . S
O5785 Mn5761 2.215 . S
O5785 C5762 1.283 . S
O5786 Mn5760 2.094 . S
O5786 C5764 1.240 . S
O5787 Mn5761 2.117 . S
O5787 C5764 1.264 . S
C5788 C5781 1.403 . S
C5788 C5789 1.399 . S
C5788 H5794 0.929 . S
C5789 C5769 1.449 . S
C5789 C5788 1.399 . S
C5789 H5795 0.930 . S
H5790 C5770 0.931 . S
H5791 C5771 0.930 . S
H5792 C5779 0.931 . S
H5793 C5780 0.929 . S
H5794 C5788 0.929 . S
H5795 C5789 0.930 . S
Mn5796 O5801 2.095 . S
Mn5796 O5811 2.162 . S
Mn5796 O5812 2.297 . S
Mn5796 O5820 2.385 . S
Mn5796 O5821 2.209 . S
Mn5796 O5822 2.094 . S
Mn5797 O5802 2.121 . S
Mn5797 N5804 2.257 . S
Mn5797 N5813 2.282 . S
Mn5797 O5821 2.215 . S
Mn5797 O5823 2.117 . S
C5798 O5820 1.234 . S
C5798 O5821 1.283 . S
C5799 O5811 1.281 . S
C5799 O5812 1.236 . S
C5800 O5822 1.240 . S
C5800 O5823 1.264 . S
O5801 Mn5796 2.095 . S
O5801 C5810 1.250 . S
O5802 Mn5797 2.121 . S
O5802 C5810 1.258 . S
C5803 N5804 1.326 . S
C5803 C5807 1.460 . S
C5803 H5809 0.929 . S
N5804 Mn5797 2.257 . S
N5804 C5803 1.326 . S
N5804 C5808 1.362 . S
C5805 C5806 1.258 . S
C5805 C5808 1.431 . S
C5805 C5825 1.449 . S
C5806 C5805 1.258 . S
C5806 C5807 1.477 . S
C5806 H5826 0.931 . S
C5807 C5803 1.460 . S
C5807 C5806 1.477 . S
C5807 H5827 0.930 . S
C5808 N5804 1.362 . S
C5808 C5805 1.431 . S
C5808 C5818 1.476 . S
H5809 C5803 0.929 . S
C5810 O5801 1.250 . S
C5810 O5802 1.258 . S
O5811 Mn5796 2.162 . S
O5811 C5799 1.281 . S
O5812 Mn5796 2.297 . S
O5812 C5799 1.236 . S
N5813 Mn5797 2.282 . S
N5813 C5814 1.328 . S
N5813 C5818 1.318 . S
C5814 N5813 1.328 . S
C5814 C5815 1.457 . S
C5814 H5819 0.929 . S
C5815 C5814 1.457 . S
C5815 C5816 1.291 . S
C5815 H5828 0.931 . S
C5816 C5815 1.291 . S
C5816 C5817 1.373 . S
C5816 H5829 0.929 . S
C5817 C5816 1.373 . S
C5817 C5818 1.396 . S
C5817 C5824 1.403 . S
C5818 C5808 1.476 . S
C5818 N5813 1.318 . S
C5818 C5817 1.396 . S
H5819 C5814 0.929 . S
O5820 Mn5796 2.385 . S
O5820 C5798 1.234 . S
O5821 Mn5796 2.209 . S
O5821 Mn5797 2.215 . S
O5821 C5798 1.283 . S
O5822 Mn5796 2.094 . S
O5822 C5800 1.240 . S
O5823 Mn5797 2.117 . S
O5823 C5800 1.264 . S
C5824 C5817 1.403 . S
C5824 C5825 1.399 . S
C5824 H5830 0.929 . S
C5825 C5805 1.449 . S
C5825 C5824 1.399 . S
C5825 H5831 0.930 . S
H5826 C5806 0.931 . S
H5827 C5807 0.930 . S
H5828 C5815 0.931 . S
H5829 C5816 0.929 . S
H5830 C5824 0.929 . S
H5831 C5825 0.930 . S
Mn5832 O5837 2.095 . S
Mn5832 O5847 2.162 . S
Mn5832 O5848 2.297 . S
Mn5832 O5856 2.385 . S
Mn5832 O5857 2.209 . S
Mn5832 O5858 2.094 . S
Mn5833 O5838 2.121 . S
Mn5833 N5840 2.257 . S
Mn5833 N5849 2.282 . S
Mn5833 O5857 2.215 . S
Mn5833 O5859 2.117 . S
C5834 O5856 1.234 . S
C5834 O5857 1.283 . S
C5835 O5847 1.281 . S
C5835 O5848 1.236 . S
C5836 O5858 1.240 . S
C5836 O5859 1.264 . S
O5837 Mn5832 2.095 . S
O5837 C5846 1.250 . S
O5838 Mn5833 2.121 . S
O5838 C5846 1.258 . S
C5839 N5840 1.326 . S
C5839 C5843 1.460 . S
C5839 H5845 0.929 . S
N5840 Mn5833 2.257 . S
N5840 C5839 1.326 . S
N5840 C5844 1.362 . S
C5841 C5842 1.258 . S
C5841 C5844 1.431 . S
C5841 C5861 1.449 . S
C5842 C5841 1.258 . S
C5842 C5843 1.477 . S
C5842 H5862 0.931 . S
C5843 C5839 1.460 . S
C5843 C5842 1.477 . S
C5843 H5863 0.930 . S
C5844 N5840 1.362 . S
C5844 C5841 1.431 . S
C5844 C5854 1.476 . S
H5845 C5839 0.929 . S
C5846 O5837 1.250 . S
C5846 O5838 1.258 . S
O5847 Mn5832 2.162 . S
O5847 C5835 1.281 . S
O5848 Mn5832 2.297 . S
O5848 C5835 1.236 . S
N5849 Mn5833 2.282 . S
N5849 C5850 1.328 . S
N5849 C5854 1.318 . S
C5850 N5849 1.328 . S
C5850 C5851 1.457 . S
C5850 H5855 0.929 . S
C5851 C5850 1.457 . S
C5851 C5852 1.291 . S
C5851 H5864 0.931 . S
C5852 C5851 1.291 . S
C5852 C5853 1.373 . S
C5852 H5865 0.929 . S
C5853 C5852 1.373 . S
C5853 C5854 1.396 . S
C5853 C5860 1.403 . S
C5854 C5844 1.476 . S
C5854 N5849 1.318 . S
C5854 C5853 1.396 . S
H5855 C5850 0.929 . S
O5856 Mn5832 2.385 . S
O5856 C5834 1.234 . S
O5857 Mn5832 2.209 . S
O5857 Mn5833 2.215 . S
O5857 C5834 1.283 . S
O5858 Mn5832 2.094 . S
O5858 C5836 1.240 . S
O5859 Mn5833 2.117 . S
O5859 C5836 1.264 . S
C5860 C5853 1.403 . S
C5860 C5861 1.399 . S
C5860 H5866 0.929 . S
C5861 C5841 1.449 . S
C5861 C5860 1.399 . S
C5861 H5867 0.930 . S
H5862 C5842 0.931 . S
H5863 C5843 0.930 . S
H5864 C5851 0.931 . S
H5865 C5852 0.929 . S
H5866 C5860 0.929 . S
H5867 C5861 0.930 . S
Mn5868 O5873 2.095 . S
Mn5868 O5883 2.162 . S
Mn5868 O5884 2.297 . S
Mn5868 O5892 2.385 . S
Mn5868 O5893 2.209 . S
Mn5868 O5894 2.094 . S
Mn5869 O5874 2.121 . S
Mn5869 N5876 2.257 . S
Mn5869 N5885 2.282 . S
Mn5869 O5893 2.215 . S
Mn5869 O5895 2.117 . S
C5870 O5892 1.234 . S
C5870 O5893 1.283 . S
C5871 O5883 1.281 . S
C5871 O5884 1.236 . S
C5872 O5894 1.240 . S
C5872 O5895 1.264 . S
O5873 Mn5868 2.095 . S
O5873 C5882 1.250 . S
O5874 Mn5869 2.121 . S
O5874 C5882 1.258 . S
C5875 N5876 1.326 . S
C5875 C5879 1.460 . S
C5875 H5881 0.929 . S
N5876 Mn5869 2.257 . S
N5876 C5875 1.326 . S
N5876 C5880 1.362 . S
C5877 C5878 1.258 . S
C5877 C5880 1.431 . S
C5877 C5897 1.449 . S
C5878 C5877 1.258 . S
C5878 C5879 1.477 . S
C5878 H5898 0.931 . S
C5879 C5875 1.460 . S
C5879 C5878 1.477 . S
C5879 H5899 0.930 . S
C5880 N5876 1.362 . S
C5880 C5877 1.431 . S
C5880 C5890 1.476 . S
H5881 C5875 0.929 . S
C5882 O5873 1.250 . S
C5882 O5874 1.258 . S
O5883 Mn5868 2.162 . S
O5883 C5871 1.281 . S
O5884 Mn5868 2.297 . S
O5884 C5871 1.236 . S
N5885 Mn5869 2.282 . S
N5885 C5886 1.328 . S
N5885 C5890 1.318 . S
C5886 N5885 1.328 . S
C5886 C5887 1.457 . S
C5886 H5891 0.929 . S
C5887 C5886 1.457 . S
C5887 C5888 1.291 . S
C5887 H5900 0.931 . S
C5888 C5887 1.291 . S
C5888 C5889 1.373 . S
C5888 H5901 0.929 . S
C5889 C5888 1.373 . S
C5889 C5890 1.396 . S
C5889 C5896 1.403 . S
C5890 C5880 1.476 . S
C5890 N5885 1.318 . S
C5890 C5889 1.396 . S
H5891 C5886 0.929 . S
O5892 Mn5868 2.385 . S
O5892 C5870 1.234 . S
O5893 Mn5868 2.209 . S
O5893 Mn5869 2.215 . S
O5893 C5870 1.283 . S
O5894 Mn5868 2.094 . S
O5894 C5872 1.240 . S
O5895 Mn5869 2.117 . S
O5895 C5872 1.264 . S
C5896 C5889 1.403 . S
C5896 C5897 1.399 . S
C5896 H5902 0.929 . S
C5897 C5877 1.449 . S
C5897 C5896 1.399 . S
C5897 H5903 0.930 . S
H5898 C5878 0.931 . S
H5899 C5879 0.930 . S
H5900 C5887 0.931 . S
H5901 C5888 0.929 . S
H5902 C5896 0.929 . S
H5903 C5897 0.930 . S
Mn5904 O5909 2.095 . S
Mn5904 O5919 2.162 . S
Mn5904 O5920 2.297 . S
Mn5904 O5928 2.385 . S
Mn5904 O5929 2.209 . S
Mn5904 O5930 2.094 . S
Mn5905 O5910 2.121 . S
Mn5905 N5912 2.257 . S
Mn5905 N5921 2.282 . S
Mn5905 O5929 2.215 . S
Mn5905 O5931 2.117 . S
C5906 O5928 1.234 . S
C5906 O5929 1.283 . S
C5907 O5919 1.281 . S
C5907 O5920 1.236 . S
C5908 O5930 1.240 . S
C5908 O5931 1.264 . S
O5909 Mn5904 2.095 . S
O5909 C5918 1.250 . S
O5910 Mn5905 2.121 . S
O5910 C5918 1.258 . S
C5911 N5912 1.326 . S
C5911 C5915 1.460 1_455 S
C5911 H5917 0.929 . S
N5912 Mn5905 2.257 . S
N5912 C5911 1.326 . S
N5912 C5916 1.362 . S
C5913 C5914 1.258 1_455 S
C5913 C5916 1.431 . S
C5913 C5933 1.449 . S
C5914 C5913 1.258 1_655 S
C5914 C5915 1.477 . S
C5914 H5934 0.931 . S
C5915 C5911 1.460 1_655 S
C5915 C5914 1.477 . S
C5915 H5935 0.930 . S
C5916 N5912 1.362 . S
C5916 C5913 1.431 . S
C5916 C5926 1.476 . S
H5917 C5911 0.929 . S
C5918 O5909 1.250 . S
C5918 O5910 1.258 . S
O5919 Mn5904 2.162 . S
O5919 C5907 1.281 . S
O5920 Mn5904 2.297 . S
O5920 C5907 1.236 . S
N5921 Mn5905 2.282 . S
N5921 C5922 1.328 . S
N5921 C5926 1.318 . S
C5922 N5921 1.328 . S
C5922 C5923 1.457 . S
C5922 H5927 0.929 . S
C5923 C5922 1.457 . S
C5923 C5924 1.291 . S
C5923 H5936 0.931 . S
C5924 C5923 1.291 . S
C5924 C5925 1.373 . S
C5924 H5937 0.929 . S
C5925 C5924 1.373 . S
C5925 C5926 1.396 . S
C5925 C5932 1.403 . S
C5926 C5916 1.476 . S
C5926 N5921 1.318 . S
C5926 C5925 1.396 . S
H5927 C5922 0.929 . S
O5928 Mn5904 2.385 . S
O5928 C5906 1.234 . S
O5929 Mn5904 2.209 . S
O5929 Mn5905 2.215 . S
O5929 C5906 1.283 . S
O5930 Mn5904 2.094 . S
O5930 C5908 1.240 . S
O5931 Mn5905 2.117 . S
O5931 C5908 1.264 . S
C5932 C5925 1.403 . S
C5932 C5933 1.399 . S
C5932 H5938 0.929 . S
C5933 C5913 1.449 . S
C5933 C5932 1.399 . S
C5933 H5939 0.930 . S
H5934 C5914 0.931 . S
H5935 C5915 0.930 . S
H5936 C5923 0.931 . S
H5937 C5924 0.929 . S
H5938 C5932 0.929 . S
H5939 C5933 0.930 . S
Mn5940 O5945 2.095 . S
Mn5940 O5955 2.162 . S
Mn5940 O5956 2.297 . S
Mn5940 O5964 2.385 . S
Mn5940 O5965 2.209 . S
Mn5940 O5966 2.094 . S
Mn5941 O5946 2.121 . S
Mn5941 N5948 2.257 . S
Mn5941 N5957 2.282 . S
Mn5941 O5965 2.215 . S
Mn5941 O5967 2.117 . S
C5942 O5964 1.234 . S
C5942 O5965 1.283 . S
C5943 O5955 1.281 . S
C5943 O5956 1.236 . S
C5944 O5966 1.240 . S
C5944 O5967 1.264 . S
O5945 Mn5940 2.095 . S
O5945 C5954 1.250 . S
O5946 Mn5941 2.121 . S
O5946 C5954 1.258 . S
C5947 N5948 1.326 . S
C5947 C5951 1.460 . S
C5947 H5953 0.929 . S
N5948 Mn5941 2.257 . S
N5948 C5947 1.326 . S
N5948 C5952 1.362 . S
C5949 C5950 1.258 . S
C5949 C5952 1.431 . S
C5949 C5969 1.449 . S
C5950 C5949 1.258 . S
C5950 C5951 1.477 . S
C5950 H5970 0.931 . S
C5951 C5947 1.460 . S
C5951 C5950 1.477 . S
C5951 H5971 0.930 . S
C5952 N5948 1.362 . S
C5952 C5949 1.431 . S
C5952 C5962 1.476 . S
H5953 C5947 0.929 . S
C5954 O5945 1.250 . S
C5954 O5946 1.258 . S
O5955 Mn5940 2.162 . S
O5955 C5943 1.281 . S
O5956 Mn5940 2.297 . S
O5956 C5943 1.236 . S
N5957 Mn5941 2.282 . S
N5957 C5958 1.328 . S
N5957 C5962 1.318 . S
C5958 N5957 1.328 . S
C5958 C5959 1.457 . S
C5958 H5963 0.929 . S
C5959 C5958 1.457 . S
C5959 C5960 1.291 . S
C5959 H5972 0.931 . S
C5960 C5959 1.291 . S
C5960 C5961 1.373 . S
C5960 H5973 0.929 . S
C5961 C5960 1.373 . S
C5961 C5962 1.396 . S
C5961 C5968 1.403 . S
C5962 C5952 1.476 . S
C5962 N5957 1.318 . S
C5962 C5961 1.396 . S
H5963 C5958 0.929 . S
O5964 Mn5940 2.385 . S
O5964 C5942 1.234 . S
O5965 Mn5940 2.209 . S
O5965 Mn5941 2.215 . S
O5965 C5942 1.283 . S
O5966 Mn5940 2.094 . S
O5966 C5944 1.240 . S
O5967 Mn5941 2.117 . S
O5967 C5944 1.264 . S
C5968 C5961 1.403 . S
C5968 C5969 1.399 . S
C5968 H5974 0.929 . S
C5969 C5949 1.449 . S
C5969 C5968 1.399 . S
C5969 H5975 0.930 . S
H5970 C5950 0.931 . S
H5971 C5951 0.930 . S
H5972 C5959 0.931 . S
H5973 C5960 0.929 . S
H5974 C5968 0.929 . S
H5975 C5969 0.930 . S
Mn5976 O5981 2.095 . S
Mn5976 O5991 2.162 . S
Mn5976 O5992 2.297 . S
Mn5976 O6000 2.385 . S
Mn5976 O6001 2.209 . S
Mn5976 O6002 2.094 . S
Mn5977 O5982 2.121 . S
Mn5977 N5984 2.257 . S
Mn5977 N5993 2.282 . S
Mn5977 O6001 2.215 . S
Mn5977 O6003 2.117 . S
C5978 O6000 1.234 . S
C5978 O6001 1.283 . S
C5979 O5991 1.281 . S
C5979 O5992 1.236 . S
C5980 O6002 1.240 . S
C5980 O6003 1.264 . S
O5981 Mn5976 2.095 . S
O5981 C5990 1.250 . S
O5982 Mn5977 2.121 . S
O5982 C5990 1.258 . S
C5983 N5984 1.326 . S
C5983 C5987 1.460 . S
C5983 H5989 0.929 . S
N5984 Mn5977 2.257 . S
N5984 C5983 1.326 . S
N5984 C5988 1.362 . S
C5985 C5986 1.258 . S
C5985 C5988 1.431 . S
C5985 C6005 1.449 . S
C5986 C5985 1.258 . S
C5986 C5987 1.477 . S
C5986 H6006 0.931 . S
C5987 C5983 1.460 . S
C5987 C5986 1.477 . S
C5987 H6007 0.930 . S
C5988 N5984 1.362 . S
C5988 C5985 1.431 . S
C5988 C5998 1.476 . S
H5989 C5983 0.929 . S
C5990 O5981 1.250 . S
C5990 O5982 1.258 . S
O5991 Mn5976 2.162 . S
O5991 C5979 1.281 . S
O5992 Mn5976 2.297 . S
O5992 C5979 1.236 . S
N5993 Mn5977 2.282 . S
N5993 C5994 1.328 . S
N5993 C5998 1.318 . S
C5994 N5993 1.328 . S
C5994 C5995 1.457 . S
C5994 H5999 0.929 . S
C5995 C5994 1.457 . S
C5995 C5996 1.291 . S
C5995 H6008 0.931 . S
C5996 C5995 1.291 . S
C5996 C5997 1.373 . S
C5996 H6009 0.929 . S
C5997 C5996 1.373 . S
C5997 C5998 1.396 . S
C5997 C6004 1.403 . S
C5998 C5988 1.476 . S
C5998 N5993 1.318 . S
C5998 C5997 1.396 . S
H5999 C5994 0.929 . S
O6000 Mn5976 2.385 . S
O6000 C5978 1.234 . S
O6001 Mn5976 2.209 . S
O6001 Mn5977 2.215 . S
O6001 C5978 1.283 . S
O6002 Mn5976 2.094 . S
O6002 C5980 1.240 . S
O6003 Mn5977 2.117 . S
O6003 C5980 1.264 . S
C6004 C5997 1.403 . S
C6004 C6005 1.399 . S
C6004 H6010 0.929 . S
C6005 C5985 1.449 . S
C6005 C6004 1.399 . S
C6005 H6011 0.930 . S
H6006 C5986 0.931 . S
H6007 C5987 0.930 . S
H6008 C5995 0.931 . S
H6009 C5996 0.929 . S
H6010 C6004 0.929 . S
H6011 C6005 0.930 . S
Mn6012 O6017 2.095 . S
Mn6012 O6027 2.162 . S
Mn6012 O6028 2.297 . S
Mn6012 O6036 2.385 . S
Mn6012 O6037 2.209 . S
Mn6012 O6038 2.094 . S
Mn6013 O6018 2.121 . S
Mn6013 N6020 2.257 . S
Mn6013 N6029 2.282 . S
Mn6013 O6037 2.215 . S
Mn6013 O6039 2.117 . S
C6014 O6036 1.234 . S
C6014 O6037 1.283 . S
C6015 O6027 1.281 . S
C6015 O6028 1.236 . S
C6016 O6038 1.240 . S
C6016 O6039 1.264 . S
O6017 Mn6012 2.095 . S
O6017 C6026 1.250 . S
O6018 Mn6013 2.121 . S
O6018 C6026 1.258 . S
C6019 N6020 1.326 . S
C6019 C6023 1.460 . S
C6019 H6025 0.929 . S
N6020 Mn6013 2.257 . S
N6020 C6019 1.326 . S
N6020 C6024 1.362 . S
C6021 C6022 1.258 . S
C6021 C6024 1.431 . S
C6021 C6041 1.449 . S
C6022 C6021 1.258 . S
C6022 C6023 1.477 . S
C6022 H6042 0.931 . S
C6023 C6019 1.460 . S
C6023 C6022 1.477 . S
C6023 H6043 0.930 . S
C6024 N6020 1.362 . S
C6024 C6021 1.431 . S
C6024 C6034 1.476 . S
H6025 C6019 0.929 . S
C6026 O6017 1.250 . S
C6026 O6018 1.258 . S
O6027 Mn6012 2.162 . S
O6027 C6015 1.281 . S
O6028 Mn6012 2.297 . S
O6028 C6015 1.236 . S
N6029 Mn6013 2.282 . S
N6029 C6030 1.328 . S
N6029 C6034 1.318 . S
C6030 N6029 1.328 . S
C6030 C6031 1.457 . S
C6030 H6035 0.929 . S
C6031 C6030 1.457 . S
C6031 C6032 1.291 . S
C6031 H6044 0.931 . S
C6032 C6031 1.291 . S
C6032 C6033 1.373 . S
C6032 H6045 0.929 . S
C6033 C6032 1.373 . S
C6033 C6034 1.396 . S
C6033 C6040 1.403 . S
C6034 C6024 1.476 . S
C6034 N6029 1.318 . S
C6034 C6033 1.396 . S
H6035 C6030 0.929 . S
O6036 Mn6012 2.385 . S
O6036 C6014 1.234 . S
O6037 Mn6012 2.209 . S
O6037 Mn6013 2.215 . S
O6037 C6014 1.283 . S
O6038 Mn6012 2.094 . S
O6038 C6016 1.240 . S
O6039 Mn6013 2.117 . S
O6039 C6016 1.264 . S
C6040 C6033 1.403 . S
C6040 C6041 1.399 . S
C6040 H6046 0.929 . S
C6041 C6021 1.449 . S
C6041 C6040 1.399 . S
C6041 H6047 0.930 . S
H6042 C6022 0.931 . S
H6043 C6023 0.930 . S
H6044 C6031 0.931 . S
H6045 C6032 0.929 . S
H6046 C6040 0.929 . S
H6047 C6041 0.930 . S
Mn6048 O6053 2.095 . S
Mn6048 O6063 2.162 . S
Mn6048 O6064 2.297 . S
Mn6048 O6072 2.385 . S
Mn6048 O6073 2.209 . S
Mn6048 O6074 2.094 . S
Mn6049 O6054 2.121 . S
Mn6049 N6056 2.257 . S
Mn6049 N6065 2.282 . S
Mn6049 O6073 2.215 . S
Mn6049 O6075 2.117 . S
C6050 O6072 1.234 . S
C6050 O6073 1.283 . S
C6051 O6063 1.281 . S
C6051 O6064 1.236 . S
C6052 O6074 1.240 . S
C6052 O6075 1.264 . S
O6053 Mn6048 2.095 . S
O6053 C6062 1.250 . S
O6054 Mn6049 2.121 . S
O6054 C6062 1.258 . S
C6055 N6056 1.326 . S
C6055 C6059 1.460 . S
C6055 H6061 0.929 . S
N6056 Mn6049 2.257 . S
N6056 C6055 1.326 . S
N6056 C6060 1.362 . S
C6057 C6058 1.258 . S
C6057 C6060 1.431 . S
C6057 C6077 1.449 . S
C6058 C6057 1.258 . S
C6058 C6059 1.477 . S
C6058 H6078 0.931 . S
C6059 C6055 1.460 . S
C6059 C6058 1.477 . S
C6059 H6079 0.930 . S
C6060 N6056 1.362 . S
C6060 C6057 1.431 . S
C6060 C6070 1.476 . S
H6061 C6055 0.929 . S
C6062 O6053 1.250 . S
C6062 O6054 1.258 . S
O6063 Mn6048 2.162 . S
O6063 C6051 1.281 . S
O6064 Mn6048 2.297 . S
O6064 C6051 1.236 . S
N6065 Mn6049 2.282 . S
N6065 C6066 1.328 . S
N6065 C6070 1.318 . S
C6066 N6065 1.328 . S
C6066 C6067 1.457 . S
C6066 H6071 0.929 . S
C6067 C6066 1.457 . S
C6067 C6068 1.291 . S
C6067 H6080 0.931 . S
C6068 C6067 1.291 . S
C6068 C6069 1.373 . S
C6068 H6081 0.929 . S
C6069 C6068 1.373 . S
C6069 C6070 1.396 . S
C6069 C6076 1.403 . S
C6070 C6060 1.476 . S
C6070 N6065 1.318 . S
C6070 C6069 1.396 . S
H6071 C6066 0.929 . S
O6072 Mn6048 2.385 . S
O6072 C6050 1.234 . S
O6073 Mn6048 2.209 . S
O6073 Mn6049 2.215 . S
O6073 C6050 1.283 . S
O6074 Mn6048 2.094 . S
O6074 C6052 1.240 . S
O6075 Mn6049 2.117 . S
O6075 C6052 1.264 . S
C6076 C6069 1.403 . S
C6076 C6077 1.399 . S
C6076 H6082 0.929 . S
C6077 C6057 1.449 . S
C6077 C6076 1.399 . S
C6077 H6083 0.930 . S
H6078 C6058 0.931 . S
H6079 C6059 0.930 . S
H6080 C6067 0.931 . S
H6081 C6068 0.929 . S
H6082 C6076 0.929 . S
H6083 C6077 0.930 . S
Mn6084 O6089 2.095 . S
Mn6084 O6099 2.162 . S
Mn6084 O6100 2.297 . S
Mn6084 O6108 2.385 . S
Mn6084 O6109 2.209 . S
Mn6084 O6110 2.094 . S
Mn6085 O6090 2.121 . S
Mn6085 N6092 2.257 . S
Mn6085 N6101 2.282 . S
Mn6085 O6109 2.215 . S
Mn6085 O6111 2.117 . S
C6086 O6108 1.234 . S
C6086 O6109 1.283 . S
C6087 O6099 1.281 . S
C6087 O6100 1.236 . S
C6088 O6110 1.240 . S
C6088 O6111 1.264 . S
O6089 Mn6084 2.095 . S
O6089 C6098 1.250 . S
O6090 Mn6085 2.121 . S
O6090 C6098 1.258 . S
C6091 N6092 1.326 . S
C6091 C6095 1.460 . S
C6091 H6097 0.929 . S
N6092 Mn6085 2.257 . S
N6092 C6091 1.326 . S
N6092 C6096 1.362 . S
C6093 C6094 1.258 . S
C6093 C6096 1.431 . S
C6093 C6113 1.449 . S
C6094 C6093 1.258 . S
C6094 C6095 1.477 . S
C6094 H6114 0.931 . S
C6095 C6091 1.460 . S
C6095 C6094 1.477 . S
C6095 H6115 0.930 . S
C6096 N6092 1.362 . S
C6096 C6093 1.431 . S
C6096 C6106 1.476 . S
H6097 C6091 0.929 . S
C6098 O6089 1.250 . S
C6098 O6090 1.258 . S
O6099 Mn6084 2.162 . S
O6099 C6087 1.281 . S
O6100 Mn6084 2.297 . S
O6100 C6087 1.236 . S
N6101 Mn6085 2.282 . S
N6101 C6102 1.328 . S
N6101 C6106 1.318 . S
C6102 N6101 1.328 . S
C6102 C6103 1.457 . S
C6102 H6107 0.929 . S
C6103 C6102 1.457 . S
C6103 C6104 1.291 . S
C6103 H6116 0.931 . S
C6104 C6103 1.291 . S
C6104 C6105 1.373 . S
C6104 H6117 0.929 . S
C6105 C6104 1.373 . S
C6105 C6106 1.396 . S
C6105 C6112 1.403 . S
C6106 C6096 1.476 . S
C6106 N6101 1.318 . S
C6106 C6105 1.396 . S
H6107 C6102 0.929 . S
O6108 Mn6084 2.385 . S
O6108 C6086 1.234 . S
O6109 Mn6084 2.209 . S
O6109 Mn6085 2.215 . S
O6109 C6086 1.283 . S
O6110 Mn6084 2.094 . S
O6110 C6088 1.240 . S
O6111 Mn6085 2.117 . S
O6111 C6088 1.264 . S
C6112 C6105 1.403 . S
C6112 C6113 1.399 . S
C6112 H6118 0.929 . S
C6113 C6093 1.449 . S
C6113 C6112 1.399 . S
C6113 H6119 0.930 . S
H6114 C6094 0.931 . S
H6115 C6095 0.930 . S
H6116 C6103 0.931 . S
H6117 C6104 0.929 . S
H6118 C6112 0.929 . S
H6119 C6113 0.930 . S
Mn6120 O6125 2.095 . S
Mn6120 O6135 2.162 . S
Mn6120 O6136 2.297 . S
Mn6120 O6144 2.385 . S
Mn6120 O6145 2.209 . S
Mn6120 O6146 2.094 . S
Mn6121 O6126 2.121 . S
Mn6121 N6128 2.257 . S
Mn6121 N6137 2.282 . S
Mn6121 O6145 2.215 . S
Mn6121 O6147 2.117 . S
C6122 O6144 1.234 . S
C6122 O6145 1.283 . S
C6123 O6135 1.281 . S
C6123 O6136 1.236 . S
C6124 O6146 1.240 . S
C6124 O6147 1.264 . S
O6125 Mn6120 2.095 . S
O6125 C6134 1.250 . S
O6126 Mn6121 2.121 . S
O6126 C6134 1.258 . S
C6127 N6128 1.326 . S
C6127 C6131 1.460 1_554 S
C6127 H6133 0.929 . S
N6128 Mn6121 2.257 . S
N6128 C6127 1.326 . S
N6128 C6132 1.362 . S
C6129 C6130 1.258 1_554 S
C6129 C6132 1.431 . S
C6129 C6149 1.449 . S
C6130 C6129 1.258 1_556 S
C6130 C6131 1.477 . S
C6130 H6150 0.931 . S
C6131 C6127 1.460 1_556 S
C6131 C6130 1.477 . S
C6131 H6151 0.930 . S
C6132 N6128 1.362 . S
C6132 C6129 1.431 . S
C6132 C6142 1.476 . S
H6133 C6127 0.929 . S
C6134 O6125 1.250 . S
C6134 O6126 1.258 . S
O6135 Mn6120 2.162 . S
O6135 C6123 1.281 . S
O6136 Mn6120 2.297 . S
O6136 C6123 1.236 . S
N6137 Mn6121 2.282 . S
N6137 C6138 1.328 . S
N6137 C6142 1.318 . S
C6138 N6137 1.328 . S
C6138 C6139 1.457 . S
C6138 H6143 0.929 . S
C6139 C6138 1.457 . S
C6139 C6140 1.291 . S
C6139 H6152 0.931 . S
C6140 C6139 1.291 . S
C6140 C6141 1.373 . S
C6140 H6153 0.929 . S
C6141 C6140 1.373 . S
C6141 C6142 1.396 . S
C6141 C6148 1.403 . S
C6142 C6132 1.476 . S
C6142 N6137 1.318 . S
C6142 C6141 1.396 . S
H6143 C6138 0.929 . S
O6144 Mn6120 2.385 . S
O6144 C6122 1.234 . S
O6145 Mn6120 2.209 . S
O6145 Mn6121 2.215 . S
O6145 C6122 1.283 . S
O6146 Mn6120 2.094 . S
O6146 C6124 1.240 . S
O6147 Mn6121 2.117 . S
O6147 C6124 1.264 . S
C6148 C6141 1.403 . S
C6148 C6149 1.399 . S
C6148 H6154 0.929 . S
C6149 C6129 1.449 . S
C6149 C6148 1.399 . S
C6149 H6155 0.930 . S
H6150 C6130 0.931 . S
H6151 C6131 0.930 . S
H6152 C6139 0.931 . S
H6153 C6140 0.929 . S
H6154 C6148 0.929 . S
H6155 C6149 0.930 . S
Mn6156 O6161 2.095 . S
Mn6156 O6171 2.162 . S
Mn6156 O6172 2.297 . S
Mn6156 O6180 2.385 . S
Mn6156 O6181 2.209 . S
Mn6156 O6182 2.094 . S
Mn6157 O6162 2.121 . S
Mn6157 N6164 2.257 . S
Mn6157 N6173 2.282 . S
Mn6157 O6181 2.215 . S
Mn6157 O6183 2.117 . S
C6158 O6180 1.234 . S
C6158 O6181 1.283 . S
C6159 O6171 1.281 . S
C6159 O6172 1.236 . S
C6160 O6182 1.240 . S
C6160 O6183 1.264 . S
O6161 Mn6156 2.095 . S
O6161 C6170 1.250 . S
O6162 Mn6157 2.121 . S
O6162 C6170 1.258 . S
C6163 N6164 1.326 . S
C6163 C6167 1.460 . S
C6163 H6169 0.929 . S
N6164 Mn6157 2.257 . S
N6164 C6163 1.326 . S
N6164 C6168 1.362 . S
C6165 C6166 1.258 . S
C6165 C6168 1.431 . S
C6165 C6185 1.449 . S
C6166 C6165 1.258 . S
C6166 C6167 1.477 . S
C6166 H6186 0.931 . S
C6167 C6163 1.460 . S
C6167 C6166 1.477 . S
C6167 H6187 0.930 . S
C6168 N6164 1.362 . S
C6168 C6165 1.431 . S
C6168 C6178 1.476 . S
H6169 C6163 0.929 . S
C6170 O6161 1.250 . S
C6170 O6162 1.258 . S
O6171 Mn6156 2.162 . S
O6171 C6159 1.281 . S
O6172 Mn6156 2.297 . S
O6172 C6159 1.236 . S
N6173 Mn6157 2.282 . S
N6173 C6174 1.328 . S
N6173 C6178 1.318 . S
C6174 N6173 1.328 . S
C6174 C6175 1.457 . S
C6174 H6179 0.929 . S
C6175 C6174 1.457 . S
C6175 C6176 1.291 . S
C6175 H6188 0.931 . S
C6176 C6175 1.291 . S
C6176 C6177 1.373 . S
C6176 H6189 0.929 . S
C6177 C6176 1.373 . S
C6177 C6178 1.396 . S
C6177 C6184 1.403 . S
C6178 C6168 1.476 . S
C6178 N6173 1.318 . S
C6178 C6177 1.396 . S
H6179 C6174 0.929 . S
O6180 Mn6156 2.385 . S
O6180 C6158 1.234 . S
O6181 Mn6156 2.209 . S
O6181 Mn6157 2.215 . S
O6181 C6158 1.283 . S
O6182 Mn6156 2.094 . S
O6182 C6160 1.240 . S
O6183 Mn6157 2.117 . S
O6183 C6160 1.264 . S
C6184 C6177 1.403 . S
C6184 C6185 1.399 . S
C6184 H6190 0.929 . S
C6185 C6165 1.449 . S
C6185 C6184 1.399 . S
C6185 H6191 0.930 . S
H6186 C6166 0.931 . S
H6187 C6167 0.930 . S
H6188 C6175 0.931 . S
H6189 C6176 0.929 . S
H6190 C6184 0.929 . S
H6191 C6185 0.930 . S
Mn6192 O6197 2.095 . S
Mn6192 O6207 2.162 . S
Mn6192 O6208 2.297 . S
Mn6192 O6216 2.385 . S
Mn6192 O6217 2.209 . S
Mn6192 O6218 2.094 . S
Mn6193 O6198 2.121 . S
Mn6193 N6200 2.257 . S
Mn6193 N6209 2.282 . S
Mn6193 O6217 2.215 . S
Mn6193 O6219 2.117 . S
C6194 O6216 1.234 . S
C6194 O6217 1.283 . S
C6195 O6207 1.281 . S
C6195 O6208 1.236 . S
C6196 O6218 1.240 . S
C6196 O6219 1.264 . S
O6197 Mn6192 2.095 . S
O6197 C6206 1.250 . S
O6198 Mn6193 2.121 . S
O6198 C6206 1.258 . S
C6199 N6200 1.326 . S
C6199 C6203 1.460 . S
C6199 H6205 0.929 . S
N6200 Mn6193 2.257 . S
N6200 C6199 1.326 . S
N6200 C6204 1.362 . S
C6201 C6202 1.258 . S
C6201 C6204 1.431 . S
C6201 C6221 1.449 . S
C6202 C6201 1.258 . S
C6202 C6203 1.477 . S
C6202 H6222 0.931 . S
C6203 C6199 1.460 . S
C6203 C6202 1.477 . S
C6203 H6223 0.930 . S
C6204 N6200 1.362 . S
C6204 C6201 1.431 . S
C6204 C6214 1.476 . S
H6205 C6199 0.929 . S
C6206 O6197 1.250 . S
C6206 O6198 1.258 . S
O6207 Mn6192 2.162 . S
O6207 C6195 1.281 . S
O6208 Mn6192 2.297 . S
O6208 C6195 1.236 . S
N6209 Mn6193 2.282 . S
N6209 C6210 1.328 . S
N6209 C6214 1.318 . S
C6210 N6209 1.328 . S
C6210 C6211 1.457 . S
C6210 H6215 0.929 . S
C6211 C6210 1.457 . S
C6211 C6212 1.291 . S
C6211 H6224 0.931 . S
C6212 C6211 1.291 . S
C6212 C6213 1.373 . S
C6212 H6225 0.929 . S
C6213 C6212 1.373 . S
C6213 C6214 1.396 . S
C6213 C6220 1.403 . S
C6214 C6204 1.476 . S
C6214 N6209 1.318 . S
C6214 C6213 1.396 . S
H6215 C6210 0.929 . S
O6216 Mn6192 2.385 . S
O6216 C6194 1.234 . S
O6217 Mn6192 2.209 . S
O6217 Mn6193 2.215 . S
O6217 C6194 1.283 . S
O6218 Mn6192 2.094 . S
O6218 C6196 1.240 . S
O6219 Mn6193 2.117 . S
O6219 C6196 1.264 . S
C6220 C6213 1.403 . S
C6220 C6221 1.399 . S
C6220 H6226 0.929 . S
C6221 C6201 1.449 . S
C6221 C6220 1.399 . S
C6221 H6227 0.930 . S
H6222 C6202 0.931 . S
H6223 C6203 0.930 . S
H6224 C6211 0.931 . S
H6225 C6212 0.929 . S
H6226 C6220 0.929 . S
H6227 C6221 0.930 . S
Mn6228 O6233 2.095 . S
Mn6228 O6243 2.162 . S
Mn6228 O6244 2.297 . S
Mn6228 O6252 2.385 . S
Mn6228 O6253 2.209 . S
Mn6228 O6254 2.094 . S
Mn6229 O6234 2.121 . S
Mn6229 N6236 2.257 . S
Mn6229 N6245 2.282 . S
Mn6229 O6253 2.215 . S
Mn6229 O6255 2.117 . S
C6230 O6252 1.234 . S
C6230 O6253 1.283 . S
C6231 O6243 1.281 . S
C6231 O6244 1.236 . S
C6232 O6254 1.240 . S
C6232 O6255 1.264 . S
O6233 Mn6228 2.095 . S
O6233 C6242 1.250 . S
O6234 Mn6229 2.121 . S
O6234 C6242 1.258 . S
C6235 N6236 1.326 . S
C6235 C6239 1.460 1_556 S
C6235 H6241 0.929 . S
N6236 Mn6229 2.257 . S
N6236 C6235 1.326 . S
N6236 C6240 1.362 . S
C6237 C6238 1.258 1_556 S
C6237 C6240 1.431 . S
C6237 C6257 1.449 . S
C6238 C6237 1.258 1_554 S
C6238 C6239 1.477 . S
C6238 H6258 0.931 . S
C6239 C6235 1.460 1_554 S
C6239 C6238 1.477 . S
C6239 H6259 0.930 . S
C6240 N6236 1.362 . S
C6240 C6237 1.431 . S
C6240 C6250 1.476 . S
H6241 C6235 0.929 . S
C6242 O6233 1.250 . S
C6242 O6234 1.258 . S
O6243 Mn6228 2.162 . S
O6243 C6231 1.281 . S
O6244 Mn6228 2.297 . S
O6244 C6231 1.236 . S
N6245 Mn6229 2.282 . S
N6245 C6246 1.328 . S
N6245 C6250 1.318 . S
C6246 N6245 1.328 . S
C6246 C6247 1.457 . S
C6246 H6251 0.929 . S
C6247 C6246 1.457 . S
C6247 C6248 1.291 . S
C6247 H6260 0.931 . S
C6248 C6247 1.291 . S
C6248 C6249 1.373 . S
C6248 H6261 0.929 . S
C6249 C6248 1.373 . S
C6249 C6250 1.396 . S
C6249 C6256 1.403 . S
C6250 C6240 1.476 . S
C6250 N6245 1.318 . S
C6250 C6249 1.396 . S
H6251 C6246 0.929 . S
O6252 Mn6228 2.385 . S
O6252 C6230 1.234 . S
O6253 Mn6228 2.209 . S
O6253 Mn6229 2.215 . S
O6253 C6230 1.283 . S
O6254 Mn6228 2.094 . S
O6254 C6232 1.240 . S
O6255 Mn6229 2.117 . S
O6255 C6232 1.264 . S
C6256 C6249 1.403 . S
C6256 C6257 1.399 . S
C6256 H6262 0.929 . S
C6257 C6237 1.449 . S
C6257 C6256 1.399 . S
C6257 H6263 0.930 . S
H6258 C6238 0.931 . S
H6259 C6239 0.930 . S
H6260 C6247 0.931 . S
H6261 C6248 0.929 . S
H6262 C6256 0.929 . S
H6263 C6257 0.930 . S
Mn6264 O6269 2.095 . S
Mn6264 O6279 2.162 . S
Mn6264 O6280 2.297 . S
Mn6264 O6288 2.385 . S
Mn6264 O6289 2.209 . S
Mn6264 O6290 2.094 . S
Mn6265 O6270 2.121 . S
Mn6265 N6272 2.257 . S
Mn6265 N6281 2.282 . S
Mn6265 O6289 2.215 . S
Mn6265 O6291 2.117 . S
C6266 O6288 1.234 . S
C6266 O6289 1.283 . S
C6267 O6279 1.281 . S
C6267 O6280 1.236 . S
C6268 O6290 1.240 . S
C6268 O6291 1.264 . S
O6269 Mn6264 2.095 . S
O6269 C6278 1.250 . S
O6270 Mn6265 2.121 . S
O6270 C6278 1.258 . S
C6271 N6272 1.326 . S
C6271 C6275 1.460 . S
C6271 H6277 0.929 . S
N6272 Mn6265 2.257 . S
N6272 C6271 1.326 . S
N6272 C6276 1.362 . S
C6273 C6274 1.258 . S
C6273 C6276 1.431 . S
C6273 C6293 1.449 . S
C6274 C6273 1.258 . S
C6274 C6275 1.477 . S
C6274 H6294 0.931 . S
C6275 C6271 1.460 . S
C6275 C6274 1.477 . S
C6275 H6295 0.930 . S
C6276 N6272 1.362 . S
C6276 C6273 1.431 . S
C6276 C6286 1.476 . S
H6277 C6271 0.929 . S
C6278 O6269 1.250 . S
C6278 O6270 1.258 . S
O6279 Mn6264 2.162 . S
O6279 C6267 1.281 . S
O6280 Mn6264 2.297 . S
O6280 C6267 1.236 . S
N6281 Mn6265 2.282 . S
N6281 C6282 1.328 . S
N6281 C6286 1.318 . S
C6282 N6281 1.328 . S
C6282 C6283 1.457 . S
C6282 H6287 0.929 . S
C6283 C6282 1.457 . S
C6283 C6284 1.291 . S
C6283 H6296 0.931 . S
C6284 C6283 1.291 . S
C6284 C6285 1.373 . S
C6284 H6297 0.929 . S
C6285 C6284 1.373 . S
C6285 C6286 1.396 . S
C6285 C6292 1.403 . S
C6286 C6276 1.476 . S
C6286 N6281 1.318 . S
C6286 C6285 1.396 . S
H6287 C6282 0.929 . S
O6288 Mn6264 2.385 . S
O6288 C6266 1.234 . S
O6289 Mn6264 2.209 . S
O6289 Mn6265 2.215 . S
O6289 C6266 1.283 . S
O6290 Mn6264 2.094 . S
O6290 C6268 1.240 . S
O6291 Mn6265 2.117 . S
O6291 C6268 1.264 . S
C6292 C6285 1.403 . S
C6292 C6293 1.399 . S
C6292 H6298 0.929 . S
C6293 C6273 1.449 . S
C6293 C6292 1.399 . S
C6293 H6299 0.930 . S
H6294 C6274 0.931 . S
H6295 C6275 0.930 . S
H6296 C6283 0.931 . S
H6297 C6284 0.929 . S
H6298 C6292 0.929 . S
H6299 C6293 0.930 . S
Mn6300 O6305 2.095 . S
Mn6300 O6315 2.162 . S
Mn6300 O6316 2.297 . S
Mn6300 O6324 2.385 . S
Mn6300 O6325 2.209 . S
Mn6300 O6326 2.094 . S
Mn6301 O6306 2.121 . S
Mn6301 N6308 2.257 . S
Mn6301 N6317 2.282 . S
Mn6301 O6325 2.215 . S
Mn6301 O6327 2.117 . S
C6302 O6324 1.234 . S
C6302 O6325 1.283 . S
C6303 O6315 1.281 . S
C6303 O6316 1.236 . S
C6304 O6326 1.240 . S
C6304 O6327 1.264 . S
O6305 Mn6300 2.095 . S
O6305 C6314 1.250 . S
O6306 Mn6301 2.121 . S
O6306 C6314 1.258 . S
C6307 N6308 1.326 . S
C6307 C6311 1.460 . S
C6307 H6313 0.929 . S
N6308 Mn6301 2.257 . S
N6308 C6307 1.326 . S
N6308 C6312 1.362 . S
C6309 C6310 1.258 . S
C6309 C6312 1.431 . S
C6309 C6329 1.449 . S
C6310 C6309 1.258 . S
C6310 C6311 1.477 . S
C6310 H6330 0.931 . S
C6311 C6307 1.460 . S
C6311 C6310 1.477 . S
C6311 H6331 0.930 . S
C6312 N6308 1.362 . S
C6312 C6309 1.431 . S
C6312 C6322 1.476 . S
H6313 C6307 0.929 . S
C6314 O6305 1.250 . S
C6314 O6306 1.258 . S
O6315 Mn6300 2.162 . S
O6315 C6303 1.281 . S
O6316 Mn6300 2.297 . S
O6316 C6303 1.236 . S
N6317 Mn6301 2.282 . S
N6317 C6318 1.328 . S
N6317 C6322 1.318 . S
C6318 N6317 1.328 . S
C6318 C6319 1.457 . S
C6318 H6323 0.929 . S
C6319 C6318 1.457 . S
C6319 C6320 1.291 . S
C6319 H6332 0.931 . S
C6320 C6319 1.291 . S
C6320 C6321 1.373 . S
C6320 H6333 0.929 . S
C6321 C6320 1.373 . S
C6321 C6322 1.396 . S
C6321 C6328 1.403 . S
C6322 C6312 1.476 . S
C6322 N6317 1.318 . S
C6322 C6321 1.396 . S
H6323 C6318 0.929 . S
O6324 Mn6300 2.385 . S
O6324 C6302 1.234 . S
O6325 Mn6300 2.209 . S
O6325 Mn6301 2.215 . S
O6325 C6302 1.283 . S
O6326 Mn6300 2.094 . S
O6326 C6304 1.240 . S
O6327 Mn6301 2.117 . S
O6327 C6304 1.264 . S
C6328 C6321 1.403 . S
C6328 C6329 1.399 . S
C6328 H6334 0.929 . S
C6329 C6309 1.449 . S
C6329 C6328 1.399 . S
C6329 H6335 0.930 . S
H6330 C6310 0.931 . S
H6331 C6311 0.930 . S
H6332 C6319 0.931 . S
H6333 C6320 0.929 . S
H6334 C6328 0.929 . S
H6335 C6329 0.930 . S
Mn6336 O6341 2.095 . S
Mn6336 O6351 2.162 . S
Mn6336 O6352 2.297 . S
Mn6336 O6360 2.385 . S
Mn6336 O6361 2.209 . S
Mn6336 O6362 2.094 . S
Mn6337 O6342 2.121 . S
Mn6337 N6344 2.257 . S
Mn6337 N6353 2.282 . S
Mn6337 O6361 2.215 . S
Mn6337 O6363 2.117 . S
C6338 O6360 1.234 . S
C6338 O6361 1.283 . S
C6339 O6351 1.281 . S
C6339 O6352 1.236 . S
C6340 O6362 1.240 . S
C6340 O6363 1.264 . S
O6341 Mn6336 2.095 . S
O6341 C6350 1.250 . S
O6342 Mn6337 2.121 . S
O6342 C6350 1.258 . S
C6343 N6344 1.326 . S
C6343 C6347 1.460 1_455 S
C6343 H6349 0.929 . S
N6344 Mn6337 2.257 . S
N6344 C6343 1.326 . S
N6344 C6348 1.362 . S
C6345 C6346 1.258 1_455 S
C6345 C6348 1.431 . S
C6345 C6365 1.449 . S
C6346 C6345 1.258 1_655 S
C6346 C6347 1.477 . S
C6346 H6366 0.931 . S
C6347 C6343 1.460 1_655 S
C6347 C6346 1.477 . S
C6347 H6367 0.930 . S
C6348 N6344 1.362 . S
C6348 C6345 1.431 . S
C6348 C6358 1.476 . S
H6349 C6343 0.929 . S
C6350 O6341 1.250 . S
C6350 O6342 1.258 . S
O6351 Mn6336 2.162 . S
O6351 C6339 1.281 . S
O6352 Mn6336 2.297 . S
O6352 C6339 1.236 . S
N6353 Mn6337 2.282 . S
N6353 C6354 1.328 . S
N6353 C6358 1.318 . S
C6354 N6353 1.328 . S
C6354 C6355 1.457 . S
C6354 H6359 0.929 . S
C6355 C6354 1.457 . S
C6355 C6356 1.291 . S
C6355 H6368 0.931 . S
C6356 C6355 1.291 . S
C6356 C6357 1.373 . S
C6356 H6369 0.929 . S
C6357 C6356 1.373 . S
C6357 C6358 1.396 . S
C6357 C6364 1.403 . S
C6358 C6348 1.476 . S
C6358 N6353 1.318 . S
C6358 C6357 1.396 . S
H6359 C6354 0.929 . S
O6360 Mn6336 2.385 . S
O6360 C6338 1.234 . S
O6361 Mn6336 2.209 . S
O6361 Mn6337 2.215 . S
O6361 C6338 1.283 . S
O6362 Mn6336 2.094 . S
O6362 C6340 1.240 . S
O6363 Mn6337 2.117 . S
O6363 C6340 1.264 . S
C6364 C6357 1.403 . S
C6364 C6365 1.399 . S
C6364 H6370 0.929 . S
C6365 C6345 1.449 . S
C6365 C6364 1.399 . S
C6365 H6371 0.930 . S
H6366 C6346 0.931 . S
H6367 C6347 0.930 . S
H6368 C6355 0.931 . S
H6369 C6356 0.929 . S
H6370 C6364 0.929 . S
H6371 C6365 0.930 . S
Mn6372 O6377 2.095 . S
Mn6372 O6387 2.162 . S
Mn6372 O6388 2.297 . S
Mn6372 O6396 2.385 . S
Mn6372 O6397 2.209 . S
Mn6372 O6398 2.094 . S
Mn6373 O6378 2.121 . S
Mn6373 N6380 2.257 . S
Mn6373 N6389 2.282 . S
Mn6373 O6397 2.215 . S
Mn6373 O6399 2.117 . S
C6374 O6396 1.234 . S
C6374 O6397 1.283 . S
C6375 O6387 1.281 . S
C6375 O6388 1.236 . S
C6376 O6398 1.240 . S
C6376 O6399 1.264 . S
O6377 Mn6372 2.095 . S
O6377 C6386 1.250 . S
O6378 Mn6373 2.121 . S
O6378 C6386 1.258 . S
C6379 N6380 1.326 . S
C6379 C6383 1.460 . S
C6379 H6385 0.929 . S
N6380 Mn6373 2.257 . S
N6380 C6379 1.326 . S
N6380 C6384 1.362 . S
C6381 C6382 1.258 . S
C6381 C6384 1.431 . S
C6381 C6401 1.449 . S
C6382 C6381 1.258 . S
C6382 C6383 1.477 . S
C6382 H6402 0.931 . S
C6383 C6379 1.460 . S
C6383 C6382 1.477 . S
C6383 H6403 0.930 . S
C6384 N6380 1.362 . S
C6384 C6381 1.431 . S
C6384 C6394 1.476 . S
H6385 C6379 0.929 . S
C6386 O6377 1.250 . S
C6386 O6378 1.258 . S
O6387 Mn6372 2.162 . S
O6387 C6375 1.281 . S
O6388 Mn6372 2.297 . S
O6388 C6375 1.236 . S
N6389 Mn6373 2.282 . S
N6389 C6390 1.328 . S
N6389 C6394 1.318 . S
C6390 N6389 1.328 . S
C6390 C6391 1.457 . S
C6390 H6395 0.929 . S
C6391 C6390 1.457 . S
C6391 C6392 1.291 . S
C6391 H6404 0.931 . S
C6392 C6391 1.291 . S
C6392 C6393 1.373 . S
C6392 H6405 0.929 . S
C6393 C6392 1.373 . S
C6393 C6394 1.396 . S
C6393 C6400 1.403 . S
C6394 C6384 1.476 . S
C6394 N6389 1.318 . S
C6394 C6393 1.396 . S
H6395 C6390 0.929 . S
O6396 Mn6372 2.385 . S
O6396 C6374 1.234 . S
O6397 Mn6372 2.209 . S
O6397 Mn6373 2.215 . S
O6397 C6374 1.283 . S
O6398 Mn6372 2.094 . S
O6398 C6376 1.240 . S
O6399 Mn6373 2.117 . S
O6399 C6376 1.264 . S
C6400 C6393 1.403 . S
C6400 C6401 1.399 . S
C6400 H6406 0.929 . S
C6401 C6381 1.449 . S
C6401 C6400 1.399 . S
C6401 H6407 0.930 . S
H6402 C6382 0.931 . S
H6403 C6383 0.930 . S
H6404 C6391 0.931 . S
H6405 C6392 0.929 . S
H6406 C6400 0.929 . S
H6407 C6401 0.930 . S
Mn6408 O6413 2.095 . S
Mn6408 O6423 2.162 . S
Mn6408 O6424 2.297 . S
Mn6408 O6432 2.385 . S
Mn6408 O6433 2.209 . S
Mn6408 O6434 2.094 . S
Mn6409 O6414 2.121 . S
Mn6409 N6416 2.257 . S
Mn6409 N6425 2.282 . S
Mn6409 O6433 2.215 . S
Mn6409 O6435 2.117 . S
C6410 O6432 1.234 . S
C6410 O6433 1.283 . S
C6411 O6423 1.281 . S
C6411 O6424 1.236 . S
C6412 O6434 1.240 . S
C6412 O6435 1.264 . S
O6413 Mn6408 2.095 . S
O6413 C6422 1.250 . S
O6414 Mn6409 2.121 . S
O6414 C6422 1.258 . S
C6415 N6416 1.326 . S
C6415 C6419 1.460 . S
C6415 H6421 0.929 . S
N6416 Mn6409 2.257 . S
N6416 C6415 1.326 . S
N6416 C6420 1.362 . S
C6417 C6418 1.258 . S
C6417 C6420 1.431 . S
C6417 C6437 1.449 . S
C6418 C6417 1.258 . S
C6418 C6419 1.477 . S
C6418 H6438 0.931 . S
C6419 C6415 1.460 . S
C6419 C6418 1.477 . S
C6419 H6439 0.930 . S
C6420 N6416 1.362 . S
C6420 C6417 1.431 . S
C6420 C6430 1.476 . S
H6421 C6415 0.929 . S
C6422 O6413 1.250 . S
C6422 O6414 1.258 . S
O6423 Mn6408 2.162 . S
O6423 C6411 1.281 . S
O6424 Mn6408 2.297 . S
O6424 C6411 1.236 . S
N6425 Mn6409 2.282 . S
N6425 C6426 1.328 . S
N6425 C6430 1.318 . S
C6426 N6425 1.328 . S
C6426 C6427 1.457 . S
C6426 H6431 0.929 . S
C6427 C6426 1.457 . S
C6427 C6428 1.291 . S
C6427 H6440 0.931 . S
C6428 C6427 1.291 . S
C6428 C6429 1.373 . S
C6428 H6441 0.929 . S
C6429 C6428 1.373 . S
C6429 C6430 1.396 . S
C6429 C6436 1.403 . S
C6430 C6420 1.476 . S
C6430 N6425 1.318 . S
C6430 C6429 1.396 . S
H6431 C6426 0.929 . S
O6432 Mn6408 2.385 . S
O6432 C6410 1.234 . S
O6433 Mn6408 2.209 . S
O6433 Mn6409 2.215 . S
O6433 C6410 1.283 . S
O6434 Mn6408 2.094 . S
O6434 C6412 1.240 . S
O6435 Mn6409 2.117 . S
O6435 C6412 1.264 . S
C6436 C6429 1.403 . S
C6436 C6437 1.399 . S
C6436 H6442 0.929 . S
C6437 C6417 1.449 . S
C6437 C6436 1.399 . S
C6437 H6443 0.930 . S
H6438 C6418 0.931 . S
H6439 C6419 0.930 . S
H6440 C6427 0.931 . S
H6441 C6428 0.929 . S
H6442 C6436 0.929 . S
H6443 C6437 0.930 . S
Mn6444 O6449 2.095 . S
Mn6444 O6459 2.162 . S
Mn6444 O6460 2.297 . S
Mn6444 O6468 2.385 . S
Mn6444 O6469 2.209 . S
Mn6444 O6470 2.094 . S
Mn6445 O6450 2.121 . S
Mn6445 N6452 2.257 . S
Mn6445 N6461 2.282 . S
Mn6445 O6469 2.215 . S
Mn6445 O6471 2.117 . S
C6446 O6468 1.234 . S
C6446 O6469 1.283 . S
C6447 O6459 1.281 . S
C6447 O6460 1.236 . S
C6448 O6470 1.240 . S
C6448 O6471 1.264 . S
O6449 Mn6444 2.095 . S
O6449 C6458 1.250 . S
O6450 Mn6445 2.121 . S
O6450 C6458 1.258 . S
C6451 N6452 1.326 . S
C6451 C6455 1.460 1_565 S
C6451 H6457 0.929 . S
N6452 Mn6445 2.257 . S
N6452 C6451 1.326 . S
N6452 C6456 1.362 . S
C6453 C6454 1.258 1_565 S
C6453 C6456 1.431 . S
C6453 C6473 1.449 . S
C6454 C6453 1.258 1_545 S
C6454 C6455 1.477 . S
C6454 H6474 0.931 . S
C6455 C6451 1.460 1_545 S
C6455 C6454 1.477 . S
C6455 H6475 0.930 . S
C6456 N6452 1.362 . S
C6456 C6453 1.431 . S
C6456 C6466 1.476 . S
H6457 C6451 0.929 . S
C6458 O6449 1.250 . S
C6458 O6450 1.258 . S
O6459 Mn6444 2.162 . S
O6459 C6447 1.281 . S
O6460 Mn6444 2.297 . S
O6460 C6447 1.236 . S
N6461 Mn6445 2.282 . S
N6461 C6462 1.328 . S
N6461 C6466 1.318 . S
C6462 N6461 1.328 . S
C6462 C6463 1.457 . S
C6462 H6467 0.929 . S
C6463 C6462 1.457 . S
C6463 C6464 1.291 . S
C6463 H6476 0.931 . S
C6464 C6463 1.291 . S
C6464 C6465 1.373 . S
C6464 H6477 0.929 . S
C6465 C6464 1.373 . S
C6465 C6466 1.396 . S
C6465 C6472 1.403 . S
C6466 C6456 1.476 . S
C6466 N6461 1.318 . S
C6466 C6465 1.396 . S
H6467 C6462 0.929 . S
O6468 Mn6444 2.385 . S
O6468 C6446 1.234 . S
O6469 Mn6444 2.209 . S
O6469 Mn6445 2.215 . S
O6469 C6446 1.283 . S
O6470 Mn6444 2.094 . S
O6470 C6448 1.240 . S
O6471 Mn6445 2.117 . S
O6471 C6448 1.264 . S
C6472 C6465 1.403 . S
C6472 C6473 1.399 . S
C6472 H6478 0.929 . S
C6473 C6453 1.449 . S
C6473 C6472 1.399 . S
C6473 H6479 0.930 . S
H6474 C6454 0.931 . S
H6475 C6455 0.930 . S
H6476 C6463 0.931 . S
H6477 C6464 0.929 . S
H6478 C6472 0.929 . S
H6479 C6473 0.930 . S
Mn6480 O6485 2.095 . S
Mn6480 O6495 2.162 . S
Mn6480 O6496 2.297 . S
Mn6480 O6504 2.385 . S
Mn6480 O6505 2.209 . S
Mn6480 O6506 2.094 . S
Mn6481 O6486 2.121 . S
Mn6481 N6488 2.257 . S
Mn6481 N6497 2.282 . S
Mn6481 O6505 2.215 . S
Mn6481 O6507 2.117 . S
C6482 O6504 1.234 . S
C6482 O6505 1.283 . S
C6483 O6495 1.281 . S
C6483 O6496 1.236 . S
C6484 O6506 1.240 . S
C6484 O6507 1.264 . S
O6485 Mn6480 2.095 . S
O6485 C6494 1.250 . S
O6486 Mn6481 2.121 . S
O6486 C6494 1.258 . S
C6487 N6488 1.326 . S
C6487 C6491 1.460 1_455 S
C6487 H6493 0.929 . S
N6488 Mn6481 2.257 . S
N6488 C6487 1.326 . S
N6488 C6492 1.362 . S
C6489 C6490 1.258 1_455 S
C6489 C6492 1.431 . S
C6489 C6509 1.449 . S
C6490 C6489 1.258 1_655 S
C6490 C6491 1.477 . S
C6490 H6510 0.931 . S
C6491 C6487 1.460 1_655 S
C6491 C6490 1.477 . S
C6491 H6511 0.930 . S
C6492 N6488 1.362 . S
C6492 C6489 1.431 . S
C6492 C6502 1.476 . S
H6493 C6487 0.929 . S
C6494 O6485 1.250 . S
C6494 O6486 1.258 . S
O6495 Mn6480 2.162 . S
O6495 C6483 1.281 . S
O6496 Mn6480 2.297 . S
O6496 C6483 1.236 . S
N6497 Mn6481 2.282 . S
N6497 C6498 1.328 . S
N6497 C6502 1.318 . S
C6498 N6497 1.328 . S
C6498 C6499 1.457 . S
C6498 H6503 0.929 . S
C6499 C6498 1.457 . S
C6499 C6500 1.291 . S
C6499 H6512 0.931 . S
C6500 C6499 1.291 . S
C6500 C6501 1.373 . S
C6500 H6513 0.929 . S
C6501 C6500 1.373 . S
C6501 C6502 1.396 . S
C6501 C6508 1.403 . S
C6502 C6492 1.476 . S
C6502 N6497 1.318 . S
C6502 C6501 1.396 . S
H6503 C6498 0.929 . S
O6504 Mn6480 2.385 . S
O6504 C6482 1.234 . S
O6505 Mn6480 2.209 . S
O6505 Mn6481 2.215 . S
O6505 C6482 1.283 . S
O6506 Mn6480 2.094 . S
O6506 C6484 1.240 . S
O6507 Mn6481 2.117 . S
O6507 C6484 1.264 . S
C6508 C6501 1.403 . S
C6508 C6509 1.399 . S
C6508 H6514 0.929 . S
C6509 C6489 1.449 . S
C6509 C6508 1.399 . S
C6509 H6515 0.930 . S
H6510 C6490 0.931 . S
H6511 C6491 0.930 . S
H6512 C6499 0.931 . S
H6513 C6500 0.929 . S
H6514 C6508 0.929 . S
H6515 C6509 0.930 . S
Mn6516 O6521 2.095 . S
Mn6516 O6531 2.162 . S
Mn6516 O6532 2.297 . S
Mn6516 O6540 2.385 . S
Mn6516 O6541 2.209 . S
Mn6516 O6542 2.094 . S
Mn6517 O6522 2.121 . S
Mn6517 N6524 2.257 . S
Mn6517 N6533 2.282 . S
Mn6517 O6541 2.215 . S
Mn6517 O6543 2.117 . S
C6518 O6540 1.234 . S
C6518 O6541 1.283 . S
C6519 O6531 1.281 . S
C6519 O6532 1.236 . S
C6520 O6542 1.240 . S
C6520 O6543 1.264 . S
O6521 Mn6516 2.095 . S
O6521 C6530 1.250 . S
O6522 Mn6517 2.121 . S
O6522 C6530 1.258 . S
C6523 N6524 1.326 . S
C6523 C6527 1.460 . S
C6523 H6529 0.929 . S
N6524 Mn6517 2.257 . S
N6524 C6523 1.326 . S
N6524 C6528 1.362 . S
C6525 C6526 1.258 . S
C6525 C6528 1.431 . S
C6525 C6545 1.449 . S
C6526 C6525 1.258 . S
C6526 C6527 1.477 . S
C6526 H6546 0.931 . S
C6527 C6523 1.460 . S
C6527 C6526 1.477 . S
C6527 H6547 0.930 . S
C6528 N6524 1.362 . S
C6528 C6525 1.431 . S
C6528 C6538 1.476 . S
H6529 C6523 0.929 . S
C6530 O6521 1.250 . S
C6530 O6522 1.258 . S
O6531 Mn6516 2.162 . S
O6531 C6519 1.281 . S
O6532 Mn6516 2.297 . S
O6532 C6519 1.236 . S
N6533 Mn6517 2.282 . S
N6533 C6534 1.328 . S
N6533 C6538 1.318 . S
C6534 N6533 1.328 . S
C6534 C6535 1.457 . S
C6534 H6539 0.929 . S
C6535 C6534 1.457 . S
C6535 C6536 1.291 . S
C6535 H6548 0.931 . S
C6536 C6535 1.291 . S
C6536 C6537 1.373 . S
C6536 H6549 0.929 . S
C6537 C6536 1.373 . S
C6537 C6538 1.396 . S
C6537 C6544 1.403 . S
C6538 C6528 1.476 . S
C6538 N6533 1.318 . S
C6538 C6537 1.396 . S
H6539 C6534 0.929 . S
O6540 Mn6516 2.385 . S
O6540 C6518 1.234 . S
O6541 Mn6516 2.209 . S
O6541 Mn6517 2.215 . S
O6541 C6518 1.283 . S
O6542 Mn6516 2.094 . S
O6542 C6520 1.240 . S
O6543 Mn6517 2.117 . S
O6543 C6520 1.264 . S
C6544 C6537 1.403 . S
C6544 C6545 1.399 . S
C6544 H6550 0.929 . S
C6545 C6525 1.449 . S
C6545 C6544 1.399 . S
C6545 H6551 0.930 . S
H6546 C6526 0.931 . S
H6547 C6527 0.930 . S
H6548 C6535 0.931 . S
H6549 C6536 0.929 . S
H6550 C6544 0.929 . S
H6551 C6545 0.930 . S
Mn6552 O6557 2.095 . S
Mn6552 O6567 2.162 . S
Mn6552 O6568 2.297 . S
Mn6552 O6576 2.385 . S
Mn6552 O6577 2.209 . S
Mn6552 O6578 2.094 . S
Mn6553 O6558 2.121 . S
Mn6553 N6560 2.257 . S
Mn6553 N6569 2.282 . S
Mn6553 O6577 2.215 . S
Mn6553 O6579 2.117 . S
C6554 O6576 1.234 . S
C6554 O6577 1.283 . S
C6555 O6567 1.281 . S
C6555 O6568 1.236 . S
C6556 O6578 1.240 . S
C6556 O6579 1.264 . S
O6557 Mn6552 2.095 . S
O6557 C6566 1.250 . S
O6558 Mn6553 2.121 . S
O6558 C6566 1.258 . S
C6559 N6560 1.326 . S
C6559 C6563 1.460 . S
C6559 H6565 0.929 . S
N6560 Mn6553 2.257 . S
N6560 C6559 1.326 . S
N6560 C6564 1.362 . S
C6561 C6562 1.258 . S
C6561 C6564 1.431 . S
C6561 C6581 1.449 . S
C6562 C6561 1.258 . S
C6562 C6563 1.477 . S
C6562 H6582 0.931 . S
C6563 C6559 1.460 . S
C6563 C6562 1.477 . S
C6563 H6583 0.930 . S
C6564 N6560 1.362 . S
C6564 C6561 1.431 . S
C6564 C6574 1.476 . S
H6565 C6559 0.929 . S
C6566 O6557 1.250 . S
C6566 O6558 1.258 . S
O6567 Mn6552 2.162 . S
O6567 C6555 1.281 . S
O6568 Mn6552 2.297 . S
O6568 C6555 1.236 . S
N6569 Mn6553 2.282 . S
N6569 C6570 1.328 . S
N6569 C6574 1.318 . S
C6570 N6569 1.328 . S
C6570 C6571 1.457 . S
C6570 H6575 0.929 . S
C6571 C6570 1.457 . S
C6571 C6572 1.291 . S
C6571 H6584 0.931 . S
C6572 C6571 1.291 . S
C6572 C6573 1.373 . S
C6572 H6585 0.929 . S
C6573 C6572 1.373 . S
C6573 C6574 1.396 . S
C6573 C6580 1.403 . S
C6574 C6564 1.476 . S
C6574 N6569 1.318 . S
C6574 C6573 1.396 . S
H6575 C6570 0.929 . S
O6576 Mn6552 2.385 . S
O6576 C6554 1.234 . S
O6577 Mn6552 2.209 . S
O6577 Mn6553 2.215 . S
O6577 C6554 1.283 . S
O6578 Mn6552 2.094 . S
O6578 C6556 1.240 . S
O6579 Mn6553 2.117 . S
O6579 C6556 1.264 . S
C6580 C6573 1.403 . S
C6580 C6581 1.399 . S
C6580 H6586 0.929 . S
C6581 C6561 1.449 . S
C6581 C6580 1.399 . S
C6581 H6587 0.930 . S
H6582 C6562 0.931 . S
H6583 C6563 0.930 . S
H6584 C6571 0.931 . S
H6585 C6572 0.929 . S
H6586 C6580 0.929 . S
H6587 C6581 0.930 . S
Mn6588 O6593 2.095 . S
Mn6588 O6603 2.162 . S
Mn6588 O6604 2.297 . S
Mn6588 O6612 2.385 . S
Mn6588 O6613 2.209 . S
Mn6588 O6614 2.094 . S
Mn6589 O6594 2.121 . S
Mn6589 N6596 2.257 . S
Mn6589 N6605 2.282 . S
Mn6589 O6613 2.215 . S
Mn6589 O6615 2.117 . S
C6590 O6612 1.234 . S
C6590 O6613 1.283 . S
C6591 O6603 1.281 . S
C6591 O6604 1.236 . S
C6592 O6614 1.240 . S
C6592 O6615 1.264 . S
O6593 Mn6588 2.095 . S
O6593 C6602 1.250 . S
O6594 Mn6589 2.121 . S
O6594 C6602 1.258 . S
C6595 N6596 1.326 . S
C6595 C6599 1.460 1_565 S
C6595 H6601 0.929 . S
N6596 Mn6589 2.257 . S
N6596 C6595 1.326 . S
N6596 C6600 1.362 . S
C6597 C6598 1.258 1_565 S
C6597 C6600 1.431 . S
C6597 C6617 1.449 . S
C6598 C6597 1.258 1_545 S
C6598 C6599 1.477 . S
C6598 H6618 0.931 . S
C6599 C6595 1.460 1_545 S
C6599 C6598 1.477 . S
C6599 H6619 0.930 . S
C6600 N6596 1.362 . S
C6600 C6597 1.431 . S
C6600 C6610 1.476 . S
H6601 C6595 0.929 . S
C6602 O6593 1.250 . S
C6602 O6594 1.258 . S
O6603 Mn6588 2.162 . S
O6603 C6591 1.281 . S
O6604 Mn6588 2.297 . S
O6604 C6591 1.236 . S
N6605 Mn6589 2.282 . S
N6605 C6606 1.328 . S
N6605 C6610 1.318 . S
C6606 N6605 1.328 . S
C6606 C6607 1.457 . S
C6606 H6611 0.929 . S
C6607 C6606 1.457 . S
C6607 C6608 1.291 . S
C6607 H6620 0.931 . S
C6608 C6607 1.291 . S
C6608 C6609 1.373 . S
C6608 H6621 0.929 . S
C6609 C6608 1.373 . S
C6609 C6610 1.396 . S
C6609 C6616 1.403 . S
C6610 C6600 1.476 . S
C6610 N6605 1.318 . S
C6610 C6609 1.396 . S
H6611 C6606 0.929 . S
O6612 Mn6588 2.385 . S
O6612 C6590 1.234 . S
O6613 Mn6588 2.209 . S
O6613 Mn6589 2.215 . S
O6613 C6590 1.283 . S
O6614 Mn6588 2.094 . S
O6614 C6592 1.240 . S
O6615 Mn6589 2.117 . S
O6615 C6592 1.264 . S
C6616 C6609 1.403 . S
C6616 C6617 1.399 . S
C6616 H6622 0.929 . S
C6617 C6597 1.449 . S
C6617 C6616 1.399 . S
C6617 H6623 0.930 . S
H6618 C6598 0.931 . S
H6619 C6599 0.930 . S
H6620 C6607 0.931 . S
H6621 C6608 0.929 . S
H6622 C6616 0.929 . S
H6623 C6617 0.930 . S
Mn6624 O6629 2.095 . S
Mn6624 O6639 2.162 . S
Mn6624 O6640 2.297 . S
Mn6624 O6648 2.385 . S
Mn6624 O6649 2.209 . S
Mn6624 O6650 2.094 . S
Mn6625 O6630 2.121 . S
Mn6625 N6632 2.257 . S
Mn6625 N6641 2.282 . S
Mn6625 O6649 2.215 . S
Mn6625 O6651 2.117 . S
C6626 O6648 1.234 . S
C6626 O6649 1.283 . S
C6627 O6639 1.281 . S
C6627 O6640 1.236 . S
C6628 O6650 1.240 . S
C6628 O6651 1.264 . S
O6629 Mn6624 2.095 . S
O6629 C6638 1.250 . S
O6630 Mn6625 2.121 . S
O6630 C6638 1.258 . S
C6631 N6632 1.326 . S
C6631 C6635 1.460 1_545 S
C6631 H6637 0.929 . S
N6632 Mn6625 2.257 . S
N6632 C6631 1.326 . S
N6632 C6636 1.362 . S
C6633 C6634 1.258 1_545 S
C6633 C6636 1.431 . S
C6633 C6653 1.449 . S
C6634 C6633 1.258 1_565 S
C6634 C6635 1.477 . S
C6634 H6654 0.931 . S
C6635 C6631 1.460 1_565 S
C6635 C6634 1.477 . S
C6635 H6655 0.930 . S
C6636 N6632 1.362 . S
C6636 C6633 1.431 . S
C6636 C6646 1.476 . S
H6637 C6631 0.929 . S
C6638 O6629 1.250 . S
C6638 O6630 1.258 . S
O6639 Mn6624 2.162 . S
O6639 C6627 1.281 . S
O6640 Mn6624 2.297 . S
O6640 C6627 1.236 . S
N6641 Mn6625 2.282 . S
N6641 C6642 1.328 . S
N6641 C6646 1.318 . S
C6642 N6641 1.328 . S
C6642 C6643 1.457 . S
C6642 H6647 0.929 . S
C6643 C6642 1.457 . S
C6643 C6644 1.291 . S
C6643 H6656 0.931 . S
C6644 C6643 1.291 . S
C6644 C6645 1.373 . S
C6644 H6657 0.929 . S
C6645 C6644 1.373 . S
C6645 C6646 1.396 . S
C6645 C6652 1.403 . S
C6646 C6636 1.476 . S
C6646 N6641 1.318 . S
C6646 C6645 1.396 . S
H6647 C6642 0.929 . S
O6648 Mn6624 2.385 . S
O6648 C6626 1.234 . S
O6649 Mn6624 2.209 . S
O6649 Mn6625 2.215 . S
O6649 C6626 1.283 . S
O6650 Mn6624 2.094 . S
O6650 C6628 1.240 . S
O6651 Mn6625 2.117 . S
O6651 C6628 1.264 . S
C6652 C6645 1.403 . S
C6652 C6653 1.399 . S
C6652 H6658 0.929 . S
C6653 C6633 1.449 . S
C6653 C6652 1.399 . S
C6653 H6659 0.930 . S
H6654 C6634 0.931 . S
H6655 C6635 0.930 . S
H6656 C6643 0.931 . S
H6657 C6644 0.929 . S
H6658 C6652 0.929 . S
H6659 C6653 0.930 . S
Mn6660 O6665 2.095 . S
Mn6660 O6675 2.162 . S
Mn6660 O6676 2.297 . S
Mn6660 O6684 2.385 . S
Mn6660 O6685 2.209 . S
Mn6660 O6686 2.094 . S
Mn6661 O6666 2.121 . S
Mn6661 N6668 2.257 . S
Mn6661 N6677 2.282 . S
Mn6661 O6685 2.215 . S
Mn6661 O6687 2.117 . S
C6662 O6684 1.234 . S
C6662 O6685 1.283 . S
C6663 O6675 1.281 . S
C6663 O6676 1.236 . S
C6664 O6686 1.240 . S
C6664 O6687 1.264 . S
O6665 Mn6660 2.095 . S
O6665 C6674 1.250 . S
O6666 Mn6661 2.121 . S
O6666 C6674 1.258 . S
C6667 N6668 1.326 . S
C6667 C6671 1.460 . S
C6667 H6673 0.929 . S
N6668 Mn6661 2.257 . S
N6668 C6667 1.326 . S
N6668 C6672 1.362 . S
C6669 C6670 1.258 . S
C6669 C6672 1.431 . S
C6669 C6689 1.449 . S
C6670 C6669 1.258 . S
C6670 C6671 1.477 . S
C6670 H6690 0.931 . S
C6671 C6667 1.460 . S
C6671 C6670 1.477 . S
C6671 H6691 0.930 . S
C6672 N6668 1.362 . S
C6672 C6669 1.431 . S
C6672 C6682 1.476 . S
H6673 C6667 0.929 . S
C6674 O6665 1.250 . S
C6674 O6666 1.258 . S
O6675 Mn6660 2.162 . S
O6675 C6663 1.281 . S
O6676 Mn6660 2.297 . S
O6676 C6663 1.236 . S
N6677 Mn6661 2.282 . S
N6677 C6678 1.328 . S
N6677 C6682 1.318 . S
C6678 N6677 1.328 . S
C6678 C6679 1.457 . S
C6678 H6683 0.929 . S
C6679 C6678 1.457 . S
C6679 C6680 1.291 . S
C6679 H6692 0.931 . S
C6680 C6679 1.291 . S
C6680 C6681 1.373 . S
C6680 H6693 0.929 . S
C6681 C6680 1.373 . S
C6681 C6682 1.396 . S
C6681 C6688 1.403 . S
C6682 C6672 1.476 . S
C6682 N6677 1.318 . S
C6682 C6681 1.396 . S
H6683 C6678 0.929 . S
O6684 Mn6660 2.385 . S
O6684 C6662 1.234 . S
O6685 Mn6660 2.209 . S
O6685 Mn6661 2.215 . S
O6685 C6662 1.283 . S
O6686 Mn6660 2.094 . S
O6686 C6664 1.240 . S
O6687 Mn6661 2.117 . S
O6687 C6664 1.264 . S
C6688 C6681 1.403 . S
C6688 C6689 1.399 . S
C6688 H6694 0.929 . S
C6689 C6669 1.449 . S
C6689 C6688 1.399 . S
C6689 H6695 0.930 . S
H6690 C6670 0.931 . S
H6691 C6671 0.930 . S
H6692 C6679 0.931 . S
H6693 C6680 0.929 . S
H6694 C6688 0.929 . S
H6695 C6689 0.930 . S
Mn6696 O6701 2.095 . S
Mn6696 O6711 2.162 . S
Mn6696 O6712 2.297 . S
Mn6696 O6720 2.385 . S
Mn6696 O6721 2.209 . S
Mn6696 O6722 2.094 . S
Mn6697 O6702 2.121 . S
Mn6697 N6704 2.257 . S
Mn6697 N6713 2.282 . S
Mn6697 O6721 2.215 . S
Mn6697 O6723 2.117 . S
C6698 O6720 1.234 . S
C6698 O6721 1.283 . S
C6699 O6711 1.281 . S
C6699 O6712 1.236 . S
C6700 O6722 1.240 . S
C6700 O6723 1.264 . S
O6701 Mn6696 2.095 . S
O6701 C6710 1.250 . S
O6702 Mn6697 2.121 . S
O6702 C6710 1.258 . S
C6703 N6704 1.326 . S
C6703 C6707 1.460 . S
C6703 H6709 0.929 . S
N6704 Mn6697 2.257 . S
N6704 C6703 1.326 . S
N6704 C6708 1.362 . S
C6705 C6706 1.258 . S
C6705 C6708 1.431 . S
C6705 C6725 1.449 . S
C6706 C6705 1.258 . S
C6706 C6707 1.477 . S
C6706 H6726 0.931 . S
C6707 C6703 1.460 . S
C6707 C6706 1.477 . S
C6707 H6727 0.930 . S
C6708 N6704 1.362 . S
C6708 C6705 1.431 . S
C6708 C6718 1.476 . S
H6709 C6703 0.929 . S
C6710 O6701 1.250 . S
C6710 O6702 1.258 . S
O6711 Mn6696 2.162 . S
O6711 C6699 1.281 . S
O6712 Mn6696 2.297 . S
O6712 C6699 1.236 . S
N6713 Mn6697 2.282 . S
N6713 C6714 1.328 . S
N6713 C6718 1.318 . S
C6714 N6713 1.328 . S
C6714 C6715 1.457 . S
C6714 H6719 0.929 . S
C6715 C6714 1.457 . S
C6715 C6716 1.291 . S
C6715 H6728 0.931 . S
C6716 C6715 1.291 . S
C6716 C6717 1.373 . S
C6716 H6729 0.929 . S
C6717 C6716 1.373 . S
C6717 C6718 1.396 . S
C6717 C6724 1.403 . S
C6718 C6708 1.476 . S
C6718 N6713 1.318 . S
C6718 C6717 1.396 . S
H6719 C6714 0.929 . S
O6720 Mn6696 2.385 . S
O6720 C6698 1.234 . S
O6721 Mn6696 2.209 . S
O6721 Mn6697 2.215 . S
O6721 C6698 1.283 . S
O6722 Mn6696 2.094 . S
O6722 C6700 1.240 . S
O6723 Mn6697 2.117 . S
O6723 C6700 1.264 . S
C6724 C6717 1.403 . S
C6724 C6725 1.399 . S
C6724 H6730 0.929 . S
C6725 C6705 1.449 . S
C6725 C6724 1.399 . S
C6725 H6731 0.930 . S
H6726 C6706 0.931 . S
H6727 C6707 0.930 . S
H6728 C6715 0.931 . S
H6729 C6716 0.929 . S
H6730 C6724 0.929 . S
H6731 C6725 0.930 . S
Mn6732 O6737 2.095 . S
Mn6732 O6747 2.162 . S
Mn6732 O6748 2.297 . S
Mn6732 O6756 2.385 . S
Mn6732 O6757 2.209 . S
Mn6732 O6758 2.094 . S
Mn6733 O6738 2.121 . S
Mn6733 N6740 2.257 . S
Mn6733 N6749 2.282 . S
Mn6733 O6757 2.215 . S
Mn6733 O6759 2.117 . S
C6734 O6756 1.234 . S
C6734 O6757 1.283 . S
C6735 O6747 1.281 . S
C6735 O6748 1.236 . S
C6736 O6758 1.240 . S
C6736 O6759 1.264 . S
O6737 Mn6732 2.095 . S
O6737 C6746 1.250 . S
O6738 Mn6733 2.121 . S
O6738 C6746 1.258 . S
C6739 N6740 1.326 . S
C6739 C6743 1.460 . S
C6739 H6745 0.929 . S
N6740 Mn6733 2.257 . S
N6740 C6739 1.326 . S
N6740 C6744 1.362 . S
C6741 C6742 1.258 . S
C6741 C6744 1.431 . S
C6741 C6761 1.449 . S
C6742 C6741 1.258 . S
C6742 C6743 1.477 . S
C6742 H6762 0.931 . S
C6743 C6739 1.460 . S
C6743 C6742 1.477 . S
C6743 H6763 0.930 . S
C6744 N6740 1.362 . S
C6744 C6741 1.431 . S
C6744 C6754 1.476 . S
H6745 C6739 0.929 . S
C6746 O6737 1.250 . S
C6746 O6738 1.258 . S
O6747 Mn6732 2.162 . S
O6747 C6735 1.281 . S
O6748 Mn6732 2.297 . S
O6748 C6735 1.236 . S
N6749 Mn6733 2.282 . S
N6749 C6750 1.328 . S
N6749 C6754 1.318 . S
C6750 N6749 1.328 . S
C6750 C6751 1.457 . S
C6750 H6755 0.929 . S
C6751 C6750 1.457 . S
C6751 C6752 1.291 . S
C6751 H6764 0.931 . S
C6752 C6751 1.291 . S
C6752 C6753 1.373 . S
C6752 H6765 0.929 . S
C6753 C6752 1.373 . S
C6753 C6754 1.396 . S
C6753 C6760 1.403 . S
C6754 C6744 1.476 . S
C6754 N6749 1.318 . S
C6754 C6753 1.396 . S
H6755 C6750 0.929 . S
O6756 Mn6732 2.385 . S
O6756 C6734 1.234 . S
O6757 Mn6732 2.209 . S
O6757 Mn6733 2.215 . S
O6757 C6734 1.283 . S
O6758 Mn6732 2.094 . S
O6758 C6736 1.240 . S
O6759 Mn6733 2.117 . S
O6759 C6736 1.264 . S
C6760 C6753 1.403 . S
C6760 C6761 1.399 . S
C6760 H6766 0.929 . S
C6761 C6741 1.449 . S
C6761 C6760 1.399 . S
C6761 H6767 0.930 . S
H6762 C6742 0.931 . S
H6763 C6743 0.930 . S
H6764 C6751 0.931 . S
H6765 C6752 0.929 . S
H6766 C6760 0.929 . S
H6767 C6761 0.930 . S
Mn6768 O6773 2.095 . S
Mn6768 O6783 2.162 . S
Mn6768 O6784 2.297 . S
Mn6768 O6792 2.385 . S
Mn6768 O6793 2.209 . S
Mn6768 O6794 2.094 . S
Mn6769 O6774 2.121 . S
Mn6769 N6776 2.257 . S
Mn6769 N6785 2.282 . S
Mn6769 O6793 2.215 . S
Mn6769 O6795 2.117 . S
C6770 O6792 1.234 . S
C6770 O6793 1.283 . S
C6771 O6783 1.281 . S
C6771 O6784 1.236 . S
C6772 O6794 1.240 . S
C6772 O6795 1.264 . S
O6773 Mn6768 2.095 . S
O6773 C6782 1.250 . S
O6774 Mn6769 2.121 . S
O6774 C6782 1.258 . S
C6775 N6776 1.326 . S
C6775 C6779 1.460 1_655 S
C6775 H6781 0.929 . S
N6776 Mn6769 2.257 . S
N6776 C6775 1.326 . S
N6776 C6780 1.362 . S
C6777 C6778 1.258 1_655 S
C6777 C6780 1.431 . S
C6777 C6797 1.449 . S
C6778 C6777 1.258 1_455 S
C6778 C6779 1.477 . S
C6778 H6798 0.931 . S
C6779 C6775 1.460 1_455 S
C6779 C6778 1.477 . S
C6779 H6799 0.930 . S
C6780 N6776 1.362 . S
C6780 C6777 1.431 . S
C6780 C6790 1.476 . S
H6781 C6775 0.929 . S
C6782 O6773 1.250 . S
C6782 O6774 1.258 . S
O6783 Mn6768 2.162 . S
O6783 C6771 1.281 . S
O6784 Mn6768 2.297 . S
O6784 C6771 1.236 . S
N6785 Mn6769 2.282 . S
N6785 C6786 1.328 . S
N6785 C6790 1.318 . S
C6786 N6785 1.328 . S
C6786 C6787 1.457 . S
C6786 H6791 0.929 . S
C6787 C6786 1.457 . S
C6787 C6788 1.291 . S
C6787 H6800 0.931 . S
C6788 C6787 1.291 . S
C6788 C6789 1.373 . S
C6788 H6801 0.929 . S
C6789 C6788 1.373 . S
C6789 C6790 1.396 . S
C6789 C6796 1.403 . S
C6790 C6780 1.476 . S
C6790 N6785 1.318 . S
C6790 C6789 1.396 . S
H6791 C6786 0.929 . S
O6792 Mn6768 2.385 . S
O6792 C6770 1.234 . S
O6793 Mn6768 2.209 . S
O6793 Mn6769 2.215 . S
O6793 C6770 1.283 . S
O6794 Mn6768 2.094 . S
O6794 C6772 1.240 . S
O6795 Mn6769 2.117 . S
O6795 C6772 1.264 . S
C6796 C6789 1.403 . S
C6796 C6797 1.399 . S
C6796 H6802 0.929 . S
C6797 C6777 1.449 . S
C6797 C6796 1.399 . S
C6797 H6803 0.930 . S
H6798 C6778 0.931 . S
H6799 C6779 0.930 . S
H6800 C6787 0.931 . S
H6801 C6788 0.929 . S
H6802 C6796 0.929 . S
H6803 C6797 0.930 . S
Mn6804 O6809 2.095 . S
Mn6804 O6819 2.162 . S
Mn6804 O6820 2.297 . S
Mn6804 O6828 2.385 . S
Mn6804 O6829 2.209 . S
Mn6804 O6830 2.094 . S
Mn6805 O6810 2.121 . S
Mn6805 N6812 2.257 . S
Mn6805 N6821 2.282 . S
Mn6805 O6829 2.215 . S
Mn6805 O6831 2.117 . S
C6806 O6828 1.234 . S
C6806 O6829 1.283 . S
C6807 O6819 1.281 . S
C6807 O6820 1.236 . S
C6808 O6830 1.240 . S
C6808 O6831 1.264 . S
O6809 Mn6804 2.095 . S
O6809 C6818 1.250 . S
O6810 Mn6805 2.121 . S
O6810 C6818 1.258 . S
C6811 N6812 1.326 . S
C6811 C6815 1.460 . S
C6811 H6817 0.929 . S
N6812 Mn6805 2.257 . S
N6812 C6811 1.326 . S
N6812 C6816 1.362 . S
C6813 C6814 1.258 . S
C6813 C6816 1.431 . S
C6813 C6833 1.449 . S
C6814 C6813 1.258 . S
C6814 C6815 1.477 . S
C6814 H6834 0.931 . S
C6815 C6811 1.460 . S
C6815 C6814 1.477 . S
C6815 H6835 0.930 . S
C6816 N6812 1.362 . S
C6816 C6813 1.431 . S
C6816 C6826 1.476 . S
H6817 C6811 0.929 . S
C6818 O6809 1.250 . S
C6818 O6810 1.258 . S
O6819 Mn6804 2.162 . S
O6819 C6807 1.281 . S
O6820 Mn6804 2.297 . S
O6820 C6807 1.236 . S
N6821 Mn6805 2.282 . S
N6821 C6822 1.328 . S
N6821 C6826 1.318 . S
C6822 N6821 1.328 . S
C6822 C6823 1.457 . S
C6822 H6827 0.929 . S
C6823 C6822 1.457 . S
C6823 C6824 1.291 . S
C6823 H6836 0.931 . S
C6824 C6823 1.291 . S
C6824 C6825 1.373 . S
C6824 H6837 0.929 . S
C6825 C6824 1.373 . S
C6825 C6826 1.396 . S
C6825 C6832 1.403 . S
C6826 C6816 1.476 . S
C6826 N6821 1.318 . S
C6826 C6825 1.396 . S
H6827 C6822 0.929 . S
O6828 Mn6804 2.385 . S
O6828 C6806 1.234 . S
O6829 Mn6804 2.209 . S
O6829 Mn6805 2.215 . S
O6829 C6806 1.283 . S
O6830 Mn6804 2.094 . S
O6830 C6808 1.240 . S
O6831 Mn6805 2.117 . S
O6831 C6808 1.264 . S
C6832 C6825 1.403 . S
C6832 C6833 1.399 . S
C6832 H6838 0.929 . S
C6833 C6813 1.449 . S
C6833 C6832 1.399 . S
C6833 H6839 0.930 . S
H6834 C6814 0.931 . S
H6835 C6815 0.930 . S
H6836 C6823 0.931 . S
H6837 C6824 0.929 . S
H6838 C6832 0.929 . S
H6839 C6833 0.930 . S
Mn6840 O6845 2.095 . S
Mn6840 O6855 2.162 . S
Mn6840 O6856 2.297 . S
Mn6840 O6864 2.385 . S
Mn6840 O6865 2.209 . S
Mn6840 O6866 2.094 . S
Mn6841 O6846 2.121 . S
Mn6841 N6848 2.257 . S
Mn6841 N6857 2.282 . S
Mn6841 O6865 2.215 . S
Mn6841 O6867 2.117 . S
C6842 O6864 1.234 . S
C6842 O6865 1.283 . S
C6843 O6855 1.281 . S
C6843 O6856 1.236 . S
C6844 O6866 1.240 . S
C6844 O6867 1.264 . S
O6845 Mn6840 2.095 . S
O6845 C6854 1.250 . S
O6846 Mn6841 2.121 . S
O6846 C6854 1.258 . S
C6847 N6848 1.326 . S
C6847 C6851 1.460 . S
C6847 H6853 0.929 . S
N6848 Mn6841 2.257 . S
N6848 C6847 1.326 . S
N6848 C6852 1.362 . S
C6849 C6850 1.258 . S
C6849 C6852 1.431 . S
C6849 C6869 1.449 . S
C6850 C6849 1.258 . S
C6850 C6851 1.477 . S
C6850 H6870 0.931 . S
C6851 C6847 1.460 . S
C6851 C6850 1.477 . S
C6851 H6871 0.930 . S
C6852 N6848 1.362 . S
C6852 C6849 1.431 . S
C6852 C6862 1.476 . S
H6853 C6847 0.929 . S
C6854 O6845 1.250 . S
C6854 O6846 1.258 . S
O6855 Mn6840 2.162 . S
O6855 C6843 1.281 . S
O6856 Mn6840 2.297 . S
O6856 C6843 1.236 . S
N6857 Mn6841 2.282 . S
N6857 C6858 1.328 . S
N6857 C6862 1.318 . S
C6858 N6857 1.328 . S
C6858 C6859 1.457 . S
C6858 H6863 0.929 . S
C6859 C6858 1.457 . S
C6859 C6860 1.291 . S
C6859 H6872 0.931 . S
C6860 C6859 1.291 . S
C6860 C6861 1.373 . S
C6860 H6873 0.929 . S
C6861 C6860 1.373 . S
C6861 C6862 1.396 . S
C6861 C6868 1.403 . S
C6862 C6852 1.476 . S
C6862 N6857 1.318 . S
C6862 C6861 1.396 . S
H6863 C6858 0.929 . S
O6864 Mn6840 2.385 . S
O6864 C6842 1.234 . S
O6865 Mn6840 2.209 . S
O6865 Mn6841 2.215 . S
O6865 C6842 1.283 . S
O6866 Mn6840 2.094 . S
O6866 C6844 1.240 . S
O6867 Mn6841 2.117 . S
O6867 C6844 1.264 . S
C6868 C6861 1.403 . S
C6868 C6869 1.399 . S
C6868 H6874 0.929 . S
C6869 C6849 1.449 . S
C6869 C6868 1.399 . S
C6869 H6875 0.930 . S
H6870 C6850 0.931 . S
H6871 C6851 0.930 . S
H6872 C6859 0.931 . S
H6873 C6860 0.929 . S
H6874 C6868 0.929 . S
H6875 C6869 0.930 . S
Mn6876 O6881 2.095 . S
Mn6876 O6891 2.162 . S
Mn6876 O6892 2.297 . S
Mn6876 O6900 2.385 . S
Mn6876 O6901 2.209 . S
Mn6876 O6902 2.094 . S
Mn6877 O6882 2.121 . S
Mn6877 N6884 2.257 . S
Mn6877 N6893 2.282 . S
Mn6877 O6901 2.215 . S
Mn6877 O6903 2.117 . S
C6878 O6900 1.234 . S
C6878 O6901 1.283 . S
C6879 O6891 1.281 . S
C6879 O6892 1.236 . S
C6880 O6902 1.240 . S
C6880 O6903 1.264 . S
O6881 Mn6876 2.095 . S
O6881 C6890 1.250 . S
O6882 Mn6877 2.121 . S
O6882 C6890 1.258 . S
C6883 N6884 1.326 . S
C6883 C6887 1.460 . S
C6883 H6889 0.929 . S
N6884 Mn6877 2.257 . S
N6884 C6883 1.326 . S
N6884 C6888 1.362 . S
C6885 C6886 1.258 . S
C6885 C6888 1.431 . S
C6885 C6905 1.449 . S
C6886 C6885 1.258 . S
C6886 C6887 1.477 . S
C6886 H6906 0.931 . S
C6887 C6883 1.460 . S
C6887 C6886 1.477 . S
C6887 H6907 0.930 . S
C6888 N6884 1.362 . S
C6888 C6885 1.431 . S
C6888 C6898 1.476 . S
H6889 C6883 0.929 . S
C6890 O6881 1.250 . S
C6890 O6882 1.258 . S
O6891 Mn6876 2.162 . S
O6891 C6879 1.281 . S
O6892 Mn6876 2.297 . S
O6892 C6879 1.236 . S
N6893 Mn6877 2.282 . S
N6893 C6894 1.328 . S
N6893 C6898 1.318 . S
C6894 N6893 1.328 . S
C6894 C6895 1.457 . S
C6894 H6899 0.929 . S
C6895 C6894 1.457 . S
C6895 C6896 1.291 . S
C6895 H6908 0.931 . S
C6896 C6895 1.291 . S
C6896 C6897 1.373 . S
C6896 H6909 0.929 . S
C6897 C6896 1.373 . S
C6897 C6898 1.396 . S
C6897 C6904 1.403 . S
C6898 C6888 1.476 . S
C6898 N6893 1.318 . S
C6898 C6897 1.396 . S
H6899 C6894 0.929 . S
O6900 Mn6876 2.385 . S
O6900 C6878 1.234 . S
O6901 Mn6876 2.209 . S
O6901 Mn6877 2.215 . S
O6901 C6878 1.283 . S
O6902 Mn6876 2.094 . S
O6902 C6880 1.240 . S
O6903 Mn6877 2.117 . S
O6903 C6880 1.264 . S
C6904 C6897 1.403 . S
C6904 C6905 1.399 . S
C6904 H6910 0.929 . S
C6905 C6885 1.449 . S
C6905 C6904 1.399 . S
C6905 H6911 0.930 . S
H6906 C6886 0.931 . S
H6907 C6887 0.930 . S
H6908 C6895 0.931 . S
H6909 C6896 0.929 . S
H6910 C6904 0.929 . S
H6911 C6905 0.930 . S
C6912 C6913 1.387 . S
C6912 H6916 0.950 . S
C6912 C6921 1.390 . S
C6913 C6912 1.387 . S
C6913 C6915 1.387 . S
H6914 C6921 0.950 . S
C6915 C6913 1.387 . S
C6915 C6917 1.390 . S
C6915 H6919 0.950 . S
H6916 C6912 0.950 . S
C6917 C6915 1.390 . S
C6917 C6918 1.387 . S
C6917 H6920 0.950 . S
C6918 C6917 1.387 . S
C6918 C6921 1.387 . S
H6919 C6915 0.950 . S
H6920 C6917 0.950 . S
C6921 C6912 1.390 . S
C6921 H6914 0.950 . S
C6921 C6918 1.387 . S
C6922 C6923 1.387 . S
C6922 H6926 0.950 . S
C6922 C6931 1.390 . S
C6923 C6922 1.387 . S
C6923 C6925 1.387 . S
H6924 C6931 0.950 . S
C6925 C6923 1.387 . S
C6925 C6927 1.390 . S
C6925 H6929 0.950 . S
H6926 C6922 0.950 . S
C6927 C6925 1.390 . S
C6927 C6928 1.387 . S
C6927 H6930 0.950 . S
C6928 C6927 1.387 . S
C6928 C6931 1.387 . S
H6929 C6925 0.950 . S
H6930 C6927 0.950 . S
C6931 C6922 1.390 . S
C6931 H6924 0.950 . S
C6931 C6928 1.387 . S
C6932 C6933 1.387 . S
C6932 H6936 0.950 . S
C6932 C6941 1.390 . S
C6933 C6932 1.387 . S
C6933 C6935 1.387 . S
H6934 C6941 0.950 . S
C6935 C6933 1.387 . S
C6935 C6937 1.390 . S
C6935 H6939 0.950 . S
H6936 C6932 0.950 . S
C6937 C6935 1.390 . S
C6937 C6938 1.387 . S
C6937 H6940 0.950 . S
C6938 C6937 1.387 . S
C6938 C6941 1.387 . S
H6939 C6935 0.950 . S
H6940 C6937 0.950 . S
C6941 C6932 1.390 . S
C6941 H6934 0.950 . S
C6941 C6938 1.387 . S
C6942 C6943 1.387 . S
C6942 H6946 0.950 . S
C6942 C6951 1.390 . S
C6943 C6942 1.387 . S
C6943 C6945 1.387 . S
H6944 C6951 0.950 . S
C6945 C6943 1.387 . S
C6945 C6947 1.390 . S
C6945 H6949 0.950 . S
H6946 C6942 0.950 . S
C6947 C6945 1.390 . S
C6947 C6948 1.387 . S
C6947 H6950 0.950 . S
C6948 C6947 1.387 . S
C6948 C6951 1.387 . S
H6949 C6945 0.950 . S
H6950 C6947 0.950 . S
C6951 C6942 1.390 . S
C6951 H6944 0.950 . S
C6951 C6948 1.387 . S
C6952 C6953 1.387 . S
C6952 H6956 0.950 . S
C6952 C6961 1.390 . S
C6953 C6952 1.387 . S
C6953 C6955 1.387 . S
H6954 C6961 0.950 . S
C6955 C6953 1.387 . S
C6955 C6957 1.390 . S
C6955 H6959 0.950 . S
H6956 C6952 0.950 . S
C6957 C6955 1.390 . S
C6957 C6958 1.387 . S
C6957 H6960 0.950 . S
C6958 C6957 1.387 . S
C6958 C6961 1.387 . S
H6959 C6955 0.950 . S
H6960 C6957 0.950 . S
C6961 C6952 1.390 . S
C6961 H6954 0.950 . S
C6961 C6958 1.387 . S
C6962 C6963 1.387 . S
C6962 H6966 0.950 . S
C6962 C6971 1.390 . S
C6963 C6962 1.387 . S
C6963 C6965 1.387 . S
H6964 C6971 0.950 . S
C6965 C6963 1.387 . S
C6965 C6967 1.390 . S
C6965 H6969 0.950 . S
H6966 C6962 0.950 . S
C6967 C6965 1.390 . S
C6967 C6968 1.387 . S
C6967 H6970 0.950 . S
C6968 C6967 1.387 . S
C6968 C6971 1.387 . S
H6969 C6965 0.950 . S
H6970 C6967 0.950 . S
C6971 C6962 1.390 . S
C6971 H6964 0.950 . S
C6971 C6968 1.387 . S
C6972 C6973 1.387 . S
C6972 H6976 0.950 . S
C6972 C6981 1.390 . S
C6973 C6972 1.387 . S
C6973 C6975 1.387 . S
H6974 C6981 0.950 . S
C6975 C6973 1.387 . S
C6975 C6977 1.390 . S
C6975 H6979 0.950 . S
H6976 C6972 0.950 . S
C6977 C6975 1.390 . S
C6977 C6978 1.387 . S
C6977 H6980 0.950 . S
C6978 C6977 1.387 . S
C6978 C6981 1.387 . S
H6979 C6975 0.950 . S
H6980 C6977 0.950 . S
C6981 C6972 1.390 . S
C6981 H6974 0.950 . S
C6981 C6978 1.387 . S
C6982 C6983 1.387 . S
C6982 H6986 0.950 . S
C6982 C6991 1.390 . S
C6983 C6982 1.387 . S
C6983 C6985 1.387 . S
H6984 C6991 0.950 . S
C6985 C6983 1.387 . S
C6985 C6987 1.390 . S
C6985 H6989 0.950 . S
H6986 C6982 0.950 . S
C6987 C6985 1.390 . S
C6987 C6988 1.387 . S
C6987 H6990 0.950 . S
C6988 C6987 1.387 . S
C6988 C6991 1.387 . S
H6989 C6985 0.950 . S
H6990 C6987 0.950 . S
C6991 C6982 1.390 . S
C6991 H6984 0.950 . S
C6991 C6988 1.387 . S
C6992 C6993 1.387 . S
C6992 H6996 0.950 . S
C6992 C7001 1.390 . S
C6993 C6992 1.387 . S
C6993 C6995 1.387 . S
H6994 C7001 0.950 . S
C6995 C6993 1.387 . S
C6995 C6997 1.390 . S
C6995 H6999 0.950 . S
H6996 C6992 0.950 . S
C6997 C6995 1.390 . S
C6997 C6998 1.387 . S
C6997 H7000 0.950 . S
C6998 C6997 1.387 . S
C6998 C7001 1.387 . S
H6999 C6995 0.950 . S
H7000 C6997 0.950 . S
C7001 C6992 1.390 . S
C7001 H6994 0.950 . S
C7001 C6998 1.387 . S
C7002 C7003 1.387 . S
C7002 H7006 0.950 . S
C7002 C7011 1.390 . S
C7003 C7002 1.387 . S
C7003 C7005 1.387 . S
H7004 C7011 0.950 . S
C7005 C7003 1.387 . S
C7005 C7007 1.390 . S
C7005 H7009 0.950 . S
H7006 C7002 0.950 . S
C7007 C7005 1.390 . S
C7007 C7008 1.387 . S
C7007 H7010 0.950 . S
C7008 C7007 1.387 . S
C7008 C7011 1.387 . S
H7009 C7005 0.950 . S
H7010 C7007 0.950 . S
C7011 C7002 1.390 . S
C7011 H7004 0.950 . S
C7011 C7008 1.387 . S
C7012 C7013 1.387 . S
C7012 H7016 0.950 . S
C7012 C7021 1.390 . S
C7013 C7012 1.387 . S
C7013 C7015 1.387 . S
H7014 C7021 0.950 . S
C7015 C7013 1.387 . S
C7015 C7017 1.390 . S
C7015 H7019 0.950 . S
H7016 C7012 0.950 . S
C7017 C7015 1.390 . S
C7017 C7018 1.387 . S
C7017 H7020 0.950 . S
C7018 C7017 1.387 . S
C7018 C7021 1.387 . S
H7019 C7015 0.950 . S
H7020 C7017 0.950 . S
C7021 C7012 1.390 . S
C7021 H7014 0.950 . S
C7021 C7018 1.387 . S
C7022 C7023 1.387 . S
C7022 H7026 0.950 . S
C7022 C7031 1.390 . S
C7023 C7022 1.387 . S
C7023 C7025 1.387 . S
H7024 C7031 0.950 . S
C7025 C7023 1.387 . S
C7025 C7027 1.390 . S
C7025 H7029 0.950 . S
H7026 C7022 0.950 . S
C7027 C7025 1.390 . S
C7027 C7028 1.387 . S
C7027 H7030 0.950 . S
C7028 C7027 1.387 . S
C7028 C7031 1.387 . S
H7029 C7025 0.950 . S
H7030 C7027 0.950 . S
C7031 C7022 1.390 . S
C7031 H7024 0.950 . S
C7031 C7028 1.387 . S
C7032 C7033 1.387 . S
C7032 H7036 0.950 . S
C7032 C7041 1.390 . S
C7033 C7032 1.387 . S
C7033 C7035 1.387 . S
H7034 C7041 0.950 . S
C7035 C7033 1.387 . S
C7035 C7037 1.390 . S
C7035 H7039 0.950 . S
H7036 C7032 0.950 . S
C7037 C7035 1.390 . S
C7037 C7038 1.387 . S
C7037 H7040 0.950 . S
C7038 C7037 1.387 . S
C7038 C7041 1.387 . S
H7039 C7035 0.950 . S
H7040 C7037 0.950 . S
C7041 C7032 1.390 . S
C7041 H7034 0.950 . S
C7041 C7038 1.387 . S
C7042 C7043 1.387 . S
C7042 H7046 0.950 . S
C7042 C7051 1.390 . S
C7043 C7042 1.387 . S
C7043 C7045 1.387 . S
H7044 C7051 0.950 . S
C7045 C7043 1.387 . S
C7045 C7047 1.390 . S
C7045 H7049 0.950 . S
H7046 C7042 0.950 . S
C7047 C7045 1.390 . S
C7047 C7048 1.387 . S
C7047 H7050 0.950 . S
C7048 C7047 1.387 . S
C7048 C7051 1.387 . S
H7049 C7045 0.950 . S
H7050 C7047 0.950 . S
C7051 C7042 1.390 . S
C7051 H7044 0.950 . S
C7051 C7048 1.387 . S
C7052 C7053 1.387 . S
C7052 H7056 0.950 . S
C7052 C7061 1.390 . S
C7053 C7052 1.387 . S
C7053 C7055 1.387 . S
H7054 C7061 0.950 . S
C7055 C7053 1.387 . S
C7055 C7057 1.390 . S
C7055 H7059 0.950 . S
H7056 C7052 0.950 . S
C7057 C7055 1.390 . S
C7057 C7058 1.387 . S
C7057 H7060 0.950 . S
C7058 C7057 1.387 . S
C7058 C7061 1.387 . S
H7059 C7055 0.950 . S
H7060 C7057 0.950 . S
C7061 C7052 1.390 . S
C7061 H7054 0.950 . S
C7061 C7058 1.387 . S
C7062 C7063 1.387 . S
C7062 H7066 0.950 . S
C7062 C7071 1.390 . S
C7063 C7062 1.387 . S
C7063 C7065 1.387 . S
H7064 C7071 0.950 . S
C7065 C7063 1.387 . S
C7065 C7067 1.390 . S
C7065 H7069 0.950 . S
H7066 C7062 0.950 . S
C7067 C7065 1.390 . S
C7067 C7068 1.387 . S
C7067 H7070 0.950 . S
C7068 C7067 1.387 . S
C7068 C7071 1.387 . S
H7069 C7065 0.950 . S
H7070 C7067 0.950 . S
C7071 C7062 1.390 . S
C7071 H7064 0.950 . S
C7071 C7068 1.387 . S
C7072 C7073 1.387 . S
C7072 H7076 0.950 . S
C7072 C7081 1.390 . S
C7073 C7072 1.387 . S
C7073 C7075 1.387 . S
H7074 C7081 0.950 . S
C7075 C7073 1.387 . S
C7075 C7077 1.390 . S
C7075 H7079 0.950 . S
H7076 C7072 0.950 . S
C7077 C7075 1.390 . S
C7077 C7078 1.387 . S
C7077 H7080 0.950 . S
C7078 C7077 1.387 . S
C7078 C7081 1.387 . S
H7079 C7075 0.950 . S
H7080 C7077 0.950 . S
C7081 C7072 1.390 . S
C7081 H7074 0.950 . S
C7081 C7078 1.387 . S
C7082 C7083 1.387 . S
C7082 H7086 0.950 . S
C7082 C7091 1.390 . S
C7083 C7082 1.387 . S
C7083 C7085 1.387 . S
H7084 C7091 0.950 . S
C7085 C7083 1.387 . S
C7085 C7087 1.390 . S
C7085 H7089 0.950 . S
H7086 C7082 0.950 . S
C7087 C7085 1.390 . S
C7087 C7088 1.387 . S
C7087 H7090 0.950 . S
C7088 C7087 1.387 . S
C7088 C7091 1.387 . S
H7089 C7085 0.950 . S
H7090 C7087 0.950 . S
C7091 C7082 1.390 . S
C7091 H7084 0.950 . S
C7091 C7088 1.387 . S
C7092 C7093 1.387 . S
C7092 H7096 0.950 . S
C7092 C7101 1.390 . S
C7093 C7092 1.387 . S
C7093 C7095 1.387 . S
H7094 C7101 0.950 . S
C7095 C7093 1.387 . S
C7095 C7097 1.390 . S
C7095 H7099 0.950 . S
H7096 C7092 0.950 . S
C7097 C7095 1.390 . S
C7097 C7098 1.387 . S
C7097 H7100 0.950 . S
C7098 C7097 1.387 . S
C7098 C7101 1.387 . S
H7099 C7095 0.950 . S
H7100 C7097 0.950 . S
C7101 C7092 1.390 . S
C7101 H7094 0.950 . S
C7101 C7098 1.387 . S
C7102 C7103 1.387 . S
C7102 H7106 0.950 . S
C7102 C7111 1.390 . S
C7103 C7102 1.387 . S
C7103 C7105 1.387 . S
H7104 C7111 0.950 . S
C7105 C7103 1.387 . S
C7105 C7107 1.390 . S
C7105 H7109 0.950 . S
H7106 C7102 0.950 . S
C7107 C7105 1.390 . S
C7107 C7108 1.387 . S
C7107 H7110 0.950 . S
C7108 C7107 1.387 . S
C7108 C7111 1.387 . S
H7109 C7105 0.950 . S
H7110 C7107 0.950 . S
C7111 C7102 1.390 . S
C7111 H7104 0.950 . S
C7111 C7108 1.387 . S
C7112 C7113 1.387 . S
C7112 H7116 0.950 . S
C7112 C7121 1.390 . S
C7113 C7112 1.387 . S
C7113 C7115 1.387 . S
H7114 C7121 0.950 . S
C7115 C7113 1.387 . S
C7115 C7117 1.390 . S
C7115 H7119 0.950 . S
H7116 C7112 0.950 . S
C7117 C7115 1.390 . S
C7117 C7118 1.387 . S
C7117 H7120 0.950 . S
C7118 C7117 1.387 . S
C7118 C7121 1.387 . S
H7119 C7115 0.950 . S
H7120 C7117 0.950 . S
C7121 C7112 1.390 . S
C7121 H7114 0.950 . S
C7121 C7118 1.387 . S
C7122 C7123 1.387 . S
C7122 H7126 0.950 . S
C7122 C7131 1.390 . S
C7123 C7122 1.387 . S
C7123 C7125 1.387 . S
H7124 C7131 0.950 . S
C7125 C7123 1.387 . S
C7125 C7127 1.390 . S
C7125 H7129 0.950 . S
H7126 C7122 0.950 . S
C7127 C7125 1.390 . S
C7127 C7128 1.387 . S
C7127 H7130 0.950 . S
C7128 C7127 1.387 . S
C7128 C7131 1.387 . S
H7129 C7125 0.950 . S
H7130 C7127 0.950 . S
C7131 C7122 1.390 . S
C7131 H7124 0.950 . S
C7131 C7128 1.387 . S
C7132 C7133 1.387 . S
C7132 H7136 0.950 . S
C7132 C7141 1.390 . S
C7133 C7132 1.387 . S
C7133 C7135 1.387 . S
H7134 C7141 0.950 . S
C7135 C7133 1.387 . S
C7135 C7137 1.390 . S
C7135 H7139 0.950 . S
H7136 C7132 0.950 . S
C7137 C7135 1.390 . S
C7137 C7138 1.387 . S
C7137 H7140 0.950 . S
C7138 C7137 1.387 . S
C7138 C7141 1.387 . S
H7139 C7135 0.950 . S
H7140 C7137 0.950 . S
C7141 C7132 1.390 . S
C7141 H7134 0.950 . S
C7141 C7138 1.387 . S
C7142 C7143 1.387 . S
C7142 H7146 0.950 . S
C7142 C7151 1.390 . S
C7143 C7142 1.387 . S
C7143 C7145 1.387 . S
H7144 C7151 0.950 . S
C7145 C7143 1.387 . S
C7145 C7147 1.390 . S
C7145 H7149 0.950 . S
H7146 C7142 0.950 . S
C7147 C7145 1.390 . S
C7147 C7148 1.387 . S
C7147 H7150 0.950 . S
C7148 C7147 1.387 . S
C7148 C7151 1.387 . S
H7149 C7145 0.950 . S
H7150 C7147 0.950 . S
C7151 C7142 1.390 . S
C7151 H7144 0.950 . S
C7151 C7148 1.387 . S
C7152 C7153 1.387 . S
C7152 H7156 0.950 . S
C7152 C7161 1.390 . S
C7153 C7152 1.387 . S
C7153 C7155 1.387 . S
H7154 C7161 0.950 . S
C7155 C7153 1.387 . S
C7155 C7157 1.390 . S
C7155 H7159 0.950 . S
H7156 C7152 0.950 . S
C7157 C7155 1.390 . S
C7157 C7158 1.387 . S
C7157 H7160 0.950 . S
C7158 C7157 1.387 . S
C7158 C7161 1.387 . S
H7159 C7155 0.950 . S
H7160 C7157 0.950 . S
C7161 C7152 1.390 . S
C7161 H7154 0.950 . S
C7161 C7158 1.387 . S
C7162 C7163 1.387 . S
C7162 H7166 0.950 . S
C7162 C7171 1.390 . S
C7163 C7162 1.387 . S
C7163 C7165 1.387 . S
H7164 C7171 0.950 . S
C7165 C7163 1.387 . S
C7165 C7167 1.390 . S
C7165 H7169 0.950 . S
H7166 C7162 0.950 . S
C7167 C7165 1.390 . S
C7167 C7168 1.387 . S
C7167 H7170 0.950 . S
C7168 C7167 1.387 . S
C7168 C7171 1.387 . S
H7169 C7165 0.950 . S
H7170 C7167 0.950 . S
C7171 C7162 1.390 . S
C7171 H7164 0.950 . S
C7171 C7168 1.387 . S
C7172 C7173 1.387 . S
C7172 H7176 0.950 . S
C7172 C7181 1.390 . S
C7173 C7172 1.387 . S
C7173 C7175 1.387 . S
H7174 C7181 0.950 . S
C7175 C7173 1.387 . S
C7175 C7177 1.390 . S
C7175 H7179 0.950 . S
H7176 C7172 0.950 . S
C7177 C7175 1.390 . S
C7177 C7178 1.387 . S
C7177 H7180 0.950 . S
C7178 C7177 1.387 . S
C7178 C7181 1.387 . S
H7179 C7175 0.950 . S
H7180 C7177 0.950 . S
C7181 C7172 1.390 . S
C7181 H7174 0.950 . S
C7181 C7178 1.387 . S
C7182 C7183 1.387 . S
C7182 H7186 0.950 . S
C7182 C7191 1.390 . S
C7183 C7182 1.387 . S
C7183 C7185 1.387 . S
H7184 C7191 0.950 . S
C7185 C7183 1.387 . S
C7185 C7187 1.390 . S
C7185 H7189 0.950 . S
H7186 C7182 0.950 . S
C7187 C7185 1.390 . S
C7187 C7188 1.387 . S
C7187 H7190 0.950 . S
C7188 C7187 1.387 . S
C7188 C7191 1.387 . S
H7189 C7185 0.950 . S
H7190 C7187 0.950 . S
C7191 C7182 1.390 . S
C7191 H7184 0.950 . S
C7191 C7188 1.387 . S
C7192 C7193 1.387 . S
C7192 H7196 0.950 . S
C7192 C7201 1.390 . S
C7193 C7192 1.387 . S
C7193 C7195 1.387 . S
H7194 C7201 0.950 . S
C7195 C7193 1.387 . S
C7195 C7197 1.390 . S
C7195 H7199 0.950 . S
H7196 C7192 0.950 . S
C7197 C7195 1.390 . S
C7197 C7198 1.387 . S
C7197 H7200 0.950 . S
C7198 C7197 1.387 . S
C7198 C7201 1.387 . S
H7199 C7195 0.950 . S
H7200 C7197 0.950 . S
C7201 C7192 1.390 . S
C7201 H7194 0.950 . S
C7201 C7198 1.387 . S
C7202 C7203 1.387 . S
C7202 H7206 0.950 . S
C7202 C7211 1.390 . S
C7203 C7202 1.387 . S
C7203 C7205 1.387 . S
H7204 C7211 0.950 . S
C7205 C7203 1.387 . S
C7205 C7207 1.390 . S
C7205 H7209 0.950 . S
H7206 C7202 0.950 . S
C7207 C7205 1.390 . S
C7207 C7208 1.387 . S
C7207 H7210 0.950 . S
C7208 C7207 1.387 . S
C7208 C7211 1.387 . S
H7209 C7205 0.950 . S
H7210 C7207 0.950 . S
C7211 C7202 1.390 . S
C7211 H7204 0.950 . S
C7211 C7208 1.387 . S
C7212 C7213 1.387 . S
C7212 H7216 0.950 . S
C7212 C7221 1.390 . S
C7213 C7212 1.387 . S
C7213 C7215 1.387 . S
H7214 C7221 0.950 . S
C7215 C7213 1.387 . S
C7215 C7217 1.390 . S
C7215 H7219 0.950 . S
H7216 C7212 0.950 . S
C7217 C7215 1.390 . S
C7217 C7218 1.387 . S
C7217 H7220 0.950 . S
C7218 C7217 1.387 . S
C7218 C7221 1.387 . S
H7219 C7215 0.950 . S
H7220 C7217 0.950 . S
C7221 C7212 1.390 . S
C7221 H7214 0.950 . S
C7221 C7218 1.387 . S
C7222 C7223 1.387 . S
C7222 H7226 0.950 . S
C7222 C7231 1.390 . S
C7223 C7222 1.387 . S
C7223 C7225 1.387 . S
H7224 C7231 0.950 . S
C7225 C7223 1.387 . S
C7225 C7227 1.390 . S
C7225 H7229 0.950 . S
H7226 C7222 0.950 . S
C7227 C7225 1.390 . S
C7227 C7228 1.387 . S
C7227 H7230 0.950 . S
C7228 C7227 1.387 . S
C7228 C7231 1.387 . S
H7229 C7225 0.950 . S
H7230 C7227 0.950 . S
C7231 C7222 1.390 . S
C7231 H7224 0.950 . S
C7231 C7228 1.387 . S
C7232 C7233 1.387 . S
C7232 H7236 0.950 . S
C7232 C7241 1.390 . S
C7233 C7232 1.387 . S
C7233 C7235 1.387 . S
H7234 C7241 0.950 . S
C7235 C7233 1.387 . S
C7235 C7237 1.390 . S
C7235 H7239 0.950 . S
H7236 C7232 0.950 . S
C7237 C7235 1.390 . S
C7237 C7238 1.387 . S
C7237 H7240 0.950 . S
C7238 C7237 1.387 . S
C7238 C7241 1.387 . S
H7239 C7235 0.950 . S
H7240 C7237 0.950 . S
C7241 C7232 1.390 . S
C7241 H7234 0.950 . S
C7241 C7238 1.387 . S
C7242 C7243 1.387 . S
C7242 H7246 0.950 . S
C7242 C7251 1.390 . S
C7243 C7242 1.387 . S
C7243 C7245 1.387 . S
H7244 C7251 0.950 . S
C7245 C7243 1.387 . S
C7245 C7247 1.390 . S
C7245 H7249 0.950 . S
H7246 C7242 0.950 . S
C7247 C7245 1.390 . S
C7247 C7248 1.387 . S
C7247 H7250 0.950 . S
C7248 C7247 1.387 . S
C7248 C7251 1.387 . S
H7249 C7245 0.950 . S
H7250 C7247 0.950 . S
C7251 C7242 1.390 . S
C7251 H7244 0.950 . S
C7251 C7248 1.387 . S
C7252 C7253 1.387 . S
C7252 H7256 0.950 . S
C7252 C7261 1.390 . S
C7253 C7252 1.387 . S
C7253 C7255 1.387 . S
H7254 C7261 0.950 . S
C7255 C7253 1.387 . S
C7255 C7257 1.390 . S
C7255 H7259 0.950 . S
H7256 C7252 0.950 . S
C7257 C7255 1.390 . S
C7257 C7258 1.387 . S
C7257 H7260 0.950 . S
C7258 C7257 1.387 . S
C7258 C7261 1.387 . S
H7259 C7255 0.950 . S
H7260 C7257 0.950 . S
C7261 C7252 1.390 . S
C7261 H7254 0.950 . S
C7261 C7258 1.387 . S
C7262 C7263 1.387 . S
C7262 H7266 0.950 . S
C7262 C7271 1.390 . S
C7263 C7262 1.387 . S
C7263 C7265 1.387 . S
H7264 C7271 0.950 . S
C7265 C7263 1.387 . S
C7265 C7267 1.390 . S
C7265 H7269 0.950 . S
H7266 C7262 0.950 . S
C7267 C7265 1.390 . S
C7267 C7268 1.387 . S
C7267 H7270 0.950 . S
C7268 C7267 1.387 . S
C7268 C7271 1.387 . S
H7269 C7265 0.950 . S
H7270 C7267 0.950 . S
C7271 C7262 1.390 . S
C7271 H7264 0.950 . S
C7271 C7268 1.387 . S
C7272 C7273 1.387 . S
C7272 H7276 0.950 . S
C7272 C7281 1.390 . S
C7273 C7272 1.387 . S
C7273 C7275 1.387 . S
H7274 C7281 0.950 . S
C7275 C7273 1.387 . S
C7275 C7277 1.390 . S
C7275 H7279 0.950 . S
H7276 C7272 0.950 . S
C7277 C7275 1.390 . S
C7277 C7278 1.387 . S
C7277 H7280 0.950 . S
C7278 C7277 1.387 . S
C7278 C7281 1.387 . S
H7279 C7275 0.950 . S
H7280 C7277 0.950 . S
C7281 C7272 1.390 . S
C7281 H7274 0.950 . S
C7281 C7278 1.387 . S
C7282 C7283 1.387 . S
C7282 H7286 0.950 . S
C7282 C7291 1.390 . S
C7283 C7282 1.387 . S
C7283 C7285 1.387 . S
H7284 C7291 0.950 . S
C7285 C7283 1.387 . S
C7285 C7287 1.390 . S
C7285 H7289 0.950 . S
H7286 C7282 0.950 . S
C7287 C7285 1.390 . S
C7287 C7288 1.387 . S
C7287 H7290 0.950 . S
C7288 C7287 1.387 . S
C7288 C7291 1.387 . S
H7289 C7285 0.950 . S
H7290 C7287 0.950 . S
C7291 C7282 1.390 . S
C7291 H7284 0.950 . S
C7291 C7288 1.387 . S
C7292 C7293 1.387 . S
C7292 H7296 0.950 . S
C7292 C7301 1.390 . S
C7293 C7292 1.387 . S
C7293 C7295 1.387 . S
H7294 C7301 0.950 . S
C7295 C7293 1.387 . S
C7295 C7297 1.390 . S
C7295 H7299 0.950 . S
H7296 C7292 0.950 . S
C7297 C7295 1.390 . S
C7297 C7298 1.387 . S
C7297 H7300 0.950 . S
C7298 C7297 1.387 . S
C7298 C7301 1.387 . S
H7299 C7295 0.950 . S
H7300 C7297 0.950 . S
C7301 C7292 1.390 . S
C7301 H7294 0.950 . S
C7301 C7298 1.387 . S
C7302 C7303 1.387 . S
C7302 H7306 0.950 . S
C7302 C7311 1.390 . S
C7303 C7302 1.387 . S
C7303 C7305 1.387 . S
H7304 C7311 0.950 . S
C7305 C7303 1.387 . S
C7305 C7307 1.390 . S
C7305 H7309 0.950 . S
H7306 C7302 0.950 . S
C7307 C7305 1.390 . S
C7307 C7308 1.387 . S
C7307 H7310 0.950 . S
C7308 C7307 1.387 . S
C7308 C7311 1.387 . S
H7309 C7305 0.950 . S
H7310 C7307 0.950 . S
C7311 C7302 1.390 . S
C7311 H7304 0.950 . S
C7311 C7308 1.387 . S
C7312 C7313 1.387 . S
C7312 H7316 0.950 . S
C7312 C7321 1.390 . S
C7313 C7312 1.387 . S
C7313 C7315 1.387 . S
H7314 C7321 0.950 . S
C7315 C7313 1.387 . S
C7315 C7317 1.390 . S
C7315 H7319 0.950 . S
H7316 C7312 0.950 . S
C7317 C7315 1.390 . S
C7317 C7318 1.387 . S
C7317 H7320 0.950 . S
C7318 C7317 1.387 . S
C7318 C7321 1.387 . S
H7319 C7315 0.950 . S
H7320 C7317 0.950 . S
C7321 C7312 1.390 . S
C7321 H7314 0.950 . S
C7321 C7318 1.387 . S
C7322 C7323 1.387 . S
C7322 H7326 0.950 . S
C7322 C7331 1.390 . S
C7323 C7322 1.387 . S
C7323 C7325 1.387 . S
H7324 C7331 0.950 . S
C7325 C7323 1.387 . S
C7325 C7327 1.390 . S
C7325 H7329 0.950 . S
H7326 C7322 0.950 . S
C7327 C7325 1.390 . S
C7327 C7328 1.387 . S
C7327 H7330 0.950 . S
C7328 C7327 1.387 . S
C7328 C7331 1.387 . S
H7329 C7325 0.950 . S
H7330 C7327 0.950 . S
C7331 C7322 1.390 . S
C7331 H7324 0.950 . S
C7331 C7328 1.387 . S
C7332 C7333 1.387 . S
C7332 H7336 0.950 . S
C7332 C7341 1.390 . S
C7333 C7332 1.387 . S
C7333 C7335 1.387 . S
H7334 C7341 0.950 . S
C7335 C7333 1.387 . S
C7335 C7337 1.390 . S
C7335 H7339 0.950 . S
H7336 C7332 0.950 . S
C7337 C7335 1.390 . S
C7337 C7338 1.387 . S
C7337 H7340 0.950 . S
C7338 C7337 1.387 . S
C7338 C7341 1.387 . S
H7339 C7335 0.950 . S
H7340 C7337 0.950 . S
C7341 C7332 1.390 . S
C7341 H7334 0.950 . S
C7341 C7338 1.387 . S
C7342 C7343 1.387 . S
C7342 H7346 0.950 . S
C7342 C7351 1.390 . S
C7343 C7342 1.387 . S
C7343 C7345 1.387 . S
H7344 C7351 0.950 . S
C7345 C7343 1.387 . S
C7345 C7347 1.390 . S
C7345 H7349 0.950 . S
H7346 C7342 0.950 . S
C7347 C7345 1.390 . S
C7347 C7348 1.387 . S
C7347 H7350 0.950 . S
C7348 C7347 1.387 . S
C7348 C7351 1.387 . S
H7349 C7345 0.950 . S
H7350 C7347 0.950 . S
C7351 C7342 1.390 . S
C7351 H7344 0.950 . S
C7351 C7348 1.387 . S
C7352 C7353 1.387 . S
C7352 H7356 0.950 . S
C7352 C7361 1.390 . S
C7353 C7352 1.387 . S
C7353 C7355 1.387 . S
H7354 C7361 0.950 . S
C7355 C7353 1.387 . S
C7355 C7357 1.390 . S
C7355 H7359 0.950 . S
H7356 C7352 0.950 . S
C7357 C7355 1.390 . S
C7357 C7358 1.387 . S
C7357 H7360 0.950 . S
C7358 C7357 1.387 . S
C7358 C7361 1.387 . S
H7359 C7355 0.950 . S
H7360 C7357 0.950 . S
C7361 C7352 1.390 . S
C7361 H7354 0.950 . S
C7361 C7358 1.387 . S
C7362 C7363 1.387 . S
C7362 H7366 0.950 . S
C7362 C7371 1.390 . S
C7363 C7362 1.387 . S
C7363 C7365 1.387 . S
H7364 C7371 0.950 . S
C7365 C7363 1.387 . S
C7365 C7367 1.390 . S
C7365 H7369 0.950 . S
H7366 C7362 0.950 . S
C7367 C7365 1.390 . S
C7367 C7368 1.387 . S
C7367 H7370 0.950 . S
C7368 C7367 1.387 . S
C7368 C7371 1.387 . S
H7369 C7365 0.950 . S
H7370 C7367 0.950 . S
C7371 C7362 1.390 . S
C7371 H7364 0.950 . S
C7371 C7368 1.387 . S
C7372 C7373 1.387 . S
C7372 H7376 0.950 . S
C7372 C7381 1.390 . S
C7373 C7372 1.387 . S
C7373 C7375 1.387 . S
H7374 C7381 0.950 . S
C7375 C7373 1.387 . S
C7375 C7377 1.390 . S
C7375 H7379 0.950 . S
H7376 C7372 0.950 . S
C7377 C7375 1.390 . S
C7377 C7378 1.387 . S
C7377 H7380 0.950 . S
C7378 C7377 1.387 . S
C7378 C7381 1.387 . S
H7379 C7375 0.950 . S
H7380 C7377 0.950 . S
C7381 C7372 1.390 . S
C7381 H7374 0.950 . S
C7381 C7378 1.387 . S
C7382 C7383 1.387 . S
C7382 H7386 0.950 . S
C7382 C7391 1.390 . S
C7383 C7382 1.387 . S
C7383 C7385 1.387 . S
H7384 C7391 0.950 . S
C7385 C7383 1.387 . S
C7385 C7387 1.390 . S
C7385 H7389 0.950 . S
H7386 C7382 0.950 . S
C7387 C7385 1.390 . S
C7387 C7388 1.387 . S
C7387 H7390 0.950 . S
C7388 C7387 1.387 . S
C7388 C7391 1.387 . S
H7389 C7385 0.950 . S
H7390 C7387 0.950 . S
C7391 C7382 1.390 . S
C7391 H7384 0.950 . S
C7391 C7388 1.387 . S
C7392 C7393 1.387 . S
C7392 H7396 0.950 . S
C7392 C7401 1.390 . S
C7393 C7392 1.387 . S
C7393 C7395 1.387 . S
H7394 C7401 0.950 . S
C7395 C7393 1.387 . S
C7395 C7397 1.390 . S
C7395 H7399 0.950 . S
H7396 C7392 0.950 . S
C7397 C7395 1.390 . S
C7397 C7398 1.387 . S
C7397 H7400 0.950 . S
C7398 C7397 1.387 . S
C7398 C7401 1.387 . S
H7399 C7395 0.950 . S
H7400 C7397 0.950 . S
C7401 C7392 1.390 . S
C7401 H7394 0.950 . S
C7401 C7398 1.387 . S
C7402 C7403 1.387 . S
C7402 H7406 0.950 . S
C7402 C7411 1.390 . S
C7403 C7402 1.387 . S
C7403 C7405 1.387 . S
H7404 C7411 0.950 . S
C7405 C7403 1.387 . S
C7405 C7407 1.390 . S
C7405 H7409 0.950 . S
H7406 C7402 0.950 . S
C7407 C7405 1.390 . S
C7407 C7408 1.387 . S
C7407 H7410 0.950 . S
C7408 C7407 1.387 . S
C7408 C7411 1.387 . S
H7409 C7405 0.950 . S
H7410 C7407 0.950 . S
C7411 C7402 1.390 . S
C7411 H7404 0.950 . S
C7411 C7408 1.387 . S
C7412 C7413 1.387 . S
C7412 H7416 0.950 . S
C7412 C7421 1.390 . S
C7413 C7412 1.387 . S
C7413 C7415 1.387 . S
H7414 C7421 0.950 . S
C7415 C7413 1.387 . S
C7415 C7417 1.390 . S
C7415 H7419 0.950 . S
H7416 C7412 0.950 . S
C7417 C7415 1.390 . S
C7417 C7418 1.387 . S
C7417 H7420 0.950 . S
C7418 C7417 1.387 . S
C7418 C7421 1.387 . S
H7419 C7415 0.950 . S
H7420 C7417 0.950 . S
C7421 C7412 1.390 . S
C7421 H7414 0.950 . S
C7421 C7418 1.387 . S
C7422 C7423 1.387 . S
C7422 H7426 0.950 . S
C7422 C7431 1.390 . S
C7423 C7422 1.387 . S
C7423 C7425 1.387 . S
H7424 C7431 0.950 . S
C7425 C7423 1.387 . S
C7425 C7427 1.390 . S
C7425 H7429 0.950 . S
H7426 C7422 0.950 . S
C7427 C7425 1.390 . S
C7427 C7428 1.387 . S
C7427 H7430 0.950 . S
C7428 C7427 1.387 . S
C7428 C7431 1.387 . S
H7429 C7425 0.950 . S
H7430 C7427 0.950 . S
C7431 C7422 1.390 . S
C7431 H7424 0.950 . S
C7431 C7428 1.387 . S
C7432 C7433 1.387 . S
C7432 H7436 0.950 . S
C7432 C7441 1.390 . S
C7433 C7432 1.387 . S
C7433 C7435 1.387 . S
H7434 C7441 0.950 . S
C7435 C7433 1.387 . S
C7435 C7437 1.390 . S
C7435 H7439 0.950 . S
H7436 C7432 0.950 . S
C7437 C7435 1.390 . S
C7437 C7438 1.387 . S
C7437 H7440 0.950 . S
C7438 C7437 1.387 . S
C7438 C7441 1.387 . S
H7439 C7435 0.950 . S
H7440 C7437 0.950 . S
C7441 C7432 1.390 . S
C7441 H7434 0.950 . S
C7441 C7438 1.387 . S
C7442 C7443 1.387 . S
C7442 H7446 0.950 . S
C7442 C7451 1.390 . S
C7443 C7442 1.387 . S
C7443 C7445 1.387 . S
H7444 C7451 0.950 . S
C7445 C7443 1.387 . S
C7445 C7447 1.390 . S
C7445 H7449 0.950 . S
H7446 C7442 0.950 . S
C7447 C7445 1.390 . S
C7447 C7448 1.387 . S
C7447 H7450 0.950 . S
C7448 C7447 1.387 . S
C7448 C7451 1.387 . S
H7449 C7445 0.950 . S
H7450 C7447 0.950 . S
C7451 C7442 1.390 . S
C7451 H7444 0.950 . S
C7451 C7448 1.387 . S
C7452 C7453 1.387 . S
C7452 H7456 0.950 . S
C7452 C7461 1.390 . S
C7453 C7452 1.387 . S
C7453 C7455 1.387 . S
H7454 C7461 0.950 . S
C7455 C7453 1.387 . S
C7455 C7457 1.390 . S
C7455 H7459 0.950 . S
H7456 C7452 0.950 . S
C7457 C7455 1.390 . S
C7457 C7458 1.387 . S
C7457 H7460 0.950 . S
C7458 C7457 1.387 . S
C7458 C7461 1.387 . S
H7459 C7455 0.950 . S
H7460 C7457 0.950 . S
C7461 C7452 1.390 . S
C7461 H7454 0.950 . S
C7461 C7458 1.387 . S
C7462 C7463 1.387 . S
C7462 H7466 0.950 . S
C7462 C7471 1.390 . S
C7463 C7462 1.387 . S
C7463 C7465 1.387 . S
H7464 C7471 0.950 . S
C7465 C7463 1.387 . S
C7465 C7467 1.390 . S
C7465 H7469 0.950 . S
H7466 C7462 0.950 . S
C7467 C7465 1.390 . S
C7467 C7468 1.387 . S
C7467 H7470 0.950 . S
C7468 C7467 1.387 . S
C7468 C7471 1.387 . S
H7469 C7465 0.950 . S
H7470 C7467 0.950 . S
C7471 C7462 1.390 . S
C7471 H7464 0.950 . S
C7471 C7468 1.387 . S
C7472 C7473 1.387 . S
C7472 H7476 0.950 . S
C7472 C7481 1.390 . S
C7473 C7472 1.387 . S
C7473 C7475 1.387 . S
H7474 C7481 0.950 . S
C7475 C7473 1.387 . S
C7475 C7477 1.390 . S
C7475 H7479 0.950 . S
H7476 C7472 0.950 . S
C7477 C7475 1.390 . S
C7477 C7478 1.387 . S
C7477 H7480 0.950 . S
C7478 C7477 1.387 . S
C7478 C7481 1.387 . S
H7479 C7475 0.950 . S
H7480 C7477 0.950 . S
C7481 C7472 1.390 . S
C7481 H7474 0.950 . S
C7481 C7478 1.387 . S
C7482 C7483 1.387 . S
C7482 H7486 0.950 . S
C7482 C7491 1.390 . S
C7483 C7482 1.387 . S
C7483 C7485 1.387 . S
H7484 C7491 0.950 . S
C7485 C7483 1.387 . S
C7485 C7487 1.390 . S
C7485 H7489 0.950 . S
H7486 C7482 0.950 . S
C7487 C7485 1.390 . S
C7487 C7488 1.387 . S
C7487 H7490 0.950 . S
C7488 C7487 1.387 . S
C7488 C7491 1.387 . S
H7489 C7485 0.950 . S
H7490 C7487 0.950 . S
C7491 C7482 1.390 . S
C7491 H7484 0.950 . S
C7491 C7488 1.387 . S
C7492 C7493 1.387 . S
C7492 H7496 0.950 . S
C7492 C7501 1.390 . S
C7493 C7492 1.387 . S
C7493 C7495 1.387 . S
H7494 C7501 0.950 . S
C7495 C7493 1.387 . S
C7495 C7497 1.390 . S
C7495 H7499 0.950 . S
H7496 C7492 0.950 . S
C7497 C7495 1.390 . S
C7497 C7498 1.387 . S
C7497 H7500 0.950 . S
C7498 C7497 1.387 . S
C7498 C7501 1.387 . S
H7499 C7495 0.950 . S
H7500 C7497 0.950 . S
C7501 C7492 1.390 . S
C7501 H7494 0.950 . S
C7501 C7498 1.387 . S
C7502 C7503 1.387 . S
C7502 H7506 0.950 . S
C7502 C7511 1.390 . S
C7503 C7502 1.387 . S
C7503 C7505 1.387 . S
H7504 C7511 0.950 . S
C7505 C7503 1.387 . S
C7505 C7507 1.390 . S
C7505 H7509 0.950 . S
H7506 C7502 0.950 . S
C7507 C7505 1.390 . S
C7507 C7508 1.387 . S
C7507 H7510 0.950 . S
C7508 C7507 1.387 . S
C7508 C7511 1.387 . S
H7509 C7505 0.950 . S
H7510 C7507 0.950 . S
C7511 C7502 1.390 . S
C7511 H7504 0.950 . S
C7511 C7508 1.387 . S
C7512 C7513 1.387 . S
C7512 H7516 0.950 . S
C7512 C7521 1.390 . S
C7513 C7512 1.387 . S
C7513 C7515 1.387 . S
H7514 C7521 0.950 . S
C7515 C7513 1.387 . S
C7515 C7517 1.390 . S
C7515 H7519 0.950 . S
H7516 C7512 0.950 . S
C7517 C7515 1.390 . S
C7517 C7518 1.387 . S
C7517 H7520 0.950 . S
C7518 C7517 1.387 . S
C7518 C7521 1.387 . S
H7519 C7515 0.950 . S
H7520 C7517 0.950 . S
C7521 C7512 1.390 . S
C7521 H7514 0.950 . S
C7521 C7518 1.387 . S
C7522 C7523 1.387 . S
C7522 H7526 0.950 . S
C7522 C7531 1.390 . S
C7523 C7522 1.387 . S
C7523 C7525 1.387 . S
H7524 C7531 0.950 . S
C7525 C7523 1.387 . S
C7525 C7527 1.390 . S
C7525 H7529 0.950 . S
H7526 C7522 0.950 . S
C7527 C7525 1.390 . S
C7527 C7528 1.387 . S
C7527 H7530 0.950 . S
C7528 C7527 1.387 . S
C7528 C7531 1.387 . S
H7529 C7525 0.950 . S
H7530 C7527 0.950 . S
C7531 C7522 1.390 . S
C7531 H7524 0.950 . S
C7531 C7528 1.387 . S
C7532 C7533 1.387 . S
C7532 H7536 0.950 . S
C7532 C7541 1.390 . S
C7533 C7532 1.387 . S
C7533 C7535 1.387 . S
H7534 C7541 0.950 . S
C7535 C7533 1.387 . S
C7535 C7537 1.390 . S
C7535 H7539 0.950 . S
H7536 C7532 0.950 . S
C7537 C7535 1.390 . S
C7537 C7538 1.387 . S
C7537 H7540 0.950 . S
C7538 C7537 1.387 . S
C7538 C7541 1.387 . S
H7539 C7535 0.950 . S
H7540 C7537 0.950 . S
C7541 C7532 1.390 . S
C7541 H7534 0.950 . S
C7541 C7538 1.387 . S
C7542 C7543 1.387 . S
C7542 H7546 0.950 . S
C7542 C7551 1.390 . S
C7543 C7542 1.387 . S
C7543 C7545 1.387 . S
H7544 C7551 0.950 . S
C7545 C7543 1.387 . S
C7545 C7547 1.390 . S
C7545 H7549 0.950 . S
H7546 C7542 0.950 . S
C7547 C7545 1.390 . S
C7547 C7548 1.387 . S
C7547 H7550 0.950 . S
C7548 C7547 1.387 . S
C7548 C7551 1.387 . S
H7549 C7545 0.950 . S
H7550 C7547 0.950 . S
C7551 C7542 1.390 . S
C7551 H7544 0.950 . S
C7551 C7548 1.387 . S
C7552 C7553 1.387 . S
C7552 H7556 0.950 . S
C7552 C7561 1.390 . S
C7553 C7552 1.387 . S
C7553 C7555 1.387 . S
H7554 C7561 0.950 . S
C7555 C7553 1.387 . S
C7555 C7557 1.390 . S
C7555 H7559 0.950 . S
H7556 C7552 0.950 . S
C7557 C7555 1.390 . S
C7557 C7558 1.387 . S
C7557 H7560 0.950 . S
C7558 C7557 1.387 . S
C7558 C7561 1.387 . S
H7559 C7555 0.950 . S
H7560 C7557 0.950 . S
C7561 C7552 1.390 . S
C7561 H7554 0.950 . S
C7561 C7558 1.387 . S
C7562 C7563 1.387 . S
C7562 H7566 0.950 . S
C7562 C7571 1.390 . S
C7563 C7562 1.387 . S
C7563 C7565 1.387 . S
H7564 C7571 0.950 . S
C7565 C7563 1.387 . S
C7565 C7567 1.390 . S
C7565 H7569 0.950 . S
H7566 C7562 0.950 . S
C7567 C7565 1.390 . S
C7567 C7568 1.387 . S
C7567 H7570 0.950 . S
C7568 C7567 1.387 . S
C7568 C7571 1.387 . S
H7569 C7565 0.950 . S
H7570 C7567 0.950 . S
C7571 C7562 1.390 . S
C7571 H7564 0.950 . S
C7571 C7568 1.387 . S
C7572 C7573 1.387 . S
C7572 H7576 0.950 . S
C7572 C7581 1.390 . S
C7573 C7572 1.387 . S
C7573 C7575 1.387 . S
H7574 C7581 0.950 . S
C7575 C7573 1.387 . S
C7575 C7577 1.390 . S
C7575 H7579 0.950 . S
H7576 C7572 0.950 . S
C7577 C7575 1.390 . S
C7577 C7578 1.387 . S
C7577 H7580 0.950 . S
C7578 C7577 1.387 . S
C7578 C7581 1.387 . S
H7579 C7575 0.950 . S
H7580 C7577 0.950 . S
C7581 C7572 1.390 . S
C7581 H7574 0.950 . S
C7581 C7578 1.387 . S
C7582 C7583 1.387 . S
C7582 H7586 0.950 . S
C7582 C7591 1.390 . S
C7583 C7582 1.387 . S
C7583 C7585 1.387 . S
H7584 C7591 0.950 . S
C7585 C7583 1.387 . S
C7585 C7587 1.390 . S
C7585 H7589 0.950 . S
H7586 C7582 0.950 . S
C7587 C7585 1.390 . S
C7587 C7588 1.387 . S
C7587 H7590 0.950 . S
C7588 C7587 1.387 . S
C7588 C7591 1.387 . S
H7589 C7585 0.950 . S
H7590 C7587 0.950 . S
C7591 C7582 1.390 . S
C7591 H7584 0.950 . S
C7591 C7588 1.387 . S
C7592 C7593 1.387 . S
C7592 H7596 0.950 . S
C7592 C7601 1.390 . S
C7593 C7592 1.387 . S
C7593 C7595 1.387 . S
H7594 C7601 0.950 . S
C7595 C7593 1.387 . S
C7595 C7597 1.390 . S
C7595 H7599 0.950 . S
H7596 C7592 0.950 . S
C7597 C7595 1.390 . S
C7597 C7598 1.387 . S
C7597 H7600 0.950 . S
C7598 C7597 1.387 . S
C7598 C7601 1.387 . S
H7599 C7595 0.950 . S
H7600 C7597 0.950 . S
C7601 C7592 1.390 . S
C7601 H7594 0.950 . S
C7601 C7598 1.387 . S
C7602 C7603 1.387 . S
C7602 H7606 0.950 . S
C7602 C7611 1.390 . S
C7603 C7602 1.387 . S
C7603 C7605 1.387 . S
H7604 C7611 0.950 . S
C7605 C7603 1.387 . S
C7605 C7607 1.390 . S
C7605 H7609 0.950 . S
H7606 C7602 0.950 . S
C7607 C7605 1.390 . S
C7607 C7608 1.387 . S
C7607 H7610 0.950 . S
C7608 C7607 1.387 . S
C7608 C7611 1.387 . S
H7609 C7605 0.950 . S
H7610 C7607 0.950 . S
C7611 C7602 1.390 . S
C7611 H7604 0.950 . S
C7611 C7608 1.387 . S
C7612 C7613 1.387 . S
C7612 H7616 0.950 . S
C7612 C7621 1.390 . S
C7613 C7612 1.387 . S
C7613 C7615 1.387 . S
H7614 C7621 0.950 . S
C7615 C7613 1.387 . S
C7615 C7617 1.390 . S
C7615 H7619 0.950 . S
H7616 C7612 0.950 . S
C7617 C7615 1.390 . S
C7617 C7618 1.387 . S
C7617 H7620 0.950 . S
C7618 C7617 1.387 . S
C7618 C7621 1.387 . S
H7619 C7615 0.950 . S
H7620 C7617 0.950 . S
C7621 C7612 1.390 . S
C7621 H7614 0.950 . S
C7621 C7618 1.387 . S
C7622 C7623 1.387 . S
C7622 H7626 0.950 . S
C7622 C7631 1.390 . S
C7623 C7622 1.387 . S
C7623 C7625 1.387 . S
H7624 C7631 0.950 . S
C7625 C7623 1.387 . S
C7625 C7627 1.390 . S
C7625 H7629 0.950 . S
H7626 C7622 0.950 . S
C7627 C7625 1.390 . S
C7627 C7628 1.387 . S
C7627 H7630 0.950 . S
C7628 C7627 1.387 . S
C7628 C7631 1.387 . S
H7629 C7625 0.950 . S
H7630 C7627 0.950 . S
C7631 C7622 1.390 . S
C7631 H7624 0.950 . S
C7631 C7628 1.387 . S
C7632 C7633 1.387 . S
C7632 H7636 0.950 . S
C7632 C7641 1.390 . S
C7633 C7632 1.387 . S
C7633 C7635 1.387 . S
H7634 C7641 0.950 . S
C7635 C7633 1.387 . S
C7635 C7637 1.390 . S
C7635 H7639 0.950 . S
H7636 C7632 0.950 . S
C7637 C7635 1.390 . S
C7637 C7638 1.387 . S
C7637 H7640 0.950 . S
C7638 C7637 1.387 . S
C7638 C7641 1.387 . S
H7639 C7635 0.950 . S
H7640 C7637 0.950 . S
C7641 C7632 1.390 . S
C7641 H7634 0.950 . S
C7641 C7638 1.387 . S
C7642 C7643 1.387 . S
C7642 H7646 0.950 . S
C7642 C7651 1.390 . S
C7643 C7642 1.387 . S
C7643 C7645 1.387 . S
H7644 C7651 0.950 . S
C7645 C7643 1.387 . S
C7645 C7647 1.390 . S
C7645 H7649 0.950 . S
H7646 C7642 0.950 . S
C7647 C7645 1.390 . S
C7647 C7648 1.387 . S
C7647 H7650 0.950 . S
C7648 C7647 1.387 . S
C7648 C7651 1.387 . S
H7649 C7645 0.950 . S
H7650 C7647 0.950 . S
C7651 C7642 1.390 . S
C7651 H7644 0.950 . S
C7651 C7648 1.387 . S
C7652 C7653 1.387 . S
C7652 H7656 0.950 . S
C7652 C7661 1.390 . S
C7653 C7652 1.387 . S
C7653 C7655 1.387 . S
H7654 C7661 0.950 . S
C7655 C7653 1.387 . S
C7655 C7657 1.390 . S
C7655 H7659 0.950 . S
H7656 C7652 0.950 . S
C7657 C7655 1.390 . S
C7657 C7658 1.387 . S
C7657 H7660 0.950 . S
C7658 C7657 1.387 . S
C7658 C7661 1.387 . S
H7659 C7655 0.950 . S
H7660 C7657 0.950 . S
C7661 C7652 1.390 . S
C7661 H7654 0.950 . S
C7661 C7658 1.387 . S
C7662 C7663 1.387 . S
C7662 H7666 0.950 . S
C7662 C7671 1.390 . S
C7663 C7662 1.387 . S
C7663 C7665 1.387 . S
H7664 C7671 0.950 . S
C7665 C7663 1.387 . S
C7665 C7667 1.390 . S
C7665 H7669 0.950 . S
H7666 C7662 0.950 . S
C7667 C7665 1.390 . S
C7667 C7668 1.387 . S
C7667 H7670 0.950 . S
C7668 C7667 1.387 . S
C7668 C7671 1.387 . S
H7669 C7665 0.950 . S
H7670 C7667 0.950 . S
C7671 C7662 1.390 . S
C7671 H7664 0.950 . S
C7671 C7668 1.387 . S
C7672 C7673 1.387 . S
C7672 H7676 0.950 . S
C7672 C7681 1.390 . S
C7673 C7672 1.387 . S
C7673 C7675 1.387 . S
H7674 C7681 0.950 . S
C7675 C7673 1.387 . S
C7675 C7677 1.390 . S
C7675 H7679 0.950 . S
H7676 C7672 0.950 . S
C7677 C7675 1.390 . S
C7677 C7678 1.387 . S
C7677 H7680 0.950 . S
C7678 C7677 1.387 . S
C7678 C7681 1.387 . S
H7679 C7675 0.950 . S
H7680 C7677 0.950 . S
C7681 C7672 1.390 . S
C7681 H7674 0.950 . S
C7681 C7678 1.387 . S
C7682 C7683 1.387 . S
C7682 H7686 0.950 . S
C7682 C7691 1.390 . S
C7683 C7682 1.387 . S
C7683 C7685 1.387 . S
H7684 C7691 0.950 . S
C7685 C7683 1.387 . S
C7685 C7687 1.390 . S
C7685 H7689 0.950 . S
H7686 C7682 0.950 . S
C7687 C7685 1.390 . S
C7687 C7688 1.387 . S
C7687 H7690 0.950 . S
C7688 C7687 1.387 . S
C7688 C7691 1.387 . S
H7689 C7685 0.950 . S
H7690 C7687 0.950 . S
C7691 C7682 1.390 . S
C7691 H7684 0.950 . S
C7691 C7688 1.387 . S
C7692 C7693 1.387 . S
C7692 H7696 0.950 . S
C7692 C7701 1.390 . S
C7693 C7692 1.387 . S
C7693 C7695 1.387 . S
H7694 C7701 0.950 . S
C7695 C7693 1.387 . S
C7695 C7697 1.390 . S
C7695 H7699 0.950 . S
H7696 C7692 0.950 . S
C7697 C7695 1.390 . S
C7697 C7698 1.387 . S
C7697 H7700 0.950 . S
C7698 C7697 1.387 . S
C7698 C7701 1.387 . S
H7699 C7695 0.950 . S
H7700 C7697 0.950 . S
C7701 C7692 1.390 . S
C7701 H7694 0.950 . S
C7701 C7698 1.387 . S
C7702 C7703 1.387 . S
C7702 H7706 0.950 . S
C7702 C7711 1.390 . S
C7703 C7702 1.387 . S
C7703 C7705 1.387 . S
H7704 C7711 0.950 . S
C7705 C7703 1.387 . S
C7705 C7707 1.390 . S
C7705 H7709 0.950 . S
H7706 C7702 0.950 . S
C7707 C7705 1.390 . S
C7707 C7708 1.387 . S
C7707 H7710 0.950 . S
C7708 C7707 1.387 . S
C7708 C7711 1.387 . S
H7709 C7705 0.950 . S
H7710 C7707 0.950 . S
C7711 C7702 1.390 . S
C7711 H7704 0.950 . S
C7711 C7708 1.387 . S
C7712 C7713 1.387 . S
C7712 H7716 0.950 . S
C7712 C7721 1.390 . S
C7713 C7712 1.387 . S
C7713 C7715 1.387 . S
H7714 C7721 0.950 . S
C7715 C7713 1.387 . S
C7715 C7717 1.390 . S
C7715 H7719 0.950 . S
H7716 C7712 0.950 . S
C7717 C7715 1.390 . S
C7717 C7718 1.387 . S
C7717 H7720 0.950 . S
C7718 C7717 1.387 . S
C7718 C7721 1.387 . S
H7719 C7715 0.950 . S
H7720 C7717 0.950 . S
C7721 C7712 1.390 . S
C7721 H7714 0.950 . S
C7721 C7718 1.387 . S
C7722 C7723 1.387 . S
C7722 H7726 0.950 . S
C7722 C7731 1.390 . S
C7723 C7722 1.387 . S
C7723 C7725 1.387 . S
H7724 C7731 0.950 . S
C7725 C7723 1.387 . S
C7725 C7727 1.390 . S
C7725 H7729 0.950 . S
H7726 C7722 0.950 . S
C7727 C7725 1.390 . S
C7727 C7728 1.387 . S
C7727 H7730 0.950 . S
C7728 C7727 1.387 . S
C7728 C7731 1.387 . S
H7729 C7725 0.950 . S
H7730 C7727 0.950 . S
C7731 C7722 1.390 . S
C7731 H7724 0.950 . S
C7731 C7728 1.387 . S
C7732 C7733 1.387 . S
C7732 H7736 0.950 . S
C7732 C7741 1.390 . S
C7733 C7732 1.387 . S
C7733 C7735 1.387 . S
H7734 C7741 0.950 . S
C7735 C7733 1.387 . S
C7735 C7737 1.390 . S
C7735 H7739 0.950 . S
H7736 C7732 0.950 . S
C7737 C7735 1.390 . S
C7737 C7738 1.387 . S
C7737 H7740 0.950 . S
C7738 C7737 1.387 . S
C7738 C7741 1.387 . S
H7739 C7735 0.950 . S
H7740 C7737 0.950 . S
C7741 C7732 1.390 . S
C7741 H7734 0.950 . S
C7741 C7738 1.387 . S
C7742 C7743 1.387 . S
C7742 H7746 0.950 . S
C7742 C7751 1.390 . S
C7743 C7742 1.387 . S
C7743 C7745 1.387 . S
H7744 C7751 0.950 . S
C7745 C7743 1.387 . S
C7745 C7747 1.390 . S
C7745 H7749 0.950 . S
H7746 C7742 0.950 . S
C7747 C7745 1.390 . S
C7747 C7748 1.387 . S
C7747 H7750 0.950 . S
C7748 C7747 1.387 . S
C7748 C7751 1.387 . S
H7749 C7745 0.950 . S
H7750 C7747 0.950 . S
C7751 C7742 1.390 . S
C7751 H7744 0.950 . S
C7751 C7748 1.387 . S
C7752 C7753 1.387 . S
C7752 H7756 0.950 . S
C7752 C7761 1.390 . S
C7753 C7752 1.387 . S
C7753 C7755 1.387 . S
H7754 C7761 0.950 . S
C7755 C7753 1.387 . S
C7755 C7757 1.390 . S
C7755 H7759 0.950 . S
H7756 C7752 0.950 . S
C7757 C7755 1.390 . S
C7757 C7758 1.387 . S
C7757 H7760 0.950 . S
C7758 C7757 1.387 . S
C7758 C7761 1.387 . S
H7759 C7755 0.950 . S
H7760 C7757 0.950 . S
C7761 C7752 1.390 . S
C7761 H7754 0.950 . S
C7761 C7758 1.387 . S
C7762 C7763 1.387 . S
C7762 H7766 0.950 . S
C7762 C7771 1.390 . S
C7763 C7762 1.387 . S
C7763 C7765 1.387 . S
H7764 C7771 0.950 . S
C7765 C7763 1.387 . S
C7765 C7767 1.390 . S
C7765 H7769 0.950 . S
H7766 C7762 0.950 . S
C7767 C7765 1.390 . S
C7767 C7768 1.387 . S
C7767 H7770 0.950 . S
C7768 C7767 1.387 . S
C7768 C7771 1.387 . S
H7769 C7765 0.950 . S
H7770 C7767 0.950 . S
C7771 C7762 1.390 . S
C7771 H7764 0.950 . S
C7771 C7768 1.387 . S
C7772 C7773 1.387 . S
C7772 H7776 0.950 . S
C7772 C7781 1.390 . S
C7773 C7772 1.387 . S
C7773 C7775 1.387 . S
H7774 C7781 0.950 . S
C7775 C7773 1.387 . S
C7775 C7777 1.390 . S
C7775 H7779 0.950 . S
H7776 C7772 0.950 . S
C7777 C7775 1.390 . S
C7777 C7778 1.387 . S
C7777 H7780 0.950 . S
C7778 C7777 1.387 . S
C7778 C7781 1.387 . S
H7779 C7775 0.950 . S
H7780 C7777 0.950 . S
C7781 C7772 1.390 . S
C7781 H7774 0.950 . S
C7781 C7778 1.387 . S
C7782 C7783 1.387 . S
C7782 H7786 0.950 . S
C7782 C7791 1.390 . S
C7783 C7782 1.387 . S
C7783 C7785 1.387 . S
H7784 C7791 0.950 . S
C7785 C7783 1.387 . S
C7785 C7787 1.390 . S
C7785 H7789 0.950 . S
H7786 C7782 0.950 . S
C7787 C7785 1.390 . S
C7787 C7788 1.387 . S
C7787 H7790 0.950 . S
C7788 C7787 1.387 . S
C7788 C7791 1.387 . S
H7789 C7785 0.950 . S
H7790 C7787 0.950 . S
C7791 C7782 1.390 . S
C7791 H7784 0.950 . S
C7791 C7788 1.387 . S
C7792 C7793 1.387 . S
C7792 H7796 0.950 . S
C7792 C7801 1.390 . S
C7793 C7792 1.387 . S
C7793 C7795 1.387 . S
H7794 C7801 0.950 . S
C7795 C7793 1.387 . S
C7795 C7797 1.390 . S
C7795 H7799 0.950 . S
H7796 C7792 0.950 . S
C7797 C7795 1.390 . S
C7797 C7798 1.387 . S
C7797 H7800 0.950 . S
C7798 C7797 1.387 . S
C7798 C7801 1.387 . S
H7799 C7795 0.950 . S
H7800 C7797 0.950 . S
C7801 C7792 1.390 . S
C7801 H7794 0.950 . S
C7801 C7798 1.387 . S
C7802 C7803 1.387 . S
C7802 H7806 0.950 . S
C7802 C7811 1.390 . S
C7803 C7802 1.387 . S
C7803 C7805 1.387 . S
H7804 C7811 0.950 . S
C7805 C7803 1.387 . S
C7805 C7807 1.390 . S
C7805 H7809 0.950 . S
H7806 C7802 0.950 . S
C7807 C7805 1.390 . S
C7807 C7808 1.387 . S
C7807 H7810 0.950 . S
C7808 C7807 1.387 . S
C7808 C7811 1.387 . S
H7809 C7805 0.950 . S
H7810 C7807 0.950 . S
C7811 C7802 1.390 . S
C7811 H7804 0.950 . S
C7811 C7808 1.387 . S
C7812 C7813 1.387 . S
C7812 H7816 0.950 . S
C7812 C7821 1.390 . S
C7813 C7812 1.387 . S
C7813 C7815 1.387 . S
H7814 C7821 0.950 . S
C7815 C7813 1.387 . S
C7815 C7817 1.390 . S
C7815 H7819 0.950 . S
H7816 C7812 0.950 . S
C7817 C7815 1.390 . S
C7817 C7818 1.387 . S
C7817 H7820 0.950 . S
C7818 C7817 1.387 . S
C7818 C7821 1.387 . S
H7819 C7815 0.950 . S
H7820 C7817 0.950 . S
C7821 C7812 1.390 . S
C7821 H7814 0.950 . S
C7821 C7818 1.387 . S
C7822 C7823 1.387 . S
C7822 H7826 0.950 . S
C7822 C7831 1.390 . S
C7823 C7822 1.387 . S
C7823 C7825 1.387 . S
H7824 C7831 0.950 . S
C7825 C7823 1.387 . S
C7825 C7827 1.390 . S
C7825 H7829 0.950 . S
H7826 C7822 0.950 . S
C7827 C7825 1.390 . S
C7827 C7828 1.387 . S
C7827 H7830 0.950 . S
C7828 C7827 1.387 . S
C7828 C7831 1.387 . S
H7829 C7825 0.950 . S
H7830 C7827 0.950 . S
C7831 C7822 1.390 . S
C7831 H7824 0.950 . S
C7831 C7828 1.387 . S
C7832 C7833 1.387 . S
C7832 H7836 0.950 . S
C7832 C7841 1.390 . S
C7833 C7832 1.387 . S
C7833 C7835 1.387 . S
H7834 C7841 0.950 . S
C7835 C7833 1.387 . S
C7835 C7837 1.390 . S
C7835 H7839 0.950 . S
H7836 C7832 0.950 . S
C7837 C7835 1.390 . S
C7837 C7838 1.387 . S
C7837 H7840 0.950 . S
C7838 C7837 1.387 . S
C7838 C7841 1.387 . S
H7839 C7835 0.950 . S
H7840 C7837 0.950 . S
C7841 C7832 1.390 . S
C7841 H7834 0.950 . S
C7841 C7838 1.387 . S
C7842 C7843 1.387 . S
C7842 H7846 0.950 . S
C7842 C7851 1.390 . S
C7843 C7842 1.387 . S
C7843 C7845 1.387 . S
H7844 C7851 0.950 . S
C7845 C7843 1.387 . S
C7845 C7847 1.390 . S
C7845 H7849 0.950 . S
H7846 C7842 0.950 . S
C7847 C7845 1.390 . S
C7847 C7848 1.387 . S
C7847 H7850 0.950 . S
C7848 C7847 1.387 . S
C7848 C7851 1.387 . S
H7849 C7845 0.950 . S
H7850 C7847 0.950 . S
C7851 C7842 1.390 . S
C7851 H7844 0.950 . S
C7851 C7848 1.387 . S
C7852 C7853 1.387 . S
C7852 H7856 0.950 . S
C7852 C7861 1.390 . S
C7853 C7852 1.387 . S
C7853 C7855 1.387 . S
H7854 C7861 0.950 . S
C7855 C7853 1.387 . S
C7855 C7857 1.390 . S
C7855 H7859 0.950 . S
H7856 C7852 0.950 . S
C7857 C7855 1.390 . S
C7857 C7858 1.387 . S
C7857 H7860 0.950 . S
C7858 C7857 1.387 . S
C7858 C7861 1.387 . S
H7859 C7855 0.950 . S
H7860 C7857 0.950 . S
C7861 C7852 1.390 . S
C7861 H7854 0.950 . S
C7861 C7858 1.387 . S
C7862 C7863 1.387 . S
C7862 H7866 0.950 . S
C7862 C7871 1.390 . S
C7863 C7862 1.387 . S
C7863 C7865 1.387 . S
H7864 C7871 0.950 . S
C7865 C7863 1.387 . S
C7865 C7867 1.390 . S
C7865 H7869 0.950 . S
H7866 C7862 0.950 . S
C7867 C7865 1.390 . S
C7867 C7868 1.387 . S
C7867 H7870 0.950 . S
C7868 C7867 1.387 . S
C7868 C7871 1.387 . S
H7869 C7865 0.950 . S
H7870 C7867 0.950 . S
C7871 C7862 1.390 . S
C7871 H7864 0.950 . S
C7871 C7868 1.387 . S
C7872 C7873 1.387 . S
C7872 H7876 0.950 . S
C7872 C7881 1.390 . S
C7873 C7872 1.387 . S
C7873 C7875 1.387 . S
H7874 C7881 0.950 . S
C7875 C7873 1.387 . S
C7875 C7877 1.390 . S
C7875 H7879 0.950 . S
H7876 C7872 0.950 . S
C7877 C7875 1.390 . S
C7877 C7878 1.387 . S
C7877 H7880 0.950 . S
C7878 C7877 1.387 . S
C7878 C7881 1.387 . S
H7879 C7875 0.950 . S
H7880 C7877 0.950 . S
C7881 C7872 1.390 . S
C7881 H7874 0.950 . S
C7881 C7878 1.387 . S
C7882 C7883 1.387 . S
C7882 H7886 0.950 . S
C7882 C7891 1.390 . S
C7883 C7882 1.387 . S
C7883 C7885 1.387 . S
H7884 C7891 0.950 . S
C7885 C7883 1.387 . S
C7885 C7887 1.390 . S
C7885 H7889 0.950 . S
H7886 C7882 0.950 . S
C7887 C7885 1.390 . S
C7887 C7888 1.387 . S
C7887 H7890 0.950 . S
C7888 C7887 1.387 . S
C7888 C7891 1.387 . S
H7889 C7885 0.950 . S
H7890 C7887 0.950 . S
C7891 C7882 1.390 . S
C7891 H7884 0.950 . S
C7891 C7888 1.387 . S
C7892 C7893 1.387 . S
C7892 H7896 0.950 . S
C7892 C7901 1.390 . S
C7893 C7892 1.387 . S
C7893 C7895 1.387 . S
H7894 C7901 0.950 . S
C7895 C7893 1.387 . S
C7895 C7897 1.390 . S
C7895 H7899 0.950 . S
H7896 C7892 0.950 . S
C7897 C7895 1.390 . S
C7897 C7898 1.387 . S
C7897 H7900 0.950 . S
C7898 C7897 1.387 . S
C7898 C7901 1.387 . S
H7899 C7895 0.950 . S
H7900 C7897 0.950 . S
C7901 C7892 1.390 . S
C7901 H7894 0.950 . S
C7901 C7898 1.387 . S
C7902 C7903 1.387 . S
C7902 H7906 0.950 . S
C7902 C7911 1.390 . S
C7903 C7902 1.387 . S
C7903 C7905 1.387 . S
H7904 C7911 0.950 . S
C7905 C7903 1.387 . S
C7905 C7907 1.390 . S
C7905 H7909 0.950 . S
H7906 C7902 0.950 . S
C7907 C7905 1.390 . S
C7907 C7908 1.387 . S
C7907 H7910 0.950 . S
C7908 C7907 1.387 . S
C7908 C7911 1.387 . S
H7909 C7905 0.950 . S
H7910 C7907 0.950 . S
C7911 C7902 1.390 . S
C7911 H7904 0.950 . S
C7911 C7908 1.387 . S
C7912 C7913 1.387 . S
C7912 H7916 0.950 . S
C7912 C7921 1.390 . S
C7913 C7912 1.387 . S
C7913 C7915 1.387 . S
H7914 C7921 0.950 . S
C7915 C7913 1.387 . S
C7915 C7917 1.390 . S
C7915 H7919 0.950 . S
H7916 C7912 0.950 . S
C7917 C7915 1.390 . S
C7917 C7918 1.387 . S
C7917 H7920 0.950 . S
C7918 C7917 1.387 . S
C7918 C7921 1.387 . S
H7919 C7915 0.950 . S
H7920 C7917 0.950 . S
C7921 C7912 1.390 . S
C7921 H7914 0.950 . S
C7921 C7918 1.387 . S
C7922 C7923 1.387 . S
C7922 H7926 0.950 . S
C7922 C7931 1.390 . S
C7923 C7922 1.387 . S
C7923 C7925 1.387 . S
H7924 C7931 0.950 . S
C7925 C7923 1.387 . S
C7925 C7927 1.390 . S
C7925 H7929 0.950 . S
H7926 C7922 0.950 . S
C7927 C7925 1.390 . S
C7927 C7928 1.387 . S
C7927 H7930 0.950 . S
C7928 C7927 1.387 . S
C7928 C7931 1.387 . S
H7929 C7925 0.950 . S
H7930 C7927 0.950 . S
C7931 C7922 1.390 . S
C7931 H7924 0.950 . S
C7931 C7928 1.387 . S
C7932 C7933 1.387 . S
C7932 H7936 0.950 . S
C7932 C7941 1.390 . S
C7933 C7932 1.387 . S
C7933 C7935 1.387 . S
H7934 C7941 0.950 . S
C7935 C7933 1.387 . S
C7935 C7937 1.390 . S
C7935 H7939 0.950 . S
H7936 C7932 0.950 . S
C7937 C7935 1.390 . S
C7937 C7938 1.387 . S
C7937 H7940 0.950 . S
C7938 C7937 1.387 . S
C7938 C7941 1.387 . S
H7939 C7935 0.950 . S
H7940 C7937 0.950 . S
C7941 C7932 1.390 . S
C7941 H7934 0.950 . S
C7941 C7938 1.387 . S
C7942 C7943 1.387 . S
C7942 H7946 0.950 . S
C7942 C7951 1.390 . S
C7943 C7942 1.387 . S
C7943 C7945 1.387 . S
H7944 C7951 0.950 . S
C7945 C7943 1.387 . S
C7945 C7947 1.390 . S
C7945 H7949 0.950 . S
H7946 C7942 0.950 . S
C7947 C7945 1.390 . S
C7947 C7948 1.387 . S
C7947 H7950 0.950 . S
C7948 C7947 1.387 . S
C7948 C7951 1.387 . S
H7949 C7945 0.950 . S
H7950 C7947 0.950 . S
C7951 C7942 1.390 . S
C7951 H7944 0.950 . S
C7951 C7948 1.387 . S
C7952 C7953 1.387 . S
C7952 H7956 0.950 . S
C7952 C7961 1.390 . S
C7953 C7952 1.387 . S
C7953 C7955 1.387 . S
H7954 C7961 0.950 . S
C7955 C7953 1.387 . S
C7955 C7957 1.390 . S
C7955 H7959 0.950 . S
H7956 C7952 0.950 . S
C7957 C7955 1.390 . S
C7957 C7958 1.387 . S
C7957 H7960 0.950 . S
C7958 C7957 1.387 . S
C7958 C7961 1.387 . S
H7959 C7955 0.950 . S
H7960 C7957 0.950 . S
C7961 C7952 1.390 . S
C7961 H7954 0.950 . S
C7961 C7958 1.387 . S
C7962 C7963 1.387 . S
C7962 H7966 0.950 . S
C7962 C7971 1.390 . S
C7963 C7962 1.387 . S
C7963 C7965 1.387 . S
H7964 C7971 0.950 . S
C7965 C7963 1.387 . S
C7965 C7967 1.390 . S
C7965 H7969 0.950 . S
H7966 C7962 0.950 . S
C7967 C7965 1.390 . S
C7967 C7968 1.387 . S
C7967 H7970 0.950 . S
C7968 C7967 1.387 . S
C7968 C7971 1.387 . S
H7969 C7965 0.950 . S
H7970 C7967 0.950 . S
C7971 C7962 1.390 . S
C7971 H7964 0.950 . S
C7971 C7968 1.387 . S
C7972 C7973 1.387 . S
C7972 H7976 0.950 . S
C7972 C7981 1.390 . S
C7973 C7972 1.387 . S
C7973 C7975 1.387 . S
H7974 C7981 0.950 . S
C7975 C7973 1.387 . S
C7975 C7977 1.390 . S
C7975 H7979 0.950 . S
H7976 C7972 0.950 . S
C7977 C7975 1.390 . S
C7977 C7978 1.387 . S
C7977 H7980 0.950 . S
C7978 C7977 1.387 . S
C7978 C7981 1.387 . S
H7979 C7975 0.950 . S
H7980 C7977 0.950 . S
C7981 C7972 1.390 . S
C7981 H7974 0.950 . S
C7981 C7978 1.387 . S
C7982 C7983 1.387 . S
C7982 H7986 0.950 . S
C7982 C7991 1.390 . S
C7983 C7982 1.387 . S
C7983 C7985 1.387 . S
H7984 C7991 0.950 . S
C7985 C7983 1.387 . S
C7985 C7987 1.390 . S
C7985 H7989 0.950 . S
H7986 C7982 0.950 . S
C7987 C7985 1.390 . S
C7987 C7988 1.387 . S
C7987 H7990 0.950 . S
C7988 C7987 1.387 . S
C7988 C7991 1.387 . S
H7989 C7985 0.950 . S
H7990 C7987 0.950 . S
C7991 C7982 1.390 . S
C7991 H7984 0.950 . S
C7991 C7988 1.387 . S
C7992 C7993 1.387 . S
C7992 H7996 0.950 . S
C7992 C8001 1.390 . S
C7993 C7992 1.387 . S
C7993 C7995 1.387 . S
H7994 C8001 0.950 . S
C7995 C7993 1.387 . S
C7995 C7997 1.390 . S
C7995 H7999 0.950 . S
H7996 C7992 0.950 . S
C7997 C7995 1.390 . S
C7997 C7998 1.387 . S
C7997 H8000 0.950 . S
C7998 C7997 1.387 . S
C7998 C8001 1.387 . S
H7999 C7995 0.950 . S
H8000 C7997 0.950 . S
C8001 C7992 1.390 . S
C8001 H7994 0.950 . S
C8001 C7998 1.387 . S
C8002 C8003 1.387 . S
C8002 H8006 0.950 . S
C8002 C8011 1.390 . S
C8003 C8002 1.387 . S
C8003 C8005 1.387 . S
H8004 C8011 0.950 . S
C8005 C8003 1.387 . S
C8005 C8007 1.390 . S
C8005 H8009 0.950 . S
H8006 C8002 0.950 . S
C8007 C8005 1.390 . S
C8007 C8008 1.387 . S
C8007 H8010 0.950 . S
C8008 C8007 1.387 . S
C8008 C8011 1.387 . S
H8009 C8005 0.950 . S
H8010 C8007 0.950 . S
C8011 C8002 1.390 . S
C8011 H8004 0.950 . S
C8011 C8008 1.387 . S
C8012 C8013 1.387 . S
C8012 H8016 0.950 . S
C8012 C8021 1.390 . S
C8013 C8012 1.387 . S
C8013 C8015 1.387 . S
H8014 C8021 0.950 . S
C8015 C8013 1.387 . S
C8015 C8017 1.390 . S
C8015 H8019 0.950 . S
H8016 C8012 0.950 . S
C8017 C8015 1.390 . S
C8017 C8018 1.387 . S
C8017 H8020 0.950 . S
C8018 C8017 1.387 . S
C8018 C8021 1.387 . S
H8019 C8015 0.950 . S
H8020 C8017 0.950 . S
C8021 C8012 1.390 . S
C8021 H8014 0.950 . S
C8021 C8018 1.387 . S
C8022 C8023 1.387 . S
C8022 H8026 0.950 . S
C8022 C8031 1.390 . S
C8023 C8022 1.387 . S
C8023 C8025 1.387 . S
H8024 C8031 0.950 . S
C8025 C8023 1.387 . S
C8025 C8027 1.390 . S
C8025 H8029 0.950 . S
H8026 C8022 0.950 . S
C8027 C8025 1.390 . S
C8027 C8028 1.387 . S
C8027 H8030 0.950 . S
C8028 C8027 1.387 . S
C8028 C8031 1.387 . S
H8029 C8025 0.950 . S
H8030 C8027 0.950 . S
C8031 C8022 1.390 . S
C8031 H8024 0.950 . S
C8031 C8028 1.387 . S
C8032 C8033 1.387 . S
C8032 H8036 0.950 . S
C8032 C8041 1.390 . S
C8033 C8032 1.387 . S
C8033 C8035 1.387 . S
H8034 C8041 0.950 . S
C8035 C8033 1.387 . S
C8035 C8037 1.390 . S
C8035 H8039 0.950 . S
H8036 C8032 0.950 . S
C8037 C8035 1.390 . S
C8037 C8038 1.387 . S
C8037 H8040 0.950 . S
C8038 C8037 1.387 . S
C8038 C8041 1.387 . S
H8039 C8035 0.950 . S
H8040 C8037 0.950 . S
C8041 C8032 1.390 . S
C8041 H8034 0.950 . S
C8041 C8038 1.387 . S
C8042 C8043 1.387 . S
C8042 H8046 0.950 . S
C8042 C8051 1.390 . S
C8043 C8042 1.387 . S
C8043 C8045 1.387 . S
H8044 C8051 0.950 . S
C8045 C8043 1.387 . S
C8045 C8047 1.390 . S
C8045 H8049 0.950 . S
H8046 C8042 0.950 . S
C8047 C8045 1.390 . S
C8047 C8048 1.387 . S
C8047 H8050 0.950 . S
C8048 C8047 1.387 . S
C8048 C8051 1.387 . S
H8049 C8045 0.950 . S
H8050 C8047 0.950 . S
C8051 C8042 1.390 . S
C8051 H8044 0.950 . S
C8051 C8048 1.387 . S
C8052 C8053 1.387 . S
C8052 H8056 0.950 . S
C8052 C8061 1.390 . S
C8053 C8052 1.387 . S
C8053 C8055 1.387 . S
H8054 C8061 0.950 . S
C8055 C8053 1.387 . S
C8055 C8057 1.390 . S
C8055 H8059 0.950 . S
H8056 C8052 0.950 . S
C8057 C8055 1.390 . S
C8057 C8058 1.387 . S
C8057 H8060 0.950 . S
C8058 C8057 1.387 . S
C8058 C8061 1.387 . S
H8059 C8055 0.950 . S
H8060 C8057 0.950 . S
C8061 C8052 1.390 . S
C8061 H8054 0.950 . S
C8061 C8058 1.387 . S
C8062 C8063 1.387 . S
C8062 H8066 0.950 . S
C8062 C8071 1.390 . S
C8063 C8062 1.387 . S
C8063 C8065 1.387 . S
H8064 C8071 0.950 . S
C8065 C8063 1.387 . S
C8065 C8067 1.390 . S
C8065 H8069 0.950 . S
H8066 C8062 0.950 . S
C8067 C8065 1.390 . S
C8067 C8068 1.387 . S
C8067 H8070 0.950 . S
C8068 C8067 1.387 . S
C8068 C8071 1.387 . S
H8069 C8065 0.950 . S
H8070 C8067 0.950 . S
C8071 C8062 1.390 . S
C8071 H8064 0.950 . S
C8071 C8068 1.387 . S
C8072 C8073 1.387 . S
C8072 H8076 0.950 . S
C8072 C8081 1.390 . S
C8073 C8072 1.387 . S
C8073 C8075 1.387 . S
H8074 C8081 0.950 . S
C8075 C8073 1.387 . S
C8075 C8077 1.390 . S
C8075 H8079 0.950 . S
H8076 C8072 0.950 . S
C8077 C8075 1.390 . S
C8077 C8078 1.387 . S
C8077 H8080 0.950 . S
C8078 C8077 1.387 . S
C8078 C8081 1.387 . S
H8079 C8075 0.950 . S
H8080 C8077 0.950 . S
C8081 C8072 1.390 . S
C8081 H8074 0.950 . S
C8081 C8078 1.387 . S
C8082 C8083 1.387 . S
C8082 H8086 0.950 . S
C8082 C8091 1.390 . S
C8083 C8082 1.387 . S
C8083 C8085 1.387 . S
H8084 C8091 0.950 . S
C8085 C8083 1.387 . S
C8085 C8087 1.390 . S
C8085 H8089 0.950 . S
H8086 C8082 0.950 . S
C8087 C8085 1.390 . S
C8087 C8088 1.387 . S
C8087 H8090 0.950 . S
C8088 C8087 1.387 . S
C8088 C8091 1.387 . S
H8089 C8085 0.950 . S
H8090 C8087 0.950 . S
C8091 C8082 1.390 . S
C8091 H8084 0.950 . S
C8091 C8088 1.387 . S
C8092 C8093 1.387 . S
C8092 H8096 0.950 . S
C8092 C8101 1.390 . S
C8093 C8092 1.387 . S
C8093 C8095 1.387 . S
H8094 C8101 0.950 . S
C8095 C8093 1.387 . S
C8095 C8097 1.390 . S
C8095 H8099 0.950 . S
H8096 C8092 0.950 . S
C8097 C8095 1.390 . S
C8097 C8098 1.387 . S
C8097 H8100 0.950 . S
C8098 C8097 1.387 . S
C8098 C8101 1.387 . S
H8099 C8095 0.950 . S
H8100 C8097 0.950 . S
C8101 C8092 1.390 . S
C8101 H8094 0.950 . S
C8101 C8098 1.387 . S
C8102 C8103 1.387 . S
C8102 H8106 0.950 . S
C8102 C8111 1.390 . S
C8103 C8102 1.387 . S
C8103 C8105 1.387 . S
H8104 C8111 0.950 . S
C8105 C8103 1.387 . S
C8105 C8107 1.390 . S
C8105 H8109 0.950 . S
H8106 C8102 0.950 . S
C8107 C8105 1.390 . S
C8107 C8108 1.387 . S
C8107 H8110 0.950 . S
C8108 C8107 1.387 . S
C8108 C8111 1.387 . S
H8109 C8105 0.950 . S
H8110 C8107 0.950 . S
C8111 C8102 1.390 . S
C8111 H8104 0.950 . S
C8111 C8108 1.387 . S
C8112 C8113 1.387 . S
C8112 H8116 0.950 . S
C8112 C8121 1.390 . S
C8113 C8112 1.387 . S
C8113 C8115 1.387 . S
H8114 C8121 0.950 . S
C8115 C8113 1.387 . S
C8115 C8117 1.390 . S
C8115 H8119 0.950 . S
H8116 C8112 0.950 . S
C8117 C8115 1.390 . S
C8117 C8118 1.387 . S
C8117 H8120 0.950 . S
C8118 C8117 1.387 . S
C8118 C8121 1.387 . S
H8119 C8115 0.950 . S
H8120 C8117 0.950 . S
C8121 C8112 1.390 . S
C8121 H8114 0.950 . S
C8121 C8118 1.387 . S
C8122 C8123 1.387 . S
C8122 H8126 0.950 . S
C8122 C8131 1.390 . S
C8123 C8122 1.387 . S
C8123 C8125 1.387 . S
H8124 C8131 0.950 . S
C8125 C8123 1.387 . S
C8125 C8127 1.390 . S
C8125 H8129 0.950 . S
H8126 C8122 0.950 . S
C8127 C8125 1.390 . S
C8127 C8128 1.387 . S
C8127 H8130 0.950 . S
C8128 C8127 1.387 . S
C8128 C8131 1.387 . S
H8129 C8125 0.950 . S
H8130 C8127 0.950 . S
C8131 C8122 1.390 . S
C8131 H8124 0.950 . S
C8131 C8128 1.387 . S
C8132 C8133 1.387 . S
C8132 H8136 0.950 . S
C8132 C8141 1.390 . S
C8133 C8132 1.387 . S
C8133 C8135 1.387 . S
H8134 C8141 0.950 . S
C8135 C8133 1.387 . S
C8135 C8137 1.390 . S
C8135 H8139 0.950 . S
H8136 C8132 0.950 . S
C8137 C8135 1.390 . S
C8137 C8138 1.387 . S
C8137 H8140 0.950 . S
C8138 C8137 1.387 . S
C8138 C8141 1.387 . S
H8139 C8135 0.950 . S
H8140 C8137 0.950 . S
C8141 C8132 1.390 . S
C8141 H8134 0.950 . S
C8141 C8138 1.387 . S
C8142 C8143 1.387 . S
C8142 H8146 0.950 . S
C8142 C8151 1.390 . S
C8143 C8142 1.387 . S
C8143 C8145 1.387 . S
H8144 C8151 0.950 . S
C8145 C8143 1.387 . S
C8145 C8147 1.390 . S
C8145 H8149 0.950 . S
H8146 C8142 0.950 . S
C8147 C8145 1.390 . S
C8147 C8148 1.387 . S
C8147 H8150 0.950 . S
C8148 C8147 1.387 . S
C8148 C8151 1.387 . S
H8149 C8145 0.950 . S
H8150 C8147 0.950 . S
C8151 C8142 1.390 . S
C8151 H8144 0.950 . S
C8151 C8148 1.387 . S
C8152 C8153 1.387 . S
C8152 H8156 0.950 . S
C8152 C8161 1.390 . S
C8153 C8152 1.387 . S
C8153 C8155 1.387 . S
H8154 C8161 0.950 . S
C8155 C8153 1.387 . S
C8155 C8157 1.390 . S
C8155 H8159 0.950 . S
H8156 C8152 0.950 . S
C8157 C8155 1.390 . S
C8157 C8158 1.387 . S
C8157 H8160 0.950 . S
C8158 C8157 1.387 . S
C8158 C8161 1.387 . S
H8159 C8155 0.950 . S
H8160 C8157 0.950 . S
C8161 C8152 1.390 . S
C8161 H8154 0.950 . S
C8161 C8158 1.387 . S
C8162 C8163 1.387 . S
C8162 H8166 0.950 . S
C8162 C8171 1.390 . S
C8163 C8162 1.387 . S
C8163 C8165 1.387 . S
H8164 C8171 0.950 . S
C8165 C8163 1.387 . S
C8165 C8167 1.390 . S
C8165 H8169 0.950 . S
H8166 C8162 0.950 . S
C8167 C8165 1.390 . S
C8167 C8168 1.387 . S
C8167 H8170 0.950 . S
C8168 C8167 1.387 . S
C8168 C8171 1.387 . S
H8169 C8165 0.950 . S
H8170 C8167 0.950 . S
C8171 C8162 1.390 . S
C8171 H8164 0.950 . S
C8171 C8168 1.387 . S
C8172 C8173 1.387 . S
C8172 H8176 0.950 . S
C8172 C8181 1.390 . S
C8173 C8172 1.387 . S
C8173 C8175 1.387 . S
H8174 C8181 0.950 . S
C8175 C8173 1.387 . S
C8175 C8177 1.390 . S
C8175 H8179 0.950 . S
H8176 C8172 0.950 . S
C8177 C8175 1.390 . S
C8177 C8178 1.387 . S
C8177 H8180 0.950 . S
C8178 C8177 1.387 . S
C8178 C8181 1.387 . S
H8179 C8175 0.950 . S
H8180 C8177 0.950 . S
C8181 C8172 1.390 . S
C8181 H8174 0.950 . S
C8181 C8178 1.387 . S
C8182 C8183 1.387 . S
C8182 H8186 0.950 . S
C8182 C8191 1.390 . S
C8183 C8182 1.387 . S
C8183 C8185 1.387 . S
H8184 C8191 0.950 . S
C8185 C8183 1.387 . S
C8185 C8187 1.390 . S
C8185 H8189 0.950 . S
H8186 C8182 0.950 . S
C8187 C8185 1.390 . S
C8187 C8188 1.387 . S
C8187 H8190 0.950 . S
C8188 C8187 1.387 . S
C8188 C8191 1.387 . S
H8189 C8185 0.950 . S
H8190 C8187 0.950 . S
C8191 C8182 1.390 . S
C8191 H8184 0.950 . S
C8191 C8188 1.387 . S
C8192 C8193 1.387 . S
C8192 H8196 0.950 . S
C8192 C8201 1.390 . S
C8193 C8192 1.387 . S
C8193 C8195 1.387 . S
H8194 C8201 0.950 . S
C8195 C8193 1.387 . S
C8195 C8197 1.390 . S
C8195 H8199 0.950 . S
H8196 C8192 0.950 . S
C8197 C8195 1.390 . S
C8197 C8198 1.387 . S
C8197 H8200 0.950 . S
C8198 C8197 1.387 . S
C8198 C8201 1.387 . S
H8199 C8195 0.950 . S
H8200 C8197 0.950 . S
C8201 C8192 1.390 . S
C8201 H8194 0.950 . S
C8201 C8198 1.387 . S
C8202 C8203 1.387 . S
C8202 H8206 0.950 . S
C8202 C8211 1.390 . S
C8203 C8202 1.387 . S
C8203 C8205 1.387 . S
H8204 C8211 0.950 . S
C8205 C8203 1.387 . S
C8205 C8207 1.390 . S
C8205 H8209 0.950 . S
H8206 C8202 0.950 . S
C8207 C8205 1.390 . S
C8207 C8208 1.387 . S
C8207 H8210 0.950 . S
C8208 C8207 1.387 . S
C8208 C8211 1.387 . S
H8209 C8205 0.950 . S
H8210 C8207 0.950 . S
C8211 C8202 1.390 . S
C8211 H8204 0.950 . S
C8211 C8208 1.387 . S
C8212 C8213 1.387 . S
C8212 H8216 0.950 . S
C8212 C8221 1.390 . S
C8213 C8212 1.387 . S
C8213 C8215 1.387 . S
H8214 C8221 0.950 . S
C8215 C8213 1.387 . S
C8215 C8217 1.390 . S
C8215 H8219 0.950 . S
H8216 C8212 0.950 . S
C8217 C8215 1.390 . S
C8217 C8218 1.387 . S
C8217 H8220 0.950 . S
C8218 C8217 1.387 . S
C8218 C8221 1.387 . S
H8219 C8215 0.950 . S
H8220 C8217 0.950 . S
C8221 C8212 1.390 . S
C8221 H8214 0.950 . S
C8221 C8218 1.387 . S
C8222 C8223 1.387 . S
C8222 H8226 0.950 . S
C8222 C8231 1.390 . S
C8223 C8222 1.387 . S
C8223 C8225 1.387 . S
H8224 C8231 0.950 . S
C8225 C8223 1.387 . S
C8225 C8227 1.390 . S
C8225 H8229 0.950 . S
H8226 C8222 0.950 . S
C8227 C8225 1.390 . S
C8227 C8228 1.387 . S
C8227 H8230 0.950 . S
C8228 C8227 1.387 . S
C8228 C8231 1.387 . S
H8229 C8225 0.950 . S
H8230 C8227 0.950 . S
C8231 C8222 1.390 . S
C8231 H8224 0.950 . S
C8231 C8228 1.387 . S
C8232 C8233 1.387 . S
C8232 H8236 0.950 . S
C8232 C8241 1.390 . S
C8233 C8232 1.387 . S
C8233 C8235 1.387 . S
H8234 C8241 0.950 . S
C8235 C8233 1.387 . S
C8235 C8237 1.390 . S
C8235 H8239 0.950 . S
H8236 C8232 0.950 . S
C8237 C8235 1.390 . S
C8237 C8238 1.387 . S
C8237 H8240 0.950 . S
C8238 C8237 1.387 . S
C8238 C8241 1.387 . S
H8239 C8235 0.950 . S
H8240 C8237 0.950 . S
C8241 C8232 1.390 . S
C8241 H8234 0.950 . S
C8241 C8238 1.387 . S
C8242 C8243 1.387 . S
C8242 H8246 0.950 . S
C8242 C8251 1.390 . S
C8243 C8242 1.387 . S
C8243 C8245 1.387 . S
H8244 C8251 0.950 . S
C8245 C8243 1.387 . S
C8245 C8247 1.390 . S
C8245 H8249 0.950 . S
H8246 C8242 0.950 . S
C8247 C8245 1.390 . S
C8247 C8248 1.387 . S
C8247 H8250 0.950 . S
C8248 C8247 1.387 . S
C8248 C8251 1.387 . S
H8249 C8245 0.950 . S
H8250 C8247 0.950 . S
C8251 C8242 1.390 . S
C8251 H8244 0.950 . S
C8251 C8248 1.387 . S
C8252 C8253 1.387 . S
C8252 H8256 0.950 . S
C8252 C8261 1.390 . S
C8253 C8252 1.387 . S
C8253 C8255 1.387 . S
H8254 C8261 0.950 . S
C8255 C8253 1.387 . S
C8255 C8257 1.390 . S
C8255 H8259 0.950 . S
H8256 C8252 0.950 . S
C8257 C8255 1.390 . S
C8257 C8258 1.387 . S
C8257 H8260 0.950 . S
C8258 C8257 1.387 . S
C8258 C8261 1.387 . S
H8259 C8255 0.950 . S
H8260 C8257 0.950 . S
C8261 C8252 1.390 . S
C8261 H8254 0.950 . S
C8261 C8258 1.387 . S
C8262 C8263 1.387 . S
C8262 H8266 0.950 . S
C8262 C8271 1.390 . S
C8263 C8262 1.387 . S
C8263 C8265 1.387 . S
H8264 C8271 0.950 . S
C8265 C8263 1.387 . S
C8265 C8267 1.390 . S
C8265 H8269 0.950 . S
H8266 C8262 0.950 . S
C8267 C8265 1.390 . S
C8267 C8268 1.387 . S
C8267 H8270 0.950 . S
C8268 C8267 1.387 . S
C8268 C8271 1.387 . S
H8269 C8265 0.950 . S
H8270 C8267 0.950 . S
C8271 C8262 1.390 . S
C8271 H8264 0.950 . S
C8271 C8268 1.387 . S
C8272 C8273 1.387 . S
C8272 H8276 0.950 . S
C8272 C8281 1.390 . S
C8273 C8272 1.387 . S
C8273 C8275 1.387 . S
H8274 C8281 0.950 . S
C8275 C8273 1.387 . S
C8275 C8277 1.390 . S
C8275 H8279 0.950 . S
H8276 C8272 0.950 . S
C8277 C8275 1.390 . S
C8277 C8278 1.387 . S
C8277 H8280 0.950 . S
C8278 C8277 1.387 . S
C8278 C8281 1.387 . S
H8279 C8275 0.950 . S
H8280 C8277 0.950 . S
C8281 C8272 1.390 . S
C8281 H8274 0.950 . S
C8281 C8278 1.387 . S
C8282 C8283 1.387 . S
C8282 H8286 0.950 . S
C8282 C8291 1.390 . S
C8283 C8282 1.387 . S
C8283 C8285 1.387 . S
H8284 C8291 0.950 . S
C8285 C8283 1.387 . S
C8285 C8287 1.390 . S
C8285 H8289 0.950 . S
H8286 C8282 0.950 . S
C8287 C8285 1.390 . S
C8287 C8288 1.387 . S
C8287 H8290 0.950 . S
C8288 C8287 1.387 . S
C8288 C8291 1.387 . S
H8289 C8285 0.950 . S
H8290 C8287 0.950 . S
C8291 C8282 1.390 . S
C8291 H8284 0.950 . S
C8291 C8288 1.387 . S
C8292 C8293 1.387 . S
C8292 H8296 0.950 . S
C8292 C8301 1.390 . S
C8293 C8292 1.387 . S
C8293 C8295 1.387 . S
H8294 C8301 0.950 . S
C8295 C8293 1.387 . S
C8295 C8297 1.390 . S
C8295 H8299 0.950 . S
H8296 C8292 0.950 . S
C8297 C8295 1.390 . S
C8297 C8298 1.387 . S
C8297 H8300 0.950 . S
C8298 C8297 1.387 . S
C8298 C8301 1.387 . S
H8299 C8295 0.950 . S
H8300 C8297 0.950 . S
C8301 C8292 1.390 . S
C8301 H8294 0.950 . S
C8301 C8298 1.387 . S
C8302 C8303 1.387 . S
C8302 H8306 0.950 . S
C8302 C8311 1.390 . S
C8303 C8302 1.387 . S
C8303 C8305 1.387 . S
H8304 C8311 0.950 . S
C8305 C8303 1.387 . S
C8305 C8307 1.390 . S
C8305 H8309 0.950 . S
H8306 C8302 0.950 . S
C8307 C8305 1.390 . S
C8307 C8308 1.387 . S
C8307 H8310 0.950 . S
C8308 C8307 1.387 . S
C8308 C8311 1.387 . S
H8309 C8305 0.950 . S
H8310 C8307 0.950 . S
C8311 C8302 1.390 . S
C8311 H8304 0.950 . S
C8311 C8308 1.387 . S
C8312 C8313 1.387 . S
C8312 H8316 0.950 . S
C8312 C8321 1.390 . S
C8313 C8312 1.387 . S
C8313 C8315 1.387 . S
H8314 C8321 0.950 . S
C8315 C8313 1.387 . S
C8315 C8317 1.390 . S
C8315 H8319 0.950 . S
H8316 C8312 0.950 . S
C8317 C8315 1.390 . S
C8317 C8318 1.387 . S
C8317 H8320 0.950 . S
C8318 C8317 1.387 . S
C8318 C8321 1.387 . S
H8319 C8315 0.950 . S
H8320 C8317 0.950 . S
C8321 C8312 1.390 . S
C8321 H8314 0.950 . S
C8321 C8318 1.387 . S
C8322 C8323 1.387 . S
C8322 H8326 0.950 . S
C8322 C8331 1.390 . S
C8323 C8322 1.387 . S
C8323 C8325 1.387 . S
H8324 C8331 0.950 . S
C8325 C8323 1.387 . S
C8325 C8327 1.390 . S
C8325 H8329 0.950 . S
H8326 C8322 0.950 . S
C8327 C8325 1.390 . S
C8327 C8328 1.387 . S
C8327 H8330 0.950 . S
C8328 C8327 1.387 . S
C8328 C8331 1.387 . S
H8329 C8325 0.950 . S
H8330 C8327 0.950 . S
C8331 C8322 1.390 . S
C8331 H8324 0.950 . S
C8331 C8328 1.387 . S
C8332 C8333 1.387 . S
C8332 H8336 0.950 . S
C8332 C8341 1.390 . S
C8333 C8332 1.387 . S
C8333 C8335 1.387 . S
H8334 C8341 0.950 . S
C8335 C8333 1.387 . S
C8335 C8337 1.390 . S
C8335 H8339 0.950 . S
H8336 C8332 0.950 . S
C8337 C8335 1.390 . S
C8337 C8338 1.387 . S
C8337 H8340 0.950 . S
C8338 C8337 1.387 . S
C8338 C8341 1.387 . S
H8339 C8335 0.950 . S
H8340 C8337 0.950 . S
C8341 C8332 1.390 . S
C8341 H8334 0.950 . S
C8341 C8338 1.387 . S
C8342 C8343 1.387 . S
C8342 H8346 0.950 . S
C8342 C8351 1.390 . S
C8343 C8342 1.387 . S
C8343 C8345 1.387 . S
H8344 C8351 0.950 . S
C8345 C8343 1.387 . S
C8345 C8347 1.390 . S
C8345 H8349 0.950 . S
H8346 C8342 0.950 . S
C8347 C8345 1.390 . S
C8347 C8348 1.387 . S
C8347 H8350 0.950 . S
C8348 C8347 1.387 . S
C8348 C8351 1.387 . S
H8349 C8345 0.950 . S
H8350 C8347 0.950 . S
C8351 C8342 1.390 . S
C8351 H8344 0.950 . S
C8351 C8348 1.387 . S
C8352 C8353 1.387 . S
C8352 H8356 0.950 . S
C8352 C8361 1.390 . S
C8353 C8352 1.387 . S
C8353 C8355 1.387 . S
H8354 C8361 0.950 . S
C8355 C8353 1.387 . S
C8355 C8357 1.390 . S
C8355 H8359 0.950 . S
H8356 C8352 0.950 . S
C8357 C8355 1.390 . S
C8357 C8358 1.387 . S
C8357 H8360 0.950 . S
C8358 C8357 1.387 . S
C8358 C8361 1.387 . S
H8359 C8355 0.950 . S
H8360 C8357 0.950 . S
C8361 C8352 1.390 . S
C8361 H8354 0.950 . S
C8361 C8358 1.387 . S
C8362 C8363 1.387 . S
C8362 H8366 0.950 . S
C8362 C8371 1.390 . S
C8363 C8362 1.387 . S
C8363 C8365 1.387 . S
H8364 C8371 0.950 . S
C8365 C8363 1.387 . S
C8365 C8367 1.390 . S
C8365 H8369 0.950 . S
H8366 C8362 0.950 . S
C8367 C8365 1.390 . S
C8367 C8368 1.387 . S
C8367 H8370 0.950 . S
C8368 C8367 1.387 . S
C8368 C8371 1.387 . S
H8369 C8365 0.950 . S
H8370 C8367 0.950 . S
C8371 C8362 1.390 . S
C8371 H8364 0.950 . S
C8371 C8368 1.387 . S
C8372 C8373 1.387 . S
C8372 H8376 0.950 . S
C8372 C8381 1.390 . S
C8373 C8372 1.387 . S
C8373 C8375 1.387 . S
H8374 C8381 0.950 . S
C8375 C8373 1.387 . S
C8375 C8377 1.390 . S
C8375 H8379 0.950 . S
H8376 C8372 0.950 . S
C8377 C8375 1.390 . S
C8377 C8378 1.387 . S
C8377 H8380 0.950 . S
C8378 C8377 1.387 . S
C8378 C8381 1.387 . S
H8379 C8375 0.950 . S
H8380 C8377 0.950 . S
C8381 C8372 1.390 . S
C8381 H8374 0.950 . S
C8381 C8378 1.387 . S
C8382 C8383 1.387 . S
C8382 H8386 0.950 . S
C8382 C8391 1.390 . S
C8383 C8382 1.387 . S
C8383 C8385 1.387 . S
H8384 C8391 0.950 . S
C8385 C8383 1.387 . S
C8385 C8387 1.390 . S
C8385 H8389 0.950 . S
H8386 C8382 0.950 . S
C8387 C8385 1.390 . S
C8387 C8388 1.387 . S
C8387 H8390 0.950 . S
C8388 C8387 1.387 . S
C8388 C8391 1.387 . S
H8389 C8385 0.950 . S
H8390 C8387 0.950 . S
C8391 C8382 1.390 . S
C8391 H8384 0.950 . S
C8391 C8388 1.387 . S
C8392 C8393 1.387 . S
C8392 H8396 0.950 . S
C8392 C8401 1.390 . S
C8393 C8392 1.387 . S
C8393 C8395 1.387 . S
H8394 C8401 0.950 . S
C8395 C8393 1.387 . S
C8395 C8397 1.390 . S
C8395 H8399 0.950 . S
H8396 C8392 0.950 . S
C8397 C8395 1.390 . S
C8397 C8398 1.387 . S
C8397 H8400 0.950 . S
C8398 C8397 1.387 . S
C8398 C8401 1.387 . S
H8399 C8395 0.950 . S
H8400 C8397 0.950 . S
C8401 C8392 1.390 . S
C8401 H8394 0.950 . S
C8401 C8398 1.387 . S
C8402 C8403 1.387 . S
C8402 H8406 0.950 . S
C8402 C8411 1.390 . S
C8403 C8402 1.387 . S
C8403 C8405 1.387 . S
H8404 C8411 0.950 . S
C8405 C8403 1.387 . S
C8405 C8407 1.390 . S
C8405 H8409 0.950 . S
H8406 C8402 0.950 . S
C8407 C8405 1.390 . S
C8407 C8408 1.387 . S
C8407 H8410 0.950 . S
C8408 C8407 1.387 . S
C8408 C8411 1.387 . S
H8409 C8405 0.950 . S
H8410 C8407 0.950 . S
C8411 C8402 1.390 . S
C8411 H8404 0.950 . S
C8411 C8408 1.387 . S
C8412 C8413 1.387 . S
C8412 H8416 0.950 . S
C8412 C8421 1.390 . S
C8413 C8412 1.387 . S
C8413 C8415 1.387 . S
H8414 C8421 0.950 . S
C8415 C8413 1.387 . S
C8415 C8417 1.390 . S
C8415 H8419 0.950 . S
H8416 C8412 0.950 . S
C8417 C8415 1.390 . S
C8417 C8418 1.387 . S
C8417 H8420 0.950 . S
C8418 C8417 1.387 . S
C8418 C8421 1.387 . S
H8419 C8415 0.950 . S
H8420 C8417 0.950 . S
C8421 C8412 1.390 . S
C8421 H8414 0.950 . S
C8421 C8418 1.387 . S
C8422 C8423 1.387 . S
C8422 H8426 0.950 . S
C8422 C8431 1.390 . S
C8423 C8422 1.387 . S
C8423 C8425 1.387 . S
H8424 C8431 0.950 . S
C8425 C8423 1.387 . S
C8425 C8427 1.390 . S
C8425 H8429 0.950 . S
H8426 C8422 0.950 . S
C8427 C8425 1.390 . S
C8427 C8428 1.387 . S
C8427 H8430 0.950 . S
C8428 C8427 1.387 . S
C8428 C8431 1.387 . S
H8429 C8425 0.950 . S
H8430 C8427 0.950 . S
C8431 C8422 1.390 . S
C8431 H8424 0.950 . S
C8431 C8428 1.387 . S
C8432 C8433 1.387 . S
C8432 H8436 0.950 . S
C8432 C8441 1.390 . S
C8433 C8432 1.387 . S
C8433 C8435 1.387 . S
H8434 C8441 0.950 . S
C8435 C8433 1.387 . S
C8435 C8437 1.390 . S
C8435 H8439 0.950 . S
H8436 C8432 0.950 . S
C8437 C8435 1.390 . S
C8437 C8438 1.387 . S
C8437 H8440 0.950 . S
C8438 C8437 1.387 . S
C8438 C8441 1.387 . S
H8439 C8435 0.950 . S
H8440 C8437 0.950 . S
C8441 C8432 1.390 . S
C8441 H8434 0.950 . S
C8441 C8438 1.387 . S
C8442 C8443 1.387 . S
C8442 H8446 0.950 . S
C8442 C8451 1.390 . S
C8443 C8442 1.387 . S
C8443 C8445 1.387 . S
H8444 C8451 0.950 . S
C8445 C8443 1.387 . S
C8445 C8447 1.390 . S
C8445 H8449 0.950 . S
H8446 C8442 0.950 . S
C8447 C8445 1.390 . S
C8447 C8448 1.387 . S
C8447 H8450 0.950 . S
C8448 C8447 1.387 . S
C8448 C8451 1.387 . S
H8449 C8445 0.950 . S
H8450 C8447 0.950 . S
C8451 C8442 1.390 . S
C8451 H8444 0.950 . S
C8451 C8448 1.387 . S
C8452 C8453 1.387 . S
C8452 H8456 0.950 . S
C8452 C8461 1.390 . S
C8453 C8452 1.387 . S
C8453 C8455 1.387 . S
H8454 C8461 0.950 . S
C8455 C8453 1.387 . S
C8455 C8457 1.390 . S
C8455 H8459 0.950 . S
H8456 C8452 0.950 . S
C8457 C8455 1.390 . S
C8457 C8458 1.387 . S
C8457 H8460 0.950 . S
C8458 C8457 1.387 . S
C8458 C8461 1.387 . S
H8459 C8455 0.950 . S
H8460 C8457 0.950 . S
C8461 C8452 1.390 . S
C8461 H8454 0.950 . S
C8461 C8458 1.387 . S
C8462 C8463 1.387 . S
C8462 H8466 0.950 . S
C8462 C8471 1.390 . S
C8463 C8462 1.387 . S
C8463 C8465 1.387 . S
H8464 C8471 0.950 . S
C8465 C8463 1.387 . S
C8465 C8467 1.390 . S
C8465 H8469 0.950 . S
H8466 C8462 0.950 . S
C8467 C8465 1.390 . S
C8467 C8468 1.387 . S
C8467 H8470 0.950 . S
C8468 C8467 1.387 . S
C8468 C8471 1.387 . S
H8469 C8465 0.950 . S
H8470 C8467 0.950 . S
C8471 C8462 1.390 . S
C8471 H8464 0.950 . S
C8471 C8468 1.387 . S
C8472 C8473 1.387 . S
C8472 H8476 0.950 . S
C8472 C8481 1.390 . S
C8473 C8472 1.387 . S
C8473 C8475 1.387 . S
H8474 C8481 0.950 . S
C8475 C8473 1.387 . S
C8475 C8477 1.390 . S
C8475 H8479 0.950 . S
H8476 C8472 0.950 . S
C8477 C8475 1.390 . S
C8477 C8478 1.387 . S
C8477 H8480 0.950 . S
C8478 C8477 1.387 . S
C8478 C8481 1.387 . S
H8479 C8475 0.950 . S
H8480 C8477 0.950 . S
C8481 C8472 1.390 . S
C8481 H8474 0.950 . S
C8481 C8478 1.387 . S
C8482 C8483 1.387 . S
C8482 H8486 0.950 . S
C8482 C8491 1.390 . S
C8483 C8482 1.387 . S
C8483 C8485 1.387 . S
H8484 C8491 0.950 . S
C8485 C8483 1.387 . S
C8485 C8487 1.390 . S
C8485 H8489 0.950 . S
H8486 C8482 0.950 . S
C8487 C8485 1.390 . S
C8487 C8488 1.387 . S
C8487 H8490 0.950 . S
C8488 C8487 1.387 . S
C8488 C8491 1.387 . S
H8489 C8485 0.950 . S
H8490 C8487 0.950 . S
C8491 C8482 1.390 . S
C8491 H8484 0.950 . S
C8491 C8488 1.387 . S
C8492 C8493 1.387 . S
C8492 H8496 0.950 . S
C8492 C8501 1.390 . S
C8493 C8492 1.387 . S
C8493 C8495 1.387 . S
H8494 C8501 0.950 . S
C8495 C8493 1.387 . S
C8495 C8497 1.390 . S
C8495 H8499 0.950 . S
H8496 C8492 0.950 . S
C8497 C8495 1.390 . S
C8497 C8498 1.387 . S
C8497 H8500 0.950 . S
C8498 C8497 1.387 . S
C8498 C8501 1.387 . S
H8499 C8495 0.950 . S
H8500 C8497 0.950 . S
C8501 C8492 1.390 . S
C8501 H8494 0.950 . S
C8501 C8498 1.387 . S
C8502 C8503 1.387 . S
C8502 H8506 0.950 . S
C8502 C8511 1.390 . S
C8503 C8502 1.387 . S
C8503 C8505 1.387 . S
H8504 C8511 0.950 . S
C8505 C8503 1.387 . S
C8505 C8507 1.390 . S
C8505 H8509 0.950 . S
H8506 C8502 0.950 . S
C8507 C8505 1.390 . S
C8507 C8508 1.387 . S
C8507 H8510 0.950 . S
C8508 C8507 1.387 . S
C8508 C8511 1.387 . S
H8509 C8505 0.950 . S
H8510 C8507 0.950 . S
C8511 C8502 1.390 . S
C8511 H8504 0.950 . S
C8511 C8508 1.387 . S
C8512 C8513 1.387 . S
C8512 H8516 0.950 . S
C8512 C8521 1.390 . S
C8513 C8512 1.387 . S
C8513 C8515 1.387 . S
H8514 C8521 0.950 . S
C8515 C8513 1.387 . S
C8515 C8517 1.390 . S
C8515 H8519 0.950 . S
H8516 C8512 0.950 . S
C8517 C8515 1.390 . S
C8517 C8518 1.387 . S
C8517 H8520 0.950 . S
C8518 C8517 1.387 . S
C8518 C8521 1.387 . S
H8519 C8515 0.950 . S
H8520 C8517 0.950 . S
C8521 C8512 1.390 . S
C8521 H8514 0.950 . S
C8521 C8518 1.387 . S
C8522 C8523 1.387 . S
C8522 H8526 0.950 . S
C8522 C8531 1.390 . S
C8523 C8522 1.387 . S
C8523 C8525 1.387 . S
H8524 C8531 0.950 . S
C8525 C8523 1.387 . S
C8525 C8527 1.390 . S
C8525 H8529 0.950 . S
H8526 C8522 0.950 . S
C8527 C8525 1.390 . S
C8527 C8528 1.387 . S
C8527 H8530 0.950 . S
C8528 C8527 1.387 . S
C8528 C8531 1.387 . S
H8529 C8525 0.950 . S
H8530 C8527 0.950 . S
C8531 C8522 1.390 . S
C8531 H8524 0.950 . S
C8531 C8528 1.387 . S
C8532 C8533 1.387 . S
C8532 H8536 0.950 . S
C8532 C8541 1.390 . S
C8533 C8532 1.387 . S
C8533 C8535 1.387 . S
H8534 C8541 0.950 . S
C8535 C8533 1.387 . S
C8535 C8537 1.390 . S
C8535 H8539 0.950 . S
H8536 C8532 0.950 . S
C8537 C8535 1.390 . S
C8537 C8538 1.387 . S
C8537 H8540 0.950 . S
C8538 C8537 1.387 . S
C8538 C8541 1.387 . S
H8539 C8535 0.950 . S
H8540 C8537 0.950 . S
C8541 C8532 1.390 . S
C8541 H8534 0.950 . S
C8541 C8538 1.387 . S
C8542 C8543 1.387 . S
C8542 H8546 0.950 . S
C8542 C8551 1.390 . S
C8543 C8542 1.387 . S
C8543 C8545 1.387 . S
H8544 C8551 0.950 . S
C8545 C8543 1.387 . S
C8545 C8547 1.390 . S
C8545 H8549 0.950 . S
H8546 C8542 0.950 . S
C8547 C8545 1.390 . S
C8547 C8548 1.387 . S
C8547 H8550 0.950 . S
C8548 C8547 1.387 . S
C8548 C8551 1.387 . S
H8549 C8545 0.950 . S
H8550 C8547 0.950 . S
C8551 C8542 1.390 . S
C8551 H8544 0.950 . S
C8551 C8548 1.387 . S
C8552 C8553 1.387 . S
C8552 H8556 0.950 . S
C8552 C8561 1.390 . S
C8553 C8552 1.387 . S
C8553 C8555 1.387 . S
H8554 C8561 0.950 . S
C8555 C8553 1.387 . S
C8555 C8557 1.390 . S
C8555 H8559 0.950 . S
H8556 C8552 0.950 . S
C8557 C8555 1.390 . S
C8557 C8558 1.387 . S
C8557 H8560 0.950 . S
C8558 C8557 1.387 . S
C8558 C8561 1.387 . S
H8559 C8555 0.950 . S
H8560 C8557 0.950 . S
C8561 C8552 1.390 . S
C8561 H8554 0.950 . S
C8561 C8558 1.387 . S
C8562 C8563 1.387 . S
C8562 H8566 0.950 . S
C8562 C8571 1.390 . S
C8563 C8562 1.387 . S
C8563 C8565 1.387 . S
H8564 C8571 0.950 . S
C8565 C8563 1.387 . S
C8565 C8567 1.390 . S
C8565 H8569 0.950 . S
H8566 C8562 0.950 . S
C8567 C8565 1.390 . S
C8567 C8568 1.387 . S
C8567 H8570 0.950 . S
C8568 C8567 1.387 . S
C8568 C8571 1.387 . S
H8569 C8565 0.950 . S
H8570 C8567 0.950 . S
C8571 C8562 1.390 . S
C8571 H8564 0.950 . S
C8571 C8568 1.387 . S
C8572 C8573 1.387 . S
C8572 H8576 0.950 . S
C8572 C8581 1.390 . S
C8573 C8572 1.387 . S
C8573 C8575 1.387 . S
H8574 C8581 0.950 . S
C8575 C8573 1.387 . S
C8575 C8577 1.390 . S
C8575 H8579 0.950 . S
H8576 C8572 0.950 . S
C8577 C8575 1.390 . S
C8577 C8578 1.387 . S
C8577 H8580 0.950 . S
C8578 C8577 1.387 . S
C8578 C8581 1.387 . S
H8579 C8575 0.950 . S
H8580 C8577 0.950 . S
C8581 C8572 1.390 . S
C8581 H8574 0.950 . S
C8581 C8578 1.387 . S
C8582 C8583 1.387 . S
C8582 H8586 0.950 . S
C8582 C8591 1.390 . S
C8583 C8582 1.387 . S
C8583 C8585 1.387 . S
H8584 C8591 0.950 . S
C8585 C8583 1.387 . S
C8585 C8587 1.390 . S
C8585 H8589 0.950 . S
H8586 C8582 0.950 . S
C8587 C8585 1.390 . S
C8587 C8588 1.387 . S
C8587 H8590 0.950 . S
C8588 C8587 1.387 . S
C8588 C8591 1.387 . S
H8589 C8585 0.950 . S
H8590 C8587 0.950 . S
C8591 C8582 1.390 . S
C8591 H8584 0.950 . S
C8591 C8588 1.387 . S
C8592 C8593 1.387 . S
C8592 H8596 0.950 . S
C8592 C8601 1.390 . S
C8593 C8592 1.387 . S
C8593 C8595 1.387 . S
H8594 C8601 0.950 . S
C8595 C8593 1.387 . S
C8595 C8597 1.390 . S
C8595 H8599 0.950 . S
H8596 C8592 0.950 . S
C8597 C8595 1.390 . S
C8597 C8598 1.387 . S
C8597 H8600 0.950 . S
C8598 C8597 1.387 . S
C8598 C8601 1.387 . S
H8599 C8595 0.950 . S
H8600 C8597 0.950 . S
C8601 C8592 1.390 . S
C8601 H8594 0.950 . S
C8601 C8598 1.387 . S
C8602 C8603 1.387 . S
C8602 H8606 0.950 . S
C8602 C8611 1.390 . S
C8603 C8602 1.387 . S
C8603 C8605 1.387 . S
H8604 C8611 0.950 . S
C8605 C8603 1.387 . S
C8605 C8607 1.390 . S
C8605 H8609 0.950 . S
H8606 C8602 0.950 . S
C8607 C8605 1.390 . S
C8607 C8608 1.387 . S
C8607 H8610 0.950 . S
C8608 C8607 1.387 . S
C8608 C8611 1.387 . S
H8609 C8605 0.950 . S
H8610 C8607 0.950 . S
C8611 C8602 1.390 . S
C8611 H8604 0.950 . S
C8611 C8608 1.387 . S
C8612 C8613 1.387 . S
C8612 H8616 0.950 . S
C8612 C8621 1.390 . S
C8613 C8612 1.387 . S
C8613 C8615 1.387 . S
H8614 C8621 0.950 . S
C8615 C8613 1.387 . S
C8615 C8617 1.390 . S
C8615 H8619 0.950 . S
H8616 C8612 0.950 . S
C8617 C8615 1.390 . S
C8617 C8618 1.387 . S
C8617 H8620 0.950 . S
C8618 C8617 1.387 . S
C8618 C8621 1.387 . S
H8619 C8615 0.950 . S
H8620 C8617 0.950 . S
C8621 C8612 1.390 . S
C8621 H8614 0.950 . S
C8621 C8618 1.387 . S
C8622 C8623 1.387 . S
C8622 H8626 0.950 . S
C8622 C8631 1.390 . S
C8623 C8622 1.387 . S
C8623 C8625 1.387 . S
H8624 C8631 0.950 . S
C8625 C8623 1.387 . S
C8625 C8627 1.390 . S
C8625 H8629 0.950 . S
H8626 C8622 0.950 . S
C8627 C8625 1.390 . S
C8627 C8628 1.387 . S
C8627 H8630 0.950 . S
C8628 C8627 1.387 . S
C8628 C8631 1.387 . S
H8629 C8625 0.950 . S
H8630 C8627 0.950 . S
C8631 C8622 1.390 . S
C8631 H8624 0.950 . S
C8631 C8628 1.387 . S
C8632 C8633 1.387 . S
C8632 H8636 0.950 . S
C8632 C8641 1.390 . S
C8633 C8632 1.387 . S
C8633 C8635 1.387 . S
H8634 C8641 0.950 . S
C8635 C8633 1.387 . S
C8635 C8637 1.390 . S
C8635 H8639 0.950 . S
H8636 C8632 0.950 . S
C8637 C8635 1.390 . S
C8637 C8638 1.387 . S
C8637 H8640 0.950 . S
C8638 C8637 1.387 . S
C8638 C8641 1.387 . S
H8639 C8635 0.950 . S
H8640 C8637 0.950 . S
C8641 C8632 1.390 . S
C8641 H8634 0.950 . S
C8641 C8638 1.387 . S
C8642 C8643 1.387 . S
C8642 H8646 0.950 . S
C8642 C8651 1.390 . S
C8643 C8642 1.387 . S
C8643 C8645 1.387 . S
H8644 C8651 0.950 . S
C8645 C8643 1.387 . S
C8645 C8647 1.390 . S
C8645 H8649 0.950 . S
H8646 C8642 0.950 . S
C8647 C8645 1.390 . S
C8647 C8648 1.387 . S
C8647 H8650 0.950 . S
C8648 C8647 1.387 . S
C8648 C8651 1.387 . S
H8649 C8645 0.950 . S
H8650 C8647 0.950 . S
C8651 C8642 1.390 . S
C8651 H8644 0.950 . S
C8651 C8648 1.387 . S
C8652 C8653 1.387 . S
C8652 H8656 0.950 . S
C8652 C8661 1.390 . S
C8653 C8652 1.387 . S
C8653 C8655 1.387 . S
H8654 C8661 0.950 . S
C8655 C8653 1.387 . S
C8655 C8657 1.390 . S
C8655 H8659 0.950 . S
H8656 C8652 0.950 . S
C8657 C8655 1.390 . S
C8657 C8658 1.387 . S
C8657 H8660 0.950 . S
C8658 C8657 1.387 . S
C8658 C8661 1.387 . S
H8659 C8655 0.950 . S
H8660 C8657 0.950 . S
C8661 C8652 1.390 . S
C8661 H8654 0.950 . S
C8661 C8658 1.387 . S
C8662 C8663 1.387 . S
C8662 H8666 0.950 . S
C8662 C8671 1.390 . S
C8663 C8662 1.387 . S
C8663 C8665 1.387 . S
H8664 C8671 0.950 . S
C8665 C8663 1.387 . S
C8665 C8667 1.390 . S
C8665 H8669 0.950 . S
H8666 C8662 0.950 . S
C8667 C8665 1.390 . S
C8667 C8668 1.387 . S
C8667 H8670 0.950 . S
C8668 C8667 1.387 . S
C8668 C8671 1.387 . S
H8669 C8665 0.950 . S
H8670 C8667 0.950 . S
C8671 C8662 1.390 . S
C8671 H8664 0.950 . S
C8671 C8668 1.387 . S
C8672 C8673 1.387 . S
C8672 H8676 0.950 . S
C8672 C8681 1.390 . S
C8673 C8672 1.387 . S
C8673 C8675 1.387 . S
H8674 C8681 0.950 . S
C8675 C8673 1.387 . S
C8675 C8677 1.390 . S
C8675 H8679 0.950 . S
H8676 C8672 0.950 . S
C8677 C8675 1.390 . S
C8677 C8678 1.387 . S
C8677 H8680 0.950 . S
C8678 C8677 1.387 . S
C8678 C8681 1.387 . S
H8679 C8675 0.950 . S
H8680 C8677 0.950 . S
C8681 C8672 1.390 . S
C8681 H8674 0.950 . S
C8681 C8678 1.387 . S
C8682 C8683 1.387 . S
C8682 H8686 0.950 . S
C8682 C8691 1.390 . S
C8683 C8682 1.387 . S
C8683 C8685 1.387 . S
H8684 C8691 0.950 . S
C8685 C8683 1.387 . S
C8685 C8687 1.390 . S
C8685 H8689 0.950 . S
H8686 C8682 0.950 . S
C8687 C8685 1.390 . S
C8687 C8688 1.387 . S
C8687 H8690 0.950 . S
C8688 C8687 1.387 . S
C8688 C8691 1.387 . S
H8689 C8685 0.950 . S
H8690 C8687 0.950 . S
C8691 C8682 1.390 . S
C8691 H8684 0.950 . S
C8691 C8688 1.387 . S
C8692 C8693 1.387 . S
C8692 H8696 0.950 . S
C8692 C8701 1.390 . S
C8693 C8692 1.387 . S
C8693 C8695 1.387 . S
H8694 C8701 0.950 . S
C8695 C8693 1.387 . S
C8695 C8697 1.390 . S
C8695 H8699 0.950 . S
H8696 C8692 0.950 . S
C8697 C8695 1.390 . S
C8697 C8698 1.387 . S
C8697 H8700 0.950 . S
C8698 C8697 1.387 . S
C8698 C8701 1.387 . S
H8699 C8695 0.950 . S
H8700 C8697 0.950 . S
C8701 C8692 1.390 . S
C8701 H8694 0.950 . S
C8701 C8698 1.387 . S
C8702 C8703 1.387 . S
C8702 H8706 0.950 . S
C8702 C8711 1.390 . S
C8703 C8702 1.387 . S
C8703 C8705 1.387 . S
H8704 C8711 0.950 . S
C8705 C8703 1.387 . S
C8705 C8707 1.390 . S
C8705 H8709 0.950 . S
H8706 C8702 0.950 . S
C8707 C8705 1.390 . S
C8707 C8708 1.387 . S
C8707 H8710 0.950 . S
C8708 C8707 1.387 . S
C8708 C8711 1.387 . S
H8709 C8705 0.950 . S
H8710 C8707 0.950 . S
C8711 C8702 1.390 . S
C8711 H8704 0.950 . S
C8711 C8708 1.387 . S
C8712 C8713 1.387 . S
C8712 H8716 0.950 . S
C8712 C8721 1.390 . S
C8713 C8712 1.387 . S
C8713 C8715 1.387 . S
H8714 C8721 0.950 . S
C8715 C8713 1.387 . S
C8715 C8717 1.390 . S
C8715 H8719 0.950 . S
H8716 C8712 0.950 . S
C8717 C8715 1.390 . S
C8717 C8718 1.387 . S
C8717 H8720 0.950 . S
C8718 C8717 1.387 . S
C8718 C8721 1.387 . S
H8719 C8715 0.950 . S
H8720 C8717 0.950 . S
C8721 C8712 1.390 . S
C8721 H8714 0.950 . S
C8721 C8718 1.387 . S
C8722 C8723 1.387 . S
C8722 H8726 0.950 . S
C8722 C8731 1.390 . S
C8723 C8722 1.387 . S
C8723 C8725 1.387 . S
H8724 C8731 0.950 . S
C8725 C8723 1.387 . S
C8725 C8727 1.390 . S
C8725 H8729 0.950 . S
H8726 C8722 0.950 . S
C8727 C8725 1.390 . S
C8727 C8728 1.387 . S
C8727 H8730 0.950 . S
C8728 C8727 1.387 . S
C8728 C8731 1.387 . S
H8729 C8725 0.950 . S
H8730 C8727 0.950 . S
C8731 C8722 1.390 . S
C8731 H8724 0.950 . S
C8731 C8728 1.387 . S
C8732 C8733 1.387 . S
C8732 H8736 0.950 . S
C8732 C8741 1.390 . S
C8733 C8732 1.387 . S
C8733 C8735 1.387 . S
H8734 C8741 0.950 . S
C8735 C8733 1.387 . S
C8735 C8737 1.390 . S
C8735 H8739 0.950 . S
H8736 C8732 0.950 . S
C8737 C8735 1.390 . S
C8737 C8738 1.387 . S
C8737 H8740 0.950 . S
C8738 C8737 1.387 . S
C8738 C8741 1.387 . S
H8739 C8735 0.950 . S
H8740 C8737 0.950 . S
C8741 C8732 1.390 . S
C8741 H8734 0.950 . S
C8741 C8738 1.387 . S
C8742 C8743 1.387 . S
C8742 H8746 0.950 . S
C8742 C8751 1.390 . S
C8743 C8742 1.387 . S
C8743 C8745 1.387 . S
H8744 C8751 0.950 . S
C8745 C8743 1.387 . S
C8745 C8747 1.390 . S
C8745 H8749 0.950 . S
H8746 C8742 0.950 . S
C8747 C8745 1.390 . S
C8747 C8748 1.387 . S
C8747 H8750 0.950 . S
C8748 C8747 1.387 . S
C8748 C8751 1.387 . S
H8749 C8745 0.950 . S
H8750 C8747 0.950 . S
C8751 C8742 1.390 . S
C8751 H8744 0.950 . S
C8751 C8748 1.387 . S
C8752 C8753 1.387 . S
C8752 H8756 0.950 . S
C8752 C8761 1.390 . S
C8753 C8752 1.387 . S
C8753 C8755 1.387 . S
H8754 C8761 0.950 . S
C8755 C8753 1.387 . S
C8755 C8757 1.390 . S
C8755 H8759 0.950 . S
H8756 C8752 0.950 . S
C8757 C8755 1.390 . S
C8757 C8758 1.387 . S
C8757 H8760 0.950 . S
C8758 C8757 1.387 . S
C8758 C8761 1.387 . S
H8759 C8755 0.950 . S
H8760 C8757 0.950 . S
C8761 C8752 1.390 . S
C8761 H8754 0.950 . S
C8761 C8758 1.387 . S
C8762 C8763 1.387 . S
C8762 H8766 0.950 . S
C8762 C8771 1.390 . S
C8763 C8762 1.387 . S
C8763 C8765 1.387 . S
H8764 C8771 0.950 . S
C8765 C8763 1.387 . S
C8765 C8767 1.390 . S
C8765 H8769 0.950 . S
H8766 C8762 0.950 . S
C8767 C8765 1.390 . S
C8767 C8768 1.387 . S
C8767 H8770 0.950 . S
C8768 C8767 1.387 . S
C8768 C8771 1.387 . S
H8769 C8765 0.950 . S
H8770 C8767 0.950 . S
C8771 C8762 1.390 . S
C8771 H8764 0.950 . S
C8771 C8768 1.387 . S
C8772 C8773 1.387 . S
C8772 H8776 0.950 . S
C8772 C8781 1.390 . S
C8773 C8772 1.387 . S
C8773 C8775 1.387 . S
H8774 C8781 0.950 . S
C8775 C8773 1.387 . S
C8775 C8777 1.390 . S
C8775 H8779 0.950 . S
H8776 C8772 0.950 . S
C8777 C8775 1.390 . S
C8777 C8778 1.387 . S
C8777 H8780 0.950 . S
C8778 C8777 1.387 . S
C8778 C8781 1.387 . S
H8779 C8775 0.950 . S
H8780 C8777 0.950 . S
C8781 C8772 1.390 . S
C8781 H8774 0.950 . S
C8781 C8778 1.387 . S
C8782 C8783 1.387 . S
C8782 H8786 0.950 . S
C8782 C8791 1.390 . S
C8783 C8782 1.387 . S
C8783 C8785 1.387 . S
H8784 C8791 0.950 . S
C8785 C8783 1.387 . S
C8785 C8787 1.390 . S
C8785 H8789 0.950 . S
H8786 C8782 0.950 . S
C8787 C8785 1.390 . S
C8787 C8788 1.387 . S
C8787 H8790 0.950 . S
C8788 C8787 1.387 . S
C8788 C8791 1.387 . S
H8789 C8785 0.950 . S
H8790 C8787 0.950 . S
C8791 C8782 1.390 . S
C8791 H8784 0.950 . S
C8791 C8788 1.387 . S
C8792 C8793 1.387 . S
C8792 H8796 0.950 . S
C8792 C8801 1.390 . S
C8793 C8792 1.387 . S
C8793 C8795 1.387 . S
H8794 C8801 0.950 . S
C8795 C8793 1.387 . S
C8795 C8797 1.390 . S
C8795 H8799 0.950 . S
H8796 C8792 0.950 . S
C8797 C8795 1.390 . S
C8797 C8798 1.387 . S
C8797 H8800 0.950 . S
C8798 C8797 1.387 . S
C8798 C8801 1.387 . S
H8799 C8795 0.950 . S
H8800 C8797 0.950 . S
C8801 C8792 1.390 . S
C8801 H8794 0.950 . S
C8801 C8798 1.387 . S
C8802 C8803 1.387 . S
C8802 H8806 0.950 . S
C8802 C8811 1.390 . S
C8803 C8802 1.387 . S
C8803 C8805 1.387 . S
H8804 C8811 0.950 . S
C8805 C8803 1.387 . S
C8805 C8807 1.390 . S
C8805 H8809 0.950 . S
H8806 C8802 0.950 . S
C8807 C8805 1.390 . S
C8807 C8808 1.387 . S
C8807 H8810 0.950 . S
C8808 C8807 1.387 . S
C8808 C8811 1.387 . S
H8809 C8805 0.950 . S
H8810 C8807 0.950 . S
C8811 C8802 1.390 . S
C8811 H8804 0.950 . S
C8811 C8808 1.387 . S
C8812 C8813 1.387 . S
C8812 H8816 0.950 . S
C8812 C8821 1.390 . S
C8813 C8812 1.387 . S
C8813 C8815 1.387 . S
H8814 C8821 0.950 . S
C8815 C8813 1.387 . S
C8815 C8817 1.390 . S
C8815 H8819 0.950 . S
H8816 C8812 0.950 . S
C8817 C8815 1.390 . S
C8817 C8818 1.387 . S
C8817 H8820 0.950 . S
C8818 C8817 1.387 . S
C8818 C8821 1.387 . S
H8819 C8815 0.950 . S
H8820 C8817 0.950 . S
C8821 C8812 1.390 . S
C8821 H8814 0.950 . S
C8821 C8818 1.387 . S
C8822 C8823 1.387 . S
C8822 H8826 0.950 . S
C8822 C8831 1.390 . S
C8823 C8822 1.387 . S
C8823 C8825 1.387 . S
H8824 C8831 0.950 . S
C8825 C8823 1.387 . S
C8825 C8827 1.390 . S
C8825 H8829 0.950 . S
H8826 C8822 0.950 . S
C8827 C8825 1.390 . S
C8827 C8828 1.387 . S
C8827 H8830 0.950 . S
C8828 C8827 1.387 . S
C8828 C8831 1.387 . S
H8829 C8825 0.950 . S
H8830 C8827 0.950 . S
C8831 C8822 1.390 . S
C8831 H8824 0.950 . S
C8831 C8828 1.387 . S
C8832 C8833 1.387 . S
C8832 H8836 0.950 . S
C8832 C8841 1.390 1_655 S
C8833 C8832 1.387 . S
C8833 C8835 1.387 . S
H8834 C8841 0.950 . S
C8835 C8833 1.387 . S
C8835 C8837 1.390 1_655 S
C8835 H8839 0.950 . S
H8836 C8832 0.950 . S
C8837 C8835 1.390 1_455 S
C8837 C8838 1.387 . S
C8837 H8840 0.950 . S
C8838 C8837 1.387 . S
C8838 C8841 1.387 . S
H8839 C8835 0.950 . S
H8840 C8837 0.950 . S
C8841 C8832 1.390 1_455 S
C8841 H8834 0.950 . S
C8841 C8838 1.387 . S
C8842 C8843 1.387 . S
C8842 H8846 0.950 . S
C8842 C8851 1.390 . S
C8843 C8842 1.387 . S
C8843 C8845 1.387 . S
H8844 C8851 0.950 . S
C8845 C8843 1.387 . S
C8845 C8847 1.390 . S
C8845 H8849 0.950 . S
H8846 C8842 0.950 . S
C8847 C8845 1.390 . S
C8847 C8848 1.387 . S
C8847 H8850 0.950 . S
C8848 C8847 1.387 . S
C8848 C8851 1.387 . S
H8849 C8845 0.950 . S
H8850 C8847 0.950 . S
C8851 C8842 1.390 . S
C8851 H8844 0.950 . S
C8851 C8848 1.387 . S
C8852 C8853 1.387 . S
C8852 H8856 0.950 . S
C8852 C8861 1.390 1_556 S
C8853 C8852 1.387 . S
C8853 C8855 1.387 . S
H8854 C8861 0.950 . S
C8855 C8853 1.387 . S
C8855 C8857 1.390 1_556 S
C8855 H8859 0.950 . S
H8856 C8852 0.950 . S
C8857 C8855 1.390 1_554 S
C8857 C8858 1.387 . S
C8857 H8860 0.950 . S
C8858 C8857 1.387 . S
C8858 C8861 1.387 . S
H8859 C8855 0.950 . S
H8860 C8857 0.950 . S
C8861 C8852 1.390 1_554 S
C8861 H8854 0.950 . S
C8861 C8858 1.387 . S
C8862 C8863 1.387 . S
C8862 H8866 0.950 . S
C8862 C8871 1.390 1_545 S
C8863 C8862 1.387 . S
C8863 C8865 1.387 . S
H8864 C8871 0.950 . S
C8865 C8863 1.387 . S
C8865 C8867 1.390 1_545 S
C8865 H8869 0.950 . S
H8866 C8862 0.950 . S
C8867 C8865 1.390 1_565 S
C8867 C8868 1.387 . S
C8867 H8870 0.950 . S
C8868 C8867 1.387 . S
C8868 C8871 1.387 . S
H8869 C8865 0.950 . S
H8870 C8867 0.950 . S
C8871 C8862 1.390 1_565 S
C8871 H8864 0.950 . S
C8871 C8868 1.387 . S
C8872 C8873 1.387 . S
C8872 H8876 0.950 . S
C8872 C8881 1.390 1_455 S
C8873 C8872 1.387 . S
C8873 C8875 1.387 . S
H8874 C8881 0.950 . S
C8875 C8873 1.387 . S
C8875 C8877 1.390 1_455 S
C8875 H8879 0.950 . S
H8876 C8872 0.950 . S
C8877 C8875 1.390 1_655 S
C8877 C8878 1.387 . S
C8877 H8880 0.950 . S
C8878 C8877 1.387 . S
C8878 C8881 1.387 . S
H8879 C8875 0.950 . S
H8880 C8877 0.950 . S
C8881 C8872 1.390 1_655 S
C8881 H8874 0.950 . S
C8881 C8878 1.387 . S
C8882 C8883 1.387 . S
C8882 H8886 0.950 . S
C8882 C8891 1.390 1_556 S
C8883 C8882 1.387 . S
C8883 C8885 1.387 . S
H8884 C8891 0.950 . S
C8885 C8883 1.387 . S
C8885 C8887 1.390 1_556 S
C8885 H8889 0.950 . S
H8886 C8882 0.950 . S
C8887 C8885 1.390 1_554 S
C8887 C8888 1.387 . S
C8887 H8890 0.950 . S
C8888 C8887 1.387 . S
C8888 C8891 1.387 . S
H8889 C8885 0.950 . S
H8890 C8887 0.950 . S
C8891 C8882 1.390 1_554 S
C8891 H8884 0.950 . S
C8891 C8888 1.387 . S
C8892 C8893 1.387 . S
C8892 H8896 0.950 . S
C8892 C8901 1.390 . S
C8893 C8892 1.387 . S
C8893 C8895 1.387 . S
H8894 C8901 0.950 . S
C8895 C8893 1.387 . S
C8895 C8897 1.390 . S
C8895 H8899 0.950 . S
H8896 C8892 0.950 . S
C8897 C8895 1.390 . S
C8897 C8898 1.387 . S
C8897 H8900 0.950 . S
C8898 C8897 1.387 . S
C8898 C8901 1.387 . S
H8899 C8895 0.950 . S
H8900 C8897 0.950 . S
C8901 C8892 1.390 . S
C8901 H8894 0.950 . S
C8901 C8898 1.387 . S
C8902 C8903 1.387 . S
C8902 H8906 0.950 . S
C8902 C8911 1.390 1_565 S
C8903 C8902 1.387 . S
C8903 C8905 1.387 . S
H8904 C8911 0.950 . S
C8905 C8903 1.387 . S
C8905 C8907 1.390 1_565 S
C8905 H8909 0.950 . S
H8906 C8902 0.950 . S
C8907 C8905 1.390 1_545 S
C8907 C8908 1.387 . S
C8907 H8910 0.950 . S
C8908 C8907 1.387 . S
C8908 C8911 1.387 . S
H8909 C8905 0.950 . S
H8910 C8907 0.950 . S
C8911 C8902 1.390 1_545 S
C8911 H8904 0.950 . S
C8911 C8908 1.387 . S
C8912 C8913 1.387 . S
C8912 H8916 0.950 . S
C8912 C8921 1.390 1_545 S
C8913 C8912 1.387 . S
C8913 C8915 1.387 . S
H8914 C8921 0.950 . S
C8915 C8913 1.387 . S
C8915 C8917 1.390 1_545 S
C8915 H8919 0.950 . S
H8916 C8912 0.950 . S
C8917 C8915 1.390 1_565 S
C8917 C8918 1.387 . S
C8917 H8920 0.950 . S
C8918 C8917 1.387 . S
C8918 C8921 1.387 . S
H8919 C8915 0.950 . S
H8920 C8917 0.950 . S
C8921 C8912 1.390 1_565 S
C8921 H8914 0.950 . S
C8921 C8918 1.387 . S
C8922 C8923 1.387 . S
C8922 H8926 0.950 . S
C8922 C8931 1.390 1_455 S
C8923 C8922 1.387 . S
C8923 C8925 1.387 . S
H8924 C8931 0.950 . S
C8925 C8923 1.387 . S
C8925 C8927 1.390 1_455 S
C8925 H8929 0.950 . S
H8926 C8922 0.950 . S
C8927 C8925 1.390 1_655 S
C8927 C8928 1.387 . S
C8927 H8930 0.950 . S
C8928 C8927 1.387 . S
C8928 C8931 1.387 . S
H8929 C8925 0.950 . S
H8930 C8927 0.950 . S
C8931 C8922 1.390 1_655 S
C8931 H8924 0.950 . S
C8931 C8928 1.387 . S
C8932 C8933 1.387 . S
C8932 H8936 0.950 . S
C8932 C8941 1.390 . S
C8933 C8932 1.387 . S
C8933 C8935 1.387 . S
H8934 C8941 0.950 . S
C8935 C8933 1.387 . S
C8935 C8937 1.390 . S
C8935 H8939 0.950 . S
H8936 C8932 0.950 . S
C8937 C8935 1.390 . S
C8937 C8938 1.387 . S
C8937 H8940 0.950 . S
C8938 C8937 1.387 . S
C8938 C8941 1.387 . S
H8939 C8935 0.950 . S
H8940 C8937 0.950 . S
C8941 C8932 1.390 . S
C8941 H8934 0.950 . S
C8941 C8938 1.387 . S
C8942 C8943 1.387 . S
C8942 H8946 0.950 . S
C8942 C8951 1.390 . S
C8943 C8942 1.387 . S
C8943 C8945 1.387 . S
H8944 C8951 0.950 . S
C8945 C8943 1.387 . S
C8945 C8947 1.390 . S
C8945 H8949 0.950 . S
H8946 C8942 0.950 . S
C8947 C8945 1.390 . S
C8947 C8948 1.387 . S
C8947 H8950 0.950 . S
C8948 C8947 1.387 . S
C8948 C8951 1.387 . S
H8949 C8945 0.950 . S
H8950 C8947 0.950 . S
C8951 C8942 1.390 . S
C8951 H8944 0.950 . S
C8951 C8948 1.387 . S
C8952 C8953 1.387 . S
C8952 H8956 0.950 . S
C8952 C8961 1.390 . S
C8953 C8952 1.387 . S
C8953 C8955 1.387 . S
H8954 C8961 0.950 . S
C8955 C8953 1.387 . S
C8955 C8957 1.390 . S
C8955 H8959 0.950 . S
H8956 C8952 0.950 . S
C8957 C8955 1.390 . S
C8957 C8958 1.387 . S
C8957 H8960 0.950 . S
C8958 C8957 1.387 . S
C8958 C8961 1.387 . S
H8959 C8955 0.950 . S
H8960 C8957 0.950 . S
C8961 C8952 1.390 . S
C8961 H8954 0.950 . S
C8961 C8958 1.387 . S
C8962 C8963 1.387 . S
C8962 H8966 0.950 . S
C8962 C8971 1.390 . S
C8963 C8962 1.387 . S
C8963 C8965 1.387 . S
H8964 C8971 0.950 . S
C8965 C8963 1.387 . S
C8965 C8967 1.390 . S
C8965 H8969 0.950 . S
H8966 C8962 0.950 . S
C8967 C8965 1.390 . S
C8967 C8968 1.387 . S
C8967 H8970 0.950 . S
C8968 C8967 1.387 . S
C8968 C8971 1.387 . S
H8969 C8965 0.950 . S
H8970 C8967 0.950 . S
C8971 C8962 1.390 . S
C8971 H8964 0.950 . S
C8971 C8968 1.387 . S
C8972 C8973 1.387 . S
C8972 H8976 0.950 . S
C8972 C8981 1.390 1_565 S
C8973 C8972 1.387 . S
C8973 C8975 1.387 . S
H8974 C8981 0.950 . S
C8975 C8973 1.387 . S
C8975 C8977 1.390 1_565 S
C8975 H8979 0.950 . S
H8976 C8972 0.950 . S
C8977 C8975 1.390 1_545 S
C8977 C8978 1.387 . S
C8977 H8980 0.950 . S
C8978 C8977 1.387 . S
C8978 C8981 1.387 . S
H8979 C8975 0.950 . S
H8980 C8977 0.950 . S
C8981 C8972 1.390 1_545 S
C8981 H8974 0.950 . S
C8981 C8978 1.387 . S
C8982 C8983 1.387 . S
C8982 H8986 0.950 . S
C8982 C8991 1.390 1_655 S
C8983 C8982 1.387 . S
C8983 C8985 1.387 . S
H8984 C8991 0.950 . S
C8985 C8983 1.387 . S
C8985 C8987 1.390 1_655 S
C8985 H8989 0.950 . S
H8986 C8982 0.950 . S
C8987 C8985 1.390 1_455 S
C8987 C8988 1.387 . S
C8987 H8990 0.950 . S
C8988 C8987 1.387 . S
C8988 C8991 1.387 . S
H8989 C8985 0.950 . S
H8990 C8987 0.950 . S
C8991 C8982 1.390 1_455 S
C8991 H8984 0.950 . S
C8991 C8988 1.387 . S
C8992 C8993 1.387 . S
C8992 H8996 0.950 . S
C8992 C9001 1.390 1_554 S
C8993 C8992 1.387 . S
C8993 C8995 1.387 . S
H8994 C9001 0.950 . S
C8995 C8993 1.387 . S
C8995 C8997 1.390 1_554 S
C8995 H8999 0.950 . S
H8996 C8992 0.950 . S
C8997 C8995 1.390 1_556 S
C8997 C8998 1.387 . S
C8997 H9000 0.950 . S
C8998 C8997 1.387 . S
C8998 C9001 1.387 . S
H8999 C8995 0.950 . S
H9000 C8997 0.950 . S
C9001 C8992 1.390 1_556 S
C9001 H8994 0.950 . S
C9001 C8998 1.387 . S
C9002 C9003 1.387 . S
C9002 H9006 0.950 . S
C9002 C9011 1.390 . S
C9003 C9002 1.387 . S
C9003 C9005 1.387 . S
H9004 C9011 0.950 . S
C9005 C9003 1.387 . S
C9005 C9007 1.390 . S
C9005 H9009 0.950 . S
H9006 C9002 0.950 . S
C9007 C9005 1.390 . S
C9007 C9008 1.387 . S
C9007 H9010 0.950 . S
C9008 C9007 1.387 . S
C9008 C9011 1.387 . S
H9009 C9005 0.950 . S
H9010 C9007 0.950 . S
C9011 C9002 1.390 . S
C9011 H9004 0.950 . S
C9011 C9008 1.387 . S
C9012 C9013 1.387 . S
C9012 H9016 0.950 . S
C9012 C9021 1.390 . S
C9013 C9012 1.387 . S
C9013 C9015 1.387 . S
H9014 C9021 0.950 . S
C9015 C9013 1.387 . S
C9015 C9017 1.390 . S
C9015 H9019 0.950 . S
H9016 C9012 0.950 . S
C9017 C9015 1.390 . S
C9017 C9018 1.387 . S
C9017 H9020 0.950 . S
C9018 C9017 1.387 . S
C9018 C9021 1.387 . S
H9019 C9015 0.950 . S
H9020 C9017 0.950 . S
C9021 C9012 1.390 . S
C9021 H9014 0.950 . S
C9021 C9018 1.387 . S
C9022 C9023 1.387 . S
C9022 H9026 0.950 . S
C9022 C9031 1.390 1_545 S
C9023 C9022 1.387 . S
C9023 C9025 1.387 . S
H9024 C9031 0.950 . S
C9025 C9023 1.387 . S
C9025 C9027 1.390 1_545 S
C9025 H9029 0.950 . S
H9026 C9022 0.950 . S
C9027 C9025 1.390 1_565 S
C9027 C9028 1.387 . S
C9027 H9030 0.950 . S
C9028 C9027 1.387 . S
C9028 C9031 1.387 . S
H9029 C9025 0.950 . S
H9030 C9027 0.950 . S
C9031 C9022 1.390 1_565 S
C9031 H9024 0.950 . S
C9031 C9028 1.387 . S
C9032 C9033 1.387 . S
C9032 H9036 0.950 . S
C9032 C9041 1.390 . S
C9033 C9032 1.387 . S
C9033 C9035 1.387 . S
H9034 C9041 0.950 . S
C9035 C9033 1.387 . S
C9035 C9037 1.390 . S
C9035 H9039 0.950 . S
H9036 C9032 0.950 . S
C9037 C9035 1.390 . S
C9037 C9038 1.387 . S
C9037 H9040 0.950 . S
C9038 C9037 1.387 . S
C9038 C9041 1.387 . S
H9039 C9035 0.950 . S
H9040 C9037 0.950 . S
C9041 C9032 1.390 . S
C9041 H9034 0.950 . S
C9041 C9038 1.387 . S
C9042 C9043 1.387 . S
C9042 H9046 0.950 . S
C9042 C9051 1.390 1_554 S
C9043 C9042 1.387 . S
C9043 C9045 1.387 . S
H9044 C9051 0.950 . S
C9045 C9043 1.387 . S
C9045 C9047 1.390 1_554 S
C9045 H9049 0.950 . S
H9046 C9042 0.950 . S
C9047 C9045 1.390 1_556 S
C9047 C9048 1.387 . S
C9047 H9050 0.950 . S
C9048 C9047 1.387 . S
C9048 C9051 1.387 . S
H9049 C9045 0.950 . S
H9050 C9047 0.950 . S
C9051 C9042 1.390 1_556 S
C9051 H9044 0.950 . S
C9051 C9048 1.387 . S
C9052 C9053 1.387 . S
C9052 H9056 0.950 . S
C9052 C9061 1.390 . S
C9053 C9052 1.387 . S
C9053 C9055 1.387 . S
H9054 C9061 0.950 . S
C9055 C9053 1.387 . S
C9055 C9057 1.390 . S
C9055 H9059 0.950 . S
H9056 C9052 0.950 . S
C9057 C9055 1.390 . S
C9057 C9058 1.387 . S
C9057 H9060 0.950 . S
C9058 C9057 1.387 . S
C9058 C9061 1.387 . S
H9059 C9055 0.950 . S
H9060 C9057 0.950 . S
C9061 C9052 1.390 . S
C9061 H9054 0.950 . S
C9061 C9058 1.387 . S
C9062 C9063 1.387 . S
C9062 H9066 0.950 . S
C9062 C9071 1.390 1_655 S
C9063 C9062 1.387 . S
C9063 C9065 1.387 . S
H9064 C9071 0.950 . S
C9065 C9063 1.387 . S
C9065 C9067 1.390 1_655 S
C9065 H9069 0.950 . S
H9066 C9062 0.950 . S
C9067 C9065 1.390 1_455 S
C9067 C9068 1.387 . S
C9067 H9070 0.950 . S
C9068 C9067 1.387 . S
C9068 C9071 1.387 . S
H9069 C9065 0.950 . S
H9070 C9067 0.950 . S
C9071 C9062 1.390 1_455 S
C9071 H9064 0.950 . S
C9071 C9068 1.387 . S
C9072 C9073 1.387 . S
C9072 H9076 0.950 . S
C9072 C9081 1.390 1_655 S
C9073 C9072 1.387 . S
C9073 C9075 1.387 . S
H9074 C9081 0.950 . S
C9075 C9073 1.387 . S
C9075 C9077 1.390 1_655 S
C9075 H9079 0.950 . S
H9076 C9072 0.950 . S
C9077 C9075 1.390 1_455 S
C9077 C9078 1.387 . S
C9077 H9080 0.950 . S
C9078 C9077 1.387 . S
C9078 C9081 1.387 . S
H9079 C9075 0.950 . S
H9080 C9077 0.950 . S
C9081 C9072 1.390 1_455 S
C9081 H9074 0.950 . S
C9081 C9078 1.387 . S
C9082 C9083 1.387 . S
C9082 H9086 0.950 . S
C9082 C9091 1.390 . S
C9083 C9082 1.387 . S
C9083 C9085 1.387 . S
H9084 C9091 0.950 . S
C9085 C9083 1.387 . S
C9085 C9087 1.390 . S
C9085 H9089 0.950 . S
H9086 C9082 0.950 . S
C9087 C9085 1.390 . S
C9087 C9088 1.387 . S
C9087 H9090 0.950 . S
C9088 C9087 1.387 . S
C9088 C9091 1.387 . S
H9089 C9085 0.950 . S
H9090 C9087 0.950 . S
C9091 C9082 1.390 . S
C9091 H9084 0.950 . S
C9091 C9088 1.387 . S
C9092 C9093 1.387 . S
C9092 H9096 0.950 . S
C9092 C9101 1.390 1_554 S
C9093 C9092 1.387 . S
C9093 C9095 1.387 . S
H9094 C9101 0.950 . S
C9095 C9093 1.387 . S
C9095 C9097 1.390 1_554 S
C9095 H9099 0.950 . S
H9096 C9092 0.950 . S
C9097 C9095 1.390 1_556 S
C9097 C9098 1.387 . S
C9097 H9100 0.950 . S
C9098 C9097 1.387 . S
C9098 C9101 1.387 . S
H9099 C9095 0.950 . S
H9100 C9097 0.950 . S
C9101 C9092 1.390 1_556 S
C9101 H9094 0.950 . S
C9101 C9098 1.387 . S
C9102 C9103 1.387 . S
C9102 H9106 0.950 . S
C9102 C9111 1.390 1_655 S
C9103 C9102 1.387 . S
C9103 C9105 1.387 . S
H9104 C9111 0.950 . S
C9105 C9103 1.387 . S
C9105 C9107 1.390 1_655 S
C9105 H9109 0.950 . S
H9106 C9102 0.950 . S
C9107 C9105 1.390 1_455 S
C9107 C9108 1.387 . S
C9107 H9110 0.950 . S
C9108 C9107 1.387 . S
C9108 C9111 1.387 . S
H9109 C9105 0.950 . S
H9110 C9107 0.950 . S
C9111 C9102 1.390 1_455 S
C9111 H9104 0.950 . S
C9111 C9108 1.387 . S
C9112 C9113 1.387 . S
C9112 H9116 0.950 . S
C9112 C9121 1.390 . S
C9113 C9112 1.387 . S
C9113 C9115 1.387 . S
H9114 C9121 0.950 . S
C9115 C9113 1.387 . S
C9115 C9117 1.390 . S
C9115 H9119 0.950 . S
H9116 C9112 0.950 . S
C9117 C9115 1.390 . S
C9117 C9118 1.387 . S
C9117 H9120 0.950 . S
C9118 C9117 1.387 . S
C9118 C9121 1.387 . S
H9119 C9115 0.950 . S
H9120 C9117 0.950 . S
C9121 C9112 1.390 . S
C9121 H9114 0.950 . S
C9121 C9118 1.387 . S
C9122 C9123 1.387 . S
C9122 H9126 0.950 . S
C9122 C9131 1.390 1_545 S
C9123 C9122 1.387 . S
C9123 C9125 1.387 . S
H9124 C9131 0.950 . S
C9125 C9123 1.387 . S
C9125 C9127 1.390 1_545 S
C9125 H9129 0.950 . S
H9126 C9122 0.950 . S
C9127 C9125 1.390 1_565 S
C9127 C9128 1.387 . S
C9127 H9130 0.950 . S
C9128 C9127 1.387 . S
C9128 C9131 1.387 . S
H9129 C9125 0.950 . S
H9130 C9127 0.950 . S
C9131 C9122 1.390 1_565 S
C9131 H9124 0.950 . S
C9131 C9128 1.387 . S
C9132 C9133 1.387 . S
C9132 H9136 0.950 . S
C9132 C9141 1.390 1_545 S
C9133 C9132 1.387 . S
C9133 C9135 1.387 . S
H9134 C9141 0.950 . S
C9135 C9133 1.387 . S
C9135 C9137 1.390 1_545 S
C9135 H9139 0.950 . S
H9136 C9132 0.950 . S
C9137 C9135 1.390 1_565 S
C9137 C9138 1.387 . S
C9137 H9140 0.950 . S
C9138 C9137 1.387 . S
C9138 C9141 1.387 . S
H9139 C9135 0.950 . S
H9140 C9137 0.950 . S
C9141 C9132 1.390 1_565 S
C9141 H9134 0.950 . S
C9141 C9138 1.387 . S
C9142 C9143 1.387 . S
C9142 H9146 0.950 . S
C9142 C9151 1.390 1_655 S
C9143 C9142 1.387 . S
C9143 C9145 1.387 . S
H9144 C9151 0.950 . S
C9145 C9143 1.387 . S
C9145 C9147 1.390 1_655 S
C9145 H9149 0.950 . S
H9146 C9142 0.950 . S
C9147 C9145 1.390 1_455 S
C9147 C9148 1.387 . S
C9147 H9150 0.950 . S
C9148 C9147 1.387 . S
C9148 C9151 1.387 . S
H9149 C9145 0.950 . S
H9150 C9147 0.950 . S
C9151 C9142 1.390 1_455 S
C9151 H9144 0.950 . S
C9151 C9148 1.387 . S
C9152 C9153 1.387 . S
C9152 H9156 0.950 . S
C9152 C9161 1.390 . S
C9153 C9152 1.387 . S
C9153 C9155 1.387 . S
H9154 C9161 0.950 . S
C9155 C9153 1.387 . S
C9155 C9157 1.390 . S
C9155 H9159 0.950 . S
H9156 C9152 0.950 . S
C9157 C9155 1.390 . S
C9157 C9158 1.387 . S
C9157 H9160 0.950 . S
C9158 C9157 1.387 . S
C9158 C9161 1.387 . S
H9159 C9155 0.950 . S
H9160 C9157 0.950 . S
C9161 C9152 1.390 . S
C9161 H9154 0.950 . S
C9161 C9158 1.387 . S
C9162 C9163 1.387 . S
C9162 H9166 0.950 . S
C9162 C9171 1.390 . S
C9163 C9162 1.387 . S
C9163 C9165 1.387 . S
H9164 C9171 0.950 . S
C9165 C9163 1.387 . S
C9165 C9167 1.390 . S
C9165 H9169 0.950 . S
H9166 C9162 0.950 . S
C9167 C9165 1.390 . S
C9167 C9168 1.387 . S
C9167 H9170 0.950 . S
C9168 C9167 1.387 . S
C9168 C9171 1.387 . S
H9169 C9165 0.950 . S
H9170 C9167 0.950 . S
C9171 C9162 1.390 . S
C9171 H9164 0.950 . S
C9171 C9168 1.387 . S
C9172 C9173 1.387 . S
C9172 H9176 0.950 . S
C9172 C9181 1.390 1_565 S
C9173 C9172 1.387 . S
C9173 C9175 1.387 . S
H9174 C9181 0.950 . S
C9175 C9173 1.387 . S
C9175 C9177 1.390 1_565 S
C9175 H9179 0.950 . S
H9176 C9172 0.950 . S
C9177 C9175 1.390 1_545 S
C9177 C9178 1.387 . S
C9177 H9180 0.950 . S
C9178 C9177 1.387 . S
C9178 C9181 1.387 . S
H9179 C9175 0.950 . S
H9180 C9177 0.950 . S
C9181 C9172 1.390 1_545 S
C9181 H9174 0.950 . S
C9181 C9178 1.387 . S
C9182 C9183 1.387 . S
C9182 H9186 0.950 . S
C9182 C9191 1.390 1_655 S
C9183 C9182 1.387 . S
C9183 C9185 1.387 . S
H9184 C9191 0.950 . S
C9185 C9183 1.387 . S
C9185 C9187 1.390 1_655 S
C9185 H9189 0.950 . S
H9186 C9182 0.950 . S
C9187 C9185 1.390 1_455 S
C9187 C9188 1.387 . S
C9187 H9190 0.950 . S
C9188 C9187 1.387 . S
C9188 C9191 1.387 . S
H9189 C9185 0.950 . S
H9190 C9187 0.950 . S
C9191 C9182 1.390 1_455 S
C9191 H9184 0.950 . S
C9191 C9188 1.387 . S
C9192 C9193 1.387 . S
C9192 H9196 0.950 . S
C9192 C9201 1.390 1_554 S
C9193 C9192 1.387 . S
C9193 C9195 1.387 . S
H9194 C9201 0.950 . S
C9195 C9193 1.387 . S
C9195 C9197 1.390 1_554 S
C9195 H9199 0.950 . S
H9196 C9192 0.950 . S
C9197 C9195 1.390 1_556 S
C9197 C9198 1.387 . S
C9197 H9200 0.950 . S
C9198 C9197 1.387 . S
C9198 C9201 1.387 . S
H9199 C9195 0.950 . S
H9200 C9197 0.950 . S
C9201 C9192 1.390 1_556 S
C9201 H9194 0.950 . S
C9201 C9198 1.387 . S
C9202 C9203 1.387 . S
C9202 H9206 0.950 . S
C9202 C9211 1.390 . S
C9203 C9202 1.387 . S
C9203 C9205 1.387 . S
H9204 C9211 0.950 . S
C9205 C9203 1.387 . S
C9205 C9207 1.390 . S
C9205 H9209 0.950 . S
H9206 C9202 0.950 . S
C9207 C9205 1.390 . S
C9207 C9208 1.387 . S
C9207 H9210 0.950 . S
C9208 C9207 1.387 . S
C9208 C9211 1.387 . S
H9209 C9205 0.950 . S
H9210 C9207 0.950 . S
C9211 C9202 1.390 . S
C9211 H9204 0.950 . S
C9211 C9208 1.387 . S
C9212 C9213 1.387 . S
C9212 H9216 0.950 . S
C9212 C9221 1.390 . S
C9213 C9212 1.387 . S
C9213 C9215 1.387 . S
H9214 C9221 0.950 . S
C9215 C9213 1.387 . S
C9215 C9217 1.390 . S
C9215 H9219 0.950 . S
H9216 C9212 0.950 . S
C9217 C9215 1.390 . S
C9217 C9218 1.387 . S
C9217 H9220 0.950 . S
C9218 C9217 1.387 . S
C9218 C9221 1.387 . S
H9219 C9215 0.950 . S
H9220 C9217 0.950 . S
C9221 C9212 1.390 . S
C9221 H9214 0.950 . S
C9221 C9218 1.387 . S
C9222 C9223 1.387 . S
C9222 H9226 0.950 . S
C9222 C9231 1.390 . S
C9223 C9222 1.387 . S
C9223 C9225 1.387 . S
H9224 C9231 0.950 . S
C9225 C9223 1.387 . S
C9225 C9227 1.390 . S
C9225 H9229 0.950 . S
H9226 C9222 0.950 . S
C9227 C9225 1.390 . S
C9227 C9228 1.387 . S
C9227 H9230 0.950 . S
C9228 C9227 1.387 . S
C9228 C9231 1.387 . S
H9229 C9225 0.950 . S
H9230 C9227 0.950 . S
C9231 C9222 1.390 . S
C9231 H9224 0.950 . S
C9231 C9228 1.387 . S
C9232 C9233 1.387 . S
C9232 H9236 0.950 . S
C9232 C9241 1.390 . S
C9233 C9232 1.387 . S
C9233 C9235 1.387 . S
H9234 C9241 0.950 . S
C9235 C9233 1.387 . S
C9235 C9237 1.390 . S
C9235 H9239 0.950 . S
H9236 C9232 0.950 . S
C9237 C9235 1.390 . S
C9237 C9238 1.387 . S
C9237 H9240 0.950 . S
C9238 C9237 1.387 . S
C9238 C9241 1.387 . S
H9239 C9235 0.950 . S
H9240 C9237 0.950 . S
C9241 C9232 1.390 . S
C9241 H9234 0.950 . S
C9241 C9238 1.387 . S
C9242 C9243 1.387 . S
C9242 H9246 0.950 . S
C9242 C9251 1.390 1_655 S
C9243 C9242 1.387 . S
C9243 C9245 1.387 . S
H9244 C9251 0.950 . S
C9245 C9243 1.387 . S
C9245 C9247 1.390 1_655 S
C9245 H9249 0.950 . S
H9246 C9242 0.950 . S
C9247 C9245 1.390 1_455 S
C9247 C9248 1.387 . S
C9247 H9250 0.950 . S
C9248 C9247 1.387 . S
C9248 C9251 1.387 . S
H9249 C9245 0.950 . S
H9250 C9247 0.950 . S
C9251 C9242 1.390 1_455 S
C9251 H9244 0.950 . S
C9251 C9248 1.387 . S
C9252 C9253 1.387 . S
C9252 H9256 0.950 . S
C9252 C9261 1.390 1_654 S
C9253 C9252 1.387 . S
C9253 C9255 1.387 . S
H9254 C9261 0.950 . S
C9255 C9253 1.387 . S
C9255 C9257 1.390 1_654 S
C9255 H9259 0.950 . S
H9256 C9252 0.950 . S
C9257 C9255 1.390 1_456 S
C9257 C9258 1.387 . S
C9257 H9260 0.950 . S
C9258 C9257 1.387 . S
C9258 C9261 1.387 . S
H9259 C9255 0.950 . S
H9260 C9257 0.950 . S
C9261 C9252 1.390 1_456 S
C9261 H9254 0.950 . S
C9261 C9258 1.387 . S
C9262 C9263 1.387 . S
C9262 H9266 0.950 . S
C9262 C9271 1.390 . S
C9263 C9262 1.387 . S
C9263 C9265 1.387 . S
H9264 C9271 0.950 . S
C9265 C9263 1.387 . S
C9265 C9267 1.390 . S
C9265 H9269 0.950 . S
H9266 C9262 0.950 . S
C9267 C9265 1.390 . S
C9267 C9268 1.387 . S
C9267 H9270 0.950 . S
C9268 C9267 1.387 . S
C9268 C9271 1.387 . S
H9269 C9265 0.950 . S
H9270 C9267 0.950 . S
C9271 C9262 1.390 . S
C9271 H9264 0.950 . S
C9271 C9268 1.387 . S
C9272 C9273 1.387 . S
C9272 H9276 0.950 . S
C9272 C9281 1.390 . S
C9273 C9272 1.387 . S
C9273 C9275 1.387 . S
H9274 C9281 0.950 . S
C9275 C9273 1.387 . S
C9275 C9277 1.390 . S
C9275 H9279 0.950 . S
H9276 C9272 0.950 . S
C9277 C9275 1.390 . S
C9277 C9278 1.387 . S
C9277 H9280 0.950 . S
C9278 C9277 1.387 . S
C9278 C9281 1.387 . S
H9279 C9275 0.950 . S
H9280 C9277 0.950 . S
C9281 C9272 1.390 . S
C9281 H9274 0.950 . S
C9281 C9278 1.387 . S
C9282 C9283 1.387 . S
C9282 H9286 0.950 . S
C9282 C9291 1.390 . S
C9283 C9282 1.387 . S
C9283 C9285 1.387 . S
H9284 C9291 0.950 . S
C9285 C9283 1.387 . S
C9285 C9287 1.390 . S
C9285 H9289 0.950 . S
H9286 C9282 0.950 . S
C9287 C9285 1.390 . S
C9287 C9288 1.387 . S
C9287 H9290 0.950 . S
C9288 C9287 1.387 . S
C9288 C9291 1.387 . S
H9289 C9285 0.950 . S
H9290 C9287 0.950 . S
C9291 C9282 1.390 . S
C9291 H9284 0.950 . S
C9291 C9288 1.387 . S
C9292 C9293 1.387 . S
C9292 H9296 0.950 . S
C9292 C9301 1.390 . S
C9293 C9292 1.387 . S
C9293 C9295 1.387 . S
H9294 C9301 0.950 . S
C9295 C9293 1.387 . S
C9295 C9297 1.390 . S
C9295 H9299 0.950 . S
H9296 C9292 0.950 . S
C9297 C9295 1.390 . S
C9297 C9298 1.387 . S
C9297 H9300 0.950 . S
C9298 C9297 1.387 . S
C9298 C9301 1.387 . S
H9299 C9295 0.950 . S
H9300 C9297 0.950 . S
C9301 C9292 1.390 . S
C9301 H9294 0.950 . S
C9301 C9298 1.387 . S
C9302 C9303 1.387 . S
C9302 H9306 0.950 . S
C9302 C9311 1.390 . S
C9303 C9302 1.387 . S
C9303 C9305 1.387 . S
H9304 C9311 0.950 . S
C9305 C9303 1.387 . S
C9305 C9307 1.390 . S
C9305 H9309 0.950 . S
H9306 C9302 0.950 . S
C9307 C9305 1.390 . S
C9307 C9308 1.387 . S
C9307 H9310 0.950 . S
C9308 C9307 1.387 . S
C9308 C9311 1.387 . S
H9309 C9305 0.950 . S
H9310 C9307 0.950 . S
C9311 C9302 1.390 . S
C9311 H9304 0.950 . S
C9311 C9308 1.387 . S
C9312 C9313 1.387 . S
C9312 H9316 0.950 . S
C9312 C9321 1.390 . S
C9313 C9312 1.387 . S
C9313 C9315 1.387 . S
H9314 C9321 0.950 . S
C9315 C9313 1.387 . S
C9315 C9317 1.390 . S
C9315 H9319 0.950 . S
H9316 C9312 0.950 . S
C9317 C9315 1.390 . S
C9317 C9318 1.387 . S
C9317 H9320 0.950 . S
C9318 C9317 1.387 . S
C9318 C9321 1.387 . S
H9319 C9315 0.950 . S
H9320 C9317 0.950 . S
C9321 C9312 1.390 . S
C9321 H9314 0.950 . S
C9321 C9318 1.387 . S
C9322 C9323 1.387 . S
C9322 H9326 0.950 . S
C9322 C9331 1.390 1_655 S
C9323 C9322 1.387 . S
C9323 C9325 1.387 . S
H9324 C9331 0.950 . S
C9325 C9323 1.387 . S
C9325 C9327 1.390 1_655 S
C9325 H9329 0.950 . S
H9326 C9322 0.950 . S
C9327 C9325 1.390 1_455 S
C9327 C9328 1.387 . S
C9327 H9330 0.950 . S
C9328 C9327 1.387 . S
C9328 C9331 1.387 . S
H9329 C9325 0.950 . S
H9330 C9327 0.950 . S
C9331 C9322 1.390 1_455 S
C9331 H9324 0.950 . S
C9331 C9328 1.387 . S
C9332 C9333 1.387 . S
C9332 H9336 0.950 . S
C9332 C9341 1.390 . S
C9333 C9332 1.387 . S
C9333 C9335 1.387 . S
H9334 C9341 0.950 . S
C9335 C9333 1.387 . S
C9335 C9337 1.390 . S
C9335 H9339 0.950 . S
H9336 C9332 0.950 . S
C9337 C9335 1.390 . S
C9337 C9338 1.387 . S
C9337 H9340 0.950 . S
C9338 C9337 1.387 . S
C9338 C9341 1.387 . S
H9339 C9335 0.950 . S
H9340 C9337 0.950 . S
C9341 C9332 1.390 . S
C9341 H9334 0.950 . S
C9341 C9338 1.387 . S
C9342 C9343 1.387 . S
C9342 H9346 0.950 . S
C9342 C9351 1.390 . S
C9343 C9342 1.387 . S
C9343 C9345 1.387 . S
H9344 C9351 0.950 . S
C9345 C9343 1.387 . S
C9345 C9347 1.390 . S
C9345 H9349 0.950 . S
H9346 C9342 0.950 . S
C9347 C9345 1.390 . S
C9347 C9348 1.387 . S
C9347 H9350 0.950 . S
C9348 C9347 1.387 . S
C9348 C9351 1.387 . S
H9349 C9345 0.950 . S
H9350 C9347 0.950 . S
C9351 C9342 1.390 . S
C9351 H9344 0.950 . S
C9351 C9348 1.387 . S
C9352 C9353 1.387 . S
C9352 H9356 0.950 . S
C9352 C9361 1.390 . S
C9353 C9352 1.387 . S
C9353 C9355 1.387 . S
H9354 C9361 0.950 . S
C9355 C9353 1.387 . S
C9355 C9357 1.390 . S
C9355 H9359 0.950 . S
H9356 C9352 0.950 . S
C9357 C9355 1.390 . S
C9357 C9358 1.387 . S
C9357 H9360 0.950 . S
C9358 C9357 1.387 . S
C9358 C9361 1.387 . S
H9359 C9355 0.950 . S
H9360 C9357 0.950 . S
C9361 C9352 1.390 . S
C9361 H9354 0.950 . S
C9361 C9358 1.387 . S
C9362 C9363 1.387 . S
C9362 H9366 0.950 . S
C9362 C9371 1.390 1_465 S
C9363 C9362 1.387 . S
C9363 C9365 1.387 . S
H9364 C9371 0.950 . S
C9365 C9363 1.387 . S
C9365 C9367 1.390 1_465 S
C9365 H9369 0.950 . S
H9366 C9362 0.950 . S
C9367 C9365 1.390 1_645 S
C9367 C9368 1.387 . S
C9367 H9370 0.950 . S
C9368 C9367 1.387 . S
C9368 C9371 1.387 . S
H9369 C9365 0.950 . S
H9370 C9367 0.950 . S
C9371 C9362 1.390 1_645 S
C9371 H9364 0.950 . S
C9371 C9368 1.387 . S
C9372 C9373 1.387 . S
C9372 H9376 0.950 . S
C9372 C9381 1.390 . S
C9373 C9372 1.387 . S
C9373 C9375 1.387 . S
H9374 C9381 0.950 . S
C9375 C9373 1.387 . S
C9375 C9377 1.390 . S
C9375 H9379 0.950 . S
H9376 C9372 0.950 . S
C9377 C9375 1.390 . S
C9377 C9378 1.387 . S
C9377 H9380 0.950 . S
C9378 C9377 1.387 . S
C9378 C9381 1.387 . S
H9379 C9375 0.950 . S
H9380 C9377 0.950 . S
C9381 C9372 1.390 . S
C9381 H9374 0.950 . S
C9381 C9378 1.387 . S
C9382 C9383 1.387 . S
C9382 H9386 0.950 . S
C9382 C9391 1.390 1_554 S
C9383 C9382 1.387 . S
C9383 C9385 1.387 . S
H9384 C9391 0.950 . S
C9385 C9383 1.387 . S
C9385 C9387 1.390 1_554 S
C9385 H9389 0.950 . S
H9386 C9382 0.950 . S
C9387 C9385 1.390 1_556 S
C9387 C9388 1.387 . S
C9387 H9390 0.950 . S
C9388 C9387 1.387 . S
C9388 C9391 1.387 . S
H9389 C9385 0.950 . S
H9390 C9387 0.950 . S
C9391 C9382 1.390 1_556 S
C9391 H9384 0.950 . S
C9391 C9388 1.387 . S
C9392 C9393 1.387 . S
C9392 H9396 0.950 . S
C9392 C9401 1.390 . S
C9393 C9392 1.387 . S
C9393 C9395 1.387 . S
H9394 C9401 0.950 . S
C9395 C9393 1.387 . S
C9395 C9397 1.390 . S
C9395 H9399 0.950 . S
H9396 C9392 0.950 . S
C9397 C9395 1.390 . S
C9397 C9398 1.387 . S
C9397 H9400 0.950 . S
C9398 C9397 1.387 . S
C9398 C9401 1.387 . S
H9399 C9395 0.950 . S
H9400 C9397 0.950 . S
C9401 C9392 1.390 . S
C9401 H9394 0.950 . S
C9401 C9398 1.387 . S
C9402 C9403 1.387 . S
C9402 H9406 0.950 . S
C9402 C9411 1.390 1_556 S
C9403 C9402 1.387 . S
C9403 C9405 1.387 . S
H9404 C9411 0.950 . S
C9405 C9403 1.387 . S
C9405 C9407 1.390 1_556 S
C9405 H9409 0.950 . S
H9406 C9402 0.950 . S
C9407 C9405 1.390 1_554 S
C9407 C9408 1.387 . S
C9407 H9410 0.950 . S
C9408 C9407 1.387 . S
C9408 C9411 1.387 . S
H9409 C9405 0.950 . S
H9410 C9407 0.950 . S
C9411 C9402 1.390 1_554 S
C9411 H9404 0.950 . S
C9411 C9408 1.387 . S
C9412 C9413 1.387 . S
C9412 H9416 0.950 . S
C9412 C9421 1.390 . S
C9413 C9412 1.387 . S
C9413 C9415 1.387 . S
H9414 C9421 0.950 . S
C9415 C9413 1.387 . S
C9415 C9417 1.390 . S
C9415 H9419 0.950 . S
H9416 C9412 0.950 . S
C9417 C9415 1.390 . S
C9417 C9418 1.387 . S
C9417 H9420 0.950 . S
C9418 C9417 1.387 . S
C9418 C9421 1.387 . S
H9419 C9415 0.950 . S
H9420 C9417 0.950 . S
C9421 C9412 1.390 . S
C9421 H9414 0.950 . S
C9421 C9418 1.387 . S
C9422 C9423 1.387 . S
C9422 H9426 0.950 . S
C9422 C9431 1.390 . S
C9423 C9422 1.387 . S
C9423 C9425 1.387 . S
H9424 C9431 0.950 . S
C9425 C9423 1.387 . S
C9425 C9427 1.390 . S
C9425 H9429 0.950 . S
H9426 C9422 0.950 . S
C9427 C9425 1.390 . S
C9427 C9428 1.387 . S
C9427 H9430 0.950 . S
C9428 C9427 1.387 . S
C9428 C9431 1.387 . S
H9429 C9425 0.950 . S
H9430 C9427 0.950 . S
C9431 C9422 1.390 . S
C9431 H9424 0.950 . S
C9431 C9428 1.387 . S
C9432 C9433 1.387 . S
C9432 H9436 0.950 . S
C9432 C9441 1.390 1_654 S
C9433 C9432 1.387 . S
C9433 C9435 1.387 . S
H9434 C9441 0.950 . S
C9435 C9433 1.387 . S
C9435 C9437 1.390 1_654 S
C9435 H9439 0.950 . S
H9436 C9432 0.950 . S
C9437 C9435 1.390 1_456 S
C9437 C9438 1.387 . S
C9437 H9440 0.950 . S
C9438 C9437 1.387 . S
C9438 C9441 1.387 . S
H9439 C9435 0.950 . S
H9440 C9437 0.950 . S
C9441 C9432 1.390 1_456 S
C9441 H9434 0.950 . S
C9441 C9438 1.387 . S
C9442 C9443 1.387 . S
C9442 H9446 0.950 . S
C9442 C9451 1.390 . S
C9443 C9442 1.387 . S
C9443 C9445 1.387 . S
H9444 C9451 0.950 . S
C9445 C9443 1.387 . S
C9445 C9447 1.390 . S
C9445 H9449 0.950 . S
H9446 C9442 0.950 . S
C9447 C9445 1.390 . S
C9447 C9448 1.387 . S
C9447 H9450 0.950 . S
C9448 C9447 1.387 . S
C9448 C9451 1.387 . S
H9449 C9445 0.950 . S
H9450 C9447 0.950 . S
C9451 C9442 1.390 . S
C9451 H9444 0.950 . S
C9451 C9448 1.387 . S
C9452 C9453 1.387 . S
C9452 H9456 0.950 . S
C9452 C9461 1.390 . S
C9453 C9452 1.387 . S
C9453 C9455 1.387 . S
H9454 C9461 0.950 . S
C9455 C9453 1.387 . S
C9455 C9457 1.390 . S
C9455 H9459 0.950 . S
H9456 C9452 0.950 . S
C9457 C9455 1.390 . S
C9457 C9458 1.387 . S
C9457 H9460 0.950 . S
C9458 C9457 1.387 . S
C9458 C9461 1.387 . S
H9459 C9455 0.950 . S
H9460 C9457 0.950 . S
C9461 C9452 1.390 . S
C9461 H9454 0.950 . S
C9461 C9458 1.387 . S
C9462 C9463 1.387 . S
C9462 H9466 0.950 . S
C9462 C9471 1.390 . S
C9463 C9462 1.387 . S
C9463 C9465 1.387 . S
H9464 C9471 0.950 . S
C9465 C9463 1.387 . S
C9465 C9467 1.390 . S
C9465 H9469 0.950 . S
H9466 C9462 0.950 . S
C9467 C9465 1.390 . S
C9467 C9468 1.387 . S
C9467 H9470 0.950 . S
C9468 C9467 1.387 . S
C9468 C9471 1.387 . S
H9469 C9465 0.950 . S
H9470 C9467 0.950 . S
C9471 C9462 1.390 . S
C9471 H9464 0.950 . S
C9471 C9468 1.387 . S
C9472 C9473 1.387 . S
C9472 H9476 0.950 . S
C9472 C9481 1.390 . S
C9473 C9472 1.387 . S
C9473 C9475 1.387 . S
H9474 C9481 0.950 . S
C9475 C9473 1.387 . S
C9475 C9477 1.390 . S
C9475 H9479 0.950 . S
H9476 C9472 0.950 . S
C9477 C9475 1.390 . S
C9477 C9478 1.387 . S
C9477 H9480 0.950 . S
C9478 C9477 1.387 . S
C9478 C9481 1.387 . S
H9479 C9475 0.950 . S
H9480 C9477 0.950 . S
C9481 C9472 1.390 . S
C9481 H9474 0.950 . S
C9481 C9478 1.387 . S
C9482 C9483 1.387 . S
C9482 H9486 0.950 . S
C9482 C9491 1.390 1_455 S
C9483 C9482 1.387 . S
C9483 C9485 1.387 . S
H9484 C9491 0.950 . S
C9485 C9483 1.387 . S
C9485 C9487 1.390 1_455 S
C9485 H9489 0.950 . S
H9486 C9482 0.950 . S
C9487 C9485 1.390 1_655 S
C9487 C9488 1.387 . S
C9487 H9490 0.950 . S
C9488 C9487 1.387 . S
C9488 C9491 1.387 . S
H9489 C9485 0.950 . S
H9490 C9487 0.950 . S
C9491 C9482 1.390 1_655 S
C9491 H9484 0.950 . S
C9491 C9488 1.387 . S
C9492 C9493 1.387 . S
C9492 H9496 0.950 . S
C9492 C9501 1.390 . S
C9493 C9492 1.387 . S
C9493 C9495 1.387 . S
H9494 C9501 0.950 . S
C9495 C9493 1.387 . S
C9495 C9497 1.390 . S
C9495 H9499 0.950 . S
H9496 C9492 0.950 . S
C9497 C9495 1.390 . S
C9497 C9498 1.387 . S
C9497 H9500 0.950 . S
C9498 C9497 1.387 . S
C9498 C9501 1.387 . S
H9499 C9495 0.950 . S
H9500 C9497 0.950 . S
C9501 C9492 1.390 . S
C9501 H9494 0.950 . S
C9501 C9498 1.387 . S
C9502 C9503 1.387 . S
C9502 H9506 0.950 . S
C9502 C9511 1.390 1_465 S
C9503 C9502 1.387 . S
C9503 C9505 1.387 . S
H9504 C9511 0.950 . S
C9505 C9503 1.387 . S
C9505 C9507 1.390 1_465 S
C9505 H9509 0.950 . S
H9506 C9502 0.950 . S
C9507 C9505 1.390 1_645 S
C9507 C9508 1.387 . S
C9507 H9510 0.950 . S
C9508 C9507 1.387 . S
C9508 C9511 1.387 . S
H9509 C9505 0.950 . S
H9510 C9507 0.950 . S
C9511 C9502 1.390 1_645 S
C9511 H9504 0.950 . S
C9511 C9508 1.387 . S
C9512 C9513 1.387 . S
C9512 H9516 0.950 . S
C9512 C9521 1.390 . S
C9513 C9512 1.387 . S
C9513 C9515 1.387 . S
H9514 C9521 0.950 . S
C9515 C9513 1.387 . S
C9515 C9517 1.390 . S
C9515 H9519 0.950 . S
H9516 C9512 0.950 . S
C9517 C9515 1.390 . S
C9517 C9518 1.387 . S
C9517 H9520 0.950 . S
C9518 C9517 1.387 . S
C9518 C9521 1.387 . S
H9519 C9515 0.950 . S
H9520 C9517 0.950 . S
C9521 C9512 1.390 . S
C9521 H9514 0.950 . S
C9521 C9518 1.387 . S
C9522 C9523 1.387 . S
C9522 H9526 0.950 . S
C9522 C9531 1.390 1_556 S
C9523 C9522 1.387 . S
C9523 C9525 1.387 . S
H9524 C9531 0.950 . S
C9525 C9523 1.387 . S
C9525 C9527 1.390 1_556 S
C9525 H9529 0.950 . S
H9526 C9522 0.950 . S
C9527 C9525 1.390 1_554 S
C9527 C9528 1.387 . S
C9527 H9530 0.950 . S
C9528 C9527 1.387 . S
C9528 C9531 1.387 . S
H9529 C9525 0.950 . S
H9530 C9527 0.950 . S
C9531 C9522 1.390 1_554 S
C9531 H9524 0.950 . S
C9531 C9528 1.387 . S
C9532 C9533 1.387 . S
C9532 H9536 0.950 . S
C9532 C9541 1.390 1_554 S
C9533 C9532 1.387 . S
C9533 C9535 1.387 . S
H9534 C9541 0.950 . S
C9535 C9533 1.387 . S
C9535 C9537 1.390 1_554 S
C9535 H9539 0.950 . S
H9536 C9532 0.950 . S
C9537 C9535 1.390 1_556 S
C9537 C9538 1.387 . S
C9537 H9540 0.950 . S
C9538 C9537 1.387 . S
C9538 C9541 1.387 . S
H9539 C9535 0.950 . S
H9540 C9537 0.950 . S
C9541 C9532 1.390 1_556 S
C9541 H9534 0.950 . S
C9541 C9538 1.387 . S
C9542 C9543 1.387 . S
C9542 H9546 0.950 . S
C9542 C9551 1.390 . S
C9543 C9542 1.387 . S
C9543 C9545 1.387 . S
H9544 C9551 0.950 . S
C9545 C9543 1.387 . S
C9545 C9547 1.390 . S
C9545 H9549 0.950 . S
H9546 C9542 0.950 . S
C9547 C9545 1.390 . S
C9547 C9548 1.387 . S
C9547 H9550 0.950 . S
C9548 C9547 1.387 . S
C9548 C9551 1.387 . S
H9549 C9545 0.950 . S
H9550 C9547 0.950 . S
C9551 C9542 1.390 . S
C9551 H9544 0.950 . S
C9551 C9548 1.387 . S
C9552 C9553 1.387 . S
C9552 H9556 0.950 . S
C9552 C9561 1.390 1_545 S
C9553 C9552 1.387 . S
C9553 C9555 1.387 . S
H9554 C9561 0.950 . S
C9555 C9553 1.387 . S
C9555 C9557 1.390 1_545 S
C9555 H9559 0.950 . S
H9556 C9552 0.950 . S
C9557 C9555 1.390 1_565 S
C9557 C9558 1.387 . S
C9557 H9560 0.950 . S
C9558 C9557 1.387 . S
C9558 C9561 1.387 . S
H9559 C9555 0.950 . S
H9560 C9557 0.950 . S
C9561 C9552 1.390 1_565 S
C9561 H9554 0.950 . S
C9561 C9558 1.387 . S
C9562 C9563 1.387 . S
C9562 H9566 0.950 . S
C9562 C9571 1.390 . S
C9563 C9562 1.387 . S
C9563 C9565 1.387 . S
H9564 C9571 0.950 . S
C9565 C9563 1.387 . S
C9565 C9567 1.390 . S
C9565 H9569 0.950 . S
H9566 C9562 0.950 . S
C9567 C9565 1.390 . S
C9567 C9568 1.387 . S
C9567 H9570 0.950 . S
C9568 C9567 1.387 . S
C9568 C9571 1.387 . S
H9569 C9565 0.950 . S
H9570 C9567 0.950 . S
C9571 C9562 1.390 . S
C9571 H9564 0.950 . S
C9571 C9568 1.387 . S
C9572 C9573 1.387 . S
C9572 H9576 0.950 . S
C9572 C9581 1.390 . S
C9573 C9572 1.387 . S
C9573 C9575 1.387 . S
H9574 C9581 0.950 . S
C9575 C9573 1.387 . S
C9575 C9577 1.390 . S
C9575 H9579 0.950 . S
H9576 C9572 0.950 . S
C9577 C9575 1.390 . S
C9577 C9578 1.387 . S
C9577 H9580 0.950 . S
C9578 C9577 1.387 . S
C9578 C9581 1.387 . S
H9579 C9575 0.950 . S
H9580 C9577 0.950 . S
C9581 C9572 1.390 . S
C9581 H9574 0.950 . S
C9581 C9578 1.387 . S
C9582 C9583 1.387 . S
C9582 H9586 0.950 . S
C9582 C9591 1.390 1_546 S
C9583 C9582 1.387 . S
C9583 C9585 1.387 . S
H9584 C9591 0.950 . S
C9585 C9583 1.387 . S
C9585 C9587 1.390 1_546 S
C9585 H9589 0.950 . S
H9586 C9582 0.950 . S
C9587 C9585 1.390 1_564 S
C9587 C9588 1.387 . S
C9587 H9590 0.950 . S
C9588 C9587 1.387 . S
C9588 C9591 1.387 . S
H9589 C9585 0.950 . S
H9590 C9587 0.950 . S
C9591 C9582 1.390 1_564 S
C9591 H9584 0.950 . S
C9591 C9588 1.387 . S
C9592 C9593 1.387 . S
C9592 H9596 0.950 . S
C9592 C9601 1.390 . S
C9593 C9592 1.387 . S
C9593 C9595 1.387 . S
H9594 C9601 0.950 . S
C9595 C9593 1.387 . S
C9595 C9597 1.390 . S
C9595 H9599 0.950 . S
H9596 C9592 0.950 . S
C9597 C9595 1.390 . S
C9597 C9598 1.387 . S
C9597 H9600 0.950 . S
C9598 C9597 1.387 . S
C9598 C9601 1.387 . S
H9599 C9595 0.950 . S
H9600 C9597 0.950 . S
C9601 C9592 1.390 . S
C9601 H9594 0.950 . S
C9601 C9598 1.387 . S
C9602 C9603 1.387 . S
C9602 H9606 0.950 . S
C9602 C9611 1.390 . S
C9603 C9602 1.387 . S
C9603 C9605 1.387 . S
H9604 C9611 0.950 . S
C9605 C9603 1.387 . S
C9605 C9607 1.390 . S
C9605 H9609 0.950 . S
H9606 C9602 0.950 . S
C9607 C9605 1.390 . S
C9607 C9608 1.387 . S
C9607 H9610 0.950 . S
C9608 C9607 1.387 . S
C9608 C9611 1.387 . S
H9609 C9605 0.950 . S
H9610 C9607 0.950 . S
C9611 C9602 1.390 . S
C9611 H9604 0.950 . S
C9611 C9608 1.387 . S
C9612 C9613 1.387 . S
C9612 H9616 0.950 . S
C9612 C9621 1.390 . S
C9613 C9612 1.387 . S
C9613 C9615 1.387 . S
H9614 C9621 0.950 . S
C9615 C9613 1.387 . S
C9615 C9617 1.390 . S
C9615 H9619 0.950 . S
H9616 C9612 0.950 . S
C9617 C9615 1.390 . S
C9617 C9618 1.387 . S
C9617 H9620 0.950 . S
C9618 C9617 1.387 . S
C9618 C9621 1.387 . S
H9619 C9615 0.950 . S
H9620 C9617 0.950 . S
C9621 C9612 1.390 . S
C9621 H9614 0.950 . S
C9621 C9618 1.387 . S
C9622 C9623 1.387 . S
C9622 H9626 0.950 . S
C9622 C9631 1.390 1_545 S
C9623 C9622 1.387 . S
C9623 C9625 1.387 . S
H9624 C9631 0.950 . S
C9625 C9623 1.387 . S
C9625 C9627 1.390 1_545 S
C9625 H9629 0.950 . S
H9626 C9622 0.950 . S
C9627 C9625 1.390 1_565 S
C9627 C9628 1.387 . S
C9627 H9630 0.950 . S
C9628 C9627 1.387 . S
C9628 C9631 1.387 . S
H9629 C9625 0.950 . S
H9630 C9627 0.950 . S
C9631 C9622 1.390 1_565 S
C9631 H9624 0.950 . S
C9631 C9628 1.387 . S
C9632 C9633 1.387 . S
C9632 H9636 0.950 . S
C9632 C9641 1.390 . S
C9633 C9632 1.387 . S
C9633 C9635 1.387 . S
H9634 C9641 0.950 . S
C9635 C9633 1.387 . S
C9635 C9637 1.390 . S
C9635 H9639 0.950 . S
H9636 C9632 0.950 . S
C9637 C9635 1.390 . S
C9637 C9638 1.387 . S
C9637 H9640 0.950 . S
C9638 C9637 1.387 . S
C9638 C9641 1.387 . S
H9639 C9635 0.950 . S
H9640 C9637 0.950 . S
C9641 C9632 1.390 . S
C9641 H9634 0.950 . S
C9641 C9638 1.387 . S
C9642 C9643 1.387 . S
C9642 H9646 0.950 . S
C9642 C9651 1.390 1_565 S
C9643 C9642 1.387 . S
C9643 C9645 1.387 . S
H9644 C9651 0.950 . S
C9645 C9643 1.387 . S
C9645 C9647 1.390 1_565 S
C9645 H9649 0.950 . S
H9646 C9642 0.950 . S
C9647 C9645 1.390 1_545 S
C9647 C9648 1.387 . S
C9647 H9650 0.950 . S
C9648 C9647 1.387 . S
C9648 C9651 1.387 . S
H9649 C9645 0.950 . S
H9650 C9647 0.950 . S
C9651 C9642 1.390 1_545 S
C9651 H9644 0.950 . S
C9651 C9648 1.387 . S
C9652 C9653 1.387 . S
C9652 H9656 0.950 . S
C9652 C9661 1.390 . S
C9653 C9652 1.387 . S
C9653 C9655 1.387 . S
H9654 C9661 0.950 . S
C9655 C9653 1.387 . S
C9655 C9657 1.390 . S
C9655 H9659 0.950 . S
H9656 C9652 0.950 . S
C9657 C9655 1.390 . S
C9657 C9658 1.387 . S
C9657 H9660 0.950 . S
C9658 C9657 1.387 . S
C9658 C9661 1.387 . S
H9659 C9655 0.950 . S
H9660 C9657 0.950 . S
C9661 C9652 1.390 . S
C9661 H9654 0.950 . S
C9661 C9658 1.387 . S
C9662 C9663 1.387 . S
C9662 H9666 0.950 . S
C9662 C9671 1.390 . S
C9663 C9662 1.387 . S
C9663 C9665 1.387 . S
H9664 C9671 0.950 . S
C9665 C9663 1.387 . S
C9665 C9667 1.390 . S
C9665 H9669 0.950 . S
H9666 C9662 0.950 . S
C9667 C9665 1.390 . S
C9667 C9668 1.387 . S
C9667 H9670 0.950 . S
C9668 C9667 1.387 . S
C9668 C9671 1.387 . S
H9669 C9665 0.950 . S
H9670 C9667 0.950 . S
C9671 C9662 1.390 . S
C9671 H9664 0.950 . S
C9671 C9668 1.387 . S
C9672 C9673 1.387 . S
C9672 H9676 0.950 . S
C9672 C9681 1.390 . S
C9673 C9672 1.387 . S
C9673 C9675 1.387 . S
H9674 C9681 0.950 . S
C9675 C9673 1.387 . S
C9675 C9677 1.390 . S
C9675 H9679 0.950 . S
H9676 C9672 0.950 . S
C9677 C9675 1.390 . S
C9677 C9678 1.387 . S
C9677 H9680 0.950 . S
C9678 C9677 1.387 . S
C9678 C9681 1.387 . S
H9679 C9675 0.950 . S
H9680 C9677 0.950 . S
C9681 C9672 1.390 . S
C9681 H9674 0.950 . S
C9681 C9678 1.387 . S
C9682 C9683 1.387 . S
C9682 H9686 0.950 . S
C9682 C9691 1.390 1_546 S
C9683 C9682 1.387 . S
C9683 C9685 1.387 . S
H9684 C9691 0.950 . S
C9685 C9683 1.387 . S
C9685 C9687 1.390 1_546 S
C9685 H9689 0.950 . S
H9686 C9682 0.950 . S
C9687 C9685 1.390 1_564 S
C9687 C9688 1.387 . S
C9687 H9690 0.950 . S
C9688 C9687 1.387 . S
C9688 C9691 1.387 . S
H9689 C9685 0.950 . S
H9690 C9687 0.950 . S
C9691 C9682 1.390 1_564 S
C9691 H9684 0.950 . S
C9691 C9688 1.387 . S
C9692 C9693 1.387 . S
C9692 H9696 0.950 . S
C9692 C9701 1.390 . S
C9693 C9692 1.387 . S
C9693 C9695 1.387 . S
H9694 C9701 0.950 . S
C9695 C9693 1.387 . S
C9695 C9697 1.390 . S
C9695 H9699 0.950 . S
H9696 C9692 0.950 . S
C9697 C9695 1.390 . S
C9697 C9698 1.387 . S
C9697 H9700 0.950 . S
C9698 C9697 1.387 . S
C9698 C9701 1.387 . S
H9699 C9695 0.950 . S
H9700 C9697 0.950 . S
C9701 C9692 1.390 . S
C9701 H9694 0.950 . S
C9701 C9698 1.387 . S
C9702 C9703 1.387 . S
C9702 H9706 0.950 . S
C9702 C9711 1.390 1_565 S
C9703 C9702 1.387 . S
C9703 C9705 1.387 . S
H9704 C9711 0.950 . S
C9705 C9703 1.387 . S
C9705 C9707 1.390 1_565 S
C9705 H9709 0.950 . S
H9706 C9702 0.950 . S
C9707 C9705 1.390 1_545 S
C9707 C9708 1.387 . S
C9707 H9710 0.950 . S
C9708 C9707 1.387 . S
C9708 C9711 1.387 . S
H9709 C9705 0.950 . S
H9710 C9707 0.950 . S
C9711 C9702 1.390 1_545 S
C9711 H9704 0.950 . S
C9711 C9708 1.387 . S
C9712 C9713 1.387 . S
C9712 H9716 0.950 . S
C9712 C9721 1.390 . S
C9713 C9712 1.387 . S
C9713 C9715 1.387 . S
H9714 C9721 0.950 . S
C9715 C9713 1.387 . S
C9715 C9717 1.390 . S
C9715 H9719 0.950 . S
H9716 C9712 0.950 . S
C9717 C9715 1.390 . S
C9717 C9718 1.387 . S
C9717 H9720 0.950 . S
C9718 C9717 1.387 . S
C9718 C9721 1.387 . S
H9719 C9715 0.950 . S
H9720 C9717 0.950 . S
C9721 C9712 1.390 . S
C9721 H9714 0.950 . S
C9721 C9718 1.387 . S
C9722 C9723 1.387 . S
C9722 H9726 0.950 . S
C9722 C9731 1.390 . S
C9723 C9722 1.387 . S
C9723 C9725 1.387 . S
H9724 C9731 0.950 . S
C9725 C9723 1.387 . S
C9725 C9727 1.390 . S
C9725 H9729 0.950 . S
H9726 C9722 0.950 . S
C9727 C9725 1.390 . S
C9727 C9728 1.387 . S
C9727 H9730 0.950 . S
C9728 C9727 1.387 . S
C9728 C9731 1.387 . S
H9729 C9725 0.950 . S
H9730 C9727 0.950 . S
C9731 C9722 1.390 . S
C9731 H9724 0.950 . S
C9731 C9728 1.387 . S
C9732 C9733 1.387 . S
C9732 H9736 0.950 . S
C9732 C9741 1.390 . S
C9733 C9732 1.387 . S
C9733 C9735 1.387 . S
H9734 C9741 0.950 . S
C9735 C9733 1.387 . S
C9735 C9737 1.390 . S
C9735 H9739 0.950 . S
H9736 C9732 0.950 . S
C9737 C9735 1.390 . S
C9737 C9738 1.387 . S
C9737 H9740 0.950 . S
C9738 C9737 1.387 . S
C9738 C9741 1.387 . S
H9739 C9735 0.950 . S
H9740 C9737 0.950 . S
C9741 C9732 1.390 . S
C9741 H9734 0.950 . S
C9741 C9738 1.387 . S
C9742 C9743 1.387 . S
C9742 H9746 0.950 . S
C9742 C9751 1.390 1_556 S
C9743 C9742 1.387 . S
C9743 C9745 1.387 . S
H9744 C9751 0.950 . S
C9745 C9743 1.387 . S
C9745 C9747 1.390 1_556 S
C9745 H9749 0.950 . S
H9746 C9742 0.950 . S
C9747 C9745 1.390 1_554 S
C9747 C9748 1.387 . S
C9747 H9750 0.950 . S
C9748 C9747 1.387 . S
C9748 C9751 1.387 . S
H9749 C9745 0.950 . S
H9750 C9747 0.950 . S
C9751 C9742 1.390 1_554 S
C9751 H9744 0.950 . S
C9751 C9748 1.387 . S
C9752 C9753 1.387 . S
C9752 H9756 0.950 . S
C9752 C9761 1.390 . S
C9753 C9752 1.387 . S
C9753 C9755 1.387 . S
H9754 C9761 0.950 . S
C9755 C9753 1.387 . S
C9755 C9757 1.390 . S
C9755 H9759 0.950 . S
H9756 C9752 0.950 . S
C9757 C9755 1.390 . S
C9757 C9758 1.387 . S
C9757 H9760 0.950 . S
C9758 C9757 1.387 . S
C9758 C9761 1.387 . S
H9759 C9755 0.950 . S
H9760 C9757 0.950 . S
C9761 C9752 1.390 . S
C9761 H9754 0.950 . S
C9761 C9758 1.387 . S
C9762 C9763 1.387 . S
C9762 H9766 0.950 . S
C9762 C9771 1.390 . S
C9763 C9762 1.387 . S
C9763 C9765 1.387 . S
H9764 C9771 0.950 . S
C9765 C9763 1.387 . S
C9765 C9767 1.390 . S
C9765 H9769 0.950 . S
H9766 C9762 0.950 . S
C9767 C9765 1.390 . S
C9767 C9768 1.387 . S
C9767 H9770 0.950 . S
C9768 C9767 1.387 . S
C9768 C9771 1.387 . S
H9769 C9765 0.950 . S
H9770 C9767 0.950 . S
C9771 C9762 1.390 . S
C9771 H9764 0.950 . S
C9771 C9768 1.387 . S
C9772 C9773 1.387 . S
C9772 H9776 0.950 . S
C9772 C9781 1.390 . S
C9773 C9772 1.387 . S
C9773 C9775 1.387 . S
H9774 C9781 0.950 . S
C9775 C9773 1.387 . S
C9775 C9777 1.390 . S
C9775 H9779 0.950 . S
H9776 C9772 0.950 . S
C9777 C9775 1.390 . S
C9777 C9778 1.387 . S
C9777 H9780 0.950 . S
C9778 C9777 1.387 . S
C9778 C9781 1.387 . S
H9779 C9775 0.950 . S
H9780 C9777 0.950 . S
C9781 C9772 1.390 . S
C9781 H9774 0.950 . S
C9781 C9778 1.387 . S
C9782 C9783 1.387 . S
C9782 H9786 0.950 . S
C9782 C9791 1.390 1_556 S
C9783 C9782 1.387 . S
C9783 C9785 1.387 . S
H9784 C9791 0.950 . S
C9785 C9783 1.387 . S
C9785 C9787 1.390 1_556 S
C9785 H9789 0.950 . S
H9786 C9782 0.950 . S
C9787 C9785 1.390 1_554 S
C9787 C9788 1.387 . S
C9787 H9790 0.950 . S
C9788 C9787 1.387 . S
C9788 C9791 1.387 . S
H9789 C9785 0.950 . S
H9790 C9787 0.950 . S
C9791 C9782 1.390 1_554 S
C9791 H9784 0.950 . S
C9791 C9788 1.387 . S
C9792 C9793 1.387 1_455 S
C9792 H9796 0.950 . S
C9792 C9801 1.390 . S
C9793 C9792 1.387 1_655 S
C9793 C9795 1.387 . S
H9794 C9801 0.950 . S
C9795 C9793 1.387 . S
C9795 C9797 1.390 . S
C9795 H9799 0.950 . S
H9796 C9792 0.950 . S
C9797 C9795 1.390 . S
C9797 C9798 1.387 1_655 S
C9797 H9800 0.950 . S
C9798 C9797 1.387 1_455 S
C9798 C9801 1.387 . S
H9799 C9795 0.950 . S
H9800 C9797 0.950 . S
C9801 C9792 1.390 . S
C9801 H9794 0.950 . S
C9801 C9798 1.387 . S
C9802 C9803 1.387 . S
C9802 H9806 0.950 . S
C9802 C9811 1.390 . S
C9803 C9802 1.387 . S
C9803 C9805 1.387 . S
H9804 C9811 0.950 . S
C9805 C9803 1.387 . S
C9805 C9807 1.390 . S
C9805 H9809 0.950 . S
H9806 C9802 0.950 . S
C9807 C9805 1.390 . S
C9807 C9808 1.387 . S
C9807 H9810 0.950 . S
C9808 C9807 1.387 . S
C9808 C9811 1.387 . S
H9809 C9805 0.950 . S
H9810 C9807 0.950 . S
C9811 C9802 1.390 . S
C9811 H9804 0.950 . S
C9811 C9808 1.387 . S
C9812 C9813 1.387 . S
C9812 H9816 0.950 . S
C9812 C9821 1.390 . S
C9813 C9812 1.387 . S
C9813 C9815 1.387 . S
H9814 C9821 0.950 . S
C9815 C9813 1.387 . S
C9815 C9817 1.390 . S
C9815 H9819 0.950 . S
H9816 C9812 0.950 . S
C9817 C9815 1.390 . S
C9817 C9818 1.387 . S
C9817 H9820 0.950 . S
C9818 C9817 1.387 . S
C9818 C9821 1.387 . S
H9819 C9815 0.950 . S
H9820 C9817 0.950 . S
C9821 C9812 1.390 . S
C9821 H9814 0.950 . S
C9821 C9818 1.387 . S
C9822 C9823 1.387 1_565 S
C9822 H9826 0.950 . S
C9822 C9831 1.390 . S
C9823 C9822 1.387 1_545 S
C9823 C9825 1.387 . S
H9824 C9831 0.950 . S
C9825 C9823 1.387 . S
C9825 C9827 1.390 . S
C9825 H9829 0.950 . S
H9826 C9822 0.950 . S
C9827 C9825 1.390 . S
C9827 C9828 1.387 1_545 S
C9827 H9830 0.950 . S
C9828 C9827 1.387 1_565 S
C9828 C9831 1.387 . S
H9829 C9825 0.950 . S
H9830 C9827 0.950 . S
C9831 C9822 1.390 . S
C9831 H9824 0.950 . S
C9831 C9828 1.387 . S
C9832 C9833 1.387 . S
C9832 H9836 0.950 . S
C9832 C9841 1.390 . S
C9833 C9832 1.387 . S
C9833 C9835 1.387 1_455 S
H9834 C9841 0.950 . S
C9835 C9833 1.387 1_655 S
C9835 C9837 1.390 . S
C9835 H9839 0.950 . S
H9836 C9832 0.950 . S
C9837 C9835 1.390 . S
C9837 C9838 1.387 . S
C9837 H9840 0.950 . S
C9838 C9837 1.387 . S
C9838 C9841 1.387 1_655 S
H9839 C9835 0.950 . S
H9840 C9837 0.950 . S
C9841 C9832 1.390 . S
C9841 H9834 0.950 . S
C9841 C9838 1.387 1_455 S
C9842 C9843 1.387 . S
C9842 H9846 0.950 . S
C9842 C9851 1.390 . S
C9843 C9842 1.387 . S
C9843 C9845 1.387 . S
H9844 C9851 0.950 . S
C9845 C9843 1.387 . S
C9845 C9847 1.390 . S
C9845 H9849 0.950 . S
H9846 C9842 0.950 . S
C9847 C9845 1.390 . S
C9847 C9848 1.387 . S
C9847 H9850 0.950 . S
C9848 C9847 1.387 . S
C9848 C9851 1.387 . S
H9849 C9845 0.950 . S
H9850 C9847 0.950 . S
C9851 C9842 1.390 . S
C9851 H9844 0.950 . S
C9851 C9848 1.387 . S
C9852 C9853 1.387 . S
C9852 H9856 0.950 . S
C9852 C9861 1.390 . S
C9853 C9852 1.387 . S
C9853 C9855 1.387 . S
H9854 C9861 0.950 . S
C9855 C9853 1.387 . S
C9855 C9857 1.390 . S
C9855 H9859 0.950 . S
H9856 C9852 0.950 . S
C9857 C9855 1.390 . S
C9857 C9858 1.387 . S
C9857 H9860 0.950 . S
C9858 C9857 1.387 . S
C9858 C9861 1.387 . S
H9859 C9855 0.950 . S
H9860 C9857 0.950 . S
C9861 C9852 1.390 . S
C9861 H9854 0.950 . S
C9861 C9858 1.387 . S
C9862 C9863 1.387 . S
C9862 H9866 0.950 . S
C9862 C9871 1.390 . S
C9863 C9862 1.387 . S
C9863 C9865 1.387 1_565 S
H9864 C9871 0.950 . S
C9865 C9863 1.387 1_545 S
C9865 C9867 1.390 . S
C9865 H9869 0.950 . S
H9866 C9862 0.950 . S
C9867 C9865 1.390 . S
C9867 C9868 1.387 . S
C9867 H9870 0.950 . S
C9868 C9867 1.387 . S
C9868 C9871 1.387 1_545 S
H9869 C9865 0.950 . S
H9870 C9867 0.950 . S
C9871 C9862 1.390 . S
C9871 H9864 0.950 . S
C9871 C9868 1.387 1_565 S
C9872 C9873 1.387 . S
C9872 H9876 0.950 . S
C9872 C9881 1.390 1_565 S
C9873 C9872 1.387 . S
C9873 C9875 1.387 . S
H9874 C9881 0.950 . S
C9875 C9873 1.387 . S
C9875 C9877 1.390 1_565 S
C9875 H9879 0.950 . S
H9876 C9872 0.950 . S
C9877 C9875 1.390 1_545 S
C9877 C9878 1.387 . S
C9877 H9880 0.950 . S
C9878 C9877 1.387 . S
C9878 C9881 1.387 . S
H9879 C9875 0.950 . S
H9880 C9877 0.950 . S
C9881 C9872 1.390 1_545 S
C9881 H9874 0.950 . S
C9881 C9878 1.387 . S
C9882 C9883 1.387 . S
C9882 H9886 0.950 . S
C9882 C9891 1.395 . S
C9883 C9882 1.387 . S
C9883 C9885 1.383 1_455 S
H9884 C9891 0.950 . S
C9885 C9883 1.383 1_655 S
C9885 C9887 1.395 . S
C9885 H9889 0.950 . S
H9886 C9882 0.950 . S
C9887 C9885 1.395 . S
C9887 C9888 1.387 . S
C9887 H9890 0.950 . S
C9888 C9887 1.387 . S
C9888 C9891 1.383 1_655 S
H9889 C9885 0.950 . S
H9890 C9887 0.950 . S
C9891 C9882 1.395 . S
C9891 H9884 0.950 . S
C9891 C9888 1.383 1_455 S
C9892 C9893 1.387 . S
C9892 H9896 0.950 . S
C9892 C9901 1.390 . S
C9893 C9892 1.387 . S
C9893 C9895 1.387 . S
H9894 C9901 0.950 . S
C9895 C9893 1.387 . S
C9895 C9897 1.390 . S
C9895 H9899 0.950 . S
H9896 C9892 0.950 . S
C9897 C9895 1.390 . S
C9897 C9898 1.387 . S
C9897 H9900 0.950 . S
C9898 C9897 1.387 . S
C9898 C9901 1.387 . S
H9899 C9895 0.950 . S
H9900 C9897 0.950 . S
C9901 C9892 1.390 . S
C9901 H9894 0.950 . S
C9901 C9898 1.387 . S
C9902 C9903 1.387 . S
C9902 H9906 0.950 . S
C9902 C9911 1.390 . S
C9903 C9902 1.387 . S
C9903 C9905 1.387 . S
H9904 C9911 0.950 . S
C9905 C9903 1.387 . S
C9905 C9907 1.390 . S
C9905 H9909 0.950 . S
H9906 C9902 0.950 . S
C9907 C9905 1.390 . S
C9907 C9908 1.387 . S
C9907 H9910 0.950 . S
C9908 C9907 1.387 . S
C9908 C9911 1.387 . S
H9909 C9905 0.950 . S
H9910 C9907 0.950 . S
C9911 C9902 1.390 . S
C9911 H9904 0.950 . S
C9911 C9908 1.387 . S
C9912 C9913 1.387 . S
C9912 H9916 0.950 . S
C9912 C9921 1.390 . S
C9913 C9912 1.387 . S
C9913 C9915 1.387 . S
H9914 C9921 0.950 . S
C9915 C9913 1.387 . S
C9915 C9917 1.390 . S
C9915 H9919 0.950 . S
H9916 C9912 0.950 . S
C9917 C9915 1.390 . S
C9917 C9918 1.387 . S
C9917 H9920 0.950 . S
C9918 C9917 1.387 . S
C9918 C9921 1.387 . S
H9919 C9915 0.950 . S
H9920 C9917 0.950 . S
C9921 C9912 1.390 . S
C9921 H9914 0.950 . S
C9921 C9918 1.387 . S
C9922 C9923 1.387 . S
C9922 H9926 0.950 . S
C9922 C9931 1.390 . S
C9923 C9922 1.387 . S
C9923 C9925 1.387 . S
H9924 C9931 0.950 . S
C9925 C9923 1.387 . S
C9925 C9927 1.390 . S
C9925 H9929 0.950 . S
H9926 C9922 0.950 . S
C9927 C9925 1.390 . S
C9927 C9928 1.387 . S
C9927 H9930 0.950 . S
C9928 C9927 1.387 . S
C9928 C9931 1.387 . S
H9929 C9925 0.950 . S
H9930 C9927 0.950 . S
C9931 C9922 1.390 . S
C9931 H9924 0.950 . S
C9931 C9928 1.387 . S
C9932 C9933 1.387 . S
C9932 H9936 0.950 . S
C9932 C9941 1.390 . S
C9933 C9932 1.387 . S
C9933 C9935 1.387 1_565 S
H9934 C9941 0.950 . S
C9935 C9933 1.387 1_545 S
C9935 C9937 1.390 . S
C9935 H9939 0.950 . S
H9936 C9932 0.950 . S
C9937 C9935 1.390 . S
C9937 C9938 1.387 . S
C9937 H9940 0.950 . S
C9938 C9937 1.387 . S
C9938 C9941 1.387 1_545 S
H9939 C9935 0.950 . S
H9940 C9937 0.950 . S
C9941 C9932 1.390 . S
C9941 H9934 0.950 . S
C9941 C9938 1.387 1_565 S
C9942 C9943 1.387 . S
C9942 H9946 0.950 . S
C9942 C9951 1.390 1_655 S
C9943 C9942 1.387 . S
C9943 C9945 1.387 . S
H9944 C9951 0.950 . S
C9945 C9943 1.387 . S
C9945 C9947 1.390 1_655 S
C9945 H9949 0.950 . S
H9946 C9942 0.950 . S
C9947 C9945 1.390 1_455 S
C9947 C9948 1.387 . S
C9947 H9950 0.950 . S
C9948 C9947 1.387 . S
C9948 C9951 1.387 . S
H9949 C9945 0.950 . S
H9950 C9947 0.950 . S
C9951 C9942 1.390 1_455 S
C9951 H9944 0.950 . S
C9951 C9948 1.387 . S
C9952 C9953 1.387 1_554 S
C9952 H9956 0.950 . S
C9952 C9961 1.390 . S
C9953 C9952 1.387 1_556 S
C9953 C9955 1.387 . S
H9954 C9961 0.950 . S
C9955 C9953 1.387 . S
C9955 C9957 1.390 . S
C9955 H9959 0.950 . S
H9956 C9952 0.950 . S
C9957 C9955 1.390 . S
C9957 C9958 1.387 1_556 S
C9957 H9960 0.950 . S
C9958 C9957 1.387 1_554 S
C9958 C9961 1.387 . S
H9959 C9955 0.950 . S
H9960 C9957 0.950 . S
C9961 C9952 1.390 . S
C9961 H9954 0.950 . S
C9961 C9958 1.387 . S
C9962 C9963 1.387 . S
C9962 H9966 0.950 . S
C9962 C9971 1.390 . S
C9963 C9962 1.387 . S
C9963 C9965 1.387 . S
H9964 C9971 0.950 . S
C9965 C9963 1.387 . S
C9965 C9967 1.390 . S
C9965 H9969 0.950 . S
H9966 C9962 0.950 . S
C9967 C9965 1.390 . S
C9967 C9968 1.387 . S
C9967 H9970 0.950 . S
C9968 C9967 1.387 . S
C9968 C9971 1.387 . S
H9969 C9965 0.950 . S
H9970 C9967 0.950 . S
C9971 C9962 1.390 . S
C9971 H9964 0.950 . S
C9971 C9968 1.387 . S
C9972 C9973 1.387 . S
C9972 H9976 0.950 . S
C9972 C9981 1.390 . S
C9973 C9972 1.387 . S
C9973 C9975 1.387 . S
H9974 C9981 0.950 . S
C9975 C9973 1.387 . S
C9975 C9977 1.390 . S
C9975 H9979 0.950 . S
H9976 C9972 0.950 . S
C9977 C9975 1.390 . S
C9977 C9978 1.387 . S
C9977 H9980 0.950 . S
C9978 C9977 1.387 . S
C9978 C9981 1.387 . S
H9979 C9975 0.950 . S
H9980 C9977 0.950 . S
C9981 C9972 1.390 . S
C9981 H9974 0.950 . S
C9981 C9978 1.387 . S
C9982 C9983 1.387 . S
C9982 H9986 0.950 . S
C9982 C9991 1.390 . S
C9983 C9982 1.387 . S
C9983 C9985 1.387 . S
H9984 C9991 0.950 . S
C9985 C9983 1.387 . S
C9985 C9987 1.390 . S
C9985 H9989 0.950 . S
H9986 C9982 0.950 . S
C9987 C9985 1.390 . S
C9987 C9988 1.387 . S
C9987 H9990 0.950 . S
C9988 C9987 1.387 . S
C9988 C9991 1.387 . S
H9989 C9985 0.950 . S
H9990 C9987 0.950 . S
C9991 C9982 1.390 . S
C9991 H9984 0.950 . S
C9991 C9988 1.387 . S
C9992 C9993 1.387 . S
C9992 H9996 0.950 . S
C9992 C10001 1.390 . S
C9993 C9992 1.387 . S
C9993 C9995 1.387 . S
H9994 C10001 0.950 . S
C9995 C9993 1.387 . S
C9995 C9997 1.390 . S
C9995 H9999 0.950 . S
H9996 C9992 0.950 . S
C9997 C9995 1.390 . S
C9997 C9998 1.387 . S
C9997 H10000 0.950 . S
C9998 C9997 1.387 . S
C9998 C10001 1.387 . S
H9999 C9995 0.950 . S
H10000 C9997 0.950 . S
C10001 C9992 1.390 . S
C10001 H9994 0.950 . S
C10001 C9998 1.387 . S
C10002 C10003 1.387 1_554 S
C10002 H10006 0.950 . S
C10002 C10011 1.390 . S
C10003 C10002 1.387 1_556 S
C10003 C10005 1.387 . S
H10004 C10011 0.950 . S
C10005 C10003 1.387 . S
C10005 C10007 1.390 . S
C10005 H10009 0.950 . S
H10006 C10002 0.950 . S
C10007 C10005 1.390 . S
C10007 C10008 1.387 1_556 S
C10007 H10010 0.950 . S
C10008 C10007 1.387 1_554 S
C10008 C10011 1.387 . S
H10009 C10005 0.950 . S
H10010 C10007 0.950 . S
C10011 C10002 1.390 . S
C10011 H10004 0.950 . S
C10011 C10008 1.387 . S
C10012 C10013 1.387 . S
C10012 H10016 0.950 . S
C10012 C10021 1.390 . S
C10013 C10012 1.387 . S
C10013 C10015 1.387 . S
H10014 C10021 0.950 . S
C10015 C10013 1.387 . S
C10015 C10017 1.390 . S
C10015 H10019 0.950 . S
H10016 C10012 0.950 . S
C10017 C10015 1.390 . S
C10017 C10018 1.387 . S
C10017 H10020 0.950 . S
C10018 C10017 1.387 . S
C10018 C10021 1.387 . S
H10019 C10015 0.950 . S
H10020 C10017 0.950 . S
C10021 C10012 1.390 . S
C10021 H10014 0.950 . S
C10021 C10018 1.387 . S
C10022 C10023 1.387 . S
C10022 H10026 0.950 . S
C10022 C10031 1.390 . S
C10023 C10022 1.387 . S
C10023 C10025 1.387 . S
H10024 C10031 0.950 . S
C10025 C10023 1.387 . S
C10025 C10027 1.390 . S
C10025 H10029 0.950 . S
H10026 C10022 0.950 . S
C10027 C10025 1.390 . S
C10027 C10028 1.387 . S
C10027 H10030 0.950 . S
C10028 C10027 1.387 . S
C10028 C10031 1.387 . S
H10029 C10025 0.950 . S
H10030 C10027 0.950 . S
C10031 C10022 1.390 . S
C10031 H10024 0.950 . S
C10031 C10028 1.387 . S
C10032 C10033 1.387 . S
C10032 H10036 0.950 . S
C10032 C10041 1.390 1_455 S
C10033 C10032 1.387 . S
C10033 C10035 1.387 . S
H10034 C10041 0.950 . S
C10035 C10033 1.387 . S
C10035 C10037 1.390 1_455 S
C10035 H10039 0.950 . S
H10036 C10032 0.950 . S
C10037 C10035 1.390 1_655 S
C10037 C10038 1.387 . S
C10037 H10040 0.950 . S
C10038 C10037 1.387 . S
C10038 C10041 1.387 . S
H10039 C10035 0.950 . S
H10040 C10037 0.950 . S
C10041 C10032 1.390 1_655 S
C10041 H10034 0.950 . S
C10041 C10038 1.387 . S
C10042 C10043 1.387 . S
C10042 H10046 0.950 . S
C10042 C10051 1.390 . S
C10043 C10042 1.387 . S
C10043 C10045 1.387 . S
H10044 C10051 0.950 . S
C10045 C10043 1.387 . S
C10045 C10047 1.390 . S
C10045 H10049 0.950 . S
H10046 C10042 0.950 . S
C10047 C10045 1.390 . S
C10047 C10048 1.387 . S
C10047 H10050 0.950 . S
C10048 C10047 1.387 . S
C10048 C10051 1.387 . S
H10049 C10045 0.950 . S
H10050 C10047 0.950 . S
C10051 C10042 1.390 . S
C10051 H10044 0.950 . S
C10051 C10048 1.387 . S
C10052 C10053 1.387 . S
C10052 H10056 0.950 . S
C10052 C10061 1.390 . S
C10053 C10052 1.387 . S
C10053 C10055 1.387 . S
H10054 C10061 0.950 . S
C10055 C10053 1.387 . S
C10055 C10057 1.390 . S
C10055 H10059 0.950 . S
H10056 C10052 0.950 . S
C10057 C10055 1.390 . S
C10057 C10058 1.387 . S
C10057 H10060 0.950 . S
C10058 C10057 1.387 . S
C10058 C10061 1.387 . S
H10059 C10055 0.950 . S
H10060 C10057 0.950 . S
C10061 C10052 1.390 . S
C10061 H10054 0.950 . S
C10061 C10058 1.387 . S
C10062 C10063 1.387 . S
C10062 H10066 0.950 . S
C10062 C10071 1.390 . S
C10063 C10062 1.387 . S
C10063 C10065 1.387 1_545 S
H10064 C10071 0.950 . S
C10065 C10063 1.387 1_565 S
C10065 C10067 1.390 . S
C10065 H10069 0.950 . S
H10066 C10062 0.950 . S
C10067 C10065 1.390 . S
C10067 C10068 1.387 . S
C10067 H10070 0.950 . S
C10068 C10067 1.387 . S
C10068 C10071 1.387 1_565 S
H10069 C10065 0.950 . S
H10070 C10067 0.950 . S
C10071 C10062 1.390 . S
C10071 H10064 0.950 . S
C10071 C10068 1.387 1_545 S
C10072 C10073 1.387 . S
C10072 H10076 0.950 . S
C10072 C10081 1.390 . S
C10073 C10072 1.387 . S
C10073 C10075 1.387 1_655 S
H10074 C10081 0.950 . S
C10075 C10073 1.387 1_455 S
C10075 C10077 1.390 . S
C10075 H10079 0.950 . S
H10076 C10072 0.950 . S
C10077 C10075 1.390 . S
C10077 C10078 1.387 . S
C10077 H10080 0.950 . S
C10078 C10077 1.387 . S
C10078 C10081 1.387 1_455 S
H10079 C10075 0.950 . S
H10080 C10077 0.950 . S
C10081 C10072 1.390 . S
C10081 H10074 0.950 . S
C10081 C10078 1.387 1_655 S
C10082 C10083 1.387 . S
C10082 H10086 0.950 . S
C10082 C10091 1.390 . S
C10083 C10082 1.387 . S
C10083 C10085 1.387 . S
H10084 C10091 0.950 . S
C10085 C10083 1.387 . S
C10085 C10087 1.390 . S
C10085 H10089 0.950 . S
H10086 C10082 0.950 . S
C10087 C10085 1.390 . S
C10087 C10088 1.387 . S
C10087 H10090 0.950 . S
C10088 C10087 1.387 . S
C10088 C10091 1.387 . S
H10089 C10085 0.950 . S
H10090 C10087 0.950 . S
C10091 C10082 1.390 . S
C10091 H10084 0.950 . S
C10091 C10088 1.387 . S
C10092 C10093 1.387 . S
C10092 H10096 0.950 . S
C10092 C10101 1.390 . S
C10093 C10092 1.387 . S
C10093 C10095 1.387 . S
H10094 C10101 0.950 . S
C10095 C10093 1.387 . S
C10095 C10097 1.390 . S
C10095 H10099 0.950 . S
H10096 C10092 0.950 . S
C10097 C10095 1.390 . S
C10097 C10098 1.387 . S
C10097 H10100 0.950 . S
C10098 C10097 1.387 . S
C10098 C10101 1.387 . S
H10099 C10095 0.950 . S
H10100 C10097 0.950 . S
C10101 C10092 1.390 . S
C10101 H10094 0.950 . S
C10101 C10098 1.387 . S
C10102 C10103 1.387 . S
C10102 H10106 0.950 . S
C10102 C10111 1.390 . S
C10103 C10102 1.387 . S
C10103 C10105 1.387 1_545 S
H10104 C10111 0.950 . S
C10105 C10103 1.387 1_565 S
C10105 C10107 1.390 . S
C10105 H10109 0.950 . S
H10106 C10102 0.950 . S
C10107 C10105 1.390 . S
C10107 C10108 1.387 . S
C10107 H10110 0.950 . S
C10108 C10107 1.387 . S
C10108 C10111 1.387 1_565 S
H10109 C10105 0.950 . S
H10110 C10107 0.950 . S
C10111 C10102 1.390 . S
C10111 H10104 0.950 . S
C10111 C10108 1.387 1_545 S
C10112 C10113 1.387 1_565 S
C10112 H10116 0.950 . S
C10112 C10121 1.390 . S
C10113 C10112 1.387 1_545 S
C10113 C10115 1.387 . S
H10114 C10121 0.950 . S
C10115 C10113 1.387 . S
C10115 C10117 1.390 . S
C10115 H10119 0.950 . S
H10116 C10112 0.950 . S
C10117 C10115 1.390 . S
C10117 C10118 1.387 1_545 S
C10117 H10120 0.950 . S
C10118 C10117 1.387 1_565 S
C10118 C10121 1.387 . S
H10119 C10115 0.950 . S
H10120 C10117 0.950 . S
C10121 C10112 1.390 . S
C10121 H10114 0.950 . S
C10121 C10118 1.387 . S
C10122 C10123 1.387 1_455 S
C10122 H10126 0.950 . S
C10122 C10131 1.390 . S
C10123 C10122 1.387 1_655 S
C10123 C10125 1.387 . S
H10124 C10131 0.950 . S
C10125 C10123 1.387 . S
C10125 C10127 1.390 . S
C10125 H10129 0.950 . S
H10126 C10122 0.950 . S
C10127 C10125 1.390 . S
C10127 C10128 1.387 1_655 S
C10127 H10130 0.950 . S
C10128 C10127 1.387 1_455 S
C10128 C10131 1.387 . S
H10129 C10125 0.950 . S
H10130 C10127 0.950 . S
C10131 C10122 1.390 . S
C10131 H10124 0.950 . S
C10131 C10128 1.387 . S
C10132 C10133 1.387 . S
C10132 H10136 0.950 . S
C10132 C10141 1.390 . S
C10133 C10132 1.387 . S
C10133 C10135 1.387 . S
H10134 C10141 0.950 . S
C10135 C10133 1.387 . S
C10135 C10137 1.390 . S
C10135 H10139 0.950 . S
H10136 C10132 0.950 . S
C10137 C10135 1.390 . S
C10137 C10138 1.387 . S
C10137 H10140 0.950 . S
C10138 C10137 1.387 . S
C10138 C10141 1.387 . S
H10139 C10135 0.950 . S
H10140 C10137 0.950 . S
C10141 C10132 1.390 . S
C10141 H10134 0.950 . S
C10141 C10138 1.387 . S
C10142 C10143 1.387 . S
C10142 H10146 0.950 . S
C10142 C10151 1.390 . S
C10143 C10142 1.387 . S
C10143 C10145 1.387 . S
H10144 C10151 0.950 . S
C10145 C10143 1.387 . S
C10145 C10147 1.390 . S
C10145 H10149 0.950 . S
H10146 C10142 0.950 . S
C10147 C10145 1.390 . S
C10147 C10148 1.387 . S
C10147 H10150 0.950 . S
C10148 C10147 1.387 . S
C10148 C10151 1.387 . S
H10149 C10145 0.950 . S
H10150 C10147 0.950 . S
C10151 C10142 1.390 . S
C10151 H10144 0.950 . S
C10151 C10148 1.387 . S
C10152 C10153 1.387 . S
C10152 H10156 0.950 . S
C10152 C10161 1.390 . S
C10153 C10152 1.387 . S
C10153 C10155 1.387 . S
H10154 C10161 0.950 . S
C10155 C10153 1.387 . S
C10155 C10157 1.390 . S
C10155 H10159 0.950 . S
H10156 C10152 0.950 . S
C10157 C10155 1.390 . S
C10157 C10158 1.387 . S
C10157 H10160 0.950 . S
C10158 C10157 1.387 . S
C10158 C10161 1.387 . S
H10159 C10155 0.950 . S
H10160 C10157 0.950 . S
C10161 C10152 1.390 . S
C10161 H10154 0.950 . S
C10161 C10158 1.387 . S
C10162 C10163 1.387 . S
C10162 H10166 0.950 . S
C10162 C10171 1.390 . S
C10163 C10162 1.387 . S
C10163 C10165 1.387 . S
H10164 C10171 0.950 . S
C10165 C10163 1.387 . S
C10165 C10167 1.390 . S
C10165 H10169 0.950 . S
H10166 C10162 0.950 . S
C10167 C10165 1.390 . S
C10167 C10168 1.387 . S
C10167 H10170 0.950 . S
C10168 C10167 1.387 . S
C10168 C10171 1.387 . S
H10169 C10165 0.950 . S
H10170 C10167 0.950 . S
C10171 C10162 1.390 . S
C10171 H10164 0.950 . S
C10171 C10168 1.387 . S
C10172 C10173 1.387 . S
C10172 H10176 0.950 . S
C10172 C10181 1.390 . S
C10173 C10172 1.387 . S
C10173 C10175 1.387 1_545 S
H10174 C10181 0.950 . S
C10175 C10173 1.387 1_565 S
C10175 C10177 1.390 . S
C10175 H10179 0.950 . S
H10176 C10172 0.950 . S
C10177 C10175 1.390 . S
C10177 C10178 1.387 . S
C10177 H10180 0.950 . S
C10178 C10177 1.387 . S
C10178 C10181 1.387 1_565 S
H10179 C10175 0.950 . S
H10180 C10177 0.950 . S
C10181 C10172 1.390 . S
C10181 H10174 0.950 . S
C10181 C10178 1.387 1_545 S
C10182 C10183 1.387 . S
C10182 H10186 0.950 . S
C10182 C10191 1.390 1_455 S
C10183 C10182 1.387 . S
C10183 C10185 1.387 . S
H10184 C10191 0.950 . S
C10185 C10183 1.387 . S
C10185 C10187 1.390 1_455 S
C10185 H10189 0.950 . S
H10186 C10182 0.950 . S
C10187 C10185 1.390 1_655 S
C10187 C10188 1.387 . S
C10187 H10190 0.950 . S
C10188 C10187 1.387 . S
C10188 C10191 1.387 . S
H10189 C10185 0.950 . S
H10190 C10187 0.950 . S
C10191 C10182 1.390 1_655 S
C10191 H10184 0.950 . S
C10191 C10188 1.387 . S
C10192 C10193 1.387 . S
C10192 H10196 0.950 . S
C10192 C10201 1.390 . S
C10193 C10192 1.387 . S
C10193 C10195 1.387 1_554 S
H10194 C10201 0.950 . S
C10195 C10193 1.387 1_556 S
C10195 C10197 1.390 . S
C10195 H10199 0.950 . S
H10196 C10192 0.950 . S
C10197 C10195 1.390 . S
C10197 C10198 1.387 . S
C10197 H10200 0.950 . S
C10198 C10197 1.387 . S
C10198 C10201 1.387 1_556 S
H10199 C10195 0.950 . S
H10200 C10197 0.950 . S
C10201 C10192 1.390 . S
C10201 H10194 0.950 . S
C10201 C10198 1.387 1_554 S
C10202 C10203 1.387 . S
C10202 H10206 0.950 . S
C10202 C10211 1.390 . S
C10203 C10202 1.387 . S
C10203 C10205 1.387 . S
H10204 C10211 0.950 . S
C10205 C10203 1.387 . S
C10205 C10207 1.390 . S
C10205 H10209 0.950 . S
H10206 C10202 0.950 . S
C10207 C10205 1.390 . S
C10207 C10208 1.387 . S
C10207 H10210 0.950 . S
C10208 C10207 1.387 . S
C10208 C10211 1.387 . S
H10209 C10205 0.950 . S
H10210 C10207 0.950 . S
C10211 C10202 1.390 . S
C10211 H10204 0.950 . S
C10211 C10208 1.387 . S
C10212 C10213 1.387 . S
C10212 H10216 0.950 . S
C10212 C10221 1.390 . S
C10213 C10212 1.387 . S
C10213 C10215 1.387 . S
H10214 C10221 0.950 . S
C10215 C10213 1.387 . S
C10215 C10217 1.390 . S
C10215 H10219 0.950 . S
H10216 C10212 0.950 . S
C10217 C10215 1.390 . S
C10217 C10218 1.387 . S
C10217 H10220 0.950 . S
C10218 C10217 1.387 . S
C10218 C10221 1.387 . S
H10219 C10215 0.950 . S
H10220 C10217 0.950 . S
C10221 C10212 1.390 . S
C10221 H10214 0.950 . S
C10221 C10218 1.387 . S
C10222 C10223 1.387 . S
C10222 H10226 0.950 . S
C10222 C10231 1.390 . S
C10223 C10222 1.387 . S
C10223 C10225 1.387 . S
H10224 C10231 0.950 . S
C10225 C10223 1.387 . S
C10225 C10227 1.390 . S
C10225 H10229 0.950 . S
H10226 C10222 0.950 . S
C10227 C10225 1.390 . S
C10227 C10228 1.387 . S
C10227 H10230 0.950 . S
C10228 C10227 1.387 . S
C10228 C10231 1.387 . S
H10229 C10225 0.950 . S
H10230 C10227 0.950 . S
C10231 C10222 1.390 . S
C10231 H10224 0.950 . S
C10231 C10228 1.387 . S
C10232 C10233 1.387 . S
C10232 H10236 0.950 . S
C10232 C10241 1.390 . S
C10233 C10232 1.387 . S
C10233 C10235 1.387 . S
H10234 C10241 0.950 . S
C10235 C10233 1.387 . S
C10235 C10237 1.390 . S
C10235 H10239 0.950 . S
H10236 C10232 0.950 . S
C10237 C10235 1.390 . S
C10237 C10238 1.387 . S
C10237 H10240 0.950 . S
C10238 C10237 1.387 . S
C10238 C10241 1.387 . S
H10239 C10235 0.950 . S
H10240 C10237 0.950 . S
C10241 C10232 1.390 . S
C10241 H10234 0.950 . S
C10241 C10238 1.387 . S
C10242 C10243 1.387 1_554 S
C10242 H10246 0.950 . S
C10242 C10251 1.390 . S
C10243 C10242 1.387 1_556 S
C10243 C10245 1.387 . S
H10244 C10251 0.950 . S
C10245 C10243 1.387 . S
C10245 C10247 1.390 . S
C10245 H10249 0.950 . S
H10246 C10242 0.950 . S
C10247 C10245 1.390 . S
C10247 C10248 1.387 1_556 S
C10247 H10250 0.950 . S
C10248 C10247 1.387 1_554 S
C10248 C10251 1.387 . S
H10249 C10245 0.950 . S
H10250 C10247 0.950 . S
C10251 C10242 1.390 . S
C10251 H10244 0.950 . S
C10251 C10248 1.387 . S
C10252 C10253 1.387 . S
C10252 H10256 0.950 . S
C10252 C10261 1.390 . S
C10253 C10252 1.387 . S
C10253 C10255 1.387 . S
H10254 C10261 0.950 . S
C10255 C10253 1.387 . S
C10255 C10257 1.390 . S
C10255 H10259 0.950 . S
H10256 C10252 0.950 . S
C10257 C10255 1.390 . S
C10257 C10258 1.387 . S
C10257 H10260 0.950 . S
C10258 C10257 1.387 . S
C10258 C10261 1.387 . S
H10259 C10255 0.950 . S
H10260 C10257 0.950 . S
C10261 C10252 1.390 . S
C10261 H10254 0.950 . S
C10261 C10258 1.387 . S
C10262 C10263 1.387 . S
C10262 H10266 0.950 . S
C10262 C10271 1.390 . S
C10263 C10262 1.387 . S
C10263 C10265 1.387 . S
H10264 C10271 0.950 . S
C10265 C10263 1.387 . S
C10265 C10267 1.390 . S
C10265 H10269 0.950 . S
H10266 C10262 0.950 . S
C10267 C10265 1.390 . S
C10267 C10268 1.387 . S
C10267 H10270 0.950 . S
C10268 C10267 1.387 . S
C10268 C10271 1.387 . S
H10269 C10265 0.950 . S
H10270 C10267 0.950 . S
C10271 C10262 1.390 . S
C10271 H10264 0.950 . S
C10271 C10268 1.387 . S
C10272 C10273 1.387 . S
C10272 H10276 0.950 . S
C10272 C10281 1.390 . S
C10273 C10272 1.387 . S
C10273 C10275 1.387 . S
H10274 C10281 0.950 . S
C10275 C10273 1.387 . S
C10275 C10277 1.390 . S
C10275 H10279 0.950 . S
H10276 C10272 0.950 . S
C10277 C10275 1.390 . S
C10277 C10278 1.387 . S
C10277 H10280 0.950 . S
C10278 C10277 1.387 . S
C10278 C10281 1.387 . S
H10279 C10275 0.950 . S
H10280 C10277 0.950 . S
C10281 C10272 1.390 . S
C10281 H10274 0.950 . S
C10281 C10278 1.387 . S
C10282 C10283 1.387 . S
C10282 H10286 0.950 . S
C10282 C10291 1.390 . S
C10283 C10282 1.387 . S
C10283 C10285 1.387 . S
H10284 C10291 0.950 . S
C10285 C10283 1.387 . S
C10285 C10287 1.390 . S
C10285 H10289 0.950 . S
H10286 C10282 0.950 . S
C10287 C10285 1.390 . S
C10287 C10288 1.387 . S
C10287 H10290 0.950 . S
C10288 C10287 1.387 . S
C10288 C10291 1.387 . S
H10289 C10285 0.950 . S
H10290 C10287 0.950 . S
C10291 C10282 1.390 . S
C10291 H10284 0.950 . S
C10291 C10288 1.387 . S
C10292 C10293 1.387 . S
C10292 H10296 0.950 . S
C10292 C10301 1.390 . S
C10293 C10292 1.387 . S
C10293 C10295 1.387 . S
H10294 C10301 0.950 . S
C10295 C10293 1.387 . S
C10295 C10297 1.390 . S
C10295 H10299 0.950 . S
H10296 C10292 0.950 . S
C10297 C10295 1.390 . S
C10297 C10298 1.387 . S
C10297 H10300 0.950 . S
C10298 C10297 1.387 . S
C10298 C10301 1.387 . S
H10299 C10295 0.950 . S
H10300 C10297 0.950 . S
C10301 C10292 1.390 . S
C10301 H10294 0.950 . S
C10301 C10298 1.387 . S
C10302 C10303 1.387 . S
C10302 H10306 0.950 . S
C10302 C10311 1.390 . S
C10303 C10302 1.387 . S
C10303 C10305 1.387 . S
H10304 C10311 0.950 . S
C10305 C10303 1.387 . S
C10305 C10307 1.390 . S
C10305 H10309 0.950 . S
H10306 C10302 0.950 . S
C10307 C10305 1.390 . S
C10307 C10308 1.387 . S
C10307 H10310 0.950 . S
C10308 C10307 1.387 . S
C10308 C10311 1.387 . S
H10309 C10305 0.950 . S
H10310 C10307 0.950 . S
C10311 C10302 1.390 . S
C10311 H10304 0.950 . S
C10311 C10308 1.387 . S
C10312 C10313 1.387 . S
C10312 H10316 0.950 . S
C10312 C10321 1.390 . S
C10313 C10312 1.387 . S
C10313 C10315 1.387 . S
H10314 C10321 0.950 . S
C10315 C10313 1.387 . S
C10315 C10317 1.390 . S
C10315 H10319 0.950 . S
H10316 C10312 0.950 . S
C10317 C10315 1.390 . S
C10317 C10318 1.387 . S
C10317 H10320 0.950 . S
C10318 C10317 1.387 . S
C10318 C10321 1.387 . S
H10319 C10315 0.950 . S
H10320 C10317 0.950 . S
C10321 C10312 1.390 . S
C10321 H10314 0.950 . S
C10321 C10318 1.387 . S
C10322 C10323 1.387 . S
C10322 H10326 0.950 . S
C10322 C10331 1.390 . S
C10323 C10322 1.387 . S
C10323 C10325 1.387 . S
H10324 C10331 0.950 . S
C10325 C10323 1.387 . S
C10325 C10327 1.390 . S
C10325 H10329 0.950 . S
H10326 C10322 0.950 . S
C10327 C10325 1.390 . S
C10327 C10328 1.387 . S
C10327 H10330 0.950 . S
C10328 C10327 1.387 . S
C10328 C10331 1.387 . S
H10329 C10325 0.950 . S
H10330 C10327 0.950 . S
C10331 C10322 1.390 . S
C10331 H10324 0.950 . S
C10331 C10328 1.387 . S
C10332 C10333 1.387 . S
C10332 H10336 0.950 . S
C10332 C10341 1.390 . S
C10333 C10332 1.387 . S
C10333 C10335 1.387 . S
H10334 C10341 0.950 . S
C10335 C10333 1.387 . S
C10335 C10337 1.390 . S
C10335 H10339 0.950 . S
H10336 C10332 0.950 . S
C10337 C10335 1.390 . S
C10337 C10338 1.387 . S
C10337 H10340 0.950 . S
C10338 C10337 1.387 . S
C10338 C10341 1.387 . S
H10339 C10335 0.950 . S
H10340 C10337 0.950 . S
C10341 C10332 1.390 . S
C10341 H10334 0.950 . S
C10341 C10338 1.387 . S
C10342 C10343 1.387 . S
C10342 H10346 0.950 . S
C10342 C10351 1.390 . S
C10343 C10342 1.387 . S
C10343 C10345 1.387 . S
H10344 C10351 0.950 . S
C10345 C10343 1.387 . S
C10345 C10347 1.390 . S
C10345 H10349 0.950 . S
H10346 C10342 0.950 . S
C10347 C10345 1.390 . S
C10347 C10348 1.387 . S
C10347 H10350 0.950 . S
C10348 C10347 1.387 . S
C10348 C10351 1.387 . S
H10349 C10345 0.950 . S
H10350 C10347 0.950 . S
C10351 C10342 1.390 . S
C10351 H10344 0.950 . S
C10351 C10348 1.387 . S
C10352 C10353 1.387 . S
C10352 H10356 0.950 . S
C10352 C10361 1.390 . S
C10353 C10352 1.387 . S
C10353 C10355 1.387 . S
H10354 C10361 0.950 . S
C10355 C10353 1.387 . S
C10355 C10357 1.390 . S
C10355 H10359 0.950 . S
H10356 C10352 0.950 . S
C10357 C10355 1.390 . S
C10357 C10358 1.387 . S
C10357 H10360 0.950 . S
C10358 C10357 1.387 . S
C10358 C10361 1.387 . S
H10359 C10355 0.950 . S
H10360 C10357 0.950 . S
C10361 C10352 1.390 . S
C10361 H10354 0.950 . S
C10361 C10358 1.387 . S
C10362 C10363 1.387 . S
C10362 H10366 0.950 . S
C10362 C10371 1.390 . S
C10363 C10362 1.387 . S
C10363 C10365 1.387 . S
H10364 C10371 0.950 . S
C10365 C10363 1.387 . S
C10365 C10367 1.390 . S
C10365 H10369 0.950 . S
H10366 C10362 0.950 . S
C10367 C10365 1.390 . S
C10367 C10368 1.387 . S
C10367 H10370 0.950 . S
C10368 C10367 1.387 . S
C10368 C10371 1.387 . S
H10369 C10365 0.950 . S
H10370 C10367 0.950 . S
C10371 C10362 1.390 . S
C10371 H10364 0.950 . S
C10371 C10368 1.387 . S
C10372 C10373 1.387 1_554 S
C10372 H10376 0.950 . S
C10372 C10381 1.390 . S
C10373 C10372 1.387 1_556 S
C10373 C10375 1.387 . S
H10374 C10381 0.950 . S
C10375 C10373 1.387 . S
C10375 C10377 1.390 . S
C10375 H10379 0.950 . S
H10376 C10372 0.950 . S
C10377 C10375 1.390 . S
C10377 C10378 1.387 1_556 S
C10377 H10380 0.950 . S
C10378 C10377 1.387 1_554 S
C10378 C10381 1.387 . S
H10379 C10375 0.950 . S
H10380 C10377 0.950 . S
C10381 C10372 1.390 . S
C10381 H10374 0.950 . S
C10381 C10378 1.387 . S
C10382 C10383 1.387 . S
C10382 H10386 0.950 . S
C10382 C10391 1.390 . S
C10383 C10382 1.387 . S
C10383 C10385 1.387 . S
H10384 C10391 0.950 . S
C10385 C10383 1.387 . S
C10385 C10387 1.390 . S
C10385 H10389 0.950 . S
H10386 C10382 0.950 . S
C10387 C10385 1.390 . S
C10387 C10388 1.387 . S
C10387 H10390 0.950 . S
C10388 C10387 1.387 . S
C10388 C10391 1.387 . S
H10389 C10385 0.950 . S
H10390 C10387 0.950 . S
C10391 C10382 1.390 . S
C10391 H10384 0.950 . S
C10391 C10388 1.387 . S
C10392 C10393 1.387 1_556 S
C10392 H10396 0.950 . S
C10392 C10401 1.390 . S
C10393 C10392 1.387 1_554 S
C10393 C10395 1.387 . S
H10394 C10401 0.950 . S
C10395 C10393 1.387 . S
C10395 C10397 1.390 . S
C10395 H10399 0.950 . S
H10396 C10392 0.950 . S
C10397 C10395 1.390 . S
C10397 C10398 1.387 1_554 S
C10397 H10400 0.950 . S
C10398 C10397 1.387 1_556 S
C10398 C10401 1.387 . S
H10399 C10395 0.950 . S
H10400 C10397 0.950 . S
C10401 C10392 1.390 . S
C10401 H10394 0.950 . S
C10401 C10398 1.387 . S
C10402 C10403 1.387 . S
C10402 H10406 0.950 . S
C10402 C10411 1.390 . S
C10403 C10402 1.387 . S
C10403 C10405 1.387 . S
H10404 C10411 0.950 . S
C10405 C10403 1.387 . S
C10405 C10407 1.390 . S
C10405 H10409 0.950 . S
H10406 C10402 0.950 . S
C10407 C10405 1.390 . S
C10407 C10408 1.387 . S
C10407 H10410 0.950 . S
C10408 C10407 1.387 . S
C10408 C10411 1.387 . S
H10409 C10405 0.950 . S
H10410 C10407 0.950 . S
C10411 C10402 1.390 . S
C10411 H10404 0.950 . S
C10411 C10408 1.387 . S
C10412 C10413 1.387 . S
C10412 H10416 0.950 . S
C10412 C10421 1.390 . S
C10413 C10412 1.387 . S
C10413 C10415 1.387 . S
H10414 C10421 0.950 . S
C10415 C10413 1.387 . S
C10415 C10417 1.390 . S
C10415 H10419 0.950 . S
H10416 C10412 0.950 . S
C10417 C10415 1.390 . S
C10417 C10418 1.387 . S
C10417 H10420 0.950 . S
C10418 C10417 1.387 . S
C10418 C10421 1.387 . S
H10419 C10415 0.950 . S
H10420 C10417 0.950 . S
C10421 C10412 1.390 . S
C10421 H10414 0.950 . S
C10421 C10418 1.387 . S
C10422 C10423 1.387 . S
C10422 H10426 0.950 . S
C10422 C10431 1.390 . S
C10423 C10422 1.387 . S
C10423 C10425 1.387 . S
H10424 C10431 0.950 . S
C10425 C10423 1.387 . S
C10425 C10427 1.390 . S
C10425 H10429 0.950 . S
H10426 C10422 0.950 . S
C10427 C10425 1.390 . S
C10427 C10428 1.387 . S
C10427 H10430 0.950 . S
C10428 C10427 1.387 . S
C10428 C10431 1.387 . S
H10429 C10425 0.950 . S
H10430 C10427 0.950 . S
C10431 C10422 1.390 . S
C10431 H10424 0.950 . S
C10431 C10428 1.387 . S
C10432 C10433 1.387 . S
C10432 H10436 0.950 . S
C10432 C10441 1.390 . S
C10433 C10432 1.387 . S
C10433 C10435 1.387 . S
H10434 C10441 0.950 . S
C10435 C10433 1.387 . S
C10435 C10437 1.390 . S
C10435 H10439 0.950 . S
H10436 C10432 0.950 . S
C10437 C10435 1.390 . S
C10437 C10438 1.387 . S
C10437 H10440 0.950 . S
C10438 C10437 1.387 . S
C10438 C10441 1.387 . S
H10439 C10435 0.950 . S
H10440 C10437 0.950 . S
C10441 C10432 1.390 . S
C10441 H10434 0.950 . S
C10441 C10438 1.387 . S
C10442 C10443 1.387 . S
C10442 H10446 0.950 . S
C10442 C10451 1.390 . S
C10443 C10442 1.387 . S
C10443 C10445 1.387 . S
H10444 C10451 0.950 . S
C10445 C10443 1.387 . S
C10445 C10447 1.390 . S
C10445 H10449 0.950 . S
H10446 C10442 0.950 . S
C10447 C10445 1.390 . S
C10447 C10448 1.387 . S
C10447 H10450 0.950 . S
C10448 C10447 1.387 . S
C10448 C10451 1.387 . S
H10449 C10445 0.950 . S
H10450 C10447 0.950 . S
C10451 C10442 1.390 . S
C10451 H10444 0.950 . S
C10451 C10448 1.387 . S
C10452 C10453 1.387 . S
C10452 H10456 0.950 . S
C10452 C10461 1.390 . S
C10453 C10452 1.387 . S
C10453 C10455 1.387 . S
H10454 C10461 0.950 . S
C10455 C10453 1.387 . S
C10455 C10457 1.390 . S
C10455 H10459 0.950 . S
H10456 C10452 0.950 . S
C10457 C10455 1.390 . S
C10457 C10458 1.387 . S
C10457 H10460 0.950 . S
C10458 C10457 1.387 . S
C10458 C10461 1.387 . S
H10459 C10455 0.950 . S
H10460 C10457 0.950 . S
C10461 C10452 1.390 . S
C10461 H10454 0.950 . S
C10461 C10458 1.387 . S
C10462 C10463 1.387 . S
C10462 H10466 0.950 . S
C10462 C10471 1.390 . S
C10463 C10462 1.387 . S
C10463 C10465 1.387 . S
H10464 C10471 0.950 . S
C10465 C10463 1.387 . S
C10465 C10467 1.390 . S
C10465 H10469 0.950 . S
H10466 C10462 0.950 . S
C10467 C10465 1.390 . S
C10467 C10468 1.387 . S
C10467 H10470 0.950 . S
C10468 C10467 1.387 . S
C10468 C10471 1.387 . S
H10469 C10465 0.950 . S
H10470 C10467 0.950 . S
C10471 C10462 1.390 . S
C10471 H10464 0.950 . S
C10471 C10468 1.387 . S
C10472 C10473 1.387 . S
C10472 H10476 0.950 . S
C10472 C10481 1.390 . S
C10473 C10472 1.387 . S
C10473 C10475 1.387 . S
H10474 C10481 0.950 . S
C10475 C10473 1.387 . S
C10475 C10477 1.390 . S
C10475 H10479 0.950 . S
H10476 C10472 0.950 . S
C10477 C10475 1.390 . S
C10477 C10478 1.387 . S
C10477 H10480 0.950 . S
C10478 C10477 1.387 . S
C10478 C10481 1.387 . S
H10479 C10475 0.950 . S
H10480 C10477 0.950 . S
C10481 C10472 1.390 . S
C10481 H10474 0.950 . S
C10481 C10478 1.387 . S
C10482 C10483 1.387 . S
C10482 H10486 0.950 . S
C10482 C10491 1.390 . S
C10483 C10482 1.387 . S
C10483 C10485 1.387 . S
H10484 C10491 0.950 . S
C10485 C10483 1.387 . S
C10485 C10487 1.390 . S
C10485 H10489 0.950 . S
H10486 C10482 0.950 . S
C10487 C10485 1.390 . S
C10487 C10488 1.387 . S
C10487 H10490 0.950 . S
C10488 C10487 1.387 . S
C10488 C10491 1.387 . S
H10489 C10485 0.950 . S
H10490 C10487 0.950 . S
C10491 C10482 1.390 . S
C10491 H10484 0.950 . S
C10491 C10488 1.387 . S
C10492 C10493 1.387 . S
C10492 H10496 0.950 . S
C10492 C10501 1.390 . S
C10493 C10492 1.387 . S
C10493 C10495 1.387 . S
H10494 C10501 0.950 . S
C10495 C10493 1.387 . S
C10495 C10497 1.390 . S
C10495 H10499 0.950 . S
H10496 C10492 0.950 . S
C10497 C10495 1.390 . S
C10497 C10498 1.387 . S
C10497 H10500 0.950 . S
C10498 C10497 1.387 . S
C10498 C10501 1.387 . S
H10499 C10495 0.950 . S
H10500 C10497 0.950 . S
C10501 C10492 1.390 . S
C10501 H10494 0.950 . S
C10501 C10498 1.387 . S
C10502 C10503 1.387 . S
C10502 H10506 0.950 . S
C10502 C10511 1.390 . S
C10503 C10502 1.387 . S
C10503 C10505 1.387 . S
H10504 C10511 0.950 . S
C10505 C10503 1.387 . S
C10505 C10507 1.390 . S
C10505 H10509 0.950 . S
H10506 C10502 0.950 . S
C10507 C10505 1.390 . S
C10507 C10508 1.387 . S
C10507 H10510 0.950 . S
C10508 C10507 1.387 . S
C10508 C10511 1.387 . S
H10509 C10505 0.950 . S
H10510 C10507 0.950 . S
C10511 C10502 1.390 . S
C10511 H10504 0.950 . S
C10511 C10508 1.387 . S
C10512 C10513 1.387 . S
C10512 H10516 0.950 . S
C10512 C10521 1.390 . S
C10513 C10512 1.387 . S
C10513 C10515 1.387 . S
H10514 C10521 0.950 . S
C10515 C10513 1.387 . S
C10515 C10517 1.390 . S
C10515 H10519 0.950 . S
H10516 C10512 0.950 . S
C10517 C10515 1.390 . S
C10517 C10518 1.387 . S
C10517 H10520 0.950 . S
C10518 C10517 1.387 . S
C10518 C10521 1.387 . S
H10519 C10515 0.950 . S
H10520 C10517 0.950 . S
C10521 C10512 1.390 . S
C10521 H10514 0.950 . S
C10521 C10518 1.387 . S
C10522 C10523 1.387 . S
C10522 H10526 0.950 . S
C10522 C10531 1.390 . S
C10523 C10522 1.387 . S
C10523 C10525 1.387 . S
H10524 C10531 0.950 . S
C10525 C10523 1.387 . S
C10525 C10527 1.390 . S
C10525 H10529 0.950 . S
H10526 C10522 0.950 . S
C10527 C10525 1.390 . S
C10527 C10528 1.387 . S
C10527 H10530 0.950 . S
C10528 C10527 1.387 . S
C10528 C10531 1.387 . S
H10529 C10525 0.950 . S
H10530 C10527 0.950 . S
C10531 C10522 1.390 . S
C10531 H10524 0.950 . S
C10531 C10528 1.387 . S
C10532 C10533 1.387 1_556 S
C10532 H10536 0.950 . S
C10532 C10541 1.390 . S
C10533 C10532 1.387 1_554 S
C10533 C10535 1.387 . S
H10534 C10541 0.950 . S
C10535 C10533 1.387 . S
C10535 C10537 1.390 . S
C10535 H10539 0.950 . S
H10536 C10532 0.950 . S
C10537 C10535 1.390 . S
C10537 C10538 1.387 1_554 S
C10537 H10540 0.950 . S
C10538 C10537 1.387 1_556 S
C10538 C10541 1.387 . S
H10539 C10535 0.950 . S
H10540 C10537 0.950 . S
C10541 C10532 1.390 . S
C10541 H10534 0.950 . S
C10541 C10538 1.387 . S
C10542 C10543 1.387 . S
C10542 H10546 0.950 . S
C10542 C10551 1.390 . S
C10543 C10542 1.387 . S
C10543 C10545 1.387 . S
H10544 C10551 0.950 . S
C10545 C10543 1.387 . S
C10545 C10547 1.390 . S
C10545 H10549 0.950 . S
H10546 C10542 0.950 . S
C10547 C10545 1.390 . S
C10547 C10548 1.387 . S
C10547 H10550 0.950 . S
C10548 C10547 1.387 . S
C10548 C10551 1.387 . S
H10549 C10545 0.950 . S
H10550 C10547 0.950 . S
C10551 C10542 1.390 . S
C10551 H10544 0.950 . S
C10551 C10548 1.387 . S
C10552 C10553 1.387 1_556 S
C10552 H10556 0.950 . S
C10552 C10561 1.390 . S
C10553 C10552 1.387 1_554 S
C10553 C10555 1.387 . S
H10554 C10561 0.950 . S
C10555 C10553 1.387 . S
C10555 C10557 1.390 . S
C10555 H10559 0.950 . S
H10556 C10552 0.950 . S
C10557 C10555 1.390 . S
C10557 C10558 1.387 1_554 S
C10557 H10560 0.950 . S
C10558 C10557 1.387 1_556 S
C10558 C10561 1.387 . S
H10559 C10555 0.950 . S
H10560 C10557 0.950 . S
C10561 C10552 1.390 . S
C10561 H10554 0.950 . S
C10561 C10558 1.387 . S
C10562 C10563 1.387 . S
C10562 H10566 0.950 . S
C10562 C10571 1.390 . S
C10563 C10562 1.387 . S
C10563 C10565 1.387 . S
H10564 C10571 0.950 . S
C10565 C10563 1.387 . S
C10565 C10567 1.390 . S
C10565 H10569 0.950 . S
H10566 C10562 0.950 . S
C10567 C10565 1.390 . S
C10567 C10568 1.387 . S
C10567 H10570 0.950 . S
C10568 C10567 1.387 . S
C10568 C10571 1.387 . S
H10569 C10565 0.950 . S
H10570 C10567 0.950 . S
C10571 C10562 1.390 . S
C10571 H10564 0.950 . S
C10571 C10568 1.387 . S
C10572 C10573 1.387 . S
C10572 H10576 0.950 . S
C10572 C10581 1.390 . S
C10573 C10572 1.387 . S
C10573 C10575 1.387 . S
H10574 C10581 0.950 . S
C10575 C10573 1.387 . S
C10575 C10577 1.390 . S
C10575 H10579 0.950 . S
H10576 C10572 0.950 . S
C10577 C10575 1.390 . S
C10577 C10578 1.387 . S
C10577 H10580 0.950 . S
C10578 C10577 1.387 . S
C10578 C10581 1.387 . S
H10579 C10575 0.950 . S
H10580 C10577 0.950 . S
C10581 C10572 1.390 . S
C10581 H10574 0.950 . S
C10581 C10578 1.387 . S
C10582 C10583 1.387 . S
C10582 H10586 0.950 . S
C10582 C10591 1.390 . S
C10583 C10582 1.387 . S
C10583 C10585 1.387 . S
H10584 C10591 0.950 . S
C10585 C10583 1.387 . S
C10585 C10587 1.390 . S
C10585 H10589 0.950 . S
H10586 C10582 0.950 . S
C10587 C10585 1.390 . S
C10587 C10588 1.387 . S
C10587 H10590 0.950 . S
C10588 C10587 1.387 . S
C10588 C10591 1.387 . S
H10589 C10585 0.950 . S
H10590 C10587 0.950 . S
C10591 C10582 1.390 . S
C10591 H10584 0.950 . S
C10591 C10588 1.387 . S
C10592 C10593 1.387 . S
C10592 H10596 0.950 . S
C10592 C10601 1.390 . S
C10593 C10592 1.387 . S
C10593 C10595 1.387 . S
H10594 C10601 0.950 . S
C10595 C10593 1.387 . S
C10595 C10597 1.390 . S
C10595 H10599 0.950 . S
H10596 C10592 0.950 . S
C10597 C10595 1.390 . S
C10597 C10598 1.387 . S
C10597 H10600 0.950 . S
C10598 C10597 1.387 . S
C10598 C10601 1.387 . S
H10599 C10595 0.950 . S
H10600 C10597 0.950 . S
C10601 C10592 1.390 . S
C10601 H10594 0.950 . S
C10601 C10598 1.387 . S
C10602 C10603 1.387 . S
C10602 H10606 0.950 . S
C10602 C10611 1.390 . S
C10603 C10602 1.387 . S
C10603 C10605 1.387 . S
H10604 C10611 0.950 . S
C10605 C10603 1.387 . S
C10605 C10607 1.390 . S
C10605 H10609 0.950 . S
H10606 C10602 0.950 . S
C10607 C10605 1.390 . S
C10607 C10608 1.387 . S
C10607 H10610 0.950 . S
C10608 C10607 1.387 . S
C10608 C10611 1.387 . S
H10609 C10605 0.950 . S
H10610 C10607 0.950 . S
C10611 C10602 1.390 . S
C10611 H10604 0.950 . S
C10611 C10608 1.387 . S
C10612 C10613 1.387 . S
C10612 H10616 0.950 . S
C10612 C10621 1.390 . S
C10613 C10612 1.387 . S
C10613 C10615 1.387 . S
H10614 C10621 0.950 . S
C10615 C10613 1.387 . S
C10615 C10617 1.390 . S
C10615 H10619 0.950 . S
H10616 C10612 0.950 . S
C10617 C10615 1.390 . S
C10617 C10618 1.387 . S
C10617 H10620 0.950 . S
C10618 C10617 1.387 . S
C10618 C10621 1.387 . S
H10619 C10615 0.950 . S
H10620 C10617 0.950 . S
C10621 C10612 1.390 . S
C10621 H10614 0.950 . S
C10621 C10618 1.387 . S
C10622 C10623 1.387 . S
C10622 H10626 0.950 . S
C10622 C10631 1.390 . S
C10623 C10622 1.387 . S
C10623 C10625 1.387 . S
H10624 C10631 0.950 . S
C10625 C10623 1.387 . S
C10625 C10627 1.390 . S
C10625 H10629 0.950 . S
H10626 C10622 0.950 . S
C10627 C10625 1.390 . S
C10627 C10628 1.387 . S
C10627 H10630 0.950 . S
C10628 C10627 1.387 . S
C10628 C10631 1.387 . S
H10629 C10625 0.950 . S
H10630 C10627 0.950 . S
C10631 C10622 1.390 . S
C10631 H10624 0.950 . S
C10631 C10628 1.387 . S
C10632 C10633 1.387 . S
C10632 H10636 0.950 . S
C10632 C10641 1.390 . S
C10633 C10632 1.387 . S
C10633 C10635 1.387 . S
H10634 C10641 0.950 . S
C10635 C10633 1.387 . S
C10635 C10637 1.390 . S
C10635 H10639 0.950 . S
H10636 C10632 0.950 . S
C10637 C10635 1.390 . S
C10637 C10638 1.387 . S
C10637 H10640 0.950 . S
C10638 C10637 1.387 . S
C10638 C10641 1.387 . S
H10639 C10635 0.950 . S
H10640 C10637 0.950 . S
C10641 C10632 1.390 . S
C10641 H10634 0.950 . S
C10641 C10638 1.387 . S
C10642 C10643 1.387 . S
C10642 H10646 0.950 . S
C10642 C10651 1.390 . S
C10643 C10642 1.387 . S
C10643 C10645 1.387 . S
H10644 C10651 0.950 . S
C10645 C10643 1.387 . S
C10645 C10647 1.390 . S
C10645 H10649 0.950 . S
H10646 C10642 0.950 . S
C10647 C10645 1.390 . S
C10647 C10648 1.387 . S
C10647 H10650 0.950 . S
C10648 C10647 1.387 . S
C10648 C10651 1.387 . S
H10649 C10645 0.950 . S
H10650 C10647 0.950 . S
C10651 C10642 1.390 . S
C10651 H10644 0.950 . S
C10651 C10648 1.387 . S
C10652 C10653 1.387 . S
C10652 H10656 0.950 . S
C10652 C10661 1.390 . S
C10653 C10652 1.387 . S
C10653 C10655 1.387 . S
H10654 C10661 0.950 . S
C10655 C10653 1.387 . S
C10655 C10657 1.390 . S
C10655 H10659 0.950 . S
H10656 C10652 0.950 . S
C10657 C10655 1.390 . S
C10657 C10658 1.387 . S
C10657 H10660 0.950 . S
C10658 C10657 1.387 . S
C10658 C10661 1.387 . S
H10659 C10655 0.950 . S
H10660 C10657 0.950 . S
C10661 C10652 1.390 . S
C10661 H10654 0.950 . S
C10661 C10658 1.387 . S
C10662 C10663 1.387 . S
C10662 H10666 0.950 . S
C10662 C10671 1.390 . S
C10663 C10662 1.387 . S
C10663 C10665 1.387 . S
H10664 C10671 0.950 . S
C10665 C10663 1.387 . S
C10665 C10667 1.390 . S
C10665 H10669 0.950 . S
H10666 C10662 0.950 . S
C10667 C10665 1.390 . S
C10667 C10668 1.387 . S
C10667 H10670 0.950 . S
C10668 C10667 1.387 . S
C10668 C10671 1.387 . S
H10669 C10665 0.950 . S
H10670 C10667 0.950 . S
C10671 C10662 1.390 . S
C10671 H10664 0.950 . S
C10671 C10668 1.387 . S
C10672 C10673 1.387 . S
C10672 H10676 0.950 . S
C10672 C10681 1.390 . S
C10673 C10672 1.387 . S
C10673 C10675 1.387 . S
H10674 C10681 0.950 . S
C10675 C10673 1.387 . S
C10675 C10677 1.390 . S
C10675 H10679 0.950 . S
H10676 C10672 0.950 . S
C10677 C10675 1.390 . S
C10677 C10678 1.387 . S
C10677 H10680 0.950 . S
C10678 C10677 1.387 . S
C10678 C10681 1.387 . S
H10679 C10675 0.950 . S
H10680 C10677 0.950 . S
C10681 C10672 1.390 . S
C10681 H10674 0.950 . S
C10681 C10678 1.387 . S
C10682 C10683 1.387 . S
C10682 H10686 0.950 . S
C10682 C10691 1.390 . S
C10683 C10682 1.387 . S
C10683 C10685 1.387 . S
H10684 C10691 0.950 . S
C10685 C10683 1.387 . S
C10685 C10687 1.390 . S
C10685 H10689 0.950 . S
H10686 C10682 0.950 . S
C10687 C10685 1.390 . S
C10687 C10688 1.387 . S
C10687 H10690 0.950 . S
C10688 C10687 1.387 . S
C10688 C10691 1.387 . S
H10689 C10685 0.950 . S
H10690 C10687 0.950 . S
C10691 C10682 1.390 . S
C10691 H10684 0.950 . S
C10691 C10688 1.387 . S
C10692 C10693 1.387 . S
C10692 H10696 0.950 . S
C10692 C10701 1.390 . S
C10693 C10692 1.387 . S
C10693 C10695 1.387 . S
H10694 C10701 0.950 . S
C10695 C10693 1.387 . S
C10695 C10697 1.390 . S
C10695 H10699 0.950 . S
H10696 C10692 0.950 . S
C10697 C10695 1.390 . S
C10697 C10698 1.387 . S
C10697 H10700 0.950 . S
C10698 C10697 1.387 . S
C10698 C10701 1.387 . S
H10699 C10695 0.950 . S
H10700 C10697 0.950 . S
C10701 C10692 1.390 . S
C10701 H10694 0.950 . S
C10701 C10698 1.387 . S
C10702 C10703 1.387 . S
C10702 H10706 0.950 . S
C10702 C10711 1.390 . S
C10703 C10702 1.387 . S
C10703 C10705 1.387 . S
H10704 C10711 0.950 . S
C10705 C10703 1.387 . S
C10705 C10707 1.390 . S
C10705 H10709 0.950 . S
H10706 C10702 0.950 . S
C10707 C10705 1.390 . S
C10707 C10708 1.387 . S
C10707 H10710 0.950 . S
C10708 C10707 1.387 . S
C10708 C10711 1.387 . S
H10709 C10705 0.950 . S
H10710 C10707 0.950 . S
C10711 C10702 1.390 . S
C10711 H10704 0.950 . S
C10711 C10708 1.387 . S
C10712 C10713 1.387 . S
C10712 H10716 0.950 . S
C10712 C10721 1.390 . S
C10713 C10712 1.387 . S
C10713 C10715 1.387 . S
H10714 C10721 0.950 . S
C10715 C10713 1.387 . S
C10715 C10717 1.390 . S
C10715 H10719 0.950 . S
H10716 C10712 0.950 . S
C10717 C10715 1.390 . S
C10717 C10718 1.387 . S
C10717 H10720 0.950 . S
C10718 C10717 1.387 . S
C10718 C10721 1.387 . S
H10719 C10715 0.950 . S
H10720 C10717 0.950 . S
C10721 C10712 1.390 . S
C10721 H10714 0.950 . S
C10721 C10718 1.387 . S
C10722 C10723 1.387 . S
C10722 H10726 0.950 . S
C10722 C10731 1.390 . S
C10723 C10722 1.387 . S
C10723 C10725 1.387 . S
H10724 C10731 0.950 . S
C10725 C10723 1.387 . S
C10725 C10727 1.390 . S
C10725 H10729 0.950 . S
H10726 C10722 0.950 . S
C10727 C10725 1.390 . S
C10727 C10728 1.387 . S
C10727 H10730 0.950 . S
C10728 C10727 1.387 . S
C10728 C10731 1.387 . S
H10729 C10725 0.950 . S
H10730 C10727 0.950 . S
C10731 C10722 1.390 . S
C10731 H10724 0.950 . S
C10731 C10728 1.387 . S
C10732 C10733 1.387 . S
C10732 H10736 0.950 . S
C10732 C10741 1.390 . S
C10733 C10732 1.387 . S
C10733 C10735 1.387 . S
H10734 C10741 0.950 . S
C10735 C10733 1.387 . S
C10735 C10737 1.390 . S
C10735 H10739 0.950 . S
H10736 C10732 0.950 . S
C10737 C10735 1.390 . S
C10737 C10738 1.387 . S
C10737 H10740 0.950 . S
C10738 C10737 1.387 . S
C10738 C10741 1.387 . S
H10739 C10735 0.950 . S
H10740 C10737 0.950 . S
C10741 C10732 1.390 . S
C10741 H10734 0.950 . S
C10741 C10738 1.387 . S
C10742 C10743 1.387 . S
C10742 H10746 0.950 . S
C10742 C10751 1.390 . S
C10743 C10742 1.387 . S
C10743 C10745 1.387 . S
H10744 C10751 0.950 . S
C10745 C10743 1.387 . S
C10745 C10747 1.390 . S
C10745 H10749 0.950 . S
H10746 C10742 0.950 . S
C10747 C10745 1.390 . S
C10747 C10748 1.387 . S
C10747 H10750 0.950 . S
C10748 C10747 1.387 . S
C10748 C10751 1.387 . S
H10749 C10745 0.950 . S
H10750 C10747 0.950 . S
C10751 C10742 1.390 . S
C10751 H10744 0.950 . S
C10751 C10748 1.387 . S
C6913 C2775 1.284 . S
C6918 C3 1.283 . S
C6923 C6267 1.283 . S
C6928 C39 1.284 . S
C6933 C4575 1.284 . S
C6938 C75 1.283 . S
C6943 C1011 1.284 . S
C6948 C111 1.283 . S
C6953 C147 1.284 . S
C6958 C975 1.283 . S
C6963 C2595 1.283 . S
C6968 C183 1.284 . S
C6973 C6087 1.283 . S
C6978 C219 1.284 . S
C6983 C4395 1.283 . S
C6988 C255 1.284 . S
C6993 C6879 1.284 . S
C6998 C291 1.283 . S
C7003 C3351 1.284 . S
C7008 C327 1.283 . S
C7013 C363 1.284 . S
C7018 C1659 1.283 . S
C7023 C1443 1.283 . S
C7028 C399 1.284 . S
C7033 C3315 1.284 . S
C7038 C435 1.283 . S
C7043 C471 1.284 . S
C7048 C4935 1.283 . S
C7053 C1515 1.283 . S
C7058 C507 1.284 . S
C7063 C543 1.284 . S
C7068 C3279 1.283 . S
C7073 C1263 1.283 . S
C7078 C579 1.284 . S
C7083 C615 1.283 . S
C7088 C4791 1.284 . S
C7093 C651 1.284 . S
C7098 C1371 1.283 . S
C7103 C3135 1.284 . S
C7108 C687 1.283 . S
C7113 C723 1.284 . S
C7118 C3027 1.283 . S
C7123 C2919 1.283 . S
C7128 C759 1.284 . S
C7133 C795 1.283 . S
C7138 C1227 1.284 . S
C7143 C6339 1.284 . S
C7148 C831 1.283 . S
C7153 C867 1.283 . S
C7158 C1911 1.284 . S
C7163 C903 1.283 . S
C7168 C5403 1.284 . S
C7173 C3711 1.283 . S
C7178 C939 1.284 . S
C7183 C1047 1.283 . S
C7188 C1731 1.284 . S
C7193 C1083 1.283 . S
C7198 C5223 1.284 . S
C7203 C3531 1.284 . S
C7208 C1119 1.283 . S
C7213 C1155 1.284 . S
C7218 C6015 1.283 . S
C7223 C2487 1.284 . S
C7228 C1191 1.283 . S
C7233 C2451 1.284 . S
C7238 C1299 1.283 . S
C7243 C1335 1.283 . S
C7248 C4071 1.284 . S
C7253 C2415 1.284 . S
C7258 C1407 1.283 . S
C7263 C3927 1.283 . S
C7268 C1479 1.284 . S
C7273 C2271 1.284 . S
C7278 C1551 1.283 . S
C7283 C1587 1.284 . S
C7288 C2163 1.283 . S
C7293 C1623 1.284 . S
C7298 C2055 1.283 . S
C7303 C5475 1.284 . S
C7308 C1695 1.283 . S
C7313 C4539 1.283 . S
C7318 C1767 1.284 . S
C7323 C6303 1.283 . S
C7328 C1803 1.284 . S
C7333 C2739 1.284 . S
C7338 C1839 1.283 . S
C7343 C2703 1.284 . S
C7348 C1875 1.283 . S
C7353 C4359 1.283 . S
C7358 C1947 1.284 . S
C7363 C6123 1.283 . S
C7368 C1983 1.284 . S
C7373 C2019 1.283 . S
C7378 C5151 1.284 . S
C7383 C3387 1.283 . S
C7388 C2091 1.284 . S
C7393 C3171 1.283 . S
C7398 C2127 1.284 . S
C7403 C2199 1.284 . S
C7408 C6663 1.283 . S
C7413 C2235 1.284 . S
C7418 C3243 1.283 . S
C7423 C2991 1.284 . S
C7428 C2307 1.283 . S
C7433 C2343 1.284 . S
C7438 C6519 1.283 . S
C7443 C2379 1.283 . S
C7448 C3099 1.284 . S
C7453 C2523 1.283 . S
C7458 C2955 1.284 . S
C7463 C4611 1.283 . S
C7468 C2559 1.284 . S
C7473 C3675 1.283 . S
C7478 C2631 1.284 . S
C7483 C2667 1.283 . S
C7488 C5439 1.284 . S
C7493 C2811 1.284 . S
C7498 C3495 1.283 . S
C7503 C2847 1.284 . S
C7508 C5259 1.283 . S
C7513 C4287 1.284 . S
C7518 C2883 1.283 . S
C7523 C3063 1.283 . S
C7528 C5799 1.284 . S
C7533 C5655 1.283 . S
C7538 C3207 1.284 . S
C7543 C3747 1.284 . S
C7548 C3423 1.283 . S
C7553 C3459 1.284 . S
C7558 C6231 1.283 . S
C7563 C4467 1.283 . S
C7568 C3567 1.284 . S
C7573 C4431 1.284 . S
C7578 C3603 1.283 . S
C7583 C3639 1.283 . S
C7588 C6051 1.284 . S
C7593 C3783 1.283 . S
C7598 C6807 1.284 . S
C7603 C3819 1.283 . S
C7608 C5115 1.284 . S
C7613 C4899 1.284 . S
C7618 C3855 1.283 . S
C7623 C6771 1.283 . S
C7628 C3891 1.284 . S
C7633 C4971 1.283 . S
C7638 C3963 1.284 . S
C7643 C6735 1.283 . S
C7648 C3999 1.284 . S
C7653 C4719 1.283 . S
C7658 C4035 1.284 . S
C7663 C4107 1.283 . S
C7668 C4827 1.284 . S
C7673 C6591 1.283 . S
C7678 C4143 1.284 . S
C7683 C6483 1.283 . S
C7688 C4179 1.284 . S
C7693 C4215 1.284 . S
C7698 C6375 1.283 . S
C7703 C4251 1.283 . S
C7708 C4683 1.284 . S
C7713 C4323 1.284 . S
C7718 C5367 1.283 . S
C7723 C5187 1.283 . S
C7728 C4503 1.284 . S
C7733 C5943 1.284 . S
C7738 C4647 1.283 . S
C7743 C5907 1.284 . S
C7748 C4755 1.283 . S
C7753 C5871 1.284 . S
C7758 C4863 1.283 . S
C7763 C5727 1.283 . S
C7768 C5007 1.284 . S
C7773 C5043 1.284 . S
C7778 C5619 1.283 . S
C7783 C5511 1.283 . S
C7788 C5079 1.284 . S
C7793 C6195 1.284 . S
C7798 C5295 1.283 . S
C7803 C6159 1.284 . S
C7808 C5331 1.283 . S
C7813 C5547 1.283 . S
C7818 C6843 1.284 . S
C7823 C5583 1.283 . S
C7828 C6627 1.284 . S
C7833 C6699 1.284 . S
C7838 C5691 1.283 . S
C7843 C5763 1.284 . S
C7848 C6447 1.283 . S
C7853 C6555 1.283 . S
C7858 C5835 1.284 . S
C7863 C6411 1.283 . S
C7868 C5979 1.284 . S
C7873 C1118 1.548 . S
C7878 C2 1.548 . S
C7883 C38 1.548 . S
C7888 C2738 1.548 . S
C7893 C6230 1.548 . S
C7898 C74 1.548 . S
C7903 C4538 1.548 . S
C7908 C110 1.548 . S
C7913 C146 1.548 . S
C7918 C2630 1.548 . S
C7923 C6122 1.548 . S
C7928 C182 1.548 . S
C7933 C218 1.548 . S
C7938 C4430 1.548 . S
C7943 C254 1.548 . S
C7948 C866 1.548 . S
C7953 C290 1.548 . S
C7958 C3314 1.548 . S
C7963 C326 1.548 . S
C7968 C4934 1.548 . S
C7973 C362 1.548 . S
C7978 C1514 1.548 . S
C7983 C3278 1.548 . S
C7988 C398 1.548 . S
C7993 C434 1.548 . S
C7998 C6878 1.548 . S
C8003 C3350 1.548 . S
C8008 C470 1.548 . S
C8013 C506 1.548 . S
C8018 C1658 1.548 . S
C8023 C1442 1.548 . S
C8028 C542 1.548 . S
C8033 C578 1.548 . S
C8038 C1406 1.548 . S
C8043 C614 1.548 . S
C8048 C4646 1.548 . S
C8053 C1226 1.548 . S
C8058 C650 1.548 . S
C8063 C2990 1.548 . S
C8068 C686 1.548 . S
C8073 C722 1.548 . S
C8078 C2882 1.548 . S
C8083 C758 1.548 . S
C8088 C3062 1.548 . S
C8093 C794 1.548 . S
C8098 C1370 1.548 . S
C8103 C6482 1.548 . S
C8108 C830 1.548 . S
C8113 C1874 1.548 . S
C8118 C902 1.548 . S
C8123 C938 1.548 . S
C8128 C5366 1.548 . S
C8133 C3674 1.548 . S
C8138 C974 1.548 . S
C8143 C1010 1.548 . S
C8148 C1766 1.548 . S
C8153 C5258 1.548 . S
C8158 C1046 1.548 . S
C8163 C1082 1.548 . S
C8168 C3566 1.548 . S
C8173 C1154 1.548 . S
C8178 C2450 1.548 . S
C8183 C1190 1.548 . S
C8188 C4070 1.548 . S
C8193 C1262 1.548 . S
C8198 C2414 1.548 . S
C8203 C6014 1.548 . S
C8208 C1298 1.548 . S
C8213 C1334 1.548 . S
C8218 C2486 1.548 . S
C8223 C3782 1.548 . S
C8228 C1478 1.548 . S
C8233 C2126 1.548 . S
C8238 C1550 1.548 . S
C8243 C1586 1.548 . S
C8248 C2018 1.548 . S
C8253 C2198 1.548 . S
C8258 C1622 1.548 . S
C8263 C1694 1.548 . S
C8268 C5618 1.548 . S
C8273 C1730 1.548 . S
C8278 C2846 1.548 . S
C8283 C1802 1.548 . S
C8288 C4502 1.548 . S
C8293 C6266 1.548 . S
C8298 C1838 1.548 . S
C8303 C1910 1.548 . S
C8308 C4394 1.548 . S
C8313 C6158 1.548 . S
C8318 C1946 1.548 . S
C8323 C1982 1.548 . S
C8328 C2594 1.548 . S
C8333 C6662 1.548 . S
C8338 C2054 1.548 . S
C8343 C2090 1.548 . S
C8348 C3242 1.548 . S
C8353 C5150 1.548 . S
C8358 C2162 1.548 . S
C8363 C3386 1.548 . S
C8368 C2234 1.548 . S
C8373 C2270 1.548 . S
C8378 C3170 1.548 . S
C8383 C2306 1.548 . S
C8388 C3134 1.548 . S
C8393 C6374 1.548 . S
C8398 C2342 1.548 . S
C8403 C2954 1.548 . S
C8408 C2378 1.548 . S
C8413 C3098 1.548 . S
C8418 C2522 1.548 . S
C8423 C2558 1.548 . S
C8428 C4754 1.548 . S
C8433 C2666 1.548 . S
C8438 C3638 1.548 . S
C8443 C2702 1.548 . S
C8448 C5402 1.548 . S
C8453 C3530 1.548 . S
C8458 C2774 1.548 . S
C8463 C2810 1.548 . S
C8468 C5294 1.548 . S
C8473 C5798 1.548 . S
C8478 C2918 1.548 . S
C8483 C4286 1.548 . S
C8488 C3026 1.548 . S
C8493 C5510 1.548 . S
C8498 C3206 1.548 . S
C8503 C3890 1.548 . S
C8508 C3422 1.548 . S
C8513 C3458 1.548 . S
C8518 C4574 1.548 . S
C8523 C3494 1.548 . S
C8528 C6194 1.548 . S
C8533 C6086 1.548 . S
C8538 C3602 1.548 . S
C8543 C4322 1.548 . S
C8548 C3710 1.548 . S
C8553 C3746 1.548 . S
C8558 C6770 1.548 . S
C8563 C3818 1.548 . S
C8568 C4970 1.548 . S
C8573 C6734 1.548 . S
C8578 C3854 1.548 . S
C8583 C6806 1.548 . S
C8588 C3926 1.548 . S
C8593 C3962 1.548 . S
C8598 C5114 1.548 . S
C8603 C3998 1.548 . S
C8608 C4898 1.548 . S
C8613 C4862 1.548 . S
C8618 C4034 1.548 . S
C8623 C4682 1.548 . S
C8628 C4106 1.548 . S
C8633 C4142 1.548 . S
C8638 C6446 1.548 . S
C8643 C4178 1.548 . S
C8648 C6338 1.548 . S
C8653 C6518 1.548 . S
C8658 C4214 1.548 . S
C8663 C4826 1.548 . S
C8668 C4250 1.548 . S
C8673 C5330 1.548 . S
C8678 C4358 1.548 . S
C8683 C4466 1.548 . S
C8688 C5222 1.548 . S
C8693 C4610 1.548 . S
C8698 C5906 1.548 . S
C8703 C4718 1.548 . S
C8708 C5870 1.548 . S
C8713 C4790 1.548 . S
C8718 C5942 1.548 . S
C8723 C5006 1.548 . S
C8728 C5582 1.548 . S
C8733 C5042 1.548 . S
C8738 C5474 1.548 . S
C8743 C5078 1.548 . S
C8748 C5654 1.548 . S
C8753 C6302 1.548 . S
C8758 C5186 1.548 . S
C8763 C6050 1.548 . S
C8768 C5438 1.548 . S
C8773 C5546 1.548 . S
C8778 C6698 1.548 . S
C8783 C5690 1.548 . S
C8788 C6842 1.548 . S
C8793 C6626 1.548 . S
C8798 C5726 1.548 . S
C8803 C6590 1.548 . S
C8808 C5762 1.548 . S
C8813 C6410 1.548 . S
C8818 C5834 1.548 . S
C8823 C6554 1.548 . S
C8828 C5978 1.548 . S
C8833 C6782 1.324 . S
C8838 C14 1.325 . S
C8843 C50 1.325 . S
C8848 C6674 1.324 . S
C8853 C86 1.325 . S
C8858 C4982 1.324 . S
C8863 C1562 1.324 . S
C8868 C122 1.325 . S
C8873 C158 1.325 . S
C8878 C3434 1.324 . S
C8883 C1634 1.324 . S
C8888 C194 1.325 . S
C8893 C5126 1.325 . S
C8898 C230 1.324 . S
C8903 C266 1.325 . S
C8908 C3182 1.324 . S
C8913 C302 1.324 . S
C8918 C6602 1.325 . S
C8923 C4766 1.325 . S
C8928 C338 1.324 . S
C8933 C374 1.324 . S
C8938 C1346 1.325 . S
C8943 C410 1.325 . S
C8948 C3110 1.324 . S
C8953 C4658 1.325 . S
C8958 C446 1.324 . S
C8963 C482 1.325 . S
C8968 C1238 1.324 . S
C8973 C3002 1.324 . S
C8978 C518 1.325 . S
C8983 C554 1.325 . S
C8988 C6350 1.324 . S
C8993 C590 1.325 . S
C8998 C2858 1.324 . S
C9003 C6098 1.325 . S
C9008 C626 1.324 . S
C9013 C4406 1.325 . S
C9018 C662 1.324 . S
C9023 C986 1.324 . S
C9028 C698 1.325 . S
C9033 C734 1.324 . S
C9038 C6062 1.325 . S
C9043 C770 1.324 . S
C9048 C1058 1.325 . S
C9053 C806 1.325 . S
C9058 C4550 1.324 . S
C9063 C2750 1.324 . S
C9068 C842 1.325 . S
C9073 C878 1.325 . S
C9078 C5918 1.324 . S
C9083 C914 1.324 . S
C9088 C5810 1.325 . S
C9093 C950 1.325 . S
C9098 C4118 1.324 . S
C9103 C1022 1.324 . S
C9108 C2570 1.325 . S
C9113 C4262 1.325 . S
C9118 C1094 1.324 . S
C9123 C1130 1.324 . S
C9128 C2318 1.325 . S
C9133 C5738 1.325 . S
C9138 C1166 1.324 . S
C9143 C3902 1.325 . S
C9148 C1202 1.324 . S
C9153 C1274 1.324 . S
C9158 C2246 1.325 . S
C9163 C3794 1.324 . S
C9168 C1310 1.325 . S
C9173 C1382 1.324 . S
C9178 C2138 1.325 . S
C9183 C5486 1.324 . S
C9188 C1418 1.325 . S
C9193 C1994 1.325 . S
C9198 C1454 1.324 . S
C9203 C1490 1.324 . S
C9208 C5234 1.325 . S
C9213 C3542 1.325 . S
C9218 C1526 1.324 . S
C9223 C5198 1.325 . S
C9228 C1598 1.324 . S
C9233 C3686 1.325 . S
C9238 C1670 1.324 . S
C9243 C1706 1.325 . S
C9248 C1886 1.324 . S
C9253 C5054 1.324 . S
C9258 C1742 1.325 . S
C9263 C4946 1.324 . S
C9268 C1778 1.325 . S
C9273 C1814 1.325 . S
C9278 C6710 1.324 . S
C9283 C1850 1.325 . S
C9288 C3290 1.324 . S
C9293 C3362 1.324 . S
C9298 C1922 1.325 . S
C9303 C1958 1.324 . S
C9308 C6854 1.325 . S
C9313 C2030 1.324 . S
C9318 C4874 1.325 . S
C9323 C2066 1.325 . S
C9328 C6494 1.324 . S
C9333 C3074 1.324 . S
C9338 C2102 1.325 . S
C9343 C2174 1.325 . S
C9348 C6386 1.324 . S
C9353 C2966 1.324 . S
C9358 C2210 1.325 . S
C9363 C4622 1.324 . S
C9368 C2282 1.325 . S
C9373 C4370 1.325 . S
C9378 C2354 1.324 . S
C9383 C6134 1.325 . S
C9388 C2390 1.324 . S
C9393 C2426 1.325 . S
C9398 C2714 1.324 . S
C9403 C2462 1.324 . S
C9408 C4334 1.325 . S
C9413 C2498 1.324 . S
C9418 C2786 1.325 . S
C9423 C6278 1.325 . S
C9428 C2534 1.324 . S
C9433 C2606 1.325 . S
C9438 C4190 1.324 . S
C9443 C4082 1.324 . S
C9448 C2642 1.325 . S
C9453 C2678 1.325 . S
C9458 C5846 1.324 . S
C9463 C2822 1.324 . S
C9468 C5990 1.325 . S
C9473 C4010 1.324 . S
C9478 C2894 1.325 . S
C9483 C2930 1.324 . S
C9488 C5630 1.325 . S
C9493 C3038 1.325 . S
C9498 C5522 1.324 . S
C9503 C3146 1.325 . S
C9508 C3758 1.324 . S
C9513 C3506 1.325 . S
C9518 C3218 1.324 . S
C9523 C5270 1.325 . S
C9528 C3254 1.324 . S
C9533 C3326 1.324 . S
C9538 C3470 1.325 . S
C9543 C3398 1.325 . S
C9548 C5414 1.324 . S
C9553 C5018 1.324 . S
C9558 C3578 1.325 . S
C9563 C6890 1.325 . S
C9568 C3614 1.324 . S
C9573 C5090 1.325 . S
C9578 C3650 1.324 . S
C9583 C6638 1.325 . S
C9588 C3722 1.324 . S
C9593 C4802 1.324 . S
C9598 C3830 1.325 . S
C9603 C3866 1.324 . S
C9608 C6566 1.325 . S
C9613 C4694 1.325 . S
C9618 C3938 1.324 . S
C9623 C3974 1.324 . S
C9628 C6458 1.325 . S
C9633 C4046 1.325 . S
C9638 C6314 1.324 . S
C9643 C4154 1.324 . S
C9648 C4442 1.325 . S
C9653 C4226 1.324 . S
C9658 C4514 1.325 . S
C9663 C4298 1.324 . S
C9668 C6206 1.325 . S
C9673 C4478 1.324 . S
C9678 C6026 1.325 . S
C9683 C4586 1.325 . S
C9688 C5774 1.324 . S
C9693 C4730 1.324 . S
C9698 C5702 1.325 . S
C9703 C4838 1.324 . S
C9708 C5594 1.325 . S
C9713 C5450 1.324 . S
C9718 C4910 1.325 . S
C9723 C5342 1.325 . S
C9728 C5162 1.324 . S
C9733 C6746 1.325 . S
C9738 C5306 1.324 . S
C9743 C6818 1.324 . S
C9748 C5378 1.325 . S
C9753 C6530 1.324 . S
C9758 C5558 1.325 . S
C9763 C5666 1.324 . S
C9768 C6422 1.325 . S
C9773 C5882 1.325 . S
C9778 C6170 1.324 . S
C9783 C6242 1.325 . S
C9788 C5954 1.324 . S
C9793 C2272 1.420 . S
C9798 C4 1.421 . S
C9803 C40 1.421 . S
C9808 C3892 1.420 . S
C9813 C2200 1.420 . S
C9818 C76 1.421 . S
C9823 C3964 1.420 . S
C9828 C112 1.421 . S
C9833 C148 1.420 . S
C9838 C2056 1.419 . S
C9843 C3820 1.421 . S
C9848 C184 1.419 . S
C9853 C2128 1.420 . S
C9858 C220 1.421 . S
C9863 C256 1.421 . S
C9868 C3748 1.420 . S
C9873 C3712 1.419 . S
C9878 C292 1.420 . S
C9883 C1876 1.420 . S
C9888 C328 1.419 . S
C9893 C364 1.419 . S
C9898 C3640 1.421 . S
C9903 C400 1.420 . S
C9908 C1948 1.419 . S
C9913 C3496 1.419 . S
C9918 C436 1.420 . S
C9923 C1804 1.420 . S
C9928 C472 1.419 . S
C9933 C3568 1.421 . S
C9938 C508 1.419 . S
C9943 C544 1.421 . S
C9948 C1732 1.420 . S
C9953 C4180 1.419 . S
C9958 C580 1.421 . S
C9963 C4288 1.421 . S
C9968 C616 1.419 . S
C9973 C652 1.419 . S
C9978 C4216 1.421 . S
C9983 C4252 1.421 . S
C9988 C688 1.419 . S
C9993 C724 1.421 . S
C9998 C4036 1.419 . S
C10003 C4108 1.419 . S
C10008 C760 1.421 . S
C10013 C4144 1.419 . S
C10018 C796 1.421 . S
C10023 C832 1.419 . S
C10028 C4072 1.421 . S
C10033 C3136 1.420 . S
C10038 C868 1.420 . S
C10043 C904 1.421 . S
C10048 C4756 1.420 . S
C10053 C3064 1.420 . S
C10058 C940 1.419 . S
C10063 C976 1.419 . S
C10068 C4828 1.420 . S
C10073 C1012 1.419 . S
C10078 C2920 1.421 . S
C10083 C4684 1.419 . S
C10088 C1048 1.421 . S
C10093 C1084 1.419 . S
C10098 C2992 1.421 . S
C10103 C1120 1.419 . S
C10108 C4612 1.420 . S
C10113 C4576 1.421 . S
C10118 C1156 1.419 . S
C10123 C2740 1.421 . S
C10128 C1192 1.419 . S
C10133 C1228 1.419 . S
C10138 C4504 1.421 . S
C10143 C2812 1.419 . S
C10148 C1264 1.420 . S
C10153 C1300 1.420 . S
C10158 C4360 1.419 . S
C10163 C2668 1.420 . S
C10168 C1336 1.421 . S
C10173 C4432 1.419 . S
C10178 C1372 1.420 . S
C10183 C1408 1.421 . S
C10188 C2596 1.420 . S
C10193 C5044 1.419 . S
C10198 C1444 1.421 . S
C10203 C1480 1.421 . S
C10208 C5152 1.420 . S
C10213 C5080 1.421 . S
C10218 C1516 1.419 . S
C10223 C5116 1.421 . S
C10228 C1552 1.419 . S
C10233 C4900 1.421 . S
C10238 C1588 1.420 . S
C10243 C1624 1.420 . S
C10248 C4972 1.419 . S
C10253 C1660 1.420 . S
C10258 C5008 1.421 . S
C10263 C4936 1.419 . S
C10268 C1696 1.420 . S
C10273 C5620 1.421 . S
C10278 C1768 1.419 . S
C10283 C5692 1.419 . S
C10288 C1840 1.421 . S
C10293 C1912 1.419 . S
C10298 C5548 1.420 . S
C10303 C5476 1.419 . S
C10308 C1984 1.421 . S
C10313 C2020 1.421 . S
C10318 C5440 1.419 . S
C10323 C2092 1.421 . S
C10328 C5368 1.419 . S
C10333 C5224 1.421 . S
C10338 C2164 1.419 . S
C10343 C2236 1.421 . S
C10348 C5296 1.419 . S
C10353 C2308 1.420 . S
C10358 C5908 1.421 . S
C10363 C6016 1.419 . S
C10368 C2344 1.421 . S
C10373 C2380 1.419 . S
C10378 C5944 1.420 . S
C10383 C5980 1.421 . S
C10388 C2416 1.419 . S
C10393 C5764 1.419 . S
C10398 C2452 1.421 . S
C10403 C2488 1.421 . S
C10408 C5836 1.420 . S
C10413 C2524 1.421 . S
C10418 C5872 1.419 . S
C10423 C5800 1.421 . S
C10428 C2560 1.419 . S
C10433 C6484 1.421 . S
C10438 C2632 1.419 . S
C10443 C6556 1.420 . S
C10448 C2704 1.419 . S
C10453 C6412 1.419 . S
C10458 C2776 1.421 . S
C10463 C6340 1.419 . S
C10468 C2848 1.421 . S
C10473 C2884 1.420 . S
C10478 C6304 1.421 . S
C10483 C6232 1.421 . S
C10488 C2956 1.420 . S
C10493 C6088 1.419 . S
C10498 C3028 1.421 . S
C10503 C6160 1.421 . S
C10508 C3100 1.420 . S
C10513 C3172 1.421 . S
C10518 C6772 1.420 . S
C10523 C6880 1.419 . S
C10528 C3208 1.421 . S
C10533 C3244 1.421 . S
C10538 C6808 1.419 . S
C10543 C6844 1.421 . S
C10548 C3280 1.419 . S
C10553 C3316 1.421 . S
C10558 C6628 1.419 . S
C10563 C3352 1.421 . S
C10568 C6700 1.419 . S
C10573 C6736 1.421 . S
C10578 C3388 1.420 . S
C10583 C6664 1.421 . S
C10588 C3424 1.419 . S
C10593 C5728 1.421 . S
C10598 C3460 1.419 . S
C10603 C3532 1.419 . S
C10608 C5656 1.420 . S
C10613 C5512 1.421 . S
C10618 C3604 1.420 . S
C10623 C3676 1.420 . S
C10628 C5584 1.419 . S
C10633 C3784 1.419 . S
C10638 C5332 1.421 . S
C10643 C3856 1.419 . S
C10648 C5404 1.420 . S
C10653 C5260 1.421 . S
C10658 C3928 1.419 . S
C10663 C4000 1.419 . S
C10668 C5188 1.421 . S
C10673 C6592 1.419 . S
C10678 C4324 1.420 . S
C10683 C6520 1.420 . S
C10688 C4396 1.419 . S
C10693 C6376 1.419 . S
C10698 C4468 1.420 . S
C10703 C6448 1.421 . S
C10708 C4540 1.420 . S
C10713 C6196 1.420 . S
C10718 C4648 1.419 . S
C10723 C4720 1.421 . S
C10728 C6268 1.419 . S
C10733 C4792 1.420 . S
C10738 C6124 1.419 . S
C10743 C6052 1.420 . S
C10748 C4864 1.421 . S
