# Generated by pormake.
# Topology fcu, (12)-cn, num edge types: 1
# Building blocks:
#     Node 0, Type 0, BuildingBlock: ZALLEG_clean_sbu_0, # of connection points: 12
#     Node 1, Type 0, BuildingBlock: ZALLEG_clean_sbu_0, # of connection points: 12
#     Node 2, Type 0, BuildingBlock: ZALLEG_clean_sbu_0, # of connection points: 12
#     Node 3, Type 0, BuildingBlock: ZALLEG_clean_sbu_0, # of connection points: 12
#     Edge 4, Type (0, 0), BuildingBlock: UVAHIK_clean_linker_0, # of connection points: 2
#     Edge 5, Type (0, 0), BuildingBlock: UVAHIK_clean_linker_0, # of connection points: 2
#     Edge 6, Type (0, 0), BuildingBlock: UVAHIK_clean_linker_0, # of connection points: 2
#     Edge 7, Type (0, 0), BuildingBlock: UVAHIK_clean_linker_0, # of connection points: 2
#     Edge 8, Type (0, 0), BuildingBlock: UVAHIK_clean_linker_0, # of connection points: 2
#     Edge 9, Type (0, 0), BuildingBlock: UVAHIK_clean_linker_0, # of connection points: 2
#     Edge 10, Type (0, 0), BuildingBlock: UVAHIK_clean_linker_0, # of connection points: 2
#     Edge 11, Type (0, 0), BuildingBlock: UVAHIK_clean_linker_0, # of connection points: 2
#     Edge 12, Type (0, 0), BuildingBlock: UVAHIK_clean_linker_0, # of connection points: 2
#     Edge 13, Type (0, 0), BuildingBlock: UVAHIK_clean_linker_0, # of connection points: 2
#     Edge 14, Type (0, 0), BuildingBlock: UVAHIK_clean_linker_0, # of connection points: 2
#     Edge 15, Type (0, 0), BuildingBlock: UVAHIK_clean_linker_0, # of connection points: 2
#     Edge 16, Type (0, 0), BuildingBlock: UVAHIK_clean_linker_0, # of connection points: 2
#     Edge 17, Type (0, 0), BuildingBlock: UVAHIK_clean_linker_0, # of connection points: 2
#     Edge 18, Type (0, 0), BuildingBlock: UVAHIK_clean_linker_0, # of connection points: 2
#     Edge 19, Type (0, 0), BuildingBlock: UVAHIK_clean_linker_0, # of connection points: 2
#     Edge 20, Type (0, 0), BuildingBlock: UVAHIK_clean_linker_0, # of connection points: 2
#     Edge 21, Type (0, 0), BuildingBlock: UVAHIK_clean_linker_0, # of connection points: 2
#     Edge 22, Type (0, 0), BuildingBlock: UVAHIK_clean_linker_0, # of connection points: 2
#     Edge 23, Type (0, 0), BuildingBlock: UVAHIK_clean_linker_0, # of connection points: 2
#     Edge 24, Type (0, 0), BuildingBlock: UVAHIK_clean_linker_0, # of connection points: 2
#     Edge 25, Type (0, 0), BuildingBlock: UVAHIK_clean_linker_0, # of connection points: 2
#     Edge 26, Type (0, 0), BuildingBlock: UVAHIK_clean_linker_0, # of connection points: 2
#     Edge 27, Type (0, 0), BuildingBlock: UVAHIK_clean_linker_0, # of connection points: 2
# Relax obj value: 0.000
# Max RMSD: 0.000
# Mean RMSD: 0.000
data_MOF--net-fcu--node1-ZALLEG_clean_sbu_0--edge1-UVAHIK_clean_linker_0
_symmetry_space_group_name_H-M    P1
_symmetry_Int_Tables_number       1
_symmetry_cell_setting            triclinic
loop_
_symmetry_equiv_pos_as_xyz
'x, y, z'
_cell_length_a     33.034835
_cell_length_b     33.036625
_cell_length_c     33.036512
_cell_angle_alpha  89.983676
_cell_angle_beta   90.011152
_cell_angle_gamma 90.005416
loop_
_atom_site_label
_atom_site_type_symbol
_atom_site_fract_x
_atom_site_fract_y
_atom_site_fract_z
_atom_type_partial_charge
H0 H 0.95082 0.95082 0.95077 0.0
O1 O 0.96808 0.96807 0.96804 0.0
Tb2 Tb 0.93238 0.00523 0.0053 0.0
Tb3 Tb 0.00533 0.93235 1.0052 0.0
Tb4 Tb 0.00527 0.00533 0.93236 0.0
O5 O 0.96811 0.96798 0.04245 0.0
O6 O 0.96805 0.04249 0.9681 0.0
O7 O 0.96806 0.04242 0.04254 0.0
O8 O 0.04253 0.96803 0.04244 0.0
O9 O 0.04247 0.04253 0.96809 0.0
O10 O 0.04252 0.9681 0.96801 0.0
H11 H 0.95086 0.9507 0.0597 0.0
H12 H 0.95077 0.05975 0.95086 0.0
Tb13 Tb 0.00531 1.00518 0.07818 0.0
Tb14 Tb 0.00525 0.07817 0.00534 0.0
H15 H 0.95081 0.05965 0.05981 0.0
H16 H 0.0598 0.95076 0.05968 0.0
Tb17 Tb 0.0782 0.0053 0.00525 0.0
H18 H 0.05971 0.05982 0.95084 0.0
H19 H 0.05978 0.95087 0.95074 0.0
O20 O 0.0425 0.04245 0.04251 0.0
H21 H 0.05975 0.0597 0.05978 0.0
O22 O 0.89759 0.94844 0.00528 0.0
O23 O 0.11299 0.06208 0.00527 0.0
O24 O 0.11305 0.94855 0.00524 0.0
O25 O 0.89752 0.06197 0.00537 0.0
O26 O 0.0053 0.89759 0.9484 0.0
O27 O 1.00523 0.11293 0.06214 0.0
O28 O 1.0052 0.11305 0.94861 0.0
O29 O 0.00539 0.89747 0.06193 0.0
O30 O 0.94849 0.00531 0.89756 0.0
O31 O 0.06209 1.00513 0.11298 0.0
O32 O 0.94856 1.00508 0.11302 0.0
O33 O 0.06202 0.00538 0.89753 0.0
O34 O 0.94858 0.8975 1.00515 0.0
O35 O 0.062 0.11302 0.00539 0.0
O36 O 0.94847 0.11296 0.00534 0.0
O37 O 0.06211 0.89756 1.00514 0.0
O38 O 0.89757 1.00517 0.06206 0.0
O39 O 0.11301 0.00541 0.94848 0.0
O40 O 0.11304 0.0053 0.06201 0.0
O41 O 0.89754 0.00529 0.94854 0.0
O42 O 0.00532 0.94838 0.11294 0.0
O43 O 0.00525 0.06214 0.8976 0.0
O44 O 0.00528 0.94861 0.89748 0.0
O45 O 0.00534 0.06191 0.11306 0.0
C46 C 0.90983 0.90971 1.0052 0.0
C47 C 0.10074 0.10081 0.00534 0.0
C48 C 0.10084 0.90981 1.00518 0.0
C49 C 0.90974 0.10071 0.00537 0.0
C50 C 0.00529 0.90986 0.90968 0.0
C51 C 0.00529 0.10066 0.10087 0.0
C52 C 1.00521 0.10086 0.90986 0.0
C53 C 0.00536 0.90966 0.10068 0.0
C54 C 0.90976 0.00531 0.9098 0.0
C55 C 0.10082 1.00521 0.10075 0.0
C56 C 0.90981 1.0051 0.1008 0.0
C57 C 0.10076 0.00542 0.90975 0.0
H58 H 0.95086 0.4507 0.45084 0.0
O59 O 0.9681 0.46799 0.46808 0.0
Tb60 Tb 0.93238 0.50522 0.50523 0.0
Tb61 Tb 0.00533 0.43235 0.50535 0.0
Tb62 Tb 0.00531 0.50518 0.43236 0.0
O63 O 0.96809 0.46807 0.5425 0.0
O64 O 0.96807 0.54241 0.46799 0.0
O65 O 0.96803 0.54249 0.54242 0.0
O66 O 0.04251 0.46811 0.54254 0.0
O67 O 0.04249 0.54246 0.46803 0.0
O68 O 0.04254 0.46802 0.46811 0.0
H69 H 0.95083 0.45082 0.55977 0.0
H70 H 0.95081 0.55964 0.4507 0.0
Tb71 Tb 0.00526 0.50534 0.57818 0.0
Tb72 Tb 0.00525 0.57817 0.50519 0.0
H73 H 0.95076 0.55976 0.55965 0.0
H74 H 0.05977 0.45088 0.55983 0.0
Tb75 Tb 0.0782 0.5053 0.50529 0.0
H76 H 0.05974 0.55971 0.45076 0.0
H77 H 0.05981 0.45076 0.45088 0.0
O78 O 0.04248 0.54253 0.54245 0.0
H79 H 0.05972 0.55981 0.55969 0.0
O80 O 0.89759 0.44844 0.50525 0.0
O81 O 0.11299 0.56209 0.50521 0.0
O82 O 0.11306 0.44856 0.50535 0.0
O83 O 0.89752 0.56196 0.50512 0.0
O84 O 0.00538 0.39747 0.44863 0.0
O85 O 1.00523 0.61305 0.56191 0.0
O86 O 1.00522 0.61292 0.44838 0.0
O87 O 0.00535 0.3976 0.56216 0.0
O88 O 0.94856 0.5051 0.39751 0.0
O89 O 0.06202 0.50543 0.61301 0.0
O90 O 0.94848 0.50536 0.61297 0.0
O91 O 0.06209 0.50516 0.39756 0.0
O92 O 0.94858 0.3975 0.5054 0.0
O93 O 0.062 0.61302 0.50519 0.0
O94 O 0.94847 0.61296 0.50514 0.0
O95 O 0.06211 0.39756 0.50546 0.0
O96 O 0.89753 0.50521 0.56198 0.0
O97 O 0.11304 0.50531 0.44854 0.0
O98 O 0.113 0.50534 0.56207 0.0
O99 O 0.89758 0.50518 0.44846 0.0
O100 O 0.00526 0.44861 0.61306 0.0
O101 O 0.00532 0.56191 0.39747 0.0
O102 O 0.00532 0.44838 0.3976 0.0
O103 O 1.00522 0.56214 0.61293 0.0
C104 C 0.90984 0.40971 0.50534 0.0
C105 C 0.10074 0.60081 0.50519 0.0
C106 C 0.10085 0.40981 0.50543 0.0
C107 C 0.90973 0.60071 0.5051 0.0
C108 C 0.00535 0.40966 0.40987 0.0
C109 C 1.00522 0.60086 0.60066 0.0
C110 C 0.00527 0.60066 0.40966 0.0
C111 C 0.00531 0.40986 0.60088 0.0
C112 C 0.90982 0.50512 0.40973 0.0
C113 C 0.10076 0.5054 0.6008 0.0
C114 C 0.90975 0.50529 0.60073 0.0
C115 C 0.10083 0.50523 0.4098 0.0
H116 H 0.4508 0.95084 0.45077 0.0
O117 O 0.46806 0.96808 0.46804 0.0
Tb118 Tb 0.43237 0.00529 0.50525 0.0
Tb119 Tb 0.50525 0.93235 0.50525 0.0
Tb120 Tb 0.50531 0.00529 0.43237 0.0
O121 O 0.46805 0.96805 0.54246 0.0
O122 O 0.4681 0.0425 0.46806 0.0
O123 O 0.46808 0.04248 0.54248 0.0
O124 O 0.54247 0.96802 0.54249 0.0
O125 O 0.54253 0.04247 0.46809 0.0
O126 O 0.54249 0.96805 0.46806 0.0
H127 H 0.45078 0.95079 0.55971 0.0
H128 H 0.45085 0.05978 0.4508 0.0
Tb129 Tb 0.50526 0.00524 0.57818 0.0
Tb130 Tb 0.50533 0.07817 0.50529 0.0
H131 H 0.45083 0.05974 0.55974 0.0
H132 H 0.55971 0.95074 0.55975 0.0
Tb133 Tb 0.5782 0.00522 0.5053 0.0
H134 H 0.55981 0.05973 0.45084 0.0
H135 H 0.55975 0.95079 0.45081 0.0
O136 O 0.54251 0.04244 0.54251 0.0
H137 H 0.55978 0.05968 0.55978 0.0
O138 O 0.39752 0.94855 0.50526 0.0
O139 O 0.61305 0.06197 0.50536 0.0
O140 O 0.61299 0.94844 0.50534 0.0
O141 O 0.39758 0.06207 0.50528 0.0
O142 O 0.50525 0.89755 0.44848 0.0
O143 O 0.50537 0.11297 0.56207 0.0
O144 O 0.50537 0.11301 0.44854 0.0
O145 O 0.50525 0.89751 0.56201 0.0
O146 O 0.44855 0.00536 0.39753 0.0
O147 O 0.56202 0.00522 0.61302 0.0
O148 O 0.44849 0.00528 0.61299 0.0
O149 O 0.56208 0.00532 0.39757 0.0
O150 O 0.44847 0.89756 0.50519 0.0
O151 O 0.56211 0.11296 0.50529 0.0
O152 O 0.44858 0.11302 0.50525 0.0
O153 O 0.562 0.8975 0.50523 0.0
O154 O 0.39753 0.00525 0.562 0.0
O155 O 0.61304 1.0052 0.44855 0.0
O156 O 0.613 1.00515 0.56208 0.0
O157 O 0.39757 0.00531 0.44848 0.0
O158 O 0.50521 0.94845 0.61298 0.0
O159 O 0.50533 0.06207 0.39756 0.0
O160 O 0.50528 0.94854 0.39752 0.0
O161 O 0.50526 0.06198 0.61302 0.0
C162 C 0.40973 0.90981 0.50522 0.0
C163 C 0.60084 0.10071 0.50533 0.0
C164 C 0.60074 0.90971 0.50529 0.0
C165 C 0.40983 0.10081 0.50527 0.0
C166 C 0.50526 0.9098 0.40974 0.0
C167 C 0.50531 0.10073 0.6008 0.0
C168 C 0.50536 0.1008 0.4098 0.0
C169 C 0.50522 0.90973 0.60074 0.0
C170 C 0.40981 0.00534 0.40975 0.0
C171 C 0.60076 1.00518 0.60081 0.0
C172 C 0.40975 0.00527 0.60075 0.0
C173 C 0.60082 0.00526 0.40981 0.0
H174 H 0.45076 0.4508 0.95083 0.0
O175 O 0.46804 0.46805 0.96808 0.0
Tb176 Tb 0.43238 0.50529 0.00529 0.0
Tb177 Tb 0.50525 0.43235 0.00529 0.0
Tb178 Tb 0.50526 0.50523 0.93235 0.0
O179 O 0.46808 0.46807 0.0425 0.0
O180 O 0.46809 0.54247 0.96805 0.0
O181 O 0.4681 0.5425 0.04248 0.0
O182 O 0.54249 0.46805 0.04248 0.0
O183 O 0.5425 0.54244 0.96803 0.0
O184 O 0.54248 0.46801 0.96805 0.0
H185 H 0.45082 0.45083 0.05978 0.0
H186 H 0.45083 0.55973 0.95079 0.0
Tb187 Tb 0.50532 0.50529 0.07817 0.0
Tb188 Tb 0.50532 0.57817 0.00524 0.0
H189 H 0.45085 0.55977 0.05973 0.0
H190 H 0.55975 0.45079 0.05974 0.0
Tb191 Tb 0.5782 0.50523 0.00524 0.0
H192 H 0.55976 0.55969 0.95075 0.0
H193 H 0.55972 0.45074 0.9508 0.0
O194 O 0.54254 0.54246 0.04245 0.0
H195 H 0.55982 0.55972 0.05969 0.0
O196 O 0.39753 0.44854 0.00535 0.0
O197 O 0.61305 0.56197 1.00517 0.0
O198 O 0.613 0.44845 0.00523 0.0
O199 O 0.39758 0.56207 0.00523 0.0
O200 O 0.50518 0.3975 0.94855 0.0
O201 O 0.50537 0.61301 0.06198 0.0
O202 O 0.50529 0.61296 0.94846 0.0
O203 O 0.50525 0.39755 0.06208 0.0
O204 O 0.44848 0.50523 0.89756 0.0
O205 O 0.5621 0.5053 0.11297 0.0
O206 O 0.44857 0.50533 0.11301 0.0
O207 O 0.56201 0.50518 0.89751 0.0
O208 O 0.44847 0.39756 0.00531 0.0
O209 O 0.56211 0.61296 0.00522 0.0
O210 O 0.44857 0.61301 0.00525 0.0
O211 O 0.562 0.3975 0.00534 0.0
O212 O 0.39758 0.50528 0.06206 0.0
O213 O 0.613 0.50524 0.94846 0.0
O214 O 0.61305 0.50519 0.06199 0.0
O215 O 0.39753 0.50532 0.94854 0.0
O216 O 0.50533 0.44853 0.11302 0.0
O217 O 0.50529 0.56198 0.89751 0.0
O218 O 0.50524 0.44846 0.89756 0.0
O219 O 0.50537 0.56206 0.11297 0.0
C220 C 0.40974 0.4098 0.00534 0.0
C221 C 0.60084 0.60072 1.00518 0.0
C222 C 0.60075 0.40972 0.0053 0.0
C223 C 0.40983 0.6008 0.00523 0.0
C224 C 0.5052 0.40972 0.9098 0.0
C225 C 0.50538 0.60079 0.10073 0.0
C226 C 0.50528 0.60072 0.90973 0.0
C227 C 0.5053 0.40979 0.1008 0.0
C228 C 0.40975 0.50529 0.9098 0.0
C229 C 0.60083 0.50523 0.10073 0.0
C230 C 0.40982 0.50531 0.1008 0.0
C231 C 0.60076 0.50521 0.90973 0.0
C232 C 1.00438 0.17367 0.12215 0.0
C233 C 0.0053 0.13241 0.13267 0.0
C234 C 1.00436 0.20356 0.1521 0.0
C235 C 0.03 0.22098 0.25963 0.0
H236 H 0.96072 0.31498 0.24772 0.0
C237 C 0.00629 0.3366 0.3887 0.0
C238 C 0.00536 0.37786 0.37813 0.0
C239 C 0.0063 0.30668 0.35879 0.0
C240 C 0.98058 0.28915 0.2513 0.0
H241 H 0.00686 0.09041 0.18326 0.0
H242 H 0.00648 0.14252 0.23531 0.0
H243 H 0.96071 0.26281 0.19554 0.0
H244 H 1.00376 0.41977 0.32747 0.0
H245 H 1.00413 0.3676 0.2755 0.0
H246 H 0.04987 0.24732 0.31539 0.0
C247 C 0.00625 0.15174 0.20385 0.0
C248 C 0.98058 0.25923 0.22138 0.0
C249 C 0.00622 0.12183 0.17392 0.0
C250 C 1.00441 0.38837 0.33686 0.0
C251 C 1.00438 0.35842 0.30698 0.0
C252 C 0.03001 0.2509 0.28955 0.0
C253 C 0.0053 0.19296 0.19331 0.0
C254 C 0.00529 0.22478 0.22517 0.0
C255 C 0.00533 0.31721 0.31757 0.0
C256 C 0.0053 0.28535 0.28575 0.0
H257 H 1.00374 0.18306 0.09075 0.0
H258 H 1.00414 0.23503 0.14292 0.0
H259 H 0.04986 0.19514 0.2632 0.0
H260 H 0.00695 0.32726 0.42012 0.0
H261 H 0.00654 0.27521 0.36801 0.0
C262 C 0.88859 1.0039 0.17383 0.0
C263 C 0.87805 1.00506 0.13258 0.0
C264 C 0.85867 1.00387 0.20374 0.0
C265 C 0.75129 0.02998 0.22133 0.0
H266 H 0.76285 0.96027 0.31508 0.0
C267 C 0.62207 0.00635 0.33679 0.0
C268 C 0.6326 0.00524 0.37804 0.0
C269 C 0.652 0.00634 0.30688 0.0
C270 C 0.75938 0.98025 0.28932 0.0
H271 H 0.82742 0.00702 0.09064 0.0
H272 H 0.77542 0.00662 0.14279 0.0
H273 H 0.81503 0.96021 0.26289 0.0
H274 H 0.68321 1.0033 0.42 0.0
H275 H 0.73523 1.00364 0.36786 0.0
H276 H 0.69564 0.05002 0.24775 0.0
C277 C 0.80688 0.00621 0.15198 0.0
C278 C 0.78929 0.98022 0.25939 0.0
C279 C 0.83679 0.00619 0.12205 0.0
C280 C 0.67385 1.0041 0.38859 0.0
C281 C 0.70377 1.00404 0.35866 0.0
C282 C 0.72138 0.03001 0.25125 0.0
C283 C 0.81745 1.00505 0.19319 0.0
C284 C 0.78562 1.00508 0.22503 0.0
C285 C 0.69321 1.00518 0.31745 0.0
C286 C 0.72505 1.00515 0.28561 0.0
H287 H 0.92 1.00308 0.18319 0.0
H288 H 0.86787 1.00346 0.23521 0.0
H289 H 0.74782 0.04996 0.19557 0.0
H290 H 0.59066 0.00716 0.32742 0.0
H291 H 0.64281 0.00672 0.27541 0.0
C292 C 0.00651 0.83662 0.12186 0.0
C293 C 0.00536 0.87786 0.13242 0.0
C294 C 0.00652 0.80668 0.15177 0.0
C295 C 0.98031 0.78899 0.25906 0.0
H296 H 0.05024 0.69541 0.24765 0.0
C297 C 1.0041 0.67366 0.38836 0.0
C298 C 0.00526 0.6324 0.37786 0.0
C299 C 1.00407 0.70354 0.35841 0.0
C300 C 0.0302 0.72113 0.25108 0.0
H301 H 1.00337 0.91976 0.18306 0.0
H302 H 1.00373 0.86757 0.23504 0.0
H303 H 0.05027 0.74761 0.19545 0.0
H304 H 0.00725 0.59042 0.32729 0.0
H305 H 0.00685 0.64254 0.27523 0.0
H306 H 0.96024 0.76251 0.31469 0.0
C307 C 1.00415 0.8584 0.20356 0.0
C308 C 0.03022 0.75105 0.22116 0.0
C309 C 1.0042 0.88836 0.17368 0.0
C310 C 0.00641 0.62184 0.33662 0.0
C311 C 0.00644 0.65175 0.30669 0.0
C312 C 0.9803 0.75907 0.28898 0.0
C313 C 0.00532 0.81721 0.19298 0.0
C314 C 0.00528 0.78535 0.22479 0.0
C315 C 0.00525 0.69296 0.31721 0.0
C316 C 0.00524 0.72478 0.28536 0.0
H317 H 0.00735 0.82729 0.09044 0.0
H318 H 0.00693 0.77522 0.14256 0.0
H319 H 0.96028 0.81471 0.2625 0.0
H320 H 1.00327 0.68304 0.41976 0.0
H321 H 1.00365 0.73502 0.36757 0.0
C322 C 0.33679 1.00438 0.38849 0.0
C323 C 0.37805 0.00536 0.37796 0.0
C324 C 0.30689 1.00435 0.35855 0.0
C325 C 0.28937 0.03008 0.25109 0.0
H326 H 0.19553 0.96055 0.26288 0.0
C327 C 0.17386 0.00615 0.12196 0.0
C328 C 0.1326 1.00521 0.13251 0.0
C329 C 0.20377 0.00619 0.15189 0.0
C330 C 0.22132 0.98047 0.25934 0.0
H331 H 0.42001 0.00701 0.32736 0.0
H332 H 0.36787 0.0066 0.27533 0.0
H333 H 0.24772 0.96059 0.31507 0.0
H334 H 0.09066 1.00362 0.18313 0.0
H335 H 0.14283 1.00403 0.23514 0.0
H336 H 0.26297 0.04996 0.19535 0.0
C337 C 0.35867 0.00634 0.3068 0.0
C338 C 0.25124 0.9805 0.28926 0.0
C339 C 0.3886 0.00632 0.33671 0.0
C340 C 0.12207 1.00428 0.17377 0.0
C341 C 0.15201 1.00426 0.20367 0.0
C342 C 0.25945 0.03005 0.22116 0.0
C343 C 0.31746 0.00533 0.31735 0.0
C344 C 0.28563 0.0053 0.2855 0.0
C345 C 0.19322 0.00523 0.1931 0.0
C346 C 0.22506 0.00525 0.22493 0.0
H347 H 0.32742 1.00371 0.4199 0.0
H348 H 0.27542 1.00408 0.36773 0.0
H349 H 0.31516 0.05001 0.24755 0.0
H350 H 0.18321 0.0068 0.09055 0.0
H351 H 0.23524 0.00643 0.14269 0.0
C352 C 0.00564 0.8887 0.83662 0.0
C353 C 0.00527 0.87811 0.87787 0.0
C354 C 0.00562 0.8588 0.80668 0.0
C355 C 0.98088 0.75102 0.78942 0.0
H356 H 0.04895 0.76371 0.69465 0.0
C357 C 1.00481 0.62215 0.67368 0.0
C358 C 1.0052 0.63267 0.6324 0.0
C359 C 1.00477 0.6521 0.70356 0.0
C360 C 0.02942 0.75991 0.7207 0.0
H361 H 1.00468 0.82744 0.9198 0.0
H362 H 1.00502 0.77548 0.86761 0.0
H363 H 0.04897 0.81588 0.74683 0.0
H364 H 0.00579 0.68327 0.5904 0.0
H365 H 0.00537 0.73532 0.6425 0.0
H366 H 0.96134 0.69505 0.7633 0.0
C367 C 1.00482 0.80696 0.85843 0.0
C368 C 0.02943 0.78983 0.75062 0.0
C369 C 1.00487 0.83684 0.88839 0.0
C370 C 0.00558 0.67392 0.62182 0.0
C371 C 0.00558 0.70386 0.65173 0.0
C372 C 0.98087 0.72111 0.7595 0.0
C373 C 1.0052 0.81756 0.81722 0.0
C374 C 1.00517 0.78575 0.78536 0.0
C375 C 1.00517 0.69332 0.69296 0.0
C376 C 1.00515 0.72518 0.72478 0.0
H377 H 0.00585 0.92012 0.82727 0.0
H378 H 0.00541 0.86802 0.77522 0.0
H379 H 0.96136 0.74722 0.81548 0.0
H380 H 1.00461 0.59074 0.68308 0.0
H381 H 1.00497 0.64292 0.73504 0.0
C382 C 0.17378 0.00664 0.88849 0.0
C383 C 0.13253 0.00547 0.87796 0.0
C384 C 0.20368 0.00669 0.85855 0.0
C385 C 0.22124 0.98057 0.75119 0.0
H386 H 0.31496 0.05033 0.76269 0.0
C387 C 0.33672 1.00417 0.62196 0.0
C388 C 0.37797 0.00529 0.63251 0.0
C389 C 0.3068 1.00418 0.65188 0.0
C390 C 0.2892 0.03033 0.75923 0.0
H391 H 0.09056 1.00349 0.82736 0.0
H392 H 0.14269 1.00391 0.77533 0.0
H393 H 0.26277 0.05039 0.81487 0.0
H394 H 0.41991 0.00727 0.68313 0.0
H395 H 0.36776 0.00694 0.73513 0.0
H396 H 0.24768 0.96052 0.69555 0.0
C397 C 0.15189 1.00432 0.8068 0.0
C398 C 0.25928 0.03037 0.78915 0.0
C399 C 0.12197 1.00433 0.83671 0.0
C400 C 0.38851 0.00646 0.67376 0.0
C401 C 0.35857 0.00652 0.70366 0.0
C402 C 0.25116 0.98054 0.72127 0.0
C403 C 0.19311 0.0055 0.81734 0.0
C404 C 0.22494 0.00549 0.7855 0.0
C405 C 0.31736 0.00537 0.69309 0.0
C406 C 0.28551 0.00542 0.72493 0.0
H407 H 0.18316 0.00747 0.91989 0.0
H408 H 0.23515 0.00711 0.86774 0.0
H409 H 0.19549 0.96058 0.74773 0.0
H410 H 0.32736 1.00333 0.59055 0.0
H411 H 0.27534 1.00379 0.64268 0.0
C412 C 0.00616 0.33686 0.62217 0.0
C413 C 0.00531 0.37812 0.63268 0.0
C414 C 0.00618 0.30697 0.65212 0.0
C415 C 0.98058 0.28955 0.75961 0.0
H416 H 0.04985 0.19553 0.74777 0.0
C417 C 1.00432 0.1739 0.88869 0.0
C418 C 1.0052 0.13266 0.87812 0.0
C419 C 1.00431 0.20384 0.85878 0.0
C420 C 0.02999 0.22137 0.75132 0.0
H421 H 1.00386 0.42011 0.68326 0.0
H422 H 1.00424 0.36799 0.73532 0.0
H423 H 0.04988 0.24773 0.69558 0.0
H424 H 0.00666 0.09075 0.82747 0.0
H425 H 0.00629 0.14294 0.7755 0.0
H426 H 0.96069 0.26318 0.81536 0.0
C427 C 1.00442 0.35878 0.70386 0.0
C428 C 0.03001 0.2513 0.7214 0.0
C429 C 1.00445 0.38869 0.67392 0.0
C430 C 0.00607 0.12215 0.83686 0.0
C431 C 0.0061 0.15211 0.80697 0.0
C432 C 0.98056 0.25962 0.78954 0.0
C433 C 0.0053 0.31756 0.69332 0.0
C434 C 0.0053 0.28574 0.72518 0.0
C435 C 1.00522 0.19331 0.81757 0.0
C436 C 0.00526 0.22517 0.78575 0.0
H437 H 0.00675 0.32747 0.59077 0.0
H438 H 0.00635 0.2755 0.64296 0.0
H439 H 0.96072 0.31539 0.76317 0.0
H440 H 1.00372 0.18324 0.92011 0.0
H441 H 1.00413 0.2353 0.86799 0.0
C442 C 0.62198 0.00618 0.67384 0.0
C443 C 0.63253 1.00516 0.63259 0.0
C444 C 0.65191 0.00621 0.70375 0.0
C445 C 0.75932 0.98034 0.72135 0.0
H446 H 0.74765 0.05003 0.81506 0.0
C447 C 0.88851 1.00427 0.83678 0.0
C448 C 0.87798 0.0053 0.87803 0.0
C449 C 0.85857 1.00422 0.80688 0.0
C450 C 0.75115 0.03006 0.78931 0.0
H451 H 0.68315 1.00341 0.59065 0.0
H452 H 0.73516 1.0038 0.64281 0.0
H453 H 0.69545 0.04999 0.76287 0.0
H454 H 0.82737 0.00705 0.91999 0.0
H455 H 0.77534 0.00662 0.86785 0.0
H456 H 0.81502 0.96042 0.74779 0.0
C457 C 0.70369 1.00411 0.652 0.0
C458 C 0.72123 0.03003 0.75939 0.0
C459 C 0.67378 1.00413 0.62206 0.0
C460 C 0.83673 0.00632 0.88858 0.0
C461 C 0.80681 0.00632 0.85865 0.0
C462 C 0.78924 0.98037 0.75127 0.0
C463 C 0.69312 1.00516 0.6932 0.0
C464 C 0.72495 1.00518 0.72504 0.0
C465 C 0.81736 0.00526 0.81745 0.0
C466 C 0.78552 0.00523 0.78561 0.0
H467 H 0.59057 0.00691 0.68319 0.0
H468 H 0.64271 0.00652 0.73522 0.0
H469 H 0.76282 0.96037 0.69559 0.0
H470 H 0.91992 1.00355 0.82742 0.0
H471 H 0.86776 1.0039 0.77541 0.0
C472 C 0.38848 0.33679 1.00418 0.0
C473 C 0.37796 0.37804 0.00537 0.0
C474 C 0.35854 0.30689 1.00416 0.0
C475 C 0.25121 0.28925 0.03033 0.0
H476 H 0.26265 0.19572 0.96037 0.0
C477 C 0.12196 0.17384 0.00654 0.0
C478 C 0.13251 0.13259 0.00535 0.0
C479 C 0.15188 0.20375 0.00657 0.0
C480 C 0.25921 0.22142 0.98042 0.0
H481 H 0.32736 0.41999 0.00744 0.0
H482 H 0.27533 0.36786 0.00707 0.0
H483 H 0.31484 0.24791 0.96037 0.0
H484 H 0.18313 0.09067 1.00333 0.0
H485 H 0.23513 0.14283 1.00373 0.0
H486 H 0.19558 0.26276 0.05037 0.0
C487 C 0.30679 0.35866 0.00661 0.0
C488 C 0.28913 0.25134 0.98042 0.0
C489 C 0.33671 0.38858 0.00658 0.0
C490 C 0.17376 0.12207 1.00418 0.0
C491 C 0.20366 0.15201 1.00417 0.0
C492 C 0.22129 0.25933 0.03033 0.0
C493 C 0.31734 0.31745 0.00539 0.0
C494 C 0.2855 0.28562 0.00538 0.0
C495 C 0.19309 0.19321 0.00537 0.0
C496 C 0.22492 0.22505 0.00537 0.0
H497 H 0.41989 0.32742 1.00331 0.0
H498 H 0.36773 0.27542 1.00372 0.0
H499 H 0.24777 0.31495 0.05038 0.0
H500 H 0.09055 0.18318 0.00738 0.0
H501 H 0.14268 0.23522 0.00701 0.0
C502 C 0.33681 0.62207 1.00413 0.0
C503 C 0.37807 0.63259 1.00519 0.0
C504 C 0.30691 0.65201 1.00407 0.0
C505 C 0.28941 0.75944 0.02993 0.0
H506 H 0.19558 0.74776 0.96036 0.0
C507 C 0.17388 0.8886 0.00618 0.0
C508 C 0.13263 0.87805 1.00516 0.0
C509 C 0.2038 0.85868 0.00619 0.0
C510 C 0.22136 0.75127 0.9803 0.0
H511 H 0.42004 0.68319 0.00697 0.0
H512 H 0.36792 0.73522 0.00653 0.0
H513 H 0.24776 0.69558 0.96035 0.0
H514 H 0.09069 0.82742 1.00342 0.0
H515 H 0.14286 0.77543 1.00378 0.0
H516 H 0.26301 0.81514 0.04988 0.0
C517 C 0.35871 0.70376 0.00621 0.0
C518 C 0.25128 0.72135 0.9803 0.0
C519 C 0.38863 0.67384 0.00622 0.0
C520 C 0.1221 0.83679 1.00414 0.0
C521 C 0.15204 0.8069 1.0041 0.0
C522 C 0.25949 0.78936 0.02993 0.0
C523 C 0.3175 0.69321 1.00513 0.0
C524 C 0.28567 0.72507 1.00512 0.0
C525 C 0.19325 0.81747 1.00514 0.0
C526 C 0.2251 0.78564 1.00512 0.0
H527 H 0.32743 0.59066 1.00339 0.0
H528 H 0.27544 0.64283 1.00373 0.0
H529 H 0.31519 0.76295 0.04988 0.0
H530 H 0.18324 0.92002 0.00691 0.0
H531 H 0.23527 0.86789 0.0065 0.0
C532 C 0.62195 0.33668 0.00635 0.0
C533 C 0.63251 0.37793 0.00533 0.0
C534 C 0.65187 0.30676 0.0064 0.0
C535 C 0.75931 0.2892 0.98057 0.0
H536 H 0.74758 0.19535 0.05011 0.0
C537 C 0.88848 0.17373 1.00437 0.0
C538 C 0.87795 0.13247 0.00538 0.0
C539 C 0.85854 0.20363 1.00434 0.0
C540 C 0.7511 0.22114 0.03018 0.0
H541 H 0.68315 0.41986 1.00363 0.0
H542 H 0.73514 0.3677 1.00405 0.0
H543 H 0.69539 0.24754 0.0501 0.0
H544 H 0.82734 0.09051 0.00712 0.0
H545 H 0.77531 0.14264 0.00673 0.0
H546 H 0.81501 0.26281 0.96064 0.0
C547 C 0.70367 0.35852 1.00434 0.0
C548 C 0.72118 0.25107 0.03017 0.0
C549 C 0.67377 0.38846 1.00434 0.0
C550 C 0.8367 0.12192 0.0064 0.0
C551 C 0.80678 0.15184 0.00643 0.0
C552 C 0.78922 0.25928 0.98057 0.0
C553 C 0.69309 0.31731 0.00537 0.0
C554 C 0.72492 0.28546 0.00537 0.0
C555 C 0.81733 0.19305 0.00539 0.0
C556 C 0.78549 0.22489 0.00538 0.0
H557 H 0.59054 0.32733 0.00706 0.0
H558 H 0.64267 0.2753 0.00671 0.0
H559 H 0.76283 0.315 0.96064 0.0
H560 H 0.91989 0.1831 1.00364 0.0
H561 H 0.86773 0.2351 1.00404 0.0
C562 C 0.88863 0.83668 1.00394 0.0
C563 C 0.87807 0.87793 1.00517 0.0
C564 C 0.8587 0.80676 1.00389 0.0
C565 C 0.75139 0.78907 0.0301 0.0
H566 H 0.76279 0.69558 0.96008 0.0
C567 C 0.6221 0.67373 0.00635 0.0
C568 C 0.63262 0.63247 1.00515 0.0
C569 C 0.65204 0.70362 0.00636 0.0
C570 C 0.75936 0.72127 0.98014 0.0
H571 H 0.82745 0.91984 0.00726 0.0
H572 H 0.77545 0.86768 0.00683 0.0
H573 H 0.81499 0.74777 0.96008 0.0
H574 H 0.68322 0.59052 1.00303 0.0
H575 H 0.73525 0.64265 1.00339 0.0
H576 H 0.69578 0.76257 0.05016 0.0
C577 C 0.80692 0.8585 0.00638 0.0
C578 C 0.78929 0.75119 0.98015 0.0
C579 C 0.83682 0.88844 0.00637 0.0
C580 C 0.67387 0.62193 1.00391 0.0
C581 C 0.70379 0.65185 1.00386 0.0
C582 C 0.72147 0.75915 0.0301 0.0
C583 C 0.81749 0.8173 1.00513 0.0
C584 C 0.78566 0.78546 1.00513 0.0
C585 C 0.69324 0.69305 1.00511 0.0
C586 C 0.72509 0.72489 1.00512 0.0
H587 H 0.92004 0.82734 1.00306 0.0
H588 H 0.8679 0.7753 1.00342 0.0
H589 H 0.74797 0.81476 0.05017 0.0
H590 H 0.5907 0.68309 0.00725 0.0
H591 H 0.64286 0.73509 0.00683 0.0
C592 C 0.67378 0.50633 0.88847 0.0
C593 C 0.63252 0.50521 0.87795 0.0
C594 C 0.70368 0.50636 0.85854 0.0
C595 C 0.72124 0.48039 0.75114 0.0
H596 H 0.81496 0.55012 0.76274 0.0
C597 C 0.83671 0.50417 0.62194 0.0
C598 C 0.87797 0.50528 0.63249 0.0
C599 C 0.8068 0.50414 0.65186 0.0
C600 C 0.7892 0.53014 0.75925 0.0
H601 H 0.59055 0.5033 0.82734 0.0
H602 H 0.64268 0.50371 0.77532 0.0
H603 H 0.76277 0.5501 0.81492 0.0
H604 H 0.91991 0.50719 0.68312 0.0
H605 H 0.86775 0.50679 0.73511 0.0
H606 H 0.74767 0.46042 0.69546 0.0
C607 C 0.65189 0.50409 0.80678 0.0
C608 C 0.75928 0.53013 0.78917 0.0
C609 C 0.62197 0.5041 0.8367 0.0
C610 C 0.8885 0.50639 0.67375 0.0
C611 C 0.85856 0.50641 0.70365 0.0
C612 C 0.75116 0.4804 0.72122 0.0
C613 C 0.6931 0.50523 0.81733 0.0
C614 C 0.72494 0.50525 0.78548 0.0
C615 C 0.81735 0.50527 0.69308 0.0
C616 C 0.78551 0.50527 0.72491 0.0
H617 H 0.68315 0.50712 0.91988 0.0
H618 H 0.73515 0.50675 0.86772 0.0
H619 H 0.69548 0.4604 0.74765 0.0
H620 H 0.82736 0.50338 0.59053 0.0
H621 H 0.77533 0.50376 0.64266 0.0
C622 C 0.12197 0.50657 0.67383 0.0
C623 C 0.13252 0.50543 0.63258 0.0
C624 C 0.1519 0.5066 0.70375 0.0
C625 C 0.25923 0.48049 0.72139 0.0
H626 H 0.24776 0.55035 0.815 0.0
C627 C 0.38849 0.50419 0.83678 0.0
C628 C 0.37797 0.50532 0.87804 0.0
C629 C 0.35855 0.5042 0.80688 0.0
C630 C 0.25121 0.53033 0.78927 0.0
H631 H 0.18314 0.5035 0.59066 0.0
H632 H 0.23515 0.5039 0.64282 0.0
H633 H 0.19556 0.55037 0.7628 0.0
H634 H 0.32737 0.5073 0.91999 0.0
H635 H 0.27533 0.50696 0.86785 0.0
H636 H 0.31487 0.46044 0.74786 0.0
C637 C 0.20368 0.50429 0.652 0.0
C638 C 0.22128 0.53034 0.75935 0.0
C639 C 0.17377 0.50431 0.62206 0.0
C640 C 0.33672 0.50648 0.88858 0.0
C641 C 0.3068 0.50654 0.85866 0.0
C642 C 0.28915 0.48047 0.75132 0.0
C643 C 0.19311 0.50544 0.6932 0.0
C644 C 0.22494 0.50543 0.72504 0.0
C645 C 0.31735 0.50538 0.81745 0.0
C646 C 0.28551 0.50539 0.78562 0.0
H647 H 0.09056 0.50738 0.68318 0.0
H648 H 0.1427 0.507 0.73521 0.0
H649 H 0.26268 0.46047 0.69567 0.0
H650 H 0.4199 0.50336 0.82742 0.0
H651 H 0.36773 0.5038 0.77541 0.0
C652 C 0.12208 0.50416 0.33678 0.0
C653 C 0.13261 0.50524 0.37804 0.0
C654 C 0.15202 0.50414 0.30688 0.0
C655 C 0.25943 0.53011 0.28932 0.0
H656 H 0.24779 0.46043 0.1956 0.0
C657 C 0.38861 0.50641 0.17383 0.0
C658 C 0.37806 0.5053 0.13258 0.0
C659 C 0.35869 0.50642 0.20375 0.0
C660 C 0.25129 0.4804 0.22136 0.0
H661 H 0.18322 0.50711 0.42 0.0
H662 H 0.23525 0.50673 0.36787 0.0
H663 H 0.19561 0.46042 0.24778 0.0
H664 H 0.32743 0.50338 0.09065 0.0
H665 H 0.27543 0.50375 0.14281 0.0
H666 H 0.31511 0.55009 0.26289 0.0
C667 C 0.20378 0.50637 0.35867 0.0
C668 C 0.22137 0.4804 0.25128 0.0
C669 C 0.17386 0.50633 0.38859 0.0
C670 C 0.3368 0.50418 0.12206 0.0
C671 C 0.3069 0.50414 0.152 0.0
C672 C 0.28935 0.53011 0.2594 0.0
C673 C 0.19323 0.50526 0.31746 0.0
C674 C 0.22507 0.50525 0.28562 0.0
C675 C 0.31748 0.50528 0.1932 0.0
C676 C 0.28565 0.50526 0.22505 0.0
H677 H 0.09067 0.50339 0.32741 0.0
H678 H 0.14283 0.50379 0.27541 0.0
H679 H 0.26293 0.55008 0.31508 0.0
H680 H 0.42003 0.50722 0.18318 0.0
H681 H 0.3679 0.5068 0.23521 0.0
C682 C 0.62208 0.50635 0.17374 0.0
C683 C 0.63261 0.50521 0.13249 0.0
C684 C 0.65202 0.50635 0.20365 0.0
C685 C 0.75934 0.48018 0.22127 0.0
H686 H 0.74792 0.5501 0.31484 0.0
C687 C 0.8886 0.5039 0.3367 0.0
C688 C 0.87805 0.50509 0.37795 0.0
C689 C 0.85867 0.50387 0.30678 0.0
C690 C 0.75135 0.53006 0.28913 0.0
H691 H 0.68321 0.50322 0.09054 0.0
H692 H 0.73524 0.50356 0.14269 0.0
H693 H 0.69573 0.55013 0.26265 0.0
H694 H 0.82744 0.50711 0.41987 0.0
H695 H 0.77543 0.50671 0.36771 0.0
H696 H 0.81497 0.4601 0.24776 0.0
C697 C 0.70378 0.50399 0.15188 0.0
C698 C 0.72143 0.53008 0.25921 0.0
C699 C 0.67386 0.50404 0.12195 0.0
C700 C 0.8368 0.50625 0.38847 0.0
C701 C 0.8069 0.50627 0.35853 0.0
C702 C 0.78927 0.48016 0.2512 0.0
C703 C 0.69322 0.50516 0.19308 0.0
C704 C 0.72506 0.50514 0.22492 0.0
C705 C 0.81746 0.50508 0.31733 0.0
C706 C 0.78563 0.5051 0.28549 0.0
H707 H 0.59068 0.50719 0.18311 0.0
H708 H 0.64284 0.50676 0.23512 0.0
H709 H 0.76278 0.46014 0.19556 0.0
H710 H 0.92001 0.50305 0.32735 0.0
H711 H 0.86787 0.50343 0.27532 0.0
C712 C 0.3367 0.8886 0.50636 0.0
C713 C 0.37795 0.87805 0.50519 0.0
C714 C 0.30677 0.85869 0.50637 0.0
C715 C 0.2891 0.75138 0.48016 0.0
H716 H 0.19555 0.76279 0.55012 0.0
C717 C 0.17375 0.62209 0.50395 0.0
C718 C 0.1325 0.6326 0.50516 0.0
C719 C 0.20365 0.65203 0.5039 0.0
C720 C 0.22126 0.75936 0.53007 0.0
H721 H 0.41987 0.82743 0.50315 0.0
H722 H 0.36769 0.77543 0.5035 0.0
H723 H 0.24774 0.81498 0.55013 0.0
H724 H 0.09053 0.68319 0.50723 0.0
H725 H 0.14265 0.73523 0.50681 0.0
H726 H 0.26261 0.69576 0.4601 0.0
C727 C 0.35852 0.8069 0.50395 0.0
C728 C 0.25118 0.78928 0.53007 0.0
C729 C 0.38846 0.8368 0.504 0.0
C730 C 0.12194 0.67385 0.50635 0.0
C731 C 0.15186 0.70377 0.50636 0.0
C732 C 0.25918 0.72146 0.48015 0.0
C733 C 0.31732 0.81748 0.50514 0.0
C734 C 0.28547 0.78565 0.50512 0.0
C735 C 0.19307 0.69323 0.50512 0.0
C736 C 0.22489 0.72508 0.50511 0.0
H737 H 0.32735 0.92001 0.50722 0.0
H738 H 0.27531 0.86789 0.5068 0.0
H739 H 0.31481 0.74795 0.46011 0.0
H740 H 0.18312 0.59069 0.50308 0.0
H741 H 0.23512 0.64286 0.50344 0.0
C742 C 0.17389 0.38862 0.50452 0.0
C743 C 0.13263 0.37806 0.50548 0.0
C744 C 0.20381 0.3587 0.50451 0.0
C745 C 0.22138 0.25123 0.53027 0.0
H746 H 0.3152 0.26305 0.46073 0.0
C747 C 0.33681 0.12207 0.5063 0.0
C748 C 0.37808 0.13259 0.50528 0.0
C749 C 0.30692 0.15201 0.50637 0.0
C750 C 0.28941 0.2595 0.48066 0.0
H751 H 0.0907 0.32742 0.50716 0.0
H752 H 0.14287 0.27543 0.5068 0.0
H753 H 0.26302 0.31524 0.4608 0.0
H754 H 0.42005 0.18319 0.50359 0.0
H755 H 0.36793 0.23523 0.50405 0.0
H756 H 0.24777 0.19549 0.55013 0.0
C757 C 0.15205 0.3069 0.50652 0.0
C758 C 0.2595 0.28943 0.4807 0.0
C759 C 0.12211 0.3368 0.50648 0.0
C760 C 0.38864 0.17384 0.5043 0.0
C761 C 0.35872 0.20377 0.50432 0.0
C762 C 0.25129 0.22131 0.53023 0.0
C763 C 0.19326 0.31748 0.50552 0.0
C764 C 0.22511 0.28565 0.5055 0.0
C765 C 0.3175 0.19322 0.50537 0.0
C766 C 0.28567 0.22507 0.50542 0.0
H767 H 0.18324 0.42003 0.50382 0.0
H768 H 0.23528 0.3679 0.50424 0.0
H769 H 0.19559 0.24768 0.5502 0.0
H770 H 0.32743 0.09067 0.50699 0.0
H771 H 0.27545 0.14283 0.50667 0.0
C772 C 0.83669 0.62192 0.50397 0.0
C773 C 0.87795 0.63247 0.50505 0.0
C774 C 0.80678 0.65184 0.50394 0.0
C775 C 0.78921 0.75922 0.52996 0.0
H776 H 0.69539 0.74763 0.46036 0.0
C777 C 0.67376 0.88845 0.50632 0.0
C778 C 0.6325 0.87793 0.50527 0.0
C779 C 0.70366 0.85851 0.50632 0.0
C780 C 0.72117 0.75112 0.48031 0.0
H781 H 0.91988 0.6831 0.50688 0.0
H782 H 0.86772 0.73509 0.50648 0.0
H783 H 0.74758 0.69545 0.46029 0.0
H784 H 0.59053 0.82733 0.50344 0.0
H785 H 0.64266 0.77529 0.50378 0.0
H786 H 0.76281 0.81489 0.54998 0.0
C787 C 0.85854 0.70362 0.50613 0.0
C788 C 0.7511 0.72119 0.48027 0.0
C789 C 0.88848 0.67372 0.50611 0.0
C790 C 0.62194 0.83668 0.50419 0.0
C791 C 0.65186 0.80676 0.50413 0.0
C792 C 0.75929 0.78914 0.53 0.0
C793 C 0.81733 0.69305 0.50504 0.0
C794 C 0.78548 0.72488 0.50509 0.0
C795 C 0.69308 0.8173 0.50521 0.0
C796 C 0.72491 0.78545 0.50517 0.0
H797 H 0.82734 0.59051 0.50321 0.0
H798 H 0.77531 0.64264 0.50359 0.0
H799 H 0.815 0.7627 0.54991 0.0
H800 H 0.68314 0.91985 0.50709 0.0
H801 H 0.73513 0.86769 0.50665 0.0
C802 C 0.67388 0.12192 0.50637 0.0
C803 C 0.63263 0.13247 0.50535 0.0
C804 C 0.7038 0.15185 0.5064 0.0
C805 C 0.72135 0.25928 0.48056 0.0
H806 H 0.81519 0.24755 0.55013 0.0
C807 C 0.83682 0.38845 0.50438 0.0
C808 C 0.87808 0.37792 0.50537 0.0
C809 C 0.80692 0.35851 0.50437 0.0
C810 C 0.7894 0.25107 0.53019 0.0
H811 H 0.59069 0.1831 0.50364 0.0
H812 H 0.64285 0.2351 0.50405 0.0
H813 H 0.763 0.19536 0.55012 0.0
H814 H 0.92004 0.32732 0.50707 0.0
H815 H 0.86791 0.27529 0.5067 0.0
H816 H 0.74776 0.31499 0.46063 0.0
C817 C 0.65204 0.20363 0.50434 0.0
C818 C 0.75948 0.22115 0.53019 0.0
C819 C 0.6221 0.17373 0.50436 0.0
C820 C 0.88863 0.33667 0.50638 0.0
C821 C 0.8587 0.30676 0.50641 0.0
C822 C 0.75128 0.2892 0.48057 0.0
C823 C 0.69324 0.19306 0.50537 0.0
C824 C 0.72509 0.22489 0.50537 0.0
C825 C 0.81749 0.31731 0.50539 0.0
C826 C 0.78566 0.28546 0.50538 0.0
H827 H 0.68323 0.09051 0.50707 0.0
H828 H 0.73526 0.14265 0.5067 0.0
H829 H 0.69557 0.2628 0.46062 0.0
H830 H 0.82744 0.41986 0.50368 0.0
H831 H 0.77544 0.36769 0.50409 0.0
C832 C 0.50639 0.38847 0.83679 0.0
C833 C 0.50517 0.37794 0.87804 0.0
C834 C 0.50641 0.35853 0.80689 0.0
C835 C 0.48029 0.25115 0.78926 0.0
H836 H 0.55021 0.26269 0.6957 0.0
C837 C 0.5041 0.12194 0.67384 0.0
C838 C 0.50531 0.13249 0.63259 0.0
C839 C 0.50405 0.15186 0.70375 0.0
C840 C 0.53017 0.25922 0.72141 0.0
H841 H 0.50306 0.32733 0.92 0.0
H842 H 0.50346 0.27531 0.86787 0.0
H843 H 0.55017 0.31487 0.74788 0.0
H844 H 0.50738 0.18312 0.59066 0.0
H845 H 0.50696 0.23511 0.64281 0.0
H846 H 0.46029 0.1955 0.76279 0.0
C847 C 0.50392 0.30677 0.85867 0.0
C848 C 0.53015 0.28914 0.75133 0.0
C849 C 0.50395 0.33669 0.88859 0.0
C850 C 0.5065 0.17374 0.62206 0.0
C851 C 0.50651 0.20364 0.652 0.0
C852 C 0.48031 0.22123 0.75935 0.0
C853 C 0.50517 0.31732 0.81746 0.0
C854 C 0.5052 0.28548 0.78562 0.0
C855 C 0.50527 0.19307 0.6932 0.0
C856 C 0.50525 0.2249 0.72505 0.0
H857 H 0.50727 0.41987 0.82741 0.0
H858 H 0.50688 0.36772 0.77542 0.0
H859 H 0.46024 0.24769 0.81497 0.0
H860 H 0.50323 0.09053 0.68319 0.0
H861 H 0.50359 0.14265 0.73522 0.0
C862 C 0.50597 0.83669 0.62195 0.0
C863 C 0.50521 0.87794 0.6325 0.0
C864 C 0.50599 0.80677 0.65187 0.0
C865 C 0.48055 0.7893 0.7594 0.0
H866 H 0.54967 0.6952 0.7474 0.0
C867 C 0.50449 0.67374 0.88847 0.0
C868 C 0.50527 0.63248 0.87794 0.0
C869 C 0.50445 0.70364 0.85853 0.0
C870 C 0.52985 0.72107 0.751 0.0
H871 H 0.50392 0.91988 0.68314 0.0
H872 H 0.5043 0.86771 0.73513 0.0
H873 H 0.54965 0.7474 0.6952 0.0
H874 H 0.50655 0.59052 0.82734 0.0
H875 H 0.50613 0.64266 0.77531 0.0
H876 H 0.46075 0.76297 0.81519 0.0
C877 C 0.5044 0.85853 0.70366 0.0
C878 C 0.52984 0.75099 0.72107 0.0
C879 C 0.50443 0.88847 0.67376 0.0
C880 C 0.50603 0.62193 0.83669 0.0
C881 C 0.50603 0.65186 0.80677 0.0
C882 C 0.48056 0.75938 0.78932 0.0
C883 C 0.50519 0.81732 0.69309 0.0
C884 C 0.50519 0.78547 0.72492 0.0
C885 C 0.50523 0.69307 0.81733 0.0
C886 C 0.50521 0.7249 0.78548 0.0
H887 H 0.50649 0.82734 0.59054 0.0
H888 H 0.50609 0.77531 0.64268 0.0
H889 H 0.46073 0.81517 0.763 0.0
H890 H 0.50398 0.68311 0.91988 0.0
H891 H 0.50434 0.73511 0.86771 0.0
C892 C 0.50548 0.67384 0.12193 0.0
C893 C 0.5054 0.63258 0.13249 0.0
C894 C 0.50547 0.70376 0.15185 0.0
C895 C 0.52929 0.72075 0.25989 0.0
H896 H 0.46221 0.81614 0.24652 0.0
C897 C 0.5052 0.83676 0.3885 0.0
C898 C 0.50527 0.87803 0.37796 0.0
C899 C 0.50524 0.80686 0.35857 0.0
C900 C 0.48146 0.78991 0.25052 0.0
H901 H 0.50516 0.59062 0.18314 0.0
H902 H 0.50477 0.64278 0.23513 0.0
H903 H 0.46225 0.76397 0.19434 0.0
H904 H 0.50552 0.92001 0.32733 0.0
H905 H 0.50595 0.86788 0.27532 0.0
H906 H 0.54849 0.74668 0.31606 0.0
C907 C 0.50535 0.65197 0.20366 0.0
C908 C 0.48148 0.75999 0.2206 0.0
C909 C 0.50533 0.62204 0.17376 0.0
C910 C 0.50535 0.88859 0.3367 0.0
C911 C 0.50536 0.85867 0.30678 0.0
C912 C 0.52926 0.75066 0.28981 0.0
C913 C 0.50541 0.69319 0.19308 0.0
C914 C 0.5054 0.72504 0.22491 0.0
C915 C 0.50531 0.81745 0.31734 0.0
C916 C 0.50535 0.78561 0.28549 0.0
H917 H 0.50565 0.68321 0.09051 0.0
H918 H 0.50605 0.73522 0.14264 0.0
H919 H 0.54854 0.69451 0.26388 0.0
H920 H 0.50502 0.82738 0.41991 0.0
H921 H 0.50467 0.7754 0.36776 0.0
C922 C 0.50499 0.12204 0.33678 0.0
C923 C 0.50537 0.13258 0.37804 0.0
C924 C 0.50497 0.15198 0.30687 0.0
C925 C 0.52969 0.25973 0.28966 0.0
H926 H 0.46145 0.24715 0.19497 0.0
C927 C 0.50569 0.38859 0.17384 0.0
C928 C 0.50531 0.37803 0.13259 0.0
C929 C 0.50573 0.35866 0.20376 0.0
C930 C 0.48102 0.25092 0.22101 0.0
H931 H 0.50596 0.18319 0.42001 0.0
H932 H 0.50557 0.23522 0.36786 0.0
H933 H 0.46146 0.19496 0.24717 0.0
H934 H 0.50477 0.3274 0.09064 0.0
H935 H 0.50518 0.2754 0.14281 0.0
H936 H 0.54925 0.31569 0.2635 0.0
C937 C 0.50578 0.20375 0.35867 0.0
C938 C 0.48103 0.221 0.25093 0.0
C939 C 0.50576 0.17384 0.38859 0.0
C940 C 0.50496 0.33677 0.12205 0.0
C941 C 0.50495 0.30686 0.15199 0.0
C942 C 0.52968 0.28965 0.25973 0.0
C943 C 0.50537 0.19319 0.31745 0.0
C944 C 0.50536 0.22504 0.28562 0.0
C945 C 0.50535 0.31744 0.1932 0.0
C946 C 0.50535 0.28561 0.22504 0.0
H947 H 0.50479 0.09063 0.3274 0.0
H948 H 0.50518 0.1428 0.2754 0.0
H949 H 0.54926 0.26349 0.31569 0.0
H950 H 0.50587 0.42 0.1832 0.0
H951 H 0.50551 0.36785 0.23523 0.0
loop_
_geom_bond_atom_site_label_1
_geom_bond_atom_site_label_2
_geom_bond_distance
_geom_bond_site_symmetry_2
_ccdc_geom_bond_type
H0 O1 0.850 . S
O1 H0 0.850 . S
O1 Tb2 2.341 1_566 S
O1 Tb3 2.341 1_656 S
O1 Tb4 2.341 1_665 S
Tb2 O1 2.341 1_544 S
Tb2 O5 2.341 1_545 S
Tb2 O6 2.341 1_554 S
Tb2 O7 2.341 . S
Tb2 O22 2.344 1_545 S
Tb2 O25 2.344 . S
Tb2 O38 2.344 . S
Tb2 O41 2.344 1_554 S
Tb3 O1 2.341 1_454 S
Tb3 O5 2.341 1_455 S
Tb3 O8 2.341 . S
Tb3 O10 2.341 1_554 S
Tb3 O26 2.344 1_554 S
Tb3 O29 2.344 . S
Tb3 O34 2.344 1_455 S
Tb3 O37 2.344 . S
Tb4 O1 2.341 1_445 S
Tb4 O6 2.341 1_455 S
Tb4 O9 2.341 . S
Tb4 O10 2.341 1_545 S
Tb4 O30 2.344 1_455 S
Tb4 O33 2.344 . S
Tb4 O43 2.344 . S
Tb4 O44 2.344 1_545 S
O5 Tb2 2.341 1_565 S
O5 Tb3 2.341 1_655 S
O5 H11 0.850 . S
O5 Tb13 2.341 1_665 S
O6 Tb2 2.341 1_556 S
O6 Tb4 2.341 1_655 S
O6 H12 0.850 . S
O6 Tb14 2.341 1_656 S
O7 Tb2 2.341 . S
O7 Tb13 2.341 1_655 S
O7 Tb14 2.341 1_655 S
O7 H15 0.850 . S
O8 Tb3 2.341 . S
O8 Tb13 2.341 1_565 S
O8 H16 0.850 . S
O8 Tb17 2.341 1_565 S
O9 Tb4 2.341 . S
O9 Tb14 2.341 1_556 S
O9 Tb17 2.341 1_556 S
O9 H18 0.850 . S
O10 Tb3 2.341 1_556 S
O10 Tb4 2.341 1_565 S
O10 Tb17 2.341 1_566 S
O10 H19 0.850 . S
H11 O5 0.850 . S
H12 O6 0.850 . S
Tb13 O5 2.341 1_445 S
Tb13 O7 2.341 1_455 S
Tb13 O8 2.341 1_545 S
Tb13 O20 2.341 . S
Tb13 O31 2.344 . S
Tb13 O32 2.344 1_455 S
Tb13 O42 2.344 1_545 S
Tb13 O45 2.344 . S
Tb14 O6 2.341 1_454 S
Tb14 O7 2.341 1_455 S
Tb14 O9 2.341 1_554 S
Tb14 O20 2.341 . S
Tb14 O27 2.344 . S
Tb14 O28 2.344 1_554 S
Tb14 O35 2.344 . S
Tb14 O36 2.344 1_455 S
H15 O7 0.850 . S
H16 O8 0.850 . S
Tb17 O8 2.341 1_545 S
Tb17 O9 2.341 1_554 S
Tb17 O10 2.341 1_544 S
Tb17 O20 2.341 . S
Tb17 O23 2.344 . S
Tb17 O24 2.344 1_545 S
Tb17 O39 2.344 1_554 S
Tb17 O40 2.344 . S
H18 O9 0.850 . S
H19 O10 0.850 . S
O20 Tb13 2.341 . S
O20 Tb14 2.341 . S
O20 Tb17 2.341 . S
O20 H21 0.850 . S
H21 O20 0.850 . S
O22 Tb2 2.344 1_565 S
O22 C46 1.272 . S
O23 Tb17 2.344 . S
O23 C47 1.272 . S
O24 Tb17 2.344 1_565 S
O24 C48 1.272 . S
O25 Tb2 2.344 . S
O25 C49 1.272 . S
O26 Tb3 2.344 1_556 S
O26 C50 1.272 . S
O27 Tb14 2.344 . S
O27 C51 1.272 . S
O28 Tb14 2.344 1_556 S
O28 C52 1.272 . S
O29 Tb3 2.344 . S
O29 C53 1.272 . S
O30 Tb4 2.344 1_655 S
O30 C54 1.272 . S
O31 Tb13 2.344 . S
O31 C55 1.272 . S
O32 Tb13 2.344 1_655 S
O32 C56 1.272 . S
O33 Tb4 2.344 . S
O33 C57 1.272 . S
O34 Tb3 2.344 1_655 S
O34 C46 1.272 . S
O35 Tb14 2.344 . S
O35 C47 1.272 . S
O36 Tb14 2.344 1_655 S
O36 C49 1.272 . S
O37 Tb3 2.344 . S
O37 C48 1.272 . S
O38 Tb2 2.344 . S
O38 C56 1.272 . S
O39 Tb17 2.344 1_556 S
O39 C57 1.272 . S
O40 Tb17 2.344 . S
O40 C55 1.272 . S
O41 Tb2 2.344 1_556 S
O41 C54 1.272 . S
O42 Tb13 2.344 1_565 S
O42 C53 1.272 . S
O43 Tb4 2.344 . S
O43 C52 1.272 . S
O44 Tb4 2.344 1_565 S
O44 C50 1.272 . S
O45 Tb13 2.344 . S
O45 C51 1.272 . S
C46 O22 1.272 . S
C46 O34 1.272 . S
C47 O23 1.272 . S
C47 O35 1.272 . S
C48 O24 1.272 . S
C48 O37 1.272 . S
C49 O25 1.272 . S
C49 O36 1.272 . S
C50 O26 1.272 . S
C50 O44 1.272 . S
C51 O27 1.272 . S
C51 O45 1.272 . S
C52 O28 1.272 . S
C52 O43 1.272 . S
C53 O29 1.272 . S
C53 O42 1.272 . S
C54 O30 1.272 . S
C54 O41 1.272 . S
C55 O31 1.272 . S
C55 O40 1.272 . S
C56 O32 1.272 . S
C56 O38 1.272 . S
C57 O33 1.272 . S
C57 O39 1.272 . S
H58 O59 0.850 . S
O59 H58 0.850 . S
O59 Tb60 2.341 . S
O59 Tb61 2.341 1_655 S
O59 Tb62 2.341 1_655 S
Tb60 O59 2.341 . S
Tb60 O63 2.341 . S
Tb60 O64 2.341 . S
Tb60 O65 2.341 . S
Tb60 O80 2.344 . S
Tb60 O83 2.344 . S
Tb60 O96 2.344 . S
Tb60 O99 2.344 . S
Tb61 O59 2.341 1_455 S
Tb61 O63 2.341 1_455 S
Tb61 O66 2.341 . S
Tb61 O68 2.341 . S
Tb61 O84 2.344 . S
Tb61 O87 2.344 . S
Tb61 O92 2.344 1_455 S
Tb61 O95 2.344 . S
Tb62 O59 2.341 1_455 S
Tb62 O64 2.341 1_455 S
Tb62 O67 2.341 . S
Tb62 O68 2.341 . S
Tb62 O88 2.344 1_455 S
Tb62 O91 2.344 . S
Tb62 O101 2.344 . S
Tb62 O102 2.344 . S
O63 Tb60 2.341 . S
O63 Tb61 2.341 1_655 S
O63 H69 0.850 . S
O63 Tb71 2.341 1_655 S
O64 Tb60 2.341 . S
O64 Tb62 2.341 1_655 S
O64 H70 0.850 . S
O64 Tb72 2.341 1_655 S
O65 Tb60 2.341 . S
O65 Tb71 2.341 1_655 S
O65 Tb72 2.341 1_655 S
O65 H73 0.850 . S
O66 Tb61 2.341 . S
O66 Tb71 2.341 . S
O66 H74 0.850 . S
O66 Tb75 2.341 . S
O67 Tb62 2.341 . S
O67 Tb72 2.341 . S
O67 Tb75 2.341 . S
O67 H76 0.850 . S
O68 Tb61 2.341 . S
O68 Tb62 2.341 . S
O68 Tb75 2.341 . S
O68 H77 0.850 . S
H69 O63 0.850 . S
H70 O64 0.850 . S
Tb71 O63 2.341 1_455 S
Tb71 O65 2.341 1_455 S
Tb71 O66 2.341 . S
Tb71 O78 2.341 . S
Tb71 O89 2.344 . S
Tb71 O90 2.344 1_455 S
Tb71 O100 2.344 . S
Tb71 O103 2.344 . S
Tb72 O64 2.341 1_455 S
Tb72 O65 2.341 1_455 S
Tb72 O67 2.341 . S
Tb72 O78 2.341 . S
Tb72 O85 2.344 . S
Tb72 O86 2.344 . S
Tb72 O93 2.344 . S
Tb72 O94 2.344 1_455 S
H73 O65 0.850 . S
H74 O66 0.850 . S
Tb75 O66 2.341 . S
Tb75 O67 2.341 . S
Tb75 O68 2.341 . S
Tb75 O78 2.341 . S
Tb75 O81 2.344 . S
Tb75 O82 2.344 . S
Tb75 O97 2.344 . S
Tb75 O98 2.344 . S
H76 O67 0.850 . S
H77 O68 0.850 . S
O78 Tb71 2.341 . S
O78 Tb72 2.341 . S
O78 Tb75 2.341 . S
O78 H79 0.850 . S
H79 O78 0.850 . S
O80 Tb60 2.344 . S
O80 C104 1.272 . S
O81 Tb75 2.344 . S
O81 C105 1.272 . S
O82 Tb75 2.344 . S
O82 C106 1.272 . S
O83 Tb60 2.344 . S
O83 C107 1.272 . S
O84 Tb61 2.344 . S
O84 C108 1.272 . S
O85 Tb72 2.344 . S
O85 C109 1.272 . S
O86 Tb72 2.344 . S
O86 C110 1.272 . S
O87 Tb61 2.344 . S
O87 C111 1.272 . S
O88 Tb62 2.344 1_655 S
O88 C112 1.272 . S
O89 Tb71 2.344 . S
O89 C113 1.272 . S
O90 Tb71 2.344 1_655 S
O90 C114 1.272 . S
O91 Tb62 2.344 . S
O91 C115 1.272 . S
O92 Tb61 2.344 1_655 S
O92 C104 1.272 . S
O93 Tb72 2.344 . S
O93 C105 1.272 . S
O94 Tb72 2.344 1_655 S
O94 C107 1.272 . S
O95 Tb61 2.344 . S
O95 C106 1.272 . S
O96 Tb60 2.344 . S
O96 C114 1.272 . S
O97 Tb75 2.344 . S
O97 C115 1.272 . S
O98 Tb75 2.344 . S
O98 C113 1.272 . S
O99 Tb60 2.344 . S
O99 C112 1.272 . S
O100 Tb71 2.344 . S
O100 C111 1.272 . S
O101 Tb62 2.344 . S
O101 C110 1.272 . S
O102 Tb62 2.344 . S
O102 C108 1.272 . S
O103 Tb71 2.344 . S
O103 C109 1.272 . S
C104 O80 1.272 . S
C104 O92 1.272 . S
C105 O81 1.272 . S
C105 O93 1.272 . S
C106 O82 1.272 . S
C106 O95 1.272 . S
C107 O83 1.272 . S
C107 O94 1.272 . S
C108 O84 1.272 . S
C108 O102 1.272 . S
C109 O85 1.272 . S
C109 O103 1.272 . S
C110 O86 1.272 . S
C110 O101 1.272 . S
C111 O87 1.272 . S
C111 O100 1.272 . S
C112 O88 1.272 . S
C112 O99 1.272 . S
C113 O89 1.272 . S
C113 O98 1.272 . S
C114 O90 1.272 . S
C114 O96 1.272 . S
C115 O91 1.272 . S
C115 O97 1.272 . S
H116 O117 0.850 . S
O117 H116 0.850 . S
O117 Tb118 2.341 1_565 S
O117 Tb119 2.341 . S
O117 Tb120 2.341 1_565 S
Tb118 O117 2.341 1_545 S
Tb118 O121 2.341 1_545 S
Tb118 O122 2.341 . S
Tb118 O123 2.341 . S
Tb118 O138 2.344 1_545 S
Tb118 O141 2.344 . S
Tb118 O154 2.344 . S
Tb118 O157 2.344 . S
Tb119 O117 2.341 . S
Tb119 O121 2.341 . S
Tb119 O124 2.341 . S
Tb119 O126 2.341 . S
Tb119 O142 2.344 . S
Tb119 O145 2.344 . S
Tb119 O150 2.344 . S
Tb119 O153 2.344 . S
Tb120 O117 2.341 1_545 S
Tb120 O122 2.341 . S
Tb120 O125 2.341 . S
Tb120 O126 2.341 1_545 S
Tb120 O146 2.344 . S
Tb120 O149 2.344 . S
Tb120 O159 2.344 . S
Tb120 O160 2.344 1_545 S
O121 Tb118 2.341 1_565 S
O121 Tb119 2.341 . S
O121 H127 0.850 . S
O121 Tb129 2.341 1_565 S
O122 Tb118 2.341 . S
O122 Tb120 2.341 . S
O122 H128 0.850 . S
O122 Tb130 2.341 . S
O123 Tb118 2.341 . S
O123 Tb129 2.341 . S
O123 Tb130 2.341 . S
O123 H131 0.850 . S
O124 Tb119 2.341 . S
O124 Tb129 2.341 1_565 S
O124 H132 0.850 . S
O124 Tb133 2.341 1_565 S
O125 Tb120 2.341 . S
O125 Tb130 2.341 . S
O125 Tb133 2.341 . S
O125 H134 0.850 . S
O126 Tb119 2.341 . S
O126 Tb120 2.341 1_565 S
O126 Tb133 2.341 1_565 S
O126 H135 0.850 . S
H127 O121 0.850 . S
H128 O122 0.850 . S
Tb129 O121 2.341 1_545 S
Tb129 O123 2.341 . S
Tb129 O124 2.341 1_545 S
Tb129 O136 2.341 . S
Tb129 O147 2.344 . S
Tb129 O148 2.344 . S
Tb129 O158 2.344 1_545 S
Tb129 O161 2.344 . S
Tb130 O122 2.341 . S
Tb130 O123 2.341 . S
Tb130 O125 2.341 . S
Tb130 O136 2.341 . S
Tb130 O143 2.344 . S
Tb130 O144 2.344 . S
Tb130 O151 2.344 . S
Tb130 O152 2.344 . S
H131 O123 0.850 . S
H132 O124 0.850 . S
Tb133 O124 2.341 1_545 S
Tb133 O125 2.341 . S
Tb133 O126 2.341 1_545 S
Tb133 O136 2.341 . S
Tb133 O139 2.344 . S
Tb133 O140 2.344 1_545 S
Tb133 O155 2.344 . S
Tb133 O156 2.344 . S
H134 O125 0.850 . S
H135 O126 0.850 . S
O136 Tb129 2.341 . S
O136 Tb130 2.341 . S
O136 Tb133 2.341 . S
O136 H137 0.850 . S
H137 O136 0.850 . S
O138 Tb118 2.344 1_565 S
O138 C162 1.272 . S
O139 Tb133 2.344 . S
O139 C163 1.272 . S
O140 Tb133 2.344 1_565 S
O140 C164 1.272 . S
O141 Tb118 2.344 . S
O141 C165 1.272 . S
O142 Tb119 2.344 . S
O142 C166 1.272 . S
O143 Tb130 2.344 . S
O143 C167 1.272 . S
O144 Tb130 2.344 . S
O144 C168 1.272 . S
O145 Tb119 2.344 . S
O145 C169 1.272 . S
O146 Tb120 2.344 . S
O146 C170 1.272 . S
O147 Tb129 2.344 . S
O147 C171 1.272 . S
O148 Tb129 2.344 . S
O148 C172 1.272 . S
O149 Tb120 2.344 . S
O149 C173 1.272 . S
O150 Tb119 2.344 . S
O150 C162 1.272 . S
O151 Tb130 2.344 . S
O151 C163 1.272 . S
O152 Tb130 2.344 . S
O152 C165 1.272 . S
O153 Tb119 2.344 . S
O153 C164 1.272 . S
O154 Tb118 2.344 . S
O154 C172 1.272 . S
O155 Tb133 2.344 . S
O155 C173 1.272 . S
O156 Tb133 2.344 . S
O156 C171 1.272 . S
O157 Tb118 2.344 . S
O157 C170 1.272 . S
O158 Tb129 2.344 1_565 S
O158 C169 1.272 . S
O159 Tb120 2.344 . S
O159 C168 1.272 . S
O160 Tb120 2.344 1_565 S
O160 C166 1.272 . S
O161 Tb129 2.344 . S
O161 C167 1.272 . S
C162 O138 1.272 . S
C162 O150 1.272 . S
C163 O139 1.272 . S
C163 O151 1.272 . S
C164 O140 1.272 . S
C164 O153 1.272 . S
C165 O141 1.272 . S
C165 O152 1.272 . S
C166 O142 1.272 . S
C166 O160 1.272 . S
C167 O143 1.272 . S
C167 O161 1.272 . S
C168 O144 1.272 . S
C168 O159 1.272 . S
C169 O145 1.272 . S
C169 O158 1.272 . S
C170 O146 1.272 . S
C170 O157 1.272 . S
C171 O147 1.272 . S
C171 O156 1.272 . S
C172 O148 1.272 . S
C172 O154 1.272 . S
C173 O149 1.272 . S
C173 O155 1.272 . S
H174 O175 0.850 . S
O175 H174 0.850 . S
O175 Tb176 2.341 1_556 S
O175 Tb177 2.341 1_556 S
O175 Tb178 2.341 . S
Tb176 O175 2.341 1_554 S
Tb176 O179 2.341 . S
Tb176 O180 2.341 1_554 S
Tb176 O181 2.341 . S
Tb176 O196 2.344 . S
Tb176 O199 2.344 . S
Tb176 O212 2.344 . S
Tb176 O215 2.344 1_554 S
Tb177 O175 2.341 1_554 S
Tb177 O179 2.341 . S
Tb177 O182 2.341 . S
Tb177 O184 2.341 1_554 S
Tb177 O200 2.344 1_554 S
Tb177 O203 2.344 . S
Tb177 O208 2.344 . S
Tb177 O211 2.344 . S
Tb178 O175 2.341 . S
Tb178 O180 2.341 . S
Tb178 O183 2.341 . S
Tb178 O184 2.341 . S
Tb178 O204 2.344 . S
Tb178 O207 2.344 . S
Tb178 O217 2.344 . S
Tb178 O218 2.344 . S
O179 Tb176 2.341 . S
O179 Tb177 2.341 . S
O179 H185 0.850 . S
O179 Tb187 2.341 . S
O180 Tb176 2.341 1_556 S
O180 Tb178 2.341 . S
O180 H186 0.850 . S
O180 Tb188 2.341 1_556 S
O181 Tb176 2.341 . S
O181 Tb187 2.341 . S
O181 Tb188 2.341 . S
O181 H189 0.850 . S
O182 Tb177 2.341 . S
O182 Tb187 2.341 . S
O182 H190 0.850 . S
O182 Tb191 2.341 . S
O183 Tb178 2.341 . S
O183 Tb188 2.341 1_556 S
O183 Tb191 2.341 1_556 S
O183 H192 0.850 . S
O184 Tb177 2.341 1_556 S
O184 Tb178 2.341 . S
O184 Tb191 2.341 1_556 S
O184 H193 0.850 . S
H185 O179 0.850 . S
H186 O180 0.850 . S
Tb187 O179 2.341 . S
Tb187 O181 2.341 . S
Tb187 O182 2.341 . S
Tb187 O194 2.341 . S
Tb187 O205 2.344 . S
Tb187 O206 2.344 . S
Tb187 O216 2.344 . S
Tb187 O219 2.344 . S
Tb188 O180 2.341 1_554 S
Tb188 O181 2.341 . S
Tb188 O183 2.341 1_554 S
Tb188 O194 2.341 . S
Tb188 O201 2.344 . S
Tb188 O202 2.344 1_554 S
Tb188 O209 2.344 . S
Tb188 O210 2.344 . S
H189 O181 0.850 . S
H190 O182 0.850 . S
Tb191 O182 2.341 . S
Tb191 O183 2.341 1_554 S
Tb191 O184 2.341 1_554 S
Tb191 O194 2.341 . S
Tb191 O197 2.344 . S
Tb191 O198 2.344 . S
Tb191 O213 2.344 1_554 S
Tb191 O214 2.344 . S
H192 O183 0.850 . S
H193 O184 0.850 . S
O194 Tb187 2.341 . S
O194 Tb188 2.341 . S
O194 Tb191 2.341 . S
O194 H195 0.850 . S
H195 O194 0.850 . S
O196 Tb176 2.344 . S
O196 C220 1.272 . S
O197 Tb191 2.344 . S
O197 C221 1.272 . S
O198 Tb191 2.344 . S
O198 C222 1.272 . S
O199 Tb176 2.344 . S
O199 C223 1.272 . S
O200 Tb177 2.344 1_556 S
O200 C224 1.272 . S
O201 Tb188 2.344 . S
O201 C225 1.272 . S
O202 Tb188 2.344 1_556 S
O202 C226 1.272 . S
O203 Tb177 2.344 . S
O203 C227 1.272 . S
O204 Tb178 2.344 . S
O204 C228 1.272 . S
O205 Tb187 2.344 . S
O205 C229 1.272 . S
O206 Tb187 2.344 . S
O206 C230 1.272 . S
O207 Tb178 2.344 . S
O207 C231 1.272 . S
O208 Tb177 2.344 . S
O208 C220 1.272 . S
O209 Tb188 2.344 . S
O209 C221 1.272 . S
O210 Tb188 2.344 . S
O210 C223 1.272 . S
O211 Tb177 2.344 . S
O211 C222 1.272 . S
O212 Tb176 2.344 . S
O212 C230 1.272 . S
O213 Tb191 2.344 1_556 S
O213 C231 1.272 . S
O214 Tb191 2.344 . S
O214 C229 1.272 . S
O215 Tb176 2.344 1_556 S
O215 C228 1.272 . S
O216 Tb187 2.344 . S
O216 C227 1.272 . S
O217 Tb178 2.344 . S
O217 C226 1.272 . S
O218 Tb178 2.344 . S
O218 C224 1.272 . S
O219 Tb187 2.344 . S
O219 C225 1.272 . S
C220 O196 1.272 . S
C220 O208 1.272 . S
C221 O197 1.272 . S
C221 O209 1.272 . S
C222 O198 1.272 . S
C222 O211 1.272 . S
C223 O199 1.272 . S
C223 O210 1.272 . S
C224 O200 1.272 . S
C224 O218 1.272 . S
C225 O201 1.272 . S
C225 O219 1.272 . S
C226 O202 1.272 . S
C226 O217 1.272 . S
C227 O203 1.272 . S
C227 O216 1.272 . S
C228 O204 1.272 . S
C228 O215 1.272 . S
C229 O205 1.272 . S
C229 O214 1.272 . S
C230 O206 1.272 . S
C230 O212 1.272 . S
C231 O207 1.272 . S
C231 O213 1.272 . S
C232 C233 1.349 1_655 S
C232 C234 1.327 . S
C232 H257 0.950 . S
C233 C232 1.349 1_455 S
C233 C249 1.349 . S
C234 C232 1.327 . S
C234 C253 1.429 1_655 S
C234 H258 0.950 . S
C235 C252 1.574 . S
C235 C254 1.368 . S
C235 H259 0.949 . S
H236 C240 0.949 . S
C237 C238 1.349 . S
C237 C239 1.327 . S
C237 H260 0.950 . S
C238 C237 1.349 . S
C238 C250 1.349 1_455 S
C239 C237 1.327 . S
C239 C255 1.429 . S
C239 H261 0.950 . S
C240 H236 0.949 . S
C240 C248 1.574 . S
C240 C256 1.368 1_655 S
H241 C249 0.950 . S
H242 C247 0.950 . S
H243 C248 0.949 . S
H244 C250 0.950 . S
H245 C251 0.950 . S
H246 C252 0.949 . S
C247 H242 0.950 . S
C247 C249 1.327 . S
C247 C253 1.429 . S
C248 C240 1.574 . S
C248 H243 0.949 . S
C248 C254 1.368 1_655 S
C249 C233 1.349 . S
C249 H241 0.950 . S
C249 C247 1.327 . S
C250 C238 1.349 1_655 S
C250 H244 0.950 . S
C250 C251 1.327 . S
C251 H245 0.950 . S
C251 C250 1.327 . S
C251 C255 1.429 1_655 S
C252 C235 1.574 . S
C252 H246 0.949 . S
C252 C256 1.368 . S
C253 C234 1.429 1_455 S
C253 C247 1.429 . S
C253 C254 1.523 . S
C254 C235 1.368 . S
C254 C248 1.368 1_455 S
C254 C253 1.523 . S
C255 C239 1.429 . S
C255 C251 1.429 1_455 S
C255 C256 1.523 . S
C256 C240 1.368 1_455 S
C256 C252 1.368 . S
C256 C255 1.523 . S
H257 C232 0.950 . S
H258 C234 0.950 . S
H259 C235 0.949 . S
H260 C237 0.950 . S
H261 C239 0.950 . S
C262 C263 1.349 1_565 S
C262 C264 1.327 . S
C262 H287 0.950 . S
C263 C262 1.349 1_545 S
C263 C279 1.349 . S
C264 C262 1.327 . S
C264 C283 1.429 1_565 S
C264 H288 0.950 . S
C265 C282 1.574 . S
C265 C284 1.368 . S
C265 H289 0.949 . S
H266 C270 0.949 . S
C267 C268 1.349 . S
C267 C269 1.327 . S
C267 H290 0.950 . S
C268 C267 1.349 . S
C268 C280 1.349 1_545 S
C269 C267 1.327 . S
C269 C285 1.429 . S
C269 H291 0.950 . S
C270 H266 0.949 . S
C270 C278 1.574 . S
C270 C286 1.368 1_565 S
H271 C279 0.950 . S
H272 C277 0.950 . S
H273 C278 0.949 . S
H274 C280 0.950 . S
H275 C281 0.950 . S
H276 C282 0.949 . S
C277 H272 0.950 . S
C277 C279 1.327 . S
C277 C283 1.429 . S
C278 C270 1.574 . S
C278 H273 0.949 . S
C278 C284 1.368 1_565 S
C279 C263 1.349 . S
C279 H271 0.950 . S
C279 C277 1.327 . S
C280 C268 1.349 1_565 S
C280 H274 0.950 . S
C280 C281 1.327 . S
C281 H275 0.950 . S
C281 C280 1.327 . S
C281 C285 1.429 1_565 S
C282 C265 1.574 . S
C282 H276 0.949 . S
C282 C286 1.368 . S
C283 C264 1.429 1_545 S
C283 C277 1.429 . S
C283 C284 1.523 . S
C284 C265 1.368 . S
C284 C278 1.368 1_545 S
C284 C283 1.523 . S
C285 C269 1.429 . S
C285 C281 1.429 1_545 S
C285 C286 1.523 . S
C286 C270 1.368 1_545 S
C286 C282 1.368 . S
C286 C285 1.523 . S
H287 C262 0.950 . S
H288 C264 0.950 . S
H289 C265 0.949 . S
H290 C267 0.950 . S
H291 C269 0.950 . S
C292 C293 1.349 . S
C292 C294 1.327 . S
C292 H317 0.950 . S
C293 C292 1.349 . S
C293 C309 1.349 1_455 S
C294 C292 1.327 . S
C294 C313 1.429 . S
C294 H318 0.950 . S
C295 C312 1.574 . S
C295 C314 1.368 1_655 S
C295 H319 0.949 . S
H296 C300 0.949 . S
C297 C298 1.349 1_655 S
C297 C299 1.327 . S
C297 H320 0.950 . S
C298 C297 1.349 1_455 S
C298 C310 1.349 . S
C299 C297 1.327 . S
C299 C315 1.429 1_655 S
C299 H321 0.950 . S
C300 H296 0.949 . S
C300 C308 1.574 . S
C300 C316 1.368 . S
H301 C309 0.950 . S
H302 C307 0.950 . S
H303 C308 0.949 . S
H304 C310 0.950 . S
H305 C311 0.950 . S
H306 C312 0.949 . S
C307 H302 0.950 . S
C307 C309 1.327 . S
C307 C313 1.429 1_655 S
C308 C300 1.574 . S
C308 H303 0.949 . S
C308 C314 1.368 . S
C309 C293 1.349 1_655 S
C309 H301 0.950 . S
C309 C307 1.327 . S
C310 C298 1.349 . S
C310 H304 0.950 . S
C310 C311 1.327 . S
C311 H305 0.950 . S
C311 C310 1.327 . S
C311 C315 1.429 . S
C312 C295 1.574 . S
C312 H306 0.949 . S
C312 C316 1.368 1_655 S
C313 C294 1.429 . S
C313 C307 1.429 1_455 S
C313 C314 1.523 . S
C314 C295 1.368 1_455 S
C314 C308 1.368 . S
C314 C313 1.523 . S
C315 C299 1.429 1_455 S
C315 C311 1.429 . S
C315 C316 1.523 . S
C316 C300 1.368 . S
C316 C312 1.368 1_455 S
C316 C315 1.523 . S
H317 C292 0.950 . S
H318 C294 0.950 . S
H319 C295 0.949 . S
H320 C297 0.950 . S
H321 C299 0.950 . S
C322 C323 1.349 1_565 S
C322 C324 1.327 . S
C322 H347 0.950 . S
C323 C322 1.349 1_545 S
C323 C339 1.349 . S
C324 C322 1.327 . S
C324 C343 1.429 1_565 S
C324 H348 0.950 . S
C325 C342 1.574 . S
C325 C344 1.368 . S
C325 H349 0.949 . S
H326 C330 0.949 . S
C327 C328 1.349 . S
C327 C329 1.327 . S
C327 H350 0.950 . S
C328 C327 1.349 . S
C328 C340 1.349 1_545 S
C329 C327 1.327 . S
C329 C345 1.429 . S
C329 H351 0.950 . S
C330 H326 0.949 . S
C330 C338 1.574 . S
C330 C346 1.368 1_565 S
H331 C339 0.950 . S
H332 C337 0.950 . S
H333 C338 0.949 . S
H334 C340 0.950 . S
H335 C341 0.950 . S
H336 C342 0.949 . S
C337 H332 0.950 . S
C337 C339 1.327 . S
C337 C343 1.429 . S
C338 C330 1.574 . S
C338 H333 0.949 . S
C338 C344 1.368 1_565 S
C339 C323 1.349 . S
C339 H331 0.950 . S
C339 C337 1.327 . S
C340 C328 1.349 1_565 S
C340 H334 0.950 . S
C340 C341 1.327 . S
C341 H335 0.950 . S
C341 C340 1.327 . S
C341 C345 1.429 1_565 S
C342 C325 1.574 . S
C342 H336 0.949 . S
C342 C346 1.368 . S
C343 C324 1.429 1_545 S
C343 C337 1.429 . S
C343 C344 1.523 . S
C344 C325 1.368 . S
C344 C338 1.368 1_545 S
C344 C343 1.523 . S
C345 C329 1.429 . S
C345 C341 1.429 1_545 S
C345 C346 1.523 . S
C346 C330 1.368 1_545 S
C346 C342 1.368 . S
C346 C345 1.523 . S
H347 C322 0.950 . S
H348 C324 0.950 . S
H349 C325 0.949 . S
H350 C327 0.950 . S
H351 C329 0.950 . S
C352 C353 1.349 . S
C352 C354 1.327 . S
C352 H377 0.950 . S
C353 C352 1.349 . S
C353 C369 1.349 1_455 S
C354 C352 1.327 . S
C354 C373 1.429 . S
C354 H378 0.950 . S
C355 C372 1.574 . S
C355 C374 1.368 1_655 S
C355 H379 0.949 . S
H356 C360 0.949 . S
C357 C358 1.349 1_655 S
C357 C359 1.327 . S
C357 H380 0.950 . S
C358 C357 1.349 1_455 S
C358 C370 1.349 . S
C359 C357 1.327 . S
C359 C375 1.429 1_655 S
C359 H381 0.950 . S
C360 H356 0.949 . S
C360 C368 1.574 . S
C360 C376 1.368 . S
H361 C369 0.950 . S
H362 C367 0.950 . S
H363 C368 0.949 . S
H364 C370 0.950 . S
H365 C371 0.950 . S
H366 C372 0.949 . S
C367 H362 0.950 . S
C367 C369 1.327 . S
C367 C373 1.429 1_655 S
C368 C360 1.574 . S
C368 H363 0.949 . S
C368 C374 1.368 . S
C369 C353 1.349 1_655 S
C369 H361 0.950 . S
C369 C367 1.327 . S
C370 C358 1.349 . S
C370 H364 0.950 . S
C370 C371 1.327 . S
C371 H365 0.950 . S
C371 C370 1.327 . S
C371 C375 1.429 . S
C372 C355 1.574 . S
C372 H366 0.949 . S
C372 C376 1.368 1_655 S
C373 C354 1.429 . S
C373 C367 1.429 1_455 S
C373 C374 1.523 . S
C374 C355 1.368 1_455 S
C374 C368 1.368 . S
C374 C373 1.523 . S
C375 C359 1.429 1_455 S
C375 C371 1.429 . S
C375 C376 1.523 . S
C376 C360 1.368 . S
C376 C372 1.368 1_455 S
C376 C375 1.523 . S
H377 C352 0.950 . S
H378 C354 0.950 . S
H379 C355 0.949 . S
H380 C357 0.950 . S
H381 C359 0.950 . S
C382 C383 1.349 . S
C382 C384 1.327 . S
C382 H407 0.950 . S
C383 C382 1.349 . S
C383 C399 1.349 1_545 S
C384 C382 1.327 . S
C384 C403 1.429 . S
C384 H408 0.950 . S
C385 C402 1.574 . S
C385 C404 1.368 1_565 S
C385 H409 0.949 . S
H386 C390 0.949 . S
C387 C388 1.349 1_565 S
C387 C389 1.327 . S
C387 H410 0.950 . S
C388 C387 1.349 1_545 S
C388 C400 1.349 . S
C389 C387 1.327 . S
C389 C405 1.429 1_565 S
C389 H411 0.950 . S
C390 H386 0.949 . S
C390 C398 1.574 . S
C390 C406 1.368 . S
H391 C399 0.950 . S
H392 C397 0.950 . S
H393 C398 0.949 . S
H394 C400 0.950 . S
H395 C401 0.950 . S
H396 C402 0.949 . S
C397 H392 0.950 . S
C397 C399 1.327 . S
C397 C403 1.429 1_565 S
C398 C390 1.574 . S
C398 H393 0.949 . S
C398 C404 1.368 . S
C399 C383 1.349 1_565 S
C399 H391 0.950 . S
C399 C397 1.327 . S
C400 C388 1.349 . S
C400 H394 0.950 . S
C400 C401 1.327 . S
C401 H395 0.950 . S
C401 C400 1.327 . S
C401 C405 1.429 . S
C402 C385 1.574 . S
C402 H396 0.949 . S
C402 C406 1.368 1_565 S
C403 C384 1.429 . S
C403 C397 1.429 1_545 S
C403 C404 1.523 . S
C404 C385 1.368 1_545 S
C404 C398 1.368 . S
C404 C403 1.523 . S
C405 C389 1.429 1_545 S
C405 C401 1.429 . S
C405 C406 1.523 . S
C406 C390 1.368 . S
C406 C402 1.368 1_545 S
C406 C405 1.523 . S
H407 C382 0.950 . S
H408 C384 0.950 . S
H409 C385 0.949 . S
H410 C387 0.950 . S
H411 C389 0.950 . S
C412 C413 1.349 . S
C412 C414 1.327 . S
C412 H437 0.950 . S
C413 C412 1.349 . S
C413 C429 1.349 1_455 S
C414 C412 1.327 . S
C414 C433 1.429 . S
C414 H438 0.950 . S
C415 C432 1.574 . S
C415 C434 1.368 1_655 S
C415 H439 0.949 . S
H416 C420 0.949 . S
C417 C418 1.349 1_655 S
C417 C419 1.327 . S
C417 H440 0.950 . S
C418 C417 1.349 1_455 S
C418 C430 1.349 . S
C419 C417 1.327 . S
C419 C435 1.429 1_655 S
C419 H441 0.950 . S
C420 H416 0.949 . S
C420 C428 1.574 . S
C420 C436 1.368 . S
H421 C429 0.950 . S
H422 C427 0.950 . S
H423 C428 0.949 . S
H424 C430 0.950 . S
H425 C431 0.950 . S
H426 C432 0.949 . S
C427 H422 0.950 . S
C427 C429 1.327 . S
C427 C433 1.429 1_655 S
C428 C420 1.574 . S
C428 H423 0.949 . S
C428 C434 1.368 . S
C429 C413 1.349 1_655 S
C429 H421 0.950 . S
C429 C427 1.327 . S
C430 C418 1.349 . S
C430 H424 0.950 . S
C430 C431 1.327 . S
C431 H425 0.950 . S
C431 C430 1.327 . S
C431 C435 1.429 . S
C432 C415 1.574 . S
C432 H426 0.949 . S
C432 C436 1.368 1_655 S
C433 C414 1.429 . S
C433 C427 1.429 1_455 S
C433 C434 1.523 . S
C434 C415 1.368 1_455 S
C434 C428 1.368 . S
C434 C433 1.523 . S
C435 C419 1.429 1_455 S
C435 C431 1.429 . S
C435 C436 1.523 . S
C436 C420 1.368 . S
C436 C432 1.368 1_455 S
C436 C435 1.523 . S
H437 C412 0.950 . S
H438 C414 0.950 . S
H439 C415 0.949 . S
H440 C417 0.950 . S
H441 C419 0.950 . S
C442 C443 1.349 . S
C442 C444 1.327 . S
C442 H467 0.950 . S
C443 C442 1.349 . S
C443 C459 1.349 1_545 S
C444 C442 1.327 . S
C444 C463 1.429 . S
C444 H468 0.950 . S
C445 C462 1.574 . S
C445 C464 1.368 1_565 S
C445 H469 0.949 . S
H446 C450 0.949 . S
C447 C448 1.349 1_565 S
C447 C449 1.327 . S
C447 H470 0.950 . S
C448 C447 1.349 1_545 S
C448 C460 1.349 . S
C449 C447 1.327 . S
C449 C465 1.429 1_565 S
C449 H471 0.950 . S
C450 H446 0.949 . S
C450 C458 1.574 . S
C450 C466 1.368 . S
H451 C459 0.950 . S
H452 C457 0.950 . S
H453 C458 0.949 . S
H454 C460 0.950 . S
H455 C461 0.950 . S
H456 C462 0.949 . S
C457 H452 0.950 . S
C457 C459 1.327 . S
C457 C463 1.429 1_565 S
C458 C450 1.574 . S
C458 H453 0.949 . S
C458 C464 1.368 . S
C459 C443 1.349 1_565 S
C459 H451 0.950 . S
C459 C457 1.327 . S
C460 C448 1.349 . S
C460 H454 0.950 . S
C460 C461 1.327 . S
C461 H455 0.950 . S
C461 C460 1.327 . S
C461 C465 1.429 . S
C462 C445 1.574 . S
C462 H456 0.949 . S
C462 C466 1.368 1_565 S
C463 C444 1.429 . S
C463 C457 1.429 1_545 S
C463 C464 1.523 . S
C464 C445 1.368 1_545 S
C464 C458 1.368 . S
C464 C463 1.523 . S
C465 C449 1.429 1_545 S
C465 C461 1.429 . S
C465 C466 1.523 . S
C466 C450 1.368 . S
C466 C462 1.368 1_545 S
C466 C465 1.523 . S
H467 C442 0.950 . S
H468 C444 0.950 . S
H469 C445 0.949 . S
H470 C447 0.950 . S
H471 C449 0.950 . S
C472 C473 1.349 1_556 S
C472 C474 1.327 . S
C472 H497 0.950 . S
C473 C472 1.349 1_554 S
C473 C489 1.349 . S
C474 C472 1.327 . S
C474 C493 1.429 1_556 S
C474 H498 0.950 . S
C475 C492 1.574 . S
C475 C494 1.368 . S
C475 H499 0.949 . S
H476 C480 0.949 . S
C477 C478 1.349 . S
C477 C479 1.327 . S
C477 H500 0.950 . S
C478 C477 1.349 . S
C478 C490 1.349 1_554 S
C479 C477 1.327 . S
C479 C495 1.429 . S
C479 H501 0.950 . S
C480 H476 0.949 . S
C480 C488 1.574 . S
C480 C496 1.368 1_556 S
H481 C489 0.950 . S
H482 C487 0.950 . S
H483 C488 0.949 . S
H484 C490 0.950 . S
H485 C491 0.950 . S
H486 C492 0.949 . S
C487 H482 0.950 . S
C487 C489 1.327 . S
C487 C493 1.429 . S
C488 C480 1.574 . S
C488 H483 0.949 . S
C488 C494 1.368 1_556 S
C489 C473 1.349 . S
C489 H481 0.950 . S
C489 C487 1.327 . S
C490 C478 1.349 1_556 S
C490 H484 0.950 . S
C490 C491 1.327 . S
C491 H485 0.950 . S
C491 C490 1.327 . S
C491 C495 1.429 1_556 S
C492 C475 1.574 . S
C492 H486 0.949 . S
C492 C496 1.368 . S
C493 C474 1.429 1_554 S
C493 C487 1.429 . S
C493 C494 1.523 . S
C494 C475 1.368 . S
C494 C488 1.368 1_554 S
C494 C493 1.523 . S
C495 C479 1.429 . S
C495 C491 1.429 1_554 S
C495 C496 1.523 . S
C496 C480 1.368 1_554 S
C496 C492 1.368 . S
C496 C495 1.523 . S
H497 C472 0.950 . S
H498 C474 0.950 . S
H499 C475 0.949 . S
H500 C477 0.950 . S
H501 C479 0.950 . S
C502 C503 1.349 1_556 S
C502 C504 1.327 . S
C502 H527 0.950 . S
C503 C502 1.349 1_554 S
C503 C519 1.349 . S
C504 C502 1.327 . S
C504 C523 1.429 1_556 S
C504 H528 0.950 . S
C505 C522 1.574 . S
C505 C524 1.368 . S
C505 H529 0.949 . S
H506 C510 0.949 . S
C507 C508 1.349 . S
C507 C509 1.327 . S
C507 H530 0.950 . S
C508 C507 1.349 . S
C508 C520 1.349 1_554 S
C509 C507 1.327 . S
C509 C525 1.429 . S
C509 H531 0.950 . S
C510 H506 0.949 . S
C510 C518 1.574 . S
C510 C526 1.368 1_556 S
H511 C519 0.950 . S
H512 C517 0.950 . S
H513 C518 0.949 . S
H514 C520 0.950 . S
H515 C521 0.950 . S
H516 C522 0.949 . S
C517 H512 0.950 . S
C517 C519 1.327 . S
C517 C523 1.429 . S
C518 C510 1.574 . S
C518 H513 0.949 . S
C518 C524 1.368 1_556 S
C519 C503 1.349 . S
C519 H511 0.950 . S
C519 C517 1.327 . S
C520 C508 1.349 1_556 S
C520 H514 0.950 . S
C520 C521 1.327 . S
C521 H515 0.950 . S
C521 C520 1.327 . S
C521 C525 1.429 1_556 S
C522 C505 1.574 . S
C522 H516 0.949 . S
C522 C526 1.368 . S
C523 C504 1.429 1_554 S
C523 C517 1.429 . S
C523 C524 1.523 . S
C524 C505 1.368 . S
C524 C518 1.368 1_554 S
C524 C523 1.523 . S
C525 C509 1.429 . S
C525 C521 1.429 1_554 S
C525 C526 1.523 . S
C526 C510 1.368 1_554 S
C526 C522 1.368 . S
C526 C525 1.523 . S
H527 C502 0.950 . S
H528 C504 0.950 . S
H529 C505 0.949 . S
H530 C507 0.950 . S
H531 C509 0.950 . S
C532 C533 1.349 . S
C532 C534 1.327 . S
C532 H557 0.950 . S
C533 C532 1.349 . S
C533 C549 1.349 1_554 S
C534 C532 1.327 . S
C534 C553 1.429 . S
C534 H558 0.950 . S
C535 C552 1.574 . S
C535 C554 1.368 1_556 S
C535 H559 0.949 . S
H536 C540 0.949 . S
C537 C538 1.349 1_556 S
C537 C539 1.327 . S
C537 H560 0.950 . S
C538 C537 1.349 1_554 S
C538 C550 1.349 . S
C539 C537 1.327 . S
C539 C555 1.429 1_556 S
C539 H561 0.950 . S
C540 H536 0.949 . S
C540 C548 1.574 . S
C540 C556 1.368 . S
H541 C549 0.950 . S
H542 C547 0.950 . S
H543 C548 0.949 . S
H544 C550 0.950 . S
H545 C551 0.950 . S
H546 C552 0.949 . S
C547 H542 0.950 . S
C547 C549 1.327 . S
C547 C553 1.429 1_556 S
C548 C540 1.574 . S
C548 H543 0.949 . S
C548 C554 1.368 . S
C549 C533 1.349 1_556 S
C549 H541 0.950 . S
C549 C547 1.327 . S
C550 C538 1.349 . S
C550 H544 0.950 . S
C550 C551 1.327 . S
C551 H545 0.950 . S
C551 C550 1.327 . S
C551 C555 1.429 . S
C552 C535 1.574 . S
C552 H546 0.949 . S
C552 C556 1.368 1_556 S
C553 C534 1.429 . S
C553 C547 1.429 1_554 S
C553 C554 1.523 . S
C554 C535 1.368 1_554 S
C554 C548 1.368 . S
C554 C553 1.523 . S
C555 C539 1.429 1_554 S
C555 C551 1.429 . S
C555 C556 1.523 . S
C556 C540 1.368 . S
C556 C552 1.368 1_554 S
C556 C555 1.523 . S
H557 C532 0.950 . S
H558 C534 0.950 . S
H559 C535 0.949 . S
H560 C537 0.950 . S
H561 C539 0.950 . S
C562 C563 1.349 1_556 S
C562 C564 1.327 . S
C562 H587 0.950 . S
C563 C562 1.349 1_554 S
C563 C579 1.349 . S
C564 C562 1.327 . S
C564 C583 1.429 1_556 S
C564 H588 0.950 . S
C565 C582 1.574 . S
C565 C584 1.368 . S
C565 H589 0.949 . S
H566 C570 0.949 . S
C567 C568 1.349 . S
C567 C569 1.327 . S
C567 H590 0.950 . S
C568 C567 1.349 . S
C568 C580 1.349 1_554 S
C569 C567 1.327 . S
C569 C585 1.429 . S
C569 H591 0.950 . S
C570 H566 0.949 . S
C570 C578 1.574 . S
C570 C586 1.368 1_556 S
H571 C579 0.950 . S
H572 C577 0.950 . S
H573 C578 0.949 . S
H574 C580 0.950 . S
H575 C581 0.950 . S
H576 C582 0.949 . S
C577 H572 0.950 . S
C577 C579 1.327 . S
C577 C583 1.429 . S
C578 C570 1.574 . S
C578 H573 0.949 . S
C578 C584 1.368 1_556 S
C579 C563 1.349 . S
C579 H571 0.950 . S
C579 C577 1.327 . S
C580 C568 1.349 1_556 S
C580 H574 0.950 . S
C580 C581 1.327 . S
C581 H575 0.950 . S
C581 C580 1.327 . S
C581 C585 1.429 1_556 S
C582 C565 1.574 . S
C582 H576 0.949 . S
C582 C586 1.368 . S
C583 C564 1.429 1_554 S
C583 C577 1.429 . S
C583 C584 1.523 . S
C584 C565 1.368 . S
C584 C578 1.368 1_554 S
C584 C583 1.523 . S
C585 C569 1.429 . S
C585 C581 1.429 1_554 S
C585 C586 1.523 . S
C586 C570 1.368 1_554 S
C586 C582 1.368 . S
C586 C585 1.523 . S
H587 C562 0.950 . S
H588 C564 0.950 . S
H589 C565 0.949 . S
H590 C567 0.950 . S
H591 C569 0.950 . S
C592 C593 1.349 . S
C592 C594 1.327 . S
C592 H617 0.950 . S
C593 C592 1.349 . S
C593 C609 1.349 . S
C594 C592 1.327 . S
C594 C613 1.429 . S
C594 H618 0.950 . S
C595 C612 1.574 . S
C595 C614 1.368 . S
C595 H619 0.949 . S
H596 C600 0.949 . S
C597 C598 1.349 . S
C597 C599 1.327 . S
C597 H620 0.950 . S
C598 C597 1.349 . S
C598 C610 1.349 . S
C599 C597 1.327 . S
C599 C615 1.429 . S
C599 H621 0.950 . S
C600 H596 0.949 . S
C600 C608 1.574 . S
C600 C616 1.368 . S
H601 C609 0.950 . S
H602 C607 0.950 . S
H603 C608 0.949 . S
H604 C610 0.950 . S
H605 C611 0.950 . S
H606 C612 0.949 . S
C607 H602 0.950 . S
C607 C609 1.327 . S
C607 C613 1.429 . S
C608 C600 1.574 . S
C608 H603 0.949 . S
C608 C614 1.368 . S
C609 C593 1.349 . S
C609 H601 0.950 . S
C609 C607 1.327 . S
C610 C598 1.349 . S
C610 H604 0.950 . S
C610 C611 1.327 . S
C611 H605 0.950 . S
C611 C610 1.327 . S
C611 C615 1.429 . S
C612 C595 1.574 . S
C612 H606 0.949 . S
C612 C616 1.368 . S
C613 C594 1.429 . S
C613 C607 1.429 . S
C613 C614 1.523 . S
C614 C595 1.368 . S
C614 C608 1.368 . S
C614 C613 1.523 . S
C615 C599 1.429 . S
C615 C611 1.429 . S
C615 C616 1.523 . S
C616 C600 1.368 . S
C616 C612 1.368 . S
C616 C615 1.523 . S
H617 C592 0.950 . S
H618 C594 0.950 . S
H619 C595 0.949 . S
H620 C597 0.950 . S
H621 C599 0.950 . S
C622 C623 1.349 . S
C622 C624 1.327 . S
C622 H647 0.950 . S
C623 C622 1.349 . S
C623 C639 1.349 . S
C624 C622 1.327 . S
C624 C643 1.429 . S
C624 H648 0.950 . S
C625 C642 1.574 . S
C625 C644 1.368 . S
C625 H649 0.949 . S
H626 C630 0.949 . S
C627 C628 1.349 . S
C627 C629 1.327 . S
C627 H650 0.950 . S
C628 C627 1.349 . S
C628 C640 1.349 . S
C629 C627 1.327 . S
C629 C645 1.429 . S
C629 H651 0.950 . S
C630 H626 0.949 . S
C630 C638 1.574 . S
C630 C646 1.368 . S
H631 C639 0.950 . S
H632 C637 0.950 . S
H633 C638 0.949 . S
H634 C640 0.950 . S
H635 C641 0.950 . S
H636 C642 0.949 . S
C637 H632 0.950 . S
C637 C639 1.327 . S
C637 C643 1.429 . S
C638 C630 1.574 . S
C638 H633 0.949 . S
C638 C644 1.368 . S
C639 C623 1.349 . S
C639 H631 0.950 . S
C639 C637 1.327 . S
C640 C628 1.349 . S
C640 H634 0.950 . S
C640 C641 1.327 . S
C641 H635 0.950 . S
C641 C640 1.327 . S
C641 C645 1.429 . S
C642 C625 1.574 . S
C642 H636 0.949 . S
C642 C646 1.368 . S
C643 C624 1.429 . S
C643 C637 1.429 . S
C643 C644 1.523 . S
C644 C625 1.368 . S
C644 C638 1.368 . S
C644 C643 1.523 . S
C645 C629 1.429 . S
C645 C641 1.429 . S
C645 C646 1.523 . S
C646 C630 1.368 . S
C646 C642 1.368 . S
C646 C645 1.523 . S
H647 C622 0.950 . S
H648 C624 0.950 . S
H649 C625 0.949 . S
H650 C627 0.950 . S
H651 C629 0.950 . S
C652 C653 1.349 . S
C652 C654 1.327 . S
C652 H677 0.950 . S
C653 C652 1.349 . S
C653 C669 1.349 . S
C654 C652 1.327 . S
C654 C673 1.429 . S
C654 H678 0.950 . S
C655 C672 1.574 . S
C655 C674 1.368 . S
C655 H679 0.949 . S
H656 C660 0.949 . S
C657 C658 1.349 . S
C657 C659 1.327 . S
C657 H680 0.950 . S
C658 C657 1.349 . S
C658 C670 1.349 . S
C659 C657 1.327 . S
C659 C675 1.429 . S
C659 H681 0.950 . S
C660 H656 0.949 . S
C660 C668 1.574 . S
C660 C676 1.368 . S
H661 C669 0.950 . S
H662 C667 0.950 . S
H663 C668 0.949 . S
H664 C670 0.950 . S
H665 C671 0.950 . S
H666 C672 0.949 . S
C667 H662 0.950 . S
C667 C669 1.327 . S
C667 C673 1.429 . S
C668 C660 1.574 . S
C668 H663 0.949 . S
C668 C674 1.368 . S
C669 C653 1.349 . S
C669 H661 0.950 . S
C669 C667 1.327 . S
C670 C658 1.349 . S
C670 H664 0.950 . S
C670 C671 1.327 . S
C671 H665 0.950 . S
C671 C670 1.327 . S
C671 C675 1.429 . S
C672 C655 1.574 . S
C672 H666 0.949 . S
C672 C676 1.368 . S
C673 C654 1.429 . S
C673 C667 1.429 . S
C673 C674 1.523 . S
C674 C655 1.368 . S
C674 C668 1.368 . S
C674 C673 1.523 . S
C675 C659 1.429 . S
C675 C671 1.429 . S
C675 C676 1.523 . S
C676 C660 1.368 . S
C676 C672 1.368 . S
C676 C675 1.523 . S
H677 C652 0.950 . S
H678 C654 0.950 . S
H679 C655 0.949 . S
H680 C657 0.950 . S
H681 C659 0.950 . S
C682 C683 1.349 . S
C682 C684 1.327 . S
C682 H707 0.950 . S
C683 C682 1.349 . S
C683 C699 1.349 . S
C684 C682 1.327 . S
C684 C703 1.429 . S
C684 H708 0.950 . S
C685 C702 1.574 . S
C685 C704 1.368 . S
C685 H709 0.949 . S
H686 C690 0.949 . S
C687 C688 1.349 . S
C687 C689 1.327 . S
C687 H710 0.950 . S
C688 C687 1.349 . S
C688 C700 1.349 . S
C689 C687 1.327 . S
C689 C705 1.429 . S
C689 H711 0.950 . S
C690 H686 0.949 . S
C690 C698 1.574 . S
C690 C706 1.368 . S
H691 C699 0.950 . S
H692 C697 0.950 . S
H693 C698 0.949 . S
H694 C700 0.950 . S
H695 C701 0.950 . S
H696 C702 0.949 . S
C697 H692 0.950 . S
C697 C699 1.327 . S
C697 C703 1.429 . S
C698 C690 1.574 . S
C698 H693 0.949 . S
C698 C704 1.368 . S
C699 C683 1.349 . S
C699 H691 0.950 . S
C699 C697 1.327 . S
C700 C688 1.349 . S
C700 H694 0.950 . S
C700 C701 1.327 . S
C701 H695 0.950 . S
C701 C700 1.327 . S
C701 C705 1.429 . S
C702 C685 1.574 . S
C702 H696 0.949 . S
C702 C706 1.368 . S
C703 C684 1.429 . S
C703 C697 1.429 . S
C703 C704 1.523 . S
C704 C685 1.368 . S
C704 C698 1.368 . S
C704 C703 1.523 . S
C705 C689 1.429 . S
C705 C701 1.429 . S
C705 C706 1.523 . S
C706 C690 1.368 . S
C706 C702 1.368 . S
C706 C705 1.523 . S
H707 C682 0.950 . S
H708 C684 0.950 . S
H709 C685 0.949 . S
H710 C687 0.950 . S
H711 C689 0.950 . S
C712 C713 1.349 . S
C712 C714 1.327 . S
C712 H737 0.950 . S
C713 C712 1.349 . S
C713 C729 1.349 . S
C714 C712 1.327 . S
C714 C733 1.429 . S
C714 H738 0.950 . S
C715 C732 1.574 . S
C715 C734 1.368 . S
C715 H739 0.949 . S
H716 C720 0.949 . S
C717 C718 1.349 . S
C717 C719 1.327 . S
C717 H740 0.950 . S
C718 C717 1.349 . S
C718 C730 1.349 . S
C719 C717 1.327 . S
C719 C735 1.429 . S
C719 H741 0.950 . S
C720 H716 0.949 . S
C720 C728 1.574 . S
C720 C736 1.368 . S
H721 C729 0.950 . S
H722 C727 0.950 . S
H723 C728 0.949 . S
H724 C730 0.950 . S
H725 C731 0.950 . S
H726 C732 0.949 . S
C727 H722 0.950 . S
C727 C729 1.327 . S
C727 C733 1.429 . S
C728 C720 1.574 . S
C728 H723 0.949 . S
C728 C734 1.368 . S
C729 C713 1.349 . S
C729 H721 0.950 . S
C729 C727 1.327 . S
C730 C718 1.349 . S
C730 H724 0.950 . S
C730 C731 1.327 . S
C731 H725 0.950 . S
C731 C730 1.327 . S
C731 C735 1.429 . S
C732 C715 1.574 . S
C732 H726 0.949 . S
C732 C736 1.368 . S
C733 C714 1.429 . S
C733 C727 1.429 . S
C733 C734 1.523 . S
C734 C715 1.368 . S
C734 C728 1.368 . S
C734 C733 1.523 . S
C735 C719 1.429 . S
C735 C731 1.429 . S
C735 C736 1.523 . S
C736 C720 1.368 . S
C736 C732 1.368 . S
C736 C735 1.523 . S
H737 C712 0.950 . S
H738 C714 0.950 . S
H739 C715 0.949 . S
H740 C717 0.950 . S
H741 C719 0.950 . S
C742 C743 1.349 . S
C742 C744 1.327 . S
C742 H767 0.950 . S
C743 C742 1.349 . S
C743 C759 1.349 . S
C744 C742 1.327 . S
C744 C763 1.429 . S
C744 H768 0.950 . S
C745 C762 1.574 . S
C745 C764 1.368 . S
C745 H769 0.949 . S
H746 C750 0.949 . S
C747 C748 1.349 . S
C747 C749 1.327 . S
C747 H770 0.950 . S
C748 C747 1.349 . S
C748 C760 1.349 . S
C749 C747 1.327 . S
C749 C765 1.429 . S
C749 H771 0.950 . S
C750 H746 0.949 . S
C750 C758 1.574 . S
C750 C766 1.368 . S
H751 C759 0.950 . S
H752 C757 0.950 . S
H753 C758 0.949 . S
H754 C760 0.950 . S
H755 C761 0.950 . S
H756 C762 0.949 . S
C757 H752 0.950 . S
C757 C759 1.327 . S
C757 C763 1.429 . S
C758 C750 1.574 . S
C758 H753 0.949 . S
C758 C764 1.368 . S
C759 C743 1.349 . S
C759 H751 0.950 . S
C759 C757 1.327 . S
C760 C748 1.349 . S
C760 H754 0.950 . S
C760 C761 1.327 . S
C761 H755 0.950 . S
C761 C760 1.327 . S
C761 C765 1.429 . S
C762 C745 1.574 . S
C762 H756 0.949 . S
C762 C766 1.368 . S
C763 C744 1.429 . S
C763 C757 1.429 . S
C763 C764 1.523 . S
C764 C745 1.368 . S
C764 C758 1.368 . S
C764 C763 1.523 . S
C765 C749 1.429 . S
C765 C761 1.429 . S
C765 C766 1.523 . S
C766 C750 1.368 . S
C766 C762 1.368 . S
C766 C765 1.523 . S
H767 C742 0.950 . S
H768 C744 0.950 . S
H769 C745 0.949 . S
H770 C747 0.950 . S
H771 C749 0.950 . S
C772 C773 1.349 . S
C772 C774 1.327 . S
C772 H797 0.950 . S
C773 C772 1.349 . S
C773 C789 1.349 . S
C774 C772 1.327 . S
C774 C793 1.429 . S
C774 H798 0.950 . S
C775 C792 1.574 . S
C775 C794 1.368 . S
C775 H799 0.949 . S
H776 C780 0.949 . S
C777 C778 1.349 . S
C777 C779 1.327 . S
C777 H800 0.950 . S
C778 C777 1.349 . S
C778 C790 1.349 . S
C779 C777 1.327 . S
C779 C795 1.429 . S
C779 H801 0.950 . S
C780 H776 0.949 . S
C780 C788 1.574 . S
C780 C796 1.368 . S
H781 C789 0.950 . S
H782 C787 0.950 . S
H783 C788 0.949 . S
H784 C790 0.950 . S
H785 C791 0.950 . S
H786 C792 0.949 . S
C787 H782 0.950 . S
C787 C789 1.327 . S
C787 C793 1.429 . S
C788 C780 1.574 . S
C788 H783 0.949 . S
C788 C794 1.368 . S
C789 C773 1.349 . S
C789 H781 0.950 . S
C789 C787 1.327 . S
C790 C778 1.349 . S
C790 H784 0.950 . S
C790 C791 1.327 . S
C791 H785 0.950 . S
C791 C790 1.327 . S
C791 C795 1.429 . S
C792 C775 1.574 . S
C792 H786 0.949 . S
C792 C796 1.368 . S
C793 C774 1.429 . S
C793 C787 1.429 . S
C793 C794 1.523 . S
C794 C775 1.368 . S
C794 C788 1.368 . S
C794 C793 1.523 . S
C795 C779 1.429 . S
C795 C791 1.429 . S
C795 C796 1.523 . S
C796 C780 1.368 . S
C796 C792 1.368 . S
C796 C795 1.523 . S
H797 C772 0.950 . S
H798 C774 0.950 . S
H799 C775 0.949 . S
H800 C777 0.950 . S
H801 C779 0.950 . S
C802 C803 1.349 . S
C802 C804 1.327 . S
C802 H827 0.950 . S
C803 C802 1.349 . S
C803 C819 1.349 . S
C804 C802 1.327 . S
C804 C823 1.429 . S
C804 H828 0.950 . S
C805 C822 1.574 . S
C805 C824 1.368 . S
C805 H829 0.949 . S
H806 C810 0.949 . S
C807 C808 1.349 . S
C807 C809 1.327 . S
C807 H830 0.950 . S
C808 C807 1.349 . S
C808 C820 1.349 . S
C809 C807 1.327 . S
C809 C825 1.429 . S
C809 H831 0.950 . S
C810 H806 0.949 . S
C810 C818 1.574 . S
C810 C826 1.368 . S
H811 C819 0.950 . S
H812 C817 0.950 . S
H813 C818 0.949 . S
H814 C820 0.950 . S
H815 C821 0.950 . S
H816 C822 0.949 . S
C817 H812 0.950 . S
C817 C819 1.327 . S
C817 C823 1.429 . S
C818 C810 1.574 . S
C818 H813 0.949 . S
C818 C824 1.368 . S
C819 C803 1.349 . S
C819 H811 0.950 . S
C819 C817 1.327 . S
C820 C808 1.349 . S
C820 H814 0.950 . S
C820 C821 1.327 . S
C821 H815 0.950 . S
C821 C820 1.327 . S
C821 C825 1.429 . S
C822 C805 1.574 . S
C822 H816 0.949 . S
C822 C826 1.368 . S
C823 C804 1.429 . S
C823 C817 1.429 . S
C823 C824 1.523 . S
C824 C805 1.368 . S
C824 C818 1.368 . S
C824 C823 1.523 . S
C825 C809 1.429 . S
C825 C821 1.429 . S
C825 C826 1.523 . S
C826 C810 1.368 . S
C826 C822 1.368 . S
C826 C825 1.523 . S
H827 C802 0.950 . S
H828 C804 0.950 . S
H829 C805 0.949 . S
H830 C807 0.950 . S
H831 C809 0.950 . S
C832 C833 1.349 . S
C832 C834 1.327 . S
C832 H857 0.950 . S
C833 C832 1.349 . S
C833 C849 1.349 . S
C834 C832 1.327 . S
C834 C853 1.429 . S
C834 H858 0.950 . S
C835 C852 1.574 . S
C835 C854 1.368 . S
C835 H859 0.949 . S
H836 C840 0.949 . S
C837 C838 1.349 . S
C837 C839 1.327 . S
C837 H860 0.950 . S
C838 C837 1.349 . S
C838 C850 1.349 . S
C839 C837 1.327 . S
C839 C855 1.429 . S
C839 H861 0.950 . S
C840 H836 0.949 . S
C840 C848 1.574 . S
C840 C856 1.368 . S
H841 C849 0.950 . S
H842 C847 0.950 . S
H843 C848 0.949 . S
H844 C850 0.950 . S
H845 C851 0.950 . S
H846 C852 0.949 . S
C847 H842 0.950 . S
C847 C849 1.327 . S
C847 C853 1.429 . S
C848 C840 1.574 . S
C848 H843 0.949 . S
C848 C854 1.368 . S
C849 C833 1.349 . S
C849 H841 0.950 . S
C849 C847 1.327 . S
C850 C838 1.349 . S
C850 H844 0.950 . S
C850 C851 1.327 . S
C851 H845 0.950 . S
C851 C850 1.327 . S
C851 C855 1.429 . S
C852 C835 1.574 . S
C852 H846 0.949 . S
C852 C856 1.368 . S
C853 C834 1.429 . S
C853 C847 1.429 . S
C853 C854 1.523 . S
C854 C835 1.368 . S
C854 C848 1.368 . S
C854 C853 1.523 . S
C855 C839 1.429 . S
C855 C851 1.429 . S
C855 C856 1.523 . S
C856 C840 1.368 . S
C856 C852 1.368 . S
C856 C855 1.523 . S
H857 C832 0.950 . S
H858 C834 0.950 . S
H859 C835 0.949 . S
H860 C837 0.950 . S
H861 C839 0.950 . S
C862 C863 1.349 . S
C862 C864 1.327 . S
C862 H887 0.950 . S
C863 C862 1.349 . S
C863 C879 1.349 . S
C864 C862 1.327 . S
C864 C883 1.429 . S
C864 H888 0.950 . S
C865 C882 1.574 . S
C865 C884 1.368 . S
C865 H889 0.949 . S
H866 C870 0.949 . S
C867 C868 1.349 . S
C867 C869 1.327 . S
C867 H890 0.950 . S
C868 C867 1.349 . S
C868 C880 1.349 . S
C869 C867 1.327 . S
C869 C885 1.429 . S
C869 H891 0.950 . S
C870 H866 0.949 . S
C870 C878 1.574 . S
C870 C886 1.368 . S
H871 C879 0.950 . S
H872 C877 0.950 . S
H873 C878 0.949 . S
H874 C880 0.950 . S
H875 C881 0.950 . S
H876 C882 0.949 . S
C877 H872 0.950 . S
C877 C879 1.327 . S
C877 C883 1.429 . S
C878 C870 1.574 . S
C878 H873 0.949 . S
C878 C884 1.368 . S
C879 C863 1.349 . S
C879 H871 0.950 . S
C879 C877 1.327 . S
C880 C868 1.349 . S
C880 H874 0.950 . S
C880 C881 1.327 . S
C881 H875 0.950 . S
C881 C880 1.327 . S
C881 C885 1.429 . S
C882 C865 1.574 . S
C882 H876 0.949 . S
C882 C886 1.368 . S
C883 C864 1.429 . S
C883 C877 1.429 . S
C883 C884 1.523 . S
C884 C865 1.368 . S
C884 C878 1.368 . S
C884 C883 1.523 . S
C885 C869 1.429 . S
C885 C881 1.429 . S
C885 C886 1.523 . S
C886 C870 1.368 . S
C886 C882 1.368 . S
C886 C885 1.523 . S
H887 C862 0.950 . S
H888 C864 0.950 . S
H889 C865 0.949 . S
H890 C867 0.950 . S
H891 C869 0.950 . S
C892 C893 1.349 . S
C892 C894 1.327 . S
C892 H917 0.950 . S
C893 C892 1.349 . S
C893 C909 1.349 . S
C894 C892 1.327 . S
C894 C913 1.429 . S
C894 H918 0.950 . S
C895 C912 1.574 . S
C895 C914 1.368 . S
C895 H919 0.949 . S
H896 C900 0.949 . S
C897 C898 1.349 . S
C897 C899 1.327 . S
C897 H920 0.950 . S
C898 C897 1.349 . S
C898 C910 1.349 . S
C899 C897 1.327 . S
C899 C915 1.429 . S
C899 H921 0.950 . S
C900 H896 0.949 . S
C900 C908 1.574 . S
C900 C916 1.368 . S
H901 C909 0.950 . S
H902 C907 0.950 . S
H903 C908 0.949 . S
H904 C910 0.950 . S
H905 C911 0.950 . S
H906 C912 0.949 . S
C907 H902 0.950 . S
C907 C909 1.327 . S
C907 C913 1.429 . S
C908 C900 1.574 . S
C908 H903 0.949 . S
C908 C914 1.368 . S
C909 C893 1.349 . S
C909 H901 0.950 . S
C909 C907 1.327 . S
C910 C898 1.349 . S
C910 H904 0.950 . S
C910 C911 1.327 . S
C911 H905 0.950 . S
C911 C910 1.327 . S
C911 C915 1.429 . S
C912 C895 1.574 . S
C912 H906 0.949 . S
C912 C916 1.368 . S
C913 C894 1.429 . S
C913 C907 1.429 . S
C913 C914 1.523 . S
C914 C895 1.368 . S
C914 C908 1.368 . S
C914 C913 1.523 . S
C915 C899 1.429 . S
C915 C911 1.429 . S
C915 C916 1.523 . S
C916 C900 1.368 . S
C916 C912 1.368 . S
C916 C915 1.523 . S
H917 C892 0.950 . S
H918 C894 0.950 . S
H919 C895 0.949 . S
H920 C897 0.950 . S
H921 C899 0.950 . S
C922 C923 1.349 . S
C922 C924 1.327 . S
C922 H947 0.950 . S
C923 C922 1.349 . S
C923 C939 1.349 . S
C924 C922 1.327 . S
C924 C943 1.429 . S
C924 H948 0.950 . S
C925 C942 1.574 . S
C925 C944 1.368 . S
C925 H949 0.949 . S
H926 C930 0.949 . S
C927 C928 1.349 . S
C927 C929 1.327 . S
C927 H950 0.950 . S
C928 C927 1.349 . S
C928 C940 1.349 . S
C929 C927 1.327 . S
C929 C945 1.429 . S
C929 H951 0.950 . S
C930 H926 0.949 . S
C930 C938 1.574 . S
C930 C946 1.368 . S
H931 C939 0.950 . S
H932 C937 0.950 . S
H933 C938 0.949 . S
H934 C940 0.950 . S
H935 C941 0.950 . S
H936 C942 0.949 . S
C937 H932 0.950 . S
C937 C939 1.327 . S
C937 C943 1.429 . S
C938 C930 1.574 . S
C938 H933 0.949 . S
C938 C944 1.368 . S
C939 C923 1.349 . S
C939 H931 0.950 . S
C939 C937 1.327 . S
C940 C928 1.349 . S
C940 H934 0.950 . S
C940 C941 1.327 . S
C941 H935 0.950 . S
C941 C940 1.327 . S
C941 C945 1.429 . S
C942 C925 1.574 . S
C942 H936 0.949 . S
C942 C946 1.368 . S
C943 C924 1.429 . S
C943 C937 1.429 . S
C943 C944 1.523 . S
C944 C925 1.368 . S
C944 C938 1.368 . S
C944 C943 1.523 . S
C945 C929 1.429 . S
C945 C941 1.429 . S
C945 C946 1.523 . S
C946 C930 1.368 . S
C946 C942 1.368 . S
C946 C945 1.523 . S
H947 C922 0.950 . S
H948 C924 0.950 . S
H949 C925 0.949 . S
H950 C927 0.950 . S
H951 C929 0.950 . S
C233 C51 1.500 . S
C238 C108 1.495 . S
C263 C56 1.500 . S
C268 C173 1.500 . S
C293 C53 1.500 . S
C298 C110 1.500 . S
C323 C170 1.500 . S
C328 C55 1.495 . S
C353 C50 1.500 . S
C358 C109 1.505 . S
C383 C57 1.500 . S
C388 C172 1.500 . S
C413 C111 1.500 . S
C418 C52 1.500 . S
C443 C171 1.500 . S
C448 C54 1.505 . S
C473 C220 1.500 . S
C478 C47 1.495 . S
C503 C223 1.500 . S
C508 C48 1.500 . S
C533 C222 1.500 . S
C538 C49 1.500 . S
C563 C46 1.500 . S
C568 C221 1.505 . S
C593 C231 1.500 . S
C598 C114 1.505 . S
C623 C113 1.500 . S
C628 C228 1.500 . S
C653 C115 1.500 . S
C658 C230 1.495 . S
C683 C229 1.500 . S
C688 C112 1.500 . S
C713 C162 1.500 . S
C718 C105 1.500 . S
C743 C106 1.500 . S
C748 C165 1.495 . S
C773 C107 1.500 . S
C778 C164 1.505 . S
C803 C163 1.500 . S
C808 C104 1.500 . S
C833 C224 1.500 . S
C838 C167 1.500 . S
C863 C169 1.500 . S
C868 C226 1.505 . S
C893 C225 1.500 . S
C898 C166 1.500 . S
C923 C168 1.500 . S
C928 C227 1.495 . S
