# Generated by pormake.
# Topology som, (6)-cn, num edge types: 1
# Building blocks:
#     Node 0, Type 0, BuildingBlock: LEVNOQ01_clean_sbu_1, # of connection points: 6
#     Node 1, Type 0, BuildingBlock: LEVNOQ01_clean_sbu_1, # of connection points: 6
#     Node 2, Type 0, BuildingBlock: LEVNOQ01_clean_sbu_1, # of connection points: 6
#     Node 3, Type 0, BuildingBlock: LEVNOQ01_clean_sbu_1, # of connection points: 6
#     Node 4, Type 0, BuildingBlock: LEVNOQ01_clean_sbu_1, # of connection points: 6
#     Node 5, Type 0, BuildingBlock: LEVNOQ01_clean_sbu_1, # of connection points: 6
#     Node 6, Type 0, BuildingBlock: LEVNOQ01_clean_sbu_1, # of connection points: 6
#     Node 7, Type 0, BuildingBlock: LEVNOQ01_clean_sbu_1, # of connection points: 6
#     Node 8, Type 0, BuildingBlock: LEVNOQ01_clean_sbu_1, # of connection points: 6
#     Node 9, Type 0, BuildingBlock: LEVNOQ01_clean_sbu_1, # of connection points: 6
#     Node 10, Type 0, BuildingBlock: LEVNOQ01_clean_sbu_1, # of connection points: 6
#     Node 11, Type 0, BuildingBlock: LEVNOQ01_clean_sbu_1, # of connection points: 6
#     Node 12, Type 0, BuildingBlock: LEVNOQ01_clean_sbu_1, # of connection points: 6
#     Node 13, Type 0, BuildingBlock: LEVNOQ01_clean_sbu_1, # of connection points: 6
#     Node 14, Type 0, BuildingBlock: LEVNOQ01_clean_sbu_1, # of connection points: 6
#     Node 15, Type 0, BuildingBlock: LEVNOQ01_clean_sbu_1, # of connection points: 6
#     Node 16, Type 0, BuildingBlock: LEVNOQ01_clean_sbu_1, # of connection points: 6
#     Node 17, Type 0, BuildingBlock: LEVNOQ01_clean_sbu_1, # of connection points: 6
#     Node 18, Type 0, BuildingBlock: LEVNOQ01_clean_sbu_1, # of connection points: 6
#     Node 19, Type 0, BuildingBlock: LEVNOQ01_clean_sbu_1, # of connection points: 6
#     Node 20, Type 0, BuildingBlock: LEVNOQ01_clean_sbu_1, # of connection points: 6
#     Node 21, Type 0, BuildingBlock: LEVNOQ01_clean_sbu_1, # of connection points: 6
#     Node 22, Type 0, BuildingBlock: LEVNOQ01_clean_sbu_1, # of connection points: 6
#     Node 23, Type 0, BuildingBlock: LEVNOQ01_clean_sbu_1, # of connection points: 6
#     Node 24, Type 0, BuildingBlock: LEVNOQ01_clean_sbu_1, # of connection points: 6
#     Node 25, Type 0, BuildingBlock: LEVNOQ01_clean_sbu_1, # of connection points: 6
#     Node 26, Type 0, BuildingBlock: LEVNOQ01_clean_sbu_1, # of connection points: 6
#     Node 27, Type 0, BuildingBlock: LEVNOQ01_clean_sbu_1, # of connection points: 6
#     Node 28, Type 0, BuildingBlock: LEVNOQ01_clean_sbu_1, # of connection points: 6
#     Node 29, Type 0, BuildingBlock: LEVNOQ01_clean_sbu_1, # of connection points: 6
#     Node 30, Type 0, BuildingBlock: LEVNOQ01_clean_sbu_1, # of connection points: 6
#     Node 31, Type 0, BuildingBlock: LEVNOQ01_clean_sbu_1, # of connection points: 6
#     Edge 32, Type (0, 0), None
#     Edge 33, Type (0, 0), None
#     Edge 34, Type (0, 0), None
#     Edge 35, Type (0, 0), None
#     Edge 36, Type (0, 0), None
#     Edge 37, Type (0, 0), None
#     Edge 38, Type (0, 0), None
#     Edge 39, Type (0, 0), None
#     Edge 40, Type (0, 0), None
#     Edge 41, Type (0, 0), None
#     Edge 42, Type (0, 0), None
#     Edge 43, Type (0, 0), None
#     Edge 44, Type (0, 0), None
#     Edge 45, Type (0, 0), None
#     Edge 46, Type (0, 0), None
#     Edge 47, Type (0, 0), None
#     Edge 48, Type (0, 0), None
#     Edge 49, Type (0, 0), None
#     Edge 50, Type (0, 0), None
#     Edge 51, Type (0, 0), None
#     Edge 52, Type (0, 0), None
#     Edge 53, Type (0, 0), None
#     Edge 54, Type (0, 0), None
#     Edge 55, Type (0, 0), None
#     Edge 56, Type (0, 0), None
#     Edge 57, Type (0, 0), None
#     Edge 58, Type (0, 0), None
#     Edge 59, Type (0, 0), None
#     Edge 60, Type (0, 0), None
#     Edge 61, Type (0, 0), None
#     Edge 62, Type (0, 0), None
#     Edge 63, Type (0, 0), None
#     Edge 64, Type (0, 0), None
#     Edge 65, Type (0, 0), None
#     Edge 66, Type (0, 0), None
#     Edge 67, Type (0, 0), None
#     Edge 68, Type (0, 0), None
#     Edge 69, Type (0, 0), None
#     Edge 70, Type (0, 0), None
#     Edge 71, Type (0, 0), None
#     Edge 72, Type (0, 0), None
#     Edge 73, Type (0, 0), None
#     Edge 74, Type (0, 0), None
#     Edge 75, Type (0, 0), None
#     Edge 76, Type (0, 0), None
#     Edge 77, Type (0, 0), None
#     Edge 78, Type (0, 0), None
#     Edge 79, Type (0, 0), None
#     Edge 80, Type (0, 0), None
#     Edge 81, Type (0, 0), None
#     Edge 82, Type (0, 0), None
#     Edge 83, Type (0, 0), None
#     Edge 84, Type (0, 0), None
#     Edge 85, Type (0, 0), None
#     Edge 86, Type (0, 0), None
#     Edge 87, Type (0, 0), None
#     Edge 88, Type (0, 0), None
#     Edge 89, Type (0, 0), None
#     Edge 90, Type (0, 0), None
#     Edge 91, Type (0, 0), None
#     Edge 92, Type (0, 0), None
#     Edge 93, Type (0, 0), None
#     Edge 94, Type (0, 0), None
#     Edge 95, Type (0, 0), None
#     Edge 96, Type (0, 0), None
#     Edge 97, Type (0, 0), None
#     Edge 98, Type (0, 0), None
#     Edge 99, Type (0, 0), None
#     Edge 100, Type (0, 0), None
#     Edge 101, Type (0, 0), None
#     Edge 102, Type (0, 0), None
#     Edge 103, Type (0, 0), None
#     Edge 104, Type (0, 0), None
#     Edge 105, Type (0, 0), None
#     Edge 106, Type (0, 0), None
#     Edge 107, Type (0, 0), None
#     Edge 108, Type (0, 0), None
#     Edge 109, Type (0, 0), None
#     Edge 110, Type (0, 0), None
#     Edge 111, Type (0, 0), None
#     Edge 112, Type (0, 0), None
#     Edge 113, Type (0, 0), None
#     Edge 114, Type (0, 0), None
#     Edge 115, Type (0, 0), None
#     Edge 116, Type (0, 0), None
#     Edge 117, Type (0, 0), None
#     Edge 118, Type (0, 0), None
#     Edge 119, Type (0, 0), None
#     Edge 120, Type (0, 0), None
#     Edge 121, Type (0, 0), None
#     Edge 122, Type (0, 0), None
#     Edge 123, Type (0, 0), None
#     Edge 124, Type (0, 0), None
#     Edge 125, Type (0, 0), None
#     Edge 126, Type (0, 0), None
#     Edge 127, Type (0, 0), None
# Relax obj value: 0.035
# Max RMSD: 0.074
# Mean RMSD: 0.074
data_MOF--net-som--node1-LEVNOQ01_clean_sbu_1--edge1-none
_symmetry_space_group_name_H-M    P1
_symmetry_Int_Tables_number       1
_symmetry_cell_setting            triclinic
loop_
_symmetry_equiv_pos_as_xyz
'x, y, z'
_cell_length_a     8.1393022
_cell_length_b     30.357781
_cell_length_c     56.293502
_cell_angle_alpha  85.960332
_cell_angle_beta   89.99256
_cell_angle_gamma 89.999848
loop_
_atom_site_label
_atom_site_type_symbol
_atom_site_fract_x
_atom_site_fract_y
_atom_site_fract_z
_atom_type_partial_charge
O0 O 0.39962 0.53061 0.03029 0.0
Mg1 Mg 0.19785 0.5514 0.00983 0.0
O2 O 0.26039 0.5085 0.06357 0.0
Mg3 Mg -0.02923 0.50762 0.059 0.0
O4 O 0.02016 0.50832 0.01968 0.0
O5 O 0.10331 0.51674 0.98222 0.0
O6 O 0.68429 0.51126 0.05361 0.0
O7 O 0.9184 0.42892 0.06295 0.0
Mg8 Mg 0.71506 0.48407 0.10712 0.0
O9 O 0.93807 0.50698 0.09834 0.0
O10 O 0.54805 0.52273 0.0872 0.0
O11 O 0.72093 0.42249 0.09111 0.0
O12 O 0.87857 0.49309 0.13591 0.0
C13 C 0.03829 0.61636 0.04128 0.0
C14 C 0.39493 0.51818 0.05225 0.0
C15 C 0.01112 0.49698 -0.00177 0.0
C16 C 0.55038 0.51739 0.06503 0.0
C17 C 0.80383 0.40654 0.07452 0.0
C18 C -0.01056 0.49859 0.11976 0.0
O19 O 0.10518 0.60973 0.0215 0.0
O20 O -0.01086 0.58525 0.05621 0.0
O21 O 0.72944 0.78453 0.02885 0.0
Mg22 Mg 0.88837 0.74249 0.01385 0.0
O23 O 0.87069 0.76044 0.0611 0.0
Mg24 Mg 0.15921 0.75945 0.05551 0.0
O25 O 0.11687 0.76678 0.01507 0.0
O26 O 0.01147 0.73836 0.98251 0.0
O27 O 0.44498 0.7623 0.05086 0.0
O28 O 0.20549 0.8373 0.06041 0.0
Mg29 Mg 0.39623 0.77212 0.1063 0.0
O30 O 0.19334 0.74392 0.09443 0.0
O31 O 0.58449 0.75032 0.08506 0.0
O32 O 0.36107 0.83873 0.09352 0.0
O33 O 0.25144 0.73462 0.13219 0.0
C34 C 0.00965 0.66218 0.04521 0.0
C35 C 0.73421 0.77041 0.05056 0.0
C36 C 0.13402 0.74305 -0.00328 0.0
C37 C 0.57985 0.7597 0.06274 0.0
C38 C 0.29585 0.85801 0.07502 0.0
C39 C 0.15278 0.72726 0.11516 0.0
O40 O 0.88943 0.67968 0.03366 0.0
O41 O 0.13208 0.68496 0.05163 0.0
O42 O 0.39945 0.6767 0.20949 0.0
Mg43 Mg 0.1976 0.6559 0.22994 0.0
O44 O 0.26029 0.69884 0.17623 0.0
Mg45 Mg -0.02934 0.69971 0.1808 0.0
O46 O 0.01994 0.69901 0.22013 0.0
O47 O 0.10321 0.69051 0.25758 0.0
O48 O 0.68416 0.69607 0.18618 0.0
O49 O 0.91826 0.77841 0.17685 0.0
Mg50 Mg 0.71506 0.72326 0.13267 0.0
O51 O 0.93806 0.70036 0.14146 0.0
O52 O 0.548 0.6846 0.15259 0.0
O53 O 0.72089 0.78483 0.14868 0.0
O54 O 0.87861 0.71424 0.10388 0.0
C55 C 0.03815 0.59096 0.19848 0.0
C56 C 0.39481 0.68915 0.18754 0.0
C57 C 0.01104 0.71031 0.24159 0.0
C58 C 0.55028 0.68994 0.17476 0.0
C59 C 0.80373 0.80078 0.16527 0.0
C60 C -0.01059 0.70876 0.12003 0.0
O61 O 0.105 0.59757 0.21827 0.0
O62 O -0.01098 0.62209 0.18357 0.0
O63 O 0.72923 0.4228 0.21094 0.0
Mg64 Mg 0.88809 0.46489 0.2259 0.0
O65 O 0.87054 0.44688 0.17869 0.0
Mg66 Mg 0.15906 0.44786 0.18428 0.0
O67 O 0.11659 0.44053 0.22472 0.0
O68 O 0.01113 0.46913 0.25723 0.0
O69 O 0.44482 0.44501 0.18893 0.0
O70 O 0.20533 0.37002 0.17938 0.0
Mg71 Mg 0.39618 0.4352 0.13349 0.0
O72 O 0.19326 0.4634 0.14536 0.0
O73 O 0.58439 0.45701 0.15473 0.0
O74 O 0.36099 0.36859 0.14628 0.0
O75 O 0.25145 0.4727 0.1076 0.0
C76 C 0.00952 0.54515 0.19454 0.0
C77 C 0.73404 0.43691 0.18923 0.0
C78 C 0.13389 0.46422 0.24309 0.0
C79 C 0.57971 0.44762 0.17705 0.0
C80 C 0.29574 0.34931 0.16477 0.0
C81 C 0.15275 0.48005 0.12463 0.0
O82 O 0.8891 0.52766 0.20605 0.0
O83 O 0.13203 0.52235 0.18816 0.0
O84 O 0.19214 0.53719 0.89937 0.0
Mg85 Mg 0.19922 0.47554 0.88346 0.0
O86 O -0.00502 0.5304 0.92753 0.0
Mg87 Mg 0.94375 0.45169 0.93143 0.0
O88 O -0.02345 0.45194 0.89205 0.0
O89 O 0.03865 0.4656 0.85452 0.0
O90 O 0.92547 0.37413 0.93424 0.0
O91 O 0.65427 0.45093 0.92686 0.0
Mg92 Mg 0.71673 0.408 0.9806 0.0
O93 O 0.89435 0.4511 0.97075 0.0
O94 O 0.80898 0.34963 0.9689 0.0
O95 O 0.51509 0.42892 0.96016 0.0
O96 O 0.8115 0.44261 0.00822 0.0
C97 C 0.36435 0.44216 0.92543 0.0
C98 C 0.10909 0.55296 0.91599 0.0
C99 C 0.92681 0.45963 0.87049 0.0
C100 C 0.87601 0.34302 0.94912 0.0
C101 C 0.51976 0.44134 0.9382 0.0
C102 C 0.90362 0.46237 0.99221 0.0
O103 O 0.36687 0.43702 0.90325 0.0
O104 O 0.23032 0.44814 0.93686 0.0
O105 O 0.18474 0.17481 0.96149 0.0
Mg106 Mg 0.02616 0.21691 0.97654 0.0
O107 O 0.04388 0.1992 0.92927 0.0
Mg108 Mg 0.75536 0.19994 0.93481 0.0
O109 O 0.79762 0.19272 0.97526 0.0
O110 O 0.90279 0.22106 0.00786 0.0
O111 O 0.46968 0.19702 0.93958 0.0
O112 O 0.70931 0.12211 0.92995 0.0
Mg113 Mg 0.51592 0.18747 0.88437 0.0
O114 O 0.72135 0.21516 0.89576 0.0
O115 O 0.33025 0.21063 0.90553 0.0
O116 O 0.54875 0.12085 0.89734 0.0
O117 O 0.66057 0.22348 0.858 0.0
C118 C 0.90468 0.29722 0.94517 0.0
C119 C 0.18027 0.1892 0.93983 0.0
C120 C 0.78035 0.21643 0.99362 0.0
C121 C 0.33472 0.20031 0.92776 0.0
C122 C 0.61645 0.10148 0.91561 0.0
C123 C 0.76152 0.23072 0.87478 0.0
O124 O 0.02486 0.27971 0.95673 0.0
O125 O 0.78236 0.27445 0.93869 0.0
O126 O 0.51527 0.27822 0.77973 0.0
Mg127 Mg 0.71691 0.29928 0.75932 0.0
O128 O 0.65434 0.25604 0.81301 0.0
Mg129 Mg 0.9439 0.2553 0.80844 0.0
O130 O 0.89468 0.2562 0.7691 0.0
O131 O 0.81172 0.2648 0.73165 0.0
O132 O 0.23042 0.25888 0.80302 0.0
O133 O -0.00449 0.17664 0.81225 0.0
Mg134 Mg 0.19959 0.23144 0.85648 0.0
O135 O -0.02344 0.25453 0.8478 0.0
O136 O 0.36676 0.27007 0.83662 0.0
O137 O 0.19243 0.16987 0.84047 0.0
O138 O 0.03837 0.24161 0.88537 0.0
C139 C 0.87616 0.36404 0.79095 0.0
C140 C 0.51986 0.2657 0.80168 0.0
C141 C 0.90379 0.24496 0.74763 0.0
C142 C 0.36439 0.26487 0.81444 0.0
C143 C 0.10957 0.1541 0.82383 0.0
C144 C 0.92663 0.2474 0.86938 0.0
O145 O 0.8091 0.35754 0.77116 0.0
O146 O 0.92567 0.33285 0.80579 0.0
O147 O 0.18531 0.5322 0.77842 0.0
Mg148 Mg 0.02685 0.48991 0.76351 0.0
O149 O 0.04439 0.5079 0.81066 0.0
Mg150 Mg 0.75584 0.50713 0.80512 0.0
O151 O 0.79827 0.51417 0.76466 0.0
O152 O 0.90387 0.48547 0.73219 0.0
O153 O 0.4702 0.51005 0.80035 0.0
O154 O 0.70991 0.58497 0.8099 0.0
Mg155 Mg 0.51628 0.51973 0.85556 0.0
O156 O 0.72171 0.49208 0.84417 0.0
O157 O 0.33074 0.49651 0.8344 0.0
O158 O 0.54922 0.58627 0.8425 0.0
O159 O 0.6611 0.48376 0.88194 0.0
C160 C 0.90503 0.4098 0.79496 0.0
C161 C 0.18081 0.51788 0.8001 0.0
C162 C 0.78106 0.49041 0.74632 0.0
C163 C 0.33523 0.50679 0.81218 0.0
C164 C 0.61695 0.60561 0.82422 0.0
C165 C 0.76195 0.47653 0.86514 0.0
O166 O 0.02567 0.42726 0.78348 0.0
O167 O 0.78254 0.43262 0.80132 0.0
O168 O 0.39962 0.03061 0.53029 0.0
Mg169 Mg 0.19785 0.0514 0.50984 0.0
O170 O 0.2604 0.0085 0.56357 0.0
Mg171 Mg -0.02923 0.00762 0.559 0.0
O172 O 0.02016 0.00832 0.51968 0.0
O173 O 0.10331 0.01674 0.48222 0.0
O174 O 0.68429 0.01126 0.55361 0.0
O175 O 0.9184 0.92892 0.56295 0.0
Mg176 Mg 0.71506 -0.01593 0.60712 0.0
O177 O 0.93807 0.00698 0.59834 0.0
O178 O 0.54805 0.02273 0.5872 0.0
O179 O 0.72093 0.92249 0.59111 0.0
O180 O 0.87857 -0.00691 0.63591 0.0
C181 C 0.03829 0.11636 0.54128 0.0
C182 C 0.39493 0.01818 0.55225 0.0
C183 C 0.01112 -0.00302 0.49823 0.0
C184 C 0.55038 0.01739 0.56503 0.0
C185 C 0.80383 0.90654 0.57452 0.0
C186 C -0.01056 -0.00141 0.61976 0.0
O187 O 0.10518 0.10973 0.5215 0.0
O188 O -0.01086 0.08525 0.55621 0.0
O189 O 0.72944 0.28453 0.52885 0.0
Mg190 Mg 0.88837 0.24249 0.51385 0.0
O191 O 0.87069 0.26044 0.5611 0.0
Mg192 Mg 0.15921 0.25945 0.55551 0.0
O193 O 0.11687 0.26678 0.51507 0.0
O194 O 0.01147 0.23836 0.48251 0.0
O195 O 0.44498 0.2623 0.55086 0.0
O196 O 0.20549 0.3373 0.56041 0.0
Mg197 Mg 0.39623 0.27212 0.6063 0.0
O198 O 0.19334 0.24392 0.59443 0.0
O199 O 0.58449 0.25032 0.58506 0.0
O200 O 0.36107 0.33873 0.59352 0.0
O201 O 0.25144 0.23462 0.63219 0.0
C202 C 0.00965 0.16218 0.54522 0.0
C203 C 0.73421 0.27041 0.55056 0.0
C204 C 0.13402 0.24305 0.49672 0.0
C205 C 0.57985 0.2597 0.56274 0.0
C206 C 0.29585 0.35801 0.57503 0.0
C207 C 0.15278 0.22726 0.61516 0.0
O208 O 0.88943 0.17968 0.53366 0.0
O209 O 0.13208 0.18496 0.55163 0.0
O210 O 0.39945 0.17669 0.70949 0.0
Mg211 Mg 0.1976 0.15589 0.72994 0.0
O212 O 0.26029 0.19883 0.67623 0.0
Mg213 Mg -0.02934 0.19971 0.6808 0.0
O214 O 0.01994 0.19901 0.72013 0.0
O215 O 0.10321 0.19051 0.75758 0.0
O216 O 0.68416 0.19607 0.68618 0.0
O217 O 0.91826 0.27841 0.67685 0.0
Mg218 Mg 0.71506 0.22325 0.63267 0.0
O219 O 0.93806 0.20036 0.64146 0.0
O220 O 0.548 0.1846 0.65259 0.0
O221 O 0.72089 0.28483 0.64868 0.0
O222 O 0.87861 0.21424 0.60388 0.0
C223 C 0.03815 0.09096 0.69848 0.0
C224 C 0.39481 0.18915 0.68754 0.0
C225 C 0.01104 0.21031 0.74159 0.0
C226 C 0.55028 0.18994 0.67476 0.0
C227 C 0.80373 0.30078 0.66527 0.0
C228 C -0.01059 0.20875 0.62003 0.0
O229 O 0.105 0.09756 0.71827 0.0
O230 O -0.01098 0.12209 0.68357 0.0
O231 O 0.72923 0.92279 0.71094 0.0
Mg232 Mg 0.88809 0.96489 0.7259 0.0
O233 O 0.87054 0.94687 0.67869 0.0
Mg234 Mg 0.15906 0.94786 0.68428 0.0
O235 O 0.11659 0.94053 0.72472 0.0
O236 O 0.01113 0.96912 0.75723 0.0
O237 O 0.44482 0.94501 0.68893 0.0
O238 O 0.20533 0.87002 0.67938 0.0
Mg239 Mg 0.39617 0.9352 0.63349 0.0
O240 O 0.19326 0.96339 0.64536 0.0
O241 O 0.58439 0.957 0.65473 0.0
O242 O 0.36099 0.86859 0.64628 0.0
O243 O 0.25145 0.9727 0.6076 0.0
C244 C 0.00952 0.04515 0.69454 0.0
C245 C 0.73404 0.9369 0.68923 0.0
C246 C 0.13389 0.96422 0.74309 0.0
C247 C 0.57971 0.94761 0.67705 0.0
C248 C 0.29574 0.8493 0.66477 0.0
C249 C 0.15275 -0.01995 0.62463 0.0
O250 O 0.8891 0.02766 0.70605 0.0
O251 O 0.13203 0.02235 0.68816 0.0
O252 O 0.19214 0.03719 0.39937 0.0
Mg253 Mg 0.19922 0.97554 0.38346 0.0
O254 O -0.00502 0.0304 0.42753 0.0
Mg255 Mg 0.94375 0.95169 0.43143 0.0
O256 O -0.02345 0.95194 0.39205 0.0
O257 O 0.03865 0.9656 0.35452 0.0
O258 O 0.92547 0.87413 0.43424 0.0
O259 O 0.65427 0.95093 0.42686 0.0
Mg260 Mg 0.71673 0.908 0.4806 0.0
O261 O 0.89435 0.9511 0.47075 0.0
O262 O 0.80898 0.84963 0.4689 0.0
O263 O 0.51508 0.92892 0.46016 0.0
O264 O 0.8115 0.94261 0.50822 0.0
C265 C 0.36435 0.94216 0.42543 0.0
C266 C 0.1091 0.05296 0.41599 0.0
C267 C 0.92681 0.95963 0.37049 0.0
C268 C 0.87601 0.84302 0.44912 0.0
C269 C 0.51976 0.94134 0.4382 0.0
C270 C 0.90362 0.96237 0.49221 0.0
O271 O 0.36687 0.93702 0.40325 0.0
O272 O 0.23032 0.94814 0.43686 0.0
O273 O 0.18474 0.67481 0.46149 0.0
Mg274 Mg 0.02616 0.71691 0.47654 0.0
O275 O 0.04388 0.6992 0.42927 0.0
Mg276 Mg 0.75536 0.69994 0.43481 0.0
O277 O 0.79762 0.69272 0.47526 0.0
O278 O 0.90279 0.72106 0.50786 0.0
O279 O 0.46968 0.69702 0.43958 0.0
O280 O 0.70931 0.62211 0.42995 0.0
Mg281 Mg 0.51592 0.68747 0.38437 0.0
O282 O 0.72135 0.71516 0.39576 0.0
O283 O 0.33025 0.71063 0.40553 0.0
O284 O 0.54875 0.62085 0.39734 0.0
O285 O 0.66057 0.72348 0.358 0.0
C286 C 0.90468 0.79722 0.44517 0.0
C287 C 0.18027 0.6892 0.43983 0.0
C288 C 0.78035 0.71643 0.49362 0.0
C289 C 0.33472 0.70031 0.42776 0.0
C290 C 0.61645 0.60148 0.41561 0.0
C291 C 0.76151 0.73072 0.37478 0.0
O292 O 0.02487 0.77971 0.45673 0.0
O293 O 0.78236 0.77445 0.43869 0.0
O294 O 0.51527 0.77822 0.27974 0.0
Mg295 Mg 0.71691 0.79928 0.25932 0.0
O296 O 0.65434 0.75604 0.31302 0.0
Mg297 Mg 0.9439 0.7553 0.30844 0.0
O298 O 0.89468 0.7562 0.2691 0.0
O299 O 0.81171 0.7648 0.23165 0.0
O300 O 0.23042 0.75888 0.30302 0.0
O301 O -0.00449 0.67664 0.31225 0.0
Mg302 Mg 0.19959 0.73144 0.35648 0.0
O303 O -0.02344 0.75453 0.3478 0.0
O304 O 0.36676 0.77008 0.33662 0.0
O305 O 0.19243 0.66987 0.34047 0.0
O306 O 0.03837 0.74161 0.38537 0.0
C307 C 0.87616 0.86404 0.29095 0.0
C308 C 0.51986 0.7657 0.30168 0.0
C309 C 0.90379 0.74496 0.24763 0.0
C310 C 0.36439 0.76487 0.31445 0.0
C311 C 0.10957 0.65411 0.32383 0.0
C312 C 0.92662 0.7474 0.36939 0.0
O313 O 0.8091 0.85754 0.27116 0.0
O314 O 0.92567 0.83285 0.30579 0.0
O315 O 0.18531 0.0322 0.27842 0.0
Mg316 Mg 0.02685 -0.01009 0.26352 0.0
O317 O 0.04439 0.0079 0.31066 0.0
Mg318 Mg 0.75584 0.00713 0.30512 0.0
O319 O 0.79827 0.01418 0.26466 0.0
O320 O 0.90387 -0.01453 0.23219 0.0
O321 O 0.4702 0.01005 0.30035 0.0
O322 O 0.70991 0.08497 0.3099 0.0
Mg323 Mg 0.51628 0.01973 0.35556 0.0
O324 O 0.72171 -0.00792 0.34418 0.0
O325 O 0.33074 -0.00349 0.3344 0.0
O326 O 0.54922 0.08628 0.3425 0.0
O327 O 0.6611 -0.01624 0.38194 0.0
C328 C 0.90503 0.9098 0.29496 0.0
C329 C 0.18081 0.01789 0.3001 0.0
C330 C 0.78106 -0.00959 0.24632 0.0
C331 C 0.33524 0.0068 0.31218 0.0
C332 C 0.61695 0.10561 0.32422 0.0
C333 C 0.76195 0.97653 0.36514 0.0
O334 O 0.02568 0.92726 0.28348 0.0
O335 O 0.78254 0.93262 0.30132 0.0
O336 O 0.89959 0.53062 0.53029 0.0
Mg337 Mg 0.69782 0.55141 0.50983 0.0
O338 O 0.76038 0.50851 0.56356 0.0
Mg339 Mg 0.47075 0.50763 0.559 0.0
O340 O 0.52015 0.50832 0.51967 0.0
O341 O 0.60329 0.51674 0.48222 0.0
O342 O 0.18427 0.51126 0.5536 0.0
O343 O 0.41836 0.42892 0.56294 0.0
Mg344 Mg 0.21501 0.48408 0.60712 0.0
O345 O 0.43804 0.50698 0.59833 0.0
O346 O 0.04804 0.52275 0.58719 0.0
O347 O 0.22082 0.42251 0.5911 0.0
O348 O 0.37853 0.49309 0.63591 0.0
C349 C 0.53825 0.61636 0.54128 0.0
C350 C 0.89491 0.51819 0.55225 0.0
C351 C 0.51111 0.49699 0.49822 0.0
C352 C 0.05036 0.5174 0.56502 0.0
C353 C 0.3037 0.40657 0.5745 0.0
C354 C 0.48941 0.49859 0.61976 0.0
O355 O 0.60512 0.60974 0.5215 0.0
O356 O 0.48913 0.58525 0.55621 0.0
O357 O 0.22942 0.78453 0.52886 0.0
Mg358 Mg 0.38835 0.7425 0.51385 0.0
O359 O 0.37067 0.76043 0.5611 0.0
Mg360 Mg 0.65919 0.75945 0.55551 0.0
O361 O 0.61684 0.76679 0.51507 0.0
O362 O 0.51145 0.73837 0.48251 0.0
O363 O 0.94496 0.7623 0.55086 0.0
O364 O 0.70549 0.83729 0.56042 0.0
Mg365 Mg 0.89624 0.77209 0.60631 0.0
O366 O 0.69331 0.74391 0.59443 0.0
O367 O 0.08447 0.75028 0.58506 0.0
O368 O 0.86115 0.8387 0.59352 0.0
O369 O 0.75143 0.7346 0.63219 0.0
C370 C 0.50962 0.66218 0.54521 0.0
C371 C 0.23419 0.7704 0.55057 0.0
C372 C 0.63399 0.74306 0.49672 0.0
C373 C 0.07983 0.75968 0.56274 0.0
C374 C 0.79596 0.85799 0.57503 0.0
C375 C 0.65276 0.72725 0.61516 0.0
O376 O 0.3894 0.67968 0.53365 0.0
O377 O 0.63205 0.68496 0.55163 0.0
O378 O 0.89942 0.67668 0.7095 0.0
Mg379 Mg 0.69757 0.65588 0.72994 0.0
O380 O 0.76028 0.69883 0.67623 0.0
Mg381 Mg 0.47064 0.6997 0.6808 0.0
O382 O 0.51993 0.699 0.72013 0.0
O383 O 0.60319 0.69051 0.75758 0.0
O384 O 0.18414 0.69606 0.68619 0.0
O385 O 0.41823 0.77841 0.67686 0.0
Mg386 Mg 0.21501 0.72325 0.63267 0.0
O387 O 0.43803 0.70036 0.64147 0.0
O388 O 0.04799 0.68458 0.6526 0.0
O389 O 0.22079 0.78481 0.64869 0.0
O390 O 0.37858 0.71423 0.60388 0.0
C391 C 0.53812 0.59095 0.69849 0.0
C392 C 0.89479 0.68914 0.68754 0.0
C393 C 0.51103 0.71031 0.74159 0.0
C394 C 0.05026 0.68993 0.67477 0.0
C395 C 0.3036 0.80076 0.66529 0.0
C396 C 0.48938 0.70875 0.62004 0.0
O397 O 0.60495 0.59756 0.71827 0.0
O398 O 0.489 0.62208 0.68358 0.0
O399 O 0.22921 0.42279 0.71093 0.0
Mg400 Mg 0.38807 0.46488 0.7259 0.0
O401 O 0.37052 0.44688 0.67869 0.0
Mg402 Mg 0.65904 0.44786 0.68428 0.0
O403 O 0.61657 0.44052 0.72472 0.0
O404 O 0.5111 0.46911 0.75723 0.0
O405 O 0.9448 0.44501 0.68893 0.0
O406 O 0.70533 0.37002 0.67937 0.0
Mg407 Mg 0.89619 0.43523 0.63348 0.0
O408 O 0.69324 0.4634 0.64536 0.0
O409 O 0.08437 0.45704 0.65473 0.0
O410 O 0.86108 0.36862 0.64627 0.0
O411 O 0.75145 0.47272 0.6076 0.0
C412 C 0.50949 0.54514 0.69454 0.0
C413 C 0.23402 0.4369 0.68922 0.0
C414 C 0.63386 0.46421 0.74308 0.0
C415 C 0.07969 0.44763 0.67705 0.0
C416 C 0.79584 0.34933 0.66476 0.0
C417 C 0.65273 0.48006 0.62463 0.0
O418 O 0.38907 0.52765 0.70606 0.0
O419 O 0.63201 0.52235 0.68816 0.0
O420 O 0.69225 0.53718 0.39938 0.0
Mg421 Mg 0.69927 0.47553 0.38346 0.0
O422 O 0.49501 0.5304 0.42754 0.0
Mg423 Mg 0.44377 0.45169 0.43143 0.0
O424 O 0.47658 0.45194 0.39206 0.0
O425 O 0.53868 0.4656 0.35453 0.0
O426 O 0.42549 0.37413 0.43424 0.0
O427 O 0.15429 0.45093 0.42686 0.0
Mg428 Mg 0.21676 0.40799 0.48061 0.0
O429 O 0.39435 0.45109 0.47075 0.0
O430 O 0.30903 0.34963 0.4689 0.0
O431 O 0.01511 0.4289 0.46016 0.0
O432 O 0.31151 0.44261 0.50822 0.0
C433 C 0.86436 0.44214 0.42544 0.0
C434 C 0.60922 0.55294 0.41601 0.0
C435 C 0.42684 0.45963 0.37049 0.0
C436 C 0.37605 0.34301 0.44913 0.0
C437 C 0.01977 0.44133 0.43821 0.0
C438 C 0.40363 0.46237 0.49221 0.0
O439 O 0.86688 0.437 0.40326 0.0
O440 O 0.73034 0.44813 0.43686 0.0
O441 O 0.68476 0.1748 0.46149 0.0
Mg442 Mg 0.52618 0.2169 0.47654 0.0
O443 O 0.5439 0.1992 0.42926 0.0
Mg444 Mg 0.25538 0.19994 0.43481 0.0
O445 O 0.29764 0.19271 0.47526 0.0
O446 O 0.40281 0.22104 0.50786 0.0
O447 O -0.0303 0.19702 0.43958 0.0
O448 O 0.20931 0.12211 0.42994 0.0
Mg449 Mg 0.01589 0.1875 0.38437 0.0
O450 O 0.22137 0.21517 0.39575 0.0
O451 O 0.83028 0.21067 0.40554 0.0
O452 O 0.04866 0.12088 0.39733 0.0
O453 O 0.16057 0.2235 0.358 0.0
C454 C 0.40471 0.29721 0.44517 0.0
C455 C 0.68029 0.1892 0.43982 0.0
C456 C 0.28039 0.21641 0.49362 0.0
C457 C 0.83475 0.20032 0.42776 0.0
C458 C 0.11634 0.1015 0.4156 0.0
C459 C 0.26154 0.23073 0.37478 0.0
O460 O 0.52489 0.2797 0.45674 0.0
O461 O 0.28239 0.27445 0.43869 0.0
O462 O 0.01529 0.27824 0.27973 0.0
Mg463 Mg 0.21693 0.29929 0.25932 0.0
O464 O 0.15436 0.25605 0.31301 0.0
Mg465 Mg 0.44392 0.25531 0.30844 0.0
O466 O 0.39469 0.25621 0.2691 0.0
O467 O 0.31173 0.2648 0.23165 0.0
O468 O 0.73044 0.25889 0.30301 0.0
O469 O 0.49555 0.17664 0.31225 0.0
Mg470 Mg 0.69964 0.23145 0.35648 0.0
O471 O 0.47659 0.25453 0.3478 0.0
O472 O 0.86677 0.2701 0.33662 0.0
O473 O 0.69254 0.16989 0.34046 0.0
O474 O 0.5384 0.24161 0.38537 0.0
C475 C 0.37619 0.36404 0.29095 0.0
C476 C 0.01988 0.26571 0.30168 0.0
C477 C 0.4038 0.24496 0.24763 0.0
C478 C 0.8644 0.26489 0.31444 0.0
C479 C 0.60971 0.15413 0.32381 0.0
C480 C 0.42666 0.2474 0.36938 0.0
O481 O 0.30915 0.35755 0.27116 0.0
O482 O 0.42569 0.33286 0.30578 0.0
O483 O 0.68532 0.53221 0.27843 0.0
Mg484 Mg 0.52687 0.48992 0.26352 0.0
O485 O 0.54441 0.5079 0.31067 0.0
Mg486 Mg 0.25586 0.50713 0.30512 0.0
O487 O 0.29829 0.51419 0.26466 0.0
O488 O 0.4039 0.48548 0.23219 0.0
O489 O -0.02978 0.51005 0.30035 0.0
O490 O 0.20991 0.58496 0.30991 0.0
Mg491 Mg 0.01626 0.5197 0.35557 0.0
O492 O 0.22173 0.49207 0.34418 0.0
O493 O 0.83076 0.49647 0.3344 0.0
O494 O 0.04912 0.58625 0.34251 0.0
O495 O 0.1611 0.48374 0.38194 0.0
C496 C 0.40506 0.40981 0.29496 0.0
C497 C 0.68083 0.51788 0.3001 0.0
C498 C 0.28109 0.49042 0.24633 0.0
C499 C 0.83526 0.50678 0.31218 0.0
C500 C 0.11684 0.60559 0.32423 0.0
C501 C 0.26197 0.47652 0.36515 0.0
O502 O 0.5257 0.42727 0.28348 0.0
O503 O 0.28257 0.43262 0.30132 0.0
O504 O 0.89959 0.03062 0.03029 0.0
Mg505 Mg 0.69782 0.05141 0.00983 0.0
O506 O 0.76038 0.00851 0.06356 0.0
Mg507 Mg 0.47075 0.00763 0.059 0.0
O508 O 0.52015 0.00832 0.01967 0.0
O509 O 0.60329 0.01674 0.98222 0.0
O510 O 0.18427 0.01127 0.0536 0.0
O511 O 0.41836 0.92892 0.06294 0.0
Mg512 Mg 0.21501 -0.01592 0.10712 0.0
O513 O 0.43804 0.00698 0.09833 0.0
O514 O 0.04804 0.02275 0.08719 0.0
O515 O 0.22082 0.92251 0.0911 0.0
O516 O 0.37853 -0.00691 0.13591 0.0
C517 C 0.53825 0.11636 0.04128 0.0
C518 C 0.89491 0.01819 0.05225 0.0
C519 C 0.51111 -0.00301 -0.00178 0.0
C520 C 0.05036 0.0174 0.06502 0.0
C521 C 0.3037 0.90657 0.0745 0.0
C522 C 0.4894 -0.00141 0.11976 0.0
O523 O 0.60512 0.10974 0.0215 0.0
O524 O 0.48913 0.08525 0.05621 0.0
O525 O 0.22942 0.28453 0.02886 0.0
Mg526 Mg 0.38835 0.2425 0.01385 0.0
O527 O 0.37067 0.26043 0.0611 0.0
Mg528 Mg 0.65919 0.25945 0.05551 0.0
O529 O 0.61685 0.26679 0.01507 0.0
O530 O 0.51145 0.23837 0.98251 0.0
O531 O 0.94496 0.2623 0.05086 0.0
O532 O 0.70549 0.3373 0.06042 0.0
Mg533 Mg 0.89625 0.27209 0.10631 0.0
O534 O 0.69332 0.24391 0.09443 0.0
O535 O 0.08447 0.25028 0.08506 0.0
O536 O 0.86115 0.3387 0.09352 0.0
O537 O 0.75144 0.2346 0.13219 0.0
C538 C 0.50962 0.16218 0.04521 0.0
C539 C 0.23419 0.2704 0.05056 0.0
C540 C 0.63399 0.24306 -0.00328 0.0
C541 C 0.07983 0.25968 0.06274 0.0
C542 C 0.79596 0.35799 0.07503 0.0
C543 C 0.65276 0.22725 0.11516 0.0
O544 O 0.3894 0.17968 0.03365 0.0
O545 O 0.63205 0.18496 0.05163 0.0
O546 O 0.89942 0.17668 0.2095 0.0
Mg547 Mg 0.69757 0.15589 0.22994 0.0
O548 O 0.76028 0.19883 0.17623 0.0
Mg549 Mg 0.47064 0.1997 0.1808 0.0
O550 O 0.51993 0.19901 0.22013 0.0
O551 O 0.60319 0.19051 0.25758 0.0
O552 O 0.18414 0.19606 0.18619 0.0
O553 O 0.41823 0.27841 0.17686 0.0
Mg554 Mg 0.21502 0.22325 0.13267 0.0
O555 O 0.43803 0.20036 0.14147 0.0
O556 O 0.04799 0.18458 0.1526 0.0
O557 O 0.22079 0.28481 0.14869 0.0
O558 O 0.37858 0.21424 0.10388 0.0
C559 C 0.53812 0.09096 0.19849 0.0
C560 C 0.89479 0.18914 0.18754 0.0
C561 C 0.51103 0.21031 0.24159 0.0
C562 C 0.05026 0.18993 0.17477 0.0
C563 C 0.3036 0.30076 0.16529 0.0
C564 C 0.48938 0.20876 0.12004 0.0
O565 O 0.60495 0.09756 0.21827 0.0
O566 O 0.489 0.12208 0.18358 0.0
O567 O 0.22921 0.92279 0.21093 0.0
Mg568 Mg 0.38807 0.96488 0.2259 0.0
O569 O 0.37052 0.94688 0.17869 0.0
Mg570 Mg 0.65904 0.94786 0.18428 0.0
O571 O 0.61657 0.94052 0.22472 0.0
O572 O 0.5111 0.96911 0.25723 0.0
O573 O 0.9448 0.94501 0.18893 0.0
O574 O 0.70533 0.87002 0.17937 0.0
Mg575 Mg 0.89619 0.93523 0.13348 0.0
O576 O 0.69324 0.96341 0.14536 0.0
O577 O 0.08437 0.95705 0.15473 0.0
O578 O 0.86108 0.86862 0.14627 0.0
O579 O 0.75145 0.97273 0.1076 0.0
C580 C 0.50949 0.04514 0.19454 0.0
C581 C 0.23402 0.93691 0.18922 0.0
C582 C 0.63386 0.96421 0.24308 0.0
C583 C 0.07969 0.94763 0.17705 0.0
C584 C 0.79584 0.84933 0.16476 0.0
C585 C 0.65273 -0.01994 0.12463 0.0
O586 O 0.38907 0.02765 0.20606 0.0
O587 O 0.63201 0.02235 0.18816 0.0
O588 O 0.69225 0.03718 0.89938 0.0
Mg589 Mg 0.69927 0.97553 0.88346 0.0
O590 O 0.49501 0.0304 0.92754 0.0
Mg591 Mg 0.44377 0.95169 0.93143 0.0
O592 O 0.47658 0.95194 0.89206 0.0
O593 O 0.53868 0.9656 0.85453 0.0
O594 O 0.42549 0.87413 0.93424 0.0
O595 O 0.15429 0.95092 0.92686 0.0
Mg596 Mg 0.21676 0.90799 0.98061 0.0
O597 O 0.39435 0.95109 0.97075 0.0
O598 O 0.30903 0.84963 0.9689 0.0
O599 O 0.01511 0.9289 0.96016 0.0
O600 O 0.31151 0.94261 0.00822 0.0
C601 C 0.86436 0.94214 0.92544 0.0
C602 C 0.60922 0.05294 0.91601 0.0
C603 C 0.42684 0.95963 0.87049 0.0
C604 C 0.37605 0.84301 0.94913 0.0
C605 C 0.01977 0.94133 0.93821 0.0
C606 C 0.40363 0.96237 0.99221 0.0
O607 O 0.86688 0.937 0.90326 0.0
O608 O 0.73034 0.94813 0.93686 0.0
O609 O 0.68476 0.6748 0.96149 0.0
Mg610 Mg 0.52618 0.7169 0.97654 0.0
O611 O 0.5439 0.6992 0.92926 0.0
Mg612 Mg 0.25538 0.69994 0.93481 0.0
O613 O 0.29764 0.69271 0.97526 0.0
O614 O 0.40281 0.72104 0.00786 0.0
O615 O -0.0303 0.69702 0.93958 0.0
O616 O 0.20931 0.62211 0.92994 0.0
Mg617 Mg 0.01589 0.6875 0.88437 0.0
O618 O 0.22137 0.71517 0.89575 0.0
O619 O 0.83028 0.71067 0.90553 0.0
O620 O 0.04866 0.62088 0.89733 0.0
O621 O 0.16057 0.7235 0.858 0.0
C622 C 0.40471 0.79721 0.94517 0.0
C623 C 0.68029 0.6892 0.93982 0.0
C624 C 0.28039 0.71641 0.99362 0.0
C625 C 0.83475 0.70032 0.92776 0.0
C626 C 0.11634 0.6015 0.9156 0.0
C627 C 0.26154 0.73073 0.87478 0.0
O628 O 0.52489 0.7797 0.95674 0.0
O629 O 0.28239 0.77445 0.93869 0.0
O630 O 0.01529 0.77824 0.77973 0.0
Mg631 Mg 0.21693 0.79929 0.75932 0.0
O632 O 0.15436 0.75605 0.81301 0.0
Mg633 Mg 0.44392 0.75531 0.80844 0.0
O634 O 0.39469 0.7562 0.7691 0.0
O635 O 0.31173 0.7648 0.73165 0.0
O636 O 0.73044 0.75889 0.80301 0.0
O637 O 0.49555 0.67664 0.81225 0.0
Mg638 Mg 0.69964 0.73145 0.85647 0.0
O639 O 0.47659 0.75453 0.8478 0.0
O640 O 0.86676 0.7701 0.83661 0.0
O641 O 0.69254 0.66989 0.84046 0.0
O642 O 0.5384 0.74161 0.88537 0.0
C643 C 0.3762 0.86404 0.79095 0.0
C644 C 0.01988 0.76571 0.80168 0.0
C645 C 0.4038 0.74496 0.74763 0.0
C646 C 0.8644 0.76489 0.81444 0.0
C647 C 0.6097 0.65413 0.82381 0.0
C648 C 0.42666 0.7474 0.86938 0.0
O649 O 0.30916 0.85754 0.77116 0.0
O650 O 0.42568 0.83285 0.80578 0.0
O651 O 0.68532 0.0322 0.77843 0.0
Mg652 Mg 0.52687 -0.01008 0.76352 0.0
O653 O 0.54441 0.0079 0.81067 0.0
Mg654 Mg 0.25586 0.00713 0.80512 0.0
O655 O 0.29829 0.01418 0.76466 0.0
O656 O 0.40389 -0.01452 0.73219 0.0
O657 O -0.02978 0.01005 0.80035 0.0
O658 O 0.20991 0.08496 0.80991 0.0
Mg659 Mg 0.01626 0.0197 0.85557 0.0
O660 O 0.22173 -0.00793 0.84418 0.0
O661 O 0.83076 -0.00353 0.8344 0.0
O662 O 0.04912 0.08625 0.84251 0.0
O663 O 0.1611 -0.01626 0.88194 0.0
C664 C 0.40506 0.9098 0.79496 0.0
C665 C 0.68083 0.01788 0.8001 0.0
C666 C 0.28109 -0.00958 0.74632 0.0
C667 C 0.83526 0.00678 0.81218 0.0
C668 C 0.11684 0.10559 0.82423 0.0
C669 C 0.26197 0.97652 0.86515 0.0
O670 O 0.5257 0.92726 0.78348 0.0
O671 O 0.28257 0.93262 0.80132 0.0
loop_
_geom_bond_atom_site_label_1
_geom_bond_atom_site_label_2
_geom_bond_distance
_geom_bond_site_symmetry_2
_ccdc_geom_bond_type
O0 Mg1 1.990 . S
O0 C14 1.253 . S
Mg1 O0 1.990 . S
Mg1 O4 2.180 . S
Mg1 O5 2.117 1_554 S
Mg1 O19 2.030 . S
O2 Mg3 2.072 1_455 S
O2 C14 1.260 . S
Mg3 O2 2.072 1_655 S
Mg3 O4 2.099 1_655 S
Mg3 O6 2.079 . S
Mg3 O7 2.072 . S
Mg3 O9 2.099 . S
Mg3 O20 2.079 1_655 S
O4 Mg1 2.180 . S
O4 Mg3 2.099 1_455 S
O4 C15 1.279 . S
O5 Mg1 2.117 1_556 S
O5 C15 1.250 1_556 S
O6 Mg3 2.079 . S
O6 C16 1.264 . S
O7 Mg3 2.072 . S
O7 C17 1.260 . S
Mg8 O9 2.180 . S
Mg8 O10 2.030 . S
Mg8 O11 1.990 . S
Mg8 O12 2.117 . S
O9 Mg3 2.099 . S
O9 Mg8 2.180 . S
O9 C18 1.279 1_655 S
O10 Mg8 2.030 . S
O10 C16 1.248 . S
O11 Mg8 1.990 . S
O11 C17 1.253 . S
O12 Mg8 2.117 . S
O12 C18 1.250 1_655 S
C13 O19 1.248 . S
C13 O20 1.264 . S
C14 O0 1.253 . S
C14 O2 1.260 . S
C15 O4 1.279 . S
C15 O5 1.250 1_554 S
C16 O6 1.264 . S
C16 O10 1.248 . S
C17 O7 1.260 . S
C17 O11 1.253 . S
C18 O9 1.279 1_455 S
C18 O12 1.250 1_455 S
O19 Mg1 2.030 . S
O19 C13 1.248 . S
O20 Mg3 2.079 1_455 S
O20 C13 1.264 . S
O21 Mg22 1.990 . S
O21 C35 1.253 . S
Mg22 O21 1.990 . S
Mg22 O25 2.180 1_655 S
Mg22 O26 2.117 1_654 S
Mg22 O40 2.030 . S
O23 Mg24 2.072 1_655 S
O23 C35 1.260 . S
Mg24 O23 2.072 1_455 S
Mg24 O25 2.099 . S
Mg24 O27 2.079 . S
Mg24 O28 2.072 . S
Mg24 O30 2.099 . S
Mg24 O41 2.079 . S
O25 Mg22 2.180 1_455 S
O25 Mg24 2.099 . S
O25 C36 1.279 . S
O26 Mg22 2.117 1_456 S
O26 C36 1.250 1_556 S
O27 Mg24 2.079 . S
O27 C37 1.264 . S
O28 Mg24 2.072 . S
O28 C38 1.260 . S
Mg29 O30 2.180 . S
Mg29 O31 2.030 . S
Mg29 O32 1.990 . S
Mg29 O33 2.117 . S
O30 Mg24 2.099 . S
O30 Mg29 2.180 . S
O30 C39 1.279 . S
O31 Mg29 2.030 . S
O31 C37 1.248 . S
O32 Mg29 1.990 . S
O32 C38 1.253 . S
O33 Mg29 2.117 . S
O33 C39 1.250 . S
C34 O40 1.248 1_455 S
C34 O41 1.264 . S
C35 O21 1.253 . S
C35 O23 1.260 . S
C36 O25 1.279 . S
C36 O26 1.250 1_554 S
C37 O27 1.264 . S
C37 O31 1.248 . S
C38 O28 1.260 . S
C38 O32 1.253 . S
C39 O30 1.279 . S
C39 O33 1.250 . S
O40 Mg22 2.030 . S
O40 C34 1.248 1_655 S
O41 Mg24 2.079 . S
O41 C34 1.264 . S
O42 Mg43 1.990 . S
O42 C56 1.253 . S
Mg43 O42 1.990 . S
Mg43 O46 2.180 . S
Mg43 O47 2.117 . S
Mg43 O61 2.030 . S
O44 Mg45 2.072 1_455 S
O44 C56 1.260 . S
Mg45 O44 2.072 1_655 S
Mg45 O46 2.099 1_655 S
Mg45 O48 2.078 . S
Mg45 O49 2.072 . S
Mg45 O51 2.099 . S
Mg45 O62 2.079 1_655 S
O46 Mg43 2.180 . S
O46 Mg45 2.099 1_455 S
O46 C57 1.279 . S
O47 Mg43 2.117 . S
O47 C57 1.250 . S
O48 Mg45 2.078 . S
O48 C58 1.264 . S
O49 Mg45 2.072 . S
O49 C59 1.260 . S
Mg50 O51 2.180 . S
Mg50 O52 2.030 . S
Mg50 O53 1.990 . S
Mg50 O54 2.117 . S
O51 Mg45 2.099 . S
O51 Mg50 2.180 . S
O51 C60 1.279 1_655 S
O52 Mg50 2.030 . S
O52 C58 1.248 . S
O53 Mg50 1.990 . S
O53 C59 1.253 . S
O54 Mg50 2.117 . S
O54 C60 1.250 1_655 S
C55 O61 1.248 . S
C55 O62 1.264 . S
C56 O42 1.253 . S
C56 O44 1.260 . S
C57 O46 1.279 . S
C57 O47 1.250 . S
C58 O48 1.264 . S
C58 O52 1.248 . S
C59 O49 1.260 . S
C59 O53 1.253 . S
C60 O51 1.279 1_455 S
C60 O54 1.250 1_455 S
O61 Mg43 2.030 . S
O61 C55 1.248 . S
O62 Mg45 2.079 1_455 S
O62 C55 1.264 . S
O63 Mg64 1.990 . S
O63 C77 1.253 . S
Mg64 O63 1.990 . S
Mg64 O67 2.180 1_655 S
Mg64 O68 2.117 1_655 S
Mg64 O82 2.030 . S
O65 Mg66 2.072 1_655 S
O65 C77 1.260 . S
Mg66 O65 2.072 1_455 S
Mg66 O67 2.099 . S
Mg66 O69 2.079 . S
Mg66 O70 2.072 . S
Mg66 O72 2.099 . S
Mg66 O83 2.079 . S
O67 Mg64 2.180 1_455 S
O67 Mg66 2.099 . S
O67 C78 1.279 . S
O68 Mg64 2.117 1_455 S
O68 C78 1.250 . S
O69 Mg66 2.079 . S
O69 C79 1.264 . S
O70 Mg66 2.072 . S
O70 C80 1.260 . S
Mg71 O72 2.180 . S
Mg71 O73 2.030 . S
Mg71 O74 1.990 . S
Mg71 O75 2.117 . S
O72 Mg66 2.099 . S
O72 Mg71 2.180 . S
O72 C81 1.279 . S
O73 Mg71 2.030 . S
O73 C79 1.248 . S
O74 Mg71 1.990 . S
O74 C80 1.253 . S
O75 Mg71 2.117 . S
O75 C81 1.250 . S
C76 O82 1.248 1_455 S
C76 O83 1.264 . S
C77 O63 1.253 . S
C77 O65 1.260 . S
C78 O67 1.279 . S
C78 O68 1.250 . S
C79 O69 1.264 . S
C79 O73 1.248 . S
C80 O70 1.260 . S
C80 O74 1.253 . S
C81 O72 1.279 . S
C81 O75 1.250 . S
O82 Mg64 2.030 . S
O82 C76 1.248 1_655 S
O83 Mg66 2.079 . S
O83 C76 1.264 . S
O84 Mg85 1.990 . S
O84 C98 1.253 . S
Mg85 O84 1.990 . S
Mg85 O88 2.180 . S
Mg85 O89 2.117 . S
Mg85 O103 2.030 . S
O86 Mg87 2.072 . S
O86 C98 1.260 . S
Mg87 O86 2.072 . S
Mg87 O88 2.099 . S
Mg87 O90 2.079 1_455 S
Mg87 O91 2.072 1_455 S
Mg87 O93 2.099 1_455 S
Mg87 O104 2.079 . S
O88 Mg85 2.180 . S
O88 Mg87 2.099 . S
O88 C99 1.279 1_455 S
O89 Mg85 2.117 . S
O89 C99 1.250 1_455 S
O90 Mg87 2.079 1_655 S
O90 C100 1.264 . S
O91 Mg87 2.072 1_655 S
O91 C101 1.260 . S
Mg92 O93 2.180 . S
Mg92 O94 2.030 . S
Mg92 O95 1.990 . S
Mg92 O96 2.117 1_556 S
O93 Mg87 2.099 1_655 S
O93 Mg92 2.180 . S
O93 C102 1.279 . S
O94 Mg92 2.030 . S
O94 C100 1.248 . S
O95 Mg92 1.990 . S
O95 C101 1.253 . S
O96 Mg92 2.117 1_554 S
O96 C102 1.250 1_554 S
C97 O103 1.248 . S
C97 O104 1.264 . S
C98 O84 1.253 . S
C98 O86 1.260 . S
C99 O88 1.279 1_655 S
C99 O89 1.250 1_655 S
C100 O90 1.264 . S
C100 O94 1.248 . S
C101 O91 1.260 . S
C101 O95 1.253 . S
C102 O93 1.279 . S
C102 O96 1.250 1_556 S
O103 Mg85 2.030 . S
O103 C97 1.248 . S
O104 Mg87 2.079 . S
O104 C97 1.264 . S
O105 Mg106 1.990 . S
O105 C119 1.253 . S
Mg106 O105 1.990 . S
Mg106 O109 2.180 1_455 S
Mg106 O110 2.117 1_456 S
Mg106 O124 2.030 . S
O107 Mg108 2.072 1_455 S
O107 C119 1.260 . S
Mg108 O107 2.072 1_655 S
Mg108 O109 2.099 . S
Mg108 O111 2.079 . S
Mg108 O112 2.072 . S
Mg108 O114 2.099 . S
Mg108 O125 2.079 . S
O109 Mg106 2.180 1_655 S
O109 Mg108 2.099 . S
O109 C120 1.279 . S
O110 Mg106 2.117 1_654 S
O110 C120 1.250 1_554 S
O111 Mg108 2.079 . S
O111 C121 1.264 . S
O112 Mg108 2.072 . S
O112 C122 1.260 . S
Mg113 O114 2.180 . S
Mg113 O115 2.030 . S
Mg113 O116 1.990 . S
Mg113 O117 2.117 . S
O114 Mg108 2.099 . S
O114 Mg113 2.180 . S
O114 C123 1.279 . S
O115 Mg113 2.030 . S
O115 C121 1.248 . S
O116 Mg113 1.990 . S
O116 C122 1.253 . S
O117 Mg113 2.117 . S
O117 C123 1.250 . S
C118 O124 1.248 1_655 S
C118 O125 1.264 . S
C119 O105 1.253 . S
C119 O107 1.260 . S
C120 O109 1.279 . S
C120 O110 1.250 1_556 S
C121 O111 1.264 . S
C121 O115 1.248 . S
C122 O112 1.260 . S
C122 O116 1.253 . S
C123 O114 1.279 . S
C123 O117 1.250 . S
O124 Mg106 2.030 . S
O124 C118 1.248 1_455 S
O125 Mg108 2.079 . S
O125 C118 1.264 . S
O126 Mg127 1.990 . S
O126 C140 1.253 . S
Mg127 O126 1.990 . S
Mg127 O130 2.180 . S
Mg127 O131 2.117 . S
Mg127 O145 2.030 . S
O128 Mg129 2.072 1_655 S
O128 C140 1.260 . S
Mg129 O128 2.072 1_455 S
Mg129 O130 2.099 1_455 S
Mg129 O132 2.078 . S
Mg129 O133 2.072 . S
Mg129 O135 2.099 . S
Mg129 O146 2.079 1_455 S
O130 Mg127 2.180 . S
O130 Mg129 2.099 1_655 S
O130 C141 1.279 . S
O131 Mg127 2.117 . S
O131 C141 1.250 . S
O132 Mg129 2.078 . S
O132 C142 1.264 . S
O133 Mg129 2.072 . S
O133 C143 1.260 . S
Mg134 O135 2.180 . S
Mg134 O136 2.030 . S
Mg134 O137 1.990 . S
Mg134 O138 2.117 . S
O135 Mg129 2.099 . S
O135 Mg134 2.180 . S
O135 C144 1.279 1_455 S
O136 Mg134 2.030 . S
O136 C142 1.248 . S
O137 Mg134 1.990 . S
O137 C143 1.253 . S
O138 Mg134 2.117 . S
O138 C144 1.250 1_455 S
C139 O145 1.248 . S
C139 O146 1.264 . S
C140 O126 1.253 . S
C140 O128 1.260 . S
C141 O130 1.279 . S
C141 O131 1.250 . S
C142 O132 1.264 . S
C142 O136 1.248 . S
C143 O133 1.260 . S
C143 O137 1.253 . S
C144 O135 1.279 1_655 S
C144 O138 1.250 1_655 S
O145 Mg127 2.030 . S
O145 C139 1.248 . S
O146 Mg129 2.079 1_655 S
O146 C139 1.264 . S
O147 Mg148 1.990 . S
O147 C161 1.253 . S
Mg148 O147 1.990 . S
Mg148 O151 2.180 1_455 S
Mg148 O152 2.117 1_455 S
Mg148 O166 2.030 . S
O149 Mg150 2.072 1_455 S
O149 C161 1.260 . S
Mg150 O149 2.072 1_655 S
Mg150 O151 2.099 . S
Mg150 O153 2.079 . S
Mg150 O154 2.072 . S
Mg150 O156 2.099 . S
Mg150 O167 2.079 . S
O151 Mg148 2.180 1_655 S
O151 Mg150 2.099 . S
O151 C162 1.279 . S
O152 Mg148 2.117 1_655 S
O152 C162 1.250 . S
O153 Mg150 2.079 . S
O153 C163 1.264 . S
O154 Mg150 2.072 . S
O154 C164 1.260 . S
Mg155 O156 2.180 . S
Mg155 O157 2.030 . S
Mg155 O158 1.990 . S
Mg155 O159 2.117 . S
O156 Mg150 2.099 . S
O156 Mg155 2.180 . S
O156 C165 1.279 . S
O157 Mg155 2.030 . S
O157 C163 1.248 . S
O158 Mg155 1.990 . S
O158 C164 1.253 . S
O159 Mg155 2.117 . S
O159 C165 1.250 . S
C160 O166 1.248 1_655 S
C160 O167 1.264 . S
C161 O147 1.253 . S
C161 O149 1.260 . S
C162 O151 1.279 . S
C162 O152 1.250 . S
C163 O153 1.264 . S
C163 O157 1.248 . S
C164 O154 1.260 . S
C164 O158 1.253 . S
C165 O156 1.279 . S
C165 O159 1.250 . S
O166 Mg148 2.030 . S
O166 C160 1.248 1_455 S
O167 Mg150 2.079 . S
O167 C160 1.264 . S
O168 Mg169 1.990 . S
O168 C182 1.253 . S
Mg169 O168 1.990 . S
Mg169 O172 2.180 . S
Mg169 O173 2.117 . S
Mg169 O187 2.030 . S
O170 Mg171 2.073 1_465 S
O170 C182 1.260 1_565 S
Mg171 O170 2.073 1_645 S
Mg171 O172 2.099 1_655 S
Mg171 O174 2.078 . S
Mg171 O175 2.072 1_545 S
Mg171 O177 2.099 1_545 S
Mg171 O188 2.079 1_655 S
O172 Mg169 2.180 . S
O172 Mg171 2.099 1_455 S
O172 C183 1.279 1_545 S
O173 Mg169 2.117 . S
O173 C183 1.250 1_545 S
O174 Mg171 2.078 . S
O174 C184 1.264 1_545 S
O175 Mg171 2.072 1_565 S
O175 C185 1.260 . S
Mg176 O177 2.180 . S
Mg176 O178 2.030 . S
Mg176 O179 1.990 . S
Mg176 O180 2.117 . S
O177 Mg171 2.099 1_565 S
O177 Mg176 2.180 . S
O177 C186 1.279 1_655 S
O178 Mg176 2.030 . S
O178 C184 1.248 . S
O179 Mg176 1.990 . S
O179 C185 1.253 . S
O180 Mg176 2.117 . S
O180 C186 1.250 1_655 S
C181 O187 1.248 . S
C181 O188 1.264 . S
C182 O168 1.253 . S
C182 O170 1.260 1_545 S
C183 O172 1.279 1_565 S
C183 O173 1.250 1_565 S
C184 O174 1.264 1_565 S
C184 O178 1.248 . S
C185 O175 1.260 . S
C185 O179 1.253 . S
C186 O177 1.279 1_455 S
C186 O180 1.250 1_455 S
O187 Mg169 2.030 . S
O187 C181 1.248 . S
O188 Mg171 2.079 1_455 S
O188 C181 1.264 . S
O189 Mg190 1.990 . S
O189 C203 1.253 . S
Mg190 O189 1.990 . S
Mg190 O193 2.180 1_655 S
Mg190 O194 2.117 1_655 S
Mg190 O208 2.030 . S
O191 Mg192 2.072 1_655 S
O191 C203 1.260 . S
Mg192 O191 2.072 1_455 S
Mg192 O193 2.099 . S
Mg192 O195 2.079 . S
Mg192 O196 2.072 . S
Mg192 O198 2.099 . S
Mg192 O209 2.079 . S
O193 Mg190 2.180 1_455 S
O193 Mg192 2.099 . S
O193 C204 1.279 . S
O194 Mg190 2.117 1_455 S
O194 C204 1.250 . S
O195 Mg192 2.079 . S
O195 C205 1.264 . S
O196 Mg192 2.072 . S
O196 C206 1.260 . S
Mg197 O198 2.180 . S
Mg197 O199 2.030 . S
Mg197 O200 1.990 . S
Mg197 O201 2.117 . S
O198 Mg192 2.099 . S
O198 Mg197 2.180 . S
O198 C207 1.279 . S
O199 Mg197 2.030 . S
O199 C205 1.248 . S
O200 Mg197 1.990 . S
O200 C206 1.253 . S
O201 Mg197 2.117 . S
O201 C207 1.250 . S
C202 O208 1.248 1_455 S
C202 O209 1.264 . S
C203 O189 1.253 . S
C203 O191 1.260 . S
C204 O193 1.279 . S
C204 O194 1.250 . S
C205 O195 1.264 . S
C205 O199 1.248 . S
C206 O196 1.260 . S
C206 O200 1.253 . S
C207 O198 1.279 . S
C207 O201 1.250 . S
O208 Mg190 2.030 . S
O208 C202 1.248 1_655 S
O209 Mg192 2.079 . S
O209 C202 1.264 . S
O210 Mg211 1.990 . S
O210 C224 1.253 . S
Mg211 O210 1.990 . S
Mg211 O214 2.180 . S
Mg211 O215 2.117 . S
Mg211 O229 2.030 . S
O212 Mg213 2.072 1_455 S
O212 C224 1.260 . S
Mg213 O212 2.072 1_655 S
Mg213 O214 2.099 1_655 S
Mg213 O216 2.079 . S
Mg213 O217 2.072 . S
Mg213 O219 2.099 . S
Mg213 O230 2.079 1_655 S
O214 Mg211 2.180 . S
O214 Mg213 2.099 1_455 S
O214 C225 1.279 . S
O215 Mg211 2.117 . S
O215 C225 1.250 . S
O216 Mg213 2.079 . S
O216 C226 1.264 . S
O217 Mg213 2.072 . S
O217 C227 1.260 . S
Mg218 O219 2.180 . S
Mg218 O220 2.030 . S
Mg218 O221 1.990 . S
Mg218 O222 2.117 . S
O219 Mg213 2.099 . S
O219 Mg218 2.180 . S
O219 C228 1.279 1_655 S
O220 Mg218 2.030 . S
O220 C226 1.248 . S
O221 Mg218 1.990 . S
O221 C227 1.253 . S
O222 Mg218 2.117 . S
O222 C228 1.250 1_655 S
C223 O229 1.248 . S
C223 O230 1.264 . S
C224 O210 1.253 . S
C224 O212 1.260 . S
C225 O214 1.279 . S
C225 O215 1.250 . S
C226 O216 1.264 . S
C226 O220 1.248 . S
C227 O217 1.260 . S
C227 O221 1.253 . S
C228 O219 1.279 1_455 S
C228 O222 1.250 1_455 S
O229 Mg211 2.030 . S
O229 C223 1.248 . S
O230 Mg213 2.079 1_455 S
O230 C223 1.264 . S
O231 Mg232 1.990 . S
O231 C245 1.253 . S
Mg232 O231 1.990 . S
Mg232 O235 2.180 1_655 S
Mg232 O236 2.117 1_655 S
Mg232 O250 2.030 . S
O233 Mg234 2.072 1_665 S
O233 C245 1.260 1_565 S
Mg234 O233 2.072 1_445 S
Mg234 O235 2.099 . S
Mg234 O237 2.079 . S
Mg234 O238 2.072 1_545 S
Mg234 O240 2.099 1_545 S
Mg234 O251 2.079 . S
O235 Mg232 2.180 1_455 S
O235 Mg234 2.099 . S
O235 C246 1.279 1_545 S
O236 Mg232 2.117 1_455 S
O236 C246 1.250 1_545 S
O237 Mg234 2.079 . S
O237 C247 1.264 1_545 S
O238 Mg234 2.072 1_565 S
O238 C248 1.260 . S
Mg239 O240 2.180 . S
Mg239 O241 2.030 . S
Mg239 O242 1.990 . S
Mg239 O243 2.117 . S
O240 Mg234 2.099 1_565 S
O240 Mg239 2.180 . S
O240 C249 1.279 . S
O241 Mg239 2.030 . S
O241 C247 1.248 . S
O242 Mg239 1.990 . S
O242 C248 1.253 . S
O243 Mg239 2.117 . S
O243 C249 1.250 . S
C244 O250 1.248 1_455 S
C244 O251 1.264 . S
C245 O231 1.253 . S
C245 O233 1.260 1_545 S
C246 O235 1.279 1_565 S
C246 O236 1.250 1_565 S
C247 O237 1.264 1_565 S
C247 O241 1.248 . S
C248 O238 1.260 . S
C248 O242 1.253 . S
C249 O240 1.279 . S
C249 O243 1.250 . S
O250 Mg232 2.030 . S
O250 C244 1.248 1_655 S
O251 Mg234 2.079 . S
O251 C244 1.264 . S
O252 Mg253 1.990 . S
O252 C266 1.253 . S
Mg253 O252 1.990 . S
Mg253 O256 2.180 . S
Mg253 O257 2.117 . S
Mg253 O271 2.030 . S
O254 Mg255 2.072 1_545 S
O254 C266 1.260 . S
Mg255 O254 2.072 1_565 S
Mg255 O256 2.099 1_565 S
Mg255 O258 2.079 1_455 S
Mg255 O259 2.073 1_465 S
Mg255 O261 2.099 1_455 S
Mg255 O272 2.078 . S
O256 Mg253 2.180 . S
O256 Mg255 2.099 1_545 S
O256 C267 1.279 1_455 S
O257 Mg253 2.117 . S
O257 C267 1.250 1_455 S
O258 Mg255 2.079 1_655 S
O258 C268 1.264 . S
O259 Mg255 2.073 1_645 S
O259 C269 1.260 1_545 S
Mg260 O261 2.180 . S
Mg260 O262 2.030 . S
Mg260 O263 1.990 . S
Mg260 O264 2.117 . S
O261 Mg255 2.099 1_655 S
O261 Mg260 2.180 . S
O261 C270 1.279 1_565 S
O262 Mg260 2.030 . S
O262 C268 1.248 . S
O263 Mg260 1.990 . S
O263 C269 1.253 . S
O264 Mg260 2.117 . S
O264 C270 1.250 1_565 S
C265 O271 1.248 . S
C265 O272 1.264 1_545 S
C266 O252 1.253 . S
C266 O254 1.260 . S
C267 O256 1.279 1_655 S
C267 O257 1.250 1_655 S
C268 O258 1.264 . S
C268 O262 1.248 . S
C269 O259 1.260 1_565 S
C269 O263 1.253 . S
C270 O261 1.279 1_545 S
C270 O264 1.250 1_545 S
O271 Mg253 2.030 . S
O271 C265 1.248 . S
O272 Mg255 2.078 . S
O272 C265 1.264 1_565 S
O273 Mg274 1.990 . S
O273 C287 1.253 . S
Mg274 O273 1.990 . S
Mg274 O277 2.180 1_455 S
Mg274 O278 2.117 1_455 S
Mg274 O292 2.030 . S
O275 Mg276 2.072 1_455 S
O275 C287 1.260 . S
Mg276 O275 2.072 1_655 S
Mg276 O277 2.099 . S
Mg276 O279 2.079 . S
Mg276 O280 2.072 . S
Mg276 O282 2.099 . S
Mg276 O293 2.079 . S
O277 Mg274 2.180 1_655 S
O277 Mg276 2.099 . S
O277 C288 1.279 . S
O278 Mg274 2.117 1_655 S
O278 C288 1.250 . S
O279 Mg276 2.079 . S
O279 C289 1.264 . S
O280 Mg276 2.072 . S
O280 C290 1.260 . S
Mg281 O282 2.180 . S
Mg281 O283 2.030 . S
Mg281 O284 1.990 . S
Mg281 O285 2.117 . S
O282 Mg276 2.099 . S
O282 Mg281 2.180 . S
O282 C291 1.279 . S
O283 Mg281 2.030 . S
O283 C289 1.248 . S
O284 Mg281 1.990 . S
O284 C290 1.253 . S
O285 Mg281 2.117 . S
O285 C291 1.250 . S
C286 O292 1.248 1_655 S
C286 O293 1.264 . S
C287 O273 1.253 . S
C287 O275 1.260 . S
C288 O277 1.279 . S
C288 O278 1.250 . S
C289 O279 1.264 . S
C289 O283 1.248 . S
C290 O280 1.260 . S
C290 O284 1.253 . S
C291 O282 1.279 . S
C291 O285 1.250 . S
O292 Mg274 2.030 . S
O292 C286 1.248 1_455 S
O293 Mg276 2.079 . S
O293 C286 1.264 . S
O294 Mg295 1.990 . S
O294 C308 1.253 . S
Mg295 O294 1.990 . S
Mg295 O298 2.180 . S
Mg295 O299 2.117 . S
Mg295 O313 2.030 . S
O296 Mg297 2.072 1_655 S
O296 C308 1.260 . S
Mg297 O296 2.072 1_455 S
Mg297 O298 2.099 1_455 S
Mg297 O300 2.079 . S
Mg297 O301 2.072 . S
Mg297 O303 2.099 . S
Mg297 O314 2.079 1_455 S
O298 Mg295 2.180 . S
O298 Mg297 2.099 1_655 S
O298 C309 1.279 . S
O299 Mg295 2.117 . S
O299 C309 1.250 . S
O300 Mg297 2.079 . S
O300 C310 1.264 . S
O301 Mg297 2.072 . S
O301 C311 1.260 . S
Mg302 O303 2.180 . S
Mg302 O304 2.030 . S
Mg302 O305 1.990 . S
Mg302 O306 2.117 . S
O303 Mg297 2.099 . S
O303 Mg302 2.180 . S
O303 C312 1.279 1_455 S
O304 Mg302 2.030 . S
O304 C310 1.248 . S
O305 Mg302 1.990 . S
O305 C311 1.253 . S
O306 Mg302 2.117 . S
O306 C312 1.250 1_455 S
C307 O313 1.248 . S
C307 O314 1.264 . S
C308 O294 1.253 . S
C308 O296 1.260 . S
C309 O298 1.279 . S
C309 O299 1.250 . S
C310 O300 1.264 . S
C310 O304 1.248 . S
C311 O301 1.260 . S
C311 O305 1.253 . S
C312 O303 1.279 1_655 S
C312 O306 1.250 1_655 S
O313 Mg295 2.030 . S
O313 C307 1.248 . S
O314 Mg297 2.079 1_655 S
O314 C307 1.264 . S
O315 Mg316 1.990 . S
O315 C329 1.253 . S
Mg316 O315 1.990 . S
Mg316 O319 2.180 1_455 S
Mg316 O320 2.117 1_455 S
Mg316 O334 2.030 . S
O317 Mg318 2.072 1_445 S
O317 C329 1.260 1_545 S
Mg318 O317 2.072 1_665 S
Mg318 O319 2.099 . S
Mg318 O321 2.079 . S
Mg318 O322 2.072 1_565 S
Mg318 O324 2.099 1_565 S
Mg318 O335 2.079 . S
O319 Mg316 2.180 1_655 S
O319 Mg318 2.099 . S
O319 C330 1.279 1_565 S
O320 Mg316 2.117 1_655 S
O320 C330 1.250 1_565 S
O321 Mg318 2.079 . S
O321 C331 1.264 1_565 S
O322 Mg318 2.072 1_545 S
O322 C332 1.260 . S
Mg323 O324 2.180 . S
Mg323 O325 2.030 . S
Mg323 O326 1.990 . S
Mg323 O327 2.117 . S
O324 Mg318 2.099 1_545 S
O324 Mg323 2.180 . S
O324 C333 1.279 . S
O325 Mg323 2.030 . S
O325 C331 1.248 . S
O326 Mg323 1.990 . S
O326 C332 1.253 . S
O327 Mg323 2.117 . S
O327 C333 1.250 . S
C328 O334 1.248 1_655 S
C328 O335 1.264 . S
C329 O315 1.253 . S
C329 O317 1.260 1_565 S
C330 O319 1.279 1_545 S
C330 O320 1.250 1_545 S
C331 O321 1.264 1_545 S
C331 O325 1.248 . S
C332 O322 1.260 . S
C332 O326 1.253 . S
C333 O324 1.279 . S
C333 O327 1.250 . S
O334 Mg316 2.030 . S
O334 C328 1.248 1_455 S
O335 Mg318 2.079 . S
O335 C328 1.264 . S
O336 Mg337 1.990 . S
O336 C350 1.253 . S
Mg337 O336 1.990 . S
Mg337 O340 2.180 . S
Mg337 O341 2.117 . S
Mg337 O355 2.030 . S
O338 Mg339 2.072 . S
O338 C350 1.260 . S
Mg339 O338 2.072 . S
Mg339 O340 2.099 . S
Mg339 O342 2.079 . S
Mg339 O343 2.072 . S
Mg339 O345 2.099 . S
Mg339 O356 2.079 . S
O340 Mg337 2.180 . S
O340 Mg339 2.099 . S
O340 C351 1.279 . S
O341 Mg337 2.117 . S
O341 C351 1.250 . S
O342 Mg339 2.079 . S
O342 C352 1.264 . S
O343 Mg339 2.072 . S
O343 C353 1.260 . S
Mg344 O345 2.180 . S
Mg344 O346 2.030 . S
Mg344 O347 1.990 . S
Mg344 O348 2.117 . S
O345 Mg339 2.099 . S
O345 Mg344 2.180 . S
O345 C354 1.279 . S
O346 Mg344 2.030 . S
O346 C352 1.248 . S
O347 Mg344 1.990 . S
O347 C353 1.253 . S
O348 Mg344 2.117 . S
O348 C354 1.250 . S
C349 O355 1.248 . S
C349 O356 1.264 . S
C350 O336 1.253 . S
C350 O338 1.260 . S
C351 O340 1.279 . S
C351 O341 1.250 . S
C352 O342 1.264 . S
C352 O346 1.248 . S
C353 O343 1.260 . S
C353 O347 1.253 . S
C354 O345 1.279 . S
C354 O348 1.250 . S
O355 Mg337 2.030 . S
O355 C349 1.248 . S
O356 Mg339 2.079 . S
O356 C349 1.264 . S
O357 Mg358 1.990 . S
O357 C371 1.253 . S
Mg358 O357 1.990 . S
Mg358 O361 2.180 . S
Mg358 O362 2.117 . S
Mg358 O376 2.030 . S
O359 Mg360 2.072 . S
O359 C371 1.260 . S
Mg360 O359 2.072 . S
Mg360 O361 2.099 . S
Mg360 O363 2.079 1_655 S
Mg360 O364 2.072 . S
Mg360 O366 2.099 . S
Mg360 O377 2.079 . S
O361 Mg358 2.180 . S
O361 Mg360 2.099 . S
O361 C372 1.279 . S
O362 Mg358 2.117 . S
O362 C372 1.250 . S
O363 Mg360 2.079 1_455 S
O363 C373 1.264 . S
O364 Mg360 2.072 . S
O364 C374 1.260 . S
Mg365 O366 2.180 . S
Mg365 O367 2.030 1_655 S
Mg365 O368 1.990 . S
Mg365 O369 2.117 . S
O366 Mg360 2.099 . S
O366 Mg365 2.180 . S
O366 C375 1.279 . S
O367 Mg365 2.030 1_455 S
O367 C373 1.248 . S
O368 Mg365 1.990 . S
O368 C374 1.253 . S
O369 Mg365 2.117 . S
O369 C375 1.250 . S
C370 O376 1.248 . S
C370 O377 1.264 . S
C371 O357 1.253 . S
C371 O359 1.260 . S
C372 O361 1.279 . S
C372 O362 1.250 . S
C373 O363 1.264 . S
C373 O367 1.248 . S
C374 O364 1.260 . S
C374 O368 1.253 . S
C375 O366 1.279 . S
C375 O369 1.250 . S
O376 Mg358 2.030 . S
O376 C370 1.248 . S
O377 Mg360 2.079 . S
O377 C370 1.264 . S
O378 Mg379 1.990 . S
O378 C392 1.253 . S
Mg379 O378 1.990 . S
Mg379 O382 2.180 . S
Mg379 O383 2.117 . S
Mg379 O397 2.030 . S
O380 Mg381 2.072 . S
O380 C392 1.260 . S
Mg381 O380 2.072 . S
Mg381 O382 2.099 . S
Mg381 O384 2.079 . S
Mg381 O385 2.072 . S
Mg381 O387 2.099 . S
Mg381 O398 2.079 . S
O382 Mg379 2.180 . S
O382 Mg381 2.099 . S
O382 C393 1.279 . S
O383 Mg379 2.117 . S
O383 C393 1.250 . S
O384 Mg381 2.079 . S
O384 C394 1.264 . S
O385 Mg381 2.072 . S
O385 C395 1.260 . S
Mg386 O387 2.180 . S
Mg386 O388 2.030 . S
Mg386 O389 1.990 . S
Mg386 O390 2.117 . S
O387 Mg381 2.099 . S
O387 Mg386 2.180 . S
O387 C396 1.279 . S
O388 Mg386 2.030 . S
O388 C394 1.248 . S
O389 Mg386 1.990 . S
O389 C395 1.253 . S
O390 Mg386 2.117 . S
O390 C396 1.250 . S
C391 O397 1.248 . S
C391 O398 1.264 . S
C392 O378 1.253 . S
C392 O380 1.260 . S
C393 O382 1.279 . S
C393 O383 1.250 . S
C394 O384 1.264 . S
C394 O388 1.248 . S
C395 O385 1.260 . S
C395 O389 1.253 . S
C396 O387 1.279 . S
C396 O390 1.250 . S
O397 Mg379 2.030 . S
O397 C391 1.248 . S
O398 Mg381 2.079 . S
O398 C391 1.264 . S
O399 Mg400 1.990 . S
O399 C413 1.253 . S
Mg400 O399 1.990 . S
Mg400 O403 2.180 . S
Mg400 O404 2.117 . S
Mg400 O418 2.030 . S
O401 Mg402 2.072 . S
O401 C413 1.260 . S
Mg402 O401 2.072 . S
Mg402 O403 2.099 . S
Mg402 O405 2.079 1_655 S
Mg402 O406 2.072 . S
Mg402 O408 2.099 . S
Mg402 O419 2.079 . S
O403 Mg400 2.180 . S
O403 Mg402 2.099 . S
O403 C414 1.279 . S
O404 Mg400 2.117 . S
O404 C414 1.250 . S
O405 Mg402 2.079 1_455 S
O405 C415 1.264 . S
O406 Mg402 2.072 . S
O406 C416 1.260 . S
Mg407 O408 2.180 . S
Mg407 O409 2.030 1_655 S
Mg407 O410 1.990 . S
Mg407 O411 2.117 . S
O408 Mg402 2.099 . S
O408 Mg407 2.180 . S
O408 C417 1.279 . S
O409 Mg407 2.030 1_455 S
O409 C415 1.248 . S
O410 Mg407 1.990 . S
O410 C416 1.253 . S
O411 Mg407 2.117 . S
O411 C417 1.250 . S
C412 O418 1.248 . S
C412 O419 1.264 . S
C413 O399 1.253 . S
C413 O401 1.260 . S
C414 O403 1.279 . S
C414 O404 1.250 . S
C415 O405 1.264 . S
C415 O409 1.248 . S
C416 O406 1.260 . S
C416 O410 1.253 . S
C417 O408 1.279 . S
C417 O411 1.250 . S
O418 Mg400 2.030 . S
O418 C412 1.248 . S
O419 Mg402 2.079 . S
O419 C412 1.264 . S
O420 Mg421 1.990 . S
O420 C434 1.253 . S
Mg421 O420 1.990 . S
Mg421 O424 2.180 . S
Mg421 O425 2.117 . S
Mg421 O439 2.030 . S
O422 Mg423 2.072 . S
O422 C434 1.260 . S
Mg423 O422 2.072 . S
Mg423 O424 2.099 . S
Mg423 O426 2.079 . S
Mg423 O427 2.072 . S
Mg423 O429 2.099 . S
Mg423 O440 2.079 . S
O424 Mg421 2.180 . S
O424 Mg423 2.099 . S
O424 C435 1.279 . S
O425 Mg421 2.117 . S
O425 C435 1.250 . S
O426 Mg423 2.079 . S
O426 C436 1.264 . S
O427 Mg423 2.072 . S
O427 C437 1.260 . S
Mg428 O429 2.180 . S
Mg428 O430 2.030 . S
Mg428 O431 1.990 . S
Mg428 O432 2.117 . S
O429 Mg423 2.099 . S
O429 Mg428 2.180 . S
O429 C438 1.279 . S
O430 Mg428 2.030 . S
O430 C436 1.248 . S
O431 Mg428 1.990 . S
O431 C437 1.253 . S
O432 Mg428 2.117 . S
O432 C438 1.250 . S
C433 O439 1.248 . S
C433 O440 1.264 . S
C434 O420 1.253 . S
C434 O422 1.260 . S
C435 O424 1.279 . S
C435 O425 1.250 . S
C436 O426 1.264 . S
C436 O430 1.248 . S
C437 O427 1.260 . S
C437 O431 1.253 . S
C438 O429 1.279 . S
C438 O432 1.250 . S
O439 Mg421 2.030 . S
O439 C433 1.248 . S
O440 Mg423 2.079 . S
O440 C433 1.264 . S
O441 Mg442 1.990 . S
O441 C455 1.253 . S
Mg442 O441 1.990 . S
Mg442 O445 2.180 . S
Mg442 O446 2.117 . S
Mg442 O460 2.030 . S
O443 Mg444 2.072 . S
O443 C455 1.260 . S
Mg444 O443 2.072 . S
Mg444 O445 2.099 . S
Mg444 O447 2.079 1_455 S
Mg444 O448 2.072 . S
Mg444 O450 2.099 . S
Mg444 O461 2.079 . S
O445 Mg442 2.180 . S
O445 Mg444 2.099 . S
O445 C456 1.279 . S
O446 Mg442 2.117 . S
O446 C456 1.250 . S
O447 Mg444 2.079 1_655 S
O447 C457 1.264 . S
O448 Mg444 2.072 . S
O448 C458 1.260 . S
Mg449 O450 2.180 . S
Mg449 O451 2.030 1_455 S
Mg449 O452 1.990 . S
Mg449 O453 2.117 . S
O450 Mg444 2.099 . S
O450 Mg449 2.180 . S
O450 C459 1.279 . S
O451 Mg449 2.030 1_655 S
O451 C457 1.248 . S
O452 Mg449 1.990 . S
O452 C458 1.253 . S
O453 Mg449 2.117 . S
O453 C459 1.250 . S
C454 O460 1.248 . S
C454 O461 1.264 . S
C455 O441 1.253 . S
C455 O443 1.260 . S
C456 O445 1.279 . S
C456 O446 1.250 . S
C457 O447 1.264 . S
C457 O451 1.248 . S
C458 O448 1.260 . S
C458 O452 1.253 . S
C459 O450 1.279 . S
C459 O453 1.250 . S
O460 Mg442 2.030 . S
O460 C454 1.248 . S
O461 Mg444 2.079 . S
O461 C454 1.264 . S
O462 Mg463 1.990 . S
O462 C476 1.253 . S
Mg463 O462 1.990 . S
Mg463 O466 2.180 . S
Mg463 O467 2.117 . S
Mg463 O481 2.030 . S
O464 Mg465 2.072 . S
O464 C476 1.260 . S
Mg465 O464 2.072 . S
Mg465 O466 2.099 . S
Mg465 O468 2.079 . S
Mg465 O469 2.072 . S
Mg465 O471 2.099 . S
Mg465 O482 2.079 . S
O466 Mg463 2.180 . S
O466 Mg465 2.099 . S
O466 C477 1.279 . S
O467 Mg463 2.117 . S
O467 C477 1.250 . S
O468 Mg465 2.079 . S
O468 C478 1.264 . S
O469 Mg465 2.072 . S
O469 C479 1.260 . S
Mg470 O471 2.180 . S
Mg470 O472 2.030 . S
Mg470 O473 1.990 . S
Mg470 O474 2.117 . S
O471 Mg465 2.099 . S
O471 Mg470 2.180 . S
O471 C480 1.279 . S
O472 Mg470 2.030 . S
O472 C478 1.248 . S
O473 Mg470 1.990 . S
O473 C479 1.253 . S
O474 Mg470 2.117 . S
O474 C480 1.250 . S
C475 O481 1.248 . S
C475 O482 1.264 . S
C476 O462 1.253 . S
C476 O464 1.260 . S
C477 O466 1.279 . S
C477 O467 1.250 . S
C478 O468 1.264 . S
C478 O472 1.248 . S
C479 O469 1.260 . S
C479 O473 1.253 . S
C480 O471 1.279 . S
C480 O474 1.250 . S
O481 Mg463 2.030 . S
O481 C475 1.248 . S
O482 Mg465 2.079 . S
O482 C475 1.264 . S
O483 Mg484 1.990 . S
O483 C497 1.253 . S
Mg484 O483 1.990 . S
Mg484 O487 2.180 . S
Mg484 O488 2.117 . S
Mg484 O502 2.030 . S
O485 Mg486 2.072 . S
O485 C497 1.260 . S
Mg486 O485 2.072 . S
Mg486 O487 2.099 . S
Mg486 O489 2.079 1_455 S
Mg486 O490 2.072 . S
Mg486 O492 2.099 . S
Mg486 O503 2.079 . S
O487 Mg484 2.180 . S
O487 Mg486 2.099 . S
O487 C498 1.279 . S
O488 Mg484 2.117 . S
O488 C498 1.250 . S
O489 Mg486 2.079 1_655 S
O489 C499 1.264 . S
O490 Mg486 2.072 . S
O490 C500 1.260 . S
Mg491 O492 2.180 . S
Mg491 O493 2.030 1_455 S
Mg491 O494 1.990 . S
Mg491 O495 2.117 . S
O492 Mg486 2.099 . S
O492 Mg491 2.180 . S
O492 C501 1.279 . S
O493 Mg491 2.030 1_655 S
O493 C499 1.248 . S
O494 Mg491 1.990 . S
O494 C500 1.253 . S
O495 Mg491 2.117 . S
O495 C501 1.250 . S
C496 O502 1.248 . S
C496 O503 1.264 . S
C497 O483 1.253 . S
C497 O485 1.260 . S
C498 O487 1.279 . S
C498 O488 1.250 . S
C499 O489 1.264 . S
C499 O493 1.248 . S
C500 O490 1.260 . S
C500 O494 1.253 . S
C501 O492 1.279 . S
C501 O495 1.250 . S
O502 Mg484 2.030 . S
O502 C496 1.248 . S
O503 Mg486 2.079 . S
O503 C496 1.264 . S
O504 Mg505 1.990 . S
O504 C518 1.253 . S
Mg505 O504 1.990 . S
Mg505 O508 2.180 . S
Mg505 O509 2.117 1_554 S
Mg505 O523 2.030 . S
O506 Mg507 2.072 1_565 S
O506 C518 1.260 1_565 S
Mg507 O506 2.072 1_545 S
Mg507 O508 2.099 . S
Mg507 O510 2.079 . S
Mg507 O511 2.072 1_545 S
Mg507 O513 2.099 1_545 S
Mg507 O524 2.079 . S
O508 Mg505 2.180 . S
O508 Mg507 2.099 . S
O508 C519 1.279 1_545 S
O509 Mg505 2.117 1_556 S
O509 C519 1.250 1_546 S
O510 Mg507 2.079 . S
O510 C520 1.264 1_545 S
O511 Mg507 2.072 1_565 S
O511 C521 1.260 . S
Mg512 O513 2.180 . S
Mg512 O514 2.030 . S
Mg512 O515 1.990 . S
Mg512 O516 2.117 . S
O513 Mg507 2.099 1_565 S
O513 Mg512 2.180 . S
O513 C522 1.279 . S
O514 Mg512 2.030 . S
O514 C520 1.248 . S
O515 Mg512 1.990 . S
O515 C521 1.253 . S
O516 Mg512 2.117 . S
O516 C522 1.250 . S
C517 O523 1.248 . S
C517 O524 1.264 . S
C518 O504 1.253 . S
C518 O506 1.260 1_545 S
C519 O508 1.279 1_565 S
C519 O509 1.250 1_564 S
C520 O510 1.264 1_565 S
C520 O514 1.248 . S
C521 O511 1.260 . S
C521 O515 1.253 . S
C522 O513 1.279 . S
C522 O516 1.250 . S
O523 Mg505 2.030 . S
O523 C517 1.248 . S
O524 Mg507 2.079 . S
O524 C517 1.264 . S
O525 Mg526 1.990 . S
O525 C539 1.253 . S
Mg526 O525 1.990 . S
Mg526 O529 2.180 . S
Mg526 O530 2.117 1_554 S
Mg526 O544 2.030 . S
O527 Mg528 2.072 . S
O527 C539 1.260 . S
Mg528 O527 2.072 . S
Mg528 O529 2.099 . S
Mg528 O531 2.079 1_655 S
Mg528 O532 2.072 . S
Mg528 O534 2.099 . S
Mg528 O545 2.079 . S
O529 Mg526 2.180 . S
O529 Mg528 2.099 . S
O529 C540 1.279 . S
O530 Mg526 2.117 1_556 S
O530 C540 1.250 1_556 S
O531 Mg528 2.079 1_455 S
O531 C541 1.264 . S
O532 Mg528 2.072 . S
O532 C542 1.260 . S
Mg533 O534 2.180 . S
Mg533 O535 2.030 1_655 S
Mg533 O536 1.990 . S
Mg533 O537 2.117 . S
O534 Mg528 2.099 . S
O534 Mg533 2.180 . S
O534 C543 1.279 . S
O535 Mg533 2.030 1_455 S
O535 C541 1.248 . S
O536 Mg533 1.990 . S
O536 C542 1.253 . S
O537 Mg533 2.117 . S
O537 C543 1.250 . S
C538 O544 1.248 . S
C538 O545 1.264 . S
C539 O525 1.253 . S
C539 O527 1.260 . S
C540 O529 1.279 . S
C540 O530 1.250 1_554 S
C541 O531 1.264 . S
C541 O535 1.248 . S
C542 O532 1.260 . S
C542 O536 1.253 . S
C543 O534 1.279 . S
C543 O537 1.250 . S
O544 Mg526 2.030 . S
O544 C538 1.248 . S
O545 Mg528 2.079 . S
O545 C538 1.264 . S
O546 Mg547 1.990 . S
O546 C560 1.253 . S
Mg547 O546 1.990 . S
Mg547 O550 2.180 . S
Mg547 O551 2.117 . S
Mg547 O565 2.030 . S
O548 Mg549 2.072 . S
O548 C560 1.260 . S
Mg549 O548 2.072 . S
Mg549 O550 2.099 . S
Mg549 O552 2.079 . S
Mg549 O553 2.072 . S
Mg549 O555 2.099 . S
Mg549 O566 2.079 . S
O550 Mg547 2.180 . S
O550 Mg549 2.099 . S
O550 C561 1.279 . S
O551 Mg547 2.117 . S
O551 C561 1.250 . S
O552 Mg549 2.079 . S
O552 C562 1.264 . S
O553 Mg549 2.072 . S
O553 C563 1.260 . S
Mg554 O555 2.180 . S
Mg554 O556 2.030 . S
Mg554 O557 1.990 . S
Mg554 O558 2.117 . S
O555 Mg549 2.099 . S
O555 Mg554 2.180 . S
O555 C564 1.279 . S
O556 Mg554 2.030 . S
O556 C562 1.248 . S
O557 Mg554 1.990 . S
O557 C563 1.253 . S
O558 Mg554 2.117 . S
O558 C564 1.250 . S
C559 O565 1.248 . S
C559 O566 1.264 . S
C560 O546 1.253 . S
C560 O548 1.260 . S
C561 O550 1.279 . S
C561 O551 1.250 . S
C562 O552 1.264 . S
C562 O556 1.248 . S
C563 O553 1.260 . S
C563 O557 1.253 . S
C564 O555 1.279 . S
C564 O558 1.250 . S
O565 Mg547 2.030 . S
O565 C559 1.248 . S
O566 Mg549 2.079 . S
O566 C559 1.264 . S
O567 Mg568 1.990 . S
O567 C581 1.253 . S
Mg568 O567 1.990 . S
Mg568 O571 2.180 . S
Mg568 O572 2.117 . S
Mg568 O586 2.030 . S
O569 Mg570 2.072 1_565 S
O569 C581 1.260 1_565 S
Mg570 O569 2.072 1_545 S
Mg570 O571 2.099 . S
Mg570 O573 2.079 1_655 S
Mg570 O574 2.072 1_545 S
Mg570 O576 2.099 1_545 S
Mg570 O587 2.079 . S
O571 Mg568 2.180 . S
O571 Mg570 2.099 . S
O571 C582 1.279 1_545 S
O572 Mg568 2.117 . S
O572 C582 1.250 1_545 S
O573 Mg570 2.079 1_455 S
O573 C583 1.264 1_545 S
O574 Mg570 2.072 1_565 S
O574 C584 1.260 . S
Mg575 O576 2.180 . S
Mg575 O577 2.030 1_655 S
Mg575 O578 1.990 . S
Mg575 O579 2.117 . S
O576 Mg570 2.099 1_565 S
O576 Mg575 2.180 . S
O576 C585 1.279 . S
O577 Mg575 2.030 1_455 S
O577 C583 1.248 . S
O578 Mg575 1.990 . S
O578 C584 1.253 . S
O579 Mg575 2.117 . S
O579 C585 1.250 . S
C580 O586 1.248 . S
C580 O587 1.264 . S
C581 O567 1.253 . S
C581 O569 1.260 1_545 S
C582 O571 1.279 1_565 S
C582 O572 1.250 1_565 S
C583 O573 1.264 1_565 S
C583 O577 1.248 . S
C584 O574 1.260 . S
C584 O578 1.253 . S
C585 O576 1.279 . S
C585 O579 1.250 . S
O586 Mg568 2.030 . S
O586 C580 1.248 . S
O587 Mg570 2.079 . S
O587 C580 1.264 . S
O588 Mg589 1.990 . S
O588 C602 1.253 . S
Mg589 O588 1.990 . S
Mg589 O592 2.180 . S
Mg589 O593 2.117 . S
Mg589 O607 2.030 . S
O590 Mg591 2.072 1_545 S
O590 C602 1.260 . S
Mg591 O590 2.072 1_565 S
Mg591 O592 2.099 1_565 S
Mg591 O594 2.079 . S
Mg591 O595 2.072 1_565 S
Mg591 O597 2.099 . S
Mg591 O608 2.079 . S
O592 Mg589 2.180 . S
O592 Mg591 2.099 1_545 S
O592 C603 1.279 . S
O593 Mg589 2.117 . S
O593 C603 1.250 . S
O594 Mg591 2.079 . S
O594 C604 1.264 . S
O595 Mg591 2.072 1_545 S
O595 C605 1.260 1_545 S
Mg596 O597 2.180 . S
Mg596 O598 2.030 . S
Mg596 O599 1.990 . S
Mg596 O600 2.117 1_556 S
O597 Mg591 2.099 . S
O597 Mg596 2.180 . S
O597 C606 1.279 1_565 S
O598 Mg596 2.030 . S
O598 C604 1.248 . S
O599 Mg596 1.990 . S
O599 C605 1.253 . S
O600 Mg596 2.117 1_554 S
O600 C606 1.250 1_564 S
C601 O607 1.248 . S
C601 O608 1.264 1_545 S
C602 O588 1.253 . S
C602 O590 1.260 . S
C603 O592 1.279 . S
C603 O593 1.250 . S
C604 O594 1.264 . S
C604 O598 1.248 . S
C605 O595 1.260 1_565 S
C605 O599 1.253 . S
C606 O597 1.279 1_545 S
C606 O600 1.250 1_546 S
O607 Mg589 2.030 . S
O607 C601 1.248 . S
O608 Mg591 2.079 . S
O608 C601 1.264 1_565 S
O609 Mg610 1.990 . S
O609 C623 1.253 . S
Mg610 O609 1.990 . S
Mg610 O613 2.180 . S
Mg610 O614 2.117 1_556 S
Mg610 O628 2.030 . S
O611 Mg612 2.072 . S
O611 C623 1.260 . S
Mg612 O611 2.072 . S
Mg612 O613 2.099 . S
Mg612 O615 2.079 1_455 S
Mg612 O616 2.072 . S
Mg612 O618 2.099 . S
Mg612 O629 2.079 . S
O613 Mg610 2.180 . S
O613 Mg612 2.099 . S
O613 C624 1.279 . S
O614 Mg610 2.117 1_554 S
O614 C624 1.250 1_554 S
O615 Mg612 2.079 1_655 S
O615 C625 1.264 . S
O616 Mg612 2.072 . S
O616 C626 1.260 . S
Mg617 O618 2.180 . S
Mg617 O619 2.030 1_455 S
Mg617 O620 1.990 . S
Mg617 O621 2.117 . S
O618 Mg612 2.099 . S
O618 Mg617 2.180 . S
O618 C627 1.279 . S
O619 Mg617 2.030 1_655 S
O619 C625 1.248 . S
O620 Mg617 1.990 . S
O620 C626 1.253 . S
O621 Mg617 2.117 . S
O621 C627 1.250 . S
C622 O628 1.248 . S
C622 O629 1.264 . S
C623 O609 1.253 . S
C623 O611 1.260 . S
C624 O613 1.279 . S
C624 O614 1.250 1_556 S
C625 O615 1.264 . S
C625 O619 1.248 . S
C626 O616 1.260 . S
C626 O620 1.253 . S
C627 O618 1.279 . S
C627 O621 1.250 . S
O628 Mg610 2.030 . S
O628 C622 1.248 . S
O629 Mg612 2.079 . S
O629 C622 1.264 . S
O630 Mg631 1.990 . S
O630 C644 1.253 . S
Mg631 O630 1.990 . S
Mg631 O634 2.180 . S
Mg631 O635 2.117 . S
Mg631 O649 2.030 . S
O632 Mg633 2.072 . S
O632 C644 1.260 . S
Mg633 O632 2.072 . S
Mg633 O634 2.099 . S
Mg633 O636 2.079 . S
Mg633 O637 2.072 . S
Mg633 O639 2.099 . S
Mg633 O650 2.079 . S
O634 Mg631 2.180 . S
O634 Mg633 2.099 . S
O634 C645 1.279 . S
O635 Mg631 2.117 . S
O635 C645 1.250 . S
O636 Mg633 2.079 . S
O636 C646 1.264 . S
O637 Mg633 2.072 . S
O637 C647 1.260 . S
Mg638 O639 2.180 . S
Mg638 O640 2.030 . S
Mg638 O641 1.990 . S
Mg638 O642 2.117 . S
O639 Mg633 2.099 . S
O639 Mg638 2.180 . S
O639 C648 1.279 . S
O640 Mg638 2.030 . S
O640 C646 1.248 . S
O641 Mg638 1.990 . S
O641 C647 1.253 . S
O642 Mg638 2.117 . S
O642 C648 1.250 . S
C643 O649 1.248 . S
C643 O650 1.264 . S
C644 O630 1.253 . S
C644 O632 1.260 . S
C645 O634 1.279 . S
C645 O635 1.250 . S
C646 O636 1.264 . S
C646 O640 1.248 . S
C647 O637 1.260 . S
C647 O641 1.253 . S
C648 O639 1.279 . S
C648 O642 1.250 . S
O649 Mg631 2.030 . S
O649 C643 1.248 . S
O650 Mg633 2.079 . S
O650 C643 1.264 . S
O651 Mg652 1.990 . S
O651 C665 1.253 . S
Mg652 O651 1.990 . S
Mg652 O655 2.180 . S
Mg652 O656 2.117 . S
Mg652 O670 2.030 . S
O653 Mg654 2.072 1_545 S
O653 C665 1.260 1_545 S
Mg654 O653 2.072 1_565 S
Mg654 O655 2.099 . S
Mg654 O657 2.079 1_455 S
Mg654 O658 2.072 1_565 S
Mg654 O660 2.099 1_565 S
Mg654 O671 2.079 . S
O655 Mg652 2.180 . S
O655 Mg654 2.099 . S
O655 C666 1.279 1_565 S
O656 Mg652 2.117 . S
O656 C666 1.250 1_565 S
O657 Mg654 2.079 1_655 S
O657 C667 1.264 1_565 S
O658 Mg654 2.072 1_545 S
O658 C668 1.260 . S
Mg659 O660 2.180 . S
Mg659 O661 2.030 1_455 S
Mg659 O662 1.990 . S
Mg659 O663 2.117 . S
O660 Mg654 2.099 1_545 S
O660 Mg659 2.180 . S
O660 C669 1.279 . S
O661 Mg659 2.030 1_655 S
O661 C667 1.248 . S
O662 Mg659 1.990 . S
O662 C668 1.253 . S
O663 Mg659 2.117 . S
O663 C669 1.250 . S
C664 O670 1.248 . S
C664 O671 1.264 . S
C665 O651 1.253 . S
C665 O653 1.260 1_565 S
C666 O655 1.279 1_545 S
C666 O656 1.250 1_545 S
C667 O657 1.264 1_545 S
C667 O661 1.248 . S
C668 O658 1.260 . S
C668 O662 1.253 . S
C669 O660 1.279 . S
C669 O663 1.250 . S
O670 Mg652 2.030 . S
O670 C664 1.248 . S
O671 Mg654 2.079 . S
O671 C664 1.264 . S
C17 C542 1.616 . S
C521 C38 1.616 . S
C584 C59 1.616 . S
C80 C563 1.616 . S
C98 C626 1.616 . S
C122 C602 1.616 . S
C143 C668 1.616 . S
C647 C164 1.616 . S
C185 C374 1.616 . S
C206 C353 1.616 . S
C227 C416 1.616 . S
C395 C248 1.616 . S
C266 C458 1.616 . S
C290 C434 1.616 . S
C500 C311 1.616 . S
C332 C479 1.616 . S
C18 C81 1.346 . S
C39 C60 1.346 . S
C165 C99 1.346 . S
C144 C123 1.346 . S
C186 C249 1.345 . S
C207 C228 1.346 . S
C267 C333 1.345 . S
C312 C291 1.346 . S
C354 C417 1.346 . S
C375 C396 1.346 . S
C501 C435 1.346 . S
C459 C480 1.346 . S
C585 C522 1.345 . S
C543 C564 1.346 . S
C669 C603 1.345 . S
C648 C627 1.346 . S
C34 C13 1.014 . S
C55 C76 1.014 . S
C118 C100 1.014 . S
C160 C139 1.014 . S
C181 C202 1.014 . S
C223 C244 1.014 . S
C286 C268 1.014 . S
C307 C328 1.014 . S
C349 C370 1.014 . S
C412 C391 1.014 . S
C436 C454 1.014 . S
C475 C496 1.014 . S
C517 C538 1.014 . S
C559 C580 1.014 . S
C622 C604 1.014 . S
C643 C664 1.014 . S
C16 C14 1.400 . S
C37 C35 1.400 . S
C58 C56 1.400 . S
C77 C79 1.400 . S
C101 C97 1.400 . S
C121 C119 1.400 . S
C140 C142 1.400 . S
C161 C163 1.400 . S
C182 C184 1.400 1_545 S
C205 C203 1.400 . S
C226 C224 1.400 . S
C245 C247 1.400 1_545 S
C269 C265 1.400 1_565 S
C289 C287 1.400 . S
C310 C308 1.400 . S
C329 C331 1.400 1_565 S
C352 C350 1.400 1_455 S
C371 C373 1.400 . S
C392 C394 1.400 1_655 S
C415 C413 1.400 . S
C433 C437 1.400 1_655 S
C457 C455 1.400 . S
C476 C478 1.400 1_455 S
C499 C497 1.400 . S
C518 C520 1.400 1_645 S
C541 C539 1.400 . S
C560 C562 1.400 1_655 S
C581 C583 1.400 1_545 S
C601 C605 1.400 1_645 S
C625 C623 1.400 . S
C644 C646 1.400 1_455 S
C665 C667 1.400 1_565 S
C15 C102 0.931 1_454 S
C624 C36 0.931 1_556 S
C309 C57 0.931 1_655 S
C78 C498 0.931 . S
C120 C540 0.931 1_556 S
C141 C225 0.931 1_655 S
C162 C414 0.931 . S
C183 C270 0.931 1_465 S
C456 C204 0.931 . S
C666 C246 0.931 1_545 S
C288 C372 0.931 . S
C582 C330 0.931 1_565 S
C351 C438 0.931 . S
C645 C393 0.931 . S
C477 C561 0.931 . S
C519 C606 0.931 1_564 S
