# Generated by pormake.
# Topology sow, (4)-cn, num edge types: 1
# Building blocks:
#     Node 0, Type 0, BuildingBlock: NAWXER_clean_sbu_0, # of connection points: 4
#     Node 1, Type 0, BuildingBlock: NAWXER_clean_sbu_0, # of connection points: 4
#     Node 2, Type 0, BuildingBlock: NAWXER_clean_sbu_0, # of connection points: 4
#     Node 3, Type 0, BuildingBlock: NAWXER_clean_sbu_0, # of connection points: 4
#     Node 4, Type 0, BuildingBlock: NAWXER_clean_sbu_0, # of connection points: 4
#     Node 5, Type 0, BuildingBlock: NAWXER_clean_sbu_0, # of connection points: 4
#     Node 6, Type 0, BuildingBlock: NAWXER_clean_sbu_0, # of connection points: 4
#     Node 7, Type 0, BuildingBlock: NAWXER_clean_sbu_0, # of connection points: 4
#     Edge 8, Type (0, 0), BuildingBlock: XUDNAN_clean_linker_2, # of connection points: 2
#     Edge 9, Type (0, 0), BuildingBlock: XUDNAN_clean_linker_2, # of connection points: 2
#     Edge 10, Type (0, 0), BuildingBlock: XUDNAN_clean_linker_2, # of connection points: 2
#     Edge 11, Type (0, 0), BuildingBlock: XUDNAN_clean_linker_2, # of connection points: 2
#     Edge 12, Type (0, 0), BuildingBlock: XUDNAN_clean_linker_2, # of connection points: 2
#     Edge 13, Type (0, 0), BuildingBlock: XUDNAN_clean_linker_2, # of connection points: 2
#     Edge 14, Type (0, 0), BuildingBlock: XUDNAN_clean_linker_2, # of connection points: 2
#     Edge 15, Type (0, 0), BuildingBlock: XUDNAN_clean_linker_2, # of connection points: 2
#     Edge 16, Type (0, 0), BuildingBlock: XUDNAN_clean_linker_2, # of connection points: 2
#     Edge 17, Type (0, 0), BuildingBlock: XUDNAN_clean_linker_2, # of connection points: 2
#     Edge 18, Type (0, 0), BuildingBlock: XUDNAN_clean_linker_2, # of connection points: 2
#     Edge 19, Type (0, 0), BuildingBlock: XUDNAN_clean_linker_2, # of connection points: 2
#     Edge 20, Type (0, 0), BuildingBlock: XUDNAN_clean_linker_2, # of connection points: 2
#     Edge 21, Type (0, 0), BuildingBlock: XUDNAN_clean_linker_2, # of connection points: 2
#     Edge 22, Type (0, 0), BuildingBlock: XUDNAN_clean_linker_2, # of connection points: 2
#     Edge 23, Type (0, 0), BuildingBlock: XUDNAN_clean_linker_2, # of connection points: 2
# Relax obj value: 0.113
# Max RMSD: 0.238
# Mean RMSD: 0.237
data_MOF--net-sow--node1-NAWXER_clean_sbu_0--edge1-XUDNAN_clean_linker_2
_symmetry_space_group_name_H-M    P1
_symmetry_Int_Tables_number       1
_symmetry_cell_setting            triclinic
loop_
_symmetry_equiv_pos_as_xyz
'x, y, z'
_cell_length_a     43.194762
_cell_length_b     19.346804
_cell_length_c     22.646897
_cell_angle_alpha  89.946795
_cell_angle_beta   89.55358
_cell_angle_gamma 90.167344
loop_
_atom_site_label
_atom_site_type_symbol
_atom_site_fract_x
_atom_site_fract_y
_atom_site_fract_z
_atom_type_partial_charge
C0 C 0.19646 0.1067 0.17621 0.0
C1 C 0.10993 0.06185 0.04428 0.0
O2 O 0.18352 0.05001 0.16276 0.0
Zn3 Zn 0.15499 0.08381 0.10461 0.0
O4 O 0.18805 0.16233 0.15003 0.0
Zn5 Zn 0.15499 0.1884 0.08251 0.0
O6 O 0.12961 0.25541 0.12144 0.0
O7 O 0.12261 0.14895 0.1542 0.0
O8 O 0.11881 0.1253 0.04267 0.0
O9 O 0.12573 0.01807 0.07304 0.0
O10 O 0.18387 0.10933 0.02878 0.0
O11 O 0.17926 0.22166 0.01696 0.0
C12 C 0.11505 0.21317 0.15456 0.0
C13 C 0.19088 0.16477 1.00035 0.0
C14 C 0.33061 0.25318 0.66234 0.0
C15 C 0.39768 0.37997 0.52485 0.0
O16 O 0.32911 0.31615 0.64684 0.0
Zn17 Zn 0.36134 0.3153 0.58686 0.0
O18 O 0.35033 0.21353 0.63678 0.0
Zn19 Zn 0.3854 0.22309 0.56922 0.0
O20 O 0.4224 0.19649 0.61143 0.0
O21 O 0.40312 0.29806 0.63693 0.0
O22 O 0.40382 0.31509 0.52604 0.0
O23 O 0.37338 0.40195 0.55076 0.0
O24 O 0.34225 0.25709 0.51479 0.0
O25 O 0.37132 0.16435 0.50623 0.0
C26 C 0.4245 0.2524 0.64071 0.0
C27 C 0.34844 0.19976 0.4889 0.0
C28 C 0.70964 0.37633 0.86212 0.0
C29 C 0.62128 0.45931 0.97344 0.0
O30 O 0.70315 0.43628 0.8808 0.0
Zn31 Zn 0.66737 0.41368 0.92606 0.0
O32 O 0.6928 0.32482 0.8787 0.0
Zn33 Zn 0.65199 0.31322 0.9359 0.0
O34 O 0.62404 0.26703 0.88377 0.0
O35 O 0.6344 0.37564 0.8603 0.0
O36 O 0.62054 0.39296 0.9706 0.0
O37 O 0.64532 0.49119 0.95568 0.0
O38 O 0.68515 0.36516 1.00424 0.0
O39 O 0.66479 0.26106 1.00342 0.0
C40 C 0.61956 0.31906 0.85064 0.0
C41 C 0.6818 0.30562 0.02829 0.0
C42 C 0.82129 0.22039 0.35964 0.0
C43 C 0.90565 0.12252 0.46915 0.0
O44 O 0.82723 0.15933 0.37575 0.0
Zn45 Zn 0.86257 0.1773 0.42195 0.0
O46 O 0.8387 0.27007 0.37741 0.0
Zn47 Zn 0.87951 0.27439 0.43457 0.0
O48 O 0.90839 0.3208 0.38524 0.0
O49 O 0.8988 0.21305 0.3587 0.0
O50 O 0.90877 0.18874 0.46814 0.0
O51 O 0.8808 0.09577 0.45037 0.0
O52 O 0.84449 0.22586 0.50153 0.0
O53 O 0.86767 0.32685 0.50217 0.0
C54 C 0.91408 0.26981 0.35176 0.0
C55 C 0.84912 0.28458 0.5263 0.0
C56 C 0.90221 0.87768 0.96006 0.0
C57 C 0.8121 0.78555 0.86158 0.0
O58 O 0.89998 0.81221 0.96997 0.0
Zn59 Zn 0.86589 0.73045 0.94674 0.0
O60 O 0.88058 0.90818 0.93297 0.0
Zn61 Zn 0.85631 0.82923 0.91661 0.0
O62 O 0.83598 0.80622 1.00105 0.0
O63 O 0.84839 0.6987 0.02146 0.0
O64 O 0.82201 0.84678 0.867 0.0
O65 O 0.82608 0.73602 0.888 0.0
O66 O 0.89261 0.66709 0.90533 0.0
O67 O 0.88894 0.76999 0.86359 0.0
C68 C 0.83456 0.75398 0.03581 0.0
C69 C 0.90097 0.70937 0.86526 0.0
C70 C 0.59281 0.63386 0.4651 0.0
C71 C 0.68863 0.71092 0.36857 0.0
O72 O 0.5982 0.69849 0.47262 0.0
Zn73 Zn 0.63479 0.77148 0.45228 0.0
O74 O 0.61377 0.59601 0.44235 0.0
Zn75 Zn 0.6433 0.66992 0.42504 0.0
O76 O 0.66349 0.69463 0.51032 0.0
O77 O 0.64939 0.80217 0.52659 0.0
O78 O 0.67845 0.64953 0.37372 0.0
O79 O 0.67477 0.75989 0.39619 0.0
O80 O 0.61165 0.83776 0.40823 0.0
O81 O 0.61426 0.73386 0.36782 0.0
C82 C 0.66329 0.74832 0.54366 0.0
C83 C 0.60389 0.79613 0.36755 0.0
C84 C 0.41343 0.64994 0.04576 0.0
C85 C 0.32658 0.72368 0.17086 0.0
O86 O 0.4059 0.71357 0.0392 0.0
Zn87 Zn 0.37235 0.78613 0.07219 0.0
O88 O 0.39649 0.61067 0.07769 0.0
Zn89 Zn 0.3678 0.68242 0.10383 0.0
O90 O 0.34143 0.705 0.02634 0.0
O91 O 0.34927 0.81469 1.00389 0.0
O92 O 0.3368 0.66252 0.16478 0.0
O93 O 0.33802 0.7723 0.13898 0.0
O94 O 0.40027 0.85157 0.1089 0.0
O95 O 0.40059 0.74717 0.14871 0.0
C96 C 0.3362 0.75731 0.99301 0.0
C97 C 0.4114 0.8089 0.14584 0.0
C98 C 0.10054 0.8796 0.54965 0.0
C99 C 0.18351 0.79452 0.67467 0.0
O100 O 0.10608 0.81496 0.54212 0.0
Zn101 Zn 0.13786 0.73762 0.57486 0.0
O102 O 0.11805 0.91515 0.58286 0.0
Zn103 Zn 0.1437 0.83901 0.60795 0.0
O104 O 0.17054 0.8163 0.5299 0.0
O105 O 0.16103 0.70779 0.50638 0.0
O106 O 0.17403 0.85617 0.66882 0.0
O107 O 0.17189 0.74676 0.64244 0.0
O108 O 0.10877 0.67315 0.60956 0.0
O109 O 0.10871 0.77623 0.65153 0.0
C110 C 0.17511 0.76417 0.49594 0.0
C111 C 0.09745 0.71496 0.6472 0.0
H112 H 0.29034 0.32525 0.73412 0.0
H113 H 0.32523 0.11882 0.69968 0.0
H114 H 0.29276 0.07313 0.78105 0.0
H115 H 0.28864 0.31078 0.89145 0.0
H116 H 0.25359 0.36014 0.90031 0.0
H117 H 0.27882 0.37623 0.83812 0.0
H118 H 0.23322 0.35483 0.76668 0.0
H119 H 0.20783 0.33879 0.82868 0.0
H120 H 0.21179 0.27487 0.77128 0.0
H121 H 0.25693 0.05015 0.86778 0.0
H122 H 0.22074 0.05202 0.95297 0.0
H123 H 0.20978 0.27359 0.9309 0.0
C124 C 0.29104 0.27035 0.74337 0.0
C125 C 0.31035 0.22567 0.71027 0.0
C126 C 0.31066 0.15419 0.72427 0.0
C127 C 0.29226 0.12766 0.77044 0.0
C128 C 0.27365 0.1732 0.80237 0.0
C129 C 0.2729 0.24303 0.78943 0.0
C130 C 0.25136 0.28115 0.83121 0.0
C131 C 0.26918 0.33526 0.86741 0.0
C132 C 0.22446 0.31435 0.79743 0.0
C133 C 0.24017 0.22193 0.86975 0.0
C134 C 0.25322 0.16003 0.85237 0.0
C135 C 0.2465 0.09829 0.88171 0.0
C136 C 0.22593 0.0999 0.93009 0.0
C137 C 0.21236 0.16291 0.9488 0.0
C138 C 0.21968 0.22451 0.91787 0.0
H139 H 0.21724 0.21832 0.24045 0.0
H140 H 0.23136 0.99828 0.21451 0.0
H141 H 0.27265 1.00001 0.28943 0.0
H142 H 0.29743 0.26467 0.26479 0.0
H143 H 0.28868 0.32696 0.32161 0.0
H144 H 0.26099 0.30986 0.26433 0.0
H145 H 0.21936 0.28048 0.34346 0.0
H146 H 0.24691 0.29758 0.40096 0.0
H147 H 0.22734 0.21524 0.39812 0.0
H148 H 0.31234 0.02401 0.36581 0.0
H149 H 0.34647 0.06892 0.44379 0.0
H150 H 0.30525 0.27211 0.42468 0.0
C151 C 0.22912 0.17052 0.25032 0.0
C152 C 0.22117 0.10822 0.22132 0.0
C153 C 0.23698 0.04659 0.2361 0.0
C154 C 0.26049 0.04693 0.27846 0.0
C155 C 0.26769 0.10894 0.3063 0.0
C156 C 0.25236 0.16957 0.29331 0.0
C157 C 0.26399 0.22856 0.33144 0.0
C158 C 0.27864 0.28589 0.29325 0.0
C159 C 0.23784 0.25712 0.37084 0.0
C160 C 0.28823 0.19143 0.36773 0.0
C161 C 0.29014 0.12261 0.35202 0.0
C162 C 0.31102 0.0778 0.37864 0.0
C163 C 0.33038 0.10387 0.42282 0.0
C164 C 0.32853 0.17397 0.44053 0.0
C165 C 0.30714 0.2182 0.41237 0.0
H166 H 0.81218 0.32566 0.2784 0.0
H167 H 0.77053 0.13908 0.3507 0.0
H168 H 0.72857 0.14669 0.27843 0.0
H169 H 0.73793 0.4139 0.24035 0.0
H170 H 0.75373 0.44919 0.17284 0.0
H171 H 0.77862 0.43407 0.23502 0.0
H172 H 0.81424 0.35917 0.16873 0.0
H173 H 0.78914 0.37314 0.10682 0.0
H174 H 0.79805 0.28632 0.12998 0.0
H175 H 0.69448 0.16566 0.19375 0.0
H176 H 0.66831 0.19818 0.10178 0.0
H177 H 0.73051 0.37364 0.08176 0.0
C178 C 0.79376 0.2876 0.27983 0.0
C179 C 0.79457 0.23189 0.32034 0.0
C180 C 0.77044 0.18212 0.32006 0.0
C181 C 0.74641 0.18606 0.27928 0.0
C182 C 0.74667 0.24021 0.23889 0.0
C183 C 0.76948 0.29052 0.23885 0.0
C184 C 0.76508 0.34037 0.18768 0.0
C185 C 0.75842 0.41374 0.21033 0.0
C186 C 0.79331 0.33966 0.14584 0.0
C187 C 0.73675 0.309 0.15851 0.0
C188 C 0.72652 0.25151 0.18923 0.0
C189 C 0.70194 0.21115 0.16965 0.0
C190 C 0.68732 0.22988 0.11713 0.0
C191 C 0.69724 0.28857 0.08463 0.0
C192 C 0.72216 0.32898 0.10601 0.0
H193 H 0.72065 0.26844 0.78466 0.0
H194 H 0.75686 0.46667 0.8423 0.0
H195 H 0.79779 0.46023 0.76649 0.0
H196 H 0.796 0.18933 0.74655 0.0
H197 H 0.78109 0.14625 0.68217 0.0
H198 H 0.75598 0.16275 0.74448 0.0
H199 H 0.71792 0.22734 0.67616 0.0
H200 H 0.74295 0.21135 0.61374 0.0
H201 H 0.73185 0.29857 0.63187 0.0
H202 H 0.83264 0.43724 0.68228 0.0
H203 H 0.85992 0.39922 0.59258 0.0
H204 H 0.80177 0.21575 0.58576 0.0
C205 C 0.73761 0.30967 0.78205 0.0
C206 C 0.73567 0.36783 0.8198 0.0
C207 C 0.75788 0.42153 0.8141 0.0
C208 C 0.7813 0.41831 0.77122 0.0
C209 C 0.7823 0.36107 0.73413 0.0
C210 C 0.76116 0.30756 0.73892 0.0
C211 C 0.7666 0.25412 0.6908 0.0
C212 C 0.77545 0.18395 0.71762 0.0
C213 C 0.73814 0.24749 0.65078 0.0
C214 C 0.7938 0.2866 0.65798 0.0
C215 C 0.80249 0.34803 0.68424 0.0
C216 C 0.82625 0.38897 0.66149 0.0
C217 C 0.84156 0.36688 0.61029 0.0
C218 C 0.83308 0.30438 0.58195 0.0
C219 C 0.80897 0.26348 0.60655 0.0
H220 H 0.80684 0.64844 0.09918 0.0
H221 H 0.8209 0.87066 0.09746 0.0
H222 H 0.7888 0.88139 0.18748 0.0
H223 H 0.72783 0.65435 0.14101 0.0
H224 H 0.72882 0.57877 0.18756 0.0
H225 H 0.75557 0.58685 0.12661 0.0
H226 H 0.80116 0.56935 0.19785 0.0
H227 H 0.7749 0.56287 0.25991 0.0
H228 H 0.80557 0.62614 0.26035 0.0
H229 H 0.75363 0.86971 0.2741 0.0
H230 H 0.71463 0.83761 0.34899 0.0
H231 H 0.72091 0.62299 0.29395 0.0
C232 C 0.80357 0.69914 0.11845 0.0
C233 C 0.81659 0.75874 0.09163 0.0
C234 C 0.81121 0.82436 0.1173 0.0
C235 C 0.79312 0.83094 0.16859 0.0
C236 C 0.78033 0.77146 0.19357 0.0
C237 C 0.7851 0.70679 0.16933 0.0
C238 C 0.7667 0.65205 0.20274 0.0
C239 C 0.74334 0.61591 0.16205 0.0
C240 C 0.78839 0.59949 0.23192 0.0
C241 C 0.75046 0.69638 0.24873 0.0
C242 C 0.7591 0.7649 0.24305 0.0
C243 C 0.74677 0.81618 0.27921 0.0
C244 C 0.72458 0.7973 0.32172 0.0
C245 C 0.71462 0.72772 0.32759 0.0
C246 C 0.72815 0.67652 0.29098 0.0
H247 H 0.71368 0.67172 0.58128 0.0
H248 H 0.64802 0.82855 0.63703 0.0
H249 H 0.67563 0.84171 0.73072 0.0
H250 H 0.72785 0.59719 0.73326 0.0
H251 H 0.76852 0.58489 0.71847 0.0
H252 H 0.741 0.57863 0.65923 0.0
H253 H 0.77151 0.67188 0.60055 0.0
H254 H 0.79899 0.67847 0.65957 0.0
H255 H 0.77901 0.75453 0.63437 0.0
H256 H 0.71302 0.85139 0.81031 0.0
H257 H 0.75904 0.8562 0.87373 0.0
H258 H 0.80168 0.69221 0.77156 0.0
C259 C 0.70472 0.70729 0.61405 0.0
C260 C 0.67861 0.74896 0.60195 0.0
C261 C 0.66797 0.79622 0.64522 0.0
C262 C 0.68339 0.80378 0.69883 0.0
C263 C 0.70945 0.76357 0.70892 0.0
C264 C 0.72009 0.71589 0.66816 0.0
C265 C 0.7505 0.68445 0.68835 0.0
C266 C 0.74673 0.60668 0.70055 0.0
C267 C 0.77653 0.69819 0.64302 0.0
C268 C 0.75578 0.72427 0.7453 0.0
C269 C 0.73144 0.76879 0.75643 0.0
C270 C 0.7319 0.81571 0.80297 0.0
C271 C 0.75814 0.81824 0.83862 0.0
C272 C 0.7835 0.77387 0.82797 0.0
C273 C 0.78212 0.72522 0.78148 0.0
H274 H 0.30599 0.86063 0.93293 0.0
H275 H 0.31766 0.63791 0.94017 0.0
H276 H 0.28103 0.62443 0.85804 0.0
H277 H 0.22429 0.85585 0.90452 0.0
H278 H 0.22487 0.92965 0.8559 0.0
H279 H 0.25312 0.92245 0.91362 0.0
H280 H 0.2972 0.93483 0.83612 0.0
H281 H 0.26906 0.94173 0.77817 0.0
H282 H 0.29867 0.87639 0.77417 0.0
H283 H 0.24327 0.63414 0.77653 0.0
H284 H 0.20483 0.66591 0.70176 0.0
H285 H 0.21582 0.88247 0.74816 0.0
C286 C 0.30105 0.80912 0.91679 0.0
C287 C 0.31482 0.75028 0.94269 0.0
C288 C 0.30739 0.68367 0.92102 0.0
C289 C 0.28668 0.67548 0.8743 0.0
C290 C 0.27337 0.73436 0.85 0.0
C291 C 0.28006 0.79991 0.87054 0.0
C292 C 0.26147 0.85419 0.83797 0.0
C293 C 0.23964 0.89279 0.88054 0.0
C294 C 0.28289 0.90475 0.80462 0.0
C295 C 0.2435 0.80875 0.79568 0.0
C296 C 0.25087 0.73989 0.80339 0.0
C297 C 0.23729 0.68787 0.76997 0.0
C298 C 0.21547 0.70655 0.72754 0.0
C299 C 0.20726 0.77671 0.71896 0.0
C300 C 0.22159 0.82841 0.75357 0.0
H301 H 0.29424 0.63532 0.24596 0.0
H302 H 0.30411 0.85148 0.19652 0.0
H303 H 0.26567 0.88325 0.27194 0.0
H304 H 0.21078 0.6436 0.27515 0.0
H305 H 0.21225 0.58494 0.33694 0.0
H306 H 0.24008 0.57751 0.27762 0.0
H307 H 0.28479 0.58822 0.35265 0.0
H308 H 0.25712 0.59587 0.41215 0.0
H309 H 0.28616 0.66186 0.40131 0.0
H310 H 0.22988 0.89487 0.35693 0.0
H311 H 0.19411 0.88282 0.44174 0.0
H312 H 0.20469 0.6598 0.43517 0.0
C313 C 0.28825 0.68931 0.25095 0.0
C314 C 0.30242 0.74081 0.21533 0.0
C315 C 0.29378 0.81089 0.22318 0.0
C316 C 0.27201 0.82976 0.26613 0.0
C317 C 0.25889 0.77825 0.30103 0.0
C318 C 0.26629 0.70935 0.29368 0.0
C319 C 0.24836 0.6646 0.33725 0.0
C320 C 0.22657 0.61472 0.30479 0.0
C321 C 0.27043 0.62534 0.37827 0.0
C322 C 0.23027 0.71947 0.37067 0.0
C323 C 0.23687 0.78465 0.34902 0.0
C324 C 0.22418 0.84405 0.37393 0.0
C325 C 0.20399 0.8367 0.42223 0.0
C326 C 0.19645 0.77043 0.44479 0.0
C327 C 0.20973 0.71108 0.41839 0.0
H328 H 0.07104 0.13164 0.20863 0.0
H329 H 0.09432 0.3456 0.17003 0.0
H330 H 0.04376 0.38214 0.21052 0.0
H331 H 0.99157 0.14131 0.16972 0.0
H332 H 0.97815 0.08522 0.2282 0.0
H333 H 0.0167 0.07536 0.19851 0.0
H334 H 0.03976 0.0897 0.30313 0.0
H335 H 1.00133 0.09872 0.33349 0.0
H336 H 0.02994 0.16497 0.34614 0.0
H337 H 0.9906 0.39547 0.25343 0.0
H338 H 0.93999 0.3858 0.30408 0.0
H339 H 0.9505 0.16301 0.3127 0.0
C340 C 0.06576 0.18632 0.20956 0.0
C341 C 0.08676 0.23583 0.18635 0.0
C342 C 0.07871 0.30675 0.18774 0.0
C343 C 0.04996 0.32798 0.21033 0.0
C344 C 0.02947 0.27768 0.23118 0.0
C345 C 0.03709 0.2084 0.23164 0.0
C346 C 0.01086 0.16489 0.25676 0.0
C347 C 0.9986 0.11368 0.21053 0.0
C348 C 0.02107 0.12734 0.31323 0.0
C349 C 0.98728 0.22062 0.27038 0.0
C350 C 0.9985 0.28526 0.25508 0.0
C351 C 0.98151 0.34515 0.26541 0.0
C352 C 0.95274 0.3391 0.29396 0.0
C353 C 0.94117 0.27364 0.31167 0.0
C354 C 0.95841 0.21356 0.29842 0.0
H355 H 0.46715 0.16934 0.69756 0.0
H356 H 0.44849 0.38106 0.64521 0.0
H357 H 0.49879 0.41762 0.68446 0.0
H358 H 0.50273 0.21517 0.83543 0.0
H359 H 0.53099 0.14686 0.83266 0.0
H360 H 0.49424 0.13593 0.79687 0.0
H361 H 0.52273 0.10942 0.69834 0.0
H362 H 0.55959 0.12129 0.73375 0.0
H363 H 0.55021 0.17107 0.66902 0.0
H364 H 0.55063 0.4323 0.72738 0.0
H365 H 0.59806 0.42802 0.78661 0.0
H366 H 0.58307 0.20868 0.81755 0.0
C367 C 0.47378 0.22325 0.69448 0.0
C368 C 0.4539 0.2724 0.66868 0.0
C369 C 0.46317 0.34266 0.66562 0.0
C370 C 0.49187 0.36389 0.68708 0.0
C371 C 0.51105 0.3144 0.71192 0.0
C372 C 0.50229 0.24582 0.7169 0.0
C373 C 0.5265 0.20472 0.74995 0.0
C374 C 0.5128 0.17388 0.80712 0.0
C375 C 0.54059 0.14828 0.71039 0.0
C376 C 0.54995 0.26117 0.76296 0.0
C377 C 0.54078 0.32362 0.73942 0.0
C378 C 0.55814 0.38376 0.74616 0.0
C379 C 0.58515 0.38067 0.77972 0.0
C380 C 0.59432 0.31807 0.80686 0.0
C381 C 0.57678 0.25724 0.79715 0.0
H382 H 0.05679 0.80458 0.69749 0.0
H383 H 0.0732 0.58571 0.67036 0.0
H384 H 0.02335 0.55891 0.72069 0.0
H385 H 0.02061 0.79182 0.84026 0.0
H386 H 0.99327 0.85978 0.82559 0.0
H387 H 0.03059 0.86046 0.78965 0.0
H388 H 1.00405 0.86546 0.68741 0.0
H389 H 0.96656 0.86442 0.72277 0.0
H390 H 0.9761 0.80007 0.66812 0.0
H391 H 0.9718 0.55748 0.77737 0.0
H392 H 0.92322 0.58165 0.83269 0.0
H393 H 0.94024 0.80168 0.81405 0.0
C394 C 0.0502 0.75085 0.70278 0.0
C395 C 0.06905 0.69709 0.68076 0.0
C396 C 0.05917 0.62762 0.68738 0.0
C397 C 0.03091 0.612 0.71572 0.0
C398 C 0.01268 0.66654 0.73623 0.0
C399 C 0.02198 0.73456 0.72979 0.0
C400 C 0.9981 0.78409 0.75407 0.0
C401 C 0.01144 0.82655 0.80543 0.0
C402 C 0.98546 0.83127 0.70517 0.0
C403 C 0.97382 0.73344 0.77551 0.0
C404 C 0.98264 0.66581 0.76544 0.0
C405 C 0.96452 0.61026 0.7848 0.0
C406 C 0.93698 0.62439 0.81601 0.0
C407 C 0.92771 0.69345 0.82662 0.0
C408 C 0.94625 0.74833 0.80525 0.0
H409 H 0.45161 0.71629 0.19088 0.0
H410 H 0.43624 0.93686 0.17285 0.0
H411 H 0.48628 0.95939 0.22285 0.0
H412 H 0.48684 0.71821 0.33247 0.0
H413 H 0.51377 0.65052 0.31391 0.0
H414 H 0.47672 0.65391 0.27832 0.0
H415 H 0.50425 0.65502 0.17599 0.0
H416 H 0.54144 0.65273 0.21135 0.0
H417 H 0.53267 0.72091 0.15987 0.0
H418 H 0.53734 0.95562 0.27983 0.0
H419 H 0.58428 0.9264 0.3369 0.0
H420 H 0.56628 0.70834 0.30818 0.0
C421 C 0.45843 0.76955 0.19802 0.0
C422 C 0.43982 0.82499 0.17891 0.0
C423 C 0.45007 0.89373 0.18776 0.0
C424 C 0.47845 0.90688 0.21582 0.0
C425 C 0.49637 0.85064 0.23351 0.0
C426 C 0.48668 0.78338 0.22461 0.0
C427 C 0.51001 0.73157 0.24651 0.0
C428 C 0.496 0.68591 0.29572 0.0
C429 C 0.52285 0.68749 0.19538 0.0
C430 C 0.53432 0.78006 0.27028 0.0
C431 C 0.52614 0.84855 0.2627 0.0
C432 C 0.54416 0.90221 0.28519 0.0
C433 C 0.57077 0.88519 0.31739 0.0
C434 C 0.57916 0.8152 0.32608 0.0
C435 C 0.56098 0.76238 0.30098 0.0
H436 H 0.08031 0.93484 0.04771 0.0
H437 H 0.06902 0.14734 0.98957 0.0
H438 H 0.01482 0.12286 0.96447 0.0
H439 H 0.03123 0.85861 0.93347 0.0
H440 H 0.01504 0.79347 0.9817 0.0
H441 H 0.05368 0.82557 0.9939 0.0
H442 H 0.03911 0.85933 0.10083 0.0
H443 H 1.00037 0.82731 0.08998 0.0
H444 H 1.00642 0.9151 0.114 0.0
H445 H 0.96123 0.0794 0.95295 0.0
H446 H 0.91238 0.01534 0.9433 0.0
H447 H 0.95751 0.82864 1.00523 0.0
C448 C 0.06662 0.97586 0.02862 0.0
C449 C 0.07908 0.04309 0.0206 0.0
C450 C 0.06021 0.09538 0.99597 0.0
C451 C 0.02926 0.08213 0.98184 0.0
C452 C 0.01748 0.01613 0.992 0.0
C453 C 0.0356 0.96341 0.0138 0.0
C454 C 0.01692 0.89714 0.02037 0.0
C455 C 0.02998 0.84029 0.97996 0.0
C456 C 0.01564 0.87334 0.08516 0.0
C457 C 0.9854 0.92131 0.99961 0.0
C458 C 0.98636 0.9903 0.9839 0.0
C459 C 0.96023 0.02516 0.96452 0.0
C460 C 0.9325 0.98819 0.95949 0.0
C461 C 0.93096 0.91673 0.9734 0.0
C462 C 0.95781 0.88318 0.99447 0.0
H463 H 0.57279 0.49774 0.46922 0.0
H464 H 0.5404 0.70952 0.48233 0.0
H465 H 0.48666 0.66786 0.49051 0.0
H466 H 0.50938 0.43091 0.384 0.0
H467 H 0.50753 0.34948 0.42265 0.0
H468 H 0.54377 0.39541 0.41674 0.0
H469 H 0.54904 0.39364 0.53037 0.0
H470 H 0.51278 0.34808 0.53742 0.0
H471 H 0.51844 0.42872 0.57567 0.0
H472 H 0.43614 0.60379 0.49768 0.0
H473 H 0.39313 0.5209 0.51257 0.0
H474 H 0.45795 0.35082 0.49545 0.0
C475 C 0.55441 0.53528 0.47415 0.0
C476 C 0.56096 0.60695 0.47535 0.0
C477 C 0.53615 0.65432 0.48189 0.0
C478 C 0.50542 0.63123 0.48608 0.0
C479 C 0.49971 0.56046 0.48408 0.0
C480 C 0.52349 0.51306 0.47904 0.0
C481 C 0.511 0.43972 0.48046 0.0
C482 C 0.51836 0.40165 0.4225 0.0
C483 C 0.52355 0.40019 0.53416 0.0
C484 C 0.47656 0.45348 0.4868 0.0
C485 C 0.47052 0.52347 0.48845 0.0
C486 C 0.44055 0.54879 0.49617 0.0
C487 C 0.41621 0.5013 0.50426 0.0
C488 C 0.42196 0.42925 0.50455 0.0
C489 C 0.45254 0.40542 0.49433 0.0
H490 H 0.44223 0.52204 0.05783 0.0
H491 H 0.4557 0.72927 0.98746 0.0
H492 H 0.5102 0.70337 0.96747 0.0
H493 H 0.51536 0.50644 0.12745 0.0
H494 H 0.52167 0.41726 0.10787 0.0
H495 H 0.4828 0.44959 0.1161 0.0
H496 H 0.4696 0.40956 0.01006 0.0
H497 H 0.50822 0.37575 1.00194 0.0
H498 H 0.49375 0.43724 0.94915 0.0
H499 H 0.56367 0.66127 0.96302 0.0
H500 H 0.61234 0.59675 0.95579 0.0
H501 H 0.56563 0.41227 0.02108 0.0
C502 C 0.4565 0.56141 0.03714 0.0
C503 C 0.44448 0.62788 0.02455 0.0
C504 C 0.4641 0.67799 0.9977 0.0
C505 C 0.49529 0.66404 0.98644 0.0
C506 C 0.50663 0.59927 1.00124 0.0
C507 C 0.48786 0.54796 0.02447 0.0
C508 C 0.5063 0.4822 0.03457 0.0
C509 C 0.50654 0.46274 0.10042 0.0
C510 C 0.49372 0.42267 0.99666 0.0
C511 C 0.53824 0.50512 0.01356 0.0
C512 C 0.5378 0.57334 0.99567 0.0
C513 C 0.56432 0.6075 0.97614 0.0
C514 C 0.59197 0.57035 0.97264 0.0
C515 C 0.59291 0.49922 0.9876 0.0
C516 C 0.56569 0.46652 0.00927 0.0
H517 H 0.07884 0.01411 0.55784 0.0
H518 H 0.0553 0.8099 0.4916 0.0
H519 H 1.00322 0.85061 0.46735 0.0
H520 H 1.00616 0.05214 0.62345 0.0
H521 H 1.00543 0.14185 0.60193 0.0
H522 H 0.04192 0.09886 0.61248 0.0
H523 H 0.05908 0.13272 0.50687 0.0
H524 H 0.02272 0.1759 0.49508 0.0
H525 H 0.03528 0.10891 0.44514 0.0
H526 H 0.95282 0.90744 0.45944 0.0
H527 H 0.908 0.98391 0.45143 0.0
H528 H 0.96324 0.15606 0.51555 0.0
C529 C 0.0629 0.97838 0.53724 0.0
C530 C 0.07127 0.90863 0.52683 0.0
C531 C 0.04964 0.86351 0.5 0.0
C532 C 0.01984 0.88599 0.48632 0.0
C533 C 0.01203 0.95408 0.49888 0.0
C534 C 0.03298 1.00027 0.52241 0.0
C535 C 0.01826 0.07097 0.53059 0.0
C536 C 0.01793 0.09218 0.59601 0.0
C537 C 0.03481 0.12539 0.49213 0.0
C538 C 0.98572 0.05663 0.50864 0.0
C539 C 0.98276 0.98845 0.49146 0.0
C540 C 0.95489 0.96124 0.4719 0.0
C541 C 0.92945 0.00527 0.46797 0.0
C542 C 0.932 0.07634 0.48264 0.0
C543 C 0.96053 0.10212 0.50394 0.0
loop_
_geom_bond_atom_site_label_1
_geom_bond_atom_site_label_2
_geom_bond_distance
_geom_bond_site_symmetry_2
_ccdc_geom_bond_type
C0 O2 1.247 . S
C0 O4 1.258 . S
C1 O8 1.247 . S
C1 O9 1.258 . S
O2 C0 1.247 . S
O2 Zn3 2.028 . S
Zn3 O2 2.028 . S
Zn3 O7 2.035 . S
Zn3 O9 2.035 . S
Zn3 O10 2.028 . S
O4 C0 1.258 . S
O4 Zn5 2.035 . S
Zn5 O4 2.035 . S
Zn5 O6 2.028 . S
Zn5 O8 2.028 . S
Zn5 O11 2.035 . S
O6 Zn5 2.028 . S
O6 C12 1.247 . S
O7 Zn3 2.035 . S
O7 C12 1.258 . S
O8 C1 1.247 . S
O8 Zn5 2.028 . S
O9 C1 1.258 . S
O9 Zn3 2.035 . S
O10 Zn3 2.028 . S
O10 C13 1.247 . S
O11 Zn5 2.035 . S
O11 C13 1.258 . S
C12 O6 1.247 . S
C12 O7 1.258 . S
C13 O10 1.247 . S
C13 O11 1.258 . S
C14 O16 1.247 . S
C14 O18 1.258 . S
C15 O22 1.247 . S
C15 O23 1.258 . S
O16 C14 1.247 . S
O16 Zn17 2.028 . S
Zn17 O16 2.028 . S
Zn17 O21 2.035 . S
Zn17 O23 2.035 . S
Zn17 O24 2.028 . S
O18 C14 1.258 . S
O18 Zn19 2.035 . S
Zn19 O18 2.035 . S
Zn19 O20 2.028 . S
Zn19 O22 2.028 . S
Zn19 O25 2.035 . S
O20 Zn19 2.028 . S
O20 C26 1.247 . S
O21 Zn17 2.035 . S
O21 C26 1.258 . S
O22 C15 1.247 . S
O22 Zn19 2.028 . S
O23 C15 1.258 . S
O23 Zn17 2.035 . S
O24 Zn17 2.028 . S
O24 C27 1.247 . S
O25 Zn19 2.035 . S
O25 C27 1.258 . S
C26 O20 1.247 . S
C26 O21 1.258 . S
C27 O24 1.247 . S
C27 O25 1.258 . S
C28 O30 1.247 . S
C28 O32 1.258 . S
C29 O36 1.247 . S
C29 O37 1.258 . S
O30 C28 1.247 . S
O30 Zn31 2.028 . S
Zn31 O30 2.028 . S
Zn31 O35 2.035 . S
Zn31 O37 2.035 . S
Zn31 O38 2.028 . S
O32 C28 1.258 . S
O32 Zn33 2.035 . S
Zn33 O32 2.035 . S
Zn33 O34 2.028 . S
Zn33 O36 2.028 . S
Zn33 O39 2.035 . S
O34 Zn33 2.028 . S
O34 C40 1.247 . S
O35 Zn31 2.035 . S
O35 C40 1.258 . S
O36 C29 1.247 . S
O36 Zn33 2.028 . S
O37 C29 1.258 . S
O37 Zn31 2.035 . S
O38 Zn31 2.028 . S
O38 C41 1.247 . S
O39 Zn33 2.035 . S
O39 C41 1.258 . S
C40 O34 1.247 . S
C40 O35 1.258 . S
C41 O38 1.247 . S
C41 O39 1.258 . S
C42 O44 1.247 . S
C42 O46 1.258 . S
C43 O50 1.247 . S
C43 O51 1.258 . S
O44 C42 1.247 . S
O44 Zn45 2.028 . S
Zn45 O44 2.028 . S
Zn45 O49 2.035 . S
Zn45 O51 2.035 . S
Zn45 O52 2.028 . S
O46 C42 1.258 . S
O46 Zn47 2.035 . S
Zn47 O46 2.035 . S
Zn47 O48 2.028 . S
Zn47 O50 2.028 . S
Zn47 O53 2.035 . S
O48 Zn47 2.028 . S
O48 C54 1.247 . S
O49 Zn45 2.035 . S
O49 C54 1.258 . S
O50 C43 1.247 . S
O50 Zn47 2.028 . S
O51 C43 1.258 . S
O51 Zn45 2.035 . S
O52 Zn45 2.028 . S
O52 C55 1.247 . S
O53 Zn47 2.035 . S
O53 C55 1.258 . S
C54 O48 1.247 . S
C54 O49 1.258 . S
C55 O52 1.247 . S
C55 O53 1.258 . S
C56 O58 1.247 . S
C56 O60 1.258 . S
C57 O64 1.247 . S
C57 O65 1.258 . S
O58 C56 1.247 . S
O58 Zn59 2.028 . S
Zn59 O58 2.028 . S
Zn59 O63 2.035 . S
Zn59 O65 2.035 . S
Zn59 O66 2.028 . S
O60 C56 1.258 . S
O60 Zn61 2.035 . S
Zn61 O60 2.035 . S
Zn61 O62 2.028 . S
Zn61 O64 2.028 . S
Zn61 O67 2.035 . S
O62 Zn61 2.028 . S
O62 C68 1.247 . S
O63 Zn59 2.035 . S
O63 C68 1.258 . S
O64 C57 1.247 . S
O64 Zn61 2.028 . S
O65 C57 1.258 . S
O65 Zn59 2.035 . S
O66 Zn59 2.028 . S
O66 C69 1.247 . S
O67 Zn61 2.035 . S
O67 C69 1.258 . S
C68 O62 1.247 . S
C68 O63 1.258 . S
C69 O66 1.247 . S
C69 O67 1.258 . S
C70 O72 1.247 . S
C70 O74 1.258 . S
C71 O78 1.247 . S
C71 O79 1.258 . S
O72 C70 1.247 . S
O72 Zn73 2.028 . S
Zn73 O72 2.028 . S
Zn73 O77 2.035 . S
Zn73 O79 2.035 . S
Zn73 O80 2.028 . S
O74 C70 1.258 . S
O74 Zn75 2.035 . S
Zn75 O74 2.035 . S
Zn75 O76 2.028 . S
Zn75 O78 2.028 . S
Zn75 O81 2.035 . S
O76 Zn75 2.028 . S
O76 C82 1.247 . S
O77 Zn73 2.035 . S
O77 C82 1.258 . S
O78 C71 1.247 . S
O78 Zn75 2.028 . S
O79 C71 1.258 . S
O79 Zn73 2.035 . S
O80 Zn73 2.028 . S
O80 C83 1.247 . S
O81 Zn75 2.035 . S
O81 C83 1.258 . S
C82 O76 1.247 . S
C82 O77 1.258 . S
C83 O80 1.247 . S
C83 O81 1.258 . S
C84 O86 1.247 . S
C84 O88 1.258 . S
C85 O92 1.247 . S
C85 O93 1.258 . S
O86 C84 1.247 . S
O86 Zn87 2.028 . S
Zn87 O86 2.028 . S
Zn87 O91 2.035 . S
Zn87 O93 2.035 . S
Zn87 O94 2.028 . S
O88 C84 1.258 . S
O88 Zn89 2.035 . S
Zn89 O88 2.035 . S
Zn89 O90 2.028 . S
Zn89 O92 2.028 . S
Zn89 O95 2.035 . S
O90 Zn89 2.028 . S
O90 C96 1.247 . S
O91 Zn87 2.035 . S
O91 C96 1.258 . S
O92 C85 1.247 . S
O92 Zn89 2.028 . S
O93 C85 1.258 . S
O93 Zn87 2.035 . S
O94 Zn87 2.028 . S
O94 C97 1.247 . S
O95 Zn89 2.035 . S
O95 C97 1.258 . S
C96 O90 1.247 . S
C96 O91 1.258 . S
C97 O94 1.247 . S
C97 O95 1.258 . S
C98 O100 1.247 . S
C98 O102 1.258 . S
C99 O106 1.247 . S
C99 O107 1.258 . S
O100 C98 1.247 . S
O100 Zn101 2.028 . S
Zn101 O100 2.028 . S
Zn101 O105 2.035 . S
Zn101 O107 2.035 . S
Zn101 O108 2.028 . S
O102 C98 1.258 . S
O102 Zn103 2.035 . S
Zn103 O102 2.035 . S
Zn103 O104 2.028 . S
Zn103 O106 2.028 . S
Zn103 O109 2.035 . S
O104 Zn103 2.028 . S
O104 C110 1.247 . S
O105 Zn101 2.035 . S
O105 C110 1.258 . S
O106 C99 1.247 . S
O106 Zn103 2.028 . S
O107 C99 1.258 . S
O107 Zn101 2.035 . S
O108 Zn101 2.028 . S
O108 C111 1.247 . S
O109 Zn103 2.035 . S
O109 C111 1.258 . S
C110 O104 1.247 . S
C110 O105 1.258 . S
C111 O108 1.247 . S
C111 O109 1.258 . S
H112 C124 0.930 . S
H113 C126 0.930 . S
H114 C127 0.930 . S
H115 C131 0.959 . S
H116 C131 0.959 . S
H117 C131 0.961 . S
H118 C132 0.960 . S
H119 C132 0.961 . S
H120 C132 0.959 . S
H121 C135 0.929 . S
H122 C136 0.931 . S
H123 C138 0.930 . S
C124 H112 0.930 . S
C124 C125 1.399 . S
C124 C129 1.399 . S
C125 C124 1.399 . S
C125 C126 1.376 . S
C126 H113 0.930 . S
C126 C125 1.376 . S
C126 C127 1.388 . S
C127 H114 0.930 . S
C127 C126 1.388 . S
C127 C128 1.390 . S
C128 C127 1.390 . S
C128 C129 1.394 . S
C128 C134 1.465 . S
C129 C124 1.399 . S
C129 C128 1.394 . S
C129 C130 1.516 . S
C130 C129 1.516 . S
C130 C131 1.502 . S
C130 C132 1.561 . S
C130 C133 1.526 . S
C131 H115 0.959 . S
C131 H116 0.959 . S
C131 H117 0.961 . S
C131 C130 1.502 . S
C132 H118 0.960 . S
C132 H119 0.961 . S
C132 H120 0.959 . S
C132 C130 1.561 . S
C133 C130 1.526 . S
C133 C134 1.396 . S
C133 C138 1.390 . S
C134 C128 1.465 . S
C134 C133 1.396 . S
C134 C135 1.399 . S
C135 H121 0.929 . S
C135 C134 1.399 . S
C135 C136 1.385 . S
C136 H122 0.931 . S
C136 C135 1.385 . S
C136 C137 1.389 . S
C137 C136 1.389 . S
C137 C138 1.387 . S
C138 H123 0.930 . S
C138 C133 1.390 . S
C138 C137 1.387 . S
H139 C151 0.930 . S
H140 C153 0.930 . S
H141 C154 0.930 . S
H142 C158 0.959 . S
H143 C158 0.959 . S
H144 C158 0.961 . S
H145 C159 0.960 . S
H146 C159 0.961 . S
H147 C159 0.959 . S
H148 C162 0.929 . S
H149 C163 0.931 . S
H150 C165 0.930 . S
C151 H139 0.930 . S
C151 C152 1.399 . S
C151 C156 1.399 . S
C152 C151 1.399 . S
C152 C153 1.376 . S
C153 H140 0.930 . S
C153 C152 1.376 . S
C153 C154 1.388 . S
C154 H141 0.930 . S
C154 C153 1.388 . S
C154 C155 1.390 . S
C155 C154 1.390 . S
C155 C156 1.394 . S
C155 C161 1.465 . S
C156 C151 1.399 . S
C156 C155 1.394 . S
C156 C157 1.516 . S
C157 C156 1.516 . S
C157 C158 1.502 . S
C157 C159 1.561 . S
C157 C160 1.526 . S
C158 H142 0.959 . S
C158 H143 0.959 . S
C158 H144 0.961 . S
C158 C157 1.502 . S
C159 H145 0.960 . S
C159 H146 0.961 . S
C159 H147 0.959 . S
C159 C157 1.561 . S
C160 C157 1.526 . S
C160 C161 1.396 . S
C160 C165 1.390 . S
C161 C155 1.465 . S
C161 C160 1.396 . S
C161 C162 1.399 . S
C162 H148 0.929 . S
C162 C161 1.399 . S
C162 C163 1.385 . S
C163 H149 0.931 . S
C163 C162 1.385 . S
C163 C164 1.389 . S
C164 C163 1.389 . S
C164 C165 1.387 . S
C165 H150 0.930 . S
C165 C160 1.390 . S
C165 C164 1.387 . S
H166 C178 0.930 . S
H167 C180 0.930 . S
H168 C181 0.930 . S
H169 C185 0.959 . S
H170 C185 0.959 . S
H171 C185 0.961 . S
H172 C186 0.960 . S
H173 C186 0.961 . S
H174 C186 0.959 . S
H175 C189 0.929 . S
H176 C190 0.931 . S
H177 C192 0.930 . S
C178 H166 0.930 . S
C178 C179 1.399 . S
C178 C183 1.399 . S
C179 C178 1.399 . S
C179 C180 1.376 . S
C180 H167 0.930 . S
C180 C179 1.376 . S
C180 C181 1.388 . S
C181 H168 0.930 . S
C181 C180 1.388 . S
C181 C182 1.390 . S
C182 C181 1.390 . S
C182 C183 1.394 . S
C182 C188 1.465 . S
C183 C178 1.399 . S
C183 C182 1.394 . S
C183 C184 1.516 . S
C184 C183 1.516 . S
C184 C185 1.502 . S
C184 C186 1.561 . S
C184 C187 1.526 . S
C185 H169 0.959 . S
C185 H170 0.959 . S
C185 H171 0.961 . S
C185 C184 1.502 . S
C186 H172 0.960 . S
C186 H173 0.961 . S
C186 H174 0.959 . S
C186 C184 1.561 . S
C187 C184 1.526 . S
C187 C188 1.396 . S
C187 C192 1.390 . S
C188 C182 1.465 . S
C188 C187 1.396 . S
C188 C189 1.399 . S
C189 H175 0.929 . S
C189 C188 1.399 . S
C189 C190 1.385 . S
C190 H176 0.931 . S
C190 C189 1.385 . S
C190 C191 1.389 . S
C191 C190 1.389 . S
C191 C192 1.387 . S
C192 H177 0.930 . S
C192 C187 1.390 . S
C192 C191 1.387 . S
H193 C205 0.930 . S
H194 C207 0.930 . S
H195 C208 0.930 . S
H196 C212 0.959 . S
H197 C212 0.959 . S
H198 C212 0.961 . S
H199 C213 0.960 . S
H200 C213 0.961 . S
H201 C213 0.959 . S
H202 C216 0.929 . S
H203 C217 0.931 . S
H204 C219 0.930 . S
C205 H193 0.930 . S
C205 C206 1.399 . S
C205 C210 1.399 . S
C206 C205 1.399 . S
C206 C207 1.376 . S
C207 H194 0.930 . S
C207 C206 1.376 . S
C207 C208 1.388 . S
C208 H195 0.930 . S
C208 C207 1.388 . S
C208 C209 1.390 . S
C209 C208 1.390 . S
C209 C210 1.394 . S
C209 C215 1.465 . S
C210 C205 1.399 . S
C210 C209 1.394 . S
C210 C211 1.516 . S
C211 C210 1.516 . S
C211 C212 1.502 . S
C211 C213 1.561 . S
C211 C214 1.526 . S
C212 H196 0.959 . S
C212 H197 0.959 . S
C212 H198 0.961 . S
C212 C211 1.502 . S
C213 H199 0.960 . S
C213 H200 0.961 . S
C213 H201 0.959 . S
C213 C211 1.561 . S
C214 C211 1.526 . S
C214 C215 1.396 . S
C214 C219 1.390 . S
C215 C209 1.465 . S
C215 C214 1.396 . S
C215 C216 1.399 . S
C216 H202 0.929 . S
C216 C215 1.399 . S
C216 C217 1.385 . S
C217 H203 0.931 . S
C217 C216 1.385 . S
C217 C218 1.389 . S
C218 C217 1.389 . S
C218 C219 1.387 . S
C219 H204 0.930 . S
C219 C214 1.390 . S
C219 C218 1.387 . S
H220 C232 0.930 . S
H221 C234 0.930 . S
H222 C235 0.930 . S
H223 C239 0.959 . S
H224 C239 0.959 . S
H225 C239 0.961 . S
H226 C240 0.960 . S
H227 C240 0.961 . S
H228 C240 0.959 . S
H229 C243 0.929 . S
H230 C244 0.931 . S
H231 C246 0.930 . S
C232 H220 0.930 . S
C232 C233 1.399 . S
C232 C237 1.399 . S
C233 C232 1.399 . S
C233 C234 1.376 . S
C234 H221 0.930 . S
C234 C233 1.376 . S
C234 C235 1.388 . S
C235 H222 0.930 . S
C235 C234 1.388 . S
C235 C236 1.390 . S
C236 C235 1.390 . S
C236 C237 1.394 . S
C236 C242 1.465 . S
C237 C232 1.399 . S
C237 C236 1.394 . S
C237 C238 1.516 . S
C238 C237 1.516 . S
C238 C239 1.502 . S
C238 C240 1.561 . S
C238 C241 1.526 . S
C239 H223 0.959 . S
C239 H224 0.959 . S
C239 H225 0.961 . S
C239 C238 1.502 . S
C240 H226 0.960 . S
C240 H227 0.961 . S
C240 H228 0.959 . S
C240 C238 1.561 . S
C241 C238 1.526 . S
C241 C242 1.396 . S
C241 C246 1.390 . S
C242 C236 1.465 . S
C242 C241 1.396 . S
C242 C243 1.399 . S
C243 H229 0.929 . S
C243 C242 1.399 . S
C243 C244 1.385 . S
C244 H230 0.931 . S
C244 C243 1.385 . S
C244 C245 1.389 . S
C245 C244 1.389 . S
C245 C246 1.387 . S
C246 H231 0.930 . S
C246 C241 1.390 . S
C246 C245 1.387 . S
H247 C259 0.930 . S
H248 C261 0.930 . S
H249 C262 0.930 . S
H250 C266 0.959 . S
H251 C266 0.959 . S
H252 C266 0.961 . S
H253 C267 0.960 . S
H254 C267 0.961 . S
H255 C267 0.959 . S
H256 C270 0.929 . S
H257 C271 0.931 . S
H258 C273 0.930 . S
C259 H247 0.930 . S
C259 C260 1.399 . S
C259 C264 1.399 . S
C260 C259 1.399 . S
C260 C261 1.376 . S
C261 H248 0.930 . S
C261 C260 1.376 . S
C261 C262 1.388 . S
C262 H249 0.930 . S
C262 C261 1.388 . S
C262 C263 1.390 . S
C263 C262 1.390 . S
C263 C264 1.394 . S
C263 C269 1.465 . S
C264 C259 1.399 . S
C264 C263 1.394 . S
C264 C265 1.516 . S
C265 C264 1.516 . S
C265 C266 1.502 . S
C265 C267 1.561 . S
C265 C268 1.526 . S
C266 H250 0.959 . S
C266 H251 0.959 . S
C266 H252 0.961 . S
C266 C265 1.502 . S
C267 H253 0.960 . S
C267 H254 0.961 . S
C267 H255 0.959 . S
C267 C265 1.561 . S
C268 C265 1.526 . S
C268 C269 1.396 . S
C268 C273 1.390 . S
C269 C263 1.465 . S
C269 C268 1.396 . S
C269 C270 1.399 . S
C270 H256 0.929 . S
C270 C269 1.399 . S
C270 C271 1.385 . S
C271 H257 0.931 . S
C271 C270 1.385 . S
C271 C272 1.389 . S
C272 C271 1.389 . S
C272 C273 1.387 . S
C273 H258 0.930 . S
C273 C268 1.390 . S
C273 C272 1.387 . S
H274 C286 0.930 . S
H275 C288 0.930 . S
H276 C289 0.930 . S
H277 C293 0.959 . S
H278 C293 0.959 . S
H279 C293 0.961 . S
H280 C294 0.960 . S
H281 C294 0.961 . S
H282 C294 0.959 . S
H283 C297 0.929 . S
H284 C298 0.931 . S
H285 C300 0.930 . S
C286 H274 0.930 . S
C286 C287 1.399 . S
C286 C291 1.399 . S
C287 C286 1.399 . S
C287 C288 1.376 . S
C288 H275 0.930 . S
C288 C287 1.376 . S
C288 C289 1.388 . S
C289 H276 0.930 . S
C289 C288 1.388 . S
C289 C290 1.390 . S
C290 C289 1.390 . S
C290 C291 1.394 . S
C290 C296 1.465 . S
C291 C286 1.399 . S
C291 C290 1.394 . S
C291 C292 1.516 . S
C292 C291 1.516 . S
C292 C293 1.502 . S
C292 C294 1.561 . S
C292 C295 1.526 . S
C293 H277 0.959 . S
C293 H278 0.959 . S
C293 H279 0.961 . S
C293 C292 1.502 . S
C294 H280 0.960 . S
C294 H281 0.961 . S
C294 H282 0.959 . S
C294 C292 1.561 . S
C295 C292 1.526 . S
C295 C296 1.396 . S
C295 C300 1.390 . S
C296 C290 1.465 . S
C296 C295 1.396 . S
C296 C297 1.399 . S
C297 H283 0.929 . S
C297 C296 1.399 . S
C297 C298 1.385 . S
C298 H284 0.931 . S
C298 C297 1.385 . S
C298 C299 1.389 . S
C299 C298 1.389 . S
C299 C300 1.387 . S
C300 H285 0.930 . S
C300 C295 1.390 . S
C300 C299 1.387 . S
H301 C313 0.930 . S
H302 C315 0.930 . S
H303 C316 0.930 . S
H304 C320 0.959 . S
H305 C320 0.959 . S
H306 C320 0.961 . S
H307 C321 0.960 . S
H308 C321 0.961 . S
H309 C321 0.959 . S
H310 C324 0.929 . S
H311 C325 0.931 . S
H312 C327 0.930 . S
C313 H301 0.930 . S
C313 C314 1.399 . S
C313 C318 1.399 . S
C314 C313 1.399 . S
C314 C315 1.376 . S
C315 H302 0.930 . S
C315 C314 1.376 . S
C315 C316 1.388 . S
C316 H303 0.930 . S
C316 C315 1.388 . S
C316 C317 1.390 . S
C317 C316 1.390 . S
C317 C318 1.394 . S
C317 C323 1.465 . S
C318 C313 1.399 . S
C318 C317 1.394 . S
C318 C319 1.516 . S
C319 C318 1.516 . S
C319 C320 1.502 . S
C319 C321 1.561 . S
C319 C322 1.526 . S
C320 H304 0.959 . S
C320 H305 0.959 . S
C320 H306 0.961 . S
C320 C319 1.502 . S
C321 H307 0.960 . S
C321 H308 0.961 . S
C321 H309 0.959 . S
C321 C319 1.561 . S
C322 C319 1.526 . S
C322 C323 1.396 . S
C322 C327 1.390 . S
C323 C317 1.465 . S
C323 C322 1.396 . S
C323 C324 1.399 . S
C324 H310 0.929 . S
C324 C323 1.399 . S
C324 C325 1.385 . S
C325 H311 0.931 . S
C325 C324 1.385 . S
C325 C326 1.389 . S
C326 C325 1.389 . S
C326 C327 1.387 . S
C327 H312 0.930 . S
C327 C322 1.390 . S
C327 C326 1.387 . S
H328 C340 0.930 . S
H329 C342 0.930 . S
H330 C343 0.930 . S
H331 C347 0.959 1_655 S
H332 C347 0.959 1_655 S
H333 C347 0.961 . S
H334 C348 0.960 . S
H335 C348 0.961 . S
H336 C348 0.959 . S
H337 C351 0.929 . S
H338 C352 0.931 . S
H339 C354 0.930 . S
C340 H328 0.930 . S
C340 C341 1.399 . S
C340 C345 1.399 . S
C341 C340 1.399 . S
C341 C342 1.376 . S
C342 H329 0.930 . S
C342 C341 1.376 . S
C342 C343 1.388 . S
C343 H330 0.930 . S
C343 C342 1.388 . S
C343 C344 1.390 . S
C344 C343 1.390 . S
C344 C345 1.394 . S
C344 C350 1.465 1_455 S
C345 C340 1.399 . S
C345 C344 1.394 . S
C345 C346 1.516 . S
C346 C345 1.516 . S
C346 C347 1.502 . S
C346 C348 1.561 . S
C346 C349 1.526 1_455 S
C347 H331 0.959 1_455 S
C347 H332 0.959 1_455 S
C347 H333 0.961 . S
C347 C346 1.502 . S
C348 H334 0.960 . S
C348 H335 0.961 . S
C348 H336 0.959 . S
C348 C346 1.561 . S
C349 C346 1.526 1_655 S
C349 C350 1.396 . S
C349 C354 1.390 . S
C350 C344 1.465 1_655 S
C350 C349 1.396 . S
C350 C351 1.399 . S
C351 H337 0.929 . S
C351 C350 1.399 . S
C351 C352 1.385 . S
C352 H338 0.931 . S
C352 C351 1.385 . S
C352 C353 1.389 . S
C353 C352 1.389 . S
C353 C354 1.387 . S
C354 H339 0.930 . S
C354 C349 1.390 . S
C354 C353 1.387 . S
H355 C367 0.930 . S
H356 C369 0.930 . S
H357 C370 0.930 . S
H358 C374 0.959 . S
H359 C374 0.959 . S
H360 C374 0.961 . S
H361 C375 0.960 . S
H362 C375 0.961 . S
H363 C375 0.959 . S
H364 C378 0.929 . S
H365 C379 0.931 . S
H366 C381 0.930 . S
C367 H355 0.930 . S
C367 C368 1.399 . S
C367 C372 1.399 . S
C368 C367 1.399 . S
C368 C369 1.376 . S
C369 H356 0.930 . S
C369 C368 1.376 . S
C369 C370 1.388 . S
C370 H357 0.930 . S
C370 C369 1.388 . S
C370 C371 1.390 . S
C371 C370 1.390 . S
C371 C372 1.394 . S
C371 C377 1.465 . S
C372 C367 1.399 . S
C372 C371 1.394 . S
C372 C373 1.516 . S
C373 C372 1.516 . S
C373 C374 1.502 . S
C373 C375 1.561 . S
C373 C376 1.526 . S
C374 H358 0.959 . S
C374 H359 0.959 . S
C374 H360 0.961 . S
C374 C373 1.502 . S
C375 H361 0.960 . S
C375 H362 0.961 . S
C375 H363 0.959 . S
C375 C373 1.561 . S
C376 C373 1.526 . S
C376 C377 1.396 . S
C376 C381 1.390 . S
C377 C371 1.465 . S
C377 C376 1.396 . S
C377 C378 1.399 . S
C378 H364 0.929 . S
C378 C377 1.399 . S
C378 C379 1.385 . S
C379 H365 0.931 . S
C379 C378 1.385 . S
C379 C380 1.389 . S
C380 C379 1.389 . S
C380 C381 1.387 . S
C381 H366 0.930 . S
C381 C376 1.390 . S
C381 C380 1.387 . S
H382 C394 0.930 . S
H383 C396 0.930 . S
H384 C397 0.930 . S
H385 C401 0.959 . S
H386 C401 0.959 1_655 S
H387 C401 0.961 . S
H388 C402 0.960 1_455 S
H389 C402 0.961 . S
H390 C402 0.959 . S
H391 C405 0.929 . S
H392 C406 0.931 . S
H393 C408 0.930 . S
C394 H382 0.930 . S
C394 C395 1.399 . S
C394 C399 1.399 . S
C395 C394 1.399 . S
C395 C396 1.376 . S
C396 H383 0.930 . S
C396 C395 1.376 . S
C396 C397 1.388 . S
C397 H384 0.930 . S
C397 C396 1.388 . S
C397 C398 1.390 . S
C398 C397 1.390 . S
C398 C399 1.394 . S
C398 C404 1.465 1_455 S
C399 C394 1.399 . S
C399 C398 1.394 . S
C399 C400 1.516 . S
C400 C399 1.516 . S
C400 C401 1.502 . S
C400 C402 1.561 1_455 S
C400 C403 1.526 1_455 S
C401 H385 0.959 . S
C401 H386 0.959 1_455 S
C401 H387 0.961 . S
C401 C400 1.502 . S
C402 H388 0.960 1_655 S
C402 H389 0.961 . S
C402 H390 0.959 . S
C402 C400 1.561 1_655 S
C403 C400 1.526 1_655 S
C403 C404 1.396 . S
C403 C408 1.390 . S
C404 C398 1.465 1_655 S
C404 C403 1.396 . S
C404 C405 1.399 . S
C405 H391 0.929 . S
C405 C404 1.399 . S
C405 C406 1.385 . S
C406 H392 0.931 . S
C406 C405 1.385 . S
C406 C407 1.389 . S
C407 C406 1.389 . S
C407 C408 1.387 . S
C408 H393 0.930 . S
C408 C403 1.390 . S
C408 C407 1.387 . S
H409 C421 0.930 . S
H410 C423 0.930 . S
H411 C424 0.930 . S
H412 C428 0.959 . S
H413 C428 0.959 . S
H414 C428 0.961 . S
H415 C429 0.960 . S
H416 C429 0.961 . S
H417 C429 0.959 . S
H418 C432 0.929 . S
H419 C433 0.931 . S
H420 C435 0.930 . S
C421 H409 0.930 . S
C421 C422 1.399 . S
C421 C426 1.399 . S
C422 C421 1.399 . S
C422 C423 1.376 . S
C423 H410 0.930 . S
C423 C422 1.376 . S
C423 C424 1.388 . S
C424 H411 0.930 . S
C424 C423 1.388 . S
C424 C425 1.390 . S
C425 C424 1.390 . S
C425 C426 1.394 . S
C425 C431 1.465 . S
C426 C421 1.399 . S
C426 C425 1.394 . S
C426 C427 1.516 . S
C427 C426 1.516 . S
C427 C428 1.502 . S
C427 C429 1.561 . S
C427 C430 1.526 . S
C428 H412 0.959 . S
C428 H413 0.959 . S
C428 H414 0.961 . S
C428 C427 1.502 . S
C429 H415 0.960 . S
C429 H416 0.961 . S
C429 H417 0.959 . S
C429 C427 1.561 . S
C430 C427 1.526 . S
C430 C431 1.396 . S
C430 C435 1.390 . S
C431 C425 1.465 . S
C431 C430 1.396 . S
C431 C432 1.399 . S
C432 H418 0.929 . S
C432 C431 1.399 . S
C432 C433 1.385 . S
C433 H419 0.931 . S
C433 C432 1.385 . S
C433 C434 1.389 . S
C434 C433 1.389 . S
C434 C435 1.387 . S
C435 H420 0.930 . S
C435 C430 1.390 . S
C435 C434 1.387 . S
H436 C448 0.930 . S
H437 C450 0.930 . S
H438 C451 0.930 . S
H439 C455 0.959 . S
H440 C455 0.959 . S
H441 C455 0.961 . S
H442 C456 0.960 . S
H443 C456 0.961 1_565 S
H444 C456 0.959 . S
H445 C459 0.929 . S
H446 C460 0.931 . S
H447 C462 0.930 . S
C448 H436 0.930 . S
C448 C449 1.399 . S
C448 C453 1.399 . S
C449 C448 1.399 . S
C449 C450 1.376 1_554 S
C450 H437 0.930 . S
C450 C449 1.376 1_556 S
C450 C451 1.388 . S
C451 H438 0.930 . S
C451 C450 1.388 . S
C451 C452 1.390 . S
C452 C451 1.390 . S
C452 C453 1.394 1_556 S
C452 C458 1.465 1_445 S
C453 C448 1.399 . S
C453 C452 1.394 1_554 S
C453 C454 1.516 1_545 S
C454 C453 1.516 1_565 S
C454 C455 1.502 . S
C454 C456 1.561 1_465 S
C454 C457 1.526 1_455 S
C455 H439 0.959 . S
C455 H440 0.959 . S
C455 H441 0.961 . S
C455 C454 1.502 . S
C456 H442 0.960 . S
C456 H443 0.961 1_545 S
C456 H444 0.959 . S
C456 C454 1.561 1_645 S
C457 C454 1.526 1_655 S
C457 C458 1.396 1_554 S
C457 C462 1.390 . S
C458 C452 1.465 1_665 S
C458 C457 1.396 1_556 S
C458 C459 1.399 . S
C459 H445 0.929 . S
C459 C458 1.399 . S
C459 C460 1.385 . S
C460 H446 0.931 . S
C460 C459 1.385 . S
C460 C461 1.389 . S
C461 C460 1.389 . S
C461 C462 1.387 1_556 S
C462 H447 0.930 . S
C462 C457 1.390 . S
C462 C461 1.387 1_554 S
H463 C475 0.930 . S
H464 C477 0.930 . S
H465 C478 0.930 . S
H466 C482 0.959 . S
H467 C482 0.959 . S
H468 C482 0.961 . S
H469 C483 0.960 . S
H470 C483 0.961 . S
H471 C483 0.959 . S
H472 C486 0.929 . S
H473 C487 0.931 . S
H474 C489 0.930 . S
C475 H463 0.930 . S
C475 C476 1.399 . S
C475 C480 1.399 . S
C476 C475 1.399 . S
C476 C477 1.376 . S
C477 H464 0.930 . S
C477 C476 1.376 . S
C477 C478 1.388 . S
C478 H465 0.930 . S
C478 C477 1.388 . S
C478 C479 1.390 . S
C479 C478 1.390 . S
C479 C480 1.394 . S
C479 C485 1.465 . S
C480 C475 1.399 . S
C480 C479 1.394 . S
C480 C481 1.516 . S
C481 C480 1.516 . S
C481 C482 1.502 . S
C481 C483 1.561 . S
C481 C484 1.526 . S
C482 H466 0.959 . S
C482 H467 0.959 . S
C482 H468 0.961 . S
C482 C481 1.502 . S
C483 H469 0.960 . S
C483 H470 0.961 . S
C483 H471 0.959 . S
C483 C481 1.561 . S
C484 C481 1.526 . S
C484 C485 1.396 . S
C484 C489 1.390 . S
C485 C479 1.465 . S
C485 C484 1.396 . S
C485 C486 1.399 . S
C486 H472 0.929 . S
C486 C485 1.399 . S
C486 C487 1.385 . S
C487 H473 0.931 . S
C487 C486 1.385 . S
C487 C488 1.389 . S
C488 C487 1.389 . S
C488 C489 1.387 . S
C489 H474 0.930 . S
C489 C484 1.390 . S
C489 C488 1.387 . S
H490 C502 0.930 . S
H491 C504 0.930 . S
H492 C505 0.930 . S
H493 C509 0.959 . S
H494 C509 0.959 . S
H495 C509 0.961 . S
H496 C510 0.960 . S
H497 C510 0.961 . S
H498 C510 0.959 . S
H499 C513 0.929 . S
H500 C514 0.931 . S
H501 C516 0.930 . S
C502 H490 0.930 . S
C502 C503 1.399 . S
C502 C507 1.399 . S
C503 C502 1.399 . S
C503 C504 1.376 1_554 S
C504 H491 0.930 . S
C504 C503 1.376 1_556 S
C504 C505 1.388 . S
C505 H492 0.930 . S
C505 C504 1.388 . S
C505 C506 1.390 . S
C506 C505 1.390 . S
C506 C507 1.394 1_556 S
C506 C512 1.465 . S
C507 C502 1.399 . S
C507 C506 1.394 1_554 S
C507 C508 1.516 . S
C508 C507 1.516 . S
C508 C509 1.502 . S
C508 C510 1.561 . S
C508 C511 1.526 . S
C509 H493 0.959 . S
C509 H494 0.959 . S
C509 H495 0.961 . S
C509 C508 1.502 . S
C510 H496 0.960 . S
C510 H497 0.961 . S
C510 H498 0.959 . S
C510 C508 1.561 . S
C511 C508 1.526 . S
C511 C512 1.396 1_554 S
C511 C516 1.390 . S
C512 C506 1.465 . S
C512 C511 1.396 1_556 S
C512 C513 1.399 . S
C513 H499 0.929 . S
C513 C512 1.399 . S
C513 C514 1.385 . S
C514 H500 0.931 . S
C514 C513 1.385 . S
C514 C515 1.389 . S
C515 C514 1.389 . S
C515 C516 1.387 1_556 S
C516 H501 0.930 . S
C516 C511 1.390 . S
C516 C515 1.387 1_554 S
H517 C529 0.930 . S
H518 C531 0.930 . S
H519 C532 0.930 . S
H520 C536 0.959 1_665 S
H521 C536 0.953 1_655 S
H522 C536 0.961 . S
H523 C537 0.960 . S
H524 C537 0.961 . S
H525 C537 0.959 . S
H526 C540 0.929 . S
H527 C541 0.931 . S
H528 C543 0.930 . S
C529 H517 0.930 . S
C529 C530 1.399 . S
C529 C534 1.399 . S
C530 C529 1.399 . S
C530 C531 1.376 . S
C531 H518 0.930 . S
C531 C530 1.376 . S
C531 C532 1.388 . S
C532 H519 0.930 . S
C532 C531 1.388 . S
C532 C533 1.390 . S
C533 C532 1.390 . S
C533 C534 1.394 . S
C533 C539 1.465 1_465 S
C534 C529 1.399 . S
C534 C533 1.394 . S
C534 C535 1.516 1_565 S
C535 C534 1.516 1_545 S
C535 C536 1.502 . S
C535 C537 1.561 . S
C535 C538 1.526 1_455 S
C536 H520 0.959 1_445 S
C536 H521 0.953 1_455 S
C536 H522 0.961 . S
C536 C535 1.502 . S
C537 H523 0.960 . S
C537 H524 0.961 . S
C537 H525 0.959 . S
C537 C535 1.561 . S
C538 C535 1.526 1_655 S
C538 C539 1.396 . S
C538 C543 1.390 . S
C539 C533 1.465 1_645 S
C539 C538 1.396 . S
C539 C540 1.399 . S
C540 H526 0.929 . S
C540 C539 1.399 . S
C540 C541 1.385 . S
C541 H527 0.931 . S
C541 C540 1.385 . S
C541 C542 1.389 . S
C542 C541 1.389 . S
C542 C543 1.387 . S
C543 H528 0.930 . S
C543 C538 1.390 . S
C543 C542 1.387 . S
C125 C14 1.997 . S
C137 C13 2.007 1_556 S
C152 C0 1.955 . S
C164 C27 2.027 . S
C179 C42 1.946 . S
C191 C41 2.024 1_554 S
C206 C28 1.945 . S
C218 C55 2.023 . S
C233 C68 2.003 1_554 S
C245 C71 1.997 . S
C260 C82 2.025 . S
C272 C57 1.946 . S
C287 C96 2.003 1_556 S
C299 C99 1.996 . S
C314 C85 1.978 . S
C326 C110 2.016 . S
C341 C12 0.640 . S
C353 C54 0.655 . S
C368 C26 0.603 . S
C380 C40 0.678 . S
C395 C111 0.612 . S
C407 C69 0.657 . S
C422 C97 0.599 . S
C434 C83 0.675 . S
C449 C1 1.857 . S
C461 C56 1.791 . S
C476 C70 1.841 . S
C488 C15 1.817 . S
C503 C84 1.838 . S
C515 C29 1.800 . S
C530 C98 1.853 . S
C542 C43 1.791 . S
