# Generated by pormake.
# Topology uoy, (4)-cn, num edge types: 1
# Building blocks:
#     Node 0, Type 0, BuildingBlock: KUFVIS_clean_sbu_0, # of connection points: 4
#     Node 1, Type 0, BuildingBlock: KUFVIS_clean_sbu_0, # of connection points: 4
#     Node 2, Type 0, BuildingBlock: KUFVIS_clean_sbu_0, # of connection points: 4
#     Node 3, Type 0, BuildingBlock: KUFVIS_clean_sbu_0, # of connection points: 4
#     Node 4, Type 0, BuildingBlock: KUFVIS_clean_sbu_0, # of connection points: 4
#     Node 5, Type 0, BuildingBlock: KUFVIS_clean_sbu_0, # of connection points: 4
#     Node 6, Type 0, BuildingBlock: KUFVIS_clean_sbu_0, # of connection points: 4
#     Node 7, Type 0, BuildingBlock: KUFVIS_clean_sbu_0, # of connection points: 4
#     Node 8, Type 0, BuildingBlock: KUFVIS_clean_sbu_0, # of connection points: 4
#     Node 9, Type 0, BuildingBlock: KUFVIS_clean_sbu_0, # of connection points: 4
#     Node 10, Type 0, BuildingBlock: KUFVIS_clean_sbu_0, # of connection points: 4
#     Node 11, Type 0, BuildingBlock: KUFVIS_clean_sbu_0, # of connection points: 4
#     Node 12, Type 0, BuildingBlock: KUFVIS_clean_sbu_0, # of connection points: 4
#     Node 13, Type 0, BuildingBlock: KUFVIS_clean_sbu_0, # of connection points: 4
#     Node 14, Type 0, BuildingBlock: KUFVIS_clean_sbu_0, # of connection points: 4
#     Node 15, Type 0, BuildingBlock: KUFVIS_clean_sbu_0, # of connection points: 4
#     Edge 16, Type (0, 0), BuildingBlock: CIFDUS_clean_linker_0, # of connection points: 2
#     Edge 17, Type (0, 0), BuildingBlock: CIFDUS_clean_linker_0, # of connection points: 2
#     Edge 18, Type (0, 0), BuildingBlock: CIFDUS_clean_linker_0, # of connection points: 2
#     Edge 19, Type (0, 0), BuildingBlock: CIFDUS_clean_linker_0, # of connection points: 2
#     Edge 20, Type (0, 0), BuildingBlock: CIFDUS_clean_linker_0, # of connection points: 2
#     Edge 21, Type (0, 0), BuildingBlock: CIFDUS_clean_linker_0, # of connection points: 2
#     Edge 22, Type (0, 0), BuildingBlock: CIFDUS_clean_linker_0, # of connection points: 2
#     Edge 23, Type (0, 0), BuildingBlock: CIFDUS_clean_linker_0, # of connection points: 2
#     Edge 24, Type (0, 0), BuildingBlock: CIFDUS_clean_linker_0, # of connection points: 2
#     Edge 25, Type (0, 0), BuildingBlock: CIFDUS_clean_linker_0, # of connection points: 2
#     Edge 26, Type (0, 0), BuildingBlock: CIFDUS_clean_linker_0, # of connection points: 2
#     Edge 27, Type (0, 0), BuildingBlock: CIFDUS_clean_linker_0, # of connection points: 2
#     Edge 28, Type (0, 0), BuildingBlock: CIFDUS_clean_linker_0, # of connection points: 2
#     Edge 29, Type (0, 0), BuildingBlock: CIFDUS_clean_linker_0, # of connection points: 2
#     Edge 30, Type (0, 0), BuildingBlock: CIFDUS_clean_linker_0, # of connection points: 2
#     Edge 31, Type (0, 0), BuildingBlock: CIFDUS_clean_linker_0, # of connection points: 2
#     Edge 32, Type (0, 0), BuildingBlock: CIFDUS_clean_linker_0, # of connection points: 2
#     Edge 33, Type (0, 0), BuildingBlock: CIFDUS_clean_linker_0, # of connection points: 2
#     Edge 34, Type (0, 0), BuildingBlock: CIFDUS_clean_linker_0, # of connection points: 2
#     Edge 35, Type (0, 0), BuildingBlock: CIFDUS_clean_linker_0, # of connection points: 2
#     Edge 36, Type (0, 0), BuildingBlock: CIFDUS_clean_linker_0, # of connection points: 2
#     Edge 37, Type (0, 0), BuildingBlock: CIFDUS_clean_linker_0, # of connection points: 2
#     Edge 38, Type (0, 0), BuildingBlock: CIFDUS_clean_linker_0, # of connection points: 2
#     Edge 39, Type (0, 0), BuildingBlock: CIFDUS_clean_linker_0, # of connection points: 2
#     Edge 40, Type (0, 0), BuildingBlock: CIFDUS_clean_linker_0, # of connection points: 2
#     Edge 41, Type (0, 0), BuildingBlock: CIFDUS_clean_linker_0, # of connection points: 2
#     Edge 42, Type (0, 0), BuildingBlock: CIFDUS_clean_linker_0, # of connection points: 2
#     Edge 43, Type (0, 0), BuildingBlock: CIFDUS_clean_linker_0, # of connection points: 2
#     Edge 44, Type (0, 0), BuildingBlock: CIFDUS_clean_linker_0, # of connection points: 2
#     Edge 45, Type (0, 0), BuildingBlock: CIFDUS_clean_linker_0, # of connection points: 2
#     Edge 46, Type (0, 0), BuildingBlock: CIFDUS_clean_linker_0, # of connection points: 2
#     Edge 47, Type (0, 0), BuildingBlock: CIFDUS_clean_linker_0, # of connection points: 2
# Relax obj value: 0.051
# Max RMSD: 0.079
# Mean RMSD: 0.079
data_MOF--net-uoy--node1-KUFVIS_clean_sbu_0--edge1-CIFDUS_clean_linker_0
_symmetry_space_group_name_H-M    P1
_symmetry_Int_Tables_number       1
_symmetry_cell_setting            triclinic
loop_
_symmetry_equiv_pos_as_xyz
'x, y, z'
_cell_length_a     24.228761
_cell_length_b     24.111564
_cell_length_c     91.192781
_cell_angle_alpha  90.05152
_cell_angle_beta   90.006391
_cell_angle_gamma 89.930975
loop_
_atom_site_label
_atom_site_type_symbol
_atom_site_fract_x
_atom_site_fract_y
_atom_site_fract_z
_atom_type_partial_charge
Mn0 Mn 0.26683 0.11353 0.1931 0.0
Mn1 Mn 0.18421 0.22593 0.19407 0.0
C2 C 0.24431 0.15445 0.21567 0.0
C3 C 0.35849 0.07967 0.19046 0.0
C4 C 0.14072 0.10825 0.18929 0.0
O5 O 0.26653 0.13997 0.17178 0.0
O6 O 0.22016 0.22 0.17472 0.0
C7 C 0.2695 0.31327 0.19159 0.0
N8 N 0.22506 0.29123 0.1986 0.0
C9 C 0.21313 0.37338 0.21315 0.0
C10 C 0.25865 0.39731 0.20607 0.0
C11 C 0.28749 0.36675 0.19539 0.0
C12 C 0.19894 0.319 0.2094 0.0
H13 H 0.29058 0.29039 0.18308 0.0
C14 C 0.24853 0.1863 0.16699 0.0
O15 O 0.31599 0.04821 0.18788 0.0
O16 O 0.34754 0.12986 0.19454 0.0
N17 N 0.14611 0.2391 0.21204 0.0
C18 C 0.10467 0.20896 0.21821 0.0
C19 C 0.07159 0.23326 0.22911 0.0
C20 C 0.08028 0.28879 0.23315 0.0
C21 C 0.12351 0.31885 0.22671 0.0
C22 C 0.15629 0.2918 0.21632 0.0
H23 H 0.09603 0.16724 0.21459 0.0
O24 O 0.26271 0.10397 0.21493 0.0
O25 O 0.24095 0.18003 0.20319 0.0
O26 O 0.18681 0.08247 0.1908 0.0
O27 O 0.1372 0.16114 0.18961 0.0
C28 C 0.13511 0.37475 0.2301 0.0
C29 C 0.18041 0.40171 0.22349 0.0
H30 H 0.27164 0.43913 0.2087 0.0
H31 H 0.32266 0.38486 0.18988 0.0
H32 H 0.03843 0.20979 0.23406 0.0
H33 H 0.05383 0.30782 0.24131 0.0
H34 H 0.11016 0.397 0.23802 0.0
H35 H 0.18962 0.44424 0.22643 0.0
Mn36 Mn 0.9035 0.77419 0.44128 0.0
Mn37 Mn 0.80257 0.67935 0.44446 0.0
C38 C 0.86469 0.7565 0.46421 0.0
C39 C 0.93355 0.86478 0.43697 0.0
C40 C 0.9234 0.64983 0.43953 0.0
O41 O 0.87583 0.76505 0.42022 0.0
O42 O 0.8017 0.71081 0.42441 0.0
C43 C 0.70429 0.75174 0.44148 0.0
N44 N 0.73316 0.71265 0.44904 0.0
C45 C 0.65733 0.69749 0.46555 0.0
C46 C 0.62657 0.73749 0.45793 0.0
C47 C 0.65043 0.76523 0.44595 0.0
C48 C 0.71151 0.68753 0.46095 0.0
H49 H 0.72222 0.77218 0.43209 0.0
C50 C 0.83159 0.74086 0.41602 0.0
O51 O 0.96573 0.82242 0.43495 0.0
O52 O 0.88333 0.85446 0.44112 0.0
N53 N 0.7974 0.64541 0.46335 0.0
C54 C 0.83387 0.61063 0.47005 0.0
C55 C 0.81673 0.57965 0.48225 0.0
C56 C 0.7619 0.58351 0.48717 0.0
C57 C 0.72518 0.61972 0.48012 0.0
C58 C 0.74515 0.65088 0.46832 0.0
H59 H 0.87533 0.60562 0.46592 0.0
O60 O 0.91387 0.77735 0.463 0.0
O61 O 0.84022 0.74563 0.45188 0.0
O62 O 0.94178 0.69903 0.44051 0.0
O63 O 0.87196 0.63856 0.44005 0.0
C64 C 0.66969 0.62672 0.48446 0.0
C65 C 0.63615 0.66645 0.47737 0.0
H66 H 0.58461 0.74713 0.46116 0.0
H67 H 0.62702 0.79621 0.44003 0.0
H68 H 0.84534 0.55185 0.48765 0.0
H69 H 0.74859 0.55889 0.49644 0.0
H70 H 0.65303 0.60319 0.49354 0.0
H71 H 0.59412 0.67268 0.48107 0.0
Mn72 Mn 0.25641 0.42125 0.69084 0.0
Mn73 Mn 0.33091 0.30597 0.69771 0.0
C74 C 0.26137 0.38684 0.71459 0.0
C75 C 0.17207 0.46208 0.68403 0.0
C76 C 0.3828 0.41888 0.69191 0.0
O77 O 0.26794 0.38699 0.67052 0.0
O78 O 0.30823 0.30598 0.67683 0.0
C79 C 0.24357 0.22179 0.69352 0.0
N80 N 0.28271 0.24576 0.70217 0.0
C81 C 0.2585 0.18731 0.72249 0.0
C82 C 0.21848 0.16141 0.71376 0.0
C83 C 0.21106 0.17868 0.69919 0.0
C84 C 0.29061 0.22912 0.71615 0.0
H85 H 0.23675 0.23586 0.68244 0.0
C86 C 0.28678 0.33881 0.66738 0.0
O87 O 0.21865 0.48807 0.68246 0.0
O88 O 0.17474 0.41197 0.6891 0.0
N89 N 0.35464 0.30088 0.71763 0.0
C90 C 0.39245 0.33249 0.72489 0.0
C91 C 0.40334 0.32184 0.73974 0.0
C92 C 0.37476 0.27933 0.74699 0.0
C93 C 0.33649 0.24714 0.73921 0.0
C94 C 0.32883 0.25824 0.72432 0.0
H95 H 0.41374 0.36595 0.71945 0.0
O96 O 0.24763 0.43809 0.71227 0.0
O97 O 0.27155 0.35752 0.70293 0.0
O98 O 0.33777 0.44656 0.69133 0.0
O99 O 0.38409 0.36623 0.69358 0.0
C100 C 0.30337 0.20664 0.74586 0.0
C101 C 0.26536 0.17574 0.73749 0.0
H102 H 0.19244 0.12906 0.71822 0.0
H103 H 0.1798 0.15941 0.69242 0.0
H104 H 0.43286 0.347 0.74566 0.0
H105 H 0.38194 0.27226 0.75857 0.0
H106 H 0.30445 0.20185 0.75756 0.0
H107 H 0.23933 0.14548 0.74284 0.0
Mn108 Mn 0.59757 0.75744 0.94184 0.0
Mn109 Mn 0.71306 0.83131 0.948 0.0
C110 C 0.63289 0.76308 0.96545 0.0
C111 C 0.55635 0.67342 0.93516 0.0
C112 C 0.60075 0.88407 0.94224 0.0
O113 O 0.63073 0.7677 0.92144 0.0
O114 O 0.71268 0.80638 0.92724 0.0
C115 C 0.79647 0.74267 0.94429 0.0
N116 N 0.77278 0.78281 0.95273 0.0
C117 C 0.83036 0.75911 0.97325 0.0
C118 C 0.856 0.71812 0.96472 0.0
C119 C 0.83903 0.70996 0.95016 0.0
C120 C 0.78921 0.79151 0.96669 0.0
H121 H 0.78256 0.73519 0.93323 0.0
C122 C 0.67899 0.7848 0.91804 0.0
O123 O 0.53059 0.72037 0.93365 0.0
O124 O 0.60628 0.6755 0.94023 0.0
N125 N 0.71832 0.85673 0.96779 0.0
C126 C 0.68676 0.89519 0.97487 0.0
C127 C 0.6969 0.90663 0.98972 0.0
C128 C 0.73876 0.87784 0.99716 0.0
C129 C 0.77086 0.83884 0.98957 0.0
C130 C 0.76036 0.83069 0.97466 0.0
H131 H 0.65368 0.91653 0.96931 0.0
O132 O 0.58166 0.74966 0.96333 0.0
O133 O 0.66159 0.7725 0.95366 0.0
O134 O 0.57293 0.83909 0.94216 0.0
O135 O 0.65331 0.88506 0.94357 0.0
C136 C 0.81054 0.80533 0.99643 0.0
C137 C 0.84139 0.76654 0.98826 0.0
H138 H 0.88783 0.69184 0.96935 0.0
H139 H 0.85807 0.6779 0.94355 0.0
H140 H 0.67177 0.93667 0.9955 0.0
H141 H 0.74536 0.88538 0.00875 0.0
H142 H 0.8146 0.80658 0.00814 0.0
H143 H 0.87106 0.74029 0.99378 0.0
Mn144 Mn 0.27327 0.40184 0.06278 0.0
Mn145 Mn 0.18597 0.29363 0.06148 0.0
C146 C 0.25446 0.35919 0.04037 0.0
C147 C 0.35838 0.44422 0.06574 0.0
C148 C 0.14949 0.41282 0.06611 0.0
O149 O 0.27091 0.37526 0.08411 0.0
O150 O 0.22056 0.29743 0.08109 0.0
C151 C 0.26542 0.20074 0.06434 0.0
N152 N 0.22344 0.22602 0.057 0.0
C153 C 0.21325 0.1481 0.04077 0.0
C154 C 0.25617 0.12096 0.0482 0.0
C155 C 0.2828 0.14769 0.05993 0.0
C156 C 0.19912 0.20166 0.04534 0.0
H157 H 0.2854 0.22097 0.07347 0.0
C158 C 0.25033 0.32986 0.08887 0.0
O159 O 0.31261 0.47015 0.06824 0.0
O160 O 0.35516 0.39219 0.06197 0.0
N161 N 0.14959 0.2839 0.04307 0.0
C162 C 0.11038 0.31667 0.03676 0.0
C163 C 0.07887 0.29582 0.02508 0.0
C164 C 0.08721 0.24117 0.02022 0.0
C165 C 0.12855 0.20857 0.02671 0.0
C166 C 0.1591 0.23186 0.03817 0.0
H167 H 0.1022 0.3579 0.04084 0.0
O168 O 0.27114 0.41033 0.04099 0.0
O169 O 0.24839 0.3348 0.05296 0.0
O170 O 0.19688 0.43339 0.06433 0.0
O171 O 0.14071 0.36065 0.06595 0.0
C172 C 0.1407 0.15393 0.02222 0.0
C173 C 0.18348 0.12395 0.02913 0.0
H174 H 0.26899 0.07964 0.04499 0.0
H175 H 0.31609 0.12714 0.06569 0.0
H176 H 0.04742 0.32139 0.02004 0.0
H177 H 0.06241 0.22501 0.01131 0.0
H178 H 0.118 0.13491 0.01331 0.0
H179 H 0.19307 0.08236 0.02542 0.0
Mn180 Mn 0.60578 0.77329 0.31346 0.0
Mn181 Mn 0.72238 0.69996 0.30831 0.0
C182 C 0.64689 0.77011 0.29038 0.0
C183 C 0.5627 0.85728 0.31953 0.0
C184 C 0.60929 0.64648 0.31216 0.0
O185 O 0.63511 0.76179 0.33435 0.0
O186 O 0.71728 0.72204 0.32916 0.0
C187 C 0.80291 0.7897 0.31397 0.0
N188 N 0.78228 0.7498 0.30492 0.0
C189 C 0.84359 0.77707 0.2855 0.0
C190 C 0.86639 0.81753 0.29473 0.0
C191 C 0.84591 0.82387 0.30903 0.0
C192 C 0.80166 0.74329 0.29115 0.0
H193 H 0.78609 0.79605 0.32479 0.0
C194 C 0.68267 0.74347 0.33814 0.0
O195 O 0.53687 0.81026 0.32063 0.0
O196 O 0.61387 0.85516 0.31545 0.0
N197 N 0.73217 0.67739 0.28841 0.0
C198 C 0.70301 0.63924 0.28056 0.0
C199 C 0.71688 0.62937 0.26585 0.0
C200 C 0.76014 0.65921 0.25937 0.0
C201 C 0.78984 0.69782 0.26773 0.0
C202 C 0.77533 0.70469 0.28244 0.0
H203 H 0.66904 0.61694 0.28543 0.0
O204 O 0.59508 0.7828 0.29168 0.0
O205 O 0.67208 0.75921 0.30258 0.0
O206 O 0.58158 0.69161 0.31241 0.0
O207 O 0.66204 0.64537 0.31132 0.0
C208 C 0.83119 0.73193 0.26183 0.0
C209 C 0.85868 0.77096 0.2707 0.0
H210 H 0.89874 0.84477 0.29084 0.0
H211 H 0.86259 0.85566 0.31615 0.0
H212 H 0.69359 0.59971 0.25945 0.0
H213 H 0.76924 0.6531 0.24788 0.0
H214 H 0.83999 0.7304 0.25033 0.0
H215 H 0.88984 0.79747 0.26587 0.0
Mn216 Mn 0.2439 0.10806 0.56633 0.0
Mn217 Mn 0.32586 0.21703 0.55921 0.0
C218 C 0.24368 0.14731 0.54307 0.0
C219 C 0.16277 0.06883 0.57476 0.0
C220 C 0.36787 0.09897 0.56258 0.0
O221 O 0.2643 0.13737 0.58671 0.0
O222 O 0.30838 0.21625 0.58044 0.0
C223 C 0.24588 0.30678 0.56556 0.0
N224 N 0.28132 0.2814 0.55609 0.0
C225 C 0.25365 0.34177 0.53644 0.0
C226 C 0.21775 0.3693 0.54606 0.0
C227 C 0.21393 0.35176 0.5607 0.0
C228 C 0.28552 0.29809 0.542 0.0
H229 H 0.24124 0.29223 0.57667 0.0
C230 C 0.28678 0.1838 0.58995 0.0
O231 O 0.2088 0.04146 0.57472 0.0
O232 O 0.16411 0.1201 0.57034 0.0
N233 N 0.34465 0.22272 0.53893 0.0
C234 C 0.37932 0.19018 0.53087 0.0
C235 C 0.38771 0.20218 0.51598 0.0
C236 C 0.35975 0.24691 0.50951 0.0
C237 C 0.32449 0.27979 0.51808 0.0
C238 C 0.31967 0.26746 0.53298 0.0
H239 H 0.40027 0.1552 0.53572 0.0
O240 O 0.22671 0.09678 0.54497 0.0
O241 O 0.26002 0.17274 0.55485 0.0
O242 O 0.32045 0.07715 0.56348 0.0
O243 O 0.37533 0.15146 0.56184 0.0
C244 C 0.29137 0.32211 0.51223 0.0
C245 C 0.25665 0.35379 0.52137 0.0
H246 H 0.19208 0.40316 0.54225 0.0
H247 H 0.18566 0.37218 0.56814 0.0
H248 H 0.4148 0.1764 0.50944 0.0
H249 H 0.3648 0.25494 0.4979 0.0
H250 H 0.28978 0.32784 0.50059 0.0
H251 H 0.23081 0.38573 0.51661 0.0
Mn252 Mn 0.89635 0.745 0.81432 0.0
Mn253 Mn 0.79422 0.83917 0.8117 0.0
C254 C 0.85694 0.76389 0.7915 0.0
C255 C 0.92735 0.65445 0.81812 0.0
C256 C 0.91491 0.86964 0.81611 0.0
O257 O 0.86993 0.75287 0.83554 0.0
O258 O 0.79603 0.80783 0.83172 0.0
C259 C 0.69818 0.7645 0.81534 0.0
N260 N 0.72519 0.80441 0.80761 0.0
C261 C 0.64807 0.81635 0.79134 0.0
C262 C 0.61916 0.7756 0.79915 0.0
C263 C 0.6446 0.7491 0.81111 0.0
C264 C 0.70203 0.82843 0.79575 0.0
H265 H 0.71743 0.74474 0.82465 0.0
C266 C 0.82633 0.77762 0.83998 0.0
O267 O 0.95933 0.69683 0.82024 0.0
O268 O 0.87682 0.66473 0.81422 0.0
N269 N 0.78625 0.8734 0.79293 0.0
C270 C 0.82057 0.91034 0.78627 0.0
C271 C 0.80109 0.94169 0.77437 0.0
C272 C 0.74622 0.93568 0.76968 0.0
C273 C 0.71188 0.89679 0.77657 0.0
C274 C 0.73387 0.86613 0.78821 0.0
H275 H 0.86203 0.91692 0.79023 0.0
O276 O 0.90618 0.74304 0.79258 0.0
O277 O 0.83238 0.77367 0.8039 0.0
O278 O 0.93369 0.82049 0.81524 0.0
O279 O 0.8634 0.88073 0.81561 0.0
C280 C 0.65699 0.88664 0.7722 0.0
C281 C 0.62532 0.84596 0.77946 0.0
H282 H 0.57744 0.76437 0.79609 0.0
H283 H 0.62266 0.71748 0.81717 0.0
H284 H 0.82795 0.97128 0.76903 0.0
H285 H 0.73119 0.96027 0.76057 0.0
H286 H 0.63904 0.90927 0.76311 0.0
H287 H 0.5835 0.83789 0.77585 0.0
Mn288 Mn 0.7764 0.61168 0.68948 0.0
Mn289 Mn 0.70512 0.72948 0.69563 0.0
C290 C 0.77467 0.65099 0.71285 0.0
C291 C 0.85977 0.56828 0.68293 0.0
C292 C 0.65007 0.61696 0.6916 0.0
O293 O 0.76389 0.64257 0.66878 0.0
O294 O 0.72434 0.72443 0.67463 0.0
C295 C 0.7952 0.8088 0.68937 0.0
N296 N 0.75634 0.7885 0.69872 0.0
C297 C 0.7876 0.84837 0.7181 0.0
C298 C 0.82727 0.87064 0.7086 0.0
C299 C 0.83102 0.85079 0.69416 0.0
C300 C 0.75217 0.80745 0.71261 0.0
H301 H 0.79938 0.79256 0.6784 0.0
C302 C 0.74467 0.69031 0.66533 0.0
O303 O 0.81278 0.54262 0.68185 0.0
O304 O 0.85793 0.6194 0.68726 0.0
N305 N 0.68484 0.73956 0.71567 0.0
C306 C 0.646 0.71196 0.72363 0.0
C307 C 0.63742 0.72642 0.73837 0.0
C308 C 0.66927 0.76859 0.74476 0.0
C309 C 0.70857 0.79666 0.73627 0.0
C310 C 0.71386 0.78194 0.72153 0.0
H311 H 0.62207 0.67887 0.71883 0.0
O312 O 0.78689 0.59901 0.71115 0.0
O313 O 0.76363 0.67759 0.70085 0.0
O314 O 0.69458 0.58846 0.69071 0.0
O315 O 0.64977 0.66983 0.69293 0.0
C316 C 0.74478 0.83649 0.74205 0.0
C317 C 0.7837 0.86305 0.73299 0.0
H318 H 0.85574 0.90221 0.71236 0.0
H319 H 0.86204 0.86718 0.68681 0.0
H320 H 0.60719 0.70439 0.74486 0.0
H321 H 0.66411 0.77812 0.75627 0.0
H322 H 0.74504 0.84446 0.7536 0.0
H323 H 0.81169 0.89316 0.73772 0.0
Mn324 Mn 0.40684 0.27768 0.93873 0.0
Mn325 Mn 0.28904 0.20639 0.94355 0.0
C326 C 0.36502 0.27525 0.9617 0.0
C327 C 0.45067 0.36098 0.93264 0.0
C328 C 0.40154 0.15109 0.94019 0.0
O329 O 0.3787 0.2659 0.91777 0.0
O330 O 0.29562 0.2279 0.92268 0.0
C331 C 0.21027 0.29749 0.93751 0.0
N332 N 0.2298 0.2574 0.94667 0.0
C333 C 0.1678 0.28601 0.96583 0.0
C334 C 0.14616 0.32676 0.95649 0.0
C335 C 0.16755 0.33253 0.94227 0.0
C336 C 0.20958 0.25149 0.96038 0.0
H337 H 0.22773 0.30329 0.92675 0.0
C338 C 0.33118 0.24823 0.9138 0.0
O339 O 0.47637 0.31374 0.93173 0.0
O340 O 0.39935 0.35941 0.93659 0.0
N341 N 0.27777 0.18428 0.96341 0.0
C342 C 0.30563 0.14543 0.97136 0.0
C343 C 0.29056 0.1358 0.98599 0.0
C344 C 0.24741 0.1665 0.99229 0.0
C345 C 0.21901 0.20578 0.98382 0.0
C346 C 0.23475 0.21247 0.9692 0.0
H347 H 0.33944 0.12236 0.96664 0.0
O348 O 0.41693 0.2875 0.9605 0.0
O349 O 0.33997 0.26473 0.94945 0.0
O350 O 0.42993 0.19574 0.93998 0.0
O351 O 0.34874 0.15082 0.94082 0.0
C352 C 0.17755 0.24039 0.98951 0.0
C353 C 0.15146 0.28007 0.98054 0.0
H354 H 0.11395 0.35457 0.96023 0.0
H355 H 0.15174 0.36447 0.93507 0.0
H356 H 0.31282 0.10559 0.99248 0.0
H357 H 0.23734 0.16045 0.00371 0.0
H358 H 0.16724 0.23835 1.00091 0.0
H359 H 0.12017 0.30693 0.98521 0.0
Mn360 Mn 0.74898 0.89886 0.18995 0.0
Mn361 Mn 0.83143 0.78645 0.19152 0.0
C362 C 0.76526 0.85534 0.21253 0.0
C363 C 0.65762 0.93309 0.18688 0.0
C364 C 0.87528 0.90445 0.18751 0.0
O365 O 0.75324 0.87341 0.1685 0.0
O366 O 0.79812 0.79244 0.1718 0.0
C367 C 0.74768 0.69792 0.18817 0.0
N368 N 0.7906 0.72071 0.19568 0.0
C369 C 0.79708 0.64133 0.21152 0.0
C370 C 0.7531 0.61676 0.20392 0.0
C371 C 0.72787 0.64549 0.1923 0.0
C372 C 0.81365 0.69445 0.20723 0.0
H373 H 0.72883 0.71965 0.17911 0.0
C374 C 0.77152 0.82686 0.16382 0.0
O375 O 0.70035 0.96477 0.18483 0.0
O376 O 0.66818 0.88226 0.19036 0.0
N377 N 0.86666 0.77416 0.20998 0.0
C378 C 0.90705 0.80468 0.21653 0.0
C379 C 0.9373 0.78165 0.22817 0.0
C380 C 0.92656 0.7271 0.23272 0.0
C381 C 0.88419 0.69678 0.22596 0.0
C382 C 0.85486 0.72226 0.21459 0.0
H383 H 0.91709 0.84576 0.21268 0.0
O384 O 0.74883 0.9065 0.21185 0.0
O385 O 0.77242 0.83159 0.19991 0.0
O386 O 0.82912 0.93017 0.18885 0.0
O387 O 0.87865 0.85155 0.18752 0.0
C388 C 0.86953 0.6425 0.23016 0.0
C389 C 0.82559 0.61502 0.22305 0.0
H390 H 0.73839 0.57589 0.2069 0.0
H391 H 0.69379 0.62691 0.18641 0.0
H392 H 0.9696 0.80546 0.23341 0.0
H393 H 0.95033 0.70927 0.24161 0.0
H394 H 0.89118 0.62187 0.23901 0.0
H395 H 0.8141 0.57369 0.22654 0.0
Mn396 Mn 0.12206 0.24556 0.44199 0.0
Mn397 Mn 0.22368 0.33985 0.44483 0.0
C398 C 0.16111 0.26406 0.46487 0.0
C399 C 0.09153 0.15506 0.43775 0.0
C400 C 0.10291 0.37008 0.44011 0.0
O401 O 0.14915 0.25393 0.42086 0.0
O402 O 0.22343 0.30816 0.42479 0.0
C403 C 0.3208 0.26606 0.4416 0.0
N404 N 0.29287 0.30577 0.4492 0.0
C405 C 0.36932 0.31947 0.46561 0.0
C406 C 0.39915 0.27887 0.45793 0.0
C407 C 0.37451 0.25158 0.44598 0.0
C408 C 0.31529 0.33059 0.46106 0.0
H409 H 0.30224 0.24584 0.43225 0.0
C410 C 0.19317 0.27803 0.41651 0.0
O411 O 0.05949 0.19753 0.43576 0.0
O412 O 0.1418 0.16519 0.4419 0.0
N413 N 0.23017 0.37415 0.46365 0.0
C414 C 0.1945 0.4096 0.47042 0.0
C415 C 0.21255 0.44039 0.48259 0.0
C416 C 0.26746 0.43561 0.48738 0.0
C417 C 0.30338 0.3988 0.48024 0.0
C418 C 0.28253 0.36793 0.46849 0.0
H419 H 0.15298 0.41522 0.46639 0.0
O420 O 0.11195 0.24315 0.46372 0.0
O421 O 0.18568 0.27415 0.4525 0.0
O422 O 0.08432 0.32097 0.44113 0.0
O423 O 0.15441 0.38118 0.4406 0.0
C424 C 0.35861 0.39024 0.4846 0.0
C425 C 0.39123 0.34987 0.47746 0.0
H426 H 0.44095 0.26837 0.46111 0.0
H427 H 0.39719 0.22012 0.44002 0.0
H428 H 0.18456 0.46863 0.48806 0.0
H429 H 0.28141 0.45988 0.49667 0.0
H430 H 0.37582 0.41324 0.49372 0.0
H431 H 0.43312 0.34264 0.48115 0.0
Mn432 Mn 0.77609 0.92027 0.56444 0.0
Mn433 Mn 0.69401 0.81177 0.55709 0.0
C434 C 0.77733 0.88103 0.54121 0.0
C435 C 0.85683 0.95897 0.57332 0.0
C436 C 0.65249 0.92982 0.56093 0.0
O437 O 0.75451 0.89055 0.58466 0.0
O438 O 0.71298 0.8103 0.57824 0.0
C439 C 0.77325 0.72044 0.56237 0.0
N440 N 0.73767 0.74734 0.55324 0.0
C441 C 0.7634 0.68883 0.533 0.0
C442 C 0.79955 0.65985 0.54224 0.0
C443 C 0.80438 0.67566 0.55701 0.0
C444 C 0.73238 0.73223 0.53905 0.0
H445 H 0.77855 0.7336 0.57359 0.0
C446 C 0.73375 0.84321 0.5878 0.0
O447 O 0.81093 0.98655 0.57308 0.0
O448 O 0.85561 0.9078 0.56878 0.0
N449 N 0.67412 0.80864 0.53683 0.0
C450 C 0.63975 0.84272 0.52915 0.0
C451 C 0.6305 0.8326 0.51419 0.0
C452 C 0.65728 0.78809 0.50726 0.0
C453 C 0.69232 0.75363 0.51543 0.0
C454 C 0.69812 0.76424 0.53042 0.0
H455 H 0.6196 0.87748 0.53434 0.0
O456 O 0.79454 0.93149 0.54316 0.0
O457 O 0.76012 0.85586 0.55292 0.0
O458 O 0.69997 0.95167 0.56131 0.0
O459 O 0.64503 0.87729 0.56049 0.0
C460 C 0.7245 0.71154 0.5091 0.0
C461 C 0.75944 0.67856 0.51785 0.0
H462 H 0.82461 0.62615 0.53805 0.0
H463 H 0.83279 0.65406 0.56417 0.0
H464 H 0.60358 0.85959 0.50796 0.0
H465 H 0.65148 0.78137 0.49561 0.0
H466 H 0.7252 0.70704 0.49737 0.0
H467 H 0.78487 0.64706 0.51276 0.0
Mn468 Mn 0.11356 0.27272 0.81021 0.0
Mn469 Mn 0.21361 0.1764 0.8073 0.0
C470 C 0.14814 0.2501 0.78718 0.0
C471 C 0.08448 0.36381 0.81425 0.0
C472 C 0.09313 0.14898 0.8133 0.0
O473 O 0.14308 0.26616 0.83107 0.0
O474 O 0.21648 0.21075 0.82706 0.0
C475 C 0.31355 0.24664 0.80921 0.0
N476 N 0.28325 0.20749 0.80209 0.0
C477 C 0.35948 0.1842 0.78636 0.0
C478 C 0.39161 0.22443 0.79347 0.0
C479 C 0.36828 0.25632 0.80481 0.0
C480 C 0.30445 0.17846 0.79073 0.0
H481 H 0.29623 0.26966 0.81828 0.0
C482 C 0.18722 0.24205 0.83531 0.0
O483 O 0.05246 0.32185 0.81678 0.0
O484 O 0.13397 0.3529 0.80956 0.0
N485 N 0.21716 0.13921 0.78881 0.0
C486 C 0.17956 0.10441 0.7826 0.0
C487 C 0.19579 0.07003 0.77093 0.0
C488 C 0.2509 0.07036 0.76613 0.0
C489 C 0.28884 0.10658 0.77269 0.0
C490 C 0.26966 0.1415 0.78386 0.0
H491 H 0.13789 0.10199 0.78674 0.0
O492 O 0.0999 0.27286 0.78872 0.0
O493 O 0.17551 0.24183 0.79926 0.0
O494 O 0.07486 0.19813 0.812 0.0
O495 O 0.14439 0.13723 0.81249 0.0
C496 C 0.34498 0.10938 0.76864 0.0
C497 C 0.38009 0.14878 0.77532 0.0
H498 H 0.43427 0.23096 0.79038 0.0
H499 H 0.39285 0.2873 0.81039 0.0
H500 H 0.16627 0.04219 0.76592 0.0
H501 H 0.26356 0.0429 0.75734 0.0
H502 H 0.36114 0.08264 0.76011 0.0
H503 H 0.42274 0.15162 0.77185 0.0
Mn504 Mn 0.74952 0.60652 0.0602 0.0
Mn505 Mn 0.8396 0.71227 0.05803 0.0
C506 C 0.77053 0.64435 0.03743 0.0
C507 C 0.66378 0.56592 0.0636 0.0
C508 C 0.87296 0.59281 0.06366 0.0
O509 O 0.75212 0.63603 0.08121 0.0
O510 O 0.80456 0.71201 0.07766 0.0
C511 C 0.76425 0.80879 0.06019 0.0
N512 N 0.80518 0.78096 0.05308 0.0
C513 C 0.82531 0.85996 0.03794 0.0
C514 C 0.78326 0.88961 0.04506 0.0
C515 C 0.75205 0.86362 0.05609 0.0
C516 C 0.83356 0.80464 0.04199 0.0
H517 H 0.74167 0.78945 0.06902 0.0
C518 C 0.77383 0.68131 0.08567 0.0
O519 O 0.70923 0.53991 0.06636 0.0
O520 O 0.66758 0.61725 0.05924 0.0
N521 N 0.87694 0.71906 0.03966 0.0
C522 C 0.91355 0.68345 0.03333 0.0
C523 C 0.94746 0.70238 0.02189 0.0
C524 C 0.94479 0.75815 0.01748 0.0
C525 C 0.90676 0.79399 0.02417 0.0
C526 C 0.87237 0.7721 0.03505 0.0
H527 H 0.91773 0.64135 0.0372 0.0
O528 O 0.75203 0.59403 0.03866 0.0
O529 O 0.77609 0.67172 0.04965 0.0
O530 O 0.82507 0.57323 0.06214 0.0
O531 O 0.88291 0.64465 0.06304 0.0
C532 C 0.90152 0.85062 0.02051 0.0
C533 C 0.86017 0.88335 0.02722 0.0
H534 H 0.77477 0.93237 0.0422 0.0
H535 H 0.71964 0.88625 0.06166 0.0
H536 H 0.97672 0.67446 0.01678 0.0
H537 H 0.97188 0.77292 0.00888 0.0
H538 H 0.9278 0.86889 0.01221 0.0
H539 H 0.85543 0.92634 0.02401 0.0
Mn540 Mn 0.41083 0.2544 0.31252 0.0
Mn541 Mn 0.29369 0.32829 0.30886 0.0
C542 C 0.37006 0.2637 0.28949 0.0
C543 C 0.45452 0.16991 0.31771 0.0
C544 C 0.40686 0.38169 0.31236 0.0
O545 O 0.38311 0.26143 0.33366 0.0
O546 O 0.30214 0.30437 0.32945 0.0
C547 C 0.2161 0.23626 0.3148 0.0
N548 N 0.23373 0.27821 0.30597 0.0
C549 C 0.16445 0.25705 0.28799 0.0
C550 C 0.14459 0.21457 0.29703 0.0
C551 C 0.17077 0.20393 0.31048 0.0
C552 C 0.20954 0.28817 0.29292 0.0
H553 H 0.23687 0.22705 0.32497 0.0
C554 C 0.33669 0.28062 0.33797 0.0
O555 O 0.48008 0.21693 0.31917 0.0
O556 O 0.4035 0.17211 0.31345 0.0
N557 N 0.27917 0.35345 0.28943 0.0
C558 C 0.3059 0.39314 0.28154 0.0
C559 C 0.28649 0.40702 0.26752 0.0
C560 C 0.23967 0.38025 0.26187 0.0
C561 C 0.21251 0.34008 0.27031 0.0
C562 C 0.23338 0.32833 0.28422 0.0
H563 H 0.34196 0.41375 0.28585 0.0
O564 O 0.42163 0.24996 0.29071 0.0
O565 O 0.34385 0.27062 0.30179 0.0
O566 O 0.4345 0.33647 0.31254 0.0
O567 O 0.35412 0.38298 0.31147 0.0
C568 C 0.16618 0.31046 0.26536 0.0
C569 C 0.14223 0.26884 0.2741 0.0
H570 H 0.10993 0.18926 0.29366 0.0
H571 H 0.15634 0.17062 0.31743 0.0
H572 H 0.30766 0.43804 0.26107 0.0
H573 H 0.22528 0.39063 0.25101 0.0
H574 H 0.14912 0.31886 0.2548 0.0
H575 H 0.10727 0.24569 0.26994 0.0
H576 H 0.25796 0.22482 0.09898 0.0
H577 H 0.26514 0.39556 0.11307 0.0
H578 H 0.26953 0.36529 0.1387 0.0
H579 H 0.26252 0.29064 0.15691 0.0
H580 H 0.25844 0.11987 0.14278 0.0
H581 H 0.26243 0.14991 0.11713 0.0
C582 C 0.26113 0.25548 0.10764 0.0
C583 C 0.26045 0.31243 0.10417 0.0
C584 C 0.264 0.23775 0.12225 0.0
C585 C 0.26546 0.35158 0.11548 0.0
C586 C 0.26771 0.33426 0.13011 0.0
C587 C 0.26319 0.25992 0.14823 0.0
C588 C 0.25943 0.20309 0.15169 0.0
C589 C 0.26568 0.27752 0.1336 0.0
C590 C 0.26123 0.16375 0.14036 0.0
C591 C 0.26318 0.18097 0.12573 0.0
H592 H 0.72598 0.74052 0.40632 0.0
H593 H 0.89432 0.75649 0.39146 0.0
H594 H 0.86236 0.75981 0.366 0.0
H595 H 0.7873 0.75311 0.34814 0.0
H596 H 0.61836 0.74312 0.3629 0.0
H597 H 0.64999 0.7427 0.38844 0.0
C598 C 0.75569 0.74505 0.39752 0.0
C599 C 0.81255 0.74762 0.40074 0.0
C600 C 0.73694 0.7478 0.38298 0.0
C601 C 0.85045 0.75436 0.38925 0.0
C602 C 0.83218 0.75605 0.37471 0.0
C603 C 0.75721 0.75128 0.35691 0.0
C604 C 0.7005 0.74761 0.35362 0.0
C605 C 0.77563 0.75204 0.37148 0.0
C606 C 0.66217 0.7459 0.36515 0.0
C607 C 0.68028 0.74548 0.37973 0.0
H608 H 0.29002 0.29023 0.59948 0.0
H609 H 0.28038 0.12147 0.61503 0.0
H610 H 0.27941 0.15493 0.6404 0.0
H611 H 0.28259 0.23205 0.65801 0.0
H612 H 0.28541 0.40084 0.64229 0.0
H613 H 0.28706 0.36724 0.61696 0.0
C614 C 0.28762 0.26061 0.60839 0.0
C615 C 0.2857 0.20332 0.60535 0.0
C616 C 0.28563 0.28018 0.62286 0.0
C617 C 0.282 0.16571 0.61706 0.0
C618 C 0.28147 0.18484 0.63155 0.0
C619 C 0.2834 0.26156 0.64905 0.0
C620 C 0.28428 0.31894 0.65203 0.0
C621 C 0.28342 0.24197 0.63456 0.0
C622 C 0.28462 0.35656 0.64029 0.0
C623 C 0.2858 0.33735 0.62583 0.0
H624 H 0.72163 0.77894 0.84998 0.0
H625 H 0.89039 0.76342 0.8645 0.0
H626 H 0.85933 0.76371 0.89011 0.0
H627 H 0.78434 0.77353 0.9082 0.0
H628 H 0.61543 0.7838 0.89336 0.0
H629 H 0.64658 0.78034 0.86788 0.0
C630 C 0.75169 0.7752 0.85873 0.0
C631 C 0.8083 0.77173 0.85538 0.0
C632 C 0.7335 0.7748 0.8733 0.0
C633 C 0.84663 0.76611 0.86682 0.0
C634 C 0.82888 0.76658 0.88144 0.0
C635 C 0.75431 0.77479 0.89939 0.0
C636 C 0.69763 0.77953 0.90266 0.0
C637 C 0.77246 0.77177 0.88479 0.0
C638 C 0.65922 0.78026 0.89113 0.0
C639 C 0.67701 0.7784 0.87658 0.0
H640 H 0.73421 0.73641 0.59728 0.0
H641 H 0.73973 0.9056 0.61278 0.0
H642 H 0.74433 0.87254 0.6381 0.0
H643 H 0.74557 0.79616 0.65564 0.0
H644 H 0.74597 0.62672 0.64031 0.0
H645 H 0.74102 0.65955 0.6149 0.0
C646 C 0.73638 0.76615 0.60618 0.0
C647 C 0.73617 0.82351 0.60315 0.0
C648 C 0.7404 0.74683 0.62065 0.0
C649 C 0.7397 0.86134 0.61482 0.0
C650 C 0.74235 0.84245 0.62927 0.0
C651 C 0.74479 0.76622 0.64677 0.0
C652 C 0.74574 0.70897 0.64987 0.0
C653 C 0.74263 0.78536 0.63229 0.0
C654 C 0.74537 0.67093 0.63821 0.0
C655 C 0.74227 0.68971 0.62371 0.0
H656 H 0.22778 0.26025 0.90323 0.0
H657 H 0.39732 0.24378 0.88941 0.0
H658 H 0.36753 0.24162 0.86371 0.0
H659 H 0.29258 0.23973 0.84541 0.0
H660 H 0.12385 0.26175 0.85946 0.0
H661 H 0.15425 0.26698 0.88499 0.0
C662 C 0.25839 0.25661 0.89462 0.0
C663 C 0.31468 0.25163 0.89822 0.0
C664 C 0.24105 0.25628 0.87997 0.0
C665 C 0.35378 0.24763 0.88691 0.0
C666 C 0.33672 0.2462 0.87224 0.0
C667 C 0.26251 0.24593 0.85406 0.0
C668 C 0.20595 0.24972 0.85059 0.0
C669 C 0.28038 0.24973 0.86867 0.0
C670 C 0.16754 0.25868 0.86187 0.0
C671 C 0.18488 0.26147 0.87645 0.0
H672 H 0.77089 0.78732 0.0956 0.0
H673 H 0.75486 0.61748 0.10988 0.0
H674 H 0.74888 0.64855 0.13539 0.0
H675 H 0.7559 0.72309 0.15356 0.0
H676 H 0.76817 0.89333 0.13945 0.0
H677 H 0.76722 0.86297 0.11376 0.0
C678 C 0.76563 0.75711 0.10429 0.0
C679 C 0.7641 0.70005 0.1009 0.0
C680 C 0.76165 0.77533 0.11887 0.0
C681 C 0.75629 0.66151 0.11222 0.0
C682 C 0.75308 0.67927 0.1268 0.0
C683 C 0.75769 0.75369 0.14487 0.0
C684 C 0.76275 0.81037 0.14837 0.0
C685 C 0.75684 0.73593 0.13024 0.0
C686 C 0.76425 0.84953 0.13701 0.0
C687 C 0.76406 0.83212 0.12235 0.0
H688 H 0.2982 0.2772 0.40636 0.0
H689 H 0.12873 0.26438 0.3922 0.0
H690 H 0.15893 0.26271 0.36657 0.0
H691 H 0.23279 0.27058 0.3484 0.0
H692 H 0.40281 0.2774 0.36238 0.0
H693 H 0.37298 0.27556 0.38808 0.0
C694 C 0.26787 0.27364 0.39766 0.0
C695 C 0.21121 0.27154 0.40113 0.0
C696 C 0.28561 0.27188 0.38302 0.0
C697 C 0.17248 0.26608 0.38979 0.0
C698 C 0.18974 0.26537 0.37516 0.0
C699 C 0.26349 0.27116 0.35704 0.0
C700 C 0.32 0.27468 0.3535 0.0
C701 C 0.24609 0.2691 0.37168 0.0
C702 C 0.35915 0.27477 0.36484 0.0
C703 C 0.34207 0.2739 0.3795 0.0
H704 H 0.30298 0.24591 0.22287 0.0
H705 H 0.19249 0.1236 0.24069 0.0
H706 H 0.2175 0.15162 0.26565 0.0
H707 H 0.28246 0.19969 0.28217 0.0
H708 H 0.39891 0.31605 0.26427 0.0
H709 H 0.36107 0.30123 0.23963 0.0
C710 C 0.28291 0.22697 0.23224 0.0
C711 C 0.24545 0.18322 0.22999 0.0
C712 C 0.3 0.24114 0.24655 0.0
C713 C 0.22093 0.15778 0.2422 0.0
C714 C 0.23583 0.17327 0.25645 0.0
C715 C 0.29839 0.22285 0.2729 0.0
C716 C 0.34244 0.25994 0.27503 0.0
C717 C 0.27715 0.21311 0.25874 0.0
C718 C 0.36443 0.28796 0.26288 0.0
C719 C 0.34277 0.27949 0.24881 0.0
H720 H 0.89204 0.73531 0.49247 0.0
H721 H 0.76948 0.81483 0.46547 0.0
H722 H 0.73363 0.86475 0.48677 0.0
H723 H 0.74175 0.89113 0.51298 0.0
H724 H 0.85583 0.80224 0.54052 0.0
H725 H 0.89144 0.75174 0.51922 0.0
C726 C 0.85636 0.76222 0.49139 0.0
C727 C 0.83308 0.77099 0.47749 0.0
C728 C 0.83569 0.7905 0.50373 0.0
C729 C 0.78729 0.80645 0.47613 0.0
C730 C 0.76754 0.83595 0.48826 0.0
C731 C 0.77403 0.86032 0.51425 0.0
C732 C 0.79585 0.84976 0.52822 0.0
C733 C 0.79228 0.82935 0.50206 0.0
C734 C 0.83807 0.81032 0.52983 0.0
C735 C 0.85839 0.78149 0.51767 0.0
H736 H 0.19151 0.3035 0.72117 0.0
H737 H 0.30647 0.41783 0.74066 0.0
H738 H 0.28818 0.37833 0.76499 0.0
H739 H 0.23606 0.31376 0.78079 0.0
H740 H 0.11539 0.20515 0.76143 0.0
H741 H 0.14035 0.2382 0.73691 0.0
C742 C 0.21303 0.31908 0.73076 0.0
C743 C 0.25182 0.36194 0.72916 0.0
C744 C 0.20149 0.29678 0.74467 0.0
C745 C 0.27755 0.38382 0.74166 0.0
C746 C 0.26708 0.36123 0.75553 0.0
C747 C 0.21684 0.29595 0.77113 0.0
C748 C 0.17513 0.25591 0.7728 0.0
C749 C 0.22929 0.31751 0.75717 0.0
C750 C 0.14862 0.23488 0.76031 0.0
C751 C 0.16209 0.25462 0.74635 0.0
H752 H 0.70748 0.73391 0.03142 0.0
H753 H 0.81328 0.6118 0.01142 0.0
H754 H 0.78011 0.63868 0.98706 0.0
H755 H 0.71533 0.6917 0.97164 0.0
H756 H 0.60401 0.80849 0.99169 0.0
H757 H 0.64381 0.78845 0.01589 0.0
C758 C 0.72459 0.7147 0.02167 0.0
C759 C 0.76377 0.67192 0.02312 0.0
C760 C 0.70306 0.72839 0.00778 0.0
C761 C 0.78405 0.64566 0.01048 0.0
C762 C 0.76431 0.66029 0.99661 0.0
C763 C 0.70051 0.71327 0.98132 0.0
C764 C 0.65838 0.75302 0.97991 0.0
C765 C 0.72292 0.7007 0.99515 0.0
C766 C 0.63747 0.77883 0.99254 0.0
C767 C 0.6602 0.76733 0.00634 0.0
H768 H 0.2306 0.39002 0.01253 0.0
H769 H 0.30751 0.26037 0.0378 0.0
H770 H 0.34921 0.22208 0.01561 0.0
H771 H 0.3726 0.23206 0.98927 0.0
H772 H 0.29086 0.35796 0.96377 0.0
H773 H 0.24383 0.3923 0.98573 0.0
C774 C 0.25518 0.35244 0.01307 0.0
C775 C 0.26531 0.32766 0.02675 0.0
C776 C 0.2798 0.33118 1.00027 0.0
C777 C 0.29774 0.27934 0.02737 0.0
C778 C 0.32268 0.25813 0.01471 0.0
C779 C 0.3439 0.2665 0.98857 0.0
C780 C 0.3345 0.29212 0.97497 0.0
C781 C 0.31547 0.28477 1.00117 0.0
C782 C 0.29797 0.33723 0.97414 0.0
C783 C 0.27113 0.35686 0.98667 0.0
H784 H 0.63936 0.72923 0.2625 0.0
H785 H 0.72146 0.85232 0.28886 0.0
H786 H 0.77049 0.88682 0.26727 0.0
H787 H 0.78674 0.88467 0.2406 0.0
H788 H 0.70889 0.75831 0.21442 0.0
H789 H 0.66414 0.72038 0.23619 0.0
C790 C 0.66845 0.76318 0.26346 0.0
C791 C 0.67754 0.7878 0.27721 0.0
C792 C 0.69808 0.78151 0.25106 0.0
C793 C 0.71458 0.83232 0.27837 0.0
C794 C 0.74258 0.85202 0.26604 0.0
C795 C 0.76127 0.84783 0.23977 0.0
C796 C 0.75218 0.82363 0.22596 0.0
C797 C 0.73466 0.82699 0.25232 0.0
C798 C 0.71828 0.77649 0.22497 0.0
C799 C 0.69149 0.75561 0.23739 0.0
H800 H 0.13243 0.28857 0.49287 0.0
H801 H 0.25682 0.20671 0.46694 0.0
H802 H 0.29176 0.15946 0.48877 0.0
H803 H 0.28173 0.13535 0.51509 0.0
H804 H 0.16563 0.22655 0.54152 0.0
H805 H 0.13159 0.27511 0.51974 0.0
C806 C 0.16832 0.26178 0.49213 0.0
C807 C 0.19231 0.25149 0.47837 0.0
C808 C 0.18843 0.23501 0.50477 0.0
C809 C 0.23839 0.21622 0.47747 0.0
C810 C 0.25764 0.18824 0.48991 0.0
C811 C 0.24946 0.16634 0.51603 0.0
C812 C 0.22655 0.178 0.52983 0.0
C813 C 0.23206 0.19619 0.50355 0.0
C814 C 0.18425 0.21761 0.53098 0.0
C815 C 0.16481 0.24532 0.51855 0.0
H816 H 0.732 0.64327 0.7405 0.0
H817 H 0.85914 0.72257 0.71508 0.0
H818 H 0.89381 0.76935 0.73704 0.0
H819 H 0.89001 0.78481 0.76375 0.0
H820 H 0.75751 0.71312 0.78883 0.0
H821 H 0.72112 0.66861 0.76676 0.0
C822 C 0.76689 0.67126 0.73983 0.0
C823 C 0.79264 0.68021 0.72624 0.0
C824 C 0.78507 0.70001 0.75241 0.0
C825 C 0.83832 0.71583 0.72544 0.0
C826 C 0.85811 0.74255 0.73798 0.0
C827 C 0.8522 0.76084 0.76425 0.0
C828 C 0.8261 0.75287 0.77784 0.0
C829 C 0.83177 0.73507 0.75152 0.0
C830 C 0.77754 0.72112 0.77843 0.0
C831 C 0.75745 0.69456 0.76586 0.0
H832 H 0.12252 0.99478 0.18759 0.0
H833 H 0.03655 0.1518 0.18799 0.0
H834 H 0.94839 0.10436 0.18717 0.0
H835 H 0.89366 0.01798 0.18709 0.0
H836 H 0.97953 0.86095 0.18627 0.0
H837 H 0.06778 0.90842 0.18643 0.0
C838 C 0.08461 0.0187 0.18741 0.0
C839 C 0.08717 0.07712 0.18789 0.0
C840 C 0.03302 0.99103 0.18689 0.0
C841 C 0.03687 0.10691 0.18762 0.0
C842 C 0.98586 0.07976 0.18718 0.0
C843 C 0.93157 0.99407 0.18685 0.0
C844 C 0.92897 0.93564 0.18669 0.0
C845 C 0.98317 0.02176 0.18691 0.0
C846 C 0.97927 0.90586 0.18638 0.0
C847 C 0.03032 0.93302 0.18651 0.0
H848 H 0.12409 0.48149 0.43869 0.0
H849 H 0.99019 0.36334 0.4389 0.0
H850 H 0.92339 0.43884 0.43824 0.0
H851 H 0.90238 0.53843 0.43848 0.0
H852 H 0.03617 0.65668 0.43828 0.0
H853 H 0.10305 0.58115 0.43799 0.0
C854 C 0.08033 0.4721 0.4385 0.0
C855 C 0.06254 0.4165 0.43889 0.0
C856 C 0.04181 0.51585 0.43815 0.0
C857 C 1.00545 0.40553 0.43864 0.0
C858 C 0.96701 0.44877 0.43827 0.0
C859 C 0.94613 0.54784 0.43826 0.0
C860 C 0.96388 0.60346 0.43844 0.0
C861 C 0.98466 0.50411 0.43815 0.0
C862 C 0.02096 0.61447 0.43817 0.0
C863 C 0.05944 0.57121 0.43803 0.0
H864 H 0.40235 0.5312 0.69216 0.0
H865 H 0.4858 0.37305 0.68979 0.0
H866 H 0.57477 0.41965 0.68925 0.0
H867 H 0.6299 0.5051 0.68991 0.0
H868 H 0.54683 0.66336 0.69264 0.0
H869 H 0.45764 0.61692 0.69256 0.0
C870 C 0.43992 0.50686 0.69145 0.0
C871 C 0.43682 0.4485 0.69102 0.0
C872 C 0.49152 0.53397 0.69125 0.0
C873 C 0.48637 0.41794 0.69017 0.0
C874 C 0.53758 0.44458 0.68986 0.0
C875 C 0.59238 0.52957 0.69045 0.0
C876 C 0.59566 0.58785 0.69128 0.0
C877 C 0.54077 0.50257 0.69047 0.0
C878 C 0.54613 0.61851 0.69199 0.0
C879 C 0.4948 0.59196 0.69195 0.0
H880 H 0.51305 0.13167 0.93951 0.0
H881 H 0.35608 0.04705 0.94062 0.0
H882 H 0.40322 0.95776 0.941 0.0
H883 H 0.48902 0.90302 0.94148 0.0
H884 H 0.64588 0.98793 0.94065 0.0
H885 H 0.59868 0.07703 0.93967 0.0
C886 C 0.489 0.09378 0.93979 0.0
C887 C 0.43088 0.0966 0.94004 0.0
C888 C 0.51639 0.0422 0.94007 0.0
C889 C 0.40077 0.04665 0.94041 0.0
C890 C 0.42773 0.99531 0.94064 0.0
C891 C 0.513 0.94093 0.94102 0.0
C892 C 0.57114 0.93825 0.94115 0.0
C893 C 0.48555 0.9925 0.94053 0.0
C894 C 0.60118 0.98821 0.94059 0.0
C895 C 0.57419 0.03946 0.94003 0.0
H896 H 0.03871 0.39078 0.0661 0.0
H897 H 0.15604 0.52498 0.06951 0.0
H898 H 0.08141 0.59222 0.06962 0.0
H899 H 0.98296 0.61402 0.06734 0.0
H900 H 0.86548 0.47986 0.06414 0.0
H901 H 0.93976 0.41239 0.06544 0.0
C902 C 0.04794 0.43464 0.06704 0.0
C903 C 0.10303 0.45247 0.06765 0.0
C904 C 1.00471 0.47359 0.06704 0.0
C905 C 0.11408 0.50972 0.06888 0.0
C906 C 0.07138 0.54849 0.06894 0.0
C907 C 0.97354 0.57007 0.06704 0.0
C908 C 0.91864 0.55244 0.06553 0.0
C909 C 0.01656 0.53102 0.06779 0.0
C910 C 0.90734 0.49505 0.06523 0.0
C911 C 0.94984 0.45614 0.06596 0.0
H912 H 0.49741 0.62861 0.31295 0.0
H913 H 0.65338 0.54172 0.3123 0.0
H914 H 0.60521 0.45309 0.31258 0.0
H915 H 0.51883 0.39947 0.31268 0.0
H916 H 0.36288 0.48643 0.31304 0.0
H917 H 0.41107 0.57502 0.31323 0.0
C918 C 0.52102 0.59038 0.31291 0.0
C919 C 0.5792 0.5924 0.31261 0.0
C920 C 0.493 0.53912 0.31301 0.0
C921 C 0.60869 0.54198 0.31253 0.0
C922 C 0.58113 0.491 0.31269 0.0
C923 C 0.49524 0.43771 0.31285 0.0
C924 C 0.43705 0.43572 0.31286 0.0
C925 C 0.52328 0.48897 0.31288 0.0
C926 C 0.40757 0.48614 0.31304 0.0
C927 C 0.43515 0.53711 0.31314 0.0
H928 H 0.54255 0.90392 0.56181 0.0
H929 H 0.65466 0.04298 0.56008 0.0
H930 H 0.57743 0.1072 0.56036 0.0
H931 H 0.47777 0.12481 0.56123 0.0
H932 H 0.36567 0.98576 0.56319 0.0
H933 H 0.44287 0.92153 0.56267 0.0
C934 C 0.55012 0.94822 0.56148 0.0
C935 C 0.60452 0.96818 0.56096 0.0
C936 C 0.50537 0.98541 0.5617 0.0
C937 C 0.61334 0.02599 0.56053 0.0
C938 C 0.56912 0.06305 0.56068 0.0
C939 C 0.47018 0.08051 0.56156 0.0
C940 C 0.41581 0.06057 0.56228 0.0
C941 C 0.51492 0.04331 0.5613 0.0
C942 C 0.40698 1.00275 0.56266 0.0
C943 C 0.45118 0.96568 0.56236 0.0
H944 H 0.11456 0.03812 0.81577 0.0
H945 H 0.98037 0.1562 0.81479 0.0
H946 H 0.91377 0.08071 0.81617 0.0
H947 H 0.89321 0.98101 0.8166 0.0
H948 H 0.0276 0.86312 0.8175 0.0
H949 H 0.09408 0.93878 0.81728 0.0
C950 C 0.07079 0.04754 0.81596 0.0
C951 C 0.0528 0.10302 0.81512 0.0
C952 C 0.03249 1.00387 0.8167 0.0
C953 C 0.99571 0.11406 0.81539 0.0
C954 C 0.95743 0.07083 0.81617 0.0
C955 C 0.937 0.97173 0.81686 0.0
C956 C 0.95506 0.91617 0.81701 0.0
C957 C 0.97531 0.01553 0.81667 0.0
C958 C 0.01218 0.9053 0.81735 0.0
C959 C 0.05041 0.94861 0.8172 0.0
H960 H 0.61807 0.0403 0.18757 0.0
H961 H 0.56506 0.87007 0.18436 0.0
H962 H 0.46869 0.89944 0.18456 0.0
H963 H 0.39819 0.97338 0.18665 0.0
H964 H 0.45126 0.14332 0.1909 0.0
H965 H 0.54753 0.11439 0.18928 0.0
C966 C 0.58544 1.00972 0.18676 0.0
C967 C 0.5992 0.95299 0.18592 0.0
C968 C 0.52952 0.02687 0.18717 0.0
C969 C 0.55604 0.91401 0.18504 0.0
C970 C 0.50065 0.93076 0.18517 0.0
C971 C 0.43079 1.00409 0.18714 0.0
C972 C 0.41703 0.06053 0.18892 0.0
C973 C 0.4867 0.98706 0.1864 0.0
C974 C 0.46021 0.09957 0.1896 0.0
C975 C 0.51557 0.08307 0.18865 0.0
H976 H 0.0403 0.8985 0.43519 0.0
H977 H 0.87312 0.96032 0.43576 0.0
H978 H 0.90733 0.05564 0.43506 0.0
H979 H 0.98478 0.12147 0.43558 0.0
H980 H 0.1519 0.05955 0.43644 0.0
H981 H 0.11772 0.9643 0.43523 0.0
C982 C 0.01133 0.93282 0.43501 0.0
C983 C 0.95422 0.92231 0.43551 0.0
C984 C 0.03132 0.98754 0.43494 0.0
C985 C 0.91726 0.96726 0.43541 0.0
C986 C 0.93681 0.02179 0.43502 0.0
C987 C 0.01374 0.08715 0.43537 0.0
C988 C 0.07083 0.09761 0.43609 0.0
C989 C 0.99375 0.03244 0.43498 0.0
C990 C 0.10778 0.05265 0.43593 0.0
C991 C 0.08825 0.99816 0.43524 0.0
H992 H 0.07056 0.41369 0.68215 0.0
H993 H 0.15199 0.57253 0.68009 0.0
H994 H 0.06257 0.61921 0.67863 0.0
H995 H 0.96111 0.61545 0.67984 0.0
H996 H 0.87939 0.4567 0.68127 0.0
H997 H 0.96886 0.40955 0.68092 0.0
C998 C 0.06876 0.4585 0.68122 0.0
C999 C 0.11803 0.48957 0.68136 0.0
C1000 C 0.01706 0.48514 0.68033 0.0
C1001 C 0.11487 0.54755 0.68002 0.0
C1002 C 0.06366 0.57434 0.67924 0.0
C1003 C 0.96283 0.5705 0.6799 0.0
C1004 C 0.91352 0.53969 0.6807 0.0
C1005 C 0.01447 0.54364 0.67967 0.0
C1006 C 0.91658 0.48147 0.68065 0.0
C1007 C 0.96781 0.45446 0.68052 0.0
H1008 H 0.40392 0.46273 0.92957 0.0
H1009 H 0.56177 0.38002 0.93139 0.0
H1010 H 0.60877 0.46975 0.93145 0.0
H1011 H 0.60454 0.5717 0.93304 0.0
H1012 H 0.44659 0.65415 0.9308 0.0
H1013 H 0.40017 0.56456 0.92875 0.0
C1014 C 0.44864 0.4643 0.92981 0.0
C1015 C 0.47928 0.41473 0.93061 0.0
C1016 C 0.47536 0.51602 0.92987 0.0
C1017 C 0.5372 0.41751 0.93077 0.0
C1018 C 0.5641 0.46884 0.93088 0.0
C1019 C 0.55999 0.57008 0.93196 0.0
C1020 C 0.52903 0.61956 0.93223 0.0
C1021 C 0.53354 0.51837 0.93076 0.0
C1022 C 0.47141 0.61676 0.93066 0.0
C1023 C 0.4448 0.5655 0.92953 0.0
H1024 H 0.55992 0.60948 0.06482 0.0
H1025 H 0.64955 0.45468 0.06466 0.0
H1026 H 0.56343 0.40304 0.0655 0.0
H1027 H 0.46224 0.40134 0.06568 0.0
H1028 H 0.37231 0.55587 0.06692 0.0
H1029 H 0.4585 0.60773 0.06635 0.0
C1030 C 0.56043 0.5645 0.065 0.0
C1031 C 0.61089 0.53605 0.06462 0.0
C1032 C 0.51064 0.53481 0.06568 0.0
C1033 C 0.61114 0.47769 0.06498 0.0
C1034 C 0.56191 0.44798 0.06543 0.0
C1035 C 0.46163 0.44632 0.06588 0.0
C1036 C 0.4111 0.47461 0.06627 0.0
C1037 C 0.51138 0.47605 0.0657 0.0
C1038 C 0.4108 0.53298 0.06665 0.0
C1039 C 0.46006 0.5628 0.06627 0.0
H1040 H 0.40759 0.06782 0.32023 0.0
H1041 H 0.56519 0.15095 0.32029 0.0
H1042 H 0.61256 0.06157 0.32179 0.0
H1043 H 0.60936 0.95959 0.32141 0.0
H1044 H 0.45183 0.87637 0.32187 0.0
H1045 H 0.40435 0.9659 0.32202 0.0
C1046 C 0.4523 0.06639 0.32068 0.0
C1047 C 0.48281 0.11602 0.32 0.0
C1048 C 0.4793 0.0148 0.32162 0.0
C1049 C 0.54069 0.11344 0.32076 0.0
C1050 C 0.56783 0.0623 0.32158 0.0
C1051 C 0.56463 0.96102 0.3217 0.0
C1052 C 0.53421 0.91128 0.32151 0.0
C1053 C 0.53759 0.01268 0.32177 0.0
C1054 C 0.47628 0.91393 0.32201 0.0
C1055 C 0.44908 0.96517 0.32202 0.0
H1056 H 0.95747 0.9117 0.57739 0.0
H1057 H 0.87288 0.06936 0.57761 0.0
H1058 H 0.9607 0.11782 0.5797 0.0
H1059 H 0.06179 0.11572 0.5784 0.0
H1060 H 0.14646 0.95811 0.57841 0.0
H1061 H 0.05845 0.90948 0.57952 0.0
C1062 C 0.95828 0.95659 0.57813 0.0
C1063 C 0.90897 0.98689 0.57709 0.0
C1064 C 1.00894 0.98431 0.57926 0.0
C1065 C 0.91041 0.04503 0.57827 0.0
C1066 C 0.96062 0.07288 0.57941 0.0
C1067 C 0.06094 0.07078 0.57888 0.0
C1068 C 0.11037 0.04059 0.57807 0.0
C1069 C 0.0102 0.04299 0.57944 0.0
C1070 C 0.10884 0.98237 0.57891 0.0
C1071 C 0.05853 0.95444 0.57948 0.0
H1072 H 0.03439 0.62068 0.81794 0.0
H1073 H 0.86747 0.55916 0.82023 0.0
H1074 H 0.90175 0.46377 0.8201 0.0
H1075 H 0.97872 0.39793 0.81812 0.0
H1076 H 0.14537 0.45917 0.81434 0.0
H1077 H 0.11168 0.55458 0.81629 0.0
C1078 C 1.00557 0.58638 0.81857 0.0
C1079 C 0.94846 0.59696 0.81913 0.0
C1080 C 0.02552 0.53162 0.81813 0.0
C1081 C 0.9116 0.55211 0.81978 0.0
C1082 C 0.93117 0.49756 0.81969 0.0
C1083 C 1.00775 0.43212 0.81784 0.0
C1084 C 0.06449 0.42146 0.81609 0.0
C1085 C 0.98798 0.48683 0.81867 0.0
C1086 C 0.10148 0.46626 0.81563 0.0
C1087 C 0.08224 0.52082 0.81675 0.0
loop_
_geom_bond_atom_site_label_1
_geom_bond_atom_site_label_2
_geom_bond_distance
_geom_bond_site_symmetry_2
_ccdc_geom_bond_type
Mn0 O5 2.095 . S
Mn0 O15 2.162 . S
Mn0 O16 2.297 . S
Mn0 O24 2.385 . S
Mn0 O25 2.209 . S
Mn0 O26 2.094 . S
Mn1 O6 2.121 . S
Mn1 N8 2.257 . S
Mn1 N17 2.282 . S
Mn1 O25 2.215 . S
Mn1 O27 2.117 . S
C2 O24 1.234 . S
C2 O25 1.283 . S
C3 O15 1.281 . S
C3 O16 1.236 . S
C4 O26 1.240 . S
C4 O27 1.264 . S
O5 Mn0 2.095 . S
O5 C14 1.250 . S
O6 Mn1 2.121 . S
O6 C14 1.258 . S
C7 N8 1.326 . S
C7 C11 1.460 . S
C7 H13 0.929 . S
N8 Mn1 2.257 . S
N8 C7 1.326 . S
N8 C12 1.362 . S
C9 C10 1.258 . S
C9 C12 1.431 . S
C9 C29 1.449 . S
C10 C9 1.258 . S
C10 C11 1.477 . S
C10 H30 0.931 . S
C11 C7 1.460 . S
C11 C10 1.477 . S
C11 H31 0.930 . S
C12 N8 1.362 . S
C12 C9 1.431 . S
C12 C22 1.476 . S
H13 C7 0.929 . S
C14 O5 1.250 . S
C14 O6 1.258 . S
O15 Mn0 2.162 . S
O15 C3 1.281 . S
O16 Mn0 2.297 . S
O16 C3 1.236 . S
N17 Mn1 2.282 . S
N17 C18 1.328 . S
N17 C22 1.318 . S
C18 N17 1.328 . S
C18 C19 1.457 . S
C18 H23 0.929 . S
C19 C18 1.457 . S
C19 C20 1.291 . S
C19 H32 0.931 . S
C20 C19 1.291 . S
C20 C21 1.373 . S
C20 H33 0.929 . S
C21 C20 1.373 . S
C21 C22 1.396 . S
C21 C28 1.403 . S
C22 C12 1.476 . S
C22 N17 1.318 . S
C22 C21 1.396 . S
H23 C18 0.929 . S
O24 Mn0 2.385 . S
O24 C2 1.234 . S
O25 Mn0 2.209 . S
O25 Mn1 2.215 . S
O25 C2 1.283 . S
O26 Mn0 2.094 . S
O26 C4 1.240 . S
O27 Mn1 2.117 . S
O27 C4 1.264 . S
C28 C21 1.403 . S
C28 C29 1.399 . S
C28 H34 0.929 . S
C29 C9 1.449 . S
C29 C28 1.399 . S
C29 H35 0.930 . S
H30 C10 0.931 . S
H31 C11 0.930 . S
H32 C19 0.931 . S
H33 C20 0.929 . S
H34 C28 0.929 . S
H35 C29 0.930 . S
Mn36 O41 2.095 . S
Mn36 O51 2.162 . S
Mn36 O52 2.297 . S
Mn36 O60 2.385 . S
Mn36 O61 2.209 . S
Mn36 O62 2.094 . S
Mn37 O42 2.121 . S
Mn37 N44 2.257 . S
Mn37 N53 2.282 . S
Mn37 O61 2.215 . S
Mn37 O63 2.117 . S
C38 O60 1.234 . S
C38 O61 1.283 . S
C39 O51 1.281 . S
C39 O52 1.236 . S
C40 O62 1.240 . S
C40 O63 1.264 . S
O41 Mn36 2.095 . S
O41 C50 1.250 . S
O42 Mn37 2.121 . S
O42 C50 1.258 . S
C43 N44 1.326 . S
C43 C47 1.460 . S
C43 H49 0.929 . S
N44 Mn37 2.257 . S
N44 C43 1.326 . S
N44 C48 1.362 . S
C45 C46 1.258 . S
C45 C48 1.431 . S
C45 C65 1.449 . S
C46 C45 1.258 . S
C46 C47 1.477 . S
C46 H66 0.931 . S
C47 C43 1.460 . S
C47 C46 1.477 . S
C47 H67 0.930 . S
C48 N44 1.362 . S
C48 C45 1.431 . S
C48 C58 1.476 . S
H49 C43 0.929 . S
C50 O41 1.250 . S
C50 O42 1.258 . S
O51 Mn36 2.162 . S
O51 C39 1.281 . S
O52 Mn36 2.297 . S
O52 C39 1.236 . S
N53 Mn37 2.282 . S
N53 C54 1.328 . S
N53 C58 1.318 . S
C54 N53 1.328 . S
C54 C55 1.457 . S
C54 H59 0.929 . S
C55 C54 1.457 . S
C55 C56 1.291 . S
C55 H68 0.931 . S
C56 C55 1.291 . S
C56 C57 1.373 . S
C56 H69 0.929 . S
C57 C56 1.373 . S
C57 C58 1.396 . S
C57 C64 1.403 . S
C58 C48 1.476 . S
C58 N53 1.318 . S
C58 C57 1.396 . S
H59 C54 0.929 . S
O60 Mn36 2.385 . S
O60 C38 1.234 . S
O61 Mn36 2.209 . S
O61 Mn37 2.215 . S
O61 C38 1.283 . S
O62 Mn36 2.094 . S
O62 C40 1.240 . S
O63 Mn37 2.117 . S
O63 C40 1.264 . S
C64 C57 1.403 . S
C64 C65 1.399 . S
C64 H70 0.929 . S
C65 C45 1.449 . S
C65 C64 1.399 . S
C65 H71 0.930 . S
H66 C46 0.931 . S
H67 C47 0.930 . S
H68 C55 0.931 . S
H69 C56 0.929 . S
H70 C64 0.929 . S
H71 C65 0.930 . S
Mn72 O77 2.095 . S
Mn72 O87 2.162 . S
Mn72 O88 2.297 . S
Mn72 O96 2.385 . S
Mn72 O97 2.209 . S
Mn72 O98 2.094 . S
Mn73 O78 2.121 . S
Mn73 N80 2.257 . S
Mn73 N89 2.282 . S
Mn73 O97 2.215 . S
Mn73 O99 2.117 . S
C74 O96 1.234 . S
C74 O97 1.283 . S
C75 O87 1.281 . S
C75 O88 1.236 . S
C76 O98 1.240 . S
C76 O99 1.264 . S
O77 Mn72 2.095 . S
O77 C86 1.250 . S
O78 Mn73 2.121 . S
O78 C86 1.258 . S
C79 N80 1.326 . S
C79 C83 1.460 . S
C79 H85 0.929 . S
N80 Mn73 2.257 . S
N80 C79 1.326 . S
N80 C84 1.362 . S
C81 C82 1.258 . S
C81 C84 1.431 . S
C81 C101 1.449 . S
C82 C81 1.258 . S
C82 C83 1.477 . S
C82 H102 0.931 . S
C83 C79 1.460 . S
C83 C82 1.477 . S
C83 H103 0.930 . S
C84 N80 1.362 . S
C84 C81 1.431 . S
C84 C94 1.476 . S
H85 C79 0.929 . S
C86 O77 1.250 . S
C86 O78 1.258 . S
O87 Mn72 2.162 . S
O87 C75 1.281 . S
O88 Mn72 2.297 . S
O88 C75 1.236 . S
N89 Mn73 2.282 . S
N89 C90 1.328 . S
N89 C94 1.318 . S
C90 N89 1.328 . S
C90 C91 1.457 . S
C90 H95 0.929 . S
C91 C90 1.457 . S
C91 C92 1.291 . S
C91 H104 0.931 . S
C92 C91 1.291 . S
C92 C93 1.373 . S
C92 H105 0.929 . S
C93 C92 1.373 . S
C93 C94 1.396 . S
C93 C100 1.403 . S
C94 C84 1.476 . S
C94 N89 1.318 . S
C94 C93 1.396 . S
H95 C90 0.929 . S
O96 Mn72 2.385 . S
O96 C74 1.234 . S
O97 Mn72 2.209 . S
O97 Mn73 2.215 . S
O97 C74 1.283 . S
O98 Mn72 2.094 . S
O98 C76 1.240 . S
O99 Mn73 2.117 . S
O99 C76 1.264 . S
C100 C93 1.403 . S
C100 C101 1.399 . S
C100 H106 0.929 . S
C101 C81 1.449 . S
C101 C100 1.399 . S
C101 H107 0.930 . S
H102 C82 0.931 . S
H103 C83 0.930 . S
H104 C91 0.931 . S
H105 C92 0.929 . S
H106 C100 0.929 . S
H107 C101 0.930 . S
Mn108 O113 2.095 . S
Mn108 O123 2.162 . S
Mn108 O124 2.297 . S
Mn108 O132 2.385 . S
Mn108 O133 2.209 . S
Mn108 O134 2.094 . S
Mn109 O114 2.121 . S
Mn109 N116 2.257 . S
Mn109 N125 2.282 . S
Mn109 O133 2.215 . S
Mn109 O135 2.117 . S
C110 O132 1.234 . S
C110 O133 1.283 . S
C111 O123 1.281 . S
C111 O124 1.236 . S
C112 O134 1.240 . S
C112 O135 1.264 . S
O113 Mn108 2.095 . S
O113 C122 1.250 . S
O114 Mn109 2.121 . S
O114 C122 1.258 . S
C115 N116 1.326 . S
C115 C119 1.460 . S
C115 H121 0.929 . S
N116 Mn109 2.257 . S
N116 C115 1.326 . S
N116 C120 1.362 . S
C117 C118 1.258 . S
C117 C120 1.431 . S
C117 C137 1.449 . S
C118 C117 1.258 . S
C118 C119 1.477 . S
C118 H138 0.931 . S
C119 C115 1.460 . S
C119 C118 1.477 . S
C119 H139 0.930 . S
C120 N116 1.362 . S
C120 C117 1.431 . S
C120 C130 1.476 . S
H121 C115 0.929 . S
C122 O113 1.250 . S
C122 O114 1.258 . S
O123 Mn108 2.162 . S
O123 C111 1.281 . S
O124 Mn108 2.297 . S
O124 C111 1.236 . S
N125 Mn109 2.282 . S
N125 C126 1.328 . S
N125 C130 1.318 . S
C126 N125 1.328 . S
C126 C127 1.457 . S
C126 H131 0.929 . S
C127 C126 1.457 . S
C127 C128 1.291 . S
C127 H140 0.931 . S
C128 C127 1.291 . S
C128 C129 1.373 . S
C128 H141 0.929 1_556 S
C129 C128 1.373 . S
C129 C130 1.396 . S
C129 C136 1.403 . S
C130 C120 1.476 . S
C130 N125 1.318 . S
C130 C129 1.396 . S
H131 C126 0.929 . S
O132 Mn108 2.385 . S
O132 C110 1.234 . S
O133 Mn108 2.209 . S
O133 Mn109 2.215 . S
O133 C110 1.283 . S
O134 Mn108 2.094 . S
O134 C112 1.240 . S
O135 Mn109 2.117 . S
O135 C112 1.264 . S
C136 C129 1.403 . S
C136 C137 1.399 . S
C136 H142 0.929 1_556 S
C137 C117 1.449 . S
C137 C136 1.399 . S
C137 H143 0.930 . S
H138 C118 0.931 . S
H139 C119 0.930 . S
H140 C127 0.931 . S
H141 C128 0.929 1_554 S
H142 C136 0.929 1_554 S
H143 C137 0.930 . S
Mn144 O149 2.095 . S
Mn144 O159 2.162 . S
Mn144 O160 2.297 . S
Mn144 O168 2.385 . S
Mn144 O169 2.209 . S
Mn144 O170 2.094 . S
Mn145 O150 2.121 . S
Mn145 N152 2.257 . S
Mn145 N161 2.282 . S
Mn145 O169 2.215 . S
Mn145 O171 2.117 . S
C146 O168 1.234 . S
C146 O169 1.283 . S
C147 O159 1.281 . S
C147 O160 1.236 . S
C148 O170 1.240 . S
C148 O171 1.264 . S
O149 Mn144 2.095 . S
O149 C158 1.250 . S
O150 Mn145 2.121 . S
O150 C158 1.258 . S
C151 N152 1.326 . S
C151 C155 1.460 . S
C151 H157 0.929 . S
N152 Mn145 2.257 . S
N152 C151 1.326 . S
N152 C156 1.362 . S
C153 C154 1.258 . S
C153 C156 1.431 . S
C153 C173 1.449 . S
C154 C153 1.258 . S
C154 C155 1.477 . S
C154 H174 0.931 . S
C155 C151 1.460 . S
C155 C154 1.477 . S
C155 H175 0.930 . S
C156 N152 1.362 . S
C156 C153 1.431 . S
C156 C166 1.476 . S
H157 C151 0.929 . S
C158 O149 1.250 . S
C158 O150 1.258 . S
O159 Mn144 2.162 . S
O159 C147 1.281 . S
O160 Mn144 2.297 . S
O160 C147 1.236 . S
N161 Mn145 2.282 . S
N161 C162 1.328 . S
N161 C166 1.318 . S
C162 N161 1.328 . S
C162 C163 1.457 . S
C162 H167 0.929 . S
C163 C162 1.457 . S
C163 C164 1.291 . S
C163 H176 0.931 . S
C164 C163 1.291 . S
C164 C165 1.373 . S
C164 H177 0.929 1_554 S
C165 C164 1.373 . S
C165 C166 1.396 . S
C165 C172 1.403 . S
C166 C156 1.476 . S
C166 N161 1.318 . S
C166 C165 1.396 . S
H167 C162 0.929 . S
O168 Mn144 2.385 . S
O168 C146 1.234 . S
O169 Mn144 2.209 . S
O169 Mn145 2.215 . S
O169 C146 1.283 . S
O170 Mn144 2.094 . S
O170 C148 1.240 . S
O171 Mn145 2.117 . S
O171 C148 1.264 . S
C172 C165 1.403 . S
C172 C173 1.399 . S
C172 H178 0.929 1_554 S
C173 C153 1.449 . S
C173 C172 1.399 . S
C173 H179 0.930 . S
H174 C154 0.931 . S
H175 C155 0.930 . S
H176 C163 0.931 . S
H177 C164 0.929 1_556 S
H178 C172 0.929 1_556 S
H179 C173 0.930 . S
Mn180 O185 2.095 . S
Mn180 O195 2.162 . S
Mn180 O196 2.297 . S
Mn180 O204 2.385 . S
Mn180 O205 2.209 . S
Mn180 O206 2.094 . S
Mn181 O186 2.121 . S
Mn181 N188 2.257 . S
Mn181 N197 2.282 . S
Mn181 O205 2.215 . S
Mn181 O207 2.117 . S
C182 O204 1.234 . S
C182 O205 1.283 . S
C183 O195 1.281 . S
C183 O196 1.236 . S
C184 O206 1.240 . S
C184 O207 1.264 . S
O185 Mn180 2.095 . S
O185 C194 1.250 . S
O186 Mn181 2.121 . S
O186 C194 1.258 . S
C187 N188 1.326 . S
C187 C191 1.460 . S
C187 H193 0.929 . S
N188 Mn181 2.257 . S
N188 C187 1.326 . S
N188 C192 1.362 . S
C189 C190 1.258 . S
C189 C192 1.431 . S
C189 C209 1.449 . S
C190 C189 1.258 . S
C190 C191 1.477 . S
C190 H210 0.931 . S
C191 C187 1.460 . S
C191 C190 1.477 . S
C191 H211 0.930 . S
C192 N188 1.362 . S
C192 C189 1.431 . S
C192 C202 1.476 . S
H193 C187 0.929 . S
C194 O185 1.250 . S
C194 O186 1.258 . S
O195 Mn180 2.162 . S
O195 C183 1.281 . S
O196 Mn180 2.297 . S
O196 C183 1.236 . S
N197 Mn181 2.282 . S
N197 C198 1.328 . S
N197 C202 1.318 . S
C198 N197 1.328 . S
C198 C199 1.457 . S
C198 H203 0.929 . S
C199 C198 1.457 . S
C199 C200 1.291 . S
C199 H212 0.931 . S
C200 C199 1.291 . S
C200 C201 1.373 . S
C200 H213 0.929 . S
C201 C200 1.373 . S
C201 C202 1.396 . S
C201 C208 1.403 . S
C202 C192 1.476 . S
C202 N197 1.318 . S
C202 C201 1.396 . S
H203 C198 0.929 . S
O204 Mn180 2.385 . S
O204 C182 1.234 . S
O205 Mn180 2.209 . S
O205 Mn181 2.215 . S
O205 C182 1.283 . S
O206 Mn180 2.094 . S
O206 C184 1.240 . S
O207 Mn181 2.117 . S
O207 C184 1.264 . S
C208 C201 1.403 . S
C208 C209 1.399 . S
C208 H214 0.929 . S
C209 C189 1.449 . S
C209 C208 1.399 . S
C209 H215 0.930 . S
H210 C190 0.931 . S
H211 C191 0.930 . S
H212 C199 0.931 . S
H213 C200 0.929 . S
H214 C208 0.929 . S
H215 C209 0.930 . S
Mn216 O221 2.095 . S
Mn216 O231 2.162 . S
Mn216 O232 2.297 . S
Mn216 O240 2.385 . S
Mn216 O241 2.209 . S
Mn216 O242 2.094 . S
Mn217 O222 2.121 . S
Mn217 N224 2.257 . S
Mn217 N233 2.282 . S
Mn217 O241 2.215 . S
Mn217 O243 2.117 . S
C218 O240 1.234 . S
C218 O241 1.283 . S
C219 O231 1.281 . S
C219 O232 1.236 . S
C220 O242 1.240 . S
C220 O243 1.264 . S
O221 Mn216 2.095 . S
O221 C230 1.250 . S
O222 Mn217 2.121 . S
O222 C230 1.258 . S
C223 N224 1.326 . S
C223 C227 1.460 . S
C223 H229 0.929 . S
N224 Mn217 2.257 . S
N224 C223 1.326 . S
N224 C228 1.362 . S
C225 C226 1.258 . S
C225 C228 1.431 . S
C225 C245 1.449 . S
C226 C225 1.258 . S
C226 C227 1.477 . S
C226 H246 0.931 . S
C227 C223 1.460 . S
C227 C226 1.477 . S
C227 H247 0.930 . S
C228 N224 1.362 . S
C228 C225 1.431 . S
C228 C238 1.476 . S
H229 C223 0.929 . S
C230 O221 1.250 . S
C230 O222 1.258 . S
O231 Mn216 2.162 . S
O231 C219 1.281 . S
O232 Mn216 2.297 . S
O232 C219 1.236 . S
N233 Mn217 2.282 . S
N233 C234 1.328 . S
N233 C238 1.318 . S
C234 N233 1.328 . S
C234 C235 1.457 . S
C234 H239 0.929 . S
C235 C234 1.457 . S
C235 C236 1.291 . S
C235 H248 0.931 . S
C236 C235 1.291 . S
C236 C237 1.373 . S
C236 H249 0.929 . S
C237 C236 1.373 . S
C237 C238 1.396 . S
C237 C244 1.403 . S
C238 C228 1.476 . S
C238 N233 1.318 . S
C238 C237 1.396 . S
H239 C234 0.929 . S
O240 Mn216 2.385 . S
O240 C218 1.234 . S
O241 Mn216 2.209 . S
O241 Mn217 2.215 . S
O241 C218 1.283 . S
O242 Mn216 2.094 . S
O242 C220 1.240 . S
O243 Mn217 2.117 . S
O243 C220 1.264 . S
C244 C237 1.403 . S
C244 C245 1.399 . S
C244 H250 0.929 . S
C245 C225 1.449 . S
C245 C244 1.399 . S
C245 H251 0.930 . S
H246 C226 0.931 . S
H247 C227 0.930 . S
H248 C235 0.931 . S
H249 C236 0.929 . S
H250 C244 0.929 . S
H251 C245 0.930 . S
Mn252 O257 2.095 . S
Mn252 O267 2.162 . S
Mn252 O268 2.297 . S
Mn252 O276 2.385 . S
Mn252 O277 2.209 . S
Mn252 O278 2.094 . S
Mn253 O258 2.121 . S
Mn253 N260 2.257 . S
Mn253 N269 2.282 . S
Mn253 O277 2.215 . S
Mn253 O279 2.117 . S
C254 O276 1.234 . S
C254 O277 1.283 . S
C255 O267 1.281 . S
C255 O268 1.236 . S
C256 O278 1.240 . S
C256 O279 1.264 . S
O257 Mn252 2.095 . S
O257 C266 1.250 . S
O258 Mn253 2.121 . S
O258 C266 1.258 . S
C259 N260 1.326 . S
C259 C263 1.460 . S
C259 H265 0.929 . S
N260 Mn253 2.257 . S
N260 C259 1.326 . S
N260 C264 1.362 . S
C261 C262 1.258 . S
C261 C264 1.431 . S
C261 C281 1.449 . S
C262 C261 1.258 . S
C262 C263 1.477 . S
C262 H282 0.931 . S
C263 C259 1.460 . S
C263 C262 1.477 . S
C263 H283 0.930 . S
C264 N260 1.362 . S
C264 C261 1.431 . S
C264 C274 1.476 . S
H265 C259 0.929 . S
C266 O257 1.250 . S
C266 O258 1.258 . S
O267 Mn252 2.162 . S
O267 C255 1.281 . S
O268 Mn252 2.297 . S
O268 C255 1.236 . S
N269 Mn253 2.282 . S
N269 C270 1.328 . S
N269 C274 1.318 . S
C270 N269 1.328 . S
C270 C271 1.457 . S
C270 H275 0.929 . S
C271 C270 1.457 . S
C271 C272 1.291 . S
C271 H284 0.931 . S
C272 C271 1.291 . S
C272 C273 1.373 . S
C272 H285 0.929 . S
C273 C272 1.373 . S
C273 C274 1.396 . S
C273 C280 1.403 . S
C274 C264 1.476 . S
C274 N269 1.318 . S
C274 C273 1.396 . S
H275 C270 0.929 . S
O276 Mn252 2.385 . S
O276 C254 1.234 . S
O277 Mn252 2.209 . S
O277 Mn253 2.215 . S
O277 C254 1.283 . S
O278 Mn252 2.094 . S
O278 C256 1.240 . S
O279 Mn253 2.117 . S
O279 C256 1.264 . S
C280 C273 1.403 . S
C280 C281 1.399 . S
C280 H286 0.929 . S
C281 C261 1.449 . S
C281 C280 1.399 . S
C281 H287 0.930 . S
H282 C262 0.931 . S
H283 C263 0.930 . S
H284 C271 0.931 . S
H285 C272 0.929 . S
H286 C280 0.929 . S
H287 C281 0.930 . S
Mn288 O293 2.095 . S
Mn288 O303 2.162 . S
Mn288 O304 2.297 . S
Mn288 O312 2.385 . S
Mn288 O313 2.209 . S
Mn288 O314 2.094 . S
Mn289 O294 2.121 . S
Mn289 N296 2.257 . S
Mn289 N305 2.282 . S
Mn289 O313 2.215 . S
Mn289 O315 2.117 . S
C290 O312 1.234 . S
C290 O313 1.283 . S
C291 O303 1.281 . S
C291 O304 1.236 . S
C292 O314 1.240 . S
C292 O315 1.264 . S
O293 Mn288 2.095 . S
O293 C302 1.250 . S
O294 Mn289 2.121 . S
O294 C302 1.258 . S
C295 N296 1.326 . S
C295 C299 1.460 . S
C295 H301 0.929 . S
N296 Mn289 2.257 . S
N296 C295 1.326 . S
N296 C300 1.362 . S
C297 C298 1.258 . S
C297 C300 1.431 . S
C297 C317 1.449 . S
C298 C297 1.258 . S
C298 C299 1.477 . S
C298 H318 0.931 . S
C299 C295 1.460 . S
C299 C298 1.477 . S
C299 H319 0.930 . S
C300 N296 1.362 . S
C300 C297 1.431 . S
C300 C310 1.476 . S
H301 C295 0.929 . S
C302 O293 1.250 . S
C302 O294 1.258 . S
O303 Mn288 2.162 . S
O303 C291 1.281 . S
O304 Mn288 2.297 . S
O304 C291 1.236 . S
N305 Mn289 2.282 . S
N305 C306 1.328 . S
N305 C310 1.318 . S
C306 N305 1.328 . S
C306 C307 1.457 . S
C306 H311 0.929 . S
C307 C306 1.457 . S
C307 C308 1.291 . S
C307 H320 0.931 . S
C308 C307 1.291 . S
C308 C309 1.373 . S
C308 H321 0.929 . S
C309 C308 1.373 . S
C309 C310 1.396 . S
C309 C316 1.403 . S
C310 C300 1.476 . S
C310 N305 1.318 . S
C310 C309 1.396 . S
H311 C306 0.929 . S
O312 Mn288 2.385 . S
O312 C290 1.234 . S
O313 Mn288 2.209 . S
O313 Mn289 2.215 . S
O313 C290 1.283 . S
O314 Mn288 2.094 . S
O314 C292 1.240 . S
O315 Mn289 2.117 . S
O315 C292 1.264 . S
C316 C309 1.403 . S
C316 C317 1.399 . S
C316 H322 0.929 . S
C317 C297 1.449 . S
C317 C316 1.399 . S
C317 H323 0.930 . S
H318 C298 0.931 . S
H319 C299 0.930 . S
H320 C307 0.931 . S
H321 C308 0.929 . S
H322 C316 0.929 . S
H323 C317 0.930 . S
Mn324 O329 2.095 . S
Mn324 O339 2.162 . S
Mn324 O340 2.297 . S
Mn324 O348 2.385 . S
Mn324 O349 2.209 . S
Mn324 O350 2.094 . S
Mn325 O330 2.121 . S
Mn325 N332 2.257 . S
Mn325 N341 2.282 . S
Mn325 O349 2.215 . S
Mn325 O351 2.117 . S
C326 O348 1.234 . S
C326 O349 1.283 . S
C327 O339 1.281 . S
C327 O340 1.236 . S
C328 O350 1.240 . S
C328 O351 1.264 . S
O329 Mn324 2.095 . S
O329 C338 1.250 . S
O330 Mn325 2.121 . S
O330 C338 1.258 . S
C331 N332 1.326 . S
C331 C335 1.460 . S
C331 H337 0.929 . S
N332 Mn325 2.257 . S
N332 C331 1.326 . S
N332 C336 1.362 . S
C333 C334 1.258 . S
C333 C336 1.431 . S
C333 C353 1.449 . S
C334 C333 1.258 . S
C334 C335 1.477 . S
C334 H354 0.931 . S
C335 C331 1.460 . S
C335 C334 1.477 . S
C335 H355 0.930 . S
C336 N332 1.362 . S
C336 C333 1.431 . S
C336 C346 1.476 . S
H337 C331 0.929 . S
C338 O329 1.250 . S
C338 O330 1.258 . S
O339 Mn324 2.162 . S
O339 C327 1.281 . S
O340 Mn324 2.297 . S
O340 C327 1.236 . S
N341 Mn325 2.282 . S
N341 C342 1.328 . S
N341 C346 1.318 . S
C342 N341 1.328 . S
C342 C343 1.457 . S
C342 H347 0.929 . S
C343 C342 1.457 . S
C343 C344 1.291 . S
C343 H356 0.931 . S
C344 C343 1.291 . S
C344 C345 1.373 . S
C344 H357 0.929 1_556 S
C345 C344 1.373 . S
C345 C346 1.396 . S
C345 C352 1.403 . S
C346 C336 1.476 . S
C346 N341 1.318 . S
C346 C345 1.396 . S
H347 C342 0.929 . S
O348 Mn324 2.385 . S
O348 C326 1.234 . S
O349 Mn324 2.209 . S
O349 Mn325 2.215 . S
O349 C326 1.283 . S
O350 Mn324 2.094 . S
O350 C328 1.240 . S
O351 Mn325 2.117 . S
O351 C328 1.264 . S
C352 C345 1.403 . S
C352 C353 1.399 . S
C352 H358 0.929 1_556 S
C353 C333 1.449 . S
C353 C352 1.399 . S
C353 H359 0.930 . S
H354 C334 0.931 . S
H355 C335 0.930 . S
H356 C343 0.931 . S
H357 C344 0.929 1_554 S
H358 C352 0.929 1_554 S
H359 C353 0.930 . S
Mn360 O365 2.095 . S
Mn360 O375 2.162 . S
Mn360 O376 2.297 . S
Mn360 O384 2.385 . S
Mn360 O385 2.209 . S
Mn360 O386 2.094 . S
Mn361 O366 2.121 . S
Mn361 N368 2.257 . S
Mn361 N377 2.282 . S
Mn361 O385 2.215 . S
Mn361 O387 2.117 . S
C362 O384 1.234 . S
C362 O385 1.283 . S
C363 O375 1.281 . S
C363 O376 1.236 . S
C364 O386 1.240 . S
C364 O387 1.264 . S
O365 Mn360 2.095 . S
O365 C374 1.250 . S
O366 Mn361 2.121 . S
O366 C374 1.258 . S
C367 N368 1.326 . S
C367 C371 1.460 . S
C367 H373 0.929 . S
N368 Mn361 2.257 . S
N368 C367 1.326 . S
N368 C372 1.362 . S
C369 C370 1.258 . S
C369 C372 1.431 . S
C369 C389 1.449 . S
C370 C369 1.258 . S
C370 C371 1.477 . S
C370 H390 0.931 . S
C371 C367 1.460 . S
C371 C370 1.477 . S
C371 H391 0.930 . S
C372 N368 1.362 . S
C372 C369 1.431 . S
C372 C382 1.476 . S
H373 C367 0.929 . S
C374 O365 1.250 . S
C374 O366 1.258 . S
O375 Mn360 2.162 . S
O375 C363 1.281 . S
O376 Mn360 2.297 . S
O376 C363 1.236 . S
N377 Mn361 2.282 . S
N377 C378 1.328 . S
N377 C382 1.318 . S
C378 N377 1.328 . S
C378 C379 1.457 . S
C378 H383 0.929 . S
C379 C378 1.457 . S
C379 C380 1.291 . S
C379 H392 0.931 . S
C380 C379 1.291 . S
C380 C381 1.373 . S
C380 H393 0.929 . S
C381 C380 1.373 . S
C381 C382 1.396 . S
C381 C388 1.403 . S
C382 C372 1.476 . S
C382 N377 1.318 . S
C382 C381 1.396 . S
H383 C378 0.929 . S
O384 Mn360 2.385 . S
O384 C362 1.234 . S
O385 Mn360 2.209 . S
O385 Mn361 2.215 . S
O385 C362 1.283 . S
O386 Mn360 2.094 . S
O386 C364 1.240 . S
O387 Mn361 2.117 . S
O387 C364 1.264 . S
C388 C381 1.403 . S
C388 C389 1.399 . S
C388 H394 0.929 . S
C389 C369 1.449 . S
C389 C388 1.399 . S
C389 H395 0.930 . S
H390 C370 0.931 . S
H391 C371 0.930 . S
H392 C379 0.931 . S
H393 C380 0.929 . S
H394 C388 0.929 . S
H395 C389 0.930 . S
Mn396 O401 2.095 . S
Mn396 O411 2.162 . S
Mn396 O412 2.297 . S
Mn396 O420 2.385 . S
Mn396 O421 2.209 . S
Mn396 O422 2.094 . S
Mn397 O402 2.121 . S
Mn397 N404 2.257 . S
Mn397 N413 2.282 . S
Mn397 O421 2.215 . S
Mn397 O423 2.117 . S
C398 O420 1.234 . S
C398 O421 1.283 . S
C399 O411 1.281 . S
C399 O412 1.236 . S
C400 O422 1.240 . S
C400 O423 1.264 . S
O401 Mn396 2.095 . S
O401 C410 1.250 . S
O402 Mn397 2.121 . S
O402 C410 1.258 . S
C403 N404 1.326 . S
C403 C407 1.460 . S
C403 H409 0.929 . S
N404 Mn397 2.257 . S
N404 C403 1.326 . S
N404 C408 1.362 . S
C405 C406 1.258 . S
C405 C408 1.431 . S
C405 C425 1.449 . S
C406 C405 1.258 . S
C406 C407 1.477 . S
C406 H426 0.931 . S
C407 C403 1.460 . S
C407 C406 1.477 . S
C407 H427 0.930 . S
C408 N404 1.362 . S
C408 C405 1.431 . S
C408 C418 1.476 . S
H409 C403 0.929 . S
C410 O401 1.250 . S
C410 O402 1.258 . S
O411 Mn396 2.162 . S
O411 C399 1.281 . S
O412 Mn396 2.297 . S
O412 C399 1.236 . S
N413 Mn397 2.282 . S
N413 C414 1.328 . S
N413 C418 1.318 . S
C414 N413 1.328 . S
C414 C415 1.457 . S
C414 H419 0.929 . S
C415 C414 1.457 . S
C415 C416 1.291 . S
C415 H428 0.931 . S
C416 C415 1.291 . S
C416 C417 1.373 . S
C416 H429 0.929 . S
C417 C416 1.373 . S
C417 C418 1.396 . S
C417 C424 1.403 . S
C418 C408 1.476 . S
C418 N413 1.318 . S
C418 C417 1.396 . S
H419 C414 0.929 . S
O420 Mn396 2.385 . S
O420 C398 1.234 . S
O421 Mn396 2.209 . S
O421 Mn397 2.215 . S
O421 C398 1.283 . S
O422 Mn396 2.094 . S
O422 C400 1.240 . S
O423 Mn397 2.117 . S
O423 C400 1.264 . S
C424 C417 1.403 . S
C424 C425 1.399 . S
C424 H430 0.929 . S
C425 C405 1.449 . S
C425 C424 1.399 . S
C425 H431 0.930 . S
H426 C406 0.931 . S
H427 C407 0.930 . S
H428 C415 0.931 . S
H429 C416 0.929 . S
H430 C424 0.929 . S
H431 C425 0.930 . S
Mn432 O437 2.095 . S
Mn432 O447 2.162 . S
Mn432 O448 2.297 . S
Mn432 O456 2.385 . S
Mn432 O457 2.209 . S
Mn432 O458 2.094 . S
Mn433 O438 2.121 . S
Mn433 N440 2.257 . S
Mn433 N449 2.282 . S
Mn433 O457 2.215 . S
Mn433 O459 2.117 . S
C434 O456 1.234 . S
C434 O457 1.283 . S
C435 O447 1.281 . S
C435 O448 1.236 . S
C436 O458 1.240 . S
C436 O459 1.264 . S
O437 Mn432 2.095 . S
O437 C446 1.250 . S
O438 Mn433 2.121 . S
O438 C446 1.258 . S
C439 N440 1.326 . S
C439 C443 1.460 . S
C439 H445 0.929 . S
N440 Mn433 2.257 . S
N440 C439 1.326 . S
N440 C444 1.362 . S
C441 C442 1.258 . S
C441 C444 1.431 . S
C441 C461 1.449 . S
C442 C441 1.258 . S
C442 C443 1.477 . S
C442 H462 0.931 . S
C443 C439 1.460 . S
C443 C442 1.477 . S
C443 H463 0.930 . S
C444 N440 1.362 . S
C444 C441 1.431 . S
C444 C454 1.476 . S
H445 C439 0.929 . S
C446 O437 1.250 . S
C446 O438 1.258 . S
O447 Mn432 2.162 . S
O447 C435 1.281 . S
O448 Mn432 2.297 . S
O448 C435 1.236 . S
N449 Mn433 2.282 . S
N449 C450 1.328 . S
N449 C454 1.318 . S
C450 N449 1.328 . S
C450 C451 1.457 . S
C450 H455 0.929 . S
C451 C450 1.457 . S
C451 C452 1.291 . S
C451 H464 0.931 . S
C452 C451 1.291 . S
C452 C453 1.373 . S
C452 H465 0.929 . S
C453 C452 1.373 . S
C453 C454 1.396 . S
C453 C460 1.403 . S
C454 C444 1.476 . S
C454 N449 1.318 . S
C454 C453 1.396 . S
H455 C450 0.929 . S
O456 Mn432 2.385 . S
O456 C434 1.234 . S
O457 Mn432 2.209 . S
O457 Mn433 2.215 . S
O457 C434 1.283 . S
O458 Mn432 2.094 . S
O458 C436 1.240 . S
O459 Mn433 2.117 . S
O459 C436 1.264 . S
C460 C453 1.403 . S
C460 C461 1.399 . S
C460 H466 0.929 . S
C461 C441 1.449 . S
C461 C460 1.399 . S
C461 H467 0.930 . S
H462 C442 0.931 . S
H463 C443 0.930 . S
H464 C451 0.931 . S
H465 C452 0.929 . S
H466 C460 0.929 . S
H467 C461 0.930 . S
Mn468 O473 2.095 . S
Mn468 O483 2.162 . S
Mn468 O484 2.297 . S
Mn468 O492 2.385 . S
Mn468 O493 2.209 . S
Mn468 O494 2.094 . S
Mn469 O474 2.121 . S
Mn469 N476 2.257 . S
Mn469 N485 2.282 . S
Mn469 O493 2.215 . S
Mn469 O495 2.117 . S
C470 O492 1.234 . S
C470 O493 1.283 . S
C471 O483 1.281 . S
C471 O484 1.236 . S
C472 O494 1.240 . S
C472 O495 1.264 . S
O473 Mn468 2.095 . S
O473 C482 1.250 . S
O474 Mn469 2.121 . S
O474 C482 1.258 . S
C475 N476 1.326 . S
C475 C479 1.460 . S
C475 H481 0.929 . S
N476 Mn469 2.257 . S
N476 C475 1.326 . S
N476 C480 1.362 . S
C477 C478 1.258 . S
C477 C480 1.431 . S
C477 C497 1.449 . S
C478 C477 1.258 . S
C478 C479 1.477 . S
C478 H498 0.931 . S
C479 C475 1.460 . S
C479 C478 1.477 . S
C479 H499 0.930 . S
C480 N476 1.362 . S
C480 C477 1.431 . S
C480 C490 1.476 . S
H481 C475 0.929 . S
C482 O473 1.250 . S
C482 O474 1.258 . S
O483 Mn468 2.162 . S
O483 C471 1.281 . S
O484 Mn468 2.297 . S
O484 C471 1.236 . S
N485 Mn469 2.282 . S
N485 C486 1.328 . S
N485 C490 1.318 . S
C486 N485 1.328 . S
C486 C487 1.457 . S
C486 H491 0.929 . S
C487 C486 1.457 . S
C487 C488 1.291 . S
C487 H500 0.931 . S
C488 C487 1.291 . S
C488 C489 1.373 . S
C488 H501 0.929 . S
C489 C488 1.373 . S
C489 C490 1.396 . S
C489 C496 1.403 . S
C490 C480 1.476 . S
C490 N485 1.318 . S
C490 C489 1.396 . S
H491 C486 0.929 . S
O492 Mn468 2.385 . S
O492 C470 1.234 . S
O493 Mn468 2.209 . S
O493 Mn469 2.215 . S
O493 C470 1.283 . S
O494 Mn468 2.094 . S
O494 C472 1.240 . S
O495 Mn469 2.117 . S
O495 C472 1.264 . S
C496 C489 1.403 . S
C496 C497 1.399 . S
C496 H502 0.929 . S
C497 C477 1.449 . S
C497 C496 1.399 . S
C497 H503 0.930 . S
H498 C478 0.931 . S
H499 C479 0.930 . S
H500 C487 0.931 . S
H501 C488 0.929 . S
H502 C496 0.929 . S
H503 C497 0.930 . S
Mn504 O509 2.095 . S
Mn504 O519 2.162 . S
Mn504 O520 2.297 . S
Mn504 O528 2.385 . S
Mn504 O529 2.209 . S
Mn504 O530 2.094 . S
Mn505 O510 2.121 . S
Mn505 N512 2.257 . S
Mn505 N521 2.282 . S
Mn505 O529 2.215 . S
Mn505 O531 2.117 . S
C506 O528 1.234 . S
C506 O529 1.283 . S
C507 O519 1.281 . S
C507 O520 1.236 . S
C508 O530 1.240 . S
C508 O531 1.264 . S
O509 Mn504 2.095 . S
O509 C518 1.250 . S
O510 Mn505 2.121 . S
O510 C518 1.258 . S
C511 N512 1.326 . S
C511 C515 1.460 . S
C511 H517 0.929 . S
N512 Mn505 2.257 . S
N512 C511 1.326 . S
N512 C516 1.362 . S
C513 C514 1.258 . S
C513 C516 1.431 . S
C513 C533 1.449 . S
C514 C513 1.258 . S
C514 C515 1.477 . S
C514 H534 0.931 . S
C515 C511 1.460 . S
C515 C514 1.477 . S
C515 H535 0.930 . S
C516 N512 1.362 . S
C516 C513 1.431 . S
C516 C526 1.476 . S
H517 C511 0.929 . S
C518 O509 1.250 . S
C518 O510 1.258 . S
O519 Mn504 2.162 . S
O519 C507 1.281 . S
O520 Mn504 2.297 . S
O520 C507 1.236 . S
N521 Mn505 2.282 . S
N521 C522 1.328 . S
N521 C526 1.318 . S
C522 N521 1.328 . S
C522 C523 1.457 . S
C522 H527 0.929 . S
C523 C522 1.457 . S
C523 C524 1.291 . S
C523 H536 0.931 . S
C524 C523 1.291 . S
C524 C525 1.373 . S
C524 H537 0.929 1_554 S
C525 C524 1.373 . S
C525 C526 1.396 . S
C525 C532 1.403 . S
C526 C516 1.476 . S
C526 N521 1.318 . S
C526 C525 1.396 . S
H527 C522 0.929 . S
O528 Mn504 2.385 . S
O528 C506 1.234 . S
O529 Mn504 2.209 . S
O529 Mn505 2.215 . S
O529 C506 1.283 . S
O530 Mn504 2.094 . S
O530 C508 1.240 . S
O531 Mn505 2.117 . S
O531 C508 1.264 . S
C532 C525 1.403 . S
C532 C533 1.399 . S
C532 H538 0.929 1_554 S
C533 C513 1.449 . S
C533 C532 1.399 . S
C533 H539 0.930 . S
H534 C514 0.931 . S
H535 C515 0.930 . S
H536 C523 0.931 . S
H537 C524 0.929 1_556 S
H538 C532 0.929 1_556 S
H539 C533 0.930 . S
Mn540 O545 2.095 . S
Mn540 O555 2.162 . S
Mn540 O556 2.297 . S
Mn540 O564 2.385 . S
Mn540 O565 2.209 . S
Mn540 O566 2.094 . S
Mn541 O546 2.121 . S
Mn541 N548 2.257 . S
Mn541 N557 2.282 . S
Mn541 O565 2.215 . S
Mn541 O567 2.117 . S
C542 O564 1.234 . S
C542 O565 1.283 . S
C543 O555 1.281 . S
C543 O556 1.236 . S
C544 O566 1.240 . S
C544 O567 1.264 . S
O545 Mn540 2.095 . S
O545 C554 1.250 . S
O546 Mn541 2.121 . S
O546 C554 1.258 . S
C547 N548 1.326 . S
C547 C551 1.460 . S
C547 H553 0.929 . S
N548 Mn541 2.257 . S
N548 C547 1.326 . S
N548 C552 1.362 . S
C549 C550 1.258 . S
C549 C552 1.431 . S
C549 C569 1.449 . S
C550 C549 1.258 . S
C550 C551 1.477 . S
C550 H570 0.931 . S
C551 C547 1.460 . S
C551 C550 1.477 . S
C551 H571 0.930 . S
C552 N548 1.362 . S
C552 C549 1.431 . S
C552 C562 1.476 . S
H553 C547 0.929 . S
C554 O545 1.250 . S
C554 O546 1.258 . S
O555 Mn540 2.162 . S
O555 C543 1.281 . S
O556 Mn540 2.297 . S
O556 C543 1.236 . S
N557 Mn541 2.282 . S
N557 C558 1.328 . S
N557 C562 1.318 . S
C558 N557 1.328 . S
C558 C559 1.457 . S
C558 H563 0.929 . S
C559 C558 1.457 . S
C559 C560 1.291 . S
C559 H572 0.931 . S
C560 C559 1.291 . S
C560 C561 1.373 . S
C560 H573 0.929 . S
C561 C560 1.373 . S
C561 C562 1.396 . S
C561 C568 1.403 . S
C562 C552 1.476 . S
C562 N557 1.318 . S
C562 C561 1.396 . S
H563 C558 0.929 . S
O564 Mn540 2.385 . S
O564 C542 1.234 . S
O565 Mn540 2.209 . S
O565 Mn541 2.215 . S
O565 C542 1.283 . S
O566 Mn540 2.094 . S
O566 C544 1.240 . S
O567 Mn541 2.117 . S
O567 C544 1.264 . S
C568 C561 1.403 . S
C568 C569 1.399 . S
C568 H574 0.929 . S
C569 C549 1.449 . S
C569 C568 1.399 . S
C569 H575 0.930 . S
H570 C550 0.931 . S
H571 C551 0.930 . S
H572 C559 0.931 . S
H573 C560 0.929 . S
H574 C568 0.929 . S
H575 C569 0.930 . S
H576 C582 0.930 . S
H577 C585 0.930 . S
H578 C586 0.930 . S
H579 C587 0.930 . S
H580 C590 0.930 . S
H581 C591 0.930 . S
C582 H576 0.930 . S
C582 C583 1.355 . S
C582 C584 1.415 . S
C583 C582 1.355 . S
C583 C585 1.419 . S
C584 C582 1.415 . S
C584 C589 1.425 . S
C584 C591 1.409 . S
C585 H577 0.930 . S
C585 C583 1.419 . S
C585 C586 1.362 . S
C586 H578 0.930 . S
C586 C585 1.362 . S
C586 C589 1.409 . S
C587 H579 0.930 . S
C587 C588 1.355 . S
C587 C589 1.415 . S
C588 C587 1.355 . S
C588 C590 1.419 . S
C589 C584 1.425 . S
C589 C586 1.409 . S
C589 C587 1.415 . S
C590 H580 0.930 . S
C590 C588 1.419 . S
C590 C591 1.362 . S
C591 H581 0.930 . S
C591 C584 1.409 . S
C591 C590 1.362 . S
H592 C598 0.930 . S
H593 C601 0.930 . S
H594 C602 0.930 . S
H595 C603 0.930 . S
H596 C606 0.930 . S
H597 C607 0.930 . S
C598 H592 0.930 . S
C598 C599 1.355 . S
C598 C600 1.415 . S
C599 C598 1.355 . S
C599 C601 1.419 . S
C600 C598 1.415 . S
C600 C605 1.425 . S
C600 C607 1.409 . S
C601 H593 0.930 . S
C601 C599 1.419 . S
C601 C602 1.362 . S
C602 H594 0.930 . S
C602 C601 1.362 . S
C602 C605 1.409 . S
C603 H595 0.930 . S
C603 C604 1.355 . S
C603 C605 1.415 . S
C604 C603 1.355 . S
C604 C606 1.419 . S
C605 C600 1.425 . S
C605 C602 1.409 . S
C605 C603 1.415 . S
C606 H596 0.930 . S
C606 C604 1.419 . S
C606 C607 1.362 . S
C607 H597 0.930 . S
C607 C600 1.409 . S
C607 C606 1.362 . S
H608 C614 0.930 . S
H609 C617 0.930 . S
H610 C618 0.930 . S
H611 C619 0.930 . S
H612 C622 0.930 . S
H613 C623 0.930 . S
C614 H608 0.930 . S
C614 C615 1.355 . S
C614 C616 1.415 . S
C615 C614 1.355 . S
C615 C617 1.419 . S
C616 C614 1.415 . S
C616 C621 1.425 . S
C616 C623 1.409 . S
C617 H609 0.930 . S
C617 C615 1.419 . S
C617 C618 1.362 . S
C618 H610 0.930 . S
C618 C617 1.362 . S
C618 C621 1.409 . S
C619 H611 0.930 . S
C619 C620 1.355 . S
C619 C621 1.415 . S
C620 C619 1.355 . S
C620 C622 1.419 . S
C621 C616 1.425 . S
C621 C618 1.409 . S
C621 C619 1.415 . S
C622 H612 0.930 . S
C622 C620 1.419 . S
C622 C623 1.362 . S
C623 H613 0.930 . S
C623 C616 1.409 . S
C623 C622 1.362 . S
H624 C630 0.930 . S
H625 C633 0.930 . S
H626 C634 0.930 . S
H627 C635 0.930 . S
H628 C638 0.930 . S
H629 C639 0.930 . S
C630 H624 0.930 . S
C630 C631 1.355 . S
C630 C632 1.415 . S
C631 C630 1.355 . S
C631 C633 1.419 . S
C632 C630 1.415 . S
C632 C637 1.425 . S
C632 C639 1.409 . S
C633 H625 0.930 . S
C633 C631 1.419 . S
C633 C634 1.362 . S
C634 H626 0.930 . S
C634 C633 1.362 . S
C634 C637 1.409 . S
C635 H627 0.930 . S
C635 C636 1.355 . S
C635 C637 1.415 . S
C636 C635 1.355 . S
C636 C638 1.419 . S
C637 C632 1.425 . S
C637 C634 1.409 . S
C637 C635 1.415 . S
C638 H628 0.930 . S
C638 C636 1.419 . S
C638 C639 1.362 . S
C639 H629 0.930 . S
C639 C632 1.409 . S
C639 C638 1.362 . S
H640 C646 0.930 . S
H641 C649 0.930 . S
H642 C650 0.930 . S
H643 C651 0.930 . S
H644 C654 0.930 . S
H645 C655 0.930 . S
C646 H640 0.930 . S
C646 C647 1.355 . S
C646 C648 1.415 . S
C647 C646 1.355 . S
C647 C649 1.419 . S
C648 C646 1.415 . S
C648 C653 1.425 . S
C648 C655 1.409 . S
C649 H641 0.930 . S
C649 C647 1.419 . S
C649 C650 1.362 . S
C650 H642 0.930 . S
C650 C649 1.362 . S
C650 C653 1.409 . S
C651 H643 0.930 . S
C651 C652 1.355 . S
C651 C653 1.415 . S
C652 C651 1.355 . S
C652 C654 1.419 . S
C653 C648 1.425 . S
C653 C650 1.409 . S
C653 C651 1.415 . S
C654 H644 0.930 . S
C654 C652 1.419 . S
C654 C655 1.362 . S
C655 H645 0.930 . S
C655 C648 1.409 . S
C655 C654 1.362 . S
H656 C662 0.930 . S
H657 C665 0.930 . S
H658 C666 0.930 . S
H659 C667 0.930 . S
H660 C670 0.930 . S
H661 C671 0.930 . S
C662 H656 0.930 . S
C662 C663 1.355 . S
C662 C664 1.415 . S
C663 C662 1.355 . S
C663 C665 1.419 . S
C664 C662 1.415 . S
C664 C669 1.425 . S
C664 C671 1.409 . S
C665 H657 0.930 . S
C665 C663 1.419 . S
C665 C666 1.362 . S
C666 H658 0.930 . S
C666 C665 1.362 . S
C666 C669 1.409 . S
C667 H659 0.930 . S
C667 C668 1.355 . S
C667 C669 1.415 . S
C668 C667 1.355 . S
C668 C670 1.419 . S
C669 C664 1.425 . S
C669 C666 1.409 . S
C669 C667 1.415 . S
C670 H660 0.930 . S
C670 C668 1.419 . S
C670 C671 1.362 . S
C671 H661 0.930 . S
C671 C664 1.409 . S
C671 C670 1.362 . S
H672 C678 0.930 . S
H673 C681 0.930 . S
H674 C682 0.930 . S
H675 C683 0.930 . S
H676 C686 0.930 . S
H677 C687 0.930 . S
C678 H672 0.930 . S
C678 C679 1.355 . S
C678 C680 1.415 . S
C679 C678 1.355 . S
C679 C681 1.419 . S
C680 C678 1.415 . S
C680 C685 1.425 . S
C680 C687 1.409 . S
C681 H673 0.930 . S
C681 C679 1.419 . S
C681 C682 1.362 . S
C682 H674 0.930 . S
C682 C681 1.362 . S
C682 C685 1.409 . S
C683 H675 0.930 . S
C683 C684 1.355 . S
C683 C685 1.415 . S
C684 C683 1.355 . S
C684 C686 1.419 . S
C685 C680 1.425 . S
C685 C682 1.409 . S
C685 C683 1.415 . S
C686 H676 0.930 . S
C686 C684 1.419 . S
C686 C687 1.362 . S
C687 H677 0.930 . S
C687 C680 1.409 . S
C687 C686 1.362 . S
H688 C694 0.930 . S
H689 C697 0.930 . S
H690 C698 0.930 . S
H691 C699 0.930 . S
H692 C702 0.930 . S
H693 C703 0.930 . S
C694 H688 0.930 . S
C694 C695 1.355 . S
C694 C696 1.415 . S
C695 C694 1.355 . S
C695 C697 1.419 . S
C696 C694 1.415 . S
C696 C701 1.425 . S
C696 C703 1.409 . S
C697 H689 0.930 . S
C697 C695 1.419 . S
C697 C698 1.362 . S
C698 H690 0.930 . S
C698 C697 1.362 . S
C698 C701 1.409 . S
C699 H691 0.930 . S
C699 C700 1.355 . S
C699 C701 1.415 . S
C700 C699 1.355 . S
C700 C702 1.419 . S
C701 C696 1.425 . S
C701 C698 1.409 . S
C701 C699 1.415 . S
C702 H692 0.930 . S
C702 C700 1.419 . S
C702 C703 1.362 . S
C703 H693 0.930 . S
C703 C696 1.409 . S
C703 C702 1.362 . S
H704 C710 0.930 . S
H705 C713 0.930 . S
H706 C714 0.930 . S
H707 C715 0.930 . S
H708 C718 0.930 . S
H709 C719 0.930 . S
C710 H704 0.930 . S
C710 C711 1.355 . S
C710 C712 1.415 . S
C711 C710 1.355 . S
C711 C713 1.419 . S
C712 C710 1.415 . S
C712 C717 1.425 . S
C712 C719 1.409 . S
C713 H705 0.930 . S
C713 C711 1.419 . S
C713 C714 1.362 . S
C714 H706 0.930 . S
C714 C713 1.362 . S
C714 C717 1.409 . S
C715 H707 0.930 . S
C715 C716 1.355 . S
C715 C717 1.415 . S
C716 C715 1.355 . S
C716 C718 1.419 . S
C717 C712 1.425 . S
C717 C714 1.409 . S
C717 C715 1.415 . S
C718 H708 0.930 . S
C718 C716 1.419 . S
C718 C719 1.362 . S
C719 H709 0.930 . S
C719 C712 1.409 . S
C719 C718 1.362 . S
H720 C726 0.930 . S
H721 C729 0.930 . S
H722 C730 0.930 . S
H723 C731 0.930 . S
H724 C734 0.930 . S
H725 C735 0.930 . S
C726 H720 0.930 . S
C726 C727 1.355 . S
C726 C728 1.415 . S
C727 C726 1.355 . S
C727 C729 1.419 . S
C728 C726 1.415 . S
C728 C733 1.425 . S
C728 C735 1.409 . S
C729 H721 0.930 . S
C729 C727 1.419 . S
C729 C730 1.362 . S
C730 H722 0.930 . S
C730 C729 1.362 . S
C730 C733 1.409 . S
C731 H723 0.930 . S
C731 C732 1.355 . S
C731 C733 1.415 . S
C732 C731 1.355 . S
C732 C734 1.419 . S
C733 C728 1.425 . S
C733 C730 1.409 . S
C733 C731 1.415 . S
C734 H724 0.930 . S
C734 C732 1.419 . S
C734 C735 1.362 . S
C735 H725 0.930 . S
C735 C728 1.409 . S
C735 C734 1.362 . S
H736 C742 0.930 . S
H737 C745 0.930 . S
H738 C746 0.930 . S
H739 C747 0.930 . S
H740 C750 0.930 . S
H741 C751 0.930 . S
C742 H736 0.930 . S
C742 C743 1.355 . S
C742 C744 1.415 . S
C743 C742 1.355 . S
C743 C745 1.419 . S
C744 C742 1.415 . S
C744 C749 1.425 . S
C744 C751 1.409 . S
C745 H737 0.930 . S
C745 C743 1.419 . S
C745 C746 1.362 . S
C746 H738 0.930 . S
C746 C745 1.362 . S
C746 C749 1.409 . S
C747 H739 0.930 . S
C747 C748 1.355 . S
C747 C749 1.415 . S
C748 C747 1.355 . S
C748 C750 1.419 . S
C749 C744 1.425 . S
C749 C746 1.409 . S
C749 C747 1.415 . S
C750 H740 0.930 . S
C750 C748 1.419 . S
C750 C751 1.362 . S
C751 H741 0.930 . S
C751 C744 1.409 . S
C751 C750 1.362 . S
H752 C758 0.930 . S
H753 C761 0.930 . S
H754 C762 0.966 . S
H755 C763 0.930 . S
H756 C766 0.930 . S
H757 C767 0.965 . S
C758 H752 0.930 . S
C758 C759 1.355 . S
C758 C760 1.415 . S
C759 C758 1.355 . S
C759 C761 1.419 . S
C760 C758 1.415 . S
C760 C765 1.425 1_554 S
C760 C767 1.409 1_554 S
C761 H753 0.930 . S
C761 C759 1.419 . S
C761 C762 1.362 . S
C762 H754 0.966 . S
C762 C761 1.362 . S
C762 C765 1.409 1_554 S
C763 H755 0.930 . S
C763 C764 1.355 . S
C763 C765 1.415 . S
C764 C763 1.355 . S
C764 C766 1.419 . S
C765 C760 1.425 1_556 S
C765 C762 1.409 1_556 S
C765 C763 1.415 . S
C766 H756 0.930 . S
C766 C764 1.419 . S
C766 C767 1.362 . S
C767 H757 0.965 . S
C767 C760 1.409 1_556 S
C767 C766 1.362 . S
H768 C774 0.930 . S
H769 C777 0.930 . S
H770 C778 0.930 . S
H771 C779 0.930 . S
H772 C782 0.930 . S
H773 C783 0.930 . S
C774 H768 0.930 . S
C774 C775 1.355 . S
C774 C776 1.419 1_554 S
C775 C774 1.355 . S
C775 C777 1.419 . S
C776 C774 1.419 1_556 S
C776 C781 1.425 1_556 S
C776 C783 1.405 . S
C777 H769 0.930 . S
C777 C775 1.419 . S
C777 C778 1.362 . S
C778 H770 0.930 . S
C778 C777 1.362 . S
C778 C781 1.404 . S
C779 H771 0.930 . S
C779 C780 1.355 . S
C779 C781 1.419 1_556 S
C780 C779 1.355 . S
C780 C782 1.419 . S
C781 C776 1.425 1_554 S
C781 C778 1.404 . S
C781 C779 1.419 1_554 S
C782 H772 0.930 . S
C782 C780 1.419 . S
C782 C783 1.362 . S
C783 H773 0.930 . S
C783 C776 1.405 . S
C783 C782 1.362 . S
H784 C790 0.930 . S
H785 C793 0.930 . S
H786 C794 0.930 . S
H787 C795 0.930 . S
H788 C798 0.930 . S
H789 C799 0.930 . S
C790 H784 0.930 . S
C790 C791 1.355 . S
C790 C792 1.415 . S
C791 C790 1.355 . S
C791 C793 1.419 . S
C792 C790 1.415 . S
C792 C797 1.425 . S
C792 C799 1.409 . S
C793 H785 0.930 . S
C793 C791 1.419 . S
C793 C794 1.362 . S
C794 H786 0.930 . S
C794 C793 1.362 . S
C794 C797 1.409 . S
C795 H787 0.930 . S
C795 C796 1.355 . S
C795 C797 1.415 . S
C796 C795 1.355 . S
C796 C798 1.419 . S
C797 C792 1.425 . S
C797 C794 1.409 . S
C797 C795 1.415 . S
C798 H788 0.930 . S
C798 C796 1.419 . S
C798 C799 1.362 . S
C799 H789 0.930 . S
C799 C792 1.409 . S
C799 C798 1.362 . S
H800 C806 0.930 . S
H801 C809 0.930 . S
H802 C810 0.930 . S
H803 C811 0.930 . S
H804 C814 0.930 . S
H805 C815 0.930 . S
C806 H800 0.930 . S
C806 C807 1.355 . S
C806 C808 1.415 . S
C807 C806 1.355 . S
C807 C809 1.419 . S
C808 C806 1.415 . S
C808 C813 1.425 . S
C808 C815 1.409 . S
C809 H801 0.930 . S
C809 C807 1.419 . S
C809 C810 1.362 . S
C810 H802 0.930 . S
C810 C809 1.362 . S
C810 C813 1.409 . S
C811 H803 0.930 . S
C811 C812 1.355 . S
C811 C813 1.415 . S
C812 C811 1.355 . S
C812 C814 1.419 . S
C813 C808 1.425 . S
C813 C810 1.409 . S
C813 C811 1.415 . S
C814 H804 0.930 . S
C814 C812 1.419 . S
C814 C815 1.362 . S
C815 H805 0.930 . S
C815 C808 1.409 . S
C815 C814 1.362 . S
H816 C822 0.930 . S
H817 C825 0.930 . S
H818 C826 0.930 . S
H819 C827 0.930 . S
H820 C830 0.930 . S
H821 C831 0.930 . S
C822 H816 0.930 . S
C822 C823 1.355 . S
C822 C824 1.415 . S
C823 C822 1.355 . S
C823 C825 1.419 . S
C824 C822 1.415 . S
C824 C829 1.425 . S
C824 C831 1.409 . S
C825 H817 0.930 . S
C825 C823 1.419 . S
C825 C826 1.362 . S
C826 H818 0.930 . S
C826 C825 1.362 . S
C826 C829 1.409 . S
C827 H819 0.930 . S
C827 C828 1.355 . S
C827 C829 1.415 . S
C828 C827 1.355 . S
C828 C830 1.419 . S
C829 C824 1.425 . S
C829 C826 1.409 . S
C829 C827 1.415 . S
C830 H820 0.930 . S
C830 C828 1.419 . S
C830 C831 1.362 . S
C831 H821 0.930 . S
C831 C824 1.409 . S
C831 C830 1.362 . S
H832 C838 0.930 . S
H833 C841 0.930 . S
H834 C842 0.930 1_655 S
H835 C843 0.930 . S
H836 C846 0.930 . S
H837 C847 0.930 1_455 S
C838 H832 0.930 . S
C838 C839 1.355 . S
C838 C840 1.415 1_545 S
C839 C838 1.355 . S
C839 C841 1.419 . S
C840 C838 1.415 1_565 S
C840 C845 1.425 1_465 S
C840 C847 1.409 1_455 S
C841 H833 0.930 . S
C841 C839 1.419 . S
C841 C842 1.362 . S
C842 H834 0.930 1_455 S
C842 C841 1.362 . S
C842 C845 1.409 1_455 S
C843 H835 0.930 . S
C843 C844 1.355 . S
C843 C845 1.415 1_565 S
C844 C843 1.355 . S
C844 C846 1.419 . S
C845 C840 1.425 1_645 S
C845 C842 1.409 1_655 S
C845 C843 1.415 1_545 S
C846 H836 0.930 . S
C846 C844 1.419 . S
C846 C847 1.362 . S
C847 H837 0.930 1_655 S
C847 C840 1.409 1_655 S
C847 C846 1.362 . S
H848 C854 0.930 . S
H849 C857 0.930 . S
H850 C858 0.930 . S
H851 C859 0.930 . S
H852 C862 0.930 . S
H853 C863 0.930 . S
C854 H848 0.930 . S
C854 C855 1.355 . S
C854 C856 1.415 . S
C855 C854 1.355 . S
C855 C857 1.419 1_455 S
C856 C854 1.415 . S
C856 C861 1.425 1_455 S
C856 C863 1.409 . S
C857 H849 0.930 . S
C857 C855 1.419 1_655 S
C857 C858 1.362 . S
C858 H850 0.930 . S
C858 C857 1.362 . S
C858 C861 1.409 . S
C859 H851 0.930 . S
C859 C860 1.355 . S
C859 C861 1.415 . S
C860 C859 1.355 . S
C860 C862 1.419 1_655 S
C861 C856 1.425 1_655 S
C861 C858 1.409 . S
C861 C859 1.415 . S
C862 H852 0.930 . S
C862 C860 1.419 1_455 S
C862 C863 1.362 . S
C863 H853 0.930 . S
C863 C856 1.409 . S
C863 C862 1.362 . S
H864 C870 0.930 . S
H865 C873 0.930 . S
H866 C874 0.930 . S
H867 C875 0.930 . S
H868 C878 0.930 . S
H869 C879 0.930 . S
C870 H864 0.930 . S
C870 C871 1.355 . S
C870 C872 1.415 . S
C871 C870 1.355 . S
C871 C873 1.419 . S
C872 C870 1.415 . S
C872 C877 1.425 . S
C872 C879 1.409 . S
C873 H865 0.930 . S
C873 C871 1.419 . S
C873 C874 1.362 . S
C874 H866 0.930 . S
C874 C873 1.362 . S
C874 C877 1.409 . S
C875 H867 0.930 . S
C875 C876 1.355 . S
C875 C877 1.415 . S
C876 C875 1.355 . S
C876 C878 1.419 . S
C877 C872 1.425 . S
C877 C874 1.409 . S
C877 C875 1.415 . S
C878 H868 0.930 . S
C878 C876 1.419 . S
C878 C879 1.362 . S
C879 H869 0.930 . S
C879 C872 1.409 . S
C879 C878 1.362 . S
H880 C886 0.930 . S
H881 C889 0.930 . S
H882 C890 0.930 . S
H883 C891 0.930 . S
H884 C894 0.930 . S
H885 C895 0.930 . S
C886 H880 0.930 . S
C886 C887 1.355 . S
C886 C888 1.415 . S
C887 C886 1.355 . S
C887 C889 1.419 . S
C888 C886 1.415 . S
C888 C893 1.425 1_545 S
C888 C895 1.409 . S
C889 H881 0.930 . S
C889 C887 1.419 . S
C889 C890 1.362 1_545 S
C890 H882 0.930 . S
C890 C889 1.362 1_565 S
C890 C893 1.409 . S
C891 H883 0.930 . S
C891 C892 1.355 . S
C891 C893 1.415 . S
C892 C891 1.355 . S
C892 C894 1.419 . S
C893 C888 1.425 1_565 S
C893 C890 1.409 . S
C893 C891 1.415 . S
C894 H884 0.930 . S
C894 C892 1.419 . S
C894 C895 1.362 1_565 S
C895 H885 0.930 . S
C895 C888 1.409 . S
C895 C894 1.362 1_545 S
H896 C902 0.930 . S
H897 C905 0.930 . S
H898 C906 0.930 . S
H899 C907 0.930 . S
H900 C910 0.930 . S
H901 C911 0.930 . S
C902 H896 0.930 . S
C902 C903 1.355 . S
C902 C904 1.415 . S
C903 C902 1.355 . S
C903 C905 1.419 . S
C904 C902 1.415 . S
C904 C909 1.425 1_455 S
C904 C911 1.409 1_455 S
C905 H897 0.930 . S
C905 C903 1.419 . S
C905 C906 1.362 . S
C906 H898 0.930 . S
C906 C905 1.362 . S
C906 C909 1.409 1_455 S
C907 H899 0.930 . S
C907 C908 1.355 . S
C907 C909 1.415 . S
C908 C907 1.355 . S
C908 C910 1.419 . S
C909 C904 1.425 1_655 S
C909 C906 1.409 1_655 S
C909 C907 1.415 . S
C910 H900 0.930 . S
C910 C908 1.419 . S
C910 C911 1.362 . S
C911 H901 0.930 . S
C911 C904 1.409 1_655 S
C911 C910 1.362 . S
H912 C918 0.930 . S
H913 C921 0.930 . S
H914 C922 0.930 . S
H915 C923 0.930 . S
H916 C926 0.930 . S
H917 C927 0.930 . S
C918 H912 0.930 . S
C918 C919 1.355 . S
C918 C920 1.415 . S
C919 C918 1.355 . S
C919 C921 1.419 . S
C920 C918 1.415 . S
C920 C925 1.425 . S
C920 C927 1.409 . S
C921 H913 0.930 . S
C921 C919 1.419 . S
C921 C922 1.362 . S
C922 H914 0.930 . S
C922 C921 1.362 . S
C922 C925 1.409 . S
C923 H915 0.930 . S
C923 C924 1.355 . S
C923 C925 1.415 . S
C924 C923 1.355 . S
C924 C926 1.419 . S
C925 C920 1.425 . S
C925 C922 1.409 . S
C925 C923 1.415 . S
C926 H916 0.930 . S
C926 C924 1.419 . S
C926 C927 1.362 . S
C927 H917 0.930 . S
C927 C920 1.409 . S
C927 C926 1.362 . S
H928 C934 0.930 . S
H929 C937 0.930 . S
H930 C938 0.930 . S
H931 C939 0.930 . S
H932 C942 0.930 . S
H933 C943 0.930 . S
C934 H928 0.930 . S
C934 C935 1.355 . S
C934 C936 1.415 . S
C935 C934 1.355 . S
C935 C937 1.419 . S
C936 C934 1.415 . S
C936 C941 1.425 1_565 S
C936 C943 1.409 1_565 S
C937 H929 0.930 . S
C937 C935 1.419 . S
C937 C938 1.362 . S
C938 H930 0.930 . S
C938 C937 1.362 . S
C938 C941 1.409 1_565 S
C939 H931 0.930 . S
C939 C940 1.355 . S
C939 C941 1.415 . S
C940 C939 1.355 . S
C940 C942 1.419 . S
C941 C936 1.425 1_545 S
C941 C938 1.409 1_545 S
C941 C939 1.415 . S
C942 H932 0.930 . S
C942 C940 1.419 . S
C942 C943 1.362 . S
C943 H933 0.930 . S
C943 C936 1.409 1_545 S
C943 C942 1.362 . S
H944 C950 0.930 . S
H945 C953 0.930 . S
H946 C954 0.930 . S
H947 C955 0.930 . S
H948 C958 0.930 . S
H949 C959 0.930 . S
C950 H944 0.930 . S
C950 C951 1.355 . S
C950 C952 1.415 1_545 S
C951 C950 1.355 . S
C951 C953 1.419 1_455 S
C952 C950 1.415 1_565 S
C952 C957 1.425 1_465 S
C952 C959 1.409 . S
C953 H945 0.930 . S
C953 C951 1.419 1_655 S
C953 C954 1.362 . S
C954 H946 0.930 . S
C954 C953 1.362 . S
C954 C957 1.409 . S
C955 H947 0.930 . S
C955 C956 1.355 . S
C955 C957 1.415 1_565 S
C956 C955 1.355 . S
C956 C958 1.419 1_655 S
C957 C952 1.425 1_645 S
C957 C954 1.409 . S
C957 C955 1.415 1_545 S
C958 H948 0.930 . S
C958 C956 1.419 1_455 S
C958 C959 1.362 . S
C959 H949 0.930 . S
C959 C952 1.409 . S
C959 C958 1.362 . S
H960 C966 0.930 . S
H961 C969 0.930 . S
H962 C970 0.930 . S
H963 C971 0.930 . S
H964 C974 0.930 . S
H965 C975 0.930 . S
C966 H960 0.930 . S
C966 C967 1.355 1_545 S
C966 C968 1.415 . S
C967 C966 1.355 1_565 S
C967 C969 1.419 . S
C968 C966 1.415 . S
C968 C973 1.425 1_545 S
C968 C975 1.409 . S
C969 H961 0.930 . S
C969 C967 1.419 . S
C969 C970 1.362 . S
C970 H962 0.930 . S
C970 C969 1.362 . S
C970 C973 1.409 . S
C971 H963 0.930 . S
C971 C972 1.355 1_565 S
C971 C973 1.415 . S
C972 C971 1.355 1_545 S
C972 C974 1.419 . S
C973 C968 1.425 1_565 S
C973 C970 1.409 . S
C973 C971 1.415 . S
C974 H964 0.930 . S
C974 C972 1.419 . S
C974 C975 1.362 . S
C975 H965 0.930 . S
C975 C968 1.409 . S
C975 C974 1.362 . S
H976 C982 0.930 . S
H977 C985 0.930 . S
H978 C986 0.930 . S
H979 C987 0.930 . S
H980 C990 0.930 . S
H981 C991 0.930 . S
C982 H976 0.930 . S
C982 C983 1.355 . S
C982 C984 1.415 . S
C983 C982 1.355 . S
C983 C985 1.419 . S
C984 C982 1.415 . S
C984 C989 1.425 1_665 S
C984 C991 1.409 1_665 S
C985 H977 0.930 . S
C985 C983 1.419 . S
C985 C986 1.362 . S
C986 H978 0.930 . S
C986 C985 1.362 . S
C986 C989 1.409 1_665 S
C987 H979 0.930 . S
C987 C988 1.355 . S
C987 C989 1.415 . S
C988 C987 1.355 . S
C988 C990 1.419 . S
C989 C984 1.425 1_445 S
C989 C986 1.409 1_445 S
C989 C987 1.415 . S
C990 H980 0.930 . S
C990 C988 1.419 . S
C990 C991 1.362 . S
C991 H981 0.930 . S
C991 C984 1.409 1_445 S
C991 C990 1.362 . S
H992 C998 0.930 . S
H993 C1001 0.930 . S
H994 C1002 0.930 . S
H995 C1003 0.930 . S
H996 C1006 0.930 . S
H997 C1007 0.930 . S
C998 H992 0.930 . S
C998 C999 1.355 . S
C998 C1000 1.415 1_455 S
C999 C998 1.355 . S
C999 C1001 1.419 . S
C1000 C998 1.415 1_655 S
C1000 C1005 1.425 1_655 S
C1000 C1007 1.409 . S
C1001 H993 0.930 . S
C1001 C999 1.419 . S
C1001 C1002 1.362 . S
C1002 H994 0.930 . S
C1002 C1001 1.362 . S
C1002 C1005 1.409 . S
C1003 H995 0.930 . S
C1003 C1004 1.355 . S
C1003 C1005 1.415 1_655 S
C1004 C1003 1.355 . S
C1004 C1006 1.419 . S
C1005 C1000 1.425 1_455 S
C1005 C1002 1.409 . S
C1005 C1003 1.415 1_455 S
C1006 H996 0.930 . S
C1006 C1004 1.419 . S
C1006 C1007 1.362 . S
C1007 H997 0.930 . S
C1007 C1000 1.409 . S
C1007 C1006 1.362 . S
H1008 C1014 0.930 . S
H1009 C1017 0.930 . S
H1010 C1018 0.930 . S
H1011 C1019 0.930 . S
H1012 C1022 0.930 . S
H1013 C1023 0.930 . S
C1014 H1008 0.930 . S
C1014 C1015 1.355 . S
C1014 C1016 1.415 . S
C1015 C1014 1.355 . S
C1015 C1017 1.419 . S
C1016 C1014 1.415 . S
C1016 C1021 1.425 . S
C1016 C1023 1.409 . S
C1017 H1009 0.930 . S
C1017 C1015 1.419 . S
C1017 C1018 1.362 . S
C1018 H1010 0.930 . S
C1018 C1017 1.362 . S
C1018 C1021 1.409 . S
C1019 H1011 0.930 . S
C1019 C1020 1.355 . S
C1019 C1021 1.415 . S
C1020 C1019 1.355 . S
C1020 C1022 1.419 . S
C1021 C1016 1.425 . S
C1021 C1018 1.409 . S
C1021 C1019 1.415 . S
C1022 H1012 0.930 . S
C1022 C1020 1.419 . S
C1022 C1023 1.362 . S
C1023 H1013 0.930 . S
C1023 C1016 1.409 . S
C1023 C1022 1.362 . S
H1024 C1030 0.930 . S
H1025 C1033 0.930 . S
H1026 C1034 0.930 . S
H1027 C1035 0.930 . S
H1028 C1038 0.930 . S
H1029 C1039 0.930 . S
C1030 H1024 0.930 . S
C1030 C1031 1.355 . S
C1030 C1032 1.415 . S
C1031 C1030 1.355 . S
C1031 C1033 1.419 . S
C1032 C1030 1.415 . S
C1032 C1037 1.425 . S
C1032 C1039 1.409 . S
C1033 H1025 0.930 . S
C1033 C1031 1.419 . S
C1033 C1034 1.362 . S
C1034 H1026 0.930 . S
C1034 C1033 1.362 . S
C1034 C1037 1.409 . S
C1035 H1027 0.930 . S
C1035 C1036 1.355 . S
C1035 C1037 1.415 . S
C1036 C1035 1.355 . S
C1036 C1038 1.419 . S
C1037 C1032 1.425 . S
C1037 C1034 1.409 . S
C1037 C1035 1.415 . S
C1038 H1028 0.930 . S
C1038 C1036 1.419 . S
C1038 C1039 1.362 . S
C1039 H1029 0.930 . S
C1039 C1032 1.409 . S
C1039 C1038 1.362 . S
H1040 C1046 0.930 . S
H1041 C1049 0.930 . S
H1042 C1050 0.930 . S
H1043 C1051 0.930 . S
H1044 C1054 0.930 . S
H1045 C1055 0.930 . S
C1046 H1040 0.930 . S
C1046 C1047 1.355 . S
C1046 C1048 1.416 1_545 S
C1047 C1046 1.355 . S
C1047 C1049 1.419 . S
C1048 C1046 1.416 1_565 S
C1048 C1053 1.425 1_565 S
C1048 C1055 1.408 . S
C1049 H1041 0.930 . S
C1049 C1047 1.419 . S
C1049 C1050 1.362 . S
C1050 H1042 0.930 . S
C1050 C1049 1.362 . S
C1050 C1053 1.408 . S
C1051 H1043 0.930 . S
C1051 C1052 1.355 . S
C1051 C1053 1.416 1_565 S
C1052 C1051 1.355 . S
C1052 C1054 1.419 . S
C1053 C1048 1.425 1_545 S
C1053 C1050 1.408 . S
C1053 C1051 1.416 1_545 S
C1054 H1044 0.930 . S
C1054 C1052 1.419 . S
C1054 C1055 1.362 . S
C1055 H1045 0.930 . S
C1055 C1048 1.408 . S
C1055 C1054 1.362 . S
H1056 C1062 0.930 . S
H1057 C1065 0.930 . S
H1058 C1066 0.930 . S
H1059 C1067 0.930 . S
H1060 C1070 0.930 . S
H1061 C1071 0.930 . S
C1062 H1056 0.930 . S
C1062 C1063 1.355 . S
C1062 C1064 1.415 1_655 S
C1063 C1062 1.355 . S
C1063 C1065 1.419 1_565 S
C1064 C1062 1.415 1_455 S
C1064 C1069 1.425 1_465 S
C1064 C1071 1.409 . S
C1065 H1057 0.930 . S
C1065 C1063 1.419 1_545 S
C1065 C1066 1.362 . S
C1066 H1058 0.930 . S
C1066 C1065 1.362 . S
C1066 C1069 1.409 . S
C1067 H1059 0.930 . S
C1067 C1068 1.355 . S
C1067 C1069 1.415 1_455 S
C1068 C1067 1.355 . S
C1068 C1070 1.419 1_545 S
C1069 C1064 1.425 1_645 S
C1069 C1066 1.409 . S
C1069 C1067 1.415 1_655 S
C1070 H1060 0.930 . S
C1070 C1068 1.419 1_565 S
C1070 C1071 1.362 . S
C1071 H1061 0.930 . S
C1071 C1064 1.409 . S
C1071 C1070 1.362 . S
H1072 C1078 0.930 1_455 S
H1073 C1081 0.930 . S
H1074 C1082 0.930 . S
H1075 C1083 0.930 1_655 S
H1076 C1086 0.930 . S
H1077 C1087 0.930 . S
C1078 H1072 0.930 1_655 S
C1078 C1079 1.355 . S
C1078 C1080 1.415 1_655 S
C1079 C1078 1.355 . S
C1079 C1081 1.419 . S
C1080 C1078 1.415 1_455 S
C1080 C1085 1.425 1_455 S
C1080 C1087 1.409 . S
C1081 H1073 0.930 . S
C1081 C1079 1.419 . S
C1081 C1082 1.362 . S
C1082 H1074 0.930 . S
C1082 C1081 1.362 . S
C1082 C1085 1.409 . S
C1083 H1075 0.930 1_455 S
C1083 C1084 1.355 . S
C1083 C1085 1.415 1_455 S
C1084 C1083 1.355 . S
C1084 C1086 1.419 . S
C1085 C1080 1.425 1_655 S
C1085 C1082 1.409 . S
C1085 C1083 1.415 1_655 S
C1086 H1076 0.930 . S
C1086 C1084 1.419 . S
C1086 C1087 1.362 . S
C1087 H1077 0.930 . S
C1087 C1080 1.409 . S
C1087 C1086 1.362 . S
C583 C158 1.279 . S
C588 C14 1.334 . S
C599 C50 1.331 . S
C604 C194 1.275 . S
C615 C230 1.332 . S
C620 C86 1.274 . S
C631 C266 1.295 . S
C636 C122 1.305 . S
C647 C446 1.277 . S
C652 C302 1.334 . S
C663 C338 1.299 . S
C668 C482 1.302 . S
C679 C518 1.322 . S
C684 C374 1.295 . S
C695 C410 1.276 . S
C700 C554 1.334 . S
C711 C2 1.318 . S
C716 C542 1.362 . S
C727 C38 1.371 . S
C732 C434 1.321 . S
C743 C74 1.318 . S
C748 C470 1.363 . S
C759 C506 1.321 . S
C764 C110 1.371 . S
C775 C146 1.367 . S
C780 C326 1.351 . S
C791 C182 1.365 . S
C796 C362 1.354 . S
C807 C398 1.371 . S
C812 C218 1.321 . S
C823 C290 1.324 . S
C828 C254 1.373 . S
C839 C4 1.602 . S
C844 C364 1.607 . S
C855 C400 1.610 . S
C860 C40 1.611 . S
C871 C76 1.605 . S
C876 C292 1.603 . S
C887 C328 1.606 . S
C892 C112 1.603 . S
C903 C148 1.604 . S
C908 C508 1.611 . S
C919 C184 1.608 . S
C924 C544 1.602 . S
C935 C436 1.612 . S
C940 C220 1.604 . S
C951 C472 1.608 . S
C956 C256 1.612 . S
C967 C363 1.402 . S
C972 C3 1.403 . S
C983 C39 1.400 . S
C988 C399 1.403 . S
C999 C75 1.402 . S
C1004 C291 1.400 . S
C1015 C327 1.403 . S
C1020 C111 1.400 . S
C1031 C507 1.403 . S
C1036 C147 1.400 . S
C1047 C543 1.400 . S
C1052 C183 1.401 . S
C1063 C435 1.402 . S
C1068 C219 1.400 . S
C1079 C255 1.403 . S
C1084 C471 1.402 . S
