# Generated by pormake.
# Topology sxc, (6)-cn, num edge types: 1
# Building blocks:
#     Node 0, Type 0, BuildingBlock: PAMTOO_clean_sbu_0, # of connection points: 6
#     Node 1, Type 0, BuildingBlock: PAMTOO_clean_sbu_0, # of connection points: 6
#     Node 2, Type 0, BuildingBlock: PAMTOO_clean_sbu_0, # of connection points: 6
#     Edge 3, Type (0, 0), BuildingBlock: FUNLAD_clean_linker_0, # of connection points: 2
#     Edge 4, Type (0, 0), BuildingBlock: FUNLAD_clean_linker_0, # of connection points: 2
#     Edge 5, Type (0, 0), BuildingBlock: FUNLAD_clean_linker_0, # of connection points: 2
#     Edge 6, Type (0, 0), BuildingBlock: FUNLAD_clean_linker_0, # of connection points: 2
#     Edge 7, Type (0, 0), BuildingBlock: FUNLAD_clean_linker_0, # of connection points: 2
#     Edge 8, Type (0, 0), BuildingBlock: FUNLAD_clean_linker_0, # of connection points: 2
#     Edge 9, Type (0, 0), BuildingBlock: FUNLAD_clean_linker_0, # of connection points: 2
#     Edge 10, Type (0, 0), BuildingBlock: FUNLAD_clean_linker_0, # of connection points: 2
#     Edge 11, Type (0, 0), BuildingBlock: FUNLAD_clean_linker_0, # of connection points: 2
# Relax obj value: 0.269
# Max RMSD: 0.115
# Mean RMSD: 0.092
data_MOF--net-sxc--node1-PAMTOO_clean_sbu_0--edge1-FUNLAD_clean_linker_0
_symmetry_space_group_name_H-M    P1
_symmetry_Int_Tables_number       1
_symmetry_cell_setting            triclinic
loop_
_symmetry_equiv_pos_as_xyz
'x, y, z'
_cell_length_a     20.442993
_cell_length_b     18.549146
_cell_length_c     53.378303
_cell_angle_alpha  93.184773
_cell_angle_beta   97.52043
_cell_angle_gamma 98.265897
loop_
_atom_site_label
_atom_site_type_symbol
_atom_site_fract_x
_atom_site_fract_y
_atom_site_fract_z
_atom_type_partial_charge
Dy0 Dy 1.07772 0.05301 0.97965 0.0
Dy1 Dy 0.23866 0.08512 0.98128 0.0
C2 C 0.17285 0.07951 0.03146 0.0
O3 O 0.10126 0.17719 0.98337 0.0
O4 O 0.21169 0.19882 0.97749 0.0
O5 O 0.99374 0.0749 -0.00219 0.0
O6 O 0.97836 1.00096 0.96393 0.0
O7 O 0.19876 0.05332 0.94032 0.0
O8 O 0.09128 0.07619 0.94001 0.0
O9 O 0.21679 0.96259 -0.01553 0.0
O10 O 0.10284 0.93835 0.97419 0.0
O11 O 0.32872 0.12707 0.96653 0.0
O12 O 0.3343 0.06916 0.00076 0.0
C13 C 0.1552 0.22293 0.98041 0.0
O14 O 0.12484 0.03339 0.01821 0.0
O15 O 0.21604 0.11922 0.01983 0.0
C16 C 0.91652 0.96856 -0.00346 0.0
C17 C 0.84984 0.85386 0.02022 0.0
C18 C 0.91991 0.86887 0.02396 0.0
C19 C 0.95293 0.92556 0.01215 0.0
C20 C 0.8467 0.95537 -0.00676 0.0
C21 C 0.81346 0.89834 0.00503 0.0
C22 C 0.95223 1.02514 0.98319 0.0
C23 C 0.14113 0.06368 0.92804 0.0
C24 C 0.16104 0.91541 0.97922 0.0
C25 C 0.41957 0.16643 -0.00141 0.0
C26 C 0.52005 0.27633 0.02348 0.0
C27 C 0.45618 0.29249 0.01473 0.0
C28 C 0.40628 0.23794 0.00253 0.0
C29 C 0.48264 0.14958 0.00758 0.0
C30 C 0.53254 0.20406 0.01997 0.0
C31 C 0.36744 0.10873 -0.01419 0.0
H32 H 0.94927 0.83616 0.03576 0.0
H33 H 1.00701 0.93513 0.01488 0.0
H34 H 0.81802 0.98808 0.98117 0.0
H35 H 0.75944 0.88748 0.00155 0.0
H36 H 0.44509 0.34771 0.01671 0.0
H37 H 0.35754 0.2518 -0.00404 0.0
H38 H 0.4933 0.09431 0.00497 0.0
H39 H 0.58087 0.18959 0.02676 0.0
Dy40 Dy 0.17963 0.16521 0.31812 0.0
Dy41 Dy 1.01943 0.13167 0.30422 0.0
C42 C 0.11007 0.1423 0.2604 0.0
O43 O 0.15598 0.27867 0.31059 0.0
O44 O 1.04196 0.25599 0.30988 0.0
O45 O 0.27965 0.19016 0.30849 0.0
O46 O 0.26464 0.16921 0.34698 0.0
O47 O 1.04478 0.10877 0.34474 0.0
O48 O 0.13693 0.19457 0.35302 0.0
O49 O 1.04896 1.01849 0.30013 0.0
O50 O 0.15425 0.04344 0.32227 0.0
O51 O 0.92896 0.08037 0.28068 0.0
O52 O 0.92382 0.14789 0.3147 0.0
C53 C 0.09779 0.30239 0.31 0.0
O54 O 0.15887 0.12727 0.27686 0.0
O55 O 1.05565 0.16048 0.26787 0.0
C56 C 0.34376 0.11065 0.33019 0.0
C57 C 0.39494 0.9785 0.33618 0.0
C58 C 0.34538 0.98432 0.31585 0.0
C59 C 0.31987 0.04962 0.31294 0.0
C60 C 0.39485 0.10597 0.34998 0.0
C61 C 0.4204 0.04046 0.35293 0.0
C62 C 0.30635 0.17256 0.33047 0.0
C63 C 0.08871 0.15171 0.36104 0.0
C64 C 0.10297 0.99569 0.31126 0.0
C65 C 0.84705 0.04001 0.3063 0.0
C66 C 0.76979 0.93129 0.32924 0.0
C67 C 0.75278 1.00201 0.32826 0.0
C68 C 0.79104 0.05585 0.31683 0.0
C69 C 0.86374 0.96908 0.30698 0.0
C70 C 0.82504 0.91498 0.31817 0.0
C71 C 0.89133 0.0994 0.29711 0.0
H72 H 0.32418 0.93748 0.3028 0.0
H73 H 0.27908 0.0512 0.29792 0.0
H74 H 0.41296 0.15196 0.36377 0.0
H75 H 0.45938 0.03798 0.36855 0.0
H76 H 0.70976 1.01567 0.33632 0.0
H77 H 0.77775 0.11033 0.31671 0.0
H78 H 0.90746 0.95576 0.29936 0.0
H79 H 0.83927 0.86098 0.31875 0.0
Dy80 Dy 1.0718 0.18287 0.64352 0.0
Dy81 Dy 1.05392 1.01643 0.63819 0.0
C82 C 1.04944 0.10265 0.59001 0.0
O83 O 0.95464 0.16031 0.64644 0.0
O84 O 0.93909 0.03789 0.63676 0.0
O85 O 0.10165 0.28156 0.62584 0.0
O86 O 1.06507 0.2873 0.66219 0.0
O87 O 1.05393 0.03839 0.67978 0.0
O88 O 0.10416 0.15671 0.68317 0.0
O89 O 0.17353 0.03853 0.64227 0.0
O90 O 0.18538 0.16186 0.64086 0.0
O91 O 1.06922 0.90978 0.64983 0.0
O92 O 1.00864 0.92051 0.61407 0.0
C93 C 0.9107 0.09801 0.64162 0.0
O94 O 1.02382 0.14826 0.60381 0.0
O95 O 1.08097 0.0549 0.60142 0.0
C96 C 0.15406 0.37662 0.65516 0.0
C97 C 0.28118 0.46075 0.66758 0.0
C98 C 0.2376 0.47484 0.64636 0.0
C99 C 0.17446 0.43315 0.64026 0.0
C100 C 0.19578 0.36509 0.67716 0.0
C101 C 0.25859 0.40728 0.68343 0.0
C102 C 0.09473 0.32349 0.64547 0.0
C103 C 1.08425 0.09692 0.69371 0.0
C104 C 0.21563 0.10127 0.64167 0.0
C105 C 0.97071 0.82589 0.63779 0.0
C106 C 0.84874 0.74547 0.64547 0.0
C107 C 0.87978 0.8042 0.66268 0.0
C108 C 0.94009 0.84436 0.6588 0.0
C109 C 0.94155 0.76526 0.62121 0.0
C110 C 0.88081 0.72524 0.625 0.0
C111 C 1.02638 0.87633 0.631 0.0
H112 H 0.25362 0.51498 0.63357 0.0
H113 H 0.14313 0.44219 0.62306 0.0
H114 H 0.18126 0.32128 0.68885 0.0
H115 H 0.29047 0.39604 0.70016 0.0
H116 H 0.85567 0.82167 0.67838 0.0
H117 H 0.96108 0.89199 0.67153 0.0
H118 H 0.96416 0.75098 0.60472 0.0
H119 H 0.85795 0.67988 0.61156 0.0
C120 C 0.20792 0.35699 0.97837 0.0
C121 C 0.15168 0.30454 0.98043 0.0
C122 C 0.20368 0.4328 0.97825 0.0
C123 C 0.14276 0.45931 0.98017 0.0
C124 C 1.08691 0.4066 0.98223 0.0
C125 C 0.09118 0.33126 0.98242 0.0
C126 C 0.13363 0.53986 0.97974 0.0
C127 C 0.18278 0.59853 0.98013 0.0
C128 C 0.1737 0.67913 0.97992 0.0
C129 C 0.23105 0.73304 0.98325 0.0
C130 C 0.22673 0.80836 0.98302 0.0
C131 C 0.1646 0.83382 0.9793 0.0
H132 H 1.06527 0.66613 0.97336 0.0
C133 C 0.10686 0.78016 0.97591 0.0
C134 C 0.11119 0.70438 0.97622 0.0
H135 H 1.05784 0.79667 0.97302 0.0
H136 H 0.25568 0.33949 0.97679 0.0
H137 H 0.2483 0.46998 0.97644 0.0
H138 H 1.03898 0.42374 -0.01628 0.0
H139 H 1.04647 0.2938 -0.01598 0.0
H140 H 1.08286 0.55076 0.97948 0.0
H141 H 0.23376 0.58782 0.98108 0.0
H142 H 0.28021 0.71688 -0.0139 0.0
H143 H 0.27263 0.84678 -0.01428 0.0
C144 C 0.43151 0.88383 0.3645 0.0
C145 C 0.41942 0.90785 0.34004 0.0
C146 C 0.45943 0.82014 0.36831 0.0
C147 C 0.47618 0.77942 0.34769 0.0
C148 C 0.45984 0.80082 0.3231 0.0
C149 C 0.43201 0.86447 0.31931 0.0
C150 C 0.51946 0.72188 0.3514 0.0
C151 C 0.57362 0.73591 0.36914 0.0
C152 C 0.6352 0.77645 0.36167 0.0
C153 C 0.66356 0.84305 0.37524 0.0
C154 C 0.70972 0.89207 0.3652 0.0
C155 C 0.7291 0.87493 0.34158 0.0
H156 H 0.63847 0.70523 0.32836 0.0
C157 C 0.7055 0.80559 0.3291 0.0
C158 C 0.65876 0.75669 0.33904 0.0
H159 H 0.72009 0.79088 0.31093 0.0
H160 H 0.42043 0.91496 0.38078 0.0
H161 H 0.46998 0.80438 0.38746 0.0
H162 H 0.47231 0.77071 0.30685 0.0
H163 H 0.42322 0.88138 0.30021 0.0
H164 H 0.52535 0.69238 0.33386 0.0
H165 H 0.56516 0.75168 0.38822 0.0
H166 H 0.64642 0.85962 0.39274 0.0
H167 H 0.7283 0.94465 0.37544 0.0
C168 C 0.76341 0.692 0.67151 0.0
C169 C 0.78056 0.71005 0.64777 0.0
C170 C 0.69752 0.66505 0.67406 0.0
C171 C 0.64759 0.65555 0.65285 0.0
C172 C 0.66488 0.67317 0.62912 0.0
C173 C 0.73084 0.69974 0.62654 0.0
C174 C 0.57676 0.62998 0.65498 0.0
C175 C 0.55767 0.58584 0.67268 0.0
C176 C 0.48678 0.55724 0.67337 0.0
C177 C 0.46979 0.48561 0.67993 0.0
C178 C 0.40299 0.45503 0.67879 0.0
C179 C 0.35186 0.49616 0.67154 0.0
H180 H 0.44792 0.65584 0.66272 0.0
C181 C 0.36916 0.56928 0.66626 0.0
C182 C 0.43604 0.59955 0.6671 0.0
H183 H 0.33102 0.60283 0.66112 0.0
H184 H 0.80083 0.69975 0.68818 0.0
H185 H 0.68573 0.65382 0.69278 0.0
H186 H 0.62717 0.66682 0.61254 0.0
H187 H 0.7425 0.71455 0.60811 0.0
H188 H 0.53928 0.64441 0.64051 0.0
H189 H 0.59483 0.56475 0.68553 0.0
H190 H 0.50819 0.45223 0.68494 0.0
H191 H 0.39154 0.39819 0.68259 0.0
C192 C 0.79362 0.15779 0.64502 0.0
C193 C 0.82834 0.09548 0.64158 0.0
C194 C 0.72024 0.15448 0.64483 0.0
C195 C 0.6721 0.08809 0.64126 0.0
C196 C 0.70732 1.02648 0.63793 0.0
C197 C 0.77997 1.02977 0.638 0.0
C198 C 0.5889 0.07626 0.64095 0.0
C199 C 0.53743 0.12298 0.64245 0.0
C200 C 0.45419 0.11116 0.64199 0.0
C201 C 0.41808 0.17292 0.64264 0.0
C202 C 0.34541 0.16964 0.64248 0.0
C203 C 0.298 0.10379 0.64179 0.0
H204 H 0.42653 0.99345 0.64076 0.0
C205 C 0.33366 0.04132 0.6412 0.0
C206 C 0.40698 0.04463 0.64124 0.0
H207 H 0.30433 0.98768 0.64064 0.0
H208 H 0.82373 0.21131 0.64794 0.0
H209 H 0.70147 0.20554 0.64765 0.0
H210 H 0.67763 0.9727 0.63509 0.0
H211 H 0.79841 0.97847 0.63521 0.0
H212 H 0.56798 1.01874 0.63897 0.0
H213 H 0.55827 0.18051 0.64418 0.0
H214 H 0.44704 0.2268 0.64329 0.0
H215 H 0.32622 0.22106 0.64301 0.0
C216 C 0.83979 0.72215 0.029 0.0
C217 C 0.81518 0.7889 0.03063 0.0
C218 C 0.80457 0.659 0.03661 0.0
C219 C 0.74385 0.6612 0.0462 0.0
C220 C 0.72039 0.72848 0.04856 0.0
C221 C 0.75568 0.79174 0.04088 0.0
C222 C 0.6997 0.59376 0.0508 0.0
C223 C 0.71993 0.52805 0.0528 0.0
C224 C 0.67173 0.45946 0.04955 0.0
C225 C 0.68736 0.39905 0.03585 0.0
C226 C 0.63895 0.338 0.02832 0.0
C227 C 0.57416 0.33581 0.03473 0.0
H228 H 0.59588 0.49992 0.06898 0.0
C229 C 0.56035 0.39386 0.05029 0.0
C230 C 0.60863 0.45521 0.05761 0.0
H231 H 0.51156 0.39282 0.05622 0.0
H232 H 0.88484 0.71786 0.02072 0.0
H233 H 0.82382 0.60842 0.0336 0.0
H234 H 0.67358 0.73176 0.0557 0.0
H235 H 0.73583 0.84261 0.04259 0.0
H236 H 0.64698 0.59763 0.05013 0.0
H237 H 0.77227 0.52297 0.05338 0.0
H238 H 0.73584 0.40091 0.02956 0.0
H239 H 0.65133 0.29446 0.01629 0.0
C240 C 0.15203 0.43754 0.31185 0.0
C241 C 0.09428 0.38406 0.30962 0.0
C242 C 0.14778 0.51338 0.31154 0.0
C243 C 1.08535 0.53893 0.3089 0.0
C244 C 1.02799 0.4852 0.30658 0.0
C245 C 1.03223 0.40986 0.30703 0.0
C246 C 1.0764 0.61947 0.30784 0.0
C247 C 0.12538 0.67896 0.31315 0.0
C248 C 0.11612 0.75949 0.31249 0.0
C249 C 0.17046 0.81405 0.32228 0.0
C250 C 0.16586 0.88934 0.32199 0.0
C251 C 0.10671 0.91415 0.31163 0.0
H252 H 1.0133 0.74539 0.29408 0.0
C253 C 1.05211 0.85987 0.30172 0.0
C254 C 1.05656 0.78412 0.30215 0.0
H255 H 1.00548 0.87584 0.29351 0.0
H256 H 0.20099 0.42084 0.31386 0.0
H257 H 0.19366 0.55144 0.31312 0.0
H258 H 0.97888 0.50156 0.30442 0.0
H259 H 0.98631 0.37165 0.3052 0.0
H260 H 1.02555 0.62961 0.3029 0.0
H261 H 0.17589 0.66893 0.31902 0.0
H262 H 0.21737 0.79843 0.33034 0.0
H263 H 0.20925 0.92824 0.32989 0.0
C264 C 0.17512 0.12293 0.22419 0.0
C265 C 0.11547 0.13634 0.23284 0.0
C266 C 0.17932 0.11554 0.19816 0.0
C267 C 0.12379 0.12127 0.18015 0.0
C268 C 1.06438 0.13463 0.18886 0.0
C269 C 1.06032 0.14252 0.2148 0.0
C270 C 0.12421 0.11 0.15224 0.0
C271 C 0.17974 0.11838 0.1408 0.0
C272 C 0.17786 0.10684 0.11276 0.0
C273 C 0.22871 0.1446 0.10097 0.0
C274 C 0.22767 0.13562 0.07463 0.0
C275 C 0.17611 0.08781 0.0595 0.0
H276 H 1.0883 1.02566 0.10602 0.0
C277 C 0.12625 0.04854 0.07142 0.0
C278 C 0.12713 0.05779 0.09766 0.0
H279 H 1.08602 1.01072 0.06046 0.0
H280 H 0.21855 0.11754 0.23753 0.0
H281 H 0.22557 0.10355 0.19232 0.0
H282 H 1.02061 0.13882 0.1755 0.0
H283 H 1.01347 0.15251 0.22068 0.0
H284 H 1.07582 0.09713 0.14054 0.0
H285 H 0.22788 0.13788 0.15204 0.0
H286 H 0.26888 0.18207 0.11212 0.0
H287 H 0.26706 0.16644 0.06613 0.0
C288 C 1.02951 0.11303 0.3977 0.0
C289 C 1.08637 0.14858 0.38866 0.0
C290 C 1.02868 0.10752 0.42376 0.0
C291 C 1.08503 0.13689 0.44132 0.0
C292 C 0.1417 0.17227 0.43224 0.0
C293 C 0.14219 0.17875 0.40627 0.0
C294 C 1.0879 0.12836 0.46902 0.0
C295 C 1.03412 0.1244 0.48136 0.0
C296 C 1.03859 0.11767 0.5092 0.0
C297 C 0.99519 0.15051 0.52294 0.0
C298 C 0.99879 0.14588 0.54918 0.0
C299 C 1.04484 0.10669 0.56216 0.0
H300 H 0.11728 0.0502 0.51206 0.0
C301 C 1.08707 0.07212 0.54831 0.0
C302 C 1.08426 0.07783 0.52214 0.0
H303 H 0.12294 0.04128 0.55772 0.0
H304 H 0.98576 0.08892 0.38464 0.0
H305 H 0.98463 0.07844 0.43 0.0
H306 H 0.18595 0.19495 0.4453 0.0
H307 H 0.18699 0.20602 0.39999 0.0
H308 H 0.13693 0.12929 0.47985 0.0
H309 H 0.98603 0.13085 0.47112 0.0
H310 H 0.95909 0.1809 0.51341 0.0
H311 H 0.96523 0.1727 0.55927 0.0
C312 C 1.06997 0.03472 0.73387 0.0
C313 C 0.09704 0.0953 0.72178 0.0
C314 C 1.08254 0.03312 0.76029 0.0
C315 C 0.12274 0.09211 0.77529 0.0
C316 C 0.1504 0.15212 0.76316 0.0
C317 C 0.13734 0.15405 0.73679 0.0
C318 C 0.13838 0.09208 0.80344 0.0
C319 C 0.09704 0.05605 0.8179 0.0
C320 C 0.11061 0.05876 0.84615 0.0
C321 C 1.05629 0.04947 0.85986 0.0
C322 C 1.06639 0.05134 0.88634 0.0
C323 C 0.13127 0.06103 0.89986 0.0
H324 H 0.21886 0.07365 0.84966 0.0
C325 C 0.18588 0.06882 0.88615 0.0
C326 C 0.17572 0.0681 0.85959 0.0
H327 H 0.23651 0.0762 0.89595 0.0
H328 H 1.03907 0.98826 0.72293 0.0
H329 H 1.06172 0.98499 0.7688 0.0
H330 H 0.18192 0.1981 0.77414 0.0
H331 H 0.1594 0.20145 0.72818 0.0
H332 H 0.18353 0.12669 0.81262 0.0
H333 H 1.04895 1.02717 0.80893 0.0
H334 H 1.00561 0.04151 0.85006 0.0
H335 H 1.02311 0.04458 0.8962 0.0
loop_
_geom_bond_atom_site_label_1
_geom_bond_atom_site_label_2
_geom_bond_distance
_geom_bond_site_symmetry_2
_ccdc_geom_bond_type
Dy0 O3 2.307 1_565 S
Dy0 O5 2.395 1_556 S
Dy0 O6 2.379 . S
Dy0 O8 2.339 . S
Dy0 O10 2.298 . S
Dy0 O14 2.275 1_666 S
Dy0 C22 2.737 1_556 S
Dy1 O4 2.298 . S
Dy1 O7 2.275 1_554 S
Dy1 O9 2.307 1_545 S
Dy1 O11 2.395 1_554 S
Dy1 O12 2.379 . S
Dy1 O15 2.339 . S
Dy1 C31 2.738 . S
C2 O14 1.254 . S
C2 O15 1.257 . S
O3 Dy0 2.307 1_545 S
O3 C13 1.266 1_656 S
O4 Dy1 2.298 . S
O4 C13 1.236 . S
O5 Dy0 2.395 1_554 S
O5 C22 1.261 . S
O6 Dy0 2.379 . S
O6 C22 1.242 1_556 S
O7 Dy1 2.275 1_556 S
O7 C23 1.254 . S
O8 Dy0 2.339 . S
O8 C23 1.257 1_665 S
O9 Dy1 2.307 1_565 S
O9 C24 1.266 . S
O10 Dy0 2.298 . S
O10 C24 1.236 1_656 S
O11 Dy1 2.395 1_556 S
O11 C31 1.255 1_556 S
O12 Dy1 2.379 . S
O12 C31 1.249 . S
C13 O3 1.266 1_454 S
C13 O4 1.236 . S
O14 Dy0 2.275 1_444 S
O14 C2 1.254 . S
O15 Dy1 2.339 . S
O15 C2 1.257 . S
C16 C19 1.344 . S
C16 C20 1.328 1_554 S
C16 C22 1.517 . S
C17 C18 1.304 . S
C17 C21 1.323 1_554 S
C18 C17 1.304 . S
C18 C19 1.371 . S
C18 H32 0.930 . S
C19 C16 1.344 . S
C19 C18 1.371 . S
C19 H33 0.931 . S
C20 C16 1.328 1_556 S
C20 C21 1.433 . S
C20 H34 0.931 . S
C21 C17 1.323 1_556 S
C21 C20 1.433 . S
C21 H35 0.933 . S
C22 Dy0 2.737 1_554 S
C22 O5 1.261 . S
C22 O6 1.242 1_554 S
C22 C16 1.517 . S
C23 O7 1.254 . S
C23 O8 1.257 1_445 S
C24 O9 1.266 . S
C24 O10 1.236 1_454 S
C25 C28 1.344 1_554 S
C25 C29 1.328 . S
C25 C31 1.516 . S
C26 C27 1.304 1_554 S
C26 C30 1.323 . S
C27 C26 1.304 1_556 S
C27 C28 1.371 . S
C27 H36 0.930 . S
C28 C25 1.344 1_556 S
C28 C27 1.371 . S
C28 H37 0.931 . S
C29 C25 1.328 . S
C29 C30 1.433 . S
C29 H38 0.931 . S
C30 C26 1.323 . S
C30 C29 1.433 . S
C30 H39 0.933 . S
C31 Dy1 2.738 . S
C31 O11 1.255 1_554 S
C31 O12 1.249 . S
C31 C25 1.516 . S
H32 C18 0.930 . S
H33 C19 0.931 . S
H34 C20 0.931 . S
H35 C21 0.933 . S
H36 C27 0.930 . S
H37 C28 0.931 . S
H38 C29 0.931 . S
H39 C30 0.933 . S
Dy40 O43 2.307 . S
Dy40 O45 2.395 . S
Dy40 O46 2.379 . S
Dy40 O48 2.339 . S
Dy40 O50 2.298 1_545 S
Dy40 O54 2.275 . S
Dy40 C62 2.738 . S
Dy41 O44 2.298 1_565 S
Dy41 O47 2.275 1_565 S
Dy41 O49 2.307 . S
Dy41 O51 2.395 1_565 S
Dy41 O52 2.379 1_565 S
Dy41 O55 2.339 . S
Dy41 C71 2.738 1_565 S
C42 O54 1.254 1_655 S
C42 O55 1.257 1_545 S
O43 Dy40 2.307 . S
O43 C53 1.266 1_455 S
O44 Dy41 2.298 1_545 S
O44 C53 1.236 . S
O45 Dy40 2.395 . S
O45 C62 1.255 . S
O46 Dy40 2.379 . S
O46 C62 1.249 . S
O47 Dy41 2.275 1_545 S
O47 C63 1.254 1_655 S
O48 Dy40 2.339 . S
O48 C63 1.257 . S
O49 Dy41 2.307 . S
O49 C64 1.266 1_655 S
O50 Dy40 2.298 1_565 S
O50 C64 1.236 . S
O51 Dy41 2.395 1_545 S
O51 C71 1.255 . S
O52 Dy41 2.379 1_545 S
O52 C71 1.249 . S
C53 O43 1.266 1_655 S
C53 O44 1.236 . S
O54 Dy40 2.275 . S
O54 C42 1.254 1_455 S
O55 Dy41 2.339 . S
O55 C42 1.257 1_565 S
C56 C59 1.344 1_545 S
C56 C60 1.328 . S
C56 C62 1.516 . S
C57 C58 1.304 . S
C57 C61 1.323 . S
C58 C57 1.304 . S
C58 C59 1.371 . S
C58 H72 0.930 . S
C59 C56 1.344 1_565 S
C59 C58 1.371 . S
C59 H73 0.931 . S
C60 C56 1.328 . S
C60 C61 1.433 1_545 S
C60 H74 0.931 . S
C61 C57 1.323 . S
C61 C60 1.433 1_565 S
C61 H75 0.933 1_565 S
C62 Dy40 2.738 . S
C62 O45 1.255 . S
C62 O46 1.249 . S
C62 C56 1.516 . S
C63 O47 1.254 1_455 S
C63 O48 1.257 . S
C64 O49 1.266 1_455 S
C64 O50 1.236 . S
C65 C68 1.344 . S
C65 C69 1.328 . S
C65 C71 1.516 . S
C66 C67 1.304 . S
C66 C70 1.323 . S
C67 C66 1.304 . S
C67 C68 1.371 . S
C67 H76 0.930 . S
C68 C65 1.344 . S
C68 C67 1.371 . S
C68 H77 0.931 . S
C69 C65 1.328 . S
C69 C70 1.433 . S
C69 H78 0.931 . S
C70 C66 1.323 . S
C70 C69 1.433 . S
C70 H79 0.933 . S
C71 Dy41 2.738 1_545 S
C71 O51 1.255 . S
C71 O52 1.249 . S
C71 C65 1.516 . S
H72 C58 0.930 . S
H73 C59 0.931 . S
H74 C60 0.931 . S
H75 C61 0.933 1_545 S
H76 C67 0.930 . S
H77 C68 0.931 . S
H78 C69 0.931 . S
H79 C70 0.933 . S
Dy80 O83 2.307 1_455 S
Dy80 O85 2.395 . S
Dy80 O86 2.379 . S
Dy80 O88 2.339 . S
Dy80 O90 2.298 . S
Dy80 O94 2.275 . S
Dy80 C102 2.738 . S
Dy81 O84 2.298 1_565 S
Dy81 O87 2.275 1_665 S
Dy81 O89 2.307 1_665 S
Dy81 O91 2.395 . S
Dy81 O92 2.379 . S
Dy81 O95 2.339 1_565 S
Dy81 C111 2.738 . S
C82 O94 1.254 . S
C82 O95 1.256 1_455 S
O83 Dy80 2.307 1_655 S
O83 C93 1.266 . S
O84 Dy81 2.298 1_545 S
O84 C93 1.236 . S
O85 Dy80 2.395 . S
O85 C102 1.255 . S
O86 Dy80 2.379 . S
O86 C102 1.249 . S
O87 Dy81 2.275 1_445 S
O87 C103 1.254 . S
O88 Dy80 2.339 . S
O88 C103 1.257 . S
O89 Dy81 2.307 1_445 S
O89 C104 1.266 . S
O90 Dy80 2.298 . S
O90 C104 1.236 . S
O91 Dy81 2.395 . S
O91 C111 1.255 . S
O92 Dy81 2.379 . S
O92 C111 1.249 . S
C93 O83 1.266 . S
C93 O84 1.236 . S
O94 Dy80 2.275 . S
O94 C82 1.254 . S
O95 Dy81 2.339 1_545 S
O95 C82 1.256 1_655 S
C96 C99 1.344 . S
C96 C100 1.328 . S
C96 C102 1.516 . S
C97 C98 1.304 . S
C97 C101 1.323 . S
C98 C97 1.304 . S
C98 C99 1.371 . S
C98 H112 0.930 . S
C99 C96 1.344 . S
C99 C98 1.371 . S
C99 H113 0.931 . S
C100 C96 1.328 . S
C100 C101 1.433 . S
C100 H114 0.931 . S
C101 C97 1.323 . S
C101 C100 1.433 . S
C101 H115 0.933 . S
C102 Dy80 2.738 . S
C102 O85 1.255 . S
C102 O86 1.249 . S
C102 C96 1.516 . S
C103 O87 1.254 . S
C103 O88 1.257 . S
C104 O89 1.266 . S
C104 O90 1.236 . S
C105 C108 1.344 . S
C105 C109 1.328 . S
C105 C111 1.516 . S
C106 C107 1.304 . S
C106 C110 1.323 . S
C107 C106 1.304 . S
C107 C108 1.371 . S
C107 H116 0.930 . S
C108 C105 1.344 . S
C108 C107 1.371 . S
C108 H117 0.931 . S
C109 C105 1.328 . S
C109 C110 1.433 . S
C109 H118 0.931 . S
C110 C106 1.323 . S
C110 C109 1.433 . S
C110 H119 0.933 . S
C111 Dy81 2.738 . S
C111 O91 1.255 . S
C111 O92 1.249 . S
C111 C105 1.516 . S
H112 C98 0.930 . S
H113 C99 0.931 . S
H114 C100 0.931 . S
H115 C101 0.933 . S
H116 C107 0.930 . S
H117 C108 0.931 . S
H118 C109 0.931 . S
H119 C110 0.933 . S
C120 C121 1.386 . S
C120 C122 1.383 . S
C120 H136 0.951 . S
C121 C120 1.386 . S
C121 C125 1.383 1_454 S
C122 C120 1.383 . S
C122 C123 1.402 1_554 S
C122 H137 0.951 . S
C123 C122 1.402 1_556 S
C123 C124 1.375 1_455 S
C123 C126 1.481 . S
C124 C123 1.375 1_655 S
C124 C125 1.367 . S
C124 H138 0.951 . S
C125 C121 1.383 1_656 S
C125 C124 1.367 . S
C125 H139 0.950 . S
C126 C123 1.481 . S
C126 C127 1.297 1_556 S
C126 H140 0.938 1_455 S
C127 C126 1.297 1_554 S
C127 C128 1.479 . S
C127 H141 0.950 . S
C128 C127 1.479 . S
C128 C129 1.375 . S
C128 C134 1.404 1_554 S
C129 C128 1.375 . S
C129 C130 1.369 . S
C129 H142 0.950 . S
C130 C129 1.369 . S
C130 C131 1.392 . S
C130 H143 0.951 . S
C131 C130 1.392 . S
C131 C133 1.384 1_554 S
H132 C134 0.950 . S
C133 C131 1.384 1_556 S
C133 C134 1.385 . S
C133 H135 0.950 1_455 S
C134 C128 1.404 1_556 S
C134 H132 0.950 . S
C134 C133 1.385 . S
H135 C133 0.950 1_655 S
H136 C120 0.951 . S
H137 C122 0.951 . S
H138 C124 0.951 . S
H139 C125 0.950 . S
H140 C126 0.938 1_655 S
H141 C127 0.950 . S
H142 C129 0.950 . S
H143 C130 0.951 . S
C144 C145 1.386 . S
C144 C146 1.383 . S
C144 H160 0.951 . S
C145 C144 1.386 . S
C145 C149 1.383 . S
C146 C144 1.383 . S
C146 C147 1.402 . S
C146 H161 0.951 . S
C147 C146 1.402 . S
C147 C148 1.375 . S
C147 C150 1.481 1_565 S
C148 C147 1.375 . S
C148 C149 1.367 . S
C148 H162 0.951 . S
C149 C145 1.383 . S
C149 C148 1.367 . S
C149 H163 0.950 . S
C150 C147 1.481 1_545 S
C150 C151 1.297 . S
C150 H164 0.950 . S
C151 C150 1.297 . S
C151 C152 1.479 . S
C151 H165 0.950 1_545 S
C152 C151 1.479 . S
C152 C153 1.375 . S
C152 C158 1.404 . S
C153 C152 1.375 . S
C153 C154 1.369 . S
C153 H166 0.950 . S
C154 C153 1.369 . S
C154 C155 1.392 . S
C154 H167 0.951 . S
C155 C154 1.392 . S
C155 C157 1.384 . S
H156 C158 0.949 . S
C157 C155 1.384 . S
C157 C158 1.385 . S
C157 H159 0.950 . S
C158 C152 1.404 . S
C158 H156 0.949 . S
C158 C157 1.385 . S
H159 C157 0.950 . S
H160 C144 0.951 . S
H161 C146 0.951 . S
H162 C148 0.951 . S
H163 C149 0.950 . S
H164 C150 0.950 . S
H165 C151 0.950 1_565 S
H166 C153 0.950 . S
H167 C154 0.951 . S
C168 C169 1.386 . S
C168 C170 1.383 . S
C168 H184 0.951 . S
C169 C168 1.386 . S
C169 C173 1.383 . S
C170 C168 1.383 . S
C170 C171 1.402 . S
C170 H185 0.951 . S
C171 C170 1.402 . S
C171 C172 1.375 . S
C171 C174 1.481 . S
C172 C171 1.375 . S
C172 C173 1.367 . S
C172 H186 0.951 . S
C173 C169 1.383 . S
C173 C172 1.367 . S
C173 H187 0.950 . S
C174 C171 1.481 . S
C174 C175 1.297 . S
C174 H188 0.950 . S
C175 C174 1.297 . S
C175 C176 1.479 . S
C175 H189 0.950 . S
C176 C175 1.479 . S
C176 C177 1.375 . S
C176 C182 1.404 . S
C177 C176 1.375 . S
C177 C178 1.369 . S
C177 H190 0.950 . S
C178 C177 1.369 . S
C178 C179 1.392 . S
C178 H191 0.951 . S
C179 C178 1.392 . S
C179 C181 1.384 . S
H180 C182 0.949 . S
C181 C179 1.384 . S
C181 C182 1.385 . S
C181 H183 0.950 . S
C182 C176 1.404 . S
C182 H180 0.949 . S
C182 C181 1.385 . S
H183 C181 0.950 . S
H184 C168 0.951 . S
H185 C170 0.951 . S
H186 C172 0.951 . S
H187 C173 0.950 . S
H188 C174 0.950 . S
H189 C175 0.950 . S
H190 C177 0.950 . S
H191 C178 0.951 . S
C192 C193 1.386 . S
C192 C194 1.383 . S
C192 H208 0.951 . S
C193 C192 1.386 . S
C193 C197 1.383 . S
C194 C192 1.383 . S
C194 C195 1.402 . S
C194 H209 0.951 . S
C195 C194 1.402 . S
C195 C196 1.375 . S
C195 C198 1.481 . S
C196 C195 1.375 . S
C196 C197 1.367 . S
C196 H210 0.951 . S
C197 C193 1.383 . S
C197 C196 1.367 . S
C197 H211 0.950 . S
C198 C195 1.481 . S
C198 C199 1.297 . S
C198 H212 0.950 . S
C199 C198 1.297 . S
C199 C200 1.479 . S
C199 H213 0.950 . S
C200 C199 1.479 . S
C200 C201 1.375 . S
C200 C206 1.404 . S
C201 C200 1.375 . S
C201 C202 1.369 . S
C201 H214 0.950 . S
C202 C201 1.369 . S
C202 C203 1.392 . S
C202 H215 0.951 . S
C203 C202 1.392 . S
C203 C205 1.384 . S
H204 C206 0.949 . S
C205 C203 1.384 . S
C205 C206 1.385 . S
C205 H207 0.950 . S
C206 C200 1.404 . S
C206 H204 0.949 . S
C206 C205 1.385 . S
H207 C205 0.950 . S
H208 C192 0.951 . S
H209 C194 0.951 . S
H210 C196 0.951 . S
H211 C197 0.950 . S
H212 C198 0.950 . S
H213 C199 0.950 . S
H214 C201 0.950 . S
H215 C202 0.951 . S
C216 C217 1.386 . S
C216 C218 1.383 . S
C216 H232 0.951 . S
C217 C216 1.386 . S
C217 C221 1.383 1_554 S
C218 C216 1.383 . S
C218 C219 1.402 . S
C218 H233 0.951 . S
C219 C218 1.402 . S
C219 C220 1.375 1_554 S
C219 C222 1.481 . S
C220 C219 1.375 1_556 S
C220 C221 1.367 . S
C220 H234 0.951 . S
C221 C217 1.383 1_556 S
C221 C220 1.367 . S
C221 H235 0.950 . S
C222 C219 1.481 . S
C222 C223 1.297 . S
C222 H236 0.950 . S
C223 C222 1.297 . S
C223 C224 1.479 . S
C223 H237 0.950 . S
C224 C223 1.479 . S
C224 C225 1.375 . S
C224 C230 1.404 . S
C225 C224 1.375 . S
C225 C226 1.369 . S
C225 H238 0.950 . S
C226 C225 1.369 . S
C226 C227 1.392 . S
C226 H239 0.951 . S
C227 C226 1.392 . S
C227 C229 1.384 . S
H228 C230 0.949 . S
C229 C227 1.384 . S
C229 C230 1.385 . S
C229 H231 0.950 . S
C230 C224 1.404 . S
C230 H228 0.949 . S
C230 C229 1.385 . S
H231 C229 0.950 . S
H232 C216 0.951 . S
H233 C218 0.951 . S
H234 C220 0.951 . S
H235 C221 0.950 . S
H236 C222 0.950 . S
H237 C223 0.950 . S
H238 C225 0.950 . S
H239 C226 0.951 . S
C240 C241 1.386 1_455 S
C240 C242 1.383 . S
C240 H256 0.951 . S
C241 C240 1.386 1_655 S
C241 C245 1.383 . S
C242 C240 1.383 . S
C242 C243 1.402 1_455 S
C242 H257 0.951 . S
C243 C242 1.402 1_655 S
C243 C244 1.375 . S
C243 C246 1.481 . S
C244 C243 1.375 . S
C244 C245 1.367 . S
C244 H258 0.951 . S
C245 C241 1.383 . S
C245 C244 1.367 . S
C245 H259 0.950 . S
C246 C243 1.481 . S
C246 C247 1.297 1_655 S
C246 H260 0.950 . S
C247 C246 1.297 1_455 S
C247 C248 1.479 . S
C247 H261 0.950 . S
C248 C247 1.479 . S
C248 C249 1.375 . S
C248 C254 1.404 1_455 S
C249 C248 1.375 . S
C249 C250 1.369 . S
C249 H262 0.950 . S
C250 C249 1.369 . S
C250 C251 1.392 . S
C250 H263 0.951 . S
C251 C250 1.392 . S
C251 C253 1.384 1_455 S
H252 C254 0.949 . S
C253 C251 1.384 1_655 S
C253 C254 1.385 . S
C253 H255 0.950 . S
C254 C248 1.404 1_655 S
C254 H252 0.949 . S
C254 C253 1.385 . S
H255 C253 0.950 . S
H256 C240 0.951 . S
H257 C242 0.951 . S
H258 C244 0.951 . S
H259 C245 0.950 . S
H260 C246 0.950 . S
H261 C247 0.950 . S
H262 C249 0.950 . S
H263 C250 0.951 . S
C264 C265 1.386 . S
C264 C266 1.383 . S
C264 H280 0.951 . S
C265 C264 1.386 . S
C265 C269 1.383 1_445 S
C266 C264 1.383 . S
C266 C267 1.402 1_545 S
C266 H281 0.951 . S
C267 C266 1.402 1_565 S
C267 C268 1.375 1_455 S
C267 C270 1.481 . S
C268 C267 1.375 1_655 S
C268 C269 1.367 . S
C268 H282 0.951 . S
C269 C265 1.383 1_665 S
C269 C268 1.367 . S
C269 H283 0.950 . S
C270 C267 1.481 . S
C270 C271 1.297 1_565 S
C270 H284 0.950 1_455 S
C271 C270 1.297 1_545 S
C271 C272 1.479 . S
C271 H285 0.950 . S
C272 C271 1.479 . S
C272 C273 1.375 . S
C272 C278 1.404 1_545 S
C273 C272 1.375 . S
C273 C274 1.369 . S
C273 H286 0.950 . S
C274 C273 1.369 . S
C274 C275 1.392 . S
C274 H287 0.951 . S
C275 C274 1.392 . S
C275 C277 1.384 1_545 S
H276 C278 0.949 . S
C277 C275 1.384 1_565 S
C277 C278 1.385 . S
C277 H279 0.950 1_455 S
C278 C272 1.404 1_565 S
C278 H276 0.949 . S
C278 C277 1.385 . S
H279 C277 0.950 1_655 S
H280 C264 0.951 . S
H281 C266 0.951 . S
H282 C268 0.951 . S
H283 C269 0.950 . S
H284 C270 0.950 1_655 S
H285 C271 0.950 . S
H286 C273 0.950 . S
H287 C274 0.951 . S
C288 C289 1.386 1_655 S
C288 C290 1.383 . S
C288 H304 0.951 . S
C289 C288 1.386 1_455 S
C289 C293 1.383 . S
C290 C288 1.383 . S
C290 C291 1.402 1_655 S
C290 H305 0.951 . S
C291 C290 1.402 1_455 S
C291 C292 1.375 . S
C291 C294 1.481 . S
C292 C291 1.375 . S
C292 C293 1.367 . S
C292 H306 0.951 . S
C293 C289 1.383 . S
C293 C292 1.367 . S
C293 H307 0.950 . S
C294 C291 1.481 . S
C294 C295 1.297 1_455 S
C294 H308 0.950 . S
C295 C294 1.297 1_655 S
C295 C296 1.479 . S
C295 H309 0.950 . S
C296 C295 1.479 . S
C296 C297 1.375 . S
C296 C302 1.404 1_655 S
C297 C296 1.375 . S
C297 C298 1.369 . S
C297 H310 0.950 . S
C298 C297 1.369 . S
C298 C299 1.392 1_655 S
C298 H311 0.951 . S
C299 C298 1.392 1_455 S
C299 C301 1.384 . S
H300 C302 0.949 . S
C301 C299 1.384 . S
C301 C302 1.385 . S
C301 H303 0.950 . S
C302 C296 1.404 1_455 S
C302 H300 0.949 . S
C302 C301 1.385 . S
H303 C301 0.950 . S
H304 C288 0.951 . S
H305 C290 0.951 . S
H306 C292 0.951 . S
H307 C293 0.950 . S
H308 C294 0.950 . S
H309 C295 0.950 . S
H310 C297 0.950 . S
H311 C298 0.951 . S
C312 C313 1.386 . S
C312 C314 1.383 . S
C312 H328 0.951 1_545 S
C313 C312 1.386 . S
C313 C317 1.383 . S
C314 C312 1.383 . S
C314 C315 1.402 . S
C314 H329 0.951 1_545 S
C315 C314 1.402 . S
C315 C316 1.375 . S
C315 C318 1.481 . S
C316 C315 1.375 . S
C316 C317 1.367 . S
C316 H330 0.951 . S
C317 C313 1.383 . S
C317 C316 1.367 . S
C317 H331 0.950 . S
C318 C315 1.481 . S
C318 C319 1.297 . S
C318 H332 0.950 . S
C319 C318 1.297 . S
C319 C320 1.479 . S
C319 H333 0.950 . S
C320 C319 1.479 . S
C320 C321 1.375 1_545 S
C320 C326 1.404 . S
C321 C320 1.375 1_565 S
C321 C322 1.369 . S
C321 H334 0.950 . S
C322 C321 1.369 . S
C322 C323 1.392 1_565 S
C322 H335 0.951 . S
C323 C322 1.392 1_545 S
C323 C325 1.384 . S
H324 C326 0.949 . S
C325 C323 1.384 . S
C325 C326 1.385 . S
C325 H327 0.950 . S
C326 C320 1.404 . S
C326 H324 0.949 . S
C326 C325 1.385 . S
H327 C325 0.950 . S
H328 C312 0.951 1_565 S
H329 C314 0.951 1_565 S
H330 C316 0.951 . S
H331 C317 0.950 . S
H332 C318 0.950 . S
H333 C319 0.950 . S
H334 C321 0.950 . S
H335 C322 0.951 . S
C121 C13 2.834 . S
C131 C24 2.813 . S
C145 C57 1.108 . S
C155 C66 1.070 . S
C169 C106 0.611 . S
C179 C97 0.740 . S
C193 C93 4.779 . S
C203 C104 4.761 . S
C217 C17 0.442 . S
C227 C26 0.471 . S
C241 C53 2.864 . S
C251 C64 2.856 . S
C265 C42 1.499 1_455 S
C275 C2 1.467 . S
C289 C63 1.472 . S
C299 C82 1.415 . S
C313 C103 1.477 . S
C323 C23 1.518 . S
