# Generated by pormake.
# Topology zni, (4)-cn, num edge types: 1
# Building blocks:
#     Node 0, Type 0, BuildingBlock: CEKHIL_clean_sbu_0, # of connection points: 4
#     Node 1, Type 0, BuildingBlock: CEKHIL_clean_sbu_0, # of connection points: 4
#     Node 2, Type 0, BuildingBlock: CEKHIL_clean_sbu_0, # of connection points: 4
#     Node 3, Type 0, BuildingBlock: CEKHIL_clean_sbu_0, # of connection points: 4
#     Node 4, Type 0, BuildingBlock: CEKHIL_clean_sbu_0, # of connection points: 4
#     Node 5, Type 0, BuildingBlock: CEKHIL_clean_sbu_0, # of connection points: 4
#     Node 6, Type 0, BuildingBlock: CEKHIL_clean_sbu_0, # of connection points: 4
#     Node 7, Type 0, BuildingBlock: CEKHIL_clean_sbu_0, # of connection points: 4
#     Node 8, Type 0, BuildingBlock: CEKHIL_clean_sbu_0, # of connection points: 4
#     Node 9, Type 0, BuildingBlock: CEKHIL_clean_sbu_0, # of connection points: 4
#     Node 10, Type 0, BuildingBlock: CEKHIL_clean_sbu_0, # of connection points: 4
#     Node 11, Type 0, BuildingBlock: CEKHIL_clean_sbu_0, # of connection points: 4
#     Node 12, Type 0, BuildingBlock: CEKHIL_clean_sbu_0, # of connection points: 4
#     Node 13, Type 0, BuildingBlock: CEKHIL_clean_sbu_0, # of connection points: 4
#     Node 14, Type 0, BuildingBlock: CEKHIL_clean_sbu_0, # of connection points: 4
#     Node 15, Type 0, BuildingBlock: CEKHIL_clean_sbu_0, # of connection points: 4
#     Node 16, Type 0, BuildingBlock: CEKHIL_clean_sbu_0, # of connection points: 4
#     Node 17, Type 0, BuildingBlock: CEKHIL_clean_sbu_0, # of connection points: 4
#     Node 18, Type 0, BuildingBlock: CEKHIL_clean_sbu_0, # of connection points: 4
#     Node 19, Type 0, BuildingBlock: CEKHIL_clean_sbu_0, # of connection points: 4
#     Node 20, Type 0, BuildingBlock: CEKHIL_clean_sbu_0, # of connection points: 4
#     Node 21, Type 0, BuildingBlock: CEKHIL_clean_sbu_0, # of connection points: 4
#     Node 22, Type 0, BuildingBlock: CEKHIL_clean_sbu_0, # of connection points: 4
#     Node 23, Type 0, BuildingBlock: CEKHIL_clean_sbu_0, # of connection points: 4
#     Node 24, Type 0, BuildingBlock: CEKHIL_clean_sbu_0, # of connection points: 4
#     Node 25, Type 0, BuildingBlock: CEKHIL_clean_sbu_0, # of connection points: 4
#     Node 26, Type 0, BuildingBlock: CEKHIL_clean_sbu_0, # of connection points: 4
#     Node 27, Type 0, BuildingBlock: CEKHIL_clean_sbu_0, # of connection points: 4
#     Node 28, Type 0, BuildingBlock: CEKHIL_clean_sbu_0, # of connection points: 4
#     Node 29, Type 0, BuildingBlock: CEKHIL_clean_sbu_0, # of connection points: 4
#     Node 30, Type 0, BuildingBlock: CEKHIL_clean_sbu_0, # of connection points: 4
#     Node 31, Type 0, BuildingBlock: CEKHIL_clean_sbu_0, # of connection points: 4
#     Edge 32, Type (0, 0), BuildingBlock: KIFKEQ_clean_linker_1, # of connection points: 2
#     Edge 33, Type (0, 0), BuildingBlock: KIFKEQ_clean_linker_1, # of connection points: 2
#     Edge 34, Type (0, 0), BuildingBlock: KIFKEQ_clean_linker_1, # of connection points: 2
#     Edge 35, Type (0, 0), BuildingBlock: KIFKEQ_clean_linker_1, # of connection points: 2
#     Edge 36, Type (0, 0), BuildingBlock: KIFKEQ_clean_linker_1, # of connection points: 2
#     Edge 37, Type (0, 0), BuildingBlock: KIFKEQ_clean_linker_1, # of connection points: 2
#     Edge 38, Type (0, 0), BuildingBlock: KIFKEQ_clean_linker_1, # of connection points: 2
#     Edge 39, Type (0, 0), BuildingBlock: KIFKEQ_clean_linker_1, # of connection points: 2
#     Edge 40, Type (0, 0), BuildingBlock: KIFKEQ_clean_linker_1, # of connection points: 2
#     Edge 41, Type (0, 0), BuildingBlock: KIFKEQ_clean_linker_1, # of connection points: 2
#     Edge 42, Type (0, 0), BuildingBlock: KIFKEQ_clean_linker_1, # of connection points: 2
#     Edge 43, Type (0, 0), BuildingBlock: KIFKEQ_clean_linker_1, # of connection points: 2
#     Edge 44, Type (0, 0), BuildingBlock: KIFKEQ_clean_linker_1, # of connection points: 2
#     Edge 45, Type (0, 0), BuildingBlock: KIFKEQ_clean_linker_1, # of connection points: 2
#     Edge 46, Type (0, 0), BuildingBlock: KIFKEQ_clean_linker_1, # of connection points: 2
#     Edge 47, Type (0, 0), BuildingBlock: KIFKEQ_clean_linker_1, # of connection points: 2
#     Edge 48, Type (0, 0), BuildingBlock: KIFKEQ_clean_linker_1, # of connection points: 2
#     Edge 49, Type (0, 0), BuildingBlock: KIFKEQ_clean_linker_1, # of connection points: 2
#     Edge 50, Type (0, 0), BuildingBlock: KIFKEQ_clean_linker_1, # of connection points: 2
#     Edge 51, Type (0, 0), BuildingBlock: KIFKEQ_clean_linker_1, # of connection points: 2
#     Edge 52, Type (0, 0), BuildingBlock: KIFKEQ_clean_linker_1, # of connection points: 2
#     Edge 53, Type (0, 0), BuildingBlock: KIFKEQ_clean_linker_1, # of connection points: 2
#     Edge 54, Type (0, 0), BuildingBlock: KIFKEQ_clean_linker_1, # of connection points: 2
#     Edge 55, Type (0, 0), BuildingBlock: KIFKEQ_clean_linker_1, # of connection points: 2
#     Edge 56, Type (0, 0), BuildingBlock: KIFKEQ_clean_linker_1, # of connection points: 2
#     Edge 57, Type (0, 0), BuildingBlock: KIFKEQ_clean_linker_1, # of connection points: 2
#     Edge 58, Type (0, 0), BuildingBlock: KIFKEQ_clean_linker_1, # of connection points: 2
#     Edge 59, Type (0, 0), BuildingBlock: KIFKEQ_clean_linker_1, # of connection points: 2
#     Edge 60, Type (0, 0), BuildingBlock: KIFKEQ_clean_linker_1, # of connection points: 2
#     Edge 61, Type (0, 0), BuildingBlock: KIFKEQ_clean_linker_1, # of connection points: 2
#     Edge 62, Type (0, 0), BuildingBlock: KIFKEQ_clean_linker_1, # of connection points: 2
#     Edge 63, Type (0, 0), BuildingBlock: KIFKEQ_clean_linker_1, # of connection points: 2
#     Edge 64, Type (0, 0), BuildingBlock: KIFKEQ_clean_linker_1, # of connection points: 2
#     Edge 65, Type (0, 0), BuildingBlock: KIFKEQ_clean_linker_1, # of connection points: 2
#     Edge 66, Type (0, 0), BuildingBlock: KIFKEQ_clean_linker_1, # of connection points: 2
#     Edge 67, Type (0, 0), BuildingBlock: KIFKEQ_clean_linker_1, # of connection points: 2
#     Edge 68, Type (0, 0), BuildingBlock: KIFKEQ_clean_linker_1, # of connection points: 2
#     Edge 69, Type (0, 0), BuildingBlock: KIFKEQ_clean_linker_1, # of connection points: 2
#     Edge 70, Type (0, 0), BuildingBlock: KIFKEQ_clean_linker_1, # of connection points: 2
#     Edge 71, Type (0, 0), BuildingBlock: KIFKEQ_clean_linker_1, # of connection points: 2
#     Edge 72, Type (0, 0), BuildingBlock: KIFKEQ_clean_linker_1, # of connection points: 2
#     Edge 73, Type (0, 0), BuildingBlock: KIFKEQ_clean_linker_1, # of connection points: 2
#     Edge 74, Type (0, 0), BuildingBlock: KIFKEQ_clean_linker_1, # of connection points: 2
#     Edge 75, Type (0, 0), BuildingBlock: KIFKEQ_clean_linker_1, # of connection points: 2
#     Edge 76, Type (0, 0), BuildingBlock: KIFKEQ_clean_linker_1, # of connection points: 2
#     Edge 77, Type (0, 0), BuildingBlock: KIFKEQ_clean_linker_1, # of connection points: 2
#     Edge 78, Type (0, 0), BuildingBlock: KIFKEQ_clean_linker_1, # of connection points: 2
#     Edge 79, Type (0, 0), BuildingBlock: KIFKEQ_clean_linker_1, # of connection points: 2
#     Edge 80, Type (0, 0), BuildingBlock: KIFKEQ_clean_linker_1, # of connection points: 2
#     Edge 81, Type (0, 0), BuildingBlock: KIFKEQ_clean_linker_1, # of connection points: 2
#     Edge 82, Type (0, 0), BuildingBlock: KIFKEQ_clean_linker_1, # of connection points: 2
#     Edge 83, Type (0, 0), BuildingBlock: KIFKEQ_clean_linker_1, # of connection points: 2
#     Edge 84, Type (0, 0), BuildingBlock: KIFKEQ_clean_linker_1, # of connection points: 2
#     Edge 85, Type (0, 0), BuildingBlock: KIFKEQ_clean_linker_1, # of connection points: 2
#     Edge 86, Type (0, 0), BuildingBlock: KIFKEQ_clean_linker_1, # of connection points: 2
#     Edge 87, Type (0, 0), BuildingBlock: KIFKEQ_clean_linker_1, # of connection points: 2
#     Edge 88, Type (0, 0), BuildingBlock: KIFKEQ_clean_linker_1, # of connection points: 2
#     Edge 89, Type (0, 0), BuildingBlock: KIFKEQ_clean_linker_1, # of connection points: 2
#     Edge 90, Type (0, 0), BuildingBlock: KIFKEQ_clean_linker_1, # of connection points: 2
#     Edge 91, Type (0, 0), BuildingBlock: KIFKEQ_clean_linker_1, # of connection points: 2
#     Edge 92, Type (0, 0), BuildingBlock: KIFKEQ_clean_linker_1, # of connection points: 2
#     Edge 93, Type (0, 0), BuildingBlock: KIFKEQ_clean_linker_1, # of connection points: 2
#     Edge 94, Type (0, 0), BuildingBlock: KIFKEQ_clean_linker_1, # of connection points: 2
#     Edge 95, Type (0, 0), BuildingBlock: KIFKEQ_clean_linker_1, # of connection points: 2
# Relax obj value: 0.226
# Max RMSD: 0.114
# Mean RMSD: 0.114
data_MOF--net-zni--node1-CEKHIL_clean_sbu_0--edge1-KIFKEQ_clean_linker_1
_symmetry_space_group_name_H-M    P1
_symmetry_Int_Tables_number       1
_symmetry_cell_setting            triclinic
loop_
_symmetry_equiv_pos_as_xyz
'x, y, z'
_cell_length_a     58.822557
_cell_length_b     58.81976
_cell_length_c     29.905618
_cell_angle_alpha  90.000025
_cell_angle_beta   89.998343
_cell_angle_gamma 89.997274
loop_
_atom_site_label
_atom_site_type_symbol
_atom_site_fract_x
_atom_site_fract_y
_atom_site_fract_z
_atom_type_partial_charge
Co0 Co 0.08595 0.08894 0.41692 0.0
O1 O 0.07938 0.05736 0.40622 0.0
O2 O 0.0894 0.08234 0.35428 0.0
C3 C 0.10814 0.08365 0.47701 0.0
O4 O 0.09496 0.12225 0.41449 0.0
Co5 Co 0.07155 0.11386 0.50348 0.0
O6 O 0.09243 0.13821 0.48248 0.0
C7 C 0.03735 0.10475 0.4332 0.0
C8 C 0.08377 0.06161 0.36446 0.0
C9 C 0.09848 0.13884 0.44159 0.0
O10 O 0.05305 0.09698 0.40743 0.0
O11 O 0.04103 0.11092 0.47365 0.0
O12 O 0.11657 0.08147 0.43709 0.0
O13 O 0.0865 0.08713 0.47943 0.0
Co14 Co 0.16185 0.83296 0.67518 0.0
O15 O 0.19356 0.82735 0.6636 0.0
O16 O 0.16802 0.83759 0.61273 0.0
C17 C 0.16656 0.85407 0.73705 0.0
O18 O 0.12844 0.84157 0.67392 0.0
Co19 Co 0.1375 0.81598 0.76063 0.0
O20 O 0.11197 0.83566 0.74059 0.0
C21 C 0.14727 0.78361 0.68772 0.0
C22 C 0.18892 0.83232 0.62224 0.0
C23 C 0.11148 0.84337 0.70079 0.0
O24 O 0.15435 0.80009 0.66311 0.0
O25 O 0.14139 0.7862 0.72864 0.0
O26 O 0.16887 0.86327 0.69777 0.0
O27 O 0.16369 0.8323 0.73762 0.0
Co28 Co 0.4137 0.91251 0.92404 0.0
O29 O 0.42093 0.94388 0.91249 0.0
O30 O 0.40895 0.91911 0.86178 0.0
C31 C 0.39306 0.91829 0.9861 0.0
O32 O 0.40352 0.87954 0.92261 0.0
Co33 Co 0.42964 0.88725 0.00914 0.0
O34 O 0.40909 0.86249 0.98881 0.0
C35 C 0.46234 0.89582 0.93613 0.0
C36 C 0.41541 0.93969 0.87122 0.0
C37 C 0.40122 0.86249 0.94911 0.0
O38 O 0.44614 0.90349 0.91149 0.0
O39 O 0.45952 0.89009 0.97708 0.0
O40 O 0.38383 0.92085 0.94695 0.0
O41 O 0.41465 0.91432 0.9866 0.0
Co42 Co 0.33706 0.16137 0.17375 0.0
O43 O 0.30559 0.16731 0.16085 0.0
O44 O 0.33103 0.1549 0.11182 0.0
C45 C 0.33169 0.14205 0.23768 0.0
O46 O 0.37037 0.15238 0.17448 0.0
Co47 Co 0.36064 0.18082 0.25819 0.0
O48 O 0.38668 0.16127 0.24009 0.0
C49 C 0.35029 0.21108 0.18248 0.0
C50 C 0.31021 0.16096 0.12023 0.0
C51 C 0.38735 0.152 0.20157 0.0
O52 O 0.34514 0.19373 0.15837 0.0
O53 O 0.35473 0.20976 0.22432 0.0
O54 O 0.32942 0.13185 0.19937 0.0
O55 O 0.33479 0.16377 0.23594 0.0
Co56 Co 0.08377 0.91035 0.07944 0.0
O57 O 0.07608 0.94163 0.09074 0.0
O58 O 0.08913 0.91734 0.14134 0.0
C59 C 0.1036 0.91608 0.01624 0.0
O60 O 0.09459 0.87755 0.08084 0.0
Co61 Co 0.06719 0.88451 0.99529 0.0
O62 O 0.08862 0.86037 0.01486 0.0
C63 C 0.03517 0.89327 0.06936 0.0
C64 C 0.08219 0.93776 0.13181 0.0
C65 C 0.09697 0.86055 0.05418 0.0
O66 O 0.05161 0.90086 0.09351 0.0
O67 O 0.03761 0.88757 0.02831 0.0
O68 O 0.11319 0.91923 0.05492 0.0
O69 O 0.08208 0.91177 0.01704 0.0
Co70 Co 0.33656 0.83603 0.33 0.0
O71 O 0.30468 0.83153 0.34145 0.0
O72 O 0.33085 0.83876 0.39308 0.0
C73 C 0.33235 0.85939 0.27127 0.0
O74 O 0.37035 0.84288 0.33177 0.0
Co75 Co 0.3599 0.82122 0.2421 0.0
O76 O 0.38533 0.84087 0.26287 0.0
C77 C 0.34982 0.7868 0.31138 0.0
C78 C 0.30969 0.8348 0.38328 0.0
C79 C 0.38672 0.84618 0.30408 0.0
O80 O 0.34263 0.80258 0.33758 0.0
O81 O 0.35614 0.79056 0.27104 0.0
O82 O 0.33098 0.86736 0.31171 0.0
O83 O 0.33434 0.83761 0.26759 0.0
Co84 Co 0.41441 0.08905 0.58232 0.0
O85 O 0.4214 0.05766 0.59419 0.0
O86 O 0.40977 0.08269 0.64473 0.0
C87 C 0.39359 0.08323 0.52042 0.0
O88 O 0.40467 0.12217 0.58331 0.0
Co89 Co 0.4301 0.1139 0.49639 0.0
O90 O 0.40812 0.13778 0.51515 0.0
C91 C 0.46304 0.10546 0.5693 0.0
C92 C 0.41602 0.06203 0.63546 0.0
C93 C 0.40127 0.13851 0.55554 0.0
O94 O 0.44694 0.09781 0.59425 0.0
O95 O 0.46004 0.11124 0.52841 0.0
O96 O 0.38442 0.08078 0.55968 0.0
O97 O 0.41521 0.08705 0.51994 0.0
Co98 Co 0.16232 0.15922 0.82838 0.0
O99 O 0.19388 0.16506 0.84064 0.0
O100 O 0.16838 0.1539 0.8907 0.0
C101 C 0.16753 0.13867 0.76607 0.0
O102 O 0.12895 0.15053 0.82876 0.0
Co103 Co 0.13853 0.17694 0.74289 0.0
O104 O 0.11243 0.15789 0.76269 0.0
C105 C 0.14911 0.20876 0.81604 0.0
C106 C 0.18926 0.15953 0.88172 0.0
C107 C 0.11188 0.14953 0.80201 0.0
O108 O 0.15458 0.19194 0.84132 0.0
O109 O 0.14433 0.20656 0.77449 0.0
O110 O 0.16948 0.12912 0.80506 0.0
O111 O 0.16455 0.16041 0.76597 0.0
Co112 Co 0.91451 0.9113 0.57875 0.0
O113 O 0.92257 0.9423 0.59179 0.0
O114 O 0.90976 0.91729 0.64126 0.0
C115 C 0.89413 0.91821 0.51672 0.0
O116 O 0.90345 0.87859 0.57835 0.0
Co117 Co 0.93019 0.8868 0.4924 0.0
O118 O 0.90899 0.86232 0.51132 0.0
C119 C 0.96278 0.89358 0.56629 0.0
C120 C 0.91677 0.9378 0.63279 0.0
C121 C 0.90091 0.86197 0.55085 0.0
O122 O 0.94666 0.90124 0.59116 0.0
O123 O 0.96 0.88853 0.52499 0.0
O124 O 0.88497 0.92084 0.55593 0.0
O125 O 0.91564 0.91376 0.51641 0.0
Co126 Co 0.83649 0.16239 0.32915 0.0
O127 O 0.80499 0.1688 0.34116 0.0
O128 O 0.83057 0.15881 0.39199 0.0
C129 C 0.83102 0.14018 0.26912 0.0
O130 O 0.8698 0.15341 0.33019 0.0
Co131 Co 0.86033 0.17747 0.24183 0.0
O132 O 0.88593 0.15817 0.26284 0.0
C133 C 0.85154 0.2113 0.31264 0.0
C134 C 0.80971 0.16437 0.38272 0.0
C135 C 0.88663 0.15113 0.30312 0.0
O136 O 0.84447 0.19537 0.33865 0.0
O137 O 0.85707 0.20787 0.27177 0.0
O138 O 0.82904 0.13176 0.3091 0.0
O139 O 0.83414 0.16188 0.26668 0.0
Co140 Co 0.58678 0.08953 0.08184 0.0
O141 O 0.57925 0.05821 0.09316 0.0
O142 O 0.59191 0.08265 0.14386 0.0
C143 C 0.60692 0.08386 0.01898 0.0
O144 O 0.59741 0.12237 0.08332 0.0
Co145 Co 0.57048 0.1152 0.99727 0.0
O146 O 0.5918 0.1394 0.01707 0.0
C147 C 0.53815 0.1064 0.07083 0.0
C148 C 0.58516 0.06218 0.13431 0.0
C149 C 0.59991 0.13931 0.05659 0.0
O150 O 0.5545 0.09888 0.09531 0.0
O151 O 0.54078 0.11206 0.02979 0.0
O152 O 0.61637 0.08081 0.05782 0.0
O153 O 0.58537 0.08802 0.01942 0.0
Co154 Co 0.66172 0.83632 0.83016 0.0
O155 O 0.69314 0.82978 0.84273 0.0
O156 O 0.66802 0.84252 0.89206 0.0
C157 C 0.66716 0.85567 0.76625 0.0
O158 O 0.6286 0.84592 0.83002 0.0
Co159 Co 0.63741 0.81752 0.74597 0.0
O160 O 0.6118 0.8375 0.76467 0.0
C161 C 0.6477 0.78687 0.82108 0.0
C162 C 0.6887 0.83607 0.88348 0.0
C163 C 0.61151 0.8467 0.80327 0.0
O164 O 0.65311 0.80407 0.84539 0.0
O165 O 0.64316 0.78839 0.77931 0.0
O166 O 0.66979 0.86576 0.80459 0.0
O167 O 0.6637 0.83401 0.7679 0.0
Co168 Co 0.91342 0.08612 0.92351 0.0
O169 O 0.92063 0.05474 0.9119 0.0
O170 O 0.90897 0.07965 0.86113 0.0
C171 C 0.89243 0.08038 0.98509 0.0
O172 O 0.90334 0.11911 0.92217 0.0
Co173 Co 0.92919 0.11115 0.00896 0.0
O174 O 0.9088 0.13603 0.98855 0.0
C175 C 0.96208 0.10273 0.93628 0.0
C176 C 0.91535 0.05904 0.87054 0.0
C177 C 0.90101 0.13611 0.94879 0.0
O178 O 0.94593 0.09507 0.91153 0.0
O179 O 0.95918 0.10845 0.97722 0.0
O180 O 0.88342 0.07784 0.94575 0.0
O181 O 0.91405 0.08422 0.98607 0.0
Co182 Co 0.66219 0.16573 0.67527 0.0
O183 O 0.69348 0.17286 0.6626 0.0
O184 O 0.66839 0.16023 0.61312 0.0
C185 C 0.66818 0.1458 0.73827 0.0
O186 O 0.62921 0.15556 0.67519 0.0
Co187 Co 0.6375 0.18279 0.7604 0.0
O188 O 0.6126 0.16206 0.74153 0.0
C189 C 0.64565 0.21454 0.6856 0.0
C190 C 0.68902 0.16682 0.62171 0.0
C191 C 0.61232 0.15368 0.70224 0.0
O192 O 0.65304 0.19801 0.66144 0.0
O193 O 0.64028 0.21224 0.72686 0.0
O194 O 0.6708 0.13618 0.69948 0.0
O195 O 0.66428 0.16741 0.73764 0.0
Co196 Co 0.58587 0.9113 0.42026 0.0
O197 O 0.57931 0.94285 0.40914 0.0
O198 O 0.5911 0.91809 0.35821 0.0
C199 C 0.60624 0.91629 0.48308 0.0
O200 O 0.59516 0.87812 0.4186 0.0
Co201 Co 0.56888 0.88616 0.50506 0.0
O202 O 0.59017 0.86173 0.4857 0.0
C203 C 0.53682 0.89623 0.4317 0.0
C204 C 0.58495 0.93874 0.3679 0.0
C205 C 0.59761 0.86133 0.44567 0.0
O206 O 0.5534 0.90289 0.4069 0.0
O207 O 0.53917 0.89082 0.47294 0.0
O208 O 0.61576 0.91902 0.44422 0.0
O209 O 0.58457 0.9128 0.48266 0.0
Co210 Co 0.83551 0.83664 0.17751 0.0
O211 O 0.80421 0.82974 0.16451 0.0
O212 O 0.8297 0.84145 0.11496 0.0
C213 C 0.8294 0.85742 0.23936 0.0
O214 O 0.86861 0.84644 0.17773 0.0
Co215 Co 0.85948 0.82039 0.26406 0.0
O216 O 0.88476 0.84055 0.24475 0.0
C217 C 0.85161 0.78783 0.19049 0.0
C218 C 0.80894 0.83526 0.12346 0.0
C219 C 0.88537 0.84843 0.20507 0.0
O220 O 0.84438 0.8041 0.16547 0.0
O221 O 0.85681 0.79059 0.23173 0.0
O222 O 0.82711 0.86659 0.20007 0.0
O223 O 0.83302 0.83576 0.23986 0.0
Co224 Co 0.58576 0.58705 0.9202 0.0
O225 O 0.5791 0.55562 0.90805 0.0
O226 O 0.59142 0.58066 0.85815 0.0
C227 C 0.60564 0.58157 0.98347 0.0
O228 O 0.59524 0.62019 0.91972 0.0
Co229 Co 0.56813 0.61168 0.00503 0.0
O230 O 0.58946 0.63632 0.98683 0.0
C231 C 0.53667 0.60218 0.93046 0.0
C232 C 0.58505 0.55999 0.86708 0.0
C233 C 0.59735 0.63688 0.94715 0.0
O234 O 0.55346 0.59574 0.90604 0.0
O235 O 0.53865 0.60723 0.97195 0.0
O236 O 0.61541 0.57898 0.94481 0.0
O237 O 0.58399 0.58515 0.98253 0.0
Co238 Co 0.66382 0.33717 0.16975 0.0
O239 O 0.69561 0.3325 0.15769 0.0
O240 O 0.66926 0.34017 0.10664 0.0
C241 C 0.66821 0.36021 0.22882 0.0
O242 O 0.63009 0.34437 0.16875 0.0
Co243 Co 0.64094 0.32162 0.25766 0.0
O244 O 0.61443 0.33964 0.23653 0.0
C245 C 0.65099 0.28772 0.18773 0.0
C246 C 0.69042 0.33597 0.116 0.0
C247 C 0.61329 0.34624 0.19601 0.0
O248 O 0.65755 0.30376 0.16152 0.0
O249 O 0.64519 0.29115 0.22846 0.0
O250 O 0.66963 0.36835 0.18852 0.0
O251 O 0.66626 0.33841 0.23213 0.0
Co252 Co 0.91219 0.41141 0.41685 0.0
O253 O 0.9185 0.44301 0.40601 0.0
O254 O 0.90773 0.41805 0.35445 0.0
C255 C 0.89124 0.41641 0.47889 0.0
O256 O 0.90289 0.37815 0.41511 0.0
Co257 Co 0.92869 0.38654 0.5022 0.0
O258 O 0.90835 0.36161 0.4819 0.0
C259 C 0.96125 0.39592 0.42937 0.0
C260 C 0.91349 0.43876 0.36454 0.0
C261 C 0.90069 0.36124 0.44204 0.0
O262 O 0.9449 0.40325 0.40467 0.0
O263 O 0.95852 0.39009 0.47028 0.0
O264 O 0.88202 0.41898 0.43969 0.0
O265 O 0.91293 0.41303 0.47923 0.0
Co266 Co 0.83662 0.66442 0.67456 0.0
O267 O 0.80519 0.67107 0.66213 0.0
O268 O 0.83039 0.65887 0.61244 0.0
C269 C 0.83094 0.64439 0.73753 0.0
O270 O 0.86975 0.65469 0.67412 0.0
Co271 Co 0.86136 0.68152 0.75957 0.0
O272 O 0.88656 0.66127 0.74022 0.0
C273 C 0.85224 0.71344 0.68543 0.0
C274 C 0.80967 0.66509 0.62121 0.0
C275 C 0.88679 0.65298 0.70085 0.0
O276 O 0.84523 0.69687 0.66094 0.0
O277 O 0.85772 0.71104 0.72662 0.0
O278 O 0.82847 0.63472 0.69874 0.0
O279 O 0.83462 0.66603 0.73691 0.0
Co280 Co 0.58468 0.41241 0.57467 0.0
O281 O 0.5779 0.44377 0.58734 0.0
O282 O 0.5895 0.41835 0.63716 0.0
C283 C 0.60547 0.41842 0.51296 0.0
O284 O 0.59442 0.37931 0.57489 0.0
Co285 Co 0.56841 0.38813 0.48876 0.0
O286 O 0.58863 0.3629 0.50814 0.0
C287 C 0.53581 0.39644 0.56203 0.0
C288 C 0.58339 0.43912 0.62844 0.0
C289 C 0.59653 0.36248 0.5478 0.0
O290 O 0.55211 0.40373 0.58686 0.0
O291 O 0.53855 0.39099 0.52091 0.0
O292 O 0.61466 0.42053 0.55225 0.0
O293 O 0.58382 0.41479 0.51217 0.0
Co294 Co 0.83686 0.33288 0.82165 0.0
O295 O 0.80529 0.32682 0.83376 0.0
O296 O 0.83084 0.33775 0.88406 0.0
C297 C 0.83148 0.35354 0.75935 0.0
O298 O 0.87013 0.34202 0.82243 0.0
Co299 Co 0.86131 0.31596 0.73628 0.0
O300 O 0.88665 0.33598 0.75587 0.0
C301 C 0.85219 0.28375 0.80985 0.0
C302 C 0.81 0.33211 0.87494 0.0
C303 C 0.88708 0.34387 0.79555 0.0
O304 O 0.84494 0.30021 0.83429 0.0
O305 O 0.85793 0.28627 0.76883 0.0
O306 O 0.82922 0.36292 0.79847 0.0
O307 O 0.83483 0.33183 0.75925 0.0
Co308 Co 0.91552 0.59 0.07954 0.0
O309 O 0.92203 0.5584 0.09011 0.0
O310 O 0.91121 0.58321 0.14189 0.0
C311 C 0.89442 0.58494 0.01775 0.0
O312 O 0.90595 0.62317 0.08169 0.0
Co313 Co 0.93148 0.61529 0.99432 0.0
O314 O 0.91102 0.64002 0.0151 0.0
C315 C 0.96438 0.60599 0.06663 0.0
C316 C 0.91695 0.56253 0.1316 0.0
C317 C 0.90348 0.64015 0.05505 0.0
O318 O 0.94821 0.59836 0.09142 0.0
O319 O 0.96144 0.61199 0.02586 0.0
O320 O 0.88536 0.58224 0.05705 0.0
O321 O 0.91607 0.58853 0.01709 0.0
Co322 Co 0.66187 0.66221 0.32907 0.0
O323 O 0.69338 0.6683 0.34142 0.0
O324 O 0.66801 0.65667 0.39131 0.0
C325 C 0.66711 0.64199 0.26615 0.0
O326 O 0.62854 0.6534 0.32928 0.0
Co327 Co 0.6379 0.68009 0.24368 0.0
O328 O 0.61284 0.65924 0.26178 0.0
C329 C 0.64789 0.71159 0.31791 0.0
C330 C 0.68881 0.66264 0.38245 0.0
C331 C 0.61195 0.6515 0.30156 0.0
O332 O 0.65381 0.69473 0.34267 0.0
O333 O 0.64298 0.70959 0.27636 0.0
O334 O 0.6694 0.6323 0.30496 0.0
O335 O 0.66398 0.66372 0.26676 0.0
Co336 Co 0.41424 0.40949 0.07721 0.0
O337 O 0.42159 0.44085 0.08882 0.0
O338 O 0.40968 0.41604 0.13953 0.0
C339 C 0.39346 0.41552 0.01528 0.0
O340 O 0.40407 0.37652 0.07874 0.0
Co341 Co 0.42921 0.38401 0.99153 0.0
O342 O 0.40721 0.36033 0.01108 0.0
C343 C 0.46248 0.39206 0.06417 0.0
C344 C 0.41607 0.43664 0.13009 0.0
C345 C 0.40049 0.35997 0.05156 0.0
O346 O 0.44666 0.40028 0.08911 0.0
O347 O 0.45922 0.3861 0.02345 0.0
O348 O 0.38435 0.41813 0.05455 0.0
O349 O 0.415 0.4113 0.01477 0.0
Co350 Co 0.33784 0.66527 0.82491 0.0
O351 O 0.30606 0.67072 0.83631 0.0
O352 O 0.33166 0.66096 0.88742 0.0
C353 C 0.33318 0.64389 0.76329 0.0
O354 O 0.37131 0.65705 0.82682 0.0
Co355 Co 0.36262 0.68139 0.73936 0.0
O356 O 0.3872 0.66037 0.75894 0.0
C357 C 0.35284 0.71438 0.81158 0.0
C358 C 0.31074 0.66607 0.87781 0.0
C359 C 0.38793 0.65396 0.79961 0.0
O360 O 0.34515 0.69821 0.83628 0.0
O361 O 0.35924 0.71138 0.77104 0.0
O362 O 0.33103 0.6348 0.80271 0.0
O363 O 0.33612 0.66564 0.76245 0.0
Co364 Co 0.08363 0.58678 0.57375 0.0
O365 O 0.0757 0.55553 0.58497 0.0
O366 O 0.0888 0.57973 0.63567 0.0
C367 C 0.10359 0.58095 0.51072 0.0
O368 O 0.09466 0.61949 0.57537 0.0
Co369 Co 0.06744 0.61283 0.48959 0.0
O370 O 0.0888 0.63694 0.50964 0.0
C371 C 0.03523 0.60451 0.56356 0.0
C372 C 0.08177 0.55936 0.62608 0.0
C373 C 0.09708 0.63659 0.54901 0.0
O374 O 0.05153 0.59655 0.58763 0.0
O375 O 0.03779 0.61028 0.52256 0.0
O376 O 0.11302 0.57767 0.5495 0.0
O377 O 0.08209 0.58541 0.51128 0.0
Co378 Co 0.16118 0.33843 0.32442 0.0
O379 O 0.19266 0.33242 0.33708 0.0
O380 O 0.16712 0.34395 0.38673 0.0
C381 C 0.1666 0.35875 0.26188 0.0
O382 O 0.12788 0.34737 0.32422 0.0
Co383 Co 0.13758 0.32036 0.23901 0.0
O384 O 0.11162 0.33982 0.25796 0.0
C385 C 0.14764 0.28888 0.31295 0.0
C386 C 0.18798 0.33811 0.37805 0.0
C387 C 0.11097 0.34841 0.29708 0.0
O388 O 0.15318 0.30582 0.33785 0.0
O389 O 0.14297 0.29086 0.2713 0.0
O390 O 0.16859 0.36839 0.30077 0.0
O391 O 0.16356 0.33701 0.26204 0.0
Co392 Co 0.41181 0.58742 0.41617 0.0
O393 O 0.41908 0.55604 0.40501 0.0
O394 O 0.40583 0.58027 0.3545 0.0
C395 C 0.39258 0.58215 0.48033 0.0
O396 O 0.40147 0.62033 0.41484 0.0
Co397 Co 0.42992 0.613 0.49952 0.0
O398 O 0.40923 0.63784 0.47978 0.0
C399 C 0.46094 0.60239 0.42514 0.0
C400 C 0.41278 0.55986 0.36404 0.0
C401 C 0.40017 0.63761 0.44104 0.0
O402 O 0.4439 0.59656 0.40076 0.0
O403 O 0.4592 0.60726 0.46673 0.0
O404 O 0.38252 0.57897 0.44211 0.0
O405 O 0.41413 0.58614 0.47845 0.0
Co406 Co 0.16437 0.66385 0.17272 0.0
O407 O 0.19598 0.6696 0.16039 0.0
O408 O 0.17007 0.6598 0.10992 0.0
C409 C 0.16949 0.64219 0.23376 0.0
O410 O 0.13097 0.6552 0.17215 0.0
Co411 Co 0.14065 0.68003 0.25951 0.0
O412 O 0.11505 0.66042 0.23958 0.0
C413 C 0.14976 0.71306 0.1874 0.0
C414 C 0.19103 0.66503 0.119 0.0
C415 C 0.11424 0.65307 0.19952 0.0
O416 O 0.15672 0.69682 0.16202 0.0
O417 O 0.1442 0.71008 0.22839 0.0
O418 O 0.17156 0.63334 0.19412 0.0
O419 O 0.16666 0.66395 0.23509 0.0
Co420 Co 0.08522 0.40882 0.91249 0.0
O421 O 0.0784 0.44028 0.90114 0.0
O422 O 0.089 0.4152 0.84982 0.0
C423 C 0.107 0.41451 0.97304 0.0
O424 O 0.09457 0.37559 0.91095 0.0
Co425 Co 0.07035 0.38425 0.99917 0.0
O426 O 0.09176 0.3601 0.97933 0.0
C427 C 0.03664 0.39259 0.92766 0.0
C428 C 0.08309 0.43592 0.85955 0.0
C429 C 0.09812 0.35925 0.93865 0.0
O430 O 0.05246 0.4004 0.90225 0.0
O431 O 0.04005 0.38668 0.96835 0.0
O432 O 0.11564 0.41665 0.93328 0.0
O433 O 0.08537 0.41091 0.97499 0.0
Co434 Co 0.33614 0.33804 0.66938 0.0
O435 O 0.30467 0.33167 0.65708 0.0
O436 O 0.32981 0.34405 0.60743 0.0
C437 C 0.33077 0.35769 0.73294 0.0
O438 O 0.36932 0.34745 0.66919 0.0
Co439 Co 0.36047 0.31964 0.75388 0.0
O440 O 0.38616 0.33939 0.73467 0.0
C441 C 0.34997 0.28859 0.67946 0.0
C442 C 0.30908 0.33784 0.61626 0.0
C443 C 0.38646 0.34833 0.69583 0.0
O444 O 0.34454 0.30565 0.65477 0.0
O445 O 0.3546 0.29037 0.72115 0.0
O446 O 0.32826 0.36765 0.69445 0.0
O447 O 0.33418 0.33601 0.73165 0.0
H448 H 0.07101 0.01741 0.37589 0.0
H449 H 0.09392 0.06513 0.27568 0.0
H450 H 0.06958 0.9875 0.31955 0.0
H451 H 0.093 0.03509 0.21954 0.0
H452 H 0.09573 0.93491 0.21885 0.0
H453 H 0.09559 0.96498 0.27488 0.0
H454 H 0.0665 0.01132 0.17842 0.0
H455 H 0.06714 0.98137 0.12206 0.0
C456 C 0.07579 0.0215 0.34184 0.0
C457 C 0.08261 0.0436 0.33019 0.0
C458 C 0.07509 0.00433 0.30963 0.0
C459 C 0.08123 0.00891 0.2651 0.0
C460 C 0.08788 0.03108 0.25343 0.0
C461 C 0.08854 0.04826 0.28564 0.0
C462 C 0.08927 0.9515 0.20964 0.0
C463 C 0.0815 0.9558 0.16605 0.0
C464 C 0.08906 0.9687 0.24181 0.0
C465 C 0.08103 0.99054 0.2311 0.0
C466 C 0.07308 0.99476 0.18755 0.0
C467 C 0.07333 0.97757 0.15535 0.0
H468 H 0.18352 0.82374 0.53365 0.0
H469 H 0.23406 0.8404 0.63291 0.0
H470 H 0.21275 0.82305 0.47612 0.0
H471 H 0.26319 0.84152 0.57519 0.0
H472 H 0.31493 0.82275 0.47039 0.0
H473 H 0.28573 0.82081 0.52792 0.0
H474 H 0.23593 0.84501 0.43245 0.0
H475 H 0.26493 0.84515 0.3745 0.0
C476 C 0.20092 0.82753 0.54294 0.0
C477 C 0.20662 0.83208 0.58755 0.0
C478 C 0.21771 0.82734 0.50993 0.0
C479 C 0.24049 0.83235 0.52065 0.0
C480 C 0.24602 0.83707 0.56554 0.0
C481 C 0.22931 0.83663 0.5987 0.0
C482 C 0.29768 0.82755 0.46189 0.0
C483 C 0.29209 0.83404 0.41816 0.0
C484 C 0.28092 0.82663 0.49492 0.0
C485 C 0.25831 0.83282 0.48519 0.0
C486 C 0.25293 0.83958 0.44125 0.0
C487 C 0.26958 0.83987 0.40799 0.0
H488 H 0.42966 0.01795 0.62607 0.0
H489 H 0.40407 0.06591 0.72328 0.0
H490 H 0.43045 0.98842 0.68324 0.0
H491 H 0.40437 0.03626 0.7802 0.0
H492 H 0.40333 0.93606 0.78346 0.0
H493 H 0.40395 0.96577 0.72667 0.0
H494 H 0.43054 0.01323 0.82379 0.0
H495 H 0.42944 0.98364 0.88086 0.0
C496 C 0.42416 0.02217 0.65963 0.0
C497 C 0.41678 0.04423 0.6702 0.0
C498 C 0.42449 0.00522 0.69231 0.0
C499 C 0.41743 0.00998 0.73623 0.0
C500 C 0.4102 0.03212 0.74682 0.0
C501 C 0.4099 0.04907 0.71415 0.0
C502 C 0.40934 0.95283 0.79266 0.0
C503 C 0.41629 0.95755 0.83662 0.0
C504 C 0.40982 0.96981 0.76006 0.0
C505 C 0.4173 0.99185 0.77072 0.0
C506 C 0.4244 0.9965 0.81466 0.0
C507 C 0.42389 0.97952 0.84729 0.0
H508 H 0.23369 0.17202 0.87291 0.0
H509 H 0.18483 0.14738 0.96935 0.0
H510 H 0.26292 0.1725 0.93065 0.0
H511 H 0.2142 0.14737 0.02687 0.0
H512 H 0.26598 0.17424 0.12789 0.0
H513 H 0.23681 0.17404 0.07006 0.0
H514 H 0.28523 0.14641 0.97592 0.0
H515 H 0.31456 0.14709 0.03354 0.0
C516 C 0.22922 0.16661 0.9064 0.0
C517 C 0.20697 0.15969 0.91664 0.0
C518 C 0.246 0.16676 0.93941 0.0
C519 C 0.24088 0.15995 0.98333 0.0
C520 C 0.21861 0.153 0.9935 0.0
C521 C 0.20182 0.15288 0.9605 0.0
C522 C 0.27039 0.16814 0.09484 0.0
C523 C 0.29255 0.1607 0.08522 0.0
C524 C 0.25365 0.1679 0.06178 0.0
C525 C 0.25869 0.16018 0.01843 0.0
C526 C 0.28088 0.15273 0.00885 0.0
C527 C 0.29764 0.153 0.04191 0.0
H528 H 0.90422 0.93358 0.72021 0.0
H529 H 0.9315 0.98159 0.6249 0.0
H530 H 0.90451 0.96293 0.77775 0.0
H531 H 0.93226 0.01082 0.6827 0.0
H532 H 0.90424 0.06303 0.78237 0.0
H533 H 0.90531 0.03353 0.72523 0.0
H534 H 0.93054 0.98555 0.82279 0.0
H535 H 0.92899 0.01496 0.88021 0.0
C536 C 0.91044 0.95036 0.71165 0.0
C537 C 0.91776 0.95532 0.66803 0.0
C538 C 0.91073 0.96713 0.74467 0.0
C539 C 0.91838 0.98921 0.73475 0.0
C540 C 0.92597 0.99406 0.69122 0.0
C541 C 0.92565 0.97729 0.65819 0.0
C542 C 0.91004 0.04619 0.79161 0.0
C543 C 0.91648 0.04128 0.83578 0.0
C544 C 0.91079 0.02933 0.7588 0.0
C545 C 0.91803 0.00721 0.76948 0.0
C546 C 0.92461 0.00236 0.81365 0.0
C547 C 0.92384 0.01922 0.84647 0.0
H548 H 0.76539 0.17722 0.37352 0.0
H549 H 0.81433 0.15408 0.47121 0.0
H550 H 0.73626 0.17879 0.43141 0.0
H551 H 0.78507 0.15512 0.52888 0.0
H552 H 0.73291 0.18139 0.6292 0.0
H553 H 0.76209 0.18173 0.57126 0.0
H554 H 0.71418 0.15303 0.47735 0.0
H555 H 0.68489 0.1532 0.53494 0.0
C556 C 0.76991 0.17241 0.40734 0.0
C557 C 0.79213 0.16551 0.41784 0.0
C558 C 0.75319 0.17319 0.44045 0.0
C559 C 0.75834 0.16703 0.48473 0.0
C560 C 0.78063 0.16026 0.49522 0.0
C561 C 0.79736 0.15953 0.46212 0.0
C562 C 0.72861 0.17521 0.59614 0.0
C563 C 0.70663 0.16726 0.5866 0.0
C564 C 0.74535 0.17529 0.56303 0.0
C565 C 0.74046 0.16737 0.51973 0.0
C566 C 0.71841 0.15953 0.5102 0.0
C567 C 0.70167 0.1595 0.54327 0.0
H568 H 0.59694 0.93528 0.28002 0.0
H569 H 0.57176 0.98289 0.37831 0.0
H570 H 0.59665 0.96521 0.22364 0.0
H571 H 0.571 0.0127 0.3217 0.0
H572 H 0.57097 0.01829 0.1243 0.0
H573 H 0.57019 0.98846 0.1809 0.0
H574 H 0.59746 0.03546 0.27815 0.0
H575 H 0.59777 0.06541 0.22184 0.0
C576 C 0.59123 0.95211 0.28951 0.0
C577 C 0.58442 0.95676 0.33359 0.0
C578 C 0.59093 0.96922 0.25716 0.0
C579 C 0.5838 0.99133 0.26821 0.0
C580 C 0.57688 0.99592 0.31228 0.0
C581 C 0.5772 0.97881 0.34464 0.0
C582 C 0.57674 0.02226 0.1578 0.0
C583 C 0.58443 0.04418 0.16865 0.0
C584 C 0.57641 0.00514 0.19015 0.0
C585 C 0.5838 0.00959 0.23399 0.0
C586 C 0.59138 0.03157 0.24483 0.0
C587 C 0.59168 0.04869 0.2125 0.0
H588 H 0.73276 0.82213 0.87559 0.0
H589 H 0.68446 0.84917 0.9706 0.0
H590 H 0.76182 0.82126 0.93369 0.0
H591 H 0.71365 0.84876 0.02845 0.0
H592 H 0.76457 0.8223 0.1313 0.0
H593 H 0.73555 0.82198 0.07307 0.0
H594 H 0.78466 0.84737 0.97789 0.0
H595 H 0.81378 0.84722 0.03585 0.0
C596 C 0.72838 0.82797 0.90883 0.0
C597 C 0.70634 0.83571 0.91856 0.0
C598 C 0.74506 0.82759 0.94205 0.0
C599 C 0.74004 0.83495 0.98567 0.0
C600 C 0.71797 0.84268 0.99534 0.0
C601 C 0.70128 0.84305 0.96213 0.0
C602 C 0.76917 0.82775 0.09791 0.0
C603 C 0.79144 0.83479 0.08812 0.0
C604 C 0.75252 0.8277 0.06463 0.0
C605 C 0.75779 0.8347 0.02089 0.0
C606 C 0.78012 0.84161 0.01111 0.0
C607 C 0.79678 0.84164 0.04438 0.0
H608 H 0.59555 0.43452 0.71597 0.0
H609 H 0.57036 0.48345 0.62024 0.0
H610 H 0.59584 0.4638 0.77361 0.0
H611 H 0.57017 0.51263 0.67815 0.0
H612 H 0.57105 0.51599 0.87565 0.0
H613 H 0.56991 0.48677 0.81787 0.0
H614 H 0.59705 0.53467 0.72215 0.0
H615 H 0.59771 0.56401 0.77968 0.0
C616 C 0.58993 0.4515 0.70732 0.0
C617 C 0.58297 0.45671 0.66359 0.0
C618 C 0.58998 0.46824 0.7404 0.0
C619 C 0.58304 0.49054 0.73044 0.0
C620 C 0.57592 0.49569 0.68672 0.0
C621 C 0.5759 0.47894 0.65363 0.0
C622 C 0.57675 0.52028 0.84226 0.0
C623 C 0.58447 0.54228 0.83217 0.0
C624 C 0.57621 0.50351 0.80922 0.0
C625 C 0.5834 0.5084 0.76545 0.0
C626 C 0.5911 0.53044 0.75541 0.0
C627 C 0.59161 0.54722 0.78843 0.0
H628 H 0.81576 0.3238 0.9635 0.0
H629 H 0.76479 0.33998 0.86479 0.0
H630 H 0.78679 0.32339 0.02153 0.0
H631 H 0.73593 0.34142 0.92299 0.0
H632 H 0.68465 0.32357 0.02926 0.0
H633 H 0.71353 0.32117 0.97119 0.0
H634 H 0.76394 0.34567 0.06512 0.0
H635 H 0.73524 0.34624 0.12366 0.0
C636 C 0.79832 0.32754 0.95444 0.0
C637 C 0.79242 0.33189 0.90985 0.0
C638 C 0.78169 0.32752 0.98773 0.0
C639 C 0.75887 0.33252 0.97732 0.0
C640 C 0.75313 0.337 0.93242 0.0
C641 C 0.76969 0.33637 0.89899 0.0
C642 C 0.70196 0.32834 0.03729 0.0
C643 C 0.70781 0.33504 0.08076 0.0
C644 C 0.71854 0.32716 0.00395 0.0
C645 C 0.74123 0.33328 0.0131 0.0
C646 C 0.74687 0.34027 0.05679 0.0
C647 C 0.7304 0.34082 0.09037 0.0
H648 H 0.90486 0.48368 0.37601 0.0
H649 H 0.92407 0.43417 0.27657 0.0
H650 H 0.90534 0.51342 0.31958 0.0
H651 H 0.92649 0.46405 0.22046 0.0
H652 H 0.90795 0.51776 0.11893 0.0
H653 H 0.90658 0.48793 0.17511 0.0
H654 H 0.92709 0.53657 0.27611 0.0
H655 H 0.92652 0.56659 0.22013 0.0
C656 C 0.90952 0.47929 0.34203 0.0
C657 C 0.91434 0.45672 0.33043 0.0
C658 C 0.91002 0.49637 0.30963 0.0
C659 C 0.91605 0.49135 0.2651 0.0
C660 C 0.92123 0.46865 0.25394 0.0
C661 C 0.92004 0.45148 0.28613 0.0
C662 C 0.91213 0.52196 0.15324 0.0
C663 C 0.91725 0.54439 0.16539 0.0
C664 C 0.91155 0.50483 0.18553 0.0
C665 C 0.91675 0.50964 0.23054 0.0
C666 C 0.9224 0.53216 0.24222 0.0
C667 C 0.92229 0.5494 0.21011 0.0
H668 H 0.68446 0.65054 0.47017 0.0
H669 H 0.73299 0.67598 0.3739 0.0
H670 H 0.71373 0.65123 0.52792 0.0
H671 H 0.7621 0.67715 0.43183 0.0
H672 H 0.76535 0.67828 0.62927 0.0
H673 H 0.73609 0.6781 0.57146 0.0
H674 H 0.78468 0.65129 0.47675 0.0
H675 H 0.81402 0.65195 0.53421 0.0
C676 C 0.70135 0.65637 0.4614 0.0
C677 C 0.70646 0.66316 0.41751 0.0
C678 C 0.71808 0.6569 0.49454 0.0
C679 C 0.74023 0.66425 0.48445 0.0
C680 C 0.74528 0.6711 0.44053 0.0
C681 C 0.72857 0.67054 0.4074 0.0
C682 C 0.76978 0.6724 0.59607 0.0
C683 C 0.79197 0.66515 0.58625 0.0
C684 C 0.75299 0.67216 0.56304 0.0
C685 C 0.75806 0.66466 0.51953 0.0
C686 C 0.7803 0.65746 0.50976 0.0
C687 C 0.79708 0.65773 0.54276 0.0
H688 H 0.42889 0.48097 0.12013 0.0
H689 H 0.40423 0.43282 0.21792 0.0
H690 H 0.4288 0.51077 0.17686 0.0
H691 H 0.40368 0.4627 0.27433 0.0
H692 H 0.42759 0.51623 0.37424 0.0
H693 H 0.42935 0.48649 0.31759 0.0
H694 H 0.40144 0.53291 0.21996 0.0
H695 H 0.40012 0.5628 0.27641 0.0
C696 C 0.42344 0.47676 0.15373 0.0
C697 C 0.41656 0.45457 0.16459 0.0
C698 C 0.42325 0.49386 0.18613 0.0
C699 C 0.41617 0.48911 0.23005 0.0
C700 C 0.40949 0.46684 0.24095 0.0
C701 C 0.40969 0.44975 0.20856 0.0
C702 C 0.42185 0.52009 0.34067 0.0
C703 C 0.4137 0.54183 0.32976 0.0
C704 C 0.42276 0.50302 0.30828 0.0
C705 C 0.41552 0.50734 0.2643 0.0
C706 C 0.40742 0.52913 0.2534 0.0
C707 C 0.40653 0.54621 0.2858 0.0
H708 H 0.18506 0.67529 0.03121 0.0
H709 H 0.23613 0.65625 0.1277 0.0
H710 H 0.21392 0.67696 0.97299 0.0
H711 H 0.26484 0.65606 0.06919 0.0
H712 H 0.31625 0.67633 0.96558 0.0
H713 H 0.28727 0.67748 0.02349 0.0
H714 H 0.23681 0.65629 0.92659 0.0
H715 H 0.26568 0.65701 0.86832 0.0
C716 C 0.20249 0.67117 0.03971 0.0
C717 C 0.20846 0.6657 0.08379 0.0
C718 C 0.21906 0.67193 0.00629 0.0
C719 C 0.24189 0.66657 0.01599 0.0
C720 C 0.24766 0.66084 0.06033 0.0
C721 C 0.23118 0.66074 0.09394 0.0
C722 C 0.2989 0.67205 0.95684 0.0
C723 C 0.29312 0.6666 0.91266 0.0
C724 C 0.28225 0.67249 0.99009 0.0
C725 C 0.25953 0.66683 0.98014 0.0
C726 C 0.25391 0.66124 0.93566 0.0
C727 C 0.27048 0.66146 0.90218 0.0
H728 H 0.06988 0.48001 0.87022 0.0
H729 H 0.09367 0.43221 0.77095 0.0
H730 H 0.06848 0.50975 0.81357 0.0
H731 H 0.09275 0.4621 0.71446 0.0
H732 H 0.09492 0.56231 0.71329 0.0
H733 H 0.0947 0.53228 0.76937 0.0
H734 H 0.06627 0.48572 0.67258 0.0
H735 H 0.06697 0.51565 0.61614 0.0
C736 C 0.07486 0.47587 0.83631 0.0
C737 C 0.08193 0.4538 0.82502 0.0
C738 C 0.07417 0.49294 0.80391 0.0
C739 C 0.08057 0.48831 0.75955 0.0
C740 C 0.08745 0.46615 0.74822 0.0
C741 C 0.0881 0.44906 0.78063 0.0
C742 C 0.08858 0.54568 0.70401 0.0
C743 C 0.081 0.54132 0.66031 0.0
C744 C 0.08833 0.52851 0.73621 0.0
C745 C 0.08045 0.50662 0.72544 0.0
C746 C 0.07272 0.50232 0.68177 0.0
C747 C 0.073 0.5195 0.64952 0.0
H748 H 0.23232 0.32533 0.36967 0.0
H749 H 0.18346 0.3505 0.46557 0.0
H750 H 0.2615 0.32498 0.42749 0.0
H751 H 0.21279 0.35062 0.52321 0.0
H752 H 0.26488 0.32445 0.62467 0.0
H753 H 0.23557 0.32424 0.56705 0.0
H754 H 0.28372 0.35145 0.47193 0.0
H755 H 0.31316 0.35119 0.52927 0.0
C756 C 0.22784 0.33087 0.40307 0.0
C757 C 0.20561 0.33794 0.41311 0.0
C758 C 0.24459 0.33079 0.43613 0.0
C759 C 0.23947 0.33782 0.47991 0.0
C760 C 0.2172 0.34485 0.48994 0.0
C761 C 0.20043 0.3449 0.45687 0.0
C762 C 0.2692 0.33037 0.59144 0.0
C763 C 0.29131 0.33781 0.58145 0.0
C764 C 0.25238 0.33037 0.55851 0.0
C765 C 0.25732 0.33784 0.51493 0.0
C766 C 0.27945 0.3453 0.50502 0.0
C767 C 0.29628 0.34527 0.53793 0.0
H768 H 0.12182 0.17175 0.48736 0.0
H769 H 0.09827 0.15351 0.3554 0.0
H770 H 0.13763 0.207 0.45756 0.0
H771 H 0.11277 0.18904 0.32603 0.0
H772 H 0.15229 0.24733 0.27352 0.0
H773 H 0.14414 0.21028 0.30596 0.0
H774 H 0.1269 0.24266 0.43138 0.0
H775 H 0.13645 0.27947 0.39949 0.0
C776 C 0.11994 0.17535 0.45202 0.0
C777 C 0.10879 0.15989 0.42374 0.0
C778 C 0.12889 0.19561 0.43491 0.0
C779 C 0.12651 0.20105 0.38926 0.0
C780 C 0.11549 0.18537 0.36109 0.0
C781 C 0.10696 0.16498 0.37801 0.0
C782 C 0.14706 0.24643 0.3082 0.0
C783 C 0.14487 0.26628 0.33387 0.0
C784 C 0.14218 0.2252 0.32679 0.0
C785 C 0.13444 0.22335 0.37122 0.0
C786 C 0.13305 0.24324 0.3973 0.0
C787 C 0.13842 0.26443 0.37894 0.0
H788 H 0.9763 0.90164 0.65281 0.0
H789 H 0.00046 0.87553 0.52622 0.0
H790 H 0.0128 0.89227 0.68698 0.0
H791 H 0.03649 0.86576 0.56056 0.0
H792 H 0.10562 0.86677 0.62274 0.0
H793 H 0.07046 0.88178 0.59192 0.0
H794 H 0.03398 0.85854 0.70871 0.0
H795 H 0.06934 0.84399 0.74023 0.0
C796 C 0.98938 0.894 0.6322 0.0
C797 C 0.98536 0.8893 0.58673 0.0
C798 C 0.01025 0.88851 0.65188 0.0
C799 C 0.02757 0.87824 0.62655 0.0
C800 C 0.02368 0.87397 0.58094 0.0
C801 C 0.00289 0.87947 0.56127 0.0
C802 C 0.09015 0.86497 0.64208 0.0
C803 C 0.09029 0.85394 0.68379 0.0
C804 C 0.06995 0.87351 0.62427 0.0
C805 C 0.04935 0.87114 0.64759 0.0
C806 C 0.04959 0.86083 0.69002 0.0
C807 C 0.06985 0.85236 0.70799 0.0
H808 H 0.37813 0.85752 0.87041 0.0
H809 H 0.39906 0.82031 0.98809 0.0
H810 H 0.36281 0.82275 0.83838 0.0
H811 H 0.38421 0.78539 0.95544 0.0
H812 H 0.34241 0.72804 0.89696 0.0
H813 H 0.35063 0.76465 0.93166 0.0
H814 H 0.37896 0.78874 0.80708 0.0
H815 H 0.37035 0.75253 0.77214 0.0
C816 C 0.3794 0.84195 0.88958 0.0
C817 C 0.39008 0.84169 0.93166 0.0
C818 C 0.37068 0.82198 0.87108 0.0
C819 C 0.3725 0.80123 0.89408 0.0
C820 C 0.38234 0.80111 0.93696 0.0
C821 C 0.39099 0.82114 0.95559 0.0
C822 C 0.35015 0.74123 0.8768 0.0
C823 C 0.35582 0.73723 0.83175 0.0
C824 C 0.35498 0.76218 0.89681 0.0
C825 C 0.36555 0.7796 0.87224 0.0
C826 C 0.37054 0.77583 0.82687 0.0
C827 C 0.36571 0.75494 0.80687 0.0
H828 H 0.39414 0.1265 0.12634 0.0
H829 H 0.42935 0.15364 0.24149 0.0
H830 H 0.42995 0.11227 0.09693 0.0
H831 H 0.46531 0.13981 0.21138 0.0
H832 H 0.52521 0.09884 0.15795 0.0
H833 H 0.48825 0.10664 0.19187 0.0
H834 H 0.46296 0.12985 0.06415 0.0
H835 H 0.49946 0.12169 0.03015 0.0
C836 C 0.40949 0.12937 0.14553 0.0
C837 C 0.40887 0.14147 0.18607 0.0
C838 C 0.43006 0.12127 0.12853 0.0
C839 C 0.45054 0.12515 0.15149 0.0
C840 C 0.44982 0.13638 0.19298 0.0
C841 C 0.4292 0.14443 0.21013 0.0
C842 C 0.5117 0.10541 0.13702 0.0
C843 C 0.5154 0.1097 0.09129 0.0
C844 C 0.49055 0.10999 0.15654 0.0
C845 C 0.47264 0.11887 0.13075 0.0
C846 C 0.47624 0.12269 0.0849 0.0
C847 C 0.4973 0.11814 0.06543 0.0
H848 H 0.15861 0.72693 0.10141 0.0
H849 H 0.13315 0.75114 0.22846 0.0
H850 H 0.14956 0.76357 0.06761 0.0
H851 H 0.12363 0.78733 0.19447 0.0
H852 H 0.1215 0.85604 0.13137 0.0
H853 H 0.13821 0.82158 0.1621 0.0
H854 H 0.11549 0.78387 0.04643 0.0
H855 H 0.09931 0.81846 0.01504 0.0
C856 C 0.15125 0.74007 0.12225 0.0
C857 C 0.14648 0.73597 0.16765 0.0
C858 C 0.14593 0.76103 0.10276 0.0
C859 C 0.13574 0.77836 0.12822 0.0
C860 C 0.13173 0.77451 0.17394 0.0
C861 C 0.13708 0.75362 0.19341 0.0
C862 C 0.12023 0.84045 0.11224 0.0
C863 C 0.10882 0.84 0.07093 0.0
C864 C 0.12976 0.82066 0.12998 0.0
C865 C 0.128 0.79988 0.10699 0.0
C866 C 0.11737 0.7996 0.06486 0.0
C867 C 0.10794 0.81944 0.04697 0.0
H868 H 0.49537 0.89883 0.47214 0.0
H869 H 0.52739 0.88615 0.34466 0.0
H870 H 0.45847 0.88989 0.43987 0.0
H871 H 0.49075 0.87582 0.31283 0.0
H872 H 0.41916 0.87026 0.25851 0.0
H873 H 0.45452 0.88594 0.28815 0.0
H874 H 0.43837 0.858 0.41819 0.0
H875 H 0.40273 0.8436 0.38908 0.0
C876 C 0.49448 0.89412 0.43716 0.0
C877 C 0.51425 0.89304 0.411 0.0
C878 C 0.47334 0.88879 0.41866 0.0
C879 C 0.47153 0.88169 0.37382 0.0
C880 C 0.49131 0.88143 0.34728 0.0
C881 C 0.51239 0.88725 0.36558 0.0
C882 C 0.42323 0.86761 0.29345 0.0
C883 C 0.40821 0.85572 0.32148 0.0
C884 C 0.44353 0.87651 0.31047 0.0
C885 C 0.44942 0.87335 0.35573 0.0
C886 C 0.43429 0.86136 0.38352 0.0
C887 C 0.41387 0.85288 0.36673 0.0
H888 H 0.39892 0.15319 0.64162 0.0
H889 H 0.3791 0.17136 0.50725 0.0
H890 H 0.38364 0.18871 0.66927 0.0
H891 H 0.36249 0.20663 0.53524 0.0
H892 H 0.36279 0.27924 0.59377 0.0
H893 H 0.37261 0.24232 0.56249 0.0
H894 H 0.35184 0.21 0.68591 0.0
H895 H 0.34347 0.24711 0.71783 0.0
C896 C 0.39087 0.16462 0.61805 0.0
C897 C 0.39032 0.15951 0.57221 0.0
C898 C 0.38188 0.18501 0.63398 0.0
C899 C 0.37167 0.2007 0.60463 0.0
C900 C 0.37055 0.19523 0.55882 0.0
C901 C 0.37996 0.17495 0.54274 0.0
C902 C 0.3601 0.26418 0.61393 0.0
C903 C 0.35265 0.26604 0.65839 0.0
C904 C 0.36562 0.24293 0.59595 0.0
C905 C 0.36337 0.22303 0.62178 0.0
C906 C 0.35451 0.22492 0.66538 0.0
C907 C 0.34951 0.24618 0.68364 0.0
H908 H 0.10561 0.12575 0.8795 0.0
H909 H 0.06971 0.14986 0.76259 0.0
H910 H 0.07015 0.11148 0.91033 0.0
H911 H 0.03407 0.13598 0.7941 0.0
H912 H 0.97548 0.09411 0.84993 0.0
H913 H 0.01219 0.10252 0.81572 0.0
H914 H 0.03657 0.1285 0.94205 0.0
H915 H 0.00026 0.11971 0.97643 0.0
C916 C 0.09017 0.12797 0.86026 0.0
C917 C 0.09051 0.1392 0.81873 0.0
C918 C 0.0698 0.11985 0.87808 0.0
C919 C 0.04922 0.12281 0.85495 0.0
C920 C 0.04964 0.13326 0.81264 0.0
C921 C 0.07008 0.14133 0.79468 0.0
C922 C 0.98874 0.10141 0.87054 0.0
C923 C 0.98483 0.10628 0.91597 0.0
C924 C 0.00974 0.10636 0.85081 0.0
C925 C 0.02731 0.11623 0.87609 0.0
C926 C 0.02354 0.1206 0.92171 0.0
C927 C 0.00261 0.11567 0.9414 0.0
H928 H 0.84357 0.72629 0.59868 0.0
H929 H 0.86821 0.75211 0.72513 0.0
H930 H 0.85152 0.76301 0.56397 0.0
H931 H 0.87661 0.78833 0.69031 0.0
H932 H 0.87593 0.85673 0.6272 0.0
H933 H 0.86032 0.82173 0.65772 0.0
H934 H 0.88471 0.7848 0.54239 0.0
H935 H 0.89979 0.81995 0.51117 0.0
C936 C 0.85055 0.73978 0.61916 0.0
C937 C 0.85535 0.73615 0.66471 0.0
C938 C 0.85521 0.76079 0.59918 0.0
C939 C 0.86474 0.77862 0.6243 0.0
C940 C 0.86894 0.77513 0.67006 0.0
C941 C 0.86426 0.75422 0.69 0.0
C942 C 0.87778 0.8412 0.60807 0.0
C943 C 0.88938 0.84112 0.56698 0.0
C944 C 0.86889 0.8211 0.62569 0.0
C945 C 0.87153 0.80039 0.60282 0.0
C946 C 0.88221 0.80047 0.56074 0.0
C947 C 0.89098 0.82063 0.54295 0.0
H948 H 0.92813 0.14866 0.26158 0.0
H949 H 0.89333 0.13016 0.38363 0.0
H950 H 0.96373 0.13469 0.29282 0.0
H951 H 0.92878 0.1157 0.41429 0.0
H952 H 0.00031 0.1236 0.47431 0.0
H953 H 0.96351 0.13212 0.44167 0.0
H954 H 0.98476 0.10149 0.31718 0.0
H955 H 0.02194 0.09339 0.3495 0.0
C956 C 0.92799 0.14134 0.29481 0.0
C957 C 0.90789 0.1408 0.32027 0.0
C958 C 0.9484 0.13319 0.31264 0.0
C959 C 0.94915 0.12423 0.35622 0.0
C960 C 0.92888 0.12289 0.38095 0.0
C961 C 0.90852 0.13111 0.36325 0.0
C962 C 0.99715 0.11846 0.4401 0.0
C963 C 0.01421 0.10793 0.4145 0.0
C964 C 0.97593 0.12324 0.42143 0.0
C965 C 0.97118 0.11755 0.37674 0.0
C966 C 0.98799 0.1064 0.3515 0.0
C967 C 0.00926 0.10164 0.37015 0.0
H968 H 0.63411 0.24995 0.22962 0.0
H969 H 0.66141 0.27289 0.10314 0.0
H970 H 0.62511 0.2134 0.19647 0.0
H971 H 0.65287 0.23595 0.07026 0.0
H972 H 0.60294 0.18116 0.01664 0.0
H973 H 0.61889 0.21585 0.04801 0.0
H974 H 0.63989 0.17875 0.16569 0.0
H975 H 0.62343 0.14418 0.13492 0.0
C976 C 0.63859 0.2471 0.19494 0.0
C977 C 0.64829 0.26452 0.169 0.0
C978 C 0.63353 0.22602 0.17595 0.0
C979 C 0.63814 0.22175 0.13058 0.0
C980 C 0.64875 0.23881 0.1051 0.0
C981 C 0.65377 0.25995 0.12408 0.0
C982 C 0.61115 0.18033 0.04901 0.0
C983 C 0.61162 0.15992 0.07347 0.0
C984 C 0.62044 0.20022 0.06691 0.0
C985 C 0.63053 0.20014 0.10956 0.0
C986 C 0.63187 0.17951 0.13313 0.0
C987 C 0.62249 0.15966 0.11536 0.0
H988 H 0.60573 0.87217 0.87885 0.0
H989 H 0.56927 0.84616 0.7642 0.0
H990 H 0.57046 0.8873 0.90902 0.0
H991 H 0.53384 0.86091 0.79506 0.0
H992 H 0.47541 0.90345 0.84918 0.0
H993 H 0.51206 0.89477 0.81494 0.0
H994 H 0.53703 0.87072 0.9423 0.0
H995 H 0.50079 0.87976 0.97667 0.0
C996 C 0.59022 0.86973 0.85993 0.0
C997 C 0.59033 0.8577 0.81929 0.0
C998 C 0.56996 0.87835 0.87738 0.0
C999 C 0.54928 0.87508 0.85475 0.0
C1000 C 0.5495 0.86388 0.8132 0.0
C1001 C 0.56981 0.85531 0.79561 0.0
C1002 C 0.48879 0.89653 0.87 0.0
C1003 C 0.48506 0.89224 0.91571 0.0
C1004 C 0.50976 0.89144 0.85027 0.0
C1005 C 0.52747 0.88201 0.87583 0.0
C1006 C 0.52389 0.87827 0.92172 0.0
C1007 C 0.50299 0.88334 0.94141 0.0
H1008 H 0.84288 0.27088 0.89624 0.0
H1009 H 0.86909 0.24523 0.77088 0.0
H1010 H 0.85122 0.23444 0.9316 0.0
H1011 H 0.87786 0.20923 0.80641 0.0
H1012 H 0.87711 0.14091 0.87105 0.0
H1013 H 0.86172 0.17565 0.83906 0.0
H1014 H 0.88473 0.21337 0.9545 0.0
H1015 H 0.89963 0.17846 0.98716 0.0
C1016 C 0.85028 0.25748 0.87612 0.0
C1017 C 0.8554 0.26108 0.83069 0.0
C1018 C 0.85518 0.23663 0.8965 0.0
C1019 C 0.86528 0.21893 0.87192 0.0
C1020 C 0.86978 0.22235 0.82624 0.0
C1021 C 0.86487 0.24312 0.80588 0.0
C1022 C 0.87873 0.15656 0.88986 0.0
C1023 C 0.88987 0.15692 0.93147 0.0
C1024 C 0.86997 0.17651 0.8714 0.0
C1025 C 0.87223 0.19736 0.89393 0.0
C1026 C 0.88252 0.19758 0.93639 0.0
C1027 C 0.89119 0.17757 0.95502 0.0
H1028 H 0.57041 0.15241 0.74242 0.0
H1029 H 0.60656 0.12984 0.62461 0.0
H1030 H 0.53507 0.13779 0.71115 0.0
H1031 H 0.57135 0.11477 0.59397 0.0
H1032 H 0.50101 0.12277 0.52898 0.0
H1033 H 0.53743 0.13139 0.56302 0.0
H1034 H 0.51367 0.10429 0.68891 0.0
H1035 H 0.47684 0.09606 0.65508 0.0
C1036 C 0.57091 0.14401 0.7102 0.0
C1037 C 0.5913 0.14258 0.6858 0.0
C1038 C 0.55064 0.13551 0.69237 0.0
C1039 C 0.55034 0.12531 0.64984 0.0
C1040 C 0.57091 0.12294 0.62641 0.0
C1041 C 0.59113 0.13151 0.64411 0.0
C1042 C 0.50352 0.11844 0.56383 0.0
C1043 C 0.48587 0.10884 0.58929 0.0
C1044 C 0.52453 0.12326 0.58332 0.0
C1045 C 0.52848 0.11855 0.62873 0.0
C1046 C 0.51107 0.10839 0.65398 0.0
C1047 C 0.48999 0.10356 0.63448 0.0
H1048 H 0.65344 0.75323 0.27941 0.0
H1049 H 0.63552 0.72065 0.40383 0.0
H1050 H 0.64519 0.79021 0.31211 0.0
H1051 H 0.62574 0.75737 0.43585 0.0
H1052 H 0.61962 0.82794 0.49279 0.0
H1053 H 0.63584 0.79275 0.46352 0.0
H1054 H 0.61393 0.81167 0.33046 0.0
H1055 H 0.59915 0.84713 0.35938 0.0
C1056 C 0.6477 0.75403 0.31381 0.0
C1057 C 0.64499 0.7341 0.33899 0.0
C1058 C 0.64276 0.77521 0.33253 0.0
C1059 C 0.63435 0.77692 0.37653 0.0
C1060 C 0.63241 0.75692 0.40214 0.0
C1061 C 0.6379 0.73578 0.38371 0.0
C1062 C 0.61851 0.82457 0.45725 0.0
C1063 C 0.60814 0.84028 0.42839 0.0
C1064 C 0.62769 0.80433 0.44041 0.0
C1065 C 0.62626 0.79918 0.39447 0.0
C1066 C 0.61596 0.81511 0.36578 0.0
C1067 C 0.60726 0.83547 0.38244 0.0
H1068 H 0.92733 0.84881 0.24517 0.0
H1069 H 0.8916 0.87209 0.12741 0.0
H1070 H 0.96301 0.86245 0.21358 0.0
H1071 H 0.92713 0.8862 0.09648 0.0
H1072 H 0.99669 0.87635 0.03042 0.0
H1073 H 0.96036 0.8685 0.06537 0.0
H1074 H 0.98547 0.89517 0.19061 0.0
H1075 H 0.02226 0.90262 0.1558 0.0
C1076 C 0.927 0.85716 0.2129 0.0
C1077 C 0.90663 0.85905 0.18857 0.0
C1078 C 0.94746 0.8651 0.19488 0.0
C1079 C 0.94797 0.87518 0.15225 0.0
C1080 C 0.92741 0.87807 0.12897 0.0
C1081 C 0.90701 0.87005 0.14683 0.0
C1082 C 0.99452 0.88073 0.06534 0.0
C1083 C 0.01252 0.89004 0.09028 0.0
C1084 C 0.97356 0.87636 0.08535 0.0
C1085 C 0.96995 0.88124 0.1308 0.0
C1086 C 0.98777 0.89098 0.15563 0.0
C1087 C 0.00883 0.89535 0.13559 0.0
H1088 H 0.63377 0.77812 0.90629 0.0
H1089 H 0.65523 0.74518 0.78447 0.0
H1090 H 0.62407 0.74135 0.9384 0.0
H1091 H 0.64707 0.70823 0.81733 0.0
H1092 H 0.60072 0.6509 0.86092 0.0
H1093 H 0.6156 0.6865 0.83298 0.0
H1094 H 0.63411 0.70613 0.96761 0.0
H1095 H 0.61781 0.67073 0.99582 0.0
C1096 C 0.63695 0.76292 0.88683 0.0
C1097 C 0.64497 0.76448 0.84272 0.0
C1098 C 0.63151 0.74176 0.9053 0.0
C1099 C 0.63443 0.72166 0.88035 0.0
C1100 C 0.64385 0.72329 0.83715 0.0
C1101 C 0.64874 0.74446 0.81835 0.0
C1102 C 0.60811 0.66273 0.88458 0.0
C1103 C 0.60802 0.65804 0.9306 0.0
C1104 C 0.61688 0.68317 0.86849 0.0
C1105 C 0.62626 0.69934 0.89787 0.0
C1106 C 0.6267 0.69434 0.94395 0.0
C1107 C 0.61748 0.67399 0.96018 0.0
H1108 H 0.49964 0.37307 0.02397 0.0
H1109 H 0.47704 0.40203 0.14926 0.0
H1110 H 0.53611 0.36409 0.05737 0.0
H1111 H 0.51396 0.39346 0.18244 0.0
H1112 H 0.57159 0.34703 0.23722 0.0
H1113 H 0.53564 0.36033 0.20609 0.0
H1114 H 0.57034 0.38108 0.08546 0.0
H1115 H 0.60607 0.36731 0.11592 0.0
C1116 C 0.50251 0.3778 0.05851 0.0
C1117 C 0.4853 0.38822 0.0839 0.0
C1118 C 0.52354 0.37276 0.07763 0.0
C1119 C 0.52799 0.37807 0.12261 0.0
C1120 C 0.51097 0.38889 0.14786 0.0
C1121 C 0.48986 0.39393 0.12872 0.0
C1122 C 0.57157 0.35456 0.20417 0.0
C1123 C 0.59169 0.35582 0.17888 0.0
C1124 C 0.55098 0.36231 0.18643 0.0
C1125 C 0.55008 0.37159 0.14311 0.0
C1126 C 0.57035 0.3736 0.11855 0.0
C1127 C 0.59087 0.36577 0.13615 0.0
H1128 H 0.84154 0.22635 0.39733 0.0
H1129 H 0.86929 0.24864 0.27078 0.0
H1130 H 0.85011 0.26343 0.42966 0.0
H1131 H 0.87832 0.2853 0.30337 0.0
H1132 H 0.87827 0.35514 0.36281 0.0
H1133 H 0.86287 0.31996 0.33255 0.0
H1134 H 0.88362 0.28427 0.45207 0.0
H1135 H 0.89848 0.31957 0.48293 0.0
C1136 C 0.84934 0.23915 0.3763 0.0
C1137 C 0.85482 0.23441 0.33146 0.0
C1138 C 0.85437 0.26038 0.39495 0.0
C1139 C 0.86501 0.27733 0.36922 0.0
C1140 C 0.86984 0.27279 0.32405 0.0
C1141 C 0.86477 0.25164 0.30539 0.0
C1142 C 0.8794 0.33984 0.38285 0.0
C1143 C 0.88983 0.34017 0.42516 0.0
C1144 C 0.87064 0.31963 0.36538 0.0
C1145 C 0.87219 0.29923 0.38967 0.0
C1146 C 0.88192 0.29971 0.43263 0.0
C1147 C 0.89058 0.31995 0.45022 0.0
H1148 H 0.89229 0.62892 0.62344 0.0
H1149 H 0.92904 0.65238 0.73983 0.0
H1150 H 0.92741 0.61405 0.5921 0.0
H1151 H 0.96432 0.63795 0.70782 0.0
H1152 H 0.02239 0.59594 0.65034 0.0
H1153 H 0.98592 0.60449 0.68547 0.0
H1154 H 0.9609 0.63077 0.55986 0.0
H1155 H 0.99692 0.62185 0.52459 0.0
C1156 C 0.90784 0.63085 0.64248 0.0
C1157 C 0.90785 0.6421 0.68397 0.0
C1158 C 0.92801 0.62239 0.62437 0.0
C1159 C 0.94873 0.62505 0.64716 0.0
C1160 C 0.94863 0.63546 0.68951 0.0
C1161 C 0.9284 0.64385 0.70777 0.0
C1162 C 0.00904 0.60335 0.63011 0.0
C1163 C 0.01268 0.60826 0.5846 0.0
C1164 C 0.98817 0.60836 0.65035 0.0
C1165 C 0.97048 0.61833 0.62552 0.0
C1166 C 0.974 0.62277 0.57986 0.0
C1167 C 0.99479 0.61777 0.55966 0.0
H1168 H 0.65368 0.22693 0.59837 0.0
H1169 H 0.62907 0.25317 0.72452 0.0
H1170 H 0.64507 0.2633 0.56287 0.0
H1171 H 0.62005 0.28907 0.68892 0.0
H1172 H 0.6213 0.35728 0.6243 0.0
H1173 H 0.63651 0.3223 0.65555 0.0
H1174 H 0.61157 0.28495 0.54121 0.0
H1175 H 0.59682 0.32013 0.50923 0.0
C1176 C 0.64656 0.24044 0.61862 0.0
C1177 C 0.64202 0.23704 0.66434 0.0
C1178 C 0.6415 0.26124 0.59817 0.0
C1179 C 0.63185 0.2791 0.62301 0.0
C1180 C 0.62781 0.27583 0.66888 0.0
C1181 C 0.63286 0.25512 0.68929 0.0
C1182 C 0.6192 0.34166 0.60556 0.0
C1183 C 0.60757 0.34148 0.56449 0.0
C1184 C 0.62787 0.32157 0.62361 0.0
C1185 C 0.625 0.30076 0.60121 0.0
C1186 C 0.61423 0.30071 0.55921 0.0
C1187 C 0.60566 0.32087 0.54098 0.0
H1188 H 0.02209 0.40237 0.84257 0.0
H1189 H 0.99918 0.37444 0.96855 0.0
H1190 H 0.98526 0.39364 0.80935 0.0
H1191 H 0.96272 0.36532 0.93506 0.0
H1192 H 0.89312 0.36657 0.8744 0.0
H1193 H 0.92834 0.3815 0.90518 0.0
H1194 H 0.96435 0.35991 0.78664 0.0
H1195 H 0.92897 0.34541 0.75524 0.0
C1196 C 0.0092 0.3945 0.86329 0.0
C1197 C 0.0137 0.38903 0.90825 0.0
C1198 C 0.98813 0.38937 0.84412 0.0
C1199 C 0.97106 0.3787 0.86946 0.0
C1200 C 0.97536 0.37381 0.9147 0.0
C1201 C 0.99637 0.37894 0.93387 0.0
C1202 C 0.90849 0.36514 0.85466 0.0
C1203 C 0.90822 0.35456 0.81248 0.0
C1204 C 0.92872 0.37363 0.87245 0.0
C1205 C 0.94921 0.3717 0.84861 0.0
C1206 C 0.94883 0.36187 0.80574 0.0
C1207 C 0.92855 0.35343 0.78783 0.0
H1208 H 0.84306 0.7742 0.10421 0.0
H1209 H 0.86923 0.74999 0.2307 0.0
H1210 H 0.85242 0.73773 0.06997 0.0
H1211 H 0.87904 0.714 0.1963 0.0
H1212 H 0.88002 0.64515 0.13331 0.0
H1213 H 0.86407 0.67983 0.16452 0.0
H1214 H 0.88626 0.71719 0.048 0.0
H1215 H 0.90167 0.68234 0.01612 0.0
C1216 C 0.85068 0.76111 0.1248 0.0
C1217 C 0.85547 0.76513 0.17022 0.0
C1218 C 0.85617 0.74024 0.10508 0.0
C1219 C 0.86656 0.72295 0.13031 0.0
C1220 C 0.87076 0.72679 0.17596 0.0
C1221 C 0.86524 0.74756 0.19567 0.0
C1222 C 0.88136 0.66071 0.11413 0.0
C1223 C 0.89235 0.66098 0.07238 0.0
C1224 C 0.87228 0.68064 0.13214 0.0
C1225 C 0.87408 0.70137 0.10901 0.0
C1226 C 0.88436 0.70149 0.06655 0.0
C1227 C 0.89334 0.68151 0.04837 0.0
H1228 H 0.57817 0.63122 0.25243 0.0
H1229 H 0.5973 0.64881 0.38747 0.0
H1230 H 0.54245 0.61538 0.28007 0.0
H1231 H 0.56139 0.63438 0.41482 0.0
H1232 H 0.5024 0.595 0.46263 0.0
H1233 H 0.53952 0.60302 0.43044 0.0
H1234 H 0.50707 0.62565 0.30841 0.0
H1235 H 0.4701 0.61608 0.3399 0.0
C1236 C 0.57468 0.63176 0.28798 0.0
C1237 C 0.59055 0.64121 0.31777 0.0
C1238 C 0.55415 0.62281 0.30387 0.0
C1239 C 0.54887 0.62349 0.34983 0.0
C1240 C 0.56493 0.63291 0.37942 0.0
C1241 C 0.58555 0.64141 0.36367 0.0
C1242 C 0.5033 0.60138 0.42869 0.0
C1243 C 0.48342 0.60509 0.40387 0.0
C1244 C 0.52457 0.60619 0.41027 0.0
C1245 C 0.52644 0.61547 0.367 0.0
C1246 C 0.50647 0.61833 0.34159 0.0
C1247 C 0.48521 0.61296 0.3597 0.0
H1248 H 0.3982 0.34636 0.13828 0.0
H1249 H 0.3784 0.32644 0.00484 0.0
H1250 H 0.38316 0.31111 0.16763 0.0
H1251 H 0.36203 0.29142 0.03455 0.0
H1252 H 0.36304 0.21955 0.09643 0.0
H1253 H 0.3725 0.25617 0.06344 0.0
H1254 H 0.35157 0.28976 0.18543 0.0
H1255 H 0.34357 0.25296 0.21909 0.0
C1256 C 0.39019 0.3346 0.11527 0.0
C1257 C 0.38959 0.33915 0.0692 0.0
C1258 C 0.38134 0.31436 0.13219 0.0
C1259 C 0.37122 0.29826 0.10363 0.0
C1260 C 0.37003 0.30316 0.05756 0.0
C1261 C 0.3793 0.3233 0.04049 0.0
C1262 C 0.36024 0.23482 0.11593 0.0
C1263 C 0.35285 0.23342 0.16049 0.0
C1264 C 0.36555 0.25589 0.09695 0.0
C1265 C 0.36314 0.27607 0.12186 0.0
C1266 C 0.35436 0.27462 0.16558 0.0
C1267 C 0.34957 0.25354 0.18485 0.0
H1268 H 0.42107 0.63095 0.75365 0.0
H1269 H 0.40253 0.65411 0.88571 0.0
H1270 H 0.45606 0.61466 0.78378 0.0
H1271 H 0.43778 0.6392 0.91539 0.0
H1272 H 0.4948 0.59838 0.96882 0.0
H1273 H 0.45816 0.60739 0.93548 0.0
H1274 H 0.49176 0.62431 0.81111 0.0
H1275 H 0.52813 0.61381 0.84387 0.0
C1276 C 0.42457 0.63267 0.78905 0.0
C1277 C 0.40906 0.64377 0.81731 0.0
C1278 C 0.44467 0.62344 0.80637 0.0
C1279 C 0.44989 0.62551 0.85219 0.0
C1280 C 0.43424 0.63666 0.88023 0.0
C1281 C 0.41402 0.64544 0.86311 0.0
C1282 C 0.49424 0.60373 0.93417 0.0
C1283 C 0.5143 0.60553 0.90903 0.0
C1284 C 0.47326 0.60911 0.91506 0.0
C1285 C 0.47188 0.61703 0.87068 0.0
C1286 C 0.49197 0.61805 0.84514 0.0
C1287 C 0.5129 0.61214 0.86399 0.0
H1288 H 0.12141 0.64079 0.62648 0.0
H1289 H 0.09921 0.67894 0.51088 0.0
H1290 H 0.13749 0.67523 0.65852 0.0
H1291 H 0.11478 0.71351 0.54357 0.0
H1292 H 0.15681 0.77061 0.6015 0.0
H1293 H 0.14847 0.73415 0.56626 0.0
H1294 H 0.12198 0.70898 0.69159 0.0
H1295 H 0.13076 0.745 0.72702 0.0
C1296 C 0.12003 0.65649 0.60776 0.0
C1297 C 0.10877 0.65712 0.5663 0.0
C1298 C 0.12918 0.67628 0.62626 0.0
C1299 C 0.12721 0.6972 0.60389 0.0
C1300 C 0.1168 0.69766 0.56155 0.0
C1301 C 0.10774 0.67783 0.5429 0.0
C1302 C 0.14947 0.7572 0.6217 0.0
C1303 C 0.14433 0.76085 0.6671 0.0
C1304 C 0.14457 0.73634 0.60138 0.0
C1305 C 0.13445 0.71866 0.626 0.0
C1306 C 0.13005 0.72208 0.67171 0.0
C1307 C 0.13497 0.74287 0.69201 0.0
H1308 H 0.10488 0.37371 0.37269 0.0
H1309 H 0.0688 0.34754 0.25773 0.0
H1310 H 0.06948 0.38862 0.40263 0.0
H1311 H 0.03321 0.36204 0.2884 0.0
H1312 H 0.97427 0.40385 0.34247 0.0
H1313 H 0.01105 0.3956 0.3083 0.0
H1314 H 0.03623 0.37186 0.43574 0.0
H1315 H -0.0001 0.3805 0.47002 0.0
C1316 C 0.08941 0.37117 0.35369 0.0
C1317 C 0.08967 0.35916 0.31303 0.0
C1318 C 0.06908 0.37967 0.37098 0.0
C1319 C 0.04846 0.37629 0.34821 0.0
C1320 C 0.04882 0.3651 0.30664 0.0
C1321 C 0.06922 0.35667 0.28918 0.0
C1322 C 0.98774 0.39711 0.36332 0.0
C1323 C 0.98404 0.39276 0.40903 0.0
C1324 C 0.00878 0.39226 0.34363 0.0
C1325 C 0.02657 0.38302 0.36923 0.0
C1326 C 0.02302 0.37927 0.41512 0.0
C1327 C 0.00207 0.3841 0.43477 0.0
H1328 H 0.37654 0.64293 0.36291 0.0
H1329 H 0.39788 0.67952 0.48109 0.0
H1330 H 0.36055 0.67777 0.33236 0.0
H1331 H 0.38231 0.71446 0.44996 0.0
H1332 H 0.33943 0.77166 0.39574 0.0
H1333 H 0.34804 0.73465 0.4282 0.0
H1334 H 0.37586 0.7125 0.30179 0.0
H1335 H 0.36686 0.74919 0.26904 0.0
C1336 C 0.37776 0.65836 0.38252 0.0
C1337 C 0.38873 0.65842 0.42433 0.0
C1338 C 0.36865 0.67837 0.36486 0.0
C1339 C 0.37031 0.69895 0.3885 0.0
C1340 C 0.38052 0.69886 0.43104 0.0
C1341 C 0.38959 0.67882 0.44878 0.0
C1342 C 0.3471 0.75881 0.37465 0.0
C1343 C 0.35259 0.76353 0.32979 0.0
C1344 C 0.35217 0.73763 0.3934 0.0
C1345 C 0.36281 0.72066 0.36773 0.0
C1346 C 0.36745 0.72508 0.32243 0.0
C1347 C 0.36238 0.74622 0.30368 0.0
H1348 H 0.00241 0.6231 0.0263 0.0
H1349 H 0.97814 0.59667 0.15255 0.0
H1350 H 0.03879 0.63178 0.0603 0.0
H1351 H 0.01499 0.60494 0.18638 0.0
H1352 H 0.07231 0.65241 0.23978 0.0
H1353 H 0.03674 0.6382 0.20863 0.0
H1354 H 0.07259 0.61519 0.09092 0.0
H1355 H 0.10797 0.62989 0.12138 0.0
C1356 C 0.0049 0.61883 0.06118 0.0
C1357 C 0.98722 0.60928 0.08667 0.0
C1358 C 0.02589 0.6237 0.08065 0.0
C1359 C 0.02984 0.61907 0.12611 0.0
C1360 C 0.0124 0.60897 0.15142 0.0
C1361 C 0.99132 0.60411 0.13191 0.0
C1362 C 0.07264 0.64415 0.20743 0.0
C1363 C 0.09296 0.64258 0.18284 0.0
C1364 C 0.05225 0.63587 0.18967 0.0
C1365 C 0.05177 0.62575 0.14706 0.0
C1366 C 0.07227 0.62332 0.12341 0.0
C1367 C 0.09259 0.63169 0.14099 0.0
H1368 H 0.1543 0.25 0.7757 0.0
H1369 H 0.1376 0.21878 0.90213 0.0
H1370 H 0.14591 0.28729 0.80686 0.0
H1371 H 0.12781 0.25582 0.93272 0.0
H1372 H 0.12156 0.32708 0.98618 0.0
H1373 H 0.13807 0.2918 0.95804 0.0
H1374 H 0.11413 0.30837 0.82515 0.0
H1375 H 0.09891 0.34394 0.8529 0.0
C1376 C 0.14885 0.25116 0.81023 0.0
C1377 C 0.14645 0.23149 0.83639 0.0
C1378 C 0.14383 0.27252 0.82807 0.0
C1379 C 0.13573 0.27468 0.87219 0.0
C1380 C 0.13422 0.255 0.89883 0.0
C1381 C 0.13973 0.23368 0.88124 0.0
C1382 C 0.12003 0.32317 0.95091 0.0
C1383 C 0.1089 0.33824 0.92177 0.0
C1384 C 0.12939 0.3029 0.93474 0.0
C1385 C 0.12747 0.29705 0.88921 0.0
C1386 C 0.1165 0.31237 0.86017 0.0
C1387 C 0.10755 0.33277 0.87616 0.0
H1388 H 0.42872 0.34788 0.73481 0.0
H1389 H 0.39231 0.37322 0.61952 0.0
H1390 H 0.46417 0.36231 0.70357 0.0
H1391 H 0.42761 0.38806 0.58896 0.0
H1392 H 0.49733 0.38033 0.52159 0.0
H1393 H 0.46106 0.37147 0.55601 0.0
H1394 H 0.48602 0.39592 0.6831 0.0
H1395 H 0.5227 0.40439 0.64883 0.0
C1396 C 0.42819 0.35682 0.70317 0.0
C1397 C 0.40767 0.35912 0.67945 0.0
C1398 C 0.44852 0.36521 0.68535 0.0
C1399 C 0.44877 0.37616 0.64353 0.0
C1400 C 0.4281 0.37931 0.62082 0.0
C1401 C 0.40782 0.37087 0.63849 0.0
C1402 C 0.49512 0.38403 0.5568 0.0
C1403 C 0.51306 0.39297 0.58242 0.0
C1404 C 0.4742 0.37907 0.57652 0.0
C1405 C 0.47061 0.38296 0.62236 0.0
C1406 C 0.48833 0.39245 0.64782 0.0
C1407 C 0.50931 0.39743 0.62807 0.0
H1408 H 0.10859 0.05802 0.55206 0.0
H1409 H 0.13912 0.11677 0.49058 0.0
H1410 H 0.12824 0.06643 0.62189 0.0
H1411 H 0.15694 0.12686 0.56101 0.0
H1412 H 0.19096 0.14193 0.68848 0.0
H1413 H 0.18191 0.12364 0.61754 0.0
H1414 H 0.12486 0.08985 0.68089 0.0
H1415 H 0.13566 0.10647 0.75206 0.0
C1416 C 0.11972 0.07268 0.55371 0.0
C1417 C 0.12254 0.08675 0.51641 0.0
C1418 C 0.13074 0.07777 0.59384 0.0
C1419 C 0.14397 0.09766 0.59799 0.0
C1420 C 0.14735 0.11119 0.55957 0.0
C1421 C 0.137 0.10557 0.51904 0.0
C1422 C 0.17691 0.13004 0.68702 0.0
C1423 C 0.16403 0.12539 0.72528 0.0
C1424 C 0.17145 0.11976 0.64631 0.0
C1425 C 0.15231 0.10544 0.64267 0.0
C1426 C 0.13996 0.10032 0.68188 0.0
C1427 C 0.146 0.10995 0.72286 0.0
H1428 H 0.15348 0.89854 0.74316 0.0
H1429 H 0.17174 0.84003 0.82271 0.0
H1430 H 0.14211 0.9188 0.81122 0.0
H1431 H 0.16073 0.86033 0.89046 0.0
H1432 H 0.14885 0.90648 0.0081 0.0
H1433 H 0.16897 0.89579 0.93948 0.0
H1434 H 0.1081 0.90861 0.86283 0.0
H1435 H 0.08797 0.91896 0.93119 0.0
C1436 C 0.15561 0.89026 0.77525 0.0
C1437 C 0.1633 0.8677 0.77782 0.0
C1438 C 0.14907 0.90181 0.81405 0.0
C1439 C 0.15057 0.89109 0.85595 0.0
C1440 C 0.15964 0.86906 0.85863 0.0
C1441 C 0.16578 0.85741 0.81987 0.0
C1442 C 0.13997 0.90749 0.97643 0.0
C1443 C 0.11684 0.91334 0.97483 0.0
C1444 C 0.15144 0.90134 0.9373 0.0
C1445 C 0.14005 0.90139 0.896 0.0
C1446 C 0.11734 0.90867 0.89417 0.0
C1447 C 0.10579 0.91442 0.93329 0.0
H1448 H 0.3971 0.94072 0.06475 0.0
H1449 H 0.35906 0.88812 0.99815 0.0
H1450 H 0.37771 0.93214 0.13477 0.0
H1451 H 0.34128 0.87766 0.06838 0.0
H1452 H 0.30753 0.86185 0.1953 0.0
H1453 H 0.31762 0.88167 0.12657 0.0
H1454 H 0.37868 0.90689 0.1909 0.0
H1455 H 0.36694 0.88905 0.26028 0.0
C1456 C 0.38443 0.92736 0.06535 0.0
C1457 C 0.37937 0.91511 0.02649 0.0
C1458 C 0.3735 0.92215 0.10555 0.0
C1459 C 0.35805 0.90386 0.10808 0.0
C1460 C 0.3526 0.89215 0.06828 0.0
C1461 C 0.3629 0.89798 0.02782 0.0
C1462 C 0.32271 0.87229 0.19467 0.0
C1463 C 0.33647 0.87411 0.23265 0.0
C1464 C 0.32877 0.88338 0.15514 0.0
C1465 C 0.34934 0.89563 0.15222 0.0
C1466 C 0.36255 0.89808 0.19134 0.0
C1467 C 0.35596 0.88771 0.2313 0.0
H1468 H 0.4078 0.07703 0.43525 0.0
H1469 H 0.34901 0.09581 0.51346 0.0
H1470 H 0.38759 0.08706 0.36685 0.0
H1471 H 0.32881 0.10622 0.4447 0.0
H1472 H 0.32848 0.1588 0.32197 0.0
H1473 H 0.33879 0.13965 0.39144 0.0
H1474 H 0.35242 0.07793 0.318 0.0
H1475 H 0.34182 0.09706 0.24829 0.0
C1476 C 0.39038 0.08288 0.43766 0.0
C1477 C 0.37997 0.08578 0.47949 0.0
C1478 C 0.37877 0.08847 0.39854 0.0
C1479 C 0.35668 0.09742 0.40061 0.0
C1480 C 0.34585 0.09935 0.44234 0.0
C1481 C 0.35735 0.09333 0.48153 0.0
C1482 C 0.33321 0.14101 0.3208 0.0
C1483 C 0.33456 0.12944 0.27983 0.0
C1484 C 0.33893 0.13001 0.36056 0.0
C1485 C 0.34641 0.10735 0.35995 0.0
C1486 C 0.34672 0.09544 0.31923 0.0
C1487 C 0.34063 0.10635 0.27947 0.0
H1488 H 0.84173 0.90208 0.24539 0.0
H1489 H 0.82435 0.84334 0.32502 0.0
H1490 H 0.85327 0.92236 0.31329 0.0
H1491 H 0.83553 0.86366 0.39263 0.0
H1492 H 0.84872 0.90908 0.51031 0.0
H1493 H 0.82777 0.89897 0.44236 0.0
H1494 H 0.88782 0.912 0.36337 0.0
H1495 H 0.90878 0.92178 0.43106 0.0
C1496 C 0.83978 0.89377 0.27748 0.0
C1497 C 0.83235 0.87112 0.28011 0.0
C1498 C 0.84642 0.90533 0.31619 0.0
C1499 C 0.84529 0.89453 0.35805 0.0
C1500 C 0.83634 0.87245 0.36084 0.0
C1501 C 0.8301 0.86078 0.32216 0.0
C1502 C 0.85725 0.91029 0.47829 0.0
C1503 C 0.8804 0.91599 0.47582 0.0
C1504 C 0.84529 0.90447 0.43954 0.0
C1505 C 0.85622 0.90471 0.39777 0.0
C1506 C 0.87893 0.91192 0.3951 0.0
C1507 C 0.89096 0.91735 0.43383 0.0
H1508 H 0.8595 0.11176 0.99623 0.0
H1509 H 0.89481 0.0575 0.06355 0.0
H1510 H 0.84142 0.12267 0.06587 0.0
H1511 H 0.87499 0.06657 0.13288 0.0
H1512 H 0.8646 0.10944 0.25861 0.0
H1513 H 0.87638 0.09153 0.18936 0.0
H1514 H 0.81708 0.11952 0.1231 0.0
H1515 H 0.80703 0.13935 0.19188 0.0
C1516 C 0.86267 0.10167 0.02592 0.0
C1517 C 0.87848 0.08392 0.025 0.0
C1518 C 0.85217 0.10775 0.06602 0.0
C1519 C 0.85674 0.09571 0.10585 0.0
C1520 C 0.87149 0.07683 0.10366 0.0
C1521 C 0.88265 0.07135 0.06385 0.0
C1522 C 0.85402 0.1114 0.2292 0.0
C1523 C 0.83505 0.12573 0.23009 0.0
C1524 C 0.86061 0.10098 0.18932 0.0
C1525 C 0.84791 0.10413 0.14975 0.0
C1526 C 0.82784 0.11721 0.15207 0.0
C1527 C 0.8218 0.12834 0.1916 0.0
H1528 H 0.67205 0.16121 0.82336 0.0
H1529 H 0.65759 0.10077 0.74644 0.0
H1530 H 0.66177 0.14118 0.8919 0.0
H1531 H 0.64694 0.08079 0.81522 0.0
H1532 H 0.59196 0.07939 0.93381 0.0
H1533 H 0.61195 0.09003 0.86547 0.0
H1534 H 0.67169 0.10655 0.94282 0.0
H1535 H 0.65173 0.0955 0.01145 0.0
C1536 C 0.6671 0.1435 0.82128 0.0
C1537 C 0.66545 0.13256 0.7797 0.0
C1538 C 0.66138 0.132 0.86049 0.0
C1539 C 0.65355 0.10948 0.85872 0.0
C1540 C 0.65292 0.09817 0.81735 0.0
C1541 C 0.65905 0.10957 0.77813 0.0
C1542 C 0.60953 0.08478 0.93608 0.0
C1543 C 0.62029 0.08676 0.97778 0.0
C1544 C 0.62101 0.09072 0.89699 0.0
C1545 C 0.64332 0.09911 0.899 0.0
C1546 C 0.65447 0.10011 0.94051 0.0
C1547 C 0.6431 0.09374 0.97963 0.0
H1548 H 0.59132 0.9215 0.5681 0.0
H1549 H 0.65068 0.90335 0.491 0.0
H1550 H 0.61101 0.91082 0.63675 0.0
H1551 H 0.67034 0.89226 0.55998 0.0
H1552 H 0.67038 0.83916 0.68179 0.0
H1553 H 0.66004 0.85846 0.61247 0.0
H1554 H 0.64605 0.9199 0.68653 0.0
H1555 H 0.65673 0.90064 0.75608 0.0
C1556 C 0.60875 0.91562 0.566 0.0
C1557 C 0.61948 0.91314 0.52438 0.0
C1558 C 0.62005 0.90966 0.60527 0.0
C1559 C 0.64216 0.90072 0.60356 0.0
C1560 C 0.65328 0.89912 0.56207 0.0
C1561 C 0.64209 0.90551 0.52275 0.0
C1562 C 0.66556 0.85693 0.68313 0.0
C1563 C 0.66419 0.86839 0.72422 0.0
C1564 C 0.65981 0.868 0.64346 0.0
C1565 C 0.65224 0.89063 0.64428 0.0
C1566 C 0.65182 0.90242 0.68514 0.0
C1567 C 0.65798 0.89143 0.7248 0.0
H1568 H 0.65055 0.59255 0.99246 0.0
H1569 H 0.58986 0.57762 0.06827 0.0
H1570 H 0.67018 0.60318 0.06166 0.0
H1571 H 0.60952 0.58791 0.1372 0.0
H1572 H 0.65468 0.59743 0.25766 0.0
H1573 H 0.6436 0.57792 0.18858 0.0
H1574 H 0.66118 0.63775 0.11242 0.0
H1575 H 0.67191 0.65729 0.18121 0.0
C1576 C 0.64161 0.59101 0.02399 0.0
C1577 C 0.61867 0.58444 0.02513 0.0
C1578 C 0.65281 0.59713 0.06345 0.0
C1579 C 0.64133 0.59635 0.10464 0.0
C1580 C 0.61883 0.58843 0.10596 0.0
C1581 C 0.60755 0.5827 0.06651 0.0
C1582 C 0.65663 0.60618 0.22603 0.0
C1583 C 0.66398 0.62889 0.22465 0.0
C1584 C 0.65025 0.59507 0.18663 0.0
C1585 C 0.65155 0.60636 0.1453 0.0
C1586 C 0.66024 0.62858 0.14378 0.0
C1587 C 0.66623 0.6398 0.18314 0.0
H1588 H 0.60133 0.4406 0.43404 0.0
H1589 H 0.63981 0.38858 0.50147 0.0
H1590 H 0.62115 0.43222 0.36439 0.0
H1591 H 0.65803 0.3783 0.4316 0.0
H1592 H 0.69265 0.36296 0.30529 0.0
H1593 H 0.68193 0.38263 0.37385 0.0
H1594 H 0.62077 0.40689 0.30841 0.0
H1595 H 0.63311 0.38922 0.23928 0.0
C1596 C 0.61418 0.4274 0.43369 0.0
C1597 C 0.61924 0.41526 0.47268 0.0
C1598 C 0.62536 0.42231 0.39371 0.0
C1599 C 0.64108 0.40423 0.39153 0.0
C1600 C 0.64651 0.39263 0.43144 0.0
C1601 C 0.63595 0.39835 0.47169 0.0
C1602 C 0.6773 0.37316 0.30566 0.0
C1603 C 0.66368 0.37477 0.26745 0.0
C1604 C 0.67089 0.38417 0.34508 0.0
C1605 C 0.65012 0.3961 0.3476 0.0
C1606 C 0.63704 0.39832 0.30827 0.0
C1607 C 0.64397 0.38805 0.26846 0.0
H1608 H 0.84134 0.39878 0.75152 0.0
H1609 H 0.82739 0.33835 0.67417 0.0
H1610 H 0.85115 0.41916 0.68271 0.0
H1611 H 0.83693 0.35872 0.6057 0.0
H1612 H 0.8467 0.40365 0.48597 0.0
H1613 H 0.82677 0.39254 0.55462 0.0
H1614 H 0.88573 0.4113 0.63234 0.0
H1615 H 0.90563 0.42207 0.56407 0.0
C1616 C 0.83984 0.39005 0.71976 0.0
C1617 C 0.83385 0.36696 0.71806 0.0
C1618 C 0.84548 0.40168 0.68051 0.0
C1619 C 0.8448 0.39048 0.63901 0.0
C1620 C 0.83735 0.36783 0.63718 0.0
C1621 C 0.83208 0.35613 0.67638 0.0
C1622 C 0.85513 0.40589 0.51786 0.0
C1623 C 0.87772 0.41351 0.51987 0.0
C1624 C 0.84378 0.39949 0.55701 0.0
C1625 C 0.85475 0.40106 0.59866 0.0
C1626 C 0.87679 0.41015 0.60075 0.0
C1627 C 0.88823 0.41615 0.56168 0.0
H1628 H 0.84941 0.59604 0.0114 0.0
H1629 H 0.90872 0.58011 0.93223 0.0
H1630 H 0.82868 0.60615 0.9431 0.0
H1631 H 0.888 0.58987 0.8643 0.0
H1632 H 0.84216 0.59952 0.74613 0.0
H1633 H 0.8532 0.57995 0.81515 0.0
H1634 H 0.83724 0.64031 0.8911 0.0
H1635 H 0.82653 0.65989 0.82238 0.0
C1636 C 0.85779 0.59415 0.97936 0.0
C1637 C 0.88068 0.5875 0.97694 0.0
C1638 C 0.84597 0.59997 0.94042 0.0
C1639 C 0.85677 0.59876 0.89856 0.0
C1640 C 0.87919 0.5907 0.89608 0.0
C1641 C 0.8911 0.58529 0.93495 0.0
C1642 C 0.84051 0.60837 0.77772 0.0
C1643 C 0.83371 0.63125 0.77905 0.0
C1644 C 0.84686 0.59722 0.81708 0.0
C1645 C 0.84608 0.60866 0.8583 0.0
C1646 C 0.83777 0.63102 0.85983 0.0
C1647 C 0.83181 0.64227 0.8205 0.0
H1648 H 0.32667 0.3415 0.8174 0.0
H1649 H 0.34181 0.40253 0.74281 0.0
H1650 H 0.33718 0.3607 0.88667 0.0
H1651 H 0.35265 0.42171 0.81236 0.0
H1652 H 0.40792 0.42123 0.93012 0.0
H1653 H 0.38746 0.41179 0.86168 0.0
H1654 H 0.32805 0.39453 0.93938 0.0
H1655 H 0.34851 0.40434 0.00818 0.0
C1656 C 0.33182 0.35917 0.81599 0.0
C1657 C 0.33362 0.3705 0.77484 0.0
C1658 C 0.33766 0.3702 0.85564 0.0
C1659 C 0.34574 0.39265 0.85475 0.0
C1660 C 0.34648 0.40437 0.81382 0.0
C1661 C 0.34025 0.39343 0.77415 0.0
C1662 C 0.39032 0.41593 0.93249 0.0
C1663 C 0.3798 0.41336 0.9743 0.0
C1664 C 0.37857 0.41069 0.89334 0.0
C1665 C 0.35621 0.40242 0.89536 0.0
C1666 C 0.3453 0.40087 0.93706 0.0
C1667 C 0.35695 0.40653 0.97628 0.0
H1668 H 0.34681 0.59956 0.75649 0.0
H1669 H 0.32658 0.65777 0.678 0.0
H1670 H 0.3574 0.57941 0.68775 0.0
H1671 H 0.33682 0.63763 0.60965 0.0
H1672 H 0.34745 0.59186 0.49109 0.0
H1673 H 0.32833 0.60244 0.56089 0.0
H1674 H 0.3903 0.58953 0.63399 0.0
H1675 H 0.40941 0.57926 0.56449 0.0
C1676 C 0.34409 0.60779 0.72453 0.0
C1677 C 0.33605 0.63024 0.72241 0.0
C1678 C 0.3502 0.59632 0.68532 0.0
C1679 C 0.34791 0.60699 0.64349 0.0
C1680 C 0.33852 0.6289 0.64139 0.0
C1681 C 0.33282 0.64048 0.6805 0.0
C1682 C 0.35679 0.59082 0.52223 0.0
C1683 C 0.37993 0.58495 0.52248 0.0
C1684 C 0.34589 0.59691 0.56205 0.0
C1685 C 0.35787 0.5968 0.60273 0.0
C1686 C 0.3806 0.58952 0.6032 0.0
C1687 C 0.39157 0.58382 0.5634 0.0
H1688 H 0.08809 0.57938 0.42534 0.0
H1689 H 0.14922 0.58874 0.50322 0.0
H1690 H 0.10888 0.58922 0.35747 0.0
H1691 H 0.17001 0.59889 0.4351 0.0
H1692 H 0.17565 0.65514 0.31976 0.0
H1693 H 0.16372 0.63484 0.38688 0.0
H1694 H 0.14244 0.57793 0.30586 0.0
H1695 H 0.15474 0.5982 0.23842 0.0
C1696 C 0.10608 0.58313 0.42777 0.0
C1697 C 0.11703 0.58349 0.46947 0.0
C1698 C 0.11801 0.58858 0.38891 0.0
C1699 C 0.14102 0.59483 0.39115 0.0
C1700 C 0.15226 0.59415 0.43259 0.0
C1701 C 0.14039 0.58832 0.47145 0.0
C1702 C 0.16895 0.63807 0.3164 0.0
C1703 C 0.16597 0.62826 0.27404 0.0
C1704 C 0.16226 0.62641 0.3548 0.0
C1705 C 0.15213 0.60487 0.35144 0.0
C1706 C 0.15019 0.59455 0.30922 0.0
C1707 C 0.15729 0.60609 0.27077 0.0
H1708 H 0.19004 0.35597 0.18415 0.0
H1709 H 0.13421 0.39042 0.24811 0.0
H1710 H 0.18079 0.37444 0.11349 0.0
H1711 H 0.12319 0.40712 0.17721 0.0
H1712 H 0.10659 0.43944 0.04903 0.0
H1713 H 0.12614 0.43084 0.11885 0.0
H1714 H 0.15621 0.37147 0.05647 0.0
H1715 H 0.13853 0.38185 0.9861 0.0
C1716 C 0.17581 0.36765 0.18282 0.0
C1717 C 0.16286 0.37198 0.22112 0.0
C1718 C 0.17023 0.37803 0.14226 0.0
C1719 C 0.15091 0.39212 0.13878 0.0
C1720 C 0.13844 0.39687 0.17803 0.0
C1721 C 0.1446 0.38716 0.21887 0.0
C1722 C 0.11798 0.42498 0.05038 0.0
C1723 C 0.12124 0.41131 0.01265 0.0
C1724 C 0.12895 0.41976 0.09051 0.0
C1725 C 0.14254 0.40009 0.09423 0.0
C1726 C 0.14633 0.38696 0.05542 0.0
C1727 C 0.13606 0.39275 0.01491 0.0
loop_
_geom_bond_atom_site_label_1
_geom_bond_atom_site_label_2
_geom_bond_distance
_geom_bond_site_symmetry_2
_ccdc_geom_bond_type
Co0 O1 2.216 . S
Co0 O2 2.091 . S
Co0 O4 2.004 . S
Co0 O10 2.021 . S
Co0 O12 2.137 . S
Co0 O13 2.244 . S
O1 Co0 2.216 . S
O1 C8 1.247 . S
O2 Co0 2.091 . S
O2 C8 1.261 . S
C3 O12 1.247 . S
C3 O13 1.272 . S
O4 Co0 2.004 . S
O4 C9 1.259 . S
Co5 O6 2.061 . S
Co5 O11 2.052 . S
Co5 O13 2.135 . S
O6 Co5 2.061 . S
O6 C9 1.235 . S
C7 O10 1.238 . S
C7 O11 1.241 . S
C8 O1 1.247 . S
C8 O2 1.261 . S
C9 O4 1.259 . S
C9 O6 1.235 . S
O10 Co0 2.021 . S
O10 C7 1.238 . S
O11 Co5 2.052 . S
O11 C7 1.241 . S
O12 Co0 2.137 . S
O12 C3 1.247 . S
O13 Co0 2.244 . S
O13 C3 1.272 . S
O13 Co5 2.135 . S
Co14 O15 2.216 . S
Co14 O16 2.091 . S
Co14 O18 2.004 . S
Co14 O24 2.021 . S
Co14 O26 2.137 . S
Co14 O27 2.244 . S
O15 Co14 2.216 . S
O15 C22 1.247 . S
O16 Co14 2.091 . S
O16 C22 1.261 . S
C17 O26 1.247 . S
C17 O27 1.272 . S
O18 Co14 2.004 . S
O18 C23 1.259 . S
Co19 O20 2.061 . S
Co19 O25 2.052 . S
Co19 O27 2.135 . S
O20 Co19 2.061 . S
O20 C23 1.235 . S
C21 O24 1.238 . S
C21 O25 1.241 . S
C22 O15 1.247 . S
C22 O16 1.261 . S
C23 O18 1.259 . S
C23 O20 1.235 . S
O24 Co14 2.021 . S
O24 C21 1.238 . S
O25 Co19 2.052 . S
O25 C21 1.241 . S
O26 Co14 2.137 . S
O26 C17 1.247 . S
O27 Co14 2.244 . S
O27 C17 1.272 . S
O27 Co19 2.135 . S
Co28 O29 2.216 . S
Co28 O30 2.091 . S
Co28 O32 2.004 . S
Co28 O38 2.021 . S
Co28 O40 2.137 . S
Co28 O41 2.244 . S
O29 Co28 2.216 . S
O29 C36 1.247 . S
O30 Co28 2.091 . S
O30 C36 1.261 . S
C31 O40 1.247 . S
C31 O41 1.272 . S
O32 Co28 2.004 . S
O32 C37 1.259 . S
Co33 O34 2.061 . S
Co33 O39 2.052 . S
Co33 O41 2.135 . S
O34 Co33 2.061 . S
O34 C37 1.235 . S
C35 O38 1.238 . S
C35 O39 1.241 . S
C36 O29 1.247 . S
C36 O30 1.261 . S
C37 O32 1.259 . S
C37 O34 1.235 . S
O38 Co28 2.021 . S
O38 C35 1.238 . S
O39 Co33 2.052 . S
O39 C35 1.241 . S
O40 Co28 2.137 . S
O40 C31 1.247 . S
O41 Co28 2.244 . S
O41 C31 1.272 . S
O41 Co33 2.135 . S
Co42 O43 2.216 . S
Co42 O44 2.091 . S
Co42 O46 2.004 . S
Co42 O52 2.021 . S
Co42 O54 2.137 . S
Co42 O55 2.244 . S
O43 Co42 2.216 . S
O43 C50 1.247 . S
O44 Co42 2.091 . S
O44 C50 1.261 . S
C45 O54 1.247 . S
C45 O55 1.272 . S
O46 Co42 2.004 . S
O46 C51 1.259 . S
Co47 O48 2.061 . S
Co47 O53 2.052 . S
Co47 O55 2.135 . S
O48 Co47 2.061 . S
O48 C51 1.235 . S
C49 O52 1.238 . S
C49 O53 1.241 . S
C50 O43 1.247 . S
C50 O44 1.261 . S
C51 O46 1.259 . S
C51 O48 1.235 . S
O52 Co42 2.021 . S
O52 C49 1.238 . S
O53 Co47 2.052 . S
O53 C49 1.241 . S
O54 Co42 2.137 . S
O54 C45 1.247 . S
O55 Co42 2.244 . S
O55 C45 1.272 . S
O55 Co47 2.135 . S
Co56 O57 2.216 . S
Co56 O58 2.091 . S
Co56 O60 2.004 . S
Co56 O66 2.021 . S
Co56 O68 2.137 . S
Co56 O69 2.244 . S
O57 Co56 2.216 . S
O57 C64 1.247 . S
O58 Co56 2.091 . S
O58 C64 1.261 . S
C59 O68 1.247 . S
C59 O69 1.272 . S
O60 Co56 2.004 . S
O60 C65 1.259 . S
Co61 O62 2.061 . S
Co61 O67 2.052 . S
Co61 O69 2.135 . S
O62 Co61 2.061 . S
O62 C65 1.235 . S
C63 O66 1.238 . S
C63 O67 1.241 . S
C64 O57 1.247 . S
C64 O58 1.261 . S
C65 O60 1.259 . S
C65 O62 1.235 . S
O66 Co56 2.021 . S
O66 C63 1.238 . S
O67 Co61 2.052 . S
O67 C63 1.241 . S
O68 Co56 2.137 . S
O68 C59 1.247 . S
O69 Co56 2.244 . S
O69 C59 1.272 . S
O69 Co61 2.135 . S
Co70 O71 2.216 . S
Co70 O72 2.091 . S
Co70 O74 2.004 . S
Co70 O80 2.021 . S
Co70 O82 2.137 . S
Co70 O83 2.244 . S
O71 Co70 2.216 . S
O71 C78 1.247 . S
O72 Co70 2.091 . S
O72 C78 1.261 . S
C73 O82 1.247 . S
C73 O83 1.272 . S
O74 Co70 2.004 . S
O74 C79 1.259 . S
Co75 O76 2.061 . S
Co75 O81 2.052 . S
Co75 O83 2.135 . S
O76 Co75 2.061 . S
O76 C79 1.235 . S
C77 O80 1.238 . S
C77 O81 1.241 . S
C78 O71 1.247 . S
C78 O72 1.261 . S
C79 O74 1.259 . S
C79 O76 1.235 . S
O80 Co70 2.021 . S
O80 C77 1.238 . S
O81 Co75 2.052 . S
O81 C77 1.241 . S
O82 Co70 2.137 . S
O82 C73 1.247 . S
O83 Co70 2.244 . S
O83 C73 1.272 . S
O83 Co75 2.135 . S
Co84 O85 2.216 . S
Co84 O86 2.091 . S
Co84 O88 2.004 . S
Co84 O94 2.021 . S
Co84 O96 2.137 . S
Co84 O97 2.244 . S
O85 Co84 2.216 . S
O85 C92 1.247 . S
O86 Co84 2.091 . S
O86 C92 1.261 . S
C87 O96 1.247 . S
C87 O97 1.272 . S
O88 Co84 2.004 . S
O88 C93 1.259 . S
Co89 O90 2.061 . S
Co89 O95 2.052 . S
Co89 O97 2.135 . S
O90 Co89 2.061 . S
O90 C93 1.235 . S
C91 O94 1.238 . S
C91 O95 1.241 . S
C92 O85 1.247 . S
C92 O86 1.261 . S
C93 O88 1.259 . S
C93 O90 1.235 . S
O94 Co84 2.021 . S
O94 C91 1.238 . S
O95 Co89 2.052 . S
O95 C91 1.241 . S
O96 Co84 2.137 . S
O96 C87 1.247 . S
O97 Co84 2.244 . S
O97 C87 1.272 . S
O97 Co89 2.135 . S
Co98 O99 2.216 . S
Co98 O100 2.091 . S
Co98 O102 2.004 . S
Co98 O108 2.021 . S
Co98 O110 2.137 . S
Co98 O111 2.244 . S
O99 Co98 2.216 . S
O99 C106 1.247 . S
O100 Co98 2.091 . S
O100 C106 1.261 . S
C101 O110 1.247 . S
C101 O111 1.272 . S
O102 Co98 2.004 . S
O102 C107 1.259 . S
Co103 O104 2.061 . S
Co103 O109 2.052 . S
Co103 O111 2.135 . S
O104 Co103 2.061 . S
O104 C107 1.235 . S
C105 O108 1.238 . S
C105 O109 1.241 . S
C106 O99 1.247 . S
C106 O100 1.261 . S
C107 O102 1.259 . S
C107 O104 1.235 . S
O108 Co98 2.021 . S
O108 C105 1.238 . S
O109 Co103 2.052 . S
O109 C105 1.241 . S
O110 Co98 2.137 . S
O110 C101 1.247 . S
O111 Co98 2.244 . S
O111 C101 1.272 . S
O111 Co103 2.135 . S
Co112 O113 2.216 . S
Co112 O114 2.091 . S
Co112 O116 2.004 . S
Co112 O122 2.021 . S
Co112 O124 2.137 . S
Co112 O125 2.244 . S
O113 Co112 2.216 . S
O113 C120 1.247 . S
O114 Co112 2.091 . S
O114 C120 1.261 . S
C115 O124 1.247 . S
C115 O125 1.272 . S
O116 Co112 2.004 . S
O116 C121 1.259 . S
Co117 O118 2.061 . S
Co117 O123 2.052 . S
Co117 O125 2.135 . S
O118 Co117 2.061 . S
O118 C121 1.235 . S
C119 O122 1.238 . S
C119 O123 1.241 . S
C120 O113 1.247 . S
C120 O114 1.261 . S
C121 O116 1.259 . S
C121 O118 1.235 . S
O122 Co112 2.021 . S
O122 C119 1.238 . S
O123 Co117 2.052 . S
O123 C119 1.241 . S
O124 Co112 2.137 . S
O124 C115 1.247 . S
O125 Co112 2.244 . S
O125 C115 1.272 . S
O125 Co117 2.135 . S
Co126 O127 2.216 . S
Co126 O128 2.091 . S
Co126 O130 2.004 . S
Co126 O136 2.021 . S
Co126 O138 2.137 . S
Co126 O139 2.244 . S
O127 Co126 2.216 . S
O127 C134 1.247 . S
O128 Co126 2.091 . S
O128 C134 1.261 . S
C129 O138 1.247 . S
C129 O139 1.272 . S
O130 Co126 2.004 . S
O130 C135 1.259 . S
Co131 O132 2.061 . S
Co131 O137 2.052 . S
Co131 O139 2.135 . S
O132 Co131 2.061 . S
O132 C135 1.235 . S
C133 O136 1.238 . S
C133 O137 1.241 . S
C134 O127 1.247 . S
C134 O128 1.261 . S
C135 O130 1.259 . S
C135 O132 1.235 . S
O136 Co126 2.021 . S
O136 C133 1.238 . S
O137 Co131 2.052 . S
O137 C133 1.241 . S
O138 Co126 2.137 . S
O138 C129 1.247 . S
O139 Co126 2.244 . S
O139 C129 1.272 . S
O139 Co131 2.135 . S
Co140 O141 2.216 . S
Co140 O142 2.091 . S
Co140 O144 2.004 . S
Co140 O150 2.021 . S
Co140 O152 2.137 . S
Co140 O153 2.244 . S
O141 Co140 2.216 . S
O141 C148 1.247 . S
O142 Co140 2.091 . S
O142 C148 1.261 . S
C143 O152 1.247 . S
C143 O153 1.272 . S
O144 Co140 2.004 . S
O144 C149 1.259 . S
Co145 O146 2.061 . S
Co145 O151 2.052 . S
Co145 O153 2.135 . S
O146 Co145 2.061 . S
O146 C149 1.235 . S
C147 O150 1.238 . S
C147 O151 1.241 . S
C148 O141 1.247 . S
C148 O142 1.261 . S
C149 O144 1.259 . S
C149 O146 1.235 . S
O150 Co140 2.021 . S
O150 C147 1.238 . S
O151 Co145 2.052 . S
O151 C147 1.241 . S
O152 Co140 2.137 . S
O152 C143 1.247 . S
O153 Co140 2.244 . S
O153 C143 1.272 . S
O153 Co145 2.135 . S
Co154 O155 2.216 . S
Co154 O156 2.091 . S
Co154 O158 2.004 . S
Co154 O164 2.021 . S
Co154 O166 2.137 . S
Co154 O167 2.244 . S
O155 Co154 2.216 . S
O155 C162 1.247 . S
O156 Co154 2.091 . S
O156 C162 1.261 . S
C157 O166 1.247 . S
C157 O167 1.272 . S
O158 Co154 2.004 . S
O158 C163 1.259 . S
Co159 O160 2.061 . S
Co159 O165 2.052 . S
Co159 O167 2.135 . S
O160 Co159 2.061 . S
O160 C163 1.235 . S
C161 O164 1.238 . S
C161 O165 1.241 . S
C162 O155 1.247 . S
C162 O156 1.261 . S
C163 O158 1.259 . S
C163 O160 1.235 . S
O164 Co154 2.021 . S
O164 C161 1.238 . S
O165 Co159 2.052 . S
O165 C161 1.241 . S
O166 Co154 2.137 . S
O166 C157 1.247 . S
O167 Co154 2.244 . S
O167 C157 1.272 . S
O167 Co159 2.135 . S
Co168 O169 2.216 . S
Co168 O170 2.091 . S
Co168 O172 2.004 . S
Co168 O178 2.021 . S
Co168 O180 2.137 . S
Co168 O181 2.244 . S
O169 Co168 2.216 . S
O169 C176 1.247 . S
O170 Co168 2.091 . S
O170 C176 1.261 . S
C171 O180 1.247 . S
C171 O181 1.272 . S
O172 Co168 2.004 . S
O172 C177 1.259 . S
Co173 O174 2.061 . S
Co173 O179 2.052 . S
Co173 O181 2.135 . S
O174 Co173 2.061 . S
O174 C177 1.235 . S
C175 O178 1.238 . S
C175 O179 1.241 . S
C176 O169 1.247 . S
C176 O170 1.261 . S
C177 O172 1.259 . S
C177 O174 1.235 . S
O178 Co168 2.021 . S
O178 C175 1.238 . S
O179 Co173 2.052 . S
O179 C175 1.241 . S
O180 Co168 2.137 . S
O180 C171 1.247 . S
O181 Co168 2.244 . S
O181 C171 1.272 . S
O181 Co173 2.135 . S
Co182 O183 2.216 . S
Co182 O184 2.091 . S
Co182 O186 2.004 . S
Co182 O192 2.021 . S
Co182 O194 2.137 . S
Co182 O195 2.244 . S
O183 Co182 2.216 . S
O183 C190 1.247 . S
O184 Co182 2.091 . S
O184 C190 1.261 . S
C185 O194 1.247 . S
C185 O195 1.272 . S
O186 Co182 2.004 . S
O186 C191 1.259 . S
Co187 O188 2.061 . S
Co187 O193 2.052 . S
Co187 O195 2.135 . S
O188 Co187 2.061 . S
O188 C191 1.235 . S
C189 O192 1.238 . S
C189 O193 1.241 . S
C190 O183 1.247 . S
C190 O184 1.261 . S
C191 O186 1.259 . S
C191 O188 1.235 . S
O192 Co182 2.021 . S
O192 C189 1.238 . S
O193 Co187 2.052 . S
O193 C189 1.241 . S
O194 Co182 2.137 . S
O194 C185 1.247 . S
O195 Co182 2.244 . S
O195 C185 1.272 . S
O195 Co187 2.135 . S
Co196 O197 2.216 . S
Co196 O198 2.091 . S
Co196 O200 2.004 . S
Co196 O206 2.021 . S
Co196 O208 2.137 . S
Co196 O209 2.244 . S
O197 Co196 2.216 . S
O197 C204 1.247 . S
O198 Co196 2.091 . S
O198 C204 1.261 . S
C199 O208 1.247 . S
C199 O209 1.272 . S
O200 Co196 2.004 . S
O200 C205 1.259 . S
Co201 O202 2.061 . S
Co201 O207 2.052 . S
Co201 O209 2.135 . S
O202 Co201 2.061 . S
O202 C205 1.235 . S
C203 O206 1.238 . S
C203 O207 1.241 . S
C204 O197 1.247 . S
C204 O198 1.261 . S
C205 O200 1.259 . S
C205 O202 1.235 . S
O206 Co196 2.021 . S
O206 C203 1.238 . S
O207 Co201 2.052 . S
O207 C203 1.241 . S
O208 Co196 2.137 . S
O208 C199 1.247 . S
O209 Co196 2.244 . S
O209 C199 1.272 . S
O209 Co201 2.135 . S
Co210 O211 2.216 . S
Co210 O212 2.091 . S
Co210 O214 2.004 . S
Co210 O220 2.021 . S
Co210 O222 2.137 . S
Co210 O223 2.244 . S
O211 Co210 2.216 . S
O211 C218 1.247 . S
O212 Co210 2.091 . S
O212 C218 1.261 . S
C213 O222 1.247 . S
C213 O223 1.272 . S
O214 Co210 2.004 . S
O214 C219 1.259 . S
Co215 O216 2.061 . S
Co215 O221 2.052 . S
Co215 O223 2.135 . S
O216 Co215 2.061 . S
O216 C219 1.235 . S
C217 O220 1.238 . S
C217 O221 1.241 . S
C218 O211 1.247 . S
C218 O212 1.261 . S
C219 O214 1.259 . S
C219 O216 1.235 . S
O220 Co210 2.021 . S
O220 C217 1.238 . S
O221 Co215 2.052 . S
O221 C217 1.241 . S
O222 Co210 2.137 . S
O222 C213 1.247 . S
O223 Co210 2.244 . S
O223 C213 1.272 . S
O223 Co215 2.135 . S
Co224 O225 2.216 . S
Co224 O226 2.091 . S
Co224 O228 2.004 . S
Co224 O234 2.021 . S
Co224 O236 2.137 . S
Co224 O237 2.244 . S
O225 Co224 2.216 . S
O225 C232 1.247 . S
O226 Co224 2.091 . S
O226 C232 1.261 . S
C227 O236 1.247 . S
C227 O237 1.272 . S
O228 Co224 2.004 . S
O228 C233 1.259 . S
Co229 O230 2.061 . S
Co229 O235 2.052 . S
Co229 O237 2.135 . S
O230 Co229 2.061 . S
O230 C233 1.235 . S
C231 O234 1.238 . S
C231 O235 1.241 . S
C232 O225 1.247 . S
C232 O226 1.261 . S
C233 O228 1.259 . S
C233 O230 1.235 . S
O234 Co224 2.021 . S
O234 C231 1.238 . S
O235 Co229 2.052 . S
O235 C231 1.241 . S
O236 Co224 2.137 . S
O236 C227 1.247 . S
O237 Co224 2.244 . S
O237 C227 1.272 . S
O237 Co229 2.135 . S
Co238 O239 2.216 . S
Co238 O240 2.091 . S
Co238 O242 2.004 . S
Co238 O248 2.021 . S
Co238 O250 2.137 . S
Co238 O251 2.244 . S
O239 Co238 2.216 . S
O239 C246 1.247 . S
O240 Co238 2.091 . S
O240 C246 1.261 . S
C241 O250 1.247 . S
C241 O251 1.272 . S
O242 Co238 2.004 . S
O242 C247 1.259 . S
Co243 O244 2.061 . S
Co243 O249 2.052 . S
Co243 O251 2.135 . S
O244 Co243 2.061 . S
O244 C247 1.235 . S
C245 O248 1.238 . S
C245 O249 1.241 . S
C246 O239 1.247 . S
C246 O240 1.261 . S
C247 O242 1.259 . S
C247 O244 1.235 . S
O248 Co238 2.021 . S
O248 C245 1.238 . S
O249 Co243 2.052 . S
O249 C245 1.241 . S
O250 Co238 2.137 . S
O250 C241 1.247 . S
O251 Co238 2.244 . S
O251 C241 1.272 . S
O251 Co243 2.135 . S
Co252 O253 2.216 . S
Co252 O254 2.091 . S
Co252 O256 2.004 . S
Co252 O262 2.021 . S
Co252 O264 2.137 . S
Co252 O265 2.244 . S
O253 Co252 2.216 . S
O253 C260 1.247 . S
O254 Co252 2.091 . S
O254 C260 1.261 . S
C255 O264 1.247 . S
C255 O265 1.272 . S
O256 Co252 2.004 . S
O256 C261 1.259 . S
Co257 O258 2.061 . S
Co257 O263 2.052 . S
Co257 O265 2.135 . S
O258 Co257 2.061 . S
O258 C261 1.235 . S
C259 O262 1.238 . S
C259 O263 1.241 . S
C260 O253 1.247 . S
C260 O254 1.261 . S
C261 O256 1.259 . S
C261 O258 1.235 . S
O262 Co252 2.021 . S
O262 C259 1.238 . S
O263 Co257 2.052 . S
O263 C259 1.241 . S
O264 Co252 2.137 . S
O264 C255 1.247 . S
O265 Co252 2.244 . S
O265 C255 1.272 . S
O265 Co257 2.135 . S
Co266 O267 2.216 . S
Co266 O268 2.091 . S
Co266 O270 2.004 . S
Co266 O276 2.021 . S
Co266 O278 2.137 . S
Co266 O279 2.244 . S
O267 Co266 2.216 . S
O267 C274 1.247 . S
O268 Co266 2.091 . S
O268 C274 1.261 . S
C269 O278 1.247 . S
C269 O279 1.272 . S
O270 Co266 2.004 . S
O270 C275 1.259 . S
Co271 O272 2.061 . S
Co271 O277 2.052 . S
Co271 O279 2.135 . S
O272 Co271 2.061 . S
O272 C275 1.235 . S
C273 O276 1.238 . S
C273 O277 1.241 . S
C274 O267 1.247 . S
C274 O268 1.261 . S
C275 O270 1.259 . S
C275 O272 1.235 . S
O276 Co266 2.021 . S
O276 C273 1.238 . S
O277 Co271 2.052 . S
O277 C273 1.241 . S
O278 Co266 2.137 . S
O278 C269 1.247 . S
O279 Co266 2.244 . S
O279 C269 1.272 . S
O279 Co271 2.135 . S
Co280 O281 2.216 . S
Co280 O282 2.091 . S
Co280 O284 2.004 . S
Co280 O290 2.021 . S
Co280 O292 2.137 . S
Co280 O293 2.244 . S
O281 Co280 2.216 . S
O281 C288 1.247 . S
O282 Co280 2.091 . S
O282 C288 1.261 . S
C283 O292 1.247 . S
C283 O293 1.272 . S
O284 Co280 2.004 . S
O284 C289 1.259 . S
Co285 O286 2.061 . S
Co285 O291 2.052 . S
Co285 O293 2.135 . S
O286 Co285 2.061 . S
O286 C289 1.235 . S
C287 O290 1.238 . S
C287 O291 1.241 . S
C288 O281 1.247 . S
C288 O282 1.261 . S
C289 O284 1.259 . S
C289 O286 1.235 . S
O290 Co280 2.021 . S
O290 C287 1.238 . S
O291 Co285 2.052 . S
O291 C287 1.241 . S
O292 Co280 2.137 . S
O292 C283 1.247 . S
O293 Co280 2.244 . S
O293 C283 1.272 . S
O293 Co285 2.135 . S
Co294 O295 2.216 . S
Co294 O296 2.091 . S
Co294 O298 2.004 . S
Co294 O304 2.021 . S
Co294 O306 2.137 . S
Co294 O307 2.244 . S
O295 Co294 2.216 . S
O295 C302 1.247 . S
O296 Co294 2.091 . S
O296 C302 1.261 . S
C297 O306 1.247 . S
C297 O307 1.272 . S
O298 Co294 2.004 . S
O298 C303 1.259 . S
Co299 O300 2.061 . S
Co299 O305 2.052 . S
Co299 O307 2.135 . S
O300 Co299 2.061 . S
O300 C303 1.235 . S
C301 O304 1.238 . S
C301 O305 1.241 . S
C302 O295 1.247 . S
C302 O296 1.261 . S
C303 O298 1.259 . S
C303 O300 1.235 . S
O304 Co294 2.021 . S
O304 C301 1.238 . S
O305 Co299 2.052 . S
O305 C301 1.241 . S
O306 Co294 2.137 . S
O306 C297 1.247 . S
O307 Co294 2.244 . S
O307 C297 1.272 . S
O307 Co299 2.135 . S
Co308 O309 2.216 . S
Co308 O310 2.091 . S
Co308 O312 2.004 . S
Co308 O318 2.021 . S
Co308 O320 2.137 . S
Co308 O321 2.244 . S
O309 Co308 2.216 . S
O309 C316 1.247 . S
O310 Co308 2.091 . S
O310 C316 1.261 . S
C311 O320 1.247 . S
C311 O321 1.272 . S
O312 Co308 2.004 . S
O312 C317 1.259 . S
Co313 O314 2.061 . S
Co313 O319 2.052 . S
Co313 O321 2.135 . S
O314 Co313 2.061 . S
O314 C317 1.235 . S
C315 O318 1.238 . S
C315 O319 1.241 . S
C316 O309 1.247 . S
C316 O310 1.261 . S
C317 O312 1.259 . S
C317 O314 1.235 . S
O318 Co308 2.021 . S
O318 C315 1.238 . S
O319 Co313 2.052 . S
O319 C315 1.241 . S
O320 Co308 2.137 . S
O320 C311 1.247 . S
O321 Co308 2.244 . S
O321 C311 1.272 . S
O321 Co313 2.135 . S
Co322 O323 2.216 . S
Co322 O324 2.091 . S
Co322 O326 2.004 . S
Co322 O332 2.021 . S
Co322 O334 2.137 . S
Co322 O335 2.244 . S
O323 Co322 2.216 . S
O323 C330 1.247 . S
O324 Co322 2.091 . S
O324 C330 1.261 . S
C325 O334 1.247 . S
C325 O335 1.272 . S
O326 Co322 2.004 . S
O326 C331 1.259 . S
Co327 O328 2.061 . S
Co327 O333 2.052 . S
Co327 O335 2.135 . S
O328 Co327 2.061 . S
O328 C331 1.235 . S
C329 O332 1.238 . S
C329 O333 1.241 . S
C330 O323 1.247 . S
C330 O324 1.261 . S
C331 O326 1.259 . S
C331 O328 1.235 . S
O332 Co322 2.021 . S
O332 C329 1.238 . S
O333 Co327 2.052 . S
O333 C329 1.241 . S
O334 Co322 2.137 . S
O334 C325 1.247 . S
O335 Co322 2.244 . S
O335 C325 1.272 . S
O335 Co327 2.135 . S
Co336 O337 2.216 . S
Co336 O338 2.091 . S
Co336 O340 2.004 . S
Co336 O346 2.021 . S
Co336 O348 2.137 . S
Co336 O349 2.244 . S
O337 Co336 2.216 . S
O337 C344 1.247 . S
O338 Co336 2.091 . S
O338 C344 1.261 . S
C339 O348 1.247 . S
C339 O349 1.272 . S
O340 Co336 2.004 . S
O340 C345 1.259 . S
Co341 O342 2.061 . S
Co341 O347 2.052 . S
Co341 O349 2.135 . S
O342 Co341 2.061 . S
O342 C345 1.235 . S
C343 O346 1.238 . S
C343 O347 1.241 . S
C344 O337 1.247 . S
C344 O338 1.261 . S
C345 O340 1.259 . S
C345 O342 1.235 . S
O346 Co336 2.021 . S
O346 C343 1.238 . S
O347 Co341 2.052 . S
O347 C343 1.241 . S
O348 Co336 2.137 . S
O348 C339 1.247 . S
O349 Co336 2.244 . S
O349 C339 1.272 . S
O349 Co341 2.135 . S
Co350 O351 2.216 . S
Co350 O352 2.091 . S
Co350 O354 2.004 . S
Co350 O360 2.021 . S
Co350 O362 2.137 . S
Co350 O363 2.244 . S
O351 Co350 2.216 . S
O351 C358 1.247 . S
O352 Co350 2.091 . S
O352 C358 1.261 . S
C353 O362 1.247 . S
C353 O363 1.272 . S
O354 Co350 2.004 . S
O354 C359 1.259 . S
Co355 O356 2.061 . S
Co355 O361 2.052 . S
Co355 O363 2.135 . S
O356 Co355 2.061 . S
O356 C359 1.235 . S
C357 O360 1.238 . S
C357 O361 1.241 . S
C358 O351 1.247 . S
C358 O352 1.261 . S
C359 O354 1.259 . S
C359 O356 1.235 . S
O360 Co350 2.021 . S
O360 C357 1.238 . S
O361 Co355 2.052 . S
O361 C357 1.241 . S
O362 Co350 2.137 . S
O362 C353 1.247 . S
O363 Co350 2.244 . S
O363 C353 1.272 . S
O363 Co355 2.135 . S
Co364 O365 2.216 . S
Co364 O366 2.091 . S
Co364 O368 2.004 . S
Co364 O374 2.021 . S
Co364 O376 2.137 . S
Co364 O377 2.244 . S
O365 Co364 2.216 . S
O365 C372 1.247 . S
O366 Co364 2.091 . S
O366 C372 1.261 . S
C367 O376 1.247 . S
C367 O377 1.272 . S
O368 Co364 2.004 . S
O368 C373 1.259 . S
Co369 O370 2.061 . S
Co369 O375 2.052 . S
Co369 O377 2.135 . S
O370 Co369 2.061 . S
O370 C373 1.235 . S
C371 O374 1.238 . S
C371 O375 1.241 . S
C372 O365 1.247 . S
C372 O366 1.261 . S
C373 O368 1.259 . S
C373 O370 1.235 . S
O374 Co364 2.021 . S
O374 C371 1.238 . S
O375 Co369 2.052 . S
O375 C371 1.241 . S
O376 Co364 2.137 . S
O376 C367 1.247 . S
O377 Co364 2.244 . S
O377 C367 1.272 . S
O377 Co369 2.135 . S
Co378 O379 2.216 . S
Co378 O380 2.091 . S
Co378 O382 2.004 . S
Co378 O388 2.021 . S
Co378 O390 2.137 . S
Co378 O391 2.244 . S
O379 Co378 2.216 . S
O379 C386 1.247 . S
O380 Co378 2.091 . S
O380 C386 1.261 . S
C381 O390 1.247 . S
C381 O391 1.272 . S
O382 Co378 2.004 . S
O382 C387 1.259 . S
Co383 O384 2.061 . S
Co383 O389 2.052 . S
Co383 O391 2.135 . S
O384 Co383 2.061 . S
O384 C387 1.235 . S
C385 O388 1.238 . S
C385 O389 1.241 . S
C386 O379 1.247 . S
C386 O380 1.261 . S
C387 O382 1.259 . S
C387 O384 1.235 . S
O388 Co378 2.021 . S
O388 C385 1.238 . S
O389 Co383 2.052 . S
O389 C385 1.241 . S
O390 Co378 2.137 . S
O390 C381 1.247 . S
O391 Co378 2.244 . S
O391 C381 1.272 . S
O391 Co383 2.135 . S
Co392 O393 2.216 . S
Co392 O394 2.091 . S
Co392 O396 2.004 . S
Co392 O402 2.021 . S
Co392 O404 2.137 . S
Co392 O405 2.244 . S
O393 Co392 2.216 . S
O393 C400 1.247 . S
O394 Co392 2.091 . S
O394 C400 1.261 . S
C395 O404 1.247 . S
C395 O405 1.272 . S
O396 Co392 2.004 . S
O396 C401 1.259 . S
Co397 O398 2.061 . S
Co397 O403 2.052 . S
Co397 O405 2.135 . S
O398 Co397 2.061 . S
O398 C401 1.235 . S
C399 O402 1.238 . S
C399 O403 1.241 . S
C400 O393 1.247 . S
C400 O394 1.261 . S
C401 O396 1.259 . S
C401 O398 1.235 . S
O402 Co392 2.021 . S
O402 C399 1.238 . S
O403 Co397 2.052 . S
O403 C399 1.241 . S
O404 Co392 2.137 . S
O404 C395 1.247 . S
O405 Co392 2.244 . S
O405 C395 1.272 . S
O405 Co397 2.135 . S
Co406 O407 2.216 . S
Co406 O408 2.091 . S
Co406 O410 2.004 . S
Co406 O416 2.021 . S
Co406 O418 2.137 . S
Co406 O419 2.244 . S
O407 Co406 2.216 . S
O407 C414 1.247 . S
O408 Co406 2.091 . S
O408 C414 1.261 . S
C409 O418 1.247 . S
C409 O419 1.272 . S
O410 Co406 2.004 . S
O410 C415 1.259 . S
Co411 O412 2.061 . S
Co411 O417 2.052 . S
Co411 O419 2.135 . S
O412 Co411 2.061 . S
O412 C415 1.235 . S
C413 O416 1.238 . S
C413 O417 1.241 . S
C414 O407 1.247 . S
C414 O408 1.261 . S
C415 O410 1.259 . S
C415 O412 1.235 . S
O416 Co406 2.021 . S
O416 C413 1.238 . S
O417 Co411 2.052 . S
O417 C413 1.241 . S
O418 Co406 2.137 . S
O418 C409 1.247 . S
O419 Co406 2.244 . S
O419 C409 1.272 . S
O419 Co411 2.135 . S
Co420 O421 2.216 . S
Co420 O422 2.091 . S
Co420 O424 2.004 . S
Co420 O430 2.021 . S
Co420 O432 2.137 . S
Co420 O433 2.244 . S
O421 Co420 2.216 . S
O421 C428 1.247 . S
O422 Co420 2.091 . S
O422 C428 1.261 . S
C423 O432 1.247 . S
C423 O433 1.272 . S
O424 Co420 2.004 . S
O424 C429 1.259 . S
Co425 O426 2.061 . S
Co425 O431 2.052 . S
Co425 O433 2.135 . S
O426 Co425 2.061 . S
O426 C429 1.235 . S
C427 O430 1.238 . S
C427 O431 1.241 . S
C428 O421 1.247 . S
C428 O422 1.261 . S
C429 O424 1.259 . S
C429 O426 1.235 . S
O430 Co420 2.021 . S
O430 C427 1.238 . S
O431 Co425 2.052 . S
O431 C427 1.241 . S
O432 Co420 2.137 . S
O432 C423 1.247 . S
O433 Co420 2.244 . S
O433 C423 1.272 . S
O433 Co425 2.135 . S
Co434 O435 2.216 . S
Co434 O436 2.091 . S
Co434 O438 2.004 . S
Co434 O444 2.021 . S
Co434 O446 2.137 . S
Co434 O447 2.244 . S
O435 Co434 2.216 . S
O435 C442 1.247 . S
O436 Co434 2.091 . S
O436 C442 1.261 . S
C437 O446 1.247 . S
C437 O447 1.272 . S
O438 Co434 2.004 . S
O438 C443 1.259 . S
Co439 O440 2.061 . S
Co439 O445 2.052 . S
Co439 O447 2.135 . S
O440 Co439 2.061 . S
O440 C443 1.235 . S
C441 O444 1.238 . S
C441 O445 1.241 . S
C442 O435 1.247 . S
C442 O436 1.261 . S
C443 O438 1.259 . S
C443 O440 1.235 . S
O444 Co434 2.021 . S
O444 C441 1.238 . S
O445 Co439 2.052 . S
O445 C441 1.241 . S
O446 Co434 2.137 . S
O446 C437 1.247 . S
O447 Co434 2.244 . S
O447 C437 1.272 . S
O447 Co439 2.135 . S
H448 C456 0.950 . S
H449 C461 0.950 . S
H450 C458 0.950 . S
H451 C460 0.950 . S
H452 C462 0.950 . S
H453 C464 0.950 . S
H454 C466 0.950 . S
H455 C467 0.950 . S
C456 H448 0.950 . S
C456 C457 1.386 . S
C456 C458 1.391 . S
C457 C456 1.386 . S
C457 C461 1.393 . S
C458 H450 0.950 . S
C458 C456 1.391 . S
C458 C459 1.400 . S
C459 C458 1.400 . S
C459 C460 1.398 . S
C459 C465 1.491 1_545 S
C460 H451 0.950 . S
C460 C459 1.398 . S
C460 C461 1.391 . S
C461 H449 0.950 . S
C461 C457 1.393 . S
C461 C460 1.391 . S
C462 H452 0.950 . S
C462 C463 1.386 . S
C462 C464 1.391 . S
C463 C462 1.386 . S
C463 C467 1.393 . S
C464 H453 0.950 . S
C464 C462 1.391 . S
C464 C465 1.400 . S
C465 C459 1.491 1_565 S
C465 C464 1.400 . S
C465 C466 1.398 . S
C466 H454 0.950 . S
C466 C465 1.398 . S
C466 C467 1.391 . S
C467 H455 0.950 . S
C467 C463 1.393 . S
C467 C466 1.391 . S
H468 C476 0.950 . S
H469 C481 0.950 . S
H470 C478 0.950 . S
H471 C480 0.950 . S
H472 C482 0.950 . S
H473 C484 0.950 . S
H474 C486 0.950 . S
H475 C487 0.950 . S
C476 H468 0.950 . S
C476 C477 1.386 . S
C476 C478 1.391 . S
C477 C476 1.386 . S
C477 C481 1.393 . S
C478 H470 0.950 . S
C478 C476 1.391 . S
C478 C479 1.400 . S
C479 C478 1.400 . S
C479 C480 1.398 . S
C479 C485 1.491 . S
C480 H471 0.950 . S
C480 C479 1.398 . S
C480 C481 1.391 . S
C481 H469 0.950 . S
C481 C477 1.393 . S
C481 C480 1.391 . S
C482 H472 0.950 . S
C482 C483 1.386 . S
C482 C484 1.391 . S
C483 C482 1.386 . S
C483 C487 1.393 . S
C484 H473 0.950 . S
C484 C482 1.391 . S
C484 C485 1.400 . S
C485 C479 1.491 . S
C485 C484 1.400 . S
C485 C486 1.398 . S
C486 H474 0.950 . S
C486 C485 1.398 . S
C486 C487 1.391 . S
C487 H475 0.950 . S
C487 C483 1.393 . S
C487 C486 1.391 . S
H488 C496 0.950 . S
H489 C501 0.950 . S
H490 C498 0.950 . S
H491 C500 0.950 . S
H492 C502 0.950 . S
H493 C504 0.950 . S
H494 C506 0.950 . S
H495 C507 0.950 . S
C496 H488 0.950 . S
C496 C497 1.386 . S
C496 C498 1.391 . S
C497 C496 1.386 . S
C497 C501 1.393 . S
C498 H490 0.950 . S
C498 C496 1.391 . S
C498 C499 1.400 . S
C499 C498 1.400 . S
C499 C500 1.398 . S
C499 C505 1.491 1_545 S
C500 H491 0.950 . S
C500 C499 1.398 . S
C500 C501 1.391 . S
C501 H489 0.950 . S
C501 C497 1.393 . S
C501 C500 1.391 . S
C502 H492 0.950 . S
C502 C503 1.386 . S
C502 C504 1.391 . S
C503 C502 1.386 . S
C503 C507 1.393 . S
C504 H493 0.950 . S
C504 C502 1.391 . S
C504 C505 1.400 . S
C505 C499 1.491 1_565 S
C505 C504 1.400 . S
C505 C506 1.398 . S
C506 H494 0.950 . S
C506 C505 1.398 . S
C506 C507 1.391 . S
C507 H495 0.950 . S
C507 C503 1.393 . S
C507 C506 1.391 . S
H508 C516 0.950 . S
H509 C521 0.950 . S
H510 C518 0.950 . S
H511 C520 0.950 1_554 S
H512 C522 0.950 . S
H513 C524 0.950 . S
H514 C526 0.950 1_556 S
H515 C527 0.950 . S
C516 H508 0.950 . S
C516 C517 1.386 . S
C516 C518 1.391 . S
C517 C516 1.386 . S
C517 C521 1.393 . S
C518 H510 0.950 . S
C518 C516 1.391 . S
C518 C519 1.400 . S
C519 C518 1.400 . S
C519 C520 1.398 . S
C519 C525 1.491 1_556 S
C520 H511 0.950 1_556 S
C520 C519 1.398 . S
C520 C521 1.391 . S
C521 H509 0.950 . S
C521 C517 1.393 . S
C521 C520 1.391 . S
C522 H512 0.950 . S
C522 C523 1.386 . S
C522 C524 1.391 . S
C523 C522 1.386 . S
C523 C527 1.393 . S
C524 H513 0.950 . S
C524 C522 1.391 . S
C524 C525 1.400 . S
C525 C519 1.491 1_554 S
C525 C524 1.400 . S
C525 C526 1.398 . S
C526 H514 0.950 1_554 S
C526 C525 1.398 . S
C526 C527 1.391 . S
C527 H515 0.950 . S
C527 C523 1.393 . S
C527 C526 1.391 . S
H528 C536 0.950 . S
H529 C541 0.950 . S
H530 C538 0.950 . S
H531 C540 0.950 1_545 S
H532 C542 0.950 . S
H533 C544 0.950 . S
H534 C546 0.950 1_565 S
H535 C547 0.950 . S
C536 H528 0.950 . S
C536 C537 1.386 . S
C536 C538 1.391 . S
C537 C536 1.386 . S
C537 C541 1.393 . S
C538 H530 0.950 . S
C538 C536 1.391 . S
C538 C539 1.400 . S
C539 C538 1.400 . S
C539 C540 1.398 . S
C539 C545 1.491 1_565 S
C540 H531 0.950 1_565 S
C540 C539 1.398 . S
C540 C541 1.391 . S
C541 H529 0.950 . S
C541 C537 1.393 . S
C541 C540 1.391 . S
C542 H532 0.950 . S
C542 C543 1.386 . S
C542 C544 1.391 . S
C543 C542 1.386 . S
C543 C547 1.393 . S
C544 H533 0.950 . S
C544 C542 1.391 . S
C544 C545 1.400 . S
C545 C539 1.491 1_545 S
C545 C544 1.400 . S
C545 C546 1.398 . S
C546 H534 0.950 1_545 S
C546 C545 1.398 . S
C546 C547 1.391 . S
C547 H535 0.950 . S
C547 C543 1.393 . S
C547 C546 1.391 . S
H548 C556 0.950 . S
H549 C561 0.950 . S
H550 C558 0.950 . S
H551 C560 0.950 . S
H552 C562 0.950 . S
H553 C564 0.950 . S
H554 C566 0.950 . S
H555 C567 0.950 . S
C556 H548 0.950 . S
C556 C557 1.386 . S
C556 C558 1.391 . S
C557 C556 1.386 . S
C557 C561 1.393 . S
C558 H550 0.950 . S
C558 C556 1.391 . S
C558 C559 1.400 . S
C559 C558 1.400 . S
C559 C560 1.398 . S
C559 C565 1.491 . S
C560 H551 0.950 . S
C560 C559 1.398 . S
C560 C561 1.391 . S
C561 H549 0.950 . S
C561 C557 1.393 . S
C561 C560 1.391 . S
C562 H552 0.950 . S
C562 C563 1.386 . S
C562 C564 1.391 . S
C563 C562 1.386 . S
C563 C567 1.393 . S
C564 H553 0.950 . S
C564 C562 1.391 . S
C564 C565 1.400 . S
C565 C559 1.491 . S
C565 C564 1.400 . S
C565 C566 1.398 . S
C566 H554 0.950 . S
C566 C565 1.398 . S
C566 C567 1.391 . S
C567 H555 0.950 . S
C567 C563 1.393 . S
C567 C566 1.391 . S
H568 C576 0.950 . S
H569 C581 0.950 . S
H570 C578 0.950 . S
H571 C580 0.950 . S
H572 C582 0.950 . S
H573 C584 0.950 . S
H574 C586 0.950 . S
H575 C587 0.950 . S
C576 H568 0.950 . S
C576 C577 1.386 . S
C576 C578 1.391 . S
C577 C576 1.386 . S
C577 C581 1.393 . S
C578 H570 0.950 . S
C578 C576 1.391 . S
C578 C579 1.400 . S
C579 C578 1.400 . S
C579 C580 1.398 . S
C579 C585 1.491 1_565 S
C580 H571 0.950 . S
C580 C579 1.398 . S
C580 C581 1.391 . S
C581 H569 0.950 . S
C581 C577 1.393 . S
C581 C580 1.391 . S
C582 H572 0.950 . S
C582 C583 1.386 . S
C582 C584 1.391 . S
C583 C582 1.386 . S
C583 C587 1.393 . S
C584 H573 0.950 . S
C584 C582 1.391 . S
C584 C585 1.400 . S
C585 C579 1.491 1_545 S
C585 C584 1.400 . S
C585 C586 1.398 . S
C586 H574 0.950 . S
C586 C585 1.398 . S
C586 C587 1.391 . S
C587 H575 0.950 . S
C587 C583 1.393 . S
C587 C586 1.391 . S
H588 C596 0.950 . S
H589 C601 0.950 . S
H590 C598 0.950 . S
H591 C600 0.950 1_554 S
H592 C602 0.950 . S
H593 C604 0.950 . S
H594 C606 0.950 1_556 S
H595 C607 0.950 . S
C596 H588 0.950 . S
C596 C597 1.386 . S
C596 C598 1.391 . S
C597 C596 1.386 . S
C597 C601 1.393 . S
C598 H590 0.950 . S
C598 C596 1.391 . S
C598 C599 1.400 . S
C599 C598 1.400 . S
C599 C600 1.398 . S
C599 C605 1.491 1_556 S
C600 H591 0.950 1_556 S
C600 C599 1.398 . S
C600 C601 1.391 . S
C601 H589 0.950 . S
C601 C597 1.393 . S
C601 C600 1.391 . S
C602 H592 0.950 . S
C602 C603 1.386 . S
C602 C604 1.391 . S
C603 C602 1.386 . S
C603 C607 1.393 . S
C604 H593 0.950 . S
C604 C602 1.391 . S
C604 C605 1.400 . S
C605 C599 1.491 1_554 S
C605 C604 1.400 . S
C605 C606 1.398 . S
C606 H594 0.950 1_554 S
C606 C605 1.398 . S
C606 C607 1.391 . S
C607 H595 0.950 . S
C607 C603 1.393 . S
C607 C606 1.391 . S
H608 C616 0.950 . S
H609 C621 0.950 . S
H610 C618 0.950 . S
H611 C620 0.950 . S
H612 C622 0.950 . S
H613 C624 0.950 . S
H614 C626 0.950 . S
H615 C627 0.950 . S
C616 H608 0.950 . S
C616 C617 1.386 . S
C616 C618 1.391 . S
C617 C616 1.386 . S
C617 C621 1.393 . S
C618 H610 0.950 . S
C618 C616 1.391 . S
C618 C619 1.400 . S
C619 C618 1.400 . S
C619 C620 1.398 . S
C619 C625 1.491 . S
C620 H611 0.950 . S
C620 C619 1.398 . S
C620 C621 1.391 . S
C621 H609 0.950 . S
C621 C617 1.393 . S
C621 C620 1.391 . S
C622 H612 0.950 . S
C622 C623 1.386 . S
C622 C624 1.391 . S
C623 C622 1.386 . S
C623 C627 1.393 . S
C624 H613 0.950 . S
C624 C622 1.391 . S
C624 C625 1.400 . S
C625 C619 1.491 . S
C625 C624 1.400 . S
C625 C626 1.398 . S
C626 H614 0.950 . S
C626 C625 1.398 . S
C626 C627 1.391 . S
C627 H615 0.950 . S
C627 C623 1.393 . S
C627 C626 1.391 . S
H628 C636 0.950 . S
H629 C641 0.950 . S
H630 C638 0.950 1_554 S
H631 C640 0.950 . S
H632 C642 0.950 . S
H633 C644 0.950 1_556 S
H634 C646 0.950 . S
H635 C647 0.950 . S
C636 H628 0.950 . S
C636 C637 1.386 . S
C636 C638 1.391 . S
C637 C636 1.386 . S
C637 C641 1.393 . S
C638 H630 0.950 1_556 S
C638 C636 1.391 . S
C638 C639 1.400 . S
C639 C638 1.400 . S
C639 C640 1.398 . S
C639 C645 1.491 1_556 S
C640 H631 0.950 . S
C640 C639 1.398 . S
C640 C641 1.391 . S
C641 H629 0.950 . S
C641 C637 1.393 . S
C641 C640 1.391 . S
C642 H632 0.950 . S
C642 C643 1.386 . S
C642 C644 1.391 . S
C643 C642 1.386 . S
C643 C647 1.393 . S
C644 H633 0.950 1_554 S
C644 C642 1.391 . S
C644 C645 1.400 . S
C645 C639 1.491 1_554 S
C645 C644 1.400 . S
C645 C646 1.398 . S
C646 H634 0.950 . S
C646 C645 1.398 . S
C646 C647 1.391 . S
C647 H635 0.950 . S
C647 C643 1.393 . S
C647 C646 1.391 . S
H648 C656 0.950 . S
H649 C661 0.950 . S
H650 C658 0.950 . S
H651 C660 0.950 . S
H652 C662 0.950 . S
H653 C664 0.950 . S
H654 C666 0.950 . S
H655 C667 0.950 . S
C656 H648 0.950 . S
C656 C657 1.386 . S
C656 C658 1.391 . S
C657 C656 1.386 . S
C657 C661 1.393 . S
C658 H650 0.950 . S
C658 C656 1.391 . S
C658 C659 1.400 . S
C659 C658 1.400 . S
C659 C660 1.398 . S
C659 C665 1.491 . S
C660 H651 0.950 . S
C660 C659 1.398 . S
C660 C661 1.391 . S
C661 H649 0.950 . S
C661 C657 1.393 . S
C661 C660 1.391 . S
C662 H652 0.950 . S
C662 C663 1.386 . S
C662 C664 1.391 . S
C663 C662 1.386 . S
C663 C667 1.393 . S
C664 H653 0.950 . S
C664 C662 1.391 . S
C664 C665 1.400 . S
C665 C659 1.491 . S
C665 C664 1.400 . S
C665 C666 1.398 . S
C666 H654 0.950 . S
C666 C665 1.398 . S
C666 C667 1.391 . S
C667 H655 0.950 . S
C667 C663 1.393 . S
C667 C666 1.391 . S
H668 C676 0.950 . S
H669 C681 0.950 . S
H670 C678 0.950 . S
H671 C680 0.950 . S
H672 C682 0.950 . S
H673 C684 0.950 . S
H674 C686 0.950 . S
H675 C687 0.950 . S
C676 H668 0.950 . S
C676 C677 1.386 . S
C676 C678 1.391 . S
C677 C676 1.386 . S
C677 C681 1.393 . S
C678 H670 0.950 . S
C678 C676 1.391 . S
C678 C679 1.400 . S
C679 C678 1.400 . S
C679 C680 1.398 . S
C679 C685 1.491 . S
C680 H671 0.950 . S
C680 C679 1.398 . S
C680 C681 1.391 . S
C681 H669 0.950 . S
C681 C677 1.393 . S
C681 C680 1.391 . S
C682 H672 0.950 . S
C682 C683 1.386 . S
C682 C684 1.391 . S
C683 C682 1.386 . S
C683 C687 1.393 . S
C684 H673 0.950 . S
C684 C682 1.391 . S
C684 C685 1.400 . S
C685 C679 1.491 . S
C685 C684 1.400 . S
C685 C686 1.398 . S
C686 H674 0.950 . S
C686 C685 1.398 . S
C686 C687 1.391 . S
C687 H675 0.950 . S
C687 C683 1.393 . S
C687 C686 1.391 . S
H688 C696 0.950 . S
H689 C701 0.950 . S
H690 C698 0.950 . S
H691 C700 0.950 . S
H692 C702 0.950 . S
H693 C704 0.950 . S
H694 C706 0.950 . S
H695 C707 0.950 . S
C696 H688 0.950 . S
C696 C697 1.386 . S
C696 C698 1.391 . S
C697 C696 1.386 . S
C697 C701 1.393 . S
C698 H690 0.950 . S
C698 C696 1.391 . S
C698 C699 1.400 . S
C699 C698 1.400 . S
C699 C700 1.398 . S
C699 C705 1.491 . S
C700 H691 0.950 . S
C700 C699 1.398 . S
C700 C701 1.391 . S
C701 H689 0.950 . S
C701 C697 1.393 . S
C701 C700 1.391 . S
C702 H692 0.950 . S
C702 C703 1.386 . S
C702 C704 1.391 . S
C703 C702 1.386 . S
C703 C707 1.393 . S
C704 H693 0.950 . S
C704 C702 1.391 . S
C704 C705 1.400 . S
C705 C699 1.491 . S
C705 C704 1.400 . S
C705 C706 1.398 . S
C706 H694 0.950 . S
C706 C705 1.398 . S
C706 C707 1.391 . S
C707 H695 0.950 . S
C707 C703 1.393 . S
C707 C706 1.391 . S
H708 C716 0.950 . S
H709 C721 0.950 . S
H710 C718 0.950 1_556 S
H711 C720 0.950 . S
H712 C722 0.950 . S
H713 C724 0.950 1_554 S
H714 C726 0.950 . S
H715 C727 0.950 . S
C716 H708 0.950 . S
C716 C717 1.386 . S
C716 C718 1.391 . S
C717 C716 1.386 . S
C717 C721 1.393 . S
C718 H710 0.950 1_554 S
C718 C716 1.391 . S
C718 C719 1.400 . S
C719 C718 1.400 . S
C719 C720 1.398 . S
C719 C725 1.491 1_554 S
C720 H711 0.950 . S
C720 C719 1.398 . S
C720 C721 1.391 . S
C721 H709 0.950 . S
C721 C717 1.393 . S
C721 C720 1.391 . S
C722 H712 0.950 . S
C722 C723 1.386 . S
C722 C724 1.391 . S
C723 C722 1.386 . S
C723 C727 1.393 . S
C724 H713 0.950 1_556 S
C724 C722 1.391 . S
C724 C725 1.400 . S
C725 C719 1.491 1_556 S
C725 C724 1.400 . S
C725 C726 1.398 . S
C726 H714 0.950 . S
C726 C725 1.398 . S
C726 C727 1.391 . S
C727 H715 0.950 . S
C727 C723 1.393 . S
C727 C726 1.391 . S
H728 C736 0.950 . S
H729 C741 0.950 . S
H730 C738 0.950 . S
H731 C740 0.950 . S
H732 C742 0.950 . S
H733 C744 0.950 . S
H734 C746 0.950 . S
H735 C747 0.950 . S
C736 H728 0.950 . S
C736 C737 1.386 . S
C736 C738 1.391 . S
C737 C736 1.386 . S
C737 C741 1.393 . S
C738 H730 0.950 . S
C738 C736 1.391 . S
C738 C739 1.400 . S
C739 C738 1.400 . S
C739 C740 1.398 . S
C739 C745 1.491 . S
C740 H731 0.950 . S
C740 C739 1.398 . S
C740 C741 1.391 . S
C741 H729 0.950 . S
C741 C737 1.393 . S
C741 C740 1.391 . S
C742 H732 0.950 . S
C742 C743 1.386 . S
C742 C744 1.391 . S
C743 C742 1.386 . S
C743 C747 1.393 . S
C744 H733 0.950 . S
C744 C742 1.391 . S
C744 C745 1.400 . S
C745 C739 1.491 . S
C745 C744 1.400 . S
C745 C746 1.398 . S
C746 H734 0.950 . S
C746 C745 1.398 . S
C746 C747 1.391 . S
C747 H735 0.950 . S
C747 C743 1.393 . S
C747 C746 1.391 . S
H748 C756 0.950 . S
H749 C761 0.950 . S
H750 C758 0.950 . S
H751 C760 0.950 . S
H752 C762 0.950 . S
H753 C764 0.950 . S
H754 C766 0.950 . S
H755 C767 0.950 . S
C756 H748 0.950 . S
C756 C757 1.386 . S
C756 C758 1.391 . S
C757 C756 1.386 . S
C757 C761 1.393 . S
C758 H750 0.950 . S
C758 C756 1.391 . S
C758 C759 1.400 . S
C759 C758 1.400 . S
C759 C760 1.398 . S
C759 C765 1.491 . S
C760 H751 0.950 . S
C760 C759 1.398 . S
C760 C761 1.391 . S
C761 H749 0.950 . S
C761 C757 1.393 . S
C761 C760 1.391 . S
C762 H752 0.950 . S
C762 C763 1.386 . S
C762 C764 1.391 . S
C763 C762 1.386 . S
C763 C767 1.393 . S
C764 H753 0.950 . S
C764 C762 1.391 . S
C764 C765 1.400 . S
C765 C759 1.491 . S
C765 C764 1.400 . S
C765 C766 1.398 . S
C766 H754 0.950 . S
C766 C765 1.398 . S
C766 C767 1.391 . S
C767 H755 0.950 . S
C767 C763 1.393 . S
C767 C766 1.391 . S
H768 C776 0.950 . S
H769 C781 0.950 . S
H770 C778 0.950 . S
H771 C780 0.950 . S
H772 C782 0.950 . S
H773 C784 0.950 . S
H774 C786 0.950 . S
H775 C787 0.950 . S
C776 H768 0.950 . S
C776 C777 1.386 . S
C776 C778 1.391 . S
C777 C776 1.386 . S
C777 C781 1.393 . S
C778 H770 0.950 . S
C778 C776 1.391 . S
C778 C779 1.400 . S
C779 C778 1.400 . S
C779 C780 1.398 . S
C779 C785 1.491 . S
C780 H771 0.950 . S
C780 C779 1.398 . S
C780 C781 1.391 . S
C781 H769 0.950 . S
C781 C777 1.393 . S
C781 C780 1.391 . S
C782 H772 0.950 . S
C782 C783 1.386 . S
C782 C784 1.391 . S
C783 C782 1.386 . S
C783 C787 1.393 . S
C784 H773 0.950 . S
C784 C782 1.391 . S
C784 C785 1.400 . S
C785 C779 1.491 . S
C785 C784 1.400 . S
C785 C786 1.398 . S
C786 H774 0.950 . S
C786 C785 1.398 . S
C786 C787 1.391 . S
C787 H775 0.950 . S
C787 C783 1.393 . S
C787 C786 1.391 . S
H788 C796 0.950 . S
H789 C801 0.950 . S
H790 C798 0.950 . S
H791 C800 0.950 . S
H792 C802 0.950 . S
H793 C804 0.950 . S
H794 C806 0.950 . S
H795 C807 0.950 . S
C796 H788 0.950 . S
C796 C797 1.386 . S
C796 C798 1.391 . S
C797 C796 1.386 . S
C797 C801 1.393 . S
C798 H790 0.950 . S
C798 C796 1.391 . S
C798 C799 1.390 1_655 S
C799 C798 1.390 1_455 S
C799 C800 1.390 1_455 S
C799 C805 1.509 . S
C800 H791 0.950 . S
C800 C799 1.390 1_655 S
C800 C801 1.391 . S
C801 H789 0.950 . S
C801 C797 1.393 . S
C801 C800 1.391 . S
C802 H792 0.950 . S
C802 C803 1.386 . S
C802 C804 1.391 . S
C803 C802 1.386 . S
C803 C807 1.393 . S
C804 H793 0.950 . S
C804 C802 1.391 . S
C804 C805 1.400 . S
C805 C799 1.509 . S
C805 C804 1.400 . S
C805 C806 1.398 . S
C806 H794 0.950 . S
C806 C805 1.398 . S
C806 C807 1.391 . S
C807 H795 0.950 . S
C807 C803 1.393 . S
C807 C806 1.391 . S
H808 C816 0.950 . S
H809 C821 0.950 . S
H810 C818 0.950 . S
H811 C820 0.950 . S
H812 C822 0.950 . S
H813 C824 0.950 . S
H814 C826 0.950 . S
H815 C827 0.950 . S
C816 H808 0.950 . S
C816 C817 1.386 . S
C816 C818 1.391 . S
C817 C816 1.386 . S
C817 C821 1.393 . S
C818 H810 0.950 . S
C818 C816 1.391 . S
C818 C819 1.400 . S
C819 C818 1.400 . S
C819 C820 1.398 . S
C819 C825 1.491 . S
C820 H811 0.950 . S
C820 C819 1.398 . S
C820 C821 1.391 . S
C821 H809 0.950 . S
C821 C817 1.393 . S
C821 C820 1.391 . S
C822 H812 0.950 . S
C822 C823 1.386 . S
C822 C824 1.391 . S
C823 C822 1.386 . S
C823 C827 1.393 . S
C824 H813 0.950 . S
C824 C822 1.391 . S
C824 C825 1.400 . S
C825 C819 1.491 . S
C825 C824 1.400 . S
C825 C826 1.398 . S
C826 H814 0.950 . S
C826 C825 1.398 . S
C826 C827 1.391 . S
C827 H815 0.950 . S
C827 C823 1.393 . S
C827 C826 1.391 . S
H828 C836 0.950 . S
H829 C841 0.950 . S
H830 C838 0.950 . S
H831 C840 0.950 . S
H832 C842 0.950 . S
H833 C844 0.950 . S
H834 C846 0.950 . S
H835 C847 0.950 . S
C836 H828 0.950 . S
C836 C837 1.386 . S
C836 C838 1.391 . S
C837 C836 1.386 . S
C837 C841 1.393 . S
C838 H830 0.950 . S
C838 C836 1.391 . S
C838 C839 1.400 . S
C839 C838 1.400 . S
C839 C840 1.398 . S
C839 C845 1.491 . S
C840 H831 0.950 . S
C840 C839 1.398 . S
C840 C841 1.391 . S
C841 H829 0.950 . S
C841 C837 1.393 . S
C841 C840 1.391 . S
C842 H832 0.950 . S
C842 C843 1.386 . S
C842 C844 1.391 . S
C843 C842 1.386 . S
C843 C847 1.393 . S
C844 H833 0.950 . S
C844 C842 1.391 . S
C844 C845 1.400 . S
C845 C839 1.491 . S
C845 C844 1.400 . S
C845 C846 1.398 . S
C846 H834 0.950 . S
C846 C845 1.398 . S
C846 C847 1.391 . S
C847 H835 0.950 . S
C847 C843 1.393 . S
C847 C846 1.391 . S
H848 C856 0.950 . S
H849 C861 0.950 . S
H850 C858 0.950 . S
H851 C860 0.950 . S
H852 C862 0.950 . S
H853 C864 0.950 . S
H854 C866 0.950 . S
H855 C867 0.950 . S
C856 H848 0.950 . S
C856 C857 1.386 . S
C856 C858 1.391 . S
C857 C856 1.386 . S
C857 C861 1.393 . S
C858 H850 0.950 . S
C858 C856 1.391 . S
C858 C859 1.400 . S
C859 C858 1.400 . S
C859 C860 1.398 . S
C859 C865 1.491 . S
C860 H851 0.950 . S
C860 C859 1.398 . S
C860 C861 1.391 . S
C861 H849 0.950 . S
C861 C857 1.393 . S
C861 C860 1.391 . S
C862 H852 0.950 . S
C862 C863 1.386 . S
C862 C864 1.391 . S
C863 C862 1.386 . S
C863 C867 1.393 . S
C864 H853 0.950 . S
C864 C862 1.391 . S
C864 C865 1.400 . S
C865 C859 1.491 . S
C865 C864 1.400 . S
C865 C866 1.398 . S
C866 H854 0.950 . S
C866 C865 1.398 . S
C866 C867 1.391 . S
C867 H855 0.950 . S
C867 C863 1.393 . S
C867 C866 1.391 . S
H868 C876 0.950 . S
H869 C881 0.950 . S
H870 C878 0.950 . S
H871 C880 0.950 . S
H872 C882 0.950 . S
H873 C884 0.950 . S
H874 C886 0.950 . S
H875 C887 0.950 . S
C876 H868 0.950 . S
C876 C877 1.386 . S
C876 C878 1.391 . S
C877 C876 1.386 . S
C877 C881 1.393 . S
C878 H870 0.950 . S
C878 C876 1.391 . S
C878 C879 1.400 . S
C879 C878 1.400 . S
C879 C880 1.398 . S
C879 C885 1.491 . S
C880 H871 0.950 . S
C880 C879 1.398 . S
C880 C881 1.391 . S
C881 H869 0.950 . S
C881 C877 1.393 . S
C881 C880 1.391 . S
C882 H872 0.950 . S
C882 C883 1.386 . S
C882 C884 1.391 . S
C883 C882 1.386 . S
C883 C887 1.393 . S
C884 H873 0.950 . S
C884 C882 1.391 . S
C884 C885 1.400 . S
C885 C879 1.491 . S
C885 C884 1.400 . S
C885 C886 1.398 . S
C886 H874 0.950 . S
C886 C885 1.398 . S
C886 C887 1.391 . S
C887 H875 0.950 . S
C887 C883 1.393 . S
C887 C886 1.391 . S
H888 C896 0.950 . S
H889 C901 0.950 . S
H890 C898 0.950 . S
H891 C900 0.950 . S
H892 C902 0.950 . S
H893 C904 0.950 . S
H894 C906 0.950 . S
H895 C907 0.950 . S
C896 H888 0.950 . S
C896 C897 1.386 . S
C896 C898 1.391 . S
C897 C896 1.386 . S
C897 C901 1.393 . S
C898 H890 0.950 . S
C898 C896 1.391 . S
C898 C899 1.400 . S
C899 C898 1.400 . S
C899 C900 1.398 . S
C899 C905 1.491 . S
C900 H891 0.950 . S
C900 C899 1.398 . S
C900 C901 1.391 . S
C901 H889 0.950 . S
C901 C897 1.393 . S
C901 C900 1.391 . S
C902 H892 0.950 . S
C902 C903 1.386 . S
C902 C904 1.391 . S
C903 C902 1.386 . S
C903 C907 1.393 . S
C904 H893 0.950 . S
C904 C902 1.391 . S
C904 C905 1.400 . S
C905 C899 1.491 . S
C905 C904 1.400 . S
C905 C906 1.398 . S
C906 H894 0.950 . S
C906 C905 1.398 . S
C906 C907 1.391 . S
C907 H895 0.950 . S
C907 C903 1.393 . S
C907 C906 1.391 . S
H908 C916 0.950 . S
H909 C921 0.950 . S
H910 C918 0.950 . S
H911 C920 0.950 . S
H912 C922 0.950 . S
H913 C924 0.950 . S
H914 C926 0.950 . S
H915 C927 0.950 . S
C916 H908 0.950 . S
C916 C917 1.386 . S
C916 C918 1.391 . S
C917 C916 1.386 . S
C917 C921 1.393 . S
C918 H910 0.950 . S
C918 C916 1.391 . S
C918 C919 1.400 . S
C919 C918 1.400 . S
C919 C920 1.398 . S
C919 C925 1.509 . S
C920 H911 0.950 . S
C920 C919 1.398 . S
C920 C921 1.391 . S
C921 H909 0.950 . S
C921 C917 1.393 . S
C921 C920 1.391 . S
C922 H912 0.950 . S
C922 C923 1.386 . S
C922 C924 1.391 . S
C923 C922 1.386 . S
C923 C927 1.393 . S
C924 H913 0.950 . S
C924 C922 1.391 . S
C924 C925 1.391 1_655 S
C925 C919 1.509 . S
C925 C924 1.391 1_455 S
C925 C926 1.388 1_455 S
C926 H914 0.950 . S
C926 C925 1.388 1_655 S
C926 C927 1.391 . S
C927 H915 0.950 . S
C927 C923 1.393 . S
C927 C926 1.391 . S
H928 C936 0.950 . S
H929 C941 0.950 . S
H930 C938 0.950 . S
H931 C940 0.950 . S
H932 C942 0.950 . S
H933 C944 0.950 . S
H934 C946 0.950 . S
H935 C947 0.950 . S
C936 H928 0.950 . S
C936 C937 1.386 . S
C936 C938 1.391 . S
C937 C936 1.386 . S
C937 C941 1.393 . S
C938 H930 0.950 . S
C938 C936 1.391 . S
C938 C939 1.400 . S
C939 C938 1.400 . S
C939 C940 1.398 . S
C939 C945 1.491 . S
C940 H931 0.950 . S
C940 C939 1.398 . S
C940 C941 1.391 . S
C941 H929 0.950 . S
C941 C937 1.393 . S
C941 C940 1.391 . S
C942 H932 0.950 . S
C942 C943 1.386 . S
C942 C944 1.391 . S
C943 C942 1.386 . S
C943 C947 1.393 . S
C944 H933 0.950 . S
C944 C942 1.391 . S
C944 C945 1.400 . S
C945 C939 1.491 . S
C945 C944 1.400 . S
C945 C946 1.398 . S
C946 H934 0.950 . S
C946 C945 1.398 . S
C946 C947 1.391 . S
C947 H935 0.950 . S
C947 C943 1.393 . S
C947 C946 1.391 . S
H948 C956 0.950 . S
H949 C961 0.950 . S
H950 C958 0.950 . S
H951 C960 0.950 . S
H952 C962 0.950 . S
H953 C964 0.950 . S
H954 C966 0.950 . S
H955 C967 0.950 . S
C956 H948 0.950 . S
C956 C957 1.386 . S
C956 C958 1.391 . S
C957 C956 1.386 . S
C957 C961 1.393 . S
C958 H950 0.950 . S
C958 C956 1.391 . S
C958 C959 1.400 . S
C959 C958 1.400 . S
C959 C960 1.398 . S
C959 C965 1.510 . S
C960 H951 0.950 . S
C960 C959 1.398 . S
C960 C961 1.391 . S
C961 H949 0.950 . S
C961 C957 1.393 . S
C961 C960 1.391 . S
C962 H952 0.950 . S
C962 C963 1.386 . S
C962 C964 1.391 . S
C963 C962 1.386 . S
C963 C967 1.393 . S
C964 H953 0.950 . S
C964 C962 1.391 . S
C964 C965 1.390 1_455 S
C965 C959 1.510 . S
C965 C964 1.390 1_655 S
C965 C966 1.389 1_655 S
C966 H954 0.950 . S
C966 C965 1.389 1_455 S
C966 C967 1.391 . S
C967 H955 0.950 . S
C967 C963 1.393 . S
C967 C966 1.391 . S
H968 C976 0.950 . S
H969 C981 0.950 . S
H970 C978 0.950 . S
H971 C980 0.950 . S
H972 C982 0.950 . S
H973 C984 0.950 . S
H974 C986 0.950 . S
H975 C987 0.950 . S
C976 H968 0.950 . S
C976 C977 1.386 . S
C976 C978 1.391 . S
C977 C976 1.386 . S
C977 C981 1.393 . S
C978 H970 0.950 . S
C978 C976 1.391 . S
C978 C979 1.400 . S
C979 C978 1.400 . S
C979 C980 1.398 . S
C979 C985 1.491 . S
C980 H971 0.950 . S
C980 C979 1.398 . S
C980 C981 1.391 . S
C981 H969 0.950 . S
C981 C977 1.393 . S
C981 C980 1.391 . S
C982 H972 0.950 . S
C982 C983 1.386 . S
C982 C984 1.391 . S
C983 C982 1.386 . S
C983 C987 1.393 . S
C984 H973 0.950 . S
C984 C982 1.391 . S
C984 C985 1.400 . S
C985 C979 1.491 . S
C985 C984 1.400 . S
C985 C986 1.398 . S
C986 H974 0.950 . S
C986 C985 1.398 . S
C986 C987 1.391 . S
C987 H975 0.950 . S
C987 C983 1.393 . S
C987 C986 1.391 . S
H988 C996 0.950 . S
H989 C1001 0.950 . S
H990 C998 0.950 . S
H991 C1000 0.950 . S
H992 C1002 0.950 . S
H993 C1004 0.950 . S
H994 C1006 0.950 . S
H995 C1007 0.950 . S
C996 H988 0.950 . S
C996 C997 1.386 . S
C996 C998 1.391 . S
C997 C996 1.386 . S
C997 C1001 1.393 . S
C998 H990 0.950 . S
C998 C996 1.391 . S
C998 C999 1.400 . S
C999 C998 1.400 . S
C999 C1000 1.398 . S
C999 C1005 1.491 . S
C1000 H991 0.950 . S
C1000 C999 1.398 . S
C1000 C1001 1.391 . S
C1001 H989 0.950 . S
C1001 C997 1.393 . S
C1001 C1000 1.391 . S
C1002 H992 0.950 . S
C1002 C1003 1.386 . S
C1002 C1004 1.391 . S
C1003 C1002 1.386 . S
C1003 C1007 1.393 . S
C1004 H993 0.950 . S
C1004 C1002 1.391 . S
C1004 C1005 1.400 . S
C1005 C999 1.491 . S
C1005 C1004 1.400 . S
C1005 C1006 1.398 . S
C1006 H994 0.950 . S
C1006 C1005 1.398 . S
C1006 C1007 1.391 . S
C1007 H995 0.950 . S
C1007 C1003 1.393 . S
C1007 C1006 1.391 . S
H1008 C1016 0.950 . S
H1009 C1021 0.950 . S
H1010 C1018 0.950 . S
H1011 C1020 0.950 . S
H1012 C1022 0.950 . S
H1013 C1024 0.950 . S
H1014 C1026 0.950 . S
H1015 C1027 0.950 . S
C1016 H1008 0.950 . S
C1016 C1017 1.386 . S
C1016 C1018 1.391 . S
C1017 C1016 1.386 . S
C1017 C1021 1.393 . S
C1018 H1010 0.950 . S
C1018 C1016 1.391 . S
C1018 C1019 1.400 . S
C1019 C1018 1.400 . S
C1019 C1020 1.398 . S
C1019 C1025 1.491 . S
C1020 H1011 0.950 . S
C1020 C1019 1.398 . S
C1020 C1021 1.391 . S
C1021 H1009 0.950 . S
C1021 C1017 1.393 . S
C1021 C1020 1.391 . S
C1022 H1012 0.950 . S
C1022 C1023 1.386 . S
C1022 C1024 1.391 . S
C1023 C1022 1.386 . S
C1023 C1027 1.393 . S
C1024 H1013 0.950 . S
C1024 C1022 1.391 . S
C1024 C1025 1.400 . S
C1025 C1019 1.491 . S
C1025 C1024 1.400 . S
C1025 C1026 1.398 . S
C1026 H1014 0.950 . S
C1026 C1025 1.398 . S
C1026 C1027 1.391 . S
C1027 H1015 0.950 . S
C1027 C1023 1.393 . S
C1027 C1026 1.391 . S
H1028 C1036 0.950 . S
H1029 C1041 0.950 . S
H1030 C1038 0.950 . S
H1031 C1040 0.950 . S
H1032 C1042 0.950 . S
H1033 C1044 0.950 . S
H1034 C1046 0.950 . S
H1035 C1047 0.950 . S
C1036 H1028 0.950 . S
C1036 C1037 1.386 . S
C1036 C1038 1.391 . S
C1037 C1036 1.386 . S
C1037 C1041 1.393 . S
C1038 H1030 0.950 . S
C1038 C1036 1.391 . S
C1038 C1039 1.400 . S
C1039 C1038 1.400 . S
C1039 C1040 1.398 . S
C1039 C1045 1.491 . S
C1040 H1031 0.950 . S
C1040 C1039 1.398 . S
C1040 C1041 1.391 . S
C1041 H1029 0.950 . S
C1041 C1037 1.393 . S
C1041 C1040 1.391 . S
C1042 H1032 0.950 . S
C1042 C1043 1.386 . S
C1042 C1044 1.391 . S
C1043 C1042 1.386 . S
C1043 C1047 1.393 . S
C1044 H1033 0.950 . S
C1044 C1042 1.391 . S
C1044 C1045 1.400 . S
C1045 C1039 1.491 . S
C1045 C1044 1.400 . S
C1045 C1046 1.398 . S
C1046 H1034 0.950 . S
C1046 C1045 1.398 . S
C1046 C1047 1.391 . S
C1047 H1035 0.950 . S
C1047 C1043 1.393 . S
C1047 C1046 1.391 . S
H1048 C1056 0.950 . S
H1049 C1061 0.950 . S
H1050 C1058 0.950 . S
H1051 C1060 0.950 . S
H1052 C1062 0.950 . S
H1053 C1064 0.950 . S
H1054 C1066 0.950 . S
H1055 C1067 0.950 . S
C1056 H1048 0.950 . S
C1056 C1057 1.386 . S
C1056 C1058 1.391 . S
C1057 C1056 1.386 . S
C1057 C1061 1.393 . S
C1058 H1050 0.950 . S
C1058 C1056 1.391 . S
C1058 C1059 1.400 . S
C1059 C1058 1.400 . S
C1059 C1060 1.398 . S
C1059 C1065 1.491 . S
C1060 H1051 0.950 . S
C1060 C1059 1.398 . S
C1060 C1061 1.391 . S
C1061 H1049 0.950 . S
C1061 C1057 1.393 . S
C1061 C1060 1.391 . S
C1062 H1052 0.950 . S
C1062 C1063 1.386 . S
C1062 C1064 1.391 . S
C1063 C1062 1.386 . S
C1063 C1067 1.393 . S
C1064 H1053 0.950 . S
C1064 C1062 1.391 . S
C1064 C1065 1.400 . S
C1065 C1059 1.491 . S
C1065 C1064 1.400 . S
C1065 C1066 1.398 . S
C1066 H1054 0.950 . S
C1066 C1065 1.398 . S
C1066 C1067 1.391 . S
C1067 H1055 0.950 . S
C1067 C1063 1.393 . S
C1067 C1066 1.391 . S
H1068 C1076 0.950 . S
H1069 C1081 0.950 . S
H1070 C1078 0.950 . S
H1071 C1080 0.950 . S
H1072 C1082 0.950 . S
H1073 C1084 0.950 . S
H1074 C1086 0.950 . S
H1075 C1087 0.950 . S
C1076 H1068 0.950 . S
C1076 C1077 1.386 . S
C1076 C1078 1.391 . S
C1077 C1076 1.386 . S
C1077 C1081 1.393 . S
C1078 H1070 0.950 . S
C1078 C1076 1.391 . S
C1078 C1079 1.400 . S
C1079 C1078 1.400 . S
C1079 C1080 1.398 . S
C1079 C1085 1.509 . S
C1080 H1071 0.950 . S
C1080 C1079 1.398 . S
C1080 C1081 1.391 . S
C1081 H1069 0.950 . S
C1081 C1077 1.393 . S
C1081 C1080 1.391 . S
C1082 H1072 0.950 . S
C1082 C1083 1.386 . S
C1082 C1084 1.391 . S
C1083 C1082 1.386 . S
C1083 C1087 1.393 . S
C1084 H1073 0.950 . S
C1084 C1082 1.391 . S
C1084 C1085 1.390 1_455 S
C1085 C1079 1.509 . S
C1085 C1084 1.390 1_655 S
C1085 C1086 1.390 1_655 S
C1086 H1074 0.950 . S
C1086 C1085 1.390 1_455 S
C1086 C1087 1.391 . S
C1087 H1075 0.950 . S
C1087 C1083 1.393 . S
C1087 C1086 1.391 . S
H1088 C1096 0.950 . S
H1089 C1101 0.950 . S
H1090 C1098 0.950 . S
H1091 C1100 0.950 . S
H1092 C1102 0.950 . S
H1093 C1104 0.950 . S
H1094 C1106 0.950 . S
H1095 C1107 0.950 . S
C1096 H1088 0.950 . S
C1096 C1097 1.386 . S
C1096 C1098 1.391 . S
C1097 C1096 1.386 . S
C1097 C1101 1.393 . S
C1098 H1090 0.950 . S
C1098 C1096 1.391 . S
C1098 C1099 1.400 . S
C1099 C1098 1.400 . S
C1099 C1100 1.398 . S
C1099 C1105 1.491 . S
C1100 H1091 0.950 . S
C1100 C1099 1.398 . S
C1100 C1101 1.391 . S
C1101 H1089 0.950 . S
C1101 C1097 1.393 . S
C1101 C1100 1.391 . S
C1102 H1092 0.950 . S
C1102 C1103 1.386 . S
C1102 C1104 1.391 . S
C1103 C1102 1.386 . S
C1103 C1107 1.393 . S
C1104 H1093 0.950 . S
C1104 C1102 1.391 . S
C1104 C1105 1.400 . S
C1105 C1099 1.491 . S
C1105 C1104 1.400 . S
C1105 C1106 1.398 . S
C1106 H1094 0.950 . S
C1106 C1105 1.398 . S
C1106 C1107 1.391 . S
C1107 H1095 0.950 . S
C1107 C1103 1.393 . S
C1107 C1106 1.391 . S
H1108 C1116 0.950 . S
H1109 C1121 0.950 . S
H1110 C1118 0.950 . S
H1111 C1120 0.950 . S
H1112 C1122 0.950 . S
H1113 C1124 0.950 . S
H1114 C1126 0.950 . S
H1115 C1127 0.950 . S
C1116 H1108 0.950 . S
C1116 C1117 1.386 . S
C1116 C1118 1.391 . S
C1117 C1116 1.386 . S
C1117 C1121 1.393 . S
C1118 H1110 0.950 . S
C1118 C1116 1.391 . S
C1118 C1119 1.400 . S
C1119 C1118 1.400 . S
C1119 C1120 1.398 . S
C1119 C1125 1.491 . S
C1120 H1111 0.950 . S
C1120 C1119 1.398 . S
C1120 C1121 1.391 . S
C1121 H1109 0.950 . S
C1121 C1117 1.393 . S
C1121 C1120 1.391 . S
C1122 H1112 0.950 . S
C1122 C1123 1.386 . S
C1122 C1124 1.391 . S
C1123 C1122 1.386 . S
C1123 C1127 1.393 . S
C1124 H1113 0.950 . S
C1124 C1122 1.391 . S
C1124 C1125 1.400 . S
C1125 C1119 1.491 . S
C1125 C1124 1.400 . S
C1125 C1126 1.398 . S
C1126 H1114 0.950 . S
C1126 C1125 1.398 . S
C1126 C1127 1.391 . S
C1127 H1115 0.950 . S
C1127 C1123 1.393 . S
C1127 C1126 1.391 . S
H1128 C1136 0.950 . S
H1129 C1141 0.950 . S
H1130 C1138 0.950 . S
H1131 C1140 0.950 . S
H1132 C1142 0.950 . S
H1133 C1144 0.950 . S
H1134 C1146 0.950 . S
H1135 C1147 0.950 . S
C1136 H1128 0.950 . S
C1136 C1137 1.386 . S
C1136 C1138 1.391 . S
C1137 C1136 1.386 . S
C1137 C1141 1.393 . S
C1138 H1130 0.950 . S
C1138 C1136 1.391 . S
C1138 C1139 1.400 . S
C1139 C1138 1.400 . S
C1139 C1140 1.398 . S
C1139 C1145 1.491 . S
C1140 H1131 0.950 . S
C1140 C1139 1.398 . S
C1140 C1141 1.391 . S
C1141 H1129 0.950 . S
C1141 C1137 1.393 . S
C1141 C1140 1.391 . S
C1142 H1132 0.950 . S
C1142 C1143 1.386 . S
C1142 C1144 1.391 . S
C1143 C1142 1.386 . S
C1143 C1147 1.393 . S
C1144 H1133 0.950 . S
C1144 C1142 1.391 . S
C1144 C1145 1.400 . S
C1145 C1139 1.491 . S
C1145 C1144 1.400 . S
C1145 C1146 1.398 . S
C1146 H1134 0.950 . S
C1146 C1145 1.398 . S
C1146 C1147 1.391 . S
C1147 H1135 0.950 . S
C1147 C1143 1.393 . S
C1147 C1146 1.391 . S
H1148 C1156 0.950 . S
H1149 C1161 0.950 . S
H1150 C1158 0.950 . S
H1151 C1160 0.950 . S
H1152 C1162 0.950 . S
H1153 C1164 0.950 . S
H1154 C1166 0.950 . S
H1155 C1167 0.950 . S
C1156 H1148 0.950 . S
C1156 C1157 1.386 . S
C1156 C1158 1.391 . S
C1157 C1156 1.386 . S
C1157 C1161 1.393 . S
C1158 H1150 0.950 . S
C1158 C1156 1.391 . S
C1158 C1159 1.400 . S
C1159 C1158 1.400 . S
C1159 C1160 1.398 . S
C1159 C1165 1.508 . S
C1160 H1151 0.950 . S
C1160 C1159 1.398 . S
C1160 C1161 1.391 . S
C1161 H1149 0.950 . S
C1161 C1157 1.393 . S
C1161 C1160 1.391 . S
C1162 H1152 0.950 . S
C1162 C1163 1.386 . S
C1162 C1164 1.391 . S
C1163 C1162 1.386 . S
C1163 C1167 1.393 . S
C1164 H1153 0.950 . S
C1164 C1162 1.391 . S
C1164 C1165 1.390 1_455 S
C1165 C1159 1.508 . S
C1165 C1164 1.390 1_655 S
C1165 C1166 1.390 1_655 S
C1166 H1154 0.950 . S
C1166 C1165 1.390 1_455 S
C1166 C1167 1.391 . S
C1167 H1155 0.950 . S
C1167 C1163 1.393 . S
C1167 C1166 1.391 . S
H1168 C1176 0.950 . S
H1169 C1181 0.950 . S
H1170 C1178 0.950 . S
H1171 C1180 0.950 . S
H1172 C1182 0.950 . S
H1173 C1184 0.950 . S
H1174 C1186 0.950 . S
H1175 C1187 0.950 . S
C1176 H1168 0.950 . S
C1176 C1177 1.386 . S
C1176 C1178 1.391 . S
C1177 C1176 1.386 . S
C1177 C1181 1.393 . S
C1178 H1170 0.950 . S
C1178 C1176 1.391 . S
C1178 C1179 1.400 . S
C1179 C1178 1.400 . S
C1179 C1180 1.398 . S
C1179 C1185 1.491 . S
C1180 H1171 0.950 . S
C1180 C1179 1.398 . S
C1180 C1181 1.391 . S
C1181 H1169 0.950 . S
C1181 C1177 1.393 . S
C1181 C1180 1.391 . S
C1182 H1172 0.950 . S
C1182 C1183 1.386 . S
C1182 C1184 1.391 . S
C1183 C1182 1.386 . S
C1183 C1187 1.393 . S
C1184 H1173 0.950 . S
C1184 C1182 1.391 . S
C1184 C1185 1.400 . S
C1185 C1179 1.491 . S
C1185 C1184 1.400 . S
C1185 C1186 1.398 . S
C1186 H1174 0.950 . S
C1186 C1185 1.398 . S
C1186 C1187 1.391 . S
C1187 H1175 0.950 . S
C1187 C1183 1.393 . S
C1187 C1186 1.391 . S
H1188 C1196 0.950 . S
H1189 C1201 0.950 . S
H1190 C1198 0.950 . S
H1191 C1200 0.950 . S
H1192 C1202 0.950 . S
H1193 C1204 0.950 . S
H1194 C1206 0.950 . S
H1195 C1207 0.950 . S
C1196 H1188 0.950 . S
C1196 C1197 1.386 . S
C1196 C1198 1.391 . S
C1197 C1196 1.386 . S
C1197 C1201 1.393 . S
C1198 H1190 0.950 . S
C1198 C1196 1.391 . S
C1198 C1199 1.390 1_455 S
C1199 C1198 1.390 1_655 S
C1199 C1200 1.390 1_655 S
C1199 C1205 1.508 . S
C1200 H1191 0.950 . S
C1200 C1199 1.390 1_455 S
C1200 C1201 1.391 . S
C1201 H1189 0.950 . S
C1201 C1197 1.393 . S
C1201 C1200 1.391 . S
C1202 H1192 0.950 . S
C1202 C1203 1.386 . S
C1202 C1204 1.391 . S
C1203 C1202 1.386 . S
C1203 C1207 1.393 . S
C1204 H1193 0.950 . S
C1204 C1202 1.391 . S
C1204 C1205 1.400 . S
C1205 C1199 1.508 . S
C1205 C1204 1.400 . S
C1205 C1206 1.398 . S
C1206 H1194 0.950 . S
C1206 C1205 1.398 . S
C1206 C1207 1.391 . S
C1207 H1195 0.950 . S
C1207 C1203 1.393 . S
C1207 C1206 1.391 . S
H1208 C1216 0.950 . S
H1209 C1221 0.950 . S
H1210 C1218 0.950 . S
H1211 C1220 0.950 . S
H1212 C1222 0.950 . S
H1213 C1224 0.950 . S
H1214 C1226 0.950 . S
H1215 C1227 0.950 . S
C1216 H1208 0.950 . S
C1216 C1217 1.386 . S
C1216 C1218 1.391 . S
C1217 C1216 1.386 . S
C1217 C1221 1.393 . S
C1218 H1210 0.950 . S
C1218 C1216 1.391 . S
C1218 C1219 1.400 . S
C1219 C1218 1.400 . S
C1219 C1220 1.398 . S
C1219 C1225 1.491 . S
C1220 H1211 0.950 . S
C1220 C1219 1.398 . S
C1220 C1221 1.391 . S
C1221 H1209 0.950 . S
C1221 C1217 1.393 . S
C1221 C1220 1.391 . S
C1222 H1212 0.950 . S
C1222 C1223 1.386 . S
C1222 C1224 1.391 . S
C1223 C1222 1.386 . S
C1223 C1227 1.393 . S
C1224 H1213 0.950 . S
C1224 C1222 1.391 . S
C1224 C1225 1.400 . S
C1225 C1219 1.491 . S
C1225 C1224 1.400 . S
C1225 C1226 1.398 . S
C1226 H1214 0.950 . S
C1226 C1225 1.398 . S
C1226 C1227 1.391 . S
C1227 H1215 0.950 . S
C1227 C1223 1.393 . S
C1227 C1226 1.391 . S
H1228 C1236 0.950 . S
H1229 C1241 0.950 . S
H1230 C1238 0.950 . S
H1231 C1240 0.950 . S
H1232 C1242 0.950 . S
H1233 C1244 0.950 . S
H1234 C1246 0.950 . S
H1235 C1247 0.950 . S
C1236 H1228 0.950 . S
C1236 C1237 1.386 . S
C1236 C1238 1.391 . S
C1237 C1236 1.386 . S
C1237 C1241 1.393 . S
C1238 H1230 0.950 . S
C1238 C1236 1.391 . S
C1238 C1239 1.400 . S
C1239 C1238 1.400 . S
C1239 C1240 1.398 . S
C1239 C1245 1.491 . S
C1240 H1231 0.950 . S
C1240 C1239 1.398 . S
C1240 C1241 1.391 . S
C1241 H1229 0.950 . S
C1241 C1237 1.393 . S
C1241 C1240 1.391 . S
C1242 H1232 0.950 . S
C1242 C1243 1.386 . S
C1242 C1244 1.391 . S
C1243 C1242 1.386 . S
C1243 C1247 1.393 . S
C1244 H1233 0.950 . S
C1244 C1242 1.391 . S
C1244 C1245 1.400 . S
C1245 C1239 1.491 . S
C1245 C1244 1.400 . S
C1245 C1246 1.398 . S
C1246 H1234 0.950 . S
C1246 C1245 1.398 . S
C1246 C1247 1.391 . S
C1247 H1235 0.950 . S
C1247 C1243 1.393 . S
C1247 C1246 1.391 . S
H1248 C1256 0.950 . S
H1249 C1261 0.950 . S
H1250 C1258 0.950 . S
H1251 C1260 0.950 . S
H1252 C1262 0.950 . S
H1253 C1264 0.950 . S
H1254 C1266 0.950 . S
H1255 C1267 0.950 . S
C1256 H1248 0.950 . S
C1256 C1257 1.386 . S
C1256 C1258 1.391 . S
C1257 C1256 1.386 . S
C1257 C1261 1.393 . S
C1258 H1250 0.950 . S
C1258 C1256 1.391 . S
C1258 C1259 1.400 . S
C1259 C1258 1.400 . S
C1259 C1260 1.398 . S
C1259 C1265 1.491 . S
C1260 H1251 0.950 . S
C1260 C1259 1.398 . S
C1260 C1261 1.391 . S
C1261 H1249 0.950 . S
C1261 C1257 1.393 . S
C1261 C1260 1.391 . S
C1262 H1252 0.950 . S
C1262 C1263 1.386 . S
C1262 C1264 1.391 . S
C1263 C1262 1.386 . S
C1263 C1267 1.393 . S
C1264 H1253 0.950 . S
C1264 C1262 1.391 . S
C1264 C1265 1.400 . S
C1265 C1259 1.491 . S
C1265 C1264 1.400 . S
C1265 C1266 1.398 . S
C1266 H1254 0.950 . S
C1266 C1265 1.398 . S
C1266 C1267 1.391 . S
C1267 H1255 0.950 . S
C1267 C1263 1.393 . S
C1267 C1266 1.391 . S
H1268 C1276 0.950 . S
H1269 C1281 0.950 . S
H1270 C1278 0.950 . S
H1271 C1280 0.950 . S
H1272 C1282 0.950 . S
H1273 C1284 0.950 . S
H1274 C1286 0.950 . S
H1275 C1287 0.950 . S
C1276 H1268 0.950 . S
C1276 C1277 1.386 . S
C1276 C1278 1.391 . S
C1277 C1276 1.386 . S
C1277 C1281 1.393 . S
C1278 H1270 0.950 . S
C1278 C1276 1.391 . S
C1278 C1279 1.400 . S
C1279 C1278 1.400 . S
C1279 C1280 1.398 . S
C1279 C1285 1.491 . S
C1280 H1271 0.950 . S
C1280 C1279 1.398 . S
C1280 C1281 1.391 . S
C1281 H1269 0.950 . S
C1281 C1277 1.393 . S
C1281 C1280 1.391 . S
C1282 H1272 0.950 . S
C1282 C1283 1.386 . S
C1282 C1284 1.391 . S
C1283 C1282 1.386 . S
C1283 C1287 1.393 . S
C1284 H1273 0.950 . S
C1284 C1282 1.391 . S
C1284 C1285 1.400 . S
C1285 C1279 1.491 . S
C1285 C1284 1.400 . S
C1285 C1286 1.398 . S
C1286 H1274 0.950 . S
C1286 C1285 1.398 . S
C1286 C1287 1.391 . S
C1287 H1275 0.950 . S
C1287 C1283 1.393 . S
C1287 C1286 1.391 . S
H1288 C1296 0.950 . S
H1289 C1301 0.950 . S
H1290 C1298 0.950 . S
H1291 C1300 0.950 . S
H1292 C1302 0.950 . S
H1293 C1304 0.950 . S
H1294 C1306 0.950 . S
H1295 C1307 0.950 . S
C1296 H1288 0.950 . S
C1296 C1297 1.386 . S
C1296 C1298 1.391 . S
C1297 C1296 1.386 . S
C1297 C1301 1.393 . S
C1298 H1290 0.950 . S
C1298 C1296 1.391 . S
C1298 C1299 1.400 . S
C1299 C1298 1.400 . S
C1299 C1300 1.398 . S
C1299 C1305 1.491 . S
C1300 H1291 0.950 . S
C1300 C1299 1.398 . S
C1300 C1301 1.391 . S
C1301 H1289 0.950 . S
C1301 C1297 1.393 . S
C1301 C1300 1.391 . S
C1302 H1292 0.950 . S
C1302 C1303 1.386 . S
C1302 C1304 1.391 . S
C1303 C1302 1.386 . S
C1303 C1307 1.393 . S
C1304 H1293 0.950 . S
C1304 C1302 1.391 . S
C1304 C1305 1.400 . S
C1305 C1299 1.491 . S
C1305 C1304 1.400 . S
C1305 C1306 1.398 . S
C1306 H1294 0.950 . S
C1306 C1305 1.398 . S
C1306 C1307 1.391 . S
C1307 H1295 0.950 . S
C1307 C1303 1.393 . S
C1307 C1306 1.391 . S
H1308 C1316 0.950 . S
H1309 C1321 0.950 . S
H1310 C1318 0.950 . S
H1311 C1320 0.950 . S
H1312 C1322 0.950 . S
H1313 C1324 0.950 . S
H1314 C1326 0.950 . S
H1315 C1327 0.950 . S
C1316 H1308 0.950 . S
C1316 C1317 1.386 . S
C1316 C1318 1.391 . S
C1317 C1316 1.386 . S
C1317 C1321 1.393 . S
C1318 H1310 0.950 . S
C1318 C1316 1.391 . S
C1318 C1319 1.400 . S
C1319 C1318 1.400 . S
C1319 C1320 1.398 . S
C1319 C1325 1.507 . S
C1320 H1311 0.950 . S
C1320 C1319 1.398 . S
C1320 C1321 1.391 . S
C1321 H1309 0.950 . S
C1321 C1317 1.393 . S
C1321 C1320 1.391 . S
C1322 H1312 0.950 . S
C1322 C1323 1.386 . S
C1322 C1324 1.391 . S
C1323 C1322 1.386 . S
C1323 C1327 1.393 . S
C1324 H1313 0.950 . S
C1324 C1322 1.391 . S
C1324 C1325 1.392 1_655 S
C1325 C1319 1.507 . S
C1325 C1324 1.392 1_455 S
C1325 C1326 1.389 1_455 S
C1326 H1314 0.950 . S
C1326 C1325 1.389 1_655 S
C1326 C1327 1.391 . S
C1327 H1315 0.950 . S
C1327 C1323 1.393 . S
C1327 C1326 1.391 . S
H1328 C1336 0.950 . S
H1329 C1341 0.950 . S
H1330 C1338 0.950 . S
H1331 C1340 0.950 . S
H1332 C1342 0.950 . S
H1333 C1344 0.950 . S
H1334 C1346 0.950 . S
H1335 C1347 0.950 . S
C1336 H1328 0.950 . S
C1336 C1337 1.386 . S
C1336 C1338 1.391 . S
C1337 C1336 1.386 . S
C1337 C1341 1.393 . S
C1338 H1330 0.950 . S
C1338 C1336 1.391 . S
C1338 C1339 1.400 . S
C1339 C1338 1.400 . S
C1339 C1340 1.398 . S
C1339 C1345 1.491 . S
C1340 H1331 0.950 . S
C1340 C1339 1.398 . S
C1340 C1341 1.391 . S
C1341 H1329 0.950 . S
C1341 C1337 1.393 . S
C1341 C1340 1.391 . S
C1342 H1332 0.950 . S
C1342 C1343 1.386 . S
C1342 C1344 1.391 . S
C1343 C1342 1.386 . S
C1343 C1347 1.393 . S
C1344 H1333 0.950 . S
C1344 C1342 1.391 . S
C1344 C1345 1.400 . S
C1345 C1339 1.491 . S
C1345 C1344 1.400 . S
C1345 C1346 1.398 . S
C1346 H1334 0.950 . S
C1346 C1345 1.398 . S
C1346 C1347 1.391 . S
C1347 H1335 0.950 . S
C1347 C1343 1.393 . S
C1347 C1346 1.391 . S
H1348 C1356 0.950 . S
H1349 C1361 0.950 . S
H1350 C1358 0.950 . S
H1351 C1360 0.950 . S
H1352 C1362 0.950 . S
H1353 C1364 0.950 . S
H1354 C1366 0.950 . S
H1355 C1367 0.950 . S
C1356 H1348 0.950 . S
C1356 C1357 1.386 . S
C1356 C1358 1.391 . S
C1357 C1356 1.386 . S
C1357 C1361 1.393 . S
C1358 H1350 0.950 . S
C1358 C1356 1.391 . S
C1358 C1359 1.390 1_655 S
C1359 C1358 1.390 1_455 S
C1359 C1360 1.390 1_455 S
C1359 C1365 1.508 . S
C1360 H1351 0.950 . S
C1360 C1359 1.390 1_655 S
C1360 C1361 1.391 . S
C1361 H1349 0.950 . S
C1361 C1357 1.393 . S
C1361 C1360 1.391 . S
C1362 H1352 0.950 . S
C1362 C1363 1.386 . S
C1362 C1364 1.391 . S
C1363 C1362 1.386 . S
C1363 C1367 1.393 . S
C1364 H1353 0.950 . S
C1364 C1362 1.391 . S
C1364 C1365 1.400 . S
C1365 C1359 1.508 . S
C1365 C1364 1.400 . S
C1365 C1366 1.398 . S
C1366 H1354 0.950 . S
C1366 C1365 1.398 . S
C1366 C1367 1.391 . S
C1367 H1355 0.950 . S
C1367 C1363 1.393 . S
C1367 C1366 1.391 . S
H1368 C1376 0.950 . S
H1369 C1381 0.950 . S
H1370 C1378 0.950 . S
H1371 C1380 0.950 . S
H1372 C1382 0.950 . S
H1373 C1384 0.950 . S
H1374 C1386 0.950 . S
H1375 C1387 0.950 . S
C1376 H1368 0.950 . S
C1376 C1377 1.386 . S
C1376 C1378 1.391 . S
C1377 C1376 1.386 . S
C1377 C1381 1.393 . S
C1378 H1370 0.950 . S
C1378 C1376 1.391 . S
C1378 C1379 1.400 . S
C1379 C1378 1.400 . S
C1379 C1380 1.398 . S
C1379 C1385 1.491 . S
C1380 H1371 0.950 . S
C1380 C1379 1.398 . S
C1380 C1381 1.391 . S
C1381 H1369 0.950 . S
C1381 C1377 1.393 . S
C1381 C1380 1.391 . S
C1382 H1372 0.950 . S
C1382 C1383 1.386 . S
C1382 C1384 1.391 . S
C1383 C1382 1.386 . S
C1383 C1387 1.393 . S
C1384 H1373 0.950 . S
C1384 C1382 1.391 . S
C1384 C1385 1.400 . S
C1385 C1379 1.491 . S
C1385 C1384 1.400 . S
C1385 C1386 1.398 . S
C1386 H1374 0.950 . S
C1386 C1385 1.398 . S
C1386 C1387 1.391 . S
C1387 H1375 0.950 . S
C1387 C1383 1.393 . S
C1387 C1386 1.391 . S
H1388 C1396 0.950 . S
H1389 C1401 0.950 . S
H1390 C1398 0.950 . S
H1391 C1400 0.950 . S
H1392 C1402 0.950 . S
H1393 C1404 0.950 . S
H1394 C1406 0.950 . S
H1395 C1407 0.950 . S
C1396 H1388 0.950 . S
C1396 C1397 1.386 . S
C1396 C1398 1.391 . S
C1397 C1396 1.386 . S
C1397 C1401 1.393 . S
C1398 H1390 0.950 . S
C1398 C1396 1.391 . S
C1398 C1399 1.400 . S
C1399 C1398 1.400 . S
C1399 C1400 1.398 . S
C1399 C1405 1.491 . S
C1400 H1391 0.950 . S
C1400 C1399 1.398 . S
C1400 C1401 1.391 . S
C1401 H1389 0.950 . S
C1401 C1397 1.393 . S
C1401 C1400 1.391 . S
C1402 H1392 0.950 . S
C1402 C1403 1.386 . S
C1402 C1404 1.391 . S
C1403 C1402 1.386 . S
C1403 C1407 1.393 . S
C1404 H1393 0.950 . S
C1404 C1402 1.391 . S
C1404 C1405 1.400 . S
C1405 C1399 1.491 . S
C1405 C1404 1.400 . S
C1405 C1406 1.398 . S
C1406 H1394 0.950 . S
C1406 C1405 1.398 . S
C1406 C1407 1.391 . S
C1407 H1395 0.950 . S
C1407 C1403 1.393 . S
C1407 C1406 1.391 . S
H1408 C1416 0.950 . S
H1409 C1421 0.950 . S
H1410 C1418 0.950 . S
H1411 C1420 0.950 . S
H1412 C1422 0.950 . S
H1413 C1424 0.950 . S
H1414 C1426 0.950 . S
H1415 C1427 0.950 . S
C1416 H1408 0.950 . S
C1416 C1417 1.386 . S
C1416 C1418 1.391 . S
C1417 C1416 1.386 . S
C1417 C1421 1.393 . S
C1418 H1410 0.950 . S
C1418 C1416 1.391 . S
C1418 C1419 1.400 . S
C1419 C1418 1.400 . S
C1419 C1420 1.398 . S
C1419 C1425 1.491 . S
C1420 H1411 0.950 . S
C1420 C1419 1.398 . S
C1420 C1421 1.391 . S
C1421 H1409 0.950 . S
C1421 C1417 1.393 . S
C1421 C1420 1.391 . S
C1422 H1412 0.950 . S
C1422 C1423 1.386 . S
C1422 C1424 1.391 . S
C1423 C1422 1.386 . S
C1423 C1427 1.393 . S
C1424 H1413 0.950 . S
C1424 C1422 1.391 . S
C1424 C1425 1.400 . S
C1425 C1419 1.491 . S
C1425 C1424 1.400 . S
C1425 C1426 1.398 . S
C1426 H1414 0.950 . S
C1426 C1425 1.398 . S
C1426 C1427 1.391 . S
C1427 H1415 0.950 . S
C1427 C1423 1.393 . S
C1427 C1426 1.391 . S
H1428 C1436 0.950 . S
H1429 C1441 0.950 . S
H1430 C1438 0.950 . S
H1431 C1440 0.950 . S
H1432 C1442 0.950 . S
H1433 C1444 0.950 . S
H1434 C1446 0.950 . S
H1435 C1447 0.950 . S
C1436 H1428 0.950 . S
C1436 C1437 1.386 . S
C1436 C1438 1.391 . S
C1437 C1436 1.386 . S
C1437 C1441 1.393 . S
C1438 H1430 0.950 . S
C1438 C1436 1.391 . S
C1438 C1439 1.400 . S
C1439 C1438 1.400 . S
C1439 C1440 1.398 . S
C1439 C1445 1.491 . S
C1440 H1431 0.950 . S
C1440 C1439 1.398 . S
C1440 C1441 1.391 . S
C1441 H1429 0.950 . S
C1441 C1437 1.393 . S
C1441 C1440 1.391 . S
C1442 H1432 0.950 . S
C1442 C1443 1.386 . S
C1442 C1444 1.391 . S
C1443 C1442 1.386 . S
C1443 C1447 1.393 . S
C1444 H1433 0.950 . S
C1444 C1442 1.391 . S
C1444 C1445 1.400 . S
C1445 C1439 1.491 . S
C1445 C1444 1.400 . S
C1445 C1446 1.398 . S
C1446 H1434 0.950 . S
C1446 C1445 1.398 . S
C1446 C1447 1.391 . S
C1447 H1435 0.950 . S
C1447 C1443 1.393 . S
C1447 C1446 1.391 . S
H1448 C1456 0.950 . S
H1449 C1461 0.950 . S
H1450 C1458 0.950 . S
H1451 C1460 0.950 . S
H1452 C1462 0.950 . S
H1453 C1464 0.950 . S
H1454 C1466 0.950 . S
H1455 C1467 0.950 . S
C1456 H1448 0.950 . S
C1456 C1457 1.386 . S
C1456 C1458 1.391 . S
C1457 C1456 1.386 . S
C1457 C1461 1.393 . S
C1458 H1450 0.950 . S
C1458 C1456 1.391 . S
C1458 C1459 1.400 . S
C1459 C1458 1.400 . S
C1459 C1460 1.398 . S
C1459 C1465 1.491 . S
C1460 H1451 0.950 . S
C1460 C1459 1.398 . S
C1460 C1461 1.391 . S
C1461 H1449 0.950 . S
C1461 C1457 1.393 . S
C1461 C1460 1.391 . S
C1462 H1452 0.950 . S
C1462 C1463 1.386 . S
C1462 C1464 1.391 . S
C1463 C1462 1.386 . S
C1463 C1467 1.393 . S
C1464 H1453 0.950 . S
C1464 C1462 1.391 . S
C1464 C1465 1.400 . S
C1465 C1459 1.491 . S
C1465 C1464 1.400 . S
C1465 C1466 1.398 . S
C1466 H1454 0.950 . S
C1466 C1465 1.398 . S
C1466 C1467 1.391 . S
C1467 H1455 0.950 . S
C1467 C1463 1.393 . S
C1467 C1466 1.391 . S
H1468 C1476 0.950 . S
H1469 C1481 0.950 . S
H1470 C1478 0.950 . S
H1471 C1480 0.950 . S
H1472 C1482 0.950 . S
H1473 C1484 0.950 . S
H1474 C1486 0.950 . S
H1475 C1487 0.950 . S
C1476 H1468 0.950 . S
C1476 C1477 1.386 . S
C1476 C1478 1.391 . S
C1477 C1476 1.386 . S
C1477 C1481 1.393 . S
C1478 H1470 0.950 . S
C1478 C1476 1.391 . S
C1478 C1479 1.400 . S
C1479 C1478 1.400 . S
C1479 C1480 1.398 . S
C1479 C1485 1.491 . S
C1480 H1471 0.950 . S
C1480 C1479 1.398 . S
C1480 C1481 1.391 . S
C1481 H1469 0.950 . S
C1481 C1477 1.393 . S
C1481 C1480 1.391 . S
C1482 H1472 0.950 . S
C1482 C1483 1.386 . S
C1482 C1484 1.391 . S
C1483 C1482 1.386 . S
C1483 C1487 1.393 . S
C1484 H1473 0.950 . S
C1484 C1482 1.391 . S
C1484 C1485 1.400 . S
C1485 C1479 1.491 . S
C1485 C1484 1.400 . S
C1485 C1486 1.398 . S
C1486 H1474 0.950 . S
C1486 C1485 1.398 . S
C1486 C1487 1.391 . S
C1487 H1475 0.950 . S
C1487 C1483 1.393 . S
C1487 C1486 1.391 . S
H1488 C1496 0.950 . S
H1489 C1501 0.950 . S
H1490 C1498 0.950 . S
H1491 C1500 0.950 . S
H1492 C1502 0.950 . S
H1493 C1504 0.950 . S
H1494 C1506 0.950 . S
H1495 C1507 0.950 . S
C1496 H1488 0.950 . S
C1496 C1497 1.386 . S
C1496 C1498 1.391 . S
C1497 C1496 1.386 . S
C1497 C1501 1.393 . S
C1498 H1490 0.950 . S
C1498 C1496 1.391 . S
C1498 C1499 1.400 . S
C1499 C1498 1.400 . S
C1499 C1500 1.398 . S
C1499 C1505 1.491 . S
C1500 H1491 0.950 . S
C1500 C1499 1.398 . S
C1500 C1501 1.391 . S
C1501 H1489 0.950 . S
C1501 C1497 1.393 . S
C1501 C1500 1.391 . S
C1502 H1492 0.950 . S
C1502 C1503 1.386 . S
C1502 C1504 1.391 . S
C1503 C1502 1.386 . S
C1503 C1507 1.393 . S
C1504 H1493 0.950 . S
C1504 C1502 1.391 . S
C1504 C1505 1.400 . S
C1505 C1499 1.491 . S
C1505 C1504 1.400 . S
C1505 C1506 1.398 . S
C1506 H1494 0.950 . S
C1506 C1505 1.398 . S
C1506 C1507 1.391 . S
C1507 H1495 0.950 . S
C1507 C1503 1.393 . S
C1507 C1506 1.391 . S
H1508 C1516 0.950 . S
H1509 C1521 0.950 . S
H1510 C1518 0.950 . S
H1511 C1520 0.950 . S
H1512 C1522 0.950 . S
H1513 C1524 0.950 . S
H1514 C1526 0.950 . S
H1515 C1527 0.950 . S
C1516 H1508 0.950 . S
C1516 C1517 1.386 . S
C1516 C1518 1.391 . S
C1517 C1516 1.386 . S
C1517 C1521 1.393 . S
C1518 H1510 0.950 . S
C1518 C1516 1.391 . S
C1518 C1519 1.400 . S
C1519 C1518 1.400 . S
C1519 C1520 1.398 . S
C1519 C1525 1.491 . S
C1520 H1511 0.950 . S
C1520 C1519 1.398 . S
C1520 C1521 1.391 . S
C1521 H1509 0.950 . S
C1521 C1517 1.393 . S
C1521 C1520 1.391 . S
C1522 H1512 0.950 . S
C1522 C1523 1.386 . S
C1522 C1524 1.391 . S
C1523 C1522 1.386 . S
C1523 C1527 1.393 . S
C1524 H1513 0.950 . S
C1524 C1522 1.391 . S
C1524 C1525 1.400 . S
C1525 C1519 1.491 . S
C1525 C1524 1.400 . S
C1525 C1526 1.398 . S
C1526 H1514 0.950 . S
C1526 C1525 1.398 . S
C1526 C1527 1.391 . S
C1527 H1515 0.950 . S
C1527 C1523 1.393 . S
C1527 C1526 1.391 . S
H1528 C1536 0.950 . S
H1529 C1541 0.950 . S
H1530 C1538 0.950 . S
H1531 C1540 0.950 . S
H1532 C1542 0.950 . S
H1533 C1544 0.950 . S
H1534 C1546 0.950 . S
H1535 C1547 0.950 . S
C1536 H1528 0.950 . S
C1536 C1537 1.386 . S
C1536 C1538 1.391 . S
C1537 C1536 1.386 . S
C1537 C1541 1.393 . S
C1538 H1530 0.950 . S
C1538 C1536 1.391 . S
C1538 C1539 1.400 . S
C1539 C1538 1.400 . S
C1539 C1540 1.398 . S
C1539 C1545 1.491 . S
C1540 H1531 0.950 . S
C1540 C1539 1.398 . S
C1540 C1541 1.391 . S
C1541 H1529 0.950 . S
C1541 C1537 1.393 . S
C1541 C1540 1.391 . S
C1542 H1532 0.950 . S
C1542 C1543 1.386 . S
C1542 C1544 1.391 . S
C1543 C1542 1.386 . S
C1543 C1547 1.393 . S
C1544 H1533 0.950 . S
C1544 C1542 1.391 . S
C1544 C1545 1.400 . S
C1545 C1539 1.491 . S
C1545 C1544 1.400 . S
C1545 C1546 1.398 . S
C1546 H1534 0.950 . S
C1546 C1545 1.398 . S
C1546 C1547 1.391 . S
C1547 H1535 0.950 . S
C1547 C1543 1.393 . S
C1547 C1546 1.391 . S
H1548 C1556 0.950 . S
H1549 C1561 0.950 . S
H1550 C1558 0.950 . S
H1551 C1560 0.950 . S
H1552 C1562 0.950 . S
H1553 C1564 0.950 . S
H1554 C1566 0.950 . S
H1555 C1567 0.950 . S
C1556 H1548 0.950 . S
C1556 C1557 1.386 . S
C1556 C1558 1.391 . S
C1557 C1556 1.386 . S
C1557 C1561 1.393 . S
C1558 H1550 0.950 . S
C1558 C1556 1.391 . S
C1558 C1559 1.400 . S
C1559 C1558 1.400 . S
C1559 C1560 1.398 . S
C1559 C1565 1.491 . S
C1560 H1551 0.950 . S
C1560 C1559 1.398 . S
C1560 C1561 1.391 . S
C1561 H1549 0.950 . S
C1561 C1557 1.393 . S
C1561 C1560 1.391 . S
C1562 H1552 0.950 . S
C1562 C1563 1.386 . S
C1562 C1564 1.391 . S
C1563 C1562 1.386 . S
C1563 C1567 1.393 . S
C1564 H1553 0.950 . S
C1564 C1562 1.391 . S
C1564 C1565 1.400 . S
C1565 C1559 1.491 . S
C1565 C1564 1.400 . S
C1565 C1566 1.398 . S
C1566 H1554 0.950 . S
C1566 C1565 1.398 . S
C1566 C1567 1.391 . S
C1567 H1555 0.950 . S
C1567 C1563 1.393 . S
C1567 C1566 1.391 . S
H1568 C1576 0.950 . S
H1569 C1581 0.950 . S
H1570 C1578 0.950 . S
H1571 C1580 0.950 . S
H1572 C1582 0.950 . S
H1573 C1584 0.950 . S
H1574 C1586 0.950 . S
H1575 C1587 0.950 . S
C1576 H1568 0.950 . S
C1576 C1577 1.386 . S
C1576 C1578 1.391 . S
C1577 C1576 1.386 . S
C1577 C1581 1.393 . S
C1578 H1570 0.950 . S
C1578 C1576 1.391 . S
C1578 C1579 1.400 . S
C1579 C1578 1.400 . S
C1579 C1580 1.398 . S
C1579 C1585 1.491 . S
C1580 H1571 0.950 . S
C1580 C1579 1.398 . S
C1580 C1581 1.391 . S
C1581 H1569 0.950 . S
C1581 C1577 1.393 . S
C1581 C1580 1.391 . S
C1582 H1572 0.950 . S
C1582 C1583 1.386 . S
C1582 C1584 1.391 . S
C1583 C1582 1.386 . S
C1583 C1587 1.393 . S
C1584 H1573 0.950 . S
C1584 C1582 1.391 . S
C1584 C1585 1.400 . S
C1585 C1579 1.491 . S
C1585 C1584 1.400 . S
C1585 C1586 1.398 . S
C1586 H1574 0.950 . S
C1586 C1585 1.398 . S
C1586 C1587 1.391 . S
C1587 H1575 0.950 . S
C1587 C1583 1.393 . S
C1587 C1586 1.391 . S
H1588 C1596 0.950 . S
H1589 C1601 0.950 . S
H1590 C1598 0.950 . S
H1591 C1600 0.950 . S
H1592 C1602 0.950 . S
H1593 C1604 0.950 . S
H1594 C1606 0.950 . S
H1595 C1607 0.950 . S
C1596 H1588 0.950 . S
C1596 C1597 1.386 . S
C1596 C1598 1.391 . S
C1597 C1596 1.386 . S
C1597 C1601 1.393 . S
C1598 H1590 0.950 . S
C1598 C1596 1.391 . S
C1598 C1599 1.400 . S
C1599 C1598 1.400 . S
C1599 C1600 1.398 . S
C1599 C1605 1.491 . S
C1600 H1591 0.950 . S
C1600 C1599 1.398 . S
C1600 C1601 1.391 . S
C1601 H1589 0.950 . S
C1601 C1597 1.393 . S
C1601 C1600 1.391 . S
C1602 H1592 0.950 . S
C1602 C1603 1.386 . S
C1602 C1604 1.391 . S
C1603 C1602 1.386 . S
C1603 C1607 1.393 . S
C1604 H1593 0.950 . S
C1604 C1602 1.391 . S
C1604 C1605 1.400 . S
C1605 C1599 1.491 . S
C1605 C1604 1.400 . S
C1605 C1606 1.398 . S
C1606 H1594 0.950 . S
C1606 C1605 1.398 . S
C1606 C1607 1.391 . S
C1607 H1595 0.950 . S
C1607 C1603 1.393 . S
C1607 C1606 1.391 . S
H1608 C1616 0.950 . S
H1609 C1621 0.950 . S
H1610 C1618 0.950 . S
H1611 C1620 0.950 . S
H1612 C1622 0.950 . S
H1613 C1624 0.950 . S
H1614 C1626 0.950 . S
H1615 C1627 0.950 . S
C1616 H1608 0.950 . S
C1616 C1617 1.386 . S
C1616 C1618 1.391 . S
C1617 C1616 1.386 . S
C1617 C1621 1.393 . S
C1618 H1610 0.950 . S
C1618 C1616 1.391 . S
C1618 C1619 1.400 . S
C1619 C1618 1.400 . S
C1619 C1620 1.398 . S
C1619 C1625 1.491 . S
C1620 H1611 0.950 . S
C1620 C1619 1.398 . S
C1620 C1621 1.391 . S
C1621 H1609 0.950 . S
C1621 C1617 1.393 . S
C1621 C1620 1.391 . S
C1622 H1612 0.950 . S
C1622 C1623 1.386 . S
C1622 C1624 1.391 . S
C1623 C1622 1.386 . S
C1623 C1627 1.393 . S
C1624 H1613 0.950 . S
C1624 C1622 1.391 . S
C1624 C1625 1.400 . S
C1625 C1619 1.491 . S
C1625 C1624 1.400 . S
C1625 C1626 1.398 . S
C1626 H1614 0.950 . S
C1626 C1625 1.398 . S
C1626 C1627 1.391 . S
C1627 H1615 0.950 . S
C1627 C1623 1.393 . S
C1627 C1626 1.391 . S
H1628 C1636 0.950 . S
H1629 C1641 0.950 . S
H1630 C1638 0.950 . S
H1631 C1640 0.950 . S
H1632 C1642 0.950 . S
H1633 C1644 0.950 . S
H1634 C1646 0.950 . S
H1635 C1647 0.950 . S
C1636 H1628 0.950 . S
C1636 C1637 1.386 . S
C1636 C1638 1.391 . S
C1637 C1636 1.386 . S
C1637 C1641 1.393 . S
C1638 H1630 0.950 . S
C1638 C1636 1.391 . S
C1638 C1639 1.400 . S
C1639 C1638 1.400 . S
C1639 C1640 1.398 . S
C1639 C1645 1.491 . S
C1640 H1631 0.950 . S
C1640 C1639 1.398 . S
C1640 C1641 1.391 . S
C1641 H1629 0.950 . S
C1641 C1637 1.393 . S
C1641 C1640 1.391 . S
C1642 H1632 0.950 . S
C1642 C1643 1.386 . S
C1642 C1644 1.391 . S
C1643 C1642 1.386 . S
C1643 C1647 1.393 . S
C1644 H1633 0.950 . S
C1644 C1642 1.391 . S
C1644 C1645 1.400 . S
C1645 C1639 1.491 . S
C1645 C1644 1.400 . S
C1645 C1646 1.398 . S
C1646 H1634 0.950 . S
C1646 C1645 1.398 . S
C1646 C1647 1.391 . S
C1647 H1635 0.950 . S
C1647 C1643 1.393 . S
C1647 C1646 1.391 . S
H1648 C1656 0.950 . S
H1649 C1661 0.950 . S
H1650 C1658 0.950 . S
H1651 C1660 0.950 . S
H1652 C1662 0.950 . S
H1653 C1664 0.950 . S
H1654 C1666 0.950 . S
H1655 C1667 0.950 . S
C1656 H1648 0.950 . S
C1656 C1657 1.386 . S
C1656 C1658 1.391 . S
C1657 C1656 1.386 . S
C1657 C1661 1.393 . S
C1658 H1650 0.950 . S
C1658 C1656 1.391 . S
C1658 C1659 1.400 . S
C1659 C1658 1.400 . S
C1659 C1660 1.398 . S
C1659 C1665 1.491 . S
C1660 H1651 0.950 . S
C1660 C1659 1.398 . S
C1660 C1661 1.391 . S
C1661 H1649 0.950 . S
C1661 C1657 1.393 . S
C1661 C1660 1.391 . S
C1662 H1652 0.950 . S
C1662 C1663 1.386 . S
C1662 C1664 1.391 . S
C1663 C1662 1.386 . S
C1663 C1667 1.393 . S
C1664 H1653 0.950 . S
C1664 C1662 1.391 . S
C1664 C1665 1.400 . S
C1665 C1659 1.491 . S
C1665 C1664 1.400 . S
C1665 C1666 1.398 . S
C1666 H1654 0.950 . S
C1666 C1665 1.398 . S
C1666 C1667 1.391 . S
C1667 H1655 0.950 . S
C1667 C1663 1.393 . S
C1667 C1666 1.391 . S
H1668 C1676 0.950 . S
H1669 C1681 0.950 . S
H1670 C1678 0.950 . S
H1671 C1680 0.950 . S
H1672 C1682 0.950 . S
H1673 C1684 0.950 . S
H1674 C1686 0.950 . S
H1675 C1687 0.950 . S
C1676 H1668 0.950 . S
C1676 C1677 1.386 . S
C1676 C1678 1.391 . S
C1677 C1676 1.386 . S
C1677 C1681 1.393 . S
C1678 H1670 0.950 . S
C1678 C1676 1.391 . S
C1678 C1679 1.400 . S
C1679 C1678 1.400 . S
C1679 C1680 1.398 . S
C1679 C1685 1.491 . S
C1680 H1671 0.950 . S
C1680 C1679 1.398 . S
C1680 C1681 1.391 . S
C1681 H1669 0.950 . S
C1681 C1677 1.393 . S
C1681 C1680 1.391 . S
C1682 H1672 0.950 . S
C1682 C1683 1.386 . S
C1682 C1684 1.391 . S
C1683 C1682 1.386 . S
C1683 C1687 1.393 . S
C1684 H1673 0.950 . S
C1684 C1682 1.391 . S
C1684 C1685 1.400 . S
C1685 C1679 1.491 . S
C1685 C1684 1.400 . S
C1685 C1686 1.398 . S
C1686 H1674 0.950 . S
C1686 C1685 1.398 . S
C1686 C1687 1.391 . S
C1687 H1675 0.950 . S
C1687 C1683 1.393 . S
C1687 C1686 1.391 . S
H1688 C1696 0.950 . S
H1689 C1701 0.950 . S
H1690 C1698 0.950 . S
H1691 C1700 0.950 . S
H1692 C1702 0.950 . S
H1693 C1704 0.950 . S
H1694 C1706 0.950 . S
H1695 C1707 0.950 . S
C1696 H1688 0.950 . S
C1696 C1697 1.386 . S
C1696 C1698 1.391 . S
C1697 C1696 1.386 . S
C1697 C1701 1.393 . S
C1698 H1690 0.950 . S
C1698 C1696 1.391 . S
C1698 C1699 1.400 . S
C1699 C1698 1.400 . S
C1699 C1700 1.398 . S
C1699 C1705 1.491 . S
C1700 H1691 0.950 . S
C1700 C1699 1.398 . S
C1700 C1701 1.391 . S
C1701 H1689 0.950 . S
C1701 C1697 1.393 . S
C1701 C1700 1.391 . S
C1702 H1692 0.950 . S
C1702 C1703 1.386 . S
C1702 C1704 1.391 . S
C1703 C1702 1.386 . S
C1703 C1707 1.393 . S
C1704 H1693 0.950 . S
C1704 C1702 1.391 . S
C1704 C1705 1.400 . S
C1705 C1699 1.491 . S
C1705 C1704 1.400 . S
C1705 C1706 1.398 . S
C1706 H1694 0.950 . S
C1706 C1705 1.398 . S
C1706 C1707 1.391 . S
C1707 H1695 0.950 . S
C1707 C1703 1.393 . S
C1707 C1706 1.391 . S
H1708 C1716 0.950 . S
H1709 C1721 0.950 . S
H1710 C1718 0.950 . S
H1711 C1720 0.950 . S
H1712 C1722 0.950 . S
H1713 C1724 0.950 . S
H1714 C1726 0.950 . S
H1715 C1727 0.950 . S
C1716 H1708 0.950 . S
C1716 C1717 1.386 . S
C1716 C1718 1.391 . S
C1717 C1716 1.386 . S
C1717 C1721 1.393 . S
C1718 H1710 0.950 . S
C1718 C1716 1.391 . S
C1718 C1719 1.400 . S
C1719 C1718 1.400 . S
C1719 C1720 1.398 . S
C1719 C1725 1.491 . S
C1720 H1711 0.950 . S
C1720 C1719 1.398 . S
C1720 C1721 1.391 . S
C1721 H1709 0.950 . S
C1721 C1717 1.393 . S
C1721 C1720 1.391 . S
C1722 H1712 0.950 . S
C1722 C1723 1.386 . S
C1722 C1724 1.391 . S
C1723 C1722 1.386 . S
C1723 C1727 1.393 . S
C1724 H1713 0.950 . S
C1724 C1722 1.391 . S
C1724 C1725 1.400 . S
C1725 C1719 1.491 . S
C1725 C1724 1.400 . S
C1725 C1726 1.398 . S
C1726 H1714 0.950 . S
C1726 C1725 1.398 . S
C1726 C1727 1.391 . S
C1727 H1715 0.950 . S
C1727 C1723 1.393 . S
C1727 C1726 1.391 . S
C457 C8 1.455 . S
C463 C64 1.456 . S
C477 C22 1.469 . S
C483 C78 1.464 . S
C497 C92 1.458 . S
C503 C36 1.454 . S
C517 C106 1.458 . S
C523 C50 1.465 . S
C537 C120 1.459 . S
C543 C176 1.466 . S
C557 C134 1.463 . S
C563 C190 1.456 . S
C577 C204 1.455 . S
C583 C148 1.455 . S
C597 C162 1.466 . S
C603 C218 1.459 . S
C617 C288 1.467 . S
C623 C232 1.468 . S
C637 C302 1.469 . S
C643 C246 1.465 . S
C657 C260 1.454 . S
C663 C316 1.457 . S
C677 C330 1.467 . S
C683 C274 1.468 . S
C697 C344 1.466 . S
C703 C400 1.459 . S
C717 C414 1.466 . S
C723 C358 1.469 . S
C737 C428 1.469 . S
C743 C372 1.465 . S
C757 C386 1.465 . S
C763 C442 1.457 . S
C777 C9 1.502 . S
C783 C385 1.481 . S
C797 C119 1.480 . S
C803 C23 1.490 . S
C817 C37 1.488 . S
C823 C357 1.482 . S
C837 C51 1.496 . S
C843 C147 1.503 . S
C857 C413 1.479 . S
C863 C65 1.496 . S
C877 C203 1.502 . S
C883 C79 1.494 . S
C897 C93 1.489 . S
C903 C441 1.497 . S
C917 C107 1.487 . S
C923 C175 1.485 . S
C937 C273 1.484 . S
C943 C121 1.487 . S
C957 C135 1.486 . S
C963 C7 1.488 . S
C977 C245 1.502 . S
C983 C149 1.509 . S
C997 C163 1.511 . S
C1003 C35 1.498 . S
C1017 C301 1.487 . S
C1023 C177 1.486 . S
C1037 C191 1.486 . S
C1043 C91 1.489 . S
C1057 C329 1.484 . S
C1063 C205 1.505 . S
C1077 C219 1.487 . S
C1083 C63 1.483 . S
C1097 C161 1.486 . S
C1103 C233 1.507 . S
C1117 C343 1.482 . S
C1123 C247 1.488 . S
C1137 C133 1.500 . S
C1143 C261 1.510 . S
C1157 C275 1.504 . S
C1163 C371 1.505 . S
C1177 C189 1.492 . S
C1183 C289 1.510 . S
C1197 C427 1.479 . S
C1203 C303 1.496 . S
C1217 C217 1.499 . S
C1223 C317 1.510 . S
C1237 C331 1.507 . S
C1243 C399 1.485 . S
C1257 C345 1.505 . S
C1263 C49 1.484 . S
C1277 C359 1.496 . S
C1283 C231 1.503 . S
C1297 C373 1.511 . S
C1303 C21 1.493 . S
C1317 C387 1.511 . S
C1323 C259 1.496 . S
C1337 C401 1.511 . S
C1343 C77 1.498 . S
C1357 C315 1.504 . S
C1363 C415 1.507 . S
C1377 C105 1.481 . S
C1383 C429 1.501 . S
C1397 C443 1.487 . S
C1403 C287 1.491 . S
C1417 C3 1.024 . S
C1423 C101 1.005 . S
C1437 C17 1.015 . S
C1443 C59 1.012 1_556 S
C1457 C31 1.024 1_554 S
C1463 C73 1.005 . S
C1477 C87 1.016 . S
C1483 C45 1.018 . S
C1497 C213 1.025 . S
C1503 C115 1.008 . S
C1517 C171 1.022 1_554 S
C1523 C129 1.006 . S
C1537 C185 1.012 . S
C1543 C143 1.022 1_556 S
C1557 C199 1.008 . S
C1563 C157 1.024 . S
C1577 C227 1.005 1_554 S
C1583 C325 1.026 . S
C1597 C283 1.023 . S
C1603 C241 1.005 . S
C1617 C297 1.013 . S
C1623 C255 1.021 . S
C1637 C311 1.015 1_556 S
C1643 C269 1.019 . S
C1657 C437 1.011 . S
C1663 C339 1.016 1_556 S
C1677 C353 1.013 . S
C1683 C395 1.014 . S
C1697 C367 1.007 . S
C1703 C409 1.025 . S
C1717 C381 1.005 . S
C1723 C423 1.025 1_554 S
