# Generated by pormake.
# Topology ukg, (4)-cn, num edge types: 1
# Building blocks:
#     Node 0, Type 0, BuildingBlock: ICAMEG_clean_sbu_1, # of connection points: 4
#     Node 1, Type 0, BuildingBlock: ICAMEG_clean_sbu_1, # of connection points: 4
#     Node 2, Type 0, BuildingBlock: ICAMEG_clean_sbu_1, # of connection points: 4
#     Node 3, Type 0, BuildingBlock: ICAMEG_clean_sbu_1, # of connection points: 4
#     Node 4, Type 0, BuildingBlock: ICAMEG_clean_sbu_1, # of connection points: 4
#     Node 5, Type 0, BuildingBlock: ICAMEG_clean_sbu_1, # of connection points: 4
#     Node 6, Type 0, BuildingBlock: ICAMEG_clean_sbu_1, # of connection points: 4
#     Node 7, Type 0, BuildingBlock: ICAMEG_clean_sbu_1, # of connection points: 4
#     Edge 8, Type (0, 0), BuildingBlock: KIFKEQ_clean_linker_1, # of connection points: 2
#     Edge 9, Type (0, 0), BuildingBlock: KIFKEQ_clean_linker_1, # of connection points: 2
#     Edge 10, Type (0, 0), BuildingBlock: KIFKEQ_clean_linker_1, # of connection points: 2
#     Edge 11, Type (0, 0), BuildingBlock: KIFKEQ_clean_linker_1, # of connection points: 2
#     Edge 12, Type (0, 0), BuildingBlock: KIFKEQ_clean_linker_1, # of connection points: 2
#     Edge 13, Type (0, 0), BuildingBlock: KIFKEQ_clean_linker_1, # of connection points: 2
#     Edge 14, Type (0, 0), BuildingBlock: KIFKEQ_clean_linker_1, # of connection points: 2
#     Edge 15, Type (0, 0), BuildingBlock: KIFKEQ_clean_linker_1, # of connection points: 2
#     Edge 16, Type (0, 0), BuildingBlock: KIFKEQ_clean_linker_1, # of connection points: 2
#     Edge 17, Type (0, 0), BuildingBlock: KIFKEQ_clean_linker_1, # of connection points: 2
#     Edge 18, Type (0, 0), BuildingBlock: KIFKEQ_clean_linker_1, # of connection points: 2
#     Edge 19, Type (0, 0), BuildingBlock: KIFKEQ_clean_linker_1, # of connection points: 2
#     Edge 20, Type (0, 0), BuildingBlock: KIFKEQ_clean_linker_1, # of connection points: 2
#     Edge 21, Type (0, 0), BuildingBlock: KIFKEQ_clean_linker_1, # of connection points: 2
#     Edge 22, Type (0, 0), BuildingBlock: KIFKEQ_clean_linker_1, # of connection points: 2
#     Edge 23, Type (0, 0), BuildingBlock: KIFKEQ_clean_linker_1, # of connection points: 2
# Relax obj value: 0.018
# Max RMSD: 0.101
# Mean RMSD: 0.101
data_MOF--net-ukg--node1-ICAMEG_clean_sbu_1--edge1-KIFKEQ_clean_linker_1
_symmetry_space_group_name_H-M    P1
_symmetry_Int_Tables_number       1
_symmetry_cell_setting            triclinic
loop_
_symmetry_equiv_pos_as_xyz
'x, y, z'
_cell_length_a     33.354815
_cell_length_b     33.359029
_cell_length_c     40.960358
_cell_angle_alpha  90.00507
_cell_angle_beta   90.008259
_cell_angle_gamma 90.011448
loop_
_atom_site_label
_atom_site_type_symbol
_atom_site_fract_x
_atom_site_fract_y
_atom_site_fract_z
_atom_type_partial_charge
Co0 Co 0.04581 0.6486 0.1946 0.0
Co1 Co 0.98161 0.66933 0.1307 0.0
O2 O 0.03374 0.65298 0.14805 0.0
C3 C 0.10932 0.70155 0.16864 0.0
O4 O 0.08136 0.7199 0.15176 0.0
C5 C 0.99807 0.5917 0.09892 0.0
O6 O 0.0082 0.57838 0.12792 0.0
O7 O 0.95332 0.62981 0.15874 0.0
O8 O 0.99161 0.6253 0.20369 0.0
H9 H 0.8365 0.7088 0.13773 0.0
H10 H 0.10206 0.61374 0.14636 0.0
O11 O 0.10035 0.67197 0.1869 0.0
H12 H 0.05818 0.50018 0.21464 0.0
H13 H 0.13447 0.61881 0.29108 0.0
H14 H 0.00117 0.66566 0.25562 0.0
H15 H 0.03353 0.56857 0.22562 0.0
H16 H 0.11787 0.6234 0.2325 0.0
O17 O 0.98647 0.62785 0.09543 0.0
H18 H 0.90255 0.68918 0.15959 0.0
H19 H 0.94982 0.68224 0.0635 0.0
H20 H 0.01638 0.66122 0.31445 0.0
H21 H 0.12772 0.54588 0.13468 0.0
H22 H 0.08346 0.63766 0.33251 0.0
H23 H 0.10564 0.48851 0.16889 0.0
O24 O 0.02462 0.70337 0.20276 0.0
H25 H 0.08791 0.71459 0.05199 0.0
H26 H 0.9706 0.75643 0.11686 0.0
H27 H 0.0062 0.80635 0.0832 0.0
H28 H 0.06528 0.7855 0.05042 0.0
H29 H 0.05165 0.66574 0.08622 0.0
H30 H 0.88418 0.70148 0.04055 0.0
H31 H 0.827 0.71507 0.0778 0.0
O32 O 0.97542 0.71096 0.16569 0.0
C33 C 0.95947 0.61787 0.18788 0.0
C34 C 0.86122 0.70314 0.12126 0.0
C35 C 0.88798 0.69898 0.06672 0.0
N36 N 0.9301 0.68505 0.11287 0.0
C37 C 0.89873 0.69218 0.13351 0.0
C38 C 0.92505 0.68805 0.07984 0.0
C39 C 0.85591 0.7066 0.08763 0.0
C40 C 0.09266 0.58899 0.16156 0.0
N41 N 0.06648 0.59513 0.18671 0.0
C42 C 0.10714 0.55061 0.15474 0.0
C43 C 0.09469 0.51842 0.17392 0.0
C44 C 0.06803 0.52494 0.19957 0.0
C45 C 0.05411 0.56372 0.20562 0.0
C46 C 0.10511 0.62904 0.28352 0.0
C47 C 0.03033 0.65513 0.2633 0.0
C48 C 0.09556 0.63176 0.25039 0.0
N49 N 0.05848 0.64446 0.24068 0.0
C50 C 0.03881 0.65279 0.29664 0.0
C51 C 0.07647 0.63961 0.30675 0.0
C52 C 0.99483 0.72241 0.19092 0.0
C53 C 0.06213 0.72401 0.06608 0.0
C54 C 0.99636 0.74716 0.10275 0.0
C55 C 0.01634 0.77553 0.08367 0.0
C56 C 0.04946 0.76381 0.06526 0.0
N57 N 0.00895 0.70817 0.1034 0.0
C58 C 0.04137 0.69644 0.08539 0.0
Co59 Co 0.35351 0.54436 0.69411 0.0
Co60 Co 0.33163 0.48013 0.63043 0.0
O61 O 0.34813 0.5323 0.64763 0.0
C62 C 0.29957 0.60753 0.66894 0.0
O63 O 0.28106 0.5795 0.65224 0.0
C64 C 0.40871 0.49685 0.59793 0.0
O65 O 0.42235 0.50705 0.62682 0.0
O66 O 0.37167 0.4519 0.658 0.0
O67 O 0.37748 0.49036 0.70275 0.0
H68 H 0.29253 0.33494 0.63777 0.0
H69 H 0.38676 0.60092 0.64535 0.0
O70 O 0.32953 0.59871 0.68683 0.0
H71 H 0.50229 0.55801 0.71185 0.0
H72 H 0.38487 0.63311 0.7902 0.0
H73 H 0.33835 0.49946 0.75533 0.0
H74 H 0.43437 0.53278 0.72388 0.0
H75 H 0.37899 0.61658 0.73169 0.0
O76 O 0.37255 0.48513 0.59472 0.0
H77 H 0.3124 0.40101 0.65947 0.0
H78 H 0.31769 0.4484 0.56335 0.0
H79 H 0.34412 0.5146 0.8141 0.0
H80 H 0.45413 0.62715 0.63262 0.0
H81 H 0.36751 0.58185 0.83186 0.0
H82 H 0.51248 0.60557 0.66594 0.0
O83 O 0.29909 0.52269 0.70311 0.0
H84 H 0.28483 0.58641 0.55231 0.0
H85 H 0.24431 0.46895 0.61755 0.0
H86 H 0.19375 0.50449 0.58449 0.0
H87 H 0.21393 0.56364 0.55153 0.0
H88 H 0.33435 0.55021 0.58595 0.0
H89 H 0.29819 0.38276 0.54056 0.0
H90 H 0.2853 0.32551 0.5779 0.0
O91 O 0.29062 0.47381 0.66588 0.0
C92 C 0.38448 0.45818 0.68688 0.0
C93 C 0.29788 0.3597 0.62126 0.0
C94 C 0.30111 0.38653 0.5667 0.0
N95 N 0.31572 0.42862 0.61273 0.0
C96 C 0.30898 0.39721 0.63342 0.0
C97 C 0.31219 0.4236 0.57974 0.0
C98 C 0.29388 0.35442 0.58766 0.0
C99 C 0.41195 0.59173 0.66016 0.0
N100 N 0.40662 0.5655 0.6854 0.0
C101 C 0.45005 0.60654 0.65276 0.0
C102 C 0.48279 0.59437 0.67142 0.0
C103 C 0.47709 0.56765 0.69717 0.0
C104 C 0.43857 0.5534 0.70382 0.0
C105 C 0.37472 0.60367 0.78277 0.0
C106 C 0.34881 0.5287 0.76288 0.0
C107 C 0.37126 0.59417 0.74968 0.0
N108 N 0.35865 0.55698 0.74013 0.0
C109 C 0.3519 0.53714 0.79619 0.0
C110 C 0.36499 0.57489 0.80613 0.0
C111 C 0.27979 0.49298 0.69141 0.0
C112 C 0.2757 0.5606 0.56648 0.0
C113 C 0.2533 0.49474 0.60336 0.0
C114 C 0.22456 0.51469 0.58462 0.0
C115 C 0.23591 0.54785 0.5661 0.0
N116 N 0.29227 0.50741 0.60357 0.0
C117 C 0.30364 0.53987 0.58546 0.0
Co118 Co 0.45713 0.85655 0.19405 0.0
Co119 Co 0.52017 0.83207 0.12999 0.0
O120 O 0.46885 0.85038 0.14758 0.0
C121 C 0.39409 0.80214 0.16939 0.0
O122 O 0.42215 0.78379 0.15264 0.0
C123 C 0.50634 0.91065 0.09888 0.0
O124 O 0.49627 0.9239 0.12791 0.0
O125 O 0.55049 0.86987 0.15843 0.0
O126 O 0.51101 0.8808 0.20197 0.0
H127 H 0.66289 0.78461 0.13661 0.0
H128 H 0.40015 0.88848 0.14498 0.0
O129 O 0.40283 0.83212 0.1873 0.0
H130 H 0.44311 0.00561 0.20959 0.0
H131 H 0.3688 0.88948 0.29003 0.0
H132 H 0.50256 0.84312 0.25532 0.0
H133 H 0.46858 0.93806 0.22257 0.0
H134 H 0.385 0.8824 0.23154 0.0
O135 O 0.51715 0.87429 0.09516 0.0
H136 H 0.59786 0.8071 0.15869 0.0
H137 H 0.55153 0.81936 0.06262 0.0
H138 H 0.48774 0.85008 0.31404 0.0
H139 H 0.37371 0.95547 0.1313 0.0
H140 H 0.42043 0.8734 0.33172 0.0
H141 H 0.39531 0.01463 0.16366 0.0
O142 O 0.47922 0.8025 0.20396 0.0
H143 H 0.41129 0.79302 0.05137 0.0
H144 H 0.52739 0.74491 0.11478 0.0
H145 H 0.48933 0.69725 0.08074 0.0
H146 H 0.43084 0.72125 0.0487 0.0
H147 H 0.44998 0.83959 0.08596 0.0
H148 H 0.61615 0.79731 0.03948 0.0
H149 H 0.67233 0.7796 0.07659 0.0
O150 O 0.52421 0.78968 0.16443 0.0
C151 C 0.54399 0.88496 0.18656 0.0
C152 C 0.63859 0.79211 0.12019 0.0
C153 C 0.61238 0.79929 0.06567 0.0
N154 N 0.57086 0.81421 0.11197 0.0
C155 C 0.60167 0.80474 0.13255 0.0
C156 C 0.57589 0.81184 0.07891 0.0
C157 C 0.64388 0.78935 0.08651 0.0
C158 C 0.40935 0.91403 0.15939 0.0
N159 N 0.4357 0.90934 0.18464 0.0
C160 C 0.39442 0.9519 0.15144 0.0
C161 C 0.40661 0.98509 0.16957 0.0
C162 C 0.43344 0.98006 0.19533 0.0
C163 C 0.44782 0.94175 0.20253 0.0
C164 C 0.39826 0.87937 0.28263 0.0
C165 C 0.47329 0.85355 0.26282 0.0
C166 C 0.40758 0.87524 0.24956 0.0
N167 N 0.44479 0.86267 0.24004 0.0
C168 C 0.46504 0.85731 0.29611 0.0
C169 C 0.42725 0.87036 0.30601 0.0
C170 C 0.50654 0.78084 0.19115 0.0
C171 C 0.43679 0.78222 0.06515 0.0
C172 C 0.5019 0.75556 0.101 0.0
C173 C 0.48053 0.72845 0.0817 0.0
C174 C 0.44773 0.74194 0.0637 0.0
N175 N 0.491 0.79502 0.10227 0.0
C176 C 0.45892 0.80849 0.08466 0.0
Co177 Co 0.14772 0.95667 0.69531 0.0
Co178 Co 0.16955 0.01965 0.63092 0.0
O179 O 0.15249 0.9681 0.64875 0.0
C180 C 0.20056 0.8928 0.66999 0.0
O181 O 0.21926 0.92066 0.65328 0.0
C182 C 0.09126 0.00549 0.59936 0.0
O183 O 0.07685 0.99935 0.62876 0.0
O184 O 0.13034 0.04897 0.65862 0.0
O185 O 0.12457 0.01106 0.70372 0.0
H186 H 0.21072 0.16442 0.63607 0.0
H187 H 0.11291 0.90043 0.64701 0.0
O188 O 0.17089 0.90194 0.68811 0.0
H189 H 0.99911 0.94502 0.71473 0.0
H190 H 0.11676 0.86932 0.7923 0.0
H191 H 0.16421 0.00209 0.75606 0.0
H192 H 0.06754 0.96941 0.72594 0.0
H193 H 0.12201 0.88515 0.73362 0.0
O194 O 0.1282 0.01415 0.59558 0.0
H195 H 0.19022 0.09908 0.65879 0.0
H196 H 0.18295 0.04991 0.56334 0.0
H197 H 0.15909 0.98766 0.81498 0.0
H198 H 0.04499 0.87504 0.63509 0.0
H199 H 0.13523 0.92085 0.83343 0.0
H200 H 0.9875 0.89744 0.66903 0.0
O201 O 0.20253 0.9778 0.70366 0.0
H202 H 0.21406 0.91147 0.5536 0.0
H203 H 0.25684 0.02944 0.61728 0.0
H204 H 0.30655 0.99271 0.58424 0.0
H205 H 0.28523 0.93329 0.55206 0.0
H206 H 0.16541 0.94883 0.58722 0.0
H207 H 0.20308 0.11481 0.53954 0.0
H208 H 0.21728 0.17258 0.57603 0.0
O209 O 0.21105 0.02613 0.66599 0.0
C210 C 0.11781 0.04316 0.68766 0.0
C211 C 0.2048 0.13943 0.61993 0.0
C212 C 0.20045 0.11159 0.56575 0.0
N213 N 0.18588 0.07061 0.61244 0.0
C214 C 0.19333 0.10232 0.63266 0.0
C215 C 0.18903 0.07494 0.57936 0.0
C216 C 0.20842 0.144 0.58624 0.0
C217 C 0.08809 0.91001 0.66207 0.0
N218 N 0.09421 0.93619 0.68724 0.0
C219 C 0.04968 0.89566 0.65513 0.0
C220 C 0.01743 0.90829 0.67415 0.0
C221 C 0.02392 0.935 0.69978 0.0
C222 C 0.06273 0.94877 0.70597 0.0
C223 C 0.12712 0.89857 0.78457 0.0
C224 C 0.15356 0.97304 0.76391 0.0
C225 C 0.13023 0.90767 0.75139 0.0
N226 N 0.1431 0.94461 0.74146 0.0
C227 C 0.15083 0.965 0.7973 0.0
C228 C 0.13747 0.9275 0.80763 0.0
C229 C 0.22198 0.0072 0.69161 0.0
C230 C 0.22369 0.93738 0.56743 0.0
C231 C 0.24736 0.00353 0.60344 0.0
C232 C 0.27562 0.98291 0.58471 0.0
C233 C 0.26363 0.9496 0.56663 0.0
N234 N 0.20823 0.99137 0.60408 0.0
C235 C 0.19624 0.95877 0.58639 0.0
Co236 Co 0.95671 0.35727 0.80761 0.0
Co237 Co 0.01784 0.32837 0.87163 0.0
O238 O 0.96786 0.34938 0.85389 0.0
C239 C 0.89375 0.30099 0.82918 0.0
O240 O 0.92255 0.28016 0.84293 0.0
C241 C 0.00991 0.40802 0.90249 0.0
O242 O 0.00371 0.42239 0.87309 0.0
O243 O 0.05054 0.3641 0.84306 0.0
O244 O 0.01107 0.38113 0.80064 0.0
H245 H 0.15739 0.27198 0.86612 0.0
H246 H 0.90028 0.38813 0.85757 0.0
O247 O 0.90201 0.33325 0.81389 0.0
H248 H 0.94394 0.50687 0.7953 0.0
H249 H 0.8691 0.39435 0.71222 0.0
H250 H 0.00245 0.34602 0.7462 0.0
H251 H 0.96865 0.4395 0.78079 0.0
H252 H 0.88496 0.38489 0.77055 0.0
O253 O 0.01648 0.3707 0.90646 0.0
H254 H 0.09404 0.29811 0.84352 0.0
H255 H 0.04796 0.31468 0.93923 0.0
H256 H 0.98799 0.35534 0.68762 0.0
H257 H 0.87454 0.4549 0.87276 0.0
H258 H 0.92089 0.37967 0.67032 0.0
H259 H 0.89649 0.51487 0.84158 0.0
O260 O 0.97848 0.30329 0.79627 0.0
H261 H 0.90593 0.29518 0.9492 0.0
H262 H 0.0203 0.24103 0.88698 0.0
H263 H 0.97936 0.19546 0.92069 0.0
H264 H 0.92173 0.22251 0.95213 0.0
H265 H 0.94747 0.33963 0.91497 0.0
H266 H 0.11094 0.289 0.96289 0.0
H267 H 0.16615 0.2673 0.92622 0.0
O268 O 0.01986 0.28605 0.83727 0.0
C269 C 0.04456 0.38161 0.81574 0.0
C270 C 0.13353 0.28126 0.88235 0.0
C271 C 0.10748 0.29087 0.93666 0.0
N272 N 0.06729 0.30774 0.89002 0.0
C273 C 0.09755 0.296 0.86969 0.0
C274 C 0.07193 0.30549 0.92313 0.0
C275 C 0.13843 0.27868 0.91607 0.0
C276 C 0.9097 0.41405 0.84372 0.0
N277 N 0.93584 0.40993 0.81827 0.0
C278 C 0.89514 0.45179 0.85251 0.0
C279 C 0.90751 0.48543 0.83503 0.0
C280 C 0.93415 0.48097 0.80907 0.0
C281 C 0.94813 0.44277 0.80102 0.0
C282 C 0.89847 0.38381 0.71946 0.0
C283 C 0.97328 0.35687 0.73886 0.0
C284 C 0.90759 0.37832 0.75244 0.0
N285 N 0.94469 0.36522 0.76175 0.0
C286 C 0.96522 0.36197 0.70566 0.0
C287 C 0.92755 0.37558 0.69596 0.0
C288 C 0.00363 0.2795 0.80957 0.0
C289 C 0.93103 0.28305 0.93568 0.0
C290 C 0.99523 0.25301 0.90054 0.0
C291 C 0.9722 0.22707 0.91963 0.0
C292 C 0.93988 0.24227 0.93728 0.0
N293 N 0.98641 0.29298 0.89914 0.0
C294 C 0.95475 0.3081 0.91636 0.0
Co295 Co 0.64616 0.45561 0.30647 0.0
Co296 Co 0.67097 0.51882 0.37013 0.0
O297 O 0.65202 0.46779 0.35279 0.0
C298 C 0.70111 0.39281 0.33036 0.0
O299 O 0.72191 0.42181 0.3439 0.0
C300 C 0.59159 0.50861 0.40101 0.0
O301 O 0.57733 0.50214 0.3716 0.0
O302 O 0.63371 0.54945 0.34139 0.0
O303 O 0.62322 0.50993 0.29774 0.0
H304 H 0.72016 0.66096 0.36335 0.0
H305 H 0.61236 0.40026 0.35598 0.0
O306 O 0.66932 0.40092 0.31438 0.0
H307 H 0.49705 0.44443 0.28976 0.0
H308 H 0.61259 0.36609 0.2114 0.0
H309 H 0.66117 0.4996 0.24474 0.0
H310 H 0.56531 0.4683 0.27715 0.0
H311 H 0.6194 0.3833 0.26973 0.0
O312 O 0.62875 0.51606 0.40497 0.0
H313 H 0.69693 0.59615 0.34133 0.0
H314 H 0.68386 0.55022 0.43745 0.0
H315 H 0.65454 0.48377 0.18616 0.0
H316 H 0.54464 0.37542 0.3693 0.0
H317 H 0.63009 0.41658 0.16917 0.0
H318 H 0.4864 0.39762 0.33611 0.0
O319 O 0.70072 0.47668 0.29667 0.0
H320 H 0.70892 0.40949 0.44866 0.0
H321 H 0.75815 0.5253 0.38549 0.0
H322 H 0.80542 0.48682 0.41956 0.0
H323 H 0.78085 0.42848 0.45149 0.0
H324 H 0.66275 0.4486 0.41405 0.0
H325 H 0.70666 0.61464 0.46053 0.0
H326 H 0.72514 0.6705 0.42336 0.0
O327 O 0.71339 0.5223 0.33575 0.0
C328 C 0.61927 0.54308 0.31298 0.0
C329 C 0.71232 0.6368 0.37979 0.0
C330 C 0.70469 0.61082 0.43434 0.0
N331 N 0.68937 0.56936 0.38808 0.0
C332 C 0.69926 0.60001 0.36747 0.0
C333 C 0.69173 0.57445 0.42114 0.0
C334 C 0.71507 0.64215 0.41347 0.0
C335 C 0.58721 0.40976 0.34125 0.0
N336 N 0.5928 0.4355 0.31571 0.0
C337 C 0.54892 0.39572 0.34898 0.0
C338 C 0.51625 0.40823 0.33038 0.0
C339 C 0.5222 0.43451 0.30438 0.0
C340 C 0.56091 0.44798 0.29739 0.0
C341 C 0.62319 0.39549 0.2185 0.0
C342 C 0.65026 0.4704 0.23753 0.0
C343 C 0.62717 0.40538 0.25147 0.0
N344 N 0.64034 0.44253 0.2606 0.0
C345 C 0.64668 0.46156 0.20433 0.0
C346 C 0.63301 0.42385 0.19481 0.0
C347 C 0.72239 0.50414 0.3093 0.0
C348 C 0.71997 0.43492 0.43493 0.0
C349 C 0.74725 0.49989 0.39924 0.0
C350 C 0.77414 0.47827 0.41854 0.0
C351 C 0.76033 0.44555 0.43647 0.0
N352 N 0.70769 0.48931 0.39789 0.0
C353 C 0.69393 0.45727 0.41539 0.0
Co354 Co 0.54512 0.14428 0.80721 0.0
Co355 Co 0.48384 0.17312 0.87113 0.0
O356 O 0.53389 0.15219 0.85347 0.0
C357 C 0.60803 0.20057 0.82888 0.0
O358 O 0.5792 0.22141 0.84257 0.0
C359 C 0.4921 0.0936 0.90215 0.0
O360 O 0.49822 0.07913 0.87276 0.0
O361 O 0.45126 0.1372 0.84259 0.0
O362 O 0.49078 0.1204 0.80015 0.0
H363 H 0.34411 0.22903 0.86543 0.0
H364 H 0.60143 0.11342 0.85728 0.0
O365 O 0.59981 0.16829 0.81359 0.0
H366 H 0.55794 0.99467 0.7949 0.0
H367 H 0.63291 0.1072 0.71195 0.0
H368 H 0.4995 0.15555 0.74574 0.0
H369 H 0.53328 0.06205 0.78035 0.0
H370 H 0.61695 0.11666 0.77026 0.0
O371 O 0.48534 0.13091 0.90603 0.0
H372 H 0.40757 0.20306 0.84291 0.0
H373 H 0.45362 0.18688 0.93869 0.0
H374 H 0.51408 0.14623 0.68718 0.0
H375 H 0.62712 0.04665 0.87252 0.0
H376 H 0.58121 0.12189 0.66997 0.0
H377 H 0.60525 0.98668 0.84129 0.0
O378 O 0.5234 0.19826 0.79587 0.0
H379 H 0.59559 0.20687 0.94873 0.0
H380 H 0.48107 0.26049 0.88636 0.0
H381 H 0.52182 0.30627 0.92004 0.0
H382 H 0.57953 0.27949 0.95156 0.0
H383 H 0.55424 0.16221 0.91453 0.0
H384 H 0.39053 0.21241 0.96226 0.0
H385 H 0.33528 0.23382 0.92552 0.0
O386 O 0.48173 0.21537 0.83671 0.0
C387 C 0.45729 0.11976 0.81526 0.0
C388 C 0.36799 0.21987 0.88169 0.0
C389 C 0.39402 0.21049 0.93604 0.0
N390 N 0.43431 0.19364 0.88946 0.0
C391 C 0.40402 0.20523 0.86908 0.0
C392 C 0.42963 0.19596 0.92255 0.0
C393 C 0.36304 0.22252 0.91541 0.0
C394 C 0.59204 0.0875 0.84341 0.0
N395 N 0.56597 0.09162 0.8179 0.0
C396 C 0.60657 0.04976 0.85222 0.0
C397 C 0.59425 0.01611 0.83471 0.0
C398 C 0.56769 0.02057 0.8087 0.0
C399 C 0.55373 0.05878 0.80062 0.0
C400 C 0.60353 0.11774 0.71915 0.0
C401 C 0.52869 0.14469 0.73844 0.0
C402 C 0.59435 0.12323 0.75212 0.0
N403 N 0.55723 0.13633 0.76138 0.0
C404 C 0.53681 0.13959 0.70525 0.0
C405 C 0.5745 0.12598 0.69561 0.0
C406 C 0.49813 0.222 0.80909 0.0
C407 C 0.57046 0.21888 0.93517 0.0
C408 C 0.50617 0.24862 0.89995 0.0
C409 C 0.5291 0.27468 0.91903 0.0
C410 C 0.56146 0.25963 0.93672 0.0
N411 N 0.51514 0.20868 0.89861 0.0
C412 C 0.54684 0.19371 0.91587 0.0
Co413 Co 0.85799 0.04503 0.30823 0.0
Co414 Co 0.82933 0.98226 0.37133 0.0
O415 O 0.84979 0.03293 0.35434 0.0
C416 C 0.80105 0.10716 0.33039 0.0
O417 O 0.78028 0.07805 0.34377 0.0
C418 C 0.90849 0.99251 0.40242 0.0
O419 O 0.92192 0.00276 0.37349 0.0
O420 O 0.86542 0.95065 0.34236 0.0
O421 O 0.88252 0.99111 0.30064 0.0
H422 H 0.77417 0.8424 0.36337 0.0
H423 H 0.8878 0.10111 0.3589 0.0
O424 O 0.83338 0.09933 0.31506 0.0
H425 H 0.00761 0.05952 0.29705 0.0
H426 H 0.89489 0.1348 0.21414 0.0
H427 H 0.84761 1.00036 0.24619 0.0
H428 H 0.94062 0.03438 0.28181 0.0
H429 H 0.88517 0.11775 0.27221 0.0
O430 O 0.87179 0.98283 0.40611 0.0
H431 H 0.79969 0.90658 0.34188 0.0
H432 H 0.81596 0.95024 0.43839 0.0
H433 H 0.8572 0.01602 0.18785 0.0
H434 H 0.95417 0.12724 0.37484 0.0
H435 H 0.881 0.08367 0.17151 0.0
H436 H 0.01468 0.10631 0.34388 0.0
O437 O 0.80433 0.02287 0.29638 0.0
H438 H 0.79526 0.09193 0.45072 0.0
H439 H 0.74205 0.97856 0.38673 0.0
H440 H 0.69616 0.01822 0.42116 0.0
H441 H 0.72274 0.07534 0.4535 0.0
H442 H 0.84003 0.05165 0.41577 0.0
H443 H 0.79091 0.8864 0.46094 0.0
H444 H 0.76968 0.83199 0.42331 0.0
O445 O 0.78699 0.98081 0.33692 0.0
C446 C 0.88315 0.95733 0.31528 0.0
C447 C 0.78325 0.86591 0.38001 0.0
C448 C 0.7927 0.89058 0.43477 0.0
N449 N 0.80914 0.93217 0.38885 0.0
C450 C 0.79764 0.90235 0.36799 0.0
C451 C 0.80697 0.92662 0.42187 0.0
C452 C 0.78077 0.86007 0.41365 0.0
C453 C 0.91394 0.09218 0.34512 0.0
N454 N 0.91034 0.06634 0.3194 0.0
C455 C 0.95146 0.10694 0.35434 0.0
C456 C 0.98541 0.09514 0.33699 0.0
C457 C 0.98147 0.06886 0.31073 0.0
C458 C 0.94348 0.05464 0.30226 0.0
C459 C 0.88458 0.10519 0.22095 0.0
C460 C 0.85823 0.02977 0.23928 0.0
C461 C 0.87896 0.0954 0.25379 0.0
N462 N 0.86614 0.058 0.26257 0.0
C463 C 0.86349 0.03851 0.2062 0.0
C464 C 0.8768 0.07648 0.19705 0.0
C465 C 0.78056 0.99743 0.30934 0.0
C466 C 0.78334 0.06704 0.43682 0.0
C467 C 0.75382 0.00341 0.40068 0.0
C468 C 0.7277 0.02572 0.42018 0.0
C469 C 0.74264 0.05775 0.43833 0.0
N470 N 0.79371 0.01266 0.39939 0.0
C471 C 0.80857 0.04403 0.41709 0.0
H472 H 0.00672 0.38704 0.96693 0.0
H473 H 0.01015 0.48998 0.90302 0.0
H474 H 0.00342 0.43121 0.01413 0.0
H475 H 0.00863 0.53428 0.95025 0.0
H476 H 0.96417 0.60304 0.03894 0.0
H477 H 0.96668 0.55861 0.99187 0.0
H478 H 0.04085 0.476 0.04639 0.0
H479 H 0.0368 0.51977 0.09389 0.0
C480 C 0.00717 0.41915 0.96297 0.0
C481 C 0.00868 0.43499 0.9312 0.0
C482 C 0.00554 0.44455 0.9901 0.0
C483 C 0.00583 0.48647 0.98618 0.0
C484 C 0.00763 0.50223 0.95431 0.0
C485 C 0.00879 0.47681 0.92717 0.0
C486 C 0.98099 0.57537 0.04086 0.0
C487 C 1.00017 0.56486 0.07019 0.0
C488 C 0.98268 0.54994 0.01376 0.0
C489 C 0.00404 0.51359 0.01514 0.0
C490 C 0.0235 0.50333 0.0445 0.0
C491 C 0.02139 0.52854 0.07174 0.0
H492 H 0.39706 0.46247 0.53814 0.0
H493 H 0.48036 0.53597 0.59235 0.0
H494 H 0.44125 0.46475 0.4909 0.0
H495 H 0.52383 0.53979 0.54468 0.0
H496 H 0.61268 0.50569 0.4654 0.0
H497 H 0.56864 0.50229 0.51265 0.0
H498 H 0.46538 0.50618 0.44888 0.0
H499 H 0.5096 0.50777 0.40158 0.0
C500 C 0.42468 0.47944 0.53986 0.0
C501 C 0.43528 0.49891 0.56903 0.0
C502 C 0.44996 0.48098 0.51266 0.0
C503 C 0.48626 0.50249 0.51379 0.0
C504 C 0.49657 0.52229 0.54298 0.0
C505 C 0.47151 0.52032 0.57032 0.0
C506 C 0.58056 0.5058 0.46148 0.0
C507 C 0.56465 0.507 0.42972 0.0
C508 C 0.55522 0.50412 0.48863 0.0
C509 C 0.51328 0.50409 0.48476 0.0
C510 C 0.49745 0.50547 0.4529 0.0
C511 C 0.52282 0.50666 0.42572 0.0
H512 H 0.46804 0.98282 0.09409 0.0
H513 H 0.54014 0.89937 0.03885 0.0
H514 H 0.4636 0.02647 0.04657 0.0
H515 H 0.53725 0.94372 0.99174 0.0
H516 H 0.49226 0.01165 0.903 0.0
H517 H 0.49471 0.96766 0.95039 0.0
H518 H 0.50036 0.07116 0.01379 0.0
H519 H 0.49611 0.11501 0.96645 0.0
C520 C 0.48331 0.97402 0.07188 0.0
C521 C 0.50444 0.93765 0.07024 0.0
C522 C 0.48096 0.99916 0.04462 0.0
C523 C 0.5001 0.98879 0.01515 0.0
C524 C 0.52149 0.95246 0.01372 0.0
C525 C 0.5234 0.92709 0.04084 0.0
C526 C 0.49391 0.02498 0.92708 0.0
C527 C 0.49384 0.06682 0.93094 0.0
C528 C 0.49561 0.99974 0.95431 0.0
C529 C 0.49781 0.01571 0.98609 0.0
C530 C 0.49795 0.05766 0.98984 0.0
C531 C 0.49576 0.08287 0.96263 0.0
H532 H 0.89707 0.95736 0.46194 0.0
H533 H 0.98113 0.02975 0.40757 0.0
H534 H 0.94156 0.95891 0.50905 0.0
H535 H 0.02486 0.03293 0.45508 0.0
H536 H 0.113 0.00091 0.53515 0.0
H537 H 0.06936 0.99608 0.48769 0.0
H538 H 0.96556 1.00049 0.55084 0.0
H539 H 0.00936 0.00343 0.59832 0.0
C540 C 0.92497 0.97385 0.46014 0.0
C541 C 0.93564 0.99333 0.431 0.0
C542 C 0.95042 0.97499 0.48726 0.0
C543 C 0.98693 0.99614 0.48608 0.0
C544 C 0.99744 0.01571 0.45684 0.0
C545 C 0.97223 0.01409 0.42958 0.0
C546 C 0.08084 1.00076 0.53888 0.0
C547 C 0.06465 0.00259 0.57051 0.0
C548 C 0.05574 0.99825 0.51161 0.0
C549 C 0.01376 0.99803 0.51524 0.0
C550 C 0.99766 0.99988 0.54699 0.0
C551 C 0.0228 0.00185 0.57428 0.0
H552 H 0.16767 0.68966 0.21406 0.0
H553 H 0.14559 0.74562 0.12063 0.0
H554 H 0.23657 0.71449 0.21315 0.0
H555 H 0.21514 0.7697 0.11951 0.0
H556 H 0.35837 0.75757 0.12144 0.0
H557 H 0.28885 0.7335 0.11991 0.0
H558 H 0.26638 0.78944 0.21309 0.0
H559 H 0.33529 0.81428 0.21441 0.0
C560 C 0.17762 0.70702 0.19323 0.0
C561 C 0.15124 0.71582 0.16745 0.0
C562 C 0.21696 0.72131 0.1928 0.0
C563 C 0.23098 0.74397 0.16629 0.0
C564 C 0.20496 0.75215 0.14016 0.0
C565 C 0.16524 0.73856 0.1409 0.0
C566 C 0.33852 0.76477 0.14153 0.0
C567 C 0.35223 0.78772 0.16807 0.0
C568 C 0.2988 0.7512 0.14055 0.0
C569 C 0.27249 0.7596 0.16642 0.0
C570 C 0.28622 0.78245 0.19294 0.0
C571 C 0.32557 0.79673 0.19361 0.0
H572 H 0.25496 0.64372 0.62121 0.0
H573 H 0.31173 0.66586 0.71432 0.0
H574 H 0.231 0.7133 0.62014 0.0
H575 H 0.28699 0.73479 0.71347 0.0
H576 H 0.18788 0.83408 0.71499 0.0
H577 H 0.21206 0.76494 0.71363 0.0
H578 H 0.26779 0.78686 0.62027 0.0
H579 H 0.24439 0.85659 0.62185 0.0
C580 C 0.2622 0.66338 0.64143 0.0
C581 C 0.28516 0.6494 0.66786 0.0
C582 C 0.24867 0.70311 0.64072 0.0
C583 C 0.25713 0.72917 0.66677 0.0
C584 C 0.27995 0.71515 0.69319 0.0
C585 C 0.29419 0.6758 0.69358 0.0
C586 C 0.20522 0.82418 0.69413 0.0
C587 C 0.21439 0.85075 0.66857 0.0
C588 C 0.21912 0.7847 0.69344 0.0
C589 C 0.24174 0.77076 0.66687 0.0
C590 C 0.25025 0.79697 0.64095 0.0
C591 C 0.23707 0.83681 0.64196 0.0
H592 H 0.67602 0.16079 0.81029 0.0
H593 H 0.63508 0.27287 0.85141 0.0
H594 H 0.74499 0.18524 0.81181 0.0
H595 H 0.70412 0.29721 0.85287 0.0
H596 H 0.82581 0.34076 0.81045 0.0
H597 H 0.75684 0.3163 0.81182 0.0
H598 H 0.7976 0.20434 0.85297 0.0
H599 H 0.86664 0.22869 0.85166 0.0
C600 C 0.68172 0.19059 0.81973 0.0
C601 C 0.65001 0.21493 0.83063 0.0
C602 C 0.72127 0.20449 0.82076 0.0
C603 C 0.72995 0.24317 0.8324 0.0
C604 C 0.69829 0.26742 0.84347 0.0
C605 C 0.65878 0.25338 0.84276 0.0
C606 C 0.82009 0.31096 0.81987 0.0
C607 C 0.85177 0.28662 0.83084 0.0
C608 C 0.78054 0.29706 0.82082 0.0
C609 C 0.77183 0.25838 0.83244 0.0
C610 C 0.80345 0.23413 0.84358 0.0
C611 C 0.84297 0.24818 0.84296 0.0
H612 H 0.66127 0.32482 0.31191 0.0
H613 H 0.77279 0.36566 0.35416 0.0
H614 H 0.68549 0.25583 0.31384 0.0
H615 H 0.79691 0.29657 0.35604 0.0
H616 H 0.84098 0.17543 0.31283 0.0
H617 H 0.81652 0.24431 0.31483 0.0
H618 H 0.70414 0.20283 0.35477 0.0
H619 H 0.72852 0.13381 0.35282 0.0
C620 C 0.69088 0.31909 0.32173 0.0
C621 C 0.71517 0.35079 0.33275 0.0
C622 C 0.70464 0.27953 0.32299 0.0
C623 C 0.74313 0.2708 0.33501 0.0
C624 C 0.76726 0.30243 0.34634 0.0
C625 C 0.75335 0.34197 0.3454 0.0
C626 C 0.81109 0.18096 0.32214 0.0
C627 C 0.78664 0.14908 0.33254 0.0
C628 C 0.79719 0.22046 0.32346 0.0
C629 C 0.75839 0.22896 0.33491 0.0
C630 C 0.73404 0.19715 0.34554 0.0
C631 C 0.74809 0.15765 0.34455 0.0
H632 H 0.7795 0.55744 0.32988 0.0
H633 H 0.7492 0.47937 0.24923 0.0
H634 H 0.83809 0.58089 0.30021 0.0
H635 H 0.8083 0.50273 0.21972 0.0
H636 H 0.88575 0.59647 0.16378 0.0
H637 H 0.83038 0.56553 0.19328 0.0
H638 H 0.90372 0.55849 0.27998 0.0
H639 H 0.95904 0.58979 0.25076 0.0
C640 C 0.78548 0.54493 0.30597 0.0
C641 C 0.75947 0.5165 0.29198 0.0
C642 C 0.81927 0.55826 0.28903 0.0
C643 C 0.82786 0.54368 0.25761 0.0
C644 C 0.80227 0.51482 0.24377 0.0
C645 C 0.76852 0.50128 0.26079 0.0
C646 C 0.89029 0.588 0.18904 0.0
C647 C 0.92689 0.5959 0.20489 0.0
C648 C 0.85855 0.57007 0.2059 0.0
C649 C 0.86259 0.55975 0.23901 0.0
C650 C 0.8995 0.56661 0.2546 0.0
C651 C 0.93128 0.58438 0.23775 0.0
H652 H 0.40286 0.38338 0.66339 0.0
H653 H 0.41683 0.45912 0.74837 0.0
H654 H 0.43428 0.32818 0.69273 0.0
H655 H 0.44876 0.40405 0.77737 0.0
H656 H 0.44891 0.28219 0.8303 0.0
H657 H 0.42592 0.34043 0.8001 0.0
H658 H 0.49726 0.30423 0.71719 0.0
H659 H 0.52004 0.2453 0.74727 0.0
C660 C 0.41309 0.3885 0.68815 0.0
C661 C 0.40699 0.42572 0.70354 0.0
C662 C 0.43131 0.35685 0.70491 0.0
C663 C 0.4438 0.36165 0.73746 0.0
C664 C 0.43892 0.39921 0.75248 0.0
C665 C 0.42077 0.43087 0.73574 0.0
C666 C 0.46004 0.28665 0.80573 0.0
C667 C 0.48633 0.25887 0.79125 0.0
C668 C 0.44699 0.32028 0.78846 0.0
C669 C 0.45978 0.32702 0.75624 0.0
C670 C 0.48657 0.29967 0.74188 0.0
C671 C 0.49979 0.26601 0.75921 0.0
H672 H 0.54293 0.9202 0.24694 0.0
H673 H 0.62004 0.89946 0.16371 0.0
H674 H 0.59843 0.95149 0.27582 0.0
H675 H 0.67567 0.93048 0.19298 0.0
H676 H 0.7591 0.01756 0.24668 0.0
H677 H 0.70051 0.99465 0.21614 0.0
H678 H 0.6611 0.92687 0.30004 0.0
H679 H 0.71908 0.94985 0.33064 0.0
C680 C 0.57159 0.92251 0.23465 0.0
C681 C 0.57697 0.90701 0.20299 0.0
C682 C 0.60348 0.94031 0.25134 0.0
C683 C 0.64152 0.9432 0.2368 0.0
C684 C 0.64663 0.929 0.20475 0.0
C685 C 0.61475 0.91104 0.18804 0.0
C686 C 0.73776 0.99807 0.25874 0.0
C687 C 0.7439 0.98561 0.29118 0.0
C688 C 0.70432 0.98476 0.24114 0.0
C689 C 0.67616 0.95897 0.25567 0.0
C690 C 0.68193 0.94716 0.28826 0.0
C691 C 0.71538 0.96021 0.30577 0.0
H692 H 0.05257 0.2192 0.83096 0.0
H693 H 0.9825 0.25654 0.74746 0.0
H694 H 0.076 0.16117 0.80074 0.0
H695 H 0.00572 0.19778 0.71734 0.0
H696 H 0.10034 0.1182 0.66411 0.0
H697 H 0.06893 0.1736 0.69329 0.0
H698 H 0.05324 0.09776 0.77779 0.0
H699 H 0.08516 0.04257 0.749 0.0
C700 C 0.04176 0.21488 0.80628 0.0
C701 C 0.01562 0.24271 0.79169 0.0
C702 C 0.05507 0.18138 0.78899 0.0
C703 C 0.0427 0.1748 0.75664 0.0
C704 C 0.01609 0.20222 0.74214 0.0
C705 C 0.0026 0.23576 0.7595 0.0
C706 C 0.08988 0.11316 0.68881 0.0
C707 C 0.0956 0.07591 0.70423 0.0
C708 C 0.07166 0.14491 0.70547 0.0
C709 C 0.05881 0.14017 0.73793 0.0
C710 C 0.06338 0.10258 0.75297 0.0
C711 C 0.08153 0.07085 0.73635 0.0
H712 H 0.04253 0.44247 0.77088 0.0
H713 H 0.12426 0.36589 0.82394 0.0
H714 H 0.09926 0.4718 0.7413 0.0
H715 H 0.18054 0.39448 0.79356 0.0
H716 H 0.24868 0.41738 0.69232 0.0
H717 H 0.19176 0.39288 0.72421 0.0
H718 H 0.17211 0.51183 0.76217 0.0
H719 H 0.22998 0.53644 0.73103 0.0
C720 C 0.07252 0.43208 0.77638 0.0
C721 C 0.07888 0.40184 0.79978 0.0
C722 C 0.10488 0.44892 0.75951 0.0
C723 C 0.144 0.43516 0.76518 0.0
C724 C 0.15052 0.40541 0.7888 0.0
C725 C 0.11833 0.38925 0.80623 0.0
C726 C 0.23218 0.4384 0.70732 0.0
C727 C 0.24385 0.47885 0.70919 0.0
C728 C 0.1998 0.4243 0.72565 0.0
C729 C 0.17787 0.45053 0.74559 0.0
C730 C 0.18871 0.49114 0.74691 0.0
C731 C 0.22176 0.50511 0.72917 0.0
H732 H 0.60229 0.61828 0.33653 0.0
H733 H 0.58871 0.5436 0.25089 0.0
H734 H 0.57224 0.67428 0.3071 0.0
H735 H 0.55852 0.59955 0.22175 0.0
H736 H 0.55856 0.72276 0.17008 0.0
H737 H 0.58248 0.66447 0.20003 0.0
H738 H 0.5082 0.69718 0.28214 0.0
H739 H 0.48428 0.75581 0.25234 0.0
C740 C 0.59257 0.61361 0.31159 0.0
C741 C 0.59816 0.57636 0.29611 0.0
C742 C 0.57518 0.64571 0.29476 0.0
C743 C 0.5632 0.6414 0.26204 0.0
C744 C 0.56793 0.60396 0.24681 0.0
C745 C 0.58507 0.57181 0.26364 0.0
C746 C 0.54702 0.71749 0.19442 0.0
C747 C 0.51942 0.74411 0.20873 0.0
C748 C 0.56064 0.6839 0.21154 0.0
C749 C 0.54723 0.67621 0.24346 0.0
C750 C 0.51936 0.70252 0.25769 0.0
C751 C 0.50548 0.73599 0.24049 0.0
H752 H 0.45959 0.05905 0.77024 0.0
H753 H 0.37749 0.13491 0.82361 0.0
H754 H 0.40295 0.02934 0.74076 0.0
H755 H 0.3213 0.10595 0.79331 0.0
H756 H 0.25383 0.08251 0.69137 0.0
H757 H 0.31084 0.10727 0.72303 0.0
H758 H 0.32945 0.98906 0.76277 0.0
H759 H 0.27147 0.96418 0.73186 0.0
C760 C 0.42954 0.06921 0.77583 0.0
C761 C 0.42305 0.09935 0.79929 0.0
C762 C 0.39724 0.05215 0.759 0.0
C763 C 0.35804 0.06559 0.7648 0.0
C764 C 0.35139 0.09525 0.78847 0.0
C765 C 0.38353 0.11164 0.80585 0.0
C766 C 0.27013 0.06169 0.70669 0.0
C767 C 0.25811 0.02139 0.70914 0.0
C768 C 0.30257 0.07594 0.72489 0.0
C769 C 0.32421 0.05001 0.74528 0.0
C770 C 0.31306 0.00951 0.74715 0.0
C771 C 0.27996 0.9954 0.72954 0.0
H772 H 0.91939 0.75392 0.19124 0.0
H773 H 0.03841 0.77266 0.23012 0.0
H774 H 0.89497 0.81119 0.22274 0.0
H775 H 0.01384 0.83086 0.26088 0.0
H776 H 0.94308 0.96037 0.26953 0.0
H777 H 0.97267 0.90406 0.23953 0.0
H778 H 0.89757 0.82164 0.29275 0.0
H779 H 0.86877 0.87742 0.32351 0.0
C780 C 0.94044 0.77053 0.20616 0.0
C781 C 0.98083 0.75872 0.20825 0.0
C782 C 0.92638 0.80312 0.22425 0.0
C783 C 0.9526 0.82511 0.24416 0.0
C784 C 0.99318 0.81422 0.24562 0.0
C785 C 0.00711 0.78098 0.22811 0.0
C786 C 0.93325 0.93022 0.27514 0.0
C787 C 0.90358 0.92339 0.29894 0.0
C788 C 0.95022 0.89811 0.25802 0.0
C789 C 0.93714 0.8588 0.26386 0.0
C790 C 0.90796 0.85182 0.28785 0.0
C791 C 0.89168 0.88375 0.3055 0.0
loop_
_geom_bond_atom_site_label_1
_geom_bond_atom_site_label_2
_geom_bond_distance
_geom_bond_site_symmetry_2
_ccdc_geom_bond_type
Co0 O2 2.143 . S
Co0 O8 2.074 1_455 S
Co0 O11 2.093 . S
Co0 O24 2.097 . S
Co0 N41 2.151 . S
Co0 N49 2.214 . S
Co1 O2 2.160 1_655 S
Co1 O7 2.058 . S
Co1 O17 2.057 . S
Co1 O32 2.037 . S
Co1 N36 2.145 . S
Co1 N57 2.257 . S
O2 Co0 2.143 . S
O2 Co1 2.160 1_455 S
C3 O4 1.278 . S
C3 O11 1.224 . S
O4 C3 1.278 . S
C5 O6 1.245 . S
C5 O17 1.232 1_455 S
O6 C5 1.245 . S
O7 Co1 2.058 . S
O7 C33 1.269 . S
O8 Co0 2.074 1_655 S
O8 C33 1.257 . S
H9 C34 0.930 . S
H10 C40 0.930 . S
O11 Co0 2.093 . S
O11 C3 1.224 . S
H12 C44 0.929 . S
H13 C46 0.930 . S
H14 C47 0.930 1_655 S
H15 C45 0.929 . S
H16 C48 0.928 . S
O17 Co1 2.057 . S
O17 C5 1.232 1_655 S
H18 C37 0.929 . S
H19 C38 0.929 . S
H20 C50 0.931 1_655 S
H21 C42 0.929 . S
H22 C51 0.930 . S
H23 C43 0.931 . S
O24 Co0 2.097 . S
O24 C52 1.214 1_455 S
H25 C53 0.929 . S
H26 C54 0.929 . S
H27 C55 0.930 . S
H28 C56 0.929 . S
H29 C58 0.930 . S
H30 C35 0.930 . S
H31 C39 0.930 . S
O32 Co1 2.037 . S
O32 C52 1.234 . S
C33 O7 1.269 . S
C33 O8 1.257 . S
C34 H9 0.930 . S
C34 C37 1.388 . S
C34 C39 1.418 . S
C35 H30 0.930 . S
C35 C38 1.404 . S
C35 C39 1.353 . S
N36 Co1 2.145 . S
N36 C37 1.397 . S
N36 C38 1.334 . S
C37 H18 0.929 . S
C37 C34 1.388 . S
C37 N36 1.397 . S
C38 H19 0.929 . S
C38 C35 1.404 . S
C38 N36 1.334 . S
C39 H31 0.930 . S
C39 C34 1.418 . S
C39 C35 1.353 . S
C40 H10 0.930 . S
C40 N41 1.330 . S
C40 C42 1.446 . S
N41 Co0 2.151 . S
N41 C40 1.330 . S
N41 C45 1.418 . S
C42 H21 0.929 . S
C42 C40 1.446 . S
C42 C43 1.332 . S
C43 H23 0.931 . S
C43 C42 1.332 . S
C43 C44 1.267 . S
C44 H12 0.929 . S
C44 C43 1.267 . S
C44 C45 1.251 . S
C45 H15 0.929 . S
C45 N41 1.418 . S
C45 C44 1.251 . S
C46 H13 0.930 . S
C46 C48 1.406 . S
C46 C51 1.261 . S
C47 H14 0.930 1_455 S
C47 N49 1.325 . S
C47 C50 1.357 . S
C48 H16 0.928 . S
C48 C46 1.406 . S
C48 N49 1.261 . S
N49 Co0 2.214 . S
N49 C47 1.325 . S
N49 C48 1.261 . S
C50 H20 0.931 1_455 S
C50 C47 1.357 . S
C50 C51 1.312 . S
C51 H22 0.930 . S
C51 C46 1.261 . S
C51 C50 1.312 . S
C52 O24 1.214 1_655 S
C52 O32 1.234 . S
C53 H25 0.929 . S
C53 C56 1.391 . S
C53 C58 1.391 . S
C54 H26 0.929 . S
C54 C55 1.390 . S
C54 N57 1.391 . S
C55 H27 0.930 . S
C55 C54 1.390 . S
C55 C56 1.392 1_655 S
C56 H28 0.929 . S
C56 C53 1.391 . S
C56 C55 1.392 1_455 S
N57 Co1 2.257 . S
N57 C54 1.391 . S
N57 C58 1.388 1_655 S
C58 H29 0.930 . S
C58 C53 1.391 . S
C58 N57 1.388 1_455 S
Co59 O61 2.143 . S
Co59 O67 2.074 . S
Co59 O70 2.093 . S
Co59 O83 2.097 . S
Co59 N100 2.151 . S
Co59 N108 2.214 . S
Co60 O61 2.160 . S
Co60 O66 2.058 . S
Co60 O76 2.057 . S
Co60 O91 2.037 . S
Co60 N95 2.145 . S
Co60 N116 2.257 . S
O61 Co59 2.143 . S
O61 Co60 2.160 . S
C62 O63 1.278 . S
C62 O70 1.224 . S
O63 C62 1.278 . S
C64 O65 1.245 . S
C64 O76 1.232 . S
O65 C64 1.245 . S
O66 Co60 2.058 . S
O66 C92 1.269 . S
O67 Co59 2.074 . S
O67 C92 1.257 . S
H68 C93 0.930 . S
H69 C99 0.930 . S
O70 Co59 2.093 . S
O70 C62 1.224 . S
H71 C103 0.929 . S
H72 C105 0.930 . S
H73 C106 0.930 . S
H74 C104 0.929 . S
H75 C107 0.928 . S
O76 Co60 2.057 . S
O76 C64 1.232 . S
H77 C96 0.929 . S
H78 C97 0.929 . S
H79 C109 0.931 . S
H80 C101 0.929 . S
H81 C110 0.930 . S
H82 C102 0.931 . S
O83 Co59 2.097 . S
O83 C111 1.214 . S
H84 C112 0.929 . S
H85 C113 0.929 . S
H86 C114 0.930 . S
H87 C115 0.929 . S
H88 C117 0.930 . S
H89 C94 0.930 . S
H90 C98 0.930 . S
O91 Co60 2.037 . S
O91 C111 1.234 . S
C92 O66 1.269 . S
C92 O67 1.257 . S
C93 H68 0.930 . S
C93 C96 1.388 . S
C93 C98 1.418 . S
C94 H89 0.930 . S
C94 C97 1.404 . S
C94 C98 1.353 . S
N95 Co60 2.145 . S
N95 C96 1.397 . S
N95 C97 1.334 . S
C96 H77 0.929 . S
C96 C93 1.388 . S
C96 N95 1.397 . S
C97 H78 0.929 . S
C97 C94 1.404 . S
C97 N95 1.334 . S
C98 H90 0.930 . S
C98 C93 1.418 . S
C98 C94 1.353 . S
C99 H69 0.930 . S
C99 N100 1.330 . S
C99 C101 1.446 . S
N100 Co59 2.151 . S
N100 C99 1.330 . S
N100 C104 1.418 . S
C101 H80 0.929 . S
C101 C99 1.446 . S
C101 C102 1.332 . S
C102 H82 0.931 . S
C102 C101 1.332 . S
C102 C103 1.267 . S
C103 H71 0.929 . S
C103 C102 1.267 . S
C103 C104 1.251 . S
C104 H74 0.929 . S
C104 N100 1.418 . S
C104 C103 1.251 . S
C105 H72 0.930 . S
C105 C107 1.406 . S
C105 C110 1.261 . S
C106 H73 0.930 . S
C106 N108 1.325 . S
C106 C109 1.357 . S
C107 H75 0.928 . S
C107 C105 1.406 . S
C107 N108 1.261 . S
N108 Co59 2.214 . S
N108 C106 1.325 . S
N108 C107 1.261 . S
C109 H79 0.931 . S
C109 C106 1.357 . S
C109 C110 1.312 . S
C110 H81 0.930 . S
C110 C105 1.261 . S
C110 C109 1.312 . S
C111 O83 1.214 . S
C111 O91 1.234 . S
C112 H84 0.929 . S
C112 C115 1.391 . S
C112 C117 1.391 . S
C113 H85 0.929 . S
C113 C114 1.390 . S
C113 N116 1.391 . S
C114 H86 0.930 . S
C114 C113 1.390 . S
C114 C115 1.392 . S
C115 H87 0.929 . S
C115 C112 1.391 . S
C115 C114 1.392 . S
N116 Co60 2.257 . S
N116 C113 1.391 . S
N116 C117 1.388 . S
C117 H88 0.930 . S
C117 C112 1.391 . S
C117 N116 1.388 . S
Co118 O120 2.143 . S
Co118 O126 2.074 . S
Co118 O129 2.093 . S
Co118 O142 2.097 . S
Co118 N159 2.151 . S
Co118 N167 2.214 . S
Co119 O120 2.160 . S
Co119 O125 2.058 . S
Co119 O135 2.057 . S
Co119 O150 2.037 . S
Co119 N154 2.145 . S
Co119 N175 2.257 . S
O120 Co118 2.143 . S
O120 Co119 2.160 . S
C121 O122 1.278 . S
C121 O129 1.224 . S
O122 C121 1.278 . S
C123 O124 1.245 . S
C123 O135 1.232 . S
O124 C123 1.245 . S
O125 Co119 2.058 . S
O125 C151 1.269 . S
O126 Co118 2.074 . S
O126 C151 1.257 . S
H127 C152 0.930 . S
H128 C158 0.930 . S
O129 Co118 2.093 . S
O129 C121 1.224 . S
H130 C162 0.929 . S
H131 C164 0.930 . S
H132 C165 0.930 . S
H133 C163 0.929 . S
H134 C166 0.928 . S
O135 Co119 2.057 . S
O135 C123 1.232 . S
H136 C155 0.929 . S
H137 C156 0.929 . S
H138 C168 0.931 . S
H139 C160 0.929 . S
H140 C169 0.930 . S
H141 C161 0.931 . S
O142 Co118 2.097 . S
O142 C170 1.214 . S
H143 C171 0.929 . S
H144 C172 0.929 . S
H145 C173 0.930 . S
H146 C174 0.929 . S
H147 C176 0.930 . S
H148 C153 0.930 . S
H149 C157 0.930 . S
O150 Co119 2.037 . S
O150 C170 1.234 . S
C151 O125 1.269 . S
C151 O126 1.257 . S
C152 H127 0.930 . S
C152 C155 1.388 . S
C152 C157 1.418 . S
C153 H148 0.930 . S
C153 C156 1.404 . S
C153 C157 1.353 . S
N154 Co119 2.145 . S
N154 C155 1.397 . S
N154 C156 1.334 . S
C155 H136 0.929 . S
C155 C152 1.388 . S
C155 N154 1.397 . S
C156 H137 0.929 . S
C156 C153 1.404 . S
C156 N154 1.334 . S
C157 H149 0.930 . S
C157 C152 1.418 . S
C157 C153 1.353 . S
C158 H128 0.930 . S
C158 N159 1.330 . S
C158 C160 1.446 . S
N159 Co118 2.151 . S
N159 C158 1.330 . S
N159 C163 1.418 . S
C160 H139 0.929 . S
C160 C158 1.446 . S
C160 C161 1.332 . S
C161 H141 0.931 . S
C161 C160 1.332 . S
C161 C162 1.267 . S
C162 H130 0.929 . S
C162 C161 1.267 . S
C162 C163 1.251 . S
C163 H133 0.929 . S
C163 N159 1.418 . S
C163 C162 1.251 . S
C164 H131 0.930 . S
C164 C166 1.406 . S
C164 C169 1.261 . S
C165 H132 0.930 . S
C165 N167 1.325 . S
C165 C168 1.357 . S
C166 H134 0.928 . S
C166 C164 1.406 . S
C166 N167 1.261 . S
N167 Co118 2.214 . S
N167 C165 1.325 . S
N167 C166 1.261 . S
C168 H138 0.931 . S
C168 C165 1.357 . S
C168 C169 1.312 . S
C169 H140 0.930 . S
C169 C164 1.261 . S
C169 C168 1.312 . S
C170 O142 1.214 . S
C170 O150 1.234 . S
C171 H143 0.929 . S
C171 C174 1.391 . S
C171 C176 1.391 . S
C172 H144 0.929 . S
C172 C173 1.390 . S
C172 N175 1.391 . S
C173 H145 0.930 . S
C173 C172 1.390 . S
C173 C174 1.392 . S
C174 H146 0.929 . S
C174 C171 1.391 . S
C174 C173 1.392 . S
N175 Co119 2.257 . S
N175 C172 1.391 . S
N175 C176 1.388 . S
C176 H147 0.930 . S
C176 C171 1.391 . S
C176 N175 1.388 . S
Co177 O179 2.143 . S
Co177 O185 2.074 1_565 S
Co177 O188 2.093 . S
Co177 O201 2.097 . S
Co177 N218 2.151 . S
Co177 N226 2.214 . S
Co178 O179 2.160 1_545 S
Co178 O184 2.058 . S
Co178 O194 2.057 . S
Co178 O209 2.037 . S
Co178 N213 2.145 . S
Co178 N234 2.257 . S
O179 Co177 2.143 . S
O179 Co178 2.160 1_565 S
C180 O181 1.278 . S
C180 O188 1.224 . S
O181 C180 1.278 . S
C182 O183 1.245 . S
C182 O194 1.232 1_565 S
O183 C182 1.245 . S
O184 Co178 2.058 . S
O184 C210 1.269 . S
O185 Co177 2.074 1_545 S
O185 C210 1.257 . S
H186 C211 0.930 . S
H187 C217 0.930 . S
O188 Co177 2.093 . S
O188 C180 1.224 . S
H189 C221 0.929 . S
H190 C223 0.930 . S
H191 C224 0.930 1_545 S
H192 C222 0.929 . S
H193 C225 0.928 . S
O194 Co178 2.057 . S
O194 C182 1.232 1_545 S
H195 C214 0.929 . S
H196 C215 0.929 . S
H197 C227 0.931 1_545 S
H198 C219 0.929 . S
H199 C228 0.930 . S
H200 C220 0.931 . S
O201 Co177 2.097 . S
O201 C229 1.214 1_565 S
H202 C230 0.929 . S
H203 C231 0.929 . S
H204 C232 0.930 . S
H205 C233 0.929 . S
H206 C235 0.930 . S
H207 C212 0.930 . S
H208 C216 0.930 . S
O209 Co178 2.037 . S
O209 C229 1.234 . S
C210 O184 1.269 . S
C210 O185 1.257 . S
C211 H186 0.930 . S
C211 C214 1.388 . S
C211 C216 1.418 . S
C212 H207 0.930 . S
C212 C215 1.404 . S
C212 C216 1.353 . S
N213 Co178 2.145 . S
N213 C214 1.397 . S
N213 C215 1.334 . S
C214 H195 0.929 . S
C214 C211 1.388 . S
C214 N213 1.397 . S
C215 H196 0.929 . S
C215 C212 1.404 . S
C215 N213 1.334 . S
C216 H208 0.930 . S
C216 C211 1.418 . S
C216 C212 1.353 . S
C217 H187 0.930 . S
C217 N218 1.330 . S
C217 C219 1.446 . S
N218 Co177 2.151 . S
N218 C217 1.330 . S
N218 C222 1.418 . S
C219 H198 0.929 . S
C219 C217 1.446 . S
C219 C220 1.332 . S
C220 H200 0.931 . S
C220 C219 1.332 . S
C220 C221 1.267 . S
C221 H189 0.929 . S
C221 C220 1.267 . S
C221 C222 1.251 . S
C222 H192 0.929 . S
C222 N218 1.418 . S
C222 C221 1.251 . S
C223 H190 0.930 . S
C223 C225 1.406 . S
C223 C228 1.261 . S
C224 H191 0.930 1_565 S
C224 N226 1.325 . S
C224 C227 1.357 . S
C225 H193 0.928 . S
C225 C223 1.406 . S
C225 N226 1.261 . S
N226 Co177 2.214 . S
N226 C224 1.325 . S
N226 C225 1.261 . S
C227 H197 0.931 1_565 S
C227 C224 1.357 . S
C227 C228 1.312 . S
C228 H199 0.930 . S
C228 C223 1.261 . S
C228 C227 1.312 . S
C229 O201 1.214 1_545 S
C229 O209 1.234 . S
C230 H202 0.929 . S
C230 C233 1.391 . S
C230 C235 1.391 . S
C231 H203 0.929 . S
C231 C232 1.390 . S
C231 N234 1.391 . S
C232 H204 0.930 . S
C232 C231 1.390 . S
C232 C233 1.392 1_545 S
C233 H205 0.929 . S
C233 C230 1.391 . S
C233 C232 1.392 1_565 S
N234 Co178 2.257 . S
N234 C231 1.391 . S
N234 C235 1.388 1_545 S
C235 H206 0.930 . S
C235 C230 1.391 . S
C235 N234 1.388 1_565 S
Co236 O238 2.143 . S
Co236 O244 2.074 1_655 S
Co236 O247 2.093 . S
Co236 O260 2.097 . S
Co236 N277 2.151 . S
Co236 N285 2.214 . S
Co237 O238 2.160 1_455 S
Co237 O243 2.058 . S
Co237 O253 2.057 . S
Co237 O268 2.037 . S
Co237 N272 2.145 . S
Co237 N293 2.257 . S
O238 Co236 2.143 . S
O238 Co237 2.160 1_655 S
C239 O240 1.278 . S
C239 O247 1.224 . S
O240 C239 1.278 . S
C241 O242 1.245 . S
C241 O253 1.232 1_655 S
O242 C241 1.245 . S
O243 Co237 2.058 . S
O243 C269 1.269 . S
O244 Co236 2.074 1_455 S
O244 C269 1.257 . S
H245 C270 0.930 . S
H246 C276 0.930 . S
O247 Co236 2.093 . S
O247 C239 1.224 . S
H248 C280 0.929 . S
H249 C282 0.930 . S
H250 C283 0.930 1_455 S
H251 C281 0.929 . S
H252 C284 0.928 . S
O253 Co237 2.057 . S
O253 C241 1.232 1_455 S
H254 C273 0.929 . S
H255 C274 0.929 . S
H256 C286 0.931 1_455 S
H257 C278 0.929 . S
H258 C287 0.930 . S
H259 C279 0.931 . S
O260 Co236 2.097 . S
O260 C288 1.214 1_655 S
H261 C289 0.929 . S
H262 C290 0.929 . S
H263 C291 0.930 . S
H264 C292 0.929 . S
H265 C294 0.930 . S
H266 C271 0.930 . S
H267 C275 0.930 . S
O268 Co237 2.037 . S
O268 C288 1.234 . S
C269 O243 1.269 . S
C269 O244 1.257 . S
C270 H245 0.930 . S
C270 C273 1.388 . S
C270 C275 1.418 . S
C271 H266 0.930 . S
C271 C274 1.404 . S
C271 C275 1.353 . S
N272 Co237 2.145 . S
N272 C273 1.397 . S
N272 C274 1.334 . S
C273 H254 0.929 . S
C273 C270 1.388 . S
C273 N272 1.397 . S
C274 H255 0.929 . S
C274 C271 1.404 . S
C274 N272 1.334 . S
C275 H267 0.930 . S
C275 C270 1.418 . S
C275 C271 1.353 . S
C276 H246 0.930 . S
C276 N277 1.330 . S
C276 C278 1.446 . S
N277 Co236 2.151 . S
N277 C276 1.330 . S
N277 C281 1.418 . S
C278 H257 0.929 . S
C278 C276 1.446 . S
C278 C279 1.332 . S
C279 H259 0.931 . S
C279 C278 1.332 . S
C279 C280 1.267 . S
C280 H248 0.929 . S
C280 C279 1.267 . S
C280 C281 1.251 . S
C281 H251 0.929 . S
C281 N277 1.418 . S
C281 C280 1.251 . S
C282 H249 0.930 . S
C282 C284 1.406 . S
C282 C287 1.261 . S
C283 H250 0.930 1_655 S
C283 N285 1.325 . S
C283 C286 1.357 . S
C284 H252 0.928 . S
C284 C282 1.406 . S
C284 N285 1.261 . S
N285 Co236 2.214 . S
N285 C283 1.325 . S
N285 C284 1.261 . S
C286 H256 0.931 1_655 S
C286 C283 1.357 . S
C286 C287 1.312 . S
C287 H258 0.930 . S
C287 C282 1.261 . S
C287 C286 1.312 . S
C288 O260 1.214 1_455 S
C288 O268 1.234 . S
C289 H261 0.929 . S
C289 C292 1.391 . S
C289 C294 1.391 . S
C290 H262 0.929 . S
C290 C291 1.390 . S
C290 N293 1.391 . S
C291 H263 0.930 . S
C291 C290 1.390 . S
C291 C292 1.392 1_455 S
C292 H264 0.929 . S
C292 C289 1.391 . S
C292 C291 1.392 1_655 S
N293 Co237 2.257 . S
N293 C290 1.391 . S
N293 C294 1.388 1_455 S
C294 H265 0.930 . S
C294 C289 1.391 . S
C294 N293 1.388 1_655 S
Co295 O297 2.143 . S
Co295 O303 2.074 . S
Co295 O306 2.093 . S
Co295 O319 2.097 . S
Co295 N336 2.151 . S
Co295 N344 2.214 . S
Co296 O297 2.160 . S
Co296 O302 2.058 . S
Co296 O312 2.057 . S
Co296 O327 2.037 . S
Co296 N331 2.145 . S
Co296 N352 2.257 . S
O297 Co295 2.143 . S
O297 Co296 2.160 . S
C298 O299 1.278 . S
C298 O306 1.224 . S
O299 C298 1.278 . S
C300 O301 1.245 . S
C300 O312 1.232 . S
O301 C300 1.245 . S
O302 Co296 2.058 . S
O302 C328 1.269 . S
O303 Co295 2.074 . S
O303 C328 1.257 . S
H304 C329 0.930 . S
H305 C335 0.930 . S
O306 Co295 2.093 . S
O306 C298 1.224 . S
H307 C339 0.929 . S
H308 C341 0.930 . S
H309 C342 0.930 . S
H310 C340 0.929 . S
H311 C343 0.928 . S
O312 Co296 2.057 . S
O312 C300 1.232 . S
H313 C332 0.929 . S
H314 C333 0.929 . S
H315 C345 0.931 . S
H316 C337 0.929 . S
H317 C346 0.930 . S
H318 C338 0.931 . S
O319 Co295 2.097 . S
O319 C347 1.214 . S
H320 C348 0.929 . S
H321 C349 0.929 . S
H322 C350 0.930 . S
H323 C351 0.929 . S
H324 C353 0.930 . S
H325 C330 0.930 . S
H326 C334 0.930 . S
O327 Co296 2.037 . S
O327 C347 1.234 . S
C328 O302 1.269 . S
C328 O303 1.257 . S
C329 H304 0.930 . S
C329 C332 1.388 . S
C329 C334 1.418 . S
C330 H325 0.930 . S
C330 C333 1.404 . S
C330 C334 1.353 . S
N331 Co296 2.145 . S
N331 C332 1.397 . S
N331 C333 1.334 . S
C332 H313 0.929 . S
C332 C329 1.388 . S
C332 N331 1.397 . S
C333 H314 0.929 . S
C333 C330 1.404 . S
C333 N331 1.334 . S
C334 H326 0.930 . S
C334 C329 1.418 . S
C334 C330 1.353 . S
C335 H305 0.930 . S
C335 N336 1.330 . S
C335 C337 1.446 . S
N336 Co295 2.151 . S
N336 C335 1.330 . S
N336 C340 1.418 . S
C337 H316 0.929 . S
C337 C335 1.446 . S
C337 C338 1.332 . S
C338 H318 0.931 . S
C338 C337 1.332 . S
C338 C339 1.267 . S
C339 H307 0.929 . S
C339 C338 1.267 . S
C339 C340 1.251 . S
C340 H310 0.929 . S
C340 N336 1.418 . S
C340 C339 1.251 . S
C341 H308 0.930 . S
C341 C343 1.406 . S
C341 C346 1.261 . S
C342 H309 0.930 . S
C342 N344 1.325 . S
C342 C345 1.357 . S
C343 H311 0.928 . S
C343 C341 1.406 . S
C343 N344 1.261 . S
N344 Co295 2.214 . S
N344 C342 1.325 . S
N344 C343 1.261 . S
C345 H315 0.931 . S
C345 C342 1.357 . S
C345 C346 1.312 . S
C346 H317 0.930 . S
C346 C341 1.261 . S
C346 C345 1.312 . S
C347 O319 1.214 . S
C347 O327 1.234 . S
C348 H320 0.929 . S
C348 C351 1.391 . S
C348 C353 1.391 . S
C349 H321 0.929 . S
C349 C350 1.390 . S
C349 N352 1.391 . S
C350 H322 0.930 . S
C350 C349 1.390 . S
C350 C351 1.392 . S
C351 H323 0.929 . S
C351 C348 1.391 . S
C351 C350 1.392 . S
N352 Co296 2.257 . S
N352 C349 1.391 . S
N352 C353 1.388 . S
C353 H324 0.930 . S
C353 C348 1.391 . S
C353 N352 1.388 . S
Co354 O356 2.143 . S
Co354 O362 2.074 . S
Co354 O365 2.093 . S
Co354 O378 2.097 . S
Co354 N395 2.151 . S
Co354 N403 2.214 . S
Co355 O356 2.160 . S
Co355 O361 2.058 . S
Co355 O371 2.057 . S
Co355 O386 2.037 . S
Co355 N390 2.145 . S
Co355 N411 2.257 . S
O356 Co354 2.143 . S
O356 Co355 2.160 . S
C357 O358 1.278 . S
C357 O365 1.224 . S
O358 C357 1.278 . S
C359 O360 1.245 . S
C359 O371 1.232 . S
O360 C359 1.245 . S
O361 Co355 2.058 . S
O361 C387 1.269 . S
O362 Co354 2.074 . S
O362 C387 1.257 . S
H363 C388 0.930 . S
H364 C394 0.930 . S
O365 Co354 2.093 . S
O365 C357 1.224 . S
H366 C398 0.929 . S
H367 C400 0.930 . S
H368 C401 0.930 . S
H369 C399 0.929 . S
H370 C402 0.928 . S
O371 Co355 2.057 . S
O371 C359 1.232 . S
H372 C391 0.929 . S
H373 C392 0.929 . S
H374 C404 0.931 . S
H375 C396 0.929 . S
H376 C405 0.930 . S
H377 C397 0.931 . S
O378 Co354 2.097 . S
O378 C406 1.214 . S
H379 C407 0.929 . S
H380 C408 0.929 . S
H381 C409 0.930 . S
H382 C410 0.929 . S
H383 C412 0.930 . S
H384 C389 0.930 . S
H385 C393 0.930 . S
O386 Co355 2.037 . S
O386 C406 1.234 . S
C387 O361 1.269 . S
C387 O362 1.257 . S
C388 H363 0.930 . S
C388 C391 1.388 . S
C388 C393 1.418 . S
C389 H384 0.930 . S
C389 C392 1.404 . S
C389 C393 1.353 . S
N390 Co355 2.145 . S
N390 C391 1.397 . S
N390 C392 1.334 . S
C391 H372 0.929 . S
C391 C388 1.388 . S
C391 N390 1.397 . S
C392 H373 0.929 . S
C392 C389 1.404 . S
C392 N390 1.334 . S
C393 H385 0.930 . S
C393 C388 1.418 . S
C393 C389 1.353 . S
C394 H364 0.930 . S
C394 N395 1.330 . S
C394 C396 1.446 . S
N395 Co354 2.151 . S
N395 C394 1.330 . S
N395 C399 1.418 . S
C396 H375 0.929 . S
C396 C394 1.446 . S
C396 C397 1.332 . S
C397 H377 0.931 . S
C397 C396 1.332 . S
C397 C398 1.267 . S
C398 H366 0.929 . S
C398 C397 1.267 . S
C398 C399 1.251 . S
C399 H369 0.929 . S
C399 N395 1.418 . S
C399 C398 1.251 . S
C400 H367 0.930 . S
C400 C402 1.406 . S
C400 C405 1.261 . S
C401 H368 0.930 . S
C401 N403 1.325 . S
C401 C404 1.357 . S
C402 H370 0.928 . S
C402 C400 1.406 . S
C402 N403 1.261 . S
N403 Co354 2.214 . S
N403 C401 1.325 . S
N403 C402 1.261 . S
C404 H374 0.931 . S
C404 C401 1.357 . S
C404 C405 1.312 . S
C405 H376 0.930 . S
C405 C400 1.261 . S
C405 C404 1.312 . S
C406 O378 1.214 . S
C406 O386 1.234 . S
C407 H379 0.929 . S
C407 C410 1.391 . S
C407 C412 1.391 . S
C408 H380 0.929 . S
C408 C409 1.390 . S
C408 N411 1.391 . S
C409 H381 0.930 . S
C409 C408 1.390 . S
C409 C410 1.392 . S
C410 H382 0.929 . S
C410 C407 1.391 . S
C410 C409 1.392 . S
N411 Co355 2.257 . S
N411 C408 1.391 . S
N411 C412 1.388 . S
C412 H383 0.930 . S
C412 C407 1.391 . S
C412 N411 1.388 . S
Co413 O415 2.143 . S
Co413 O421 2.074 1_545 S
Co413 O424 2.093 . S
Co413 O437 2.097 . S
Co413 N454 2.151 . S
Co413 N462 2.214 . S
Co414 O415 2.160 1_565 S
Co414 O420 2.058 . S
Co414 O430 2.057 . S
Co414 O445 2.037 . S
Co414 N449 2.145 . S
Co414 N470 2.257 . S
O415 Co413 2.143 . S
O415 Co414 2.160 1_545 S
C416 O417 1.278 . S
C416 O424 1.224 . S
O417 C416 1.278 . S
C418 O419 1.245 . S
C418 O430 1.232 1_545 S
O419 C418 1.245 . S
O420 Co414 2.058 . S
O420 C446 1.269 . S
O421 Co413 2.074 1_565 S
O421 C446 1.257 . S
H422 C447 0.930 . S
H423 C453 0.930 . S
O424 Co413 2.093 . S
O424 C416 1.224 . S
H425 C457 0.929 . S
H426 C459 0.930 . S
H427 C460 0.930 1_565 S
H428 C458 0.929 . S
H429 C461 0.928 . S
O430 Co414 2.057 . S
O430 C418 1.232 1_565 S
H431 C450 0.929 . S
H432 C451 0.929 . S
H433 C463 0.931 1_565 S
H434 C455 0.929 . S
H435 C464 0.930 . S
H436 C456 0.931 . S
O437 Co413 2.097 . S
O437 C465 1.214 1_545 S
H438 C466 0.929 . S
H439 C467 0.929 . S
H440 C468 0.930 . S
H441 C469 0.929 . S
H442 C471 0.930 . S
H443 C448 0.930 . S
H444 C452 0.930 . S
O445 Co414 2.037 . S
O445 C465 1.234 . S
C446 O420 1.269 . S
C446 O421 1.257 . S
C447 H422 0.930 . S
C447 C450 1.388 . S
C447 C452 1.418 . S
C448 H443 0.930 . S
C448 C451 1.404 . S
C448 C452 1.353 . S
N449 Co414 2.145 . S
N449 C450 1.397 . S
N449 C451 1.334 . S
C450 H431 0.929 . S
C450 C447 1.388 . S
C450 N449 1.397 . S
C451 H432 0.929 . S
C451 C448 1.404 . S
C451 N449 1.334 . S
C452 H444 0.930 . S
C452 C447 1.418 . S
C452 C448 1.353 . S
C453 H423 0.930 . S
C453 N454 1.330 . S
C453 C455 1.446 . S
N454 Co413 2.151 . S
N454 C453 1.330 . S
N454 C458 1.418 . S
C455 H434 0.929 . S
C455 C453 1.446 . S
C455 C456 1.332 . S
C456 H436 0.931 . S
C456 C455 1.332 . S
C456 C457 1.267 . S
C457 H425 0.929 . S
C457 C456 1.267 . S
C457 C458 1.251 . S
C458 H428 0.929 . S
C458 N454 1.418 . S
C458 C457 1.251 . S
C459 H426 0.930 . S
C459 C461 1.406 . S
C459 C464 1.261 . S
C460 H427 0.930 1_545 S
C460 N462 1.325 . S
C460 C463 1.357 . S
C461 H429 0.928 . S
C461 C459 1.406 . S
C461 N462 1.261 . S
N462 Co413 2.214 . S
N462 C460 1.325 . S
N462 C461 1.261 . S
C463 H433 0.931 1_545 S
C463 C460 1.357 . S
C463 C464 1.312 . S
C464 H435 0.930 . S
C464 C459 1.261 . S
C464 C463 1.312 . S
C465 O437 1.214 1_565 S
C465 O445 1.234 . S
C466 H438 0.929 . S
C466 C469 1.391 . S
C466 C471 1.391 . S
C467 H439 0.929 . S
C467 C468 1.390 . S
C467 N470 1.391 . S
C468 H440 0.930 . S
C468 C467 1.390 . S
C468 C469 1.392 1_565 S
C469 H441 0.929 . S
C469 C466 1.391 . S
C469 C468 1.392 1_545 S
N470 Co414 2.257 . S
N470 C467 1.391 . S
N470 C471 1.388 1_565 S
C471 H442 0.930 . S
C471 C466 1.391 . S
C471 N470 1.388 1_545 S
H472 C480 0.950 . S
H473 C485 0.950 . S
H474 C482 0.950 1_554 S
H475 C484 0.950 . S
H476 C486 0.950 . S
H477 C488 0.950 1_556 S
H478 C490 0.950 . S
H479 C491 0.950 . S
C480 H472 0.950 . S
C480 C481 1.386 . S
C480 C482 1.391 . S
C481 C480 1.386 . S
C481 C485 1.393 1_655 S
C482 H474 0.950 1_556 S
C482 C480 1.391 . S
C482 C483 1.405 . S
C483 C482 1.405 . S
C483 C484 1.394 1_655 S
C483 C489 1.490 1_656 S
C484 H475 0.950 . S
C484 C483 1.394 1_455 S
C484 C485 1.391 . S
C485 H473 0.950 . S
C485 C481 1.393 1_455 S
C485 C484 1.391 . S
C486 H476 0.950 . S
C486 C487 1.386 . S
C486 C488 1.391 . S
C487 C486 1.386 . S
C487 C491 1.393 1_455 S
C488 H477 0.950 1_554 S
C488 C486 1.391 . S
C488 C489 1.405 . S
C489 C483 1.490 1_454 S
C489 C488 1.405 . S
C489 C490 1.394 1_455 S
C490 H478 0.950 . S
C490 C489 1.394 1_655 S
C490 C491 1.391 . S
C491 H479 0.950 . S
C491 C487 1.393 1_655 S
C491 C490 1.391 . S
H492 C500 0.950 . S
H493 C505 0.950 . S
H494 C502 0.950 . S
H495 C504 0.950 . S
H496 C506 0.950 . S
H497 C508 0.950 . S
H498 C510 0.950 . S
H499 C511 0.950 . S
C500 H492 0.950 . S
C500 C501 1.386 . S
C500 C502 1.391 . S
C501 C500 1.386 . S
C501 C505 1.393 . S
C502 H494 0.950 . S
C502 C500 1.391 . S
C502 C503 1.400 . S
C503 C502 1.400 . S
C503 C504 1.398 . S
C503 C509 1.491 . S
C504 H495 0.950 . S
C504 C503 1.398 . S
C504 C505 1.391 . S
C505 H493 0.950 . S
C505 C501 1.393 . S
C505 C504 1.391 . S
C506 H496 0.950 . S
C506 C507 1.386 . S
C506 C508 1.391 . S
C507 C506 1.386 . S
C507 C511 1.393 . S
C508 H497 0.950 . S
C508 C506 1.391 . S
C508 C509 1.400 . S
C509 C503 1.491 . S
C509 C508 1.400 . S
C509 C510 1.398 . S
C510 H498 0.950 . S
C510 C509 1.398 . S
C510 C511 1.391 . S
C511 H499 0.950 . S
C511 C507 1.393 . S
C511 C510 1.391 . S
H512 C520 0.950 . S
H513 C525 0.950 . S
H514 C522 0.950 . S
H515 C524 0.950 . S
H516 C526 0.950 . S
H517 C528 0.950 . S
H518 C530 0.950 . S
H519 C531 0.950 . S
C520 H512 0.950 . S
C520 C521 1.386 . S
C520 C522 1.391 . S
C521 C520 1.386 . S
C521 C525 1.393 . S
C522 H514 0.950 . S
C522 C520 1.391 . S
C522 C523 1.400 . S
C523 C522 1.400 . S
C523 C524 1.398 . S
C523 C529 1.491 1_564 S
C524 H515 0.950 . S
C524 C523 1.398 . S
C524 C525 1.391 . S
C525 H513 0.950 . S
C525 C521 1.393 . S
C525 C524 1.391 . S
C526 H516 0.950 . S
C526 C527 1.386 . S
C526 C528 1.391 . S
C527 C526 1.386 . S
C527 C531 1.393 . S
C528 H517 0.950 . S
C528 C526 1.391 . S
C528 C529 1.400 . S
C529 C523 1.491 1_546 S
C529 C528 1.400 . S
C529 C530 1.398 . S
C530 H518 0.950 . S
C530 C529 1.398 . S
C530 C531 1.391 . S
C531 H519 0.950 . S
C531 C527 1.393 . S
C531 C530 1.391 . S
H532 C540 0.950 . S
H533 C545 0.950 . S
H534 C542 0.950 . S
H535 C544 0.950 1_455 S
H536 C546 0.950 . S
H537 C548 0.950 . S
H538 C550 0.950 1_655 S
H539 C551 0.950 . S
C540 H532 0.950 . S
C540 C541 1.386 1_565 S
C540 C542 1.391 . S
C541 C540 1.386 1_545 S
C541 C545 1.393 . S
C542 H534 0.950 . S
C542 C540 1.391 . S
C542 C543 1.396 1_565 S
C543 C542 1.396 1_545 S
C543 C544 1.403 . S
C543 C549 1.490 1_645 S
C544 H535 0.950 1_655 S
C544 C543 1.403 . S
C544 C545 1.391 . S
C545 H533 0.950 . S
C545 C541 1.393 . S
C545 C544 1.391 . S
C546 H536 0.950 . S
C546 C547 1.386 1_545 S
C546 C548 1.391 . S
C547 C546 1.386 1_565 S
C547 C551 1.393 . S
C548 H537 0.950 . S
C548 C546 1.391 . S
C548 C549 1.396 1_545 S
C549 C543 1.490 1_465 S
C549 C548 1.396 1_565 S
C549 C550 1.403 . S
C550 H538 0.950 1_455 S
C550 C549 1.403 . S
C550 C551 1.391 . S
C551 H539 0.950 . S
C551 C547 1.393 . S
C551 C550 1.391 . S
H552 C560 0.950 . S
H553 C565 0.950 . S
H554 C562 0.950 . S
H555 C564 0.950 . S
H556 C566 0.950 . S
H557 C568 0.950 . S
H558 C570 0.950 . S
H559 C571 0.950 . S
C560 H552 0.950 . S
C560 C561 1.386 . S
C560 C562 1.391 . S
C561 C560 1.386 . S
C561 C565 1.393 . S
C562 H554 0.950 . S
C562 C560 1.391 . S
C562 C563 1.400 . S
C563 C562 1.400 . S
C563 C564 1.398 . S
C563 C569 1.491 . S
C564 H555 0.950 . S
C564 C563 1.398 . S
C564 C565 1.391 . S
C565 H553 0.950 . S
C565 C561 1.393 . S
C565 C564 1.391 . S
C566 H556 0.950 . S
C566 C567 1.386 . S
C566 C568 1.391 . S
C567 C566 1.386 . S
C567 C571 1.393 . S
C568 H557 0.950 . S
C568 C566 1.391 . S
C568 C569 1.400 . S
C569 C563 1.491 . S
C569 C568 1.400 . S
C569 C570 1.398 . S
C570 H558 0.950 . S
C570 C569 1.398 . S
C570 C571 1.391 . S
C571 H559 0.950 . S
C571 C567 1.393 . S
C571 C570 1.391 . S
H572 C580 0.950 . S
H573 C585 0.950 . S
H574 C582 0.950 . S
H575 C584 0.950 . S
H576 C586 0.950 . S
H577 C588 0.950 . S
H578 C590 0.950 . S
H579 C591 0.950 . S
C580 H572 0.950 . S
C580 C581 1.386 . S
C580 C582 1.391 . S
C581 C580 1.386 . S
C581 C585 1.393 . S
C582 H574 0.950 . S
C582 C580 1.391 . S
C582 C583 1.400 . S
C583 C582 1.400 . S
C583 C584 1.398 . S
C583 C589 1.491 . S
C584 H575 0.950 . S
C584 C583 1.398 . S
C584 C585 1.391 . S
C585 H573 0.950 . S
C585 C581 1.393 . S
C585 C584 1.391 . S
C586 H576 0.950 . S
C586 C587 1.386 . S
C586 C588 1.391 . S
C587 C586 1.386 . S
C587 C591 1.393 . S
C588 H577 0.950 . S
C588 C586 1.391 . S
C588 C589 1.400 . S
C589 C583 1.491 . S
C589 C588 1.400 . S
C589 C590 1.398 . S
C590 H578 0.950 . S
C590 C589 1.398 . S
C590 C591 1.391 . S
C591 H579 0.950 . S
C591 C587 1.393 . S
C591 C590 1.391 . S
H592 C600 0.950 . S
H593 C605 0.950 . S
H594 C602 0.950 . S
H595 C604 0.950 . S
H596 C606 0.950 . S
H597 C608 0.950 . S
H598 C610 0.950 . S
H599 C611 0.950 . S
C600 H592 0.950 . S
C600 C601 1.386 . S
C600 C602 1.391 . S
C601 C600 1.386 . S
C601 C605 1.393 . S
C602 H594 0.950 . S
C602 C600 1.391 . S
C602 C603 1.400 . S
C603 C602 1.400 . S
C603 C604 1.398 . S
C603 C609 1.491 . S
C604 H595 0.950 . S
C604 C603 1.398 . S
C604 C605 1.391 . S
C605 H593 0.950 . S
C605 C601 1.393 . S
C605 C604 1.391 . S
C606 H596 0.950 . S
C606 C607 1.386 . S
C606 C608 1.391 . S
C607 C606 1.386 . S
C607 C611 1.393 . S
C608 H597 0.950 . S
C608 C606 1.391 . S
C608 C609 1.400 . S
C609 C603 1.491 . S
C609 C608 1.400 . S
C609 C610 1.398 . S
C610 H598 0.950 . S
C610 C609 1.398 . S
C610 C611 1.391 . S
C611 H599 0.950 . S
C611 C607 1.393 . S
C611 C610 1.391 . S
H612 C620 0.950 . S
H613 C625 0.950 . S
H614 C622 0.950 . S
H615 C624 0.950 . S
H616 C626 0.950 . S
H617 C628 0.950 . S
H618 C630 0.950 . S
H619 C631 0.950 . S
C620 H612 0.950 . S
C620 C621 1.386 . S
C620 C622 1.391 . S
C621 C620 1.386 . S
C621 C625 1.393 . S
C622 H614 0.950 . S
C622 C620 1.391 . S
C622 C623 1.400 . S
C623 C622 1.400 . S
C623 C624 1.398 . S
C623 C629 1.491 . S
C624 H615 0.950 . S
C624 C623 1.398 . S
C624 C625 1.391 . S
C625 H613 0.950 . S
C625 C621 1.393 . S
C625 C624 1.391 . S
C626 H616 0.950 . S
C626 C627 1.386 . S
C626 C628 1.391 . S
C627 C626 1.386 . S
C627 C631 1.393 . S
C628 H617 0.950 . S
C628 C626 1.391 . S
C628 C629 1.400 . S
C629 C623 1.491 . S
C629 C628 1.400 . S
C629 C630 1.398 . S
C630 H618 0.950 . S
C630 C629 1.398 . S
C630 C631 1.391 . S
C631 H619 0.950 . S
C631 C627 1.393 . S
C631 C630 1.391 . S
H632 C640 0.950 . S
H633 C645 0.950 . S
H634 C642 0.950 . S
H635 C644 0.950 . S
H636 C646 0.950 . S
H637 C648 0.950 . S
H638 C650 0.950 . S
H639 C651 0.950 . S
C640 H632 0.950 . S
C640 C641 1.386 . S
C640 C642 1.391 . S
C641 C640 1.386 . S
C641 C645 1.393 . S
C642 H634 0.950 . S
C642 C640 1.391 . S
C642 C643 1.400 . S
C643 C642 1.400 . S
C643 C644 1.398 . S
C643 C649 1.491 . S
C644 H635 0.950 . S
C644 C643 1.398 . S
C644 C645 1.391 . S
C645 H633 0.950 . S
C645 C641 1.393 . S
C645 C644 1.391 . S
C646 H636 0.950 . S
C646 C647 1.386 . S
C646 C648 1.391 . S
C647 C646 1.386 . S
C647 C651 1.393 . S
C648 H637 0.950 . S
C648 C646 1.391 . S
C648 C649 1.400 . S
C649 C643 1.491 . S
C649 C648 1.400 . S
C649 C650 1.398 . S
C650 H638 0.950 . S
C650 C649 1.398 . S
C650 C651 1.391 . S
C651 H639 0.950 . S
C651 C647 1.393 . S
C651 C650 1.391 . S
H652 C660 0.950 . S
H653 C665 0.950 . S
H654 C662 0.950 . S
H655 C664 0.950 . S
H656 C666 0.950 . S
H657 C668 0.950 . S
H658 C670 0.950 . S
H659 C671 0.950 . S
C660 H652 0.950 . S
C660 C661 1.386 . S
C660 C662 1.391 . S
C661 C660 1.386 . S
C661 C665 1.393 . S
C662 H654 0.950 . S
C662 C660 1.391 . S
C662 C663 1.400 . S
C663 C662 1.400 . S
C663 C664 1.398 . S
C663 C669 1.491 . S
C664 H655 0.950 . S
C664 C663 1.398 . S
C664 C665 1.391 . S
C665 H653 0.950 . S
C665 C661 1.393 . S
C665 C664 1.391 . S
C666 H656 0.950 . S
C666 C667 1.386 . S
C666 C668 1.391 . S
C667 C666 1.386 . S
C667 C671 1.393 . S
C668 H657 0.950 . S
C668 C666 1.391 . S
C668 C669 1.400 . S
C669 C663 1.491 . S
C669 C668 1.400 . S
C669 C670 1.398 . S
C670 H658 0.950 . S
C670 C669 1.398 . S
C670 C671 1.391 . S
C671 H659 0.950 . S
C671 C667 1.393 . S
C671 C670 1.391 . S
H672 C680 0.950 . S
H673 C685 0.950 . S
H674 C682 0.950 . S
H675 C684 0.950 . S
H676 C686 0.950 . S
H677 C688 0.950 . S
H678 C690 0.950 . S
H679 C691 0.950 . S
C680 H672 0.950 . S
C680 C681 1.386 . S
C680 C682 1.391 . S
C681 C680 1.386 . S
C681 C685 1.393 . S
C682 H674 0.950 . S
C682 C680 1.391 . S
C682 C683 1.400 . S
C683 C682 1.400 . S
C683 C684 1.398 . S
C683 C689 1.491 . S
C684 H675 0.950 . S
C684 C683 1.398 . S
C684 C685 1.391 . S
C685 H673 0.950 . S
C685 C681 1.393 . S
C685 C684 1.391 . S
C686 H676 0.950 . S
C686 C687 1.386 . S
C686 C688 1.391 . S
C687 C686 1.386 . S
C687 C691 1.393 . S
C688 H677 0.950 . S
C688 C686 1.391 . S
C688 C689 1.400 . S
C689 C683 1.491 . S
C689 C688 1.400 . S
C689 C690 1.398 . S
C690 H678 0.950 . S
C690 C689 1.398 . S
C690 C691 1.391 . S
C691 H679 0.950 . S
C691 C687 1.393 . S
C691 C690 1.391 . S
H692 C700 0.950 . S
H693 C705 0.950 . S
H694 C702 0.950 . S
H695 C704 0.950 . S
H696 C706 0.950 . S
H697 C708 0.950 . S
H698 C710 0.950 . S
H699 C711 0.950 . S
C700 H692 0.950 . S
C700 C701 1.386 . S
C700 C702 1.391 . S
C701 C700 1.386 . S
C701 C705 1.393 . S
C702 H694 0.950 . S
C702 C700 1.391 . S
C702 C703 1.400 . S
C703 C702 1.400 . S
C703 C704 1.398 . S
C703 C709 1.491 . S
C704 H695 0.950 . S
C704 C703 1.398 . S
C704 C705 1.391 . S
C705 H693 0.950 . S
C705 C701 1.393 . S
C705 C704 1.391 . S
C706 H696 0.950 . S
C706 C707 1.386 . S
C706 C708 1.391 . S
C707 C706 1.386 . S
C707 C711 1.393 . S
C708 H697 0.950 . S
C708 C706 1.391 . S
C708 C709 1.400 . S
C709 C703 1.491 . S
C709 C708 1.400 . S
C709 C710 1.398 . S
C710 H698 0.950 . S
C710 C709 1.398 . S
C710 C711 1.391 . S
C711 H699 0.950 . S
C711 C707 1.393 . S
C711 C710 1.391 . S
H712 C720 0.950 . S
H713 C725 0.950 . S
H714 C722 0.950 . S
H715 C724 0.950 . S
H716 C726 0.950 . S
H717 C728 0.950 . S
H718 C730 0.950 . S
H719 C731 0.950 . S
C720 H712 0.950 . S
C720 C721 1.386 . S
C720 C722 1.391 . S
C721 C720 1.386 . S
C721 C725 1.393 . S
C722 H714 0.950 . S
C722 C720 1.391 . S
C722 C723 1.400 . S
C723 C722 1.400 . S
C723 C724 1.398 . S
C723 C729 1.491 . S
C724 H715 0.950 . S
C724 C723 1.398 . S
C724 C725 1.391 . S
C725 H713 0.950 . S
C725 C721 1.393 . S
C725 C724 1.391 . S
C726 H716 0.950 . S
C726 C727 1.386 . S
C726 C728 1.391 . S
C727 C726 1.386 . S
C727 C731 1.393 . S
C728 H717 0.950 . S
C728 C726 1.391 . S
C728 C729 1.400 . S
C729 C723 1.491 . S
C729 C728 1.400 . S
C729 C730 1.398 . S
C730 H718 0.950 . S
C730 C729 1.398 . S
C730 C731 1.391 . S
C731 H719 0.950 . S
C731 C727 1.393 . S
C731 C730 1.391 . S
H732 C740 0.950 . S
H733 C745 0.950 . S
H734 C742 0.950 . S
H735 C744 0.950 . S
H736 C746 0.950 . S
H737 C748 0.950 . S
H738 C750 0.950 . S
H739 C751 0.950 . S
C740 H732 0.950 . S
C740 C741 1.386 . S
C740 C742 1.391 . S
C741 C740 1.386 . S
C741 C745 1.393 . S
C742 H734 0.950 . S
C742 C740 1.391 . S
C742 C743 1.400 . S
C743 C742 1.400 . S
C743 C744 1.398 . S
C743 C749 1.491 . S
C744 H735 0.950 . S
C744 C743 1.398 . S
C744 C745 1.391 . S
C745 H733 0.950 . S
C745 C741 1.393 . S
C745 C744 1.391 . S
C746 H736 0.950 . S
C746 C747 1.386 . S
C746 C748 1.391 . S
C747 C746 1.386 . S
C747 C751 1.393 . S
C748 H737 0.950 . S
C748 C746 1.391 . S
C748 C749 1.400 . S
C749 C743 1.491 . S
C749 C748 1.400 . S
C749 C750 1.398 . S
C750 H738 0.950 . S
C750 C749 1.398 . S
C750 C751 1.391 . S
C751 H739 0.950 . S
C751 C747 1.393 . S
C751 C750 1.391 . S
H752 C760 0.950 . S
H753 C765 0.950 . S
H754 C762 0.950 . S
H755 C764 0.950 . S
H756 C766 0.950 . S
H757 C768 0.950 . S
H758 C770 0.950 . S
H759 C771 0.950 1_565 S
C760 H752 0.950 . S
C760 C761 1.386 . S
C760 C762 1.391 . S
C761 C760 1.386 . S
C761 C765 1.393 . S
C762 H754 0.950 . S
C762 C760 1.391 . S
C762 C763 1.400 . S
C763 C762 1.400 . S
C763 C764 1.398 . S
C763 C769 1.491 . S
C764 H755 0.950 . S
C764 C763 1.398 . S
C764 C765 1.391 . S
C765 H753 0.950 . S
C765 C761 1.393 . S
C765 C764 1.391 . S
C766 H756 0.950 . S
C766 C767 1.386 . S
C766 C768 1.391 . S
C767 C766 1.386 . S
C767 C771 1.393 . S
C768 H757 0.950 . S
C768 C766 1.391 . S
C768 C769 1.400 . S
C769 C763 1.491 . S
C769 C768 1.400 . S
C769 C770 1.398 . S
C770 H758 0.950 . S
C770 C769 1.398 . S
C770 C771 1.391 . S
C771 H759 0.950 1_545 S
C771 C767 1.393 . S
C771 C770 1.391 . S
H772 C780 0.950 . S
H773 C785 0.950 . S
H774 C782 0.950 . S
H775 C784 0.950 . S
H776 C786 0.950 . S
H777 C788 0.950 . S
H778 C790 0.950 . S
H779 C791 0.950 . S
C780 H772 0.950 . S
C780 C781 1.386 . S
C780 C782 1.391 . S
C781 C780 1.386 . S
C781 C785 1.393 . S
C782 H774 0.950 . S
C782 C780 1.391 . S
C782 C783 1.400 . S
C783 C782 1.400 . S
C783 C784 1.398 . S
C783 C789 1.491 . S
C784 H775 0.950 . S
C784 C783 1.398 . S
C784 C785 1.391 . S
C785 H773 0.950 . S
C785 C781 1.393 . S
C785 C784 1.391 . S
C786 H776 0.950 . S
C786 C787 1.386 . S
C786 C788 1.391 . S
C787 C786 1.386 . S
C787 C791 1.393 . S
C788 H777 0.950 . S
C788 C786 1.391 . S
C788 C789 1.400 . S
C789 C783 1.491 . S
C789 C788 1.400 . S
C789 C790 1.398 . S
C790 H778 0.950 . S
C790 C789 1.398 . S
C790 C791 1.391 . S
C791 H779 0.950 . S
C791 C787 1.393 . S
C791 C790 1.391 . S
C481 C241 1.525 . S
C487 C5 1.525 . S
C501 C64 1.524 . S
C507 C300 1.524 . S
C521 C123 1.519 . S
C527 C359 1.519 . S
C541 C418 1.521 . S
C547 C182 1.521 . S
C561 C3 1.442 . S
C567 C121 1.441 . S
C581 C62 1.427 . S
C587 C180 1.424 . S
C601 C357 1.427 . S
C607 C239 1.431 . S
C621 C298 1.428 . S
C627 C416 1.433 . S
C641 C347 1.265 . S
C647 C33 1.253 . S
C661 C92 1.263 . S
C667 C406 1.260 . S
C681 C151 1.251 . S
C687 C465 1.262 . S
C701 C288 1.259 . S
C707 C210 1.251 . S
C721 C269 1.257 . S
C727 C111 1.266 . S
C741 C328 1.251 . S
C747 C170 1.264 . S
C761 C387 1.258 . S
C767 C229 1.267 . S
C781 C52 1.259 . S
C787 C446 1.252 . S
