# Generated by pormake.
# Topology wkj, (6)-cn, num edge types: 1
# Building blocks:
#     Node 0, Type 0, BuildingBlock: NUHQIS_clean_sbu_0, # of connection points: 6
#     Node 1, Type 0, BuildingBlock: NUHQIS_clean_sbu_0, # of connection points: 6
#     Node 2, Type 0, BuildingBlock: NUHQIS_clean_sbu_0, # of connection points: 6
#     Node 3, Type 0, BuildingBlock: NUHQIS_clean_sbu_0, # of connection points: 6
#     Node 4, Type 0, BuildingBlock: NUHQIS_clean_sbu_0, # of connection points: 6
#     Node 5, Type 0, BuildingBlock: NUHQIS_clean_sbu_0, # of connection points: 6
#     Node 6, Type 0, BuildingBlock: NUHQIS_clean_sbu_0, # of connection points: 6
#     Node 7, Type 0, BuildingBlock: NUHQIS_clean_sbu_0, # of connection points: 6
#     Node 8, Type 0, BuildingBlock: NUHQIS_clean_sbu_0, # of connection points: 6
#     Node 9, Type 0, BuildingBlock: NUHQIS_clean_sbu_0, # of connection points: 6
#     Node 10, Type 0, BuildingBlock: NUHQIS_clean_sbu_0, # of connection points: 6
#     Node 11, Type 0, BuildingBlock: NUHQIS_clean_sbu_0, # of connection points: 6
#     Edge 12, Type (0, 0), BuildingBlock: EZIPEK_clean_linker_0, # of connection points: 2
#     Edge 13, Type (0, 0), BuildingBlock: EZIPEK_clean_linker_0, # of connection points: 2
#     Edge 14, Type (0, 0), BuildingBlock: EZIPEK_clean_linker_0, # of connection points: 2
#     Edge 15, Type (0, 0), BuildingBlock: EZIPEK_clean_linker_0, # of connection points: 2
#     Edge 16, Type (0, 0), BuildingBlock: EZIPEK_clean_linker_0, # of connection points: 2
#     Edge 17, Type (0, 0), BuildingBlock: EZIPEK_clean_linker_0, # of connection points: 2
#     Edge 18, Type (0, 0), BuildingBlock: EZIPEK_clean_linker_0, # of connection points: 2
#     Edge 19, Type (0, 0), BuildingBlock: EZIPEK_clean_linker_0, # of connection points: 2
#     Edge 20, Type (0, 0), BuildingBlock: EZIPEK_clean_linker_0, # of connection points: 2
#     Edge 21, Type (0, 0), BuildingBlock: EZIPEK_clean_linker_0, # of connection points: 2
#     Edge 22, Type (0, 0), BuildingBlock: EZIPEK_clean_linker_0, # of connection points: 2
#     Edge 23, Type (0, 0), BuildingBlock: EZIPEK_clean_linker_0, # of connection points: 2
#     Edge 24, Type (0, 0), BuildingBlock: EZIPEK_clean_linker_0, # of connection points: 2
#     Edge 25, Type (0, 0), BuildingBlock: EZIPEK_clean_linker_0, # of connection points: 2
#     Edge 26, Type (0, 0), BuildingBlock: EZIPEK_clean_linker_0, # of connection points: 2
#     Edge 27, Type (0, 0), BuildingBlock: EZIPEK_clean_linker_0, # of connection points: 2
#     Edge 28, Type (0, 0), BuildingBlock: EZIPEK_clean_linker_0, # of connection points: 2
#     Edge 29, Type (0, 0), BuildingBlock: EZIPEK_clean_linker_0, # of connection points: 2
#     Edge 30, Type (0, 0), BuildingBlock: EZIPEK_clean_linker_0, # of connection points: 2
#     Edge 31, Type (0, 0), BuildingBlock: EZIPEK_clean_linker_0, # of connection points: 2
#     Edge 32, Type (0, 0), BuildingBlock: EZIPEK_clean_linker_0, # of connection points: 2
#     Edge 33, Type (0, 0), BuildingBlock: EZIPEK_clean_linker_0, # of connection points: 2
#     Edge 34, Type (0, 0), BuildingBlock: EZIPEK_clean_linker_0, # of connection points: 2
#     Edge 35, Type (0, 0), BuildingBlock: EZIPEK_clean_linker_0, # of connection points: 2
#     Edge 36, Type (0, 0), BuildingBlock: EZIPEK_clean_linker_0, # of connection points: 2
#     Edge 37, Type (0, 0), BuildingBlock: EZIPEK_clean_linker_0, # of connection points: 2
#     Edge 38, Type (0, 0), BuildingBlock: EZIPEK_clean_linker_0, # of connection points: 2
#     Edge 39, Type (0, 0), BuildingBlock: EZIPEK_clean_linker_0, # of connection points: 2
#     Edge 40, Type (0, 0), BuildingBlock: EZIPEK_clean_linker_0, # of connection points: 2
#     Edge 41, Type (0, 0), BuildingBlock: EZIPEK_clean_linker_0, # of connection points: 2
#     Edge 42, Type (0, 0), BuildingBlock: EZIPEK_clean_linker_0, # of connection points: 2
#     Edge 43, Type (0, 0), BuildingBlock: EZIPEK_clean_linker_0, # of connection points: 2
#     Edge 44, Type (0, 0), BuildingBlock: EZIPEK_clean_linker_0, # of connection points: 2
#     Edge 45, Type (0, 0), BuildingBlock: EZIPEK_clean_linker_0, # of connection points: 2
#     Edge 46, Type (0, 0), BuildingBlock: EZIPEK_clean_linker_0, # of connection points: 2
#     Edge 47, Type (0, 0), BuildingBlock: EZIPEK_clean_linker_0, # of connection points: 2
# Relax obj value: 1.090
# Max RMSD: 0.177
# Mean RMSD: 0.177
data_MOF--net-wkj--node1-NUHQIS_clean_sbu_0--edge1-EZIPEK_clean_linker_0
_symmetry_space_group_name_H-M    P1
_symmetry_Int_Tables_number       1
_symmetry_cell_setting            triclinic
loop_
_symmetry_equiv_pos_as_xyz
'x, y, z'
_cell_length_a     38.928713
_cell_length_b     38.4353
_cell_length_c     21.817773
_cell_angle_alpha  89.277823
_cell_angle_beta   90.137481
_cell_angle_gamma 120.50739
loop_
_atom_site_label
_atom_site_type_symbol
_atom_site_fract_x
_atom_site_fract_y
_atom_site_fract_z
_atom_type_partial_charge
Tb0 Tb 0.39544 0.06189 0.45499 0.0
Eu1 Eu 0.47377 0.07736 0.42187 0.0
C2 C 0.44259 0.13597 0.37857 0.0
C3 C 0.39716 0.01365 0.32815 0.0
C4 C 0.31375 0.07149 0.53276 0.0
C5 C 0.29686 0.06259 0.64002 0.0
C6 C 0.32102 0.06358 0.59247 0.0
C7 C 0.28313 0.07982 0.5211 0.0
C8 C 0.25889 0.07892 0.56896 0.0
C9 C 0.26498 0.06919 0.62849 0.0
C10 C 0.33737 0.07065 0.48189 0.0
O11 O 0.38206 0.0047 0.48252 0.0
O12 O 0.44792 0.0254 0.49375 0.0
O13 O 0.49285 0.08699 0.52526 0.0
O14 O 0.43304 0.0793 0.55175 0.0
C15 C 0.40988 0.00215 0.51037 0.0
O16 O 0.5096 0.06235 0.36223 0.0
O17 O 0.53649 0.12146 0.40233 0.0
O18 O 0.47156 0.13659 0.41007 0.0
O19 O 0.41151 0.10046 0.37407 0.0
O20 O 0.37499 0.0215 0.36705 0.0
O21 O 0.43556 0.0322 0.34277 0.0
C22 C 0.46996 0.08595 0.5715 0.0
O23 O 0.37429 0.10034 0.4789 0.0
O24 O 0.33412 0.03585 0.47056 0.0
C25 C 0.54269 0.1195 0.29558 0.0
C26 C 0.54656 0.17757 1.20976 0.0
C27 C 0.58181 0.17959 0.23201 0.0
C28 C 0.57982 0.1514 0.27584 0.0
C29 C 0.50841 0.11331 0.26429 0.0
C30 C 0.51021 0.14205 0.2225 0.0
C31 C 0.53778 0.1002 0.35707 0.0
H32 H 0.30263 0.05587 0.68589 0.0
H33 H 0.34487 0.05755 0.60205 0.0
H34 H 0.27762 0.08638 0.47487 0.0
H35 H 0.23497 0.08479 0.55936 0.0
H36 H 0.61049 0.20635 0.22299 0.0
H37 H 0.60684 0.15703 0.29878 0.0
H38 H 0.47932 0.08886 0.27722 0.0
H39 H 0.48251 0.13817 1.20559 0.0
Tb40 Tb 0.32128 0.41502 0.77341 0.0
Eu41 Eu 0.37288 0.48043 0.73049 0.0
C42 C 0.28472 0.46778 0.76875 0.0
C43 C 0.37788 0.41762 0.64738 0.0
C44 C 0.24096 0.31073 0.82632 0.0
C45 C 0.22608 0.28475 0.92964 0.0
C46 C 0.24816 0.31654 0.88905 0.0
C47 C 0.21093 0.27332 0.8044 0.0
C48 C 0.18875 0.24127 0.84523 0.0
C49 C 0.19674 0.2467 0.90805 0.0
C50 C 0.26404 0.34348 0.78307 0.0
O51 O 0.34575 0.40714 0.85195 0.0
O52 O 0.39066 0.43467 0.77569 0.0
O53 O 0.40621 0.51686 0.81533 0.0
O54 O 0.35396 0.46114 0.8587 0.0
C55 C 0.37731 0.41187 0.82694 0.0
O56 O 0.38031 0.48593 0.62918 0.0
O57 O 0.35794 0.5192 0.67439 0.0
O58 O 0.32276 0.49402 0.76001 0.0
O59 O 0.27601 0.43093 0.77305 0.0
O60 O 0.34297 0.39982 0.67948 0.0
O61 O 0.40198 0.45449 0.66735 0.0
C62 C 0.38843 0.49814 0.86794 0.0
O63 O 0.26036 0.37527 0.78806 0.0
O64 O 0.30097 0.35289 0.77375 0.0
C65 C 0.32045 0.4805 0.58751 0.0
C66 C 0.21337 0.41315 0.54783 0.0
C67 C 0.25214 0.39614 0.52875 0.0
C68 C 0.30466 0.43058 0.55212 0.0
C69 C 0.28555 0.49791 0.60066 0.0
C70 C 0.23308 0.46814 0.58194 0.0
C71 C 0.35915 0.503 0.62269 0.0
H72 H 0.23243 0.28966 0.97809 0.0
H73 H 0.27099 0.34544 0.90646 0.0
H74 H 0.20495 0.26883 0.75572 0.0
H75 H 0.16606 0.21232 0.82789 0.0
H76 H 0.24268 0.36638 0.51139 0.0
H77 H 0.32645 0.42153 0.54638 0.0
H78 H 0.29654 0.52709 0.62102 0.0
H79 H 0.21263 0.47856 0.5912 0.0
Tb80 Tb 0.85952 0.32003 1.17477 0.0
Eu81 Eu 0.86256 0.38963 1.14394 0.0
C82 C 0.78561 0.30135 1.11129 0.0
C83 C 0.91279 0.3791 1.04343 0.0
C84 C 0.8685 0.23288 0.22302 0.0
C85 C 0.89633 0.23416 0.32218 0.0
C86 C 0.87769 0.24776 0.28259 0.0
C87 C 0.87627 0.20273 1.20423 0.0
C88 C 0.89482 0.18875 0.24438 0.0
C89 C 0.90602 0.20546 0.30285 0.0
C90 C 0.85542 0.25235 1.17889 0.0
O91 O 0.90664 0.34676 0.23598 0.0
O92 O 0.92064 0.40761 1.19581 0.0
O93 O 0.85406 0.39846 0.24788 0.0
O94 O 0.8532 0.34174 0.27577 0.0
C95 C 0.92955 0.38505 0.23173 0.0
O96 O 0.87217 0.44037 1.08583 0.0
O97 O 0.82884 0.41913 1.16122 0.0
O98 O 0.81311 0.33563 1.08654 0.0
O99 O 0.79575 0.29371 1.16364 0.0
O100 O 0.8917 0.3427 1.07464 0.0
O101 O 0.91061 0.40814 1.07034 0.0
C102 C 0.85242 0.37538 0.29464 0.0
O103 O 0.82697 0.25824 1.19722 0.0
O104 O 0.88431 0.2845 1.1526 0.0
C105 C 0.8061 0.42386 1.06584 0.0
C106 C 0.73906 0.39677 0.98988 0.0
C107 C 0.74283 0.41713 1.04636 0.0
C108 C 0.77628 0.4314 1.08214 0.0
C109 C 0.7994 0.39682 1.01776 0.0
C110 C 0.76519 0.38201 0.98115 0.0
C111 C 0.8395 0.43735 1.10782 0.0
H112 H 0.90493 0.24746 0.36721 0.0
H113 H 0.87211 0.27124 0.29755 0.0
H114 H 0.86951 0.19132 1.15795 0.0
H115 H 0.90213 0.16658 0.22902 0.0
H116 H 0.72302 0.42792 1.05903 0.0
H117 H 0.7793 0.4494 1.1219 0.0
H118 H 0.82079 0.38774 1.00762 0.0
H119 H 0.76197 0.36335 0.94239 0.0
Tb120 Tb 0.49659 0.88298 0.47005 0.0
Eu121 Eu 0.42397 0.83846 0.40868 0.0
C122 C 0.4675 0.78976 0.44282 0.0
C123 C 0.4961 0.92085 0.33424 0.0
C124 C 0.60204 0.94766 0.54785 0.0
C125 C 0.64016 -0.01773 0.63702 0.0
C126 C 0.60355 0.95838 0.60904 0.0
C127 C 0.63752 0.96095 0.51449 0.0
C128 C 0.67447 -0.01547 0.54297 0.0
C129 C 0.67582 -0.00451 0.60435 0.0
C130 C 0.56321 0.92383 0.5191 0.0
O131 O 0.46501 0.91639 0.48313 0.0
O132 O 0.40132 0.87281 0.45219 0.0
O133 O 0.39417 0.82592 0.51051 0.0
O134 O 0.45468 0.86047 0.55611 0.0
C135 C 0.42659 0.90425 0.48317 0.0
O136 O 0.40286 0.83608 0.31424 0.0
O137 O 0.38527 0.7805 0.36304 0.0
O138 O 0.43332 0.78753 0.43843 0.0
O139 O 0.49848 0.82679 0.44706 0.0
O140 O 0.51841 0.91578 0.37594 0.0
O141 O 0.45745 0.89687 0.3445 0.0
C142 C 0.41452 0.83958 0.56399 0.0
O143 O 0.5367 0.88799 0.53912 0.0
O144 O 0.55199 0.93728 0.47295 0.0
C145 C 0.42326 0.79287 0.27082 0.0
C146 C 0.50728 0.78541 1.20334 0.0
C147 C 0.50228 0.83298 1.18448 0.0
C148 C 0.46078 0.83522 0.22159 0.0
C149 C 0.42584 0.74729 0.28491 0.0
C150 C 0.46491 0.74016 0.25253 0.0
C151 C 0.39483 0.79893 0.30961 0.0
H152 H 0.64065 -0.01001 0.68469 0.0
H153 H 0.57637 0.94856 0.63501 0.0
H154 H 0.63659 0.95276 0.46692 0.0
H155 H 0.70175 -0.00592 0.51753 0.0
H156 H 0.52533 0.85877 1.1595 0.0
H157 H 0.45914 0.86237 0.21639 0.0
H158 H 0.40357 0.72385 0.31418 0.0
H159 H 0.46656 0.71356 0.2631 0.0
Tb160 Tb 0.59277 0.54085 0.77194 0.0
Eu161 Eu 0.56758 0.46177 0.72095 0.0
C162 C 0.65542 0.51589 0.74776 0.0
C163 C 0.56644 0.53193 0.63047 0.0
C164 C 0.63287 0.65028 0.82904 0.0
C165 C 0.6623 0.72308 0.82382 0.0
C166 C 0.65597 0.68733 0.79807 0.0
C167 C 0.61537 0.64886 0.88548 0.0
C168 C 0.62192 0.68469 0.91146 0.0
C169 C 0.64566 0.72195 0.88097 0.0
C170 C 0.62676 0.61403 0.79902 0.0
O171 O 0.53216 0.50659 0.80539 0.0
O172 O 0.51191 0.46355 0.72761 0.0
O173 O 0.54709 0.4386 0.82425 0.0
O174 O 0.57413 0.5017 0.86346 0.0
C175 C 0.50426 0.47386 0.77975 0.0
O176 O 0.5413 0.41842 0.64596 0.0
O177 O 0.5848 0.41652 0.7042 0.0
O178 O 0.625 0.48521 0.77202 0.0
O179 O 0.64535 0.54158 0.72708 0.0
O180 O 0.56392 0.54612 0.6843 0.0
O181 O 0.57759 0.50452 0.63447 0.0
C182 C 0.55412 0.46092 0.87491 0.0
O183 O 0.63389 0.5883 0.82786 0.0
O184 O 0.59751 0.59705 0.76026 0.0
C185 C 0.59783 0.42217 0.59839 0.0
C186 C 0.67672 0.46817 0.47888 0.0
C187 C 0.62813 0.47038 0.47019 0.0
C188 C 0.59171 0.44914 0.53201 0.0
C189 C 0.6416 0.41658 0.60575 0.0
C190 C 0.6817 0.43749 0.54856 0.0
C191 C 0.56895 0.40896 0.6501 0.0
H192 H 0.68064 0.75155 0.79992 0.0
H193 H 0.66925 0.68857 0.75387 0.0
H194 H 0.597 0.62035 0.90933 0.0
H195 H 0.6089 0.68326 0.95572 0.0
H196 H 0.62532 0.48857 0.43448 0.0
H197 H 0.56661 0.45393 0.53082 0.0
H198 H 0.64253 0.39876 0.6433 0.0
H199 H 0.70843 0.43595 0.55468 0.0
Tb200 Tb 0.03323 0.60372 1.17756 0.0
Eu201 Eu 0.09668 0.59381 1.13213 0.0
C202 C 0.11109 0.6754 1.12355 0.0
C203 C 0.01483 0.57134 1.04167 0.0
C204 C -0.03354 0.64263 0.24369 0.0
C205 C 0.9349 0.64066 0.33927 0.0
C206 C -0.04052 0.63148 0.30546 0.0
C207 C 0.9478 0.66167 0.21534 0.0
C208 C 0.92326 0.67096 0.24925 0.0
C209 C 0.91765 0.66152 0.31185 0.0
C210 C -0.00731 0.63476 1.20683 0.0
O211 O 0.00511 0.53921 1.19259 0.0
O212 O 0.05983 0.53352 1.17187 0.0
O213 O 0.10076 0.5752 0.23471 0.0
O214 O 0.0563 0.59189 0.27054 0.0
C215 C 0.02326 0.51832 1.19133 0.0
O216 O 0.12551 0.57106 1.07293 0.0
O217 O 0.16096 0.62924 1.1165 0.0
O218 O 0.12368 0.65813 1.16069 0.0
O219 O 0.07347 0.65187 1.11007 0.0
O220 O -0.00113 0.57281 1.09401 0.0
O221 O 0.05349 0.5819 1.04489 0.0
C222 C 0.08072 0.57706 0.28313 0.0
O223 O 0.02997 0.6499 0.22296 0.0
O224 O -0.02237 0.59968 1.18104 0.0
C225 C 0.17269 0.62542 1.01251 0.0
C226 C 0.19585 0.62377 0.89585 0.0
C227 C 0.16 0.62449 0.90457 0.0
C228 C 0.1455 0.61858 0.96507 0.0
C229 C 0.21322 0.65022 0.99793 0.0
C230 C 0.22314 0.65533 0.93507 0.0
C231 C 0.159 0.60575 1.07262 0.0
H232 H 0.92966 0.63177 0.38712 0.0
H233 H -0.02684 0.61609 0.32739 0.0
H234 H 0.95264 0.66979 1.16706 0.0
H235 H 0.90947 0.68619 0.2272 0.0
H236 H 0.13995 0.62008 0.86723 0.0
H237 H 0.11409 0.60635 0.97366 0.0
H238 H 0.23594 0.66388 1.03282 0.0
H239 H 0.2531 0.67724 0.9206 0.0
Tb240 Tb 0.88624 0.52335 0.66169 0.0
Eu241 Eu 0.8295 0.44141 0.7266 0.0
C242 C 0.79569 0.49975 0.67873 0.0
C243 C 0.90703 0.51803 0.80768 0.0
C244 C 0.9282 0.62249 0.58852 0.0
C245 C 0.88608 0.65211 0.57847 0.0
C246 C 0.89786 0.62854 0.61144 0.0
C247 C 0.94974 0.64402 0.53669 0.0
C248 C 0.93815 0.66768 0.5041 0.0
C249 C 0.90411 0.66917 0.52195 0.0
C250 C 0.93467 0.59098 0.61454 0.0
O251 O 0.9056 0.48538 0.70459 0.0
O252 O 0.8692 0.42165 0.6885 0.0
O253 O 0.82823 0.4195 0.62002 0.0
O254 O 0.87094 0.48169 0.57718 0.0
C255 C 0.90356 0.45404 0.68059 0.0
O256 O 0.81893 0.41543 0.81989 0.0
O257 O 0.77042 0.39188 0.75534 0.0
O258 O 0.7901 0.46401 0.69139 0.0
O259 O 0.83281 0.52975 0.67446 0.0
O260 O 0.91765 0.53899 0.75485 0.0
O261 O 0.87365 0.48199 0.80646 0.0
C262 C 0.84775 0.44136 0.56833 0.0
O263 O 0.92785 0.58459 0.67304 0.0
O264 O 0.91901 0.55724 0.58425 0.0
C265 C 0.75746 0.40889 0.8549 0.0
C266 C 0.69937 0.45187 0.92172 0.0
C267 C 0.75491 0.47205 0.94977 0.0
C268 C 0.78246 0.45047 0.91151 0.0
C269 C 0.70626 0.38841 0.83236 0.0
C270 C 0.67494 0.40594 0.86193 0.0
C271 C 0.78038 0.39656 0.81346 0.0
H272 H 0.86116 0.65451 0.59484 0.0
H273 H 0.88169 0.61318 0.65282 0.0
H274 H -0.0262 0.64046 0.51917 0.0
H275 H 0.95374 0.68185 0.46182 0.0
H276 H 0.76945 0.49664 0.98171 0.0
H277 H 0.81382 0.46296 0.92111 0.0
H278 H 0.69389 0.36484 0.79853 0.0
H279 H 0.64396 0.39187 0.84876 0.0
Tb280 Tb 0.31739 0.89088 0.93874 0.0
Eu281 Eu 0.32411 0.82538 0.98197 0.0
C282 C 0.2447 0.81051 0.98736 0.0
C283 C 0.34833 0.90865 1.0787 0.0
C284 C 0.27185 0.9548 0.87728 0.0
C285 C 0.23332 -0.01175 0.8843 0.0
C286 C 0.24869 0.96604 0.91175 0.0
C287 C 0.27967 0.96562 0.81553 0.0
C288 C 0.26442 -0.01224 0.78821 0.0
C289 C 0.24144 -0.00054 0.82245 0.0
C290 C 0.28664 0.93085 0.90625 0.0
O291 O 0.37663 0.90998 0.90568 0.0
O292 O 0.38731 0.86422 0.95746 0.0
O293 O 0.33781 0.81927 0.87676 0.0
O294 O 0.32998 0.87072 0.84333 0.0
C295 C 0.39888 0.89398 0.91814 0.0
O296 O 0.3297 0.77188 0.98414 0.0
O297 O 0.30202 0.784 1.06029 0.0
O298 O 0.26127 0.79803 0.94959 0.0
O299 O 0.26897 0.84796 1.00327 0.0
O300 O 0.34694 0.9253 1.02558 0.0
O301 O 0.33947 0.86977 1.07206 0.0
C302 C 0.34004 0.84264 0.82886 0.0
O303 O 0.27023 0.89225 0.89468 0.0
O304 O 0.32255 0.9478 0.92932 0.0
C305 C 0.34789 0.76512 1.08214 0.0
C306 C 0.40854 0.77197 1.15746 0.0
C307 C 0.41658 0.80087 1.11123 0.0
C308 C 0.38647 0.79803 1.07523 0.0
C309 C 0.33877 0.73641 1.12888 0.0
C310 C 0.36925 0.73983 1.16691 0.0
C311 C 0.31809 0.76359 1.04115 0.0
H312 H 0.2153 -0.00332 0.91098 0.0
H313 H 0.24233 0.9574 0.95969 0.0
H314 H 0.29725 0.95675 0.78855 0.0
H315 H 0.27023 -0.00457 0.74001 0.0
H316 H 0.44668 0.82481 1.10088 0.0
H317 H 0.3938 0.82094 1.04023 0.0
H318 H 0.30866 0.71122 1.13486 0.0
H319 H 0.36278 0.71647 1.2008 0.0
Tb320 Tb 0.40774 0.34024 0.2548 0.0
Eu321 Eu 0.48463 0.35965 0.28693 0.0
C322 C 0.42821 0.27533 0.28765 0.0
C323 C 0.4232 0.36903 0.39408 0.0
C324 C 0.30112 0.27695 1.18879 0.0
C325 C 0.23351 0.22143 1.17416 0.0
C326 C 0.26622 0.2435 0.21217 0.0
C327 C 0.30311 0.28891 1.12766 0.0
C328 C 0.27038 0.26702 1.08978 0.0
C329 C 0.23557 0.23305 1.11271 0.0
C330 C 0.33624 0.29499 0.2274 0.0
O331 O 0.43705 0.40355 0.2325 0.0
O332 O 0.49175 0.41955 0.28862 0.0
O333 O 0.50398 0.38441 1.18623 0.0
O334 O 0.44041 0.363 1.15837 0.0
C335 C 0.47135 0.43069 0.25499 0.0
O336 O 0.54676 0.38906 0.31547 0.0
O337 O 0.51077 0.32367 0.3147 0.0
O338 O 0.45318 0.29763 0.24565 0.0
O339 O 0.4133 0.29506 0.31428 0.0
O340 O 0.40066 0.3638 0.34538 0.0
O341 O 0.45479 0.36438 0.38288 0.0
C342 C 0.4797 0.38226 1.14145 0.0
O343 O 0.36436 0.28708 0.21441 0.0
O344 O 0.34967 0.33113 0.24951 0.0
C345 C 0.54634 0.35196 0.40137 0.0
C346 C 0.5768 0.36945 0.51517 0.0
C347 C 0.54288 0.37245 0.50202 0.0
C348 C 0.53424 0.37228 0.44062 0.0
C349 C 0.55733 0.3256 0.42858 0.0
C350 C 0.56964 0.33263 0.49032 0.0
C351 C 0.54219 0.3548 0.33604 0.0
H352 H 0.2071 0.19503 1.19216 0.0
H353 H 0.2648 0.23364 0.25934 0.0
H354 H 0.3302 0.31418 1.10894 0.0
H355 H 0.27266 0.27588 1.04202 0.0
H356 H 0.5291 0.38238 0.535 0.0
H357 H 0.51927 0.38777 0.42481 0.0
H358 H 0.55829 0.30225 0.40309 0.0
H359 H 0.58048 0.31484 0.51283 0.0
Tb360 Tb 0.05305 0.42793 0.65707 0.0
Eu361 Eu 0.08298 0.51033 0.69936 0.0
C362 C 0.13891 0.47146 0.70091 0.0
C363 C 0.0142 0.43394 0.79195 0.0
C364 C 0.02262 0.32782 0.57945 0.0
C365 C 0.01345 0.26408 0.5441 0.0
C366 C 0.02956 0.29554 0.58592 0.0
C367 C -0.00071 0.32854 0.53109 0.0
C368 C -0.01686 0.29704 0.48931 0.0
C369 C -0.00981 0.26475 0.49572 0.0
C370 C 0.03822 0.35883 0.62614 0.0
O371 O 0.0103 0.43617 0.60899 0.0
O372 O 0.03324 0.50243 0.63489 0.0
O373 O 0.08787 0.53056 0.59705 0.0
O374 O 0.07754 0.46952 0.56589 0.0
C375 C 0.01036 0.46989 0.60129 0.0
O376 O 0.08712 0.54961 0.77572 0.0
O377 O 0.13696 0.56903 0.71441 0.0
O378 O 0.13727 0.50279 0.68211 0.0
O379 O 0.10419 0.44062 0.71377 0.0
O380 O 0.01714 0.41074 0.74901 0.0
O381 O 0.0355 0.47339 0.7794 0.0
C382 C 0.08617 0.50801 0.54972 0.0
O383 O 0.07225 0.39174 0.6151 0.0
O384 O 0.01253 0.36598 0.65285 0.0
C385 C 0.14932 0.56401 0.81961 0.0
C386 C 0.19435 0.52355 0.92816 0.0
C387 C 0.14902 0.52793 0.95371 0.0
C388 C 0.12687 0.54578 0.89679 0.0
C389 C 0.19385 0.56331 0.79579 0.0
C390 C 0.21865 0.54484 0.84588 0.0
C391 C 0.12594 0.57033 0.77027 0.0
H392 H 0.01923 0.23943 0.54918 0.0
H393 H 0.04729 0.29461 0.62359 0.0
H394 H -0.00651 0.35318 0.52595 0.0
H395 H -0.03467 0.29789 0.45169 0.0
H396 H 0.13383 0.51473 0.99663 0.0
H397 H 0.09858 0.54334 0.90716 0.0
H398 H 0.20547 0.57357 0.75011 0.0
H399 H 0.2441 0.54318 0.83089 0.0
Tb400 Tb 0.587 0.07192 0.95976 0.0
Eu401 Eu 0.53976 0.10972 1.01191 0.0
C402 C 0.63755 0.16112 1.01124 0.0
C403 C 0.55111 0.04392 1.10586 0.0
C404 C 0.65867 0.05027 0.87923 0.0
C405 C 0.7245 0.06053 0.85748 0.0
C406 C 0.69506 0.05499 0.89964 0.0
C407 C 0.65266 0.05284 0.8165 0.0
C408 C 0.68163 0.05783 0.77469 0.0
C409 C 0.71745 0.06059 0.7944 0.0
C410 C 0.62676 0.04105 0.92343 0.0
O411 O 0.53187 0.0253 0.99268 0.0
O412 O 0.49282 0.05147 0.97392 0.0
O413 O 0.52844 0.11117 0.90188 0.0
O414 O 0.55857 0.07766 0.86784 0.0
C415 C 0.49786 0.02061 0.97709 0.0
O416 O 0.50217 0.11642 1.08049 0.0
O417 O 0.52895 0.15946 1.00555 0.0
O418 O 0.60454 0.15419 1.03795 0.0
O419 O 0.63551 0.1356 0.96981 0.0
O420 O 0.5732 0.04346 1.05834 0.0
O421 O 0.53579 0.06808 1.09746 0.0
C422 C 0.53624 0.09457 0.85322 0.0
O423 O 0.63677 0.06504 0.97014 0.0
O424 O 0.592 0.03202 0.90131 0.0
C425 C 0.52567 0.18596 1.09999 0.0
C426 C 0.56423 0.28322 1.18064 0.0
C427 C 0.60141 0.26904 1.14402 0.0
C428 C 0.57994 0.22117 1.10325 0.0
C429 C 0.49015 0.19694 1.1374 0.0
C430 C 0.5064 0.24333 1.17993 0.0
C431 C 0.5102 0.15138 1.05794 0.0
H432 H 0.75215 0.06384 0.87426 0.0
H433 H 0.70034 0.05351 0.94814 0.0
H434 H 0.62511 0.04973 0.79932 0.0
H435 H 0.67506 0.0578 0.72646 0.0
H436 H 0.63308 0.29049 1.14213 0.0
H437 H 0.59955 0.21364 1.07998 0.0
H438 H 0.45864 0.17639 1.13115 0.0
H439 H 0.48504 0.25088 1.19715 0.0
Tb440 Tb 0.52497 0.633 0.25213 0.0
Eu441 Eu 0.45275 0.56604 0.27941 0.0
C442 C 0.47472 0.64943 0.33695 0.0
C443 C 0.52094 0.58281 0.38181 0.0
C444 C 0.59129 0.73115 1.176 0.0
C445 C 0.63372 0.79632 1.12683 0.0
C446 C 0.61544 0.77331 1.17975 0.0
C447 C 0.58508 0.71202 1.11986 0.0
C448 C 0.60309 0.73472 1.06766 0.0
C449 C 0.62778 0.77692 1.07053 0.0
C450 C 0.57184 0.70673 0.23001 0.0
O451 O 0.55271 0.60523 1.21064 0.0
O452 O 0.49218 0.54839 0.22545 0.0
O453 O 0.43853 0.54958 1.17882 0.0
O454 O 0.49071 0.61001 1.15428 0.0
C455 C 0.52878 0.56746 1.20147 0.0
O456 O 0.4182 0.50707 0.32189 0.0
O457 O 0.38848 0.53678 0.27925 0.0
O458 O 0.44823 0.62365 0.29853 0.0
O459 O 0.50524 0.64471 0.33981 0.0
O460 O 0.5442 0.6099 0.33804 0.0
O461 O 0.48239 0.56369 0.3703 0.0
C462 C 0.45829 0.57465 1.13402 0.0
O463 O 0.53294 0.68985 0.23055 0.0
O464 O 0.58355 0.6815 0.24606 0.0
C465 C 0.35997 0.49697 0.36626 0.0
C466 C 0.30704 0.476 0.46408 0.0
C467 C 0.30225 0.4474 0.41946 0.0
C468 C 0.3285 0.45777 0.37151 0.0
C469 C 0.36646 0.52591 0.41066 0.0
C470 C 0.3396 0.51558 0.45945 0.0
C471 C 0.38486 0.50668 0.31288 0.0
H472 H 0.65259 0.82878 1.12984 0.0
H473 H 0.62011 0.78823 0.22333 0.0
H474 H 0.56633 0.67952 1.11648 0.0
H475 H 0.5979 0.71919 1.02477 0.0
H476 H 0.2767 0.41715 0.41947 0.0
H477 H 0.32343 0.43538 0.33736 0.0
H478 H 0.39156 0.55642 0.40662 0.0
H479 H 0.34344 0.53835 0.49188 0.0
C480 C 0.44748 0.20485 0.39638 0.0
C481 C 0.44095 0.17315 0.35588 0.0
C482 C 0.41869 0.20484 0.27648 0.0
C483 C 0.42924 0.23867 0.31447 0.0
N484 N 0.45564 0.27131 0.41121 0.0
N485 N 0.42164 0.14426 0.25569 0.0
C486 C 0.444 0.23862 0.37467 0.0
C487 C 0.42675 0.17362 0.29556 0.0
N488 N 0.4546 0.20159 0.45699 0.0
N489 N 0.39982 0.20212 0.22221 0.0
H490 H 0.41297 0.14272 1.21032 0.0
H491 H 0.42869 0.12223 0.26688 0.0
H492 H 0.39331 0.22398 1.20712 0.0
H493 H 0.38761 0.17702 1.19411 0.0
H494 H 0.45476 0.22054 0.49077 0.0
H495 H 0.45685 0.17766 0.47514 0.0
H496 H 0.47104 0.27582 0.45212 0.0
H497 H 0.45237 0.29567 0.39894 0.0
C498 C 0.21113 0.44346 0.77893 0.0
C499 C 0.24983 0.47563 0.76322 0.0
C500 C 0.21713 0.50726 0.70568 0.0
C501 C 0.17822 0.47256 0.71701 0.0
N502 N 0.14435 0.40105 0.74267 0.0
N503 N 0.28779 0.54535 0.73239 0.0
C504 C 0.17689 0.43889 0.7478 0.0
C505 C 0.2524 0.50962 0.73223 0.0
N506 N 0.20678 0.41743 0.82549 0.0
N507 N 0.22141 0.53609 0.66408 0.0
H508 H 0.31261 0.54898 0.75607 0.0
H509 H 0.29106 0.57257 0.71678 0.0
H510 H 0.19833 0.5332 0.63652 0.0
H511 H 0.24892 0.55989 0.64962 0.0
H512 H 0.1791 0.39445 0.84117 0.0
H513 H 0.23051 0.42249 0.85378 0.0
H514 H 0.14287 0.37549 0.76242 0.0
H515 H 0.12258 0.39366 0.70948 0.0
C516 C 0.71601 0.27068 1.0603 0.0
C517 C 0.74977 0.26761 1.07686 0.0
C518 C 0.71069 0.19475 1.04927 0.0
C519 C 0.6776 0.19831 1.02956 0.0
N520 N 0.6556 0.24417 0.99928 0.0
N521 N 0.78211 0.22868 1.06805 0.0
C522 C 0.68232 0.23765 1.03025 0.0
C523 C 0.74785 0.23016 1.06557 0.0
N524 N 0.71509 0.30448 1.07553 0.0
N525 N 0.70641 0.15736 1.05546 0.0
H526 H 0.80981 0.25432 1.07589 0.0
H527 H 0.7837 0.20355 1.05505 0.0
H528 H 0.72794 0.15252 1.07569 0.0
H529 H 0.6799 0.13081 1.04591 0.0
H530 H 0.68948 0.30644 1.07165 0.0
H531 H 0.73891 0.32905 1.09688 0.0
H532 H 0.65956 0.27279 0.99251 0.0
H533 H 0.63165 0.22146 0.97525 0.0
C534 C 0.50865 0.72159 0.38709 0.0
C535 C 0.47298 0.68386 0.3721 0.0
C536 C 0.43476 0.71225 0.42293 0.0
C537 C 0.46991 0.75118 0.42957 0.0
N538 N 0.53967 0.78164 0.45014 0.0
N539 N 0.40103 0.64505 0.37914 0.0
C540 C 0.50665 0.75263 0.42078 0.0
C541 C 0.43587 0.67988 0.39115 0.0
N542 N 0.54521 0.72989 0.36668 0.0
N543 N 0.40088 0.70443 0.45339 0.0
H544 H 0.39966 0.61859 0.36546 0.0
H545 H 0.37322 0.64275 0.38084 0.0
H546 H 0.40051 0.72433 0.48501 0.0
H547 H 0.37497 0.67623 0.45533 0.0
H548 H 0.57029 0.75877 0.36756 0.0
H549 H 0.55104 0.70981 0.34479 0.0
H550 H 0.5666 0.782 0.4517 0.0
H551 H 0.5385 0.80142 0.48109 0.0
C552 C 0.72887 0.54758 0.70628 0.0
C553 C 0.69241 0.51316 0.72736 0.0
C554 C 0.72068 0.47019 0.69648 0.0
C555 C 0.75838 0.50471 0.6814 0.0
N556 N 0.7913 0.5741 0.64895 0.0
N557 N 0.65906 0.4418 0.75314 0.0
C558 C 0.76051 0.54288 0.67998 0.0
C559 C 0.69007 0.47461 0.72529 0.0
N560 N 0.73482 0.58528 0.71584 0.0
N561 N 0.71447 0.43258 0.68443 0.0
H562 H 0.64619 0.44404 0.79333 0.0
H563 H 0.64987 0.41192 0.74407 0.0
H564 H 0.72942 0.42777 0.64896 0.0
H565 H 0.69307 0.40572 0.70491 0.0
H566 H 0.76189 0.61173 0.70787 0.0
H567 H 0.71424 0.59024 0.73858 0.0
H568 H 0.79347 0.6019 0.64103 0.0
H569 H 0.81135 0.57 0.62299 0.0
C570 C 0.20687 0.77688 1.0888 0.0
C571 C 0.20763 0.77984 1.02333 0.0
C572 C 0.14276 0.71504 1.02202 0.0
C573 C 0.14115 0.71317 1.08755 0.0
N574 N 0.1674 0.74895 1.1817 0.0
N575 N 0.17071 0.756 0.92952 0.0
C576 C 0.17192 0.74621 1.12016 0.0
C577 C 0.17378 0.75018 0.99077 0.0
N578 N 0.24017 0.80157 1.12181 0.0
N579 N 0.11614 0.68258 0.9888 0.0
H580 H 0.19219 0.78134 0.90533 0.0
H581 H 0.14508 0.73809 0.90417 0.0
H582 H 0.09293 0.65645 1.00827 0.0
H583 H 0.11905 0.68012 0.94185 0.0
H584 H 0.24303 0.79702 1.16828 0.0
H585 H 0.26641 0.82439 1.10246 0.0
H586 H 0.18645 0.7743 1.20714 0.0
H587 H 0.14214 0.72784 1.20605 0.0
C588 C 0.57428 0.28786 0.24631 0.0
C589 C 0.57393 0.31518 1.18855 0.0
C590 C 0.54388 0.25355 1.09407 0.0
C591 C 0.54762 0.2178 1.19391 0.0
N592 N 0.55333 0.22265 0.31305 0.0
N593 N 0.55799 0.32723 1.08131 0.0
C594 C 0.55941 0.24015 0.25629 0.0
C595 C 0.55955 0.29968 1.1193 0.0
N596 N 0.59323 0.31132 0.29567 0.0
N597 N 0.53471 0.24532 1.03261 0.0
H598 H 0.56565 0.35563 1.09789 0.0
H599 H 0.54698 0.32105 1.03688 0.0
H600 H 0.51926 0.2176 1.0112 0.0
H601 H 0.54193 0.26861 1.00121 0.0
H602 H 0.60183 0.3007 0.33337 0.0
H603 H 0.60411 0.34238 0.2943 0.0
H604 H 0.55853 0.23927 0.35282 0.0
H605 H 0.53891 0.19159 0.32041 0.0
C606 C 0.25748 0.42892 0.61765 0.0
C607 C 0.27271 0.46247 0.51037 0.0
C608 C 0.19572 0.41976 0.48758 0.0
C609 C 0.18081 0.3927 0.5493 0.0
N610 N 0.18818 0.37248 0.65803 0.0
N611 N 0.24415 0.48048 0.41586 0.0
C612 C 0.20832 0.39742 0.60979 0.0
C613 C 0.23879 0.45642 0.46574 0.0
N614 N 0.27701 0.41827 0.65962 0.0
N615 N 0.16522 0.40909 0.44732 0.0
H616 H 0.27165 0.50592 0.40539 0.0
H617 H 0.22067 0.47702 0.38869 0.0
H618 H 0.13624 0.38633 0.45864 0.0
H619 H 0.169 0.42101 0.40316 0.0
H620 H 0.26194 0.3894 0.67881 0.0
H621 H 0.30693 0.43473 0.67097 0.0
H622 H 0.20164 0.37435 0.70016 0.0
H623 H 0.15769 0.35173 0.65465 0.0
C624 C 0.73876 0.45766 0.84927 0.0
C625 C 0.71604 0.40401 0.93593 0.0
C626 C 0.66467 0.42432 0.97507 0.0
C627 C 0.67954 0.46329 0.93444 0.0
N628 N 0.72106 0.51575 0.85171 0.0
N629 N 0.65705 0.35502 1.00365 0.0
C630 C 0.71207 0.47888 0.8754 0.0
C631 C 0.67773 0.39138 0.97444 0.0
N632 N 0.77215 0.48006 0.81286 0.0
N633 N 0.63658 0.41902 1.01691 0.0
H634 H 0.66583 0.33376 0.99899 0.0
H635 H 0.63039 0.34566 1.02686 0.0
H636 H 0.62576 0.43895 1.01855 0.0
H637 H 0.62701 0.39729 1.05162 0.0
H638 H 0.79434 0.47343 0.80288 0.0
H639 H 0.77945 0.5085 0.79687 0.0
H640 H 0.74441 0.53233 0.82135 0.0
H641 H 0.70593 0.52989 0.86746 0.0
C642 C 0.45773 0.75409 1.13366 0.0
C643 C 0.44437 0.77209 1.18584 0.0
C644 C 0.52882 0.8041 0.26126 0.0
C645 C 0.53575 0.7862 1.19803 0.0
N646 N 0.51953 0.7548 1.09611 0.0
N647 N 0.49168 0.83183 0.32564 0.0
C648 C 0.50351 0.76486 1.14344 0.0
C649 C 0.48817 0.80541 0.28069 0.0
N650 N 0.43452 0.73118 1.08633 0.0
N651 N 0.55991 0.81884 0.3012 0.0
H652 H 0.47046 0.83842 0.34069 0.0
H653 H 0.51955 0.85109 0.34419 0.0
H654 H 0.58595 0.81886 0.28971 0.0
H655 H 0.5586 0.82845 0.34503 0.0
H656 H 0.44422 0.71795 1.0548 0.0
H657 H 0.40475 0.72279 1.0807 0.0
H658 H 0.50544 0.74351 1.05451 0.0
H659 H 0.54881 0.76095 1.09833 0.0
C660 C 0.65648 0.47859 0.56476 0.0
C661 C 0.61974 0.41021 0.50612 0.0
C662 C 0.67861 0.44697 0.42678 0.0
C663 C 0.70455 0.492 0.45703 0.0
N664 N 0.72189 0.54504 0.53575 0.0
N665 N 0.642 0.37023 0.4372 0.0
C666 C 0.69512 0.50636 0.52023 0.0
C667 C 0.63984 0.40384 0.44796 0.0
N668 N 0.64866 0.49719 0.61183 0.0
N669 N 0.6942 0.44567 0.3713 0.0
H670 H 0.63956 0.35108 0.47327 0.0
H671 H 0.65693 0.36809 0.39921 0.0
H672 H 0.71983 0.47094 0.35387 0.0
H673 H 0.67989 0.42106 0.34218 0.0
H674 H 0.66548 0.52826 0.6169 0.0
H675 H 0.62589 0.48444 0.6438 0.0
H676 H 0.72114 0.55833 0.57648 0.0
H677 H 0.74553 0.56298 0.5062 0.0
C678 C 0.15128 0.50794 0.85625 0.0
C679 C 0.19636 0.58135 0.89703 0.0
C680 C 0.22894 0.54938 0.9665 0.0
C681 C 0.20124 0.50163 0.95005 0.0
N682 N 0.14932 0.44191 0.89214 0.0
N683 N 0.27032 0.62272 0.92863 0.0
C684 C 0.16676 0.48261 0.89862 0.0
C685 C 0.23298 0.59092 0.93919 0.0
N686 N 0.11702 0.48645 0.82251 0.0
N687 N 0.25565 0.55539 1.01169 0.0
H688 H 0.27656 0.64061 0.88919 0.0
H689 H 0.29508 0.62543 0.95152 0.0
H690 H 0.25683 0.53109 1.03141 0.0
H691 H 0.27404 0.58369 1.03078 0.0
H692 H 0.10071 0.45522 0.82482 0.0
H693 H 0.10418 0.49724 0.79245 0.0
H694 H 0.12829 0.4254 0.85891 0.0
H695 H 0.15791 0.42556 0.92045 0.0
C696 C 0.37051 0.92317 1.20239 0.0
C697 C 0.35896 0.93429 1.14491 0.0
C698 C 0.37262 -0.00239 1.20783 0.0
C699 C 0.38056 -0.01531 0.26606 0.0
N700 N 0.37702 0.92683 0.31533 0.0
N701 N 0.33868 -0.01894 1.10863 0.0
C702 C 0.37617 0.94491 0.26166 0.0
C703 C 0.3575 0.97137 1.15258 0.0
N704 N 0.37892 0.89283 1.20086 0.0
N705 N 0.37998 0.03621 1.20406 0.0
H706 H 0.32324 0.96221 1.07245 0.0
H707 H 0.33316 0.00475 1.11293 0.0
H708 H 0.3885 0.05485 0.24213 0.0
H709 H 0.3807 0.0504 1.16266 0.0
H710 H 0.39208 0.88624 0.23732 0.0
H711 H 0.37721 0.87747 1.16104 0.0
H712 H 0.36995 0.89683 0.31843 0.0
H713 H 0.38156 0.94111 0.35745 0.0
C714 C 0.43993 0.41107 0.50051 0.0
C715 C 0.41181 0.37929 0.46138 0.0
C716 C 0.36017 0.37002 0.54424 0.0
C717 C 0.38878 0.40112 0.58474 0.0
N718 N 0.45962 0.43929 0.60313 0.0
N719 N 0.34488 0.32288 0.45896 0.0
C720 C 0.42953 0.4182 0.56265 0.0
C721 C 0.37195 0.35763 0.48724 0.0
N722 N 0.47733 0.4362 0.47785 0.0
N723 N 0.32068 0.35182 0.55894 0.0
H724 H 0.35179 0.31235 0.41979 0.0
H725 H 0.31717 0.30224 0.4776 0.0
H726 H 0.31022 0.3567 0.59973 0.0
H727 H 0.29793 0.33422 0.52849 0.0
H728 H 0.49799 0.46277 0.49934 0.0
H729 H 0.48627 0.43247 0.43465 0.0
H730 H 0.4894 0.44914 0.5935 0.0
H731 H 0.45432 0.44181 0.64911 0.0
C732 C 0.95165 0.41973 0.86589 0.0
C733 C -0.01365 0.41622 0.85504 0.0
C734 C -0.03064 0.38196 0.96352 0.0
C735 C 0.93676 0.38892 0.97643 0.0
N736 N 0.90225 0.42097 0.9341 0.0
N737 N 0.02727 0.39309 0.90095 0.0
C738 C 0.92998 0.40979 0.92569 0.0
C739 C -0.00563 0.39675 0.90622 0.0
N740 N 0.93709 0.43038 0.81673 0.0
N741 N -0.02314 0.36081 1.00683 0.0
H742 H 0.04365 0.40026 0.86035 0.0
H743 H 0.03945 0.38486 0.93681 0.0
H744 H -0.03874 0.35156 1.04828 0.0
H745 H -0.00352 0.35028 1.00072 0.0
H746 H 0.90961 0.42886 0.81669 0.0
H747 H 0.951 0.43721 0.77385 0.0
H748 H 0.89934 0.44107 0.90515 0.0
H749 H 0.88358 0.41191 0.97217 0.0
C750 C 0.5471 0.96359 0.23841 0.0
C751 C 0.51283 0.95356 0.27661 0.0
C752 C 0.50196 -0.00178 1.19925 0.0
C753 C 0.53869 0.01267 1.16537 0.0
N754 N 0.59962 0.01059 1.16694 0.0
N755 N 0.46656 0.97539 0.29683 0.0
C756 C 0.56192 -0.00457 1.18917 0.0
C757 C 0.49308 0.97488 0.25735 0.0
N758 N 0.56532 0.94161 0.24707 0.0
N759 N 0.47324 0.00441 1.17464 0.0
H760 H 0.46055 0.96208 0.34037 0.0
H761 H 0.45531 -0.00581 0.2887 0.0
H762 H 0.47496 0.01602 1.13076 0.0
H763 H 0.44511 -0.00742 1.19398 0.0
H764 H 0.58704 0.94319 0.21749 0.0
H765 H 0.55581 0.91891 0.28047 0.0
H766 H 0.61978 0.00314 1.18546 0.0
H767 H 0.61222 0.034 1.13465 0.0
C768 C 0.52105 0.54948 0.55841 0.0
C769 C 0.55615 0.54633 0.56625 0.0
C770 C 0.57003 0.56815 0.4528 0.0
C771 C 0.53589 0.57326 0.44617 0.0
N772 N 0.48606 0.5784 0.50409 0.0
N773 N 0.61732 0.56004 0.5182 0.0
C774 C 0.51354 0.56632 0.50234 0.0
C775 C 0.58124 0.55759 0.51226 0.0
N776 N 0.49306 0.53459 0.60405 0.0
N777 N 0.59187 0.57254 0.40151 0.0
H778 H 0.62676 0.55369 0.55935 0.0
H779 H 0.63945 0.5718 0.48465 0.0
H780 H 0.58558 0.58059 0.35902 0.0
H781 H 0.61422 0.56531 0.39964 0.0
H782 H 0.46473 0.53076 0.59909 0.0
H783 H 0.49644 0.52199 0.64453 0.0
H784 H 0.47171 0.5787 0.54413 0.0
H785 H 0.48132 0.59305 0.46739 0.0
C786 C 0.95541 0.56582 0.97132 0.0
C787 C -0.01164 0.55875 0.97969 0.0
C788 C -0.02888 0.53021 0.87167 0.0
C789 C 0.93538 0.53253 0.86707 0.0
N790 N 0.89141 0.54726 0.92302 0.0
N791 N 0.01953 0.52423 0.93593 0.0
C792 C 0.92697 0.54841 0.92041 0.0
C793 C -0.00603 0.53843 0.92893 0.0
N794 N 0.95246 0.59208 1.00945 0.0
N795 N -0.01593 0.52023 0.82064 0.0
H796 H 0.03508 0.52734 0.97631 0.0
H797 H 0.02187 0.50544 0.90429 0.0
H798 H -0.03227 0.5116 0.78027 0.0
H799 H 0.01215 0.52331 0.81747 0.0
H800 H 0.9318 0.60139 1.00313 0.0
H801 H -0.02598 0.60901 1.0419 0.0
H802 H 0.88082 0.5535 0.96275 0.0
H803 H 0.87106 0.53665 0.88699 0.0
C804 C 0.3635 0.94035 0.5568 0.0
C805 C 0.39726 -0.02241 0.56706 0.0
C806 C 0.43769 0.94832 0.57464 0.0
C807 C 0.41109 0.92003 0.53004 0.0
N808 N 0.34 0.87946 0.4999 0.0
N809 N 0.44179 -0.00372 0.65025 0.0
C810 C 0.37041 0.91155 0.52909 0.0
C811 C 0.42719 0.97556 0.5977 0.0
N812 N 0.32673 0.93519 0.56666 0.0
N813 N 0.47138 0.94938 0.59476 0.0
H814 H 0.42947 0.01251 0.66862 0.0
H815 H 0.46396 -0.00451 0.67577 0.0
H816 H 0.47769 0.92669 0.58702 0.0
H817 H 0.49275 0.97279 0.62121 0.0
H818 H 0.30047 0.90747 0.56204 0.0
H819 H 0.32374 0.95883 0.58366 0.0
H820 H 0.31254 0.87721 0.49205 0.0
H821 H 0.34073 0.85425 0.48553 0.0
C822 C 0.4111 0.3765 0.81463 0.0
C823 C 0.39728 0.39328 0.8566 0.0
C824 C 0.46139 0.44871 0.87727 0.0
C825 C 0.47286 0.44134 0.81836 0.0
N826 N 0.46765 0.38525 0.75735 0.0
N827 N 0.4109 0.41846 0.95785 0.0
C828 C 0.4509 0.40074 0.79507 0.0
C829 C 0.42374 0.41919 0.89968 0.0
N830 N 0.38442 0.34119 0.78763 0.0
N831 N 0.48367 0.48303 0.90992 0.0
H832 H 0.38156 0.39756 0.97073 0.0
H833 H 0.42985 0.4359 0.99291 0.0
H834 H 0.51324 0.5045 0.90172 0.0
H835 H 0.47191 0.49008 0.94726 0.0
H836 H 0.39096 0.32898 0.75021 0.0
H837 H 0.35482 0.32514 0.80281 0.0
H838 H 0.45246 0.35569 0.74179 0.0
H839 H 0.49797 0.39953 0.74803 0.0
C840 C -0.00241 0.41229 0.22567 0.0
C841 C -0.03358 0.40248 0.26582 0.0
C842 C -0.01233 0.47188 0.28084 0.0
C843 C 0.00568 0.47896 0.22092 0.0
N844 N 0.02768 0.45355 1.1361 0.0
N845 N 0.94849 0.42015 0.3584 0.0
C846 C 0.01234 0.4491 1.19387 0.0
C847 C -0.03072 0.43206 0.30471 0.0
N848 N 0.00684 0.3838 1.21062 0.0
N849 N -0.01273 0.50172 0.31353 0.0
H850 H 0.93311 0.38964 0.37138 0.0
H851 H 0.94656 0.43946 0.38931 0.0
H852 H -0.0026 0.53063 0.29694 0.0
H853 H -0.02298 0.49817 0.35841 0.0
H854 H 0.03045 0.38978 1.18144 0.0
H855 H -0.0078 0.35533 0.23192 0.0
H856 H 0.03005 0.43079 1.11458 0.0
H857 H 0.03364 0.47767 1.10691 0.0
C858 C -0.02046 0.50288 0.55363 0.0
C859 C -0.01361 0.47128 0.54877 0.0
C860 C 0.92407 0.42544 0.59321 0.0
C861 C 0.92878 0.45959 0.62752 0.0
N862 N -0.02943 0.53454 0.63868 0.0
N863 N 0.94858 0.40646 0.50402 0.0
C864 C 0.95733 0.50023 0.60544 0.0
C865 C 0.95121 0.43431 0.54433 0.0
N866 N -0.001 0.53631 0.51737 0.0
N867 N 0.90035 0.38628 0.61214 0.0
H868 H -0.02765 0.41325 0.47454 0.0
H869 H 0.92253 0.37872 0.49802 0.0
H870 H 0.89923 0.36219 0.58899 0.0
H871 H 0.88565 0.37747 0.65406 0.0
H872 H -0.00582 0.56057 0.52095 0.0
H873 H 0.01694 0.5372 0.48121 0.0
H874 H -0.0075 0.56272 0.62183 0.0
H875 H -0.03307 0.53504 0.68551 0.0
C876 C 0.46544 0.91649 0.93444 0.0
C877 C 0.43841 0.91127 0.8892 0.0
C878 C 0.45811 -0.01921 0.88839 0.0
C879 C 0.47171 -0.01799 0.94975 0.0
N880 N 0.48525 0.94748 1.03305 0.0
N881 N 0.44066 0.9429 0.79363 0.0
C882 C 0.47541 0.94896 0.97343 0.0
C883 C 0.4477 0.94574 0.85472 0.0
N884 N 0.47494 0.88756 0.94575 0.0
N885 N 0.4519 0.01012 0.86455 0.0
H886 H 0.43128 0.91591 0.77089 0.0
H887 H 0.4471 0.96779 0.76639 0.0
H888 H 0.45295 0.03301 0.89063 0.0
H889 H 0.44026 0.00857 0.82097 0.0
H890 H 0.49541 0.89063 0.97926 0.0
H891 H 0.46389 0.86222 0.91787 0.0
H892 H 0.48618 0.9229 1.05186 0.0
H893 H 0.48799 0.96886 1.06459 0.0
C894 C 0.51352 0.51397 1.13556 0.0
C895 C 0.54357 0.5441 1.17053 0.0
C896 C 0.5333 0.49821 0.25159 0.0
C897 C 0.4941 0.47141 0.22751 0.0
N898 N 0.44601 0.45919 1.14528 0.0
N899 N 0.59993 0.55406 0.22686 0.0
C900 C 0.48395 0.47955 1.16764 0.0
C901 C 0.56036 0.53116 0.21464 0.0
N902 N 0.51073 0.52112 1.07524 0.0
N903 N 0.54301 0.49501 0.3107 0.0
H904 H 0.61808 0.58018 1.20101 0.0
H905 H 0.6144 0.54537 0.25844 0.0
H906 H 0.52144 0.47834 0.34401 0.0
H907 H 0.57166 0.51234 0.32796 0.0
H908 H 0.48982 0.49901 1.04667 0.0
H909 H 0.53189 0.54826 1.05432 0.0
H910 H 0.43834 0.46621 1.10302 0.0
H911 H 0.42116 0.44086 1.17234 0.0
C912 C 0.25076 0.06544 0.78861 0.0
C913 C 0.22614 0.0229 0.79088 0.0
C914 C 0.20421 0.02328 0.68691 0.0
C915 C 0.23746 0.06273 0.67965 0.0
N916 N 0.28128 0.12621 0.72653 0.0
N917 N 0.1695 0.9636 0.7507 0.0
C918 C 0.25544 0.08576 0.73231 0.0
C919 C 0.19847 0.00308 0.74356 0.0
N920 N 0.27295 0.08649 0.83747 0.0
N921 N 0.1803 0.00303 0.63902 0.0
H922 H 0.16543 0.94818 0.7923 0.0
H923 H 0.14953 0.94734 0.71581 0.0
H924 H 0.18318 0.01614 0.59576 0.0
H925 H 0.18318 0.01614 0.59576 0.0
H926 H 0.27135 0.07309 0.8801 0.0
H927 H 0.27135 0.07309 0.8801 0.0
H928 H 0.29675 0.14415 0.76383 0.0
H929 H 0.2858 0.14107 0.68428 0.0
C930 C 0.17279 0.2197 1.06243 0.0
C931 C 0.20271 0.20941 1.06986 0.0
C932 C 0.19761 0.19136 0.96271 0.0
C933 C 0.17777 0.21302 0.95278 0.0
N934 N 0.13019 0.22925 0.99017 0.0
N935 N 0.23285 0.17217 1.03212 0.0
C936 C 0.15849 0.21929 1.00235 0.0
C937 C 0.21025 0.18944 1.02239 0.0
N938 N 0.16155 0.23355 1.11119 0.0
N939 N 0.2082 0.17662 0.91445 0.0
H940 H 0.24356 0.17045 1.07533 0.0
H941 H 0.24356 0.17045 1.07533 0.0
H942 H 0.19921 0.17798 0.86983 0.0
H943 H 0.22458 0.16211 0.91996 0.0
H944 H 0.14246 0.245 1.10803 0.0
H945 H 0.17179 0.23348 1.1554 0.0
H946 H 0.11392 0.23372 1.02372 0.0
H947 H 0.12167 0.23037 0.94505 0.0
C948 C 0.91441 0.17984 0.40107 0.0
C949 C 0.93137 0.19738 0.34373 0.0
C950 C -0.00519 0.24249 0.39193 0.0
C951 C -0.02539 0.23321 0.44881 0.0
N952 N 0.91797 0.18856 0.51156 0.0
N953 N -0.00867 0.23606 0.28324 0.0
C954 C 0.93553 0.19941 0.45504 0.0
C955 C -0.02712 0.22433 0.33874 0.0
N956 N 0.87692 0.14685 0.40261 0.0
N957 N 0.03433 0.27102 0.38797 0.0
H958 H -0.02325 0.22408 0.24192 0.0
H959 H -0.02325 0.22408 0.24192 0.0
H960 H 0.05148 0.28502 0.42662 0.0
H961 H 0.04977 0.27955 0.3463 0.0
H962 H 0.8624 0.13123 0.4425 0.0
H963 H 0.86168 0.13377 0.36207 0.0
H964 H 0.88831 0.1665 0.51898 0.0
H965 H 0.93349 0.20241 0.55147 0.0
C966 C 0.74967 0.08139 0.69422 0.0
C967 C 0.74355 0.05784 0.74747 0.0
C968 C 0.72116 -0.0019 0.68565 0.0
C969 C 0.71369 0.01869 0.63795 0.0
N970 N 0.73121 0.08298 0.59021 0.0
N971 N 0.74826 0.00215 0.78777 0.0
C972 C 0.73267 0.06139 0.63889 0.0
C973 C 0.73857 0.01908 0.74064 0.0
N974 N 0.76524 0.1219 0.69927 0.0
N975 N 0.70805 0.95796 0.67989 0.0
H976 H 0.76191 0.01834 0.82723 0.0
H977 H 0.74628 0.97416 0.78555 0.0
H978 H 0.69593 0.94293 0.63887 0.0
H979 H 0.70863 0.93978 0.71513 0.0
H980 H 0.76815 0.14034 0.66173 0.0
H981 H 0.77567 0.13617 0.74135 0.0
H982 H 0.71823 0.06993 0.54843 0.0
H983 H 0.71823 0.06993 0.54843 0.0
C984 C 0.68459 0.79838 1.00338 0.0
C985 C 0.64884 0.7983 1.01385 0.0
C986 C 0.62523 0.77108 0.91282 0.0
C987 C 0.65449 0.75953 0.91163 0.0
N988 N 0.71866 0.77177 0.94614 0.0
N989 N 0.59402 0.80115 0.9697 0.0
C990 C 0.68697 0.77735 0.9527 0.0
C991 C 0.62355 0.79233 0.96384 0.0
N992 N 0.71436 0.81373 1.04535 0.0
N993 N 0.59699 0.75951 0.86858 0.0
H994 H 0.59174 0.81519 1.00896 0.0
H995 H 0.57307 0.79509 0.9353 0.0
H996 H 0.59631 0.74339 0.82998 0.0
H997 H 0.59631 0.74339 0.82998 0.0
H998 H 0.71353 0.82873 1.0844 0.0
H999 H 0.71353 0.82873 1.0844 0.0
H1000 H 0.74236 0.7835 0.97702 0.0
H1001 H 0.72131 0.75626 0.90925 0.0
C1002 C 0.91525 0.71234 0.37839 0.0
C1003 C 0.89486 0.67374 0.35101 0.0
C1004 C 0.85369 0.6464 0.44198 0.0
C1005 C 0.88349 0.67982 0.47446 0.0
N1006 N 0.92954 0.75093 0.47106 0.0
N1007 N 0.83598 0.60787 0.34911 0.0
C1008 C 0.90822 0.71549 0.44094 0.0
C1009 C 0.8603 0.64254 0.3797 0.0
N1010 N 0.94401 0.74536 0.34796 0.0
N1011 N 0.82143 0.61599 0.47097 0.0
H1012 H 0.84087 0.60459 0.30302 0.0
H1013 H 0.8111 0.58344 0.36976 0.0
H1014 H 0.815 0.6172 0.51701 0.0
H1015 H 0.815 0.6172 0.51701 0.0
H1016 H 0.9511 0.74504 0.30196 0.0
H1017 H 0.9511 0.74504 0.30196 0.0
H1018 H 0.94981 0.7778 0.44864 0.0
H1019 H 0.92558 0.75255 0.5181 0.0
C1020 C 0.47225 0.10017 0.69886 0.0
C1021 C 0.48653 0.08918 0.64484 0.0
C1022 C 0.53681 0.08863 0.72546 0.0
C1023 C 0.51927 0.09413 0.78085 0.0
N1024 N 0.46226 0.09944 0.81061 0.0
N1025 N 0.52932 0.06209 0.62173 0.0
C1026 C 0.48494 0.09841 0.76399 0.0
C1027 C 0.5181 0.08087 0.66303 0.0
N1028 N 0.44686 0.11421 0.6886 0.0
N1029 N 0.57355 0.09259 0.73063 0.0
H1030 H 0.5151 0.05128 0.5801 0.0
H1031 H 0.54819 0.05113 0.63284 0.0
H1032 H 0.58955 0.10039 0.77135 0.0
H1033 H 0.59043 0.0937 0.69285 0.0
H1034 H 0.43877 0.12771 0.72227 0.0
H1035 H 0.43726 0.11626 0.64481 0.0
H1036 H 0.43456 0.09683 0.80385 0.0
H1037 H 0.46904 0.09891 0.85653 0.0
C1038 C 0.3844 0.50758 0.9935 0.0
C1039 C 0.407 0.51894 0.93636 0.0
C1040 C 0.46495 0.57049 1.00733 0.0
C1041 C 0.44159 0.55919 1.06332 0.0
N1042 N 0.37289 0.52535 1.09567 0.0
N1043 N 0.47522 0.55863 0.89998 0.0
C1044 C 0.3999 0.52976 1.0519 0.0
C1045 C 0.44882 0.55031 0.94682 0.0
N1046 N 0.3473 0.47398 0.99442 0.0
N1047 N 0.50324 0.60192 1.01095 0.0
H1048 H 0.46751 0.54305 0.85906 0.0
H1049 H 0.50596 0.57686 0.90389 0.0
H1050 H 0.51628 0.61532 1.05234 0.0
H1051 H 0.52107 0.6171 0.97316 0.0
H1052 H 0.3324 0.45993 1.03506 0.0
H1053 H 0.33254 0.4578 0.95592 0.0
H1054 H 0.34215 0.50862 1.08924 0.0
H1055 H 0.38071 0.5434 1.13434 0.0
C1056 C 0.86601 0.43242 0.38249 0.0
C1057 C 0.85119 0.39031 0.36679 0.0
C1058 C 0.83518 0.38001 0.48473 0.0
C1059 C 0.84646 0.42179 0.4985 0.0
N1060 N 0.8597 0.48215 0.44311 0.0
N1061 N 0.81469 0.32389 0.41178 0.0
C1062 C 0.85822 0.44593 0.44215 0.0
C1063 C 0.83411 0.36451 0.42094 0.0
N1064 N 0.89028 0.46149 0.34117 0.0
N1065 N 0.82574 0.35392 0.53307 0.0
H1066 H 0.81318 0.31163 0.36887 0.0
H1067 H 0.79704 0.30259 0.44499 0.0
H1068 H 0.82393 0.36175 0.57782 0.0
H1069 H 0.82295 0.32561 0.5295 0.0
H1070 H 0.90526 0.4922 0.35106 0.0
H1071 H 0.90036 0.45511 0.30115 0.0
H1072 H 0.86391 0.4995 0.40369 0.0
H1073 H 0.85063 0.49184 0.4808 0.0
C1074 C 0.41273 0.83967 0.69149 0.0
C1075 C 0.39349 0.83659 0.63269 0.0
C1076 C 0.34056 0.83981 0.70195 0.0
C1077 C 0.35823 0.84004 0.76069 0.0
N1078 N 0.41036 0.83075 0.80353 0.0
N1079 N 0.32758 0.81679 0.59577 0.0
C1080 C 0.39379 0.83696 0.75245 0.0
C1081 C 0.35434 0.83216 0.64232 0.0
N1082 N 0.44995 0.84455 0.69064 0.0
N1083 N 0.30908 0.84601 0.70194 0.0
H1084 H 0.33308 0.80569 0.55615 0.0
H1085 H 0.29797 0.80935 0.60025 0.0
H1086 H 0.29641 0.84887 0.74219 0.0
H1087 H 0.29778 0.85137 0.66183 0.0
H1088 H 0.46901 0.85478 0.72821 0.0
H1089 H 0.46228 0.83935 0.65216 0.0
H1090 H 0.43206 0.82256 0.80198 0.0
H1091 H 0.40038 0.8305 0.84767 0.0
C1092 C 0.55112 0.46029 1.00212 0.0
C1093 C 0.53565 0.43995 0.94404 0.0
C1094 C 0.48046 0.38431 1.01484 0.0
C1095 C 0.49799 0.40283 1.07277 0.0
N1096 N 0.55664 0.46023 1.11432 0.0
N1097 N 0.48823 0.37272 0.90735 0.0
C1098 C 0.53508 0.44114 1.06355 0.0
C1099 C 0.50109 0.39939 0.95442 0.0
N1100 N 0.58233 0.49905 1.00006 0.0
N1101 N 0.44312 0.35109 1.01619 0.0
H1102 H 0.50217 0.37877 0.86508 0.0
H1103 H 0.46683 0.34226 0.91275 0.0
H1104 H 0.42817 0.33715 1.05673 0.0
H1105 H 0.42571 0.3396 0.97704 0.0
H1106 H 0.5902 0.5187 1.03679 0.0
H1107 H 0.59979 0.51218 0.96123 0.0
H1108 H 0.58623 0.48362 1.11266 0.0
H1109 H 0.54581 0.45165 1.1587 0.0
C1110 C 0.07442 0.5015 0.42392 0.0
C1111 C 0.08743 0.52536 0.47926 0.0
C1112 C 0.09203 0.58179 0.40709 0.0
C1113 C 0.0836 0.55937 0.35108 0.0
N1114 N 0.07892 0.49832 0.31253 0.0
N1115 N 0.1224 0.59568 0.5087 0.0
C1116 C 0.07869 0.51963 0.36179 0.0
C1117 C 0.09983 0.56748 0.46622 0.0
N1118 N 0.05622 0.46053 0.42914 0.0
N1119 N 0.09395 0.61818 0.40462 0.0
H1120 H 0.13416 0.58903 0.54694 0.0
H1121 H 0.13492 0.6266 0.501 0.0
H1122 H 0.0914 0.63101 0.36376 0.0
H1123 H 0.09501 0.63391 0.44384 0.0
H1124 H 0.04191 0.4414 0.39248 0.0
H1125 H 0.05146 0.44531 0.4707 0.0
H1126 H 0.07976 0.47172 0.31674 0.0
H1127 H 0.08255 0.50918 0.26783 0.0
loop_
_geom_bond_atom_site_label_1
_geom_bond_atom_site_label_2
_geom_bond_distance
_geom_bond_site_symmetry_2
_ccdc_geom_bond_type
Tb0 C10 2.825 . S
Tb0 O11 2.347 . S
Tb0 O14 2.366 . S
Tb0 O19 2.418 . S
Tb0 O20 2.384 . S
Tb0 O23 2.479 . S
Tb0 O24 2.471 . S
Eu1 O12 2.418 . S
Eu1 O13 2.384 . S
Eu1 O16 2.479 . S
Eu1 O17 2.471 . S
Eu1 O18 2.347 . S
Eu1 O21 2.366 . S
Eu1 C31 2.825 . S
C2 O18 1.259 . S
C2 O19 1.265 . S
C3 O20 1.255 . S
C3 O21 1.265 . S
C4 C6 1.380 . S
C4 C7 1.374 . S
C4 C10 1.507 . S
C5 C6 1.384 . S
C5 C9 1.387 . S
C5 H32 0.930 . S
C6 C4 1.380 . S
C6 C5 1.384 . S
C6 H33 0.931 . S
C7 C4 1.374 . S
C7 C8 1.390 . S
C7 H34 0.930 . S
C8 C7 1.390 . S
C8 C9 1.391 . S
C8 H35 0.930 . S
C9 C5 1.387 . S
C9 C8 1.391 . S
C10 Tb0 2.825 . S
C10 C4 1.507 . S
C10 O23 1.238 . S
C10 O24 1.247 . S
O11 Tb0 2.347 . S
O11 C15 1.259 . S
O12 Eu1 2.418 . S
O12 C15 1.265 . S
O13 Eu1 2.384 . S
O13 C22 1.255 . S
O14 Tb0 2.366 . S
O14 C22 1.265 . S
C15 O11 1.259 . S
C15 O12 1.265 . S
O16 Eu1 2.479 . S
O16 C31 1.238 . S
O17 Eu1 2.471 . S
O17 C31 1.247 . S
O18 Eu1 2.347 . S
O18 C2 1.259 . S
O19 Tb0 2.418 . S
O19 C2 1.265 . S
O20 Tb0 2.384 . S
O20 C3 1.255 . S
O21 Eu1 2.366 . S
O21 C3 1.265 . S
C22 O13 1.255 . S
C22 O14 1.265 . S
O23 Tb0 2.479 . S
O23 C10 1.238 . S
O24 Tb0 2.471 . S
O24 C10 1.247 . S
C25 C28 1.380 . S
C25 C29 1.374 . S
C25 C31 1.507 . S
C26 C27 1.387 1_556 S
C26 C30 1.391 1_556 S
C27 C26 1.387 1_554 S
C27 C28 1.384 . S
C27 H36 0.930 . S
C28 C25 1.380 . S
C28 C27 1.384 . S
C28 H37 0.931 . S
C29 C25 1.374 . S
C29 C30 1.390 . S
C29 H38 0.930 . S
C30 C26 1.391 1_554 S
C30 C29 1.390 . S
C30 H39 0.926 1_554 S
C31 Eu1 2.825 . S
C31 O16 1.238 . S
C31 O17 1.247 . S
C31 C25 1.507 . S
H32 C5 0.930 . S
H33 C6 0.931 . S
H34 C7 0.930 . S
H35 C8 0.930 . S
H36 C27 0.930 . S
H37 C28 0.931 . S
H38 C29 0.930 . S
H39 C30 0.926 1_556 S
Tb40 C50 2.825 . S
Tb40 O51 2.347 . S
Tb40 O54 2.366 . S
Tb40 O59 2.418 . S
Tb40 O60 2.384 . S
Tb40 O63 2.479 . S
Tb40 O64 2.471 . S
Eu41 O52 2.418 . S
Eu41 O53 2.384 . S
Eu41 O56 2.479 . S
Eu41 O57 2.471 . S
Eu41 O58 2.347 . S
Eu41 O61 2.366 . S
Eu41 C71 2.825 . S
C42 O58 1.259 . S
C42 O59 1.265 . S
C43 O60 1.255 . S
C43 O61 1.265 . S
C44 C46 1.380 . S
C44 C47 1.374 . S
C44 C50 1.507 . S
C45 C46 1.384 . S
C45 C49 1.387 . S
C45 H72 0.930 . S
C46 C44 1.380 . S
C46 C45 1.384 . S
C46 H73 0.931 . S
C47 C44 1.374 . S
C47 C48 1.390 . S
C47 H74 0.930 . S
C48 C47 1.390 . S
C48 C49 1.391 . S
C48 H75 0.930 . S
C49 C45 1.387 . S
C49 C48 1.391 . S
C50 Tb40 2.825 . S
C50 C44 1.507 . S
C50 O63 1.238 . S
C50 O64 1.247 . S
O51 Tb40 2.347 . S
O51 C55 1.259 . S
O52 Eu41 2.418 . S
O52 C55 1.265 . S
O53 Eu41 2.384 . S
O53 C62 1.255 . S
O54 Tb40 2.366 . S
O54 C62 1.265 . S
C55 O51 1.259 . S
C55 O52 1.265 . S
O56 Eu41 2.479 . S
O56 C71 1.238 . S
O57 Eu41 2.471 . S
O57 C71 1.247 . S
O58 Eu41 2.347 . S
O58 C42 1.259 . S
O59 Tb40 2.418 . S
O59 C42 1.265 . S
O60 Tb40 2.384 . S
O60 C43 1.255 . S
O61 Eu41 2.366 . S
O61 C43 1.265 . S
C62 O53 1.255 . S
C62 O54 1.265 . S
O63 Tb40 2.479 . S
O63 C50 1.238 . S
O64 Tb40 2.471 . S
O64 C50 1.247 . S
C65 C68 1.380 . S
C65 C69 1.374 . S
C65 C71 1.507 . S
C66 C67 1.387 . S
C66 C70 1.391 . S
C67 C66 1.387 . S
C67 C68 1.384 . S
C67 H76 0.930 . S
C68 C65 1.380 . S
C68 C67 1.384 . S
C68 H77 0.931 . S
C69 C65 1.374 . S
C69 C70 1.390 . S
C69 H78 0.930 . S
C70 C66 1.391 . S
C70 C69 1.390 . S
C70 H79 0.930 . S
C71 Eu41 2.825 . S
C71 O56 1.238 . S
C71 O57 1.247 . S
C71 C65 1.507 . S
H72 C45 0.930 . S
H73 C46 0.931 . S
H74 C47 0.930 . S
H75 C48 0.930 . S
H76 C67 0.930 . S
H77 C68 0.931 . S
H78 C69 0.930 . S
H79 C70 0.930 . S
Tb80 C90 2.825 1_556 S
Tb80 O91 2.347 . S
Tb80 O94 2.366 . S
Tb80 O99 2.418 . S
Tb80 O100 2.384 . S
Tb80 O103 2.479 1_556 S
Tb80 O104 2.471 1_556 S
Eu81 O92 2.418 . S
Eu81 O93 2.384 . S
Eu81 O96 2.479 . S
Eu81 O97 2.471 . S
Eu81 O98 2.347 . S
Eu81 O101 2.366 . S
Eu81 C111 2.825 . S
C82 O98 1.259 . S
C82 O99 1.265 . S
C83 O100 1.255 . S
C83 O101 1.265 . S
C84 C86 1.380 . S
C84 C87 1.374 . S
C84 C90 1.507 . S
C85 C86 1.384 . S
C85 C89 1.387 . S
C85 H112 0.930 . S
C86 C84 1.380 . S
C86 C85 1.384 . S
C86 H113 0.931 . S
C87 C84 1.374 . S
C87 C88 1.390 . S
C87 H114 0.930 . S
C88 C87 1.390 . S
C88 C89 1.391 . S
C88 H115 0.930 . S
C89 C85 1.387 . S
C89 C88 1.391 . S
C90 Tb80 2.825 1_554 S
C90 C84 1.507 . S
C90 O103 1.238 . S
C90 O104 1.247 . S
O91 Tb80 2.347 . S
O91 C95 1.259 . S
O92 Eu81 2.418 . S
O92 C95 1.265 . S
O93 Eu81 2.384 . S
O93 C102 1.255 . S
O94 Tb80 2.366 . S
O94 C102 1.265 . S
C95 O91 1.259 . S
C95 O92 1.265 . S
O96 Eu81 2.479 . S
O96 C111 1.238 . S
O97 Eu81 2.471 . S
O97 C111 1.247 . S
O98 Eu81 2.347 . S
O98 C82 1.259 . S
O99 Tb80 2.418 . S
O99 C82 1.265 . S
O100 Tb80 2.384 . S
O100 C83 1.255 . S
O101 Eu81 2.366 . S
O101 C83 1.265 . S
C102 O93 1.255 . S
C102 O94 1.265 . S
O103 Tb80 2.479 1_554 S
O103 C90 1.238 . S
O104 Tb80 2.471 1_554 S
O104 C90 1.247 . S
C105 C108 1.380 . S
C105 C109 1.374 . S
C105 C111 1.507 . S
C106 C107 1.387 . S
C106 C110 1.391 . S
C107 C106 1.387 . S
C107 C108 1.384 . S
C107 H116 0.930 . S
C108 C105 1.380 . S
C108 C107 1.384 . S
C108 H117 0.931 . S
C109 C105 1.374 . S
C109 C110 1.390 . S
C109 H118 0.930 . S
C110 C106 1.391 . S
C110 C109 1.390 . S
C110 H119 0.930 . S
C111 Eu81 2.825 . S
C111 O96 1.238 . S
C111 O97 1.247 . S
C111 C105 1.507 . S
H112 C85 0.930 . S
H113 C86 0.931 . S
H114 C87 0.930 . S
H115 C88 0.930 . S
H116 C107 0.930 . S
H117 C108 0.931 . S
H118 C109 0.930 . S
H119 C110 0.930 . S
Tb120 C130 2.825 . S
Tb120 O131 2.347 . S
Tb120 O134 2.366 . S
Tb120 O139 2.418 . S
Tb120 O140 2.384 . S
Tb120 O143 2.479 . S
Tb120 O144 2.471 . S
Eu121 O132 2.418 . S
Eu121 O133 2.384 . S
Eu121 O136 2.479 . S
Eu121 O137 2.471 . S
Eu121 O138 2.347 . S
Eu121 O141 2.366 . S
Eu121 C151 2.825 . S
C122 O138 1.259 . S
C122 O139 1.265 . S
C123 O140 1.255 . S
C123 O141 1.265 . S
C124 C126 1.380 . S
C124 C127 1.374 . S
C124 C130 1.507 . S
C125 C126 1.384 . S
C125 C129 1.387 . S
C125 H152 0.930 . S
C126 C124 1.380 . S
C126 C125 1.384 . S
C126 H153 0.931 . S
C127 C124 1.374 . S
C127 C128 1.390 . S
C127 H154 0.930 . S
C128 C127 1.390 . S
C128 C129 1.391 . S
C128 H155 0.930 . S
C129 C125 1.387 . S
C129 C128 1.391 . S
C130 Tb120 2.825 . S
C130 C124 1.507 . S
C130 O143 1.238 . S
C130 O144 1.247 . S
O131 Tb120 2.347 . S
O131 C135 1.259 . S
O132 Eu121 2.418 . S
O132 C135 1.265 . S
O133 Eu121 2.384 . S
O133 C142 1.255 . S
O134 Tb120 2.366 . S
O134 C142 1.265 . S
C135 O131 1.259 . S
C135 O132 1.265 . S
O136 Eu121 2.479 . S
O136 C151 1.238 . S
O137 Eu121 2.471 . S
O137 C151 1.247 . S
O138 Eu121 2.347 . S
O138 C122 1.259 . S
O139 Tb120 2.418 . S
O139 C122 1.265 . S
O140 Tb120 2.384 . S
O140 C123 1.255 . S
O141 Eu121 2.366 . S
O141 C123 1.265 . S
C142 O133 1.255 . S
C142 O134 1.265 . S
O143 Tb120 2.479 . S
O143 C130 1.238 . S
O144 Tb120 2.471 . S
O144 C130 1.247 . S
C145 C148 1.380 . S
C145 C149 1.374 . S
C145 C151 1.507 . S
C146 C147 1.387 1_556 S
C146 C150 1.391 1_556 S
C147 C146 1.387 1_554 S
C147 C148 1.384 . S
C147 H156 0.930 . S
C148 C145 1.380 . S
C148 C147 1.384 . S
C148 H157 0.931 . S
C149 C145 1.374 . S
C149 C150 1.390 . S
C149 H158 0.930 . S
C150 C146 1.391 1_554 S
C150 C149 1.390 . S
C150 H159 0.926 1_554 S
C151 Eu121 2.825 . S
C151 O136 1.238 . S
C151 O137 1.247 . S
C151 C145 1.507 . S
H152 C125 0.930 . S
H153 C126 0.931 . S
H154 C127 0.930 . S
H155 C128 0.930 . S
H156 C147 0.930 . S
H157 C148 0.931 . S
H158 C149 0.930 . S
H159 C150 0.926 1_556 S
Tb160 C170 2.825 . S
Tb160 O171 2.347 . S
Tb160 O174 2.366 . S
Tb160 O179 2.418 . S
Tb160 O180 2.384 . S
Tb160 O183 2.479 . S
Tb160 O184 2.471 . S
Eu161 O172 2.418 . S
Eu161 O173 2.384 . S
Eu161 O176 2.479 . S
Eu161 O177 2.471 . S
Eu161 O178 2.347 . S
Eu161 O181 2.366 . S
Eu161 C191 2.825 . S
C162 O178 1.259 . S
C162 O179 1.265 . S
C163 O180 1.255 . S
C163 O181 1.265 . S
C164 C166 1.380 . S
C164 C167 1.374 . S
C164 C170 1.507 . S
C165 C166 1.384 . S
C165 C169 1.387 . S
C165 H192 0.930 . S
C166 C164 1.380 . S
C166 C165 1.384 . S
C166 H193 0.931 . S
C167 C164 1.374 . S
C167 C168 1.390 . S
C167 H194 0.930 . S
C168 C167 1.390 . S
C168 C169 1.391 . S
C168 H195 0.930 . S
C169 C165 1.387 . S
C169 C168 1.391 . S
C170 Tb160 2.825 . S
C170 C164 1.507 . S
C170 O183 1.238 . S
C170 O184 1.247 . S
O171 Tb160 2.347 . S
O171 C175 1.259 . S
O172 Eu161 2.418 . S
O172 C175 1.265 . S
O173 Eu161 2.384 . S
O173 C182 1.255 . S
O174 Tb160 2.366 . S
O174 C182 1.265 . S
C175 O171 1.259 . S
C175 O172 1.265 . S
O176 Eu161 2.479 . S
O176 C191 1.238 . S
O177 Eu161 2.471 . S
O177 C191 1.247 . S
O178 Eu161 2.347 . S
O178 C162 1.259 . S
O179 Tb160 2.418 . S
O179 C162 1.265 . S
O180 Tb160 2.384 . S
O180 C163 1.255 . S
O181 Eu161 2.366 . S
O181 C163 1.265 . S
C182 O173 1.255 . S
C182 O174 1.265 . S
O183 Tb160 2.479 . S
O183 C170 1.238 . S
O184 Tb160 2.471 . S
O184 C170 1.247 . S
C185 C188 1.380 . S
C185 C189 1.374 . S
C185 C191 1.507 . S
C186 C187 1.387 . S
C186 C190 1.391 . S
C187 C186 1.387 . S
C187 C188 1.384 . S
C187 H196 0.930 . S
C188 C185 1.380 . S
C188 C187 1.384 . S
C188 H197 0.931 . S
C189 C185 1.374 . S
C189 C190 1.390 . S
C189 H198 0.930 . S
C190 C186 1.391 . S
C190 C189 1.390 . S
C190 H199 0.930 . S
C191 Eu161 2.825 . S
C191 O176 1.238 . S
C191 O177 1.247 . S
C191 C185 1.507 . S
H192 C165 0.930 . S
H193 C166 0.931 . S
H194 C167 0.930 . S
H195 C168 0.930 . S
H196 C187 0.930 . S
H197 C188 0.931 . S
H198 C189 0.930 . S
H199 C190 0.930 . S
Tb200 C210 2.825 1_556 S
Tb200 O211 2.347 . S
Tb200 O214 2.366 . S
Tb200 O219 2.418 . S
Tb200 O220 2.384 . S
Tb200 O223 2.479 1_556 S
Tb200 O224 2.471 1_556 S
Eu201 O212 2.418 . S
Eu201 O213 2.384 . S
Eu201 O216 2.479 . S
Eu201 O217 2.471 . S
Eu201 O218 2.347 . S
Eu201 O221 2.366 . S
Eu201 C231 2.825 . S
C202 O218 1.259 . S
C202 O219 1.265 . S
C203 O220 1.255 . S
C203 O221 1.265 . S
C204 C206 1.380 . S
C204 C207 1.374 . S
C204 C210 1.507 . S
C205 C206 1.384 . S
C205 C209 1.387 . S
C205 H232 0.930 . S
C206 C204 1.380 . S
C206 C205 1.384 . S
C206 H233 0.931 . S
C207 C204 1.374 . S
C207 C208 1.390 . S
C207 H234 0.930 . S
C208 C207 1.390 . S
C208 C209 1.391 . S
C208 H235 0.930 . S
C209 C205 1.387 . S
C209 C208 1.391 . S
C210 Tb200 2.825 1_554 S
C210 C204 1.507 . S
C210 O223 1.238 . S
C210 O224 1.247 . S
O211 Tb200 2.347 . S
O211 C215 1.259 . S
O212 Eu201 2.418 . S
O212 C215 1.265 . S
O213 Eu201 2.384 . S
O213 C222 1.255 . S
O214 Tb200 2.366 . S
O214 C222 1.265 . S
C215 O211 1.259 . S
C215 O212 1.265 . S
O216 Eu201 2.479 . S
O216 C231 1.238 . S
O217 Eu201 2.471 . S
O217 C231 1.247 . S
O218 Eu201 2.347 . S
O218 C202 1.259 . S
O219 Tb200 2.418 . S
O219 C202 1.265 . S
O220 Tb200 2.384 . S
O220 C203 1.255 . S
O221 Eu201 2.366 . S
O221 C203 1.265 . S
C222 O213 1.255 . S
C222 O214 1.265 . S
O223 Tb200 2.479 1_554 S
O223 C210 1.238 . S
O224 Tb200 2.471 1_554 S
O224 C210 1.247 . S
C225 C228 1.380 . S
C225 C229 1.374 . S
C225 C231 1.507 . S
C226 C227 1.387 . S
C226 C230 1.391 . S
C227 C226 1.387 . S
C227 C228 1.384 . S
C227 H236 0.930 . S
C228 C225 1.380 . S
C228 C227 1.384 . S
C228 H237 0.931 . S
C229 C225 1.374 . S
C229 C230 1.390 . S
C229 H238 0.930 . S
C230 C226 1.391 . S
C230 C229 1.390 . S
C230 H239 0.930 . S
C231 Eu201 2.825 . S
C231 O216 1.238 . S
C231 O217 1.247 . S
C231 C225 1.507 . S
H232 C205 0.930 . S
H233 C206 0.931 . S
H234 C207 0.930 . S
H235 C208 0.930 . S
H236 C227 0.930 . S
H237 C228 0.931 . S
H238 C229 0.930 . S
H239 C230 0.930 . S
Tb240 C250 2.825 . S
Tb240 O251 2.347 . S
Tb240 O254 2.366 . S
Tb240 O259 2.418 . S
Tb240 O260 2.384 . S
Tb240 O263 2.479 . S
Tb240 O264 2.471 . S
Eu241 O252 2.418 . S
Eu241 O253 2.384 . S
Eu241 O256 2.479 . S
Eu241 O257 2.471 . S
Eu241 O258 2.347 . S
Eu241 O261 2.366 . S
Eu241 C271 2.825 . S
C242 O258 1.259 . S
C242 O259 1.265 . S
C243 O260 1.255 . S
C243 O261 1.265 . S
C244 C246 1.380 . S
C244 C247 1.374 . S
C244 C250 1.507 . S
C245 C246 1.384 . S
C245 C249 1.387 . S
C245 H272 0.930 . S
C246 C244 1.380 . S
C246 C245 1.384 . S
C246 H273 0.931 . S
C247 C244 1.374 . S
C247 C248 1.390 . S
C247 H274 0.930 . S
C248 C247 1.390 . S
C248 C249 1.391 . S
C248 H275 0.930 . S
C249 C245 1.387 . S
C249 C248 1.391 . S
C250 Tb240 2.825 . S
C250 C244 1.507 . S
C250 O263 1.238 . S
C250 O264 1.247 . S
O251 Tb240 2.347 . S
O251 C255 1.259 . S
O252 Eu241 2.418 . S
O252 C255 1.265 . S
O253 Eu241 2.384 . S
O253 C262 1.255 . S
O254 Tb240 2.366 . S
O254 C262 1.265 . S
C255 O251 1.259 . S
C255 O252 1.265 . S
O256 Eu241 2.479 . S
O256 C271 1.238 . S
O257 Eu241 2.471 . S
O257 C271 1.247 . S
O258 Eu241 2.347 . S
O258 C242 1.259 . S
O259 Tb240 2.418 . S
O259 C242 1.265 . S
O260 Tb240 2.384 . S
O260 C243 1.255 . S
O261 Eu241 2.366 . S
O261 C243 1.265 . S
C262 O253 1.255 . S
C262 O254 1.265 . S
O263 Tb240 2.479 . S
O263 C250 1.238 . S
O264 Tb240 2.471 . S
O264 C250 1.247 . S
C265 C268 1.380 . S
C265 C269 1.374 . S
C265 C271 1.507 . S
C266 C267 1.387 . S
C266 C270 1.391 . S
C267 C266 1.387 . S
C267 C268 1.384 . S
C267 H276 0.930 . S
C268 C265 1.380 . S
C268 C267 1.384 . S
C268 H277 0.931 . S
C269 C265 1.374 . S
C269 C270 1.390 . S
C269 H278 0.930 . S
C270 C266 1.391 . S
C270 C269 1.390 . S
C270 H279 0.930 . S
C271 Eu241 2.825 . S
C271 O256 1.238 . S
C271 O257 1.247 . S
C271 C265 1.507 . S
H272 C245 0.930 . S
H273 C246 0.931 . S
H274 C247 0.930 . S
H275 C248 0.930 . S
H276 C267 0.930 . S
H277 C268 0.931 . S
H278 C269 0.930 . S
H279 C270 0.930 . S
Tb280 C290 2.825 . S
Tb280 O291 2.347 . S
Tb280 O294 2.366 . S
Tb280 O299 2.418 . S
Tb280 O300 2.384 . S
Tb280 O303 2.479 . S
Tb280 O304 2.471 . S
Eu281 O292 2.418 . S
Eu281 O293 2.384 . S
Eu281 O296 2.479 . S
Eu281 O297 2.471 . S
Eu281 O298 2.347 . S
Eu281 O301 2.366 . S
Eu281 C311 2.825 . S
C282 O298 1.259 . S
C282 O299 1.265 . S
C283 O300 1.255 . S
C283 O301 1.265 . S
C284 C286 1.380 . S
C284 C287 1.374 . S
C284 C290 1.507 . S
C285 C286 1.384 . S
C285 C289 1.387 . S
C285 H312 0.930 . S
C286 C284 1.380 . S
C286 C285 1.384 . S
C286 H313 0.931 . S
C287 C284 1.374 . S
C287 C288 1.390 . S
C287 H314 0.930 . S
C288 C287 1.390 . S
C288 C289 1.391 . S
C288 H315 0.930 . S
C289 C285 1.387 . S
C289 C288 1.391 . S
C290 Tb280 2.825 . S
C290 C284 1.507 . S
C290 O303 1.238 . S
C290 O304 1.247 . S
O291 Tb280 2.347 . S
O291 C295 1.259 . S
O292 Eu281 2.418 . S
O292 C295 1.265 . S
O293 Eu281 2.384 . S
O293 C302 1.255 . S
O294 Tb280 2.366 . S
O294 C302 1.265 . S
C295 O291 1.259 . S
C295 O292 1.265 . S
O296 Eu281 2.479 . S
O296 C311 1.238 . S
O297 Eu281 2.471 . S
O297 C311 1.247 . S
O298 Eu281 2.347 . S
O298 C282 1.259 . S
O299 Tb280 2.418 . S
O299 C282 1.265 . S
O300 Tb280 2.384 . S
O300 C283 1.255 . S
O301 Eu281 2.366 . S
O301 C283 1.265 . S
C302 O293 1.255 . S
C302 O294 1.265 . S
O303 Tb280 2.479 . S
O303 C290 1.238 . S
O304 Tb280 2.471 . S
O304 C290 1.247 . S
C305 C308 1.380 . S
C305 C309 1.374 . S
C305 C311 1.507 . S
C306 C307 1.387 1_554 S
C306 C310 1.391 1_554 S
C307 C306 1.387 1_556 S
C307 C308 1.384 . S
C307 H316 0.930 . S
C308 C305 1.380 . S
C308 C307 1.384 . S
C308 H317 0.931 . S
C309 C305 1.374 . S
C309 C310 1.390 . S
C309 H318 0.930 . S
C310 C306 1.391 1_556 S
C310 C309 1.390 . S
C310 H319 0.926 1_556 S
C311 Eu281 2.825 . S
C311 O296 1.238 . S
C311 O297 1.247 . S
C311 C305 1.507 . S
H312 C285 0.930 . S
H313 C286 0.931 . S
H314 C287 0.930 . S
H315 C288 0.930 . S
H316 C307 0.930 . S
H317 C308 0.931 . S
H318 C309 0.930 . S
H319 C310 0.926 1_554 S
Tb320 C330 2.825 1_554 S
Tb320 O331 2.347 . S
Tb320 O334 2.366 . S
Tb320 O339 2.418 . S
Tb320 O340 2.384 . S
Tb320 O343 2.479 1_554 S
Tb320 O344 2.471 1_554 S
Eu321 O332 2.418 . S
Eu321 O333 2.384 . S
Eu321 O336 2.479 . S
Eu321 O337 2.471 . S
Eu321 O338 2.347 . S
Eu321 O341 2.366 . S
Eu321 C351 2.825 . S
C322 O338 1.259 . S
C322 O339 1.265 . S
C323 O340 1.255 . S
C323 O341 1.265 . S
C324 C326 1.380 . S
C324 C327 1.374 . S
C324 C330 1.507 . S
C325 C326 1.384 . S
C325 C329 1.387 . S
C325 H352 0.930 . S
C326 C324 1.380 . S
C326 C325 1.384 . S
C326 H353 0.931 . S
C327 C324 1.374 . S
C327 C328 1.390 . S
C327 H354 0.930 . S
C328 C327 1.390 . S
C328 C329 1.391 . S
C328 H355 0.930 . S
C329 C325 1.387 . S
C329 C328 1.391 . S
C330 Tb320 2.825 1_556 S
C330 C324 1.507 . S
C330 O343 1.238 . S
C330 O344 1.247 . S
O331 Tb320 2.347 . S
O331 C335 1.259 . S
O332 Eu321 2.418 . S
O332 C335 1.265 . S
O333 Eu321 2.384 . S
O333 C342 1.255 . S
O334 Tb320 2.366 . S
O334 C342 1.265 . S
C335 O331 1.259 . S
C335 O332 1.265 . S
O336 Eu321 2.479 . S
O336 C351 1.238 . S
O337 Eu321 2.471 . S
O337 C351 1.247 . S
O338 Eu321 2.347 . S
O338 C322 1.259 . S
O339 Tb320 2.418 . S
O339 C322 1.265 . S
O340 Tb320 2.384 . S
O340 C323 1.255 . S
O341 Eu321 2.366 . S
O341 C323 1.265 . S
C342 O333 1.255 . S
C342 O334 1.265 . S
O343 Tb320 2.479 1_556 S
O343 C330 1.238 . S
O344 Tb320 2.471 1_556 S
O344 C330 1.247 . S
C345 C348 1.380 . S
C345 C349 1.374 . S
C345 C351 1.507 . S
C346 C347 1.387 . S
C346 C350 1.391 . S
C347 C346 1.387 . S
C347 C348 1.384 . S
C347 H356 0.930 . S
C348 C345 1.380 . S
C348 C347 1.384 . S
C348 H357 0.931 . S
C349 C345 1.374 . S
C349 C350 1.390 . S
C349 H358 0.930 . S
C350 C346 1.391 . S
C350 C349 1.390 . S
C350 H359 0.930 . S
C351 Eu321 2.825 . S
C351 O336 1.238 . S
C351 O337 1.247 . S
C351 C345 1.507 . S
H352 C325 0.930 . S
H353 C326 0.931 . S
H354 C327 0.930 . S
H355 C328 0.930 . S
H356 C347 0.930 . S
H357 C348 0.931 . S
H358 C349 0.930 . S
H359 C350 0.930 . S
Tb360 C370 2.825 . S
Tb360 O371 2.347 . S
Tb360 O374 2.366 . S
Tb360 O379 2.418 . S
Tb360 O380 2.384 . S
Tb360 O383 2.479 . S
Tb360 O384 2.471 . S
Eu361 O372 2.418 . S
Eu361 O373 2.384 . S
Eu361 O376 2.479 . S
Eu361 O377 2.471 . S
Eu361 O378 2.347 . S
Eu361 O381 2.366 . S
Eu361 C391 2.825 . S
C362 O378 1.259 . S
C362 O379 1.265 . S
C363 O380 1.255 . S
C363 O381 1.265 . S
C364 C366 1.380 . S
C364 C367 1.374 . S
C364 C370 1.507 . S
C365 C366 1.384 . S
C365 C369 1.387 . S
C365 H392 0.930 . S
C366 C364 1.380 . S
C366 C365 1.384 . S
C366 H393 0.931 . S
C367 C364 1.374 . S
C367 C368 1.390 . S
C367 H394 0.930 . S
C368 C367 1.390 . S
C368 C369 1.391 . S
C368 H395 0.930 . S
C369 C365 1.387 . S
C369 C368 1.391 . S
C370 Tb360 2.825 . S
C370 C364 1.507 . S
C370 O383 1.238 . S
C370 O384 1.247 . S
O371 Tb360 2.347 . S
O371 C375 1.259 . S
O372 Eu361 2.418 . S
O372 C375 1.265 . S
O373 Eu361 2.384 . S
O373 C382 1.255 . S
O374 Tb360 2.366 . S
O374 C382 1.265 . S
C375 O371 1.259 . S
C375 O372 1.265 . S
O376 Eu361 2.479 . S
O376 C391 1.238 . S
O377 Eu361 2.471 . S
O377 C391 1.247 . S
O378 Eu361 2.347 . S
O378 C362 1.259 . S
O379 Tb360 2.418 . S
O379 C362 1.265 . S
O380 Tb360 2.384 . S
O380 C363 1.255 . S
O381 Eu361 2.366 . S
O381 C363 1.265 . S
C382 O373 1.255 . S
C382 O374 1.265 . S
O383 Tb360 2.479 . S
O383 C370 1.238 . S
O384 Tb360 2.471 . S
O384 C370 1.247 . S
C385 C388 1.380 . S
C385 C389 1.374 . S
C385 C391 1.507 . S
C386 C387 1.387 . S
C386 C390 1.391 . S
C387 C386 1.387 . S
C387 C388 1.384 . S
C387 H396 0.930 . S
C388 C385 1.380 . S
C388 C387 1.384 . S
C388 H397 0.931 . S
C389 C385 1.374 . S
C389 C390 1.390 . S
C389 H398 0.930 . S
C390 C386 1.391 . S
C390 C389 1.390 . S
C390 H399 0.930 . S
C391 Eu361 2.825 . S
C391 O376 1.238 . S
C391 O377 1.247 . S
C391 C385 1.507 . S
H392 C365 0.930 . S
H393 C366 0.931 . S
H394 C367 0.930 . S
H395 C368 0.930 . S
H396 C387 0.930 . S
H397 C388 0.931 . S
H398 C389 0.930 . S
H399 C390 0.930 . S
Tb400 C410 2.825 . S
Tb400 O411 2.347 . S
Tb400 O414 2.366 . S
Tb400 O419 2.418 . S
Tb400 O420 2.384 . S
Tb400 O423 2.479 . S
Tb400 O424 2.471 . S
Eu401 O412 2.418 . S
Eu401 O413 2.384 . S
Eu401 O416 2.479 . S
Eu401 O417 2.471 . S
Eu401 O418 2.347 . S
Eu401 O421 2.366 . S
Eu401 C431 2.825 . S
C402 O418 1.259 . S
C402 O419 1.265 . S
C403 O420 1.255 . S
C403 O421 1.265 . S
C404 C406 1.380 . S
C404 C407 1.374 . S
C404 C410 1.507 . S
C405 C406 1.384 . S
C405 C409 1.387 . S
C405 H432 0.930 . S
C406 C404 1.380 . S
C406 C405 1.384 . S
C406 H433 0.931 . S
C407 C404 1.374 . S
C407 C408 1.390 . S
C407 H434 0.930 . S
C408 C407 1.390 . S
C408 C409 1.391 . S
C408 H435 0.930 . S
C409 C405 1.387 . S
C409 C408 1.391 . S
C410 Tb400 2.825 . S
C410 C404 1.507 . S
C410 O423 1.238 . S
C410 O424 1.247 . S
O411 Tb400 2.347 . S
O411 C415 1.259 . S
O412 Eu401 2.418 . S
O412 C415 1.265 . S
O413 Eu401 2.384 . S
O413 C422 1.255 . S
O414 Tb400 2.366 . S
O414 C422 1.265 . S
C415 O411 1.259 . S
C415 O412 1.265 . S
O416 Eu401 2.479 . S
O416 C431 1.238 . S
O417 Eu401 2.471 . S
O417 C431 1.247 . S
O418 Eu401 2.347 . S
O418 C402 1.259 . S
O419 Tb400 2.418 . S
O419 C402 1.265 . S
O420 Tb400 2.384 . S
O420 C403 1.255 . S
O421 Eu401 2.366 . S
O421 C403 1.265 . S
C422 O413 1.255 . S
C422 O414 1.265 . S
O423 Tb400 2.479 . S
O423 C410 1.238 . S
O424 Tb400 2.471 . S
O424 C410 1.247 . S
C425 C428 1.380 . S
C425 C429 1.374 . S
C425 C431 1.507 . S
C426 C427 1.387 1_554 S
C426 C430 1.391 1_554 S
C427 C426 1.387 1_556 S
C427 C428 1.384 . S
C427 H436 0.930 . S
C428 C425 1.380 . S
C428 C427 1.384 . S
C428 H437 0.931 . S
C429 C425 1.374 . S
C429 C430 1.390 . S
C429 H438 0.930 . S
C430 C426 1.391 1_556 S
C430 C429 1.390 . S
C430 H439 0.926 1_556 S
C431 Eu401 2.825 . S
C431 O416 1.238 . S
C431 O417 1.247 . S
C431 C425 1.507 . S
H432 C405 0.930 . S
H433 C406 0.931 . S
H434 C407 0.930 . S
H435 C408 0.930 . S
H436 C427 0.930 . S
H437 C428 0.931 . S
H438 C429 0.930 . S
H439 C430 0.926 1_554 S
Tb440 C450 2.825 1_554 S
Tb440 O451 2.347 . S
Tb440 O454 2.366 . S
Tb440 O459 2.418 . S
Tb440 O460 2.384 . S
Tb440 O463 2.479 1_554 S
Tb440 O464 2.471 1_554 S
Eu441 O452 2.418 . S
Eu441 O453 2.384 . S
Eu441 O456 2.479 . S
Eu441 O457 2.471 . S
Eu441 O458 2.347 . S
Eu441 O461 2.366 . S
Eu441 C471 2.825 . S
C442 O458 1.259 . S
C442 O459 1.265 . S
C443 O460 1.255 . S
C443 O461 1.265 . S
C444 C446 1.380 . S
C444 C447 1.374 . S
C444 C450 1.507 . S
C445 C446 1.384 . S
C445 C449 1.387 . S
C445 H472 0.930 . S
C446 C444 1.380 . S
C446 C445 1.384 . S
C446 H473 0.931 . S
C447 C444 1.374 . S
C447 C448 1.390 . S
C447 H474 0.930 . S
C448 C447 1.390 . S
C448 C449 1.391 . S
C448 H475 0.930 . S
C449 C445 1.387 . S
C449 C448 1.391 . S
C450 Tb440 2.825 1_556 S
C450 C444 1.507 . S
C450 O463 1.238 . S
C450 O464 1.247 . S
O451 Tb440 2.347 . S
O451 C455 1.259 . S
O452 Eu441 2.418 . S
O452 C455 1.265 . S
O453 Eu441 2.384 . S
O453 C462 1.255 . S
O454 Tb440 2.366 . S
O454 C462 1.265 . S
C455 O451 1.259 . S
C455 O452 1.265 . S
O456 Eu441 2.479 . S
O456 C471 1.238 . S
O457 Eu441 2.471 . S
O457 C471 1.247 . S
O458 Eu441 2.347 . S
O458 C442 1.259 . S
O459 Tb440 2.418 . S
O459 C442 1.265 . S
O460 Tb440 2.384 . S
O460 C443 1.255 . S
O461 Eu441 2.366 . S
O461 C443 1.265 . S
C462 O453 1.255 . S
C462 O454 1.265 . S
O463 Tb440 2.479 1_556 S
O463 C450 1.238 . S
O464 Tb440 2.471 1_556 S
O464 C450 1.247 . S
C465 C468 1.380 . S
C465 C469 1.374 . S
C465 C471 1.507 . S
C466 C467 1.387 . S
C466 C470 1.391 . S
C467 C466 1.387 . S
C467 C468 1.384 . S
C467 H476 0.930 . S
C468 C465 1.380 . S
C468 C467 1.384 . S
C468 H477 0.931 . S
C469 C465 1.374 . S
C469 C470 1.390 . S
C469 H478 0.930 . S
C470 C466 1.391 . S
C470 C469 1.390 . S
C470 H479 0.930 . S
C471 Eu441 2.825 . S
C471 O456 1.238 . S
C471 O457 1.247 . S
C471 C465 1.507 . S
H472 C445 0.930 . S
H473 C446 0.931 . S
H474 C447 0.930 . S
H475 C448 0.930 . S
H476 C467 0.930 . S
H477 C468 0.931 . S
H478 C469 0.930 . S
H479 C470 0.930 . S
C480 C481 1.363 . S
C480 C486 1.379 . S
C480 N488 1.356 . S
C481 C480 1.363 . S
C481 C487 1.363 . S
C482 C483 1.363 . S
C482 C487 1.379 . S
C482 N489 1.356 . S
C483 C482 1.363 . S
C483 C486 1.363 . S
N484 C486 1.356 . S
N484 H496 0.984 . S
N484 H497 0.985 . S
N485 C487 1.356 . S
N485 H490 0.984 . S
N485 H491 0.985 . S
C486 C480 1.379 . S
C486 C483 1.363 . S
C486 N484 1.356 . S
C487 C481 1.363 . S
C487 C482 1.379 . S
C487 N485 1.356 . S
N488 C480 1.356 . S
N488 H494 0.984 . S
N488 H495 0.984 . S
N489 C482 1.356 . S
N489 H492 0.984 . S
N489 H493 0.985 . S
H490 N485 0.984 . S
H491 N485 0.985 . S
H492 N489 0.984 . S
H493 N489 0.985 . S
H494 N488 0.984 . S
H495 N488 0.984 . S
H496 N484 0.984 . S
H497 N484 0.985 . S
C498 C499 1.363 . S
C498 C504 1.379 . S
C498 N506 1.356 . S
C499 C498 1.363 . S
C499 C505 1.363 . S
C500 C501 1.363 . S
C500 C505 1.379 . S
C500 N507 1.356 . S
C501 C500 1.363 . S
C501 C504 1.363 . S
N502 C504 1.356 . S
N502 H514 0.984 . S
N502 H515 0.985 . S
N503 C505 1.356 . S
N503 H508 0.984 . S
N503 H509 0.985 . S
C504 C498 1.379 . S
C504 C501 1.363 . S
C504 N502 1.356 . S
C505 C499 1.363 . S
C505 C500 1.379 . S
C505 N503 1.356 . S
N506 C498 1.356 . S
N506 H512 0.984 . S
N506 H513 0.984 . S
N507 C500 1.356 . S
N507 H510 0.984 . S
N507 H511 0.985 . S
H508 N503 0.984 . S
H509 N503 0.985 . S
H510 N507 0.984 . S
H511 N507 0.985 . S
H512 N506 0.984 . S
H513 N506 0.984 . S
H514 N502 0.984 . S
H515 N502 0.985 . S
C516 C517 1.363 . S
C516 C522 1.379 . S
C516 N524 1.356 . S
C517 C516 1.363 . S
C517 C523 1.363 . S
C518 C519 1.363 . S
C518 C523 1.379 . S
C518 N525 1.356 . S
C519 C518 1.363 . S
C519 C522 1.363 . S
N520 C522 1.356 . S
N520 H532 0.984 . S
N520 H533 0.985 . S
N521 C523 1.356 . S
N521 H526 0.984 . S
N521 H527 0.985 . S
C522 C516 1.379 . S
C522 C519 1.363 . S
C522 N520 1.356 . S
C523 C517 1.363 . S
C523 C518 1.379 . S
C523 N521 1.356 . S
N524 C516 1.356 . S
N524 H530 0.984 . S
N524 H531 0.984 . S
N525 C518 1.356 . S
N525 H528 0.984 . S
N525 H529 0.985 . S
H526 N521 0.984 . S
H527 N521 0.985 . S
H528 N525 0.984 . S
H529 N525 0.985 . S
H530 N524 0.984 . S
H531 N524 0.984 . S
H532 N520 0.984 . S
H533 N520 0.985 . S
C534 C535 1.363 . S
C534 C540 1.379 . S
C534 N542 1.356 . S
C535 C534 1.363 . S
C535 C541 1.363 . S
C536 C537 1.363 . S
C536 C541 1.379 . S
C536 N543 1.356 . S
C537 C536 1.363 . S
C537 C540 1.363 . S
N538 C540 1.356 . S
N538 H550 0.984 . S
N538 H551 0.985 . S
N539 C541 1.356 . S
N539 H544 0.984 . S
N539 H545 0.985 . S
C540 C534 1.379 . S
C540 C537 1.363 . S
C540 N538 1.356 . S
C541 C535 1.363 . S
C541 C536 1.379 . S
C541 N539 1.356 . S
N542 C534 1.356 . S
N542 H548 0.984 . S
N542 H549 0.984 . S
N543 C536 1.356 . S
N543 H546 0.984 . S
N543 H547 0.985 . S
H544 N539 0.984 . S
H545 N539 0.985 . S
H546 N543 0.984 . S
H547 N543 0.985 . S
H548 N542 0.984 . S
H549 N542 0.984 . S
H550 N538 0.984 . S
H551 N538 0.985 . S
C552 C553 1.363 . S
C552 C558 1.379 . S
C552 N560 1.356 . S
C553 C552 1.363 . S
C553 C559 1.363 . S
C554 C555 1.363 . S
C554 C559 1.379 . S
C554 N561 1.356 . S
C555 C554 1.363 . S
C555 C558 1.363 . S
N556 C558 1.356 . S
N556 H568 0.984 . S
N556 H569 0.985 . S
N557 C559 1.356 . S
N557 H562 0.984 . S
N557 H563 0.985 . S
C558 C552 1.379 . S
C558 C555 1.363 . S
C558 N556 1.356 . S
C559 C553 1.363 . S
C559 C554 1.379 . S
C559 N557 1.356 . S
N560 C552 1.356 . S
N560 H566 0.984 . S
N560 H567 0.984 . S
N561 C554 1.356 . S
N561 H564 0.984 . S
N561 H565 0.985 . S
H562 N557 0.984 . S
H563 N557 0.985 . S
H564 N561 0.984 . S
H565 N561 0.985 . S
H566 N560 0.984 . S
H567 N560 0.984 . S
H568 N556 0.984 . S
H569 N556 0.985 . S
C570 C571 1.363 . S
C570 C576 1.379 . S
C570 N578 1.356 . S
C571 C570 1.363 . S
C571 C577 1.363 . S
C572 C573 1.363 . S
C572 C577 1.379 . S
C572 N579 1.356 . S
C573 C572 1.363 . S
C573 C576 1.363 . S
N574 C576 1.356 . S
N574 H586 0.984 . S
N574 H587 0.985 . S
N575 C577 1.356 . S
N575 H580 0.984 . S
N575 H581 0.985 . S
C576 C570 1.379 . S
C576 C573 1.363 . S
C576 N574 1.356 . S
C577 C571 1.363 . S
C577 C572 1.379 . S
C577 N575 1.356 . S
N578 C570 1.356 . S
N578 H584 0.984 . S
N578 H585 0.984 . S
N579 C572 1.356 . S
N579 H582 0.984 . S
N579 H583 0.985 . S
H580 N575 0.984 . S
H581 N575 0.985 . S
H582 N579 0.984 . S
H583 N579 0.985 . S
H584 N578 0.984 . S
H585 N578 0.984 . S
H586 N574 0.984 . S
H587 N574 0.985 . S
C588 C589 1.363 . S
C588 C594 1.379 1_554 S
C588 N596 1.356 . S
C589 C588 1.363 . S
C589 C595 1.363 . S
C590 C591 1.363 . S
C590 C595 1.379 1_556 S
C590 N597 1.356 . S
C591 C590 1.363 . S
C591 C594 1.363 . S
N592 C594 1.356 . S
N592 H604 0.984 . S
N592 H605 0.985 . S
N593 C595 1.356 . S
N593 H598 0.984 . S
N593 H599 0.985 . S
C594 C588 1.379 1_556 S
C594 C591 1.363 . S
C594 N592 1.356 . S
C595 C589 1.363 . S
C595 C590 1.379 1_554 S
C595 N593 1.356 . S
N596 C588 1.356 . S
N596 H602 0.984 . S
N596 H603 0.984 . S
N597 C590 1.356 . S
N597 H600 0.984 . S
N597 H601 0.985 . S
H598 N593 0.984 . S
H599 N593 0.985 . S
H600 N597 0.984 . S
H601 N597 0.985 . S
H602 N596 0.984 . S
H603 N596 0.984 . S
H604 N592 0.984 . S
H605 N592 0.985 . S
C606 C607 1.363 . S
C606 C612 1.379 . S
C606 N614 1.356 . S
C607 C606 1.363 . S
C607 C613 1.363 . S
C608 C609 1.363 . S
C608 C613 1.379 . S
C608 N615 1.356 . S
C609 C608 1.363 . S
C609 C612 1.363 . S
N610 C612 1.356 . S
N610 H622 0.984 . S
N610 H623 0.985 . S
N611 C613 1.356 . S
N611 H616 0.984 . S
N611 H617 0.985 . S
C612 C606 1.379 . S
C612 C609 1.363 . S
C612 N610 1.356 . S
C613 C607 1.363 . S
C613 C608 1.379 . S
C613 N611 1.356 . S
N614 C606 1.356 . S
N614 H620 0.984 . S
N614 H621 0.984 . S
N615 C608 1.356 . S
N615 H618 0.984 . S
N615 H619 0.985 . S
H616 N611 0.984 . S
H617 N611 0.985 . S
H618 N615 0.984 . S
H619 N615 0.985 . S
H620 N614 0.984 . S
H621 N614 0.984 . S
H622 N610 0.984 . S
H623 N610 0.985 . S
C624 C625 1.363 . S
C624 C630 1.379 . S
C624 N632 1.356 . S
C625 C624 1.363 . S
C625 C631 1.363 . S
C626 C627 1.363 . S
C626 C631 1.379 . S
C626 N633 1.356 . S
C627 C626 1.363 . S
C627 C630 1.363 . S
N628 C630 1.356 . S
N628 H640 0.984 . S
N628 H641 0.985 . S
N629 C631 1.356 . S
N629 H634 0.984 . S
N629 H635 0.985 . S
C630 C624 1.379 . S
C630 C627 1.363 . S
C630 N628 1.356 . S
C631 C625 1.363 . S
C631 C626 1.379 . S
C631 N629 1.356 . S
N632 C624 1.356 . S
N632 H638 0.984 . S
N632 H639 0.984 . S
N633 C626 1.356 . S
N633 H636 0.984 . S
N633 H637 0.985 . S
H634 N629 0.984 . S
H635 N629 0.985 . S
H636 N633 0.984 . S
H637 N633 0.985 . S
H638 N632 0.984 . S
H639 N632 0.984 . S
H640 N628 0.984 . S
H641 N628 0.985 . S
C642 C643 1.363 . S
C642 C648 1.379 1_554 S
C642 N650 1.356 . S
C643 C642 1.363 . S
C643 C649 1.363 . S
C644 C645 1.363 . S
C644 C649 1.379 1_556 S
C644 N651 1.356 . S
C645 C644 1.363 . S
C645 C648 1.363 . S
N646 C648 1.356 . S
N646 H658 0.984 . S
N646 H659 0.985 . S
N647 C649 1.356 . S
N647 H652 0.984 . S
N647 H653 0.985 . S
C648 C642 1.379 1_556 S
C648 C645 1.363 . S
C648 N646 1.356 . S
C649 C643 1.363 . S
C649 C644 1.379 1_554 S
C649 N647 1.356 . S
N650 C642 1.356 . S
N650 H656 0.984 . S
N650 H657 0.984 . S
N651 C644 1.356 . S
N651 H654 0.984 . S
N651 H655 0.985 . S
H652 N647 0.984 . S
H653 N647 0.985 . S
H654 N651 0.984 . S
H655 N651 0.985 . S
H656 N650 0.984 . S
H657 N650 0.984 . S
H658 N646 0.984 . S
H659 N646 0.985 . S
C660 C661 1.363 . S
C660 C666 1.379 . S
C660 N668 1.356 . S
C661 C660 1.363 . S
C661 C667 1.363 . S
C662 C663 1.363 . S
C662 C667 1.379 . S
C662 N669 1.356 . S
C663 C662 1.363 . S
C663 C666 1.363 . S
N664 C666 1.356 . S
N664 H676 0.984 . S
N664 H677 0.985 . S
N665 C667 1.356 . S
N665 H670 0.984 . S
N665 H671 0.985 . S
C666 C660 1.379 . S
C666 C663 1.363 . S
C666 N664 1.356 . S
C667 C661 1.363 . S
C667 C662 1.379 . S
C667 N665 1.356 . S
N668 C660 1.356 . S
N668 H674 0.984 . S
N668 H675 0.984 . S
N669 C662 1.356 . S
N669 H672 0.984 . S
N669 H673 0.985 . S
H670 N665 0.984 . S
H671 N665 0.985 . S
H672 N669 0.984 . S
H673 N669 0.985 . S
H674 N668 0.984 . S
H675 N668 0.984 . S
H676 N664 0.984 . S
H677 N664 0.985 . S
C678 C679 1.363 . S
C678 C684 1.379 . S
C678 N686 1.356 . S
C679 C678 1.363 . S
C679 C685 1.363 . S
C680 C681 1.363 . S
C680 C685 1.379 . S
C680 N687 1.356 . S
C681 C680 1.363 . S
C681 C684 1.363 . S
N682 C684 1.356 . S
N682 H694 0.984 . S
N682 H695 0.985 . S
N683 C685 1.356 . S
N683 H688 0.984 . S
N683 H689 0.985 . S
C684 C678 1.379 . S
C684 C681 1.363 . S
C684 N682 1.356 . S
C685 C679 1.363 . S
C685 C680 1.379 . S
C685 N683 1.356 . S
N686 C678 1.356 . S
N686 H692 0.984 . S
N686 H693 0.984 . S
N687 C680 1.356 . S
N687 H690 0.984 . S
N687 H691 0.985 . S
H688 N683 0.984 . S
H689 N683 0.985 . S
H690 N687 0.984 . S
H691 N687 0.985 . S
H692 N686 0.984 . S
H693 N686 0.984 . S
H694 N682 0.984 . S
H695 N682 0.985 . S
C696 C697 1.363 1_545 S
C696 C702 1.379 1_556 S
C696 N704 1.356 . S
C697 C696 1.363 1_565 S
C697 C703 1.363 . S
C698 C699 1.363 1_565 S
C698 C703 1.379 1_554 S
C698 N705 1.356 . S
C699 C698 1.363 1_545 S
C699 C702 1.363 . S
N700 C702 1.356 . S
N700 H712 0.984 . S
N700 H713 0.985 . S
N701 C703 1.356 . S
N701 H706 0.984 . S
N701 H707 0.985 . S
C702 C696 1.379 1_554 S
C702 C699 1.363 . S
C702 N700 1.356 . S
C703 C697 1.363 . S
C703 C698 1.379 1_556 S
C703 N701 1.356 . S
N704 C696 1.356 . S
N704 H710 0.984 . S
N704 H711 0.984 1_545 S
N705 C698 1.356 . S
N705 H708 0.984 1_565 S
N705 H709 0.985 . S
H706 N701 0.984 . S
H707 N701 0.985 . S
H708 N705 0.984 1_545 S
H709 N705 0.985 . S
H710 N704 0.984 . S
H711 N704 0.984 1_565 S
H712 N700 0.984 . S
H713 N700 0.985 . S
C714 C715 1.363 . S
C714 C720 1.379 . S
C714 N722 1.356 . S
C715 C714 1.363 . S
C715 C721 1.363 . S
C716 C717 1.363 . S
C716 C721 1.379 . S
C716 N723 1.356 . S
C717 C716 1.363 . S
C717 C720 1.363 . S
N718 C720 1.356 . S
N718 H730 0.984 . S
N718 H731 0.985 . S
N719 C721 1.356 . S
N719 H724 0.984 . S
N719 H725 0.985 . S
C720 C714 1.379 . S
C720 C717 1.363 . S
C720 N718 1.356 . S
C721 C715 1.363 . S
C721 C716 1.379 . S
C721 N719 1.356 . S
N722 C714 1.356 . S
N722 H728 0.984 . S
N722 H729 0.984 . S
N723 C716 1.356 . S
N723 H726 0.984 . S
N723 H727 0.985 . S
H724 N719 0.984 . S
H725 N719 0.985 . S
H726 N723 0.984 . S
H727 N723 0.985 . S
H728 N722 0.984 . S
H729 N722 0.984 . S
H730 N718 0.984 . S
H731 N718 0.985 . S
C732 C733 1.363 1_655 S
C732 C738 1.379 . S
C732 N740 1.356 . S
C733 C732 1.363 1_455 S
C733 C739 1.363 . S
C734 C735 1.363 1_455 S
C734 C739 1.379 . S
C734 N741 1.356 . S
C735 C734 1.363 1_655 S
C735 C738 1.363 . S
N736 C738 1.356 . S
N736 H748 0.984 . S
N736 H749 0.985 . S
N737 C739 1.356 . S
N737 H742 0.984 . S
N737 H743 0.985 . S
C738 C732 1.379 . S
C738 C735 1.363 . S
C738 N736 1.356 . S
C739 C733 1.363 . S
C739 C734 1.379 . S
C739 N737 1.356 . S
N740 C732 1.356 . S
N740 H746 0.984 . S
N740 H747 0.984 . S
N741 C734 1.356 . S
N741 H744 0.984 . S
N741 H745 0.985 . S
H742 N737 0.984 . S
H743 N737 0.985 . S
H744 N741 0.984 . S
H745 N741 0.985 . S
H746 N740 0.984 . S
H747 N740 0.984 . S
H748 N736 0.984 . S
H749 N736 0.985 . S
C750 C751 1.363 . S
C750 C756 1.379 1_554 S
C750 N758 1.356 . S
C751 C750 1.363 . S
C751 C757 1.363 1_565 S
C752 C753 1.363 . S
C752 C757 1.379 1_556 S
C752 N759 1.356 . S
C753 C752 1.363 . S
C753 C756 1.363 1_545 S
N754 C756 1.356 . S
N754 H766 0.984 . S
N754 H767 0.985 . S
N755 C757 1.356 . S
N755 H760 0.984 . S
N755 H761 0.985 . S
C756 C750 1.379 1_556 S
C756 C753 1.363 1_565 S
C756 N754 1.356 . S
C757 C751 1.363 1_545 S
C757 C752 1.379 1_554 S
C757 N755 1.356 . S
N758 C750 1.356 . S
N758 H764 0.984 1_554 S
N758 H765 0.984 . S
N759 C752 1.356 . S
N759 H762 0.984 . S
N759 H763 0.985 1_556 S
H760 N755 0.984 . S
H761 N755 0.985 . S
H762 N759 0.984 . S
H763 N759 0.985 1_554 S
H764 N758 0.984 1_556 S
H765 N758 0.984 . S
H766 N754 0.984 . S
H767 N754 0.985 . S
C768 C769 1.363 . S
C768 C774 1.379 . S
C768 N776 1.356 . S
C769 C768 1.363 . S
C769 C775 1.363 . S
C770 C771 1.363 . S
C770 C775 1.379 . S
C770 N777 1.356 . S
C771 C770 1.363 . S
C771 C774 1.363 . S
N772 C774 1.356 . S
N772 H784 0.984 . S
N772 H785 0.985 . S
N773 C775 1.356 . S
N773 H778 0.984 . S
N773 H779 0.985 . S
C774 C768 1.379 . S
C774 C771 1.363 . S
C774 N772 1.356 . S
C775 C769 1.363 . S
C775 C770 1.379 . S
C775 N773 1.356 . S
N776 C768 1.356 . S
N776 H782 0.984 . S
N776 H783 0.984 . S
N777 C770 1.356 . S
N777 H780 0.984 . S
N777 H781 0.985 . S
H778 N773 0.984 . S
H779 N773 0.985 . S
H780 N777 0.984 . S
H781 N777 0.985 . S
H782 N776 0.984 . S
H783 N776 0.984 . S
H784 N772 0.984 . S
H785 N772 0.985 . S
C786 C787 1.363 . S
C786 C792 1.379 1_455 S
C786 N794 1.356 . S
C787 C786 1.363 . S
C787 C793 1.363 . S
C788 C789 1.363 . S
C788 C793 1.379 1_655 S
C788 N795 1.356 . S
C789 C788 1.363 . S
C789 C792 1.363 . S
N790 C792 1.356 . S
N790 H802 0.984 . S
N790 H803 0.985 . S
N791 C793 1.356 . S
N791 H796 0.984 . S
N791 H797 0.985 . S
C792 C786 1.379 1_655 S
C792 C789 1.363 . S
C792 N790 1.356 . S
C793 C787 1.363 . S
C793 C788 1.379 1_455 S
C793 N791 1.356 . S
N794 C786 1.356 . S
N794 H800 0.984 1_455 S
N794 H801 0.984 . S
N795 C788 1.356 . S
N795 H798 0.984 . S
N795 H799 0.985 1_655 S
H796 N791 0.984 . S
H797 N791 0.985 . S
H798 N795 0.984 . S
H799 N795 0.985 1_455 S
H800 N794 0.984 1_655 S
H801 N794 0.984 . S
H802 N790 0.984 . S
H803 N790 0.985 . S
C804 C805 1.348 1_565 S
C804 C810 1.401 . S
C804 N812 1.343 1_565 S
C805 C804 1.348 1_545 S
C805 C811 1.363 . S
C806 C807 1.348 1_545 S
C806 C811 1.401 . S
C806 N813 1.343 1_545 S
C807 C806 1.348 1_565 S
C807 C810 1.363 . S
N808 C810 1.356 . S
N808 H820 0.984 . S
N808 H821 0.985 . S
N809 C811 1.356 . S
N809 H814 0.984 . S
N809 H815 0.985 . S
C810 C804 1.401 . S
C810 C807 1.363 . S
C810 N808 1.356 . S
C811 C805 1.363 . S
C811 C806 1.401 . S
C811 N809 1.356 . S
N812 C804 1.343 1_545 S
N812 H818 0.984 1_545 S
N812 H819 0.984 . S
N813 C806 1.343 1_565 S
N813 H816 0.984 . S
N813 H817 0.985 1_565 S
H814 N809 0.984 . S
H815 N809 0.985 . S
H816 N813 0.984 . S
H817 N813 0.985 1_545 S
H818 N812 0.984 1_565 S
H819 N812 0.984 . S
H820 N808 0.984 . S
H821 N808 0.985 . S
C822 C823 1.363 . S
C822 C828 1.379 . S
C822 N830 1.356 . S
C823 C822 1.363 . S
C823 C829 1.363 . S
C824 C825 1.363 . S
C824 C829 1.379 . S
C824 N831 1.356 . S
C825 C824 1.363 . S
C825 C828 1.363 . S
N826 C828 1.356 . S
N826 H838 0.984 . S
N826 H839 0.985 . S
N827 C829 1.356 . S
N827 H832 0.984 . S
N827 H833 0.985 . S
C828 C822 1.379 . S
C828 C825 1.363 . S
C828 N826 1.356 . S
C829 C823 1.363 . S
C829 C824 1.379 . S
C829 N827 1.356 . S
N830 C822 1.356 . S
N830 H836 0.984 . S
N830 H837 0.984 . S
N831 C824 1.356 . S
N831 H834 0.984 . S
N831 H835 0.985 . S
H832 N827 0.984 . S
H833 N827 0.985 . S
H834 N831 0.984 . S
H835 N831 0.985 . S
H836 N830 0.984 . S
H837 N830 0.984 . S
H838 N826 0.984 . S
H839 N826 0.985 . S
C840 C841 1.349 1_455 S
C840 C846 1.384 . S
C840 N848 1.362 1_455 S
C841 C840 1.349 1_655 S
C841 C847 1.363 . S
C842 C843 1.349 1_655 S
C842 C847 1.384 . S
C842 N849 1.362 1_655 S
C843 C842 1.349 1_455 S
C843 C846 1.363 . S
N844 C846 1.356 . S
N844 H856 0.984 . S
N844 H857 0.985 . S
N845 C847 1.356 . S
N845 H850 0.984 . S
N845 H851 0.985 1_556 S
C846 C840 1.384 . S
C846 C843 1.363 . S
C846 N844 1.356 . S
C847 C841 1.363 . S
C847 C842 1.384 . S
C847 N845 1.356 . S
N848 C840 1.362 1_655 S
N848 H854 0.984 1_655 S
N848 H855 0.984 . S
N849 C842 1.362 1_455 S
N849 H852 0.984 . S
N849 H853 0.985 1_456 S
H850 N845 0.984 . S
H851 N845 0.985 1_554 S
H852 N849 0.984 . S
H853 N849 0.985 1_654 S
H854 N848 0.984 1_455 S
H855 N848 0.984 . S
H856 N844 0.984 . S
H857 N844 0.985 . S
C858 C859 1.363 . S
C858 C864 1.401 . S
C858 N866 1.356 . S
C859 C858 1.363 . S
C859 C865 1.348 1_455 S
C860 C861 1.363 . S
C860 C865 1.401 . S
C860 N867 1.356 . S
C861 C860 1.363 . S
C861 C864 1.348 1_655 S
N862 C864 1.343 1_655 S
N862 H874 0.984 1_655 S
N862 H875 0.985 . S
N863 C865 1.343 1_455 S
N863 H868 0.984 . S
N863 H869 0.985 1_455 S
C864 C858 1.401 . S
C864 C861 1.348 1_455 S
C864 N862 1.343 1_455 S
C865 C859 1.348 1_655 S
C865 C860 1.401 . S
C865 N863 1.343 1_655 S
N866 C858 1.356 . S
N866 H872 0.984 . S
N866 H873 0.984 . S
N867 C860 1.356 . S
N867 H870 0.984 . S
N867 H871 0.985 . S
H868 N863 0.984 . S
H869 N863 0.985 1_655 S
H870 N867 0.984 . S
H871 N867 0.985 . S
H872 N866 0.984 . S
H873 N866 0.984 . S
H874 N862 0.984 1_455 S
H875 N862 0.985 . S
C876 C877 1.363 . S
C876 C882 1.384 . S
C876 N884 1.356 . S
C877 C876 1.363 . S
C877 C883 1.348 1_565 S
C878 C879 1.363 . S
C878 C883 1.384 . S
C878 N885 1.356 . S
C879 C878 1.363 . S
C879 C882 1.348 1_545 S
N880 C882 1.362 1_545 S
N880 H892 0.984 1_545 S
N880 H893 0.985 . S
N881 C883 1.362 1_565 S
N881 H886 0.984 . S
N881 H887 0.985 1_565 S
C882 C876 1.384 . S
C882 C879 1.348 1_565 S
C882 N880 1.362 1_565 S
C883 C877 1.348 1_545 S
C883 C878 1.384 . S
C883 N881 1.362 1_545 S
N884 C876 1.356 . S
N884 H890 0.984 . S
N884 H891 0.984 . S
N885 C878 1.356 . S
N885 H888 0.984 . S
N885 H889 0.985 . S
H886 N881 0.984 . S
H887 N881 0.985 1_545 S
H888 N885 0.984 . S
H889 N885 0.985 . S
H890 N884 0.984 . S
H891 N884 0.984 . S
H892 N880 0.984 1_565 S
H893 N880 0.985 . S
C894 C895 1.363 . S
C894 C900 1.379 . S
C894 N902 1.356 . S
C895 C894 1.363 . S
C895 C901 1.363 . S
C896 C897 1.363 . S
C896 C901 1.379 . S
C896 N903 1.356 . S
C897 C896 1.363 . S
C897 C900 1.363 . S
N898 C900 1.356 . S
N898 H910 0.984 1_554 S
N898 H911 0.985 . S
N899 C901 1.356 . S
N899 H904 0.984 . S
N899 H905 0.985 . S
C900 C894 1.379 . S
C900 C897 1.363 . S
C900 N898 1.356 . S
C901 C895 1.363 . S
C901 C896 1.379 . S
C901 N899 1.356 . S
N902 C894 1.356 . S
N902 H908 0.984 1_554 S
N902 H909 0.984 . S
N903 C896 1.356 . S
N903 H906 0.984 . S
N903 H907 0.985 . S
H904 N899 0.984 . S
H905 N899 0.985 . S
H906 N903 0.984 . S
H907 N903 0.985 . S
H908 N902 0.984 1_556 S
H909 N902 0.984 . S
H910 N898 0.984 1_556 S
H911 N898 0.985 . S
C912 C913 1.363 . S
C912 C918 1.379 1_565 S
C912 N920 1.356 . S
C913 C912 1.363 . S
C913 C919 1.363 . S
C914 C915 1.363 . S
C914 C919 1.379 1_545 S
C914 N921 1.356 . S
C915 C914 1.363 . S
C915 C918 1.363 . S
N916 C918 1.356 . S
N916 H928 0.984 . S
N916 H929 0.985 . S
N917 C919 1.356 . S
N917 H922 0.984 . S
N917 H923 0.985 . S
C918 C912 1.379 1_545 S
C918 C915 1.363 . S
C918 N916 1.356 . S
C919 C913 1.363 . S
C919 C914 1.379 1_565 S
C919 N917 1.356 . S
N920 C912 1.356 . S
N920 H926 0.984 . S
N920 H927 0.984 . S
N921 C914 1.356 . S
N921 H924 0.984 . S
N921 H925 0.985 . S
H922 N917 0.984 . S
H923 N917 0.985 . S
H924 N921 0.984 . S
H925 N921 0.985 . S
H926 N920 0.984 . S
H927 N920 0.984 . S
H928 N916 0.984 . S
H929 N916 0.985 . S
C930 C931 1.363 . S
C930 C936 1.379 . S
C930 N938 1.356 . S
C931 C930 1.363 . S
C931 C937 1.363 . S
C932 C933 1.363 . S
C932 C937 1.379 . S
C932 N939 1.356 . S
C933 C932 1.363 . S
C933 C936 1.363 . S
N934 C936 1.356 . S
N934 H946 0.984 . S
N934 H947 0.985 . S
N935 C937 1.356 . S
N935 H940 0.984 . S
N935 H941 0.985 . S
C936 C930 1.379 . S
C936 C933 1.363 . S
C936 N934 1.356 . S
C937 C931 1.363 . S
C937 C932 1.379 . S
C937 N935 1.356 . S
N938 C930 1.356 . S
N938 H944 0.984 . S
N938 H945 0.984 . S
N939 C932 1.356 . S
N939 H942 0.984 . S
N939 H943 0.985 . S
H940 N935 0.984 . S
H941 N935 0.985 . S
H942 N939 0.984 . S
H943 N939 0.985 . S
H944 N938 0.984 . S
H945 N938 0.984 . S
H946 N934 0.984 . S
H947 N934 0.985 . S
C948 C949 1.363 . S
C948 C954 1.379 1_655 S
C948 N956 1.356 . S
C949 C948 1.363 . S
C949 C955 1.363 . S
C950 C951 1.363 . S
C950 C955 1.379 1_455 S
C950 N957 1.356 . S
C951 C950 1.363 . S
C951 C954 1.363 . S
N952 C954 1.356 . S
N952 H964 0.984 . S
N952 H965 0.985 . S
N953 C955 1.356 . S
N953 H958 0.984 . S
N953 H959 0.985 . S
C954 C948 1.379 1_455 S
C954 C951 1.363 . S
C954 N952 1.356 . S
C955 C949 1.363 . S
C955 C950 1.379 1_655 S
C955 N953 1.356 . S
N956 C948 1.356 . S
N956 H962 0.984 . S
N956 H963 0.984 . S
N957 C950 1.356 . S
N957 H960 0.984 . S
N957 H961 0.985 . S
H958 N953 0.984 . S
H959 N953 0.985 . S
H960 N957 0.984 . S
H961 N957 0.985 . S
H962 N956 0.984 . S
H963 N956 0.984 . S
H964 N952 0.984 . S
H965 N952 0.985 . S
C966 C967 1.363 . S
C966 C972 1.379 1_545 S
C966 N974 1.356 . S
C967 C966 1.363 . S
C967 C973 1.363 . S
C968 C969 1.363 . S
C968 C973 1.379 1_565 S
C968 N975 1.356 . S
C969 C968 1.363 . S
C969 C972 1.363 . S
N970 C972 1.356 . S
N970 H982 0.984 . S
N970 H983 0.985 . S
N971 C973 1.356 . S
N971 H976 0.984 . S
N971 H977 0.985 . S
C972 C966 1.379 1_565 S
C972 C969 1.363 . S
C972 N970 1.356 . S
C973 C967 1.363 . S
C973 C968 1.379 1_545 S
C973 N971 1.356 . S
N974 C966 1.356 . S
N974 H980 0.984 . S
N974 H981 0.984 . S
N975 C968 1.356 . S
N975 H978 0.984 . S
N975 H979 0.985 . S
H976 N971 0.984 . S
H977 N971 0.985 . S
H978 N975 0.984 . S
H979 N975 0.985 . S
H980 N974 0.984 . S
H981 N974 0.984 . S
H982 N970 0.984 . S
H983 N970 0.985 . S
C984 C985 1.363 . S
C984 C990 1.379 . S
C984 N992 1.356 . S
C985 C984 1.363 . S
C985 C991 1.363 . S
C986 C987 1.363 . S
C986 C991 1.379 . S
C986 N993 1.356 . S
C987 C986 1.363 . S
C987 C990 1.363 . S
N988 C990 1.356 . S
N988 H1000 0.984 . S
N988 H1001 0.985 . S
N989 C991 1.356 . S
N989 H994 0.984 . S
N989 H995 0.985 . S
C990 C984 1.379 . S
C990 C987 1.363 . S
C990 N988 1.356 . S
C991 C985 1.363 . S
C991 C986 1.379 . S
C991 N989 1.356 . S
N992 C984 1.356 . S
N992 H998 0.984 . S
N992 H999 0.984 . S
N993 C986 1.356 . S
N993 H996 0.984 . S
N993 H997 0.985 . S
H994 N989 0.984 . S
H995 N989 0.985 . S
H996 N993 0.984 . S
H997 N993 0.985 . S
H998 N992 0.984 . S
H999 N992 0.984 . S
H1000 N988 0.984 . S
H1001 N988 0.985 . S
C1002 C1003 1.363 . S
C1002 C1008 1.379 1_455 S
C1002 N1010 1.356 . S
C1003 C1002 1.363 . S
C1003 C1009 1.363 . S
C1004 C1005 1.363 . S
C1004 C1009 1.379 1_655 S
C1004 N1011 1.356 . S
C1005 C1004 1.363 . S
C1005 C1008 1.363 . S
N1006 C1008 1.356 . S
N1006 H1018 0.984 . S
N1006 H1019 0.985 . S
N1007 C1009 1.356 . S
N1007 H1012 0.984 . S
N1007 H1013 0.985 . S
C1008 C1002 1.379 1_655 S
C1008 C1005 1.363 . S
C1008 N1006 1.356 . S
C1009 C1003 1.363 . S
C1009 C1004 1.379 1_455 S
C1009 N1007 1.356 . S
N1010 C1002 1.356 . S
N1010 H1016 0.984 . S
N1010 H1017 0.984 . S
N1011 C1004 1.356 . S
N1011 H1014 0.984 . S
N1011 H1015 0.985 . S
H1012 N1007 0.984 . S
H1013 N1007 0.985 . S
H1014 N1011 0.984 . S
H1015 N1011 0.985 . S
H1016 N1010 0.984 . S
H1017 N1010 0.984 . S
H1018 N1006 0.984 . S
H1019 N1006 0.985 . S
C1020 C1021 1.363 . S
C1020 C1026 1.379 . S
C1020 N1028 1.356 . S
C1021 C1020 1.363 . S
C1021 C1027 1.363 . S
C1022 C1023 1.363 . S
C1022 C1027 1.379 . S
C1022 N1029 1.356 . S
C1023 C1022 1.363 . S
C1023 C1026 1.363 . S
N1024 C1026 1.356 . S
N1024 H1036 0.984 . S
N1024 H1037 0.985 . S
N1025 C1027 1.356 . S
N1025 H1030 0.984 . S
N1025 H1031 0.985 . S
C1026 C1020 1.379 . S
C1026 C1023 1.363 . S
C1026 N1024 1.356 . S
C1027 C1021 1.363 . S
C1027 C1022 1.379 . S
C1027 N1025 1.356 . S
N1028 C1020 1.356 . S
N1028 H1034 0.984 . S
N1028 H1035 0.984 . S
N1029 C1022 1.356 . S
N1029 H1032 0.984 . S
N1029 H1033 0.985 . S
H1030 N1025 0.984 . S
H1031 N1025 0.985 . S
H1032 N1029 0.984 . S
H1033 N1029 0.985 . S
H1034 N1028 0.984 . S
H1035 N1028 0.984 . S
H1036 N1024 0.984 . S
H1037 N1024 0.985 . S
C1038 C1039 1.363 . S
C1038 C1044 1.379 . S
C1038 N1046 1.356 . S
C1039 C1038 1.363 . S
C1039 C1045 1.363 . S
C1040 C1041 1.363 . S
C1040 C1045 1.379 . S
C1040 N1047 1.356 . S
C1041 C1040 1.363 . S
C1041 C1044 1.363 . S
N1042 C1044 1.356 . S
N1042 H1054 0.984 . S
N1042 H1055 0.985 . S
N1043 C1045 1.356 . S
N1043 H1048 0.984 . S
N1043 H1049 0.985 . S
C1044 C1038 1.379 . S
C1044 C1041 1.363 . S
C1044 N1042 1.356 . S
C1045 C1039 1.363 . S
C1045 C1040 1.379 . S
C1045 N1043 1.356 . S
N1046 C1038 1.356 . S
N1046 H1052 0.984 . S
N1046 H1053 0.984 . S
N1047 C1040 1.356 . S
N1047 H1050 0.984 . S
N1047 H1051 0.985 . S
H1048 N1043 0.984 . S
H1049 N1043 0.985 . S
H1050 N1047 0.984 . S
H1051 N1047 0.985 . S
H1052 N1046 0.984 . S
H1053 N1046 0.984 . S
H1054 N1042 0.984 . S
H1055 N1042 0.985 . S
C1056 C1057 1.363 . S
C1056 C1062 1.379 . S
C1056 N1064 1.356 . S
C1057 C1056 1.363 . S
C1057 C1063 1.363 . S
C1058 C1059 1.363 . S
C1058 C1063 1.379 . S
C1058 N1065 1.356 . S
C1059 C1058 1.363 . S
C1059 C1062 1.363 . S
N1060 C1062 1.356 . S
N1060 H1072 0.984 . S
N1060 H1073 0.985 . S
N1061 C1063 1.356 . S
N1061 H1066 0.984 . S
N1061 H1067 0.985 . S
C1062 C1056 1.379 . S
C1062 C1059 1.363 . S
C1062 N1060 1.356 . S
C1063 C1057 1.363 . S
C1063 C1058 1.379 . S
C1063 N1061 1.356 . S
N1064 C1056 1.356 . S
N1064 H1070 0.984 . S
N1064 H1071 0.984 . S
N1065 C1058 1.356 . S
N1065 H1068 0.984 . S
N1065 H1069 0.985 . S
H1066 N1061 0.984 . S
H1067 N1061 0.985 . S
H1068 N1065 0.984 . S
H1069 N1065 0.985 . S
H1070 N1064 0.984 . S
H1071 N1064 0.984 . S
H1072 N1060 0.984 . S
H1073 N1060 0.985 . S
C1074 C1075 1.363 . S
C1074 C1080 1.379 . S
C1074 N1082 1.356 . S
C1075 C1074 1.363 . S
C1075 C1081 1.363 . S
C1076 C1077 1.363 . S
C1076 C1081 1.379 . S
C1076 N1083 1.356 . S
C1077 C1076 1.363 . S
C1077 C1080 1.363 . S
N1078 C1080 1.356 . S
N1078 H1090 0.984 . S
N1078 H1091 0.985 . S
N1079 C1081 1.356 . S
N1079 H1084 0.984 . S
N1079 H1085 0.985 . S
C1080 C1074 1.379 . S
C1080 C1077 1.363 . S
C1080 N1078 1.356 . S
C1081 C1075 1.363 . S
C1081 C1076 1.379 . S
C1081 N1079 1.356 . S
N1082 C1074 1.356 . S
N1082 H1088 0.984 . S
N1082 H1089 0.984 . S
N1083 C1076 1.356 . S
N1083 H1086 0.984 . S
N1083 H1087 0.985 . S
H1084 N1079 0.984 . S
H1085 N1079 0.985 . S
H1086 N1083 0.984 . S
H1087 N1083 0.985 . S
H1088 N1082 0.984 . S
H1089 N1082 0.984 . S
H1090 N1078 0.984 . S
H1091 N1078 0.985 . S
C1092 C1093 1.363 . S
C1092 C1098 1.379 . S
C1092 N1100 1.356 . S
C1093 C1092 1.363 . S
C1093 C1099 1.363 . S
C1094 C1095 1.363 . S
C1094 C1099 1.379 . S
C1094 N1101 1.356 . S
C1095 C1094 1.363 . S
C1095 C1098 1.363 . S
N1096 C1098 1.356 . S
N1096 H1108 0.984 . S
N1096 H1109 0.985 . S
N1097 C1099 1.356 . S
N1097 H1102 0.984 . S
N1097 H1103 0.985 . S
C1098 C1092 1.379 . S
C1098 C1095 1.363 . S
C1098 N1096 1.356 . S
C1099 C1093 1.363 . S
C1099 C1094 1.379 . S
C1099 N1097 1.356 . S
N1100 C1092 1.356 . S
N1100 H1106 0.984 . S
N1100 H1107 0.984 . S
N1101 C1094 1.356 . S
N1101 H1104 0.984 . S
N1101 H1105 0.985 . S
H1102 N1097 0.984 . S
H1103 N1097 0.985 . S
H1104 N1101 0.984 . S
H1105 N1101 0.985 . S
H1106 N1100 0.984 . S
H1107 N1100 0.984 . S
H1108 N1096 0.984 . S
H1109 N1096 0.985 . S
C1110 C1111 1.363 . S
C1110 C1116 1.379 . S
C1110 N1118 1.356 . S
C1111 C1110 1.363 . S
C1111 C1117 1.363 . S
C1112 C1113 1.363 . S
C1112 C1117 1.379 . S
C1112 N1119 1.356 . S
C1113 C1112 1.363 . S
C1113 C1116 1.363 . S
N1114 C1116 1.356 . S
N1114 H1126 0.984 . S
N1114 H1127 0.985 . S
N1115 C1117 1.356 . S
N1115 H1120 0.984 . S
N1115 H1121 0.985 . S
C1116 C1110 1.379 . S
C1116 C1113 1.363 . S
C1116 N1114 1.356 . S
C1117 C1111 1.363 . S
C1117 C1112 1.379 . S
C1117 N1115 1.356 . S
N1118 C1110 1.356 . S
N1118 H1124 0.984 . S
N1118 H1125 0.984 . S
N1119 C1112 1.356 . S
N1119 H1122 0.984 . S
N1119 H1123 0.985 . S
H1120 N1115 0.984 . S
H1121 N1115 0.985 . S
H1122 N1119 0.984 . S
H1123 N1119 0.985 . S
H1124 N1118 0.984 . S
H1125 N1118 0.984 . S
H1126 N1114 0.984 . S
H1127 N1114 0.985 . S
C481 C2 1.360 . S
C483 C322 1.360 . S
C499 C42 1.360 . S
C501 C362 1.360 . S
C517 C82 1.361 . S
C519 C402 1.361 . S
C535 C442 1.360 . S
C537 C122 1.360 . S
C553 C162 1.360 . S
C555 C242 1.360 . S
C571 C282 1.361 . S
C573 C202 1.361 . S
C589 C426 1.300 . S
C591 C26 1.300 . S
C607 C466 1.300 . S
C609 C66 1.300 . S
C625 C106 1.300 . S
C627 C266 1.300 . S
C643 C306 1.300 . S
C645 C146 1.300 . S
C661 C346 1.300 . S
C663 C186 1.300 . S
C679 C226 1.300 . S
C681 C386 1.300 . S
C697 C283 4.463 . S
C699 C3 4.463 . S
C715 C323 4.463 . S
C717 C43 4.463 . S
C733 C363 4.463 . S
C735 C83 4.463 . S
C751 C123 4.463 . S
C753 C403 4.463 . S
C769 C163 4.463 . S
C771 C443 4.463 . S
C787 C203 4.463 . S
C789 C243 4.463 . S
C805 C15 1.176 . S
C807 C135 1.176 . S
C823 C55 1.176 . S
C825 C175 1.176 . S
C841 C95 1.176 . S
C843 C215 1.176 . S
C859 C375 1.176 . S
C861 C255 1.176 . S
C877 C295 1.176 . S
C879 C415 1.176 . S
C895 C455 1.176 . S
C897 C335 1.176 . S
C913 C289 0.820 . S
C915 C9 0.820 . S
C931 C329 0.820 . S
C933 C49 0.820 . S
C949 C89 0.820 . S
C951 C369 0.820 . S
C967 C409 0.820 . S
C969 C129 0.820 . S
C985 C449 0.820 . S
C987 C169 0.820 . S
C1003 C209 0.820 . S
C1005 C249 0.820 . S
C1021 C22 4.723 . S
C1023 C422 4.723 . S
C1039 C62 4.723 . S
C1041 C462 4.723 1_556 S
C1057 C102 4.723 1_554 S
C1059 C262 4.723 . S
C1075 C142 4.723 . S
C1077 C302 4.723 . S
C1093 C182 4.723 . S
C1095 C342 4.723 1_556 S
C1111 C382 4.723 . S
C1113 C222 4.723 1_554 S
