# Generated by pormake.
# Topology unl, (4)-cn, num edge types: 1
# Building blocks:
#     Node 0, Type 0, BuildingBlock: NAHDIM_clean_sbu_0, # of connection points: 4
#     Node 1, Type 0, BuildingBlock: NAHDIM_clean_sbu_0, # of connection points: 4
#     Node 2, Type 0, BuildingBlock: NAHDIM_clean_sbu_0, # of connection points: 4
#     Node 3, Type 0, BuildingBlock: NAHDIM_clean_sbu_0, # of connection points: 4
#     Node 4, Type 0, BuildingBlock: NAHDIM_clean_sbu_0, # of connection points: 4
#     Node 5, Type 0, BuildingBlock: NAHDIM_clean_sbu_0, # of connection points: 4
#     Node 6, Type 0, BuildingBlock: NAHDIM_clean_sbu_0, # of connection points: 4
#     Node 7, Type 0, BuildingBlock: NAHDIM_clean_sbu_0, # of connection points: 4
#     Node 8, Type 0, BuildingBlock: NAHDIM_clean_sbu_0, # of connection points: 4
#     Node 9, Type 0, BuildingBlock: NAHDIM_clean_sbu_0, # of connection points: 4
#     Node 10, Type 0, BuildingBlock: NAHDIM_clean_sbu_0, # of connection points: 4
#     Node 11, Type 0, BuildingBlock: NAHDIM_clean_sbu_0, # of connection points: 4
#     Node 12, Type 0, BuildingBlock: NAHDIM_clean_sbu_0, # of connection points: 4
#     Node 13, Type 0, BuildingBlock: NAHDIM_clean_sbu_0, # of connection points: 4
#     Node 14, Type 0, BuildingBlock: NAHDIM_clean_sbu_0, # of connection points: 4
#     Node 15, Type 0, BuildingBlock: NAHDIM_clean_sbu_0, # of connection points: 4
#     Node 16, Type 0, BuildingBlock: NAHDIM_clean_sbu_0, # of connection points: 4
#     Node 17, Type 0, BuildingBlock: NAHDIM_clean_sbu_0, # of connection points: 4
#     Node 18, Type 0, BuildingBlock: NAHDIM_clean_sbu_0, # of connection points: 4
#     Node 19, Type 0, BuildingBlock: NAHDIM_clean_sbu_0, # of connection points: 4
#     Node 20, Type 0, BuildingBlock: NAHDIM_clean_sbu_0, # of connection points: 4
#     Node 21, Type 0, BuildingBlock: NAHDIM_clean_sbu_0, # of connection points: 4
#     Node 22, Type 0, BuildingBlock: NAHDIM_clean_sbu_0, # of connection points: 4
#     Node 23, Type 0, BuildingBlock: NAHDIM_clean_sbu_0, # of connection points: 4
#     Node 24, Type 0, BuildingBlock: NAHDIM_clean_sbu_0, # of connection points: 4
#     Node 25, Type 0, BuildingBlock: NAHDIM_clean_sbu_0, # of connection points: 4
#     Node 26, Type 0, BuildingBlock: NAHDIM_clean_sbu_0, # of connection points: 4
#     Node 27, Type 0, BuildingBlock: NAHDIM_clean_sbu_0, # of connection points: 4
#     Node 28, Type 0, BuildingBlock: NAHDIM_clean_sbu_0, # of connection points: 4
#     Node 29, Type 0, BuildingBlock: NAHDIM_clean_sbu_0, # of connection points: 4
#     Node 30, Type 0, BuildingBlock: NAHDIM_clean_sbu_0, # of connection points: 4
#     Node 31, Type 0, BuildingBlock: NAHDIM_clean_sbu_0, # of connection points: 4
#     Node 32, Type 0, BuildingBlock: NAHDIM_clean_sbu_0, # of connection points: 4
#     Node 33, Type 0, BuildingBlock: NAHDIM_clean_sbu_0, # of connection points: 4
#     Node 34, Type 0, BuildingBlock: NAHDIM_clean_sbu_0, # of connection points: 4
#     Node 35, Type 0, BuildingBlock: NAHDIM_clean_sbu_0, # of connection points: 4
#     Edge 36, Type (0, 0), BuildingBlock: OJICUG_clean_linker_0, # of connection points: 2
#     Edge 37, Type (0, 0), BuildingBlock: OJICUG_clean_linker_0, # of connection points: 2
#     Edge 38, Type (0, 0), BuildingBlock: OJICUG_clean_linker_0, # of connection points: 2
#     Edge 39, Type (0, 0), BuildingBlock: OJICUG_clean_linker_0, # of connection points: 2
#     Edge 40, Type (0, 0), BuildingBlock: OJICUG_clean_linker_0, # of connection points: 2
#     Edge 41, Type (0, 0), BuildingBlock: OJICUG_clean_linker_0, # of connection points: 2
#     Edge 42, Type (0, 0), BuildingBlock: OJICUG_clean_linker_0, # of connection points: 2
#     Edge 43, Type (0, 0), BuildingBlock: OJICUG_clean_linker_0, # of connection points: 2
#     Edge 44, Type (0, 0), BuildingBlock: OJICUG_clean_linker_0, # of connection points: 2
#     Edge 45, Type (0, 0), BuildingBlock: OJICUG_clean_linker_0, # of connection points: 2
#     Edge 46, Type (0, 0), BuildingBlock: OJICUG_clean_linker_0, # of connection points: 2
#     Edge 47, Type (0, 0), BuildingBlock: OJICUG_clean_linker_0, # of connection points: 2
#     Edge 48, Type (0, 0), BuildingBlock: OJICUG_clean_linker_0, # of connection points: 2
#     Edge 49, Type (0, 0), BuildingBlock: OJICUG_clean_linker_0, # of connection points: 2
#     Edge 50, Type (0, 0), BuildingBlock: OJICUG_clean_linker_0, # of connection points: 2
#     Edge 51, Type (0, 0), BuildingBlock: OJICUG_clean_linker_0, # of connection points: 2
#     Edge 52, Type (0, 0), BuildingBlock: OJICUG_clean_linker_0, # of connection points: 2
#     Edge 53, Type (0, 0), BuildingBlock: OJICUG_clean_linker_0, # of connection points: 2
#     Edge 54, Type (0, 0), BuildingBlock: OJICUG_clean_linker_0, # of connection points: 2
#     Edge 55, Type (0, 0), BuildingBlock: OJICUG_clean_linker_0, # of connection points: 2
#     Edge 56, Type (0, 0), BuildingBlock: OJICUG_clean_linker_0, # of connection points: 2
#     Edge 57, Type (0, 0), BuildingBlock: OJICUG_clean_linker_0, # of connection points: 2
#     Edge 58, Type (0, 0), BuildingBlock: OJICUG_clean_linker_0, # of connection points: 2
#     Edge 59, Type (0, 0), BuildingBlock: OJICUG_clean_linker_0, # of connection points: 2
#     Edge 60, Type (0, 0), BuildingBlock: OJICUG_clean_linker_0, # of connection points: 2
#     Edge 61, Type (0, 0), BuildingBlock: OJICUG_clean_linker_0, # of connection points: 2
#     Edge 62, Type (0, 0), BuildingBlock: OJICUG_clean_linker_0, # of connection points: 2
#     Edge 63, Type (0, 0), BuildingBlock: OJICUG_clean_linker_0, # of connection points: 2
#     Edge 64, Type (0, 0), BuildingBlock: OJICUG_clean_linker_0, # of connection points: 2
#     Edge 65, Type (0, 0), BuildingBlock: OJICUG_clean_linker_0, # of connection points: 2
#     Edge 66, Type (0, 0), BuildingBlock: OJICUG_clean_linker_0, # of connection points: 2
#     Edge 67, Type (0, 0), BuildingBlock: OJICUG_clean_linker_0, # of connection points: 2
#     Edge 68, Type (0, 0), BuildingBlock: OJICUG_clean_linker_0, # of connection points: 2
#     Edge 69, Type (0, 0), BuildingBlock: OJICUG_clean_linker_0, # of connection points: 2
#     Edge 70, Type (0, 0), BuildingBlock: OJICUG_clean_linker_0, # of connection points: 2
#     Edge 71, Type (0, 0), BuildingBlock: OJICUG_clean_linker_0, # of connection points: 2
#     Edge 72, Type (0, 0), BuildingBlock: OJICUG_clean_linker_0, # of connection points: 2
#     Edge 73, Type (0, 0), BuildingBlock: OJICUG_clean_linker_0, # of connection points: 2
#     Edge 74, Type (0, 0), BuildingBlock: OJICUG_clean_linker_0, # of connection points: 2
#     Edge 75, Type (0, 0), BuildingBlock: OJICUG_clean_linker_0, # of connection points: 2
#     Edge 76, Type (0, 0), BuildingBlock: OJICUG_clean_linker_0, # of connection points: 2
#     Edge 77, Type (0, 0), BuildingBlock: OJICUG_clean_linker_0, # of connection points: 2
#     Edge 78, Type (0, 0), BuildingBlock: OJICUG_clean_linker_0, # of connection points: 2
#     Edge 79, Type (0, 0), BuildingBlock: OJICUG_clean_linker_0, # of connection points: 2
#     Edge 80, Type (0, 0), BuildingBlock: OJICUG_clean_linker_0, # of connection points: 2
#     Edge 81, Type (0, 0), BuildingBlock: OJICUG_clean_linker_0, # of connection points: 2
#     Edge 82, Type (0, 0), BuildingBlock: OJICUG_clean_linker_0, # of connection points: 2
#     Edge 83, Type (0, 0), BuildingBlock: OJICUG_clean_linker_0, # of connection points: 2
#     Edge 84, Type (0, 0), BuildingBlock: OJICUG_clean_linker_0, # of connection points: 2
#     Edge 85, Type (0, 0), BuildingBlock: OJICUG_clean_linker_0, # of connection points: 2
#     Edge 86, Type (0, 0), BuildingBlock: OJICUG_clean_linker_0, # of connection points: 2
#     Edge 87, Type (0, 0), BuildingBlock: OJICUG_clean_linker_0, # of connection points: 2
#     Edge 88, Type (0, 0), BuildingBlock: OJICUG_clean_linker_0, # of connection points: 2
#     Edge 89, Type (0, 0), BuildingBlock: OJICUG_clean_linker_0, # of connection points: 2
#     Edge 90, Type (0, 0), BuildingBlock: OJICUG_clean_linker_0, # of connection points: 2
#     Edge 91, Type (0, 0), BuildingBlock: OJICUG_clean_linker_0, # of connection points: 2
#     Edge 92, Type (0, 0), BuildingBlock: OJICUG_clean_linker_0, # of connection points: 2
#     Edge 93, Type (0, 0), BuildingBlock: OJICUG_clean_linker_0, # of connection points: 2
#     Edge 94, Type (0, 0), BuildingBlock: OJICUG_clean_linker_0, # of connection points: 2
#     Edge 95, Type (0, 0), BuildingBlock: OJICUG_clean_linker_0, # of connection points: 2
#     Edge 96, Type (0, 0), BuildingBlock: OJICUG_clean_linker_0, # of connection points: 2
#     Edge 97, Type (0, 0), BuildingBlock: OJICUG_clean_linker_0, # of connection points: 2
#     Edge 98, Type (0, 0), BuildingBlock: OJICUG_clean_linker_0, # of connection points: 2
#     Edge 99, Type (0, 0), BuildingBlock: OJICUG_clean_linker_0, # of connection points: 2
#     Edge 100, Type (0, 0), BuildingBlock: OJICUG_clean_linker_0, # of connection points: 2
#     Edge 101, Type (0, 0), BuildingBlock: OJICUG_clean_linker_0, # of connection points: 2
#     Edge 102, Type (0, 0), BuildingBlock: OJICUG_clean_linker_0, # of connection points: 2
#     Edge 103, Type (0, 0), BuildingBlock: OJICUG_clean_linker_0, # of connection points: 2
#     Edge 104, Type (0, 0), BuildingBlock: OJICUG_clean_linker_0, # of connection points: 2
#     Edge 105, Type (0, 0), BuildingBlock: OJICUG_clean_linker_0, # of connection points: 2
#     Edge 106, Type (0, 0), BuildingBlock: OJICUG_clean_linker_0, # of connection points: 2
#     Edge 107, Type (0, 0), BuildingBlock: OJICUG_clean_linker_0, # of connection points: 2
# Relax obj value: 0.179
# Max RMSD: 0.222
# Mean RMSD: 0.222
data_MOF--net-unl--node1-NAHDIM_clean_sbu_0--edge1-OJICUG_clean_linker_0
_symmetry_space_group_name_H-M    P1
_symmetry_Int_Tables_number       1
_symmetry_cell_setting            triclinic
loop_
_symmetry_equiv_pos_as_xyz
'x, y, z'
_cell_length_a     48.105621
_cell_length_b     48.144558
_cell_length_c     28.686965
_cell_angle_alpha  89.984988
_cell_angle_beta   90.045019
_cell_angle_gamma 120.03609
loop_
_atom_site_label
_atom_site_type_symbol
_atom_site_fract_x
_atom_site_fract_y
_atom_site_fract_z
_atom_type_partial_charge
C0 C 0.25962 0.12358 0.14992 0.0
O1 O 0.24259 0.09578 0.17088 0.0
O2 O 0.18554 0.06414 0.10689 0.0
Zn3 Zn 0.19716 0.10931 0.12244 0.0
O4 O 0.17713 0.11364 0.18159 0.0
C5 C 0.16742 0.10963 0.0344 0.0
O6 O 0.1623 0.08024 0.03069 0.0
O7 O 0.24517 0.1352 0.12707 0.0
C8 C 0.14762 0.10561 0.18355 0.0
O9 O 0.1291 0.09193 0.14721 0.0
C10 C 0.16208 0.03769 0.1206 0.0
O11 O 0.14227 0.03764 0.15211 0.0
O12 O 0.18229 0.12642 0.06983 0.0
C13 C 0.84712 0.12375 0.13427 0.0
O14 O 0.87058 0.12607 0.16054 0.0
O15 O 0.90983 0.11678 0.07189 0.0
Zn16 Zn 0.86396 0.08406 0.08419 0.0
O17 O 0.85805 0.05467 0.1377 0.0
C18 C 0.86177 0.06187 0.98914 0.0
O19 O 0.89017 0.08769 0.9852 0.0
O20 O 0.83943 0.10652 0.0978 0.0
C21 C 0.87314 0.03954 0.14363 0.0
O22 O 0.89617 0.04408 0.11464 0.0
C23 C 0.93496 0.12596 0.09631 0.0
O24 O 0.93287 0.11377 0.13799 0.0
O25 O 0.84629 0.05648 0.02716 0.0
C26 C 0.86301 0.72688 0.13153 0.0
O27 O 0.8634 0.7471 0.16263 0.0
O28 O 0.87169 0.79981 0.06154 0.0
Zn29 Zn 0.90214 0.78498 0.08101 0.0
O30 O 0.92834 0.80841 0.13758 0.0
C31 C 0.93062 0.80331 0.98823 0.0
O32 O 0.9051 0.80525 0.97751 0.0
O33 O 0.87796 0.73768 0.09336 0.0
C34 C 0.95479 0.83462 0.13316 0.0
O35 O 0.96385 0.84738 0.09153 0.0
C36 C 0.87492 0.82693 0.07182 0.0
O37 O 0.89803 0.8461 0.10025 0.0
O38 O 0.93314 0.7941 0.02876 0.0
C39 C 0.12378 0.25128 0.36193 0.0
O40 O 0.10451 0.22916 0.33232 0.0
O41 O 0.06811 0.1772 0.435 0.0
Zn42 Zn 0.1134 0.19601 0.41209 0.0
O43 O 0.11918 0.17501 0.35512 0.0
C44 C 0.13124 0.18542 0.50502 0.0
O45 O 0.10562 0.18603 0.51932 0.0
O46 O 0.13135 0.24277 0.39952 0.0
C47 C 0.10042 0.14763 0.33758 0.0
O48 O 0.07176 0.12949 0.35557 0.0
C49 C 0.04226 0.16949 0.41315 0.0
O50 O 0.04256 0.17204 0.36755 0.0
O51 O 0.13903 0.19024 0.46222 0.0
C52 C 0.72118 0.86441 0.32318 0.0
O53 O 0.73856 0.85689 0.29633 0.0
O54 O 0.79036 0.8678 0.37253 0.0
Zn55 Zn 0.78261 0.90428 0.35991 0.0
O56 O 0.8027 0.9298 0.30174 0.0
C57 C 0.82427 0.93763 0.43625 0.0
O58 O 0.83845 0.922 0.42152 0.0
O59 O 0.7351 0.88549 0.35465 0.0
C60 C 0.83251 0.94694 0.293 0.0
O61 O 0.85364 0.94699 0.32208 0.0
C62 C 0.80942 0.85979 0.35452 0.0
O63 O 0.82766 0.87624 0.31927 0.0
O64 O 0.79938 0.93391 0.4151 0.0
C65 C 0.11118 0.85897 0.33912 0.0
O66 O 0.11701 0.88336 0.31213 0.0
O67 O 0.09343 0.91909 0.396 0.0
Zn68 Zn 0.06463 0.87255 0.37995 0.0
O69 O 0.03705 0.86584 0.32379 0.0
C70 C 0.03792 0.85992 0.47501 0.0
O71 O 0.06491 0.88514 0.4882 0.0
O72 O 0.08977 0.85019 0.37042 0.0
C73 C 0.04364 0.88329 0.2877 0.0
O74 O 0.0717 0.90963 0.28437 0.0
C75 C 0.11956 0.92735 0.41748 0.0
O76 O 0.12789 0.90566 0.42569 0.0
O77 O 0.03401 0.85114 0.43259 0.0
C78 C 0.72506 0.86879 0.83881 0.0
O79 O 0.7426 0.89576 0.81608 0.0
O80 O 0.80002 0.92775 0.88303 0.0
Zn81 Zn 0.7868 0.88237 0.86646 0.0
O82 O 0.80344 0.87695 0.80503 0.0
C83 C 0.81348 0.87769 0.95509 0.0
O84 O 0.81596 0.90564 0.96363 0.0
O85 O 0.73896 0.85762 0.86385 0.0
C86 C 0.83252 0.88493 0.79742 0.0
O87 O 0.85418 0.90005 0.82995 0.0
C88 C 0.82271 0.95408 0.86755 0.0
O89 O 0.84116 0.95393 0.83397 0.0
O90 O 0.80169 0.86369 0.91652 0.0
C91 C 0.12839 0.86401 0.85631 0.0
O92 O 0.10455 0.86171 0.83099 0.0
O93 O 0.07255 0.8814 0.90914 0.0
Zn94 Zn 0.11928 0.91153 0.89806 0.0
O95 O 0.12878 0.94012 0.84231 0.0
C96 C 0.12306 0.93253 0.99391 0.0
O97 O 0.09564 0.90562 -0.00144 0.0
O98 O 0.13987 0.88483 0.88859 0.0
C99 C 0.11565 0.95665 0.83244 0.0
O100 O 0.09247 0.95469 0.85893 0.0
C101 C 0.04754 0.87283 0.88468 0.0
O102 O 0.04984 0.88502 0.84295 0.0
O103 O 0.13749 0.93929 0.95484 0.0
C104 C 0.12422 0.25365 0.84671 0.0
O105 O 0.12906 0.23267 0.82424 0.0
O106 O 0.10764 0.18292 0.91869 0.0
Zn107 Zn 0.07789 0.19748 0.89507 0.0
O108 O 0.05261 0.1722 0.83875 0.0
C109 C 0.0505 0.18673 0.98865 0.0
O110 O 0.07652 0.18647 0.00184 0.0
O111 O 0.10323 0.24398 0.87874 0.0
C112 C 0.02314 0.15074 0.84207 0.0
O113 O 0.00935 0.14387 0.88323 0.0
C114 C 0.10223 0.15442 0.91409 0.0
O115 O 0.07705 0.13363 0.89015 0.0
O116 O 0.04708 0.19183 0.94611 0.0
C117 C 0.84141 0.72475 0.62859 0.0
O118 O 0.86496 0.74741 0.65302 0.0
O119 O 0.8981 0.79434 0.56198 0.0
Zn120 Zn 0.85214 0.7791 0.57725 0.0
O121 O 0.84673 0.80318 0.63042 0.0
C122 C 0.84399 0.78987 0.47993 0.0
O123 O 0.86991 0.78771 0.47392 0.0
O124 O 0.8309 0.73252 0.59325 0.0
C125 C 0.86451 0.83297 0.63867 0.0
O126 O 0.88947 0.85045 0.61199 0.0
C127 C 0.9237 0.80803 0.58599 0.0
O128 O 0.92271 0.81493 0.63003 0.0
O129 O 0.83182 0.78585 0.52046 0.0
C130 C 0.27316 0.12593 0.64466 0.0
O131 O 0.25375 0.13001 0.67239 0.0
O132 O 0.19946 0.1122 0.58881 0.0
Zn133 Zn 0.21343 0.08076 0.60636 0.0
O134 O 0.19385 0.05713 0.66595 0.0
C135 C 0.17861 0.0432 0.52635 0.0
O136 O 0.16507 0.06103 0.52859 0.0
O137 O 0.26122 0.10499 0.61262 0.0
C138 C 0.16388 0.04211 0.67432 0.0
O139 O 0.14399 0.04325 0.64403 0.0
C140 C 0.18535 0.12363 0.61282 0.0
O141 O 0.17798 0.11499 0.65655 0.0
O142 O 0.20043 0.04783 0.55552 0.0
C143 C 0.87522 0.14109 0.64022 0.0
O144 O 0.90583 0.15974 0.64987 0.0
O145 O 0.87068 0.05192 0.58822 0.0
Zn146 Zn 0.89581 0.09635 0.61426 0.0
O147 O 0.9184 0.0982 0.67469 0.0
C148 C 0.92677 0.11877 0.52343 0.0
O149 O 0.89901 0.09719 0.5059 0.0
O150 O 0.86564 0.11313 0.6243 0.0
C151 C 0.94774 0.10546 0.67387 0.0
O152 O 0.96203 0.10924 0.63348 0.0
C153 C 0.88464 0.03688 0.57477 0.0
O154 O 0.91556 0.04945 0.58242 0.0
O155 O 0.9296 0.12323 0.56725 0.0
C156 C 0.91008 0.4449 0.49066 0.0
O157 O 0.89045 0.42021 0.51641 0.0
O158 O 0.83547 0.38626 0.43575 0.0
Zn159 Zn 0.85097 0.43236 0.45055 0.0
O160 O 0.83152 0.43948 0.508 0.0
C161 C 0.83483 0.44036 0.35547 0.0
O162 O 0.83563 0.41395 0.34701 0.0
O163 O 0.89852 0.45475 0.4592 0.0
C164 C 0.80213 0.43142 0.51238 0.0
O165 O 0.78173 0.41511 0.47897 0.0
C166 C 0.81351 0.3608 0.45446 0.0
O167 O 0.79763 0.36266 0.49041 0.0
O168 O 0.84083 0.45216 0.39636 0.0
C169 C 0.5216 0.46289 0.45397 0.0
O170 O 0.54679 0.46575 0.47622 0.0
O171 O 0.57406 0.4447 0.38368 0.0
Zn172 Zn 0.52927 0.41583 0.40633 0.0
O173 O 0.52855 0.39125 0.46327 0.0
C174 C 0.51558 0.38197 0.31803 0.0
O175 O 0.54509 0.40405 0.30757 0.0
O176 O 0.50922 0.44235 0.42146 0.0
C177 C 0.53288 0.36736 0.45976 0.0
O178 O 0.53967 0.36008 0.41878 0.0
C179 C 0.59968 0.45151 0.40547 0.0
O180 O 0.59795 0.43948 0.44717 0.0
O181 O 0.50376 0.38333 0.357 0.0
C182 C 0.51067 0.06088 0.50458 0.0
O183 O 0.51059 0.08136 0.53477 0.0
O184 O 0.52985 0.1376 0.43453 0.0
Zn185 Zn 0.55621 0.11803 0.45458 0.0
O186 O 0.58489 0.14095 0.50974 0.0
C187 C 0.57813 0.12519 0.35838 0.0
O188 O 0.55097 0.12408 0.34816 0.0
O189 O 0.52805 0.07135 0.46837 0.0
C190 C 0.61454 0.16113 0.50358 0.0
O191 O 0.6259 0.16803 0.46093 0.0
C192 C 0.54401 0.16748 0.42591 0.0
O193 O 0.57456 0.18523 0.43652 0.0
O194 O 0.58425 0.12189 0.40047 0.0
C195 C 0.78909 0.59159 0.67853 0.0
O196 O 0.76552 0.56888 0.65421 0.0
O197 O 0.73461 0.52243 0.75109 0.0
Zn198 Zn 0.77953 0.53741 0.72981 0.0
O199 O 0.78296 0.51329 0.675 0.0
C200 C 0.79204 0.52352 0.82358 0.0
O201 O 0.76421 0.52105 0.83327 0.0
O202 O 0.79994 0.58388 0.71355 0.0
C203 C 0.76423 0.48413 0.66402 0.0
O204 O 0.73807 0.46663 0.68845 0.0
C205 C 0.70796 0.51092 0.72979 0.0
O206 O 0.70655 0.50606 0.68459 0.0
O207 O 0.80342 0.53132 0.7826 0.0
C208 C 0.41052 0.20688 0.66316 0.0
O209 O 0.4302 0.20524 0.63303 0.0
O210 O 0.49146 0.22941 0.71587 0.0
Zn211 Zn 0.46938 0.255 0.70551 0.0
O212 O 0.48735 0.28442 0.65047 0.0
C213 C 0.47953 0.27562 0.8032 0.0
O214 O 0.47681 0.24762 0.81227 0.0
O215 O 0.42199 0.22646 0.69696 0.0
C216 C 0.50049 0.2801 0.61497 0.0
O217 O 0.50324 0.25433 0.61244 0.0
C218 C 0.47577 0.20118 0.73236 0.0
O219 O 0.44482 0.1885 0.73976 0.0
O220 O 0.47685 0.28281 0.76143 0.0
C221 C 0.78336 0.18238 0.67782 0.0
O222 O 0.75257 0.16288 0.67044 0.0
O223 O 0.78197 0.26819 0.7335 0.0
Zn224 Zn 0.75981 0.22277 0.71047 0.0
O225 O 0.73126 0.21627 0.65473 0.0
C226 C 0.73542 0.204 0.80504 0.0
O227 O 0.76121 0.23087 0.81712 0.0
O228 O 0.79249 0.20997 0.69488 0.0
C229 C 0.70128 0.20513 0.66075 0.0
O230 O 0.6897 0.19948 0.70331 0.0
C231 C 0.76584 0.28206 0.741 0.0
O232 O 0.7356 0.26777 0.72805 0.0
O233 O 0.73149 0.19518 0.76261 0.0
C234 C 0.39827 0.19008 0.15834 0.0
O235 O 0.41557 0.21688 0.13512 0.0
O236 O 0.47373 0.25248 0.20085 0.0
Zn237 Zn 0.45992 0.20571 0.19554 0.0
O238 O 0.48296 0.19662 0.14457 0.0
C239 C 0.49488 0.21247 0.27974 0.0
O240 O 0.51249 0.24183 0.26384 0.0
O241 O 0.41224 0.18011 0.18558 0.0
C242 C 0.5001 0.21613 0.11287 0.0
O243 O 0.50329 0.24485 0.11139 0.0
C244 C 0.4574 0.25914 0.22876 0.0
O245 O 0.43196 0.23549 0.24869 0.0
O246 O 0.47064 0.19237 0.25631 0.0
C247 C 0.77756 0.18771 0.18778 0.0
O248 O 0.75351 0.18486 0.16242 0.0
O249 O 0.7151 0.19129 0.25988 0.0
Zn250 Zn 0.7598 0.22511 0.24368 0.0
O251 O 0.76108 0.25399 0.19196 0.0
C252 C 0.76554 0.24928 0.3385 0.0
O253 O 0.73608 0.2253 0.34355 0.0
O254 O 0.78498 0.20422 0.22496 0.0
C255 C 0.75918 0.27889 0.20073 0.0
O256 O 0.7542 0.28454 0.24383 0.0
C257 C 0.68934 0.1879 0.24237 0.0
O258 O 0.69086 0.20681 0.20825 0.0
O259 O 0.7801 0.25271 0.30008 0.0
C260 C 0.79344 0.59029 0.16644 0.0
O261 O 0.79342 0.57018 0.13545 0.0
O262 O 0.77896 0.51512 0.23747 0.0
Zn263 Zn 0.75101 0.53166 0.21267 0.0
O264 O 0.72758 0.51103 0.15337 0.0
C265 C 0.71797 0.51461 0.30205 0.0
O266 O 0.74395 0.51517 0.31754 0.0
O267 O 0.77701 0.57924 0.20341 0.0
C268 C 0.70615 0.48157 0.15065 0.0
O269 O 0.70126 0.46251 0.18626 0.0
C270 C 0.783 0.49246 0.22303 0.0
O271 O 0.76895 0.47725 0.18439 0.0
O272 O 0.71668 0.52183 0.25981 0.0
C273 C 0.52786 0.06168 0.96611 0.0
O274 O 0.54707 0.08187 -0.00216 0.0
O275 O 0.59485 0.13229 0.89515 0.0
Zn276 Zn 0.54993 0.11952 0.91427 0.0
O277 O 0.5473 0.14291 0.97087 0.0
C278 C 0.54352 0.14931 0.8303 0.0
O279 O 0.57505 0.16427 0.83029 0.0
O280 O 0.5254 0.07241 0.92684 0.0
C281 C 0.55102 0.17094 0.96792 0.0
O282 O 0.55986 0.18625 0.92795 0.0
C283 C 0.62071 0.15252 0.91518 0.0
O284 O 0.61938 0.16672 0.95351 0.0
O285 O 0.52814 0.1288 0.86192 0.0
C286 C 0.89636 0.44922 0.01847 0.0
O287 O 0.87768 0.4581 0.03908 0.0
O288 O 0.82488 0.4385 0.96229 0.0
Zn289 Zn 0.83758 0.40511 0.97278 0.0
O290 O 0.81183 0.3727 0.02193 0.0
C291 C 0.80614 0.37569 0.88749 0.0
O292 O 0.78692 0.38601 0.90157 0.0
O293 O 0.8843 0.42648 0.98902 0.0
C294 C 0.80274 0.37795 0.06083 0.0
O295 O 0.80929 0.40718 0.0713 0.0
C296 C 0.84314 0.46042 0.93401 0.0
O297 O 0.86896 0.46062 0.91861 0.0
O298 O 0.83021 0.38122 0.9125 0.0
C299 C 0.52589 0.46357 0.98906 0.0
O300 O 0.52326 0.44013 0.01562 0.0
O301 O 0.54134 0.40636 0.9184 0.0
Zn302 Zn 0.57045 0.45093 0.94167 0.0
O303 O 0.59668 0.45404 -0.00205 0.0
C304 C 0.59726 0.46663 0.84808 0.0
O305 O 0.56895 0.44345 0.8347 0.0
O306 O 0.54499 0.47256 0.95458 0.0
C307 C 0.61216 0.43925 0.00336 0.0
O308 O 0.60928 0.41779 0.97257 0.0
C309 C 0.53117 0.37878 0.93616 0.0
O310 O 0.53932 0.37606 0.9789 0.0
O311 O 0.60223 0.47424 0.89096 0.0
C312 C 0.58729 0.7989 0.8175 0.0
O313 O 0.56967 0.77138 0.83889 0.0
O314 O 0.51751 0.73874 0.75802 0.0
Zn315 Zn 0.52682 0.78224 0.77827 0.0
O316 O 0.50308 0.78117 0.83673 0.0
C317 C 0.50697 0.79094 0.68564 0.0
O318 O 0.50837 0.76524 0.67424 0.0
O319 O 0.57389 0.80902 0.78951 0.0
C320 C 0.47878 0.78498 0.83478 0.0
O321 O 0.46792 0.7875 0.79391 0.0
C322 C 0.49499 0.71197 0.77248 0.0
O323 O 0.47565 0.71132 0.80531 0.0
O324 O 0.5145 0.80216 0.72673 0.0
C325 C 0.17766 0.77822 0.82454 0.0
O326 O 0.20214 0.7812 0.84894 0.0
O327 O 0.23163 0.75945 0.76765 0.0
Zn328 Zn 0.18592 0.72969 0.78542 0.0
O329 O 0.1794 0.70457 0.84427 0.0
C330 C 0.17584 0.70472 0.69143 0.0
O331 O 0.20026 0.73318 0.6816 0.0
O332 O 0.16534 0.75648 0.79361 0.0
C333 C 0.19267 0.68839 0.85547 0.0
O334 O 0.21482 0.68873 0.82834 0.0
C335 C 0.25855 0.76992 0.7878 0.0
O336 O 0.25996 0.76039 0.83019 0.0
O337 O 0.1652 0.69849 0.73294 0.0
C338 C 0.19794 0.38882 0.80351 0.0
O339 O 0.19309 0.40947 0.82692 0.0
O340 O 0.21179 0.45996 0.74104 0.0
Zn341 Zn 0.2431 0.44652 0.76122 0.0
O342 O 0.2674 0.4681 0.81963 0.0
C343 C 0.2702 0.46192 0.668 0.0
O344 O 0.24167 0.4567 0.65562 0.0
O345 O 0.21918 0.39913 0.77179 0.0
C346 C 0.28286 0.49814 0.82728 0.0
O347 O 0.2819 0.51789 0.79656 0.0
C348 C 0.2 0.4746 0.76285 0.0
O349 O 0.20843 0.48355 0.80626 0.0
O350 O 0.27537 0.45794 0.71027 0.0
C351 C 0.45343 0.92598 0.00527 0.0
O352 O 0.43439 0.90578 0.97344 0.0
O353 O 0.38671 0.8543 0.07555 0.0
Zn354 Zn 0.43177 0.8681 0.05692 0.0
O355 O 0.43342 0.84446 -0.00018 0.0
C356 C 0.44198 0.85272 0.15152 0.0
O357 O 0.41613 0.85412 0.16196 0.0
O358 O 0.45592 0.91525 0.04453 0.0
C359 C 0.44117 0.82283 0.00274 0.0
O360 O 0.44671 0.81467 0.04392 0.0
C361 C 0.36453 0.82525 0.07199 0.0
O362 O 0.37071 0.80452 0.05156 0.0
O363 O 0.45284 0.85872 0.11013 0.0
C364 C 0.03346 0.51911 0.04868 0.0
O365 O 0.05208 0.51093 0.02624 0.0
O366 O 0.10719 0.53415 0.09976 0.0
Zn367 Zn 0.0939 0.56622 0.08326 0.0
O368 O 0.11429 0.59063 0.02443 0.0
C369 C 0.11425 0.59364 0.17608 0.0
O370 O 0.11179 0.56593 0.18652 0.0
O371 O 0.04614 0.54305 0.07605 0.0
C372 C 0.14422 0.60487 0.0158 0.0
O373 O 0.16378 0.60251 0.04541 0.0
C374 C 0.1203 0.52205 0.07495 0.0
O375 O 0.12739 0.53071 0.03117 0.0
O376 O 0.10717 0.59828 0.13519 0.0
C377 C 0.44921 0.52298 0.02446 0.0
O378 O 0.45168 0.54605 -0.00282 0.0
O379 O 0.42788 0.57807 0.08746 0.0
Zn380 Zn 0.40128 0.53325 0.06351 0.0
O381 O 0.37941 0.52933 0.00221 0.0
C382 C 0.37001 0.51424 0.15376 0.0
O383 O 0.39855 0.53452 0.17049 0.0
O384 O 0.42871 0.51304 0.05721 0.0
C385 C 0.36549 0.5445 0.98898 0.0
O386 O 0.36675 0.56743 0.01527 0.0
C387 C 0.44239 0.60492 0.06666 0.0
O388 O 0.44101 0.60612 0.02102 0.0
O389 O 0.36639 0.50939 0.11007 0.0
C390 C 0.04699 0.51013 0.5224 0.0
O391 O 0.06632 0.53543 0.49744 0.0
O392 O 0.11788 0.56999 0.58496 0.0
Zn393 Zn 0.10642 0.52621 0.5626 0.0
O394 O 0.12738 0.5256 0.50245 0.0
C395 C 0.12641 0.51516 0.6531 0.0
O396 O 0.12153 0.5383 0.66737 0.0
O397 O 0.05884 0.50075 0.55409 0.0
C398 C 0.15711 0.53492 0.49873 0.0
O399 O 0.17622 0.54871 0.53449 0.0
C400 C 0.13723 0.59739 0.56816 0.0
O401 O 0.15267 0.59959 0.52934 0.0
O402 O 0.12051 0.50586 0.61094 0.0
C403 C 0.46567 0.54017 0.50586 0.0
O404 O 0.44116 0.53793 0.48239 0.0
O405 O 0.40734 0.54861 0.57463 0.0
Zn406 Zn 0.45233 0.58149 0.55767 0.0
O407 O 0.4559 0.61012 0.50439 0.0
C408 C 0.45913 0.60371 0.65323 0.0
O409 O 0.43242 0.57643 0.65998 0.0
O410 O 0.47588 0.5585 0.54119 0.0
C411 C 0.43741 0.6211 0.4949 0.0
O412 O 0.41145 0.6123 0.5199 0.0
C413 C 0.38096 0.53475 0.55249 0.0
O414 O 0.37981 0.54188 0.5086 0.0
O415 O 0.47231 0.60995 0.61325 0.0
C416 C 0.43702 0.92411 0.53641 0.0
O417 O 0.43964 0.90438 0.50746 0.0
O418 O 0.42846 0.85205 0.59499 0.0
Zn419 Zn 0.39598 0.86484 0.57856 0.0
O420 O 0.37136 0.84476 0.51964 0.0
C421 C 0.36894 0.84347 0.67119 0.0
O422 O 0.39704 0.8467 0.68141 0.0
O423 O 0.41874 0.9126 0.57158 0.0
C424 C 0.35485 0.81477 0.51191 0.0
O425 O 0.35486 0.7945 0.54255 0.0
C426 C 0.43767 0.83502 0.57353 0.0
O427 O 0.42561 0.82302 0.53242 0.0
O428 O 0.36403 0.85077 0.6306 0.0
C429 C 0.17426 0.38559 0.32113 0.0
O430 O 0.19426 0.40773 0.35014 0.0
O431 O 0.2305 0.45836 0.24696 0.0
Zn432 Zn 0.18573 0.44099 0.27068 0.0
O433 O 0.18177 0.46307 0.32761 0.0
C434 C 0.16868 0.45333 0.17851 0.0
O435 O 0.19397 0.45215 0.16405 0.0
O436 O 0.16656 0.39413 0.28368 0.0
C437 C 0.20092 0.49101 0.34312 0.0
O438 O 0.22879 0.5089 0.3228 0.0
C439 C 0.25667 0.46653 0.26814 0.0
O440 O 0.25719 0.46536 0.31385 0.0
O441 O 0.16055 0.4479 0.22115 0.0
C442 C 0.58313 0.79717 0.30423 0.0
O443 O 0.56551 0.80485 0.33024 0.0
O444 O 0.50719 0.78063 0.25092 0.0
Zn445 Zn 0.52145 0.75027 0.2723 0.0
O446 O 0.50378 0.72969 0.33423 0.0
C447 C 0.50505 0.71836 0.18191 0.0
O448 O 0.51445 0.74709 0.16499 0.0
O449 O 0.56934 0.77394 0.27581 0.0
C450 C 0.47429 0.70938 0.34074 0.0
O451 O 0.45354 0.70369 0.30713 0.0
C452 C 0.48817 0.78828 0.27001 0.0
O453 O 0.4751 0.77579 0.31045 0.0
O454 O 0.50668 0.71484 0.22555 0.0
C455 C 0.18338 0.79333 0.32034 0.0
O456 O 0.17655 0.76831 0.34654 0.0
O457 O 0.19472 0.73169 0.2705 0.0
Zn458 Zn 0.22806 0.77716 0.28481 0.0
O459 O 0.25348 0.78329 0.34338 0.0
C460 C 0.25622 0.77771 0.19524 0.0
O461 O 0.23231 0.74806 0.19236 0.0
O462 O 0.20563 0.80242 0.29034 0.0
C463 C 0.26987 0.76993 0.35275 0.0
O464 O 0.26939 0.74842 0.32407 0.0
C465 C 0.18594 0.70517 0.29091 0.0
O466 O 0.19934 0.70462 0.33054 0.0
O467 O 0.25883 0.79441 0.23106 0.0
C468 C 0.17513 0.00952 0.05897 0.0
C469 C 0.15425 0.00826 0.09424 0.0
H470 H 0.18169 0.98651 -0.0002 0.0
C471 C 0.12456 0.97997 0.10001 0.0
H472 H 0.19837 0.03079 0.05388 0.0
C473 C 0.11503 0.95438 0.06889 0.0
C474 C 0.135 0.95679 0.03145 0.0
H475 H 0.10801 0.97819 0.127 0.0
H476 H 0.09138 0.93348 0.07277 0.0
C477 C 0.16557 0.98413 0.02784 0.0
C478 C 0.96775 0.16264 0.03246 0.0
C479 C 0.96638 0.14666 0.07411 0.0
H480 H -0.00448 0.18822 0.97321 0.0
C481 C -0.00559 0.14782 0.09081 0.0
H482 H 0.94666 0.16259 0.01901 0.0
C483 C 0.02262 0.16259 0.06431 0.0
C484 C 0.02314 0.17641 0.02087 0.0
H485 H -0.00593 0.13578 0.12288 0.0
H486 H 0.04342 0.16166 0.07669 0.0
C487 C -0.00421 0.17736 0.00617 0.0
C488 C 0.82081 0.83232 0.9813 0.0
C489 C 0.8264 0.86357 0.98836 0.0
H490 H 0.83128 0.79607 0.00259 0.0
C491 C 0.84575 0.88164 0.02598 0.0
H492 H 0.80577 0.81767 0.9529 0.0
C493 C 0.86055 0.86926 0.05452 0.0
C494 C 0.85607 0.83853 0.04611 0.0
H495 H 0.85039 0.90576 0.03243 0.0
H496 H 0.87626 0.88416 0.08221 0.0
C497 C 0.83538 0.81989 0.00995 0.0
C498 C 0.98617 0.15224 0.51476 0.0
C499 C 0.95583 0.13424 0.49385 0.0
H500 H 0.03698 0.17716 0.50576 0.0
C501 C 0.95398 0.12931 0.44534 0.0
H502 H -0.01145 0.15657 0.55199 0.0
C503 C 0.98203 0.14141 0.41855 0.0
C504 C 0.01231 0.15826 0.43999 0.0
H505 H 0.93094 0.11554 0.42821 0.0
H506 H 0.98 0.13679 0.3814 0.0
C507 C 0.01402 0.16391 0.48823 0.0
C508 C 0.84285 0.83439 0.372 0.0
C509 C 0.81505 0.83633 0.37987 0.0
H510 H 0.87382 0.81777 0.39761 0.0
C511 C 0.79452 0.81864 0.41672 0.0
H512 H 0.85906 0.84761 0.34377 0.0
C513 C 0.80302 0.8018 0.4476 0.0
C514 C 0.83214 0.80208 0.44214 0.0
H515 H 0.77263 0.81919 0.42332 0.0
H516 H 0.78747 0.78984 0.47704 0.0
C517 C 0.85131 0.81732 0.4029 0.0
C518 C 0.12582 0.9808 0.43765 0.0
C519 C 0.13744 0.95923 0.43978 0.0
H520 H 0.12984 0.02439 0.46322 0.0
C521 C 0.1647 0.96717 0.46705 0.0
H522 H 0.10495 0.97546 0.41679 0.0
C523 C 0.17894 -0.00482 0.49373 0.0
C524 C 0.1662 0.01584 0.49367 0.0
H525 H 0.1744 0.95118 0.46921 0.0
H526 H 0.19923 3e-05 0.51563 0.0
C527 C 0.14006 0.00883 0.46435 0.0
C528 C 0.86994 0.03836 0.91592 0.0
C529 C 0.84988 0.03684 0.95268 0.0
H530 H 0.87701 0.01326 0.85963 0.0
C531 C 0.81928 0.00959 0.95695 0.0
H532 H 0.8936 0.05915 0.91153 0.0
C533 C 0.80981 0.98347 0.92729 0.0
C534 C 0.83074 0.98396 0.8927 0.0
H535 H 0.80307 0.00783 0.98449 0.0
H536 H 0.78655 0.96233 0.93285 0.0
C537 C 0.86044 0.01209 0.88614 0.0
C538 C 0.95937 0.83302 0.91568 0.0
C539 C 0.95863 0.81661 0.95669 0.0
H540 H -0.01165 0.86375 0.86011 0.0
C541 C 0.98626 0.81575 0.97005 0.0
H542 H 0.93838 0.83397 0.90437 0.0
C543 C 0.01465 0.8328 0.94501 0.0
C544 C 0.01607 0.85098 0.90584 0.0
H545 H 0.98645 0.80303 0.00111 0.0
H546 H 0.03585 0.83263 0.9574 0.0
C547 C -0.01207 0.85004 0.89031 0.0
C548 C 0.11576 0.11235 0.93698 0.0
C549 C 0.12162 0.14392 0.94079 0.0
H550 H 0.1259 0.07678 0.96336 0.0
C551 C 0.14462 0.16482 0.97304 0.0
H552 H 0.09829 0.09572 0.91232 0.0
C553 C 0.16026 0.15394 0.00245 0.0
C554 C 0.15342 0.122 3e-05 0.0
H555 H 0.1498 0.18935 0.97677 0.0
H556 H 0.17713 0.17039 0.02787 0.0
C557 C 0.1316 0.10152 0.96623 0.0
C558 C 0.9544 0.80434 0.5192 0.0
C559 C 0.95446 0.81845 0.56205 0.0
H560 H 0.98078 0.80603 0.45864 0.0
C561 C 0.98335 0.84412 0.57891 0.0
H562 H 0.93259 0.78419 0.50562 0.0
C563 C 0.01122 0.85687 0.55164 0.0
C564 C 0.01049 0.84396 0.50736 0.0
H565 H 0.98405 0.85537 0.61191 0.0
H566 H 0.03284 0.87764 0.56433 0.0
C567 C 0.98208 0.81688 0.49224 0.0
C568 C 0.17454 0.1724 0.51948 0.0
C569 C 0.14818 0.17438 0.53633 0.0
H570 H 0.20704 0.15507 0.53069 0.0
C571 C 0.13653 0.16285 0.58135 0.0
H572 H 0.18438 0.18137 0.48519 0.0
C573 C 0.14972 0.14777 0.60771 0.0
C574 C 0.17461 0.14388 0.58926 0.0
H575 H 0.11634 0.16418 0.5954 0.0
H576 H 0.13938 0.13779 0.64139 0.0
C577 C 0.18753 0.15726 0.54557 0.0
C578 C 0.88298 -0.00757 0.52744 0.0
C579 C 0.86755 0.00872 0.54388 0.0
H580 H 0.88132 0.95704 0.48067 0.0
C581 C 0.83668 -0.00028 0.52713 0.0
H582 H 0.90672 -0.00128 0.53976 0.0
C583 C 0.82225 0.97604 0.49298 0.0
C584 C 0.83827 0.96071 0.47512 0.0
H585 H 0.82409 0.01177 0.53912 0.0
H586 H 0.79885 0.9703 0.47984 0.0
C587 C 0.86844 0.96858 0.4935 0.0
C588 C 0.81084 0.30121 0.36699 0.0
C589 C 0.77978 0.27509 0.37374 0.0
H590 H 0.84597 0.34857 0.38771 0.0
C591 C 0.76151 0.27562 0.41165 0.0
H592 H 0.82572 0.30141 0.33851 0.0
C593 C 0.77321 0.30283 0.44008 0.0
C594 C 0.8033 0.32988 0.43092 0.0
H595 H 0.73756 0.25574 0.41798 0.0
H596 H 0.75798 0.30329 0.46751 0.0
C597 C 0.82245 0.32829 0.39523 0.0
C598 C 0.65924 0.47381 0.40098 0.0
C599 C 0.63092 0.47074 0.38189 0.0
H600 H 0.70923 0.49031 0.39072 0.0
C601 C 0.63225 0.48472 0.33836 0.0
H602 H 0.65898 0.46339 0.43455 0.0
C603 C 0.6609 0.50014 0.31343 0.0
C604 C 0.68891 0.5019 0.33137 0.0
H605 H 0.61093 0.48306 0.32284 0.0
H606 H 0.66078 0.50984 0.27939 0.0
C607 C 0.68801 0.48924 0.37589 0.0
C608 C 0.54553 0.21263 0.38072 0.0
C609 C 0.52864 0.18035 0.39475 0.0
H610 H 0.54801 0.24816 0.33348 0.0
C611 C 0.49873 0.15963 0.37415 0.0
H612 H 0.56854 0.22926 0.39609 0.0
C613 C 0.48705 0.17041 0.33801 0.0
C614 C 0.50498 0.20216 0.3219 0.0
H615 H 0.48503 0.13463 0.38428 0.0
H616 H 0.46456 0.15351 0.32155 0.0
C617 C 0.53379 0.22344 0.34469 0.0
C618 C 0.65515 0.50373 0.83129 0.0
C619 C 0.62455 0.48079 0.81521 0.0
H620 H 0.70525 0.53121 0.81685 0.0
C621 C 0.62108 0.46984 0.76892 0.0
H622 H 0.65869 0.51291 0.86659 0.0
C623 C 0.64803 0.48053 0.74008 0.0
C624 C 0.67879 0.50212 0.75729 0.0
H625 H 0.59777 0.45223 0.75548 0.0
H626 H 0.64492 0.47095 0.7051 0.0
C627 C 0.68192 0.51417 0.80276 0.0
C628 C 0.47597 0.15605 0.77491 0.0
C629 C 0.49289 0.18514 0.75051 0.0
H630 H 0.47873 0.12175 0.81901 0.0
C631 C 0.52653 0.20019 0.74774 0.0
H632 H 0.45002 0.14368 0.77735 0.0
C633 C 0.54303 0.18753 0.77159 0.0
C634 C 0.52617 0.15968 0.79874 0.0
H635 H 0.54025 0.22251 0.72888 0.0
H636 H 0.56902 0.20044 0.77052 0.0
C637 C 0.49244 0.14348 0.79886 0.0
C638 C 0.81802 0.34332 0.8311 0.0
C639 C 0.79811 0.35529 0.8455 0.0
H640 H 0.82371 0.31115 0.78608 0.0
C641 C 0.7694 0.34595 0.82116 0.0
H642 H 0.84047 0.35032 0.84882 0.0
C643 C 0.75977 0.32348 0.78514 0.0
C644 C 0.77872 0.31 0.77267 0.0
H645 H 0.75367 0.35499 0.83108 0.0
H646 H 0.73682 0.31571 0.76845 0.0
C647 C 0.80846 0.32095 0.79497 0.0
C648 C 0.46719 0.32881 0.30119 0.0
C649 C 0.49837 0.35284 0.289 0.0
H650 H 0.42958 0.28044 0.29113 0.0
C651 C 0.51412 0.34718 0.25211 0.0
H652 H 0.45426 0.33254 0.3291 0.0
C653 C 0.49996 0.31719 0.23034 0.0
C654 C 0.46979 0.2924 0.24504 0.0
H655 H 0.53808 0.3653 0.24165 0.0
H656 H 0.51338 0.31299 0.20369 0.0
C657 C 0.45304 0.29891 0.27939 0.0
C658 C 0.65814 0.14842 0.30469 0.0
C659 C 0.65863 0.16672 0.26618 0.0
H660 H 0.63209 0.12066 0.36381 0.0
C661 C 0.63052 0.16721 0.25434 0.0
H662 H 0.67924 0.14716 0.31446 0.0
C663 C 0.60328 0.15173 0.28267 0.0
C664 C 0.60385 0.13572 0.32332 0.0
H665 H 0.63009 0.18092 0.22469 0.0
H666 H 0.58254 0.15398 0.27423 0.0
C667 C 0.63109 0.13319 0.33304 0.0
C668 C 0.81213 0.43944 0.27619 0.0
C669 C 0.82477 0.45513 0.31888 0.0
H670 H 0.78906 0.439 0.21197 0.0
C671 C 0.82621 0.48452 0.32752 0.0
H672 H 0.81082 0.41679 0.26844 0.0
C673 C 0.81396 0.49724 0.29525 0.0
C674 C 0.79983 0.48084 0.25358 0.0
H675 H 0.83611 0.49741 0.35981 0.0
H676 H 0.81471 0.51952 0.30378 0.0
C677 C 0.79972 0.45218 0.24381 0.0
C678 C 0.68014 0.18961 0.9072 0.0
C679 C 0.65169 0.16271 0.89162 0.0
H680 H 0.72929 0.22369 0.89216 0.0
C681 C 0.65245 0.1471 0.85063 0.0
H682 H 0.68038 0.20203 0.9388 0.0
C683 C 0.68038 0.15943 0.82403 0.0
C684 C 0.70822 0.18763 0.8378 0.0
H685 H 0.63107 0.12607 0.83793 0.0
H686 H 0.67967 0.14762 0.79154 0.0
C687 C 0.70819 0.20197 0.88051 0.0
C688 C 0.85074 0.50183 0.8753 0.0
C689 C 0.83262 0.48131 0.91187 0.0
H690 H 0.85216 0.53147 0.81882 0.0
C691 C 0.80285 0.47841 0.92315 0.0
H692 H 0.87392 0.50488 0.86599 0.0
C693 C 0.79044 0.49388 0.89617 0.0
C694 C 0.8075 0.51231 0.85729 0.0
H695 H 0.78842 0.46295 0.95135 0.0
H696 H 0.76673 0.48991 0.90425 0.0
C697 C 0.83826 0.51707 0.84818 0.0
C698 C 0.502 0.35394 0.86248 0.0
C699 C 0.51361 0.35044 0.90575 0.0
H700 H 0.48193 0.33305 0.79657 0.0
C701 C 0.51085 0.32077 0.91712 0.0
H702 H 0.50338 0.37636 0.85284 0.0
C703 C 0.49847 0.29572 0.88452 0.0
C704 C 0.48867 0.30004 0.84018 0.0
H705 H 0.51956 0.31736 0.95024 0.0
H706 H 0.4978 0.27353 0.89337 0.0
C707 C 0.48969 0.32907 0.83012 0.0
C708 C 0.50004 0.65782 0.68214 0.0
C709 C 0.47086 0.62921 0.68891 0.0
H710 H 0.53075 0.70621 0.70371 0.0
C711 C 0.45156 0.62669 0.7273 0.0
H712 H 0.51563 0.66039 0.65323 0.0
C713 C 0.46017 0.65314 0.75629 0.0
C714 C 0.48827 0.68244 0.74742 0.0
H715 H 0.42898 0.60488 0.73355 0.0
H716 H 0.44408 0.65103 0.78421 0.0
C717 C 0.50868 0.68411 0.71113 0.0
C718 C 0.31184 0.82379 0.69205 0.0
C719 C 0.34192 0.82795 0.70438 0.0
H720 H 0.26221 0.80251 0.70885 0.0
C721 C 0.34509 0.81513 0.74685 0.0
H722 H 0.30857 0.83356 0.65983 0.0
C723 C 0.31826 0.79719 0.7753 0.0
C724 C 0.2879 0.79172 0.76152 0.0
H725 H 0.36803 0.81804 0.75739 0.0
H726 H 0.32107 0.78666 0.80705 0.0
C727 C 0.28518 0.80587 0.72019 0.0
C728 C 0.14851 0.47885 0.66713 0.0
C729 C 0.14208 0.50246 0.68389 0.0
H730 H 0.17159 0.45152 0.67899 0.0
C731 C 0.15274 0.51515 0.72878 0.0
H732 H 0.14048 0.46839 0.63287 0.0
C733 C 0.17068 0.50535 0.7555 0.0
C734 C 0.17833 0.48284 0.73762 0.0
H735 H 0.14807 0.53333 0.74271 0.0
H736 H 0.17944 0.51619 0.78937 0.0
C737 C 0.16645 0.46922 0.69361 0.0
C738 C 0.33124 0.83489 0.12929 0.0
C739 C 0.33437 0.81406 0.0982 0.0
H740 H 0.30409 0.8397 0.18442 0.0
C741 C 0.30987 0.78179 0.09609 0.0
H742 H 0.34963 0.85994 0.13168 0.0
C743 C 0.28361 0.77021 0.12626 0.0
C744 C 0.28157 0.79066 0.15933 0.0
H745 H 0.31151 0.7652 0.07231 0.0
H746 H 0.26565 0.74498 0.12496 0.0
C747 C 0.30519 0.82327 0.1597 0.0
C748 C 0.11592 0.48625 0.1404 0.0
C749 C 0.12953 0.50025 0.09729 0.0
H750 H 0.11712 0.45988 0.19931 0.0
C751 C 0.15353 0.49521 0.0782 0.0
H752 H 0.09702 0.48929 0.1557 0.0
C753 C 0.16525 0.47834 0.10347 0.0
C754 C 0.15297 0.46614 0.148 0.0
H755 H 0.16434 0.50563 0.04491 0.0
H756 H 0.18486 0.47615 0.08903 0.0
C757 C 0.12741 0.4693 0.16538 0.0
C758 C 0.47902 0.65923 0.17077 0.0
C759 C 0.49075 0.68984 0.15126 0.0
H760 H 0.45477 0.60873 0.15951 0.0
C761 C 0.4876 0.69256 0.10296 0.0
H762 H 0.48109 0.6562 0.2078 0.0
C763 C 0.47241 0.66506 0.07493 0.0
C764 C 0.46003 0.63444 0.09485 0.0
H765 H 0.49645 0.71585 0.0869 0.0
H766 H 0.46988 0.66776 0.03795 0.0
C767 C 0.46382 0.63192 0.14298 0.0
C768 C 0.12726 0.62293 0.63679 0.0
C769 C 0.14465 0.6262 0.59579 0.0
H770 H 0.12329 0.64518 0.6988 0.0
C771 C 0.17042 0.65654 0.58396 0.0
H772 H 0.10702 0.59997 0.64673 0.0
C773 C 0.17973 0.68265 0.614 0.0
C774 C 0.16345 0.67878 0.65635 0.0
H775 H 0.18418 0.65985 0.5525 0.0
H776 H 0.20048 0.70547 0.60494 0.0
C777 C 0.13658 0.64888 0.66673 0.0
C778 C 0.32781 0.48259 0.64947 0.0
C779 C 0.29737 0.47646 0.63498 0.0
H780 H 0.37785 0.50549 0.63453 0.0
C781 C 0.29402 0.4868 0.59051 0.0
H782 H 0.33122 0.47468 0.68326 0.0
C783 C 0.32099 0.50456 0.56225 0.0
C784 C 0.35165 0.51232 0.57824 0.0
H785 H 0.27081 0.4823 0.57829 0.0
H786 H 0.31803 0.5134 0.52897 0.0
C787 C 0.3546 0.50035 0.6215 0.0
C788 C 0.4793 0.78945 0.61059 0.0
C789 C 0.4931 0.80459 0.65318 0.0
H790 H 0.45096 0.78734 0.55147 0.0
C791 C 0.49135 0.83175 0.66643 0.0
H792 H 0.48038 0.76854 0.59934 0.0
C793 C 0.47459 0.84241 0.63919 0.0
C794 C 0.4592 0.82624 0.59798 0.0
H795 H 0.50199 0.8442 0.69875 0.0
H796 H 0.47285 0.8628 0.65134 0.0
C797 C 0.4625 0.80023 0.58314 0.0
C798 C 0.31676 0.49403 0.26059 0.0
C799 C 0.2861 0.47706 0.24033 0.0
H800 H 0.36765 0.51928 0.24897 0.0
C801 C 0.28345 0.47072 0.19224 0.0
H802 H 0.3195 0.49917 0.2976 0.0
C803 C 0.31077 0.48185 0.16468 0.0
C804 C 0.34148 0.49988 0.18439 0.0
H805 H 0.26018 0.45737 0.1756 0.0
H806 H 0.30768 0.47695 0.12761 0.0
C807 C 0.34428 0.50551 0.23276 0.0
C808 C 0.49509 0.82369 0.20254 0.0
C809 C 0.47865 0.80857 0.24371 0.0
H810 H 0.49663 0.84977 0.14157 0.0
C811 C 0.45189 0.81109 0.25699 0.0
H812 H 0.51605 0.82257 0.19158 0.0
C813 C 0.44068 0.82683 0.22808 0.0
C814 C 0.45611 0.84027 0.18555 0.0
H815 H 0.43882 0.79978 0.28862 0.0
H816 H 0.41921 0.82727 0.23814 0.0
C817 C 0.48396 0.83935 0.17382 0.0
C818 C 0.16034 0.6456 0.27928 0.0
C819 C 0.16366 0.67523 0.26616 0.0
H820 H 0.14191 0.59625 0.26097 0.0
C821 C 0.14765 0.67675 0.22607 0.0
H822 H 0.17232 0.64366 0.31005 0.0
C823 C 0.13038 0.6498 0.19809 0.0
C824 C 0.12866 0.62063 0.20949 0.0
H825 H 0.14936 0.69912 0.21527 0.0
H826 H 0.11931 0.6522 0.16661 0.0
C827 C 0.14297 0.61848 0.25112 0.0
C828 C 0.14518 0.14941 0.29137 0.0
C829 C 0.11201 0.13585 0.29884 0.0
H830 H 0.18235 0.15004 0.24985 0.0
C831 C 0.09049 0.11119 0.26918 0.0
H832 H 0.16241 0.16825 0.31389 0.0
C833 C 0.10199 0.10098 0.23193 0.0
C834 C 0.1352 0.11478 0.22436 0.0
H835 H 0.06481 0.10027 0.27419 0.0
H836 H 0.0849 0.08238 0.20898 0.0
C837 C 0.15664 0.1388 0.25485 0.0
C838 C 0.87439 0.98351 0.23563 0.0
C839 C 0.84301 0.96958 0.25339 0.0
H840 H 0.90854 0.01641 0.18621 0.0
C841 C 0.82176 0.97859 0.23436 0.0
H842 H 0.89127 0.977 0.24968 0.0
C843 C 0.8318 0.00149 0.19906 0.0
C844 C 0.86312 0.01547 0.18124 0.0
H845 H 0.79748 0.96848 0.24745 0.0
H846 H 0.81487 0.00808 0.18549 0.0
C847 C 0.88426 0.00601 0.19939 0.0
C848 C 0.96791 0.83385 0.21736 0.0
C849 C 0.97649 0.84892 0.17362 0.0
H850 H 0.98226 0.83293 0.28751 0.0
C851 C 0.00676 0.87667 0.16837 0.0
H852 H 0.94476 0.81252 0.22268 0.0
C853 C 0.02838 0.88846 0.20571 0.0
C854 C 0.02017 0.87266 0.24896 0.0
H855 H 0.0141 0.8889 0.13512 0.0
H856 H 0.05178 0.90944 0.20031 0.0
C857 C -0.01051 0.84555 0.25455 0.0
C858 C 0.82463 0.83376 0.69307 0.0
C859 C 0.85653 0.84764 0.67774 0.0
H860 H 0.792 0.83516 0.74214 0.0
C861 C 0.88048 0.87502 0.70059 0.0
H862 H 0.80564 0.81279 0.67584 0.0
C863 C 0.87274 0.88759 0.73927 0.0
C864 C 0.84082 0.87343 0.75485 0.0
H865 H 0.90528 0.88615 0.68942 0.0
H866 H 0.89171 0.90821 0.75712 0.0
C867 C 0.8168 0.84672 0.73086 0.0
C868 C 0.12036 0.01055 0.73262 0.0
C869 C 0.15156 0.02124 0.71582 0.0
H870 H 0.08456 0.98194 0.78338 0.0
C871 C 0.17078 0.01088 0.73807 0.0
H872 H 0.10504 0.01819 0.71614 0.0
C873 C 0.15891 0.98978 0.77569 0.0
C874 C 0.12775 0.97902 0.79256 0.0
H875 H 0.19486 0.01855 0.72583 0.0
H876 H 0.17428 0.98204 0.79177 0.0
C877 C 0.10868 0.98987 0.77105 0.0
C878 C 0.9517 0.10806 0.76113 0.0
C879 C 0.96673 0.11364 0.71742 0.0
H880 H 0.95776 0.11503 0.83492 0.0
C881 C 0.00045 0.12927 0.71546 0.0
H882 H 0.92578 0.09594 0.76382 0.0
C883 C 0.01878 0.1405 0.7561 0.0
C884 C 0.0038 0.13602 0.79964 0.0
H885 H 0.01281 0.1339 0.68235 0.0
H886 H 0.04472 0.15332 0.75326 0.0
C887 C 0.97006 0.11897 0.80187 0.0
C888 C 0.80585 0.48358 0.61315 0.0
C889 C 0.77341 0.46978 0.62581 0.0
H890 H 0.84031 0.48187 0.56821 0.0
C891 C 0.75032 0.44242 0.60187 0.0
H892 H 0.82424 0.5045 0.63124 0.0
C893 C 0.75953 0.42964 0.56503 0.0
C894 C 0.79204 0.44359 0.55241 0.0
H895 H 0.72514 0.4313 0.61099 0.0
H896 H 0.74126 0.4089 0.54649 0.0
C897 C 0.81509 0.47045 0.57722 0.0
C898 C 0.52172 0.29723 0.53378 0.0
C899 C 0.51114 0.30341 0.57611 0.0
H900 H 0.53704 0.31269 0.46373 0.0
C901 C 0.50972 0.33175 0.58063 0.0
H902 H 0.52317 0.27566 0.52924 0.0
C903 C 0.51775 0.35297 0.54328 0.0
C904 C 0.5273 0.34631 0.50044 0.0
H905 H 0.5019 0.33739 0.61287 0.0
H906 H 0.51577 0.37425 0.54776 0.0
C907 C 0.52969 0.31847 0.49626 0.0
C908 C 0.67002 0.1926 0.53677 0.0
C909 C 0.63661 0.17468 0.5438 0.0
H910 H 0.7167 0.21626 0.56814 0.0
C911 C 0.62471 0.16857 0.58958 0.0
H912 H 0.67999 0.1978 0.50191 0.0
C913 C 0.64577 0.17934 0.62751 0.0
C914 C 0.67919 0.19624 0.62049 0.0
H915 H 0.59912 0.15498 0.59618 0.0
H916 H 0.63578 0.17366 0.66234 0.0
C917 C 0.69109 0.20316 0.57472 0.0
C918 C 0.52736 0.16571 0.04732 0.0
C919 C 0.54112 0.18414 0.00702 0.0
H920 H 0.5036 0.16129 0.11211 0.0
C921 C 0.54298 0.21415 0.00304 0.0
H922 H 0.52557 0.14251 0.05159 0.0
C923 C 0.53036 0.22497 0.03791 0.0
C924 C 0.51548 0.20593 0.07732 0.0
H925 H 0.55347 0.22896 0.97246 0.0
H926 H 0.53154 0.24788 0.03337 0.0
C927 C 0.51461 0.17643 0.08198 0.0
C928 C 0.78196 0.32084 0.08399 0.0
C929 C 0.78792 0.35174 0.09554 0.0
H930 H 0.76799 0.2736 0.10796 0.0
C931 C 0.78152 0.35763 0.14115 0.0
H932 H 0.78636 0.31537 0.04908 0.0
C933 C 0.77084 0.3335 0.17501 0.0
C934 C 0.76644 0.30309 0.1639 0.0
H935 H 0.78573 0.38112 0.15113 0.0
H936 H 0.76715 0.33909 0.21024 0.0
C937 C 0.77139 0.29682 0.11777 0.0
C938 C 0.64382 0.42775 0.06203 0.0
C939 C 0.63641 0.44951 0.04065 0.0
H940 H 0.6716 0.42082 0.11467 0.0
C941 C 0.65298 0.48183 0.05437 0.0
H942 H 0.6314 0.40273 0.05186 0.0
C943 C 0.6765 0.49229 0.08884 0.0
C944 C 0.68336 0.47049 0.11129 0.0
H945 H 0.64799 0.49917 0.03804 0.0
H946 H 0.68867 0.51735 0.09886 0.0
C947 C 0.66678 0.43809 0.09775 0.0
C948 C 0.46502 0.7936 0.96244 0.0
C949 C 0.44739 0.80963 0.96006 0.0
H950 H 0.48887 0.77324 0.92458 0.0
C951 C 0.43769 0.81481 0.91627 0.0
H952 H 0.47279 0.78918 0.99568 0.0
C953 C 0.44657 0.80532 0.87557 0.0
C954 C 0.46573 0.79089 0.87786 0.0
H955 H 0.42388 0.8269 0.91336 0.0
H956 H 0.43953 0.81051 0.84229 0.0
C957 C 0.4743 0.78451 0.92172 0.0
C958 C 0.15036 0.65802 0.91487 0.0
C959 C 0.1809 0.66723 0.89675 0.0
H960 H 0.11474 0.63075 0.96597 0.0
C961 C 0.19937 0.65549 0.9178 0.0
H962 H 0.13543 0.66645 0.89925 0.0
C963 C 0.1876 0.63523 0.9567 0.0
C964 C 0.1569 0.62585 0.97444 0.0
H965 H 0.22299 0.6622 0.90453 0.0
H966 H 0.20238 0.62671 0.97261 0.0
C967 C 0.13839 0.63735 0.95296 0.0
C968 C 0.33426 0.50249 0.92962 0.0
C969 C 0.34503 0.53355 0.94686 0.0
H970 H 0.30587 0.46692 0.87912 0.0
C971 C 0.33511 0.55312 0.9245 0.0
H972 H 0.34125 0.48669 0.94622 0.0
C973 C 0.31498 0.54183 0.88534 0.0
C974 C 0.30391 0.51055 0.86866 0.0
H975 H 0.34303 0.57716 0.93708 0.0
H976 H 0.30781 0.5574 0.86849 0.0
C977 C 0.31374 0.49104 0.89131 0.0
C978 C 0.20188 0.53943 0.44816 0.0
C979 C 0.16883 0.52586 0.45704 0.0
H980 H 0.23811 0.53929 0.40454 0.0
C981 C 0.14674 0.5017 0.42729 0.0
H982 H 0.21945 0.55811 0.47052 0.0
C983 C 0.15737 0.49056 0.39047 0.0
C984 C 0.19034 0.50371 0.38188 0.0
H985 H 0.12113 0.49063 0.43319 0.0
H986 H 0.13964 0.47155 0.36867 0.0
C987 C 0.21255 0.52867 0.41051 0.0
C988 C 0.42309 0.64849 0.4327 0.0
C989 C 0.44641 0.64495 0.45724 0.0
H990 H 0.41362 0.67164 0.3759 0.0
C991 C 0.47888 0.6642 0.44513 0.0
H992 H 0.3979 0.63396 0.44147 0.0
C993 C 0.48789 0.68612 0.40863 0.0
C994 C 0.46458 0.68883 0.38269 0.0
H995 H 0.49741 0.66225 0.46381 0.0
H996 H 0.51312 0.70016 0.39976 0.0
C997 C 0.43209 0.67002 0.39529 0.0
C998 C 0.32348 0.82279 0.44952 0.0
C999 C 0.33359 0.80304 0.4707 0.0
H1000 H 0.29499 0.82752 0.39637 0.0
C1001 C 0.32246 0.77202 0.45295 0.0
H1002 H 0.33145 0.84673 0.46259 0.0
C1003 C 0.30187 0.76114 0.41429 0.0
C1004 C 0.29145 0.78083 0.39364 0.0
H1005 H 0.32989 0.7563 0.46865 0.0
H1006 H 0.29379 0.73725 0.40096 0.0
C1007 C 0.30239 0.81169 0.41177 0.0
C1008 C 0.31348 0.16935 0.12712 0.0
C1009 C 0.29509 0.14061 0.15186 0.0
H1010 H 0.36049 0.20741 0.10947 0.0
C1011 C 0.31092 0.12801 0.17806 0.0
H1012 H 0.30201 0.17963 0.10647 0.0
C1013 C 0.34442 0.14391 0.17976 0.0
C1014 C 0.36283 0.17272 0.15519 0.0
H1015 H 0.29747 0.10588 0.19744 0.0
H1016 H 0.35585 0.13365 0.20052 0.0
C1017 C 0.34701 0.18522 0.12871 0.0
C1018 C 0.7874 0.15321 0.13272 0.0
C1019 C 0.79559 0.17168 0.17364 0.0
H1020 H 0.79727 0.12359 0.08809 0.0
C1021 C 0.82107 0.17454 0.20119 0.0
H1022 H 0.76791 0.15056 0.11072 0.0
C1023 C 0.83789 0.1591 0.18823 0.0
C1024 C 0.8296 0.14047 0.14746 0.0
H1025 H 0.828 0.18862 0.23293 0.0
H1026 H 0.85731 0.16169 0.21034 0.0
C1027 C 0.80424 0.13776 0.11975 0.0
C1028 C 0.81187 0.6468 0.19115 0.0
C1029 C 0.81165 0.62526 0.15788 0.0
H1030 H 0.82824 0.69576 0.20896 0.0
C1031 C 0.82865 0.63743 0.11605 0.0
H1032 H 0.79902 0.6382 0.22376 0.0
C1033 C 0.84536 0.67042 0.10755 0.0
C1034 C 0.84546 0.69197 0.14072 0.0
H1035 H 0.82896 0.62149 0.08969 0.0
H1036 H 0.85814 0.679 0.07488 0.0
C1037 C 0.82861 0.67981 0.18267 0.0
C1038 C 0.16968 0.34178 0.37314 0.0
C1039 C 0.16115 0.35123 0.33171 0.0
H1040 H 0.16457 0.30282 0.41521 0.0
C1041 C 0.14013 0.32754 0.30039 0.0
H1042 H 0.18582 0.35944 0.39801 0.0
C1043 C 0.12796 0.29507 0.31023 0.0
C1044 C 0.13655 0.28563 0.3516 0.0
H1045 H 0.13308 0.33404 0.26815 0.0
H1046 H 0.11185 0.27741 0.28534 0.0
C1047 C 0.1575 0.30931 0.383 0.0
C1048 C 0.63726 0.80715 0.27973 0.0
C1049 C 0.61849 0.81493 0.30846 0.0
H1050 H 0.68436 0.81674 0.26175 0.0
C1051 C 0.63381 0.83957 0.34152 0.0
H1052 H 0.6262 0.78833 0.25382 0.0
C1053 C 0.6672 0.85586 0.34611 0.0
C1054 C 0.68594 0.84786 0.31765 0.0
H1055 H 0.62002 0.84615 0.36415 0.0
H1056 H 0.6783 0.87458 0.37214 0.0
C1057 C 0.67062 0.82347 0.28425 0.0
C1058 C 0.14066 0.80032 0.35867 0.0
C1059 C 0.1651 0.8103 0.3252 0.0
H1060 H 0.10448 0.80782 0.38929 0.0
C1061 C 0.1717 0.83646 0.29622 0.0
H1062 H 0.13497 0.78025 0.38152 0.0
C1063 C 0.15415 0.85227 0.30061 0.0
C1064 C 0.1297 0.84226 0.3341 0.0
H1065 H 0.19039 0.84472 0.27004 0.0
H1066 H 0.15979 0.87234 0.27779 0.0
C1067 C 0.12316 0.81613 0.36309 0.0
C1068 C 0.67099 0.82232 0.85842 0.0
C1069 C 0.68974 0.85136 0.83454 0.0
H1070 H 0.62388 0.783 0.87189 0.0
C1071 C 0.67446 0.86341 0.80603 0.0
H1072 H 0.68206 0.81244 0.88077 0.0
C1073 C 0.64114 0.84655 0.80096 0.0
C1074 C 0.62241 0.81729 0.82433 0.0
H1075 H 0.68822 0.88576 0.78726 0.0
H1076 H 0.63012 0.85635 0.77838 0.0
C1077 C 0.63764 0.80545 0.85338 0.0
C1078 C 0.13947 0.79765 0.80568 0.0
C1079 C 0.16502 0.80013 0.83263 0.0
H1080 H 0.10793 0.81595 0.79195 0.0
C1081 C 0.17855 0.82391 0.86725 0.0
H1082 H 0.12856 0.77961 0.77868 0.0
C1083 C 0.16674 0.84474 0.87485 0.0
C1084 C 0.14117 0.84224 0.84794 0.0
H1085 H 0.19829 0.82646 0.88858 0.0
H1086 H 0.17764 0.86277 0.90188 0.0
C1087 C 0.12768 0.81852 0.81325 0.0
C1088 C 0.18428 0.33197 0.7896 0.0
C1089 C 0.17904 0.3542 0.81417 0.0
H1090 H 0.17107 0.28273 0.78057 0.0
C1091 C 0.15556 0.34306 0.84927 0.0
H1092 H 0.20221 0.33981 0.76232 0.0
C1093 C 0.13775 0.31041 0.8597 0.0
C1094 C 0.14302 0.28817 0.83525 0.0
H1095 H 0.15091 0.35955 0.86884 0.0
H1096 H 0.11987 0.30265 0.88703 0.0
C1097 C 0.16644 0.29927 0.80004 0.0
C1098 C 0.80286 0.66639 0.61521 0.0
C1099 C 0.82784 0.69069 0.64153 0.0
H1100 H 0.77106 0.61602 0.60622 0.0
C1101 C 0.83998 0.68215 0.6801 0.0
H1102 H 0.79299 0.67219 0.58527 0.0
C1103 C 0.82744 0.64996 0.69207 0.0
C1104 C 0.80249 0.62564 0.66572 0.0
H1105 H 0.85924 0.70031 0.70107 0.0
H1106 H 0.83733 0.64416 0.722 0.0
C1107 C 0.79031 0.63418 0.6272 0.0
C1108 C 0.32137 0.16878 0.68591 0.0
C1109 C 0.30832 0.14614 0.64977 0.0
H1110 H 0.36382 0.20567 0.71849 0.0
C1111 C 0.32917 0.14342 0.61818 0.0
H1112 H 0.30598 0.17146 0.71085 0.0
C1113 C 0.3624 0.16314 0.62247 0.0
C1114 C 0.37542 0.18588 0.65851 0.0
H1115 H 0.31984 0.12621 0.5899 0.0
H1116 H 0.37783 0.16056 0.59751 0.0
C1117 C 0.35456 0.18841 0.69027 0.0
C1118 C 0.81907 0.13162 0.63954 0.0
C1119 C 0.85191 0.15204 0.64885 0.0
H1120 H 0.77175 0.12516 0.64133 0.0
C1121 C 0.86209 0.18275 0.66708 0.0
H1122 H 0.81041 0.10781 0.62544 0.0
C1123 C 0.83987 0.19271 0.67618 0.0
C1124 C 0.807 0.17216 0.66726 0.0
H1125 H 0.88721 0.19907 0.6746 0.0
H1126 H 0.84847 0.21646 0.69047 0.0
C1127 C 0.79687 0.14157 0.64866 0.0
C1128 C -0.00093 0.50361 0.47881 0.0
C1129 C 0.012 0.49314 0.51401 0.0
H1130 H 0.95679 0.4966 0.4438 0.0
C1131 C -0.00883 0.46646 0.54121 0.0
H1132 H 0.01446 0.52407 0.45721 0.0
C1133 C 0.95805 0.45068 0.53353 0.0
C1134 C 0.94512 0.46127 0.49848 0.0
H1135 H 0.00039 0.45779 0.5686 0.0
H1136 H 0.94262 0.43027 0.55518 0.0
C1137 C 0.96598 0.48785 0.47112 0.0
C1138 C 0.46793 0.49944 0.45447 0.0
C1139 C 0.48047 0.52095 0.49207 0.0
H1140 H 0.47103 0.46422 0.41298 0.0
C1141 C 0.50693 0.52352 0.5167 0.0
H1142 H 0.44756 0.4969 0.43478 0.0
C1143 C 0.52042 0.50479 0.50415 0.0
C1144 C 0.50768 0.48308 0.46681 0.0
H1145 H 0.51716 0.5399 0.54582 0.0
H1146 H 0.54071 0.50722 0.52393 0.0
C1147 C 0.48137 0.48068 0.442 0.0
C1148 C 0.49239 0.0044 0.48067 0.0
C1149 C 0.49131 0.02592 0.51272 0.0
H1150 H 0.47617 0.95553 0.46303 0.0
C1151 C 0.47189 0.01367 0.55254 0.0
H1152 H 0.50709 0.01301 0.44961 0.0
C1153 C 0.45407 0.98056 0.56022 0.0
C1154 C 0.45538 0.95911 0.52826 0.0
H1155 H 0.47053 0.02962 0.57787 0.0
H1156 H 0.43941 0.97183 0.59131 0.0
C1157 C 0.47466 0.97139 0.48838 0.0
C1158 C 0.51092 0.01501 0.01988 0.0
C1159 C 0.50889 0.02697 0.97612 0.0
H1160 H 0.49494 0.97376 0.06346 0.0
C1161 C 0.48835 0.00546 0.94208 0.0
H1162 H 0.52648 0.03096 0.04687 0.0
C1163 C 0.47024 0.97267 0.9516 0.0
C1164 C 0.47229 0.96071 0.99534 0.0
H1165 H 0.48622 0.01392 0.908 0.0
H1166 H 0.45469 0.95673 0.9246 0.0
C1167 C 0.49281 0.98222 0.02939 0.0
C1168 C 0.95128 0.45744 0.00436 0.0
C1169 C 0.93129 0.4665 0.02748 0.0
H1170 H -0.00084 0.46694 0.99291 0.0
C1171 C 0.94511 0.49268 0.0583 0.0
H1172 H 0.94138 0.43735 0.9804 0.0
C1173 C 0.9783 0.5097 0.06543 0.0
C1174 C -0.00169 0.50084 0.04188 0.0
H1175 H 0.93037 0.50026 0.07665 0.0
H1176 H -0.01174 0.5299 0.08918 0.0
C1177 C 0.98443 0.47443 0.01149 0.0
C1178 C 0.48506 0.46892 0.03634 0.0
C1179 C 0.50667 0.47912 -0.00123 0.0
H1180 H 0.44997 0.4748 0.07403 0.0
C1181 C 0.50961 0.5042 0.97026 0.0
H1182 H 0.48226 0.44969 0.059 0.0
C1183 C 0.49114 0.5186 0.9789 0.0
C1184 C 0.46931 0.50823 0.0162 0.0
H1185 H 0.52608 0.51266 0.94106 0.0
H1186 H 0.49387 0.53774 0.95609 0.0
C1187 C 0.46655 0.48333 0.04496 0.0
loop_
_geom_bond_atom_site_label_1
_geom_bond_atom_site_label_2
_geom_bond_distance
_geom_bond_site_symmetry_2
_ccdc_geom_bond_type
C0 O1 1.160 . S
C0 O7 1.185 . S
O1 C0 1.160 . S
O2 Zn3 1.899 . S
O2 C10 1.284 . S
Zn3 O2 1.899 . S
Zn3 O4 2.032 . S
Zn3 O7 2.086 . S
Zn3 O12 1.977 . S
O4 Zn3 2.032 . S
O4 C8 1.278 . S
C5 O6 1.203 . S
C5 O12 1.267 . S
O6 C5 1.203 . S
O7 C0 1.185 . S
O7 Zn3 2.086 . S
C8 O4 1.278 . S
C8 O9 1.211 . S
O9 C8 1.211 . S
C10 O2 1.284 . S
C10 O11 1.273 . S
O11 C10 1.273 . S
O12 Zn3 1.977 . S
O12 C5 1.267 . S
C13 O14 1.160 . S
C13 O20 1.185 . S
O14 C13 1.160 . S
O15 Zn16 1.899 . S
O15 C23 1.284 . S
Zn16 O15 1.899 . S
Zn16 O17 2.032 . S
Zn16 O20 2.086 . S
Zn16 O25 1.977 . S
O17 Zn16 2.032 . S
O17 C21 1.278 . S
C18 O19 1.203 . S
C18 O25 1.267 . S
O19 C18 1.203 . S
O20 C13 1.185 . S
O20 Zn16 2.086 . S
C21 O17 1.278 . S
C21 O22 1.211 . S
O22 C21 1.211 . S
C23 O15 1.284 . S
C23 O24 1.273 . S
O24 C23 1.273 . S
O25 Zn16 1.977 . S
O25 C18 1.267 . S
C26 O27 1.160 . S
C26 O33 1.185 . S
O27 C26 1.160 . S
O28 Zn29 1.899 . S
O28 C36 1.284 . S
Zn29 O28 1.899 . S
Zn29 O30 2.032 . S
Zn29 O33 2.086 . S
Zn29 O38 1.977 . S
O30 Zn29 2.032 . S
O30 C34 1.278 . S
C31 O32 1.203 . S
C31 O38 1.267 . S
O32 C31 1.203 . S
O33 C26 1.185 . S
O33 Zn29 2.086 . S
C34 O30 1.278 . S
C34 O35 1.211 . S
O35 C34 1.211 . S
C36 O28 1.284 . S
C36 O37 1.273 . S
O37 C36 1.273 . S
O38 Zn29 1.977 . S
O38 C31 1.267 . S
C39 O40 1.160 . S
C39 O46 1.185 . S
O40 C39 1.160 . S
O41 Zn42 1.899 . S
O41 C49 1.284 . S
Zn42 O41 1.899 . S
Zn42 O43 2.032 . S
Zn42 O46 2.086 . S
Zn42 O51 1.977 . S
O43 Zn42 2.032 . S
O43 C47 1.278 . S
C44 O45 1.203 . S
C44 O51 1.267 . S
O45 C44 1.203 . S
O46 C39 1.185 . S
O46 Zn42 2.086 . S
C47 O43 1.278 . S
C47 O48 1.211 . S
O48 C47 1.211 . S
C49 O41 1.284 . S
C49 O50 1.273 . S
O50 C49 1.273 . S
O51 Zn42 1.977 . S
O51 C44 1.267 . S
C52 O53 1.160 . S
C52 O59 1.185 . S
O53 C52 1.160 . S
O54 Zn55 1.899 . S
O54 C62 1.284 . S
Zn55 O54 1.899 . S
Zn55 O56 2.032 . S
Zn55 O59 2.086 . S
Zn55 O64 1.977 . S
O56 Zn55 2.032 . S
O56 C60 1.278 . S
C57 O58 1.203 . S
C57 O64 1.267 . S
O58 C57 1.203 . S
O59 C52 1.185 . S
O59 Zn55 2.086 . S
C60 O56 1.278 . S
C60 O61 1.211 . S
O61 C60 1.211 . S
C62 O54 1.284 . S
C62 O63 1.273 . S
O63 C62 1.273 . S
O64 Zn55 1.977 . S
O64 C57 1.267 . S
C65 O66 1.160 . S
C65 O72 1.185 . S
O66 C65 1.160 . S
O67 Zn68 1.899 . S
O67 C75 1.284 . S
Zn68 O67 1.899 . S
Zn68 O69 2.032 . S
Zn68 O72 2.086 . S
Zn68 O77 1.977 . S
O69 Zn68 2.032 . S
O69 C73 1.278 . S
C70 O71 1.203 . S
C70 O77 1.267 . S
O71 C70 1.203 . S
O72 C65 1.185 . S
O72 Zn68 2.086 . S
C73 O69 1.278 . S
C73 O74 1.211 . S
O74 C73 1.211 . S
C75 O67 1.284 . S
C75 O76 1.273 . S
O76 C75 1.273 . S
O77 Zn68 1.977 . S
O77 C70 1.267 . S
C78 O79 1.160 . S
C78 O85 1.185 . S
O79 C78 1.160 . S
O80 Zn81 1.899 . S
O80 C88 1.284 . S
Zn81 O80 1.899 . S
Zn81 O82 2.032 . S
Zn81 O85 2.086 . S
Zn81 O90 1.977 . S
O82 Zn81 2.032 . S
O82 C86 1.278 . S
C83 O84 1.203 . S
C83 O90 1.267 . S
O84 C83 1.203 . S
O85 C78 1.185 . S
O85 Zn81 2.086 . S
C86 O82 1.278 . S
C86 O87 1.211 . S
O87 C86 1.211 . S
C88 O80 1.284 . S
C88 O89 1.273 . S
O89 C88 1.273 . S
O90 Zn81 1.977 . S
O90 C83 1.267 . S
C91 O92 1.160 . S
C91 O98 1.185 . S
O92 C91 1.160 . S
O93 Zn94 1.899 . S
O93 C101 1.284 . S
Zn94 O93 1.899 . S
Zn94 O95 2.032 . S
Zn94 O98 2.086 . S
Zn94 O103 1.977 . S
O95 Zn94 2.032 . S
O95 C99 1.278 . S
C96 O97 1.203 . S
C96 O103 1.267 . S
O97 C96 1.203 . S
O98 C91 1.185 . S
O98 Zn94 2.086 . S
C99 O95 1.278 . S
C99 O100 1.211 . S
O100 C99 1.211 . S
C101 O93 1.284 . S
C101 O102 1.273 . S
O102 C101 1.273 . S
O103 Zn94 1.977 . S
O103 C96 1.267 . S
C104 O105 1.160 . S
C104 O111 1.185 . S
O105 C104 1.160 . S
O106 Zn107 1.899 . S
O106 C114 1.284 . S
Zn107 O106 1.899 . S
Zn107 O108 2.032 . S
Zn107 O111 2.086 . S
Zn107 O116 1.977 . S
O108 Zn107 2.032 . S
O108 C112 1.278 . S
C109 O110 1.203 . S
C109 O116 1.267 . S
O110 C109 1.203 . S
O111 C104 1.185 . S
O111 Zn107 2.086 . S
C112 O108 1.278 . S
C112 O113 1.211 . S
O113 C112 1.211 . S
C114 O106 1.284 . S
C114 O115 1.273 . S
O115 C114 1.273 . S
O116 Zn107 1.977 . S
O116 C109 1.267 . S
C117 O118 1.160 . S
C117 O124 1.185 . S
O118 C117 1.160 . S
O119 Zn120 1.899 . S
O119 C127 1.284 . S
Zn120 O119 1.899 . S
Zn120 O121 2.032 . S
Zn120 O124 2.086 . S
Zn120 O129 1.977 . S
O121 Zn120 2.032 . S
O121 C125 1.278 . S
C122 O123 1.203 . S
C122 O129 1.267 . S
O123 C122 1.203 . S
O124 C117 1.185 . S
O124 Zn120 2.086 . S
C125 O121 1.278 . S
C125 O126 1.211 . S
O126 C125 1.211 . S
C127 O119 1.284 . S
C127 O128 1.273 . S
O128 C127 1.273 . S
O129 Zn120 1.977 . S
O129 C122 1.267 . S
C130 O131 1.160 . S
C130 O137 1.185 . S
O131 C130 1.160 . S
O132 Zn133 1.899 . S
O132 C140 1.284 . S
Zn133 O132 1.899 . S
Zn133 O134 2.032 . S
Zn133 O137 2.086 . S
Zn133 O142 1.977 . S
O134 Zn133 2.032 . S
O134 C138 1.278 . S
C135 O136 1.203 . S
C135 O142 1.267 . S
O136 C135 1.203 . S
O137 C130 1.185 . S
O137 Zn133 2.086 . S
C138 O134 1.278 . S
C138 O139 1.211 . S
O139 C138 1.211 . S
C140 O132 1.284 . S
C140 O141 1.273 . S
O141 C140 1.273 . S
O142 Zn133 1.977 . S
O142 C135 1.267 . S
C143 O144 1.160 . S
C143 O150 1.185 . S
O144 C143 1.160 . S
O145 Zn146 1.899 . S
O145 C153 1.284 . S
Zn146 O145 1.899 . S
Zn146 O147 2.032 . S
Zn146 O150 2.086 . S
Zn146 O155 1.977 . S
O147 Zn146 2.032 . S
O147 C151 1.278 . S
C148 O149 1.203 . S
C148 O155 1.267 . S
O149 C148 1.203 . S
O150 C143 1.185 . S
O150 Zn146 2.086 . S
C151 O147 1.278 . S
C151 O152 1.211 . S
O152 C151 1.211 . S
C153 O145 1.284 . S
C153 O154 1.273 . S
O154 C153 1.273 . S
O155 Zn146 1.977 . S
O155 C148 1.267 . S
C156 O157 1.160 . S
C156 O163 1.185 . S
O157 C156 1.160 . S
O158 Zn159 1.899 . S
O158 C166 1.284 . S
Zn159 O158 1.899 . S
Zn159 O160 2.032 . S
Zn159 O163 2.086 . S
Zn159 O168 1.977 . S
O160 Zn159 2.032 . S
O160 C164 1.278 . S
C161 O162 1.203 . S
C161 O168 1.267 . S
O162 C161 1.203 . S
O163 C156 1.185 . S
O163 Zn159 2.086 . S
C164 O160 1.278 . S
C164 O165 1.211 . S
O165 C164 1.211 . S
C166 O158 1.284 . S
C166 O167 1.273 . S
O167 C166 1.273 . S
O168 Zn159 1.977 . S
O168 C161 1.267 . S
C169 O170 1.160 . S
C169 O176 1.185 . S
O170 C169 1.160 . S
O171 Zn172 1.899 . S
O171 C179 1.284 . S
Zn172 O171 1.899 . S
Zn172 O173 2.032 . S
Zn172 O176 2.086 . S
Zn172 O181 1.977 . S
O173 Zn172 2.032 . S
O173 C177 1.278 . S
C174 O175 1.203 . S
C174 O181 1.267 . S
O175 C174 1.203 . S
O176 C169 1.185 . S
O176 Zn172 2.086 . S
C177 O173 1.278 . S
C177 O178 1.211 . S
O178 C177 1.211 . S
C179 O171 1.284 . S
C179 O180 1.273 . S
O180 C179 1.273 . S
O181 Zn172 1.977 . S
O181 C174 1.267 . S
C182 O183 1.160 . S
C182 O189 1.185 . S
O183 C182 1.160 . S
O184 Zn185 1.899 . S
O184 C192 1.284 . S
Zn185 O184 1.899 . S
Zn185 O186 2.032 . S
Zn185 O189 2.086 . S
Zn185 O194 1.977 . S
O186 Zn185 2.032 . S
O186 C190 1.278 . S
C187 O188 1.203 . S
C187 O194 1.267 . S
O188 C187 1.203 . S
O189 C182 1.185 . S
O189 Zn185 2.086 . S
C190 O186 1.278 . S
C190 O191 1.211 . S
O191 C190 1.211 . S
C192 O184 1.284 . S
C192 O193 1.273 . S
O193 C192 1.273 . S
O194 Zn185 1.977 . S
O194 C187 1.267 . S
C195 O196 1.160 . S
C195 O202 1.185 . S
O196 C195 1.160 . S
O197 Zn198 1.899 . S
O197 C205 1.284 . S
Zn198 O197 1.899 . S
Zn198 O199 2.032 . S
Zn198 O202 2.086 . S
Zn198 O207 1.977 . S
O199 Zn198 2.032 . S
O199 C203 1.278 . S
C200 O201 1.203 . S
C200 O207 1.267 . S
O201 C200 1.203 . S
O202 C195 1.185 . S
O202 Zn198 2.086 . S
C203 O199 1.278 . S
C203 O204 1.211 . S
O204 C203 1.211 . S
C205 O197 1.284 . S
C205 O206 1.273 . S
O206 C205 1.273 . S
O207 Zn198 1.977 . S
O207 C200 1.267 . S
C208 O209 1.160 . S
C208 O215 1.185 . S
O209 C208 1.160 . S
O210 Zn211 1.899 . S
O210 C218 1.284 . S
Zn211 O210 1.899 . S
Zn211 O212 2.032 . S
Zn211 O215 2.086 . S
Zn211 O220 1.977 . S
O212 Zn211 2.032 . S
O212 C216 1.278 . S
C213 O214 1.203 . S
C213 O220 1.267 . S
O214 C213 1.203 . S
O215 C208 1.185 . S
O215 Zn211 2.086 . S
C216 O212 1.278 . S
C216 O217 1.211 . S
O217 C216 1.211 . S
C218 O210 1.284 . S
C218 O219 1.273 . S
O219 C218 1.273 . S
O220 Zn211 1.977 . S
O220 C213 1.267 . S
C221 O222 1.160 . S
C221 O228 1.185 . S
O222 C221 1.160 . S
O223 Zn224 1.899 . S
O223 C231 1.284 . S
Zn224 O223 1.899 . S
Zn224 O225 2.032 . S
Zn224 O228 2.086 . S
Zn224 O233 1.977 . S
O225 Zn224 2.032 . S
O225 C229 1.278 . S
C226 O227 1.203 . S
C226 O233 1.267 . S
O227 C226 1.203 . S
O228 C221 1.185 . S
O228 Zn224 2.086 . S
C229 O225 1.278 . S
C229 O230 1.211 . S
O230 C229 1.211 . S
C231 O223 1.284 . S
C231 O232 1.273 . S
O232 C231 1.273 . S
O233 Zn224 1.977 . S
O233 C226 1.267 . S
C234 O235 1.160 . S
C234 O241 1.185 . S
O235 C234 1.160 . S
O236 Zn237 1.899 . S
O236 C244 1.284 . S
Zn237 O236 1.899 . S
Zn237 O238 2.032 . S
Zn237 O241 2.086 . S
Zn237 O246 1.977 . S
O238 Zn237 2.032 . S
O238 C242 1.278 . S
C239 O240 1.203 . S
C239 O246 1.267 . S
O240 C239 1.203 . S
O241 C234 1.185 . S
O241 Zn237 2.086 . S
C242 O238 1.278 . S
C242 O243 1.211 . S
O243 C242 1.211 . S
C244 O236 1.284 . S
C244 O245 1.273 . S
O245 C244 1.273 . S
O246 Zn237 1.977 . S
O246 C239 1.267 . S
C247 O248 1.160 . S
C247 O254 1.185 . S
O248 C247 1.160 . S
O249 Zn250 1.899 . S
O249 C257 1.284 . S
Zn250 O249 1.899 . S
Zn250 O251 2.032 . S
Zn250 O254 2.086 . S
Zn250 O259 1.977 . S
O251 Zn250 2.032 . S
O251 C255 1.278 . S
C252 O253 1.203 . S
C252 O259 1.267 . S
O253 C252 1.203 . S
O254 C247 1.185 . S
O254 Zn250 2.086 . S
C255 O251 1.278 . S
C255 O256 1.211 . S
O256 C255 1.211 . S
C257 O249 1.284 . S
C257 O258 1.273 . S
O258 C257 1.273 . S
O259 Zn250 1.977 . S
O259 C252 1.267 . S
C260 O261 1.160 . S
C260 O267 1.185 . S
O261 C260 1.160 . S
O262 Zn263 1.899 . S
O262 C270 1.284 . S
Zn263 O262 1.899 . S
Zn263 O264 2.032 . S
Zn263 O267 2.086 . S
Zn263 O272 1.977 . S
O264 Zn263 2.032 . S
O264 C268 1.278 . S
C265 O266 1.203 . S
C265 O272 1.267 . S
O266 C265 1.203 . S
O267 C260 1.185 . S
O267 Zn263 2.086 . S
C268 O264 1.278 . S
C268 O269 1.211 . S
O269 C268 1.211 . S
C270 O262 1.284 . S
C270 O271 1.273 . S
O271 C270 1.273 . S
O272 Zn263 1.977 . S
O272 C265 1.267 . S
C273 O274 1.160 . S
C273 O280 1.185 . S
O274 C273 1.160 . S
O275 Zn276 1.899 . S
O275 C283 1.284 . S
Zn276 O275 1.899 . S
Zn276 O277 2.032 1_556 S
Zn276 O280 2.086 . S
Zn276 O285 1.977 . S
O277 Zn276 2.032 1_554 S
O277 C281 1.278 . S
C278 O279 1.203 . S
C278 O285 1.267 . S
O279 C278 1.203 . S
O280 C273 1.185 . S
O280 Zn276 2.086 . S
C281 O277 1.278 . S
C281 O282 1.211 1_554 S
O282 C281 1.211 1_556 S
C283 O275 1.284 . S
C283 O284 1.273 . S
O284 C283 1.273 . S
O285 Zn276 1.977 . S
O285 C278 1.267 . S
C286 O287 1.160 . S
C286 O293 1.185 . S
O287 C286 1.160 . S
O288 Zn289 1.899 . S
O288 C296 1.284 . S
Zn289 O288 1.899 . S
Zn289 O290 2.032 1_556 S
Zn289 O293 2.086 . S
Zn289 O298 1.977 . S
O290 Zn289 2.032 1_554 S
O290 C294 1.278 . S
C291 O292 1.203 . S
C291 O298 1.267 . S
O292 C291 1.203 . S
O293 C286 1.185 . S
O293 Zn289 2.086 . S
C294 O290 1.278 . S
C294 O295 1.211 1_554 S
O295 C294 1.211 1_556 S
C296 O288 1.284 . S
C296 O297 1.273 . S
O297 C296 1.273 . S
O298 Zn289 1.977 . S
O298 C291 1.267 . S
C299 O300 1.160 . S
C299 O306 1.185 . S
O300 C299 1.160 . S
O301 Zn302 1.899 . S
O301 C309 1.284 . S
Zn302 O301 1.899 . S
Zn302 O303 2.032 1_556 S
Zn302 O306 2.086 . S
Zn302 O311 1.977 . S
O303 Zn302 2.032 1_554 S
O303 C307 1.278 . S
C304 O305 1.203 . S
C304 O311 1.267 . S
O305 C304 1.203 . S
O306 C299 1.185 . S
O306 Zn302 2.086 . S
C307 O303 1.278 . S
C307 O308 1.211 1_554 S
O308 C307 1.211 1_556 S
C309 O301 1.284 . S
C309 O310 1.273 . S
O310 C309 1.273 . S
O311 Zn302 1.977 . S
O311 C304 1.267 . S
C312 O313 1.160 . S
C312 O319 1.185 . S
O313 C312 1.160 . S
O314 Zn315 1.899 . S
O314 C322 1.284 . S
Zn315 O314 1.899 . S
Zn315 O316 2.032 . S
Zn315 O319 2.086 . S
Zn315 O324 1.977 . S
O316 Zn315 2.032 . S
O316 C320 1.278 . S
C317 O318 1.203 . S
C317 O324 1.267 . S
O318 C317 1.203 . S
O319 C312 1.185 . S
O319 Zn315 2.086 . S
C320 O316 1.278 . S
C320 O321 1.211 . S
O321 C320 1.211 . S
C322 O314 1.284 . S
C322 O323 1.273 . S
O323 C322 1.273 . S
O324 Zn315 1.977 . S
O324 C317 1.267 . S
C325 O326 1.160 . S
C325 O332 1.185 . S
O326 C325 1.160 . S
O327 Zn328 1.899 . S
O327 C335 1.284 . S
Zn328 O327 1.899 . S
Zn328 O329 2.032 . S
Zn328 O332 2.086 . S
Zn328 O337 1.977 . S
O329 Zn328 2.032 . S
O329 C333 1.278 . S
C330 O331 1.203 . S
C330 O337 1.267 . S
O331 C330 1.203 . S
O332 C325 1.185 . S
O332 Zn328 2.086 . S
C333 O329 1.278 . S
C333 O334 1.211 . S
O334 C333 1.211 . S
C335 O327 1.284 . S
C335 O336 1.273 . S
O336 C335 1.273 . S
O337 Zn328 1.977 . S
O337 C330 1.267 . S
C338 O339 1.160 . S
C338 O345 1.185 . S
O339 C338 1.160 . S
O340 Zn341 1.899 . S
O340 C348 1.284 . S
Zn341 O340 1.899 . S
Zn341 O342 2.032 . S
Zn341 O345 2.086 . S
Zn341 O350 1.977 . S
O342 Zn341 2.032 . S
O342 C346 1.278 . S
C343 O344 1.203 . S
C343 O350 1.267 . S
O344 C343 1.203 . S
O345 C338 1.185 . S
O345 Zn341 2.086 . S
C346 O342 1.278 . S
C346 O347 1.211 . S
O347 C346 1.211 . S
C348 O340 1.284 . S
C348 O349 1.273 . S
O349 C348 1.273 . S
O350 Zn341 1.977 . S
O350 C343 1.267 . S
C351 O352 1.160 . S
C351 O358 1.185 . S
O352 C351 1.160 . S
O353 Zn354 1.899 . S
O353 C361 1.284 . S
Zn354 O353 1.899 . S
Zn354 O355 2.032 1_554 S
Zn354 O358 2.086 . S
Zn354 O363 1.977 . S
O355 Zn354 2.032 1_556 S
O355 C359 1.278 . S
C356 O357 1.203 . S
C356 O363 1.267 . S
O357 C356 1.203 . S
O358 C351 1.185 . S
O358 Zn354 2.086 . S
C359 O355 1.278 . S
C359 O360 1.211 1_556 S
O360 C359 1.211 1_554 S
C361 O353 1.284 . S
C361 O362 1.273 . S
O362 C361 1.273 . S
O363 Zn354 1.977 . S
O363 C356 1.267 . S
C364 O365 1.160 . S
C364 O371 1.185 . S
O365 C364 1.160 . S
O366 Zn367 1.899 . S
O366 C374 1.284 . S
Zn367 O366 1.899 . S
Zn367 O368 2.032 1_554 S
Zn367 O371 2.086 . S
Zn367 O376 1.977 . S
O368 Zn367 2.032 1_556 S
O368 C372 1.278 . S
C369 O370 1.203 . S
C369 O376 1.267 . S
O370 C369 1.203 . S
O371 C364 1.185 . S
O371 Zn367 2.086 . S
C372 O368 1.278 . S
C372 O373 1.211 1_556 S
O373 C372 1.211 1_554 S
C374 O366 1.284 . S
C374 O375 1.273 . S
O375 C374 1.273 . S
O376 Zn367 1.977 . S
O376 C369 1.267 . S
C377 O378 1.160 . S
C377 O384 1.185 . S
O378 C377 1.160 . S
O379 Zn380 1.899 . S
O379 C387 1.284 . S
Zn380 O379 1.899 . S
Zn380 O381 2.032 1_554 S
Zn380 O384 2.086 . S
Zn380 O389 1.977 . S
O381 Zn380 2.032 1_556 S
O381 C385 1.278 . S
C382 O383 1.203 . S
C382 O389 1.267 . S
O383 C382 1.203 . S
O384 C377 1.185 . S
O384 Zn380 2.086 . S
C385 O381 1.278 . S
C385 O386 1.211 1_556 S
O386 C385 1.211 1_554 S
C387 O379 1.284 . S
C387 O388 1.273 . S
O388 C387 1.273 . S
O389 Zn380 1.977 . S
O389 C382 1.267 . S
C390 O391 1.160 . S
C390 O397 1.185 . S
O391 C390 1.160 . S
O392 Zn393 1.899 . S
O392 C400 1.284 . S
Zn393 O392 1.899 . S
Zn393 O394 2.032 . S
Zn393 O397 2.086 . S
Zn393 O402 1.977 . S
O394 Zn393 2.032 . S
O394 C398 1.278 . S
C395 O396 1.203 . S
C395 O402 1.267 . S
O396 C395 1.203 . S
O397 C390 1.185 . S
O397 Zn393 2.086 . S
C398 O394 1.278 . S
C398 O399 1.211 . S
O399 C398 1.211 . S
C400 O392 1.284 . S
C400 O401 1.273 . S
O401 C400 1.273 . S
O402 Zn393 1.977 . S
O402 C395 1.267 . S
C403 O404 1.160 . S
C403 O410 1.185 . S
O404 C403 1.160 . S
O405 Zn406 1.899 . S
O405 C413 1.284 . S
Zn406 O405 1.899 . S
Zn406 O407 2.032 . S
Zn406 O410 2.086 . S
Zn406 O415 1.977 . S
O407 Zn406 2.032 . S
O407 C411 1.278 . S
C408 O409 1.203 . S
C408 O415 1.267 . S
O409 C408 1.203 . S
O410 C403 1.185 . S
O410 Zn406 2.086 . S
C411 O407 1.278 . S
C411 O412 1.211 . S
O412 C411 1.211 . S
C413 O405 1.284 . S
C413 O414 1.273 . S
O414 C413 1.273 . S
O415 Zn406 1.977 . S
O415 C408 1.267 . S
C416 O417 1.160 . S
C416 O423 1.185 . S
O417 C416 1.160 . S
O418 Zn419 1.899 . S
O418 C426 1.284 . S
Zn419 O418 1.899 . S
Zn419 O420 2.032 . S
Zn419 O423 2.086 . S
Zn419 O428 1.977 . S
O420 Zn419 2.032 . S
O420 C424 1.278 . S
C421 O422 1.203 . S
C421 O428 1.267 . S
O422 C421 1.203 . S
O423 C416 1.185 . S
O423 Zn419 2.086 . S
C424 O420 1.278 . S
C424 O425 1.211 . S
O425 C424 1.211 . S
C426 O418 1.284 . S
C426 O427 1.273 . S
O427 C426 1.273 . S
O428 Zn419 1.977 . S
O428 C421 1.267 . S
C429 O430 1.160 . S
C429 O436 1.185 . S
O430 C429 1.160 . S
O431 Zn432 1.899 . S
O431 C439 1.284 . S
Zn432 O431 1.899 . S
Zn432 O433 2.032 . S
Zn432 O436 2.086 . S
Zn432 O441 1.977 . S
O433 Zn432 2.032 . S
O433 C437 1.278 . S
C434 O435 1.203 . S
C434 O441 1.267 . S
O435 C434 1.203 . S
O436 C429 1.185 . S
O436 Zn432 2.086 . S
C437 O433 1.278 . S
C437 O438 1.211 . S
O438 C437 1.211 . S
C439 O431 1.284 . S
C439 O440 1.273 . S
O440 C439 1.273 . S
O441 Zn432 1.977 . S
O441 C434 1.267 . S
C442 O443 1.160 . S
C442 O449 1.185 . S
O443 C442 1.160 . S
O444 Zn445 1.899 . S
O444 C452 1.284 . S
Zn445 O444 1.899 . S
Zn445 O446 2.032 . S
Zn445 O449 2.086 . S
Zn445 O454 1.977 . S
O446 Zn445 2.032 . S
O446 C450 1.278 . S
C447 O448 1.203 . S
C447 O454 1.267 . S
O448 C447 1.203 . S
O449 C442 1.185 . S
O449 Zn445 2.086 . S
C450 O446 1.278 . S
C450 O451 1.211 . S
O451 C450 1.211 . S
C452 O444 1.284 . S
C452 O453 1.273 . S
O453 C452 1.273 . S
O454 Zn445 1.977 . S
O454 C447 1.267 . S
C455 O456 1.160 . S
C455 O462 1.185 . S
O456 C455 1.160 . S
O457 Zn458 1.899 . S
O457 C465 1.284 . S
Zn458 O457 1.899 . S
Zn458 O459 2.032 . S
Zn458 O462 2.086 . S
Zn458 O467 1.977 . S
O459 Zn458 2.032 . S
O459 C463 1.278 . S
C460 O461 1.203 . S
C460 O467 1.267 . S
O461 C460 1.203 . S
O462 C455 1.185 . S
O462 Zn458 2.086 . S
C463 O459 1.278 . S
C463 O464 1.211 . S
O464 C463 1.211 . S
C465 O457 1.284 . S
C465 O466 1.273 . S
O466 C465 1.273 . S
O467 Zn458 1.977 . S
O467 C460 1.267 . S
C468 C469 1.387 . S
C468 H472 0.950 . S
C468 C477 1.390 1_554 S
C469 C468 1.387 . S
C469 C471 1.388 1_545 S
H470 C477 0.950 . S
C471 C469 1.388 1_565 S
C471 C473 1.390 . S
C471 H475 0.950 . S
H472 C468 0.950 . S
C473 C471 1.390 . S
C473 C474 1.387 1_554 S
C473 H476 0.950 . S
C474 C473 1.387 1_556 S
C474 C477 1.387 1_565 S
H475 C471 0.950 . S
H476 C473 0.950 . S
C477 C468 1.390 1_556 S
C477 H470 0.950 . S
C477 C474 1.387 1_545 S
C478 C479 1.387 . S
C478 H482 0.950 . S
C478 C487 1.390 . S
C479 C478 1.387 . S
C479 C481 1.387 . S
H480 C487 0.950 . S
C481 C479 1.387 . S
C481 C483 1.375 1_654 S
C481 H485 0.950 . S
H482 C478 0.950 . S
C483 C481 1.375 1_456 S
C483 C484 1.393 . S
C483 H486 0.960 . S
C484 C483 1.393 . S
C484 C487 1.387 1_456 S
H485 C481 0.950 . S
H486 C483 0.960 . S
C487 C478 1.390 . S
C487 H480 0.950 . S
C487 C484 1.387 1_654 S
C488 C489 1.387 1_554 S
C488 H492 0.950 1_554 S
C488 C497 1.390 . S
C489 C488 1.387 1_556 S
C489 C491 1.387 1_556 S
H490 C497 0.950 . S
C491 C489 1.387 1_554 S
C491 C493 1.390 . S
C491 H495 0.950 1_554 S
H492 C488 0.950 1_556 S
C493 C491 1.390 . S
C493 C494 1.387 . S
C493 H496 0.950 . S
C494 C493 1.387 . S
C494 C497 1.387 . S
H495 C491 0.950 1_556 S
H496 C493 0.950 . S
C497 C488 1.390 . S
C497 H490 0.950 . S
C497 C494 1.387 . S
C498 C499 1.387 1_455 S
C498 H502 0.950 . S
C498 C507 1.390 . S
C499 C498 1.387 1_655 S
C499 C501 1.387 . S
H500 C507 0.950 . S
C501 C499 1.387 . S
C501 C503 1.390 1_655 S
C501 H505 0.950 . S
H502 C498 0.950 . S
C503 C501 1.390 1_455 S
C503 C504 1.387 . S
C503 H506 0.950 . S
C504 C503 1.387 . S
C504 C507 1.387 . S
H505 C501 0.950 . S
H506 C503 0.950 . S
C507 C498 1.390 . S
C507 H500 0.950 . S
C507 C504 1.387 . S
C508 C509 1.387 . S
C508 H512 0.950 . S
C508 C517 1.390 . S
C509 C508 1.387 . S
C509 C511 1.387 . S
H510 C517 0.950 . S
C511 C509 1.387 . S
C511 C513 1.390 . S
C511 H515 0.950 . S
H512 C508 0.950 . S
C513 C511 1.390 . S
C513 C514 1.387 . S
C513 H516 0.950 . S
C514 C513 1.387 . S
C514 C517 1.387 . S
H515 C511 0.950 . S
H516 C513 0.950 . S
C517 C508 1.390 . S
C517 H510 0.950 . S
C517 C514 1.387 . S
C518 C519 1.387 . S
C518 H522 0.950 . S
C518 C527 1.390 . S
C519 C518 1.387 . S
C519 C521 1.387 . S
H520 C527 0.950 . S
C521 C519 1.387 . S
C521 C523 1.390 1_565 S
C521 H525 0.950 . S
H522 C518 0.950 . S
C523 C521 1.390 1_545 S
C523 C524 1.387 . S
C523 H526 0.950 . S
C524 C523 1.387 . S
C524 C527 1.387 1_545 S
H525 C521 0.950 . S
H526 C523 0.950 . S
C527 C518 1.390 . S
C527 H520 0.950 . S
C527 C524 1.387 1_565 S
C528 C529 1.387 1_556 S
C528 H532 0.950 . S
C528 C537 1.390 1_545 S
C529 C528 1.387 1_554 S
C529 C531 1.387 1_545 S
H530 C537 0.950 1_545 S
C531 C529 1.387 1_565 S
C531 C533 1.390 1_554 S
C531 H535 0.950 . S
H532 C528 0.950 . S
C533 C531 1.390 1_556 S
C533 C534 1.387 . S
C533 H536 0.950 . S
C534 C533 1.387 . S
C534 C537 1.387 . S
H535 C531 0.950 . S
H536 C533 0.950 . S
C537 C528 1.390 1_565 S
C537 H530 0.950 1_565 S
C537 C534 1.387 . S
C538 C539 1.387 1_556 S
C538 H542 0.945 1_556 S
C538 C547 1.390 1_655 S
C539 C538 1.387 1_554 S
C539 C541 1.382 1_654 S
H540 C547 0.950 . S
C541 C539 1.382 1_456 S
C541 C543 1.406 . S
C541 H545 0.940 1_556 S
H542 C538 0.945 1_554 S
C543 C541 1.406 . S
C543 C544 1.387 . S
C543 H546 0.950 . S
C544 C543 1.387 . S
C544 C547 1.387 . S
H545 C541 0.940 1_554 S
H546 C543 0.950 . S
C547 C538 1.390 1_455 S
C547 H540 0.950 . S
C547 C544 1.387 . S
C548 C549 1.387 . S
C548 H552 0.950 . S
C548 C557 1.390 . S
C549 C548 1.387 . S
C549 C551 1.387 . S
H550 C557 0.950 . S
C551 C549 1.387 . S
C551 C553 1.390 1_556 S
C551 H555 0.950 . S
H552 C548 0.950 . S
C553 C551 1.390 1_554 S
C553 C554 1.387 . S
C553 H556 0.950 . S
C554 C553 1.387 . S
C554 C557 1.387 1_554 S
H555 C551 0.950 . S
H556 C553 0.950 . S
C557 C548 1.390 . S
C557 H550 0.950 . S
C557 C554 1.387 1_556 S
C558 C559 1.387 . S
C558 H562 0.950 . S
C558 C567 1.390 . S
C559 C558 1.387 . S
C559 C561 1.387 . S
H560 C567 0.950 . S
C561 C559 1.387 . S
C561 C563 1.390 1_655 S
C561 H565 0.950 . S
H562 C558 0.950 . S
C563 C561 1.390 1_455 S
C563 C564 1.387 . S
C563 H566 0.950 . S
C564 C563 1.387 . S
C564 C567 1.387 1_455 S
H565 C561 0.950 . S
H566 C563 0.950 . S
C567 C558 1.390 . S
C567 H560 0.950 . S
C567 C564 1.387 1_655 S
C568 C569 1.387 . S
C568 H572 0.950 . S
C568 C577 1.390 . S
C569 C568 1.387 . S
C569 C571 1.387 . S
H570 C577 0.950 . S
C571 C569 1.387 . S
C571 C573 1.390 . S
C571 H575 0.950 . S
H572 C568 0.950 . S
C573 C571 1.390 . S
C573 C574 1.387 . S
C573 H576 0.950 . S
C574 C573 1.387 . S
C574 C577 1.387 . S
H575 C571 0.950 . S
H576 C573 0.950 . S
C577 C568 1.390 . S
C577 H570 0.950 . S
C577 C574 1.387 . S
C578 C579 1.387 . S
C578 H582 0.950 . S
C578 C587 1.376 1_545 S
C579 C578 1.387 . S
C579 C581 1.387 . S
H580 C587 0.972 . S
C581 C579 1.387 . S
C581 C583 1.390 . S
C581 H585 0.950 . S
H582 C578 0.950 . S
C583 C581 1.390 . S
C583 C584 1.387 1_545 S
C583 H586 0.950 1_545 S
C584 C583 1.387 1_565 S
C584 C587 1.380 . S
H585 C581 0.950 . S
H586 C583 0.950 1_565 S
C587 C578 1.376 1_565 S
C587 H580 0.972 . S
C587 C584 1.380 . S
C588 C589 1.387 . S
C588 H592 0.950 . S
C588 C597 1.390 . S
C589 C588 1.387 . S
C589 C591 1.387 . S
H590 C597 0.950 . S
C591 C589 1.387 . S
C591 C593 1.390 . S
C591 H595 0.950 . S
H592 C588 0.950 . S
C593 C591 1.390 . S
C593 C594 1.387 . S
C593 H596 0.950 . S
C594 C593 1.387 . S
C594 C597 1.387 . S
H595 C591 0.950 . S
H596 C593 0.950 . S
C597 C588 1.390 . S
C597 H590 0.950 . S
C597 C594 1.387 . S
C598 C599 1.387 . S
C598 H602 0.950 . S
C598 C607 1.390 . S
C599 C598 1.387 . S
C599 C601 1.387 . S
H600 C607 0.950 . S
C601 C599 1.387 . S
C601 C603 1.390 . S
C601 H605 0.950 . S
H602 C598 0.950 . S
C603 C601 1.390 . S
C603 C604 1.387 . S
C603 H606 0.950 . S
C604 C603 1.387 . S
C604 C607 1.387 . S
H605 C601 0.950 . S
H606 C603 0.950 . S
C607 C598 1.390 . S
C607 H600 0.950 . S
C607 C604 1.387 . S
C608 C609 1.387 . S
C608 H612 0.950 . S
C608 C617 1.390 . S
C609 C608 1.387 . S
C609 C611 1.387 . S
H610 C617 0.950 . S
C611 C609 1.387 . S
C611 C613 1.390 . S
C611 H615 0.950 . S
H612 C608 0.950 . S
C613 C611 1.390 . S
C613 C614 1.387 . S
C613 H616 0.950 . S
C614 C613 1.387 . S
C614 C617 1.387 . S
H615 C611 0.950 . S
H616 C613 0.950 . S
C617 C608 1.390 . S
C617 H610 0.950 . S
C617 C614 1.387 . S
C618 C619 1.387 . S
C618 H622 0.950 . S
C618 C627 1.390 . S
C619 C618 1.387 . S
C619 C621 1.387 . S
H620 C627 0.950 . S
C621 C619 1.387 . S
C621 C623 1.390 . S
C621 H625 0.950 . S
H622 C618 0.950 . S
C623 C621 1.390 . S
C623 C624 1.387 . S
C623 H626 0.950 . S
C624 C623 1.387 . S
C624 C627 1.387 . S
H625 C621 0.950 . S
H626 C623 0.950 . S
C627 C618 1.390 . S
C627 H620 0.950 . S
C627 C624 1.387 . S
C628 C629 1.387 . S
C628 H632 0.950 . S
C628 C637 1.390 . S
C629 C628 1.387 . S
C629 C631 1.387 . S
H630 C637 0.950 . S
C631 C629 1.387 . S
C631 C633 1.390 . S
C631 H635 0.950 . S
H632 C628 0.950 . S
C633 C631 1.390 . S
C633 C634 1.387 . S
C633 H636 0.950 . S
C634 C633 1.387 . S
C634 C637 1.387 . S
H635 C631 0.950 . S
H636 C633 0.950 . S
C637 C628 1.390 . S
C637 H630 0.950 . S
C637 C634 1.387 . S
C638 C639 1.387 . S
C638 H642 0.950 . S
C638 C647 1.390 . S
C639 C638 1.387 . S
C639 C641 1.387 . S
H640 C647 0.950 . S
C641 C639 1.387 . S
C641 C643 1.390 . S
C641 H645 0.950 . S
H642 C638 0.950 . S
C643 C641 1.390 . S
C643 C644 1.387 . S
C643 H646 0.950 . S
C644 C643 1.387 . S
C644 C647 1.387 . S
H645 C641 0.950 . S
H646 C643 0.950 . S
C647 C638 1.390 . S
C647 H640 0.950 . S
C647 C644 1.387 . S
C648 C649 1.387 . S
C648 H652 0.950 . S
C648 C657 1.390 . S
C649 C648 1.387 . S
C649 C651 1.387 . S
H650 C657 0.950 . S
C651 C649 1.387 . S
C651 C653 1.390 . S
C651 H655 0.950 . S
H652 C648 0.950 . S
C653 C651 1.390 . S
C653 C654 1.387 . S
C653 H656 0.950 . S
C654 C653 1.387 . S
C654 C657 1.387 . S
H655 C651 0.950 . S
H656 C653 0.950 . S
C657 C648 1.390 . S
C657 H650 0.950 . S
C657 C654 1.387 . S
C658 C659 1.387 . S
C658 H662 0.950 . S
C658 C667 1.390 . S
C659 C658 1.387 . S
C659 C661 1.387 . S
H660 C667 0.950 . S
C661 C659 1.387 . S
C661 C663 1.390 . S
C661 H665 0.950 . S
H662 C658 0.950 . S
C663 C661 1.390 . S
C663 C664 1.387 . S
C663 H666 0.950 . S
C664 C663 1.387 . S
C664 C667 1.387 . S
H665 C661 0.950 . S
H666 C663 0.950 . S
C667 C658 1.390 . S
C667 H660 0.950 . S
C667 C664 1.387 . S
C668 C669 1.387 . S
C668 H672 0.950 . S
C668 C677 1.390 . S
C669 C668 1.387 . S
C669 C671 1.387 . S
H670 C677 0.950 . S
C671 C669 1.387 . S
C671 C673 1.390 . S
C671 H675 0.950 . S
H672 C668 0.950 . S
C673 C671 1.390 . S
C673 C674 1.387 . S
C673 H676 0.950 . S
C674 C673 1.387 . S
C674 C677 1.387 . S
H675 C671 0.950 . S
H676 C673 0.950 . S
C677 C668 1.390 . S
C677 H670 0.950 . S
C677 C674 1.387 . S
C678 C679 1.387 . S
C678 H682 0.950 . S
C678 C687 1.390 . S
C679 C678 1.387 . S
C679 C681 1.387 . S
H680 C687 0.950 . S
C681 C679 1.387 . S
C681 C683 1.390 . S
C681 H685 0.950 . S
H682 C678 0.950 . S
C683 C681 1.390 . S
C683 C684 1.387 . S
C683 H686 0.950 . S
C684 C683 1.387 . S
C684 C687 1.387 . S
H685 C681 0.950 . S
H686 C683 0.950 . S
C687 C678 1.390 . S
C687 H680 0.950 . S
C687 C684 1.387 . S
C688 C689 1.387 . S
C688 H692 0.950 . S
C688 C697 1.390 . S
C689 C688 1.387 . S
C689 C691 1.387 . S
H690 C697 0.950 . S
C691 C689 1.387 . S
C691 C693 1.390 . S
C691 H695 0.950 . S
H692 C688 0.950 . S
C693 C691 1.390 . S
C693 C694 1.387 . S
C693 H696 0.950 . S
C694 C693 1.387 . S
C694 C697 1.387 . S
H695 C691 0.950 . S
H696 C693 0.950 . S
C697 C688 1.390 . S
C697 H690 0.950 . S
C697 C694 1.387 . S
C698 C699 1.387 . S
C698 H702 0.950 . S
C698 C707 1.390 . S
C699 C698 1.387 . S
C699 C701 1.387 . S
H700 C707 0.950 . S
C701 C699 1.387 . S
C701 C703 1.390 . S
C701 H705 0.950 . S
H702 C698 0.950 . S
C703 C701 1.390 . S
C703 C704 1.387 . S
C703 H706 0.950 . S
C704 C703 1.387 . S
C704 C707 1.387 . S
H705 C701 0.950 . S
H706 C703 0.950 . S
C707 C698 1.390 . S
C707 H700 0.950 . S
C707 C704 1.387 . S
C708 C709 1.387 . S
C708 H712 0.950 . S
C708 C717 1.390 . S
C709 C708 1.387 . S
C709 C711 1.387 . S
H710 C717 0.950 . S
C711 C709 1.387 . S
C711 C713 1.390 . S
C711 H715 0.950 . S
H712 C708 0.950 . S
C713 C711 1.390 . S
C713 C714 1.387 . S
C713 H716 0.950 . S
C714 C713 1.387 . S
C714 C717 1.387 . S
H715 C711 0.950 . S
H716 C713 0.950 . S
C717 C708 1.390 . S
C717 H710 0.950 . S
C717 C714 1.387 . S
C718 C719 1.387 . S
C718 H722 0.950 . S
C718 C727 1.390 . S
C719 C718 1.387 . S
C719 C721 1.387 . S
H720 C727 0.950 . S
C721 C719 1.387 . S
C721 C723 1.390 . S
C721 H725 0.950 . S
H722 C718 0.950 . S
C723 C721 1.390 . S
C723 C724 1.387 . S
C723 H726 0.950 . S
C724 C723 1.387 . S
C724 C727 1.387 . S
H725 C721 0.950 . S
H726 C723 0.950 . S
C727 C718 1.390 . S
C727 H720 0.950 . S
C727 C724 1.387 . S
C728 C729 1.387 . S
C728 H732 0.950 . S
C728 C737 1.390 . S
C729 C728 1.387 . S
C729 C731 1.387 . S
H730 C737 0.950 . S
C731 C729 1.387 . S
C731 C733 1.390 . S
C731 H735 0.950 . S
H732 C728 0.950 . S
C733 C731 1.390 . S
C733 C734 1.387 . S
C733 H736 0.950 . S
C734 C733 1.387 . S
C734 C737 1.387 . S
H735 C731 0.950 . S
H736 C733 0.950 . S
C737 C728 1.390 . S
C737 H730 0.950 . S
C737 C734 1.387 . S
C738 C739 1.387 . S
C738 H742 0.950 . S
C738 C747 1.390 . S
C739 C738 1.387 . S
C739 C741 1.387 . S
H740 C747 0.950 . S
C741 C739 1.387 . S
C741 C743 1.390 . S
C741 H745 0.950 . S
H742 C738 0.950 . S
C743 C741 1.390 . S
C743 C744 1.387 . S
C743 H746 0.950 . S
C744 C743 1.387 . S
C744 C747 1.387 . S
H745 C741 0.950 . S
H746 C743 0.950 . S
C747 C738 1.390 . S
C747 H740 0.950 . S
C747 C744 1.387 . S
C748 C749 1.387 . S
C748 H752 0.950 . S
C748 C757 1.390 . S
C749 C748 1.387 . S
C749 C751 1.387 . S
H750 C757 0.950 . S
C751 C749 1.387 . S
C751 C753 1.390 . S
C751 H755 0.950 . S
H752 C748 0.950 . S
C753 C751 1.390 . S
C753 C754 1.387 . S
C753 H756 0.950 . S
C754 C753 1.387 . S
C754 C757 1.387 . S
H755 C751 0.950 . S
H756 C753 0.950 . S
C757 C748 1.390 . S
C757 H750 0.950 . S
C757 C754 1.387 . S
C758 C759 1.387 . S
C758 H762 0.950 . S
C758 C767 1.390 . S
C759 C758 1.387 . S
C759 C761 1.387 . S
H760 C767 0.950 . S
C761 C759 1.387 . S
C761 C763 1.390 . S
C761 H765 0.950 . S
H762 C758 0.950 . S
C763 C761 1.390 . S
C763 C764 1.387 . S
C763 H766 0.950 . S
C764 C763 1.387 . S
C764 C767 1.387 . S
H765 C761 0.950 . S
H766 C763 0.950 . S
C767 C758 1.390 . S
C767 H760 0.950 . S
C767 C764 1.387 . S
C768 C769 1.387 . S
C768 H772 0.950 . S
C768 C777 1.390 . S
C769 C768 1.387 . S
C769 C771 1.387 . S
H770 C777 0.950 . S
C771 C769 1.387 . S
C771 C773 1.390 . S
C771 H775 0.950 . S
H772 C768 0.950 . S
C773 C771 1.390 . S
C773 C774 1.387 . S
C773 H776 0.950 . S
C774 C773 1.387 . S
C774 C777 1.387 . S
H775 C771 0.950 . S
H776 C773 0.950 . S
C777 C768 1.390 . S
C777 H770 0.950 . S
C777 C774 1.387 . S
C778 C779 1.387 . S
C778 H782 0.950 . S
C778 C787 1.390 . S
C779 C778 1.387 . S
C779 C781 1.387 . S
H780 C787 0.950 . S
C781 C779 1.387 . S
C781 C783 1.390 . S
C781 H785 0.950 . S
H782 C778 0.950 . S
C783 C781 1.390 . S
C783 C784 1.387 . S
C783 H786 0.950 . S
C784 C783 1.387 . S
C784 C787 1.387 . S
H785 C781 0.950 . S
H786 C783 0.950 . S
C787 C778 1.390 . S
C787 H780 0.950 . S
C787 C784 1.387 . S
C788 C789 1.387 . S
C788 H792 0.950 . S
C788 C797 1.390 . S
C789 C788 1.387 . S
C789 C791 1.387 . S
H790 C797 0.950 . S
C791 C789 1.387 . S
C791 C793 1.390 . S
C791 H795 0.950 . S
H792 C788 0.950 . S
C793 C791 1.390 . S
C793 C794 1.387 . S
C793 H796 0.950 . S
C794 C793 1.387 . S
C794 C797 1.387 . S
H795 C791 0.950 . S
H796 C793 0.950 . S
C797 C788 1.390 . S
C797 H790 0.950 . S
C797 C794 1.387 . S
C798 C799 1.387 . S
C798 H802 0.950 . S
C798 C807 1.390 . S
C799 C798 1.387 . S
C799 C801 1.387 . S
H800 C807 0.950 . S
C801 C799 1.387 . S
C801 C803 1.390 . S
C801 H805 0.950 . S
H802 C798 0.950 . S
C803 C801 1.390 . S
C803 C804 1.387 . S
C803 H806 0.950 . S
C804 C803 1.387 . S
C804 C807 1.387 . S
H805 C801 0.950 . S
H806 C803 0.950 . S
C807 C798 1.390 . S
C807 H800 0.950 . S
C807 C804 1.387 . S
C808 C809 1.387 . S
C808 H812 0.950 . S
C808 C817 1.390 . S
C809 C808 1.387 . S
C809 C811 1.387 . S
H810 C817 0.950 . S
C811 C809 1.387 . S
C811 C813 1.390 . S
C811 H815 0.950 . S
H812 C808 0.950 . S
C813 C811 1.390 . S
C813 C814 1.387 . S
C813 H816 0.950 . S
C814 C813 1.387 . S
C814 C817 1.387 . S
H815 C811 0.950 . S
H816 C813 0.950 . S
C817 C808 1.390 . S
C817 H810 0.950 . S
C817 C814 1.387 . S
C818 C819 1.387 . S
C818 H822 0.950 . S
C818 C827 1.390 . S
C819 C818 1.387 . S
C819 C821 1.387 . S
H820 C827 0.950 . S
C821 C819 1.387 . S
C821 C823 1.390 . S
C821 H825 0.950 . S
H822 C818 0.950 . S
C823 C821 1.390 . S
C823 C824 1.387 . S
C823 H826 0.950 . S
C824 C823 1.387 . S
C824 C827 1.387 . S
H825 C821 0.950 . S
H826 C823 0.950 . S
C827 C818 1.390 . S
C827 H820 0.950 . S
C827 C824 1.387 . S
C828 C829 1.387 . S
C828 H832 0.950 . S
C828 C837 1.390 . S
C829 C828 1.387 . S
C829 C831 1.387 . S
H830 C837 0.950 . S
C831 C829 1.387 . S
C831 C833 1.390 . S
C831 H835 0.950 . S
H832 C828 0.950 . S
C833 C831 1.390 . S
C833 C834 1.387 . S
C833 H836 0.950 . S
C834 C833 1.387 . S
C834 C837 1.387 . S
H835 C831 0.950 . S
H836 C833 0.950 . S
C837 C828 1.390 . S
C837 H830 0.950 . S
C837 C834 1.387 . S
C838 C839 1.387 . S
C838 H842 0.950 . S
C838 C847 1.390 1_565 S
C839 C838 1.387 . S
C839 C841 1.387 . S
H840 C847 0.950 . S
C841 C839 1.387 . S
C841 C843 1.390 1_565 S
C841 H845 0.950 . S
H842 C838 0.950 . S
C843 C841 1.390 1_545 S
C843 C844 1.387 . S
C843 H846 0.950 . S
C844 C843 1.387 . S
C844 C847 1.387 . S
H845 C841 0.950 . S
H846 C843 0.950 . S
C847 C838 1.390 1_545 S
C847 H840 0.950 . S
C847 C844 1.387 . S
C848 C849 1.387 . S
C848 H852 0.950 . S
C848 C857 1.390 1_655 S
C849 C848 1.387 . S
C849 C851 1.387 . S
H850 C857 0.950 . S
C851 C849 1.387 . S
C851 C853 1.390 1_655 S
C851 H855 0.950 . S
H852 C848 0.950 . S
C853 C851 1.390 1_455 S
C853 C854 1.387 . S
C853 H856 0.950 . S
C854 C853 1.387 . S
C854 C857 1.387 . S
H855 C851 0.950 . S
H856 C853 0.950 . S
C857 C848 1.390 1_455 S
C857 H850 0.950 . S
C857 C854 1.387 . S
C858 C859 1.387 . S
C858 H862 0.950 . S
C858 C867 1.390 . S
C859 C858 1.387 . S
C859 C861 1.387 . S
H860 C867 0.950 . S
C861 C859 1.387 . S
C861 C863 1.390 . S
C861 H865 0.950 . S
H862 C858 0.950 . S
C863 C861 1.390 . S
C863 C864 1.387 . S
C863 H866 0.950 . S
C864 C863 1.387 . S
C864 C867 1.387 . S
H865 C861 0.950 . S
H866 C863 0.950 . S
C867 C858 1.390 . S
C867 H860 0.950 . S
C867 C864 1.387 . S
C868 C869 1.387 . S
C868 H872 0.950 . S
C868 C877 1.390 1_545 S
C869 C868 1.387 . S
C869 C871 1.387 . S
H870 C877 0.950 . S
C871 C869 1.387 . S
C871 C873 1.390 1_545 S
C871 H875 0.950 . S
H872 C868 0.950 . S
C873 C871 1.390 1_565 S
C873 C874 1.387 . S
C873 H876 0.950 . S
C874 C873 1.387 . S
C874 C877 1.387 . S
H875 C871 0.950 . S
H876 C873 0.950 . S
C877 C868 1.390 1_565 S
C877 H870 0.950 . S
C877 C874 1.387 . S
C878 C879 1.387 . S
C878 H882 0.950 . S
C878 C887 1.390 . S
C879 C878 1.387 . S
C879 C881 1.388 1_655 S
H880 C887 0.950 . S
C881 C879 1.388 1_455 S
C881 C883 1.390 . S
C881 H885 0.950 . S
H882 C878 0.950 . S
C883 C881 1.390 . S
C883 C884 1.387 . S
C883 H886 0.950 . S
C884 C883 1.387 . S
C884 C887 1.388 1_455 S
H885 C881 0.950 . S
H886 C883 0.950 . S
C887 C878 1.390 . S
C887 H880 0.950 . S
C887 C884 1.388 1_655 S
C888 C889 1.387 . S
C888 H892 0.950 . S
C888 C897 1.390 . S
C889 C888 1.387 . S
C889 C891 1.387 . S
H890 C897 0.950 . S
C891 C889 1.387 . S
C891 C893 1.390 . S
C891 H895 0.950 . S
H892 C888 0.950 . S
C893 C891 1.390 . S
C893 C894 1.387 . S
C893 H896 0.950 . S
C894 C893 1.387 . S
C894 C897 1.387 . S
H895 C891 0.950 . S
H896 C893 0.950 . S
C897 C888 1.390 . S
C897 H890 0.950 . S
C897 C894 1.387 . S
C898 C899 1.387 . S
C898 H902 0.950 . S
C898 C907 1.390 . S
C899 C898 1.387 . S
C899 C901 1.387 . S
H900 C907 0.950 . S
C901 C899 1.387 . S
C901 C903 1.390 . S
C901 H905 0.950 . S
H902 C898 0.950 . S
C903 C901 1.390 . S
C903 C904 1.387 . S
C903 H906 0.950 . S
C904 C903 1.387 . S
C904 C907 1.387 . S
H905 C901 0.950 . S
H906 C903 0.950 . S
C907 C898 1.390 . S
C907 H900 0.950 . S
C907 C904 1.387 . S
C908 C909 1.387 . S
C908 H912 0.950 . S
C908 C917 1.390 . S
C909 C908 1.387 . S
C909 C911 1.387 . S
H910 C917 0.950 . S
C911 C909 1.387 . S
C911 C913 1.390 . S
C911 H915 0.950 . S
H912 C908 0.950 . S
C913 C911 1.390 . S
C913 C914 1.387 . S
C913 H916 0.950 . S
C914 C913 1.387 . S
C914 C917 1.387 . S
H915 C911 0.950 . S
H916 C913 0.950 . S
C917 C908 1.390 . S
C917 H910 0.950 . S
C917 C914 1.387 . S
C918 C919 1.387 . S
C918 H922 0.950 . S
C918 C927 1.390 . S
C919 C918 1.387 . S
C919 C921 1.387 . S
H920 C927 0.950 . S
C921 C919 1.387 . S
C921 C923 1.390 . S
C921 H925 0.950 . S
H922 C918 0.950 . S
C923 C921 1.390 . S
C923 C924 1.387 . S
C923 H926 0.950 . S
C924 C923 1.387 . S
C924 C927 1.387 . S
H925 C921 0.950 . S
H926 C923 0.950 . S
C927 C918 1.390 . S
C927 H920 0.950 . S
C927 C924 1.387 . S
C928 C929 1.387 . S
C928 H932 0.950 . S
C928 C937 1.390 . S
C929 C928 1.387 . S
C929 C931 1.387 . S
H930 C937 0.950 . S
C931 C929 1.387 . S
C931 C933 1.390 . S
C931 H935 0.950 . S
H932 C928 0.950 . S
C933 C931 1.390 . S
C933 C934 1.387 . S
C933 H936 0.950 . S
C934 C933 1.387 . S
C934 C937 1.387 . S
H935 C931 0.950 . S
H936 C933 0.950 . S
C937 C928 1.390 . S
C937 H930 0.950 . S
C937 C934 1.387 . S
C938 C939 1.387 . S
C938 H942 0.950 . S
C938 C947 1.390 . S
C939 C938 1.387 . S
C939 C941 1.387 . S
H940 C947 0.950 . S
C941 C939 1.387 . S
C941 C943 1.390 . S
C941 H945 0.950 . S
H942 C938 0.950 . S
C943 C941 1.390 . S
C943 C944 1.387 . S
C943 H946 0.950 . S
C944 C943 1.387 . S
C944 C947 1.387 . S
H945 C941 0.950 . S
H946 C943 0.950 . S
C947 C938 1.390 . S
C947 H940 0.950 . S
C947 C944 1.387 . S
C948 C949 1.387 . S
C948 H952 0.950 . S
C948 C957 1.390 . S
C949 C948 1.387 . S
C949 C951 1.387 . S
H950 C957 0.950 . S
C951 C949 1.387 . S
C951 C953 1.390 . S
C951 H955 0.950 . S
H952 C948 0.950 . S
C953 C951 1.390 . S
C953 C954 1.387 . S
C953 H956 0.950 . S
C954 C953 1.387 . S
C954 C957 1.387 . S
H955 C951 0.950 . S
H956 C953 0.950 . S
C957 C948 1.390 . S
C957 H950 0.950 . S
C957 C954 1.387 . S
C958 C959 1.387 . S
C958 H962 0.950 . S
C958 C967 1.390 . S
C959 C958 1.387 . S
C959 C961 1.387 . S
H960 C967 0.950 . S
C961 C959 1.387 . S
C961 C963 1.390 . S
C961 H965 0.950 . S
H962 C958 0.950 . S
C963 C961 1.390 . S
C963 C964 1.387 . S
C963 H966 0.950 . S
C964 C963 1.387 . S
C964 C967 1.387 . S
H965 C961 0.950 . S
H966 C963 0.950 . S
C967 C958 1.390 . S
C967 H960 0.950 . S
C967 C964 1.387 . S
C968 C969 1.387 . S
C968 H972 0.950 . S
C968 C977 1.390 . S
C969 C968 1.387 . S
C969 C971 1.387 . S
H970 C977 0.950 . S
C971 C969 1.387 . S
C971 C973 1.390 . S
C971 H975 0.950 . S
H972 C968 0.950 . S
C973 C971 1.390 . S
C973 C974 1.387 . S
C973 H976 0.950 . S
C974 C973 1.387 . S
C974 C977 1.387 . S
H975 C971 0.950 . S
H976 C973 0.950 . S
C977 C968 1.390 . S
C977 H970 0.950 . S
C977 C974 1.387 . S
C978 C979 1.387 . S
C978 H982 0.950 . S
C978 C987 1.390 . S
C979 C978 1.387 . S
C979 C981 1.387 . S
H980 C987 0.950 . S
C981 C979 1.387 . S
C981 C983 1.390 . S
C981 H985 0.950 . S
H982 C978 0.950 . S
C983 C981 1.390 . S
C983 C984 1.387 . S
C983 H986 0.950 . S
C984 C983 1.387 . S
C984 C987 1.387 . S
H985 C981 0.950 . S
H986 C983 0.950 . S
C987 C978 1.390 . S
C987 H980 0.950 . S
C987 C984 1.387 . S
C988 C989 1.387 . S
C988 H992 0.950 . S
C988 C997 1.390 . S
C989 C988 1.387 . S
C989 C991 1.387 . S
H990 C997 0.950 . S
C991 C989 1.387 . S
C991 C993 1.390 . S
C991 H995 0.950 . S
H992 C988 0.950 . S
C993 C991 1.390 . S
C993 C994 1.387 . S
C993 H996 0.950 . S
C994 C993 1.387 . S
C994 C997 1.387 . S
H995 C991 0.950 . S
H996 C993 0.950 . S
C997 C988 1.390 . S
C997 H990 0.950 . S
C997 C994 1.387 . S
C998 C999 1.387 . S
C998 H1002 0.950 . S
C998 C1007 1.390 . S
C999 C998 1.387 . S
C999 C1001 1.387 . S
H1000 C1007 0.950 . S
C1001 C999 1.387 . S
C1001 C1003 1.390 . S
C1001 H1005 0.950 . S
H1002 C998 0.950 . S
C1003 C1001 1.390 . S
C1003 C1004 1.387 . S
C1003 H1006 0.950 . S
C1004 C1003 1.387 . S
C1004 C1007 1.387 . S
H1005 C1001 0.950 . S
H1006 C1003 0.950 . S
C1007 C998 1.390 . S
C1007 H1000 0.950 . S
C1007 C1004 1.387 . S
C1008 C1009 1.387 . S
C1008 H1012 0.950 . S
C1008 C1017 1.390 . S
C1009 C1008 1.387 . S
C1009 C1011 1.387 . S
H1010 C1017 0.950 . S
C1011 C1009 1.387 . S
C1011 C1013 1.390 . S
C1011 H1015 0.950 . S
H1012 C1008 0.950 . S
C1013 C1011 1.390 . S
C1013 C1014 1.387 . S
C1013 H1016 0.950 . S
C1014 C1013 1.387 . S
C1014 C1017 1.387 . S
H1015 C1011 0.950 . S
H1016 C1013 0.950 . S
C1017 C1008 1.390 . S
C1017 H1010 0.950 . S
C1017 C1014 1.387 . S
C1018 C1019 1.387 . S
C1018 H1022 0.950 . S
C1018 C1027 1.390 . S
C1019 C1018 1.387 . S
C1019 C1021 1.387 . S
H1020 C1027 0.950 . S
C1021 C1019 1.387 . S
C1021 C1023 1.390 . S
C1021 H1025 0.950 . S
H1022 C1018 0.950 . S
C1023 C1021 1.390 . S
C1023 C1024 1.387 . S
C1023 H1026 0.950 . S
C1024 C1023 1.387 . S
C1024 C1027 1.387 . S
H1025 C1021 0.950 . S
H1026 C1023 0.950 . S
C1027 C1018 1.390 . S
C1027 H1020 0.950 . S
C1027 C1024 1.387 . S
C1028 C1029 1.387 . S
C1028 H1032 0.950 . S
C1028 C1037 1.390 . S
C1029 C1028 1.387 . S
C1029 C1031 1.387 . S
H1030 C1037 0.950 . S
C1031 C1029 1.387 . S
C1031 C1033 1.390 . S
C1031 H1035 0.950 . S
H1032 C1028 0.950 . S
C1033 C1031 1.390 . S
C1033 C1034 1.387 . S
C1033 H1036 0.950 . S
C1034 C1033 1.387 . S
C1034 C1037 1.387 . S
H1035 C1031 0.950 . S
H1036 C1033 0.950 . S
C1037 C1028 1.390 . S
C1037 H1030 0.950 . S
C1037 C1034 1.387 . S
C1038 C1039 1.387 . S
C1038 H1042 0.950 . S
C1038 C1047 1.390 . S
C1039 C1038 1.387 . S
C1039 C1041 1.387 . S
H1040 C1047 0.950 . S
C1041 C1039 1.387 . S
C1041 C1043 1.390 . S
C1041 H1045 0.950 . S
H1042 C1038 0.950 . S
C1043 C1041 1.390 . S
C1043 C1044 1.387 . S
C1043 H1046 0.950 . S
C1044 C1043 1.387 . S
C1044 C1047 1.387 . S
H1045 C1041 0.950 . S
H1046 C1043 0.950 . S
C1047 C1038 1.390 . S
C1047 H1040 0.950 . S
C1047 C1044 1.387 . S
C1048 C1049 1.387 . S
C1048 H1052 0.950 . S
C1048 C1057 1.390 . S
C1049 C1048 1.387 . S
C1049 C1051 1.387 . S
H1050 C1057 0.950 . S
C1051 C1049 1.387 . S
C1051 C1053 1.390 . S
C1051 H1055 0.950 . S
H1052 C1048 0.950 . S
C1053 C1051 1.390 . S
C1053 C1054 1.387 . S
C1053 H1056 0.950 . S
C1054 C1053 1.387 . S
C1054 C1057 1.387 . S
H1055 C1051 0.950 . S
H1056 C1053 0.950 . S
C1057 C1048 1.390 . S
C1057 H1050 0.950 . S
C1057 C1054 1.387 . S
C1058 C1059 1.387 . S
C1058 H1062 0.950 . S
C1058 C1067 1.390 . S
C1059 C1058 1.387 . S
C1059 C1061 1.387 . S
H1060 C1067 0.950 . S
C1061 C1059 1.387 . S
C1061 C1063 1.390 . S
C1061 H1065 0.950 . S
H1062 C1058 0.950 . S
C1063 C1061 1.390 . S
C1063 C1064 1.387 . S
C1063 H1066 0.950 . S
C1064 C1063 1.387 . S
C1064 C1067 1.387 . S
H1065 C1061 0.950 . S
H1066 C1063 0.950 . S
C1067 C1058 1.390 . S
C1067 H1060 0.950 . S
C1067 C1064 1.387 . S
C1068 C1069 1.387 . S
C1068 H1072 0.950 . S
C1068 C1077 1.390 . S
C1069 C1068 1.387 . S
C1069 C1071 1.387 . S
H1070 C1077 0.950 . S
C1071 C1069 1.387 . S
C1071 C1073 1.390 . S
C1071 H1075 0.950 . S
H1072 C1068 0.950 . S
C1073 C1071 1.390 . S
C1073 C1074 1.387 . S
C1073 H1076 0.950 . S
C1074 C1073 1.387 . S
C1074 C1077 1.387 . S
H1075 C1071 0.950 . S
H1076 C1073 0.950 . S
C1077 C1068 1.390 . S
C1077 H1070 0.950 . S
C1077 C1074 1.387 . S
C1078 C1079 1.387 . S
C1078 H1082 0.950 . S
C1078 C1087 1.390 . S
C1079 C1078 1.387 . S
C1079 C1081 1.387 . S
H1080 C1087 0.950 . S
C1081 C1079 1.387 . S
C1081 C1083 1.390 . S
C1081 H1085 0.950 . S
H1082 C1078 0.950 . S
C1083 C1081 1.390 . S
C1083 C1084 1.387 . S
C1083 H1086 0.950 . S
C1084 C1083 1.387 . S
C1084 C1087 1.387 . S
H1085 C1081 0.950 . S
H1086 C1083 0.950 . S
C1087 C1078 1.390 . S
C1087 H1080 0.950 . S
C1087 C1084 1.387 . S
C1088 C1089 1.387 . S
C1088 H1092 0.950 . S
C1088 C1097 1.390 . S
C1089 C1088 1.387 . S
C1089 C1091 1.387 . S
H1090 C1097 0.950 . S
C1091 C1089 1.387 . S
C1091 C1093 1.390 . S
C1091 H1095 0.950 . S
H1092 C1088 0.950 . S
C1093 C1091 1.390 . S
C1093 C1094 1.387 . S
C1093 H1096 0.950 . S
C1094 C1093 1.387 . S
C1094 C1097 1.387 . S
H1095 C1091 0.950 . S
H1096 C1093 0.950 . S
C1097 C1088 1.390 . S
C1097 H1090 0.950 . S
C1097 C1094 1.387 . S
C1098 C1099 1.387 . S
C1098 H1102 0.950 . S
C1098 C1107 1.390 . S
C1099 C1098 1.387 . S
C1099 C1101 1.387 . S
H1100 C1107 0.950 . S
C1101 C1099 1.387 . S
C1101 C1103 1.390 . S
C1101 H1105 0.950 . S
H1102 C1098 0.950 . S
C1103 C1101 1.390 . S
C1103 C1104 1.387 . S
C1103 H1106 0.950 . S
C1104 C1103 1.387 . S
C1104 C1107 1.387 . S
H1105 C1101 0.950 . S
H1106 C1103 0.950 . S
C1107 C1098 1.390 . S
C1107 H1100 0.950 . S
C1107 C1104 1.387 . S
C1108 C1109 1.387 . S
C1108 H1112 0.950 . S
C1108 C1117 1.390 . S
C1109 C1108 1.387 . S
C1109 C1111 1.387 . S
H1110 C1117 0.950 . S
C1111 C1109 1.387 . S
C1111 C1113 1.390 . S
C1111 H1115 0.950 . S
H1112 C1108 0.950 . S
C1113 C1111 1.390 . S
C1113 C1114 1.387 . S
C1113 H1116 0.950 . S
C1114 C1113 1.387 . S
C1114 C1117 1.387 . S
H1115 C1111 0.950 . S
H1116 C1113 0.950 . S
C1117 C1108 1.390 . S
C1117 H1110 0.950 . S
C1117 C1114 1.387 . S
C1118 C1119 1.387 . S
C1118 H1122 0.950 . S
C1118 C1127 1.390 . S
C1119 C1118 1.387 . S
C1119 C1121 1.387 . S
H1120 C1127 0.950 . S
C1121 C1119 1.387 . S
C1121 C1123 1.390 . S
C1121 H1125 0.950 . S
H1122 C1118 0.950 . S
C1123 C1121 1.390 . S
C1123 C1124 1.387 . S
C1123 H1126 0.950 . S
C1124 C1123 1.387 . S
C1124 C1127 1.387 . S
H1125 C1121 0.950 . S
H1126 C1123 0.950 . S
C1127 C1118 1.390 . S
C1127 H1120 0.950 . S
C1127 C1124 1.387 . S
C1128 C1129 1.387 . S
C1128 H1132 0.950 . S
C1128 C1137 1.390 1_455 S
C1129 C1128 1.387 . S
C1129 C1131 1.387 . S
H1130 C1137 0.950 . S
C1131 C1129 1.387 . S
C1131 C1133 1.390 1_455 S
C1131 H1135 0.950 . S
H1132 C1128 0.950 . S
C1133 C1131 1.390 1_655 S
C1133 C1134 1.387 . S
C1133 H1136 0.950 . S
C1134 C1133 1.387 . S
C1134 C1137 1.387 . S
H1135 C1131 0.950 . S
H1136 C1133 0.950 . S
C1137 C1128 1.390 1_655 S
C1137 H1130 0.950 . S
C1137 C1134 1.387 . S
C1138 C1139 1.387 . S
C1138 H1142 0.950 . S
C1138 C1147 1.390 . S
C1139 C1138 1.387 . S
C1139 C1141 1.387 . S
H1140 C1147 0.950 . S
C1141 C1139 1.387 . S
C1141 C1143 1.390 . S
C1141 H1145 0.950 . S
H1142 C1138 0.950 . S
C1143 C1141 1.390 . S
C1143 C1144 1.387 . S
C1143 H1146 0.950 . S
C1144 C1143 1.387 . S
C1144 C1147 1.387 . S
H1145 C1141 0.950 . S
H1146 C1143 0.950 . S
C1147 C1138 1.390 . S
C1147 H1140 0.950 . S
C1147 C1144 1.387 . S
C1148 C1149 1.387 . S
C1148 H1152 0.950 . S
C1148 C1157 1.390 1_545 S
C1149 C1148 1.387 . S
C1149 C1151 1.387 . S
H1150 C1157 0.950 . S
C1151 C1149 1.387 . S
C1151 C1153 1.390 1_545 S
C1151 H1155 0.950 . S
H1152 C1148 0.950 . S
C1153 C1151 1.390 1_565 S
C1153 C1154 1.387 . S
C1153 H1156 0.950 . S
C1154 C1153 1.387 . S
C1154 C1157 1.387 . S
H1155 C1151 0.950 . S
H1156 C1153 0.950 . S
C1157 C1148 1.390 1_565 S
C1157 H1150 0.950 . S
C1157 C1154 1.387 . S
C1158 C1159 1.387 . S
C1158 H1162 0.950 . S
C1158 C1167 1.390 1_545 S
C1159 C1158 1.387 . S
C1159 C1161 1.387 1_556 S
H1160 C1167 0.950 . S
C1161 C1159 1.387 1_554 S
C1161 C1163 1.390 1_545 S
C1161 H1165 0.950 . S
H1162 C1158 0.950 . S
C1163 C1161 1.390 1_565 S
C1163 C1164 1.387 . S
C1163 H1166 0.950 . S
C1164 C1163 1.387 . S
C1164 C1167 1.387 1_554 S
H1165 C1161 0.950 . S
H1166 C1163 0.950 . S
C1167 C1158 1.390 1_565 S
C1167 H1160 0.950 . S
C1167 C1164 1.387 1_556 S
C1168 C1169 1.387 . S
C1168 H1172 0.950 . S
C1168 C1177 1.390 1_655 S
C1169 C1168 1.387 . S
C1169 C1171 1.387 1_556 S
H1170 C1177 0.950 . S
C1171 C1169 1.387 1_554 S
C1171 C1173 1.390 1_655 S
C1171 H1175 0.950 . S
H1172 C1168 0.950 . S
C1173 C1171 1.390 1_455 S
C1173 C1174 1.387 . S
C1173 H1176 0.950 . S
C1174 C1173 1.387 . S
C1174 C1177 1.387 1_554 S
H1175 C1171 0.950 . S
H1176 C1173 0.950 . S
C1177 C1168 1.390 1_455 S
C1177 H1170 0.950 . S
C1177 C1174 1.387 1_556 S
C1178 C1179 1.387 1_554 S
C1178 H1182 0.950 . S
C1178 C1187 1.390 . S
C1179 C1178 1.387 1_556 S
C1179 C1181 1.387 . S
H1180 C1187 0.950 . S
C1181 C1179 1.387 . S
C1181 C1183 1.390 . S
C1181 H1185 0.950 . S
H1182 C1178 0.950 . S
C1183 C1181 1.390 . S
C1183 C1184 1.387 1_556 S
C1183 H1186 0.950 . S
C1184 C1183 1.387 1_554 S
C1184 C1187 1.387 . S
H1185 C1181 0.950 . S
H1186 C1183 0.950 . S
C1187 C1178 1.390 . S
C1187 H1180 0.950 . S
C1187 C1184 1.387 . S
C469 C10 1.264 . S
C474 C96 1.198 . S
C479 C23 1.264 . S
C484 C109 1.195 . S
C489 C83 1.196 . S
C494 C36 1.264 . S
C499 C148 1.196 . S
C504 C49 1.263 . S
C509 C62 1.265 . S
C514 C122 1.196 . S
C519 C75 1.265 . S
C524 C135 1.198 . S
C529 C18 1.197 . S
C534 C88 1.264 . S
C539 C31 1.196 . S
C544 C101 1.264 . S
C549 C114 1.264 . S
C554 C5 1.196 . S
C559 C127 1.265 . S
C564 C70 1.195 . S
C569 C44 1.193 . S
C574 C140 1.264 . S
C579 C153 1.263 . S
C584 C57 1.195 . S
C589 C252 1.196 . S
C594 C166 1.264 . S
C599 C179 1.264 . S
C604 C265 1.193 . S
C609 C192 1.265 . S
C614 C239 1.197 . S
C619 C304 1.196 . S
C624 C205 1.264 . S
C629 C218 1.264 . S
C634 C278 1.193 . S
C639 C291 1.195 . S
C644 C231 1.263 . S
C649 C174 1.198 . S
C654 C244 1.265 . S
C659 C257 1.265 . S
C664 C187 1.194 . S
C669 C161 1.196 . S
C674 C270 1.264 . S
C679 C283 1.263 . S
C684 C226 1.196 . S
C689 C296 1.265 . S
C694 C200 1.197 . S
C699 C309 1.265 . S
C704 C213 1.193 . S
C709 C408 1.197 . S
C714 C322 1.264 . S
C719 C421 1.194 . S
C724 C335 1.264 . S
C729 C395 1.196 . S
C734 C348 1.264 . S
C739 C361 1.263 . S
C744 C460 1.196 . S
C749 C374 1.264 . S
C754 C434 1.194 . S
C759 C447 1.197 . S
C764 C387 1.264 . S
C769 C400 1.265 . S
C774 C330 1.195 . S
C779 C343 1.193 . S
C784 C413 1.265 . S
C789 C317 1.196 . S
C794 C426 1.264 . S
C799 C439 1.263 . S
C804 C382 1.195 . S
C809 C452 1.265 . S
C814 C356 1.197 . S
C819 C465 1.264 . S
C824 C369 1.198 . S
C829 C47 1.392 . S
C834 C8 1.391 . S
C839 C60 1.387 . S
C844 C21 1.387 . S
C849 C34 1.393 . S
C854 C73 1.392 . S
C859 C125 1.388 . S
C864 C86 1.388 . S
C869 C138 1.393 . S
C874 C99 1.393 . S
C879 C151 1.389 . S
C884 C112 1.390 . S
C889 C203 1.392 . S
C894 C164 1.392 . S
C899 C216 1.388 . S
C904 C177 1.387 . S
C909 C190 1.389 . S
C914 C229 1.390 . S
C919 C281 1.387 . S
C924 C242 1.388 . S
C929 C294 1.387 . S
C934 C255 1.387 . S
C939 C307 1.391 . S
C944 C268 1.392 . S
C949 C359 1.389 . S
C954 C320 1.390 . S
C959 C333 1.393 . S
C964 C372 1.393 . S
C969 C385 1.393 . S
C974 C346 1.393 . S
C979 C398 1.391 . S
C984 C437 1.392 . S
C989 C411 1.393 . S
C994 C450 1.393 . S
C999 C424 1.388 . S
C1004 C463 1.388 . S
C1009 C0 1.442 . S
C1014 C234 1.442 . S
C1019 C247 1.444 . S
C1024 C13 1.444 . S
C1029 C260 1.444 . S
C1034 C26 1.444 . S
C1039 C429 1.443 . S
C1044 C39 1.443 . S
C1049 C442 1.444 . S
C1054 C52 1.444 . S
C1059 C455 1.442 . S
C1064 C65 1.442 . S
C1069 C78 1.444 . S
C1074 C312 1.444 . S
C1079 C325 1.441 . S
C1084 C91 1.441 . S
C1089 C338 1.444 . S
C1094 C104 1.444 . S
C1099 C117 1.444 . S
C1104 C195 1.444 . S
C1109 C130 1.442 . S
C1114 C208 1.442 . S
C1119 C143 1.443 . S
C1124 C221 1.443 . S
C1129 C390 1.442 . S
C1134 C156 1.442 . S
C1139 C403 1.442 . S
C1144 C169 1.442 . S
C1149 C182 1.441 . S
C1154 C416 1.441 . S
C1159 C273 1.444 . S
C1164 C351 1.444 . S
C1169 C286 1.444 . S
C1174 C364 1.444 . S
C1179 C299 1.441 . S
C1184 C377 1.441 . S
