# Generated by pormake.
# Topology umj, (4)-cn, num edge types: 1
# Building blocks:
#     Node 0, Type 0, BuildingBlock: KOZSID_clean_sbu_0, # of connection points: 4
#     Node 1, Type 0, BuildingBlock: KOZSID_clean_sbu_0, # of connection points: 4
#     Node 2, Type 0, BuildingBlock: KOZSID_clean_sbu_0, # of connection points: 4
#     Node 3, Type 0, BuildingBlock: KOZSID_clean_sbu_0, # of connection points: 4
#     Node 4, Type 0, BuildingBlock: KOZSID_clean_sbu_0, # of connection points: 4
#     Node 5, Type 0, BuildingBlock: KOZSID_clean_sbu_0, # of connection points: 4
#     Node 6, Type 0, BuildingBlock: KOZSID_clean_sbu_0, # of connection points: 4
#     Node 7, Type 0, BuildingBlock: KOZSID_clean_sbu_0, # of connection points: 4
#     Node 8, Type 0, BuildingBlock: KOZSID_clean_sbu_0, # of connection points: 4
#     Node 9, Type 0, BuildingBlock: KOZSID_clean_sbu_0, # of connection points: 4
#     Node 10, Type 0, BuildingBlock: KOZSID_clean_sbu_0, # of connection points: 4
#     Node 11, Type 0, BuildingBlock: KOZSID_clean_sbu_0, # of connection points: 4
#     Edge 12, Type (0, 0), BuildingBlock: MIFKUJ_clean_linker_0, # of connection points: 2
#     Edge 13, Type (0, 0), BuildingBlock: MIFKUJ_clean_linker_0, # of connection points: 2
#     Edge 14, Type (0, 0), BuildingBlock: MIFKUJ_clean_linker_0, # of connection points: 2
#     Edge 15, Type (0, 0), BuildingBlock: MIFKUJ_clean_linker_0, # of connection points: 2
#     Edge 16, Type (0, 0), BuildingBlock: MIFKUJ_clean_linker_0, # of connection points: 2
#     Edge 17, Type (0, 0), BuildingBlock: MIFKUJ_clean_linker_0, # of connection points: 2
#     Edge 18, Type (0, 0), BuildingBlock: MIFKUJ_clean_linker_0, # of connection points: 2
#     Edge 19, Type (0, 0), BuildingBlock: MIFKUJ_clean_linker_0, # of connection points: 2
#     Edge 20, Type (0, 0), BuildingBlock: MIFKUJ_clean_linker_0, # of connection points: 2
#     Edge 21, Type (0, 0), BuildingBlock: MIFKUJ_clean_linker_0, # of connection points: 2
#     Edge 22, Type (0, 0), BuildingBlock: MIFKUJ_clean_linker_0, # of connection points: 2
#     Edge 23, Type (0, 0), BuildingBlock: MIFKUJ_clean_linker_0, # of connection points: 2
#     Edge 24, Type (0, 0), BuildingBlock: MIFKUJ_clean_linker_0, # of connection points: 2
#     Edge 25, Type (0, 0), BuildingBlock: MIFKUJ_clean_linker_0, # of connection points: 2
#     Edge 26, Type (0, 0), BuildingBlock: MIFKUJ_clean_linker_0, # of connection points: 2
#     Edge 27, Type (0, 0), BuildingBlock: MIFKUJ_clean_linker_0, # of connection points: 2
#     Edge 28, Type (0, 0), BuildingBlock: MIFKUJ_clean_linker_0, # of connection points: 2
#     Edge 29, Type (0, 0), BuildingBlock: MIFKUJ_clean_linker_0, # of connection points: 2
#     Edge 30, Type (0, 0), BuildingBlock: MIFKUJ_clean_linker_0, # of connection points: 2
#     Edge 31, Type (0, 0), BuildingBlock: MIFKUJ_clean_linker_0, # of connection points: 2
#     Edge 32, Type (0, 0), BuildingBlock: MIFKUJ_clean_linker_0, # of connection points: 2
#     Edge 33, Type (0, 0), BuildingBlock: MIFKUJ_clean_linker_0, # of connection points: 2
#     Edge 34, Type (0, 0), BuildingBlock: MIFKUJ_clean_linker_0, # of connection points: 2
#     Edge 35, Type (0, 0), BuildingBlock: MIFKUJ_clean_linker_0, # of connection points: 2
# Relax obj value: 0.054
# Max RMSD: 0.157
# Mean RMSD: 0.157
data_MOF--net-umj--node1-KOZSID_clean_sbu_0--edge1-MIFKUJ_clean_linker_0
_symmetry_space_group_name_H-M    P1
_symmetry_Int_Tables_number       1
_symmetry_cell_setting            triclinic
loop_
_symmetry_equiv_pos_as_xyz
'x, y, z'
_cell_length_a     48.270248
_cell_length_b     48.364985
_cell_length_c     119.52786
_cell_angle_alpha  90.009059
_cell_angle_beta   89.999078
_cell_angle_gamma 120.02987
loop_
_atom_site_label
_atom_site_type_symbol
_atom_site_fract_x
_atom_site_fract_y
_atom_site_fract_z
_atom_type_partial_charge
C0 C 0.02754 0.26001 0.05557 0.0
C1 C 1.00291 0.2474 0.0478 0.0
C2 C 0.97515 0.23748 0.05363 0.0
C3 C 0.9843 0.2447 0.0646 0.0
N4 N 0.01632 0.25897 0.06611 0.0
Co5 Co 0.03974 0.27258 0.08075 0.0
N6 N 0.99874 0.2526 0.08957 0.0
C7 C 0.96868 0.23704 0.08535 0.0
C8 C 0.94532 0.22524 0.09341 0.0
C9 C 0.96139 0.23355 0.10338 0.0
C10 C 0.99376 0.25005 0.10082 0.0
N11 N 0.06337 0.28665 0.09534 0.0
C12 C 0.0524 0.28152 0.10602 0.0
C13 C 0.07735 0.29549 0.11369 0.0
C14 C 0.10495 0.3102 0.10766 0.0
C15 C 0.0954 0.3043 0.09672 0.0
N16 N 0.08077 0.2916 0.07201 0.0
C17 C 0.11077 0.30776 0.07622 0.0
C18 C 0.13434 0.31555 0.06845 0.0
C19 C 0.11856 0.30326 0.05866 0.0
C20 C 0.08603 0.28894 0.061 0.0
N21 N 0.03921 0.31401 0.07992 0.0
C22 C 0.03637 0.37179 0.07936 0.0
C23 C 0.06562 0.37222 0.08041 0.0
C24 C 0.06648 0.34341 0.08072 0.0
C25 C 1.00884 0.34168 0.07863 0.0
C26 C 0.0108 0.31378 0.07879 0.0
N27 N 0.03956 0.2312 0.0816 0.0
C28 C 0.06497 0.19976 0.08562 0.0
C29 C 0.03669 0.17119 0.08312 0.0
C30 C 1.01034 0.17356 0.07965 0.0
C31 C 0.0123 0.20328 0.07891 0.0
C32 C 0.06583 0.22933 0.08487 0.0
H33 H 0.99125 0.20296 0.07612 0.0
H34 H 0.08783 0.25042 0.08702 0.0
H35 H 0.08949 0.34555 0.08161 0.0
H36 H 0.98863 0.29231 0.07806 0.0
C37 C 0.96334 0.23461 0.07376 0.0
C38 C 0.06113 0.27221 0.05256 0.0
C39 C 0.01883 0.26339 0.10935 0.0
C40 C 0.11605 0.31317 0.08764 0.0
H41 H 1.00479 0.24498 0.03887 0.0
H42 H 0.95104 0.22523 0.05032 0.0
H43 H 0.91966 0.21223 0.09219 0.0
H44 H 0.95056 0.22824 0.1116 0.0
H45 H 0.07586 0.29486 0.12273 0.0
H46 H 0.12915 0.32309 0.11088 0.0
H47 H 0.15993 0.32761 0.06983 0.0
H48 H 0.12996 0.30406 0.05079 0.0
H49 H 0.08796 0.39462 0.0809 0.0
H50 H 0.98531 0.33919 0.07812 0.0
H51 H 0.08613 0.1993 0.08834 0.0
H52 H 0.98811 0.15242 0.07734 0.0
C53 C 0.77612 0.02017 0.38915 0.0
C54 C 0.7656 0.99555 0.38142 0.0
C55 C 0.74792 0.96775 0.38722 0.0
C56 C 0.74856 0.97689 0.39813 0.0
N57 N 0.76518 0.00892 0.39962 0.0
Co58 Co 0.77414 0.03232 0.41425 0.0
N59 N 0.75207 0.99141 0.42303 0.0
C60 C 0.73638 0.96143 0.41881 0.0
C61 C 0.72389 0.93812 0.42686 0.0
C62 C 0.73212 0.95413 0.43683 0.0
C63 C 0.74929 0.98641 0.43428 0.0
N64 N 0.78391 0.05592 0.42884 0.0
C65 C 0.77838 0.04494 0.43952 0.0
C66 C 0.79016 0.06982 0.44722 0.0
C67 C 0.80347 0.09743 0.44122 0.0
C68 C 0.79924 0.08793 0.43026 0.0
N69 N 0.79609 0.07328 0.40553 0.0
C70 C 0.80913 0.10321 0.4097 0.0
C71 C 0.82428 0.12677 0.40189 0.0
C72 C 0.82111 0.11106 0.39211 0.0
C73 C 0.8038 0.07858 0.39451 0.0
N74 N 0.7322 0.03203 0.41325 0.0
C75 C 0.67131 0.02867 0.41327 0.0
C76 C 0.69956 0.05713 0.41587 0.0
C77 C 0.72941 0.05823 0.41587 0.0
C78 C 0.6745 1.00245 0.41033 0.0
C79 C 0.7046 1.0047 0.41026 0.0
N80 N 0.81536 0.0319 0.41526 0.0
C81 C 0.87311 0.05828 0.41772 0.0
C82 C 0.87292 0.02932 0.41636 0.0
C83 C 0.84339 1.002 0.41435 0.0
C84 C 0.81542 1.00381 0.4138 0.0
C85 C 0.84422 0.059 0.41724 0.0
H86 H 0.79407 0.98198 0.41212 0.0
H87 H 0.84562 0.08161 0.41848 0.0
H88 H 0.74984 0.08045 0.41813 0.0
H89 H 0.70463 0.98369 0.40781 0.0
C90 C 0.73568 0.95601 0.40726 0.0
C91 C 0.79672 0.05381 0.38615 0.0
C92 C 0.76241 0.01141 0.44282 0.0
C93 C 0.81015 0.10854 0.42116 0.0
H94 H 0.77065 0.99751 0.37255 0.0
H95 H 0.7367 0.94369 0.38393 0.0
H96 H 0.71086 0.91251 0.42564 0.0
H97 H 0.72638 0.94332 0.44506 0.0
H98 H 0.78949 0.06825 0.45626 0.0
H99 H 0.81522 0.12157 0.44445 0.0
H100 H 0.83745 0.15233 0.40325 0.0
H101 H 0.83146 0.12249 0.38422 0.0
H102 H 0.69861 0.07829 0.41817 0.0
H103 H 0.65371 0.98003 0.40796 0.0
H104 H 0.89532 0.08019 0.41934 0.0
H105 H 0.84175 0.97908 0.413 0.0
C106 C 0.76189 0.771 0.7223 0.0
C107 C 0.77426 0.75896 0.71446 0.0
C108 C 0.78432 0.74117 0.72022 0.0
C109 C 0.77744 0.74316 0.73123 0.0
N110 N 0.76326 0.76092 0.73281 0.0
Co111 Co 0.75008 0.77079 0.74752 0.0
N112 N 0.77073 0.75031 0.75623 0.0
C113 C 0.78625 0.73591 0.75194 0.0
C114 C 0.79894 0.72513 0.75994 0.0
C115 C 0.79136 0.73342 0.76994 0.0
C116 C 0.77434 0.74875 0.76746 0.0
N117 N 0.73636 0.78032 0.76217 0.0
C118 C 0.74239 0.77517 0.77281 0.0
C119 C 0.728 0.78539 0.78056 0.0
C120 C 0.71232 0.79741 0.77463 0.0
C121 C 0.71803 0.7939 0.76365 0.0
N122 N 0.73056 0.79245 0.73889 0.0
C123 C 0.71432 0.80606 0.74319 0.0
C124 C 0.70633 0.82179 0.73548 0.0
C125 C 0.71855 0.81848 0.72564 0.0
C126 C 0.73302 0.80041 0.72789 0.0
N127 N 0.70869 0.72864 0.74683 0.0
C128 C 0.65103 0.66785 0.74621 0.0
C129 C 0.65037 0.69651 0.74714 0.0
C130 C 0.67913 0.72628 0.74746 0.0
C131 C 0.68127 0.67063 0.74568 0.0
C132 C 0.70911 0.70057 0.74587 0.0
N133 N 0.79137 0.81212 0.74822 0.0
C134 C 0.82281 0.86885 0.75236 0.0
C135 C 0.85137 0.8693 0.7497 0.0
C136 C 0.84902 0.84079 0.74605 0.0
C137 C 0.81928 0.81299 0.74533 0.0
C138 C 0.79321 0.84009 0.75164 0.0
H139 H 0.81956 0.79239 0.74241 0.0
H140 H 0.77207 0.84077 0.75393 0.0
H141 H 0.6768 0.74701 0.74822 0.0
H142 H 0.73066 0.69998 0.7453 0.0
C143 C 0.78806 0.73264 0.74034 0.0
C144 C 0.74962 0.79233 0.71938 0.0
C145 C 0.76192 0.76124 0.77604 0.0
C146 C 0.70886 0.80559 0.75463 0.0
H147 H 0.77644 0.76323 0.70553 0.0
H148 H 0.79653 0.72938 0.71684 0.0
H149 H 0.8122 0.71279 0.75866 0.0
H150 H 0.79762 0.72875 0.77815 0.0
H151 H 0.72912 0.78469 0.78958 0.0
H152 H 0.69907 0.80821 0.77793 0.0
H153 H 0.69414 0.83512 0.73692 0.0
H154 H 0.71756 0.82903 0.71778 0.0
H155 H 0.62781 0.69619 0.7475 0.0
H156 H 0.68385 0.64968 0.74527 0.0
H157 H 0.82332 0.89036 0.75521 0.0
H158 H 0.87018 0.83988 0.74363 0.0
C159 C 1.0035 0.76633 0.0556 0.0
C160 C 0.02904 0.78229 0.04832 0.0
C161 C 0.05622 0.79144 0.05444 0.0
C162 C 0.04578 0.78073 0.0651 0.0
N163 N 0.01355 0.76464 0.06609 0.0
Co164 Co 0.98845 0.7484 0.08035 0.0
N165 N 0.02827 0.76559 0.08967 0.0
C166 C 0.0586 0.77874 0.08581 0.0
C167 C 0.081 0.78785 0.09415 0.0
C168 C 0.06395 0.77997 0.10392 0.0
C169 C 0.032 0.76659 0.10096 0.0
N170 N 0.96309 0.73378 0.09458 0.0
C171 C 0.97284 0.73889 0.1054 0.0
C172 C 0.947 0.72624 0.11272 0.0
C173 C 0.92004 0.71244 0.10631 0.0
C174 C 0.93085 0.71768 0.0955 0.0
N175 N 0.94858 0.73004 0.07105 0.0
C176 C 0.91824 0.71137 0.07467 0.0
C177 C 0.89571 0.7023 0.06638 0.0
C178 C 0.91266 0.7164 0.05691 0.0
C179 C 0.94466 0.73342 0.06 0.0
N180 N 0.98862 0.70683 0.07912 0.0
C181 C 0.9933 0.65024 0.07939 0.0
C182 C 0.9659 0.65018 0.08335 0.0
C183 C 0.9641 0.67845 0.08317 0.0
C184 C 0.01751 0.67881 0.07488 0.0
C185 C 0.0146 0.70621 0.07472 0.0
N186 N 0.9891 0.78991 0.08159 0.0
C187 C 0.96263 0.82144 0.08212 0.0
C188 C 0.99215 0.8502 0.08197 0.0
C189 C 0.01982 0.84775 0.08198 0.0
C190 C 0.0178 0.81795 0.08169 0.0
C191 C 0.96166 0.79176 0.082 0.0
H192 H 0.04003 0.81832 0.08146 0.0
H193 H 0.93854 0.77052 0.0821 0.0
H194 H 0.94279 0.67679 0.08649 0.0
H195 H 0.03409 0.72664 0.07105 0.0
C196 C 0.06541 0.78587 0.07442 0.0
C197 C 0.97015 0.75388 0.05229 0.0
C198 C 1.00609 0.75528 0.10917 0.0
C199 C 0.91139 0.70717 0.08605 0.0
H200 H 0.02807 0.78722 0.03954 0.0
H201 H 0.08069 0.80494 0.05153 0.0
H202 H 0.10676 0.79975 0.09326 0.0
H203 H 0.0739 0.78398 0.11227 0.0
H204 H 0.94752 0.72688 0.12176 0.0
H205 H 0.89549 0.70011 0.1092 0.0
H206 H 0.86994 0.68857 0.06723 0.0
H207 H 0.90255 0.71528 0.04873 0.0
H208 H 0.94623 0.62865 0.08686 0.0
H209 H 0.03886 0.68011 0.07139 0.0
H210 H 0.94033 0.82168 0.08213 0.0
H211 H 0.04335 0.86883 0.08225 0.0
C212 C 0.24344 0.98983 0.38933 0.0
C213 C 0.25873 0.01444 0.38166 0.0
C214 C 0.28225 0.04004 0.38745 0.0
C215 C 0.28008 0.02967 0.3983 0.0
N216 N 0.25662 0.99923 0.39966 0.0
Co217 Co 0.24487 0.97504 0.41392 0.0
N218 N 0.26722 0.01455 0.42303 0.0
C219 C 0.28977 0.04333 0.41922 0.0
C220 C 0.30157 0.06618 0.42747 0.0
C221 C 0.28567 0.05068 0.43706 0.0
C222 C 0.26502 0.01908 0.43413 0.0
N223 N 0.23249 0.95044 0.42811 0.0
C224 C 0.23255 0.96026 0.43872 0.0
C225 C 0.22267 0.93504 0.44621 0.0
C226 C 0.21651 0.90871 0.44003 0.0
C227 C 0.22294 0.91921 0.42918 0.0
N228 N 0.22303 0.93544 0.40486 0.0
C229 C 0.21474 0.90584 0.40837 0.0
C230 C 0.19936 0.88298 0.4003 0.0
C231 C 0.198 0.89922 0.39112 0.0
C232 C 0.21287 0.93127 0.39411 0.0
N233 N 0.28522 0.97349 0.41349 0.0
C234 C 0.3468 0.97964 0.41276 0.0
C235 C 0.33298 0.981 0.42292 0.0
C236 C 0.30257 0.97819 0.4231 0.0
C237 C 0.32851 0.97407 0.403 0.0
C238 C 0.29773 0.97057 0.40356 0.0
N239 N 0.20535 0.9777 0.41437 0.0
C240 C 0.14794 0.95388 0.41629 0.0
C241 C 0.1498 0.98364 0.41463 0.0
C242 C 0.1804 0.01019 0.41297 0.0
C243 C 0.20746 0.0067 0.41277 0.0
C244 C 0.17589 0.95146 0.41618 0.0
H245 H 0.23025 0.02778 0.4113 0.0
H246 H 0.17367 0.92835 0.41749 0.0
H247 H 0.2936 0.98081 0.43104 0.0
H248 H 0.28439 0.96628 0.39589 0.0
C249 C 0.29539 0.04883 0.40767 0.0
C250 C 0.21821 0.95722 0.38645 0.0
C251 C 0.24525 0.99362 0.44215 0.0
C252 C 0.21604 0.8998 0.41973 0.0
H253 H 0.2535 0.01385 0.37283 0.0
H254 H 0.29815 0.06373 0.38421 0.0
H255 H 0.31887 0.09132 0.42658 0.0
H256 H 0.28904 0.06135 0.44527 0.0
H257 H 0.22077 0.9357 0.45521 0.0
H258 H 0.20768 0.88466 0.44308 0.0
H259 H 0.1889 0.85739 0.40114 0.0
H260 H 0.18712 0.88855 0.3832 0.0
H261 H 0.34608 0.98539 0.43069 0.0
H262 H 0.33789 0.97238 0.39496 0.0
H263 H 0.12507 0.93241 0.41751 0.0
H264 H 0.1838 0.03392 0.41195 0.0
C265 C 0.25581 0.23924 0.72203 0.0
C266 C 0.23954 0.24872 0.71486 0.0
C267 C 0.2311 0.2672 0.72103 0.0
C268 C 0.24246 0.26778 0.73161 0.0
N269 N 0.25834 0.25146 0.73249 0.0
Co270 Co 0.27495 0.24256 0.74664 0.0
N271 N 0.25806 0.2651 0.75611 0.0
C272 C 0.24514 0.28255 0.75236 0.0
C273 C 0.23588 0.29538 0.76082 0.0
C274 C 0.24333 0.28551 0.77051 0.0
C275 C 0.25672 0.2671 0.76742 0.0
N276 N 0.28983 0.23166 0.76075 0.0
C277 C 0.28436 0.23559 0.77161 0.0
C278 C 0.29809 0.22333 0.77884 0.0
C279 C 0.31241 0.21093 0.77233 0.0
C280 C 0.30661 0.21623 0.76155 0.0
N281 N 0.293 0.22112 0.73721 0.0
C282 C 0.3122 0.20994 0.74067 0.0
C283 C 0.32107 0.19663 0.73229 0.0
C284 C 0.30622 0.19899 0.72293 0.0
C285 C 0.28891 0.21348 0.7262 0.0
N286 N 0.31663 0.28434 0.74535 0.0
C287 C 0.37323 0.34569 0.74565 0.0
C288 C 0.37342 0.31843 0.74954 0.0
C289 C 0.34514 0.28833 0.74936 0.0
C290 C 0.34459 0.34128 0.74119 0.0
C291 C 0.31721 0.31091 0.74099 0.0
N292 N 0.23339 0.20179 0.74794 0.0
C293 C 0.20171 0.14387 0.74856 0.0
C294 C 0.17298 0.1447 0.7484 0.0
C295 C 0.1755 0.17479 0.74837 0.0
C296 C 0.20538 0.20251 0.74806 0.0
C297 C 0.23149 0.17254 0.74839 0.0
H298 H 0.20512 0.22438 0.74781 0.0
H299 H 0.25279 0.17072 0.74848 0.0
H300 H 0.34696 0.26882 0.75265 0.0
H301 H 0.29678 0.30994 0.73731 0.0
C302 C 0.23776 0.28237 0.741 0.0
C303 C 0.2675 0.21774 0.7187 0.0
C304 C 0.26679 0.25108 0.77548 0.0
C305 C 0.31703 0.20752 0.75202 0.0
H306 H 0.23381 0.24239 0.70614 0.0
H307 H 0.21748 0.27812 0.71822 0.0
H308 H 0.22387 0.30911 0.76004 0.0
H309 H 0.23875 0.29063 0.77891 0.0
H310 H 0.29788 0.22342 0.78789 0.0
H311 H 0.32544 0.19936 0.77512 0.0
H312 H 0.33517 0.18498 0.73301 0.0
H313 H 0.30706 0.18999 0.71472 0.0
H314 H 0.39507 0.3204 0.753 0.0
H315 H 0.34324 0.36132 0.73777 0.0
H316 H 0.20133 0.12131 0.74861 0.0
H317 H 0.15441 0.17723 0.74863 0.0
C318 C 0.75568 0.98506 0.6158 0.0
C319 C 0.76436 0.00859 0.62387 0.0
C320 C 0.7672 0.03501 0.61848 0.0
C321 C 0.76005 0.02617 0.60745 0.0
N322 N 0.753 0.9959 0.60561 0.0
Co323 Co 0.74171 0.97371 0.59096 0.0
N324 N 0.76014 0.01451 0.58253 0.0
C325 C 0.76652 0.04286 0.5868 0.0
C326 C 0.77846 0.0668 0.57894 0.0
C327 C 0.77926 0.0525 0.56911 0.0
C328 C 0.76767 0.02048 0.57151 0.0
N329 N 0.73018 0.95105 0.57639 0.0
C330 C 0.74038 0.96226 0.56593 0.0
C331 C 0.72518 0.93807 0.55805 0.0
C332 C 0.70463 0.91099 0.5638 0.0
C333 C 0.70834 0.92003 0.57482 0.0
N334 N 0.72307 0.93287 0.59936 0.0
C335 C 0.70202 0.90378 0.59535 0.0
C336 C 0.69402 0.87982 0.60301 0.0
C337 C 0.711 0.8948 0.61245 0.0
C338 C 0.72831 0.92724 0.61003 0.0
N339 N 0.69982 0.97235 0.59131 0.0
C340 C 0.64417 0.9781 0.5923 0.0
C341 C 0.66248 0.98537 0.58251 0.0
C342 C 0.68964 0.98181 0.58212 0.0
C343 C 0.65377 0.96677 0.60149 0.0
C344 C 0.68174 0.96441 0.60087 0.0
N345 N 0.78391 0.97613 0.59062 0.0
C346 C 0.81738 0.95231 0.58824 0.0
C347 C 0.84543 0.98168 0.59043 0.0
C348 C 0.84144 0.00804 0.59261 0.0
C349 C 0.8109 1.00472 0.59278 0.0
C350 C 0.78706 0.9501 0.58832 0.0
H351 H 0.80928 0.02562 0.59466 0.0
H352 H 0.76613 0.92729 0.58657 0.0
H353 H 0.70283 0.98757 0.57439 0.0
H354 H 0.68912 0.95685 0.60824 0.0
C355 C 0.76521 0.04672 0.5984 0.0
C356 C 0.7481 0.95215 0.61816 0.0
C357 C 0.76158 0.99598 0.56303 0.0
C358 C 0.69528 0.89933 0.58392 0.0
H359 H 0.76818 0.00678 0.6327 0.0
H360 H 0.77487 0.05826 0.6221 0.0
H361 H 0.78643 0.09183 0.58024 0.0
H362 H 0.78707 0.06418 0.56107 0.0
H363 H 0.7281 0.93988 0.54905 0.0
H364 H 0.68939 0.88739 0.56037 0.0
H365 H 0.67894 0.85437 0.60173 0.0
H366 H 0.71068 0.88304 0.62018 0.0
H367 H 0.65583 0.99378 0.57515 0.0
H368 H 0.64036 0.96078 0.60924 0.0
H369 H 0.81859 0.93094 0.58662 0.0
H370 H 0.8618 0.03154 0.59407 0.0
C371 C 0.78096 0.75713 0.94887 0.0
C372 C 0.76776 0.7676 0.95698 0.0
C373 C 0.7441 0.77085 0.95182 0.0
C374 C 0.74427 0.76253 0.94084 0.0
N375 N 0.76665 0.75435 0.93881 0.0
Co376 Co 0.77676 0.74317 0.92398 0.0
N377 N 0.75534 0.76304 0.91583 0.0
C378 C 0.73423 0.77038 0.92028 0.0
C379 C 0.72259 0.78307 0.91257 0.0
C380 C 0.73706 0.78338 0.90263 0.0
C381 C 0.75679 0.77082 0.90484 0.0
N382 N 0.78678 0.7313 0.90927 0.0
C383 C 0.78597 0.74199 0.89888 0.0
C384 C 0.79416 0.72647 0.89087 0.0
C385 C 0.79976 0.70505 0.89645 0.0
C386 C 0.79479 0.70866 0.90752 0.0
N387 N 0.79828 0.72342 0.93207 0.0
C388 C 0.80449 0.70118 0.92798 0.0
C389 C 0.819 0.69139 0.93564 0.0
C390 C 0.82207 0.70857 0.94514 0.0
C391 C 0.80938 0.72807 0.9427 0.0
N392 N 0.73545 0.70194 0.92431 0.0
C393 C 0.67372 0.64649 0.9252 0.0
C394 C 0.68465 0.66544 0.91554 0.0
C395 C 0.71548 0.69249 0.9152 0.0
C396 C 0.69491 0.65552 0.93432 0.0
C397 C 0.72535 0.68338 0.93376 0.0
N398 N 0.81737 0.78473 0.92363 0.0
C399 C 0.87387 0.81742 0.91931 0.0
C400 C 0.87422 0.84513 0.92312 0.0
C401 C 0.84543 0.84174 0.92714 0.0
C402 C 0.81746 0.81174 0.92716 0.0
C403 C 0.84539 0.78746 0.91979 0.0
H404 H 0.79578 0.8106 0.93003 0.0
H405 H 0.84601 0.76653 0.91701 0.0
H406 H 0.72282 0.70608 0.90756 0.0
H407 H 0.74049 0.69021 0.94108 0.0
C408 C 0.72932 0.76882 0.9319 0.0
C409 C 0.80626 0.74903 0.95086 0.0
C410 C 0.77425 0.76397 0.89619 0.0
C411 C 0.80166 0.69457 0.91652 0.0
H412 H 0.77474 0.77294 0.96566 0.0
H413 H 0.7299 0.78011 0.9555 0.0
H414 H 0.70613 0.79174 0.91403 0.0
H415 H 0.73319 0.79145 0.89464 0.0
H416 H 0.79527 0.72973 0.88189 0.0
H417 H 0.80727 0.68928 0.89288 0.0
H418 H 0.8275 0.67474 0.93434 0.0
H419 H 0.83234 0.70683 0.95298 0.0
H420 H 0.66947 0.65931 0.90822 0.0
H421 H 0.68763 0.6417 0.94198 0.0
H422 H 0.89556 0.81881 0.91616 0.0
H423 H 0.84433 0.86238 0.93005 0.0
C424 C 0.02721 0.77189 0.2824 0.0
C425 C 1.00327 0.75708 0.29035 0.0
C426 C 0.97705 0.73339 0.28487 0.0
C427 C 0.9864 0.73497 0.27392 0.0
N428 N 0.01679 0.75821 0.27219 0.0
Co429 Co 0.03963 0.76898 0.25764 0.0
N430 N 0.99917 0.74606 0.249 0.0
C431 C 0.97069 0.72392 0.25318 0.0
C432 C 0.94698 0.71159 0.24522 0.0
C433 C 0.96158 0.72666 0.23542 0.0
C434 C 0.99354 0.74735 0.23794 0.0
N435 N 0.0629 0.78043 0.24316 0.0
C436 C 0.05201 0.7794 0.23263 0.0
C437 C 0.07655 0.78861 0.22487 0.0
C438 C 0.10354 0.79543 0.23076 0.0
C439 C 0.09409 0.78998 0.24174 0.0
N440 N 0.08019 0.79136 0.26624 0.0
C441 C 0.10954 0.79976 0.26234 0.0
C442 C 0.1333 0.81626 0.27002 0.0
C443 C 0.11798 0.81826 0.27936 0.0
C444 C 0.08547 0.80239 0.27689 0.0
N445 N 0.04123 0.72869 0.25815 0.0
C446 C 0.03523 0.66727 0.25906 0.0
C447 C 0.03317 0.68057 0.24888 0.0
C448 C 0.03586 0.71088 0.24862 0.0
C449 C 0.0414 0.68597 0.26874 0.0
C450 C 0.04486 0.71667 0.26808 0.0
N451 N 0.03692 0.80847 0.25714 0.0
C452 C 0.06077 0.86578 0.25513 0.0
C453 C 0.03108 0.86407 0.25701 0.0
C454 C 1.00454 0.83355 0.25881 0.0
C455 C 1.00799 0.80649 0.25896 0.0
C456 C 0.06312 0.83782 0.25516 0.0
H457 H 0.98695 0.78381 0.26059 0.0
H458 H 0.08617 0.83998 0.25366 0.0
H459 H 0.03261 0.71938 0.24068 0.0
H460 H 0.0497 0.73035 0.27569 0.0
C461 C 0.96631 0.71914 0.26479 0.0
C462 C 0.06022 0.79702 0.28495 0.0
C463 C 0.01825 0.76627 0.22956 0.0
C464 C 0.11445 0.79768 0.25094 0.0
H465 H 1.00471 0.76271 0.29917 0.0
H466 H 0.95363 0.71773 0.2884 0.0
H467 H 0.92188 0.69448 0.24645 0.0
H468 H 0.95005 0.72272 0.22735 0.0
H469 H 0.07498 0.78954 0.21587 0.0
H470 H 0.12733 0.80399 0.22743 0.0
H471 H 0.15887 0.82717 0.26879 0.0
H472 H 0.12966 0.83042 0.28701 0.0
H473 H 0.02832 0.66713 0.24118 0.0
H474 H 0.04361 0.67695 0.27678 0.0
H475 H 0.08227 0.88853 0.2538 0.0
H476 H 0.98083 0.83017 0.26 0.0
C477 C 0.257 0.02177 0.61528 0.0
C478 C 0.247 0.99776 0.62323 0.0
C479 C 0.24415 0.97136 0.61782 0.0
C480 C 0.25236 0.98056 0.60688 0.0
N481 N 0.26009 0.01105 0.60511 0.0
Co482 Co 0.27185 0.03351 0.5905 0.0
N483 N 0.2531 0.99289 0.58196 0.0
C484 C 0.2463 0.96435 0.58616 0.0
C485 C 0.23447 0.94062 0.57822 0.0
C486 C 0.23418 0.95527 0.56841 0.0
C487 C 0.24585 0.98724 0.57091 0.0
N488 N 0.28389 0.05649 0.576 0.0
C489 C 0.27359 0.04564 0.56551 0.0
C490 C 0.28861 0.07013 0.55773 0.0
C491 C 0.30947 0.09694 0.56356 0.0
C492 C 0.30595 0.0875 0.57453 0.0
N493 N 0.29083 0.07413 0.59899 0.0
C494 C 0.31283 0.10306 0.59514 0.0
C495 C 0.32187 0.12674 0.60301 0.0
C496 C 0.30445 0.11172 0.61238 0.0
C497 C 0.28561 0.07963 0.60966 0.0
N498 N 0.31345 0.03427 0.5909 0.0
C499 C 0.36883 0.02793 0.5919 0.0
C500 C 0.35095 0.02163 0.58202 0.0
C501 C 0.32388 0.02532 0.58165 0.0
C502 C 0.35885 0.03863 0.60118 0.0
C503 C 0.33111 0.04136 0.60055 0.0
N504 N 0.22994 0.0317 0.59011 0.0
C505 C 0.1971 0.05611 0.5875 0.0
C506 C 0.16891 0.02683 0.58948 0.0
C507 C 0.17233 1.00033 0.59192 0.0
C508 C 0.2027 1.00327 0.59225 0.0
C509 C 0.22726 0.05799 0.58777 0.0
H510 H 0.20399 0.98227 0.59426 0.0
H511 H 0.24841 0.08066 0.58605 0.0
H512 H 0.31097 0.02016 0.57387 0.0
H513 H 0.32354 0.04853 0.60796 0.0
C514 C 0.24717 0.96016 0.59777 0.0
C515 C 0.26463 0.05479 0.61759 0.0
C516 C 0.25251 0.01199 0.56248 0.0
C517 C 0.31956 0.10783 0.58371 0.0
H518 H 0.24201 0.99903 0.63198 0.0
H519 H 0.23551 0.94782 0.62134 0.0
H520 H 0.22628 0.91552 0.57945 0.0
H521 H 0.2267 0.94388 0.56031 0.0
H522 H 0.28534 0.06869 0.54875 0.0
H523 H 0.32477 0.12064 0.56022 0.0
H524 H 0.33807 0.15209 0.60192 0.0
H525 H 0.30553 0.12308 0.6203 0.0
H526 H 0.35786 0.01386 0.57456 0.0
H527 H 0.37178 0.04385 0.60902 0.0
H528 H 0.19588 0.07733 0.58553 0.0
H529 H 0.15159 0.97731 0.59373 0.0
C530 C 0.24207 0.26105 0.94829 0.0
C531 C 0.25642 0.25319 0.9568 0.0
C532 C 0.2802 0.2496 0.95191 0.0
C533 C 0.27913 0.25552 0.94071 0.0
N534 N 0.2561 0.26251 0.93829 0.0
Co535 Co 0.24619 0.27233 0.9232 0.0
N536 N 0.26882 0.25279 0.91559 0.0
C537 C 0.29017 0.24639 0.92043 0.0
C538 C 0.30289 0.23395 0.91304 0.0
C539 C 0.28892 0.23281 0.90291 0.0
C540 C 0.26837 0.24465 0.90468 0.0
N541 N 0.23633 0.28273 0.90818 0.0
C542 C 0.23805 0.27165 0.89795 0.0
C543 C 0.22891 0.28557 0.88963 0.0
C544 C 0.22192 0.30652 0.89483 0.0
C545 C 0.22695 0.30415 0.90599 0.0
N546 N 0.22343 0.29177 0.93077 0.0
C547 C 0.21548 0.31223 0.92615 0.0
C548 C 0.1989 0.32085 0.93331 0.0
C549 C 0.19632 0.30492 0.94307 0.0
C550 C 0.21185 0.28762 0.94134 0.0
N551 N 0.28694 0.31409 0.92346 0.0
C552 C 0.34856 0.36975 0.92446 0.0
C553 C 0.33792 0.35061 0.91483 0.0
C554 C 0.3072 0.32344 0.91444 0.0
C555 C 0.32697 0.36086 0.93346 0.0
C556 C 0.29656 0.33297 0.93284 0.0
N557 N 0.20616 0.23023 0.92294 0.0
C558 C 0.14995 0.19625 0.91845 0.0
C559 C 0.15014 0.16909 0.92257 0.0
C560 C 0.1791 0.17344 0.92683 0.0
C561 C 0.20664 0.20379 0.92681 0.0
C562 C 0.178 0.22657 0.91884 0.0
H563 H 0.22846 0.20568 0.9299 0.0
H564 H 0.17691 0.24701 0.91581 0.0
H565 H 0.30023 0.3096 0.90684 0.0
H566 H 0.28113 0.32631 0.94007 0.0
C567 C 0.29475 0.24902 0.93207 0.0
C568 C 0.21668 0.26898 0.95003 0.0
C569 C 0.25134 0.25077 0.89567 0.0
C570 C 0.21852 0.31784 0.91466 0.0
H571 H 0.25031 0.25037 0.9656 0.0
H572 H 0.29546 0.24217 0.95597 0.0
H573 H 0.31987 0.22612 0.91483 0.0
H574 H 0.29374 0.22481 0.89508 0.0
H575 H 0.22789 0.28145 0.8807 0.0
H576 H 0.21329 0.32103 0.89097 0.0
H577 H 0.18848 0.33563 0.93149 0.0
H578 H 0.1842 0.30588 0.95054 0.0
H579 H 0.3533 0.35662 0.90756 0.0
H580 H 0.3339 0.37477 0.9411 0.0
H581 H 0.12814 0.1942 0.91511 0.0
H582 H 0.1807 0.15328 0.92998 0.0
C583 C 0.9967 0.23914 0.28336 0.0
C584 C 0.02151 0.24991 0.29104 0.0
C585 C 0.04922 0.2677 0.28517 0.0
C586 C 0.03985 0.26686 0.27429 0.0
N587 N 1.00774 0.24998 0.27286 0.0
Co588 Co 0.98399 0.24074 0.25829 0.0
N589 N 0.0248 0.26285 0.24941 0.0
C590 C 0.05493 0.27842 0.25356 0.0
C591 C 0.07811 0.2909 0.24544 0.0
C592 C 0.06186 0.28276 0.23552 0.0
C593 C 0.02956 0.26574 0.23815 0.0
N594 N 0.96003 0.23088 0.24377 0.0
C595 C 0.97082 0.23669 0.23307 0.0
C596 C 0.94578 0.22591 0.22544 0.0
C597 C 0.91823 0.21248 0.23151 0.0
C598 C 0.92793 0.21591 0.24244 0.0
N599 N 0.94312 0.21862 0.26711 0.0
C600 C 0.91303 0.20538 0.26301 0.0
C601 C 0.88961 0.1904 0.2709 0.0
C602 C 0.9056 0.19393 0.28065 0.0
C603 C 0.93809 0.21114 0.27815 0.0
N604 N 0.98407 0.28256 0.25933 0.0
C605 C 0.98711 0.34324 0.2593 0.0
C606 C 0.95839 0.3148 0.25711 0.0
C607 C 0.95745 0.28507 0.2571 0.0
C608 C 0.01379 0.34034 0.26184 0.0
C609 C 0.0117 0.31036 0.26192 0.0
N610 N 0.98463 0.19967 0.25724 0.0
C611 C 0.95855 0.1421 0.25453 0.0
C612 C 0.98752 0.14228 0.25611 0.0
C613 C 0.01469 0.17177 0.25834 0.0
C614 C 0.01274 0.19963 0.25889 0.0
C615 C 0.95768 0.17088 0.25505 0.0
H616 H 0.03447 0.22094 0.26072 0.0
H617 H 0.93506 0.16948 0.25365 0.0
H618 H 0.93498 0.2645 0.25516 0.0
H619 H 0.03308 0.31059 0.26407 0.0
C620 C 0.06058 0.27946 0.2651 0.0
C621 C 0.96309 0.21839 0.28643 0.0
C622 C 1.00432 0.25227 0.22967 0.0
C623 C 0.90745 0.20467 0.25158 0.0
H624 H 0.01974 0.24494 0.29992 0.0
H625 H 0.0734 0.27906 0.28841 0.0
H626 H 0.1038 0.3039 0.2466 0.0
H627 H 0.07254 0.2884 0.22727 0.0
H628 H 0.94723 0.2275 0.21641 0.0
H629 H 0.89399 0.20133 0.22834 0.0
H630 H 0.86396 0.17733 0.26964 0.0
H631 H 0.8944 0.18405 0.28861 0.0
H632 H 0.93685 0.3155 0.25514 0.0
H633 H 0.03646 0.36129 0.26388 0.0
H634 H 0.93674 0.11998 0.25273 0.0
H635 H 0.03761 0.17347 0.25987 0.0
H636 H 0.99933 0.20582 0.2156 0.0
H637 H 1.00182 0.20749 0.19509 0.0
H638 H 0.02684 0.30654 0.1958 0.0
H639 H 0.02383 0.30456 0.21635 0.0
H640 H 0.97964 0.27389 0.18119 0.0
H641 H 0.08176 0.28338 0.18855 0.0
H642 H 0.11882 0.26807 0.19693 0.0
H643 H 0.06995 0.17752 0.18012 0.0
H644 H 0.03229 0.19211 0.17176 0.0
H645 H 0.02106 0.30828 0.12361 0.0
H646 H 0.01814 0.30582 0.14408 0.0
H647 H 0.99714 0.20799 0.14297 0.0
H648 H 1.00103 0.21095 0.12245 0.0
H649 H 0.04193 0.23952 0.15784 0.0
H650 H 0.9399 0.22955 0.15043 0.0
H651 H 0.9023 0.24422 0.14209 0.0
H652 H 0.95003 0.33462 0.15903 0.0
H653 H 0.98822 0.32068 0.16735 0.0
C654 C 1.00619 0.22812 0.21134 0.0
C655 C 0.01193 0.25522 0.21749 0.0
C656 C 1.00751 0.22908 0.19964 0.0
C657 C 0.01472 0.25722 0.19384 0.0
C658 C 0.02127 0.28457 0.20005 0.0
C659 C 0.01991 0.28358 0.21177 0.0
C660 C 0.01381 0.25762 0.18135 0.0
C661 C 0.99365 0.26683 0.17608 0.0
C662 C 0.03126 0.24747 0.17465 0.0
C663 C 0.05403 0.23874 0.1796 0.0
C664 C 0.07877 0.26011 0.1867 0.0
C665 C 0.09991 0.25158 0.19144 0.0
C666 C 0.0967 0.22181 0.18908 0.0
C667 C 0.07239 0.20055 0.18195 0.0
C668 C 0.05116 0.20896 0.1772 0.0
C669 C 0.01505 0.28606 0.12777 0.0
C670 C 0.01089 0.25968 0.12151 0.0
C671 C 0.01341 0.28463 0.13946 0.0
C672 C 1.00717 0.25661 0.14515 0.0
C673 C 1.00199 0.22988 0.13883 0.0
C674 C 1.00385 0.23141 0.12711 0.0
C675 C 1.00777 0.25583 0.15765 0.0
C676 C 0.02787 0.24655 0.16293 0.0
C677 C 0.99017 0.26581 0.16437 0.0
C678 C 0.9671 0.27417 0.15944 0.0
C679 C 0.94252 0.25265 0.15232 0.0
C680 C 0.92108 0.26082 0.1476 0.0
C681 C 0.92382 0.29036 0.15001 0.0
C682 C 0.94795 0.31176 0.15716 0.0
C683 C 0.96948 0.30372 0.16189 0.0
H684 H 0.9072 0.29664 0.14635 0.0
H685 H 0.11309 0.21525 0.19276 0.0
H686 H 0.79912 0.99549 0.4556 0.0
H687 H 0.79985 0.99259 0.47612 0.0
H688 H 0.71984 0.00885 0.47789 0.0
H689 H 0.71937 0.01192 0.45738 0.0
H690 H 0.76714 0.04842 0.49173 0.0
H691 H 0.71147 0.93581 0.48403 0.0
H692 H 0.70352 0.88636 0.47514 0.0
H693 H 0.78991 0.89956 0.49035 0.0
H694 H 0.79863 0.94937 0.49921 0.0
H695 H 0.72934 0.01559 0.54955 0.0
H696 H 0.73074 0.01846 0.52908 0.0
H697 H 0.80639 0.99549 0.52868 0.0
H698 H 0.80424 0.99183 0.54921 0.0
H699 H 0.76301 0.96 0.51404 0.0
H700 H 0.81888 0.0719 0.52193 0.0
H701 H 0.82782 0.1218 0.53075 0.0
H702 H 0.74286 0.11092 0.51509 0.0
H703 H 0.73314 0.06068 0.5063 0.0
C704 C 0.78121 0.99755 0.4604 0.0
C705 C 0.75892 1.00349 0.45498 0.0
C706 C 0.78168 0.99604 0.47211 0.0
C707 C 0.75984 1.00044 0.47859 0.0
C708 C 0.73694 1.00541 0.4731 0.0
C709 C 0.73643 0.00683 0.46141 0.0
C710 C 0.76187 1.00153 0.49107 0.0
C711 C 0.7658 0.02889 0.49662 0.0
C712 C 0.76116 0.97654 0.49746 0.0
C713 C 0.75586 0.94649 0.4922 0.0
C714 C 0.72891 0.92831 0.48541 0.0
C715 C 0.72424 0.90019 0.48039 0.0
C716 C 0.74624 0.88987 0.48215 0.0
C717 C 0.77291 0.9076 0.48897 0.0
C718 C 0.77771 0.93577 0.49401 0.0
C719 C 0.7469 0.01216 0.54508 0.0
C720 C 0.76725 1.00429 0.55092 0.0
C721 C 0.74765 0.01365 0.53337 0.0
C722 C 0.76893 0.00754 0.52726 0.0
C723 C 0.78981 1.00041 0.53316 0.0
C724 C 0.7889 0.9987 0.54487 0.0
C725 C 0.76816 0.00688 0.51474 0.0
C726 C 0.76447 0.97961 0.50917 0.0
C727 C 0.76927 0.03205 0.50832 0.0
C728 C 0.77514 0.06237 0.51353 0.0
C729 C 0.80198 0.08003 0.52043 0.0
C730 C 0.8072 0.10839 0.52541 0.0
C731 C 0.78588 0.11949 0.5235 0.0
C732 C 0.75934 0.10228 0.51657 0.0
C733 C 0.75398 0.07387 0.51158 0.0
H734 H 0.78997 0.14146 0.52737 0.0
H735 H 0.74258 0.86809 0.47826 0.0
H736 H 0.72286 0.71459 0.79056 0.0
H737 H 0.726 0.71622 0.81108 0.0
H738 H 0.81521 0.80545 0.80937 0.0
H739 H 0.81201 0.80364 0.78882 0.0
H740 H 0.81571 0.76606 0.8261 0.0
H741 H 0.74664 0.80617 0.81422 0.0
H742 H 0.70088 0.80375 0.80413 0.0
H743 H 0.63623 0.71853 0.82204 0.0
H744 H 0.68163 0.72041 0.83222 0.0
H745 H 0.8187 0.81012 0.88259 0.0
H746 H 0.81752 0.81193 0.86207 0.0
H747 H 0.72254 0.72939 0.86213 0.0
H748 H 0.72341 0.72857 0.88264 0.0
H749 H 0.72581 0.76661 0.84604 0.0
H750 H 0.79279 0.72489 0.85781 0.0
H751 H 0.83739 0.72533 0.86803 0.0
H752 H 0.90465 0.80979 0.85032 0.0
H753 H 0.86039 0.81008 0.84009 0.0
C754 C 0.74354 0.73402 0.7946 0.0
C755 C 0.7674 0.7588 0.78818 0.0
C756 C 0.74517 0.73516 0.80631 0.0
C757 C 0.7706 0.76123 0.8118 0.0
C758 C 0.79535 0.78514 0.80535 0.0
C759 C 0.79364 0.78404 0.79363 0.0
C760 C 0.77054 0.76434 0.82423 0.0
C761 C 0.79626 0.7666 0.83045 0.0
C762 C 0.74485 0.76434 0.82997 0.0
C763 C 0.71754 0.7633 0.82391 0.0
C764 C 0.72268 0.78684 0.81597 0.0
C765 C 0.6968 0.7856 0.81025 0.0
C766 C 0.66569 0.76094 0.81241 0.0
C767 C 0.66035 0.73759 0.82035 0.0
C768 C 0.68613 0.73878 0.82612 0.0
C769 C 0.79725 0.7931 0.87818 0.0
C770 C 0.77096 0.76953 0.88413 0.0
C771 C 0.79672 0.79377 0.86646 0.0
C772 C 0.77022 0.77031 0.86046 0.0
C773 C 0.74331 0.74774 0.86649 0.0
C774 C 0.74369 0.74735 0.87821 0.0
C775 C 0.77097 0.76824 0.84798 0.0
C776 C 0.74535 0.76616 0.84172 0.0
C777 C 0.79659 0.76802 0.84222 0.0
C778 C 0.82326 0.76768 0.84826 0.0
C779 C 0.81708 0.74365 0.85614 0.0
C780 C 0.8423 0.74376 0.86193 0.0
C781 C 0.87383 0.76763 0.85985 0.0
C782 C 0.88021 0.79136 0.85194 0.0
C783 C 0.85508 0.79138 0.84613 0.0
H784 H 0.89332 0.76769 0.86435 0.0
H785 H 0.64571 0.75997 0.80795 0.0
H786 H 0.9989 0.709 0.12379 0.0
H787 H 1.0009 0.71189 0.1443 0.0
H788 H 0.02879 0.81161 0.14266 0.0
H789 H 0.02686 0.80861 0.12209 0.0
H790 H 0.06123 0.79999 0.15924 0.0
H791 H 0.95216 0.75686 0.14764 0.0
H792 H 0.9028 0.71984 0.13751 0.0
H793 H 0.89786 0.64054 0.15542 0.0
H794 H 0.94742 0.67707 0.16558 0.0
H795 H 0.02621 0.81453 0.21576 0.0
H796 H 0.02356 0.81368 0.19523 0.0
H797 H 0.99269 0.71314 0.19543 0.0
H798 H 0.99521 0.71406 0.21594 0.0
H799 H 0.96126 0.72627 0.17949 0.0
H800 H 0.07092 0.76875 0.19061 0.0
H801 H 0.12085 0.80532 0.20056 0.0
H802 H 0.12485 0.88541 0.18353 0.0
H803 H 0.07481 0.8493 0.17352 0.0
C804 C 1.00611 0.73164 0.12784 0.0
C805 C 0.01282 0.75861 0.12143 0.0
C806 C 1.00697 0.73324 0.13954 0.0
C807 C 0.01446 0.76184 0.14506 0.0
C808 C 0.02284 0.78926 0.13861 0.0
C809 C 0.02187 0.78761 0.12689 0.0
C810 C 0.01216 0.76269 0.1575 0.0
C811 C 0.03924 0.78419 0.16365 0.0
C812 C 0.98365 0.74168 0.16331 0.0
C813 C 0.95366 0.71968 0.1573 0.0
C814 C 0.94066 0.7315 0.14937 0.0
C815 C 0.91261 0.71062 0.14364 0.0
C816 C 0.89725 0.67785 0.14579 0.0
C817 C 0.90982 0.66592 0.15374 0.0
C818 C 0.93785 0.68671 0.1595 0.0
C819 C 0.01801 0.79213 0.21139 0.0
C820 C 1.01034 0.76425 0.2174 0.0
C821 C 0.01685 0.79169 0.19967 0.0
C822 C 1.00837 0.76343 0.19373 0.0
C823 C 0.99928 0.73523 0.19978 0.0
C824 C 1.00048 0.73568 0.2115 0.0
C825 C 1.01037 0.76352 0.18126 0.0
C826 C 0.98323 0.74217 0.17509 0.0
C827 C 0.03884 0.78463 0.17543 0.0
C828 C 0.06896 0.80636 0.1814 0.0
C829 C 0.08235 0.79418 0.18904 0.0
C830 C 0.1107 0.81481 0.19467 0.0
C831 C 0.12594 0.84767 0.19271 0.0
C832 C 0.11297 0.85995 0.18506 0.0
C833 C 0.08466 0.83941 0.17939 0.0
H834 H 0.14786 0.86361 0.19709 0.0
H835 H 0.87558 0.66171 0.14133 0.0
H836 H 0.20151 1.00054 0.54934 0.0
H837 H 0.19827 0.9964 0.52878 0.0
H838 H 0.29097 1.00357 0.52783 0.0
H839 H 0.29388 0.00719 0.54833 0.0
H840 H 0.28613 0.04683 0.51354 0.0
H841 H 0.22721 0.9346 0.52203 0.0
H842 H 0.18459 0.88612 0.5311 0.0
H843 H 0.11317 0.89988 0.51476 0.0
H844 H 0.15541 0.94876 0.50572 0.0
H845 H 0.29535 0.01174 0.45643 0.0
H846 H 0.29476 0.01454 0.47689 0.0
H847 H 0.19615 0.99175 0.47586 0.0
H848 H 0.19669 0.98815 0.45535 0.0
H849 H 0.20242 0.95737 0.49132 0.0
H850 H 0.25956 0.06839 0.48256 0.0
H851 H 0.30112 0.11777 0.47361 0.0
H852 H 0.37431 0.10823 0.49057 0.0
H853 H 0.33319 0.05849 0.4995 0.0
C854 C 0.2207 1.00034 0.54471 0.0
C855 C 0.24773 1.00375 0.55035 0.0
C856 C 0.21897 0.99817 0.53299 0.0
C857 C 0.24444 0.99976 0.52674 0.0
C858 C 0.27108 1.00235 0.53245 0.0
C859 C 0.27261 1.0041 0.54414 0.0
C860 C 0.24407 1.00021 0.51426 0.0
C861 C 0.26805 0.02711 0.50866 0.0
C862 C 0.2199 0.97498 0.50791 0.0
C863 C 0.19448 0.94553 0.51329 0.0
C864 C 0.20242 0.92746 0.52045 0.0
C865 C 0.17833 0.89987 0.52557 0.0
C866 C 0.14619 0.88997 0.52353 0.0
C867 C 0.13808 0.9076 0.51634 0.0
C868 C 0.16209 0.93524 0.51121 0.0
C869 C 0.27386 0.00816 0.46059 0.0
C870 C 0.2463 1.00054 0.45435 0.0
C871 C 0.27345 0.00966 0.47229 0.0
C872 C 0.24551 1.00379 0.478 0.0
C873 C 0.21804 0.99651 0.47171 0.0
C874 C 0.21842 0.9948 0.46 0.0
C875 C 0.24468 1.00398 0.49052 0.0
C876 C 0.22046 0.97722 0.49615 0.0
C877 C 0.26846 0.02953 0.49692 0.0
C878 C 0.29328 0.05954 0.49162 0.0
C879 C 0.28452 0.07669 0.48432 0.0
C880 C 0.308 0.10476 0.47926 0.0
C881 C 0.34034 0.11609 0.4815 0.0
C882 C 0.34925 0.0994 0.48883 0.0
C883 C 0.32587 0.07128 0.4939 0.0
H884 H 0.35848 0.13783 0.47757 0.0
H885 H 0.12757 0.8686 0.5275 0.0
H886 H 0.22278 0.20323 0.78857 0.0
H887 H 0.21991 0.2016 0.80909 0.0
H888 H 0.29784 0.29896 0.81047 0.0
H889 H 0.30075 0.30035 0.78992 0.0
H890 H 0.30769 0.26076 0.82456 0.0
H891 H 0.22092 0.27992 0.81666 0.0
H892 H 0.17051 0.26914 0.80766 0.0
H893 H 0.12137 0.17651 0.82303 0.0
H894 H 0.17162 0.18656 0.832 0.0
H895 H 0.2998 0.29176 0.88222 0.0
H896 H 0.30222 0.2902 0.86181 0.0
H897 H 0.21632 0.19767 0.86171 0.0
H898 H 0.2132 0.20025 0.88218 0.0
H899 H 0.21011 0.23171 0.84678 0.0
H900 H 0.29531 0.21142 0.85487 0.0
H901 H 0.34534 0.2205 0.86372 0.0
H902 H 0.39702 0.31227 0.84786 0.0
H903 H 0.34722 0.30394 0.83904 0.0
C904 C 0.2387 0.22446 0.79329 0.0
C905 C 0.26159 0.25209 0.78773 0.0
C906 C 0.23717 0.22353 0.805 0.0
C907 C 0.25855 0.25023 0.81137 0.0
C908 C 0.28106 0.27807 0.80577 0.0
C909 C 0.28252 0.27902 0.79405 0.0
C910 C 0.25832 0.24866 0.82386 0.0
C911 C 0.28647 0.25482 0.82944 0.0
C912 C 0.23038 0.23984 0.83023 0.0
C913 C 0.2001 0.23389 0.82492 0.0
C914 C 0.19942 0.25716 0.81806 0.0
C915 C 0.17086 0.2512 0.81298 0.0
C916 C 0.14277 0.22213 0.81476 0.0
C917 C 0.14316 0.199 0.82165 0.0
C918 C 0.17166 0.20484 0.82675 0.0
C919 C 0.28204 0.27071 0.87782 0.0
C920 C 0.25665 0.24584 0.88373 0.0
C921 C 0.28335 0.26979 0.86614 0.0
C922 C 0.25967 0.24361 0.8601 0.0
C923 C 0.23493 0.21814 0.8661 0.0
C924 C 0.23334 0.21935 0.8778 0.0
C925 C 0.25958 0.24386 0.84756 0.0
C926 C 0.23136 0.23749 0.84195 0.0
C927 C 0.2874 0.25218 0.84115 0.0
C928 C 0.31746 0.25715 0.84636 0.0
C929 C 0.3173 0.23362 0.85332 0.0
C930 C 0.34563 0.23863 0.85833 0.0
C931 C 0.37433 0.26697 0.85637 0.0
C932 C 0.37477 0.29034 0.84937 0.0
C933 C 0.34651 0.28547 0.84436 0.0
H934 H 0.39623 0.2708 0.86025 0.0
H935 H 0.12069 0.21756 0.81081 0.0
H936 H 0.09492 0.31929 0.03733 0.0
H937 H 0.11865 0.31514 0.01983 0.0
H938 H 0.07138 0.21273 0.0238 0.0
H939 H 0.04954 0.21743 0.04182 0.0
H940 H 0.127 0.22992 0.01742 0.0
H941 H 0.05032 0.25451 0.0029 0.0
H942 H 0.0205 0.28333 1.00093 0.0
H943 H 0.10707 0.36869 0.99178 0.0
H944 H 0.13751 0.34051 0.99385 0.0
H945 H 0.16794 0.21527 0.95962 0.0
H946 H 0.13881 0.21181 0.97699 0.0
H947 H 0.20226 0.31235 0.98275 0.0
H948 H 0.23176 0.31556 0.96561 0.0
H949 H 0.13456 0.29169 0.98332 0.0
H950 H 0.20992 0.26311 0.99861 0.0
H951 H 0.23598 0.23047 0.99967 0.0
H952 H 0.1451 0.14673 0.00602 0.0
H953 H 0.11842 0.17882 0.00482 0.0
C954 C 0.08928 0.29588 0.03436 0.0
C955 C 0.07055 0.26871 0.04093 0.0
C956 C 0.10269 0.29341 0.02429 0.0
C957 C 0.09665 0.26352 0.02027 0.0
C958 C 0.07665 0.23613 0.02664 0.0
C959 C 0.06384 0.23872 0.03688 0.0
C960 C 0.11259 0.26121 0.00979 0.0
C961 C 0.12801 0.243 0.00992 0.0
C962 C 0.11446 0.27838 0.99991 0.0
C963 C 0.09624 0.29543 0.99861 0.0
C964 C 0.06304 0.27948 1.00054 0.0
C965 C 0.04602 0.2957 0.99939 0.0
C966 C 0.06189 0.32784 0.99625 0.0
C967 C 0.09481 0.3438 0.99422 0.0
C968 C 0.11196 0.32771 0.99536 0.0
C969 C 0.17596 0.23639 0.96475 0.0
C970 C 0.20191 0.2657 0.96129 0.0
C971 C 0.15928 0.23446 0.97463 0.0
C972 C 0.16817 0.2619 0.98114 0.0
C973 C 0.19482 0.29093 0.97784 0.0
C974 C 0.21175 0.29272 0.9681 0.0
C975 C 0.14906 0.26088 0.99111 0.0
C976 C 0.13311 0.27845 0.99083 0.0
C977 C 0.14604 0.24252 1.00072 0.0
C978 C 0.16213 0.22331 1.0015 0.0
C979 C 0.19545 0.23769 1.00013 0.0
C980 C 0.21034 0.21929 1.00077 0.0
C981 C 0.1922 0.18653 0.00288 0.0
C982 C 0.15912 0.17211 0.00437 0.0
C983 C 0.14411 0.19039 0.00372 0.0
H984 H 0.20377 0.17233 0.00338 0.0
H985 H 0.04867 0.34035 0.99537 0.0
H986 H 0.84366 0.04573 0.37663 0.0
H987 H 0.87318 0.06998 0.35929 0.0
H988 H 0.81246 0.11024 0.3531 0.0
H989 H 0.78195 0.08436 0.37005 0.0
H990 H 0.82649 0.09716 0.33423 0.0
H991 H 0.88995 0.15232 0.36623 0.0
H992 H 0.91704 0.15727 0.38423 0.0
H993 H 0.97609 0.12498 0.36875 0.0
H994 H 0.94898 0.11937 0.35068 0.0
H995 H 0.93373 0.23401 0.30272 0.0
H996 H 0.90764 0.20345 0.31971 0.0
H997 H 0.9446 0.14043 0.31293 0.0
H998 H 0.96991 0.17045 0.29568 0.0
H999 H 0.94452 0.16359 0.33782 0.0
H1000 H 0.87806 0.10991 0.30528 0.0
H1001 H 0.85154 0.11029 0.28769 0.0
H1002 H 0.79886 0.1468 0.30516 0.0
H1003 H 0.82542 0.14703 0.32284 0.0
C1004 C 0.83621 0.05907 0.37137 0.0
C1005 C 0.81079 0.06347 0.37469 0.0
C1006 C 0.85333 0.07333 0.36154 0.0
C1007 C 0.84587 0.09297 0.35499 0.0
C1008 C 0.81905 0.09553 0.35798 0.0
C1009 C 0.80155 0.08074 0.36767 0.0
C1010 C 0.86666 0.11203 0.34537 0.0
C1011 C 0.85225 0.11172 0.33511 0.0
C1012 C 0.90048 0.1312 0.34634 0.0
C1013 C 0.91722 0.13512 0.35714 0.0
C1014 C 0.90861 0.14613 0.36668 0.0
C1015 C 0.92396 0.14905 0.37689 0.0
C1016 C 0.94822 0.14137 0.37764 0.0
C1017 C 0.95726 0.13087 0.36816 0.0
C1018 C 0.94192 0.12783 0.35793 0.0
C1019 C 0.9369 0.2141 0.30502 0.0
C1020 C 0.95365 0.20443 0.2979 0.0
C1021 C 0.92192 0.19661 0.31469 0.0
C1022 C 0.924 0.16954 0.31754 0.0
C1023 C 0.94274 0.16125 0.31088 0.0
C1024 C 0.95726 0.17843 0.30108 0.0
C1025 C 0.90418 0.14844 0.32685 0.0
C1026 C 0.91878 0.14861 0.33701 0.0
C1027 C 0.87052 0.12969 0.3259 0.0
C1028 C 0.8539 0.12873 0.31535 0.0
C1029 C 0.86095 0.11818 0.30535 0.0
C1030 C 0.84586 0.11821 0.29537 0.0
C1031 C 0.82357 0.12861 0.2953 0.0
C1032 C 0.81616 0.13879 0.30522 0.0
C1033 C 0.83117 0.13878 0.31523 0.0
H1034 H 0.81202 0.12875 0.28755 0.0
H1035 H 0.96005 0.14361 0.38555 0.0
H1036 H 0.80441 0.8363 0.70882 0.0
H1037 H 0.80889 0.86419 0.69116 0.0
H1038 H 0.70655 0.80746 0.68675 0.0
H1039 H 0.70257 0.77843 0.70401 0.0
H1040 H 0.73067 0.81743 0.66752 0.0
H1041 H 0.74805 0.88715 0.6985 0.0
H1042 H 0.77402 0.91645 0.71581 0.0
H1043 H 0.86365 0.9684 0.69848 0.0
H1044 H 0.83829 0.93903 0.68109 0.0
H1045 H 0.70421 0.92479 0.63487 0.0
H1046 H 0.7091 0.89937 0.65197 0.0
H1047 H 0.80789 0.93204 0.6441 0.0
H1048 H 0.80268 0.9567 0.62676 0.0
H1049 H 0.78906 0.9359 0.66891 0.0
H1050 H 0.76666 0.86409 0.63736 0.0
H1051 H 0.73599 0.83607 0.6205 0.0
H1052 H 0.64967 0.78931 0.63993 0.0
H1053 H 0.67979 0.81746 0.65688 0.0
C1054 C 0.78308 0.82937 0.7039 0.0
C1055 C 0.75312 0.80551 0.70781 0.0
C1056 C 0.78552 0.84559 0.69388 0.0
C1057 C 0.75793 0.83882 0.68771 0.0
C1058 C 0.72825 0.81352 0.69131 0.0
C1059 C 0.72593 0.79689 0.70119 0.0
C1060 C 0.75955 0.8587 0.67781 0.0
C1061 C 0.74334 0.84331 0.66792 0.0
C1062 C 0.77615 0.89265 0.67814 0.0
C1063 C 0.79135 0.91066 0.68853 0.0
C1064 C 0.77334 0.9047 0.6984 0.0
C1065 C 0.78794 0.92132 0.70822 0.0
C1066 C 0.82049 0.94421 0.70825 0.0
C1067 C 0.83846 0.95062 0.69845 0.0
C1068 C 0.82398 0.934 0.6886 0.0
C1069 C 0.72712 0.92707 0.63693 0.0
C1070 C 0.75305 0.94251 0.62951 0.0
C1071 C 0.72988 0.9125 0.64666 0.0
C1072 C 0.7588 0.91363 0.64927 0.0
C1073 C 0.78538 0.93091 0.64225 0.0
C1074 C 0.78244 0.94504 0.63239 0.0
C1075 C 0.76023 0.89448 0.6588 0.0
C1076 C 0.77679 0.91002 0.66857 0.0
C1077 C 0.74339 0.86071 0.65848 0.0
C1078 C 0.72543 0.84307 0.64837 0.0
C1079 C 0.74111 0.84797 0.63802 0.0
C1080 C 0.72384 0.83203 0.62845 0.0
C1081 C 0.69089 0.81097 0.62914 0.0
C1082 C 0.67519 0.80566 0.63941 0.0
C1083 C 0.69235 0.82156 0.649 0.0
H1084 H 0.67755 0.79874 0.62171 0.0
H1085 H 0.83176 0.95704 0.71587 0.0
H1086 H 0.95278 0.79788 0.0471 0.0
H1087 H 0.92771 0.8017 0.02971 0.0
H1088 H 0.94016 0.72702 0.01514 0.0
H1089 H 0.96516 0.72327 0.03256 0.0
H1090 H 0.94344 0.81376 0.00764 0.0
H1091 H 0.8726 0.67693 1.00079 0.0
H1092 H 0.85064 0.62745 0.01195 0.0
H1093 H 0.84456 0.67732 0.04072 0.0
H1094 H 0.86625 0.727 0.02972 0.0
H1095 H 0.87076 0.78096 0.95367 0.0
H1096 H 0.90111 0.78559 0.97065 0.0
H1097 H 0.81292 0.73652 0.98934 0.0
H1098 H 0.78261 0.72984 0.97215 0.0
H1099 H 0.84695 0.71381 0.99555 0.0
H1100 H 0.87088 0.82209 0.99127 0.0
H1101 H 0.88906 0.8729 0.98125 0.0
H1102 H 0.98209 0.88325 0.97688 0.0
H1103 H 0.96434 0.8323 0.98675 0.0
C1104 C 0.95093 0.78298 0.04004 0.0
C1105 C 0.96124 0.76061 0.04107 0.0
C1106 C 0.93651 0.78506 0.03013 0.0
C1107 C 0.93167 0.76442 0.02112 0.0
C1108 C 0.94332 0.74301 0.02199 0.0
C1109 C 0.95788 0.74106 0.03189 0.0
C1110 C 0.91261 0.7638 0.01115 0.0
C1111 C 0.92239 0.7919 0.00496 0.0
C1112 C 0.8846 0.73555 0.00779 0.0
C1113 C 0.87136 0.70573 0.01445 0.0
C1114 C 0.86652 0.6773 0.00949 0.0
C1115 C 0.85415 0.64924 0.01579 0.0
C1116 C 0.84634 0.64928 0.02705 0.0
C1117 C 0.85077 0.67735 0.03202 0.0
C1118 C 0.86316 0.70548 0.02576 0.0
C1119 C 0.85796 0.77171 0.96147 0.0
C1120 C 0.82435 0.756 0.96164 0.0
C1121 C 0.87533 0.77445 0.97121 0.0
C1122 C 0.85956 0.76204 0.98146 0.0
C1123 C 0.82589 0.74657 0.98163 0.0
C1124 C 0.8085 0.74328 0.97183 0.0
C1125 C 0.87792 0.76375 0.99183 0.0
C1126 C 0.86801 0.73577 0.99814 0.0
C1127 C 0.90531 0.79235 0.99545 0.0
C1128 C 0.9162 0.82326 0.98968 0.0
C1129 C 0.89517 0.83514 0.98813 0.0
C1130 C 0.9054 0.86396 0.98248 0.0
C1131 C 0.93669 0.88125 0.97841 0.0
C1132 C 0.95785 0.86982 0.98003 0.0
C1133 C 0.94774 0.84099 0.98566 0.0
H1134 H 0.94454 0.90354 0.97402 0.0
H1135 H 0.83678 0.62753 0.03191 0.0
H1136 H 0.0499 0.84263 0.29444 0.0
H1137 H 0.07219 0.87153 0.31206 0.0
H1138 H 0.11577 0.81381 0.3183 0.0
H1139 H 0.09144 0.7836 0.3012 0.0
H1140 H 0.10135 0.82494 0.33689 0.0
H1141 H 0.15572 0.89492 0.30588 0.0
H1142 H 0.15969 0.92422 0.28851 0.0
H1143 H 0.12033 0.97521 0.30537 0.0
H1144 H 0.11573 0.94588 0.32282 0.0
H1145 H 0.23643 0.93362 0.36902 0.0
H1146 H 0.20632 0.90917 0.35178 0.0
H1147 H 0.13738 0.93705 0.3609 0.0
H1148 H 0.16704 0.96066 0.37838 0.0
H1149 H 0.16218 0.94336 0.33528 0.0
H1150 H 0.11004 0.87097 0.36674 0.0
H1151 H 0.11212 0.84324 0.38376 0.0
H1152 H 0.15465 0.79827 0.365 0.0
H1153 H 0.15322 0.82615 0.34789 0.0
C1154 C 0.06366 0.83578 0.29975 0.0
C1155 C 0.06943 0.8113 0.2964 0.0
C1156 C 0.07685 0.8526 0.30974 0.0
C1157 C 0.09683 0.84585 0.31643 0.0
C1158 C 0.10083 0.81995 0.31335 0.0
C1159 C 0.08697 0.80267 0.30354 0.0
C1160 C 0.11443 0.86602 0.32641 0.0
C1161 C 0.11468 0.8508 0.33642 0.0
C1162 C 0.13189 0.9 0.32605 0.0
C1163 C 0.13507 0.91797 0.31562 0.0
C1164 C 0.14777 0.91227 0.30587 0.0
C1165 C 0.15013 0.92888 0.29601 0.0
C1166 C 0.14018 0.9515 0.29583 0.0
C1167 C 0.12797 0.95764 0.30552 0.0
C1168 C 0.1255 0.94104 0.3154 0.0
C1169 C 0.21529 0.9352 0.36718 0.0
C1170 C 0.20398 0.94896 0.37499 0.0
C1171 C 0.19806 0.92117 0.35737 0.0
C1172 C 0.16954 0.92118 0.35506 0.0
C1173 C 0.15938 0.93687 0.36249 0.0
C1174 C 0.17634 0.95042 0.37244 0.0
C1175 C 0.14898 0.90206 0.34551 0.0
C1176 C 0.14841 0.91749 0.33565 0.0
C1177 C 0.13177 0.86832 0.34589 0.0
C1178 C 0.13176 0.85083 0.35608 0.0
C1179 C 0.12 0.85531 0.36627 0.0
C1180 C 0.121 0.83952 0.37592 0.0
C1181 C 0.13356 0.81904 0.37547 0.0
C1182 C 0.14495 0.81417 0.36534 0.0
C1183 C 0.144 0.82991 0.35566 0.0
H1184 H 0.13443 0.80694 0.38296 0.0
H1185 H 0.14201 0.96432 0.28819 0.0
H1186 H 0.28855 0.05342 0.63827 0.0
H1187 H 0.28383 0.07789 0.65563 0.0
H1188 H 0.22403 0.1073 0.63858 0.0
H1189 H 0.22801 0.08195 0.62136 0.0
H1190 H 0.30399 0.1374 0.66033 0.0
H1191 H 0.17471 0.11542 0.65679 0.0
H1192 H 0.12221 0.07466 0.6494 0.0
H1193 H 0.14869 1.00265 0.65333 0.0
H1194 H 0.20115 0.04288 0.66088 0.0
H1195 H 0.2899 0.24253 0.6979 0.0
H1196 H 0.28447 0.21267 0.68061 0.0
H1197 H 0.22293 0.12432 0.69782 0.0
H1198 H 0.22816 0.15428 0.71503 0.0
H1199 H 0.20244 0.12126 0.67666 0.0
H1200 H 0.30177 0.1502 0.6948 0.0
H1201 H 0.35397 0.18711 0.70337 0.0
H1202 H 0.38685 0.23764 0.67226 0.0
H1203 H 0.33466 0.20126 0.66354 0.0
C1204 C 0.2735 0.06413 0.63837 0.0
C1205 C 0.25782 0.06493 0.62858 0.0
C1206 C 0.27117 0.07855 0.64825 0.0
C1207 C 0.25331 0.0943 0.64853 0.0
C1208 C 0.2374 0.0948 0.63873 0.0
C1209 C 0.23961 0.08025 0.62888 0.0
C1210 C 0.25259 0.11148 0.65888 0.0
C1211 C 0.28172 0.1338 0.66386 0.0
C1212 C 0.22364 0.10672 0.66368 0.0
C1213 C 0.19197 0.08224 0.6593 0.0
C1214 C 0.16926 0.09086 0.65612 0.0
C1215 C 0.13953 0.06785 0.6519 0.0
C1216 C 0.13216 0.03611 0.65086 0.0
C1217 C 0.15447 0.02727 0.6541 0.0
C1218 C 0.18422 0.05017 0.65834 0.0
C1219 C 0.27448 0.21683 0.69786 0.0
C1220 C 0.2591 0.20068 0.70772 0.0
C1221 C 0.27163 0.19972 0.68802 0.0
C1222 C 0.2536 0.16611 0.68791 0.0
C1223 C 0.23692 0.15016 0.69765 0.0
C1224 C 0.23981 0.16726 0.70747 0.0
C1225 C 0.25382 0.14748 0.67793 0.0
C1226 C 0.22466 0.12491 0.67305 0.0
C1227 C 0.2827 0.15149 0.67336 0.0
C1228 C 0.31421 0.1732 0.67854 0.0
C1229 C 0.32006 0.16931 0.6898 0.0
C1230 C 0.34965 0.19011 0.69468 0.0
C1231 C 0.37368 0.21475 0.68837 0.0
C1232 C 0.3682 0.21857 0.67714 0.0
C1233 C 0.33863 0.19785 0.67222 0.0
H1234 H 0.39656 0.23085 0.69216 0.0
H1235 H 0.10914 0.01835 0.64758 0.0
H1236 H 0.04649 0.64735 0.08564 0.0
H1237 H 0.05424 0.60123 0.08594 0.0
H1238 H 0.95728 0.54108 0.07451 0.0
H1239 H 0.94913 0.58726 0.07458 0.0
H1240 H 0.96854 0.50857 0.08859 0.0
H1241 H 0.02807 0.56952 0.05695 0.0
H1242 H 0.06743 0.61711 0.04654 0.0
H1243 H 0.1431 0.62313 0.06716 0.0
H1244 H 0.10412 0.57578 0.0778 0.0
H1245 H 0.99133 0.38201 0.06863 0.0
H1246 H 0.98467 0.42859 0.06939 0.0
H1247 H 0.06986 0.47823 0.08943 0.0
H1248 H 0.07593 0.43087 0.08932 0.0
H1249 H 0.06512 0.51559 0.07114 0.0
H1250 H 1.00252 0.45154 0.10224 0.0
H1251 H 0.96153 0.40209 0.11133 0.0
H1252 H 0.8894 0.40008 0.08977 0.0
H1253 H 0.93007 0.44929 0.08043 0.0
C1254 C 0.02677 0.62434 0.08315 0.0
C1255 C 0.99723 0.62128 0.07998 0.0
C1256 C 0.0313 0.59783 0.08327 0.0
C1257 C 1.0067 0.5674 0.07996 0.0
C1258 C 0.97687 0.56411 0.07706 0.0
C1259 C 0.97216 0.59063 0.0771 0.0
C1260 C 0.01207 0.53918 0.07961 0.0
C1261 C 0.98951 0.51018 0.08462 0.0
C1262 C 0.03961 0.54083 0.07461 0.0
C1263 C 0.06313 0.5693 0.06824 0.0
C1264 C 0.05308 0.58113 0.05932 0.0
C1265 C 0.07532 0.60804 0.05337 0.0
C1266 C 0.10774 0.62319 0.05621 0.0
C1267 C 0.11798 0.6114 0.06498 0.0
C1268 C 0.09583 0.58451 0.07097 0.0
C1269 C 1.00852 0.40241 0.07342 0.0
C1270 C 0.03395 0.40186 0.0791 0.0
C1271 C 1.00473 0.42935 0.07374 0.0
C1272 C 0.02651 0.45699 0.07956 0.0
C1273 C 0.05262 0.45722 0.08489 0.0
C1274 C 0.05616 0.43 0.08475 0.0
C1275 C 0.02167 0.48535 0.08011 0.0
C1276 C 0.04426 0.51422 0.07511 0.0
C1277 C 0.99391 0.48343 0.08493 0.0
C1278 C 0.9694 0.45393 0.09056 0.0
C1279 C 0.97797 0.4404 0.09937 0.0
C1280 C 0.95478 0.41245 0.10458 0.0
C1281 C 0.9229 0.3979 0.10111 0.0
C1282 C 0.91412 0.41135 0.09244 0.0
C1283 C 0.93722 0.43929 0.08719 0.0
H1284 H 0.90498 0.37626 0.10516 0.0
H1285 H 0.12492 0.64401 0.05159 0.0
H1286 H 0.65262 0.07059 0.40533 0.0
H1287 H 0.59867 0.06351 0.4049 0.0
H1288 H 0.56203 0.9731 0.42184 0.0
H1289 H 0.61554 0.9796 0.42187 0.0
H1290 H 0.52127 0.96432 0.40745 0.0
H1291 H 0.5733 0.0476 0.43444 0.0
H1292 H 0.61466 0.09947 0.44199 0.0
H1293 H 0.59343 0.14842 0.41641 0.0
H1294 H 0.55219 0.0968 0.40861 0.0
H1295 H 0.37323 0.95249 0.42611 0.0
H1296 H 0.42813 0.96177 0.42585 0.0
H1297 H 0.45162 0.02851 0.39873 0.0
H1298 H 0.39645 0.0187 0.39876 0.0
H1299 H 0.49822 0.05001 0.41788 0.0
H1300 H 0.44355 0.96294 0.39176 0.0
H1301 H 0.40066 0.90968 0.38588 0.0
H1302 H 0.42585 0.86633 0.41235 0.0
H1303 H 0.46862 0.91943 0.4185 0.0
C1304 C 0.63311 0.04934 0.40906 0.0
C1305 C 0.63868 0.0257 0.41362 0.0
C1306 C 0.60207 0.04529 0.40885 0.0
C1307 C 0.57571 0.01784 0.41347 0.0
C1308 C 0.58147 0.99445 0.41814 0.0
C1309 C 0.61231 0.99824 0.41818 0.0
C1310 C 0.54214 0.01295 0.41324 0.0
C1311 C 0.51646 0.9831 0.40989 0.0
C1312 C 0.53511 0.03726 0.41623 0.0
C1313 C 0.55991 0.06833 0.42087 0.0
C1314 C 0.57762 0.06942 0.43037 0.0
C1315 C 0.60101 0.09878 0.43471 0.0
C1316 C 0.60673 0.12722 0.42966 0.0
C1317 C 0.58901 0.12637 0.42029 0.0
C1318 C 0.56561 0.09707 0.41592 0.0
C1319 C 0.39003 0.96909 0.42006 0.0
C1320 C 0.38022 0.98472 0.41242 0.0
C1321 C 0.42148 0.97437 0.41992 0.0
C1322 C 0.44425 0.99592 0.41229 0.0
C1323 C 0.43465 0.01182 0.40472 0.0
C1324 C 0.40298 1.00601 0.40469 0.0
C1325 C 0.47787 1.00155 0.41217 0.0
C1326 C 0.50336 0.03143 0.41545 0.0
C1327 C 0.48468 0.97712 0.40936 0.0
C1328 C 0.45906 0.94519 0.40566 0.0
C1329 C 0.43975 0.94208 0.39639 0.0
C1330 C 0.4155 0.91191 0.393 0.0
C1331 C 0.41048 0.88464 0.39875 0.0
C1332 C 0.42974 0.88748 0.40791 0.0
C1333 C 0.454 0.91761 0.41135 0.0
H1334 H 0.3917 0.8613 0.39611 0.0
H1335 H 0.62485 0.14993 0.43303 0.0
H1336 H 0.43572 0.36494 0.73997 0.0
H1337 H 0.48196 0.41917 0.74005 0.0
H1338 H 0.4227 0.4551 0.75313 0.0
H1339 H 0.37632 0.40121 0.75256 0.0
H1340 H 0.45845 0.49529 0.73909 0.0
H1341 H 0.48248 0.44558 0.76919 0.0
H1342 H 0.491 0.40493 0.7785 0.0
H1343 H 0.56797 0.4251 0.75587 0.0
H1344 H 0.55965 0.46562 0.74634 0.0
H1345 H 0.5919 0.6476 0.75624 0.0
H1346 H 0.54468 0.59396 0.75621 0.0
H1347 H 0.59483 0.55984 0.73578 0.0
H1348 H 0.64134 0.61327 0.73526 0.0
H1349 H 0.56414 0.51972 0.75402 0.0
H1350 H 0.5385 0.57085 0.72433 0.0
H1351 H 0.52977 0.61273 0.7162 0.0
H1352 H 0.455 0.59096 0.74002 0.0
H1353 H 0.46359 0.54921 0.7484 0.0
C1354 C 0.43263 0.38438 0.74295 0.0
C1355 C 0.40219 0.37855 0.74627 0.0
C1356 C 0.45921 0.41555 0.74304 0.0
C1357 C 0.45638 0.44172 0.74677 0.0
C1358 C 0.42593 0.43574 0.75016 0.0
C1359 C 0.39929 0.40474 0.74987 0.0
C1360 C 0.48472 0.47529 0.74695 0.0
C1361 C 0.48134 0.50048 0.74254 0.0
C1362 C 0.51512 0.48271 0.75127 0.0
C1363 C 0.52023 0.45841 0.75699 0.0
C1364 C 0.50108 0.4412 0.76615 0.0
C1365 C 0.5059 0.41821 0.77148 0.0
C1366 C 0.52996 0.41238 0.76776 0.0
C1367 C 0.54931 0.42961 0.75873 0.0
C1368 C 0.54458 0.45261 0.75337 0.0
C1369 C 0.59288 0.62894 0.75157 0.0
C1370 C 0.62108 0.63529 0.74586 0.0
C1371 C 0.56576 0.59806 0.75163 0.0
C1372 C 0.56607 0.57257 0.74605 0.0
C1373 C 0.59394 0.57884 0.74027 0.0
C1374 C 0.62079 0.60967 0.74007 0.0
C1375 C 0.53763 0.53934 0.74621 0.0
C1376 C 0.54109 0.51432 0.75066 0.0
C1377 C 0.5072 0.53218 0.74213 0.0
C1378 C 0.50192 0.55714 0.73706 0.0
C1379 C 0.52038 0.57517 0.72789 0.0
C1380 C 0.51542 0.59885 0.72323 0.0
C1381 C 0.49191 0.60456 0.72761 0.0
C1382 C 0.47324 0.58654 0.73664 0.0
C1383 C 0.47812 0.56285 0.74135 0.0
H1384 H 0.4881 0.6229 0.72398 0.0
H1385 H 0.53365 0.39457 0.77189 0.0
H1386 H 0.4292 0.06778 0.60051 0.0
H1387 H 0.47554 0.05944 0.60083 0.0
H1388 H 0.41879 0.96756 0.58525 0.0
H1389 H 0.37276 0.9761 0.5846 0.0
H1390 H 0.46314 0.97796 0.60767 0.0
H1391 H 0.46011 0.00741 0.5685 0.0
H1392 H 0.45902 0.04352 0.55416 0.0
H1393 H 0.54598 0.12112 0.5674 0.0
H1394 H 0.54727 0.08552 0.58194 0.0
H1395 H 0.58134 0.93403 0.59694 0.0
H1396 H 0.53489 0.94171 0.59691 0.0
H1397 H 0.59676 0.0418 0.58962 0.0
H1398 H 0.64262 0.03327 0.58874 0.0
H1399 H 0.54889 0.02832 0.57917 0.0
H1400 H 0.55658 1.00459 0.61742 0.0
H1401 H 0.55996 0.97437 0.63347 0.0
H1402 H 0.46879 0.89403 0.62473 0.0
H1403 H 0.46504 0.92366 0.60855 0.0
C1404 C 0.42653 0.04575 0.59718 0.0
C1405 C 0.39711 0.0227 0.59249 0.0
C1406 C 0.45312 0.04103 0.59735 0.0
C1407 C 0.45083 0.01284 0.59306 0.0
C1408 C 0.42132 0.98951 0.58861 0.0
C1409 C 0.39499 0.99452 0.5882 0.0
C1410 C 0.47923 0.00785 0.59308 0.0
C1411 C 0.48177 0.98865 0.60137 0.0
C1412 C 0.50424 0.02267 0.58516 0.0
C1413 C 0.50355 0.04393 0.57638 0.0
C1414 C 0.47879 0.03225 0.56843 0.0
C1415 C 0.47819 0.0526 0.56025 0.0
C1416 C 0.50236 0.08462 0.55989 0.0
C1417 C 0.52724 0.09633 0.5677 0.0
C1418 C 0.52793 0.07608 0.5759 0.0
C1419 C 0.58497 0.95767 0.59536 0.0
C1420 C 0.61579 0.98304 0.5929 0.0
C1421 C 0.5583 0.96224 0.59546 0.0
C1422 C 0.56174 0.99266 0.59355 0.0
C1423 C 0.59278 0.018 0.59112 0.0
C1424 C 0.61924 0.01319 0.59069 0.0
C1425 C 0.53325 0.99803 0.5938 0.0
C1426 C 0.53056 0.01746 0.58555 0.0
C1427 C 0.50854 0.98411 0.60199 0.0
C1428 C 0.51068 0.96623 0.61171 0.0
C1429 C 0.53735 0.98041 0.61888 0.0
C1430 C 0.53932 0.9634 0.62801 0.0
C1431 C 0.51465 0.93227 0.6301 0.0
C1432 C 0.4879 0.91813 0.62309 0.0
C1433 C 0.48583 0.93502 0.61395 0.0
H1434 H 0.51622 0.91914 0.63717 0.0
H1435 H 0.50186 0.10033 0.55355 0.0
H1436 H 0.36815 0.43105 0.93184 0.0
H1437 H 0.42272 0.47754 0.9322 0.0
H1438 H 0.4597 0.41946 0.91914 0.0
H1439 H 0.40525 0.37323 0.91845 0.0
H1440 H 0.49214 0.46614 0.94083 0.0
H1441 H 0.46161 0.45914 0.90135 0.0
H1442 H 0.42522 0.45645 0.88636 0.0
H1443 H 0.4338 0.54461 0.89778 0.0
H1444 H 0.46987 0.54752 0.91295 0.0
H1445 H 0.65493 0.58417 0.93071 0.0
H1446 H 0.60093 0.53757 0.93063 0.0
H1447 H 0.56244 0.59796 0.92139 0.0
H1448 H 0.61674 0.64393 0.92061 0.0
H1449 H 0.5288 0.54916 0.91133 0.0
H1450 H 0.55793 0.56033 0.94993 0.0
H1451 H 0.5906 0.56529 0.96649 0.0
H1452 H 0.58096 0.47388 0.95932 0.0
H1453 H 0.54853 0.46854 0.94264 0.0
C1454 C 0.38789 0.42811 0.92908 0.0
C1455 C 0.38205 0.39822 0.92508 0.0
C1456 C 0.41915 0.4548 0.92926 0.0
C1457 C 0.44558 0.45222 0.92569 0.0
C1458 C 0.4399 0.42226 0.92194 0.0
C1459 C 0.40862 0.3958 0.9215 0.0
C1460 C 0.47898 0.48073 0.92573 0.0
C1461 C 0.50034 0.48416 0.93432 0.0
C1462 C 0.48955 0.50499 0.91751 0.0
C1463 C 0.46809 0.50333 0.90836 0.0
C1464 C 0.45545 0.47775 0.90074 0.0
C1465 C 0.43496 0.47624 0.89219 0.0
C1466 C 0.42712 0.50029 0.89114 0.0
C1467 C 0.43984 0.52596 0.89861 0.0
C1468 C 0.46032 0.52756 0.90718 0.0
C1469 C 0.6349 0.58748 0.9287 0.0
C1470 C 0.64034 0.61796 0.92571 0.0
C1471 C 0.60371 0.56071 0.92876 0.0
C1472 C 0.57664 0.56365 0.92628 0.0
C1473 C 0.58229 0.59433 0.92334 0.0
C1474 C 0.61355 0.62088 0.92294 0.0
C1475 C 0.54277 0.53504 0.92649 0.0
C1476 C 0.52104 0.53144 0.91793 0.0
C1477 C 0.53159 0.51107 0.93496 0.0
C1478 C 0.55108 0.51419 0.94497 0.0
C1479 C 0.56295 0.54139 0.95185 0.0
C1480 C 0.5814 0.54425 0.96126 0.0
C1481 C 0.58792 0.51995 0.96394 0.0
C1482 C 0.57593 0.4927 0.95722 0.0
C1483 C 0.55749 0.48972 0.94779 0.0
H1484 H 0.6022 0.52222 0.97123 0.0
H1485 H 0.41125 0.49908 0.88452 0.0
H1486 H 0.99512 0.61752 0.27278 0.0
H1487 H 0.98471 0.56254 0.27276 0.0
H1488 H 0.05477 0.58674 0.24659 0.0
H1489 H 0.06338 0.6411 0.24611 0.0
H1490 H 0.01237 0.53283 0.24189 0.0
H1491 H 0.06386 0.57283 0.27723 0.0
H1492 H 0.0725 0.59786 0.29584 0.0
H1493 H 0.97979 0.52357 0.30641 0.0
H1494 H 0.97045 0.49828 0.28781 0.0
H1495 H 0.03501 0.39856 0.24999 0.0
H1496 H 0.04133 0.45202 0.25006 0.0
H1497 H 0.95239 0.41597 0.26796 0.0
H1498 H 0.94582 0.36212 0.26787 0.0
H1499 H 1.00248 0.47409 0.27702 0.0
H1500 H 0.95487 0.43344 0.24092 0.0
H1501 H 0.95089 0.40911 0.22243 0.0
H1502 H 0.04359 0.48682 0.21357 0.0
H1503 H 0.04831 0.5114 0.23208 0.0
C1504 C 1.00845 0.61114 0.26708 0.0
C1505 C 0.03028 0.63395 0.2595 0.0
C1506 C 1.00267 0.57954 0.26711 0.0
C1507 C 0.01939 0.56992 0.25986 0.0
C1508 C 0.04132 0.59292 0.25231 0.0
C1509 C 0.04643 0.62425 0.25207 0.0
C1510 C 0.01368 0.53603 0.2599 0.0
C1511 C 0.01075 0.52042 0.24963 0.0
C1512 C 0.01077 0.51876 0.2699 0.0
C1513 C 0.01634 0.53386 0.28109 0.0
C1514 C 0.04525 0.56195 0.2835 0.0
C1515 C 0.05027 0.57616 0.29405 0.0
C1516 C 0.02667 0.56236 0.30229 0.0
C1517 C 0.99803 0.53426 0.30001 0.0
C1518 C 0.99287 0.51996 0.28947 0.0
C1519 C 0.0167 0.40188 0.25395 0.0
C1520 C 0.98986 0.37574 0.25893 0.0
C1521 C 0.02031 0.4326 0.25394 0.0
C1522 C 0.99735 0.43836 0.25899 0.0
C1523 C 0.97052 0.41238 0.264 0.0
C1524 C 0.96665 0.38144 0.26387 0.0
C1525 C 1.00159 0.47148 0.25906 0.0
C1526 C 1.00419 0.48678 0.26933 0.0
C1527 C 1.00497 0.48875 0.24908 0.0
C1528 C 1.00205 0.47412 0.23792 0.0
C1529 C 0.9745 0.44522 0.23506 0.0
C1530 C 0.9721 0.4314 0.22457 0.0
C1531 C 0.997 0.44637 0.21684 0.0
C1532 C 0.02433 0.47524 0.21957 0.0
C1533 C 0.02687 0.48914 0.23005 0.0
H1534 H 0.99509 0.43564 0.20872 0.0
H1535 H 0.03061 0.57341 0.31045 0.0
H1536 H 0.07995 0.15283 0.0765 0.0
H1537 H 0.07269 0.0988 0.0766 0.0
H1538 H 0.9796 0.0624 0.0916 0.0
H1539 H 0.98695 0.11617 0.09172 0.0
H1540 H 1.01053 0.0351 0.10106 0.0
H1541 H 0.98831 0.05412 0.06339 0.0
H1542 H 1.00053 0.08343 0.04552 0.0
H1543 H 0.08166 0.07074 0.04077 0.0
H1544 H 0.07015 0.04171 0.05869 0.0
H1545 H 0.95222 0.8695 0.09163 0.0
H1546 H 0.95864 0.92297 0.0918 0.0
H1547 H 0.0455 0.95858 0.07258 0.0
H1548 H 0.03791 0.90511 0.0716 0.0
H1549 H 0.01751 0.98672 0.06537 0.0
H1550 H 0.04168 0.96901 0.10282 0.0
H1551 H 0.03146 0.94084 0.12087 0.0
H1552 H 0.94984 0.95227 0.12636 0.0
H1553 H 0.95936 0.9802 0.10827 0.0
C1554 C 0.05814 0.1334 0.07996 0.0
C1555 C 0.03395 0.13895 0.08401 0.0
C1556 C 0.05385 0.10239 0.07992 0.0
C1557 C 0.02533 0.07621 0.08395 0.0
C1558 C 1.00174 0.08197 0.08838 0.0
C1559 C 1.00592 0.11282 0.08837 0.0
C1560 C 0.01959 0.04273 0.08338 0.0
C1561 C 0.01176 0.02443 0.09323 0.0
C1562 C 0.02175 0.02876 0.07324 0.0
C1563 C 0.02855 0.04603 0.06243 0.0
C1564 C 1.00889 0.05778 0.05857 0.0
C1565 C 0.01566 0.07431 0.04843 0.0
C1566 C 0.0419 0.07902 0.04203 0.0
C1567 C 0.06137 0.06712 0.04574 0.0
C1568 C 0.05472 0.05061 0.05589 0.0
C1569 C 0.97244 0.88854 0.08729 0.0
C1570 C 0.99478 0.88262 0.08177 0.0
C1571 C 0.97641 0.91942 0.08754 0.0
C1572 C 1.00311 0.94543 0.08246 0.0
C1573 C 0.02483 0.93932 0.07668 0.0
C1574 C 0.02063 0.9085 0.07626 0.0
C1575 C 1.00868 0.97894 0.08309 0.0
C1576 C 0.01639 0.9973 0.07323 0.0
C1577 C 1.00675 0.99307 0.09326 0.0
C1578 C 1.00105 0.9764 0.10415 0.0
C1579 C 0.02144 0.96533 0.10785 0.0
C1580 C 0.01578 0.94944 0.11809 0.0
C1581 C 0.98996 0.94469 0.12474 0.0
C1582 C 0.9698 0.95592 0.12119 0.0
C1583 C 0.97532 0.9718 0.11095 0.0
H1584 H 0.98563 0.93237 0.13267 0.0
H1585 H 0.04711 0.09183 0.03418 0.0
H1586 H 0.88089 0.9829 0.42653 0.0
H1587 H 0.92766 0.97605 0.42628 0.0
H1588 H 0.97986 0.06308 0.40734 0.0
H1589 H 0.93263 0.06978 0.40737 0.0
H1590 H 0.98818 0.01557 0.39861 0.0
H1591 H 0.9954 0.05953 0.43528 0.0
H1592 H 0.97552 0.06257 0.45398 0.0
H1593 H 0.95911 0.96888 0.46177 0.0
H1594 H 0.9785 0.96509 0.44305 0.0
H1595 H 0.13956 0.02679 0.40274 0.0
H1596 H 0.09435 0.03557 0.40358 0.0
H1597 H 0.04641 0.95675 0.42654 0.0
H1598 H 0.09298 0.94942 0.42647 0.0
H1599 H 0.03568 1.00047 0.43324 0.0
H1600 H 0.02638 0.95457 0.39702 0.0
H1601 H 0.04418 0.949 0.37824 0.0
H1602 H 0.06159 0.04241 0.36938 0.0
H1603 H 0.0443 0.04872 0.38816 0.0
C1604 C 0.90228 1.00068 0.4223 0.0
C1605 C 0.90278 0.02691 0.41694 0.0
C1606 C 0.92922 0.99682 0.42224 0.0
C1607 C 0.95763 0.01912 0.41687 0.0
C1608 C 0.95836 0.04551 0.41157 0.0
C1609 C 0.93137 0.04949 0.41168 0.0
C1610 C 0.98613 0.01439 0.41659 0.0
C1611 C 0.99887 0.01278 0.4062 0.0
C1612 C 0.9996 0.0096 0.42644 0.0
C1613 C 0.98816 0.01193 0.43773 0.0
C1614 C 0.98735 0.03948 0.44095 0.0
C1615 C 0.9762 0.04136 0.45156 0.0
C1616 C 0.966 0.01591 0.45905 0.0
C1617 C 0.967 0.98856 0.45596 0.0
C1618 C 0.9781 0.98655 0.44535 0.0
C1619 C 0.11976 0.01147 0.40814 0.0
C1620 C 0.12054 0.98744 0.41461 0.0
C1621 C 0.09338 0.01622 0.40844 0.0
C1622 C 0.06627 0.99652 0.41496 0.0
C1623 C 0.06677 0.97234 0.42138 0.0
C1624 C 0.09346 0.96788 0.42123 0.0
C1625 C 0.03788 1.0016 0.41523 0.0
C1626 C 0.02509 1.00325 0.42562 0.0
C1627 C 0.02407 1.00602 0.40537 0.0
C1628 C 0.03432 1.00222 0.39404 0.0
C1629 C 0.03421 0.97401 0.39109 0.0
C1630 C 0.04418 0.97071 0.38044 0.0
C1631 C 0.05408 0.99536 0.37263 0.0
C1632 C 0.05395 0.02334 0.37544 0.0
C1633 C 0.04404 0.02678 0.38609 0.0
H1634 H 0.0618 0.99277 0.36439 0.0
H1635 H 0.95737 0.0174 0.46726 0.0
H1636 H 0.15314 0.08615 0.75858 0.0
H1637 H 0.09909 0.03939 0.75899 0.0
H1638 H 0.06468 0.0893 0.73856 0.0
H1639 H 0.11842 0.13539 0.73772 0.0
H1640 H 0.02545 0.06052 0.75676 0.0
H1641 H 0.07432 0.03165 0.72735 0.0
H1642 H 0.1153 0.02171 0.71905 0.0
H1643 H 0.0943 0.94865 0.74346 0.0
H1644 H 0.05347 0.95848 0.752 0.0
H1645 H 0.87017 0.93066 0.74282 0.0
H1646 H 0.92441 0.97715 0.74283 0.0
H1647 H 0.95988 0.92087 0.75872 0.0
H1648 H 0.90605 0.87445 0.75851 0.0
H1649 H 0.99917 0.95326 0.74314 0.0
H1650 H 0.95078 0.98111 0.77272 0.0
H1651 H 0.91048 0.99105 0.78162 0.0
H1652 H 0.93113 0.06565 0.75792 0.0
H1653 H 0.97128 0.05588 0.74879 0.0
C1654 C 0.13426 0.08709 0.75402 0.0
C1655 C 0.14047 0.11502 0.74823 0.0
C1656 C 0.10322 0.06031 0.75432 0.0
C1657 C 0.07761 0.06079 0.74886 0.0
C1658 C 0.08382 0.08837 0.74296 0.0
C1659 C 0.11476 0.1149 0.74255 0.0
C1660 C 0.04426 0.03281 0.7493 0.0
C1661 C 0.01964 0.03713 0.75367 0.0
C1662 C 0.03663 1.00204 0.74553 0.0
C1663 C 0.06109 0.99604 0.74039 0.0
C1664 C 0.07863 0.01365 0.73101 0.0
C1665 C 0.10179 0.008 0.72625 0.0
C1666 C 0.10746 0.98462 0.73075 0.0
C1667 C 0.08992 0.96679 0.74 0.0
C1668 C 0.06675 0.97237 0.7448 0.0
C1669 C 0.88946 0.92836 0.74646 0.0
C1670 C 0.88366 0.89873 0.75064 0.0
C1671 C 0.92058 0.95501 0.74647 0.0
C1672 C 0.94657 0.95285 0.75085 0.0
C1673 C 0.94055 0.92337 0.75522 0.0
C1674 C 0.90962 0.89676 0.75511 0.0
C1675 C 0.98012 0.98081 0.75064 0.0
C1676 C 1.00485 0.97655 0.74629 0.0
C1677 C 0.98791 0.01158 0.75453 0.0
C1678 C 0.96381 0.01755 0.76001 0.0
C1679 C 0.94656 0.99948 0.76936 0.0
C1680 C 0.92377 1.00511 0.77445 0.0
C1681 C 0.91819 0.02891 0.77032 0.0
C1682 C 0.93544 0.04719 0.7611 0.0
C1683 C 0.95824 0.04164 0.75597 0.0
H1684 H 0.90054 0.03323 0.77428 0.0
H1685 H 0.1254 0.98027 0.72705 0.0
H1686 H 0.86797 0.94759 0.57839 0.0
H1687 H 0.92186 0.95472 0.57826 0.0
H1688 H 0.953 0.03183 0.6019 0.0
H1689 H 0.89915 0.02398 0.60259 0.0
H1690 H 0.99587 0.0473 0.58402 0.0
H1691 H 0.94155 0.96186 0.61056 0.0
H1692 H 0.89882 0.90915 0.61698 0.0
H1693 H 0.92269 0.86348 0.59094 0.0
H1694 H 0.96529 0.916 0.58426 0.0
H1695 H 0.14916 0.06757 0.59775 0.0
H1696 H 0.09507 0.06009 0.59788 0.0
H1697 H 0.06001 0.97095 0.58022 0.0
H1698 H 0.11375 0.97796 0.58035 0.0
H1699 H 0.01844 0.96156 0.59485 0.0
H1700 H 0.07149 0.04477 0.56785 0.0
H1701 H 0.11331 0.09667 0.56047 0.0
H1702 H 0.09115 0.14553 0.58582 0.0
H1703 H 0.04945 0.09389 0.59344 0.0
C1704 C 0.88595 0.96577 0.58373 0.0
C1705 C 0.87853 0.98526 0.59044 0.0
C1706 C 0.91705 0.96997 0.58358 0.0
C1707 C 0.94182 0.99395 0.59004 0.0
C1708 C 0.93459 0.01337 0.59673 0.0
C1709 C 0.90349 0.00889 0.59703 0.0
C1710 C 0.97522 0.9989 0.58987 0.0
C1711 C 1.00084 0.02864 0.58651 0.0
C1712 C 0.98191 0.97446 0.59282 0.0
C1713 C 0.95638 0.94288 0.59684 0.0
C1714 C 0.93751 0.9406 0.60614 0.0
C1715 C 0.91334 0.91076 0.60984 0.0
C1716 C 0.90798 0.88299 0.60435 0.0
C1717 C 0.92683 0.88501 0.59517 0.0
C1718 C 0.95101 0.91481 0.59143 0.0
C1719 C 0.13001 0.04653 0.59379 0.0
C1720 C 0.1361 0.02342 0.58904 0.0
C1721 C 0.09889 0.04224 0.59384 0.0
C1722 C 0.07297 0.01504 0.58893 0.0
C1723 C 0.07917 0.99211 0.58412 0.0
C1724 C 0.11013 0.99619 0.5842 0.0
C1725 C 0.03941 0.01006 0.58895 0.0
C1726 C 0.01366 0.98029 0.5923 0.0
C1727 C 0.03254 0.03437 0.58584 0.0
C1728 C 0.05758 0.06546 0.58128 0.0
C1729 C 0.0757 0.06658 0.5719 0.0
C1730 C 0.09935 0.09595 0.56767 0.0
C1731 C 0.10494 0.12438 0.57269 0.0
C1732 C 0.08683 0.12349 0.58195 0.0
C1733 C 0.06316 0.09418 0.58622 0.0
H1734 H 0.12326 0.14709 0.5694 0.0
H1735 H 0.88927 0.85991 0.60723 0.0
H1736 H 0.91352 0.87669 0.90528 0.0
H1737 H 0.95919 0.93121 0.90469 0.0
H1738 H 0.94871 0.94107 0.94011 0.0
H1739 H 0.90169 0.88744 0.94044 0.0
H1740 H 0.96316 0.99322 0.93248 0.0
H1741 H 0.01284 0.93064 0.92602 0.0
H1742 H 0.02216 0.89021 0.91694 0.0
H1743 H 0.04193 0.94089 0.8858 0.0
H1744 H 0.03235 0.98144 0.89466 0.0
H1745 H 0.12502 0.1257 0.93974 0.0
H1746 H 0.07843 0.07148 0.93944 0.0
H1747 H 0.06271 0.08316 0.90472 0.0
H1748 H 0.10886 0.13788 0.90507 0.0
H1749 H 0.06271 0.02162 0.91164 0.0
H1750 H 0.01403 0.08589 0.92019 0.0
H1751 H 1.00858 0.12619 0.93109 0.0
H1752 H 0.99174 0.07054 0.96093 0.0
H1753 H 0.99758 0.03012 0.95022 0.0
C1754 C 0.92118 0.89044 0.91295 0.0
C1755 C 0.90398 0.87751 0.92292 0.0
C1756 C 0.9476 0.92176 0.91265 0.0
C1757 C 0.95845 0.94079 0.92241 0.0
C1758 C 0.9413 0.92751 0.93239 0.0
C1759 C 0.91438 0.89658 0.93262 0.0
C1760 C 0.98688 0.97458 0.92221 0.0
C1761 C 0.98495 0.99899 0.92802 0.0
C1762 C 0.01574 0.98318 0.91633 0.0
C1763 C 0.02155 0.95889 0.91097 0.0
C1764 C 0.01897 0.93305 0.91721 0.0
C1765 C 0.02433 0.91013 0.91211 0.0
C1766 C 0.03254 0.91293 0.90079 0.0
C1767 C 0.03551 0.93872 0.89456 0.0
C1768 C 0.03015 0.96169 0.89962 0.0
C1769 C 0.11158 0.11682 0.93205 0.0
C1770 C 0.12076 0.13635 0.92244 0.0
C1771 C 0.08489 0.08574 0.93188 0.0
C1772 C 0.06693 0.07296 0.92205 0.0
C1773 C 0.07611 0.0923 0.91241 0.0
C1774 C 0.1024 0.12372 0.91264 0.0
C1775 C 0.03863 0.03955 0.92189 0.0
C1776 C 0.04073 0.01543 0.91606 0.0
C1777 C 1.01033 0.03101 0.92801 0.0
C1778 C 1.00657 0.05515 0.93442 0.0
C1779 C 1.00946 0.08239 0.92909 0.0
C1780 C 1.00624 0.10522 0.93523 0.0
C1781 C 0.9999 0.10097 0.9467 0.0
C1782 C 0.99669 0.07382 0.95205 0.0
C1783 C 0.99992 0.05093 0.94594 0.0
H1784 H 0.99741 0.11867 0.95144 0.0
H1785 H 0.03668 0.89516 0.89686 0.0
H1786 H 0.06602 0.92138 0.24546 0.0
H1787 H 0.05868 0.9679 0.24546 0.0
H1788 H 0.97957 0.92011 0.26829 0.0
H1789 H 0.98763 0.87432 0.26888 0.0
H1790 H 0.96558 0.94858 0.25026 0.0
H1791 H 0.04722 0.97737 0.27799 0.0
H1792 H 0.09879 0.98622 0.28531 0.0
H1793 H 0.14892 0.05794 0.26028 0.0
H1794 H 0.09757 0.04916 0.2527 0.0
H1795 H 0.9458 0.08186 0.26431 0.0
H1796 H 0.9526 0.03491 0.26448 0.0
H1797 H 0.04199 0.08809 0.2468 0.0
H1798 H 0.03549 0.13498 0.24673 0.0
H1799 H 0.0505 0.05612 0.26231 0.0
H1800 H 0.9695 0.02732 0.23428 0.0
H1801 H 0.91814 0.01775 0.22648 0.0
H1802 H 0.86713 0.94587 0.25138 0.0
H1803 H 0.91823 0.9553 0.25941 0.0
C1804 C 0.04735 0.92073 0.25065 0.0
C1805 C 0.02736 0.8934 0.2571 0.0
C1806 C 0.04302 0.94746 0.25057 0.0
C1807 C 0.01841 0.94764 0.25684 0.0
C1808 C 0.9985 0.92058 0.26327 0.0
C1809 C 1.0031 0.89412 0.26352 0.0
C1810 C 0.01343 0.97595 0.25674 0.0
C1811 C 0.98403 0.97202 0.25301 0.0
C1812 C 0.0376 0.00681 0.26011 0.0
C1813 C 0.06853 0.01236 0.2647 0.0
C1814 C 0.06923 0.99484 0.27399 0.0
C1815 C 0.09842 0.99987 0.27819 0.0
C1816 C 0.12712 0.02256 0.27324 0.0
C1817 C 0.12667 0.04033 0.2641 0.0
C1818 C 0.09753 0.03535 0.25984 0.0
C1819 C 0.9667 0.08346 0.26032 0.0
C1820 C 0.99008 0.11248 0.25553 0.0
C1821 C 0.97063 0.05648 0.26043 0.0
C1822 C 0.9978 0.05751 0.25558 0.0
C1823 C 0.0209 0.08638 0.25068 0.0
C1824 C 0.01711 0.11334 0.25064 0.0
C1825 C 1.00258 0.02895 0.25574 0.0
C1826 C 0.03198 0.03277 0.25951 0.0
C1827 C 0.97844 0.998 0.25233 0.0
C1828 C 0.94769 0.99224 0.24751 0.0
C1829 C 0.94733 0.00963 0.23814 0.0
C1830 C 0.91827 1.00421 0.23367 0.0
C1831 C 0.88939 0.98128 0.23845 0.0
C1832 C 0.88952 0.96366 0.24769 0.0
C1833 C 0.91852 0.96901 0.2522 0.0
H1834 H 0.86691 0.97711 0.23497 0.0
H1835 H 0.14969 0.02641 0.27651 0.0
loop_
_geom_bond_atom_site_label_1
_geom_bond_atom_site_label_2
_geom_bond_distance
_geom_bond_site_symmetry_2
_ccdc_geom_bond_type
C0 C1 1.443 1_455 S
C0 N4 1.376 1_455 S
C0 C38 1.389 . S
C1 C0 1.443 1_655 S
C1 C2 1.340 . S
C1 H41 0.951 . S
C2 C1 1.340 . S
C2 C3 1.439 . S
C2 H42 0.950 . S
C3 C2 1.439 . S
C3 N4 1.374 . S
C3 C37 1.395 . S
N4 C0 1.376 1_655 S
N4 C3 1.374 . S
N4 Co5 2.008 1_655 S
Co5 N4 2.008 1_455 S
Co5 N6 1.995 1_455 S
Co5 N11 2.008 . S
Co5 N16 1.995 . S
Co5 N21 2.282 . S
Co5 N27 2.282 . S
N6 Co5 1.995 1_655 S
N6 C7 1.376 . S
N6 C10 1.383 . S
C7 N6 1.376 . S
C7 C8 1.446 . S
C7 C37 1.391 . S
C8 C7 1.446 . S
C8 C9 1.339 . S
C8 H43 0.949 . S
C9 C8 1.339 . S
C9 C10 1.439 . S
C9 H44 0.950 . S
C10 N6 1.383 . S
C10 C9 1.439 . S
C10 C39 1.392 . S
N11 Co5 2.008 . S
N11 C12 1.376 . S
N11 C15 1.374 . S
C12 N11 1.376 . S
C12 C13 1.443 . S
C12 C39 1.389 1_455 S
C13 C12 1.443 . S
C13 C14 1.340 . S
C13 H45 0.951 . S
C14 C13 1.340 . S
C14 C15 1.439 . S
C14 H46 0.950 . S
C15 N11 1.374 . S
C15 C14 1.439 . S
C15 C40 1.395 . S
N16 Co5 1.995 . S
N16 C17 1.376 . S
N16 C20 1.383 . S
C17 N16 1.376 . S
C17 C18 1.446 . S
C17 C40 1.391 . S
C18 C17 1.446 . S
C18 C19 1.339 . S
C18 H47 0.949 . S
C19 C18 1.339 . S
C19 C20 1.439 . S
C19 H48 0.950 . S
C20 N16 1.383 . S
C20 C19 1.439 . S
C20 C38 1.392 . S
N21 Co5 2.282 . S
N21 C24 1.332 . S
N21 C26 1.332 1_455 S
C22 C23 1.386 . S
C22 C25 1.388 1_455 S
C23 C22 1.386 . S
C23 C24 1.382 . S
C23 H49 0.950 . S
C24 N21 1.332 . S
C24 C23 1.382 . S
C24 H35 0.952 . S
C25 C22 1.388 1_655 S
C25 C26 1.382 . S
C25 H50 0.950 . S
C26 N21 1.332 1_655 S
C26 C25 1.382 . S
C26 H36 0.948 . S
N27 Co5 2.282 . S
N27 C31 1.332 1_455 S
N27 C32 1.332 . S
C28 C29 1.388 . S
C28 C32 1.382 . S
C28 H51 0.950 . S
C29 C28 1.388 . S
C29 C30 1.386 1_455 S
C30 C29 1.386 1_655 S
C30 C31 1.382 . S
C30 H52 0.950 . S
C31 N27 1.332 1_655 S
C31 C30 1.382 . S
C31 H33 0.952 . S
C32 N27 1.332 . S
C32 C28 1.382 . S
C32 H34 0.948 . S
H33 C31 0.952 . S
H34 C32 0.948 . S
H35 C24 0.952 . S
H36 C26 0.948 . S
C37 C3 1.395 . S
C37 C7 1.391 . S
C38 C0 1.389 . S
C38 C20 1.392 . S
C39 C10 1.392 . S
C39 C12 1.389 1_655 S
C40 C15 1.395 . S
C40 C17 1.391 . S
H41 C1 0.951 . S
H42 C2 0.950 . S
H43 C8 0.949 . S
H44 C9 0.950 . S
H45 C13 0.951 . S
H46 C14 0.950 . S
H47 C18 0.949 . S
H48 C19 0.950 . S
H49 C23 0.950 . S
H50 C25 0.950 . S
H51 C28 0.950 . S
H52 C30 0.950 . S
C53 C54 1.443 1_545 S
C53 N57 1.376 1_545 S
C53 C91 1.389 . S
C54 C53 1.443 1_565 S
C54 C55 1.340 . S
C54 H94 0.951 . S
C55 C54 1.340 . S
C55 C56 1.439 . S
C55 H95 0.950 . S
C56 C55 1.439 . S
C56 N57 1.374 . S
C56 C90 1.395 . S
N57 C53 1.376 1_565 S
N57 C56 1.374 . S
N57 Co58 2.008 1_565 S
Co58 N57 2.008 1_545 S
Co58 N59 1.995 1_545 S
Co58 N64 2.008 . S
Co58 N69 1.995 . S
Co58 N74 2.282 . S
Co58 N80 2.282 . S
N59 Co58 1.995 1_565 S
N59 C60 1.376 . S
N59 C63 1.383 . S
C60 N59 1.376 . S
C60 C61 1.446 . S
C60 C90 1.391 . S
C61 C60 1.446 . S
C61 C62 1.339 . S
C61 H96 0.949 . S
C62 C61 1.339 . S
C62 C63 1.439 . S
C62 H97 0.950 . S
C63 N59 1.383 . S
C63 C62 1.439 . S
C63 C92 1.392 . S
N64 Co58 2.008 . S
N64 C65 1.376 . S
N64 C68 1.374 . S
C65 N64 1.376 . S
C65 C66 1.443 . S
C65 C92 1.389 1_545 S
C66 C65 1.443 . S
C66 C67 1.340 . S
C66 H98 0.951 . S
C67 C66 1.340 . S
C67 C68 1.439 . S
C67 H99 0.950 . S
C68 N64 1.374 . S
C68 C67 1.439 . S
C68 C93 1.395 . S
N69 Co58 1.995 . S
N69 C70 1.376 . S
N69 C73 1.383 . S
C70 N69 1.376 . S
C70 C71 1.446 . S
C70 C93 1.391 . S
C71 C70 1.446 . S
C71 C72 1.339 . S
C71 H100 0.949 . S
C72 C71 1.339 . S
C72 C73 1.439 . S
C72 H101 0.950 . S
C73 N69 1.383 . S
C73 C72 1.439 . S
C73 C91 1.392 . S
N74 Co58 2.282 . S
N74 C77 1.332 . S
N74 C79 1.332 1_545 S
C75 C76 1.386 . S
C75 C78 1.388 1_545 S
C76 C75 1.386 . S
C76 C77 1.382 . S
C76 H102 0.950 . S
C77 N74 1.332 . S
C77 C76 1.382 . S
C77 H88 0.952 . S
C78 C75 1.388 1_565 S
C78 C79 1.382 . S
C78 H103 0.950 . S
C79 N74 1.332 1_565 S
C79 C78 1.382 . S
C79 H89 0.948 . S
N80 Co58 2.282 . S
N80 C84 1.332 1_545 S
N80 C85 1.332 . S
C81 C82 1.388 . S
C81 C85 1.382 . S
C81 H104 0.950 . S
C82 C81 1.388 . S
C82 C83 1.386 1_545 S
C83 C82 1.386 1_565 S
C83 C84 1.382 . S
C83 H105 0.950 . S
C84 N80 1.332 1_565 S
C84 C83 1.382 . S
C84 H86 0.952 . S
C85 N80 1.332 . S
C85 C81 1.382 . S
C85 H87 0.948 . S
H86 C84 0.952 . S
H87 C85 0.948 . S
H88 C77 0.952 . S
H89 C79 0.948 . S
C90 C56 1.395 . S
C90 C60 1.391 . S
C91 C53 1.389 . S
C91 C73 1.392 . S
C92 C63 1.392 . S
C92 C65 1.389 1_565 S
C93 C68 1.395 . S
C93 C70 1.391 . S
H94 C54 0.951 . S
H95 C55 0.950 . S
H96 C61 0.949 . S
H97 C62 0.950 . S
H98 C66 0.951 . S
H99 C67 0.950 . S
H100 C71 0.949 . S
H101 C72 0.950 . S
H102 C76 0.950 . S
H103 C78 0.950 . S
H104 C81 0.950 . S
H105 C83 0.950 . S
C106 C107 1.443 . S
C106 N110 1.376 . S
C106 C144 1.389 . S
C107 C106 1.443 . S
C107 C108 1.340 . S
C107 H147 0.951 . S
C108 C107 1.340 . S
C108 C109 1.439 . S
C108 H148 0.950 . S
C109 C108 1.439 . S
C109 N110 1.374 . S
C109 C143 1.395 . S
N110 C106 1.376 . S
N110 C109 1.374 . S
N110 Co111 2.008 . S
Co111 N110 2.008 . S
Co111 N112 1.995 . S
Co111 N117 2.008 . S
Co111 N122 1.995 . S
Co111 N127 2.282 . S
Co111 N133 2.282 . S
N112 Co111 1.995 . S
N112 C113 1.376 . S
N112 C116 1.383 . S
C113 N112 1.376 . S
C113 C114 1.446 . S
C113 C143 1.391 . S
C114 C113 1.446 . S
C114 C115 1.339 . S
C114 H149 0.949 . S
C115 C114 1.339 . S
C115 C116 1.439 . S
C115 H150 0.950 . S
C116 N112 1.383 . S
C116 C115 1.439 . S
C116 C145 1.392 . S
N117 Co111 2.008 . S
N117 C118 1.376 . S
N117 C121 1.374 . S
C118 N117 1.376 . S
C118 C119 1.443 . S
C118 C145 1.389 . S
C119 C118 1.443 . S
C119 C120 1.340 . S
C119 H151 0.951 . S
C120 C119 1.340 . S
C120 C121 1.439 . S
C120 H152 0.950 . S
C121 N117 1.374 . S
C121 C120 1.439 . S
C121 C146 1.395 . S
N122 Co111 1.995 . S
N122 C123 1.376 . S
N122 C126 1.383 . S
C123 N122 1.376 . S
C123 C124 1.446 . S
C123 C146 1.391 . S
C124 C123 1.446 . S
C124 C125 1.339 . S
C124 H153 0.949 . S
C125 C124 1.339 . S
C125 C126 1.439 . S
C125 H154 0.950 . S
C126 N122 1.383 . S
C126 C125 1.439 . S
C126 C144 1.392 . S
N127 Co111 2.282 . S
N127 C130 1.332 . S
N127 C132 1.332 . S
C128 C129 1.386 . S
C128 C131 1.388 . S
C129 C128 1.386 . S
C129 C130 1.382 . S
C129 H155 0.950 . S
C130 N127 1.332 . S
C130 C129 1.382 . S
C130 H141 0.952 . S
C131 C128 1.388 . S
C131 C132 1.382 . S
C131 H156 0.950 . S
C132 N127 1.332 . S
C132 C131 1.382 . S
C132 H142 0.948 . S
N133 Co111 2.282 . S
N133 C137 1.332 . S
N133 C138 1.332 . S
C134 C135 1.388 . S
C134 C138 1.382 . S
C134 H157 0.950 . S
C135 C134 1.388 . S
C135 C136 1.386 . S
C136 C135 1.386 . S
C136 C137 1.382 . S
C136 H158 0.950 . S
C137 N133 1.332 . S
C137 C136 1.382 . S
C137 H139 0.952 . S
C138 N133 1.332 . S
C138 C134 1.382 . S
C138 H140 0.948 . S
H139 C137 0.952 . S
H140 C138 0.948 . S
H141 C130 0.952 . S
H142 C132 0.948 . S
C143 C109 1.395 . S
C143 C113 1.391 . S
C144 C106 1.389 . S
C144 C126 1.392 . S
C145 C116 1.392 . S
C145 C118 1.389 . S
C146 C121 1.395 . S
C146 C123 1.391 . S
H147 C107 0.951 . S
H148 C108 0.950 . S
H149 C114 0.949 . S
H150 C115 0.950 . S
H151 C119 0.951 . S
H152 C120 0.950 . S
H153 C124 0.949 . S
H154 C125 0.950 . S
H155 C129 0.950 . S
H156 C131 0.950 . S
H157 C134 0.950 . S
H158 C136 0.950 . S
C159 C160 1.443 1_655 S
C159 N163 1.376 1_655 S
C159 C197 1.389 . S
C160 C159 1.443 1_455 S
C160 C161 1.340 . S
C160 H200 0.951 . S
C161 C160 1.340 . S
C161 C162 1.439 . S
C161 H201 0.950 . S
C162 C161 1.439 . S
C162 N163 1.374 . S
C162 C196 1.395 . S
N163 C159 1.376 1_455 S
N163 C162 1.374 . S
N163 Co164 2.008 1_455 S
Co164 N163 2.008 1_655 S
Co164 N165 1.995 1_655 S
Co164 N170 2.008 . S
Co164 N175 1.995 . S
Co164 N180 2.282 . S
Co164 N186 2.282 . S
N165 Co164 1.995 1_455 S
N165 C166 1.376 . S
N165 C169 1.383 . S
C166 N165 1.376 . S
C166 C167 1.446 . S
C166 C196 1.391 . S
C167 C166 1.446 . S
C167 C168 1.339 . S
C167 H202 0.949 . S
C168 C167 1.339 . S
C168 C169 1.439 . S
C168 H203 0.950 . S
C169 N165 1.383 . S
C169 C168 1.439 . S
C169 C198 1.392 . S
N170 Co164 2.008 . S
N170 C171 1.376 . S
N170 C174 1.374 . S
C171 N170 1.376 . S
C171 C172 1.443 . S
C171 C198 1.389 1_655 S
C172 C171 1.443 . S
C172 C173 1.340 . S
C172 H204 0.951 . S
C173 C172 1.340 . S
C173 C174 1.439 . S
C173 H205 0.950 . S
C174 N170 1.374 . S
C174 C173 1.439 . S
C174 C199 1.395 . S
N175 Co164 1.995 . S
N175 C176 1.376 . S
N175 C179 1.383 . S
C176 N175 1.376 . S
C176 C177 1.446 . S
C176 C199 1.391 . S
C177 C176 1.446 . S
C177 C178 1.339 . S
C177 H206 0.949 . S
C178 C177 1.339 . S
C178 C179 1.439 . S
C178 H207 0.950 . S
C179 N175 1.383 . S
C179 C178 1.439 . S
C179 C197 1.392 . S
N180 Co164 2.282 . S
N180 C183 1.332 . S
N180 C185 1.332 1_655 S
C181 C182 1.386 . S
C181 C184 1.388 1_655 S
C182 C181 1.386 . S
C182 C183 1.382 . S
C182 H208 0.950 . S
C183 N180 1.332 . S
C183 C182 1.382 . S
C183 H194 0.952 . S
C184 C181 1.388 1_455 S
C184 C185 1.382 . S
C184 H209 0.950 . S
C185 N180 1.332 1_455 S
C185 C184 1.382 . S
C185 H195 0.948 . S
N186 Co164 2.282 . S
N186 C190 1.332 1_655 S
N186 C191 1.332 . S
C187 C188 1.388 . S
C187 C191 1.382 . S
C187 H210 0.950 . S
C188 C187 1.388 . S
C188 C189 1.386 1_655 S
C189 C188 1.386 1_455 S
C189 C190 1.382 . S
C189 H211 0.950 . S
C190 N186 1.332 1_455 S
C190 C189 1.382 . S
C190 H192 0.952 . S
C191 N186 1.332 . S
C191 C187 1.382 . S
C191 H193 0.948 . S
H192 C190 0.952 . S
H193 C191 0.948 . S
H194 C183 0.952 . S
H195 C185 0.948 . S
C196 C162 1.395 . S
C196 C166 1.391 . S
C197 C159 1.389 . S
C197 C179 1.392 . S
C198 C169 1.392 . S
C198 C171 1.389 1_455 S
C199 C174 1.395 . S
C199 C176 1.391 . S
H200 C160 0.951 . S
H201 C161 0.950 . S
H202 C167 0.949 . S
H203 C168 0.950 . S
H204 C172 0.951 . S
H205 C173 0.950 . S
H206 C177 0.949 . S
H207 C178 0.950 . S
H208 C182 0.950 . S
H209 C184 0.950 . S
H210 C187 0.950 . S
H211 C189 0.950 . S
C212 C213 1.443 1_565 S
C212 N216 1.376 1_565 S
C212 C250 1.389 . S
C213 C212 1.443 1_545 S
C213 C214 1.340 . S
C213 H253 0.951 . S
C214 C213 1.340 . S
C214 C215 1.439 . S
C214 H254 0.950 . S
C215 C214 1.439 . S
C215 N216 1.374 . S
C215 C249 1.395 . S
N216 C212 1.376 1_545 S
N216 C215 1.374 . S
N216 Co217 2.008 1_545 S
Co217 N216 2.008 1_565 S
Co217 N218 1.995 1_565 S
Co217 N223 2.008 . S
Co217 N228 1.995 . S
Co217 N233 2.282 . S
Co217 N239 2.282 . S
N218 Co217 1.995 1_545 S
N218 C219 1.376 . S
N218 C222 1.383 . S
C219 N218 1.376 . S
C219 C220 1.446 . S
C219 C249 1.391 . S
C220 C219 1.446 . S
C220 C221 1.339 . S
C220 H255 0.949 . S
C221 C220 1.339 . S
C221 C222 1.439 . S
C221 H256 0.950 . S
C222 N218 1.383 . S
C222 C221 1.439 . S
C222 C251 1.392 . S
N223 Co217 2.008 . S
N223 C224 1.376 . S
N223 C227 1.374 . S
C224 N223 1.376 . S
C224 C225 1.443 . S
C224 C251 1.389 1_565 S
C225 C224 1.443 . S
C225 C226 1.340 . S
C225 H257 0.951 . S
C226 C225 1.340 . S
C226 C227 1.439 . S
C226 H258 0.950 . S
C227 N223 1.374 . S
C227 C226 1.439 . S
C227 C252 1.395 . S
N228 Co217 1.995 . S
N228 C229 1.376 . S
N228 C232 1.383 . S
C229 N228 1.376 . S
C229 C230 1.446 . S
C229 C252 1.391 . S
C230 C229 1.446 . S
C230 C231 1.339 . S
C230 H259 0.949 . S
C231 C230 1.339 . S
C231 C232 1.439 . S
C231 H260 0.950 . S
C232 N228 1.383 . S
C232 C231 1.439 . S
C232 C250 1.392 . S
N233 Co217 2.282 . S
N233 C236 1.332 . S
N233 C238 1.332 1_565 S
C234 C235 1.386 . S
C234 C237 1.388 1_565 S
C235 C234 1.386 . S
C235 C236 1.382 . S
C235 H261 0.950 . S
C236 N233 1.332 . S
C236 C235 1.382 . S
C236 H247 0.952 . S
C237 C234 1.388 1_545 S
C237 C238 1.382 . S
C237 H262 0.950 . S
C238 N233 1.332 1_545 S
C238 C237 1.382 . S
C238 H248 0.948 . S
N239 Co217 2.282 . S
N239 C243 1.332 1_565 S
N239 C244 1.332 . S
C240 C241 1.388 . S
C240 C244 1.382 . S
C240 H263 0.950 . S
C241 C240 1.388 . S
C241 C242 1.386 1_565 S
C242 C241 1.386 1_545 S
C242 C243 1.382 . S
C242 H264 0.950 . S
C243 N239 1.332 1_545 S
C243 C242 1.382 . S
C243 H245 0.952 . S
C244 N239 1.332 . S
C244 C240 1.382 . S
C244 H246 0.948 . S
H245 C243 0.952 . S
H246 C244 0.948 . S
H247 C236 0.952 . S
H248 C238 0.948 . S
C249 C215 1.395 . S
C249 C219 1.391 . S
C250 C212 1.389 . S
C250 C232 1.392 . S
C251 C222 1.392 . S
C251 C224 1.389 1_545 S
C252 C227 1.395 . S
C252 C229 1.391 . S
H253 C213 0.951 . S
H254 C214 0.950 . S
H255 C220 0.949 . S
H256 C221 0.950 . S
H257 C225 0.951 . S
H258 C226 0.950 . S
H259 C230 0.949 . S
H260 C231 0.950 . S
H261 C235 0.950 . S
H262 C237 0.950 . S
H263 C240 0.950 . S
H264 C242 0.950 . S
C265 C266 1.443 . S
C265 N269 1.376 . S
C265 C303 1.389 . S
C266 C265 1.443 . S
C266 C267 1.340 . S
C266 H306 0.951 . S
C267 C266 1.340 . S
C267 C268 1.439 . S
C267 H307 0.950 . S
C268 C267 1.439 . S
C268 N269 1.374 . S
C268 C302 1.395 . S
N269 C265 1.376 . S
N269 C268 1.374 . S
N269 Co270 2.008 . S
Co270 N269 2.008 . S
Co270 N271 1.995 . S
Co270 N276 2.008 . S
Co270 N281 1.995 . S
Co270 N286 2.282 . S
Co270 N292 2.282 . S
N271 Co270 1.995 . S
N271 C272 1.376 . S
N271 C275 1.383 . S
C272 N271 1.376 . S
C272 C273 1.446 . S
C272 C302 1.391 . S
C273 C272 1.446 . S
C273 C274 1.339 . S
C273 H308 0.949 . S
C274 C273 1.339 . S
C274 C275 1.439 . S
C274 H309 0.950 . S
C275 N271 1.383 . S
C275 C274 1.439 . S
C275 C304 1.392 . S
N276 Co270 2.008 . S
N276 C277 1.376 . S
N276 C280 1.374 . S
C277 N276 1.376 . S
C277 C278 1.443 . S
C277 C304 1.389 . S
C278 C277 1.443 . S
C278 C279 1.340 . S
C278 H310 0.951 . S
C279 C278 1.340 . S
C279 C280 1.439 . S
C279 H311 0.950 . S
C280 N276 1.374 . S
C280 C279 1.439 . S
C280 C305 1.395 . S
N281 Co270 1.995 . S
N281 C282 1.376 . S
N281 C285 1.383 . S
C282 N281 1.376 . S
C282 C283 1.446 . S
C282 C305 1.391 . S
C283 C282 1.446 . S
C283 C284 1.339 . S
C283 H312 0.949 . S
C284 C283 1.339 . S
C284 C285 1.439 . S
C284 H313 0.950 . S
C285 N281 1.383 . S
C285 C284 1.439 . S
C285 C303 1.392 . S
N286 Co270 2.282 . S
N286 C289 1.332 . S
N286 C291 1.332 . S
C287 C288 1.386 . S
C287 C290 1.388 . S
C288 C287 1.386 . S
C288 C289 1.382 . S
C288 H314 0.950 . S
C289 N286 1.332 . S
C289 C288 1.382 . S
C289 H300 0.952 . S
C290 C287 1.388 . S
C290 C291 1.382 . S
C290 H315 0.950 . S
C291 N286 1.332 . S
C291 C290 1.382 . S
C291 H301 0.948 . S
N292 Co270 2.282 . S
N292 C296 1.332 . S
N292 C297 1.332 . S
C293 C294 1.388 . S
C293 C297 1.382 . S
C293 H316 0.950 . S
C294 C293 1.388 . S
C294 C295 1.386 . S
C295 C294 1.386 . S
C295 C296 1.382 . S
C295 H317 0.950 . S
C296 N292 1.332 . S
C296 C295 1.382 . S
C296 H298 0.952 . S
C297 N292 1.332 . S
C297 C293 1.382 . S
C297 H299 0.948 . S
H298 C296 0.952 . S
H299 C297 0.948 . S
H300 C289 0.952 . S
H301 C291 0.948 . S
C302 C268 1.395 . S
C302 C272 1.391 . S
C303 C265 1.389 . S
C303 C285 1.392 . S
C304 C275 1.392 . S
C304 C277 1.389 . S
C305 C280 1.395 . S
C305 C282 1.391 . S
H306 C266 0.951 . S
H307 C267 0.950 . S
H308 C273 0.949 . S
H309 C274 0.950 . S
H310 C278 0.951 . S
H311 C279 0.950 . S
H312 C283 0.949 . S
H313 C284 0.950 . S
H314 C288 0.950 . S
H315 C290 0.950 . S
H316 C293 0.950 . S
H317 C295 0.950 . S
C318 C319 1.443 1_565 S
C318 N322 1.376 1_565 S
C318 C356 1.389 . S
C319 C318 1.443 1_545 S
C319 C320 1.340 . S
C319 H359 0.951 . S
C320 C319 1.340 . S
C320 C321 1.439 . S
C320 H360 0.950 . S
C321 C320 1.439 . S
C321 N322 1.374 . S
C321 C355 1.395 . S
N322 C318 1.376 1_545 S
N322 C321 1.374 . S
N322 Co323 2.008 1_545 S
Co323 N322 2.008 1_565 S
Co323 N324 1.995 1_565 S
Co323 N329 2.008 . S
Co323 N334 1.995 . S
Co323 N339 2.282 . S
Co323 N345 2.282 . S
N324 Co323 1.995 1_545 S
N324 C325 1.376 . S
N324 C328 1.383 . S
C325 N324 1.376 . S
C325 C326 1.446 . S
C325 C355 1.391 . S
C326 C325 1.446 . S
C326 C327 1.339 . S
C326 H361 0.949 . S
C327 C326 1.339 . S
C327 C328 1.439 . S
C327 H362 0.950 . S
C328 N324 1.383 . S
C328 C327 1.439 . S
C328 C357 1.392 . S
N329 Co323 2.008 . S
N329 C330 1.376 . S
N329 C333 1.374 . S
C330 N329 1.376 . S
C330 C331 1.443 . S
C330 C357 1.389 1_565 S
C331 C330 1.443 . S
C331 C332 1.340 . S
C331 H363 0.951 . S
C332 C331 1.340 . S
C332 C333 1.439 . S
C332 H364 0.950 . S
C333 N329 1.374 . S
C333 C332 1.439 . S
C333 C358 1.395 . S
N334 Co323 1.995 . S
N334 C335 1.376 . S
N334 C338 1.383 . S
C335 N334 1.376 . S
C335 C336 1.446 . S
C335 C358 1.391 . S
C336 C335 1.446 . S
C336 C337 1.339 . S
C336 H365 0.949 . S
C337 C336 1.339 . S
C337 C338 1.439 . S
C337 H366 0.950 . S
C338 N334 1.383 . S
C338 C337 1.439 . S
C338 C356 1.392 . S
N339 Co323 2.282 . S
N339 C342 1.332 . S
N339 C344 1.332 1_565 S
C340 C341 1.386 . S
C340 C343 1.388 1_565 S
C341 C340 1.386 . S
C341 C342 1.382 . S
C341 H367 0.950 . S
C342 N339 1.332 . S
C342 C341 1.382 . S
C342 H353 0.952 . S
C343 C340 1.388 1_545 S
C343 C344 1.382 . S
C343 H368 0.950 . S
C344 N339 1.332 1_545 S
C344 C343 1.382 . S
C344 H354 0.948 . S
N345 Co323 2.282 . S
N345 C349 1.332 1_565 S
N345 C350 1.332 . S
C346 C347 1.388 . S
C346 C350 1.382 . S
C346 H369 0.950 . S
C347 C346 1.388 . S
C347 C348 1.386 1_565 S
C348 C347 1.386 1_545 S
C348 C349 1.382 . S
C348 H370 0.950 . S
C349 N345 1.332 1_545 S
C349 C348 1.382 . S
C349 H351 0.952 . S
C350 N345 1.332 . S
C350 C346 1.382 . S
C350 H352 0.948 . S
H351 C349 0.952 . S
H352 C350 0.948 . S
H353 C342 0.952 . S
H354 C344 0.948 . S
C355 C321 1.395 . S
C355 C325 1.391 . S
C356 C318 1.389 . S
C356 C338 1.392 . S
C357 C328 1.392 . S
C357 C330 1.389 1_545 S
C358 C333 1.395 . S
C358 C335 1.391 . S
H359 C319 0.951 . S
H360 C320 0.950 . S
H361 C326 0.949 . S
H362 C327 0.950 . S
H363 C331 0.951 . S
H364 C332 0.950 . S
H365 C336 0.949 . S
H366 C337 0.950 . S
H367 C341 0.950 . S
H368 C343 0.950 . S
H369 C346 0.950 . S
H370 C348 0.950 . S
C371 C372 1.443 . S
C371 N375 1.376 . S
C371 C409 1.389 . S
C372 C371 1.443 . S
C372 C373 1.340 . S
C372 H412 0.951 . S
C373 C372 1.340 . S
C373 C374 1.439 . S
C373 H413 0.950 . S
C374 C373 1.439 . S
C374 N375 1.374 . S
C374 C408 1.395 . S
N375 C371 1.376 . S
N375 C374 1.374 . S
N375 Co376 2.008 . S
Co376 N375 2.008 . S
Co376 N377 1.995 . S
Co376 N382 2.008 . S
Co376 N387 1.995 . S
Co376 N392 2.282 . S
Co376 N398 2.282 . S
N377 Co376 1.995 . S
N377 C378 1.376 . S
N377 C381 1.383 . S
C378 N377 1.376 . S
C378 C379 1.446 . S
C378 C408 1.391 . S
C379 C378 1.446 . S
C379 C380 1.339 . S
C379 H414 0.949 . S
C380 C379 1.339 . S
C380 C381 1.439 . S
C380 H415 0.950 . S
C381 N377 1.383 . S
C381 C380 1.439 . S
C381 C410 1.392 . S
N382 Co376 2.008 . S
N382 C383 1.376 . S
N382 C386 1.374 . S
C383 N382 1.376 . S
C383 C384 1.443 . S
C383 C410 1.389 . S
C384 C383 1.443 . S
C384 C385 1.340 . S
C384 H416 0.951 . S
C385 C384 1.340 . S
C385 C386 1.439 . S
C385 H417 0.950 . S
C386 N382 1.374 . S
C386 C385 1.439 . S
C386 C411 1.395 . S
N387 Co376 1.995 . S
N387 C388 1.376 . S
N387 C391 1.383 . S
C388 N387 1.376 . S
C388 C389 1.446 . S
C388 C411 1.391 . S
C389 C388 1.446 . S
C389 C390 1.339 . S
C389 H418 0.949 . S
C390 C389 1.339 . S
C390 C391 1.439 . S
C390 H419 0.950 . S
C391 N387 1.383 . S
C391 C390 1.439 . S
C391 C409 1.392 . S
N392 Co376 2.282 . S
N392 C395 1.332 . S
N392 C397 1.332 . S
C393 C394 1.386 . S
C393 C396 1.388 . S
C394 C393 1.386 . S
C394 C395 1.382 . S
C394 H420 0.950 . S
C395 N392 1.332 . S
C395 C394 1.382 . S
C395 H406 0.952 . S
C396 C393 1.388 . S
C396 C397 1.382 . S
C396 H421 0.950 . S
C397 N392 1.332 . S
C397 C396 1.382 . S
C397 H407 0.948 . S
N398 Co376 2.282 . S
N398 C402 1.332 . S
N398 C403 1.332 . S
C399 C400 1.388 . S
C399 C403 1.382 . S
C399 H422 0.950 . S
C400 C399 1.388 . S
C400 C401 1.386 . S
C401 C400 1.386 . S
C401 C402 1.382 . S
C401 H423 0.950 . S
C402 N398 1.332 . S
C402 C401 1.382 . S
C402 H404 0.952 . S
C403 N398 1.332 . S
C403 C399 1.382 . S
C403 H405 0.948 . S
H404 C402 0.952 . S
H405 C403 0.948 . S
H406 C395 0.952 . S
H407 C397 0.948 . S
C408 C374 1.395 . S
C408 C378 1.391 . S
C409 C371 1.389 . S
C409 C391 1.392 . S
C410 C381 1.392 . S
C410 C383 1.389 . S
C411 C386 1.395 . S
C411 C388 1.391 . S
H412 C372 0.951 . S
H413 C373 0.950 . S
H414 C379 0.949 . S
H415 C380 0.950 . S
H416 C384 0.951 . S
H417 C385 0.950 . S
H418 C389 0.949 . S
H419 C390 0.950 . S
H420 C394 0.950 . S
H421 C396 0.950 . S
H422 C399 0.950 . S
H423 C401 0.950 . S
C424 C425 1.443 1_455 S
C424 N428 1.376 1_455 S
C424 C462 1.389 . S
C425 C424 1.443 1_655 S
C425 C426 1.340 . S
C425 H465 0.951 . S
C426 C425 1.340 . S
C426 C427 1.439 . S
C426 H466 0.950 . S
C427 C426 1.439 . S
C427 N428 1.374 . S
C427 C461 1.395 . S
N428 C424 1.376 1_655 S
N428 C427 1.374 . S
N428 Co429 2.008 1_655 S
Co429 N428 2.008 1_455 S
Co429 N430 1.995 1_455 S
Co429 N435 2.008 . S
Co429 N440 1.995 . S
Co429 N445 2.282 . S
Co429 N451 2.282 . S
N430 Co429 1.995 1_655 S
N430 C431 1.376 . S
N430 C434 1.383 . S
C431 N430 1.376 . S
C431 C432 1.446 . S
C431 C461 1.391 . S
C432 C431 1.446 . S
C432 C433 1.339 . S
C432 H467 0.949 . S
C433 C432 1.339 . S
C433 C434 1.439 . S
C433 H468 0.950 . S
C434 N430 1.383 . S
C434 C433 1.439 . S
C434 C463 1.392 . S
N435 Co429 2.008 . S
N435 C436 1.376 . S
N435 C439 1.374 . S
C436 N435 1.376 . S
C436 C437 1.443 . S
C436 C463 1.389 1_455 S
C437 C436 1.443 . S
C437 C438 1.340 . S
C437 H469 0.951 . S
C438 C437 1.340 . S
C438 C439 1.439 . S
C438 H470 0.950 . S
C439 N435 1.374 . S
C439 C438 1.439 . S
C439 C464 1.395 . S
N440 Co429 1.995 . S
N440 C441 1.376 . S
N440 C444 1.383 . S
C441 N440 1.376 . S
C441 C442 1.446 . S
C441 C464 1.391 . S
C442 C441 1.446 . S
C442 C443 1.339 . S
C442 H471 0.949 . S
C443 C442 1.339 . S
C443 C444 1.439 . S
C443 H472 0.950 . S
C444 N440 1.383 . S
C444 C443 1.439 . S
C444 C462 1.392 . S
N445 Co429 2.282 . S
N445 C448 1.332 . S
N445 C450 1.332 1_455 S
C446 C447 1.386 . S
C446 C449 1.388 1_455 S
C447 C446 1.386 . S
C447 C448 1.382 . S
C447 H473 0.950 . S
C448 N445 1.332 . S
C448 C447 1.382 . S
C448 H459 0.952 . S
C449 C446 1.388 1_655 S
C449 C450 1.382 . S
C449 H474 0.950 . S
C450 N445 1.332 1_655 S
C450 C449 1.382 . S
C450 H460 0.948 . S
N451 Co429 2.282 . S
N451 C455 1.332 1_455 S
N451 C456 1.332 . S
C452 C453 1.388 . S
C452 C456 1.382 . S
C452 H475 0.950 . S
C453 C452 1.388 . S
C453 C454 1.386 1_455 S
C454 C453 1.386 1_655 S
C454 C455 1.382 . S
C454 H476 0.950 . S
C455 N451 1.332 1_655 S
C455 C454 1.382 . S
C455 H457 0.952 . S
C456 N451 1.332 . S
C456 C452 1.382 . S
C456 H458 0.948 . S
H457 C455 0.952 . S
H458 C456 0.948 . S
H459 C448 0.952 . S
H460 C450 0.948 . S
C461 C427 1.395 . S
C461 C431 1.391 . S
C462 C424 1.389 . S
C462 C444 1.392 . S
C463 C434 1.392 . S
C463 C436 1.389 1_655 S
C464 C439 1.395 . S
C464 C441 1.391 . S
H465 C425 0.951 . S
H466 C426 0.950 . S
H467 C432 0.949 . S
H468 C433 0.950 . S
H469 C437 0.951 . S
H470 C438 0.950 . S
H471 C442 0.949 . S
H472 C443 0.950 . S
H473 C447 0.950 . S
H474 C449 0.950 . S
H475 C452 0.950 . S
H476 C454 0.950 . S
C477 C478 1.443 1_545 S
C477 N481 1.376 1_545 S
C477 C515 1.389 . S
C478 C477 1.443 1_565 S
C478 C479 1.340 . S
C478 H518 0.951 . S
C479 C478 1.340 . S
C479 C480 1.439 . S
C479 H519 0.950 . S
C480 C479 1.439 . S
C480 N481 1.374 . S
C480 C514 1.395 . S
N481 C477 1.376 1_565 S
N481 C480 1.374 . S
N481 Co482 2.008 1_565 S
Co482 N481 2.008 1_545 S
Co482 N483 1.995 1_545 S
Co482 N488 2.008 . S
Co482 N493 1.995 . S
Co482 N498 2.282 . S
Co482 N504 2.282 . S
N483 Co482 1.995 1_565 S
N483 C484 1.376 . S
N483 C487 1.383 . S
C484 N483 1.376 . S
C484 C485 1.446 . S
C484 C514 1.391 . S
C485 C484 1.446 . S
C485 C486 1.339 . S
C485 H520 0.949 . S
C486 C485 1.339 . S
C486 C487 1.439 . S
C486 H521 0.950 . S
C487 N483 1.383 . S
C487 C486 1.439 . S
C487 C516 1.392 . S
N488 Co482 2.008 . S
N488 C489 1.376 . S
N488 C492 1.374 . S
C489 N488 1.376 . S
C489 C490 1.443 . S
C489 C516 1.389 1_545 S
C490 C489 1.443 . S
C490 C491 1.340 . S
C490 H522 0.951 . S
C491 C490 1.340 . S
C491 C492 1.439 . S
C491 H523 0.950 . S
C492 N488 1.374 . S
C492 C491 1.439 . S
C492 C517 1.395 . S
N493 Co482 1.995 . S
N493 C494 1.376 . S
N493 C497 1.383 . S
C494 N493 1.376 . S
C494 C495 1.446 . S
C494 C517 1.391 . S
C495 C494 1.446 . S
C495 C496 1.339 . S
C495 H524 0.949 . S
C496 C495 1.339 . S
C496 C497 1.439 . S
C496 H525 0.950 . S
C497 N493 1.383 . S
C497 C496 1.439 . S
C497 C515 1.392 . S
N498 Co482 2.282 . S
N498 C501 1.332 . S
N498 C503 1.332 1_545 S
C499 C500 1.386 . S
C499 C502 1.388 1_545 S
C500 C499 1.386 . S
C500 C501 1.382 . S
C500 H526 0.950 . S
C501 N498 1.332 . S
C501 C500 1.382 . S
C501 H512 0.952 . S
C502 C499 1.388 1_565 S
C502 C503 1.382 . S
C502 H527 0.950 . S
C503 N498 1.332 1_565 S
C503 C502 1.382 . S
C503 H513 0.948 . S
N504 Co482 2.282 . S
N504 C508 1.332 1_545 S
N504 C509 1.332 . S
C505 C506 1.388 . S
C505 C509 1.382 . S
C505 H528 0.950 . S
C506 C505 1.388 . S
C506 C507 1.386 1_545 S
C507 C506 1.386 1_565 S
C507 C508 1.382 . S
C507 H529 0.950 . S
C508 N504 1.332 1_565 S
C508 C507 1.382 . S
C508 H510 0.952 . S
C509 N504 1.332 . S
C509 C505 1.382 . S
C509 H511 0.948 . S
H510 C508 0.952 . S
H511 C509 0.948 . S
H512 C501 0.952 . S
H513 C503 0.948 . S
C514 C480 1.395 . S
C514 C484 1.391 . S
C515 C477 1.389 . S
C515 C497 1.392 . S
C516 C487 1.392 . S
C516 C489 1.389 1_565 S
C517 C492 1.395 . S
C517 C494 1.391 . S
H518 C478 0.951 . S
H519 C479 0.950 . S
H520 C485 0.949 . S
H521 C486 0.950 . S
H522 C490 0.951 . S
H523 C491 0.950 . S
H524 C495 0.949 . S
H525 C496 0.950 . S
H526 C500 0.950 . S
H527 C502 0.950 . S
H528 C505 0.950 . S
H529 C507 0.950 . S
C530 C531 1.443 . S
C530 N534 1.376 . S
C530 C568 1.389 . S
C531 C530 1.443 . S
C531 C532 1.340 . S
C531 H571 0.951 . S
C532 C531 1.340 . S
C532 C533 1.439 . S
C532 H572 0.950 . S
C533 C532 1.439 . S
C533 N534 1.374 . S
C533 C567 1.395 . S
N534 C530 1.376 . S
N534 C533 1.374 . S
N534 Co535 2.008 . S
Co535 N534 2.008 . S
Co535 N536 1.995 . S
Co535 N541 2.008 . S
Co535 N546 1.995 . S
Co535 N551 2.282 . S
Co535 N557 2.282 . S
N536 Co535 1.995 . S
N536 C537 1.376 . S
N536 C540 1.383 . S
C537 N536 1.376 . S
C537 C538 1.446 . S
C537 C567 1.391 . S
C538 C537 1.446 . S
C538 C539 1.339 . S
C538 H573 0.949 . S
C539 C538 1.339 . S
C539 C540 1.439 . S
C539 H574 0.950 . S
C540 N536 1.383 . S
C540 C539 1.439 . S
C540 C569 1.392 . S
N541 Co535 2.008 . S
N541 C542 1.376 . S
N541 C545 1.374 . S
C542 N541 1.376 . S
C542 C543 1.443 . S
C542 C569 1.389 . S
C543 C542 1.443 . S
C543 C544 1.340 . S
C543 H575 0.951 . S
C544 C543 1.340 . S
C544 C545 1.439 . S
C544 H576 0.950 . S
C545 N541 1.374 . S
C545 C544 1.439 . S
C545 C570 1.395 . S
N546 Co535 1.995 . S
N546 C547 1.376 . S
N546 C550 1.383 . S
C547 N546 1.376 . S
C547 C548 1.446 . S
C547 C570 1.391 . S
C548 C547 1.446 . S
C548 C549 1.339 . S
C548 H577 0.949 . S
C549 C548 1.339 . S
C549 C550 1.439 . S
C549 H578 0.950 . S
C550 N546 1.383 . S
C550 C549 1.439 . S
C550 C568 1.392 . S
N551 Co535 2.282 . S
N551 C554 1.332 . S
N551 C556 1.332 . S
C552 C553 1.386 . S
C552 C555 1.388 . S
C553 C552 1.386 . S
C553 C554 1.382 . S
C553 H579 0.950 . S
C554 N551 1.332 . S
C554 C553 1.382 . S
C554 H565 0.952 . S
C555 C552 1.388 . S
C555 C556 1.382 . S
C555 H580 0.950 . S
C556 N551 1.332 . S
C556 C555 1.382 . S
C556 H566 0.948 . S
N557 Co535 2.282 . S
N557 C561 1.332 . S
N557 C562 1.332 . S
C558 C559 1.388 . S
C558 C562 1.382 . S
C558 H581 0.950 . S
C559 C558 1.388 . S
C559 C560 1.386 . S
C560 C559 1.386 . S
C560 C561 1.382 . S
C560 H582 0.950 . S
C561 N557 1.332 . S
C561 C560 1.382 . S
C561 H563 0.952 . S
C562 N557 1.332 . S
C562 C558 1.382 . S
C562 H564 0.948 . S
H563 C561 0.952 . S
H564 C562 0.948 . S
H565 C554 0.952 . S
H566 C556 0.948 . S
C567 C533 1.395 . S
C567 C537 1.391 . S
C568 C530 1.389 . S
C568 C550 1.392 . S
C569 C540 1.392 . S
C569 C542 1.389 . S
C570 C545 1.395 . S
C570 C547 1.391 . S
H571 C531 0.951 . S
H572 C532 0.950 . S
H573 C538 0.949 . S
H574 C539 0.950 . S
H575 C543 0.951 . S
H576 C544 0.950 . S
H577 C548 0.949 . S
H578 C549 0.950 . S
H579 C553 0.950 . S
H580 C555 0.950 . S
H581 C558 0.950 . S
H582 C560 0.950 . S
C583 C584 1.443 1_655 S
C583 N587 1.376 1_655 S
C583 C621 1.389 . S
C584 C583 1.443 1_455 S
C584 C585 1.340 . S
C584 H624 0.951 . S
C585 C584 1.340 . S
C585 C586 1.439 . S
C585 H625 0.950 . S
C586 C585 1.439 . S
C586 N587 1.374 . S
C586 C620 1.395 . S
N587 C583 1.376 1_455 S
N587 C586 1.374 . S
N587 Co588 2.008 1_455 S
Co588 N587 2.008 1_655 S
Co588 N589 1.995 1_655 S
Co588 N594 2.008 . S
Co588 N599 1.995 . S
Co588 N604 2.282 . S
Co588 N610 2.282 . S
N589 Co588 1.995 1_455 S
N589 C590 1.376 . S
N589 C593 1.383 . S
C590 N589 1.376 . S
C590 C591 1.446 . S
C590 C620 1.391 . S
C591 C590 1.446 . S
C591 C592 1.339 . S
C591 H626 0.949 . S
C592 C591 1.339 . S
C592 C593 1.439 . S
C592 H627 0.950 . S
C593 N589 1.383 . S
C593 C592 1.439 . S
C593 C622 1.392 . S
N594 Co588 2.008 . S
N594 C595 1.376 . S
N594 C598 1.374 . S
C595 N594 1.376 . S
C595 C596 1.443 . S
C595 C622 1.389 1_655 S
C596 C595 1.443 . S
C596 C597 1.340 . S
C596 H628 0.951 . S
C597 C596 1.340 . S
C597 C598 1.439 . S
C597 H629 0.950 . S
C598 N594 1.374 . S
C598 C597 1.439 . S
C598 C623 1.395 . S
N599 Co588 1.995 . S
N599 C600 1.376 . S
N599 C603 1.383 . S
C600 N599 1.376 . S
C600 C601 1.446 . S
C600 C623 1.391 . S
C601 C600 1.446 . S
C601 C602 1.339 . S
C601 H630 0.949 . S
C602 C601 1.339 . S
C602 C603 1.439 . S
C602 H631 0.950 . S
C603 N599 1.383 . S
C603 C602 1.439 . S
C603 C621 1.392 . S
N604 Co588 2.282 . S
N604 C607 1.332 . S
N604 C609 1.332 1_655 S
C605 C606 1.386 . S
C605 C608 1.388 1_655 S
C606 C605 1.386 . S
C606 C607 1.382 . S
C606 H632 0.950 . S
C607 N604 1.332 . S
C607 C606 1.382 . S
C607 H618 0.952 . S
C608 C605 1.388 1_455 S
C608 C609 1.382 . S
C608 H633 0.950 . S
C609 N604 1.332 1_455 S
C609 C608 1.382 . S
C609 H619 0.948 . S
N610 Co588 2.282 . S
N610 C614 1.332 1_655 S
N610 C615 1.332 . S
C611 C612 1.388 . S
C611 C615 1.382 . S
C611 H634 0.950 . S
C612 C611 1.388 . S
C612 C613 1.386 1_655 S
C613 C612 1.386 1_455 S
C613 C614 1.382 . S
C613 H635 0.950 . S
C614 N610 1.332 1_455 S
C614 C613 1.382 . S
C614 H616 0.952 . S
C615 N610 1.332 . S
C615 C611 1.382 . S
C615 H617 0.948 . S
H616 C614 0.952 . S
H617 C615 0.948 . S
H618 C607 0.952 . S
H619 C609 0.948 . S
C620 C586 1.395 . S
C620 C590 1.391 . S
C621 C583 1.389 . S
C621 C603 1.392 . S
C622 C593 1.392 . S
C622 C595 1.389 1_455 S
C623 C598 1.395 . S
C623 C600 1.391 . S
H624 C584 0.951 . S
H625 C585 0.950 . S
H626 C591 0.949 . S
H627 C592 0.950 . S
H628 C596 0.951 . S
H629 C597 0.950 . S
H630 C601 0.949 . S
H631 C602 0.950 . S
H632 C606 0.950 . S
H633 C608 0.950 . S
H634 C611 0.950 . S
H635 C613 0.950 . S
H636 C654 0.951 . S
H637 C656 0.951 . S
H638 C658 0.950 . S
H639 C659 0.950 . S
H640 C661 0.950 . S
H641 C664 0.950 . S
H642 C665 0.950 . S
H643 C667 0.950 . S
H644 C668 0.950 . S
H645 C669 0.951 . S
H646 C671 0.951 . S
H647 C673 0.950 . S
H648 C674 0.950 . S
H649 C676 0.950 . S
H650 C679 0.950 . S
H651 C680 0.950 . S
H652 C682 0.950 . S
H653 C683 0.950 . S
C654 H636 0.951 . S
C654 C655 1.366 1_655 S
C654 C656 1.388 . S
C655 C654 1.366 1_455 S
C655 C659 1.385 . S
C656 H637 0.951 . S
C656 C654 1.388 . S
C656 C657 1.366 1_655 S
C657 C656 1.366 1_455 S
C657 C658 1.414 . S
C657 C660 1.499 . S
C658 H638 0.950 . S
C658 C657 1.414 . S
C658 C659 1.374 . S
C659 H639 0.950 . S
C659 C655 1.385 . S
C659 C658 1.374 . S
C660 C657 1.499 . S
C660 C661 1.373 . S
C660 C662 1.389 . S
C661 H640 0.950 . S
C661 C660 1.373 . S
C661 C677 1.377 1_455 S
C662 C660 1.389 . S
C662 C663 1.524 . S
C662 C676 1.377 1_455 S
C663 C662 1.524 . S
C663 C664 1.397 . S
C663 C668 1.363 1_455 S
C664 H641 0.950 . S
C664 C663 1.397 . S
C664 C665 1.334 . S
C665 H642 0.950 . S
C665 C664 1.334 . S
C665 C666 1.287 . S
C666 C665 1.287 . S
C666 C667 1.524 1_455 S
C666 H685 0.913 . S
C667 H643 0.950 . S
C667 C666 1.524 1_655 S
C667 C668 1.415 . S
C668 H644 0.950 . S
C668 C663 1.363 1_655 S
C668 C667 1.415 . S
C669 H645 0.951 . S
C669 C670 1.366 1_455 S
C669 C671 1.388 . S
C670 C669 1.366 1_655 S
C670 C674 1.385 . S
C671 H646 0.951 . S
C671 C669 1.388 . S
C671 C672 1.366 1_455 S
C672 C671 1.366 1_655 S
C672 C673 1.414 . S
C672 C675 1.499 . S
C673 H647 0.950 . S
C673 C672 1.414 . S
C673 C674 1.374 . S
C674 H648 0.950 . S
C674 C670 1.385 . S
C674 C673 1.374 . S
C675 C672 1.499 . S
C675 C676 1.373 . S
C675 C677 1.389 . S
C676 H649 0.950 . S
C676 C662 1.377 1_655 S
C676 C675 1.373 . S
C677 C661 1.377 1_655 S
C677 C675 1.389 . S
C677 C678 1.524 . S
C678 C677 1.524 . S
C678 C679 1.397 . S
C678 C683 1.363 1_655 S
C679 H650 0.950 . S
C679 C678 1.397 . S
C679 C680 1.334 . S
C680 H651 0.950 . S
C680 C679 1.334 . S
C680 C681 1.287 . S
C681 C680 1.287 . S
C681 C682 1.524 1_655 S
C681 H684 0.999 . S
C682 H652 0.950 . S
C682 C681 1.524 1_455 S
C682 C683 1.415 . S
C683 H653 0.950 . S
C683 C678 1.363 1_455 S
C683 C682 1.415 . S
H684 C681 0.999 . S
H685 C666 0.913 . S
H686 C704 0.951 . S
H687 C706 0.951 . S
H688 C708 0.963 . S
H689 C709 0.932 1_545 S
H690 C711 0.950 . S
H691 C714 0.950 . S
H692 C715 0.950 . S
H693 C717 0.950 . S
H694 C718 0.950 . S
H695 C719 0.951 . S
H696 C721 0.951 . S
H697 C723 0.957 . S
H698 C724 0.927 1_565 S
H699 C726 0.950 . S
H700 C729 0.950 . S
H701 C730 0.950 . S
H702 C732 0.950 . S
H703 C733 0.950 . S
C704 H686 0.951 . S
C704 C705 1.366 . S
C704 C706 1.388 . S
C705 C704 1.366 . S
C705 C709 1.404 . S
C706 H687 0.951 . S
C706 C704 1.388 . S
C706 C707 1.366 . S
C707 C706 1.366 . S
C707 C708 1.402 1_565 S
C707 C710 1.499 . S
C708 H688 0.963 . S
C708 C707 1.402 1_545 S
C708 C709 1.373 1_545 S
C709 H689 0.932 1_565 S
C709 C705 1.404 . S
C709 C708 1.373 1_565 S
C710 C707 1.499 . S
C710 C711 1.373 1_565 S
C710 C712 1.389 . S
C711 H690 0.950 . S
C711 C710 1.373 1_545 S
C711 C727 1.377 . S
C712 C710 1.389 . S
C712 C713 1.524 . S
C712 C726 1.377 . S
C713 C712 1.524 . S
C713 C714 1.397 . S
C713 C718 1.363 . S
C714 H691 0.950 . S
C714 C713 1.397 . S
C714 C715 1.334 . S
C715 H692 0.950 . S
C715 C714 1.334 . S
C715 C716 1.287 . S
C716 C715 1.287 . S
C716 C717 1.524 . S
C716 H735 0.913 . S
C717 H693 0.950 . S
C717 C716 1.524 . S
C717 C718 1.415 . S
C718 H694 0.950 . S
C718 C713 1.363 . S
C718 C717 1.415 . S
C719 H695 0.951 . S
C719 C720 1.366 . S
C719 C721 1.388 . S
C720 C719 1.366 . S
C720 C724 1.410 . S
C721 H696 0.951 . S
C721 C719 1.388 . S
C721 C722 1.366 . S
C722 C721 1.366 . S
C722 C723 1.408 1_545 S
C722 C725 1.499 . S
C723 H697 0.957 . S
C723 C722 1.408 1_565 S
C723 C724 1.373 1_565 S
C724 H698 0.927 1_545 S
C724 C720 1.410 . S
C724 C723 1.373 1_545 S
C725 C722 1.499 . S
C725 C726 1.373 1_545 S
C725 C727 1.389 . S
C726 H699 0.950 . S
C726 C712 1.377 . S
C726 C725 1.373 1_565 S
C727 C711 1.377 . S
C727 C725 1.389 . S
C727 C728 1.524 . S
C728 C727 1.524 . S
C728 C729 1.397 . S
C728 C733 1.363 . S
C729 H700 0.950 . S
C729 C728 1.397 . S
C729 C730 1.334 . S
C730 H701 0.950 . S
C730 C729 1.334 . S
C730 C731 1.287 . S
C731 C730 1.287 . S
C731 C732 1.524 . S
C731 H734 0.999 . S
C732 H702 0.950 . S
C732 C731 1.524 . S
C732 C733 1.415 . S
C733 H703 0.950 . S
C733 C728 1.363 . S
C733 C732 1.415 . S
H734 C731 0.999 . S
H735 C716 0.913 . S
H736 C754 0.951 . S
H737 C756 0.951 . S
H738 C758 0.950 . S
H739 C759 0.950 . S
H740 C761 0.950 . S
H741 C764 0.950 . S
H742 C765 0.950 . S
H743 C767 0.950 . S
H744 C768 0.950 . S
H745 C769 0.951 . S
H746 C771 0.951 . S
H747 C773 0.950 . S
H748 C774 0.950 . S
H749 C776 0.950 . S
H750 C779 0.950 . S
H751 C780 0.950 . S
H752 C782 0.950 . S
H753 C783 0.950 . S
C754 H736 0.951 . S
C754 C755 1.366 . S
C754 C756 1.388 . S
C755 C754 1.366 . S
C755 C759 1.385 . S
C756 H737 0.951 . S
C756 C754 1.388 . S
C756 C757 1.366 . S
C757 C756 1.366 . S
C757 C758 1.414 . S
C757 C760 1.499 . S
C758 H738 0.950 . S
C758 C757 1.414 . S
C758 C759 1.374 . S
C759 H739 0.950 . S
C759 C755 1.385 . S
C759 C758 1.374 . S
C760 C757 1.499 . S
C760 C761 1.373 . S
C760 C762 1.389 . S
C761 H740 0.950 . S
C761 C760 1.373 . S
C761 C777 1.377 . S
C762 C760 1.389 . S
C762 C763 1.524 . S
C762 C776 1.377 . S
C763 C762 1.524 . S
C763 C764 1.397 . S
C763 C768 1.363 . S
C764 H741 0.950 . S
C764 C763 1.397 . S
C764 C765 1.334 . S
C765 H742 0.950 . S
C765 C764 1.334 . S
C765 C766 1.287 . S
C766 C765 1.287 . S
C766 C767 1.524 . S
C766 H785 0.913 . S
C767 H743 0.950 . S
C767 C766 1.524 . S
C767 C768 1.415 . S
C768 H744 0.950 . S
C768 C763 1.363 . S
C768 C767 1.415 . S
C769 H745 0.951 . S
C769 C770 1.366 . S
C769 C771 1.388 . S
C770 C769 1.366 . S
C770 C774 1.385 . S
C771 H746 0.951 . S
C771 C769 1.388 . S
C771 C772 1.366 . S
C772 C771 1.366 . S
C772 C773 1.414 . S
C772 C775 1.499 . S
C773 H747 0.950 . S
C773 C772 1.414 . S
C773 C774 1.374 . S
C774 H748 0.950 . S
C774 C770 1.385 . S
C774 C773 1.374 . S
C775 C772 1.499 . S
C775 C776 1.373 . S
C775 C777 1.389 . S
C776 H749 0.950 . S
C776 C762 1.377 . S
C776 C775 1.373 . S
C777 C761 1.377 . S
C777 C775 1.389 . S
C777 C778 1.524 . S
C778 C777 1.524 . S
C778 C779 1.397 . S
C778 C783 1.363 . S
C779 H750 0.950 . S
C779 C778 1.397 . S
C779 C780 1.334 . S
C780 H751 0.950 . S
C780 C779 1.334 . S
C780 C781 1.287 . S
C781 C780 1.287 . S
C781 C782 1.524 . S
C781 H784 0.999 . S
C782 H752 0.950 . S
C782 C781 1.524 . S
C782 C783 1.415 . S
C783 H753 0.950 . S
C783 C778 1.363 . S
C783 C782 1.415 . S
H784 C781 0.999 . S
H785 C766 0.913 . S
H786 C804 0.951 . S
H787 C806 0.951 . S
H788 C808 0.950 . S
H789 C809 0.950 . S
H790 C811 0.950 . S
H791 C814 0.950 . S
H792 C815 0.950 . S
H793 C817 0.950 . S
H794 C818 0.950 . S
H795 C819 0.951 . S
H796 C821 0.951 . S
H797 C823 0.950 . S
H798 C824 0.950 . S
H799 C826 0.950 . S
H800 C829 0.950 . S
H801 C830 0.950 . S
H802 C832 0.950 . S
H803 C833 0.950 . S
C804 H786 0.951 . S
C804 C805 1.366 1_655 S
C804 C806 1.388 . S
C805 C804 1.366 1_455 S
C805 C809 1.385 . S
C806 H787 0.951 . S
C806 C804 1.388 . S
C806 C807 1.366 1_655 S
C807 C806 1.366 1_455 S
C807 C808 1.414 . S
C807 C810 1.501 . S
C808 H788 0.950 . S
C808 C807 1.414 . S
C808 C809 1.374 . S
C809 H789 0.950 . S
C809 C805 1.385 . S
C809 C808 1.374 . S
C810 C807 1.501 . S
C810 C811 1.405 . S
C810 C812 1.359 1_455 S
C811 H790 0.950 . S
C811 C810 1.405 . S
C811 C827 1.377 . S
C812 C810 1.359 1_655 S
C812 C813 1.524 . S
C812 C826 1.377 . S
C813 C812 1.524 . S
C813 C814 1.397 . S
C813 C818 1.363 . S
C814 H791 0.950 . S
C814 C813 1.397 . S
C814 C815 1.334 . S
C815 H792 0.950 . S
C815 C814 1.334 . S
C815 C816 1.287 . S
C816 C815 1.287 . S
C816 C817 1.524 . S
C816 H835 0.913 . S
C817 H793 0.950 . S
C817 C816 1.524 . S
C817 C818 1.415 . S
C818 H794 0.950 . S
C818 C813 1.363 . S
C818 C817 1.415 . S
C819 H795 0.951 . S
C819 C820 1.366 1_455 S
C819 C821 1.388 . S
C820 C819 1.366 1_655 S
C820 C824 1.385 . S
C821 H796 0.951 . S
C821 C819 1.388 . S
C821 C822 1.366 1_455 S
C822 C821 1.366 1_655 S
C822 C823 1.414 . S
C822 C825 1.499 . S
C823 H797 0.950 . S
C823 C822 1.414 . S
C823 C824 1.374 . S
C824 H798 0.950 . S
C824 C820 1.385 . S
C824 C823 1.374 . S
C825 C822 1.499 . S
C825 C826 1.373 . S
C825 C827 1.389 1_655 S
C826 H799 0.950 . S
C826 C812 1.377 . S
C826 C825 1.373 . S
C827 C811 1.377 . S
C827 C825 1.389 1_455 S
C827 C828 1.524 . S
C828 C827 1.524 . S
C828 C829 1.397 . S
C828 C833 1.363 . S
C829 H800 0.950 . S
C829 C828 1.397 . S
C829 C830 1.334 . S
C830 H801 0.950 . S
C830 C829 1.334 . S
C830 C831 1.287 . S
C831 C830 1.287 . S
C831 C832 1.524 . S
C831 H834 0.999 . S
C832 H802 0.950 . S
C832 C831 1.524 . S
C832 C833 1.415 . S
C833 H803 0.950 . S
C833 C828 1.363 . S
C833 C832 1.415 . S
H834 C831 0.999 . S
H835 C816 0.913 . S
H836 C854 0.951 . S
H837 C856 0.951 . S
H838 C858 0.950 . S
H839 C859 0.950 . S
H840 C861 0.950 . S
H841 C864 0.950 . S
H842 C865 0.950 . S
H843 C867 0.950 . S
H844 C868 0.950 . S
H845 C869 0.951 . S
H846 C871 0.951 . S
H847 C873 0.950 . S
H848 C874 0.950 . S
H849 C876 0.950 . S
H850 C879 0.950 . S
H851 C880 0.950 . S
H852 C882 0.950 . S
H853 C883 0.950 . S
C854 H836 0.951 . S
C854 C855 1.366 . S
C854 C856 1.388 . S
C855 C854 1.366 . S
C855 C859 1.385 1_565 S
C856 H837 0.951 . S
C856 C854 1.388 . S
C856 C857 1.366 . S
C857 C856 1.366 . S
C857 C858 1.414 1_565 S
C857 C860 1.499 . S
C858 H838 0.950 . S
C858 C857 1.414 1_545 S
C858 C859 1.374 . S
C859 H839 0.950 . S
C859 C855 1.385 1_545 S
C859 C858 1.374 . S
C860 C857 1.499 . S
C860 C861 1.373 1_565 S
C860 C862 1.389 . S
C861 H840 0.950 . S
C861 C860 1.373 1_545 S
C861 C877 1.377 . S
C862 C860 1.389 . S
C862 C863 1.524 . S
C862 C876 1.377 . S
C863 C862 1.524 . S
C863 C864 1.397 . S
C863 C868 1.363 . S
C864 H841 0.950 . S
C864 C863 1.397 . S
C864 C865 1.334 . S
C865 H842 0.950 . S
C865 C864 1.334 . S
C865 C866 1.287 . S
C866 C865 1.287 . S
C866 C867 1.524 . S
C866 H885 0.913 . S
C867 H843 0.950 . S
C867 C866 1.524 . S
C867 C868 1.415 . S
C868 H844 0.950 . S
C868 C863 1.363 . S
C868 C867 1.415 . S
C869 H845 0.951 . S
C869 C870 1.366 . S
C869 C871 1.388 . S
C870 C869 1.366 . S
C870 C874 1.385 1_545 S
C871 H846 0.951 . S
C871 C869 1.388 . S
C871 C872 1.366 . S
C872 C871 1.366 . S
C872 C873 1.414 1_545 S
C872 C875 1.499 . S
C873 H847 0.950 . S
C873 C872 1.414 1_565 S
C873 C874 1.374 . S
C874 H848 0.950 . S
C874 C870 1.385 1_565 S
C874 C873 1.374 . S
C875 C872 1.499 . S
C875 C876 1.373 1_545 S
C875 C877 1.389 . S
C876 H849 0.950 . S
C876 C862 1.377 . S
C876 C875 1.373 1_565 S
C877 C861 1.377 . S
C877 C875 1.389 . S
C877 C878 1.524 . S
C878 C877 1.524 . S
C878 C879 1.397 . S
C878 C883 1.363 . S
C879 H850 0.950 . S
C879 C878 1.397 . S
C879 C880 1.334 . S
C880 H851 0.950 . S
C880 C879 1.334 . S
C880 C881 1.287 . S
C881 C880 1.287 . S
C881 C882 1.524 . S
C881 H884 0.999 . S
C882 H852 0.950 . S
C882 C881 1.524 . S
C882 C883 1.415 . S
C883 H853 0.950 . S
C883 C878 1.363 . S
C883 C882 1.415 . S
H884 C881 0.999 . S
H885 C866 0.913 . S
H886 C904 0.951 . S
H887 C906 0.951 . S
H888 C908 0.950 . S
H889 C909 0.950 . S
H890 C911 0.950 . S
H891 C914 0.950 . S
H892 C915 0.950 . S
H893 C917 0.950 . S
H894 C918 0.950 . S
H895 C919 0.951 . S
H896 C921 0.951 . S
H897 C923 0.950 . S
H898 C924 0.950 . S
H899 C926 0.950 . S
H900 C929 0.950 . S
H901 C930 0.950 . S
H902 C932 0.950 . S
H903 C933 0.950 . S
C904 H886 0.951 . S
C904 C905 1.366 . S
C904 C906 1.388 . S
C905 C904 1.366 . S
C905 C909 1.385 . S
C906 H887 0.951 . S
C906 C904 1.388 . S
C906 C907 1.366 . S
C907 C906 1.366 . S
C907 C908 1.414 . S
C907 C910 1.499 . S
C908 H888 0.950 . S
C908 C907 1.414 . S
C908 C909 1.374 . S
C909 H889 0.950 . S
C909 C905 1.385 . S
C909 C908 1.374 . S
C910 C907 1.499 . S
C910 C911 1.373 . S
C910 C912 1.389 . S
C911 H890 0.950 . S
C911 C910 1.373 . S
C911 C927 1.377 . S
C912 C910 1.389 . S
C912 C913 1.524 . S
C912 C926 1.377 . S
C913 C912 1.524 . S
C913 C914 1.397 . S
C913 C918 1.363 . S
C914 H891 0.950 . S
C914 C913 1.397 . S
C914 C915 1.334 . S
C915 H892 0.950 . S
C915 C914 1.334 . S
C915 C916 1.287 . S
C916 C915 1.287 . S
C916 C917 1.524 . S
C916 H935 0.913 . S
C917 H893 0.950 . S
C917 C916 1.524 . S
C917 C918 1.415 . S
C918 H894 0.950 . S
C918 C913 1.363 . S
C918 C917 1.415 . S
C919 H895 0.951 . S
C919 C920 1.366 . S
C919 C921 1.388 . S
C920 C919 1.366 . S
C920 C924 1.385 . S
C921 H896 0.951 . S
C921 C919 1.388 . S
C921 C922 1.366 . S
C922 C921 1.366 . S
C922 C923 1.414 . S
C922 C925 1.499 . S
C923 H897 0.950 . S
C923 C922 1.414 . S
C923 C924 1.374 . S
C924 H898 0.950 . S
C924 C920 1.385 . S
C924 C923 1.374 . S
C925 C922 1.499 . S
C925 C926 1.373 . S
C925 C927 1.389 . S
C926 H899 0.950 . S
C926 C912 1.377 . S
C926 C925 1.373 . S
C927 C911 1.377 . S
C927 C925 1.389 . S
C927 C928 1.524 . S
C928 C927 1.524 . S
C928 C929 1.397 . S
C928 C933 1.363 . S
C929 H900 0.950 . S
C929 C928 1.397 . S
C929 C930 1.334 . S
C930 H901 0.950 . S
C930 C929 1.334 . S
C930 C931 1.287 . S
C931 C930 1.287 . S
C931 C932 1.524 . S
C931 H934 0.999 . S
C932 H902 0.950 . S
C932 C931 1.524 . S
C932 C933 1.415 . S
C933 H903 0.950 . S
C933 C928 1.363 . S
C933 C932 1.415 . S
H934 C931 0.999 . S
H935 C916 0.913 . S
H936 C954 0.951 . S
H937 C956 0.951 . S
H938 C958 0.950 . S
H939 C959 0.950 . S
H940 C961 0.950 . S
H941 C964 0.950 . S
H942 C965 0.950 . S
H943 C967 0.950 . S
H944 C968 0.950 . S
H945 C969 0.951 . S
H946 C971 0.951 . S
H947 C973 0.950 . S
H948 C974 0.950 . S
H949 C976 0.950 . S
H950 C979 0.950 . S
H951 C980 0.950 . S
H952 C982 0.950 . S
H953 C983 0.950 . S
C954 H936 0.951 . S
C954 C955 1.366 . S
C954 C956 1.388 . S
C955 C954 1.366 . S
C955 C959 1.385 . S
C956 H937 0.951 . S
C956 C954 1.388 . S
C956 C957 1.366 . S
C957 C956 1.366 . S
C957 C958 1.414 . S
C957 C960 1.499 . S
C958 H938 0.950 . S
C958 C957 1.414 . S
C958 C959 1.374 . S
C959 H939 0.950 . S
C959 C955 1.385 . S
C959 C958 1.374 . S
C960 C957 1.499 . S
C960 C961 1.373 . S
C960 C962 1.389 . S
C961 H940 0.950 . S
C961 C960 1.373 . S
C961 C977 1.377 1_554 S
C962 C960 1.389 . S
C962 C963 1.524 . S
C962 C976 1.377 1_554 S
C963 C962 1.524 . S
C963 C964 1.397 . S
C963 C968 1.363 . S
C964 H941 0.950 . S
C964 C963 1.397 . S
C964 C965 1.334 . S
C965 H942 0.950 . S
C965 C964 1.334 . S
C965 C966 1.287 . S
C966 C965 1.287 . S
C966 C967 1.524 . S
C966 H985 0.913 . S
C967 H943 0.950 . S
C967 C966 1.524 . S
C967 C968 1.415 . S
C968 H944 0.950 . S
C968 C963 1.363 . S
C968 C967 1.415 . S
C969 H945 0.951 . S
C969 C970 1.366 . S
C969 C971 1.388 . S
C970 C969 1.366 . S
C970 C974 1.385 . S
C971 H946 0.951 . S
C971 C969 1.388 . S
C971 C972 1.366 . S
C972 C971 1.366 . S
C972 C973 1.414 . S
C972 C975 1.499 . S
C973 H947 0.950 . S
C973 C972 1.414 . S
C973 C974 1.374 . S
C974 H948 0.950 . S
C974 C970 1.385 . S
C974 C973 1.374 . S
C975 C972 1.499 . S
C975 C976 1.373 . S
C975 C977 1.389 . S
C976 H949 0.950 . S
C976 C962 1.377 1_556 S
C976 C975 1.373 . S
C977 C961 1.377 1_556 S
C977 C975 1.389 . S
C977 C978 1.524 . S
C978 C977 1.524 . S
C978 C979 1.397 . S
C978 C983 1.363 . S
C979 H950 0.950 . S
C979 C978 1.397 . S
C979 C980 1.334 . S
C980 H951 0.950 . S
C980 C979 1.334 . S
C980 C981 1.287 . S
C981 C980 1.287 . S
C981 C982 1.524 . S
C981 H984 0.999 . S
C982 H952 0.950 . S
C982 C981 1.524 . S
C982 C983 1.415 . S
C983 H953 0.950 . S
C983 C978 1.363 . S
C983 C982 1.415 . S
H984 C981 0.999 . S
H985 C966 0.913 . S
H986 C1004 0.951 . S
H987 C1006 0.951 . S
H988 C1008 0.950 . S
H989 C1009 0.950 . S
H990 C1011 0.950 . S
H991 C1014 0.950 . S
H992 C1015 0.950 . S
H993 C1017 0.950 . S
H994 C1018 0.950 . S
H995 C1019 0.951 . S
H996 C1021 0.951 . S
H997 C1023 0.950 . S
H998 C1024 0.950 . S
H999 C1026 0.950 . S
H1000 C1029 0.950 . S
H1001 C1030 0.950 . S
H1002 C1032 0.950 . S
H1003 C1033 0.950 . S
C1004 H986 0.951 . S
C1004 C1005 1.366 . S
C1004 C1006 1.388 . S
C1005 C1004 1.366 . S
C1005 C1009 1.385 . S
C1006 H987 0.951 . S
C1006 C1004 1.388 . S
C1006 C1007 1.366 . S
C1007 C1006 1.366 . S
C1007 C1008 1.414 . S
C1007 C1010 1.499 . S
C1008 H988 0.950 . S
C1008 C1007 1.414 . S
C1008 C1009 1.374 . S
C1009 H989 0.950 . S
C1009 C1005 1.385 . S
C1009 C1008 1.374 . S
C1010 C1007 1.499 . S
C1010 C1011 1.373 . S
C1010 C1012 1.389 . S
C1011 H990 0.950 . S
C1011 C1010 1.373 . S
C1011 C1027 1.377 . S
C1012 C1010 1.389 . S
C1012 C1013 1.524 . S
C1012 C1026 1.377 . S
C1013 C1012 1.524 . S
C1013 C1014 1.397 . S
C1013 C1018 1.363 . S
C1014 H991 0.950 . S
C1014 C1013 1.397 . S
C1014 C1015 1.334 . S
C1015 H992 0.950 . S
C1015 C1014 1.334 . S
C1015 C1016 1.287 . S
C1016 C1015 1.287 . S
C1016 C1017 1.524 . S
C1016 H1035 0.913 . S
C1017 H993 0.950 . S
C1017 C1016 1.524 . S
C1017 C1018 1.415 . S
C1018 H994 0.950 . S
C1018 C1013 1.363 . S
C1018 C1017 1.415 . S
C1019 H995 0.951 . S
C1019 C1020 1.366 . S
C1019 C1021 1.388 . S
C1020 C1019 1.366 . S
C1020 C1024 1.385 . S
C1021 H996 0.951 . S
C1021 C1019 1.388 . S
C1021 C1022 1.366 . S
C1022 C1021 1.366 . S
C1022 C1023 1.414 . S
C1022 C1025 1.499 . S
C1023 H997 0.950 . S
C1023 C1022 1.414 . S
C1023 C1024 1.374 . S
C1024 H998 0.950 . S
C1024 C1020 1.385 . S
C1024 C1023 1.374 . S
C1025 C1022 1.499 . S
C1025 C1026 1.373 . S
C1025 C1027 1.389 . S
C1026 H999 0.950 . S
C1026 C1012 1.377 . S
C1026 C1025 1.373 . S
C1027 C1011 1.377 . S
C1027 C1025 1.389 . S
C1027 C1028 1.524 . S
C1028 C1027 1.524 . S
C1028 C1029 1.397 . S
C1028 C1033 1.363 . S
C1029 H1000 0.950 . S
C1029 C1028 1.397 . S
C1029 C1030 1.334 . S
C1030 H1001 0.950 . S
C1030 C1029 1.334 . S
C1030 C1031 1.287 . S
C1031 C1030 1.287 . S
C1031 C1032 1.524 . S
C1031 H1034 0.999 . S
C1032 H1002 0.950 . S
C1032 C1031 1.524 . S
C1032 C1033 1.415 . S
C1033 H1003 0.950 . S
C1033 C1028 1.363 . S
C1033 C1032 1.415 . S
H1034 C1031 0.999 . S
H1035 C1016 0.913 . S
H1036 C1054 0.951 . S
H1037 C1056 0.951 . S
H1038 C1058 0.950 . S
H1039 C1059 0.950 . S
H1040 C1061 0.950 . S
H1041 C1064 0.950 . S
H1042 C1065 0.950 . S
H1043 C1067 0.950 . S
H1044 C1068 0.950 . S
H1045 C1069 0.951 . S
H1046 C1071 0.951 . S
H1047 C1073 0.950 . S
H1048 C1074 0.950 . S
H1049 C1076 0.950 . S
H1050 C1079 0.950 . S
H1051 C1080 0.950 . S
H1052 C1082 0.950 . S
H1053 C1083 0.950 . S
C1054 H1036 0.951 . S
C1054 C1055 1.366 . S
C1054 C1056 1.388 . S
C1055 C1054 1.366 . S
C1055 C1059 1.385 . S
C1056 H1037 0.951 . S
C1056 C1054 1.388 . S
C1056 C1057 1.366 . S
C1057 C1056 1.366 . S
C1057 C1058 1.414 . S
C1057 C1060 1.499 . S
C1058 H1038 0.950 . S
C1058 C1057 1.414 . S
C1058 C1059 1.374 . S
C1059 H1039 0.950 . S
C1059 C1055 1.385 . S
C1059 C1058 1.374 . S
C1060 C1057 1.499 . S
C1060 C1061 1.373 . S
C1060 C1062 1.389 . S
C1061 H1040 0.950 . S
C1061 C1060 1.373 . S
C1061 C1077 1.377 . S
C1062 C1060 1.389 . S
C1062 C1063 1.524 . S
C1062 C1076 1.377 . S
C1063 C1062 1.524 . S
C1063 C1064 1.397 . S
C1063 C1068 1.363 . S
C1064 H1041 0.950 . S
C1064 C1063 1.397 . S
C1064 C1065 1.334 . S
C1065 H1042 0.950 . S
C1065 C1064 1.334 . S
C1065 C1066 1.287 . S
C1066 C1065 1.287 . S
C1066 C1067 1.524 . S
C1066 H1085 0.913 . S
C1067 H1043 0.950 . S
C1067 C1066 1.524 . S
C1067 C1068 1.415 . S
C1068 H1044 0.950 . S
C1068 C1063 1.363 . S
C1068 C1067 1.415 . S
C1069 H1045 0.951 . S
C1069 C1070 1.366 . S
C1069 C1071 1.388 . S
C1070 C1069 1.366 . S
C1070 C1074 1.385 . S
C1071 H1046 0.951 . S
C1071 C1069 1.388 . S
C1071 C1072 1.366 . S
C1072 C1071 1.366 . S
C1072 C1073 1.414 . S
C1072 C1075 1.499 . S
C1073 H1047 0.950 . S
C1073 C1072 1.414 . S
C1073 C1074 1.374 . S
C1074 H1048 0.950 . S
C1074 C1070 1.385 . S
C1074 C1073 1.374 . S
C1075 C1072 1.499 . S
C1075 C1076 1.373 . S
C1075 C1077 1.389 . S
C1076 H1049 0.950 . S
C1076 C1062 1.377 . S
C1076 C1075 1.373 . S
C1077 C1061 1.377 . S
C1077 C1075 1.389 . S
C1077 C1078 1.524 . S
C1078 C1077 1.524 . S
C1078 C1079 1.397 . S
C1078 C1083 1.363 . S
C1079 H1050 0.950 . S
C1079 C1078 1.397 . S
C1079 C1080 1.334 . S
C1080 H1051 0.950 . S
C1080 C1079 1.334 . S
C1080 C1081 1.287 . S
C1081 C1080 1.287 . S
C1081 C1082 1.524 . S
C1081 H1084 0.999 . S
C1082 H1052 0.950 . S
C1082 C1081 1.524 . S
C1082 C1083 1.415 . S
C1083 H1053 0.950 . S
C1083 C1078 1.363 . S
C1083 C1082 1.415 . S
H1084 C1081 0.999 . S
H1085 C1066 0.913 . S
H1086 C1104 0.951 . S
H1087 C1106 0.951 . S
H1088 C1108 0.950 . S
H1089 C1109 0.950 . S
H1090 C1111 0.959 . S
H1091 C1114 0.950 . S
H1092 C1115 0.950 . S
H1093 C1117 0.950 . S
H1094 C1118 0.950 . S
H1095 C1119 0.951 . S
H1096 C1121 0.951 . S
H1097 C1123 0.950 . S
H1098 C1124 0.950 . S
H1099 C1126 0.959 . S
H1100 C1129 0.950 . S
H1101 C1130 0.950 . S
H1102 C1132 0.950 . S
H1103 C1133 0.950 . S
C1104 H1086 0.951 . S
C1104 C1105 1.366 . S
C1104 C1106 1.388 . S
C1105 C1104 1.366 . S
C1105 C1109 1.385 . S
C1106 H1087 0.951 . S
C1106 C1104 1.388 . S
C1106 C1107 1.366 . S
C1107 C1106 1.366 . S
C1107 C1108 1.414 . S
C1107 C1110 1.499 . S
C1108 H1088 0.950 . S
C1108 C1107 1.414 . S
C1108 C1109 1.374 . S
C1109 H1089 0.950 . S
C1109 C1105 1.385 . S
C1109 C1108 1.374 . S
C1110 C1107 1.499 . S
C1110 C1111 1.311 1_554 S
C1110 C1112 1.389 . S
C1111 H1090 0.959 . S
C1111 C1110 1.311 1_556 S
C1111 C1127 1.434 . S
C1112 C1110 1.389 . S
C1112 C1113 1.524 . S
C1112 C1126 1.434 . S
C1113 C1112 1.524 . S
C1113 C1114 1.397 . S
C1113 C1118 1.363 . S
C1114 H1091 0.950 . S
C1114 C1113 1.397 . S
C1114 C1115 1.334 . S
C1115 H1092 0.950 . S
C1115 C1114 1.334 . S
C1115 C1116 1.287 . S
C1116 C1115 1.287 . S
C1116 C1117 1.524 . S
C1116 H1135 0.913 . S
C1117 H1093 0.950 . S
C1117 C1116 1.524 . S
C1117 C1118 1.415 . S
C1118 H1094 0.950 . S
C1118 C1113 1.363 . S
C1118 C1117 1.415 . S
C1119 H1095 0.951 . S
C1119 C1120 1.366 . S
C1119 C1121 1.388 . S
C1120 C1119 1.366 . S
C1120 C1124 1.385 . S
C1121 H1096 0.951 . S
C1121 C1119 1.388 . S
C1121 C1122 1.366 . S
C1122 C1121 1.366 . S
C1122 C1123 1.414 . S
C1122 C1125 1.499 . S
C1123 H1097 0.950 . S
C1123 C1122 1.414 . S
C1123 C1124 1.374 . S
C1124 H1098 0.950 . S
C1124 C1120 1.385 . S
C1124 C1123 1.374 . S
C1125 C1122 1.499 . S
C1125 C1126 1.312 1_556 S
C1125 C1127 1.389 . S
C1126 H1099 0.959 . S
C1126 C1112 1.434 . S
C1126 C1125 1.312 1_554 S
C1127 C1111 1.434 . S
C1127 C1125 1.389 . S
C1127 C1128 1.524 . S
C1128 C1127 1.524 . S
C1128 C1129 1.397 . S
C1128 C1133 1.363 . S
C1129 H1100 0.950 . S
C1129 C1128 1.397 . S
C1129 C1130 1.334 . S
C1130 H1101 0.950 . S
C1130 C1129 1.334 . S
C1130 C1131 1.287 . S
C1131 C1130 1.287 . S
C1131 C1132 1.524 . S
C1131 H1134 0.999 . S
C1132 H1102 0.950 . S
C1132 C1131 1.524 . S
C1132 C1133 1.415 . S
C1133 H1103 0.950 . S
C1133 C1128 1.363 . S
C1133 C1132 1.415 . S
H1134 C1131 0.999 . S
H1135 C1116 0.913 . S
H1136 C1154 0.951 . S
H1137 C1156 0.951 . S
H1138 C1158 0.950 . S
H1139 C1159 0.950 . S
H1140 C1161 0.950 . S
H1141 C1164 0.950 . S
H1142 C1165 0.950 . S
H1143 C1167 0.950 . S
H1144 C1168 0.950 . S
H1145 C1169 0.951 . S
H1146 C1171 0.951 . S
H1147 C1173 0.950 . S
H1148 C1174 0.950 . S
H1149 C1176 0.950 . S
H1150 C1179 0.950 . S
H1151 C1180 0.950 . S
H1152 C1182 0.950 . S
H1153 C1183 0.950 . S
C1154 H1136 0.951 . S
C1154 C1155 1.366 . S
C1154 C1156 1.388 . S
C1155 C1154 1.366 . S
C1155 C1159 1.385 . S
C1156 H1137 0.951 . S
C1156 C1154 1.388 . S
C1156 C1157 1.366 . S
C1157 C1156 1.366 . S
C1157 C1158 1.414 . S
C1157 C1160 1.499 . S
C1158 H1138 0.950 . S
C1158 C1157 1.414 . S
C1158 C1159 1.374 . S
C1159 H1139 0.950 . S
C1159 C1155 1.385 . S
C1159 C1158 1.374 . S
C1160 C1157 1.499 . S
C1160 C1161 1.373 . S
C1160 C1162 1.389 . S
C1161 H1140 0.950 . S
C1161 C1160 1.373 . S
C1161 C1177 1.377 . S
C1162 C1160 1.389 . S
C1162 C1163 1.524 . S
C1162 C1176 1.377 . S
C1163 C1162 1.524 . S
C1163 C1164 1.397 . S
C1163 C1168 1.363 . S
C1164 H1141 0.950 . S
C1164 C1163 1.397 . S
C1164 C1165 1.334 . S
C1165 H1142 0.950 . S
C1165 C1164 1.334 . S
C1165 C1166 1.287 . S
C1166 C1165 1.287 . S
C1166 C1167 1.524 . S
C1166 H1185 0.913 . S
C1167 H1143 0.950 . S
C1167 C1166 1.524 . S
C1167 C1168 1.415 . S
C1168 H1144 0.950 . S
C1168 C1163 1.363 . S
C1168 C1167 1.415 . S
C1169 H1145 0.951 . S
C1169 C1170 1.366 . S
C1169 C1171 1.388 . S
C1170 C1169 1.366 . S
C1170 C1174 1.385 . S
C1171 H1146 0.951 . S
C1171 C1169 1.388 . S
C1171 C1172 1.366 . S
C1172 C1171 1.366 . S
C1172 C1173 1.414 . S
C1172 C1175 1.499 . S
C1173 H1147 0.950 . S
C1173 C1172 1.414 . S
C1173 C1174 1.374 . S
C1174 H1148 0.950 . S
C1174 C1170 1.385 . S
C1174 C1173 1.374 . S
C1175 C1172 1.499 . S
C1175 C1176 1.373 . S
C1175 C1177 1.389 . S
C1176 H1149 0.950 . S
C1176 C1162 1.377 . S
C1176 C1175 1.373 . S
C1177 C1161 1.377 . S
C1177 C1175 1.389 . S
C1177 C1178 1.524 . S
C1178 C1177 1.524 . S
C1178 C1179 1.397 . S
C1178 C1183 1.363 . S
C1179 H1150 0.950 . S
C1179 C1178 1.397 . S
C1179 C1180 1.334 . S
C1180 H1151 0.950 . S
C1180 C1179 1.334 . S
C1180 C1181 1.287 . S
C1181 C1180 1.287 . S
C1181 C1182 1.524 . S
C1181 H1184 0.999 . S
C1182 H1152 0.950 . S
C1182 C1181 1.524 . S
C1182 C1183 1.415 . S
C1183 H1153 0.950 . S
C1183 C1178 1.363 . S
C1183 C1182 1.415 . S
H1184 C1181 0.999 . S
H1185 C1166 0.913 . S
H1186 C1204 0.951 . S
H1187 C1206 0.951 . S
H1188 C1208 0.950 . S
H1189 C1209 0.950 . S
H1190 C1211 0.950 . S
H1191 C1214 0.950 . S
H1192 C1215 0.950 . S
H1193 C1217 0.950 . S
H1194 C1218 0.950 . S
H1195 C1219 0.951 . S
H1196 C1221 0.951 . S
H1197 C1223 0.950 . S
H1198 C1224 0.950 . S
H1199 C1226 0.950 . S
H1200 C1229 0.950 . S
H1201 C1230 0.950 . S
H1202 C1232 0.950 . S
H1203 C1233 0.950 . S
C1204 H1186 0.951 . S
C1204 C1205 1.366 . S
C1204 C1206 1.388 . S
C1205 C1204 1.366 . S
C1205 C1209 1.385 . S
C1206 H1187 0.951 . S
C1206 C1204 1.388 . S
C1206 C1207 1.366 . S
C1207 C1206 1.366 . S
C1207 C1208 1.414 . S
C1207 C1210 1.499 . S
C1208 H1188 0.950 . S
C1208 C1207 1.414 . S
C1208 C1209 1.374 . S
C1209 H1189 0.950 . S
C1209 C1205 1.385 . S
C1209 C1208 1.374 . S
C1210 C1207 1.499 . S
C1210 C1211 1.373 . S
C1210 C1212 1.389 . S
C1211 H1190 0.950 . S
C1211 C1210 1.373 . S
C1211 C1227 1.377 . S
C1212 C1210 1.389 . S
C1212 C1213 1.524 . S
C1212 C1226 1.377 . S
C1213 C1212 1.524 . S
C1213 C1214 1.397 . S
C1213 C1218 1.363 . S
C1214 H1191 0.950 . S
C1214 C1213 1.397 . S
C1214 C1215 1.334 . S
C1215 H1192 0.950 . S
C1215 C1214 1.334 . S
C1215 C1216 1.287 . S
C1216 C1215 1.287 . S
C1216 C1217 1.524 . S
C1216 H1235 0.913 . S
C1217 H1193 0.950 . S
C1217 C1216 1.524 . S
C1217 C1218 1.415 . S
C1218 H1194 0.950 . S
C1218 C1213 1.363 . S
C1218 C1217 1.415 . S
C1219 H1195 0.951 . S
C1219 C1220 1.366 . S
C1219 C1221 1.388 . S
C1220 C1219 1.366 . S
C1220 C1224 1.385 . S
C1221 H1196 0.951 . S
C1221 C1219 1.388 . S
C1221 C1222 1.366 . S
C1222 C1221 1.366 . S
C1222 C1223 1.414 . S
C1222 C1225 1.499 . S
C1223 H1197 0.950 . S
C1223 C1222 1.414 . S
C1223 C1224 1.374 . S
C1224 H1198 0.950 . S
C1224 C1220 1.385 . S
C1224 C1223 1.374 . S
C1225 C1222 1.499 . S
C1225 C1226 1.373 . S
C1225 C1227 1.389 . S
C1226 H1199 0.950 . S
C1226 C1212 1.377 . S
C1226 C1225 1.373 . S
C1227 C1211 1.377 . S
C1227 C1225 1.389 . S
C1227 C1228 1.524 . S
C1228 C1227 1.524 . S
C1228 C1229 1.397 . S
C1228 C1233 1.363 . S
C1229 H1200 0.950 . S
C1229 C1228 1.397 . S
C1229 C1230 1.334 . S
C1230 H1201 0.950 . S
C1230 C1229 1.334 . S
C1230 C1231 1.287 . S
C1231 C1230 1.287 . S
C1231 C1232 1.524 . S
C1231 H1234 0.999 . S
C1232 H1202 0.950 . S
C1232 C1231 1.524 . S
C1232 C1233 1.415 . S
C1233 H1203 0.950 . S
C1233 C1228 1.363 . S
C1233 C1232 1.415 . S
H1234 C1231 0.999 . S
H1235 C1216 0.913 . S
H1236 C1254 0.951 . S
H1237 C1256 0.951 . S
H1238 C1258 0.950 . S
H1239 C1259 0.950 . S
H1240 C1261 0.950 . S
H1241 C1264 0.950 . S
H1242 C1265 0.950 . S
H1243 C1267 0.950 . S
H1244 C1268 0.950 . S
H1245 C1269 0.951 . S
H1246 C1271 0.951 . S
H1247 C1273 0.950 . S
H1248 C1274 0.950 . S
H1249 C1276 0.950 . S
H1250 C1279 0.950 . S
H1251 C1280 0.950 . S
H1252 C1282 0.950 . S
H1253 C1283 0.950 . S
C1254 H1236 0.951 . S
C1254 C1255 1.366 1_455 S
C1254 C1256 1.388 . S
C1255 C1254 1.366 1_655 S
C1255 C1259 1.385 . S
C1256 H1237 0.951 . S
C1256 C1254 1.388 . S
C1256 C1257 1.366 1_455 S
C1257 C1256 1.366 1_655 S
C1257 C1258 1.414 . S
C1257 C1260 1.499 . S
C1258 H1238 0.950 . S
C1258 C1257 1.414 . S
C1258 C1259 1.374 . S
C1259 H1239 0.950 . S
C1259 C1255 1.385 . S
C1259 C1258 1.374 . S
C1260 C1257 1.499 . S
C1260 C1261 1.373 . S
C1260 C1262 1.389 1_655 S
C1261 H1240 0.950 . S
C1261 C1260 1.373 . S
C1261 C1277 1.377 . S
C1262 C1260 1.389 1_455 S
C1262 C1263 1.524 . S
C1262 C1276 1.377 . S
C1263 C1262 1.524 . S
C1263 C1264 1.397 . S
C1263 C1268 1.363 . S
C1264 H1241 0.950 . S
C1264 C1263 1.397 . S
C1264 C1265 1.334 . S
C1265 H1242 0.950 . S
C1265 C1264 1.334 . S
C1265 C1266 1.287 . S
C1266 C1265 1.287 . S
C1266 C1267 1.524 . S
C1266 H1285 0.913 . S
C1267 H1243 0.950 . S
C1267 C1266 1.524 . S
C1267 C1268 1.415 . S
C1268 H1244 0.950 . S
C1268 C1263 1.363 . S
C1268 C1267 1.415 . S
C1269 H1245 0.951 . S
C1269 C1270 1.366 1_655 S
C1269 C1271 1.388 . S
C1270 C1269 1.366 1_455 S
C1270 C1274 1.385 . S
C1271 H1246 0.951 . S
C1271 C1269 1.388 . S
C1271 C1272 1.366 1_655 S
C1272 C1271 1.366 1_455 S
C1272 C1273 1.414 . S
C1272 C1275 1.499 . S
C1273 H1247 0.950 . S
C1273 C1272 1.414 . S
C1273 C1274 1.374 . S
C1274 H1248 0.950 . S
C1274 C1270 1.385 . S
C1274 C1273 1.374 . S
C1275 C1272 1.499 . S
C1275 C1276 1.373 . S
C1275 C1277 1.389 1_455 S
C1276 H1249 0.950 . S
C1276 C1262 1.377 . S
C1276 C1275 1.373 . S
C1277 C1261 1.377 . S
C1277 C1275 1.389 1_655 S
C1277 C1278 1.524 . S
C1278 C1277 1.524 . S
C1278 C1279 1.397 . S
C1278 C1283 1.363 . S
C1279 H1250 0.950 . S
C1279 C1278 1.397 . S
C1279 C1280 1.334 . S
C1280 H1251 0.950 . S
C1280 C1279 1.334 . S
C1280 C1281 1.287 . S
C1281 C1280 1.287 . S
C1281 C1282 1.524 . S
C1281 H1284 0.999 . S
C1282 H1252 0.950 . S
C1282 C1281 1.524 . S
C1282 C1283 1.415 . S
C1283 H1253 0.950 . S
C1283 C1278 1.363 . S
C1283 C1282 1.415 . S
H1284 C1281 0.999 . S
H1285 C1266 0.913 . S
H1286 C1304 0.951 . S
H1287 C1306 0.951 . S
H1288 C1308 0.950 . S
H1289 C1309 0.950 . S
H1290 C1311 0.950 . S
H1291 C1314 0.950 . S
H1292 C1315 0.950 . S
H1293 C1317 0.950 . S
H1294 C1318 0.950 . S
H1295 C1319 0.951 . S
H1296 C1321 0.951 . S
H1297 C1323 0.950 . S
H1298 C1324 0.950 . S
H1299 C1326 0.950 . S
H1300 C1329 0.950 . S
H1301 C1330 0.950 . S
H1302 C1332 0.950 . S
H1303 C1333 0.950 . S
C1304 H1286 0.951 . S
C1304 C1305 1.366 . S
C1304 C1306 1.388 . S
C1305 C1304 1.366 . S
C1305 C1309 1.385 1_545 S
C1306 H1287 0.951 . S
C1306 C1304 1.388 . S
C1306 C1307 1.366 . S
C1307 C1306 1.366 . S
C1307 C1308 1.414 1_545 S
C1307 C1310 1.499 . S
C1308 H1288 0.950 . S
C1308 C1307 1.414 1_565 S
C1308 C1309 1.374 . S
C1309 H1289 0.950 . S
C1309 C1305 1.385 1_565 S
C1309 C1308 1.374 . S
C1310 C1307 1.499 . S
C1310 C1311 1.373 1_545 S
C1310 C1312 1.389 . S
C1311 H1290 0.950 . S
C1311 C1310 1.373 1_565 S
C1311 C1327 1.377 . S
C1312 C1310 1.389 . S
C1312 C1313 1.524 . S
C1312 C1326 1.377 . S
C1313 C1312 1.524 . S
C1313 C1314 1.397 . S
C1313 C1318 1.363 . S
C1314 H1291 0.950 . S
C1314 C1313 1.397 . S
C1314 C1315 1.334 . S
C1315 H1292 0.950 . S
C1315 C1314 1.334 . S
C1315 C1316 1.287 . S
C1316 C1315 1.287 . S
C1316 C1317 1.524 . S
C1316 H1335 0.913 . S
C1317 H1293 0.950 . S
C1317 C1316 1.524 . S
C1317 C1318 1.415 . S
C1318 H1294 0.950 . S
C1318 C1313 1.363 . S
C1318 C1317 1.415 . S
C1319 H1295 0.951 . S
C1319 C1320 1.366 . S
C1319 C1321 1.388 . S
C1320 C1319 1.366 . S
C1320 C1324 1.385 1_565 S
C1321 H1296 0.951 . S
C1321 C1319 1.388 . S
C1321 C1322 1.366 . S
C1322 C1321 1.366 . S
C1322 C1323 1.414 1_565 S
C1322 C1325 1.499 . S
C1323 H1297 0.950 . S
C1323 C1322 1.414 1_545 S
C1323 C1324 1.374 . S
C1324 H1298 0.950 . S
C1324 C1320 1.385 1_545 S
C1324 C1323 1.374 . S
C1325 C1322 1.499 . S
C1325 C1326 1.373 1_565 S
C1325 C1327 1.389 . S
C1326 H1299 0.950 . S
C1326 C1312 1.377 . S
C1326 C1325 1.373 1_545 S
C1327 C1311 1.377 . S
C1327 C1325 1.389 . S
C1327 C1328 1.524 . S
C1328 C1327 1.524 . S
C1328 C1329 1.397 . S
C1328 C1333 1.363 . S
C1329 H1300 0.950 . S
C1329 C1328 1.397 . S
C1329 C1330 1.334 . S
C1330 H1301 0.950 . S
C1330 C1329 1.334 . S
C1330 C1331 1.287 . S
C1331 C1330 1.287 . S
C1331 C1332 1.524 . S
C1331 H1334 0.999 . S
C1332 H1302 0.950 . S
C1332 C1331 1.524 . S
C1332 C1333 1.415 . S
C1333 H1303 0.950 . S
C1333 C1328 1.363 . S
C1333 C1332 1.415 . S
H1334 C1331 0.999 . S
H1335 C1316 0.913 . S
H1336 C1354 0.951 . S
H1337 C1356 0.951 . S
H1338 C1358 0.950 . S
H1339 C1359 0.950 . S
H1340 C1361 0.950 . S
H1341 C1364 0.950 . S
H1342 C1365 0.950 . S
H1343 C1367 0.950 . S
H1344 C1368 0.950 . S
H1345 C1369 0.951 . S
H1346 C1371 0.951 . S
H1347 C1373 0.950 . S
H1348 C1374 0.950 . S
H1349 C1376 0.950 . S
H1350 C1379 0.950 . S
H1351 C1380 0.950 . S
H1352 C1382 0.950 . S
H1353 C1383 0.950 . S
C1354 H1336 0.951 . S
C1354 C1355 1.366 . S
C1354 C1356 1.388 . S
C1355 C1354 1.366 . S
C1355 C1359 1.385 . S
C1356 H1337 0.951 . S
C1356 C1354 1.388 . S
C1356 C1357 1.366 . S
C1357 C1356 1.366 . S
C1357 C1358 1.414 . S
C1357 C1360 1.499 . S
C1358 H1338 0.950 . S
C1358 C1357 1.414 . S
C1358 C1359 1.374 . S
C1359 H1339 0.950 . S
C1359 C1355 1.385 . S
C1359 C1358 1.374 . S
C1360 C1357 1.499 . S
C1360 C1361 1.373 . S
C1360 C1362 1.389 . S
C1361 H1340 0.950 . S
C1361 C1360 1.373 . S
C1361 C1377 1.377 . S
C1362 C1360 1.389 . S
C1362 C1363 1.524 . S
C1362 C1376 1.377 . S
C1363 C1362 1.524 . S
C1363 C1364 1.397 . S
C1363 C1368 1.363 . S
C1364 H1341 0.950 . S
C1364 C1363 1.397 . S
C1364 C1365 1.334 . S
C1365 H1342 0.950 . S
C1365 C1364 1.334 . S
C1365 C1366 1.287 . S
C1366 C1365 1.287 . S
C1366 C1367 1.524 . S
C1366 H1385 0.913 . S
C1367 H1343 0.950 . S
C1367 C1366 1.524 . S
C1367 C1368 1.415 . S
C1368 H1344 0.950 . S
C1368 C1363 1.363 . S
C1368 C1367 1.415 . S
C1369 H1345 0.951 . S
C1369 C1370 1.366 . S
C1369 C1371 1.388 . S
C1370 C1369 1.366 . S
C1370 C1374 1.385 . S
C1371 H1346 0.951 . S
C1371 C1369 1.388 . S
C1371 C1372 1.366 . S
C1372 C1371 1.366 . S
C1372 C1373 1.414 . S
C1372 C1375 1.499 . S
C1373 H1347 0.950 . S
C1373 C1372 1.414 . S
C1373 C1374 1.374 . S
C1374 H1348 0.950 . S
C1374 C1370 1.385 . S
C1374 C1373 1.374 . S
C1375 C1372 1.499 . S
C1375 C1376 1.373 . S
C1375 C1377 1.389 . S
C1376 H1349 0.950 . S
C1376 C1362 1.377 . S
C1376 C1375 1.373 . S
C1377 C1361 1.377 . S
C1377 C1375 1.389 . S
C1377 C1378 1.524 . S
C1378 C1377 1.524 . S
C1378 C1379 1.397 . S
C1378 C1383 1.363 . S
C1379 H1350 0.950 . S
C1379 C1378 1.397 . S
C1379 C1380 1.334 . S
C1380 H1351 0.950 . S
C1380 C1379 1.334 . S
C1380 C1381 1.287 . S
C1381 C1380 1.287 . S
C1381 C1382 1.524 . S
C1381 H1384 0.999 . S
C1382 H1352 0.950 . S
C1382 C1381 1.524 . S
C1382 C1383 1.415 . S
C1383 H1353 0.950 . S
C1383 C1378 1.363 . S
C1383 C1382 1.415 . S
H1384 C1381 0.999 . S
H1385 C1366 0.913 . S
H1386 C1404 0.951 . S
H1387 C1406 0.951 . S
H1388 C1408 0.950 . S
H1389 C1409 0.950 . S
H1390 C1411 0.950 . S
H1391 C1414 0.950 . S
H1392 C1415 0.950 . S
H1393 C1417 0.950 . S
H1394 C1418 0.950 . S
H1395 C1419 0.951 . S
H1396 C1421 0.951 . S
H1397 C1423 0.950 . S
H1398 C1424 0.950 . S
H1399 C1426 0.950 . S
H1400 C1429 0.950 . S
H1401 C1430 0.950 . S
H1402 C1432 0.950 . S
H1403 C1433 0.950 . S
C1404 H1386 0.951 . S
C1404 C1405 1.366 . S
C1404 C1406 1.388 . S
C1405 C1404 1.366 . S
C1405 C1409 1.385 1_545 S
C1406 H1387 0.951 . S
C1406 C1404 1.388 . S
C1406 C1407 1.366 . S
C1407 C1406 1.366 . S
C1407 C1408 1.414 1_545 S
C1407 C1410 1.499 . S
C1408 H1388 0.950 . S
C1408 C1407 1.414 1_565 S
C1408 C1409 1.374 . S
C1409 H1389 0.950 . S
C1409 C1405 1.385 1_565 S
C1409 C1408 1.374 . S
C1410 C1407 1.499 . S
C1410 C1411 1.373 1_545 S
C1410 C1412 1.389 . S
C1411 H1390 0.950 . S
C1411 C1410 1.373 1_565 S
C1411 C1427 1.377 . S
C1412 C1410 1.389 . S
C1412 C1413 1.524 . S
C1412 C1426 1.377 . S
C1413 C1412 1.524 . S
C1413 C1414 1.397 . S
C1413 C1418 1.363 . S
C1414 H1391 0.950 . S
C1414 C1413 1.397 . S
C1414 C1415 1.334 . S
C1415 H1392 0.950 . S
C1415 C1414 1.334 . S
C1415 C1416 1.287 . S
C1416 C1415 1.287 . S
C1416 C1417 1.524 . S
C1416 H1435 0.913 . S
C1417 H1393 0.950 . S
C1417 C1416 1.524 . S
C1417 C1418 1.415 . S
C1418 H1394 0.950 . S
C1418 C1413 1.363 . S
C1418 C1417 1.415 . S
C1419 H1395 0.951 . S
C1419 C1420 1.366 . S
C1419 C1421 1.388 . S
C1420 C1419 1.366 . S
C1420 C1424 1.385 1_565 S
C1421 H1396 0.951 . S
C1421 C1419 1.388 . S
C1421 C1422 1.366 . S
C1422 C1421 1.366 . S
C1422 C1423 1.414 1_565 S
C1422 C1425 1.499 . S
C1423 H1397 0.950 . S
C1423 C1422 1.414 1_545 S
C1423 C1424 1.374 . S
C1424 H1398 0.950 . S
C1424 C1420 1.385 1_545 S
C1424 C1423 1.374 . S
C1425 C1422 1.499 . S
C1425 C1426 1.373 1_565 S
C1425 C1427 1.389 . S
C1426 H1399 0.950 . S
C1426 C1412 1.377 . S
C1426 C1425 1.373 1_545 S
C1427 C1411 1.377 . S
C1427 C1425 1.389 . S
C1427 C1428 1.524 . S
C1428 C1427 1.524 . S
C1428 C1429 1.397 . S
C1428 C1433 1.363 . S
C1429 H1400 0.950 . S
C1429 C1428 1.397 . S
C1429 C1430 1.334 . S
C1430 H1401 0.950 . S
C1430 C1429 1.334 . S
C1430 C1431 1.287 . S
C1431 C1430 1.287 . S
C1431 C1432 1.524 . S
C1431 H1434 0.999 . S
C1432 H1402 0.950 . S
C1432 C1431 1.524 . S
C1432 C1433 1.415 . S
C1433 H1403 0.950 . S
C1433 C1428 1.363 . S
C1433 C1432 1.415 . S
H1434 C1431 0.999 . S
H1435 C1416 0.913 . S
H1436 C1454 0.951 . S
H1437 C1456 0.951 . S
H1438 C1458 0.950 . S
H1439 C1459 0.950 . S
H1440 C1461 0.950 . S
H1441 C1464 0.950 . S
H1442 C1465 0.950 . S
H1443 C1467 0.950 . S
H1444 C1468 0.950 . S
H1445 C1469 0.951 . S
H1446 C1471 0.951 . S
H1447 C1473 0.950 . S
H1448 C1474 0.950 . S
H1449 C1476 0.950 . S
H1450 C1479 0.950 . S
H1451 C1480 0.950 . S
H1452 C1482 0.950 . S
H1453 C1483 0.950 . S
C1454 H1436 0.951 . S
C1454 C1455 1.366 . S
C1454 C1456 1.388 . S
C1455 C1454 1.366 . S
C1455 C1459 1.385 . S
C1456 H1437 0.951 . S
C1456 C1454 1.388 . S
C1456 C1457 1.366 . S
C1457 C1456 1.366 . S
C1457 C1458 1.414 . S
C1457 C1460 1.499 . S
C1458 H1438 0.950 . S
C1458 C1457 1.414 . S
C1458 C1459 1.374 . S
C1459 H1439 0.950 . S
C1459 C1455 1.385 . S
C1459 C1458 1.374 . S
C1460 C1457 1.499 . S
C1460 C1461 1.373 . S
C1460 C1462 1.389 . S
C1461 H1440 0.950 . S
C1461 C1460 1.373 . S
C1461 C1477 1.377 . S
C1462 C1460 1.389 . S
C1462 C1463 1.524 . S
C1462 C1476 1.377 . S
C1463 C1462 1.524 . S
C1463 C1464 1.397 . S
C1463 C1468 1.363 . S
C1464 H1441 0.950 . S
C1464 C1463 1.397 . S
C1464 C1465 1.334 . S
C1465 H1442 0.950 . S
C1465 C1464 1.334 . S
C1465 C1466 1.287 . S
C1466 C1465 1.287 . S
C1466 C1467 1.524 . S
C1466 H1485 0.913 . S
C1467 H1443 0.950 . S
C1467 C1466 1.524 . S
C1467 C1468 1.415 . S
C1468 H1444 0.950 . S
C1468 C1463 1.363 . S
C1468 C1467 1.415 . S
C1469 H1445 0.951 . S
C1469 C1470 1.366 . S
C1469 C1471 1.388 . S
C1470 C1469 1.366 . S
C1470 C1474 1.385 . S
C1471 H1446 0.951 . S
C1471 C1469 1.388 . S
C1471 C1472 1.366 . S
C1472 C1471 1.366 . S
C1472 C1473 1.414 . S
C1472 C1475 1.499 . S
C1473 H1447 0.950 . S
C1473 C1472 1.414 . S
C1473 C1474 1.374 . S
C1474 H1448 0.950 . S
C1474 C1470 1.385 . S
C1474 C1473 1.374 . S
C1475 C1472 1.499 . S
C1475 C1476 1.373 . S
C1475 C1477 1.389 . S
C1476 H1449 0.950 . S
C1476 C1462 1.377 . S
C1476 C1475 1.373 . S
C1477 C1461 1.377 . S
C1477 C1475 1.389 . S
C1477 C1478 1.524 . S
C1478 C1477 1.524 . S
C1478 C1479 1.397 . S
C1478 C1483 1.363 . S
C1479 H1450 0.950 . S
C1479 C1478 1.397 . S
C1479 C1480 1.334 . S
C1480 H1451 0.950 . S
C1480 C1479 1.334 . S
C1480 C1481 1.287 . S
C1481 C1480 1.287 . S
C1481 C1482 1.524 . S
C1481 H1484 0.999 . S
C1482 H1452 0.950 . S
C1482 C1481 1.524 . S
C1482 C1483 1.415 . S
C1483 H1453 0.950 . S
C1483 C1478 1.363 . S
C1483 C1482 1.415 . S
H1484 C1481 0.999 . S
H1485 C1466 0.913 . S
H1486 C1504 0.951 . S
H1487 C1506 0.951 . S
H1488 C1508 0.950 . S
H1489 C1509 0.950 . S
H1490 C1511 0.950 . S
H1491 C1514 0.950 . S
H1492 C1515 0.950 1_455 S
H1493 C1517 0.950 . S
H1494 C1518 0.950 . S
H1495 C1519 0.951 . S
H1496 C1521 0.951 . S
H1497 C1523 0.950 . S
H1498 C1524 0.950 . S
H1499 C1526 0.950 . S
H1500 C1529 0.950 . S
H1501 C1530 0.950 1_655 S
H1502 C1532 0.950 . S
H1503 C1533 0.950 . S
C1504 H1486 0.951 . S
C1504 C1505 1.366 1_655 S
C1504 C1506 1.388 . S
C1505 C1504 1.366 1_455 S
C1505 C1509 1.385 . S
C1506 H1487 0.951 . S
C1506 C1504 1.388 . S
C1506 C1507 1.366 1_655 S
C1507 C1506 1.366 1_455 S
C1507 C1508 1.414 . S
C1507 C1510 1.499 . S
C1508 H1488 0.950 . S
C1508 C1507 1.414 . S
C1508 C1509 1.374 . S
C1509 H1489 0.950 . S
C1509 C1505 1.385 . S
C1509 C1508 1.374 . S
C1510 C1507 1.499 . S
C1510 C1511 1.373 . S
C1510 C1512 1.389 1_455 S
C1511 H1490 0.950 . S
C1511 C1510 1.373 . S
C1511 C1527 1.377 . S
C1512 C1510 1.389 1_655 S
C1512 C1513 1.524 . S
C1512 C1526 1.377 . S
C1513 C1512 1.524 . S
C1513 C1514 1.397 1_655 S
C1513 C1518 1.363 . S
C1514 H1491 0.950 . S
C1514 C1513 1.397 1_455 S
C1514 C1515 1.334 1_455 S
C1515 H1492 0.950 1_655 S
C1515 C1514 1.334 1_655 S
C1515 C1516 1.287 . S
C1516 C1515 1.287 . S
C1516 C1517 1.524 . S
C1516 H1535 0.913 . S
C1517 H1493 0.950 . S
C1517 C1516 1.524 . S
C1517 C1518 1.415 . S
C1518 H1494 0.950 . S
C1518 C1513 1.363 . S
C1518 C1517 1.415 . S
C1519 H1495 0.951 . S
C1519 C1520 1.366 1_455 S
C1519 C1521 1.388 . S
C1520 C1519 1.366 1_655 S
C1520 C1524 1.385 . S
C1521 H1496 0.951 . S
C1521 C1519 1.388 . S
C1521 C1522 1.366 1_455 S
C1522 C1521 1.366 1_655 S
C1522 C1523 1.414 . S
C1522 C1525 1.499 . S
C1523 H1497 0.950 . S
C1523 C1522 1.414 . S
C1523 C1524 1.374 . S
C1524 H1498 0.950 . S
C1524 C1520 1.385 . S
C1524 C1523 1.374 . S
C1525 C1522 1.499 . S
C1525 C1526 1.373 . S
C1525 C1527 1.389 1_655 S
C1526 H1499 0.950 . S
C1526 C1512 1.377 . S
C1526 C1525 1.373 . S
C1527 C1511 1.377 . S
C1527 C1525 1.389 1_455 S
C1527 C1528 1.524 . S
C1528 C1527 1.524 . S
C1528 C1529 1.397 1_455 S
C1528 C1533 1.363 . S
C1529 H1500 0.950 . S
C1529 C1528 1.397 1_655 S
C1529 C1530 1.334 1_655 S
C1530 H1501 0.950 1_455 S
C1530 C1529 1.334 1_455 S
C1530 C1531 1.287 . S
C1531 C1530 1.287 . S
C1531 C1532 1.524 . S
C1531 H1534 0.999 . S
C1532 H1502 0.950 . S
C1532 C1531 1.524 . S
C1532 C1533 1.415 . S
C1533 H1503 0.950 . S
C1533 C1528 1.363 . S
C1533 C1532 1.415 . S
H1534 C1531 0.999 . S
H1535 C1516 0.913 . S
H1536 C1554 0.951 . S
H1537 C1556 0.951 . S
H1538 C1558 0.950 . S
H1539 C1559 0.950 . S
H1540 C1561 0.950 . S
H1541 C1564 0.973 . S
H1542 C1565 0.950 . S
H1543 C1567 0.950 . S
H1544 C1568 0.950 . S
H1545 C1569 0.951 . S
H1546 C1571 0.951 . S
H1547 C1573 0.950 . S
H1548 C1574 0.950 . S
H1549 C1576 0.950 . S
H1550 C1579 0.982 . S
H1551 C1580 0.950 . S
H1552 C1582 0.950 . S
H1553 C1583 0.950 . S
C1554 H1536 0.951 . S
C1554 C1555 1.366 . S
C1554 C1556 1.388 . S
C1555 C1554 1.366 . S
C1555 C1559 1.385 1_455 S
C1556 H1537 0.951 . S
C1556 C1554 1.388 . S
C1556 C1557 1.366 . S
C1557 C1556 1.366 . S
C1557 C1558 1.414 1_455 S
C1557 C1560 1.499 . S
C1558 H1538 0.950 . S
C1558 C1557 1.414 1_655 S
C1558 C1559 1.374 . S
C1559 H1539 0.950 . S
C1559 C1555 1.385 1_655 S
C1559 C1558 1.374 . S
C1560 C1557 1.499 . S
C1560 C1561 1.373 1_455 S
C1560 C1562 1.389 . S
C1561 H1540 0.950 . S
C1561 C1560 1.373 1_655 S
C1561 C1577 1.377 1_545 S
C1562 C1560 1.389 . S
C1562 C1563 1.524 . S
C1562 C1576 1.377 1_545 S
C1563 C1562 1.524 . S
C1563 C1564 1.397 . S
C1563 C1568 1.363 . S
C1564 H1541 0.973 . S
C1564 C1563 1.397 . S
C1564 C1565 1.334 . S
C1565 H1542 0.950 . S
C1565 C1564 1.334 . S
C1565 C1566 1.287 . S
C1566 C1565 1.287 . S
C1566 C1567 1.524 . S
C1566 H1585 0.913 . S
C1567 H1543 0.950 . S
C1567 C1566 1.524 . S
C1567 C1568 1.415 . S
C1568 H1544 0.950 . S
C1568 C1563 1.363 . S
C1568 C1567 1.415 . S
C1569 H1545 0.951 . S
C1569 C1570 1.366 . S
C1569 C1571 1.388 . S
C1570 C1569 1.366 . S
C1570 C1574 1.385 1_655 S
C1571 H1546 0.951 . S
C1571 C1569 1.388 . S
C1571 C1572 1.366 . S
C1572 C1571 1.366 . S
C1572 C1573 1.414 1_655 S
C1572 C1575 1.499 . S
C1573 H1547 0.950 . S
C1573 C1572 1.414 1_455 S
C1573 C1574 1.374 . S
C1574 H1548 0.950 . S
C1574 C1570 1.385 1_455 S
C1574 C1573 1.374 . S
C1575 C1572 1.499 . S
C1575 C1576 1.373 1_655 S
C1575 C1577 1.389 . S
C1576 H1549 0.950 . S
C1576 C1562 1.377 1_565 S
C1576 C1575 1.373 1_455 S
C1577 C1561 1.377 1_565 S
C1577 C1575 1.389 . S
C1577 C1578 1.524 . S
C1578 C1577 1.524 . S
C1578 C1579 1.397 . S
C1578 C1583 1.363 . S
C1579 H1550 0.982 . S
C1579 C1578 1.397 . S
C1579 C1580 1.334 . S
C1580 H1551 0.950 . S
C1580 C1579 1.334 . S
C1580 C1581 1.287 . S
C1581 C1580 1.287 . S
C1581 C1582 1.524 . S
C1581 H1584 0.999 . S
C1582 H1552 0.950 . S
C1582 C1581 1.524 . S
C1582 C1583 1.415 . S
C1583 H1553 0.950 . S
C1583 C1578 1.363 . S
C1583 C1582 1.415 . S
H1584 C1581 0.999 . S
H1585 C1566 0.913 . S
H1586 C1604 0.951 . S
H1587 C1606 0.951 . S
H1588 C1608 0.950 . S
H1589 C1609 0.950 . S
H1590 C1611 0.950 . S
H1591 C1614 0.950 1_545 S
H1592 C1615 0.950 . S
H1593 C1617 0.950 . S
H1594 C1618 0.950 . S
H1595 C1619 0.951 . S
H1596 C1621 0.951 . S
H1597 C1623 0.950 . S
H1598 C1624 0.950 . S
H1599 C1626 0.950 . S
H1600 C1629 0.950 1_565 S
H1601 C1630 0.950 . S
H1602 C1632 0.950 . S
H1603 C1633 0.950 . S
C1604 H1586 0.951 . S
C1604 C1605 1.366 1_565 S
C1604 C1606 1.388 . S
C1605 C1604 1.366 1_545 S
C1605 C1609 1.385 . S
C1606 H1587 0.951 . S
C1606 C1604 1.388 . S
C1606 C1607 1.366 1_565 S
C1607 C1606 1.366 1_545 S
C1607 C1608 1.414 . S
C1607 C1610 1.499 . S
C1608 H1588 0.950 . S
C1608 C1607 1.414 . S
C1608 C1609 1.374 . S
C1609 H1589 0.950 . S
C1609 C1605 1.385 . S
C1609 C1608 1.374 . S
C1610 C1607 1.499 . S
C1610 C1611 1.373 . S
C1610 C1612 1.389 1_545 S
C1611 H1590 0.950 . S
C1611 C1610 1.373 . S
C1611 C1627 1.377 1_655 S
C1612 C1610 1.389 1_565 S
C1612 C1613 1.524 . S
C1612 C1626 1.377 1_655 S
C1613 C1612 1.524 . S
C1613 C1614 1.397 . S
C1613 C1618 1.363 . S
C1614 H1591 0.950 1_565 S
C1614 C1613 1.397 . S
C1614 C1615 1.334 . S
C1615 H1592 0.950 . S
C1615 C1614 1.334 . S
C1615 C1616 1.287 . S
C1616 C1615 1.287 . S
C1616 C1617 1.524 . S
C1616 H1635 0.913 . S
C1617 H1593 0.950 . S
C1617 C1616 1.524 . S
C1617 C1618 1.415 . S
C1618 H1594 0.950 . S
C1618 C1613 1.363 . S
C1618 C1617 1.415 . S
C1619 H1595 0.951 . S
C1619 C1620 1.366 1_545 S
C1619 C1621 1.388 . S
C1620 C1619 1.366 1_565 S
C1620 C1624 1.385 . S
C1621 H1596 0.951 . S
C1621 C1619 1.388 . S
C1621 C1622 1.366 1_545 S
C1622 C1621 1.366 1_565 S
C1622 C1623 1.414 . S
C1622 C1625 1.499 . S
C1623 H1597 0.950 . S
C1623 C1622 1.414 . S
C1623 C1624 1.374 . S
C1624 H1598 0.950 . S
C1624 C1620 1.385 . S
C1624 C1623 1.374 . S
C1625 C1622 1.499 . S
C1625 C1626 1.373 . S
C1625 C1627 1.389 1_565 S
C1626 H1599 0.950 . S
C1626 C1612 1.377 1_455 S
C1626 C1625 1.373 . S
C1627 C1611 1.377 1_455 S
C1627 C1625 1.389 1_545 S
C1627 C1628 1.524 . S
C1628 C1627 1.524 . S
C1628 C1629 1.397 . S
C1628 C1633 1.363 . S
C1629 H1600 0.950 1_545 S
C1629 C1628 1.397 . S
C1629 C1630 1.334 . S
C1630 H1601 0.950 . S
C1630 C1629 1.334 . S
C1630 C1631 1.287 . S
C1631 C1630 1.287 . S
C1631 C1632 1.524 . S
C1631 H1634 0.999 . S
C1632 H1602 0.950 . S
C1632 C1631 1.524 . S
C1632 C1633 1.415 . S
C1633 H1603 0.950 . S
C1633 C1628 1.363 . S
C1633 C1632 1.415 . S
H1634 C1631 0.999 . S
H1635 C1616 0.913 . S
H1636 C1654 0.951 . S
H1637 C1656 0.951 . S
H1638 C1658 0.950 . S
H1639 C1659 0.950 . S
H1640 C1661 0.950 . S
H1641 C1664 0.950 . S
H1642 C1665 0.950 . S
H1643 C1667 0.950 . S
H1644 C1668 0.950 . S
H1645 C1669 0.951 . S
H1646 C1671 0.951 . S
H1647 C1673 0.950 . S
H1648 C1674 0.950 . S
H1649 C1676 0.950 . S
H1650 C1679 0.950 . S
H1651 C1680 0.950 . S
H1652 C1682 0.950 . S
H1653 C1683 0.950 . S
C1654 H1636 0.951 . S
C1654 C1655 1.366 . S
C1654 C1656 1.388 . S
C1655 C1654 1.366 . S
C1655 C1659 1.385 . S
C1656 H1637 0.951 . S
C1656 C1654 1.388 . S
C1656 C1657 1.366 . S
C1657 C1656 1.366 . S
C1657 C1658 1.414 . S
C1657 C1660 1.499 . S
C1658 H1638 0.950 . S
C1658 C1657 1.414 . S
C1658 C1659 1.374 . S
C1659 H1639 0.950 . S
C1659 C1655 1.385 . S
C1659 C1658 1.374 . S
C1660 C1657 1.499 . S
C1660 C1661 1.373 . S
C1660 C1662 1.397 . S
C1661 H1640 0.950 . S
C1661 C1660 1.373 . S
C1661 C1677 1.376 1_445 S
C1662 C1660 1.397 . S
C1662 C1663 1.509 1_545 S
C1662 C1676 1.372 1_445 S
C1663 C1662 1.509 1_565 S
C1663 C1664 1.377 1_565 S
C1663 C1668 1.394 . S
C1664 H1641 0.950 . S
C1664 C1663 1.377 1_545 S
C1664 C1665 1.334 . S
C1665 H1642 0.950 . S
C1665 C1664 1.334 . S
C1665 C1666 1.308 . S
C1666 C1665 1.308 . S
C1666 C1667 1.509 1_545 S
C1666 H1685 0.907 . S
C1667 H1643 0.950 . S
C1667 C1666 1.509 1_565 S
C1667 C1668 1.415 . S
C1668 H1644 0.950 . S
C1668 C1663 1.394 . S
C1668 C1667 1.415 . S
C1669 H1645 0.951 . S
C1669 C1670 1.366 . S
C1669 C1671 1.388 . S
C1670 C1669 1.366 . S
C1670 C1674 1.385 . S
C1671 H1646 0.951 . S
C1671 C1669 1.388 . S
C1671 C1672 1.366 . S
C1672 C1671 1.366 . S
C1672 C1673 1.414 . S
C1672 C1675 1.499 . S
C1673 H1647 0.950 . S
C1673 C1672 1.414 . S
C1673 C1674 1.374 . S
C1674 H1648 0.950 . S
C1674 C1670 1.385 . S
C1674 C1673 1.374 . S
C1675 C1672 1.499 . S
C1675 C1676 1.373 . S
C1675 C1677 1.391 . S
C1676 H1649 0.950 . S
C1676 C1662 1.372 1_665 S
C1676 C1675 1.373 . S
C1677 C1661 1.376 1_665 S
C1677 C1675 1.391 . S
C1677 C1678 1.509 1_565 S
C1678 C1677 1.509 1_545 S
C1678 C1679 1.372 1_545 S
C1678 C1683 1.401 . S
C1679 H1650 0.950 . S
C1679 C1678 1.372 1_565 S
C1679 C1680 1.334 . S
C1680 H1651 0.950 . S
C1680 C1679 1.334 . S
C1680 C1681 1.300 . S
C1681 C1680 1.300 . S
C1681 C1682 1.514 1_565 S
C1681 H1684 0.990 1_565 S
C1682 H1652 0.950 . S
C1682 C1681 1.514 1_545 S
C1682 C1683 1.415 . S
C1683 H1653 0.950 . S
C1683 C1678 1.401 . S
C1683 C1682 1.415 . S
H1684 C1681 0.990 1_545 S
H1685 C1666 0.907 . S
H1686 C1704 0.951 . S
H1687 C1706 0.951 . S
H1688 C1708 0.950 . S
H1689 C1709 0.950 . S
H1690 C1711 0.950 . S
H1691 C1714 0.950 . S
H1692 C1715 0.950 . S
H1693 C1717 0.950 . S
H1694 C1718 0.950 . S
H1695 C1719 0.951 . S
H1696 C1721 0.951 . S
H1697 C1723 0.950 . S
H1698 C1724 0.950 . S
H1699 C1726 0.950 . S
H1700 C1729 0.950 . S
H1701 C1730 0.950 . S
H1702 C1732 0.950 . S
H1703 C1733 0.950 . S
C1704 H1686 0.951 . S
C1704 C1705 1.366 . S
C1704 C1706 1.388 . S
C1705 C1704 1.366 . S
C1705 C1709 1.385 1_565 S
C1706 H1687 0.951 . S
C1706 C1704 1.388 . S
C1706 C1707 1.366 . S
C1707 C1706 1.366 . S
C1707 C1708 1.414 1_565 S
C1707 C1710 1.499 . S
C1708 H1688 0.950 . S
C1708 C1707 1.414 1_545 S
C1708 C1709 1.374 . S
C1709 H1689 0.950 . S
C1709 C1705 1.385 1_545 S
C1709 C1708 1.374 . S
C1710 C1707 1.499 . S
C1710 C1711 1.373 1_565 S
C1710 C1712 1.389 . S
C1711 H1690 0.950 . S
C1711 C1710 1.373 1_545 S
C1711 C1727 1.377 1_655 S
C1712 C1710 1.389 . S
C1712 C1713 1.524 . S
C1712 C1726 1.377 1_655 S
C1713 C1712 1.524 . S
C1713 C1714 1.397 . S
C1713 C1718 1.363 . S
C1714 H1691 0.950 . S
C1714 C1713 1.397 . S
C1714 C1715 1.334 . S
C1715 H1692 0.950 . S
C1715 C1714 1.334 . S
C1715 C1716 1.287 . S
C1716 C1715 1.287 . S
C1716 C1717 1.524 . S
C1716 H1735 0.913 . S
C1717 H1693 0.950 . S
C1717 C1716 1.524 . S
C1717 C1718 1.415 . S
C1718 H1694 0.950 . S
C1718 C1713 1.363 . S
C1718 C1717 1.415 . S
C1719 H1695 0.951 . S
C1719 C1720 1.366 . S
C1719 C1721 1.388 . S
C1720 C1719 1.366 . S
C1720 C1724 1.385 1_545 S
C1721 H1696 0.951 . S
C1721 C1719 1.388 . S
C1721 C1722 1.366 . S
C1722 C1721 1.366 . S
C1722 C1723 1.414 1_545 S
C1722 C1725 1.499 . S
C1723 H1697 0.950 . S
C1723 C1722 1.414 1_565 S
C1723 C1724 1.374 . S
C1724 H1698 0.950 . S
C1724 C1720 1.385 1_565 S
C1724 C1723 1.374 . S
C1725 C1722 1.499 . S
C1725 C1726 1.373 1_545 S
C1725 C1727 1.389 . S
C1726 H1699 0.950 . S
C1726 C1712 1.377 1_455 S
C1726 C1725 1.373 1_565 S
C1727 C1711 1.377 1_455 S
C1727 C1725 1.389 . S
C1727 C1728 1.524 . S
C1728 C1727 1.524 . S
C1728 C1729 1.397 . S
C1728 C1733 1.363 . S
C1729 H1700 0.950 . S
C1729 C1728 1.397 . S
C1729 C1730 1.334 . S
C1730 H1701 0.950 . S
C1730 C1729 1.334 . S
C1730 C1731 1.287 . S
C1731 C1730 1.287 . S
C1731 C1732 1.524 . S
C1731 H1734 0.999 . S
C1732 H1702 0.950 . S
C1732 C1731 1.524 . S
C1732 C1733 1.415 . S
C1733 H1703 0.950 . S
C1733 C1728 1.363 . S
C1733 C1732 1.415 . S
H1734 C1731 0.999 . S
H1735 C1716 0.913 . S
H1736 C1754 0.951 . S
H1737 C1756 0.951 . S
H1738 C1758 0.950 . S
H1739 C1759 0.950 . S
H1740 C1761 0.950 . S
H1741 C1764 0.950 1_655 S
H1742 C1765 0.950 . S
H1743 C1767 0.950 . S
H1744 C1768 0.950 . S
H1745 C1769 0.951 . S
H1746 C1771 0.951 . S
H1747 C1773 0.950 . S
H1748 C1774 0.950 . S
H1749 C1776 0.950 . S
H1750 C1779 0.950 1_455 S
H1751 C1780 0.950 . S
H1752 C1782 0.950 . S
H1753 C1783 0.950 . S
C1754 H1736 0.951 . S
C1754 C1755 1.366 . S
C1754 C1756 1.388 . S
C1755 C1754 1.366 . S
C1755 C1759 1.385 . S
C1756 H1737 0.951 . S
C1756 C1754 1.388 . S
C1756 C1757 1.366 . S
C1757 C1756 1.366 . S
C1757 C1758 1.414 . S
C1757 C1760 1.499 . S
C1758 H1738 0.950 . S
C1758 C1757 1.414 . S
C1758 C1759 1.374 . S
C1759 H1739 0.950 . S
C1759 C1755 1.385 . S
C1759 C1758 1.374 . S
C1760 C1757 1.499 . S
C1760 C1761 1.373 . S
C1760 C1762 1.359 1_655 S
C1761 H1740 0.950 . S
C1761 C1760 1.373 . S
C1761 C1777 1.377 1_565 S
C1762 C1760 1.359 1_455 S
C1762 C1763 1.546 . S
C1762 C1776 1.390 1_565 S
C1763 C1762 1.546 . S
C1763 C1764 1.397 . S
C1763 C1768 1.363 . S
C1764 H1741 0.950 1_455 S
C1764 C1763 1.397 . S
C1764 C1765 1.334 . S
C1765 H1742 0.950 . S
C1765 C1764 1.334 . S
C1765 C1766 1.287 . S
C1766 C1765 1.287 . S
C1766 C1767 1.524 . S
C1766 H1785 0.913 . S
C1767 H1743 0.950 . S
C1767 C1766 1.524 . S
C1767 C1768 1.415 . S
C1768 H1744 0.950 . S
C1768 C1763 1.363 . S
C1768 C1767 1.415 . S
C1769 H1745 0.951 . S
C1769 C1770 1.366 . S
C1769 C1771 1.388 . S
C1770 C1769 1.366 . S
C1770 C1774 1.385 . S
C1771 H1746 0.951 . S
C1771 C1769 1.388 . S
C1771 C1772 1.366 . S
C1772 C1771 1.366 . S
C1772 C1773 1.414 . S
C1772 C1775 1.499 . S
C1773 H1747 0.950 . S
C1773 C1772 1.414 . S
C1773 C1774 1.374 . S
C1774 H1748 0.950 . S
C1774 C1770 1.385 . S
C1774 C1773 1.374 . S
C1775 C1772 1.499 . S
C1775 C1776 1.373 . S
C1775 C1777 1.389 1_455 S
C1776 H1749 0.950 . S
C1776 C1762 1.390 1_545 S
C1776 C1775 1.373 . S
C1777 C1761 1.377 1_545 S
C1777 C1775 1.389 1_655 S
C1777 C1778 1.524 . S
C1778 C1777 1.524 . S
C1778 C1779 1.397 . S
C1778 C1783 1.363 . S
C1779 H1750 0.950 1_655 S
C1779 C1778 1.397 . S
C1779 C1780 1.334 . S
C1780 H1751 0.950 . S
C1780 C1779 1.334 . S
C1780 C1781 1.287 . S
C1781 C1780 1.287 . S
C1781 C1782 1.524 . S
C1781 H1784 0.999 . S
C1782 H1752 0.950 . S
C1782 C1781 1.524 . S
C1782 C1783 1.415 . S
C1783 H1753 0.950 . S
C1783 C1778 1.363 . S
C1783 C1782 1.415 . S
H1784 C1781 0.999 . S
H1785 C1766 0.913 . S
H1786 C1804 0.951 . S
H1787 C1806 0.951 . S
H1788 C1808 0.950 . S
H1789 C1809 0.950 . S
H1790 C1811 0.950 . S
H1791 C1814 0.950 . S
H1792 C1815 0.950 . S
H1793 C1817 0.950 . S
H1794 C1818 0.950 . S
H1795 C1819 0.951 . S
H1796 C1821 0.951 . S
H1797 C1823 0.950 . S
H1798 C1824 0.950 . S
H1799 C1826 0.950 . S
H1800 C1829 0.950 . S
H1801 C1830 0.950 . S
H1802 C1832 0.950 . S
H1803 C1833 0.950 . S
C1804 H1786 0.951 . S
C1804 C1805 1.366 . S
C1804 C1806 1.388 . S
C1805 C1804 1.366 . S
C1805 C1809 1.385 1_455 S
C1806 H1787 0.951 . S
C1806 C1804 1.388 . S
C1806 C1807 1.366 . S
C1807 C1806 1.366 . S
C1807 C1808 1.414 1_455 S
C1807 C1810 1.499 . S
C1808 H1788 0.950 . S
C1808 C1807 1.414 1_655 S
C1808 C1809 1.374 . S
C1809 H1789 0.950 . S
C1809 C1805 1.385 1_655 S
C1809 C1808 1.374 . S
C1810 C1807 1.499 . S
C1810 C1811 1.373 1_455 S
C1810 C1812 1.364 1_565 S
C1811 H1790 0.950 . S
C1811 C1810 1.373 1_655 S
C1811 C1827 1.411 . S
C1812 C1810 1.364 1_545 S
C1812 C1813 1.511 . S
C1812 C1826 1.418 . S
C1813 C1812 1.511 . S
C1813 C1814 1.397 1_545 S
C1813 C1818 1.363 . S
C1814 H1791 0.950 . S
C1814 C1813 1.397 1_565 S
C1814 C1815 1.334 . S
C1815 H1792 0.950 . S
C1815 C1814 1.334 . S
C1815 C1816 1.287 1_565 S
C1816 C1815 1.287 1_545 S
C1816 C1817 1.524 . S
C1816 H1835 0.913 . S
C1817 H1793 0.950 . S
C1817 C1816 1.524 . S
C1817 C1818 1.415 . S
C1818 H1794 0.950 . S
C1818 C1813 1.363 . S
C1818 C1817 1.415 . S
C1819 H1795 0.951 . S
C1819 C1820 1.366 . S
C1819 C1821 1.388 . S
C1820 C1819 1.366 . S
C1820 C1824 1.385 1_655 S
C1821 H1796 0.951 . S
C1821 C1819 1.388 . S
C1821 C1822 1.366 . S
C1822 C1821 1.366 . S
C1822 C1823 1.414 1_655 S
C1822 C1825 1.499 . S
C1823 H1797 0.950 . S
C1823 C1822 1.414 1_455 S
C1823 C1824 1.374 . S
C1824 H1798 0.950 . S
C1824 C1820 1.385 1_455 S
C1824 C1823 1.374 . S
C1825 C1822 1.499 . S
C1825 C1826 1.373 1_655 S
C1825 C1827 1.368 1_545 S
C1826 H1799 0.950 . S
C1826 C1812 1.418 . S
C1826 C1825 1.373 1_455 S
C1827 C1811 1.411 . S
C1827 C1825 1.368 1_565 S
C1827 C1828 1.514 . S
C1828 C1827 1.514 . S
C1828 C1829 1.397 1_565 S
C1828 C1833 1.363 . S
C1829 H1800 0.950 . S
C1829 C1828 1.397 1_545 S
C1829 C1830 1.334 . S
C1830 H1801 0.950 . S
C1830 C1829 1.334 . S
C1830 C1831 1.287 1_545 S
C1831 C1830 1.287 1_565 S
C1831 C1832 1.524 . S
C1831 H1834 0.999 . S
C1832 H1802 0.950 . S
C1832 C1831 1.524 . S
C1832 C1833 1.415 . S
C1833 H1803 0.950 . S
C1833 C1828 1.363 . S
C1833 C1832 1.415 . S
H1834 C1831 0.999 . S
H1835 C1816 0.913 . S
C655 C622 1.859 . S
C670 C39 1.859 . S
C705 C92 1.859 . S
C720 C357 1.859 . S
C755 C145 1.859 . S
C770 C410 1.859 . S
C805 C198 1.859 . S
C820 C463 1.859 . S
C855 C516 1.859 . S
C870 C251 1.859 . S
C905 C304 1.859 . S
C920 C569 1.859 . S
C955 C38 1.855 . S
C970 C568 1.855 . S
C1005 C91 1.855 . S
C1020 C621 1.855 . S
C1055 C144 1.855 . S
C1070 C356 1.855 . S
C1105 C197 1.855 . S
C1120 C409 1.855 . S
C1155 C462 1.855 . S
C1170 C250 1.855 . S
C1205 C515 1.855 . S
C1220 C303 1.855 . S
C1255 C181 1.537 . S
C1270 C22 1.537 . S
C1305 C75 1.537 . S
C1320 C234 1.537 . S
C1355 C287 1.537 . S
C1370 C128 1.538 . S
C1405 C499 1.537 . S
C1420 C340 1.537 . S
C1455 C552 1.537 . S
C1470 C393 1.538 . S
C1505 C446 1.537 . S
C1520 C605 1.537 . S
C1555 C29 1.586 . S
C1570 C188 1.586 . S
C1605 C82 1.586 . S
C1620 C241 1.586 . S
C1655 C294 1.586 . S
C1670 C135 1.586 . S
C1705 C347 1.586 . S
C1720 C506 1.586 . S
C1755 C400 1.586 . S
C1770 C559 1.586 . S
C1805 C453 1.586 . S
C1820 C612 1.586 . S
