# Generated by pormake.
# Topology fnu, (5)-cn, num edge types: 1
# Building blocks:
#     Node 0, Type 0, BuildingBlock: XOMCOT_clean_sbu_1, # of connection points: 5
#     Node 1, Type 0, BuildingBlock: XOMCOT_clean_sbu_1, # of connection points: 5
#     Node 2, Type 0, BuildingBlock: XOMCOT_clean_sbu_1, # of connection points: 5
#     Node 3, Type 0, BuildingBlock: XOMCOT_clean_sbu_1, # of connection points: 5
#     Node 4, Type 0, BuildingBlock: XOMCOT_clean_sbu_1, # of connection points: 5
#     Node 5, Type 0, BuildingBlock: XOMCOT_clean_sbu_1, # of connection points: 5
#     Edge 6, Type (0, 0), BuildingBlock: CIFDUS_clean_linker_0, # of connection points: 2
#     Edge 7, Type (0, 0), BuildingBlock: CIFDUS_clean_linker_0, # of connection points: 2
#     Edge 8, Type (0, 0), BuildingBlock: CIFDUS_clean_linker_0, # of connection points: 2
#     Edge 9, Type (0, 0), BuildingBlock: CIFDUS_clean_linker_0, # of connection points: 2
#     Edge 10, Type (0, 0), BuildingBlock: CIFDUS_clean_linker_0, # of connection points: 2
#     Edge 11, Type (0, 0), BuildingBlock: CIFDUS_clean_linker_0, # of connection points: 2
#     Edge 12, Type (0, 0), BuildingBlock: CIFDUS_clean_linker_0, # of connection points: 2
#     Edge 13, Type (0, 0), BuildingBlock: CIFDUS_clean_linker_0, # of connection points: 2
#     Edge 14, Type (0, 0), BuildingBlock: CIFDUS_clean_linker_0, # of connection points: 2
#     Edge 15, Type (0, 0), BuildingBlock: CIFDUS_clean_linker_0, # of connection points: 2
#     Edge 16, Type (0, 0), BuildingBlock: CIFDUS_clean_linker_0, # of connection points: 2
#     Edge 17, Type (0, 0), BuildingBlock: CIFDUS_clean_linker_0, # of connection points: 2
#     Edge 18, Type (0, 0), BuildingBlock: CIFDUS_clean_linker_0, # of connection points: 2
#     Edge 19, Type (0, 0), BuildingBlock: CIFDUS_clean_linker_0, # of connection points: 2
#     Edge 20, Type (0, 0), BuildingBlock: CIFDUS_clean_linker_0, # of connection points: 2
# Relax obj value: 0.200
# Max RMSD: 0.143
# Mean RMSD: 0.143
data_MOF--net-fnu--node1-XOMCOT_clean_sbu_1--edge1-CIFDUS_clean_linker_0
_symmetry_space_group_name_H-M    P1
_symmetry_Int_Tables_number       1
_symmetry_cell_setting            triclinic
loop_
_symmetry_equiv_pos_as_xyz
'x, y, z'
_cell_length_a     23.161324
_cell_length_b     23.642037
_cell_length_c     29.971258
_cell_angle_alpha  90.302551
_cell_angle_beta   94.489907
_cell_angle_gamma 120.66623
loop_
_atom_site_label
_atom_site_type_symbol
_atom_site_fract_x
_atom_site_fract_y
_atom_site_fract_z
_atom_type_partial_charge
C0 C 0.12014 0.16093 0.32087 0.0
C1 C 0.12451 0.17037 0.36651 0.0
N2 N 0.07653 0.11472 0.38281 0.0
N3 N 1.0692 0.09946 0.3076 0.0
C4 C 1.04343 0.07287 0.34653 0.0
H5 H 0.15359 0.19726 0.29927 0.0
Co6 Co 1.0485 0.05737 0.24905 0.0
C7 C 0.99549 0.1457 0.23206 0.0
O8 O 1.05416 0.19448 0.24895 0.0
N9 N 1.03011 1.01594 0.19344 0.0
C10 C 0.98742 0.96881 0.12562 0.0
C11 C 0.97658 0.99495 0.16281 0.0
C12 C 0.07201 1.00118 0.17472 0.0
N13 N 1.04785 0.97323 0.13303 0.0
O14 O 0.11892 0.13528 0.22452 0.0
H15 H 0.93341 1.00003 0.16651 0.0
H16 H 0.12064 1.01329 0.19087 0.0
O17 O 0.98424 0.08673 0.23216 0.0
C18 C 0.18012 0.14951 0.22797 0.0
O19 O 0.19868 0.11739 0.25547 0.0
N20 N 0.98233 0.97697 0.26915 0.0
C21 C 0.90454 0.83956 0.26229 0.0
C22 C 0.87491 0.87788 0.25268 0.0
C23 C 0.91472 0.9469 0.25665 0.0
C24 C 1.0104 0.94072 0.28273 0.0
C25 C 0.97243 0.87204 0.27979 0.0
H26 H 0.89251 0.97539 0.24512 0.0
H27 H 1.06434 0.96518 0.29111 0.0
H28 H 1.00291 1.02271 0.34879 0.0
H29 H 0.16077 0.21479 0.38616 0.0
H30 H 0.95547 0.95246 0.09434 0.0
H31 H 0.82247 0.85489 0.23969 0.0
H32 H 0.99788 0.84498 0.28729 0.0
C33 C 1.02145 0.06508 0.70864 0.0
C34 C 1.0136 0.07095 0.66345 0.0
N35 N 0.07307 0.09174 0.64682 0.0
N36 N 0.08596 0.0825 0.72136 0.0
C37 C 0.11628 0.09895 0.68263 0.0
H38 H 0.98138 0.04828 0.73026 0.0
Co39 Co 0.12009 0.07629 0.77974 0.0
C40 C 0.16018 0.21716 0.78146 0.0
O41 O 0.10401 0.20317 0.75767 0.0
N42 N 0.15367 0.06882 0.83638 0.0
C43 C 0.22029 0.08445 0.89818 0.0
C44 C 0.21413 0.11059 0.85863 0.0
C45 C 0.12501 1.01706 0.86245 0.0
N46 N 0.16371 1.02544 0.90091 0.0
O47 O 1.04612 0.07673 0.80629 0.0
H48 H 0.25191 0.15697 0.84684 0.0
H49 H 0.07633 0.97422 0.8534 0.0
O50 O 0.17328 0.17171 0.78972 0.0
C51 C 0.99518 1.02091 0.81319 0.0
O52 O 0.99124 0.96719 0.79701 0.0
N53 N 0.19041 0.07073 0.75708 0.0
C54 C 0.29522 1.04439 0.76985 0.0
C55 C 0.30871 0.10882 0.76254 0.0
C56 C 0.25545 0.12116 0.75659 0.0
C57 C 0.17598 1.00727 0.75715 0.0
C58 C 0.22743 0.99298 0.76421 0.0
H59 H 0.26702 0.17157 0.75615 0.0
H60 H 0.12422 0.96805 0.75826 0.0
H61 H 0.16848 0.11393 0.68035 0.0
H62 H 0.96731 0.06057 0.64436 0.0
H63 H 0.26278 0.10866 0.92329 0.0
H64 H 0.35989 0.15016 0.76454 0.0
H65 H 0.21317 0.94246 0.76955 0.0
C66 C 0.86094 0.41725 0.67806 0.0
C67 C 0.84723 0.42158 0.7212 0.0
N68 N 0.78336 0.40846 0.72039 0.0
N69 N 0.8063 0.40181 0.64966 0.0
C70 C 0.75957 0.39701 0.67647 0.0
H71 H 0.90726 0.42248 0.66833 0.0
Co72 Co 0.80181 0.38008 0.58892 0.0
C73 C 0.69678 0.40536 0.54247 0.0
O74 O 0.6733 0.35331 0.51492 0.0
N75 N 0.80106 0.35789 0.52848 0.0
C76 C 0.79902 0.30468 0.46647 0.0
C77 C 0.80411 0.30606 0.51236 0.0
C78 C 0.80017 0.39029 0.49164 0.0
N79 N 0.79629 0.3576 0.45362 0.0
O80 O 0.87992 0.46494 0.58065 0.0
H81 H 0.80862 0.27037 0.53214 0.0
H82 H 0.79785 0.43485 0.49229 0.0
O83 O 0.74384 0.41816 0.5735 0.0
C84 C 0.93393 0.46328 0.57934 0.0
O85 O 0.93255 0.40814 0.58771 0.0
N86 N 0.72853 0.29414 0.59655 0.0
C87 C 0.64179 0.15993 0.57692 0.0
C88 C 0.6164 0.20264 0.57785 0.0
C89 C 0.66082 0.27 0.58883 0.0
C90 C 0.75108 0.25172 0.60458 0.0
C91 C 0.70891 0.18437 0.59393 0.0
H92 H 0.64087 0.30234 0.58854 0.0
H93 H 0.80428 0.27117 0.61357 0.0
H94 H 0.70826 0.38205 0.66435 0.0
H95 H 0.88138 0.43244 0.75106 0.0
H96 H 0.79356 0.26576 0.44412 0.0
H97 H 0.56406 0.18529 0.56705 0.0
H98 H 0.72996 0.15262 0.59577 0.0
C99 C 0.6393 0.44305 0.01836 0.0
C100 C 0.65397 0.44995 0.97429 0.0
N101 N 0.66247 0.4001 0.9616 0.0
N102 N 0.63851 0.38907 0.03348 0.0
C103 C 0.65233 0.36374 0.99806 0.0
H104 H 0.63022 0.4756 0.0382 0.0
Co105 Co 0.62004 0.3557 0.09042 0.0
C106 C 0.73342 0.47657 0.14626 0.0
O107 O 0.76029 0.44463 0.16582 0.0
N108 N 0.5978 0.3199 0.1467 0.0
C109 C 0.54917 0.24454 0.19697 0.0
C110 C 0.55137 0.25629 0.1521 0.0
C111 C 0.61921 0.34658 0.18894 0.0
N112 N 0.59283 0.30157 0.22006 0.0
O113 O 0.54778 0.37257 0.09166 0.0
H114 H 0.52204 0.2201 0.12495 0.0
H115 H 0.65194 0.39809 0.19756 0.0
O116 O 0.68139 0.44601 0.11782 0.0
C117 C 0.48744 0.32608 0.08109 0.0
O118 O 0.47744 0.27664 0.0548 0.0
N119 N 0.68931 0.33464 0.09056 0.0
C120 C 0.7832 0.29553 0.11248 0.0
C121 C 0.80416 0.35981 0.09901 0.0
C122 C 0.75616 0.37812 0.08749 0.0
C123 C 0.66804 0.26981 0.09566 0.0
C124 C 0.71372 0.24952 0.10803 0.0
H125 H 0.77298 0.42818 0.07881 0.0
H126 H 0.61496 0.23367 0.09249 0.0
H127 H 0.655 0.31937 0.99905 0.0
H128 H 0.65992 0.48969 0.95365 0.0
H129 H 0.52015 0.19715 0.21121 0.0
H130 H 0.8571 0.39646 0.09892 0.0
H131 H 0.69386 0.19884 0.11643 0.0
C132 C 0.52477 0.86961 0.99516 0.0
C133 C 0.50724 0.86148 0.03852 0.0
N134 N 0.4936 0.8013 0.05046 0.0
N135 N 0.52203 0.81477 0.97916 0.0
C136 C 0.50326 0.7742 0.01381 0.0
H137 H 0.53933 0.91336 0.97684 0.0
Co138 Co 0.54448 0.80146 0.92221 0.0
C139 C 0.52297 0.90751 0.88364 0.0
O140 O 0.58492 0.9543 0.89672 0.0
N141 N 0.56783 0.78908 0.86497 0.0
C142 C 0.61492 0.81359 0.80031 0.0
C143 C 0.61438 0.83781 0.8418 0.0
C144 C 0.54016 0.73563 0.83589 0.0
N145 N 0.56775 0.74928 0.79645 0.0
O146 O 0.63153 0.88107 0.93242 0.0
H147 H 0.64303 0.88918 0.85262 0.0
H148 H 0.49793 0.68814 0.84186 0.0
O149 O 0.50266 0.84789 0.89312 0.0
C150 C 0.67679 0.87115 0.95099 0.0
O151 O 0.65674 0.81516 0.97036 0.0
N152 N 0.46292 0.72008 0.91342 0.0
C153 C 0.36561 0.5914 0.88254 0.0
C154 C 0.35441 0.64407 0.87544 0.0
C155 C 0.40381 0.7082 0.89105 0.0
C156 C 0.47137 0.669 0.92517 0.0
C157 C 0.42392 0.60452 0.90969 0.0
H158 H 0.39558 0.74805 0.88286 0.0
H159 H 0.5186 0.67923 0.94273 0.0
H160 H 0.49806 0.7261 0.01247 0.0
H161 H 0.50406 0.89713 0.05935 0.0
H162 H 0.64333 0.84249 0.77355 0.0
H163 H 0.30913 0.63651 0.85641 0.0
H164 H 0.436 0.56659 0.91622 0.0
C165 C 0.31837 0.62663 0.34435 0.0
C166 C 0.32742 0.63672 0.29971 0.0
N167 N 0.38211 0.69647 0.29605 0.0
N168 N 0.36729 0.67919 0.36966 0.0
C169 C 0.40471 0.72158 0.33891 0.0
H170 H 0.27896 0.58258 0.35759 0.0
Co171 Co 0.3708 0.67897 0.43368 0.0
C172 C 0.48996 0.81823 0.43348 0.0
O173 O 0.52574 0.79945 0.41266 0.0
N174 N 0.37118 0.67793 0.49605 0.0
C175 C 0.36227 0.70592 0.56486 0.0
C176 C 0.36103 0.71958 0.52063 0.0
C177 C 0.37877 0.63932 0.52628 0.0
N178 N 0.37324 0.65548 0.56833 0.0
O179 O 0.29084 0.68593 0.432 0.0
H180 H 0.35319 0.75773 0.50718 0.0
H181 H 0.38984 0.60146 0.5179 0.0
O182 O 0.42942 0.77581 0.44085 0.0
C183 C 0.23927 0.62996 0.43798 0.0
O184 O 0.24636 0.57828 0.43865 0.0
N185 N 0.44441 0.66403 0.43711 0.0
C186 C 0.52814 0.61093 0.45268 0.0
C187 C 0.54215 0.66878 0.4762 0.0
C188 C 0.49938 0.69425 0.4682 0.0
C189 C 0.43052 0.60793 0.41408 0.0
C190 C 0.47181 0.58122 0.42087 0.0
H191 H 0.50811 0.73581 0.48907 0.0
H192 H 0.38444 0.58056 0.39245 0.0
H193 H 0.44777 0.7698 0.34722 0.0
H194 H 0.29558 0.60258 0.27209 0.0
H195 H 0.35859 0.73292 0.59272 0.0
H196 H 0.58456 0.69313 0.50148 0.0
H197 H 0.45712 0.5352 0.40304 0.0
H198 H 0.31017 0.24931 0.24296 0.0
H199 H 0.15196 0.1379 0.13783 0.0
H200 H 0.2324 0.18697 0.08136 0.0
H201 H 0.35077 0.25228 0.06301 0.0
H202 H 0.50655 0.37207 0.16785 0.0
H203 H 0.42423 0.33055 0.22298 0.0
C204 C 0.29324 0.23722 0.20759 0.0
C205 C 0.22563 0.18984 0.19447 0.0
C206 C 0.33944 0.26706 0.17524 0.0
C207 C 0.20386 0.17456 0.14862 0.0
C208 C 0.24991 0.20234 0.11634 0.0
C209 C 0.36628 0.27063 0.09771 0.0
C210 C 0.43494 0.31452 0.11124 0.0
C211 C 0.31825 0.24739 0.12936 0.0
C212 C 0.45417 0.33821 0.15634 0.0
C213 C 0.40712 0.31409 0.1881 0.0
H214 H 1.00512 0.26494 0.22897 0.0
H215 H 0.8764 0.06202 0.18115 0.0
H216 H 0.80237 0.0911 0.13736 0.0
H217 H 0.77552 0.17463 0.11175 0.0
H218 H 0.90138 0.37606 0.16448 0.0
H219 H 0.97645 0.34715 0.20551 0.0
C220 C 0.96072 0.22676 0.20917 0.0
C221 C 0.94668 0.16127 0.20838 0.0
C222 C 0.91841 0.24381 0.18414 0.0
C223 C 0.88865 0.11276 0.18252 0.0
C224 C 0.8464 0.12948 0.15727 0.0
C225 C 0.81884 0.2124 0.13248 0.0
C226 C 0.83213 0.27787 0.1344 0.0
C227 C 0.86098 0.19498 0.15766 0.0
C228 C 0.88995 0.32571 0.16099 0.0
C229 C 0.93272 0.30903 0.1852 0.0
H230 H 0.80358 0.53801 0.22582 0.0
H231 H 0.71634 0.56952 0.10292 0.0
H232 H 0.75733 0.68322 0.12921 0.0
H233 H 0.82274 0.77528 0.18584 0.0
H234 H 0.90654 0.74161 0.30956 0.0
H235 H 0.8618 0.62722 0.28429 0.0
C236 C 0.79368 0.56977 0.20465 0.0
C237 C 0.75769 0.54546 0.16213 0.0
C238 C 0.81658 0.63473 0.22025 0.0
C239 C 0.74419 0.58701 0.13564 0.0
C240 C 0.76759 0.65204 0.15071 0.0
C241 C 0.82999 0.74261 0.20774 0.0
C242 C 0.86838 0.76748 0.24958 0.0
C243 C 0.80421 0.67661 0.19288 0.0
C244 C 0.87798 0.72431 0.27705 0.0
C245 C 0.85241 0.65877 0.2626 0.0
H246 H 0.17963 0.33537 0.75435 0.0
H247 H 0.23463 0.24661 0.86203 0.0
H248 H 0.29872 0.35265 0.90374 0.0
H249 H 0.33742 0.46994 0.91063 0.0
H250 H 0.29269 0.56213 0.79985 0.0
H251 H 0.22453 0.45549 0.75956 0.0
C252 C 0.20606 0.33947 0.78682 0.0
C253 C 0.20284 0.2831 0.80477 0.0
C254 C 0.24372 0.40115 0.81061 0.0
C255 C 0.23732 0.28922 0.84691 0.0
C256 C 0.27349 0.34987 0.87108 0.0
C257 C 0.31374 0.46742 0.87746 0.0
C258 C 0.32046 0.525 0.85893 0.0
C259 C 0.27698 0.40617 0.85332 0.0
C260 C 0.28749 0.51917 0.81603 0.0
C261 C 0.24902 0.458 0.79245 0.0
H262 H 0.73504 0.97729 0.89699 0.0
H263 H 0.77959 0.85155 0.97837 0.0
H264 H 0.88545 0.89195 0.94542 0.0
H265 H 0.95703 0.94958 0.88565 0.0
H266 H 0.91625 0.0766 0.8039 0.0
H267 H 0.81711 0.04865 0.84418 0.0
C268 C 0.76825 0.95935 0.90793 0.0
C269 C 0.74781 0.9096 0.93916 0.0
C270 C 0.82924 0.98207 0.88808 0.0
C271 C 0.79287 0.88871 0.95385 0.0
C272 C 0.85353 0.91152 0.9348 0.0
C273 C 0.92701 0.97199 0.87726 0.0
C274 C 0.94311 1.01441 0.84172 0.0
C275 C 0.87075 0.95593 0.9006 0.0
C276 C 0.90459 1.04383 0.83127 0.0
C277 C 0.84782 1.02756 0.85416 0.0
H278 H 0.30253 0.93169 0.76056 0.0
H279 H 0.41071 0.12768 0.82427 0.0
H280 H 0.49182 0.104 0.86226 0.0
H281 H 0.52847 1.02548 0.88237 0.0
H282 H 0.41436 0.82664 0.82469 0.0
H283 H 0.33822 0.85302 0.78113 0.0
C284 C 0.34331 0.9694 0.78296 0.0
C285 C 0.34946 1.03169 0.78897 0.0
C286 C 0.3885 0.95452 0.80675 0.0
C287 C 0.40447 0.07978 0.81758 0.0
C288 C 0.45079 0.06599 0.84011 0.0
C289 C 0.48702 0.98795 0.86017 0.0
C290 C 0.47686 0.92394 0.85721 0.0
C291 C 0.4427 1.00323 0.83561 0.0
C292 C 0.42275 0.87594 0.82831 0.0
C293 C 0.37942 0.89116 0.80309 0.0
H294 H 0.9491 0.51518 0.49728 0.0
H295 H 1.05729 0.52815 0.62421 0.0
H296 H 0.16467 0.5943 0.59223 0.0
H297 H 0.22569 0.62918 0.52556 0.0
H298 H 0.11985 0.60902 0.39659 0.0
H299 H 1.01349 0.56528 0.43148 0.0
C300 C 0.99636 0.53492 0.51819 0.0
C301 C 0.99566 0.5179 0.56322 0.0
C302 C 1.05811 0.57059 0.49887 0.0
C303 C 1.05691 0.54161 0.58972 0.0
C304 C 0.11822 0.57888 0.57131 0.0
C305 C 0.18004 0.61843 0.50543 0.0
C306 C 0.18087 0.62413 0.45881 0.0
C307 C 0.11931 0.59124 0.52557 0.0
C308 C 0.12061 0.60668 0.4327 0.0
C309 C 1.05976 0.58095 0.45265 0.0
H310 H 0.658 0.4322 0.46236 0.0
H311 H 0.68268 0.48366 0.60354 0.0
H312 H 0.63624 0.55552 0.5883 0.0
H313 H 0.58188 0.59792 0.53459 0.0
H314 H 0.56481 0.54998 0.39307 0.0
H315 H 0.61512 0.48271 0.40876 0.0
C316 C 0.6532 0.45916 0.48985 0.0
C317 C 0.67255 0.45183 0.53408 0.0
C318 C 0.62773 0.50095 0.48072 0.0
C319 C 0.66769 0.48827 0.56923 0.0
C320 C 0.64109 0.52924 0.56048 0.0
C321 C 0.59038 0.57389 0.5071 0.0
C322 C 0.56824 0.5783 0.46267 0.0
C323 C 0.62017 0.53539 0.51632 0.0
C324 C 0.57965 0.54636 0.42762 0.0
C325 C 0.60868 0.50793 0.43652 0.0
H326 H 0.4408 0.87125 0.49113 0.0
H327 H 0.61624 0.91933 0.42248 0.0
H328 H 0.67768 1.0277 0.46102 0.0
H329 H 0.68374 0.10808 0.51567 0.0
H330 H 0.50982 0.0632 0.58452 0.0
H331 H 0.44579 0.95456 0.54454 0.0
C332 C 0.49226 0.90556 0.48432 0.0
C333 C 0.52372 0.88652 0.45396 0.0
C334 C 0.52791 0.96829 0.50699 0.0
C335 C 0.59053 0.93208 0.44565 0.0
C336 C 0.62597 0.99423 0.46782 0.0
C337 C 0.632 0.07425 0.52235 0.0
C338 C 0.602 0.09327 0.55367 0.0
C339 C 0.59556 1.01251 0.49898 0.0
C340 C 0.53424 0.04962 0.56082 0.0
C341 C 0.49767 0.98754 0.53794 0.0
H342 H 0.98298 1.03065 0.57478 0.0
H343 H 0.19202 0.17416 0.61326 0.0
H344 H 0.21203 0.19316 0.53429 0.0
H345 H 0.1693 0.17065 0.45446 0.0
H346 H 0.95941 1.02904 0.41665 0.0
H347 H 0.94053 1.00779 0.49539 0.0
C348 C 1.03285 0.06662 0.56608 0.0
C349 C 0.08579 0.1014 0.60017 0.0
C350 C 1.04378 0.07762 0.52068 0.0
C351 C 0.15045 0.14644 0.58789 0.0
C352 C 0.1618 0.15759 0.5427 0.0
C353 C 0.11925 0.1356 0.46337 0.0
C354 C 1.06573 0.10178 0.42945 0.0
C355 C 0.10869 0.12382 0.50883 0.0
C356 C 1.0016 0.05539 0.44183 0.0
C357 C 0.99071 1.04345 0.48693 0.0
H358 H 0.63424 0.4329 0.87965 0.0
H359 H 0.74 0.34764 0.94848 0.0
H360 H 0.78347 0.33912 0.8788 0.0
H361 H 0.7967 0.36125 0.79934 0.0
H362 H 0.69145 0.44554 0.72909 0.0
H363 H 0.64185 0.44854 0.79798 0.0
C364 C 0.66673 0.41241 0.87931 0.0
C365 C 0.68406 0.39125 0.91945 0.0
C366 C 0.69165 0.40757 0.83886 0.0
C367 C 0.72532 0.36376 0.91821 0.0
C368 C 0.75058 0.35924 0.87836 0.0
C369 C 0.76287 0.38027 0.7991 0.0
C370 C 0.74848 0.40403 0.75933 0.0
C371 C 0.73485 0.38179 0.83869 0.0
C372 C 0.70322 0.42697 0.75925 0.0
C373 C 0.67527 0.42902 0.79871 0.0
H374 H 0.36956 0.63318 0.21691 0.0
H375 H 0.45887 0.82697 0.28141 0.0
H376 H 0.50336 0.87656 0.21139 0.0
H377 H 0.51467 0.86514 0.1312 0.0
H378 H 0.42255 0.67111 0.0665 0.0
H379 H 0.38176 0.62173 0.13716 0.0
C380 C 0.3982 0.6863 0.21576 0.0
C381 C 0.41015 0.72604 0.25477 0.0
C382 C 0.42338 0.71461 0.17516 0.0
C383 C 0.44901 0.79487 0.25238 0.0
C384 C 0.47425 0.82337 0.21212 0.0
C385 C 0.48532 0.81204 0.1323 0.0
C386 C 0.47171 0.77216 0.09302 0.0
C387 C 0.46137 0.78376 0.17319 0.0
C388 C 0.43462 0.70332 0.09587 0.0
C389 C 0.41079 0.67493 0.13637 0.0
H390 H 0.99761 0.89331 0.05855 0.0
H391 H 0.18408 1.0408 0.13105 0.0
H392 H 0.24251 0.05825 0.06421 0.0
H393 H 0.23381 0.05129 0.9829 0.0
H394 H 1.04495 0.9097 0.909 0.0
H395 H 0.99535 0.86969 0.97851 0.0
C396 C 1.0513 0.92831 0.05986 0.0
C397 C 0.08555 0.96772 0.09912 0.0
C398 C 0.08412 0.94026 0.02075 0.0
C399 C 0.1558 1.01069 0.10108 0.0
C400 C 0.18938 1.02114 0.06265 0.0
C401 C 0.18209 1.01122 0.98149 0.0
C402 C 0.14216 0.9875 0.94025 0.0
C403 C 0.15291 0.98945 0.02173 0.0
C404 C 0.07642 0.93233 0.93987 0.0
C405 C 1.0477 0.90883 0.97984 0.0
H406 H 0.71539 0.39434 0.25799 0.0
H407 H 0.52507 0.2279 0.28761 0.0
H408 H 0.57165 0.23312 0.36456 0.0
H409 H 0.66931 0.27973 0.42134 0.0
H410 H 0.85851 0.44585 0.39208 0.0
H411 H 0.80923 0.44727 0.31654 0.0
C412 C 0.68329 0.36011 0.28137 0.0
C413 C 0.61678 0.31035 0.26683 0.0
C414 C 0.7105 0.36319 0.32529 0.0
C415 C 0.57662 0.26593 0.29771 0.0
C416 C 0.60317 0.26897 0.34168 0.0
C417 C 0.69912 0.31625 0.39818 0.0
C418 C 0.76714 0.36202 0.41107 0.0
C419 C 0.67045 0.31632 0.35539 0.0
C420 C 0.80609 0.41011 0.38197 0.0
C421 C 0.77794 0.41071 0.33913 0.0
H422 H 0.49408 0.67342 0.5943 0.0
H423 H 0.29613 0.60283 0.6358 0.0
H424 H 0.33907 0.61152 0.7144 0.0
H425 H 0.43677 0.66522 0.77017 0.0
H426 H 0.63707 0.74828 0.72859 0.0
H427 H 0.59019 0.70834 0.65122 0.0
C428 C 0.46024 0.65708 0.62061 0.0
C429 C 0.39235 0.63738 0.60988 0.0
C430 C 0.48633 0.66645 0.66566 0.0
C431 C 0.34853 0.61762 0.64382 0.0
C432 C 0.3733 0.62348 0.68862 0.0
C433 C 0.47007 0.6724 0.74453 0.0
C434 C 0.54031 0.71064 0.75478 0.0
C435 C 0.44278 0.65177 0.69998 0.0
C436 C 0.58285 0.71991 0.72112 0.0
C437 C 0.55606 0.69723 0.67696 0.0
loop_
_geom_bond_atom_site_label_1
_geom_bond_atom_site_label_2
_geom_bond_distance
_geom_bond_site_symmetry_2
_ccdc_geom_bond_type
C0 C1 1.351 . S
C0 N3 1.368 . S
C0 H5 0.931 . S
C1 C0 1.351 . S
C1 N2 1.373 . S
C1 H29 0.930 . S
N2 C1 1.373 . S
N2 C4 1.340 . S
N3 C0 1.368 . S
N3 C4 1.321 . S
N3 Co6 2.135 . S
C4 N2 1.340 . S
C4 N3 1.321 . S
C4 H28 0.950 . S
H5 C0 0.931 . S
Co6 N3 2.135 . S
Co6 N9 2.121 . S
Co6 O14 2.055 . S
Co6 O17 2.039 . S
Co6 N20 2.140 1_445 S
C7 O8 1.227 . S
C7 O17 1.265 1_655 S
O8 C7 1.227 . S
N9 Co6 2.121 . S
N9 C11 1.375 1_455 S
N9 C12 1.313 . S
C10 C11 1.338 . S
C10 N13 1.377 1_655 S
C10 H30 0.930 . S
C11 N9 1.375 1_655 S
C11 C10 1.338 . S
C11 H15 0.931 . S
C12 N9 1.313 . S
C12 N13 1.344 . S
C12 H16 0.930 . S
N13 C10 1.377 1_455 S
N13 C12 1.344 . S
O14 Co6 2.055 . S
O14 C18 1.253 . S
H15 C11 0.931 . S
H16 C12 0.930 . S
O17 Co6 2.039 . S
O17 C7 1.265 1_455 S
C18 O14 1.253 . S
C18 O19 1.227 . S
O19 C18 1.227 . S
N20 Co6 2.140 1_665 S
N20 C23 1.346 . S
N20 C24 1.345 . S
C21 C22 1.387 . S
C21 C25 1.391 . S
C22 C21 1.387 . S
C22 C23 1.369 . S
C22 H31 0.929 . S
C23 N20 1.346 . S
C23 C22 1.369 . S
C23 H26 0.928 . S
C24 N20 1.345 . S
C24 C25 1.371 . S
C24 H27 0.931 1_655 S
C25 C21 1.391 . S
C25 C24 1.371 . S
C25 H32 0.930 . S
H26 C23 0.928 . S
H27 C24 0.931 1_455 S
H28 C4 0.950 . S
H29 C1 0.930 . S
H30 C10 0.930 . S
H31 C22 0.929 . S
H32 C25 0.930 . S
C33 C34 1.351 . S
C33 N36 1.368 1_565 S
C33 H38 0.931 . S
C34 C33 1.351 . S
C34 N35 1.373 1_565 S
C34 H62 0.930 . S
N35 C34 1.373 1_545 S
N35 C37 1.341 1_655 S
N36 C33 1.368 1_545 S
N36 C37 1.315 1_655 S
N36 Co39 2.135 . S
C37 N35 1.341 1_455 S
C37 N36 1.315 1_455 S
C37 H61 0.936 . S
H38 C33 0.931 . S
Co39 N36 2.135 . S
Co39 N42 2.121 1_655 S
Co39 O47 2.055 1_545 S
Co39 O50 2.039 1_655 S
Co39 N53 2.140 1_645 S
C40 O41 1.227 . S
C40 O50 1.265 . S
O41 C40 1.227 . S
N42 Co39 2.121 1_455 S
N42 C44 1.375 . S
N42 C45 1.313 1_455 S
C43 C44 1.338 . S
C43 N46 1.377 . S
C43 H63 0.930 . S
C44 N42 1.375 . S
C44 C43 1.338 . S
C44 H48 0.931 . S
C45 N42 1.313 1_655 S
C45 N46 1.344 1_655 S
C45 H49 0.930 1_545 S
N46 C43 1.377 . S
N46 C45 1.344 1_455 S
O47 Co39 2.055 1_565 S
O47 C51 1.253 . S
H48 C44 0.931 . S
H49 C45 0.930 1_565 S
O50 Co39 2.039 1_455 S
O50 C40 1.265 . S
C51 O47 1.253 . S
C51 O52 1.227 . S
O52 C51 1.227 . S
N53 Co39 2.140 1_465 S
N53 C56 1.346 . S
N53 C57 1.345 . S
C54 C55 1.387 . S
C54 C58 1.391 . S
C55 C54 1.387 . S
C55 C56 1.369 . S
C55 H64 0.929 . S
C56 N53 1.346 . S
C56 C55 1.369 . S
C56 H59 0.928 1_565 S
C57 N53 1.345 . S
C57 C58 1.371 . S
C57 H60 0.931 . S
C58 C54 1.391 . S
C58 C57 1.371 . S
C58 H65 0.930 . S
H59 C56 0.928 1_545 S
H60 C57 0.931 . S
H61 C37 0.936 . S
H62 C34 0.930 . S
H63 C43 0.930 . S
H64 C55 0.929 . S
H65 C58 0.930 . S
C66 C67 1.351 . S
C66 N69 1.368 . S
C66 H71 0.931 . S
C67 C66 1.351 . S
C67 N68 1.373 . S
C67 H95 0.930 . S
N68 C67 1.373 . S
N68 C70 1.340 . S
N69 C66 1.368 . S
N69 C70 1.321 . S
N69 Co72 2.135 . S
C70 N68 1.340 . S
C70 N69 1.321 . S
C70 H94 0.930 . S
H71 C66 0.931 . S
Co72 N69 2.135 . S
Co72 N75 2.121 . S
Co72 O80 2.055 . S
Co72 O83 2.039 . S
Co72 N86 2.140 . S
C73 O74 1.227 . S
C73 O83 1.265 . S
O74 C73 1.227 . S
N75 Co72 2.121 . S
N75 C77 1.375 . S
N75 C78 1.313 . S
C76 C77 1.338 . S
C76 N79 1.377 . S
C76 H96 0.930 . S
C77 N75 1.375 . S
C77 C76 1.338 . S
C77 H81 0.931 . S
C78 N75 1.313 . S
C78 N79 1.344 . S
C78 H82 0.930 . S
N79 C76 1.377 . S
N79 C78 1.344 . S
O80 Co72 2.055 . S
O80 C84 1.253 . S
H81 C77 0.931 . S
H82 C78 0.930 . S
O83 Co72 2.039 . S
O83 C73 1.265 . S
C84 O80 1.253 . S
C84 O85 1.227 . S
O85 C84 1.227 . S
N86 Co72 2.140 . S
N86 C89 1.346 . S
N86 C90 1.345 . S
C87 C88 1.387 . S
C87 C91 1.391 . S
C88 C87 1.387 . S
C88 C89 1.369 . S
C88 H97 0.929 . S
C89 N86 1.346 . S
C89 C88 1.369 . S
C89 H92 0.928 . S
C90 N86 1.345 . S
C90 C91 1.371 . S
C90 H93 0.931 . S
C91 C87 1.391 . S
C91 C90 1.371 . S
C91 H98 0.930 . S
H92 C89 0.928 . S
H93 C90 0.931 . S
H94 C70 0.930 . S
H95 C67 0.930 . S
H96 C76 0.930 . S
H97 C88 0.929 . S
H98 C91 0.930 . S
C99 C100 1.351 1_554 S
C99 N102 1.368 . S
C99 H104 0.931 . S
C100 C99 1.351 1_556 S
C100 N101 1.373 . S
C100 H128 0.930 . S
N101 C100 1.373 . S
N101 C103 1.340 1_556 S
N102 C99 1.368 . S
N102 C103 1.321 . S
N102 Co105 2.135 . S
C103 N101 1.340 1_554 S
C103 N102 1.321 . S
C103 H127 0.930 . S
H104 C99 0.931 . S
Co105 N102 2.135 . S
Co105 N108 2.121 . S
Co105 O113 2.055 . S
Co105 O116 2.039 . S
Co105 N119 2.140 . S
C106 O107 1.227 . S
C106 O116 1.265 . S
O107 C106 1.227 . S
N108 Co105 2.121 . S
N108 C110 1.375 . S
N108 C111 1.313 . S
C109 C110 1.338 . S
C109 N112 1.377 . S
C109 H129 0.930 . S
C110 N108 1.375 . S
C110 C109 1.338 . S
C110 H114 0.931 . S
C111 N108 1.313 . S
C111 N112 1.344 . S
C111 H115 0.930 . S
N112 C109 1.377 . S
N112 C111 1.344 . S
O113 Co105 2.055 . S
O113 C117 1.253 . S
H114 C110 0.931 . S
H115 C111 0.930 . S
O116 Co105 2.039 . S
O116 C106 1.265 . S
C117 O113 1.253 . S
C117 O118 1.227 . S
O118 C117 1.227 . S
N119 Co105 2.140 . S
N119 C122 1.346 . S
N119 C123 1.345 . S
C120 C121 1.387 . S
C120 C124 1.391 . S
C121 C120 1.387 . S
C121 C122 1.369 . S
C121 H130 0.929 . S
C122 N119 1.346 . S
C122 C121 1.369 . S
C122 H125 0.928 . S
C123 N119 1.345 . S
C123 C124 1.371 . S
C123 H126 0.931 . S
C124 C120 1.391 . S
C124 C123 1.371 . S
C124 H131 0.930 . S
H125 C122 0.928 . S
H126 C123 0.931 . S
H127 C103 0.930 . S
H128 C100 0.930 . S
H129 C109 0.930 . S
H130 C121 0.929 . S
H131 C124 0.930 . S
C132 C133 1.351 1_556 S
C132 N135 1.368 . S
C132 H137 0.931 . S
C133 C132 1.351 1_554 S
C133 N134 1.373 . S
C133 H161 0.930 . S
N134 C133 1.373 . S
N134 C136 1.340 1_554 S
N135 C132 1.368 . S
N135 C136 1.321 . S
N135 Co138 2.135 . S
C136 N134 1.340 1_556 S
C136 N135 1.321 . S
C136 H160 0.930 . S
H137 C132 0.931 . S
Co138 N135 2.135 . S
Co138 N141 2.121 . S
Co138 O146 2.055 . S
Co138 O149 2.039 . S
Co138 N152 2.140 . S
C139 O140 1.227 . S
C139 O149 1.265 . S
O140 C139 1.227 . S
N141 Co138 2.121 . S
N141 C143 1.375 . S
N141 C144 1.313 . S
C142 C143 1.338 . S
C142 N145 1.377 . S
C142 H162 0.930 . S
C143 N141 1.375 . S
C143 C142 1.338 . S
C143 H147 0.931 . S
C144 N141 1.313 . S
C144 N145 1.344 . S
C144 H148 0.930 . S
N145 C142 1.377 . S
N145 C144 1.344 . S
O146 Co138 2.055 . S
O146 C150 1.253 . S
H147 C143 0.931 . S
H148 C144 0.930 . S
O149 Co138 2.039 . S
O149 C139 1.265 . S
C150 O146 1.253 . S
C150 O151 1.227 . S
O151 C150 1.227 . S
N152 Co138 2.140 . S
N152 C155 1.346 . S
N152 C156 1.345 . S
C153 C154 1.387 . S
C153 C157 1.391 . S
C154 C153 1.387 . S
C154 C155 1.369 . S
C154 H163 0.929 . S
C155 N152 1.346 . S
C155 C154 1.369 . S
C155 H158 0.928 . S
C156 N152 1.345 . S
C156 C157 1.371 . S
C156 H159 0.931 . S
C157 C153 1.391 . S
C157 C156 1.371 . S
C157 H164 0.930 . S
H158 C155 0.928 . S
H159 C156 0.931 . S
H160 C136 0.930 . S
H161 C133 0.930 . S
H162 C142 0.930 . S
H163 C154 0.929 . S
H164 C157 0.930 . S
C165 C166 1.351 . S
C165 N168 1.368 . S
C165 H170 0.931 . S
C166 C165 1.351 . S
C166 N167 1.373 . S
C166 H194 0.930 . S
N167 C166 1.373 . S
N167 C169 1.340 . S
N168 C165 1.368 . S
N168 C169 1.321 . S
N168 Co171 2.135 . S
C169 N167 1.340 . S
C169 N168 1.321 . S
C169 H193 0.930 . S
H170 C165 0.931 . S
Co171 N168 2.135 . S
Co171 N174 2.121 . S
Co171 O179 2.055 . S
Co171 O182 2.039 . S
Co171 N185 2.140 . S
C172 O173 1.227 . S
C172 O182 1.265 . S
O173 C172 1.227 . S
N174 Co171 2.121 . S
N174 C176 1.375 . S
N174 C177 1.313 . S
C175 C176 1.338 . S
C175 N178 1.377 . S
C175 H195 0.930 . S
C176 N174 1.375 . S
C176 C175 1.338 . S
C176 H180 0.931 . S
C177 N174 1.313 . S
C177 N178 1.344 . S
C177 H181 0.930 . S
N178 C175 1.377 . S
N178 C177 1.344 . S
O179 Co171 2.055 . S
O179 C183 1.253 . S
H180 C176 0.931 . S
H181 C177 0.930 . S
O182 Co171 2.039 . S
O182 C172 1.265 . S
C183 O179 1.253 . S
C183 O184 1.227 . S
O184 C183 1.227 . S
N185 Co171 2.140 . S
N185 C188 1.346 . S
N185 C189 1.345 . S
C186 C187 1.387 . S
C186 C190 1.391 . S
C187 C186 1.387 . S
C187 C188 1.369 . S
C187 H196 0.929 . S
C188 N185 1.346 . S
C188 C187 1.369 . S
C188 H191 0.928 . S
C189 N185 1.345 . S
C189 C190 1.371 . S
C189 H192 0.931 . S
C190 C186 1.391 . S
C190 C189 1.371 . S
C190 H197 0.930 . S
H191 C188 0.928 . S
H192 C189 0.931 . S
H193 C169 0.930 . S
H194 C166 0.930 . S
H195 C175 0.930 . S
H196 C187 0.929 . S
H197 C190 0.930 . S
H198 C204 0.930 . S
H199 C207 0.930 . S
H200 C208 0.930 . S
H201 C209 0.930 . S
H202 C212 0.930 . S
H203 C213 0.930 . S
C204 H198 0.930 . S
C204 C205 1.355 . S
C204 C206 1.415 . S
C205 C204 1.355 . S
C205 C207 1.419 . S
C206 C204 1.415 . S
C206 C211 1.425 . S
C206 C213 1.409 . S
C207 H199 0.930 . S
C207 C205 1.419 . S
C207 C208 1.362 . S
C208 H200 0.930 . S
C208 C207 1.362 . S
C208 C211 1.409 . S
C209 H201 0.930 . S
C209 C210 1.355 . S
C209 C211 1.415 . S
C210 C209 1.355 . S
C210 C212 1.419 . S
C211 C206 1.425 . S
C211 C208 1.409 . S
C211 C209 1.415 . S
C212 H202 0.930 . S
C212 C210 1.419 . S
C212 C213 1.362 . S
C213 H203 0.930 . S
C213 C206 1.409 . S
C213 C212 1.362 . S
H214 C220 0.930 . S
H215 C223 0.930 . S
H216 C224 0.930 . S
H217 C225 0.930 . S
H218 C228 0.930 . S
H219 C229 0.930 . S
C220 H214 0.930 . S
C220 C221 1.355 . S
C220 C222 1.415 . S
C221 C220 1.355 . S
C221 C223 1.419 . S
C222 C220 1.415 . S
C222 C227 1.425 . S
C222 C229 1.409 . S
C223 H215 0.930 . S
C223 C221 1.419 . S
C223 C224 1.362 . S
C224 H216 0.930 . S
C224 C223 1.362 . S
C224 C227 1.409 . S
C225 H217 0.930 . S
C225 C226 1.355 . S
C225 C227 1.415 . S
C226 C225 1.355 . S
C226 C228 1.419 . S
C227 C222 1.425 . S
C227 C224 1.409 . S
C227 C225 1.415 . S
C228 H218 0.930 . S
C228 C226 1.419 . S
C228 C229 1.362 . S
C229 H219 0.930 . S
C229 C222 1.409 . S
C229 C228 1.362 . S
H230 C236 0.930 . S
H231 C239 0.930 . S
H232 C240 0.930 . S
H233 C241 0.930 . S
H234 C244 0.930 . S
H235 C245 0.930 . S
C236 H230 0.930 . S
C236 C237 1.355 . S
C236 C238 1.415 . S
C237 C236 1.355 . S
C237 C239 1.419 . S
C238 C236 1.415 . S
C238 C243 1.425 . S
C238 C245 1.409 . S
C239 H231 0.930 . S
C239 C237 1.419 . S
C239 C240 1.362 . S
C240 H232 0.930 . S
C240 C239 1.362 . S
C240 C243 1.409 . S
C241 H233 0.930 . S
C241 C242 1.355 . S
C241 C243 1.415 . S
C242 C241 1.355 . S
C242 C244 1.419 . S
C243 C238 1.425 . S
C243 C240 1.409 . S
C243 C241 1.415 . S
C244 H234 0.930 . S
C244 C242 1.419 . S
C244 C245 1.362 . S
C245 H235 0.930 . S
C245 C238 1.409 . S
C245 C244 1.362 . S
H246 C252 0.930 . S
H247 C255 0.930 . S
H248 C256 0.930 . S
H249 C257 0.930 . S
H250 C260 0.930 . S
H251 C261 0.930 . S
C252 H246 0.930 . S
C252 C253 1.355 . S
C252 C254 1.415 . S
C253 C252 1.355 . S
C253 C255 1.419 . S
C254 C252 1.415 . S
C254 C259 1.425 . S
C254 C261 1.409 . S
C255 H247 0.930 . S
C255 C253 1.419 . S
C255 C256 1.362 . S
C256 H248 0.930 . S
C256 C255 1.362 . S
C256 C259 1.409 . S
C257 H249 0.930 . S
C257 C258 1.355 . S
C257 C259 1.415 . S
C258 C257 1.355 . S
C258 C260 1.419 . S
C259 C254 1.425 . S
C259 C256 1.409 . S
C259 C257 1.415 . S
C260 H250 0.930 . S
C260 C258 1.419 . S
C260 C261 1.362 . S
C261 H251 0.930 . S
C261 C254 1.409 . S
C261 C260 1.362 . S
H262 C268 0.930 . S
H263 C271 0.930 . S
H264 C272 0.930 . S
H265 C273 0.930 . S
H266 C276 0.930 . S
H267 C277 0.930 . S
C268 H262 0.930 . S
C268 C269 1.355 . S
C268 C270 1.415 . S
C269 C268 1.355 . S
C269 C271 1.419 . S
C270 C268 1.415 . S
C270 C275 1.425 . S
C270 C277 1.409 . S
C271 H263 0.930 . S
C271 C269 1.419 . S
C271 C272 1.362 . S
C272 H264 0.930 . S
C272 C271 1.362 . S
C272 C275 1.409 . S
C273 H265 0.930 . S
C273 C274 1.355 . S
C273 C275 1.415 . S
C274 C273 1.355 . S
C274 C276 1.419 . S
C275 C270 1.425 . S
C275 C272 1.409 . S
C275 C273 1.415 . S
C276 H266 0.930 . S
C276 C274 1.419 . S
C276 C277 1.362 . S
C277 H267 0.930 . S
C277 C270 1.409 . S
C277 C276 1.362 . S
H278 C284 0.930 . S
H279 C287 0.930 . S
H280 C288 0.930 . S
H281 C289 0.930 . S
H282 C292 0.930 . S
H283 C293 0.930 . S
C284 H278 0.930 . S
C284 C285 1.355 . S
C284 C286 1.415 . S
C285 C284 1.355 . S
C285 C287 1.419 . S
C286 C284 1.415 . S
C286 C291 1.425 . S
C286 C293 1.409 . S
C287 H279 0.930 . S
C287 C285 1.419 . S
C287 C288 1.362 . S
C288 H280 0.930 . S
C288 C287 1.362 . S
C288 C291 1.409 . S
C289 H281 0.930 . S
C289 C290 1.355 . S
C289 C291 1.415 . S
C290 C289 1.355 . S
C290 C292 1.419 . S
C291 C286 1.425 . S
C291 C288 1.409 . S
C291 C289 1.415 . S
C292 H282 0.930 . S
C292 C290 1.419 . S
C292 C293 1.362 . S
C293 H283 0.930 . S
C293 C286 1.409 . S
C293 C292 1.362 . S
H294 C300 0.930 . S
H295 C303 0.930 . S
H296 C304 0.930 . S
H297 C305 0.930 . S
H298 C308 0.930 . S
H299 C309 0.930 . S
C300 H294 0.930 . S
C300 C301 1.355 . S
C300 C302 1.427 . S
C301 C300 1.355 . S
C301 C303 1.419 . S
C302 C300 1.427 . S
C302 C307 1.414 1_655 S
C302 C309 1.408 1_655 S
C303 H295 0.930 . S
C303 C301 1.419 . S
C303 C304 1.362 1_655 S
C304 H296 0.930 . S
C304 C303 1.362 1_455 S
C304 C307 1.409 . S
C305 H297 0.930 . S
C305 C306 1.355 . S
C305 C307 1.415 . S
C306 C305 1.355 . S
C306 C308 1.419 . S
C307 C302 1.414 1_455 S
C307 C304 1.409 . S
C307 C305 1.415 . S
C308 H298 0.930 . S
C308 C306 1.419 . S
C308 C309 1.362 . S
C309 H299 0.930 . S
C309 C302 1.408 1_455 S
C309 C308 1.362 . S
H310 C316 0.930 . S
H311 C319 0.930 . S
H312 C320 0.930 . S
H313 C321 0.930 . S
H314 C324 0.930 . S
H315 C325 0.930 . S
C316 H310 0.930 . S
C316 C317 1.355 . S
C316 C318 1.415 . S
C317 C316 1.355 . S
C317 C319 1.419 . S
C318 C316 1.415 . S
C318 C323 1.425 . S
C318 C325 1.409 . S
C319 H311 0.930 . S
C319 C317 1.419 . S
C319 C320 1.362 . S
C320 H312 0.930 . S
C320 C319 1.362 . S
C320 C323 1.409 . S
C321 H313 0.930 . S
C321 C322 1.355 . S
C321 C323 1.415 . S
C322 C321 1.355 . S
C322 C324 1.419 . S
C323 C318 1.425 . S
C323 C320 1.409 . S
C323 C321 1.415 . S
C324 H314 0.930 . S
C324 C322 1.419 . S
C324 C325 1.362 . S
C325 H315 0.930 . S
C325 C318 1.409 . S
C325 C324 1.362 . S
H326 C332 0.930 . S
H327 C335 0.930 . S
H328 C336 0.930 . S
H329 C337 0.930 . S
H330 C340 0.930 . S
H331 C341 0.930 . S
C332 H326 0.930 . S
C332 C333 1.355 . S
C332 C334 1.415 . S
C333 C332 1.355 . S
C333 C335 1.419 . S
C334 C332 1.415 . S
C334 C339 1.425 . S
C334 C341 1.409 . S
C335 H327 0.930 . S
C335 C333 1.419 . S
C335 C336 1.362 . S
C336 H328 0.930 . S
C336 C335 1.362 . S
C336 C339 1.409 . S
C337 H329 0.930 . S
C337 C338 1.355 . S
C337 C339 1.415 1_545 S
C338 C337 1.355 . S
C338 C340 1.419 . S
C339 C334 1.425 . S
C339 C336 1.409 . S
C339 C337 1.415 1_565 S
C340 H330 0.930 . S
C340 C338 1.419 . S
C340 C341 1.362 1_545 S
C341 H331 0.930 . S
C341 C334 1.409 . S
C341 C340 1.362 1_565 S
H342 C348 0.930 . S
H343 C351 0.930 . S
H344 C352 0.930 . S
H345 C353 0.930 . S
H346 C356 0.930 . S
H347 C357 0.930 . S
C348 H342 0.930 . S
C348 C349 1.355 1_655 S
C348 C350 1.415 . S
C349 C348 1.355 1_455 S
C349 C351 1.419 . S
C350 C348 1.415 . S
C350 C355 1.425 1_655 S
C350 C357 1.409 . S
C351 H343 0.930 . S
C351 C349 1.419 . S
C351 C352 1.362 . S
C352 H344 0.930 . S
C352 C351 1.362 . S
C352 C355 1.409 . S
C353 H345 0.930 . S
C353 C354 1.355 . S
C353 C355 1.415 . S
C354 C353 1.355 . S
C354 C356 1.419 1_455 S
C355 C350 1.425 1_455 S
C355 C352 1.409 . S
C355 C353 1.415 . S
C356 H346 0.930 . S
C356 C354 1.419 1_655 S
C356 C357 1.362 . S
C357 H347 0.930 . S
C357 C350 1.409 . S
C357 C356 1.362 . S
H358 C364 0.930 . S
H359 C367 0.930 . S
H360 C368 0.930 . S
H361 C369 0.930 . S
H362 C372 0.930 . S
H363 C373 0.930 . S
C364 H358 0.930 . S
C364 C365 1.355 . S
C364 C366 1.415 . S
C365 C364 1.355 . S
C365 C367 1.419 . S
C366 C364 1.415 . S
C366 C371 1.425 . S
C366 C373 1.409 . S
C367 H359 0.930 . S
C367 C365 1.419 . S
C367 C368 1.362 . S
C368 H360 0.930 . S
C368 C367 1.362 . S
C368 C371 1.409 . S
C369 H361 0.930 . S
C369 C370 1.355 . S
C369 C371 1.415 . S
C370 C369 1.355 . S
C370 C372 1.419 . S
C371 C366 1.425 . S
C371 C368 1.409 . S
C371 C369 1.415 . S
C372 H362 0.930 . S
C372 C370 1.419 . S
C372 C373 1.362 . S
C373 H363 0.930 . S
C373 C366 1.409 . S
C373 C372 1.362 . S
H374 C380 0.930 . S
H375 C383 0.930 . S
H376 C384 0.930 . S
H377 C385 0.930 . S
H378 C388 0.930 . S
H379 C389 0.930 . S
C380 H374 0.930 . S
C380 C381 1.355 . S
C380 C382 1.415 . S
C381 C380 1.355 . S
C381 C383 1.419 . S
C382 C380 1.415 . S
C382 C387 1.425 . S
C382 C389 1.409 . S
C383 H375 0.930 . S
C383 C381 1.419 . S
C383 C384 1.362 . S
C384 H376 0.930 . S
C384 C383 1.362 . S
C384 C387 1.409 . S
C385 H377 0.930 . S
C385 C386 1.355 . S
C385 C387 1.415 . S
C386 C385 1.355 . S
C386 C388 1.419 . S
C387 C382 1.425 . S
C387 C384 1.409 . S
C387 C385 1.415 . S
C388 H378 0.930 . S
C388 C386 1.419 . S
C388 C389 1.362 . S
C389 H379 0.930 . S
C389 C382 1.409 . S
C389 C388 1.362 . S
H390 C396 0.936 1_655 S
H391 C399 0.930 . S
H392 C400 0.930 1_556 S
H393 C401 0.930 . S
H394 C404 0.930 . S
H395 C405 0.930 1_554 S
C396 H390 0.936 1_455 S
C396 C397 1.350 1_565 S
C396 C398 1.413 1_455 S
C397 C396 1.350 1_545 S
C397 C399 1.419 . S
C398 C396 1.413 1_655 S
C398 C403 1.425 1_664 S
C398 C405 1.409 1_554 S
C399 H391 0.930 . S
C399 C397 1.419 . S
C399 C400 1.362 . S
C400 H392 0.930 1_554 S
C400 C399 1.362 . S
C400 C403 1.409 1_554 S
C401 H393 0.930 . S
C401 C402 1.355 1_445 S
C401 C403 1.415 . S
C402 C401 1.355 1_665 S
C402 C404 1.419 . S
C403 C398 1.425 1_446 S
C403 C400 1.409 1_556 S
C403 C401 1.415 . S
C404 H394 0.930 . S
C404 C402 1.419 . S
C404 C405 1.362 . S
C405 H395 0.930 1_556 S
C405 C398 1.409 1_556 S
C405 C404 1.362 . S
H406 C412 0.930 . S
H407 C415 0.930 . S
H408 C416 0.930 . S
H409 C417 0.930 . S
H410 C420 0.930 . S
H411 C421 0.930 . S
C412 H406 0.930 . S
C412 C413 1.355 . S
C412 C414 1.415 . S
C413 C412 1.355 . S
C413 C415 1.419 . S
C414 C412 1.415 . S
C414 C419 1.425 . S
C414 C421 1.409 . S
C415 H407 0.930 . S
C415 C413 1.419 . S
C415 C416 1.362 . S
C416 H408 0.930 . S
C416 C415 1.362 . S
C416 C419 1.409 . S
C417 H409 0.930 . S
C417 C418 1.355 . S
C417 C419 1.415 . S
C418 C417 1.355 . S
C418 C420 1.419 . S
C419 C414 1.425 . S
C419 C416 1.409 . S
C419 C417 1.415 . S
C420 H410 0.930 . S
C420 C418 1.419 . S
C420 C421 1.362 . S
C421 H411 0.930 . S
C421 C414 1.409 . S
C421 C420 1.362 . S
H422 C428 0.930 . S
H423 C431 0.930 . S
H424 C432 0.930 . S
H425 C433 0.930 . S
H426 C436 0.930 . S
H427 C437 0.930 . S
C428 H422 0.930 . S
C428 C429 1.355 . S
C428 C430 1.415 . S
C429 C428 1.355 . S
C429 C431 1.419 . S
C430 C428 1.415 . S
C430 C435 1.425 . S
C430 C437 1.409 . S
C431 H423 0.930 . S
C431 C429 1.419 . S
C431 C432 1.362 . S
C432 H424 0.930 . S
C432 C431 1.362 . S
C432 C435 1.409 . S
C433 H425 0.930 . S
C433 C434 1.355 . S
C433 C435 1.415 . S
C434 C433 1.355 . S
C434 C436 1.419 . S
C435 C430 1.425 . S
C435 C432 1.409 . S
C435 C433 1.415 . S
C436 H426 0.930 . S
C436 C434 1.419 . S
C436 C437 1.362 . S
C437 H427 0.930 . S
C437 C430 1.409 . S
C437 C436 1.362 . S
C205 C18 1.963 . S
C210 C117 1.963 . S
C221 C7 1.580 . S
C226 C120 1.566 . S
C237 C106 1.605 . S
C242 C21 1.591 . S
C253 C40 1.570 . S
C258 C153 1.548 . S
C269 C150 1.965 . S
C274 C51 1.965 . S
C285 C54 1.554 . S
C290 C139 1.576 . S
C301 C84 1.967 . S
C306 C183 1.967 . S
C317 C73 1.592 . S
C322 C186 1.574 . S
C333 C172 1.602 . S
C338 C87 1.593 . S
C349 N35 2.143 1_455 S
C354 N2 2.157 . S
C365 N101 2.148 . S
C370 N68 2.159 . S
C381 N167 2.159 . S
C386 N134 2.150 . S
C397 N13 0.733 . S
C402 N46 0.740 1_665 S
C413 N112 0.733 . S
C418 N79 0.740 . S
C429 N178 0.726 . S
C434 N145 0.690 . S
