# Generated by pormake.
# Topology can, (4)-cn, num edge types: 1
# Building blocks:
#     Node 0, Type 0, BuildingBlock: QUQFOY_clean_sbu_3, # of connection points: 4
#     Node 1, Type 0, BuildingBlock: QUQFOY_clean_sbu_3, # of connection points: 4
#     Node 2, Type 0, BuildingBlock: QUQFOY_clean_sbu_3, # of connection points: 4
#     Node 3, Type 0, BuildingBlock: QUQFOY_clean_sbu_3, # of connection points: 4
#     Node 4, Type 0, BuildingBlock: QUQFOY_clean_sbu_3, # of connection points: 4
#     Node 5, Type 0, BuildingBlock: QUQFOY_clean_sbu_3, # of connection points: 4
#     Node 6, Type 0, BuildingBlock: QUQFOY_clean_sbu_3, # of connection points: 4
#     Node 7, Type 0, BuildingBlock: QUQFOY_clean_sbu_3, # of connection points: 4
#     Node 8, Type 0, BuildingBlock: QUQFOY_clean_sbu_3, # of connection points: 4
#     Node 9, Type 0, BuildingBlock: QUQFOY_clean_sbu_3, # of connection points: 4
#     Node 10, Type 0, BuildingBlock: QUQFOY_clean_sbu_3, # of connection points: 4
#     Node 11, Type 0, BuildingBlock: QUQFOY_clean_sbu_3, # of connection points: 4
#     Edge 12, Type (0, 0), BuildingBlock: CIFDUS_clean_linker_0, # of connection points: 2
#     Edge 13, Type (0, 0), BuildingBlock: CIFDUS_clean_linker_0, # of connection points: 2
#     Edge 14, Type (0, 0), BuildingBlock: CIFDUS_clean_linker_0, # of connection points: 2
#     Edge 15, Type (0, 0), BuildingBlock: CIFDUS_clean_linker_0, # of connection points: 2
#     Edge 16, Type (0, 0), BuildingBlock: CIFDUS_clean_linker_0, # of connection points: 2
#     Edge 17, Type (0, 0), BuildingBlock: CIFDUS_clean_linker_0, # of connection points: 2
#     Edge 18, Type (0, 0), BuildingBlock: CIFDUS_clean_linker_0, # of connection points: 2
#     Edge 19, Type (0, 0), BuildingBlock: CIFDUS_clean_linker_0, # of connection points: 2
#     Edge 20, Type (0, 0), BuildingBlock: CIFDUS_clean_linker_0, # of connection points: 2
#     Edge 21, Type (0, 0), BuildingBlock: CIFDUS_clean_linker_0, # of connection points: 2
#     Edge 22, Type (0, 0), BuildingBlock: CIFDUS_clean_linker_0, # of connection points: 2
#     Edge 23, Type (0, 0), BuildingBlock: CIFDUS_clean_linker_0, # of connection points: 2
#     Edge 24, Type (0, 0), BuildingBlock: CIFDUS_clean_linker_0, # of connection points: 2
#     Edge 25, Type (0, 0), BuildingBlock: CIFDUS_clean_linker_0, # of connection points: 2
#     Edge 26, Type (0, 0), BuildingBlock: CIFDUS_clean_linker_0, # of connection points: 2
#     Edge 27, Type (0, 0), BuildingBlock: CIFDUS_clean_linker_0, # of connection points: 2
#     Edge 28, Type (0, 0), BuildingBlock: CIFDUS_clean_linker_0, # of connection points: 2
#     Edge 29, Type (0, 0), BuildingBlock: CIFDUS_clean_linker_0, # of connection points: 2
#     Edge 30, Type (0, 0), BuildingBlock: CIFDUS_clean_linker_0, # of connection points: 2
#     Edge 31, Type (0, 0), BuildingBlock: CIFDUS_clean_linker_0, # of connection points: 2
#     Edge 32, Type (0, 0), BuildingBlock: CIFDUS_clean_linker_0, # of connection points: 2
#     Edge 33, Type (0, 0), BuildingBlock: CIFDUS_clean_linker_0, # of connection points: 2
#     Edge 34, Type (0, 0), BuildingBlock: CIFDUS_clean_linker_0, # of connection points: 2
#     Edge 35, Type (0, 0), BuildingBlock: CIFDUS_clean_linker_0, # of connection points: 2
# Relax obj value: 0.050
# Max RMSD: 0.037
# Mean RMSD: 0.037
data_MOF--net-can--node1-QUQFOY_clean_sbu_3--edge1-CIFDUS_clean_linker_0
_symmetry_space_group_name_H-M    P1
_symmetry_Int_Tables_number       1
_symmetry_cell_setting            triclinic
loop_
_symmetry_equiv_pos_as_xyz
'x, y, z'
_cell_length_a     49.827243
_cell_length_b     49.825987
_cell_length_c     24.951436
_cell_angle_alpha  89.912793
_cell_angle_beta   90.10489
_cell_angle_gamma 119.92119
loop_
_atom_site_label
_atom_site_type_symbol
_atom_site_fract_x
_atom_site_fract_y
_atom_site_fract_z
_atom_type_partial_charge
C0 C 0.00497 0.36599 0.34254 0.0
O1 O 0.98285 0.3592 0.31003 0.0
Cd2 Cd 0.99065 0.37893 0.22023 0.0
O3 O 0.03298 0.38265 0.32744 0.0
Cd4 Cd 0.06322 0.40802 0.24569 0.0
C5 C 0.03562 0.45753 0.2455 0.0
O6 O 0.02885 0.36956 0.18123 0.0
O7 O 0.06644 0.41181 0.14848 0.0
O8 O 0.09422 0.38505 0.26775 0.0
C9 C 0.04361 0.38498 0.14035 0.0
O10 O 0.01009 0.43424 0.23097 0.0
C11 C 0.12024 0.40969 0.26402 0.0
O12 O 0.05919 0.45475 0.25571 0.0
O13 O 0.11992 0.43456 0.25404 0.0
C14 C 0.64376 0.00215 0.83437 0.0
O15 O 0.62841 0.97866 0.80456 0.0
Cd16 Cd 0.6192 0.98112 0.71137 0.0
O17 O 0.65598 0.02953 0.81542 0.0
Cd18 Cd 0.66202 0.05642 0.72962 0.0
C19 C 0.58423 0.02596 0.71836 0.0
O20 O 0.66924 0.01898 0.68164 0.0
O21 O 0.66877 0.05442 0.6327 0.0
O22 O 0.71473 0.09227 0.75444 0.0
C23 C 0.67216 0.03089 0.63582 0.0
O24 O 0.58245 -7e-05 0.7098 0.0
C25 C 0.71339 0.11657 0.74467 0.0
O26 O 0.61017 0.05007 0.72788 0.0
O27 O 0.68733 0.11302 0.73034 0.0
C28 C 0.61922 0.63962 0.31996 0.0
O29 O 0.62765 0.62532 0.28823 0.0
Cd30 Cd 0.61106 0.61516 0.19628 0.0
O31 O 0.60279 0.65085 0.30286 0.0
Cd32 Cd 0.58077 0.65602 0.21712 0.0
C33 C 0.5319 0.57919 0.21143 0.0
O34 O 0.62118 0.66247 0.15423 0.0
O35 O 0.57764 0.65413 0.12035 0.0
O36 O 0.60389 0.71038 0.23252 0.0
C37 C 0.60556 0.66116 0.11302 0.0
O38 O 0.55591 0.57772 0.19902 0.0
C39 C 0.5791 0.71158 0.23048 0.0
O40 O 0.53396 0.60507 0.22288 0.0
O41 O 0.55388 0.6861 0.22516 0.0
C42 C 0.96301 0.63706 0.82869 0.0
O43 O 0.98864 0.64929 0.80371 0.0
Cd44 Cd -0.00437 0.63951 0.71279 0.0
O45 O 0.93768 0.61865 0.80512 0.0
Cd46 Cd 0.9182 0.59703 0.71539 0.0
C47 C 0.95891 0.55913 0.72057 0.0
O48 O 0.95527 0.64272 0.66988 0.0
O49 O 0.92611 0.60432 0.61832 0.0
O50 O 0.88016 0.61225 0.72498 0.0
C51 C 0.94756 0.63225 0.62291 0.0
O52 O 0.98303 0.58567 0.71536 0.0
C53 C 0.85672 0.5859 0.71621 0.0
O54 O 0.93202 0.55625 0.72315 0.0
O55 O 0.86138 0.56324 0.70955 0.0
C56 C 0.34906 0.9809 0.32518 0.0
O57 O 0.36536 0.00413 0.29543 0.0
Cd58 Cd 0.3829 -0.00154 0.20905 0.0
O59 O 0.33994 0.95359 0.30827 0.0
Cd60 Cd 0.3412 0.92679 0.22603 0.0
C61 C 0.4177 0.95551 0.24101 0.0
O62 O 0.33841 0.96137 0.16 0.0
O63 O 0.34803 0.9263 0.12982 0.0
O64 O 0.28645 0.8952 0.23496 0.0
C65 C 0.34173 0.94754 0.12008 0.0
O66 O 0.42002 0.9812 0.22723 0.0
C67 C 0.28557 0.86934 0.23503 0.0
O68 O 0.39128 0.93121 0.24543 0.0
O69 O 0.31131 0.86983 0.23317 0.0
C70 C 0.35455 0.31954 0.83717 0.0
O71 O 0.34575 0.33573 0.81131 0.0
Cd72 Cd 0.36886 0.36006 0.72819 0.0
O73 O 0.37475 0.31391 0.81735 0.0
Cd74 Cd 0.40401 0.32307 0.73305 0.0
C75 C 0.44698 0.39828 0.75996 0.0
O76 O 0.36766 0.32253 0.66744 0.0
O77 O 0.4158 0.34481 0.64354 0.0
O78 O 0.38518 0.26904 0.72034 0.0
C79 C 0.38775 0.33473 0.63067 0.0
O80 O 0.4225 0.39905 0.74793 0.0
C81 C 0.41121 0.27034 0.72243 0.0
O82 O 0.44699 0.37273 0.76101 0.0
O83 O 0.43484 0.29674 0.73098 0.0
C84 C 0.66531 0.00569 0.15014 0.0
O85 O 0.67605 0.02881 0.18165 0.0
Cd86 Cd 0.66826 0.02485 0.27703 0.0
O87 O 0.65039 0.9781 0.1681 0.0
Cd88 Cd 0.63222 0.94755 0.25041 0.0
C89 C 0.58794 0.9811 0.27377 0.0
O90 O 0.67636 0.98342 0.30093 0.0
O91 O 0.64199 0.94441 0.34524 0.0
O92 O 0.64571 0.91126 0.21285 0.0
C93 C 0.6673 0.96989 0.34564 0.0
O94 O 0.61279 0.0065 0.28323 0.0
C95 C 0.61993 0.88734 0.22356 0.0
O96 O 0.5887 0.95686 0.25991 0.0
O97 O 0.59923 0.89162 0.24493 0.0
C98 C 0.63474 0.65095 0.6385 0.0
O99 O 0.62226 0.66069 0.67182 0.0
Cd100 Cd 0.62018 0.65205 0.76777 0.0
O101 O 0.64844 0.63663 0.65465 0.0
Cd102 Cd 0.66216 0.61904 0.73702 0.0
C103 C 0.58571 0.57233 0.76664 0.0
O104 O 0.6701 0.6615 0.79438 0.0
O105 O 0.67553 0.62544 0.83159 0.0
O106 O 0.71207 0.6357 0.69755 0.0
C107 C 0.67504 0.65047 0.83669 0.0
O108 O 0.5844 0.5967 0.77703 0.0
C109 C 0.71163 0.61024 0.70475 0.0
O110 O 0.61059 0.57398 0.7495 0.0
O111 O 0.68732 0.58813 0.72545 0.0
C112 C -0.00362 0.66768 0.13926 0.0
O113 O 0.97196 0.65357 0.16745 0.0
Cd114 Cd 0.97132 0.64368 0.26169 0.0
O115 O 0.02311 0.67849 0.16031 0.0
Cd116 Cd 0.04968 0.6844 0.24585 0.0
C117 C 0.01394 0.6057 0.25737 0.0
O118 O 0.01228 0.69087 0.29462 0.0
O119 O 0.04888 0.6923 0.34242 0.0
O120 O 0.08641 0.73554 0.21525 0.0
C121 C 0.02359 0.69257 0.3407 0.0
O122 O 0.98861 0.6057 0.26459 0.0
C123 C 0.11031 0.73363 0.2262 0.0
O124 O 0.03919 0.63079 0.24822 0.0
O125 O 0.10597 0.70808 0.24522 0.0
C126 C 0.32935 0.98068 0.63959 0.0
O127 O 0.31967 0.95824 0.67248 0.0
Cd128 Cd 0.33604 0.96518 0.76525 0.0
O129 O 0.34684 0.00837 0.65538 0.0
Cd130 Cd 0.37183 0.04013 0.73447 0.0
C131 C 0.41509 0.00486 0.74193 0.0
O132 O 0.33283 0.00819 0.79936 0.0
O133 O 0.37395 0.04775 0.83062 0.0
O134 O 0.35531 0.07485 0.70052 0.0
C135 C 0.34804 0.02387 0.83976 0.0
O136 O 0.3906 0.98049 0.7569 0.0
C137 C 0.38163 0.09917 0.70483 0.0
O138 O 0.41462 0.0295 0.72984 0.0
O139 O 0.40392 0.09586 0.72164 0.0
C140 C 0.31576 0.3198 0.14197 0.0
O141 O 0.33041 0.31022 0.17046 0.0
Cd142 Cd 0.34896 0.32992 0.25844 0.0
O143 O 0.30779 0.33837 0.1615 0.0
Cd144 Cd 0.30977 0.36359 0.2475 0.0
C145 C 0.38617 0.40852 0.23024 0.0
O146 O 0.30821 0.32663 0.31334 0.0
O147 O 0.32719 0.37419 0.3389 0.0
O148 O 0.25479 0.34441 0.24731 0.0
C149 C 0.31852 0.34634 0.35104 0.0
O150 O 0.38744 0.3844 0.24312 0.0
C151 C 0.25675 0.37076 0.24985 0.0
O152 O 0.36025 0.4076 0.22576 0.0
O153 O 0.2838 0.39432 0.24968 0.0
C154 C -0.00456 0.34764 0.65924 0.0
O155 O 0.01708 0.36368 0.69215 0.0
Cd156 Cd 0.00825 0.37307 0.78317 0.0
O157 O 0.96732 0.33325 0.67466 0.0
Cd158 Cd 0.9363 0.32319 0.75708 0.0
C159 C 0.95642 0.39867 0.75695 0.0
O160 O 0.97315 0.32449 0.82268 0.0
O161 O 0.93229 0.32377 0.85364 0.0
O162 O 0.90726 0.26842 0.73716 0.0
C163 C 0.95729 0.3238 0.86294 0.0
O164 O 0.98313 0.40405 0.77192 0.0
C165 C 0.88088 0.26648 0.73955 0.0
O166 O 0.9349 0.3712 0.74694 0.0
O167 O 0.88042 0.2914 0.74783 0.0
H168 H 0.98593 0.34197 0.10938 0.0
H169 H 0.07792 0.40262 0.04902 0.0
H170 H 0.05987 0.38596 0.95736 0.0
H171 H 0.01708 0.3571 0.89409 0.0
H172 H 0.92425 0.30069 0.9542 0.0
H173 H 0.94342 0.31235 0.0464 0.0
C174 C 0.00205 0.35123 0.07616 0.0
C175 C 0.03314 0.37344 0.08568 0.0
C176 C 0.99132 0.34232 0.02363 0.0
C177 C 0.0538 0.38559 0.04242 0.0
C178 C 0.04353 0.37606 -0.00989 0.0
C179 C 0.00122 0.34699 0.9275 0.0
C180 C 0.96942 0.328 0.91781 0.0
C181 C 0.01223 0.35484 0.98018 0.0
C182 C 0.94887 0.3154 0.96109 0.0
C183 C 0.95979 0.32211 0.01365 0.0
H184 H 0.65883 0.94478 0.44397 0.0
H185 H 0.70235 0.03235 0.36063 0.0
H186 H 0.71001 0.0597 0.44538 0.0
H187 H 0.69718 0.0578 0.54097 0.0
H188 H 0.65452 0.9702 0.6242 0.0
H189 H 0.65372 0.94366 0.54155 0.0
C190 C 0.67058 0.96989 0.4446 0.0
C191 C 0.67928 0.98653 0.39636 0.0
C192 C 0.67457 0.98535 0.49318 0.0
C193 C 0.69508 0.01905 0.3974 0.0
C194 C 0.69927 0.03468 0.44575 0.0
C195 C 0.68804 0.03296 0.54092 0.0
C196 C 0.6753 0.01579 0.58786 0.0
C197 C 0.68786 0.01793 0.49348 0.0
C198 C 0.66417 0.98376 0.58812 0.0
C199 C 0.66367 0.96859 0.54098 0.0
H200 H 0.65693 0.6597 0.08207 0.0
H201 H 0.58333 0.67336 0.02215 0.0
H202 H 0.60222 0.677 0.93069 0.0
H203 H 0.63595 0.67034 0.86717 0.0
H204 H 0.7059 0.65108 0.92645 0.0
H205 H 0.6928 0.65641 0.01881 0.0
C206 C 0.6453 0.66387 0.04902 0.0
C207 C 0.61865 0.66595 0.05864 0.0
C208 C 0.65574 0.66504 -0.00354 0.0
C209 C 0.60371 0.6713 0.01555 0.0
C210 C 0.61453 0.67348 0.9633 0.0
C211 C 0.64884 0.66818 0.90036 0.0
C212 C 0.6719 0.66051 0.89044 0.0
C213 C 0.64005 0.66961 0.95316 0.0
C214 C 0.68811 0.65711 0.93353 0.0
C215 C 0.68048 0.65992 0.9862 0.0
H216 H 0.04407 0.70475 0.44264 0.0
H217 H 0.96075 0.66537 0.34711 0.0
H218 H 0.92929 0.64406 0.4275 0.0
H219 H 0.92608 0.63148 0.52351 0.0
H220 H 0.00913 0.67319 0.6196 0.0
H221 H 0.04025 0.69885 0.54035 0.0
C222 C 0.019 0.69197 0.43966 0.0
C223 C 0.00472 0.68596 0.38923 0.0
C224 C 0.00112 0.67988 0.48591 0.0
C225 C 0.97226 0.66995 0.38562 0.0
C226 C 0.95426 0.65761 0.43148 0.0
C227 C 0.95096 0.64645 0.5269 0.0
C228 C 0.96553 0.65011 0.57655 0.0
C229 C 0.96853 0.66152 0.48153 0.0
C230 C -0.0024 0.66998 0.58134 0.0
C231 C 0.01536 0.68459 0.53618 0.0
H232 H 0.33197 0.96634 0.87268 0.0
H233 H 0.34934 0.05535 0.92872 0.0
H234 H 0.34623 0.03843 0.02184 0.0
H235 H 0.34373 0.00016 0.08649 0.0
H236 H 0.33202 0.91316 0.02987 0.0
H237 H 0.32797 0.9274 0.93767 0.0
C238 C 0.33425 0.98163 0.90545 0.0
C239 C 0.34039 0.01178 0.89448 0.0
C240 C 0.3341 0.97231 0.95855 0.0
C241 C 0.34426 0.0319 0.93679 0.0
C242 C 0.34272 0.02232 -0.01019 0.0
C243 C 0.34004 0.98424 0.05397 0.0
C244 C 0.33833 0.95576 0.06476 0.0
C245 C 0.33852 0.99289 0.00109 0.0
C246 C 0.3337 0.93537 0.02236 0.0
C247 C 0.33126 0.94342 0.96972 0.0
H248 H 0.37038 0.38156 0.40677 0.0
H249 H 0.28497 0.29427 0.41085 0.0
H250 H 0.29857 0.28308 0.49953 0.0
H251 H 0.33486 0.29885 0.57599 0.0
H252 H 0.4223 0.38406 0.5667 0.0
H253 H 0.40793 0.3955 0.47951 0.0
C254 C 0.35474 0.36015 0.42729 0.0
C255 C 0.32659 0.33891 0.40329 0.0
C256 C 0.36314 0.35359 0.47696 0.0
C257 C 0.30672 0.31091 0.42918 0.0
C258 C 0.31447 0.30458 0.47967 0.0
C259 C 0.35066 0.31987 0.55466 0.0
C260 C 0.3794 0.34075 0.57747 0.0
C261 C 0.3426 0.32584 0.50399 0.0
C262 C 0.40005 0.3677 0.54955 0.0
C263 C 0.39183 0.37428 0.49993 0.0
H264 H 0.01176 0.67682 0.88965 0.0
H265 H 0.91381 0.61086 0.89763 0.0
H266 H 0.91492 0.61704 -0.00526 0.0
H267 H 0.94466 0.63751 0.07773 0.0
H268 H 0.04294 0.70217 0.06917 0.0
H269 H 0.04056 0.70032 0.97167 0.0
C270 C 0.99057 0.66395 0.91249 0.0
C271 C 0.96287 0.6431 0.88651 0.0
C272 C 0.99142 0.66727 0.9682 0.0
C273 C 0.93554 0.62691 0.91669 0.0
C274 C 0.93614 0.63038 0.97223 0.0
C275 C 0.96548 0.65154 0.05455 0.0
C276 C -0.00602 0.66962 0.08066 0.0
C277 C 0.9641 0.64996 -0.00152 0.0
C278 C 0.02074 0.68775 0.05005 0.0
C279 C 0.01944 0.6867 -0.00571 0.0
H280 H 0.31774 0.93674 0.40081 0.0
H281 H 0.36504 0.03566 0.37507 0.0
H282 H 0.35923 0.04383 0.46965 0.0
H283 H 0.34585 0.02341 0.56059 0.0
H284 H 0.30055 0.92471 0.58762 0.0
H285 H 0.29991 0.91597 0.49118 0.0
C286 C 0.32649 0.96009 0.41569 0.0
C287 C 0.34223 0.98557 0.38097 0.0
C288 C 0.32351 0.96468 0.47032 0.0
C289 C 0.35313 0.01563 0.40093 0.0
C290 C 0.34983 0.02034 0.45505 0.0
C291 C 0.33544 -9e-05 0.54549 0.0
C292 C 0.3237 0.97478 0.58142 0.0
C293 C 0.33583 0.9951 0.49029 0.0
C294 C 0.30994 0.9445 0.56095 0.0
C295 C 0.30972 0.93949 0.5058 0.0
H296 H 0.31307 0.32902 0.89255 0.0
H297 H 0.37139 0.28802 0.90663 0.0
H298 H 0.36014 0.27976 0.00222 0.0
H299 H 0.33999 0.29107 0.08328 0.0
H300 H 0.28377 0.3344 0.06968 0.0
H301 H 0.28749 0.33423 0.97227 0.0
C302 C 0.32297 0.31784 0.9163 0.0
C303 C 0.34354 0.30975 0.89263 0.0
C304 C 0.31693 0.31373 0.97144 0.0
C305 C 0.35579 0.29487 0.92391 0.0
C306 C 0.34942 0.29017 0.97865 0.0
C307 C 0.32798 0.29988 0.05906 0.0
C308 C 0.31213 0.31326 0.08381 0.0
C309 C 0.33095 0.30055 0.00313 0.0
C310 C 0.29649 0.32433 0.05171 0.0
C311 C 0.2987 0.32437 -0.00403 0.0
H312 H 0.95451 0.32389 0.57671 0.0
H313 H 0.05247 0.37377 0.61172 0.0
H314 H 0.06404 0.38169 0.5161 0.0
H315 H 0.0463 0.37863 0.42345 0.0
H316 H 0.94826 0.33035 0.38895 0.0
H317 H 0.93687 0.31756 0.48361 0.0
C318 C 0.97842 0.33612 0.56352 0.0
C319 C 0.00256 0.34846 0.60147 0.0
C320 C 0.98492 0.34118 0.50857 0.0
C321 C 0.03341 0.36419 0.58347 0.0
C322 C 0.04006 0.36883 0.52877 0.0
C323 C 0.02243 0.36506 0.43647 0.0
C324 C -0.00181 0.35578 0.39911 0.0
C325 C 0.01599 0.35812 0.49108 0.0
C326 C 0.9674 0.33804 0.4168 0.0
C327 C 0.96083 0.3307 0.47097 0.0
H328 H 0.67444 0.04673 0.90931 0.0
H329 H 0.62127 0.94747 0.88844 0.0
H330 H 0.62554 0.94006 0.98393 0.0
H331 H 0.64193 0.96157 0.07333 0.0
H332 H 0.69384 0.06075 0.09545 0.0
H333 H 0.69282 0.0683 -0.00113 0.0
C334 C 0.66387 0.02345 0.92555 0.0
C335 C 0.64736 -0.00229 0.89183 0.0
C336 C 0.66622 0.01932 0.98053 0.0
C337 C 0.63396 0.96771 0.91352 0.0
C338 C 0.63641 0.96342 0.96811 0.0
C339 C 0.65329 0.98489 0.05716 0.0
C340 C 0.66775 0.01055 0.09162 0.0
C341 C 0.65216 0.98906 0.00198 0.0
C342 C 0.68244 0.04057 0.06982 0.0
C343 C 0.68178 0.04492 0.01465 0.0
H344 H 0.60261 0.66589 0.39946 0.0
H345 H 0.65432 0.61896 0.37017 0.0
H346 H 0.66513 0.62009 0.46573 0.0
H347 H 0.65772 0.63188 0.55771 0.0
H348 H 0.6052 0.67785 0.5878 0.0
H349 H 0.59715 0.6798 0.49159 0.0
C350 C 0.61642 0.65607 0.41385 0.0
C351 C 0.62745 0.64218 0.37757 0.0
C352 C 0.62236 0.65655 0.46899 0.0
C353 C 0.64539 0.62968 0.39708 0.0
C354 C 0.65159 0.63029 0.45178 0.0
C355 C 0.64467 0.64254 0.54336 0.0
C356 C 0.63193 0.65452 0.58011 0.0
C357 C 0.63984 0.64329 0.48812 0.0
C358 C 0.61521 0.66836 0.56054 0.0
C359 C 0.61053 0.66943 0.50549 0.0
H360 H 0.06325 0.5958 0.25756 0.0
H361 H 0.96321 0.54802 0.258 0.0
H362 H 0.96142 0.4984 0.2552 0.0
H363 H 0.98776 0.46845 0.25049 0.0
H364 H 0.08762 0.51502 0.25188 0.0
H365 H 0.08991 0.56523 0.25637 0.0
C366 C 0.04108 0.57453 0.25713 0.0
C367 C 0.01344 0.57574 0.25773 0.0
C368 C 0.04013 0.54585 0.2558 0.0
C369 C 0.98489 0.5479 0.25759 0.0
C370 C 0.98379 0.51943 0.25588 0.0
C371 C 0.01009 0.48955 0.25174 0.0
C372 C 0.03747 0.48799 0.25041 0.0
C373 C 0.01121 0.51815 0.25461 0.0
C374 C 0.06617 0.51558 0.25282 0.0
C375 C 0.06749 0.54428 0.25526 0.0
H376 H 0.47366 0.05364 0.72931 0.0
H377 H 0.42196 0.95399 0.7444 0.0
H378 H 0.46954 0.95189 0.73646 0.0
H379 H 0.52562 0.97804 0.72636 0.0
H380 H 0.57823 0.07771 0.71454 0.0
H381 H 0.53041 0.08004 0.71985 0.0
C382 C 0.47281 0.03147 0.73075 0.0
C383 C 0.44426 0.00404 0.73744 0.0
C384 C 0.50037 0.03039 0.72668 0.0
C385 C 0.4436 0.97551 0.73954 0.0
C386 C 0.4708 0.97424 0.73486 0.0
C387 C 0.52668 0.0003 0.72458 0.0
C388 C 0.55544 0.02764 0.71983 0.0
C389 C 0.49927 0.0015 0.72851 0.0
C390 C 0.55637 0.0563 0.71822 0.0
C391 C 0.52905 0.05766 0.72126 0.0
H392 H 0.52141 0.5206 0.20224 0.0
H393 H 0.47422 0.57254 0.22555 0.0
H394 H 0.42459 0.52423 0.23069 0.0
H395 H 0.39489 0.46709 0.2312 0.0
H396 H 0.44319 0.416 0.21095 0.0
H397 H 0.49212 0.46426 0.20167 0.0
C398 C 0.5003 0.52148 0.20822 0.0
C399 C 0.50159 0.5502 0.21355 0.0
C400 C 0.47203 0.49374 0.21171 0.0
C401 C 0.47394 0.55076 0.22149 0.0
C402 C 0.44554 0.52315 0.22438 0.0
C403 C 0.4161 0.46655 0.22432 0.0
C404 C 0.41538 0.43797 0.22183 0.0
C405 C 0.44434 0.49448 0.21987 0.0
C406 C 0.44309 0.43766 0.21332 0.0
C407 C 0.47111 0.46525 0.20798 0.0
H408 H 0.91394 0.49792 0.72418 0.0
H409 H 0.01312 0.55879 0.72961 0.0
H410 H 0.02069 0.51469 0.74186 0.0
H411 H -0.00029 0.45928 0.75193 0.0
H412 H 0.90095 0.39726 0.74461 0.0
H413 H 0.89275 0.44142 0.73224 0.0
C414 C 0.93719 0.50151 0.72794 0.0
C415 C 0.96287 0.53171 0.72606 0.0
C416 C 0.94152 0.47589 0.7348 0.0
C417 C 0.99287 0.53588 0.73079 0.0
C418 C -0.00271 0.51066 0.73794 0.0
C419 C 0.97633 0.45533 0.74786 0.0
C420 C 0.95099 0.42504 0.74956 0.0
C421 C 0.97184 0.48064 0.74024 0.0
C422 C 0.92089 0.42038 0.7435 0.0
C423 C 0.91618 0.44561 0.73645 0.0
H424 H 0.47448 0.00356 0.26385 0.0
H425 H 0.42489 0.90447 0.24169 0.0
H426 H 0.47314 0.90331 0.25268 0.0
H427 H 0.52985 0.93104 0.26353 0.0
H428 H 0.57865 0.03017 0.28706 0.0
H429 H 0.53012 0.03057 0.28098 0.0
C430 C 0.47418 0.98167 0.26152 0.0
C431 C 0.44624 0.9542 0.2513 0.0
C432 C 0.50185 0.98117 0.26809 0.0
C433 C 0.44614 0.92596 0.24937 0.0
C434 C 0.47372 0.9253 0.25551 0.0
C435 C 0.52986 0.9527 0.26771 0.0
C436 C 0.55797 0.98055 0.2752 0.0
C437 C 0.50178 0.95284 0.26414 0.0
C438 C 0.55745 0.00837 0.28107 0.0
C439 C 0.52969 0.00868 0.27745 0.0
H440 H 0.58079 0.51531 0.76362 0.0
H441 H 0.52688 0.56075 0.78374 0.0
H442 H 0.47953 0.51073 0.78764 0.0
H443 H 0.45306 0.45448 0.77932 0.0
H444 H 0.5063 0.4084 0.75962 0.0
H445 H 0.5543 0.45832 0.76241 0.0
C446 C 0.5587 0.51426 0.7691 0.0
C447 C 0.55741 0.54178 0.7727 0.0
C448 C 0.53143 0.48535 0.77141 0.0
C449 C 0.52861 0.53998 0.78056 0.0
C450 C 0.50146 0.51137 0.78275 0.0
C451 C 0.47516 0.45528 0.77606 0.0
C452 C 0.47608 0.4278 0.76864 0.0
C453 C 0.50256 0.48397 0.77732 0.0
C454 C 0.50493 0.42923 0.76526 0.0
C455 C 0.53239 0.45778 0.76656 0.0
H456 H 0.12551 0.35856 0.2708 0.0
H457 H 0.18 0.45819 0.26132 0.0
H458 H 0.22749 0.45508 0.25689 0.0
H459 H 0.25312 0.42361 0.25211 0.0
H460 H 0.19735 0.32388 0.25847 0.0
H461 H 0.15067 0.32755 0.26732 0.0
C462 C 0.14777 0.37967 0.26828 0.0
C463 C 0.14925 0.40856 0.26646 0.0
C464 C 0.1747 0.37766 0.2646 0.0
C465 C 0.17828 0.43566 0.26289 0.0
C466 C 0.20539 0.43388 0.26013 0.0
C467 C 0.23074 0.40272 0.25542 0.0
C468 C 0.22871 0.37353 0.25439 0.0
C469 C 0.20383 0.40495 0.26025 0.0
C470 C 0.19957 0.34664 0.25884 0.0
C471 C 0.17284 0.34868 0.26408 0.0
H472 H 0.82164 0.25546 0.74114 0.0
H473 H 0.87568 0.2096 0.73266 0.0
H474 H 0.82851 0.1593 0.73574 0.0
H475 H 0.77229 0.12841 0.74234 0.0
H476 H 0.71749 0.17342 0.74747 0.0
H477 H 0.76475 0.22417 0.74478 0.0
C478 C 0.82306 0.23445 0.73961 0.0
C479 C 0.85211 0.23626 0.73678 0.0
C480 C 0.79582 0.20554 0.7414 0.0
C481 C 0.85361 0.20886 0.73473 0.0
C482 C 0.82666 0.18007 0.73675 0.0
C483 C 0.77067 0.14932 0.74332 0.0
C484 C 0.74156 0.14727 0.74571 0.0
C485 C 0.79773 0.17818 0.74057 0.0
C486 C 0.73974 0.1745 0.74595 0.0
C487 C 0.7667 0.20346 0.74425 0.0
H488 H 0.62765 0.76604 0.20201 0.0
H489 H 0.53321 0.72443 0.25686 0.0
H490 H 0.53686 0.77543 0.25672 0.0
H491 H 0.56799 0.8321 0.24414 0.0
H492 H 0.66197 0.87233 0.18646 0.0
H493 H 0.6572 0.8213 0.18379 0.0
C494 C 0.60786 0.76811 0.21417 0.0
C495 C 0.58038 0.74174 0.23032 0.0
C496 C 0.61001 0.79715 0.21306 0.0
C497 C 0.55468 0.74457 0.24471 0.0
C498 C 0.55678 0.77365 0.24454 0.0
C499 C 0.58729 0.82962 0.23046 0.0
C500 C 0.61537 0.85599 0.21592 0.0
C501 C 0.58444 0.80014 0.22915 0.0
C502 C 0.64013 0.85244 0.19802 0.0
C503 C 0.6375 0.82329 0.19669 0.0
H504 H 0.8449 0.62929 0.6797 0.0
H505 H 0.79992 0.53572 0.73982 0.0
H506 H 0.74966 0.53381 0.73709 0.0
H507 H 0.71977 0.56083 0.72435 0.0
H508 H 0.76611 0.65432 0.6625 0.0
H509 H 0.8147 0.65399 0.65832 0.0
C510 C 0.82405 0.60842 0.69209 0.0
C511 C 0.82596 0.5829 0.71097 0.0
C512 C 0.79561 0.6075 0.68993 0.0
C513 C 0.79885 0.55571 0.72557 0.0
C514 C 0.77024 0.55467 0.72407 0.0
C515 C 0.74041 0.58093 0.70921 0.0
C516 C 0.73943 0.60772 0.69446 0.0
C517 C 0.76847 0.5807 0.70725 0.0
C518 C 0.76628 0.63351 0.67455 0.0
C519 C 0.79412 0.63341 0.6723 0.0
H520 H 0.23089 0.86309 0.20645 0.0
H521 H 0.27326 0.81068 0.26098 0.0
H522 H 0.22247 0.7632 0.26084 0.0
H523 H 0.16575 0.73735 0.24804 0.0
H524 H 0.12487 0.79091 0.1913 0.0
H525 H 0.17564 0.83728 0.18896 0.0
C526 C 0.22906 0.8413 0.2185 0.0
C527 C 0.25559 0.84034 0.23445 0.0
C528 C 0.20014 0.81436 0.21765 0.0
C529 C 0.25301 0.8119 0.24886 0.0
C530 C 0.22405 0.78484 0.24875 0.0
C531 C 0.16803 0.75913 0.23477 0.0
C532 C 0.14156 0.76073 0.22024 0.0
C533 C 0.1974 0.78587 0.23356 0.0
C534 C 0.14485 0.78905 0.20287 0.0
C535 C 0.17386 0.81563 0.20165 0.0
H536 H 0.36773 0.21662 0.6797 0.0
H537 H 0.45919 0.26074 0.74937 0.0
H538 H 0.45946 0.2117 0.745 0.0
H539 H 0.43147 0.15534 0.72858 0.0
H540 H 0.33957 0.11203 0.66024 0.0
H541 H 0.3419 0.16198 0.65625 0.0
C542 C 0.38782 0.21558 0.69372 0.0
C543 C 0.41319 0.24202 0.71563 0.0
C544 C 0.3877 0.18751 0.69131 0.0
C545 C 0.4393 0.24055 0.73266 0.0
C546 C 0.43942 0.21255 0.73025 0.0
C547 C 0.41217 0.15694 0.71206 0.0
C548 C 0.38525 0.13 0.69529 0.0
C549 C 0.41344 0.18573 0.71067 0.0
C550 C 0.36044 0.1324 0.67385 0.0
C551 C 0.3617 0.16092 0.67166 0.0
loop_
_geom_bond_atom_site_label_1
_geom_bond_atom_site_label_2
_geom_bond_distance
_geom_bond_site_symmetry_2
_ccdc_geom_bond_type
C0 O1 1.306 1_455 S
C0 O3 1.160 . S
O1 C0 1.306 1_655 S
O1 Cd2 2.228 . S
Cd2 O1 2.228 . S
Cd2 O6 2.273 1_655 S
Cd2 O10 2.277 1_655 S
O3 C0 1.160 . S
O3 Cd4 2.203 . S
Cd4 O3 2.203 . S
Cd4 O6 2.411 . S
Cd4 O7 2.333 . S
Cd4 O8 2.352 . S
Cd4 O12 2.277 . S
Cd4 O13 2.356 . S
C5 O10 1.209 . S
C5 O12 1.226 . S
O6 Cd2 2.273 1_455 S
O6 Cd4 2.411 . S
O6 C9 1.320 . S
O7 Cd4 2.333 . S
O7 C9 1.214 . S
O8 Cd4 2.352 . S
O8 C11 1.258 . S
C9 O6 1.320 . S
C9 O7 1.214 . S
O10 Cd2 2.277 1_455 S
O10 C5 1.209 . S
C11 O8 1.258 . S
C11 O13 1.282 . S
O12 Cd4 2.277 . S
O12 C5 1.226 . S
O13 Cd4 2.356 . S
O13 C11 1.282 . S
C14 O15 1.306 1_545 S
C14 O17 1.160 . S
O15 C14 1.306 1_565 S
O15 Cd16 2.228 . S
Cd16 O15 2.228 . S
Cd16 O20 2.273 1_565 S
Cd16 O24 2.277 1_565 S
O17 C14 1.160 . S
O17 Cd18 2.203 . S
Cd18 O17 2.203 . S
Cd18 O20 2.411 . S
Cd18 O21 2.333 . S
Cd18 O22 2.352 . S
Cd18 O26 2.277 . S
Cd18 O27 2.356 . S
C19 O24 1.209 . S
C19 O26 1.226 . S
O20 Cd16 2.273 1_545 S
O20 Cd18 2.411 . S
O20 C23 1.320 . S
O21 Cd18 2.333 . S
O21 C23 1.214 . S
O22 Cd18 2.352 . S
O22 C25 1.258 . S
C23 O20 1.320 . S
C23 O21 1.214 . S
O24 Cd16 2.277 1_545 S
O24 C19 1.209 . S
C25 O22 1.258 . S
C25 O27 1.282 . S
O26 Cd18 2.277 . S
O26 C19 1.226 . S
O27 Cd18 2.356 . S
O27 C25 1.282 . S
C28 O29 1.306 . S
C28 O31 1.160 . S
O29 C28 1.306 . S
O29 Cd30 2.228 . S
Cd30 O29 2.228 . S
Cd30 O34 2.273 . S
Cd30 O38 2.277 . S
O31 C28 1.160 . S
O31 Cd32 2.203 . S
Cd32 O31 2.203 . S
Cd32 O34 2.411 . S
Cd32 O35 2.333 . S
Cd32 O36 2.352 . S
Cd32 O40 2.277 . S
Cd32 O41 2.356 . S
C33 O38 1.209 . S
C33 O40 1.226 . S
O34 Cd30 2.273 . S
O34 Cd32 2.411 . S
O34 C37 1.320 . S
O35 Cd32 2.333 . S
O35 C37 1.214 . S
O36 Cd32 2.352 . S
O36 C39 1.258 . S
C37 O34 1.320 . S
C37 O35 1.214 . S
O38 Cd30 2.277 . S
O38 C33 1.209 . S
C39 O36 1.258 . S
C39 O41 1.282 . S
O40 Cd32 2.277 . S
O40 C33 1.226 . S
O41 Cd32 2.356 . S
O41 C39 1.282 . S
C42 O43 1.306 1_655 S
C42 O45 1.160 . S
O43 C42 1.306 1_455 S
O43 Cd44 2.228 . S
Cd44 O43 2.228 . S
Cd44 O48 2.273 1_455 S
Cd44 O52 2.277 1_455 S
O45 C42 1.160 . S
O45 Cd46 2.203 . S
Cd46 O45 2.203 . S
Cd46 O48 2.411 . S
Cd46 O49 2.333 . S
Cd46 O50 2.352 . S
Cd46 O54 2.277 . S
Cd46 O55 2.356 . S
C47 O52 1.209 . S
C47 O54 1.226 . S
O48 Cd44 2.273 1_655 S
O48 Cd46 2.411 . S
O48 C51 1.320 . S
O49 Cd46 2.333 . S
O49 C51 1.214 . S
O50 Cd46 2.352 . S
O50 C53 1.258 . S
C51 O48 1.320 . S
C51 O49 1.214 . S
O52 Cd44 2.277 1_655 S
O52 C47 1.209 . S
C53 O50 1.258 . S
C53 O55 1.282 . S
O54 Cd46 2.277 . S
O54 C47 1.226 . S
O55 Cd46 2.356 . S
O55 C53 1.282 . S
C56 O57 1.306 1_565 S
C56 O59 1.160 . S
O57 C56 1.306 1_545 S
O57 Cd58 2.228 . S
Cd58 O57 2.228 . S
Cd58 O62 2.273 1_545 S
Cd58 O66 2.277 1_545 S
O59 C56 1.160 . S
O59 Cd60 2.203 . S
Cd60 O59 2.203 . S
Cd60 O62 2.411 . S
Cd60 O63 2.333 . S
Cd60 O64 2.352 . S
Cd60 O68 2.277 . S
Cd60 O69 2.356 . S
C61 O66 1.209 . S
C61 O68 1.226 . S
O62 Cd58 2.273 1_565 S
O62 Cd60 2.411 . S
O62 C65 1.320 . S
O63 Cd60 2.333 . S
O63 C65 1.214 . S
O64 Cd60 2.352 . S
O64 C67 1.258 . S
C65 O62 1.320 . S
C65 O63 1.214 . S
O66 Cd58 2.277 1_565 S
O66 C61 1.209 . S
C67 O64 1.258 . S
C67 O69 1.282 . S
O68 Cd60 2.277 . S
O68 C61 1.226 . S
O69 Cd60 2.356 . S
O69 C67 1.282 . S
C70 O71 1.306 . S
C70 O73 1.160 . S
O71 C70 1.306 . S
O71 Cd72 2.228 . S
Cd72 O71 2.228 . S
Cd72 O76 2.273 . S
Cd72 O80 2.277 . S
O73 C70 1.160 . S
O73 Cd74 2.203 . S
Cd74 O73 2.203 . S
Cd74 O76 2.411 . S
Cd74 O77 2.333 . S
Cd74 O78 2.352 . S
Cd74 O82 2.277 . S
Cd74 O83 2.356 . S
C75 O80 1.209 . S
C75 O82 1.226 . S
O76 Cd72 2.273 . S
O76 Cd74 2.411 . S
O76 C79 1.320 . S
O77 Cd74 2.333 . S
O77 C79 1.214 . S
O78 Cd74 2.352 . S
O78 C81 1.258 . S
C79 O76 1.320 . S
C79 O77 1.214 . S
O80 Cd72 2.277 . S
O80 C75 1.209 . S
C81 O78 1.258 . S
C81 O83 1.282 . S
O82 Cd74 2.277 . S
O82 C75 1.226 . S
O83 Cd74 2.356 . S
O83 C81 1.282 . S
C84 O85 1.306 1_565 S
C84 O87 1.160 . S
O85 C84 1.306 1_545 S
O85 Cd86 2.228 . S
Cd86 O85 2.228 . S
Cd86 O90 2.273 1_545 S
Cd86 O94 2.277 1_545 S
O87 C84 1.160 . S
O87 Cd88 2.203 . S
Cd88 O87 2.203 . S
Cd88 O90 2.411 . S
Cd88 O91 2.333 . S
Cd88 O92 2.352 . S
Cd88 O96 2.277 . S
Cd88 O97 2.356 . S
C89 O94 1.209 . S
C89 O96 1.226 . S
O90 Cd86 2.273 1_565 S
O90 Cd88 2.411 . S
O90 C93 1.320 . S
O91 Cd88 2.333 . S
O91 C93 1.214 . S
O92 Cd88 2.352 . S
O92 C95 1.258 . S
C93 O90 1.320 . S
C93 O91 1.214 . S
O94 Cd86 2.277 1_565 S
O94 C89 1.209 . S
C95 O92 1.258 . S
C95 O97 1.282 . S
O96 Cd88 2.277 . S
O96 C89 1.226 . S
O97 Cd88 2.356 . S
O97 C95 1.282 . S
C98 O99 1.306 . S
C98 O101 1.160 . S
O99 C98 1.306 . S
O99 Cd100 2.228 . S
Cd100 O99 2.228 . S
Cd100 O104 2.273 . S
Cd100 O108 2.277 . S
O101 C98 1.160 . S
O101 Cd102 2.203 . S
Cd102 O101 2.203 . S
Cd102 O104 2.411 . S
Cd102 O105 2.333 . S
Cd102 O106 2.352 . S
Cd102 O110 2.277 . S
Cd102 O111 2.356 . S
C103 O108 1.209 . S
C103 O110 1.226 . S
O104 Cd100 2.273 . S
O104 Cd102 2.411 . S
O104 C107 1.320 . S
O105 Cd102 2.333 . S
O105 C107 1.214 . S
O106 Cd102 2.352 . S
O106 C109 1.258 . S
C107 O104 1.320 . S
C107 O105 1.214 . S
O108 Cd100 2.277 . S
O108 C103 1.209 . S
C109 O106 1.258 . S
C109 O111 1.282 . S
O110 Cd102 2.277 . S
O110 C103 1.226 . S
O111 Cd102 2.356 . S
O111 C109 1.282 . S
C112 O113 1.306 1_455 S
C112 O115 1.160 . S
O113 C112 1.306 1_655 S
O113 Cd114 2.228 . S
Cd114 O113 2.228 . S
Cd114 O118 2.273 1_655 S
Cd114 O122 2.277 1_655 S
O115 C112 1.160 . S
O115 Cd116 2.203 . S
Cd116 O115 2.203 . S
Cd116 O118 2.411 . S
Cd116 O119 2.333 . S
Cd116 O120 2.352 . S
Cd116 O124 2.277 . S
Cd116 O125 2.356 . S
C117 O122 1.209 . S
C117 O124 1.226 . S
O118 Cd114 2.273 1_455 S
O118 Cd116 2.411 . S
O118 C121 1.320 . S
O119 Cd116 2.333 . S
O119 C121 1.214 . S
O120 Cd116 2.352 . S
O120 C123 1.258 . S
C121 O118 1.320 . S
C121 O119 1.214 . S
O122 Cd114 2.277 1_455 S
O122 C117 1.209 . S
C123 O120 1.258 . S
C123 O125 1.282 . S
O124 Cd116 2.277 . S
O124 C117 1.226 . S
O125 Cd116 2.356 . S
O125 C123 1.282 . S
C126 O127 1.306 1_545 S
C126 O129 1.160 . S
O127 C126 1.306 1_565 S
O127 Cd128 2.228 . S
Cd128 O127 2.228 . S
Cd128 O132 2.273 1_565 S
Cd128 O136 2.277 1_565 S
O129 C126 1.160 . S
O129 Cd130 2.203 . S
Cd130 O129 2.203 . S
Cd130 O132 2.411 . S
Cd130 O133 2.333 . S
Cd130 O134 2.352 . S
Cd130 O138 2.277 . S
Cd130 O139 2.356 . S
C131 O136 1.209 . S
C131 O138 1.226 . S
O132 Cd128 2.273 1_545 S
O132 Cd130 2.411 . S
O132 C135 1.320 . S
O133 Cd130 2.333 . S
O133 C135 1.214 . S
O134 Cd130 2.352 . S
O134 C137 1.258 . S
C135 O132 1.320 . S
C135 O133 1.214 . S
O136 Cd128 2.277 1_545 S
O136 C131 1.209 . S
C137 O134 1.258 . S
C137 O139 1.282 . S
O138 Cd130 2.277 . S
O138 C131 1.226 . S
O139 Cd130 2.356 . S
O139 C137 1.282 . S
C140 O141 1.306 . S
C140 O143 1.160 . S
O141 C140 1.306 . S
O141 Cd142 2.228 . S
Cd142 O141 2.228 . S
Cd142 O146 2.273 . S
Cd142 O150 2.277 . S
O143 C140 1.160 . S
O143 Cd144 2.203 . S
Cd144 O143 2.203 . S
Cd144 O146 2.411 . S
Cd144 O147 2.333 . S
Cd144 O148 2.352 . S
Cd144 O152 2.277 . S
Cd144 O153 2.356 . S
C145 O150 1.209 . S
C145 O152 1.226 . S
O146 Cd142 2.273 . S
O146 Cd144 2.411 . S
O146 C149 1.320 . S
O147 Cd144 2.333 . S
O147 C149 1.214 . S
O148 Cd144 2.352 . S
O148 C151 1.258 . S
C149 O146 1.320 . S
C149 O147 1.214 . S
O150 Cd142 2.277 . S
O150 C145 1.209 . S
C151 O148 1.258 . S
C151 O153 1.282 . S
O152 Cd144 2.277 . S
O152 C145 1.226 . S
O153 Cd144 2.356 . S
O153 C151 1.282 . S
C154 O155 1.306 1_655 S
C154 O157 1.160 . S
O155 C154 1.306 1_455 S
O155 Cd156 2.228 . S
Cd156 O155 2.228 . S
Cd156 O160 2.273 1_455 S
Cd156 O164 2.277 1_455 S
O157 C154 1.160 . S
O157 Cd158 2.203 . S
Cd158 O157 2.203 . S
Cd158 O160 2.411 . S
Cd158 O161 2.333 . S
Cd158 O162 2.352 . S
Cd158 O166 2.277 . S
Cd158 O167 2.356 . S
C159 O164 1.209 . S
C159 O166 1.226 . S
O160 Cd156 2.273 1_655 S
O160 Cd158 2.411 . S
O160 C163 1.320 . S
O161 Cd158 2.333 . S
O161 C163 1.214 . S
O162 Cd158 2.352 . S
O162 C165 1.258 . S
C163 O160 1.320 . S
C163 O161 1.214 . S
O164 Cd156 2.277 1_655 S
O164 C159 1.209 . S
C165 O162 1.258 . S
C165 O167 1.282 . S
O166 Cd158 2.277 . S
O166 C159 1.226 . S
O167 Cd158 2.356 . S
O167 C165 1.282 . S
H168 C174 0.930 . S
H169 C177 0.930 . S
H170 C178 0.930 1_556 S
H171 C179 0.930 . S
H172 C182 0.930 . S
H173 C183 0.930 1_554 S
C174 H168 0.930 . S
C174 C175 1.355 1_655 S
C174 C176 1.415 . S
C175 C174 1.355 1_455 S
C175 C177 1.419 . S
C176 C174 1.415 . S
C176 C181 1.425 1_654 S
C176 C183 1.409 1_554 S
C177 H169 0.930 . S
C177 C175 1.419 . S
C177 C178 1.362 . S
C178 H170 0.930 1_554 S
C178 C177 1.362 . S
C178 C181 1.409 1_554 S
C179 H171 0.930 . S
C179 C180 1.355 1_455 S
C179 C181 1.415 . S
C180 C179 1.355 1_655 S
C180 C182 1.419 . S
C181 C176 1.425 1_456 S
C181 C178 1.409 1_556 S
C181 C179 1.415 . S
C182 H172 0.930 . S
C182 C180 1.419 . S
C182 C183 1.362 . S
C183 H173 0.930 1_556 S
C183 C176 1.409 1_556 S
C183 C182 1.362 . S
H184 C190 0.930 . S
H185 C193 0.930 . S
H186 C194 0.930 . S
H187 C195 0.930 . S
H188 C198 0.930 . S
H189 C199 0.930 . S
C190 H184 0.930 . S
C190 C191 1.355 . S
C190 C192 1.415 . S
C191 C190 1.355 . S
C191 C193 1.419 1_565 S
C192 C190 1.415 . S
C192 C197 1.425 1_565 S
C192 C199 1.409 . S
C193 H185 0.930 . S
C193 C191 1.419 1_545 S
C193 C194 1.362 . S
C194 H186 0.930 . S
C194 C193 1.362 . S
C194 C197 1.409 . S
C195 H187 0.930 . S
C195 C196 1.355 . S
C195 C197 1.415 . S
C196 C195 1.355 . S
C196 C198 1.419 1_545 S
C197 C192 1.425 1_545 S
C197 C194 1.409 . S
C197 C195 1.415 . S
C198 H188 0.930 . S
C198 C196 1.419 1_565 S
C198 C199 1.362 . S
C199 H189 0.930 . S
C199 C192 1.409 . S
C199 C198 1.362 . S
H200 C206 0.930 . S
H201 C209 0.930 . S
H202 C210 0.930 1_556 S
H203 C211 0.930 . S
H204 C214 0.930 . S
H205 C215 0.930 1_554 S
C206 H200 0.930 . S
C206 C207 1.355 . S
C206 C208 1.415 . S
C207 C206 1.355 . S
C207 C209 1.419 . S
C208 C206 1.415 . S
C208 C213 1.425 1_554 S
C208 C215 1.409 1_554 S
C209 H201 0.930 . S
C209 C207 1.419 . S
C209 C210 1.362 . S
C210 H202 0.930 1_554 S
C210 C209 1.362 . S
C210 C213 1.409 1_554 S
C211 H203 0.930 . S
C211 C212 1.355 . S
C211 C213 1.415 . S
C212 C211 1.355 . S
C212 C214 1.419 . S
C213 C208 1.425 1_556 S
C213 C210 1.409 1_556 S
C213 C211 1.415 . S
C214 H204 0.930 . S
C214 C212 1.419 . S
C214 C215 1.362 . S
C215 H205 0.930 1_556 S
C215 C208 1.409 1_556 S
C215 C214 1.362 . S
H216 C222 0.930 . S
H217 C225 0.930 . S
H218 C226 0.930 . S
H219 C227 0.930 . S
H220 C230 0.930 . S
H221 C231 0.930 . S
C222 H216 0.930 . S
C222 C223 1.355 . S
C222 C224 1.415 . S
C223 C222 1.355 . S
C223 C225 1.419 1_455 S
C224 C222 1.415 . S
C224 C229 1.425 1_455 S
C224 C231 1.409 . S
C225 H217 0.930 . S
C225 C223 1.419 1_655 S
C225 C226 1.362 . S
C226 H218 0.930 . S
C226 C225 1.362 . S
C226 C229 1.409 . S
C227 H219 0.930 . S
C227 C228 1.355 . S
C227 C229 1.415 . S
C228 C227 1.355 . S
C228 C230 1.419 1_655 S
C229 C224 1.425 1_655 S
C229 C226 1.409 . S
C229 C227 1.415 . S
C230 H220 0.930 . S
C230 C228 1.419 1_455 S
C230 C231 1.362 . S
C231 H221 0.930 . S
C231 C224 1.409 . S
C231 C230 1.362 . S
H232 C238 0.930 . S
H233 C241 0.930 . S
H234 C242 0.930 1_554 S
H235 C243 0.930 . S
H236 C246 0.930 . S
H237 C247 0.930 1_556 S
C238 H232 0.930 . S
C238 C239 1.355 1_565 S
C238 C240 1.415 . S
C239 C238 1.355 1_545 S
C239 C241 1.419 . S
C240 C238 1.415 . S
C240 C245 1.425 1_566 S
C240 C247 1.409 1_556 S
C241 H233 0.930 . S
C241 C239 1.419 . S
C241 C242 1.362 . S
C242 H234 0.930 1_556 S
C242 C241 1.362 . S
C242 C245 1.409 1_556 S
C243 H235 0.930 . S
C243 C244 1.355 1_545 S
C243 C245 1.415 . S
C244 C243 1.355 1_565 S
C244 C246 1.419 . S
C245 C240 1.425 1_544 S
C245 C242 1.409 1_554 S
C245 C243 1.415 . S
C246 H236 0.930 . S
C246 C244 1.419 . S
C246 C247 1.362 . S
C247 H237 0.930 1_554 S
C247 C240 1.409 1_554 S
C247 C246 1.362 . S
H248 C254 0.930 . S
H249 C257 0.930 . S
H250 C258 0.930 . S
H251 C259 0.930 . S
H252 C262 0.930 . S
H253 C263 0.930 . S
C254 H248 0.930 . S
C254 C255 1.355 . S
C254 C256 1.415 . S
C255 C254 1.355 . S
C255 C257 1.419 . S
C256 C254 1.415 . S
C256 C261 1.425 . S
C256 C263 1.409 . S
C257 H249 0.930 . S
C257 C255 1.419 . S
C257 C258 1.362 . S
C258 H250 0.930 . S
C258 C257 1.362 . S
C258 C261 1.409 . S
C259 H251 0.930 . S
C259 C260 1.355 . S
C259 C261 1.415 . S
C260 C259 1.355 . S
C260 C262 1.419 . S
C261 C256 1.425 . S
C261 C258 1.409 . S
C261 C259 1.415 . S
C262 H252 0.930 . S
C262 C260 1.419 . S
C262 C263 1.362 . S
C263 H253 0.930 . S
C263 C256 1.409 . S
C263 C262 1.362 . S
H264 C270 0.930 . S
H265 C273 0.930 . S
H266 C274 0.930 1_554 S
H267 C275 0.930 . S
H268 C278 0.930 . S
H269 C279 0.930 1_556 S
C270 H264 0.930 . S
C270 C271 1.355 1_455 S
C270 C272 1.415 . S
C271 C270 1.355 1_655 S
C271 C273 1.419 . S
C272 C270 1.415 . S
C272 C277 1.425 1_456 S
C272 C279 1.409 1_556 S
C273 H265 0.930 . S
C273 C271 1.419 . S
C273 C274 1.362 . S
C274 H266 0.930 1_556 S
C274 C273 1.362 . S
C274 C277 1.409 1_556 S
C275 H267 0.930 . S
C275 C276 1.355 1_655 S
C275 C277 1.415 . S
C276 C275 1.355 1_455 S
C276 C278 1.419 . S
C277 C272 1.425 1_654 S
C277 C274 1.409 1_554 S
C277 C275 1.415 . S
C278 H268 0.930 . S
C278 C276 1.419 . S
C278 C279 1.362 . S
C279 H269 0.930 1_554 S
C279 C272 1.409 1_554 S
C279 C278 1.362 . S
H280 C286 0.930 . S
H281 C289 0.930 . S
H282 C290 0.930 . S
H283 C291 0.930 . S
H284 C294 0.930 . S
H285 C295 0.930 . S
C286 H280 0.930 . S
C286 C287 1.355 . S
C286 C288 1.415 . S
C287 C286 1.355 . S
C287 C289 1.419 1_565 S
C288 C286 1.415 . S
C288 C293 1.425 1_565 S
C288 C295 1.409 . S
C289 H281 0.930 . S
C289 C287 1.419 1_545 S
C289 C290 1.362 . S
C290 H282 0.930 . S
C290 C289 1.362 . S
C290 C293 1.409 . S
C291 H283 0.930 . S
C291 C292 1.355 . S
C291 C293 1.415 . S
C292 C291 1.355 . S
C292 C294 1.419 1_545 S
C293 C288 1.425 1_545 S
C293 C290 1.409 . S
C293 C291 1.415 . S
C294 H284 0.930 . S
C294 C292 1.419 1_565 S
C294 C295 1.362 . S
C295 H285 0.930 . S
C295 C288 1.409 . S
C295 C294 1.362 . S
H296 C302 0.930 . S
H297 C305 0.930 . S
H298 C306 0.930 1_554 S
H299 C307 0.930 . S
H300 C310 0.930 . S
H301 C311 0.930 1_556 S
C302 H296 0.930 . S
C302 C303 1.355 . S
C302 C304 1.415 . S
C303 C302 1.355 . S
C303 C305 1.419 . S
C304 C302 1.415 . S
C304 C309 1.425 1_556 S
C304 C311 1.409 1_556 S
C305 H297 0.930 . S
C305 C303 1.419 . S
C305 C306 1.362 . S
C306 H298 0.930 1_556 S
C306 C305 1.362 . S
C306 C309 1.409 1_556 S
C307 H299 0.930 . S
C307 C308 1.355 . S
C307 C309 1.415 . S
C308 C307 1.355 . S
C308 C310 1.419 . S
C309 C304 1.425 1_554 S
C309 C306 1.409 1_554 S
C309 C307 1.415 . S
C310 H300 0.930 . S
C310 C308 1.419 . S
C310 C311 1.362 . S
C311 H301 0.930 1_554 S
C311 C304 1.409 1_554 S
C311 C310 1.362 . S
H312 C318 0.930 . S
H313 C321 0.930 . S
H314 C322 0.930 . S
H315 C323 0.930 . S
H316 C326 0.930 . S
H317 C327 0.930 . S
C318 H312 0.930 . S
C318 C319 1.355 . S
C318 C320 1.415 . S
C319 C318 1.355 . S
C319 C321 1.419 . S
C320 C318 1.415 . S
C320 C325 1.425 1_655 S
C320 C327 1.409 1_655 S
C321 H313 0.930 . S
C321 C319 1.419 . S
C321 C322 1.362 . S
C322 H314 0.930 . S
C322 C321 1.362 . S
C322 C325 1.409 1_655 S
C323 H315 0.930 . S
C323 C324 1.355 . S
C323 C325 1.415 . S
C324 C323 1.355 . S
C324 C326 1.419 . S
C325 C320 1.425 1_455 S
C325 C322 1.409 1_455 S
C325 C323 1.415 . S
C326 H316 0.930 . S
C326 C324 1.419 . S
C326 C327 1.362 . S
C327 H317 0.930 . S
C327 C320 1.409 1_455 S
C327 C326 1.362 . S
H328 C334 0.930 . S
H329 C337 0.930 . S
H330 C338 0.930 . S
H331 C339 0.930 . S
H332 C342 0.930 . S
H333 C343 0.930 . S
C334 H328 0.930 . S
C334 C335 1.355 . S
C334 C336 1.415 . S
C335 C334 1.355 . S
C335 C337 1.419 1_545 S
C336 C334 1.415 . S
C336 C341 1.425 1_546 S
C336 C343 1.409 1_556 S
C337 H329 0.930 . S
C337 C335 1.419 1_565 S
C337 C338 1.362 . S
C338 H330 0.930 . S
C338 C337 1.362 . S
C338 C341 1.409 1_556 S
C339 H331 0.930 . S
C339 C340 1.355 . S
C339 C341 1.415 . S
C340 C339 1.355 . S
C340 C342 1.419 1_565 S
C341 C336 1.425 1_564 S
C341 C338 1.409 1_554 S
C341 C339 1.415 . S
C342 H332 0.930 . S
C342 C340 1.419 1_545 S
C342 C343 1.362 . S
C343 H333 0.930 . S
C343 C336 1.409 1_554 S
C343 C342 1.362 . S
H344 C350 0.930 . S
H345 C353 0.930 . S
H346 C354 0.930 . S
H347 C355 0.930 . S
H348 C358 0.930 . S
H349 C359 0.930 . S
C350 H344 0.930 . S
C350 C351 1.355 . S
C350 C352 1.415 . S
C351 C350 1.355 . S
C351 C353 1.419 . S
C352 C350 1.415 . S
C352 C357 1.425 . S
C352 C359 1.409 . S
C353 H345 0.930 . S
C353 C351 1.419 . S
C353 C354 1.362 . S
C354 H346 0.930 . S
C354 C353 1.362 . S
C354 C357 1.409 . S
C355 H347 0.930 . S
C355 C356 1.355 . S
C355 C357 1.415 . S
C356 C355 1.355 . S
C356 C358 1.419 . S
C357 C352 1.425 . S
C357 C354 1.409 . S
C357 C355 1.415 . S
C358 H348 0.930 . S
C358 C356 1.419 . S
C358 C359 1.362 . S
C359 H349 0.930 . S
C359 C352 1.409 . S
C359 C358 1.362 . S
H360 C366 0.930 . S
H361 C369 0.930 1_655 S
H362 C370 0.930 1_655 S
H363 C371 0.930 . S
H364 C374 0.930 . S
H365 C375 0.930 . S
C366 H360 0.930 . S
C366 C367 1.355 . S
C366 C368 1.415 . S
C367 C366 1.355 . S
C367 C369 1.419 . S
C368 C366 1.415 . S
C368 C373 1.425 . S
C368 C375 1.409 . S
C369 H361 0.930 1_455 S
C369 C367 1.419 . S
C369 C370 1.362 . S
C370 H362 0.930 1_455 S
C370 C369 1.362 . S
C370 C373 1.409 . S
C371 H363 0.930 . S
C371 C372 1.355 . S
C371 C373 1.415 . S
C372 C371 1.355 . S
C372 C374 1.419 . S
C373 C368 1.425 . S
C373 C370 1.409 . S
C373 C371 1.415 . S
C374 H364 0.930 . S
C374 C372 1.419 . S
C374 C375 1.362 . S
C375 H365 0.930 . S
C375 C368 1.409 . S
C375 C374 1.362 . S
H376 C382 0.930 . S
H377 C385 0.930 . S
H378 C386 0.930 . S
H379 C387 0.930 . S
H380 C390 0.930 . S
H381 C391 0.930 . S
C382 H376 0.930 . S
C382 C383 1.355 . S
C382 C384 1.415 . S
C383 C382 1.355 . S
C383 C385 1.419 . S
C384 C382 1.415 . S
C384 C389 1.425 . S
C384 C391 1.409 . S
C385 H377 0.930 . S
C385 C383 1.419 . S
C385 C386 1.362 . S
C386 H378 0.930 . S
C386 C385 1.362 . S
C386 C389 1.409 . S
C387 H379 0.930 . S
C387 C388 1.355 . S
C387 C389 1.415 . S
C388 C387 1.355 . S
C388 C390 1.419 . S
C389 C384 1.425 . S
C389 C386 1.409 . S
C389 C387 1.415 . S
C390 H380 0.930 . S
C390 C388 1.419 . S
C390 C391 1.362 . S
C391 H381 0.930 . S
C391 C384 1.409 . S
C391 C390 1.362 . S
H392 C398 0.930 . S
H393 C401 0.930 . S
H394 C402 0.930 . S
H395 C403 0.930 . S
H396 C406 0.930 . S
H397 C407 0.930 . S
C398 H392 0.930 . S
C398 C399 1.355 . S
C398 C400 1.415 . S
C399 C398 1.355 . S
C399 C401 1.419 . S
C400 C398 1.415 . S
C400 C405 1.425 . S
C400 C407 1.409 . S
C401 H393 0.930 . S
C401 C399 1.419 . S
C401 C402 1.362 . S
C402 H394 0.930 . S
C402 C401 1.362 . S
C402 C405 1.409 . S
C403 H395 0.930 . S
C403 C404 1.355 . S
C403 C405 1.415 . S
C404 C403 1.355 . S
C404 C406 1.419 . S
C405 C400 1.425 . S
C405 C402 1.409 . S
C405 C403 1.415 . S
C406 H396 0.930 . S
C406 C404 1.419 . S
C406 C407 1.362 . S
C407 H397 0.930 . S
C407 C400 1.409 . S
C407 C406 1.362 . S
H408 C414 0.930 . S
H409 C417 0.930 1_455 S
H410 C418 0.930 1_455 S
H411 C419 0.930 . S
H412 C422 0.930 . S
H413 C423 0.930 . S
C414 H408 0.930 . S
C414 C415 1.355 . S
C414 C416 1.415 . S
C415 C414 1.355 . S
C415 C417 1.419 . S
C416 C414 1.415 . S
C416 C421 1.425 . S
C416 C423 1.409 . S
C417 H409 0.930 1_655 S
C417 C415 1.419 . S
C417 C418 1.362 . S
C418 H410 0.930 1_655 S
C418 C417 1.362 . S
C418 C421 1.409 . S
C419 H411 0.930 . S
C419 C420 1.355 . S
C419 C421 1.415 . S
C420 C419 1.355 . S
C420 C422 1.419 . S
C421 C416 1.425 . S
C421 C418 1.409 . S
C421 C419 1.415 . S
C422 H412 0.930 . S
C422 C420 1.419 . S
C422 C423 1.362 . S
C423 H413 0.930 . S
C423 C416 1.409 . S
C423 C422 1.362 . S
H424 C430 0.930 . S
H425 C433 0.930 . S
H426 C434 0.930 . S
H427 C435 0.930 . S
H428 C438 0.930 . S
H429 C439 0.930 . S
C430 H424 0.930 . S
C430 C431 1.355 . S
C430 C432 1.415 . S
C431 C430 1.355 . S
C431 C433 1.419 . S
C432 C430 1.415 . S
C432 C437 1.425 . S
C432 C439 1.409 . S
C433 H425 0.930 . S
C433 C431 1.419 . S
C433 C434 1.362 . S
C434 H426 0.930 . S
C434 C433 1.362 . S
C434 C437 1.409 . S
C435 H427 0.930 . S
C435 C436 1.355 . S
C435 C437 1.415 . S
C436 C435 1.355 . S
C436 C438 1.419 . S
C437 C432 1.425 . S
C437 C434 1.409 . S
C437 C435 1.415 . S
C438 H428 0.930 . S
C438 C436 1.419 . S
C438 C439 1.362 . S
C439 H429 0.930 . S
C439 C432 1.409 . S
C439 C438 1.362 . S
H440 C446 0.930 . S
H441 C449 0.930 . S
H442 C450 0.930 . S
H443 C451 0.930 . S
H444 C454 0.930 . S
H445 C455 0.930 . S
C446 H440 0.930 . S
C446 C447 1.355 . S
C446 C448 1.415 . S
C447 C446 1.355 . S
C447 C449 1.419 . S
C448 C446 1.415 . S
C448 C453 1.425 . S
C448 C455 1.409 . S
C449 H441 0.930 . S
C449 C447 1.419 . S
C449 C450 1.362 . S
C450 H442 0.930 . S
C450 C449 1.362 . S
C450 C453 1.409 . S
C451 H443 0.930 . S
C451 C452 1.355 . S
C451 C453 1.415 . S
C452 C451 1.355 . S
C452 C454 1.419 . S
C453 C448 1.425 . S
C453 C450 1.409 . S
C453 C451 1.415 . S
C454 H444 0.930 . S
C454 C452 1.419 . S
C454 C455 1.362 . S
C455 H445 0.930 . S
C455 C448 1.409 . S
C455 C454 1.362 . S
H456 C462 0.930 . S
H457 C465 0.930 . S
H458 C466 0.930 . S
H459 C467 0.930 . S
H460 C470 0.930 . S
H461 C471 0.930 . S
C462 H456 0.930 . S
C462 C463 1.355 . S
C462 C464 1.415 . S
C463 C462 1.355 . S
C463 C465 1.419 . S
C464 C462 1.415 . S
C464 C469 1.425 . S
C464 C471 1.409 . S
C465 H457 0.930 . S
C465 C463 1.419 . S
C465 C466 1.362 . S
C466 H458 0.930 . S
C466 C465 1.362 . S
C466 C469 1.409 . S
C467 H459 0.930 . S
C467 C468 1.355 . S
C467 C469 1.415 . S
C468 C467 1.355 . S
C468 C470 1.419 . S
C469 C464 1.425 . S
C469 C466 1.409 . S
C469 C467 1.415 . S
C470 H460 0.930 . S
C470 C468 1.419 . S
C470 C471 1.362 . S
C471 H461 0.930 . S
C471 C464 1.409 . S
C471 C470 1.362 . S
H472 C478 0.930 . S
H473 C481 0.930 . S
H474 C482 0.930 . S
H475 C483 0.930 . S
H476 C486 0.930 . S
H477 C487 0.930 . S
C478 H472 0.930 . S
C478 C479 1.355 . S
C478 C480 1.415 . S
C479 C478 1.355 . S
C479 C481 1.419 . S
C480 C478 1.415 . S
C480 C485 1.425 . S
C480 C487 1.409 . S
C481 H473 0.930 . S
C481 C479 1.419 . S
C481 C482 1.362 . S
C482 H474 0.930 . S
C482 C481 1.362 . S
C482 C485 1.409 . S
C483 H475 0.930 . S
C483 C484 1.355 . S
C483 C485 1.415 . S
C484 C483 1.355 . S
C484 C486 1.419 . S
C485 C480 1.425 . S
C485 C482 1.409 . S
C485 C483 1.415 . S
C486 H476 0.930 . S
C486 C484 1.419 . S
C486 C487 1.362 . S
C487 H477 0.930 . S
C487 C480 1.409 . S
C487 C486 1.362 . S
H488 C494 0.930 . S
H489 C497 0.930 . S
H490 C498 0.930 . S
H491 C499 0.930 . S
H492 C502 0.930 . S
H493 C503 0.930 . S
C494 H488 0.930 . S
C494 C495 1.355 . S
C494 C496 1.415 . S
C495 C494 1.355 . S
C495 C497 1.419 . S
C496 C494 1.415 . S
C496 C501 1.425 . S
C496 C503 1.409 . S
C497 H489 0.930 . S
C497 C495 1.419 . S
C497 C498 1.362 . S
C498 H490 0.930 . S
C498 C497 1.362 . S
C498 C501 1.409 . S
C499 H491 0.930 . S
C499 C500 1.355 . S
C499 C501 1.415 . S
C500 C499 1.355 . S
C500 C502 1.419 . S
C501 C496 1.425 . S
C501 C498 1.409 . S
C501 C499 1.415 . S
C502 H492 0.930 . S
C502 C500 1.419 . S
C502 C503 1.362 . S
C503 H493 0.930 . S
C503 C496 1.409 . S
C503 C502 1.362 . S
H504 C510 0.930 . S
H505 C513 0.930 . S
H506 C514 0.930 . S
H507 C515 0.930 . S
H508 C518 0.930 . S
H509 C519 0.930 . S
C510 H504 0.930 . S
C510 C511 1.355 . S
C510 C512 1.415 . S
C511 C510 1.355 . S
C511 C513 1.419 . S
C512 C510 1.415 . S
C512 C517 1.425 . S
C512 C519 1.409 . S
C513 H505 0.930 . S
C513 C511 1.419 . S
C513 C514 1.362 . S
C514 H506 0.930 . S
C514 C513 1.362 . S
C514 C517 1.409 . S
C515 H507 0.930 . S
C515 C516 1.355 . S
C515 C517 1.415 . S
C516 C515 1.355 . S
C516 C518 1.419 . S
C517 C512 1.425 . S
C517 C514 1.409 . S
C517 C515 1.415 . S
C518 H508 0.930 . S
C518 C516 1.419 . S
C518 C519 1.362 . S
C519 H509 0.930 . S
C519 C512 1.409 . S
C519 C518 1.362 . S
H520 C526 0.930 . S
H521 C529 0.930 . S
H522 C530 0.930 . S
H523 C531 0.930 . S
H524 C534 0.930 . S
H525 C535 0.930 . S
C526 H520 0.930 . S
C526 C527 1.355 . S
C526 C528 1.415 . S
C527 C526 1.355 . S
C527 C529 1.419 . S
C528 C526 1.415 . S
C528 C533 1.425 . S
C528 C535 1.409 . S
C529 H521 0.930 . S
C529 C527 1.419 . S
C529 C530 1.362 . S
C530 H522 0.930 . S
C530 C529 1.362 . S
C530 C533 1.409 . S
C531 H523 0.930 . S
C531 C532 1.355 . S
C531 C533 1.415 . S
C532 C531 1.355 . S
C532 C534 1.419 . S
C533 C528 1.425 . S
C533 C530 1.409 . S
C533 C531 1.415 . S
C534 H524 0.930 . S
C534 C532 1.419 . S
C534 C535 1.362 . S
C535 H525 0.930 . S
C535 C528 1.409 . S
C535 C534 1.362 . S
H536 C542 0.930 . S
H537 C545 0.930 . S
H538 C546 0.930 . S
H539 C547 0.930 . S
H540 C550 0.930 . S
H541 C551 0.930 . S
C542 H536 0.930 . S
C542 C543 1.355 . S
C542 C544 1.415 . S
C543 C542 1.355 . S
C543 C545 1.419 . S
C544 C542 1.415 . S
C544 C549 1.425 . S
C544 C551 1.409 . S
C545 H537 0.930 . S
C545 C543 1.419 . S
C545 C546 1.362 . S
C546 H538 0.930 . S
C546 C545 1.362 . S
C546 C549 1.409 . S
C547 H539 0.930 . S
C547 C548 1.355 . S
C547 C549 1.415 . S
C548 C547 1.355 . S
C548 C550 1.419 . S
C549 C544 1.425 . S
C549 C546 1.409 . S
C549 C547 1.415 . S
C550 H540 0.930 . S
C550 C548 1.419 . S
C550 C551 1.362 . S
C551 H541 0.930 . S
C551 C544 1.409 . S
C551 C550 1.362 . S
C175 C9 1.388 . S
C180 C163 1.369 . S
C191 C93 1.394 . S
C196 C23 1.411 . S
C207 C37 1.366 . S
C212 C107 1.376 . S
C223 C121 1.387 . S
C228 C51 1.408 . S
C239 C135 1.367 . S
C244 C65 1.370 . S
C255 C149 1.411 . S
C260 C79 1.392 . S
C271 C42 1.325 . S
C276 C112 1.330 . S
C287 C56 1.349 . S
C292 C126 1.311 . S
C303 C70 1.335 . S
C308 C140 1.320 . S
C319 C154 1.348 . S
C324 C0 1.309 . S
C335 C14 1.335 . S
C340 C84 1.327 . S
C351 C28 1.341 . S
C356 C98 1.320 . S
C367 C117 1.638 . S
C372 C5 1.637 . S
C383 C131 1.638 . S
C388 C19 1.636 . S
C399 C33 1.636 . S
C404 C145 1.638 . S
C415 C47 1.638 . S
C420 C159 1.636 . S
C431 C61 1.637 . S
C436 C89 1.637 . S
C447 C103 1.638 . S
C452 C75 1.636 . S
C463 C11 1.586 . S
C468 C151 1.589 . S
C479 C165 1.600 . S
C484 C25 1.572 . S
C495 C39 1.574 . S
C500 C95 1.600 . S
C511 C53 1.589 . S
C516 C109 1.587 . S
C527 C67 1.572 . S
C532 C123 1.601 . S
C543 C81 1.582 . S
C548 C137 1.594 . S
