# Generated by pormake.
# Topology gis, (4)-cn, num edge types: 1
# Building blocks:
#     Node 0, Type 0, BuildingBlock: KUFVIS_clean_sbu_0, # of connection points: 4
#     Node 1, Type 0, BuildingBlock: KUFVIS_clean_sbu_0, # of connection points: 4
#     Node 2, Type 0, BuildingBlock: KUFVIS_clean_sbu_0, # of connection points: 4
#     Node 3, Type 0, BuildingBlock: KUFVIS_clean_sbu_0, # of connection points: 4
#     Node 4, Type 0, BuildingBlock: KUFVIS_clean_sbu_0, # of connection points: 4
#     Node 5, Type 0, BuildingBlock: KUFVIS_clean_sbu_0, # of connection points: 4
#     Node 6, Type 0, BuildingBlock: KUFVIS_clean_sbu_0, # of connection points: 4
#     Node 7, Type 0, BuildingBlock: KUFVIS_clean_sbu_0, # of connection points: 4
#     Node 8, Type 0, BuildingBlock: KUFVIS_clean_sbu_0, # of connection points: 4
#     Node 9, Type 0, BuildingBlock: KUFVIS_clean_sbu_0, # of connection points: 4
#     Node 10, Type 0, BuildingBlock: KUFVIS_clean_sbu_0, # of connection points: 4
#     Node 11, Type 0, BuildingBlock: KUFVIS_clean_sbu_0, # of connection points: 4
#     Node 12, Type 0, BuildingBlock: KUFVIS_clean_sbu_0, # of connection points: 4
#     Node 13, Type 0, BuildingBlock: KUFVIS_clean_sbu_0, # of connection points: 4
#     Node 14, Type 0, BuildingBlock: KUFVIS_clean_sbu_0, # of connection points: 4
#     Node 15, Type 0, BuildingBlock: KUFVIS_clean_sbu_0, # of connection points: 4
#     Edge 16, Type (0, 0), BuildingBlock: XUDNAN_clean_linker_2, # of connection points: 2
#     Edge 17, Type (0, 0), BuildingBlock: XUDNAN_clean_linker_2, # of connection points: 2
#     Edge 18, Type (0, 0), BuildingBlock: XUDNAN_clean_linker_2, # of connection points: 2
#     Edge 19, Type (0, 0), BuildingBlock: XUDNAN_clean_linker_2, # of connection points: 2
#     Edge 20, Type (0, 0), BuildingBlock: XUDNAN_clean_linker_2, # of connection points: 2
#     Edge 21, Type (0, 0), BuildingBlock: XUDNAN_clean_linker_2, # of connection points: 2
#     Edge 22, Type (0, 0), BuildingBlock: XUDNAN_clean_linker_2, # of connection points: 2
#     Edge 23, Type (0, 0), BuildingBlock: XUDNAN_clean_linker_2, # of connection points: 2
#     Edge 24, Type (0, 0), BuildingBlock: XUDNAN_clean_linker_2, # of connection points: 2
#     Edge 25, Type (0, 0), BuildingBlock: XUDNAN_clean_linker_2, # of connection points: 2
#     Edge 26, Type (0, 0), BuildingBlock: XUDNAN_clean_linker_2, # of connection points: 2
#     Edge 27, Type (0, 0), BuildingBlock: XUDNAN_clean_linker_2, # of connection points: 2
#     Edge 28, Type (0, 0), BuildingBlock: XUDNAN_clean_linker_2, # of connection points: 2
#     Edge 29, Type (0, 0), BuildingBlock: XUDNAN_clean_linker_2, # of connection points: 2
#     Edge 30, Type (0, 0), BuildingBlock: XUDNAN_clean_linker_2, # of connection points: 2
#     Edge 31, Type (0, 0), BuildingBlock: XUDNAN_clean_linker_2, # of connection points: 2
#     Edge 32, Type (0, 0), BuildingBlock: XUDNAN_clean_linker_2, # of connection points: 2
#     Edge 33, Type (0, 0), BuildingBlock: XUDNAN_clean_linker_2, # of connection points: 2
#     Edge 34, Type (0, 0), BuildingBlock: XUDNAN_clean_linker_2, # of connection points: 2
#     Edge 35, Type (0, 0), BuildingBlock: XUDNAN_clean_linker_2, # of connection points: 2
#     Edge 36, Type (0, 0), BuildingBlock: XUDNAN_clean_linker_2, # of connection points: 2
#     Edge 37, Type (0, 0), BuildingBlock: XUDNAN_clean_linker_2, # of connection points: 2
#     Edge 38, Type (0, 0), BuildingBlock: XUDNAN_clean_linker_2, # of connection points: 2
#     Edge 39, Type (0, 0), BuildingBlock: XUDNAN_clean_linker_2, # of connection points: 2
#     Edge 40, Type (0, 0), BuildingBlock: XUDNAN_clean_linker_2, # of connection points: 2
#     Edge 41, Type (0, 0), BuildingBlock: XUDNAN_clean_linker_2, # of connection points: 2
#     Edge 42, Type (0, 0), BuildingBlock: XUDNAN_clean_linker_2, # of connection points: 2
#     Edge 43, Type (0, 0), BuildingBlock: XUDNAN_clean_linker_2, # of connection points: 2
#     Edge 44, Type (0, 0), BuildingBlock: XUDNAN_clean_linker_2, # of connection points: 2
#     Edge 45, Type (0, 0), BuildingBlock: XUDNAN_clean_linker_2, # of connection points: 2
#     Edge 46, Type (0, 0), BuildingBlock: XUDNAN_clean_linker_2, # of connection points: 2
#     Edge 47, Type (0, 0), BuildingBlock: XUDNAN_clean_linker_2, # of connection points: 2
# Relax obj value: 0.089
# Max RMSD: 0.145
# Mean RMSD: 0.139
data_MOF--net-gis--node1-KUFVIS_clean_sbu_0--edge1-XUDNAN_clean_linker_2
_symmetry_space_group_name_H-M    P1
_symmetry_Int_Tables_number       1
_symmetry_cell_setting            triclinic
loop_
_symmetry_equiv_pos_as_xyz
'x, y, z'
_cell_length_a     50.117263
_cell_length_b     53.824467
_cell_length_c     38.240367
_cell_angle_alpha  90.430593
_cell_angle_beta   90.284908
_cell_angle_gamma 90.064146
loop_
_atom_site_label
_atom_site_type_symbol
_atom_site_fract_x
_atom_site_fract_y
_atom_site_fract_z
_atom_type_partial_charge
Mn0 Mn 0.13697 0.61048 0.11102 0.0
Mn1 Mn 0.10017 0.63013 0.17943 0.0
C2 C 0.09117 0.61364 0.10536 0.0
C3 C 0.15657 0.57721 0.08116 0.0
C4 C 0.13337 0.66473 0.13427 0.0
O5 O 0.16258 0.60741 0.15233 0.0
O6 O 0.13482 0.61703 0.19663 0.0
C7 C 0.09053 0.5818 0.2136 0.0
N8 N 0.08087 0.60299 0.19899 0.0
C9 C 0.03558 0.59076 0.21052 0.0
C10 C 0.04504 0.56889 0.22592 0.0
C11 C 0.07263 0.56437 0.22737 0.0
C12 C 0.05437 0.60749 0.19735 0.0
H13 H 0.11171 0.57823 0.21465 0.0
C14 C 0.15744 0.60981 0.18488 0.0
O15 O 0.16505 0.59982 0.07684 0.0
O16 O 0.13755 0.57406 0.10346 0.0
N17 N 0.06596 0.64308 0.16672 0.0
C18 C 0.06007 0.6644 0.14933 0.0
C19 C 0.03329 0.6714 0.14497 0.0
C20 C 0.01287 0.65647 0.15861 0.0
C21 C 0.01943 0.63467 0.1765 0.0
C22 C 0.04648 0.62881 0.18044 0.0
H23 H 0.07567 0.67599 0.1389 0.0
O24 O 0.10616 0.6132 0.07784 0.0
O25 O 0.10343 0.61192 0.13527 0.0
O26 O 0.14136 0.64853 0.11205 0.0
O27 O 0.11879 0.6594 0.16053 0.0
C28 C 0.00017 0.61835 0.19013 0.0
C29 C 0.00824 0.59638 0.20706 0.0
H30 H 0.0313 0.55534 0.23641 0.0
H31 H 0.08008 0.54747 0.23904 0.0
H32 H 0.02838 0.68825 0.1311 0.0
H33 H 0.99223 0.66185 0.15503 0.0
H34 H 0.97909 0.62234 0.1873 0.0
H35 H 0.99324 0.58379 0.21697 0.0
Mn36 Mn 0.65445 0.87945 0.39479 0.0
Mn37 Mn 0.64367 0.85954 0.47709 0.0
C38 C 0.6476 0.83769 0.40423 0.0
C39 C 0.68301 0.89124 0.35023 0.0
C40 C 0.59998 0.88059 0.43199 0.0
O41 O 0.66511 0.90939 0.42401 0.0
O42 O 0.65513 0.89517 0.47731 0.0
C43 C 0.70058 0.86192 0.49799 0.0
N44 N 0.67764 0.84859 0.49387 0.0
C45 C 0.6989 0.81146 0.51478 0.0
C46 C 0.72272 0.82482 0.51939 0.0
C47 C 0.72357 0.85014 0.51084 0.0
C48 C 0.67674 0.82412 0.5014 0.0
H49 H 0.70136 0.88138 0.49149 0.0
C50 C 0.66297 0.91242 0.45686 0.0
O51 O 0.65858 0.89916 0.35134 0.0
O52 O 0.69092 0.87685 0.37534 0.0
N53 N 0.63251 0.82581 0.48276 0.0
C54 C 0.60737 0.81626 0.48019 0.0
C55 C 0.60292 0.7912 0.48834 0.0
C56 C 0.62413 0.7765 0.50041 0.0
C57 C 0.64947 0.78714 0.5049 0.0
C58 C 0.65277 0.81212 0.49592 0.0
H59 H 0.59091 0.8276 0.47145 0.0
O60 O 0.64505 0.84705 0.3733 0.0
O61 O 0.65572 0.85291 0.42896 0.0
O62 O 0.6151 0.88592 0.40623 0.0
O63 O 0.60822 0.86995 0.45988 0.0
C64 C 0.67144 0.77409 0.5187 0.0
C65 C 0.69621 0.78617 0.5233 0.0
H66 H 0.74044 0.81584 0.52956 0.0
H67 H 0.74189 0.86057 0.51425 0.0
H68 H 0.58317 0.78329 0.48549 0.0
H69 H 0.62061 0.7572 0.50681 0.0
H70 H 0.66949 0.75476 0.52596 0.0
H71 H 0.71297 0.77591 0.53383 0.0
Mn72 Mn 0.36305 0.39769 0.60308 0.0
Mn73 Mn 0.38548 0.36765 0.67447 0.0
C74 C 0.40863 0.39187 0.6121 0.0
C75 C 0.35006 0.4349 0.57679 0.0
C76 C 0.36164 0.34117 0.6112 0.0
O77 O 0.33053 0.39826 0.63511 0.0
O78 O 0.34893 0.3801 0.68217 0.0
C79 C 0.38787 0.40984 0.72454 0.0
N80 N 0.39994 0.3904 0.70805 0.0
C81 C 0.4383 0.39336 0.74584 0.0
C82 C 0.42639 0.41352 0.76319 0.0
C83 C 0.40118 0.42196 0.75224 0.0
C84 C 0.42453 0.38268 0.71761 0.0
H85 H 0.36813 0.41581 0.71687 0.0
C86 C 0.32949 0.39088 0.66673 0.0
O87 O 0.34258 0.41356 0.56402 0.0
O88 O 0.36474 0.4346 0.60475 0.0
N89 N 0.42077 0.35459 0.67142 0.0
C90 C 0.43016 0.33615 0.6503 0.0
C91 C 0.45476 0.32504 0.65806 0.0
C92 C 0.46932 0.33298 0.68755 0.0
C93 C 0.45989 0.35293 0.70785 0.0
C94 C 0.43535 0.36336 0.6986 0.0
H95 H 0.41895 0.33004 0.62774 0.0
O96 O 0.39931 0.3964 0.58109 0.0
O97 O 0.39117 0.39134 0.63697 0.0
O98 O 0.35703 0.36032 0.59255 0.0
O99 O 0.37172 0.34231 0.64185 0.0
C100 C 0.47353 0.36257 0.73729 0.0
C101 C 0.46299 0.38306 0.75589 0.0
H102 H 0.43633 0.42254 0.78507 0.0
H103 H 0.3918 0.43742 0.76559 0.0
H104 H 0.46225 0.31011 0.64174 0.0
H105 H 0.48782 0.32371 0.69413 0.0
H106 H 0.49235 0.35462 0.74558 0.0
H107 H 0.47394 0.39062 0.77803 0.0
Mn108 Mn 0.84662 0.11238 0.89753 0.0
Mn109 Mn 0.86459 0.13287 0.81803 0.0
C110 C 0.89084 0.12253 0.88726 0.0
C111 C 0.83698 0.07974 0.93507 0.0
C112 C 0.83618 0.16461 0.87207 0.0
O113 O 0.81422 0.10435 0.86661 0.0
O114 O 0.83187 0.11257 0.81386 0.0
C115 C 0.8781 0.08502 0.78392 0.0
N116 N 0.88498 0.10861 0.79337 0.0
C117 C 0.92459 0.107 0.75837 0.0
C118 C 0.91792 0.08271 0.74801 0.0
C119 C 0.89476 0.07154 0.76128 0.0
C120 C 0.90785 0.11906 0.7822 0.0
H121 H 0.85994 0.0767 0.79337 0.0
C122 C 0.81341 0.10398 0.83326 0.0
O123 O 0.8272 0.1018 0.93996 0.0
O124 O 0.85197 0.07644 0.90781 0.0
N125 N 0.89614 0.15283 0.81721 0.0
C126 C 0.90006 0.17614 0.83044 0.0
C127 C 0.92292 0.18954 0.82097 0.0
C128 C 0.94087 0.17929 0.79676 0.0
C129 C 0.9361 0.15548 0.78296 0.0
C130 C 0.91367 0.14256 0.79461 0.0
H131 H 0.88576 0.18455 0.84783 0.0
O132 O 0.88199 0.12051 0.91893 0.0
O133 O 0.87398 0.11713 0.8624 0.0
O134 O 0.8373 0.14928 0.89718 0.0
O135 O 0.8441 0.15973 0.84111 0.0
C136 C 0.95213 0.14441 0.75709 0.0
C137 C 0.9467 0.12001 0.74523 0.0
H138 H 0.93037 0.07252 0.72982 0.0
H139 H 0.88948 0.05279 0.75347 0.0
H140 H 0.92631 0.20798 0.83156 0.0
H141 H 0.95807 0.18997 0.7887 0.0
H142 H 0.96843 0.15469 0.74577 0.0
H143 H 0.95944 0.11153 0.72572 0.0
Mn144 Mn 0.16006 0.38701 0.88849 0.0
Mn145 Mn 0.14345 0.36824 0.96975 0.0
C146 C 0.15529 0.3452 0.89983 0.0
C147 C 0.1904 0.39832 0.84561 0.0
C148 C 0.10318 0.38774 0.91804 0.0
O149 O 0.16793 0.41775 0.91782 0.0
O150 O 0.15527 0.40369 0.97044 0.0
C151 C 0.19781 0.37075 1.0003 0.0
N152 N 0.17522 0.35756 0.99304 0.0
C153 C 0.19298 0.3212 0.02097 0.0
C154 C 0.21638 0.33443 0.02894 0.0
C155 C 0.21882 0.3593 0.01847 0.0
C156 C 0.17272 0.3336 0.00282 0.0
H157 H 0.1998 0.38984 0.99226 0.0
C158 C 0.16422 0.42083 0.95051 0.0
O159 O 0.16579 0.40569 0.84461 0.0
O160 O 0.19769 0.38513 0.87234 0.0
N161 N 0.13174 0.33455 0.974 0.0
C162 C 0.10813 0.32422 0.9636 0.0
C163 C 0.1026 0.29938 0.97184 0.0
C164 C 0.12129 0.28544 0.99084 0.0
C165 C 0.14524 0.29659 0.00182 0.0
C166 C 0.14952 0.32152 0.99319 0.0
H167 H 0.09371 0.33478 0.94889 0.0
O168 O 0.15324 0.35356 0.86821 0.0
O169 O 0.16062 0.36153 0.9243 0.0
O170 O 0.12007 0.39263 0.89429 0.0
O171 O 0.10949 0.37816 0.94738 0.0
C172 C 0.16522 0.28384 0.0205 0.0
C173 C 0.1891 0.29611 0.02997 0.0
H174 H 0.23265 0.32565 0.04289 0.0
H175 H 0.23686 0.3696 0.0244 0.0
H176 H 0.08394 0.29102 0.96358 0.0
H177 H 0.11708 0.26619 0.99679 0.0
H178 H 0.16253 0.26452 0.02739 0.0
H179 H 0.20443 0.28604 0.04402 0.0
Mn180 Mn 0.86004 0.89822 0.11443 0.0
Mn181 Mn 0.88182 0.87124 0.18872 0.0
C182 C 0.90515 0.89023 0.12215 0.0
C183 C 0.84776 0.93396 0.0847 0.0
C184 C 0.85781 0.84212 0.12827 0.0
O185 O 0.82762 0.90156 0.14613 0.0
O186 O 0.84514 0.88381 0.1937 0.0
C187 C 0.88283 0.91711 0.23185 0.0
N188 N 0.89534 0.89647 0.2193 0.0
C189 C 0.93238 0.90251 0.2585 0.0
C190 C 0.92 0.92389 0.27188 0.0
C191 C 0.89526 0.93141 0.25815 0.0
C192 C 0.91967 0.88977 0.23107 0.0
H193 H 0.86339 0.92243 0.22218 0.0
C194 C 0.82606 0.89463 0.1778 0.0
O195 O 0.83946 0.91224 0.07433 0.0
O196 O 0.86306 0.9349 0.11209 0.0
N197 N 0.91705 0.8578 0.18986 0.0
C198 C 0.92601 0.83646 0.17463 0.0
C199 C 0.9502 0.82606 0.18578 0.0
C200 C 0.96434 0.83708 0.21358 0.0
C201 C 0.95463 0.85893 0.22916 0.0
C202 C 0.93094 0.86897 0.21599 0.0
H203 H 0.91485 0.82756 0.15393 0.0
O204 O 0.89537 0.89433 0.09131 0.0
O205 O 0.88863 0.8922 0.14816 0.0
O206 O 0.85271 0.86065 0.10853 0.0
O207 O 0.86871 0.84415 0.15845 0.0
C208 C 0.96673 0.87046 0.25837 0.0
C209 C 0.95615 0.89266 0.27232 0.0
H210 H 0.92914 0.93448 0.29295 0.0
H211 H 0.88549 0.94781 0.26842 0.0
H212 H 0.95753 0.80918 0.17364 0.0
H213 H 0.98233 0.82828 0.22305 0.0
H214 H 0.98383 0.86214 0.27086 0.0
H215 H 0.96598 0.90155 0.2944 0.0
Mn216 Mn 0.35829 0.61079 0.38672 0.0
Mn217 Mn 0.37762 0.62323 0.30421 0.0
C218 C 0.40329 0.61331 0.37408 0.0
C219 C 0.34522 0.58117 0.42779 0.0
C220 C 0.36069 0.66352 0.35568 0.0
O221 O 0.32399 0.60592 0.35913 0.0
O222 O 0.33936 0.61385 0.30548 0.0
C223 C 0.3719 0.57176 0.27715 0.0
N224 N 0.3869 0.59266 0.28168 0.0
C225 C 0.42145 0.57659 0.24446 0.0
C226 C 0.40644 0.55483 0.23942 0.0
C227 C 0.38167 0.55231 0.25614 0.0
C228 C 0.41117 0.59484 0.26685 0.0
H229 H 0.35255 0.57008 0.28923 0.0
C230 C 0.32062 0.60786 0.32629 0.0
O231 O 0.3391 0.6045 0.43166 0.0
O232 O 0.35836 0.57515 0.39993 0.0
N233 N 0.41388 0.6326 0.29649 0.0
C234 C 0.426 0.65455 0.30445 0.0
C235 C 0.44966 0.66116 0.28757 0.0
C236 C 0.46059 0.64509 0.2625 0.0
C237 C 0.44887 0.62176 0.25639 0.0
C238 C 0.4251 0.61638 0.27382 0.0
H239 H 0.41787 0.66664 0.32403 0.0
O240 O 0.39488 0.61469 0.40599 0.0
O241 O 0.38523 0.60894 0.35013 0.0
O242 O 0.3551 0.64915 0.3813 0.0
O243 O 0.36913 0.65557 0.32608 0.0
C244 C 0.45917 0.60405 0.23272 0.0
C245 C 0.44581 0.58121 0.22742 0.0
H246 H 0.41361 0.54006 0.22254 0.0
H247 H 0.36992 0.53562 0.2523 0.0
H248 H 0.45908 0.67885 0.29325 0.0
H249 H 0.47765 0.65122 0.24772 0.0
H250 H 0.47737 0.60776 0.21855 0.0
H251 H 0.45412 0.56761 0.20953 0.0
Mn252 Mn 0.63492 0.10804 0.60796 0.0
Mn253 Mn 0.60508 0.13016 0.6808 0.0
C254 C 0.58926 0.11315 0.60878 0.0
C255 C 0.65099 0.07366 0.57658 0.0
C256 C 0.63549 0.16292 0.63013 0.0
O257 O 0.6632 0.10374 0.64559 0.0
O258 O 0.64056 0.11616 0.69344 0.0
C259 C 0.59676 0.08279 0.71806 0.0
N260 N 0.58665 0.10401 0.70406 0.0
C261 C 0.54223 0.09343 0.72239 0.0
C262 C 0.55219 0.07155 0.73722 0.0
C263 C 0.57956 0.06619 0.73497 0.0
C264 C 0.56035 0.10934 0.70606 0.0
H265 H 0.61777 0.07857 0.71629 0.0
C266 C 0.66128 0.10709 0.67855 0.0
O267 O 0.65986 0.09594 0.57064 0.0
O268 O 0.63325 0.07148 0.60086 0.0
N269 N 0.57048 0.14401 0.6726 0.0
C270 C 0.56383 0.16505 0.65497 0.0
C271 C 0.53706 0.17265 0.65378 0.0
C272 C 0.51743 0.15863 0.67083 0.0
C273 C 0.52476 0.13713 0.68893 0.0
C274 C 0.5518 0.1306 0.68953 0.0
H275 H 0.57882 0.17591 0.64185 0.0
O276 O 0.60184 0.11194 0.57925 0.0
O277 O 0.60379 0.11116 0.63689 0.0
O278 O 0.64127 0.14601 0.60769 0.0
O279 O 0.62285 0.15851 0.65836 0.0
C280 C 0.50624 0.12165 0.70582 0.0
C281 C 0.51496 0.0998 0.7225 0.0
H282 H 0.53897 0.05861 0.75009 0.0
H283 H 0.58737 0.04927 0.74618 0.0
H284 H 0.53154 0.18924 0.63968 0.0
H285 H 0.49677 0.16445 0.66963 0.0
H286 H 0.48518 0.12617 0.70564 0.0
H287 H 0.50047 0.08785 0.73491 0.0
Mn288 Mn 0.86369 0.39582 0.8871 0.0
Mn289 Mn 0.89201 0.36633 0.81862 0.0
C290 C 0.90897 0.38851 0.88746 0.0
C291 C 0.84866 0.43301 0.91086 0.0
C292 C 0.85835 0.34044 0.87325 0.0
O293 O 0.83589 0.39804 0.84871 0.0
O294 O 0.85811 0.38202 0.80257 0.0
C295 C 0.90533 0.4094 0.77431 0.0
N296 N 0.91323 0.38887 0.79219 0.0
C297 C 0.95887 0.39471 0.77481 0.0
C298 C 0.95121 0.41583 0.75602 0.0
C299 C 0.92433 0.42322 0.75583 0.0
C300 C 0.93903 0.38157 0.79253 0.0
H301 H 0.88471 0.4152 0.77422 0.0
C302 C 0.83786 0.39287 0.81622 0.0
O303 O 0.83911 0.41194 0.92149 0.0
O304 O 0.86704 0.43241 0.88719 0.0
N305 N 0.92507 0.35069 0.83062 0.0
C306 C 0.92947 0.331 0.85206 0.0
C307 C 0.95548 0.32175 0.85607 0.0
C308 C 0.97666 0.33278 0.83792 0.0
C309 C 0.97167 0.35308 0.81612 0.0
C310 C 0.9453 0.36132 0.81285 0.0
H311 H 0.91326 0.32243 0.86602 0.0
O312 O 0.89654 0.39295 0.91656 0.0
O313 O 0.89443 0.38863 0.85921 0.0
O314 O 0.85487 0.35896 0.89371 0.0
O315 O 0.87104 0.34146 0.84443 0.0
C316 C 0.99191 0.36573 0.79799 0.0
C317 C 0.98551 0.38655 0.77737 0.0
H318 H 0.96583 0.42665 0.74195 0.0
H319 H 0.91828 0.43958 0.74155 0.0
H320 H 0.9592 0.30616 0.87312 0.0
H321 H 0.9967 0.3256 0.84107 0.0
H322 H 0.0125 0.35984 0.80014 0.0
H323 H 0.0013 0.39636 0.764 0.0
Mn324 Mn 0.33898 0.12193 0.61669 0.0
Mn325 Mn 0.35259 0.13308 0.53173 0.0
C326 C 0.34194 0.16225 0.59765 0.0
C327 C 0.30986 0.11315 0.662 0.0
C328 C 0.39485 0.11916 0.58438 0.0
O329 O 0.33182 0.08874 0.59372 0.0
O330 O 0.34183 0.09749 0.5379 0.0
C331 C 0.29749 0.12674 0.50482 0.0
N332 N 0.31981 0.14099 0.50864 0.0
C333 C 0.29977 0.17449 0.47657 0.0
C334 C 0.27662 0.16012 0.47211 0.0
C335 C 0.27547 0.13617 0.48636 0.0
C336 C 0.32109 0.1641 0.49516 0.0
H337 H 0.29648 0.10836 0.51583 0.0
C338 C 0.33444 0.0824 0.56181 0.0
O339 O 0.33486 0.10708 0.6637 0.0
O340 O 0.30166 0.12397 0.63364 0.0
N341 N 0.36313 0.16635 0.52106 0.0
C342 C 0.3867 0.178 0.52831 0.0
C343 C 0.39096 0.20225 0.51625 0.0
C344 C 0.37108 0.21417 0.49656 0.0
C345 C 0.34721 0.20163 0.48882 0.0
C346 C 0.34417 0.1774 0.50135 0.0
H347 H 0.40198 0.169 0.54358 0.0
O348 O 0.34488 0.15698 0.63049 0.0
O349 O 0.33667 0.14368 0.57653 0.0
O350 O 0.37891 0.11676 0.60998 0.0
O351 O 0.38749 0.12575 0.55379 0.0
C352 C 0.32612 0.21236 0.46971 0.0
C353 C 0.3024 0.19882 0.46365 0.0
H354 H 0.25957 0.16735 0.45796 0.0
H355 H 0.25764 0.125 0.48315 0.0
H356 H 0.40949 0.21174 0.52221 0.0
H357 H 0.37433 0.23298 0.48762 0.0
H358 H 0.32784 0.2311 0.45984 0.0
H359 H 0.28623 0.20736 0.44918 0.0
Mn360 Mn 0.6428 0.60483 0.3788 0.0
Mn361 Mn 0.6202 0.62626 0.30164 0.0
C362 C 0.59739 0.60486 0.36763 0.0
C363 C 0.66056 0.5719 0.41053 0.0
C364 C 0.63089 0.66027 0.36297 0.0
O365 O 0.67684 0.60676 0.3504 0.0
O366 O 0.6595 0.62495 0.30329 0.0
C367 C 0.63896 0.5813 0.26364 0.0
N368 N 0.61879 0.59701 0.27279 0.0
C369 C 0.58691 0.57253 0.2403 0.0
C370 C 0.60732 0.55613 0.2306 0.0
C371 C 0.63346 0.56052 0.24241 0.0
C372 C 0.59352 0.59267 0.26214 0.0
H373 H 0.65915 0.58445 0.27241 0.0
C374 C 0.6793 0.61664 0.32059 0.0
O375 O 0.66389 0.59473 0.42108 0.0
O376 O 0.64706 0.56837 0.38199 0.0
N377 N 0.58274 0.62859 0.29341 0.0
C378 C 0.56662 0.6485 0.29949 0.0
C379 C 0.54017 0.648 0.28738 0.0
C380 C 0.53113 0.62757 0.26767 0.0
C381 C 0.54851 0.60814 0.25958 0.0
C382 C 0.57455 0.6096 0.27255 0.0
H383 H 0.57396 0.66461 0.31344 0.0
O384 O 0.60652 0.6024 0.39913 0.0
O385 O 0.61527 0.60548 0.34288 0.0
O386 O 0.64137 0.64355 0.3827 0.0
O387 O 0.62099 0.6559 0.33247 0.0
C388 C 0.54125 0.58793 0.23788 0.0
C389 C 0.56039 0.56996 0.22857 0.0
H390 H 0.60318 0.54024 0.21388 0.0
H391 H 0.64937 0.54798 0.23502 0.0
H392 H 0.52692 0.6634 0.2928 0.0
H393 H 0.51109 0.62709 0.25786 0.0
H394 H 0.5211 0.58622 0.22778 0.0
H395 H 0.55466 0.5546 0.21166 0.0
Mn396 Mn 0.14447 0.90086 0.12052 0.0
Mn397 Mn 0.12214 0.88241 0.19932 0.0
C398 C 0.09918 0.89374 0.12878 0.0
C399 C 0.15654 0.93219 0.08173 0.0
C400 C 0.14484 0.84661 0.14603 0.0
O401 O 0.17699 0.90776 0.15172 0.0
O402 O 0.1592 0.89387 0.20128 0.0
C403 C 0.12392 0.93259 0.23146 0.0
N404 N 0.11027 0.91131 0.22382 0.0
C405 C 0.07322 0.92423 0.25906 0.0
C406 C 0.08682 0.94629 0.26738 0.0
C407 C 0.11218 0.95061 0.2532 0.0
C408 C 0.08548 0.90744 0.23611 0.0
H409 H 0.14369 0.93571 0.22129 0.0
C410 C 0.17849 0.90315 0.18426 0.0
O411 O 0.16521 0.9096 0.07801 0.0
O412 O 0.14158 0.93674 0.1086 0.0
N413 N 0.08648 0.8706 0.20373 0.0
C414 C 0.07668 0.84785 0.19444 0.0
C415 C 0.05181 0.84029 0.20715 0.0
C416 C 0.03794 0.85568 0.23055 0.0
C417 C 0.0486 0.8788 0.24036 0.0
C418 C 0.0731 0.88563 0.22607 0.0
H419 H 0.08792 0.83544 0.17782 0.0
O420 O 0.10936 0.89441 0.09775 0.0
O421 O 0.11543 0.8988 0.15459 0.0
O422 O 0.15116 0.86296 0.12332 0.0
O423 O 0.13365 0.85195 0.1751 0.0
C424 C 0.03639 0.89496 0.26469 0.0
C425 C 0.04838 0.91788 0.27343 0.0
H426 H 0.07807 0.95994 0.28484 0.0
H427 H 0.12286 0.96755 0.25953 0.0
H428 H 0.04377 0.82231 0.19986 0.0
H429 H 0.01952 0.8492 0.24151 0.0
H430 H 0.01774 0.89011 0.27684 0.0
H431 H 0.03857 0.93026 0.29176 0.0
Mn432 Mn 0.84211 0.62004 0.09395 0.0
Mn433 Mn 0.85946 0.64598 0.01709 0.0
C434 C 0.8468 0.66258 0.08974 0.0
C435 C 0.81152 0.60668 0.13507 0.0
C436 C 0.89873 0.6199 0.06444 0.0
O437 O 0.83396 0.59223 0.0592 0.0
O438 O 0.84537 0.61177 0.0094 0.0
C439 C 0.80553 0.64968 0.9856 0.0
N440 N 0.8288 0.66069 0.9958 0.0
C441 C 0.81385 0.70051 0.9753 0.0
C442 C 0.78982 0.68954 0.96426 0.0
C443 C 0.78562 0.66403 0.96953 0.0
C444 C 0.83303 0.68524 0.99092 0.0
H445 H 0.80216 0.63011 0.98979 0.0
C446 C 0.83649 0.59287 0.02599 0.0
O447 O 0.83572 0.59817 0.13464 0.0
O448 O 0.80457 0.62155 0.11001 0.0
N449 N 0.8731 0.67913 0.02059 0.0
C450 C 0.89649 0.68717 0.03508 0.0
C451 C 0.90331 0.71243 0.03323 0.0
C452 C 0.88608 0.72914 0.01643 0.0
C453 C 0.86221 0.7204 0.00147 0.0
C454 C 0.85659 0.69498 0.00383 0.0
H455 H 0.90972 0.67446 0.04827 0.0
O456 O 0.84926 0.65165 0.11968 0.0
O457 O 0.84192 0.64832 0.06284 0.0
O458 O 0.88184 0.6141 0.08769 0.0
O459 O 0.89271 0.632 0.03695 0.0
C460 C 0.84345 0.73602 0.98514 0.0
C461 C 0.81927 0.72609 0.9721 0.0
H462 H 0.77434 0.70057 0.95207 0.0
H463 H 0.76705 0.65546 0.96131 0.0
H464 H 0.92175 0.71901 0.04488 0.0
H465 H 0.89124 0.74867 0.01547 0.0
H466 H 0.8472 0.75578 0.98304 0.0
H467 H 0.80481 0.73836 0.96012 0.0
Mn468 Mn 0.12963 0.10923 0.89429 0.0
Mn469 Mn 0.10849 0.13519 0.81894 0.0
C470 C 0.0845 0.11669 0.8856 0.0
C471 C 0.14229 0.07399 0.92528 0.0
C472 C 0.12995 0.16558 0.87943 0.0
O473 O 0.16256 0.10597 0.86363 0.0
O474 O 0.1462 0.12512 0.81656 0.0
C475 C 0.11284 0.08853 0.7779 0.0
N476 N 0.09813 0.10837 0.78887 0.0
C477 C 0.0614 0.09638 0.75189 0.0
C478 C 0.07613 0.07587 0.74007 0.0
C479 C 0.10189 0.0718 0.7534 0.0
C480 C 0.07301 0.11193 0.77723 0.0
H481 H 0.13282 0.08553 0.78759 0.0
C482 C 0.16504 0.1142 0.83276 0.0
O483 O 0.15002 0.09599 0.93519 0.0
O484 O 0.12723 0.0725 0.8977 0.0
N485 N 0.07239 0.14615 0.81494 0.0
C486 C 0.06156 0.16772 0.82711 0.0
C487 C 0.03593 0.1747 0.8161 0.0
C488 C 0.02228 0.16012 0.79127 0.0
C489 C 0.03433 0.13862 0.77773 0.0
C490 C 0.05953 0.13217 0.79058 0.0
H491 H 0.07233 0.17941 0.84533 0.0
O492 O 0.09405 0.1129 0.91664 0.0
O493 O 0.10133 0.11457 0.85985 0.0
O494 O 0.13622 0.14712 0.89884 0.0
O495 O 0.11859 0.16334 0.84949 0.0
C496 C 0.02277 0.12377 0.75116 0.0
C497 C 0.03599 0.10239 0.7388 0.0
H498 H 0.06793 0.06323 0.72062 0.0
H499 H 0.11343 0.05603 0.74443 0.0
H500 H 0.02693 0.19152 0.82623 0.0
H501 H 0.00281 0.16594 0.78242 0.0
H502 H 0.00379 0.12858 0.73982 0.0
H503 H 0.02665 0.09102 0.7187 0.0
Mn504 Mn 0.64991 0.39828 0.59916 0.0
Mn505 Mn 0.6262 0.38372 0.67876 0.0
C506 C 0.60412 0.39706 0.60799 0.0
C507 C 0.66591 0.42886 0.56172 0.0
C508 C 0.64793 0.34534 0.62716 0.0
O509 O 0.68268 0.40162 0.63077 0.0
O510 O 0.66325 0.39631 0.68322 0.0
C511 C 0.62469 0.43454 0.70885 0.0
N512 N 0.61221 0.41267 0.70131 0.0
C513 C 0.57108 0.42755 0.72584 0.0
C514 C 0.58372 0.44996 0.7348 0.0
C515 C 0.61063 0.45352 0.72609 0.0
C516 C 0.58628 0.40914 0.70921 0.0
H517 H 0.64508 0.43757 0.70133 0.0
C518 C 0.68329 0.40158 0.66409 0.0
O519 O 0.67175 0.40556 0.55686 0.0
O520 O 0.65125 0.43428 0.5885 0.0
N521 N 0.59041 0.37166 0.6789 0.0
C522 C 0.58058 0.35004 0.66528 0.0
C523 C 0.55347 0.34445 0.6693 0.0
C524 C 0.53686 0.36117 0.68719 0.0
C525 C 0.54751 0.38292 0.70187 0.0
C526 C 0.57475 0.38735 0.69744 0.0
H527 H 0.59322 0.33733 0.65106 0.0
O528 O 0.6138 0.39587 0.57665 0.0
O529 O 0.62152 0.39955 0.63317 0.0
O530 O 0.65224 0.36021 0.60188 0.0
O531 O 0.63949 0.35256 0.65711 0.0
C532 C 0.53194 0.40095 0.71917 0.0
C533 C 0.54373 0.42318 0.73134 0.0
H534 H 0.5728 0.46478 0.74761 0.0
H535 H 0.62042 0.47095 0.73228 0.0
H536 H 0.54533 0.3275 0.65819 0.0
H537 H 0.51584 0.35753 0.68873 0.0
H538 H 0.51071 0.3984 0.72211 0.0
H539 H 0.53141 0.43713 0.74387 0.0
Mn540 Mn 0.3492 0.88446 0.40103 0.0
Mn541 Mn 0.36258 0.8592 0.48001 0.0
C542 C 0.35407 0.84192 0.40525 0.0
C543 C 0.31999 0.8999 0.35924 0.0
C544 C 0.4047 0.88313 0.43496 0.0
O545 O 0.34156 0.91285 0.43443 0.0
O546 O 0.34908 0.89386 0.48565 0.0
C547 C 0.30702 0.85724 0.50572 0.0
N548 N 0.33045 0.84555 0.49842 0.0
C549 C 0.31456 0.8073 0.52291 0.0
C550 C 0.29027 0.81893 0.53081 0.0
C551 C 0.28641 0.84395 0.52192 0.0
C552 C 0.3341 0.82132 0.50598 0.0
H553 H 0.30415 0.87658 0.49941 0.0
C554 C 0.34227 0.91282 0.46768 0.0
O555 O 0.34478 0.90676 0.36033 0.0
O556 O 0.3119 0.88471 0.38327 0.0
N557 N 0.37574 0.82586 0.48011 0.0
C558 C 0.40043 0.81746 0.47103 0.0
C559 C 0.40729 0.79263 0.47749 0.0
C560 C 0.38916 0.77698 0.49452 0.0
C561 C 0.36423 0.78627 0.50471 0.0
C562 C 0.3582 0.81096 0.49666 0.0
H563 H 0.41471 0.82957 0.45873 0.0
O564 O 0.3557 0.85316 0.37549 0.0
O565 O 0.34794 0.85581 0.43225 0.0
O566 O 0.38916 0.88878 0.40976 0.0
O567 O 0.39686 0.87225 0.46267 0.0
C568 C 0.34524 0.77208 0.52291 0.0
C569 C 0.32029 0.78248 0.53161 0.0
H570 H 0.27447 0.80884 0.54375 0.0
H571 H 0.26773 0.85306 0.52791 0.0
H572 H 0.42667 0.78567 0.46984 0.0
H573 H 0.39466 0.75792 0.49989 0.0
H574 H 0.34945 0.75299 0.52982 0.0
H575 H 0.30569 0.77124 0.54506 0.0
H576 H 0.13194 0.80728 0.18733 0.0
H577 H 0.16655 0.82494 0.08663 0.0
H578 H 0.16988 0.77992 0.07309 0.0
H579 H 0.17058 0.75193 0.20486 0.0
H580 H 0.14272 0.73634 0.22475 0.0
H581 H 0.14516 0.76971 0.22693 0.0
H582 H 0.09812 0.77346 0.19885 0.0
H583 H 0.09556 0.74015 0.19651 0.0
H584 H 0.09147 0.75835 0.15748 0.0
H585 H 0.16705 0.73198 0.07013 0.0
H586 H 0.15792 0.68706 0.07783 0.0
H587 H 0.12456 0.70289 0.18016 0.0
C588 C 0.14058 0.80189 0.16251 0.0
C589 C 0.14909 0.81981 0.13812 0.0
C590 C 0.16001 0.81163 0.10588 0.0
C591 C 0.16197 0.78608 0.09796 0.0
C592 C 0.15294 0.76899 0.12254 0.0
C593 C 0.14252 0.7767 0.15418 0.0
C594 C 0.13293 0.75506 0.17567 0.0
C595 C 0.1488 0.75315 0.21008 0.0
C596 C 0.10274 0.75687 0.18251 0.0
C597 C 0.13935 0.73381 0.15117 0.0
C598 C 0.15103 0.742 0.12069 0.0
C599 C 0.15805 0.72542 0.09402 0.0
C600 C 0.15281 0.69993 0.09863 0.0
C601 C 0.1405 0.69131 0.12959 0.0
C602 C 0.13399 0.70866 0.15613 0.0
H603 H 0.4458 0.86735 0.47699 0.0
H604 H 0.42895 0.91049 0.38387 0.0
H605 H 0.47718 0.91678 0.37519 0.0
H606 H 0.50375 0.90334 0.50689 0.0
H607 H 0.52132 0.87612 0.52162 0.0
H608 H 0.48538 0.87676 0.52215 0.0
H609 H 0.48401 0.83655 0.4844 0.0
H610 H 0.51991 0.83584 0.48365 0.0
H611 H 0.50132 0.83575 0.44319 0.0
H612 H 0.5271 0.91594 0.37425 0.0
H613 H 0.57529 0.90826 0.38133 0.0
H614 H 0.55941 0.86568 0.4751 0.0
C615 C 0.45216 0.87846 0.45506 0.0
C616 C 0.43351 0.88847 0.43117 0.0
C617 C 0.4428 0.90262 0.40256 0.0
C618 C 0.47017 0.90636 0.39743 0.0
C619 C 0.48798 0.89588 0.42115 0.0
C620 C 0.47937 0.8823 0.44946 0.0
C621 C 0.50264 0.87192 0.47004 0.0
C622 C 0.50331 0.88269 0.50739 0.0
C623 C 0.50192 0.84333 0.47031 0.0
C624 C 0.52567 0.88149 0.44855 0.0
C625 C 0.5168 0.89538 0.42059 0.0
C626 C 0.53432 0.90529 0.39623 0.0
C627 C 0.56167 0.90075 0.40045 0.0
C628 C 0.57122 0.88639 0.42882 0.0
C629 C 0.55287 0.8769 0.4533 0.0
H630 H 0.38918 0.29933 0.62601 0.0
H631 H 0.32114 0.32545 0.56645 0.0
H632 H 0.30999 0.28163 0.55084 0.0
H633 H 0.4071 0.24857 0.56519 0.0
H634 H 0.4178 0.22882 0.60044 0.0
H635 H 0.42136 0.26207 0.60429 0.0
H636 H 0.39441 0.26221 0.66168 0.0
H637 H 0.39081 0.22906 0.65882 0.0
H638 H 0.3616 0.24843 0.66224 0.0
H639 H 0.30322 0.23371 0.55056 0.0
H640 H 0.30413 0.18811 0.56051 0.0
H641 H 0.3793 0.19576 0.61558 0.0
C642 C 0.3724 0.29615 0.60876 0.0
C643 C 0.35616 0.31589 0.59727 0.0
C644 C 0.33402 0.3106 0.57528 0.0
C645 C 0.32756 0.28579 0.56639 0.0
C646 C 0.34393 0.26673 0.5789 0.0
C647 C 0.36626 0.27189 0.59897 0.0
C648 C 0.38041 0.24859 0.61049 0.0
C649 C 0.40832 0.24691 0.59412 0.0
C650 C 0.38186 0.24699 0.65067 0.0
C651 C 0.36191 0.22922 0.59526 0.0
C652 C 0.34095 0.23982 0.57698 0.0
C653 C 0.32003 0.2253 0.56379 0.0
C654 C 0.32074 0.19945 0.56934 0.0
C655 C 0.34245 0.18851 0.5873 0.0
C656 C 0.36305 0.20366 0.60053 0.0
H657 H 0.04382 0.09143 0.85249 0.0
H658 H 0.06183 0.15734 0.91385 0.0
H659 H 0.01409 0.16879 0.91369 0.0
H660 H 0.98516 0.1147 0.80138 0.0
H661 H 0.96807 0.08556 0.80618 0.0
H662 H 0.00405 0.0863 0.80544 0.0
H663 H 0.00322 0.06329 0.86545 0.0
H664 H 0.96733 0.06442 0.86601 0.0
H665 H 0.98623 0.07759 0.90184 0.0
H666 H 0.96486 0.17147 0.91142 0.0
H667 H 0.91629 0.16335 0.91156 0.0
H668 H 0.9288 0.09499 0.85347 0.0
C669 C 0.03764 0.10865 0.86482 0.0
C670 C 0.05642 0.12419 0.88187 0.0
C671 C 0.04767 0.1457 0.89982 0.0
C672 C 0.02067 0.15236 0.89974 0.0
C673 C 0.00254 0.13683 0.88252 0.0
C674 C 0.01051 0.1152 0.86585 0.0
C675 C 0.98647 0.09999 0.85414 0.0
C676 C 0.98596 0.09639 0.81437 0.0
C677 C 0.98578 0.07484 0.87299 0.0
C678 C 0.96389 0.11674 0.86608 0.0
C679 C 0.97369 0.13792 0.8823 0.0
C680 C 0.95691 0.15522 0.89818 0.0
C681 C 0.92943 0.15051 0.89811 0.0
C682 C 0.91897 0.12902 0.8816 0.0
C683 C 0.93635 0.11205 0.86503 0.0
H684 H 0.11916 0.31277 0.87329 0.0
H685 H 0.19151 0.31683 0.93531 0.0
H686 H 0.19124 0.27093 0.94135 0.0
H687 H 0.08736 0.25959 0.91686 0.0
H688 H 0.07487 0.24778 0.87579 0.0
H689 H 0.07987 0.28072 0.88176 0.0
H690 H 0.1099 0.27996 0.826 0.0
H691 H 0.10551 0.24689 0.82181 0.0
H692 H 0.13863 0.25983 0.82499 0.0
H693 H 0.18245 0.224 0.94002 0.0
H694 H 0.16958 0.18065 0.92515 0.0
H695 H 0.10523 0.20848 0.8601 0.0
C696 C 0.13462 0.30395 0.88871 0.0
C697 C 0.15458 0.3182 0.90543 0.0
C698 C 0.17532 0.30614 0.92386 0.0
C699 C 0.17538 0.28014 0.9272 0.0
C700 C 0.15486 0.26658 0.91125 0.0
C701 C 0.13508 0.27813 0.89196 0.0
C702 C 0.11673 0.25944 0.87455 0.0
C703 C 0.08801 0.26207 0.88805 0.0
C704 C 0.11778 0.26166 0.83447 0.0
C705 C 0.12928 0.23553 0.88687 0.0
C706 C 0.15094 0.23989 0.90854 0.0
C707 C 0.16554 0.2204 0.92302 0.0
C708 C 0.15803 0.19586 0.91457 0.0
C709 C 0.13644 0.19113 0.89139 0.0
C710 C 0.12185 0.21135 0.87781 0.0
H711 H 0.94338 0.91689 0.15729 0.0
H712 H 0.93092 0.85167 0.09224 0.0
H713 H 0.97931 0.84273 0.09409 0.0
H714 H 0.00195 0.93489 0.1106 0.0
H715 H 0.01839 0.94839 0.14823 0.0
H716 H 0.98252 0.94758 0.14602 0.0
H717 H 0.98112 0.92471 0.20494 0.0
H718 H 0.01705 0.92504 0.20732 0.0
H719 H -0.001 0.896 0.20973 0.0
H720 H 0.0284 0.84244 0.09903 0.0
H721 H 0.07637 0.85266 0.10197 0.0
H722 H 0.05854 0.91958 0.16104 0.0
C723 C 0.95093 0.9004 0.14431 0.0
C724 C 0.93358 0.88425 0.12592 0.0
C725 C 0.94403 0.86373 0.10729 0.0
C726 C 0.97139 0.85852 0.1083 0.0
C727 C 0.98809 0.87464 0.12687 0.0
C728 C 0.97841 0.8955 0.14382 0.0
C729 C 0.00106 0.91164 0.15747 0.0
C730 C 0.00097 0.93712 0.1395 0.0
C731 C -0.00051 0.91453 0.19729 0.0
C732 C 0.02502 0.89626 0.14635 0.0
C733 C 0.01691 0.87496 0.12878 0.0
C734 C 0.03505 0.8588 0.11321 0.0
C735 C 0.0622 0.86475 0.11496 0.0
C736 C 0.07103 0.88645 0.13256 0.0
C737 C 0.05226 0.90237 0.14865 0.0
H738 H 0.32931 0.69398 0.3992 0.0
H739 H 0.39129 0.69684 0.32062 0.0
H740 H 0.40135 0.73952 0.33655 0.0
H741 H 0.30703 0.75599 0.36659 0.0
H742 H 0.29337 0.76541 0.40812 0.0
H743 H 0.29391 0.73301 0.39595 0.0
H744 H 0.3199 0.72276 0.45266 0.0
H745 H 0.31867 0.75511 0.46448 0.0
H746 H 0.35043 0.73911 0.4624 0.0
H747 H 0.40771 0.78008 0.36296 0.0
H748 H 0.39891 0.82338 0.37961 0.0
H749 H 0.32498 0.80108 0.42907 0.0
C750 C 0.3452 0.70359 0.38579 0.0
C751 C 0.36161 0.69092 0.36134 0.0
C752 C 0.38053 0.70483 0.34219 0.0
C753 C 0.38615 0.72946 0.35066 0.0
C754 C 0.37102 0.74091 0.37632 0.0
C755 C 0.34956 0.72923 0.39159 0.0
C756 C 0.33283 0.74811 0.41166 0.0
C757 C 0.30515 0.75079 0.39456 0.0
C758 C 0.33038 0.74085 0.45017 0.0
C759 C 0.34945 0.77168 0.407 0.0
C760 C 0.37172 0.76653 0.38713 0.0
C761 C 0.39023 0.78459 0.37821 0.0
C762 C 0.38514 0.80908 0.38796 0.0
C763 C 0.36156 0.81548 0.40597 0.0
C764 C 0.34359 0.79652 0.41628 0.0
H765 H 0.55248 0.13922 0.5709 0.0
H766 H 0.56115 0.07887 0.64437 0.0
H767 H 0.51217 0.07357 0.64571 0.0
H768 H 0.49101 0.16601 0.60315 0.0
H769 H 0.47847 0.17181 0.55987 0.0
H770 H 0.51393 0.17115 0.56772 0.0
H771 H 0.51729 0.13757 0.51814 0.0
H772 H 0.48157 0.13776 0.51253 0.0
H773 H 0.49858 0.1091 0.52206 0.0
H774 H 0.4627 0.07739 0.64312 0.0
H775 H 0.41527 0.08585 0.63038 0.0
H776 H 0.43851 0.14059 0.55346 0.0
C777 C 0.54389 0.12509 0.58744 0.0
C778 C 0.56016 0.11035 0.60916 0.0
C779 C 0.54867 0.09118 0.62913 0.0
C780 C 0.52099 0.08789 0.62975 0.0
C781 C 0.50528 0.10344 0.60929 0.0
C782 C 0.51626 0.12131 0.58791 0.0
C783 C 0.49485 0.13447 0.56693 0.0
C784 C 0.49459 0.16251 0.57492 0.0
C785 C 0.49828 0.12941 0.52758 0.0
C786 C 0.47013 0.12179 0.58087 0.0
C787 C 0.47666 0.10409 0.60544 0.0
C788 C 0.45729 0.09091 0.62352 0.0
C789 C 0.43045 0.09593 0.61623 0.0
C790 C 0.42327 0.11374 0.59079 0.0
C791 C 0.44342 0.12664 0.57268 0.0
H792 H 0.86589 0.19706 0.90927 0.0
H793 H 0.79296 0.1905 0.84889 0.0
H794 H 0.78653 0.2361 0.85292 0.0
H795 H 0.84795 0.25284 0.96442 0.0
H796 H 0.88102 0.26563 0.96012 0.0
H797 H 0.87626 0.23242 0.96019 0.0
H798 H 0.90074 0.22901 0.90081 0.0
H799 H 0.90545 0.2621 0.90037 0.0
H800 H 0.88886 0.24683 0.8642 0.0
H801 H 0.79159 0.2822 0.85594 0.0
H802 H 0.80923 0.32515 0.85364 0.0
H803 H 0.8806 0.30187 0.90842 0.0
C804 C 0.84797 0.20525 0.89837 0.0
C805 C 0.82936 0.19051 0.87985 0.0
C806 C 0.80692 0.20165 0.864 0.0
C807 C 0.80317 0.22745 0.86622 0.0
C808 C 0.82233 0.24172 0.88387 0.0
C809 C 0.8444 0.23099 0.89951 0.0
C810 C 0.86437 0.25047 0.91145 0.0
C811 C 0.86758 0.25033 0.95142 0.0
C812 C 0.89143 0.24689 0.89311 0.0
C813 C 0.85046 0.27383 0.89928 0.0
C814 C 0.82595 0.26843 0.88418 0.0
C815 C 0.81044 0.28672 0.8684 0.0
C816 C 0.82051 0.31101 0.86728 0.0
C817 C 0.84584 0.31664 0.88162 0.0
C818 C 0.8608 0.29799 0.8983 0.0
H819 H 0.6697 0.69144 0.39075 0.0
H820 H 0.58561 0.68734 0.36417 0.0
H821 H 0.58006 0.73124 0.38059 0.0
H822 H 0.66367 0.7364 0.46413 0.0
H823 H 0.69327 0.75361 0.45255 0.0
H824 H 0.69102 0.72083 0.44296 0.0
H825 H 0.70011 0.72857 0.37773 0.0
H826 H 0.70326 0.76131 0.38672 0.0
H827 H 0.67975 0.75047 0.35418 0.0
H828 H 0.58427 0.77601 0.39101 0.0
H829 H 0.59808 0.81988 0.39599 0.0
H830 H 0.67925 0.79703 0.41783 0.0
C831 C 0.65004 0.69972 0.38939 0.0
C832 C 0.62796 0.68591 0.37661 0.0
C833 C 0.60272 0.6975 0.37403 0.0
C834 C 0.59934 0.72245 0.38346 0.0
C835 C 0.62147 0.73576 0.39526 0.0
C836 C 0.64639 0.72494 0.39824 0.0
C837 C 0.66722 0.74432 0.40832 0.0
C838 C 0.67953 0.73846 0.44415 0.0
C839 C 0.68885 0.74628 0.38005 0.0
C840 C 0.65017 0.76769 0.40983 0.0
C841 C 0.6238 0.76212 0.40233 0.0
C842 C 0.60464 0.78058 0.398 0.0
C843 C 0.61263 0.80542 0.40091 0.0
C844 C 0.63934 0.81169 0.40904 0.0
C845 C 0.65839 0.79259 0.41363 0.0
H846 H 0.87832 0.69591 0.12355 0.0
H847 H 0.80842 0.68998 0.05713 0.0
H848 H 0.80444 0.73592 0.05644 0.0
H849 H 0.85168 0.74436 0.17671 0.0
H850 H 0.88343 0.75941 0.18365 0.0
H851 H 0.88204 0.72644 0.17573 0.0
H852 H 0.91428 0.73108 0.12273 0.0
H853 H 0.91601 0.76394 0.13186 0.0
H854 H 0.9062 0.75313 0.08902 0.0
H855 H 0.8101 0.78333 0.06145 0.0
H856 H 0.82012 0.8268 0.07964 0.0
H857 H 0.88209 0.79949 0.14899 0.0
C858 C 0.86246 0.70438 0.10845 0.0
C859 C 0.84462 0.68976 0.08864 0.0
C860 C 0.82318 0.70118 0.07075 0.0
C861 C 0.82066 0.72716 0.07048 0.0
C862 C 0.8393 0.74124 0.08918 0.0
C863 C 0.85941 0.73015 0.10847 0.0
C864 C 0.87534 0.74906 0.12907 0.0
C865 C 0.87296 0.74455 0.16862 0.0
C866 C 0.90469 0.74929 0.11746 0.0
C867 C 0.86118 0.77254 0.11831 0.0
C868 C 0.84085 0.7679 0.0947 0.0
C869 C 0.82582 0.78715 0.08024 0.0
C870 C 0.83167 0.81173 0.0906 0.0
C871 C 0.8519 0.81662 0.11574 0.0
C872 C 0.86661 0.79662 0.12964 0.0
H873 H 0.63465 0.30781 0.67187 0.0
H874 H 0.66817 0.32095 0.56916 0.0
H875 H 0.67088 0.27551 0.55912 0.0
H876 H 0.67322 0.25307 0.69301 0.0
H877 H 0.64564 0.23828 0.71467 0.0
H878 H 0.64801 0.27167 0.71411 0.0
H879 H 0.60068 0.27423 0.68665 0.0
H880 H 0.59818 0.24088 0.68708 0.0
H881 H 0.5936 0.25744 0.6467 0.0
H882 H 0.66791 0.22767 0.55994 0.0
H883 H 0.65911 0.18312 0.57137 0.0
H884 H 0.62727 0.20295 0.67323 0.0
C885 C 0.64292 0.30129 0.64736 0.0
C886 C 0.65134 0.31812 0.6214 0.0
C887 C 0.66167 0.30852 0.58957 0.0
C888 C 0.66329 0.2827 0.58362 0.0
C889 C 0.65449 0.26669 0.60972 0.0
C890 C 0.64453 0.27574 0.64095 0.0
C891 C 0.63526 0.25495 0.66434 0.0
C892 C 0.65151 0.25447 0.69855 0.0
C893 C 0.60515 0.257 0.6716 0.0
C894 C 0.64145 0.2327 0.64144 0.0
C895 C 0.65261 0.23967 0.61006 0.0
C896 C 0.65931 0.22206 0.58455 0.0
C897 C 0.65426 0.19677 0.59128 0.0
C898 C 0.64254 0.18933 0.62323 0.0
C899 C 0.63634 0.20775 0.64854 0.0
H900 H 0.05926 0.36722 0.94971 0.0
H901 H 0.08271 0.4185 0.86819 0.0
H902 H 0.03546 0.42429 0.85211 0.0
H903 H 0.0092 0.33734 0.90124 0.0
H904 H 0.98558 0.3336 0.93622 0.0
H905 H 0.02084 0.33468 0.9456 0.0
H906 H 0.01551 0.37135 0.98827 0.0
H907 H 0.97993 0.37004 0.98154 0.0
H908 H 0.99769 0.39872 0.97466 0.0
H909 H 0.98607 0.42542 0.84573 0.0
H910 H 0.9372 0.41951 0.84669 0.0
H911 H 0.94571 0.36498 0.92871 0.0
C912 C 0.05447 0.37989 0.92875 0.0
C913 C 0.07472 0.39246 0.91027 0.0
C914 C 0.06757 0.40866 0.88272 0.0
C915 C 0.04079 0.41211 0.87342 0.0
C916 C 0.02142 0.39913 0.89176 0.0
C917 C 0.02785 0.38331 0.91879 0.0
C918 C 0.00317 0.37081 0.93322 0.0
C919 C 0.00477 0.34243 0.92879 0.0
C920 C -0.00118 0.37818 0.9717 0.0
C921 C 0.98192 0.38193 0.90981 0.0
C922 C 0.9929 0.39851 0.88646 0.0
C923 C 0.97727 0.41213 0.86337 0.0
C924 C 0.94964 0.40848 0.86382 0.0
C925 C 0.9381 0.39087 0.88643 0.0
C926 C 0.95433 0.37785 0.91028 0.0
H927 H 0.55588 0.57611 0.34182 0.0
H928 H 0.57517 0.64728 0.38907 0.0
H929 H 0.52757 0.65869 0.38894 0.0
H930 H 0.49503 0.59231 0.28908 0.0
H931 H 0.4786 0.56445 0.30241 0.0
H932 H 0.5145 0.56516 0.29956 0.0
H933 H 0.51505 0.55001 0.36449 0.0
H934 H 0.4792 0.55169 0.36642 0.0
H935 H 0.49921 0.56885 0.39756 0.0
H936 H 0.47898 0.66139 0.38896 0.0
H937 H 0.43039 0.65445 0.39177 0.0
H938 H 0.44023 0.5813 0.34558 0.0
C939 C 0.54995 0.5944 0.35083 0.0
C940 C 0.56916 0.61163 0.36337 0.0
C941 C 0.56076 0.63455 0.37769 0.0
C942 C 0.5338 0.64109 0.37785 0.0
C943 C 0.5153 0.62406 0.36477 0.0
C944 C 0.52278 0.60099 0.35199 0.0
C945 C 0.49829 0.58488 0.34496 0.0
C946 C 0.49659 0.57619 0.30671 0.0
C947 C 0.49792 0.56255 0.36984 0.0
C948 C 0.47611 0.60308 0.35375 0.0
C949 C 0.48655 0.6254 0.36562 0.0
C950 C 0.47049 0.64427 0.37891 0.0
C951 C 0.44298 0.6402 0.38038 0.0
C952 C 0.43169 0.61788 0.36743 0.0
C953 C 0.4484 0.59902 0.35393 0.0
H954 H 0.56414 0.36888 0.57891 0.0
H955 H 0.57889 0.43354 0.64419 0.0
H956 H 0.53038 0.43777 0.6547 0.0
H957 H 0.50466 0.39617 0.53896 0.0
H958 H 0.48769 0.36681 0.534 0.0
H959 H 0.52361 0.36801 0.53304 0.0
H960 H 0.52634 0.33617 0.58455 0.0
H961 H 0.49042 0.33463 0.58303 0.0
H962 H 0.50705 0.34226 0.62339 0.0
H963 H 0.48118 0.43089 0.665 0.0
H964 H 0.43277 0.42254 0.65892 0.0
H965 H 0.44909 0.36657 0.57986 0.0
C966 C 0.55704 0.38368 0.59579 0.0
C967 C 0.57514 0.39985 0.61296 0.0
C968 C 0.56528 0.42005 0.63282 0.0
C969 C 0.53783 0.42267 0.63869 0.0
C970 C 0.52055 0.40528 0.62364 0.0
C971 C 0.52961 0.3868 0.60142 0.0
C972 C 0.50649 0.37245 0.5853 0.0
C973 C 0.50556 0.37609 0.54547 0.0
C974 C 0.50771 0.34474 0.59462 0.0
C975 C 0.48316 0.3851 0.60309 0.0
C976 C 0.49179 0.40357 0.62578 0.0
C977 C 0.47411 0.41686 0.64677 0.0
C978 C 0.44676 0.41182 0.64344 0.0
C979 C 0.43744 0.39394 0.61899 0.0
C980 C 0.45585 0.38037 0.59867 0.0
H981 H 0.05651 0.63966 0.0641 0.0
H982 H 0.06175 0.57761 0.13527 0.0
H983 H 0.01309 0.57091 0.12994 0.0
H984 H 0.99269 0.66461 0.0895 0.0
H985 H 0.98346 0.67115 0.04512 0.0
H986 H 0.01817 0.6705 0.05744 0.0
H987 H 0.02453 0.63799 0.00659 0.0
H988 H 0.98919 0.63793 0.99756 0.0
H989 H 0.00601 0.60927 0.00762 0.0
H990 H 0.96399 0.57387 0.12199 0.0
H991 H 0.91722 0.58331 0.10712 0.0
H992 H 0.94378 0.64114 0.03668 0.0
C993 C 0.04723 0.62479 0.0786 0.0
C994 C 0.06231 0.60992 0.10157 0.0
C995 C 0.05005 0.5899 0.11897 0.0
C996 C 0.02258 0.58581 0.11578 0.0
C997 C 0.00794 0.60146 0.09415 0.0
C998 C 0.01981 0.62026 0.07531 0.0
C999 C -0.00052 0.63373 0.05292 0.0
C1000 C -0.00155 0.66164 0.06182 0.0
C1001 C 0.00514 0.62947 0.01386 0.0
C1002 C 0.97417 0.62055 0.06387 0.0
C1003 C 0.9796 0.60189 0.08747 0.0
C1004 C 0.95945 0.58813 0.10307 0.0
C1005 C 0.93296 0.59373 0.09457 0.0
C1006 C 0.92684 0.6129 0.07063 0.0
C1007 C 0.94781 0.62616 0.05468 0.0
H1008 H 0.1467 0.52816 0.09206 0.0
H1009 H 0.18686 0.57833 0.02132 0.0
H1010 H 0.19656 0.54291 0.98158 0.0
H1011 H 0.19089 0.47399 0.07759 0.0
H1012 H 0.16344 0.45246 0.08056 0.0
H1013 H 0.16269 0.48126 0.10489 0.0
H1014 H 0.11727 0.49211 0.07614 0.0
H1015 H 0.11798 0.46353 0.05152 0.0
H1016 H 0.11457 0.49271 0.02912 0.0
H1017 H 0.19687 0.50246 0.94646 0.0
H1018 H 0.19007 0.46061 0.92081 0.0
H1019 H 0.15029 0.43747 0.0158 0.0
C1020 C 0.15806 0.53167 0.06859 0.0
C1021 C 0.1661 0.55599 0.05979 0.0
C1022 C 0.18073 0.55981 0.02871 0.0
C1023 C 0.18625 0.53981 0.00596 0.0
C1024 C 0.17729 0.51614 0.01497 0.0
C1025 C 0.16383 0.512 0.04585 0.0
C1026 C 0.15497 0.48522 0.04879 0.0
C1027 C 0.16883 0.47248 0.0798 0.0
C1028 C 0.12439 0.4833 0.05154 0.0
C1029 C 0.16483 0.47499 0.01428 0.0
C1030 C 0.17778 0.493 0.99514 0.0
C1031 C 0.18713 0.48814 0.96149 0.0
C1032 C 0.18307 0.46432 0.94708 0.0
C1033 C 0.16976 0.44562 0.9663 0.0
C1034 C 0.16084 0.45115 0.00049 0.0
H1035 H 0.73633 0.88258 0.34639 0.0
H1036 H 0.6699 0.91318 0.28779 0.0
H1037 H 0.69964 0.91983 0.23712 0.0
H1038 H 0.78757 0.92399 0.31172 0.0
H1039 H 0.81237 0.89977 0.31141 0.0
H1040 H 0.7861 0.89939 0.34339 0.0
H1041 H 0.77285 0.8549 0.32323 0.0
H1042 H 0.79895 0.8552 0.29114 0.0
H1043 H 0.76498 0.84921 0.27781 0.0
H1044 H 0.73686 0.91991 0.19107 0.0
H1045 H 0.77785 0.91453 0.15559 0.0
H1046 H 0.81847 0.88453 0.24656 0.0
C1047 C 0.72806 0.89097 0.32309 0.0
C1048 C 0.70086 0.89734 0.32095 0.0
C1049 C 0.69078 0.90826 0.28997 0.0
C1050 C 0.7075 0.91208 0.26108 0.0
C1051 C 0.73422 0.90512 0.26386 0.0
C1052 C 0.7444 0.89504 0.2943 0.0
C1053 C 0.77344 0.88827 0.29062 0.0
C1054 C 0.7909 0.90379 0.31577 0.0
C1055 C 0.77779 0.86024 0.296 0.0
C1056 C 0.77793 0.89554 0.2531 0.0
C1057 C 0.75527 0.90537 0.23792 0.0
C1058 C 0.7548 0.91245 0.20284 0.0
C1059 C 0.77812 0.9093 0.18288 0.0
C1060 C 0.80142 0.89906 0.19815 0.0
C1061 C 0.80112 0.8924 0.23382 0.0
H1062 H 0.34634 0.44461 0.50672 0.0
H1063 H 0.33972 0.47897 0.60914 0.0
H1064 H 0.3323 0.51984 0.58156 0.0
H1065 H 0.3849 0.4921 0.47109 0.0
H1066 H 0.37056 0.49027 0.42782 0.0
H1067 H 0.37091 0.46325 0.45522 0.0
H1068 H 0.31962 0.45911 0.44842 0.0
H1069 H 0.31913 0.48615 0.4209 0.0
H1070 H 0.29856 0.48513 0.4594 0.0
H1071 H 0.32845 0.55741 0.54289 0.0
H1072 H 0.33265 0.58909 0.49665 0.0
H1073 H 0.34518 0.53064 0.41977 0.0
C1074 C 0.34257 0.46066 0.52322 0.0
C1075 C 0.34309 0.45867 0.56 0.0
C1076 C 0.33911 0.48016 0.58088 0.0
C1077 C 0.33479 0.5034 0.56545 0.0
C1078 C 0.33487 0.50489 0.52907 0.0
C1079 C 0.33888 0.48412 0.5082 0.0
C1080 C 0.34113 0.4912 0.47004 0.0
C1081 C 0.3685 0.48377 0.45519 0.0
C1082 C 0.31824 0.47971 0.44842 0.0
C1083 C 0.33829 0.51918 0.47279 0.0
C1084 C 0.33409 0.52668 0.50694 0.0
C1085 C 0.33157 0.55173 0.51602 0.0
C1086 C 0.33391 0.5696 0.48959 0.0
C1087 C 0.33925 0.56234 0.45468 0.0
C1088 C 0.34105 0.53676 0.44624 0.0
H1089 H 0.67323 0.12366 0.74485 0.0
H1090 H 0.70087 0.07404 0.66268 0.0
H1091 H 0.73936 0.06231 0.6994 0.0
H1092 H 0.7358 0.14698 0.76686 0.0
H1093 H 0.7296 0.14959 0.81313 0.0
H1094 H 0.70226 0.15123 0.78264 0.0
H1095 H 0.6788 0.11503 0.81465 0.0
H1096 H 0.70631 0.11312 0.84508 0.0
H1097 H 0.69614 0.08602 0.82044 0.0
H1098 H 0.77686 0.05935 0.74132 0.0
H1099 H 0.81303 0.06811 0.78357 0.0
H1100 H 0.76186 0.11958 0.83916 0.0
C1101 C 0.68711 0.10995 0.73487 0.0
C1102 C 0.68398 0.09966 0.70097 0.0
C1103 C 0.70288 0.08221 0.68853 0.0
C1104 C 0.72466 0.07524 0.70934 0.0
C1105 C 0.72726 0.08586 0.74253 0.0
C1106 C 0.70912 0.10297 0.75519 0.0
C1107 C 0.71815 0.11365 0.7901 0.0
C1108 C 0.72167 0.14203 0.78803 0.0
C1109 C 0.69869 0.10652 0.81929 0.0
C1110 C 0.74469 0.10054 0.79447 0.0
C1111 C 0.74923 0.08419 0.76703 0.0
C1112 C 0.77334 0.07167 0.76331 0.0
C1113 C 0.79374 0.07671 0.78743 0.0
C1114 C 0.78989 0.09406 0.81489 0.0
C1115 C 0.76482 0.10553 0.81913 0.0
H1116 H 0.84307 0.44891 0.97874 0.0
H1117 H 0.83315 0.47131 0.87087 0.0
H1118 H 0.8216 0.51377 0.89027 0.0
H1119 H 0.79121 0.49157 0.01819 0.0
H1120 H 0.81188 0.49815 0.05585 0.0
H1121 H 0.81389 0.46829 0.03431 0.0
H1122 H 0.8648 0.47429 0.02647 0.0
H1123 H 0.86293 0.50411 0.04782 0.0
H1124 H 0.87692 0.5016 0.0046 0.0
H1125 H 0.81746 0.55422 0.91963 0.0
H1126 H 0.82254 0.59121 0.95717 0.0
H1127 H 0.83656 0.54399 0.04696 0.0
C1128 C 0.83749 0.46264 0.95947 0.0
C1129 C 0.83845 0.45699 0.92341 0.0
C1130 C 0.83219 0.47543 0.89862 0.0
C1131 C 0.8255 0.49949 0.9094 0.0
C1132 C 0.8254 0.50482 0.94509 0.0
C1133 C 0.83126 0.487 0.96986 0.0
C1134 C 0.83327 0.49855 0.00612 0.0
C1135 C 0.81124 0.48854 0.03003 0.0
C1136 C 0.86114 0.49439 0.02217 0.0
C1137 C 0.82868 0.5257 0.99757 0.0
C1138 C 0.82364 0.52873 0.96229 0.0
C1139 C 0.82092 0.5521 0.9474 0.0
C1140 C 0.82399 0.57302 0.96894 0.0
C1141 C 0.82984 0.5705 0.00502 0.0
C1142 C 0.83157 0.54648 0.01963 0.0
H1143 H 0.17393 0.12522 0.76454 0.0
H1144 H 0.21303 0.09472 0.85631 0.0
H1145 H 0.25451 0.08929 0.82188 0.0
H1146 H 0.20441 0.08508 0.70107 0.0
H1147 H 0.20657 0.10922 0.66878 0.0
H1148 H 0.18023 0.10985 0.70065 0.0
H1149 H 0.19457 0.15422 0.71993 0.0
H1150 H 0.2209 0.15376 0.68812 0.0
H1151 H 0.22858 0.15976 0.73351 0.0
H1152 H 0.29209 0.08857 0.77664 0.0
H1153 H 0.32212 0.09311 0.72588 0.0
H1154 H 0.25683 0.12402 0.66533 0.0
C1155 C 0.1911 0.11737 0.77771 0.0
C1156 C 0.19021 0.11049 0.81329 0.0
C1157 C 0.21324 0.10016 0.82911 0.0
C1158 C 0.23683 0.09698 0.80974 0.0
C1159 C 0.23688 0.1041 0.77468 0.0
C1160 C 0.21452 0.11405 0.75895 0.0
C1161 C 0.21946 0.12074 0.72127 0.0
C1162 C 0.20161 0.1053 0.69649 0.0
C1163 C 0.21566 0.14878 0.71539 0.0
C1164 C 0.24834 0.11333 0.71811 0.0
C1165 C 0.25811 0.10363 0.74903 0.0
C1166 C 0.28457 0.09603 0.75231 0.0
C1167 C 0.30145 0.09867 0.72335 0.0
C1168 C 0.29176 0.1089 0.69168 0.0
C1169 C 0.26481 0.11606 0.68911 0.0
H1170 H 0.65855 0.56412 0.48107 0.0
H1171 H 0.68356 0.53072 0.3832 0.0
H1172 H 0.69428 0.49169 0.4138 0.0
H1173 H 0.70592 0.52985 0.54058 0.0
H1174 H 0.68071 0.52638 0.57365 0.0
H1175 H 0.68048 0.55323 0.54574 0.0
H1176 H 0.63178 0.54324 0.52739 0.0
H1177 H 0.63191 0.51636 0.55499 0.0
H1178 H 0.624 0.51308 0.50915 0.0
H1179 H 0.69695 0.45495 0.45309 0.0
H1180 H 0.68909 0.42266 0.49749 0.0
H1181 H 0.65993 0.47911 0.56929 0.0
C1182 C 0.66729 0.54886 0.4665 0.0
C1183 C 0.67082 0.55044 0.43003 0.0
C1184 C 0.68111 0.52984 0.4113 0.0
C1185 C 0.68732 0.50767 0.42847 0.0
C1186 C 0.68285 0.50632 0.46433 0.0
C1187 C 0.67303 0.52636 0.48318 0.0
C1188 C 0.66655 0.51898 0.52036 0.0
C1189 C 0.68449 0.53294 0.54663 0.0
C1190 C 0.6368 0.52316 0.52841 0.0
C1191 C 0.67335 0.49155 0.51904 0.0
C1192 C 0.68331 0.48475 0.48676 0.0
C1193 C 0.68952 0.46011 0.47866 0.0
C1194 C 0.68497 0.44188 0.50401 0.0
C1195 C 0.67393 0.44836 0.53681 0.0
C1196 C 0.66856 0.4736 0.54452 0.0
H1197 H 0.26601 0.89518 0.3558 0.0
H1198 H 0.33434 0.92052 0.29672 0.0
H1199 H 0.30518 0.92754 0.24528 0.0
H1200 H 0.23591 0.86155 0.2895 0.0
H1201 H 0.2022 0.86951 0.30132 0.0
H1202 H 0.22795 0.86934 0.33418 0.0
H1203 H 0.21701 0.91508 0.35051 0.0
H1204 H 0.19102 0.91532 0.3178 0.0
H1205 H 0.21707 0.93842 0.31694 0.0
H1206 H 0.26845 0.92688 0.1979 0.0
H1207 H 0.22768 0.92073 0.16146 0.0
H1208 H 0.18493 0.89726 0.25412 0.0
C1209 C 0.27477 0.90269 0.33229 0.0
C1210 C 0.30234 0.9073 0.33018 0.0
C1211 C 0.31313 0.91701 0.29891 0.0
C1212 C 0.29676 0.92101 0.26954 0.0
C1213 C 0.26965 0.91559 0.27219 0.0
C1214 C 0.25876 0.90701 0.30305 0.0
C1215 C 0.22945 0.90138 0.29904 0.0
C1216 C 0.22356 0.87382 0.30643 0.0
C1217 C 0.21265 0.91858 0.32246 0.0
C1218 C 0.22567 0.90736 0.26087 0.0
C1219 C 0.24886 0.91565 0.24557 0.0
C1220 C 0.25005 0.92076 0.20979 0.0
C1221 C 0.22688 0.91717 0.18927 0.0
C1222 C 0.20305 0.90848 0.20475 0.0
C1223 C 0.20266 0.90395 0.24112 0.0
H1224 H 0.63907 0.02501 0.58907 0.0
H1225 H 0.6817 0.07251 0.51713 0.0
H1226 H 0.6925 0.03573 0.48052 0.0
H1227 H 0.68389 0.97124 0.58197 0.0
H1228 H 0.65681 0.9493 0.58478 0.0
H1229 H 0.65437 0.97907 0.60642 0.0
H1230 H 0.61013 0.98782 0.57336 0.0
H1231 H 0.61245 0.95815 0.55162 0.0
H1232 H 0.60948 0.98611 0.52626 0.0
H1233 H 0.69495 0.994 0.44913 0.0
H1234 H 0.69003 0.95108 0.42659 0.0
H1235 H 0.64678 0.93105 0.52034 0.0
C1236 C 0.651 0.02769 0.56587 0.0
C1237 C 0.65957 0.05166 0.55596 0.0
C1238 C 0.67504 0.05432 0.52532 0.0
C1239 C 0.68125 0.03353 0.50438 0.0
C1240 C 0.67209 0.0102 0.51466 0.0
C1241 C 0.6575 0.00719 0.5449 0.0
C1242 C 0.64908 0.98039 0.54957 0.0
C1243 C 0.6618 0.96935 0.58265 0.0
C1244 C 0.61847 0.97799 0.55023 0.0
C1245 C 0.66064 0.9688 0.5168 0.0
C1246 C 0.67394 0.98624 0.49704 0.0
C1247 C 0.6849 0.98014 0.46466 0.0
C1248 C 0.68195 0.9557 0.45204 0.0
C1249 C 0.66821 0.93755 0.47178 0.0
C1250 C 0.6578 0.94427 0.50483 0.0
H1251 H 0.32092 0.37644 0.73392 0.0
H1252 H 0.28329 0.41581 0.64806 0.0
H1253 H 0.24404 0.42409 0.68563 0.0
H1254 H 0.26258 0.34717 0.76583 0.0
H1255 H 0.27269 0.34997 0.81099 0.0
H1256 H 0.29751 0.3478 0.77728 0.0
H1257 H 0.31883 0.38897 0.79943 0.0
H1258 H 0.29392 0.39138 0.83308 0.0
H1259 H 0.29853 0.41651 0.8028 0.0
H1260 H 0.20866 0.42735 0.73334 0.0
H1261 H 0.17974 0.42375 0.78527 0.0
H1262 H 0.24187 0.38245 0.8387 0.0
C1263 C 0.30452 0.38682 0.72272 0.0
C1264 C 0.30525 0.39546 0.68789 0.0
C1265 C 0.28319 0.40894 0.6746 0.0
C1266 C 0.26089 0.41381 0.69579 0.0
C1267 C 0.26106 0.40512 0.73012 0.0
C1268 C 0.28234 0.39184 0.74333 0.0
C1269 C 0.27773 0.38405 0.7807 0.0
C1270 C 0.27761 0.35556 0.78386 0.0
C1271 C 0.29848 0.39595 0.80546 0.0
C1272 C 0.25032 0.39481 0.78659 0.0
C1273 C 0.24103 0.40703 0.75727 0.0
C1274 C 0.21582 0.41791 0.75644 0.0
C1275 C 0.19958 0.41582 0.7861 0.0
C1276 C 0.20861 0.40288 0.81607 0.0
C1277 C 0.23446 0.39261 0.81633 0.0
H1278 H 0.84673 0.02972 0.92723 0.0
H1279 H 0.81774 0.08487 0.00119 0.0
H1280 H 0.81413 0.05261 0.04635 0.0
H1281 H 0.80381 0.97836 0.95858 0.0
H1282 H 0.82935 0.95532 0.95161 0.0
H1283 H 0.8279 0.9824 0.92422 0.0
H1284 H 0.87696 0.99281 0.94025 0.0
H1285 H 0.87854 0.96586 0.96774 0.0
H1286 H 0.88637 0.9961 0.98562 0.0
H1287 H 0.81939 0.01608 0.08534 0.0
H1288 H 0.82909 0.97618 0.11445 0.0
H1289 H 0.85083 0.94349 0.01471 0.0
C1290 C 0.83924 0.0349 0.95278 0.0
C1291 C 0.83255 0.0598 0.96075 0.0
C1292 C 0.82287 0.06589 0.99447 0.0
C1293 C 0.82077 0.0477 0.02031 0.0
C1294 C 0.82794 0.02342 0.01184 0.0
C1295 C 0.83655 0.01685 0.97877 0.0
C1296 C 0.84364 0.98948 0.97689 0.0
C1297 C 0.82506 0.97557 0.95131 0.0
C1298 C 0.87313 0.98587 0.96706 0.0
C1299 C 0.83845 0.98192 0.01436 0.0
C1300 C 0.8295 0.00185 0.03407 0.0
C1301 C 0.82574 1.00017 0.07006 0.0
C1302 C 0.83136 0.97754 0.08636 0.0
C1303 C 0.84012 0.95685 0.06659 0.0
C1304 C 0.84338 0.95894 0.03011 0.0
H1305 H 0.21162 0.60846 0.17414 0.0
H1306 H 0.15142 0.6004 0.25457 0.0
H1307 H 0.18678 0.59555 0.29901 0.0
H1308 H 0.2607 0.56485 0.21174 0.0
H1309 H 0.28862 0.58398 0.1995 0.0
H1310 H 0.25859 0.58404 0.17339 0.0
H1311 H 0.2554 0.63187 0.18054 0.0
H1312 H 0.28531 0.63195 0.20674 0.0
H1313 H 0.25508 0.64536 0.22384 0.0
H1314 H 0.22855 0.59479 0.33546 0.0
H1315 H 0.2737 0.59881 0.3611 0.0
H1316 H 0.30643 0.60786 0.25695 0.0
C1317 C 0.20586 0.60514 0.20097 0.0
C1318 C 0.17874 0.60472 0.21081 0.0
C1319 C 0.17207 0.60083 0.24636 0.0
C1320 C 0.192 0.59795 0.27181 0.0
C1321 C 0.21854 0.59898 0.26137 0.0
C1322 C 0.22552 0.60241 0.22679 0.0
C1323 C 0.25546 0.60458 0.22285 0.0
C1324 C 0.26649 0.58308 0.20055 0.0
C1325 C 0.26326 0.62995 0.2076 0.0
C1326 C 0.26415 0.60238 0.26068 0.0
C1327 C 0.24261 0.59886 0.28246 0.0
C1328 C 0.24563 0.59731 0.31864 0.0
C1329 C 0.27136 0.59964 0.33297 0.0
C1330 C 0.29369 0.60369 0.31113 0.0
C1331 C 0.28988 0.60474 0.27448 0.0
H1332 H 0.34023 0.05952 0.49744 0.0
H1333 H 0.31892 0.04494 0.6054 0.0
H1334 H 0.31538 1.00033 0.59179 0.0
H1335 H 0.29664 0.01135 0.45792 0.0
H1336 H 0.32069 0.00355 0.42471 0.0
H1337 H 0.31923 0.03474 0.44207 0.0
H1338 H 0.3694 0.03239 0.45847 0.0
H1339 H 0.37098 1.00121 0.44133 0.0
H1340 H 0.38105 0.00748 0.48584 0.0
H1341 H 0.31854 0.95701 0.56838 0.0
H1342 H 0.3264 0.91798 0.53572 0.0
H1343 H 0.3444 0.96043 0.44263 0.0
C1344 C 0.33437 0.04704 0.51811 0.0
C1345 C 0.32989 0.05588 0.55252 0.0
C1346 C 0.32247 0.03876 0.57881 0.0
C1347 C 0.32036 0.01332 0.57136 0.0
C1348 C 0.32545 0.0052 0.53743 0.0
C1349 C 0.33205 0.02153 0.51112 0.0
C1350 C 0.33773 0.00777 0.47724 0.0
C1351 C 0.31735 0.01477 0.44881 0.0
C1352 C 0.3665 0.01249 0.46502 0.0
C1353 C 0.33396 0.98116 0.48891 0.0
C1354 C 0.32677 0.98011 0.5237 0.0
C1355 C 0.32377 0.95758 0.54097 0.0
C1356 C 0.32839 0.93551 0.52225 0.0
C1357 C 0.33581 0.93613 0.48657 0.0
C1358 C 0.33829 0.95931 0.4697 0.0
H1359 H 0.765 0.63059 0.14957 0.0
H1360 H 0.81954 0.57522 0.19034 0.0
H1361 H 0.79357 0.57373 0.24521 0.0
H1362 H 0.75695 0.66407 0.22906 0.0
H1363 H 0.72217 0.67079 0.22158 0.0
H1364 H 0.74427 0.66657 0.18502 0.0
H1365 H 0.71377 0.63168 0.15986 0.0
H1366 H 0.69127 0.63629 0.19584 0.0
H1367 H 0.70483 0.60587 0.18723 0.0
H1368 H 0.76112 0.5789 0.29618 0.0
H1369 H 0.72321 0.58763 0.33577 0.0
H1370 H 0.69268 0.64133 0.2615 0.0
C1371 C 0.77128 0.61781 0.16974 0.0
C1372 C 0.79415 0.60288 0.16561 0.0
C1373 C 0.80192 0.58671 0.1929 0.0
C1374 C 0.78743 0.58586 0.22423 0.0
C1375 C 0.76541 0.60147 0.22786 0.0
C1376 C 0.75732 0.61697 0.20117 0.0
C1377 C 0.73318 0.63205 0.21137 0.0
C1378 C 0.73954 0.66002 0.21178 0.0
C1379 C 0.70936 0.6261 0.18715 0.0
C1380 C 0.72873 0.62247 0.24788 0.0
C1381 C 0.74748 0.60491 0.25716 0.0
C1382 C 0.74642 0.59275 0.28924 0.0
C1383 C 0.72497 0.59799 0.31172 0.0
C1384 C 0.70498 0.61519 0.30181 0.0
C1385 C 0.70762 0.62813 0.27001 0.0
H1386 H 0.14922 0.98259 0.08763 0.0
H1387 H 0.17401 0.92488 0.01496 0.0
H1388 H 0.17649 0.95585 0.96779 0.0
H1389 H 0.10787 0.01499 0.03096 0.0
H1390 H 0.11685 0.04563 0.04632 0.0
H1391 H 0.11949 0.01954 0.07525 0.0
H1392 H 0.16934 0.02972 0.08654 0.0
H1393 H 0.16682 0.05602 0.0578 0.0
H1394 H 0.19173 0.03251 0.05003 0.0
H1395 H 0.16967 0.99145 0.92703 0.0
H1396 H 0.1589 0.03058 0.89652 0.0
H1397 H 0.14237 0.06629 0.99599 0.0
C1398 C 0.1557 0.97659 0.06195 0.0
C1399 C 0.16142 0.95132 0.05492 0.0
C1400 C 0.1697 0.94415 0.02098 0.0
C1401 C 0.17112 0.9616 0.994 0.0
C1402 C 0.16472 0.98625 0.00157 0.0
C1403 C 0.1577 0.99387 0.03486 0.0
C1404 C 0.15099 0.02135 0.03572 0.0
C1405 C 0.12209 0.02561 0.04777 0.0
C1406 C 0.17091 0.03575 0.0589 0.0
C1407 C 0.15442 0.02777 0.99747 0.0
C1408 C 0.16226 0.0072 0.97823 0.0
C1409 C 0.1642 0.00784 0.9419 0.0
C1410 C 0.15795 0.03005 0.9248 0.0
C1411 C 0.15034 0.0514 0.94406 0.0
C1412 C 0.14889 0.05034 0.98086 0.0
H1413 H 0.7317 0.37816 0.66161 0.0
H1414 H 0.68966 0.43977 0.70961 0.0
H1415 H 0.72737 0.44695 0.74975 0.0
H1416 H 0.75629 0.35371 0.73743 0.0
H1417 H 0.78856 0.34455 0.72125 0.0
H1418 H 0.76073 0.34684 0.6916 0.0
H1419 H 0.78712 0.37764 0.65315 0.0
H1420 H 0.81526 0.37519 0.68248 0.0
H1421 H 0.80132 0.40523 0.67278 0.0
H1422 H 0.76524 0.44339 0.79031 0.0
H1423 H 0.80327 0.43101 0.82722 0.0
H1424 H 0.82237 0.37201 0.75344 0.0
C1425 C 0.73106 0.39374 0.67968 0.0
C1426 C 0.70798 0.40859 0.68247 0.0
C1427 C 0.70719 0.42826 0.70713 0.0
C1428 C 0.72858 0.43255 0.72993 0.0
C1429 C 0.75067 0.41702 0.72762 0.0
C1430 C 0.75234 0.3982 0.70288 0.0
C1431 C 0.77729 0.38276 0.70844 0.0
C1432 C 0.77028 0.35535 0.71508 0.0
C1433 C 0.79638 0.38537 0.67736 0.0
C1434 C 0.78861 0.39518 0.74102 0.0
C1435 C 0.77303 0.41506 0.75132 0.0
C1436 C 0.77797 0.42821 0.78216 0.0
C1437 C 0.79947 0.42089 0.8031 0.0
C1438 C 0.8158 0.40062 0.7931 0.0
C1439 C 0.81046 0.38783 0.7614 0.0
loop_
_geom_bond_atom_site_label_1
_geom_bond_atom_site_label_2
_geom_bond_distance
_geom_bond_site_symmetry_2
_ccdc_geom_bond_type
Mn0 O5 2.095 . S
Mn0 O15 2.162 . S
Mn0 O16 2.297 . S
Mn0 O24 2.385 . S
Mn0 O25 2.209 . S
Mn0 O26 2.094 . S
Mn1 O6 2.121 . S
Mn1 N8 2.257 . S
Mn1 N17 2.282 . S
Mn1 O25 2.215 . S
Mn1 O27 2.117 . S
C2 O24 1.234 . S
C2 O25 1.283 . S
C3 O15 1.281 . S
C3 O16 1.236 . S
C4 O26 1.240 . S
C4 O27 1.264 . S
O5 Mn0 2.095 . S
O5 C14 1.250 . S
O6 Mn1 2.121 . S
O6 C14 1.258 . S
C7 N8 1.326 . S
C7 C11 1.460 . S
C7 H13 0.929 . S
N8 Mn1 2.257 . S
N8 C7 1.326 . S
N8 C12 1.362 . S
C9 C10 1.258 . S
C9 C12 1.431 . S
C9 C29 1.449 . S
C10 C9 1.258 . S
C10 C11 1.477 . S
C10 H30 0.931 . S
C11 C7 1.460 . S
C11 C10 1.477 . S
C11 H31 0.930 . S
C12 N8 1.362 . S
C12 C9 1.431 . S
C12 C22 1.476 . S
H13 C7 0.929 . S
C14 O5 1.250 . S
C14 O6 1.258 . S
O15 Mn0 2.162 . S
O15 C3 1.281 . S
O16 Mn0 2.297 . S
O16 C3 1.236 . S
N17 Mn1 2.282 . S
N17 C18 1.328 . S
N17 C22 1.318 . S
C18 N17 1.328 . S
C18 C19 1.457 . S
C18 H23 0.929 . S
C19 C18 1.457 . S
C19 C20 1.291 . S
C19 H32 0.931 . S
C20 C19 1.291 . S
C20 C21 1.373 . S
C20 H33 0.929 . S
C21 C20 1.373 . S
C21 C22 1.396 . S
C21 C28 1.403 . S
C22 C12 1.476 . S
C22 N17 1.318 . S
C22 C21 1.396 . S
H23 C18 0.929 . S
O24 Mn0 2.385 . S
O24 C2 1.234 . S
O25 Mn0 2.209 . S
O25 Mn1 2.215 . S
O25 C2 1.283 . S
O26 Mn0 2.094 . S
O26 C4 1.240 . S
O27 Mn1 2.117 . S
O27 C4 1.264 . S
C28 C21 1.403 . S
C28 C29 1.399 . S
C28 H34 0.929 . S
C29 C9 1.449 . S
C29 C28 1.399 . S
C29 H35 0.930 . S
H30 C10 0.931 . S
H31 C11 0.930 . S
H32 C19 0.931 . S
H33 C20 0.929 . S
H34 C28 0.929 . S
H35 C29 0.930 . S
Mn36 O41 2.095 . S
Mn36 O51 2.162 . S
Mn36 O52 2.297 . S
Mn36 O60 2.385 . S
Mn36 O61 2.209 . S
Mn36 O62 2.094 . S
Mn37 O42 2.121 . S
Mn37 N44 2.257 . S
Mn37 N53 2.282 . S
Mn37 O61 2.215 . S
Mn37 O63 2.117 . S
C38 O60 1.234 . S
C38 O61 1.283 . S
C39 O51 1.281 . S
C39 O52 1.236 . S
C40 O62 1.240 . S
C40 O63 1.264 . S
O41 Mn36 2.095 . S
O41 C50 1.250 . S
O42 Mn37 2.121 . S
O42 C50 1.258 . S
C43 N44 1.326 . S
C43 C47 1.460 . S
C43 H49 0.929 . S
N44 Mn37 2.257 . S
N44 C43 1.326 . S
N44 C48 1.362 . S
C45 C46 1.258 . S
C45 C48 1.431 . S
C45 C65 1.449 . S
C46 C45 1.258 . S
C46 C47 1.477 . S
C46 H66 0.931 . S
C47 C43 1.460 . S
C47 C46 1.477 . S
C47 H67 0.930 . S
C48 N44 1.362 . S
C48 C45 1.431 . S
C48 C58 1.476 . S
H49 C43 0.929 . S
C50 O41 1.250 . S
C50 O42 1.258 . S
O51 Mn36 2.162 . S
O51 C39 1.281 . S
O52 Mn36 2.297 . S
O52 C39 1.236 . S
N53 Mn37 2.282 . S
N53 C54 1.328 . S
N53 C58 1.318 . S
C54 N53 1.328 . S
C54 C55 1.457 . S
C54 H59 0.929 . S
C55 C54 1.457 . S
C55 C56 1.291 . S
C55 H68 0.931 . S
C56 C55 1.291 . S
C56 C57 1.373 . S
C56 H69 0.929 . S
C57 C56 1.373 . S
C57 C58 1.396 . S
C57 C64 1.403 . S
C58 C48 1.476 . S
C58 N53 1.318 . S
C58 C57 1.396 . S
H59 C54 0.929 . S
O60 Mn36 2.385 . S
O60 C38 1.234 . S
O61 Mn36 2.209 . S
O61 Mn37 2.215 . S
O61 C38 1.283 . S
O62 Mn36 2.094 . S
O62 C40 1.240 . S
O63 Mn37 2.117 . S
O63 C40 1.264 . S
C64 C57 1.403 . S
C64 C65 1.399 . S
C64 H70 0.929 . S
C65 C45 1.449 . S
C65 C64 1.399 . S
C65 H71 0.930 . S
H66 C46 0.931 . S
H67 C47 0.930 . S
H68 C55 0.931 . S
H69 C56 0.929 . S
H70 C64 0.929 . S
H71 C65 0.930 . S
Mn72 O77 2.095 . S
Mn72 O87 2.162 . S
Mn72 O88 2.297 . S
Mn72 O96 2.385 . S
Mn72 O97 2.209 . S
Mn72 O98 2.094 . S
Mn73 O78 2.121 . S
Mn73 N80 2.257 . S
Mn73 N89 2.282 . S
Mn73 O97 2.215 . S
Mn73 O99 2.117 . S
C74 O96 1.234 . S
C74 O97 1.283 . S
C75 O87 1.281 . S
C75 O88 1.236 . S
C76 O98 1.240 . S
C76 O99 1.264 . S
O77 Mn72 2.095 . S
O77 C86 1.250 . S
O78 Mn73 2.121 . S
O78 C86 1.258 . S
C79 N80 1.326 . S
C79 C83 1.460 . S
C79 H85 0.929 . S
N80 Mn73 2.257 . S
N80 C79 1.326 . S
N80 C84 1.362 . S
C81 C82 1.258 . S
C81 C84 1.431 . S
C81 C101 1.449 . S
C82 C81 1.258 . S
C82 C83 1.477 . S
C82 H102 0.931 . S
C83 C79 1.460 . S
C83 C82 1.477 . S
C83 H103 0.930 . S
C84 N80 1.362 . S
C84 C81 1.431 . S
C84 C94 1.476 . S
H85 C79 0.929 . S
C86 O77 1.250 . S
C86 O78 1.258 . S
O87 Mn72 2.162 . S
O87 C75 1.281 . S
O88 Mn72 2.297 . S
O88 C75 1.236 . S
N89 Mn73 2.282 . S
N89 C90 1.328 . S
N89 C94 1.318 . S
C90 N89 1.328 . S
C90 C91 1.457 . S
C90 H95 0.929 . S
C91 C90 1.457 . S
C91 C92 1.291 . S
C91 H104 0.931 . S
C92 C91 1.291 . S
C92 C93 1.373 . S
C92 H105 0.929 . S
C93 C92 1.373 . S
C93 C94 1.396 . S
C93 C100 1.403 . S
C94 C84 1.476 . S
C94 N89 1.318 . S
C94 C93 1.396 . S
H95 C90 0.929 . S
O96 Mn72 2.385 . S
O96 C74 1.234 . S
O97 Mn72 2.209 . S
O97 Mn73 2.215 . S
O97 C74 1.283 . S
O98 Mn72 2.094 . S
O98 C76 1.240 . S
O99 Mn73 2.117 . S
O99 C76 1.264 . S
C100 C93 1.403 . S
C100 C101 1.399 . S
C100 H106 0.929 . S
C101 C81 1.449 . S
C101 C100 1.399 . S
C101 H107 0.930 . S
H102 C82 0.931 . S
H103 C83 0.930 . S
H104 C91 0.931 . S
H105 C92 0.929 . S
H106 C100 0.929 . S
H107 C101 0.930 . S
Mn108 O113 2.095 . S
Mn108 O123 2.162 . S
Mn108 O124 2.297 . S
Mn108 O132 2.385 . S
Mn108 O133 2.209 . S
Mn108 O134 2.094 . S
Mn109 O114 2.121 . S
Mn109 N116 2.257 . S
Mn109 N125 2.282 . S
Mn109 O133 2.215 . S
Mn109 O135 2.117 . S
C110 O132 1.234 . S
C110 O133 1.283 . S
C111 O123 1.281 . S
C111 O124 1.236 . S
C112 O134 1.240 . S
C112 O135 1.264 . S
O113 Mn108 2.095 . S
O113 C122 1.250 . S
O114 Mn109 2.121 . S
O114 C122 1.258 . S
C115 N116 1.326 . S
C115 C119 1.460 . S
C115 H121 0.929 . S
N116 Mn109 2.257 . S
N116 C115 1.326 . S
N116 C120 1.362 . S
C117 C118 1.258 . S
C117 C120 1.431 . S
C117 C137 1.449 . S
C118 C117 1.258 . S
C118 C119 1.477 . S
C118 H138 0.931 . S
C119 C115 1.460 . S
C119 C118 1.477 . S
C119 H139 0.930 . S
C120 N116 1.362 . S
C120 C117 1.431 . S
C120 C130 1.476 . S
H121 C115 0.929 . S
C122 O113 1.250 . S
C122 O114 1.258 . S
O123 Mn108 2.162 . S
O123 C111 1.281 . S
O124 Mn108 2.297 . S
O124 C111 1.236 . S
N125 Mn109 2.282 . S
N125 C126 1.328 . S
N125 C130 1.318 . S
C126 N125 1.328 . S
C126 C127 1.457 . S
C126 H131 0.929 . S
C127 C126 1.457 . S
C127 C128 1.291 . S
C127 H140 0.931 . S
C128 C127 1.291 . S
C128 C129 1.373 . S
C128 H141 0.929 . S
C129 C128 1.373 . S
C129 C130 1.396 . S
C129 C136 1.403 . S
C130 C120 1.476 . S
C130 N125 1.318 . S
C130 C129 1.396 . S
H131 C126 0.929 . S
O132 Mn108 2.385 . S
O132 C110 1.234 . S
O133 Mn108 2.209 . S
O133 Mn109 2.215 . S
O133 C110 1.283 . S
O134 Mn108 2.094 . S
O134 C112 1.240 . S
O135 Mn109 2.117 . S
O135 C112 1.264 . S
C136 C129 1.403 . S
C136 C137 1.399 . S
C136 H142 0.929 . S
C137 C117 1.449 . S
C137 C136 1.399 . S
C137 H143 0.930 . S
H138 C118 0.931 . S
H139 C119 0.930 . S
H140 C127 0.931 . S
H141 C128 0.929 . S
H142 C136 0.929 . S
H143 C137 0.930 . S
Mn144 O149 2.095 . S
Mn144 O159 2.162 . S
Mn144 O160 2.297 . S
Mn144 O168 2.385 . S
Mn144 O169 2.209 . S
Mn144 O170 2.094 . S
Mn145 O150 2.121 . S
Mn145 N152 2.257 . S
Mn145 N161 2.282 . S
Mn145 O169 2.215 . S
Mn145 O171 2.117 . S
C146 O168 1.234 . S
C146 O169 1.283 . S
C147 O159 1.281 . S
C147 O160 1.236 . S
C148 O170 1.240 . S
C148 O171 1.264 . S
O149 Mn144 2.095 . S
O149 C158 1.250 . S
O150 Mn145 2.121 . S
O150 C158 1.258 . S
C151 N152 1.326 1_554 S
C151 C155 1.460 . S
C151 H157 0.929 . S
N152 Mn145 2.257 . S
N152 C151 1.326 1_556 S
N152 C156 1.362 1_556 S
C153 C154 1.258 . S
C153 C156 1.431 . S
C153 C173 1.449 . S
C154 C153 1.258 . S
C154 C155 1.477 . S
C154 H174 0.931 . S
C155 C151 1.460 . S
C155 C154 1.477 . S
C155 H175 0.930 . S
C156 N152 1.362 1_554 S
C156 C153 1.431 . S
C156 C166 1.476 1_554 S
H157 C151 0.929 . S
C158 O149 1.250 . S
C158 O150 1.258 . S
O159 Mn144 2.162 . S
O159 C147 1.281 . S
O160 Mn144 2.297 . S
O160 C147 1.236 . S
N161 Mn145 2.282 . S
N161 C162 1.328 . S
N161 C166 1.318 . S
C162 N161 1.328 . S
C162 C163 1.457 . S
C162 H167 0.929 . S
C163 C162 1.457 . S
C163 C164 1.291 . S
C163 H176 0.931 . S
C164 C163 1.291 . S
C164 C165 1.373 . S
C164 H177 0.929 . S
C165 C164 1.373 . S
C165 C166 1.396 . S
C165 C172 1.403 1_556 S
C166 C156 1.476 1_556 S
C166 N161 1.318 . S
C166 C165 1.396 . S
H167 C162 0.929 . S
O168 Mn144 2.385 . S
O168 C146 1.234 . S
O169 Mn144 2.209 . S
O169 Mn145 2.215 . S
O169 C146 1.283 . S
O170 Mn144 2.094 . S
O170 C148 1.240 . S
O171 Mn145 2.117 . S
O171 C148 1.264 . S
C172 C165 1.403 1_554 S
C172 C173 1.399 . S
C172 H178 0.929 . S
C173 C153 1.449 . S
C173 C172 1.399 . S
C173 H179 0.930 . S
H174 C154 0.931 . S
H175 C155 0.930 . S
H176 C163 0.931 . S
H177 C164 0.929 . S
H178 C172 0.929 . S
H179 C173 0.930 . S
Mn180 O185 2.095 . S
Mn180 O195 2.162 . S
Mn180 O196 2.297 . S
Mn180 O204 2.385 . S
Mn180 O205 2.209 . S
Mn180 O206 2.094 . S
Mn181 O186 2.121 . S
Mn181 N188 2.257 . S
Mn181 N197 2.282 . S
Mn181 O205 2.215 . S
Mn181 O207 2.117 . S
C182 O204 1.234 . S
C182 O205 1.283 . S
C183 O195 1.281 . S
C183 O196 1.236 . S
C184 O206 1.240 . S
C184 O207 1.264 . S
O185 Mn180 2.095 . S
O185 C194 1.250 . S
O186 Mn181 2.121 . S
O186 C194 1.258 . S
C187 N188 1.326 . S
C187 C191 1.460 . S
C187 H193 0.929 . S
N188 Mn181 2.257 . S
N188 C187 1.326 . S
N188 C192 1.362 . S
C189 C190 1.258 . S
C189 C192 1.431 . S
C189 C209 1.449 . S
C190 C189 1.258 . S
C190 C191 1.477 . S
C190 H210 0.931 . S
C191 C187 1.460 . S
C191 C190 1.477 . S
C191 H211 0.930 . S
C192 N188 1.362 . S
C192 C189 1.431 . S
C192 C202 1.476 . S
H193 C187 0.929 . S
C194 O185 1.250 . S
C194 O186 1.258 . S
O195 Mn180 2.162 . S
O195 C183 1.281 . S
O196 Mn180 2.297 . S
O196 C183 1.236 . S
N197 Mn181 2.282 . S
N197 C198 1.328 . S
N197 C202 1.318 . S
C198 N197 1.328 . S
C198 C199 1.457 . S
C198 H203 0.929 . S
C199 C198 1.457 . S
C199 C200 1.291 . S
C199 H212 0.931 . S
C200 C199 1.291 . S
C200 C201 1.373 . S
C200 H213 0.929 . S
C201 C200 1.373 . S
C201 C202 1.396 . S
C201 C208 1.403 . S
C202 C192 1.476 . S
C202 N197 1.318 . S
C202 C201 1.396 . S
H203 C198 0.929 . S
O204 Mn180 2.385 . S
O204 C182 1.234 . S
O205 Mn180 2.209 . S
O205 Mn181 2.215 . S
O205 C182 1.283 . S
O206 Mn180 2.094 . S
O206 C184 1.240 . S
O207 Mn181 2.117 . S
O207 C184 1.264 . S
C208 C201 1.403 . S
C208 C209 1.399 . S
C208 H214 0.929 . S
C209 C189 1.449 . S
C209 C208 1.399 . S
C209 H215 0.930 . S
H210 C190 0.931 . S
H211 C191 0.930 . S
H212 C199 0.931 . S
H213 C200 0.929 . S
H214 C208 0.929 . S
H215 C209 0.930 . S
Mn216 O221 2.095 . S
Mn216 O231 2.162 . S
Mn216 O232 2.297 . S
Mn216 O240 2.385 . S
Mn216 O241 2.209 . S
Mn216 O242 2.094 . S
Mn217 O222 2.121 . S
Mn217 N224 2.257 . S
Mn217 N233 2.282 . S
Mn217 O241 2.215 . S
Mn217 O243 2.117 . S
C218 O240 1.234 . S
C218 O241 1.283 . S
C219 O231 1.281 . S
C219 O232 1.236 . S
C220 O242 1.240 . S
C220 O243 1.264 . S
O221 Mn216 2.095 . S
O221 C230 1.250 . S
O222 Mn217 2.121 . S
O222 C230 1.258 . S
C223 N224 1.326 . S
C223 C227 1.460 . S
C223 H229 0.929 . S
N224 Mn217 2.257 . S
N224 C223 1.326 . S
N224 C228 1.362 . S
C225 C226 1.258 . S
C225 C228 1.431 . S
C225 C245 1.449 . S
C226 C225 1.258 . S
C226 C227 1.477 . S
C226 H246 0.931 . S
C227 C223 1.460 . S
C227 C226 1.477 . S
C227 H247 0.930 . S
C228 N224 1.362 . S
C228 C225 1.431 . S
C228 C238 1.476 . S
H229 C223 0.929 . S
C230 O221 1.250 . S
C230 O222 1.258 . S
O231 Mn216 2.162 . S
O231 C219 1.281 . S
O232 Mn216 2.297 . S
O232 C219 1.236 . S
N233 Mn217 2.282 . S
N233 C234 1.328 . S
N233 C238 1.318 . S
C234 N233 1.328 . S
C234 C235 1.457 . S
C234 H239 0.929 . S
C235 C234 1.457 . S
C235 C236 1.291 . S
C235 H248 0.931 . S
C236 C235 1.291 . S
C236 C237 1.373 . S
C236 H249 0.929 . S
C237 C236 1.373 . S
C237 C238 1.396 . S
C237 C244 1.403 . S
C238 C228 1.476 . S
C238 N233 1.318 . S
C238 C237 1.396 . S
H239 C234 0.929 . S
O240 Mn216 2.385 . S
O240 C218 1.234 . S
O241 Mn216 2.209 . S
O241 Mn217 2.215 . S
O241 C218 1.283 . S
O242 Mn216 2.094 . S
O242 C220 1.240 . S
O243 Mn217 2.117 . S
O243 C220 1.264 . S
C244 C237 1.403 . S
C244 C245 1.399 . S
C244 H250 0.929 . S
C245 C225 1.449 . S
C245 C244 1.399 . S
C245 H251 0.930 . S
H246 C226 0.931 . S
H247 C227 0.930 . S
H248 C235 0.931 . S
H249 C236 0.929 . S
H250 C244 0.929 . S
H251 C245 0.930 . S
Mn252 O257 2.095 . S
Mn252 O267 2.162 . S
Mn252 O268 2.297 . S
Mn252 O276 2.385 . S
Mn252 O277 2.209 . S
Mn252 O278 2.094 . S
Mn253 O258 2.121 . S
Mn253 N260 2.257 . S
Mn253 N269 2.282 . S
Mn253 O277 2.215 . S
Mn253 O279 2.117 . S
C254 O276 1.234 . S
C254 O277 1.283 . S
C255 O267 1.281 . S
C255 O268 1.236 . S
C256 O278 1.240 . S
C256 O279 1.264 . S
O257 Mn252 2.095 . S
O257 C266 1.250 . S
O258 Mn253 2.121 . S
O258 C266 1.258 . S
C259 N260 1.326 . S
C259 C263 1.460 . S
C259 H265 0.929 . S
N260 Mn253 2.257 . S
N260 C259 1.326 . S
N260 C264 1.362 . S
C261 C262 1.258 . S
C261 C264 1.431 . S
C261 C281 1.449 . S
C262 C261 1.258 . S
C262 C263 1.477 . S
C262 H282 0.931 . S
C263 C259 1.460 . S
C263 C262 1.477 . S
C263 H283 0.930 . S
C264 N260 1.362 . S
C264 C261 1.431 . S
C264 C274 1.476 . S
H265 C259 0.929 . S
C266 O257 1.250 . S
C266 O258 1.258 . S
O267 Mn252 2.162 . S
O267 C255 1.281 . S
O268 Mn252 2.297 . S
O268 C255 1.236 . S
N269 Mn253 2.282 . S
N269 C270 1.328 . S
N269 C274 1.318 . S
C270 N269 1.328 . S
C270 C271 1.457 . S
C270 H275 0.929 . S
C271 C270 1.457 . S
C271 C272 1.291 . S
C271 H284 0.931 . S
C272 C271 1.291 . S
C272 C273 1.373 . S
C272 H285 0.929 . S
C273 C272 1.373 . S
C273 C274 1.396 . S
C273 C280 1.403 . S
C274 C264 1.476 . S
C274 N269 1.318 . S
C274 C273 1.396 . S
H275 C270 0.929 . S
O276 Mn252 2.385 . S
O276 C254 1.234 . S
O277 Mn252 2.209 . S
O277 Mn253 2.215 . S
O277 C254 1.283 . S
O278 Mn252 2.094 . S
O278 C256 1.240 . S
O279 Mn253 2.117 . S
O279 C256 1.264 . S
C280 C273 1.403 . S
C280 C281 1.399 . S
C280 H286 0.929 . S
C281 C261 1.449 . S
C281 C280 1.399 . S
C281 H287 0.930 . S
H282 C262 0.931 . S
H283 C263 0.930 . S
H284 C271 0.931 . S
H285 C272 0.929 . S
H286 C280 0.929 . S
H287 C281 0.930 . S
Mn288 O293 2.095 . S
Mn288 O303 2.162 . S
Mn288 O304 2.297 . S
Mn288 O312 2.385 . S
Mn288 O313 2.209 . S
Mn288 O314 2.094 . S
Mn289 O294 2.121 . S
Mn289 N296 2.257 . S
Mn289 N305 2.282 . S
Mn289 O313 2.215 . S
Mn289 O315 2.117 . S
C290 O312 1.234 . S
C290 O313 1.283 . S
C291 O303 1.281 . S
C291 O304 1.236 . S
C292 O314 1.240 . S
C292 O315 1.264 . S
O293 Mn288 2.095 . S
O293 C302 1.250 . S
O294 Mn289 2.121 . S
O294 C302 1.258 . S
C295 N296 1.326 . S
C295 C299 1.460 . S
C295 H301 0.929 . S
N296 Mn289 2.257 . S
N296 C295 1.326 . S
N296 C300 1.362 . S
C297 C298 1.258 . S
C297 C300 1.431 . S
C297 C317 1.449 . S
C298 C297 1.258 . S
C298 C299 1.477 . S
C298 H318 0.931 . S
C299 C295 1.460 . S
C299 C298 1.477 . S
C299 H319 0.930 . S
C300 N296 1.362 . S
C300 C297 1.431 . S
C300 C310 1.476 . S
H301 C295 0.929 . S
C302 O293 1.250 . S
C302 O294 1.258 . S
O303 Mn288 2.162 . S
O303 C291 1.281 . S
O304 Mn288 2.297 . S
O304 C291 1.236 . S
N305 Mn289 2.282 . S
N305 C306 1.328 . S
N305 C310 1.318 . S
C306 N305 1.328 . S
C306 C307 1.457 . S
C306 H311 0.929 . S
C307 C306 1.457 . S
C307 C308 1.291 . S
C307 H320 0.931 . S
C308 C307 1.291 . S
C308 C309 1.373 . S
C308 H321 0.929 . S
C309 C308 1.373 . S
C309 C310 1.396 . S
C309 C316 1.403 . S
C310 C300 1.476 . S
C310 N305 1.318 . S
C310 C309 1.396 . S
H311 C306 0.929 . S
O312 Mn288 2.385 . S
O312 C290 1.234 . S
O313 Mn288 2.209 . S
O313 Mn289 2.215 . S
O313 C290 1.283 . S
O314 Mn288 2.094 . S
O314 C292 1.240 . S
O315 Mn289 2.117 . S
O315 C292 1.264 . S
C316 C309 1.403 . S
C316 C317 1.399 . S
C316 H322 0.929 . S
C317 C297 1.449 . S
C317 C316 1.399 . S
C317 H323 0.930 . S
H318 C298 0.931 . S
H319 C299 0.930 . S
H320 C307 0.931 . S
H321 C308 0.929 . S
H322 C316 0.929 . S
H323 C317 0.930 . S
Mn324 O329 2.095 . S
Mn324 O339 2.162 . S
Mn324 O340 2.297 . S
Mn324 O348 2.385 . S
Mn324 O349 2.209 . S
Mn324 O350 2.094 . S
Mn325 O330 2.121 . S
Mn325 N332 2.257 . S
Mn325 N341 2.282 . S
Mn325 O349 2.215 . S
Mn325 O351 2.117 . S
C326 O348 1.234 . S
C326 O349 1.283 . S
C327 O339 1.281 . S
C327 O340 1.236 . S
C328 O350 1.240 . S
C328 O351 1.264 . S
O329 Mn324 2.095 . S
O329 C338 1.250 . S
O330 Mn325 2.121 . S
O330 C338 1.258 . S
C331 N332 1.326 . S
C331 C335 1.460 . S
C331 H337 0.929 . S
N332 Mn325 2.257 . S
N332 C331 1.326 . S
N332 C336 1.362 . S
C333 C334 1.258 . S
C333 C336 1.431 . S
C333 C353 1.449 . S
C334 C333 1.258 . S
C334 C335 1.477 . S
C334 H354 0.931 . S
C335 C331 1.460 . S
C335 C334 1.477 . S
C335 H355 0.930 . S
C336 N332 1.362 . S
C336 C333 1.431 . S
C336 C346 1.476 . S
H337 C331 0.929 . S
C338 O329 1.250 . S
C338 O330 1.258 . S
O339 Mn324 2.162 . S
O339 C327 1.281 . S
O340 Mn324 2.297 . S
O340 C327 1.236 . S
N341 Mn325 2.282 . S
N341 C342 1.328 . S
N341 C346 1.318 . S
C342 N341 1.328 . S
C342 C343 1.457 . S
C342 H347 0.929 . S
C343 C342 1.457 . S
C343 C344 1.291 . S
C343 H356 0.931 . S
C344 C343 1.291 . S
C344 C345 1.373 . S
C344 H357 0.929 . S
C345 C344 1.373 . S
C345 C346 1.396 . S
C345 C352 1.403 . S
C346 C336 1.476 . S
C346 N341 1.318 . S
C346 C345 1.396 . S
H347 C342 0.929 . S
O348 Mn324 2.385 . S
O348 C326 1.234 . S
O349 Mn324 2.209 . S
O349 Mn325 2.215 . S
O349 C326 1.283 . S
O350 Mn324 2.094 . S
O350 C328 1.240 . S
O351 Mn325 2.117 . S
O351 C328 1.264 . S
C352 C345 1.403 . S
C352 C353 1.399 . S
C352 H358 0.929 . S
C353 C333 1.449 . S
C353 C352 1.399 . S
C353 H359 0.930 . S
H354 C334 0.931 . S
H355 C335 0.930 . S
H356 C343 0.931 . S
H357 C344 0.929 . S
H358 C352 0.929 . S
H359 C353 0.930 . S
Mn360 O365 2.095 . S
Mn360 O375 2.162 . S
Mn360 O376 2.297 . S
Mn360 O384 2.385 . S
Mn360 O385 2.209 . S
Mn360 O386 2.094 . S
Mn361 O366 2.121 . S
Mn361 N368 2.257 . S
Mn361 N377 2.282 . S
Mn361 O385 2.215 . S
Mn361 O387 2.117 . S
C362 O384 1.234 . S
C362 O385 1.283 . S
C363 O375 1.281 . S
C363 O376 1.236 . S
C364 O386 1.240 . S
C364 O387 1.264 . S
O365 Mn360 2.095 . S
O365 C374 1.250 . S
O366 Mn361 2.121 . S
O366 C374 1.258 . S
C367 N368 1.326 . S
C367 C371 1.460 . S
C367 H373 0.929 . S
N368 Mn361 2.257 . S
N368 C367 1.326 . S
N368 C372 1.362 . S
C369 C370 1.258 . S
C369 C372 1.431 . S
C369 C389 1.449 . S
C370 C369 1.258 . S
C370 C371 1.477 . S
C370 H390 0.931 . S
C371 C367 1.460 . S
C371 C370 1.477 . S
C371 H391 0.930 . S
C372 N368 1.362 . S
C372 C369 1.431 . S
C372 C382 1.476 . S
H373 C367 0.929 . S
C374 O365 1.250 . S
C374 O366 1.258 . S
O375 Mn360 2.162 . S
O375 C363 1.281 . S
O376 Mn360 2.297 . S
O376 C363 1.236 . S
N377 Mn361 2.282 . S
N377 C378 1.328 . S
N377 C382 1.318 . S
C378 N377 1.328 . S
C378 C379 1.457 . S
C378 H383 0.929 . S
C379 C378 1.457 . S
C379 C380 1.291 . S
C379 H392 0.931 . S
C380 C379 1.291 . S
C380 C381 1.373 . S
C380 H393 0.929 . S
C381 C380 1.373 . S
C381 C382 1.396 . S
C381 C388 1.403 . S
C382 C372 1.476 . S
C382 N377 1.318 . S
C382 C381 1.396 . S
H383 C378 0.929 . S
O384 Mn360 2.385 . S
O384 C362 1.234 . S
O385 Mn360 2.209 . S
O385 Mn361 2.215 . S
O385 C362 1.283 . S
O386 Mn360 2.094 . S
O386 C364 1.240 . S
O387 Mn361 2.117 . S
O387 C364 1.264 . S
C388 C381 1.403 . S
C388 C389 1.399 . S
C388 H394 0.929 . S
C389 C369 1.449 . S
C389 C388 1.399 . S
C389 H395 0.930 . S
H390 C370 0.931 . S
H391 C371 0.930 . S
H392 C379 0.931 . S
H393 C380 0.929 . S
H394 C388 0.929 . S
H395 C389 0.930 . S
Mn396 O401 2.095 . S
Mn396 O411 2.162 . S
Mn396 O412 2.297 . S
Mn396 O420 2.385 . S
Mn396 O421 2.209 . S
Mn396 O422 2.094 . S
Mn397 O402 2.121 . S
Mn397 N404 2.257 . S
Mn397 N413 2.282 . S
Mn397 O421 2.215 . S
Mn397 O423 2.117 . S
C398 O420 1.234 . S
C398 O421 1.283 . S
C399 O411 1.281 . S
C399 O412 1.236 . S
C400 O422 1.240 . S
C400 O423 1.264 . S
O401 Mn396 2.095 . S
O401 C410 1.250 . S
O402 Mn397 2.121 . S
O402 C410 1.258 . S
C403 N404 1.326 . S
C403 C407 1.460 . S
C403 H409 0.929 . S
N404 Mn397 2.257 . S
N404 C403 1.326 . S
N404 C408 1.362 . S
C405 C406 1.258 . S
C405 C408 1.431 . S
C405 C425 1.449 . S
C406 C405 1.258 . S
C406 C407 1.477 . S
C406 H426 0.931 . S
C407 C403 1.460 . S
C407 C406 1.477 . S
C407 H427 0.930 . S
C408 N404 1.362 . S
C408 C405 1.431 . S
C408 C418 1.476 . S
H409 C403 0.929 . S
C410 O401 1.250 . S
C410 O402 1.258 . S
O411 Mn396 2.162 . S
O411 C399 1.281 . S
O412 Mn396 2.297 . S
O412 C399 1.236 . S
N413 Mn397 2.282 . S
N413 C414 1.328 . S
N413 C418 1.318 . S
C414 N413 1.328 . S
C414 C415 1.457 . S
C414 H419 0.929 . S
C415 C414 1.457 . S
C415 C416 1.291 . S
C415 H428 0.931 . S
C416 C415 1.291 . S
C416 C417 1.373 . S
C416 H429 0.929 . S
C417 C416 1.373 . S
C417 C418 1.396 . S
C417 C424 1.403 . S
C418 C408 1.476 . S
C418 N413 1.318 . S
C418 C417 1.396 . S
H419 C414 0.929 . S
O420 Mn396 2.385 . S
O420 C398 1.234 . S
O421 Mn396 2.209 . S
O421 Mn397 2.215 . S
O421 C398 1.283 . S
O422 Mn396 2.094 . S
O422 C400 1.240 . S
O423 Mn397 2.117 . S
O423 C400 1.264 . S
C424 C417 1.403 . S
C424 C425 1.399 . S
C424 H430 0.929 . S
C425 C405 1.449 . S
C425 C424 1.399 . S
C425 H431 0.930 . S
H426 C406 0.931 . S
H427 C407 0.930 . S
H428 C415 0.931 . S
H429 C416 0.929 . S
H430 C424 0.929 . S
H431 C425 0.930 . S
Mn432 O437 2.095 . S
Mn432 O447 2.162 . S
Mn432 O448 2.297 . S
Mn432 O456 2.385 . S
Mn432 O457 2.209 . S
Mn432 O458 2.094 . S
Mn433 O438 2.121 . S
Mn433 N440 2.257 . S
Mn433 N449 2.282 . S
Mn433 O457 2.215 . S
Mn433 O459 2.117 . S
C434 O456 1.234 . S
C434 O457 1.283 . S
C435 O447 1.281 . S
C435 O448 1.236 . S
C436 O458 1.240 . S
C436 O459 1.264 . S
O437 Mn432 2.095 . S
O437 C446 1.250 . S
O438 Mn433 2.121 . S
O438 C446 1.258 . S
C439 N440 1.326 1_556 S
C439 C443 1.460 . S
C439 H445 0.929 . S
N440 Mn433 2.257 . S
N440 C439 1.326 1_554 S
N440 C444 1.362 1_554 S
C441 C442 1.258 . S
C441 C444 1.434 . S
C441 C461 1.449 . S
C442 C441 1.258 . S
C442 C443 1.477 . S
C442 H462 0.931 . S
C443 C439 1.460 . S
C443 C442 1.477 . S
C443 H463 0.930 . S
C444 N440 1.362 1_556 S
C444 C441 1.434 . S
C444 C454 1.474 1_556 S
H445 C439 0.929 . S
C446 O437 1.250 . S
C446 O438 1.258 . S
O447 Mn432 2.162 . S
O447 C435 1.281 . S
O448 Mn432 2.297 . S
O448 C435 1.236 . S
N449 Mn433 2.282 . S
N449 C450 1.328 . S
N449 C454 1.318 . S
C450 N449 1.328 . S
C450 C451 1.457 . S
C450 H455 0.929 . S
C451 C450 1.457 . S
C451 C452 1.291 . S
C451 H464 0.931 . S
C452 C451 1.291 . S
C452 C453 1.373 . S
C452 H465 0.929 . S
C453 C452 1.373 . S
C453 C454 1.396 . S
C453 C460 1.403 1_554 S
C454 C444 1.474 1_554 S
C454 N449 1.318 . S
C454 C453 1.396 . S
H455 C450 0.929 . S
O456 Mn432 2.385 . S
O456 C434 1.234 . S
O457 Mn432 2.209 . S
O457 Mn433 2.215 . S
O457 C434 1.283 . S
O458 Mn432 2.094 . S
O458 C436 1.240 . S
O459 Mn433 2.117 . S
O459 C436 1.264 . S
C460 C453 1.403 1_556 S
C460 C461 1.399 . S
C460 H466 0.929 . S
C461 C441 1.449 . S
C461 C460 1.399 . S
C461 H467 0.930 . S
H462 C442 0.931 . S
H463 C443 0.930 . S
H464 C451 0.931 . S
H465 C452 0.929 . S
H466 C460 0.929 . S
H467 C461 0.930 . S
Mn468 O473 2.095 . S
Mn468 O483 2.162 . S
Mn468 O484 2.297 . S
Mn468 O492 2.385 . S
Mn468 O493 2.209 . S
Mn468 O494 2.094 . S
Mn469 O474 2.121 . S
Mn469 N476 2.257 . S
Mn469 N485 2.282 . S
Mn469 O493 2.215 . S
Mn469 O495 2.117 . S
C470 O492 1.234 . S
C470 O493 1.283 . S
C471 O483 1.281 . S
C471 O484 1.236 . S
C472 O494 1.240 . S
C472 O495 1.264 . S
O473 Mn468 2.095 . S
O473 C482 1.250 . S
O474 Mn469 2.121 . S
O474 C482 1.258 . S
C475 N476 1.326 . S
C475 C479 1.460 . S
C475 H481 0.929 . S
N476 Mn469 2.257 . S
N476 C475 1.326 . S
N476 C480 1.362 . S
C477 C478 1.258 . S
C477 C480 1.431 . S
C477 C497 1.449 . S
C478 C477 1.258 . S
C478 C479 1.477 . S
C478 H498 0.931 . S
C479 C475 1.460 . S
C479 C478 1.477 . S
C479 H499 0.930 . S
C480 N476 1.362 . S
C480 C477 1.431 . S
C480 C490 1.476 . S
H481 C475 0.929 . S
C482 O473 1.250 . S
C482 O474 1.258 . S
O483 Mn468 2.162 . S
O483 C471 1.281 . S
O484 Mn468 2.297 . S
O484 C471 1.236 . S
N485 Mn469 2.282 . S
N485 C486 1.328 . S
N485 C490 1.318 . S
C486 N485 1.328 . S
C486 C487 1.457 . S
C486 H491 0.929 . S
C487 C486 1.457 . S
C487 C488 1.291 . S
C487 H500 0.931 . S
C488 C487 1.291 . S
C488 C489 1.373 . S
C488 H501 0.929 . S
C489 C488 1.373 . S
C489 C490 1.396 . S
C489 C496 1.403 . S
C490 C480 1.476 . S
C490 N485 1.318 . S
C490 C489 1.396 . S
H491 C486 0.929 . S
O492 Mn468 2.385 . S
O492 C470 1.234 . S
O493 Mn468 2.209 . S
O493 Mn469 2.215 . S
O493 C470 1.283 . S
O494 Mn468 2.094 . S
O494 C472 1.240 . S
O495 Mn469 2.117 . S
O495 C472 1.264 . S
C496 C489 1.403 . S
C496 C497 1.399 . S
C496 H502 0.929 . S
C497 C477 1.449 . S
C497 C496 1.399 . S
C497 H503 0.930 . S
H498 C478 0.931 . S
H499 C479 0.930 . S
H500 C487 0.931 . S
H501 C488 0.929 . S
H502 C496 0.929 . S
H503 C497 0.930 . S
Mn504 O509 2.095 . S
Mn504 O519 2.162 . S
Mn504 O520 2.297 . S
Mn504 O528 2.385 . S
Mn504 O529 2.209 . S
Mn504 O530 2.094 . S
Mn505 O510 2.121 . S
Mn505 N512 2.257 . S
Mn505 N521 2.282 . S
Mn505 O529 2.215 . S
Mn505 O531 2.117 . S
C506 O528 1.234 . S
C506 O529 1.283 . S
C507 O519 1.281 . S
C507 O520 1.236 . S
C508 O530 1.240 . S
C508 O531 1.264 . S
O509 Mn504 2.095 . S
O509 C518 1.250 . S
O510 Mn505 2.121 . S
O510 C518 1.258 . S
C511 N512 1.326 . S
C511 C515 1.460 . S
C511 H517 0.929 . S
N512 Mn505 2.257 . S
N512 C511 1.326 . S
N512 C516 1.362 . S
C513 C514 1.258 . S
C513 C516 1.431 . S
C513 C533 1.449 . S
C514 C513 1.258 . S
C514 C515 1.477 . S
C514 H534 0.931 . S
C515 C511 1.460 . S
C515 C514 1.477 . S
C515 H535 0.930 . S
C516 N512 1.362 . S
C516 C513 1.431 . S
C516 C526 1.476 . S
H517 C511 0.929 . S
C518 O509 1.250 . S
C518 O510 1.258 . S
O519 Mn504 2.162 . S
O519 C507 1.281 . S
O520 Mn504 2.297 . S
O520 C507 1.236 . S
N521 Mn505 2.282 . S
N521 C522 1.328 . S
N521 C526 1.318 . S
C522 N521 1.328 . S
C522 C523 1.457 . S
C522 H527 0.929 . S
C523 C522 1.457 . S
C523 C524 1.291 . S
C523 H536 0.931 . S
C524 C523 1.291 . S
C524 C525 1.373 . S
C524 H537 0.929 . S
C525 C524 1.373 . S
C525 C526 1.396 . S
C525 C532 1.403 . S
C526 C516 1.476 . S
C526 N521 1.318 . S
C526 C525 1.396 . S
H527 C522 0.929 . S
O528 Mn504 2.385 . S
O528 C506 1.234 . S
O529 Mn504 2.209 . S
O529 Mn505 2.215 . S
O529 C506 1.283 . S
O530 Mn504 2.094 . S
O530 C508 1.240 . S
O531 Mn505 2.117 . S
O531 C508 1.264 . S
C532 C525 1.403 . S
C532 C533 1.399 . S
C532 H538 0.929 . S
C533 C513 1.449 . S
C533 C532 1.399 . S
C533 H539 0.930 . S
H534 C514 0.931 . S
H535 C515 0.930 . S
H536 C523 0.931 . S
H537 C524 0.929 . S
H538 C532 0.929 . S
H539 C533 0.930 . S
Mn540 O545 2.095 . S
Mn540 O555 2.162 . S
Mn540 O556 2.297 . S
Mn540 O564 2.385 . S
Mn540 O565 2.209 . S
Mn540 O566 2.094 . S
Mn541 O546 2.121 . S
Mn541 N548 2.257 . S
Mn541 N557 2.282 . S
Mn541 O565 2.215 . S
Mn541 O567 2.117 . S
C542 O564 1.234 . S
C542 O565 1.283 . S
C543 O555 1.281 . S
C543 O556 1.236 . S
C544 O566 1.240 . S
C544 O567 1.264 . S
O545 Mn540 2.095 . S
O545 C554 1.250 . S
O546 Mn541 2.121 . S
O546 C554 1.258 . S
C547 N548 1.326 . S
C547 C551 1.460 . S
C547 H553 0.929 . S
N548 Mn541 2.257 . S
N548 C547 1.326 . S
N548 C552 1.362 . S
C549 C550 1.258 . S
C549 C552 1.431 . S
C549 C569 1.449 . S
C550 C549 1.258 . S
C550 C551 1.477 . S
C550 H570 0.931 . S
C551 C547 1.460 . S
C551 C550 1.477 . S
C551 H571 0.930 . S
C552 N548 1.362 . S
C552 C549 1.431 . S
C552 C562 1.476 . S
H553 C547 0.929 . S
C554 O545 1.250 . S
C554 O546 1.258 . S
O555 Mn540 2.162 . S
O555 C543 1.281 . S
O556 Mn540 2.297 . S
O556 C543 1.236 . S
N557 Mn541 2.282 . S
N557 C558 1.328 . S
N557 C562 1.318 . S
C558 N557 1.328 . S
C558 C559 1.457 . S
C558 H563 0.929 . S
C559 C558 1.457 . S
C559 C560 1.291 . S
C559 H572 0.931 . S
C560 C559 1.291 . S
C560 C561 1.373 . S
C560 H573 0.929 . S
C561 C560 1.373 . S
C561 C562 1.396 . S
C561 C568 1.403 . S
C562 C552 1.476 . S
C562 N557 1.318 . S
C562 C561 1.396 . S
H563 C558 0.929 . S
O564 Mn540 2.385 . S
O564 C542 1.234 . S
O565 Mn540 2.209 . S
O565 Mn541 2.215 . S
O565 C542 1.283 . S
O566 Mn540 2.094 . S
O566 C544 1.240 . S
O567 Mn541 2.117 . S
O567 C544 1.264 . S
C568 C561 1.403 . S
C568 C569 1.399 . S
C568 H574 0.929 . S
C569 C549 1.449 . S
C569 C568 1.399 . S
C569 H575 0.930 . S
H570 C550 0.931 . S
H571 C551 0.930 . S
H572 C559 0.931 . S
H573 C560 0.929 . S
H574 C568 0.929 . S
H575 C569 0.930 . S
H576 C588 0.930 . S
H577 C590 0.930 . S
H578 C591 0.930 . S
H579 C595 0.959 . S
H580 C595 0.959 . S
H581 C595 0.961 . S
H582 C596 0.960 . S
H583 C596 0.961 . S
H584 C596 0.959 . S
H585 C599 0.929 . S
H586 C600 0.931 . S
H587 C602 0.930 . S
C588 H576 0.930 . S
C588 C589 1.399 . S
C588 C593 1.399 . S
C589 C588 1.399 . S
C589 C590 1.376 . S
C590 H577 0.930 . S
C590 C589 1.376 . S
C590 C591 1.388 . S
C591 H578 0.930 . S
C591 C590 1.388 . S
C591 C592 1.390 . S
C592 C591 1.390 . S
C592 C593 1.394 . S
C592 C598 1.465 . S
C593 C588 1.399 . S
C593 C592 1.394 . S
C593 C594 1.516 . S
C594 C593 1.516 . S
C594 C595 1.502 . S
C594 C596 1.561 . S
C594 C597 1.526 . S
C595 H579 0.959 . S
C595 H580 0.959 . S
C595 H581 0.961 . S
C595 C594 1.502 . S
C596 H582 0.960 . S
C596 H583 0.961 . S
C596 H584 0.959 . S
C596 C594 1.561 . S
C597 C594 1.526 . S
C597 C598 1.396 . S
C597 C602 1.390 . S
C598 C592 1.465 . S
C598 C597 1.396 . S
C598 C599 1.399 . S
C599 H585 0.929 . S
C599 C598 1.399 . S
C599 C600 1.385 . S
C600 H586 0.931 . S
C600 C599 1.385 . S
C600 C601 1.389 . S
C601 C600 1.389 . S
C601 C602 1.387 . S
C602 H587 0.930 . S
C602 C597 1.390 . S
C602 C601 1.387 . S
H603 C615 0.930 . S
H604 C617 0.930 . S
H605 C618 0.930 . S
H606 C622 0.959 . S
H607 C622 0.959 . S
H608 C622 0.961 . S
H609 C623 0.960 . S
H610 C623 0.961 . S
H611 C623 0.959 . S
H612 C626 0.929 . S
H613 C627 0.931 . S
H614 C629 0.930 . S
C615 H603 0.930 . S
C615 C616 1.399 . S
C615 C620 1.399 . S
C616 C615 1.399 . S
C616 C617 1.376 . S
C617 H604 0.930 . S
C617 C616 1.376 . S
C617 C618 1.388 . S
C618 H605 0.930 . S
C618 C617 1.388 . S
C618 C619 1.390 . S
C619 C618 1.390 . S
C619 C620 1.394 . S
C619 C625 1.465 . S
C620 C615 1.399 . S
C620 C619 1.394 . S
C620 C621 1.516 . S
C621 C620 1.516 . S
C621 C622 1.502 . S
C621 C623 1.561 . S
C621 C624 1.526 . S
C622 H606 0.959 . S
C622 H607 0.959 . S
C622 H608 0.961 . S
C622 C621 1.502 . S
C623 H609 0.960 . S
C623 H610 0.961 . S
C623 H611 0.959 . S
C623 C621 1.561 . S
C624 C621 1.526 . S
C624 C625 1.396 . S
C624 C629 1.390 . S
C625 C619 1.465 . S
C625 C624 1.396 . S
C625 C626 1.399 . S
C626 H612 0.929 . S
C626 C625 1.399 . S
C626 C627 1.385 . S
C627 H613 0.931 . S
C627 C626 1.385 . S
C627 C628 1.389 . S
C628 C627 1.389 . S
C628 C629 1.387 . S
C629 H614 0.930 . S
C629 C624 1.390 . S
C629 C628 1.387 . S
H630 C642 0.930 . S
H631 C644 0.930 . S
H632 C645 0.930 . S
H633 C649 0.959 . S
H634 C649 0.959 . S
H635 C649 0.961 . S
H636 C650 0.960 . S
H637 C650 0.961 . S
H638 C650 0.959 . S
H639 C653 0.929 . S
H640 C654 0.931 . S
H641 C656 0.930 . S
C642 H630 0.930 . S
C642 C643 1.399 . S
C642 C647 1.399 . S
C643 C642 1.399 . S
C643 C644 1.376 . S
C644 H631 0.930 . S
C644 C643 1.376 . S
C644 C645 1.388 . S
C645 H632 0.930 . S
C645 C644 1.388 . S
C645 C646 1.390 . S
C646 C645 1.390 . S
C646 C647 1.394 . S
C646 C652 1.465 . S
C647 C642 1.399 . S
C647 C646 1.394 . S
C647 C648 1.516 . S
C648 C647 1.516 . S
C648 C649 1.502 . S
C648 C650 1.561 . S
C648 C651 1.526 . S
C649 H633 0.959 . S
C649 H634 0.959 . S
C649 H635 0.961 . S
C649 C648 1.502 . S
C650 H636 0.960 . S
C650 H637 0.961 . S
C650 H638 0.959 . S
C650 C648 1.561 . S
C651 C648 1.526 . S
C651 C652 1.396 . S
C651 C656 1.390 . S
C652 C646 1.465 . S
C652 C651 1.396 . S
C652 C653 1.399 . S
C653 H639 0.929 . S
C653 C652 1.399 . S
C653 C654 1.385 . S
C654 H640 0.931 . S
C654 C653 1.385 . S
C654 C655 1.389 . S
C655 C654 1.389 . S
C655 C656 1.387 . S
C656 H641 0.930 . S
C656 C651 1.390 . S
C656 C655 1.387 . S
H657 C669 0.930 . S
H658 C671 0.930 . S
H659 C672 0.930 . S
H660 C676 0.957 1_655 S
H661 C676 0.941 1_655 S
H662 C676 0.982 . S
H663 C677 0.948 1_455 S
H664 C677 0.972 . S
H665 C677 0.961 . S
H666 C680 0.929 . S
H667 C681 0.931 . S
H668 C683 0.930 . S
C669 H657 0.930 . S
C669 C670 1.399 . S
C669 C674 1.399 . S
C670 C669 1.399 . S
C670 C671 1.376 . S
C671 H658 0.930 . S
C671 C670 1.376 . S
C671 C672 1.388 . S
C672 H659 0.930 . S
C672 C671 1.388 . S
C672 C673 1.390 . S
C673 C672 1.390 . S
C673 C674 1.394 . S
C673 C679 1.465 1_455 S
C674 C669 1.399 . S
C674 C673 1.394 . S
C674 C675 1.517 1_455 S
C675 C674 1.517 1_655 S
C675 C676 1.501 1_655 S
C675 C677 1.561 . S
C675 C678 1.525 . S
C676 H660 0.957 1_455 S
C676 H661 0.941 1_455 S
C676 H662 0.982 . S
C676 C675 1.501 1_455 S
C677 H663 0.948 1_655 S
C677 H664 0.972 . S
C677 H665 0.961 . S
C677 C675 1.561 . S
C678 C675 1.525 . S
C678 C679 1.396 . S
C678 C683 1.390 . S
C679 C673 1.465 1_655 S
C679 C678 1.396 . S
C679 C680 1.399 . S
C680 H666 0.929 . S
C680 C679 1.399 . S
C680 C681 1.385 . S
C681 H667 0.931 . S
C681 C680 1.385 . S
C681 C682 1.389 . S
C682 C681 1.389 . S
C682 C683 1.387 . S
C683 H668 0.930 . S
C683 C678 1.390 . S
C683 C682 1.387 . S
H684 C696 0.930 . S
H685 C698 0.930 . S
H686 C699 0.930 . S
H687 C703 0.959 . S
H688 C703 0.959 . S
H689 C703 0.961 . S
H690 C704 0.960 . S
H691 C704 0.961 . S
H692 C704 0.959 . S
H693 C707 0.929 . S
H694 C708 0.931 . S
H695 C710 0.930 . S
C696 H684 0.930 . S
C696 C697 1.399 . S
C696 C701 1.399 . S
C697 C696 1.399 . S
C697 C698 1.376 . S
C698 H685 0.930 . S
C698 C697 1.376 . S
C698 C699 1.388 . S
C699 H686 0.930 . S
C699 C698 1.388 . S
C699 C700 1.390 . S
C700 C699 1.390 . S
C700 C701 1.394 . S
C700 C706 1.465 . S
C701 C696 1.399 . S
C701 C700 1.394 . S
C701 C702 1.516 . S
C702 C701 1.516 . S
C702 C703 1.502 . S
C702 C704 1.561 . S
C702 C705 1.526 . S
C703 H687 0.959 . S
C703 H688 0.959 . S
C703 H689 0.961 . S
C703 C702 1.502 . S
C704 H690 0.960 . S
C704 H691 0.961 . S
C704 H692 0.959 . S
C704 C702 1.561 . S
C705 C702 1.526 . S
C705 C706 1.396 . S
C705 C710 1.390 . S
C706 C700 1.465 . S
C706 C705 1.396 . S
C706 C707 1.399 . S
C707 H693 0.929 . S
C707 C706 1.399 . S
C707 C708 1.385 . S
C708 H694 0.931 . S
C708 C707 1.385 . S
C708 C709 1.389 . S
C709 C708 1.389 . S
C709 C710 1.387 . S
C710 H695 0.930 . S
C710 C705 1.390 . S
C710 C709 1.387 . S
H711 C723 0.930 . S
H712 C725 0.930 . S
H713 C726 0.930 . S
H714 C730 0.959 . S
H715 C730 0.959 1_455 S
H716 C730 0.961 . S
H717 C731 0.960 . S
H718 C731 0.961 1_455 S
H719 C731 0.962 . S
H720 C734 0.929 . S
H721 C735 0.931 . S
H722 C737 0.930 . S
C723 H711 0.930 . S
C723 C724 1.399 . S
C723 C728 1.399 . S
C724 C723 1.399 . S
C724 C725 1.376 . S
C725 H712 0.930 . S
C725 C724 1.376 . S
C725 C726 1.388 . S
C726 H713 0.930 . S
C726 C725 1.388 . S
C726 C727 1.390 . S
C727 C726 1.390 . S
C727 C728 1.394 . S
C727 C733 1.465 1_655 S
C728 C723 1.399 . S
C728 C727 1.394 . S
C728 C729 1.516 . S
C729 C728 1.516 . S
C729 C730 1.502 . S
C729 C731 1.561 . S
C729 C732 1.526 1_655 S
C730 H714 0.959 . S
C730 H715 0.959 1_655 S
C730 H716 0.961 . S
C730 C729 1.502 . S
C731 H717 0.960 . S
C731 H718 0.961 1_655 S
C731 H719 0.962 . S
C731 C729 1.561 . S
C732 C729 1.526 1_455 S
C732 C733 1.396 . S
C732 C737 1.390 . S
C733 C727 1.465 1_455 S
C733 C732 1.396 . S
C733 C734 1.399 . S
C734 H720 0.929 . S
C734 C733 1.399 . S
C734 C735 1.385 . S
C735 H721 0.931 . S
C735 C734 1.385 . S
C735 C736 1.389 . S
C736 C735 1.389 . S
C736 C737 1.387 . S
C737 H722 0.930 . S
C737 C732 1.390 . S
C737 C736 1.387 . S
H738 C750 0.930 . S
H739 C752 0.930 . S
H740 C753 0.930 . S
H741 C757 0.959 . S
H742 C757 0.959 . S
H743 C757 0.961 . S
H744 C758 0.960 . S
H745 C758 0.961 . S
H746 C758 0.959 . S
H747 C761 0.929 . S
H748 C762 0.931 . S
H749 C764 0.930 . S
C750 H738 0.930 . S
C750 C751 1.399 . S
C750 C755 1.399 . S
C751 C750 1.399 . S
C751 C752 1.376 . S
C752 H739 0.930 . S
C752 C751 1.376 . S
C752 C753 1.388 . S
C753 H740 0.930 . S
C753 C752 1.388 . S
C753 C754 1.390 . S
C754 C753 1.390 . S
C754 C755 1.394 . S
C754 C760 1.465 . S
C755 C750 1.399 . S
C755 C754 1.394 . S
C755 C756 1.516 . S
C756 C755 1.516 . S
C756 C757 1.502 . S
C756 C758 1.561 . S
C756 C759 1.526 . S
C757 H741 0.959 . S
C757 H742 0.959 . S
C757 H743 0.961 . S
C757 C756 1.502 . S
C758 H744 0.960 . S
C758 H745 0.961 . S
C758 H746 0.959 . S
C758 C756 1.561 . S
C759 C756 1.526 . S
C759 C760 1.396 . S
C759 C764 1.390 . S
C760 C754 1.465 . S
C760 C759 1.396 . S
C760 C761 1.399 . S
C761 H747 0.929 . S
C761 C760 1.399 . S
C761 C762 1.385 . S
C762 H748 0.931 . S
C762 C761 1.385 . S
C762 C763 1.389 . S
C763 C762 1.389 . S
C763 C764 1.387 . S
C764 H749 0.930 . S
C764 C759 1.390 . S
C764 C763 1.387 . S
H765 C777 0.930 . S
H766 C779 0.930 . S
H767 C780 0.930 . S
H768 C784 0.959 . S
H769 C784 0.959 . S
H770 C784 0.961 . S
H771 C785 0.960 . S
H772 C785 0.961 . S
H773 C785 0.959 . S
H774 C788 0.929 . S
H775 C789 0.931 . S
H776 C791 0.930 . S
C777 H765 0.930 . S
C777 C778 1.399 . S
C777 C782 1.399 . S
C778 C777 1.399 . S
C778 C779 1.376 . S
C779 H766 0.930 . S
C779 C778 1.376 . S
C779 C780 1.388 . S
C780 H767 0.930 . S
C780 C779 1.388 . S
C780 C781 1.390 . S
C781 C780 1.390 . S
C781 C782 1.394 . S
C781 C787 1.465 . S
C782 C777 1.399 . S
C782 C781 1.394 . S
C782 C783 1.516 . S
C783 C782 1.516 . S
C783 C784 1.502 . S
C783 C785 1.561 . S
C783 C786 1.526 . S
C784 H768 0.959 . S
C784 H769 0.959 . S
C784 H770 0.961 . S
C784 C783 1.502 . S
C785 H771 0.960 . S
C785 H772 0.961 . S
C785 H773 0.959 . S
C785 C783 1.561 . S
C786 C783 1.526 . S
C786 C787 1.396 . S
C786 C791 1.390 . S
C787 C781 1.465 . S
C787 C786 1.396 . S
C787 C788 1.399 . S
C788 H774 0.929 . S
C788 C787 1.399 . S
C788 C789 1.385 . S
C789 H775 0.931 . S
C789 C788 1.385 . S
C789 C790 1.389 . S
C790 C789 1.389 . S
C790 C791 1.387 . S
C791 H776 0.930 . S
C791 C786 1.390 . S
C791 C790 1.387 . S
H792 C804 0.930 . S
H793 C806 0.930 . S
H794 C807 0.930 . S
H795 C811 0.959 . S
H796 C811 0.959 . S
H797 C811 0.961 . S
H798 C812 0.960 . S
H799 C812 0.961 . S
H800 C812 0.959 . S
H801 C815 0.929 . S
H802 C816 0.931 . S
H803 C818 0.930 . S
C804 H792 0.930 . S
C804 C805 1.399 . S
C804 C809 1.399 . S
C805 C804 1.399 . S
C805 C806 1.376 . S
C806 H793 0.930 . S
C806 C805 1.376 . S
C806 C807 1.388 . S
C807 H794 0.930 . S
C807 C806 1.388 . S
C807 C808 1.390 . S
C808 C807 1.390 . S
C808 C809 1.394 . S
C808 C814 1.465 . S
C809 C804 1.399 . S
C809 C808 1.394 . S
C809 C810 1.516 . S
C810 C809 1.516 . S
C810 C811 1.502 . S
C810 C812 1.561 . S
C810 C813 1.526 . S
C811 H795 0.959 . S
C811 H796 0.959 . S
C811 H797 0.961 . S
C811 C810 1.502 . S
C812 H798 0.960 . S
C812 H799 0.961 . S
C812 H800 0.959 . S
C812 C810 1.561 . S
C813 C810 1.526 . S
C813 C814 1.396 . S
C813 C818 1.390 . S
C814 C808 1.465 . S
C814 C813 1.396 . S
C814 C815 1.399 . S
C815 H801 0.929 . S
C815 C814 1.399 . S
C815 C816 1.385 . S
C816 H802 0.931 . S
C816 C815 1.385 . S
C816 C817 1.389 . S
C817 C816 1.389 . S
C817 C818 1.387 . S
C818 H803 0.930 . S
C818 C813 1.390 . S
C818 C817 1.387 . S
H819 C831 0.930 . S
H820 C833 0.930 . S
H821 C834 0.930 . S
H822 C838 0.959 . S
H823 C838 0.959 . S
H824 C838 0.961 . S
H825 C839 0.960 . S
H826 C839 0.961 . S
H827 C839 0.959 . S
H828 C842 0.929 . S
H829 C843 0.931 . S
H830 C845 0.930 . S
C831 H819 0.930 . S
C831 C832 1.399 . S
C831 C836 1.399 . S
C832 C831 1.399 . S
C832 C833 1.376 . S
C833 H820 0.930 . S
C833 C832 1.376 . S
C833 C834 1.388 . S
C834 H821 0.930 . S
C834 C833 1.388 . S
C834 C835 1.390 . S
C835 C834 1.390 . S
C835 C836 1.394 . S
C835 C841 1.465 . S
C836 C831 1.399 . S
C836 C835 1.394 . S
C836 C837 1.516 . S
C837 C836 1.516 . S
C837 C838 1.502 . S
C837 C839 1.561 . S
C837 C840 1.526 . S
C838 H822 0.959 . S
C838 H823 0.959 . S
C838 H824 0.961 . S
C838 C837 1.502 . S
C839 H825 0.960 . S
C839 H826 0.961 . S
C839 H827 0.959 . S
C839 C837 1.561 . S
C840 C837 1.526 . S
C840 C841 1.396 . S
C840 C845 1.390 . S
C841 C835 1.465 . S
C841 C840 1.396 . S
C841 C842 1.399 . S
C842 H828 0.929 . S
C842 C841 1.399 . S
C842 C843 1.385 . S
C843 H829 0.931 . S
C843 C842 1.385 . S
C843 C844 1.389 . S
C844 C843 1.389 . S
C844 C845 1.387 . S
C845 H830 0.930 . S
C845 C840 1.390 . S
C845 C844 1.387 . S
H846 C858 0.930 . S
H847 C860 0.930 . S
H848 C861 0.930 . S
H849 C865 0.959 . S
H850 C865 0.959 . S
H851 C865 0.961 . S
H852 C866 0.960 . S
H853 C866 0.961 . S
H854 C866 0.959 . S
H855 C869 0.929 . S
H856 C870 0.931 . S
H857 C872 0.930 . S
C858 H846 0.930 . S
C858 C859 1.399 . S
C858 C863 1.399 . S
C859 C858 1.399 . S
C859 C860 1.376 . S
C860 H847 0.930 . S
C860 C859 1.376 . S
C860 C861 1.388 . S
C861 H848 0.930 . S
C861 C860 1.388 . S
C861 C862 1.390 . S
C862 C861 1.390 . S
C862 C863 1.394 . S
C862 C868 1.465 . S
C863 C858 1.399 . S
C863 C862 1.394 . S
C863 C864 1.516 . S
C864 C863 1.516 . S
C864 C865 1.502 . S
C864 C866 1.561 . S
C864 C867 1.526 . S
C865 H849 0.959 . S
C865 H850 0.959 . S
C865 H851 0.961 . S
C865 C864 1.502 . S
C866 H852 0.960 . S
C866 H853 0.961 . S
C866 H854 0.959 . S
C866 C864 1.561 . S
C867 C864 1.526 . S
C867 C868 1.396 . S
C867 C872 1.390 . S
C868 C862 1.465 . S
C868 C867 1.396 . S
C868 C869 1.399 . S
C869 H855 0.929 . S
C869 C868 1.399 . S
C869 C870 1.385 . S
C870 H856 0.931 . S
C870 C869 1.385 . S
C870 C871 1.389 . S
C871 C870 1.389 . S
C871 C872 1.387 . S
C872 H857 0.930 . S
C872 C867 1.390 . S
C872 C871 1.387 . S
H873 C885 0.930 . S
H874 C887 0.930 . S
H875 C888 0.930 . S
H876 C892 0.959 . S
H877 C892 0.959 . S
H878 C892 0.961 . S
H879 C893 0.960 . S
H880 C893 0.961 . S
H881 C893 0.959 . S
H882 C896 0.929 . S
H883 C897 0.931 . S
H884 C899 0.930 . S
C885 H873 0.930 . S
C885 C886 1.399 . S
C885 C890 1.399 . S
C886 C885 1.399 . S
C886 C887 1.376 . S
C887 H874 0.930 . S
C887 C886 1.376 . S
C887 C888 1.388 . S
C888 H875 0.930 . S
C888 C887 1.388 . S
C888 C889 1.390 . S
C889 C888 1.390 . S
C889 C890 1.394 . S
C889 C895 1.465 . S
C890 C885 1.399 . S
C890 C889 1.394 . S
C890 C891 1.516 . S
C891 C890 1.516 . S
C891 C892 1.502 . S
C891 C893 1.561 . S
C891 C894 1.526 . S
C892 H876 0.959 . S
C892 H877 0.959 . S
C892 H878 0.961 . S
C892 C891 1.502 . S
C893 H879 0.960 . S
C893 H880 0.961 . S
C893 H881 0.959 . S
C893 C891 1.561 . S
C894 C891 1.526 . S
C894 C895 1.396 . S
C894 C899 1.390 . S
C895 C889 1.465 . S
C895 C894 1.396 . S
C895 C896 1.399 . S
C896 H882 0.929 . S
C896 C895 1.399 . S
C896 C897 1.385 . S
C897 H883 0.931 . S
C897 C896 1.385 . S
C897 C898 1.389 . S
C898 C897 1.389 . S
C898 C899 1.387 . S
C899 H884 0.930 . S
C899 C894 1.390 . S
C899 C898 1.387 . S
H900 C912 0.930 . S
H901 C914 0.930 . S
H902 C915 0.930 . S
H903 C919 0.959 . S
H904 C919 0.959 . S
H905 C919 0.961 1_455 S
H906 C920 0.960 1_455 S
H907 C920 0.961 . S
H908 C920 0.959 . S
H909 C923 0.929 . S
H910 C924 0.931 . S
H911 C926 0.930 . S
C912 H900 0.930 . S
C912 C913 1.399 . S
C912 C917 1.399 . S
C913 C912 1.399 . S
C913 C914 1.376 . S
C914 H901 0.930 . S
C914 C913 1.376 . S
C914 C915 1.388 . S
C915 H902 0.930 . S
C915 C914 1.388 . S
C915 C916 1.390 . S
C916 C915 1.390 . S
C916 C917 1.394 . S
C916 C922 1.465 1_455 S
C917 C912 1.399 . S
C917 C916 1.394 . S
C917 C918 1.516 1_455 S
C918 C917 1.516 1_655 S
C918 C919 1.502 . S
C918 C920 1.561 . S
C918 C921 1.526 . S
C919 H903 0.959 . S
C919 H904 0.959 . S
C919 H905 0.961 1_655 S
C919 C918 1.502 . S
C920 H906 0.960 1_655 S
C920 H907 0.961 . S
C920 H908 0.959 . S
C920 C918 1.561 . S
C921 C918 1.526 . S
C921 C922 1.396 . S
C921 C926 1.390 . S
C922 C916 1.465 1_655 S
C922 C921 1.396 . S
C922 C923 1.399 . S
C923 H909 0.929 . S
C923 C922 1.399 . S
C923 C924 1.385 . S
C924 H910 0.931 . S
C924 C923 1.385 . S
C924 C925 1.389 . S
C925 C924 1.389 . S
C925 C926 1.387 . S
C926 H911 0.930 . S
C926 C921 1.390 . S
C926 C925 1.387 . S
H927 C939 0.930 . S
H928 C941 0.930 . S
H929 C942 0.930 . S
H930 C946 0.959 . S
H931 C946 0.959 . S
H932 C946 0.961 . S
H933 C947 0.960 . S
H934 C947 0.961 . S
H935 C947 0.959 . S
H936 C950 0.929 . S
H937 C951 0.931 . S
H938 C953 0.930 . S
C939 H927 0.930 . S
C939 C940 1.399 . S
C939 C944 1.399 . S
C940 C939 1.399 . S
C940 C941 1.376 . S
C941 H928 0.930 . S
C941 C940 1.376 . S
C941 C942 1.388 . S
C942 H929 0.930 . S
C942 C941 1.388 . S
C942 C943 1.390 . S
C943 C942 1.390 . S
C943 C944 1.394 . S
C943 C949 1.465 . S
C944 C939 1.399 . S
C944 C943 1.394 . S
C944 C945 1.516 . S
C945 C944 1.516 . S
C945 C946 1.502 . S
C945 C947 1.561 . S
C945 C948 1.526 . S
C946 H930 0.959 . S
C946 H931 0.959 . S
C946 H932 0.961 . S
C946 C945 1.502 . S
C947 H933 0.960 . S
C947 H934 0.961 . S
C947 H935 0.959 . S
C947 C945 1.561 . S
C948 C945 1.526 . S
C948 C949 1.396 . S
C948 C953 1.390 . S
C949 C943 1.465 . S
C949 C948 1.396 . S
C949 C950 1.399 . S
C950 H936 0.929 . S
C950 C949 1.399 . S
C950 C951 1.385 . S
C951 H937 0.931 . S
C951 C950 1.385 . S
C951 C952 1.389 . S
C952 C951 1.389 . S
C952 C953 1.387 . S
C953 H938 0.930 . S
C953 C948 1.390 . S
C953 C952 1.387 . S
H954 C966 0.930 . S
H955 C968 0.930 . S
H956 C969 0.930 . S
H957 C973 0.959 . S
H958 C973 0.959 . S
H959 C973 0.961 . S
H960 C974 0.960 . S
H961 C974 0.961 . S
H962 C974 0.959 . S
H963 C977 0.929 . S
H964 C978 0.931 . S
H965 C980 0.930 . S
C966 H954 0.930 . S
C966 C967 1.399 . S
C966 C971 1.399 . S
C967 C966 1.399 . S
C967 C968 1.376 . S
C968 H955 0.930 . S
C968 C967 1.376 . S
C968 C969 1.388 . S
C969 H956 0.930 . S
C969 C968 1.388 . S
C969 C970 1.390 . S
C970 C969 1.390 . S
C970 C971 1.394 . S
C970 C976 1.465 . S
C971 C966 1.399 . S
C971 C970 1.394 . S
C971 C972 1.516 . S
C972 C971 1.516 . S
C972 C973 1.502 . S
C972 C974 1.561 . S
C972 C975 1.526 . S
C973 H957 0.959 . S
C973 H958 0.959 . S
C973 H959 0.961 . S
C973 C972 1.502 . S
C974 H960 0.960 . S
C974 H961 0.961 . S
C974 H962 0.959 . S
C974 C972 1.561 . S
C975 C972 1.526 . S
C975 C976 1.396 . S
C975 C980 1.390 . S
C976 C970 1.465 . S
C976 C975 1.396 . S
C976 C977 1.399 . S
C977 H963 0.929 . S
C977 C976 1.399 . S
C977 C978 1.385 . S
C978 H964 0.931 . S
C978 C977 1.385 . S
C978 C979 1.389 . S
C979 C978 1.389 . S
C979 C980 1.387 . S
C980 H965 0.930 . S
C980 C975 1.390 . S
C980 C979 1.387 . S
H981 C993 0.930 . S
H982 C995 0.930 . S
H983 C996 0.930 . S
H984 C1000 0.959 . S
H985 C1000 0.959 1_655 S
H986 C1000 0.961 . S
H987 C1001 0.960 . S
H988 C1001 0.961 1_655 S
H989 C1001 0.959 . S
H990 C1004 0.929 . S
H991 C1005 0.931 . S
H992 C1007 0.930 . S
C993 H981 0.930 . S
C993 C994 1.399 . S
C993 C998 1.399 . S
C994 C993 1.399 . S
C994 C995 1.376 . S
C995 H982 0.930 . S
C995 C994 1.376 . S
C995 C996 1.388 . S
C996 H983 0.930 . S
C996 C995 1.388 . S
C996 C997 1.390 . S
C997 C996 1.390 . S
C997 C998 1.394 . S
C997 C1003 1.465 1_455 S
C998 C993 1.399 . S
C998 C997 1.394 . S
C998 C999 1.516 . S
C999 C998 1.516 . S
C999 C1000 1.502 . S
C999 C1001 1.561 . S
C999 C1002 1.526 1_455 S
C1000 H984 0.959 . S
C1000 H985 0.959 1_455 S
C1000 H986 0.961 . S
C1000 C999 1.502 . S
C1001 H987 0.960 . S
C1001 H988 0.961 1_455 S
C1001 H989 0.959 . S
C1001 C999 1.561 . S
C1002 C999 1.526 1_655 S
C1002 C1003 1.396 . S
C1002 C1007 1.390 . S
C1003 C997 1.465 1_655 S
C1003 C1002 1.396 . S
C1003 C1004 1.399 . S
C1004 H990 0.929 . S
C1004 C1003 1.399 . S
C1004 C1005 1.385 . S
C1005 H991 0.931 . S
C1005 C1004 1.385 . S
C1005 C1006 1.389 . S
C1006 C1005 1.389 . S
C1006 C1007 1.387 . S
C1007 H992 0.930 . S
C1007 C1002 1.390 . S
C1007 C1006 1.387 . S
H1008 C1020 0.930 . S
H1009 C1022 0.930 1_556 S
H1010 C1023 0.930 . S
H1011 C1027 0.959 . S
H1012 C1027 0.959 . S
H1013 C1027 0.961 . S
H1014 C1028 0.960 . S
H1015 C1028 0.961 . S
H1016 C1028 0.959 . S
H1017 C1031 0.929 . S
H1018 C1032 0.931 . S
H1019 C1034 0.930 . S
C1020 H1008 0.930 . S
C1020 C1021 1.399 . S
C1020 C1025 1.399 . S
C1021 C1020 1.399 . S
C1021 C1022 1.376 . S
C1022 H1009 0.930 1_554 S
C1022 C1021 1.376 . S
C1022 C1023 1.388 1_554 S
C1023 H1010 0.930 . S
C1023 C1022 1.388 1_556 S
C1023 C1024 1.390 . S
C1024 C1023 1.390 . S
C1024 C1025 1.394 1_556 S
C1024 C1030 1.465 . S
C1025 C1020 1.399 . S
C1025 C1024 1.394 1_554 S
C1025 C1026 1.516 . S
C1026 C1025 1.516 . S
C1026 C1027 1.502 . S
C1026 C1028 1.561 . S
C1026 C1029 1.526 1_554 S
C1027 H1011 0.959 . S
C1027 H1012 0.959 . S
C1027 H1013 0.961 . S
C1027 C1026 1.502 . S
C1028 H1014 0.960 . S
C1028 H1015 0.961 . S
C1028 H1016 0.959 . S
C1028 C1026 1.561 . S
C1029 C1026 1.526 1_556 S
C1029 C1030 1.396 . S
C1029 C1034 1.390 . S
C1030 C1024 1.465 . S
C1030 C1029 1.396 . S
C1030 C1031 1.399 . S
C1031 H1017 0.929 . S
C1031 C1030 1.399 . S
C1031 C1032 1.385 . S
C1032 H1018 0.931 . S
C1032 C1031 1.385 . S
C1032 C1033 1.389 . S
C1033 C1032 1.389 . S
C1033 C1034 1.387 . S
C1034 H1019 0.930 . S
C1034 C1029 1.390 . S
C1034 C1033 1.387 . S
H1035 C1047 0.930 . S
H1036 C1049 0.930 . S
H1037 C1050 0.930 . S
H1038 C1054 0.959 . S
H1039 C1054 0.959 . S
H1040 C1054 0.961 . S
H1041 C1055 0.960 . S
H1042 C1055 0.961 . S
H1043 C1055 0.959 . S
H1044 C1058 0.929 . S
H1045 C1059 0.931 . S
H1046 C1061 0.930 . S
C1047 H1035 0.930 . S
C1047 C1048 1.399 . S
C1047 C1052 1.399 . S
C1048 C1047 1.399 . S
C1048 C1049 1.376 . S
C1049 H1036 0.930 . S
C1049 C1048 1.376 . S
C1049 C1050 1.388 . S
C1050 H1037 0.930 . S
C1050 C1049 1.388 . S
C1050 C1051 1.390 . S
C1051 C1050 1.390 . S
C1051 C1052 1.394 . S
C1051 C1057 1.465 . S
C1052 C1047 1.399 . S
C1052 C1051 1.394 . S
C1052 C1053 1.516 . S
C1053 C1052 1.516 . S
C1053 C1054 1.502 . S
C1053 C1055 1.561 . S
C1053 C1056 1.526 . S
C1054 H1038 0.959 . S
C1054 H1039 0.959 . S
C1054 H1040 0.961 . S
C1054 C1053 1.502 . S
C1055 H1041 0.960 . S
C1055 H1042 0.961 . S
C1055 H1043 0.959 . S
C1055 C1053 1.561 . S
C1056 C1053 1.526 . S
C1056 C1057 1.396 . S
C1056 C1061 1.390 . S
C1057 C1051 1.465 . S
C1057 C1056 1.396 . S
C1057 C1058 1.399 . S
C1058 H1044 0.929 . S
C1058 C1057 1.399 . S
C1058 C1059 1.385 . S
C1059 H1045 0.931 . S
C1059 C1058 1.385 . S
C1059 C1060 1.389 . S
C1060 C1059 1.389 . S
C1060 C1061 1.387 . S
C1061 H1046 0.930 . S
C1061 C1056 1.390 . S
C1061 C1060 1.387 . S
H1062 C1074 0.930 . S
H1063 C1076 0.930 . S
H1064 C1077 0.930 . S
H1065 C1081 0.959 . S
H1066 C1081 0.959 . S
H1067 C1081 0.961 . S
H1068 C1082 0.960 . S
H1069 C1082 0.961 . S
H1070 C1082 0.959 . S
H1071 C1085 0.929 . S
H1072 C1086 0.931 . S
H1073 C1088 0.930 . S
C1074 H1062 0.930 . S
C1074 C1075 1.399 . S
C1074 C1079 1.399 . S
C1075 C1074 1.399 . S
C1075 C1076 1.376 . S
C1076 H1063 0.930 . S
C1076 C1075 1.376 . S
C1076 C1077 1.388 . S
C1077 H1064 0.930 . S
C1077 C1076 1.388 . S
C1077 C1078 1.390 . S
C1078 C1077 1.390 . S
C1078 C1079 1.394 . S
C1078 C1084 1.465 . S
C1079 C1074 1.399 . S
C1079 C1078 1.394 . S
C1079 C1080 1.516 . S
C1080 C1079 1.516 . S
C1080 C1081 1.502 . S
C1080 C1082 1.561 . S
C1080 C1083 1.526 . S
C1081 H1065 0.959 . S
C1081 H1066 0.959 . S
C1081 H1067 0.961 . S
C1081 C1080 1.502 . S
C1082 H1068 0.960 . S
C1082 H1069 0.961 . S
C1082 H1070 0.959 . S
C1082 C1080 1.561 . S
C1083 C1080 1.526 . S
C1083 C1084 1.396 . S
C1083 C1088 1.390 . S
C1084 C1078 1.465 . S
C1084 C1083 1.396 . S
C1084 C1085 1.399 . S
C1085 H1071 0.929 . S
C1085 C1084 1.399 . S
C1085 C1086 1.385 . S
C1086 H1072 0.931 . S
C1086 C1085 1.385 . S
C1086 C1087 1.389 . S
C1087 C1086 1.389 . S
C1087 C1088 1.387 . S
C1088 H1073 0.930 . S
C1088 C1083 1.390 . S
C1088 C1087 1.387 . S
H1089 C1101 0.930 . S
H1090 C1103 0.930 . S
H1091 C1104 0.930 . S
H1092 C1108 0.959 . S
H1093 C1108 0.959 . S
H1094 C1108 0.961 . S
H1095 C1109 0.960 . S
H1096 C1109 0.961 . S
H1097 C1109 0.959 . S
H1098 C1112 0.929 . S
H1099 C1113 0.931 . S
H1100 C1115 0.930 . S
C1101 H1089 0.930 . S
C1101 C1102 1.399 . S
C1101 C1106 1.399 . S
C1102 C1101 1.399 . S
C1102 C1103 1.376 . S
C1103 H1090 0.930 . S
C1103 C1102 1.376 . S
C1103 C1104 1.388 . S
C1104 H1091 0.930 . S
C1104 C1103 1.388 . S
C1104 C1105 1.390 . S
C1105 C1104 1.390 . S
C1105 C1106 1.394 . S
C1105 C1111 1.465 . S
C1106 C1101 1.399 . S
C1106 C1105 1.394 . S
C1106 C1107 1.516 . S
C1107 C1106 1.516 . S
C1107 C1108 1.502 . S
C1107 C1109 1.561 . S
C1107 C1110 1.526 . S
C1108 H1092 0.959 . S
C1108 H1093 0.959 . S
C1108 H1094 0.961 . S
C1108 C1107 1.502 . S
C1109 H1095 0.960 . S
C1109 H1096 0.961 . S
C1109 H1097 0.959 . S
C1109 C1107 1.561 . S
C1110 C1107 1.526 . S
C1110 C1111 1.396 . S
C1110 C1115 1.390 . S
C1111 C1105 1.465 . S
C1111 C1110 1.396 . S
C1111 C1112 1.399 . S
C1112 H1098 0.929 . S
C1112 C1111 1.399 . S
C1112 C1113 1.385 . S
C1113 H1099 0.931 . S
C1113 C1112 1.385 . S
C1113 C1114 1.389 . S
C1114 C1113 1.389 . S
C1114 C1115 1.387 . S
C1115 H1100 0.930 . S
C1115 C1110 1.390 . S
C1115 C1114 1.387 . S
H1116 C1128 0.930 1_554 S
H1117 C1130 0.930 . S
H1118 C1131 0.930 . S
H1119 C1135 0.959 . S
H1120 C1135 0.959 . S
H1121 C1135 0.961 . S
H1122 C1136 0.960 . S
H1123 C1136 0.961 . S
H1124 C1136 0.959 . S
H1125 C1139 0.929 . S
H1126 C1140 0.931 . S
H1127 C1142 0.930 . S
C1128 H1116 0.930 1_556 S
C1128 C1129 1.399 . S
C1128 C1133 1.399 1_556 S
C1129 C1128 1.399 . S
C1129 C1130 1.376 . S
C1130 H1117 0.930 . S
C1130 C1129 1.376 . S
C1130 C1131 1.388 . S
C1131 H1118 0.930 . S
C1131 C1130 1.388 . S
C1131 C1132 1.390 . S
C1132 C1131 1.390 . S
C1132 C1133 1.394 1_556 S
C1132 C1138 1.465 1_556 S
C1133 C1128 1.399 1_554 S
C1133 C1132 1.394 1_554 S
C1133 C1134 1.516 . S
C1134 C1133 1.516 . S
C1134 C1135 1.502 . S
C1134 C1136 1.561 . S
C1134 C1137 1.526 . S
C1135 H1119 0.959 . S
C1135 H1120 0.959 . S
C1135 H1121 0.961 . S
C1135 C1134 1.502 . S
C1136 H1122 0.960 . S
C1136 H1123 0.961 . S
C1136 H1124 0.959 . S
C1136 C1134 1.561 . S
C1137 C1134 1.526 . S
C1137 C1138 1.396 . S
C1137 C1142 1.390 . S
C1138 C1132 1.465 1_554 S
C1138 C1137 1.396 . S
C1138 C1139 1.399 1_554 S
C1139 H1125 0.929 . S
C1139 C1138 1.399 1_556 S
C1139 C1140 1.385 1_556 S
C1140 H1126 0.931 . S
C1140 C1139 1.385 1_554 S
C1140 C1141 1.389 . S
C1141 C1140 1.389 . S
C1141 C1142 1.387 . S
C1142 H1127 0.930 . S
C1142 C1137 1.390 . S
C1142 C1141 1.387 . S
H1143 C1155 0.930 . S
H1144 C1157 0.930 . S
H1145 C1158 0.930 . S
H1146 C1162 0.959 . S
H1147 C1162 0.959 . S
H1148 C1162 0.961 . S
H1149 C1163 0.960 . S
H1150 C1163 0.961 . S
H1151 C1163 0.959 . S
H1152 C1166 0.929 . S
H1153 C1167 0.931 . S
H1154 C1169 0.930 . S
C1155 H1143 0.930 . S
C1155 C1156 1.399 . S
C1155 C1160 1.399 . S
C1156 C1155 1.399 . S
C1156 C1157 1.376 . S
C1157 H1144 0.930 . S
C1157 C1156 1.376 . S
C1157 C1158 1.388 . S
C1158 H1145 0.930 . S
C1158 C1157 1.388 . S
C1158 C1159 1.390 . S
C1159 C1158 1.390 . S
C1159 C1160 1.394 . S
C1159 C1165 1.465 . S
C1160 C1155 1.399 . S
C1160 C1159 1.394 . S
C1160 C1161 1.516 . S
C1161 C1160 1.516 . S
C1161 C1162 1.502 . S
C1161 C1163 1.561 . S
C1161 C1164 1.526 . S
C1162 H1146 0.959 . S
C1162 H1147 0.959 . S
C1162 H1148 0.961 . S
C1162 C1161 1.502 . S
C1163 H1149 0.960 . S
C1163 H1150 0.961 . S
C1163 H1151 0.959 . S
C1163 C1161 1.561 . S
C1164 C1161 1.526 . S
C1164 C1165 1.396 . S
C1164 C1169 1.390 . S
C1165 C1159 1.465 . S
C1165 C1164 1.396 . S
C1165 C1166 1.399 . S
C1166 H1152 0.929 . S
C1166 C1165 1.399 . S
C1166 C1167 1.385 . S
C1167 H1153 0.931 . S
C1167 C1166 1.385 . S
C1167 C1168 1.389 . S
C1168 C1167 1.389 . S
C1168 C1169 1.387 . S
C1169 H1154 0.930 . S
C1169 C1164 1.390 . S
C1169 C1168 1.387 . S
H1170 C1182 0.930 . S
H1171 C1184 0.930 . S
H1172 C1185 0.930 . S
H1173 C1189 0.959 . S
H1174 C1189 0.959 . S
H1175 C1189 0.961 . S
H1176 C1190 0.960 . S
H1177 C1190 0.961 . S
H1178 C1190 0.959 . S
H1179 C1193 0.929 . S
H1180 C1194 0.931 . S
H1181 C1196 0.930 . S
C1182 H1170 0.930 . S
C1182 C1183 1.399 . S
C1182 C1187 1.399 . S
C1183 C1182 1.399 . S
C1183 C1184 1.376 . S
C1184 H1171 0.930 . S
C1184 C1183 1.376 . S
C1184 C1185 1.388 . S
C1185 H1172 0.930 . S
C1185 C1184 1.388 . S
C1185 C1186 1.390 . S
C1186 C1185 1.390 . S
C1186 C1187 1.394 . S
C1186 C1192 1.465 . S
C1187 C1182 1.399 . S
C1187 C1186 1.394 . S
C1187 C1188 1.516 . S
C1188 C1187 1.516 . S
C1188 C1189 1.502 . S
C1188 C1190 1.561 . S
C1188 C1191 1.526 . S
C1189 H1173 0.959 . S
C1189 H1174 0.959 . S
C1189 H1175 0.961 . S
C1189 C1188 1.502 . S
C1190 H1176 0.960 . S
C1190 H1177 0.961 . S
C1190 H1178 0.959 . S
C1190 C1188 1.561 . S
C1191 C1188 1.526 . S
C1191 C1192 1.396 . S
C1191 C1196 1.390 . S
C1192 C1186 1.465 . S
C1192 C1191 1.396 . S
C1192 C1193 1.399 . S
C1193 H1179 0.929 . S
C1193 C1192 1.399 . S
C1193 C1194 1.385 . S
C1194 H1180 0.931 . S
C1194 C1193 1.385 . S
C1194 C1195 1.389 . S
C1195 C1194 1.389 . S
C1195 C1196 1.387 . S
C1196 H1181 0.930 . S
C1196 C1191 1.390 . S
C1196 C1195 1.387 . S
H1197 C1209 0.930 . S
H1198 C1211 0.930 . S
H1199 C1212 0.930 . S
H1200 C1216 0.959 . S
H1201 C1216 0.959 . S
H1202 C1216 0.961 . S
H1203 C1217 0.960 . S
H1204 C1217 0.961 . S
H1205 C1217 0.959 . S
H1206 C1220 0.929 . S
H1207 C1221 0.931 . S
H1208 C1223 0.930 . S
C1209 H1197 0.930 . S
C1209 C1210 1.399 . S
C1209 C1214 1.399 . S
C1210 C1209 1.399 . S
C1210 C1211 1.376 . S
C1211 H1198 0.930 . S
C1211 C1210 1.376 . S
C1211 C1212 1.388 . S
C1212 H1199 0.930 . S
C1212 C1211 1.388 . S
C1212 C1213 1.390 . S
C1213 C1212 1.390 . S
C1213 C1214 1.394 . S
C1213 C1219 1.465 . S
C1214 C1209 1.399 . S
C1214 C1213 1.394 . S
C1214 C1215 1.516 . S
C1215 C1214 1.516 . S
C1215 C1216 1.502 . S
C1215 C1217 1.561 . S
C1215 C1218 1.526 . S
C1216 H1200 0.959 . S
C1216 H1201 0.959 . S
C1216 H1202 0.961 . S
C1216 C1215 1.502 . S
C1217 H1203 0.960 . S
C1217 H1204 0.961 . S
C1217 H1205 0.959 . S
C1217 C1215 1.561 . S
C1218 C1215 1.526 . S
C1218 C1219 1.396 . S
C1218 C1223 1.390 . S
C1219 C1213 1.465 . S
C1219 C1218 1.396 . S
C1219 C1220 1.399 . S
C1220 H1206 0.929 . S
C1220 C1219 1.399 . S
C1220 C1221 1.385 . S
C1221 H1207 0.931 . S
C1221 C1220 1.385 . S
C1221 C1222 1.389 . S
C1222 C1221 1.389 . S
C1222 C1223 1.387 . S
C1223 H1208 0.930 . S
C1223 C1218 1.390 . S
C1223 C1222 1.387 . S
H1224 C1236 0.930 . S
H1225 C1238 0.930 . S
H1226 C1239 0.930 . S
H1227 C1243 0.959 . S
H1228 C1243 0.959 . S
H1229 C1243 0.961 . S
H1230 C1244 0.960 . S
H1231 C1244 0.961 . S
H1232 C1244 0.959 . S
H1233 C1247 0.929 . S
H1234 C1248 0.931 . S
H1235 C1250 0.930 . S
C1236 H1224 0.930 . S
C1236 C1237 1.399 . S
C1236 C1241 1.399 . S
C1237 C1236 1.399 . S
C1237 C1238 1.376 . S
C1238 H1225 0.930 . S
C1238 C1237 1.376 . S
C1238 C1239 1.388 . S
C1239 H1226 0.930 . S
C1239 C1238 1.388 . S
C1239 C1240 1.390 . S
C1240 C1239 1.390 . S
C1240 C1241 1.394 . S
C1240 C1246 1.465 1_545 S
C1241 C1236 1.399 . S
C1241 C1240 1.394 . S
C1241 C1242 1.516 1_545 S
C1242 C1241 1.516 1_565 S
C1242 C1243 1.502 . S
C1242 C1244 1.561 . S
C1242 C1245 1.526 . S
C1243 H1227 0.959 . S
C1243 H1228 0.959 . S
C1243 H1229 0.961 . S
C1243 C1242 1.502 . S
C1244 H1230 0.960 . S
C1244 H1231 0.961 . S
C1244 H1232 0.959 . S
C1244 C1242 1.561 . S
C1245 C1242 1.526 . S
C1245 C1246 1.396 . S
C1245 C1250 1.390 . S
C1246 C1240 1.465 1_565 S
C1246 C1245 1.396 . S
C1246 C1247 1.399 . S
C1247 H1233 0.929 . S
C1247 C1246 1.399 . S
C1247 C1248 1.385 . S
C1248 H1234 0.931 . S
C1248 C1247 1.385 . S
C1248 C1249 1.389 . S
C1249 C1248 1.389 . S
C1249 C1250 1.387 . S
C1250 H1235 0.930 . S
C1250 C1245 1.390 . S
C1250 C1249 1.387 . S
H1251 C1263 0.930 . S
H1252 C1265 0.930 . S
H1253 C1266 0.930 . S
H1254 C1270 0.959 . S
H1255 C1270 0.959 . S
H1256 C1270 0.961 . S
H1257 C1271 0.960 . S
H1258 C1271 0.961 . S
H1259 C1271 0.959 . S
H1260 C1274 0.929 . S
H1261 C1275 0.931 . S
H1262 C1277 0.930 . S
C1263 H1251 0.930 . S
C1263 C1264 1.399 . S
C1263 C1268 1.399 . S
C1264 C1263 1.399 . S
C1264 C1265 1.376 . S
C1265 H1252 0.930 . S
C1265 C1264 1.376 . S
C1265 C1266 1.388 . S
C1266 H1253 0.930 . S
C1266 C1265 1.388 . S
C1266 C1267 1.390 . S
C1267 C1266 1.390 . S
C1267 C1268 1.394 . S
C1267 C1273 1.465 . S
C1268 C1263 1.399 . S
C1268 C1267 1.394 . S
C1268 C1269 1.516 . S
C1269 C1268 1.516 . S
C1269 C1270 1.502 . S
C1269 C1271 1.561 . S
C1269 C1272 1.526 . S
C1270 H1254 0.959 . S
C1270 H1255 0.959 . S
C1270 H1256 0.961 . S
C1270 C1269 1.502 . S
C1271 H1257 0.960 . S
C1271 H1258 0.961 . S
C1271 H1259 0.959 . S
C1271 C1269 1.561 . S
C1272 C1269 1.526 . S
C1272 C1273 1.396 . S
C1272 C1277 1.390 . S
C1273 C1267 1.465 . S
C1273 C1272 1.396 . S
C1273 C1274 1.399 . S
C1274 H1260 0.929 . S
C1274 C1273 1.399 . S
C1274 C1275 1.385 . S
C1275 H1261 0.931 . S
C1275 C1274 1.385 . S
C1275 C1276 1.389 . S
C1276 C1275 1.389 . S
C1276 C1277 1.387 . S
C1277 H1262 0.930 . S
C1277 C1272 1.390 . S
C1277 C1276 1.387 . S
H1278 C1290 0.930 . S
H1279 C1292 0.930 . S
H1280 C1293 0.930 1_554 S
H1281 C1297 0.959 . S
H1282 C1297 0.959 . S
H1283 C1297 0.961 . S
H1284 C1298 0.960 . S
H1285 C1298 0.961 . S
H1286 C1298 0.959 . S
H1287 C1301 0.929 . S
H1288 C1302 0.931 . S
H1289 C1304 0.930 1_556 S
C1290 H1278 0.930 . S
C1290 C1291 1.399 . S
C1290 C1295 1.399 . S
C1291 C1290 1.399 . S
C1291 C1292 1.376 . S
C1292 H1279 0.930 . S
C1292 C1291 1.376 . S
C1292 C1293 1.388 . S
C1293 H1280 0.930 1_556 S
C1293 C1292 1.388 . S
C1293 C1294 1.390 . S
C1294 C1293 1.390 . S
C1294 C1295 1.394 . S
C1294 C1300 1.465 1_546 S
C1295 C1290 1.399 . S
C1295 C1294 1.394 . S
C1295 C1296 1.516 1_545 S
C1296 C1295 1.516 1_565 S
C1296 C1297 1.502 . S
C1296 C1298 1.561 . S
C1296 C1299 1.526 . S
C1297 H1281 0.959 . S
C1297 H1282 0.959 . S
C1297 H1283 0.961 . S
C1297 C1296 1.502 . S
C1298 H1284 0.960 . S
C1298 H1285 0.961 . S
C1298 H1286 0.959 . S
C1298 C1296 1.561 . S
C1299 C1296 1.526 . S
C1299 C1300 1.396 1_556 S
C1299 C1304 1.390 1_556 S
C1300 C1294 1.465 1_564 S
C1300 C1299 1.396 1_554 S
C1300 C1301 1.399 . S
C1301 H1287 0.929 . S
C1301 C1300 1.399 . S
C1301 C1302 1.385 . S
C1302 H1288 0.931 . S
C1302 C1301 1.385 . S
C1302 C1303 1.389 . S
C1303 C1302 1.389 . S
C1303 C1304 1.387 . S
C1304 H1289 0.930 1_554 S
C1304 C1299 1.390 1_554 S
C1304 C1303 1.387 . S
H1305 C1317 0.930 . S
H1306 C1319 0.930 . S
H1307 C1320 0.930 . S
H1308 C1324 0.959 . S
H1309 C1324 0.959 . S
H1310 C1324 0.961 . S
H1311 C1325 0.960 . S
H1312 C1325 0.961 . S
H1313 C1325 0.959 . S
H1314 C1328 0.929 . S
H1315 C1329 0.931 . S
H1316 C1331 0.930 . S
C1317 H1305 0.930 . S
C1317 C1318 1.399 . S
C1317 C1322 1.399 . S
C1318 C1317 1.399 . S
C1318 C1319 1.376 . S
C1319 H1306 0.930 . S
C1319 C1318 1.376 . S
C1319 C1320 1.388 . S
C1320 H1307 0.930 . S
C1320 C1319 1.388 . S
C1320 C1321 1.390 . S
C1321 C1320 1.390 . S
C1321 C1322 1.394 . S
C1321 C1327 1.465 . S
C1322 C1317 1.399 . S
C1322 C1321 1.394 . S
C1322 C1323 1.516 . S
C1323 C1322 1.516 . S
C1323 C1324 1.502 . S
C1323 C1325 1.561 . S
C1323 C1326 1.526 . S
C1324 H1308 0.959 . S
C1324 H1309 0.959 . S
C1324 H1310 0.961 . S
C1324 C1323 1.502 . S
C1325 H1311 0.960 . S
C1325 H1312 0.961 . S
C1325 H1313 0.959 . S
C1325 C1323 1.561 . S
C1326 C1323 1.526 . S
C1326 C1327 1.396 . S
C1326 C1331 1.390 . S
C1327 C1321 1.465 . S
C1327 C1326 1.396 . S
C1327 C1328 1.399 . S
C1328 H1314 0.929 . S
C1328 C1327 1.399 . S
C1328 C1329 1.385 . S
C1329 H1315 0.931 . S
C1329 C1328 1.385 . S
C1329 C1330 1.389 . S
C1330 C1329 1.389 . S
C1330 C1331 1.387 . S
C1331 H1316 0.930 . S
C1331 C1326 1.390 . S
C1331 C1330 1.387 . S
H1332 C1344 0.930 . S
H1333 C1346 0.930 . S
H1334 C1347 0.930 . S
H1335 C1351 0.959 1_565 S
H1336 C1351 0.959 1_565 S
H1337 C1351 0.961 . S
H1338 C1352 0.960 . S
H1339 C1352 0.961 . S
H1340 C1352 0.959 . S
H1341 C1355 0.929 . S
H1342 C1356 0.931 . S
H1343 C1358 0.930 . S
C1344 H1332 0.930 . S
C1344 C1345 1.399 . S
C1344 C1349 1.399 . S
C1345 C1344 1.399 . S
C1345 C1346 1.376 . S
C1346 H1333 0.930 . S
C1346 C1345 1.376 . S
C1346 C1347 1.388 . S
C1347 H1334 0.930 . S
C1347 C1346 1.388 . S
C1347 C1348 1.390 . S
C1348 C1347 1.390 . S
C1348 C1349 1.394 . S
C1348 C1354 1.465 1_545 S
C1349 C1344 1.399 . S
C1349 C1348 1.394 . S
C1349 C1350 1.516 . S
C1350 C1349 1.516 . S
C1350 C1351 1.502 . S
C1350 C1352 1.561 . S
C1350 C1353 1.526 1_545 S
C1351 H1335 0.959 1_545 S
C1351 H1336 0.959 1_545 S
C1351 H1337 0.961 . S
C1351 C1350 1.502 . S
C1352 H1338 0.960 . S
C1352 H1339 0.961 . S
C1352 H1340 0.959 . S
C1352 C1350 1.561 . S
C1353 C1350 1.526 1_565 S
C1353 C1354 1.396 . S
C1353 C1358 1.390 . S
C1354 C1348 1.465 1_565 S
C1354 C1353 1.396 . S
C1354 C1355 1.399 . S
C1355 H1341 0.929 . S
C1355 C1354 1.399 . S
C1355 C1356 1.385 . S
C1356 H1342 0.931 . S
C1356 C1355 1.385 . S
C1356 C1357 1.389 . S
C1357 C1356 1.389 . S
C1357 C1358 1.387 . S
C1358 H1343 0.930 . S
C1358 C1353 1.390 . S
C1358 C1357 1.387 . S
H1359 C1371 0.930 . S
H1360 C1373 0.930 . S
H1361 C1374 0.930 . S
H1362 C1378 0.959 . S
H1363 C1378 0.959 . S
H1364 C1378 0.961 . S
H1365 C1379 0.960 . S
H1366 C1379 0.961 . S
H1367 C1379 0.959 . S
H1368 C1382 0.929 . S
H1369 C1383 0.931 . S
H1370 C1385 0.930 . S
C1371 H1359 0.930 . S
C1371 C1372 1.399 . S
C1371 C1376 1.399 . S
C1372 C1371 1.399 . S
C1372 C1373 1.376 . S
C1373 H1360 0.930 . S
C1373 C1372 1.376 . S
C1373 C1374 1.388 . S
C1374 H1361 0.930 . S
C1374 C1373 1.388 . S
C1374 C1375 1.390 . S
C1375 C1374 1.390 . S
C1375 C1376 1.394 . S
C1375 C1381 1.465 . S
C1376 C1371 1.399 . S
C1376 C1375 1.394 . S
C1376 C1377 1.516 . S
C1377 C1376 1.516 . S
C1377 C1378 1.502 . S
C1377 C1379 1.561 . S
C1377 C1380 1.526 . S
C1378 H1362 0.959 . S
C1378 H1363 0.959 . S
C1378 H1364 0.961 . S
C1378 C1377 1.502 . S
C1379 H1365 0.960 . S
C1379 H1366 0.961 . S
C1379 H1367 0.959 . S
C1379 C1377 1.561 . S
C1380 C1377 1.526 . S
C1380 C1381 1.396 . S
C1380 C1385 1.390 . S
C1381 C1375 1.465 . S
C1381 C1380 1.396 . S
C1381 C1382 1.399 . S
C1382 H1368 0.929 . S
C1382 C1381 1.399 . S
C1382 C1383 1.385 . S
C1383 H1369 0.931 . S
C1383 C1382 1.385 . S
C1383 C1384 1.389 . S
C1384 C1383 1.389 . S
C1384 C1385 1.387 . S
C1385 H1370 0.930 . S
C1385 C1380 1.390 . S
C1385 C1384 1.387 . S
H1386 C1398 0.930 . S
H1387 C1400 0.930 . S
H1388 C1401 0.930 . S
H1389 C1405 0.959 . S
H1390 C1405 0.959 . S
H1391 C1405 0.961 . S
H1392 C1406 0.960 . S
H1393 C1406 0.961 . S
H1394 C1406 0.959 . S
H1395 C1409 0.929 . S
H1396 C1410 0.931 . S
H1397 C1412 0.930 1_554 S
C1398 H1386 0.930 . S
C1398 C1399 1.399 . S
C1398 C1403 1.399 . S
C1399 C1398 1.399 . S
C1399 C1400 1.376 . S
C1400 H1387 0.930 . S
C1400 C1399 1.376 . S
C1400 C1401 1.388 1_554 S
C1401 H1388 0.930 . S
C1401 C1400 1.388 1_556 S
C1401 C1402 1.390 . S
C1402 C1401 1.390 . S
C1402 C1403 1.394 1_556 S
C1402 C1408 1.465 1_565 S
C1403 C1398 1.399 . S
C1403 C1402 1.394 1_554 S
C1403 C1404 1.516 1_565 S
C1404 C1403 1.516 1_545 S
C1404 C1405 1.502 . S
C1404 C1406 1.561 . S
C1404 C1407 1.526 . S
C1405 H1389 0.959 . S
C1405 H1390 0.959 . S
C1405 H1391 0.961 . S
C1405 C1404 1.502 . S
C1406 H1392 0.960 . S
C1406 H1393 0.961 . S
C1406 H1394 0.959 . S
C1406 C1404 1.561 . S
C1407 C1404 1.526 . S
C1407 C1408 1.396 1_554 S
C1407 C1412 1.390 1_554 S
C1408 C1402 1.465 1_545 S
C1408 C1407 1.396 1_556 S
C1408 C1409 1.399 . S
C1409 H1395 0.929 . S
C1409 C1408 1.399 . S
C1409 C1410 1.385 . S
C1410 H1396 0.931 . S
C1410 C1409 1.385 . S
C1410 C1411 1.389 . S
C1411 C1410 1.389 . S
C1411 C1412 1.387 . S
C1412 H1397 0.930 1_556 S
C1412 C1407 1.390 1_556 S
C1412 C1411 1.387 . S
H1413 C1425 0.930 . S
H1414 C1427 0.930 . S
H1415 C1428 0.930 . S
H1416 C1432 0.959 . S
H1417 C1432 0.959 . S
H1418 C1432 0.961 . S
H1419 C1433 0.960 . S
H1420 C1433 0.961 . S
H1421 C1433 0.959 . S
H1422 C1436 0.929 . S
H1423 C1437 0.931 . S
H1424 C1439 0.930 . S
C1425 H1413 0.930 . S
C1425 C1426 1.399 . S
C1425 C1430 1.399 . S
C1426 C1425 1.399 . S
C1426 C1427 1.376 . S
C1427 H1414 0.930 . S
C1427 C1426 1.376 . S
C1427 C1428 1.388 . S
C1428 H1415 0.930 . S
C1428 C1427 1.388 . S
C1428 C1429 1.390 . S
C1429 C1428 1.390 . S
C1429 C1430 1.394 . S
C1429 C1435 1.465 . S
C1430 C1425 1.399 . S
C1430 C1429 1.394 . S
C1430 C1431 1.516 . S
C1431 C1430 1.516 . S
C1431 C1432 1.502 . S
C1431 C1433 1.561 . S
C1431 C1434 1.526 . S
C1432 H1416 0.959 . S
C1432 H1417 0.959 . S
C1432 H1418 0.961 . S
C1432 C1431 1.502 . S
C1433 H1419 0.960 . S
C1433 H1420 0.961 . S
C1433 H1421 0.959 . S
C1433 C1431 1.561 . S
C1434 C1431 1.526 . S
C1434 C1435 1.396 . S
C1434 C1439 1.390 . S
C1435 C1429 1.465 . S
C1435 C1434 1.396 . S
C1435 C1436 1.399 . S
C1436 H1422 0.929 . S
C1436 C1435 1.399 . S
C1436 C1437 1.385 . S
C1437 H1423 0.931 . S
C1437 C1436 1.385 . S
C1437 C1438 1.389 . S
C1438 C1437 1.389 . S
C1438 C1439 1.387 . S
C1439 H1424 0.930 . S
C1439 C1434 1.390 . S
C1439 C1438 1.387 . S
C589 C400 1.262 . S
C601 C4 1.264 . S
C616 C544 1.312 . S
C628 C40 1.302 . S
C643 C76 1.409 . S
C655 C326 1.408 . S
C670 C470 1.400 . S
C682 C110 1.403 . S
C697 C146 1.347 . S
C709 C472 1.342 . S
C724 C182 1.343 . S
C736 C398 1.330 . S
C751 C220 1.371 . S
C763 C542 1.345 . S
C778 C254 1.449 . S
C790 C328 1.446 . S
C805 C112 1.256 . S
C817 C292 1.245 . S
C832 C364 1.239 . S
C844 C38 1.230 . S
C859 C434 1.307 . S
C871 C184 1.315 . S
C886 C508 1.297 . S
C898 C256 1.299 . S
C913 C148 1.393 . S
C925 C290 1.394 . S
C940 C362 1.433 . S
C952 C218 1.435 . S
C967 C506 1.430 . S
C979 C74 1.445 . S
C994 C2 1.372 . S
C1006 C436 1.387 . S
C1021 C3 1.201 . S
C1033 C158 1.184 . S
C1048 C39 1.291 . S
C1060 C194 1.195 . S
C1075 C75 1.294 . S
C1087 C219 1.312 . S
C1102 C266 1.219 . S
C1114 C122 1.171 . S
C1129 C291 1.155 . S
C1141 C446 1.103 . S
C1156 C482 1.333 . S
C1168 C327 1.350 . S
C1183 C363 1.217 . S
C1195 C507 1.232 . S
C1210 C543 1.272 . S
C1222 C410 1.244 . S
C1237 C255 1.127 . S
C1249 C50 1.069 . S
C1264 C86 1.289 . S
C1276 C147 1.341 . S
C1291 C111 1.229 . S
C1303 C183 1.216 . S
C1318 C14 1.269 . S
C1330 C230 1.325 . S
C1345 C338 1.140 . S
C1357 C554 1.118 . S
C1372 C435 1.330 . S
C1384 C374 1.306 . S
C1399 C399 1.232 . S
C1411 C471 1.206 . S
C1426 C518 1.182 . S
C1438 C302 1.195 . S
