# Generated by pormake.
# Topology lcy, (6)-cn, num edge types: 1
# Building blocks:
#     Node 0, Type 0, BuildingBlock: VOLQOD_clean_sbu_1, # of connection points: 6
#     Node 1, Type 0, BuildingBlock: VOLQOD_clean_sbu_1, # of connection points: 6
#     Node 2, Type 0, BuildingBlock: VOLQOD_clean_sbu_1, # of connection points: 6
#     Node 3, Type 0, BuildingBlock: VOLQOD_clean_sbu_1, # of connection points: 6
#     Edge 4, Type (0, 0), BuildingBlock: FUNLAD_clean_linker_0, # of connection points: 2
#     Edge 5, Type (0, 0), BuildingBlock: FUNLAD_clean_linker_0, # of connection points: 2
#     Edge 6, Type (0, 0), BuildingBlock: FUNLAD_clean_linker_0, # of connection points: 2
#     Edge 7, Type (0, 0), BuildingBlock: FUNLAD_clean_linker_0, # of connection points: 2
#     Edge 8, Type (0, 0), BuildingBlock: FUNLAD_clean_linker_0, # of connection points: 2
#     Edge 9, Type (0, 0), BuildingBlock: FUNLAD_clean_linker_0, # of connection points: 2
#     Edge 10, Type (0, 0), BuildingBlock: FUNLAD_clean_linker_0, # of connection points: 2
#     Edge 11, Type (0, 0), BuildingBlock: FUNLAD_clean_linker_0, # of connection points: 2
#     Edge 12, Type (0, 0), BuildingBlock: FUNLAD_clean_linker_0, # of connection points: 2
#     Edge 13, Type (0, 0), BuildingBlock: FUNLAD_clean_linker_0, # of connection points: 2
#     Edge 14, Type (0, 0), BuildingBlock: FUNLAD_clean_linker_0, # of connection points: 2
#     Edge 15, Type (0, 0), BuildingBlock: FUNLAD_clean_linker_0, # of connection points: 2
# Relax obj value: 0.278
# Max RMSD: 0.253
# Mean RMSD: 0.248
data_MOF--net-lcy--node1-VOLQOD_clean_sbu_1--edge1-FUNLAD_clean_linker_0
_symmetry_space_group_name_H-M    P1
_symmetry_Int_Tables_number       1
_symmetry_cell_setting            triclinic
loop_
_symmetry_equiv_pos_as_xyz
'x, y, z'
_cell_length_a     30.951077
_cell_length_b     30.639714
_cell_length_c     30.902883
_cell_angle_alpha  91.122933
_cell_angle_beta   87.775428
_cell_angle_gamma 92.75184
loop_
_atom_site_label
_atom_site_type_symbol
_atom_site_fract_x
_atom_site_fract_y
_atom_site_fract_z
_atom_type_partial_charge
O0 O 0.38457 0.2767 0.42054 0.0
Zn1 Zn 0.34377 0.28501 0.37181 0.0
O2 O 0.35316 0.34246 0.34585 0.0
Zn3 Zn 0.29955 0.37318 0.34917 0.0
Zn4 Zn 0.39662 0.37619 0.37754 0.0
Zn5 Zn 0.37255 0.33649 0.28518 0.0
O6 O 0.28617 0.39761 0.29152 0.0
O7 O 0.331 0.36325 0.24619 0.0
O8 O 0.28115 0.27414 0.39146 0.0
O9 O 0.25007 0.33231 0.3672 0.0
O10 O 0.30194 0.42195 0.39377 0.0
O11 O 0.3705 0.42477 0.41248 0.0
O12 O 0.44217 0.40262 0.33709 0.0
O13 O 0.35652 0.23834 0.32746 0.0
O14 O 0.42877 0.37115 0.2734 0.0
O15 O 0.37845 0.2732 0.26761 0.0
C16 C 0.41601 0.30079 0.43439 0.0
C17 C 0.30008 0.38874 0.25318 0.0
C18 C 0.3325 0.43884 0.41594 0.0
C19 C 0.24744 0.29505 0.38487 0.0
C20 C 0.45154 0.39714 0.29695 0.0
C21 C 0.37012 0.23787 0.28806 0.0
O22 O 0.42476 0.33875 0.41946 0.0
O23 O 0.91744 0.09292 0.69301 0.0
Zn24 Zn 0.87081 0.13805 0.69321 0.0
O25 O 0.8374 0.1342 0.64083 0.0
Zn26 Zn 0.83429 0.19183 0.61659 0.0
Zn27 Zn 0.86754 0.09821 0.59916 0.0
Zn28 Zn 0.77897 0.10859 0.65234 0.0
O29 O 0.7731 0.20477 0.60357 0.0
O30 O 0.73435 0.1497 0.63372 0.0
O31 O 0.89488 0.20002 0.70355 0.0
O32 O 0.85718 0.23715 0.6581 0.0
O33 O 0.87314 0.19905 0.56297 0.0
O34 O 0.89887 0.13322 0.55298 0.0
O35 O 0.82727 0.05447 0.57264 0.0
O36 O 0.83097 0.12369 0.74391 0.0
O37 O 0.76807 0.05331 0.61579 0.0
O38 O 0.76908 0.09788 0.71676 0.0
C39 C 0.9278 0.06471 0.66399 0.0
C40 C 0.73669 0.18566 0.61353 0.0
C41 C 0.89758 0.17297 0.54227 0.0
C42 C 0.88324 0.23615 0.6889 0.0
C43 C 0.7901 0.03803 0.58368 0.0
C44 C 0.79258 0.10728 0.74904 0.0
O45 O 0.91049 0.06371 0.62739 0.0
O46 O 0.08961 0.71377 0.79629 0.0
Zn47 Zn 0.09794 0.66237 0.83508 0.0
O48 O 0.15785 0.65921 0.84921 0.0
Zn49 Zn 0.17463 0.59983 0.84291 0.0
Zn50 Zn 0.19224 0.69387 0.80867 0.0
Zn51 Zn 0.16766 0.6811 0.90769 0.0
O52 O 0.20333 0.57956 0.89555 0.0
O53 O 0.18762 0.63205 0.94342 0.0
O54 O 0.07233 0.60423 0.81295 0.0
O55 O 0.12211 0.56077 0.83525 0.0
O56 O 0.21083 0.59126 0.78838 0.0
O57 O 0.21442 0.65688 0.75883 0.0
O58 O 0.24243 0.72165 0.83875 0.0
O59 O 0.0645 0.67551 0.88971 0.0
O60 O 0.21814 0.72616 0.90735 0.0
O61 O 0.11182 0.70144 0.93736 0.0
C62 C 0.11643 0.74389 0.78277 0.0
C63 C 0.20285 0.59496 0.93415 0.0
C64 C 0.22153 0.61626 0.75688 0.0
C65 C 0.08504 0.56615 0.82033 0.0
C66 C 0.24703 0.73481 0.87769 0.0
C67 C 0.07293 0.69252 0.9265 0.0
O68 O 0.15699 0.74134 0.78692 0.0
O69 O 0.53993 0.877 0.18916 0.0
Zn70 Zn 0.59562 0.84482 0.18839 0.0
O71 O 0.63328 0.85722 0.13772 0.0
Zn72 Zn 0.64318 0.80319 0.10478 0.0
Zn73 Zn 0.60404 0.89671 0.10242 0.0
Zn74 Zn 0.68855 0.8853 0.15426 0.0
O75 O 0.70733 0.79699 0.09236 0.0
O76 O 0.7375 0.84753 0.13579 0.0
O77 O 0.58386 0.78013 0.19485 0.0
O78 O 0.62175 0.75124 0.13982 0.0
O79 O 0.60965 0.80038 0.04927 0.0
O80 O 0.58314 0.86636 0.04967 0.0
O81 O 0.64266 0.94679 0.08394 0.0
O82 O 0.62511 0.8663 0.24134 0.0
O83 O 0.70179 0.94174 0.12154 0.0
O84 O 0.68904 0.89592 0.21934 0.0
C85 C 0.52884 0.90784 0.16551 0.0
C86 C 0.74069 0.81547 0.10915 0.0
C87 C 0.58711 0.82881 0.03225 0.0
C88 C 0.59775 0.74699 0.17405 0.0
C89 C 0.68017 0.96116 0.09405 0.0
C90 C 0.66108 0.88596 0.24943 0.0
O91 O 0.55196 0.91995 0.13266 0.0
C92 C 0.21187 0.58124 0.01282 0.0
C93 C 0.21873 0.56849 0.96924 0.0
C94 C 0.22492 0.55524 0.04607 0.0
C95 C 0.24515 0.51589 0.03642 0.0
C96 C 0.25321 0.50383 0.99294 0.0
C97 C 0.23983 0.52964 0.95965 0.0
C98 C 0.25936 0.48744 0.07089 0.0
C99 C 0.23857 0.48417 0.10992 0.0
C100 C 0.25303 0.45718 0.14561 0.0
C101 C 0.23796 0.46647 0.18807 0.0
C102 C 0.25226 0.44349 0.22296 0.0
C103 C 0.28193 0.41051 0.21609 0.0
H104 H 0.29248 0.4133 0.10635 0.0
C105 C 0.29572 0.39999 0.17345 0.0
C106 C 0.28131 0.42287 0.13856 0.0
H107 H 0.31811 0.37435 0.16693 0.0
H108 H 0.196 0.61112 0.02137 0.0
H109 H 0.21958 0.56638 0.07921 0.0
H110 H 0.26927 0.47396 0.98469 0.0
H111 H 0.2459 0.51902 0.92643 0.0
H112 H 0.28742 0.46849 0.06319 0.0
H113 H 0.21019 0.50305 0.11671 0.0
H114 H 0.21576 0.49234 0.19445 0.0
H115 H 0.24079 0.45232 0.25536 0.0
C116 C 0.71205 0.90667 0.30829 0.0
C117 C 0.66965 0.89786 0.29493 0.0
C118 C 0.71963 0.91764 0.35153 0.0
C119 C 0.68485 0.92039 0.38207 0.0
C120 C 0.64253 0.91217 0.36859 0.0
C121 C 0.63499 0.90046 0.32558 0.0
C122 C 0.69177 0.93536 0.42718 0.0
C123 C 0.72679 0.92512 0.4486 0.0
C124 C 0.74013 0.94762 0.48923 0.0
C125 C 0.78428 0.9496 0.49796 0.0
C126 C 0.80005 0.97698 0.53078 0.0
C127 C 0.77186 0.00255 0.55605 0.0
H128 H 0.6768 0.96813 0.51247 0.0
C129 C 0.72713 -0.00257 0.55032 0.0
C130 C 0.7113 0.97018 0.51705 0.0
H131 H 0.70468 0.01646 0.56967 0.0
H132 H 0.73935 0.90501 0.28539 0.0
H133 H 0.75261 0.92517 0.36068 0.0
H134 H 0.61524 0.91476 0.39139 0.0
H135 H 0.60187 0.89421 0.31621 0.0
H136 H 0.66831 0.95692 0.4418 0.0
H137 H 0.74928 0.90287 0.43322 0.0
H138 H 0.80713 0.93205 0.47757 0.0
H139 H 0.83467 0.9797 0.53501 0.0
C140 C 0.25324 0.62308 0.68109 0.0
C141 C 0.23858 0.59668 0.71592 0.0
C142 C 0.26486 0.60417 0.64098 0.0
C143 C 0.26175 0.55851 0.63502 0.0
C144 C 0.24809 0.53224 0.67005 0.0
C145 C 0.23701 0.55102 0.71014 0.0
C146 C 0.26964 0.5371 0.59229 0.0
C147 C 0.29736 0.55333 0.56141 0.0
C148 C 0.3055 0.52851 0.52059 0.0
C149 C 0.34803 0.52507 0.5041 0.0
C150 C 0.3568 0.49706 0.46893 0.0
C151 C 0.32298 0.47279 0.44913 0.0
H152 H 0.23819 0.50921 0.5108 0.0
C153 C 0.2801 0.47876 0.46381 0.0
C154 C 0.27145 0.50621 0.49933 0.0
H155 H 0.25329 0.4608 0.44911 0.0
H156 H 0.25469 0.65837 0.68445 0.0
H157 H 0.27455 0.6254 0.61439 0.0
H158 H 0.24537 0.49699 0.66623 0.0
H159 H 0.22573 0.52966 0.73615 0.0
H160 H 0.25356 0.5052 0.58698 0.0
H161 H 0.31724 0.58279 0.5677 0.0
H162 H 0.37469 0.54235 0.51975 0.0
H163 H 0.39016 0.49352 0.45804 0.0
C164 C 0.67422 0.02493 0.04647 0.0
C165 C 0.70055 -0.00301 0.06806 0.0
C166 C 0.69144 0.05069 0.01272 0.0
C167 C 0.73526 0.04846 -0.00049 0.0
C168 C 0.76251 0.02427 0.02419 0.0
C169 C 0.74529 -0.00137 0.05827 0.0
C170 C 0.75243 0.06761 0.95817 0.0
C171 C 0.72763 0.06976 0.92334 0.0
C172 C 0.74453 0.08147 0.87919 0.0
C173 C 0.71962 0.06888 0.84357 0.0
C174 C 0.73488 0.07747 0.80128 0.0
C175 C 0.77544 0.09903 0.79371 0.0
H176 H 0.80425 0.11577 0.89808 0.0
C177 C 0.7999 0.11265 0.82942 0.0
C178 C 0.78459 0.10419 0.87167 0.0
H179 H 0.83105 0.12994 0.82485 0.0
H180 H 0.63973 0.02499 0.05398 0.0
H181 H 0.66991 0.07069 -0.0042 0.0
H182 H 0.79658 0.0227 0.01515 0.0
H183 H 0.76638 0.97752 0.07447 0.0
H184 H 0.78706 0.07472 0.95504 0.0
H185 H 0.6938 0.0586 0.92616 0.0
H186 H 0.68847 0.05163 0.84838 0.0
H187 H 0.71508 0.06675 0.77459 0.0
C188 C 0.95587 0.1615 0.48545 0.0
C189 C 0.92919 0.19014 0.50895 0.0
C190 C 0.99113 0.17775 0.46016 0.0
C191 C 0.00067 0.22303 0.4582 0.0
C192 C 0.97192 0.25166 0.47863 0.0
C193 C 0.93655 0.23542 0.50389 0.0
C194 C 0.04139 0.24138 0.43735 0.0
C195 C 0.07834 0.21967 0.43569 0.0
C196 C 0.12116 0.23924 0.421 0.0
C197 C 0.15869 0.2192 0.43301 0.0
C198 C 0.19973 0.23714 0.4213 0.0
C199 C 0.20413 0.27561 0.39722 0.0
H200 H 0.09775 0.29292 0.38463 0.0
C201 C 0.1666 0.29522 0.38444 0.0
C202 C 0.1256 0.27714 0.39591 0.0
H203 H 0.1688 0.3245 0.36525 0.0
H204 H 0.95059 0.12642 0.48792 0.0
H205 H 0.01143 0.1547 0.44319 0.0
H206 H 0.97812 0.28671 0.47699 0.0
H207 H 0.91641 0.25841 0.52124 0.0
H208 H 0.04177 0.27525 0.42774 0.0
H209 H 0.07818 0.18714 0.44905 0.0
H210 H 0.15631 0.18981 0.45206 0.0
H211 H 0.22795 0.22105 0.43145 0.0
C212 C 0.05663 0.78687 0.75501 0.0
C213 C 0.10003 0.78473 0.76618 0.0
C214 C 0.04037 0.82659 0.74333 0.0
C215 C 0.06715 0.86505 0.74294 0.0
C216 C 0.11049 0.86289 0.75386 0.0
C217 C 0.12694 0.82309 0.76487 0.0
C218 C 0.05012 0.90803 0.73306 0.0
C219 C 0.01983 0.91213 0.70365 0.0
C220 C 0.00141 0.95431 0.69339 0.0
C221 C 0.98592 0.95934 0.65193 0.0
C222 C 0.96427 -0.00356 0.64196 0.0
C223 C 0.95675 0.02922 0.67355 0.0
H224 H 0.00679 0.98463 0.75722 0.0
C225 C 0.97358 0.025 0.71481 0.0
C226 C -0.00416 0.98787 0.72465 0.0
H227 H 0.96819 0.04951 0.73992 0.0
H228 H 0.03499 0.75802 0.75602 0.0
H229 H 0.00649 0.82734 0.73599 0.0
H230 H 0.13167 0.8921 0.75401 0.0
H231 H 0.16044 0.82274 0.77374 0.0
H232 H 0.06433 0.93699 0.74885 0.0
H233 H 0.00905 0.88353 0.68489 0.0
H234 H 0.98979 0.93399 0.62731 0.0
H235 H 0.95197 -0.00154 0.60975 0.0
C236 C 0.32515 0.75375 0.86066 0.0
C237 C 0.28876 0.75664 0.88918 0.0
C238 C 0.36587 0.76974 0.87306 0.0
C239 C 0.37092 0.78939 0.91405 0.0
C240 C 0.33432 0.79439 0.94167 0.0
C241 C 0.29364 0.77771 0.92959 0.0
C242 C 0.41397 0.80442 0.92913 0.0
C243 C 0.45013 0.78284 0.91943 0.0
C244 C 0.49115 0.79494 0.9406 0.0
C245 C 0.51607 0.76213 0.95653 0.0
C246 C 0.55007 0.77304 0.98394 0.0
C247 C 0.55974 0.817 -0.00474 0.0
H248 H 0.48585 0.86488 0.93523 0.0
C249 C 0.53765 0.84983 0.97536 0.0
C250 C 0.50363 0.83891 0.94839 0.0
H251 H 0.5449 0.88407 0.98261 0.0
H252 H 0.32254 0.73782 0.82921 0.0
H253 H 0.39335 0.76648 0.85065 0.0
H254 H 0.33746 0.80989 0.97328 0.0
H255 H 0.26621 0.78067 0.95214 0.0
H256 H 0.41511 0.83138 0.95254 0.0
H257 H 0.44835 0.75287 0.90005 0.0
H258 H 0.50733 0.72798 0.95031 0.0
H259 H 0.56669 0.74703 -0.00152 0.0
C260 C 0.39365 0.19323 0.22323 0.0
C261 C 0.37747 0.19528 0.26626 0.0
C262 C 0.40321 0.1531 0.20386 0.0
C263 C 0.3968 0.11407 0.22689 0.0
C264 C 0.37922 0.11603 0.26957 0.0
C265 C 0.36963 0.15615 0.28891 0.0
C266 C 0.41257 0.07318 0.20636 0.0
C267 C 0.40684 0.03298 0.22338 0.0
C268 C 0.43128 0.99552 0.20613 0.0
C269 C 0.4449 0.96469 0.23511 0.0
C270 C 0.47461 0.93384 0.22137 0.0
C271 C 0.491 0.93337 0.17834 0.0
H272 H 0.43293 0.01393 0.13851 0.0
C273 C 0.47418 0.96151 0.14852 0.0
C274 C 0.44439 0.99208 0.16218 0.0
H275 H 0.48539 0.96118 0.11487 0.0
H276 H 0.39986 0.22269 0.20473 0.0
H277 H 0.41673 0.15273 0.17098 0.0
H278 H 0.37401 0.08723 0.28901 0.0
H279 H 0.357 0.15648 0.32209 0.0
H280 H 0.43285 0.07727 0.17711 0.0
H281 H 0.38781 0.02797 0.25318 0.0
H282 H 0.4347 0.96622 0.26903 0.0
H283 H 0.4867 0.91232 0.24503 0.0
C284 C 0.65572 0.18383 0.60897 0.0
C285 C 0.69642 0.20472 0.59974 0.0
C286 C 0.61801 0.20062 0.59373 0.0
C287 C 0.62028 0.23859 0.56862 0.0
C288 C 0.66082 0.2601 0.56067 0.0
C289 C 0.69841 0.24339 0.5759 0.0
C290 C 0.58172 0.25694 0.54972 0.0
C291 C 0.54375 0.23439 0.54408 0.0
C292 C 0.50791 0.25225 0.52011 0.0
C293 C 0.4786 0.22317 0.4993 0.0
C294 C 0.4473 0.23883 0.47281 0.0
C295 C 0.44482 0.28394 0.46664 0.0
H296 H 0.5237 0.32109 0.53339 0.0
C297 C 0.4724 0.31306 0.48953 0.0
C298 C 0.50328 0.29747 0.51628 0.0
H299 H 0.47063 0.34806 0.48623 0.0
H300 H 0.65294 0.15421 0.62764 0.0
H301 H 0.5874 0.18371 0.60185 0.0
H302 H 0.6636 0.28962 0.54181 0.0
H303 H 0.72912 0.26053 0.56836 0.0
H304 H 0.58635 0.28955 0.53673 0.0
H305 H 0.53997 0.20049 0.55358 0.0
H306 H 0.48096 0.18819 0.50219 0.0
H307 H 0.42633 0.21556 0.4558 0.0
C308 C 0.0192 0.52901 0.78806 0.0
C309 C 0.05666 0.52688 0.81204 0.0
C310 C 0.99365 0.49109 0.77951 0.0
C311 C 0.00513 0.45044 0.79501 0.0
C312 C 0.04168 0.44874 0.82014 0.0
C313 C 0.06733 0.48637 0.8283 0.0
C314 C 0.98039 0.40894 0.7855 0.0
C315 C 0.95865 0.40181 0.74899 0.0
C316 C 0.93806 0.35878 0.73666 0.0
C317 C 0.90607 0.35766 0.70573 0.0
C318 C 0.88773 0.31791 0.69098 0.0
C319 C 0.9012 0.27815 0.70663 0.0
H320 H 0.97684 0.31814 0.77556 0.0
C321 C 0.93292 0.27914 0.73797 0.0
C322 C 0.95132 0.319 0.75273 0.0
H323 H 0.94427 0.24913 0.75045 0.0
H324 H 0.0099 0.5598 0.77548 0.0
H325 H 0.96491 0.49385 0.7611 0.0
H326 H 0.05103 0.41796 0.83276 0.0
H327 H 0.09566 0.48356 0.84738 0.0
H328 H 0.98265 0.38272 0.80828 0.0
H329 H 0.95654 0.4282 0.72633 0.0
H330 H 0.89545 0.3877 0.69256 0.0
H331 H 0.86335 0.31847 0.66681 0.0
C332 C 0.03833 0.73297 0.98962 0.0
C333 C 0.03604 0.70046 0.95699 0.0
C334 C 0.00164 0.74152 0.01597 0.0
C335 C 0.96237 0.71717 0.01032 0.0
C336 C 0.96098 0.68347 0.97906 0.0
C337 C -0.00285 0.67548 0.95245 0.0
C338 C 0.92164 0.7261 0.03511 0.0
C339 C 0.91173 0.76598 0.05032 0.0
C340 C 0.8677 0.77595 0.06755 0.0
C341 C 0.86289 0.81152 0.09629 0.0
C342 C 0.82172 0.82368 0.11067 0.0
C343 C 0.78434 0.8008 0.09612 0.0
H344 H 0.83239 0.72612 0.02997 0.0
C345 C 0.78916 0.76499 0.06757 0.0
C346 C 0.8303 0.75276 0.05333 0.0
H347 H 0.76112 0.74684 0.05545 0.0
H348 H 0.06802 0.75246 -0.00598 0.0
H349 H 0.00416 0.76704 0.04056 0.0
H350 H 0.93133 0.664 0.97425 0.0
H351 H -0.00551 0.64971 0.92805 0.0
H352 H 0.89745 0.6993 0.03752 0.0
H353 H 0.93588 0.79285 0.0486 0.0
H354 H 0.89106 0.83025 0.10735 0.0
H355 H 0.81927 0.85158 0.13253 0.0
C356 C 0.60209 0.66537 0.16908 0.0
C357 C 0.58673 0.7027 0.19075 0.0
C358 C 0.59234 0.62369 0.18552 0.0
C359 C 0.56681 0.61853 0.22392 0.0
C360 C 0.55187 0.65587 0.24565 0.0
C361 C 0.56153 0.69742 0.22924 0.0
C362 C 0.55498 0.5752 0.2428 0.0
C363 C 0.5548 0.53708 0.22027 0.0
C364 C 0.53576 0.49607 0.23928 0.0
C365 C 0.51268 0.46619 0.21286 0.0
C366 C 0.48762 0.43164 0.23124 0.0
C367 C 0.48547 0.42636 0.2764 0.0
H368 H 0.5562 0.50937 0.30489 0.0
C369 C 0.51208 0.45369 0.30224 0.0
C370 C 0.53715 0.48808 0.28385 0.0
H371 H 0.51192 0.44993 0.33703 0.0
H372 H 0.62194 0.66829 0.13954 0.0
H373 H 0.60542 0.5959 0.16834 0.0
H374 H 0.53228 0.65291 0.27538 0.0
H375 H 0.54931 0.7254 0.24693 0.0
H376 H 0.54217 0.5754 0.27604 0.0
H377 H 0.56355 0.53667 0.18592 0.0
H378 H 0.51172 0.47122 0.1783 0.0
H379 H 0.46783 0.41091 0.21033 0.0
loop_
_geom_bond_atom_site_label_1
_geom_bond_atom_site_label_2
_geom_bond_distance
_geom_bond_site_symmetry_2
_ccdc_geom_bond_type
O0 Zn1 1.953 . S
O0 C16 1.225 . S
Zn1 O0 1.953 . S
Zn1 O2 1.949 . S
Zn1 O8 1.919 . S
Zn1 O13 1.924 . S
O2 Zn1 1.949 . S
O2 Zn3 1.923 . S
O2 Zn4 1.950 . S
O2 Zn5 1.945 . S
Zn3 O2 1.923 . S
Zn3 O6 1.933 . S
Zn3 O9 1.941 . S
Zn3 O10 1.965 . S
Zn4 O2 1.950 . S
Zn4 O11 1.938 . S
Zn4 O12 1.906 . S
Zn4 O22 1.953 . S
Zn5 O2 1.945 . S
Zn5 O7 1.932 . S
Zn5 O14 1.977 . S
Zn5 O15 1.910 . S
O6 Zn3 1.933 . S
O6 C17 1.226 . S
O7 Zn5 1.932 . S
O7 C17 1.307 . S
O8 Zn1 1.919 . S
O8 C19 1.253 . S
O9 Zn3 1.941 . S
O9 C19 1.283 . S
O10 Zn3 1.965 . S
O10 C18 1.303 . S
O11 Zn4 1.938 . S
O11 C18 1.247 . S
O12 Zn4 1.906 . S
O12 C20 1.304 . S
O13 Zn1 1.924 . S
O13 C21 1.311 . S
O14 Zn5 1.977 . S
O14 C20 1.272 . S
O15 Zn5 1.910 . S
O15 C21 1.231 . S
C16 O0 1.225 . S
C16 O22 1.298 . S
C17 O6 1.226 . S
C17 O7 1.307 . S
C18 O10 1.303 . S
C18 O11 1.247 . S
C19 O8 1.253 . S
C19 O9 1.283 . S
C20 O12 1.304 . S
C20 O14 1.272 . S
C21 O13 1.311 . S
C21 O15 1.231 . S
O22 Zn4 1.953 . S
O22 C16 1.298 . S
O23 Zn24 1.953 . S
O23 C39 1.225 . S
Zn24 O23 1.953 . S
Zn24 O25 1.949 . S
Zn24 O31 1.919 . S
Zn24 O36 1.924 . S
O25 Zn24 1.949 . S
O25 Zn26 1.923 . S
O25 Zn27 1.950 . S
O25 Zn28 1.945 . S
Zn26 O25 1.923 . S
Zn26 O29 1.933 . S
Zn26 O32 1.941 . S
Zn26 O33 1.965 . S
Zn27 O25 1.950 . S
Zn27 O34 1.938 . S
Zn27 O35 1.906 . S
Zn27 O45 1.953 . S
Zn28 O25 1.945 . S
Zn28 O30 1.932 . S
Zn28 O37 1.977 . S
Zn28 O38 1.910 . S
O29 Zn26 1.933 . S
O29 C40 1.226 . S
O30 Zn28 1.932 . S
O30 C40 1.307 . S
O31 Zn24 1.919 . S
O31 C42 1.253 . S
O32 Zn26 1.941 . S
O32 C42 1.283 . S
O33 Zn26 1.965 . S
O33 C41 1.303 . S
O34 Zn27 1.938 . S
O34 C41 1.247 . S
O35 Zn27 1.906 . S
O35 C43 1.304 . S
O36 Zn24 1.924 . S
O36 C44 1.311 . S
O37 Zn28 1.977 . S
O37 C43 1.272 . S
O38 Zn28 1.910 . S
O38 C44 1.231 . S
C39 O23 1.225 . S
C39 O45 1.298 . S
C40 O29 1.226 . S
C40 O30 1.307 . S
C41 O33 1.303 . S
C41 O34 1.247 . S
C42 O31 1.253 . S
C42 O32 1.283 . S
C43 O35 1.304 . S
C43 O37 1.272 . S
C44 O36 1.311 . S
C44 O38 1.231 . S
O45 Zn27 1.953 . S
O45 C39 1.298 . S
O46 Zn47 1.953 . S
O46 C62 1.225 . S
Zn47 O46 1.953 . S
Zn47 O48 1.949 . S
Zn47 O54 1.919 . S
Zn47 O59 1.924 . S
O48 Zn47 1.949 . S
O48 Zn49 1.923 . S
O48 Zn50 1.950 . S
O48 Zn51 1.945 . S
Zn49 O48 1.923 . S
Zn49 O52 1.933 . S
Zn49 O55 1.941 . S
Zn49 O56 1.965 . S
Zn50 O48 1.950 . S
Zn50 O57 1.938 . S
Zn50 O58 1.906 . S
Zn50 O68 1.953 . S
Zn51 O48 1.945 . S
Zn51 O53 1.932 . S
Zn51 O60 1.977 . S
Zn51 O61 1.910 . S
O52 Zn49 1.933 . S
O52 C63 1.226 . S
O53 Zn51 1.932 . S
O53 C63 1.307 . S
O54 Zn47 1.919 . S
O54 C65 1.253 . S
O55 Zn49 1.941 . S
O55 C65 1.283 . S
O56 Zn49 1.965 . S
O56 C64 1.303 . S
O57 Zn50 1.938 . S
O57 C64 1.247 . S
O58 Zn50 1.906 . S
O58 C66 1.304 . S
O59 Zn47 1.924 . S
O59 C67 1.311 . S
O60 Zn51 1.977 . S
O60 C66 1.272 . S
O61 Zn51 1.910 . S
O61 C67 1.231 . S
C62 O46 1.225 . S
C62 O68 1.298 . S
C63 O52 1.226 . S
C63 O53 1.307 . S
C64 O56 1.303 . S
C64 O57 1.247 . S
C65 O54 1.253 . S
C65 O55 1.283 . S
C66 O58 1.304 . S
C66 O60 1.272 . S
C67 O59 1.311 . S
C67 O61 1.231 . S
O68 Zn50 1.953 . S
O68 C62 1.298 . S
O69 Zn70 1.953 . S
O69 C85 1.225 . S
Zn70 O69 1.953 . S
Zn70 O71 1.949 . S
Zn70 O77 1.919 . S
Zn70 O82 1.924 . S
O71 Zn70 1.949 . S
O71 Zn72 1.923 . S
O71 Zn73 1.950 . S
O71 Zn74 1.945 . S
Zn72 O71 1.923 . S
Zn72 O75 1.933 . S
Zn72 O78 1.941 . S
Zn72 O79 1.965 . S
Zn73 O71 1.950 . S
Zn73 O80 1.938 . S
Zn73 O81 1.906 . S
Zn73 O91 1.953 . S
Zn74 O71 1.945 . S
Zn74 O76 1.932 . S
Zn74 O83 1.977 . S
Zn74 O84 1.910 . S
O75 Zn72 1.933 . S
O75 C86 1.226 . S
O76 Zn74 1.932 . S
O76 C86 1.307 . S
O77 Zn70 1.919 . S
O77 C88 1.253 . S
O78 Zn72 1.941 . S
O78 C88 1.283 . S
O79 Zn72 1.965 . S
O79 C87 1.303 . S
O80 Zn73 1.938 . S
O80 C87 1.247 . S
O81 Zn73 1.906 . S
O81 C89 1.304 . S
O82 Zn70 1.924 . S
O82 C90 1.311 . S
O83 Zn74 1.977 . S
O83 C89 1.272 . S
O84 Zn74 1.910 . S
O84 C90 1.231 . S
C85 O69 1.225 . S
C85 O91 1.298 . S
C86 O75 1.226 . S
C86 O76 1.307 . S
C87 O79 1.303 . S
C87 O80 1.247 . S
C88 O77 1.253 . S
C88 O78 1.283 . S
C89 O81 1.304 . S
C89 O83 1.272 . S
C90 O82 1.311 . S
C90 O84 1.231 . S
O91 Zn73 1.953 . S
O91 C85 1.298 . S
C92 C93 1.386 1_554 S
C92 C94 1.383 . S
C92 H108 0.951 . S
C93 C92 1.386 1_556 S
C93 C97 1.383 . S
C94 C92 1.383 . S
C94 C95 1.402 . S
C94 H109 0.951 . S
C95 C94 1.402 . S
C95 C96 1.375 . S
C95 C98 1.481 . S
C96 C95 1.375 . S
C96 C97 1.367 1_554 S
C96 H110 0.951 . S
C97 C93 1.383 . S
C97 C96 1.367 1_556 S
C97 H111 0.950 . S
C98 C95 1.481 . S
C98 C99 1.297 . S
C98 H112 0.950 . S
C99 C98 1.297 . S
C99 C100 1.479 . S
C99 H113 0.950 . S
C100 C99 1.479 . S
C100 C101 1.375 . S
C100 C106 1.404 . S
C101 C100 1.375 . S
C101 C102 1.369 . S
C101 H114 0.950 . S
C102 C101 1.369 . S
C102 C103 1.392 . S
C102 H115 0.951 . S
C103 C102 1.392 . S
C103 C105 1.384 . S
H104 C106 0.949 . S
C105 C103 1.384 . S
C105 C106 1.385 . S
C105 H107 0.950 . S
C106 C100 1.404 . S
C106 H104 0.949 . S
C106 C105 1.385 . S
H107 C105 0.950 . S
H108 C92 0.951 . S
H109 C94 0.951 . S
H110 C96 0.951 . S
H111 C97 0.950 . S
H112 C98 0.950 . S
H113 C99 0.950 . S
H114 C101 0.950 . S
H115 C102 0.951 . S
C116 C117 1.386 . S
C116 C118 1.383 . S
C116 H132 0.951 . S
C117 C116 1.386 . S
C117 C121 1.383 . S
C118 C116 1.383 . S
C118 C119 1.402 . S
C118 H133 0.951 1_565 S
C119 C118 1.402 . S
C119 C120 1.375 . S
C119 C122 1.481 . S
C120 C119 1.375 . S
C120 C121 1.367 . S
C120 H134 0.951 . S
C121 C117 1.383 . S
C121 C120 1.367 . S
C121 H135 0.950 . S
C122 C119 1.481 . S
C122 C123 1.297 1_565 S
C122 H136 0.950 . S
C123 C122 1.297 1_545 S
C123 C124 1.479 . S
C123 H137 0.950 . S
C124 C123 1.479 . S
C124 C125 1.375 . S
C124 C130 1.404 . S
C125 C124 1.375 . S
C125 C126 1.369 . S
C125 H138 0.950 . S
C126 C125 1.369 . S
C126 C127 1.392 . S
C126 H139 0.951 . S
C127 C126 1.392 . S
C127 C129 1.384 . S
H128 C130 0.949 1_565 S
C129 C127 1.384 . S
C129 C130 1.385 . S
C129 H131 0.950 . S
C130 C124 1.404 . S
C130 H128 0.949 1_545 S
C130 C129 1.385 . S
H131 C129 0.950 . S
H132 C116 0.951 . S
H133 C118 0.951 1_545 S
H134 C120 0.951 . S
H135 C121 0.950 . S
H136 C122 0.950 . S
H137 C123 0.950 . S
H138 C125 0.950 . S
H139 C126 0.951 . S
C140 C141 1.386 . S
C140 C142 1.383 . S
C140 H156 0.951 . S
C141 C140 1.386 . S
C141 C145 1.383 . S
C142 C140 1.383 . S
C142 C143 1.402 . S
C142 H157 0.951 . S
C143 C142 1.402 . S
C143 C144 1.375 . S
C143 C146 1.481 . S
C144 C143 1.375 . S
C144 C145 1.367 . S
C144 H158 0.951 . S
C145 C141 1.383 . S
C145 C144 1.367 . S
C145 H159 0.950 . S
C146 C143 1.481 . S
C146 C147 1.297 . S
C146 H160 0.950 . S
C147 C146 1.297 . S
C147 C148 1.479 . S
C147 H161 0.950 . S
C148 C147 1.479 . S
C148 C149 1.375 . S
C148 C154 1.404 . S
C149 C148 1.375 . S
C149 C150 1.369 . S
C149 H162 0.950 . S
C150 C149 1.369 . S
C150 C151 1.392 . S
C150 H163 0.951 . S
C151 C150 1.392 . S
C151 C153 1.384 . S
H152 C154 0.949 . S
C153 C151 1.384 . S
C153 C154 1.385 . S
C153 H155 0.950 . S
C154 C148 1.404 . S
C154 H152 0.949 . S
C154 C153 1.385 . S
H155 C153 0.950 . S
H156 C140 0.951 . S
H157 C142 0.951 . S
H158 C144 0.951 . S
H159 C145 0.950 . S
H160 C146 0.950 . S
H161 C147 0.950 . S
H162 C149 0.950 . S
H163 C150 0.951 . S
C164 C165 1.386 1_556 S
C164 C166 1.383 1_565 S
C164 H180 0.955 . S
C165 C164 1.386 1_554 S
C165 C169 1.383 1_554 S
C166 C164 1.383 1_545 S
C166 C167 1.402 1_545 S
C166 H181 0.951 . S
C167 C166 1.402 1_565 S
C167 C168 1.375 . S
C167 C170 1.481 1_565 S
C168 C167 1.375 . S
C168 C169 1.367 . S
C168 H182 0.951 . S
C169 C165 1.383 1_556 S
C169 C168 1.367 . S
C169 H183 0.950 1_556 S
C170 C167 1.481 1_545 S
C170 C171 1.297 . S
C170 H184 0.950 1_545 S
C171 C170 1.297 . S
C171 C172 1.479 . S
C171 H185 0.950 . S
C172 C171 1.479 . S
C172 C173 1.375 . S
C172 C178 1.404 . S
C173 C172 1.375 . S
C173 C174 1.369 . S
C173 H186 0.950 . S
C174 C173 1.369 . S
C174 C175 1.392 . S
C174 H187 0.951 . S
C175 C174 1.392 . S
C175 C177 1.384 . S
H176 C178 0.949 . S
C177 C175 1.384 . S
C177 C178 1.385 . S
C177 H179 0.950 . S
C178 C172 1.404 . S
C178 H176 0.949 . S
C178 C177 1.385 . S
H179 C177 0.950 . S
H180 C164 0.955 . S
H181 C166 0.951 . S
H182 C168 0.951 . S
H183 C169 0.950 1_554 S
H184 C170 0.950 1_565 S
H185 C171 0.950 . S
H186 C173 0.950 . S
H187 C174 0.951 . S
C188 C189 1.386 1_455 S
C188 C190 1.383 . S
C188 H204 0.951 1_455 S
C189 C188 1.386 1_655 S
C189 C193 1.383 1_655 S
C190 C188 1.383 . S
C190 C191 1.402 . S
C190 H205 0.951 . S
C191 C190 1.402 . S
C191 C192 1.375 . S
C191 C194 1.481 . S
C192 C191 1.375 . S
C192 C193 1.367 . S
C192 H206 0.951 . S
C193 C189 1.383 1_455 S
C193 C192 1.367 . S
C193 H207 0.950 . S
C194 C191 1.481 . S
C194 C195 1.297 . S
C194 H208 0.950 . S
C195 C194 1.297 . S
C195 C196 1.479 . S
C195 H209 0.950 . S
C196 C195 1.479 . S
C196 C197 1.375 . S
C196 C202 1.404 . S
C197 C196 1.375 . S
C197 C198 1.369 . S
C197 H210 0.950 . S
C198 C197 1.369 . S
C198 C199 1.392 . S
C198 H211 0.951 . S
C199 C198 1.392 . S
C199 C201 1.384 . S
H200 C202 0.949 . S
C201 C199 1.384 . S
C201 C202 1.385 . S
C201 H203 0.950 . S
C202 C196 1.404 . S
C202 H200 0.949 . S
C202 C201 1.385 . S
H203 C201 0.950 . S
H204 C188 0.951 1_655 S
H205 C190 0.951 . S
H206 C192 0.951 . S
H207 C193 0.950 . S
H208 C194 0.950 . S
H209 C195 0.950 . S
H210 C197 0.950 . S
H211 C198 0.951 . S
C212 C213 1.386 . S
C212 C214 1.383 . S
C212 H228 0.951 . S
C213 C212 1.386 . S
C213 C217 1.383 . S
C214 C212 1.383 . S
C214 C215 1.402 . S
C214 H229 0.951 1_455 S
C215 C214 1.402 . S
C215 C216 1.375 . S
C215 C218 1.481 . S
C216 C215 1.375 . S
C216 C217 1.367 . S
C216 H230 0.951 . S
C217 C213 1.383 . S
C217 C216 1.367 . S
C217 H231 0.950 . S
C218 C215 1.481 . S
C218 C219 1.297 1_455 S
C218 H232 0.950 . S
C219 C218 1.297 1_655 S
C219 C220 1.479 . S
C219 H233 0.950 . S
C220 C219 1.479 . S
C220 C221 1.375 . S
C220 C226 1.404 1_655 S
C221 C220 1.375 . S
C221 C222 1.369 . S
C221 H234 0.950 . S
C222 C221 1.369 . S
C222 C223 1.392 1_565 S
C222 H235 0.951 . S
C223 C222 1.392 1_545 S
C223 C225 1.369 1_655 S
H224 C226 0.949 . S
C225 C223 1.369 1_455 S
C225 C226 1.390 1_545 S
C225 H227 0.960 . S
C226 C220 1.404 1_455 S
C226 H224 0.949 . S
C226 C225 1.390 1_565 S
H227 C225 0.960 . S
H228 C212 0.951 . S
H229 C214 0.951 1_655 S
H230 C216 0.951 . S
H231 C217 0.950 . S
H232 C218 0.950 . S
H233 C219 0.950 . S
H234 C221 0.950 . S
H235 C222 0.951 . S
C236 C237 1.386 . S
C236 C238 1.383 . S
C236 H252 0.951 . S
C237 C236 1.386 . S
C237 C241 1.383 . S
C238 C236 1.383 . S
C238 C239 1.402 . S
C238 H253 0.951 . S
C239 C238 1.402 . S
C239 C240 1.368 1_556 S
C239 C242 1.481 . S
C240 C239 1.368 1_554 S
C240 C241 1.361 1_554 S
C240 H254 0.964 . S
C241 C237 1.383 . S
C241 C240 1.361 1_556 S
C241 H255 0.950 . S
C242 C239 1.481 . S
C242 C243 1.297 . S
C242 H256 0.950 1_556 S
C243 C242 1.297 . S
C243 C244 1.473 1_556 S
C243 H257 0.950 . S
C244 C243 1.473 1_554 S
C244 C245 1.368 1_554 S
C244 C250 1.418 . S
C245 C244 1.368 1_556 S
C245 C246 1.369 . S
C245 H258 0.950 . S
C246 C245 1.369 . S
C246 C247 1.392 1_556 S
C246 H259 0.951 . S
C247 C246 1.392 1_554 S
C247 C249 1.384 . S
H248 C250 0.949 . S
C249 C247 1.384 . S
C249 C250 1.385 . S
C249 H251 0.950 . S
C250 C244 1.418 . S
C250 H248 0.949 . S
C250 C249 1.385 . S
H251 C249 0.950 . S
H252 C236 0.951 . S
H253 C238 0.951 . S
H254 C240 0.964 . S
H255 C241 0.950 . S
H256 C242 0.950 1_554 S
H257 C243 0.950 . S
H258 C245 0.950 . S
H259 C246 0.951 . S
C260 C261 1.386 . S
C260 C262 1.383 . S
C260 H276 0.951 . S
C261 C260 1.386 . S
C261 C265 1.383 . S
C262 C260 1.383 . S
C262 C263 1.402 . S
C262 H277 0.951 . S
C263 C262 1.402 . S
C263 C264 1.375 . S
C263 C266 1.481 . S
C264 C263 1.375 . S
C264 C265 1.367 . S
C264 H278 0.951 . S
C265 C261 1.383 . S
C265 C264 1.367 . S
C265 H279 0.950 . S
C266 C263 1.481 . S
C266 C267 1.297 . S
C266 H280 0.950 . S
C267 C266 1.297 . S
C267 C268 1.479 . S
C267 H281 0.950 . S
C268 C267 1.479 . S
C268 C269 1.375 . S
C268 C274 1.404 . S
C269 C268 1.375 . S
C269 C270 1.369 . S
C269 H282 0.950 . S
C270 C269 1.369 . S
C270 C271 1.392 1_545 S
C270 H283 0.951 . S
C271 C270 1.392 1_565 S
C271 C273 1.384 . S
H272 C274 0.949 . S
C273 C271 1.384 . S
C273 C274 1.385 1_565 S
C273 H275 0.950 . S
C274 C268 1.404 . S
C274 H272 0.949 . S
C274 C273 1.385 1_545 S
H275 C273 0.950 . S
H276 C260 0.951 . S
H277 C262 0.951 . S
H278 C264 0.951 . S
H279 C265 0.950 . S
H280 C266 0.950 . S
H281 C267 0.950 . S
H282 C269 0.950 . S
H283 C270 0.951 . S
C284 C285 1.386 . S
C284 C286 1.383 . S
C284 H300 0.951 . S
C285 C284 1.386 . S
C285 C289 1.383 . S
C286 C284 1.383 . S
C286 C287 1.402 . S
C286 H301 0.951 . S
C287 C286 1.402 . S
C287 C288 1.375 . S
C287 C290 1.481 . S
C288 C287 1.375 . S
C288 C289 1.367 . S
C288 H302 0.951 . S
C289 C285 1.383 . S
C289 C288 1.367 . S
C289 H303 0.950 . S
C290 C287 1.481 . S
C290 C291 1.297 . S
C290 H304 0.950 . S
C291 C290 1.297 . S
C291 C292 1.479 . S
C291 H305 0.950 . S
C292 C291 1.479 . S
C292 C293 1.375 . S
C292 C298 1.404 . S
C293 C292 1.375 . S
C293 C294 1.369 . S
C293 H306 0.950 . S
C294 C293 1.369 . S
C294 C295 1.392 . S
C294 H307 0.951 . S
C295 C294 1.392 . S
C295 C297 1.384 . S
H296 C298 0.949 . S
C297 C295 1.384 . S
C297 C298 1.385 . S
C297 H299 0.950 . S
C298 C292 1.404 . S
C298 H296 0.949 . S
C298 C297 1.385 . S
H299 C297 0.950 . S
H300 C284 0.951 . S
H301 C286 0.951 . S
H302 C288 0.951 . S
H303 C289 0.950 . S
H304 C290 0.950 . S
H305 C291 0.950 . S
H306 C293 0.950 . S
H307 C294 0.951 . S
C308 C309 1.385 1_655 S
C308 C310 1.383 . S
C308 H324 0.951 . S
C309 C308 1.385 1_455 S
C309 C313 1.383 . S
C310 C308 1.383 . S
C310 C311 1.402 1_655 S
C310 H325 0.951 . S
C311 C310 1.402 1_455 S
C311 C312 1.375 . S
C311 C314 1.481 . S
C312 C311 1.375 . S
C312 C313 1.367 . S
C312 H326 0.951 . S
C313 C309 1.383 . S
C313 C312 1.367 . S
C313 H327 0.950 . S
C314 C311 1.481 . S
C314 C315 1.297 1_455 S
C314 H328 0.950 . S
C315 C314 1.297 1_655 S
C315 C316 1.479 . S
C315 H329 0.950 . S
C316 C315 1.479 . S
C316 C317 1.375 . S
C316 C322 1.404 . S
C317 C316 1.375 . S
C317 C318 1.369 . S
C317 H330 0.950 . S
C318 C317 1.369 . S
C318 C319 1.392 . S
C318 H331 0.951 . S
C319 C318 1.392 . S
C319 C321 1.384 . S
H320 C322 0.949 1_455 S
C321 C319 1.384 . S
C321 C322 1.385 . S
C321 H323 0.950 . S
C322 C316 1.404 . S
C322 H320 0.949 1_655 S
C322 C321 1.385 . S
H323 C321 0.950 . S
H324 C308 0.951 . S
H325 C310 0.951 . S
H326 C312 0.951 . S
H327 C313 0.950 . S
H328 C314 0.950 . S
H329 C315 0.950 . S
H330 C317 0.950 . S
H331 C318 0.951 . S
C332 C333 1.385 1_655 S
C332 C334 1.387 . S
C332 H348 0.947 1_655 S
C333 C332 1.385 1_455 S
C333 C337 1.383 1_455 S
C334 C332 1.387 . S
C334 C335 1.402 . S
C334 H349 0.951 1_556 S
C335 C334 1.402 . S
C335 C336 1.375 . S
C335 C338 1.481 . S
C336 C335 1.375 . S
C336 C337 1.367 . S
C336 H350 0.951 . S
C337 C333 1.383 1_655 S
C337 C336 1.367 . S
C337 H351 0.950 . S
C338 C335 1.481 . S
C338 C339 1.297 1_556 S
C338 H352 0.950 . S
C339 C338 1.297 1_554 S
C339 C340 1.479 . S
C339 H353 0.950 . S
C340 C339 1.479 . S
C340 C341 1.375 . S
C340 C346 1.404 . S
C341 C340 1.375 . S
C341 C342 1.369 . S
C341 H354 0.950 . S
C342 C341 1.369 . S
C342 C343 1.392 . S
C342 H355 0.951 . S
C343 C342 1.392 . S
C343 C345 1.384 . S
H344 C346 0.949 1_556 S
C345 C343 1.384 . S
C345 C346 1.385 . S
C345 H347 0.950 . S
C346 C340 1.404 . S
C346 H344 0.949 1_554 S
C346 C345 1.385 . S
H347 C345 0.950 . S
H348 C332 0.947 1_455 S
H349 C334 0.951 1_554 S
H350 C336 0.951 . S
H351 C337 0.950 . S
H352 C338 0.950 . S
H353 C339 0.950 . S
H354 C341 0.950 . S
H355 C342 0.951 . S
C356 C357 1.386 . S
C356 C358 1.383 . S
C356 H372 0.951 . S
C357 C356 1.386 . S
C357 C361 1.383 . S
C358 C356 1.383 . S
C358 C359 1.402 . S
C358 H373 0.951 . S
C359 C358 1.402 . S
C359 C360 1.375 . S
C359 C362 1.481 . S
C360 C359 1.375 . S
C360 C361 1.367 . S
C360 H374 0.951 . S
C361 C357 1.383 . S
C361 C360 1.367 . S
C361 H375 0.950 . S
C362 C359 1.481 . S
C362 C363 1.297 . S
C362 H376 0.950 . S
C363 C362 1.297 . S
C363 C364 1.479 . S
C363 H377 0.950 . S
C364 C363 1.479 . S
C364 C365 1.375 . S
C364 C370 1.404 . S
C365 C364 1.375 . S
C365 C366 1.369 . S
C365 H378 0.950 . S
C366 C365 1.369 . S
C366 C367 1.392 . S
C366 H379 0.951 . S
C367 C366 1.392 . S
C367 C369 1.384 . S
H368 C370 0.949 . S
C369 C367 1.384 . S
C369 C370 1.385 . S
C369 H371 0.950 . S
C370 C364 1.404 . S
C370 H368 0.949 . S
C370 C369 1.385 . S
H371 C369 0.950 . S
H372 C356 0.951 . S
H373 C358 0.951 . S
H374 C360 0.951 . S
H375 C361 0.950 . S
H376 C362 0.950 . S
H377 C363 0.950 . S
H378 C365 0.950 . S
H379 C366 0.951 . S
C93 C63 1.542 . S
C103 C17 1.539 . S
C117 C90 1.165 . S
C127 C43 1.197 . S
C141 C64 1.361 . S
C151 C18 1.393 . S
C165 C89 1.208 . S
C175 C44 1.120 . S
C189 C41 1.199 . S
C199 C19 1.191 . S
C213 C62 1.581 . S
C223 C39 1.575 . S
C237 C66 1.194 . S
C247 C87 1.192 . S
C261 C21 1.295 . S
C271 C85 1.283 . S
C285 C40 1.600 . S
C295 C16 1.576 . S
C309 C65 1.159 . S
C319 C42 1.157 . S
C333 C67 1.284 . S
C343 C86 1.271 . S
C357 C88 1.196 . S
C367 C20 1.191 . S
