# Generated by pormake.
# Topology est, (5)-cn, num edge types: 1
# Building blocks:
#     Node 0, Type 0, BuildingBlock: XOMCOT_clean_sbu_0, # of connection points: 5
#     Node 1, Type 0, BuildingBlock: XOMCOT_clean_sbu_0, # of connection points: 5
#     Node 2, Type 0, BuildingBlock: XOMCOT_clean_sbu_0, # of connection points: 5
#     Node 3, Type 0, BuildingBlock: XOMCOT_clean_sbu_0, # of connection points: 5
#     Edge 4, Type (0, 0), BuildingBlock: FUNLAD_clean_linker_1, # of connection points: 2
#     Edge 5, Type (0, 0), BuildingBlock: FUNLAD_clean_linker_1, # of connection points: 2
#     Edge 6, Type (0, 0), BuildingBlock: FUNLAD_clean_linker_1, # of connection points: 2
#     Edge 7, Type (0, 0), BuildingBlock: FUNLAD_clean_linker_1, # of connection points: 2
#     Edge 8, Type (0, 0), BuildingBlock: FUNLAD_clean_linker_1, # of connection points: 2
#     Edge 9, Type (0, 0), BuildingBlock: FUNLAD_clean_linker_1, # of connection points: 2
#     Edge 10, Type (0, 0), BuildingBlock: FUNLAD_clean_linker_1, # of connection points: 2
#     Edge 11, Type (0, 0), BuildingBlock: FUNLAD_clean_linker_1, # of connection points: 2
#     Edge 12, Type (0, 0), BuildingBlock: FUNLAD_clean_linker_1, # of connection points: 2
#     Edge 13, Type (0, 0), BuildingBlock: FUNLAD_clean_linker_1, # of connection points: 2
# Relax obj value: 0.175
# Max RMSD: 0.239
# Mean RMSD: 0.239
data_MOF--net-est--node1-XOMCOT_clean_sbu_0--edge1-FUNLAD_clean_linker_1
_symmetry_space_group_name_H-M    P1
_symmetry_Int_Tables_number       1
_symmetry_cell_setting            triclinic
loop_
_symmetry_equiv_pos_as_xyz
'x, y, z'
_cell_length_a     17.804718
_cell_length_b     17.531589
_cell_length_c     55.413075
_cell_angle_alpha  88.374445
_cell_angle_beta   93.538221
_cell_angle_gamma 91.189512
loop_
_atom_site_label
_atom_site_type_symbol
_atom_site_fract_x
_atom_site_fract_y
_atom_site_fract_z
_atom_type_partial_charge
Co0 Co 0.26517 0.28515 0.58028 0.0
C1 C 0.09973 0.30768 0.58044 0.0
C2 C 0.16003 0.41468 0.58208 0.0
C3 C 0.08413 0.42838 0.58216 0.0
N4 N 0.17018 0.33874 0.58111 0.0
N5 N 0.04638 0.36118 0.58117 0.0
H6 H 0.08765 0.24722 0.5794 0.0
H7 H 0.20402 0.45795 0.58268 0.0
C8 C 0.35494 0.43398 0.5736 0.0
O9 O 0.37893 0.49701 0.58411 0.0
N10 N 0.359 0.22994 0.57977 0.0
C11 C 0.36445 0.1532 0.58059 0.0
C12 C 0.43904 0.13415 0.58116 0.0
C13 C 0.43112 0.25637 0.58036 0.0
N14 N 0.48088 0.19884 0.58107 0.0
C15 C 0.20759 0.22061 0.62384 0.0
C16 C 0.31955 0.27844 0.65543 0.0
C17 C 0.25939 0.23669 0.66499 0.0
C18 C 0.20349 0.20712 0.64872 0.0
C19 C 0.32141 0.29074 0.6304 0.0
N20 N 0.2648 0.26378 0.61497 0.0
H21 H 0.16429 0.19659 0.6117 0.0
H22 H 0.36861 0.32231 0.62355 0.0
H23 H 0.31756 0.11319 0.58118 0.0
H24 H 0.4472 0.31588 0.58076 0.0
O25 O 0.21022 0.19622 0.56855 0.0
O26 O 0.25464 0.289 0.54517 0.0
O27 O 0.32078 0.38447 0.58655 0.0
C28 C 0.2165 0.22519 0.54692 0.0
H29 H 0.05848 0.48364 0.58297 0.0
H30 H 0.46109 0.07698 0.58187 0.0
H31 H 0.3644 0.30305 0.66691 0.0
H32 H 0.15641 0.174 0.65521 0.0
Co33 Co 0.78949 0.7349 0.08513 0.0
C34 C 0.75093 0.56898 0.08272 0.0
C35 C 0.67332 0.63545 0.06039 0.0
C36 C 0.65726 0.55934 0.05669 0.0
N37 N 0.73119 0.64201 0.0772 0.0
N38 N 0.70634 0.51764 0.07062 0.0
H39 H 0.80021 0.55376 0.09397 0.0
H40 H 0.64783 0.68197 0.04994 0.0
C41 C 0.63666 0.81083 0.07271 0.0
O42 O 0.59615 0.76793 0.08699 0.0
N43 N 0.84729 0.82722 0.09235 0.0
C44 C 0.89965 0.83709 0.11065 0.0
C45 C 0.91617 0.91413 0.11239 0.0
C46 C 0.83334 0.89801 0.08308 0.0
N47 N 0.87366 0.95226 0.09526 0.0
C48 C 0.77364 0.67232 0.13267 0.0
C49 C 0.70614 0.79598 0.1516 0.0
C50 C 0.72515 0.73319 0.167 0.0
C51 C 0.7588 0.6709 0.15707 0.0
C52 C 0.72198 0.79498 0.12709 0.0
N53 N 0.75467 0.73317 0.11784 0.0
H54 H 0.80392 0.62562 0.12608 0.0
H55 H 0.71108 0.84541 0.11589 0.0
H56 H 0.92082 0.79205 0.12281 0.0
H57 H 0.79222 0.90988 0.06839 0.0
O58 O 0.87936 0.67496 0.09079 0.0
O59 O 0.8379 0.72599 0.0554 0.0
O60 O 0.70663 0.80091 0.07134 0.0
C61 C 0.88648 0.68346 0.06762 0.0
H62 H 0.61564 0.53638 0.04363 0.0
H63 H 0.95325 0.94052 0.1261 0.0
H64 H 0.68234 0.84679 0.15838 0.0
H65 H 0.77592 0.62196 0.16832 0.0
Co66 Co 0.75681 0.7868 0.43802 0.0
C67 C 0.91988 0.76642 0.43334 0.0
C68 C 0.86861 0.66272 0.44605 0.0
C69 C 0.94536 0.65285 0.4463 0.0
N70 N 0.85233 0.73411 0.43775 0.0
N71 N 0.97705 0.71854 0.43837 0.0
H72 H 0.92817 0.82517 0.42745 0.0
H73 H 0.82888 0.62131 0.45276 0.0
C74 C 0.68014 0.62699 0.44321 0.0
O75 O 0.6916 0.60304 0.42153 0.0
N76 N 0.6624 0.83849 0.43919 0.0
C77 C 0.63368 0.89253 0.42368 0.0
C78 C 0.55748 0.89726 0.42677 0.0
C79 C 0.60451 0.81344 0.45199 0.0
N80 N 0.53964 0.84652 0.44441 0.0
C81 C 0.78535 0.78617 0.38785 0.0
C82 C 0.64418 0.73716 0.37066 0.0
C83 C 0.69781 0.75703 0.35395 0.0
C84 C 0.76929 0.78198 0.36295 0.0
C85 C 0.66272 0.74209 0.39553 0.0
N86 N 0.7331 0.7654 0.40393 0.0
H87 H 0.83902 0.80995 0.3941 0.0
H88 H 0.61954 0.72934 0.40799 0.0
H89 H 0.66408 0.92053 0.40951 0.0
H90 H 0.60777 0.76669 0.46515 0.0
O91 O 0.80836 0.88461 0.43405 0.0
O92 O 0.78837 0.82606 0.46919 0.0
O93 O 0.70571 0.6913 0.45053 0.0
C94 C 0.81728 0.8839 0.45758 0.0
H95 H 0.97525 0.60241 0.45272 0.0
H96 H 0.51766 0.92966 0.41529 0.0
H97 H 0.58773 0.71935 0.36453 0.0
H98 H 0.8119 0.80185 0.35106 0.0
Co99 Co 0.19244 0.23108 0.93636 0.0
C100 C 0.23213 0.39425 0.93048 0.0
C101 C 0.29909 0.34093 0.95929 0.0
C102 C 0.30964 0.41878 0.9606 0.0
N103 N 0.25091 0.32521 0.94021 0.0
N104 N 0.26664 0.45195 0.94257 0.0
H105 H 0.18735 0.40327 0.91674 0.0
H106 H 0.31884 0.29971 0.97297 0.0
C107 C 0.3488 0.16631 0.95127 0.0
O108 O 0.38882 0.21352 0.93816 0.0
N109 N 0.13477 0.13727 0.93363 0.0
C110 C 0.0939 0.1108 0.91427 0.0
C111 C 0.0823 0.03317 0.91776 0.0
C112 C 0.14529 0.07664 0.94881 0.0
N113 N 0.1158 0.01207 0.93941 0.0
C114 C 0.19244 0.27187 0.886 0.0
C115 C 0.28277 0.15656 0.87229 0.0
C116 C 0.25431 0.20877 0.85456 0.0
C117 C 0.20871 0.26721 0.86178 0.0
C118 C 0.26477 0.16314 0.89643 0.0
N119 N 0.22182 0.22175 0.90318 0.0
H120 H 0.15444 0.31517 0.89071 0.0
H121 H 0.28368 0.1196 0.90939 0.0
H122 H 0.07976 0.14382 0.8979 0.0
H123 H 0.18067 0.07811 0.9654 0.0
O124 O 0.10153 0.28953 0.93046 0.0
O125 O 0.14967 0.24986 0.96646 0.0
O126 O 0.2776 0.16927 0.95083 0.0
C127 C 0.09891 0.28867 0.9539 0.0
H128 H 0.34139 0.44819 0.97491 0.0
H129 H 0.05711 0.99492 0.90445 0.0
H130 H 0.31738 0.10995 0.86743 0.0
H131 H 0.18591 0.30979 0.84901 0.0
H132 H 0.93207 0.40281 0.58209 0.0
C133 C 0.96564 0.35186 0.58143 0.0
H134 H 0.96146 0.23123 0.58012 0.0
H135 H 0.63467 0.3135 0.62503 0.0
H136 H 0.71031 0.35465 0.66034 0.0
H137 H 0.8489 0.3584 0.66056 0.0
H138 H 0.91268 0.32158 0.62543 0.0
C139 C 0.93022 0.2832 0.58144 0.0
C140 C 0.84652 0.27639 0.58207 0.0
C141 C 0.80997 0.29729 0.6029 0.0
C142 C 0.72996 0.29389 0.60292 0.0
C143 C 0.69515 0.31524 0.62396 0.0
C144 C 0.73791 0.33872 0.64441 0.0
C145 C 0.81593 0.34092 0.64452 0.0
C146 C 0.85183 0.3202 0.62412 0.0
H147 H 0.59167 0.14835 0.58062 0.0
C148 C 0.56201 0.20176 0.58142 0.0
H149 H 0.57488 0.3212 0.58427 0.0
H150 H 0.89858 0.22624 0.53997 0.0
H151 H 0.82281 0.18262 0.50499 0.0
H152 H 0.68441 0.18302 0.50418 0.0
H153 H 0.62048 0.22351 0.53878 0.0
C154 C 0.60241 0.26735 0.58232 0.0
C155 C 0.68641 0.26827 0.58232 0.0
C156 C 0.72303 0.24634 0.5616 0.0
C157 C 0.8031 0.24916 0.56166 0.0
C158 C 0.83804 0.22585 0.54087 0.0
C159 C 0.7953 0.20119 0.52057 0.0
C160 C 0.71729 0.20087 0.5202 0.0
C161 C 0.68128 0.22353 0.54033 0.0
H162 H 0.67193 0.40393 0.05856 0.0
C163 C 0.71281 0.43571 0.06992 0.0
H164 H 0.80863 0.42703 0.09425 0.0
H165 H 0.76627 0.08091 0.12366 0.0
H166 H 0.73096 0.14142 0.1599 0.0
H167 H 0.71605 0.28086 0.16066 0.0
H168 H 0.73545 0.36048 0.12502 0.0
C169 C 0.76852 0.39744 0.08215 0.0
C170 C 0.77512 0.3128 0.08106 0.0
C171 C 0.76561 0.26707 0.10222 0.0
C172 C 0.77587 0.18676 0.10194 0.0
C173 C 0.76202 0.14236 0.12303 0.0
C174 C 0.74105 0.17631 0.14395 0.0
C175 C 0.73257 0.25479 0.14437 0.0
C176 C 0.74425 0.29987 0.12379 0.0
H177 H 0.90522 0.0694 0.10439 0.0
C178 C 0.86631 0.03419 0.09341 0.0
H179 H 0.76969 0.03507 0.06905 0.0
H180 H 0.80003 0.38321 0.03729 0.0
H181 H 0.8356 0.32262 1.00114 0.0
H182 H 0.85352 0.18355 1.00074 0.0
H183 H 0.83647 0.10433 0.03667 0.0
C184 C 0.80942 0.06821 0.08029 0.0
C185 C 0.79795 0.15234 0.08067 0.0
C186 C 0.80611 0.1978 0.05937 0.0
C187 C 0.79487 0.27804 0.05954 0.0
C188 C 0.80596 0.32198 0.03815 0.0
C189 C 0.82683 0.28793 0.01724 0.0
C190 C 0.83711 0.20967 0.01703 0.0
C191 C 0.82702 0.16487 0.03778 0.0
H192 H 0.46487 0.75811 0.45807 0.0
C193 C 0.46704 0.81451 0.44936 0.0
H194 H 0.40309 0.90373 0.43297 0.0
H195 H 0.12913 0.69592 0.39758 0.0
H196 H 0.1784 0.74049 0.3597 0.0
H197 H 0.29782 0.81432 0.35936 0.0
H198 H 0.36848 0.84405 0.39675 0.0
C199 C 0.40233 0.8482 0.44212 0.0
C200 C 0.32952 0.80494 0.44277 0.0
C201 C 0.28864 0.7888 0.42064 0.0
C202 C 0.21952 0.74688 0.4208 0.0
C203 C 0.18075 0.72968 0.39846 0.0
C204 C 0.20878 0.75423 0.3766 0.0
C205 C 0.27603 0.7957 0.37641 0.0
C206 C 0.31589 0.81267 0.39808 0.0
H207 H 0.06867 0.79762 0.43087 0.0
C208 C 0.05516 0.73978 0.43709 0.0
H209 H 0.10115 0.6355 0.45071 0.0
H210 H 0.39148 0.82779 0.48873 0.0
H211 H 0.34797 0.77174 0.52596 0.0
H212 H 0.23336 0.69018 0.52562 0.0
H213 H 0.16047 0.66612 0.48805 0.0
C214 C 0.11192 0.69276 0.44368 0.0
C215 C 0.19098 0.72179 0.44304 0.0
C216 C 0.23472 0.73222 0.46495 0.0
C217 C 0.30284 0.77607 0.46496 0.0
C218 C 0.34178 0.79134 0.48743 0.0
C219 C 0.31697 0.76014 0.50899 0.0
C220 C 0.25232 0.71444 0.50882 0.0
C221 C 0.21101 0.70111 0.48714 0.0
H222 H 0.17655 0.93329 0.96416 0.0
C223 C 0.13729 0.93723 0.94834 0.0
H224 H 0.08238 0.87577 0.91999 0.0
H225 H 0.33654 0.63475 0.91642 0.0
H226 H 0.3533 0.70957 0.87958 0.0
H227 H 0.28229 0.82753 0.87084 0.0
H228 H 0.19466 0.87153 0.8989 0.0
C229 C 0.11902 0.87343 0.93636 0.0
C230 C 0.16112 0.80201 0.94204 0.0
C231 C 0.21081 0.7762 0.9251 0.0
C232 C 0.2508 0.70761 0.92989 0.0
C233 C 0.30266 0.68496 0.91321 0.0
C234 C 0.31341 0.7278 0.89212 0.0
C235 C 0.27352 0.79423 0.88722 0.0
C236 C 0.22302 0.81861 0.90347 0.0
H237 H 0.20753 0.54577 0.9239 0.0
C238 C 0.24684 0.53082 0.93904 0.0
H239 H 0.30718 0.57244 0.97022 0.0
H240 H 0.07374 0.83748 0.97909 0.0
H241 H 0.06438 0.76708 0.01711 0.0
H242 H 0.13363 0.64785 0.0253 0.0
H243 H 0.21339 0.59881 0.99565 0.0
C244 C 0.2704 0.5856 0.9544 0.0
C245 C 0.23948 0.6638 0.9513 0.0
C246 C 0.19398 0.69222 0.96902 0.0
C247 C 0.1543 0.76126 0.96433 0.0
C248 C 0.10703 0.78681 0.98197 0.0
C249 C 0.10074 0.74665 1.00383 0.0
C250 C 0.13967 0.67945 1.00843 0.0
C251 C 0.18529 0.65193 0.99123 0.0
H252 H 0.3264 0.17488 0.82548 0.0
C253 C 0.27405 0.20228 0.82894 0.0
H254 H 0.17643 0.25454 0.81292 0.0
H255 H 0.30858 0.38264 0.71785 0.0
H256 H 0.30094 0.49844 0.74039 0.0
H257 H 0.2726 0.49283 0.78342 0.0
H258 H 0.25145 0.37142 0.80417 0.0
C259 C 0.22969 0.22836 0.81 0.0
C260 C 0.25354 0.2298 0.78463 0.0
C261 C 0.26686 0.30121 0.7728 0.0
C262 C 0.28421 0.30442 0.74805 0.0
C263 C 0.29599 0.37672 0.73667 0.0
C264 C 0.29168 0.44373 0.74939 0.0
C265 C 0.27563 0.44058 0.7736 0.0
C266 C 0.26337 0.37041 0.78527 0.0
H267 H 0.19644 0.20389 0.69709 0.0
C268 C 0.25068 0.22527 0.69151 0.0
H269 H 0.35956 0.26256 0.70453 0.0
H270 H 0.22763 0.08352 0.80125 0.0
H271 H 0.23961 0.9676 0.77907 0.0
H272 H 0.27618 0.973 0.73683 0.0
H273 H 0.29993 0.09455 0.71638 0.0
C274 C 0.30455 0.24083 0.70895 0.0
C275 C 0.28839 0.23623 0.73509 0.0
C276 C 0.27703 0.16465 0.74706 0.0
C277 C 0.25851 0.16144 0.77174 0.0
C278 C 0.24409 0.08931 0.78283 0.0
C279 C 0.25042 0.02227 0.77026 0.0
C280 C 0.27082 0.02532 0.74645 0.0
C281 C 0.28399 0.09548 0.73489 0.0
H282 H 0.74755 0.68748 0.20425 0.0
C283 C 0.71733 0.73163 0.19366 0.0
H284 H 0.64617 0.8262 0.19616 0.0
H285 H 0.65222 0.6282 0.30229 0.0
H286 H 0.58409 0.52926 0.27983 0.0
H287 H 0.5562 0.54424 0.23581 0.0
H288 H 0.59752 0.65787 0.2139 0.0
C289 C 0.67707 0.78069 0.20566 0.0
C290 C 0.68004 0.77783 0.23271 0.0
C291 C 0.65245 0.71274 0.24548 0.0
C292 C 0.66586 0.70551 0.27106 0.0
C293 C 0.6416 0.63783 0.28304 0.0
C294 C 0.60265 0.5804 0.27034 0.0
C295 C 0.58714 0.58873 0.24554 0.0
C296 C 0.6116 0.65397 0.23316 0.0
H297 H 0.61643 0.75906 0.32188 0.0
C298 C 0.67598 0.75699 0.32749 0.0
H299 H 0.78604 0.75213 0.31521 0.0
H300 H 0.73393 0.91336 0.21425 0.0
H301 H 0.795 0.01583 0.23699 0.0
H302 H 0.81421 0.00534 0.28141 0.0
H303 H 0.77281 0.89204 0.30338 0.0
C304 C 0.72627 0.75524 0.3103 0.0
C305 C 0.70432 0.76478 0.28397 0.0
C306 C 0.7274 0.83201 0.27137 0.0
C307 C 0.71536 0.83852 0.24576 0.0
C308 C 0.7409 0.90557 0.23369 0.0
C309 C 0.77612 0.9649 0.24652 0.0
C310 C 0.78702 0.95896 0.27153 0.0
C311 C 0.76315 0.89347 0.2839 0.0
H312 H 0.37746 0.36372 0.54192 0.0
C313 C 0.37514 0.4213 0.54844 0.0
H314 H 0.39738 0.53833 0.54132 0.0
H315 H 0.67695 0.4434 0.48185 0.0
H316 H 0.73438 0.40614 0.52128 0.0
H317 H 0.66025 0.40411 0.55737 0.0
H318 H 0.52657 0.42849 0.55403 0.0
C319 C 0.40105 0.48046 0.53501 0.0
C320 C 0.44313 0.47217 0.51281 0.0
C321 C 0.52076 0.45449 0.51506 0.0
C322 C 0.56534 0.46282 0.49466 0.0
C323 C 0.64187 0.44193 0.49713 0.0
C324 C 0.67529 0.42006 0.51956 0.0
C325 C 0.63324 0.41768 0.53984 0.0
C326 C 0.55658 0.43278 0.53767 0.0
H327 H 0.63816 0.60141 0.4788 0.0
C328 C 0.63509 0.58227 0.46024 0.0
H329 H 0.57719 0.50941 0.43536 0.0
H330 H 0.29563 0.50397 0.50177 0.0
H331 H 0.2415 0.5535 0.46323 0.0
H332 H 0.32096 0.5786 0.42886 0.0
H333 H 0.4544 0.55124 0.43237 0.0
C334 C 0.58539 0.5263 0.45406 0.0
C335 C 0.53422 0.49512 0.4726 0.0
C336 C 0.45594 0.50955 0.47001 0.0
C337 C 0.41032 0.49721 0.49008 0.0
C338 C 0.3327 0.51335 0.48716 0.0
C339 C 0.30105 0.54178 0.46519 0.0
C340 C 0.34577 0.55561 0.44579 0.0
C341 C 0.42232 0.53973 0.44806 0.0
H342 H 0.34351 0.07844 0.97966 0.0
C343 C 0.38265 0.10998 0.96857 0.0
H344 H 0.49737 0.12746 0.96198 0.0
H345 H 0.58173 0.01293 0.07067 0.0
H346 H 0.63215 0.14248 0.07041 0.0
H347 H 0.61541 0.22618 0.03405 0.0
H348 H 0.54615 0.18142 0.99791 0.0
C349 C 0.45608 0.09552 0.97203 0.0
C350 C 0.48061 0.03996 0.99175 0.0
C351 C 0.52304 0.06637 0.01245 0.0
C352 C 0.53489 0.01729 0.03317 0.0
C353 C 0.57381 0.04665 0.05409 0.0
C354 C 0.60254 0.12115 0.05426 0.0
C355 C 0.59274 0.16839 0.03383 0.0
C356 C 0.5529 0.1419 0.01319 0.0
H357 H 0.64343 0.89985 0.04469 0.0
C358 C 0.60399 0.86925 0.05591 0.0
H359 H 0.48919 0.85387 0.06269 0.0
H360 H 0.40605 0.96753 0.95387 0.0
H361 H 0.35456 0.83836 0.95425 0.0
H362 H 0.37211 0.75443 0.99054 0.0
H363 H 0.4418 0.79907 0.02662 0.0
C364 C 0.53086 0.88529 0.05265 0.0
C365 C 0.50691 0.94072 0.03284 0.0
C366 C 0.46468 0.91421 0.01211 0.0
C367 C 0.45281 0.96328 0.99139 0.0
C368 C 0.41386 0.93388 0.97047 0.0
C369 C 0.38474 0.85951 0.97033 0.0
C370 C 0.39484 0.8122 0.99075 0.0
C371 C 0.43491 0.83864 0.01135 0.0
H372 H 0.86876 0.9353 0.49043 0.0
C373 C 0.86579 0.93983 0.47078 0.0
H374 H 0.91274 0.99284 0.44021 0.0
H375 H 0.0474 0.25585 0.51097 0.0
H376 H 0.95402 0.32732 0.48663 0.0
H377 H 0.87007 0.2637 0.45598 0.0
H378 H 0.87778 0.12727 0.45 0.0
C379 C 0.91374 0.98768 0.45981 0.0
C380 C 0.97398 0.029 0.47443 0.0
C381 C 0.97081 0.10894 0.47706 0.0
C382 C 0.02111 0.14604 0.49419 0.0
C383 C 0.01286 0.22508 0.49764 0.0
C384 C 0.95913 0.26682 0.48385 0.0
C385 C 0.91177 0.23098 0.46661 0.0
C386 C 0.91671 0.15276 0.46337 0.0
H387 H 0.18753 0.21278 0.50769 0.0
C388 C 0.17608 0.19099 0.52567 0.0
H389 H 0.11067 0.11566 0.54652 0.0
H390 H 0.0055 0.87806 0.46987 0.0
H391 H 0.10228 0.80715 0.49257 0.0
H392 H 0.19077 0.87094 0.52201 0.0
H393 H 0.1811 0.00626 0.52916 0.0
C394 C 0.12169 0.13764 0.52851 0.0
C395 C 0.07644 0.1032 0.50793 0.0
C396 C 0.08335 0.0243 0.50379 0.0
C397 C 0.03244 0.98732 0.48693 0.0
C398 C 0.04128 0.90865 0.48295 0.0
C399 C 0.09744 0.86735 0.49566 0.0
C400 C 0.14694 0.90326 0.51226 0.0
C401 C 0.14046 0.98087 0.51628 0.0
H402 H 0.98933 0.61671 0.06454 0.0
C403 C 0.93716 0.63507 0.05515 0.0
H404 H 0.85903 0.62021 0.02539 0.0
H405 H 0.08212 0.48299 0.95514 0.0
H406 H 0.0519 0.60325 0.93478 0.0
H407 H 0.97426 0.69691 0.95372 0.0
H408 H 0.92978 0.67224 0.99369 0.0
C409 C 0.91266 0.60344 0.03421 0.0
C410 C 0.95491 0.54406 0.02239 0.0
C411 C 0.97727 0.558 0.9985 0.0
C412 C 0.01831 0.50224 0.98698 0.0
C413 C 0.04642 0.52086 0.96411 0.0
C414 C 0.03009 0.59018 0.95227 0.0
C415 C 0.9866 0.64298 0.96296 0.0
C416 C 0.96111 0.62784 0.98591 0.0
H417 H -0.00163 0.35955 0.95622 0.0
C418 C 0.04982 0.34014 0.96582 0.0
H419 H 0.12669 0.3528 0.99606 0.0
H420 H 0.91208 0.494 0.06725 0.0
H421 H 0.94188 0.3733 0.08728 0.0
H422 H 0.00949 0.27535 0.06669 0.0
H423 H 0.04999 0.29884 0.0262 0.0
C424 C 0.07407 0.37106 0.98689 0.0
C425 C 0.03197 0.43038 0.9987 0.0
C426 C 0.00851 0.41582 0.02241 0.0
C427 C 0.96977 0.47256 0.0343 0.0
C428 C 0.94495 0.45507 0.05769 0.0
C429 C 0.9607 0.38527 0.06934 0.0
C430 C -0.00126 0.33009 0.05775 0.0
C431 C 0.0219 0.34455 0.0345 0.0
loop_
_geom_bond_atom_site_label_1
_geom_bond_atom_site_label_2
_geom_bond_distance
_geom_bond_site_symmetry_2
_ccdc_geom_bond_type
Co0 N4 2.148 . S
Co0 N10 2.128 . S
Co0 N20 2.194 . S
Co0 O25 2.351 . S
Co0 O26 2.155 . S
Co0 O27 2.096 . S
C1 N4 1.301 . S
C1 N5 1.328 . S
C1 H6 0.930 . S
C2 C3 1.333 . S
C2 N4 1.317 . S
C2 H7 0.930 . S
C3 C2 1.333 . S
C3 N5 1.350 . S
C3 H29 0.931 . S
N4 Co0 2.148 . S
N4 C1 1.301 . S
N4 C2 1.317 . S
N5 C1 1.328 . S
N5 C3 1.350 . S
H6 C1 0.930 . S
H7 C2 0.930 . S
C8 O9 1.224 . S
C8 O27 1.247 . S
O9 C8 1.224 . S
N10 Co0 2.128 . S
N10 C11 1.355 . S
N10 C13 1.311 . S
C11 N10 1.355 . S
C11 C12 1.363 . S
C11 H23 0.929 . S
C12 C11 1.363 . S
C12 N14 1.375 . S
C12 H30 0.931 . S
C13 N10 1.311 . S
C13 N14 1.347 . S
C13 H24 0.929 . S
N14 C12 1.375 . S
N14 C13 1.347 . S
C15 C18 1.365 . S
C15 N20 1.328 . S
C15 H21 0.929 . S
C16 C17 1.362 . S
C16 C19 1.378 . S
C16 H31 0.929 . S
C17 C16 1.362 . S
C17 C18 1.366 . S
C18 C15 1.365 . S
C18 C17 1.366 . S
C18 H32 0.930 . S
C19 C16 1.378 . S
C19 N20 1.315 . S
C19 H22 0.930 . S
N20 Co0 2.194 . S
N20 C15 1.328 . S
N20 C19 1.315 . S
H21 C15 0.929 . S
H22 C19 0.930 . S
H23 C11 0.929 . S
H24 C13 0.929 . S
O25 Co0 2.351 . S
O25 C28 1.244 . S
O26 Co0 2.155 . S
O26 C28 1.240 . S
O27 Co0 2.096 . S
O27 C8 1.247 . S
C28 O25 1.244 . S
C28 O26 1.240 . S
H29 C3 0.931 . S
H30 C12 0.931 . S
H31 C16 0.929 . S
H32 C18 0.930 . S
Co33 N37 2.148 . S
Co33 N43 2.128 . S
Co33 N53 2.194 . S
Co33 O58 2.351 . S
Co33 O59 2.155 . S
Co33 O60 2.096 . S
C34 N37 1.301 . S
C34 N38 1.328 . S
C34 H39 0.930 . S
C35 C36 1.333 . S
C35 N37 1.317 . S
C35 H40 0.930 . S
C36 C35 1.333 . S
C36 N38 1.350 . S
C36 H62 0.931 . S
N37 Co33 2.148 . S
N37 C34 1.301 . S
N37 C35 1.317 . S
N38 C34 1.328 . S
N38 C36 1.350 . S
H39 C34 0.930 . S
H40 C35 0.930 . S
C41 O42 1.224 . S
C41 O60 1.247 . S
O42 C41 1.224 . S
N43 Co33 2.128 . S
N43 C44 1.355 . S
N43 C46 1.311 . S
C44 N43 1.355 . S
C44 C45 1.363 . S
C44 H56 0.929 . S
C45 C44 1.363 . S
C45 N47 1.375 . S
C45 H63 0.931 . S
C46 N43 1.311 . S
C46 N47 1.347 . S
C46 H57 0.929 . S
N47 C45 1.375 . S
N47 C46 1.347 . S
C48 C51 1.365 . S
C48 N53 1.328 . S
C48 H54 0.929 . S
C49 C50 1.362 . S
C49 C52 1.378 . S
C49 H64 0.929 . S
C50 C49 1.362 . S
C50 C51 1.366 . S
C51 C48 1.365 . S
C51 C50 1.366 . S
C51 H65 0.930 . S
C52 C49 1.378 . S
C52 N53 1.315 . S
C52 H55 0.930 . S
N53 Co33 2.194 . S
N53 C48 1.328 . S
N53 C52 1.315 . S
H54 C48 0.929 . S
H55 C52 0.930 . S
H56 C44 0.929 . S
H57 C46 0.929 . S
O58 Co33 2.351 . S
O58 C61 1.244 . S
O59 Co33 2.155 . S
O59 C61 1.240 . S
O60 Co33 2.096 . S
O60 C41 1.247 . S
C61 O58 1.244 . S
C61 O59 1.240 . S
H62 C36 0.931 . S
H63 C45 0.931 . S
H64 C49 0.929 . S
H65 C51 0.930 . S
Co66 N70 2.148 . S
Co66 N76 2.128 . S
Co66 N86 2.194 . S
Co66 O91 2.351 . S
Co66 O92 2.155 . S
Co66 O93 2.096 . S
C67 N70 1.301 . S
C67 N71 1.328 . S
C67 H72 0.930 . S
C68 C69 1.333 . S
C68 N70 1.317 . S
C68 H73 0.930 . S
C69 C68 1.333 . S
C69 N71 1.350 . S
C69 H95 0.931 . S
N70 Co66 2.148 . S
N70 C67 1.301 . S
N70 C68 1.317 . S
N71 C67 1.328 . S
N71 C69 1.350 . S
H72 C67 0.930 . S
H73 C68 0.930 . S
C74 O75 1.224 . S
C74 O93 1.247 . S
O75 C74 1.224 . S
N76 Co66 2.128 . S
N76 C77 1.355 . S
N76 C79 1.311 . S
C77 N76 1.355 . S
C77 C78 1.363 . S
C77 H89 0.929 . S
C78 C77 1.363 . S
C78 N80 1.375 . S
C78 H96 0.931 . S
C79 N76 1.311 . S
C79 N80 1.347 . S
C79 H90 0.929 . S
N80 C78 1.375 . S
N80 C79 1.347 . S
C81 C84 1.365 . S
C81 N86 1.328 . S
C81 H87 0.929 . S
C82 C83 1.362 . S
C82 C85 1.378 . S
C82 H97 0.929 . S
C83 C82 1.362 . S
C83 C84 1.366 . S
C84 C81 1.365 . S
C84 C83 1.366 . S
C84 H98 0.930 . S
C85 C82 1.378 . S
C85 N86 1.315 . S
C85 H88 0.930 . S
N86 Co66 2.194 . S
N86 C81 1.328 . S
N86 C85 1.315 . S
H87 C81 0.929 . S
H88 C85 0.930 . S
H89 C77 0.929 . S
H90 C79 0.929 . S
O91 Co66 2.351 . S
O91 C94 1.244 . S
O92 Co66 2.155 . S
O92 C94 1.240 . S
O93 Co66 2.096 . S
O93 C74 1.247 . S
C94 O91 1.244 . S
C94 O92 1.240 . S
H95 C69 0.931 . S
H96 C78 0.931 . S
H97 C82 0.929 . S
H98 C84 0.930 . S
Co99 N103 2.148 . S
Co99 N109 2.128 . S
Co99 N119 2.194 . S
Co99 O124 2.351 . S
Co99 O125 2.155 . S
Co99 O126 2.096 . S
C100 N103 1.301 . S
C100 N104 1.328 . S
C100 H105 0.930 . S
C101 C102 1.333 . S
C101 N103 1.317 . S
C101 H106 0.930 . S
C102 C101 1.333 . S
C102 N104 1.350 . S
C102 H128 0.931 . S
N103 Co99 2.148 . S
N103 C100 1.301 . S
N103 C101 1.317 . S
N104 C100 1.328 . S
N104 C102 1.350 . S
H105 C100 0.930 . S
H106 C101 0.930 . S
C107 O108 1.224 . S
C107 O126 1.247 . S
O108 C107 1.224 . S
N109 Co99 2.128 . S
N109 C110 1.355 . S
N109 C112 1.311 . S
C110 N109 1.355 . S
C110 C111 1.363 . S
C110 H122 0.929 . S
C111 C110 1.363 . S
C111 N113 1.375 . S
C111 H129 0.931 . S
C112 N109 1.311 . S
C112 N113 1.347 . S
C112 H123 0.929 . S
N113 C111 1.375 . S
N113 C112 1.347 . S
C114 C117 1.365 . S
C114 N119 1.328 . S
C114 H120 0.929 . S
C115 C116 1.362 . S
C115 C118 1.378 . S
C115 H130 0.929 . S
C116 C115 1.362 . S
C116 C117 1.366 . S
C117 C114 1.365 . S
C117 C116 1.366 . S
C117 H131 0.930 . S
C118 C115 1.378 . S
C118 N119 1.315 . S
C118 H121 0.930 . S
N119 Co99 2.194 . S
N119 C114 1.328 . S
N119 C118 1.315 . S
H120 C114 0.929 . S
H121 C118 0.930 . S
H122 C110 0.929 . S
H123 C112 0.929 . S
O124 Co99 2.351 . S
O124 C127 1.244 . S
O125 Co99 2.155 . S
O125 C127 1.240 . S
O126 Co99 2.096 . S
O126 C107 1.247 . S
C127 O124 1.244 . S
C127 O125 1.240 . S
H128 C102 0.931 . S
H129 C111 0.931 . S
H130 C115 0.929 . S
H131 C117 0.930 . S
H132 C133 0.951 . S
C133 H132 0.951 . S
C133 C139 1.265 . S
H134 C139 0.950 . S
H135 C143 0.949 . S
H136 C144 0.950 . S
H137 C145 0.951 . S
H138 C146 0.951 . S
C139 C133 1.265 . S
C139 H134 0.950 . S
C139 C140 1.478 . S
C140 C139 1.478 . S
C140 C141 1.397 . S
C140 C157 1.394 . S
C141 C140 1.397 . S
C141 C142 1.438 . S
C141 C146 1.429 . S
C142 C141 1.438 . S
C142 C143 1.428 . S
C142 C155 1.394 . S
C143 H135 0.949 . S
C143 C142 1.428 . S
C143 C144 1.345 . S
C144 H136 0.950 . S
C144 C143 1.345 . S
C144 C145 1.424 . S
C145 H137 0.951 . S
C145 C144 1.424 . S
C145 C146 1.347 . S
C146 H138 0.951 . S
C146 C141 1.429 . S
C146 C145 1.347 . S
H147 C148 0.951 . S
C148 H147 0.951 . S
C148 C154 1.265 . S
H149 C154 0.950 . S
H150 C158 0.949 . S
H151 C159 0.950 . S
H152 C160 0.951 . S
H153 C161 0.951 . S
C154 C148 1.265 . S
C154 H149 0.950 . S
C154 C155 1.478 . S
C155 C142 1.394 . S
C155 C154 1.478 . S
C155 C156 1.397 . S
C156 C155 1.397 . S
C156 C157 1.438 . S
C156 C161 1.429 . S
C157 C140 1.394 . S
C157 C156 1.438 . S
C157 C158 1.428 . S
C158 H150 0.949 . S
C158 C157 1.428 . S
C158 C159 1.345 . S
C159 H151 0.950 . S
C159 C158 1.345 . S
C159 C160 1.424 . S
C160 H152 0.951 . S
C160 C159 1.424 . S
C160 C161 1.347 . S
C161 H153 0.951 . S
C161 C156 1.429 . S
C161 C160 1.347 . S
H162 C163 0.951 . S
C163 H162 0.951 . S
C163 C169 1.265 . S
H164 C169 0.950 . S
H165 C173 0.949 . S
H166 C174 0.950 . S
H167 C175 0.951 . S
H168 C176 0.951 . S
C169 C163 1.265 . S
C169 H164 0.950 . S
C169 C170 1.478 . S
C170 C169 1.478 . S
C170 C171 1.397 . S
C170 C187 1.394 . S
C171 C170 1.397 . S
C171 C172 1.438 . S
C171 C176 1.429 . S
C172 C171 1.438 . S
C172 C173 1.428 . S
C172 C185 1.394 . S
C173 H165 0.949 . S
C173 C172 1.428 . S
C173 C174 1.345 . S
C174 H166 0.950 . S
C174 C173 1.345 . S
C174 C175 1.424 . S
C175 H167 0.951 . S
C175 C174 1.424 . S
C175 C176 1.347 . S
C176 H168 0.951 . S
C176 C171 1.429 . S
C176 C175 1.347 . S
H177 C178 0.951 . S
C178 H177 0.951 . S
C178 C184 1.265 . S
H179 C184 0.950 . S
H180 C188 0.949 . S
H181 C189 0.950 1_556 S
H182 C190 0.951 1_556 S
H183 C191 0.951 . S
C184 C178 1.265 . S
C184 H179 0.950 . S
C184 C185 1.478 . S
C185 C172 1.394 . S
C185 C184 1.478 . S
C185 C186 1.397 . S
C186 C185 1.397 . S
C186 C187 1.438 . S
C186 C191 1.429 . S
C187 C170 1.394 . S
C187 C186 1.438 . S
C187 C188 1.428 . S
C188 H180 0.949 . S
C188 C187 1.428 . S
C188 C189 1.345 . S
C189 H181 0.950 1_554 S
C189 C188 1.345 . S
C189 C190 1.424 . S
C190 H182 0.951 1_554 S
C190 C189 1.424 . S
C190 C191 1.347 . S
C191 H183 0.951 . S
C191 C186 1.429 . S
C191 C190 1.347 . S
H192 C193 0.951 . S
C193 H192 0.951 . S
C193 C199 1.265 . S
H194 C199 0.950 . S
H195 C203 0.949 . S
H196 C204 0.950 . S
H197 C205 0.951 . S
H198 C206 0.951 . S
C199 C193 1.265 . S
C199 H194 0.950 . S
C199 C200 1.478 . S
C200 C199 1.478 . S
C200 C201 1.397 . S
C200 C217 1.394 . S
C201 C200 1.397 . S
C201 C202 1.438 . S
C201 C206 1.429 . S
C202 C201 1.438 . S
C202 C203 1.428 . S
C202 C215 1.394 . S
C203 H195 0.949 . S
C203 C202 1.428 . S
C203 C204 1.345 . S
C204 H196 0.950 . S
C204 C203 1.345 . S
C204 C205 1.424 . S
C205 H197 0.951 . S
C205 C204 1.424 . S
C205 C206 1.347 . S
C206 H198 0.951 . S
C206 C201 1.429 . S
C206 C205 1.347 . S
H207 C208 0.951 . S
C208 H207 0.951 . S
C208 C214 1.265 . S
H209 C214 0.950 . S
H210 C218 0.949 . S
H211 C219 0.950 . S
H212 C220 0.951 . S
H213 C221 0.951 . S
C214 C208 1.265 . S
C214 H209 0.950 . S
C214 C215 1.478 . S
C215 C202 1.394 . S
C215 C214 1.478 . S
C215 C216 1.397 . S
C216 C215 1.397 . S
C216 C217 1.438 . S
C216 C221 1.429 . S
C217 C200 1.394 . S
C217 C216 1.438 . S
C217 C218 1.428 . S
C218 H210 0.949 . S
C218 C217 1.428 . S
C218 C219 1.345 . S
C219 H211 0.950 . S
C219 C218 1.345 . S
C219 C220 1.424 . S
C220 H212 0.951 . S
C220 C219 1.424 . S
C220 C221 1.347 . S
C221 H213 0.951 . S
C221 C216 1.429 . S
C221 C220 1.347 . S
H222 C223 0.951 . S
C223 H222 0.951 . S
C223 C229 1.265 . S
H224 C229 0.950 . S
H225 C233 0.949 . S
H226 C234 0.950 . S
H227 C235 0.951 . S
H228 C236 0.951 . S
C229 C223 1.265 . S
C229 H224 0.950 . S
C229 C230 1.478 . S
C230 C229 1.478 . S
C230 C231 1.397 . S
C230 C247 1.394 . S
C231 C230 1.397 . S
C231 C232 1.438 . S
C231 C236 1.429 . S
C232 C231 1.438 . S
C232 C233 1.428 . S
C232 C245 1.394 . S
C233 H225 0.949 . S
C233 C232 1.428 . S
C233 C234 1.345 . S
C234 H226 0.950 . S
C234 C233 1.345 . S
C234 C235 1.424 . S
C235 H227 0.951 . S
C235 C234 1.424 . S
C235 C236 1.347 . S
C236 H228 0.951 . S
C236 C231 1.429 . S
C236 C235 1.347 . S
H237 C238 0.951 . S
C238 H237 0.951 . S
C238 C244 1.265 . S
H239 C244 0.950 . S
H240 C248 0.949 . S
H241 C249 0.950 1_554 S
H242 C250 0.951 1_554 S
H243 C251 0.951 . S
C244 C238 1.265 . S
C244 H239 0.950 . S
C244 C245 1.478 . S
C245 C232 1.394 . S
C245 C244 1.478 . S
C245 C246 1.397 . S
C246 C245 1.397 . S
C246 C247 1.438 . S
C246 C251 1.429 . S
C247 C230 1.394 . S
C247 C246 1.438 . S
C247 C248 1.428 . S
C248 H240 0.949 . S
C248 C247 1.428 . S
C248 C249 1.345 . S
C249 H241 0.950 1_556 S
C249 C248 1.345 . S
C249 C250 1.424 . S
C250 H242 0.951 1_556 S
C250 C249 1.424 . S
C250 C251 1.347 . S
C251 H243 0.951 . S
C251 C246 1.429 . S
C251 C250 1.347 . S
H252 C253 0.951 . S
C253 H252 0.951 . S
C253 C259 1.265 . S
H254 C259 0.950 . S
H255 C263 0.949 . S
H256 C264 0.950 . S
H257 C265 0.951 . S
H258 C266 0.951 . S
C259 C253 1.265 . S
C259 H254 0.950 . S
C259 C260 1.478 . S
C260 C259 1.478 . S
C260 C261 1.397 . S
C260 C277 1.394 . S
C261 C260 1.397 . S
C261 C262 1.438 . S
C261 C266 1.429 . S
C262 C261 1.438 . S
C262 C263 1.428 . S
C262 C275 1.394 . S
C263 H255 0.949 . S
C263 C262 1.428 . S
C263 C264 1.345 . S
C264 H256 0.950 . S
C264 C263 1.345 . S
C264 C265 1.424 . S
C265 H257 0.951 . S
C265 C264 1.424 . S
C265 C266 1.347 . S
C266 H258 0.951 . S
C266 C261 1.429 . S
C266 C265 1.347 . S
H267 C268 0.951 . S
C268 H267 0.951 . S
C268 C274 1.265 . S
H269 C274 0.950 . S
H270 C278 0.949 . S
H271 C279 0.950 . S
H272 C280 0.951 . S
H273 C281 0.951 . S
C274 C268 1.265 . S
C274 H269 0.950 . S
C274 C275 1.478 . S
C275 C262 1.394 . S
C275 C274 1.478 . S
C275 C276 1.397 . S
C276 C275 1.397 . S
C276 C277 1.438 . S
C276 C281 1.429 . S
C277 C260 1.394 . S
C277 C276 1.438 . S
C277 C278 1.428 . S
C278 H270 0.949 . S
C278 C277 1.428 . S
C278 C279 1.345 . S
C279 H271 0.950 . S
C279 C278 1.345 . S
C279 C280 1.424 . S
C280 H272 0.951 . S
C280 C279 1.424 . S
C280 C281 1.347 . S
C281 H273 0.951 . S
C281 C276 1.429 . S
C281 C280 1.347 . S
H282 C283 0.951 . S
C283 H282 0.951 . S
C283 C289 1.265 . S
H284 C289 0.950 . S
H285 C293 0.949 . S
H286 C294 0.950 . S
H287 C295 0.951 . S
H288 C296 0.951 . S
C289 C283 1.265 . S
C289 H284 0.950 . S
C289 C290 1.478 . S
C290 C289 1.478 . S
C290 C291 1.397 . S
C290 C307 1.394 . S
C291 C290 1.397 . S
C291 C292 1.438 . S
C291 C296 1.429 . S
C292 C291 1.438 . S
C292 C293 1.428 . S
C292 C305 1.394 . S
C293 H285 0.949 . S
C293 C292 1.428 . S
C293 C294 1.345 . S
C294 H286 0.950 . S
C294 C293 1.345 . S
C294 C295 1.424 . S
C295 H287 0.951 . S
C295 C294 1.424 . S
C295 C296 1.347 . S
C296 H288 0.951 . S
C296 C291 1.429 . S
C296 C295 1.347 . S
H297 C298 0.951 . S
C298 H297 0.951 . S
C298 C304 1.265 . S
H299 C304 0.950 . S
H300 C308 0.949 . S
H301 C309 0.950 . S
H302 C310 0.951 . S
H303 C311 0.951 . S
C304 C298 1.265 . S
C304 H299 0.950 . S
C304 C305 1.478 . S
C305 C292 1.394 . S
C305 C304 1.478 . S
C305 C306 1.397 . S
C306 C305 1.397 . S
C306 C307 1.438 . S
C306 C311 1.429 . S
C307 C290 1.394 . S
C307 C306 1.438 . S
C307 C308 1.428 . S
C308 H300 0.949 . S
C308 C307 1.428 . S
C308 C309 1.345 . S
C309 H301 0.950 . S
C309 C308 1.345 . S
C309 C310 1.424 . S
C310 H302 0.951 . S
C310 C309 1.424 . S
C310 C311 1.347 . S
C311 H303 0.951 . S
C311 C306 1.429 . S
C311 C310 1.347 . S
H312 C313 0.951 . S
C313 H312 0.951 . S
C313 C319 1.265 . S
H314 C319 0.950 . S
H315 C323 0.949 . S
H316 C324 0.950 . S
H317 C325 0.951 . S
H318 C326 0.951 . S
C319 C313 1.265 . S
C319 H314 0.950 . S
C319 C320 1.478 . S
C320 C319 1.478 . S
C320 C321 1.397 . S
C320 C337 1.394 . S
C321 C320 1.397 . S
C321 C322 1.438 . S
C321 C326 1.429 . S
C322 C321 1.438 . S
C322 C323 1.428 . S
C322 C335 1.394 . S
C323 H315 0.949 . S
C323 C322 1.428 . S
C323 C324 1.345 . S
C324 H316 0.950 . S
C324 C323 1.345 . S
C324 C325 1.424 . S
C325 H317 0.951 . S
C325 C324 1.424 . S
C325 C326 1.347 . S
C326 H318 0.951 . S
C326 C321 1.429 . S
C326 C325 1.347 . S
H327 C328 0.951 . S
C328 H327 0.951 . S
C328 C334 1.265 . S
H329 C334 0.950 . S
H330 C338 0.949 . S
H331 C339 0.950 . S
H332 C340 0.951 . S
H333 C341 0.951 . S
C334 C328 1.265 . S
C334 H329 0.950 . S
C334 C335 1.478 . S
C335 C322 1.394 . S
C335 C334 1.478 . S
C335 C336 1.397 . S
C336 C335 1.397 . S
C336 C337 1.438 . S
C336 C341 1.429 . S
C337 C320 1.394 . S
C337 C336 1.438 . S
C337 C338 1.428 . S
C338 H330 0.949 . S
C338 C337 1.428 . S
C338 C339 1.345 . S
C339 H331 0.950 . S
C339 C338 1.345 . S
C339 C340 1.424 . S
C340 H332 0.951 . S
C340 C339 1.424 . S
C340 C341 1.347 . S
C341 H333 0.951 . S
C341 C336 1.429 . S
C341 C340 1.347 . S
H342 C343 0.951 . S
C343 H342 0.951 . S
C343 C349 1.265 . S
H344 C349 0.950 . S
H345 C353 0.949 1_565 S
H346 C354 0.950 . S
H347 C355 0.951 . S
H348 C356 0.951 . S
C349 C343 1.265 . S
C349 H344 0.950 . S
C349 C350 1.478 . S
C350 C349 1.478 . S
C350 C351 1.397 1_556 S
C350 C367 1.394 1_545 S
C351 C350 1.397 1_554 S
C351 C352 1.438 . S
C351 C356 1.429 . S
C352 C351 1.438 . S
C352 C353 1.428 . S
C352 C365 1.394 1_545 S
C353 H345 0.949 1_545 S
C353 C352 1.428 . S
C353 C354 1.345 . S
C354 H346 0.950 . S
C354 C353 1.345 . S
C354 C355 1.424 . S
C355 H347 0.951 . S
C355 C354 1.424 . S
C355 C356 1.347 . S
C356 H348 0.951 . S
C356 C351 1.429 . S
C356 C355 1.347 . S
H357 C358 0.951 . S
C358 H357 0.951 . S
C358 C364 1.265 . S
H359 C364 0.950 . S
H360 C368 0.949 1_545 S
H361 C369 0.950 . S
H362 C370 0.951 . S
H363 C371 0.951 . S
C364 C358 1.265 . S
C364 H359 0.950 . S
C364 C365 1.478 . S
C365 C352 1.394 1_565 S
C365 C364 1.478 . S
C365 C366 1.397 1_554 S
C366 C365 1.397 1_556 S
C366 C367 1.438 . S
C366 C371 1.429 . S
C367 C350 1.394 1_565 S
C367 C366 1.438 . S
C367 C368 1.428 . S
C368 H360 0.949 1_565 S
C368 C367 1.428 . S
C368 C369 1.345 . S
C369 H361 0.950 . S
C369 C368 1.345 . S
C369 C370 1.424 . S
C370 H362 0.951 . S
C370 C369 1.424 . S
C370 C371 1.347 . S
C371 H363 0.951 . S
C371 C366 1.429 . S
C371 C370 1.347 . S
H372 C373 0.951 . S
C373 H372 0.951 . S
C373 C379 1.265 . S
H374 C379 0.950 . S
H375 C383 0.949 . S
H376 C384 0.950 . S
H377 C385 0.951 . S
H378 C386 0.951 . S
C379 C373 1.265 . S
C379 H374 0.950 . S
C379 C380 1.478 . S
C380 C379 1.478 . S
C380 C381 1.397 1_565 S
C380 C397 1.394 . S
C381 C380 1.397 1_545 S
C381 C382 1.438 1_655 S
C381 C386 1.429 . S
C382 C381 1.438 1_455 S
C382 C383 1.428 . S
C382 C395 1.394 . S
C383 H375 0.949 . S
C383 C382 1.428 . S
C383 C384 1.345 . S
C384 H376 0.950 . S
C384 C383 1.345 . S
C384 C385 1.424 . S
C385 H377 0.951 . S
C385 C384 1.424 . S
C385 C386 1.347 1_455 S
C386 H378 0.951 . S
C386 C381 1.429 . S
C386 C385 1.347 1_655 S
H387 C388 0.951 . S
C388 H387 0.951 . S
C388 C394 1.265 . S
H389 C394 0.950 . S
H390 C398 0.949 . S
H391 C399 0.950 . S
H392 C400 0.951 . S
H393 C401 0.951 . S
C394 C388 1.265 . S
C394 H389 0.950 . S
C394 C395 1.478 . S
C395 C382 1.394 . S
C395 C394 1.478 . S
C395 C396 1.397 1_545 S
C396 C395 1.397 1_565 S
C396 C397 1.438 1_455 S
C396 C401 1.429 . S
C397 C380 1.394 . S
C397 C396 1.438 1_655 S
C397 C398 1.428 . S
C398 H390 0.949 . S
C398 C397 1.428 . S
C398 C399 1.345 . S
C399 H391 0.950 . S
C399 C398 1.345 . S
C399 C400 1.424 . S
C400 H392 0.951 . S
C400 C399 1.424 . S
C400 C401 1.347 1_655 S
C401 H393 0.951 . S
C401 C396 1.429 . S
C401 C400 1.347 1_455 S
H402 C403 0.951 . S
C403 H402 0.951 . S
C403 C409 1.265 . S
H404 C409 0.950 . S
H405 C413 0.949 . S
H406 C414 0.950 . S
H407 C415 0.951 . S
H408 C416 0.951 . S
C409 C403 1.265 . S
C409 H404 0.950 . S
C409 C410 1.478 . S
C410 C409 1.478 . S
C410 C411 1.397 1_654 S
C410 C427 1.394 . S
C411 C410 1.397 1_456 S
C411 C412 1.438 . S
C411 C416 1.429 . S
C412 C411 1.438 . S
C412 C413 1.428 . S
C412 C425 1.394 . S
C413 H405 0.949 . S
C413 C412 1.428 . S
C413 C414 1.345 . S
C414 H406 0.950 . S
C414 C413 1.345 . S
C414 C415 1.424 . S
C415 H407 0.951 . S
C415 C414 1.424 . S
C415 C416 1.347 . S
C416 H408 0.951 . S
C416 C411 1.429 . S
C416 C415 1.347 . S
H417 C418 0.951 . S
C418 H417 0.951 . S
C418 C424 1.265 . S
H419 C424 0.950 . S
H420 C428 0.949 . S
H421 C429 0.950 . S
H422 C430 0.951 . S
H423 C431 0.951 . S
C424 C418 1.265 . S
C424 H419 0.950 . S
C424 C425 1.478 . S
C425 C412 1.394 . S
C425 C424 1.478 . S
C425 C426 1.397 1_456 S
C426 C425 1.397 1_654 S
C426 C427 1.438 . S
C426 C431 1.429 . S
C427 C410 1.394 . S
C427 C426 1.438 . S
C427 C428 1.428 . S
C428 H420 0.949 . S
C428 C427 1.428 . S
C428 C429 1.345 . S
C429 H421 0.950 . S
C429 C428 1.345 . S
C429 C430 1.424 . S
C430 H422 0.951 . S
C430 C429 1.424 . S
C430 C431 1.347 . S
C431 H423 0.951 . S
C431 C426 1.429 . S
C431 C430 1.347 . S
C133 N5 1.148 1_655 S
C148 N14 1.144 . S
C163 N38 1.148 . S
C178 N47 1.143 1_545 S
C193 N80 1.117 . S
C208 N71 1.117 1_455 S
C223 N113 1.116 1_565 S
C238 N104 1.116 . S
C253 C116 1.442 . S
C268 C17 1.434 . S
C283 C50 1.443 . S
C298 C83 1.452 . S
C313 C8 1.201 . S
C328 C74 1.201 . S
C343 C107 1.185 . S
C358 C41 1.185 . S
C373 C94 1.218 . S
C388 C28 1.218 . S
C403 C61 1.231 . S
C418 C127 1.231 . S
