# Generated by pormake.
# Topology uoq, (4)-cn, num edge types: 1
# Building blocks:
#     Node 0, Type 0, BuildingBlock: UXUYUI_clean_sbu_0, # of connection points: 4
#     Node 1, Type 0, BuildingBlock: UXUYUI_clean_sbu_0, # of connection points: 4
#     Node 2, Type 0, BuildingBlock: UXUYUI_clean_sbu_0, # of connection points: 4
#     Node 3, Type 0, BuildingBlock: UXUYUI_clean_sbu_0, # of connection points: 4
#     Node 4, Type 0, BuildingBlock: UXUYUI_clean_sbu_0, # of connection points: 4
#     Node 5, Type 0, BuildingBlock: UXUYUI_clean_sbu_0, # of connection points: 4
#     Node 6, Type 0, BuildingBlock: UXUYUI_clean_sbu_0, # of connection points: 4
#     Node 7, Type 0, BuildingBlock: UXUYUI_clean_sbu_0, # of connection points: 4
#     Node 8, Type 0, BuildingBlock: UXUYUI_clean_sbu_0, # of connection points: 4
#     Node 9, Type 0, BuildingBlock: UXUYUI_clean_sbu_0, # of connection points: 4
#     Node 10, Type 0, BuildingBlock: UXUYUI_clean_sbu_0, # of connection points: 4
#     Node 11, Type 0, BuildingBlock: UXUYUI_clean_sbu_0, # of connection points: 4
#     Edge 12, Type (0, 0), BuildingBlock: XIVTED_clean_linker_0, # of connection points: 2
#     Edge 13, Type (0, 0), BuildingBlock: XIVTED_clean_linker_0, # of connection points: 2
#     Edge 14, Type (0, 0), BuildingBlock: XIVTED_clean_linker_0, # of connection points: 2
#     Edge 15, Type (0, 0), BuildingBlock: XIVTED_clean_linker_0, # of connection points: 2
#     Edge 16, Type (0, 0), BuildingBlock: XIVTED_clean_linker_0, # of connection points: 2
#     Edge 17, Type (0, 0), BuildingBlock: XIVTED_clean_linker_0, # of connection points: 2
#     Edge 18, Type (0, 0), BuildingBlock: XIVTED_clean_linker_0, # of connection points: 2
#     Edge 19, Type (0, 0), BuildingBlock: XIVTED_clean_linker_0, # of connection points: 2
#     Edge 20, Type (0, 0), BuildingBlock: XIVTED_clean_linker_0, # of connection points: 2
#     Edge 21, Type (0, 0), BuildingBlock: XIVTED_clean_linker_0, # of connection points: 2
#     Edge 22, Type (0, 0), BuildingBlock: XIVTED_clean_linker_0, # of connection points: 2
#     Edge 23, Type (0, 0), BuildingBlock: XIVTED_clean_linker_0, # of connection points: 2
#     Edge 24, Type (0, 0), BuildingBlock: XIVTED_clean_linker_0, # of connection points: 2
#     Edge 25, Type (0, 0), BuildingBlock: XIVTED_clean_linker_0, # of connection points: 2
#     Edge 26, Type (0, 0), BuildingBlock: XIVTED_clean_linker_0, # of connection points: 2
#     Edge 27, Type (0, 0), BuildingBlock: XIVTED_clean_linker_0, # of connection points: 2
#     Edge 28, Type (0, 0), BuildingBlock: XIVTED_clean_linker_0, # of connection points: 2
#     Edge 29, Type (0, 0), BuildingBlock: XIVTED_clean_linker_0, # of connection points: 2
#     Edge 30, Type (0, 0), BuildingBlock: XIVTED_clean_linker_0, # of connection points: 2
#     Edge 31, Type (0, 0), BuildingBlock: XIVTED_clean_linker_0, # of connection points: 2
#     Edge 32, Type (0, 0), BuildingBlock: XIVTED_clean_linker_0, # of connection points: 2
#     Edge 33, Type (0, 0), BuildingBlock: XIVTED_clean_linker_0, # of connection points: 2
#     Edge 34, Type (0, 0), BuildingBlock: XIVTED_clean_linker_0, # of connection points: 2
#     Edge 35, Type (0, 0), BuildingBlock: XIVTED_clean_linker_0, # of connection points: 2
# Relax obj value: 0.147
# Max RMSD: 0.104
# Mean RMSD: 0.104
data_MOF--net-uoq--node1-UXUYUI_clean_sbu_0--edge1-XIVTED_clean_linker_0
_symmetry_space_group_name_H-M    P1
_symmetry_Int_Tables_number       1
_symmetry_cell_setting            triclinic
loop_
_symmetry_equiv_pos_as_xyz
'x, y, z'
_cell_length_a     84.986275
_cell_length_b     85.000914
_cell_length_c     35.506429
_cell_angle_alpha  90.007372
_cell_angle_beta   90.014643
_cell_angle_gamma 120.00602
loop_
_atom_site_label
_atom_site_type_symbol
_atom_site_fract_x
_atom_site_fract_y
_atom_site_fract_z
_atom_type_partial_charge
Li0 Li 0.28376 0.43872 0.28378 0.0
Li1 Li 0.3027 0.42719 0.25947 0.0
Li2 Li 0.315 0.46125 0.26009 0.0
Li3 Li 0.2914 0.44074 0.21752 0.0
C4 C 0.30804 0.44762 0.33983 0.0
N5 N 0.30764 0.45541 0.41524 0.0
C6 C 0.30774 0.43572 0.36733 0.0
C7 C 0.30821 0.46352 0.35065 0.0
C8 C 0.30753 0.43989 0.40532 0.0
C9 C 0.30798 0.4672 0.38893 0.0
C10 C 0.26953 0.40028 0.24476 0.0
C11 C 0.26802 0.37444 0.21313 0.0
N12 N 0.25555 0.36321 0.23874 0.0
C13 C 0.2565 0.38847 0.27043 0.0
C14 C 0.27515 0.3932 0.21558 0.0
C15 C 0.24966 0.36978 0.26703 0.0
C16 C 0.26135 0.44755 0.32728 0.0
N17 N 0.2672 0.43543 0.32286 0.0
C18 C 0.25219 0.42003 0.37941 0.0
C19 C 0.26286 0.42184 0.34808 0.0
C20 C 0.24594 0.43235 0.38473 0.0
C21 C 0.25052 0.44617 0.35803 0.0
H22 H 0.26553 0.45863 0.3076 0.0
H23 H 0.26818 0.41274 0.34443 0.0
C24 C 0.32463 0.41112 0.25243 0.0
N25 N 0.3098 0.40975 0.26996 0.0
C26 C 0.33162 0.40006 0.26348 0.0
C27 C 0.30755 0.38597 0.30953 0.0
C28 C 0.30112 0.39741 0.29779 0.0
C29 C 0.32325 0.38746 0.29288 0.0
H30 H 0.33146 0.42131 0.23088 0.0
H31 H 0.28954 0.39686 0.31171 0.0
C32 C 0.28004 0.46417 0.23137 0.0
N33 N 0.25671 0.47127 0.1901 0.0
C34 C 0.2616 0.45111 0.22873 0.0
C35 C 0.28657 0.48089 0.21323 0.0
C36 C 0.25004 0.45494 0.20766 0.0
C37 C 0.27456 0.48421 0.19247 0.0
C38 C 0.323 0.44963 0.18406 0.0
C39 C 0.33284 0.46767 0.17196 0.0
C40 C 0.3196 0.43562 0.15893 0.0
C41 C 0.33874 0.47138 0.13461 0.0
C42 C 0.32571 0.43988 0.1218 0.0
N43 N 0.33506 0.45752 0.11049 0.0
C44 C 0.34734 0.48312 0.29819 0.0
C45 C 0.33945 0.49986 0.25649 0.0
C46 C 0.36245 0.49903 0.31086 0.0
N47 N 0.33606 0.48382 0.27191 0.0
C48 C 0.35467 0.51613 0.26783 0.0
C49 C 0.3662 0.5158 0.29576 0.0
H50 H 0.34443 0.47017 0.30973 0.0
H51 H 0.33032 0.50005 0.23556 0.0
C52 C 0.26533 0.42438 0.15961 0.0
N53 N 0.28126 0.43957 0.16844 0.0
C54 C 0.25572 0.4239 0.12732 0.0
C55 C 0.27931 0.45452 0.11302 0.0
C56 C 0.28845 0.45442 0.14565 0.0
C57 C 0.26251 0.43924 0.10385 0.0
H58 H 0.25957 0.41294 0.17861 0.0
H59 H 0.30081 0.46655 0.15374 0.0
O60 O 0.30773 0.44355 0.30248 0.0
O61 O 0.27654 0.41865 0.24785 0.0
O62 O 0.29165 0.46036 0.2508 0.0
O63 O 0.31711 0.44576 0.22054 0.0
H64 H 0.30758 0.42335 0.35942 0.0
H65 H 0.30827 0.47279 0.32968 0.0
H66 H 0.30724 0.43078 0.42692 0.0
H67 H 0.30801 0.4794 0.39771 0.0
H68 H 0.27238 0.36881 0.19085 0.0
H69 H 0.25163 0.39364 0.29261 0.0
H70 H 0.28496 0.40212 0.19514 0.0
H71 H 0.23965 0.3605 0.28683 0.0
H72 H 0.24896 0.40919 0.39936 0.0
H73 H 0.2463 0.45618 0.36155 0.0
H74 H 0.34392 0.40196 0.25022 0.0
H75 H 0.30049 0.37633 0.33192 0.0
H76 H 0.25635 0.43804 0.24233 0.0
H77 H 0.30078 0.49112 0.21479 0.0
H78 H 0.23578 0.44491 0.20514 0.0
H79 H 0.27945 0.49704 0.1781 0.0
H80 H 0.33572 0.47868 0.19106 0.0
H81 H 0.31243 0.42161 0.168 0.0
H82 H 0.34623 0.48527 0.12479 0.0
H83 H 0.32309 0.42916 0.102 0.0
H84 H 0.37118 0.49823 0.33209 0.0
H85 H 0.35716 0.52885 0.25558 0.0
H86 H 0.24269 0.41194 0.12185 0.0
H87 H 0.28515 0.46661 0.09566 0.0
Li88 Li 0.84734 0.28976 0.6215 0.0
Li89 Li 0.87749 0.30598 0.59064 0.0
Li90 Li 0.85695 0.31811 0.59099 0.0
Li91 Li 0.84931 0.29089 0.55216 0.0
C92 C 0.8748 0.32853 0.65633 0.0
N93 N 0.88747 0.35994 0.6985 0.0
C94 C 0.89341 0.34111 0.65782 0.0
C95 C 0.86268 0.33186 0.67674 0.0
C96 C 0.89954 0.35692 0.67922 0.0
C97 C 0.86934 0.34784 0.69772 0.0
C98 C 0.86302 0.26655 0.59373 0.0
C99 C 0.87037 0.24433 0.57037 0.0
N100 N 0.87148 0.23953 0.60639 0.0
C101 C 0.8641 0.26129 0.6305 0.0
C102 C 0.86605 0.25791 0.56338 0.0
C103 C 0.86846 0.24766 0.63632 0.0
C104 C 0.82154 0.25722 0.65844 0.0
N105 N 0.83469 0.27485 0.6633 0.0
C106 C 0.83031 0.27238 0.72985 0.0
C107 C 0.83938 0.28243 0.6981 0.0
C108 C 0.81639 0.25427 0.72577 0.0
C109 C 0.81212 0.2466 0.68954 0.0
H110 H 0.81829 0.25148 0.6304 0.0
H111 H 0.85022 0.29627 0.70129 0.0
C112 C 0.91555 0.32801 0.57961 0.0
N113 N 0.90243 0.31263 0.59638 0.0
C114 C 0.93379 0.33506 0.58936 0.0
C115 C 0.92477 0.30992 0.63224 0.0
C116 C 0.90671 0.3035 0.62199 0.0
C117 C 0.93858 0.32622 0.61672 0.0
H118 H 0.91179 0.33544 0.5604 0.0
H119 H 0.8961 0.29175 0.63603 0.0
C120 C 0.81596 0.28543 0.59917 0.0
N121 N 0.7816 0.26407 0.62901 0.0
C122 C 0.80338 0.26946 0.58091 0.0
C123 C 0.81095 0.29065 0.63235 0.0
C124 C 0.7861 0.25882 0.59648 0.0
C125 C 0.79356 0.27963 0.64709 0.0
C126 C 0.8801 0.3173 0.51494 0.0
C127 C 0.88411 0.33096 0.48848 0.0
C128 C 0.88549 0.30449 0.50828 0.0
C129 C 0.89345 0.33155 0.45565 0.0
C130 C 0.89482 0.30554 0.47514 0.0
N131 N 0.89856 0.31893 0.44971 0.0
C132 C 0.87241 0.35612 0.59562 0.0
C133 C 0.8403 0.3396 0.59998 0.0
C134 C 0.87276 0.37219 0.60547 0.0
N135 N 0.85639 0.34019 0.59441 0.0
C136 C 0.83997 0.35539 0.60936 0.0
C137 C 0.85639 0.37191 0.61341 0.0
H138 H 0.88502 0.35616 0.59101 0.0
H139 H 0.82774 0.32678 0.59837 0.0
C140 C 0.82986 0.25902 0.50961 0.0
N141 N 0.83819 0.27743 0.50756 0.0
C142 C 0.82024 0.24833 0.47878 0.0
C143 C 0.82834 0.27576 0.44385 0.0
C144 C 0.83771 0.28593 0.47551 0.0
C145 C 0.81923 0.25667 0.44543 0.0
H146 H 0.83027 0.25262 0.53562 0.0
H147 H 0.84425 0.30059 0.47481 0.0
O148 O 0.86851 0.31309 0.63501 0.0
O149 O 0.85839 0.27961 0.58737 0.0
O150 O 0.83307 0.29586 0.5847 0.0
O151 O 0.87077 0.31646 0.54698 0.0
H152 H 0.90304 0.33879 0.64256 0.0
H153 H 0.84826 0.32232 0.67599 0.0
H154 H 0.91389 0.36679 0.68044 0.0
H155 H 0.86007 0.35064 0.71329 0.0
H156 H 0.87278 0.23757 0.54715 0.0
H157 H 0.86189 0.26784 0.65437 0.0
H158 H 0.86501 0.26157 0.53469 0.0
H159 H 0.86946 0.24355 0.66465 0.0
H160 H 0.83428 0.27867 0.75736 0.0
H161 H 0.80144 0.23268 0.68524 0.0
H162 H 0.94386 0.34784 0.57712 0.0
H163 H 0.92776 0.30249 0.65307 0.0
H164 H 0.8069 0.26528 0.55504 0.0
H165 H 0.82046 0.30295 0.64686 0.0
H166 H 0.77628 0.24639 0.58272 0.0
H167 H 0.78958 0.28343 0.67293 0.0
H168 H 0.87999 0.34097 0.49324 0.0
H169 H 0.88263 0.29395 0.52859 0.0
H170 H 0.89663 0.34204 0.43489 0.0
H171 H 0.89909 0.29572 0.46966 0.0
H172 H 0.88578 0.38448 0.60851 0.0
H173 H 0.82699 0.35454 0.61414 0.0
H174 H 0.81357 0.23368 0.48112 0.0
H175 H 0.82774 0.28273 0.41884 0.0
Li176 Li 0.57 0.87452 0.92258 0.0
Li177 Li 0.55793 0.84478 0.9529 0.0
Li178 Li 0.55646 0.84758 0.88424 0.0
Li179 Li 0.53704 0.85331 0.92606 0.0
C180 C 0.59658 0.86661 0.91804 0.0
N181 N 0.6339 0.88826 0.92228 0.0
C182 C 0.60593 0.86571 0.9496 0.0
C183 C 0.6062 0.87836 0.88847 0.0
C184 C 0.6248 0.87681 0.95124 0.0
C185 C 0.62507 0.88925 0.8912 0.0
C186 C 0.54561 0.87082 0.9905 0.0
C187 C 0.52269 0.86474 0.03731 0.0
N188 N 0.52608 0.8821 0.03386 0.0
C189 C 0.54891 0.88862 0.98751 0.0
C190 C 0.53245 0.8588 0.01572 0.0
C191 C 0.5389 0.89406 0.00968 0.0
C192 C 0.58841 0.91278 0.90895 0.0
N193 N 0.58798 0.89922 0.92997 0.0
C194 C 0.61045 0.92068 0.97186 0.0
C195 C 0.59872 0.90282 0.96079 0.0
C196 C 0.61069 0.93508 0.95187 0.0
C197 C 0.5997 0.93092 0.9195 0.0
H198 H 0.57934 0.90949 0.88515 0.0
H199 H 0.59765 0.89175 0.97769 0.0
C200 C 0.56365 0.81801 0.98947 0.0
N201 N 0.5621 0.83305 0.99402 0.0
C202 C 0.56562 0.80923 0.02085 0.0
C203 C 0.56579 0.83242 0.06052 0.0
C204 C 0.56357 0.84057 0.02851 0.0
C205 C 0.56644 0.81629 0.0571 0.0
H206 H 0.56297 0.81261 0.96158 0.0
H207 H 0.56296 0.85291 0.03123 0.0
C208 C 0.54851 0.86921 0.84555 0.0
N209 N 0.54206 0.86974 0.76947 0.0
C210 C 0.53069 0.86104 0.83207 0.0
C211 C 0.56305 0.87781 0.82047 0.0
C212 C 0.52771 0.86142 0.79346 0.0
C213 C 0.5595 0.87788 0.78206 0.0
C214 C 0.53085 0.81286 0.92993 0.0
C215 C 0.5338 0.80108 0.90741 0.0
C216 C 0.52203 0.80678 0.96458 0.0
C217 C 0.52785 0.7834 0.91995 0.0
C218 C 0.51632 0.78901 0.97614 0.0
N219 N 0.51932 0.77779 0.95377 0.0
C220 C 0.57288 0.83755 0.82675 0.0
C221 C 0.54161 0.82729 0.81752 0.0
C222 C 0.57319 0.8281 0.79482 0.0
N223 N 0.55721 0.83686 0.83757 0.0
C224 C 0.54132 0.81773 0.78529 0.0
C225 C 0.5572 0.81779 0.77384 0.0
H226 H 0.58501 0.84494 0.84362 0.0
H227 H 0.52924 0.82664 0.82722 0.0
C228 C 0.51298 0.86713 0.92834 0.0
N229 N 0.5142 0.85194 0.93365 0.0
C230 C 0.49729 0.86738 0.939 0.0
C231 C 0.48416 0.83614 0.95905 0.0
C232 C 0.50006 0.83647 0.94778 0.0
C233 C 0.48273 0.85184 0.9554 0.0
H234 H 0.52447 0.87925 0.91703 0.0
H235 H 0.50134 0.82458 0.95158 0.0
O236 O 0.57809 0.85599 0.91607 0.0
O237 O 0.55485 0.86505 0.96818 0.0
O238 O 0.5517 0.86876 0.88314 0.0
O239 O 0.53656 0.83022 0.91811 0.0
H240 H 0.59869 0.85665 0.97269 0.0
H241 H 0.59916 0.87916 0.86381 0.0
H242 H 0.63222 0.87633 0.97557 0.0
H243 H 0.63268 0.89849 0.86863 0.0
H244 H 0.51237 0.85554 0.05671 0.0
H245 H 0.55893 0.89808 0.96796 0.0
H246 H 0.52963 0.84493 0.01818 0.0
H247 H 0.54124 0.90776 0.0075 0.0
H248 H 0.61885 0.9231 0.99651 0.0
H249 H 0.59912 0.94145 0.90348 0.0
H250 H 0.56602 0.79681 0.01676 0.0
H251 H 0.56695 0.83872 0.08767 0.0
H252 H 0.51929 0.85431 0.85116 0.0
H253 H 0.57691 0.88428 0.83054 0.0
H254 H 0.51399 0.85507 0.78256 0.0
H255 H 0.57062 0.8844 0.76227 0.0
H256 H 0.54068 0.80553 0.88065 0.0
H257 H 0.51995 0.81578 0.98276 0.0
H258 H 0.53007 0.77416 0.90283 0.0
H259 H 0.5096 0.78419 0.003 0.0
H260 H 0.58568 0.82833 0.78754 0.0
H261 H 0.52872 0.81018 0.76983 0.0
H262 H 0.4967 0.8797 0.93494 0.0
H263 H 0.47343 0.8239 0.97184 0.0
Li264 Li 0.71102 0.55999 0.2762 0.0
Li265 Li 0.69214 0.56951 0.24659 0.0
Li266 Li 0.68194 0.5368 0.24992 0.0
Li267 Li 0.70965 0.55853 0.20916 0.0
C268 C 0.67866 0.55293 0.32442 0.0
N269 N 0.66272 0.55086 0.39351 0.0
C270 C 0.67963 0.56843 0.34042 0.0
C271 C 0.66964 0.53639 0.34374 0.0
C272 C 0.67146 0.5671 0.37531 0.0
C273 C 0.66166 0.53563 0.37858 0.0
C274 C 0.73326 0.59416 0.25909 0.0
C275 C 0.76557 0.61413 0.26593 0.0
N276 N 0.76264 0.62049 0.29878 0.0
C277 C 0.73056 0.60105 0.29268 0.0
C278 C 0.75089 0.60085 0.24539 0.0
C279 C 0.74559 0.6143 0.31243 0.0
C280 C 0.74431 0.56694 0.30852 0.0
N281 N 0.72766 0.56462 0.31696 0.0
C282 C 0.73473 0.56797 0.38262 0.0
C283 C 0.72282 0.56531 0.35315 0.0
C284 C 0.75178 0.56986 0.37482 0.0
C285 C 0.7566 0.56946 0.33717 0.0
H286 H 0.74794 0.5666 0.27946 0.0
H287 H 0.70969 0.56363 0.35941 0.0
C288 C 0.66386 0.57611 0.25901 0.0
N289 N 0.68192 0.58482 0.25124 0.0
C290 C 0.65569 0.58586 0.2714 0.0
C291 C 0.68467 0.61354 0.26573 0.0
C292 C 0.6923 0.60321 0.25322 0.0
C293 C 0.66625 0.60476 0.27627 0.0
H294 H 0.65604 0.56144 0.2578 0.0
H295 H 0.70668 0.60975 0.24725 0.0
C296 C 0.71376 0.5304 0.2643 0.0
N297 N 0.72951 0.51448 0.30606 0.0
C298 C 0.7287 0.52965 0.25008 0.0
C299 C 0.70669 0.52284 0.29953 0.0
C300 C 0.73651 0.52158 0.27168 0.0
C301 C 0.71488 0.51492 0.32029 0.0
C302 C 0.67457 0.55795 0.18248 0.0
C303 C 0.65563 0.54877 0.17987 0.0
C304 C 0.68485 0.57448 0.16373 0.0
C305 C 0.64725 0.55637 0.15865 0.0
C306 C 0.67597 0.58163 0.1428 0.0
N307 N 0.65751 0.57251 0.14073 0.0
C308 C 0.64538 0.51377 0.26454 0.0
C309 C 0.66201 0.49828 0.25958 0.0
C310 C 0.62995 0.4979 0.27628 0.0
N311 N 0.66104 0.51374 0.25719 0.0
C312 C 0.64688 0.48207 0.27135 0.0
C313 C 0.63069 0.48185 0.28074 0.0
H314 H 0.64512 0.52634 0.26287 0.0
H315 H 0.6747 0.4987 0.25384 0.0
C316 C 0.74024 0.56401 0.16907 0.0
N317 N 0.72279 0.56016 0.16468 0.0
C318 C 0.75051 0.56456 0.1379 0.0
C319 C 0.72465 0.55723 0.0981 0.0
C320 C 0.71487 0.55683 0.13012 0.0
C321 C 0.74271 0.56105 0.10177 0.0
H322 H 0.74608 0.56631 0.19698 0.0
H323 H 0.70091 0.55364 0.12747 0.0
O324 O 0.68641 0.55388 0.29004 0.0
O325 O 0.71872 0.58089 0.23981 0.0
O326 O 0.70616 0.53858 0.24397 0.0
O327 O 0.68303 0.55098 0.20381 0.0
H328 H 0.68662 0.58138 0.32621 0.0
H329 H 0.66879 0.52425 0.33205 0.0
H330 H 0.67209 0.57898 0.38792 0.0
H331 H 0.65462 0.52291 0.39376 0.0
H332 H 0.7793 0.61936 0.25575 0.0
H333 H 0.71703 0.59601 0.30369 0.0
H334 H 0.75324 0.59587 0.2192 0.0
H335 H 0.74369 0.61961 0.33866 0.0
H336 H 0.73042 0.56802 0.4113 0.0
H337 H 0.7697 0.57105 0.32999 0.0
H338 H 0.64138 0.57857 0.2785 0.0
H339 H 0.69333 0.62807 0.26921 0.0
H340 H 0.73425 0.53526 0.22272 0.0
H341 H 0.69516 0.52334 0.31094 0.0
H342 H 0.74814 0.52098 0.26111 0.0
H343 H 0.70965 0.50918 0.34775 0.0
H344 H 0.64749 0.53596 0.19421 0.0
H345 H 0.69954 0.58177 0.16566 0.0
H346 H 0.6326 0.54946 0.15647 0.0
H347 H 0.68374 0.59445 0.12827 0.0
H348 H 0.6177 0.4983 0.28257 0.0
H349 H 0.64812 0.47007 0.27467 0.0
H350 H 0.76424 0.56724 0.14223 0.0
H351 H 0.71814 0.5546 0.07078 0.0
Li352 Li 0.15347 0.71278 0.61413 0.0
Li353 Li 0.12391 0.69347 0.58663 0.0
Li354 Li 0.14628 0.68384 0.58808 0.0
Li355 Li 0.15036 0.708 0.547 0.0
C356 C 0.13927 0.68355 0.66411 0.0
N357 N 0.14859 0.67317 0.73036 0.0
C358 C 0.12585 0.67282 0.69023 0.0
C359 C 0.15744 0.68904 0.67175 0.0
C360 C 0.13083 0.6677 0.72354 0.0
C361 C 0.16187 0.68365 0.70537 0.0
C362 C 0.1342 0.73022 0.59698 0.0
C363 C 0.13145 0.75706 0.60103 0.0
N364 N 0.12225 0.75089 0.63403 0.0
C365 C 0.12473 0.72415 0.63094 0.0
C366 C 0.13761 0.74681 0.58188 0.0
C367 C 0.11879 0.73478 0.64924 0.0
C368 C 0.1841 0.74241 0.64625 0.0
N369 N 0.16647 0.72975 0.65283 0.0
C370 C 0.16853 0.74008 0.71612 0.0
C371 C 0.15852 0.72848 0.68677 0.0
C372 C 0.18692 0.75299 0.71052 0.0
C373 C 0.19467 0.75422 0.67492 0.0
H374 H 0.19002 0.74308 0.61893 0.0
H375 H 0.14455 0.71813 0.69146 0.0
C376 C 0.09014 0.66841 0.61263 0.0
N377 N 0.09861 0.68438 0.59358 0.0
C378 C 0.07232 0.6614 0.62499 0.0
C379 C 0.07184 0.68691 0.59609 0.0
C380 C 0.08977 0.69346 0.58421 0.0
C381 C 0.06309 0.67093 0.61771 0.0
H382 H 0.09749 0.66143 0.6193 0.0
H383 H 0.09683 0.70614 0.56894 0.0
C384 C 0.1809 0.70522 0.55903 0.0
N385 N 0.20537 0.70088 0.51534 0.0
C386 C 0.17469 0.6922 0.53034 0.0
C387 C 0.19955 0.716 0.56551 0.0
C388 C 0.18728 0.69023 0.50855 0.0
C389 C 0.21171 0.7136 0.54312 0.0
C390 C 0.11932 0.67946 0.51491 0.0
C391 C 0.11199 0.66334 0.4942 0.0
C392 C 0.11524 0.69291 0.50469 0.0
C393 C 0.1007 0.66094 0.46352 0.0
C394 C 0.10389 0.68999 0.47385 0.0
N395 N 0.09692 0.6742 0.45407 0.0
C396 C 0.13328 0.64667 0.59649 0.0
C397 C 0.16485 0.66485 0.60846 0.0
C398 C 0.13348 0.63114 0.60853 0.0
N399 N 0.14876 0.66311 0.59712 0.0
C400 C 0.16568 0.64967 0.62066 0.0
C401 C 0.14978 0.63257 0.62148 0.0
H402 H 0.12064 0.64577 0.58788 0.0
H403 H 0.17689 0.67813 0.60971 0.0
C404 C 0.17232 0.7386 0.50494 0.0
N405 N 0.16094 0.72043 0.50119 0.0
C406 C 0.18217 0.74904 0.47408 0.0
C407 C 0.16815 0.7219 0.43574 0.0
C408 C 0.15866 0.71194 0.4675 0.0
C409 C 0.18026 0.74072 0.43883 0.0
H410 H 0.17409 0.74489 0.53228 0.0
H411 H 0.14977 0.69741 0.46538 0.0
O412 O 0.13452 0.68855 0.63127 0.0
O413 O 0.14023 0.72013 0.57844 0.0
O414 O 0.1689 0.70757 0.58065 0.0
O415 O 0.13039 0.68189 0.54496 0.0
H416 H 0.11173 0.6685 0.68483 0.0
H417 H 0.16803 0.69738 0.65196 0.0
H418 H 0.12058 0.65939 0.74399 0.0
H419 H 0.17588 0.68778 0.7116 0.0
H420 H 0.13399 0.76993 0.58966 0.0
H421 H 0.12189 0.71132 0.643 0.0
H422 H 0.14494 0.7517 0.55561 0.0
H423 H 0.11142 0.73022 0.67551 0.0
H424 H 0.16212 0.73851 0.7433 0.0
H425 H 0.20877 0.7641 0.66942 0.0
H426 H 0.06596 0.6488 0.64075 0.0
H427 H 0.06522 0.69468 0.58988 0.0
H428 H 0.16033 0.68369 0.52487 0.0
H429 H 0.20458 0.72613 0.58762 0.0
H430 H 0.18266 0.68022 0.48625 0.0
H431 H 0.22618 0.72186 0.54783 0.0
H432 H 0.11503 0.6528 0.50178 0.0
H433 H 0.1208 0.70551 0.52019 0.0
H434 H 0.09495 0.64853 0.44723 0.0
H435 H 0.10064 0.70029 0.46561 0.0
H436 H 0.12095 0.6182 0.60831 0.0
H437 H 0.17848 0.65147 0.63094 0.0
H438 H 0.19158 0.76338 0.47817 0.0
H439 H 0.16607 0.7149 0.40915 0.0
Li440 Li 0.44228 0.15325 0.95306 0.0
Li441 Li 0.4298 0.1244 0.9206 0.0
Li442 Li 0.46328 0.14528 0.92406 0.0
Li443 Li 0.4432 0.15282 0.88574 0.0
C444 C 0.44815 0.12665 0.99839 0.0
N445 N 0.45292 0.11384 0.06654 0.0
C446 C 0.43365 0.11143 0.01523 0.0
C447 C 0.4651 0.13531 0.01624 0.0
C448 C 0.43633 0.10519 0.04968 0.0
C449 C 0.46723 0.12864 0.05066 0.0
C450 C 0.40501 0.13601 0.93636 0.0
C451 C 0.37398 0.12958 0.93791 0.0
N452 N 0.37225 0.12299 0.9735 0.0
C453 C 0.40294 0.12921 0.97298 0.0
C454 C 0.39044 0.13624 0.91868 0.0
C455 C 0.38627 0.12268 0.99127 0.0
C456 C 0.43055 0.17518 0.98924 0.0
N457 N 0.43919 0.16557 0.99509 0.0
C458 C 0.44321 0.17361 0.06023 0.0
C459 C 0.44558 0.16473 0.02967 0.0
C460 C 0.43436 0.18363 0.05507 0.0
C461 C 0.42806 0.18447 0.01899 0.0
H462 H 0.42568 0.17569 0.96138 0.0
H463 H 0.45269 0.15739 0.03365 0.0
C464 C 0.42087 0.0888 0.9285 0.0
N465 N 0.41289 0.09904 0.92318 0.0
C466 C 0.41033 0.07031 0.93635 0.0
C467 C 0.38342 0.07304 0.93178 0.0
C468 C 0.3945 0.0915 0.92354 0.0
C469 C 0.39137 0.06231 0.93896 0.0
H470 H 0.43553 0.09521 0.9282 0.0
H471 H 0.3884 0.0998 0.91854 0.0
C472 C 0.47021 0.18474 0.93838 0.0
N473 N 0.48241 0.21673 0.97801 0.0
C474 C 0.46502 0.19728 0.92735 0.0
C475 C 0.4817 0.18851 0.96935 0.0
C476 C 0.47132 0.21337 0.9478 0.0
C477 C 0.4877 0.20475 0.98908 0.0
C478 C 0.43963 0.12271 0.84676 0.0
C479 C 0.44858 0.1168 0.82256 0.0
C480 C 0.42209 0.11909 0.83794 0.0
C481 C 0.43983 0.10737 0.7898 0.0
C482 C 0.41381 0.10962 0.80492 0.0
N483 N 0.42277 0.104 0.78173 0.0
C484 C 0.48508 0.13041 0.9416 0.0
C485 C 0.50178 0.1617 0.92614 0.0
C486 C 0.50095 0.13056 0.9522 0.0
N487 N 0.48574 0.14593 0.92985 0.0
C488 C 0.51807 0.16241 0.93586 0.0
C489 C 0.51779 0.14679 0.95 0.0
H490 H 0.47207 0.11811 0.94456 0.0
H491 H 0.50187 0.17384 0.91671 0.0
C492 C 0.43022 0.17106 0.8409 0.0
N493 N 0.44198 0.16462 0.84141 0.0
C494 C 0.42944 0.18063 0.80967 0.0
C495 C 0.4528 0.17663 0.77996 0.0
C496 C 0.45312 0.16712 0.8118 0.0
C497 C 0.44091 0.18364 0.7787 0.0
H498 H 0.42169 0.16904 0.8651 0.0
H499 H 0.46238 0.16188 0.8131 0.0
O500 O 0.44588 0.13273 0.96421 0.0
O501 O 0.42119 0.14254 0.91776 0.0
O502 O 0.46372 0.16868 0.91946 0.0
O503 O 0.44808 0.13201 0.87886 0.0
H504 H 0.42044 0.10449 0.00189 0.0
H505 H 0.47645 0.14721 0.00389 0.0
H506 H 0.42521 0.09344 0.06301 0.0
H507 H 0.48025 0.13526 0.0648 0.0
H508 H 0.36257 0.12964 0.92453 0.0
H509 H 0.41405 0.12899 0.98718 0.0
H510 H 0.39182 0.14146 0.89033 0.0
H511 H 0.38449 0.11737 0.0196 0.0
H512 H 0.44857 0.17292 0.08749 0.0
H513 H 0.42115 0.19206 0.01395 0.0
H514 H 0.41702 0.06255 0.94202 0.0
H515 H 0.36882 0.06729 0.93305 0.0
H516 H 0.45606 0.19451 0.90351 0.0
H517 H 0.48574 0.17888 0.97835 0.0
H518 H 0.46734 0.22316 0.93976 0.0
H519 H 0.49649 0.20779 0.01328 0.0
H520 H 0.46216 0.11951 0.82903 0.0
H521 H 0.41493 0.12354 0.8563 0.0
H522 H 0.4466 0.10272 0.77078 0.0
H523 H 0.40025 0.10673 0.79773 0.0
H524 H 0.49986 0.11823 0.96349 0.0
H525 H 0.53068 0.17515 0.93286 0.0
H526 H 0.42027 0.18601 0.81023 0.0
H527 H 0.46173 0.17844 0.75658 0.0
Li528 Li 0.53311 0.67773 0.41673 0.0
Li529 Li 0.55377 0.70561 0.45387 0.0
Li530 Li 0.55409 0.70634 0.38644 0.0
Li531 Li 0.56655 0.68999 0.41882 0.0
C532 C 0.52631 0.71015 0.40135 0.0
N533 N 0.51363 0.72926 0.36073 0.0
C534 C 0.53132 0.72792 0.41162 0.0
C535 C 0.51473 0.70203 0.37065 0.0
C536 C 0.52479 0.73737 0.39068 0.0
C537 C 0.5085 0.71194 0.3504 0.0
C538 C 0.55749 0.6792 0.4932 0.0
C539 C 0.58375 0.69216 0.53384 0.0
N540 N 0.57502 0.67774 0.55751 0.0
C541 C 0.54878 0.66451 0.51788 0.0
C542 C 0.57513 0.69315 0.50117 0.0
C543 C 0.55787 0.66402 0.55027 0.0
C544 C 0.51069 0.64101 0.39995 0.0
N545 N 0.51043 0.65605 0.41209 0.0
C546 C 0.47805 0.64066 0.40769 0.0
C547 C 0.49458 0.65609 0.4168 0.0
C548 C 0.47801 0.62528 0.39308 0.0
C549 C 0.49455 0.62544 0.38987 0.0
H550 H 0.52354 0.64145 0.39638 0.0
H551 H 0.49484 0.66831 0.42629 0.0
C552 C 0.56613 0.73768 0.49523 0.0
N553 N 0.55563 0.71932 0.49753 0.0
C554 C 0.56718 0.74862 0.52556 0.0
C555 C 0.54684 0.7215 0.56038 0.0
C556 C 0.54611 0.71109 0.52924 0.0
C557 C 0.55735 0.74058 0.55869 0.0
H558 H 0.57338 0.74383 0.46943 0.0
H559 H 0.53779 0.69644 0.53019 0.0
C560 C 0.54735 0.67366 0.34155 0.0
N561 N 0.54175 0.65617 0.27305 0.0
C562 C 0.56162 0.67289 0.32372 0.0
C563 C 0.53022 0.66547 0.32451 0.0
C564 C 0.55852 0.66401 0.28909 0.0
C565 C 0.52767 0.65671 0.28989 0.0
C566 C 0.59153 0.72634 0.40214 0.0
C567 C 0.59354 0.72138 0.36569 0.0
C568 C 0.60609 0.74132 0.4194 0.0
C569 C 0.61014 0.73147 0.34714 0.0
C570 C 0.62249 0.75106 0.39993 0.0
N571 N 0.62416 0.74597 0.36451 0.0
C572 C 0.56572 0.73987 0.35038 0.0
C573 C 0.55117 0.71454 0.30943 0.0
C574 C 0.56844 0.75175 0.32071 0.0
N575 N 0.5572 0.72164 0.34425 0.0
C576 C 0.55378 0.7259 0.27893 0.0
C577 C 0.56251 0.74474 0.28441 0.0
H578 H 0.57036 0.74516 0.37841 0.0
H579 H 0.5442 0.7001 0.30516 0.0
C580 C 0.57521 0.66323 0.40898 0.0
N581 N 0.58329 0.68138 0.41553 0.0
C582 C 0.58565 0.65531 0.39992 0.0
C583 C 0.61269 0.68477 0.40618 0.0
C584 C 0.60169 0.69212 0.41548 0.0
C585 C 0.60462 0.6662 0.3975 0.0
H586 H 0.56054 0.65508 0.40906 0.0
H587 H 0.60786 0.70645 0.42142 0.0
O588 O 0.53302 0.7009 0.42074 0.0
O589 O 0.5487 0.67985 0.46146 0.0
O590 O 0.55004 0.68199 0.37589 0.0
O591 O 0.5754 0.71676 0.42095 0.0
H592 H 0.54031 0.73441 0.43526 0.0
H593 H 0.51079 0.68831 0.36226 0.0
H594 H 0.52864 0.75118 0.39814 0.0
H595 H 0.49964 0.70587 0.3264 0.0
H596 H 0.59739 0.70286 0.54037 0.0
H597 H 0.53512 0.65361 0.51207 0.0
H598 H 0.58211 0.70463 0.48244 0.0
H599 H 0.55128 0.65274 0.56965 0.0
H600 H 0.46554 0.64102 0.41037 0.0
H601 H 0.495 0.61377 0.379 0.0
H602 H 0.57522 0.76323 0.52263 0.0
H603 H 0.53924 0.71468 0.58545 0.0
H604 H 0.57497 0.67907 0.33641 0.0
H605 H 0.51904 0.66605 0.33763 0.0
H606 H 0.56945 0.66333 0.27501 0.0
H607 H 0.51449 0.65037 0.27639 0.0
H608 H 0.58241 0.70993 0.35182 0.0
H609 H 0.60473 0.74535 0.4476 0.0
H610 H 0.61187 0.72777 0.31894 0.0
H611 H 0.63389 0.76267 0.41298 0.0
H612 H 0.57527 0.76623 0.32599 0.0
H613 H 0.54873 0.71996 0.25145 0.0
H614 H 0.57885 0.64098 0.39309 0.0
H615 H 0.6273 0.69356 0.40514 0.0
Li616 Li 0.8469 0.55432 0.77627 0.0
Li617 Li 0.85524 0.53659 0.73627 0.0
Li618 Li 0.87527 0.56985 0.73844 0.0
Li619 Li 0.84593 0.55587 0.70751 0.0
C620 C 0.86997 0.54124 0.808 0.0
N621 N 0.87195 0.51935 0.86318 0.0
C622 C 0.85426 0.52842 0.82659 0.0
C623 C 0.88672 0.54297 0.81759 0.0
C624 C 0.85552 0.51747 0.85436 0.0
C625 C 0.88744 0.53177 0.84553 0.0
C626 C 0.81909 0.5166 0.74162 0.0
C627 C 0.80473 0.4871 0.71192 0.0
N628 N 0.79511 0.47958 0.74396 0.0
C629 C 0.80895 0.50858 0.77415 0.0
C630 C 0.81687 0.50579 0.71015 0.0
C631 C 0.79694 0.48985 0.77481 0.0
C632 C 0.81797 0.55284 0.81558 0.0
N633 N 0.83506 0.55574 0.82061 0.0
C634 C 0.83372 0.56086 0.88645 0.0
C635 C 0.84314 0.55986 0.85506 0.0
C636 C 0.81588 0.55763 0.88221 0.0
C637 C 0.80807 0.55366 0.84609 0.0
H638 H 0.81203 0.54986 0.7877 0.0
H639 H 0.85686 0.56236 0.85818 0.0
C640 C 0.86683 0.51505 0.70067 0.0
N641 N 0.85639 0.51473 0.72995 0.0
C642 C 0.8676 0.49958 0.69099 0.0
C643 C 0.84768 0.48381 0.74318 0.0
C644 C 0.84717 0.49963 0.75169 0.0
C645 C 0.85779 0.48356 0.71205 0.0
H646 H 0.87434 0.52727 0.68421 0.0
H647 H 0.83901 0.49964 0.77501 0.0
C648 C 0.86197 0.59155 0.76605 0.0
N649 N 0.87349 0.62158 0.81199 0.0
C650 C 0.85611 0.604 0.75929 0.0
C651 C 0.87369 0.59437 0.79619 0.0
C652 C 0.86209 0.6191 0.78282 0.0
C653 C 0.87935 0.60963 0.81909 0.0
C654 C 0.86787 0.55638 0.65645 0.0
C655 C 0.87802 0.5739 0.64171 0.0
C656 C 0.85783 0.54175 0.63217 0.0
C657 C 0.87783 0.57654 0.60291 0.0
C658 C 0.85797 0.54495 0.59354 0.0
N659 N 0.86787 0.56214 0.57984 0.0
C660 C 0.91218 0.58257 0.73777 0.0
C661 C 0.90515 0.60563 0.72363 0.0
C662 C 0.93049 0.59431 0.72997 0.0
N663 N 0.89996 0.58833 0.73429 0.0
C664 C 0.92337 0.61782 0.7151 0.0
C665 C 0.93625 0.6121 0.71782 0.0
H666 H 0.90753 0.56857 0.74498 0.0
H667 H 0.89506 0.60972 0.72013 0.0
C668 C 0.81999 0.54439 0.6488 0.0
N669 N 0.83374 0.55911 0.66606 0.0
C670 C 0.81214 0.5465 0.61614 0.0
C671 C 0.83225 0.57899 0.62045 0.0
C672 C 0.83982 0.57622 0.65294 0.0
C673 C 0.81841 0.56395 0.60136 0.0
H674 H 0.81533 0.53098 0.65994 0.0
H675 H 0.85087 0.58766 0.66719 0.0
O676 O 0.86902 0.55208 0.78065 0.0
O677 O 0.83088 0.53496 0.74043 0.0
O678 O 0.85606 0.57664 0.74334 0.0
O679 O 0.86741 0.5536 0.69452 0.0
H680 H 0.84121 0.52686 0.81949 0.0
H681 H 0.89906 0.55289 0.80372 0.0
H682 H 0.84344 0.50746 0.86885 0.0
H683 H 0.90031 0.53297 0.85322 0.0
H684 H 0.80304 0.47857 0.68789 0.0
H685 H 0.8103 0.5167 0.79868 0.0
H686 H 0.82472 0.51166 0.68489 0.0
H687 H 0.78906 0.48347 0.79986 0.0
H688 H 0.84024 0.56387 0.91378 0.0
H689 H 0.79452 0.55143 0.84131 0.0
H690 H 0.87542 0.50009 0.66648 0.0
H691 H 0.84013 0.47192 0.76068 0.0
H692 H 0.84701 0.60198 0.7361 0.0
H693 H 0.87838 0.58491 0.80191 0.0
H694 H 0.85766 0.62885 0.77792 0.0
H695 H 0.88841 0.61197 0.84251 0.0
H696 H 0.88575 0.5854 0.66003 0.0
H697 H 0.84986 0.5281 0.64302 0.0
H698 H 0.88552 0.59006 0.59117 0.0
H699 H 0.85016 0.53378 0.57447 0.0
H700 H 0.93988 0.58922 0.73168 0.0
H701 H 0.92728 0.63143 0.70579 0.0
H702 H 0.80129 0.53459 0.60256 0.0
H703 H 0.83751 0.59265 0.6098 0.0
Li704 Li 0.31987 0.85576 0.07879 0.0
Li705 Li 0.29274 0.84871 0.11892 0.0
Li706 Li 0.29093 0.84736 0.0483 0.0
Li707 Li 0.30728 0.87608 0.08088 0.0
C708 C 0.30058 0.81903 0.08658 0.0
N709 N 0.30969 0.7922 0.0939 0.0
C710 C 0.29941 0.81106 0.12168 0.0
C711 C 0.30637 0.81334 0.05521 0.0
C712 C 0.30406 0.7975 0.12478 0.0
C713 C 0.31094 0.79977 0.05951 0.0
C714 C 0.32997 0.8857 0.13853 0.0
C715 C 0.3356 0.91208 0.17453 0.0
N716 N 0.35361 0.91994 0.16641 0.0
C717 C 0.34856 0.89397 0.13083 0.0
C718 C 0.32344 0.89475 0.16082 0.0
C719 C 0.36028 0.91131 0.14509 0.0
C720 C 0.35351 0.86733 0.04613 0.0
N721 N 0.34203 0.85539 0.0722 0.0
C722 C 0.3622 0.8438 0.08226 0.0
C723 C 0.3463 0.84409 0.09108 0.0
C724 C 0.374 0.85564 0.0546 0.0
C725 C 0.36963 0.86771 0.03691 0.0
H726 H 0.35008 0.8765 0.03217 0.0
H727 H 0.33731 0.83515 0.1126 0.0
C728 C 0.26355 0.82063 0.15619 0.0
N729 N 0.27925 0.83645 0.1625 0.0
C730 C 0.25283 0.81033 0.18633 0.0
C731 C 0.27446 0.83302 0.22903 0.0
C732 C 0.2849 0.84281 0.19797 0.0
C733 C 0.25824 0.81647 0.22336 0.0
H734 H 0.25945 0.81596 0.1276 0.0
H735 H 0.29749 0.85544 0.20209 0.0
C736 C 0.31563 0.86887 0.99881 0.0
N737 N 0.3157 0.87038 0.92109 0.0
C738 C 0.31233 0.8815 0.98055 0.0
C739 C 0.3191 0.85709 0.97756 0.0
C740 C 0.31241 0.88204 0.94122 0.0
C741 C 0.31902 0.85803 0.93829 0.0
C742 C 0.27075 0.86557 0.09549 0.0
C743 C 0.26005 0.86844 0.06957 0.0
C744 C 0.27077 0.87016 0.13329 0.0
C745 C 0.24974 0.8761 0.08186 0.0
C746 C 0.26027 0.87778 0.14448 0.0
N747 N 0.25007 0.88058 0.11874 0.0
C748 C 0.27155 0.81789 0.99842 0.0
C749 C 0.27052 0.84454 0.98351 0.0
C750 C 0.26169 0.8093 0.96603 0.0
N751 N 0.276 0.83528 0.00615 0.0
C752 C 0.26055 0.83645 0.95093 0.0
C753 C 0.25621 0.81868 0.94166 0.0
H754 H 0.27576 0.81072 0.01725 0.0
H755 H 0.27426 0.85836 0.99033 0.0
C756 C 0.33286 0.91035 0.06044 0.0
N757 N 0.31563 0.90141 0.07417 0.0
C758 C 0.34047 0.92818 0.04783 0.0
C759 C 0.31273 0.92773 0.06483 0.0
C760 C 0.30565 0.90982 0.07741 0.0
C761 C 0.33019 0.93694 0.04878 0.0
H762 H 0.34045 0.90331 0.05777 0.0
H763 H 0.29199 0.90256 0.08825 0.0
O764 O 0.296 0.83227 0.08295 0.0
O765 O 0.31824 0.86888 0.12416 0.0
O766 O 0.31534 0.86793 0.03728 0.0
O767 O 0.28084 0.85799 0.08393 0.0
H768 H 0.29507 0.81534 0.14632 0.0
H769 H 0.30748 0.81944 0.0279 0.0
H770 H 0.30325 0.79123 0.15177 0.0
H771 H 0.31551 0.79529 0.0355 0.0
H772 H 0.33071 0.91929 0.1916 0.0
H773 H 0.35388 0.88714 0.11382 0.0
H774 H 0.30915 0.88855 0.16728 0.0
H775 H 0.37468 0.91791 0.13915 0.0
H776 H 0.36526 0.83448 0.09693 0.0
H777 H 0.37834 0.87702 0.01538 0.0
H778 H 0.24033 0.79777 0.18071 0.0
H779 H 0.27916 0.83815 0.25716 0.0
H780 H 0.30948 0.89063 0.99653 0.0
H781 H 0.32172 0.84727 0.99126 0.0
H782 H 0.30977 0.89167 0.92671 0.0
H783 H 0.3216 0.84894 0.92149 0.0
H784 H 0.25973 0.86485 0.04028 0.0
H785 H 0.2788 0.8679 0.15379 0.0
H786 H 0.24146 0.87846 0.06207 0.0
H787 H 0.26022 0.88145 0.17363 0.0
H788 H 0.25834 0.79546 0.96018 0.0
H789 H 0.25669 0.84418 0.93273 0.0
H790 H 0.35413 0.93485 0.03651 0.0
H791 H 0.30431 0.93395 0.06605 0.0
Li792 Li 0.46583 0.32092 0.41402 0.0
Li793 Li 0.44463 0.29313 0.45346 0.0
Li794 Li 0.44361 0.29228 0.38471 0.0
Li795 Li 0.4333 0.30989 0.41844 0.0
C796 C 0.47122 0.28595 0.40692 0.0
N797 N 0.48458 0.26369 0.38454 0.0
C798 C 0.46683 0.27017 0.4272 0.0
C799 C 0.48264 0.29052 0.37559 0.0
C800 C 0.47367 0.25907 0.41537 0.0
C801 C 0.48918 0.27905 0.36461 0.0
C802 C 0.44372 0.32646 0.48251 0.0
C803 C 0.42048 0.32274 0.52642 0.0
N804 N 0.42684 0.34094 0.52506 0.0
C805 C 0.45008 0.34512 0.48161 0.0
C806 C 0.42884 0.31515 0.50512 0.0
C807 C 0.44134 0.35218 0.50332 0.0
C808 C 0.48916 0.35773 0.40096 0.0
N809 N 0.48893 0.34194 0.40826 0.0
C810 C 0.52089 0.3561 0.39732 0.0
C811 C 0.50435 0.34086 0.40715 0.0
C812 C 0.52148 0.37254 0.38878 0.0
C813 C 0.50537 0.3733 0.39129 0.0
H814 H 0.47658 0.35802 0.40119 0.0
H815 H 0.5037 0.32804 0.41269 0.0
C816 C 0.4294 0.26244 0.50118 0.0
N817 N 0.44299 0.27997 0.49788 0.0
C818 C 0.42871 0.25209 0.53235 0.0
C819 C 0.45587 0.27814 0.5564 0.0
C820 C 0.45602 0.28798 0.52474 0.0
C821 C 0.44217 0.25986 0.56035 0.0
H822 H 0.41938 0.25637 0.47907 0.0
H823 H 0.4667 0.30195 0.52123 0.0
C824 C 0.45492 0.32537 0.33959 0.0
N825 N 0.46733 0.34179 0.27028 0.0
C826 C 0.4447 0.33096 0.31845 0.0
C827 C 0.47139 0.32804 0.32529 0.0
C828 C 0.45121 0.33924 0.28351 0.0
C829 C 0.47747 0.3364 0.29028 0.0
C830 C 0.40678 0.27428 0.40083 0.0
C831 C 0.40463 0.28193 0.36773 0.0
C832 C 0.39252 0.25767 0.41351 0.0
C833 C 0.38828 0.27284 0.34789 0.0
C834 C 0.37637 0.24899 0.39286 0.0
N835 N 0.3746 0.25669 0.36075 0.0
C836 C 0.43861 0.26074 0.34597 0.0
C837 C 0.43622 0.28214 0.30739 0.0
C838 C 0.4364 0.24983 0.31474 0.0
N839 N 0.43915 0.2769 0.34163 0.0
C840 C 0.43375 0.27158 0.27552 0.0
C841 C 0.43422 0.25537 0.27875 0.0
H842 H 0.44001 0.25634 0.37364 0.0
H843 H 0.43561 0.29441 0.30456 0.0
C844 C 0.42421 0.33593 0.40127 0.0
N845 N 0.41695 0.31909 0.4166 0.0
C846 C 0.41308 0.34297 0.39157 0.0
C847 C 0.38735 0.31586 0.41667 0.0
C848 C 0.39902 0.30924 0.42564 0.0
C849 C 0.39432 0.33265 0.39815 0.0
H850 H 0.43857 0.34353 0.3949 0.0
H851 H 0.39362 0.29593 0.43814 0.0
O852 O 0.46463 0.29698 0.41817 0.0
O853 O 0.45169 0.31917 0.46062 0.0
O854 O 0.44868 0.3172 0.37388 0.0
O855 O 0.42268 0.28287 0.42082 0.0
H856 H 0.45814 0.26641 0.45163 0.0
H857 H 0.48643 0.30274 0.35981 0.0
H858 H 0.47028 0.24677 0.43067 0.0
H859 H 0.49793 0.28239 0.34027 0.0
H860 H 0.40889 0.31416 0.54392 0.0
H861 H 0.46155 0.35402 0.46415 0.0
H862 H 0.42369 0.30065 0.50587 0.0
H863 H 0.44606 0.36659 0.5028 0.0
H864 H 0.53303 0.35498 0.39597 0.0
H865 H 0.50515 0.38559 0.38432 0.0
H866 H 0.41806 0.238 0.53389 0.0
H867 H 0.46638 0.28476 0.57749 0.0
H868 H 0.43174 0.32872 0.32861 0.0
H869 H 0.47945 0.3238 0.34109 0.0
H870 H 0.44341 0.34359 0.26686 0.0
H871 H 0.49024 0.33861 0.27902 0.0
H872 H 0.41539 0.29481 0.3575 0.0
H873 H 0.3939 0.25154 0.43908 0.0
H874 H 0.38646 0.27864 0.32228 0.0
H875 H 0.36524 0.23613 0.40238 0.0
H876 H 0.43679 0.2374 0.31874 0.0
H877 H 0.43143 0.2761 0.24864 0.0
H878 H 0.41901 0.35612 0.37796 0.0
H879 H 0.37294 0.30755 0.42226 0.0
Li880 Li 0.14698 0.46829 0.75322 0.0
Li881 Li 0.15317 0.44669 0.78978 0.0
Li882 Li 0.15407 0.44703 0.72235 0.0
Li883 Li 0.12507 0.43498 0.75349 0.0
C884 C 0.18605 0.47355 0.73944 0.0
N885 N 0.21827 0.48478 0.70132 0.0
C886 C 0.19691 0.46599 0.74808 0.0
C887 C 0.19161 0.48688 0.71154 0.0
C888 C 0.21314 0.47183 0.72845 0.0
C889 C 0.20794 0.49237 0.69257 0.0
C890 C 0.12288 0.44341 0.82821 0.0
C891 C 0.10908 0.41705 0.86849 0.0
N892 N 0.1028 0.42558 0.89123 0.0
C893 C 0.11629 0.45192 0.85194 0.0
C894 C 0.11926 0.42583 0.8365 0.0
C895 C 0.10616 0.44268 0.88368 0.0
C896 C 0.13249 0.49076 0.74091 0.0
N897 N 0.14821 0.4911 0.74976 0.0
C898 C 0.16508 0.52336 0.74285 0.0
C899 C 0.16428 0.50696 0.75175 0.0
C900 C 0.14916 0.52336 0.73194 0.0
C901 C 0.13265 0.5068 0.73185 0.0
H902 H 0.11996 0.47787 0.73914 0.0
H903 H 0.17657 0.5068 0.75896 0.0
C904 C 0.17121 0.43261 0.83185 0.0
N905 N 0.16452 0.44414 0.83355 0.0
C906 C 0.18113 0.43141 0.86196 0.0
C907 C 0.17664 0.45362 0.89546 0.0
C908 C 0.16688 0.45446 0.86457 0.0
C909 C 0.18416 0.44216 0.89423 0.0
H910 H 0.1693 0.42474 0.80658 0.0
H911 H 0.16145 0.46357 0.86503 0.0
C912 C 0.13076 0.45537 0.67552 0.0
N913 N 0.12282 0.46237 0.60405 0.0
C914 C 0.11731 0.44134 0.65384 0.0
C915 C 0.14002 0.47301 0.6609 0.0
C916 C 0.11355 0.44514 0.61777 0.0
C917 C 0.13586 0.47625 0.62469 0.0
C918 C 0.13486 0.40884 0.73874 0.0
C919 C 0.12847 0.40662 0.70177 0.0
C920 C 0.13346 0.39394 0.75834 0.0
C921 C 0.12074 0.38949 0.68496 0.0
C922 C 0.12563 0.37702 0.74057 0.0
N923 N 0.11948 0.37516 0.70456 0.0
C924 C 0.17209 0.43181 0.68169 0.0
C925 C 0.16935 0.45452 0.64868 0.0
C926 C 0.18047 0.42898 0.65066 0.0
N927 N 0.16637 0.44415 0.67987 0.0
C928 C 0.17768 0.45219 0.61711 0.0
C929 C 0.18313 0.43909 0.61761 0.0
H930 H 0.17004 0.42406 0.70718 0.0
H931 H 0.16555 0.46483 0.64837 0.0
C932 C 0.09047 0.42603 0.73254 0.0
N933 N 0.09974 0.41849 0.74815 0.0
C934 C 0.07259 0.41508 0.72063 0.0
C935 C 0.07355 0.38884 0.74388 0.0
C936 C 0.09156 0.40034 0.75506 0.0
C937 C 0.06407 0.39619 0.72533 0.0
H938 H 0.09729 0.44053 0.72771 0.0
H939 H 0.09917 0.39468 0.76789 0.0
O940 O 0.16985 0.46761 0.75757 0.0
O941 O 0.13283 0.45234 0.79709 0.0
O942 O 0.13433 0.45201 0.71136 0.0
O943 O 0.14226 0.42541 0.75605 0.0
H944 H 0.19275 0.45558 0.76943 0.0
H945 H 0.18323 0.49269 0.7041 0.0
H946 H 0.22164 0.46602 0.7347 0.0
H947 H 0.21235 0.50257 0.67072 0.0
H948 H 0.10618 0.40344 0.87526 0.0
H949 H 0.11898 0.46553 0.84588 0.0
H950 H 0.12425 0.41901 0.81855 0.0
H951 H 0.10098 0.4491 0.90232 0.0
H952 H 0.17805 0.53585 0.74381 0.0
H953 H 0.1201 0.5061 0.72315 0.0
H954 H 0.18686 0.42259 0.8594 0.0
H955 H 0.17838 0.46196 0.9199 0.0
H956 H 0.10974 0.42765 0.66475 0.0
H957 H 0.15056 0.48404 0.677 0.0
H958 H 0.10319 0.4344 0.60073 0.0
H959 H 0.14303 0.48981 0.61298 0.0
H960 H 0.12959 0.41802 0.68616 0.0
H961 H 0.13828 0.39543 0.78707 0.0
H962 H 0.11575 0.3876 0.65634 0.0
H963 H 0.12442 0.36535 0.75543 0.0
H964 H 0.18452 0.41877 0.65231 0.0
H965 H 0.18 0.46071 0.59269 0.0
H966 H 0.06562 0.4213 0.7071 0.0
H967 H 0.06741 0.37433 0.74809 0.0
Li968 Li 0.70739 0.1505 0.12231 0.0
Li969 Li 0.68014 0.14392 0.08154 0.0
Li970 Li 0.69146 0.12248 0.0835 0.0
Li971 Li 0.7095 0.15136 0.05447 0.0
C972 C 0.6706 0.11401 0.14293 0.0
N973 N 0.64907 0.07994 0.1737 0.0
C974 C 0.65172 0.10523 0.13898 0.0
C975 C 0.67853 0.10552 0.16267 0.0
C976 C 0.64107 0.08799 0.15473 0.0
C977 C 0.66742 0.08827 0.17795 0.0
C978 C 0.70324 0.18097 0.07032 0.0
C979 C 0.69674 0.19389 0.01617 0.0
N980 N 0.70124 0.20916 0.03638 0.0
C981 C 0.70782 0.19679 0.09056 0.0
C982 C 0.69767 0.1795 0.03284 0.0
C983 C 0.70671 0.21089 0.0729 0.0
C984 C 0.73313 0.18035 0.16253 0.0
N985 N 0.72066 0.16245 0.16654 0.0
C986 C 0.72872 0.16331 0.23136 0.0
C987 C 0.71822 0.15382 0.20008 0.0
C988 C 0.74181 0.18186 0.22804 0.0
C989 C 0.74384 0.19036 0.19299 0.0
H990 H 0.7348 0.18685 0.13548 0.0
H991 H 0.70823 0.13957 0.20255 0.0
C992 C 0.64539 0.13087 0.05492 0.0
N993 N 0.65862 0.14509 0.07436 0.0
C994 C 0.62961 0.13085 0.04428 0.0
C995 C 0.64086 0.15976 0.07562 0.0
C996 C 0.65659 0.1593 0.08535 0.0
C997 C 0.62718 0.1455 0.05429 0.0
H998 H 0.64734 0.11971 0.04675 0.0
H999 H 0.66727 0.17039 0.1011 0.0
C1000 C 0.73384 0.14304 0.0735 0.0
N1001 N 0.76602 0.15246 0.03684 0.0
C1002 C 0.73438 0.13163 0.04581 0.0
C1003 C 0.74967 0.15916 0.08278 0.0
C1004 C 0.75078 0.13666 0.02755 0.0
C1005 C 0.76581 0.16371 0.06385 0.0
C1006 C 0.68107 0.12606 0.00364 0.0
C1007 C 0.68513 0.11305 0.99003 0.0
C1008 C 0.67223 0.1324 0.98009 0.0
C1009 C 0.68045 0.10674 0.95311 0.0
C1010 C 0.66779 0.12577 0.94333 0.0
N1011 N 0.67195 0.11318 0.93071 0.0
C1012 C 0.66529 0.08762 0.06413 0.0
C1013 C 0.69267 0.08919 0.08421 0.0
C1014 C 0.65826 0.06965 0.0528 0.0
N1015 N 0.68238 0.09711 0.07843 0.0
C1016 C 0.68602 0.07107 0.07375 0.0
C1017 C 0.66883 0.06132 0.05676 0.0
H1018 H 0.65748 0.09434 0.05974 0.0
H1019 H 0.70626 0.09713 0.09548 0.0
C1020 C 0.73789 0.18245 0.01929 0.0
N1021 N 0.72608 0.16442 0.01435 0.0
C1022 C 0.74942 0.19281 0.9901 0.0
C1023 C 0.73711 0.16569 0.95189 0.0
C1024 C 0.72589 0.15589 0.98184 0.0
C1025 C 0.74887 0.18448 0.95554 0.0
H1026 H 0.73823 0.18885 0.04584 0.0
H1027 H 0.71704 0.14149 0.97892 0.0
O1028 O 0.68127 0.13068 0.12694 0.0
O1029 O 0.70414 0.167 0.08735 0.0
O1030 O 0.71781 0.13863 0.09092 0.0
O1031 O 0.68506 0.13205 0.04015 0.0
H1032 H 0.64537 0.11162 0.1238 0.0
H1033 H 0.69315 0.11202 0.16545 0.0
H1034 H 0.62644 0.08101 0.15181 0.0
H1035 H 0.67338 0.08147 0.19304 0.0
H1036 H 0.69248 0.19293 0.98714 0.0
H1037 H 0.7121 0.19812 0.11966 0.0
H1038 H 0.69426 0.16744 0.01674 0.0
H1039 H 0.71019 0.22321 0.08823 0.0
H1040 H 0.7268 0.15612 0.25765 0.0
H1041 H 0.75348 0.20466 0.18912 0.0
H1042 H 0.61971 0.11968 0.02734 0.0
H1043 H 0.63949 0.1712 0.08458 0.0
H1044 H 0.72222 0.11915 0.03818 0.0
H1045 H 0.74946 0.16816 0.10406 0.0
H1046 H 0.75138 0.12803 0.00588 0.0
H1047 H 0.77815 0.1762 0.07055 0.0
H1048 H 0.69212 0.10808 0.00749 0.0
H1049 H 0.66872 0.14227 0.99006 0.0
H1050 H 0.68361 0.09675 0.94225 0.0
H1051 H 0.66097 0.13058 0.92486 0.0
H1052 H 0.64486 0.06248 0.04021 0.0
H1053 H 0.69454 0.06503 0.07717 0.0
H1054 H 0.7586 0.20719 0.99451 0.0
H1055 H 0.73617 0.15866 0.92583 0.0
H1056 H 0.34034 0.37251 0.25312 0.0
H1057 H 0.3665 0.3342 0.43421 0.0
H1058 H 0.32522 0.37823 0.3663 0.0
H1059 H 0.39432 0.34504 0.32757 0.0
H1060 H 0.34725 0.34558 0.40816 0.0
H1061 H 0.35625 0.35761 0.27854 0.0
C1062 C 0.34032 0.37063 0.28329 0.0
C1063 C 0.33153 0.37683 0.30755 0.0
C1064 C 0.35756 0.34541 0.39052 0.0
C1065 C 0.34954 0.3595 0.33679 0.0
C1066 C 0.36847 0.33889 0.40531 0.0
C1067 C 0.38212 0.33891 0.38311 0.0
C1068 C 0.36018 0.35169 0.35315 0.0
C1069 C 0.38414 0.3451 0.34582 0.0
C1070 C 0.34936 0.36205 0.29776 0.0
C1071 C 0.33163 0.37356 0.34638 0.0
N1072 N 0.3733 0.35123 0.33202 0.0
N1073 N 0.34055 0.36519 0.35979 0.0
H1074 H 0.97064 0.3457 0.57749 0.0
H1075 H 0.0346 0.36723 0.75838 0.0
H1076 H 0.94994 0.32636 0.68928 0.0
H1077 H 0.05208 0.39803 0.65516 0.0
H1078 H 0.00424 0.34852 0.73096 0.0
H1079 H 0.00144 0.36156 0.60322 0.0
C1080 C 0.97252 0.34473 0.60738 0.0
C1081 C 0.95756 0.33469 0.63117 0.0
C1082 C 0.01475 0.35936 0.71434 0.0
C1083 C 0.99287 0.35265 0.66072 0.0
C1084 C 0.03206 0.36997 0.72991 0.0
C1085 C 0.04577 0.3843 0.70914 0.0
C1086 C 0.01125 0.36299 0.6776 0.0
C1087 C 0.04178 0.38731 0.67237 0.0
C1088 C 0.99013 0.35374 0.62202 0.0
C1089 C 0.96097 0.33367 0.66962 0.0
N1090 N 0.0249 0.37675 0.65778 0.0
N1091 N 0.97824 0.34257 0.68318 0.0
H1092 H 0.62792 0.96709 0.9114 0.0
H1093 H 0.66681 0.03164 0.09181 0.0
H1094 H 0.61762 0.94665 0.02553 0.0
H1095 H 0.65596 0.04939 0.98615 0.0
H1096 H 0.6543 0.0009 0.06556 0.0
H1097 H 0.64353 0.99806 0.93635 0.0
C1098 C 0.62891 0.96902 0.94162 0.0
C1099 C 0.62133 0.95408 0.96626 0.0
C1100 C 0.65474 0.01157 0.04815 0.0
C1101 C 0.63958 0.98956 0.9949 0.0
C1102 C 0.66191 0.02906 0.06303 0.0
C1103 C 0.66221 0.04293 0.04117 0.0
C1104 C 0.64815 0.00809 0.01098 0.0
C1105 C 0.65572 0.03895 0.00404 0.0
C1106 C 0.63792 0.98673 0.9558 0.0
C1107 C 0.62347 0.9576 0.00524 0.0
N1108 N 0.64897 0.0219 0.99007 0.0
N1109 N 0.63239 0.97494 0.0183 0.0
H1110 H 0.67158 0.63876 0.25945 0.0
H1111 H 0.60176 0.63371 0.41699 0.0
H1112 H 0.64328 0.59397 0.33664 0.0
H1113 H 0.63231 0.68052 0.3459 0.0
H1114 H 0.61777 0.61947 0.38893 0.0
H1115 H 0.65824 0.65485 0.29161 0.0
C1116 C 0.66261 0.63233 0.28317 0.0
C1117 C 0.65836 0.61488 0.29501 0.0
C1118 C 0.6211 0.63292 0.3796 0.0
C1119 C 0.64305 0.63318 0.33188 0.0
C1120 C 0.61192 0.64103 0.39559 0.0
C1121 C 0.61565 0.65828 0.38365 0.0
C1122 C 0.63403 0.64204 0.35119 0.0
C1123 C 0.62912 0.66725 0.35615 0.0
C1124 C 0.65497 0.6415 0.30147 0.0
C1125 C 0.6466 0.60719 0.32587 0.0
N1126 N 0.63773 0.65896 0.34061 0.0
N1127 N 0.63934 0.61635 0.34309 0.0
H1128 H 0.9487 0.63347 0.65468 0.0
H1129 H 0.05155 0.65777 0.68858 0.0
H1130 H 0.96722 0.61749 0.75287 0.0
H1131 H 0.03312 0.6698 0.58499 0.0
H1132 H 0.02126 0.64588 0.71493 0.0
H1133 H 0.98005 0.65007 0.63156 0.0
C1134 C 0.95941 0.63371 0.67167 0.0
C1135 C 0.95534 0.62399 0.70565 0.0
C1136 C 0.0238 0.65114 0.68646 0.0
C1137 C 0.99115 0.64274 0.67917 0.0
C1138 C 0.04109 0.65783 0.67127 0.0
C1139 C 0.04482 0.66453 0.63426 0.0
C1140 C 0.01001 0.65109 0.66458 0.0
C1141 C 0.03084 0.66475 0.61361 0.0
C1142 C 0.97727 0.64306 0.65831 0.0
C1143 C 0.96971 0.62458 0.72629 0.0
N1144 N 0.01399 0.65799 0.62896 0.0
N1145 N 0.98693 0.6337 0.71264 0.0
H1146 H 0.32716 0.96608 0.07353 0.0
H1147 H 0.39343 0.03289 0.91451 0.0
H1148 H 0.34945 0.9492 0.98327 0.0
H1149 H 0.36426 0.04823 0.99178 0.0
H1150 H 0.37711 0.002 0.93947 0.0
H1151 H 0.34017 0.99614 0.04419 0.0
C1152 C 0.33468 0.96864 0.04749 0.0
C1153 C 0.33742 0.95515 0.03117 0.0
C1154 C 0.37414 0.01205 0.95081 0.0
C1155 C 0.35243 0.9895 0.99762 0.0
C1156 C 0.3835 0.0297 0.93661 0.0
C1157 C 0.38023 0.04313 0.95118 0.0
C1158 C 0.36155 0.00781 0.98015 0.0
C1159 C 0.36708 0.03823 0.97956 0.0
C1160 C 0.34215 0.98581 0.0308 0.0
C1161 C 0.34737 0.95928 0.99746 0.0
N1162 N 0.35833 0.02099 0.99339 0.0
N1163 N 0.35457 0.97607 0.98198 0.0
H1164 H 0.20887 0.47079 0.93722 0.0
H1165 H 0.24155 0.41174 0.05425 0.0
H1166 H 0.18585 0.41294 0.92287 0.0
H1167 H 0.25824 0.46759 0.07991 0.0
H1168 H 0.22236 0.41231 0.00361 0.0
H1169 H 0.22811 0.4702 0.98757 0.0
C1170 C 0.2077 0.45792 0.94484 0.0
C1171 C 0.19562 0.44188 0.9257 0.0
C1172 C 0.23026 0.42445 0.02027 0.0
C1173 C 0.21797 0.44119 0.98306 0.0
C1174 C 0.24119 0.42412 0.04929 0.0
C1175 C 0.25157 0.43964 0.07148 0.0
C1176 C 0.22968 0.44042 0.01323 0.0
C1177 C 0.25073 0.45538 0.06325 0.0
C1178 C 0.21882 0.45762 0.97346 0.0
C1179 C 0.19508 0.42569 0.93641 0.0
N1180 N 0.23998 0.45535 0.03488 0.0
N1181 N 0.20609 0.42577 0.9643 0.0
H1182 H 0.82783 0.26176 0.3702 0.0
H1183 H 0.73205 0.17916 0.3027 0.0
H1184 H 0.78548 0.22621 0.44683 0.0
H1185 H 0.7778 0.20858 0.22822 0.0
H1186 H 0.75101 0.19691 0.35559 0.0
H1187 H 0.80918 0.24336 0.31738 0.0
C1188 C 0.81459 0.25011 0.3759 0.0
C1189 C 0.80823 0.24551 0.41301 0.0
C1190 C 0.75691 0.19945 0.32767 0.0
C1191 C 0.7868 0.22436 0.3527 0.0
C1192 C 0.7461 0.18923 0.29742 0.0
C1193 C 0.75327 0.19234 0.26077 0.0
C1194 C 0.77503 0.21298 0.32132 0.0
C1195 C 0.77154 0.20586 0.25577 0.0
C1196 C 0.80399 0.23955 0.34576 0.0
C1197 C 0.79103 0.23014 0.41874 0.0
N1198 N 0.78174 0.21569 0.28562 0.0
N1199 N 0.78091 0.22017 0.38894 0.0
H1200 H 0.53001 0.78379 0.75325 0.0
H1201 H 0.58619 0.77243 0.58513 0.0
H1202 H 0.58373 0.82584 0.72054 0.0
H1203 H 0.52927 0.73503 0.6055 0.0
H1204 H 0.5861 0.79147 0.63657 0.0
H1205 H 0.52998 0.76516 0.701 0.0
C1206 C 0.54174 0.78923 0.73489 0.0
C1207 C 0.55687 0.80651 0.74138 0.0
C1208 C 0.57364 0.77909 0.62976 0.0
C1209 C 0.55706 0.78497 0.68173 0.0
C1210 C 0.57364 0.76823 0.60026 0.0
C1211 C 0.5577 0.75205 0.59079 0.0
C1212 C 0.5576 0.77376 0.65018 0.0
C1213 C 0.54196 0.7472 0.61202 0.0
C1214 C 0.54176 0.77849 0.70517 0.0
C1215 C 0.57184 0.81255 0.71702 0.0
N1216 N 0.54232 0.75799 0.64065 0.0
N1217 N 0.57156 0.80179 0.68836 0.0
H1218 H 0.73069 0.53745 0.04191 0.0
H1219 H 0.82804 0.58184 0.94121 0.0
H1220 H 0.77878 0.58411 0.0857 0.0
H1221 H 0.77979 0.53512 0.89815 0.0
H1222 H 0.81032 0.58295 0.99437 0.0
H1223 H 0.74841 0.53678 0.98845 0.0
C1224 C 0.74494 0.54766 0.04015 0.0
C1225 C 0.75323 0.56086 0.06843 0.0
C1226 C 0.80361 0.57246 0.97328 0.0
C1227 C 0.77372 0.56001 0.0074 0.0
C1228 C 0.81376 0.57174 0.94302 0.0
C1229 C 0.80541 0.55838 0.91506 0.0
C1230 C 0.78497 0.55969 0.9757 0.0
C1231 C 0.78677 0.54582 0.91868 0.0
C1232 C 0.75509 0.54719 0.00971 0.0
C1233 C 0.77185 0.57354 0.06487 0.0
N1234 N 0.77721 0.54679 0.94839 0.0
N1235 N 0.78145 0.57279 0.03497 0.0
H1236 H 0.19566 0.73038 0.38296 0.0
H1237 H 0.24856 0.82837 0.28627 0.0
H1238 H 0.1903 0.77591 0.41977 0.0
H1239 H 0.24233 0.77975 0.23399 0.0
H1240 H 0.2294 0.80992 0.33854 0.0
H1241 H 0.21448 0.74869 0.33055 0.0
C1242 C 0.19825 0.74414 0.3799 0.0
C1243 C 0.1913 0.75154 0.406 0.0
C1244 C 0.23221 0.8033 0.31559 0.0
C1245 C 0.21327 0.77276 0.34631 0.0
C1246 C 0.24325 0.81383 0.28591 0.0
C1247 C 0.24701 0.80558 0.2557 0.0
C1248 C 0.22505 0.78439 0.31528 0.0
C1249 C 0.23961 0.78665 0.2565 0.0
C1250 C 0.20913 0.75464 0.35006 0.0
C1251 C 0.19555 0.76966 0.40083 0.0
N1252 N 0.22904 0.77671 0.28584 0.0
N1253 N 0.20629 0.77964 0.37172 0.0
H1254 H 0.41153 0.18289 0.74454 0.0
H1255 H 0.47139 0.25993 0.59352 0.0
H1256 H 0.46999 0.20908 0.73787 0.0
H1257 H 0.41301 0.23448 0.60124 0.0
H1258 H 0.47111 0.24139 0.6463 0.0
H1259 H 0.41175 0.20147 0.69182 0.0
C1260 C 0.42443 0.19258 0.73209 0.0
C1261 C 0.44077 0.19441 0.74578 0.0
C1262 C 0.45836 0.23986 0.63648 0.0
C1263 C 0.44111 0.21569 0.6851 0.0
C1264 C 0.45851 0.25055 0.60648 0.0
C1265 C 0.4422 0.24883 0.59289 0.0
C1266 C 0.44177 0.22731 0.65317 0.0
C1267 C 0.4259 0.23615 0.61044 0.0
C1268 C 0.42453 0.20314 0.70184 0.0
C1269 C 0.45703 0.20701 0.72803 0.0
N1270 N 0.42611 0.22591 0.63964 0.0
N1271 N 0.45679 0.21718 0.69872 0.0
H1272 H 0.21202 0.43312 0.61402 0.0
H1273 H 0.21582 0.43605 0.38891 0.0
H1274 H 0.1733 0.43826 0.54398 0.0
H1275 H 0.25206 0.42648 0.45774 0.0
H1276 H 0.19961 0.43611 0.44563 0.0
H1277 H 0.22629 0.42957 0.55733 0.0
C1278 C 0.20642 0.43334 0.58676 0.0
C1279 C 0.19153 0.43613 0.58374 0.0
C1280 C 0.21104 0.43389 0.44836 0.0
C1281 C 0.2079 0.43229 0.51878 0.0
C1282 C 0.22034 0.43394 0.416 0.0
C1283 C 0.23534 0.43132 0.41866 0.0
C1284 C 0.21685 0.43134 0.48372 0.0
C1285 C 0.24047 0.42839 0.4544 0.0
C1286 C 0.21463 0.4314 0.55439 0.0
C1287 C 0.18497 0.43649 0.54764 0.0
N1288 N 0.23131 0.4286 0.48558 0.0
N1289 N 0.19324 0.43468 0.51661 0.0
H1290 H 0.80655 0.2191 0.74326 0.0
H1291 H 0.75618 0.21842 0.934 0.0
H1292 H 0.80353 0.26526 0.78461 0.0
H1293 H 0.76645 0.1753 0.90244 0.0
H1294 H 0.77289 0.23546 0.87853 0.0
H1295 H 0.79063 0.20216 0.79989 0.0
C1296 C 0.80244 0.22562 0.76417 0.0
C1297 C 0.80639 0.24361 0.75933 0.0
C1298 C 0.77155 0.2223 0.8838 0.0
C1299 C 0.78834 0.22443 0.82414 0.0
C1300 C 0.76212 0.21261 0.91567 0.0
C1301 C 0.75988 0.19537 0.92297 0.0
C1302 C 0.77873 0.21469 0.85883 0.0
C1303 C 0.76759 0.1884 0.89769 0.0
C1304 C 0.79349 0.21601 0.79657 0.0
C1305 C 0.80095 0.25149 0.78745 0.0
N1306 N 0.77662 0.19806 0.86667 0.0
N1307 N 0.79218 0.24184 0.8186 0.0
H1308 H 0.58495 0.79766 0.06672 0.0
H1309 H 0.55552 0.7728 0.28211 0.0
H1310 H 0.55011 0.81296 0.12552 0.0
H1311 H 0.57509 0.74415 0.2139 0.0
H1312 H 0.55795 0.79146 0.22748 0.0
H1313 H 0.58543 0.78126 0.12289 0.0
C1314 C 0.57737 0.79756 0.09131 0.0
C1315 C 0.56745 0.80672 0.09124 0.0
C1316 C 0.56177 0.78113 0.22453 0.0
C1317 C 0.56826 0.78827 0.15579 0.0
C1318 C 0.56051 0.77059 0.25571 0.0
C1319 C 0.56502 0.75688 0.25236 0.0
C1320 C 0.56776 0.77805 0.18989 0.0
C1321 C 0.57126 0.75445 0.21747 0.0
C1322 C 0.57775 0.78828 0.12342 0.0
C1323 C 0.5582 0.80639 0.12432 0.0
N1324 N 0.57245 0.76493 0.18753 0.0
N1325 N 0.55884 0.79733 0.1552 0.0
H1326 H 0.76019 0.59085 0.43832 0.0
H1327 H 0.81126 0.5444 0.53633 0.0
H1328 H 0.77093 0.55208 0.38256 0.0
H1329 H 0.80788 0.58894 0.58602 0.0
H1330 H 0.79696 0.54744 0.47926 0.0
H1331 H 0.77819 0.59094 0.49217 0.0
C1332 C 0.76642 0.58243 0.43737 0.0
C1333 C 0.764 0.57137 0.40605 0.0
C1334 C 0.79943 0.55663 0.50252 0.0
C1335 C 0.78455 0.57137 0.46749 0.0
C1336 C 0.80748 0.55482 0.53518 0.0
C1337 C 0.81059 0.56633 0.56602 0.0
C1338 C 0.7943 0.56996 0.50076 0.0
C1339 C 0.80576 0.57982 0.56281 0.0
C1340 C 0.77675 0.58254 0.46802 0.0
C1341 C 0.77256 0.5609 0.40603 0.0
N1342 N 0.7977 0.58117 0.53086 0.0
N1343 N 0.78232 0.56104 0.43644 0.0
H1344 H 0.22111 0.76072 0.73044 0.0
H1345 H 0.22643 0.81877 0.9124 0.0
H1346 H 0.17811 0.77092 0.76314 0.0
H1347 H 0.26354 0.79908 0.89078 0.0
H1348 H 0.21019 0.80417 0.85423 0.0
H1349 H 0.23863 0.77785 0.78533 0.0
C1350 C 0.21545 0.76676 0.74894 0.0
C1351 C 0.19812 0.76438 0.74229 0.0
C1352 C 0.22189 0.80306 0.86223 0.0
C1353 C 0.218 0.78381 0.80538 0.0
C1354 C 0.2312 0.81145 0.89529 0.0
C1355 C 0.24628 0.81004 0.90647 0.0
C1356 C 0.22781 0.79334 0.84006 0.0
C1357 C 0.25181 0.80027 0.88345 0.0
C1358 C 0.22539 0.77641 0.78044 0.0
C1359 C 0.19134 0.77227 0.76749 0.0
N1360 N 0.24259 0.79231 0.85132 0.0
N1361 N 0.20129 0.78163 0.79797 0.0
H1362 H 0.42277 0.17095 0.12628 0.0
H1363 H 0.44842 0.26799 0.2086 0.0
H1364 H 0.44116 0.21864 0.05692 0.0
H1365 H 0.41702 0.21817 0.271 0.0
H1366 H 0.44659 0.25024 0.15323 0.0
H1367 H 0.42135 0.18807 0.18028 0.0
C1368 C 0.42645 0.18503 0.12245 0.0
C1369 C 0.43217 0.19345 0.0872 0.0
C1370 C 0.44001 0.24318 0.17898 0.0
C1371 C 0.43064 0.2131 0.14874 0.0
C1372 C 0.44096 0.25331 0.21063 0.0
C1373 C 0.43284 0.24459 0.24466 0.0
C1374 C 0.43105 0.22417 0.18132 0.0
C1375 C 0.42373 0.22552 0.24563 0.0
C1376 C 0.42556 0.19476 0.1532 0.0
C1377 C 0.43658 0.21163 0.08359 0.0
N1378 N 0.42316 0.21595 0.21448 0.0
N1379 N 0.43588 0.22091 0.11409 0.0
H1380 H 0.3928 0.5432 0.25391 0.0
H1381 H 0.44538 0.60643 0.42967 0.0
H1382 H 0.37563 0.52689 0.36853 0.0
H1383 H 0.472 0.6086 0.32484 0.0
H1384 H 0.41741 0.58021 0.40566 0.0
H1385 H 0.4198 0.57054 0.27747 0.0
C1386 C 0.39467 0.54548 0.284 0.0
C1387 C 0.38208 0.53279 0.30937 0.0
C1388 C 0.4294 0.58645 0.38799 0.0
C1389 C 0.41271 0.56392 0.3364 0.0
C1390 C 0.44528 0.60139 0.40159 0.0
C1391 C 0.46098 0.60953 0.37926 0.0
C1392 C 0.42918 0.57989 0.35157 0.0
C1393 C 0.46021 0.60253 0.34308 0.0
C1394 C 0.41008 0.56098 0.29741 0.0
C1395 C 0.38514 0.53629 0.34811 0.0
N1396 N 0.44454 0.58816 0.33026 0.0
N1397 N 0.40013 0.55157 0.36048 0.0
H1398 H 0.82954 0.44823 0.71564 0.0
H1399 H 0.87958 0.40767 0.59414 0.0
H1400 H 0.88573 0.48016 0.68161 0.0
H1401 H 0.83362 0.37414 0.66552 0.0
H1402 H 0.88031 0.43461 0.62018 0.0
H1403 H 0.8292 0.42098 0.69257 0.0
C1404 C 0.84188 0.44955 0.70377 0.0
C1405 C 0.85767 0.46664 0.70048 0.0
C1406 C 0.87008 0.42132 0.63009 0.0
C1407 C 0.85715 0.43547 0.67305 0.0
C1408 C 0.86967 0.40591 0.61532 0.0
C1409 C 0.85652 0.38849 0.62756 0.0
C1410 C 0.85712 0.41938 0.65698 0.0
C1411 C 0.84381 0.38718 0.65458 0.0
C1412 C 0.8416 0.43397 0.69034 0.0
C1413 C 0.87311 0.46741 0.68407 0.0
N1414 N 0.84439 0.4024 0.66827 0.0
N1415 N 0.87241 0.45209 0.67073 0.0
H1416 H 0.44694 0.8245 0.95409 0.0
H1417 H 0.40832 0.88435 0.04439 0.0
H1418 H 0.48141 0.87995 0.99058 0.0
H1419 H 0.37714 0.82588 0.03817 0.0
H1420 H 0.43489 0.88344 0.02074 0.0
H1421 H 0.42076 0.82514 0.98063 0.0
C1422 C 0.44906 0.8368 0.96777 0.0
C1423 C 0.46649 0.8522 0.97 0.0
C1424 C 0.42227 0.8708 0.02477 0.0
C1425 C 0.43644 0.85306 1.00002 0.0
C1426 C 0.40711 0.87132 0.03816 0.0
C1427 C 0.39053 0.85516 0.04319 0.0
C1428 C 0.42079 0.85401 0.01586 0.0
C1429 C 0.38972 0.83863 0.03498 0.0
C1430 C 0.43407 0.83715 0.98283 0.0
C1431 C 0.46824 0.86784 0.9875 0.0
N1432 N 0.40461 0.83848 0.02141 0.0
N1433 N 0.45342 0.86787 0.00173 0.0
H1434 H 0.61737 0.44607 0.26082 0.0
H1435 H 0.53523 0.40819 0.40856 0.0
H1436 H 0.60836 0.47993 0.33828 0.0
H1437 H 0.54637 0.37346 0.33838 0.0
H1438 H 0.56214 0.43463 0.38305 0.0
H1439 H 0.5916 0.41924 0.28883 0.0
C1440 C 0.61003 0.44787 0.28377 0.0
C1441 C 0.61499 0.46533 0.29698 0.0
C1442 C 0.55877 0.42123 0.37333 0.0
C1443 C 0.58541 0.43468 0.32903 0.0
C1444 C 0.54337 0.40613 0.38782 0.0
C1445 C 0.53851 0.38859 0.37553 0.0
C1446 C 0.56939 0.41882 0.34613 0.0
C1447 C 0.54971 0.38672 0.34894 0.0
C1448 C 0.59528 0.43255 0.29967 0.0
C1449 C 0.60484 0.46682 0.32659 0.0
N1450 N 0.56456 0.40165 0.33496 0.0
N1451 N 0.59056 0.45173 0.34152 0.0
H1452 H 0.17567 0.62254 0.61235 0.0
H1453 H 0.12484 0.53504 0.74558 0.0
H1454 H 0.12461 0.60626 0.66788 0.0
H1455 H 0.17491 0.55007 0.687 0.0
H1456 H 0.1251 0.56169 0.71907 0.0
H1457 H 0.17619 0.59664 0.64101 0.0
C1458 C 0.16458 0.61354 0.63061 0.0
C1459 C 0.15004 0.61656 0.63758 0.0
C1460 C 0.13607 0.5592 0.71213 0.0
C1461 C 0.15052 0.58684 0.67044 0.0
C1462 C 0.13591 0.54396 0.72719 0.0
C1463 C 0.14985 0.54026 0.71847 0.0
C1464 C 0.15027 0.57087 0.68805 0.0
C1465 C 0.16399 0.55247 0.6949 0.0
C1466 C 0.16486 0.59872 0.64688 0.0
C1467 C 0.13595 0.60432 0.66118 0.0
N1468 N 0.16379 0.56717 0.68041 0.0
N1469 N 0.13656 0.59004 0.67677 0.0
H1470 H 0.59232 0.11691 0.04587 0.0
H1471 H 0.54726 0.1752 0.9852 0.0
H1472 H 0.62433 0.1752 0.03301 0.0
H1473 H 0.52702 0.12 0.94756 0.0
H1474 H 0.57401 0.1754 0.011 0.0
H1475 H 0.56625 0.11765 0.01934 0.0
C1476 C 0.59396 0.12988 0.0374 0.0
C1477 C 0.61074 0.146 0.04133 0.0
C1478 C 0.56369 0.1633 0.99695 0.0
C1479 C 0.58065 0.1469 0.01173 0.0
C1480 C 0.54844 0.16318 0.98189 0.0
C1481 C 0.53468 0.14752 0.9641 0.0
C1482 C 0.56508 0.14757 0.99486 0.0
C1483 C 0.53696 0.13227 0.96165 0.0
C1484 C 0.57901 0.13026 0.02237 0.0
C1485 C 0.6117 0.16243 0.03092 0.0
N1486 N 0.55176 0.13263 0.97711 0.0
N1487 N 0.59686 0.16246 0.01661 0.0
loop_
_geom_bond_atom_site_label_1
_geom_bond_atom_site_label_2
_geom_bond_distance
_geom_bond_site_symmetry_2
_ccdc_geom_bond_type
Li0 N17 1.990 . S
Li0 O60 1.956 . S
Li0 O61 1.970 . S
Li0 O62 1.961 . S
Li1 N25 1.990 . S
Li1 O60 1.970 . S
Li1 O61 1.956 . S
Li1 O63 1.961 . S
Li2 N47 1.990 . S
Li2 O60 1.961 . S
Li2 O62 1.956 . S
Li2 O63 1.970 . S
Li3 N53 1.990 . S
Li3 O61 1.961 . S
Li3 O62 1.970 . S
Li3 O63 1.956 . S
C4 C6 1.348 . S
C4 C7 1.356 . S
C4 O60 1.325 . S
N5 C8 1.314 . S
N5 C9 1.279 . S
C6 C4 1.348 . S
C6 C8 1.353 . S
C6 H64 0.929 . S
C7 C4 1.356 . S
C7 C9 1.358 . S
C7 H65 0.930 . S
C8 N5 1.314 . S
C8 C6 1.353 . S
C8 H66 0.930 . S
C9 N5 1.279 . S
C9 C7 1.358 . S
C9 H67 0.930 . S
C10 C13 1.348 . S
C10 C14 1.356 . S
C10 O61 1.325 . S
C11 N12 1.279 . S
C11 C14 1.358 . S
C11 H68 0.930 . S
N12 C11 1.279 . S
N12 C15 1.314 . S
C13 C10 1.348 . S
C13 C15 1.353 . S
C13 H69 0.929 . S
C14 C10 1.356 . S
C14 C11 1.358 . S
C14 H70 0.930 . S
C15 N12 1.314 . S
C15 C13 1.353 . S
C15 H71 0.930 . S
C16 N17 1.314 . S
C16 C21 1.353 . S
C16 H22 0.930 . S
N17 Li0 1.990 . S
N17 C16 1.314 . S
N17 C19 1.279 . S
C18 C19 1.358 . S
C18 C20 1.356 . S
C18 H72 0.930 . S
C19 N17 1.279 . S
C19 C18 1.358 . S
C19 H23 0.930 . S
C20 C18 1.356 . S
C20 C21 1.348 . S
C21 C16 1.353 . S
C21 C20 1.348 . S
C21 H73 0.929 . S
H22 C16 0.930 . S
H23 C19 0.930 . S
C24 N25 1.314 . S
C24 C26 1.353 . S
C24 H30 0.930 . S
N25 Li1 1.990 . S
N25 C24 1.314 . S
N25 C28 1.279 . S
C26 C24 1.353 . S
C26 C29 1.348 . S
C26 H74 0.929 . S
C27 C28 1.358 . S
C27 C29 1.356 . S
C27 H75 0.930 . S
C28 N25 1.279 . S
C28 C27 1.358 . S
C28 H31 0.930 . S
C29 C26 1.348 . S
C29 C27 1.356 . S
H30 C24 0.930 . S
H31 C28 0.930 . S
C32 C34 1.348 . S
C32 C35 1.356 . S
C32 O62 1.325 . S
N33 C36 1.314 . S
N33 C37 1.279 . S
C34 C32 1.348 . S
C34 C36 1.353 . S
C34 H76 0.929 . S
C35 C32 1.356 . S
C35 C37 1.358 . S
C35 H77 0.930 . S
C36 N33 1.314 . S
C36 C34 1.353 . S
C36 H78 0.930 . S
C37 N33 1.279 . S
C37 C35 1.358 . S
C37 H79 0.930 . S
C38 C39 1.348 . S
C38 C40 1.356 . S
C38 O63 1.325 . S
C39 C38 1.348 . S
C39 C41 1.353 . S
C39 H80 0.929 . S
C40 C38 1.356 . S
C40 C42 1.358 . S
C40 H81 0.930 . S
C41 C39 1.353 . S
C41 N43 1.314 . S
C41 H82 0.930 . S
C42 C40 1.358 . S
C42 N43 1.279 . S
C42 H83 0.930 . S
N43 C41 1.314 . S
N43 C42 1.279 . S
C44 C46 1.353 . S
C44 N47 1.314 . S
C44 H50 0.930 . S
C45 N47 1.279 . S
C45 C48 1.358 . S
C45 H51 0.930 . S
C46 C44 1.353 . S
C46 C49 1.348 . S
C46 H84 0.929 . S
N47 Li2 1.990 . S
N47 C44 1.314 . S
N47 C45 1.279 . S
C48 C45 1.358 . S
C48 C49 1.356 . S
C48 H85 0.930 . S
C49 C46 1.348 . S
C49 C48 1.356 . S
H50 C44 0.930 . S
H51 C45 0.930 . S
C52 N53 1.314 . S
C52 C54 1.353 . S
C52 H58 0.930 . S
N53 Li3 1.990 . S
N53 C52 1.314 . S
N53 C56 1.279 . S
C54 C52 1.353 . S
C54 C57 1.348 . S
C54 H86 0.929 . S
C55 C56 1.358 . S
C55 C57 1.356 . S
C55 H87 0.930 . S
C56 N53 1.279 . S
C56 C55 1.358 . S
C56 H59 0.930 . S
C57 C54 1.348 . S
C57 C55 1.356 . S
H58 C52 0.930 . S
H59 C56 0.930 . S
O60 Li0 1.956 . S
O60 Li1 1.970 . S
O60 Li2 1.961 . S
O60 C4 1.325 . S
O61 Li0 1.970 . S
O61 Li1 1.956 . S
O61 Li3 1.961 . S
O61 C10 1.325 . S
O62 Li0 1.961 . S
O62 Li2 1.956 . S
O62 Li3 1.970 . S
O62 C32 1.325 . S
O63 Li1 1.961 . S
O63 Li2 1.970 . S
O63 Li3 1.956 . S
O63 C38 1.325 . S
H64 C6 0.929 . S
H65 C7 0.930 . S
H66 C8 0.930 . S
H67 C9 0.930 . S
H68 C11 0.930 . S
H69 C13 0.929 . S
H70 C14 0.930 . S
H71 C15 0.930 . S
H72 C18 0.930 . S
H73 C21 0.929 . S
H74 C26 0.929 . S
H75 C27 0.930 . S
H76 C34 0.929 . S
H77 C35 0.930 . S
H78 C36 0.930 . S
H79 C37 0.930 . S
H80 C39 0.929 . S
H81 C40 0.930 . S
H82 C41 0.930 . S
H83 C42 0.930 . S
H84 C46 0.929 . S
H85 C48 0.930 . S
H86 C54 0.929 . S
H87 C55 0.930 . S
Li88 N105 1.990 . S
Li88 O148 1.956 . S
Li88 O149 1.970 . S
Li88 O150 1.961 . S
Li89 N113 1.990 . S
Li89 O148 1.970 . S
Li89 O149 1.956 . S
Li89 O151 1.961 . S
Li90 N135 1.990 . S
Li90 O148 1.961 . S
Li90 O150 1.956 . S
Li90 O151 1.970 . S
Li91 N141 1.990 . S
Li91 O149 1.961 . S
Li91 O150 1.970 . S
Li91 O151 1.956 . S
C92 C94 1.348 . S
C92 C95 1.356 . S
C92 O148 1.325 . S
N93 C96 1.314 . S
N93 C97 1.279 . S
C94 C92 1.348 . S
C94 C96 1.353 . S
C94 H152 0.929 . S
C95 C92 1.356 . S
C95 C97 1.358 . S
C95 H153 0.930 . S
C96 N93 1.314 . S
C96 C94 1.353 . S
C96 H154 0.930 . S
C97 N93 1.279 . S
C97 C95 1.358 . S
C97 H155 0.930 . S
C98 C101 1.348 . S
C98 C102 1.356 . S
C98 O149 1.325 . S
C99 N100 1.279 . S
C99 C102 1.358 . S
C99 H156 0.930 . S
N100 C99 1.279 . S
N100 C103 1.314 . S
C101 C98 1.348 . S
C101 C103 1.353 . S
C101 H157 0.929 . S
C102 C98 1.356 . S
C102 C99 1.358 . S
C102 H158 0.930 . S
C103 N100 1.314 . S
C103 C101 1.353 . S
C103 H159 0.930 . S
C104 N105 1.314 . S
C104 C109 1.353 . S
C104 H110 0.930 . S
N105 Li88 1.990 . S
N105 C104 1.314 . S
N105 C107 1.279 . S
C106 C107 1.358 . S
C106 C108 1.356 . S
C106 H160 0.930 . S
C107 N105 1.279 . S
C107 C106 1.358 . S
C107 H111 0.930 . S
C108 C106 1.356 . S
C108 C109 1.348 . S
C109 C104 1.353 . S
C109 C108 1.348 . S
C109 H161 0.929 . S
H110 C104 0.930 . S
H111 C107 0.930 . S
C112 N113 1.314 . S
C112 C114 1.353 . S
C112 H118 0.930 . S
N113 Li89 1.990 . S
N113 C112 1.314 . S
N113 C116 1.279 . S
C114 C112 1.353 . S
C114 C117 1.348 . S
C114 H162 0.929 . S
C115 C116 1.358 . S
C115 C117 1.356 . S
C115 H163 0.930 . S
C116 N113 1.279 . S
C116 C115 1.358 . S
C116 H119 0.930 . S
C117 C114 1.348 . S
C117 C115 1.356 . S
H118 C112 0.930 . S
H119 C116 0.930 . S
C120 C122 1.348 . S
C120 C123 1.356 . S
C120 O150 1.325 . S
N121 C124 1.314 . S
N121 C125 1.279 . S
C122 C120 1.348 . S
C122 C124 1.353 . S
C122 H164 0.929 . S
C123 C120 1.356 . S
C123 C125 1.358 . S
C123 H165 0.930 . S
C124 N121 1.314 . S
C124 C122 1.353 . S
C124 H166 0.930 . S
C125 N121 1.279 . S
C125 C123 1.358 . S
C125 H167 0.930 . S
C126 C127 1.348 . S
C126 C128 1.356 . S
C126 O151 1.325 . S
C127 C126 1.348 . S
C127 C129 1.353 . S
C127 H168 0.929 . S
C128 C126 1.356 . S
C128 C130 1.358 . S
C128 H169 0.930 . S
C129 C127 1.353 . S
C129 N131 1.314 . S
C129 H170 0.930 . S
C130 C128 1.358 . S
C130 N131 1.279 . S
C130 H171 0.930 . S
N131 C129 1.314 . S
N131 C130 1.279 . S
C132 C134 1.353 . S
C132 N135 1.314 . S
C132 H138 0.930 . S
C133 N135 1.279 . S
C133 C136 1.358 . S
C133 H139 0.930 . S
C134 C132 1.353 . S
C134 C137 1.348 . S
C134 H172 0.929 . S
N135 Li90 1.990 . S
N135 C132 1.314 . S
N135 C133 1.279 . S
C136 C133 1.358 . S
C136 C137 1.356 . S
C136 H173 0.930 . S
C137 C134 1.348 . S
C137 C136 1.356 . S
H138 C132 0.930 . S
H139 C133 0.930 . S
C140 N141 1.314 . S
C140 C142 1.353 . S
C140 H146 0.930 . S
N141 Li91 1.990 . S
N141 C140 1.314 . S
N141 C144 1.279 . S
C142 C140 1.353 . S
C142 C145 1.348 . S
C142 H174 0.929 . S
C143 C144 1.358 . S
C143 C145 1.356 . S
C143 H175 0.930 . S
C144 N141 1.279 . S
C144 C143 1.358 . S
C144 H147 0.930 . S
C145 C142 1.348 . S
C145 C143 1.356 . S
H146 C140 0.930 . S
H147 C144 0.930 . S
O148 Li88 1.956 . S
O148 Li89 1.970 . S
O148 Li90 1.961 . S
O148 C92 1.325 . S
O149 Li88 1.970 . S
O149 Li89 1.956 . S
O149 Li91 1.961 . S
O149 C98 1.325 . S
O150 Li88 1.961 . S
O150 Li90 1.956 . S
O150 Li91 1.970 . S
O150 C120 1.325 . S
O151 Li89 1.961 . S
O151 Li90 1.970 . S
O151 Li91 1.956 . S
O151 C126 1.325 . S
H152 C94 0.929 . S
H153 C95 0.930 . S
H154 C96 0.930 . S
H155 C97 0.930 . S
H156 C99 0.930 . S
H157 C101 0.929 . S
H158 C102 0.930 . S
H159 C103 0.930 . S
H160 C106 0.930 . S
H161 C109 0.929 . S
H162 C114 0.929 . S
H163 C115 0.930 . S
H164 C122 0.929 . S
H165 C123 0.930 . S
H166 C124 0.930 . S
H167 C125 0.930 . S
H168 C127 0.929 . S
H169 C128 0.930 . S
H170 C129 0.930 . S
H171 C130 0.930 . S
H172 C134 0.929 . S
H173 C136 0.930 . S
H174 C142 0.929 . S
H175 C143 0.930 . S
Li176 N193 1.990 . S
Li176 O236 1.956 . S
Li176 O237 1.970 . S
Li176 O238 1.961 . S
Li177 N201 1.990 1_556 S
Li177 O236 1.970 . S
Li177 O237 1.956 . S
Li177 O239 1.961 . S
Li178 N223 1.990 . S
Li178 O236 1.961 . S
Li178 O238 1.956 . S
Li178 O239 1.970 . S
Li179 N229 1.990 . S
Li179 O237 1.961 . S
Li179 O238 1.970 . S
Li179 O239 1.956 . S
C180 C182 1.348 . S
C180 C183 1.356 . S
C180 O236 1.325 . S
N181 C184 1.314 . S
N181 C185 1.279 . S
C182 C180 1.348 . S
C182 C184 1.353 . S
C182 H240 0.929 . S
C183 C180 1.356 . S
C183 C185 1.358 . S
C183 H241 0.930 . S
C184 N181 1.314 . S
C184 C182 1.353 . S
C184 H242 0.930 . S
C185 N181 1.279 . S
C185 C183 1.358 . S
C185 H243 0.930 . S
C186 C189 1.348 . S
C186 C190 1.356 . S
C186 O237 1.325 1_554 S
C187 N188 1.279 . S
C187 C190 1.358 . S
C187 H244 0.930 . S
N188 C187 1.279 . S
N188 C191 1.314 . S
C189 C186 1.348 . S
C189 C191 1.353 . S
C189 H245 0.929 . S
C190 C186 1.356 . S
C190 C187 1.358 . S
C190 H246 0.930 . S
C191 N188 1.314 . S
C191 C189 1.353 . S
C191 H247 0.930 . S
C192 N193 1.314 . S
C192 C197 1.353 . S
C192 H198 0.930 . S
N193 Li176 1.990 . S
N193 C192 1.314 . S
N193 C195 1.279 . S
C194 C195 1.358 . S
C194 C196 1.356 . S
C194 H248 0.930 . S
C195 N193 1.279 . S
C195 C194 1.358 . S
C195 H199 0.930 . S
C196 C194 1.356 . S
C196 C197 1.348 . S
C197 C192 1.353 . S
C197 C196 1.348 . S
C197 H249 0.929 . S
H198 C192 0.930 . S
H199 C195 0.930 . S
C200 N201 1.314 . S
C200 C202 1.353 . S
C200 H206 0.930 1_554 S
N201 Li177 1.990 1_554 S
N201 C200 1.314 . S
N201 C204 1.279 . S
C202 C200 1.353 . S
C202 C205 1.348 . S
C202 H250 0.929 . S
C203 C204 1.358 . S
C203 C205 1.356 . S
C203 H251 0.930 . S
C204 N201 1.279 . S
C204 C203 1.358 . S
C204 H207 0.930 . S
C205 C202 1.348 . S
C205 C203 1.356 . S
H206 C200 0.930 1_556 S
H207 C204 0.930 . S
C208 C210 1.348 . S
C208 C211 1.356 . S
C208 O238 1.325 . S
N209 C212 1.314 . S
N209 C213 1.279 . S
C210 C208 1.348 . S
C210 C212 1.353 . S
C210 H252 0.929 . S
C211 C208 1.356 . S
C211 C213 1.358 . S
C211 H253 0.930 . S
C212 N209 1.314 . S
C212 C210 1.353 . S
C212 H254 0.930 . S
C213 N209 1.279 . S
C213 C211 1.358 . S
C213 H255 0.930 . S
C214 C215 1.348 . S
C214 C216 1.356 . S
C214 O239 1.325 . S
C215 C214 1.348 . S
C215 C217 1.353 . S
C215 H256 0.929 . S
C216 C214 1.356 . S
C216 C218 1.358 . S
C216 H257 0.930 . S
C217 C215 1.353 . S
C217 N219 1.314 . S
C217 H258 0.930 . S
C218 C216 1.358 . S
C218 N219 1.279 . S
C218 H259 0.930 . S
N219 C217 1.314 . S
N219 C218 1.279 . S
C220 C222 1.353 . S
C220 N223 1.314 . S
C220 H226 0.930 . S
C221 N223 1.279 . S
C221 C224 1.358 . S
C221 H227 0.930 . S
C222 C220 1.353 . S
C222 C225 1.348 . S
C222 H260 0.929 . S
N223 Li178 1.990 . S
N223 C220 1.314 . S
N223 C221 1.279 . S
C224 C221 1.358 . S
C224 C225 1.356 . S
C224 H261 0.930 . S
C225 C222 1.348 . S
C225 C224 1.356 . S
H226 C220 0.930 . S
H227 C221 0.930 . S
C228 N229 1.314 . S
C228 C230 1.353 . S
C228 H234 0.930 . S
N229 Li179 1.990 . S
N229 C228 1.314 . S
N229 C232 1.279 . S
C230 C228 1.353 . S
C230 C233 1.348 . S
C230 H262 0.929 . S
C231 C232 1.358 . S
C231 C233 1.356 . S
C231 H263 0.930 . S
C232 N229 1.279 . S
C232 C231 1.358 . S
C232 H235 0.930 . S
C233 C230 1.348 . S
C233 C231 1.356 . S
H234 C228 0.930 . S
H235 C232 0.930 . S
O236 Li176 1.956 . S
O236 Li177 1.970 . S
O236 Li178 1.961 . S
O236 C180 1.325 . S
O237 Li176 1.970 . S
O237 Li177 1.956 . S
O237 Li179 1.961 . S
O237 C186 1.325 1_556 S
O238 Li176 1.961 . S
O238 Li178 1.956 . S
O238 Li179 1.970 . S
O238 C208 1.325 . S
O239 Li177 1.961 . S
O239 Li178 1.970 . S
O239 Li179 1.956 . S
O239 C214 1.325 . S
H240 C182 0.929 . S
H241 C183 0.930 . S
H242 C184 0.930 . S
H243 C185 0.930 . S
H244 C187 0.930 . S
H245 C189 0.929 . S
H246 C190 0.930 . S
H247 C191 0.930 . S
H248 C194 0.930 . S
H249 C197 0.929 . S
H250 C202 0.929 . S
H251 C203 0.930 . S
H252 C210 0.929 . S
H253 C211 0.930 . S
H254 C212 0.930 . S
H255 C213 0.930 . S
H256 C215 0.929 . S
H257 C216 0.930 . S
H258 C217 0.930 . S
H259 C218 0.930 . S
H260 C222 0.929 . S
H261 C224 0.930 . S
H262 C230 0.929 . S
H263 C231 0.930 . S
Li264 N281 1.990 . S
Li264 O324 1.956 . S
Li264 O325 1.970 . S
Li264 O326 1.961 . S
Li265 N289 1.990 . S
Li265 O324 1.970 . S
Li265 O325 1.956 . S
Li265 O327 1.961 . S
Li266 N311 1.990 . S
Li266 O324 1.961 . S
Li266 O326 1.956 . S
Li266 O327 1.970 . S
Li267 N317 1.990 . S
Li267 O325 1.961 . S
Li267 O326 1.970 . S
Li267 O327 1.956 . S
C268 C270 1.348 . S
C268 C271 1.356 . S
C268 O324 1.325 . S
N269 C272 1.314 . S
N269 C273 1.279 . S
C270 C268 1.348 . S
C270 C272 1.353 . S
C270 H328 0.929 . S
C271 C268 1.356 . S
C271 C273 1.358 . S
C271 H329 0.930 . S
C272 N269 1.314 . S
C272 C270 1.353 . S
C272 H330 0.930 . S
C273 N269 1.279 . S
C273 C271 1.358 . S
C273 H331 0.930 . S
C274 C277 1.348 . S
C274 C278 1.356 . S
C274 O325 1.325 . S
C275 N276 1.279 . S
C275 C278 1.358 . S
C275 H332 0.930 . S
N276 C275 1.279 . S
N276 C279 1.314 . S
C277 C274 1.348 . S
C277 C279 1.353 . S
C277 H333 0.929 . S
C278 C274 1.356 . S
C278 C275 1.358 . S
C278 H334 0.930 . S
C279 N276 1.314 . S
C279 C277 1.353 . S
C279 H335 0.930 . S
C280 N281 1.314 . S
C280 C285 1.353 . S
C280 H286 0.930 . S
N281 Li264 1.990 . S
N281 C280 1.314 . S
N281 C283 1.279 . S
C282 C283 1.358 . S
C282 C284 1.356 . S
C282 H336 0.930 . S
C283 N281 1.279 . S
C283 C282 1.358 . S
C283 H287 0.930 . S
C284 C282 1.356 . S
C284 C285 1.348 . S
C285 C280 1.353 . S
C285 C284 1.348 . S
C285 H337 0.929 . S
H286 C280 0.930 . S
H287 C283 0.930 . S
C288 N289 1.314 . S
C288 C290 1.353 . S
C288 H294 0.930 . S
N289 Li265 1.990 . S
N289 C288 1.314 . S
N289 C292 1.279 . S
C290 C288 1.353 . S
C290 C293 1.348 . S
C290 H338 0.929 . S
C291 C292 1.358 . S
C291 C293 1.356 . S
C291 H339 0.930 . S
C292 N289 1.279 . S
C292 C291 1.358 . S
C292 H295 0.930 . S
C293 C290 1.348 . S
C293 C291 1.356 . S
H294 C288 0.930 . S
H295 C292 0.930 . S
C296 C298 1.348 . S
C296 C299 1.356 . S
C296 O326 1.325 . S
N297 C300 1.314 . S
N297 C301 1.279 . S
C298 C296 1.348 . S
C298 C300 1.353 . S
C298 H340 0.929 . S
C299 C296 1.356 . S
C299 C301 1.358 . S
C299 H341 0.930 . S
C300 N297 1.314 . S
C300 C298 1.353 . S
C300 H342 0.930 . S
C301 N297 1.279 . S
C301 C299 1.358 . S
C301 H343 0.930 . S
C302 C303 1.348 . S
C302 C304 1.356 . S
C302 O327 1.325 . S
C303 C302 1.348 . S
C303 C305 1.353 . S
C303 H344 0.929 . S
C304 C302 1.356 . S
C304 C306 1.358 . S
C304 H345 0.930 . S
C305 C303 1.353 . S
C305 N307 1.314 . S
C305 H346 0.930 . S
C306 C304 1.358 . S
C306 N307 1.279 . S
C306 H347 0.930 . S
N307 C305 1.314 . S
N307 C306 1.279 . S
C308 C310 1.353 . S
C308 N311 1.314 . S
C308 H314 0.930 . S
C309 N311 1.279 . S
C309 C312 1.358 . S
C309 H315 0.930 . S
C310 C308 1.353 . S
C310 C313 1.348 . S
C310 H348 0.929 . S
N311 Li266 1.990 . S
N311 C308 1.314 . S
N311 C309 1.279 . S
C312 C309 1.358 . S
C312 C313 1.356 . S
C312 H349 0.930 . S
C313 C310 1.348 . S
C313 C312 1.356 . S
H314 C308 0.930 . S
H315 C309 0.930 . S
C316 N317 1.314 . S
C316 C318 1.353 . S
C316 H322 0.930 . S
N317 Li267 1.990 . S
N317 C316 1.314 . S
N317 C320 1.279 . S
C318 C316 1.353 . S
C318 C321 1.348 . S
C318 H350 0.929 . S
C319 C320 1.358 . S
C319 C321 1.356 . S
C319 H351 0.930 . S
C320 N317 1.279 . S
C320 C319 1.358 . S
C320 H323 0.930 . S
C321 C318 1.348 . S
C321 C319 1.356 . S
H322 C316 0.930 . S
H323 C320 0.930 . S
O324 Li264 1.956 . S
O324 Li265 1.970 . S
O324 Li266 1.961 . S
O324 C268 1.325 . S
O325 Li264 1.970 . S
O325 Li265 1.956 . S
O325 Li267 1.961 . S
O325 C274 1.325 . S
O326 Li264 1.961 . S
O326 Li266 1.956 . S
O326 Li267 1.970 . S
O326 C296 1.325 . S
O327 Li265 1.961 . S
O327 Li266 1.970 . S
O327 Li267 1.956 . S
O327 C302 1.325 . S
H328 C270 0.929 . S
H329 C271 0.930 . S
H330 C272 0.930 . S
H331 C273 0.930 . S
H332 C275 0.930 . S
H333 C277 0.929 . S
H334 C278 0.930 . S
H335 C279 0.930 . S
H336 C282 0.930 . S
H337 C285 0.929 . S
H338 C290 0.929 . S
H339 C291 0.930 . S
H340 C298 0.929 . S
H341 C299 0.930 . S
H342 C300 0.930 . S
H343 C301 0.930 . S
H344 C303 0.929 . S
H345 C304 0.930 . S
H346 C305 0.930 . S
H347 C306 0.930 . S
H348 C310 0.929 . S
H349 C312 0.930 . S
H350 C318 0.929 . S
H351 C319 0.930 . S
Li352 N369 1.990 . S
Li352 O412 1.956 . S
Li352 O413 1.970 . S
Li352 O414 1.961 . S
Li353 N377 1.990 . S
Li353 O412 1.970 . S
Li353 O413 1.956 . S
Li353 O415 1.961 . S
Li354 N399 1.990 . S
Li354 O412 1.961 . S
Li354 O414 1.956 . S
Li354 O415 1.970 . S
Li355 N405 1.990 . S
Li355 O413 1.961 . S
Li355 O414 1.970 . S
Li355 O415 1.956 . S
C356 C358 1.348 . S
C356 C359 1.356 . S
C356 O412 1.325 . S
N357 C360 1.314 . S
N357 C361 1.279 . S
C358 C356 1.348 . S
C358 C360 1.353 . S
C358 H416 0.929 . S
C359 C356 1.356 . S
C359 C361 1.358 . S
C359 H417 0.930 . S
C360 N357 1.314 . S
C360 C358 1.353 . S
C360 H418 0.930 . S
C361 N357 1.279 . S
C361 C359 1.358 . S
C361 H419 0.930 . S
C362 C365 1.348 . S
C362 C366 1.356 . S
C362 O413 1.325 . S
C363 N364 1.279 . S
C363 C366 1.358 . S
C363 H420 0.930 . S
N364 C363 1.279 . S
N364 C367 1.314 . S
C365 C362 1.348 . S
C365 C367 1.353 . S
C365 H421 0.929 . S
C366 C362 1.356 . S
C366 C363 1.358 . S
C366 H422 0.930 . S
C367 N364 1.314 . S
C367 C365 1.353 . S
C367 H423 0.930 . S
C368 N369 1.314 . S
C368 C373 1.353 . S
C368 H374 0.930 . S
N369 Li352 1.990 . S
N369 C368 1.314 . S
N369 C371 1.279 . S
C370 C371 1.358 . S
C370 C372 1.356 . S
C370 H424 0.930 . S
C371 N369 1.279 . S
C371 C370 1.358 . S
C371 H375 0.930 . S
C372 C370 1.356 . S
C372 C373 1.348 . S
C373 C368 1.353 . S
C373 C372 1.348 . S
C373 H425 0.929 . S
H374 C368 0.930 . S
H375 C371 0.930 . S
C376 N377 1.314 . S
C376 C378 1.353 . S
C376 H382 0.930 . S
N377 Li353 1.990 . S
N377 C376 1.314 . S
N377 C380 1.279 . S
C378 C376 1.353 . S
C378 C381 1.348 . S
C378 H426 0.929 . S
C379 C380 1.358 . S
C379 C381 1.356 . S
C379 H427 0.930 . S
C380 N377 1.279 . S
C380 C379 1.358 . S
C380 H383 0.930 . S
C381 C378 1.348 . S
C381 C379 1.356 . S
H382 C376 0.930 . S
H383 C380 0.930 . S
C384 C386 1.348 . S
C384 C387 1.356 . S
C384 O414 1.325 . S
N385 C388 1.314 . S
N385 C389 1.279 . S
C386 C384 1.348 . S
C386 C388 1.353 . S
C386 H428 0.929 . S
C387 C384 1.356 . S
C387 C389 1.358 . S
C387 H429 0.930 . S
C388 N385 1.314 . S
C388 C386 1.353 . S
C388 H430 0.930 . S
C389 N385 1.279 . S
C389 C387 1.358 . S
C389 H431 0.930 . S
C390 C391 1.348 . S
C390 C392 1.356 . S
C390 O415 1.325 . S
C391 C390 1.348 . S
C391 C393 1.353 . S
C391 H432 0.929 . S
C392 C390 1.356 . S
C392 C394 1.358 . S
C392 H433 0.930 . S
C393 C391 1.353 . S
C393 N395 1.314 . S
C393 H434 0.930 . S
C394 C392 1.358 . S
C394 N395 1.279 . S
C394 H435 0.930 . S
N395 C393 1.314 . S
N395 C394 1.279 . S
C396 C398 1.353 . S
C396 N399 1.314 . S
C396 H402 0.930 . S
C397 N399 1.279 . S
C397 C400 1.358 . S
C397 H403 0.930 . S
C398 C396 1.353 . S
C398 C401 1.348 . S
C398 H436 0.929 . S
N399 Li354 1.990 . S
N399 C396 1.314 . S
N399 C397 1.279 . S
C400 C397 1.358 . S
C400 C401 1.356 . S
C400 H437 0.930 . S
C401 C398 1.348 . S
C401 C400 1.356 . S
H402 C396 0.930 . S
H403 C397 0.930 . S
C404 N405 1.314 . S
C404 C406 1.353 . S
C404 H410 0.930 . S
N405 Li355 1.990 . S
N405 C404 1.314 . S
N405 C408 1.279 . S
C406 C404 1.353 . S
C406 C409 1.348 . S
C406 H438 0.929 . S
C407 C408 1.358 . S
C407 C409 1.356 . S
C407 H439 0.930 . S
C408 N405 1.279 . S
C408 C407 1.358 . S
C408 H411 0.930 . S
C409 C406 1.348 . S
C409 C407 1.356 . S
H410 C404 0.930 . S
H411 C408 0.930 . S
O412 Li352 1.956 . S
O412 Li353 1.970 . S
O412 Li354 1.961 . S
O412 C356 1.325 . S
O413 Li352 1.970 . S
O413 Li353 1.956 . S
O413 Li355 1.961 . S
O413 C362 1.325 . S
O414 Li352 1.961 . S
O414 Li354 1.956 . S
O414 Li355 1.970 . S
O414 C384 1.325 . S
O415 Li353 1.961 . S
O415 Li354 1.970 . S
O415 Li355 1.956 . S
O415 C390 1.325 . S
H416 C358 0.929 . S
H417 C359 0.930 . S
H418 C360 0.930 . S
H419 C361 0.930 . S
H420 C363 0.930 . S
H421 C365 0.929 . S
H422 C366 0.930 . S
H423 C367 0.930 . S
H424 C370 0.930 . S
H425 C373 0.929 . S
H426 C378 0.929 . S
H427 C379 0.930 . S
H428 C386 0.929 . S
H429 C387 0.930 . S
H430 C388 0.930 . S
H431 C389 0.930 . S
H432 C391 0.929 . S
H433 C392 0.930 . S
H434 C393 0.930 . S
H435 C394 0.930 . S
H436 C398 0.929 . S
H437 C400 0.930 . S
H438 C406 0.929 . S
H439 C407 0.930 . S
Li440 N457 1.990 1_556 S
Li440 O500 1.956 . S
Li440 O501 1.970 . S
Li440 O502 1.961 . S
Li441 N465 1.990 . S
Li441 O500 1.970 . S
Li441 O501 1.956 . S
Li441 O503 1.961 . S
Li442 N487 1.990 . S
Li442 O500 1.961 . S
Li442 O502 1.956 . S
Li442 O503 1.970 . S
Li443 N493 1.990 . S
Li443 O501 1.961 . S
Li443 O502 1.970 . S
Li443 O503 1.956 . S
C444 C446 1.348 . S
C444 C447 1.356 . S
C444 O500 1.325 1_554 S
N445 C448 1.314 . S
N445 C449 1.279 . S
C446 C444 1.348 . S
C446 C448 1.353 . S
C446 H504 0.929 . S
C447 C444 1.356 . S
C447 C449 1.358 . S
C447 H505 0.930 . S
C448 N445 1.314 . S
C448 C446 1.353 . S
C448 H506 0.930 . S
C449 N445 1.279 . S
C449 C447 1.358 . S
C449 H507 0.930 . S
C450 C453 1.348 . S
C450 C454 1.356 . S
C450 O501 1.325 . S
C451 N452 1.279 . S
C451 C454 1.358 . S
C451 H508 0.930 . S
N452 C451 1.279 . S
N452 C455 1.314 . S
C453 C450 1.348 . S
C453 C455 1.353 . S
C453 H509 0.929 . S
C454 C450 1.356 . S
C454 C451 1.358 . S
C454 H510 0.930 . S
C455 N452 1.314 . S
C455 C453 1.353 . S
C455 H511 0.930 . S
C456 N457 1.314 . S
C456 C461 1.353 . S
C456 H462 0.930 1_554 S
N457 Li440 1.990 1_554 S
N457 C456 1.314 . S
N457 C459 1.279 . S
C458 C459 1.358 . S
C458 C460 1.356 . S
C458 H512 0.930 . S
C459 N457 1.279 . S
C459 C458 1.358 . S
C459 H463 0.930 . S
C460 C458 1.356 . S
C460 C461 1.348 . S
C461 C456 1.353 . S
C461 C460 1.348 . S
C461 H513 0.929 . S
H462 C456 0.930 1_556 S
H463 C459 0.930 . S
C464 N465 1.314 . S
C464 C466 1.353 . S
C464 H470 0.930 . S
N465 Li441 1.990 . S
N465 C464 1.314 . S
N465 C468 1.279 . S
C466 C464 1.353 . S
C466 C469 1.348 . S
C466 H514 0.929 . S
C467 C468 1.358 . S
C467 C469 1.356 . S
C467 H515 0.930 . S
C468 N465 1.279 . S
C468 C467 1.358 . S
C468 H471 0.930 . S
C469 C466 1.348 . S
C469 C467 1.356 . S
H470 C464 0.930 . S
H471 C468 0.930 . S
C472 C474 1.348 . S
C472 C475 1.356 . S
C472 O502 1.325 . S
N473 C476 1.314 . S
N473 C477 1.279 . S
C474 C472 1.348 . S
C474 C476 1.353 . S
C474 H516 0.929 . S
C475 C472 1.356 . S
C475 C477 1.358 . S
C475 H517 0.930 . S
C476 N473 1.314 . S
C476 C474 1.353 . S
C476 H518 0.930 . S
C477 N473 1.279 . S
C477 C475 1.358 . S
C477 H519 0.930 . S
C478 C479 1.348 . S
C478 C480 1.356 . S
C478 O503 1.325 . S
C479 C478 1.348 . S
C479 C481 1.353 . S
C479 H520 0.929 . S
C480 C478 1.356 . S
C480 C482 1.358 . S
C480 H521 0.930 . S
C481 C479 1.353 . S
C481 N483 1.314 . S
C481 H522 0.930 . S
C482 C480 1.358 . S
C482 N483 1.279 . S
C482 H523 0.930 . S
N483 C481 1.314 . S
N483 C482 1.279 . S
C484 C486 1.353 . S
C484 N487 1.314 . S
C484 H490 0.930 . S
C485 N487 1.279 . S
C485 C488 1.358 . S
C485 H491 0.930 . S
C486 C484 1.353 . S
C486 C489 1.348 . S
C486 H524 0.929 . S
N487 Li442 1.990 . S
N487 C484 1.314 . S
N487 C485 1.279 . S
C488 C485 1.358 . S
C488 C489 1.356 . S
C488 H525 0.930 . S
C489 C486 1.348 . S
C489 C488 1.356 . S
H490 C484 0.930 . S
H491 C485 0.930 . S
C492 N493 1.314 . S
C492 C494 1.353 . S
C492 H498 0.930 . S
N493 Li443 1.990 . S
N493 C492 1.314 . S
N493 C496 1.279 . S
C494 C492 1.353 . S
C494 C497 1.348 . S
C494 H526 0.929 . S
C495 C496 1.358 . S
C495 C497 1.356 . S
C495 H527 0.930 . S
C496 N493 1.279 . S
C496 C495 1.358 . S
C496 H499 0.930 . S
C497 C494 1.348 . S
C497 C495 1.356 . S
H498 C492 0.930 . S
H499 C496 0.930 . S
O500 Li440 1.956 . S
O500 Li441 1.970 . S
O500 Li442 1.961 . S
O500 C444 1.325 1_556 S
O501 Li440 1.970 . S
O501 Li441 1.956 . S
O501 Li443 1.961 . S
O501 C450 1.325 . S
O502 Li440 1.961 . S
O502 Li442 1.956 . S
O502 Li443 1.970 . S
O502 C472 1.325 . S
O503 Li441 1.961 . S
O503 Li442 1.970 . S
O503 Li443 1.956 . S
O503 C478 1.325 . S
H504 C446 0.929 . S
H505 C447 0.930 . S
H506 C448 0.930 . S
H507 C449 0.930 . S
H508 C451 0.930 . S
H509 C453 0.929 . S
H510 C454 0.930 . S
H511 C455 0.930 . S
H512 C458 0.930 . S
H513 C461 0.929 . S
H514 C466 0.929 . S
H515 C467 0.930 . S
H516 C474 0.929 . S
H517 C475 0.930 . S
H518 C476 0.930 . S
H519 C477 0.930 . S
H520 C479 0.929 . S
H521 C480 0.930 . S
H522 C481 0.930 . S
H523 C482 0.930 . S
H524 C486 0.929 . S
H525 C488 0.930 . S
H526 C494 0.929 . S
H527 C495 0.930 . S
Li528 N545 1.990 . S
Li528 O588 1.956 . S
Li528 O589 1.970 . S
Li528 O590 1.961 . S
Li529 N553 1.990 . S
Li529 O588 1.970 . S
Li529 O589 1.956 . S
Li529 O591 1.961 . S
Li530 N575 1.990 . S
Li530 O588 1.961 . S
Li530 O590 1.956 . S
Li530 O591 1.970 . S
Li531 N581 1.990 . S
Li531 O589 1.961 . S
Li531 O590 1.970 . S
Li531 O591 1.956 . S
C532 C534 1.348 . S
C532 C535 1.356 . S
C532 O588 1.325 . S
N533 C536 1.314 . S
N533 C537 1.279 . S
C534 C532 1.348 . S
C534 C536 1.353 . S
C534 H592 0.929 . S
C535 C532 1.356 . S
C535 C537 1.358 . S
C535 H593 0.930 . S
C536 N533 1.314 . S
C536 C534 1.353 . S
C536 H594 0.930 . S
C537 N533 1.279 . S
C537 C535 1.358 . S
C537 H595 0.930 . S
C538 C541 1.348 . S
C538 C542 1.356 . S
C538 O589 1.325 . S
C539 N540 1.279 . S
C539 C542 1.358 . S
C539 H596 0.930 . S
N540 C539 1.279 . S
N540 C543 1.314 . S
C541 C538 1.348 . S
C541 C543 1.353 . S
C541 H597 0.929 . S
C542 C538 1.356 . S
C542 C539 1.358 . S
C542 H598 0.930 . S
C543 N540 1.314 . S
C543 C541 1.353 . S
C543 H599 0.930 . S
C544 N545 1.314 . S
C544 C549 1.353 . S
C544 H550 0.930 . S
N545 Li528 1.990 . S
N545 C544 1.314 . S
N545 C547 1.279 . S
C546 C547 1.358 . S
C546 C548 1.356 . S
C546 H600 0.930 . S
C547 N545 1.279 . S
C547 C546 1.358 . S
C547 H551 0.930 . S
C548 C546 1.356 . S
C548 C549 1.348 . S
C549 C544 1.353 . S
C549 C548 1.348 . S
C549 H601 0.929 . S
H550 C544 0.930 . S
H551 C547 0.930 . S
C552 N553 1.314 . S
C552 C554 1.353 . S
C552 H558 0.930 . S
N553 Li529 1.990 . S
N553 C552 1.314 . S
N553 C556 1.279 . S
C554 C552 1.353 . S
C554 C557 1.348 . S
C554 H602 0.929 . S
C555 C556 1.358 . S
C555 C557 1.356 . S
C555 H603 0.930 . S
C556 N553 1.279 . S
C556 C555 1.358 . S
C556 H559 0.930 . S
C557 C554 1.348 . S
C557 C555 1.356 . S
H558 C552 0.930 . S
H559 C556 0.930 . S
C560 C562 1.348 . S
C560 C563 1.356 . S
C560 O590 1.325 . S
N561 C564 1.314 . S
N561 C565 1.279 . S
C562 C560 1.348 . S
C562 C564 1.353 . S
C562 H604 0.929 . S
C563 C560 1.356 . S
C563 C565 1.358 . S
C563 H605 0.930 . S
C564 N561 1.314 . S
C564 C562 1.353 . S
C564 H606 0.930 . S
C565 N561 1.279 . S
C565 C563 1.358 . S
C565 H607 0.930 . S
C566 C567 1.348 . S
C566 C568 1.356 . S
C566 O591 1.325 . S
C567 C566 1.348 . S
C567 C569 1.353 . S
C567 H608 0.929 . S
C568 C566 1.356 . S
C568 C570 1.358 . S
C568 H609 0.930 . S
C569 C567 1.353 . S
C569 N571 1.314 . S
C569 H610 0.930 . S
C570 C568 1.358 . S
C570 N571 1.279 . S
C570 H611 0.930 . S
N571 C569 1.314 . S
N571 C570 1.279 . S
C572 C574 1.353 . S
C572 N575 1.314 . S
C572 H578 0.930 . S
C573 N575 1.279 . S
C573 C576 1.358 . S
C573 H579 0.930 . S
C574 C572 1.353 . S
C574 C577 1.348 . S
C574 H612 0.929 . S
N575 Li530 1.990 . S
N575 C572 1.314 . S
N575 C573 1.279 . S
C576 C573 1.358 . S
C576 C577 1.356 . S
C576 H613 0.930 . S
C577 C574 1.348 . S
C577 C576 1.356 . S
H578 C572 0.930 . S
H579 C573 0.930 . S
C580 N581 1.314 . S
C580 C582 1.353 . S
C580 H586 0.930 . S
N581 Li531 1.990 . S
N581 C580 1.314 . S
N581 C584 1.279 . S
C582 C580 1.353 . S
C582 C585 1.348 . S
C582 H614 0.929 . S
C583 C584 1.358 . S
C583 C585 1.356 . S
C583 H615 0.930 . S
C584 N581 1.279 . S
C584 C583 1.358 . S
C584 H587 0.930 . S
C585 C582 1.348 . S
C585 C583 1.356 . S
H586 C580 0.930 . S
H587 C584 0.930 . S
O588 Li528 1.956 . S
O588 Li529 1.970 . S
O588 Li530 1.961 . S
O588 C532 1.325 . S
O589 Li528 1.970 . S
O589 Li529 1.956 . S
O589 Li531 1.961 . S
O589 C538 1.325 . S
O590 Li528 1.961 . S
O590 Li530 1.956 . S
O590 Li531 1.970 . S
O590 C560 1.325 . S
O591 Li529 1.961 . S
O591 Li530 1.970 . S
O591 Li531 1.956 . S
O591 C566 1.325 . S
H592 C534 0.929 . S
H593 C535 0.930 . S
H594 C536 0.930 . S
H595 C537 0.930 . S
H596 C539 0.930 . S
H597 C541 0.929 . S
H598 C542 0.930 . S
H599 C543 0.930 . S
H600 C546 0.930 . S
H601 C549 0.929 . S
H602 C554 0.929 . S
H603 C555 0.930 . S
H604 C562 0.929 . S
H605 C563 0.930 . S
H606 C564 0.930 . S
H607 C565 0.930 . S
H608 C567 0.929 . S
H609 C568 0.930 . S
H610 C569 0.930 . S
H611 C570 0.930 . S
H612 C574 0.929 . S
H613 C576 0.930 . S
H614 C582 0.929 . S
H615 C583 0.930 . S
Li616 N633 1.990 . S
Li616 O676 1.956 . S
Li616 O677 1.970 . S
Li616 O678 1.961 . S
Li617 N641 1.990 . S
Li617 O676 1.970 . S
Li617 O677 1.956 . S
Li617 O679 1.961 . S
Li618 N663 1.990 . S
Li618 O676 1.961 . S
Li618 O678 1.956 . S
Li618 O679 1.970 . S
Li619 N669 1.990 . S
Li619 O677 1.961 . S
Li619 O678 1.970 . S
Li619 O679 1.956 . S
C620 C622 1.348 . S
C620 C623 1.356 . S
C620 O676 1.325 . S
N621 C624 1.314 . S
N621 C625 1.279 . S
C622 C620 1.348 . S
C622 C624 1.353 . S
C622 H680 0.929 . S
C623 C620 1.356 . S
C623 C625 1.358 . S
C623 H681 0.930 . S
C624 N621 1.314 . S
C624 C622 1.353 . S
C624 H682 0.930 . S
C625 N621 1.279 . S
C625 C623 1.358 . S
C625 H683 0.930 . S
C626 C629 1.348 . S
C626 C630 1.356 . S
C626 O677 1.325 . S
C627 N628 1.279 . S
C627 C630 1.358 . S
C627 H684 0.930 . S
N628 C627 1.279 . S
N628 C631 1.314 . S
C629 C626 1.348 . S
C629 C631 1.353 . S
C629 H685 0.929 . S
C630 C626 1.356 . S
C630 C627 1.358 . S
C630 H686 0.930 . S
C631 N628 1.314 . S
C631 C629 1.353 . S
C631 H687 0.930 . S
C632 N633 1.314 . S
C632 C637 1.353 . S
C632 H638 0.930 . S
N633 Li616 1.990 . S
N633 C632 1.314 . S
N633 C635 1.279 . S
C634 C635 1.358 . S
C634 C636 1.356 . S
C634 H688 0.930 . S
C635 N633 1.279 . S
C635 C634 1.358 . S
C635 H639 0.930 . S
C636 C634 1.356 . S
C636 C637 1.348 . S
C637 C632 1.353 . S
C637 C636 1.348 . S
C637 H689 0.929 . S
H638 C632 0.930 . S
H639 C635 0.930 . S
C640 N641 1.314 . S
C640 C642 1.353 . S
C640 H646 0.930 . S
N641 Li617 1.990 . S
N641 C640 1.314 . S
N641 C644 1.279 . S
C642 C640 1.353 . S
C642 C645 1.348 . S
C642 H690 0.929 . S
C643 C644 1.358 . S
C643 C645 1.356 . S
C643 H691 0.930 . S
C644 N641 1.279 . S
C644 C643 1.358 . S
C644 H647 0.930 . S
C645 C642 1.348 . S
C645 C643 1.356 . S
H646 C640 0.930 . S
H647 C644 0.930 . S
C648 C650 1.348 . S
C648 C651 1.356 . S
C648 O678 1.325 . S
N649 C652 1.314 . S
N649 C653 1.279 . S
C650 C648 1.348 . S
C650 C652 1.353 . S
C650 H692 0.929 . S
C651 C648 1.356 . S
C651 C653 1.358 . S
C651 H693 0.930 . S
C652 N649 1.314 . S
C652 C650 1.353 . S
C652 H694 0.930 . S
C653 N649 1.279 . S
C653 C651 1.358 . S
C653 H695 0.930 . S
C654 C655 1.348 . S
C654 C656 1.356 . S
C654 O679 1.325 . S
C655 C654 1.348 . S
C655 C657 1.353 . S
C655 H696 0.929 . S
C656 C654 1.356 . S
C656 C658 1.358 . S
C656 H697 0.930 . S
C657 C655 1.353 . S
C657 N659 1.314 . S
C657 H698 0.930 . S
C658 C656 1.358 . S
C658 N659 1.279 . S
C658 H699 0.930 . S
N659 C657 1.314 . S
N659 C658 1.279 . S
C660 C662 1.353 . S
C660 N663 1.314 . S
C660 H666 0.930 . S
C661 N663 1.279 . S
C661 C664 1.358 . S
C661 H667 0.930 . S
C662 C660 1.353 . S
C662 C665 1.348 . S
C662 H700 0.929 . S
N663 Li618 1.990 . S
N663 C660 1.314 . S
N663 C661 1.279 . S
C664 C661 1.358 . S
C664 C665 1.356 . S
C664 H701 0.930 . S
C665 C662 1.348 . S
C665 C664 1.356 . S
H666 C660 0.930 . S
H667 C661 0.930 . S
C668 N669 1.314 . S
C668 C670 1.353 . S
C668 H674 0.930 . S
N669 Li619 1.990 . S
N669 C668 1.314 . S
N669 C672 1.279 . S
C670 C668 1.353 . S
C670 C673 1.348 . S
C670 H702 0.929 . S
C671 C672 1.358 . S
C671 C673 1.356 . S
C671 H703 0.930 . S
C672 N669 1.279 . S
C672 C671 1.358 . S
C672 H675 0.930 . S
C673 C670 1.348 . S
C673 C671 1.356 . S
H674 C668 0.930 . S
H675 C672 0.930 . S
O676 Li616 1.956 . S
O676 Li617 1.970 . S
O676 Li618 1.961 . S
O676 C620 1.325 . S
O677 Li616 1.970 . S
O677 Li617 1.956 . S
O677 Li619 1.961 . S
O677 C626 1.325 . S
O678 Li616 1.961 . S
O678 Li618 1.956 . S
O678 Li619 1.970 . S
O678 C648 1.325 . S
O679 Li617 1.961 . S
O679 Li618 1.970 . S
O679 Li619 1.956 . S
O679 C654 1.325 . S
H680 C622 0.929 . S
H681 C623 0.930 . S
H682 C624 0.930 . S
H683 C625 0.930 . S
H684 C627 0.930 . S
H685 C629 0.929 . S
H686 C630 0.930 . S
H687 C631 0.930 . S
H688 C634 0.930 . S
H689 C637 0.929 . S
H690 C642 0.929 . S
H691 C643 0.930 . S
H692 C650 0.929 . S
H693 C651 0.930 . S
H694 C652 0.930 . S
H695 C653 0.930 . S
H696 C655 0.929 . S
H697 C656 0.930 . S
H698 C657 0.930 . S
H699 C658 0.930 . S
H700 C662 0.929 . S
H701 C664 0.930 . S
H702 C670 0.929 . S
H703 C671 0.930 . S
Li704 N721 1.990 . S
Li704 O764 1.956 . S
Li704 O765 1.970 . S
Li704 O766 1.961 . S
Li705 N729 1.990 . S
Li705 O764 1.970 . S
Li705 O765 1.956 . S
Li705 O767 1.961 . S
Li706 N751 1.990 1_554 S
Li706 O764 1.961 . S
Li706 O766 1.956 . S
Li706 O767 1.970 . S
Li707 N757 1.990 . S
Li707 O765 1.961 . S
Li707 O766 1.970 . S
Li707 O767 1.956 . S
C708 C710 1.348 . S
C708 C711 1.356 . S
C708 O764 1.325 . S
N709 C712 1.314 . S
N709 C713 1.279 . S
C710 C708 1.348 . S
C710 C712 1.353 . S
C710 H768 0.929 . S
C711 C708 1.356 . S
C711 C713 1.358 . S
C711 H769 0.930 . S
C712 N709 1.314 . S
C712 C710 1.353 . S
C712 H770 0.930 . S
C713 N709 1.279 . S
C713 C711 1.358 . S
C713 H771 0.930 . S
C714 C717 1.348 . S
C714 C718 1.356 . S
C714 O765 1.325 . S
C715 N716 1.279 . S
C715 C718 1.358 . S
C715 H772 0.930 . S
N716 C715 1.279 . S
N716 C719 1.314 . S
C717 C714 1.348 . S
C717 C719 1.353 . S
C717 H773 0.929 . S
C718 C714 1.356 . S
C718 C715 1.358 . S
C718 H774 0.930 . S
C719 N716 1.314 . S
C719 C717 1.353 . S
C719 H775 0.930 . S
C720 N721 1.314 . S
C720 C725 1.353 . S
C720 H726 0.930 . S
N721 Li704 1.990 . S
N721 C720 1.314 . S
N721 C723 1.279 . S
C722 C723 1.358 . S
C722 C724 1.356 . S
C722 H776 0.930 . S
C723 N721 1.279 . S
C723 C722 1.358 . S
C723 H727 0.930 . S
C724 C722 1.356 . S
C724 C725 1.348 . S
C725 C720 1.353 . S
C725 C724 1.348 . S
C725 H777 0.929 . S
H726 C720 0.930 . S
H727 C723 0.930 . S
C728 N729 1.314 . S
C728 C730 1.353 . S
C728 H734 0.930 . S
N729 Li705 1.990 . S
N729 C728 1.314 . S
N729 C732 1.279 . S
C730 C728 1.353 . S
C730 C733 1.348 . S
C730 H778 0.929 . S
C731 C732 1.358 . S
C731 C733 1.356 . S
C731 H779 0.930 . S
C732 N729 1.279 . S
C732 C731 1.358 . S
C732 H735 0.930 . S
C733 C730 1.348 . S
C733 C731 1.356 . S
H734 C728 0.930 . S
H735 C732 0.930 . S
C736 C738 1.348 . S
C736 C739 1.356 . S
C736 O766 1.325 1_556 S
N737 C740 1.314 . S
N737 C741 1.279 . S
C738 C736 1.348 . S
C738 C740 1.353 . S
C738 H780 0.929 . S
C739 C736 1.356 . S
C739 C741 1.358 . S
C739 H781 0.930 . S
C740 N737 1.314 . S
C740 C738 1.353 . S
C740 H782 0.930 . S
C741 N737 1.279 . S
C741 C739 1.358 . S
C741 H783 0.930 . S
C742 C743 1.348 . S
C742 C744 1.356 . S
C742 O767 1.325 . S
C743 C742 1.348 . S
C743 C745 1.353 . S
C743 H784 0.929 . S
C744 C742 1.356 . S
C744 C746 1.358 . S
C744 H785 0.930 . S
C745 C743 1.353 . S
C745 N747 1.314 . S
C745 H786 0.930 . S
C746 C744 1.358 . S
C746 N747 1.279 . S
C746 H787 0.930 . S
N747 C745 1.314 . S
N747 C746 1.279 . S
C748 C750 1.353 . S
C748 N751 1.314 . S
C748 H754 0.930 1_556 S
C749 N751 1.279 . S
C749 C752 1.358 . S
C749 H755 0.930 . S
C750 C748 1.353 . S
C750 C753 1.348 . S
C750 H788 0.929 . S
N751 Li706 1.990 1_556 S
N751 C748 1.314 . S
N751 C749 1.279 . S
C752 C749 1.358 . S
C752 C753 1.356 . S
C752 H789 0.930 . S
C753 C750 1.348 . S
C753 C752 1.356 . S
H754 C748 0.930 1_554 S
H755 C749 0.930 . S
C756 N757 1.314 . S
C756 C758 1.353 . S
C756 H762 0.930 . S
N757 Li707 1.990 . S
N757 C756 1.314 . S
N757 C760 1.279 . S
C758 C756 1.353 . S
C758 C761 1.348 . S
C758 H790 0.929 . S
C759 C760 1.358 . S
C759 C761 1.356 . S
C759 H791 0.930 . S
C760 N757 1.279 . S
C760 C759 1.358 . S
C760 H763 0.930 . S
C761 C758 1.348 . S
C761 C759 1.356 . S
H762 C756 0.930 . S
H763 C760 0.930 . S
O764 Li704 1.956 . S
O764 Li705 1.970 . S
O764 Li706 1.961 . S
O764 C708 1.325 . S
O765 Li704 1.970 . S
O765 Li705 1.956 . S
O765 Li707 1.961 . S
O765 C714 1.325 . S
O766 Li704 1.961 . S
O766 Li706 1.956 . S
O766 Li707 1.970 . S
O766 C736 1.325 1_554 S
O767 Li705 1.961 . S
O767 Li706 1.970 . S
O767 Li707 1.956 . S
O767 C742 1.325 . S
H768 C710 0.929 . S
H769 C711 0.930 . S
H770 C712 0.930 . S
H771 C713 0.930 . S
H772 C715 0.930 . S
H773 C717 0.929 . S
H774 C718 0.930 . S
H775 C719 0.930 . S
H776 C722 0.930 . S
H777 C725 0.929 . S
H778 C730 0.929 . S
H779 C731 0.930 . S
H780 C738 0.929 . S
H781 C739 0.930 . S
H782 C740 0.930 . S
H783 C741 0.930 . S
H784 C743 0.929 . S
H785 C744 0.930 . S
H786 C745 0.930 . S
H787 C746 0.930 . S
H788 C750 0.929 . S
H789 C752 0.930 . S
H790 C758 0.929 . S
H791 C759 0.930 . S
Li792 N809 1.990 . S
Li792 O852 1.956 . S
Li792 O853 1.970 . S
Li792 O854 1.961 . S
Li793 N817 1.990 . S
Li793 O852 1.970 . S
Li793 O853 1.956 . S
Li793 O855 1.961 . S
Li794 N839 1.990 . S
Li794 O852 1.961 . S
Li794 O854 1.956 . S
Li794 O855 1.970 . S
Li795 N845 1.990 . S
Li795 O853 1.961 . S
Li795 O854 1.970 . S
Li795 O855 1.956 . S
C796 C798 1.348 . S
C796 C799 1.356 . S
C796 O852 1.325 . S
N797 C800 1.314 . S
N797 C801 1.279 . S
C798 C796 1.348 . S
C798 C800 1.353 . S
C798 H856 0.929 . S
C799 C796 1.356 . S
C799 C801 1.358 . S
C799 H857 0.930 . S
C800 N797 1.314 . S
C800 C798 1.353 . S
C800 H858 0.930 . S
C801 N797 1.279 . S
C801 C799 1.358 . S
C801 H859 0.930 . S
C802 C805 1.348 . S
C802 C806 1.356 . S
C802 O853 1.325 . S
C803 N804 1.279 . S
C803 C806 1.358 . S
C803 H860 0.930 . S
N804 C803 1.279 . S
N804 C807 1.314 . S
C805 C802 1.348 . S
C805 C807 1.353 . S
C805 H861 0.929 . S
C806 C802 1.356 . S
C806 C803 1.358 . S
C806 H862 0.930 . S
C807 N804 1.314 . S
C807 C805 1.353 . S
C807 H863 0.930 . S
C808 N809 1.314 . S
C808 C813 1.353 . S
C808 H814 0.930 . S
N809 Li792 1.990 . S
N809 C808 1.314 . S
N809 C811 1.279 . S
C810 C811 1.358 . S
C810 C812 1.356 . S
C810 H864 0.930 . S
C811 N809 1.279 . S
C811 C810 1.358 . S
C811 H815 0.930 . S
C812 C810 1.356 . S
C812 C813 1.348 . S
C813 C808 1.353 . S
C813 C812 1.348 . S
C813 H865 0.929 . S
H814 C808 0.930 . S
H815 C811 0.930 . S
C816 N817 1.314 . S
C816 C818 1.353 . S
C816 H822 0.930 . S
N817 Li793 1.990 . S
N817 C816 1.314 . S
N817 C820 1.279 . S
C818 C816 1.353 . S
C818 C821 1.348 . S
C818 H866 0.929 . S
C819 C820 1.358 . S
C819 C821 1.356 . S
C819 H867 0.930 . S
C820 N817 1.279 . S
C820 C819 1.358 . S
C820 H823 0.930 . S
C821 C818 1.348 . S
C821 C819 1.356 . S
H822 C816 0.930 . S
H823 C820 0.930 . S
C824 C826 1.348 . S
C824 C827 1.356 . S
C824 O854 1.325 . S
N825 C828 1.314 . S
N825 C829 1.279 . S
C826 C824 1.348 . S
C826 C828 1.353 . S
C826 H868 0.929 . S
C827 C824 1.356 . S
C827 C829 1.358 . S
C827 H869 0.930 . S
C828 N825 1.314 . S
C828 C826 1.353 . S
C828 H870 0.930 . S
C829 N825 1.279 . S
C829 C827 1.358 . S
C829 H871 0.930 . S
C830 C831 1.348 . S
C830 C832 1.356 . S
C830 O855 1.325 . S
C831 C830 1.348 . S
C831 C833 1.353 . S
C831 H872 0.929 . S
C832 C830 1.356 . S
C832 C834 1.358 . S
C832 H873 0.930 . S
C833 C831 1.353 . S
C833 N835 1.314 . S
C833 H874 0.930 . S
C834 C832 1.358 . S
C834 N835 1.279 . S
C834 H875 0.930 . S
N835 C833 1.314 . S
N835 C834 1.279 . S
C836 C838 1.353 . S
C836 N839 1.314 . S
C836 H842 0.930 . S
C837 N839 1.279 . S
C837 C840 1.358 . S
C837 H843 0.930 . S
C838 C836 1.353 . S
C838 C841 1.348 . S
C838 H876 0.929 . S
N839 Li794 1.990 . S
N839 C836 1.314 . S
N839 C837 1.279 . S
C840 C837 1.358 . S
C840 C841 1.356 . S
C840 H877 0.930 . S
C841 C838 1.348 . S
C841 C840 1.356 . S
H842 C836 0.930 . S
H843 C837 0.930 . S
C844 N845 1.314 . S
C844 C846 1.353 . S
C844 H850 0.930 . S
N845 Li795 1.990 . S
N845 C844 1.314 . S
N845 C848 1.279 . S
C846 C844 1.353 . S
C846 C849 1.348 . S
C846 H878 0.929 . S
C847 C848 1.358 . S
C847 C849 1.356 . S
C847 H879 0.930 . S
C848 N845 1.279 . S
C848 C847 1.358 . S
C848 H851 0.930 . S
C849 C846 1.348 . S
C849 C847 1.356 . S
H850 C844 0.930 . S
H851 C848 0.930 . S
O852 Li792 1.956 . S
O852 Li793 1.970 . S
O852 Li794 1.961 . S
O852 C796 1.325 . S
O853 Li792 1.970 . S
O853 Li793 1.956 . S
O853 Li795 1.961 . S
O853 C802 1.325 . S
O854 Li792 1.961 . S
O854 Li794 1.956 . S
O854 Li795 1.970 . S
O854 C824 1.325 . S
O855 Li793 1.961 . S
O855 Li794 1.970 . S
O855 Li795 1.956 . S
O855 C830 1.325 . S
H856 C798 0.929 . S
H857 C799 0.930 . S
H858 C800 0.930 . S
H859 C801 0.930 . S
H860 C803 0.930 . S
H861 C805 0.929 . S
H862 C806 0.930 . S
H863 C807 0.930 . S
H864 C810 0.930 . S
H865 C813 0.929 . S
H866 C818 0.929 . S
H867 C819 0.930 . S
H868 C826 0.929 . S
H869 C827 0.930 . S
H870 C828 0.930 . S
H871 C829 0.930 . S
H872 C831 0.929 . S
H873 C832 0.930 . S
H874 C833 0.930 . S
H875 C834 0.930 . S
H876 C838 0.929 . S
H877 C840 0.930 . S
H878 C846 0.929 . S
H879 C847 0.930 . S
Li880 N897 1.990 . S
Li880 O940 1.956 . S
Li880 O941 1.970 . S
Li880 O942 1.961 . S
Li881 N905 1.990 . S
Li881 O940 1.970 . S
Li881 O941 1.956 . S
Li881 O943 1.961 . S
Li882 N927 1.990 . S
Li882 O940 1.961 . S
Li882 O942 1.956 . S
Li882 O943 1.970 . S
Li883 N933 1.990 . S
Li883 O941 1.961 . S
Li883 O942 1.970 . S
Li883 O943 1.956 . S
C884 C886 1.348 . S
C884 C887 1.356 . S
C884 O940 1.325 . S
N885 C888 1.314 . S
N885 C889 1.279 . S
C886 C884 1.348 . S
C886 C888 1.353 . S
C886 H944 0.929 . S
C887 C884 1.356 . S
C887 C889 1.358 . S
C887 H945 0.930 . S
C888 N885 1.314 . S
C888 C886 1.353 . S
C888 H946 0.930 . S
C889 N885 1.279 . S
C889 C887 1.358 . S
C889 H947 0.930 . S
C890 C893 1.348 . S
C890 C894 1.356 . S
C890 O941 1.325 . S
C891 N892 1.279 . S
C891 C894 1.358 . S
C891 H948 0.930 . S
N892 C891 1.279 . S
N892 C895 1.314 . S
C893 C890 1.348 . S
C893 C895 1.353 . S
C893 H949 0.929 . S
C894 C890 1.356 . S
C894 C891 1.358 . S
C894 H950 0.930 . S
C895 N892 1.314 . S
C895 C893 1.353 . S
C895 H951 0.930 . S
C896 N897 1.314 . S
C896 C901 1.353 . S
C896 H902 0.930 . S
N897 Li880 1.990 . S
N897 C896 1.314 . S
N897 C899 1.279 . S
C898 C899 1.358 . S
C898 C900 1.356 . S
C898 H952 0.930 . S
C899 N897 1.279 . S
C899 C898 1.358 . S
C899 H903 0.930 . S
C900 C898 1.356 . S
C900 C901 1.348 . S
C901 C896 1.353 . S
C901 C900 1.348 . S
C901 H953 0.929 . S
H902 C896 0.930 . S
H903 C899 0.930 . S
C904 N905 1.314 . S
C904 C906 1.353 . S
C904 H910 0.930 . S
N905 Li881 1.990 . S
N905 C904 1.314 . S
N905 C908 1.279 . S
C906 C904 1.353 . S
C906 C909 1.348 . S
C906 H954 0.929 . S
C907 C908 1.358 . S
C907 C909 1.356 . S
C907 H955 0.930 . S
C908 N905 1.279 . S
C908 C907 1.358 . S
C908 H911 0.930 . S
C909 C906 1.348 . S
C909 C907 1.356 . S
H910 C904 0.930 . S
H911 C908 0.930 . S
C912 C914 1.348 . S
C912 C915 1.356 . S
C912 O942 1.325 . S
N913 C916 1.314 . S
N913 C917 1.279 . S
C914 C912 1.348 . S
C914 C916 1.353 . S
C914 H956 0.929 . S
C915 C912 1.356 . S
C915 C917 1.358 . S
C915 H957 0.930 . S
C916 N913 1.314 . S
C916 C914 1.353 . S
C916 H958 0.930 . S
C917 N913 1.279 . S
C917 C915 1.358 . S
C917 H959 0.930 . S
C918 C919 1.348 . S
C918 C920 1.356 . S
C918 O943 1.325 . S
C919 C918 1.348 . S
C919 C921 1.353 . S
C919 H960 0.929 . S
C920 C918 1.356 . S
C920 C922 1.358 . S
C920 H961 0.930 . S
C921 C919 1.353 . S
C921 N923 1.314 . S
C921 H962 0.930 . S
C922 C920 1.358 . S
C922 N923 1.279 . S
C922 H963 0.930 . S
N923 C921 1.314 . S
N923 C922 1.279 . S
C924 C926 1.353 . S
C924 N927 1.314 . S
C924 H930 0.930 . S
C925 N927 1.279 . S
C925 C928 1.358 . S
C925 H931 0.930 . S
C926 C924 1.353 . S
C926 C929 1.348 . S
C926 H964 0.929 . S
N927 Li882 1.990 . S
N927 C924 1.314 . S
N927 C925 1.279 . S
C928 C925 1.358 . S
C928 C929 1.356 . S
C928 H965 0.930 . S
C929 C926 1.348 . S
C929 C928 1.356 . S
H930 C924 0.930 . S
H931 C925 0.930 . S
C932 N933 1.314 . S
C932 C934 1.353 . S
C932 H938 0.930 . S
N933 Li883 1.990 . S
N933 C932 1.314 . S
N933 C936 1.279 . S
C934 C932 1.353 . S
C934 C937 1.348 . S
C934 H966 0.929 . S
C935 C936 1.358 . S
C935 C937 1.356 . S
C935 H967 0.930 . S
C936 N933 1.279 . S
C936 C935 1.358 . S
C936 H939 0.930 . S
C937 C934 1.348 . S
C937 C935 1.356 . S
H938 C932 0.930 . S
H939 C936 0.930 . S
O940 Li880 1.956 . S
O940 Li881 1.970 . S
O940 Li882 1.961 . S
O940 C884 1.325 . S
O941 Li880 1.970 . S
O941 Li881 1.956 . S
O941 Li883 1.961 . S
O941 C890 1.325 . S
O942 Li880 1.961 . S
O942 Li882 1.956 . S
O942 Li883 1.970 . S
O942 C912 1.325 . S
O943 Li881 1.961 . S
O943 Li882 1.970 . S
O943 Li883 1.956 . S
O943 C918 1.325 . S
H944 C886 0.929 . S
H945 C887 0.930 . S
H946 C888 0.930 . S
H947 C889 0.930 . S
H948 C891 0.930 . S
H949 C893 0.929 . S
H950 C894 0.930 . S
H951 C895 0.930 . S
H952 C898 0.930 . S
H953 C901 0.929 . S
H954 C906 0.929 . S
H955 C907 0.930 . S
H956 C914 0.929 . S
H957 C915 0.930 . S
H958 C916 0.930 . S
H959 C917 0.930 . S
H960 C919 0.929 . S
H961 C920 0.930 . S
H962 C921 0.930 . S
H963 C922 0.930 . S
H964 C926 0.929 . S
H965 C928 0.930 . S
H966 C934 0.929 . S
H967 C935 0.930 . S
Li968 N985 1.990 . S
Li968 O1028 1.956 . S
Li968 O1029 1.970 . S
Li968 O1030 1.961 . S
Li969 N993 1.990 . S
Li969 O1028 1.970 . S
Li969 O1029 1.956 . S
Li969 O1031 1.961 . S
Li970 N1015 1.990 . S
Li970 O1028 1.961 . S
Li970 O1030 1.956 . S
Li970 O1031 1.970 . S
Li971 N1021 1.990 1_554 S
Li971 O1029 1.961 . S
Li971 O1030 1.970 . S
Li971 O1031 1.956 . S
C972 C974 1.348 . S
C972 C975 1.356 . S
C972 O1028 1.325 . S
N973 C976 1.314 . S
N973 C977 1.279 . S
C974 C972 1.348 . S
C974 C976 1.353 . S
C974 H1032 0.929 . S
C975 C972 1.356 . S
C975 C977 1.358 . S
C975 H1033 0.930 . S
C976 N973 1.314 . S
C976 C974 1.353 . S
C976 H1034 0.930 . S
C977 N973 1.279 . S
C977 C975 1.358 . S
C977 H1035 0.930 . S
C978 C981 1.348 . S
C978 C982 1.356 . S
C978 O1029 1.325 . S
C979 N980 1.279 . S
C979 C982 1.358 . S
C979 H1036 0.930 . S
N980 C979 1.279 . S
N980 C983 1.314 . S
C981 C978 1.348 . S
C981 C983 1.353 . S
C981 H1037 0.929 . S
C982 C978 1.356 . S
C982 C979 1.358 . S
C982 H1038 0.930 . S
C983 N980 1.314 . S
C983 C981 1.353 . S
C983 H1039 0.930 . S
C984 N985 1.314 . S
C984 C989 1.353 . S
C984 H990 0.930 . S
N985 Li968 1.990 . S
N985 C984 1.314 . S
N985 C987 1.279 . S
C986 C987 1.358 . S
C986 C988 1.356 . S
C986 H1040 0.930 . S
C987 N985 1.279 . S
C987 C986 1.358 . S
C987 H991 0.930 . S
C988 C986 1.356 . S
C988 C989 1.348 . S
C989 C984 1.353 . S
C989 C988 1.348 . S
C989 H1041 0.929 . S
H990 C984 0.930 . S
H991 C987 0.930 . S
C992 N993 1.314 . S
C992 C994 1.353 . S
C992 H998 0.930 . S
N993 Li969 1.990 . S
N993 C992 1.314 . S
N993 C996 1.279 . S
C994 C992 1.353 . S
C994 C997 1.348 . S
C994 H1042 0.929 . S
C995 C996 1.358 . S
C995 C997 1.356 . S
C995 H1043 0.930 . S
C996 N993 1.279 . S
C996 C995 1.358 . S
C996 H999 0.930 . S
C997 C994 1.348 . S
C997 C995 1.356 . S
H998 C992 0.930 . S
H999 C996 0.930 . S
C1000 C1002 1.348 . S
C1000 C1003 1.356 . S
C1000 O1030 1.325 . S
N1001 C1004 1.314 . S
N1001 C1005 1.279 . S
C1002 C1000 1.348 . S
C1002 C1004 1.353 . S
C1002 H1044 0.929 . S
C1003 C1000 1.356 . S
C1003 C1005 1.358 . S
C1003 H1045 0.930 . S
C1004 N1001 1.314 . S
C1004 C1002 1.353 . S
C1004 H1046 0.930 . S
C1005 N1001 1.279 . S
C1005 C1003 1.358 . S
C1005 H1047 0.930 . S
C1006 C1007 1.348 . S
C1006 C1008 1.356 . S
C1006 O1031 1.325 1_556 S
C1007 C1006 1.348 . S
C1007 C1009 1.353 . S
C1007 H1048 0.929 . S
C1008 C1006 1.356 . S
C1008 C1010 1.358 . S
C1008 H1049 0.930 . S
C1009 C1007 1.353 . S
C1009 N1011 1.314 . S
C1009 H1050 0.930 . S
C1010 C1008 1.358 . S
C1010 N1011 1.279 . S
C1010 H1051 0.930 . S
N1011 C1009 1.314 . S
N1011 C1010 1.279 . S
C1012 C1014 1.353 . S
C1012 N1015 1.314 . S
C1012 H1018 0.930 . S
C1013 N1015 1.279 . S
C1013 C1016 1.358 . S
C1013 H1019 0.930 . S
C1014 C1012 1.353 . S
C1014 C1017 1.348 . S
C1014 H1052 0.929 . S
N1015 Li970 1.990 . S
N1015 C1012 1.314 . S
N1015 C1013 1.279 . S
C1016 C1013 1.358 . S
C1016 C1017 1.356 . S
C1016 H1053 0.930 . S
C1017 C1014 1.348 . S
C1017 C1016 1.356 . S
H1018 C1012 0.930 . S
H1019 C1013 0.930 . S
C1020 N1021 1.314 . S
C1020 C1022 1.353 . S
C1020 H1026 0.930 1_556 S
N1021 Li971 1.990 1_556 S
N1021 C1020 1.314 . S
N1021 C1024 1.279 . S
C1022 C1020 1.353 . S
C1022 C1025 1.348 . S
C1022 H1054 0.929 . S
C1023 C1024 1.358 . S
C1023 C1025 1.356 . S
C1023 H1055 0.930 . S
C1024 N1021 1.279 . S
C1024 C1023 1.358 . S
C1024 H1027 0.930 . S
C1025 C1022 1.348 . S
C1025 C1023 1.356 . S
H1026 C1020 0.930 1_554 S
H1027 C1024 0.930 . S
O1028 Li968 1.956 . S
O1028 Li969 1.970 . S
O1028 Li970 1.961 . S
O1028 C972 1.325 . S
O1029 Li968 1.970 . S
O1029 Li969 1.956 . S
O1029 Li971 1.961 . S
O1029 C978 1.325 . S
O1030 Li968 1.961 . S
O1030 Li970 1.956 . S
O1030 Li971 1.970 . S
O1030 C1000 1.325 . S
O1031 Li969 1.961 . S
O1031 Li970 1.970 . S
O1031 Li971 1.956 . S
O1031 C1006 1.325 1_554 S
H1032 C974 0.929 . S
H1033 C975 0.930 . S
H1034 C976 0.930 . S
H1035 C977 0.930 . S
H1036 C979 0.930 . S
H1037 C981 0.929 . S
H1038 C982 0.930 . S
H1039 C983 0.930 . S
H1040 C986 0.930 . S
H1041 C989 0.929 . S
H1042 C994 0.929 . S
H1043 C995 0.930 . S
H1044 C1002 0.929 . S
H1045 C1003 0.930 . S
H1046 C1004 0.930 . S
H1047 C1005 0.930 . S
H1048 C1007 0.929 . S
H1049 C1008 0.930 . S
H1050 C1009 0.930 . S
H1051 C1010 0.930 . S
H1052 C1014 0.929 . S
H1053 C1016 0.930 . S
H1054 C1022 0.929 . S
H1055 C1023 0.930 . S
H1056 C1062 0.930 . S
H1057 C1066 0.930 . S
H1058 C1071 0.929 . S
H1059 C1069 0.929 . S
H1060 C1064 0.929 . S
H1061 C1070 0.929 . S
C1062 H1056 0.930 . S
C1062 C1063 1.367 . S
C1062 C1070 1.378 . S
C1063 C1062 1.367 . S
C1063 C1071 1.433 . S
C1064 H1060 0.929 . S
C1064 C1066 1.378 . S
C1064 C1068 1.350 . S
C1065 C1068 1.463 . S
C1065 C1070 1.350 . S
C1065 N1073 1.427 . S
C1066 H1057 0.930 . S
C1066 C1064 1.378 . S
C1066 C1067 1.367 . S
C1067 C1066 1.367 . S
C1067 C1069 1.433 . S
C1068 C1064 1.350 . S
C1068 C1065 1.463 . S
C1068 N1072 1.427 . S
C1069 H1059 0.929 . S
C1069 C1067 1.433 . S
C1069 N1072 1.384 . S
C1070 H1061 0.929 . S
C1070 C1062 1.378 . S
C1070 C1065 1.350 . S
C1071 H1058 0.929 . S
C1071 C1063 1.433 . S
C1071 N1073 1.384 . S
N1072 C1068 1.427 . S
N1072 C1069 1.384 . S
N1073 C1065 1.427 . S
N1073 C1071 1.384 . S
H1074 C1080 0.930 . S
H1075 C1084 0.930 . S
H1076 C1089 0.929 . S
H1077 C1087 0.929 . S
H1078 C1082 0.929 . S
H1079 C1088 0.929 . S
C1080 H1074 0.930 . S
C1080 C1081 1.367 . S
C1080 C1088 1.378 . S
C1081 C1080 1.367 . S
C1081 C1089 1.433 . S
C1082 H1078 0.929 . S
C1082 C1084 1.378 . S
C1082 C1086 1.350 . S
C1083 C1086 1.463 1_655 S
C1083 C1088 1.350 . S
C1083 N1091 1.427 . S
C1084 H1075 0.930 . S
C1084 C1082 1.378 . S
C1084 C1085 1.367 . S
C1085 C1084 1.367 . S
C1085 C1087 1.433 . S
C1086 C1082 1.350 . S
C1086 C1083 1.463 1_455 S
C1086 N1090 1.427 . S
C1087 H1077 0.929 . S
C1087 C1085 1.433 . S
C1087 N1090 1.384 . S
C1088 H1079 0.929 . S
C1088 C1080 1.378 . S
C1088 C1083 1.350 . S
C1089 H1076 0.929 . S
C1089 C1081 1.433 . S
C1089 N1091 1.384 . S
N1090 C1086 1.427 . S
N1090 C1087 1.384 . S
N1091 C1083 1.427 . S
N1091 C1089 1.384 . S
H1092 C1098 0.930 . S
H1093 C1102 0.930 . S
H1094 C1107 0.929 . S
H1095 C1105 0.929 . S
H1096 C1100 0.929 . S
H1097 C1106 0.929 . S
C1098 H1092 0.930 . S
C1098 C1099 1.367 . S
C1098 C1106 1.378 . S
C1099 C1098 1.367 . S
C1099 C1107 1.433 1_556 S
C1100 H1096 0.929 . S
C1100 C1102 1.378 . S
C1100 C1104 1.350 . S
C1101 C1104 1.463 1_566 S
C1101 C1106 1.350 . S
C1101 N1109 1.427 1_556 S
C1102 H1093 0.930 . S
C1102 C1100 1.378 . S
C1102 C1103 1.367 . S
C1103 C1102 1.367 . S
C1103 C1105 1.433 1_554 S
C1104 C1100 1.350 . S
C1104 C1101 1.463 1_544 S
C1104 N1108 1.427 1_554 S
C1105 H1095 0.929 . S
C1105 C1103 1.433 1_556 S
C1105 N1108 1.384 . S
C1106 H1097 0.929 . S
C1106 C1098 1.378 . S
C1106 C1101 1.350 . S
C1107 H1094 0.929 . S
C1107 C1099 1.433 1_554 S
C1107 N1109 1.384 . S
N1108 C1104 1.427 1_556 S
N1108 C1105 1.384 . S
N1109 C1101 1.427 1_554 S
N1109 C1107 1.384 . S
H1110 C1116 0.930 . S
H1111 C1120 0.930 . S
H1112 C1125 0.929 . S
H1113 C1123 0.929 . S
H1114 C1118 0.929 . S
H1115 C1124 0.929 . S
C1116 H1110 0.930 . S
C1116 C1117 1.367 . S
C1116 C1124 1.378 . S
C1117 C1116 1.367 . S
C1117 C1125 1.433 . S
C1118 H1114 0.929 . S
C1118 C1120 1.378 . S
C1118 C1122 1.350 . S
C1119 C1122 1.463 . S
C1119 C1124 1.350 . S
C1119 N1127 1.427 . S
C1120 H1111 0.930 . S
C1120 C1118 1.378 . S
C1120 C1121 1.367 . S
C1121 C1120 1.367 . S
C1121 C1123 1.433 . S
C1122 C1118 1.350 . S
C1122 C1119 1.463 . S
C1122 N1126 1.427 . S
C1123 H1113 0.929 . S
C1123 C1121 1.433 . S
C1123 N1126 1.384 . S
C1124 H1115 0.929 . S
C1124 C1116 1.378 . S
C1124 C1119 1.350 . S
C1125 H1112 0.929 . S
C1125 C1117 1.433 . S
C1125 N1127 1.384 . S
N1126 C1122 1.427 . S
N1126 C1123 1.384 . S
N1127 C1119 1.427 . S
N1127 C1125 1.384 . S
H1128 C1134 0.930 . S
H1129 C1138 0.930 . S
H1130 C1143 0.929 . S
H1131 C1141 0.929 . S
H1132 C1136 0.929 . S
H1133 C1142 0.929 . S
C1134 H1128 0.930 . S
C1134 C1135 1.367 . S
C1134 C1142 1.378 . S
C1135 C1134 1.367 . S
C1135 C1143 1.433 . S
C1136 H1132 0.929 . S
C1136 C1138 1.378 . S
C1136 C1140 1.350 . S
C1137 C1140 1.463 1_655 S
C1137 C1142 1.350 . S
C1137 N1145 1.427 . S
C1138 H1129 0.930 . S
C1138 C1136 1.378 . S
C1138 C1139 1.367 . S
C1139 C1138 1.367 . S
C1139 C1141 1.433 . S
C1140 C1136 1.350 . S
C1140 C1137 1.463 1_455 S
C1140 N1144 1.427 . S
C1141 H1131 0.929 . S
C1141 C1139 1.433 . S
C1141 N1144 1.384 . S
C1142 H1133 0.929 . S
C1142 C1134 1.378 . S
C1142 C1137 1.350 . S
C1143 H1130 0.929 . S
C1143 C1135 1.433 . S
C1143 N1145 1.384 . S
N1144 C1140 1.427 . S
N1144 C1141 1.384 . S
N1145 C1137 1.427 . S
N1145 C1143 1.384 . S
H1146 C1152 0.930 . S
H1147 C1156 0.930 . S
H1148 C1161 0.928 1_556 S
H1149 C1159 0.928 1_554 S
H1150 C1154 0.929 . S
H1151 C1160 0.929 . S
C1152 H1146 0.930 . S
C1152 C1153 1.367 . S
C1152 C1160 1.378 . S
C1153 C1152 1.367 . S
C1153 C1161 1.433 . S
C1154 H1150 0.929 . S
C1154 C1156 1.378 . S
C1154 C1158 1.350 . S
C1155 C1158 1.463 1_564 S
C1155 C1160 1.350 . S
C1155 N1163 1.427 1_554 S
C1156 H1147 0.930 . S
C1156 C1154 1.378 . S
C1156 C1157 1.367 . S
C1157 C1156 1.367 . S
C1157 C1159 1.433 . S
C1158 C1154 1.350 . S
C1158 C1155 1.463 1_546 S
C1158 N1162 1.427 1_556 S
C1159 H1149 0.928 1_556 S
C1159 C1157 1.433 . S
C1159 N1162 1.384 1_556 S
C1160 H1151 0.929 . S
C1160 C1152 1.378 . S
C1160 C1155 1.350 . S
C1161 H1148 0.928 1_554 S
C1161 C1153 1.433 . S
C1161 N1163 1.384 1_554 S
N1162 C1158 1.427 1_554 S
N1162 C1159 1.384 1_554 S
N1163 C1155 1.427 1_556 S
N1163 C1161 1.384 1_556 S
H1164 C1170 0.930 . S
H1165 C1174 0.930 . S
H1166 C1179 0.929 . S
H1167 C1177 0.929 . S
H1168 C1172 0.929 . S
H1169 C1178 0.929 . S
C1170 H1164 0.930 . S
C1170 C1171 1.367 . S
C1170 C1178 1.378 . S
C1171 C1170 1.367 . S
C1171 C1179 1.433 . S
C1172 H1168 0.929 . S
C1172 C1174 1.378 . S
C1172 C1176 1.350 . S
C1173 C1176 1.463 1_556 S
C1173 C1178 1.350 . S
C1173 N1181 1.427 . S
C1174 H1165 0.930 . S
C1174 C1172 1.378 . S
C1174 C1175 1.367 . S
C1175 C1174 1.367 . S
C1175 C1177 1.433 . S
C1176 C1172 1.350 . S
C1176 C1173 1.463 1_554 S
C1176 N1180 1.427 . S
C1177 H1167 0.929 . S
C1177 C1175 1.433 . S
C1177 N1180 1.384 . S
C1178 H1169 0.929 . S
C1178 C1170 1.378 . S
C1178 C1173 1.350 . S
C1179 H1166 0.929 . S
C1179 C1171 1.433 . S
C1179 N1181 1.384 . S
N1180 C1176 1.427 . S
N1180 C1177 1.384 . S
N1181 C1173 1.427 . S
N1181 C1179 1.384 . S
H1182 C1188 0.930 . S
H1183 C1192 0.930 . S
H1184 C1197 0.929 . S
H1185 C1195 0.929 . S
H1186 C1190 0.929 . S
H1187 C1196 0.929 . S
C1188 H1182 0.930 . S
C1188 C1189 1.367 . S
C1188 C1196 1.378 . S
C1189 C1188 1.367 . S
C1189 C1197 1.433 . S
C1190 H1186 0.929 . S
C1190 C1192 1.378 . S
C1190 C1194 1.350 . S
C1191 C1194 1.463 . S
C1191 C1196 1.350 . S
C1191 N1199 1.427 . S
C1192 H1183 0.930 . S
C1192 C1190 1.378 . S
C1192 C1193 1.367 . S
C1193 C1192 1.367 . S
C1193 C1195 1.433 . S
C1194 C1190 1.350 . S
C1194 C1191 1.463 . S
C1194 N1198 1.427 . S
C1195 H1185 0.929 . S
C1195 C1193 1.433 . S
C1195 N1198 1.384 . S
C1196 H1187 0.929 . S
C1196 C1188 1.378 . S
C1196 C1191 1.350 . S
C1197 H1184 0.929 . S
C1197 C1189 1.433 . S
C1197 N1199 1.384 . S
N1198 C1194 1.427 . S
N1198 C1195 1.384 . S
N1199 C1191 1.427 . S
N1199 C1197 1.384 . S
H1200 C1206 0.930 . S
H1201 C1210 0.930 . S
H1202 C1215 0.929 . S
H1203 C1213 0.929 . S
H1204 C1208 0.929 . S
H1205 C1214 0.929 . S
C1206 H1200 0.930 . S
C1206 C1207 1.367 . S
C1206 C1214 1.378 . S
C1207 C1206 1.367 . S
C1207 C1215 1.433 . S
C1208 H1204 0.929 . S
C1208 C1210 1.378 . S
C1208 C1212 1.350 . S
C1209 C1212 1.463 . S
C1209 C1214 1.350 . S
C1209 N1217 1.427 . S
C1210 H1201 0.930 . S
C1210 C1208 1.378 . S
C1210 C1211 1.367 . S
C1211 C1210 1.367 . S
C1211 C1213 1.433 . S
C1212 C1208 1.350 . S
C1212 C1209 1.463 . S
C1212 N1216 1.427 . S
C1213 H1203 0.929 . S
C1213 C1211 1.433 . S
C1213 N1216 1.384 . S
C1214 H1205 0.929 . S
C1214 C1206 1.378 . S
C1214 C1209 1.350 . S
C1215 H1202 0.929 . S
C1215 C1207 1.433 . S
C1215 N1217 1.384 . S
N1216 C1212 1.427 . S
N1216 C1213 1.384 . S
N1217 C1209 1.427 . S
N1217 C1215 1.384 . S
H1218 C1224 0.930 . S
H1219 C1228 0.930 . S
H1220 C1233 0.929 . S
H1221 C1231 0.929 . S
H1222 C1226 0.929 1_554 S
H1223 C1232 0.929 1_556 S
C1224 H1218 0.930 . S
C1224 C1225 1.367 . S
C1224 C1232 1.378 . S
C1225 C1224 1.367 . S
C1225 C1233 1.433 . S
C1226 H1222 0.929 1_556 S
C1226 C1228 1.378 . S
C1226 C1230 1.350 . S
C1227 C1230 1.463 1_554 S
C1227 C1232 1.350 . S
C1227 N1235 1.427 . S
C1228 H1219 0.930 . S
C1228 C1226 1.378 . S
C1228 C1229 1.367 . S
C1229 C1228 1.367 . S
C1229 C1231 1.433 . S
C1230 C1226 1.350 . S
C1230 C1227 1.463 1_556 S
C1230 N1234 1.427 . S
C1231 H1221 0.929 . S
C1231 C1229 1.433 . S
C1231 N1234 1.384 . S
C1232 H1223 0.929 1_554 S
C1232 C1224 1.378 . S
C1232 C1227 1.350 . S
C1233 H1220 0.929 . S
C1233 C1225 1.433 . S
C1233 N1235 1.384 . S
N1234 C1230 1.427 . S
N1234 C1231 1.384 . S
N1235 C1227 1.427 . S
N1235 C1233 1.384 . S
H1236 C1242 0.930 . S
H1237 C1246 0.930 . S
H1238 C1251 0.929 . S
H1239 C1249 0.929 . S
H1240 C1244 0.929 . S
H1241 C1250 0.929 . S
C1242 H1236 0.930 . S
C1242 C1243 1.367 . S
C1242 C1250 1.378 . S
C1243 C1242 1.367 . S
C1243 C1251 1.433 . S
C1244 H1240 0.929 . S
C1244 C1246 1.378 . S
C1244 C1248 1.350 . S
C1245 C1248 1.463 . S
C1245 C1250 1.350 . S
C1245 N1253 1.427 . S
C1246 H1237 0.930 . S
C1246 C1244 1.378 . S
C1246 C1247 1.367 . S
C1247 C1246 1.367 . S
C1247 C1249 1.433 . S
C1248 C1244 1.350 . S
C1248 C1245 1.463 . S
C1248 N1252 1.427 . S
C1249 H1239 0.929 . S
C1249 C1247 1.433 . S
C1249 N1252 1.384 . S
C1250 H1241 0.929 . S
C1250 C1242 1.378 . S
C1250 C1245 1.350 . S
C1251 H1238 0.929 . S
C1251 C1243 1.433 . S
C1251 N1253 1.384 . S
N1252 C1248 1.427 . S
N1252 C1249 1.384 . S
N1253 C1245 1.427 . S
N1253 C1251 1.384 . S
H1254 C1260 0.930 . S
H1255 C1264 0.930 . S
H1256 C1269 0.929 . S
H1257 C1267 0.929 . S
H1258 C1262 0.929 . S
H1259 C1268 0.929 . S
C1260 H1254 0.930 . S
C1260 C1261 1.367 . S
C1260 C1268 1.378 . S
C1261 C1260 1.367 . S
C1261 C1269 1.433 . S
C1262 H1258 0.929 . S
C1262 C1264 1.378 . S
C1262 C1266 1.350 . S
C1263 C1266 1.463 . S
C1263 C1268 1.350 . S
C1263 N1271 1.427 . S
C1264 H1255 0.930 . S
C1264 C1262 1.378 . S
C1264 C1265 1.367 . S
C1265 C1264 1.367 . S
C1265 C1267 1.433 . S
C1266 C1262 1.350 . S
C1266 C1263 1.463 . S
C1266 N1270 1.427 . S
C1267 H1257 0.929 . S
C1267 C1265 1.433 . S
C1267 N1270 1.384 . S
C1268 H1259 0.929 . S
C1268 C1260 1.378 . S
C1268 C1263 1.350 . S
C1269 H1256 0.929 . S
C1269 C1261 1.433 . S
C1269 N1271 1.384 . S
N1270 C1266 1.427 . S
N1270 C1267 1.384 . S
N1271 C1263 1.427 . S
N1271 C1269 1.384 . S
H1272 C1278 0.930 . S
H1273 C1282 0.930 . S
H1274 C1287 0.929 . S
H1275 C1285 0.929 . S
H1276 C1280 0.929 . S
H1277 C1286 0.929 . S
C1278 H1272 0.930 . S
C1278 C1279 1.367 . S
C1278 C1286 1.378 . S
C1279 C1278 1.367 . S
C1279 C1287 1.433 . S
C1280 H1276 0.929 . S
C1280 C1282 1.378 . S
C1280 C1284 1.350 . S
C1281 C1284 1.463 . S
C1281 C1286 1.350 . S
C1281 N1289 1.427 . S
C1282 H1273 0.930 . S
C1282 C1280 1.378 . S
C1282 C1283 1.367 . S
C1283 C1282 1.367 . S
C1283 C1285 1.433 . S
C1284 C1280 1.350 . S
C1284 C1281 1.463 . S
C1284 N1288 1.427 . S
C1285 H1275 0.929 . S
C1285 C1283 1.433 . S
C1285 N1288 1.384 . S
C1286 H1277 0.929 . S
C1286 C1278 1.378 . S
C1286 C1281 1.350 . S
C1287 H1274 0.929 . S
C1287 C1279 1.433 . S
C1287 N1289 1.384 . S
N1288 C1284 1.427 . S
N1288 C1285 1.384 . S
N1289 C1281 1.427 . S
N1289 C1287 1.384 . S
H1290 C1296 0.930 . S
H1291 C1300 0.930 . S
H1292 C1305 0.929 . S
H1293 C1303 0.929 . S
H1294 C1298 0.929 . S
H1295 C1304 0.929 . S
C1296 H1290 0.930 . S
C1296 C1297 1.367 . S
C1296 C1304 1.378 . S
C1297 C1296 1.367 . S
C1297 C1305 1.433 . S
C1298 H1294 0.929 . S
C1298 C1300 1.378 . S
C1298 C1302 1.350 . S
C1299 C1302 1.463 . S
C1299 C1304 1.350 . S
C1299 N1307 1.427 . S
C1300 H1291 0.930 . S
C1300 C1298 1.378 . S
C1300 C1301 1.367 . S
C1301 C1300 1.367 . S
C1301 C1303 1.433 . S
C1302 C1298 1.350 . S
C1302 C1299 1.463 . S
C1302 N1306 1.427 . S
C1303 H1293 0.929 . S
C1303 C1301 1.433 . S
C1303 N1306 1.384 . S
C1304 H1295 0.929 . S
C1304 C1296 1.378 . S
C1304 C1299 1.350 . S
C1305 H1292 0.929 . S
C1305 C1297 1.433 . S
C1305 N1307 1.384 . S
N1306 C1302 1.427 . S
N1306 C1303 1.384 . S
N1307 C1299 1.427 . S
N1307 C1305 1.384 . S
H1308 C1314 0.930 . S
H1309 C1318 0.930 . S
H1310 C1323 0.929 . S
H1311 C1321 0.929 . S
H1312 C1316 0.929 . S
H1313 C1322 0.929 . S
C1314 H1308 0.930 . S
C1314 C1315 1.367 . S
C1314 C1322 1.378 . S
C1315 C1314 1.367 . S
C1315 C1323 1.433 . S
C1316 H1312 0.929 . S
C1316 C1318 1.378 . S
C1316 C1320 1.350 . S
C1317 C1320 1.463 . S
C1317 C1322 1.350 . S
C1317 N1325 1.427 . S
C1318 H1309 0.930 . S
C1318 C1316 1.378 . S
C1318 C1319 1.367 . S
C1319 C1318 1.367 . S
C1319 C1321 1.433 . S
C1320 C1316 1.350 . S
C1320 C1317 1.463 . S
C1320 N1324 1.427 . S
C1321 H1311 0.929 . S
C1321 C1319 1.433 . S
C1321 N1324 1.384 . S
C1322 H1313 0.929 . S
C1322 C1314 1.378 . S
C1322 C1317 1.350 . S
C1323 H1310 0.929 . S
C1323 C1315 1.433 . S
C1323 N1325 1.384 . S
N1324 C1320 1.427 . S
N1324 C1321 1.384 . S
N1325 C1317 1.427 . S
N1325 C1323 1.384 . S
H1326 C1332 0.930 . S
H1327 C1336 0.930 . S
H1328 C1341 0.929 . S
H1329 C1339 0.929 . S
H1330 C1334 0.929 . S
H1331 C1340 0.929 . S
C1332 H1326 0.930 . S
C1332 C1333 1.367 . S
C1332 C1340 1.378 . S
C1333 C1332 1.367 . S
C1333 C1341 1.433 . S
C1334 H1330 0.929 . S
C1334 C1336 1.378 . S
C1334 C1338 1.350 . S
C1335 C1338 1.463 . S
C1335 C1340 1.350 . S
C1335 N1343 1.427 . S
C1336 H1327 0.930 . S
C1336 C1334 1.378 . S
C1336 C1337 1.367 . S
C1337 C1336 1.367 . S
C1337 C1339 1.433 . S
C1338 C1334 1.350 . S
C1338 C1335 1.463 . S
C1338 N1342 1.427 . S
C1339 H1329 0.929 . S
C1339 C1337 1.433 . S
C1339 N1342 1.384 . S
C1340 H1331 0.929 . S
C1340 C1332 1.378 . S
C1340 C1335 1.350 . S
C1341 H1328 0.929 . S
C1341 C1333 1.433 . S
C1341 N1343 1.384 . S
N1342 C1338 1.427 . S
N1342 C1339 1.384 . S
N1343 C1335 1.427 . S
N1343 C1341 1.384 . S
H1344 C1350 0.930 . S
H1345 C1354 0.930 . S
H1346 C1359 0.929 . S
H1347 C1357 0.929 . S
H1348 C1352 0.929 . S
H1349 C1358 0.929 . S
C1350 H1344 0.930 . S
C1350 C1351 1.367 . S
C1350 C1358 1.378 . S
C1351 C1350 1.367 . S
C1351 C1359 1.433 . S
C1352 H1348 0.929 . S
C1352 C1354 1.378 . S
C1352 C1356 1.350 . S
C1353 C1356 1.463 . S
C1353 C1358 1.350 . S
C1353 N1361 1.427 . S
C1354 H1345 0.930 . S
C1354 C1352 1.378 . S
C1354 C1355 1.367 . S
C1355 C1354 1.367 . S
C1355 C1357 1.433 . S
C1356 C1352 1.350 . S
C1356 C1353 1.463 . S
C1356 N1360 1.427 . S
C1357 H1347 0.929 . S
C1357 C1355 1.433 . S
C1357 N1360 1.384 . S
C1358 H1349 0.929 . S
C1358 C1350 1.378 . S
C1358 C1353 1.350 . S
C1359 H1346 0.929 . S
C1359 C1351 1.433 . S
C1359 N1361 1.384 . S
N1360 C1356 1.427 . S
N1360 C1357 1.384 . S
N1361 C1353 1.427 . S
N1361 C1359 1.384 . S
H1362 C1368 0.930 . S
H1363 C1372 0.930 . S
H1364 C1377 0.929 . S
H1365 C1375 0.929 . S
H1366 C1370 0.929 . S
H1367 C1376 0.929 . S
C1368 H1362 0.930 . S
C1368 C1369 1.367 . S
C1368 C1376 1.378 . S
C1369 C1368 1.367 . S
C1369 C1377 1.433 . S
C1370 H1366 0.929 . S
C1370 C1372 1.378 . S
C1370 C1374 1.350 . S
C1371 C1374 1.463 . S
C1371 C1376 1.350 . S
C1371 N1379 1.427 . S
C1372 H1363 0.930 . S
C1372 C1370 1.378 . S
C1372 C1373 1.367 . S
C1373 C1372 1.367 . S
C1373 C1375 1.433 . S
C1374 C1370 1.350 . S
C1374 C1371 1.463 . S
C1374 N1378 1.427 . S
C1375 H1365 0.929 . S
C1375 C1373 1.433 . S
C1375 N1378 1.384 . S
C1376 H1367 0.929 . S
C1376 C1368 1.378 . S
C1376 C1371 1.350 . S
C1377 H1364 0.929 . S
C1377 C1369 1.433 . S
C1377 N1379 1.384 . S
N1378 C1374 1.427 . S
N1378 C1375 1.384 . S
N1379 C1371 1.427 . S
N1379 C1377 1.384 . S
H1380 C1386 0.930 . S
H1381 C1390 0.930 . S
H1382 C1395 0.929 . S
H1383 C1393 0.929 . S
H1384 C1388 0.929 . S
H1385 C1394 0.929 . S
C1386 H1380 0.930 . S
C1386 C1387 1.367 . S
C1386 C1394 1.378 . S
C1387 C1386 1.367 . S
C1387 C1395 1.433 . S
C1388 H1384 0.929 . S
C1388 C1390 1.378 . S
C1388 C1392 1.350 . S
C1389 C1392 1.463 . S
C1389 C1394 1.350 . S
C1389 N1397 1.427 . S
C1390 H1381 0.930 . S
C1390 C1388 1.378 . S
C1390 C1391 1.367 . S
C1391 C1390 1.367 . S
C1391 C1393 1.433 . S
C1392 C1388 1.350 . S
C1392 C1389 1.463 . S
C1392 N1396 1.427 . S
C1393 H1383 0.929 . S
C1393 C1391 1.433 . S
C1393 N1396 1.384 . S
C1394 H1385 0.929 . S
C1394 C1386 1.378 . S
C1394 C1389 1.350 . S
C1395 H1382 0.929 . S
C1395 C1387 1.433 . S
C1395 N1397 1.384 . S
N1396 C1392 1.427 . S
N1396 C1393 1.384 . S
N1397 C1389 1.427 . S
N1397 C1395 1.384 . S
H1398 C1404 0.930 . S
H1399 C1408 0.930 . S
H1400 C1413 0.929 . S
H1401 C1411 0.929 . S
H1402 C1406 0.929 . S
H1403 C1412 0.929 . S
C1404 H1398 0.930 . S
C1404 C1405 1.367 . S
C1404 C1412 1.378 . S
C1405 C1404 1.367 . S
C1405 C1413 1.433 . S
C1406 H1402 0.929 . S
C1406 C1408 1.378 . S
C1406 C1410 1.350 . S
C1407 C1410 1.463 . S
C1407 C1412 1.350 . S
C1407 N1415 1.427 . S
C1408 H1399 0.930 . S
C1408 C1406 1.378 . S
C1408 C1409 1.367 . S
C1409 C1408 1.367 . S
C1409 C1411 1.433 . S
C1410 C1406 1.350 . S
C1410 C1407 1.463 . S
C1410 N1414 1.427 . S
C1411 H1401 0.929 . S
C1411 C1409 1.433 . S
C1411 N1414 1.384 . S
C1412 H1403 0.929 . S
C1412 C1404 1.378 . S
C1412 C1407 1.350 . S
C1413 H1400 0.929 . S
C1413 C1405 1.433 . S
C1413 N1415 1.384 . S
N1414 C1410 1.427 . S
N1414 C1411 1.384 . S
N1415 C1407 1.427 . S
N1415 C1413 1.384 . S
H1416 C1422 0.930 . S
H1417 C1426 0.930 . S
H1418 C1431 0.929 . S
H1419 C1429 0.929 . S
H1420 C1424 0.929 . S
H1421 C1430 0.929 . S
C1422 H1416 0.930 . S
C1422 C1423 1.367 . S
C1422 C1430 1.378 . S
C1423 C1422 1.367 . S
C1423 C1431 1.433 . S
C1424 H1420 0.929 . S
C1424 C1426 1.378 . S
C1424 C1428 1.350 . S
C1425 C1428 1.463 1_556 S
C1425 C1430 1.350 . S
C1425 N1433 1.427 1_556 S
C1426 H1417 0.930 . S
C1426 C1424 1.378 . S
C1426 C1427 1.367 . S
C1427 C1426 1.367 . S
C1427 C1429 1.433 . S
C1428 C1424 1.350 . S
C1428 C1425 1.463 1_554 S
C1428 N1432 1.427 1_554 S
C1429 H1419 0.929 . S
C1429 C1427 1.433 . S
C1429 N1432 1.384 1_554 S
C1430 H1421 0.929 . S
C1430 C1422 1.378 . S
C1430 C1425 1.350 . S
C1431 H1418 0.929 . S
C1431 C1423 1.433 . S
C1431 N1433 1.384 1_556 S
N1432 C1428 1.427 1_556 S
N1432 C1429 1.384 1_556 S
N1433 C1425 1.427 1_554 S
N1433 C1431 1.384 1_554 S
H1434 C1440 0.930 . S
H1435 C1444 0.930 . S
H1436 C1449 0.929 . S
H1437 C1447 0.929 . S
H1438 C1442 0.929 . S
H1439 C1448 0.929 . S
C1440 H1434 0.930 . S
C1440 C1441 1.367 . S
C1440 C1448 1.378 . S
C1441 C1440 1.367 . S
C1441 C1449 1.433 . S
C1442 H1438 0.929 . S
C1442 C1444 1.378 . S
C1442 C1446 1.350 . S
C1443 C1446 1.463 . S
C1443 C1448 1.350 . S
C1443 N1451 1.427 . S
C1444 H1435 0.930 . S
C1444 C1442 1.378 . S
C1444 C1445 1.367 . S
C1445 C1444 1.367 . S
C1445 C1447 1.433 . S
C1446 C1442 1.350 . S
C1446 C1443 1.463 . S
C1446 N1450 1.427 . S
C1447 H1437 0.929 . S
C1447 C1445 1.433 . S
C1447 N1450 1.384 . S
C1448 H1439 0.929 . S
C1448 C1440 1.378 . S
C1448 C1443 1.350 . S
C1449 H1436 0.929 . S
C1449 C1441 1.433 . S
C1449 N1451 1.384 . S
N1450 C1446 1.427 . S
N1450 C1447 1.384 . S
N1451 C1443 1.427 . S
N1451 C1449 1.384 . S
H1452 C1458 0.930 . S
H1453 C1462 0.930 . S
H1454 C1467 0.929 . S
H1455 C1465 0.929 . S
H1456 C1460 0.929 . S
H1457 C1466 0.929 . S
C1458 H1452 0.930 . S
C1458 C1459 1.367 . S
C1458 C1466 1.378 . S
C1459 C1458 1.367 . S
C1459 C1467 1.433 . S
C1460 H1456 0.929 . S
C1460 C1462 1.378 . S
C1460 C1464 1.350 . S
C1461 C1464 1.463 . S
C1461 C1466 1.350 . S
C1461 N1469 1.427 . S
C1462 H1453 0.930 . S
C1462 C1460 1.378 . S
C1462 C1463 1.367 . S
C1463 C1462 1.367 . S
C1463 C1465 1.433 . S
C1464 C1460 1.350 . S
C1464 C1461 1.463 . S
C1464 N1468 1.427 . S
C1465 H1455 0.929 . S
C1465 C1463 1.433 . S
C1465 N1468 1.384 . S
C1466 H1457 0.929 . S
C1466 C1458 1.378 . S
C1466 C1461 1.350 . S
C1467 H1454 0.929 . S
C1467 C1459 1.433 . S
C1467 N1469 1.384 . S
N1468 C1464 1.427 . S
N1468 C1465 1.384 . S
N1469 C1461 1.427 . S
N1469 C1467 1.384 . S
H1470 C1476 0.930 . S
H1471 C1480 0.930 . S
H1472 C1485 0.929 . S
H1473 C1483 0.929 . S
H1474 C1478 0.929 . S
H1475 C1484 0.929 . S
C1476 H1470 0.930 . S
C1476 C1477 1.367 . S
C1476 C1484 1.378 . S
C1477 C1476 1.367 . S
C1477 C1485 1.433 . S
C1478 H1474 0.929 . S
C1478 C1480 1.378 . S
C1478 C1482 1.350 . S
C1479 C1482 1.463 1_554 S
C1479 C1484 1.350 . S
C1479 N1487 1.427 . S
C1480 H1471 0.930 . S
C1480 C1478 1.378 . S
C1480 C1481 1.367 . S
C1481 C1480 1.367 . S
C1481 C1483 1.433 . S
C1482 C1478 1.350 . S
C1482 C1479 1.463 1_556 S
C1482 N1486 1.427 . S
C1483 H1473 0.929 . S
C1483 C1481 1.433 . S
C1483 N1486 1.384 . S
C1484 H1475 0.929 . S
C1484 C1476 1.378 . S
C1484 C1479 1.350 . S
C1485 H1472 0.929 . S
C1485 C1477 1.433 . S
C1485 N1487 1.384 . S
N1486 C1482 1.427 . S
N1486 C1483 1.384 . S
N1487 C1479 1.427 . S
N1487 C1485 1.384 . S
C1063 C29 1.401 . S
C1067 C849 1.407 . S
C1081 C117 1.403 . S
C1085 C937 1.407 . S
C1099 C196 1.405 . S
C1103 C1017 1.407 . S
C1117 C293 1.407 . S
C1121 C585 1.402 . S
C1135 C665 1.404 . S
C1139 C381 1.398 . S
C1153 C761 1.407 . S
C1157 C469 1.402 . S
C1171 C909 1.962 . S
C1175 C57 1.964 . S
C1189 C145 1.964 . S
C1193 C988 1.964 . S
C1207 C225 1.962 . S
C1211 C557 1.963 . S
C1225 C321 1.963 . S
C1229 C636 1.964 . S
C1243 C409 1.963 . S
C1247 C733 1.964 . S
C1261 C497 1.964 . S
C1265 C821 1.962 . S
C1279 C929 0.222 . S
C1283 C20 0.229 . S
C1297 C108 0.230 . S
C1301 C1025 0.220 . S
C1315 C205 0.231 . S
C1319 C577 0.216 . S
C1333 C284 0.206 . S
C1337 C673 0.179 . S
C1351 C372 0.188 . S
C1355 C753 0.221 . S
C1369 C460 0.185 . S
C1373 C841 0.184 . S
C1387 C49 1.677 . S
C1391 C548 1.677 . S
C1405 C645 1.676 . S
C1409 C137 1.674 . S
C1423 C233 1.676 . S
C1427 C724 1.674 . S
C1441 C313 1.677 . S
C1445 C812 1.676 . S
C1459 C401 1.677 . S
C1463 C900 1.676 . S
C1477 C997 1.674 . S
C1481 C489 1.675 . S
