# Generated by pormake.
# Topology unp, (4)-cn, num edge types: 1
# Building blocks:
#     Node 0, Type 0, BuildingBlock: QUQFOY_clean_sbu_1, # of connection points: 4
#     Node 1, Type 0, BuildingBlock: QUQFOY_clean_sbu_1, # of connection points: 4
#     Node 2, Type 0, BuildingBlock: QUQFOY_clean_sbu_1, # of connection points: 4
#     Node 3, Type 0, BuildingBlock: QUQFOY_clean_sbu_1, # of connection points: 4
#     Node 4, Type 0, BuildingBlock: QUQFOY_clean_sbu_1, # of connection points: 4
#     Node 5, Type 0, BuildingBlock: QUQFOY_clean_sbu_1, # of connection points: 4
#     Node 6, Type 0, BuildingBlock: QUQFOY_clean_sbu_1, # of connection points: 4
#     Node 7, Type 0, BuildingBlock: QUQFOY_clean_sbu_1, # of connection points: 4
#     Node 8, Type 0, BuildingBlock: QUQFOY_clean_sbu_1, # of connection points: 4
#     Node 9, Type 0, BuildingBlock: QUQFOY_clean_sbu_1, # of connection points: 4
#     Node 10, Type 0, BuildingBlock: QUQFOY_clean_sbu_1, # of connection points: 4
#     Node 11, Type 0, BuildingBlock: QUQFOY_clean_sbu_1, # of connection points: 4
#     Node 12, Type 0, BuildingBlock: QUQFOY_clean_sbu_1, # of connection points: 4
#     Node 13, Type 0, BuildingBlock: QUQFOY_clean_sbu_1, # of connection points: 4
#     Node 14, Type 0, BuildingBlock: QUQFOY_clean_sbu_1, # of connection points: 4
#     Node 15, Type 0, BuildingBlock: QUQFOY_clean_sbu_1, # of connection points: 4
#     Node 16, Type 0, BuildingBlock: QUQFOY_clean_sbu_1, # of connection points: 4
#     Node 17, Type 0, BuildingBlock: QUQFOY_clean_sbu_1, # of connection points: 4
#     Edge 18, Type (0, 0), BuildingBlock: AJUNOK_clean_linker_0, # of connection points: 2
#     Edge 19, Type (0, 0), BuildingBlock: AJUNOK_clean_linker_0, # of connection points: 2
#     Edge 20, Type (0, 0), BuildingBlock: AJUNOK_clean_linker_0, # of connection points: 2
#     Edge 21, Type (0, 0), BuildingBlock: AJUNOK_clean_linker_0, # of connection points: 2
#     Edge 22, Type (0, 0), BuildingBlock: AJUNOK_clean_linker_0, # of connection points: 2
#     Edge 23, Type (0, 0), BuildingBlock: AJUNOK_clean_linker_0, # of connection points: 2
#     Edge 24, Type (0, 0), BuildingBlock: AJUNOK_clean_linker_0, # of connection points: 2
#     Edge 25, Type (0, 0), BuildingBlock: AJUNOK_clean_linker_0, # of connection points: 2
#     Edge 26, Type (0, 0), BuildingBlock: AJUNOK_clean_linker_0, # of connection points: 2
#     Edge 27, Type (0, 0), BuildingBlock: AJUNOK_clean_linker_0, # of connection points: 2
#     Edge 28, Type (0, 0), BuildingBlock: AJUNOK_clean_linker_0, # of connection points: 2
#     Edge 29, Type (0, 0), BuildingBlock: AJUNOK_clean_linker_0, # of connection points: 2
#     Edge 30, Type (0, 0), BuildingBlock: AJUNOK_clean_linker_0, # of connection points: 2
#     Edge 31, Type (0, 0), BuildingBlock: AJUNOK_clean_linker_0, # of connection points: 2
#     Edge 32, Type (0, 0), BuildingBlock: AJUNOK_clean_linker_0, # of connection points: 2
#     Edge 33, Type (0, 0), BuildingBlock: AJUNOK_clean_linker_0, # of connection points: 2
#     Edge 34, Type (0, 0), BuildingBlock: AJUNOK_clean_linker_0, # of connection points: 2
#     Edge 35, Type (0, 0), BuildingBlock: AJUNOK_clean_linker_0, # of connection points: 2
#     Edge 36, Type (0, 0), BuildingBlock: AJUNOK_clean_linker_0, # of connection points: 2
#     Edge 37, Type (0, 0), BuildingBlock: AJUNOK_clean_linker_0, # of connection points: 2
#     Edge 38, Type (0, 0), BuildingBlock: AJUNOK_clean_linker_0, # of connection points: 2
#     Edge 39, Type (0, 0), BuildingBlock: AJUNOK_clean_linker_0, # of connection points: 2
#     Edge 40, Type (0, 0), BuildingBlock: AJUNOK_clean_linker_0, # of connection points: 2
#     Edge 41, Type (0, 0), BuildingBlock: AJUNOK_clean_linker_0, # of connection points: 2
#     Edge 42, Type (0, 0), BuildingBlock: AJUNOK_clean_linker_0, # of connection points: 2
#     Edge 43, Type (0, 0), BuildingBlock: AJUNOK_clean_linker_0, # of connection points: 2
#     Edge 44, Type (0, 0), BuildingBlock: AJUNOK_clean_linker_0, # of connection points: 2
#     Edge 45, Type (0, 0), BuildingBlock: AJUNOK_clean_linker_0, # of connection points: 2
#     Edge 46, Type (0, 0), BuildingBlock: AJUNOK_clean_linker_0, # of connection points: 2
#     Edge 47, Type (0, 0), BuildingBlock: AJUNOK_clean_linker_0, # of connection points: 2
#     Edge 48, Type (0, 0), BuildingBlock: AJUNOK_clean_linker_0, # of connection points: 2
#     Edge 49, Type (0, 0), BuildingBlock: AJUNOK_clean_linker_0, # of connection points: 2
#     Edge 50, Type (0, 0), BuildingBlock: AJUNOK_clean_linker_0, # of connection points: 2
#     Edge 51, Type (0, 0), BuildingBlock: AJUNOK_clean_linker_0, # of connection points: 2
#     Edge 52, Type (0, 0), BuildingBlock: AJUNOK_clean_linker_0, # of connection points: 2
#     Edge 53, Type (0, 0), BuildingBlock: AJUNOK_clean_linker_0, # of connection points: 2
# Relax obj value: 0.363
# Max RMSD: 0.184
# Mean RMSD: 0.184
data_MOF--net-unp--node1-QUQFOY_clean_sbu_1--edge1-AJUNOK_clean_linker_0
_symmetry_space_group_name_H-M    P1
_symmetry_Int_Tables_number       1
_symmetry_cell_setting            triclinic
loop_
_symmetry_equiv_pos_as_xyz
'x, y, z'
_cell_length_a     36.068243
_cell_length_b     36.075287
_cell_length_c     55.417996
_cell_angle_alpha  89.979968
_cell_angle_beta   90.019044
_cell_angle_gamma 119.99947
loop_
_atom_site_label
_atom_site_type_symbol
_atom_site_fract_x
_atom_site_fract_y
_atom_site_fract_z
_atom_type_partial_charge
O0 O 0.16233 0.10528 0.14587 0.0
Cd1 Cd 0.17347 0.16694 0.1441 0.0
Cd2 Cd 0.15937 0.15045 0.09436 0.0
O3 O 0.16321 0.0981 0.10644 0.0
O4 O 0.21428 0.20111 0.17001 0.0
O5 O 0.22961 0.21188 0.13098 0.0
C6 C 0.24192 0.22144 0.15318 0.0
C7 C 0.16681 0.15859 0.05191 0.0
C8 C 0.16112 0.08349 0.1276 0.0
C9 C 0.09629 0.16458 0.12575 0.0
O10 O 0.10754 0.15559 0.10586 0.0
O11 O 0.11983 0.17306 0.1443 0.0
O12 O 0.13542 0.12624 0.0621 0.0
O13 O 0.19539 0.18722 0.06584 0.0
O14 O 0.89345 0.06147 0.14457 0.0
Cd15 Cd 0.83172 0.01093 0.14449 0.0
Cd16 Cd 0.84476 0.01113 0.09431 0.0
O17 O 0.8985 0.06744 0.105 0.0
O18 O 0.79964 0.01859 0.17123 0.0
O19 O 0.78553 0.02125 0.13251 0.0
C20 C 0.7777 0.02479 0.15493 0.0
C21 C 0.83448 0.00734 0.05199 0.0
C22 C 0.91445 0.08085 0.12583 0.0
C23 C 0.83203 0.93506 0.1264 0.0
O24 O 0.83948 0.95442 0.10629 0.0
O25 O 0.82574 0.95126 0.14519 0.0
O26 O 0.86696 0.00835 0.06201 0.0
O27 O 0.80715 0.00958 0.066 0.0
O28 O 0.93648 0.83751 0.14578 0.0
Cd29 Cd 0.98717 0.82663 0.1471 0.0
Cd30 Cd 0.98973 0.84058 0.09627 0.0
O31 O 0.93318 0.83842 0.10606 0.0
O32 O 0.97795 0.78724 0.17435 0.0
O33 O 0.97747 0.76991 0.13591 0.0
C34 C 0.97256 0.75883 0.15842 0.0
C35 C 0.99718 0.83563 0.05418 0.0
C36 C 0.91832 0.83979 0.12666 0.0
C37 C 0.06441 0.90251 0.12987 0.0
O38 O 0.04617 0.89072 0.10946 0.0
O39 O 0.04685 0.88034 0.1486 0.0
O40 O 0.996 0.86716 0.064 0.0
O41 O 0.99214 0.80482 0.0681 0.0
O42 O 0.10078 0.16007 0.85405 0.0
Cd43 Cd 0.16258 0.17163 0.85484 0.0
Cd44 Cd 0.14825 0.15732 0.90466 0.0
O45 O 0.09432 0.15937 0.8936 0.0
O46 O 0.19661 0.21417 0.82962 0.0
O47 O 0.20716 0.22695 0.86891 0.0
C48 C 0.21672 0.24073 0.84695 0.0
C49 C 0.15864 0.1641 0.94699 0.0
C50 C 0.07908 0.15757 0.87263 0.0
C51 C 0.16284 0.09549 0.8723 0.0
O52 O 0.15485 0.10677 0.89246 0.0
O53 O 0.16906 0.11824 0.85362 0.0
O54 O 0.12638 0.13223 0.93705 0.0
O55 O 0.18558 0.1938 0.93289 0.0
O56 O 0.83064 0.93565 0.85517 0.0
Cd57 Cd 0.81973 0.98639 0.85498 0.0
Cd58 Cd 0.8331 0.98756 0.90491 0.0
O59 O 0.82964 0.93066 0.89477 0.0
O60 O 0.7788 0.97808 0.82878 0.0
O61 O 0.76398 0.97692 0.86771 0.0
C62 C 0.75148 0.97259 0.84548 0.0
C63 C 0.82628 0.99103 0.94724 0.0
C64 C 0.83213 0.91668 0.87413 0.0
C65 C 0.897 0.06217 0.87227 0.0
O66 O 0.88519 0.04354 0.89261 0.0
O67 O 0.87375 0.04581 0.85374 0.0
O68 O 0.85762 0.9897 0.93728 0.0
O69 O 0.7974 0.99006 0.93313 0.0
O70 O 0.05676 0.89299 0.85577 0.0
Cd71 Cd 0.00611 0.83146 0.85772 0.0
Cd72 Cd 0.00806 0.84796 0.9075 0.0
O73 O 0.06426 0.9 0.89521 0.0
O74 O 0.01233 0.79736 0.83164 0.0
O75 O 0.01744 0.78647 0.87059 0.0
C76 C 0.01992 0.77702 0.84834 0.0
C77 C 0.01006 0.84082 0.94983 0.0
C78 C 0.07719 0.91462 0.87412 0.0
C79 C 0.93101 0.8338 0.87609 0.0
O80 O 0.95093 0.84279 0.89611 0.0
O81 O 0.9464 0.82541 0.85766 0.0
O82 O 0.01008 0.87284 0.93982 0.0
O83 O 0.00811 0.81134 0.93587 0.0
O84 O 0.82849 0.4327 0.48 0.0
Cd85 Cd 0.83977 0.49443 0.47835 0.0
Cd86 Cd 0.82909 0.48084 0.42903 0.0
O87 O 0.83255 0.4281 0.44062 0.0
O88 O 0.88093 0.52921 0.50398 0.0
O89 O 0.89572 0.53887 0.46485 0.0
C90 C 0.90836 0.54898 0.48696 0.0
C91 C 0.84194 0.49143 0.38715 0.0
C92 C 0.82875 0.41207 0.46151 0.0
C93 C 0.76315 0.49211 0.45893 0.0
O94 O 0.77549 0.48397 0.43915 0.0
O95 O 0.78604 0.50043 0.47776 0.0
O96 O 0.80956 0.45824 0.396 0.0
O97 O 0.86784 0.52016 0.40205 0.0
O98 O 0.55997 0.38944 0.47831 0.0
Cd99 Cd 0.49831 0.33882 0.47917 0.0
Cd100 Cd 0.5093 0.33614 0.42914 0.0
O101 O 0.56439 0.39223 0.43864 0.0
O102 O 0.46636 0.34806 0.50537 0.0
O103 O 0.45182 0.34801 0.46646 0.0
C104 C 0.44416 0.35303 0.48868 0.0
C105 C 0.4963 0.33034 0.38708 0.0
C106 C 0.58077 0.40714 0.45921 0.0
C107 C 0.49715 0.26156 0.46233 0.0
O108 O 0.50328 0.27953 0.44185 0.0
O109 O 0.49256 0.27928 0.48098 0.0
O110 O 0.52878 0.33051 0.39656 0.0
O111 O 0.47063 0.33464 0.40146 0.0
O112 O 0.60337 0.16496 0.4796 0.0
Cd113 Cd 0.65406 0.15412 0.47847 0.0
Cd114 Cd 0.65404 0.16984 0.42837 0.0
O115 O 0.59772 0.16637 0.44005 0.0
O116 O 0.64643 0.11244 0.50406 0.0
O117 O 0.64352 0.09851 0.46491 0.0
C118 C 0.63985 0.08542 0.48699 0.0
C119 C 0.65614 0.16392 0.38586 0.0
C120 C 0.58393 0.16722 0.46105 0.0
C121 C 0.73035 0.23101 0.46103 0.0
O122 O 0.71121 0.22029 0.4408 0.0
O123 O 0.71375 0.20776 0.47954 0.0
O124 O 0.65571 0.19539 0.3963 0.0
O125 O 0.65484 0.13442 0.39957 0.0
O126 O 0.76691 0.49887 0.19373 0.0
Cd127 Cd 0.8287 0.51023 0.19264 0.0
Cd128 Cd 0.8172 0.49395 0.24198 0.0
O129 O 0.76218 0.49575 0.23341 0.0
O130 O 0.86051 0.55269 0.16696 0.0
O131 O 0.87479 0.56552 0.20601 0.0
C132 C 0.88238 0.57922 0.18397 0.0
C133 C 0.83318 0.5 0.28357 0.0
C134 C 0.74602 0.49517 0.2129 0.0
C135 C 0.82857 0.43268 0.20749 0.0
O136 O 0.82194 0.44331 0.22819 0.0
O137 O 0.83469 0.45671 0.18942 0.0
O138 O 0.79966 0.46818 0.27457 0.0
O139 O 0.8577 0.53057 0.26916 0.0
O140 O 0.49956 0.27342 0.1885 0.0
Cd141 Cd 0.48868 0.32412 0.19008 0.0
Cd142 Cd 0.49812 0.31899 0.24022 0.0
O143 O 0.49456 0.26314 0.2278 0.0
O144 O 0.44993 0.31906 0.16328 0.0
O145 O 0.4317 0.31251 0.20194 0.0
C146 C 0.42109 0.311 0.17948 0.0
C147 C 0.48806 0.31729 0.28248 0.0
C148 C 0.49868 0.2517 0.20674 0.0
C149 C 0.56414 0.39772 0.21091 0.0
O150 O 0.55113 0.3763 0.23034 0.0
O151 O 0.54249 0.38371 0.19162 0.0
O152 O 0.51971 0.31623 0.27273 0.0
O153 O 0.46073 0.31896 0.2682 0.0
O154 O 0.72254 0.22943 0.18761 0.0
Cd155 Cd 0.67216 0.16776 0.18845 0.0
Cd156 Cd 0.67195 0.18238 0.23842 0.0
O157 O 0.72804 0.236 0.22716 0.0
O158 O 0.6803 0.13419 0.16282 0.0
O159 O 0.68285 0.12278 0.20197 0.0
C160 C 0.68684 0.11366 0.17988 0.0
C161 C 0.66911 0.17246 0.28081 0.0
C162 C 0.7417 0.25111 0.2062 0.0
C163 C 0.59565 0.16765 0.20587 0.0
O164 O 0.6147 0.17567 0.22612 0.0
O165 O 0.61238 0.16145 0.18728 0.0
O166 O 0.66929 0.2046 0.27084 0.0
O167 O 0.67137 0.14526 0.2667 0.0
O168 O 0.4923 0.76839 0.81357 0.0
Cd169 Cd 0.50372 0.83004 0.81058 0.0
Cd170 Cd 0.49382 0.81311 0.76111 0.0
O171 O 0.49808 0.76177 0.77449 0.0
O172 O 0.54337 0.86534 0.83666 0.0
O173 O 0.56062 0.87398 0.79782 0.0
C174 C 0.57189 0.88457 0.82008 0.0
C175 C 0.50576 0.82042 0.71902 0.0
C176 C 0.49365 0.74696 0.79577 0.0
C177 C 0.42761 0.82656 0.7895 0.0
O178 O 0.44019 0.81686 0.77033 0.0
O179 O 0.45018 0.83626 0.80854 0.0
O180 O 0.53192 0.85026 0.73331 0.0
O181 O 0.47375 0.78781 0.7286 0.0
O182 O 0.22459 0.7252 0.8072 0.0
Cd183 Cd 0.16299 0.6744 0.80867 0.0
Cd184 Cd 0.17376 0.67127 0.75905 0.0
O185 O 0.22892 0.72796 0.76753 0.0
O186 O 0.13336 0.68356 0.83621 0.0
O187 O 0.11525 0.68342 0.79795 0.0
C188 C 0.10956 0.68831 0.82053 0.0
C189 C 0.15613 0.66242 0.71769 0.0
C190 C 0.24534 0.74292 0.78808 0.0
C191 C 0.16398 0.59796 0.79243 0.0
O192 O 0.17013 0.6158 0.77191 0.0
O193 O 0.15774 0.6151 0.81081 0.0
O194 O 0.18999 0.66387 0.72596 0.0
O195 O 0.13216 0.66808 0.73272 0.0
O196 O 0.26933 0.50002 0.81308 0.0
Cd197 Cd 0.32016 0.48937 0.8137 0.0
Cd198 Cd 0.32339 0.50519 0.76336 0.0
O199 O 0.26703 0.50326 0.77344 0.0
O200 O 0.31126 0.44871 0.84017 0.0
O201 O 0.31088 0.43342 0.80137 0.0
C202 C 0.30613 0.42122 0.82368 0.0
C203 C 0.32889 0.49921 0.72108 0.0
C204 C 0.25175 0.50366 0.79408 0.0
C205 C 0.39765 0.56613 0.79727 0.0
O206 O 0.38005 0.55508 0.77664 0.0
O207 O 0.37957 0.54329 0.81571 0.0
O208 O 0.32875 0.53124 0.73098 0.0
O209 O 0.32495 0.46901 0.73517 0.0
O210 O 0.4352 0.82663 0.52421 0.0
Cd211 Cd 0.49688 0.83769 0.5229 0.0
Cd212 Cd 0.48498 0.82176 0.57299 0.0
O213 O 0.43032 0.82388 0.56388 0.0
O214 O 0.52722 0.87782 0.49596 0.0
O215 O 0.54402 0.89405 0.53451 0.0
C216 C 0.55036 0.90572 0.5121 0.0
C217 C 0.49869 0.82663 0.6149 0.0
C218 C 0.41423 0.8231 0.54331 0.0
C219 C 0.49681 0.76039 0.53864 0.0
O220 O 0.49032 0.77141 0.55927 0.0
O221 O 0.50257 0.78392 0.52038 0.0
O222 O 0.46568 0.79511 0.6053 0.0
O223 O 0.52406 0.85747 0.60088 0.0
O224 O 0.16654 0.60147 0.5228 0.0
Cd225 Cd 0.15557 0.6522 0.5233 0.0
Cd226 Cd 0.16468 0.65065 0.57287 0.0
O227 O 0.16236 0.59456 0.56227 0.0
O228 O 0.1165 0.64585 0.4964 0.0
O229 O 0.09876 0.6413 0.53507 0.0
C230 C 0.08789 0.63869 0.51259 0.0
C231 C 0.14941 0.64833 0.61439 0.0
C232 C 0.16636 0.58148 0.54169 0.0
C233 C 0.23175 0.72701 0.54307 0.0
O234 O 0.21863 0.70728 0.56304 0.0
O235 O 0.20954 0.71177 0.52406 0.0
O236 O 0.1825 0.64793 0.60637 0.0
O237 O 0.1243 0.65108 0.59886 0.0
O238 O 0.38919 0.55684 0.52181 0.0
Cd239 Cd 0.33879 0.49528 0.52399 0.0
Cd240 Cd 0.34236 0.51294 0.57379 0.0
O241 O 0.39844 0.56491 0.56115 0.0
O242 O 0.34462 0.46131 0.49767 0.0
O243 O 0.35064 0.45039 0.53651 0.0
C244 C 0.35263 0.44099 0.51418 0.0
C245 C 0.34261 0.50494 0.61622 0.0
C246 C 0.41028 0.57909 0.53984 0.0
C247 C 0.26434 0.49789 0.54286 0.0
O248 O 0.28509 0.50757 0.56259 0.0
O249 O 0.27908 0.48926 0.52422 0.0
O250 O 0.34363 0.53742 0.60616 0.0
O251 O 0.34194 0.47613 0.60219 0.0
C252 C 0.34369 0.27847 0.19015 0.0
C253 C 0.37599 0.29578 0.17249 0.0
C254 C 0.30032 0.25673 0.18375 0.0
C255 C 0.28739 0.25141 0.15941 0.0
H256 H 0.35183 0.27976 0.20907 0.0
H257 H 0.27686 0.24227 0.19804 0.0
S258 S 0.35922 0.29699 0.1064 0.0
N259 N 0.39197 0.31084 0.12972 0.0
N260 N 0.31044 0.26994 0.11771 0.0
C261 C 0.31926 0.27142 0.14166 0.0
C262 C 0.36353 0.2936 0.14819 0.0
C263 C 0.73219 0.05635 0.14373 0.0
C264 C 0.74773 0.04 0.16166 0.0
C265 C 0.71024 0.07791 0.1498 0.0
C266 C 0.7028 0.08393 0.17405 0.0
H267 H 0.73884 0.05445 0.12485 0.0
H268 H 0.70079 0.09162 0.13532 0.0
S269 S 0.73062 0.04103 0.2277 0.0
N270 N 0.74949 0.02667 0.2046 0.0
N271 N 0.70821 0.06716 0.21599 0.0
C272 C 0.71526 0.06489 0.19209 0.0
C273 C 0.73773 0.04296 0.1859 0.0
C274 C 0.91992 0.6382 0.15395 0.0
C275 C 0.91217 0.62494 0.17823 0.0
C276 C 0.94186 0.68165 0.14775 0.0
C277 C 0.95679 0.7137 0.16555 0.0
H278 H 0.90745 0.61488 0.1395 0.0
H279 H 0.94523 0.69002 0.12878 0.0
S280 S 0.95022 0.69615 0.23185 0.0
N281 N 0.92531 0.64751 0.22025 0.0
N282 N 0.96645 0.72917 0.2086 0.0
C283 C 0.9519 0.70096 0.18993 0.0
C284 C 0.92964 0.65661 0.19626 0.0
C285 C 0.27493 0.34452 0.8118 0.0
C286 C 0.29075 0.37584 0.83002 0.0
C287 C 0.25322 0.30082 0.81746 0.0
C288 C 0.24653 0.28662 0.84158 0.0
H289 H 0.27736 0.35364 0.79299 0.0
H290 H 0.23994 0.2781 0.80275 0.0
S291 S 0.28784 0.3557 0.89593 0.0
N292 N 0.30284 0.38963 0.87313 0.0
N293 N 0.26209 0.30753 0.88376 0.0
C294 C 0.26503 0.31757 0.85994 0.0
C295 C 0.2871 0.36215 0.85416 0.0
C296 C 0.69272 0.94764 0.81498 0.0
C297 C 0.70611 0.95748 0.83916 0.0
C298 C 0.64925 0.92646 0.80879 0.0
C299 C 0.61732 0.9142 0.82653 0.0
H300 H 0.71582 0.95447 0.80074 0.0
H301 H 0.64068 0.91777 0.79007 0.0
S302 S 0.63558 0.93893 0.89199 0.0
N303 N 0.68404 0.95812 0.88059 0.0
N304 N 0.60234 0.91835 0.86897 0.0
C305 C 0.63034 0.92675 0.85055 0.0
C306 C 0.6747 0.94839 0.85686 0.0
C307 C 0.06321 0.71951 0.81064 0.0
C308 C 0.07985 0.70339 0.82805 0.0
C309 C 0.04153 0.74102 0.81741 0.0
C310 C 0.03549 0.74721 0.84187 0.0
H311 H 0.06882 0.71752 0.79161 0.0
H312 H 0.03123 0.75461 0.80328 0.0
S313 S 0.06641 0.70469 0.89445 0.0
N314 N 0.08405 0.69029 0.87079 0.0
N315 N 0.04327 0.73068 0.88351 0.0
C316 C 0.04901 0.72832 0.85944 0.0
C317 C 0.07121 0.70645 0.85253 0.0
C318 C 0.96719 0.58533 0.51721 0.0
C319 C 0.95398 0.57895 0.49291 0.0
C320 C 0.01065 0.60709 0.52344 0.0
C321 C 0.04274 0.62334 0.50564 0.0
H322 H 0.94388 0.57171 0.53162 0.0
H323 H 0.01899 0.60924 0.54237 0.0
S324 S 0.02525 0.62141 0.43946 0.0
N325 N 0.97659 0.59528 0.45101 0.0
N326 N 0.05825 0.63619 0.4627 0.0
C327 C 0.03002 0.62006 0.48132 0.0
C328 C 0.98567 0.59788 0.47497 0.0
C329 C 0.38764 0.39864 0.52539 0.0
C330 C 0.36845 0.41144 0.50764 0.0
C331 C 0.40996 0.37751 0.51917 0.0
C332 C 0.41395 0.36821 0.49495 0.0
H333 H 0.3874 0.4069 0.54416 0.0
H334 H 0.42584 0.37023 0.53344 0.0
S335 S 0.36336 0.3884 0.44201 0.0
N336 N 0.3503 0.40847 0.4651 0.0
N337 N 0.39222 0.36874 0.45342 0.0
C338 C 0.39211 0.37786 0.47721 0.0
C339 C 0.3694 0.39948 0.48355 0.0
C340 C 0.61732 0.02634 0.51707 0.0
C341 C 0.62421 0.03977 0.49281 0.0
C342 C 0.59572 0.98283 0.52318 0.0
C343 C 0.57998 0.95093 0.50528 0.0
H344 H 0.62693 0.04951 0.53155 0.0
H345 H 0.58946 0.97429 0.54208 0.0
S346 S 0.59574 0.96898 0.43917 0.0
N347 N 0.61812 0.01753 0.45084 0.0
N348 N 0.57747 0.93578 0.46232 0.0
C349 C 0.58942 0.96386 0.48101 0.0
C350 C 0.61156 0.00825 0.47477 0.0
C351 C 0.02887 0.15259 0.10638 0.0
C352 C 0.05189 0.15678 0.12769 0.0
C353 C 0.98412 0.13178 0.10638 0.0
C354 C 0.96049 0.1141 0.12768 0.0
H355 H 0.04529 0.16249 0.0892 0.0
H356 H 0.96802 0.12665 0.08917 0.0
S357 S 0.00594 0.12632 0.18926 0.0
N358 N 0.04817 0.14903 0.17138 0.0
N359 N 0.96392 0.10987 0.17143 0.0
C360 C 0.98329 0.12303 0.14959 0.0
C361 C 0.02906 0.14443 0.14958 0.0
C362 C 0.85787 0.89312 0.14968 0.0
C363 C 0.8402 0.8988 0.12832 0.0
C364 C 0.87969 0.87003 0.14962 0.0
C365 C 0.88456 0.85183 0.12819 0.0
H366 H 0.85847 0.90989 0.16602 0.0
H367 H 0.89591 0.8697 0.166 0.0
S368 S 0.83351 0.8474 0.06926 0.0
N369 N 0.82114 0.87689 0.08656 0.0
N370 N 0.86194 0.83341 0.08641 0.0
C371 C 0.86214 0.85257 0.10757 0.0
C372 C 0.83999 0.87607 0.10765 0.0
C373 C 0.12896 0.01594 0.15192 0.0
C374 C 0.14906 0.03787 0.1305 0.0
C375 C 0.10539 0.97104 0.15263 0.0
C376 C 0.10115 0.94664 0.13193 0.0
H377 H 0.12808 0.03337 0.16762 0.0
H378 H 0.08707 0.95572 0.16873 0.0
S379 S 0.15748 0.98815 0.07364 0.0
N380 N 0.17068 0.03144 0.08982 0.0
N381 N 0.12627 0.94725 0.09115 0.0
C382 C 0.12576 0.96801 0.11151 0.0
C383 C 0.14976 0.01362 0.11079 0.0
C384 C 0.11373 0.98232 0.84996 0.0
C385 C 0.11117 0.96011 0.87139 0.0
C386 C 0.13548 0.02723 0.84938 0.0
C387 C 0.15529 0.05134 0.87022 0.0
H388 H 0.09565 0.96512 0.83414 0.0
H389 H 0.13301 0.04282 0.83324 0.0
S390 S 0.16827 0.00896 0.92865 0.0
N391 N 0.13828 0.9659 0.91228 0.0
N392 N 0.17871 0.05014 0.91118 0.0
C393 C 0.15781 0.02966 0.89068 0.0
C394 C 0.13584 0.98404 0.89127 0.0
C395 C 0.00949 0.14102 0.89136 0.0
C396 C 0.03319 0.14516 0.87035 0.0
C397 C 0.96471 0.11794 0.89121 0.0
C398 C 0.94173 0.09806 0.87005 0.0
H399 H 0.0255 0.15289 0.90851 0.0
H400 H 0.94815 0.11287 0.90826 0.0
S401 S 0.98818 0.10839 0.80899 0.0
N402 N 0.0301 0.13448 0.82683 0.0
N403 N 0.94581 0.09092 0.82662 0.0
C404 C 0.96478 0.10663 0.84831 0.0
C405 C 0.01058 0.1302 0.84845 0.0
C406 C 0.87526 0.846 0.89486 0.0
C407 C 0.89433 0.84142 0.87378 0.0
C408 C 0.851 0.86646 0.89437 0.0
C409 C 0.84501 0.88345 0.87279 0.0
H410 H 0.88179 0.83667 0.91223 0.0
H411 H 0.83983 0.87194 0.91142 0.0
S412 S 0.87882 0.86991 0.81167 0.0
N413 N 0.8985 0.84795 0.83001 0.0
N414 N 0.85292 0.88656 0.82907 0.0
C415 C 0.85913 0.87409 0.85113 0.0
C416 C 0.8838 0.85301 0.85163 0.0
C417 C 0.69512 0.47718 0.43895 0.0
C418 C 0.71839 0.4835 0.46044 0.0
C419 C 0.65036 0.4561 0.439 0.0
C420 C 0.62692 0.44031 0.46054 0.0
H421 H 0.71139 0.4857 0.42169 0.0
H422 H 0.63412 0.44937 0.42175 0.0
S423 S 0.67285 0.45835 0.5223 0.0
N424 N 0.71495 0.47966 0.50429 0.0
N425 N 0.63069 0.44001 0.50442 0.0
C426 C 0.64989 0.45125 0.48244 0.0
C427 C 0.69568 0.47289 0.48238 0.0
C428 C 0.52542 0.22156 0.48542 0.0
C429 C 0.50521 0.22527 0.46458 0.0
C430 C 0.54744 0.19866 0.48496 0.0
C431 C 0.54994 0.17874 0.46363 0.0
H432 H 0.52791 0.23981 0.50147 0.0
H433 H 0.56573 0.19994 0.50076 0.0
S434 S 0.49191 0.16881 0.40651 0.0
N435 N 0.48131 0.19963 0.4238 0.0
N436 N 0.5225 0.15654 0.42291 0.0
C437 C 0.52501 0.17747 0.44377 0.0
C438 C 0.50265 0.20074 0.44426 0.0
C439 C 0.79585 0.34327 0.48473 0.0
C440 C 0.81622 0.36618 0.4636 0.0
C441 C 0.77179 0.29838 0.48469 0.0
C442 C 0.7672 0.27496 0.4635 0.0
H443 H 0.79524 0.36001 0.50081 0.0
H444 H 0.7534 0.28237 0.50066 0.0
S445 S 0.82378 0.3189 0.40556 0.0
N446 N 0.83766 0.36144 0.42256 0.0
N447 N 0.79202 0.27727 0.42248 0.0
C448 C 0.79189 0.29715 0.4433 0.0
C449 C 0.81654 0.34275 0.44335 0.0
C450 C 0.79632 0.31994 0.22488 0.0
C451 C 0.77546 0.29685 0.20393 0.0
C452 C 0.81822 0.36471 0.22511 0.0
C453 C 0.82015 0.38825 0.20441 0.0
H454 H 0.79301 0.30345 0.24178 0.0
H455 H 0.83067 0.3808 0.24219 0.0
S456 S 0.78049 0.34348 0.14341 0.0
N457 N 0.76549 0.30109 0.16074 0.0
N458 N 0.80656 0.38538 0.16126 0.0
C459 C 0.80446 0.36581 0.18258 0.0
C460 C 0.78207 0.32002 0.18233 0.0
C461 C 0.67772 0.4662 0.18946 0.0
C462 C 0.69999 0.48233 0.21134 0.0
C463 C 0.63283 0.44253 0.18887 0.0
C464 C 0.60867 0.43413 0.21015 0.0
H465 H 0.69493 0.46871 0.17296 0.0
H466 H 0.61735 0.42754 0.17203 0.0
S467 S 0.65093 0.47915 0.27077 0.0
N468 N 0.69402 0.49573 0.25383 0.0
N469 N 0.6098 0.45112 0.2527 0.0
C470 C 0.63031 0.45464 0.23151 0.0
C471 C 0.67595 0.47878 0.23211 0.0
C472 C 0.53128 0.21613 0.18296 0.0
C473 C 0.51079 0.21809 0.20418 0.0
C474 C 0.55493 0.19487 0.18264 0.0
C475 C 0.55894 0.17499 0.20353 0.0
H476 H 0.53235 0.23425 0.16713 0.0
H477 H 0.5735 0.19775 0.16666 0.0
S478 S 0.50158 0.16039 0.26138 0.0
N479 N 0.48845 0.1902 0.24486 0.0
N480 N 0.53331 0.15083 0.24425 0.0
C481 C 0.53404 0.17189 0.22375 0.0
C482 C 0.50982 0.1933 0.22407 0.0
C483 C 0.31556 0.79037 0.76804 0.0
C484 C 0.29153 0.77596 0.78948 0.0
C485 C 0.36031 0.81107 0.76842 0.0
C486 C 0.38295 0.81839 0.79023 0.0
H487 H 0.29978 0.78278 0.75064 0.0
H488 H 0.37702 0.81848 0.75129 0.0
S489 S 0.33583 0.79717 0.8517 0.0
N490 N 0.29417 0.77818 0.83341 0.0
N491 N 0.37838 0.81707 0.83406 0.0
C492 C 0.3597 0.80922 0.81193 0.0
C493 C 0.31394 0.78797 0.81157 0.0
C494 C 0.19946 0.52011 0.77427 0.0
C495 C 0.21792 0.51567 0.79566 0.0
C496 C 0.17743 0.54286 0.77393 0.0
C497 C 0.173 0.56221 0.79496 0.0
H498 H 0.2047 0.50872 0.75723 0.0
H499 H 0.16681 0.54814 0.75663 0.0
S500 S 0.20563 0.55058 0.85675 0.0
N501 N 0.22283 0.52523 0.83929 0.0
N502 N 0.18158 0.56826 0.83858 0.0
C503 C 0.18632 0.55325 0.817 0.0
C504 C 0.20881 0.52994 0.81736 0.0
C505 C 0.45992 0.67922 0.81996 0.0
C506 C 0.48178 0.70144 0.79896 0.0
C507 C 0.43652 0.63431 0.82047 0.0
C508 C 0.43415 0.61021 0.79997 0.0
H509 H 0.45757 0.69642 0.83536 0.0
H510 H 0.41683 0.61874 0.83612 0.0
S511 S 0.49537 0.6525 0.74315 0.0
N512 N 0.50707 0.69557 0.75918 0.0
N513 N 0.4627 0.61135 0.76011 0.0
C514 C 0.46041 0.63185 0.78014 0.0
C515 C 0.48436 0.67747 0.77964 0.0
C516 C 0.48816 0.69341 0.55671 0.0
C517 C 0.48861 0.716 0.5359 0.0
C518 C 0.46638 0.64865 0.5571 0.0
C519 C 0.44408 0.62463 0.53668 0.0
H520 H 0.50168 0.71028 0.57348 0.0
H521 H 0.46422 0.63293 0.57413 0.0
S522 S 0.44496 0.66855 0.4759 0.0
N523 N 0.47214 0.71123 0.49305 0.0
N524 N 0.43123 0.62694 0.49368 0.0
C525 C 0.44923 0.64683 0.51486 0.0
C526 C 0.47155 0.69261 0.51448 0.0
C527 C 0.29981 0.77965 0.56324 0.0
C528 C 0.27668 0.76292 0.54169 0.0
C529 C 0.3446 0.80295 0.56333 0.0
C530 C 0.36819 0.81049 0.54186 0.0
H531 H 0.28342 0.77201 0.58047 0.0
H532 H 0.36071 0.81229 0.58062 0.0
S533 S 0.32278 0.78321 0.47996 0.0
N534 N 0.28053 0.76269 0.49784 0.0
N535 N 0.36479 0.80662 0.49797 0.0
C536 C 0.34541 0.79873 0.51989 0.0
C537 C 0.29961 0.77493 0.51982 0.0
C538 C 0.22146 0.5223 0.51931 0.0
C539 C 0.22779 0.50557 0.54086 0.0
C540 C 0.19756 0.5433 0.51908 0.0
C541 C 0.17906 0.54814 0.54038 0.0
H542 H 0.23829 0.52281 0.50302 0.0
H543 H 0.19674 0.5589 0.50254 0.0
S544 S 0.17666 0.49953 0.59991 0.0
N545 N 0.20675 0.48767 0.58279 0.0
N546 N 0.16137 0.52646 0.58239 0.0
C547 C 0.18054 0.52656 0.56125 0.0
C548 C 0.20507 0.50547 0.56149 0.0
C549 C 0.13766 0.12651 0.01182 0.0
C550 C 0.16824 0.16178 0.02515 0.0
C551 C 0.13545 0.12798 0.98675 0.0
C552 C 0.16375 0.16477 0.97362 0.0
H553 H 0.11467 0.09724 0.02079 0.0
H554 H 0.11096 0.0997 0.97766 0.0
S555 S 0.25091 0.26575 0.99961 0.0
N556 N 0.22839 0.23462 0.02329 0.0
N557 N 0.22431 0.23734 0.97579 0.0
C558 C 0.19521 0.20022 0.98654 0.0
C559 C 0.19744 0.19873 0.01236 0.0
C560 C 0.85619 0.99041 0.98743 0.0
C561 C 0.8251 0.99398 0.97393 0.0
C562 C 0.85836 0.99465 0.01245 0.0
C563 C 0.82953 0.00263 0.02538 0.0
H564 H 0.87954 0.98444 0.97866 0.0
H565 H 0.8832 0.99161 0.02168 0.0
S566 S 0.74123 0.01403 0.99886 0.0
N567 N 0.76413 0.00542 0.97537 0.0
N568 N 0.76815 0.01331 0.02283 0.0
C569 C 0.7977 0.00572 0.01228 0.0
C570 C 0.7955 0.00141 0.9865 0.0
C571 C 0.99121 0.79951 0.98892 0.0
C572 C 0.01169 0.83883 0.97648 0.0
C573 C 0.98787 0.79823 0.01429 0.0
C574 C 0.00487 0.83624 0.02788 0.0
H575 H 0.97611 0.76968 0.97896 0.0
H576 H 0.97038 0.76745 0.02318 0.0
S577 S 0.06829 0.94703 0.00413 0.0
N578 N 0.0539 0.91632 0.97992 0.0
N579 N 0.04771 0.91397 0.0272 0.0
C580 C 0.02777 0.87554 0.01567 0.0
C581 C 0.03115 0.87681 0.99007 0.0
C582 C 0.86025 0.53712 0.32359 0.0
C583 C 0.84265 0.49965 0.3095 0.0
C584 C 0.86264 0.53504 0.34891 0.0
C585 C 0.84758 0.49545 0.36068 0.0
H586 H 0.87001 0.56775 0.31517 0.0
H587 H 0.87405 0.56411 0.35936 0.0
S588 S 0.80693 0.38961 0.33141 0.0
N589 N 0.81586 0.42298 0.30888 0.0
N590 N 0.82041 0.41914 0.35608 0.0
C591 C 0.83317 0.45846 0.34654 0.0
C592 C 0.83068 0.46054 0.32102 0.0
C593 C 0.51087 0.30605 0.32268 0.0
C594 C 0.48505 0.31738 0.30917 0.0
C595 C 0.51312 0.30953 0.34775 0.0
C596 C 0.48962 0.32449 0.36063 0.0
H597 H 0.53032 0.29495 0.31383 0.0
H598 H 0.5341 0.30082 0.35704 0.0
S599 S 0.41505 0.35613 0.33411 0.0
N600 N 0.43376 0.34245 0.31058 0.0
N601 N 0.43791 0.34891 0.35811 0.0
C602 C 0.46226 0.33445 0.34756 0.0
C603 C 0.45998 0.33091 0.32175 0.0
C604 C 0.65703 0.19583 0.34597 0.0
C605 C 0.6586 0.16325 0.35909 0.0
C606 C 0.66046 0.19806 0.32089 0.0
C607 C 0.66563 0.16782 0.3075 0.0
H608 H 0.65322 0.22026 0.35511 0.0
H609 H 0.65902 0.22404 0.31198 0.0
S610 S 0.67142 0.07561 0.3329 0.0
N611 N 0.66546 0.09958 0.35677 0.0
N612 N 0.67185 0.10374 0.30926 0.0
C613 C 0.66698 0.1347 0.32024 0.0
C614 C 0.66347 0.13241 0.34606 0.0
C615 C 0.52665 0.86388 0.65482 0.0
C616 C 0.50645 0.82598 0.64109 0.0
C617 C 0.52861 0.86235 0.68018 0.0
C618 C 0.51052 0.82289 0.69244 0.0
H619 H 0.53915 0.89468 0.64605 0.0
H620 H 0.54244 0.89203 0.69026 0.0
S621 S 0.46148 0.71517 0.66437 0.0
N622 N 0.47334 0.7484 0.64143 0.0
N623 N 0.4771 0.74558 0.6887 0.0
C624 C 0.49308 0.78512 0.67871 0.0
C625 C 0.49102 0.78665 0.65312 0.0
C626 C 0.1296 0.67242 0.65245 0.0
C627 C 0.14179 0.6456 0.64066 0.0
C628 C 0.13146 0.67606 0.67783 0.0
C629 C 0.1456 0.65299 0.69186 0.0
H630 H 0.12127 0.69261 0.64202 0.0
H631 H 0.1244 0.69886 0.68632 0.0
S632 S 0.17254 0.57228 0.66972 0.0
N633 N 0.16223 0.59119 0.64507 0.0
N634 N 0.16575 0.59799 0.69237 0.0
C635 C 0.15434 0.62358 0.68027 0.0
C636 C 0.15241 0.61989 0.65473 0.0
C637 C 0.34942 0.53805 0.65646 0.0
C638 C 0.34149 0.50178 0.64297 0.0
C639 C 0.34581 0.53657 0.68154 0.0
C640 C 0.3341 0.49876 0.69451 0.0
H641 H 0.35812 0.56808 0.64758 0.0
H642 H 0.35203 0.56559 0.69078 0.0
S643 S 0.31133 0.39495 0.66807 0.0
N644 N 0.32255 0.42694 0.64452 0.0
N645 N 0.31583 0.42418 0.69203 0.0
C646 C 0.32713 0.46235 0.68144 0.0
C647 C 0.33081 0.46385 0.65562 0.0
loop_
_geom_bond_atom_site_label_1
_geom_bond_atom_site_label_2
_geom_bond_distance
_geom_bond_site_symmetry_2
_ccdc_geom_bond_type
O0 Cd1 2.223 . S
O0 C8 1.315 . S
Cd1 O0 2.223 . S
Cd1 O4 2.297 . S
Cd1 O5 2.439 . S
Cd1 O11 2.240 . S
Cd2 O3 2.240 . S
Cd2 O10 2.223 . S
Cd2 O12 2.297 . S
Cd2 O13 2.439 . S
O3 Cd2 2.240 . S
O3 C8 1.279 . S
O4 Cd1 2.297 . S
O4 C6 1.247 . S
O5 Cd1 2.439 . S
O5 C6 1.208 . S
C6 O4 1.247 . S
C6 O5 1.208 . S
C7 O12 1.247 . S
C7 O13 1.208 . S
C8 O0 1.315 . S
C8 O3 1.279 . S
C9 O10 1.315 . S
C9 O11 1.279 . S
O10 Cd2 2.223 . S
O10 C9 1.315 . S
O11 Cd1 2.240 . S
O11 C9 1.279 . S
O12 Cd2 2.297 . S
O12 C7 1.247 . S
O13 Cd2 2.439 . S
O13 C7 1.208 . S
O14 Cd15 2.223 1_545 S
O14 C22 1.315 . S
Cd15 O14 2.223 1_565 S
Cd15 O18 2.297 1_565 S
Cd15 O19 2.439 1_565 S
Cd15 O25 2.240 . S
Cd16 O17 2.240 . S
Cd16 O24 2.223 1_545 S
Cd16 O26 2.297 1_545 S
Cd16 O27 2.439 1_545 S
O17 Cd16 2.240 . S
O17 C22 1.279 . S
O18 Cd15 2.297 1_545 S
O18 C20 1.247 . S
O19 Cd15 2.439 1_545 S
O19 C20 1.208 . S
C20 O18 1.247 . S
C20 O19 1.208 . S
C21 O26 1.247 . S
C21 O27 1.208 . S
C22 O14 1.315 . S
C22 O17 1.279 . S
C23 O24 1.315 . S
C23 O25 1.279 . S
O24 Cd16 2.223 1_565 S
O24 C23 1.315 . S
O25 Cd15 2.240 . S
O25 C23 1.279 . S
O26 Cd16 2.297 1_565 S
O26 C21 1.247 . S
O27 Cd16 2.439 1_565 S
O27 C21 1.208 . S
O28 Cd29 2.223 1_655 S
O28 C36 1.315 . S
Cd29 O28 2.223 1_455 S
Cd29 O32 2.297 1_455 S
Cd29 O33 2.439 1_455 S
Cd29 O39 2.240 . S
Cd30 O31 2.240 . S
Cd30 O38 2.223 1_655 S
Cd30 O40 2.297 1_655 S
Cd30 O41 2.439 1_655 S
O31 Cd30 2.240 . S
O31 C36 1.279 . S
O32 Cd29 2.297 1_655 S
O32 C34 1.247 . S
O33 Cd29 2.439 1_655 S
O33 C34 1.208 . S
C34 O32 1.247 . S
C34 O33 1.208 . S
C35 O40 1.247 . S
C35 O41 1.208 . S
C36 O28 1.315 . S
C36 O31 1.279 . S
C37 O38 1.315 . S
C37 O39 1.279 . S
O38 Cd30 2.223 1_455 S
O38 C37 1.315 . S
O39 Cd29 2.240 . S
O39 C37 1.279 . S
O40 Cd30 2.297 1_455 S
O40 C35 1.247 . S
O41 Cd30 2.439 1_455 S
O41 C35 1.208 . S
O42 Cd43 2.223 . S
O42 C50 1.315 . S
Cd43 O42 2.223 . S
Cd43 O46 2.297 . S
Cd43 O47 2.439 . S
Cd43 O53 2.240 . S
Cd44 O45 2.240 . S
Cd44 O52 2.223 . S
Cd44 O54 2.297 . S
Cd44 O55 2.439 . S
O45 Cd44 2.240 . S
O45 C50 1.279 . S
O46 Cd43 2.297 . S
O46 C48 1.247 . S
O47 Cd43 2.439 . S
O47 C48 1.208 . S
C48 O46 1.247 . S
C48 O47 1.208 . S
C49 O54 1.247 . S
C49 O55 1.208 . S
C50 O42 1.315 . S
C50 O45 1.279 . S
C51 O52 1.315 . S
C51 O53 1.279 . S
O52 Cd44 2.223 . S
O52 C51 1.315 . S
O53 Cd43 2.240 . S
O53 C51 1.279 . S
O54 Cd44 2.297 . S
O54 C49 1.247 . S
O55 Cd44 2.439 . S
O55 C49 1.208 . S
O56 Cd57 2.223 1_565 S
O56 C64 1.315 . S
Cd57 O56 2.223 1_545 S
Cd57 O60 2.297 1_545 S
Cd57 O61 2.439 1_545 S
Cd57 O67 2.240 . S
Cd58 O59 2.240 . S
Cd58 O66 2.223 1_565 S
Cd58 O68 2.297 1_565 S
Cd58 O69 2.439 1_565 S
O59 Cd58 2.240 . S
O59 C64 1.279 . S
O60 Cd57 2.297 1_565 S
O60 C62 1.247 . S
O61 Cd57 2.439 1_565 S
O61 C62 1.208 . S
C62 O60 1.247 . S
C62 O61 1.208 . S
C63 O68 1.247 . S
C63 O69 1.208 . S
C64 O56 1.315 . S
C64 O59 1.279 . S
C65 O66 1.315 . S
C65 O67 1.279 . S
O66 Cd58 2.223 1_545 S
O66 C65 1.315 . S
O67 Cd57 2.240 . S
O67 C65 1.279 . S
O68 Cd58 2.297 1_545 S
O68 C63 1.247 . S
O69 Cd58 2.439 1_545 S
O69 C63 1.208 . S
O70 Cd71 2.223 1_455 S
O70 C78 1.315 . S
Cd71 O70 2.223 1_655 S
Cd71 O74 2.297 1_655 S
Cd71 O75 2.439 1_655 S
Cd71 O81 2.240 . S
Cd72 O73 2.240 . S
Cd72 O80 2.223 1_455 S
Cd72 O82 2.297 1_455 S
Cd72 O83 2.439 1_455 S
O73 Cd72 2.240 . S
O73 C78 1.279 . S
O74 Cd71 2.297 1_455 S
O74 C76 1.247 . S
O75 Cd71 2.439 1_455 S
O75 C76 1.208 . S
C76 O74 1.247 . S
C76 O75 1.208 . S
C77 O82 1.247 . S
C77 O83 1.208 . S
C78 O70 1.315 . S
C78 O73 1.279 . S
C79 O80 1.315 . S
C79 O81 1.279 . S
O80 Cd72 2.223 1_655 S
O80 C79 1.315 . S
O81 Cd71 2.240 . S
O81 C79 1.279 . S
O82 Cd72 2.297 1_655 S
O82 C77 1.247 . S
O83 Cd72 2.439 1_655 S
O83 C77 1.208 . S
O84 Cd85 2.223 . S
O84 C92 1.315 . S
Cd85 O84 2.223 . S
Cd85 O88 2.297 . S
Cd85 O89 2.439 . S
Cd85 O95 2.240 . S
Cd86 O87 2.240 . S
Cd86 O94 2.223 . S
Cd86 O96 2.297 . S
Cd86 O97 2.439 . S
O87 Cd86 2.240 . S
O87 C92 1.279 . S
O88 Cd85 2.297 . S
O88 C90 1.247 . S
O89 Cd85 2.439 . S
O89 C90 1.208 . S
C90 O88 1.247 . S
C90 O89 1.208 . S
C91 O96 1.247 . S
C91 O97 1.208 . S
C92 O84 1.315 . S
C92 O87 1.279 . S
C93 O94 1.315 . S
C93 O95 1.279 . S
O94 Cd86 2.223 . S
O94 C93 1.315 . S
O95 Cd85 2.240 . S
O95 C93 1.279 . S
O96 Cd86 2.297 . S
O96 C91 1.247 . S
O97 Cd86 2.439 . S
O97 C91 1.208 . S
O98 Cd99 2.223 . S
O98 C106 1.315 . S
Cd99 O98 2.223 . S
Cd99 O102 2.297 . S
Cd99 O103 2.439 . S
Cd99 O109 2.240 . S
Cd100 O101 2.240 . S
Cd100 O108 2.223 . S
Cd100 O110 2.297 . S
Cd100 O111 2.439 . S
O101 Cd100 2.240 . S
O101 C106 1.279 . S
O102 Cd99 2.297 . S
O102 C104 1.247 . S
O103 Cd99 2.439 . S
O103 C104 1.208 . S
C104 O102 1.247 . S
C104 O103 1.208 . S
C105 O110 1.247 . S
C105 O111 1.208 . S
C106 O98 1.315 . S
C106 O101 1.279 . S
C107 O108 1.315 . S
C107 O109 1.279 . S
O108 Cd100 2.223 . S
O108 C107 1.315 . S
O109 Cd99 2.240 . S
O109 C107 1.279 . S
O110 Cd100 2.297 . S
O110 C105 1.247 . S
O111 Cd100 2.439 . S
O111 C105 1.208 . S
O112 Cd113 2.223 . S
O112 C120 1.315 . S
Cd113 O112 2.223 . S
Cd113 O116 2.297 . S
Cd113 O117 2.439 . S
Cd113 O123 2.240 . S
Cd114 O115 2.240 . S
Cd114 O122 2.223 . S
Cd114 O124 2.297 . S
Cd114 O125 2.439 . S
O115 Cd114 2.240 . S
O115 C120 1.279 . S
O116 Cd113 2.297 . S
O116 C118 1.247 . S
O117 Cd113 2.439 . S
O117 C118 1.208 . S
C118 O116 1.247 . S
C118 O117 1.208 . S
C119 O124 1.247 . S
C119 O125 1.208 . S
C120 O112 1.315 . S
C120 O115 1.279 . S
C121 O122 1.315 . S
C121 O123 1.279 . S
O122 Cd114 2.223 . S
O122 C121 1.315 . S
O123 Cd113 2.240 . S
O123 C121 1.279 . S
O124 Cd114 2.297 . S
O124 C119 1.247 . S
O125 Cd114 2.439 . S
O125 C119 1.208 . S
O126 Cd127 2.223 . S
O126 C134 1.315 . S
Cd127 O126 2.223 . S
Cd127 O130 2.297 . S
Cd127 O131 2.439 . S
Cd127 O137 2.240 . S
Cd128 O129 2.240 . S
Cd128 O136 2.223 . S
Cd128 O138 2.297 . S
Cd128 O139 2.439 . S
O129 Cd128 2.240 . S
O129 C134 1.279 . S
O130 Cd127 2.297 . S
O130 C132 1.247 . S
O131 Cd127 2.439 . S
O131 C132 1.208 . S
C132 O130 1.247 . S
C132 O131 1.208 . S
C133 O138 1.247 . S
C133 O139 1.208 . S
C134 O126 1.315 . S
C134 O129 1.279 . S
C135 O136 1.315 . S
C135 O137 1.279 . S
O136 Cd128 2.223 . S
O136 C135 1.315 . S
O137 Cd127 2.240 . S
O137 C135 1.279 . S
O138 Cd128 2.297 . S
O138 C133 1.247 . S
O139 Cd128 2.439 . S
O139 C133 1.208 . S
O140 Cd141 2.223 . S
O140 C148 1.315 . S
Cd141 O140 2.223 . S
Cd141 O144 2.297 . S
Cd141 O145 2.439 . S
Cd141 O151 2.240 . S
Cd142 O143 2.240 . S
Cd142 O150 2.223 . S
Cd142 O152 2.297 . S
Cd142 O153 2.439 . S
O143 Cd142 2.240 . S
O143 C148 1.279 . S
O144 Cd141 2.297 . S
O144 C146 1.247 . S
O145 Cd141 2.439 . S
O145 C146 1.208 . S
C146 O144 1.247 . S
C146 O145 1.208 . S
C147 O152 1.247 . S
C147 O153 1.208 . S
C148 O140 1.315 . S
C148 O143 1.279 . S
C149 O150 1.315 . S
C149 O151 1.279 . S
O150 Cd142 2.223 . S
O150 C149 1.315 . S
O151 Cd141 2.240 . S
O151 C149 1.279 . S
O152 Cd142 2.297 . S
O152 C147 1.247 . S
O153 Cd142 2.439 . S
O153 C147 1.208 . S
O154 Cd155 2.223 . S
O154 C162 1.315 . S
Cd155 O154 2.223 . S
Cd155 O158 2.297 . S
Cd155 O159 2.439 . S
Cd155 O165 2.240 . S
Cd156 O157 2.240 . S
Cd156 O164 2.223 . S
Cd156 O166 2.297 . S
Cd156 O167 2.439 . S
O157 Cd156 2.240 . S
O157 C162 1.279 . S
O158 Cd155 2.297 . S
O158 C160 1.247 . S
O159 Cd155 2.439 . S
O159 C160 1.208 . S
C160 O158 1.247 . S
C160 O159 1.208 . S
C161 O166 1.247 . S
C161 O167 1.208 . S
C162 O154 1.315 . S
C162 O157 1.279 . S
C163 O164 1.315 . S
C163 O165 1.279 . S
O164 Cd156 2.223 . S
O164 C163 1.315 . S
O165 Cd155 2.240 . S
O165 C163 1.279 . S
O166 Cd156 2.297 . S
O166 C161 1.247 . S
O167 Cd156 2.439 . S
O167 C161 1.208 . S
O168 Cd169 2.223 . S
O168 C176 1.315 . S
Cd169 O168 2.223 . S
Cd169 O172 2.297 . S
Cd169 O173 2.439 . S
Cd169 O179 2.240 . S
Cd170 O171 2.240 . S
Cd170 O178 2.223 . S
Cd170 O180 2.297 . S
Cd170 O181 2.439 . S
O171 Cd170 2.240 . S
O171 C176 1.279 . S
O172 Cd169 2.297 . S
O172 C174 1.247 . S
O173 Cd169 2.439 . S
O173 C174 1.208 . S
C174 O172 1.247 . S
C174 O173 1.208 . S
C175 O180 1.247 . S
C175 O181 1.208 . S
C176 O168 1.315 . S
C176 O171 1.279 . S
C177 O178 1.315 . S
C177 O179 1.279 . S
O178 Cd170 2.223 . S
O178 C177 1.315 . S
O179 Cd169 2.240 . S
O179 C177 1.279 . S
O180 Cd170 2.297 . S
O180 C175 1.247 . S
O181 Cd170 2.439 . S
O181 C175 1.208 . S
O182 Cd183 2.223 . S
O182 C190 1.315 . S
Cd183 O182 2.223 . S
Cd183 O186 2.297 . S
Cd183 O187 2.439 . S
Cd183 O193 2.240 . S
Cd184 O185 2.240 . S
Cd184 O192 2.223 . S
Cd184 O194 2.297 . S
Cd184 O195 2.439 . S
O185 Cd184 2.240 . S
O185 C190 1.279 . S
O186 Cd183 2.297 . S
O186 C188 1.247 . S
O187 Cd183 2.439 . S
O187 C188 1.208 . S
C188 O186 1.247 . S
C188 O187 1.208 . S
C189 O194 1.247 . S
C189 O195 1.208 . S
C190 O182 1.315 . S
C190 O185 1.279 . S
C191 O192 1.315 . S
C191 O193 1.279 . S
O192 Cd184 2.223 . S
O192 C191 1.315 . S
O193 Cd183 2.240 . S
O193 C191 1.279 . S
O194 Cd184 2.297 . S
O194 C189 1.247 . S
O195 Cd184 2.439 . S
O195 C189 1.208 . S
O196 Cd197 2.223 . S
O196 C204 1.315 . S
Cd197 O196 2.223 . S
Cd197 O200 2.297 . S
Cd197 O201 2.439 . S
Cd197 O207 2.240 . S
Cd198 O199 2.240 . S
Cd198 O206 2.223 . S
Cd198 O208 2.297 . S
Cd198 O209 2.439 . S
O199 Cd198 2.240 . S
O199 C204 1.279 . S
O200 Cd197 2.297 . S
O200 C202 1.247 . S
O201 Cd197 2.439 . S
O201 C202 1.208 . S
C202 O200 1.247 . S
C202 O201 1.208 . S
C203 O208 1.247 . S
C203 O209 1.208 . S
C204 O196 1.315 . S
C204 O199 1.279 . S
C205 O206 1.315 . S
C205 O207 1.279 . S
O206 Cd198 2.223 . S
O206 C205 1.315 . S
O207 Cd197 2.240 . S
O207 C205 1.279 . S
O208 Cd198 2.297 . S
O208 C203 1.247 . S
O209 Cd198 2.439 . S
O209 C203 1.208 . S
O210 Cd211 2.223 . S
O210 C218 1.315 . S
Cd211 O210 2.223 . S
Cd211 O214 2.297 . S
Cd211 O215 2.439 . S
Cd211 O221 2.240 . S
Cd212 O213 2.240 . S
Cd212 O220 2.223 . S
Cd212 O222 2.297 . S
Cd212 O223 2.439 . S
O213 Cd212 2.240 . S
O213 C218 1.279 . S
O214 Cd211 2.297 . S
O214 C216 1.247 . S
O215 Cd211 2.439 . S
O215 C216 1.208 . S
C216 O214 1.247 . S
C216 O215 1.208 . S
C217 O222 1.247 . S
C217 O223 1.208 . S
C218 O210 1.315 . S
C218 O213 1.279 . S
C219 O220 1.315 . S
C219 O221 1.279 . S
O220 Cd212 2.223 . S
O220 C219 1.315 . S
O221 Cd211 2.240 . S
O221 C219 1.279 . S
O222 Cd212 2.297 . S
O222 C217 1.247 . S
O223 Cd212 2.439 . S
O223 C217 1.208 . S
O224 Cd225 2.223 . S
O224 C232 1.315 . S
Cd225 O224 2.223 . S
Cd225 O228 2.297 . S
Cd225 O229 2.439 . S
Cd225 O235 2.240 . S
Cd226 O227 2.240 . S
Cd226 O234 2.223 . S
Cd226 O236 2.297 . S
Cd226 O237 2.439 . S
O227 Cd226 2.240 . S
O227 C232 1.279 . S
O228 Cd225 2.297 . S
O228 C230 1.247 . S
O229 Cd225 2.439 . S
O229 C230 1.208 . S
C230 O228 1.247 . S
C230 O229 1.208 . S
C231 O236 1.247 . S
C231 O237 1.208 . S
C232 O224 1.315 . S
C232 O227 1.279 . S
C233 O234 1.315 . S
C233 O235 1.279 . S
O234 Cd226 2.223 . S
O234 C233 1.315 . S
O235 Cd225 2.240 . S
O235 C233 1.279 . S
O236 Cd226 2.297 . S
O236 C231 1.247 . S
O237 Cd226 2.439 . S
O237 C231 1.208 . S
O238 Cd239 2.223 . S
O238 C246 1.315 . S
Cd239 O238 2.223 . S
Cd239 O242 2.297 . S
Cd239 O243 2.439 . S
Cd239 O249 2.240 . S
Cd240 O241 2.240 . S
Cd240 O248 2.223 . S
Cd240 O250 2.297 . S
Cd240 O251 2.439 . S
O241 Cd240 2.240 . S
O241 C246 1.279 . S
O242 Cd239 2.297 . S
O242 C244 1.247 . S
O243 Cd239 2.439 . S
O243 C244 1.208 . S
C244 O242 1.247 . S
C244 O243 1.208 . S
C245 O250 1.247 . S
C245 O251 1.208 . S
C246 O238 1.315 . S
C246 O241 1.279 . S
C247 O248 1.315 . S
C247 O249 1.279 . S
O248 Cd240 2.223 . S
O248 C247 1.315 . S
O249 Cd239 2.240 . S
O249 C247 1.279 . S
O250 Cd240 2.297 . S
O250 C245 1.247 . S
O251 Cd240 2.439 . S
O251 C245 1.208 . S
C252 C253 1.369 . S
C252 C254 1.419 . S
C252 H256 0.930 . S
C253 C252 1.369 . S
C253 C262 1.429 . S
C254 C252 1.419 . S
C254 C255 1.363 . S
C254 H257 0.929 . S
C255 C254 1.363 . S
C255 C261 1.428 . S
H256 C252 0.930 . S
H257 C254 0.929 . S
S258 N259 1.613 . S
S258 N260 1.610 . S
N259 S258 1.613 . S
N259 C262 1.350 . S
N260 S258 1.610 . S
N260 C261 1.351 . S
C261 C255 1.428 . S
C261 N260 1.351 . S
C261 C262 1.434 . S
C262 C253 1.429 . S
C262 N259 1.350 . S
C262 C261 1.434 . S
C263 C264 1.369 . S
C263 C265 1.419 . S
C263 H267 0.930 . S
C264 C263 1.369 . S
C264 C273 1.429 . S
C265 C263 1.419 . S
C265 C266 1.363 . S
C265 H268 0.929 . S
C266 C265 1.363 . S
C266 C272 1.428 . S
H267 C263 0.930 . S
H268 C265 0.929 . S
S269 N270 1.613 . S
S269 N271 1.610 . S
N270 S269 1.613 . S
N270 C273 1.350 . S
N271 S269 1.610 . S
N271 C272 1.351 . S
C272 C266 1.428 . S
C272 N271 1.351 . S
C272 C273 1.434 . S
C273 C264 1.429 . S
C273 N270 1.350 . S
C273 C272 1.434 . S
C274 C275 1.369 . S
C274 C276 1.419 . S
C274 H278 0.930 . S
C275 C274 1.369 . S
C275 C284 1.429 . S
C276 C274 1.419 . S
C276 C277 1.363 . S
C276 H279 0.929 . S
C277 C276 1.363 . S
C277 C283 1.428 . S
H278 C274 0.930 . S
H279 C276 0.929 . S
S280 N281 1.613 . S
S280 N282 1.610 . S
N281 S280 1.613 . S
N281 C284 1.350 . S
N282 S280 1.610 . S
N282 C283 1.351 . S
C283 C277 1.428 . S
C283 N282 1.351 . S
C283 C284 1.434 . S
C284 C275 1.429 . S
C284 N281 1.350 . S
C284 C283 1.434 . S
C285 C286 1.369 . S
C285 C287 1.419 . S
C285 H289 0.930 . S
C286 C285 1.369 . S
C286 C295 1.429 . S
C287 C285 1.419 . S
C287 C288 1.363 . S
C287 H290 0.929 . S
C288 C287 1.363 . S
C288 C294 1.428 . S
H289 C285 0.930 . S
H290 C287 0.929 . S
S291 N292 1.613 . S
S291 N293 1.610 . S
N292 S291 1.613 . S
N292 C295 1.350 . S
N293 S291 1.610 . S
N293 C294 1.351 . S
C294 C288 1.428 . S
C294 N293 1.351 . S
C294 C295 1.434 . S
C295 C286 1.429 . S
C295 N292 1.350 . S
C295 C294 1.434 . S
C296 C297 1.369 . S
C296 C298 1.419 . S
C296 H300 0.930 . S
C297 C296 1.369 . S
C297 C306 1.429 . S
C298 C296 1.419 . S
C298 C299 1.363 . S
C298 H301 0.929 . S
C299 C298 1.363 . S
C299 C305 1.428 . S
H300 C296 0.930 . S
H301 C298 0.929 . S
S302 N303 1.613 . S
S302 N304 1.610 1_545 S
N303 S302 1.613 . S
N303 C306 1.350 1_545 S
N304 S302 1.610 1_565 S
N304 C305 1.351 . S
C305 C299 1.428 . S
C305 N304 1.351 . S
C305 C306 1.434 . S
C306 C297 1.429 . S
C306 N303 1.350 1_565 S
C306 C305 1.434 . S
C307 C308 1.369 . S
C307 C309 1.419 . S
C307 H311 0.930 . S
C308 C307 1.369 . S
C308 C317 1.429 . S
C309 C307 1.419 . S
C309 C310 1.363 . S
C309 H312 0.929 . S
C310 C309 1.363 . S
C310 C316 1.428 . S
H311 C307 0.930 . S
H312 C309 0.929 . S
S313 N314 1.613 . S
S313 N315 1.610 . S
N314 S313 1.613 . S
N314 C317 1.350 . S
N315 S313 1.610 . S
N315 C316 1.351 . S
C316 C310 1.428 . S
C316 N315 1.351 . S
C316 C317 1.434 . S
C317 C308 1.429 . S
C317 N314 1.350 . S
C317 C316 1.434 . S
C318 C319 1.369 . S
C318 C320 1.419 1_655 S
C318 H322 0.930 . S
C319 C318 1.369 . S
C319 C328 1.429 . S
C320 C318 1.419 1_455 S
C320 C321 1.363 . S
C320 H323 0.929 . S
C321 C320 1.363 . S
C321 C327 1.428 . S
H322 C318 0.930 . S
H323 C320 0.929 . S
S324 N325 1.613 1_455 S
S324 N326 1.610 . S
N325 S324 1.613 1_655 S
N325 C328 1.350 . S
N326 S324 1.610 . S
N326 C327 1.351 . S
C327 C321 1.428 . S
C327 N326 1.351 . S
C327 C328 1.434 1_455 S
C328 C319 1.429 . S
C328 N325 1.350 . S
C328 C327 1.434 1_655 S
C329 C330 1.369 . S
C329 C331 1.419 . S
C329 H333 0.930 . S
C330 C329 1.369 . S
C330 C339 1.429 . S
C331 C329 1.419 . S
C331 C332 1.363 . S
C331 H334 0.929 . S
C332 C331 1.363 . S
C332 C338 1.428 . S
H333 C329 0.930 . S
H334 C331 0.929 . S
S335 N336 1.613 . S
S335 N337 1.610 . S
N336 S335 1.613 . S
N336 C339 1.350 . S
N337 S335 1.610 . S
N337 C338 1.351 . S
C338 C332 1.428 . S
C338 N337 1.351 . S
C338 C339 1.434 . S
C339 C330 1.429 . S
C339 N336 1.350 . S
C339 C338 1.434 . S
C340 C341 1.369 . S
C340 C342 1.419 1_545 S
C340 H344 0.930 . S
C341 C340 1.369 . S
C341 C350 1.429 . S
C342 C340 1.419 1_565 S
C342 C343 1.363 . S
C342 H345 0.929 . S
C343 C342 1.363 . S
C343 C349 1.428 . S
H344 C340 0.930 . S
H345 C342 0.929 . S
S346 N347 1.613 1_565 S
S346 N348 1.610 . S
N347 S346 1.613 1_545 S
N347 C350 1.350 . S
N348 S346 1.610 . S
N348 C349 1.351 . S
C349 C343 1.428 . S
C349 N348 1.351 . S
C349 C350 1.434 1_565 S
C350 C341 1.429 . S
C350 N347 1.350 . S
C350 C349 1.434 1_545 S
C351 C352 1.369 . S
C351 C353 1.419 1_455 S
C351 H355 0.930 . S
C352 C351 1.369 . S
C352 C361 1.429 . S
C353 C351 1.419 1_655 S
C353 C354 1.363 . S
C353 H356 0.929 . S
C354 C353 1.363 . S
C354 C360 1.428 . S
H355 C351 0.930 . S
H356 C353 0.929 . S
S357 N358 1.613 1_655 S
S357 N359 1.610 . S
N358 S357 1.613 1_455 S
N358 C361 1.350 . S
N359 S357 1.610 . S
N359 C360 1.351 . S
C360 C354 1.428 . S
C360 N359 1.351 . S
C360 C361 1.434 1_655 S
C361 C352 1.429 . S
C361 N358 1.350 . S
C361 C360 1.434 1_455 S
C362 C363 1.369 . S
C362 C364 1.419 . S
C362 H366 0.930 . S
C363 C362 1.369 . S
C363 C372 1.429 . S
C364 C362 1.419 . S
C364 C365 1.363 . S
C364 H367 0.929 . S
C365 C364 1.363 . S
C365 C371 1.428 . S
H366 C362 0.930 . S
H367 C364 0.929 . S
S368 N369 1.613 . S
S368 N370 1.610 . S
N369 S368 1.613 . S
N369 C372 1.350 . S
N370 S368 1.610 . S
N370 C371 1.351 . S
C371 C365 1.428 . S
C371 N370 1.351 . S
C371 C372 1.434 . S
C372 C363 1.429 . S
C372 N369 1.350 . S
C372 C371 1.434 . S
C373 C374 1.369 . S
C373 C375 1.419 1_545 S
C373 H377 0.930 . S
C374 C373 1.369 . S
C374 C383 1.429 . S
C375 C373 1.419 1_565 S
C375 C376 1.363 . S
C375 H378 0.929 . S
C376 C375 1.363 . S
C376 C382 1.428 . S
H377 C373 0.930 . S
H378 C375 0.929 . S
S379 N380 1.613 . S
S379 N381 1.610 1_545 S
N380 S379 1.613 . S
N380 C383 1.350 . S
N381 S379 1.610 1_565 S
N381 C382 1.351 . S
C382 C376 1.428 . S
C382 N381 1.351 . S
C382 C383 1.434 1_565 S
C383 C374 1.429 . S
C383 N380 1.350 . S
C383 C382 1.434 1_545 S
C384 C385 1.369 . S
C384 C386 1.419 1_565 S
C384 H388 0.930 . S
C385 C384 1.369 . S
C385 C394 1.429 . S
C386 C384 1.419 1_545 S
C386 C387 1.363 . S
C386 H389 0.929 . S
C387 C386 1.363 . S
C387 C393 1.428 . S
H388 C384 0.930 . S
H389 C386 0.929 . S
S390 N391 1.613 . S
S390 N392 1.610 1_565 S
N391 S390 1.613 . S
N391 C394 1.350 . S
N392 S390 1.610 1_545 S
N392 C393 1.351 . S
C393 C387 1.428 . S
C393 N392 1.351 . S
C393 C394 1.434 1_545 S
C394 C385 1.429 . S
C394 N391 1.350 . S
C394 C393 1.434 1_565 S
C395 C396 1.369 . S
C395 C397 1.419 1_455 S
C395 H399 0.930 . S
C396 C395 1.369 . S
C396 C405 1.429 . S
C397 C395 1.419 1_655 S
C397 C398 1.363 . S
C397 H400 0.929 . S
C398 C397 1.363 . S
C398 C404 1.428 . S
H399 C395 0.930 . S
H400 C397 0.929 . S
S401 N402 1.613 1_655 S
S401 N403 1.610 . S
N402 S401 1.613 1_455 S
N402 C405 1.350 . S
N403 S401 1.610 . S
N403 C404 1.351 . S
C404 C398 1.428 . S
C404 N403 1.351 . S
C404 C405 1.434 1_655 S
C405 C396 1.429 . S
C405 N402 1.350 . S
C405 C404 1.434 1_455 S
C406 C407 1.369 . S
C406 C408 1.419 . S
C406 H410 0.930 . S
C407 C406 1.369 . S
C407 C416 1.429 . S
C408 C406 1.419 . S
C408 C409 1.363 . S
C408 H411 0.929 . S
C409 C408 1.363 . S
C409 C415 1.428 . S
H410 C406 0.930 . S
H411 C408 0.929 . S
S412 N413 1.613 . S
S412 N414 1.610 . S
N413 S412 1.613 . S
N413 C416 1.350 . S
N414 S412 1.610 . S
N414 C415 1.351 . S
C415 C409 1.428 . S
C415 N414 1.351 . S
C415 C416 1.434 . S
C416 C407 1.429 . S
C416 N413 1.350 . S
C416 C415 1.434 . S
C417 C418 1.369 . S
C417 C419 1.419 . S
C417 H421 0.930 . S
C418 C417 1.369 . S
C418 C427 1.429 . S
C419 C417 1.419 . S
C419 C420 1.363 . S
C419 H422 0.929 . S
C420 C419 1.363 . S
C420 C426 1.428 . S
H421 C417 0.930 . S
H422 C419 0.929 . S
S423 N424 1.613 . S
S423 N425 1.610 . S
N424 S423 1.613 . S
N424 C427 1.350 . S
N425 S423 1.610 . S
N425 C426 1.351 . S
C426 C420 1.428 . S
C426 N425 1.351 . S
C426 C427 1.434 . S
C427 C418 1.429 . S
C427 N424 1.350 . S
C427 C426 1.434 . S
C428 C429 1.369 . S
C428 C430 1.419 . S
C428 H432 0.930 . S
C429 C428 1.369 . S
C429 C438 1.429 . S
C430 C428 1.419 . S
C430 C431 1.363 . S
C430 H433 0.929 . S
C431 C430 1.363 . S
C431 C437 1.428 . S
H432 C428 0.930 . S
H433 C430 0.929 . S
S434 N435 1.613 . S
S434 N436 1.610 . S
N435 S434 1.613 . S
N435 C438 1.350 . S
N436 S434 1.610 . S
N436 C437 1.351 . S
C437 C431 1.428 . S
C437 N436 1.351 . S
C437 C438 1.434 . S
C438 C429 1.429 . S
C438 N435 1.350 . S
C438 C437 1.434 . S
C439 C440 1.369 . S
C439 C441 1.419 . S
C439 H443 0.930 . S
C440 C439 1.369 . S
C440 C449 1.429 . S
C441 C439 1.419 . S
C441 C442 1.363 . S
C441 H444 0.929 . S
C442 C441 1.363 . S
C442 C448 1.428 . S
H443 C439 0.930 . S
H444 C441 0.929 . S
S445 N446 1.613 . S
S445 N447 1.610 . S
N446 S445 1.613 . S
N446 C449 1.350 . S
N447 S445 1.610 . S
N447 C448 1.351 . S
C448 C442 1.428 . S
C448 N447 1.351 . S
C448 C449 1.434 . S
C449 C440 1.429 . S
C449 N446 1.350 . S
C449 C448 1.434 . S
C450 C451 1.369 . S
C450 C452 1.419 . S
C450 H454 0.930 . S
C451 C450 1.369 . S
C451 C460 1.429 . S
C452 C450 1.419 . S
C452 C453 1.363 . S
C452 H455 0.929 . S
C453 C452 1.363 . S
C453 C459 1.428 . S
H454 C450 0.930 . S
H455 C452 0.929 . S
S456 N457 1.613 . S
S456 N458 1.610 . S
N457 S456 1.613 . S
N457 C460 1.350 . S
N458 S456 1.610 . S
N458 C459 1.351 . S
C459 C453 1.428 . S
C459 N458 1.351 . S
C459 C460 1.434 . S
C460 C451 1.429 . S
C460 N457 1.350 . S
C460 C459 1.434 . S
C461 C462 1.369 . S
C461 C463 1.419 . S
C461 H465 0.930 . S
C462 C461 1.369 . S
C462 C471 1.429 . S
C463 C461 1.419 . S
C463 C464 1.363 . S
C463 H466 0.929 . S
C464 C463 1.363 . S
C464 C470 1.428 . S
H465 C461 0.930 . S
H466 C463 0.929 . S
S467 N468 1.613 . S
S467 N469 1.610 . S
N468 S467 1.613 . S
N468 C471 1.350 . S
N469 S467 1.610 . S
N469 C470 1.351 . S
C470 C464 1.428 . S
C470 N469 1.351 . S
C470 C471 1.434 . S
C471 C462 1.429 . S
C471 N468 1.350 . S
C471 C470 1.434 . S
C472 C473 1.369 . S
C472 C474 1.419 . S
C472 H476 0.930 . S
C473 C472 1.369 . S
C473 C482 1.429 . S
C474 C472 1.419 . S
C474 C475 1.363 . S
C474 H477 0.929 . S
C475 C474 1.363 . S
C475 C481 1.428 . S
H476 C472 0.930 . S
H477 C474 0.929 . S
S478 N479 1.613 . S
S478 N480 1.610 . S
N479 S478 1.613 . S
N479 C482 1.350 . S
N480 S478 1.610 . S
N480 C481 1.351 . S
C481 C475 1.428 . S
C481 N480 1.351 . S
C481 C482 1.434 . S
C482 C473 1.429 . S
C482 N479 1.350 . S
C482 C481 1.434 . S
C483 C484 1.369 . S
C483 C485 1.419 . S
C483 H487 0.930 . S
C484 C483 1.369 . S
C484 C493 1.429 . S
C485 C483 1.419 . S
C485 C486 1.363 . S
C485 H488 0.929 . S
C486 C485 1.363 . S
C486 C492 1.428 . S
H487 C483 0.930 . S
H488 C485 0.929 . S
S489 N490 1.613 . S
S489 N491 1.610 . S
N490 S489 1.613 . S
N490 C493 1.350 . S
N491 S489 1.610 . S
N491 C492 1.351 . S
C492 C486 1.428 . S
C492 N491 1.351 . S
C492 C493 1.434 . S
C493 C484 1.429 . S
C493 N490 1.350 . S
C493 C492 1.434 . S
C494 C495 1.369 . S
C494 C496 1.419 . S
C494 H498 0.930 . S
C495 C494 1.369 . S
C495 C504 1.429 . S
C496 C494 1.419 . S
C496 C497 1.363 . S
C496 H499 0.929 . S
C497 C496 1.363 . S
C497 C503 1.428 . S
H498 C494 0.930 . S
H499 C496 0.929 . S
S500 N501 1.613 . S
S500 N502 1.610 . S
N501 S500 1.613 . S
N501 C504 1.350 . S
N502 S500 1.610 . S
N502 C503 1.351 . S
C503 C497 1.428 . S
C503 N502 1.351 . S
C503 C504 1.434 . S
C504 C495 1.429 . S
C504 N501 1.350 . S
C504 C503 1.434 . S
C505 C506 1.369 . S
C505 C507 1.419 . S
C505 H509 0.930 . S
C506 C505 1.369 . S
C506 C515 1.429 . S
C507 C505 1.419 . S
C507 C508 1.363 . S
C507 H510 0.929 . S
C508 C507 1.363 . S
C508 C514 1.428 . S
H509 C505 0.930 . S
H510 C507 0.929 . S
S511 N512 1.613 . S
S511 N513 1.610 . S
N512 S511 1.613 . S
N512 C515 1.350 . S
N513 S511 1.610 . S
N513 C514 1.351 . S
C514 C508 1.428 . S
C514 N513 1.351 . S
C514 C515 1.434 . S
C515 C506 1.429 . S
C515 N512 1.350 . S
C515 C514 1.434 . S
C516 C517 1.369 . S
C516 C518 1.419 . S
C516 H520 0.930 . S
C517 C516 1.369 . S
C517 C526 1.429 . S
C518 C516 1.419 . S
C518 C519 1.363 . S
C518 H521 0.929 . S
C519 C518 1.363 . S
C519 C525 1.428 . S
H520 C516 0.930 . S
H521 C518 0.929 . S
S522 N523 1.613 . S
S522 N524 1.610 . S
N523 S522 1.613 . S
N523 C526 1.350 . S
N524 S522 1.610 . S
N524 C525 1.351 . S
C525 C519 1.428 . S
C525 N524 1.351 . S
C525 C526 1.434 . S
C526 C517 1.429 . S
C526 N523 1.350 . S
C526 C525 1.434 . S
C527 C528 1.369 . S
C527 C529 1.419 . S
C527 H531 0.930 . S
C528 C527 1.369 . S
C528 C537 1.429 . S
C529 C527 1.419 . S
C529 C530 1.363 . S
C529 H532 0.929 . S
C530 C529 1.363 . S
C530 C536 1.428 . S
H531 C527 0.930 . S
H532 C529 0.929 . S
S533 N534 1.613 . S
S533 N535 1.610 . S
N534 S533 1.613 . S
N534 C537 1.350 . S
N535 S533 1.610 . S
N535 C536 1.351 . S
C536 C530 1.428 . S
C536 N535 1.351 . S
C536 C537 1.434 . S
C537 C528 1.429 . S
C537 N534 1.350 . S
C537 C536 1.434 . S
C538 C539 1.369 . S
C538 C540 1.419 . S
C538 H542 0.930 . S
C539 C538 1.369 . S
C539 C548 1.429 . S
C540 C538 1.419 . S
C540 C541 1.363 . S
C540 H543 0.929 . S
C541 C540 1.363 . S
C541 C547 1.428 . S
H542 C538 0.930 . S
H543 C540 0.929 . S
S544 N545 1.613 . S
S544 N546 1.610 . S
N545 S544 1.613 . S
N545 C548 1.350 . S
N546 S544 1.610 . S
N546 C547 1.351 . S
C547 C541 1.428 . S
C547 N546 1.351 . S
C547 C548 1.434 . S
C548 C539 1.429 . S
C548 N545 1.350 . S
C548 C547 1.434 . S
C549 C550 1.369 . S
C549 C551 1.419 1_554 S
C549 H553 0.930 . S
C550 C549 1.369 . S
C550 C559 1.429 . S
C551 C549 1.419 1_556 S
C551 C552 1.363 . S
C551 H554 0.929 . S
C552 C551 1.363 . S
C552 C558 1.428 . S
H553 C549 0.930 . S
H554 C551 0.929 . S
S555 N556 1.613 1_556 S
S555 N557 1.610 . S
N556 S555 1.613 1_554 S
N556 C559 1.350 . S
N557 S555 1.610 . S
N557 C558 1.351 . S
C558 C552 1.428 . S
C558 N557 1.351 . S
C558 C559 1.434 1_556 S
C559 C550 1.429 . S
C559 N556 1.350 . S
C559 C558 1.434 1_554 S
C560 C561 1.369 1_565 S
C560 C562 1.419 1_556 S
C560 H564 0.930 . S
C561 C560 1.369 1_545 S
C561 C570 1.429 . S
C562 C560 1.419 1_554 S
C562 C563 1.363 . S
C562 H565 0.929 . S
C563 C562 1.363 . S
C563 C569 1.428 1_565 S
H564 C560 0.930 . S
H565 C562 0.929 . S
S566 N567 1.613 1_554 S
S566 N568 1.610 . S
N567 S566 1.613 1_556 S
N567 C570 1.350 . S
N568 S566 1.610 . S
N568 C569 1.351 . S
C569 C563 1.428 1_545 S
C569 N568 1.351 . S
C569 C570 1.434 1_554 S
C570 C561 1.429 . S
C570 N567 1.350 . S
C570 C569 1.434 1_556 S
C571 C572 1.369 . S
C571 C573 1.419 1_556 S
C571 H575 0.930 . S
C572 C571 1.369 . S
C572 C581 1.429 1_655 S
C573 C571 1.419 1_554 S
C573 C574 1.363 1_655 S
C573 H576 0.929 . S
C574 C573 1.363 1_455 S
C574 C580 1.428 . S
H575 C571 0.930 . S
H576 C573 0.929 . S
S577 N578 1.613 . S
S577 N579 1.610 1_556 S
N578 S577 1.613 . S
N578 C581 1.350 . S
N579 S577 1.610 1_554 S
N579 C580 1.351 . S
C580 C574 1.428 . S
C580 N579 1.351 . S
C580 C581 1.434 1_554 S
C581 C572 1.429 1_455 S
C581 N578 1.350 . S
C581 C580 1.434 1_556 S
C582 C583 1.369 . S
C582 C584 1.419 . S
C582 H586 0.930 . S
C583 C582 1.369 . S
C583 C592 1.429 . S
C584 C582 1.419 . S
C584 C585 1.363 . S
C584 H587 0.929 . S
C585 C584 1.363 . S
C585 C591 1.428 . S
H586 C582 0.930 . S
H587 C584 0.929 . S
S588 N589 1.613 . S
S588 N590 1.610 . S
N589 S588 1.613 . S
N589 C592 1.350 . S
N590 S588 1.610 . S
N590 C591 1.351 . S
C591 C585 1.428 . S
C591 N590 1.351 . S
C591 C592 1.434 . S
C592 C583 1.429 . S
C592 N589 1.350 . S
C592 C591 1.434 . S
C593 C594 1.369 . S
C593 C595 1.419 . S
C593 H597 0.930 . S
C594 C593 1.369 . S
C594 C603 1.429 . S
C595 C593 1.419 . S
C595 C596 1.363 . S
C595 H598 0.929 . S
C596 C595 1.363 . S
C596 C602 1.428 . S
H597 C593 0.930 . S
H598 C595 0.929 . S
S599 N600 1.613 . S
S599 N601 1.610 . S
N600 S599 1.613 . S
N600 C603 1.350 . S
N601 S599 1.610 . S
N601 C602 1.351 . S
C602 C596 1.428 . S
C602 N601 1.351 . S
C602 C603 1.434 . S
C603 C594 1.429 . S
C603 N600 1.350 . S
C603 C602 1.434 . S
C604 C605 1.369 . S
C604 C606 1.419 . S
C604 H608 0.930 . S
C605 C604 1.369 . S
C605 C614 1.429 . S
C606 C604 1.419 . S
C606 C607 1.363 . S
C606 H609 0.929 . S
C607 C606 1.363 . S
C607 C613 1.428 . S
H608 C604 0.930 . S
H609 C606 0.929 . S
S610 N611 1.613 . S
S610 N612 1.610 . S
N611 S610 1.613 . S
N611 C614 1.350 . S
N612 S610 1.610 . S
N612 C613 1.351 . S
C613 C607 1.428 . S
C613 N612 1.351 . S
C613 C614 1.434 . S
C614 C605 1.429 . S
C614 N611 1.350 . S
C614 C613 1.434 . S
C615 C616 1.369 . S
C615 C617 1.419 . S
C615 H619 0.930 . S
C616 C615 1.369 . S
C616 C625 1.429 . S
C617 C615 1.419 . S
C617 C618 1.363 . S
C617 H620 0.929 . S
C618 C617 1.363 . S
C618 C624 1.428 . S
H619 C615 0.930 . S
H620 C617 0.929 . S
S621 N622 1.613 . S
S621 N623 1.610 . S
N622 S621 1.613 . S
N622 C625 1.350 . S
N623 S621 1.610 . S
N623 C624 1.351 . S
C624 C618 1.428 . S
C624 N623 1.351 . S
C624 C625 1.434 . S
C625 C616 1.429 . S
C625 N622 1.350 . S
C625 C624 1.434 . S
C626 C627 1.369 . S
C626 C628 1.419 . S
C626 H630 0.930 . S
C627 C626 1.369 . S
C627 C636 1.429 . S
C628 C626 1.419 . S
C628 C629 1.363 . S
C628 H631 0.929 . S
C629 C628 1.363 . S
C629 C635 1.428 . S
H630 C626 0.930 . S
H631 C628 0.929 . S
S632 N633 1.613 . S
S632 N634 1.610 . S
N633 S632 1.613 . S
N633 C636 1.350 . S
N634 S632 1.610 . S
N634 C635 1.351 . S
C635 C629 1.428 . S
C635 N634 1.351 . S
C635 C636 1.434 . S
C636 C627 1.429 . S
C636 N633 1.350 . S
C636 C635 1.434 . S
C637 C638 1.369 . S
C637 C639 1.419 . S
C637 H641 0.930 . S
C638 C637 1.369 . S
C638 C647 1.429 . S
C639 C637 1.419 . S
C639 C640 1.363 . S
C639 H642 0.929 . S
C640 C639 1.363 . S
C640 C646 1.428 . S
H641 C637 0.930 . S
H642 C639 0.929 . S
S643 N644 1.613 . S
S643 N645 1.610 . S
N644 S643 1.613 . S
N644 C647 1.350 . S
N645 S643 1.610 . S
N645 C646 1.351 . S
C646 C640 1.428 . S
C646 N645 1.351 . S
C646 C647 1.434 . S
C647 C638 1.429 . S
C647 N644 1.350 . S
C647 C646 1.434 . S
C253 C146 1.279 . S
C255 C6 1.281 . S
C264 C20 1.279 . S
C266 C160 1.281 . S
C275 C132 1.281 . S
C277 C34 1.281 . S
C286 C202 1.279 . S
C288 C48 1.281 . S
C297 C62 1.281 . S
C299 C174 1.280 . S
C308 C188 1.279 . S
C310 C76 1.281 . S
C319 C90 1.281 . S
C321 C230 1.281 . S
C330 C244 1.279 . S
C332 C104 1.280 . S
C341 C118 1.282 . S
C343 C216 1.280 . S
C352 C9 1.362 . S
C354 C22 1.398 . S
C363 C23 1.363 . S
C365 C36 1.397 . S
C374 C8 1.396 . S
C376 C37 1.360 . S
C385 C78 1.395 . S
C387 C51 1.353 . S
C396 C50 1.397 . S
C398 C65 1.354 . S
C407 C79 1.361 . S
C409 C64 1.399 . S
C418 C93 1.352 . S
C420 C106 1.396 . S
C429 C107 1.360 . S
C431 C120 1.395 . S
C440 C92 1.394 . S
C442 C121 1.358 . S
C451 C162 1.400 . S
C453 C135 1.360 . S
C462 C134 1.395 . S
C464 C149 1.353 . S
C473 C148 1.395 . S
C475 C163 1.354 . S
C484 C190 1.400 . S
C486 C177 1.359 . S
C495 C204 1.400 . S
C497 C191 1.359 . S
C506 C176 1.394 . S
C508 C205 1.358 . S
C517 C219 1.360 . S
C519 C246 1.399 . S
C528 C233 1.352 . S
C530 C218 1.397 . S
C539 C247 1.358 . S
C541 C232 1.395 . S
C550 C7 1.706 . S
C552 C49 1.701 . S
C561 C63 1.706 . S
C563 C21 1.700 . S
C572 C77 1.694 . S
C574 C35 1.700 . S
C583 C133 1.700 . S
C585 C91 1.695 . S
C594 C147 1.704 . S
C596 C105 1.697 . S
C605 C119 1.706 . S
C607 C161 1.698 . S
C616 C217 1.695 . S
C618 C175 1.696 . S
C627 C231 1.697 . S
C629 C189 1.704 . S
C638 C245 1.704 . S
C640 C203 1.697 . S
