# Generated by pormake.
# Topology whk, (6)-cn, num edge types: 1
# Building blocks:
#     Node 0, Type 0, BuildingBlock: UKALOJ_clean_sbu_0, # of connection points: 6
#     Node 1, Type 0, BuildingBlock: UKALOJ_clean_sbu_0, # of connection points: 6
#     Node 2, Type 0, BuildingBlock: UKALOJ_clean_sbu_0, # of connection points: 6
#     Node 3, Type 0, BuildingBlock: UKALOJ_clean_sbu_0, # of connection points: 6
#     Node 4, Type 0, BuildingBlock: UKALOJ_clean_sbu_0, # of connection points: 6
#     Node 5, Type 0, BuildingBlock: UKALOJ_clean_sbu_0, # of connection points: 6
#     Node 6, Type 0, BuildingBlock: UKALOJ_clean_sbu_0, # of connection points: 6
#     Node 7, Type 0, BuildingBlock: UKALOJ_clean_sbu_0, # of connection points: 6
#     Node 8, Type 0, BuildingBlock: UKALOJ_clean_sbu_0, # of connection points: 6
#     Node 9, Type 0, BuildingBlock: UKALOJ_clean_sbu_0, # of connection points: 6
#     Node 10, Type 0, BuildingBlock: UKALOJ_clean_sbu_0, # of connection points: 6
#     Node 11, Type 0, BuildingBlock: UKALOJ_clean_sbu_0, # of connection points: 6
#     Node 12, Type 0, BuildingBlock: UKALOJ_clean_sbu_0, # of connection points: 6
#     Node 13, Type 0, BuildingBlock: UKALOJ_clean_sbu_0, # of connection points: 6
#     Node 14, Type 0, BuildingBlock: UKALOJ_clean_sbu_0, # of connection points: 6
#     Node 15, Type 0, BuildingBlock: UKALOJ_clean_sbu_0, # of connection points: 6
#     Edge 16, Type (0, 0), BuildingBlock: CIFDUS_clean_linker_0, # of connection points: 2
#     Edge 17, Type (0, 0), BuildingBlock: CIFDUS_clean_linker_0, # of connection points: 2
#     Edge 18, Type (0, 0), BuildingBlock: CIFDUS_clean_linker_0, # of connection points: 2
#     Edge 19, Type (0, 0), BuildingBlock: CIFDUS_clean_linker_0, # of connection points: 2
#     Edge 20, Type (0, 0), BuildingBlock: CIFDUS_clean_linker_0, # of connection points: 2
#     Edge 21, Type (0, 0), BuildingBlock: CIFDUS_clean_linker_0, # of connection points: 2
#     Edge 22, Type (0, 0), BuildingBlock: CIFDUS_clean_linker_0, # of connection points: 2
#     Edge 23, Type (0, 0), BuildingBlock: CIFDUS_clean_linker_0, # of connection points: 2
#     Edge 24, Type (0, 0), BuildingBlock: CIFDUS_clean_linker_0, # of connection points: 2
#     Edge 25, Type (0, 0), BuildingBlock: CIFDUS_clean_linker_0, # of connection points: 2
#     Edge 26, Type (0, 0), BuildingBlock: CIFDUS_clean_linker_0, # of connection points: 2
#     Edge 27, Type (0, 0), BuildingBlock: CIFDUS_clean_linker_0, # of connection points: 2
#     Edge 28, Type (0, 0), BuildingBlock: CIFDUS_clean_linker_0, # of connection points: 2
#     Edge 29, Type (0, 0), BuildingBlock: CIFDUS_clean_linker_0, # of connection points: 2
#     Edge 30, Type (0, 0), BuildingBlock: CIFDUS_clean_linker_0, # of connection points: 2
#     Edge 31, Type (0, 0), BuildingBlock: CIFDUS_clean_linker_0, # of connection points: 2
#     Edge 32, Type (0, 0), BuildingBlock: CIFDUS_clean_linker_0, # of connection points: 2
#     Edge 33, Type (0, 0), BuildingBlock: CIFDUS_clean_linker_0, # of connection points: 2
#     Edge 34, Type (0, 0), BuildingBlock: CIFDUS_clean_linker_0, # of connection points: 2
#     Edge 35, Type (0, 0), BuildingBlock: CIFDUS_clean_linker_0, # of connection points: 2
#     Edge 36, Type (0, 0), BuildingBlock: CIFDUS_clean_linker_0, # of connection points: 2
#     Edge 37, Type (0, 0), BuildingBlock: CIFDUS_clean_linker_0, # of connection points: 2
#     Edge 38, Type (0, 0), BuildingBlock: CIFDUS_clean_linker_0, # of connection points: 2
#     Edge 39, Type (0, 0), BuildingBlock: CIFDUS_clean_linker_0, # of connection points: 2
#     Edge 40, Type (0, 0), BuildingBlock: CIFDUS_clean_linker_0, # of connection points: 2
#     Edge 41, Type (0, 0), BuildingBlock: CIFDUS_clean_linker_0, # of connection points: 2
#     Edge 42, Type (0, 0), BuildingBlock: CIFDUS_clean_linker_0, # of connection points: 2
#     Edge 43, Type (0, 0), BuildingBlock: CIFDUS_clean_linker_0, # of connection points: 2
#     Edge 44, Type (0, 0), BuildingBlock: CIFDUS_clean_linker_0, # of connection points: 2
#     Edge 45, Type (0, 0), BuildingBlock: CIFDUS_clean_linker_0, # of connection points: 2
#     Edge 46, Type (0, 0), BuildingBlock: CIFDUS_clean_linker_0, # of connection points: 2
#     Edge 47, Type (0, 0), BuildingBlock: CIFDUS_clean_linker_0, # of connection points: 2
#     Edge 48, Type (0, 0), BuildingBlock: CIFDUS_clean_linker_0, # of connection points: 2
#     Edge 49, Type (0, 0), BuildingBlock: CIFDUS_clean_linker_0, # of connection points: 2
#     Edge 50, Type (0, 0), BuildingBlock: CIFDUS_clean_linker_0, # of connection points: 2
#     Edge 51, Type (0, 0), BuildingBlock: CIFDUS_clean_linker_0, # of connection points: 2
#     Edge 52, Type (0, 0), BuildingBlock: CIFDUS_clean_linker_0, # of connection points: 2
#     Edge 53, Type (0, 0), BuildingBlock: CIFDUS_clean_linker_0, # of connection points: 2
#     Edge 54, Type (0, 0), BuildingBlock: CIFDUS_clean_linker_0, # of connection points: 2
#     Edge 55, Type (0, 0), BuildingBlock: CIFDUS_clean_linker_0, # of connection points: 2
#     Edge 56, Type (0, 0), BuildingBlock: CIFDUS_clean_linker_0, # of connection points: 2
#     Edge 57, Type (0, 0), BuildingBlock: CIFDUS_clean_linker_0, # of connection points: 2
#     Edge 58, Type (0, 0), BuildingBlock: CIFDUS_clean_linker_0, # of connection points: 2
#     Edge 59, Type (0, 0), BuildingBlock: CIFDUS_clean_linker_0, # of connection points: 2
#     Edge 60, Type (0, 0), BuildingBlock: CIFDUS_clean_linker_0, # of connection points: 2
#     Edge 61, Type (0, 0), BuildingBlock: CIFDUS_clean_linker_0, # of connection points: 2
#     Edge 62, Type (0, 0), BuildingBlock: CIFDUS_clean_linker_0, # of connection points: 2
#     Edge 63, Type (0, 0), BuildingBlock: CIFDUS_clean_linker_0, # of connection points: 2
# Relax obj value: 0.439
# Max RMSD: 0.276
# Mean RMSD: 0.276
data_MOF--net-whk--node1-UKALOJ_clean_sbu_0--edge1-CIFDUS_clean_linker_0
_symmetry_space_group_name_H-M    P1
_symmetry_Int_Tables_number       1
_symmetry_cell_setting            triclinic
loop_
_symmetry_equiv_pos_as_xyz
'x, y, z'
_cell_length_a     33.914456
_cell_length_b     33.886399
_cell_length_c     47.209455
_cell_angle_alpha  89.991036
_cell_angle_beta   90.115547
_cell_angle_gamma 89.983361
loop_
_atom_site_label
_atom_site_type_symbol
_atom_site_fract_x
_atom_site_fract_y
_atom_site_fract_z
_atom_type_partial_charge
Zn0 Zn 0.55319 0.21147 0.36871 0.0
O1 O 0.56262 0.18583 0.3297 0.0
C2 C 0.50015 0.14353 0.38427 0.0
Zn3 Zn 0.58374 0.16126 0.38987 0.0
C4 C 0.57935 0.15263 0.32688 0.0
O5 O 0.592 0.1344 0.34875 0.0
C6 C 0.55597 0.22257 0.43101 0.0
O7 O 0.63552 0.19261 0.38351 0.0
O8 O 0.60694 0.24436 0.36466 0.0
N9 N 0.61589 0.11744 0.40938 0.0
C10 C 0.64755 0.12013 0.42668 0.0
C11 C 0.63347 0.05909 0.42287 0.0
N12 N 0.60726 0.07945 0.407 0.0
N13 N 0.65938 0.08397 0.4351 0.0
C14 C 0.49014 0.27572 0.35845 0.0
C15 C 0.50848 0.30176 0.31955 0.0
N16 N 0.52228 0.25581 0.34969 0.0
N17 N 0.53348 0.27184 0.32539 0.0
N18 N 0.48107 0.30461 0.34002 0.0
H19 H 0.43466 0.26985 0.37989 0.0
H20 H 0.47404 0.28812 0.40133 0.0
H21 H 0.4723 0.23655 0.39257 0.0
C22 C 0.4666 0.26659 0.38452 0.0
C23 C 0.66557 0.15808 0.43689 0.0
H24 H 0.64478 0.18304 0.43552 0.0
H25 H 0.69169 0.16502 0.4237 0.0
H26 H 0.67554 0.15518 0.45919 0.0
O27 O 0.57412 0.1897 0.43029 0.0
O28 O 0.54385 0.23758 0.40802 0.0
C29 C 0.63812 0.22669 0.37271 0.0
O30 O 0.50109 0.17704 0.37216 0.0
O31 O 0.53137 0.12941 0.39517 0.0
Zn32 Zn 0.34465 0.57926 0.38523 0.0
O33 O 0.31629 0.63339 0.37965 0.0
C34 C 0.2828 0.55359 0.42625 0.0
Zn35 Zn 0.29309 0.55083 0.36403 0.0
C36 C 0.28226 0.63724 0.36885 0.0
O37 O 0.26375 0.60669 0.36045 0.0
C38 C 0.35754 0.49415 0.37922 0.0
O39 O 0.31862 0.55894 0.32493 0.0
O40 O 0.37143 0.58609 0.34377 0.0
N41 N 0.24624 0.52274 0.34572 0.0
C42 C 0.22878 0.48832 0.35267 0.0
C43 C 0.19448 0.51438 0.31974 0.0
N44 N 0.225 0.53881 0.32515 0.0
N45 N 0.19647 0.48243 0.33662 0.0
C46 C 0.39089 0.63665 0.42487 0.0
C47 C 0.45026 0.61718 0.42033 0.0
N48 N 0.39086 0.60755 0.40526 0.0
N49 N 0.42786 0.5957 0.40239 0.0
N50 N 0.42782 0.64337 0.43452 0.0
H51 H 0.35217 0.68639 0.42632 0.0
H52 H 0.35695 0.66066 0.45939 0.0
H53 H 0.32743 0.64029 0.43129 0.0
C54 C 0.35465 0.65673 0.43611 0.0
C55 C 0.24469 0.45902 0.37369 0.0
H56 H 0.26756 0.44088 0.36309 0.0
H57 H 0.22145 0.43872 0.38137 0.0
H58 H 0.25859 0.47371 0.39203 0.0
O59 O 0.32406 0.49664 0.36723 0.0
O60 O 0.37317 0.52477 0.38993 0.0
C61 C 0.35257 0.57402 0.32194 0.0
O62 O 0.31626 0.57051 0.42562 0.0
O63 O 0.2671 0.54268 0.40324 0.0
Zn64 Zn 0.95231 0.29307 0.36694 0.0
O65 O 0.942 0.31903 0.32784 0.0
C66 C 0.01146 0.35469 0.37947 0.0
Zn67 Zn 0.92483 0.34497 0.38865 0.0
C68 C 0.92637 0.35294 0.32532 0.0
O69 O 0.91575 0.37195 0.34747 0.0
C70 C 0.95115 0.28268 0.42937 0.0
O71 O 0.86936 0.31881 0.38543 0.0
O72 O 0.89526 0.26632 0.36561 0.0
N73 N 0.90238 0.39243 0.41117 0.0
C74 C 0.86556 0.40238 0.41951 0.0
C75 C 0.90564 0.43456 0.44538 0.0
N76 N 0.92709 0.41292 0.42715 0.0
N77 N 0.86678 0.42826 0.44142 0.0
C78 C 0.00669 0.22098 0.35637 0.0
C79 C 0.97355 0.18821 0.32609 0.0
N80 N 0.97578 0.24363 0.34846 0.0
N81 N 0.95553 0.22335 0.32939 0.0
N82 N 0.00579 0.18593 0.34277 0.0
H83 H 0.06534 0.23621 0.36894 0.0
H84 H 0.03903 0.2072 0.39439 0.0
H85 H 0.02853 0.25913 0.39017 0.0
C86 C 0.03613 0.23169 0.37892 0.0
C87 C 0.82879 0.38929 0.40466 0.0
H88 H 0.83454 0.38598 0.38165 0.0
H89 H 0.8047 0.41103 0.40774 0.0
H90 H 0.81922 0.36042 0.41331 0.0
O91 O 0.93405 0.31606 0.42886 0.0
O92 O 0.96194 0.26724 0.40628 0.0
C93 C 0.86514 0.28492 0.37449 0.0
O94 O 0.00808 0.32126 0.36754 0.0
O95 O 0.98154 0.37058 0.39092 0.0
Zn96 Zn 0.15805 0.92212 0.38783 0.0
O97 O 0.18674 0.86744 0.38302 0.0
C98 C 0.217 0.94351 0.43372 0.0
Zn99 Zn 0.21285 0.95083 0.37194 0.0
C100 C 0.22206 0.86428 0.37451 0.0
O101 O 0.24159 0.89524 0.3687 0.0
C102 C 0.14827 0.00874 0.38278 0.0
O103 O 0.18856 0.94324 0.33105 0.0
O104 O 0.1338 0.9161 0.34667 0.0
N105 N 0.26074 0.97801 0.35471 0.0
C106 C 0.28377 0.00712 0.36493 0.0
C107 C 0.30609 0.99167 0.32422 0.0
N108 N 0.27454 0.96853 0.32936 0.0
N109 N 0.31245 0.01596 0.34631 0.0
C110 C 0.10312 0.85746 0.41283 0.0
C111 C 0.07311 0.89085 0.44423 0.0
N112 N 0.11082 0.89588 0.40769 0.0
N113 N 0.09159 0.91653 0.42703 0.0
N114 N 0.08026 0.85335 0.43615 0.0
H115 H 0.11715 0.83535 0.37136 0.0
H116 H 0.09268 0.80027 0.39446 0.0
H117 H 0.14362 0.81239 0.40004 0.0
C118 C 0.1147 0.82445 0.39347 0.0
C119 C 0.27728 0.0283 0.39243 0.0
H120 H 0.28825 0.0591 0.39118 0.0
H121 H 0.29392 0.0129 0.4094 0.0
H122 H 0.2457 0.02882 0.3982 0.0
O123 O 0.18373 0.00569 0.37451 0.0
O124 O 0.13003 0.97805 0.39106 0.0
C125 C 0.15484 0.92829 0.32609 0.0
O126 O 0.18365 0.92772 0.42907 0.0
O127 O 0.23642 0.95737 0.41308 0.0
Zn128 Zn 0.05032 0.79289 0.14031 0.0
O129 O 0.05513 0.82444 0.17753 0.0
C130 C 0.99271 0.85488 0.11854 0.0
Zn131 Zn 0.07717 0.84239 0.11574 0.0
C132 C 0.0701 0.85877 0.17806 0.0
O133 O 0.08242 0.87459 0.15514 0.0
C134 C 0.05578 0.77385 0.079 0.0
O135 O 0.13033 0.81633 0.1255 0.0
O136 O 0.10702 0.76553 0.1488 0.0
N137 N 0.10815 0.8847 0.09351 0.0
C138 C 0.14043 0.88036 0.07702 0.0
C139 C 0.12422 0.94103 0.0755 0.0
N140 N 0.09822 0.92249 0.09259 0.0
N141 N 0.15136 0.91529 0.0658 0.0
C142 C 0.98757 0.72906 0.15228 0.0
C143 C 0.0117 0.6969 0.187 0.0
N144 N 0.02098 0.74773 0.16023 0.0
N145 N 0.03585 0.72777 0.1819 0.0
N146 N 0.98114 0.69726 0.16874 0.0
H147 H 0.94149 0.76728 0.1382 0.0
H148 H 0.93958 0.71929 0.12246 0.0
H149 H 0.9758 0.75462 0.11095 0.0
C150 C 0.95981 0.74302 0.12951 0.0
C151 C 0.16009 0.84169 0.07032 0.0
H152 H 0.14038 0.81626 0.07354 0.0
H153 H 0.18614 0.838 0.08433 0.0
H154 H 0.17044 0.84123 0.04805 0.0
O155 O 0.07046 0.8083 0.07725 0.0
O156 O 0.04574 0.7609 0.10302 0.0
C157 C 0.13632 0.7854 0.13979 0.0
O158 O 0.99575 0.82295 0.13262 0.0
O159 O 0.02321 0.87002 0.10738 0.0
Zn160 Zn 0.70763 0.05451 0.12972 0.0
O161 O 0.68665 0.06428 0.17069 0.0
C162 C 0.64041 0.9975 0.12171 0.0
Zn163 Zn 0.65251 0.08273 0.11324 0.0
C164 C 0.65377 0.08064 0.17594 0.0
O165 O 0.63206 0.09239 0.15549 0.0
C166 C 0.70808 0.05556 0.06744 0.0
O167 O 0.68251 0.13692 0.1155 0.0
O168 O 0.73757 0.11031 0.13071 0.0
N169 N 0.60461 0.11138 0.09541 0.0
C170 C 0.60368 0.14031 0.07566 0.0
C171 C 0.54432 0.12256 0.08287 0.0
N172 N 0.56762 0.10054 0.09991 0.0
N173 N 0.56621 0.14808 0.06766 0.0
C174 C 0.77674 0.99492 0.13641 0.0
C175 C 0.80472 0.01419 0.17442 0.0
N176 N 0.75631 0.02642 0.14592 0.0
N177 N 0.7737 0.03825 0.16961 0.0
N178 N 0.80724 0.9869 0.15379 0.0
H179 H 0.77101 0.93872 0.1157 0.0
H180 H 0.78539 0.97859 0.09319 0.0
H181 H 0.73496 0.97475 0.10461 0.0
C182 C 0.76597 0.97045 0.11108 0.0
C183 C 0.63938 0.15921 0.06256 0.0
H184 H 0.66617 0.14114 0.06496 0.0
H185 H 0.64471 0.18808 0.07296 0.0
H186 H 0.6345 0.1646 0.03964 0.0
O187 O 0.67461 0.07154 0.07134 0.0
O188 O 0.72838 0.04529 0.08875 0.0
C189 C 0.71795 0.14083 0.12361 0.0
O190 O 0.67635 1.00025 0.1292 0.0
O191 O 0.62234 0.02804 0.11289 0.0
Zn192 Zn 0.42259 0.66029 0.11101 0.0
O193 O 0.3666 0.6809 0.1201 0.0
C194 C 0.4343 0.72925 0.07312 0.0
Zn195 Zn 0.444 0.71286 0.13504 0.0
C196 C 0.35744 0.71103 0.13439 0.0
O197 O 0.38472 0.73345 0.14364 0.0
C198 C 0.50801 0.65684 0.11412 0.0
O199 O 0.44429 0.68313 0.17288 0.0
O200 O 0.42151 0.62984 0.15165 0.0
N201 N 0.46743 0.76241 0.15348 0.0
C202 C 0.49654 0.78647 0.14438 0.0
C203 C 0.46806 0.81545 0.17876 0.0
N204 N 0.44999 0.78038 0.17499 0.0
N205 N 0.49752 0.81989 0.15991 0.0
C206 C 0.36307 0.61353 0.07421 0.0
C207 C 0.3844 0.55443 0.07511 0.0
N208 N 0.39613 0.61348 0.09028 0.0
N209 N 0.40931 0.57666 0.09082 0.0
N210 N 0.35481 0.57687 0.06486 0.0
H211 H 0.35692 0.67706 0.06823 0.0
H212 H 0.31339 0.65179 0.07965 0.0
H213 H 0.32966 0.64727 0.0437 0.0
C214 C 0.33985 0.64961 0.06598 0.0
C215 C 0.52187 0.77915 0.11883 0.0
H216 H 0.55242 0.77281 0.12589 0.0
H217 H 0.5227 0.8059 0.10528 0.0
H218 H 0.51176 0.75391 0.10605 0.0
O219 O 0.50202 0.68893 0.12755 0.0
O220 O 0.47906 0.6384 0.1033 0.0
C221 C 0.43294 0.64752 0.17418 0.0
O222 O 0.42519 0.69294 0.07134 0.0
O223 O 0.44282 0.74351 0.09708 0.0
Zn224 Zn 0.78846 0.4556 0.13267 0.0
O225 O 0.81069 0.44468 0.17295 0.0
C226 C 0.85564 0.51145 0.1216 0.0
Zn227 Zn 0.84082 0.42666 0.11287 0.0
C228 C 0.84413 0.42858 0.17666 0.0
O229 O 0.86428 0.41771 0.15515 0.0
C230 C 0.78268 0.45494 0.06979 0.0
O231 O 0.81118 0.37287 0.11652 0.0
O232 O 0.75743 0.39993 0.1335 0.0
N233 N 0.88781 0.39802 0.09406 0.0
C234 C 0.88827 0.36868 0.07464 0.0
C235 C 0.94761 0.38782 0.08012 0.0
N236 N 0.92479 0.40972 0.09748 0.0
N237 N 0.92543 0.36155 0.06577 0.0
C238 C 0.72442 0.51955 0.14172 0.0
C239 C 0.68673 0.49369 0.17265 0.0
N240 N 0.7405 0.48455 0.14914 0.0
N241 N 0.71708 0.4686 0.16843 0.0
N242 N 0.69078 0.52587 0.15617 0.0
H243 H 0.76516 0.56645 0.13466 0.0
H244 H 0.72142 0.57023 0.11358 0.0
H245 H 0.75902 0.53482 0.10468 0.0
C246 C 0.74327 0.54918 0.12232 0.0
C247 C 0.85227 0.34874 0.06277 0.0
H248 H 0.82544 0.36674 0.06533 0.0
H249 H 0.8478 0.32034 0.074 0.0
H250 H 0.85619 0.34226 0.03991 0.0
O251 O 0.8155 0.43693 0.07149 0.0
O252 O 0.76595 0.46611 0.09233 0.0
C253 C 0.77624 0.36926 0.12562 0.0
O254 O 0.82135 0.50929 0.13236 0.0
O255 O 0.87087 0.48099 0.11037 0.0
Zn256 Zn 0.45494 0.79337 0.62818 0.0
O257 O 0.44645 0.81752 0.66892 0.0
C258 C 0.51369 0.85703 0.61716 0.0
Zn259 Zn 0.4266 0.84767 0.61038 0.0
C260 C 0.43121 0.85136 0.67309 0.0
O261 O 0.41996 0.87199 0.65192 0.0
C262 C 0.44841 0.78821 0.56555 0.0
O263 O 0.37117 0.82047 0.61442 0.0
O264 O 0.39818 0.76588 0.63032 0.0
N265 N 0.4028 0.89644 0.59033 0.0
C266 C 0.36562 0.90637 0.58281 0.0
C267 C 0.40448 0.9413 0.55793 0.0
N268 N 0.42675 0.91865 0.57502 0.0
N269 N 0.36584 0.93397 0.562 0.0
C270 C 0.51032 0.72097 0.63519 0.0
C271 C 0.49261 0.69669 0.6748 0.0
N272 N 0.4811 0.74406 0.64527 0.0
N273 N 0.47023 0.72896 0.66995 0.0
N274 N 0.51781 0.69103 0.65318 0.0
H275 H 0.5325 0.76016 0.60267 0.0
H276 H 0.56421 0.71903 0.61117 0.0
H277 H 0.52006 0.71102 0.59111 0.0
C278 C 0.53311 0.72858 0.60856 0.0
C279 C 0.3295 0.89154 0.59753 0.0
H280 H 0.33587 0.88693 0.62036 0.0
H281 H 0.30487 0.9129 0.59539 0.0
H282 H 0.32037 0.86301 0.58807 0.0
O283 O 0.43276 0.82189 0.56928 0.0
O284 O 0.46183 0.76972 0.58688 0.0
C285 C 0.3675 0.7854 0.6235 0.0
O286 O 0.51078 0.82224 0.62698 0.0
O287 O 0.48319 0.8741 0.60742 0.0
Zn288 Zn 0.65872 0.41524 0.61508 0.0
O289 O 0.68915 0.36338 0.62324 0.0
C290 C 0.71672 0.4371 0.5693 0.0
Zn291 Zn 0.7116 0.44683 0.63165 0.0
C292 C 0.72455 0.36105 0.63153 0.0
O293 O 0.74389 0.39259 0.63615 0.0
C294 C 0.64324 0.50035 0.6171 0.0
O295 O 0.68815 0.43935 0.67292 0.0
O296 O 0.63453 0.41096 0.65648 0.0
N297 N 0.75824 0.4779 0.64818 0.0
C298 C 0.78042 0.50718 0.63721 0.0
C299 C 0.80328 0.49457 0.6783 0.0
N300 N 0.77243 0.47023 0.67377 0.0
N301 N 0.80894 0.5179 0.65558 0.0
C302 C 0.61532 0.34904 0.5824 0.0
C303 C 0.55467 0.36434 0.58638 0.0
N304 N 0.61354 0.38206 0.5984 0.0
N305 N 0.57578 0.39139 0.60097 0.0
N306 N 0.57884 0.33707 0.57499 0.0
H307 H 0.67843 0.34926 0.57344 0.0
H308 H 0.65848 0.30312 0.5852 0.0
H309 H 0.64926 0.32006 0.54981 0.0
C310 C 0.65259 0.32971 0.57214 0.0
C311 C 0.77306 0.52671 0.60922 0.0
H312 H 0.7414 0.52555 0.60351 0.0
H313 H 0.78281 0.55797 0.60976 0.0
H314 H 0.79034 0.51122 0.59271 0.0
O315 O 0.67781 0.49977 0.6277 0.0
O316 O 0.62774 0.46844 0.60826 0.0
C317 C 0.65482 0.42332 0.6774 0.0
O318 O 0.68419 0.41963 0.57379 0.0
O319 O 0.73468 0.45297 0.58998 0.0
Zn320 Zn 0.08456 0.65937 0.61095 0.0
O321 O 0.13718 0.69059 0.61629 0.0
C322 C 0.0543 0.72021 0.57129 0.0
Zn323 Zn 0.05544 0.70847 0.6344 0.0
C324 C 0.14038 0.72435 0.62753 0.0
O325 O 0.10962 0.74148 0.63683 0.0
C326 C 0.00077 0.64131 0.61926 0.0
O327 O 0.0689 0.68077 0.67375 0.0
O328 O 0.09539 0.63154 0.65018 0.0
N329 N 0.02608 0.75337 0.65469 0.0
C330 C 0.99478 0.77494 0.64619 0.0
C331 C 0.01576 0.80066 0.6845 0.0
N332 N 0.0389 0.76925 0.67866 0.0
N333 N 0.98796 0.80478 0.66433 0.0
C334 C 0.14729 0.61942 0.57325 0.0
C335 C 0.13563 0.55803 0.57826 0.0
N336 N 0.1158 0.61611 0.59054 0.0
N337 N 0.10866 0.57792 0.59368 0.0
N338 N 0.1606 0.58348 0.56567 0.0
H339 H 0.1427 0.6822 0.56393 0.0
H340 H 0.1905 0.66544 0.57475 0.0
H341 H 0.17272 0.65452 0.5398 0.0
C342 C 0.16386 0.65764 0.56231 0.0
C343 C 0.97024 0.76693 0.62041 0.0
H344 H 0.93877 0.77334 0.62491 0.0
H345 H 0.9797 0.78707 0.60327 0.0
H346 H 0.97311 0.73603 0.6132 0.0
O347 O 0.00282 0.67414 0.6323 0.0
O348 O 0.03119 0.62779 0.60686 0.0
C349 C 0.08615 0.64738 0.67367 0.0
O350 O 0.07316 0.68787 0.57173 0.0
O351 O 0.04289 0.73528 0.5945 0.0
Zn352 Zn 0.84611 0.07829 0.61281 0.0
O353 O 0.81406 0.13018 0.61812 0.0
C354 C 0.78392 0.0487 0.57404 0.0
Zn355 Zn 0.79748 0.04939 0.637 0.0
C356 C 0.78103 0.13351 0.63033 0.0
O357 O 0.76422 0.10288 0.64015 0.0
C358 C 0.86563 0.99536 0.62199 0.0
O359 O 0.82531 0.06289 0.67589 0.0
O360 O 0.87386 0.09039 0.65213 0.0
N361 N 0.753 0.01826 0.65665 0.0
C362 C 0.73321 0.98606 0.64752 0.0
C363 C 0.70409 0.00634 0.68467 0.0
N364 N 0.73495 0.03066 0.67989 0.0
N365 N 0.70245 0.97818 0.66458 0.0
C366 C 0.88437 0.14188 0.57473 0.0
C367 C 0.94598 0.13144 0.57954 0.0
N368 N 0.88848 0.1104 0.59203 0.0
N369 N 0.9268 0.10401 0.59504 0.0
N370 N 0.91995 0.15593 0.567 0.0
H371 H 0.82185 0.13577 0.56525 0.0
H372 H 0.83714 0.18371 0.57692 0.0
H373 H 0.84852 0.16751 0.54166 0.0
C374 C 0.84572 0.15776 0.56401 0.0
C375 C 0.74394 0.96139 0.6223 0.0
H376 H 0.74126 0.92965 0.62778 0.0
H377 H 0.72285 0.96723 0.60488 0.0
H378 H 0.77411 0.9673 0.61471 0.0
O379 O 0.83266 0.99746 0.63471 0.0
O380 O 0.87889 0.02552 0.60908 0.0
C381 C 0.85809 0.08125 0.67568 0.0
O382 O 0.81707 0.06612 0.5736 0.0
O383 O 0.76987 0.03783 0.59766 0.0
Zn384 Zn 0.94336 0.20451 0.87493 0.0
O385 O 0.93255 0.17845 0.83419 0.0
C386 C 0.00367 0.14137 0.88492 0.0
Zn387 Zn 0.91809 0.15119 0.89574 0.0
C388 C 0.91569 0.14483 0.83304 0.0
O389 O 0.90679 0.12717 0.85588 0.0
C390 C 0.94307 0.21114 0.93832 0.0
O391 O 0.86216 0.17885 0.89378 0.0
O392 O 0.88692 0.23137 0.87343 0.0
N393 N 0.89257 0.10311 0.91452 0.0
C394 C 0.86273 0.10132 0.93333 0.0
C395 C 0.88097 0.04223 0.92513 0.0
N396 N 0.90379 0.06635 0.90937 0.0
N397 N 0.85455 0.0635 0.93997 0.0
C398 C 0.99813 0.27683 0.86562 0.0
C399 C 0.96829 0.30814 0.83286 0.0
N400 N 0.9676 0.25413 0.85707 0.0
N401 N 0.94937 0.27351 0.8365 0.0
N402 N 0.99917 0.3108 0.85076 0.0
H403 H 0.05575 0.27121 0.88404 0.0
H404 H 0.0188 0.28985 0.90745 0.0
H405 H 0.02014 0.23794 0.89875 0.0
C406 C 0.02447 0.26804 0.89041 0.0
C407 C 0.84306 0.1365 0.94664 0.0
H408 H 0.86132 0.16333 0.94536 0.0
H409 H 0.81481 0.14233 0.93552 0.0
H410 H 0.83646 0.13068 0.96927 0.0
O411 O 0.9296 0.1763 0.93622 0.0
O412 O 0.95195 0.22975 0.91587 0.0
C413 C 0.85724 0.21272 0.88291 0.0
O414 O 0.99915 0.17637 0.87577 0.0
O415 O 0.97436 0.12322 0.89558 0.0
Zn416 Zn 0.34092 0.92145 0.88466 0.0
O417 O 0.31805 0.86623 0.87664 0.0
C418 C 0.27499 0.93934 0.92464 0.0
Zn419 Zn 0.28826 0.94589 0.86221 0.0
C420 C 0.2859 0.85882 0.86422 0.0
O421 O 0.26395 0.88721 0.85615 0.0
C422 C 0.348 0.00731 0.88097 0.0
O423 O 0.31605 0.942 0.82313 0.0
O424 O 0.36943 0.91813 0.84359 0.0
N425 N 0.23858 0.97085 0.84462 0.0
C426 C 0.21572 0.00077 0.85407 0.0
C427 C 0.18325 0.97082 0.82198 0.0
N428 N 0.21843 0.95257 0.82448 0.0
N429 N 0.1808 0.00127 0.84027 0.0
C430 C 0.38624 0.86636 0.92533 0.0
C431 C 0.44637 0.87186 0.91295 0.0
N432 N 0.38744 0.89331 0.90428 0.0
N433 N 0.42486 0.89652 0.89648 0.0
N434 N 0.42256 0.85256 0.93103 0.0
H435 H 0.32327 0.85421 0.92695 0.0
H436 H 0.35328 0.82201 0.94812 0.0
H437 H 0.34512 0.87185 0.9593 0.0
C438 C 0.34976 0.8528 0.94051 0.0
C439 C 0.22591 0.02765 0.87832 0.0
H440 H 0.23163 0.05767 0.86992 0.0
H441 H 0.20071 0.02973 0.8932 0.0
H442 H 0.25238 0.01814 0.89002 0.0
O443 O 0.31547 0.00285 0.86776 0.0
O444 O 0.36528 0.97743 0.89156 0.0
C445 C 0.35105 0.9289 0.82121 0.0
O446 O 0.31006 0.92603 0.92501 0.0
O447 O 0.26004 0.94919 0.90115 0.0
Zn448 Zn 0.57966 0.34537 0.88977 0.0
O449 O 0.62942 0.3104 0.88585 0.0
C450 C 0.55047 0.29077 0.93569 0.0
Zn451 Zn 0.54631 0.2936 0.87292 0.0
C452 C 0.6307 0.27488 0.87768 0.0
O453 O 0.5988 0.2575 0.87084 0.0
C454 C 0.49667 0.36709 0.88293 0.0
O455 O 0.55752 0.31519 0.8316 0.0
O456 O 0.58995 0.36651 0.84796 0.0
N457 N 0.51314 0.2485 0.8562 0.0
C458 C 0.48165 0.22883 0.86646 0.0
C459 C 0.49564 0.20327 0.8265 0.0
N460 N 0.52164 0.23265 0.83129 0.0
N461 N 0.4703 0.20024 0.84832 0.0
C462 C 0.64636 0.38576 0.92413 0.0
C463 C 0.63775 0.44704 0.91619 0.0
N464 N 0.61482 0.38902 0.90674 0.0
N465 N 0.6096 0.42716 0.90178 0.0
N466 N 0.66156 0.42162 0.92999 0.0
H467 H 0.6869 0.33732 0.92465 0.0
H468 H 0.67087 0.35275 0.95913 0.0
H469 H 0.63866 0.32444 0.93694 0.0
C470 C 0.66114 0.34788 0.93695 0.0
C471 C 0.46066 0.23888 0.89341 0.0
H472 H 0.4639 0.2706 0.89853 0.0
H473 H 0.42886 0.2315 0.89172 0.0
H474 H 0.4734 0.22124 0.91095 0.0
O475 O 0.49517 0.33135 0.87451 0.0
O476 O 0.52914 0.38087 0.89214 0.0
C477 C 0.57669 0.34682 0.82703 0.0
O478 O 0.56869 0.32302 0.93146 0.0
O479 O 0.53658 0.2722 0.91456 0.0
Zn480 Zn 0.20637 0.5515 0.86683 0.0
O481 O 0.17575 0.56168 0.82895 0.0
C482 C 0.14462 0.48911 0.8817 0.0
Zn483 Zn 0.15572 0.57255 0.89286 0.0
C484 C 0.14177 0.57763 0.82986 0.0
O485 O 0.12607 0.58522 0.85379 0.0
C486 C 0.22272 0.54753 0.92925 0.0
O487 O 0.18194 0.62727 0.88937 0.0
O488 O 0.23199 0.60988 0.86306 0.0
N489 N 0.1117 0.59955 0.91573 0.0
C490 C 0.11478 0.62999 0.93408 0.0
C491 C 0.05357 0.61731 0.9295 0.0
N492 N 0.0736 0.59168 0.91292 0.0
N493 N 0.07888 0.64198 0.94256 0.0
C494 C 0.27346 0.49262 0.85265 0.0
C495 C 0.30861 0.52438 0.8231 0.0
N496 N 0.25397 0.52641 0.84654 0.0
N497 N 0.27587 0.54601 0.82807 0.0
N498 N 0.30747 0.49057 0.83807 0.0
H499 H 0.24752 0.43723 0.86333 0.0
H500 H 0.28739 0.45136 0.88604 0.0
H501 H 0.24009 0.47443 0.8899 0.0
C502 C 0.26126 0.46263 0.87439 0.0
C503 C 0.15273 0.64729 0.94499 0.0
H504 H 0.15906 0.6751 0.9335 0.0
H505 H 0.14993 0.65464 0.96781 0.0
H506 H 0.17803 0.62727 0.94233 0.0
O507 O 0.18727 0.5593 0.9315 0.0
O508 O 0.23707 0.54273 0.90478 0.0
C509 C 0.21201 0.63681 0.87521 0.0
O510 O 0.17772 0.49493 0.86968 0.0
O511 O 0.12777 0.51748 0.89449 0.0
H512 H 0.63482 0.1005 0.30817 0.0
H513 H 0.53564 0.17056 0.2806 0.0
H514 H 0.5482 0.1525 0.23153 0.0
H515 H 0.59031 0.12116 0.19597 0.0
H516 H 0.691 0.05287 0.22315 0.0
H517 H 0.67483 0.06574 0.27253 0.0
C518 C 0.61565 0.11122 0.29143 0.0
C519 C 0.58459 0.13698 0.29797 0.0
C520 C 0.62352 0.10142 0.26305 0.0
C521 C 0.56006 0.15093 0.27606 0.0
C522 C 0.56719 0.14068 0.24796 0.0
C523 C 0.60851 0.10883 0.21269 0.0
C524 C 0.64196 0.08645 0.2058 0.0
C525 C 0.59937 0.11669 0.24112 0.0
C526 C 0.6652 0.07056 0.22779 0.0
C527 C 0.65599 0.07784 0.25611 0.0
H528 H 0.38298 0.5893 0.19099 0.0
H529 H 0.4754 0.66608 0.22107 0.0
H530 H 0.46139 0.6473 0.26988 0.0
H531 H 0.41732 0.61553 0.3044 0.0
H532 H 0.32338 0.5406 0.274 0.0
H533 H 0.34362 0.55198 0.22535 0.0
C534 C 0.40066 0.60108 0.20819 0.0
C535 C 0.42985 0.62925 0.20247 0.0
C536 C 0.39173 0.59104 0.23634 0.0
C537 C 0.45243 0.64455 0.22499 0.0
C538 C 0.44436 0.63398 0.25295 0.0
C539 C 0.40167 0.60131 0.28714 0.0
C540 C 0.36851 0.57788 0.2929 0.0
C541 C 0.41313 0.60834 0.25897 0.0
C542 C 0.34867 0.55939 0.27024 0.0
C543 C 0.36024 0.56576 0.24231 0.0
H544 H 0.87262 0.40811 0.30815 0.0
H545 H 0.96492 0.33178 0.27738 0.0
H546 H 0.94962 0.35024 0.22871 0.0
H547 H 0.9068 0.38419 0.19444 0.0
H548 H 0.81293 0.45874 0.22514 0.0
H549 H 0.83212 0.44503 0.27387 0.0
C550 C 0.88973 0.39605 0.2908 0.0
C551 C 0.91966 0.36849 0.29641 0.0
C552 C 0.88026 0.40616 0.26267 0.0
C553 C 0.94144 0.35286 0.27365 0.0
C554 C 0.93273 0.36335 0.24575 0.0
C555 C 0.89081 0.39772 0.21178 0.0
C556 C 0.85831 0.42215 0.20604 0.0
C557 C 0.90165 0.38933 0.23994 0.0
C558 C 0.83789 0.43946 0.22885 0.0
C559 C 0.84884 0.43171 0.25682 0.0
H560 H 0.08587 0.89651 0.30732 0.0
H561 H 0.19345 0.9509 0.27805 0.0
H562 H 0.17407 0.93919 0.22902 0.0
H563 H 0.12962 0.90749 0.19451 0.0
H564 H 0.02364 0.85079 0.22419 0.0
H565 H 0.0389 0.87008 0.27275 0.0
C566 C 0.10491 0.90615 0.29023 0.0
C567 C 0.14124 0.92408 0.29642 0.0
C568 C 0.09382 0.89897 0.26203 0.0
C569 C 0.16543 0.93665 0.27395 0.0
C570 C 0.15438 0.93002 0.24584 0.0
C571 C 0.10945 0.90031 0.21155 0.0
C572 C 0.07569 0.87771 0.20587 0.0
C573 C 0.11903 0.91045 0.23962 0.0
C574 C 0.04997 0.86807 0.22814 0.0
C575 C 0.05874 0.87891 0.25593 0.0
H576 H 0.40801 0.87699 0.80454 0.0
H577 H 0.33196 0.96957 0.7736 0.0
H578 H 0.35254 0.95608 0.7251 0.0
H579 H 0.38743 0.9141 0.69098 0.0
H580 H 0.46114 0.81936 0.72162 0.0
H581 H 0.44641 0.83765 0.77042 0.0
C582 C 0.39657 0.89465 0.78721 0.0
C583 C 0.36841 0.92411 0.79267 0.0
C584 C 0.40776 0.88606 0.75917 0.0
C585 C 0.35351 0.94653 0.76995 0.0
C586 C 0.36519 0.9388 0.74217 0.0
C587 C 0.40066 0.89777 0.70833 0.0
C588 C 0.4251 0.86524 0.70256 0.0
C589 C 0.39154 0.90799 0.73644 0.0
C590 C 0.44194 0.84436 0.72537 0.0
C591 C 0.43356 0.85479 0.75336 0.0
H592 H 0.62746 0.40384 0.8089 0.0
H593 H 0.54288 0.31837 0.77872 0.0
H594 H 0.55745 0.33656 0.72987 0.0
H595 H 0.59664 0.37417 0.69553 0.0
H596 H 0.68327 0.4576 0.72558 0.0
H597 H 0.66524 0.443 0.77451 0.0
C598 C 0.61199 0.38942 0.79165 0.0
C599 C 0.58423 0.3597 0.79753 0.0
C600 C 0.62093 0.39959 0.7635 0.0
C601 C 0.56456 0.34121 0.77486 0.0
C602 C 0.57284 0.3516 0.74687 0.0
C603 C 0.61125 0.38951 0.71277 0.0
C604 C 0.64128 0.4169 0.70686 0.0
C605 C 0.60131 0.3804 0.74091 0.0
C606 C 0.66014 0.43626 0.7295 0.0
C607 C 0.64988 0.42791 0.75752 0.0
H608 H 0.05969 0.66384 0.727 0.0
H609 H 0.1374 0.58639 0.68062 0.0
H610 H 0.15934 0.55619 0.72473 0.0
H611 H 0.15959 0.5543 0.7765 0.0
H612 H 0.08142 0.63052 0.82339 0.0
H613 H 0.05616 0.65818 0.77907 0.0
C614 C 0.08127 0.64022 0.72657 0.0
C615 C 0.09712 0.62769 0.70055 0.0
C616 C 0.09367 0.62268 0.75209 0.0
C617 C 0.12474 0.59672 0.70032 0.0
C618 C 0.13739 0.57942 0.72556 0.0
C619 C 0.13673 0.57669 0.77705 0.0
C620 C 0.12264 0.59051 0.80321 0.0
C621 C 0.12248 0.59252 0.75156 0.0
C622 C 0.09275 0.61927 0.80353 0.0
C623 C 0.07846 0.6353 0.77819 0.0
H624 H 0.84117 0.05585 0.72876 0.0
H625 H 0.91559 0.13684 0.68287 0.0
H626 H 0.94094 0.16334 0.72746 0.0
H627 H 0.93937 0.16579 0.77972 0.0
H628 H 0.8658 0.08318 0.825 0.0
H629 H 0.84293 0.05517 0.78051 0.0
C630 C 0.86314 0.07911 0.7285 0.0
C631 C 0.87624 0.09448 0.70255 0.0
C632 C 0.87766 0.09414 0.75416 0.0
C633 C 0.90502 0.12439 0.70258 0.0
C634 C 0.91942 0.13972 0.72807 0.0
C635 C 0.9185 0.14155 0.77981 0.0
C636 C 0.90418 0.12686 0.80568 0.0
C637 C 0.90554 0.1252 0.75403 0.0
C638 C 0.87737 0.09516 0.80544 0.0
C639 C 0.86414 0.07908 0.77997 0.0
H640 H 0.44386 0.14536 0.3438 0.0
H641 H 0.47702 0.08651 0.42132 0.0
H642 H 0.4205 0.04207 0.41669 0.0
H643 H 0.36353 0.01811 0.38931 0.0
H644 H 0.33297 0.07376 0.31037 0.0
H645 H 0.38712 0.12119 0.31639 0.0
C646 C 0.43832 0.12316 0.35988 0.0
C647 C 0.46418 0.11933 0.38301 0.0
C648 C 0.40668 0.09696 0.35655 0.0
C649 C 0.45731 0.08999 0.4034 0.0
C650 C 0.42515 0.06455 0.40071 0.0
C651 C 0.36869 0.04097 0.37368 0.0
C652 C 0.34441 0.04316 0.34965 0.0
C653 C 0.39999 0.06748 0.3772 0.0
C654 C 0.35156 0.07195 0.329 0.0
C655 C 0.38226 0.09898 0.33253 0.0
H656 H 0.35273 0.43729 0.33918 0.0
H657 H 0.41406 0.46921 0.416 0.0
H658 H 0.45708 0.41172 0.41103 0.0
H659 H 0.47991 0.35502 0.38317 0.0
H660 H 0.42201 0.3252 0.30495 0.0
H661 H 0.37511 0.3798 0.31164 0.0
C662 C 0.3751 0.43122 0.35505 0.0
C663 C 0.38016 0.45714 0.37803 0.0
C664 C 0.40056 0.39898 0.35151 0.0
C665 C 0.40967 0.44952 0.39819 0.0
C666 C 0.43432 0.41682 0.3953 0.0
C667 C 0.45656 0.36031 0.36792 0.0
C668 C 0.45363 0.33623 0.34387 0.0
C669 C 0.43043 0.3918 0.37182 0.0
C670 C 0.42432 0.34363 0.32361 0.0
C671 C 0.39763 0.37459 0.32753 0.0
H672 H 0.06439 0.35335 0.33665 0.0
H673 H 0.04025 0.40751 0.41746 0.0
H674 H 0.09727 0.45095 0.41174 0.0
H675 H 0.15139 0.47637 0.38232 0.0
H676 H 0.17281 0.42626 0.30015 0.0
H677 H 0.11918 0.37841 0.30743 0.0
C678 C 0.07213 0.3742 0.35319 0.0
C679 C 0.04852 0.37712 0.37755 0.0
C680 C 0.10401 0.40004 0.34925 0.0
C681 C 0.05819 0.40476 0.39859 0.0
C682 C 0.09061 0.42965 0.39528 0.0
C683 C 0.14426 0.45463 0.36624 0.0
C684 C 0.16574 0.45414 0.34091 0.0
C685 C 0.11324 0.42802 0.37049 0.0
C686 C 0.15639 0.42666 0.31979 0.0
C687 C 0.12596 0.39944 0.32403 0.0
H688 H 0.06913 0.02012 0.38011 0.0
H689 H 0.1802 0.08183 0.37506 0.0
H690 H 0.14588 0.14234 0.3614 0.0
H691 H 0.08448 0.17674 0.34831 0.0
H692 H 0.97374 0.115 0.35321 0.0
H693 H 0.00781 0.055 0.36849 0.0
C694 C 0.08578 0.04698 0.37652 0.0
C695 C 0.12713 0.04651 0.37877 0.0
C696 C 0.06598 0.08139 0.36799 0.0
C697 C 0.14831 0.08144 0.37358 0.0
C698 C 0.12875 0.11599 0.36558 0.0
C699 C 0.06787 0.15031 0.35315 0.0
C700 C 0.02668 0.15033 0.35 0.0
C701 C 0.08765 0.11615 0.36229 0.0
C702 C 0.00553 0.1155 0.35537 0.0
C703 C 0.02494 0.08137 0.36435 0.0
H704 H 0.93745 0.85604 0.15971 0.0
H705 H 0.96557 0.90515 0.07793 0.0
H706 H 0.90854 0.94922 0.08099 0.0
H707 H 0.85392 0.9774 0.10873 0.0
H708 H 0.82904 0.93227 0.19195 0.0
H709 H 0.88198 0.88328 0.18695 0.0
C710 C 0.93057 0.87585 0.14233 0.0
C711 C 0.95535 0.87718 0.1185 0.0
C712 C 0.89878 0.90218 0.14479 0.0
C713 C 0.94673 0.90356 0.0964 0.0
C714 C 0.9143 0.92886 0.09822 0.0
C715 C 0.8598 0.95629 0.12546 0.0
C716 C 0.83758 0.95775 0.1505 0.0
C717 C 0.89063 0.92897 0.12256 0.0
C718 C 0.84596 0.93132 0.17254 0.0
C719 C 0.87603 0.90338 0.1696 0.0
H720 H 0.57567 0.82805 0.15204 0.0
H721 H 0.4662 0.89225 0.15444 0.0
H722 H 0.50043 0.953 0.14084 0.0
H723 H 0.56154 0.98759 0.12812 0.0
H724 H 0.67154 0.92361 0.12674 0.0
H725 H 0.63702 0.86269 0.13915 0.0
C726 C 0.55942 0.85532 0.14928 0.0
C727 C 0.51852 0.85579 0.15388 0.0
C728 C 0.57931 0.88993 0.1413 0.0
C729 C 0.49777 0.89143 0.1511 0.0
C730 C 0.51726 0.92598 0.14311 0.0
C731 C 0.57787 0.9602 0.13014 0.0
C732 C 0.61898 0.96004 0.12626 0.0
C733 C 0.558 0.92553 0.13799 0.0
C734 C 0.63984 0.92446 0.12949 0.0
C735 C 0.62016 0.88967 0.13672 0.0
H736 H 0.5589 0.65527 0.15819 0.0
H737 H 0.54234 0.61245 0.07302 0.0
H738 H 0.60023 0.5698 0.07796 0.0
H739 H 0.65148 0.5399 0.10824 0.0
H740 H 0.66423 0.57784 0.19466 0.0
H741 H 0.61167 0.62698 0.18791 0.0
C742 C 0.56868 0.63736 0.1405 0.0
C743 C 0.54685 0.6373 0.11513 0.0
C744 C 0.60079 0.61155 0.14401 0.0
C745 C 0.55901 0.61316 0.09262 0.0
C746 C 0.59187 0.5886 0.09552 0.0
C747 C 0.64296 0.55949 0.12533 0.0
C748 C 0.66166 0.55599 0.15177 0.0
C749 C 0.61231 0.5868 0.12136 0.0
C750 C 0.65013 0.58053 0.17415 0.0
C751 C 0.62025 0.6085 0.17023 0.0
H752 H 0.98068 0.64914 0.12423 0.0
H753 H 0.92141 0.6748 0.20248 0.0
H754 H 0.87424 0.621 0.19355 0.0
H755 H 0.85145 0.56561 0.16377 0.0
H756 H 0.91415 0.53746 0.08697 0.0
H757 H 0.95816 0.59368 0.09456 0.0
C758 C 0.95726 0.64276 0.13915 0.0
C759 C 0.95395 0.66559 0.16383 0.0
C760 C 0.9309 0.61169 0.13395 0.0
C761 C 0.92409 0.65732 0.18339 0.0
C762 C 0.89723 0.62679 0.17819 0.0
C763 C 0.87439 0.5722 0.14851 0.0
C764 C 0.87939 0.54772 0.1247 0.0
C765 C 0.90041 0.60372 0.15355 0.0
C766 C 0.90971 0.55601 0.10538 0.0
C767 C 0.93493 0.58802 0.10977 0.0
H768 H 0.65426 0.97871 0.61983 0.0
H769 H 0.67868 0.91856 0.69812 0.0
H770 H 0.6241 0.87241 0.68896 0.0
H771 H 0.56817 0.85092 0.6591 0.0
H772 H 0.54128 0.91474 0.58241 0.0
H773 H 0.59864 0.95727 0.58996 0.0
C774 C 0.64773 0.95514 0.63462 0.0
C775 C 0.67042 0.9514 0.65939 0.0
C776 C 0.61615 0.92938 0.62932 0.0
C777 C 0.66141 0.92162 0.67892 0.0
C778 C 0.63042 0.89531 0.6736 0.0
C779 C 0.57534 0.87371 0.64381 0.0
C780 C 0.55088 0.87944 0.62003 0.0
C781 C 0.6075 0.89899 0.64889 0.0
C782 C 0.55986 0.90967 0.60075 0.0
C783 C 0.59251 0.93407 0.60513 0.0
H784 H 0.6458 0.55764 0.6569 0.0
H785 H 0.58649 0.52383 0.57976 0.0
H786 H 0.54321 0.58149 0.58348 0.0
H787 H 0.5202 0.63986 0.61007 0.0
H788 H 0.57548 0.67012 0.6892 0.0
H789 H 0.62228 0.61533 0.68369 0.0
C790 C 0.62376 0.56329 0.6407 0.0
C791 C 0.61957 0.53691 0.61789 0.0
C792 C 0.59806 0.59555 0.6436 0.0
C793 C 0.59033 0.54392 0.59741 0.0
C794 C 0.56554 0.57676 0.59958 0.0
C795 C 0.54281 0.63445 0.62587 0.0
C796 C 0.54499 0.65889 0.64984 0.0
C797 C 0.56882 0.60248 0.62277 0.0
C798 C 0.57359 0.65146 0.67063 0.0
C799 C 0.60028 0.62033 0.6674 0.0
H800 H 0.94327 0.64468 0.65899 0.0
H801 H 0.97683 0.58418 0.58232 0.0
H802 H 0.91865 0.54181 0.58598 0.0
H803 H 0.86005 0.51969 0.61244 0.0
H804 H 0.82927 0.57679 0.69071 0.0
H805 H 0.8847 0.62274 0.68525 0.0
C806 C 0.93757 0.62253 0.6429 0.0
C807 C 0.96416 0.61768 0.62033 0.0
C808 C 0.90476 0.59754 0.64562 0.0
C809 C 0.95677 0.58845 0.59989 0.0
C810 C 0.92357 0.56421 0.602 0.0
C811 C 0.86531 0.54265 0.62798 0.0
C812 C 0.84057 0.54553 0.65171 0.0
C813 C 0.89764 0.56817 0.62494 0.0
C814 C 0.84804 0.57444 0.67226 0.0
C815 C 0.87959 0.6006 0.66909 0.0
H816 H 0.8626 0.94061 0.66373 0.0
H817 H 0.92397 0.97007 0.58659 0.0
H818 H 0.96703 0.91271 0.59276 0.0
H819 H 0.98855 0.85539 0.62101 0.0
H820 H 0.93016 0.8282 0.69939 0.0
H821 H 0.88471 0.8839 0.69222 0.0
C822 C 0.88511 0.9342 0.64809 0.0
C823 C 0.8899 0.9593 0.62457 0.0
C824 C 0.91044 0.90191 0.65224 0.0
C825 C 0.91967 0.9511 0.6048 0.0
C826 C 0.94432 0.9184 0.60836 0.0
C827 C 0.96557 0.86166 0.63629 0.0
C828 C 0.96202 0.83781 0.66048 0.0
C829 C 0.94017 0.89384 0.6321 0.0
C830 C 0.93303 0.84639 0.68064 0.0
C831 C 0.90713 0.87801 0.67645 0.0
H832 H 0.01528 0.06243 0.87994 0.0
H833 H 0.07627 0.17403 0.87674 0.0
H834 H 0.13683 0.14055 0.86215 0.0
H835 H 0.1717 0.0796 0.8482 0.0
H836 H 0.11007 0.96859 0.85011 0.0
H837 H 0.05019 0.00175 0.86651 0.0
C838 C 0.04201 0.07934 0.87653 0.0
C839 C 0.04139 0.12061 0.8797 0.0
C840 C 0.07638 0.06004 0.86734 0.0
C841 C 0.07605 0.1422 0.87459 0.0
C842 C 0.11062 0.1231 0.86609 0.0
C843 C 0.14522 0.06278 0.85249 0.0
C844 C 0.14526 0.02173 0.84822 0.0
C845 C 0.111 0.08209 0.86203 0.0
C846 C 0.11052 1.00026 0.85311 0.0
C847 C 0.07646 0.01916 0.8627 0.0
H848 H 0.34457 0.06511 0.84126 0.0
H849 H 0.39758 0.03532 0.92157 0.0
H850 H 0.43798 0.09502 0.9197 0.0
H851 H 0.46268 0.15231 0.89308 0.0
H852 H 0.41409 0.17919 0.81109 0.0
H853 H 0.36765 0.12395 0.81544 0.0
C854 C 0.3644 0.07218 0.85859 0.0
C855 C 0.36798 0.04604 0.8816 0.0
C856 C 0.38865 0.10575 0.85682 0.0
C857 C 0.39433 0.05507 0.90367 0.0
C858 C 0.41752 0.08909 0.90256 0.0
C859 C 0.44125 0.14649 0.87654 0.0
C860 C 0.44114 0.16992 0.852 0.0
C861 C 0.41557 0.11416 0.87895 0.0
C862 C 0.4143 0.16149 0.83018 0.0
C863 C 0.38788 0.13 0.83271 0.0
H864 H 0.42638 0.35118 0.85681 0.0
H865 H 0.49055 0.44403 0.89934 0.0
H866 H 0.43842 0.4909 0.88784 0.0
H867 H 0.37504 0.5063 0.86464 0.0
H868 H 0.30964 0.41397 0.82354 0.0
H869 H 0.36182 0.36613 0.83508 0.0
C870 C 0.42877 0.38155 0.86385 0.0
C871 C 0.46248 0.39395 0.87892 0.0
C872 C 0.39873 0.4086 0.85695 0.0
C873 C 0.46503 0.43353 0.88775 0.0
C874 C 0.4353 0.46051 0.88104 0.0
C875 C 0.37277 0.47577 0.85796 0.0
C876 C 0.33938 0.4635 0.84277 0.0
C877 C 0.40231 0.44853 0.86533 0.0
C878 C 0.33567 0.42382 0.83481 0.0
C879 C 0.36527 0.3966 0.8416 0.0
H880 H 0.0661 0.47595 0.88561 0.0
H881 H 0.17626 0.41731 0.86805 0.0
H882 H 0.14086 0.35626 0.85704 0.0
H883 H 0.07791 0.32026 0.85048 0.0
H884 H 0.96822 0.38026 0.86596 0.0
H885 H 0.00386 0.44036 0.87926 0.0
C886 C 0.08244 0.44967 0.87978 0.0
C887 C 0.1238 0.45108 0.87789 0.0
C888 C 0.06184 0.41511 0.87269 0.0
C889 C 0.14444 0.41695 0.86976 0.0
C890 C 0.1242 0.38208 0.86335 0.0
C891 C 0.06208 0.34652 0.85698 0.0
C892 C 0.02068 0.34611 0.85745 0.0
C893 C 0.08285 0.38095 0.86441 0.0
C894 C 1.00014 0.3803 0.86535 0.0
C895 C 0.02049 0.41444 0.87309 0.0
H896 H 0.7073 0.18791 0.37137 0.0
H897 H 0.65754 0.30503 0.36756 0.0
H898 H 0.72411 0.33338 0.36705 0.0
H899 H 0.79607 0.32446 0.36973 0.0
H900 H 0.84516 0.20708 0.37299 0.0
H901 H 0.77875 0.17894 0.37149 0.0
C902 C 0.71095 0.21969 0.37039 0.0
C903 C 0.67762 0.24445 0.36985 0.0
C904 C 0.74901 0.23555 0.37009 0.0
C905 C 0.68278 0.28545 0.36802 0.0
C906 C 0.72077 0.30159 0.36785 0.0
C907 C 0.79219 0.29275 0.37032 0.0
C908 C 0.82533 0.26783 0.37201 0.0
C909 C 0.75403 0.27689 0.36929 0.0
C910 C 0.82004 0.22678 0.37182 0.0
C911 C 0.78214 0.21074 0.37103 0.0
H912 H 0.32022 0.70678 0.37569 0.0
H913 H 0.20573 0.65757 0.3568 0.0
H914 H 0.17737 0.72404 0.35576 0.0
H915 H 0.18504 0.79578 0.36161 0.0
H916 H 0.2995 0.84453 0.38064 0.0
H917 H 0.32832 0.7783 0.37966 0.0
C918 C 0.28903 0.71049 0.37131 0.0
C919 C 0.26501 0.67721 0.36658 0.0
C920 C 0.27306 0.74862 0.37071 0.0
C921 C 0.22481 0.68266 0.36055 0.0
C922 C 0.20861 0.72063 0.36001 0.0
C923 C 0.21618 0.79182 0.36588 0.0
C924 C 0.24 0.8248 0.37184 0.0
C925 C 0.2324 0.75374 0.36537 0.0
C926 C 0.2806 0.81952 0.37614 0.0
C927 C 0.29701 0.7817 0.37569 0.0
H928 H 0.3208 0.78024 0.14863 0.0
H929 H 0.29895 0.6567 0.1331 0.0
H930 H 0.22825 0.66728 0.13702 0.0
H931 H 0.17172 0.71287 0.14001 0.0
H932 H 0.19361 0.83676 0.15335 0.0
H933 H 0.26439 0.82481 0.15569 0.0
C934 C 0.30054 0.75565 0.14652 0.0
C935 C 0.31513 0.71801 0.1401 0.0
C936 C 0.2596 0.76196 0.14838 0.0
C937 C 0.28848 0.68628 0.13748 0.0
C938 C 0.24793 0.69218 0.13982 0.0
C939 C 0.19204 0.73693 0.14411 0.0
C940 C 0.17764 0.77552 0.14641 0.0
C941 C 0.233 0.73006 0.14457 0.0
C942 C 0.2042 0.80671 0.15136 0.0
C943 C 0.24471 0.79998 0.15261 0.0
H944 H 0.81518 0.29959 0.12573 0.0
H945 H 0.69798 0.34908 0.12838 0.0
H946 H 0.66978 0.28247 0.12786 0.0
H947 H 0.67864 0.21047 0.12558 0.0
H948 H 0.79603 0.16121 0.12503 0.0
H949 H 0.82409 0.22777 0.1258 0.0
C950 C 0.78342 0.29588 0.12622 0.0
C951 C 0.75865 0.32929 0.12687 0.0
C952 C 0.76756 0.25763 0.12624 0.0
C953 C 0.71764 0.3239 0.1279 0.0
C954 C 0.70155 0.28584 0.12751 0.0
C955 C 0.7104 0.21426 0.12562 0.0
C956 C 0.73528 0.18091 0.12502 0.0
C957 C 0.72625 0.25254 0.12649 0.0
C958 C 0.7763 0.18635 0.12548 0.0
C959 C 0.79232 0.22438 0.12587 0.0
H960 H 0.21029 0.68644 0.62541 0.0
H961 H 0.15955 0.80254 0.63444 0.0
H962 H 0.2258 0.83162 0.63452 0.0
H963 H 0.29786 0.82382 0.63047 0.0
H964 H 0.34798 0.70736 0.62228 0.0
H965 H 0.28193 0.67843 0.62359 0.0
C966 C 0.21364 0.71816 0.62737 0.0
C967 C 0.18003 0.7424 0.62957 0.0
C968 C 0.25162 0.73448 0.62752 0.0
C969 C 0.18494 0.7833 0.63267 0.0
C970 C 0.22278 0.79989 0.63262 0.0
C971 C 0.29431 0.79214 0.62879 0.0
C972 C 0.32773 0.76778 0.62583 0.0
C973 C 0.25628 0.77576 0.62975 0.0
C974 C 0.32274 0.72671 0.6245 0.0
C975 C 0.285 0.7102 0.62518 0.0
H976 H 0.82073 0.20239 0.63005 0.0
H977 H 0.70368 0.15389 0.63858 0.0
H978 H 0.67631 0.22077 0.64128 0.0
H979 H 0.68565 0.29242 0.6388 0.0
H980 H 0.80282 0.3409 0.63101 0.0
H981 H 0.83048 0.27406 0.63075 0.0
C982 C 0.78918 0.20641 0.6325 0.0
C983 C 0.76408 0.17333 0.63369 0.0
C984 C 0.77388 0.24472 0.63424 0.0
C985 C 0.72347 0.17893 0.63749 0.0
C986 C 0.70789 0.21709 0.63898 0.0
C987 C 0.71731 0.28841 0.63721 0.0
C988 C 0.74222 0.32149 0.63464 0.0
C989 C 0.73281 0.25011 0.63703 0.0
C990 C 0.78313 0.3159 0.63304 0.0
C991 C 0.79886 0.27774 0.63273 0.0
H992 H 0.78702 0.17378 0.88524 0.0
H993 H 0.83776 0.28982 0.87521 0.0
H994 H 0.77193 0.31846 0.87159 0.0
H995 H 0.70062 0.31095 0.87209 0.0
H996 H 0.64834 0.19557 0.8808 0.0
H997 H 0.71442 0.16595 0.88359 0.0
C998 C 0.78361 0.20535 0.88233 0.0
C999 C 0.81723 0.22974 0.88073 0.0
C1000 C 0.74559 0.22158 0.8798 0.0
C1001 C 0.8124 0.27047 0.87655 0.0
C1002 C 0.77479 0.28685 0.87446 0.0
C1003 C 0.70358 0.27924 0.87454 0.0
C1004 C 0.66969 0.25545 0.8765 0.0
C1005 C 0.7413 0.26271 0.87613 0.0
C1006 C 0.67401 0.21443 0.87918 0.0
C1007 C 0.71174 0.19761 0.88095 0.0
H1008 H 0.21461 0.82296 0.87018 0.0
H1009 H 0.33611 0.80107 0.84885 0.0
H1010 H 0.32428 0.73 0.8486 0.0
H1011 H 0.28047 0.67344 0.85842 0.0
H1012 H 0.15977 0.69623 0.88229 0.0
H1013 H 0.1702 0.76672 0.87776 0.0
C1014 C 0.23813 0.80256 0.86487 0.0
C1015 C 0.27599 0.81703 0.85945 0.0
C1016 C 0.2315 0.7616 0.86577 0.0
C1017 C 0.30658 0.7904 0.8531 0.0
C1018 C 0.29994 0.74976 0.85308 0.0
C1019 C 0.25653 0.69389 0.86248 0.0
C1020 C 0.21975 0.67946 0.8712 0.0
C1021 C 0.26272 0.73488 0.8601 0.0
C1022 C 0.18882 0.70641 0.8762 0.0
C1023 C 0.19455 0.7469 0.87341 0.0
H1024 H 0.65068 0.03914 0.48117 0.0
H1025 H 0.73546 0.10726 0.43439 0.0
H1026 H 0.78392 0.09909 0.47256 0.0
H1027 H 0.79946 0.07796 0.52128 0.0
H1028 H 0.71273 0.01213 0.56855 0.0
H1029 H 0.66822 0.01321 0.52818 0.0
C1030 C 0.68007 0.05144 0.47923 0.0
C1031 C 0.68949 0.07424 0.45541 0.0
C1032 C 0.70737 0.04711 0.50143 0.0
C1033 C 0.72753 0.09022 0.45292 0.0
C1034 C 0.75515 0.0855 0.47468 0.0
C1035 C 0.77113 0.06324 0.52258 0.0
C1036 C 0.75964 0.04489 0.54801 0.0
C1037 C 0.74503 0.06488 0.4994 0.0
C1038 C 0.72263 0.02621 0.5493 0.0
C1039 C 0.69692 0.02702 0.52621 0.0
H1040 H 0.47776 0.71619 0.55089 0.0
H1041 H 0.41545 0.81653 0.51661 0.0
H1042 H 0.40582 0.78138 0.47195 0.0
H1043 H 0.41101 0.72013 0.44376 0.0
H1044 H 0.47243 0.61993 0.47846 0.0
H1045 H 0.48738 0.65724 0.52158 0.0
C1046 C 0.46261 0.73069 0.53357 0.0
C1047 C 0.44723 0.76894 0.53728 0.0
C1048 C 0.4569 0.7102 0.508 0.0
C1049 C 0.4276 0.78712 0.51445 0.0
C1050 C 0.42194 0.76698 0.48889 0.0
C1051 C 0.42762 0.70662 0.46083 0.0
C1052 C 0.43998 0.66715 0.45828 0.0
C1053 C 0.43572 0.72819 0.48564 0.0
C1054 C 0.46255 0.65023 0.48009 0.0
C1055 C 0.47088 0.67148 0.50475 0.0
H1056 H 0.80221 0.38621 0.45756 0.0
H1057 H 0.86496 0.49491 0.47243 0.0
H1058 H 0.8222 0.50915 0.51282 0.0
H1059 H 0.77079 0.48744 0.54634 0.0
H1060 H 0.70577 0.38074 0.52902 0.0
H1061 H 0.74457 0.36987 0.48628 0.0
C1062 C 0.80555 0.41397 0.46853 0.0
C1063 C 0.83657 0.43979 0.46141 0.0
C1064 C 0.78057 0.42217 0.49154 0.0
C1065 C 0.84126 0.47462 0.4773 0.0
C1066 C 0.81688 0.48272 0.50046 0.0
C1067 C 0.76483 0.4621 0.53301 0.0
C1068 C 0.73585 0.43463 0.54115 0.0
C1069 C 0.78706 0.45619 0.50822 0.0
C1070 C 0.72796 0.4023 0.52336 0.0
C1071 C 0.75029 0.39594 0.49894 0.0
H1072 H 0.10096 0.71803 0.52486 0.0
H1073 H 0.99484 0.77107 0.5574 0.0
H1074 H 0.99051 0.81373 0.51579 0.0
H1075 H 0.02102 0.84076 0.47259 0.0
H1076 H 0.13132 0.79193 0.44381 0.0
H1077 H 0.129 0.74218 0.48038 0.0
C1078 C 0.0765 0.73844 0.52259 0.0
C1079 C 0.0486 0.74188 0.5444 0.0
C1080 C 0.07475 0.7635 0.49892 0.0
C1081 C 0.01719 0.76856 0.54123 0.0
C1082 C 0.0146 0.79281 0.51734 0.0
C1083 C 0.04403 0.81862 0.47398 0.0
C1084 C 0.07548 0.8196 0.45456 0.0
C1085 C 0.04386 0.79131 0.49642 0.0
C1086 C 0.10556 0.79111 0.45709 0.0
C1087 C 0.10479 0.76294 0.47864 0.0
H1088 H 0.29101 0.91321 0.97878 0.0
H1089 H 0.20265 0.97292 0.92856 0.0
H1090 H 0.15821 0.97418 0.96867 0.0
H1091 H 0.14157 0.95353 0.0169 0.0
H1092 H 0.2281 0.89331 0.0677 0.0
H1093 H 0.27592 0.89709 0.02886 0.0
C1094 C 0.26221 0.92678 0.97672 0.0
C1095 C 0.25028 0.94256 0.95049 0.0
C1096 C 0.23618 0.92708 1.00001 0.0
C1097 C 0.21278 0.96025 0.94833 0.0
C1098 C 0.18713 0.96103 0.97131 0.0
C1099 C 0.17116 0.94193 0.01953 0.0
C1100 C 0.18118 0.92257 0.04476 0.0
C1101 C 0.19816 0.94389 0.99707 0.0
C1102 C 0.21957 0.90759 0.04811 0.0
C1103 C 0.24687 0.90981 0.02595 0.0
H1104 H 0.58419 0.2244 0.05831 0.0
H1105 H 0.51854 0.12614 0.02493 0.0
H1106 H 0.50405 0.16352 0.9817 0.0
H1107 H 0.5165 0.2212 0.9515 0.0
H1108 H 0.58382 0.31915 0.98443 0.0
H1109 H 0.59141 0.28491 0.02962 0.0
C1110 C 0.56654 0.21143 0.04157 0.0
C1111 C 0.55302 0.1724 0.04444 0.0
C1112 C 0.55898 0.2329 0.01664 0.0
C1113 C 0.52929 0.1561 0.02305 0.0
C1114 C 0.52128 0.17737 0.9983 0.0
C1115 C 0.53222 0.23545 0.96867 0.0
C1116 C 0.54971 0.27269 0.96438 0.0
C1117 C 0.53689 0.21539 0.99455 0.0
C1118 C 0.57005 0.29054 0.98701 0.0
C1119 C 0.57456 0.27089 0.01289 0.0
H1120 H 0.20872 0.56848 0.9844 0.0
H1121 H 0.2959 0.51483 0.93009 0.0
H1122 H 0.34351 0.51481 0.96868 0.0
H1123 H 0.36318 0.53728 0.01623 0.0
H1124 H 0.27693 0.5908 0.07074 0.0
H1125 H 0.22622 0.58331 0.03409 0.0
C1126 C 0.23788 0.55614 0.98119 0.0
C1127 C 0.24878 0.54225 0.95424 0.0
C1128 C 0.26553 0.55654 0.0035 0.0
C1129 C 0.28675 0.52623 0.95049 0.0
C1130 C 0.31413 0.52618 0.97257 0.0
C1131 C 0.33303 0.54635 0.02019 0.0
C1132 C 0.32382 0.56529 0.04573 0.0
C1133 C 0.30426 0.5423 0.99891 0.0
C1134 C 0.28471 0.57697 0.05086 0.0
C1135 C 0.25578 0.57266 0.02994 0.0
H1136 H 0.91026 0.28425 0.05892 0.0
H1137 H 0.96886 0.38359 0.02094 0.0
H1138 H 0.98308 0.34442 0.97851 0.0
H1139 H 0.97298 0.28391 0.95061 0.0
H1140 H 0.91387 0.18439 0.9887 0.0
H1141 H 0.90579 0.2214 0.03263 0.0
C1142 C 0.92636 0.29704 0.04136 0.0
C1143 C 0.93801 0.33679 0.0427 0.0
C1144 C 0.93408 0.27438 0.01703 0.0
C1145 C 0.9596 0.35303 0.02021 0.0
C1146 C 0.96749 0.33071 0.99595 0.0
C1147 C 0.95887 0.27007 0.96864 0.0
C1148 C 0.9438 0.23148 0.96618 0.0
C1149 C 0.95404 0.29164 0.99386 0.0
C1150 C 0.92575 0.21402 0.98989 0.0
C1151 C 0.92092 0.23524 0.01504 0.0
H1152 H 0.30187 0.89145 0.54515 0.0
H1153 H 0.36235 0.00198 0.53261 0.0
H1154 H 0.3195 0.01667 0.49223 0.0
H1155 H 0.26926 0.99457 0.45776 0.0
H1156 H 0.20621 0.88615 0.47302 0.0
H1157 H 0.24465 0.87497 0.51607 0.0
C1158 C 0.30463 0.91971 0.53479 0.0
C1159 C 0.33514 0.94586 0.54245 0.0
C1160 C 0.27957 0.92817 0.51184 0.0
C1161 C 0.33906 0.9814 0.52729 0.0
C1162 C 0.31466 0.98976 0.50413 0.0
C1163 C 0.26357 0.96887 0.4708 0.0
C1164 C 0.23534 0.94099 0.46207 0.0
C1165 C 0.28552 0.96281 0.49574 0.0
C1166 C 0.22778 0.90807 0.47932 0.0
C1167 C 0.24992 0.90152 0.50385 0.0
H1168 H 0.53751 0.34875 0.52779 0.0
H1169 H 0.59923 0.26002 0.57555 0.0
H1170 H 0.59503 0.21418 0.5354 0.0
H1171 H 0.58025 0.20268 0.48468 0.0
H1172 H 0.52072 0.29399 0.43718 0.0
H1173 H 0.51704 0.33503 0.47907 0.0
C1174 C 0.54897 0.31896 0.52955 0.0
C1175 C 0.56892 0.30769 0.55424 0.0
C1176 C 0.54723 0.29338 0.50624 0.0
C1177 C 0.58409 0.26923 0.55645 0.0
C1178 C 0.58183 0.24319 0.5335 0.0
C1179 C 0.566 0.2313 0.48363 0.0
C1180 C 0.55081 0.24506 0.45769 0.0
C1181 C 0.5646 0.25544 0.50791 0.0
C1182 C 0.53247 0.28233 0.45676 0.0
C1183 C 0.53046 0.30608 0.48076 0.0
H1184 H 0.29827 0.58566 0.47828 0.0
H1185 H 0.21648 0.51004 0.43375 0.0
H1186 H 0.17336 0.50872 0.47478 0.0
H1187 H 0.15473 0.53547 0.52115 0.0
H1188 H 0.23536 0.61099 0.56603 0.0
H1189 H 0.28317 0.60574 0.52736 0.0
C1190 C 0.27137 0.56837 0.47778 0.0
C1191 C 0.26039 0.54855 0.45283 0.0
C1192 C 0.24623 0.56805 0.50144 0.0
C1193 C 0.22546 0.52609 0.45254 0.0
C1194 C 0.20067 0.52525 0.47601 0.0
C1195 C 0.18317 0.54995 0.52261 0.0
C1196 C 0.1913 0.57435 0.54582 0.0
C1197 C 0.21015 0.54705 0.50023 0.0
C1198 C 0.22823 0.59295 0.54782 0.0
C1199 C 0.25551 0.58987 0.52579 0.0
H1200 H 0.969 0.15225 0.52299 0.0
H1201 H 0.89023 0.23 0.56745 0.0
H1202 H 0.8957 0.27904 0.52952 0.0
H1203 H 0.91732 0.29617 0.4811 0.0
H1204 H 0.99598 0.21716 0.43697 0.0
H1205 H 0.99683 0.17282 0.47739 0.0
C1206 C 0.95377 0.18031 0.52452 0.0
C1207 C 0.92844 0.18722 0.54739 0.0
C1208 C 0.95686 0.20805 0.50258 0.0
C1209 C 0.90894 0.2237 0.54947 0.0
C1210 C 0.91219 0.25173 0.52787 0.0
C1211 C 0.93518 0.26962 0.48056 0.0
C1212 C 0.95609 0.25981 0.45586 0.0
C1213 C 0.93511 0.24369 0.50385 0.0
C1214 C 0.9792 0.22529 0.45555 0.0
C1215 C 0.97972 0.19978 0.47868 0.0
H1216 H 0.77794 0.08203 0.94576 0.0
H1217 H 0.87199 0.01311 0.98201 0.0
H1218 H 0.83165 0.99965 0.02389 0.0
H1219 H 0.77421 0.01607 0.05264 0.0
H1220 H 0.68125 0.08846 0.01794 0.0
H1221 H 0.71658 0.09234 0.97288 0.0
C1222 C 0.78927 0.06383 0.9628 0.0
C1223 C 0.82806 0.04935 0.96137 0.0
C1224 C 0.76638 0.05741 0.98709 0.0
C1225 C 0.84225 0.02468 0.98294 0.0
C1226 C 0.81935 0.01733 0.00689 0.0
C1227 C 0.76127 0.03215 0.03514 0.0
C1228 C 0.72542 0.05237 0.03881 0.0
C1229 C 0.78205 0.03485 0.00963 0.0
C1230 C 0.7089 0.07277 0.01574 0.0
C1231 C 0.72917 0.07513 0.99001 0.0
H1232 H 0.42163 0.86913 0.98573 0.0
H1233 H 0.4445 0.77643 0.92601 0.0
H1234 H 0.45 0.72821 0.96491 0.0
H1235 H 0.44413 0.71246 0.01638 0.0
H1236 H 0.422 0.80762 0.07511 0.0
H1237 H 0.41998 0.85468 0.03641 0.0
C1238 C 0.42875 0.83848 0.9815 0.0
C1239 C 0.43326 0.8261 0.95345 0.0
C1240 C 0.43123 0.81132 0.00379 0.0
C1241 C 0.44172 0.78638 0.9477 0.0
C1242 C 0.44435 0.75891 0.96987 0.0
C1243 C 0.43886 0.74347 0.02056 0.0
C1244 C 0.43304 0.7564 0.04858 0.0
C1245 C 0.43839 0.77092 0.99805 0.0
C1246 C 0.42667 0.7968 0.05377 0.0
C1247 C 0.42553 0.82388 0.03166 0.0
H1248 H 0.79794 0.41939 0.0189 0.0
H1249 H 0.71947 0.5021 0.05962 0.0
H1250 H 0.67719 0.50286 0.01796 0.0
H1251 H 0.65772 0.47351 0.97246 0.0
H1252 H 0.73496 0.39064 0.93153 0.0
H1253 H 0.78258 0.39662 0.9704 0.0
C1254 C 0.77205 0.43817 0.0184 0.0
C1255 C 0.76166 0.46017 0.04252 0.0
C1256 C 0.7473 0.43808 0.99441 0.0
C1257 C 0.72797 0.48444 0.0415 0.0
C1258 C 0.70365 0.48492 0.01767 0.0
C1259 C 0.68544 0.45759 0.97184 0.0
C1260 C 0.69256 0.431 0.9497 0.0
C1261 C 0.71231 0.4609 0.99439 0.0
C1262 C 0.72857 0.41051 0.94887 0.0
C1263 C 0.75575 0.41398 0.97104 0.0
H1264 H 0.08179 0.78614 0.0248 0.0
H1265 H 0.0192 0.70257 0.07719 0.0
H1266 H 0.01665 0.65586 0.0382 0.0
H1267 H 0.0379 0.63571 0.99056 0.0
H1268 H 0.1008 0.71802 0.9381 0.0
H1269 H 0.09715 0.76828 0.97534 0.0
C1270 C 0.0672 0.75792 0.02754 0.0
C1271 C 0.05126 0.7478 0.05402 0.0
C1272 C 0.066 0.73079 0.00498 0.0
C1273 C 0.03223 0.71109 0.05716 0.0
C1274 C 0.03064 0.68424 0.03484 0.0
C1275 C 0.04988 0.66501 0.98721 0.0
C1276 C 0.07 0.67325 0.96204 0.0
C1277 C 0.04818 0.69337 0.00887 0.0
C1278 C 0.0857 0.71112 0.95768 0.0
C1279 C 0.08367 0.73972 0.97893 0.0
loop_
_geom_bond_atom_site_label_1
_geom_bond_atom_site_label_2
_geom_bond_distance
_geom_bond_site_symmetry_2
_ccdc_geom_bond_type
Zn0 O1 2.055 . S
Zn0 O8 2.046 . S
Zn0 N16 2.036 . S
Zn0 O28 2.053 . S
Zn0 O30 2.066 . S
O1 Zn0 2.055 . S
O1 C4 1.259 . S
C2 O30 1.256 . S
C2 O31 1.244 . S
Zn3 O5 2.046 . S
Zn3 O7 2.055 . S
Zn3 N9 2.036 . S
Zn3 O27 2.066 . S
Zn3 O31 2.053 . S
C4 O1 1.259 . S
C4 O5 1.254 . S
O5 Zn3 2.046 . S
O5 C4 1.254 . S
C6 O27 1.256 . S
C6 O28 1.244 . S
O7 Zn3 2.055 . S
O7 C29 1.259 . S
O8 Zn0 2.046 . S
O8 C29 1.254 . S
N9 Zn3 2.036 . S
N9 C10 1.298 . S
N9 N12 1.398 . S
C10 N9 1.298 . S
C10 N13 1.367 . S
C10 C23 1.481 . S
C11 N12 1.299 . S
C11 N13 1.379 . S
N12 N9 1.398 . S
N12 C11 1.299 . S
N13 C10 1.367 . S
N13 C11 1.379 . S
C14 N16 1.298 . S
C14 N18 1.367 . S
C14 C22 1.481 . S
C15 N17 1.299 . S
C15 N18 1.379 . S
N16 Zn0 2.036 . S
N16 C14 1.298 . S
N16 N17 1.398 . S
N17 C15 1.299 . S
N17 N16 1.398 . S
N18 C14 1.367 . S
N18 C15 1.379 . S
H19 C22 0.980 . S
H20 C22 0.981 . S
H21 C22 0.981 . S
C22 C14 1.481 . S
C22 H19 0.980 . S
C22 H20 0.981 . S
C22 H21 0.981 . S
C23 C10 1.481 . S
C23 H24 0.980 . S
C23 H25 0.981 . S
C23 H26 0.981 . S
H24 C23 0.980 . S
H25 C23 0.981 . S
H26 C23 0.981 . S
O27 Zn3 2.066 . S
O27 C6 1.256 . S
O28 Zn0 2.053 . S
O28 C6 1.244 . S
C29 O7 1.259 . S
C29 O8 1.254 . S
O30 Zn0 2.066 . S
O30 C2 1.256 . S
O31 C2 1.244 . S
O31 Zn3 2.053 . S
Zn32 O33 2.055 . S
Zn32 O40 2.046 . S
Zn32 N48 2.036 . S
Zn32 O60 2.053 . S
Zn32 O62 2.066 . S
O33 Zn32 2.055 . S
O33 C36 1.259 . S
C34 O62 1.256 . S
C34 O63 1.244 . S
Zn35 O37 2.046 . S
Zn35 O39 2.055 . S
Zn35 N41 2.036 . S
Zn35 O59 2.066 . S
Zn35 O63 2.053 . S
C36 O33 1.259 . S
C36 O37 1.254 . S
O37 Zn35 2.046 . S
O37 C36 1.254 . S
C38 O59 1.256 . S
C38 O60 1.244 . S
O39 Zn35 2.055 . S
O39 C61 1.259 . S
O40 Zn32 2.046 . S
O40 C61 1.254 . S
N41 Zn35 2.036 . S
N41 C42 1.298 . S
N41 N44 1.398 . S
C42 N41 1.298 . S
C42 N45 1.367 . S
C42 C55 1.481 . S
C43 N44 1.299 . S
C43 N45 1.379 . S
N44 N41 1.398 . S
N44 C43 1.299 . S
N45 C42 1.367 . S
N45 C43 1.379 . S
C46 N48 1.298 . S
C46 N50 1.367 . S
C46 C54 1.481 . S
C47 N49 1.299 . S
C47 N50 1.379 . S
N48 Zn32 2.036 . S
N48 C46 1.298 . S
N48 N49 1.398 . S
N49 C47 1.299 . S
N49 N48 1.398 . S
N50 C46 1.367 . S
N50 C47 1.379 . S
H51 C54 0.980 . S
H52 C54 0.981 . S
H53 C54 0.981 . S
C54 C46 1.481 . S
C54 H51 0.980 . S
C54 H52 0.981 . S
C54 H53 0.981 . S
C55 C42 1.481 . S
C55 H56 0.980 . S
C55 H57 0.981 . S
C55 H58 0.981 . S
H56 C55 0.980 . S
H57 C55 0.981 . S
H58 C55 0.981 . S
O59 Zn35 2.066 . S
O59 C38 1.256 . S
O60 Zn32 2.053 . S
O60 C38 1.244 . S
C61 O39 1.259 . S
C61 O40 1.254 . S
O62 Zn32 2.066 . S
O62 C34 1.256 . S
O63 C34 1.244 . S
O63 Zn35 2.053 . S
Zn64 O65 2.055 . S
Zn64 O72 2.046 . S
Zn64 N80 2.036 . S
Zn64 O92 2.053 . S
Zn64 O94 2.066 . S
O65 Zn64 2.055 . S
O65 C68 1.259 . S
C66 O94 1.256 . S
C66 O95 1.244 . S
Zn67 O69 2.046 . S
Zn67 O71 2.055 . S
Zn67 N73 2.036 . S
Zn67 O91 2.066 . S
Zn67 O95 2.053 . S
C68 O65 1.259 . S
C68 O69 1.254 . S
O69 Zn67 2.046 . S
O69 C68 1.254 . S
C70 O91 1.256 . S
C70 O92 1.244 . S
O71 Zn67 2.055 . S
O71 C93 1.259 . S
O72 Zn64 2.046 . S
O72 C93 1.254 . S
N73 Zn67 2.036 . S
N73 C74 1.298 . S
N73 N76 1.398 . S
C74 N73 1.298 . S
C74 N77 1.367 . S
C74 C87 1.481 . S
C75 N76 1.299 . S
C75 N77 1.379 . S
N76 N73 1.398 . S
N76 C75 1.299 . S
N77 C74 1.367 . S
N77 C75 1.379 . S
C78 N80 1.298 . S
C78 N82 1.367 1_655 S
C78 C86 1.480 1_655 S
C79 N81 1.299 1_455 S
C79 N82 1.379 . S
N80 Zn64 2.036 . S
N80 C78 1.298 . S
N80 N81 1.398 . S
N81 C79 1.299 1_655 S
N81 N80 1.398 . S
N82 C78 1.367 1_455 S
N82 C79 1.379 . S
H83 C86 0.980 1_655 S
H84 C86 0.981 . S
H85 C86 0.981 . S
C86 C78 1.480 1_455 S
C86 H83 0.980 1_455 S
C86 H84 0.981 . S
C86 H85 0.981 . S
C87 C74 1.481 . S
C87 H88 0.980 . S
C87 H89 0.981 . S
C87 H90 0.981 . S
H88 C87 0.980 . S
H89 C87 0.981 . S
H90 C87 0.981 . S
O91 Zn67 2.066 . S
O91 C70 1.256 . S
O92 Zn64 2.053 . S
O92 C70 1.244 . S
C93 O71 1.259 . S
C93 O72 1.254 . S
O94 Zn64 2.066 . S
O94 C66 1.256 . S
O95 C66 1.244 . S
O95 Zn67 2.053 . S
Zn96 O97 2.055 . S
Zn96 O104 2.046 . S
Zn96 N112 2.036 . S
Zn96 O124 2.053 . S
Zn96 O126 2.066 . S
O97 Zn96 2.055 . S
O97 C100 1.259 . S
C98 O126 1.256 . S
C98 O127 1.244 . S
Zn99 O101 2.046 . S
Zn99 O103 2.055 . S
Zn99 N105 2.036 . S
Zn99 O123 2.066 . S
Zn99 O127 2.053 . S
C100 O97 1.259 . S
C100 O101 1.254 . S
O101 Zn99 2.046 . S
O101 C100 1.254 . S
C102 O123 1.256 . S
C102 O124 1.244 . S
O103 Zn99 2.055 . S
O103 C125 1.259 . S
O104 Zn96 2.046 . S
O104 C125 1.254 . S
N105 Zn99 2.036 . S
N105 C106 1.298 . S
N105 N108 1.398 . S
C106 N105 1.298 . S
C106 N109 1.367 1_565 S
C106 C119 1.480 1_565 S
C107 N108 1.299 1_545 S
C107 N109 1.379 . S
N108 N105 1.398 . S
N108 C107 1.299 1_565 S
N109 C106 1.367 1_545 S
N109 C107 1.379 . S
C110 N112 1.298 . S
C110 N114 1.367 . S
C110 C118 1.481 . S
C111 N113 1.299 . S
C111 N114 1.379 . S
N112 Zn96 2.036 . S
N112 C110 1.298 . S
N112 N113 1.398 . S
N113 C111 1.299 . S
N113 N112 1.398 . S
N114 C110 1.367 . S
N114 C111 1.379 . S
H115 C118 0.980 . S
H116 C118 0.981 . S
H117 C118 0.981 . S
C118 C110 1.481 . S
C118 H115 0.980 . S
C118 H116 0.981 . S
C118 H117 0.981 . S
C119 C106 1.480 1_545 S
C119 H120 0.980 1_545 S
C119 H121 0.981 . S
C119 H122 0.981 . S
H120 C119 0.980 1_565 S
H121 C119 0.981 . S
H122 C119 0.981 . S
O123 Zn99 2.066 . S
O123 C102 1.256 . S
O124 Zn96 2.053 . S
O124 C102 1.244 . S
C125 O103 1.259 . S
C125 O104 1.254 . S
O126 Zn96 2.066 . S
O126 C98 1.256 . S
O127 C98 1.244 . S
O127 Zn99 2.053 . S
Zn128 O129 2.055 . S
Zn128 O136 2.046 . S
Zn128 N144 2.036 . S
Zn128 O156 2.053 . S
Zn128 O158 2.066 . S
O129 Zn128 2.055 . S
O129 C132 1.259 . S
C130 O158 1.256 . S
C130 O159 1.244 . S
Zn131 O133 2.046 . S
Zn131 O135 2.055 . S
Zn131 N137 2.036 . S
Zn131 O155 2.066 . S
Zn131 O159 2.053 . S
C132 O129 1.259 . S
C132 O133 1.254 . S
O133 Zn131 2.046 . S
O133 C132 1.254 . S
C134 O155 1.256 . S
C134 O156 1.244 . S
O135 Zn131 2.055 . S
O135 C157 1.259 . S
O136 Zn128 2.046 . S
O136 C157 1.254 . S
N137 Zn131 2.036 . S
N137 C138 1.298 . S
N137 N140 1.398 . S
C138 N137 1.298 . S
C138 N141 1.367 . S
C138 C151 1.481 . S
C139 N140 1.299 . S
C139 N141 1.379 . S
N140 N137 1.398 . S
N140 C139 1.299 . S
N141 C138 1.367 . S
N141 C139 1.379 . S
C142 N144 1.298 . S
C142 N146 1.367 1_455 S
C142 C150 1.480 1_455 S
C143 N145 1.299 1_655 S
C143 N146 1.379 . S
N144 Zn128 2.036 . S
N144 C142 1.298 . S
N144 N145 1.398 . S
N145 C143 1.299 1_455 S
N145 N144 1.398 . S
N146 C142 1.367 1_655 S
N146 C143 1.379 . S
H147 C150 0.980 1_455 S
H148 C150 0.981 . S
H149 C150 0.981 . S
C150 C142 1.480 1_655 S
C150 H147 0.980 1_655 S
C150 H148 0.981 . S
C150 H149 0.981 . S
C151 C138 1.481 . S
C151 H152 0.980 . S
C151 H153 0.981 . S
C151 H154 0.981 . S
H152 C151 0.980 . S
H153 C151 0.981 . S
H154 C151 0.981 . S
O155 Zn131 2.066 . S
O155 C134 1.256 . S
O156 Zn128 2.053 . S
O156 C134 1.244 . S
C157 O135 1.259 . S
C157 O136 1.254 . S
O158 Zn128 2.066 . S
O158 C130 1.256 . S
O159 C130 1.244 . S
O159 Zn131 2.053 . S
Zn160 O161 2.055 . S
Zn160 O168 2.046 . S
Zn160 N176 2.036 . S
Zn160 O188 2.053 . S
Zn160 O190 2.066 . S
O161 Zn160 2.055 . S
O161 C164 1.259 . S
C162 O190 1.256 . S
C162 O191 1.244 . S
Zn163 O165 2.046 . S
Zn163 O167 2.055 . S
Zn163 N169 2.036 . S
Zn163 O187 2.066 . S
Zn163 O191 2.053 . S
C164 O161 1.259 . S
C164 O165 1.254 . S
O165 Zn163 2.046 . S
O165 C164 1.254 . S
C166 O187 1.256 . S
C166 O188 1.244 . S
O167 Zn163 2.055 . S
O167 C189 1.259 . S
O168 Zn160 2.046 . S
O168 C189 1.254 . S
N169 Zn163 2.036 . S
N169 C170 1.298 . S
N169 N172 1.398 . S
C170 N169 1.298 . S
C170 N173 1.367 . S
C170 C183 1.481 . S
C171 N172 1.299 . S
C171 N173 1.379 . S
N172 N169 1.398 . S
N172 C171 1.299 . S
N173 C170 1.367 . S
N173 C171 1.379 . S
C174 N176 1.298 . S
C174 N178 1.367 1_545 S
C174 C182 1.480 1_545 S
C175 N177 1.299 1_565 S
C175 N178 1.379 . S
N176 Zn160 2.036 . S
N176 C174 1.298 . S
N176 N177 1.398 . S
N177 C175 1.299 1_545 S
N177 N176 1.398 . S
N178 C174 1.367 1_565 S
N178 C175 1.379 . S
H179 C182 0.980 1_545 S
H180 C182 0.981 . S
H181 C182 0.981 . S
C182 C174 1.480 1_565 S
C182 H179 0.980 1_565 S
C182 H180 0.981 . S
C182 H181 0.981 . S
C183 C170 1.481 . S
C183 H184 0.980 . S
C183 H185 0.981 . S
C183 H186 0.981 . S
H184 C183 0.980 . S
H185 C183 0.981 . S
H186 C183 0.981 . S
O187 Zn163 2.066 . S
O187 C166 1.256 . S
O188 Zn160 2.053 . S
O188 C166 1.244 . S
C189 O167 1.259 . S
C189 O168 1.254 . S
O190 Zn160 2.066 . S
O190 C162 1.256 . S
O191 C162 1.244 . S
O191 Zn163 2.053 . S
Zn192 O193 2.055 . S
Zn192 O200 2.046 . S
Zn192 N208 2.036 . S
Zn192 O220 2.053 . S
Zn192 O222 2.066 . S
O193 Zn192 2.055 . S
O193 C196 1.259 . S
C194 O222 1.256 . S
C194 O223 1.244 . S
Zn195 O197 2.046 . S
Zn195 O199 2.055 . S
Zn195 N201 2.036 . S
Zn195 O219 2.066 . S
Zn195 O223 2.053 . S
C196 O193 1.259 . S
C196 O197 1.254 . S
O197 Zn195 2.046 . S
O197 C196 1.254 . S
C198 O219 1.256 . S
C198 O220 1.244 . S
O199 Zn195 2.055 . S
O199 C221 1.259 . S
O200 Zn192 2.046 . S
O200 C221 1.254 . S
N201 Zn195 2.036 . S
N201 C202 1.298 . S
N201 N204 1.398 . S
C202 N201 1.298 . S
C202 N205 1.367 . S
C202 C215 1.481 . S
C203 N204 1.299 . S
C203 N205 1.379 . S
N204 N201 1.398 . S
N204 C203 1.299 . S
N205 C202 1.367 . S
N205 C203 1.379 . S
C206 N208 1.298 . S
C206 N210 1.367 . S
C206 C214 1.481 . S
C207 N209 1.299 . S
C207 N210 1.379 . S
N208 Zn192 2.036 . S
N208 C206 1.298 . S
N208 N209 1.398 . S
N209 C207 1.299 . S
N209 N208 1.398 . S
N210 C206 1.367 . S
N210 C207 1.379 . S
H211 C214 0.980 . S
H212 C214 0.981 . S
H213 C214 0.981 . S
C214 C206 1.481 . S
C214 H211 0.980 . S
C214 H212 0.981 . S
C214 H213 0.981 . S
C215 C202 1.481 . S
C215 H216 0.980 . S
C215 H217 0.981 . S
C215 H218 0.981 . S
H216 C215 0.980 . S
H217 C215 0.981 . S
H218 C215 0.981 . S
O219 Zn195 2.066 . S
O219 C198 1.256 . S
O220 Zn192 2.053 . S
O220 C198 1.244 . S
C221 O199 1.259 . S
C221 O200 1.254 . S
O222 Zn192 2.066 . S
O222 C194 1.256 . S
O223 C194 1.244 . S
O223 Zn195 2.053 . S
Zn224 O225 2.055 . S
Zn224 O232 2.046 . S
Zn224 N240 2.036 . S
Zn224 O252 2.053 . S
Zn224 O254 2.066 . S
O225 Zn224 2.055 . S
O225 C228 1.259 . S
C226 O254 1.256 . S
C226 O255 1.244 . S
Zn227 O229 2.046 . S
Zn227 O231 2.055 . S
Zn227 N233 2.036 . S
Zn227 O251 2.066 . S
Zn227 O255 2.053 . S
C228 O225 1.259 . S
C228 O229 1.254 . S
O229 Zn227 2.046 . S
O229 C228 1.254 . S
C230 O251 1.256 . S
C230 O252 1.244 . S
O231 Zn227 2.055 . S
O231 C253 1.259 . S
O232 Zn224 2.046 . S
O232 C253 1.254 . S
N233 Zn227 2.036 . S
N233 C234 1.298 . S
N233 N236 1.398 . S
C234 N233 1.298 . S
C234 N237 1.367 . S
C234 C247 1.481 . S
C235 N236 1.299 . S
C235 N237 1.379 . S
N236 N233 1.398 . S
N236 C235 1.299 . S
N237 C234 1.367 . S
N237 C235 1.379 . S
C238 N240 1.298 . S
C238 N242 1.367 . S
C238 C246 1.481 . S
C239 N241 1.299 . S
C239 N242 1.379 . S
N240 Zn224 2.036 . S
N240 C238 1.298 . S
N240 N241 1.398 . S
N241 C239 1.299 . S
N241 N240 1.398 . S
N242 C238 1.367 . S
N242 C239 1.379 . S
H243 C246 0.980 . S
H244 C246 0.981 . S
H245 C246 0.981 . S
C246 C238 1.481 . S
C246 H243 0.980 . S
C246 H244 0.981 . S
C246 H245 0.981 . S
C247 C234 1.481 . S
C247 H248 0.980 . S
C247 H249 0.981 . S
C247 H250 0.981 . S
H248 C247 0.980 . S
H249 C247 0.981 . S
H250 C247 0.981 . S
O251 Zn227 2.066 . S
O251 C230 1.256 . S
O252 Zn224 2.053 . S
O252 C230 1.244 . S
C253 O231 1.259 . S
C253 O232 1.254 . S
O254 Zn224 2.066 . S
O254 C226 1.256 . S
O255 C226 1.244 . S
O255 Zn227 2.053 . S
Zn256 O257 2.055 . S
Zn256 O264 2.046 . S
Zn256 N272 2.036 . S
Zn256 O284 2.053 . S
Zn256 O286 2.066 . S
O257 Zn256 2.055 . S
O257 C260 1.259 . S
C258 O286 1.256 . S
C258 O287 1.244 . S
Zn259 O261 2.046 . S
Zn259 O263 2.055 . S
Zn259 N265 2.036 . S
Zn259 O283 2.066 . S
Zn259 O287 2.053 . S
C260 O257 1.259 . S
C260 O261 1.254 . S
O261 Zn259 2.046 . S
O261 C260 1.254 . S
C262 O283 1.256 . S
C262 O284 1.244 . S
O263 Zn259 2.055 . S
O263 C285 1.259 . S
O264 Zn256 2.046 . S
O264 C285 1.254 . S
N265 Zn259 2.036 . S
N265 C266 1.298 . S
N265 N268 1.398 . S
C266 N265 1.298 . S
C266 N269 1.367 . S
C266 C279 1.481 . S
C267 N268 1.299 . S
C267 N269 1.379 . S
N268 N265 1.398 . S
N268 C267 1.299 . S
N269 C266 1.367 . S
N269 C267 1.379 . S
C270 N272 1.298 . S
C270 N274 1.367 . S
C270 C278 1.481 . S
C271 N273 1.299 . S
C271 N274 1.379 . S
N272 Zn256 2.036 . S
N272 C270 1.298 . S
N272 N273 1.398 . S
N273 C271 1.299 . S
N273 N272 1.398 . S
N274 C270 1.367 . S
N274 C271 1.379 . S
H275 C278 0.980 . S
H276 C278 0.981 . S
H277 C278 0.981 . S
C278 C270 1.481 . S
C278 H275 0.980 . S
C278 H276 0.981 . S
C278 H277 0.981 . S
C279 C266 1.481 . S
C279 H280 0.980 . S
C279 H281 0.981 . S
C279 H282 0.981 . S
H280 C279 0.980 . S
H281 C279 0.981 . S
H282 C279 0.981 . S
O283 Zn259 2.066 . S
O283 C262 1.256 . S
O284 Zn256 2.053 . S
O284 C262 1.244 . S
C285 O263 1.259 . S
C285 O264 1.254 . S
O286 Zn256 2.066 . S
O286 C258 1.256 . S
O287 C258 1.244 . S
O287 Zn259 2.053 . S
Zn288 O289 2.055 . S
Zn288 O296 2.046 . S
Zn288 N304 2.036 . S
Zn288 O316 2.053 . S
Zn288 O318 2.066 . S
O289 Zn288 2.055 . S
O289 C292 1.259 . S
C290 O318 1.256 . S
C290 O319 1.244 . S
Zn291 O293 2.046 . S
Zn291 O295 2.055 . S
Zn291 N297 2.036 . S
Zn291 O315 2.066 . S
Zn291 O319 2.053 . S
C292 O289 1.259 . S
C292 O293 1.254 . S
O293 Zn291 2.046 . S
O293 C292 1.254 . S
C294 O315 1.256 . S
C294 O316 1.244 . S
O295 Zn291 2.055 . S
O295 C317 1.259 . S
O296 Zn288 2.046 . S
O296 C317 1.254 . S
N297 Zn291 2.036 . S
N297 C298 1.298 . S
N297 N300 1.398 . S
C298 N297 1.298 . S
C298 N301 1.367 . S
C298 C311 1.481 . S
C299 N300 1.299 . S
C299 N301 1.379 . S
N300 N297 1.398 . S
N300 C299 1.299 . S
N301 C298 1.367 . S
N301 C299 1.379 . S
C302 N304 1.298 . S
C302 N306 1.367 . S
C302 C310 1.481 . S
C303 N305 1.299 . S
C303 N306 1.379 . S
N304 Zn288 2.036 . S
N304 C302 1.298 . S
N304 N305 1.398 . S
N305 C303 1.299 . S
N305 N304 1.398 . S
N306 C302 1.367 . S
N306 C303 1.379 . S
H307 C310 0.980 . S
H308 C310 0.981 . S
H309 C310 0.981 . S
C310 C302 1.481 . S
C310 H307 0.980 . S
C310 H308 0.981 . S
C310 H309 0.981 . S
C311 C298 1.481 . S
C311 H312 0.980 . S
C311 H313 0.981 . S
C311 H314 0.981 . S
H312 C311 0.980 . S
H313 C311 0.981 . S
H314 C311 0.981 . S
O315 Zn291 2.066 . S
O315 C294 1.256 . S
O316 Zn288 2.053 . S
O316 C294 1.244 . S
C317 O295 1.259 . S
C317 O296 1.254 . S
O318 Zn288 2.066 . S
O318 C290 1.256 . S
O319 C290 1.244 . S
O319 Zn291 2.053 . S
Zn320 O321 2.055 . S
Zn320 O328 2.046 . S
Zn320 N336 2.036 . S
Zn320 O348 2.053 . S
Zn320 O350 2.066 . S
O321 Zn320 2.055 . S
O321 C324 1.259 . S
C322 O350 1.256 . S
C322 O351 1.244 . S
Zn323 O325 2.046 . S
Zn323 O327 2.055 . S
Zn323 N329 2.036 . S
Zn323 O347 2.066 . S
Zn323 O351 2.053 . S
C324 O321 1.259 . S
C324 O325 1.254 . S
O325 Zn323 2.046 . S
O325 C324 1.254 . S
C326 O347 1.256 . S
C326 O348 1.244 . S
O327 Zn323 2.055 . S
O327 C349 1.259 . S
O328 Zn320 2.046 . S
O328 C349 1.254 . S
N329 Zn323 2.036 . S
N329 C330 1.298 . S
N329 N332 1.398 . S
C330 N329 1.298 . S
C330 N333 1.367 1_455 S
C330 C343 1.480 1_455 S
C331 N332 1.299 1_655 S
C331 N333 1.379 . S
N332 N329 1.398 . S
N332 C331 1.299 1_455 S
N333 C330 1.367 1_655 S
N333 C331 1.379 . S
C334 N336 1.298 . S
C334 N338 1.367 . S
C334 C342 1.481 . S
C335 N337 1.299 . S
C335 N338 1.379 . S
N336 Zn320 2.036 . S
N336 C334 1.298 . S
N336 N337 1.398 . S
N337 C335 1.299 . S
N337 N336 1.398 . S
N338 C334 1.367 . S
N338 C335 1.379 . S
H339 C342 0.980 . S
H340 C342 0.981 . S
H341 C342 0.981 . S
C342 C334 1.481 . S
C342 H339 0.980 . S
C342 H340 0.981 . S
C342 H341 0.981 . S
C343 C330 1.480 1_655 S
C343 H344 0.980 1_655 S
C343 H345 0.981 . S
C343 H346 0.981 . S
H344 C343 0.980 1_455 S
H345 C343 0.981 . S
H346 C343 0.981 . S
O347 Zn323 2.066 . S
O347 C326 1.256 . S
O348 Zn320 2.053 . S
O348 C326 1.244 . S
C349 O327 1.259 . S
C349 O328 1.254 . S
O350 Zn320 2.066 . S
O350 C322 1.256 . S
O351 C322 1.244 . S
O351 Zn323 2.053 . S
Zn352 O353 2.055 . S
Zn352 O360 2.046 . S
Zn352 N368 2.036 . S
Zn352 O380 2.053 . S
Zn352 O382 2.066 . S
O353 Zn352 2.055 . S
O353 C356 1.259 . S
C354 O382 1.256 . S
C354 O383 1.244 . S
Zn355 O357 2.046 . S
Zn355 O359 2.055 . S
Zn355 N361 2.036 . S
Zn355 O379 2.066 . S
Zn355 O383 2.053 . S
C356 O353 1.259 . S
C356 O357 1.254 . S
O357 Zn355 2.046 . S
O357 C356 1.254 . S
C358 O379 1.256 . S
C358 O380 1.244 . S
O359 Zn355 2.055 . S
O359 C381 1.259 . S
O360 Zn352 2.046 . S
O360 C381 1.254 . S
N361 Zn355 2.036 . S
N361 C362 1.298 . S
N361 N364 1.398 . S
C362 N361 1.298 . S
C362 N365 1.367 1_545 S
C362 C375 1.480 1_545 S
C363 N364 1.299 1_565 S
C363 N365 1.379 . S
N364 N361 1.398 . S
N364 C363 1.299 1_545 S
N365 C362 1.367 1_565 S
N365 C363 1.379 . S
C366 N368 1.298 . S
C366 N370 1.367 . S
C366 C374 1.481 . S
C367 N369 1.299 . S
C367 N370 1.379 . S
N368 Zn352 2.036 . S
N368 C366 1.298 . S
N368 N369 1.398 . S
N369 C367 1.299 . S
N369 N368 1.398 . S
N370 C366 1.367 . S
N370 C367 1.379 . S
H371 C374 0.980 . S
H372 C374 0.981 . S
H373 C374 0.981 . S
C374 C366 1.481 . S
C374 H371 0.980 . S
C374 H372 0.981 . S
C374 H373 0.981 . S
C375 C362 1.480 1_565 S
C375 H376 0.980 1_565 S
C375 H377 0.981 . S
C375 H378 0.981 . S
H376 C375 0.980 1_545 S
H377 C375 0.981 . S
H378 C375 0.981 . S
O379 Zn355 2.066 . S
O379 C358 1.256 . S
O380 Zn352 2.053 . S
O380 C358 1.244 . S
C381 O359 1.259 . S
C381 O360 1.254 . S
O382 Zn352 2.066 . S
O382 C354 1.256 . S
O383 C354 1.244 . S
O383 Zn355 2.053 . S
Zn384 O385 2.055 . S
Zn384 O392 2.046 . S
Zn384 N400 2.036 . S
Zn384 O412 2.053 . S
Zn384 O414 2.066 . S
O385 Zn384 2.055 . S
O385 C388 1.259 . S
C386 O414 1.256 . S
C386 O415 1.244 . S
Zn387 O389 2.046 . S
Zn387 O391 2.055 . S
Zn387 N393 2.036 . S
Zn387 O411 2.066 . S
Zn387 O415 2.053 . S
C388 O385 1.259 . S
C388 O389 1.254 . S
O389 Zn387 2.046 . S
O389 C388 1.254 . S
C390 O411 1.256 . S
C390 O412 1.244 . S
O391 Zn387 2.055 . S
O391 C413 1.259 . S
O392 Zn384 2.046 . S
O392 C413 1.254 . S
N393 Zn387 2.036 . S
N393 C394 1.298 . S
N393 N396 1.398 . S
C394 N393 1.298 . S
C394 N397 1.367 . S
C394 C407 1.481 . S
C395 N396 1.299 . S
C395 N397 1.379 . S
N396 N393 1.398 . S
N396 C395 1.299 . S
N397 C394 1.367 . S
N397 C395 1.379 . S
C398 N400 1.298 . S
C398 N402 1.367 1_655 S
C398 C406 1.480 1_655 S
C399 N401 1.299 1_455 S
C399 N402 1.379 . S
N400 Zn384 2.036 . S
N400 C398 1.298 . S
N400 N401 1.398 . S
N401 C399 1.299 1_655 S
N401 N400 1.398 . S
N402 C398 1.367 1_455 S
N402 C399 1.379 . S
H403 C406 0.980 1_655 S
H404 C406 0.981 . S
H405 C406 0.981 . S
C406 C398 1.480 1_455 S
C406 H403 0.980 1_455 S
C406 H404 0.981 . S
C406 H405 0.981 . S
C407 C394 1.481 . S
C407 H408 0.980 . S
C407 H409 0.981 . S
C407 H410 0.981 . S
H408 C407 0.980 . S
H409 C407 0.981 . S
H410 C407 0.981 . S
O411 Zn387 2.066 . S
O411 C390 1.256 . S
O412 Zn384 2.053 . S
O412 C390 1.244 . S
C413 O391 1.259 . S
C413 O392 1.254 . S
O414 Zn384 2.066 . S
O414 C386 1.256 . S
O415 C386 1.244 . S
O415 Zn387 2.053 . S
Zn416 O417 2.055 . S
Zn416 O424 2.046 . S
Zn416 N432 2.036 . S
Zn416 O444 2.053 . S
Zn416 O446 2.066 . S
O417 Zn416 2.055 . S
O417 C420 1.259 . S
C418 O446 1.256 . S
C418 O447 1.244 . S
Zn419 O421 2.046 . S
Zn419 O423 2.055 . S
Zn419 N425 2.036 . S
Zn419 O443 2.066 . S
Zn419 O447 2.053 . S
C420 O417 1.259 . S
C420 O421 1.254 . S
O421 Zn419 2.046 . S
O421 C420 1.254 . S
C422 O443 1.256 . S
C422 O444 1.244 . S
O423 Zn419 2.055 . S
O423 C445 1.259 . S
O424 Zn416 2.046 . S
O424 C445 1.254 . S
N425 Zn419 2.036 . S
N425 C426 1.298 . S
N425 N428 1.398 . S
C426 N425 1.298 . S
C426 N429 1.367 1_565 S
C426 C439 1.480 1_565 S
C427 N428 1.299 1_545 S
C427 N429 1.379 . S
N428 N425 1.398 . S
N428 C427 1.299 1_565 S
N429 C426 1.367 1_545 S
N429 C427 1.379 . S
C430 N432 1.298 . S
C430 N434 1.367 . S
C430 C438 1.481 . S
C431 N433 1.299 . S
C431 N434 1.379 . S
N432 Zn416 2.036 . S
N432 C430 1.298 . S
N432 N433 1.398 . S
N433 C431 1.299 . S
N433 N432 1.398 . S
N434 C430 1.367 . S
N434 C431 1.379 . S
H435 C438 0.980 . S
H436 C438 0.981 . S
H437 C438 0.981 . S
C438 C430 1.481 . S
C438 H435 0.980 . S
C438 H436 0.981 . S
C438 H437 0.981 . S
C439 C426 1.480 1_545 S
C439 H440 0.980 1_545 S
C439 H441 0.981 . S
C439 H442 0.981 . S
H440 C439 0.980 1_565 S
H441 C439 0.981 . S
H442 C439 0.981 . S
O443 Zn419 2.066 . S
O443 C422 1.256 . S
O444 Zn416 2.053 . S
O444 C422 1.244 . S
C445 O423 1.259 . S
C445 O424 1.254 . S
O446 Zn416 2.066 . S
O446 C418 1.256 . S
O447 C418 1.244 . S
O447 Zn419 2.053 . S
Zn448 O449 2.055 . S
Zn448 O456 2.046 . S
Zn448 N464 2.036 . S
Zn448 O476 2.053 . S
Zn448 O478 2.066 . S
O449 Zn448 2.055 . S
O449 C452 1.259 . S
C450 O478 1.256 . S
C450 O479 1.244 . S
Zn451 O453 2.046 . S
Zn451 O455 2.055 . S
Zn451 N457 2.036 . S
Zn451 O475 2.066 . S
Zn451 O479 2.053 . S
C452 O449 1.259 . S
C452 O453 1.254 . S
O453 Zn451 2.046 . S
O453 C452 1.254 . S
C454 O475 1.256 . S
C454 O476 1.244 . S
O455 Zn451 2.055 . S
O455 C477 1.259 . S
O456 Zn448 2.046 . S
O456 C477 1.254 . S
N457 Zn451 2.036 . S
N457 C458 1.298 . S
N457 N460 1.398 . S
C458 N457 1.298 . S
C458 N461 1.367 . S
C458 C471 1.481 . S
C459 N460 1.299 . S
C459 N461 1.379 . S
N460 N457 1.398 . S
N460 C459 1.299 . S
N461 C458 1.367 . S
N461 C459 1.379 . S
C462 N464 1.298 . S
C462 N466 1.367 . S
C462 C470 1.481 . S
C463 N465 1.299 . S
C463 N466 1.379 . S
N464 Zn448 2.036 . S
N464 C462 1.298 . S
N464 N465 1.398 . S
N465 C463 1.299 . S
N465 N464 1.398 . S
N466 C462 1.367 . S
N466 C463 1.379 . S
H467 C470 0.980 . S
H468 C470 0.981 . S
H469 C470 0.981 . S
C470 C462 1.481 . S
C470 H467 0.980 . S
C470 H468 0.981 . S
C470 H469 0.981 . S
C471 C458 1.481 . S
C471 H472 0.980 . S
C471 H473 0.981 . S
C471 H474 0.981 . S
H472 C471 0.980 . S
H473 C471 0.981 . S
H474 C471 0.981 . S
O475 Zn451 2.066 . S
O475 C454 1.256 . S
O476 Zn448 2.053 . S
O476 C454 1.244 . S
C477 O455 1.259 . S
C477 O456 1.254 . S
O478 Zn448 2.066 . S
O478 C450 1.256 . S
O479 C450 1.244 . S
O479 Zn451 2.053 . S
Zn480 O481 2.055 . S
Zn480 O488 2.046 . S
Zn480 N496 2.036 . S
Zn480 O508 2.053 . S
Zn480 O510 2.066 . S
O481 Zn480 2.055 . S
O481 C484 1.259 . S
C482 O510 1.256 . S
C482 O511 1.244 . S
Zn483 O485 2.046 . S
Zn483 O487 2.055 . S
Zn483 N489 2.036 . S
Zn483 O507 2.066 . S
Zn483 O511 2.053 . S
C484 O481 1.259 . S
C484 O485 1.254 . S
O485 Zn483 2.046 . S
O485 C484 1.254 . S
C486 O507 1.256 . S
C486 O508 1.244 . S
O487 Zn483 2.055 . S
O487 C509 1.259 . S
O488 Zn480 2.046 . S
O488 C509 1.254 . S
N489 Zn483 2.036 . S
N489 C490 1.298 . S
N489 N492 1.398 . S
C490 N489 1.298 . S
C490 N493 1.367 . S
C490 C503 1.481 . S
C491 N492 1.299 . S
C491 N493 1.379 . S
N492 N489 1.398 . S
N492 C491 1.299 . S
N493 C490 1.367 . S
N493 C491 1.379 . S
C494 N496 1.298 . S
C494 N498 1.367 . S
C494 C502 1.481 . S
C495 N497 1.299 . S
C495 N498 1.379 . S
N496 Zn480 2.036 . S
N496 C494 1.298 . S
N496 N497 1.398 . S
N497 C495 1.299 . S
N497 N496 1.398 . S
N498 C494 1.367 . S
N498 C495 1.379 . S
H499 C502 0.980 . S
H500 C502 0.981 . S
H501 C502 0.981 . S
C502 C494 1.481 . S
C502 H499 0.980 . S
C502 H500 0.981 . S
C502 H501 0.981 . S
C503 C490 1.481 . S
C503 H504 0.980 . S
C503 H505 0.981 . S
C503 H506 0.981 . S
H504 C503 0.980 . S
H505 C503 0.981 . S
H506 C503 0.981 . S
O507 Zn483 2.066 . S
O507 C486 1.256 . S
O508 Zn480 2.053 . S
O508 C486 1.244 . S
C509 O487 1.259 . S
C509 O488 1.254 . S
O510 Zn480 2.066 . S
O510 C482 1.256 . S
O511 C482 1.244 . S
O511 Zn483 2.053 . S
H512 C518 0.930 . S
H513 C521 0.930 . S
H514 C522 0.930 . S
H515 C523 0.930 . S
H516 C526 0.930 . S
H517 C527 0.930 . S
C518 H512 0.930 . S
C518 C519 1.355 . S
C518 C520 1.415 . S
C519 C518 1.355 . S
C519 C521 1.419 . S
C520 C518 1.415 . S
C520 C525 1.425 . S
C520 C527 1.409 . S
C521 H513 0.930 . S
C521 C519 1.419 . S
C521 C522 1.362 . S
C522 H514 0.930 . S
C522 C521 1.362 . S
C522 C525 1.409 . S
C523 H515 0.930 . S
C523 C524 1.355 . S
C523 C525 1.415 . S
C524 C523 1.355 . S
C524 C526 1.419 . S
C525 C520 1.425 . S
C525 C522 1.409 . S
C525 C523 1.415 . S
C526 H516 0.930 . S
C526 C524 1.419 . S
C526 C527 1.362 . S
C527 H517 0.930 . S
C527 C520 1.409 . S
C527 C526 1.362 . S
H528 C534 0.930 . S
H529 C537 0.930 . S
H530 C538 0.930 . S
H531 C539 0.930 . S
H532 C542 0.930 . S
H533 C543 0.930 . S
C534 H528 0.930 . S
C534 C535 1.355 . S
C534 C536 1.415 . S
C535 C534 1.355 . S
C535 C537 1.419 . S
C536 C534 1.415 . S
C536 C541 1.425 . S
C536 C543 1.409 . S
C537 H529 0.930 . S
C537 C535 1.419 . S
C537 C538 1.362 . S
C538 H530 0.930 . S
C538 C537 1.362 . S
C538 C541 1.409 . S
C539 H531 0.930 . S
C539 C540 1.355 . S
C539 C541 1.415 . S
C540 C539 1.355 . S
C540 C542 1.419 . S
C541 C536 1.425 . S
C541 C538 1.409 . S
C541 C539 1.415 . S
C542 H532 0.930 . S
C542 C540 1.419 . S
C542 C543 1.362 . S
C543 H533 0.930 . S
C543 C536 1.409 . S
C543 C542 1.362 . S
H544 C550 0.930 . S
H545 C553 0.930 . S
H546 C554 0.930 . S
H547 C555 0.930 . S
H548 C558 0.930 . S
H549 C559 0.930 . S
C550 H544 0.930 . S
C550 C551 1.355 . S
C550 C552 1.415 . S
C551 C550 1.355 . S
C551 C553 1.419 . S
C552 C550 1.415 . S
C552 C557 1.425 . S
C552 C559 1.409 . S
C553 H545 0.930 . S
C553 C551 1.419 . S
C553 C554 1.362 . S
C554 H546 0.930 . S
C554 C553 1.362 . S
C554 C557 1.409 . S
C555 H547 0.930 . S
C555 C556 1.355 . S
C555 C557 1.415 . S
C556 C555 1.355 . S
C556 C558 1.419 . S
C557 C552 1.425 . S
C557 C554 1.409 . S
C557 C555 1.415 . S
C558 H548 0.930 . S
C558 C556 1.419 . S
C558 C559 1.362 . S
C559 H549 0.930 . S
C559 C552 1.409 . S
C559 C558 1.362 . S
H560 C566 0.930 . S
H561 C569 0.930 . S
H562 C570 0.930 . S
H563 C571 0.930 . S
H564 C574 0.930 . S
H565 C575 0.930 . S
C566 H560 0.930 . S
C566 C567 1.355 . S
C566 C568 1.415 . S
C567 C566 1.355 . S
C567 C569 1.419 . S
C568 C566 1.415 . S
C568 C573 1.425 . S
C568 C575 1.409 . S
C569 H561 0.930 . S
C569 C567 1.419 . S
C569 C570 1.362 . S
C570 H562 0.930 . S
C570 C569 1.362 . S
C570 C573 1.409 . S
C571 H563 0.930 . S
C571 C572 1.355 . S
C571 C573 1.415 . S
C572 C571 1.355 . S
C572 C574 1.419 . S
C573 C568 1.425 . S
C573 C570 1.409 . S
C573 C571 1.415 . S
C574 H564 0.930 . S
C574 C572 1.419 . S
C574 C575 1.362 . S
C575 H565 0.930 . S
C575 C568 1.409 . S
C575 C574 1.362 . S
H576 C582 0.930 . S
H577 C585 0.930 . S
H578 C586 0.930 . S
H579 C587 0.930 . S
H580 C590 0.930 . S
H581 C591 0.930 . S
C582 H576 0.930 . S
C582 C583 1.355 . S
C582 C584 1.415 . S
C583 C582 1.355 . S
C583 C585 1.419 . S
C584 C582 1.415 . S
C584 C589 1.425 . S
C584 C591 1.409 . S
C585 H577 0.930 . S
C585 C583 1.419 . S
C585 C586 1.362 . S
C586 H578 0.930 . S
C586 C585 1.362 . S
C586 C589 1.409 . S
C587 H579 0.930 . S
C587 C588 1.355 . S
C587 C589 1.415 . S
C588 C587 1.355 . S
C588 C590 1.419 . S
C589 C584 1.425 . S
C589 C586 1.409 . S
C589 C587 1.415 . S
C590 H580 0.930 . S
C590 C588 1.419 . S
C590 C591 1.362 . S
C591 H581 0.930 . S
C591 C584 1.409 . S
C591 C590 1.362 . S
H592 C598 0.930 . S
H593 C601 0.930 . S
H594 C602 0.930 . S
H595 C603 0.930 . S
H596 C606 0.930 . S
H597 C607 0.930 . S
C598 H592 0.930 . S
C598 C599 1.355 . S
C598 C600 1.415 . S
C599 C598 1.355 . S
C599 C601 1.419 . S
C600 C598 1.415 . S
C600 C605 1.425 . S
C600 C607 1.409 . S
C601 H593 0.930 . S
C601 C599 1.419 . S
C601 C602 1.362 . S
C602 H594 0.930 . S
C602 C601 1.362 . S
C602 C605 1.409 . S
C603 H595 0.930 . S
C603 C604 1.355 . S
C603 C605 1.415 . S
C604 C603 1.355 . S
C604 C606 1.419 . S
C605 C600 1.425 . S
C605 C602 1.409 . S
C605 C603 1.415 . S
C606 H596 0.930 . S
C606 C604 1.419 . S
C606 C607 1.362 . S
C607 H597 0.930 . S
C607 C600 1.409 . S
C607 C606 1.362 . S
H608 C614 0.930 . S
H609 C617 0.930 . S
H610 C618 0.930 . S
H611 C619 0.930 . S
H612 C622 0.930 . S
H613 C623 0.930 . S
C614 H608 0.930 . S
C614 C615 1.355 . S
C614 C616 1.415 . S
C615 C614 1.355 . S
C615 C617 1.419 . S
C616 C614 1.415 . S
C616 C621 1.425 . S
C616 C623 1.409 . S
C617 H609 0.930 . S
C617 C615 1.419 . S
C617 C618 1.362 . S
C618 H610 0.930 . S
C618 C617 1.362 . S
C618 C621 1.409 . S
C619 H611 0.930 . S
C619 C620 1.355 . S
C619 C621 1.415 . S
C620 C619 1.355 . S
C620 C622 1.419 . S
C621 C616 1.425 . S
C621 C618 1.409 . S
C621 C619 1.415 . S
C622 H612 0.930 . S
C622 C620 1.419 . S
C622 C623 1.362 . S
C623 H613 0.930 . S
C623 C616 1.409 . S
C623 C622 1.362 . S
H624 C630 0.930 . S
H625 C633 0.930 . S
H626 C634 0.930 . S
H627 C635 0.930 . S
H628 C638 0.930 . S
H629 C639 0.930 . S
C630 H624 0.930 . S
C630 C631 1.355 . S
C630 C632 1.415 . S
C631 C630 1.355 . S
C631 C633 1.419 . S
C632 C630 1.415 . S
C632 C637 1.425 . S
C632 C639 1.409 . S
C633 H625 0.930 . S
C633 C631 1.419 . S
C633 C634 1.362 . S
C634 H626 0.930 . S
C634 C633 1.362 . S
C634 C637 1.409 . S
C635 H627 0.930 . S
C635 C636 1.355 . S
C635 C637 1.415 . S
C636 C635 1.355 . S
C636 C638 1.419 . S
C637 C632 1.425 . S
C637 C634 1.409 . S
C637 C635 1.415 . S
C638 H628 0.930 . S
C638 C636 1.419 . S
C638 C639 1.362 . S
C639 H629 0.930 . S
C639 C632 1.409 . S
C639 C638 1.362 . S
H640 C646 0.930 . S
H641 C649 0.930 . S
H642 C650 0.930 . S
H643 C651 0.930 . S
H644 C654 0.930 . S
H645 C655 0.930 . S
C646 H640 0.930 . S
C646 C647 1.355 . S
C646 C648 1.415 . S
C647 C646 1.355 . S
C647 C649 1.419 . S
C648 C646 1.415 . S
C648 C653 1.425 . S
C648 C655 1.409 . S
C649 H641 0.930 . S
C649 C647 1.419 . S
C649 C650 1.362 . S
C650 H642 0.930 . S
C650 C649 1.362 . S
C650 C653 1.409 . S
C651 H643 0.930 . S
C651 C652 1.355 . S
C651 C653 1.415 . S
C652 C651 1.355 . S
C652 C654 1.419 . S
C653 C648 1.425 . S
C653 C650 1.409 . S
C653 C651 1.415 . S
C654 H644 0.930 . S
C654 C652 1.419 . S
C654 C655 1.362 . S
C655 H645 0.930 . S
C655 C648 1.409 . S
C655 C654 1.362 . S
H656 C662 0.930 . S
H657 C665 0.930 . S
H658 C666 0.930 . S
H659 C667 0.930 . S
H660 C670 0.930 . S
H661 C671 0.930 . S
C662 H656 0.930 . S
C662 C663 1.355 . S
C662 C664 1.415 . S
C663 C662 1.355 . S
C663 C665 1.419 . S
C664 C662 1.415 . S
C664 C669 1.425 . S
C664 C671 1.409 . S
C665 H657 0.930 . S
C665 C663 1.419 . S
C665 C666 1.362 . S
C666 H658 0.930 . S
C666 C665 1.362 . S
C666 C669 1.409 . S
C667 H659 0.930 . S
C667 C668 1.355 . S
C667 C669 1.415 . S
C668 C667 1.355 . S
C668 C670 1.419 . S
C669 C664 1.425 . S
C669 C666 1.409 . S
C669 C667 1.415 . S
C670 H660 0.930 . S
C670 C668 1.419 . S
C670 C671 1.362 . S
C671 H661 0.930 . S
C671 C664 1.409 . S
C671 C670 1.362 . S
H672 C678 0.930 . S
H673 C681 0.930 . S
H674 C682 0.930 . S
H675 C683 0.930 . S
H676 C686 0.930 . S
H677 C687 0.930 . S
C678 H672 0.930 . S
C678 C679 1.355 . S
C678 C680 1.415 . S
C679 C678 1.355 . S
C679 C681 1.419 . S
C680 C678 1.415 . S
C680 C685 1.425 . S
C680 C687 1.409 . S
C681 H673 0.930 . S
C681 C679 1.419 . S
C681 C682 1.362 . S
C682 H674 0.930 . S
C682 C681 1.362 . S
C682 C685 1.409 . S
C683 H675 0.930 . S
C683 C684 1.355 . S
C683 C685 1.415 . S
C684 C683 1.355 . S
C684 C686 1.419 . S
C685 C680 1.425 . S
C685 C682 1.409 . S
C685 C683 1.415 . S
C686 H676 0.930 . S
C686 C684 1.419 . S
C686 C687 1.362 . S
C687 H677 0.930 . S
C687 C680 1.409 . S
C687 C686 1.362 . S
H688 C694 0.930 . S
H689 C697 0.930 . S
H690 C698 0.930 . S
H691 C699 0.930 . S
H692 C702 0.930 . S
H693 C703 0.930 . S
C694 H688 0.930 . S
C694 C695 1.355 . S
C694 C696 1.415 . S
C695 C694 1.355 . S
C695 C697 1.419 . S
C696 C694 1.415 . S
C696 C701 1.425 . S
C696 C703 1.409 . S
C697 H689 0.930 . S
C697 C695 1.419 . S
C697 C698 1.362 . S
C698 H690 0.930 . S
C698 C697 1.362 . S
C698 C701 1.409 . S
C699 H691 0.930 . S
C699 C700 1.355 . S
C699 C701 1.415 . S
C700 C699 1.355 . S
C700 C702 1.419 . S
C701 C696 1.425 . S
C701 C698 1.409 . S
C701 C699 1.415 . S
C702 H692 0.930 . S
C702 C700 1.419 . S
C702 C703 1.362 . S
C703 H693 0.930 . S
C703 C696 1.409 . S
C703 C702 1.362 . S
H704 C710 0.930 . S
H705 C713 0.930 . S
H706 C714 0.930 . S
H707 C715 0.930 . S
H708 C718 0.930 . S
H709 C719 0.930 . S
C710 H704 0.930 . S
C710 C711 1.355 . S
C710 C712 1.415 . S
C711 C710 1.355 . S
C711 C713 1.419 . S
C712 C710 1.415 . S
C712 C717 1.425 . S
C712 C719 1.409 . S
C713 H705 0.930 . S
C713 C711 1.419 . S
C713 C714 1.362 . S
C714 H706 0.930 . S
C714 C713 1.362 . S
C714 C717 1.409 . S
C715 H707 0.930 . S
C715 C716 1.355 . S
C715 C717 1.415 . S
C716 C715 1.355 . S
C716 C718 1.419 . S
C717 C712 1.425 . S
C717 C714 1.409 . S
C717 C715 1.415 . S
C718 H708 0.930 . S
C718 C716 1.419 . S
C718 C719 1.362 . S
C719 H709 0.930 . S
C719 C712 1.409 . S
C719 C718 1.362 . S
H720 C726 0.930 . S
H721 C729 0.930 . S
H722 C730 0.930 . S
H723 C731 0.930 . S
H724 C734 0.930 . S
H725 C735 0.930 . S
C726 H720 0.930 . S
C726 C727 1.355 . S
C726 C728 1.415 . S
C727 C726 1.355 . S
C727 C729 1.419 . S
C728 C726 1.415 . S
C728 C733 1.425 . S
C728 C735 1.409 . S
C729 H721 0.930 . S
C729 C727 1.419 . S
C729 C730 1.362 . S
C730 H722 0.930 . S
C730 C729 1.362 . S
C730 C733 1.409 . S
C731 H723 0.930 . S
C731 C732 1.355 . S
C731 C733 1.415 . S
C732 C731 1.355 . S
C732 C734 1.419 . S
C733 C728 1.425 . S
C733 C730 1.409 . S
C733 C731 1.415 . S
C734 H724 0.930 . S
C734 C732 1.419 . S
C734 C735 1.362 . S
C735 H725 0.930 . S
C735 C728 1.409 . S
C735 C734 1.362 . S
H736 C742 0.930 . S
H737 C745 0.930 . S
H738 C746 0.930 . S
H739 C747 0.930 . S
H740 C750 0.930 . S
H741 C751 0.930 . S
C742 H736 0.930 . S
C742 C743 1.355 . S
C742 C744 1.415 . S
C743 C742 1.355 . S
C743 C745 1.419 . S
C744 C742 1.415 . S
C744 C749 1.425 . S
C744 C751 1.409 . S
C745 H737 0.930 . S
C745 C743 1.419 . S
C745 C746 1.362 . S
C746 H738 0.930 . S
C746 C745 1.362 . S
C746 C749 1.409 . S
C747 H739 0.930 . S
C747 C748 1.355 . S
C747 C749 1.415 . S
C748 C747 1.355 . S
C748 C750 1.419 . S
C749 C744 1.425 . S
C749 C746 1.409 . S
C749 C747 1.415 . S
C750 H740 0.930 . S
C750 C748 1.419 . S
C750 C751 1.362 . S
C751 H741 0.930 . S
C751 C744 1.409 . S
C751 C750 1.362 . S
H752 C758 0.930 . S
H753 C761 0.930 . S
H754 C762 0.930 . S
H755 C763 0.930 . S
H756 C766 0.930 . S
H757 C767 0.930 . S
C758 H752 0.930 . S
C758 C759 1.355 . S
C758 C760 1.415 . S
C759 C758 1.355 . S
C759 C761 1.419 . S
C760 C758 1.415 . S
C760 C765 1.425 . S
C760 C767 1.409 . S
C761 H753 0.930 . S
C761 C759 1.419 . S
C761 C762 1.362 . S
C762 H754 0.930 . S
C762 C761 1.362 . S
C762 C765 1.409 . S
C763 H755 0.930 . S
C763 C764 1.355 . S
C763 C765 1.415 . S
C764 C763 1.355 . S
C764 C766 1.419 . S
C765 C760 1.425 . S
C765 C762 1.409 . S
C765 C763 1.415 . S
C766 H756 0.930 . S
C766 C764 1.419 . S
C766 C767 1.362 . S
C767 H757 0.930 . S
C767 C760 1.409 . S
C767 C766 1.362 . S
H768 C774 0.930 . S
H769 C777 0.930 . S
H770 C778 0.930 . S
H771 C779 0.930 . S
H772 C782 0.930 . S
H773 C783 0.930 . S
C774 H768 0.930 . S
C774 C775 1.355 . S
C774 C776 1.415 . S
C775 C774 1.355 . S
C775 C777 1.419 . S
C776 C774 1.415 . S
C776 C781 1.425 . S
C776 C783 1.409 . S
C777 H769 0.930 . S
C777 C775 1.419 . S
C777 C778 1.362 . S
C778 H770 0.930 . S
C778 C777 1.362 . S
C778 C781 1.409 . S
C779 H771 0.930 . S
C779 C780 1.355 . S
C779 C781 1.415 . S
C780 C779 1.355 . S
C780 C782 1.419 . S
C781 C776 1.425 . S
C781 C778 1.409 . S
C781 C779 1.415 . S
C782 H772 0.930 . S
C782 C780 1.419 . S
C782 C783 1.362 . S
C783 H773 0.930 . S
C783 C776 1.409 . S
C783 C782 1.362 . S
H784 C790 0.930 . S
H785 C793 0.930 . S
H786 C794 0.930 . S
H787 C795 0.930 . S
H788 C798 0.930 . S
H789 C799 0.930 . S
C790 H784 0.930 . S
C790 C791 1.355 . S
C790 C792 1.415 . S
C791 C790 1.355 . S
C791 C793 1.419 . S
C792 C790 1.415 . S
C792 C797 1.425 . S
C792 C799 1.409 . S
C793 H785 0.930 . S
C793 C791 1.419 . S
C793 C794 1.362 . S
C794 H786 0.930 . S
C794 C793 1.362 . S
C794 C797 1.409 . S
C795 H787 0.930 . S
C795 C796 1.355 . S
C795 C797 1.415 . S
C796 C795 1.355 . S
C796 C798 1.419 . S
C797 C792 1.425 . S
C797 C794 1.409 . S
C797 C795 1.415 . S
C798 H788 0.930 . S
C798 C796 1.419 . S
C798 C799 1.362 . S
C799 H789 0.930 . S
C799 C792 1.409 . S
C799 C798 1.362 . S
H800 C806 0.930 . S
H801 C809 0.930 . S
H802 C810 0.930 . S
H803 C811 0.930 . S
H804 C814 0.930 . S
H805 C815 0.930 . S
C806 H800 0.930 . S
C806 C807 1.355 . S
C806 C808 1.415 . S
C807 C806 1.355 . S
C807 C809 1.419 . S
C808 C806 1.415 . S
C808 C813 1.425 . S
C808 C815 1.409 . S
C809 H801 0.930 . S
C809 C807 1.419 . S
C809 C810 1.362 . S
C810 H802 0.930 . S
C810 C809 1.362 . S
C810 C813 1.409 . S
C811 H803 0.930 . S
C811 C812 1.355 . S
C811 C813 1.415 . S
C812 C811 1.355 . S
C812 C814 1.419 . S
C813 C808 1.425 . S
C813 C810 1.409 . S
C813 C811 1.415 . S
C814 H804 0.930 . S
C814 C812 1.419 . S
C814 C815 1.362 . S
C815 H805 0.930 . S
C815 C808 1.409 . S
C815 C814 1.362 . S
H816 C822 0.930 . S
H817 C825 0.930 . S
H818 C826 0.930 . S
H819 C827 0.930 . S
H820 C830 0.930 . S
H821 C831 0.930 . S
C822 H816 0.930 . S
C822 C823 1.355 . S
C822 C824 1.415 . S
C823 C822 1.355 . S
C823 C825 1.419 . S
C824 C822 1.415 . S
C824 C829 1.425 . S
C824 C831 1.409 . S
C825 H817 0.930 . S
C825 C823 1.419 . S
C825 C826 1.362 . S
C826 H818 0.930 . S
C826 C825 1.362 . S
C826 C829 1.409 . S
C827 H819 0.930 . S
C827 C828 1.355 . S
C827 C829 1.415 . S
C828 C827 1.355 . S
C828 C830 1.419 . S
C829 C824 1.425 . S
C829 C826 1.409 . S
C829 C827 1.415 . S
C830 H820 0.930 . S
C830 C828 1.419 . S
C830 C831 1.362 . S
C831 H821 0.930 . S
C831 C824 1.409 . S
C831 C830 1.362 . S
H832 C838 0.930 . S
H833 C841 0.930 . S
H834 C842 0.930 . S
H835 C843 0.930 . S
H836 C846 0.930 . S
H837 C847 0.930 . S
C838 H832 0.930 . S
C838 C839 1.355 . S
C838 C840 1.415 . S
C839 C838 1.355 . S
C839 C841 1.419 . S
C840 C838 1.415 . S
C840 C845 1.425 . S
C840 C847 1.409 . S
C841 H833 0.930 . S
C841 C839 1.419 . S
C841 C842 1.362 . S
C842 H834 0.930 . S
C842 C841 1.362 . S
C842 C845 1.409 . S
C843 H835 0.930 . S
C843 C844 1.355 . S
C843 C845 1.415 . S
C844 C843 1.355 . S
C844 C846 1.419 . S
C845 C840 1.425 . S
C845 C842 1.409 . S
C845 C843 1.415 . S
C846 H836 0.930 . S
C846 C844 1.419 . S
C846 C847 1.362 . S
C847 H837 0.930 . S
C847 C840 1.409 . S
C847 C846 1.362 . S
H848 C854 0.930 . S
H849 C857 0.930 . S
H850 C858 0.930 . S
H851 C859 0.930 . S
H852 C862 0.930 . S
H853 C863 0.930 . S
C854 H848 0.930 . S
C854 C855 1.355 . S
C854 C856 1.415 . S
C855 C854 1.355 . S
C855 C857 1.419 . S
C856 C854 1.415 . S
C856 C861 1.425 . S
C856 C863 1.409 . S
C857 H849 0.930 . S
C857 C855 1.419 . S
C857 C858 1.362 . S
C858 H850 0.930 . S
C858 C857 1.362 . S
C858 C861 1.409 . S
C859 H851 0.930 . S
C859 C860 1.355 . S
C859 C861 1.415 . S
C860 C859 1.355 . S
C860 C862 1.419 . S
C861 C856 1.425 . S
C861 C858 1.409 . S
C861 C859 1.415 . S
C862 H852 0.930 . S
C862 C860 1.419 . S
C862 C863 1.362 . S
C863 H853 0.930 . S
C863 C856 1.409 . S
C863 C862 1.362 . S
H864 C870 0.930 . S
H865 C873 0.930 . S
H866 C874 0.930 . S
H867 C875 0.930 . S
H868 C878 0.930 . S
H869 C879 0.930 . S
C870 H864 0.930 . S
C870 C871 1.355 . S
C870 C872 1.415 . S
C871 C870 1.355 . S
C871 C873 1.419 . S
C872 C870 1.415 . S
C872 C877 1.425 . S
C872 C879 1.409 . S
C873 H865 0.930 . S
C873 C871 1.419 . S
C873 C874 1.362 . S
C874 H866 0.930 . S
C874 C873 1.362 . S
C874 C877 1.409 . S
C875 H867 0.930 . S
C875 C876 1.355 . S
C875 C877 1.415 . S
C876 C875 1.355 . S
C876 C878 1.419 . S
C877 C872 1.425 . S
C877 C874 1.409 . S
C877 C875 1.415 . S
C878 H868 0.930 . S
C878 C876 1.419 . S
C878 C879 1.362 . S
C879 H869 0.930 . S
C879 C872 1.409 . S
C879 C878 1.362 . S
H880 C886 0.930 . S
H881 C889 0.930 . S
H882 C890 0.930 . S
H883 C891 0.930 . S
H884 C894 0.930 . S
H885 C895 0.930 . S
C886 H880 0.930 . S
C886 C887 1.355 . S
C886 C888 1.415 . S
C887 C886 1.355 . S
C887 C889 1.419 . S
C888 C886 1.415 . S
C888 C893 1.425 . S
C888 C895 1.409 . S
C889 H881 0.930 . S
C889 C887 1.419 . S
C889 C890 1.362 . S
C890 H882 0.930 . S
C890 C889 1.362 . S
C890 C893 1.409 . S
C891 H883 0.930 . S
C891 C892 1.355 . S
C891 C893 1.415 . S
C892 C891 1.355 . S
C892 C894 1.419 . S
C893 C888 1.425 . S
C893 C890 1.409 . S
C893 C891 1.415 . S
C894 H884 0.930 . S
C894 C892 1.419 . S
C894 C895 1.362 . S
C895 H885 0.930 . S
C895 C888 1.409 . S
C895 C894 1.362 . S
H896 C902 0.930 . S
H897 C905 0.930 . S
H898 C906 0.930 . S
H899 C907 0.930 . S
H900 C910 0.930 . S
H901 C911 0.930 . S
C902 H896 0.930 . S
C902 C903 1.355 . S
C902 C904 1.415 . S
C903 C902 1.355 . S
C903 C905 1.419 . S
C904 C902 1.415 . S
C904 C909 1.425 . S
C904 C911 1.409 . S
C905 H897 0.930 . S
C905 C903 1.419 . S
C905 C906 1.362 . S
C906 H898 0.930 . S
C906 C905 1.362 . S
C906 C909 1.409 . S
C907 H899 0.930 . S
C907 C908 1.355 . S
C907 C909 1.415 . S
C908 C907 1.355 . S
C908 C910 1.419 . S
C909 C904 1.425 . S
C909 C906 1.409 . S
C909 C907 1.415 . S
C910 H900 0.930 . S
C910 C908 1.419 . S
C910 C911 1.362 . S
C911 H901 0.930 . S
C911 C904 1.409 . S
C911 C910 1.362 . S
H912 C918 0.930 . S
H913 C921 0.930 . S
H914 C922 0.930 . S
H915 C923 0.930 . S
H916 C926 0.930 . S
H917 C927 0.930 . S
C918 H912 0.930 . S
C918 C919 1.355 . S
C918 C920 1.415 . S
C919 C918 1.355 . S
C919 C921 1.419 . S
C920 C918 1.415 . S
C920 C925 1.425 . S
C920 C927 1.409 . S
C921 H913 0.930 . S
C921 C919 1.419 . S
C921 C922 1.362 . S
C922 H914 0.930 . S
C922 C921 1.362 . S
C922 C925 1.409 . S
C923 H915 0.930 . S
C923 C924 1.355 . S
C923 C925 1.415 . S
C924 C923 1.355 . S
C924 C926 1.419 . S
C925 C920 1.425 . S
C925 C922 1.409 . S
C925 C923 1.415 . S
C926 H916 0.930 . S
C926 C924 1.419 . S
C926 C927 1.362 . S
C927 H917 0.930 . S
C927 C920 1.409 . S
C927 C926 1.362 . S
H928 C934 0.930 . S
H929 C937 0.930 . S
H930 C938 0.930 . S
H931 C939 0.930 . S
H932 C942 0.930 . S
H933 C943 0.930 . S
C934 H928 0.930 . S
C934 C935 1.355 . S
C934 C936 1.415 . S
C935 C934 1.355 . S
C935 C937 1.419 . S
C936 C934 1.415 . S
C936 C941 1.425 . S
C936 C943 1.409 . S
C937 H929 0.930 . S
C937 C935 1.419 . S
C937 C938 1.362 . S
C938 H930 0.930 . S
C938 C937 1.362 . S
C938 C941 1.409 . S
C939 H931 0.930 . S
C939 C940 1.355 . S
C939 C941 1.415 . S
C940 C939 1.355 . S
C940 C942 1.419 . S
C941 C936 1.425 . S
C941 C938 1.409 . S
C941 C939 1.415 . S
C942 H932 0.930 . S
C942 C940 1.419 . S
C942 C943 1.362 . S
C943 H933 0.930 . S
C943 C936 1.409 . S
C943 C942 1.362 . S
H944 C950 0.930 . S
H945 C953 0.930 . S
H946 C954 0.930 . S
H947 C955 0.930 . S
H948 C958 0.930 . S
H949 C959 0.930 . S
C950 H944 0.930 . S
C950 C951 1.355 . S
C950 C952 1.415 . S
C951 C950 1.355 . S
C951 C953 1.419 . S
C952 C950 1.415 . S
C952 C957 1.425 . S
C952 C959 1.409 . S
C953 H945 0.930 . S
C953 C951 1.419 . S
C953 C954 1.362 . S
C954 H946 0.930 . S
C954 C953 1.362 . S
C954 C957 1.409 . S
C955 H947 0.930 . S
C955 C956 1.355 . S
C955 C957 1.415 . S
C956 C955 1.355 . S
C956 C958 1.419 . S
C957 C952 1.425 . S
C957 C954 1.409 . S
C957 C955 1.415 . S
C958 H948 0.930 . S
C958 C956 1.419 . S
C958 C959 1.362 . S
C959 H949 0.930 . S
C959 C952 1.409 . S
C959 C958 1.362 . S
H960 C966 0.930 . S
H961 C969 0.930 . S
H962 C970 0.930 . S
H963 C971 0.930 . S
H964 C974 0.930 . S
H965 C975 0.930 . S
C966 H960 0.930 . S
C966 C967 1.355 . S
C966 C968 1.415 . S
C967 C966 1.355 . S
C967 C969 1.419 . S
C968 C966 1.415 . S
C968 C973 1.425 . S
C968 C975 1.409 . S
C969 H961 0.930 . S
C969 C967 1.419 . S
C969 C970 1.362 . S
C970 H962 0.930 . S
C970 C969 1.362 . S
C970 C973 1.409 . S
C971 H963 0.930 . S
C971 C972 1.355 . S
C971 C973 1.415 . S
C972 C971 1.355 . S
C972 C974 1.419 . S
C973 C968 1.425 . S
C973 C970 1.409 . S
C973 C971 1.415 . S
C974 H964 0.930 . S
C974 C972 1.419 . S
C974 C975 1.362 . S
C975 H965 0.930 . S
C975 C968 1.409 . S
C975 C974 1.362 . S
H976 C982 0.930 . S
H977 C985 0.930 . S
H978 C986 0.930 . S
H979 C987 0.930 . S
H980 C990 0.930 . S
H981 C991 0.930 . S
C982 H976 0.930 . S
C982 C983 1.355 . S
C982 C984 1.415 . S
C983 C982 1.355 . S
C983 C985 1.419 . S
C984 C982 1.415 . S
C984 C989 1.425 . S
C984 C991 1.409 . S
C985 H977 0.930 . S
C985 C983 1.419 . S
C985 C986 1.362 . S
C986 H978 0.930 . S
C986 C985 1.362 . S
C986 C989 1.409 . S
C987 H979 0.930 . S
C987 C988 1.355 . S
C987 C989 1.415 . S
C988 C987 1.355 . S
C988 C990 1.419 . S
C989 C984 1.425 . S
C989 C986 1.409 . S
C989 C987 1.415 . S
C990 H980 0.930 . S
C990 C988 1.419 . S
C990 C991 1.362 . S
C991 H981 0.930 . S
C991 C984 1.409 . S
C991 C990 1.362 . S
H992 C998 0.930 . S
H993 C1001 0.930 . S
H994 C1002 0.930 . S
H995 C1003 0.930 . S
H996 C1006 0.930 . S
H997 C1007 0.930 . S
C998 H992 0.930 . S
C998 C999 1.355 . S
C998 C1000 1.415 . S
C999 C998 1.355 . S
C999 C1001 1.419 . S
C1000 C998 1.415 . S
C1000 C1005 1.425 . S
C1000 C1007 1.409 . S
C1001 H993 0.930 . S
C1001 C999 1.419 . S
C1001 C1002 1.362 . S
C1002 H994 0.930 . S
C1002 C1001 1.362 . S
C1002 C1005 1.409 . S
C1003 H995 0.930 . S
C1003 C1004 1.355 . S
C1003 C1005 1.415 . S
C1004 C1003 1.355 . S
C1004 C1006 1.419 . S
C1005 C1000 1.425 . S
C1005 C1002 1.409 . S
C1005 C1003 1.415 . S
C1006 H996 0.930 . S
C1006 C1004 1.419 . S
C1006 C1007 1.362 . S
C1007 H997 0.930 . S
C1007 C1000 1.409 . S
C1007 C1006 1.362 . S
H1008 C1014 0.930 . S
H1009 C1017 0.930 . S
H1010 C1018 0.930 . S
H1011 C1019 0.930 . S
H1012 C1022 0.930 . S
H1013 C1023 0.930 . S
C1014 H1008 0.930 . S
C1014 C1015 1.355 . S
C1014 C1016 1.415 . S
C1015 C1014 1.355 . S
C1015 C1017 1.419 . S
C1016 C1014 1.415 . S
C1016 C1021 1.425 . S
C1016 C1023 1.409 . S
C1017 H1009 0.930 . S
C1017 C1015 1.419 . S
C1017 C1018 1.362 . S
C1018 H1010 0.930 . S
C1018 C1017 1.362 . S
C1018 C1021 1.409 . S
C1019 H1011 0.930 . S
C1019 C1020 1.355 . S
C1019 C1021 1.415 . S
C1020 C1019 1.355 . S
C1020 C1022 1.419 . S
C1021 C1016 1.425 . S
C1021 C1018 1.409 . S
C1021 C1019 1.415 . S
C1022 H1012 0.930 . S
C1022 C1020 1.419 . S
C1022 C1023 1.362 . S
C1023 H1013 0.930 . S
C1023 C1016 1.409 . S
C1023 C1022 1.362 . S
H1024 C1030 0.930 . S
H1025 C1033 0.930 . S
H1026 C1034 0.930 . S
H1027 C1035 0.930 . S
H1028 C1038 0.930 . S
H1029 C1039 0.930 . S
C1030 H1024 0.930 . S
C1030 C1031 1.355 . S
C1030 C1032 1.415 . S
C1031 C1030 1.355 . S
C1031 C1033 1.419 . S
C1032 C1030 1.415 . S
C1032 C1037 1.425 . S
C1032 C1039 1.409 . S
C1033 H1025 0.930 . S
C1033 C1031 1.419 . S
C1033 C1034 1.362 . S
C1034 H1026 0.930 . S
C1034 C1033 1.362 . S
C1034 C1037 1.409 . S
C1035 H1027 0.930 . S
C1035 C1036 1.355 . S
C1035 C1037 1.415 . S
C1036 C1035 1.355 . S
C1036 C1038 1.419 . S
C1037 C1032 1.425 . S
C1037 C1034 1.409 . S
C1037 C1035 1.415 . S
C1038 H1028 0.930 . S
C1038 C1036 1.419 . S
C1038 C1039 1.362 . S
C1039 H1029 0.930 . S
C1039 C1032 1.409 . S
C1039 C1038 1.362 . S
H1040 C1046 0.930 . S
H1041 C1049 0.930 . S
H1042 C1050 0.930 . S
H1043 C1051 0.930 . S
H1044 C1054 0.930 . S
H1045 C1055 0.930 . S
C1046 H1040 0.930 . S
C1046 C1047 1.355 . S
C1046 C1048 1.415 . S
C1047 C1046 1.355 . S
C1047 C1049 1.419 . S
C1048 C1046 1.415 . S
C1048 C1053 1.425 . S
C1048 C1055 1.409 . S
C1049 H1041 0.930 . S
C1049 C1047 1.419 . S
C1049 C1050 1.362 . S
C1050 H1042 0.930 . S
C1050 C1049 1.362 . S
C1050 C1053 1.409 . S
C1051 H1043 0.930 . S
C1051 C1052 1.355 . S
C1051 C1053 1.415 . S
C1052 C1051 1.355 . S
C1052 C1054 1.419 . S
C1053 C1048 1.425 . S
C1053 C1050 1.409 . S
C1053 C1051 1.415 . S
C1054 H1044 0.930 . S
C1054 C1052 1.419 . S
C1054 C1055 1.362 . S
C1055 H1045 0.930 . S
C1055 C1048 1.409 . S
C1055 C1054 1.362 . S
H1056 C1062 0.930 . S
H1057 C1065 0.930 . S
H1058 C1066 0.930 . S
H1059 C1067 0.930 . S
H1060 C1070 0.930 . S
H1061 C1071 0.930 . S
C1062 H1056 0.930 . S
C1062 C1063 1.355 . S
C1062 C1064 1.415 . S
C1063 C1062 1.355 . S
C1063 C1065 1.419 . S
C1064 C1062 1.415 . S
C1064 C1069 1.425 . S
C1064 C1071 1.409 . S
C1065 H1057 0.930 . S
C1065 C1063 1.419 . S
C1065 C1066 1.362 . S
C1066 H1058 0.930 . S
C1066 C1065 1.362 . S
C1066 C1069 1.409 . S
C1067 H1059 0.930 . S
C1067 C1068 1.355 . S
C1067 C1069 1.415 . S
C1068 C1067 1.355 . S
C1068 C1070 1.419 . S
C1069 C1064 1.425 . S
C1069 C1066 1.409 . S
C1069 C1067 1.415 . S
C1070 H1060 0.930 . S
C1070 C1068 1.419 . S
C1070 C1071 1.362 . S
C1071 H1061 0.930 . S
C1071 C1064 1.409 . S
C1071 C1070 1.362 . S
H1072 C1078 0.930 . S
H1073 C1081 0.930 . S
H1074 C1082 0.930 . S
H1075 C1083 0.930 . S
H1076 C1086 0.930 . S
H1077 C1087 0.930 . S
C1078 H1072 0.930 . S
C1078 C1079 1.355 . S
C1078 C1080 1.415 . S
C1079 C1078 1.355 . S
C1079 C1081 1.419 . S
C1080 C1078 1.415 . S
C1080 C1085 1.425 . S
C1080 C1087 1.409 . S
C1081 H1073 0.930 . S
C1081 C1079 1.419 . S
C1081 C1082 1.362 . S
C1082 H1074 0.930 . S
C1082 C1081 1.362 . S
C1082 C1085 1.409 . S
C1083 H1075 0.930 . S
C1083 C1084 1.355 . S
C1083 C1085 1.415 . S
C1084 C1083 1.355 . S
C1084 C1086 1.419 . S
C1085 C1080 1.425 . S
C1085 C1082 1.409 . S
C1085 C1083 1.415 . S
C1086 H1076 0.930 . S
C1086 C1084 1.419 . S
C1086 C1087 1.362 . S
C1087 H1077 0.930 . S
C1087 C1080 1.409 . S
C1087 C1086 1.362 . S
H1088 C1094 0.930 . S
H1089 C1097 0.930 . S
H1090 C1098 0.930 . S
H1091 C1099 0.930 . S
H1092 C1102 0.930 . S
H1093 C1103 0.930 . S
C1094 H1088 0.930 . S
C1094 C1095 1.355 . S
C1094 C1096 1.415 . S
C1095 C1094 1.355 . S
C1095 C1097 1.419 . S
C1096 C1094 1.415 . S
C1096 C1101 1.425 . S
C1096 C1103 1.409 1_556 S
C1097 H1089 0.930 . S
C1097 C1095 1.419 . S
C1097 C1098 1.362 . S
C1098 H1090 0.930 . S
C1098 C1097 1.362 . S
C1098 C1101 1.409 . S
C1099 H1091 0.930 . S
C1099 C1100 1.355 . S
C1099 C1101 1.415 1_554 S
C1100 C1099 1.355 . S
C1100 C1102 1.419 . S
C1101 C1096 1.425 . S
C1101 C1098 1.409 . S
C1101 C1099 1.415 1_556 S
C1102 H1092 0.930 . S
C1102 C1100 1.419 . S
C1102 C1103 1.362 . S
C1103 H1093 0.930 . S
C1103 C1096 1.409 1_554 S
C1103 C1102 1.362 . S
H1104 C1110 0.930 . S
H1105 C1113 0.930 . S
H1106 C1114 0.930 . S
H1107 C1115 0.930 . S
H1108 C1118 0.930 . S
H1109 C1119 0.930 1_554 S
C1110 H1104 0.930 . S
C1110 C1111 1.355 . S
C1110 C1112 1.415 . S
C1111 C1110 1.355 . S
C1111 C1113 1.419 . S
C1112 C1110 1.415 . S
C1112 C1117 1.425 1_554 S
C1112 C1119 1.409 1_554 S
C1113 H1105 0.930 . S
C1113 C1111 1.419 . S
C1113 C1114 1.362 1_554 S
C1114 H1106 0.930 . S
C1114 C1113 1.362 1_556 S
C1114 C1117 1.409 . S
C1115 H1107 0.930 . S
C1115 C1116 1.355 . S
C1115 C1117 1.415 . S
C1116 C1115 1.355 . S
C1116 C1118 1.419 . S
C1117 C1112 1.425 1_556 S
C1117 C1114 1.409 . S
C1117 C1115 1.415 . S
C1118 H1108 0.930 . S
C1118 C1116 1.419 . S
C1118 C1119 1.362 . S
C1119 H1109 0.930 1_556 S
C1119 C1112 1.409 1_556 S
C1119 C1118 1.362 . S
H1120 C1126 0.930 . S
H1121 C1129 0.930 . S
H1122 C1130 0.930 . S
H1123 C1131 0.930 . S
H1124 C1134 0.930 . S
H1125 C1135 0.930 . S
C1126 H1120 0.930 . S
C1126 C1127 1.355 . S
C1126 C1128 1.415 . S
C1127 C1126 1.355 . S
C1127 C1129 1.419 . S
C1128 C1126 1.415 . S
C1128 C1133 1.425 . S
C1128 C1135 1.409 1_556 S
C1129 H1121 0.930 . S
C1129 C1127 1.419 . S
C1129 C1130 1.362 . S
C1130 H1122 0.930 . S
C1130 C1129 1.362 . S
C1130 C1133 1.409 . S
C1131 H1123 0.930 . S
C1131 C1132 1.355 . S
C1131 C1133 1.415 1_554 S
C1132 C1131 1.355 . S
C1132 C1134 1.419 . S
C1133 C1128 1.425 . S
C1133 C1130 1.409 . S
C1133 C1131 1.415 1_556 S
C1134 H1124 0.930 . S
C1134 C1132 1.419 . S
C1134 C1135 1.362 . S
C1135 H1125 0.930 . S
C1135 C1128 1.409 1_554 S
C1135 C1134 1.362 . S
H1136 C1142 0.930 . S
H1137 C1145 0.930 . S
H1138 C1146 0.930 . S
H1139 C1147 0.930 . S
H1140 C1150 0.930 . S
H1141 C1151 0.930 1_554 S
C1142 H1136 0.930 . S
C1142 C1143 1.355 . S
C1142 C1144 1.415 . S
C1143 C1142 1.355 . S
C1143 C1145 1.419 . S
C1144 C1142 1.415 . S
C1144 C1149 1.425 1_554 S
C1144 C1151 1.409 1_554 S
C1145 H1137 0.930 . S
C1145 C1143 1.419 . S
C1145 C1146 1.362 1_554 S
C1146 H1138 0.930 . S
C1146 C1145 1.362 1_556 S
C1146 C1149 1.409 . S
C1147 H1139 0.930 . S
C1147 C1148 1.355 . S
C1147 C1149 1.415 . S
C1148 C1147 1.355 . S
C1148 C1150 1.419 . S
C1149 C1144 1.425 1_556 S
C1149 C1146 1.409 . S
C1149 C1147 1.415 . S
C1150 H1140 0.930 . S
C1150 C1148 1.419 . S
C1150 C1151 1.362 . S
C1151 H1141 0.930 1_556 S
C1151 C1144 1.409 1_556 S
C1151 C1150 1.362 . S
H1152 C1158 0.930 . S
H1153 C1161 0.930 . S
H1154 C1162 0.911 1_545 S
H1155 C1163 0.930 . S
H1156 C1166 0.930 . S
H1157 C1167 0.930 . S
C1158 H1152 0.930 . S
C1158 C1159 1.355 . S
C1158 C1160 1.415 . S
C1159 C1158 1.355 . S
C1159 C1161 1.419 . S
C1160 C1158 1.415 . S
C1160 C1165 1.425 . S
C1160 C1167 1.409 . S
C1161 H1153 0.930 . S
C1161 C1159 1.419 . S
C1161 C1162 1.362 . S
C1162 H1154 0.911 1_565 S
C1162 C1161 1.362 . S
C1162 C1165 1.409 . S
C1163 H1155 0.930 . S
C1163 C1164 1.355 . S
C1163 C1165 1.415 . S
C1164 C1163 1.355 . S
C1164 C1166 1.419 . S
C1165 C1160 1.425 . S
C1165 C1162 1.409 . S
C1165 C1163 1.415 . S
C1166 H1156 0.930 . S
C1166 C1164 1.419 . S
C1166 C1167 1.362 . S
C1167 H1157 0.930 . S
C1167 C1160 1.409 . S
C1167 C1166 1.362 . S
H1168 C1174 0.930 . S
H1169 C1177 0.930 . S
H1170 C1178 0.930 . S
H1171 C1179 0.930 . S
H1172 C1182 0.930 . S
H1173 C1183 0.930 . S
C1174 H1168 0.930 . S
C1174 C1175 1.355 . S
C1174 C1176 1.415 . S
C1175 C1174 1.355 . S
C1175 C1177 1.419 . S
C1176 C1174 1.415 . S
C1176 C1181 1.425 . S
C1176 C1183 1.409 . S
C1177 H1169 0.930 . S
C1177 C1175 1.419 . S
C1177 C1178 1.362 . S
C1178 H1170 0.930 . S
C1178 C1177 1.362 . S
C1178 C1181 1.409 . S
C1179 H1171 0.930 . S
C1179 C1180 1.355 . S
C1179 C1181 1.415 . S
C1180 C1179 1.355 . S
C1180 C1182 1.419 . S
C1181 C1176 1.425 . S
C1181 C1178 1.409 . S
C1181 C1179 1.415 . S
C1182 H1172 0.930 . S
C1182 C1180 1.419 . S
C1182 C1183 1.362 . S
C1183 H1173 0.930 . S
C1183 C1176 1.409 . S
C1183 C1182 1.362 . S
H1184 C1190 0.930 . S
H1185 C1193 0.930 . S
H1186 C1194 0.930 . S
H1187 C1195 0.930 . S
H1188 C1198 0.930 . S
H1189 C1199 0.930 . S
C1190 H1184 0.930 . S
C1190 C1191 1.355 . S
C1190 C1192 1.415 . S
C1191 C1190 1.355 . S
C1191 C1193 1.419 . S
C1192 C1190 1.415 . S
C1192 C1197 1.425 . S
C1192 C1199 1.409 . S
C1193 H1185 0.930 . S
C1193 C1191 1.419 . S
C1193 C1194 1.362 . S
C1194 H1186 0.930 . S
C1194 C1193 1.362 . S
C1194 C1197 1.409 . S
C1195 H1187 0.930 . S
C1195 C1196 1.355 . S
C1195 C1197 1.415 . S
C1196 C1195 1.355 . S
C1196 C1198 1.419 . S
C1197 C1192 1.425 . S
C1197 C1194 1.409 . S
C1197 C1195 1.415 . S
C1198 H1188 0.930 . S
C1198 C1196 1.419 . S
C1198 C1199 1.362 . S
C1199 H1189 0.930 . S
C1199 C1192 1.409 . S
C1199 C1198 1.362 . S
H1200 C1206 0.930 . S
H1201 C1209 0.930 . S
H1202 C1210 0.930 . S
H1203 C1211 0.930 . S
H1204 C1214 0.930 . S
H1205 C1215 0.930 . S
C1206 H1200 0.930 . S
C1206 C1207 1.355 . S
C1206 C1208 1.415 . S
C1207 C1206 1.355 . S
C1207 C1209 1.419 . S
C1208 C1206 1.415 . S
C1208 C1213 1.425 . S
C1208 C1215 1.409 . S
C1209 H1201 0.930 . S
C1209 C1207 1.419 . S
C1209 C1210 1.362 . S
C1210 H1202 0.930 . S
C1210 C1209 1.362 . S
C1210 C1213 1.409 . S
C1211 H1203 0.930 . S
C1211 C1212 1.355 . S
C1211 C1213 1.415 . S
C1212 C1211 1.355 . S
C1212 C1214 1.419 . S
C1213 C1208 1.425 . S
C1213 C1210 1.409 . S
C1213 C1211 1.415 . S
C1214 H1204 0.930 . S
C1214 C1212 1.419 . S
C1214 C1215 1.362 . S
C1215 H1205 0.930 . S
C1215 C1208 1.409 . S
C1215 C1214 1.362 . S
H1216 C1222 0.930 . S
H1217 C1225 0.930 . S
H1218 C1226 0.930 . S
H1219 C1227 0.930 . S
H1220 C1230 0.930 . S
H1221 C1231 0.930 1_556 S
C1222 H1216 0.930 . S
C1222 C1223 1.355 . S
C1222 C1224 1.415 . S
C1223 C1222 1.355 . S
C1223 C1225 1.419 . S
C1224 C1222 1.415 . S
C1224 C1229 1.425 1_556 S
C1224 C1231 1.409 1_556 S
C1225 H1217 0.930 . S
C1225 C1223 1.419 . S
C1225 C1226 1.362 1_556 S
C1226 H1218 0.930 . S
C1226 C1225 1.362 1_554 S
C1226 C1229 1.409 . S
C1227 H1219 0.930 . S
C1227 C1228 1.355 . S
C1227 C1229 1.415 . S
C1228 C1227 1.355 . S
C1228 C1230 1.419 . S
C1229 C1224 1.425 1_554 S
C1229 C1226 1.409 . S
C1229 C1227 1.415 . S
C1230 H1220 0.930 . S
C1230 C1228 1.419 . S
C1230 C1231 1.362 . S
C1231 H1221 0.930 1_554 S
C1231 C1224 1.409 1_554 S
C1231 C1230 1.362 . S
H1232 C1238 0.930 . S
H1233 C1241 0.930 . S
H1234 C1242 0.919 1_554 S
H1235 C1243 0.930 . S
H1236 C1246 0.930 . S
H1237 C1247 0.930 . S
C1238 H1232 0.930 . S
C1238 C1239 1.355 . S
C1238 C1240 1.441 . S
C1239 C1238 1.355 . S
C1239 C1241 1.419 . S
C1240 C1238 1.441 . S
C1240 C1245 1.412 1_556 S
C1240 C1247 1.396 1_556 S
C1241 H1233 0.930 . S
C1241 C1239 1.419 . S
C1241 C1242 1.384 . S
C1242 H1234 0.919 1_556 S
C1242 C1241 1.384 . S
C1242 C1245 1.398 1_556 S
C1243 H1235 0.930 . S
C1243 C1244 1.355 . S
C1243 C1245 1.415 . S
C1244 C1243 1.355 . S
C1244 C1246 1.419 . S
C1245 C1240 1.412 1_554 S
C1245 C1242 1.398 1_554 S
C1245 C1243 1.415 . S
C1246 H1236 0.930 . S
C1246 C1244 1.419 . S
C1246 C1247 1.362 . S
C1247 H1237 0.930 . S
C1247 C1240 1.396 1_554 S
C1247 C1246 1.362 . S
H1248 C1254 0.930 . S
H1249 C1257 0.930 . S
H1250 C1258 0.930 . S
H1251 C1259 0.930 . S
H1252 C1262 0.930 . S
H1253 C1263 0.930 . S
C1254 H1248 0.930 . S
C1254 C1255 1.355 . S
C1254 C1256 1.415 . S
C1255 C1254 1.355 . S
C1255 C1257 1.419 . S
C1256 C1254 1.415 . S
C1256 C1261 1.425 . S
C1256 C1263 1.409 1_554 S
C1257 H1249 0.930 . S
C1257 C1255 1.419 . S
C1257 C1258 1.362 . S
C1258 H1250 0.930 . S
C1258 C1257 1.362 . S
C1258 C1261 1.409 . S
C1259 H1251 0.930 . S
C1259 C1260 1.355 . S
C1259 C1261 1.415 1_556 S
C1260 C1259 1.355 . S
C1260 C1262 1.419 . S
C1261 C1256 1.425 . S
C1261 C1258 1.409 . S
C1261 C1259 1.415 1_554 S
C1262 H1252 0.930 . S
C1262 C1260 1.419 . S
C1262 C1263 1.362 . S
C1263 H1253 0.930 . S
C1263 C1256 1.409 1_556 S
C1263 C1262 1.362 . S
H1264 C1270 0.930 . S
H1265 C1273 0.930 . S
H1266 C1274 0.930 . S
H1267 C1275 0.930 . S
H1268 C1278 0.930 . S
H1269 C1279 0.930 . S
C1270 H1264 0.930 . S
C1270 C1271 1.355 . S
C1270 C1272 1.415 . S
C1271 C1270 1.355 . S
C1271 C1273 1.419 . S
C1272 C1270 1.415 . S
C1272 C1277 1.425 . S
C1272 C1279 1.409 1_554 S
C1273 H1265 0.930 . S
C1273 C1271 1.419 . S
C1273 C1274 1.362 . S
C1274 H1266 0.930 . S
C1274 C1273 1.362 . S
C1274 C1277 1.409 . S
C1275 H1267 0.930 . S
C1275 C1276 1.355 . S
C1275 C1277 1.415 1_556 S
C1276 C1275 1.355 . S
C1276 C1278 1.419 . S
C1277 C1272 1.425 . S
C1277 C1274 1.409 . S
C1277 C1275 1.415 1_554 S
C1278 H1268 0.930 . S
C1278 C1276 1.419 . S
C1278 C1279 1.362 . S
C1279 H1269 0.930 . S
C1279 C1272 1.409 1_556 S
C1279 C1278 1.362 . S
C519 C4 1.580 . S
C524 C164 1.622 . S
C535 C221 1.578 . S
C540 C61 1.623 . S
C551 C68 1.622 . S
C556 C228 1.579 . S
C567 C125 1.568 . S
C572 C132 1.625 . S
C583 C445 1.611 . S
C588 C260 1.596 . S
C599 C477 1.623 . S
C604 C317 1.578 . S
C615 C349 1.561 . S
C620 C484 1.620 . S
C631 C381 1.566 . S
C636 C388 1.602 . S
C647 C2 2.026 . S
C652 N109 1.802 . S
C663 C38 2.025 . S
C668 N18 1.803 . S
C679 C66 2.024 1_455 S
C684 N45 1.803 . S
C695 C102 1.984 1_545 S
C700 N82 1.709 . S
C711 C130 2.027 1_655 S
C716 N178 1.801 . S
C727 N205 1.698 . S
C732 C162 1.986 1_565 S
C743 C198 2.024 . S
C748 N242 1.766 . S
C759 N146 1.795 . S
C764 C226 2.014 . S
C775 N365 1.782 . S
C780 C258 2.027 . S
C791 C294 2.015 . S
C796 N274 1.738 . S
C807 C326 2.028 1_655 S
C812 N301 1.796 . S
C823 C358 2.021 1_565 S
C828 N333 1.802 . S
C839 C386 1.998 1_455 S
C844 N429 1.705 . S
C855 C422 2.022 1_545 S
C860 N461 1.803 . S
C871 C454 2.009 . S
C876 N498 1.787 . S
C887 C482 1.985 . S
C892 N402 1.702 . S
C903 C29 1.195 . S
C908 C93 1.194 . S
C919 C36 1.124 . S
C924 C100 1.118 . S
C935 C196 1.113 . S
C940 C157 1.118 . S
C951 C253 1.195 . S
C956 C189 1.193 . S
C967 C324 1.193 . S
C972 C285 1.195 . S
C983 C356 1.175 . S
C988 C292 1.181 . S
C999 C413 1.169 . S
C1004 C452 1.162 . S
C1015 C420 1.120 . S
C1020 C509 1.115 . S
C1031 N13 1.362 . S
C1036 C354 1.376 . S
C1047 C262 1.372 . S
C1052 N50 1.328 . S
C1063 N77 1.372 . S
C1068 C290 1.382 . S
C1079 C322 1.371 . S
C1084 N114 1.341 . S
C1095 C418 1.379 . S
C1100 N141 1.371 . S
C1111 N173 1.354 . S
C1116 C450 1.379 . S
C1127 C486 1.375 . S
C1132 N210 1.357 . S
C1143 N237 1.363 . S
C1148 C390 1.380 . S
C1159 N269 1.368 . S
C1164 C98 1.381 . S
C1175 N306 1.356 . S
C1180 C6 1.375 . S
C1191 C34 1.372 . S
C1196 N338 1.347 . S
C1207 N370 1.345 . S
C1212 C70 1.372 . S
C1223 N397 1.336 . S
C1228 C166 1.374 . S
C1239 N434 1.359 . S
C1244 C194 1.379 . S
C1255 C230 1.378 . S
C1260 N466 1.368 . S
C1271 C134 1.379 . S
C1276 N493 1.370 . S
