# Generated by pormake.
# Topology zfa, (5)-cn, num edge types: 1
# Building blocks:
#     Node 0, Type 0, BuildingBlock: XOMCOT_clean_sbu_1, # of connection points: 5
#     Node 1, Type 0, BuildingBlock: XOMCOT_clean_sbu_1, # of connection points: 5
#     Node 2, Type 0, BuildingBlock: XOMCOT_clean_sbu_1, # of connection points: 5
#     Node 3, Type 0, BuildingBlock: XOMCOT_clean_sbu_1, # of connection points: 5
#     Node 4, Type 0, BuildingBlock: XOMCOT_clean_sbu_1, # of connection points: 5
#     Node 5, Type 0, BuildingBlock: XOMCOT_clean_sbu_1, # of connection points: 5
#     Node 6, Type 0, BuildingBlock: XOMCOT_clean_sbu_1, # of connection points: 5
#     Node 7, Type 0, BuildingBlock: XOMCOT_clean_sbu_1, # of connection points: 5
#     Edge 8, Type (0, 0), BuildingBlock: TEMPAE_clean_linker_10, # of connection points: 2
#     Edge 9, Type (0, 0), BuildingBlock: TEMPAE_clean_linker_10, # of connection points: 2
#     Edge 10, Type (0, 0), BuildingBlock: TEMPAE_clean_linker_10, # of connection points: 2
#     Edge 11, Type (0, 0), BuildingBlock: TEMPAE_clean_linker_10, # of connection points: 2
#     Edge 12, Type (0, 0), BuildingBlock: TEMPAE_clean_linker_10, # of connection points: 2
#     Edge 13, Type (0, 0), BuildingBlock: TEMPAE_clean_linker_10, # of connection points: 2
#     Edge 14, Type (0, 0), BuildingBlock: TEMPAE_clean_linker_10, # of connection points: 2
#     Edge 15, Type (0, 0), BuildingBlock: TEMPAE_clean_linker_10, # of connection points: 2
#     Edge 16, Type (0, 0), BuildingBlock: TEMPAE_clean_linker_10, # of connection points: 2
#     Edge 17, Type (0, 0), BuildingBlock: TEMPAE_clean_linker_10, # of connection points: 2
#     Edge 18, Type (0, 0), BuildingBlock: TEMPAE_clean_linker_10, # of connection points: 2
#     Edge 19, Type (0, 0), BuildingBlock: TEMPAE_clean_linker_10, # of connection points: 2
#     Edge 20, Type (0, 0), BuildingBlock: TEMPAE_clean_linker_10, # of connection points: 2
#     Edge 21, Type (0, 0), BuildingBlock: TEMPAE_clean_linker_10, # of connection points: 2
#     Edge 22, Type (0, 0), BuildingBlock: TEMPAE_clean_linker_10, # of connection points: 2
#     Edge 23, Type (0, 0), BuildingBlock: TEMPAE_clean_linker_10, # of connection points: 2
#     Edge 24, Type (0, 0), BuildingBlock: TEMPAE_clean_linker_10, # of connection points: 2
#     Edge 25, Type (0, 0), BuildingBlock: TEMPAE_clean_linker_10, # of connection points: 2
#     Edge 26, Type (0, 0), BuildingBlock: TEMPAE_clean_linker_10, # of connection points: 2
#     Edge 27, Type (0, 0), BuildingBlock: TEMPAE_clean_linker_10, # of connection points: 2
# Relax obj value: 0.195
# Max RMSD: 0.172
# Mean RMSD: 0.172
data_MOF--net-zfa--node1-XOMCOT_clean_sbu_1--edge1-TEMPAE_clean_linker_10
_symmetry_space_group_name_H-M    P1
_symmetry_Int_Tables_number       1
_symmetry_cell_setting            triclinic
loop_
_symmetry_equiv_pos_as_xyz
'x, y, z'
_cell_length_a     31.615369
_cell_length_b     31.644583
_cell_length_c     42.530797
_cell_angle_alpha  89.985339
_cell_angle_beta   89.885763
_cell_angle_gamma 90.011347
loop_
_atom_site_label
_atom_site_type_symbol
_atom_site_fract_x
_atom_site_fract_y
_atom_site_fract_z
_atom_type_partial_charge
C0 C 0.14831 0.17853 0.32308 0.0
C1 C 0.13454 0.1373 0.32197 0.0
N2 N 0.10708 0.13113 0.34577 0.0
N3 N 0.13002 0.19823 0.34776 0.0
C4 C 0.10523 0.1684 0.36117 0.0
H5 H 0.16852 0.19362 0.30591 0.0
Co6 Co 0.13085 0.25595 0.35756 0.0
C7 C 0.16726 0.25651 0.4229 0.0
O8 O 0.19064 0.28941 0.41591 0.0
N9 N 0.13057 0.31533 0.36705 0.0
C10 C 0.14845 0.3832 0.3736 0.0
C11 C 0.16332 0.34298 0.36847 0.0
C12 C 0.09608 0.34034 0.37102 0.0
N13 N 0.10609 0.38145 0.37496 0.0
O14 O 0.07097 0.25332 0.36485 0.0
H15 H 0.19633 0.335 0.36564 0.0
H16 H 0.06387 0.32913 0.3708 0.0
O17 O 0.14264 0.24091 0.40201 0.0
C18 C 0.05255 0.25499 0.33821 0.0
O19 O 0.07563 0.25876 0.31266 0.0
N20 N 0.18812 0.25822 0.3461 0.0
C21 C 0.26632 0.25913 0.31557 0.0
C22 C 0.26139 0.23836 0.34459 0.0
C23 C 0.22161 0.23753 0.35927 0.0
C24 C 0.19246 0.27819 0.31787 0.0
C25 C 0.23124 0.27936 0.30236 0.0
H26 H 0.21747 0.21885 0.38029 0.0
H27 H 0.16514 0.29272 0.30706 0.0
H28 H 0.08457 0.17453 0.38098 0.0
H29 H 0.14184 0.11454 0.30375 0.0
H30 H 0.16725 0.41174 0.37501 0.0
H31 H 0.28756 0.22143 0.35511 0.0
H32 H 0.23363 0.29562 0.28001 0.0
C33 C 0.31303 0.63016 0.80452 0.0
C34 C 0.35305 0.6158 0.79754 0.0
N35 N 0.36851 0.59535 0.82294 0.0
N36 N 0.30351 0.61962 0.83437 0.0
C37 C 0.33768 0.59847 0.84491 0.0
H38 H 0.29167 0.64598 0.78854 0.0
Co39 Co 0.25159 0.62379 0.85477 0.0
C40 C 0.27901 0.67083 0.91225 0.0
O41 O 0.25218 0.701 0.90506 0.0
N42 N 0.19823 0.62521 0.87517 0.0
C43 C 0.14651 0.61724 0.91043 0.0
C44 C 0.1882 0.62797 0.90606 0.0
C45 C 0.16197 0.61165 0.86159 0.0
N46 N 0.1301 0.60649 0.88243 0.0
O47 O 0.25457 0.56435 0.86311 0.0
H48 H 0.21006 0.63294 0.92506 0.0
H49 H 0.15961 0.60336 0.83701 0.0
O50 O 0.28121 0.63758 0.895 0.0
C51 C 0.23992 0.54539 0.83899 0.0
O52 O 0.2253 0.56813 0.81558 0.0
N53 N 0.24767 0.68147 0.84247 0.0
C54 C 0.24521 0.75885 0.81055 0.0
C55 C 0.28097 0.74708 0.82794 0.0
C56 C 0.28173 0.70817 0.84348 0.0
C57 C 0.21266 0.69268 0.82566 0.0
C58 C 0.21049 0.73141 0.81001 0.0
H59 H 0.3105 0.69865 0.85522 0.0
H60 H 0.18706 0.67069 0.82254 0.0
H61 H 0.33844 0.58332 0.86768 0.0
H62 H 0.36873 0.61928 0.77508 0.0
H63 H 0.13078 0.61363 0.9329 0.0
H64 H 0.30854 0.76735 0.82895 0.0
H65 H 0.18267 0.73879 0.79623 0.0
C66 C 0.87477 0.83069 0.31615 0.0
C67 C 0.88812 0.87184 0.31309 0.0
N68 N 0.9138 0.88116 0.33744 0.0
N69 N 0.8913 0.81409 0.34259 0.0
C70 C 0.91472 0.8456 0.35509 0.0
H71 H 0.85566 0.81352 0.29941 0.0
Co72 Co 0.89005 0.75768 0.35559 0.0
C73 C 0.85063 0.76475 0.41972 0.0
O74 O 0.82456 0.73393 0.41287 0.0
N75 N 0.89006 0.69928 0.36834 0.0
C76 C 0.87189 0.63224 0.37853 0.0
C77 C 0.85716 0.67229 0.37253 0.0
C78 C 0.92446 0.67399 0.37167 0.0
N79 N 0.91429 0.63337 0.37769 0.0
O80 O 0.94978 0.76117 0.36295 0.0
H81 H 0.82411 0.68034 0.37025 0.0
H82 H 0.95675 0.68448 0.36918 0.0
O83 O 0.87782 0.77683 0.39921 0.0
C84 C 0.96849 0.75484 0.33677 0.0
O85 O 0.94573 0.74516 0.31199 0.0
N86 N 0.83279 0.75461 0.34405 0.0
C87 C 0.75508 0.75336 0.31287 0.0
C88 C 0.76119 0.77918 0.3394 0.0
C89 C 0.80064 0.7799 0.35441 0.0
C90 C 0.82744 0.72983 0.31815 0.0
C91 C 0.78879 0.72818 0.30256 0.0
H92 H 0.80591 0.80228 0.37316 0.0
H93 H 0.85388 0.71182 0.30911 0.0
H94 H 0.9343 0.8414 0.37568 0.0
H95 H 0.88039 0.89265 0.29377 0.0
H96 H 0.85289 0.60407 0.3816 0.0
H97 H 0.73638 0.80007 0.34758 0.0
H98 H 0.78562 0.70778 0.28225 0.0
C99 C 0.67641 0.36987 0.81333 0.0
C100 C 0.63501 0.38234 0.80953 0.0
N101 N 0.62619 0.41159 0.83155 0.0
N102 N 0.69332 0.39072 0.83799 0.0
C103 C 0.66185 0.41581 0.84859 0.0
H104 H 0.69365 0.34872 0.79799 0.0
Co105 Co 0.74989 0.39283 0.85077 0.0
C106 C 0.74283 0.36081 0.91685 0.0
O107 O 0.77242 0.33287 0.91113 0.0
N108 N 0.80809 0.39611 0.86351 0.0
C109 C 0.87528 0.38119 0.8755 0.0
C110 C 0.83578 0.36468 0.87021 0.0
C111 C 0.8323 0.43151 0.86489 0.0
N112 N 0.8731 0.42331 0.87195 0.0
O113 O 0.74539 0.45325 0.85263 0.0
H114 H 0.82863 0.3313 0.87027 0.0
H115 H 0.82071 0.46302 0.86047 0.0
O116 O 0.73103 0.38638 0.89521 0.0
C117 C 0.75054 0.46406 0.8239 0.0
O118 O 0.7591 0.43419 0.80336 0.0
N119 N 0.75438 0.33471 0.84353 0.0
C120 C 0.75796 0.25474 0.81619 0.0
C121 C 0.7309 0.26263 0.84182 0.0
C122 C 0.7291 0.30322 0.85496 0.0
C123 C 0.77989 0.32764 0.8182 0.0
C124 C 0.78274 0.28789 0.80456 0.0
H125 H 0.70599 0.30982 0.87304 0.0
H126 H 0.79735 0.3536 0.80791 0.0
H127 H 0.66571 0.43847 0.86743 0.0
H128 H 0.614 0.37293 0.79071 0.0
H129 H 0.90376 0.36333 0.88023 0.0
H130 H 0.71064 0.238 0.85113 0.0
H131 H 0.80289 0.28368 0.78417 0.0
C132 C 0.6454 0.32983 0.23799 0.0
C133 C 0.63169 0.37077 0.24168 0.0
N134 N 0.60583 0.38064 0.2175 0.0
N135 N 0.62903 0.31388 0.2113 0.0
C136 C 0.60524 0.34549 0.19935 0.0
H137 H 0.6647 0.31234 0.25443 0.0
Co138 Co 0.63066 0.25791 0.19731 0.0
C139 C 0.6702 0.26738 0.13382 0.0
O140 O 0.69749 0.2379 0.14133 0.0
N141 N 0.63077 0.19979 0.18329 0.0
C142 C 0.64854 0.13291 0.17213 0.0
C143 C 0.66351 0.17266 0.17897 0.0
C144 C 0.59625 0.17497 0.17866 0.0
N145 N 0.60612 0.13438 0.17226 0.0
O146 O 0.57076 0.26101 0.19118 0.0
H147 H 0.69658 0.18035 0.18166 0.0
H148 H 0.564 0.1858 0.18033 0.0
O149 O 0.64175 0.27827 0.15374 0.0
C150 C 0.55425 0.25082 0.21753 0.0
O151 O 0.57926 0.23851 0.24042 0.0
N152 N 0.6883 0.25513 0.20828 0.0
C153 C 0.76602 0.25462 0.23974 0.0
C154 C 0.7589 0.28218 0.2143 0.0
C155 C 0.71952 0.28239 0.19913 0.0
C156 C 0.69453 0.22882 0.23324 0.0
C157 C 0.73324 0.22732 0.24875 0.0
H158 H 0.7134 0.30595 0.18131 0.0
H159 H 0.66873 0.20936 0.24161 0.0
H160 H 0.58583 0.34153 0.17867 0.0
H161 H 0.63938 0.39092 0.26136 0.0
H162 H 0.66742 0.10469 0.16892 0.0
H163 H 0.78276 0.30477 0.20712 0.0
H164 H 0.73706 0.20536 0.26806 0.0
C165 C 0.1852 0.14413 0.7381 0.0
C166 C 0.1446 0.12926 0.74255 0.0
N167 N 0.13626 0.10079 0.71985 0.0
N168 N 0.20206 0.12543 0.71247 0.0
C169 C 0.17132 0.09954 0.70178 0.0
H170 H 0.20204 0.16535 0.75358 0.0
Co171 Co 0.25798 0.12584 0.69796 0.0
C172 C 0.2443 0.11772 0.62966 0.0
O173 O 0.26889 0.08425 0.62957 0.0
N174 N 0.31411 0.12556 0.68324 0.0
C175 C 0.37334 0.13999 0.65705 0.0
C176 C 0.33225 0.15247 0.66262 0.0
C177 C 0.34494 0.09746 0.69018 0.0
N178 N 0.38127 0.10524 0.67441 0.0
O179 O 0.2549 0.06553 0.69306 0.0
H180 H 0.31638 0.17913 0.65194 0.0
H181 H 0.34061 0.07098 0.70586 0.0
O182 O 0.23722 0.13704 0.6555 0.0
C183 C 0.26096 0.05124 0.72077 0.0
O184 O 0.26914 0.07859 0.74324 0.0
N185 N 0.26222 0.18342 0.70694 0.0
C186 C 0.26417 0.26245 0.73592 0.0
C187 C 0.23917 0.25563 0.70903 0.0
C188 C 0.23838 0.21551 0.69491 0.0
C189 C 0.28805 0.19012 0.73203 0.0
C190 C 0.28963 0.22934 0.74679 0.0
H191 H 0.21697 0.20968 0.6756 0.0
H192 H 0.30602 0.16408 0.74164 0.0
H193 H 0.17537 0.07847 0.68195 0.0
H194 H 0.12394 0.13663 0.76213 0.0
H195 H 0.39558 0.15537 0.64142 0.0
H196 H 0.21878 0.28033 0.70008 0.0
H197 H 0.30972 0.23332 0.76718 0.0
C198 C 0.37725 0.68363 0.23483 0.0
C199 C 0.39094 0.64247 0.2373 0.0
N200 N 0.41565 0.63379 0.21228 0.0
N201 N 0.39272 0.70069 0.20811 0.0
C202 C 0.41596 0.66952 0.1949 0.0
H203 H 0.35902 0.70065 0.25226 0.0
Co204 Co 0.39096 0.75733 0.19564 0.0
C205 C 0.34984 0.74966 0.13237 0.0
O206 O 0.32133 0.77758 0.14071 0.0
N207 N 0.39059 0.81589 0.18319 0.0
C208 C 0.37208 0.88252 0.172 0.0
C209 C 0.35756 0.84243 0.1783 0.0
C210 C 0.42484 0.84146 0.1799 0.0
N211 N 0.41447 0.88184 0.17326 0.0
O212 O 0.45062 0.7544 0.18809 0.0
H213 H 0.32454 0.8341 0.18034 0.0
H214 H 0.45717 0.83129 0.1826 0.0
O215 O 0.37895 0.73912 0.15177 0.0
C216 C 0.4689 0.76092 0.21436 0.0
O217 O 0.44572 0.77041 0.23904 0.0
N218 N 0.33361 0.75982 0.20766 0.0
C219 C 0.25593 0.76091 0.23923 0.0
C220 C 0.26248 0.73405 0.21333 0.0
C221 C 0.30195 0.73333 0.19822 0.0
C222 C 0.32794 0.78537 0.23314 0.0
C223 C 0.2893 0.78693 0.2489 0.0
H224 H 0.30761 0.71025 0.17997 0.0
H225 H 0.35409 0.80415 0.2417 0.0
H226 H 0.43445 0.67367 0.17367 0.0
H227 H 0.38551 0.62154 0.25703 0.0
H228 H 0.3529 0.91041 0.16827 0.0
H229 H 0.23797 0.71246 0.20572 0.0
H230 H 0.28583 0.808 0.26881 0.0
C231 C 0.83135 0.86782 0.73517 0.0
C232 C 0.8727 0.87929 0.74074 0.0
N233 N 0.88451 0.90784 0.71882 0.0
N234 N 0.81716 0.88873 0.70967 0.0
C235 C 0.85027 0.91251 0.70015 0.0
H236 H 0.81232 0.84707 0.74964 0.0
Co237 Co 0.76187 0.89254 0.6942 0.0
C238 C 0.77983 0.90577 0.62664 0.0
O239 O 0.75791 0.94103 0.62732 0.0
N240 N 0.70653 0.89708 0.67854 0.0
C241 C 0.64777 0.88908 0.65054 0.0
C242 C 0.68811 0.87409 0.65564 0.0
C243 C 0.67667 0.92535 0.68724 0.0
N244 N 0.64067 0.92155 0.67039 0.0
O245 O 0.76779 0.95273 0.69249 0.0
H246 H 0.70333 0.84856 0.64305 0.0
H247 H 0.68114 0.94833 0.7057 0.0
O248 O 0.78379 0.88402 0.65174 0.0
C249 C 0.76219 0.96396 0.72104 0.0
O250 O 0.7531 0.9345 0.74181 0.0
N251 N 0.75454 0.83474 0.70008 0.0
C252 C 0.74828 0.75373 0.72536 0.0
C253 C 0.77628 0.76218 0.70035 0.0
C254 C 0.77901 0.80318 0.68796 0.0
C255 C 0.72627 0.82675 0.72353 0.0
C256 C 0.72242 0.7865 0.73636 0.0
H257 H 0.8024 0.81004 0.67011 0.0
H258 H 0.70822 0.85248 0.73356 0.0
H259 H 0.84814 0.93509 0.68112 0.0
H260 H 0.89197 0.86836 0.7601 0.0
H261 H 0.62592 0.87766 0.63293 0.0
H262 H 0.79672 0.73769 0.69109 0.0
H263 H 0.70099 0.78176 0.75595 0.0
C264 C 0.93433 0.56404 0.3996 0.0
C265 C 0.9425 0.59767 0.37903 0.0
C266 C 0.96081 0.52838 0.40036 0.0
C267 C 0.99579 0.52598 0.37957 0.0
C268 C 1.00404 0.55984 0.35863 0.0
C269 C 0.97756 0.59545 0.35887 0.0
C270 C 0.95133 0.49326 0.42334 0.0
C271 C 0.04047 0.55825 0.33565 0.0
C272 C 0.08735 0.45138 0.39642 0.0
C273 C 0.0775 0.41677 0.37723 0.0
C274 C 0.06057 0.48675 0.39795 0.0
C275 C 0.02348 0.48786 0.37934 0.0
C276 C 0.01341 0.45293 0.3599 0.0
C277 C 0.04032 0.41763 0.35935 0.0
C278 C 0.07211 0.52304 0.41932 0.0
C279 C 0.97463 0.45314 0.33923 0.0
H280 H 0.90735 0.56587 0.41529 0.0
H281 H 0.98348 0.62107 0.34256 0.0
H282 H 0.94447 0.46363 0.4104 0.0
H283 H 0.97936 0.48722 0.43834 0.0
H284 H 0.9239 0.5007 0.43874 0.0
H285 H 0.04003 0.5852 0.31892 0.0
H286 H 0.07084 0.55886 0.34865 0.0
H287 H 0.03957 0.52839 0.32199 0.0
H288 H 0.11595 0.45057 0.4104 0.0
H289 H 0.03303 0.3912 0.34413 0.0
H290 H 0.04555 0.5299 0.43564 0.0
H291 H 0.07768 0.55196 0.40517 0.0
H292 H 0.10093 0.5164 0.43337 0.0
H293 H 0.94576 0.45323 0.35408 0.0
H294 H 0.97343 0.42526 0.32339 0.0
H295 H 0.97393 0.4822 0.32463 0.0
C296 C 0.94297 0.44462 0.89222 0.0
C297 C 0.90789 0.45279 0.87304 0.0
C298 C 0.97791 0.47194 0.89261 0.0
C299 C 0.9779 0.50838 0.87328 0.0
C300 C 0.94242 0.51714 0.8541 0.0
C301 C 0.90781 0.48926 0.85424 0.0
C302 C 0.015 0.46162 0.9136 0.0
C303 C 0.9413 0.55557 0.83307 0.0
C304 C 0.05557 0.59415 0.897 0.0
C305 C 0.09026 0.5853 0.87749 0.0
C306 C 0.01814 0.57042 0.89507 0.0
C307 C 0.01536 0.53693 0.8731 0.0
C308 C 0.04964 0.5289 0.85247 0.0
C309 C 0.08666 0.55319 0.8549 0.0
C310 C 0.98223 0.58012 0.91738 0.0
C311 C 0.048 0.4934 0.82877 0.0
H312 H 0.94299 0.41683 0.90709 0.0
H313 H 0.88114 0.49551 0.839 0.0
H314 H 0.04402 0.45762 0.89919 0.0
H315 H 0.02085 0.48811 0.93011 0.0
H316 H 0.00983 0.43231 0.92747 0.0
H317 H 0.91073 0.55871 0.82043 0.0
H318 H 0.94665 0.58461 0.84712 0.0
H319 H 0.96718 0.55365 0.81547 0.0
H320 H 0.05807 0.61921 0.91424 0.0
H321 H 0.11345 0.54569 0.84003 0.0
H322 H 0.97763 0.55319 0.93375 0.0
H323 H 0.95229 0.58424 0.90417 0.0
H324 H 0.98817 0.60909 0.93144 0.0
H325 H 0.04684 0.46261 0.84124 0.0
H326 H 0.0759 0.4934 0.81284 0.0
H327 H 0.0189 0.49583 0.81436 0.0
C328 C 0.43435 0.95056 0.15003 0.0
C329 C 0.44257 0.91764 0.17121 0.0
C330 C 0.46086 0.98619 0.14844 0.0
C331 C 0.49593 0.98935 0.169 0.0
C332 C 0.50427 0.95618 0.1905 0.0
C333 C 0.47776 0.92057 0.1911 0.0
C334 C 0.45123 0.02053 0.12489 0.0
C335 C 0.54088 0.95852 0.21319 0.0
C336 C 0.58723 0.06418 0.15101 0.0
C337 C 0.57743 0.099 0.17007 0.0
C338 C 0.56052 0.02867 0.14986 0.0
C339 C 0.52341 0.0277 0.16857 0.0
C340 C 0.51315 0.06297 0.18762 0.0
C341 C 0.54015 0.09822 0.18801 0.0
C342 C 0.57222 0.99203 0.12885 0.0
C343 C 0.4743 0.063 0.20834 0.0
H344 H 0.40733 0.94818 0.13451 0.0
H345 H 0.4838 0.89549 0.20783 0.0
H346 H 0.4444 0.05058 0.13732 0.0
H347 H 0.47919 0.02614 0.10963 0.0
H348 H 0.42375 0.01255 0.10977 0.0
H349 H 0.54099 0.93173 0.23006 0.0
H350 H 0.57115 0.95829 0.19997 0.0
H351 H 0.53962 0.9885 0.2267 0.0
H352 H 0.61579 0.06481 0.13692 0.0
H353 H 0.53274 0.12467 0.2032 0.0
H354 H 0.54565 0.98462 0.11276 0.0
H355 H 0.57807 0.96346 0.14331 0.0
H356 H 0.60093 0.9986 0.11457 0.0
H357 H 0.44564 0.05652 0.19413 0.0
H358 H 0.46991 0.09355 0.22078 0.0
H359 H 0.47687 0.03744 0.2261 0.0
C360 C 0.60624 0.98975 0.68328 0.0
C361 C 0.60341 0.94803 0.67218 0.0
C362 C 0.57049 0.01612 0.68453 0.0
C363 C 0.53084 1.00058 0.6743 0.0
C364 C 0.52765 0.95847 0.66326 0.0
C365 C 0.56389 0.93275 0.66237 0.0
C366 C 0.57531 0.0608 0.69647 0.0
C367 C 0.48594 0.94062 0.65223 0.0
C368 C 0.42985 0.05554 0.70119 0.0
C369 C 0.41948 0.0801 0.67479 0.0
C370 C 0.46609 0.02982 0.70146 0.0
C371 C 0.49278 0.02851 0.6747 0.0
C372 C 0.48279 0.05352 0.64811 0.0
C373 C 0.44635 0.07897 0.64848 0.0
C374 C 0.47572 1.00384 0.73036 0.0
C375 C 0.5103 0.05294 0.61905 0.0
H376 H 0.6366 1.00223 0.69045 0.0
H377 H 0.56117 0.90049 0.65416 0.0
H378 H 0.56696 0.0835 0.67759 0.0
H379 H 0.55321 0.06643 0.71633 0.0
H380 H 0.60802 0.06766 0.7045 0.0
H381 H 0.48867 0.90719 0.64452 0.0
H382 H 0.4622 0.94247 0.67142 0.0
H383 H 0.47371 0.95967 0.63231 0.0
H384 H 0.40973 0.05662 0.7218 0.0
H385 H 0.43842 0.0973 0.62782 0.0
H386 H 0.50749 0.01211 0.73951 0.0
H387 H 0.47634 0.96978 0.7242 0.0
H388 H 0.45207 0.00872 0.74937 0.0
H389 H 0.5432 0.06185 0.62519 0.0
H390 H 0.49868 0.07486 0.60057 0.0
H391 H 0.51136 0.02052 0.60916 0.0
C392 C 0.49025 0.2151 0.2375 0.0
C393 C 0.50837 0.25054 0.2231 0.0
C394 C 0.44903 0.21645 0.24958 0.0
C395 C 0.42575 0.2546 0.24791 0.0
C396 C 0.44329 0.29002 0.23208 0.0
C397 C 0.48447 0.28743 0.21955 0.0
C398 C 0.43128 0.17768 0.26559 0.0
C399 C 0.4197 0.33139 0.23014 0.0
C400 C 0.30811 0.24828 0.26613 0.0
C401 C 0.30718 0.25844 0.29826 0.0
C402 C 0.34633 0.24768 0.24925 0.0
C403 C 0.38451 0.25792 0.26478 0.0
C404 C 0.38366 0.26881 0.29712 0.0
C405 C 0.34504 0.26858 0.31354 0.0
C406 C 0.34596 0.23518 0.21499 0.0
C407 C 0.42367 0.28027 0.31448 0.0
H408 H 0.50904 0.18668 0.24032 0.0
H409 H 0.49897 0.31504 0.20893 0.0
H410 H 0.42671 0.1841 0.29101 0.0
H411 H 0.39987 0.16969 0.25564 0.0
H412 H 0.45238 0.14981 0.26309 0.0
H413 H 0.43604 0.35465 0.21475 0.0
H414 H 0.38722 0.32624 0.22111 0.0
H415 H 0.4167 0.34518 0.25403 0.0
H416 H 0.27892 0.24002 0.2543 0.0
H417 H 0.34434 0.27687 0.33827 0.0
H418 H 0.3645 0.20574 0.21169 0.0
H419 H 0.36126 0.26006 0.20053 0.0
H420 H 0.3134 0.22986 0.20604 0.0
H421 H 0.4453 0.25268 0.31504 0.0
H422 H 0.41732 0.29041 0.33905 0.0
H423 H 0.44041 0.30618 0.30203 0.0
C424 C 0.27207 0.993 0.75882 0.0
C425 C 0.25867 1.0058 0.72886 0.0
C426 C 0.26821 0.95109 0.76874 0.0
C427 C 0.25072 0.92074 0.74814 0.0
C428 C 0.23772 0.93307 0.71757 0.0
C429 C 0.24179 0.97566 0.70825 0.0
C430 C 0.28241 0.93949 0.80156 0.0
C431 C 0.21899 0.90148 0.69499 0.0
C432 C 0.28004 0.80999 0.7737 0.0
C433 C 0.24483 0.79862 0.79196 0.0
C434 C 0.28107 0.84842 0.75723 0.0
C435 C 0.24623 0.87639 0.75934 0.0
C436 C 0.20976 0.86418 0.77649 0.0
C437 C 0.20946 0.82536 0.79253 0.0
C438 C 0.32033 0.86002 0.73889 0.0
C439 C 0.17209 0.89323 0.77955 0.0
H440 H 0.28538 0.01596 0.77491 0.0
H441 H 0.23114 0.98543 0.68516 0.0
H442 H 0.25548 0.92612 0.81506 0.0
H443 H 0.30733 0.91487 0.80043 0.0
H444 H 0.29511 0.96703 0.81471 0.0
H445 H 0.21334 0.91537 0.67138 0.0
H446 H 0.24032 0.87384 0.69246 0.0
H447 H 0.18847 0.88963 0.7044 0.0
H448 H 0.30706 0.78895 0.77255 0.0
H449 H 0.18214 0.8167 0.80656 0.0
H450 H 0.33754 0.88557 0.75135 0.0
H451 H 0.31176 0.87223 0.71529 0.0
H452 H 0.34208 0.83272 0.736 0.0
H453 H 0.18065 0.92063 0.79452 0.0
H454 H 0.14438 0.87709 0.79027 0.0
H455 H 0.16277 0.90582 0.75622 0.0
C456 C 0.53683 0.79659 0.22487 0.0
C457 C 0.51494 0.75928 0.21815 0.0
C458 C 0.5781 0.79542 0.23689 0.0
C459 C 0.59735 0.75587 0.24309 0.0
C460 C 0.57601 0.71806 0.23479 0.0
C461 C 0.5349 0.72028 0.22236 0.0
C462 C 0.5998 0.8365 0.24497 0.0
C463 C 0.5953 0.67526 0.24105 0.0
C464 C 0.71489 0.75418 0.26199 0.0
C465 C 0.71459 0.75388 0.29504 0.0
C466 C 0.67706 0.7543 0.24474 0.0
C467 C 0.6379 0.75419 0.26086 0.0
C468 C 0.63734 0.75385 0.2942 0.0
C469 C 0.67567 0.75379 0.31087 0.0
C470 C 0.67898 0.75516 0.20927 0.0
C471 C 0.59619 0.75366 0.31229 0.0
H472 H 0.52083 0.82668 0.22222 0.0
H473 H 0.51728 0.69151 0.21803 0.0
H474 H 0.59983 0.84074 0.27087 0.0
H475 H 0.63323 0.83615 0.23701 0.0
H476 H 0.58366 0.86409 0.23419 0.0
H477 H 0.57639 0.64922 0.23061 0.0
H478 H 0.62793 0.67379 0.23147 0.0
H479 H 0.59742 0.67002 0.2668 0.0
H480 H 0.74483 0.75497 0.24955 0.0
H481 H 0.67518 0.75315 0.33635 0.0
H482 H 0.66378 0.78441 0.20039 0.0
H483 H 0.66112 0.72805 0.19944 0.0
H484 H 0.71197 0.75391 0.20026 0.0
H485 H 0.57781 0.78256 0.30671 0.0
H486 H 0.60117 0.75231 0.33812 0.0
H487 H 0.57671 0.72612 0.30516 0.0
C488 C 0.72163 0.19135 0.7934 0.0
C489 C 0.75917 0.21303 0.80025 0.0
C490 C 0.72247 0.15263 0.77731 0.0
C491 C 0.7618 0.13519 0.76796 0.0
C492 C 0.79973 0.15728 0.77434 0.0
C493 C 0.79796 0.19586 0.79048 0.0
C494 C 0.68137 0.12986 0.771 0.0
C495 C 0.84229 0.13954 0.765 0.0
C496 C 0.76743 0.01614 0.76415 0.0
C497 C 0.76469 1.00826 0.73176 0.0
C498 C 0.76692 0.05727 0.77602 0.0
C499 C 0.76363 0.09166 0.755 0.0
C500 C 0.76179 0.08418 0.72214 0.0
C501 C 0.76244 0.04236 0.71082 0.0
C502 C 0.76927 0.0638 0.8112 0.0
C503 C 0.75838 0.12027 0.69911 0.0
H504 H 0.69154 0.20488 0.80034 0.0
H505 H 0.8271 0.21236 0.79588 0.0
H506 H 0.67907 0.1213 0.74577 0.0
H507 H 0.6804 0.10001 0.78468 0.0
H508 H 0.65336 0.14919 0.7775 0.0
H509 H 0.8684 0.16238 0.76907 0.0
H510 H 0.84884 0.1105 0.77878 0.0
H511 H 0.84226 0.13049 0.7398 0.0
H512 H 0.76965 0.98996 0.78051 0.0
H513 H 0.76022 0.03634 0.68579 0.0
H514 H 0.74036 0.08021 0.81958 0.0
H515 H 0.79667 0.08418 0.81711 0.0
H516 H 0.7724 0.03356 0.82427 0.0
H517 H 0.72855 0.13787 0.70331 0.0
H518 H 0.75884 0.10927 0.6743 0.0
H519 H 0.78483 0.14281 0.70265 0.0
C520 C 0.98315 0.29057 0.33354 0.0
C521 C 1.00643 0.25303 0.33475 0.0
C522 C 0.9419 0.29106 0.32133 0.0
C523 C 0.92385 0.25307 0.30985 0.0
C524 C 0.94646 0.2146 0.31295 0.0
C525 C 0.98776 0.21518 0.32505 0.0
C526 C 0.91916 0.33282 0.31854 0.0
C527 C 0.92822 0.17326 0.30159 0.0
C528 C 0.80637 0.25016 0.29061 0.0
C529 C 0.80652 0.25524 0.25775 0.0
C530 C 0.8442 0.24927 0.30787 0.0
C531 C 0.88326 0.25414 0.29204 0.0
C532 C 0.8837 0.26004 0.259 0.0
C533 C 0.8454 0.26036 0.24226 0.0
C534 C 0.84238 0.2431 0.34305 0.0
C535 C 0.92473 0.26575 0.24126 0.0
H536 H 0.99814 0.32 0.34024 0.0
H537 H 1.00638 0.18642 0.32519 0.0
H538 H 0.9215 0.34424 0.29393 0.0
H539 H 0.8851 0.32949 0.32433 0.0
H540 H 0.93314 0.35715 0.33422 0.0
H541 H 0.94749 0.14574 0.30919 0.0
H542 H 0.89545 0.16914 0.31045 0.0
H543 H 0.92679 0.17339 0.27552 0.0
H544 H 0.77654 0.24716 0.30299 0.0
H545 H 0.84599 0.26393 0.21692 0.0
H546 H 0.85691 0.27061 0.35507 0.0
H547 H 0.86093 0.21475 0.34978 0.0
H548 H 0.80948 0.23924 0.35181 0.0
H549 H 0.94226 0.29328 0.25079 0.0
H550 H 0.91966 0.27073 0.21569 0.0
H551 H 0.94505 0.2375 0.24446 0.0
C552 C 0.28343 0.4804 0.83301 0.0
C553 C 0.24356 0.49954 0.83425 0.0
C554 C 0.2885 0.44016 0.81938 0.0
C555 C 0.25268 0.41864 0.80724 0.0
C556 C 0.212 0.43686 0.81058 0.0
C557 C 0.20806 0.47735 0.82364 0.0
C558 C 0.33246 0.4221 0.81601 0.0
C559 C 0.17285 0.4148 0.79861 0.0
C560 C 0.26391 0.34187 0.73873 0.0
C561 C 0.26199 0.30268 0.754 0.0
C562 C 0.26214 0.37983 0.75589 0.0
C563 C 0.2577 0.37858 0.78909 0.0
C564 C 0.25575 0.33909 0.8046 0.0
C565 C 0.25805 0.30169 0.78691 0.0
C566 C 0.26466 0.42133 0.73847 0.0
C567 C 0.25032 0.33633 0.83982 0.0
H568 H 0.31099 0.49816 0.84047 0.0
H569 H 0.17733 0.4926 0.82423 0.0
H570 H 0.3333 0.38897 0.8245 0.0
H571 H 0.34155 0.42171 0.79079 0.0
H572 H 0.35637 0.4408 0.82914 0.0
H573 H 0.14335 0.43105 0.80611 0.0
H574 H 0.17359 0.4138 0.77254 0.0
H575 H 0.17185 0.38168 0.80712 0.0
H576 H 0.26728 0.34281 0.71337 0.0
H577 H 0.25593 0.27148 0.79884 0.0
H578 H 0.29053 0.44102 0.74825 0.0
H579 H 0.23474 0.43915 0.74164 0.0
H580 H 0.2703 0.41693 0.71289 0.0
H581 H 0.27569 0.35438 0.85179 0.0
H582 H 0.25097 0.3032 0.84844 0.0
H583 H 0.21973 0.35081 0.84675 0.0
C584 C 0.0347 0.79557 0.3291 0.0
C585 C 0.01463 0.75657 0.33326 0.0
C586 C 0.07601 0.7977 0.31682 0.0
C587 C 0.09747 0.75984 0.30874 0.0
C588 C 0.07813 0.72034 0.31505 0.0
C589 C 0.03665 0.71924 0.3268 0.0
C590 C 0.09537 0.84045 0.31042 0.0
C591 C 0.09996 0.67919 0.30734 0.0
C592 C 0.1765 0.76059 0.24111 0.0
C593 C 0.21528 0.76078 0.25701 0.0
C594 C 0.13801 0.76104 0.2577 0.0
C595 C 0.13824 0.76134 0.29104 0.0
C596 C 0.17727 0.76146 0.30724 0.0
C597 C 0.21528 0.76124 0.29005 0.0
C598 C 0.09704 0.76103 0.23952 0.0
C599 C 0.17887 0.76112 0.34271 0.0
H600 H 0.01708 0.82441 0.33342 0.0
H601 H 0.02062 0.68916 0.32946 0.0
H602 H 0.1282 0.8418 0.31951 0.0
H603 H 0.09693 0.84581 0.28466 0.0
H604 H 0.07677 0.86651 0.32121 0.0
H605 H 0.08404 0.65181 0.31864 0.0
H606 H 0.09971 0.6743 0.28151 0.0
H607 H 0.13347 0.67985 0.31501 0.0
H608 H 0.17627 0.76065 0.21562 0.0
H609 H 0.24513 0.76074 0.30255 0.0
H610 H 0.07744 0.78857 0.24651 0.0
H611 H 0.07866 0.73212 0.24515 0.0
H612 H 0.10226 0.76223 0.21369 0.0
H613 H 0.1609 0.78835 0.35229 0.0
H614 H 0.21178 0.76253 0.35177 0.0
H615 H 0.16361 0.73198 0.35178 0.0
C616 C 0.7092 0.69402 0.75128 0.0
C617 C 0.74765 0.71201 0.74153 0.0
C618 C 0.7082 0.65562 0.76781 0.0
C619 C 0.74657 0.63454 0.77466 0.0
C620 C 0.78553 0.6528 0.7653 0.0
C621 C 0.78559 0.69128 0.74883 0.0
C622 C 0.666 0.63702 0.77715 0.0
C623 C 0.82711 0.63119 0.77207 0.0
C624 C 0.74826 0.54284 0.83307 0.0
C625 C 0.74727 0.50817 0.8126 0.0
C626 C 0.74763 0.58445 0.8212 0.0
C627 C 0.74575 0.59119 0.78823 0.0
C628 C 0.74373 0.55619 0.76768 0.0
C629 C 0.74452 0.51531 0.78009 0.0
C630 C 0.74972 0.62114 0.84377 0.0
C631 C 0.74138 0.56183 0.73242 0.0
H632 H 0.67972 0.70972 0.7456 0.0
H633 H 0.81546 0.7054 0.74198 0.0
H634 H 0.66031 0.60752 0.7637 0.0
H635 H 0.66599 0.62851 0.80246 0.0
H636 H 0.63938 0.6591 0.77265 0.0
H637 H 0.85471 0.651 0.76538 0.0
H638 H 0.82945 0.62336 0.79743 0.0
H639 H 0.82888 0.60101 0.75885 0.0
H640 H 0.75039 0.53748 0.85819 0.0
H641 H 0.74323 0.48874 0.76404 0.0
H642 H 0.72255 0.64268 0.83987 0.0
H643 H 0.77896 0.63964 0.83942 0.0
H644 H 0.74949 0.61068 0.86871 0.0
H645 H 0.71349 0.58135 0.72617 0.0
H646 H 0.73909 0.53123 0.71974 0.0
H647 H 0.7699 0.57879 0.72389 0.0
C648 C 0.20536 0.24991 0.47425 0.0
C649 C 0.17361 0.23529 0.45388 0.0
C650 C 0.2139 0.22961 0.50291 0.0
C651 C 0.18986 0.19384 0.51192 0.0
C652 C 0.15712 0.17931 0.49185 0.0
C653 C 0.14953 0.20003 0.463 0.0
C654 C 0.24937 0.24605 0.52328 0.0
C655 C 0.13043 0.14161 0.50073 0.0
C656 C 0.24389 0.12055 0.57062 0.0
C657 C 0.22768 0.13491 0.59947 0.0
C658 C 0.23081 0.13845 0.54195 0.0
C659 C 0.20027 0.17123 0.5419 0.0
C660 C 0.18257 0.18475 0.57086 0.0
C661 C 0.19669 0.16669 0.59926 0.0
C662 C 0.25102 0.12342 0.51176 0.0
C663 C 0.14957 0.21917 0.57193 0.0
H664 H 0.2243 0.27702 0.46759 0.0
H665 H 0.12491 0.18847 0.44752 0.0
H666 H 0.23713 0.25424 0.54697 0.0
H667 H 0.27367 0.22111 0.52643 0.0
H668 H 0.26485 0.27445 0.51309 0.0
H669 H 0.10492 0.13547 0.48339 0.0
H670 H 0.15063 0.11305 0.50243 0.0
H671 H 0.11588 0.14664 0.5242 0.0
H672 H 0.26787 0.09608 0.57044 0.0
H673 H 0.18367 0.17781 0.62136 0.0
H674 H 0.2697 0.14949 0.50115 0.0
H675 H 0.22636 0.11438 0.49451 0.0
H676 H 0.27231 0.09596 0.51552 0.0
H677 H 0.16387 0.24959 0.56448 0.0
H678 H 0.13597 0.22326 0.59585 0.0
H679 H 0.12356 0.21199 0.55529 0.0
C680 C 0.38049 0.71292 0.08465 0.0
C681 C 0.34553 0.72909 0.10109 0.0
C682 C 0.37617 0.6977 0.05358 0.0
C683 C 0.33587 0.69807 0.0389 0.0
C684 C 0.30025 0.71218 0.0562 0.0
C685 C 0.30558 0.72774 0.08681 0.0
C686 C 0.41498 0.68322 0.03597 0.0
C687 C 0.25652 0.71258 0.04191 0.0
C688 C 0.31642 0.71457 0.9519 0.0
C689 C 0.30232 0.67461 0.94233 0.0
C690 C 0.3311 0.72164 0.98258 0.0
C691 C 0.33075 0.68812 1.00467 0.0
C692 C 0.31913 0.64697 0.99454 0.0
C693 C 0.30535 0.6406 0.96333 0.0
C694 C 0.34394 0.76584 0.99193 0.0
C695 C 0.31798 0.61038 1.01726 0.0
H696 H 0.41145 0.71382 0.09555 0.0
H697 H 0.27823 0.7395 0.09949 0.0
H698 H 0.40886 0.65279 1.02386 0.0
H699 H 0.42308 0.70682 1.01762 0.0
H700 H 0.44268 0.67938 0.05175 0.0
H701 H 0.23166 0.72071 0.05938 0.0
H702 H 0.25535 0.73612 1.02259 0.0
H703 H 0.24901 0.68126 0.03163 0.0
H704 H 0.31439 0.74088 0.93562 0.0
H705 H 0.29418 0.60971 0.95609 0.0
H706 H 0.37381 0.76523 1.00557 0.0
H707 H 0.31913 0.77978 1.00724 0.0
H708 H 0.34829 0.78677 0.9712 0.0
H709 H 0.34661 0.61015 0.03229 0.0
H710 H 0.31553 0.57956 1.0049 0.0
H711 H 0.29014 0.6138 0.03299 0.0
C712 C 0.8241 0.8544 0.59565 0.0
C713 C 0.7966 0.88925 0.59626 0.0
C714 C 0.83754 0.83646 0.56703 0.0
C715 C 0.8228 0.85335 0.53819 0.0
C716 C 0.79625 0.88944 0.53864 0.0
C717 C 0.78369 0.90704 0.56759 0.0
C718 C 0.86622 0.79834 0.56771 0.0
C719 C 0.77937 0.90826 0.50856 0.0
C720 C 0.87274 0.81955 0.4599 0.0
C721 C 0.84501 0.78744 0.4502 0.0
C722 C 0.86635 0.84108 0.48862 0.0
C723 C 0.83118 0.8306 0.50791 0.0
C724 C 0.8032 0.79827 0.49814 0.0
C725 C 0.81056 0.77708 0.46967 0.0
C726 C 0.89716 0.87505 0.49832 0.0
C727 C 0.76506 0.78623 0.51766 0.0
H728 H 0.83465 0.84063 0.61761 0.0
H729 H 0.7625 0.93395 0.56771 0.0
H730 H 0.84855 0.7701 0.5596 0.0
H731 H 0.89331 0.80288 0.55143 0.0
H732 H 0.87863 0.7919 0.59166 0.0
H733 H 0.76216 0.93837 0.51267 0.0
H734 H 0.80555 0.9142 0.49173 0.0
H735 H 0.75739 0.88553 0.49727 0.0
H736 H 0.89943 0.82783 0.4451 0.0
H737 H 0.78872 0.75251 0.46252 0.0
H738 H 0.91101 0.86717 0.52154 0.0
H739 H 0.8804 0.90564 0.50094 0.0
H740 H 0.92323 0.87908 0.48102 0.0
H741 H 0.77523 0.77558 0.54132 0.0
H742 H 0.74617 0.7606 0.50667 0.0
H743 H 0.74432 0.81416 0.52101 0.0
C744 C 0.71404 0.2859 0.08696 0.0
C745 C 0.67528 0.28918 0.10296 0.0
C746 C 0.71989 0.30356 0.05701 0.0
C747 C 0.68601 0.32486 0.04213 0.0
C748 C 0.64707 0.32951 0.05846 0.0
C749 C 0.64222 0.31184 0.08881 0.0
C750 C 0.76219 0.29815 0.04088 0.0
C751 C 0.61009 0.35175 0.04343 0.0
C752 C 0.72268 0.38747 0.97035 0.0
C753 C 0.71927 0.35679 0.94677 0.0
C754 C 0.70893 0.37887 1.00132 0.0
C755 C 0.69115 0.33882 1.00864 0.0
C756 C 0.6847 0.30921 0.98411 0.0
C757 C 0.69932 0.31836 0.95365 0.0
C758 C 0.71668 0.4113 0.02664 0.0
C759 C 0.66545 0.26639 0.9905 0.0
H760 H 0.74007 0.26906 0.09778 0.0
H761 H 0.61221 0.31463 0.101 0.0
H762 H 0.75846 0.27781 1.01982 0.0
H763 H 0.77435 0.32919 0.03277 0.0
H764 H 0.7862 0.28353 0.05651 0.0
H765 H 0.58372 0.3569 0.0603 0.0
H766 H 0.6201 0.38273 0.03372 0.0
H767 H 0.59818 0.33254 1.02351 0.0
H768 H 0.73864 0.41698 0.96513 0.0
H769 H 0.69691 0.29453 0.93541 0.0
H770 H 0.74398 0.40122 0.04118 0.0
H771 H 0.68886 0.41394 0.04245 0.0
H772 H 0.72381 0.44294 1.01662 0.0
H773 H 0.68845 0.24659 1.00356 0.0
H774 H 0.65687 0.24966 0.96845 0.0
H775 H 0.63673 0.26949 1.00534 0.0
C776 C 0.94775 0.94556 0.31584 0.0
C777 C 0.93938 0.91875 0.34146 0.0
C778 C 0.97431 0.98084 0.31888 0.0
C779 C 0.99362 0.98946 0.34817 0.0
C780 C 0.98496 0.9631 0.37428 0.0
C781 C 0.95777 0.92827 0.37068 0.0
C782 C 0.9824 1.00843 0.29049 0.0
C783 C 1.00506 0.97121 0.40588 0.0
C784 C 0.09442 0.05437 0.34257 0.0
C785 C 0.0798 0.09503 0.34984 0.0
C786 C 0.06709 0.0194 0.3433 0.0
C787 C 0.02387 0.02537 0.35095 0.0
C788 C 0.00916 0.06619 0.35916 0.0
C789 C 0.03742 0.10044 0.35881 0.0
C790 C 0.08416 0.97629 0.33484 0.0
C791 C 0.9632 0.07407 0.36689 0.0
H792 H 0.93444 0.93858 0.29303 0.0
H793 H 0.95113 0.90843 0.39081 0.0
H794 H 0.97516 0.04189 0.29611 0.0
H795 H 0.01633 1.00681 0.28388 0.0
H796 H 0.96318 0.9988 0.26987 0.0
H797 H 0.99421 0.94845 0.42408 0.0
H798 H 0.03998 0.9689 0.40376 0.0
H799 H 0.99765 1.00371 0.41394 0.0
H800 H 0.12725 0.05009 0.33593 0.0
H801 H 0.02585 0.13181 0.3642 0.0
H802 H 0.06963 0.96534 0.31256 0.0
H803 H 0.07568 0.95298 0.3533 0.0
H804 H 0.11908 0.9764 0.33188 0.0
H805 H 0.94351 0.06763 0.34586 0.0
H806 H 0.95736 0.10713 0.37456 0.0
H807 H 0.95249 0.0523 0.38573 0.0
C808 C 0.4218 0.55637 0.85441 0.0
C809 C 0.40727 0.57109 0.82515 0.0
C810 C 0.4577 0.53048 0.8567 0.0
C811 C 0.48041 0.51971 0.82918 0.0
C812 C 0.46691 0.53535 0.79971 0.0
C813 C 0.43041 0.56048 0.798 0.0
C814 C 0.47096 0.5141 0.88855 0.0
C815 C 0.49075 0.52508 0.76985 0.0
C816 C 0.59391 0.48193 0.83715 0.0
C817 C 0.58945 0.43828 0.83263 0.0
C818 C 0.55869 0.50885 0.83614 0.0
C819 C 0.51797 0.49152 0.8311 0.0
C820 C 0.5132 0.44731 0.82721 0.0
C821 C 0.54914 0.42126 0.82765 0.0
C822 C 0.56522 0.55589 0.83966 0.0
C823 C 0.4702 0.42759 0.82233 0.0
H824 H 0.40514 0.5648 0.87572 0.0
H825 H 0.41983 0.57109 0.77519 0.0
H826 H 0.47078 0.47903 0.88847 0.0
H827 H 0.50375 0.52429 0.89383 0.0
H828 H 0.44984 0.52531 0.90772 0.0
H829 H 0.47745 0.54152 0.74902 0.0
H830 H 0.52449 0.53416 0.7723 0.0
H831 H 0.4898 0.49054 0.7655 0.0
H832 H 0.62522 0.49514 0.84041 0.0
H833 H 0.54587 0.38748 0.82425 0.0
H834 H 0.54616 0.56804 0.85963 0.0
H835 H 0.55417 0.57239 0.81817 0.0
H836 H 0.59893 0.56422 0.84367 0.0
H837 H 0.44869 0.43652 0.84188 0.0
H838 H 0.47175 0.39257 0.82097 0.0
H839 H 0.45595 0.43971 0.80029 0.0
C840 C 0.48283 0.60049 0.19584 0.0
C841 C 0.44184 0.59685 0.20825 0.0
C842 C 0.51038 0.56568 0.19511 0.0
C843 C 0.49628 0.526 0.20643 0.0
C844 C 0.45427 0.52168 0.21763 0.0
C845 C 0.42772 0.55724 0.21868 0.0
C846 C 0.55512 0.57184 0.18349 0.0
C847 C 0.43776 0.47975 0.22938 0.0
C848 C 0.55784 0.42624 0.18594 0.0
C849 C 0.58019 0.41842 0.21394 0.0
C850 C 0.53068 0.4612 0.18303 0.0
C851 C 0.52615 0.48965 0.20846 0.0
C852 C 0.54946 0.48287 0.23637 0.0
C853 C 0.57584 0.44736 0.23884 0.0
C854 C 0.50619 0.46727 0.15292 0.0
C855 C 0.54594 0.5128 0.26393 0.0
H856 H 0.49403 0.631 0.1879 0.0
H857 H 0.39591 0.55423 0.22793 0.0
H858 H 0.57758 0.56674 0.20314 0.0
H859 H 0.56275 0.54828 0.16503 0.0
H860 H 0.56039 0.60403 0.1738 0.0
H861 H 0.40344 0.48091 0.23499 0.0
H862 H 0.44319 0.45478 0.21151 0.0
H863 H 0.45516 0.47034 0.25089 0.0
H864 H 0.56117 0.405 0.1662 0.0
H865 H 0.59234 0.44215 0.26071 0.0
H866 H 0.51298 0.49888 0.14281 0.0
H867 H 0.47175 0.46599 0.15791 0.0
H868 H 0.51387 0.44285 0.13503 0.0
H869 H 0.55298 0.54558 0.25628 0.0
H870 H 0.5678 0.50433 0.28336 0.0
H871 H 0.51311 0.51254 0.27319 0.0
C872 C 0.05997 0.08675 0.72612 0.0
C873 C 0.10061 0.07251 0.71837 0.0
C874 C 0.02512 0.05917 0.72545 0.0
C875 C 0.03127 0.01614 0.71738 0.0
C876 C 0.07238 1.00155 0.70975 0.0
C877 C 0.10647 0.02998 0.71012 0.0
C878 C 0.98174 0.07606 0.73344 0.0
C879 C 0.0805 0.95579 0.70167 0.0
C880 C 0.94728 0.93851 0.74523 0.0
C881 C 0.92294 0.9327 0.71796 0.0
C882 C 0.98306 0.96485 0.7452 0.0
C883 C 0.99473 0.98634 0.71731 0.0
C884 C 0.9709 0.98009 0.68956 0.0
C885 C 0.93554 0.9532 0.69017 0.0
C886 C 1.00788 0.97036 0.77522 0.0
C887 C 0.98232 1.00243 0.65933 0.0
H888 H 0.05547 0.11962 0.7324 0.0
H889 H 0.13801 0.01869 0.70475 0.0
H890 H 0.95972 0.07021 0.71363 0.0
H891 H 0.96889 0.05923 0.75425 0.0
H892 H 0.98217 0.11049 0.73854 0.0
H893 H 0.11434 0.94957 0.69627 0.0
H894 H 0.07082 0.9353 0.7216 0.0
H895 H 0.0612 0.94644 0.68106 0.0
H896 H 0.93783 0.92341 0.76696 0.0
H897 H 0.91761 0.94845 0.66881 0.0
H898 H 1.00602 1.00373 0.7831 0.0
H899 H 0.04176 0.96307 0.77107 0.0
H900 H 0.99601 0.94977 0.79447 0.0
H901 H 0.98072 0.03714 0.66283 0.0
H902 H 0.96095 0.99373 0.63966 0.0
H903 H 0.01529 0.99468 0.65248 0.0
loop_
_geom_bond_atom_site_label_1
_geom_bond_atom_site_label_2
_geom_bond_distance
_geom_bond_site_symmetry_2
_ccdc_geom_bond_type
C0 C1 1.351 . S
C0 N3 1.368 . S
C0 H5 0.931 . S
C1 C0 1.351 . S
C1 N2 1.373 . S
C1 H29 0.930 . S
N2 C1 1.373 . S
N2 C4 1.340 . S
N3 C0 1.368 . S
N3 C4 1.321 . S
N3 Co6 2.135 . S
C4 N2 1.340 . S
C4 N3 1.321 . S
C4 H28 0.930 . S
H5 C0 0.931 . S
Co6 N3 2.135 . S
Co6 N9 2.121 . S
Co6 O14 2.055 1_455 S
Co6 O17 2.039 . S
Co6 N20 2.140 . S
C7 O8 1.227 . S
C7 O17 1.265 . S
O8 C7 1.227 . S
N9 Co6 2.121 . S
N9 C11 1.375 . S
N9 C12 1.313 . S
C10 C11 1.338 . S
C10 N13 1.377 . S
C10 H30 0.930 . S
C11 N9 1.375 . S
C11 C10 1.338 . S
C11 H15 0.931 . S
C12 N9 1.313 . S
C12 N13 1.344 . S
C12 H16 0.930 . S
N13 C10 1.377 . S
N13 C12 1.344 . S
O14 Co6 2.055 1_655 S
O14 C18 1.253 . S
H15 C11 0.931 . S
H16 C12 0.930 . S
O17 Co6 2.039 . S
O17 C7 1.265 . S
C18 O14 1.253 . S
C18 O19 1.227 1_655 S
O19 C18 1.227 1_455 S
N20 Co6 2.140 . S
N20 C23 1.346 . S
N20 C24 1.345 . S
C21 C22 1.387 . S
C21 C25 1.391 . S
C22 C21 1.387 . S
C22 C23 1.369 . S
C22 H31 0.929 . S
C23 N20 1.346 . S
C23 C22 1.369 . S
C23 H26 0.928 . S
C24 N20 1.345 . S
C24 C25 1.371 . S
C24 H27 0.931 . S
C25 C21 1.391 . S
C25 C24 1.371 . S
C25 H32 0.930 . S
H26 C23 0.928 . S
H27 C24 0.931 . S
H28 C4 0.930 . S
H29 C1 0.930 . S
H30 C10 0.930 . S
H31 C22 0.929 . S
H32 C25 0.930 . S
C33 C34 1.351 . S
C33 N36 1.368 . S
C33 H38 0.931 . S
C34 C33 1.351 . S
C34 N35 1.373 . S
C34 H62 0.930 . S
N35 C34 1.373 . S
N35 C37 1.340 . S
N36 C33 1.368 . S
N36 C37 1.321 . S
N36 Co39 2.135 . S
C37 N35 1.340 . S
C37 N36 1.321 . S
C37 H61 0.930 . S
H38 C33 0.931 . S
Co39 N36 2.135 . S
Co39 N42 2.121 . S
Co39 O47 2.055 . S
Co39 O50 2.039 . S
Co39 N53 2.140 . S
C40 O41 1.227 . S
C40 O50 1.265 . S
O41 C40 1.227 . S
N42 Co39 2.121 . S
N42 C44 1.375 . S
N42 C45 1.313 . S
C43 C44 1.338 . S
C43 N46 1.377 . S
C43 H63 0.930 . S
C44 N42 1.375 . S
C44 C43 1.338 . S
C44 H48 0.931 . S
C45 N42 1.313 . S
C45 N46 1.344 . S
C45 H49 0.930 . S
N46 C43 1.377 . S
N46 C45 1.344 . S
O47 Co39 2.055 . S
O47 C51 1.253 . S
H48 C44 0.931 . S
H49 C45 0.930 . S
O50 Co39 2.039 . S
O50 C40 1.265 . S
C51 O47 1.253 . S
C51 O52 1.227 . S
O52 C51 1.227 . S
N53 Co39 2.140 . S
N53 C56 1.346 . S
N53 C57 1.345 . S
C54 C55 1.387 . S
C54 C58 1.391 . S
C55 C54 1.387 . S
C55 C56 1.369 . S
C55 H64 0.929 . S
C56 N53 1.346 . S
C56 C55 1.369 . S
C56 H59 0.928 . S
C57 N53 1.345 . S
C57 C58 1.371 . S
C57 H60 0.931 . S
C58 C54 1.391 . S
C58 C57 1.371 . S
C58 H65 0.930 . S
H59 C56 0.928 . S
H60 C57 0.931 . S
H61 C37 0.930 . S
H62 C34 0.930 . S
H63 C43 0.930 . S
H64 C55 0.929 . S
H65 C58 0.930 . S
C66 C67 1.351 . S
C66 N69 1.368 . S
C66 H71 0.931 . S
C67 C66 1.351 . S
C67 N68 1.373 . S
C67 H95 0.930 . S
N68 C67 1.373 . S
N68 C70 1.340 . S
N69 C66 1.368 . S
N69 C70 1.321 . S
N69 Co72 2.135 . S
C70 N68 1.340 . S
C70 N69 1.321 . S
C70 H94 0.930 . S
H71 C66 0.931 . S
Co72 N69 2.135 . S
Co72 N75 2.121 . S
Co72 O80 2.055 1_655 S
Co72 O83 2.039 . S
Co72 N86 2.140 . S
C73 O74 1.227 . S
C73 O83 1.265 . S
O74 C73 1.227 . S
N75 Co72 2.121 . S
N75 C77 1.375 . S
N75 C78 1.313 . S
C76 C77 1.338 . S
C76 N79 1.377 . S
C76 H96 0.930 . S
C77 N75 1.375 . S
C77 C76 1.338 . S
C77 H81 0.931 . S
C78 N75 1.313 . S
C78 N79 1.344 . S
C78 H82 0.930 . S
N79 C76 1.377 . S
N79 C78 1.344 . S
O80 Co72 2.055 1_455 S
O80 C84 1.253 . S
H81 C77 0.931 . S
H82 C78 0.930 . S
O83 Co72 2.039 . S
O83 C73 1.265 . S
C84 O80 1.253 . S
C84 O85 1.227 1_455 S
O85 C84 1.227 1_655 S
N86 Co72 2.140 . S
N86 C89 1.346 . S
N86 C90 1.345 . S
C87 C88 1.387 . S
C87 C91 1.391 . S
C88 C87 1.387 . S
C88 C89 1.369 . S
C88 H97 0.929 . S
C89 N86 1.346 . S
C89 C88 1.369 . S
C89 H92 0.928 . S
C90 N86 1.345 . S
C90 C91 1.371 . S
C90 H93 0.931 . S
C91 C87 1.391 . S
C91 C90 1.371 . S
C91 H98 0.930 . S
H92 C89 0.928 . S
H93 C90 0.931 . S
H94 C70 0.930 . S
H95 C67 0.930 . S
H96 C76 0.930 . S
H97 C88 0.929 . S
H98 C91 0.930 . S
C99 C100 1.351 . S
C99 N102 1.368 . S
C99 H104 0.931 . S
C100 C99 1.351 . S
C100 N101 1.373 . S
C100 H128 0.930 . S
N101 C100 1.373 . S
N101 C103 1.340 . S
N102 C99 1.368 . S
N102 C103 1.321 . S
N102 Co105 2.135 . S
C103 N101 1.340 . S
C103 N102 1.321 . S
C103 H127 0.930 . S
H104 C99 0.931 . S
Co105 N102 2.135 . S
Co105 N108 2.121 . S
Co105 O113 2.055 . S
Co105 O116 2.039 . S
Co105 N119 2.140 . S
C106 O107 1.227 . S
C106 O116 1.265 . S
O107 C106 1.227 . S
N108 Co105 2.121 . S
N108 C110 1.375 . S
N108 C111 1.313 . S
C109 C110 1.338 . S
C109 N112 1.377 . S
C109 H129 0.930 . S
C110 N108 1.375 . S
C110 C109 1.338 . S
C110 H114 0.931 . S
C111 N108 1.313 . S
C111 N112 1.344 . S
C111 H115 0.930 . S
N112 C109 1.377 . S
N112 C111 1.344 . S
O113 Co105 2.055 . S
O113 C117 1.253 . S
H114 C110 0.931 . S
H115 C111 0.930 . S
O116 Co105 2.039 . S
O116 C106 1.265 . S
C117 O113 1.253 . S
C117 O118 1.227 . S
O118 C117 1.227 . S
N119 Co105 2.140 . S
N119 C122 1.346 . S
N119 C123 1.345 . S
C120 C121 1.387 . S
C120 C124 1.391 . S
C121 C120 1.387 . S
C121 C122 1.369 . S
C121 H130 0.929 . S
C122 N119 1.346 . S
C122 C121 1.369 . S
C122 H125 0.928 . S
C123 N119 1.345 . S
C123 C124 1.371 . S
C123 H126 0.931 . S
C124 C120 1.391 . S
C124 C123 1.371 . S
C124 H131 0.930 . S
H125 C122 0.928 . S
H126 C123 0.931 . S
H127 C103 0.930 . S
H128 C100 0.930 . S
H129 C109 0.930 . S
H130 C121 0.929 . S
H131 C124 0.930 . S
C132 C133 1.351 . S
C132 N135 1.368 . S
C132 H137 0.931 . S
C133 C132 1.351 . S
C133 N134 1.373 . S
C133 H161 0.930 . S
N134 C133 1.373 . S
N134 C136 1.340 . S
N135 C132 1.368 . S
N135 C136 1.321 . S
N135 Co138 2.135 . S
C136 N134 1.340 . S
C136 N135 1.321 . S
C136 H160 0.930 . S
H137 C132 0.931 . S
Co138 N135 2.135 . S
Co138 N141 2.121 . S
Co138 O146 2.055 . S
Co138 O149 2.039 . S
Co138 N152 2.140 . S
C139 O140 1.227 . S
C139 O149 1.265 . S
O140 C139 1.227 . S
N141 Co138 2.121 . S
N141 C143 1.375 . S
N141 C144 1.313 . S
C142 C143 1.338 . S
C142 N145 1.377 . S
C142 H162 0.930 . S
C143 N141 1.375 . S
C143 C142 1.338 . S
C143 H147 0.931 . S
C144 N141 1.313 . S
C144 N145 1.344 . S
C144 H148 0.930 . S
N145 C142 1.377 . S
N145 C144 1.344 . S
O146 Co138 2.055 . S
O146 C150 1.253 . S
H147 C143 0.931 . S
H148 C144 0.930 . S
O149 Co138 2.039 . S
O149 C139 1.265 . S
C150 O146 1.253 . S
C150 O151 1.227 . S
O151 C150 1.227 . S
N152 Co138 2.140 . S
N152 C155 1.346 . S
N152 C156 1.345 . S
C153 C154 1.387 . S
C153 C157 1.391 . S
C154 C153 1.387 . S
C154 C155 1.369 . S
C154 H163 0.929 . S
C155 N152 1.346 . S
C155 C154 1.369 . S
C155 H158 0.928 . S
C156 N152 1.345 . S
C156 C157 1.371 . S
C156 H159 0.931 . S
C157 C153 1.391 . S
C157 C156 1.371 . S
C157 H164 0.930 . S
H158 C155 0.928 . S
H159 C156 0.931 . S
H160 C136 0.930 . S
H161 C133 0.930 . S
H162 C142 0.930 . S
H163 C154 0.929 . S
H164 C157 0.930 . S
C165 C166 1.351 . S
C165 N168 1.368 . S
C165 H170 0.931 . S
C166 C165 1.351 . S
C166 N167 1.373 . S
C166 H194 0.930 . S
N167 C166 1.373 . S
N167 C169 1.340 . S
N168 C165 1.368 . S
N168 C169 1.321 . S
N168 Co171 2.135 . S
C169 N167 1.340 . S
C169 N168 1.321 . S
C169 H193 0.930 . S
H170 C165 0.931 . S
Co171 N168 2.135 . S
Co171 N174 2.121 . S
Co171 O179 2.055 1_545 S
Co171 O182 2.039 . S
Co171 N185 2.140 . S
C172 O173 1.227 . S
C172 O182 1.265 . S
O173 C172 1.227 . S
N174 Co171 2.121 . S
N174 C176 1.375 . S
N174 C177 1.313 . S
C175 C176 1.338 . S
C175 N178 1.377 . S
C175 H195 0.930 . S
C176 N174 1.375 . S
C176 C175 1.338 . S
C176 H180 0.931 . S
C177 N174 1.313 . S
C177 N178 1.344 . S
C177 H181 0.930 . S
N178 C175 1.377 . S
N178 C177 1.344 . S
O179 Co171 2.055 1_565 S
O179 C183 1.253 . S
H180 C176 0.931 . S
H181 C177 0.930 . S
O182 Co171 2.039 . S
O182 C172 1.265 . S
C183 O179 1.253 . S
C183 O184 1.227 1_565 S
O184 C183 1.227 1_545 S
N185 Co171 2.140 . S
N185 C188 1.346 . S
N185 C189 1.345 . S
C186 C187 1.387 . S
C186 C190 1.391 . S
C187 C186 1.387 . S
C187 C188 1.369 . S
C187 H196 0.929 . S
C188 N185 1.346 . S
C188 C187 1.369 . S
C188 H191 0.928 . S
C189 N185 1.345 . S
C189 C190 1.371 . S
C189 H192 0.931 . S
C190 C186 1.391 . S
C190 C189 1.371 . S
C190 H197 0.930 . S
H191 C188 0.928 . S
H192 C189 0.931 . S
H193 C169 0.930 . S
H194 C166 0.930 . S
H195 C175 0.930 . S
H196 C187 0.929 . S
H197 C190 0.930 . S
C198 C199 1.351 . S
C198 N201 1.368 . S
C198 H203 0.931 . S
C199 C198 1.351 . S
C199 N200 1.373 . S
C199 H227 0.930 . S
N200 C199 1.373 . S
N200 C202 1.340 . S
N201 C198 1.368 . S
N201 C202 1.321 . S
N201 Co204 2.135 . S
C202 N200 1.340 . S
C202 N201 1.321 . S
C202 H226 0.930 . S
H203 C198 0.931 . S
Co204 N201 2.135 . S
Co204 N207 2.121 . S
Co204 O212 2.055 . S
Co204 O215 2.039 . S
Co204 N218 2.140 . S
C205 O206 1.227 . S
C205 O215 1.265 . S
O206 C205 1.227 . S
N207 Co204 2.121 . S
N207 C209 1.375 . S
N207 C210 1.313 . S
C208 C209 1.338 . S
C208 N211 1.377 . S
C208 H228 0.930 . S
C209 N207 1.375 . S
C209 C208 1.338 . S
C209 H213 0.931 . S
C210 N207 1.313 . S
C210 N211 1.344 . S
C210 H214 0.930 . S
N211 C208 1.377 . S
N211 C210 1.344 . S
O212 Co204 2.055 . S
O212 C216 1.253 . S
H213 C209 0.931 . S
H214 C210 0.930 . S
O215 Co204 2.039 . S
O215 C205 1.265 . S
C216 O212 1.253 . S
C216 O217 1.227 . S
O217 C216 1.227 . S
N218 Co204 2.140 . S
N218 C221 1.346 . S
N218 C222 1.345 . S
C219 C220 1.387 . S
C219 C223 1.391 . S
C220 C219 1.387 . S
C220 C221 1.369 . S
C220 H229 0.929 . S
C221 N218 1.346 . S
C221 C220 1.369 . S
C221 H224 0.928 . S
C222 N218 1.345 . S
C222 C223 1.371 . S
C222 H225 0.931 . S
C223 C219 1.391 . S
C223 C222 1.371 . S
C223 H230 0.930 . S
H224 C221 0.928 . S
H225 C222 0.931 . S
H226 C202 0.930 . S
H227 C199 0.930 . S
H228 C208 0.930 . S
H229 C220 0.929 . S
H230 C223 0.930 . S
C231 C232 1.351 . S
C231 N234 1.368 . S
C231 H236 0.931 . S
C232 C231 1.351 . S
C232 N233 1.373 . S
C232 H260 0.930 . S
N233 C232 1.373 . S
N233 C235 1.340 . S
N234 C231 1.368 . S
N234 C235 1.321 . S
N234 Co237 2.135 . S
C235 N233 1.340 . S
C235 N234 1.321 . S
C235 H259 0.930 . S
H236 C231 0.931 . S
Co237 N234 2.135 . S
Co237 N240 2.121 . S
Co237 O245 2.055 1_565 S
Co237 O248 2.039 . S
Co237 N251 2.140 . S
C238 O239 1.227 . S
C238 O248 1.265 . S
O239 C238 1.227 . S
N240 Co237 2.121 . S
N240 C242 1.375 . S
N240 C243 1.313 . S
C241 C242 1.338 . S
C241 N244 1.377 . S
C241 H261 0.930 . S
C242 N240 1.375 . S
C242 C241 1.338 . S
C242 H246 0.931 . S
C243 N240 1.313 . S
C243 N244 1.344 . S
C243 H247 0.930 . S
N244 C241 1.377 . S
N244 C243 1.344 . S
O245 Co237 2.055 1_545 S
O245 C249 1.253 . S
H246 C242 0.931 . S
H247 C243 0.930 . S
O248 Co237 2.039 . S
O248 C238 1.265 . S
C249 O245 1.253 . S
C249 O250 1.227 1_545 S
O250 C249 1.227 1_565 S
N251 Co237 2.140 . S
N251 C254 1.346 . S
N251 C255 1.345 . S
C252 C253 1.387 . S
C252 C256 1.391 . S
C253 C252 1.387 . S
C253 C254 1.369 . S
C253 H262 0.929 . S
C254 N251 1.346 . S
C254 C253 1.369 . S
C254 H257 0.928 . S
C255 N251 1.345 . S
C255 C256 1.371 . S
C255 H258 0.931 . S
C256 C252 1.391 . S
C256 C255 1.371 . S
C256 H263 0.930 . S
H257 C254 0.928 . S
H258 C255 0.931 . S
H259 C235 0.930 . S
H260 C232 0.930 . S
H261 C241 0.930 . S
H262 C253 0.929 . S
H263 C256 0.930 . S
C264 C265 1.391 . S
C264 C266 1.394 1_655 S
C264 H280 0.936 . S
C265 C264 1.391 . S
C265 C269 1.376 . S
C266 C264 1.394 1_455 S
C266 C267 1.369 1_455 S
C266 C270 1.531 . S
C267 C266 1.369 1_655 S
C267 C268 1.410 . S
C267 C275 1.503 1_655 S
C268 C267 1.410 . S
C268 C269 1.392 . S
C268 C271 1.511 . S
C269 C265 1.376 . S
C269 C268 1.392 . S
C269 H281 0.929 . S
C270 C266 1.531 . S
C270 H282 0.960 . S
C270 H283 0.962 . S
C270 H284 0.960 . S
C271 C268 1.511 . S
C271 H285 0.961 . S
C271 H286 0.961 . S
C271 H287 0.961 . S
C272 C273 1.370 . S
C272 C274 1.363 . S
C272 H288 0.931 . S
C273 C272 1.370 . S
C273 C277 1.399 1_455 S
C274 C272 1.363 . S
C274 C275 1.370 . S
C274 C278 1.524 . S
C275 C267 1.503 1_455 S
C275 C274 1.370 . S
C275 C276 1.403 1_455 S
C276 C275 1.403 1_655 S
C276 C277 1.408 . S
C276 C279 1.539 . S
C277 C273 1.399 1_655 S
C277 C276 1.408 . S
C277 H289 0.935 . S
C278 C274 1.524 . S
C278 H290 0.956 . S
C278 H291 0.961 . S
C278 H292 0.961 . S
C279 C276 1.539 . S
C279 H293 0.958 . S
C279 H294 0.961 . S
C279 H295 0.960 . S
H280 C264 0.936 . S
H281 C269 0.929 . S
H282 C270 0.960 . S
H283 C270 0.962 . S
H284 C270 0.960 . S
H285 C271 0.961 . S
H286 C271 0.961 . S
H287 C271 0.961 . S
H288 C272 0.931 . S
H289 C277 0.935 . S
H290 C278 0.956 . S
H291 C278 0.961 . S
H292 C278 0.961 . S
H293 C279 0.958 . S
H294 C279 0.961 . S
H295 C279 0.960 . S
C296 C297 1.391 . S
C296 C298 1.394 . S
C296 H312 0.931 . S
C297 C296 1.391 . S
C297 C301 1.376 . S
C298 C296 1.394 . S
C298 C299 1.369 . S
C298 C302 1.531 . S
C299 C298 1.369 . S
C299 C300 1.410 . S
C299 C307 1.503 1_655 S
C300 C299 1.410 . S
C300 C301 1.392 . S
C300 C303 1.511 . S
C301 C297 1.376 . S
C301 C300 1.392 . S
C301 H313 0.929 . S
C302 C298 1.531 . S
C302 H314 0.960 1_655 S
C302 H315 0.962 . S
C302 H316 0.960 . S
C303 C300 1.511 . S
C303 H317 0.961 . S
C303 H318 0.961 . S
C303 H319 0.961 . S
C304 C305 1.370 . S
C304 C306 1.363 . S
C304 H320 0.931 . S
C305 C304 1.370 . S
C305 C309 1.408 . S
C306 C304 1.363 . S
C306 C307 1.370 . S
C306 C310 1.524 1_455 S
C307 C299 1.503 1_455 S
C307 C306 1.370 . S
C307 C308 1.403 . S
C308 C307 1.403 . S
C308 C309 1.404 . S
C308 C311 1.539 . S
C309 C305 1.408 . S
C309 C308 1.404 . S
C309 H321 0.930 . S
C310 C306 1.524 1_655 S
C310 H322 0.956 . S
C310 H323 0.961 . S
C310 H324 0.961 1_655 S
C311 C308 1.539 . S
C311 H325 0.958 . S
C311 H326 0.961 . S
C311 H327 0.960 . S
H312 C296 0.931 . S
H313 C301 0.929 . S
H314 C302 0.960 1_455 S
H315 C302 0.962 . S
H316 C302 0.960 . S
H317 C303 0.961 . S
H318 C303 0.961 . S
H319 C303 0.961 . S
H320 C304 0.931 . S
H321 C309 0.930 . S
H322 C310 0.956 . S
H323 C310 0.961 . S
H324 C310 0.961 1_455 S
H325 C311 0.958 . S
H326 C311 0.961 . S
H327 C311 0.960 . S
C328 C329 1.391 . S
C328 C330 1.394 . S
C328 H344 0.931 . S
C329 C328 1.391 . S
C329 C333 1.376 . S
C330 C328 1.394 . S
C330 C331 1.369 . S
C330 C334 1.531 1_565 S
C331 C330 1.369 . S
C331 C332 1.410 . S
C331 C339 1.503 1_565 S
C332 C331 1.410 . S
C332 C333 1.392 . S
C332 C335 1.511 . S
C333 C329 1.376 . S
C333 C332 1.392 . S
C333 H345 0.929 . S
C334 C330 1.531 1_545 S
C334 H346 0.960 . S
C334 H347 0.962 . S
C334 H348 0.960 1_545 S
C335 C332 1.511 . S
C335 H349 0.961 . S
C335 H350 0.961 . S
C335 H351 0.961 . S
C336 C337 1.370 . S
C336 C338 1.363 . S
C336 H352 0.931 . S
C337 C336 1.370 . S
C337 C341 1.408 . S
C338 C336 1.363 . S
C338 C339 1.370 . S
C338 C342 1.524 . S
C339 C331 1.503 1_545 S
C339 C338 1.370 . S
C339 C340 1.403 . S
C340 C339 1.403 . S
C340 C341 1.404 . S
C340 C343 1.539 . S
C341 C337 1.408 . S
C341 C340 1.404 . S
C341 H353 0.930 . S
C342 C338 1.524 . S
C342 H354 0.956 . S
C342 H355 0.982 . S
C342 H356 0.961 . S
C343 C340 1.539 . S
C343 H357 0.958 . S
C343 H358 0.961 . S
C343 H359 0.960 1_545 S
H344 C328 0.931 . S
H345 C333 0.929 . S
H346 C334 0.960 . S
H347 C334 0.962 . S
H348 C334 0.960 1_565 S
H349 C335 0.961 . S
H350 C335 0.961 . S
H351 C335 0.961 . S
H352 C336 0.931 . S
H353 C341 0.930 . S
H354 C342 0.956 . S
H355 C342 0.982 . S
H356 C342 0.961 . S
H357 C343 0.958 . S
H358 C343 0.961 . S
H359 C343 0.960 1_565 S
C360 C361 1.391 1_545 S
C360 C362 1.394 . S
C360 H376 0.931 . S
C361 C360 1.391 1_565 S
C361 C365 1.376 . S
C362 C360 1.394 . S
C362 C363 1.369 1_545 S
C362 C366 1.531 . S
C363 C362 1.369 1_565 S
C363 C364 1.410 . S
C363 C371 1.503 1_565 S
C364 C363 1.410 . S
C364 C365 1.392 . S
C364 C367 1.511 . S
C365 C361 1.376 . S
C365 C364 1.392 . S
C365 H377 0.929 . S
C366 C362 1.531 . S
C366 H378 0.960 . S
C366 H379 0.962 . S
C366 H380 0.960 . S
C367 C364 1.511 . S
C367 H381 0.961 . S
C367 H382 0.961 . S
C367 H383 0.961 . S
C368 C369 1.370 . S
C368 C370 1.363 . S
C368 H384 0.931 . S
C369 C368 1.370 . S
C369 C373 1.408 . S
C370 C368 1.363 . S
C370 C371 1.370 . S
C370 C374 1.524 . S
C371 C363 1.503 1_545 S
C371 C370 1.370 . S
C371 C372 1.403 . S
C372 C371 1.403 . S
C372 C373 1.404 . S
C372 C375 1.539 1_545 S
C373 C369 1.408 . S
C373 C372 1.404 . S
C373 H385 0.930 . S
C374 C370 1.524 . S
C374 H386 0.956 . S
C374 H387 0.961 . S
C374 H388 0.961 . S
C375 C372 1.539 1_565 S
C375 H389 0.958 . S
C375 H390 0.961 . S
C375 H391 0.960 . S
H376 C360 0.931 . S
H377 C365 0.929 . S
H378 C366 0.960 . S
H379 C366 0.962 . S
H380 C366 0.960 . S
H381 C367 0.961 . S
H382 C367 0.961 . S
H383 C367 0.961 . S
H384 C368 0.931 . S
H385 C373 0.930 . S
H386 C374 0.956 . S
H387 C374 0.961 . S
H388 C374 0.961 . S
H389 C375 0.958 . S
H390 C375 0.961 . S
H391 C375 0.960 . S
C392 C393 1.391 . S
C392 C394 1.394 . S
C392 H408 0.931 . S
C393 C392 1.391 . S
C393 C397 1.376 . S
C394 C392 1.394 . S
C394 C395 1.369 . S
C394 C398 1.531 . S
C395 C394 1.369 . S
C395 C396 1.410 . S
C395 C403 1.503 . S
C396 C395 1.410 . S
C396 C397 1.392 . S
C396 C399 1.511 . S
C397 C393 1.376 . S
C397 C396 1.392 . S
C397 H409 0.929 . S
C398 C394 1.531 . S
C398 H410 0.960 . S
C398 H411 0.962 . S
C398 H412 0.960 . S
C399 C396 1.511 . S
C399 H413 0.961 . S
C399 H414 0.961 . S
C399 H415 0.961 . S
C400 C401 1.370 . S
C400 C402 1.363 . S
C400 H416 0.931 . S
C401 C400 1.370 . S
C401 C405 1.408 . S
C402 C400 1.363 . S
C402 C403 1.370 . S
C402 C406 1.524 . S
C403 C395 1.503 . S
C403 C402 1.370 . S
C403 C404 1.403 . S
C404 C403 1.403 . S
C404 C405 1.404 . S
C404 C407 1.539 . S
C405 C401 1.408 . S
C405 C404 1.404 . S
C405 H417 0.930 . S
C406 C402 1.524 . S
C406 H418 0.956 . S
C406 H419 0.961 . S
C406 H420 0.961 . S
C407 C404 1.539 . S
C407 H421 0.958 . S
C407 H422 0.961 . S
C407 H423 0.960 . S
H408 C392 0.931 . S
H409 C397 0.929 . S
H410 C398 0.960 . S
H411 C398 0.962 . S
H412 C398 0.960 . S
H413 C399 0.961 . S
H414 C399 0.961 . S
H415 C399 0.961 . S
H416 C400 0.931 . S
H417 C405 0.930 . S
H418 C406 0.956 . S
H419 C406 0.961 . S
H420 C406 0.961 . S
H421 C407 0.958 . S
H422 C407 0.961 . S
H423 C407 0.960 . S
C424 C425 1.391 . S
C424 C426 1.394 . S
C424 H440 0.931 . S
C425 C424 1.391 . S
C425 C429 1.376 . S
C426 C424 1.394 . S
C426 C427 1.369 . S
C426 C430 1.531 . S
C427 C426 1.369 . S
C427 C428 1.410 . S
C427 C435 1.503 . S
C428 C427 1.410 . S
C428 C429 1.392 . S
C428 C431 1.511 . S
C429 C425 1.376 . S
C429 C428 1.392 . S
C429 H441 0.929 . S
C430 C426 1.531 . S
C430 H442 0.960 . S
C430 H443 0.962 . S
C430 H444 0.960 . S
C431 C428 1.511 . S
C431 H445 0.961 . S
C431 H446 0.961 . S
C431 H447 0.961 . S
C432 C433 1.370 . S
C432 C434 1.363 . S
C432 H448 0.931 . S
C433 C432 1.370 . S
C433 C437 1.408 . S
C434 C432 1.363 . S
C434 C435 1.370 . S
C434 C438 1.524 . S
C435 C427 1.503 . S
C435 C434 1.370 . S
C435 C436 1.403 . S
C436 C435 1.403 . S
C436 C437 1.404 . S
C436 C439 1.539 . S
C437 C433 1.408 . S
C437 C436 1.404 . S
C437 H449 0.930 . S
C438 C434 1.524 . S
C438 H450 0.956 . S
C438 H451 0.961 . S
C438 H452 0.961 . S
C439 C436 1.539 . S
C439 H453 0.958 . S
C439 H454 0.961 . S
C439 H455 0.960 . S
H440 C424 0.931 . S
H441 C429 0.929 . S
H442 C430 0.960 . S
H443 C430 0.962 . S
H444 C430 0.960 . S
H445 C431 0.961 . S
H446 C431 0.961 . S
H447 C431 0.961 . S
H448 C432 0.931 . S
H449 C437 0.930 . S
H450 C438 0.956 . S
H451 C438 0.961 . S
H452 C438 0.961 . S
H453 C439 0.958 . S
H454 C439 0.961 . S
H455 C439 0.960 . S
C456 C457 1.391 . S
C456 C458 1.394 . S
C456 H472 0.931 . S
C457 C456 1.391 . S
C457 C461 1.376 . S
C458 C456 1.394 . S
C458 C459 1.369 . S
C458 C462 1.531 . S
C459 C458 1.369 . S
C459 C460 1.410 . S
C459 C467 1.503 . S
C460 C459 1.410 . S
C460 C461 1.392 . S
C460 C463 1.511 . S
C461 C457 1.376 . S
C461 C460 1.392 . S
C461 H473 0.929 . S
C462 C458 1.531 . S
C462 H474 0.960 . S
C462 H475 0.962 . S
C462 H476 0.960 . S
C463 C460 1.511 . S
C463 H477 0.961 . S
C463 H478 0.961 . S
C463 H479 0.961 . S
C464 C465 1.370 . S
C464 C466 1.363 . S
C464 H480 0.931 . S
C465 C464 1.370 . S
C465 C469 1.408 . S
C466 C464 1.363 . S
C466 C467 1.370 . S
C466 C470 1.524 . S
C467 C459 1.503 . S
C467 C466 1.370 . S
C467 C468 1.403 . S
C468 C467 1.403 . S
C468 C469 1.404 . S
C468 C471 1.539 . S
C469 C465 1.408 . S
C469 C468 1.404 . S
C469 H481 0.930 . S
C470 C466 1.524 . S
C470 H482 0.956 . S
C470 H483 0.961 . S
C470 H484 0.961 . S
C471 C468 1.539 . S
C471 H485 0.958 . S
C471 H486 0.961 . S
C471 H487 0.960 . S
H472 C456 0.931 . S
H473 C461 0.929 . S
H474 C462 0.960 . S
H475 C462 0.962 . S
H476 C462 0.960 . S
H477 C463 0.961 . S
H478 C463 0.961 . S
H479 C463 0.961 . S
H480 C464 0.931 . S
H481 C469 0.930 . S
H482 C470 0.956 . S
H483 C470 0.961 . S
H484 C470 0.961 . S
H485 C471 0.958 . S
H486 C471 0.961 . S
H487 C471 0.960 . S
C488 C489 1.391 . S
C488 C490 1.394 . S
C488 H504 0.931 . S
C489 C488 1.391 . S
C489 C493 1.376 . S
C490 C488 1.394 . S
C490 C491 1.369 . S
C490 C494 1.531 . S
C491 C490 1.369 . S
C491 C492 1.410 . S
C491 C499 1.503 . S
C492 C491 1.410 . S
C492 C493 1.392 . S
C492 C495 1.511 . S
C493 C489 1.376 . S
C493 C492 1.392 . S
C493 H505 0.929 . S
C494 C490 1.531 . S
C494 H506 0.960 . S
C494 H507 0.962 . S
C494 H508 0.960 . S
C495 C492 1.511 . S
C495 H509 0.961 . S
C495 H510 0.961 . S
C495 H511 0.961 . S
C496 C497 1.370 . S
C496 C498 1.363 . S
C496 H512 0.931 . S
C497 C496 1.370 . S
C497 C501 1.408 . S
C498 C496 1.363 . S
C498 C499 1.370 . S
C498 C502 1.524 . S
C499 C491 1.503 . S
C499 C498 1.370 . S
C499 C500 1.403 . S
C500 C499 1.403 . S
C500 C501 1.404 . S
C500 C503 1.539 . S
C501 C497 1.408 . S
C501 C500 1.404 . S
C501 H513 0.930 . S
C502 C498 1.524 . S
C502 H514 0.956 . S
C502 H515 0.961 . S
C502 H516 0.961 . S
C503 C500 1.539 . S
C503 H517 0.958 . S
C503 H518 0.961 . S
C503 H519 0.960 . S
H504 C488 0.931 . S
H505 C493 0.929 . S
H506 C494 0.960 . S
H507 C494 0.962 . S
H508 C494 0.960 . S
H509 C495 0.961 . S
H510 C495 0.961 . S
H511 C495 0.961 . S
H512 C496 0.931 . S
H513 C501 0.930 . S
H514 C502 0.956 . S
H515 C502 0.961 . S
H516 C502 0.961 . S
H517 C503 0.958 . S
H518 C503 0.961 . S
H519 C503 0.960 . S
C520 C521 1.391 . S
C520 C522 1.394 . S
C520 H536 0.931 . S
C521 C520 1.391 . S
C521 C525 1.376 . S
C522 C520 1.394 . S
C522 C523 1.369 . S
C522 C526 1.531 . S
C523 C522 1.369 . S
C523 C524 1.410 . S
C523 C531 1.503 . S
C524 C523 1.410 . S
C524 C525 1.392 . S
C524 C527 1.511 . S
C525 C521 1.376 . S
C525 C524 1.392 . S
C525 H537 0.929 . S
C526 C522 1.531 . S
C526 H538 0.960 . S
C526 H539 0.962 . S
C526 H540 0.960 . S
C527 C524 1.511 . S
C527 H541 0.961 . S
C527 H542 0.961 . S
C527 H543 0.961 . S
C528 C529 1.370 . S
C528 C530 1.363 . S
C528 H544 0.931 . S
C529 C528 1.370 . S
C529 C533 1.408 . S
C530 C528 1.363 . S
C530 C531 1.370 . S
C530 C534 1.524 . S
C531 C523 1.503 . S
C531 C530 1.370 . S
C531 C532 1.403 . S
C532 C531 1.403 . S
C532 C533 1.404 . S
C532 C535 1.539 . S
C533 C529 1.408 . S
C533 C532 1.404 . S
C533 H545 0.930 . S
C534 C530 1.524 . S
C534 H546 0.956 . S
C534 H547 0.961 . S
C534 H548 0.961 . S
C535 C532 1.539 . S
C535 H549 0.958 . S
C535 H550 0.961 . S
C535 H551 0.960 . S
H536 C520 0.931 . S
H537 C525 0.929 . S
H538 C526 0.960 . S
H539 C526 0.962 . S
H540 C526 0.960 . S
H541 C527 0.961 . S
H542 C527 0.961 . S
H543 C527 0.961 . S
H544 C528 0.931 . S
H545 C533 0.930 . S
H546 C534 0.956 . S
H547 C534 0.961 . S
H548 C534 0.961 . S
H549 C535 0.958 . S
H550 C535 0.961 . S
H551 C535 0.960 . S
C552 C553 1.391 . S
C552 C554 1.394 . S
C552 H568 0.931 . S
C553 C552 1.391 . S
C553 C557 1.376 . S
C554 C552 1.394 . S
C554 C555 1.369 . S
C554 C558 1.531 . S
C555 C554 1.369 . S
C555 C556 1.410 . S
C555 C563 1.503 . S
C556 C555 1.410 . S
C556 C557 1.392 . S
C556 C559 1.511 . S
C557 C553 1.376 . S
C557 C556 1.392 . S
C557 H569 0.929 . S
C558 C554 1.531 . S
C558 H570 0.960 . S
C558 H571 0.962 . S
C558 H572 0.960 . S
C559 C556 1.511 . S
C559 H573 0.961 . S
C559 H574 0.961 . S
C559 H575 0.961 . S
C560 C561 1.370 . S
C560 C562 1.363 . S
C560 H576 0.931 . S
C561 C560 1.370 . S
C561 C565 1.408 . S
C562 C560 1.363 . S
C562 C563 1.370 . S
C562 C566 1.524 . S
C563 C555 1.503 . S
C563 C562 1.370 . S
C563 C564 1.403 . S
C564 C563 1.403 . S
C564 C565 1.404 . S
C564 C567 1.539 . S
C565 C561 1.408 . S
C565 C564 1.404 . S
C565 H577 0.930 . S
C566 C562 1.524 . S
C566 H578 0.956 . S
C566 H579 0.961 . S
C566 H580 0.961 . S
C567 C564 1.539 . S
C567 H581 0.958 . S
C567 H582 0.961 . S
C567 H583 0.960 . S
H568 C552 0.931 . S
H569 C557 0.929 . S
H570 C558 0.960 . S
H571 C558 0.962 . S
H572 C558 0.960 . S
H573 C559 0.961 . S
H574 C559 0.961 . S
H575 C559 0.961 . S
H576 C560 0.931 . S
H577 C565 0.930 . S
H578 C566 0.956 . S
H579 C566 0.961 . S
H580 C566 0.961 . S
H581 C567 0.958 . S
H582 C567 0.961 . S
H583 C567 0.960 . S
C584 C585 1.391 . S
C584 C586 1.394 . S
C584 H600 0.931 . S
C585 C584 1.391 . S
C585 C589 1.376 . S
C586 C584 1.394 . S
C586 C587 1.369 . S
C586 C590 1.531 . S
C587 C586 1.369 . S
C587 C588 1.410 . S
C587 C595 1.503 . S
C588 C587 1.410 . S
C588 C589 1.392 . S
C588 C591 1.511 . S
C589 C585 1.376 . S
C589 C588 1.392 . S
C589 H601 0.929 . S
C590 C586 1.531 . S
C590 H602 0.960 . S
C590 H603 0.962 . S
C590 H604 0.960 . S
C591 C588 1.511 . S
C591 H605 0.961 . S
C591 H606 0.961 . S
C591 H607 0.961 . S
C592 C593 1.370 . S
C592 C594 1.363 . S
C592 H608 0.931 . S
C593 C592 1.370 . S
C593 C597 1.408 . S
C594 C592 1.363 . S
C594 C595 1.370 . S
C594 C598 1.524 . S
C595 C587 1.503 . S
C595 C594 1.370 . S
C595 C596 1.403 . S
C596 C595 1.403 . S
C596 C597 1.404 . S
C596 C599 1.539 . S
C597 C593 1.408 . S
C597 C596 1.404 . S
C597 H609 0.930 . S
C598 C594 1.524 . S
C598 H610 0.956 . S
C598 H611 0.961 . S
C598 H612 0.961 . S
C599 C596 1.539 . S
C599 H613 0.958 . S
C599 H614 0.961 . S
C599 H615 0.960 . S
H600 C584 0.931 . S
H601 C589 0.929 . S
H602 C590 0.960 . S
H603 C590 0.962 . S
H604 C590 0.960 . S
H605 C591 0.961 . S
H606 C591 0.961 . S
H607 C591 0.961 . S
H608 C592 0.931 . S
H609 C597 0.930 . S
H610 C598 0.956 . S
H611 C598 0.961 . S
H612 C598 0.961 . S
H613 C599 0.958 . S
H614 C599 0.961 . S
H615 C599 0.960 . S
C616 C617 1.391 . S
C616 C618 1.394 . S
C616 H632 0.931 . S
C617 C616 1.391 . S
C617 C621 1.376 . S
C618 C616 1.394 . S
C618 C619 1.369 . S
C618 C622 1.531 . S
C619 C618 1.369 . S
C619 C620 1.410 . S
C619 C627 1.503 . S
C620 C619 1.410 . S
C620 C621 1.392 . S
C620 C623 1.511 . S
C621 C617 1.376 . S
C621 C620 1.392 . S
C621 H633 0.929 . S
C622 C618 1.531 . S
C622 H634 0.960 . S
C622 H635 0.962 . S
C622 H636 0.960 . S
C623 C620 1.511 . S
C623 H637 0.961 . S
C623 H638 0.961 . S
C623 H639 0.961 . S
C624 C625 1.370 . S
C624 C626 1.363 . S
C624 H640 0.931 . S
C625 C624 1.370 . S
C625 C629 1.408 . S
C626 C624 1.363 . S
C626 C627 1.370 . S
C626 C630 1.524 . S
C627 C619 1.503 . S
C627 C626 1.370 . S
C627 C628 1.403 . S
C628 C627 1.403 . S
C628 C629 1.404 . S
C628 C631 1.539 . S
C629 C625 1.408 . S
C629 C628 1.404 . S
C629 H641 0.930 . S
C630 C626 1.524 . S
C630 H642 0.956 . S
C630 H643 0.961 . S
C630 H644 0.961 . S
C631 C628 1.539 . S
C631 H645 0.958 . S
C631 H646 0.961 . S
C631 H647 0.960 . S
H632 C616 0.931 . S
H633 C621 0.929 . S
H634 C622 0.960 . S
H635 C622 0.962 . S
H636 C622 0.960 . S
H637 C623 0.961 . S
H638 C623 0.961 . S
H639 C623 0.961 . S
H640 C624 0.931 . S
H641 C629 0.930 . S
H642 C630 0.956 . S
H643 C630 0.961 . S
H644 C630 0.961 . S
H645 C631 0.958 . S
H646 C631 0.961 . S
H647 C631 0.960 . S
C648 C649 1.391 . S
C648 C650 1.394 . S
C648 H664 0.931 . S
C649 C648 1.391 . S
C649 C653 1.376 . S
C650 C648 1.394 . S
C650 C651 1.369 . S
C650 C654 1.531 . S
C651 C650 1.369 . S
C651 C652 1.410 . S
C651 C659 1.503 . S
C652 C651 1.410 . S
C652 C653 1.392 . S
C652 C655 1.511 . S
C653 C649 1.376 . S
C653 C652 1.392 . S
C653 H665 0.929 . S
C654 C650 1.531 . S
C654 H666 0.960 . S
C654 H667 0.962 . S
C654 H668 0.960 . S
C655 C652 1.511 . S
C655 H669 0.961 . S
C655 H670 0.961 . S
C655 H671 0.961 . S
C656 C657 1.370 . S
C656 C658 1.363 . S
C656 H672 0.931 . S
C657 C656 1.370 . S
C657 C661 1.408 . S
C658 C656 1.363 . S
C658 C659 1.370 . S
C658 C662 1.524 . S
C659 C651 1.503 . S
C659 C658 1.370 . S
C659 C660 1.403 . S
C660 C659 1.403 . S
C660 C661 1.404 . S
C660 C663 1.539 . S
C661 C657 1.408 . S
C661 C660 1.404 . S
C661 H673 0.930 . S
C662 C658 1.524 . S
C662 H674 0.956 . S
C662 H675 0.961 . S
C662 H676 0.961 . S
C663 C660 1.539 . S
C663 H677 0.958 . S
C663 H678 0.961 . S
C663 H679 0.960 . S
H664 C648 0.931 . S
H665 C653 0.929 . S
H666 C654 0.960 . S
H667 C654 0.962 . S
H668 C654 0.960 . S
H669 C655 0.961 . S
H670 C655 0.961 . S
H671 C655 0.961 . S
H672 C656 0.931 . S
H673 C661 0.930 . S
H674 C662 0.956 . S
H675 C662 0.961 . S
H676 C662 0.961 . S
H677 C663 0.958 . S
H678 C663 0.961 . S
H679 C663 0.960 . S
C680 C681 1.391 . S
C680 C682 1.394 . S
C680 H696 0.931 . S
C681 C680 1.391 . S
C681 C685 1.376 . S
C682 C680 1.394 . S
C682 C683 1.369 . S
C682 C686 1.531 1_554 S
C683 C682 1.369 . S
C683 C684 1.410 . S
C683 C691 1.503 1_554 S
C684 C683 1.410 . S
C684 C685 1.392 . S
C684 C687 1.511 . S
C685 C681 1.376 . S
C685 C684 1.392 . S
C685 H697 0.929 . S
C686 C682 1.531 1_556 S
C686 H698 0.960 . S
C686 H699 0.962 . S
C686 H700 0.960 . S
C687 C684 1.511 . S
C687 H701 0.961 . S
C687 H702 0.961 . S
C687 H703 0.961 . S
C688 C689 1.370 . S
C688 C690 1.363 . S
C688 H704 0.931 . S
C689 C688 1.370 . S
C689 C693 1.408 . S
C690 C688 1.363 . S
C690 C691 1.370 . S
C690 C694 1.524 . S
C691 C683 1.503 1_556 S
C691 C690 1.370 . S
C691 C692 1.403 . S
C692 C691 1.403 . S
C692 C693 1.404 . S
C692 C695 1.539 . S
C693 C689 1.408 . S
C693 C692 1.404 . S
C693 H705 0.930 . S
C694 C690 1.524 . S
C694 H706 0.956 . S
C694 H707 0.961 1_556 S
C694 H708 0.961 . S
C695 C692 1.539 . S
C695 H709 0.958 . S
C695 H710 0.961 . S
C695 H711 0.960 1_556 S
H696 C680 0.931 . S
H697 C685 0.929 . S
H698 C686 0.960 . S
H699 C686 0.962 . S
H700 C686 0.960 . S
H701 C687 0.961 . S
H702 C687 0.961 . S
H703 C687 0.961 . S
H704 C688 0.931 . S
H705 C693 0.930 . S
H706 C694 0.956 . S
H707 C694 0.961 1_554 S
H708 C694 0.961 . S
H709 C695 0.958 . S
H710 C695 0.961 . S
H711 C695 0.960 1_554 S
C712 C713 1.391 . S
C712 C714 1.394 . S
C712 H728 0.931 . S
C713 C712 1.391 . S
C713 C717 1.376 . S
C714 C712 1.394 . S
C714 C715 1.369 . S
C714 C718 1.531 . S
C715 C714 1.369 . S
C715 C716 1.410 . S
C715 C723 1.503 . S
C716 C715 1.410 . S
C716 C717 1.392 . S
C716 C719 1.511 . S
C717 C713 1.376 . S
C717 C716 1.392 . S
C717 H729 0.929 . S
C718 C714 1.531 . S
C718 H730 0.960 . S
C718 H731 0.962 . S
C718 H732 0.960 . S
C719 C716 1.511 . S
C719 H733 0.961 . S
C719 H734 0.961 . S
C719 H735 0.961 . S
C720 C721 1.370 . S
C720 C722 1.363 . S
C720 H736 0.931 . S
C721 C720 1.370 . S
C721 C725 1.408 . S
C722 C720 1.363 . S
C722 C723 1.370 . S
C722 C726 1.524 . S
C723 C715 1.503 . S
C723 C722 1.370 . S
C723 C724 1.403 . S
C724 C723 1.403 . S
C724 C725 1.404 . S
C724 C727 1.539 . S
C725 C721 1.408 . S
C725 C724 1.404 . S
C725 H737 0.930 . S
C726 C722 1.524 . S
C726 H738 0.956 . S
C726 H739 0.961 . S
C726 H740 0.961 . S
C727 C724 1.539 . S
C727 H741 0.958 . S
C727 H742 0.961 . S
C727 H743 0.960 . S
H728 C712 0.931 . S
H729 C717 0.929 . S
H730 C718 0.960 . S
H731 C718 0.962 . S
H732 C718 0.960 . S
H733 C719 0.961 . S
H734 C719 0.961 . S
H735 C719 0.961 . S
H736 C720 0.931 . S
H737 C725 0.930 . S
H738 C726 0.956 . S
H739 C726 0.961 . S
H740 C726 0.961 . S
H741 C727 0.958 . S
H742 C727 0.961 . S
H743 C727 0.960 . S
C744 C745 1.391 . S
C744 C746 1.394 . S
C744 H760 0.931 . S
C745 C744 1.391 . S
C745 C749 1.376 . S
C746 C744 1.394 . S
C746 C747 1.369 . S
C746 C750 1.531 1_554 S
C747 C746 1.369 . S
C747 C748 1.410 . S
C747 C755 1.503 1_554 S
C748 C747 1.410 . S
C748 C749 1.392 . S
C748 C751 1.511 . S
C749 C745 1.376 . S
C749 C748 1.392 . S
C749 H761 0.929 . S
C750 C746 1.531 1_556 S
C750 H762 0.960 . S
C750 H763 0.962 1_556 S
C750 H764 0.960 . S
C751 C748 1.511 . S
C751 H765 0.961 . S
C751 H766 0.961 . S
C751 H767 0.961 . S
C752 C753 1.370 . S
C752 C754 1.363 . S
C752 H768 0.931 . S
C753 C752 1.370 . S
C753 C757 1.408 . S
C754 C752 1.363 . S
C754 C755 1.370 . S
C754 C758 1.524 1_556 S
C755 C747 1.503 1_556 S
C755 C754 1.370 . S
C755 C756 1.403 . S
C756 C755 1.403 . S
C756 C757 1.404 . S
C756 C759 1.539 . S
C757 C753 1.408 . S
C757 C756 1.404 . S
C757 H769 0.930 . S
C758 C754 1.524 1_554 S
C758 H770 0.956 . S
C758 H771 0.961 . S
C758 H772 0.961 . S
C759 C756 1.539 . S
C759 H773 0.958 . S
C759 H774 0.961 . S
C759 H775 0.960 . S
H760 C744 0.931 . S
H761 C749 0.929 . S
H762 C750 0.960 . S
H763 C750 0.962 1_554 S
H764 C750 0.960 . S
H765 C751 0.961 . S
H766 C751 0.961 . S
H767 C751 0.961 . S
H768 C752 0.931 . S
H769 C757 0.930 . S
H770 C758 0.956 . S
H771 C758 0.961 . S
H772 C758 0.961 . S
H773 C759 0.958 . S
H774 C759 0.961 . S
H775 C759 0.960 . S
C776 C777 1.391 . S
C776 C778 1.394 . S
C776 H792 0.931 . S
C777 C776 1.391 . S
C777 C781 1.376 . S
C778 C776 1.394 . S
C778 C779 1.369 . S
C778 C782 1.531 1_655 S
C779 C778 1.369 . S
C779 C780 1.410 . S
C779 C787 1.503 1_665 S
C780 C779 1.410 . S
C780 C781 1.392 . S
C780 C783 1.511 1_565 S
C781 C777 1.376 . S
C781 C780 1.392 . S
C781 H793 0.929 . S
C782 C778 1.531 1_455 S
C782 H794 0.960 . S
C782 H795 0.962 . S
C782 H796 0.960 . S
C783 C780 1.511 1_545 S
C783 H797 0.962 1_545 S
C783 H798 0.961 . S
C783 H799 0.961 . S
C784 C785 1.370 . S
C784 C786 1.363 . S
C784 H800 0.931 . S
C785 C784 1.370 . S
C785 C789 1.408 . S
C786 C784 1.363 . S
C786 C787 1.370 . S
C786 C790 1.524 1_545 S
C787 C779 1.503 1_445 S
C787 C786 1.370 . S
C787 C788 1.403 1_455 S
C788 C787 1.403 1_655 S
C788 C789 1.404 1_655 S
C788 C791 1.539 . S
C789 C785 1.408 . S
C789 C788 1.404 1_455 S
C789 H801 0.930 . S
C790 C786 1.524 1_565 S
C790 H802 0.956 . S
C790 H803 0.961 . S
C790 H804 0.961 . S
C791 C788 1.539 . S
C791 H805 0.958 . S
C791 H806 0.961 . S
C791 H807 0.960 . S
H792 C776 0.931 . S
H793 C781 0.929 . S
H794 C782 0.960 . S
H795 C782 0.962 . S
H796 C782 0.960 . S
H797 C783 0.962 1_565 S
H798 C783 0.961 . S
H799 C783 0.961 . S
H800 C784 0.931 . S
H801 C789 0.930 . S
H802 C790 0.956 . S
H803 C790 0.961 . S
H804 C790 0.961 . S
H805 C791 0.958 . S
H806 C791 0.961 . S
H807 C791 0.960 . S
C808 C809 1.391 . S
C808 C810 1.394 . S
C808 H824 0.931 . S
C809 C808 1.391 . S
C809 C813 1.376 . S
C810 C808 1.394 . S
C810 C811 1.369 . S
C810 C814 1.531 . S
C811 C810 1.369 . S
C811 C812 1.410 . S
C811 C819 1.503 . S
C812 C811 1.410 . S
C812 C813 1.392 . S
C812 C815 1.511 . S
C813 C809 1.376 . S
C813 C812 1.392 . S
C813 H825 0.929 . S
C814 C810 1.531 . S
C814 H826 0.960 . S
C814 H827 0.962 . S
C814 H828 0.960 . S
C815 C812 1.511 . S
C815 H829 0.961 . S
C815 H830 0.961 . S
C815 H831 0.961 . S
C816 C817 1.370 . S
C816 C818 1.363 . S
C816 H832 0.931 . S
C817 C816 1.370 . S
C817 C821 1.408 . S
C818 C816 1.363 . S
C818 C819 1.370 . S
C818 C822 1.524 . S
C819 C811 1.503 . S
C819 C818 1.370 . S
C819 C820 1.403 . S
C820 C819 1.403 . S
C820 C821 1.404 . S
C820 C823 1.539 . S
C821 C817 1.408 . S
C821 C820 1.404 . S
C821 H833 0.930 . S
C822 C818 1.524 . S
C822 H834 0.956 . S
C822 H835 0.961 . S
C822 H836 0.961 . S
C823 C820 1.539 . S
C823 H837 0.958 . S
C823 H838 0.961 . S
C823 H839 0.960 . S
H824 C808 0.931 . S
H825 C813 0.929 . S
H826 C814 0.960 . S
H827 C814 0.962 . S
H828 C814 0.960 . S
H829 C815 0.961 . S
H830 C815 0.961 . S
H831 C815 0.961 . S
H832 C816 0.931 . S
H833 C821 0.930 . S
H834 C822 0.956 . S
H835 C822 0.961 . S
H836 C822 0.961 . S
H837 C823 0.958 . S
H838 C823 0.961 . S
H839 C823 0.960 . S
C840 C841 1.391 . S
C840 C842 1.394 . S
C840 H856 0.931 . S
C841 C840 1.391 . S
C841 C845 1.376 . S
C842 C840 1.394 . S
C842 C843 1.369 . S
C842 C846 1.531 . S
C843 C842 1.369 . S
C843 C844 1.410 . S
C843 C851 1.503 . S
C844 C843 1.410 . S
C844 C845 1.392 . S
C844 C847 1.511 . S
C845 C841 1.376 . S
C845 C844 1.392 . S
C845 H857 0.929 . S
C846 C842 1.531 . S
C846 H858 0.960 . S
C846 H859 0.962 . S
C846 H860 0.960 . S
C847 C844 1.511 . S
C847 H861 0.961 . S
C847 H862 0.961 . S
C847 H863 0.961 . S
C848 C849 1.370 . S
C848 C850 1.363 . S
C848 H864 0.931 . S
C849 C848 1.370 . S
C849 C853 1.408 . S
C850 C848 1.363 . S
C850 C851 1.370 . S
C850 C854 1.524 . S
C851 C843 1.503 . S
C851 C850 1.370 . S
C851 C852 1.403 . S
C852 C851 1.403 . S
C852 C853 1.404 . S
C852 C855 1.539 . S
C853 C849 1.408 . S
C853 C852 1.404 . S
C853 H865 0.930 . S
C854 C850 1.524 . S
C854 H866 0.956 . S
C854 H867 0.961 . S
C854 H868 0.961 . S
C855 C852 1.539 . S
C855 H869 0.958 . S
C855 H870 0.961 . S
C855 H871 0.960 . S
H856 C840 0.931 . S
H857 C845 0.929 . S
H858 C846 0.960 . S
H859 C846 0.962 . S
H860 C846 0.960 . S
H861 C847 0.961 . S
H862 C847 0.961 . S
H863 C847 0.961 . S
H864 C848 0.931 . S
H865 C853 0.930 . S
H866 C854 0.956 . S
H867 C854 0.961 . S
H868 C854 0.961 . S
H869 C855 0.958 . S
H870 C855 0.961 . S
H871 C855 0.960 . S
C872 C873 1.391 . S
C872 C874 1.394 . S
C872 H888 0.931 . S
C873 C872 1.391 . S
C873 C877 1.376 . S
C874 C872 1.394 . S
C874 C875 1.369 . S
C874 C878 1.531 1_455 S
C875 C874 1.369 . S
C875 C876 1.410 1_545 S
C875 C883 1.503 1_445 S
C876 C875 1.410 1_565 S
C876 C877 1.392 1_565 S
C876 C879 1.511 . S
C877 C873 1.376 . S
C877 C876 1.392 1_545 S
C877 H889 0.929 . S
C878 C874 1.531 1_655 S
C878 H890 0.960 . S
C878 H891 0.962 . S
C878 H892 0.960 . S
C879 C876 1.511 . S
C879 H893 0.961 . S
C879 H894 0.961 . S
C879 H895 0.961 . S
C880 C881 1.370 . S
C880 C882 1.363 . S
C880 H896 0.931 . S
C881 C880 1.370 . S
C881 C885 1.408 . S
C882 C880 1.363 . S
C882 C883 1.370 . S
C882 C886 1.524 . S
C883 C875 1.503 1_665 S
C883 C882 1.370 . S
C883 C884 1.403 . S
C884 C883 1.403 . S
C884 C885 1.404 . S
C884 C887 1.539 . S
C885 C881 1.408 . S
C885 C884 1.404 . S
C885 H897 0.930 . S
C886 C882 1.524 . S
C886 H898 0.956 1_565 S
C886 H899 0.961 1_655 S
C886 H900 0.961 . S
C887 C884 1.539 . S
C887 H901 0.953 1_565 S
C887 H902 0.961 . S
C887 H903 0.960 1_655 S
H888 C872 0.931 . S
H889 C877 0.929 . S
H890 C878 0.960 . S
H891 C878 0.962 . S
H892 C878 0.960 . S
H893 C879 0.961 . S
H894 C879 0.961 . S
H895 C879 0.961 . S
H896 C880 0.931 . S
H897 C885 0.930 . S
H898 C886 0.956 1_545 S
H899 C886 0.961 1_455 S
H900 C886 0.961 . S
H901 C887 0.953 1_545 S
H902 C887 0.961 . S
H903 C887 0.960 1_455 S
C265 N79 1.101 . S
C273 N13 1.111 . S
C297 N112 1.124 . S
C305 N46 1.121 . S
C329 N211 1.130 . S
C337 N145 1.121 . S
C361 N244 1.095 . S
C369 N178 1.108 . S
C393 C150 1.927 . S
C401 C21 1.927 . S
C425 C183 1.926 . S
C433 C54 1.930 . S
C457 C216 1.933 . S
C465 C87 1.927 . S
C489 C120 1.931 . S
C497 C249 1.934 . S
C521 C18 1.932 . S
C529 C153 1.927 . S
C553 C51 1.932 . S
C561 C186 1.932 . S
C585 C84 1.928 . S
C593 C219 1.932 . S
C617 C252 1.918 . S
C625 C117 1.934 . S
C649 C7 1.775 . S
C657 C172 1.737 . S
C681 C205 1.734 . S
C689 C40 1.755 . S
C713 C238 1.728 . S
C721 C73 1.755 . S
C745 C139 1.773 . S
C753 C106 1.737 . S
C777 N68 0.697 . S
C785 N2 0.570 . S
C809 N35 0.553 . S
C817 N101 0.667 . S
C841 N200 0.625 . S
C849 N134 0.587 . S
C873 N167 0.652 . S
C881 N233 0.646 . S
