# Generated by pormake.
# Topology smm, (6)-cn, num edge types: 1
# Building blocks:
#     Node 0, Type 0, BuildingBlock: NUHQIS_clean_sbu_0, # of connection points: 6
#     Node 1, Type 0, BuildingBlock: NUHQIS_clean_sbu_0, # of connection points: 6
#     Node 2, Type 0, BuildingBlock: NUHQIS_clean_sbu_0, # of connection points: 6
#     Node 3, Type 0, BuildingBlock: NUHQIS_clean_sbu_0, # of connection points: 6
#     Node 4, Type 0, BuildingBlock: NUHQIS_clean_sbu_0, # of connection points: 6
#     Node 5, Type 0, BuildingBlock: NUHQIS_clean_sbu_0, # of connection points: 6
#     Node 6, Type 0, BuildingBlock: NUHQIS_clean_sbu_0, # of connection points: 6
#     Node 7, Type 0, BuildingBlock: NUHQIS_clean_sbu_0, # of connection points: 6
#     Node 8, Type 0, BuildingBlock: NUHQIS_clean_sbu_0, # of connection points: 6
#     Edge 9, Type (0, 0), None
#     Edge 10, Type (0, 0), None
#     Edge 11, Type (0, 0), None
#     Edge 12, Type (0, 0), None
#     Edge 13, Type (0, 0), None
#     Edge 14, Type (0, 0), None
#     Edge 15, Type (0, 0), None
#     Edge 16, Type (0, 0), None
#     Edge 17, Type (0, 0), None
#     Edge 18, Type (0, 0), None
#     Edge 19, Type (0, 0), None
#     Edge 20, Type (0, 0), None
#     Edge 21, Type (0, 0), None
#     Edge 22, Type (0, 0), None
#     Edge 23, Type (0, 0), None
#     Edge 24, Type (0, 0), None
#     Edge 25, Type (0, 0), None
#     Edge 26, Type (0, 0), None
#     Edge 27, Type (0, 0), None
#     Edge 28, Type (0, 0), None
#     Edge 29, Type (0, 0), None
#     Edge 30, Type (0, 0), None
#     Edge 31, Type (0, 0), None
#     Edge 32, Type (0, 0), None
#     Edge 33, Type (0, 0), None
#     Edge 34, Type (0, 0), None
#     Edge 35, Type (0, 0), None
# Relax obj value: 0.018
# Max RMSD: 0.084
# Mean RMSD: 0.084
data_MOF--net-smm--node1-NUHQIS_clean_sbu_0--edge1-none
_symmetry_space_group_name_H-M    P1
_symmetry_Int_Tables_number       1
_symmetry_cell_setting            triclinic
loop_
_symmetry_equiv_pos_as_xyz
'x, y, z'
_cell_length_a     42.254428
_cell_length_b     42.254224
_cell_length_c     6.7820849
_cell_angle_alpha  90.001065
_cell_angle_beta   90.001446
_cell_angle_gamma 120.00057
loop_
_atom_site_label
_atom_site_type_symbol
_atom_site_fract_x
_atom_site_fract_y
_atom_site_fract_z
_atom_type_partial_charge
Tb0 Tb 1.02137 0.21621 0.91752 0.0
Eu1 Eu 0.093 0.1993 0.91855 0.0
C2 C 0.05633 0.2087 0.51528 0.0
C3 C 1.00864 0.13505 0.93124 0.0
C4 C 0.95499 0.24945 0.02949 0.0
C5 C 0.90371 0.25639 0.13214 0.0
C6 C 0.91738 0.23476 0.05765 0.0
C7 C 0.97907 0.2857 0.0869 0.0
C8 C 0.96541 0.30746 0.16171 0.0
C9 C 0.92745 0.29333 0.17982 0.0
C10 C 0.96777 0.22725 0.92557 0.0
O11 O 1.0328 0.21429 0.22781 0.0
O12 O 0.08229 0.2045 0.23592 0.0
O13 O 0.11717 0.25945 0.86553 0.0
O14 O 0.06987 0.27014 0.94173 0.0
C15 C 0.05711 0.20928 0.32116 0.0
O16 O 0.14453 0.20502 0.0311 0.0
O17 O 0.11939 0.17388 0.76503 0.0
O18 O 0.08 0.20234 0.60348 0.0
O19 O 1.03193 0.21397 0.60608 0.0
O20 O 0.9982 0.15777 0.8662 0.0
O21 O 1.04247 0.1458 -0.01762 0.0
C22 C 0.10406 0.28156 0.89223 0.0
O23 O 0.996 0.24453 0.81012 0.0
O24 O 0.96912 0.20173 0.02653 0.0
C25 C 0.1588 0.15895 0.93328 0.0
C26 C 0.1824 0.10712 0.94009 0.0
C27 C 0.20743 0.14435 0.90736 0.0
C28 C 0.19571 0.16995 0.90409 0.0
C29 C 0.13384 0.1221 -0.02631 0.0
C30 C 0.14558 0.0964 -0.02202 0.0
C31 C 0.14645 0.18513 0.88907 0.0
H32 H 0.87438 0.24443 0.145 0.0
H33 H 0.89836 0.20682 0.01493 0.0
H34 H 1.00829 0.29757 0.0674 0.0
H35 H 0.98453 0.33576 0.19687 0.0
H36 H 0.23602 0.1537 0.87983 0.0
H37 H 0.21529 0.19821 0.87044 0.0
H38 H 0.10512 0.113 -0.00567 0.0
H39 H 0.12556 0.068 0.0048 0.0
Tb40 Tb 0.87217 0.82531 0.91749 0.0
Eu41 Eu 0.88908 0.91385 0.91851 0.0
C42 C 0.87967 0.86775 0.51524 0.0
C43 C 0.95333 0.89374 0.93122 0.0
C44 C 0.83893 0.72569 0.02947 0.0
C45 C 0.83199 0.66748 0.13216 0.0
C46 C 0.85362 0.70277 0.05765 0.0
C47 C 0.80268 0.71352 0.08687 0.0
C48 C 0.78092 0.6781 0.16169 0.0
C49 C 0.79505 0.65427 0.17982 0.0
C50 C 0.86113 0.76067 0.92555 0.0
O51 O 0.87409 0.83865 0.22776 0.0
O52 O 0.8839 0.89794 0.23589 0.0
O53 O 0.82894 0.87787 0.86548 0.0
O54 O 0.81824 0.81988 0.94168 0.0
C55 C 0.87911 0.868 0.32113 0.0
O56 O 0.88336 0.95965 0.03107 0.0
O57 O 0.9145 0.96566 0.765 0.0
O58 O 0.88605 0.89782 0.60345 0.0
O59 O 0.8744 0.83811 0.60604 0.0
O60 O 0.93061 0.86058 0.86617 0.0
O61 O 0.94258 0.91682 -0.01764 0.0
C62 C 0.80682 0.84265 0.89218 0.0
O63 O 0.84385 0.77162 0.81009 0.0
O64 O 0.88666 0.78755 0.0265 0.0
C65 C 0.92943 1.02 0.93327 0.0
C66 C 0.98127 0.09543 0.9401 0.0
C67 C 0.94403 0.08324 0.90735 0.0
C68 C 0.91843 0.0459 0.90407 0.0
C69 C 0.96628 1.0319 -0.0263 0.0
C70 C 0.99198 0.06933 -0.022 0.0
C71 C 0.90325 0.98146 0.88904 0.0
H72 H 0.84395 0.6501 0.14504 0.0
H73 H 0.88156 0.71169 0.01494 0.0
H74 H 0.79081 0.73086 0.06736 0.0
H75 H 0.75263 0.66892 0.19685 0.0
H76 H 0.93468 0.10247 0.87981 0.0
H77 H 0.89017 0.03722 0.8704 0.0
H78 H 0.97538 1.01227 -0.00565 0.0
H79 H 1.02038 0.07771 0.00483 0.0
Tb80 Tb 0.26307 0.06701 0.91747 0.0
Eu81 Eu 0.17453 0.99538 0.91846 0.0
C82 C 0.22063 1.03207 0.51521 0.0
C83 C 0.19464 0.07974 0.93122 0.0
C84 C 0.36269 0.13339 0.02947 0.0
C85 C 0.42091 0.18467 0.13215 0.0
C86 C 0.38561 0.17101 0.05765 0.0
C87 C 0.37486 0.10931 0.08686 0.0
C88 C 0.41028 0.12297 0.16168 0.0
C89 C 0.43411 0.16093 0.17981 0.0
C90 C 0.32771 0.12061 0.92555 0.0
O91 O 0.24972 0.05558 0.22774 0.0
O92 O 0.19043 1.0061 0.23585 0.0
O93 O 0.21051 0.97122 0.86544 0.0
O94 O 0.2685 1.01851 0.94168 0.0
C95 C 0.22038 1.03125 0.3211 0.0
O96 O 0.12873 0.94385 0.03099 0.0
O97 O 0.12272 0.96899 0.76495 0.0
O98 O 0.19056 1.00839 0.60341 0.0
O99 O 0.25027 0.05644 0.60602 0.0
O100 O 0.2278 0.09018 0.86617 0.0
O101 O 0.17155 0.04591 -0.01767 0.0
C102 C 0.24573 0.98432 0.89216 0.0
O103 O 0.31676 0.09238 0.81007 0.0
O104 O 0.30083 0.11926 0.02651 0.0
C105 C 0.06838 0.92958 0.93321 0.0
C106 C 0.99295 0.90598 0.94007 0.0
C107 C 1.00514 0.88095 0.9073 0.0
C108 C 1.04247 0.89267 0.90401 0.0
C109 C 0.05648 0.95453 -0.02634 0.0
C110 C 1.01905 0.9428 -0.02202 0.0
C111 C 0.10691 0.94193 0.88898 0.0
H112 H 0.43828 0.214 0.14503 0.0
H113 H 0.37669 0.19002 0.01494 0.0
H114 H 0.35752 0.08009 0.06735 0.0
H115 H 0.41946 0.10385 0.19683 0.0
H116 H 0.9859 0.85236 0.87976 0.0
H117 H 0.05115 0.87309 0.87032 0.0
H118 H 0.07611 0.98326 -0.00568 0.0
H119 H 1.01068 0.96282 0.00482 0.0
Tb120 Tb 0.68804 0.54954 0.25084 0.0
Eu121 Eu 0.75967 0.53264 0.25186 0.0
C122 C 0.72299 0.54204 0.84859 0.0
C123 C 0.67531 0.46838 0.26456 0.0
C124 C 0.62165 0.58278 0.36281 0.0
C125 C 0.57038 0.58972 0.46544 0.0
C126 C 0.58404 0.56809 0.39095 0.0
C127 C 0.64573 0.61903 0.42022 0.0
C128 C 0.63207 0.64079 0.49503 0.0
C129 C 0.59411 0.62666 0.51313 0.0
C130 C 0.63444 0.56058 0.25889 0.0
O131 O 0.69947 0.54763 0.56112 0.0
O132 O 0.74895 0.53782 0.56923 0.0
O133 O 0.78383 0.59278 0.19887 0.0
O134 O 0.73654 0.60347 0.27504 0.0
C135 C 0.72378 0.54261 0.65448 0.0
O136 O 0.8112 0.53836 0.36442 0.0
O137 O 0.78606 0.50721 0.09834 0.0
O138 O 0.74666 0.53567 0.93679 0.0
O139 O 0.6986 0.54731 0.9394 0.0
O140 O 0.66487 0.49111 0.19951 0.0
O141 O 0.70914 0.47913 0.3157 0.0
C142 C 0.77073 0.61489 0.22561 0.0
O143 O 0.66267 0.57786 0.14343 0.0
O144 O 0.63579 0.53506 0.35985 0.0
C145 C 0.82547 0.49229 0.26661 0.0
C146 C 0.84907 0.44045 0.27344 0.0
C147 C 0.8741 0.47768 0.2407 0.0
C148 C 0.86237 0.50328 0.23742 0.0
C149 C 0.80051 0.45543 0.30702 0.0
C150 C 0.81224 0.42973 0.31132 0.0
C151 C 0.81311 0.51847 0.22239 0.0
H152 H 0.54104 0.57776 0.4783 0.0
H153 H 0.56503 0.54015 0.34822 0.0
H154 H 0.67495 0.63091 0.40073 0.0
H155 H 0.65119 0.66909 0.5302 0.0
H156 H 0.90269 0.48703 0.21318 0.0
H157 H 0.88195 0.53155 0.20376 0.0
H158 H 0.77178 0.44633 0.32765 0.0
H159 H 0.79223 0.40134 0.33814 0.0
Tb160 Tb 0.53884 0.15865 0.25083 0.0
Eu161 Eu 0.55575 0.24718 0.25186 0.0
C162 C 0.54634 0.20108 0.84859 0.0
C163 C 0.62 0.22707 0.26456 0.0
C164 C 0.5056 0.05903 0.36282 0.0
C165 C 0.49866 1.00081 0.46551 0.0
C166 C 0.52029 0.0361 0.391 0.0
C167 C 0.46935 0.04685 0.42022 0.0
C168 C 0.44759 1.01143 0.49504 0.0
C169 C 0.46172 0.9876 0.51317 0.0
C170 C 0.5278 0.09401 0.25889 0.0
O171 O 0.54075 0.17199 0.56111 0.0
O172 O 0.55057 0.23128 0.56924 0.0
O173 O 0.4956 0.2112 0.19886 0.0
O174 O 0.48491 0.15321 0.27502 0.0
C175 C 0.54577 0.20134 0.65448 0.0
O176 O 0.55003 0.29299 0.36442 0.0
O177 O 0.58116 0.29899 0.09833 0.0
O178 O 0.55272 0.23115 0.9368 0.0
O179 O 0.54107 0.17144 0.93939 0.0
O180 O 0.59727 0.19391 0.19952 0.0
O181 O 0.60925 0.25016 0.3157 0.0
C182 C 0.47349 0.17599 0.22559 0.0
O183 O 0.51052 0.10495 0.14343 0.0
O184 O 0.55332 0.12088 0.35985 0.0
C185 C 0.59609 0.35333 0.2666 0.0
C186 C 0.64793 0.42877 0.27342 0.0
C187 C 0.6107 0.41657 0.24067 0.0
C188 C 0.58509 0.37924 0.2374 0.0
C189 C 0.63295 0.36523 0.30703 0.0
C190 C 0.65865 0.40266 0.31132 0.0
C191 C 0.56991 0.3148 0.22239 0.0
H192 H 0.51062 0.98344 0.47839 0.0
H193 H 0.54823 0.04503 0.34828 0.0
H194 H 0.45748 0.0642 0.4007 0.0
H195 H 0.41929 1.00226 0.5302 0.0
H196 H 0.60135 0.43581 0.21313 0.0
H197 H 0.55683 0.37056 0.20373 0.0
H198 H 0.64205 0.3456 0.32768 0.0
H199 H 0.68704 0.41104 0.33815 0.0
Tb200 Tb 0.92973 0.40034 0.25084 0.0
Eu201 Eu 0.8412 0.32871 0.25184 0.0
C202 C 0.88729 0.36541 0.84858 0.0
C203 C 0.86131 0.41308 0.26458 0.0
C204 C 1.02935 0.46673 0.36285 0.0
C205 C 0.08757 0.518 0.46552 0.0
C206 C 0.05228 0.50434 0.39102 0.0
C207 C 1.04153 0.44265 0.42024 0.0
C208 C 0.07695 0.45631 0.49505 0.0
C209 C 0.10078 0.49427 0.51318 0.0
C210 C 0.99437 0.45394 0.25892 0.0
O211 O 0.91639 0.38891 0.56111 0.0
O212 O 0.8571 0.33944 0.56922 0.0
O213 O 0.87718 0.30455 0.19884 0.0
O214 O 0.93517 0.35185 0.27504 0.0
C215 C 0.88704 0.36458 0.65447 0.0
O216 O 0.79539 0.27718 0.36437 0.0
O217 O 0.78938 0.30232 0.0983 0.0
O218 O 0.85723 0.34172 0.93678 0.0
O219 O 0.91694 0.38978 0.93939 0.0
O220 O 0.89447 0.42351 0.19953 0.0
O221 O 0.83822 0.37924 0.31569 0.0
C222 C 0.91239 0.31765 0.22559 0.0
O223 O 0.98342 0.42572 0.14344 0.0
O224 O 0.9675 0.45259 0.35988 0.0
C225 C 0.73505 0.26291 0.26657 0.0
C226 C 0.65961 0.23931 0.27342 0.0
C227 C 0.67181 0.21428 0.24066 0.0
C228 C 0.70914 0.22601 0.23737 0.0
C229 C 0.72315 0.28787 0.30701 0.0
C230 C 0.68572 0.27614 0.31131 0.0
C231 C 0.77358 0.27526 0.22235 0.0
H232 H 0.10495 0.54734 0.4784 0.0
H233 H 1.04335 0.52336 0.34831 0.0
H234 H 1.02418 0.41343 0.40072 0.0
H235 H 0.08612 0.43719 0.53021 0.0
H236 H 0.65257 0.18569 0.21313 0.0
H237 H 0.71782 0.20642 0.2037 0.0
H238 H 0.74278 0.3166 0.32765 0.0
H239 H 0.67734 0.29615 0.33814 0.0
Tb240 Tb 0.35471 0.88287 0.58418 0.0
Eu241 Eu 0.42634 0.86597 0.58521 0.0
C242 C 0.38966 0.87537 0.18194 0.0
C243 C 0.34198 0.80172 0.5979 0.0
C244 C 0.28832 0.91611 0.69614 0.0
C245 C 0.23705 0.92306 0.79874 0.0
C246 C 0.25071 0.90143 0.72427 0.0
C247 C 0.3124 0.95237 0.75355 0.0
C248 C 0.29874 0.97413 0.82834 0.0
C249 C 0.26078 0.96 0.8464 0.0
C250 C 0.30111 0.89392 0.59223 0.0
O251 O 0.36614 0.88096 0.89447 0.0
O252 O 0.41563 0.87116 0.90258 0.0
O253 O 0.4505 0.92612 0.53222 0.0
O254 O 0.40321 0.93681 0.60838 0.0
C255 C 0.39045 0.87595 -0.01218 0.0
O256 O 0.47786 0.87169 0.69777 0.0
O257 O 0.45273 0.84055 0.43168 0.0
O258 O 0.41333 0.86901 0.27014 0.0
O259 O 0.36527 0.88064 0.27274 0.0
O260 O 0.33154 0.82444 0.53286 0.0
O261 O 0.37581 0.81247 0.64905 0.0
C262 C 0.4374 0.94823 0.55896 0.0
O263 O 0.32934 0.91119 0.47677 0.0
O264 O 0.30246 0.86839 0.6932 0.0
C265 C 0.49214 0.82562 0.59995 0.0
C266 C 0.51573 0.77378 0.60677 0.0
C267 C 0.54077 0.81101 0.57403 0.0
C268 C 0.52904 0.83662 0.57076 0.0
C269 C 0.46718 0.78876 0.64036 0.0
C270 C 0.47891 0.76306 0.64465 0.0
C271 C 0.47978 0.8518 0.55573 0.0
H272 H 0.20771 0.9111 0.81158 0.0
H273 H 0.2317 0.87349 0.68155 0.0
H274 H 0.34162 0.96424 0.73407 0.0
H275 H 0.31786 1.00242 0.86351 0.0
H276 H 0.56936 0.82036 0.54651 0.0
H277 H 0.54862 0.86488 0.5371 0.0
H278 H 0.43845 0.77966 0.66099 0.0
H279 H 0.45889 0.73467 0.67147 0.0
Tb280 Tb 0.20551 0.49198 0.5842 0.0
Eu281 Eu 0.22241 0.58052 0.58523 0.0
C282 C 0.21301 0.53442 0.18196 0.0
C283 C 0.28667 0.56041 0.59792 0.0
C284 C 0.17227 0.39236 0.69618 0.0
C285 C 0.16532 0.33414 0.79883 0.0
C286 C 0.18696 0.36943 0.72435 0.0
C287 C 0.13601 0.38019 0.75358 0.0
C288 C 0.11425 0.34476 0.82838 0.0
C289 C 0.12838 0.32093 0.84647 0.0
C290 C 0.19446 0.42734 0.59227 0.0
O291 O 0.20742 0.50532 0.89448 0.0
O292 O 0.21723 0.56461 0.90261 0.0
O293 O 0.16227 0.54454 0.53224 0.0
O294 O 0.15157 0.48655 0.60839 0.0
C295 C 0.21244 0.53467 -0.01215 0.0
O296 O 0.21669 0.62632 0.6978 0.0
O297 O 0.24783 0.63233 0.4317 0.0
O298 O 0.21938 0.56448 0.27017 0.0
O299 O 0.20774 0.50478 0.27276 0.0
O300 O 0.26394 0.52724 0.53288 0.0
O301 O 0.27592 0.58349 0.64907 0.0
C302 C 0.14015 0.50932 0.55897 0.0
O303 O 0.17718 0.43829 0.4768 0.0
O304 O 0.21999 0.45422 0.69323 0.0
C305 C 0.26276 0.68667 0.59997 0.0
C306 C 0.3146 0.7621 0.60678 0.0
C307 C 0.27737 0.74991 0.57404 0.0
C308 C 0.25176 0.71257 0.57077 0.0
C309 C 0.29962 0.69857 0.64038 0.0
C310 C 0.32532 0.736 0.64467 0.0
C311 C 0.23658 0.64813 0.55576 0.0
H312 H 0.17729 0.31677 0.81169 0.0
H313 H 0.2149 0.37836 0.68163 0.0
H314 H 0.12414 0.39753 0.73408 0.0
H315 H 0.08596 0.33559 0.86353 0.0
H316 H 0.26802 0.76914 0.5465 0.0
H317 H 0.2235 0.70389 0.53711 0.0
H318 H 0.30872 0.67894 0.66103 0.0
H319 H 0.35371 0.74438 0.67149 0.0
Tb320 Tb 0.5964 0.73368 0.58416 0.0
Eu321 Eu 0.50786 0.66205 0.58515 0.0
C322 C 0.55396 0.69874 0.1819 0.0
C323 C 0.52797 0.74641 0.59791 0.0
C324 C 0.69602 0.80006 0.69615 0.0
C325 C 0.75424 0.85133 0.79878 0.0
C326 C 0.71895 0.83767 0.7243 0.0
C327 C 0.70819 0.77598 0.75355 0.0
C328 C 0.74362 0.78964 0.82834 0.0
C329 C 0.76745 0.8276 0.84643 0.0
C330 C 0.66104 0.78727 0.59223 0.0
O331 O 0.58306 0.72224 0.89443 0.0
O332 O 0.52376 0.67277 0.90254 0.0
O333 O 0.54384 0.63788 0.53216 0.0
O334 O 0.60183 0.68518 0.60836 0.0
C335 C 0.55371 0.69791 -0.01221 0.0
O336 O 0.46206 0.61052 0.69769 0.0
O337 O 0.45605 0.63565 0.43163 0.0
O338 O 0.52389 0.67505 0.2701 0.0
O339 O 0.5836 0.72311 0.27271 0.0
O340 O 0.56113 0.75685 0.53284 0.0
O341 O 0.50489 0.71257 0.64902 0.0
C342 C 0.57906 0.65098 0.55891 0.0
O343 O 0.65009 0.75905 0.47676 0.0
O344 O 0.63416 0.78592 0.69321 0.0
C345 C 0.40171 0.59624 0.5999 0.0
C346 C 0.32628 0.57265 0.60677 0.0
C347 C 0.33847 0.54761 0.57401 0.0
C348 C 0.37581 0.55934 0.57071 0.0
C349 C 0.38982 0.6212 0.64035 0.0
C350 C 0.35238 0.60947 0.64466 0.0
C351 C 0.44025 0.6086 0.55567 0.0
H352 H 0.77162 0.88067 0.81164 0.0
H353 H 0.71002 0.85669 0.68159 0.0
H354 H 0.69085 0.74676 0.73405 0.0
H355 H 0.75279 0.77052 0.86349 0.0
H356 H 0.31923 0.51902 0.54648 0.0
H357 H 0.38448 0.53976 0.53703 0.0
H358 H 0.40945 0.64993 0.66099 0.0
H359 H 0.34401 0.62949 0.6715 0.0
loop_
_geom_bond_atom_site_label_1
_geom_bond_atom_site_label_2
_geom_bond_distance
_geom_bond_site_symmetry_2
_ccdc_geom_bond_type
Tb0 C10 2.825 1_556 S
Tb0 O11 2.347 1_556 S
Tb0 O14 2.366 1_655 S
Tb0 O19 2.418 . S
Tb0 O20 2.384 . S
Tb0 O23 2.479 . S
Tb0 O24 2.471 1_556 S
Eu1 O12 2.418 . S
Eu1 O13 2.384 . S
Eu1 O16 2.479 . S
Eu1 O17 2.471 1_554 S
Eu1 O18 2.347 1_554 S
Eu1 O21 2.366 . S
Eu1 C31 2.825 1_554 S
C2 O18 1.259 1_655 S
C2 O19 1.265 . S
C3 O20 1.255 1_554 S
C3 O21 1.265 1_655 S
C4 C6 1.380 1_554 S
C4 C7 1.374 . S
C4 C10 1.507 . S
C5 C6 1.384 . S
C5 C9 1.387 1_556 S
C5 H32 0.930 . S
C6 C4 1.380 1_556 S
C6 C5 1.384 . S
C6 H33 0.931 . S
C7 C4 1.374 . S
C7 C8 1.390 . S
C7 H34 0.930 . S
C8 C7 1.390 . S
C8 C9 1.391 . S
C8 H35 0.930 . S
C9 C5 1.387 1_554 S
C9 C8 1.391 . S
C10 Tb0 2.825 1_554 S
C10 C4 1.507 . S
C10 O23 1.238 1_554 S
C10 O24 1.247 . S
O11 Tb0 2.347 1_554 S
O11 C15 1.259 1_655 S
O12 Eu1 2.418 . S
O12 C15 1.265 . S
O13 Eu1 2.384 . S
O13 C22 1.255 1_554 S
O14 Tb0 2.366 1_455 S
O14 C22 1.265 . S
C15 O11 1.259 1_455 S
C15 O12 1.265 . S
O16 Eu1 2.479 . S
O16 C31 1.238 1_554 S
O17 Eu1 2.471 1_556 S
O17 C31 1.247 . S
O18 Eu1 2.347 1_556 S
O18 C2 1.259 1_455 S
O19 Tb0 2.418 . S
O19 C2 1.265 . S
O20 Tb0 2.384 . S
O20 C3 1.255 1_556 S
O21 Eu1 2.366 . S
O21 C3 1.265 1_455 S
C22 O13 1.255 1_556 S
C22 O14 1.265 . S
O23 Tb0 2.479 . S
O23 C10 1.238 1_556 S
O24 Tb0 2.471 1_554 S
O24 C10 1.247 . S
C25 C28 1.380 1_556 S
C25 C29 1.374 . S
C25 C31 1.507 . S
C26 C27 1.387 1_556 S
C26 C30 1.391 . S
C27 C26 1.387 1_554 S
C27 C28 1.384 . S
C27 H36 0.930 . S
C28 C25 1.380 1_554 S
C28 C27 1.384 . S
C28 H37 0.931 . S
C29 C25 1.374 . S
C29 C30 1.390 . S
C29 H38 0.930 . S
C30 C26 1.391 . S
C30 C29 1.390 . S
C30 H39 0.930 . S
C31 Eu1 2.825 1_556 S
C31 O16 1.238 1_556 S
C31 O17 1.247 . S
C31 C25 1.507 . S
H32 C5 0.930 . S
H33 C6 0.931 . S
H34 C7 0.930 . S
H35 C8 0.930 . S
H36 C27 0.930 . S
H37 C28 0.931 . S
H38 C29 0.930 . S
H39 C30 0.930 . S
Tb40 C50 2.825 1_556 S
Tb40 O51 2.347 1_556 S
Tb40 O54 2.366 . S
Tb40 O59 2.418 . S
Tb40 O60 2.384 . S
Tb40 O63 2.479 . S
Tb40 O64 2.471 1_556 S
Eu41 O52 2.418 . S
Eu41 O53 2.384 . S
Eu41 O56 2.479 . S
Eu41 O57 2.471 1_554 S
Eu41 O58 2.347 1_554 S
Eu41 O61 2.366 . S
Eu41 C71 2.825 1_554 S
C42 O58 1.259 . S
C42 O59 1.265 . S
C43 O60 1.255 1_554 S
C43 O61 1.265 . S
C44 C46 1.380 1_554 S
C44 C47 1.374 . S
C44 C50 1.507 . S
C45 C46 1.384 . S
C45 C49 1.387 1_556 S
C45 H72 0.930 . S
C46 C44 1.380 1_556 S
C46 C45 1.384 . S
C46 H73 0.931 . S
C47 C44 1.374 . S
C47 C48 1.390 . S
C47 H74 0.930 . S
C48 C47 1.390 . S
C48 C49 1.391 . S
C48 H75 0.930 . S
C49 C45 1.387 1_554 S
C49 C48 1.391 . S
C50 Tb40 2.825 1_554 S
C50 C44 1.507 . S
C50 O63 1.238 1_554 S
C50 O64 1.247 . S
O51 Tb40 2.347 1_554 S
O51 C55 1.259 . S
O52 Eu41 2.418 . S
O52 C55 1.265 . S
O53 Eu41 2.384 . S
O53 C62 1.255 1_554 S
O54 Tb40 2.366 . S
O54 C62 1.265 . S
C55 O51 1.259 . S
C55 O52 1.265 . S
O56 Eu41 2.479 . S
O56 C71 1.238 1_554 S
O57 Eu41 2.471 1_556 S
O57 C71 1.247 . S
O58 Eu41 2.347 1_556 S
O58 C42 1.259 . S
O59 Tb40 2.418 . S
O59 C42 1.265 . S
O60 Tb40 2.384 . S
O60 C43 1.255 1_556 S
O61 Eu41 2.366 . S
O61 C43 1.265 . S
C62 O53 1.255 1_556 S
C62 O54 1.265 . S
O63 Tb40 2.479 . S
O63 C50 1.238 1_556 S
O64 Tb40 2.471 1_554 S
O64 C50 1.247 . S
C65 C68 1.380 1_566 S
C65 C69 1.374 . S
C65 C71 1.507 . S
C66 C67 1.387 1_556 S
C66 C70 1.391 . S
C67 C66 1.387 1_554 S
C67 C68 1.384 . S
C67 H76 0.930 . S
C68 C65 1.380 1_544 S
C68 C67 1.384 . S
C68 H77 0.931 . S
C69 C65 1.374 . S
C69 C70 1.390 1_565 S
C69 H78 0.930 . S
C70 C66 1.391 . S
C70 C69 1.390 1_545 S
C70 H79 0.930 . S
C71 Eu41 2.825 1_556 S
C71 O56 1.238 1_556 S
C71 O57 1.247 . S
C71 C65 1.507 . S
H72 C45 0.930 . S
H73 C46 0.931 . S
H74 C47 0.930 . S
H75 C48 0.930 . S
H76 C67 0.930 . S
H77 C68 0.931 . S
H78 C69 0.930 . S
H79 C70 0.930 . S
Tb80 C90 2.825 1_556 S
Tb80 O91 2.347 1_556 S
Tb80 O94 2.366 . S
Tb80 O99 2.418 . S
Tb80 O100 2.384 . S
Tb80 O103 2.479 . S
Tb80 O104 2.471 1_556 S
Eu81 O92 2.418 . S
Eu81 O93 2.384 . S
Eu81 O96 2.479 . S
Eu81 O97 2.471 1_554 S
Eu81 O98 2.347 1_554 S
Eu81 O101 2.366 1_565 S
Eu81 C111 2.825 1_554 S
C82 O98 1.259 1_545 S
C82 O99 1.265 . S
C83 O100 1.255 1_554 S
C83 O101 1.265 . S
C84 C86 1.380 1_554 S
C84 C87 1.374 . S
C84 C90 1.507 . S
C85 C86 1.384 . S
C85 C89 1.387 1_556 S
C85 H112 0.930 . S
C86 C84 1.380 1_556 S
C86 C85 1.384 . S
C86 H113 0.931 . S
C87 C84 1.374 . S
C87 C88 1.390 . S
C87 H114 0.930 . S
C88 C87 1.390 . S
C88 C89 1.391 . S
C88 H115 0.930 . S
C89 C85 1.387 1_554 S
C89 C88 1.391 . S
C90 Tb80 2.825 1_554 S
C90 C84 1.507 . S
C90 O103 1.238 1_554 S
C90 O104 1.247 . S
O91 Tb80 2.347 1_554 S
O91 C95 1.259 1_545 S
O92 Eu81 2.418 . S
O92 C95 1.265 . S
O93 Eu81 2.384 . S
O93 C102 1.255 1_554 S
O94 Tb80 2.366 . S
O94 C102 1.265 1_545 S
C95 O91 1.259 1_565 S
C95 O92 1.265 . S
O96 Eu81 2.479 . S
O96 C111 1.238 1_554 S
O97 Eu81 2.471 1_556 S
O97 C111 1.247 . S
O98 Eu81 2.347 1_556 S
O98 C82 1.259 1_565 S
O99 Tb80 2.418 . S
O99 C82 1.265 . S
O100 Tb80 2.384 . S
O100 C83 1.255 1_556 S
O101 Eu81 2.366 1_545 S
O101 C83 1.265 . S
C102 O93 1.255 1_556 S
C102 O94 1.265 1_565 S
O103 Tb80 2.479 . S
O103 C90 1.238 1_556 S
O104 Tb80 2.471 1_554 S
O104 C90 1.247 . S
C105 C108 1.380 1_456 S
C105 C109 1.374 . S
C105 C111 1.507 . S
C106 C107 1.387 1_556 S
C106 C110 1.391 . S
C107 C106 1.387 1_554 S
C107 C108 1.384 . S
C107 H116 0.930 . S
C108 C105 1.380 1_654 S
C108 C107 1.384 . S
C108 H117 0.931 1_655 S
C109 C105 1.374 . S
C109 C110 1.390 1_455 S
C109 H118 0.930 . S
C110 C106 1.391 . S
C110 C109 1.390 1_655 S
C110 H119 0.930 . S
C111 Eu81 2.825 1_556 S
C111 O96 1.238 1_556 S
C111 O97 1.247 . S
C111 C105 1.507 . S
H112 C85 0.930 . S
H113 C86 0.931 . S
H114 C87 0.930 . S
H115 C88 0.930 . S
H116 C107 0.930 . S
H117 C108 0.931 1_455 S
H118 C109 0.930 . S
H119 C110 0.930 . S
Tb120 C130 2.825 . S
Tb120 O131 2.347 . S
Tb120 O134 2.366 . S
Tb120 O139 2.418 1_554 S
Tb120 O140 2.384 . S
Tb120 O143 2.479 . S
Tb120 O144 2.471 . S
Eu121 O132 2.418 . S
Eu121 O133 2.384 . S
Eu121 O136 2.479 . S
Eu121 O137 2.471 . S
Eu121 O138 2.347 . S
Eu121 O141 2.366 . S
Eu121 C151 2.825 . S
C122 O138 1.259 1_556 S
C122 O139 1.265 . S
C123 O140 1.255 . S
C123 O141 1.265 . S
C124 C126 1.380 . S
C124 C127 1.374 . S
C124 C130 1.507 . S
C125 C126 1.384 . S
C125 C129 1.387 . S
C125 H152 0.930 . S
C126 C124 1.380 . S
C126 C125 1.384 . S
C126 H153 0.931 . S
C127 C124 1.374 . S
C127 C128 1.390 . S
C127 H154 0.930 . S
C128 C127 1.390 . S
C128 C129 1.391 . S
C128 H155 0.930 . S
C129 C125 1.387 . S
C129 C128 1.391 . S
C130 Tb120 2.825 . S
C130 C124 1.507 . S
C130 O143 1.238 . S
C130 O144 1.247 . S
O131 Tb120 2.347 . S
O131 C135 1.259 . S
O132 Eu121 2.418 . S
O132 C135 1.265 . S
O133 Eu121 2.384 . S
O133 C142 1.255 . S
O134 Tb120 2.366 . S
O134 C142 1.265 . S
C135 O131 1.259 . S
C135 O132 1.265 . S
O136 Eu121 2.479 . S
O136 C151 1.238 . S
O137 Eu121 2.471 . S
O137 C151 1.247 . S
O138 Eu121 2.347 . S
O138 C122 1.259 1_554 S
O139 Tb120 2.418 1_556 S
O139 C122 1.265 . S
O140 Tb120 2.384 . S
O140 C123 1.255 . S
O141 Eu121 2.366 . S
O141 C123 1.265 . S
C142 O133 1.255 . S
C142 O134 1.265 . S
O143 Tb120 2.479 . S
O143 C130 1.238 . S
O144 Tb120 2.471 . S
O144 C130 1.247 . S
C145 C148 1.380 . S
C145 C149 1.374 . S
C145 C151 1.507 . S
C146 C147 1.387 . S
C146 C150 1.391 . S
C147 C146 1.387 . S
C147 C148 1.384 . S
C147 H156 0.930 . S
C148 C145 1.380 . S
C148 C147 1.384 . S
C148 H157 0.931 . S
C149 C145 1.374 . S
C149 C150 1.390 . S
C149 H158 0.930 1_554 S
C150 C146 1.391 . S
C150 C149 1.390 . S
C150 H159 0.930 1_554 S
C151 Eu121 2.825 . S
C151 O136 1.238 . S
C151 O137 1.247 . S
C151 C145 1.507 . S
H152 C125 0.930 . S
H153 C126 0.931 . S
H154 C127 0.930 . S
H155 C128 0.930 . S
H156 C147 0.930 . S
H157 C148 0.931 . S
H158 C149 0.930 1_556 S
H159 C150 0.930 1_556 S
Tb160 C170 2.825 . S
Tb160 O171 2.347 . S
Tb160 O174 2.366 . S
Tb160 O179 2.418 1_554 S
Tb160 O180 2.384 . S
Tb160 O183 2.479 . S
Tb160 O184 2.471 . S
Eu161 O172 2.418 . S
Eu161 O173 2.384 . S
Eu161 O176 2.479 . S
Eu161 O177 2.471 . S
Eu161 O178 2.347 . S
Eu161 O181 2.366 . S
Eu161 C191 2.825 . S
C162 O178 1.259 1_556 S
C162 O179 1.265 . S
C163 O180 1.255 . S
C163 O181 1.265 . S
C164 C166 1.380 1_545 S
C164 C167 1.374 . S
C164 C170 1.507 . S
C165 C166 1.384 . S
C165 C169 1.387 . S
C165 H192 0.930 . S
C166 C164 1.380 1_565 S
C166 C165 1.384 . S
C166 H193 0.931 1_565 S
C167 C164 1.374 . S
C167 C168 1.390 1_545 S
C167 H194 0.930 . S
C168 C167 1.390 1_565 S
C168 C169 1.391 . S
C168 H195 0.930 . S
C169 C165 1.387 . S
C169 C168 1.391 . S
C170 Tb160 2.825 . S
C170 C164 1.507 . S
C170 O183 1.238 . S
C170 O184 1.247 . S
O171 Tb160 2.347 . S
O171 C175 1.259 . S
O172 Eu161 2.418 . S
O172 C175 1.265 . S
O173 Eu161 2.384 . S
O173 C182 1.255 . S
O174 Tb160 2.366 . S
O174 C182 1.265 . S
C175 O171 1.259 . S
C175 O172 1.265 . S
O176 Eu161 2.479 . S
O176 C191 1.238 . S
O177 Eu161 2.471 . S
O177 C191 1.247 . S
O178 Eu161 2.347 . S
O178 C162 1.259 1_554 S
O179 Tb160 2.418 1_556 S
O179 C162 1.265 . S
O180 Tb160 2.384 . S
O180 C163 1.255 . S
O181 Eu161 2.366 . S
O181 C163 1.265 . S
C182 O173 1.255 . S
C182 O174 1.265 . S
O183 Tb160 2.479 . S
O183 C170 1.238 . S
O184 Tb160 2.471 . S
O184 C170 1.247 . S
C185 C188 1.380 . S
C185 C189 1.374 . S
C185 C191 1.507 . S
C186 C187 1.387 . S
C186 C190 1.391 . S
C187 C186 1.387 . S
C187 C188 1.384 . S
C187 H196 0.930 . S
C188 C185 1.380 . S
C188 C187 1.384 . S
C188 H197 0.931 . S
C189 C185 1.374 . S
C189 C190 1.390 . S
C189 H198 0.930 1_554 S
C190 C186 1.391 . S
C190 C189 1.390 . S
C190 H199 0.930 1_554 S
C191 Eu161 2.825 . S
C191 O176 1.238 . S
C191 O177 1.247 . S
C191 C185 1.507 . S
H192 C165 0.930 . S
H193 C166 0.931 1_545 S
H194 C167 0.930 . S
H195 C168 0.930 . S
H196 C187 0.930 . S
H197 C188 0.931 . S
H198 C189 0.930 1_556 S
H199 C190 0.930 1_556 S
Tb200 C210 2.825 . S
Tb200 O211 2.347 . S
Tb200 O214 2.366 . S
Tb200 O219 2.418 1_554 S
Tb200 O220 2.384 . S
Tb200 O223 2.479 . S
Tb200 O224 2.471 . S
Eu201 O212 2.418 . S
Eu201 O213 2.384 . S
Eu201 O216 2.479 . S
Eu201 O217 2.471 . S
Eu201 O218 2.347 . S
Eu201 O221 2.366 . S
Eu201 C231 2.825 . S
C202 O218 1.259 1_556 S
C202 O219 1.265 . S
C203 O220 1.255 . S
C203 O221 1.265 . S
C204 C206 1.380 1_655 S
C204 C207 1.374 . S
C204 C210 1.507 . S
C205 C206 1.384 . S
C205 C209 1.387 . S
C205 H232 0.930 . S
C206 C204 1.380 1_455 S
C206 C205 1.384 . S
C206 H233 0.931 . S
C207 C204 1.374 . S
C207 C208 1.390 1_655 S
C207 H234 0.930 . S
C208 C207 1.390 1_455 S
C208 C209 1.391 . S
C208 H235 0.930 . S
C209 C205 1.387 . S
C209 C208 1.391 . S
C210 Tb200 2.825 . S
C210 C204 1.507 . S
C210 O223 1.238 . S
C210 O224 1.247 . S
O211 Tb200 2.347 . S
O211 C215 1.259 . S
O212 Eu201 2.418 . S
O212 C215 1.265 . S
O213 Eu201 2.384 . S
O213 C222 1.255 . S
O214 Tb200 2.366 . S
O214 C222 1.265 . S
C215 O211 1.259 . S
C215 O212 1.265 . S
O216 Eu201 2.479 . S
O216 C231 1.238 . S
O217 Eu201 2.471 . S
O217 C231 1.247 . S
O218 Eu201 2.347 . S
O218 C202 1.259 1_554 S
O219 Tb200 2.418 1_556 S
O219 C202 1.265 . S
O220 Tb200 2.384 . S
O220 C203 1.255 . S
O221 Eu201 2.366 . S
O221 C203 1.265 . S
C222 O213 1.255 . S
C222 O214 1.265 . S
O223 Tb200 2.479 . S
O223 C210 1.238 . S
O224 Tb200 2.471 . S
O224 C210 1.247 . S
C225 C228 1.380 . S
C225 C229 1.374 . S
C225 C231 1.507 . S
C226 C227 1.387 . S
C226 C230 1.391 . S
C227 C226 1.387 . S
C227 C228 1.384 . S
C227 H236 0.930 . S
C228 C225 1.380 . S
C228 C227 1.384 . S
C228 H237 0.931 . S
C229 C225 1.374 . S
C229 C230 1.390 . S
C229 H238 0.930 1_554 S
C230 C226 1.391 . S
C230 C229 1.390 . S
C230 H239 0.930 1_554 S
C231 Eu201 2.825 . S
C231 O216 1.238 . S
C231 O217 1.247 . S
C231 C225 1.507 . S
H232 C205 0.930 . S
H233 C206 0.931 . S
H234 C207 0.930 . S
H235 C208 0.930 . S
H236 C227 0.930 . S
H237 C228 0.931 . S
H238 C229 0.930 1_556 S
H239 C230 0.930 1_556 S
Tb240 C250 2.825 . S
Tb240 O251 2.347 . S
Tb240 O254 2.366 . S
Tb240 O259 2.418 . S
Tb240 O260 2.384 . S
Tb240 O263 2.479 . S
Tb240 O264 2.471 . S
Eu241 O252 2.418 1_556 S
Eu241 O253 2.384 . S
Eu241 O256 2.479 . S
Eu241 O257 2.471 . S
Eu241 O258 2.347 . S
Eu241 O261 2.366 . S
Eu241 C271 2.825 . S
C242 O258 1.259 . S
C242 O259 1.265 . S
C243 O260 1.255 . S
C243 O261 1.265 . S
C244 C246 1.380 . S
C244 C247 1.374 . S
C244 C250 1.507 . S
C245 C246 1.384 . S
C245 C249 1.387 . S
C245 H272 0.930 . S
C246 C244 1.380 . S
C246 C245 1.384 . S
C246 H273 0.931 . S
C247 C244 1.374 . S
C247 C248 1.390 . S
C247 H274 0.930 1_556 S
C248 C247 1.390 . S
C248 C249 1.391 . S
C248 H275 0.930 1_556 S
C249 C245 1.387 . S
C249 C248 1.391 . S
C250 Tb240 2.825 . S
C250 C244 1.507 . S
C250 O263 1.238 . S
C250 O264 1.247 . S
O251 Tb240 2.347 . S
O251 C255 1.259 1_556 S
O252 Eu241 2.418 1_554 S
O252 C255 1.265 . S
O253 Eu241 2.384 . S
O253 C262 1.255 . S
O254 Tb240 2.366 . S
O254 C262 1.265 . S
C255 O251 1.259 1_554 S
C255 O252 1.265 . S
O256 Eu241 2.479 . S
O256 C271 1.238 . S
O257 Eu241 2.471 . S
O257 C271 1.247 . S
O258 Eu241 2.347 . S
O258 C242 1.259 . S
O259 Tb240 2.418 . S
O259 C242 1.265 . S
O260 Tb240 2.384 . S
O260 C243 1.255 . S
O261 Eu241 2.366 . S
O261 C243 1.265 . S
C262 O253 1.255 . S
C262 O254 1.265 . S
O263 Tb240 2.479 . S
O263 C250 1.238 . S
O264 Tb240 2.471 . S
O264 C250 1.247 . S
C265 C268 1.380 . S
C265 C269 1.374 . S
C265 C271 1.507 . S
C266 C267 1.387 . S
C266 C270 1.391 . S
C267 C266 1.387 . S
C267 C268 1.384 . S
C267 H276 0.930 . S
C268 C265 1.380 . S
C268 C267 1.384 . S
C268 H277 0.931 . S
C269 C265 1.374 . S
C269 C270 1.390 . S
C269 H278 0.930 . S
C270 C266 1.391 . S
C270 C269 1.390 . S
C270 H279 0.930 . S
C271 Eu241 2.825 . S
C271 O256 1.238 . S
C271 O257 1.247 . S
C271 C265 1.507 . S
H272 C245 0.930 . S
H273 C246 0.931 . S
H274 C247 0.930 1_554 S
H275 C248 0.930 1_554 S
H276 C267 0.930 . S
H277 C268 0.931 . S
H278 C269 0.930 . S
H279 C270 0.930 . S
Tb280 C290 2.825 . S
Tb280 O291 2.347 . S
Tb280 O294 2.366 . S
Tb280 O299 2.418 . S
Tb280 O300 2.384 . S
Tb280 O303 2.479 . S
Tb280 O304 2.471 . S
Eu281 O292 2.418 1_556 S
Eu281 O293 2.384 . S
Eu281 O296 2.479 . S
Eu281 O297 2.471 . S
Eu281 O298 2.347 . S
Eu281 O301 2.366 . S
Eu281 C311 2.825 . S
C282 O298 1.259 . S
C282 O299 1.265 . S
C283 O300 1.255 . S
C283 O301 1.265 . S
C284 C286 1.380 . S
C284 C287 1.374 . S
C284 C290 1.507 . S
C285 C286 1.384 . S
C285 C289 1.387 . S
C285 H312 0.930 . S
C286 C284 1.380 . S
C286 C285 1.384 . S
C286 H313 0.931 . S
C287 C284 1.374 . S
C287 C288 1.390 . S
C287 H314 0.930 1_556 S
C288 C287 1.390 . S
C288 C289 1.391 . S
C288 H315 0.930 1_556 S
C289 C285 1.387 . S
C289 C288 1.391 . S
C290 Tb280 2.825 . S
C290 C284 1.507 . S
C290 O303 1.238 . S
C290 O304 1.247 . S
O291 Tb280 2.347 . S
O291 C295 1.259 1_556 S
O292 Eu281 2.418 1_554 S
O292 C295 1.265 . S
O293 Eu281 2.384 . S
O293 C302 1.255 . S
O294 Tb280 2.366 . S
O294 C302 1.265 . S
C295 O291 1.259 1_554 S
C295 O292 1.265 . S
O296 Eu281 2.479 . S
O296 C311 1.238 . S
O297 Eu281 2.471 . S
O297 C311 1.247 . S
O298 Eu281 2.347 . S
O298 C282 1.259 . S
O299 Tb280 2.418 . S
O299 C282 1.265 . S
O300 Tb280 2.384 . S
O300 C283 1.255 . S
O301 Eu281 2.366 . S
O301 C283 1.265 . S
C302 O293 1.255 . S
C302 O294 1.265 . S
O303 Tb280 2.479 . S
O303 C290 1.238 . S
O304 Tb280 2.471 . S
O304 C290 1.247 . S
C305 C308 1.380 . S
C305 C309 1.374 . S
C305 C311 1.507 . S
C306 C307 1.387 . S
C306 C310 1.391 . S
C307 C306 1.387 . S
C307 C308 1.384 . S
C307 H316 0.930 . S
C308 C305 1.380 . S
C308 C307 1.384 . S
C308 H317 0.931 . S
C309 C305 1.374 . S
C309 C310 1.390 . S
C309 H318 0.930 . S
C310 C306 1.391 . S
C310 C309 1.390 . S
C310 H319 0.930 . S
C311 Eu281 2.825 . S
C311 O296 1.238 . S
C311 O297 1.247 . S
C311 C305 1.507 . S
H312 C285 0.930 . S
H313 C286 0.931 . S
H314 C287 0.930 1_554 S
H315 C288 0.930 1_554 S
H316 C307 0.930 . S
H317 C308 0.931 . S
H318 C309 0.930 . S
H319 C310 0.930 . S
Tb320 C330 2.825 . S
Tb320 O331 2.347 . S
Tb320 O334 2.366 . S
Tb320 O339 2.418 . S
Tb320 O340 2.384 . S
Tb320 O343 2.479 . S
Tb320 O344 2.471 . S
Eu321 O332 2.418 1_556 S
Eu321 O333 2.384 . S
Eu321 O336 2.479 . S
Eu321 O337 2.471 . S
Eu321 O338 2.347 . S
Eu321 O341 2.366 . S
Eu321 C351 2.825 . S
C322 O338 1.259 . S
C322 O339 1.265 . S
C323 O340 1.255 . S
C323 O341 1.265 . S
C324 C326 1.380 . S
C324 C327 1.374 . S
C324 C330 1.507 . S
C325 C326 1.384 . S
C325 C329 1.387 . S
C325 H352 0.930 . S
C326 C324 1.380 . S
C326 C325 1.384 . S
C326 H353 0.931 . S
C327 C324 1.374 . S
C327 C328 1.390 . S
C327 H354 0.930 1_556 S
C328 C327 1.390 . S
C328 C329 1.391 . S
C328 H355 0.930 1_556 S
C329 C325 1.387 . S
C329 C328 1.391 . S
C330 Tb320 2.825 . S
C330 C324 1.507 . S
C330 O343 1.238 . S
C330 O344 1.247 . S
O331 Tb320 2.347 . S
O331 C335 1.259 1_556 S
O332 Eu321 2.418 1_554 S
O332 C335 1.265 . S
O333 Eu321 2.384 . S
O333 C342 1.255 . S
O334 Tb320 2.366 . S
O334 C342 1.265 . S
C335 O331 1.259 1_554 S
C335 O332 1.265 . S
O336 Eu321 2.479 . S
O336 C351 1.238 . S
O337 Eu321 2.471 . S
O337 C351 1.247 . S
O338 Eu321 2.347 . S
O338 C322 1.259 . S
O339 Tb320 2.418 . S
O339 C322 1.265 . S
O340 Tb320 2.384 . S
O340 C323 1.255 . S
O341 Eu321 2.366 . S
O341 C323 1.265 . S
C342 O333 1.255 . S
C342 O334 1.265 . S
O343 Tb320 2.479 . S
O343 C330 1.238 . S
O344 Tb320 2.471 . S
O344 C330 1.247 . S
C345 C348 1.380 . S
C345 C349 1.374 . S
C345 C351 1.507 . S
C346 C347 1.387 . S
C346 C350 1.391 . S
C347 C346 1.387 . S
C347 C348 1.384 . S
C347 H356 0.930 . S
C348 C345 1.380 . S
C348 C347 1.384 . S
C348 H357 0.931 . S
C349 C345 1.374 . S
C349 C350 1.390 . S
C349 H358 0.930 . S
C350 C346 1.391 . S
C350 C349 1.390 . S
C350 H359 0.930 . S
C351 Eu321 2.825 . S
C351 O336 1.238 . S
C351 O337 1.247 . S
C351 C345 1.507 . S
H352 C325 0.930 . S
H353 C326 0.931 . S
H354 C327 0.930 1_554 S
H355 C328 0.930 1_554 S
H356 C347 0.930 . S
H357 C348 0.931 . S
H358 C349 0.930 . S
H359 C350 0.930 . S
C22 C289 1.947 . S
C62 C329 1.946 . S
C102 C249 1.948 . S
C182 C89 1.946 . S
C222 C9 1.947 . S
C49 C142 1.946 . S
C302 C209 1.946 . S
C342 C129 1.948 . S
C169 C262 1.946 . S
C83 C26 1.978 1_554 S
C66 C3 1.979 1_556 S
C43 C106 1.978 1_554 S
C146 C203 1.980 . S
C123 C186 1.978 . S
C163 C226 1.978 . S
C323 C266 1.980 . S
C306 C243 1.978 . S
C346 C283 1.978 . S
C2 C15 1.171 1_655 S
C42 C55 1.171 . S
C82 C95 1.171 1_545 S
C135 C122 1.171 . S
C175 C162 1.171 . S
C215 C202 1.171 . S
C242 C255 1.171 . S
C295 C282 1.171 . S
C322 C335 1.171 . S
