# Generated by pormake.
# Topology ukb, (4)-cn, num edge types: 1
# Building blocks:
#     Node 0, Type 0, BuildingBlock: QUQFOY_clean_sbu_1, # of connection points: 4
#     Node 1, Type 0, BuildingBlock: QUQFOY_clean_sbu_1, # of connection points: 4
#     Node 2, Type 0, BuildingBlock: QUQFOY_clean_sbu_1, # of connection points: 4
#     Node 3, Type 0, BuildingBlock: QUQFOY_clean_sbu_1, # of connection points: 4
#     Node 4, Type 0, BuildingBlock: QUQFOY_clean_sbu_1, # of connection points: 4
#     Node 5, Type 0, BuildingBlock: QUQFOY_clean_sbu_1, # of connection points: 4
#     Node 6, Type 0, BuildingBlock: QUQFOY_clean_sbu_1, # of connection points: 4
#     Node 7, Type 0, BuildingBlock: QUQFOY_clean_sbu_1, # of connection points: 4
#     Node 8, Type 0, BuildingBlock: QUQFOY_clean_sbu_1, # of connection points: 4
#     Node 9, Type 0, BuildingBlock: QUQFOY_clean_sbu_1, # of connection points: 4
#     Node 10, Type 0, BuildingBlock: QUQFOY_clean_sbu_1, # of connection points: 4
#     Node 11, Type 0, BuildingBlock: QUQFOY_clean_sbu_1, # of connection points: 4
#     Node 12, Type 0, BuildingBlock: QUQFOY_clean_sbu_1, # of connection points: 4
#     Node 13, Type 0, BuildingBlock: QUQFOY_clean_sbu_1, # of connection points: 4
#     Node 14, Type 0, BuildingBlock: QUQFOY_clean_sbu_1, # of connection points: 4
#     Node 15, Type 0, BuildingBlock: QUQFOY_clean_sbu_1, # of connection points: 4
#     Edge 16, Type (0, 0), BuildingBlock: XUDNAN_clean_linker_2, # of connection points: 2
#     Edge 17, Type (0, 0), BuildingBlock: XUDNAN_clean_linker_2, # of connection points: 2
#     Edge 18, Type (0, 0), BuildingBlock: XUDNAN_clean_linker_2, # of connection points: 2
#     Edge 19, Type (0, 0), BuildingBlock: XUDNAN_clean_linker_2, # of connection points: 2
#     Edge 20, Type (0, 0), BuildingBlock: XUDNAN_clean_linker_2, # of connection points: 2
#     Edge 21, Type (0, 0), BuildingBlock: XUDNAN_clean_linker_2, # of connection points: 2
#     Edge 22, Type (0, 0), BuildingBlock: XUDNAN_clean_linker_2, # of connection points: 2
#     Edge 23, Type (0, 0), BuildingBlock: XUDNAN_clean_linker_2, # of connection points: 2
#     Edge 24, Type (0, 0), BuildingBlock: XUDNAN_clean_linker_2, # of connection points: 2
#     Edge 25, Type (0, 0), BuildingBlock: XUDNAN_clean_linker_2, # of connection points: 2
#     Edge 26, Type (0, 0), BuildingBlock: XUDNAN_clean_linker_2, # of connection points: 2
#     Edge 27, Type (0, 0), BuildingBlock: XUDNAN_clean_linker_2, # of connection points: 2
#     Edge 28, Type (0, 0), BuildingBlock: XUDNAN_clean_linker_2, # of connection points: 2
#     Edge 29, Type (0, 0), BuildingBlock: XUDNAN_clean_linker_2, # of connection points: 2
#     Edge 30, Type (0, 0), BuildingBlock: XUDNAN_clean_linker_2, # of connection points: 2
#     Edge 31, Type (0, 0), BuildingBlock: XUDNAN_clean_linker_2, # of connection points: 2
#     Edge 32, Type (0, 0), BuildingBlock: XUDNAN_clean_linker_2, # of connection points: 2
#     Edge 33, Type (0, 0), BuildingBlock: XUDNAN_clean_linker_2, # of connection points: 2
#     Edge 34, Type (0, 0), BuildingBlock: XUDNAN_clean_linker_2, # of connection points: 2
#     Edge 35, Type (0, 0), BuildingBlock: XUDNAN_clean_linker_2, # of connection points: 2
#     Edge 36, Type (0, 0), BuildingBlock: XUDNAN_clean_linker_2, # of connection points: 2
#     Edge 37, Type (0, 0), BuildingBlock: XUDNAN_clean_linker_2, # of connection points: 2
#     Edge 38, Type (0, 0), BuildingBlock: XUDNAN_clean_linker_2, # of connection points: 2
#     Edge 39, Type (0, 0), BuildingBlock: XUDNAN_clean_linker_2, # of connection points: 2
#     Edge 40, Type (0, 0), BuildingBlock: XUDNAN_clean_linker_2, # of connection points: 2
#     Edge 41, Type (0, 0), BuildingBlock: XUDNAN_clean_linker_2, # of connection points: 2
#     Edge 42, Type (0, 0), BuildingBlock: XUDNAN_clean_linker_2, # of connection points: 2
#     Edge 43, Type (0, 0), BuildingBlock: XUDNAN_clean_linker_2, # of connection points: 2
#     Edge 44, Type (0, 0), BuildingBlock: XUDNAN_clean_linker_2, # of connection points: 2
#     Edge 45, Type (0, 0), BuildingBlock: XUDNAN_clean_linker_2, # of connection points: 2
#     Edge 46, Type (0, 0), BuildingBlock: XUDNAN_clean_linker_2, # of connection points: 2
#     Edge 47, Type (0, 0), BuildingBlock: XUDNAN_clean_linker_2, # of connection points: 2
# Relax obj value: 0.039
# Max RMSD: 0.067
# Mean RMSD: 0.067
data_MOF--net-ukb--node1-QUQFOY_clean_sbu_1--edge1-XUDNAN_clean_linker_2
_symmetry_space_group_name_H-M    P1
_symmetry_Int_Tables_number       1
_symmetry_cell_setting            triclinic
loop_
_symmetry_equiv_pos_as_xyz
'x, y, z'
_cell_length_a     45.650765
_cell_length_b     45.650075
_cell_length_c     42.446206
_cell_angle_alpha  90.006609
_cell_angle_beta   90.013111
_cell_angle_gamma 89.937427
loop_
_atom_site_label
_atom_site_type_symbol
_atom_site_fract_x
_atom_site_fract_y
_atom_site_fract_z
_atom_type_partial_charge
O0 O 0.57819 0.2425 0.1972 0.0
Cd1 Cd 0.56979 0.20688 0.16878 0.0
Cd2 Cd 0.52916 0.19596 0.21801 0.0
O3 O 0.53854 0.2397 0.22694 0.0
O4 O 0.58519 0.21726 0.12606 0.0
O5 O 0.53815 0.21019 0.13581 0.0
C6 C 0.5585 0.21723 0.11604 0.0
C7 C 0.48271 0.17824 0.23283 0.0
C8 C 0.56147 0.25322 0.21818 0.0
C9 C 0.58299 0.15598 0.20925 0.0
O10 O 0.56182 0.16527 0.22602 0.0
O11 O 0.58885 0.16803 0.18299 0.0
O12 O 0.5016 0.18686 0.25328 0.0
O13 O 0.48961 0.1806 0.20345 0.0
O14 O 0.34025 0.55743 0.73288 0.0
Cd15 Cd 0.30952 0.52476 0.73061 0.0
Cd16 Cd 0.29686 0.55895 0.67293 0.0
O17 O 0.33319 0.58238 0.68885 0.0
O18 O 0.32056 0.49952 0.76723 0.0
O19 O 0.32368 0.48428 0.71803 0.0
C20 C 0.32793 0.47932 0.74763 0.0
C21 C 0.29034 0.54939 0.61889 0.0
C22 C 0.34715 0.57824 0.71446 0.0
C23 C 0.24973 0.55228 0.7238 0.0
O24 O 0.25795 0.56286 0.69754 0.0
O25 O 0.26657 0.53619 0.74023 0.0
O26 O 0.28723 0.57535 0.63035 0.0
O27 O 0.29844 0.52884 0.63794 0.0
O28 O 0.94062 0.26484 0.20413 0.0
Cd29 Cd 0.94706 0.29933 0.17309 0.0
Cd30 Cd 0.97581 0.32056 0.22655 0.0
O31 O 0.96728 0.27952 0.2446 0.0
O32 O 0.93244 0.28351 0.13205 0.0
O33 O 0.9786 0.29587 0.13967 0.0
C34 C 0.9587 0.2854 0.1212 0.0
C35 C 0.02213 0.34217 0.22956 0.0
C36 C 0.95094 0.26048 0.2316 0.0
C37 C 0.92231 0.35326 0.20438 0.0
O38 O 0.9411 0.34927 0.22605 0.0
O39 O 0.92222 0.337 0.18002 0.0
O40 O 0.00574 0.33955 0.25414 0.0
O41 O 0.01267 0.33132 0.20332 0.0
O42 O 0.15922 0.93795 0.72779 0.0
Cd43 Cd 0.1867 0.97361 0.72651 0.0
Cd44 Cd 0.20683 0.93981 0.6687 0.0
O45 O 0.1689 0.91759 0.68157 0.0
O46 O 0.17229 0.99794 0.76248 0.0
O47 O 0.17026 0.01307 0.71319 0.0
C48 C 0.16475 0.01782 0.74259 0.0
C49 C 0.21998 0.93496 0.61493 0.0
C50 C 0.15416 0.91858 0.707 0.0
C51 C 0.2482 0.94943 0.72546 0.0
O52 O 0.24252 0.93766 0.69896 0.0
O53 O 0.22955 0.96578 0.7391 0.0
O54 O 0.22082 0.91336 0.6343 0.0
O55 O 0.21139 0.95991 0.62581 0.0
O56 O 0.56818 0.26043 0.81407 0.0
Cd57 Cd 0.56442 0.29667 0.84294 0.0
Cd58 Cd 0.52385 0.31167 0.79623 0.0
O59 O 0.53025 0.26852 0.7827 0.0
O60 O 0.58118 0.28458 0.88456 0.0
O61 O 0.53451 0.29593 0.87792 0.0
C62 C 0.55524 0.28696 0.89633 0.0
C63 C 0.47699 0.33277 0.79431 0.0
C64 C 0.55125 0.25236 0.79195 0.0
C65 C 0.57989 0.34783 0.80303 0.0
O66 O 0.55724 0.34103 0.7872 0.0
O67 O 0.58613 0.33406 0.82822 0.0
O68 O 0.49142 0.32684 0.76902 0.0
O69 O 0.48866 0.3255 0.82093 0.0
O70 O 0.16487 0.57057 0.28936 0.0
Cd71 Cd 0.19243 0.53485 0.28869 0.0
Cd72 Cd 0.21288 0.56406 0.34516 0.0
O73 O 0.17573 0.58912 0.33608 0.0
O74 O 0.17703 0.51099 0.25286 0.0
O75 O 0.17668 0.49517 0.30196 0.0
C76 C 0.17031 0.49079 0.2727 0.0
C77 C 0.22487 0.55246 0.39774 0.0
C78 C 0.16051 0.58939 0.31093 0.0
C79 C 0.25361 0.55935 0.28835 0.0
O80 O 0.24848 0.57003 0.3155 0.0
O81 O 0.23484 0.54316 0.27473 0.0
O82 O 0.22735 0.57869 0.38692 0.0
O83 O 0.21484 0.53265 0.37888 0.0
O84 O 0.94572 0.24519 0.82359 0.0
Cd85 Cd 0.94863 0.20636 0.84877 0.0
Cd86 Cd 0.97182 0.19065 0.78931 0.0
O87 O 0.96512 0.23387 0.77739 0.0
O88 O 0.93363 0.21887 0.89098 0.0
O89 O 0.9791 0.20417 0.88358 0.0
C90 C 0.95934 0.21434 0.90241 0.0
C91 C 0.01733 0.16761 0.78651 0.0
C92 C 0.95334 0.25237 0.79583 0.0
C93 C 0.91811 0.15875 0.81076 0.0
O94 O 0.93562 0.16415 0.78825 0.0
O95 O 0.92077 0.17181 0.83712 0.0
O96 O 1.00202 0.17246 0.76146 0.0
O97 O 0.00719 0.17698 0.81314 0.0
O98 O 0.34681 0.95273 0.28492 0.0
Cd99 Cd 0.31555 0.9849 0.28845 0.0
Cd100 Cd 0.29704 0.94384 0.33927 0.0
O101 O 0.3351 0.92303 0.32405 0.0
O102 O 0.33126 0.01528 0.25902 0.0
O103 O 0.32605 0.02291 0.31005 0.0
C104 C 0.33482 0.03227 0.28292 0.0
C105 C 0.28446 0.93741 0.39287 0.0
C106 C 0.35167 0.92982 0.30107 0.0
C107 C 0.256 0.95695 0.28328 0.0
O108 O 0.26145 0.94363 0.30897 0.0
O109 O 0.27433 0.97484 0.2715 0.0
O110 O 0.2835 0.91632 0.37283 0.0
O111 O 0.29299 0.96266 0.38275 0.0
O112 O 0.4371 0.83803 0.78119 0.0
Cd113 Cd 0.47251 0.81046 0.78271 0.0
Cd114 Cd 0.44868 0.79533 0.84167 0.0
O115 O 0.42178 0.83073 0.82995 0.0
O116 O 0.50372 0.82783 0.75566 0.0
O117 O 0.50779 0.82283 0.80742 0.0
C118 C 0.5187 0.83202 0.78108 0.0
C119 C 0.46016 0.78743 0.89515 0.0
C120 C 0.41962 0.84391 0.80359 0.0
C121 C 0.45236 0.74933 0.78868 0.0
O122 O 0.44475 0.75656 0.81645 0.0
O123 O 0.46475 0.76756 0.77046 0.0
O124 O 0.43413 0.78347 0.88431 0.0
O125 O 0.4798 0.79696 0.87581 0.0
O126 O 0.66126 0.44642 0.29155 0.0
Cd127 Cd 0.69054 0.48073 0.28973 0.0
Cd128 Cd 0.71625 0.44306 0.34333 0.0
O129 O 0.68097 0.41804 0.32835 0.0
O130 O 0.67445 0.50445 0.25412 0.0
O131 O 0.67634 0.52121 0.30277 0.0
C132 C 0.66904 0.52523 0.27372 0.0
C133 C 0.73088 0.43658 0.39641 0.0
C134 C 0.66133 0.42304 0.30777 0.0
C135 C 0.7534 0.45772 0.28537 0.0
O136 O 0.75092 0.44632 0.31256 0.0
O137 O 0.73229 0.47178 0.2729 0.0
O138 O 0.73354 0.41628 0.37564 0.0
O139 O 0.71937 0.46101 0.38738 0.0
O140 O 0.05618 0.65946 0.79148 0.0
Cd141 Cd 0.02358 0.68998 0.79781 0.0
Cd142 Cd 0.06228 0.70641 0.84574 0.0
O143 O 0.0856 0.66952 0.83127 0.0
O144 O 0.99174 0.67454 0.77009 0.0
O145 O 0.98708 0.67849 0.82167 0.0
C146 C 0.97622 0.67025 0.79499 0.0
C147 C 0.05177 0.71545 0.899 0.0
C148 C 0.07923 0.6541 0.80724 0.0
C149 C 0.05114 0.74942 0.79249 0.0
O150 O 0.06539 0.74312 0.81737 0.0
O151 O 0.03229 0.7317 0.78139 0.0
O152 O 0.07787 0.71853 0.88786 0.0
O153 O 0.03164 0.70615 0.88004 0.0
O154 O 0.83943 0.07252 0.28995 0.0
Cd155 Cd 0.8132 0.03608 0.29102 0.0
Cd156 Cd 0.79591 0.06057 0.34968 0.0
O157 O 0.8306 0.08836 0.33824 0.0
O158 O 0.83203 0.006 0.26344 0.0
O159 O 0.82717 1.00092 0.31507 0.0
C160 C 0.83691 0.99082 0.28857 0.0
C161 C 0.78712 0.05019 0.40324 0.0
C162 C 0.84424 0.09053 0.31216 0.0
C163 C 0.7511 0.05436 0.29576 0.0
O164 O 0.75761 0.06276 0.32347 0.0
O165 O 0.77007 0.04221 0.27818 0.0
O166 O 0.78256 0.0758 0.39154 0.0
O167 O 0.79777 0.03039 0.38476 0.0
O168 O 0.44113 0.67185 0.23038 0.0
Cd169 Cd 0.47699 0.69872 0.22887 0.0
Cd170 Cd 0.45221 0.71528 0.17032 0.0
O171 O 0.42507 0.68013 0.18205 0.0
O172 O 0.5075 0.68062 0.25637 0.0
O173 O 0.51228 0.68542 0.20468 0.0
C174 C 0.52266 0.67598 0.23117 0.0
C175 C 0.46252 0.72375 0.11667 0.0
C176 C 0.42318 0.66661 0.20823 0.0
C177 C 0.45756 0.76034 0.22402 0.0
O178 O 0.44932 0.7537 0.1963 0.0
O179 O 0.47002 0.74162 0.24166 0.0
O180 O 0.43683 0.72799 0.12828 0.0
O181 O 0.48248 0.71366 0.13531 0.0
O182 O 0.8413 0.44453 0.73723 0.0
Cd183 Cd 0.81072 0.47717 0.73251 0.0
Cd184 Cd 0.79962 0.43959 0.6738 0.0
O185 O 0.83573 0.41848 0.69366 0.0
O186 O 0.82029 0.50359 0.76863 0.0
O187 O 0.82531 0.51717 0.71904 0.0
C188 C 0.82839 0.52313 0.7486 0.0
C189 C 0.79336 0.4346 0.61882 0.0
C190 C 0.84882 0.42331 0.71964 0.0
C191 C 0.75095 0.45029 0.72318 0.0
O192 O 0.76008 0.43901 0.69761 0.0
O193 O 0.76738 0.46621 0.74023 0.0
O194 O 0.79078 0.41282 0.6378 0.0
O195 O 0.8003 0.45964 0.6308 0.0
O196 O 0.06666 0.84831 0.22557 0.0
Cd197 Cd 0.0309 0.82093 0.22762 0.0
Cd198 Cd 0.06036 0.7987 0.17107 0.0
O199 O 0.08543 0.83593 0.17937 0.0
O200 O 0.00802 0.83718 0.26381 0.0
O201 O 0.99091 0.83679 0.21523 0.0
C202 C 0.98733 0.84372 0.24446 0.0
C203 C 0.0499 0.78559 0.11852 0.0
C204 C 0.08556 0.85194 0.20394 0.0
C205 C 0.05505 0.75935 0.22911 0.0
O206 O 0.06563 0.7637 0.20176 0.0
O207 O 0.03925 0.77868 0.2424 0.0
O208 O 0.07585 0.78318 0.13011 0.0
O209 O 0.02969 0.7961 0.13659 0.0
O210 O 0.65418 0.06004 0.72757 0.0
Cd211 Cd 0.68541 0.0274 0.72853 0.0
Cd212 Cd 0.70532 0.06158 0.6751 0.0
O213 O 0.66841 0.08602 0.68631 0.0
O214 O 0.67114 1.00186 0.7635 0.0
O215 O 0.67317 0.98679 0.71417 0.0
C216 C 0.66631 0.98157 0.74314 0.0
C217 C 0.71661 0.0507 0.62237 0.0
C218 C 0.6508 0.08167 0.70907 0.0
C219 C 0.74575 0.05537 0.73135 0.0
O220 O 0.74099 0.06645 0.70436 0.0
O221 O 0.72693 0.0387 0.74426 0.0
O222 O 0.71905 0.07686 0.63346 0.0
O223 O 0.7068 0.03061 0.64104 0.0
H224 H 0.44801 0.13968 0.20001 0.0
H225 H 0.45631 0.18376 0.29008 0.0
H226 H 0.41479 0.15509 0.31083 0.0
H227 H 0.36645 0.13061 0.20135 0.0
H228 H 0.36862 0.09471 0.18382 0.0
H229 H 0.39574 0.12201 0.1744 0.0
H230 H 0.43685 0.0863 0.19175 0.0
H231 H 0.40992 0.05902 0.20136 0.0
H232 H 0.43584 0.07076 0.23079 0.0
H233 H 0.37667 0.11758 0.32396 0.0
H234 H 0.34504 0.07385 0.32833 0.0
H235 H 0.36169 0.05368 0.23002 0.0
C236 C 0.44044 0.14395 0.22374 0.0
C237 C 0.45517 0.16418 0.24332 0.0
C238 C 0.44522 0.1685 0.2746 0.0
C239 C 0.4216 0.15237 0.28659 0.0
C240 C 0.40808 0.13196 0.26703 0.0
C241 C 0.41702 0.12778 0.2362 0.0
C242 C 0.40075 0.10243 0.22118 0.0
C243 C 0.38176 0.11309 0.19355 0.0
C244 C 0.42212 0.07821 0.21067 0.0
C245 C 0.38197 0.0925 0.24862 0.0
C246 C 0.38621 0.11005 0.27473 0.0
C247 C 0.37278 0.10396 0.30351 0.0
C248 C 0.35488 0.07905 0.3058 0.0
C249 C 0.35068 0.06043 0.2795 0.0
C250 C 0.36406 0.06768 0.25045 0.0
H251 H 0.3633 0.44188 0.71407 0.0
H252 H 0.32778 0.45734 0.80738 0.0
H253 H 0.35826 0.41723 0.82852 0.0
H254 H 0.37217 0.36072 0.72144 0.0
H255 H 0.40625 0.36107 0.70001 0.0
H256 H 0.37834 0.38783 0.69129 0.0
H257 H 0.4157 0.42952 0.70117 0.0
H258 H 0.44362 0.40296 0.71007 0.0
H259 H 0.43481 0.43112 0.73831 0.0
H260 H 0.39673 0.37961 0.84078 0.0
H261 H 0.44025 0.34741 0.84304 0.0
H262 H 0.45118 0.35662 0.74195 0.0
C263 C 0.36126 0.43618 0.73874 0.0
C264 C 0.34292 0.45253 0.75902 0.0
C265 C 0.34153 0.445 0.79136 0.0
C266 C 0.35872 0.42219 0.80359 0.0
C267 C 0.37724 0.40705 0.78319 0.0
C268 C 0.37852 0.41361 0.7514 0.0
C269 C 0.40224 0.39592 0.73516 0.0
C270 C 0.38895 0.37515 0.71052 0.0
C271 C 0.42546 0.41609 0.72032 0.0
C272 C 0.41461 0.37905 0.76292 0.0
C273 C 0.39966 0.38549 0.79034 0.0
C274 C 0.40831 0.37403 0.81936 0.0
C275 C 0.4331 0.35579 0.82043 0.0
C276 C 0.44904 0.34929 0.79268 0.0
C277 C 0.43926 0.36078 0.76354 0.0
H278 H 0.04653 0.36861 0.28134 0.0
H279 H 0.05983 0.35485 0.18116 0.0
H280 H 0.10269 0.3878 0.18268 0.0
H281 H 0.06182 0.44303 0.2818 0.0
H282 H 0.08039 0.44334 0.31928 0.0
H283 H 0.05311 0.41594 0.31125 0.0
H284 H 0.09069 0.37497 0.32371 0.0
H285 H 0.11813 0.4023 0.33193 0.0
H286 H 0.1252 0.3742 0.30307 0.0
H287 H 0.13997 0.42674 0.19366 0.0
H288 H 0.17016 0.46755 0.21362 0.0
H289 H 0.13384 0.45515 0.30708 0.0
C290 C 0.05883 0.37197 0.25983 0.0
C291 C 0.04986 0.35901 0.23112 0.0
C292 C 0.06635 0.36435 0.20346 0.0
C293 C 0.09075 0.38304 0.2041 0.0
C294 C 0.09857 0.39599 0.23265 0.0
C295 C 0.08329 0.39048 0.26009 0.0
C296 C 0.09504 0.40861 0.28724 0.0
C297 C 0.07117 0.42893 0.30066 0.0
C298 C 0.10804 0.38883 0.31301 0.0
C299 C 0.11877 0.42588 0.27058 0.0
C300 C 0.12054 0.41812 0.23913 0.0
C301 C 0.13917 0.4326 0.21835 0.0
C302 C 0.15617 0.45581 0.22989 0.0
C303 C 0.15459 0.46427 0.26196 0.0
C304 C 0.13599 0.44872 0.28263 0.0
H305 H 0.1284 0.05391 0.70837 0.0
H306 H 0.16455 0.04072 0.80182 0.0
H307 H 0.13432 0.0814 0.82205 0.0
H308 H 0.12015 0.13492 0.71322 0.0
H309 H 0.08583 0.13446 0.69222 0.0
H310 H 0.11324 0.10704 0.68408 0.0
H311 H 0.07543 0.0662 0.69586 0.0
H312 H 0.04799 0.09343 0.70413 0.0
H313 H 0.05667 0.06601 0.73324 0.0
H314 H 0.09698 0.12018 0.83334 0.0
H315 H 0.05442 0.15357 0.83501 0.0
H316 H 0.04156 0.14115 0.73455 0.0
C317 C 0.13051 0.06014 0.73288 0.0
C318 C 0.14904 0.04435 0.75347 0.0
C319 C 0.1506 0.0526 0.7856 0.0
C320 C 0.13357 0.07575 0.7973 0.0
C321 C 0.115 0.09045 0.7766 0.0
C322 C 0.11336 0.08304 0.74505 0.0
C323 C 0.08972 0.1006 0.72849 0.0
C324 C 0.10304 0.12044 0.703 0.0
C325 C 0.06606 0.08035 0.71463 0.0
C326 C 0.07789 0.11848 0.75581 0.0
C327 C 0.09305 0.11257 0.78325 0.0
C328 C 0.08517 0.12527 0.81191 0.0
C329 C 0.06093 0.1442 0.81264 0.0
C330 C 0.0447 0.15013 0.78492 0.0
C331 C 0.05368 0.13736 0.7561 0.0
H332 H 0.54436 0.85839 0.72996 0.0
H333 H 0.55541 0.84438 0.83041 0.0
H334 H 0.59859 0.87689 0.83004 0.0
H335 H 0.62368 0.8639 0.71007 0.0
H336 H 0.6172 0.89222 0.6813 0.0
H337 H 0.58961 0.86482 0.68861 0.0
H338 H 0.55174 0.90567 0.70052 0.0
H339 H 0.57916 0.93312 0.69334 0.0
H340 H 0.55985 0.93257 0.73037 0.0
H341 H 0.63621 0.91559 0.82025 0.0
H342 H 0.66616 0.95709 0.8016 0.0
H343 H 0.63178 0.94541 0.70718 0.0
C344 C 0.55627 0.86157 0.75176 0.0
C345 C 0.54656 0.84868 0.78022 0.0
C346 C 0.56249 0.85385 0.8083 0.0
C347 C 0.5871 0.87225 0.8083 0.0
C348 C 0.59567 0.88514 0.77999 0.0
C349 C 0.58089 0.87986 0.75216 0.0
C350 C 0.59319 0.8982 0.72546 0.0
C351 C 0.60673 0.87861 0.69985 0.0
C352 C 0.56958 0.91859 0.71163 0.0
C353 C 0.61657 0.91535 0.74283 0.0
C354 C 0.61779 0.90726 0.77421 0.0
C355 C 0.63587 0.92169 0.79561 0.0
C356 C 0.65274 0.94528 0.78482 0.0
C357 C 0.65156 0.95419 0.75288 0.0
C358 C 0.63368 0.93859 0.73153 0.0
H359 H 0.54782 0.65021 0.283 0.0
H360 H 0.55884 0.66132 0.18212 0.0
H361 H 0.60119 0.62765 0.18334 0.0
H362 H 0.62692 0.64353 0.30269 0.0
H363 H 0.62011 0.6162 0.33243 0.0
H364 H 0.59293 0.64386 0.32431 0.0
H365 H 0.55438 0.60339 0.31393 0.0
H366 H 0.58139 0.57565 0.32189 0.0
H367 H 0.56191 0.5755 0.28495 0.0
H368 H 0.63812 0.58846 0.19425 0.0
H369 H 0.66803 0.54744 0.21427 0.0
H370 H 0.63424 0.5624 0.30842 0.0
C371 C 0.55954 0.64611 0.26126 0.0
C372 C 0.55006 0.65854 0.23245 0.0
C373 C 0.56575 0.65221 0.20449 0.0
C374 C 0.58987 0.63313 0.20495 0.0
C375 C 0.59821 0.62074 0.23362 0.0
C376 C 0.58369 0.62715 0.26133 0.0
C377 C 0.59582 0.60938 0.28858 0.0
C378 C 0.60978 0.62945 0.31347 0.0
C379 C 0.57196 0.58982 0.30318 0.0
C380 C 0.61884 0.5913 0.2717 0.0
C381 C 0.61997 0.59838 0.24003 0.0
C382 C 0.63783 0.58312 0.21908 0.0
C383 C 0.65467 0.5598 0.23067 0.0
C384 C 0.6537 0.55199 0.26294 0.0
C385 C 0.63593 0.56833 0.28378 0.0
H386 H 0.95138 0.64558 0.74262 0.0
H387 H 0.93801 0.65752 0.84303 0.0
H388 H 0.89438 0.62558 0.84049 0.0
H389 H 0.87265 0.64117 0.71999 0.0
H390 H 0.87981 0.61339 0.6908 0.0
H391 H 0.90733 0.64045 0.69969 0.0
H392 H 0.94459 0.59913 0.71192 0.0
H393 H 0.91725 0.57201 0.70319 0.0
H394 H 0.93547 0.57171 0.74086 0.0
H395 H 0.85628 0.5876 0.82833 0.0
H396 H 0.82659 0.54677 0.80762 0.0
H397 H 0.86436 0.55978 0.71492 0.0
C398 C 0.93886 0.64212 0.76396 0.0
C399 C 0.94802 0.65425 0.79302 0.0
C400 C 0.93132 0.64867 0.82048 0.0
C401 C 0.90647 0.63058 0.81924 0.0
C402 C 0.89848 0.6184 0.79034 0.0
C403 C 0.91408 0.62411 0.76314 0.0
C404 C 0.90248 0.60638 0.73561 0.0
C405 C 0.88981 0.62656 0.71001 0.0
C406 C 0.92636 0.58611 0.72213 0.0
C407 C 0.87851 0.58906 0.75177 0.0
C408 C 0.87635 0.59657 0.78326 0.0
C409 C 0.85742 0.58194 0.8036 0.0
C410 C 0.84067 0.55872 0.79162 0.0
C411 C 0.84292 0.55029 0.75958 0.0
C412 C 0.86166 0.56614 0.73932 0.0
H413 H 0.8627 0.96585 0.23659 0.0
H414 H 0.85255 0.95502 0.33761 0.0
H415 H 0.88663 0.913 0.33621 0.0
H416 H 0.86949 0.88694 0.21719 0.0
H417 H 0.89649 0.89364 0.18707 0.0
H418 H 0.86893 0.92086 0.19545 0.0
H419 H 0.90953 0.95942 0.20517 0.0
H420 H 0.93717 0.93236 0.19696 0.0
H421 H 0.93774 0.95196 0.23382 0.0
H422 H 0.92577 0.876 0.32494 0.0
H423 H 0.96616 0.84554 0.30438 0.0
H424 H 0.95023 0.87918 0.21034 0.0
C425 C 0.86714 0.95428 0.25834 0.0
C426 C 0.85481 0.9637 0.28722 0.0
C427 C 0.86157 0.94817 0.31519 0.0
C428 C 0.8809 0.92424 0.31462 0.0
C429 C 0.89313 0.91592 0.28587 0.0
C430 C 0.88634 0.9303 0.25818 0.0
C431 C 0.90382 0.91806 0.23074 0.0
C432 C 0.88346 0.90404 0.20616 0.0
C433 C 0.92321 0.94187 0.21581 0.0
C434 C 0.92209 0.89509 0.24748 0.0
C435 C 0.91543 0.89413 0.27925 0.0
C436 C 0.93081 0.87619 0.30003 0.0
C437 C 0.95377 0.85903 0.28814 0.0
C438 C 0.96112 0.85975 0.25572 0.0
C439 C 0.9447 0.8777 0.23509 0.0
H440 H 0.6161 0.26906 0.23676 0.0
H441 H 0.52593 0.29881 0.23559 0.0
H442 H 0.54103 0.34532 0.26117 0.0
H443 H 0.63307 0.29927 0.31417 0.0
H444 H 0.6702 0.30829 0.30352 0.0
H445 H 0.65211 0.27771 0.28506 0.0
H446 H 0.66252 0.29998 0.23002 0.0
H447 H 0.68074 0.33051 0.24828 0.0
H448 H 0.65069 0.33684 0.22157 0.0
H449 H 0.56746 0.3905 0.28191 0.0
H450 H 0.60206 0.42851 0.30093 0.0
H451 H 0.67351 0.36632 0.2943 0.0
C452 C 0.59957 0.28542 0.24189 0.0
C453 C 0.56995 0.28072 0.2339 0.0
C454 C 0.54876 0.30222 0.24147 0.0
C455 C 0.55715 0.32861 0.25596 0.0
C456 C 0.58665 0.33265 0.26346 0.0
C457 C 0.60741 0.31138 0.25716 0.0
C458 C 0.63754 0.32066 0.26815 0.0
C459 C 0.64889 0.30027 0.29428 0.0
C460 C 0.65913 0.32209 0.24034 0.0
C461 C 0.63071 0.35085 0.28087 0.0
C462 C 0.60129 0.35754 0.27772 0.0
C463 C 0.59037 0.38524 0.28521 0.0
C464 C 0.61009 0.40665 0.29597 0.0
C465 C 0.64013 0.39993 0.2998 0.0
C466 C 0.65042 0.3716 0.29256 0.0
H467 H 0.23553 0.57986 0.7788 0.0
H468 H 0.19823 0.54291 0.69381 0.0
H469 H 0.14895 0.55942 0.71044 0.0
H470 H 0.17184 0.56749 0.83233 0.0
H471 H 0.17641 0.60242 0.8515 0.0
H472 H 0.20783 0.58335 0.8359 0.0
H473 H 0.22121 0.62894 0.80256 0.0
H474 H 0.1899 0.64809 0.818 0.0
H475 H 0.19437 0.64416 0.77602 0.0
H476 H 0.10505 0.58297 0.73363 0.0
H477 H 0.06958 0.61587 0.75898 0.0
H478 H 0.13539 0.64114 0.82775 0.0
C479 C 0.21674 0.57455 0.7643 0.0
C480 C 0.22028 0.55957 0.73544 0.0
C481 C 0.19565 0.55397 0.71623 0.0
C482 C 0.16766 0.56317 0.72555 0.0
C483 C 0.16484 0.57832 0.75392 0.0
C484 C 0.1887 0.58424 0.77293 0.0
C485 C 0.18016 0.6041 0.80013 0.0
C486 C 0.1843 0.58839 0.83185 0.0
C487 C 0.19743 0.63303 0.79909 0.0
C488 C 0.14795 0.60897 0.793 0.0
C489 C 0.13953 0.59332 0.76662 0.0
C490 C 0.11131 0.59516 0.75444 0.0
C491 C 0.09131 0.61402 0.76905 0.0
C492 C 0.09962 0.63123 0.79541 0.0
C493 C 0.12822 0.62811 0.80789 0.0
H494 H 0.86265 0.11221 0.25559 0.0
H495 H 0.87164 0.12491 0.35644 0.0
H496 H 0.90419 0.16733 0.34672 0.0
H497 H 0.9368 0.13426 0.23282 0.0
H498 H 0.92425 0.15269 0.19777 0.0
H499 H 0.90436 0.12161 0.21279 0.0
H500 H 0.85691 0.15279 0.21507 0.0
H501 H 0.87661 0.18389 0.20003 0.0
H502 H 0.85694 0.18677 0.23672 0.0
H503 H 0.93413 0.20978 0.32558 0.0
H504 H 0.95538 0.25079 0.29525 0.0
H505 H 0.92456 0.21106 0.20846 0.0
C506 C 0.87188 0.12355 0.27569 0.0
C507 C 0.86488 0.11505 0.30681 0.0
C508 C 0.87683 0.13096 0.33241 0.0
C509 C 0.89543 0.15498 0.32711 0.0
C510 C 0.90167 0.16291 0.29608 0.0
C511 C 0.89006 0.14774 0.27082 0.0
C512 C 0.89808 0.16201 0.23982 0.0
C513 C 0.917 0.14141 0.21962 0.0
C514 C 0.87049 0.17196 0.22187 0.0
C515 C 0.91565 0.18789 0.25152 0.0
C516 C 0.91793 0.18779 0.28399 0.0
C517 C 0.93259 0.20997 0.30014 0.0
C518 C 0.94468 0.23314 0.28268 0.0
C519 C 0.94165 0.23417 0.24946 0.0
C520 C 0.92732 0.21092 0.2338 0.0
H521 H 0.29647 0.92162 0.70109 0.0
H522 H 0.26148 0.95798 0.7878 0.0
H523 H 0.30374 0.93801 0.81709 0.0
H524 H 0.32068 0.85585 0.73205 0.0
H525 H 0.35365 0.85356 0.70883 0.0
H526 H 0.32253 0.87349 0.6941 0.0
H527 H 0.3545 0.91995 0.68741 0.0
H528 H 0.38587 0.90006 0.70188 0.0
H529 H 0.37491 0.93379 0.72058 0.0
H530 H 0.34626 0.90818 0.83792 0.0
H531 H 0.38803 0.87472 0.84766 0.0
H532 H 0.39627 0.86016 0.74704 0.0
C533 C 0.29799 0.92596 0.72612 0.0
C534 C 0.27562 0.94139 0.74211 0.0
C535 C 0.27841 0.94641 0.77494 0.0
C536 C 0.30232 0.93508 0.79183 0.0
C537 C 0.32352 0.9192 0.77548 0.0
C538 C 0.32184 0.91512 0.74326 0.0
C539 C 0.34678 0.8962 0.73145 0.0
C540 C 0.33521 0.86812 0.71569 0.0
C541 C 0.3667 0.91354 0.70901 0.0
C542 C 0.36221 0.88948 0.76218 0.0
C543 C 0.34851 0.90294 0.78735 0.0
C544 C 0.35753 0.89803 0.81833 0.0
C545 C 0.38116 0.87891 0.82366 0.0
C546 C 0.39562 0.86514 0.79811 0.0
C547 C 0.38608 0.87083 0.76703 0.0
H548 H 0.59509 0.24116 0.75074 0.0
H549 H 0.5217 0.20099 0.79864 0.0
H550 H 0.53593 0.15256 0.77682 0.0
H551 H 0.59193 0.19326 0.67884 0.0
H552 H 0.63126 0.19276 0.6752 0.0
H553 H 0.61311 0.22443 0.69148 0.0
H554 H 0.64517 0.22049 0.7417 0.0
H555 H 0.66332 0.18888 0.72567 0.0
H556 H 0.64567 0.18664 0.76358 0.0
H557 H 0.5626 0.10819 0.75652 0.0
H558 H 0.59801 0.07138 0.73711 0.0
H559 H 0.65232 0.14083 0.69928 0.0
C560 C 0.58167 0.22218 0.75587 0.0
C561 C 0.55724 0.22447 0.776 0.0
C562 C 0.54029 0.19943 0.78286 0.0
C563 C 0.54822 0.17196 0.77058 0.0
C564 C 0.5728 0.17024 0.75109 0.0
C565 C 0.589 0.19479 0.74335 0.0
C566 C 0.61537 0.18684 0.72343 0.0
C567 C 0.61275 0.20011 0.69027 0.0
C568 C 0.64406 0.19626 0.73958 0.0
C569 C 0.61236 0.15382 0.72246 0.0
C570 C 0.58753 0.14469 0.73834 0.0
C571 C 0.58168 0.11509 0.74335 0.0
C572 C 0.60194 0.09436 0.73232 0.0
C573 C 0.6276 0.10328 0.71624 0.0
C574 C 0.63245 0.13337 0.71066 0.0
H575 H 0.40087 0.64953 0.26495 0.0
H576 H 0.39031 0.63711 0.16424 0.0
H577 H 0.34852 0.60384 0.17425 0.0
H578 H 0.37991 0.57561 0.29009 0.0
H579 H 0.36048 0.5889 0.32419 0.0
H580 H 0.39146 0.60894 0.30917 0.0
H581 H 0.35938 0.65562 0.30432 0.0
H582 H 0.32838 0.63577 0.31936 0.0
H583 H 0.32588 0.65416 0.28188 0.0
H584 H 0.30653 0.57365 0.19545 0.0
H585 H 0.2652 0.55274 0.22539 0.0
H586 H 0.30214 0.58719 0.31205 0.0
C587 C 0.39015 0.63938 0.24498 0.0
C588 C 0.39905 0.64561 0.2138 0.0
C589 C 0.38393 0.63251 0.18831 0.0
C590 C 0.36029 0.61349 0.19379 0.0
C591 C 0.35194 0.60802 0.22486 0.0
C592 C 0.36631 0.62078 0.25 0.0
C593 C 0.35153 0.61348 0.28096 0.0
C594 C 0.37207 0.59567 0.30236 0.0
C595 C 0.34065 0.64142 0.29759 0.0
C596 C 0.32627 0.59498 0.26932 0.0
C597 C 0.32718 0.59162 0.23696 0.0
C598 C 0.30569 0.57603 0.2208 0.0
C599 C 0.28233 0.56415 0.23806 0.0
C600 C 0.28038 0.56831 0.27111 0.0
C601 C 0.303 0.58353 0.28686 0.0
H602 H 0.86442 0.36908 0.69595 0.0
H603 H 0.88539 0.43164 0.76968 0.0
H604 H 0.91972 0.39632 0.7931 0.0
H605 H 0.86267 0.30789 0.74344 0.0
H606 H 0.87917 0.28293 0.71571 0.0
H607 H 0.8595 0.31448 0.70169 0.0
H608 H 0.90519 0.3312 0.67034 0.0
H609 H 0.92504 0.29955 0.68421 0.0
H610 H 0.93966 0.33575 0.69049 0.0
H611 H 0.94514 0.35244 0.8135 0.0
H612 H 0.96225 0.30287 0.82797 0.0
H613 H 0.92775 0.26868 0.74026 0.0
C614 C 0.87684 0.37563 0.71651 0.0
C615 C 0.87214 0.4032 0.73092 0.0
C616 C 0.88848 0.41069 0.75817 0.0
C617 C 0.90819 0.39081 0.77163 0.0
C618 C 0.91167 0.36355 0.75743 0.0
C619 C 0.89676 0.35599 0.73027 0.0
C620 C 0.90284 0.32437 0.72132 0.0
C621 C 0.87435 0.30637 0.72051 0.0
C622 C 0.91916 0.32263 0.68971 0.0
C623 C 0.92246 0.31509 0.74841 0.0
C624 C 0.92742 0.33816 0.76882 0.0
C625 C 0.94214 0.33438 0.7973 0.0
C626 C 0.95171 0.3062 0.80538 0.0
C627 C 0.94685 0.28229 0.78489 0.0
C628 C 0.93258 0.28689 0.75577 0.0
H629 H 0.10593 0.87246 0.26006 0.0
H630 H 0.11982 0.87892 0.15923 0.0
H631 H 0.16195 0.91199 0.1686 0.0
H632 H 0.12872 0.94731 0.28168 0.0
H633 H 0.14671 0.93493 0.31707 0.0
H634 H 0.1153 0.91545 0.30216 0.0
H635 H 0.14554 0.86735 0.30098 0.0
H636 H 0.17695 0.88664 0.31586 0.0
H637 H 0.17961 0.86635 0.27954 0.0
H638 H 0.20447 0.94209 0.18954 0.0
H639 H 0.24617 0.96221 0.2198 0.0
H640 H 0.20562 0.93301 0.3067 0.0
C641 C 0.11735 0.8814 0.23988 0.0
C642 C 0.10934 0.8735 0.20888 0.0
C643 C 0.12546 0.8849 0.18316 0.0
C644 C 0.14931 0.90379 0.18827 0.0
C645 C 0.15687 0.91082 0.21924 0.0
C646 C 0.14144 0.89976 0.24459 0.0
C647 C 0.15571 0.90794 0.27555 0.0
C648 C 0.1354 0.92758 0.29527 0.0
C649 C 0.16501 0.88043 0.29405 0.0
C650 C 0.18199 0.92481 0.26373 0.0
C651 C 0.18197 0.92686 0.23123 0.0
C652 C 0.20458 0.94077 0.215 0.0
C653 C 0.22812 0.95223 0.23239 0.0
C654 C 0.22914 0.94917 0.2656 0.0
C655 C 0.20544 0.93575 0.28135 0.0
H656 H 0.36047 0.63322 0.69099 0.0
H657 H 0.38664 0.56948 0.7616 0.0
H658 H 0.42127 0.60496 0.78398 0.0
H659 H 0.43476 0.66832 0.68225 0.0
H660 H 0.41906 0.70433 0.67782 0.0
H661 H 0.39929 0.67261 0.66415 0.0
H662 H 0.35481 0.68764 0.69843 0.0
H663 H 0.37444 0.71924 0.71231 0.0
H664 H 0.35982 0.69327 0.74014 0.0
H665 H 0.44639 0.64885 0.80435 0.0
H666 H 0.46326 0.6984 0.8192 0.0
H667 H 0.42406 0.73389 0.7344 0.0
C668 C 0.37412 0.62647 0.71056 0.0
C669 C 0.37075 0.59852 0.7245 0.0
C670 C 0.38867 0.59075 0.7505 0.0
C671 C 0.40856 0.61072 0.76336 0.0
C672 C 0.41066 0.63836 0.7498 0.0
C673 C 0.39429 0.64622 0.72372 0.0
C674 C 0.39924 0.67817 0.71537 0.0
C675 C 0.41397 0.68101 0.68297 0.0
C676 C 0.37036 0.69559 0.71666 0.0
C677 C 0.41993 0.68723 0.74162 0.0
C678 C 0.42634 0.6638 0.76107 0.0
C679 C 0.44228 0.66721 0.78884 0.0
C680 C 0.45169 0.69536 0.79715 0.0
C681 C 0.44549 0.7196 0.77755 0.0
C682 C 0.42989 0.71542 0.74917 0.0
H683 H 0.90503 0.3779 0.25984 0.0
H684 H 0.886 0.37761 0.1597 0.0
H685 H 0.84414 0.41105 0.16898 0.0
H686 H 0.83325 0.37226 0.28395 0.0
H687 H 0.83719 0.39494 0.31846 0.0
H688 H 0.86831 0.37542 0.30323 0.0
H689 H 0.89722 0.42412 0.29898 0.0
H690 H 0.86606 0.44385 0.31423 0.0
H691 H 0.88191 0.45426 0.27699 0.0
H692 H 0.80164 0.44091 0.1901 0.0
H693 H 0.76026 0.46054 0.22119 0.0
H694 H 0.80643 0.43898 0.3075 0.0
C695 C 0.89259 0.38549 0.23969 0.0
C696 C 0.89901 0.37545 0.20897 0.0
C697 C 0.8816 0.3852 0.18341 0.0
C698 C 0.85789 0.40431 0.18845 0.0
C699 C 0.85184 0.41335 0.21918 0.0
C700 C 0.86868 0.40412 0.24437 0.0
C701 C 0.85576 0.414 0.27543 0.0
C702 C 0.84817 0.38759 0.29648 0.0
C703 C 0.87647 0.43533 0.2924 0.0
C704 C 0.82849 0.42949 0.26393 0.0
C705 C 0.8269 0.42953 0.23141 0.0
C706 C 0.80284 0.44128 0.21556 0.0
C707 C 0.77947 0.45249 0.23343 0.0
C708 C 0.78012 0.45133 0.26679 0.0
C709 C 0.80533 0.44034 0.28205 0.0
H710 H 0.07938 0.79813 0.81477 0.0
H711 H 0.04076 0.76125 0.73021 0.0
H712 H 0.05945 0.80309 0.69928 0.0
H713 H 0.06551 0.87612 0.79393 0.0
H714 H 0.09957 0.88784 0.81131 0.0
H715 H 0.08053 0.85655 0.82712 0.0
H716 H 0.12721 0.82494 0.8197 0.0
H717 H 0.1463 0.85599 0.8037 0.0
H718 H 0.14386 0.82255 0.78127 0.0
H719 H 0.08868 0.84508 0.6765 0.0
H720 H 0.12203 0.88643 0.6647 0.0
H721 H 0.13852 0.89747 0.76462 0.0
C722 C 0.07432 0.79916 0.78986 0.0
C723 C 0.05862 0.77642 0.7749 0.0
C724 C 0.05255 0.77852 0.74224 0.0
C725 C 0.06314 0.80218 0.72444 0.0
C726 C 0.07925 0.82383 0.73979 0.0
C727 C 0.0843 0.82282 0.77189 0.0
C728 C 0.10318 0.8482 0.78254 0.0
C729 C 0.08617 0.86837 0.80505 0.0
C730 C 0.13183 0.83725 0.79768 0.0
C731 C 0.10885 0.86308 0.75127 0.0
C732 C 0.0949 0.84873 0.72685 0.0
C733 C 0.09913 0.85692 0.69551 0.0
C734 C 0.11818 0.88031 0.68901 0.0
C735 C 0.13243 0.89542 0.71377 0.0
C736 C 0.12732 0.88683 0.74526 0.0
H737 H 0.63703 0.13786 0.18747 0.0
H738 H 0.57285 0.12198 0.26099 0.0
H739 H 0.60728 0.08857 0.2874 0.0
H740 H 0.66976 0.06197 0.18788 0.0
H741 H 0.70616 0.076 0.18142 0.0
H742 H 0.67491 0.09509 0.16544 0.0
H743 H 0.69137 0.14253 0.19385 0.0
H744 H 0.72248 0.1236 0.21001 0.0
H745 H 0.69708 0.14193 0.23588 0.0
H746 H 0.65069 0.06419 0.3106 0.0
H747 H 0.69988 0.0478 0.32739 0.0
H748 H 0.73591 0.07663 0.23819 0.0
C749 C 0.62989 0.12666 0.20859 0.0
C750 C 0.60216 0.13257 0.22209 0.0
C751 C 0.59393 0.11787 0.25013 0.0
C752 C 0.61332 0.09873 0.2653 0.0
C753 C 0.64081 0.09414 0.252 0.0
C754 C 0.64902 0.10733 0.22405 0.0
C755 C 0.68077 0.10055 0.21629 0.0
C756 C 0.68302 0.08231 0.18595 0.0
C757 C 0.69898 0.12883 0.21388 0.0
C758 C 0.6894 0.0826 0.24491 0.0
C759 C 0.66589 0.07901 0.26508 0.0
C760 C 0.66907 0.0661 0.29465 0.0
C761 C 0.69705 0.05695 0.30403 0.0
C762 C 0.72139 0.06042 0.28379 0.0
C763 C 0.7174 0.07286 0.25362 0.0
H764 H 0.428 0.7744 0.27771 0.0
H765 H 0.47021 0.81209 0.19585 0.0
H766 H 0.45348 0.8614 0.21204 0.0
H767 H 0.36481 0.81546 0.2707 0.0
H768 H 0.35806 0.8198 0.31228 0.0
H769 H 0.37826 0.78858 0.29828 0.0
H770 H 0.42152 0.80195 0.33507 0.0
H771 H 0.40135 0.83325 0.34931 0.0
H772 H 0.43746 0.83801 0.33293 0.0
H773 H 0.42815 0.90511 0.23341 0.0
H774 H 0.39297 0.94012 0.2559 0.0
H775 H 0.36397 0.874 0.32252 0.0
C776 C 0.43455 0.79328 0.26396 0.0
C777 C 0.45097 0.78982 0.23603 0.0
C778 C 0.45806 0.81459 0.21761 0.0
C779 C 0.44874 0.8426 0.22669 0.0
C780 C 0.43198 0.84533 0.254 0.0
C781 C 0.42476 0.82134 0.27231 0.0
C782 C 0.40312 0.8297 0.29793 0.0
C783 C 0.37437 0.81236 0.29457 0.0
C784 C 0.41668 0.82548 0.33076 0.0
C785 C 0.39867 0.86191 0.29057 0.0
C786 C 0.41606 0.87054 0.2656 0.0
C787 C 0.41466 0.89872 0.2532 0.0
C788 C 0.39448 0.91845 0.26614 0.0
C789 C 0.37561 0.90988 0.29102 0.0
C790 C 0.37829 0.88137 0.3038 0.0
H791 H 0.73424 0.4267 0.77942 0.0
H792 H 0.70099 0.45626 0.68927 0.0
H793 H 0.65144 0.43895 0.70371 0.0
H794 H 0.69628 0.36092 0.77871 0.0
H795 H 0.68923 0.3594 0.82046 0.0
H796 H 0.72059 0.37901 0.80595 0.0
H797 H 0.70304 0.42593 0.83465 0.0
H798 H 0.67159 0.40639 0.84939 0.0
H799 H 0.66666 0.43978 0.82734 0.0
H800 H 0.60724 0.4146 0.72536 0.0
H801 H 0.57176 0.3817 0.75072 0.0
H802 H 0.63405 0.36459 0.82592 0.0
C803 C 0.71621 0.43037 0.7633 0.0
C804 C 0.72101 0.44341 0.73359 0.0
C805 C 0.69742 0.44674 0.71233 0.0
C806 C 0.66928 0.43706 0.72039 0.0
C807 C 0.66526 0.4237 0.74961 0.0
C808 C 0.68808 0.42015 0.7707 0.0
C809 C 0.67872 0.40167 0.79866 0.0
C810 C 0.69731 0.37359 0.80106 0.0
C811 C 0.68008 0.41952 0.82933 0.0
C812 C 0.64732 0.39483 0.78961 0.0
C813 C 0.6399 0.40829 0.76155 0.0
C814 C 0.61268 0.40416 0.74749 0.0
C815 C 0.59267 0.38533 0.76211 0.0
C816 C 0.60004 0.37047 0.79037 0.0
C817 C 0.62759 0.37581 0.80454 0.0
H818 H 0.14137 0.60985 0.25419 0.0
H819 H 0.13241 0.62362 0.35485 0.0
H820 H 0.09955 0.66577 0.34461 0.0
H821 H 0.14747 0.68379 0.23485 0.0
H822 H 0.12796 0.68105 0.19805 0.0
H823 H 0.14718 0.64973 0.21335 0.0
H824 H 0.09939 0.6192 0.21097 0.0
H825 H 0.07997 0.6505 0.19561 0.0
H826 H 0.06699 0.63243 0.23068 0.0
H827 H 0.06996 0.70815 0.32307 0.0
H828 H 0.04974 0.74952 0.29255 0.0
H829 H 0.08067 0.70928 0.20605 0.0
C830 C 0.13194 0.62128 0.27413 0.0
C831 C 0.13909 0.61321 0.30535 0.0
C832 C 0.12704 0.62931 0.33076 0.0
C833 C 0.10828 0.65318 0.32515 0.0
C834 C 0.10201 0.66079 0.29402 0.0
C835 C 0.11367 0.64539 0.26894 0.0
C836 C 0.106 0.65965 0.23779 0.0
C837 C 0.1338 0.66912 0.21998 0.0
C838 C 0.08695 0.63923 0.21757 0.0
C839 C 0.08867 0.68584 0.24922 0.0
C840 C 0.08609 0.68581 0.28167 0.0
C841 C 0.0717 0.70828 0.29764 0.0
C842 C 0.06021 0.73167 0.28006 0.0
C843 C 0.0636 0.73269 0.24686 0.0
C844 C 0.07762 0.70914 0.23135 0.0
H845 H 0.89506 0.14201 0.75425 0.0
H846 H 0.88482 0.13009 0.85506 0.0
H847 H 0.84201 0.09803 0.84543 0.0
H848 H 0.82015 0.14874 0.73784 0.0
H849 H 0.82193 0.13021 0.70038 0.0
H850 H 0.85355 0.14923 0.71519 0.0
H851 H 0.88433 0.10169 0.71026 0.0
H852 H 0.85273 0.08249 0.69544 0.0
H853 H 0.87197 0.06872 0.72946 0.0
H854 H 0.79879 0.06904 0.82447 0.0
H855 H 0.75688 0.049 0.79456 0.0
H856 H 0.79475 0.08216 0.70783 0.0
C857 C 0.8842 0.13221 0.77433 0.0
C858 C 0.89348 0.13826 0.80541 0.0
C859 C 0.87816 0.12562 0.83104 0.0
C860 C 0.85392 0.1073 0.82579 0.0
C861 C 0.84519 0.10203 0.79479 0.0
C862 C 0.8598 0.11431 0.76953 0.0
C863 C 0.84468 0.10736 0.73868 0.0
C864 C 0.83447 0.13556 0.72206 0.0
C865 C 0.86462 0.08896 0.7172 0.0
C866 C 0.81899 0.0896 0.75051 0.0
C867 C 0.81988 0.08632 0.78287 0.0
C868 C 0.79798 0.07135 0.79911 0.0
C869 C 0.77429 0.05997 0.7819 0.0
C870 C 0.77249 0.06401 0.74884 0.0
C871 C 0.79546 0.07864 0.73305 0.0
H872 H 0.59714 0.22917 0.06823 0.0
H873 H 0.50426 0.22659 0.0898 0.0
H874 H 0.49312 0.24498 0.03629 0.0
H875 H 0.59609 0.29493 0.02286 0.0
H876 H 0.62287 0.28236 0.99472 0.0
H877 H 0.62345 0.26853 0.03445 0.0
H878 H 0.62013 0.21533 0.01344 0.0
H879 H 0.61979 0.22898 0.97364 0.0
H880 H 0.59071 0.20545 0.98717 0.0
H881 H 0.4924 0.26531 0.98045 0.0
H882 H 0.50202 0.28274 0.92623 0.0
H883 H 0.59533 0.2711 0.9414 0.0
C884 C 0.57442 0.23229 0.0617 0.0
C885 C 0.55156 0.22641 0.08329 0.0
C886 C 0.52215 0.23082 0.07369 0.0
C887 C 0.51561 0.24137 0.04336 0.0
C888 C 0.53871 0.24728 0.02281 0.0
C889 C 0.56752 0.24264 0.03152 0.0
C890 C 0.58834 0.25049 1.00505 0.0
C891 C 0.60889 0.27557 0.01487 0.0
C892 C 0.60576 0.22345 0.99418 0.0
C893 C 0.56681 0.2604 0.98007 0.0
C894 C 0.53828 0.25854 0.99076 0.0
C895 C 0.51466 0.26674 0.97183 0.0
C896 C 0.52034 0.27672 0.94109 0.0
C897 C 0.54941 0.2783 0.92948 0.0
C898 C 0.57285 0.27016 0.94947 0.0
H899 H 0.23941 0.59108 0.44461 0.0
H900 H 0.23153 0.49816 0.42489 0.0
H901 H 0.24918 0.48693 0.47874 0.0
H902 H 0.30477 0.58722 0.49127 0.0
H903 H 0.29315 0.61517 0.51854 0.0
H904 H 0.28016 0.61575 0.47848 0.0
H905 H 0.22646 0.61579 0.49828 0.0
H906 H 0.23928 0.61545 0.53839 0.0
H907 H 0.21445 0.58746 0.52488 0.0
H908 H 0.26879 0.48616 0.53505 0.0
H909 H 0.28499 0.49589 0.58972 0.0
H910 H 0.27865 0.58935 0.57232 0.0
C911 C 0.24134 0.56834 0.45156 0.0
C912 C 0.23414 0.54548 0.43045 0.0
C913 C 0.23685 0.51604 0.44064 0.0
C914 C 0.24698 0.50946 0.47115 0.0
C915 C 0.25414 0.53256 0.49127 0.0
C916 C 0.25117 0.56141 0.48193 0.0
C917 C 0.25963 0.58227 0.50815 0.0
C918 C 0.286 0.60121 0.49853 0.0
C919 C 0.23339 0.60136 0.51801 0.0
C920 C 0.26785 0.5607 0.53378 0.0
C921 C 0.26478 0.53212 0.52358 0.0
C922 C 0.27119 0.50847 0.54325 0.0
C923 C 0.2805 0.51421 0.57425 0.0
C924 C 0.28311 0.54336 0.58538 0.0
C925 C 0.2769 0.5668 0.56462 0.0
H926 H 0.91982 0.27091 0.07479 0.0
H927 H 0.01291 0.27639 0.09448 0.0
H928 H 0.02363 0.25699 0.04118 0.0
H929 H 0.92154 0.20435 0.03024 0.0
H930 H 0.89397 0.21619 1.00262 0.0
H931 H 0.89385 0.23021 0.04228 0.0
H932 H 0.89559 0.28337 0.0209 0.0
H933 H 0.89547 0.26953 0.98119 0.0
H934 H 0.92428 0.29375 0.99396 0.0
H935 H 0.02372 0.2358 0.98532 0.0
H936 H 0.01326 0.21853 0.93111 0.0
H937 H 0.92015 0.22849 0.94863 0.0
C938 C 0.9425 0.26807 0.06796 0.0
C939 C 0.96554 0.27509 0.08887 0.0
C940 C 0.9949 0.27122 0.07885 0.0
C941 C 1.00119 0.2601 0.04866 0.0
C942 C 0.97787 0.25314 0.02873 0.0
C943 C 0.94913 0.25727 0.03795 0.0
C944 C 0.92798 0.24886 0.01203 0.0
C945 C 0.90818 0.22339 0.02242 0.0
C946 C 0.90977 0.27546 1.00139 0.0
C947 C 0.94925 0.23929 0.9867 0.0
C948 C 0.97794 0.24166 0.99676 0.0
C949 C 1.00132 0.23394 0.97723 0.0
C950 C 0.99517 0.22403 0.94653 0.0
C951 C 0.96591 0.22217 0.93559 0.0
C952 C 0.94277 0.22968 0.9562 0.0
H953 H 0.27242 0.97822 0.43969 0.0
H954 H 0.27633 0.88471 0.42117 0.0
H955 H 0.26018 0.8747 0.47534 0.0
H956 H 0.29777 0.97477 0.52089 0.0
H957 H 0.27331 1.00303 0.53464 0.0
H958 H 0.28592 1.00331 0.49442 0.0
H959 H 0.23218 0.00396 0.4749 0.0
H960 H 0.2194 0.00356 0.51506 0.0
H961 H 0.20731 0.97577 0.48785 0.0
H962 H 0.24387 0.8741 0.53071 0.0
H963 H 0.22776 0.88294 0.58512 0.0
H964 H 0.23251 0.97684 0.56934 0.0
C965 C 0.27006 0.95567 0.44716 0.0
C966 C 0.27573 0.93224 0.42611 0.0
C967 C 0.27211 0.90304 0.43673 0.0
C968 C 0.26295 0.89709 0.46752 0.0
C969 C 0.25728 0.92054 0.48755 0.0
C970 C 0.26062 0.94926 0.47797 0.0
C971 C 0.25247 0.97022 0.50444 0.0
C972 C 0.27895 0.98894 0.51417 0.0
C973 C 0.22628 0.98952 0.49499 0.0
C974 C 0.24412 0.9487 0.53026 0.0
C975 C 0.24721 0.92019 0.51985 0.0
C976 C 0.24131 0.89632 0.53918 0.0
C977 C 0.23217 0.90161 0.57011 0.0
C978 C 0.22878 0.93058 0.58158 0.0
C979 C 0.23469 0.95446 0.56123 0.0
H980 H 0.42157 0.77535 0.94266 0.0
H981 H 0.51451 0.7817 0.92252 0.0
H982 H 0.52567 0.76512 0.9768 0.0
H983 H 0.42578 0.80151 0.02306 0.0
H984 H 0.39743 0.77716 0.03669 0.0
H985 H 0.39723 0.78985 0.99653 0.0
H986 H 0.39636 0.73606 0.97699 0.0
H987 H 0.39686 0.7232 0.01709 0.0
H988 H 0.42457 0.71107 0.98978 0.0
H989 H 0.52625 0.74549 0.03328 0.0
H990 H 0.51624 0.72882 0.08778 0.0
H991 H 0.42292 0.73693 0.07042 0.0
C992 C 0.4443 0.77345 0.94966 0.0
C993 C 0.46718 0.77979 0.92829 0.0
C994 C 0.49662 0.77709 0.93851 0.0
C995 C 0.50315 0.76755 0.96925 0.0
C996 C 0.48001 0.76104 0.98957 0.0
C997 C 0.45118 0.76424 0.98023 0.0
C998 C 0.43024 0.75619 1.00649 0.0
C999 C 0.41158 0.78276 0.01627 0.0
C1000 C 0.41087 0.73008 0.99701 0.0
C1001 C 0.45173 0.74777 0.03209 0.0
C1002 C 0.48035 0.75048 0.02191 0.0
C1003 C 0.50391 0.74346 0.0415 0.0
C1004 C 0.49802 0.73387 0.07237 0.0
C1005 C 0.46882 0.73161 0.08342 0.0
C1006 C 0.4455 0.7385 0.06278 0.0
H1007 H 0.77723 0.47617 0.57453 0.0
H1008 H 0.79564 0.3835 0.58633 0.0
H1009 H 0.78248 0.3747 0.5309 0.0
H1010 H 0.71428 0.46662 0.5257 0.0
H1011 H 0.72153 0.49766 0.50066 0.0
H1012 H 0.73437 0.49757 0.54079 0.0
H1013 H 0.7874 0.50675 0.52153 0.0
H1014 H 0.77468 0.50709 0.48134 0.0
H1015 H 0.80346 0.48229 0.49299 0.0
H1016 H 0.76621 0.37512 0.47539 0.0
H1017 H 0.74766 0.38467 0.42201 0.0
H1018 H 0.73774 0.47691 0.44487 0.0
C1019 C 0.77893 0.45415 0.56522 0.0
C1020 C 0.78766 0.43052 0.58473 0.0
C1021 C 0.78906 0.40192 0.57187 0.0
C1022 C 0.78164 0.39669 0.54038 0.0
C1023 C 0.77263 0.42024 0.52195 0.0
C1024 C 0.77122 0.44843 0.53373 0.0
C1025 C 0.75961 0.46947 0.50889 0.0
C1026 C 0.73073 0.48366 0.51966 0.0
C1027 C 0.78267 0.49278 0.50071 0.0
C1028 C 0.75464 0.44861 0.48149 0.0
C1029 C 0.7625 0.42038 0.48966 0.0
C1030 C 0.76003 0.39714 0.46864 0.0
C1031 C 0.74942 0.40283 0.43832 0.0
C1032 C 0.74118 0.43153 0.42915 0.0
C1033 C 0.74373 0.45472 0.45118 0.0
H1034 H 0.08958 0.77069 0.07282 0.0
H1035 H 0.99621 0.77803 0.09027 0.0
H1036 H 0.98624 0.75943 0.03652 0.0
H1037 H 0.0872 0.79432 0.99192 0.0
H1038 H 0.11573 0.76954 0.97954 0.0
H1039 H 0.11517 0.78307 0.01938 0.0
H1040 H 0.11539 0.72974 0.0403 0.0
H1041 H 0.11573 0.71603 1.00051 0.0
H1042 H 0.0874 0.70461 0.02739 0.0
H1043 H 0.98677 0.73871 0.98072 0.0
H1044 H 0.9977 0.72128 0.92676 0.0
H1045 H 0.09074 0.72904 0.94594 0.0
C1046 C 0.067 0.76844 0.06538 0.0
C1047 C 0.04365 0.77575 0.08584 0.0
C1048 C 0.01446 0.77263 0.07503 0.0
C1049 C 0.00859 0.76198 0.04457 0.0
C1050 C 0.03215 0.75473 0.02512 0.0
C1051 C 0.06078 0.75811 0.03505 0.0
C1052 C 0.08224 0.74939 0.00947 0.0
C1053 C 0.10119 0.77565 0.99949 0.0
C1054 C 0.10131 0.7234 0.02006 0.0
C1055 C 0.06126 0.74051 0.98354 0.0
C1056 C 0.03245 0.7435 0.99304 0.0
C1057 C 0.00925 0.73639 0.97305 0.0
C1058 C 0.01568 0.72639 0.94247 0.0
C1059 C 0.04506 0.7238 0.93205 0.0
C1060 C 0.06804 0.7308 0.9531 0.0
H1061 H 0.72975 0.08976 0.57556 0.0
H1062 H 0.72522 0.99663 0.59533 0.0
H1063 H 0.74411 0.98601 0.54183 0.0
H1064 H 0.70645 0.08491 0.49441 0.0
H1065 H 0.73042 0.11391 0.48158 0.0
H1066 H 0.71656 0.11376 0.5213 0.0
H1067 H 0.7697 0.11606 0.54267 0.0
H1068 H 0.78373 0.11594 0.50302 0.0
H1069 H 0.79581 0.08856 0.53073 0.0
H1070 H 0.76535 0.98598 0.48615 0.0
H1071 H 0.78299 0.9964 0.43211 0.0
H1072 H 0.77203 0.08949 0.44914 0.0
C1073 C 0.7326 0.0671 0.56865 0.0
C1074 C 0.72605 0.04401 0.58969 0.0
C1075 C 0.72998 0.01468 0.5796 0.0
C1076 C 0.74083 0.00845 0.5493 0.0
C1077 C 0.74743 0.03179 0.52929 0.0
C1078 C 0.74313 0.06051 0.5385 0.0
C1079 C 0.75137 0.08167 0.51251 0.0
C1080 C 0.7246 0.09961 0.50182 0.0
C1081 C 0.77666 0.10173 0.52286 0.0
C1082 C 0.76112 0.06042 0.48722 0.0
C1083 C 0.75893 0.03174 0.49734 0.0
C1084 C 0.76702 0.00837 0.47798 0.0
C1085 C 0.77715 0.01449 0.44737 0.0
C1086 C 0.77887 0.04373 0.43634 0.0
C1087 C 0.77093 0.06688 0.45677 0.0
loop_
_geom_bond_atom_site_label_1
_geom_bond_atom_site_label_2
_geom_bond_distance
_geom_bond_site_symmetry_2
_ccdc_geom_bond_type
O0 Cd1 2.223 . S
O0 C8 1.315 . S
Cd1 O0 2.223 . S
Cd1 O4 2.297 . S
Cd1 O5 2.439 . S
Cd1 O11 2.240 . S
Cd2 O3 2.240 . S
Cd2 O10 2.223 . S
Cd2 O12 2.297 . S
Cd2 O13 2.439 . S
O3 Cd2 2.240 . S
O3 C8 1.279 . S
O4 Cd1 2.297 . S
O4 C6 1.247 . S
O5 Cd1 2.439 . S
O5 C6 1.208 . S
C6 O4 1.247 . S
C6 O5 1.208 . S
C7 O12 1.247 . S
C7 O13 1.208 . S
C8 O0 1.315 . S
C8 O3 1.279 . S
C9 O10 1.315 . S
C9 O11 1.279 . S
O10 Cd2 2.223 . S
O10 C9 1.315 . S
O11 Cd1 2.240 . S
O11 C9 1.279 . S
O12 Cd2 2.297 . S
O12 C7 1.247 . S
O13 Cd2 2.439 . S
O13 C7 1.208 . S
O14 Cd15 2.223 . S
O14 C22 1.315 . S
Cd15 O14 2.223 . S
Cd15 O18 2.297 . S
Cd15 O19 2.439 . S
Cd15 O25 2.240 . S
Cd16 O17 2.240 . S
Cd16 O24 2.223 . S
Cd16 O26 2.297 . S
Cd16 O27 2.439 . S
O17 Cd16 2.240 . S
O17 C22 1.279 . S
O18 Cd15 2.297 . S
O18 C20 1.247 . S
O19 Cd15 2.439 . S
O19 C20 1.208 . S
C20 O18 1.247 . S
C20 O19 1.208 . S
C21 O26 1.247 . S
C21 O27 1.208 . S
C22 O14 1.315 . S
C22 O17 1.279 . S
C23 O24 1.315 . S
C23 O25 1.279 . S
O24 Cd16 2.223 . S
O24 C23 1.315 . S
O25 Cd15 2.240 . S
O25 C23 1.279 . S
O26 Cd16 2.297 . S
O26 C21 1.247 . S
O27 Cd16 2.439 . S
O27 C21 1.208 . S
O28 Cd29 2.223 . S
O28 C36 1.315 . S
Cd29 O28 2.223 . S
Cd29 O32 2.297 . S
Cd29 O33 2.439 . S
Cd29 O39 2.240 . S
Cd30 O31 2.240 . S
Cd30 O38 2.223 . S
Cd30 O40 2.297 1_655 S
Cd30 O41 2.439 1_655 S
O31 Cd30 2.240 . S
O31 C36 1.279 . S
O32 Cd29 2.297 . S
O32 C34 1.247 . S
O33 Cd29 2.439 . S
O33 C34 1.208 . S
C34 O32 1.247 . S
C34 O33 1.208 . S
C35 O40 1.247 . S
C35 O41 1.208 . S
C36 O28 1.315 . S
C36 O31 1.279 . S
C37 O38 1.315 . S
C37 O39 1.279 . S
O38 Cd30 2.223 . S
O38 C37 1.315 . S
O39 Cd29 2.240 . S
O39 C37 1.279 . S
O40 Cd30 2.297 1_455 S
O40 C35 1.247 . S
O41 Cd30 2.439 1_455 S
O41 C35 1.208 . S
O42 Cd43 2.223 . S
O42 C50 1.315 . S
Cd43 O42 2.223 . S
Cd43 O46 2.297 1_565 S
Cd43 O47 2.439 1_565 S
Cd43 O53 2.240 . S
Cd44 O45 2.240 . S
Cd44 O52 2.223 . S
Cd44 O54 2.297 . S
Cd44 O55 2.439 . S
O45 Cd44 2.240 . S
O45 C50 1.279 . S
O46 Cd43 2.297 1_545 S
O46 C48 1.247 . S
O47 Cd43 2.439 1_545 S
O47 C48 1.208 . S
C48 O46 1.247 . S
C48 O47 1.208 . S
C49 O54 1.247 . S
C49 O55 1.208 . S
C50 O42 1.315 . S
C50 O45 1.279 . S
C51 O52 1.315 . S
C51 O53 1.279 . S
O52 Cd44 2.223 . S
O52 C51 1.315 . S
O53 Cd43 2.240 . S
O53 C51 1.279 . S
O54 Cd44 2.297 . S
O54 C49 1.247 . S
O55 Cd44 2.439 . S
O55 C49 1.208 . S
O56 Cd57 2.223 . S
O56 C64 1.315 . S
Cd57 O56 2.223 . S
Cd57 O60 2.297 . S
Cd57 O61 2.439 . S
Cd57 O67 2.240 . S
Cd58 O59 2.240 . S
Cd58 O66 2.223 . S
Cd58 O68 2.297 . S
Cd58 O69 2.439 . S
O59 Cd58 2.240 . S
O59 C64 1.279 . S
O60 Cd57 2.297 . S
O60 C62 1.247 . S
O61 Cd57 2.439 . S
O61 C62 1.208 . S
C62 O60 1.247 . S
C62 O61 1.208 . S
C63 O68 1.247 . S
C63 O69 1.208 . S
C64 O56 1.315 . S
C64 O59 1.279 . S
C65 O66 1.315 . S
C65 O67 1.279 . S
O66 Cd58 2.223 . S
O66 C65 1.315 . S
O67 Cd57 2.240 . S
O67 C65 1.279 . S
O68 Cd58 2.297 . S
O68 C63 1.247 . S
O69 Cd58 2.439 . S
O69 C63 1.208 . S
O70 Cd71 2.223 . S
O70 C78 1.315 . S
Cd71 O70 2.223 . S
Cd71 O74 2.297 . S
Cd71 O75 2.439 . S
Cd71 O81 2.240 . S
Cd72 O73 2.240 . S
Cd72 O80 2.223 . S
Cd72 O82 2.297 . S
Cd72 O83 2.439 . S
O73 Cd72 2.240 . S
O73 C78 1.279 . S
O74 Cd71 2.297 . S
O74 C76 1.247 . S
O75 Cd71 2.439 . S
O75 C76 1.208 . S
C76 O74 1.247 . S
C76 O75 1.208 . S
C77 O82 1.247 . S
C77 O83 1.208 . S
C78 O70 1.315 . S
C78 O73 1.279 . S
C79 O80 1.315 . S
C79 O81 1.279 . S
O80 Cd72 2.223 . S
O80 C79 1.315 . S
O81 Cd71 2.240 . S
O81 C79 1.279 . S
O82 Cd72 2.297 . S
O82 C77 1.247 . S
O83 Cd72 2.439 . S
O83 C77 1.208 . S
O84 Cd85 2.223 . S
O84 C92 1.315 . S
Cd85 O84 2.223 . S
Cd85 O88 2.297 . S
Cd85 O89 2.439 . S
Cd85 O95 2.240 . S
Cd86 O87 2.240 . S
Cd86 O94 2.223 . S
Cd86 O96 2.297 1_655 S
Cd86 O97 2.439 1_655 S
O87 Cd86 2.240 . S
O87 C92 1.279 . S
O88 Cd85 2.297 . S
O88 C90 1.247 . S
O89 Cd85 2.439 . S
O89 C90 1.208 . S
C90 O88 1.247 . S
C90 O89 1.208 . S
C91 O96 1.247 . S
C91 O97 1.208 . S
C92 O84 1.315 . S
C92 O87 1.279 . S
C93 O94 1.315 . S
C93 O95 1.279 . S
O94 Cd86 2.223 . S
O94 C93 1.315 . S
O95 Cd85 2.240 . S
O95 C93 1.279 . S
O96 Cd86 2.297 1_455 S
O96 C91 1.247 . S
O97 Cd86 2.439 1_455 S
O97 C91 1.208 . S
O98 Cd99 2.223 . S
O98 C106 1.315 . S
Cd99 O98 2.223 . S
Cd99 O102 2.297 1_565 S
Cd99 O103 2.439 1_565 S
Cd99 O109 2.240 . S
Cd100 O101 2.240 . S
Cd100 O108 2.223 . S
Cd100 O110 2.297 . S
Cd100 O111 2.439 . S
O101 Cd100 2.240 . S
O101 C106 1.279 . S
O102 Cd99 2.297 1_545 S
O102 C104 1.247 . S
O103 Cd99 2.439 1_545 S
O103 C104 1.208 . S
C104 O102 1.247 . S
C104 O103 1.208 . S
C105 O110 1.247 . S
C105 O111 1.208 . S
C106 O98 1.315 . S
C106 O101 1.279 . S
C107 O108 1.315 . S
C107 O109 1.279 . S
O108 Cd100 2.223 . S
O108 C107 1.315 . S
O109 Cd99 2.240 . S
O109 C107 1.279 . S
O110 Cd100 2.297 . S
O110 C105 1.247 . S
O111 Cd100 2.439 . S
O111 C105 1.208 . S
O112 Cd113 2.223 . S
O112 C120 1.315 . S
Cd113 O112 2.223 . S
Cd113 O116 2.297 . S
Cd113 O117 2.439 . S
Cd113 O123 2.240 . S
Cd114 O115 2.240 . S
Cd114 O122 2.223 . S
Cd114 O124 2.297 . S
Cd114 O125 2.439 . S
O115 Cd114 2.240 . S
O115 C120 1.279 . S
O116 Cd113 2.297 . S
O116 C118 1.247 . S
O117 Cd113 2.439 . S
O117 C118 1.208 . S
C118 O116 1.247 . S
C118 O117 1.208 . S
C119 O124 1.247 . S
C119 O125 1.208 . S
C120 O112 1.315 . S
C120 O115 1.279 . S
C121 O122 1.315 . S
C121 O123 1.279 . S
O122 Cd114 2.223 . S
O122 C121 1.315 . S
O123 Cd113 2.240 . S
O123 C121 1.279 . S
O124 Cd114 2.297 . S
O124 C119 1.247 . S
O125 Cd114 2.439 . S
O125 C119 1.208 . S
O126 Cd127 2.223 . S
O126 C134 1.315 . S
Cd127 O126 2.223 . S
Cd127 O130 2.297 . S
Cd127 O131 2.439 . S
Cd127 O137 2.240 . S
Cd128 O129 2.240 . S
Cd128 O136 2.223 . S
Cd128 O138 2.297 . S
Cd128 O139 2.439 . S
O129 Cd128 2.240 . S
O129 C134 1.279 . S
O130 Cd127 2.297 . S
O130 C132 1.247 . S
O131 Cd127 2.439 . S
O131 C132 1.208 . S
C132 O130 1.247 . S
C132 O131 1.208 . S
C133 O138 1.247 . S
C133 O139 1.208 . S
C134 O126 1.315 . S
C134 O129 1.279 . S
C135 O136 1.315 . S
C135 O137 1.279 . S
O136 Cd128 2.223 . S
O136 C135 1.315 . S
O137 Cd127 2.240 . S
O137 C135 1.279 . S
O138 Cd128 2.297 . S
O138 C133 1.247 . S
O139 Cd128 2.439 . S
O139 C133 1.208 . S
O140 Cd141 2.223 . S
O140 C148 1.315 . S
Cd141 O140 2.223 . S
Cd141 O144 2.297 1_455 S
Cd141 O145 2.439 1_455 S
Cd141 O151 2.240 . S
Cd142 O143 2.240 . S
Cd142 O150 2.223 . S
Cd142 O152 2.297 . S
Cd142 O153 2.439 . S
O143 Cd142 2.240 . S
O143 C148 1.279 . S
O144 Cd141 2.297 1_655 S
O144 C146 1.247 . S
O145 Cd141 2.439 1_655 S
O145 C146 1.208 . S
C146 O144 1.247 . S
C146 O145 1.208 . S
C147 O152 1.247 . S
C147 O153 1.208 . S
C148 O140 1.315 . S
C148 O143 1.279 . S
C149 O150 1.315 . S
C149 O151 1.279 . S
O150 Cd142 2.223 . S
O150 C149 1.315 . S
O151 Cd141 2.240 . S
O151 C149 1.279 . S
O152 Cd142 2.297 . S
O152 C147 1.247 . S
O153 Cd142 2.439 . S
O153 C147 1.208 . S
O154 Cd155 2.223 . S
O154 C162 1.315 . S
Cd155 O154 2.223 . S
Cd155 O158 2.297 1_545 S
Cd155 O159 2.439 1_545 S
Cd155 O165 2.240 . S
Cd156 O157 2.240 . S
Cd156 O164 2.223 . S
Cd156 O166 2.297 . S
Cd156 O167 2.439 . S
O157 Cd156 2.240 . S
O157 C162 1.279 . S
O158 Cd155 2.297 1_565 S
O158 C160 1.247 . S
O159 Cd155 2.439 1_565 S
O159 C160 1.208 . S
C160 O158 1.247 . S
C160 O159 1.208 . S
C161 O166 1.247 . S
C161 O167 1.208 . S
C162 O154 1.315 . S
C162 O157 1.279 . S
C163 O164 1.315 . S
C163 O165 1.279 . S
O164 Cd156 2.223 . S
O164 C163 1.315 . S
O165 Cd155 2.240 . S
O165 C163 1.279 . S
O166 Cd156 2.297 . S
O166 C161 1.247 . S
O167 Cd156 2.439 . S
O167 C161 1.208 . S
O168 Cd169 2.223 . S
O168 C176 1.315 . S
Cd169 O168 2.223 . S
Cd169 O172 2.297 . S
Cd169 O173 2.439 . S
Cd169 O179 2.240 . S
Cd170 O171 2.240 . S
Cd170 O178 2.223 . S
Cd170 O180 2.297 . S
Cd170 O181 2.439 . S
O171 Cd170 2.240 . S
O171 C176 1.279 . S
O172 Cd169 2.297 . S
O172 C174 1.247 . S
O173 Cd169 2.439 . S
O173 C174 1.208 . S
C174 O172 1.247 . S
C174 O173 1.208 . S
C175 O180 1.247 . S
C175 O181 1.208 . S
C176 O168 1.315 . S
C176 O171 1.279 . S
C177 O178 1.315 . S
C177 O179 1.279 . S
O178 Cd170 2.223 . S
O178 C177 1.315 . S
O179 Cd169 2.240 . S
O179 C177 1.279 . S
O180 Cd170 2.297 . S
O180 C175 1.247 . S
O181 Cd170 2.439 . S
O181 C175 1.208 . S
O182 Cd183 2.223 . S
O182 C190 1.315 . S
Cd183 O182 2.223 . S
Cd183 O186 2.297 . S
Cd183 O187 2.439 . S
Cd183 O193 2.240 . S
Cd184 O185 2.240 . S
Cd184 O192 2.223 . S
Cd184 O194 2.297 . S
Cd184 O195 2.439 . S
O185 Cd184 2.240 . S
O185 C190 1.279 . S
O186 Cd183 2.297 . S
O186 C188 1.247 . S
O187 Cd183 2.439 . S
O187 C188 1.208 . S
C188 O186 1.247 . S
C188 O187 1.208 . S
C189 O194 1.247 . S
C189 O195 1.208 . S
C190 O182 1.315 . S
C190 O185 1.279 . S
C191 O192 1.315 . S
C191 O193 1.279 . S
O192 Cd184 2.223 . S
O192 C191 1.315 . S
O193 Cd183 2.240 . S
O193 C191 1.279 . S
O194 Cd184 2.297 . S
O194 C189 1.247 . S
O195 Cd184 2.439 . S
O195 C189 1.208 . S
O196 Cd197 2.223 . S
O196 C204 1.315 . S
Cd197 O196 2.223 . S
Cd197 O200 2.297 1_455 S
Cd197 O201 2.439 1_455 S
Cd197 O207 2.240 . S
Cd198 O199 2.240 . S
Cd198 O206 2.223 . S
Cd198 O208 2.297 . S
Cd198 O209 2.439 . S
O199 Cd198 2.240 . S
O199 C204 1.279 . S
O200 Cd197 2.297 1_655 S
O200 C202 1.247 . S
O201 Cd197 2.439 1_655 S
O201 C202 1.208 . S
C202 O200 1.247 . S
C202 O201 1.208 . S
C203 O208 1.247 . S
C203 O209 1.208 . S
C204 O196 1.315 . S
C204 O199 1.279 . S
C205 O206 1.315 . S
C205 O207 1.279 . S
O206 Cd198 2.223 . S
O206 C205 1.315 . S
O207 Cd197 2.240 . S
O207 C205 1.279 . S
O208 Cd198 2.297 . S
O208 C203 1.247 . S
O209 Cd198 2.439 . S
O209 C203 1.208 . S
O210 Cd211 2.223 . S
O210 C218 1.315 . S
Cd211 O210 2.223 . S
Cd211 O214 2.297 1_545 S
Cd211 O215 2.439 1_545 S
Cd211 O221 2.240 . S
Cd212 O213 2.240 . S
Cd212 O220 2.223 . S
Cd212 O222 2.297 . S
Cd212 O223 2.439 . S
O213 Cd212 2.240 . S
O213 C218 1.279 . S
O214 Cd211 2.297 1_565 S
O214 C216 1.247 . S
O215 Cd211 2.439 1_565 S
O215 C216 1.208 . S
C216 O214 1.247 . S
C216 O215 1.208 . S
C217 O222 1.247 . S
C217 O223 1.208 . S
C218 O210 1.315 . S
C218 O213 1.279 . S
C219 O220 1.315 . S
C219 O221 1.279 . S
O220 Cd212 2.223 . S
O220 C219 1.315 . S
O221 Cd211 2.240 . S
O221 C219 1.279 . S
O222 Cd212 2.297 . S
O222 C217 1.247 . S
O223 Cd212 2.439 . S
O223 C217 1.208 . S
H224 C236 0.930 . S
H225 C238 0.930 . S
H226 C239 0.930 . S
H227 C243 0.959 . S
H228 C243 0.959 . S
H229 C243 0.961 . S
H230 C244 0.960 . S
H231 C244 0.961 . S
H232 C244 0.959 . S
H233 C247 0.929 . S
H234 C248 0.931 . S
H235 C250 0.930 . S
C236 H224 0.930 . S
C236 C237 1.399 . S
C236 C241 1.399 . S
C237 C236 1.399 . S
C237 C238 1.376 . S
C238 H225 0.930 . S
C238 C237 1.376 . S
C238 C239 1.388 . S
C239 H226 0.930 . S
C239 C238 1.388 . S
C239 C240 1.390 . S
C240 C239 1.390 . S
C240 C241 1.394 . S
C240 C246 1.465 . S
C241 C236 1.399 . S
C241 C240 1.394 . S
C241 C242 1.516 . S
C242 C241 1.516 . S
C242 C243 1.502 . S
C242 C244 1.561 . S
C242 C245 1.526 . S
C243 H227 0.959 . S
C243 H228 0.959 . S
C243 H229 0.961 . S
C243 C242 1.502 . S
C244 H230 0.960 . S
C244 H231 0.961 . S
C244 H232 0.959 . S
C244 C242 1.561 . S
C245 C242 1.526 . S
C245 C246 1.396 . S
C245 C250 1.390 . S
C246 C240 1.465 . S
C246 C245 1.396 . S
C246 C247 1.399 . S
C247 H233 0.929 . S
C247 C246 1.399 . S
C247 C248 1.385 . S
C248 H234 0.931 . S
C248 C247 1.385 . S
C248 C249 1.389 . S
C249 C248 1.389 . S
C249 C250 1.387 . S
C250 H235 0.930 . S
C250 C245 1.390 . S
C250 C249 1.387 . S
H251 C263 0.930 . S
H252 C265 0.930 . S
H253 C266 0.930 . S
H254 C270 0.959 . S
H255 C270 0.959 . S
H256 C270 0.961 . S
H257 C271 0.960 . S
H258 C271 0.961 . S
H259 C271 0.959 . S
H260 C274 0.929 . S
H261 C275 0.931 . S
H262 C277 0.930 . S
C263 H251 0.930 . S
C263 C264 1.399 . S
C263 C268 1.399 . S
C264 C263 1.399 . S
C264 C265 1.376 . S
C265 H252 0.930 . S
C265 C264 1.376 . S
C265 C266 1.388 . S
C266 H253 0.930 . S
C266 C265 1.388 . S
C266 C267 1.390 . S
C267 C266 1.390 . S
C267 C268 1.394 . S
C267 C273 1.465 . S
C268 C263 1.399 . S
C268 C267 1.394 . S
C268 C269 1.516 . S
C269 C268 1.516 . S
C269 C270 1.502 . S
C269 C271 1.561 . S
C269 C272 1.526 . S
C270 H254 0.959 . S
C270 H255 0.959 . S
C270 H256 0.961 . S
C270 C269 1.502 . S
C271 H257 0.960 . S
C271 H258 0.961 . S
C271 H259 0.959 . S
C271 C269 1.561 . S
C272 C269 1.526 . S
C272 C273 1.396 . S
C272 C277 1.390 . S
C273 C267 1.465 . S
C273 C272 1.396 . S
C273 C274 1.399 . S
C274 H260 0.929 . S
C274 C273 1.399 . S
C274 C275 1.385 . S
C275 H261 0.931 . S
C275 C274 1.385 . S
C275 C276 1.389 . S
C276 C275 1.389 . S
C276 C277 1.387 . S
C277 H262 0.930 . S
C277 C272 1.390 . S
C277 C276 1.387 . S
H278 C290 0.930 . S
H279 C292 0.930 . S
H280 C293 0.930 . S
H281 C297 0.959 . S
H282 C297 0.959 . S
H283 C297 0.961 . S
H284 C298 0.960 . S
H285 C298 0.961 . S
H286 C298 0.959 . S
H287 C301 0.929 . S
H288 C302 0.931 . S
H289 C304 0.930 . S
C290 H278 0.930 . S
C290 C291 1.399 . S
C290 C295 1.399 . S
C291 C290 1.399 . S
C291 C292 1.376 . S
C292 H279 0.930 . S
C292 C291 1.376 . S
C292 C293 1.388 . S
C293 H280 0.930 . S
C293 C292 1.388 . S
C293 C294 1.390 . S
C294 C293 1.390 . S
C294 C295 1.394 . S
C294 C300 1.465 . S
C295 C290 1.399 . S
C295 C294 1.394 . S
C295 C296 1.516 . S
C296 C295 1.516 . S
C296 C297 1.502 . S
C296 C298 1.561 . S
C296 C299 1.526 . S
C297 H281 0.959 . S
C297 H282 0.959 . S
C297 H283 0.961 . S
C297 C296 1.502 . S
C298 H284 0.960 . S
C298 H285 0.961 . S
C298 H286 0.959 . S
C298 C296 1.561 . S
C299 C296 1.526 . S
C299 C300 1.396 . S
C299 C304 1.390 . S
C300 C294 1.465 . S
C300 C299 1.396 . S
C300 C301 1.399 . S
C301 H287 0.929 . S
C301 C300 1.399 . S
C301 C302 1.385 . S
C302 H288 0.931 . S
C302 C301 1.385 . S
C302 C303 1.389 . S
C303 C302 1.389 . S
C303 C304 1.387 . S
C304 H289 0.930 . S
C304 C299 1.390 . S
C304 C303 1.387 . S
H305 C317 0.930 . S
H306 C319 0.930 . S
H307 C320 0.930 . S
H308 C324 0.959 . S
H309 C324 0.959 . S
H310 C324 0.961 . S
H311 C325 0.960 . S
H312 C325 0.961 . S
H313 C325 0.959 . S
H314 C328 0.929 . S
H315 C329 0.931 . S
H316 C331 0.930 . S
C317 H305 0.930 . S
C317 C318 1.399 . S
C317 C322 1.399 . S
C318 C317 1.399 . S
C318 C319 1.376 . S
C319 H306 0.930 . S
C319 C318 1.376 . S
C319 C320 1.388 . S
C320 H307 0.930 . S
C320 C319 1.388 . S
C320 C321 1.390 . S
C321 C320 1.390 . S
C321 C322 1.394 . S
C321 C327 1.465 . S
C322 C317 1.399 . S
C322 C321 1.394 . S
C322 C323 1.516 . S
C323 C322 1.516 . S
C323 C324 1.502 . S
C323 C325 1.561 . S
C323 C326 1.526 . S
C324 H308 0.959 . S
C324 H309 0.959 . S
C324 H310 0.961 . S
C324 C323 1.502 . S
C325 H311 0.960 . S
C325 H312 0.961 . S
C325 H313 0.959 . S
C325 C323 1.561 . S
C326 C323 1.526 . S
C326 C327 1.396 . S
C326 C331 1.390 . S
C327 C321 1.465 . S
C327 C326 1.396 . S
C327 C328 1.399 . S
C328 H314 0.929 . S
C328 C327 1.399 . S
C328 C329 1.385 . S
C329 H315 0.931 . S
C329 C328 1.385 . S
C329 C330 1.389 . S
C330 C329 1.389 . S
C330 C331 1.387 . S
C331 H316 0.930 . S
C331 C326 1.390 . S
C331 C330 1.387 . S
H332 C344 0.930 . S
H333 C346 0.930 . S
H334 C347 0.930 . S
H335 C351 0.959 . S
H336 C351 0.959 . S
H337 C351 0.961 . S
H338 C352 0.960 . S
H339 C352 0.961 . S
H340 C352 0.959 . S
H341 C355 0.929 . S
H342 C356 0.935 . S
H343 C358 0.930 . S
C344 H332 0.930 . S
C344 C345 1.399 . S
C344 C349 1.399 . S
C345 C344 1.399 . S
C345 C346 1.376 . S
C346 H333 0.930 . S
C346 C345 1.376 . S
C346 C347 1.388 . S
C347 H334 0.930 . S
C347 C346 1.388 . S
C347 C348 1.390 . S
C348 C347 1.390 . S
C348 C349 1.394 . S
C348 C354 1.465 . S
C349 C344 1.399 . S
C349 C348 1.394 . S
C349 C350 1.516 . S
C350 C349 1.516 . S
C350 C351 1.502 . S
C350 C352 1.561 . S
C350 C353 1.526 . S
C351 H335 0.959 . S
C351 H336 0.959 . S
C351 H337 0.961 . S
C351 C350 1.502 . S
C352 H338 0.960 . S
C352 H339 0.961 . S
C352 H340 0.959 . S
C352 C350 1.561 . S
C353 C350 1.526 . S
C353 C354 1.396 . S
C353 C358 1.390 . S
C354 C348 1.465 . S
C354 C353 1.396 . S
C354 C355 1.399 . S
C355 H341 0.929 . S
C355 C354 1.399 . S
C355 C356 1.385 . S
C356 H342 0.935 . S
C356 C355 1.385 . S
C356 C357 1.389 . S
C357 C356 1.389 . S
C357 C358 1.387 . S
C358 H343 0.930 . S
C358 C353 1.390 . S
C358 C357 1.387 . S
H359 C371 0.930 . S
H360 C373 0.930 . S
H361 C374 0.930 . S
H362 C378 0.959 . S
H363 C378 0.959 . S
H364 C378 0.961 . S
H365 C379 0.960 . S
H366 C379 0.961 . S
H367 C379 0.959 . S
H368 C382 0.929 . S
H369 C383 0.931 . S
H370 C385 0.930 . S
C371 H359 0.930 . S
C371 C372 1.399 . S
C371 C376 1.399 . S
C372 C371 1.399 . S
C372 C373 1.376 . S
C373 H360 0.930 . S
C373 C372 1.376 . S
C373 C374 1.388 . S
C374 H361 0.930 . S
C374 C373 1.388 . S
C374 C375 1.390 . S
C375 C374 1.390 . S
C375 C376 1.394 . S
C375 C381 1.465 . S
C376 C371 1.399 . S
C376 C375 1.394 . S
C376 C377 1.516 . S
C377 C376 1.516 . S
C377 C378 1.502 . S
C377 C379 1.561 . S
C377 C380 1.526 . S
C378 H362 0.959 . S
C378 H363 0.959 . S
C378 H364 0.961 . S
C378 C377 1.502 . S
C379 H365 0.960 . S
C379 H366 0.961 . S
C379 H367 0.959 . S
C379 C377 1.561 . S
C380 C377 1.526 . S
C380 C381 1.396 . S
C380 C385 1.390 . S
C381 C375 1.465 . S
C381 C380 1.396 . S
C381 C382 1.399 . S
C382 H368 0.929 . S
C382 C381 1.399 . S
C382 C383 1.385 . S
C383 H369 0.931 . S
C383 C382 1.385 . S
C383 C384 1.389 . S
C384 C383 1.389 . S
C384 C385 1.387 . S
C385 H370 0.930 . S
C385 C380 1.390 . S
C385 C384 1.387 . S
H386 C398 0.930 . S
H387 C400 0.930 . S
H388 C401 0.930 . S
H389 C405 0.959 . S
H390 C405 0.959 . S
H391 C405 0.961 . S
H392 C406 0.960 . S
H393 C406 0.961 . S
H394 C406 0.959 . S
H395 C409 0.929 . S
H396 C410 0.931 . S
H397 C412 0.930 . S
C398 H386 0.930 . S
C398 C399 1.399 . S
C398 C403 1.399 . S
C399 C398 1.399 . S
C399 C400 1.376 . S
C400 H387 0.930 . S
C400 C399 1.376 . S
C400 C401 1.388 . S
C401 H388 0.930 . S
C401 C400 1.388 . S
C401 C402 1.390 . S
C402 C401 1.390 . S
C402 C403 1.394 . S
C402 C408 1.465 . S
C403 C398 1.399 . S
C403 C402 1.394 . S
C403 C404 1.516 . S
C404 C403 1.516 . S
C404 C405 1.502 . S
C404 C406 1.561 . S
C404 C407 1.526 . S
C405 H389 0.959 . S
C405 H390 0.959 . S
C405 H391 0.961 . S
C405 C404 1.502 . S
C406 H392 0.960 . S
C406 H393 0.961 . S
C406 H394 0.959 . S
C406 C404 1.561 . S
C407 C404 1.526 . S
C407 C408 1.396 . S
C407 C412 1.390 . S
C408 C402 1.465 . S
C408 C407 1.396 . S
C408 C409 1.399 . S
C409 H395 0.929 . S
C409 C408 1.399 . S
C409 C410 1.385 . S
C410 H396 0.931 . S
C410 C409 1.385 . S
C410 C411 1.389 . S
C411 C410 1.389 . S
C411 C412 1.387 . S
C412 H397 0.930 . S
C412 C407 1.390 . S
C412 C411 1.387 . S
H413 C425 0.930 . S
H414 C427 0.930 . S
H415 C428 0.930 . S
H416 C432 0.959 . S
H417 C432 0.959 . S
H418 C432 0.961 . S
H419 C433 0.960 . S
H420 C433 0.961 . S
H421 C433 0.959 . S
H422 C436 0.929 . S
H423 C437 0.931 . S
H424 C439 0.930 . S
C425 H413 0.930 . S
C425 C426 1.399 . S
C425 C430 1.399 . S
C426 C425 1.399 . S
C426 C427 1.376 . S
C427 H414 0.930 . S
C427 C426 1.376 . S
C427 C428 1.388 . S
C428 H415 0.930 . S
C428 C427 1.388 . S
C428 C429 1.390 . S
C429 C428 1.390 . S
C429 C430 1.394 . S
C429 C435 1.465 . S
C430 C425 1.399 . S
C430 C429 1.394 . S
C430 C431 1.516 . S
C431 C430 1.516 . S
C431 C432 1.502 . S
C431 C433 1.561 . S
C431 C434 1.526 . S
C432 H416 0.959 . S
C432 H417 0.959 . S
C432 H418 0.961 . S
C432 C431 1.502 . S
C433 H419 0.960 . S
C433 H420 0.961 . S
C433 H421 0.959 . S
C433 C431 1.561 . S
C434 C431 1.526 . S
C434 C435 1.396 . S
C434 C439 1.390 . S
C435 C429 1.465 . S
C435 C434 1.396 . S
C435 C436 1.399 . S
C436 H422 0.929 . S
C436 C435 1.399 . S
C436 C437 1.385 . S
C437 H423 0.931 . S
C437 C436 1.385 . S
C437 C438 1.389 . S
C438 C437 1.389 . S
C438 C439 1.387 . S
C439 H424 0.930 . S
C439 C434 1.390 . S
C439 C438 1.387 . S
H440 C452 0.930 . S
H441 C454 0.930 . S
H442 C455 0.930 . S
H443 C459 0.959 . S
H444 C459 0.959 . S
H445 C459 0.961 . S
H446 C460 0.960 . S
H447 C460 0.961 . S
H448 C460 0.959 . S
H449 C463 0.929 . S
H450 C464 0.931 . S
H451 C466 0.930 . S
C452 H440 0.930 . S
C452 C453 1.399 . S
C452 C457 1.399 . S
C453 C452 1.399 . S
C453 C454 1.376 . S
C454 H441 0.930 . S
C454 C453 1.376 . S
C454 C455 1.388 . S
C455 H442 0.930 . S
C455 C454 1.388 . S
C455 C456 1.390 . S
C456 C455 1.390 . S
C456 C457 1.394 . S
C456 C462 1.465 . S
C457 C452 1.399 . S
C457 C456 1.394 . S
C457 C458 1.516 . S
C458 C457 1.516 . S
C458 C459 1.502 . S
C458 C460 1.561 . S
C458 C461 1.526 . S
C459 H443 0.959 . S
C459 H444 0.959 . S
C459 H445 0.961 . S
C459 C458 1.502 . S
C460 H446 0.960 . S
C460 H447 0.961 . S
C460 H448 0.959 . S
C460 C458 1.561 . S
C461 C458 1.526 . S
C461 C462 1.396 . S
C461 C466 1.390 . S
C462 C456 1.465 . S
C462 C461 1.396 . S
C462 C463 1.399 . S
C463 H449 0.929 . S
C463 C462 1.399 . S
C463 C464 1.385 . S
C464 H450 0.931 . S
C464 C463 1.385 . S
C464 C465 1.389 . S
C465 C464 1.389 . S
C465 C466 1.387 . S
C466 H451 0.930 . S
C466 C461 1.390 . S
C466 C465 1.387 . S
H467 C479 0.930 . S
H468 C481 0.930 . S
H469 C482 0.930 . S
H470 C486 0.959 . S
H471 C486 0.959 . S
H472 C486 0.961 . S
H473 C487 0.960 . S
H474 C487 0.961 . S
H475 C487 0.959 . S
H476 C490 0.929 . S
H477 C491 0.931 . S
H478 C493 0.930 . S
C479 H467 0.930 . S
C479 C480 1.399 . S
C479 C484 1.399 . S
C480 C479 1.399 . S
C480 C481 1.376 . S
C481 H468 0.930 . S
C481 C480 1.376 . S
C481 C482 1.388 . S
C482 H469 0.930 . S
C482 C481 1.388 . S
C482 C483 1.390 . S
C483 C482 1.390 . S
C483 C484 1.394 . S
C483 C489 1.465 . S
C484 C479 1.399 . S
C484 C483 1.394 . S
C484 C485 1.516 . S
C485 C484 1.516 . S
C485 C486 1.502 . S
C485 C487 1.561 . S
C485 C488 1.526 . S
C486 H470 0.959 . S
C486 H471 0.959 . S
C486 H472 0.961 . S
C486 C485 1.502 . S
C487 H473 0.960 . S
C487 H474 0.961 . S
C487 H475 0.959 . S
C487 C485 1.561 . S
C488 C485 1.526 . S
C488 C489 1.396 . S
C488 C493 1.390 . S
C489 C483 1.465 . S
C489 C488 1.396 . S
C489 C490 1.399 . S
C490 H476 0.929 . S
C490 C489 1.399 . S
C490 C491 1.385 . S
C491 H477 0.931 . S
C491 C490 1.385 . S
C491 C492 1.389 . S
C492 C491 1.389 . S
C492 C493 1.387 . S
C493 H478 0.930 . S
C493 C488 1.390 . S
C493 C492 1.387 . S
H494 C506 0.930 . S
H495 C508 0.930 . S
H496 C509 0.930 . S
H497 C513 0.959 . S
H498 C513 0.959 . S
H499 C513 0.961 . S
H500 C514 0.960 . S
H501 C514 0.961 . S
H502 C514 0.959 . S
H503 C517 0.929 . S
H504 C518 0.931 . S
H505 C520 0.930 . S
C506 H494 0.930 . S
C506 C507 1.399 . S
C506 C511 1.399 . S
C507 C506 1.399 . S
C507 C508 1.376 . S
C508 H495 0.930 . S
C508 C507 1.376 . S
C508 C509 1.388 . S
C509 H496 0.930 . S
C509 C508 1.388 . S
C509 C510 1.390 . S
C510 C509 1.390 . S
C510 C511 1.394 . S
C510 C516 1.465 . S
C511 C506 1.399 . S
C511 C510 1.394 . S
C511 C512 1.516 . S
C512 C511 1.516 . S
C512 C513 1.502 . S
C512 C514 1.561 . S
C512 C515 1.526 . S
C513 H497 0.959 . S
C513 H498 0.959 . S
C513 H499 0.961 . S
C513 C512 1.502 . S
C514 H500 0.960 . S
C514 H501 0.961 . S
C514 H502 0.959 . S
C514 C512 1.561 . S
C515 C512 1.526 . S
C515 C516 1.396 . S
C515 C520 1.390 . S
C516 C510 1.465 . S
C516 C515 1.396 . S
C516 C517 1.399 . S
C517 H503 0.929 . S
C517 C516 1.399 . S
C517 C518 1.385 . S
C518 H504 0.931 . S
C518 C517 1.385 . S
C518 C519 1.389 . S
C519 C518 1.389 . S
C519 C520 1.387 . S
C520 H505 0.930 . S
C520 C515 1.390 . S
C520 C519 1.387 . S
H521 C533 0.930 . S
H522 C535 0.930 . S
H523 C536 0.930 . S
H524 C540 0.959 . S
H525 C540 0.959 . S
H526 C540 0.961 . S
H527 C541 0.960 . S
H528 C541 0.961 . S
H529 C541 0.959 . S
H530 C544 0.929 . S
H531 C545 0.931 . S
H532 C547 0.930 . S
C533 H521 0.930 . S
C533 C534 1.399 . S
C533 C538 1.399 . S
C534 C533 1.399 . S
C534 C535 1.376 . S
C535 H522 0.930 . S
C535 C534 1.376 . S
C535 C536 1.388 . S
C536 H523 0.930 . S
C536 C535 1.388 . S
C536 C537 1.390 . S
C537 C536 1.390 . S
C537 C538 1.394 . S
C537 C543 1.465 . S
C538 C533 1.399 . S
C538 C537 1.394 . S
C538 C539 1.516 . S
C539 C538 1.516 . S
C539 C540 1.502 . S
C539 C541 1.561 . S
C539 C542 1.526 . S
C540 H524 0.959 . S
C540 H525 0.959 . S
C540 H526 0.961 . S
C540 C539 1.502 . S
C541 H527 0.960 . S
C541 H528 0.961 . S
C541 H529 0.959 . S
C541 C539 1.561 . S
C542 C539 1.526 . S
C542 C543 1.396 . S
C542 C547 1.390 . S
C543 C537 1.465 . S
C543 C542 1.396 . S
C543 C544 1.399 . S
C544 H530 0.929 . S
C544 C543 1.399 . S
C544 C545 1.385 . S
C545 H531 0.931 . S
C545 C544 1.385 . S
C545 C546 1.389 . S
C546 C545 1.389 . S
C546 C547 1.387 . S
C547 H532 0.930 . S
C547 C542 1.390 . S
C547 C546 1.387 . S
H548 C560 0.930 . S
H549 C562 0.930 . S
H550 C563 0.930 . S
H551 C567 0.959 . S
H552 C567 0.959 . S
H553 C567 0.961 . S
H554 C568 0.960 . S
H555 C568 0.961 . S
H556 C568 0.959 . S
H557 C571 0.929 . S
H558 C572 0.931 . S
H559 C574 0.930 . S
C560 H548 0.930 . S
C560 C561 1.399 . S
C560 C565 1.399 . S
C561 C560 1.399 . S
C561 C562 1.376 . S
C562 H549 0.930 . S
C562 C561 1.376 . S
C562 C563 1.388 . S
C563 H550 0.930 . S
C563 C562 1.388 . S
C563 C564 1.390 . S
C564 C563 1.390 . S
C564 C565 1.394 . S
C564 C570 1.465 . S
C565 C560 1.399 . S
C565 C564 1.394 . S
C565 C566 1.516 . S
C566 C565 1.516 . S
C566 C567 1.502 . S
C566 C568 1.561 . S
C566 C569 1.526 . S
C567 H551 0.959 . S
C567 H552 0.959 . S
C567 H553 0.961 . S
C567 C566 1.502 . S
C568 H554 0.960 . S
C568 H555 0.961 . S
C568 H556 0.959 . S
C568 C566 1.561 . S
C569 C566 1.526 . S
C569 C570 1.396 . S
C569 C574 1.390 . S
C570 C564 1.465 . S
C570 C569 1.396 . S
C570 C571 1.399 . S
C571 H557 0.929 . S
C571 C570 1.399 . S
C571 C572 1.385 . S
C572 H558 0.931 . S
C572 C571 1.385 . S
C572 C573 1.389 . S
C573 C572 1.389 . S
C573 C574 1.387 . S
C574 H559 0.930 . S
C574 C569 1.390 . S
C574 C573 1.387 . S
H575 C587 0.930 . S
H576 C589 0.930 . S
H577 C590 0.930 . S
H578 C594 0.959 . S
H579 C594 0.959 . S
H580 C594 0.961 . S
H581 C595 0.960 . S
H582 C595 0.961 . S
H583 C595 0.959 . S
H584 C598 0.929 . S
H585 C599 0.931 . S
H586 C601 0.930 . S
C587 H575 0.930 . S
C587 C588 1.399 . S
C587 C592 1.399 . S
C588 C587 1.399 . S
C588 C589 1.376 . S
C589 H576 0.930 . S
C589 C588 1.376 . S
C589 C590 1.388 . S
C590 H577 0.930 . S
C590 C589 1.388 . S
C590 C591 1.390 . S
C591 C590 1.390 . S
C591 C592 1.394 . S
C591 C597 1.465 . S
C592 C587 1.399 . S
C592 C591 1.394 . S
C592 C593 1.516 . S
C593 C592 1.516 . S
C593 C594 1.502 . S
C593 C595 1.561 . S
C593 C596 1.526 . S
C594 H578 0.959 . S
C594 H579 0.959 . S
C594 H580 0.961 . S
C594 C593 1.502 . S
C595 H581 0.960 . S
C595 H582 0.961 . S
C595 H583 0.959 . S
C595 C593 1.561 . S
C596 C593 1.526 . S
C596 C597 1.396 . S
C596 C601 1.390 . S
C597 C591 1.465 . S
C597 C596 1.396 . S
C597 C598 1.399 . S
C598 H584 0.929 . S
C598 C597 1.399 . S
C598 C599 1.385 . S
C599 H585 0.931 . S
C599 C598 1.385 . S
C599 C600 1.389 . S
C600 C599 1.389 . S
C600 C601 1.387 . S
C601 H586 0.930 . S
C601 C596 1.390 . S
C601 C600 1.387 . S
H602 C614 0.930 . S
H603 C616 0.930 . S
H604 C617 0.930 . S
H605 C621 0.959 . S
H606 C621 0.959 . S
H607 C621 0.961 . S
H608 C622 0.960 . S
H609 C622 0.961 . S
H610 C622 0.959 . S
H611 C625 0.929 . S
H612 C626 0.931 . S
H613 C628 0.930 . S
C614 H602 0.930 . S
C614 C615 1.399 . S
C614 C619 1.399 . S
C615 C614 1.399 . S
C615 C616 1.376 . S
C616 H603 0.930 . S
C616 C615 1.376 . S
C616 C617 1.388 . S
C617 H604 0.930 . S
C617 C616 1.388 . S
C617 C618 1.390 . S
C618 C617 1.390 . S
C618 C619 1.394 . S
C618 C624 1.465 . S
C619 C614 1.399 . S
C619 C618 1.394 . S
C619 C620 1.516 . S
C620 C619 1.516 . S
C620 C621 1.502 . S
C620 C622 1.561 . S
C620 C623 1.526 . S
C621 H605 0.959 . S
C621 H606 0.959 . S
C621 H607 0.961 . S
C621 C620 1.502 . S
C622 H608 0.960 . S
C622 H609 0.961 . S
C622 H610 0.959 . S
C622 C620 1.561 . S
C623 C620 1.526 . S
C623 C624 1.396 . S
C623 C628 1.390 . S
C624 C618 1.465 . S
C624 C623 1.396 . S
C624 C625 1.399 . S
C625 H611 0.929 . S
C625 C624 1.399 . S
C625 C626 1.385 . S
C626 H612 0.931 . S
C626 C625 1.385 . S
C626 C627 1.389 . S
C627 C626 1.389 . S
C627 C628 1.387 . S
C628 H613 0.930 . S
C628 C623 1.390 . S
C628 C627 1.387 . S
H629 C641 0.930 . S
H630 C643 0.930 . S
H631 C644 0.930 . S
H632 C648 0.959 . S
H633 C648 0.959 . S
H634 C648 0.961 . S
H635 C649 0.960 . S
H636 C649 0.961 . S
H637 C649 0.959 . S
H638 C652 0.929 . S
H639 C653 0.931 . S
H640 C655 0.930 . S
C641 H629 0.930 . S
C641 C642 1.399 . S
C641 C646 1.399 . S
C642 C641 1.399 . S
C642 C643 1.376 . S
C643 H630 0.930 . S
C643 C642 1.376 . S
C643 C644 1.388 . S
C644 H631 0.930 . S
C644 C643 1.388 . S
C644 C645 1.390 . S
C645 C644 1.390 . S
C645 C646 1.394 . S
C645 C651 1.465 . S
C646 C641 1.399 . S
C646 C645 1.394 . S
C646 C647 1.516 . S
C647 C646 1.516 . S
C647 C648 1.502 . S
C647 C649 1.561 . S
C647 C650 1.526 . S
C648 H632 0.959 . S
C648 H633 0.959 . S
C648 H634 0.961 . S
C648 C647 1.502 . S
C649 H635 0.960 . S
C649 H636 0.961 . S
C649 H637 0.959 . S
C649 C647 1.561 . S
C650 C647 1.526 . S
C650 C651 1.396 . S
C650 C655 1.390 . S
C651 C645 1.465 . S
C651 C650 1.396 . S
C651 C652 1.399 . S
C652 H638 0.929 . S
C652 C651 1.399 . S
C652 C653 1.385 . S
C653 H639 0.931 . S
C653 C652 1.385 . S
C653 C654 1.389 . S
C654 C653 1.389 . S
C654 C655 1.387 . S
C655 H640 0.930 . S
C655 C650 1.390 . S
C655 C654 1.387 . S
H656 C668 0.930 . S
H657 C670 0.930 . S
H658 C671 0.930 . S
H659 C675 0.959 . S
H660 C675 0.959 . S
H661 C675 0.961 . S
H662 C676 0.960 . S
H663 C676 0.961 . S
H664 C676 0.959 . S
H665 C679 0.929 . S
H666 C680 0.931 . S
H667 C682 0.930 . S
C668 H656 0.930 . S
C668 C669 1.399 . S
C668 C673 1.399 . S
C669 C668 1.399 . S
C669 C670 1.376 . S
C670 H657 0.930 . S
C670 C669 1.376 . S
C670 C671 1.388 . S
C671 H658 0.930 . S
C671 C670 1.388 . S
C671 C672 1.390 . S
C672 C671 1.390 . S
C672 C673 1.394 . S
C672 C678 1.465 . S
C673 C668 1.399 . S
C673 C672 1.394 . S
C673 C674 1.516 . S
C674 C673 1.516 . S
C674 C675 1.502 . S
C674 C676 1.561 . S
C674 C677 1.526 . S
C675 H659 0.959 . S
C675 H660 0.959 . S
C675 H661 0.961 . S
C675 C674 1.502 . S
C676 H662 0.960 . S
C676 H663 0.961 . S
C676 H664 0.959 . S
C676 C674 1.561 . S
C677 C674 1.526 . S
C677 C678 1.396 . S
C677 C682 1.390 . S
C678 C672 1.465 . S
C678 C677 1.396 . S
C678 C679 1.399 . S
C679 H665 0.929 . S
C679 C678 1.399 . S
C679 C680 1.385 . S
C680 H666 0.931 . S
C680 C679 1.385 . S
C680 C681 1.389 . S
C681 C680 1.389 . S
C681 C682 1.387 . S
C682 H667 0.930 . S
C682 C677 1.390 . S
C682 C681 1.387 . S
H683 C695 0.930 . S
H684 C697 0.930 . S
H685 C698 0.930 . S
H686 C702 0.959 . S
H687 C702 0.959 . S
H688 C702 0.961 . S
H689 C703 0.960 . S
H690 C703 0.961 . S
H691 C703 0.959 . S
H692 C706 0.929 . S
H693 C707 0.931 . S
H694 C709 0.930 . S
C695 H683 0.930 . S
C695 C696 1.399 . S
C695 C700 1.399 . S
C696 C695 1.399 . S
C696 C697 1.376 . S
C697 H684 0.930 . S
C697 C696 1.376 . S
C697 C698 1.388 . S
C698 H685 0.930 . S
C698 C697 1.388 . S
C698 C699 1.390 . S
C699 C698 1.390 . S
C699 C700 1.394 . S
C699 C705 1.465 . S
C700 C695 1.399 . S
C700 C699 1.394 . S
C700 C701 1.516 . S
C701 C700 1.516 . S
C701 C702 1.502 . S
C701 C703 1.561 . S
C701 C704 1.526 . S
C702 H686 0.959 . S
C702 H687 0.959 . S
C702 H688 0.961 . S
C702 C701 1.502 . S
C703 H689 0.960 . S
C703 H690 0.961 . S
C703 H691 0.959 . S
C703 C701 1.561 . S
C704 C701 1.526 . S
C704 C705 1.396 . S
C704 C709 1.390 . S
C705 C699 1.465 . S
C705 C704 1.396 . S
C705 C706 1.399 . S
C706 H692 0.929 . S
C706 C705 1.399 . S
C706 C707 1.385 . S
C707 H693 0.931 . S
C707 C706 1.385 . S
C707 C708 1.389 . S
C708 C707 1.389 . S
C708 C709 1.387 . S
C709 H694 0.930 . S
C709 C704 1.390 . S
C709 C708 1.387 . S
H710 C722 0.930 . S
H711 C724 0.930 . S
H712 C725 0.930 . S
H713 C729 0.959 . S
H714 C729 0.959 . S
H715 C729 0.961 . S
H716 C730 0.960 . S
H717 C730 0.961 . S
H718 C730 0.959 . S
H719 C733 0.929 . S
H720 C734 0.931 . S
H721 C736 0.930 . S
C722 H710 0.930 . S
C722 C723 1.399 . S
C722 C727 1.399 . S
C723 C722 1.399 . S
C723 C724 1.376 . S
C724 H711 0.930 . S
C724 C723 1.376 . S
C724 C725 1.388 . S
C725 H712 0.930 . S
C725 C724 1.388 . S
C725 C726 1.390 . S
C726 C725 1.390 . S
C726 C727 1.394 . S
C726 C732 1.465 . S
C727 C722 1.399 . S
C727 C726 1.394 . S
C727 C728 1.516 . S
C728 C727 1.516 . S
C728 C729 1.502 . S
C728 C730 1.561 . S
C728 C731 1.526 . S
C729 H713 0.959 . S
C729 H714 0.959 . S
C729 H715 0.961 . S
C729 C728 1.502 . S
C730 H716 0.960 . S
C730 H717 0.961 . S
C730 H718 0.959 . S
C730 C728 1.561 . S
C731 C728 1.526 . S
C731 C732 1.396 . S
C731 C736 1.390 . S
C732 C726 1.465 . S
C732 C731 1.396 . S
C732 C733 1.399 . S
C733 H719 0.929 . S
C733 C732 1.399 . S
C733 C734 1.385 . S
C734 H720 0.931 . S
C734 C733 1.385 . S
C734 C735 1.389 . S
C735 C734 1.389 . S
C735 C736 1.387 . S
C736 H721 0.930 . S
C736 C731 1.390 . S
C736 C735 1.387 . S
H737 C749 0.930 . S
H738 C751 0.930 . S
H739 C752 0.930 . S
H740 C756 0.959 . S
H741 C756 0.959 . S
H742 C756 0.961 . S
H743 C757 0.960 . S
H744 C757 0.961 . S
H745 C757 0.959 . S
H746 C760 0.929 . S
H747 C761 0.931 . S
H748 C763 0.930 . S
C749 H737 0.930 . S
C749 C750 1.399 . S
C749 C754 1.399 . S
C750 C749 1.399 . S
C750 C751 1.376 . S
C751 H738 0.930 . S
C751 C750 1.376 . S
C751 C752 1.388 . S
C752 H739 0.930 . S
C752 C751 1.388 . S
C752 C753 1.390 . S
C753 C752 1.390 . S
C753 C754 1.394 . S
C753 C759 1.465 . S
C754 C749 1.399 . S
C754 C753 1.394 . S
C754 C755 1.516 . S
C755 C754 1.516 . S
C755 C756 1.502 . S
C755 C757 1.561 . S
C755 C758 1.526 . S
C756 H740 0.959 . S
C756 H741 0.959 . S
C756 H742 0.961 . S
C756 C755 1.502 . S
C757 H743 0.960 . S
C757 H744 0.961 . S
C757 H745 0.959 . S
C757 C755 1.561 . S
C758 C755 1.526 . S
C758 C759 1.396 . S
C758 C763 1.390 . S
C759 C753 1.465 . S
C759 C758 1.396 . S
C759 C760 1.399 . S
C760 H746 0.929 . S
C760 C759 1.399 . S
C760 C761 1.385 . S
C761 H747 0.931 . S
C761 C760 1.385 . S
C761 C762 1.389 . S
C762 C761 1.389 . S
C762 C763 1.387 . S
C763 H748 0.930 . S
C763 C758 1.390 . S
C763 C762 1.387 . S
H764 C776 0.930 . S
H765 C778 0.930 . S
H766 C779 0.930 . S
H767 C783 0.959 . S
H768 C783 0.959 . S
H769 C783 0.961 . S
H770 C784 0.960 . S
H771 C784 0.961 . S
H772 C784 0.959 . S
H773 C787 0.929 . S
H774 C788 0.931 . S
H775 C790 0.930 . S
C776 H764 0.930 . S
C776 C777 1.399 . S
C776 C781 1.399 . S
C777 C776 1.399 . S
C777 C778 1.376 . S
C778 H765 0.930 . S
C778 C777 1.376 . S
C778 C779 1.388 . S
C779 H766 0.930 . S
C779 C778 1.388 . S
C779 C780 1.390 . S
C780 C779 1.390 . S
C780 C781 1.394 . S
C780 C786 1.465 . S
C781 C776 1.399 . S
C781 C780 1.394 . S
C781 C782 1.516 . S
C782 C781 1.516 . S
C782 C783 1.502 . S
C782 C784 1.561 . S
C782 C785 1.526 . S
C783 H767 0.959 . S
C783 H768 0.959 . S
C783 H769 0.961 . S
C783 C782 1.502 . S
C784 H770 0.960 . S
C784 H771 0.961 . S
C784 H772 0.959 . S
C784 C782 1.561 . S
C785 C782 1.526 . S
C785 C786 1.396 . S
C785 C790 1.390 . S
C786 C780 1.465 . S
C786 C785 1.396 . S
C786 C787 1.399 . S
C787 H773 0.929 . S
C787 C786 1.399 . S
C787 C788 1.385 . S
C788 H774 0.931 . S
C788 C787 1.385 . S
C788 C789 1.389 . S
C789 C788 1.389 . S
C789 C790 1.387 . S
C790 H775 0.930 . S
C790 C785 1.390 . S
C790 C789 1.387 . S
H791 C803 0.930 . S
H792 C805 0.930 . S
H793 C806 0.930 . S
H794 C810 0.959 . S
H795 C810 0.959 . S
H796 C810 0.961 . S
H797 C811 0.960 . S
H798 C811 0.961 . S
H799 C811 0.959 . S
H800 C814 0.929 . S
H801 C815 0.931 . S
H802 C817 0.930 . S
C803 H791 0.930 . S
C803 C804 1.399 . S
C803 C808 1.399 . S
C804 C803 1.399 . S
C804 C805 1.376 . S
C805 H792 0.930 . S
C805 C804 1.376 . S
C805 C806 1.388 . S
C806 H793 0.930 . S
C806 C805 1.388 . S
C806 C807 1.390 . S
C807 C806 1.390 . S
C807 C808 1.394 . S
C807 C813 1.465 . S
C808 C803 1.399 . S
C808 C807 1.394 . S
C808 C809 1.516 . S
C809 C808 1.516 . S
C809 C810 1.502 . S
C809 C811 1.561 . S
C809 C812 1.526 . S
C810 H794 0.959 . S
C810 H795 0.959 . S
C810 H796 0.961 . S
C810 C809 1.502 . S
C811 H797 0.960 . S
C811 H798 0.961 . S
C811 H799 0.959 . S
C811 C809 1.561 . S
C812 C809 1.526 . S
C812 C813 1.396 . S
C812 C817 1.390 . S
C813 C807 1.465 . S
C813 C812 1.396 . S
C813 C814 1.399 . S
C814 H800 0.929 . S
C814 C813 1.399 . S
C814 C815 1.385 . S
C815 H801 0.931 . S
C815 C814 1.385 . S
C815 C816 1.389 . S
C816 C815 1.389 . S
C816 C817 1.387 . S
C817 H802 0.930 . S
C817 C812 1.390 . S
C817 C816 1.387 . S
H818 C830 0.930 . S
H819 C832 0.930 . S
H820 C833 0.930 . S
H821 C837 0.959 . S
H822 C837 0.959 . S
H823 C837 0.961 . S
H824 C838 0.960 . S
H825 C838 0.961 . S
H826 C838 0.959 . S
H827 C841 0.929 . S
H828 C842 0.931 . S
H829 C844 0.930 . S
C830 H818 0.930 . S
C830 C831 1.399 . S
C830 C835 1.399 . S
C831 C830 1.399 . S
C831 C832 1.376 . S
C832 H819 0.930 . S
C832 C831 1.376 . S
C832 C833 1.388 . S
C833 H820 0.930 . S
C833 C832 1.388 . S
C833 C834 1.390 . S
C834 C833 1.390 . S
C834 C835 1.394 . S
C834 C840 1.465 . S
C835 C830 1.399 . S
C835 C834 1.394 . S
C835 C836 1.516 . S
C836 C835 1.516 . S
C836 C837 1.502 . S
C836 C838 1.561 . S
C836 C839 1.526 . S
C837 H821 0.959 . S
C837 H822 0.959 . S
C837 H823 0.961 . S
C837 C836 1.502 . S
C838 H824 0.960 . S
C838 H825 0.961 . S
C838 H826 0.959 . S
C838 C836 1.561 . S
C839 C836 1.526 . S
C839 C840 1.396 . S
C839 C844 1.390 . S
C840 C834 1.465 . S
C840 C839 1.396 . S
C840 C841 1.399 . S
C841 H827 0.929 . S
C841 C840 1.399 . S
C841 C842 1.385 . S
C842 H828 0.931 . S
C842 C841 1.385 . S
C842 C843 1.389 . S
C843 C842 1.389 . S
C843 C844 1.387 . S
C844 H829 0.930 . S
C844 C839 1.390 . S
C844 C843 1.387 . S
H845 C857 0.930 . S
H846 C859 0.930 . S
H847 C860 0.930 . S
H848 C864 0.959 . S
H849 C864 0.959 . S
H850 C864 0.961 . S
H851 C865 0.960 . S
H852 C865 0.961 . S
H853 C865 0.959 . S
H854 C868 0.929 . S
H855 C869 0.931 . S
H856 C871 0.930 . S
C857 H845 0.930 . S
C857 C858 1.399 . S
C857 C862 1.399 . S
C858 C857 1.399 . S
C858 C859 1.376 . S
C859 H846 0.930 . S
C859 C858 1.376 . S
C859 C860 1.388 . S
C860 H847 0.930 . S
C860 C859 1.388 . S
C860 C861 1.390 . S
C861 C860 1.390 . S
C861 C862 1.394 . S
C861 C867 1.465 . S
C862 C857 1.399 . S
C862 C861 1.394 . S
C862 C863 1.516 . S
C863 C862 1.516 . S
C863 C864 1.502 . S
C863 C865 1.561 . S
C863 C866 1.526 . S
C864 H848 0.959 . S
C864 H849 0.959 . S
C864 H850 0.961 . S
C864 C863 1.502 . S
C865 H851 0.960 . S
C865 H852 0.961 . S
C865 H853 0.959 . S
C865 C863 1.561 . S
C866 C863 1.526 . S
C866 C867 1.396 . S
C866 C871 1.390 . S
C867 C861 1.465 . S
C867 C866 1.396 . S
C867 C868 1.399 . S
C868 H854 0.929 . S
C868 C867 1.399 . S
C868 C869 1.385 . S
C869 H855 0.931 . S
C869 C868 1.385 . S
C869 C870 1.389 . S
C870 C869 1.389 . S
C870 C871 1.387 . S
C871 H856 0.930 . S
C871 C866 1.390 . S
C871 C870 1.387 . S
H872 C884 0.930 . S
H873 C886 0.930 . S
H874 C887 0.930 . S
H875 C891 0.959 . S
H876 C891 0.959 . S
H877 C891 0.961 1_554 S
H878 C892 0.960 1_554 S
H879 C892 0.961 . S
H880 C892 0.959 . S
H881 C895 0.929 . S
H882 C896 0.931 . S
H883 C898 0.930 . S
C884 H872 0.930 . S
C884 C885 1.399 . S
C884 C889 1.399 . S
C885 C884 1.399 . S
C885 C886 1.376 . S
C886 H873 0.930 . S
C886 C885 1.376 . S
C886 C887 1.388 . S
C887 H874 0.930 . S
C887 C886 1.388 . S
C887 C888 1.390 . S
C888 C887 1.390 . S
C888 C889 1.394 . S
C888 C894 1.465 1_554 S
C889 C884 1.399 . S
C889 C888 1.394 . S
C889 C890 1.516 1_554 S
C890 C889 1.516 1_556 S
C890 C891 1.502 . S
C890 C892 1.561 . S
C890 C893 1.526 . S
C891 H875 0.959 . S
C891 H876 0.959 . S
C891 H877 0.961 1_556 S
C891 C890 1.502 . S
C892 H878 0.960 1_556 S
C892 H879 0.961 . S
C892 H880 0.959 . S
C892 C890 1.561 . S
C893 C890 1.526 . S
C893 C894 1.396 . S
C893 C898 1.390 . S
C894 C888 1.465 1_556 S
C894 C893 1.396 . S
C894 C895 1.399 . S
C895 H881 0.929 . S
C895 C894 1.399 . S
C895 C896 1.385 . S
C896 H882 0.931 . S
C896 C895 1.385 . S
C896 C897 1.389 . S
C897 C896 1.389 . S
C897 C898 1.387 . S
C898 H883 0.930 . S
C898 C893 1.390 . S
C898 C897 1.387 . S
H899 C911 0.930 . S
H900 C913 0.930 . S
H901 C914 0.930 . S
H902 C918 0.959 . S
H903 C918 0.959 . S
H904 C918 0.961 . S
H905 C919 0.960 . S
H906 C919 0.961 . S
H907 C919 0.959 . S
H908 C922 0.929 . S
H909 C923 0.931 . S
H910 C925 0.930 . S
C911 H899 0.930 . S
C911 C912 1.399 . S
C911 C916 1.399 . S
C912 C911 1.399 . S
C912 C913 1.376 . S
C913 H900 0.930 . S
C913 C912 1.376 . S
C913 C914 1.388 . S
C914 H901 0.930 . S
C914 C913 1.388 . S
C914 C915 1.390 . S
C915 C914 1.390 . S
C915 C916 1.394 . S
C915 C921 1.465 . S
C916 C911 1.399 . S
C916 C915 1.394 . S
C916 C917 1.516 . S
C917 C916 1.516 . S
C917 C918 1.502 . S
C917 C919 1.561 . S
C917 C920 1.526 . S
C918 H902 0.959 . S
C918 H903 0.959 . S
C918 H904 0.961 . S
C918 C917 1.502 . S
C919 H905 0.960 . S
C919 H906 0.961 . S
C919 H907 0.959 . S
C919 C917 1.561 . S
C920 C917 1.526 . S
C920 C921 1.396 . S
C920 C925 1.390 . S
C921 C915 1.465 . S
C921 C920 1.396 . S
C921 C922 1.399 . S
C922 H908 0.929 . S
C922 C921 1.399 . S
C922 C923 1.385 . S
C923 H909 0.931 . S
C923 C922 1.385 . S
C923 C924 1.389 . S
C924 C923 1.389 . S
C924 C925 1.387 . S
C925 H910 0.930 . S
C925 C920 1.390 . S
C925 C924 1.387 . S
H926 C938 0.930 . S
H927 C940 0.930 . S
H928 C941 0.923 1_455 S
H929 C945 0.959 . S
H930 C945 0.959 . S
H931 C945 0.961 1_554 S
H932 C946 0.960 1_554 S
H933 C946 0.961 . S
H934 C946 0.959 . S
H935 C949 0.930 . S
H936 C950 0.931 . S
H937 C952 0.930 . S
C938 H926 0.930 . S
C938 C939 1.399 . S
C938 C943 1.399 . S
C939 C938 1.399 . S
C939 C940 1.376 . S
C940 H927 0.930 . S
C940 C939 1.376 . S
C940 C941 1.388 . S
C941 H928 0.923 1_655 S
C941 C940 1.388 . S
C941 C942 1.390 . S
C942 C941 1.390 . S
C942 C943 1.394 . S
C942 C948 1.465 1_554 S
C943 C938 1.399 . S
C943 C942 1.394 . S
C943 C944 1.516 1_554 S
C944 C943 1.516 1_556 S
C944 C945 1.502 . S
C944 C946 1.561 . S
C944 C947 1.526 . S
C945 H929 0.959 . S
C945 H930 0.959 . S
C945 H931 0.961 1_556 S
C945 C944 1.502 . S
C946 H932 0.960 1_556 S
C946 H933 0.961 . S
C946 H934 0.959 . S
C946 C944 1.561 . S
C947 C944 1.526 . S
C947 C948 1.396 . S
C947 C952 1.390 . S
C948 C942 1.465 1_556 S
C948 C947 1.396 . S
C948 C949 1.399 . S
C949 H935 0.930 . S
C949 C948 1.399 . S
C949 C950 1.385 . S
C950 H936 0.931 . S
C950 C949 1.385 . S
C950 C951 1.389 . S
C951 C950 1.389 . S
C951 C952 1.387 . S
C952 H937 0.930 . S
C952 C947 1.390 . S
C952 C951 1.387 . S
H953 C965 0.930 1_545 S
H954 C967 0.930 . S
H955 C968 0.930 . S
H956 C972 0.930 1_565 S
H957 C972 0.959 . S
H958 C972 0.961 . S
H959 C973 0.960 . S
H960 C973 0.961 . S
H961 C973 0.959 . S
H962 C976 0.929 . S
H963 C977 0.931 . S
H964 C979 0.930 1_545 S
C965 H953 0.930 1_565 S
C965 C966 1.399 . S
C965 C970 1.399 . S
C966 C965 1.399 . S
C966 C967 1.376 . S
C967 H954 0.930 . S
C967 C966 1.376 . S
C967 C968 1.388 . S
C968 H955 0.930 . S
C968 C967 1.388 . S
C968 C969 1.390 . S
C969 C968 1.390 . S
C969 C970 1.394 . S
C969 C975 1.465 . S
C970 C965 1.399 . S
C970 C969 1.394 . S
C970 C971 1.516 1_565 S
C971 C970 1.516 1_545 S
C971 C972 1.502 . S
C971 C973 1.561 . S
C971 C974 1.526 1_545 S
C972 H956 0.930 1_545 S
C972 H957 0.959 . S
C972 H958 0.961 . S
C972 C971 1.502 . S
C973 H959 0.960 . S
C973 H960 0.961 . S
C973 H961 0.959 . S
C973 C971 1.561 . S
C974 C971 1.526 1_565 S
C974 C975 1.396 . S
C974 C979 1.390 . S
C975 C969 1.465 . S
C975 C974 1.396 . S
C975 C976 1.399 . S
C976 H962 0.929 . S
C976 C975 1.399 . S
C976 C977 1.385 . S
C977 H963 0.931 . S
C977 C976 1.385 . S
C977 C978 1.389 . S
C978 C977 1.389 . S
C978 C979 1.387 . S
C979 H964 0.930 1_565 S
C979 C974 1.390 . S
C979 C978 1.387 . S
H980 C992 0.930 . S
H981 C994 0.930 . S
H982 C995 0.930 . S
H983 C999 0.959 . S
H984 C999 0.959 1_554 S
H985 C999 0.961 . S
H986 C1000 0.960 . S
H987 C1000 0.961 1_554 S
H988 C1000 0.959 . S
H989 C1003 0.929 . S
H990 C1004 0.931 . S
H991 C1006 0.930 . S
C992 H980 0.930 . S
C992 C993 1.399 . S
C992 C997 1.399 . S
C993 C992 1.399 . S
C993 C994 1.376 . S
C994 H981 0.930 . S
C994 C993 1.376 . S
C994 C995 1.388 . S
C995 H982 0.930 . S
C995 C994 1.388 . S
C995 C996 1.390 . S
C996 C995 1.390 . S
C996 C997 1.394 . S
C996 C1002 1.465 1_556 S
C997 C992 1.399 . S
C997 C996 1.394 . S
C997 C998 1.516 . S
C998 C997 1.516 . S
C998 C999 1.502 . S
C998 C1000 1.561 . S
C998 C1001 1.526 1_556 S
C999 H983 0.959 . S
C999 H984 0.959 1_556 S
C999 H985 0.961 . S
C999 C998 1.502 . S
C1000 H986 0.960 . S
C1000 H987 0.961 1_556 S
C1000 H988 0.959 . S
C1000 C998 1.561 . S
C1001 C998 1.526 1_554 S
C1001 C1002 1.396 . S
C1001 C1006 1.390 . S
C1002 C996 1.465 1_554 S
C1002 C1001 1.396 . S
C1002 C1003 1.399 . S
C1003 H989 0.929 . S
C1003 C1002 1.399 . S
C1003 C1004 1.385 . S
C1004 H990 0.931 . S
C1004 C1003 1.385 . S
C1004 C1005 1.389 . S
C1005 C1004 1.389 . S
C1005 C1006 1.387 . S
C1006 H991 0.930 . S
C1006 C1001 1.390 . S
C1006 C1005 1.387 . S
H1007 C1019 0.930 . S
H1008 C1021 0.930 . S
H1009 C1022 0.930 . S
H1010 C1026 0.959 . S
H1011 C1026 0.959 . S
H1012 C1026 0.961 . S
H1013 C1027 0.960 . S
H1014 C1027 0.961 . S
H1015 C1027 0.959 . S
H1016 C1030 0.929 . S
H1017 C1031 0.931 . S
H1018 C1033 0.930 . S
C1019 H1007 0.930 . S
C1019 C1020 1.399 . S
C1019 C1024 1.399 . S
C1020 C1019 1.399 . S
C1020 C1021 1.376 . S
C1021 H1008 0.930 . S
C1021 C1020 1.376 . S
C1021 C1022 1.388 . S
C1022 H1009 0.930 . S
C1022 C1021 1.388 . S
C1022 C1023 1.390 . S
C1023 C1022 1.390 . S
C1023 C1024 1.394 . S
C1023 C1029 1.465 . S
C1024 C1019 1.399 . S
C1024 C1023 1.394 . S
C1024 C1025 1.516 . S
C1025 C1024 1.516 . S
C1025 C1026 1.502 . S
C1025 C1027 1.561 . S
C1025 C1028 1.526 . S
C1026 H1010 0.959 . S
C1026 H1011 0.959 . S
C1026 H1012 0.961 . S
C1026 C1025 1.502 . S
C1027 H1013 0.960 . S
C1027 H1014 0.961 . S
C1027 H1015 0.959 . S
C1027 C1025 1.561 . S
C1028 C1025 1.526 . S
C1028 C1029 1.396 . S
C1028 C1033 1.390 . S
C1029 C1023 1.465 . S
C1029 C1028 1.396 . S
C1029 C1030 1.399 . S
C1030 H1016 0.929 . S
C1030 C1029 1.399 . S
C1030 C1031 1.385 . S
C1031 H1017 0.931 . S
C1031 C1030 1.385 . S
C1031 C1032 1.389 . S
C1032 C1031 1.389 . S
C1032 C1033 1.387 . S
C1033 H1018 0.930 . S
C1033 C1028 1.390 . S
C1033 C1032 1.387 . S
H1034 C1046 0.930 . S
H1035 C1048 0.930 . S
H1036 C1049 0.930 1_655 S
H1037 C1053 0.959 . S
H1038 C1053 0.959 1_556 S
H1039 C1053 0.961 . S
H1040 C1054 0.960 . S
H1041 C1054 0.961 1_556 S
H1042 C1054 0.959 . S
H1043 C1057 0.929 1_655 S
H1044 C1058 0.931 . S
H1045 C1060 0.930 . S
C1046 H1034 0.930 . S
C1046 C1047 1.399 . S
C1046 C1051 1.399 . S
C1047 C1046 1.399 . S
C1047 C1048 1.376 . S
C1048 H1035 0.930 . S
C1048 C1047 1.376 . S
C1048 C1049 1.388 . S
C1049 H1036 0.930 1_455 S
C1049 C1048 1.388 . S
C1049 C1050 1.390 . S
C1050 C1049 1.390 . S
C1050 C1051 1.394 . S
C1050 C1056 1.465 1_554 S
C1051 C1046 1.399 . S
C1051 C1050 1.394 . S
C1051 C1052 1.516 . S
C1052 C1051 1.516 . S
C1052 C1053 1.502 . S
C1052 C1054 1.561 . S
C1052 C1055 1.526 1_554 S
C1053 H1037 0.959 . S
C1053 H1038 0.959 1_554 S
C1053 H1039 0.961 . S
C1053 C1052 1.502 . S
C1054 H1040 0.960 . S
C1054 H1041 0.961 1_554 S
C1054 H1042 0.959 . S
C1054 C1052 1.561 . S
C1055 C1052 1.526 1_556 S
C1055 C1056 1.396 . S
C1055 C1060 1.390 . S
C1056 C1050 1.465 1_556 S
C1056 C1055 1.396 . S
C1056 C1057 1.399 . S
C1057 H1043 0.929 1_455 S
C1057 C1056 1.399 . S
C1057 C1058 1.385 . S
C1058 H1044 0.931 . S
C1058 C1057 1.385 . S
C1058 C1059 1.389 . S
C1059 C1058 1.389 . S
C1059 C1060 1.387 . S
C1060 H1045 0.930 . S
C1060 C1055 1.390 . S
C1060 C1059 1.387 . S
H1061 C1073 0.930 . S
H1062 C1075 0.930 1_565 S
H1063 C1076 0.930 . S
H1064 C1080 0.959 . S
H1065 C1080 0.959 . S
H1066 C1080 0.961 . S
H1067 C1081 0.960 . S
H1068 C1081 0.961 . S
H1069 C1081 0.959 . S
H1070 C1084 0.929 . S
H1071 C1085 0.931 1_565 S
H1072 C1087 0.930 . S
C1073 H1061 0.930 . S
C1073 C1074 1.399 . S
C1073 C1078 1.399 . S
C1074 C1073 1.399 . S
C1074 C1075 1.376 . S
C1075 H1062 0.930 1_545 S
C1075 C1074 1.376 . S
C1075 C1076 1.388 1_545 S
C1076 H1063 0.930 . S
C1076 C1075 1.388 1_565 S
C1076 C1077 1.390 1_565 S
C1077 C1076 1.390 1_545 S
C1077 C1078 1.394 . S
C1077 C1083 1.465 . S
C1078 C1073 1.399 . S
C1078 C1077 1.394 . S
C1078 C1079 1.516 . S
C1079 C1078 1.516 . S
C1079 C1080 1.502 . S
C1079 C1081 1.561 . S
C1079 C1082 1.526 . S
C1080 H1064 0.959 . S
C1080 H1065 0.959 . S
C1080 H1066 0.961 . S
C1080 C1079 1.502 . S
C1081 H1067 0.960 . S
C1081 H1068 0.961 . S
C1081 H1069 0.959 . S
C1081 C1079 1.561 . S
C1082 C1079 1.526 . S
C1082 C1083 1.396 . S
C1082 C1087 1.390 . S
C1083 C1077 1.465 . S
C1083 C1082 1.396 . S
C1083 C1084 1.399 1_545 S
C1084 H1070 0.929 . S
C1084 C1083 1.399 1_565 S
C1084 C1085 1.385 1_565 S
C1085 H1071 0.931 1_545 S
C1085 C1084 1.385 1_545 S
C1085 C1086 1.389 . S
C1086 C1085 1.389 . S
C1086 C1087 1.387 . S
C1087 H1072 0.930 . S
C1087 C1082 1.390 . S
C1087 C1086 1.387 . S
C237 C7 1.379 . S
C249 C104 1.443 . S
C264 C20 1.376 . S
C276 C63 1.442 . S
C291 C35 1.440 . S
C303 C76 1.376 . S
C318 C48 1.375 . S
C330 C91 1.438 . S
C345 C118 1.427 . S
C357 C216 1.387 . S
C372 C174 1.437 . S
C384 C132 1.379 . S
C399 C146 1.441 . S
C411 C188 1.377 . S
C426 C160 1.439 . S
C438 C202 1.378 . S
C453 C8 1.543 . S
C465 C134 1.568 . S
C480 C23 1.527 . S
C492 C148 1.579 . S
C507 C162 1.595 . S
C519 C36 1.572 . S
C534 C51 1.577 . S
C546 C120 1.582 . S
C561 C64 1.523 . S
C573 C218 1.572 . S
C588 C176 1.594 . S
C600 C79 1.579 . S
C615 C190 1.567 . S
C627 C92 1.542 . S
C642 C204 1.595 . S
C654 C107 1.575 . S
C669 C22 1.583 . S
C681 C121 1.525 . S
C696 C37 1.594 . S
C708 C135 1.566 . S
C723 C149 1.536 . S
C735 C50 1.592 . S
C750 C9 1.586 . S
C762 C163 1.527 . S
C777 C177 1.567 . S
C789 C106 1.569 . S
C804 C191 1.535 . S
C816 C65 1.570 . S
C831 C78 1.588 . S
C843 C205 1.578 . S
C858 C93 1.580 . S
C870 C219 1.582 . S
C885 C6 1.573 . S
C897 C62 1.546 . S
C912 C77 1.543 . S
C924 C21 1.571 . S
C939 C34 1.573 . S
C951 C90 1.547 . S
C966 C105 1.522 . S
C978 C49 1.500 . S
C993 C119 1.553 . S
C1005 C175 1.564 . S
C1020 C189 1.505 . S
C1032 C133 1.515 . S
C1047 C203 1.560 . S
C1059 C147 1.569 . S
C1074 C217 1.568 . S
C1086 C161 1.558 . S
