# Generated by pormake.
# Topology unv, (4)-cn, num edge types: 1
# Building blocks:
#     Node 0, Type 0, BuildingBlock: KUFVIS_clean_sbu_0, # of connection points: 4
#     Node 1, Type 0, BuildingBlock: KUFVIS_clean_sbu_0, # of connection points: 4
#     Node 2, Type 0, BuildingBlock: KUFVIS_clean_sbu_0, # of connection points: 4
#     Node 3, Type 0, BuildingBlock: KUFVIS_clean_sbu_0, # of connection points: 4
#     Node 4, Type 0, BuildingBlock: KUFVIS_clean_sbu_0, # of connection points: 4
#     Node 5, Type 0, BuildingBlock: KUFVIS_clean_sbu_0, # of connection points: 4
#     Node 6, Type 0, BuildingBlock: KUFVIS_clean_sbu_0, # of connection points: 4
#     Node 7, Type 0, BuildingBlock: KUFVIS_clean_sbu_0, # of connection points: 4
#     Node 8, Type 0, BuildingBlock: KUFVIS_clean_sbu_0, # of connection points: 4
#     Node 9, Type 0, BuildingBlock: KUFVIS_clean_sbu_0, # of connection points: 4
#     Node 10, Type 0, BuildingBlock: KUFVIS_clean_sbu_0, # of connection points: 4
#     Node 11, Type 0, BuildingBlock: KUFVIS_clean_sbu_0, # of connection points: 4
#     Node 12, Type 0, BuildingBlock: KUFVIS_clean_sbu_0, # of connection points: 4
#     Node 13, Type 0, BuildingBlock: KUFVIS_clean_sbu_0, # of connection points: 4
#     Node 14, Type 0, BuildingBlock: KUFVIS_clean_sbu_0, # of connection points: 4
#     Node 15, Type 0, BuildingBlock: KUFVIS_clean_sbu_0, # of connection points: 4
#     Node 16, Type 0, BuildingBlock: KUFVIS_clean_sbu_0, # of connection points: 4
#     Node 17, Type 0, BuildingBlock: KUFVIS_clean_sbu_0, # of connection points: 4
#     Node 18, Type 0, BuildingBlock: KUFVIS_clean_sbu_0, # of connection points: 4
#     Node 19, Type 0, BuildingBlock: KUFVIS_clean_sbu_0, # of connection points: 4
#     Node 20, Type 0, BuildingBlock: KUFVIS_clean_sbu_0, # of connection points: 4
#     Node 21, Type 0, BuildingBlock: KUFVIS_clean_sbu_0, # of connection points: 4
#     Node 22, Type 0, BuildingBlock: KUFVIS_clean_sbu_0, # of connection points: 4
#     Node 23, Type 0, BuildingBlock: KUFVIS_clean_sbu_0, # of connection points: 4
#     Edge 24, Type (0, 0), BuildingBlock: EZIPEK_clean_linker_0, # of connection points: 2
#     Edge 25, Type (0, 0), BuildingBlock: EZIPEK_clean_linker_0, # of connection points: 2
#     Edge 26, Type (0, 0), BuildingBlock: EZIPEK_clean_linker_0, # of connection points: 2
#     Edge 27, Type (0, 0), BuildingBlock: EZIPEK_clean_linker_0, # of connection points: 2
#     Edge 28, Type (0, 0), BuildingBlock: EZIPEK_clean_linker_0, # of connection points: 2
#     Edge 29, Type (0, 0), BuildingBlock: EZIPEK_clean_linker_0, # of connection points: 2
#     Edge 30, Type (0, 0), BuildingBlock: EZIPEK_clean_linker_0, # of connection points: 2
#     Edge 31, Type (0, 0), BuildingBlock: EZIPEK_clean_linker_0, # of connection points: 2
#     Edge 32, Type (0, 0), BuildingBlock: EZIPEK_clean_linker_0, # of connection points: 2
#     Edge 33, Type (0, 0), BuildingBlock: EZIPEK_clean_linker_0, # of connection points: 2
#     Edge 34, Type (0, 0), BuildingBlock: EZIPEK_clean_linker_0, # of connection points: 2
#     Edge 35, Type (0, 0), BuildingBlock: EZIPEK_clean_linker_0, # of connection points: 2
#     Edge 36, Type (0, 0), BuildingBlock: EZIPEK_clean_linker_0, # of connection points: 2
#     Edge 37, Type (0, 0), BuildingBlock: EZIPEK_clean_linker_0, # of connection points: 2
#     Edge 38, Type (0, 0), BuildingBlock: EZIPEK_clean_linker_0, # of connection points: 2
#     Edge 39, Type (0, 0), BuildingBlock: EZIPEK_clean_linker_0, # of connection points: 2
#     Edge 40, Type (0, 0), BuildingBlock: EZIPEK_clean_linker_0, # of connection points: 2
#     Edge 41, Type (0, 0), BuildingBlock: EZIPEK_clean_linker_0, # of connection points: 2
#     Edge 42, Type (0, 0), BuildingBlock: EZIPEK_clean_linker_0, # of connection points: 2
#     Edge 43, Type (0, 0), BuildingBlock: EZIPEK_clean_linker_0, # of connection points: 2
#     Edge 44, Type (0, 0), BuildingBlock: EZIPEK_clean_linker_0, # of connection points: 2
#     Edge 45, Type (0, 0), BuildingBlock: EZIPEK_clean_linker_0, # of connection points: 2
#     Edge 46, Type (0, 0), BuildingBlock: EZIPEK_clean_linker_0, # of connection points: 2
#     Edge 47, Type (0, 0), BuildingBlock: EZIPEK_clean_linker_0, # of connection points: 2
#     Edge 48, Type (0, 0), BuildingBlock: EZIPEK_clean_linker_0, # of connection points: 2
#     Edge 49, Type (0, 0), BuildingBlock: EZIPEK_clean_linker_0, # of connection points: 2
#     Edge 50, Type (0, 0), BuildingBlock: EZIPEK_clean_linker_0, # of connection points: 2
#     Edge 51, Type (0, 0), BuildingBlock: EZIPEK_clean_linker_0, # of connection points: 2
#     Edge 52, Type (0, 0), BuildingBlock: EZIPEK_clean_linker_0, # of connection points: 2
#     Edge 53, Type (0, 0), BuildingBlock: EZIPEK_clean_linker_0, # of connection points: 2
#     Edge 54, Type (0, 0), BuildingBlock: EZIPEK_clean_linker_0, # of connection points: 2
#     Edge 55, Type (0, 0), BuildingBlock: EZIPEK_clean_linker_0, # of connection points: 2
#     Edge 56, Type (0, 0), BuildingBlock: EZIPEK_clean_linker_0, # of connection points: 2
#     Edge 57, Type (0, 0), BuildingBlock: EZIPEK_clean_linker_0, # of connection points: 2
#     Edge 58, Type (0, 0), BuildingBlock: EZIPEK_clean_linker_0, # of connection points: 2
#     Edge 59, Type (0, 0), BuildingBlock: EZIPEK_clean_linker_0, # of connection points: 2
#     Edge 60, Type (0, 0), BuildingBlock: EZIPEK_clean_linker_0, # of connection points: 2
#     Edge 61, Type (0, 0), BuildingBlock: EZIPEK_clean_linker_0, # of connection points: 2
#     Edge 62, Type (0, 0), BuildingBlock: EZIPEK_clean_linker_0, # of connection points: 2
#     Edge 63, Type (0, 0), BuildingBlock: EZIPEK_clean_linker_0, # of connection points: 2
#     Edge 64, Type (0, 0), BuildingBlock: EZIPEK_clean_linker_0, # of connection points: 2
#     Edge 65, Type (0, 0), BuildingBlock: EZIPEK_clean_linker_0, # of connection points: 2
#     Edge 66, Type (0, 0), BuildingBlock: EZIPEK_clean_linker_0, # of connection points: 2
#     Edge 67, Type (0, 0), BuildingBlock: EZIPEK_clean_linker_0, # of connection points: 2
#     Edge 68, Type (0, 0), BuildingBlock: EZIPEK_clean_linker_0, # of connection points: 2
#     Edge 69, Type (0, 0), BuildingBlock: EZIPEK_clean_linker_0, # of connection points: 2
#     Edge 70, Type (0, 0), BuildingBlock: EZIPEK_clean_linker_0, # of connection points: 2
#     Edge 71, Type (0, 0), BuildingBlock: EZIPEK_clean_linker_0, # of connection points: 2
# Relax obj value: 0.323
# Max RMSD: 0.270
# Mean RMSD: 0.241
data_MOF--net-unv--node1-KUFVIS_clean_sbu_0--edge1-EZIPEK_clean_linker_0
_symmetry_space_group_name_H-M    P1
_symmetry_Int_Tables_number       1
_symmetry_cell_setting            triclinic
loop_
_symmetry_equiv_pos_as_xyz
'x, y, z'
_cell_length_a     35.407704
_cell_length_b     35.409127
_cell_length_c     35.463268
_cell_angle_alpha  89.889382
_cell_angle_beta   90.213017
_cell_angle_gamma 90.180391
loop_
_atom_site_label
_atom_site_type_symbol
_atom_site_fract_x
_atom_site_fract_y
_atom_site_fract_z
_atom_type_partial_charge
Mn0 Mn 0.97441 0.09126 0.3427 0.0
Mn1 Mn 0.06865 0.10391 0.34937 0.0
C2 C 0.00892 0.08095 0.40346 0.0
C3 C 0.93702 0.03946 0.36561 0.0
C4 C 0.00988 0.16757 0.34124 0.0
O5 O 0.99627 0.09226 0.28904 0.0
O6 O 0.05666 0.07937 0.30027 0.0
C7 C 0.10232 0.02755 0.34505 0.0
N8 N 0.0964 0.06015 0.36455 0.0
C9 C 0.13329 0.03758 0.41692 0.0
C10 C 0.13977 0.00392 0.39734 0.0
C11 C 0.12424 0.99886 0.36128 0.0
C12 C 0.11154 0.06538 0.39919 0.0
H13 H 0.09036 0.02324 0.31735 0.0
C14 C 0.02693 0.07575 0.28007 0.0
O15 O 0.93731 0.07192 0.38283 0.0
O16 O 0.96088 0.03698 0.33893 0.0
N17 N 0.08329 0.12463 0.39729 0.0
C18 C 0.078 0.16013 0.411 0.0
C19 C 0.09136 0.16942 0.44713 0.0
C20 C 0.11131 0.14255 0.46836 0.0
C21 C 0.11857 0.10699 0.45278 0.0
C22 C 0.1043 0.09929 0.41668 0.0
H23 H 0.06444 0.18153 0.39428 0.0
O24 O 0.97371 0.08902 0.40216 0.0
O25 O 0.02286 0.08012 0.37034 0.0
O26 O 0.98107 0.14777 0.34964 0.0
O27 O 0.04241 0.1528 0.33459 0.0
C28 C 0.13966 0.07898 0.47156 0.0
C29 C 0.14691 0.04431 0.45363 0.0
H30 H 0.1559 0.98143 0.41 0.0
H31 H 0.12892 0.97278 0.34616 0.0
H32 H 0.08666 0.19738 0.45841 0.0
H33 H 0.12166 0.14981 0.4962 0.0
H34 H 0.15058 0.08387 0.49972 0.0
H35 H 0.16267 0.02287 0.46844 0.0
Mn36 Mn 0.99064 0.40853 0.37704 0.0
Mn37 Mn 0.91133 0.38039 0.33531 0.0
C38 C 0.9379 0.3967 0.41585 0.0
C39 C 0.02521 0.46314 0.39204 0.0
C40 C 0.98164 0.33068 0.34576 0.0
O41 O 0.99824 0.41968 0.3215 0.0
O42 O 0.93775 0.41962 0.30312 0.0
C43 C 0.8621 0.4474 0.32559 0.0
N44 N 0.86995 0.41417 0.34339 0.0
C45 C 0.81311 0.41854 0.38014 0.0
C46 C 0.80586 0.45395 0.36399 0.0
C47 C 0.83021 0.46821 0.33622 0.0
C48 C 0.84561 0.39928 0.36869 0.0
H49 H 0.87985 0.45782 0.30319 0.0
C50 C 0.97179 0.43229 0.30069 0.0
O51 O 0.04197 0.43052 0.38993 0.0
O52 O 0.98948 0.46299 0.38525 0.0
N53 N 0.8835 0.34577 0.36642 0.0
C54 C 0.88973 0.30834 0.37275 0.0
C55 C 0.86586 0.2882 0.39715 0.0
C56 C 0.83505 0.30642 0.41389 0.0
C57 C 0.82774 0.34432 0.40514 0.0
C58 C 0.85274 0.36302 0.38084 0.0
H59 H 0.91236 0.29375 0.35888 0.0
O60 O 0.97185 0.39843 0.42952 0.0
O61 O 0.93666 0.4016 0.37946 0.0
O62 O 0.99935 0.35219 0.36874 0.0
O63 O 0.95233 0.34157 0.32706 0.0
C64 C 0.79596 0.36389 0.4186 0.0
C65 C 0.7886 0.40097 0.40606 0.0
H66 H 0.78097 0.46981 0.37166 0.0
H67 H 0.82412 0.49493 0.32267 0.0
H68 H 0.87104 0.25861 0.40277 0.0
H69 H 0.81655 0.29074 0.43253 0.0
H70 H 0.77638 0.35029 0.43775 0.0
H71 H 0.76343 0.41528 0.41567 0.0
Mn72 Mn 0.01155 0.90555 0.12243 0.0
Mn73 Mn 0.0999 0.88431 0.1495 0.0
C74 C 0.05648 0.89206 0.07541 0.0
C75 C 0.96746 0.95354 0.11079 0.0
C76 C 0.03218 0.83147 0.15885 0.0
O77 O 0.01626 0.92478 0.17628 0.0
O78 O 0.07936 0.92557 0.18314 0.0
C79 C 0.14977 0.95125 0.14513 0.0
N80 N 0.13769 0.91794 0.13008 0.0
C81 C 0.18931 0.91805 0.08597 0.0
C82 C 0.20083 0.95322 0.09977 0.0
C83 C 0.18108 0.96989 0.12958 0.0
C84 C 0.15776 0.90082 0.10258 0.0
H85 H 0.13695 0.96249 0.17018 0.0
C86 C 0.04631 0.93852 0.19086 0.0
O87 O 0.95652 0.92023 0.1217 0.0
O88 O 0.00333 0.95811 0.10577 0.0
N89 N 0.12197 0.84745 0.11657 0.0
C90 C 0.11661 0.80932 0.1161 0.0
C91 C 0.1366 0.78696 0.09043 0.0
C92 C 0.16357 0.80367 0.06679 0.0
C93 C 0.171 0.84242 0.0699 0.0
C94 C 0.14927 0.86353 0.09527 0.0
H95 H 0.09799 0.79575 0.1358 0.0
O96 O 0.02038 0.88955 0.06886 0.0
O97 O 0.06458 0.90117 0.11001 0.0
O98 O 0.00897 0.85048 0.13905 0.0
O99 O 0.06387 0.84516 0.17021 0.0
C100 C 0.20047 0.86043 0.05024 0.0
C101 C 0.20983 0.89819 0.05851 0.0
H102 H 0.22632 0.96641 0.08931 0.0
H103 H 0.19091 0.99626 0.14155 0.0
H104 H 0.13183 0.75677 0.08948 0.0
H105 H 0.17951 0.78623 0.04752 0.0
H106 H 0.21733 0.84495 0.0301 0.0
H107 H 0.2339 0.91116 0.04477 0.0
Mn108 Mn 0.02811 0.58906 0.13807 0.0
Mn109 Mn 0.9397 0.61281 0.16311 0.0
C110 C 0.98228 0.59929 0.09146 0.0
C111 C 0.06958 0.53838 0.12511 0.0
C112 C 0.00665 0.66776 0.16665 0.0
O113 O 0.02518 0.57288 0.19311 0.0
O114 O 0.9636 0.58184 0.20375 0.0
C115 C 0.90469 0.53653 0.16542 0.0
N116 N 0.90633 0.57199 0.1504 0.0
C117 C 0.85642 0.55735 0.10643 0.0
C118 C 0.85459 0.52062 0.12112 0.0
C119 C 0.87875 0.51022 0.15082 0.0
C120 C 0.88296 0.58235 0.122 0.0
H121 H 0.92335 0.52814 0.18804 0.0
C122 C 0.99579 0.56818 0.21327 0.0
O123 O 0.08265 0.57134 0.13485 0.0
O124 O 0.03337 0.53572 0.12331 0.0
N125 N 0.91328 0.64074 0.12492 0.0
C126 C 0.91652 0.67801 0.11579 0.0
C127 C 0.89305 0.69339 0.08772 0.0
C128 C 0.86609 0.67045 0.06969 0.0
C129 C 0.86234 0.63251 0.08043 0.0
C130 C 0.8863 0.61886 0.10886 0.0
H131 H 0.93665 0.69601 0.12994 0.0
O132 O 0.01798 0.60172 0.08357 0.0
O133 O 0.97539 0.59332 0.12673 0.0
O134 O 0.03122 0.64551 0.15225 0.0
O135 O 0.97285 0.65736 0.17489 0.0
C136 C 0.83564 0.60777 0.06418 0.0
C137 C 0.83287 0.57014 0.077 0.0
H138 H 0.83462 0.50024 0.10993 0.0
H139 H 0.87746 0.48195 0.16239 0.0
H140 H 0.89574 0.72285 0.08001 0.0
H141 H 0.8482 0.68235 0.04789 0.0
H142 H 0.81704 0.6174 0.04185 0.0
H143 H 0.8123 0.55136 0.06427 0.0
Mn144 Mn 0.36807 0.00812 0.0816 0.0
Mn145 Mn 0.34546 0.09691 0.10622 0.0
C146 C 0.41655 0.05097 0.09486 0.0
C147 C 0.37941 0.96611 0.03256 0.0
C148 C 0.33625 0.02821 0.15812 0.0
O149 O 0.31382 0.01406 0.06377 0.0
O150 O 0.30687 0.07705 0.06914 0.0
C151 C 0.34581 0.14301 0.03622 0.0
N152 N 0.36159 0.13406 0.07022 0.0
C153 C 0.40566 0.18572 0.06502 0.0
C154 C 0.39093 0.19432 0.0293 0.0
C155 C 0.3607 0.173 0.01495 0.0
C156 C 0.38964 0.15549 0.08496 0.0
H157 H 0.32156 0.1279 0.02557 0.0
C158 C 0.29777 0.04495 0.0547 0.0
O159 O 0.36814 0.95374 0.06517 0.0
O160 O 0.38397 0.0022 0.02899 0.0
N161 N 0.38328 0.11834 0.13884 0.0
C162 C 0.39274 0.10851 0.17483 0.0
C163 C 0.42234 0.12745 0.19331 0.0
C164 C 0.44166 0.15673 0.17486 0.0
C165 C 0.43097 0.16702 0.13819 0.0
C166 C 0.40146 0.14686 0.12102 0.0
H167 H 0.37789 0.08648 0.18952 0.0
O168 O 0.42235 0.01481 0.09666 0.0
O169 O 0.382 0.06052 0.08685 0.0
O170 O 0.35178 0.00401 0.13665 0.0
O171 O 0.32841 0.0619 0.14735 0.0
C172 C 0.44835 0.19666 0.11811 0.0
C173 C 0.43549 0.20615 0.08167 0.0
H174 H 0.40229 0.21752 0.01289 0.0
H175 H 0.34859 0.17996 0.98776 0.0
H176 H 0.43016 0.11952 0.22176 0.0
H177 H 0.46442 0.17136 0.18925 0.0
H178 H 0.47133 0.21263 0.1306 0.0
H179 H 0.44869 0.22923 0.06668 0.0
Mn180 Mn 0.63511 0.51426 0.09553 0.0
Mn181 Mn 0.66545 0.42903 0.12419 0.0
C182 C 0.59111 0.46596 0.10534 0.0
C183 C 0.62283 0.55463 0.04417 0.0
C184 C 0.66285 0.49782 0.17555 0.0
O185 O 0.69083 0.51453 0.08232 0.0
O186 O 0.70603 0.45424 0.09369 0.0
C187 C 0.67646 0.38767 0.05259 0.0
N188 N 0.65818 0.3915 0.08612 0.0
C189 C 0.62641 0.33189 0.07782 0.0
C190 C 0.64506 0.32728 0.04331 0.0
C191 C 0.6699 0.35545 0.03051 0.0
C192 C 0.63392 0.3647 0.09853 0.0
H193 H 0.69619 0.40884 0.04288 0.0
C194 C 0.71365 0.48693 0.07972 0.0
O195 O 0.63036 0.56809 0.07744 0.0
O196 O 0.62219 0.51822 0.04146 0.0
N197 N 0.62748 0.40223 0.15191 0.0
C198 C 0.61232 0.41049 0.18618 0.0
C199 C 0.58546 0.38602 0.20206 0.0
C200 C 0.5749 0.35297 0.18288 0.0
C201 C 0.59122 0.3448 0.14791 0.0
C202 C 0.6173 0.37063 0.13311 0.0
H203 H 0.62048 0.4356 0.20134 0.0
O204 O 0.5808 0.50114 0.10615 0.0
O205 O 0.62709 0.46084 0.10073 0.0
O206 O 0.6472 0.52037 0.15203 0.0
O207 O 0.67349 0.46453 0.16681 0.0
C208 C 0.58308 0.31171 0.12746 0.0
C209 C 0.60115 0.30496 0.09279 0.0
H210 H 0.64069 0.30219 0.02646 0.0
H211 H 0.68438 0.35207 0.00391 0.0
H212 H 0.57309 0.3925 0.22914 0.0
H213 H 0.55443 0.33396 0.19539 0.0
H214 H 0.56342 0.29096 0.13842 0.0
H215 H 0.59559 0.27876 0.07814 0.0
Mn216 Mn 0.35025 0.00593 0.40148 0.0
Mn217 Mn 0.32189 0.92301 0.36678 0.0
C218 C 0.39552 0.95919 0.39083 0.0
C219 C 0.36102 0.03936 0.4577 0.0
C220 C 0.32798 0.99545 0.31974 0.0
O221 O 0.29373 0.00646 0.40914 0.0
O222 O 0.28115 0.94555 0.39897 0.0
C223 C 0.31096 0.87684 0.43581 0.0
N224 N 0.32923 0.88309 0.40258 0.0
C225 C 0.36537 0.82607 0.41006 0.0
C226 C 0.34701 0.81915 0.44436 0.0
C227 C 0.31976 0.84469 0.45731 0.0
C228 C 0.3555 0.85864 0.38986 0.0
H229 H 0.28981 0.89619 0.44592 0.0
C230 C 0.27231 0.97783 0.41289 0.0
O231 O 0.35734 0.05713 0.42572 0.0
O232 O 0.35603 0.00338 0.45649 0.0
N233 N 0.36029 0.8985 0.33777 0.0
C234 C 0.37422 0.90805 0.30325 0.0
C235 C 0.40219 0.8856 0.28666 0.0
C236 C 0.41511 0.85314 0.30536 0.0
C237 C 0.39966 0.84323 0.34035 0.0
C238 C 0.37207 0.86689 0.35569 0.0
H239 H 0.36424 0.93262 0.28837 0.0
O240 O 0.40528 0.99422 0.39454 0.0
O241 O 0.35938 0.95317 0.39295 0.0
O242 O 0.34361 0.01628 0.34488 0.0
O243 O 0.31493 0.96228 0.32668 0.0
C244 C 0.41018 0.81048 0.3603 0.0
C245 C 0.39279 0.80172 0.39492 0.0
H246 H 0.35347 0.79425 0.46092 0.0
H247 H 0.30541 0.8395 0.48373 0.0
H248 H 0.41367 0.89325 0.25945 0.0
H249 H 0.43658 0.83579 0.2924 0.0
H250 H 0.43128 0.79154 0.34903 0.0
H251 H 0.40048 0.77593 0.4094 0.0
Mn252 Mn 0.61629 0.52248 0.40887 0.0
Mn253 Mn 0.67286 0.60185 0.38557 0.0
C254 C 0.59371 0.60278 0.40226 0.0
C255 C 0.59475 0.48382 0.45582 0.0
C256 C 0.66436 0.53108 0.33712 0.0
O257 O 0.66731 0.52009 0.43657 0.0
O258 O 0.69838 0.57467 0.4276 0.0
C259 C 0.67492 0.65022 0.45417 0.0
N260 N 0.66449 0.64495 0.41752 0.0
C261 C 0.63627 0.70677 0.415 0.0
C262 C 0.64494 0.71185 0.4532 0.0
C263 C 0.66474 0.68362 0.47278 0.0
C264 C 0.64672 0.67266 0.39804 0.0
H265 H 0.6912 0.6293 0.46907 0.0
C266 C 0.69354 0.54331 0.4447 0.0
O267 O 0.60834 0.46973 0.42461 0.0
O268 O 0.59264 0.52072 0.45885 0.0
N269 N 0.64993 0.63211 0.34649 0.0
C270 C 0.64641 0.62465 0.30896 0.0
C271 C 0.62839 0.65074 0.28518 0.0
C272 C 0.61513 0.68492 0.29993 0.0
C273 C 0.62083 0.69304 0.33818 0.0
C274 C 0.63893 0.66583 0.36056 0.0
H275 H 0.65788 0.59937 0.29695 0.0
O276 O 0.6202 0.57893 0.40083 0.0
O277 O 0.62162 0.57983 0.40043 0.0
O278 O 0.63932 0.51393 0.3566 0.0
O279 O 0.6827 0.56012 0.34883 0.0
C280 C 0.60961 0.72728 0.35484 0.0
C281 C 0.61722 0.7341 0.39326 0.0
H282 H 0.63655 0.73737 0.46762 0.0
H283 H 0.67219 0.6876 0.50212 0.0
H284 H 0.62511 0.64467 0.25544 0.0
H285 H 0.60133 0.70506 0.28147 0.0
H286 H 0.59533 0.74869 0.33828 0.0
H287 H 0.60852 0.76056 0.40576 0.0
Mn288 Mn 0.10705 0.36592 0.99828 0.0
Mn289 Mn 0.1336 0.33416 0.08313 0.0
C290 C 0.12169 0.40972 0.0451 0.0
C291 C 0.05392 0.37915 0.96007 0.0
C292 C 0.18347 0.32874 0.01289 0.0
O293 O 0.08967 0.3113 0.99928 0.0
O294 O 0.09693 0.29726 0.06021 0.0
C295 C 0.06347 0.33158 0.12808 0.0
N296 N 0.09854 0.34634 0.12204 0.0
C297 C 0.09793 0.37787 0.18207 0.0
C298 C 0.06192 0.36282 0.18894 0.0
C299 C 0.04446 0.33994 0.16167 0.0
C300 C 0.11545 0.3687 0.148 0.0
H301 H 0.05027 0.31312 0.10771 0.0
C302 C 0.08302 0.29011 0.02744 0.0
O303 O 0.08617 0.36994 0.94523 0.0
O304 O 0.05386 0.38252 0.99628 0.0
N305 N 0.16711 0.36896 0.10764 0.0
C306 C 0.2023 0.38049 0.09711 0.0
C307 C 0.22271 0.40531 0.12038 0.0
C308 C 0.20702 0.41755 0.15452 0.0
C309 C 0.17088 0.40514 0.16487 0.0
C310 C 0.15148 0.38118 0.14007 0.0
H311 H 0.21473 0.37101 0.0711 0.0
O312 O 0.12221 0.41952 0.00975 0.0
O313 O 0.11426 0.37433 0.05104 0.0
O314 O 0.16277 0.34931 0.99136 0.0
O315 O 0.17311 0.32022 0.04626 0.0
C316 C 0.15365 0.41508 0.19915 0.0
C317 C 0.11754 0.40084 0.20806 0.0
H318 H 0.04755 0.36818 0.21519 0.0
H319 H 0.01671 0.32817 0.16685 0.0
H320 H 0.2506 0.41473 0.11217 0.0
H321 H 0.22306 0.43631 0.17265 0.0
H322 H 0.16821 0.43307 0.21918 0.0
H323 H 0.10534 0.40751 0.23516 0.0
Mn324 Mn 0.08055 0.63834 0.50633 0.0
Mn325 Mn 0.10144 0.67446 0.42173 0.0
C326 C 0.08819 0.59721 0.4553 0.0
C327 C 0.02832 0.62169 0.54448 0.0
C328 C 0.15854 0.6668 0.48633 0.0
O329 O 0.06971 0.69385 0.51248 0.0
O330 O 0.07015 0.71084 0.45167 0.0
C331 C 0.02609 0.68407 0.38614 0.0
N332 N 0.06059 0.66705 0.38693 0.0
C333 C 0.04564 0.63107 0.3313 0.0
C334 C 0.00974 0.6476 0.33041 0.0
C335 C 0.99999 0.67433 0.35786 0.0
C336 C 0.0705 0.64182 0.3602 0.0
H337 H 0.01831 0.70466 0.40711 0.0
C338 C 0.0597 0.71581 0.486 0.0
O339 O 0.06181 0.62585 0.55925 0.0
O340 O 0.02604 0.62882 0.50903 0.0
N341 N 0.12892 0.64001 0.39053 0.0
C342 C 0.16579 0.62927 0.39306 0.0
C343 C 0.18035 0.6035 0.36687 0.0
C344 C 0.15705 0.58938 0.33802 0.0
C345 C 0.11959 0.60177 0.33518 0.0
C346 C 0.10663 0.62754 0.36208 0.0
H347 H 0.18403 0.64007 0.41494 0.0
O348 O 0.0897 0.58506 0.48969 0.0
O349 O 0.08273 0.63329 0.45242 0.0
O350 O 0.13755 0.64859 0.50961 0.0
O351 O 0.14619 0.68131 0.45545 0.0
C352 C 0.0948 0.58996 0.30635 0.0
C353 C 0.0579 0.6047 0.30435 0.0
H354 H 0.98959 0.64031 0.30855 0.0
H355 H 0.97243 0.68745 0.35719 0.0
H356 H 0.20945 0.59447 0.36898 0.0
H357 H 0.16836 0.56943 0.31792 0.0
H358 H 0.10404 0.56996 0.28527 0.0
H359 H 0.03934 0.596 0.28168 0.0
Mn360 Mn 0.89735 0.87623 0.50837 0.0
Mn361 Mn 0.87319 0.84539 0.42167 0.0
C362 C 0.88635 0.91997 0.46063 0.0
C363 C 0.94675 0.88936 0.55013 0.0
C364 C 0.82011 0.84421 0.48938 0.0
O365 O 0.91254 0.82093 0.50795 0.0
O366 O 0.90907 0.80871 0.44571 0.0
C367 C 0.94317 0.83941 0.37658 0.0
N368 N 0.90972 0.85704 0.38353 0.0
C369 C 0.91409 0.89162 0.32511 0.0
C370 C 0.94905 0.87461 0.31811 0.0
C371 C 0.96367 0.84847 0.34401 0.0
C372 C 0.89498 0.88161 0.35823 0.0
H373 H 0.95365 0.81754 0.39496 0.0
C374 C 0.92248 0.80243 0.47884 0.0
O375 O 0.91332 0.88107 0.56278 0.0
O376 O 0.951 0.89037 0.51413 0.0
N377 N 0.84142 0.88125 0.39613 0.0
C378 C 0.80552 0.89214 0.40447 0.0
C379 C 0.78707 0.9186 0.38144 0.0
C380 C 0.80532 0.93306 0.34947 0.0
C381 C 0.84181 0.92074 0.34074 0.0
C382 C 0.85917 0.89494 0.36527 0.0
H383 H 0.79081 0.8807 0.42832 0.0
O384 O 0.88493 0.93013 0.49579 0.0
O385 O 0.89334 0.88453 0.45497 0.0
O386 O 0.84126 0.86233 0.51237 0.0
O387 O 0.83166 0.83231 0.45736 0.0
C388 C 0.86123 0.93244 0.30817 0.0
C389 C 0.89708 0.91744 0.30006 0.0
H390 H 0.96463 0.88088 0.29267 0.0
H391 H 0.99026 0.8346 0.33842 0.0
H392 H 0.75869 0.92757 0.38816 0.0
H393 H 0.79083 0.95315 0.33151 0.0
H394 H 0.84844 0.95225 0.28866 0.0
H395 H 0.91105 0.92565 0.27421 0.0
Mn396 Mn 0.39031 0.6136 0.49334 0.0
Mn397 Mn 0.37087 0.65758 0.57784 0.0
C398 C 0.41029 0.58789 0.553 0.0
C399 C 0.43928 0.59063 0.45159 0.0
C400 C 0.32197 0.66283 0.50611 0.0
O401 O 0.42533 0.65869 0.49828 0.0
O402 O 0.40885 0.68987 0.5506 0.0
C403 C 0.44059 0.66533 0.6236 0.0
N404 N 0.40663 0.64802 0.61745 0.0
C405 C 0.40961 0.61759 0.67819 0.0
C406 C 0.44554 0.6333 0.684 0.0
C407 C 0.46091 0.6576 0.65677 0.0
C408 C 0.3906 0.62651 0.64463 0.0
H409 H 0.45236 0.68473 0.60327 0.0
C410 C 0.43012 0.68507 0.52182 0.0
O411 O 0.40986 0.6082 0.43961 0.0
O412 O 0.43886 0.58273 0.48726 0.0
N413 N 0.33678 0.62699 0.6067 0.0
C414 C 0.30058 0.61662 0.5984 0.0
C415 C 0.28076 0.59299 0.62331 0.0
C416 C 0.29819 0.58049 0.65666 0.0
C417 C 0.33532 0.59171 0.66479 0.0
C418 C 0.3539 0.61483 0.63861 0.0
H419 H 0.2869 0.62605 0.57291 0.0
O420 O 0.42748 0.57945 0.52195 0.0
O421 O 0.38367 0.61195 0.54893 0.0
O422 O 0.34413 0.64689 0.48258 0.0
O423 O 0.3304 0.66877 0.5407 0.0
C424 C 0.35449 0.5811 0.69801 0.0
C425 C 0.39142 0.59443 0.70493 0.0
H426 H 0.4611 0.62787 0.70973 0.0
H427 H 0.48819 0.67065 0.6615 0.0
H428 H 0.25208 0.58451 0.61683 0.0
H429 H 0.28272 0.56245 0.67592 0.0
H430 H 0.34081 0.56331 0.71879 0.0
H431 H 0.40536 0.58709 0.73116 0.0
Mn432 Mn 0.50468 0.59232 0.86763 0.0
Mn433 Mn 0.58939 0.62102 0.83597 0.0
C434 C 0.55108 0.60887 0.91161 0.0
C435 C 0.46556 0.54142 0.88238 0.0
C436 C 0.5174 0.66808 0.83062 0.0
O437 O 0.50697 0.57351 0.81393 0.0
O438 O 0.56906 0.57983 0.80202 0.0
C439 C 0.64273 0.55718 0.83389 0.0
N440 N 0.63075 0.58951 0.85079 0.0
C441 C 0.68767 0.59264 0.88808 0.0
C442 C 0.69904 0.558 0.87291 0.0
C443 C 0.67648 0.54023 0.84565 0.0
C444 C 0.65311 0.60769 0.87594 0.0
H445 H 0.62765 0.54528 0.81033 0.0
C446 C 0.53683 0.56366 0.79667 0.0
O447 O 0.45146 0.57347 0.87153 0.0
O448 O 0.50201 0.53967 0.88533 0.0
N449 N 0.61108 0.65772 0.86967 0.0
C450 C 0.59994 0.69385 0.8766 0.0
C451 C 0.62008 0.71611 0.9025 0.0
C452 C 0.65243 0.70157 0.92009 0.0
C453 C 0.66444 0.66498 0.91139 0.0
C454 C 0.64238 0.64354 0.88637 0.0
H455 H 0.57631 0.70603 0.86215 0.0
O456 O 0.51552 0.60895 0.92066 0.0
O457 O 0.55772 0.60086 0.87654 0.0
O458 O 0.49641 0.64658 0.85034 0.0
O459 O 0.55014 0.65812 0.8191 0.0
C460 C 0.69832 0.64961 0.92533 0.0
C461 C 0.71032 0.61384 0.91306 0.0
H462 H 0.72585 0.54564 0.8805 0.0
H463 H 0.68578 0.51427 0.83266 0.0
H464 H 0.61106 0.74468 0.90833 0.0
H465 H 0.66841 0.71912 0.93944 0.0
H466 H 0.71616 0.66573 0.94432 0.0
H467 H 0.73762 0.60353 0.92211 0.0
Mn468 Mn 0.50389 0.89883 0.86478 0.0
Mn469 Mn 0.41361 0.87816 0.83537 0.0
C470 C 0.44861 0.92086 0.8992 0.0
C471 C 0.55106 0.94451 0.88461 0.0
C472 C 0.48344 0.82899 0.82078 0.0
O473 O 0.49206 0.93402 0.82129 0.0
O474 O 0.43702 0.91314 0.79715 0.0
C475 C 0.3683 0.94801 0.82801 0.0
N476 N 0.37626 0.91546 0.84711 0.0
C477 C 0.31968 0.92172 0.88413 0.0
C478 C 0.31215 0.95624 0.86626 0.0
C479 C 0.33632 0.96919 0.83773 0.0
C480 C 0.35174 0.90158 0.87287 0.0
H481 H 0.38612 0.9579 0.80544 0.0
C482 C 0.46516 0.93615 0.79764 0.0
O483 O 0.55898 0.91693 0.86259 0.0
O484 O 0.51639 0.9454 0.89614 0.0
N485 N 0.38869 0.84732 0.87218 0.0
C486 C 0.39837 0.81233 0.885 0.0
C487 C 0.37681 0.79516 0.91345 0.0
C488 C 0.34542 0.81402 0.92836 0.0
C489 C 0.33599 0.85 0.9148 0.0
C490 C 0.35889 0.86596 0.88683 0.0
H491 H 0.42245 0.79764 0.87379 0.0
O492 O 0.48138 0.93688 0.9027 0.0
O493 O 0.44887 0.89349 0.87553 0.0
O494 O 0.50889 0.85312 0.82961 0.0
O495 O 0.44808 0.83593 0.82241 0.0
C496 C 0.30465 0.87056 0.92788 0.0
C497 C 0.29625 0.90621 0.91223 0.0
H498 H 0.2876 0.97273 0.87383 0.0
H499 H 0.33025 0.99539 0.82318 0.0
H500 H 0.38435 0.76742 0.92382 0.0
H501 H 0.32873 0.80058 0.95015 0.0
H502 H 0.28648 0.85895 0.94953 0.0
H503 H 0.27162 0.92142 0.92192 0.0
Mn504 Mn 0.49401 0.41097 0.63473 0.0
Mn505 Mn 0.58105 0.38293 0.65483 0.0
C506 C 0.536 0.406 0.58494 0.0
C507 C 0.4582 0.46611 0.63414 0.0
C508 C 0.51135 0.33103 0.65588 0.0
O509 O 0.49868 0.41607 0.69121 0.0
O510 O 0.56113 0.4152 0.69713 0.0
C511 C 0.62565 0.4537 0.66124 0.0
N512 N 0.61791 0.42076 0.64284 0.0
C513 C 0.66739 0.43261 0.59798 0.0
C514 C 0.67548 0.46683 0.61613 0.0
C515 C 0.65461 0.47736 0.64796 0.0
C516 C 0.63851 0.40994 0.61275 0.0
H517 H 0.60979 0.46205 0.68576 0.0
C518 C 0.52839 0.42553 0.70876 0.0
O519 O 0.44157 0.43332 0.63702 0.0
O520 O 0.49417 0.46553 0.63 0.0
N521 N 0.6025 0.35482 0.614 0.0
C522 C 0.59363 0.31949 0.60158 0.0
C523 C 0.6121 0.30476 0.56992 0.0
C524 C 0.64004 0.3262 0.5517 0.0
C525 C 0.64965 0.36196 0.56569 0.0
C526 C 0.6301 0.37526 0.59725 0.0
H527 H 0.57285 0.30247 0.61581 0.0
O528 O 0.4999 0.40692 0.57879 0.0
O529 O 0.54542 0.40617 0.62038 0.0
O530 O 0.48799 0.35391 0.64044 0.0
O531 O 0.54475 0.34075 0.66668 0.0
C532 C 0.67805 0.38481 0.54969 0.0
C533 C 0.68699 0.42005 0.56591 0.0
H534 H 0.69779 0.48509 0.60599 0.0
H535 H 0.66082 0.50367 0.66222 0.0
H536 H 0.60491 0.27687 0.55968 0.0
H537 H 0.65427 0.31471 0.52731 0.0
H538 H 0.69347 0.37538 0.52514 0.0
H539 H 0.70906 0.43723 0.55359 0.0
Mn540 Mn 0.48938 0.09226 0.62226 0.0
Mn541 Mn 0.40905 0.11774 0.66473 0.0
C542 C 0.43576 0.1041 0.5853 0.0
C543 C 0.52575 0.04131 0.60114 0.0
C544 C 0.47772 0.16951 0.65636 0.0
O545 O 0.49721 0.07645 0.67708 0.0
O546 O 0.43753 0.08177 0.69767 0.0
C547 C 0.36718 0.0453 0.67119 0.0
N548 N 0.37019 0.08086 0.65662 0.0
C549 C 0.31144 0.07382 0.62303 0.0
C550 C 0.30849 0.03672 0.63651 0.0
C551 C 0.33633 0.02248 0.66092 0.0
C552 C 0.34319 0.095 0.63359 0.0
H553 H 0.38846 0.03411 0.68996 0.0
C554 C 0.47087 0.06772 0.69996 0.0
O555 O 0.5413 0.07407 0.60735 0.0
O556 O 0.49007 0.03869 0.60804 0.0
N557 N 0.37894 0.1503 0.63359 0.0
C558 C 0.38398 0.18767 0.62576 0.0
C559 C 0.35774 0.20659 0.60281 0.0
C560 C 0.32601 0.18719 0.58892 0.0
C561 C 0.32046 0.14923 0.59875 0.0
C562 C 0.34774 0.13176 0.62152 0.0
H563 H 0.40759 0.20315 0.63716 0.0
O564 O 0.46932 0.10542 0.57082 0.0
O565 O 0.43557 0.09795 0.6213 0.0
O566 O 0.49698 0.14808 0.63483 0.0
O567 O 0.44729 0.15883 0.67289 0.0
C568 C 0.2884 0.12836 0.58765 0.0
C569 C 0.2838 0.09078 0.59999 0.0
H570 H 0.28491 0.01899 0.62835 0.0
H571 H 0.33404 0.99398 0.67177 0.0
H572 H 0.36185 0.23614 0.59606 0.0
H573 H 0.30571 0.20191 0.57138 0.0
H574 H 0.26675 0.14117 0.5702 0.0
H575 H 0.25844 0.0755 0.59233 0.0
Mn576 Mn 0.85699 0.49958 0.60011 0.0
Mn577 Mn 0.82261 0.58232 0.62992 0.0
C578 C 0.89892 0.55019 0.61059 0.0
C579 C 0.87115 0.46288 0.54639 0.0
C580 C 0.83117 0.51266 0.68032 0.0
O581 O 0.8007 0.49556 0.58949 0.0
O582 O 0.78498 0.55618 0.59665 0.0
C583 C 0.81027 0.62604 0.55962 0.0
N584 N 0.82905 0.62124 0.59294 0.0
C585 C 0.86308 0.67952 0.5842 0.0
C586 C 0.84433 0.6848 0.54971 0.0
C587 C 0.81789 0.65792 0.53734 0.0
C588 C 0.85433 0.64716 0.60525 0.0
H589 H 0.78952 0.6058 0.55004 0.0
C590 C 0.77885 0.52325 0.5827 0.0
O591 O 0.86727 0.44724 0.57938 0.0
O592 O 0.86527 0.4988 0.54519 0.0
N593 N 0.85841 0.6103 0.65958 0.0
C594 C 0.87023 0.60392 0.69566 0.0
C595 C 0.89633 0.62868 0.71246 0.0
C596 C 0.90944 0.66025 0.69235 0.0
C597 C 0.89574 0.66716 0.65586 0.0
C598 C 0.87001 0.64128 0.64041 0.0
H599 H 0.85986 0.58021 0.71165 0.0
O600 O 0.91082 0.51567 0.60908 0.0
O601 O 0.86265 0.55337 0.60651 0.0
O602 O 0.84904 0.49195 0.65688 0.0
O603 O 0.81604 0.54432 0.67128 0.0
C604 C 0.9059 0.69927 0.63464 0.0
C605 C 0.88934 0.70561 0.59899 0.0
H606 H 0.84936 0.70975 0.5328 0.0
H607 H 0.80309 0.66199 0.51089 0.0
H608 H 0.90621 0.62351 0.74091 0.0
H609 H 0.92943 0.6794 0.70548 0.0
H610 H 0.92577 0.71972 0.64585 0.0
H611 H 0.89657 0.73097 0.58347 0.0
Mn612 Mn 0.10501 0.97603 0.58566 0.0
Mn613 Mn 0.17618 0.91328 0.61763 0.0
C614 C 0.09818 0.89505 0.60542 0.0
C615 C 0.07179 0.00212 0.53563 0.0
C616 C 0.15911 0.98944 0.65422 0.0
O617 O 0.15183 0.98072 0.55192 0.0
O618 O 0.1958 0.9395 0.57199 0.0
C619 C 0.18631 0.85798 0.55561 0.0
N620 N 0.17599 0.86566 0.59175 0.0
C621 C 0.16409 0.79978 0.60409 0.0
C622 C 0.17343 0.79146 0.56665 0.0
C623 C 0.18474 0.8207 0.54237 0.0
C624 C 0.16605 0.83756 0.61568 0.0
H625 H 0.19626 0.87999 0.53714 0.0
C626 C 0.18346 0.96407 0.54862 0.0
O627 O 0.0864 0.02308 0.56235 0.0
O628 O 0.07547 0.96537 0.53915 0.0
N629 N 0.15962 0.88484 0.66082 0.0
C630 C 0.15066 0.89744 0.69598 0.0
C631 C 0.13895 0.87155 0.72361 0.0
C632 C 0.13644 0.83297 0.71489 0.0
C633 C 0.14564 0.82062 0.67855 0.0
C634 C 0.15729 0.8477 0.65215 0.0
H635 H 0.15232 0.92699 0.70303 0.0
O636 O 0.11991 0.92323 0.60199 0.0
O637 O 0.12145 0.92274 0.60241 0.0
O638 O 0.13129 0.99836 0.63294 0.0
O639 O 0.17898 0.96 0.6483 0.0
C640 C 0.14341 0.78249 0.66744 0.0
C641 C 0.15266 0.77208 0.63025 0.0
H642 H 0.17224 0.7627 0.55638 0.0
H643 H 0.19247 0.81459 0.51356 0.0
H644 H 0.13179 0.88134 0.75158 0.0
H645 H 0.12728 0.81311 0.73628 0.0
H646 H 0.13449 0.76095 0.68725 0.0
H647 H 0.15078 0.74268 0.62203 0.0
Mn648 Mn 0.88151 0.49256 0.91669 0.0
Mn649 Mn 0.83748 0.41231 0.89337 0.0
C650 C 0.91857 0.44024 0.902 0.0
C651 C 0.90581 0.52918 0.96553 0.0
C652 C 0.84201 0.4817 0.84218 0.0
O653 O 0.82811 0.49965 0.93616 0.0
O654 O 0.80783 0.43942 0.93361 0.0
C655 C 0.83136 0.36439 0.96149 0.0
N656 N 0.8474 0.37136 0.92729 0.0
C657 C 0.87831 0.31091 0.92813 0.0
C658 C 0.86384 0.30426 0.96427 0.0
C659 C 0.8401 0.33102 0.98094 0.0
C660 C 0.86925 0.34513 0.91042 0.0
H661 H 0.81118 0.38359 0.97345 0.0
C662 C 0.80678 0.47294 0.94761 0.0
O663 O 0.8972 0.5444 0.93323 0.0
O664 O 0.89902 0.49349 0.96917 0.0
N665 N 0.86639 0.384 0.85749 0.0
C666 C 0.87241 0.39122 0.82022 0.0
C667 C 0.89439 0.36637 0.7988 0.0
C668 C 0.90889 0.33352 0.81548 0.0
C669 C 0.90078 0.32558 0.85331 0.0
C670 C 0.8796 0.35199 0.87361 0.0
H671 H 0.86017 0.41539 0.8066 0.0
O672 O 0.93197 0.47427 0.89995 0.0
O673 O 0.88297 0.43845 0.91097 0.0
O674 O 0.86542 0.50065 0.86199 0.0
O675 O 0.82568 0.45171 0.85435 0.0
C676 C 0.91154 0.29171 0.87113 0.0
C677 C 0.89981 0.28414 0.90829 0.0
H678 H 0.8695 0.2781 0.97892 0.0
H679 H 0.82771 0.32545 0.00825 0.0
H680 H 0.89962 0.37225 0.76931 0.0
H681 H 0.92527 0.31404 0.79868 0.0
H682 H 0.9277 0.2707 0.85605 0.0
H683 H 0.90673 0.25719 0.92097 0.0
Mn684 Mn 0.1368 0.00059 0.89199 0.0
Mn685 Mn 0.16866 0.0879 0.87134 0.0
C686 C 0.09418 0.05055 0.8862 0.0
C687 C 0.11937 0.95875 0.94086 0.0
C688 C 0.16565 0.02301 0.81429 0.0
O689 O 0.19261 0.99873 0.90675 0.0
O690 O 0.20646 0.06073 0.90311 0.0
C691 C 0.17474 0.12354 0.94691 0.0
N692 N 0.15829 0.12179 0.9121 0.0
C693 C 0.11591 0.17239 0.92757 0.0
C694 C 0.1316 0.17391 0.96389 0.0
C695 C 0.16139 0.14961 0.97347 0.0
C696 C 0.13044 0.14592 0.90223 0.0
H697 H 0.19741 0.10474 0.95472 0.0
C698 C 0.21257 0.02741 0.91611 0.0
O699 O 0.12695 0.94589 0.90739 0.0
O700 O 0.12393 0.99451 0.94551 0.0
N701 N 0.13208 0.11663 0.84351 0.0
C702 C 0.12226 0.11406 0.80642 0.0
C703 C 0.09424 0.13796 0.79173 0.0
C704 C 0.07693 0.16465 0.81518 0.0
C705 C 0.08843 0.16777 0.85291 0.0
C706 C 0.11677 0.1434 0.86587 0.0
H707 H 0.13589 0.09421 0.78803 0.0
O708 O 0.08296 0.01592 0.88193 0.0
O709 O 0.13019 0.05414 0.8904 0.0
O710 O 0.1484 0.99897 0.83514 0.0
O711 O 0.17835 0.05476 0.82659 0.0
C712 C 0.07287 0.19408 0.87818 0.0
C713 C 0.08647 0.19619 0.91553 0.0
H714 H 0.12123 0.19387 0.98451 0.0
H715 H 0.1739 0.15081 0.00133 0.0
H716 H 0.08598 0.13576 0.7624 0.0
H717 H 0.05511 0.18285 0.80384 0.0
H718 H 0.0505 0.21288 0.86916 0.0
H719 H 0.0743 0.21636 0.93475 0.0
Mn720 Mn 0.5775 0.86603 0.48742 0.0
Mn721 Mn 0.60047 0.83192 0.57286 0.0
C722 C 0.59015 0.90809 0.53638 0.0
C723 C 0.52621 0.88324 0.44781 0.0
C724 C 0.65601 0.83551 0.50747 0.0
O725 O 0.56027 0.81174 0.48478 0.0
O726 O 0.57046 0.79295 0.54417 0.0
C727 C 0.52483 0.82244 0.6071 0.0
N728 N 0.5594 0.8395 0.60689 0.0
C729 C 0.54594 0.87197 0.66484 0.0
C730 C 0.51033 0.85454 0.66572 0.0
C731 C 0.49964 0.82991 0.63659 0.0
C732 C 0.56979 0.86364 0.63457 0.0
H733 H 0.51656 0.803 0.58515 0.0
C734 C 0.55648 0.78772 0.51106 0.0
O735 O 0.55881 0.87396 0.43374 0.0
O736 O 0.52447 0.88297 0.48401 0.0
N737 N 0.62753 0.86742 0.60357 0.0
C738 C 0.66429 0.87869 0.60095 0.0
C739 C 0.67929 0.90359 0.62792 0.0
C740 C 0.65665 0.91601 0.6578 0.0
C741 C 0.61936 0.90296 0.66073 0.0
C742 C 0.60576 0.87856 0.63271 0.0
H743 H 0.68211 0.86897 0.57839 0.0
O744 O 0.59262 0.91858 0.50138 0.0
O745 O 0.58167 0.87266 0.541 0.0
O746 O 0.63366 0.85042 0.48306 0.0
O747 O 0.64531 0.82488 0.54027 0.0
C748 C 0.59558 0.9123 0.69103 0.0
C749 C 0.55909 0.89648 0.6933 0.0
H750 H 0.49111 0.85942 0.68883 0.0
H751 H 0.47223 0.81632 0.63714 0.0
H752 H 0.70829 0.91305 0.62575 0.0
H753 H 0.66841 0.93499 0.67872 0.0
H754 H 0.6054 0.93094 0.71321 0.0
H755 H 0.54168 0.90292 0.71743 0.0
Mn756 Mn 0.60253 0.12218 0.99686 0.0
Mn757 Mn 0.62735 0.1481 0.90894 0.0
C758 C 0.61454 0.07491 0.95258 0.0
C759 C 0.55301 0.11141 0.03887 0.0
C760 C 0.67875 0.15575 0.97834 0.0
O761 O 0.58612 0.1769 0.99225 0.0
O762 O 0.58935 0.18502 0.92933 0.0
C763 C 0.5592 0.1489 0.86012 0.0
N764 N 0.59218 0.13215 0.87082 0.0
C765 C 0.58794 0.08838 0.81904 0.0
C766 C 0.55287 0.10374 0.80903 0.0
C767 C 0.53859 0.13436 0.8295 0.0
C768 C 0.60712 0.104 0.84999 0.0
H769 H 0.54917 0.1739 0.8741 0.0
C770 C 0.5757 0.19319 0.96188 0.0
O771 O 0.58617 0.12141 0.05116 0.0
O772 O 0.54935 0.10717 0.00279 0.0
N773 N 0.66092 0.11174 0.88711 0.0
C774 C 0.69794 0.10508 0.89519 0.0
C775 C 0.71715 0.07614 0.87634 0.0
C776 C 0.69859 0.05528 0.84821 0.0
C777 C 0.66123 0.06416 0.83862 0.0
C778 C 0.64324 0.09275 0.85904 0.0
H779 H 0.71299 0.12212 0.91531 0.0
O780 O 0.61613 0.0678 0.98852 0.0
O781 O 0.60775 0.11003 0.9442 0.0
O782 O 0.65794 0.13733 0.00119 0.0
O783 O 0.66772 0.16543 0.94518 0.0
C784 C 0.64154 0.04649 0.80887 0.0
C785 C 0.60503 0.0588 0.79888 0.0
H786 H 0.53709 0.09276 0.78521 0.0
H787 H 0.51212 0.1472 0.82122 0.0
H788 H 0.7464 0.07035 0.88309 0.0
H789 H 0.71365 0.03331 0.83336 0.0
H790 H 0.65465 0.02414 0.79279 0.0
H791 H 0.59058 0.04578 0.77524 0.0
Mn792 Mn 0.41921 0.36439 0.99866 0.0
Mn793 Mn 0.40238 0.33462 0.9105 0.0
C794 C 0.40998 0.40856 0.95171 0.0
C795 C 0.46768 0.38128 0.04193 0.0
C796 C 0.34277 0.33098 0.97303 0.0
O797 O 0.4371 0.30997 0.9993 0.0
O798 O 0.43175 0.29512 0.93819 0.0
C799 C 0.47952 0.32831 0.87907 0.0
N800 N 0.44445 0.34414 0.87816 0.0
C801 C 0.45896 0.37741 0.82086 0.0
C802 C 0.49521 0.36161 0.82125 0.0
C803 C 0.50555 0.337 0.85056 0.0
C804 C 0.43412 0.36758 0.84989 0.0
H805 H 0.48769 0.30917 0.90135 0.0
C806 C 0.44366 0.28808 0.97171 0.0
O807 O 0.43451 0.37057 0.05366 0.0
O808 O 0.47174 0.38186 0.0059 0.0
N809 N 0.37655 0.37201 0.88104 0.0
C810 C 0.34273 0.38894 0.88751 0.0
C811 C 0.32908 0.41602 0.86195 0.0
C812 C 0.35078 0.42612 0.83043 0.0
C813 C 0.3863 0.40961 0.82523 0.0
C814 C 0.39832 0.38265 0.85159 0.0
H815 H 0.32696 0.38286 0.91272 0.0
O816 O 0.40494 0.41748 0.98682 0.0
O817 O 0.4188 0.37352 0.94558 0.0
O818 O 0.36252 0.34777 0.9986 0.0
O819 O 0.35658 0.32324 0.94076 0.0
C820 C 0.41066 0.41954 0.79547 0.0
C821 C 0.44681 0.4031 0.79314 0.0
H822 H 0.51541 0.36845 0.79938 0.0
H823 H 0.53349 0.32471 0.85113 0.0
H824 H 0.30219 0.42954 0.86689 0.0
H825 H 0.34033 0.44728 0.81095 0.0
H826 H 0.40204 0.44008 0.7745 0.0
H827 H 0.4655 0.41081 0.77042 0.0
Mn828 Mn 0.91823 0.13156 0.00304 0.0
Mn829 Mn 0.88735 0.16135 0.0865 0.0
C830 C 0.90462 0.08574 0.04892 0.0
C831 C 0.97117 0.11872 0.96639 0.0
C832 C 0.84041 0.16247 0.01398 0.0
O833 O 0.9316 0.18729 0.00484 0.0
O834 O 0.92832 0.19661 0.06734 0.0
C835 C 0.9512 0.16215 0.14101 0.0
N836 N 0.9187 0.14603 0.12797 0.0
C837 C 0.9195 0.10017 0.17819 0.0
C838 C 0.95446 0.11446 0.19026 0.0
C839 C 0.97007 0.14602 0.17197 0.0
C840 C 0.9022 0.11729 0.14699 0.0
H841 H 0.96228 0.18752 0.12828 0.0
C842 C 0.94315 0.20353 0.03484 0.0
O843 O 0.93862 0.12561 0.95077 0.0
O844 O 0.97249 0.12104 0.00269 0.0
N845 N 0.85099 0.12655 0.10687 0.0
C846 C 0.81399 0.12157 0.09733 0.0
C847 C 0.79274 0.09309 0.11492 0.0
C848 C 0.80927 0.07091 0.14329 0.0
C849 C 0.84651 0.07831 0.15459 0.0
C850 C 0.86644 0.1068 0.13565 0.0
H851 H 0.80047 0.13959 0.07701 0.0
O852 O 0.90654 0.07701 0.01351 0.0
O853 O 0.90971 0.12155 0.05573 0.0
O854 O 0.86265 0.14266 0.99399 0.0
O855 O 0.85055 0.17701 0.04569 0.0
C856 C 0.86422 0.05928 0.18466 0.0
C857 C 0.90064 0.07028 0.19648 0.0
H858 H 0.96897 0.10216 0.21422 0.0
H859 H 0.99631 0.15818 0.18202 0.0
H860 H 0.76354 0.08857 0.10693 0.0
H861 H 0.79272 0.04913 0.15704 0.0
H862 H 0.84968 0.03685 0.19957 0.0
H863 H 0.91339 0.05612 0.22024 0.0
C864 C 0.03343 0.05494 0.5058 0.0
C865 C 0.05335 0.02031 0.50163 0.0
C866 C 0.03807 0.02225 0.43366 0.0
C867 C 0.02513 0.06021 0.43697 0.0
N868 N 0.01432 0.11395 0.47706 0.0
N869 N 0.07948 0.9741 0.4587 0.0
C870 C 0.02396 0.07686 0.47333 0.0
C871 C 0.05675 0.00459 0.46481 0.0
N872 N 0.02121 0.06589 0.54059 0.0
N873 N 0.03202 0.00251 0.40115 0.0
H874 H 0.09788 0.96328 0.47883 0.0
H875 H 0.08389 0.96229 0.43224 0.0
H876 H 0.01859 0.01379 0.37762 0.0
H877 H 0.03703 0.97366 0.39872 0.0
H878 H 0.00377 0.08915 0.54475 0.0
H879 H 0.02412 0.04904 0.56456 0.0
H880 H 0.01719 0.12869 0.50232 0.0
H881 H 0.00685 0.13083 0.45417 0.0
C882 C 0.90363 0.44898 0.44585 0.0
C883 C 0.90739 0.40956 0.44191 0.0
C884 C 0.87804 0.4033 0.50466 0.0
C885 C 0.88403 0.44264 0.51142 0.0
N886 N 0.91755 0.49836 0.4879 0.0
N887 N 0.90067 0.34832 0.47063 0.0
C888 C 0.90066 0.46431 0.48203 0.0
C889 C 0.89509 0.38631 0.47222 0.0
N890 N 0.90676 0.47236 0.41567 0.0
N891 N 0.85556 0.38234 0.52783 0.0
H892 H 0.91225 0.33544 0.44696 0.0
H893 H 0.89563 0.33038 0.49343 0.0
H894 H 0.84057 0.39393 0.55016 0.0
H895 H 0.84846 0.35435 0.52202 0.0
H896 H 0.90511 0.50171 0.41815 0.0
H897 H 0.90638 0.46172 0.38856 0.0
H898 H 0.92363 0.50943 0.51447 0.0
H899 H 0.92363 0.50943 0.51447 0.0
C900 C 0.09613 0.88249 0.01586 0.0
C901 C 0.07973 0.90652 0.04345 0.0
C902 C 0.07855 0.95656 0.99698 0.0
C903 C 0.10272 0.93653 0.97266 0.0
N904 N 0.13888 0.87954 0.96245 0.0
N905 N 0.06889 0.9714 0.06177 0.0
C906 C 0.11297 0.89901 0.98292 0.0
C907 C 0.07562 0.94517 0.03464 0.0
N908 N 0.09483 0.84433 0.0204 0.0
N909 N 0.05646 0.9852 0.98388 0.0
H910 H 0.071 0.96505 0.09031 0.0
H911 H 0.06663 1.00014 0.05552 0.0
H912 H 0.05536 0.99274 0.95543 0.0
H913 H 0.03529 0.99677 0.00061 0.0
H914 H 0.10364 0.82558 -0.0004 0.0
H915 H 0.08268 0.83182 0.04406 0.0
H916 H 0.14932 0.85339 0.97106 0.0
H917 H 0.15202 0.89087 0.93874 0.0
C918 C 0.95531 0.54372 0.05806 0.0
C919 C 0.95706 0.58353 0.06188 0.0
C920 C 0.91999 0.58908 0.00364 0.0
C921 C 0.92489 0.54978 0.99685 0.0
N922 N 0.96299 0.49486 0.01223 0.0
N923 N 0.94781 0.64443 0.03261 0.0
C924 C 0.94719 0.52849 0.02243 0.0
C925 C 0.94168 0.60645 0.03278 0.0
N926 N 0.96165 0.52004 0.08776 0.0
N927 N 0.89389 0.60959 0.98407 0.0
H928 H 0.96308 0.65793 0.05378 0.0
H929 H 0.93985 0.66173 0.01013 0.0
H930 H 0.87517 0.59769 0.96475 0.0
H931 H 0.88789 0.63766 0.9905 0.0
H932 H 0.95838 0.49082 0.08551 0.0
H933 H 0.96504 0.52936 0.11529 0.0
H934 H 0.98125 0.48 0.02998 0.0
H935 H 0.96268 0.48491 0.98456 0.0
C936 C 0.48228 0.07343 0.11084 0.0
C937 C 0.44964 0.0761 0.08748 0.0
C938 C 0.48462 0.11888 0.04651 0.0
C939 C 0.51894 0.10735 0.06301 0.0
N940 N 0.55075 0.07318 0.11289 0.0
N941 N 0.42522 0.09448 0.02591 0.0
C942 C 0.51805 0.08511 0.09634 0.0
C943 C 0.45186 0.09753 0.05358 0.0
N944 N 0.47915 0.0595 0.14655 0.0
N945 N 0.48399 0.14879 0.02227 0.0
H946 H 0.40337 0.07505 0.02692 0.0
H947 H 0.42785 0.10773 -0.00025 0.0
H948 H 0.50774 0.1659 0.01852 0.0
H949 H 0.45931 0.15866 0.00963 0.0
H950 H 0.50135 0.05966 0.16591 0.0
H951 H 0.45317 0.05171 0.15784 0.0
H952 H 0.55138 0.05321 0.1345 0.0
H953 H 0.57736 0.0817 0.10382 0.0
C954 C 0.56546 0.4169 0.06032 0.0
C955 C 0.56238 0.4367 0.09494 0.0
C956 C 0.49649 0.41425 0.1005 0.0
C957 C 0.50052 0.39347 0.0663 0.0
N958 N 0.54495 0.36332 0.02428 0.0
N959 N 0.52795 0.44641 0.15244 0.0
C960 C 0.53715 0.39062 0.05019 0.0
C961 C 0.52887 0.43265 0.11654 0.0
N962 N 0.59334 0.42515 0.03498 0.0
N963 N 0.46192 0.41851 0.11684 0.0
H964 H 0.55106 0.45999 0.16466 0.0
H965 H 0.50597 0.441 0.17114 0.0
H966 H 0.43777 0.40423 0.10822 0.0
H967 H 0.45682 0.43779 0.13836 0.0
H968 H 0.59364 0.4141 0.00775 0.0
H969 H 0.61388 0.44574 0.03895 0.0
H970 H 0.5721 0.35849 0.01411 0.0
H971 H 0.5253 0.34311 0.01601 0.0
C972 C 0.45559 0.88677 0.44274 0.0
C973 C 0.49137 0.89362 0.4256 0.0
C974 C 0.45808 0.92974 0.37625 0.0
C975 C 0.42483 0.92999 0.39849 0.0
N976 N 0.39532 0.91351 0.45793 0.0
N977 N 0.52613 0.92466 0.37532 0.0
C978 C 0.42419 0.90935 0.43278 0.0
C979 C 0.4925 0.91525 0.39163 0.0
N980 N 0.45135 0.85903 0.46919 0.0
N981 N 0.45688 0.94413 0.34055 0.0
H982 H 0.55222 0.91525 0.38477 0.0
H983 H 0.52843 0.94437 0.3536 0.0
H984 H 0.43223 0.9553 0.32903 0.0
H985 H 0.4789 0.94138 0.32135 0.0
H986 H 0.42506 0.85096 0.47968 0.0
H987 H 0.4732 0.84146 0.47776 0.0
H988 H 0.39645 0.90285 0.48533 0.0
H989 H 0.37176 0.93028 0.45325 0.0
C990 C 0.49543 0.62693 0.43064 0.0
C991 C 0.47595 0.59199 0.43151 0.0
C992 C 0.53294 0.56132 0.40708 0.0
C993 C 0.55414 0.59483 0.41426 0.0
N994 N 0.55517 0.6569 0.44268 0.0
N995 N 0.47785 0.52432 0.42459 0.0
C996 C 0.53519 0.62678 0.42898 0.0
C997 C 0.49533 0.55853 0.4213 0.0
N998 N 0.47639 0.66041 0.4313 0.0
N999 N 0.54686 0.53369 0.38451 0.0
H1000 H 0.44976 0.52168 0.43306 0.0
H1001 H 0.49211 0.49886 0.42097 0.0
H1002 H 0.57202 0.5369 0.37003 0.0
H1003 H 0.53115 0.51005 0.37654 0.0
H1004 H 0.48984 0.68644 0.42797 0.0
H1005 H 0.44712 0.66221 0.42999 0.0
H1006 H 0.5425 0.67993 0.45569 0.0
H1007 H 0.58444 0.65659 0.44549 0.0
C1008 C 0.08119 0.43911 0.09552 0.0
C1009 C 0.11499 0.43942 0.07406 0.0
C1010 C 0.12626 0.50532 0.09381 0.0
C1011 C 0.09256 0.50408 0.11564 0.0
N1012 N 0.04937 0.4639 0.14979 0.0
N1013 N 0.17445 0.46958 0.06061 0.0
C1014 C 0.07447 0.46873 0.12109 0.0
C1015 C 0.13922 0.47146 0.07602 0.0
N1016 N 0.05327 0.4131 0.08918 0.0
N1017 N 0.14484 0.53865 0.08817 0.0
H1018 H 0.18436 0.44533 0.04726 0.0
H1019 H 0.19485 0.49053 0.06418 0.0
H1020 H 0.1383 0.56342 0.10232 0.0
H1021 H 0.16622 0.54198 0.06833 0.0
H1022 H 0.02673 0.41491 0.10169 0.0
H1023 H 0.05445 0.39215 0.06879 0.0
H1024 H 0.03728 0.43779 0.15625 0.0
H1025 H 0.04393 0.48509 0.1693 0.0
C1026 C 0.0831 0.50673 0.39846 0.0
C1027 C 0.04393 0.49942 0.40344 0.0
C1028 C 0.03565 0.56556 0.42184 0.0
C1029 C 0.07514 0.56964 0.4266 0.0
N1030 N 0.13695 0.54161 0.42238 0.0
N1031 N 0.98559 0.52103 0.43131 0.0
C1032 C 0.09912 0.53957 0.41547 0.0
C1033 C 0.02073 0.52884 0.41763 0.0
N1034 N 0.10482 0.4836 0.37686 0.0
N1035 N 0.01199 0.59569 0.42519 0.0
H1036 H 0.97802 0.49404 0.44034 0.0
H1037 H 0.96623 0.54155 0.43885 0.0
H1038 H 0.02111 0.62271 0.43185 0.0
H1039 H 0.98344 0.59426 0.41801 0.0
H1040 H 0.13287 0.48984 0.37043 0.0
H1041 H 0.09377 0.46101 0.36161 0.0
H1042 H 0.15511 0.51887 0.41833 0.0
H1043 H 0.14951 0.56543 0.43425 0.0
C1044 C 0.87014 0.97887 0.42379 0.0
C1045 C 0.89527 0.94869 0.43164 0.0
C1046 C 0.93758 0.97129 0.38273 0.0
C1047 C 0.91746 0.00565 0.38086 0.0
N1048 N 0.86166 0.04114 0.39602 0.0
N1049 N 0.95903 0.92462 0.4261 0.0
C1050 C 0.88263 0.00913 0.40027 0.0
C1051 C 0.93065 0.94708 0.41312 0.0
N1052 N 0.83456 0.97835 0.43844 0.0
N1053 N 0.96344 0.96145 0.3561 0.0
H1054 H 0.95696 0.90995 0.45116 0.0
H1055 H 0.98631 0.92513 0.41517 0.0
H1056 H 0.9653 0.97475 0.33012 0.0
H1057 H 0.97857 0.93628 0.35712 0.0
H1058 H 0.81366 0.99765 0.43113 0.0
H1059 H 0.82505 0.95661 0.45583 0.0
H1060 H 0.83842 0.0476 0.41268 0.0
H1061 H 0.86809 0.06165 0.37585 0.0
C1062 C 0.45206 0.56507 0.60427 0.0
C1063 C 0.4161 0.56445 0.58688 0.0
C1064 C 0.40054 0.50594 0.62079 0.0
C1065 C 0.4389 0.50325 0.6312 0.0
N1066 N 0.49383 0.53878 0.65095 0.0
N1067 N 0.35448 0.53553 0.57961 0.0
C1068 C 0.46205 0.5359 0.62922 0.0
C1069 C 0.38927 0.53589 0.59639 0.0
N1070 N 0.47779 0.59205 0.59466 0.0
N1071 N 0.37514 0.48074 0.63511 0.0
H1072 H 0.34514 0.55684 0.56162 0.0
H1073 H 0.33541 0.51324 0.58202 0.0
H1074 H 0.3829 0.46088 0.65545 0.0
H1075 H 0.34611 0.48256 0.63079 0.0
H1076 H 0.5064 0.5908 0.60152 0.0
H1077 H 0.47023 0.61529 0.57862 0.0
H1078 H 0.50965 0.5635 0.65353 0.0
H1079 H 0.50188 0.51778 0.66981 0.0
C1080 C 0.59375 0.61179 0.00953 0.0
C1081 C 0.61548 0.57795 0.00959 0.0
C1082 C 0.60085 0.56832 0.94316 0.0
C1083 C 0.57928 0.60212 0.94226 0.0
N1084 N 0.56558 0.66166 0.9716 0.0
N1085 N 0.65348 0.53627 0.97173 0.0
C1086 C 0.57941 0.62586 0.97448 0.0
C1087 C 0.62416 0.56097 0.97458 0.0
N1088 N 0.58475 0.62946 0.04244 0.0
N1089 N 0.59627 0.54081 0.91664 0.0
H1090 H 0.67142 0.53054 0.99436 0.0
H1091 H 0.66219 0.52508 0.94601 0.0
H1092 H 0.57585 0.54185 0.89572 0.0
H1093 H 0.6094 0.51455 0.91851 0.0
H1094 H 0.56484 0.65101 0.04394 0.0
H1095 H 0.59568 0.62186 0.06856 0.0
H1096 H 0.56788 0.68154 0.99312 0.0
H1097 H 0.55556 0.67251 0.94614 0.0
C1098 C 0.37272 0.95769 0.96469 0.0
C1099 C 0.38511 0.94202 0.99893 0.0
C1100 C 0.42616 0.89992 0.96299 0.0
C1101 C 0.42141 0.9237 0.93083 0.0
N1102 N 0.39421 0.98083 0.90521 0.0
N1103 N 0.42324 0.89586 0.03134 0.0
C1104 C 0.39555 0.95401 0.93262 0.0
C1105 C 0.41108 0.91167 0.99838 0.0
N1106 N 0.33976 0.97732 0.96339 0.0
N1107 N 0.44603 0.86709 0.9601 0.0
H1108 H 0.41186 0.90291 0.05742 0.0
H1109 H 0.44567 0.87695 0.03288 0.0
H1110 H 0.45813 0.85815 0.93494 0.0
H1111 H 0.44755 0.84723 0.98175 0.0
H1112 H 0.32863 0.98802 0.93834 0.0
H1113 H 0.32202 0.97868 0.98681 0.0
H1114 H 0.3783 0.00546 0.90765 0.0
H1115 H 0.41086 0.97936 0.88139 0.0
C1116 C 0.5575 0.40301 0.51814 0.0
C1117 C 0.56069 0.42019 0.55415 0.0
C1118 C 0.59694 0.47118 0.52516 0.0
C1119 C 0.58577 0.45911 0.4888 0.0
N1120 N 0.55113 0.41384 0.45098 0.0
N1121 N 0.57683 0.47722 0.58913 0.0
C1122 C 0.56536 0.42469 0.48514 0.0
C1123 C 0.57887 0.45596 0.55715 0.0
N1124 N 0.54624 0.36623 0.51552 0.0
N1125 N 0.6256 0.49656 0.52933 0.0
H1126 H 0.56306 0.46881 0.61351 0.0
H1127 H 0.58651 0.50506 0.59022 0.0
H1128 H 0.6419 0.50494 0.50647 0.0
H1129 H 0.63613 0.50476 0.55558 0.0
H1130 H 0.54634 0.35121 0.49028 0.0
H1131 H 0.54079 0.34987 0.53937 0.0
H1132 H 0.533 0.39082 0.44775 0.0
H1133 H 0.5542 0.42983 0.42651 0.0
C1134 C 0.40047 0.05021 0.55737 0.0
C1135 C 0.40517 0.08989 0.5602 0.0
C1136 C 0.36949 0.09658 0.50103 0.0
C1137 C 0.37433 0.05742 0.49363 0.0
N1138 N 0.40506 0.9992 0.51347 0.0
N1139 N 0.39603 0.15132 0.53237 0.0
C1140 C 0.3921 0.03458 0.52169 0.0
C1141 C 0.38998 0.1133 0.53142 0.0
N1142 N 0.40709 0.02701 0.58745 0.0
N1143 N 0.34474 0.11758 0.48026 0.0
H1144 H 0.41028 0.16434 0.55458 0.0
H1145 H 0.38879 0.16922 0.51014 0.0
H1146 H 0.32696 0.10579 0.45995 0.0
H1147 H 0.3385 0.14558 0.48671 0.0
H1148 H 0.39996 0.99843 0.5873 0.0
H1149 H 0.4158 0.03651 0.61371 0.0
H1150 H 0.41617 0.98087 0.53355 0.0
H1151 H 0.41087 0.99042 0.48609 0.0
C1152 C 0.98859 0.6099 0.60445 0.0
C1153 C 0.99366 0.60766 0.56472 0.0
C1154 C 0.92759 0.58735 0.55898 0.0
C1155 C 0.92589 0.57998 0.59809 0.0
N1156 N 0.95761 0.58145 0.65834 0.0
N1157 N 0.96927 0.58011 0.50694 0.0
C1158 C 0.95719 0.59064 0.62104 0.0
C1159 C 0.96332 0.59309 0.54258 0.0
N1160 N 0.01245 0.63088 0.62628 0.0
N1161 N 0.89619 0.58515 0.53663 0.0
H1162 H 0.99605 0.57291 0.49727 0.0
H1163 H 0.94749 0.57031 0.48984 0.0
H1164 H 0.86955 0.57817 0.54655 0.0
H1165 H 0.89625 0.59398 0.50855 0.0
H1166 H 0.00776 0.63533 0.65494 0.0
H1167 H 0.03401 0.64748 0.61513 0.0
H1168 H 0.98129 0.58518 0.67551 0.0
H1169 H 0.93485 0.56811 0.67126 0.0
C1170 C 0.00303 0.85752 0.57526 0.0
C1171 C 0.98084 0.89052 0.57405 0.0
C1172 C 0.03302 0.92632 0.6023 0.0
C1173 C 0.05748 0.89535 0.59547 0.0
N1174 N 0.06574 0.83148 0.57246 0.0
N1175 N 0.97483 0.95747 0.58399 0.0
C1176 C 0.04236 0.8608 0.5815 0.0
C1177 C 0.99579 0.92534 0.58699 0.0
N1178 N 0.9864 0.823 0.57024 0.0
N1179 N 0.04422 0.95533 0.62503 0.0
H1180 H 0.94692 0.95719 0.57438 0.0
H1181 H 0.98594 0.98429 0.58907 0.0
H1182 H 0.06972 0.95496 0.63977 0.0
H1183 H 0.02634 0.97729 0.63279 0.0
H1184 H 0.00062 0.79753 0.57392 0.0
H1185 H 0.95732 0.81987 0.56663 0.0
H1186 H 0.05659 0.80748 0.55809 0.0
H1187 H 0.09492 0.83239 0.5761 0.0
C1188 C 0.98322 0.37612 0.95864 0.0
C1189 C 0.01733 0.3835 0.93876 0.0
C1190 C 0.97834 0.40722 0.88631 0.0
C1191 C 0.94676 0.41005 0.91061 0.0
N1192 N 0.92182 0.39961 0.97354 0.0
N1193 N 0.04642 0.40775 0.88164 0.0
C1194 C 0.94952 0.3944 0.94747 0.0
C1195 C 0.01474 0.39869 0.90157 0.0
N1196 N 0.98278 0.352 0.98874 0.0
N1197 N 0.97357 0.41398 0.84874 0.0
H1198 H 0.07374 0.40294 0.89114 0.0
H1199 H 0.04558 0.42294 0.85646 0.0
H1200 H 0.94708 0.42004 0.83739 0.0
H1201 H 0.99463 0.40941 0.82883 0.0
H1202 H 0.95793 0.34364 0.00212 0.0
H1203 H 0.0063 0.33672 0.99735 0.0
H1204 H 0.92543 0.39361 0.00212 0.0
H1205 H 0.89626 0.41226 0.96765 0.0
C1206 C 0.03679 0.09233 0.88516 0.0
C1207 C 0.06776 0.07673 0.90512 0.0
C1208 C 0.0345 0.0865 0.9642 0.0
C1209 C 0.00497 0.10583 0.94485 0.0
N1210 N 0.98725 0.13894 0.88748 0.0
N1211 N 0.10058 0.07192 0.96541 0.0
C1212 C 0.00873 0.11244 0.90542 0.0
C1213 C 0.06853 0.07903 0.94513 0.0
N1214 N 0.03382 0.08777 0.84709 0.0
N1215 N 0.02932 0.07173 -0.0005 0.0
H1216 H 0.12628 0.0647 0.95362 0.0
H1217 H 0.10268 0.07749 0.9942 0.0
H1218 H 0.00276 0.06608 0.01072 0.0
H1219 H 0.05065 0.05863 0.01494 0.0
H1220 H 0.00986 0.09575 0.83189 0.0
H1221 H 0.05437 0.07401 0.8313 0.0
H1222 H 0.99129 0.14614 0.85925 0.0
H1223 H 0.96945 0.15732 0.90177 0.0
C1224 C 0.58432 0.99873 0.5941 0.0
C1225 C 0.54585 0.00753 0.58618 0.0
C1226 C 0.53696 0.94373 0.56259 0.0
C1227 C 0.57631 0.93733 0.56276 0.0
N1228 N 0.63859 0.96387 0.57166 0.0
N1229 N 0.49274 0.99172 0.54598 0.0
C1230 C 0.60054 0.96631 0.57656 0.0
C1231 C 0.52407 0.98099 0.56566 0.0
N1232 N 0.60513 0.02002 0.61855 0.0
N1233 N 0.5116 0.91508 0.5577 0.0
H1234 H 0.48428 0.01983 0.54356 0.0
H1235 H 0.47934 0.97326 0.52731 0.0
H1236 H 0.51931 0.88679 0.55714 0.0
H1237 H 0.4825 0.91963 0.55875 0.0
H1238 H 0.63233 0.01238 0.62692 0.0
H1239 H 0.59403 0.04274 0.63337 0.0
H1240 H 0.65702 0.98587 0.57848 0.0
H1241 H 0.65107 0.94104 0.55808 0.0
C1242 C 0.62611 0.00917 0.92716 0.0
C1243 C 0.60454 0.04312 0.92672 0.0
C1244 C 0.56063 0.01298 0.88299 0.0
C1245 C 0.57614 0.97746 0.89117 0.0
N1246 N 0.62484 0.9407 0.92094 0.0
N1247 N 0.54369 0.07132 0.91164 0.0
C1248 C 0.60974 0.97515 0.91272 0.0
C1249 C 0.56992 0.04378 0.9062 0.0
N1250 N 0.66187 0.0094 0.9415 0.0
N1251 N 0.53573 0.0168 0.85392 0.0
H1252 H 0.54619 0.0916 0.93247 0.0
H1253 H 0.51705 0.07075 0.899 0.0
H1254 H 0.53057 0.99471 0.83517 0.0
H1255 H 0.52421 0.0427 0.84617 0.0
H1256 H 0.68001 0.98637 0.93985 0.0
H1257 H 0.67443 0.03393 0.9517 0.0
H1258 H 0.64693 0.93693 0.94004 0.0
H1259 H 0.61381 0.9157 0.90987 0.0
C1260 C 0.40851 0.50674 0.91045 0.0
C1261 C 0.44271 0.50678 0.88952 0.0
C1262 C 0.45287 0.44077 0.90485 0.0
C1263 C 0.41805 0.43948 0.92462 0.0
N1264 N 0.3581 0.46887 0.93748 0.0
N1265 N 0.48566 0.46944 0.85268 0.0
C1266 C 0.39412 0.47165 0.9241 0.0
C1267 C 0.4604 0.47203 0.88151 0.0
N1268 N 0.39108 0.53976 0.91973 0.0
N1269 N 0.48077 0.41493 0.91109 0.0
H1270 H 0.48982 0.49168 0.8338 0.0
H1271 H 0.49879 0.44422 0.84531 0.0
H1272 H 0.47917 0.39349 0.93107 0.0
H1273 H 0.50754 0.41754 0.89918 0.0
H1274 H 0.36894 0.54114 0.93895 0.0
H1275 H 0.39983 0.56611 0.91022 0.0
H1276 H 0.33829 0.49038 0.93457 0.0
H1277 H 0.34705 0.44368 0.94813 0.0
C1278 C 0.891 0.02119 0.07533 0.0
C1279 C 0.91288 0.0549 0.07667 0.0
C1280 C 0.9571 0.02201 0.11807 0.0
C1281 C 0.94207 0.98683 0.10684 0.0
N1282 N 0.89241 0.95278 0.07434 0.0
N1283 N 0.9732 0.08285 0.09412 0.0
C1284 C 0.90782 0.98615 0.08596 0.0
C1285 C 0.94737 0.05452 0.09736 0.0
N1286 N 0.85431 0.02272 0.0639 0.0
N1287 N 0.98209 0.02399 0.14732 0.0
H1288 H 0.96998 0.10475 0.07517 0.0
H1289 H 0.9999 0.08176 0.1066 0.0
H1290 H 0.98821 0.00033 0.16371 0.0
H1291 H 0.99273 0.04949 0.15758 0.0
H1292 H 0.8361 0.99956 0.06475 0.0
H1293 H 0.84125 0.04841 0.05847 0.0
H1294 H 0.86988 0.95131 0.05541 0.0
H1295 H 0.90339 0.92658 0.08182 0.0
C1296 C 0.00972 0.2322 0.30909 0.0
C1297 C 0.00557 0.2099 0.34229 0.0
C1298 C 0.98658 0.26691 0.37752 0.0
C1299 C 0.99211 0.28951 0.34471 0.0
N1300 N 0.01427 0.29495 0.28092 0.0
N1301 N 0.99454 0.20688 0.40937 0.0
C1302 C 0.00519 0.27245 0.31093 0.0
C1303 C 0.99527 0.2276 0.37679 0.0
N1304 N 0.01618 0.21468 0.27542 0.0
N1305 N 0.97093 0.2826 0.40905 0.0
H1306 H 0.99881 0.17784 0.41011 0.0
H1307 H 0.99278 0.21865 0.43617 0.0
H1308 H 0.9647 0.31119 0.4115 0.0
H1309 H 0.96096 0.26697 0.43183 0.0
H1310 H 0.01542 0.22845 0.24948 0.0
H1311 H 0.01966 0.18554 0.27306 0.0
H1312 H 0.02751 0.28517 0.25669 0.0
H1313 H 0.01125 0.32425 0.28147 0.0
C1314 C 0.01614 0.72818 0.13038 0.0
C1315 C 0.01475 0.70948 0.16589 0.0
C1316 C 0.02168 0.77133 0.19775 0.0
C1317 C 0.02537 0.78954 0.16211 0.0
N1318 N 0.03228 0.78392 0.09448 0.0
N1319 N 0.01952 0.71226 0.23344 0.0
C1320 C 0.02401 0.76756 0.12849 0.0
C1321 C 0.01836 0.73085 0.19966 0.0
N1322 N 0.00848 0.70848 0.09811 0.0
N1323 N 0.02 0.79291 0.22959 0.0
H1324 H 0.01694 0.68295 0.23551 0.0
H1325 H 0.02552 0.72525 0.25907 0.0
H1326 H 0.02223 0.8223 0.22893 0.0
H1327 H 0.01382 0.78225 0.25623 0.0
H1328 H 0.00308 0.72122 0.07216 0.0
H1329 H 0.00441 0.6794 0.0976 0.0
H1330 H 0.03717 0.76863 0.06993 0.0
H1331 H 0.03816 0.81251 0.09109 0.0
C1332 C 0.3666 0.01331 0.22093 0.0
C1333 C 0.33302 0.01917 0.19944 0.0
C1334 C 0.29541 0.01105 0.25753 0.0
C1335 C 0.32924 0.00757 0.27914 0.0
N1336 N 0.39742 0.01231 0.28178 0.0
N1337 N 0.2655 0.02658 0.19741 0.0
C1338 C 0.36484 0.01093 0.26095 0.0
C1339 C 0.29741 0.01906 0.21788 0.0
N1340 N 0.40059 0.00934 0.2032 0.0
N1341 N 0.26135 0.00641 0.275 0.0
H1342 H 0.26573 0.02998 0.16818 0.0
H1343 H 0.23908 0.03105 0.20929 0.0
H1344 H 0.25881 0.00338 0.30415 0.0
H1345 H 0.23572 0.00412 0.26074 0.0
H1346 H 0.42476 0.9991 0.21651 0.0
H1347 H 0.40455 0.01357 0.17452 0.0
H1348 H 0.42342 0.02039 0.27071 0.0
H1349 H 0.39859 0.00845 0.31079 0.0
C1350 C 0.699 0.50647 0.23711 0.0
C1351 C 0.66439 0.5083 0.21648 0.0
C1352 C 0.63176 0.52802 0.27418 0.0
C1353 C 0.66533 0.5227 0.29569 0.0
N1354 N 0.73024 0.50318 0.29845 0.0
N1355 N 0.59607 0.51693 0.21863 0.0
C1356 C 0.69889 0.51105 0.27733 0.0
C1357 C 0.63057 0.5178 0.23576 0.0
N1358 N 0.73214 0.50185 0.21806 0.0
N1359 N 0.60047 0.54388 0.29008 0.0
H1360 H 0.59117 0.50838 0.19094 0.0
H1361 H 0.59117 0.50838 0.19094 0.0
H1362 H 0.60061 0.55596 0.3168 0.0
H1363 H 0.57526 0.54789 0.27526 0.0
H1364 H 0.75865 0.50385 0.2307 0.0
H1365 H 0.7333 0.49929 0.18878 0.0
H1366 H 0.75448 0.49077 0.28758 0.0
H1367 H 0.7309 0.50642 0.32769 0.0
C1368 C 0.29043 0.30944 0.01782 0.0
C1369 C 0.30161 0.32025 0.98074 0.0
C1370 C 0.23365 0.31996 0.96213 0.0
C1371 C 0.22313 0.31758 0.0005 0.0
N1372 N 0.24081 0.28504 0.05793 0.0
N1373 N 0.28179 0.32652 0.91489 0.0
C1374 C 0.25123 0.30526 0.02674 0.0
C1375 C 0.27272 0.32227 0.95202 0.0
N1376 N 0.31733 0.30154 0.04439 0.0
N1377 N 0.20641 0.31519 0.93506 0.0
H1378 H 0.2633 0.33804 0.89508 0.0
H1379 H 0.30685 0.31736 0.90304 0.0
H1380 H 0.17863 0.30795 0.94167 0.0
H1381 H 0.21184 0.31304 0.90633 0.0
H1382 H 0.3117 0.30036 0.07318 0.0
H1383 H 0.34546 0.29629 0.03761 0.0
H1384 H 0.25984 0.27357 0.07719 0.0
H1385 H 0.21388 0.27367 0.06118 0.0
C1386 C 0.21978 0.63122 0.49357 0.0
C1387 C 0.20055 0.66651 0.49192 0.0
C1388 C 0.26185 0.69998 0.49585 0.0
C1389 C 0.28089 0.66479 0.49681 0.0
N1390 N 0.27872 0.59655 0.49427 0.0
N1391 N 0.20322 0.73441 0.48698 0.0
C1392 C 0.26001 0.63038 0.49487 0.0
C1393 C 0.22164 0.70086 0.49163 0.0
N1394 N 0.19959 0.59818 0.49415 0.0
N1395 N 0.28228 0.73256 0.5 0.0
H1396 H 0.17389 0.73678 0.48755 0.0
H1397 H 0.21688 0.75973 0.48085 0.0
H1398 H 0.31175 0.73289 0.50095 0.0
H1399 H 0.2703 0.75901 0.50419 0.0
H1400 H 0.2108 0.57212 0.50169 0.0
H1401 H 0.17085 0.59639 0.48842 0.0
H1402 H 0.26628 0.57098 0.48684 0.0
H1403 H 0.30749 0.59361 0.49958 0.0
C1404 C 0.71628 0.87257 0.49833 0.0
C1405 C 0.69794 0.83679 0.50106 0.0
C1406 C 0.76026 0.80548 0.49842 0.0
C1407 C 0.77851 0.84129 0.49713 0.0
N1408 N 0.77385 0.90931 0.50202 0.0
N1409 N 0.70297 0.76956 0.51061 0.0
C1410 C 0.75649 0.87485 0.49904 0.0
C1411 C 0.72014 0.80335 0.50312 0.0
N1412 N 0.69536 0.90485 0.49502 0.0
N1413 N 0.78137 0.77339 0.49516 0.0
H1414 H 0.67381 0.76665 0.51309 0.0
H1415 H 0.7176 0.74489 0.51691 0.0
H1416 H 0.81084 0.77368 0.4949 0.0
H1417 H 0.76983 0.74663 0.49103 0.0
H1418 H 0.70653 0.9307 0.48646 0.0
H1419 H 0.66632 0.90593 0.4988 0.0
H1420 H 0.75986 0.93399 0.50945 0.0
H1421 H 0.80278 0.91344 0.49966 0.0
C1422 C 0.49465 0.766 0.78828 0.0
C1423 C 0.49403 0.78822 0.82157 0.0
C1424 C 0.50336 0.73117 0.86019 0.0
C1425 C 0.50673 0.70894 0.82687 0.0
N1426 N 0.50733 0.70503 0.75907 0.0
N1427 N 0.50249 0.79297 0.88907 0.0
C1428 C 0.50301 0.72641 0.79081 0.0
C1429 C 0.49969 0.77102 0.85738 0.0
N1430 N 0.4867 0.78278 0.75445 0.0
N1431 N 0.5037 0.71437 0.89498 0.0
H1432 H 0.49741 0.82191 0.88943 0.0
H1433 H 0.51245 0.78309 0.91491 0.0
H1434 H 0.51095 0.68637 0.89973 0.0
H1435 H 0.49484 0.72779 0.91949 0.0
H1436 H 0.48308 0.76814 0.72929 0.0
H1437 H 0.48198 0.81176 0.75187 0.0
H1438 H 0.50879 0.71612 0.73193 0.0
H1439 H 0.51079 0.67579 0.75998 0.0
C1440 C 0.49521 0.2705 0.62228 0.0
C1441 C 0.50149 0.28991 0.65682 0.0
C1442 C 0.49624 0.22944 0.69122 0.0
C1443 C 0.48722 0.21071 0.65692 0.0
N1444 N 0.47075 0.21512 0.5908 0.0
N1445 N 0.50286 0.28909 0.72471 0.0
C1446 C 0.48478 0.23172 0.62275 0.0
C1447 C 0.50068 0.26967 0.6915 0.0
N1448 N 0.50086 0.28861 0.58865 0.0
N1449 N 0.50173 0.20861 0.72324 0.0
H1450 H 0.50573 0.31841 0.72582 0.0
H1451 H 0.49873 0.27674 0.75104 0.0
H1452 H 0.49879 0.17928 0.72383 0.0
H1453 H 0.51204 0.21982 0.74837 0.0
H1454 H 0.50182 0.27467 0.56283 0.0
H1455 H 0.50819 0.31701 0.58653 0.0
H1456 H 0.46348 0.23021 0.56661 0.0
H1457 H 0.4628 0.18685 0.58936 0.0
C1458 C 0.87162 0.49062 0.77814 0.0
C1459 C 0.83859 0.49087 0.80095 0.0
C1460 C 0.79989 0.49979 0.74354 0.0
C1461 C 0.83322 0.50299 0.72148 0.0
N1462 N 0.90125 0.50952 0.71996 0.0
N1463 N 0.77164 0.50108 0.80601 0.0
C1464 C 0.86915 0.50056 0.73939 0.0
C1465 C 0.80275 0.49685 0.78377 0.0
N1466 N 0.90539 0.4789 0.79284 0.0
N1467 N 0.76553 0.49837 0.72591 0.0
H1468 H 0.77289 0.49957 0.83538 0.0
H1469 H 0.7454 0.50938 0.79566 0.0
H1470 H 0.76259 0.49996 0.69666 0.0
H1471 H 0.74037 0.49232 0.73981 0.0
H1472 H 0.92901 0.47335 0.77634 0.0
H1473 H 0.90906 0.47082 0.82081 0.0
H1474 H 0.92744 0.51335 0.73293 0.0
H1475 H 0.90143 0.51675 0.69154 0.0
C1476 C 0.19931 0.00518 0.71243 0.0
C1477 C 0.16464 0.00913 0.69204 0.0
C1478 C 0.13191 0.02249 0.75154 0.0
C1479 C 0.16589 0.01691 0.77235 0.0
N1480 N 0.23332 0.00898 0.77247 0.0
N1481 N 0.10499 0.04207 0.69203 0.0
C1482 C 0.20015 0.01035 0.75264 0.0
C1483 C 0.13293 0.02387 0.71144 0.0
N1484 N 0.23149 0.99721 0.69295 0.0
N1485 N 0.09836 0.02689 0.76994 0.0
H1486 H 0.10763 0.04954 0.66375 0.0
H1487 H 0.08251 0.05559 0.70518 0.0
H1488 H 0.09609 0.02801 0.79918 0.0
H1489 H 0.07237 0.02664 0.75604 0.0
H1490 H 0.25706 0.9897 0.70531 0.0
H1491 H 0.23245 0.99878 0.6636 0.0
H1492 H 0.25989 0.00722 0.76024 0.0
H1493 H 0.23441 0.0109 0.80181 0.0
C1494 C 0.78006 0.1266 0.00134 0.0
C1495 C 0.79912 0.16204 0.00362 0.0
C1496 C 0.73822 0.19438 0.9922 0.0
C1497 C 0.72003 0.1588 0.98765 0.0
N1498 N 0.72505 0.09098 0.9824 0.0
N1499 N 0.79728 0.22967 0.99768 0.0
C1500 C 0.74139 0.125 0.99085 0.0
C1501 C 0.77837 0.19601 0.9982 0.0
N1502 N 0.79835 0.09412 0.01136 0.0
N1503 N 0.71687 0.22646 0.99205 0.0
H1504 H 0.82634 0.23153 0.00217 0.0
H1505 H 0.78496 0.25529 0.99031 0.0
H1506 H 0.68771 0.22599 0.98767 0.0
H1507 H 0.72732 0.25311 0.99878 0.0
H1508 H 0.78469 0.06847 0.01609 0.0
H1509 H 0.8267 0.0932 0.01871 0.0
H1510 H 0.74024 0.06619 0.97838 0.0
H1511 H 0.69664 0.08791 0.9756 0.0
C1512 C 0.01247 0.97781 0.23965 0.0
C1513 C 0.04219 0.97453 0.2133 0.0
C1514 C 0.0584 0.04145 0.22543 0.0
C1515 C 0.02733 0.045 0.2504 0.0
N1516 N 0.96525 0.01978 0.26418 0.0
N1517 N 0.08103 0.00984 0.1697 0.0
C1518 C 0.00138 0.01422 0.25251 0.0
C1519 C 0.06209 0.00813 0.20303 0.0
N1520 N 0.99463 0.94619 0.25258 0.0
N1521 N 0.08364 0.07039 0.2218 0.0
H1522 H 0.08019 0.98789 0.15027 0.0
H1523 H 0.09317 0.0346 0.15931 0.0
H1524 H 0.07973 0.0966 0.23461 0.0
H1525 H 0.10893 0.0676 0.20709 0.0
H1526 H 0.97425 0.94711 0.27356 0.0
H1527 H 0.003 0.91896 0.24522 0.0
H1528 H 0.94472 0.99861 0.26324 0.0
H1529 H 0.95442 0.04647 0.26949 0.0
C1530 C 0.95976 0.50256 0.29086 0.0
C1531 C 0.97942 0.46902 0.28048 0.0
C1532 C 0.02272 0.50903 0.2439 0.0
C1533 C 0.99649 0.53928 0.24474 0.0
N1534 N 0.94421 0.56782 0.27715 0.0
N1535 N 0.0305 0.44133 0.24573 0.0
C1536 C 0.96613 0.53687 0.27068 0.0
C1537 C 0.01127 0.47263 0.25669 0.0
N1538 N 0.93761 0.50259 0.32216 0.0
N1539 N 0.05934 0.51541 0.23384 0.0
H1540 H 0.02293 0.41417 0.25427 0.0
H1541 H 0.05148 0.44249 0.22533 0.0
H1542 H 0.07007 0.54248 0.22944 0.0
H1543 H 0.08007 0.4946 0.23542 0.0
H1544 H 0.92563 0.52673 0.33375 0.0
H1545 H 0.93473 0.47882 0.33891 0.0
H1546 H 0.91834 0.56657 0.291 0.0
H1547 H 0.95215 0.59484 0.2684 0.0
C1548 C 0.22418 0.0125 0.9849 0.0
C1549 C 0.2387 0.02508 0.94957 0.0
C1550 C 0.29315 0.05187 0.98375 0.0
C1551 C 0.27524 0.04408 0.01892 0.0
N1552 N 0.21829 0.02735 0.05116 0.0
N1553 N 0.28754 0.05804 0.91571 0.0
C1554 C 0.23901 0.02772 0.01888 0.0
C1555 C 0.27325 0.04551 0.94922 0.0
N1556 N 0.19805 0.98424 0.9866 0.0
N1557 N 0.32999 0.06322 0.98319 0.0
H1558 H 0.27611 0.05001 0.88975 0.0
H1559 H 0.30989 0.07713 0.91377 0.0
H1560 H 0.34531 0.06782 0.00775 0.0
H1561 H 0.34609 0.06513 0.95875 0.0
H1562 H 0.18786 0.97347 0.01201 0.0
H1563 H 0.19197 0.96721 0.96353 0.0
H1564 H 0.18992 0.01932 0.05153 0.0
H1565 H 0.22855 0.03865 0.0764 0.0
C1566 C 0.74561 0.51844 0.02383 0.0
C1567 C 0.7465 0.49058 0.05274 0.0
C1568 C 0.79672 0.45897 0.01708 0.0
C1569 C 0.7861 0.47931 0.98397 0.0
N1570 N 0.7504 0.53035 0.95695 0.0
N1571 N 0.7812 0.43911 0.08066 0.0
C1572 C 0.76065 0.50976 0.98775 0.0
C1573 C 0.77457 0.46212 0.05047 0.0
N1574 N 0.73337 0.55412 0.03147 0.0
N1575 N 0.82985 0.43945 0.01772 0.0
H1576 H 0.77088 0.44514 0.1075 0.0
H1577 H 0.79703 0.41443 0.07897 0.0
H1578 H 0.84805 0.43929 0.99483 0.0
H1579 H 0.84116 0.42703 0.04187 0.0
H1580 H 0.73451 0.57602 0.0118 0.0
H1581 H 0.72788 0.56315 0.05887 0.0
H1582 H 0.72886 0.55021 0.95794 0.0
H1583 H 0.76114 0.52515 0.93016 0.0
C1584 C 0.24241 0.00815 0.47036 0.0
C1585 C 0.24099 0.97981 0.44187 0.0
C1586 C 0.19422 0.94586 0.48084 0.0
C1587 C 0.20375 0.96913 0.51219 0.0
N1588 N 0.23974 0.02114 0.53718 0.0
N1589 N 0.20891 0.92475 0.41753 0.0
C1590 C 0.22885 0.99976 0.5071 0.0
C1591 C 0.21497 0.9494 0.44649 0.0
N1592 N 0.25347 0.04411 0.46177 0.0
N1593 N 0.16417 0.92162 0.48328 0.0
H1594 H 0.21706 0.93079 0.38993 0.0
H1595 H 0.19537 0.8988 0.42079 0.0
H1596 H 0.14813 0.91845 0.50771 0.0
H1597 H 0.15312 0.90686 0.46039 0.0
H1598 H 0.25281 0.06613 0.48124 0.0
H1599 H 0.25687 0.05332 0.43405 0.0
H1600 H 0.26127 0.04119 0.53521 0.0
H1601 H 0.22979 0.0163 0.56444 0.0
C1602 C 0.75784 0.49802 0.51852 0.0
C1603 C 0.75002 0.52023 0.55117 0.0
C1604 C 0.70057 0.55331 0.51473 0.0
C1605 C 0.71417 0.53653 0.48091 0.0
N1606 N 0.75799 0.49519 0.45017 0.0
N1607 N 0.70873 0.56427 0.58191 0.0
C1608 C 0.74347 0.50956 0.48273 0.0
C1609 C 0.71971 0.54648 0.54961 0.0
N1610 N 0.77663 0.46451 0.52168 0.0
N1611 N 0.668 0.57405 0.51379 0.0
H1612 H 0.71777 0.5554 0.60854 0.0
H1613 H 0.69109 0.5877 0.5825 0.0
H1614 H 0.65237 0.57841 0.4892 0.0
H1615 H 0.65438 0.58424 0.53761 0.0
H1616 H 0.78117 0.44648 0.49898 0.0
H1617 H 0.78176 0.4514 0.54746 0.0
H1618 H 0.78244 0.4789 0.4495 0.0
H1619 H 0.74761 0.50258 0.42359 0.0
C1620 C 0.02417 0.26325 0.99508 0.0
C1621 C 0.05247 0.26018 0.02366 0.0
C1622 C 0.01228 0.21221 0.05404 0.0
C1623 C 0.98044 0.22431 0.03235 0.0
N1624 N 0.95713 0.26359 0.98203 0.0
N1625 N 0.07583 0.22422 0.07658 0.0
C1626 C 0.9868 0.25049 0.00277 0.0
C1627 C 0.04707 0.23259 0.05226 0.0
N1628 N 0.03302 0.2762 0.95989 0.0
N1629 N 0.01072 0.17892 0.07325 0.0
H1630 H 0.10374 0.23218 0.07145 0.0
H1631 H 0.07184 0.20917 0.10155 0.0
H1632 H 0.98706 0.16177 0.07229 0.0
H1633 H 0.03388 0.16634 0.08632 0.0
H1634 H 0.01365 0.27662 0.93768 0.0
H1635 H 0.0607 0.2805 0.95104 0.0
H1636 H 0.9599 0.28468 0.96172 0.0
H1637 H 0.92935 0.25589 0.98779 0.0
C1638 C 0.99536 0.73139 0.51261 0.0
C1639 C 0.02851 0.74345 0.49318 0.0
C1640 C 0.99302 0.7982 0.47 0.0
C1641 C 0.95858 0.78103 0.48204 0.0
N1642 N 0.92712 0.72832 0.51089 0.0
N1643 N 0.05976 0.79115 0.45631 0.0
C1644 C 0.95983 0.74671 0.50217 0.0
C1645 C 0.02753 0.77784 0.47279 0.0
N1646 N 0.99766 0.70747 0.54273 0.0
N1647 N 0.993 0.83454 0.45724 0.0
H1648 H 0.0862 0.7793 0.4617 0.0
H1649 H 0.06011 0.81316 0.43679 0.0
H1650 H 0.96824 0.84977 0.45383 0.0
H1651 H 0.0174 0.85029 0.4524 0.0
H1652 H 0.97422 0.69959 0.55866 0.0
H1653 H 0.02311 0.70092 0.55587 0.0
H1654 H 0.92672 0.70099 0.52192 0.0
H1655 H 0.9007 0.73898 0.50344 0.0
C1656 C 0.49539 0.7616 0.48368 0.0
C1657 C 0.52892 0.75572 0.50521 0.0
C1658 C 0.50075 0.69611 0.52623 0.0
C1659 C 0.46415 0.70944 0.51605 0.0
N1660 N 0.42732 0.75657 0.48377 0.0
N1661 N 0.56517 0.71223 0.54312 0.0
C1662 C 0.4616 0.74296 0.49469 0.0
C1663 C 0.53198 0.72157 0.52589 0.0
N1664 N 0.49633 0.78107 0.45049 0.0
N1665 N 0.5066 0.65856 0.53209 0.0
H1666 H 0.59011 0.72737 0.53876 0.0
H1667 H 0.56744 0.68969 0.56195 0.0
H1668 H 0.48599 0.6386 0.52557 0.0
H1669 H 0.53319 0.64701 0.5371 0.0
H1670 H 0.47271 0.78347 0.43298 0.0
H1671 H 0.52142 0.78971 0.43784 0.0
H1672 H 0.42457 0.78292 0.47098 0.0
H1673 H 0.40193 0.74303 0.49027 0.0
C1674 C 0.55652 0.49545 0.78652 0.0
C1675 C 0.53451 0.52722 0.77517 0.0
C1676 C 0.49644 0.484 0.73656 0.0
C1677 C 0.52545 0.45594 0.7386 0.0
N1678 N 0.58043 0.43324 0.77187 0.0
N1679 N 0.48266 0.55098 0.7382 0.0
C1680 C 0.55496 0.46136 0.76524 0.0
C1681 C 0.50422 0.52118 0.74978 0.0
N1682 N 0.57534 0.49609 0.82011 0.0
N1683 N 0.46092 0.47533 0.72403 0.0
H1684 H 0.48843 0.57874 0.74612 0.0
H1685 H 0.46142 0.54862 0.71796 0.0
H1686 H 0.45162 0.448 0.71872 0.0
H1687 H 0.43862 0.49445 0.72471 0.0
H1688 H 0.58862 0.4726 0.83182 0.0
H1689 H 0.57366 0.51889 0.83836 0.0
H1690 H 0.60543 0.43757 0.7869 0.0
H1691 H 0.57646 0.40572 0.76215 0.0
C1692 C 0.46103 0.007 0.78853 0.0
C1693 C 0.46533 0.97022 0.77263 0.0
C1694 C 0.4862 0.9993 0.71384 0.0
C1695 C 0.4765 0.03589 0.72742 0.0
N1696 N 0.4541 0.07458 0.77827 0.0
N1697 N 0.4729 0.93237 0.71704 0.0
C1698 C 0.4634 0.03963 0.76496 0.0
C1699 C 0.47473 0.96672 0.73424 0.0
N1700 N 0.45564 0.0108 0.82639 0.0
N1701 N 0.5086 0.99529 0.68296 0.0
H1702 H 0.46539 0.90773 0.73136 0.0
H1703 H 0.47539 0.92927 0.68792 0.0
H1704 H 0.52371 0.01774 0.67175 0.0
H1705 H 0.51766 0.96916 0.67305 0.0
H1706 H 0.45432 0.03656 0.84038 0.0
H1707 H 0.45661 0.98791 0.84464 0.0
H1708 H 0.43968 0.07906 0.80338 0.0
H1709 H 0.4599 0.09936 0.76336 0.0
C1710 C 0.50429 0.26267 0.00028 0.0
C1711 C 0.47233 0.25704 0.9765 0.0
C1712 C 0.5061 0.20366 0.94805 0.0
C1713 C 0.54071 0.21669 0.9643 0.0
N1714 N 0.57233 0.26251 0.00316 0.0
N1715 N 0.44104 0.21702 0.93119 0.0
C1716 C 0.53962 0.24737 0.98957 0.0
C1717 C 0.47283 0.22606 0.95116 0.0
N1718 N 0.50084 0.27973 0.03454 0.0
N1719 N 0.50405 0.1684 0.9328 0.0
H1720 H 0.41476 0.22878 0.93722 0.0
H1721 H 0.44102 0.19829 0.90856 0.0
H1722 H 0.52703 0.1503 0.93254 0.0
H1723 H 0.47892 0.15566 0.92418 0.0
H1724 H 0.52329 0.28153 0.0536 0.0
H1725 H 0.47498 0.2872 0.04615 0.0
H1726 H 0.57254 0.28787 0.01795 0.0
H1727 H 0.59891 0.25215 0.99597 0.0
loop_
_geom_bond_atom_site_label_1
_geom_bond_atom_site_label_2
_geom_bond_distance
_geom_bond_site_symmetry_2
_ccdc_geom_bond_type
Mn0 O5 2.095 . S
Mn0 O15 2.162 . S
Mn0 O16 2.297 . S
Mn0 O24 2.385 1_655 S
Mn0 O25 2.209 1_655 S
Mn0 O26 2.094 . S
Mn1 O6 2.121 . S
Mn1 N8 2.257 . S
Mn1 N17 2.282 . S
Mn1 O25 2.215 . S
Mn1 O27 2.117 . S
C2 O24 1.234 . S
C2 O25 1.283 . S
C3 O15 1.281 . S
C3 O16 1.236 . S
C4 O26 1.240 . S
C4 O27 1.264 1_655 S
O5 Mn0 2.095 . S
O5 C14 1.250 1_655 S
O6 Mn1 2.121 . S
O6 C14 1.258 . S
C7 N8 1.326 . S
C7 C11 1.460 . S
C7 H13 0.929 . S
N8 Mn1 2.257 . S
N8 C7 1.326 . S
N8 C12 1.362 . S
C9 C10 1.258 . S
C9 C12 1.431 . S
C9 C29 1.449 . S
C10 C9 1.258 . S
C10 C11 1.477 . S
C10 H30 0.931 . S
C11 C7 1.460 . S
C11 C10 1.477 . S
C11 H31 0.930 . S
C12 N8 1.362 . S
C12 C9 1.431 . S
C12 C22 1.476 . S
H13 C7 0.929 . S
C14 O5 1.250 1_455 S
C14 O6 1.258 . S
O15 Mn0 2.162 . S
O15 C3 1.281 . S
O16 Mn0 2.297 . S
O16 C3 1.236 . S
N17 Mn1 2.282 . S
N17 C18 1.328 . S
N17 C22 1.318 . S
C18 N17 1.328 . S
C18 C19 1.457 . S
C18 H23 0.929 . S
C19 C18 1.457 . S
C19 C20 1.291 . S
C19 H32 0.931 . S
C20 C19 1.291 . S
C20 C21 1.373 . S
C20 H33 0.929 . S
C21 C20 1.373 . S
C21 C22 1.396 . S
C21 C28 1.403 . S
C22 C12 1.476 . S
C22 N17 1.318 . S
C22 C21 1.396 . S
H23 C18 0.929 . S
O24 Mn0 2.385 1_455 S
O24 C2 1.234 . S
O25 Mn0 2.209 1_455 S
O25 Mn1 2.215 . S
O25 C2 1.283 . S
O26 Mn0 2.094 . S
O26 C4 1.240 . S
O27 Mn1 2.117 . S
O27 C4 1.264 1_455 S
C28 C21 1.403 . S
C28 C29 1.399 . S
C28 H34 0.929 . S
C29 C9 1.449 . S
C29 C28 1.399 . S
C29 H35 0.930 . S
H30 C10 0.931 . S
H31 C11 0.930 . S
H32 C19 0.931 . S
H33 C20 0.929 . S
H34 C28 0.929 . S
H35 C29 0.930 . S
Mn36 O41 2.095 . S
Mn36 O51 2.162 . S
Mn36 O52 2.297 . S
Mn36 O60 2.385 1_455 S
Mn36 O61 2.209 1_455 S
Mn36 O62 2.094 . S
Mn37 O42 2.121 . S
Mn37 N44 2.257 . S
Mn37 N53 2.282 . S
Mn37 O61 2.215 . S
Mn37 O63 2.117 . S
C38 O60 1.234 . S
C38 O61 1.283 . S
C39 O51 1.281 . S
C39 O52 1.236 . S
C40 O62 1.240 . S
C40 O63 1.264 1_455 S
O41 Mn36 2.095 . S
O41 C50 1.250 1_455 S
O42 Mn37 2.121 . S
O42 C50 1.258 . S
C43 N44 1.326 . S
C43 C47 1.460 . S
C43 H49 0.929 . S
N44 Mn37 2.257 . S
N44 C43 1.326 . S
N44 C48 1.362 . S
C45 C46 1.258 . S
C45 C48 1.431 . S
C45 C65 1.449 . S
C46 C45 1.258 . S
C46 C47 1.477 . S
C46 H66 0.931 . S
C47 C43 1.460 . S
C47 C46 1.477 . S
C47 H67 0.930 . S
C48 N44 1.362 . S
C48 C45 1.431 . S
C48 C58 1.476 . S
H49 C43 0.929 . S
C50 O41 1.250 1_655 S
C50 O42 1.258 . S
O51 Mn36 2.162 . S
O51 C39 1.281 . S
O52 Mn36 2.297 . S
O52 C39 1.236 . S
N53 Mn37 2.282 . S
N53 C54 1.328 . S
N53 C58 1.318 . S
C54 N53 1.328 . S
C54 C55 1.457 . S
C54 H59 0.929 . S
C55 C54 1.457 . S
C55 C56 1.291 . S
C55 H68 0.931 . S
C56 C55 1.291 . S
C56 C57 1.373 . S
C56 H69 0.929 . S
C57 C56 1.373 . S
C57 C58 1.396 . S
C57 C64 1.403 . S
C58 C48 1.476 . S
C58 N53 1.318 . S
C58 C57 1.396 . S
H59 C54 0.929 . S
O60 Mn36 2.385 1_655 S
O60 C38 1.234 . S
O61 Mn36 2.209 1_655 S
O61 Mn37 2.215 . S
O61 C38 1.283 . S
O62 Mn36 2.094 . S
O62 C40 1.240 . S
O63 Mn37 2.117 . S
O63 C40 1.264 1_655 S
C64 C57 1.403 . S
C64 C65 1.399 . S
C64 H70 0.929 . S
C65 C45 1.449 . S
C65 C64 1.399 . S
C65 H71 0.930 . S
H66 C46 0.931 . S
H67 C47 0.930 . S
H68 C55 0.931 . S
H69 C56 0.929 . S
H70 C64 0.929 . S
H71 C65 0.930 . S
Mn72 O77 2.095 . S
Mn72 O87 2.162 . S
Mn72 O88 2.297 . S
Mn72 O96 2.385 1_655 S
Mn72 O97 2.209 1_655 S
Mn72 O98 2.094 . S
Mn73 O78 2.121 . S
Mn73 N80 2.257 . S
Mn73 N89 2.282 . S
Mn73 O97 2.215 . S
Mn73 O99 2.117 . S
C74 O96 1.234 . S
C74 O97 1.283 . S
C75 O87 1.281 . S
C75 O88 1.236 . S
C76 O98 1.240 . S
C76 O99 1.264 1_655 S
O77 Mn72 2.095 . S
O77 C86 1.250 1_655 S
O78 Mn73 2.121 . S
O78 C86 1.258 . S
C79 N80 1.326 . S
C79 C83 1.460 . S
C79 H85 0.929 . S
N80 Mn73 2.257 . S
N80 C79 1.326 . S
N80 C84 1.362 . S
C81 C82 1.258 . S
C81 C84 1.431 . S
C81 C101 1.449 . S
C82 C81 1.258 . S
C82 C83 1.477 . S
C82 H102 0.931 . S
C83 C79 1.460 . S
C83 C82 1.477 . S
C83 H103 0.930 . S
C84 N80 1.362 . S
C84 C81 1.431 . S
C84 C94 1.476 . S
H85 C79 0.929 . S
C86 O77 1.250 1_455 S
C86 O78 1.258 . S
O87 Mn72 2.162 . S
O87 C75 1.281 . S
O88 Mn72 2.297 . S
O88 C75 1.236 . S
N89 Mn73 2.282 . S
N89 C90 1.328 . S
N89 C94 1.318 . S
C90 N89 1.328 . S
C90 C91 1.457 . S
C90 H95 0.929 . S
C91 C90 1.457 . S
C91 C92 1.291 . S
C91 H104 0.931 . S
C92 C91 1.291 . S
C92 C93 1.373 . S
C92 H105 0.929 . S
C93 C92 1.373 . S
C93 C94 1.396 . S
C93 C100 1.403 . S
C94 C84 1.476 . S
C94 N89 1.318 . S
C94 C93 1.396 . S
H95 C90 0.929 . S
O96 Mn72 2.385 1_455 S
O96 C74 1.234 . S
O97 Mn72 2.209 1_455 S
O97 Mn73 2.215 . S
O97 C74 1.283 . S
O98 Mn72 2.094 . S
O98 C76 1.240 . S
O99 Mn73 2.117 . S
O99 C76 1.264 1_455 S
C100 C93 1.403 . S
C100 C101 1.399 . S
C100 H106 0.929 . S
C101 C81 1.449 . S
C101 C100 1.399 . S
C101 H107 0.930 . S
H102 C82 0.931 . S
H103 C83 0.930 . S
H104 C91 0.931 . S
H105 C92 0.929 . S
H106 C100 0.929 . S
H107 C101 0.930 . S
Mn108 O113 2.095 . S
Mn108 O123 2.162 . S
Mn108 O124 2.297 . S
Mn108 O132 2.385 1_455 S
Mn108 O133 2.209 1_455 S
Mn108 O134 2.094 . S
Mn109 O114 2.121 . S
Mn109 N116 2.257 . S
Mn109 N125 2.282 . S
Mn109 O133 2.215 . S
Mn109 O135 2.117 . S
C110 O132 1.234 . S
C110 O133 1.283 . S
C111 O123 1.281 . S
C111 O124 1.236 . S
C112 O134 1.240 . S
C112 O135 1.264 1_455 S
O113 Mn108 2.095 . S
O113 C122 1.250 1_455 S
O114 Mn109 2.121 . S
O114 C122 1.258 . S
C115 N116 1.326 . S
C115 C119 1.460 . S
C115 H121 0.929 . S
N116 Mn109 2.257 . S
N116 C115 1.326 . S
N116 C120 1.362 . S
C117 C118 1.258 . S
C117 C120 1.431 . S
C117 C137 1.449 . S
C118 C117 1.258 . S
C118 C119 1.477 . S
C118 H138 0.931 . S
C119 C115 1.460 . S
C119 C118 1.477 . S
C119 H139 0.930 . S
C120 N116 1.362 . S
C120 C117 1.431 . S
C120 C130 1.476 . S
H121 C115 0.929 . S
C122 O113 1.250 1_655 S
C122 O114 1.258 . S
O123 Mn108 2.162 . S
O123 C111 1.281 . S
O124 Mn108 2.297 . S
O124 C111 1.236 . S
N125 Mn109 2.282 . S
N125 C126 1.328 . S
N125 C130 1.318 . S
C126 N125 1.328 . S
C126 C127 1.457 . S
C126 H131 0.929 . S
C127 C126 1.457 . S
C127 C128 1.291 . S
C127 H140 0.931 . S
C128 C127 1.291 . S
C128 C129 1.373 . S
C128 H141 0.929 . S
C129 C128 1.373 . S
C129 C130 1.396 . S
C129 C136 1.403 . S
C130 C120 1.476 . S
C130 N125 1.318 . S
C130 C129 1.396 . S
H131 C126 0.929 . S
O132 Mn108 2.385 1_655 S
O132 C110 1.234 . S
O133 Mn108 2.209 1_655 S
O133 Mn109 2.215 . S
O133 C110 1.283 . S
O134 Mn108 2.094 . S
O134 C112 1.240 . S
O135 Mn109 2.117 . S
O135 C112 1.264 1_655 S
C136 C129 1.403 . S
C136 C137 1.399 . S
C136 H142 0.929 . S
C137 C117 1.449 . S
C137 C136 1.399 . S
C137 H143 0.930 . S
H138 C118 0.931 . S
H139 C119 0.930 . S
H140 C127 0.931 . S
H141 C128 0.929 . S
H142 C136 0.929 . S
H143 C137 0.930 . S
Mn144 O149 2.095 . S
Mn144 O159 2.162 . S
Mn144 O160 2.297 . S
Mn144 O168 2.385 1_565 S
Mn144 O169 2.209 1_565 S
Mn144 O170 2.094 . S
Mn145 O150 2.121 . S
Mn145 N152 2.257 . S
Mn145 N161 2.282 . S
Mn145 O169 2.215 . S
Mn145 O171 2.117 . S
C146 O168 1.234 . S
C146 O169 1.283 . S
C147 O159 1.281 . S
C147 O160 1.236 . S
C148 O170 1.240 . S
C148 O171 1.264 1_565 S
O149 Mn144 2.095 . S
O149 C158 1.250 1_565 S
O150 Mn145 2.121 . S
O150 C158 1.258 . S
C151 N152 1.326 . S
C151 C155 1.460 . S
C151 H157 0.929 . S
N152 Mn145 2.257 . S
N152 C151 1.326 . S
N152 C156 1.362 . S
C153 C154 1.258 . S
C153 C156 1.431 . S
C153 C173 1.449 . S
C154 C153 1.258 . S
C154 C155 1.477 . S
C154 H174 0.931 . S
C155 C151 1.460 . S
C155 C154 1.477 . S
C155 H175 0.930 . S
C156 N152 1.362 . S
C156 C153 1.431 . S
C156 C166 1.476 . S
H157 C151 0.929 . S
C158 O149 1.250 1_545 S
C158 O150 1.258 . S
O159 Mn144 2.162 . S
O159 C147 1.281 . S
O160 Mn144 2.297 . S
O160 C147 1.236 . S
N161 Mn145 2.282 . S
N161 C162 1.328 . S
N161 C166 1.318 . S
C162 N161 1.328 . S
C162 C163 1.457 . S
C162 H167 0.929 . S
C163 C162 1.457 . S
C163 C164 1.291 . S
C163 H176 0.931 . S
C164 C163 1.291 . S
C164 C165 1.373 . S
C164 H177 0.929 . S
C165 C164 1.373 . S
C165 C166 1.396 . S
C165 C172 1.403 . S
C166 C156 1.476 . S
C166 N161 1.318 . S
C166 C165 1.396 . S
H167 C162 0.929 . S
O168 Mn144 2.385 1_545 S
O168 C146 1.234 . S
O169 Mn144 2.209 1_545 S
O169 Mn145 2.215 . S
O169 C146 1.283 . S
O170 Mn144 2.094 . S
O170 C148 1.240 . S
O171 Mn145 2.117 . S
O171 C148 1.264 1_545 S
C172 C165 1.403 . S
C172 C173 1.399 . S
C172 H178 0.929 . S
C173 C153 1.449 . S
C173 C172 1.399 . S
C173 H179 0.930 . S
H174 C154 0.931 . S
H175 C155 0.930 . S
H176 C163 0.931 . S
H177 C164 0.929 . S
H178 C172 0.929 . S
H179 C173 0.930 . S
Mn180 O185 2.095 . S
Mn180 O195 2.162 . S
Mn180 O196 2.297 . S
Mn180 O204 2.385 . S
Mn180 O205 2.209 . S
Mn180 O206 2.094 . S
Mn181 O186 2.121 . S
Mn181 N188 2.257 . S
Mn181 N197 2.282 . S
Mn181 O205 2.215 . S
Mn181 O207 2.117 . S
C182 O204 1.234 . S
C182 O205 1.283 . S
C183 O195 1.281 . S
C183 O196 1.236 . S
C184 O206 1.240 . S
C184 O207 1.264 . S
O185 Mn180 2.095 . S
O185 C194 1.250 . S
O186 Mn181 2.121 . S
O186 C194 1.258 . S
C187 N188 1.326 . S
C187 C191 1.460 . S
C187 H193 0.929 . S
N188 Mn181 2.257 . S
N188 C187 1.326 . S
N188 C192 1.362 . S
C189 C190 1.258 . S
C189 C192 1.431 . S
C189 C209 1.449 . S
C190 C189 1.258 . S
C190 C191 1.477 . S
C190 H210 0.931 . S
C191 C187 1.460 . S
C191 C190 1.477 . S
C191 H211 0.930 . S
C192 N188 1.362 . S
C192 C189 1.431 . S
C192 C202 1.476 . S
H193 C187 0.929 . S
C194 O185 1.250 . S
C194 O186 1.258 . S
O195 Mn180 2.162 . S
O195 C183 1.281 . S
O196 Mn180 2.297 . S
O196 C183 1.236 . S
N197 Mn181 2.282 . S
N197 C198 1.328 . S
N197 C202 1.318 . S
C198 N197 1.328 . S
C198 C199 1.457 . S
C198 H203 0.929 . S
C199 C198 1.457 . S
C199 C200 1.291 . S
C199 H212 0.931 . S
C200 C199 1.291 . S
C200 C201 1.373 . S
C200 H213 0.929 . S
C201 C200 1.373 . S
C201 C202 1.396 . S
C201 C208 1.403 . S
C202 C192 1.476 . S
C202 N197 1.318 . S
C202 C201 1.396 . S
H203 C198 0.929 . S
O204 Mn180 2.385 . S
O204 C182 1.234 . S
O205 Mn180 2.209 . S
O205 Mn181 2.215 . S
O205 C182 1.283 . S
O206 Mn180 2.094 . S
O206 C184 1.240 . S
O207 Mn181 2.117 . S
O207 C184 1.264 . S
C208 C201 1.403 . S
C208 C209 1.399 . S
C208 H214 0.929 . S
C209 C189 1.449 . S
C209 C208 1.399 . S
C209 H215 0.930 . S
H210 C190 0.931 . S
H211 C191 0.930 . S
H212 C199 0.931 . S
H213 C200 0.929 . S
H214 C208 0.929 . S
H215 C209 0.930 . S
Mn216 O221 2.095 . S
Mn216 O231 2.162 . S
Mn216 O232 2.297 . S
Mn216 O240 2.385 1_545 S
Mn216 O241 2.209 1_545 S
Mn216 O242 2.094 . S
Mn217 O222 2.121 . S
Mn217 N224 2.257 . S
Mn217 N233 2.282 . S
Mn217 O241 2.215 . S
Mn217 O243 2.117 . S
C218 O240 1.234 . S
C218 O241 1.283 . S
C219 O231 1.281 . S
C219 O232 1.236 . S
C220 O242 1.240 . S
C220 O243 1.264 1_545 S
O221 Mn216 2.095 . S
O221 C230 1.250 1_545 S
O222 Mn217 2.121 . S
O222 C230 1.258 . S
C223 N224 1.326 . S
C223 C227 1.460 . S
C223 H229 0.929 . S
N224 Mn217 2.257 . S
N224 C223 1.326 . S
N224 C228 1.362 . S
C225 C226 1.258 . S
C225 C228 1.431 . S
C225 C245 1.449 . S
C226 C225 1.258 . S
C226 C227 1.477 . S
C226 H246 0.931 . S
C227 C223 1.460 . S
C227 C226 1.477 . S
C227 H247 0.930 . S
C228 N224 1.362 . S
C228 C225 1.431 . S
C228 C238 1.476 . S
H229 C223 0.929 . S
C230 O221 1.250 1_565 S
C230 O222 1.258 . S
O231 Mn216 2.162 . S
O231 C219 1.281 . S
O232 Mn216 2.297 . S
O232 C219 1.236 . S
N233 Mn217 2.282 . S
N233 C234 1.328 . S
N233 C238 1.318 . S
C234 N233 1.328 . S
C234 C235 1.457 . S
C234 H239 0.929 . S
C235 C234 1.457 . S
C235 C236 1.291 . S
C235 H248 0.931 . S
C236 C235 1.291 . S
C236 C237 1.373 . S
C236 H249 0.929 . S
C237 C236 1.373 . S
C237 C238 1.396 . S
C237 C244 1.403 . S
C238 C228 1.476 . S
C238 N233 1.318 . S
C238 C237 1.396 . S
H239 C234 0.929 . S
O240 Mn216 2.385 1_565 S
O240 C218 1.234 . S
O241 Mn216 2.209 1_565 S
O241 Mn217 2.215 . S
O241 C218 1.283 . S
O242 Mn216 2.094 . S
O242 C220 1.240 . S
O243 Mn217 2.117 . S
O243 C220 1.264 1_565 S
C244 C237 1.403 . S
C244 C245 1.399 . S
C244 H250 0.929 . S
C245 C225 1.449 . S
C245 C244 1.399 . S
C245 H251 0.930 . S
H246 C226 0.931 . S
H247 C227 0.930 . S
H248 C235 0.931 . S
H249 C236 0.929 . S
H250 C244 0.929 . S
H251 C245 0.930 . S
Mn252 O257 2.095 . S
Mn252 O267 2.162 . S
Mn252 O268 2.297 . S
Mn252 O276 2.385 . S
Mn252 O277 2.209 . S
Mn252 O278 2.094 . S
Mn253 O258 2.121 . S
Mn253 N260 2.257 . S
Mn253 N269 2.282 . S
Mn253 O277 2.215 . S
Mn253 O279 2.117 . S
C254 O276 1.234 . S
C254 O277 1.283 . S
C255 O267 1.281 . S
C255 O268 1.236 . S
C256 O278 1.240 . S
C256 O279 1.264 . S
O257 Mn252 2.095 . S
O257 C266 1.250 . S
O258 Mn253 2.121 . S
O258 C266 1.258 . S
C259 N260 1.326 . S
C259 C263 1.460 . S
C259 H265 0.929 . S
N260 Mn253 2.257 . S
N260 C259 1.326 . S
N260 C264 1.362 . S
C261 C262 1.258 . S
C261 C264 1.431 . S
C261 C281 1.449 . S
C262 C261 1.258 . S
C262 C263 1.477 . S
C262 H282 0.931 . S
C263 C259 1.460 . S
C263 C262 1.477 . S
C263 H283 0.930 . S
C264 N260 1.362 . S
C264 C261 1.431 . S
C264 C274 1.476 . S
H265 C259 0.929 . S
C266 O257 1.250 . S
C266 O258 1.258 . S
O267 Mn252 2.162 . S
O267 C255 1.281 . S
O268 Mn252 2.297 . S
O268 C255 1.236 . S
N269 Mn253 2.282 . S
N269 C270 1.328 . S
N269 C274 1.318 . S
C270 N269 1.328 . S
C270 C271 1.457 . S
C270 H275 0.929 . S
C271 C270 1.457 . S
C271 C272 1.291 . S
C271 H284 0.931 . S
C272 C271 1.291 . S
C272 C273 1.373 . S
C272 H285 0.929 . S
C273 C272 1.373 . S
C273 C274 1.396 . S
C273 C280 1.403 . S
C274 C264 1.476 . S
C274 N269 1.318 . S
C274 C273 1.396 . S
H275 C270 0.929 . S
O276 Mn252 2.385 . S
O276 C254 1.234 . S
O277 Mn252 2.209 . S
O277 Mn253 2.215 . S
O277 C254 1.283 . S
O278 Mn252 2.094 . S
O278 C256 1.240 . S
O279 Mn253 2.117 . S
O279 C256 1.264 . S
C280 C273 1.403 . S
C280 C281 1.399 . S
C280 H286 0.929 . S
C281 C261 1.449 . S
C281 C280 1.399 . S
C281 H287 0.930 . S
H282 C262 0.931 . S
H283 C263 0.930 . S
H284 C271 0.931 . S
H285 C272 0.929 . S
H286 C280 0.929 . S
H287 C281 0.930 . S
Mn288 O293 2.095 . S
Mn288 O303 2.162 . S
Mn288 O304 2.297 . S
Mn288 O312 2.385 1_556 S
Mn288 O313 2.209 1_556 S
Mn288 O314 2.094 . S
Mn289 O294 2.121 . S
Mn289 N296 2.257 . S
Mn289 N305 2.282 . S
Mn289 O313 2.215 . S
Mn289 O315 2.117 . S
C290 O312 1.234 . S
C290 O313 1.283 . S
C291 O303 1.281 . S
C291 O304 1.236 . S
C292 O314 1.240 . S
C292 O315 1.264 1_556 S
O293 Mn288 2.095 . S
O293 C302 1.250 1_556 S
O294 Mn289 2.121 . S
O294 C302 1.258 . S
C295 N296 1.326 . S
C295 C299 1.460 . S
C295 H301 0.929 . S
N296 Mn289 2.257 . S
N296 C295 1.326 . S
N296 C300 1.362 . S
C297 C298 1.258 . S
C297 C300 1.431 . S
C297 C317 1.449 . S
C298 C297 1.258 . S
C298 C299 1.477 . S
C298 H318 0.931 . S
C299 C295 1.460 . S
C299 C298 1.477 . S
C299 H319 0.930 . S
C300 N296 1.362 . S
C300 C297 1.431 . S
C300 C310 1.476 . S
H301 C295 0.929 . S
C302 O293 1.250 1_554 S
C302 O294 1.258 . S
O303 Mn288 2.162 . S
O303 C291 1.281 . S
O304 Mn288 2.297 . S
O304 C291 1.236 . S
N305 Mn289 2.282 . S
N305 C306 1.328 . S
N305 C310 1.318 . S
C306 N305 1.328 . S
C306 C307 1.457 . S
C306 H311 0.929 . S
C307 C306 1.457 . S
C307 C308 1.291 . S
C307 H320 0.931 . S
C308 C307 1.291 . S
C308 C309 1.373 . S
C308 H321 0.929 . S
C309 C308 1.373 . S
C309 C310 1.396 . S
C309 C316 1.403 . S
C310 C300 1.476 . S
C310 N305 1.318 . S
C310 C309 1.396 . S
H311 C306 0.929 . S
O312 Mn288 2.385 1_554 S
O312 C290 1.234 . S
O313 Mn288 2.209 1_554 S
O313 Mn289 2.215 . S
O313 C290 1.283 . S
O314 Mn288 2.094 . S
O314 C292 1.240 . S
O315 Mn289 2.117 . S
O315 C292 1.264 1_554 S
C316 C309 1.403 . S
C316 C317 1.399 . S
C316 H322 0.929 . S
C317 C297 1.449 . S
C317 C316 1.399 . S
C317 H323 0.930 . S
H318 C298 0.931 . S
H319 C299 0.930 . S
H320 C307 0.931 . S
H321 C308 0.929 . S
H322 C316 0.929 . S
H323 C317 0.930 . S
Mn324 O329 2.095 . S
Mn324 O339 2.162 . S
Mn324 O340 2.297 . S
Mn324 O348 2.385 . S
Mn324 O349 2.209 . S
Mn324 O350 2.094 . S
Mn325 O330 2.121 . S
Mn325 N332 2.257 . S
Mn325 N341 2.282 . S
Mn325 O349 2.215 . S
Mn325 O351 2.117 . S
C326 O348 1.234 . S
C326 O349 1.283 . S
C327 O339 1.281 . S
C327 O340 1.236 . S
C328 O350 1.240 . S
C328 O351 1.264 . S
O329 Mn324 2.095 . S
O329 C338 1.250 . S
O330 Mn325 2.121 . S
O330 C338 1.258 . S
C331 N332 1.326 . S
C331 C335 1.460 . S
C331 H337 0.929 . S
N332 Mn325 2.257 . S
N332 C331 1.326 . S
N332 C336 1.362 . S
C333 C334 1.258 . S
C333 C336 1.431 . S
C333 C353 1.449 . S
C334 C333 1.258 . S
C334 C335 1.477 . S
C334 H354 0.931 . S
C335 C331 1.460 . S
C335 C334 1.477 . S
C335 H355 0.930 . S
C336 N332 1.362 . S
C336 C333 1.431 . S
C336 C346 1.476 . S
H337 C331 0.929 . S
C338 O329 1.250 . S
C338 O330 1.258 . S
O339 Mn324 2.162 . S
O339 C327 1.281 . S
O340 Mn324 2.297 . S
O340 C327 1.236 . S
N341 Mn325 2.282 . S
N341 C342 1.328 . S
N341 C346 1.318 . S
C342 N341 1.328 . S
C342 C343 1.457 . S
C342 H347 0.929 . S
C343 C342 1.457 . S
C343 C344 1.291 . S
C343 H356 0.931 . S
C344 C343 1.291 . S
C344 C345 1.373 . S
C344 H357 0.929 . S
C345 C344 1.373 . S
C345 C346 1.396 . S
C345 C352 1.403 . S
C346 C336 1.476 . S
C346 N341 1.318 . S
C346 C345 1.396 . S
H347 C342 0.929 . S
O348 Mn324 2.385 . S
O348 C326 1.234 . S
O349 Mn324 2.209 . S
O349 Mn325 2.215 . S
O349 C326 1.283 . S
O350 Mn324 2.094 . S
O350 C328 1.240 . S
O351 Mn325 2.117 . S
O351 C328 1.264 . S
C352 C345 1.403 . S
C352 C353 1.399 . S
C352 H358 0.929 . S
C353 C333 1.449 . S
C353 C352 1.399 . S
C353 H359 0.930 . S
H354 C334 0.931 . S
H355 C335 0.930 . S
H356 C343 0.931 . S
H357 C344 0.929 . S
H358 C352 0.929 . S
H359 C353 0.930 . S
Mn360 O365 2.095 . S
Mn360 O375 2.162 . S
Mn360 O376 2.297 . S
Mn360 O384 2.385 . S
Mn360 O385 2.209 . S
Mn360 O386 2.094 . S
Mn361 O366 2.121 . S
Mn361 N368 2.257 . S
Mn361 N377 2.282 . S
Mn361 O385 2.215 . S
Mn361 O387 2.117 . S
C362 O384 1.234 . S
C362 O385 1.283 . S
C363 O375 1.281 . S
C363 O376 1.236 . S
C364 O386 1.240 . S
C364 O387 1.264 . S
O365 Mn360 2.095 . S
O365 C374 1.250 . S
O366 Mn361 2.121 . S
O366 C374 1.258 . S
C367 N368 1.326 . S
C367 C371 1.460 . S
C367 H373 0.929 . S
N368 Mn361 2.257 . S
N368 C367 1.326 . S
N368 C372 1.362 . S
C369 C370 1.258 . S
C369 C372 1.431 . S
C369 C389 1.449 . S
C370 C369 1.258 . S
C370 C371 1.477 . S
C370 H390 0.931 . S
C371 C367 1.460 . S
C371 C370 1.477 . S
C371 H391 0.930 . S
C372 N368 1.362 . S
C372 C369 1.431 . S
C372 C382 1.476 . S
H373 C367 0.929 . S
C374 O365 1.250 . S
C374 O366 1.258 . S
O375 Mn360 2.162 . S
O375 C363 1.281 . S
O376 Mn360 2.297 . S
O376 C363 1.236 . S
N377 Mn361 2.282 . S
N377 C378 1.328 . S
N377 C382 1.318 . S
C378 N377 1.328 . S
C378 C379 1.457 . S
C378 H383 0.929 . S
C379 C378 1.457 . S
C379 C380 1.291 . S
C379 H392 0.931 . S
C380 C379 1.291 . S
C380 C381 1.373 . S
C380 H393 0.929 . S
C381 C380 1.373 . S
C381 C382 1.396 . S
C381 C388 1.403 . S
C382 C372 1.476 . S
C382 N377 1.318 . S
C382 C381 1.396 . S
H383 C378 0.929 . S
O384 Mn360 2.385 . S
O384 C362 1.234 . S
O385 Mn360 2.209 . S
O385 Mn361 2.215 . S
O385 C362 1.283 . S
O386 Mn360 2.094 . S
O386 C364 1.240 . S
O387 Mn361 2.117 . S
O387 C364 1.264 . S
C388 C381 1.403 . S
C388 C389 1.399 . S
C388 H394 0.929 . S
C389 C369 1.449 . S
C389 C388 1.399 . S
C389 H395 0.930 . S
H390 C370 0.931 . S
H391 C371 0.930 . S
H392 C379 0.931 . S
H393 C380 0.929 . S
H394 C388 0.929 . S
H395 C389 0.930 . S
Mn396 O401 2.095 . S
Mn396 O411 2.162 . S
Mn396 O412 2.297 . S
Mn396 O420 2.385 . S
Mn396 O421 2.209 . S
Mn396 O422 2.094 . S
Mn397 O402 2.121 . S
Mn397 N404 2.257 . S
Mn397 N413 2.282 . S
Mn397 O421 2.215 . S
Mn397 O423 2.117 . S
C398 O420 1.234 . S
C398 O421 1.283 . S
C399 O411 1.281 . S
C399 O412 1.236 . S
C400 O422 1.240 . S
C400 O423 1.264 . S
O401 Mn396 2.095 . S
O401 C410 1.250 . S
O402 Mn397 2.121 . S
O402 C410 1.258 . S
C403 N404 1.326 . S
C403 C407 1.460 . S
C403 H409 0.929 . S
N404 Mn397 2.257 . S
N404 C403 1.326 . S
N404 C408 1.362 . S
C405 C406 1.258 . S
C405 C408 1.431 . S
C405 C425 1.449 . S
C406 C405 1.258 . S
C406 C407 1.477 . S
C406 H426 0.931 . S
C407 C403 1.460 . S
C407 C406 1.477 . S
C407 H427 0.930 . S
C408 N404 1.362 . S
C408 C405 1.431 . S
C408 C418 1.476 . S
H409 C403 0.929 . S
C410 O401 1.250 . S
C410 O402 1.258 . S
O411 Mn396 2.162 . S
O411 C399 1.281 . S
O412 Mn396 2.297 . S
O412 C399 1.236 . S
N413 Mn397 2.282 . S
N413 C414 1.328 . S
N413 C418 1.318 . S
C414 N413 1.328 . S
C414 C415 1.457 . S
C414 H419 0.929 . S
C415 C414 1.457 . S
C415 C416 1.291 . S
C415 H428 0.931 . S
C416 C415 1.291 . S
C416 C417 1.373 . S
C416 H429 0.929 . S
C417 C416 1.373 . S
C417 C418 1.396 . S
C417 C424 1.403 . S
C418 C408 1.476 . S
C418 N413 1.318 . S
C418 C417 1.396 . S
H419 C414 0.929 . S
O420 Mn396 2.385 . S
O420 C398 1.234 . S
O421 Mn396 2.209 . S
O421 Mn397 2.215 . S
O421 C398 1.283 . S
O422 Mn396 2.094 . S
O422 C400 1.240 . S
O423 Mn397 2.117 . S
O423 C400 1.264 . S
C424 C417 1.403 . S
C424 C425 1.399 . S
C424 H430 0.929 . S
C425 C405 1.449 . S
C425 C424 1.399 . S
C425 H431 0.930 . S
H426 C406 0.931 . S
H427 C407 0.930 . S
H428 C415 0.931 . S
H429 C416 0.929 . S
H430 C424 0.929 . S
H431 C425 0.930 . S
Mn432 O437 2.095 . S
Mn432 O447 2.162 . S
Mn432 O448 2.297 . S
Mn432 O456 2.385 . S
Mn432 O457 2.209 . S
Mn432 O458 2.094 . S
Mn433 O438 2.121 . S
Mn433 N440 2.257 . S
Mn433 N449 2.282 . S
Mn433 O457 2.215 . S
Mn433 O459 2.117 . S
C434 O456 1.234 . S
C434 O457 1.283 . S
C435 O447 1.281 . S
C435 O448 1.236 . S
C436 O458 1.240 . S
C436 O459 1.264 . S
O437 Mn432 2.095 . S
O437 C446 1.250 . S
O438 Mn433 2.121 . S
O438 C446 1.258 . S
C439 N440 1.326 . S
C439 C443 1.460 . S
C439 H445 0.929 . S
N440 Mn433 2.257 . S
N440 C439 1.326 . S
N440 C444 1.362 . S
C441 C442 1.258 . S
C441 C444 1.431 . S
C441 C461 1.449 . S
C442 C441 1.258 . S
C442 C443 1.477 . S
C442 H462 0.931 . S
C443 C439 1.460 . S
C443 C442 1.477 . S
C443 H463 0.930 . S
C444 N440 1.362 . S
C444 C441 1.431 . S
C444 C454 1.476 . S
H445 C439 0.929 . S
C446 O437 1.250 . S
C446 O438 1.258 . S
O447 Mn432 2.162 . S
O447 C435 1.281 . S
O448 Mn432 2.297 . S
O448 C435 1.236 . S
N449 Mn433 2.282 . S
N449 C450 1.328 . S
N449 C454 1.318 . S
C450 N449 1.328 . S
C450 C451 1.457 . S
C450 H455 0.929 . S
C451 C450 1.457 . S
C451 C452 1.291 . S
C451 H464 0.931 . S
C452 C451 1.291 . S
C452 C453 1.373 . S
C452 H465 0.929 . S
C453 C452 1.373 . S
C453 C454 1.396 . S
C453 C460 1.403 . S
C454 C444 1.476 . S
C454 N449 1.318 . S
C454 C453 1.396 . S
H455 C450 0.929 . S
O456 Mn432 2.385 . S
O456 C434 1.234 . S
O457 Mn432 2.209 . S
O457 Mn433 2.215 . S
O457 C434 1.283 . S
O458 Mn432 2.094 . S
O458 C436 1.240 . S
O459 Mn433 2.117 . S
O459 C436 1.264 . S
C460 C453 1.403 . S
C460 C461 1.399 . S
C460 H466 0.929 . S
C461 C441 1.449 . S
C461 C460 1.399 . S
C461 H467 0.930 . S
H462 C442 0.931 . S
H463 C443 0.930 . S
H464 C451 0.931 . S
H465 C452 0.929 . S
H466 C460 0.929 . S
H467 C461 0.930 . S
Mn468 O473 2.095 . S
Mn468 O483 2.162 . S
Mn468 O484 2.297 . S
Mn468 O492 2.385 . S
Mn468 O493 2.209 . S
Mn468 O494 2.094 . S
Mn469 O474 2.121 . S
Mn469 N476 2.257 . S
Mn469 N485 2.282 . S
Mn469 O493 2.215 . S
Mn469 O495 2.117 . S
C470 O492 1.234 . S
C470 O493 1.283 . S
C471 O483 1.281 . S
C471 O484 1.236 . S
C472 O494 1.240 . S
C472 O495 1.264 . S
O473 Mn468 2.095 . S
O473 C482 1.250 . S
O474 Mn469 2.121 . S
O474 C482 1.258 . S
C475 N476 1.326 . S
C475 C479 1.460 . S
C475 H481 0.929 . S
N476 Mn469 2.257 . S
N476 C475 1.326 . S
N476 C480 1.362 . S
C477 C478 1.258 . S
C477 C480 1.431 . S
C477 C497 1.449 . S
C478 C477 1.258 . S
C478 C479 1.477 . S
C478 H498 0.931 . S
C479 C475 1.460 . S
C479 C478 1.477 . S
C479 H499 0.930 . S
C480 N476 1.362 . S
C480 C477 1.431 . S
C480 C490 1.476 . S
H481 C475 0.929 . S
C482 O473 1.250 . S
C482 O474 1.258 . S
O483 Mn468 2.162 . S
O483 C471 1.281 . S
O484 Mn468 2.297 . S
O484 C471 1.236 . S
N485 Mn469 2.282 . S
N485 C486 1.328 . S
N485 C490 1.318 . S
C486 N485 1.328 . S
C486 C487 1.457 . S
C486 H491 0.929 . S
C487 C486 1.457 . S
C487 C488 1.291 . S
C487 H500 0.931 . S
C488 C487 1.291 . S
C488 C489 1.373 . S
C488 H501 0.929 . S
C489 C488 1.373 . S
C489 C490 1.396 . S
C489 C496 1.403 . S
C490 C480 1.476 . S
C490 N485 1.318 . S
C490 C489 1.396 . S
H491 C486 0.929 . S
O492 Mn468 2.385 . S
O492 C470 1.234 . S
O493 Mn468 2.209 . S
O493 Mn469 2.215 . S
O493 C470 1.283 . S
O494 Mn468 2.094 . S
O494 C472 1.240 . S
O495 Mn469 2.117 . S
O495 C472 1.264 . S
C496 C489 1.403 . S
C496 C497 1.399 . S
C496 H502 0.929 . S
C497 C477 1.449 . S
C497 C496 1.399 . S
C497 H503 0.930 . S
H498 C478 0.931 . S
H499 C479 0.930 . S
H500 C487 0.931 . S
H501 C488 0.929 . S
H502 C496 0.929 . S
H503 C497 0.930 . S
Mn504 O509 2.095 . S
Mn504 O519 2.162 . S
Mn504 O520 2.297 . S
Mn504 O528 2.385 . S
Mn504 O529 2.209 . S
Mn504 O530 2.094 . S
Mn505 O510 2.121 . S
Mn505 N512 2.257 . S
Mn505 N521 2.282 . S
Mn505 O529 2.215 . S
Mn505 O531 2.117 . S
C506 O528 1.234 . S
C506 O529 1.283 . S
C507 O519 1.281 . S
C507 O520 1.236 . S
C508 O530 1.240 . S
C508 O531 1.264 . S
O509 Mn504 2.095 . S
O509 C518 1.250 . S
O510 Mn505 2.121 . S
O510 C518 1.258 . S
C511 N512 1.326 . S
C511 C515 1.460 . S
C511 H517 0.929 . S
N512 Mn505 2.257 . S
N512 C511 1.326 . S
N512 C516 1.362 . S
C513 C514 1.258 . S
C513 C516 1.431 . S
C513 C533 1.449 . S
C514 C513 1.258 . S
C514 C515 1.477 . S
C514 H534 0.931 . S
C515 C511 1.460 . S
C515 C514 1.477 . S
C515 H535 0.930 . S
C516 N512 1.362 . S
C516 C513 1.431 . S
C516 C526 1.476 . S
H517 C511 0.929 . S
C518 O509 1.250 . S
C518 O510 1.258 . S
O519 Mn504 2.162 . S
O519 C507 1.281 . S
O520 Mn504 2.297 . S
O520 C507 1.236 . S
N521 Mn505 2.282 . S
N521 C522 1.328 . S
N521 C526 1.318 . S
C522 N521 1.328 . S
C522 C523 1.457 . S
C522 H527 0.929 . S
C523 C522 1.457 . S
C523 C524 1.291 . S
C523 H536 0.931 . S
C524 C523 1.291 . S
C524 C525 1.373 . S
C524 H537 0.929 . S
C525 C524 1.373 . S
C525 C526 1.396 . S
C525 C532 1.403 . S
C526 C516 1.476 . S
C526 N521 1.318 . S
C526 C525 1.396 . S
H527 C522 0.929 . S
O528 Mn504 2.385 . S
O528 C506 1.234 . S
O529 Mn504 2.209 . S
O529 Mn505 2.215 . S
O529 C506 1.283 . S
O530 Mn504 2.094 . S
O530 C508 1.240 . S
O531 Mn505 2.117 . S
O531 C508 1.264 . S
C532 C525 1.403 . S
C532 C533 1.399 . S
C532 H538 0.929 . S
C533 C513 1.449 . S
C533 C532 1.399 . S
C533 H539 0.930 . S
H534 C514 0.931 . S
H535 C515 0.930 . S
H536 C523 0.931 . S
H537 C524 0.929 . S
H538 C532 0.929 . S
H539 C533 0.930 . S
Mn540 O545 2.095 . S
Mn540 O555 2.162 . S
Mn540 O556 2.297 . S
Mn540 O564 2.385 . S
Mn540 O565 2.209 . S
Mn540 O566 2.094 . S
Mn541 O546 2.121 . S
Mn541 N548 2.257 . S
Mn541 N557 2.282 . S
Mn541 O565 2.215 . S
Mn541 O567 2.117 . S
C542 O564 1.234 . S
C542 O565 1.283 . S
C543 O555 1.281 . S
C543 O556 1.236 . S
C544 O566 1.240 . S
C544 O567 1.264 . S
O545 Mn540 2.095 . S
O545 C554 1.250 . S
O546 Mn541 2.121 . S
O546 C554 1.258 . S
C547 N548 1.326 . S
C547 C551 1.460 . S
C547 H553 0.929 . S
N548 Mn541 2.257 . S
N548 C547 1.326 . S
N548 C552 1.362 . S
C549 C550 1.258 . S
C549 C552 1.431 . S
C549 C569 1.449 . S
C550 C549 1.258 . S
C550 C551 1.477 . S
C550 H570 0.931 . S
C551 C547 1.460 . S
C551 C550 1.477 . S
C551 H571 0.930 . S
C552 N548 1.362 . S
C552 C549 1.431 . S
C552 C562 1.476 . S
H553 C547 0.929 . S
C554 O545 1.250 . S
C554 O546 1.258 . S
O555 Mn540 2.162 . S
O555 C543 1.281 . S
O556 Mn540 2.297 . S
O556 C543 1.236 . S
N557 Mn541 2.282 . S
N557 C558 1.328 . S
N557 C562 1.318 . S
C558 N557 1.328 . S
C558 C559 1.457 . S
C558 H563 0.929 . S
C559 C558 1.457 . S
C559 C560 1.291 . S
C559 H572 0.931 . S
C560 C559 1.291 . S
C560 C561 1.373 . S
C560 H573 0.929 . S
C561 C560 1.373 . S
C561 C562 1.396 . S
C561 C568 1.403 . S
C562 C552 1.476 . S
C562 N557 1.318 . S
C562 C561 1.396 . S
H563 C558 0.929 . S
O564 Mn540 2.385 . S
O564 C542 1.234 . S
O565 Mn540 2.209 . S
O565 Mn541 2.215 . S
O565 C542 1.283 . S
O566 Mn540 2.094 . S
O566 C544 1.240 . S
O567 Mn541 2.117 . S
O567 C544 1.264 . S
C568 C561 1.403 . S
C568 C569 1.399 . S
C568 H574 0.929 . S
C569 C549 1.449 . S
C569 C568 1.399 . S
C569 H575 0.930 . S
H570 C550 0.931 . S
H571 C551 0.930 . S
H572 C559 0.931 . S
H573 C560 0.929 . S
H574 C568 0.929 . S
H575 C569 0.930 . S
Mn576 O581 2.095 . S
Mn576 O591 2.162 . S
Mn576 O592 2.297 . S
Mn576 O600 2.385 . S
Mn576 O601 2.209 . S
Mn576 O602 2.094 . S
Mn577 O582 2.121 . S
Mn577 N584 2.257 . S
Mn577 N593 2.282 . S
Mn577 O601 2.215 . S
Mn577 O603 2.117 . S
C578 O600 1.234 . S
C578 O601 1.283 . S
C579 O591 1.281 . S
C579 O592 1.236 . S
C580 O602 1.240 . S
C580 O603 1.264 . S
O581 Mn576 2.095 . S
O581 C590 1.250 . S
O582 Mn577 2.121 . S
O582 C590 1.258 . S
C583 N584 1.326 . S
C583 C587 1.460 . S
C583 H589 0.929 . S
N584 Mn577 2.257 . S
N584 C583 1.326 . S
N584 C588 1.362 . S
C585 C586 1.258 . S
C585 C588 1.431 . S
C585 C605 1.449 . S
C586 C585 1.258 . S
C586 C587 1.477 . S
C586 H606 0.931 . S
C587 C583 1.460 . S
C587 C586 1.477 . S
C587 H607 0.930 . S
C588 N584 1.362 . S
C588 C585 1.431 . S
C588 C598 1.476 . S
H589 C583 0.929 . S
C590 O581 1.250 . S
C590 O582 1.258 . S
O591 Mn576 2.162 . S
O591 C579 1.281 . S
O592 Mn576 2.297 . S
O592 C579 1.236 . S
N593 Mn577 2.282 . S
N593 C594 1.328 . S
N593 C598 1.318 . S
C594 N593 1.328 . S
C594 C595 1.457 . S
C594 H599 0.929 . S
C595 C594 1.457 . S
C595 C596 1.291 . S
C595 H608 0.931 . S
C596 C595 1.291 . S
C596 C597 1.373 . S
C596 H609 0.929 . S
C597 C596 1.373 . S
C597 C598 1.396 . S
C597 C604 1.403 . S
C598 C588 1.476 . S
C598 N593 1.318 . S
C598 C597 1.396 . S
H599 C594 0.929 . S
O600 Mn576 2.385 . S
O600 C578 1.234 . S
O601 Mn576 2.209 . S
O601 Mn577 2.215 . S
O601 C578 1.283 . S
O602 Mn576 2.094 . S
O602 C580 1.240 . S
O603 Mn577 2.117 . S
O603 C580 1.264 . S
C604 C597 1.403 . S
C604 C605 1.399 . S
C604 H610 0.929 . S
C605 C585 1.449 . S
C605 C604 1.399 . S
C605 H611 0.930 . S
H606 C586 0.931 . S
H607 C587 0.930 . S
H608 C595 0.931 . S
H609 C596 0.929 . S
H610 C604 0.929 . S
H611 C605 0.930 . S
Mn612 O617 2.095 . S
Mn612 O627 2.162 . S
Mn612 O628 2.297 . S
Mn612 O636 2.385 1_545 S
Mn612 O637 2.209 1_545 S
Mn612 O638 2.094 . S
Mn613 O618 2.121 . S
Mn613 N620 2.257 . S
Mn613 N629 2.282 . S
Mn613 O637 2.215 . S
Mn613 O639 2.117 . S
C614 O636 1.234 . S
C614 O637 1.283 . S
C615 O627 1.281 . S
C615 O628 1.236 . S
C616 O638 1.240 . S
C616 O639 1.264 1_545 S
O617 Mn612 2.095 . S
O617 C626 1.250 1_545 S
O618 Mn613 2.121 . S
O618 C626 1.258 . S
C619 N620 1.326 . S
C619 C623 1.460 . S
C619 H625 0.929 . S
N620 Mn613 2.257 . S
N620 C619 1.326 . S
N620 C624 1.362 . S
C621 C622 1.258 . S
C621 C624 1.431 . S
C621 C641 1.449 . S
C622 C621 1.258 . S
C622 C623 1.477 . S
C622 H642 0.931 . S
C623 C619 1.460 . S
C623 C622 1.477 . S
C623 H643 0.930 . S
C624 N620 1.362 . S
C624 C621 1.431 . S
C624 C634 1.476 . S
H625 C619 0.929 . S
C626 O617 1.250 1_565 S
C626 O618 1.258 . S
O627 Mn612 2.162 . S
O627 C615 1.281 . S
O628 Mn612 2.297 . S
O628 C615 1.236 . S
N629 Mn613 2.282 . S
N629 C630 1.328 . S
N629 C634 1.318 . S
C630 N629 1.328 . S
C630 C631 1.457 . S
C630 H635 0.929 . S
C631 C630 1.457 . S
C631 C632 1.291 . S
C631 H644 0.931 . S
C632 C631 1.291 . S
C632 C633 1.373 . S
C632 H645 0.929 . S
C633 C632 1.373 . S
C633 C634 1.396 . S
C633 C640 1.403 . S
C634 C624 1.476 . S
C634 N629 1.318 . S
C634 C633 1.396 . S
H635 C630 0.929 . S
O636 Mn612 2.385 1_565 S
O636 C614 1.234 . S
O637 Mn612 2.209 1_565 S
O637 Mn613 2.215 . S
O637 C614 1.283 . S
O638 Mn612 2.094 . S
O638 C616 1.240 . S
O639 Mn613 2.117 . S
O639 C616 1.264 1_565 S
C640 C633 1.403 . S
C640 C641 1.399 . S
C640 H646 0.929 . S
C641 C621 1.449 . S
C641 C640 1.399 . S
C641 H647 0.930 . S
H642 C622 0.931 . S
H643 C623 0.930 . S
H644 C631 0.931 . S
H645 C632 0.929 . S
H646 C640 0.929 . S
H647 C641 0.930 . S
Mn648 O653 2.095 . S
Mn648 O663 2.162 . S
Mn648 O664 2.297 . S
Mn648 O672 2.385 . S
Mn648 O673 2.209 . S
Mn648 O674 2.094 . S
Mn649 O654 2.121 . S
Mn649 N656 2.257 . S
Mn649 N665 2.282 . S
Mn649 O673 2.215 . S
Mn649 O675 2.117 . S
C650 O672 1.234 . S
C650 O673 1.283 . S
C651 O663 1.281 . S
C651 O664 1.236 . S
C652 O674 1.240 . S
C652 O675 1.264 . S
O653 Mn648 2.095 . S
O653 C662 1.250 . S
O654 Mn649 2.121 . S
O654 C662 1.258 . S
C655 N656 1.326 . S
C655 C659 1.460 . S
C655 H661 0.929 . S
N656 Mn649 2.257 . S
N656 C655 1.326 . S
N656 C660 1.362 . S
C657 C658 1.258 . S
C657 C660 1.431 . S
C657 C677 1.449 . S
C658 C657 1.258 . S
C658 C659 1.477 . S
C658 H678 0.931 . S
C659 C655 1.460 . S
C659 C658 1.477 . S
C659 H679 0.930 . S
C660 N656 1.362 . S
C660 C657 1.431 . S
C660 C670 1.476 . S
H661 C655 0.929 . S
C662 O653 1.250 . S
C662 O654 1.258 . S
O663 Mn648 2.162 . S
O663 C651 1.281 . S
O664 Mn648 2.297 . S
O664 C651 1.236 . S
N665 Mn649 2.282 . S
N665 C666 1.328 . S
N665 C670 1.318 . S
C666 N665 1.328 . S
C666 C667 1.457 . S
C666 H671 0.929 . S
C667 C666 1.457 . S
C667 C668 1.291 . S
C667 H680 0.931 . S
C668 C667 1.291 . S
C668 C669 1.373 . S
C668 H681 0.929 . S
C669 C668 1.373 . S
C669 C670 1.396 . S
C669 C676 1.403 . S
C670 C660 1.476 . S
C670 N665 1.318 . S
C670 C669 1.396 . S
H671 C666 0.929 . S
O672 Mn648 2.385 . S
O672 C650 1.234 . S
O673 Mn648 2.209 . S
O673 Mn649 2.215 . S
O673 C650 1.283 . S
O674 Mn648 2.094 . S
O674 C652 1.240 . S
O675 Mn649 2.117 . S
O675 C652 1.264 . S
C676 C669 1.403 . S
C676 C677 1.399 . S
C676 H682 0.929 . S
C677 C657 1.449 . S
C677 C676 1.399 . S
C677 H683 0.930 . S
H678 C658 0.931 . S
H679 C659 0.930 . S
H680 C667 0.931 . S
H681 C668 0.929 . S
H682 C676 0.929 . S
H683 C677 0.930 . S
Mn684 O689 2.095 . S
Mn684 O699 2.162 . S
Mn684 O700 2.297 . S
Mn684 O708 2.385 1_565 S
Mn684 O709 2.209 1_565 S
Mn684 O710 2.094 . S
Mn685 O690 2.121 . S
Mn685 N692 2.257 . S
Mn685 N701 2.282 . S
Mn685 O709 2.215 . S
Mn685 O711 2.117 . S
C686 O708 1.234 . S
C686 O709 1.283 . S
C687 O699 1.281 . S
C687 O700 1.236 . S
C688 O710 1.240 . S
C688 O711 1.264 1_565 S
O689 Mn684 2.095 . S
O689 C698 1.250 1_565 S
O690 Mn685 2.121 . S
O690 C698 1.258 . S
C691 N692 1.326 . S
C691 C695 1.460 . S
C691 H697 0.929 . S
N692 Mn685 2.257 . S
N692 C691 1.326 . S
N692 C696 1.362 . S
C693 C694 1.258 . S
C693 C696 1.431 . S
C693 C713 1.449 . S
C694 C693 1.258 . S
C694 C695 1.477 . S
C694 H714 0.931 . S
C695 C691 1.460 . S
C695 C694 1.477 . S
C695 H715 0.930 . S
C696 N692 1.362 . S
C696 C693 1.431 . S
C696 C706 1.476 . S
H697 C691 0.929 . S
C698 O689 1.250 1_545 S
C698 O690 1.258 . S
O699 Mn684 2.162 . S
O699 C687 1.281 . S
O700 Mn684 2.297 . S
O700 C687 1.236 . S
N701 Mn685 2.282 . S
N701 C702 1.328 . S
N701 C706 1.318 . S
C702 N701 1.328 . S
C702 C703 1.457 . S
C702 H707 0.929 . S
C703 C702 1.457 . S
C703 C704 1.291 . S
C703 H716 0.931 . S
C704 C703 1.291 . S
C704 C705 1.373 . S
C704 H717 0.929 . S
C705 C704 1.373 . S
C705 C706 1.396 . S
C705 C712 1.403 . S
C706 C696 1.476 . S
C706 N701 1.318 . S
C706 C705 1.396 . S
H707 C702 0.929 . S
O708 Mn684 2.385 1_545 S
O708 C686 1.234 . S
O709 Mn684 2.209 1_545 S
O709 Mn685 2.215 . S
O709 C686 1.283 . S
O710 Mn684 2.094 . S
O710 C688 1.240 . S
O711 Mn685 2.117 . S
O711 C688 1.264 1_545 S
C712 C705 1.403 . S
C712 C713 1.399 . S
C712 H718 0.929 . S
C713 C693 1.449 . S
C713 C712 1.399 . S
C713 H719 0.930 . S
H714 C694 0.931 . S
H715 C695 0.930 . S
H716 C703 0.931 . S
H717 C704 0.929 . S
H718 C712 0.929 . S
H719 C713 0.930 . S
Mn720 O725 2.095 . S
Mn720 O735 2.162 . S
Mn720 O736 2.297 . S
Mn720 O744 2.385 . S
Mn720 O745 2.209 . S
Mn720 O746 2.094 . S
Mn721 O726 2.121 . S
Mn721 N728 2.257 . S
Mn721 N737 2.282 . S
Mn721 O745 2.215 . S
Mn721 O747 2.117 . S
C722 O744 1.234 . S
C722 O745 1.283 . S
C723 O735 1.281 . S
C723 O736 1.236 . S
C724 O746 1.240 . S
C724 O747 1.264 . S
O725 Mn720 2.095 . S
O725 C734 1.250 . S
O726 Mn721 2.121 . S
O726 C734 1.258 . S
C727 N728 1.326 . S
C727 C731 1.460 . S
C727 H733 0.929 . S
N728 Mn721 2.257 . S
N728 C727 1.326 . S
N728 C732 1.362 . S
C729 C730 1.258 . S
C729 C732 1.431 . S
C729 C749 1.449 . S
C730 C729 1.258 . S
C730 C731 1.477 . S
C730 H750 0.931 . S
C731 C727 1.460 . S
C731 C730 1.477 . S
C731 H751 0.930 . S
C732 N728 1.362 . S
C732 C729 1.431 . S
C732 C742 1.476 . S
H733 C727 0.929 . S
C734 O725 1.250 . S
C734 O726 1.258 . S
O735 Mn720 2.162 . S
O735 C723 1.281 . S
O736 Mn720 2.297 . S
O736 C723 1.236 . S
N737 Mn721 2.282 . S
N737 C738 1.328 . S
N737 C742 1.318 . S
C738 N737 1.328 . S
C738 C739 1.457 . S
C738 H743 0.929 . S
C739 C738 1.457 . S
C739 C740 1.291 . S
C739 H752 0.931 . S
C740 C739 1.291 . S
C740 C741 1.373 . S
C740 H753 0.929 . S
C741 C740 1.373 . S
C741 C742 1.396 . S
C741 C748 1.403 . S
C742 C732 1.476 . S
C742 N737 1.318 . S
C742 C741 1.396 . S
H743 C738 0.929 . S
O744 Mn720 2.385 . S
O744 C722 1.234 . S
O745 Mn720 2.209 . S
O745 Mn721 2.215 . S
O745 C722 1.283 . S
O746 Mn720 2.094 . S
O746 C724 1.240 . S
O747 Mn721 2.117 . S
O747 C724 1.264 . S
C748 C741 1.403 . S
C748 C749 1.399 . S
C748 H754 0.929 . S
C749 C729 1.449 . S
C749 C748 1.399 . S
C749 H755 0.930 . S
H750 C730 0.931 . S
H751 C731 0.930 . S
H752 C739 0.931 . S
H753 C740 0.929 . S
H754 C748 0.929 . S
H755 C749 0.930 . S
Mn756 O761 2.095 . S
Mn756 O771 2.162 . S
Mn756 O772 2.297 . S
Mn756 O780 2.385 1_554 S
Mn756 O781 2.209 1_554 S
Mn756 O782 2.094 . S
Mn757 O762 2.121 . S
Mn757 N764 2.257 . S
Mn757 N773 2.282 . S
Mn757 O781 2.215 . S
Mn757 O783 2.117 . S
C758 O780 1.234 . S
C758 O781 1.283 . S
C759 O771 1.281 . S
C759 O772 1.236 . S
C760 O782 1.240 . S
C760 O783 1.264 1_554 S
O761 Mn756 2.095 . S
O761 C770 1.250 1_554 S
O762 Mn757 2.121 . S
O762 C770 1.258 . S
C763 N764 1.326 . S
C763 C767 1.460 . S
C763 H769 0.929 . S
N764 Mn757 2.257 . S
N764 C763 1.326 . S
N764 C768 1.362 . S
C765 C766 1.258 . S
C765 C768 1.431 . S
C765 C785 1.449 . S
C766 C765 1.258 . S
C766 C767 1.477 . S
C766 H786 0.931 . S
C767 C763 1.460 . S
C767 C766 1.477 . S
C767 H787 0.930 . S
C768 N764 1.362 . S
C768 C765 1.431 . S
C768 C778 1.476 . S
H769 C763 0.929 . S
C770 O761 1.250 1_556 S
C770 O762 1.258 . S
O771 Mn756 2.162 . S
O771 C759 1.281 . S
O772 Mn756 2.297 . S
O772 C759 1.236 . S
N773 Mn757 2.282 . S
N773 C774 1.328 . S
N773 C778 1.318 . S
C774 N773 1.328 . S
C774 C775 1.457 . S
C774 H779 0.929 . S
C775 C774 1.457 . S
C775 C776 1.291 . S
C775 H788 0.931 . S
C776 C775 1.291 . S
C776 C777 1.373 . S
C776 H789 0.929 . S
C777 C776 1.373 . S
C777 C778 1.396 . S
C777 C784 1.403 . S
C778 C768 1.476 . S
C778 N773 1.318 . S
C778 C777 1.396 . S
H779 C774 0.929 . S
O780 Mn756 2.385 1_556 S
O780 C758 1.234 . S
O781 Mn756 2.209 1_556 S
O781 Mn757 2.215 . S
O781 C758 1.283 . S
O782 Mn756 2.094 . S
O782 C760 1.240 . S
O783 Mn757 2.117 . S
O783 C760 1.264 1_556 S
C784 C777 1.403 . S
C784 C785 1.399 . S
C784 H790 0.929 . S
C785 C765 1.449 . S
C785 C784 1.399 . S
C785 H791 0.930 . S
H786 C766 0.931 . S
H787 C767 0.930 . S
H788 C775 0.931 . S
H789 C776 0.929 . S
H790 C784 0.929 . S
H791 C785 0.930 . S
Mn792 O797 2.095 . S
Mn792 O807 2.162 . S
Mn792 O808 2.297 . S
Mn792 O816 2.385 1_554 S
Mn792 O817 2.209 1_554 S
Mn792 O818 2.094 . S
Mn793 O798 2.121 . S
Mn793 N800 2.257 . S
Mn793 N809 2.282 . S
Mn793 O817 2.215 . S
Mn793 O819 2.117 . S
C794 O816 1.234 . S
C794 O817 1.283 . S
C795 O807 1.281 . S
C795 O808 1.236 . S
C796 O818 1.240 . S
C796 O819 1.264 1_554 S
O797 Mn792 2.095 . S
O797 C806 1.250 1_554 S
O798 Mn793 2.121 . S
O798 C806 1.258 . S
C799 N800 1.326 . S
C799 C803 1.460 . S
C799 H805 0.929 . S
N800 Mn793 2.257 . S
N800 C799 1.326 . S
N800 C804 1.362 . S
C801 C802 1.258 . S
C801 C804 1.431 . S
C801 C821 1.449 . S
C802 C801 1.258 . S
C802 C803 1.477 . S
C802 H822 0.931 . S
C803 C799 1.460 . S
C803 C802 1.477 . S
C803 H823 0.930 . S
C804 N800 1.362 . S
C804 C801 1.431 . S
C804 C814 1.476 . S
H805 C799 0.929 . S
C806 O797 1.250 1_556 S
C806 O798 1.258 . S
O807 Mn792 2.162 . S
O807 C795 1.281 . S
O808 Mn792 2.297 . S
O808 C795 1.236 . S
N809 Mn793 2.282 . S
N809 C810 1.328 . S
N809 C814 1.318 . S
C810 N809 1.328 . S
C810 C811 1.457 . S
C810 H815 0.929 . S
C811 C810 1.457 . S
C811 C812 1.291 . S
C811 H824 0.931 . S
C812 C811 1.291 . S
C812 C813 1.373 . S
C812 H825 0.929 . S
C813 C812 1.373 . S
C813 C814 1.396 . S
C813 C820 1.403 . S
C814 C804 1.476 . S
C814 N809 1.318 . S
C814 C813 1.396 . S
H815 C810 0.929 . S
O816 Mn792 2.385 1_556 S
O816 C794 1.234 . S
O817 Mn792 2.209 1_556 S
O817 Mn793 2.215 . S
O817 C794 1.283 . S
O818 Mn792 2.094 . S
O818 C796 1.240 . S
O819 Mn793 2.117 . S
O819 C796 1.264 1_556 S
C820 C813 1.403 . S
C820 C821 1.399 . S
C820 H826 0.929 . S
C821 C801 1.449 . S
C821 C820 1.399 . S
C821 H827 0.930 . S
H822 C802 0.931 . S
H823 C803 0.930 . S
H824 C811 0.931 . S
H825 C812 0.929 . S
H826 C820 0.929 . S
H827 C821 0.930 . S
Mn828 O833 2.095 . S
Mn828 O843 2.162 . S
Mn828 O844 2.297 . S
Mn828 O852 2.385 1_556 S
Mn828 O853 2.209 1_556 S
Mn828 O854 2.094 . S
Mn829 O834 2.121 . S
Mn829 N836 2.257 . S
Mn829 N845 2.282 . S
Mn829 O853 2.215 . S
Mn829 O855 2.117 . S
C830 O852 1.234 . S
C830 O853 1.283 . S
C831 O843 1.281 . S
C831 O844 1.236 . S
C832 O854 1.240 . S
C832 O855 1.264 1_556 S
O833 Mn828 2.095 . S
O833 C842 1.250 1_556 S
O834 Mn829 2.121 . S
O834 C842 1.258 . S
C835 N836 1.326 . S
C835 C839 1.460 . S
C835 H841 0.929 . S
N836 Mn829 2.257 . S
N836 C835 1.326 . S
N836 C840 1.362 . S
C837 C838 1.258 . S
C837 C840 1.431 . S
C837 C857 1.449 . S
C838 C837 1.258 . S
C838 C839 1.477 . S
C838 H858 0.931 . S
C839 C835 1.460 . S
C839 C838 1.477 . S
C839 H859 0.930 . S
C840 N836 1.362 . S
C840 C837 1.431 . S
C840 C850 1.476 . S
H841 C835 0.929 . S
C842 O833 1.250 1_554 S
C842 O834 1.258 . S
O843 Mn828 2.162 . S
O843 C831 1.281 . S
O844 Mn828 2.297 . S
O844 C831 1.236 . S
N845 Mn829 2.282 . S
N845 C846 1.328 . S
N845 C850 1.318 . S
C846 N845 1.328 . S
C846 C847 1.457 . S
C846 H851 0.929 . S
C847 C846 1.457 . S
C847 C848 1.291 . S
C847 H860 0.931 . S
C848 C847 1.291 . S
C848 C849 1.373 . S
C848 H861 0.929 . S
C849 C848 1.373 . S
C849 C850 1.396 . S
C849 C856 1.403 . S
C850 C840 1.476 . S
C850 N845 1.318 . S
C850 C849 1.396 . S
H851 C846 0.929 . S
O852 Mn828 2.385 1_554 S
O852 C830 1.234 . S
O853 Mn828 2.209 1_554 S
O853 Mn829 2.215 . S
O853 C830 1.283 . S
O854 Mn828 2.094 . S
O854 C832 1.240 . S
O855 Mn829 2.117 . S
O855 C832 1.264 1_554 S
C856 C849 1.403 . S
C856 C857 1.399 . S
C856 H862 0.929 . S
C857 C837 1.449 . S
C857 C856 1.399 . S
C857 H863 0.930 . S
H858 C838 0.931 . S
H859 C839 0.930 . S
H860 C847 0.931 . S
H861 C848 0.929 . S
H862 C856 0.929 . S
H863 C857 0.930 . S
C864 C865 1.363 . S
C864 C870 1.379 . S
C864 N872 1.356 . S
C865 C864 1.363 . S
C865 C871 1.363 . S
C866 C867 1.363 . S
C866 C871 1.379 . S
C866 N873 1.356 . S
C867 C866 1.363 . S
C867 C870 1.363 . S
N868 C870 1.356 . S
N868 H880 0.984 1_455 S
N868 H881 0.985 . S
N869 C871 1.356 . S
N869 H874 0.984 . S
N869 H875 0.985 . S
C870 C864 1.379 . S
C870 C867 1.363 . S
C870 N868 1.356 . S
C871 C865 1.363 . S
C871 C866 1.379 . S
C871 N869 1.356 . S
N872 C864 1.356 . S
N872 H878 0.984 . S
N872 H879 0.984 . S
N873 C866 1.356 . S
N873 H876 0.984 . S
N873 H877 0.985 . S
H874 N869 0.984 . S
H875 N869 0.985 . S
H876 N873 0.984 . S
H877 N873 0.985 . S
H878 N872 0.984 . S
H879 N872 0.984 . S
H880 N868 0.984 1_655 S
H881 N868 0.985 . S
C882 C883 1.363 . S
C882 C888 1.379 . S
C882 N890 1.356 . S
C883 C882 1.363 . S
C883 C889 1.363 . S
C884 C885 1.363 . S
C884 C889 1.379 . S
C884 N891 1.356 . S
C885 C884 1.363 . S
C885 C888 1.363 . S
N886 C888 1.356 . S
N886 H898 0.984 . S
N886 H899 0.985 . S
N887 C889 1.356 . S
N887 H892 0.984 . S
N887 H893 0.985 . S
C888 C882 1.379 . S
C888 C885 1.363 . S
C888 N886 1.356 . S
C889 C883 1.363 . S
C889 C884 1.379 . S
C889 N887 1.356 . S
N890 C882 1.356 . S
N890 H896 0.984 . S
N890 H897 0.984 . S
N891 C884 1.356 . S
N891 H894 0.984 . S
N891 H895 0.985 . S
H892 N887 0.984 . S
H893 N887 0.985 . S
H894 N891 0.984 . S
H895 N891 0.985 . S
H896 N890 0.984 . S
H897 N890 0.984 . S
H898 N886 0.984 . S
H899 N886 0.985 . S
C900 C901 1.363 . S
C900 C906 1.379 . S
C900 N908 1.356 . S
C901 C900 1.363 . S
C901 C907 1.363 . S
C902 C903 1.363 1_554 S
C902 C907 1.379 . S
C902 N909 1.356 1_554 S
C903 C902 1.363 1_556 S
C903 C906 1.363 1_556 S
N904 C906 1.356 1_556 S
N904 H916 0.984 1_556 S
N904 H917 0.985 . S
N905 C907 1.356 . S
N905 H910 0.984 . S
N905 H911 0.985 . S
C906 C900 1.379 . S
C906 C903 1.363 1_554 S
C906 N904 1.356 1_554 S
C907 C901 1.363 . S
C907 C902 1.379 . S
C907 N905 1.356 . S
N908 C900 1.356 . S
N908 H914 0.984 . S
N908 H915 0.984 . S
N909 C902 1.356 1_556 S
N909 H912 0.984 . S
N909 H913 0.985 1_565 S
H910 N905 0.984 . S
H911 N905 0.985 . S
H912 N909 0.984 . S
H913 N909 0.985 1_545 S
H914 N908 0.984 . S
H915 N908 0.984 . S
H916 N904 0.984 1_554 S
H917 N904 0.985 . S
C918 C919 1.363 . S
C918 C924 1.379 . S
C918 N926 1.356 . S
C919 C918 1.363 . S
C919 C925 1.363 . S
C920 C921 1.363 1_554 S
C920 C925 1.379 . S
C920 N927 1.356 . S
C921 C920 1.363 1_556 S
C921 C924 1.363 1_556 S
N922 C924 1.356 1_556 S
N922 H934 0.984 . S
N922 H935 0.985 . S
N923 C925 1.356 . S
N923 H928 0.984 . S
N923 H929 0.985 . S
C924 C918 1.379 . S
C924 C921 1.363 1_554 S
C924 N922 1.356 1_554 S
C925 C919 1.363 . S
C925 C920 1.379 . S
C925 N923 1.356 . S
N926 C918 1.356 . S
N926 H932 0.984 . S
N926 H933 0.984 . S
N927 C920 1.356 . S
N927 H930 0.984 1_554 S
N927 H931 0.985 . S
H928 N923 0.984 . S
H929 N923 0.985 . S
H930 N927 0.984 1_556 S
H931 N927 0.985 . S
H932 N926 0.984 . S
H933 N926 0.984 . S
H934 N922 0.984 . S
H935 N922 0.985 . S
C936 C937 1.363 . S
C936 C942 1.379 . S
C936 N944 1.356 . S
C937 C936 1.363 . S
C937 C943 1.363 . S
C938 C939 1.363 . S
C938 C943 1.379 . S
C938 N945 1.356 . S
C939 C938 1.363 . S
C939 C942 1.363 . S
N940 C942 1.356 . S
N940 H952 0.984 . S
N940 H953 0.985 . S
N941 C943 1.356 . S
N941 H946 0.984 . S
N941 H947 0.985 . S
C942 C936 1.379 . S
C942 C939 1.363 . S
C942 N940 1.356 . S
C943 C937 1.363 . S
C943 C938 1.379 . S
C943 N941 1.356 . S
N944 C936 1.356 . S
N944 H950 0.984 . S
N944 H951 0.984 . S
N945 C938 1.356 . S
N945 H948 0.984 . S
N945 H949 0.985 . S
H946 N941 0.984 . S
H947 N941 0.985 . S
H948 N945 0.984 . S
H949 N945 0.985 . S
H950 N944 0.984 . S
H951 N944 0.984 . S
H952 N940 0.984 . S
H953 N940 0.985 . S
C954 C955 1.363 . S
C954 C960 1.379 . S
C954 N962 1.356 . S
C955 C954 1.363 . S
C955 C961 1.363 . S
C956 C957 1.363 . S
C956 C961 1.379 . S
C956 N963 1.356 . S
C957 C956 1.363 . S
C957 C960 1.363 . S
N958 C960 1.356 . S
N958 H970 0.984 . S
N958 H971 0.985 . S
N959 C961 1.356 . S
N959 H964 0.984 . S
N959 H965 0.985 . S
C960 C954 1.379 . S
C960 C957 1.363 . S
C960 N958 1.356 . S
C961 C955 1.363 . S
C961 C956 1.379 . S
C961 N959 1.356 . S
N962 C954 1.356 . S
N962 H968 0.984 . S
N962 H969 0.984 . S
N963 C956 1.356 . S
N963 H966 0.984 . S
N963 H967 0.966 1_554 S
H964 N959 0.984 . S
H965 N959 0.985 . S
H966 N963 0.984 . S
H967 N963 0.966 1_556 S
H968 N962 0.984 . S
H969 N962 0.984 . S
H970 N958 0.984 . S
H971 N958 0.985 . S
C972 C973 1.363 . S
C972 C978 1.379 . S
C972 N980 1.356 . S
C973 C972 1.363 . S
C973 C979 1.363 . S
C974 C975 1.363 . S
C974 C979 1.379 . S
C974 N981 1.356 . S
C975 C974 1.363 . S
C975 C978 1.363 . S
N976 C978 1.356 . S
N976 H988 0.984 . S
N976 H989 0.985 . S
N977 C979 1.356 . S
N977 H982 0.984 . S
N977 H983 0.985 . S
C978 C972 1.379 . S
C978 C975 1.363 . S
C978 N976 1.356 . S
C979 C973 1.363 . S
C979 C974 1.379 . S
C979 N977 1.356 . S
N980 C972 1.356 . S
N980 H986 0.984 . S
N980 H987 0.984 . S
N981 C974 1.356 . S
N981 H984 0.984 . S
N981 H985 0.963 1_565 S
H982 N977 0.984 . S
H983 N977 0.985 . S
H984 N981 0.984 . S
H985 N981 0.963 1_545 S
H986 N980 0.984 . S
H987 N980 0.984 . S
H988 N976 0.984 . S
H989 N976 0.985 . S
C990 C991 1.363 . S
C990 C996 1.379 . S
C990 N998 1.356 . S
C991 C990 1.363 . S
C991 C997 1.363 . S
C992 C993 1.363 . S
C992 C997 1.379 . S
C992 N999 1.356 . S
C993 C992 1.363 . S
C993 C996 1.363 . S
N994 C996 1.356 . S
N994 H1006 0.984 . S
N994 H1007 0.985 . S
N995 C997 1.356 . S
N995 H1000 0.984 . S
N995 H1001 0.985 . S
C996 C990 1.379 . S
C996 C993 1.363 . S
C996 N994 1.356 . S
C997 C991 1.363 . S
C997 C992 1.379 . S
C997 N995 1.356 . S
N998 C990 1.356 . S
N998 H1004 0.984 . S
N998 H1005 0.984 . S
N999 C992 1.356 . S
N999 H1002 0.984 . S
N999 H1003 0.985 . S
H1000 N995 0.984 . S
H1001 N995 0.985 . S
H1002 N999 0.984 . S
H1003 N999 0.985 . S
H1004 N998 0.984 . S
H1005 N998 0.984 . S
H1006 N994 0.984 . S
H1007 N994 0.985 . S
C1008 C1009 1.363 . S
C1008 C1014 1.379 . S
C1008 N1016 1.356 . S
C1009 C1008 1.363 . S
C1009 C1015 1.363 . S
C1010 C1011 1.363 . S
C1010 C1015 1.379 . S
C1010 N1017 1.356 . S
C1011 C1010 1.363 . S
C1011 C1014 1.363 . S
N1012 C1014 1.356 . S
N1012 H1024 0.984 . S
N1012 H1025 0.985 . S
N1013 C1015 1.356 . S
N1013 H1018 0.984 . S
N1013 H1019 0.985 . S
C1014 C1008 1.379 . S
C1014 C1011 1.363 . S
C1014 N1012 1.356 . S
C1015 C1009 1.363 . S
C1015 C1010 1.379 . S
C1015 N1013 1.356 . S
N1016 C1008 1.356 . S
N1016 H1022 0.984 . S
N1016 H1023 0.984 . S
N1017 C1010 1.356 . S
N1017 H1020 0.984 . S
N1017 H1021 0.985 . S
H1018 N1013 0.984 . S
H1019 N1013 0.985 . S
H1020 N1017 0.984 . S
H1021 N1017 0.985 . S
H1022 N1016 0.984 . S
H1023 N1016 0.984 . S
H1024 N1012 0.984 . S
H1025 N1012 0.985 . S
C1026 C1027 1.363 . S
C1026 C1032 1.379 . S
C1026 N1034 1.356 . S
C1027 C1026 1.363 . S
C1027 C1033 1.363 . S
C1028 C1029 1.363 . S
C1028 C1033 1.379 . S
C1028 N1035 1.356 . S
C1029 C1028 1.363 . S
C1029 C1032 1.363 . S
N1030 C1032 1.356 . S
N1030 H1042 0.984 . S
N1030 H1043 0.985 . S
N1031 C1033 1.356 . S
N1031 H1036 0.984 . S
N1031 H1037 0.985 1_455 S
C1032 C1026 1.379 . S
C1032 C1029 1.363 . S
C1032 N1030 1.356 . S
C1033 C1027 1.363 . S
C1033 C1028 1.379 . S
C1033 N1031 1.356 . S
N1034 C1026 1.356 . S
N1034 H1040 0.984 . S
N1034 H1041 0.984 . S
N1035 C1028 1.356 . S
N1035 H1038 0.984 . S
N1035 H1039 0.983 . S
H1036 N1031 0.984 . S
H1037 N1031 0.985 1_655 S
H1038 N1035 0.984 . S
H1039 N1035 0.983 . S
H1040 N1034 0.984 . S
H1041 N1034 0.984 . S
H1042 N1030 0.984 . S
H1043 N1030 0.985 . S
C1044 C1045 1.363 . S
C1044 C1050 1.379 . S
C1044 N1052 1.356 . S
C1045 C1044 1.363 . S
C1045 C1051 1.363 . S
C1046 C1047 1.357 1_565 S
C1046 C1051 1.379 . S
C1046 N1053 1.356 . S
C1047 C1046 1.357 1_545 S
C1047 C1050 1.361 1_545 S
N1048 C1050 1.356 1_545 S
N1048 H1060 0.984 . S
N1048 H1061 0.985 . S
N1049 C1051 1.356 . S
N1049 H1054 0.984 . S
N1049 H1055 0.985 1_655 S
C1050 C1044 1.379 . S
C1050 C1047 1.361 1_565 S
C1050 N1048 1.356 1_565 S
C1051 C1045 1.363 . S
C1051 C1046 1.379 . S
C1051 N1049 1.356 . S
N1052 C1044 1.356 . S
N1052 H1058 0.984 . S
N1052 H1059 0.984 . S
N1053 C1046 1.356 . S
N1053 H1056 0.984 1_565 S
N1053 H1057 0.985 1_655 S
H1054 N1049 0.984 . S
H1055 N1049 0.985 1_455 S
H1056 N1053 0.984 1_545 S
H1057 N1053 0.985 1_455 S
H1058 N1052 0.984 . S
H1059 N1052 0.984 . S
H1060 N1048 0.984 . S
H1061 N1048 0.985 . S
C1062 C1063 1.363 . S
C1062 C1068 1.379 . S
C1062 N1070 1.356 . S
C1063 C1062 1.363 . S
C1063 C1069 1.363 . S
C1064 C1065 1.363 . S
C1064 C1069 1.379 . S
C1064 N1071 1.356 . S
C1065 C1064 1.363 . S
C1065 C1068 1.363 . S
N1066 C1068 1.356 . S
N1066 H1078 0.984 . S
N1066 H1079 0.985 . S
N1067 C1069 1.356 . S
N1067 H1072 0.984 . S
N1067 H1073 0.985 . S
C1068 C1062 1.379 . S
C1068 C1065 1.363 . S
C1068 N1066 1.356 . S
C1069 C1063 1.363 . S
C1069 C1064 1.379 . S
C1069 N1067 1.356 . S
N1070 C1062 1.356 . S
N1070 H1076 0.984 . S
N1070 H1077 0.984 . S
N1071 C1064 1.356 . S
N1071 H1074 0.984 . S
N1071 H1075 0.985 . S
H1072 N1067 0.984 . S
H1073 N1067 0.985 . S
H1074 N1071 0.984 . S
H1075 N1071 0.985 . S
H1076 N1070 0.984 . S
H1077 N1070 0.984 . S
H1078 N1066 0.984 . S
H1079 N1066 0.985 . S
C1080 C1081 1.363 1_556 S
C1080 C1086 1.379 . S
C1080 N1088 1.356 1_556 S
C1081 C1080 1.363 1_554 S
C1081 C1087 1.363 1_554 S
C1082 C1083 1.363 . S
C1082 C1087 1.379 . S
C1082 N1089 1.356 . S
C1083 C1082 1.363 . S
C1083 C1086 1.363 . S
N1084 C1086 1.356 . S
N1084 H1096 0.984 . S
N1084 H1097 0.985 . S
N1085 C1087 1.356 1_554 S
N1085 H1090 0.984 . S
N1085 H1091 0.993 . S
C1086 C1080 1.379 . S
C1086 C1083 1.363 . S
C1086 N1084 1.356 . S
C1087 C1081 1.363 1_556 S
C1087 C1082 1.379 . S
C1087 N1085 1.356 1_556 S
N1088 C1080 1.356 1_554 S
N1088 H1094 0.984 . S
N1088 H1095 0.984 . S
N1089 C1082 1.356 . S
N1089 H1092 0.984 . S
N1089 H1093 0.985 . S
H1090 N1085 0.984 . S
H1091 N1085 0.993 . S
H1092 N1089 0.984 . S
H1093 N1089 0.985 . S
H1094 N1088 0.984 . S
H1095 N1088 0.984 . S
H1096 N1084 0.984 . S
H1097 N1084 0.985 . S
C1098 C1099 1.356 1_556 S
C1098 C1104 1.379 . S
C1098 N1106 1.356 . S
C1099 C1098 1.356 1_554 S
C1099 C1105 1.362 1_554 S
C1100 C1101 1.363 . S
C1100 C1105 1.379 . S
C1100 N1107 1.356 . S
C1101 C1100 1.363 . S
C1101 C1104 1.363 . S
N1102 C1104 1.356 . S
N1102 H1114 0.984 . S
N1102 H1115 0.985 . S
N1103 C1105 1.356 1_554 S
N1103 H1108 0.984 . S
N1103 H1109 0.985 . S
C1104 C1098 1.379 . S
C1104 C1101 1.363 . S
C1104 N1102 1.356 . S
C1105 C1099 1.362 1_556 S
C1105 C1100 1.379 . S
C1105 N1103 1.356 1_556 S
N1106 C1098 1.356 . S
N1106 H1112 0.984 . S
N1106 H1113 0.984 1_556 S
N1107 C1100 1.356 . S
N1107 H1110 0.984 . S
N1107 H1111 0.985 . S
H1108 N1103 0.984 . S
H1109 N1103 0.985 . S
H1110 N1107 0.984 . S
H1111 N1107 0.985 . S
H1112 N1106 0.984 . S
H1113 N1106 0.984 1_554 S
H1114 N1102 0.984 . S
H1115 N1102 0.985 . S
C1116 C1117 1.363 . S
C1116 C1122 1.379 . S
C1116 N1124 1.356 . S
C1117 C1116 1.363 . S
C1117 C1123 1.363 . S
C1118 C1119 1.363 . S
C1118 C1123 1.379 . S
C1118 N1125 1.356 . S
C1119 C1118 1.363 . S
C1119 C1122 1.363 . S
N1120 C1122 1.356 . S
N1120 H1132 0.984 . S
N1120 H1133 0.985 . S
N1121 C1123 1.356 . S
N1121 H1126 0.984 . S
N1121 H1127 0.985 . S
C1122 C1116 1.379 . S
C1122 C1119 1.363 . S
C1122 N1120 1.356 . S
C1123 C1117 1.363 . S
C1123 C1118 1.379 . S
C1123 N1121 1.356 . S
N1124 C1116 1.356 . S
N1124 H1130 0.984 . S
N1124 H1131 0.984 . S
N1125 C1118 1.356 . S
N1125 H1128 0.984 . S
N1125 H1129 0.985 . S
H1126 N1121 0.984 . S
H1127 N1121 0.985 . S
H1128 N1125 0.984 . S
H1129 N1125 0.985 . S
H1130 N1124 0.984 . S
H1131 N1124 0.984 . S
H1132 N1120 0.984 . S
H1133 N1120 0.985 . S
C1134 C1135 1.363 . S
C1134 C1140 1.379 . S
C1134 N1142 1.356 . S
C1135 C1134 1.363 . S
C1135 C1141 1.363 . S
C1136 C1137 1.363 . S
C1136 C1141 1.379 . S
C1136 N1143 1.356 . S
C1137 C1136 1.363 . S
C1137 C1140 1.363 . S
N1138 C1140 1.356 . S
N1138 H1150 0.984 1_545 S
N1138 H1151 0.985 . S
N1139 C1141 1.356 . S
N1139 H1144 0.984 . S
N1139 H1145 0.985 . S
C1140 C1134 1.379 . S
C1140 C1137 1.363 . S
C1140 N1138 1.356 . S
C1141 C1135 1.363 . S
C1141 C1136 1.379 . S
C1141 N1139 1.356 . S
N1142 C1134 1.356 . S
N1142 H1148 1.008 . S
N1142 H1149 0.984 . S
N1143 C1136 1.356 . S
N1143 H1146 0.984 . S
N1143 H1147 0.985 . S
H1144 N1139 0.984 . S
H1145 N1139 0.985 . S
H1146 N1143 0.984 . S
H1147 N1143 0.985 . S
H1148 N1142 1.008 . S
H1149 N1142 0.984 . S
H1150 N1138 0.984 1_565 S
H1151 N1138 0.985 . S
C1152 C1153 1.363 1_655 S
C1152 C1158 1.379 . S
C1152 N1160 1.356 . S
C1153 C1152 1.363 1_455 S
C1153 C1159 1.362 1_455 S
C1154 C1155 1.363 . S
C1154 C1159 1.386 . S
C1154 N1161 1.356 . S
C1155 C1154 1.363 . S
C1155 C1158 1.363 . S
N1156 C1158 1.356 . S
N1156 H1168 0.984 . S
N1156 H1169 0.985 . S
N1157 C1159 1.348 1_455 S
N1157 H1162 0.984 . S
N1157 H1163 0.985 . S
C1158 C1152 1.379 . S
C1158 C1155 1.363 . S
C1158 N1156 1.356 . S
C1159 C1153 1.362 1_655 S
C1159 C1154 1.386 . S
C1159 N1157 1.348 1_655 S
N1160 C1152 1.356 . S
N1160 H1166 0.984 . S
N1160 H1167 0.984 1_655 S
N1161 C1154 1.356 . S
N1161 H1164 0.984 . S
N1161 H1165 0.985 . S
H1162 N1157 0.984 . S
H1163 N1157 0.985 . S
H1164 N1161 0.984 . S
H1165 N1161 0.985 . S
H1166 N1160 0.984 . S
H1167 N1160 0.984 1_455 S
H1168 N1156 0.984 . S
H1169 N1156 0.985 . S
C1170 C1171 1.363 1_455 S
C1170 C1176 1.379 . S
C1170 N1178 1.356 1_455 S
C1171 C1170 1.363 1_655 S
C1171 C1177 1.363 1_655 S
C1172 C1173 1.363 . S
C1172 C1177 1.379 . S
C1172 N1179 1.356 . S
C1173 C1172 1.363 . S
C1173 C1176 1.363 . S
N1174 C1176 1.356 . S
N1174 H1186 0.984 . S
N1174 H1187 0.985 . S
N1175 C1177 1.356 1_655 S
N1175 H1180 0.984 . S
N1175 H1181 0.985 . S
C1176 C1170 1.379 . S
C1176 C1173 1.363 . S
C1176 N1174 1.356 . S
C1177 C1171 1.363 1_455 S
C1177 C1172 1.379 . S
C1177 N1175 1.356 1_455 S
N1178 C1170 1.356 1_655 S
N1178 H1184 0.984 1_655 S
N1178 H1185 0.984 . S
N1179 C1172 1.356 . S
N1179 H1182 0.984 . S
N1179 H1183 0.985 1_565 S
H1180 N1175 0.984 . S
H1181 N1175 0.985 . S
H1182 N1179 0.984 . S
H1183 N1179 0.985 1_545 S
H1184 N1178 0.984 1_455 S
H1185 N1178 0.984 . S
H1186 N1174 0.984 . S
H1187 N1174 0.985 . S
C1188 C1189 1.357 1_655 S
C1188 C1194 1.379 . S
C1188 N1196 1.356 . S
C1189 C1188 1.357 1_455 S
C1189 C1195 1.361 1_455 S
C1190 C1191 1.363 . S
C1190 C1195 1.379 . S
C1190 N1197 1.356 . S
C1191 C1190 1.363 . S
C1191 C1194 1.363 . S
N1192 C1194 1.356 . S
N1192 H1204 0.984 1_556 S
N1192 H1205 0.985 . S
N1193 C1195 1.356 1_455 S
N1193 H1198 0.984 . S
N1193 H1199 0.985 . S
C1194 C1188 1.379 . S
C1194 C1191 1.363 . S
C1194 N1192 1.356 . S
C1195 C1189 1.361 1_655 S
C1195 C1190 1.379 . S
C1195 N1193 1.356 1_655 S
N1196 C1188 1.356 . S
N1196 H1202 0.984 1_556 S
N1196 H1203 0.984 1_655 S
N1197 C1190 1.356 . S
N1197 H1200 0.984 . S
N1197 H1201 0.985 . S
H1198 N1193 0.984 . S
H1199 N1193 0.985 . S
H1200 N1197 0.984 . S
H1201 N1197 0.985 . S
H1202 N1196 0.984 1_554 S
H1203 N1196 0.984 1_455 S
H1204 N1192 0.984 1_554 S
H1205 N1192 0.985 . S
C1206 C1207 1.363 . S
C1206 C1212 1.379 . S
C1206 N1214 1.356 . S
C1207 C1206 1.363 . S
C1207 C1213 1.363 . S
C1208 C1209 1.363 1_455 S
C1208 C1213 1.379 . S
C1208 N1215 1.356 1_455 S
C1209 C1208 1.363 1_655 S
C1209 C1212 1.363 1_655 S
N1210 C1212 1.356 1_655 S
N1210 H1222 0.984 1_655 S
N1210 H1223 0.985 . S
N1211 C1213 1.356 . S
N1211 H1216 0.984 . S
N1211 H1217 0.999 . S
C1212 C1206 1.379 . S
C1212 C1209 1.363 1_455 S
C1212 N1210 1.356 1_455 S
C1213 C1207 1.363 . S
C1213 C1208 1.379 . S
C1213 N1211 1.356 . S
N1214 C1206 1.356 . S
N1214 H1220 0.984 . S
N1214 H1221 0.984 . S
N1215 C1208 1.356 1_655 S
N1215 H1218 0.984 . S
N1215 H1219 0.985 1_556 S
H1216 N1211 0.984 . S
H1217 N1211 0.999 . S
H1218 N1215 0.984 . S
H1219 N1215 0.985 1_554 S
H1220 N1214 0.984 . S
H1221 N1214 0.984 . S
H1222 N1210 0.984 1_455 S
H1223 N1210 0.985 . S
C1224 C1225 1.363 1_565 S
C1224 C1230 1.379 . S
C1224 N1232 1.356 . S
C1225 C1224 1.363 1_545 S
C1225 C1231 1.363 1_545 S
C1226 C1227 1.363 . S
C1226 C1231 1.379 . S
C1226 N1233 1.356 . S
C1227 C1226 1.363 . S
C1227 C1230 1.363 . S
N1228 C1230 1.356 . S
N1228 H1240 0.984 . S
N1228 H1241 0.985 . S
N1229 C1231 1.356 1_545 S
N1229 H1234 0.984 . S
N1229 H1235 0.985 . S
C1230 C1224 1.379 . S
C1230 C1227 1.363 . S
C1230 N1228 1.356 . S
C1231 C1225 1.363 1_565 S
C1231 C1226 1.379 . S
C1231 N1229 1.356 1_565 S
N1232 C1224 1.356 . S
N1232 H1238 0.984 . S
N1232 H1239 0.984 1_565 S
N1233 C1226 1.356 . S
N1233 H1236 0.984 . S
N1233 H1237 0.985 . S
H1234 N1229 0.984 . S
H1235 N1229 0.985 . S
H1236 N1233 0.984 . S
H1237 N1233 0.985 . S
H1238 N1232 0.984 . S
H1239 N1232 0.984 1_545 S
H1240 N1228 0.984 . S
H1241 N1228 0.985 . S
C1242 C1243 1.363 . S
C1242 C1248 1.379 . S
C1242 N1250 1.356 . S
C1243 C1242 1.363 . S
C1243 C1249 1.363 . S
C1244 C1245 1.363 1_545 S
C1244 C1249 1.379 . S
C1244 N1251 1.356 1_545 S
C1245 C1244 1.363 1_565 S
C1245 C1248 1.363 1_565 S
N1246 C1248 1.356 1_565 S
N1246 H1258 0.984 . S
N1246 H1259 0.985 . S
N1247 C1249 1.356 . S
N1247 H1252 0.984 . S
N1247 H1253 0.985 . S
C1248 C1242 1.379 . S
C1248 C1245 1.363 1_545 S
C1248 N1246 1.356 1_545 S
C1249 C1243 1.363 . S
C1249 C1244 1.379 . S
C1249 N1247 1.356 . S
N1250 C1242 1.356 . S
N1250 H1256 0.984 1_556 S
N1250 H1257 0.984 . S
N1251 C1244 1.356 1_565 S
N1251 H1254 0.984 . S
N1251 H1255 0.985 1_565 S
H1252 N1247 0.984 . S
H1253 N1247 0.985 . S
H1254 N1251 0.984 . S
H1255 N1251 0.985 1_545 S
H1256 N1250 0.984 1_554 S
H1257 N1250 0.984 . S
H1258 N1246 0.984 . S
H1259 N1246 0.985 . S
C1260 C1261 1.363 . S
C1260 C1266 1.379 . S
C1260 N1268 1.356 . S
C1261 C1260 1.363 . S
C1261 C1267 1.363 . S
C1262 C1263 1.363 . S
C1262 C1267 1.379 . S
C1262 N1269 1.356 . S
C1263 C1262 1.363 . S
C1263 C1266 1.363 . S
N1264 C1266 1.356 . S
N1264 H1276 0.984 . S
N1264 H1277 0.985 . S
N1265 C1267 1.356 . S
N1265 H1270 0.984 . S
N1265 H1271 0.985 . S
C1266 C1260 1.379 . S
C1266 C1263 1.363 . S
C1266 N1264 1.356 . S
C1267 C1261 1.363 . S
C1267 C1262 1.379 . S
C1267 N1265 1.356 . S
N1268 C1260 1.356 . S
N1268 H1274 0.984 . S
N1268 H1275 0.984 . S
N1269 C1262 1.356 . S
N1269 H1272 0.984 . S
N1269 H1273 0.985 . S
H1270 N1265 0.984 . S
H1271 N1265 0.985 . S
H1272 N1269 0.984 . S
H1273 N1269 0.985 . S
H1274 N1268 0.984 . S
H1275 N1268 0.984 . S
H1276 N1264 0.984 . S
H1277 N1264 0.985 . S
C1278 C1279 1.363 . S
C1278 C1284 1.379 . S
C1278 N1286 1.356 . S
C1279 C1278 1.363 . S
C1279 C1285 1.363 . S
C1280 C1281 1.363 1_545 S
C1280 C1285 1.379 . S
C1280 N1287 1.356 . S
C1281 C1280 1.363 1_565 S
C1281 C1284 1.363 1_565 S
N1282 C1284 1.356 1_565 S
N1282 H1294 0.984 . S
N1282 H1295 0.985 . S
N1283 C1285 1.356 . S
N1283 H1288 0.984 . S
N1283 H1289 0.985 . S
C1284 C1278 1.379 . S
C1284 C1281 1.363 1_545 S
C1284 N1282 1.356 1_545 S
C1285 C1279 1.363 . S
C1285 C1280 1.379 . S
C1285 N1283 1.356 . S
N1286 C1278 1.356 . S
N1286 H1292 0.984 . S
N1286 H1293 0.984 . S
N1287 C1280 1.356 . S
N1287 H1290 0.984 1_545 S
N1287 H1291 0.985 . S
H1288 N1283 0.984 . S
H1289 N1283 0.985 . S
H1290 N1287 0.984 1_565 S
H1291 N1287 0.985 . S
H1292 N1286 0.984 . S
H1293 N1286 0.984 . S
H1294 N1282 0.984 . S
H1295 N1282 0.985 . S
C1296 C1297 1.363 1_455 S
C1296 C1302 1.379 . S
C1296 N1304 1.356 . S
C1297 C1296 1.363 1_655 S
C1297 C1303 1.363 . S
C1298 C1299 1.363 1_655 S
C1298 C1303 1.379 . S
C1298 N1305 1.356 . S
C1299 C1298 1.363 1_455 S
C1299 C1302 1.363 . S
N1300 C1302 1.356 . S
N1300 H1312 0.984 . S
N1300 H1313 0.985 . S
N1301 C1303 1.356 . S
N1301 H1306 0.984 . S
N1301 H1307 0.985 . S
C1302 C1296 1.379 . S
C1302 C1299 1.363 . S
C1302 N1300 1.356 . S
C1303 C1297 1.363 . S
C1303 C1298 1.379 . S
C1303 N1301 1.356 . S
N1304 C1296 1.356 . S
N1304 H1310 0.984 . S
N1304 H1311 0.984 . S
N1305 C1298 1.356 . S
N1305 H1308 0.984 . S
N1305 H1309 0.985 . S
H1306 N1301 0.984 . S
H1307 N1301 0.985 . S
H1308 N1305 0.984 . S
H1309 N1305 0.985 . S
H1310 N1304 0.984 . S
H1311 N1304 0.984 . S
H1312 N1300 0.984 . S
H1313 N1300 0.985 . S
C1314 C1315 1.363 . S
C1314 C1320 1.379 . S
C1314 N1322 1.356 . S
C1315 C1314 1.363 . S
C1315 C1321 1.363 1_455 S
C1316 C1317 1.363 . S
C1316 C1321 1.379 . S
C1316 N1323 1.356 . S
C1317 C1316 1.363 . S
C1317 C1320 1.363 1_655 S
N1318 C1320 1.356 . S
N1318 H1330 0.984 . S
N1318 H1331 0.985 . S
N1319 C1321 1.356 . S
N1319 H1324 0.984 . S
N1319 H1325 0.985 . S
C1320 C1314 1.379 . S
C1320 C1317 1.363 1_455 S
C1320 N1318 1.356 . S
C1321 C1315 1.363 1_655 S
C1321 C1316 1.379 . S
C1321 N1319 1.356 . S
N1322 C1314 1.356 . S
N1322 H1328 0.984 . S
N1322 H1329 0.984 . S
N1323 C1316 1.356 . S
N1323 H1326 0.984 . S
N1323 H1327 0.985 . S
H1324 N1319 0.984 . S
H1325 N1319 0.985 . S
H1326 N1323 0.984 . S
H1327 N1323 0.985 . S
H1328 N1322 0.984 . S
H1329 N1322 0.984 . S
H1330 N1318 0.984 . S
H1331 N1318 0.985 . S
C1332 C1333 1.363 1_545 S
C1332 C1338 1.379 . S
C1332 N1340 1.356 . S
C1333 C1332 1.363 1_565 S
C1333 C1339 1.363 . S
C1334 C1335 1.363 1_565 S
C1334 C1339 1.379 . S
C1334 N1341 1.356 . S
C1335 C1334 1.363 1_545 S
C1335 C1338 1.363 . S
N1336 C1338 1.356 . S
N1336 H1348 0.984 . S
N1336 H1349 0.985 . S
N1337 C1339 1.356 . S
N1337 H1342 0.984 . S
N1337 H1343 0.985 . S
C1338 C1332 1.379 . S
C1338 C1335 1.363 . S
C1338 N1336 1.356 . S
C1339 C1333 1.363 . S
C1339 C1334 1.379 . S
C1339 N1337 1.356 . S
N1340 C1332 1.356 . S
N1340 H1346 0.984 . S
N1340 H1347 0.984 . S
N1341 C1334 1.356 . S
N1341 H1344 0.984 . S
N1341 H1345 0.985 . S
H1342 N1337 0.984 . S
H1343 N1337 0.985 . S
H1344 N1341 0.984 . S
H1345 N1341 0.985 . S
H1346 N1340 0.984 . S
H1347 N1340 0.984 . S
H1348 N1336 0.984 . S
H1349 N1336 0.985 . S
C1350 C1351 1.363 . S
C1350 C1356 1.379 . S
C1350 N1358 1.356 . S
C1351 C1350 1.363 . S
C1351 C1357 1.363 . S
C1352 C1353 1.363 . S
C1352 C1357 1.379 . S
C1352 N1359 1.356 . S
C1353 C1352 1.363 . S
C1353 C1356 1.363 . S
N1354 C1356 1.356 . S
N1354 H1366 0.984 . S
N1354 H1367 0.985 . S
N1355 C1357 1.356 . S
N1355 H1360 0.984 . S
N1355 H1361 0.985 . S
C1356 C1350 1.379 . S
C1356 C1353 1.363 . S
C1356 N1354 1.356 . S
C1357 C1351 1.363 . S
C1357 C1352 1.379 . S
C1357 N1355 1.356 . S
N1358 C1350 1.356 . S
N1358 H1364 0.984 . S
N1358 H1365 0.984 . S
N1359 C1352 1.356 . S
N1359 H1362 0.984 . S
N1359 H1363 0.985 . S
H1360 N1355 0.984 . S
H1361 N1355 0.985 . S
H1362 N1359 0.984 . S
H1363 N1359 0.985 . S
H1364 N1358 0.984 . S
H1365 N1358 0.984 . S
H1366 N1354 0.984 . S
H1367 N1354 0.985 . S
C1368 C1369 1.363 . S
C1368 C1374 1.379 . S
C1368 N1376 1.356 . S
C1369 C1368 1.363 . S
C1369 C1375 1.363 1_554 S
C1370 C1371 1.363 . S
C1370 C1375 1.379 . S
C1370 N1377 1.356 . S
C1371 C1370 1.363 . S
C1371 C1374 1.363 1_556 S
N1372 C1374 1.356 . S
N1372 H1384 0.984 . S
N1372 H1385 0.985 . S
N1373 C1375 1.356 . S
N1373 H1378 0.984 . S
N1373 H1379 0.985 . S
C1374 C1368 1.379 . S
C1374 C1371 1.363 1_554 S
C1374 N1372 1.356 . S
C1375 C1369 1.363 1_556 S
C1375 C1370 1.379 . S
C1375 N1373 1.356 . S
N1376 C1368 1.356 . S
N1376 H1382 0.984 . S
N1376 H1383 0.984 . S
N1377 C1370 1.356 . S
N1377 H1380 0.984 . S
N1377 H1381 0.985 . S
H1378 N1373 0.984 . S
H1379 N1373 0.985 . S
H1380 N1377 0.984 . S
H1381 N1377 0.985 . S
H1382 N1376 0.984 . S
H1383 N1376 0.984 . S
H1384 N1372 0.984 . S
H1385 N1372 0.985 . S
C1386 C1387 1.363 . S
C1386 C1392 1.379 . S
C1386 N1394 1.356 . S
C1387 C1386 1.363 . S
C1387 C1393 1.363 . S
C1388 C1389 1.363 . S
C1388 C1393 1.379 . S
C1388 N1395 1.356 . S
C1389 C1388 1.363 . S
C1389 C1392 1.363 . S
N1390 C1392 1.356 . S
N1390 H1402 0.984 . S
N1390 H1403 0.985 . S
N1391 C1393 1.356 . S
N1391 H1396 0.984 . S
N1391 H1397 0.985 . S
C1392 C1386 1.379 . S
C1392 C1389 1.363 . S
C1392 N1390 1.356 . S
C1393 C1387 1.363 . S
C1393 C1388 1.379 . S
C1393 N1391 1.356 . S
N1394 C1386 1.356 . S
N1394 H1400 0.984 . S
N1394 H1401 0.984 . S
N1395 C1388 1.356 . S
N1395 H1398 0.984 . S
N1395 H1399 0.985 . S
H1396 N1391 0.984 . S
H1397 N1391 0.985 . S
H1398 N1395 0.984 . S
H1399 N1395 0.985 . S
H1400 N1394 0.984 . S
H1401 N1394 0.984 . S
H1402 N1390 0.984 . S
H1403 N1390 0.985 . S
C1404 C1405 1.363 . S
C1404 C1410 1.379 . S
C1404 N1412 1.356 . S
C1405 C1404 1.363 . S
C1405 C1411 1.363 . S
C1406 C1407 1.363 . S
C1406 C1411 1.379 . S
C1406 N1413 1.356 . S
C1407 C1406 1.363 . S
C1407 C1410 1.363 . S
N1408 C1410 1.356 . S
N1408 H1420 0.984 . S
N1408 H1421 0.985 . S
N1409 C1411 1.356 . S
N1409 H1414 0.984 . S
N1409 H1415 0.985 . S
C1410 C1404 1.379 . S
C1410 C1407 1.363 . S
C1410 N1408 1.356 . S
C1411 C1405 1.363 . S
C1411 C1406 1.379 . S
C1411 N1409 1.356 . S
N1412 C1404 1.356 . S
N1412 H1418 0.984 . S
N1412 H1419 0.984 . S
N1413 C1406 1.356 . S
N1413 H1416 0.984 . S
N1413 H1417 0.985 . S
H1414 N1409 0.984 . S
H1415 N1409 0.985 . S
H1416 N1413 0.984 . S
H1417 N1413 0.985 . S
H1418 N1412 0.984 . S
H1419 N1412 0.984 . S
H1420 N1408 0.984 . S
H1421 N1408 0.985 . S
C1422 C1423 1.363 . S
C1422 C1428 1.379 . S
C1422 N1430 1.356 . S
C1423 C1422 1.363 . S
C1423 C1429 1.363 . S
C1424 C1425 1.363 . S
C1424 C1429 1.379 . S
C1424 N1431 1.356 . S
C1425 C1424 1.363 . S
C1425 C1428 1.363 . S
N1426 C1428 1.356 . S
N1426 H1438 0.984 . S
N1426 H1439 0.985 . S
N1427 C1429 1.356 . S
N1427 H1432 0.984 . S
N1427 H1433 0.985 . S
C1428 C1422 1.379 . S
C1428 C1425 1.363 . S
C1428 N1426 1.356 . S
C1429 C1423 1.363 . S
C1429 C1424 1.379 . S
C1429 N1427 1.356 . S
N1430 C1422 1.356 . S
N1430 H1436 0.984 . S
N1430 H1437 0.984 . S
N1431 C1424 1.356 . S
N1431 H1434 0.984 . S
N1431 H1435 0.985 . S
H1432 N1427 0.984 . S
H1433 N1427 0.985 . S
H1434 N1431 0.984 . S
H1435 N1431 0.985 . S
H1436 N1430 0.984 . S
H1437 N1430 0.984 . S
H1438 N1426 0.984 . S
H1439 N1426 0.985 . S
C1440 C1441 1.363 . S
C1440 C1446 1.379 . S
C1440 N1448 1.356 . S
C1441 C1440 1.363 . S
C1441 C1447 1.363 . S
C1442 C1443 1.363 . S
C1442 C1447 1.379 . S
C1442 N1449 1.356 . S
C1443 C1442 1.363 . S
C1443 C1446 1.363 . S
N1444 C1446 1.356 . S
N1444 H1456 0.984 . S
N1444 H1457 0.985 . S
N1445 C1447 1.356 . S
N1445 H1450 0.984 . S
N1445 H1451 0.985 . S
C1446 C1440 1.379 . S
C1446 C1443 1.363 . S
C1446 N1444 1.356 . S
C1447 C1441 1.363 . S
C1447 C1442 1.379 . S
C1447 N1445 1.356 . S
N1448 C1440 1.356 . S
N1448 H1454 0.984 . S
N1448 H1455 0.984 . S
N1449 C1442 1.356 . S
N1449 H1452 0.984 . S
N1449 H1453 0.985 . S
H1450 N1445 0.984 . S
H1451 N1445 0.985 . S
H1452 N1449 0.984 . S
H1453 N1449 0.985 . S
H1454 N1448 0.984 . S
H1455 N1448 0.984 . S
H1456 N1444 0.984 . S
H1457 N1444 0.985 . S
C1458 C1459 1.363 . S
C1458 C1464 1.379 . S
C1458 N1466 1.356 . S
C1459 C1458 1.363 . S
C1459 C1465 1.363 . S
C1460 C1461 1.363 . S
C1460 C1465 1.379 . S
C1460 N1467 1.356 . S
C1461 C1460 1.363 . S
C1461 C1464 1.363 . S
N1462 C1464 1.356 . S
N1462 H1474 0.984 . S
N1462 H1475 0.985 . S
N1463 C1465 1.356 . S
N1463 H1468 0.984 . S
N1463 H1469 0.985 . S
C1464 C1458 1.379 . S
C1464 C1461 1.363 . S
C1464 N1462 1.356 . S
C1465 C1459 1.363 . S
C1465 C1460 1.379 . S
C1465 N1463 1.356 . S
N1466 C1458 1.356 . S
N1466 H1472 0.984 . S
N1466 H1473 0.984 . S
N1467 C1460 1.356 . S
N1467 H1470 0.984 . S
N1467 H1471 0.985 . S
H1468 N1463 0.984 . S
H1469 N1463 0.985 . S
H1470 N1467 0.984 . S
H1471 N1467 0.985 . S
H1472 N1466 0.984 . S
H1473 N1466 0.984 . S
H1474 N1462 0.984 . S
H1475 N1462 0.985 . S
C1476 C1477 1.363 . S
C1476 C1482 1.379 . S
C1476 N1484 1.356 . S
C1477 C1476 1.363 . S
C1477 C1483 1.363 1_545 S
C1478 C1479 1.363 . S
C1478 C1483 1.379 . S
C1478 N1485 1.356 . S
C1479 C1478 1.363 . S
C1479 C1482 1.363 1_565 S
N1480 C1482 1.356 . S
N1480 H1492 0.984 . S
N1480 H1493 0.985 . S
N1481 C1483 1.356 . S
N1481 H1486 0.984 . S
N1481 H1487 0.985 . S
C1482 C1476 1.379 . S
C1482 C1479 1.363 1_545 S
C1482 N1480 1.356 . S
C1483 C1477 1.363 1_565 S
C1483 C1478 1.379 . S
C1483 N1481 1.356 . S
N1484 C1476 1.356 . S
N1484 H1490 0.984 . S
N1484 H1491 0.984 . S
N1485 C1478 1.356 . S
N1485 H1488 0.984 . S
N1485 H1489 0.985 . S
H1486 N1481 0.984 . S
H1487 N1481 0.985 . S
H1488 N1485 0.984 . S
H1489 N1485 0.985 . S
H1490 N1484 0.984 . S
H1491 N1484 0.984 . S
H1492 N1480 0.984 . S
H1493 N1480 0.985 . S
C1494 C1495 1.363 . S
C1494 C1500 1.379 . S
C1494 N1502 1.356 . S
C1495 C1494 1.363 . S
C1495 C1501 1.363 1_556 S
C1496 C1497 1.363 . S
C1496 C1501 1.379 . S
C1496 N1503 1.356 . S
C1497 C1496 1.363 . S
C1497 C1500 1.363 1_554 S
N1498 C1500 1.356 . S
N1498 H1510 0.984 . S
N1498 H1511 0.985 . S
N1499 C1501 1.356 . S
N1499 H1504 0.984 . S
N1499 H1505 0.985 . S
C1500 C1494 1.379 . S
C1500 C1497 1.363 1_556 S
C1500 N1498 1.356 . S
C1501 C1495 1.363 1_554 S
C1501 C1496 1.379 . S
C1501 N1499 1.356 . S
N1502 C1494 1.356 . S
N1502 H1508 0.984 . S
N1502 H1509 0.984 . S
N1503 C1496 1.356 . S
N1503 H1506 0.984 . S
N1503 H1507 0.985 . S
H1504 N1499 0.984 . S
H1505 N1499 0.985 . S
H1506 N1503 0.984 . S
H1507 N1503 0.985 . S
H1508 N1502 0.984 . S
H1509 N1502 0.984 . S
H1510 N1498 0.984 . S
H1511 N1498 0.985 . S
C1512 C1513 1.363 1_655 S
C1512 C1518 1.379 1_565 S
C1512 N1520 1.356 . S
C1513 C1512 1.363 1_455 S
C1513 C1519 1.363 . S
C1514 C1515 1.363 . S
C1514 C1519 1.379 1_545 S
C1514 N1521 1.356 . S
C1515 C1514 1.363 . S
C1515 C1518 1.363 1_455 S
N1516 C1518 1.356 . S
N1516 H1528 0.984 . S
N1516 H1529 0.985 . S
N1517 C1519 1.356 . S
N1517 H1522 0.984 . S
N1517 H1523 0.985 . S
C1518 C1512 1.379 1_545 S
C1518 C1515 1.363 1_655 S
C1518 N1516 1.356 . S
C1519 C1513 1.363 . S
C1519 C1514 1.379 1_565 S
C1519 N1517 1.356 . S
N1520 C1512 1.356 . S
N1520 H1526 0.984 . S
N1520 H1527 0.984 . S
N1521 C1514 1.356 . S
N1521 H1524 0.984 . S
N1521 H1525 0.985 . S
H1522 N1517 0.984 . S
H1523 N1517 0.985 . S
H1524 N1521 0.984 . S
H1525 N1521 0.985 . S
H1526 N1520 0.984 . S
H1527 N1520 0.984 . S
H1528 N1516 0.984 . S
H1529 N1516 0.985 . S
C1530 C1531 1.363 . S
C1530 C1536 1.379 . S
C1530 N1538 1.356 . S
C1531 C1530 1.363 . S
C1531 C1537 1.363 1_655 S
C1532 C1533 1.363 1_455 S
C1532 C1537 1.379 . S
C1532 N1539 1.356 . S
C1533 C1532 1.363 1_655 S
C1533 C1536 1.363 . S
N1534 C1536 1.356 . S
N1534 H1546 0.984 . S
N1534 H1547 0.985 . S
N1535 C1537 1.356 . S
N1535 H1540 0.984 . S
N1535 H1541 0.985 . S
C1536 C1530 1.379 . S
C1536 C1533 1.363 . S
C1536 N1534 1.356 . S
C1537 C1531 1.363 1_455 S
C1537 C1532 1.379 . S
C1537 N1535 1.356 . S
N1538 C1530 1.356 . S
N1538 H1544 0.984 . S
N1538 H1545 0.984 . S
N1539 C1532 1.356 . S
N1539 H1542 0.984 . S
N1539 H1543 0.985 . S
H1540 N1535 0.984 . S
H1541 N1535 0.985 . S
H1542 N1539 0.984 . S
H1543 N1539 0.985 . S
H1544 N1538 0.984 . S
H1545 N1538 0.984 . S
H1546 N1534 0.984 . S
H1547 N1534 0.985 . S
C1548 C1549 1.363 1_565 S
C1548 C1554 1.379 1_556 S
C1548 N1556 1.356 . S
C1549 C1548 1.363 1_545 S
C1549 C1555 1.363 . S
C1550 C1551 1.363 . S
C1550 C1555 1.379 1_554 S
C1550 N1557 1.356 . S
C1551 C1550 1.363 . S
C1551 C1554 1.363 1_545 S
N1552 C1554 1.356 . S
N1552 H1564 0.984 . S
N1552 H1565 0.985 . S
N1553 C1555 1.356 . S
N1553 H1558 0.984 . S
N1553 H1559 0.985 . S
C1554 C1548 1.379 1_554 S
C1554 C1551 1.363 1_565 S
C1554 N1552 1.356 . S
C1555 C1549 1.363 . S
C1555 C1550 1.379 1_556 S
C1555 N1553 1.356 . S
N1556 C1548 1.356 . S
N1556 H1562 0.984 . S
N1556 H1563 0.984 . S
N1557 C1550 1.356 . S
N1557 H1560 0.984 . S
N1557 H1561 0.985 . S
H1558 N1553 0.984 . S
H1559 N1553 0.985 . S
H1560 N1557 0.984 . S
H1561 N1557 0.985 . S
H1562 N1556 0.984 . S
H1563 N1556 0.984 . S
H1564 N1552 0.984 . S
H1565 N1552 0.985 . S
C1566 C1567 1.363 . S
C1566 C1572 1.379 1_554 S
C1566 N1574 1.356 . S
C1567 C1566 1.363 . S
C1567 C1573 1.363 . S
C1568 C1569 1.363 . S
C1568 C1573 1.379 1_556 S
C1568 N1575 1.356 . S
C1569 C1568 1.363 . S
C1569 C1572 1.363 . S
N1570 C1572 1.356 . S
N1570 H1582 0.984 . S
N1570 H1583 0.985 . S
N1571 C1573 1.356 . S
N1571 H1576 0.984 . S
N1571 H1577 0.985 . S
C1572 C1566 1.379 1_556 S
C1572 C1569 1.363 . S
C1572 N1570 1.356 . S
C1573 C1567 1.363 . S
C1573 C1568 1.379 1_554 S
C1573 N1571 1.356 . S
N1574 C1566 1.356 . S
N1574 H1580 0.984 . S
N1574 H1581 0.984 . S
N1575 C1568 1.356 . S
N1575 H1578 0.984 . S
N1575 H1579 0.985 . S
H1576 N1571 0.984 . S
H1577 N1571 0.985 . S
H1578 N1575 0.984 . S
H1579 N1575 0.985 . S
H1580 N1574 0.984 . S
H1581 N1574 0.984 . S
H1582 N1570 0.984 . S
H1583 N1570 0.985 . S
C1584 C1585 1.363 1_545 S
C1584 C1590 1.379 . S
C1584 N1592 1.356 . S
C1585 C1584 1.363 1_565 S
C1585 C1591 1.363 . S
C1586 C1587 1.363 . S
C1586 C1591 1.379 . S
C1586 N1593 1.356 . S
C1587 C1586 1.363 . S
C1587 C1590 1.363 1_565 S
N1588 C1590 1.356 . S
N1588 H1600 0.984 . S
N1588 H1601 0.985 . S
N1589 C1591 1.356 . S
N1589 H1594 0.984 . S
N1589 H1595 0.985 . S
C1590 C1584 1.379 . S
C1590 C1587 1.363 1_545 S
C1590 N1588 1.356 . S
C1591 C1585 1.363 . S
C1591 C1586 1.379 . S
C1591 N1589 1.356 . S
N1592 C1584 1.356 . S
N1592 H1598 0.984 . S
N1592 H1599 0.984 . S
N1593 C1586 1.356 . S
N1593 H1596 0.984 . S
N1593 H1597 0.985 . S
H1594 N1589 0.984 . S
H1595 N1589 0.985 . S
H1596 N1593 0.984 . S
H1597 N1593 0.985 . S
H1598 N1592 0.984 . S
H1599 N1592 0.984 . S
H1600 N1588 0.984 . S
H1601 N1588 0.985 . S
C1602 C1603 1.363 . S
C1602 C1608 1.379 . S
C1602 N1610 1.356 . S
C1603 C1602 1.363 . S
C1603 C1609 1.363 . S
C1604 C1605 1.363 . S
C1604 C1609 1.379 . S
C1604 N1611 1.356 . S
C1605 C1604 1.363 . S
C1605 C1608 1.363 . S
N1606 C1608 1.356 . S
N1606 H1618 0.984 . S
N1606 H1619 0.985 . S
N1607 C1609 1.356 . S
N1607 H1612 0.984 . S
N1607 H1613 0.985 . S
C1608 C1602 1.379 . S
C1608 C1605 1.363 . S
C1608 N1606 1.356 . S
C1609 C1603 1.363 . S
C1609 C1604 1.379 . S
C1609 N1607 1.356 . S
N1610 C1602 1.356 . S
N1610 H1616 0.984 . S
N1610 H1617 0.984 . S
N1611 C1604 1.356 . S
N1611 H1614 0.984 . S
N1611 H1615 0.985 . S
H1612 N1607 0.984 . S
H1613 N1607 0.985 . S
H1614 N1611 0.984 . S
H1615 N1611 0.985 . S
H1616 N1610 0.984 . S
H1617 N1610 0.984 . S
H1618 N1606 0.984 . S
H1619 N1606 0.985 . S
C1620 C1621 1.363 1_556 S
C1620 C1626 1.379 1_455 S
C1620 N1628 1.356 . S
C1621 C1620 1.363 1_554 S
C1621 C1627 1.363 . S
C1622 C1623 1.363 . S
C1622 C1627 1.379 1_655 S
C1622 N1629 1.356 . S
C1623 C1622 1.363 . S
C1623 C1626 1.363 1_554 S
N1624 C1626 1.356 . S
N1624 H1636 0.984 . S
N1624 H1637 0.985 . S
N1625 C1627 1.356 . S
N1625 H1630 0.984 . S
N1625 H1631 0.985 . S
C1626 C1620 1.379 1_655 S
C1626 C1623 1.363 1_556 S
C1626 N1624 1.356 . S
C1627 C1621 1.363 . S
C1627 C1622 1.379 1_455 S
C1627 N1625 1.356 . S
N1628 C1620 1.356 . S
N1628 H1634 0.984 . S
N1628 H1635 0.984 . S
N1629 C1622 1.356 . S
N1629 H1632 0.984 . S
N1629 H1633 0.985 . S
H1630 N1625 0.984 . S
H1631 N1625 0.985 . S
H1632 N1629 0.984 . S
H1633 N1629 0.985 . S
H1634 N1628 0.984 . S
H1635 N1628 0.984 . S
H1636 N1624 0.984 . S
H1637 N1624 0.985 . S
C1638 C1639 1.363 . S
C1638 C1644 1.379 1_455 S
C1638 N1646 1.356 . S
C1639 C1638 1.363 . S
C1639 C1645 1.363 . S
C1640 C1641 1.363 . S
C1640 C1645 1.379 1_655 S
C1640 N1647 1.356 . S
C1641 C1640 1.363 . S
C1641 C1644 1.363 . S
N1642 C1644 1.356 . S
N1642 H1654 0.984 . S
N1642 H1655 0.985 . S
N1643 C1645 1.356 . S
N1643 H1648 0.984 . S
N1643 H1649 0.985 . S
C1644 C1638 1.379 1_655 S
C1644 C1641 1.363 . S
C1644 N1642 1.356 . S
C1645 C1639 1.363 . S
C1645 C1640 1.379 1_455 S
C1645 N1643 1.356 . S
N1646 C1638 1.356 . S
N1646 H1652 0.984 . S
N1646 H1653 0.984 . S
N1647 C1640 1.356 . S
N1647 H1650 0.984 . S
N1647 H1651 0.985 . S
H1648 N1643 0.984 . S
H1649 N1643 0.985 . S
H1650 N1647 0.984 . S
H1651 N1647 0.985 . S
H1652 N1646 0.984 . S
H1653 N1646 0.984 . S
H1654 N1642 0.984 . S
H1655 N1642 0.985 . S
C1656 C1657 1.363 . S
C1656 C1662 1.379 . S
C1656 N1664 1.356 . S
C1657 C1656 1.363 . S
C1657 C1663 1.363 . S
C1658 C1659 1.363 . S
C1658 C1663 1.379 . S
C1658 N1665 1.356 . S
C1659 C1658 1.363 . S
C1659 C1662 1.363 . S
N1660 C1662 1.356 . S
N1660 H1672 0.984 . S
N1660 H1673 0.985 . S
N1661 C1663 1.356 . S
N1661 H1666 0.984 . S
N1661 H1667 0.985 . S
C1662 C1656 1.379 . S
C1662 C1659 1.363 . S
C1662 N1660 1.356 . S
C1663 C1657 1.363 . S
C1663 C1658 1.379 . S
C1663 N1661 1.356 . S
N1664 C1656 1.356 . S
N1664 H1670 0.984 . S
N1664 H1671 0.984 . S
N1665 C1658 1.356 . S
N1665 H1668 0.984 . S
N1665 H1669 0.985 . S
H1666 N1661 0.984 . S
H1667 N1661 0.985 . S
H1668 N1665 0.984 . S
H1669 N1665 0.985 . S
H1670 N1664 0.984 . S
H1671 N1664 0.984 . S
H1672 N1660 0.984 . S
H1673 N1660 0.985 . S
C1674 C1675 1.363 . S
C1674 C1680 1.379 . S
C1674 N1682 1.356 . S
C1675 C1674 1.363 . S
C1675 C1681 1.363 . S
C1676 C1677 1.363 . S
C1676 C1681 1.379 . S
C1676 N1683 1.356 . S
C1677 C1676 1.363 . S
C1677 C1680 1.363 . S
N1678 C1680 1.356 . S
N1678 H1690 0.984 . S
N1678 H1691 0.985 . S
N1679 C1681 1.356 . S
N1679 H1684 0.984 . S
N1679 H1685 0.985 . S
C1680 C1674 1.379 . S
C1680 C1677 1.363 . S
C1680 N1678 1.356 . S
C1681 C1675 1.363 . S
C1681 C1676 1.379 . S
C1681 N1679 1.356 . S
N1682 C1674 1.356 . S
N1682 H1688 0.984 . S
N1682 H1689 0.984 . S
N1683 C1676 1.356 . S
N1683 H1686 0.984 . S
N1683 H1687 0.985 . S
H1684 N1679 0.984 . S
H1685 N1679 0.985 . S
H1686 N1683 0.984 . S
H1687 N1683 0.985 . S
H1688 N1682 0.984 . S
H1689 N1682 0.984 . S
H1690 N1678 0.984 . S
H1691 N1678 0.985 . S
C1692 C1693 1.386 . S
C1692 C1698 1.358 1_565 S
C1692 N1700 1.363 . S
C1693 C1692 1.386 . S
C1693 C1699 1.363 . S
C1694 C1695 1.363 1_565 S
C1694 C1699 1.379 . S
C1694 N1701 1.356 1_565 S
C1695 C1694 1.363 1_545 S
C1695 C1698 1.363 . S
N1696 C1698 1.356 . S
N1696 H1708 0.984 . S
N1696 H1709 0.985 . S
N1697 C1699 1.356 . S
N1697 H1702 0.984 . S
N1697 H1703 0.985 . S
C1698 C1692 1.358 1_545 S
C1698 C1695 1.363 . S
C1698 N1696 1.356 . S
C1699 C1693 1.363 . S
C1699 C1694 1.379 . S
C1699 N1697 1.356 . S
N1700 C1692 1.363 . S
N1700 H1706 0.984 1_565 S
N1700 H1707 0.984 . S
N1701 C1694 1.356 1_545 S
N1701 H1704 0.984 . S
N1701 H1705 0.985 1_545 S
H1702 N1697 0.984 . S
H1703 N1697 0.985 . S
H1704 N1701 0.984 . S
H1705 N1701 0.985 1_565 S
H1706 N1700 0.984 1_545 S
H1707 N1700 0.984 . S
H1708 N1696 0.984 . S
H1709 N1696 0.985 . S
C1710 C1711 1.363 1_554 S
C1710 C1716 1.379 . S
C1710 N1718 1.356 . S
C1711 C1710 1.363 1_556 S
C1711 C1717 1.363 . S
C1712 C1713 1.363 . S
C1712 C1717 1.379 . S
C1712 N1719 1.356 . S
C1713 C1712 1.363 . S
C1713 C1716 1.363 1_556 S
N1714 C1716 1.356 . S
N1714 H1726 0.984 . S
N1714 H1727 0.985 . S
N1715 C1717 1.356 . S
N1715 H1720 0.984 . S
N1715 H1721 0.985 . S
C1716 C1710 1.379 . S
C1716 C1713 1.363 1_554 S
C1716 N1714 1.356 . S
C1717 C1711 1.363 . S
C1717 C1712 1.379 . S
C1717 N1715 1.356 . S
N1718 C1710 1.356 . S
N1718 H1724 0.984 . S
N1718 H1725 0.984 . S
N1719 C1712 1.356 . S
N1719 H1722 0.984 . S
N1719 H1723 0.985 . S
H1720 N1715 0.984 . S
H1721 N1715 0.985 . S
H1722 N1719 0.984 . S
H1723 N1719 0.985 . S
H1724 N1718 0.984 . S
H1725 N1718 0.984 . S
H1726 N1714 0.984 . S
H1727 N1714 0.985 . S
C865 C615 0.890 . S
C867 C2 0.874 . S
C883 C38 1.021 . S
C885 C579 1.001 . S
C901 C74 0.997 . S
C903 C687 1.018 . S
C919 C110 1.138 . S
C921 C651 1.113 . S
C937 C146 0.876 . S
C939 C759 0.890 . S
C955 C182 0.967 . S
C957 C795 0.976 . S
C973 C723 1.003 . S
C975 C218 1.018 . S
C991 C399 1.069 . S
C993 C254 1.099 . S
C1009 C290 0.876 . S
C1011 C111 0.890 . S
C1027 C39 0.975 . S
C1029 C326 0.968 . S
C1045 C362 1.096 . S
C1047 C3 1.113 . S
C1063 C398 1.099 . S
C1065 C507 1.069 . S
C1081 C183 1.186 . S
C1083 C434 1.223 . S
C1099 C147 1.112 . S
C1101 C470 1.097 . S
C1117 C506 1.099 . S
C1119 C255 1.069 . S
C1135 C542 0.967 . S
C1137 C219 0.976 . S
C1153 C327 1.186 . S
C1155 C578 1.223 . S
C1171 C363 1.114 . S
C1173 C614 1.135 . S
C1189 C291 1.112 . S
C1191 C650 1.097 . S
C1207 C686 0.997 . S
C1209 C831 1.018 . S
C1225 C543 1.186 . S
C1227 C722 1.223 . S
C1243 C758 1.138 . S
C1245 C471 1.113 . S
C1261 C435 1.003 . S
C1263 C794 1.018 . S
C1279 C830 0.997 . S
C1281 C75 1.018 . S
C1297 C4 1.676 . S
C1299 C40 1.663 . S
C1315 C112 1.595 . S
C1317 C76 1.608 . S
C1333 C148 1.676 . S
C1335 C220 1.663 . S
C1351 C184 1.856 . S
C1353 C256 1.836 . S
C1369 C796 1.662 . S
C1371 C292 1.676 . S
C1387 C328 1.856 . S
C1389 C400 1.836 . S
C1405 C724 1.790 . S
C1407 C364 1.809 . S
C1423 C472 1.809 . S
C1425 C436 1.790 . S
C1441 C508 1.836 . S
C1443 C544 1.856 . S
C1459 C652 1.809 . S
C1461 C580 1.790 . S
C1477 C616 1.595 . S
C1479 C688 1.608 . S
C1495 C832 1.607 . S
C1497 C760 1.595 . S
C1513 C86 1.405 . S
C1515 C14 1.398 . S
C1531 C50 1.586 . S
C1533 C122 1.591 . S
C1549 C698 1.405 . S
C1551 C158 1.398 . S
C1567 C194 1.507 . S
C1569 C662 1.516 . S
C1585 C230 1.586 . S
C1587 C626 1.591 . S
C1603 C590 1.701 . S
C1605 C266 1.694 . S
C1621 C302 1.398 . S
C1623 C842 1.405 . S
C1639 C338 1.507 . S
C1641 C374 1.516 . S
C1657 C734 1.701 . S
C1659 C410 1.694 . S
C1675 C446 1.701 . S
C1677 C518 1.694 . S
C1693 C482 1.516 . S
C1695 C554 1.507 . S
C1711 C806 1.586 . S
C1713 C770 1.591 . S
