# Generated by pormake.
# Topology mdf, (4)-cn, num edge types: 1
# Building blocks:
#     Node 0, Type 0, BuildingBlock: CEKHIL_clean_sbu_0, # of connection points: 4
#     Node 1, Type 0, BuildingBlock: CEKHIL_clean_sbu_0, # of connection points: 4
#     Node 2, Type 0, BuildingBlock: CEKHIL_clean_sbu_0, # of connection points: 4
#     Node 3, Type 0, BuildingBlock: CEKHIL_clean_sbu_0, # of connection points: 4
#     Node 4, Type 0, BuildingBlock: CEKHIL_clean_sbu_0, # of connection points: 4
#     Node 5, Type 0, BuildingBlock: CEKHIL_clean_sbu_0, # of connection points: 4
#     Node 6, Type 0, BuildingBlock: CEKHIL_clean_sbu_0, # of connection points: 4
#     Node 7, Type 0, BuildingBlock: CEKHIL_clean_sbu_0, # of connection points: 4
#     Edge 8, Type (0, 0), BuildingBlock: FUNLAD_clean_linker_1, # of connection points: 2
#     Edge 9, Type (0, 0), BuildingBlock: FUNLAD_clean_linker_1, # of connection points: 2
#     Edge 10, Type (0, 0), BuildingBlock: FUNLAD_clean_linker_1, # of connection points: 2
#     Edge 11, Type (0, 0), BuildingBlock: FUNLAD_clean_linker_1, # of connection points: 2
#     Edge 12, Type (0, 0), BuildingBlock: FUNLAD_clean_linker_1, # of connection points: 2
#     Edge 13, Type (0, 0), BuildingBlock: FUNLAD_clean_linker_1, # of connection points: 2
#     Edge 14, Type (0, 0), BuildingBlock: FUNLAD_clean_linker_1, # of connection points: 2
#     Edge 15, Type (0, 0), BuildingBlock: FUNLAD_clean_linker_1, # of connection points: 2
#     Edge 16, Type (0, 0), BuildingBlock: FUNLAD_clean_linker_1, # of connection points: 2
#     Edge 17, Type (0, 0), BuildingBlock: FUNLAD_clean_linker_1, # of connection points: 2
#     Edge 18, Type (0, 0), BuildingBlock: FUNLAD_clean_linker_1, # of connection points: 2
#     Edge 19, Type (0, 0), BuildingBlock: FUNLAD_clean_linker_1, # of connection points: 2
#     Edge 20, Type (0, 0), BuildingBlock: FUNLAD_clean_linker_1, # of connection points: 2
#     Edge 21, Type (0, 0), BuildingBlock: FUNLAD_clean_linker_1, # of connection points: 2
#     Edge 22, Type (0, 0), BuildingBlock: FUNLAD_clean_linker_1, # of connection points: 2
#     Edge 23, Type (0, 0), BuildingBlock: FUNLAD_clean_linker_1, # of connection points: 2
# Relax obj value: 0.019
# Max RMSD: 0.044
# Mean RMSD: 0.044
data_MOF--net-mdf--node1-CEKHIL_clean_sbu_0--edge1-FUNLAD_clean_linker_1
_symmetry_space_group_name_H-M    P1
_symmetry_Int_Tables_number       1
_symmetry_cell_setting            triclinic
loop_
_symmetry_equiv_pos_as_xyz
'x, y, z'
_cell_length_a     39.51374
_cell_length_b     39.513017
_cell_length_c     11.841126
_cell_angle_alpha  90.002404
_cell_angle_beta   90.004838
_cell_angle_gamma 92.617155
loop_
_atom_site_label
_atom_site_type_symbol
_atom_site_fract_x
_atom_site_fract_y
_atom_site_fract_z
_atom_type_partial_charge
Co0 Co 0.25707 0.54343 0.39252 0.0
O1 O 0.2214 0.57466 0.37338 0.0
O2 O 0.23294 0.54953 0.53464 0.0
C3 C 0.2972 0.57583 0.30266 0.0
O4 O 0.29308 0.51054 0.44415 0.0
Co5 Co 0.29025 0.51129 0.18305 0.0
O6 O 0.3235 0.49518 0.29318 0.0
C7 C 0.22324 0.48456 0.26086 0.0
C8 C 0.21466 0.57064 0.47959 0.0
C9 C 0.31801 0.49523 0.39921 0.0
O10 O 0.22477 0.50447 0.34716 0.0
O11 O 0.24591 0.48451 0.1838 0.0
O12 O 0.29053 0.58105 0.40833 0.0
O13 O 0.27786 0.55327 0.2525 0.0
Co14 Co 0.46619 0.74714 0.58481 0.0
O15 O 0.43288 0.78117 0.59399 0.0
O16 O 0.45817 0.76628 0.43611 0.0
C17 C 0.43703 0.7083 0.69044 0.0
O18 O 0.5007 0.71198 0.54226 0.0
Co19 Co 0.50245 0.72301 0.8003 0.0
O20 O 0.51874 0.68687 0.70045 0.0
C21 C 0.52219 0.78956 0.70244 0.0
C22 C 0.43625 0.78488 0.48585 0.0
C23 C 0.51732 0.6891 0.59317 0.0
O24 O 0.50349 0.78265 0.61571 0.0
O25 O 0.52332 0.77026 0.78914 0.0
O26 O 0.4304 0.71144 0.58369 0.0
O27 O 0.45887 0.73028 0.73174 0.0
Co28 Co 0.25309 0.96598 0.87271 0.0
O29 O 0.28428 0.9305 0.84839 0.0
O30 O 0.27556 0.9548 0.01342 0.0
C31 C 0.20949 0.94089 0.77656 0.0
O32 O 0.22164 1.00228 0.93103 0.0
Co33 Co 0.22649 0.00695 0.67162 0.0
O34 O 0.19431 0.02428 0.78336 0.0
C35 C 0.29613 0.02126 0.75174 0.0
C36 C 0.29127 0.93239 0.95513 0.0
C37 C 0.1989 0.02116 0.88929 0.0
O38 O 0.2904 1.00102 0.83545 0.0
O39 O 0.27461 0.02572 0.67289 0.0
O40 O 0.21528 0.93264 0.88063 0.0
O41 O 0.23173 0.96166 0.73077 0.0
Co42 Co 0.03973 0.7608 0.09489 0.0
O43 O 0.0755 0.72935 0.10448 0.0
O44 O 0.04559 0.73788 0.95025 0.0
C45 C 0.06885 0.80392 0.1813 0.0
O46 O 1.00157 0.79246 0.05406 0.0
Co47 Co 0.00742 0.78821 0.3125 0.0
O48 O 0.99098 0.82337 0.20868 0.0
C49 C 0.98782 0.71914 0.23468 0.0
C50 C 0.06976 0.72203 0.99953 0.0
C51 C 0.9879 0.81766 0.10318 0.0
O52 O 0.00567 0.72417 0.1449 0.0
O53 O 0.98662 0.74072 0.31522 0.0
O54 O 0.07282 0.7985 0.0741 0.0
O55 O 0.04971 0.7818 0.23436 0.0
Co56 Co 0.75702 0.03886 0.89735 0.0
O57 O 0.7215 0.06977 0.92967 0.0
O58 O 0.75059 0.04337 0.05937 0.0
C59 C 0.78388 0.07165 0.76551 0.0
O60 O 0.79627 0.00634 0.89756 0.0
Co61 Co 0.76569 0.00752 0.65841 0.0
O62 O 0.81085 0.99594 0.71738 0.0
C63 C 0.70954 0.98269 0.80629 0.0
C64 C 0.72719 0.06438 0.03596 0.0
C65 C 0.81634 0.99422 0.82314 0.0
O66 O 0.72244 0.9995 0.89036 0.0
O67 O 0.72138 0.98483 0.70564 0.0
O68 O 0.78958 0.07723 0.87222 0.0
O69 O 0.76062 0.04877 0.74297 0.0
Co70 Co 0.97307 0.25342 0.12662 0.0
O71 O 0.93874 0.28652 0.10535 0.0
O72 O 0.96816 0.26382 0.96808 0.0
C73 C 0.94314 0.22039 0.2503 0.0
O74 O 0.00881 0.21758 0.11005 0.0
Co75 Co 0.00778 0.23938 0.35521 0.0
O76 O 0.02654 0.19967 0.27913 0.0
C77 C 0.0276 0.30143 0.22747 0.0
C78 C 0.94505 0.28435 0.99788 0.0
C79 C 0.02581 0.19753 0.17187 0.0
O80 O 0.00899 0.29127 0.14372 0.0
O81 O 0.02903 0.28539 0.32121 0.0
O82 O 0.93766 0.21735 0.14233 0.0
O83 O 0.96457 0.24434 0.28009 0.0
Co84 Co 0.7555 0.46618 0.4002 0.0
O85 O 0.79143 0.43504 0.42397 0.0
O86 O 0.76209 0.4585 0.55992 0.0
C87 C 0.72817 0.4362 0.26234 0.0
O88 O 0.71623 0.49809 0.41218 0.0
Co89 Co 0.74486 0.50333 0.17277 0.0
O90 O 0.70282 0.51939 0.24271 0.0
C91 C 0.80186 0.52503 0.32174 0.0
C92 C 0.78568 0.43833 0.5314 0.0
C93 C 0.69744 0.51579 0.34823 0.0
O94 O 0.7898 0.50587 0.4015 0.0
O95 O 0.78933 0.52525 0.22196 0.0
O96 O 0.72324 0.42824 0.3678 0.0
O97 O 0.75104 0.45983 0.24344 0.0
Co98 Co 0.53946 0.25484 0.61767 0.0
O99 O 0.57039 0.2182 0.60126 0.0
O100 O 0.54465 0.2429 0.45994 0.0
C101 C 0.5721 0.28569 0.74072 0.0
O102 O 0.50755 0.29418 0.59686 0.0
Co103 Co 0.50667 0.27484 0.84558 0.0
O104 O 0.49231 0.31554 0.76438 0.0
C105 C 0.47856 0.21531 0.71778 0.0
C106 C 0.5657 0.22062 0.493 0.0
C107 C 0.49276 0.31645 0.6569 0.0
O108 O 0.49949 0.22102 0.63551 0.0
O109 O 0.47846 0.23293 0.80839 0.0
O110 O 0.57822 0.28747 0.63294 0.0
O111 O 0.54837 0.26416 0.77081 0.0
H112 H 0.39934 0.66643 0.72032 0.0
C113 C 0.41849 0.6829 0.76083 0.0
H114 H 0.44106 0.69841 0.91511 0.0
H115 H 0.30635 0.65617 0.1826 0.0
H116 H 0.3071 0.71721 0.19583 0.0
H117 H 0.35056 0.75269 0.09618 0.0
H118 H 0.39316 0.72712 0.98122 0.0
C119 C 0.4229 0.68116 0.87316 0.0
C120 C 0.39978 0.65929 0.94435 0.0
C121 C 0.37596 0.67457 0.01544 0.0
C122 C 0.35159 0.65405 0.07596 0.0
C123 C 0.32651 0.67023 0.13923 0.0
C124 C 0.32641 0.7054 0.14669 0.0
C125 C 0.3508 0.72536 0.09039 0.0
C126 C 0.37517 0.7103 0.02478 0.0
H127 H 0.34129 0.61206 0.29316 0.0
C128 C 0.32413 0.5958 0.24332 0.0
H129 H 0.30944 0.57976 0.0799 0.0
H130 H 0.44418 0.62199 0.82484 0.0
H131 H 0.44437 0.56069 0.81397 0.0
H132 H 0.40264 0.52499 0.9204 0.0
H133 H 0.3605 0.55033 0.03842 0.0
C134 C 0.32632 0.59623 0.13007 0.0
C135 C 0.35208 0.61815 0.06913 0.0
C136 C 0.3765 0.60292 1.00012 0.0
C137 C 0.40043 0.6235 0.93799 0.0
C138 C 0.42494 0.60758 0.87168 0.0
C139 C 0.42549 0.57241 0.8653 0.0
C140 C 0.40201 0.55231 0.92529 0.0
C141 C 0.37786 0.56722 0.99242 0.0
H142 H 0.39742 0.82289 0.47533 0.0
C143 C 0.4148 0.80857 0.42498 0.0
H144 H 0.43215 0.79874 0.25991 0.0
H145 H 0.27938 0.85849 0.17183 0.0
H146 H 0.25812 0.80541 0.2547 0.0
H147 H 0.29725 0.76541 0.33715 0.0
H148 H 0.35786 0.77781 0.33629 0.0
C149 C 0.41458 0.81218 0.31213 0.0
C150 C 0.39082 0.83548 0.25657 0.0
C151 C 0.35537 0.82769 0.25664 0.0
C152 C 0.33271 0.85088 0.20922 0.0
C153 C 0.29757 0.84214 0.20896 0.0
C154 C 0.28506 0.81169 0.25544 0.0
C155 C 0.3071 0.78912 0.30181 0.0
C156 C 0.34186 0.79674 0.30178 0.0
H157 H 0.33003 0.89408 0.94713 0.0
C158 C 0.31607 0.90969 0.00482 0.0
H159 H 0.30657 0.92086 0.17596 0.0
H160 H 0.45715 0.85727 0.23586 0.0
H161 H 0.47837 0.91003 0.15154 0.0
H162 H 0.43913 0.95056 0.07187 0.0
H163 H 0.37836 0.93863 0.07618 0.0
C164 C 0.32132 0.90669 0.11641 0.0
C165 C 0.34539 0.88187 0.16168 0.0
C166 C 0.38088 0.88922 0.15873 0.0
C167 C 0.40358 0.8659 0.20534 0.0
C168 C 0.43883 0.87403 0.20161 0.0
C169 C 0.45135 0.90423 0.15347 0.0
C170 C 0.42924 0.92705 0.10866 0.0
C171 C 0.39441 0.91984 0.11137 0.0
H172 H 0.0978 0.85299 0.18728 0.0
C173 C 0.08664 0.83265 0.23886 0.0
H174 H 0.0808 0.8123 0.40256 0.0
H175 H 0.21764 0.91682 0.4534 0.0
H176 H 0.24246 0.88517 0.30302 0.0
H177 H 0.20922 0.83988 0.20359 0.0
H178 H 0.15105 0.82638 0.25436 0.0
C179 C 0.09203 0.83262 0.351 0.0
C180 C 0.11274 0.85994 0.40957 0.0
C181 C 0.14751 0.86633 0.38208 0.0
C182 C 0.16711 0.8916 0.44194 0.0
C183 C 0.20152 0.89788 0.41148 0.0
C184 C 0.21624 0.87972 0.32529 0.0
C185 C 0.19752 0.85432 0.26941 0.0
C186 C 0.16378 0.84724 0.29827 0.0
H187 H 0.16844 0.90213 0.7506 0.0
C188 C 0.18188 0.92373 0.71163 0.0
H189 H 0.18865 0.9532 0.5644 0.0
H190 H 0.04674 0.85531 0.4811 0.0
H191 H 0.02197 0.88769 0.63147 0.0
H192 H 0.05635 0.93086 0.73635 0.0
H193 H 0.11579 0.94183 0.69163 0.0
C194 C 0.17482 0.93204 0.60444 0.0
C195 C 0.15259 0.90922 0.53295 0.0
C196 C 0.11778 0.90337 0.55899 0.0
C197 C 0.09789 0.87866 0.49759 0.0
C198 C 0.06316 0.87348 0.5255 0.0
C199 C 0.04855 0.89202 0.61133 0.0
C200 C 0.06791 0.9163 0.67047 0.0
C201 C 0.10207 0.92214 0.64459 0.0
H202 H 0.10992 0.68537 0.9935 0.0
C203 C 0.09066 0.69691 0.94257 0.0
H204 H 0.06972 0.7003 0.77922 0.0
H205 H 0.20792 0.65448 0.55862 0.0
H206 H 0.20791 0.71338 0.50308 0.0
H207 H 0.16387 0.75046 0.57227 0.0
H208 H 0.11983 0.72888 0.69899 0.0
C209 C 0.08785 0.68819 0.83309 0.0
C210 C 0.11193 0.66435 0.78109 0.0
C211 C 0.1368 0.67686 0.70336 0.0
C212 C 0.16159 0.65507 0.66029 0.0
C213 C 0.18747 0.66919 0.58947 0.0
C214 C 0.18803 0.70316 0.55787 0.0
C215 C 0.16329 0.72407 0.59707 0.0
C216 C 0.13809 0.7113 0.6696 0.0
H217 H 0.17085 0.60303 0.47564 0.0
C218 C 0.18797 0.59054 0.5323 0.0
H219 H 0.2029 0.58449 0.70182 0.0
H220 H 0.06629 0.63121 0.92059 0.0
H221 H 0.06578 0.57204 0.97505 0.0
H222 H 0.10841 0.53426 0.9001 0.0
H223 H 0.15177 0.55536 0.76991 0.0
C224 C 0.18603 0.59675 0.6438 0.0
C225 C 0.16068 0.62021 0.69105 0.0
C226 C 0.1356 0.60767 0.76813 0.0
C227 C 0.11117 0.62962 0.81255 0.0
C228 C 0.08595 0.61598 0.88667 0.0
C229 C 0.08521 0.58197 0.918 0.0
C230 C 0.10918 0.56069 0.87569 0.0
C231 C 0.13402 0.57318 0.80121 0.0
H232 H 0.79606 0.08223 0.58736 0.0
C233 C 0.80313 0.08882 0.67362 0.0
H234 H 0.8362 0.11896 0.77667 0.0
H235 H 0.93528 0.1269 0.3386 0.0
H236 H 0.95643 0.07585 0.42216 0.0
H237 H 0.92755 0.04863 0.58554 0.0
H238 H 0.87733 0.07229 0.66657 0.0
C239 C 0.82844 0.11198 0.69148 0.0
C240 C 0.84627 0.12877 0.59418 0.0
C241 C 0.87587 0.11497 0.54904 0.0
C242 C 0.89267 0.13081 0.45526 0.0
C243 C 0.92184 0.11614 0.4107 0.0
C244 C 0.93416 0.08679 0.45759 0.0
C245 C 0.91788 0.07145 0.54954 0.0
C246 C 0.88909 0.08527 0.59519 0.0
H247 H 0.93485 0.20107 0.42282 0.0
C248 C 0.92589 0.19878 0.33621 0.0
H249 H 0.88804 0.17714 0.22888 0.0
H250 H 0.79003 0.16155 0.65957 0.0
H251 H 0.76734 0.21099 0.5704 0.0
H252 H 0.79552 0.23749 0.40469 0.0
H253 H 0.8472 0.2154 0.329 0.0
C254 C 0.89854 0.1785 0.31365 0.0
C255 C 0.87989 0.16049 0.40701 0.0
C256 C 0.8497 0.17369 0.45004 0.0
C257 C 0.83309 0.15804 0.54446 0.0
C258 C 0.80341 0.1722 0.58719 0.0
C259 C 0.79015 0.20059 0.53694 0.0
C260 C 0.80607 0.21556 0.44377 0.0
C261 C 0.83567 0.20258 0.40105 0.0
H262 H 0.93775 0.30515 0.82706 0.0
C263 C 0.92741 0.30439 0.91212 0.0
H264 H 0.88875 0.32029 0.01971 0.0
H265 H 0.85237 0.44965 0.74039 0.0
H266 H 0.87367 0.4742 0.915 0.0
H267 H 0.89896 0.43863 0.06069 0.0
H268 H 0.90342 0.37836 0.03196 0.0
C269 C 0.89897 0.32071 0.93449 0.0
C270 C 0.8819 0.3416 0.84726 0.0
C271 C 0.87864 0.37681 0.8662 0.0
C272 C 0.86316 0.39725 0.78321 0.0
C273 C 0.86226 0.43261 0.80226 0.0
C274 C 0.87482 0.44716 0.90177 0.0
C275 C 0.88912 0.42715 0.98368 0.0
C276 C 0.89136 0.39248 0.96619 0.0
H277 H 0.79415 0.41909 0.70372 0.0
C278 C 0.80416 0.41947 0.61822 0.0
H279 H 0.84242 0.4033 0.50965 0.0
H280 H 0.87963 0.2743 0.78852 0.0
H281 H 0.85943 0.24998 0.61219 0.0
H282 H 0.83485 0.28581 0.46556 0.0
H283 H 0.82936 0.34575 0.49594 0.0
C284 C 0.83259 0.40317 0.59537 0.0
C285 C 0.84992 0.38235 0.68224 0.0
C286 C 0.85345 0.34719 0.66288 0.0
C287 C 0.86881 0.32672 0.74602 0.0
C288 C 0.8699 0.29139 0.72651 0.0
C289 C 0.85796 0.27696 0.62601 0.0
C290 C 0.84398 0.29706 0.54373 0.0
C291 C 0.84124 0.33162 0.56206 0.0
H292 H 0.71307 0.43031 0.08399 0.0
C293 C 0.70878 0.42019 0.16842 0.0
H294 H 0.68334 0.38207 0.26564 0.0
H295 H 0.58036 0.37773 0.82948 0.0
H296 H 0.55788 0.42761 0.91651 0.0
H297 H 0.58616 0.45463 0.08138 0.0
H298 H 0.6372 0.43202 0.16003 0.0
C299 C 0.6872 0.3933 0.18263 0.0
C300 C 0.66976 0.37682 0.08397 0.0
C301 C 0.63982 0.39017 0.03958 0.0
C302 C 0.6232 0.37426 0.94554 0.0
C303 C 0.59363 0.38844 0.90198 0.0
C304 C 0.58055 0.41714 0.95084 0.0
C305 C 0.5965 0.43239 0.04357 0.0
C306 C 0.6258 0.41919 0.08777 0.0
H307 H 0.58047 0.30577 0.91209 0.0
C308 C 0.58992 0.30715 0.82588 0.0
H309 H 0.62875 0.32711 0.71919 0.0
H310 H 0.72659 0.34483 0.14816 0.0
H311 H 0.74911 0.29498 0.06102 0.0
H312 H 0.72053 0.26765 0.89735 0.0
H313 H 0.66907 0.28972 0.8204 0.0
C314 C 0.61783 0.3266 0.80342 0.0
C315 C 0.63637 0.34484 0.89666 0.0
C316 C 0.66661 0.33183 0.93999 0.0
C317 C 0.68317 0.34767 0.0342 0.0
C318 C 0.71305 0.33382 0.07666 0.0
C319 C 0.72625 0.30524 0.02744 0.0
C320 C 0.71014 0.28983 0.93534 0.0
C321 C 0.68062 0.30277 0.89197 0.0
H322 H 0.71515 0.07685 0.21374 0.0
C323 C 0.70836 0.08162 0.12644 0.0
H324 H 0.67753 0.10862 0.01621 0.0
H325 H 0.58908 0.11939 0.49228 0.0
H326 H 0.58292 0.05809 0.48617 0.0
H327 H 0.6135 0.02554 0.34425 0.0
H328 H 0.65067 0.05397 0.20835 0.0
C329 C 0.68359 0.10304 0.10357 0.0
C330 C 0.66562 0.12224 0.19331 0.0
C331 C 0.64353 0.10525 0.27167 0.0
C332 C 0.6253 0.12415 0.35249 0.0
C333 C 0.60355 0.1064 0.42944 0.0
C334 C 0.59967 0.0712 0.42664 0.0
C335 C 0.61692 0.05287 0.34682 0.0
C336 C 0.63843 0.06955 0.26968 0.0
H337 H 0.57807 0.20314 0.32095 0.0
C338 C 0.58419 0.20021 0.40979 0.0
H339 H 0.61496 0.17601 0.52794 0.0
H340 H 0.70619 0.16295 0.05834 0.0
H341 H 0.71277 0.22412 0.06574 0.0
H342 H 0.68149 0.25678 0.20559 0.0
H343 H 0.64355 0.22837 0.33946 0.0
C344 C 0.60906 0.17964 0.43926 0.0
C345 C 0.62839 0.16011 0.35371 0.0
C346 C 0.65079 0.17708 0.27623 0.0
C347 C 0.66915 0.15818 0.19583 0.0
C348 C 0.6914 0.17593 0.12032 0.0
C349 C 0.69553 0.2111 0.12385 0.0
C350 C 0.67793 0.22946 0.20267 0.0
C351 C 0.65598 0.21279 0.27855 0.0
H352 H 0.33825 0.47748 0.56344 0.0
C353 C 0.34067 0.47558 0.47229 0.0
H354 H 0.36578 0.45304 0.33602 0.0
H355 H 0.4986 0.40687 0.55551 0.0
H356 H 0.51972 0.45331 0.43738 0.0
H357 H 0.48034 0.49122 0.34482 0.0
H358 H 0.41971 0.48336 0.371 0.0
C359 C 0.36314 0.45453 0.42722 0.0
C360 C 0.38655 0.43362 0.49469 0.0
C361 C 0.42211 0.43846 0.47888 0.0
C362 C 0.44488 0.41627 0.53132 0.0
C363 C 0.48017 0.42239 0.51575 0.0
C364 C 0.49267 0.4491 0.44868 0.0
C365 C 0.47051 0.47049 0.39669 0.0
C366 C 0.43569 0.46551 0.41183 0.0
H367 H 0.47259 0.34256 0.50682 0.0
C368 C 0.4735 0.34282 0.59855 0.0
H369 H 0.45549 0.36523 0.74765 0.0
H370 H 0.31995 0.41483 0.53697 0.0
H371 H 0.29913 0.369 0.65691 0.0
H372 H 0.33862 0.33192 0.75272 0.0
H373 H 0.39924 0.34026 0.72778 0.0
C374 C 0.45563 0.36558 0.65589 0.0
C375 C 0.43216 0.38899 0.59919 0.0
C376 C 0.39668 0.38457 0.61718 0.0
C377 C 0.37385 0.40653 0.5638 0.0
C378 C 0.33857 0.39996 0.57831 0.0
C379 C 0.32618 0.37346 0.6464 0.0
C380 C 0.34841 0.35256 0.70022 0.0
C381 C 0.38321 0.35776 0.68552 0.0
H382 H 0.67689 0.94873 0.91315 0.0
C383 C 0.68094 0.95805 0.82764 0.0
H384 H 0.66542 0.95532 0.65754 0.0
H385 H 0.60849 0.80559 0.64639 0.0
H386 H 0.65715 0.80382 0.5229 0.0
H387 H 0.69735 0.85314 0.50549 0.0
H388 H 0.68917 0.9044 0.61171 0.0
C389 C 0.66118 0.94588 0.74284 0.0
C390 C 0.63674 0.91625 0.75664 0.0
C391 C 0.64179 0.88639 0.69313 0.0
C392 C 0.61848 0.85801 0.7024 0.0
C393 C 0.6248 0.82824 0.64052 0.0
C394 C 0.65284 0.82675 0.5698 0.0
C395 C 0.67547 0.8545 0.56005 0.0
C396 C 0.67029 0.88391 0.62124 0.0
H397 H 0.54503 0.83554 0.62139 0.0
C398 C 0.54457 0.82058 0.6985 0.0
H399 H 0.56475 0.81586 0.86308 0.0
H400 H 0.61733 0.97047 0.88208 0.0
H401 H 0.56909 0.9717 0.00797 0.0
H402 H 0.53 0.92166 0.02935 0.0
H403 H 0.53874 0.87013 0.92391 0.0
C404 C 0.56539 0.82989 0.78415 0.0
C405 C 0.58991 0.85955 0.77444 0.0
C406 C 0.58506 0.88914 0.8391 0.0
C407 C 0.60816 0.91774 0.82892 0.0
C408 C 0.60148 0.94757 0.88974 0.0
C409 C 0.57365 0.94874 0.96162 0.0
C410 C 0.5516 0.92058 0.97354 0.0
C411 C 0.55698 0.89113 0.91272 0.0
H412 H 0.0465 0.17142 0.02319 0.0
C413 C 0.04634 0.17197 0.11497 0.0
H414 H 0.06618 0.15125 0.26417 0.0
H415 H 0.0986 0.03395 0.87697 0.0
H416 H 0.03766 0.02534 0.86037 0.0
H417 H 0.99922 0.06214 0.9624 0.0
H418 H 0.02146 0.10794 0.08092 0.0
C419 C 0.06536 0.15027 0.17251 0.0
C420 C 0.08831 0.12662 0.11448 0.0
C421 C 0.07492 0.09955 0.0468 0.0
C422 C 0.09716 0.07799 0.98912 0.0
C423 C 0.08297 0.05128 0.92184 0.0
C424 C 0.04801 0.04591 0.91203 0.0
C425 C 0.02637 0.06665 0.96941 0.0
C426 C 0.03951 0.09305 0.03654 0.0
H427 H 0.18006 0.03715 0.05734 0.0
C428 C 0.17751 0.04073 0.9668 0.0
H429 H 0.15241 0.06609 0.83641 0.0
H430 H 0.1225 0.17439 0.24362 0.0
H431 H 0.18336 0.18243 0.26282 0.0
H432 H 0.22185 0.14593 0.15993 0.0
H433 H 0.19977 0.10099 0.03821 0.0
C434 C 0.15553 0.0631 0.92699 0.0
C435 C 0.13283 0.08306 1.00013 0.0
C436 C 0.14622 0.10945 0.0708 0.0
C437 C 0.12394 0.13096 0.12883 0.0
C438 C 0.1381 0.15723 0.19799 0.0
C439 C 0.17304 0.16224 0.20949 0.0
C440 C 0.1947 0.14167 0.15164 0.0
C441 C 0.18163 0.11574 0.08245 0.0
H442 H 0.96769 0.66963 0.17138 0.0
C443 C 0.96642 0.68748 0.24101 0.0
H444 H 0.94108 0.69933 0.39238 0.0
H445 H 0.80932 0.61663 0.21266 0.0
H446 H 0.79488 0.67366 0.16267 0.0
H447 H 0.8367 0.72156 0.18274 0.0
H448 H 0.89323 0.7127 0.2533 0.0
C449 C 0.94383 0.68125 0.32425 0.0
C450 C 0.91856 0.65222 0.31641 0.0
C451 C 0.88557 0.65782 0.27576 0.0
C452 C 0.86161 0.63013 0.26303 0.0
C453 C 0.82877 0.63659 0.22241 0.0
C454 C 0.82006 0.66926 0.1938 0.0
C455 C 0.84359 0.69622 0.20521 0.0
C456 C 0.87596 0.69075 0.24581 0.0
H457 H 0.83777 0.5532 0.43561 0.0
C458 C 0.83042 0.54938 0.34792 0.0
H459 H 0.83836 0.56463 0.17882 0.0
H460 H 0.97866 0.63339 0.40498 0.0
H461 H 0.99366 0.5762 0.45317 0.0
H462 H 0.9529 0.52777 0.42485 0.0
H463 H 0.89683 0.53615 0.34943 0.0
C464 C 0.84614 0.56793 0.26633 0.0
C465 C 0.87064 0.59679 0.29093 0.0
C466 C 0.9035 0.59126 0.33363 0.0
C467 C 0.92737 0.6191 0.34736 0.0
C468 C 0.95982 0.61305 0.39146 0.0
C469 C 0.96872 0.58039 0.41953 0.0
C470 C 0.94574 0.55312 0.40378 0.0
C471 C 0.91354 0.55831 0.36092 0.0
H472 H 0.35002 0.03074 0.79682 0.0
C473 C 0.3293 0.04015 0.74721 0.0
H474 H 0.31325 0.07834 0.63816 0.0
H475 H 0.45753 0.14196 0.87271 0.0
H476 H 0.43255 0.12913 0.05592 0.0
H477 H 0.37578 0.1008 0.07043 0.0
H478 H 0.34455 0.08373 0.90281 0.0
C479 C 0.334 0.06911 0.68805 0.0
C480 C 0.36725 0.08882 0.68259 0.0
C481 C 0.3837 0.10121 0.78219 0.0
C482 C 0.41487 0.1206 0.77394 0.0
C483 C 0.43264 0.12938 0.87444 0.0
C484 C 0.41875 0.12189 0.98005 0.0
C485 C 0.38692 0.10573 0.98818 0.0
C486 C 0.36942 0.09561 0.89082 0.0
H487 H 0.4286 0.19227 0.75689 0.0
C488 C 0.45167 0.18834 0.70943 0.0
H489 H 0.47819 0.15357 0.6117 0.0
H490 H 0.34498 0.06627 0.47539 0.0
H491 H 0.36905 0.08168 0.29327 0.0
H492 H 0.41966 0.12034 0.2795 0.0
H493 H 0.4469 0.14339 0.44803 0.0
C494 C 0.45525 0.15832 0.65856 0.0
C495 C 0.4275 0.13123 0.66663 0.0
C496 C 0.41165 0.11824 0.56739 0.0
C497 C 0.38185 0.09664 0.57539 0.0
C498 C 0.36709 0.08345 0.47457 0.0
C499 C 0.38073 0.09197 0.36931 0.0
C500 C 0.40926 0.1137 0.36157 0.0
C501 C 0.42463 0.12678 0.45909 0.0
H502 H 0.87018 0.98204 0.81243 0.0
C503 C 0.84687 0.97675 0.85918 0.0
H504 H 0.82196 0.94598 0.9809 0.0
H505 H 0.96572 0.86952 0.84242 0.0
H506 H 0.94591 0.86995 0.64885 0.0
H507 H 0.89211 0.89562 0.59967 0.0
H508 H 0.85876 0.92246 0.74272 0.0
C509 C 0.84557 0.95167 0.93621 0.0
C510 C 0.87578 0.93163 0.96615 0.0
C511 C 0.89332 0.91317 0.88295 0.0
C512 C 0.92261 0.89526 0.91313 0.0
C513 C 0.94189 0.88094 0.82598 0.0
C514 C 0.93102 0.88139 0.71413 0.0
C515 C 0.90087 0.89606 0.68631 0.0
C516 C 0.88214 0.91176 0.7693 0.0
H517 H 0.94726 0.82622 0.97903 0.0
C518 C 0.96429 0.83871 0.03955 0.0
H519 H 0.97936 0.88346 0.12409 0.0
H520 H 0.84988 0.96548 0.14596 0.0
H521 H 0.86684 0.96116 0.3416 0.0
H522 H 0.91236 0.924 0.39773 0.0
H523 H 0.94168 0.89162 0.25886 0.0
C524 C 0.96142 0.87183 0.0645 0.0
C525 C 0.93215 0.89238 0.02839 0.0
C526 C 0.91386 0.90994 0.11202 0.0
C527 C 0.88642 0.93021 0.08046 0.0
C528 C 0.87011 0.94887 0.16527 0.0
C529 C 0.87965 0.94674 0.27812 0.0
C530 C 0.90535 0.92592 0.30964 0.0
C531 C 0.92221 0.90761 0.2283 0.0
H532 H 0.03864 0.35292 0.15933 0.0
C533 C 0.04766 0.33376 0.21635 0.0
H534 H 0.08502 0.32023 0.3322 0.0
H535 H 0.15066 0.46115 0.08111 0.0
H536 H 0.13897 0.43423 0.90008 0.0
H537 H 0.11032 0.37751 0.89023 0.0
H538 H 0.09187 0.34819 0.06026 0.0
C539 C 0.0764 0.33975 0.27574 0.0
C540 C 0.09572 0.37321 0.27765 0.0
C541 C 0.10888 0.38851 0.17719 0.0
C542 C 0.12833 0.41971 0.18322 0.0
C543 C 0.13796 0.43631 0.0814 0.0
C544 C 0.13113 0.4213 0.97699 0.0
C545 C 0.1148 0.38948 0.97145 0.0
C546 C 0.10391 0.37309 0.07003 0.0
H547 H 0.20013 0.43624 0.20158 0.0
C548 C 0.19531 0.45868 0.25119 0.0
H549 H 0.1595 0.48417 0.34706 0.0
H550 H 0.07078 0.35377 0.48523 0.0
H551 H 0.08492 0.37963 0.66552 0.0
H552 H 0.1241 0.42988 0.67687 0.0
H553 H 0.14885 0.45496 0.50796 0.0
C554 C 0.16459 0.46176 0.29787 0.0
C555 C 0.13803 0.43357 0.28982 0.0
C556 C 0.12422 0.41884 0.38986 0.0
C557 C 0.10254 0.38909 0.38355 0.0
C558 C 0.08826 0.37564 0.48486 0.0
C559 C 0.096 0.39035 0.58914 0.0
C560 C 0.118 0.41868 0.59551 0.0
C561 C 0.13202 0.43285 0.49749 0.0
H562 H 0.53802 0.6689 0.43357 0.0
C563 C 0.53719 0.66554 0.52463 0.0
H564 H 0.55551 0.63856 0.66425 0.0
H565 H 0.59512 0.52924 0.27004 0.0
H566 H 0.53458 0.51993 0.24162 0.0
H567 H 0.49398 0.55627 0.33583 0.0
H568 H 0.51362 0.60213 0.45889 0.0
C569 C 0.5554 0.64136 0.57296 0.0
C570 C 0.57952 0.62066 0.50841 0.0
C571 C 0.56763 0.59394 0.4366 0.0
C572 C 0.5911 0.57279 0.3828 0.0
C573 C 0.57847 0.54612 0.31248 0.0
C574 C 0.54377 0.54044 0.2957 0.0
C575 C 0.52091 0.5609 0.34875 0.0
C576 C 0.53254 0.58726 0.41885 0.0
H577 H 0.66692 0.53248 0.49295 0.0
C578 C 0.67007 0.53463 0.40199 0.0
H579 H 0.65322 0.55812 0.25291 0.0
H580 H 0.61092 0.67005 0.63826 0.0
H581 H 0.67139 0.68005 0.66381 0.0
H582 H 0.71203 0.6444 0.56708 0.0
H583 H 0.69249 0.59837 0.44526 0.0
C584 C 0.65093 0.55609 0.34412 0.0
C585 C 0.62642 0.57813 0.4016 0.0
C586 C 0.63832 0.60538 0.47137 0.0
C587 C 0.61487 0.62636 0.52566 0.0
C588 C 0.62753 0.65322 0.59535 0.0
C589 C 0.66221 0.65937 0.61041 0.0
C590 C 0.68509 0.63928 0.55606 0.0
C591 C 0.67346 0.61271 0.48688 0.0
loop_
_geom_bond_atom_site_label_1
_geom_bond_atom_site_label_2
_geom_bond_distance
_geom_bond_site_symmetry_2
_ccdc_geom_bond_type
Co0 O1 2.216 . S
Co0 O2 2.091 . S
Co0 O4 2.004 . S
Co0 O10 2.021 . S
Co0 O12 2.137 . S
Co0 O13 2.244 . S
O1 Co0 2.216 . S
O1 C8 1.247 . S
O2 Co0 2.091 . S
O2 C8 1.261 . S
C3 O12 1.247 . S
C3 O13 1.272 . S
O4 Co0 2.004 . S
O4 C9 1.259 . S
Co5 O6 2.061 . S
Co5 O11 2.052 . S
Co5 O13 2.135 . S
O6 Co5 2.061 . S
O6 C9 1.235 . S
C7 O10 1.238 . S
C7 O11 1.241 . S
C8 O1 1.247 . S
C8 O2 1.261 . S
C9 O4 1.259 . S
C9 O6 1.235 . S
O10 Co0 2.021 . S
O10 C7 1.238 . S
O11 Co5 2.052 . S
O11 C7 1.241 . S
O12 Co0 2.137 . S
O12 C3 1.247 . S
O13 Co0 2.244 . S
O13 C3 1.272 . S
O13 Co5 2.135 . S
Co14 O15 2.216 . S
Co14 O16 2.091 . S
Co14 O18 2.004 . S
Co14 O24 2.021 . S
Co14 O26 2.137 . S
Co14 O27 2.244 . S
O15 Co14 2.216 . S
O15 C22 1.247 . S
O16 Co14 2.091 . S
O16 C22 1.261 . S
C17 O26 1.247 . S
C17 O27 1.272 . S
O18 Co14 2.004 . S
O18 C23 1.259 . S
Co19 O20 2.061 . S
Co19 O25 2.052 . S
Co19 O27 2.135 . S
O20 Co19 2.061 . S
O20 C23 1.235 . S
C21 O24 1.238 . S
C21 O25 1.241 . S
C22 O15 1.247 . S
C22 O16 1.261 . S
C23 O18 1.259 . S
C23 O20 1.235 . S
O24 Co14 2.021 . S
O24 C21 1.238 . S
O25 Co19 2.052 . S
O25 C21 1.241 . S
O26 Co14 2.137 . S
O26 C17 1.247 . S
O27 Co14 2.244 . S
O27 C17 1.272 . S
O27 Co19 2.135 . S
Co28 O29 2.216 . S
Co28 O30 2.091 1_556 S
Co28 O32 2.004 . S
Co28 O38 2.021 1_565 S
Co28 O40 2.137 . S
Co28 O41 2.244 . S
O29 Co28 2.216 . S
O29 C36 1.247 1_556 S
O30 Co28 2.091 1_554 S
O30 C36 1.261 . S
C31 O40 1.247 . S
C31 O41 1.272 . S
O32 Co28 2.004 . S
O32 C37 1.259 1_565 S
Co33 O34 2.061 . S
Co33 O39 2.052 . S
Co33 O41 2.135 1_545 S
O34 Co33 2.061 . S
O34 C37 1.235 . S
C35 O38 1.238 . S
C35 O39 1.241 . S
C36 O29 1.247 1_554 S
C36 O30 1.261 . S
C37 O32 1.259 1_545 S
C37 O34 1.235 . S
O38 Co28 2.021 1_545 S
O38 C35 1.238 . S
O39 Co33 2.052 . S
O39 C35 1.241 . S
O40 Co28 2.137 . S
O40 C31 1.247 . S
O41 Co28 2.244 . S
O41 C31 1.272 . S
O41 Co33 2.135 1_565 S
Co42 O43 2.216 . S
Co42 O44 2.091 1_554 S
Co42 O46 2.004 . S
Co42 O52 2.021 1_455 S
Co42 O54 2.137 . S
Co42 O55 2.244 . S
O43 Co42 2.216 . S
O43 C50 1.247 1_554 S
O44 Co42 2.091 1_556 S
O44 C50 1.261 . S
C45 O54 1.247 . S
C45 O55 1.272 . S
O46 Co42 2.004 . S
O46 C51 1.259 1_455 S
Co47 O48 2.061 . S
Co47 O53 2.052 . S
Co47 O55 2.135 1_655 S
O48 Co47 2.061 . S
O48 C51 1.235 . S
C49 O52 1.238 . S
C49 O53 1.241 . S
C50 O43 1.247 1_556 S
C50 O44 1.261 . S
C51 O46 1.259 1_655 S
C51 O48 1.235 . S
O52 Co42 2.021 1_655 S
O52 C49 1.238 . S
O53 Co47 2.052 . S
O53 C49 1.241 . S
O54 Co42 2.137 . S
O54 C45 1.247 . S
O55 Co42 2.244 . S
O55 C45 1.272 . S
O55 Co47 2.135 1_455 S
Co56 O57 2.216 . S
Co56 O58 2.091 1_556 S
Co56 O60 2.004 . S
Co56 O66 2.021 1_545 S
Co56 O68 2.137 . S
Co56 O69 2.244 . S
O57 Co56 2.216 . S
O57 C64 1.247 1_556 S
O58 Co56 2.091 1_554 S
O58 C64 1.261 . S
C59 O68 1.247 . S
C59 O69 1.272 . S
O60 Co56 2.004 . S
O60 C65 1.259 1_545 S
Co61 O62 2.061 . S
Co61 O67 2.052 . S
Co61 O69 2.135 1_565 S
O62 Co61 2.061 . S
O62 C65 1.235 . S
C63 O66 1.238 . S
C63 O67 1.241 . S
C64 O57 1.247 1_554 S
C64 O58 1.261 . S
C65 O60 1.259 1_565 S
C65 O62 1.235 . S
O66 Co56 2.021 1_565 S
O66 C63 1.238 . S
O67 Co61 2.052 . S
O67 C63 1.241 . S
O68 Co56 2.137 . S
O68 C59 1.247 . S
O69 Co56 2.244 . S
O69 C59 1.272 . S
O69 Co61 2.135 1_545 S
Co70 O71 2.216 . S
Co70 O72 2.091 1_554 S
Co70 O74 2.004 . S
Co70 O80 2.021 1_655 S
Co70 O82 2.137 . S
Co70 O83 2.244 . S
O71 Co70 2.216 . S
O71 C78 1.247 1_554 S
O72 Co70 2.091 1_556 S
O72 C78 1.261 . S
C73 O82 1.247 . S
C73 O83 1.272 . S
O74 Co70 2.004 . S
O74 C79 1.259 1_655 S
Co75 O76 2.061 . S
Co75 O81 2.052 . S
Co75 O83 2.135 1_455 S
O76 Co75 2.061 . S
O76 C79 1.235 . S
C77 O80 1.238 . S
C77 O81 1.241 . S
C78 O71 1.247 1_556 S
C78 O72 1.261 . S
C79 O74 1.259 1_455 S
C79 O76 1.235 . S
O80 Co70 2.021 1_455 S
O80 C77 1.238 . S
O81 Co75 2.052 . S
O81 C77 1.241 . S
O82 Co70 2.137 . S
O82 C73 1.247 . S
O83 Co70 2.244 . S
O83 C73 1.272 . S
O83 Co75 2.135 1_655 S
Co84 O85 2.216 . S
Co84 O86 2.091 . S
Co84 O88 2.004 . S
Co84 O94 2.021 . S
Co84 O96 2.137 . S
Co84 O97 2.244 . S
O85 Co84 2.216 . S
O85 C92 1.247 . S
O86 Co84 2.091 . S
O86 C92 1.261 . S
C87 O96 1.247 . S
C87 O97 1.272 . S
O88 Co84 2.004 . S
O88 C93 1.259 . S
Co89 O90 2.061 . S
Co89 O95 2.052 . S
Co89 O97 2.135 . S
O90 Co89 2.061 . S
O90 C93 1.235 . S
C91 O94 1.238 . S
C91 O95 1.241 . S
C92 O85 1.247 . S
C92 O86 1.261 . S
C93 O88 1.259 . S
C93 O90 1.235 . S
O94 Co84 2.021 . S
O94 C91 1.238 . S
O95 Co89 2.052 . S
O95 C91 1.241 . S
O96 Co84 2.137 . S
O96 C87 1.247 . S
O97 Co84 2.244 . S
O97 C87 1.272 . S
O97 Co89 2.135 . S
Co98 O99 2.216 . S
Co98 O100 2.091 . S
Co98 O102 2.004 . S
Co98 O108 2.021 . S
Co98 O110 2.137 . S
Co98 O111 2.244 . S
O99 Co98 2.216 . S
O99 C106 1.247 . S
O100 Co98 2.091 . S
O100 C106 1.261 . S
C101 O110 1.247 . S
C101 O111 1.272 . S
O102 Co98 2.004 . S
O102 C107 1.259 . S
Co103 O104 2.061 . S
Co103 O109 2.052 . S
Co103 O111 2.135 . S
O104 Co103 2.061 . S
O104 C107 1.235 . S
C105 O108 1.238 . S
C105 O109 1.241 . S
C106 O99 1.247 . S
C106 O100 1.261 . S
C107 O102 1.259 . S
C107 O104 1.235 . S
O108 Co98 2.021 . S
O108 C105 1.238 . S
O109 Co103 2.052 . S
O109 C105 1.241 . S
O110 Co98 2.137 . S
O110 C101 1.247 . S
O111 Co98 2.244 . S
O111 C101 1.272 . S
O111 Co103 2.135 . S
H112 C113 0.951 . S
C113 H112 0.951 . S
C113 C119 1.265 . S
H114 C119 0.950 . S
H115 C123 0.949 . S
H116 C124 0.950 . S
H117 C125 0.951 . S
H118 C126 0.951 . S
C119 C113 1.265 . S
C119 H114 0.950 . S
C119 C120 1.478 . S
C120 C119 1.478 . S
C120 C121 1.397 1_556 S
C120 C137 1.394 . S
C121 C120 1.397 1_554 S
C121 C122 1.438 . S
C121 C126 1.429 . S
C122 C121 1.438 . S
C122 C123 1.428 . S
C122 C135 1.394 . S
C123 H115 0.949 . S
C123 C122 1.428 . S
C123 C124 1.345 . S
C124 H116 0.950 . S
C124 C123 1.345 . S
C124 C125 1.424 . S
C125 H117 0.951 . S
C125 C124 1.424 . S
C125 C126 1.347 . S
C126 H118 0.951 . S
C126 C121 1.429 . S
C126 C125 1.347 . S
H127 C128 0.951 . S
C128 H127 0.951 . S
C128 C134 1.265 . S
H129 C134 0.950 . S
H130 C138 0.949 . S
H131 C139 0.950 . S
H132 C140 0.951 . S
H133 C141 0.951 . S
C134 C128 1.265 . S
C134 H129 0.950 . S
C134 C135 1.478 . S
C135 C122 1.394 . S
C135 C134 1.478 . S
C135 C136 1.397 1_554 S
C136 C135 1.397 1_556 S
C136 C137 1.438 . S
C136 C141 1.429 . S
C137 C120 1.394 . S
C137 C136 1.438 . S
C137 C138 1.428 . S
C138 H130 0.949 . S
C138 C137 1.428 . S
C138 C139 1.345 . S
C139 H131 0.950 . S
C139 C138 1.345 . S
C139 C140 1.424 . S
C140 H132 0.951 . S
C140 C139 1.424 . S
C140 C141 1.347 . S
C141 H133 0.951 . S
C141 C136 1.429 . S
C141 C140 1.347 . S
H142 C143 0.951 . S
C143 H142 0.951 . S
C143 C149 1.265 . S
H144 C149 0.950 . S
H145 C153 0.949 . S
H146 C154 0.950 . S
H147 C155 0.951 . S
H148 C156 0.951 . S
C149 C143 1.265 . S
C149 H144 0.950 . S
C149 C150 1.478 . S
C150 C149 1.478 . S
C150 C151 1.397 . S
C150 C167 1.394 . S
C151 C150 1.397 . S
C151 C152 1.438 . S
C151 C156 1.429 . S
C152 C151 1.438 . S
C152 C153 1.428 . S
C152 C165 1.394 . S
C153 H145 0.949 . S
C153 C152 1.428 . S
C153 C154 1.345 . S
C154 H146 0.950 . S
C154 C153 1.345 . S
C154 C155 1.424 . S
C155 H147 0.951 . S
C155 C154 1.424 . S
C155 C156 1.347 . S
C156 H148 0.951 . S
C156 C151 1.429 . S
C156 C155 1.347 . S
H157 C158 0.951 . S
C158 H157 0.951 . S
C158 C164 1.265 . S
H159 C164 0.950 . S
H160 C168 0.949 . S
H161 C169 0.950 . S
H162 C170 0.951 . S
H163 C171 0.951 . S
C164 C158 1.265 . S
C164 H159 0.950 . S
C164 C165 1.478 . S
C165 C152 1.394 . S
C165 C164 1.478 . S
C165 C166 1.397 . S
C166 C165 1.397 . S
C166 C167 1.438 . S
C166 C171 1.429 . S
C167 C150 1.394 . S
C167 C166 1.438 . S
C167 C168 1.428 . S
C168 H160 0.949 . S
C168 C167 1.428 . S
C168 C169 1.345 . S
C169 H161 0.950 . S
C169 C168 1.345 . S
C169 C170 1.424 . S
C170 H162 0.951 . S
C170 C169 1.424 . S
C170 C171 1.347 . S
C171 H163 0.951 . S
C171 C166 1.429 . S
C171 C170 1.347 . S
H172 C173 0.951 . S
C173 H172 0.951 . S
C173 C179 1.265 . S
H174 C179 0.950 . S
H175 C183 0.949 . S
H176 C184 0.950 . S
H177 C185 0.951 . S
H178 C186 0.951 . S
C179 C173 1.265 . S
C179 H174 0.950 . S
C179 C180 1.478 . S
C180 C179 1.478 . S
C180 C181 1.397 . S
C180 C197 1.394 . S
C181 C180 1.397 . S
C181 C182 1.438 . S
C181 C186 1.429 . S
C182 C181 1.438 . S
C182 C183 1.428 . S
C182 C195 1.394 . S
C183 H175 0.949 . S
C183 C182 1.428 . S
C183 C184 1.345 . S
C184 H176 0.950 . S
C184 C183 1.345 . S
C184 C185 1.424 . S
C185 H177 0.951 . S
C185 C184 1.424 . S
C185 C186 1.347 . S
C186 H178 0.951 . S
C186 C181 1.429 . S
C186 C185 1.347 . S
H187 C188 0.951 . S
C188 H187 0.951 . S
C188 C194 1.265 . S
H189 C194 0.950 . S
H190 C198 0.949 . S
H191 C199 0.950 . S
H192 C200 0.951 . S
H193 C201 0.951 . S
C194 C188 1.265 . S
C194 H189 0.950 . S
C194 C195 1.478 . S
C195 C182 1.394 . S
C195 C194 1.478 . S
C195 C196 1.397 . S
C196 C195 1.397 . S
C196 C197 1.438 . S
C196 C201 1.429 . S
C197 C180 1.394 . S
C197 C196 1.438 . S
C197 C198 1.428 . S
C198 H190 0.949 . S
C198 C197 1.428 . S
C198 C199 1.345 . S
C199 H191 0.950 . S
C199 C198 1.345 . S
C199 C200 1.424 . S
C200 H192 0.951 . S
C200 C199 1.424 . S
C200 C201 1.347 . S
C201 H193 0.951 . S
C201 C196 1.429 . S
C201 C200 1.347 . S
H202 C203 0.951 . S
C203 H202 0.951 . S
C203 C209 1.265 . S
H204 C209 0.950 . S
H205 C213 0.949 . S
H206 C214 0.950 . S
H207 C215 0.951 . S
H208 C216 0.951 . S
C209 C203 1.265 . S
C209 H204 0.950 . S
C209 C210 1.478 . S
C210 C209 1.478 . S
C210 C211 1.397 . S
C210 C227 1.394 . S
C211 C210 1.397 . S
C211 C212 1.438 . S
C211 C216 1.429 . S
C212 C211 1.438 . S
C212 C213 1.428 . S
C212 C225 1.394 . S
C213 H205 0.949 . S
C213 C212 1.428 . S
C213 C214 1.345 . S
C214 H206 0.950 . S
C214 C213 1.345 . S
C214 C215 1.424 . S
C215 H207 0.951 . S
C215 C214 1.424 . S
C215 C216 1.347 . S
C216 H208 0.951 . S
C216 C211 1.429 . S
C216 C215 1.347 . S
H217 C218 0.951 . S
C218 H217 0.951 . S
C218 C224 1.265 . S
H219 C224 0.950 . S
H220 C228 0.949 1_554 S
H221 C229 0.950 . S
H222 C230 0.951 1_554 S
H223 C231 0.951 . S
C224 C218 1.265 . S
C224 H219 0.950 . S
C224 C225 1.478 . S
C225 C212 1.394 . S
C225 C224 1.478 . S
C225 C226 1.397 . S
C226 C225 1.397 . S
C226 C227 1.438 . S
C226 C231 1.429 . S
C227 C210 1.394 . S
C227 C226 1.438 . S
C227 C228 1.428 . S
C228 H220 0.949 1_556 S
C228 C227 1.428 . S
C228 C229 1.345 1_556 S
C229 H221 0.950 . S
C229 C228 1.345 1_554 S
C229 C230 1.424 1_554 S
C230 H222 0.951 1_556 S
C230 C229 1.424 1_556 S
C230 C231 1.347 . S
C231 H223 0.951 . S
C231 C226 1.429 . S
C231 C230 1.347 . S
H232 C233 0.951 . S
C233 H232 0.951 . S
C233 C239 1.265 . S
H234 C239 0.950 . S
H235 C243 0.949 . S
H236 C244 0.950 . S
H237 C245 0.951 . S
H238 C246 0.951 . S
C239 C233 1.265 . S
C239 H234 0.950 . S
C239 C240 1.478 . S
C240 C239 1.478 . S
C240 C241 1.397 . S
C240 C257 1.394 . S
C241 C240 1.397 . S
C241 C242 1.438 . S
C241 C246 1.429 . S
C242 C241 1.438 . S
C242 C243 1.428 . S
C242 C255 1.394 . S
C243 H235 0.949 . S
C243 C242 1.428 . S
C243 C244 1.345 . S
C244 H236 0.950 . S
C244 C243 1.345 . S
C244 C245 1.424 . S
C245 H237 0.951 . S
C245 C244 1.424 . S
C245 C246 1.347 . S
C246 H238 0.951 . S
C246 C241 1.429 . S
C246 C245 1.347 . S
H247 C248 0.951 . S
C248 H247 0.951 . S
C248 C254 1.265 . S
H249 C254 0.950 . S
H250 C258 0.949 . S
H251 C259 0.950 . S
H252 C260 0.951 . S
H253 C261 0.951 . S
C254 C248 1.265 . S
C254 H249 0.950 . S
C254 C255 1.478 . S
C255 C242 1.394 . S
C255 C254 1.478 . S
C255 C256 1.397 . S
C256 C255 1.397 . S
C256 C257 1.438 . S
C256 C261 1.429 . S
C257 C240 1.394 . S
C257 C256 1.438 . S
C257 C258 1.428 . S
C258 H250 0.949 . S
C258 C257 1.428 . S
C258 C259 1.345 . S
C259 H251 0.950 . S
C259 C258 1.345 . S
C259 C260 1.424 . S
C260 H252 0.951 . S
C260 C259 1.424 . S
C260 C261 1.347 . S
C261 H253 0.951 . S
C261 C256 1.429 . S
C261 C260 1.347 . S
H262 C263 0.951 . S
C263 H262 0.951 . S
C263 C269 1.265 . S
H264 C269 0.950 . S
H265 C273 0.949 . S
H266 C274 0.950 . S
H267 C275 0.951 . S
H268 C276 0.951 1_554 S
C269 C263 1.265 . S
C269 H264 0.950 . S
C269 C270 1.478 . S
C270 C269 1.478 . S
C270 C271 1.397 . S
C270 C287 1.394 . S
C271 C270 1.397 . S
C271 C272 1.438 . S
C271 C276 1.429 . S
C272 C271 1.438 . S
C272 C273 1.428 . S
C272 C285 1.394 . S
C273 H265 0.949 . S
C273 C272 1.428 . S
C273 C274 1.345 . S
C274 H266 0.950 . S
C274 C273 1.345 . S
C274 C275 1.424 1_556 S
C275 H267 0.951 . S
C275 C274 1.424 1_554 S
C275 C276 1.347 1_554 S
C276 H268 0.951 1_556 S
C276 C271 1.429 . S
C276 C275 1.347 1_556 S
H277 C278 0.951 . S
C278 H277 0.951 . S
C278 C284 1.265 . S
H279 C284 0.950 . S
H280 C288 0.949 . S
H281 C289 0.950 . S
H282 C290 0.951 . S
H283 C291 0.951 . S
C284 C278 1.265 . S
C284 H279 0.950 . S
C284 C285 1.478 . S
C285 C272 1.394 . S
C285 C284 1.478 . S
C285 C286 1.397 . S
C286 C285 1.397 . S
C286 C287 1.438 . S
C286 C291 1.429 . S
C287 C270 1.394 . S
C287 C286 1.438 . S
C287 C288 1.428 . S
C288 H280 0.949 . S
C288 C287 1.428 . S
C288 C289 1.345 . S
C289 H281 0.950 . S
C289 C288 1.345 . S
C289 C290 1.424 . S
C290 H282 0.951 . S
C290 C289 1.424 . S
C290 C291 1.347 . S
C291 H283 0.951 . S
C291 C286 1.429 . S
C291 C290 1.347 . S
H292 C293 0.951 . S
C293 H292 0.951 . S
C293 C299 1.265 . S
H294 C299 0.950 . S
H295 C303 0.949 . S
H296 C304 0.950 . S
H297 C305 0.951 . S
H298 C306 0.951 . S
C299 C293 1.265 . S
C299 H294 0.950 . S
C299 C300 1.478 . S
C300 C299 1.478 . S
C300 C301 1.397 . S
C300 C317 1.394 . S
C301 C300 1.397 . S
C301 C302 1.438 1_554 S
C301 C306 1.429 . S
C302 C301 1.438 1_556 S
C302 C303 1.428 . S
C302 C315 1.394 . S
C303 H295 0.949 . S
C303 C302 1.428 . S
C303 C304 1.345 . S
C304 H296 0.950 . S
C304 C303 1.345 . S
C304 C305 1.424 1_556 S
C305 H297 0.951 . S
C305 C304 1.424 1_554 S
C305 C306 1.347 . S
C306 H298 0.951 . S
C306 C301 1.429 . S
C306 C305 1.347 . S
H307 C308 0.951 . S
C308 H307 0.951 . S
C308 C314 1.265 . S
H309 C314 0.950 . S
H310 C318 0.949 . S
H311 C319 0.950 . S
H312 C320 0.951 . S
H313 C321 0.951 . S
C314 C308 1.265 . S
C314 H309 0.950 . S
C314 C315 1.478 . S
C315 C302 1.394 . S
C315 C314 1.478 . S
C315 C316 1.397 . S
C316 C315 1.397 . S
C316 C317 1.438 1_556 S
C316 C321 1.429 . S
C317 C300 1.394 . S
C317 C316 1.438 1_554 S
C317 C318 1.428 . S
C318 H310 0.949 . S
C318 C317 1.428 . S
C318 C319 1.345 . S
C319 H311 0.950 . S
C319 C318 1.345 . S
C319 C320 1.424 1_554 S
C320 H312 0.951 . S
C320 C319 1.424 1_556 S
C320 C321 1.347 . S
C321 H313 0.951 . S
C321 C316 1.429 . S
C321 C320 1.347 . S
H322 C323 0.951 . S
C323 H322 0.951 . S
C323 C329 1.265 . S
H324 C329 0.950 . S
H325 C333 0.949 . S
H326 C334 0.950 . S
H327 C335 0.951 . S
H328 C336 0.951 . S
C329 C323 1.265 . S
C329 H324 0.950 . S
C329 C330 1.478 . S
C330 C329 1.478 . S
C330 C331 1.397 . S
C330 C347 1.394 . S
C331 C330 1.397 . S
C331 C332 1.438 . S
C331 C336 1.429 . S
C332 C331 1.438 . S
C332 C333 1.428 . S
C332 C345 1.394 . S
C333 H325 0.949 . S
C333 C332 1.428 . S
C333 C334 1.345 . S
C334 H326 0.950 . S
C334 C333 1.345 . S
C334 C335 1.424 . S
C335 H327 0.951 . S
C335 C334 1.424 . S
C335 C336 1.347 . S
C336 H328 0.951 . S
C336 C331 1.429 . S
C336 C335 1.347 . S
H337 C338 0.951 . S
C338 H337 0.951 . S
C338 C344 1.265 . S
H339 C344 0.950 . S
H340 C348 0.949 1_556 S
H341 C349 0.950 . S
H342 C350 0.951 . S
H343 C351 0.951 . S
C344 C338 1.265 . S
C344 H339 0.950 . S
C344 C345 1.478 . S
C345 C332 1.394 . S
C345 C344 1.478 . S
C345 C346 1.397 . S
C346 C345 1.397 . S
C346 C347 1.438 . S
C346 C351 1.429 . S
C347 C330 1.394 . S
C347 C346 1.438 . S
C347 C348 1.428 . S
C348 H340 0.949 1_554 S
C348 C347 1.428 . S
C348 C349 1.345 1_554 S
C349 H341 0.950 . S
C349 C348 1.345 1_556 S
C349 C350 1.424 1_556 S
C350 H342 0.951 . S
C350 C349 1.424 1_554 S
C350 C351 1.347 . S
C351 H343 0.951 . S
C351 C346 1.429 . S
C351 C350 1.347 . S
H352 C353 0.951 . S
C353 H352 0.951 . S
C353 C359 1.265 . S
H354 C359 0.950 . S
H355 C363 0.949 . S
H356 C364 0.950 . S
H357 C365 0.951 . S
H358 C366 0.951 . S
C359 C353 1.265 . S
C359 H354 0.950 . S
C359 C360 1.478 . S
C360 C359 1.478 . S
C360 C361 1.397 . S
C360 C377 1.394 . S
C361 C360 1.397 . S
C361 C362 1.438 . S
C361 C366 1.429 . S
C362 C361 1.438 . S
C362 C363 1.428 . S
C362 C375 1.394 . S
C363 H355 0.949 . S
C363 C362 1.428 . S
C363 C364 1.345 . S
C364 H356 0.950 . S
C364 C363 1.345 . S
C364 C365 1.424 . S
C365 H357 0.951 . S
C365 C364 1.424 . S
C365 C366 1.347 . S
C366 H358 0.951 . S
C366 C361 1.429 . S
C366 C365 1.347 . S
H367 C368 0.951 . S
C368 H367 0.951 . S
C368 C374 1.265 . S
H369 C374 0.950 . S
H370 C378 0.949 . S
H371 C379 0.950 . S
H372 C380 0.951 . S
H373 C381 0.951 . S
C374 C368 1.265 . S
C374 H369 0.950 . S
C374 C375 1.478 . S
C375 C362 1.394 . S
C375 C374 1.478 . S
C375 C376 1.397 . S
C376 C375 1.397 . S
C376 C377 1.438 . S
C376 C381 1.429 . S
C377 C360 1.394 . S
C377 C376 1.438 . S
C377 C378 1.428 . S
C378 H370 0.949 . S
C378 C377 1.428 . S
C378 C379 1.345 . S
C379 H371 0.950 . S
C379 C378 1.345 . S
C379 C380 1.424 . S
C380 H372 0.951 . S
C380 C379 1.424 . S
C380 C381 1.347 . S
C381 H373 0.951 . S
C381 C376 1.429 . S
C381 C380 1.347 . S
H382 C383 0.951 . S
C383 H382 0.951 . S
C383 C389 1.265 . S
H384 C389 0.950 . S
H385 C393 0.949 . S
H386 C394 0.950 . S
H387 C395 0.951 . S
H388 C396 0.951 . S
C389 C383 1.265 . S
C389 H384 0.950 . S
C389 C390 1.478 . S
C390 C389 1.478 . S
C390 C391 1.397 . S
C390 C407 1.394 . S
C391 C390 1.397 . S
C391 C392 1.438 . S
C391 C396 1.429 . S
C392 C391 1.438 . S
C392 C393 1.428 . S
C392 C405 1.394 . S
C393 H385 0.949 . S
C393 C392 1.428 . S
C393 C394 1.345 . S
C394 H386 0.950 . S
C394 C393 1.345 . S
C394 C395 1.424 . S
C395 H387 0.951 . S
C395 C394 1.424 . S
C395 C396 1.347 . S
C396 H388 0.951 . S
C396 C391 1.429 . S
C396 C395 1.347 . S
H397 C398 0.951 . S
C398 H397 0.951 . S
C398 C404 1.265 . S
H399 C404 0.950 . S
H400 C408 0.949 . S
H401 C409 0.950 . S
H402 C410 0.951 . S
H403 C411 0.951 . S
C404 C398 1.265 . S
C404 H399 0.950 . S
C404 C405 1.478 . S
C405 C392 1.394 . S
C405 C404 1.478 . S
C405 C406 1.397 . S
C406 C405 1.397 . S
C406 C407 1.438 . S
C406 C411 1.429 . S
C407 C390 1.394 . S
C407 C406 1.438 . S
C407 C408 1.428 . S
C408 H400 0.949 . S
C408 C407 1.428 . S
C408 C409 1.345 1_556 S
C409 H401 0.950 . S
C409 C408 1.345 1_554 S
C409 C410 1.424 . S
C410 H402 0.951 . S
C410 C409 1.424 . S
C410 C411 1.347 1_554 S
C411 H403 0.951 . S
C411 C406 1.429 . S
C411 C410 1.347 1_556 S
H412 C413 0.951 . S
C413 H412 0.951 . S
C413 C419 1.265 . S
H414 C419 0.950 1_556 S
H415 C423 0.949 . S
H416 C424 0.950 . S
H417 C425 0.951 . S
H418 C426 0.951 . S
C419 C413 1.265 . S
C419 H414 0.950 1_554 S
C419 C420 1.478 . S
C420 C419 1.478 . S
C420 C421 1.397 1_554 S
C420 C437 1.394 . S
C421 C420 1.397 1_556 S
C421 C422 1.438 . S
C421 C426 1.429 . S
C422 C421 1.438 . S
C422 C423 1.428 . S
C422 C435 1.394 . S
C423 H415 0.949 . S
C423 C422 1.428 . S
C423 C424 1.345 . S
C424 H416 0.950 . S
C424 C423 1.345 . S
C424 C425 1.424 . S
C425 H417 0.951 . S
C425 C424 1.424 . S
C425 C426 1.347 . S
C426 H418 0.951 . S
C426 C421 1.429 . S
C426 C425 1.347 . S
H427 C428 0.951 . S
C428 H427 0.951 . S
C428 C434 1.265 . S
H429 C434 0.950 1_554 S
H430 C438 0.949 . S
H431 C439 0.950 . S
H432 C440 0.951 . S
H433 C441 0.951 . S
C434 C428 1.265 . S
C434 H429 0.950 1_556 S
C434 C435 1.478 . S
C435 C422 1.394 . S
C435 C434 1.478 . S
C435 C436 1.397 1_556 S
C436 C435 1.397 1_554 S
C436 C437 1.438 . S
C436 C441 1.429 . S
C437 C420 1.394 . S
C437 C436 1.438 . S
C437 C438 1.428 . S
C438 H430 0.949 . S
C438 C437 1.428 . S
C438 C439 1.345 . S
C439 H431 0.950 . S
C439 C438 1.345 . S
C439 C440 1.424 . S
C440 H432 0.951 . S
C440 C439 1.424 . S
C440 C441 1.347 . S
C441 H433 0.951 . S
C441 C436 1.429 . S
C441 C440 1.347 . S
H442 C443 0.951 . S
C443 H442 0.951 . S
C443 C449 1.265 . S
H444 C449 0.950 . S
H445 C453 0.949 . S
H446 C454 0.950 . S
H447 C455 0.951 . S
H448 C456 0.951 . S
C449 C443 1.265 . S
C449 H444 0.950 . S
C449 C450 1.478 . S
C450 C449 1.478 . S
C450 C451 1.397 . S
C450 C467 1.394 . S
C451 C450 1.397 . S
C451 C452 1.438 . S
C451 C456 1.429 . S
C452 C451 1.438 . S
C452 C453 1.428 . S
C452 C465 1.394 . S
C453 H445 0.949 . S
C453 C452 1.428 . S
C453 C454 1.345 . S
C454 H446 0.950 . S
C454 C453 1.345 . S
C454 C455 1.424 . S
C455 H447 0.951 . S
C455 C454 1.424 . S
C455 C456 1.347 . S
C456 H448 0.951 . S
C456 C451 1.429 . S
C456 C455 1.347 . S
H457 C458 0.951 . S
C458 H457 0.951 . S
C458 C464 1.265 . S
H459 C464 0.950 . S
H460 C468 0.949 . S
H461 C469 0.950 . S
H462 C470 0.951 . S
H463 C471 0.951 . S
C464 C458 1.265 . S
C464 H459 0.950 . S
C464 C465 1.478 . S
C465 C452 1.394 . S
C465 C464 1.478 . S
C465 C466 1.397 . S
C466 C465 1.397 . S
C466 C467 1.438 . S
C466 C471 1.429 . S
C467 C450 1.394 . S
C467 C466 1.438 . S
C467 C468 1.428 . S
C468 H460 0.949 . S
C468 C467 1.428 . S
C468 C469 1.345 . S
C469 H461 0.950 . S
C469 C468 1.345 . S
C469 C470 1.424 . S
C470 H462 0.951 . S
C470 C469 1.424 . S
C470 C471 1.347 . S
C471 H463 0.951 . S
C471 C466 1.429 . S
C471 C470 1.347 . S
H472 C473 0.951 . S
C473 H472 0.951 . S
C473 C479 1.265 . S
H474 C479 0.950 . S
H475 C483 0.949 . S
H476 C484 0.950 . S
H477 C485 0.951 . S
H478 C486 0.951 . S
C479 C473 1.265 . S
C479 H474 0.950 . S
C479 C480 1.478 . S
C480 C479 1.478 . S
C480 C481 1.397 . S
C480 C497 1.394 . S
C481 C480 1.397 . S
C481 C482 1.438 . S
C481 C486 1.429 . S
C482 C481 1.438 . S
C482 C483 1.428 . S
C482 C495 1.394 . S
C483 H475 0.949 . S
C483 C482 1.428 . S
C483 C484 1.345 1_556 S
C484 H476 0.950 . S
C484 C483 1.345 1_554 S
C484 C485 1.424 . S
C485 H477 0.951 . S
C485 C484 1.424 . S
C485 C486 1.347 1_554 S
C486 H478 0.951 . S
C486 C481 1.429 . S
C486 C485 1.347 1_556 S
H487 C488 0.951 . S
C488 H487 0.951 . S
C488 C494 1.265 . S
H489 C494 0.950 . S
H490 C498 0.949 . S
H491 C499 0.950 . S
H492 C500 0.951 . S
H493 C501 0.951 . S
C494 C488 1.265 . S
C494 H489 0.950 . S
C494 C495 1.478 . S
C495 C482 1.394 . S
C495 C494 1.478 . S
C495 C496 1.397 . S
C496 C495 1.397 . S
C496 C497 1.438 . S
C496 C501 1.429 . S
C497 C480 1.394 . S
C497 C496 1.438 . S
C497 C498 1.428 . S
C498 H490 0.949 . S
C498 C497 1.428 . S
C498 C499 1.345 . S
C499 H491 0.950 . S
C499 C498 1.345 . S
C499 C500 1.424 . S
C500 H492 0.951 . S
C500 C499 1.424 . S
C500 C501 1.347 . S
C501 H493 0.951 . S
C501 C496 1.429 . S
C501 C500 1.347 . S
H502 C503 0.951 . S
C503 H502 0.951 . S
C503 C509 1.265 . S
H504 C509 0.950 1_554 S
H505 C513 0.949 . S
H506 C514 0.950 . S
H507 C515 0.951 . S
H508 C516 0.951 . S
C509 C503 1.265 . S
C509 H504 0.950 1_556 S
C509 C510 1.478 . S
C510 C509 1.478 . S
C510 C511 1.397 . S
C510 C527 1.394 1_556 S
C511 C510 1.397 . S
C511 C512 1.438 . S
C511 C516 1.429 . S
C512 C511 1.438 . S
C512 C513 1.428 . S
C512 C525 1.394 1_556 S
C513 H505 0.949 . S
C513 C512 1.428 . S
C513 C514 1.345 . S
C514 H506 0.950 . S
C514 C513 1.345 . S
C514 C515 1.424 . S
C515 H507 0.951 . S
C515 C514 1.424 . S
C515 C516 1.347 . S
C516 H508 0.951 . S
C516 C511 1.429 . S
C516 C515 1.347 . S
H517 C518 0.951 . S
C518 H517 0.951 . S
C518 C524 1.265 . S
H519 C524 0.950 1_556 S
H520 C528 0.949 . S
H521 C529 0.950 . S
H522 C530 0.951 . S
H523 C531 0.951 . S
C524 C518 1.265 . S
C524 H519 0.950 1_554 S
C524 C525 1.478 . S
C525 C512 1.394 1_554 S
C525 C524 1.478 . S
C525 C526 1.397 . S
C526 C525 1.397 . S
C526 C527 1.438 . S
C526 C531 1.429 . S
C527 C510 1.394 1_554 S
C527 C526 1.438 . S
C527 C528 1.428 . S
C528 H520 0.949 . S
C528 C527 1.428 . S
C528 C529 1.345 . S
C529 H521 0.950 . S
C529 C528 1.345 . S
C529 C530 1.424 . S
C530 H522 0.951 . S
C530 C529 1.424 . S
C530 C531 1.347 . S
C531 H523 0.951 . S
C531 C526 1.429 . S
C531 C530 1.347 . S
H532 C533 0.951 . S
C533 H532 0.951 . S
C533 C539 1.265 . S
H534 C539 0.950 . S
H535 C543 0.949 . S
H536 C544 0.950 . S
H537 C545 0.951 . S
H538 C546 0.951 . S
C539 C533 1.265 . S
C539 H534 0.950 . S
C539 C540 1.478 . S
C540 C539 1.478 . S
C540 C541 1.397 . S
C540 C557 1.394 . S
C541 C540 1.397 . S
C541 C542 1.438 . S
C541 C546 1.429 . S
C542 C541 1.438 . S
C542 C543 1.428 . S
C542 C555 1.394 . S
C543 H535 0.949 . S
C543 C542 1.428 . S
C543 C544 1.345 1_554 S
C544 H536 0.950 . S
C544 C543 1.345 1_556 S
C544 C545 1.424 . S
C545 H537 0.951 . S
C545 C544 1.424 . S
C545 C546 1.347 1_556 S
C546 H538 0.951 . S
C546 C541 1.429 . S
C546 C545 1.347 1_554 S
H547 C548 0.951 . S
C548 H547 0.951 . S
C548 C554 1.265 . S
H549 C554 0.950 . S
H550 C558 0.949 . S
H551 C559 0.950 . S
H552 C560 0.951 . S
H553 C561 0.951 . S
C554 C548 1.265 . S
C554 H549 0.950 . S
C554 C555 1.478 . S
C555 C542 1.394 . S
C555 C554 1.478 . S
C555 C556 1.397 . S
C556 C555 1.397 . S
C556 C557 1.438 . S
C556 C561 1.429 . S
C557 C540 1.394 . S
C557 C556 1.438 . S
C557 C558 1.428 . S
C558 H550 0.949 . S
C558 C557 1.428 . S
C558 C559 1.345 . S
C559 H551 0.950 . S
C559 C558 1.345 . S
C559 C560 1.424 . S
C560 H552 0.951 . S
C560 C559 1.424 . S
C560 C561 1.347 . S
C561 H553 0.951 . S
C561 C556 1.429 . S
C561 C560 1.347 . S
H562 C563 0.951 . S
C563 H562 0.951 . S
C563 C569 1.265 . S
H564 C569 0.950 . S
H565 C573 0.949 . S
H566 C574 0.950 . S
H567 C575 0.951 . S
H568 C576 0.951 . S
C569 C563 1.265 . S
C569 H564 0.950 . S
C569 C570 1.478 . S
C570 C569 1.478 . S
C570 C571 1.397 . S
C570 C587 1.394 . S
C571 C570 1.397 . S
C571 C572 1.438 . S
C571 C576 1.429 . S
C572 C571 1.438 . S
C572 C573 1.428 . S
C572 C585 1.394 . S
C573 H565 0.949 . S
C573 C572 1.428 . S
C573 C574 1.345 . S
C574 H566 0.950 . S
C574 C573 1.345 . S
C574 C575 1.424 . S
C575 H567 0.951 . S
C575 C574 1.424 . S
C575 C576 1.347 . S
C576 H568 0.951 . S
C576 C571 1.429 . S
C576 C575 1.347 . S
H577 C578 0.951 . S
C578 H577 0.951 . S
C578 C584 1.265 . S
H579 C584 0.950 . S
H580 C588 0.949 . S
H581 C589 0.950 . S
H582 C590 0.951 . S
H583 C591 0.951 . S
C584 C578 1.265 . S
C584 H579 0.950 . S
C584 C585 1.478 . S
C585 C572 1.394 . S
C585 C584 1.478 . S
C585 C586 1.397 . S
C586 C585 1.397 . S
C586 C587 1.438 . S
C586 C591 1.429 . S
C587 C570 1.394 . S
C587 C586 1.438 . S
C587 C588 1.428 . S
C588 H580 0.949 . S
C588 C587 1.428 . S
C588 C589 1.345 . S
C589 H581 0.950 . S
C589 C588 1.345 . S
C589 C590 1.424 . S
C590 H582 0.951 . S
C590 C589 1.424 . S
C590 C591 1.347 . S
C591 H583 0.951 . S
C591 C586 1.429 . S
C591 C590 1.347 . S
C113 C17 1.420 . S
C128 C3 1.412 . S
C143 C22 1.424 . S
C158 C36 1.424 . S
C173 C45 1.412 . S
C188 C31 1.420 . S
C203 C50 1.424 . S
C218 C8 1.424 . S
C233 C59 1.432 . S
C248 C73 1.427 . S
C263 C78 1.422 . S
C278 C92 1.423 . S
C293 C87 1.432 . S
C308 C101 1.429 . S
C323 C64 1.422 . S
C338 C106 1.422 . S
C353 C9 1.427 . S
C368 C107 1.415 . S
C383 C63 1.397 . S
C398 C21 1.454 . S
C413 C79 1.400 . S
C428 C37 1.411 . S
C443 C49 1.461 . S
C458 C91 1.409 . S
C473 C35 1.450 . S
C488 C105 1.395 . S
C503 C65 1.409 . S
C518 C51 1.398 . S
C533 C77 1.456 . S
C548 C7 1.398 . S
C563 C23 1.422 . S
C578 C93 1.434 . S
