# Generated by pormake.
# Topology mmt, (4)-cn, num edge types: 1
# Building blocks:
#     Node 0, Type 0, BuildingBlock: ICAMEG_clean_sbu_1, # of connection points: 4
#     Node 1, Type 0, BuildingBlock: ICAMEG_clean_sbu_1, # of connection points: 4
#     Node 2, Type 0, BuildingBlock: ICAMEG_clean_sbu_1, # of connection points: 4
#     Node 3, Type 0, BuildingBlock: ICAMEG_clean_sbu_1, # of connection points: 4
#     Node 4, Type 0, BuildingBlock: ICAMEG_clean_sbu_1, # of connection points: 4
#     Node 5, Type 0, BuildingBlock: ICAMEG_clean_sbu_1, # of connection points: 4
#     Node 6, Type 0, BuildingBlock: ICAMEG_clean_sbu_1, # of connection points: 4
#     Node 7, Type 0, BuildingBlock: ICAMEG_clean_sbu_1, # of connection points: 4
#     Edge 8, Type (0, 0), BuildingBlock: CIFDUS_clean_linker_0, # of connection points: 2
#     Edge 9, Type (0, 0), BuildingBlock: CIFDUS_clean_linker_0, # of connection points: 2
#     Edge 10, Type (0, 0), BuildingBlock: CIFDUS_clean_linker_0, # of connection points: 2
#     Edge 11, Type (0, 0), BuildingBlock: CIFDUS_clean_linker_0, # of connection points: 2
#     Edge 12, Type (0, 0), BuildingBlock: CIFDUS_clean_linker_0, # of connection points: 2
#     Edge 13, Type (0, 0), BuildingBlock: CIFDUS_clean_linker_0, # of connection points: 2
#     Edge 14, Type (0, 0), BuildingBlock: CIFDUS_clean_linker_0, # of connection points: 2
#     Edge 15, Type (0, 0), BuildingBlock: CIFDUS_clean_linker_0, # of connection points: 2
#     Edge 16, Type (0, 0), BuildingBlock: CIFDUS_clean_linker_0, # of connection points: 2
#     Edge 17, Type (0, 0), BuildingBlock: CIFDUS_clean_linker_0, # of connection points: 2
#     Edge 18, Type (0, 0), BuildingBlock: CIFDUS_clean_linker_0, # of connection points: 2
#     Edge 19, Type (0, 0), BuildingBlock: CIFDUS_clean_linker_0, # of connection points: 2
#     Edge 20, Type (0, 0), BuildingBlock: CIFDUS_clean_linker_0, # of connection points: 2
#     Edge 21, Type (0, 0), BuildingBlock: CIFDUS_clean_linker_0, # of connection points: 2
#     Edge 22, Type (0, 0), BuildingBlock: CIFDUS_clean_linker_0, # of connection points: 2
#     Edge 23, Type (0, 0), BuildingBlock: CIFDUS_clean_linker_0, # of connection points: 2
# Relax obj value: 0.089
# Max RMSD: 0.129
# Mean RMSD: 0.129
data_MOF--net-mmt--node1-ICAMEG_clean_sbu_1--edge1-CIFDUS_clean_linker_0
_symmetry_space_group_name_H-M    P1
_symmetry_Int_Tables_number       1
_symmetry_cell_setting            triclinic
loop_
_symmetry_equiv_pos_as_xyz
'x, y, z'
_cell_length_a     21.092028
_cell_length_b     37.053621
_cell_length_c     37.026502
_cell_angle_alpha  89.673251
_cell_angle_beta   90.049915
_cell_angle_gamma 90.547678
loop_
_atom_site_label
_atom_site_type_symbol
_atom_site_fract_x
_atom_site_fract_y
_atom_site_fract_z
_atom_type_partial_charge
Co0 Co 0.19937 0.54507 0.35094 0.0
Co1 Co 0.10321 0.61758 0.36345 0.0
O2 O 0.18565 0.5971 0.351 0.0
C3 C 0.25502 0.55998 0.27769 0.0
O4 O 0.19903 0.56917 0.26536 0.0
C5 C 0.19925 0.66181 0.40327 0.0
O6 O 0.22779 0.63174 0.41217 0.0
O7 O 0.10318 0.59099 0.41054 0.0
O8 O 0.13826 0.5374 0.39172 0.0
H9 H 0.87958 0.61353 0.41013 0.0
H10 H 0.31148 0.5938 0.35523 0.0
O11 O 0.26229 0.55106 0.31067 0.0
H12 H 0.32048 0.51827 0.46516 0.0
H13 H 0.33111 0.43294 0.34058 0.0
H14 H 0.11538 0.48056 0.35611 0.0
H15 H 0.23422 0.50998 0.42093 0.0
H16 H 0.31322 0.49855 0.34277 0.0
O17 O 0.14734 0.66065 0.38566 0.0
H18 H 0.9826 0.58795 0.3929 0.0
H19 H 0.05018 0.69199 0.36203 0.0
H20 H 0.13124 0.41475 0.3544 0.0
H21 H 0.39915 0.60261 0.39849 0.0
H22 H 0.23975 0.39054 0.34657 0.0
H23 H 0.40389 0.56477 0.45401 0.0
O24 O 0.12815 0.53881 0.31607 0.0
H25 H 0.19965 0.6923 0.26358 0.0
H26 H 1.00783 0.62697 0.30462 0.0
H27 H 1.00765 0.65745 0.24526 0.0
H28 H 0.104 0.69052 0.22443 0.0
H29 H 0.19799 0.66118 0.32262 0.0
H30 H 0.94797 0.71873 0.37915 0.0
H31 H 0.86173 0.67939 0.4033 0.0
O32 O 0.05657 0.5759 0.34055 0.0
C33 C 0.1096 0.55693 0.41468 0.0
C34 C 0.91673 0.63095 0.39956 0.0
C35 C 0.95515 0.68999 0.38222 0.0
N36 N 0.02229 0.6384 0.37631 0.0
C37 C 0.97515 0.6166 0.38968 0.0
C38 C 0.01299 0.6747 0.37266 0.0
C39 C 0.90677 0.6679 0.39575 0.0
C40 C 0.31359 0.57695 0.37912 0.0
N41 N 0.26778 0.55138 0.3855 0.0
C42 C 0.36319 0.58219 0.40361 0.0
C43 C 0.36575 0.561 0.43479 0.0
C44 C 0.31891 0.53494 0.44109 0.0
C45 C 0.26999 0.53049 0.41602 0.0
C46 C 0.28362 0.44316 0.34408 0.0
C47 C 0.16279 0.47025 0.35291 0.0
C48 C 0.27316 0.48029 0.34526 0.0
N49 N 0.21334 0.49339 0.34984 0.0
C50 C 0.17146 0.43295 0.35187 0.0
C51 C 0.23234 0.41938 0.34744 0.0
C52 C 0.07154 0.55025 0.31936 0.0
C53 C 0.1573 0.67809 0.27241 0.0
C54 C 0.05 0.64124 0.29574 0.0
C55 C 0.04957 0.6585 0.26211 0.0
C56 C 0.10364 0.67705 0.25044 0.0
N57 N 0.10272 0.64254 0.31722 0.0
C58 C 0.156 0.66053 0.30588 0.0
Co59 Co 0.32538 0.98853 0.36453 0.0
Co60 Co 0.41741 0.91232 0.36338 0.0
O61 O 0.33619 0.93674 0.35706 0.0
C62 C 0.27118 0.98223 0.29047 0.0
O63 O 0.32612 0.97048 0.27905 0.0
C64 C 0.3232 0.86652 0.4036 0.0
O65 O 0.29702 0.89614 0.41551 0.0
O66 O 0.42793 0.93327 0.41273 0.0
O67 O 0.3868 0.9885 0.4056 0.0
H68 H 0.64745 0.90452 0.39761 0.0
H69 H 0.21074 0.94161 0.36134 0.0
O70 O 0.26306 0.98995 0.3236 0.0
H71 H 0.20602 0.99755 0.48182 0.0
H72 H 0.19851 0.1027 0.37169 0.0
H73 H 0.41211 0.05023 0.37939 0.0
H74 H 0.29251 1.01186 0.43917 0.0
H75 H 0.21369 0.03733 0.36357 0.0
O76 O 0.37261 0.86842 0.38388 0.0
H77 H 0.54497 0.93486 0.38887 0.0
H78 H 0.46169 0.83692 0.35204 0.0
H79 H 0.39898 0.11566 0.388 0.0
H80 H 0.12288 0.92694 0.40297 0.0
H81 H 0.29155 0.14232 0.38416 0.0
H82 H 0.12029 0.95489 0.46376 0.0
O83 O 0.39677 0.99991 0.33102 0.0
H84 H 0.29672 0.85258 0.26267 0.0
H85 H 0.50192 0.90581 0.29911 0.0
H86 H 0.48892 0.88229 0.23739 0.0
H87 H 0.38573 0.85532 0.21883 0.0
H88 H 0.31164 0.87677 0.32403 0.0
H89 H 0.56313 0.80546 0.36069 0.0
H90 H 0.65699 0.83935 0.38349 0.0
O91 O 0.46446 0.95474 0.34213 0.0
C92 C 0.42003 0.96578 0.42313 0.0
C93 C 0.60694 0.88949 0.38757 0.0
C94 C 0.55959 0.83387 0.3669 0.0
N95 N 0.49749 0.88775 0.36977 0.0
C96 C 0.54882 0.90654 0.38249 0.0
C97 C 0.50222 0.85182 0.36216 0.0
C98 C 0.61224 0.85291 0.37968 0.0
C99 C 0.20956 0.9542 0.38758 0.0
N100 N 0.25664 0.97762 0.39776 0.0
C101 C 0.15986 0.94565 0.41111 0.0
C102 C 0.15851 0.96129 0.44524 0.0
C103 C 0.20664 0.98518 0.45541 0.0
C104 C 0.25565 0.99306 0.43119 0.0
C105 C 0.24554 0.09139 0.3735 0.0
C106 C 0.36515 0.06157 0.3779 0.0
C107 C 0.25445 0.05441 0.36886 0.0
N108 N 0.31367 0.03992 0.37131 0.0
C109 C 0.35804 0.09867 0.3827 0.0
C110 C 0.29776 0.11361 0.38051 0.0
C111 C 0.45119 0.9854 0.32821 0.0
C112 C 0.34195 0.86418 0.27046 0.0
C113 C 0.45682 0.8943 0.29121 0.0
C114 C 0.44978 0.88091 0.25624 0.0
C115 C 0.39189 0.86577 0.24586 0.0
N116 N 0.40769 0.89257 0.31523 0.0
C117 C 0.35075 0.87782 0.30521 0.0
Co118 Co 0.69476 0.49137 0.1482 0.0
Co119 Co 0.59168 0.41971 0.15122 0.0
O120 O 0.67702 0.44023 0.15784 0.0
C121 C 0.75306 0.48597 0.22162 0.0
O122 O 0.69768 0.47613 0.23476 0.0
C123 C 0.67854 0.36458 0.11889 0.0
O124 O 0.71558 0.39051 0.10662 0.0
O125 O 0.59069 0.43687 0.10016 0.0
O126 O 0.63132 0.49242 0.10777 0.0
H127 H 0.36504 0.42082 0.10917 0.0
H128 H 0.80282 0.44085 0.15103 0.0
O129 O 0.75969 0.49192 0.18793 0.0
H130 H 0.8095 0.49467 0.02896 0.0
H131 H 0.83549 0.60123 0.13491 0.0
H132 H 0.61538 0.55523 0.1325 0.0
H133 H 0.72701 0.51235 0.07236 0.0
H134 H 0.81252 0.53667 0.14562 0.0
O135 O 0.62829 0.3721 0.13625 0.0
H136 H 0.47205 0.44632 0.11876 0.0
H137 H 0.53088 0.34857 0.16846 0.0
H138 H 0.63629 0.61991 0.12128 0.0
H139 H 0.88674 0.4228 0.10863 0.0
H140 H 0.74702 0.64331 0.12246 0.0
H141 H 0.89029 0.44969 0.04705 0.0
O142 O 0.62692 0.50536 0.18276 0.0
H143 H 0.68939 0.36262 0.26109 0.0
H144 H 0.50086 0.42419 0.21288 0.0
H145 H 0.5033 0.40572 0.27693 0.0
H146 H 0.59802 0.37461 0.30141 0.0
H147 H 0.68519 0.38186 0.19725 0.0
H148 H 0.4246 0.32193 0.15913 0.0
H149 H 0.34072 0.35818 0.12941 0.0
O150 O 0.55098 0.46589 0.16658 0.0
C151 C 0.59961 0.46936 0.08947 0.0
C152 C 0.40114 0.40478 0.12222 0.0
C153 C 0.43459 0.34926 0.15022 0.0
N154 N 0.50766 0.39904 0.1443 0.0
C155 C 0.46183 0.4191 0.12779 0.0
C156 C 0.49476 0.36447 0.15533 0.0
C157 C 0.38755 0.36962 0.13355 0.0
C158 C 0.80443 0.45293 0.1244 0.0
N159 N 0.76009 0.47763 0.11421 0.0
C160 C 0.85189 0.44248 0.10045 0.0
C161 C 0.85378 0.45753 0.06588 0.0
C162 C 0.80841 0.48273 0.0557 0.0
C163 C 0.76163 0.49251 0.08035 0.0
C164 C 0.78705 0.59135 0.13426 0.0
C165 C 0.66373 0.56515 0.13286 0.0
C166 C 0.77372 0.55483 0.14039 0.0
N167 N 0.71268 0.54213 0.13942 0.0
C168 C 0.67526 0.60183 0.12657 0.0
C169 C 0.73739 0.61494 0.12727 0.0
C170 C 0.56933 0.49458 0.18249 0.0
C171 C 0.64776 0.37604 0.2507 0.0
C172 C 0.5423 0.41071 0.22332 0.0
C173 C 0.54336 0.40027 0.25961 0.0
C174 C 0.59651 0.38281 0.27333 0.0
N175 N 0.59268 0.40386 0.20126 0.0
C176 C 0.64502 0.38686 0.21455 0.0
Co177 Co 0.83803 0.03838 0.14887 0.0
Co178 Co 0.92798 0.11585 0.14997 0.0
O179 O 0.84555 0.09081 0.1563 0.0
C180 C 0.74747 0.05397 0.21106 0.0
O181 O 0.75947 0.08878 0.21054 0.0
C182 C 0.83042 0.16754 0.11962 0.0
O183 O 0.7898 0.14106 0.11445 0.0
O184 O 0.93307 0.09788 0.09955 0.0
O185 O 0.9025 0.04057 0.10898 0.0
H186 H 0.15528 0.12535 0.11005 0.0
H187 H 0.72046 0.08282 0.14567 0.0
O188 O 0.77378 0.03282 0.18869 0.0
H189 H 0.73073 0.02066 0.02865 0.0
H190 H 0.72364 0.91882 0.13875 0.0
H191 H 0.9318 0.98054 0.13706 0.0
H192 H 0.8134 1.01108 0.07459 0.0
H193 H 0.73134 0.98475 0.14678 0.0
O194 O 0.88528 0.16124 0.13253 0.0
H195 H 0.05222 0.09482 0.11942 0.0
H196 H 0.97716 0.19008 0.16547 0.0
H197 H 0.92618 0.91464 0.12854 0.0
H198 H 0.63628 0.09263 0.10084 0.0
H199 H 0.82151 0.88334 0.12937 0.0
H200 H 0.64107 0.06154 0.04168 0.0
O201 O 0.9054 0.03048 0.18539 0.0
H202 H 0.81955 0.17192 0.25639 0.0
H203 H 0.01712 0.11714 0.21273 0.0
H204 H 1.01036 0.13745 0.27585 0.0
H205 H 0.91109 0.16519 0.29806 0.0
H206 H 0.8281 0.15084 0.19359 0.0
H207 H 0.07931 0.22169 0.15632 0.0
H208 H 0.16935 0.18925 0.12855 0.0
O209 O 0.97584 0.07239 0.16754 0.0
C210 C 0.92937 0.06497 0.08974 0.0
C211 C 0.11645 0.13975 0.12225 0.0
C212 C 0.07379 0.19383 0.14818 0.0
N213 N 1.00875 0.14054 0.14317 0.0
C214 C 0.05798 0.12257 0.12771 0.0
C215 C 0.016 0.1758 0.15321 0.0
C216 C 0.1243 0.17561 0.13262 0.0
C217 C 0.72261 0.0687 0.1204 0.0
N218 N 0.7717 0.0461 0.11315 0.0
C219 C 0.6749 0.07459 0.09491 0.0
C220 C 0.67769 0.05721 0.0617 0.0
C221 C 0.728 0.03431 0.05436 0.0
C222 C 0.77484 0.0291 0.0805 0.0
C223 C 0.76951 0.93216 0.13827 0.0
C224 C 0.88604 0.96716 0.13724 0.0
C225 C 0.77419 0.96948 0.1429 0.0
N226 N 0.83195 0.98654 0.14211 0.0
C227 C 0.88317 0.92982 0.1325 0.0
C228 C 0.82444 0.91227 0.133 0.0
C229 C 0.96098 0.04407 0.18546 0.0
C230 C 0.86311 0.15995 0.24702 0.0
C231 C 0.97359 0.12898 0.2222 0.0
C232 C 0.97014 0.14055 0.25796 0.0
C233 C 0.91446 0.15613 0.2704 0.0
N234 N 0.92302 0.13284 0.1994 0.0
C235 C 0.8683 0.14807 0.21142 0.0
Co236 Co 0.84178 0.49828 0.65516 0.0
Co237 Co 0.9081 0.41754 0.6315 0.0
O238 O 0.83602 0.44542 0.65043 0.0
C239 C 0.75758 0.47443 0.71841 0.0
O240 O 0.75802 0.44022 0.70943 0.0
C241 C 0.79048 0.37968 0.60259 0.0
O242 O 0.75707 0.40912 0.60591 0.0
O243 O 0.90782 0.44707 0.58609 0.0
O244 O 0.8948 0.5018 0.61041 0.0
H245 H 0.11941 0.40364 0.57067 0.0
H246 H 0.71428 0.46149 0.65146 0.0
O247 O 0.7888 0.49796 0.70033 0.0
H248 H 0.71261 0.55308 0.55472 0.0
H249 H 0.76134 0.62291 0.68231 0.0
H250 H 0.94696 0.55138 0.6469 0.0
H251 H 0.80648 0.5459 0.59346 0.0
H252 H 0.75201 0.557 0.67492 0.0
O253 O 0.84959 0.38015 0.60963 0.0
H254 H 0.02955 0.43731 0.59571 0.0
H255 H 0.93865 0.33904 0.62646 0.0
H256 H 0.95817 0.61729 0.65364 0.0
H257 H 0.61908 0.46826 0.61407 0.0
H258 H 0.86492 0.65352 0.67148 0.0
H259 H 0.61765 0.51425 0.56504 0.0
O260 O 0.9195 0.49329 0.68551 0.0
H261 H 0.80945 0.34581 0.73298 0.0
H262 H 1.0093 0.39475 0.68307 0.0
H263 H 0.01122 0.36034 0.74018 0.0
H264 H 0.9108 0.33545 0.76547 0.0
H265 H 0.8096 0.38074 0.6762 0.0
H266 H 0.02741 0.30434 0.60155 0.0
H267 H 0.11876 0.33664 0.57349 0.0
O268 O 0.97071 0.45212 0.65308 0.0
C269 C 0.91119 0.48154 0.58434 0.0
C270 C 0.07991 0.38925 0.58285 0.0
C271 C 0.02824 0.33352 0.60013 0.0
N272 N 0.97875 0.39024 0.61253 0.0
C273 C 0.02884 0.40817 0.5971 0.0
C274 C 0.97797 0.35335 0.61408 0.0
C275 C 0.07949 0.35166 0.58442 0.0
C276 C 0.71414 0.48201 0.63087 0.0
N277 N 0.7662 0.50352 0.62523 0.0
C278 C 0.65999 0.48552 0.60943 0.0
C279 C 0.65926 0.51124 0.58188 0.0
C280 C 0.71252 0.53298 0.57605 0.0
C281 C 0.76579 0.52866 0.59803 0.0
C282 C 0.8023 0.60742 0.67448 0.0
C283 C 0.90605 0.56696 0.65447 0.0
C284 C 0.79738 0.57005 0.67036 0.0
N285 N 0.84883 0.55032 0.66026 0.0
C286 C 0.91274 0.60427 0.65833 0.0
C287 C 0.86042 0.62458 0.66838 0.0
C288 C 0.96989 0.47656 0.67714 0.0
C289 C 0.85356 0.35642 0.7222 0.0
C290 C 0.96532 0.38422 0.69395 0.0
C291 C 0.96675 0.36464 0.72627 0.0
C292 C 0.91041 0.35066 0.74043 0.0
N293 N 0.90938 0.38967 0.67612 0.0
C294 C 0.85396 0.37614 0.68993 0.0
Co295 Co 0.68992 0.04933 0.64251 0.0
Co296 Co 0.5946 0.12419 0.64484 0.0
O297 O 0.67717 0.101 0.65031 0.0
C298 C 0.74564 0.05515 0.71633 0.0
O299 O 0.69053 0.0662 0.72821 0.0
C300 C 0.68323 0.17225 0.60296 0.0
O301 O 0.71043 0.14342 0.58986 0.0
O302 O 0.58397 0.10348 0.59543 0.0
O303 O 0.6274 0.04875 0.60192 0.0
H304 H 0.36349 0.12852 0.61226 0.0
H305 H 0.80204 0.09816 0.64486 0.0
O306 O 0.7535 0.04836 0.68295 0.0
H307 H 0.80658 0.04266 0.52417 0.0
H308 H 0.82139 0.93702 0.63344 0.0
H309 H 0.60539 0.98654 0.62807 0.0
H310 H 0.72208 0.0267 0.56755 0.0
H311 H 0.80368 1.00209 0.6421 0.0
O312 O 0.63623 0.16894 0.62432 0.0
H313 H 0.46768 0.09983 0.61994 0.0
H314 H 0.54661 0.19863 0.65751 0.0
H315 H 0.62105 0.92138 0.61894 0.0
H316 H 0.88784 0.11459 0.60245 0.0
H317 H 0.72969 0.8962 0.62161 0.0
H318 H 0.89035 0.08684 0.54157 0.0
O319 O 0.6198 0.0367 0.6766 0.0
H320 H 0.71485 0.18531 0.74484 0.0
H321 H 0.51162 0.12861 0.71 0.0
H322 H 0.52518 0.15188 0.77179 0.0
H323 H 0.62737 0.18058 0.78954 0.0
H324 H 0.69941 0.16134 0.68342 0.0
H325 H 0.4434 0.22846 0.64993 0.0
H326 H 0.35086 0.1933 0.6273 0.0
O327 O 0.55026 0.08101 0.666 0.0
C328 C 0.59289 0.07115 0.58477 0.0
C329 C 0.40341 0.1441 0.62223 0.0
C330 C 0.44829 0.2002 0.64332 0.0
N331 N 0.51311 0.14746 0.63933 0.0
C332 C 0.46251 0.12799 0.6267 0.0
C333 C 0.50667 0.18319 0.64745 0.0
C334 C 0.39638 0.18046 0.63064 0.0
C335 C 0.80317 0.0857 0.61855 0.0
N336 N 0.75723 0.06142 0.60875 0.0
C337 C 0.85171 0.09523 0.59459 0.0
C338 C 0.85303 0.0797 0.56041 0.0
C339 C 0.806 0.05494 0.55062 0.0
C340 C 0.75814 0.0461 0.57526 0.0
C341 C 0.77384 0.94767 0.63214 0.0
C342 C 0.65286 0.97585 0.62905 0.0
C343 C 0.76349 0.98449 0.63709 0.0
N344 N 0.7036 0.99817 0.63529 0.0
C345 C 0.66141 0.9389 0.62396 0.0
C346 C 0.72237 0.92479 0.62549 0.0
C347 C 0.56487 0.05051 0.67973 0.0
C348 C 0.67006 0.17294 0.73741 0.0
C349 C 0.5563 0.14088 0.71754 0.0
C350 C 0.56365 0.15412 0.75255 0.0
C351 C 0.62098 0.17023 0.76249 0.0
N352 N 0.60458 0.14371 0.69307 0.0
C353 C 0.66096 0.15942 0.70264 0.0
Co354 Co 0.33845 0.55048 0.86571 0.0
Co355 Co 0.43942 0.62348 0.86225 0.0
O356 O 0.35477 0.60188 0.85668 0.0
C357 C 0.26891 0.52922 0.79969 0.0
O358 O 0.3131 0.50495 0.79506 0.0
C359 C 0.3508 0.67639 0.89683 0.0
O360 O 0.31454 0.64965 0.90803 0.0
O361 O 0.44453 0.60462 0.91271 0.0
O362 O 0.40292 0.54916 0.9055 0.0
H363 H 0.66871 0.62403 0.89926 0.0
H364 H 0.22827 0.59978 0.86431 0.0
O365 O 0.27295 0.5511 0.82609 0.0
H366 H 0.22779 0.54549 0.98621 0.0
H367 H 0.20002 0.43983 0.88175 0.0
H368 H 0.41955 0.48669 0.87817 0.0
H369 H 0.30942 0.52897 0.94186 0.0
H370 H 0.22128 0.5046 0.87119 0.0
O371 O 0.40173 0.67005 0.87961 0.0
H372 H 0.56207 0.59747 0.89116 0.0
H373 H 0.49608 0.69605 0.84643 0.0
H374 H 0.40041 0.42177 0.88891 0.0
H375 H 0.14503 0.61653 0.90763 0.0
H376 H 0.28998 0.39794 0.89075 0.0
H377 H 0.1446 0.58943 0.96915 0.0
O378 O 0.40605 0.53757 0.8305 0.0
H379 H 0.33243 0.68329 0.75672 0.0
H380 H 0.52657 0.62289 0.79868 0.0
H381 H 0.51959 0.64408 0.73559 0.0
H382 H 0.42206 0.67466 0.71426 0.0
H383 H 0.34116 0.66132 0.81951 0.0
H384 H 0.6019 0.72376 0.85433 0.0
H385 H 0.6892 0.68762 0.88076 0.0
O386 O 0.48084 0.57852 0.84427 0.0
C387 C 0.43591 0.57204 0.92328 0.0
C388 C 0.63111 0.64003 0.88763 0.0
C389 C 0.59359 0.69601 0.86245 0.0
N390 N 0.52294 0.6451 0.86816 0.0
C391 C 0.57063 0.62511 0.88291 0.0
C392 C 0.5337 0.6802 0.85815 0.0
C393 C 0.64255 0.67572 0.87728 0.0
C394 C 0.22798 0.58751 0.89086 0.0
N395 N 0.27365 0.56337 0.90045 0.0
C396 C 0.18091 0.59727 0.91535 0.0
C397 C 0.18078 0.58212 0.94989 0.0
C398 C 0.2275 0.55751 0.9595 0.0
C399 C 0.27384 0.54841 0.93431 0.0
C400 C 0.24835 0.44989 0.88105 0.0
C401 C 0.37135 0.47656 0.879 0.0
C402 C 0.26069 0.48654 0.87509 0.0
N403 N 0.32162 0.49946 0.87417 0.0
C404 C 0.36081 0.43976 0.88507 0.0
C405 C 0.29884 0.42641 0.88609 0.0
C406 C 0.46313 0.54921 0.82922 0.0
C407 C 0.37526 0.67011 0.76573 0.0
C408 C 0.48386 0.63604 0.7896 0.0
C409 C 0.48026 0.64806 0.75385 0.0
C410 C 0.42553 0.66522 0.7419 0.0
N411 N 0.43446 0.64108 0.81286 0.0
C412 C 0.38056 0.65773 0.80129 0.0
Co413 Co 0.17788 0.9974 0.85823 0.0
Co414 Co 0.08889 0.9196 0.85765 0.0
O415 O 0.17101 0.94489 0.85145 0.0
C416 C 0.26952 0.981 0.79681 0.0
O417 O 0.25835 0.94612 0.79811 0.0
C418 C 0.18574 0.86972 0.89117 0.0
O419 O 0.223 0.89719 0.89873 0.0
O420 O 0.08273 0.9382 0.90778 0.0
O421 O 0.11307 0.99551 0.89798 0.0
H422 H 0.86118 0.90929 0.89656 0.0
H423 H 0.29566 0.95308 0.86265 0.0
O424 O 0.24239 1.00251 0.81852 0.0
H425 H 0.284 1.01743 0.97841 0.0
H426 H 0.2911 0.11742 0.86685 0.0
H427 H 0.0835 0.05511 0.8691 0.0
H428 H 0.20166 0.02596 0.93208 0.0
H429 H 0.28404 0.05137 0.85974 0.0
O430 O 0.13239 0.87477 0.87584 0.0
H431 H 0.96383 0.9403 0.88728 0.0
H432 H 0.04135 0.8449 0.84291 0.0
H433 H 0.08847 0.12115 0.8767 0.0
H434 H 0.37954 0.94432 0.90785 0.0
H435 H 0.19285 0.15275 0.87559 0.0
H436 H 0.37407 0.97652 0.96639 0.0
O437 O 0.11073 1.00464 0.8214 0.0
H438 H 0.20007 0.86235 0.75286 0.0
H439 H 1.00105 0.91719 0.79429 0.0
H440 H 1.00943 0.89606 0.73151 0.0
H441 H 0.10945 0.86831 0.71042 0.0
H442 H 0.18988 0.88422 0.81532 0.0
H443 H 0.93964 0.81279 0.85197 0.0
H444 H 0.84857 0.84506 0.87885 0.0
O445 O 0.04053 0.9626 0.83924 0.0
C446 C 0.08614 0.97121 0.91732 0.0
C447 C 0.90045 0.89496 0.88474 0.0
C448 C 0.94451 0.8408 0.85975 0.0
N449 N 1.00848 0.89453 0.86437 0.0
C450 C 0.95869 0.91241 0.87934 0.0
C451 C 1.00205 0.85911 0.85477 0.0
C452 C 0.89343 0.85892 0.87482 0.0
C453 C 0.29324 0.96773 0.8876 0.0
N454 N 0.24396 0.99037 0.89427 0.0
C455 C 0.34077 0.96241 0.91333 0.0
C456 C 0.3376 0.9804 0.9462 0.0
C457 C 0.28706 1.00331 0.95297 0.0
C458 C 0.24041 1.00794 0.9266 0.0
C459 C 0.24535 0.10396 0.86745 0.0
C460 C 0.12913 0.06862 0.86881 0.0
C461 C 0.24103 0.06656 0.86335 0.0
N462 N 0.18342 0.04934 0.86429 0.0
C463 C 0.13163 0.10604 0.87303 0.0
C464 C 0.19021 0.12376 0.87236 0.0
C465 C 0.05528 0.99085 0.82118 0.0
C466 C 0.1562 0.87434 0.76173 0.0
C467 C 0.04491 0.90537 0.78531 0.0
C468 C 0.04927 0.89332 0.74973 0.0
C469 C 0.10537 0.87773 0.73793 0.0
N470 N 0.09501 0.90196 0.80851 0.0
C471 C 0.15011 0.88669 0.79712 0.0
H472 H 0.3807 0.56341 0.29337 0.0
H473 H 0.24956 0.54324 0.20613 0.0
H474 H 0.33686 0.5235 0.16781 0.0
H475 H 0.44856 0.50607 0.16142 0.0
H476 H 0.58081 0.52848 0.24743 0.0
H477 H 0.49509 0.55365 0.28391 0.0
C478 C 0.37145 0.55525 0.26575 0.0
C479 C 0.30869 0.55443 0.25268 0.0
C480 C 0.42194 0.54413 0.24382 0.0
C481 C 0.2974 0.5442 0.21678 0.0
C482 C 0.34725 0.53267 0.19494 0.0
C483 C 0.45868 0.517 0.18796 0.0
C484 C 0.5206 0.51516 0.20197 0.0
C485 C 0.40938 0.53163 0.20852 0.0
C486 C 0.53348 0.52973 0.23613 0.0
C487 C 0.48443 0.54389 0.25702 0.0
H488 H 0.08597 0.03874 0.16953 0.0
H489 H 0.9473 1.0111 0.25086 0.0
H490 H 0.03117 0.98812 0.29028 0.0
H491 H 0.1447 0.97946 0.30299 0.0
H492 H 0.28265 1.00325 0.2201 0.0
H493 H 0.1983 0.02382 0.17968 0.0
C494 C 0.0742 0.02739 0.19578 0.0
C495 C 0.01077 0.02687 0.2075 0.0
C496 C 0.12247 1.01361 0.21796 0.0
C497 C 0.99584 1.01168 0.2413 0.0
C498 C 0.04376 0.99871 0.26387 0.0
C499 C 0.15611 0.9888 0.27591 0.0
C500 C 0.21974 0.99017 0.26458 0.0
C501 C 0.10732 1.00004 0.25269 0.0
C502 C 0.23397 1.00187 0.22935 0.0
C503 C 0.18582 1.01383 0.20633 0.0
H504 H 0.8787 0.48648 0.20524 0.0
H505 H 0.7481 0.50454 0.29278 0.0
H506 H 0.83554 0.52533 0.33104 0.0
H507 H 0.94813 0.54181 0.33836 0.0
H508 H 0.07983 0.52068 0.25216 0.0
H509 H 0.99301 0.49749 0.21465 0.0
C510 C 0.8695 0.49464 0.23283 0.0
C511 C 0.80689 0.49423 0.24607 0.0
C512 C 0.92012 0.50619 0.2548 0.0
C513 C 0.7958 0.5045 0.28196 0.0
C514 C 0.84575 0.51658 0.30379 0.0
C515 C 0.95783 0.53193 0.31142 0.0
C516 C 0.02017 0.53331 0.29786 0.0
C517 C 0.90791 0.51811 0.29029 0.0
C518 C 0.03226 0.5199 0.26317 0.0
C519 C 0.98261 0.50676 0.24169 0.0
H520 H 0.63924 0.08481 0.23686 0.0
H521 H 0.74944 0.98739 0.24109 0.0
H522 H 0.66907 0.95836 0.27893 0.0
H523 H 0.56634 0.95956 0.30872 0.0
H524 H 0.45087 0.05493 0.30169 0.0
H525 H 0.53437 0.08582 0.26722 0.0
C526 C 0.64582 0.05741 0.2465 0.0
C527 C 0.70033 0.03833 0.23638 0.0
C528 C 0.59827 0.04039 0.26747 0.0
C529 C 0.70787 1.00262 0.24852 0.0
C530 C 0.66191 0.98597 0.27011 0.0
C531 C 0.55903 0.98708 0.29967 0.0
C532 C 0.50192 1.00468 0.30767 0.0
C533 C 0.6066 1.00441 0.27935 0.0
C534 C 0.49403 0.04051 0.29577 0.0
C535 C 0.54188 0.05826 0.27609 0.0
H536 H 0.58818 0.56581 0.82186 0.0
H537 H 0.44888 0.48479 0.79301 0.0
H538 H 0.52968 0.452 0.75933 0.0
H539 H 0.63898 0.4486 0.73471 0.0
H540 H 0.77483 0.53182 0.76213 0.0
H541 H 0.69647 0.56112 0.80014 0.0
C542 C 0.57512 0.54092 0.80836 0.0
C543 C 0.51205 0.52811 0.80977 0.0
C544 C 0.62153 0.52242 0.78888 0.0
C545 C 0.49677 0.49557 0.79221 0.0
C546 C 0.54307 0.47672 0.77298 0.0
C547 C 0.65167 0.47267 0.7497 0.0
C548 C 0.71278 0.48789 0.74585 0.0
C549 C 0.60552 0.49012 0.77075 0.0
C550 C 0.72822 0.51953 0.76479 0.0
C551 C 0.68334 0.53641 0.78637 0.0
H552 H 0.87239 0.0567 0.70358 0.0
H553 H 0.73418 0.03349 0.7865 0.0
H554 H 0.81805 1.01192 0.82664 0.0
H555 H 0.93009 0.9963 0.83678 0.0
H556 H 0.06926 0.02352 0.75561 0.0
H557 H 0.98581 0.047 0.71619 0.0
C558 C 0.86082 0.04726 0.7306 0.0
C559 C 0.79717 0.04643 0.74199 0.0
C560 C 0.9094 0.03543 0.75372 0.0
C561 C 0.78282 0.03451 0.77716 0.0
C562 C 0.83071 0.02197 0.80004 0.0
C563 C 0.94206 1.00762 0.81054 0.0
C564 C 1.00554 1.00791 0.7989 0.0
C565 C 0.89403 0.02177 0.78839 0.0
C566 C 0.02069 0.02308 0.76512 0.0
C567 C 0.97299 0.03637 0.74255 0.0
H568 H 0.24667 0.48767 0.74097 0.0
H569 H 0.15807 0.56627 0.80953 0.0
H570 H 0.05787 0.55809 0.77711 0.0
H571 H 0.99365 0.52586 0.73111 0.0
H572 H 0.08512 0.44712 0.66353 0.0
H573 H 0.18514 0.45818 0.69377 0.0
C574 C 0.20567 0.50328 0.74872 0.0
C575 C 0.21002 0.5274 0.77776 0.0
C576 C 0.14816 0.4982 0.73027 0.0
C577 C 0.15627 0.54751 0.78722 0.0
C578 C 0.09875 0.54272 0.76879 0.0
C579 C 0.03549 0.51124 0.72293 0.0
C580 C 0.03108 0.48538 0.69523 0.0
C581 C 0.09381 0.51769 0.74057 0.0
C582 C 0.08627 0.46695 0.68489 0.0
C583 C 0.14394 0.47325 0.70216 0.0
H584 H 0.37974 0.95086 0.77286 0.0
H585 H 0.26501 0.04634 0.76448 0.0
H586 H 0.34488 0.07532 0.72633 0.0
H587 H 0.44812 0.0748 0.69757 0.0
H588 H 0.56838 0.9817 0.70837 0.0
H589 H 0.48552 0.95052 0.74323 0.0
C590 C 0.37211 0.97781 0.76223 0.0
C591 C 0.31646 0.99639 0.77128 0.0
C592 C 0.41936 0.99486 0.74106 0.0
C593 C 0.30747 0.03152 0.75788 0.0
C594 C 0.35314 0.04814 0.73612 0.0
C595 C 0.4567 0.04771 0.70751 0.0
C596 C 0.5149 0.03083 0.70048 0.0
C597 C 0.40954 0.03028 0.72797 0.0
C598 C 0.52433 0.99554 0.71352 0.0
C599 C 0.47687 0.97764 0.73343 0.0
H600 H 0.03131 0.58529 0.46604 0.0
H601 H 0.116 0.48529 0.4324 0.0
H602 H 0.05923 0.45275 0.47976 0.0
H603 H 0.98524 0.45223 0.53121 0.0
H604 H 0.90505 0.55291 0.56633 0.0
H605 H 0.9589 0.58493 0.51781 0.0
C606 C 0.03777 0.55644 0.46917 0.0
C607 C 0.07815 0.53802 0.44552 0.0
C608 C 1.00483 0.53762 0.49659 0.0
C609 C 0.08542 0.50046 0.45008 0.0
C610 C 0.05269 0.48163 0.47717 0.0
C611 C 0.97903 0.48109 0.52806 0.0
C612 C 0.94027 0.4998 0.55239 0.0
C613 C 0.01196 0.49986 0.50053 0.0
C614 C 0.93369 0.53742 0.54795 0.0
C615 C 0.96502 0.556 0.52026 0.0
H616 H 0.4174 0.03353 0.45144 0.0
H617 H 0.5018 0.92884 0.46752 0.0
H618 H 0.56401 0.95273 0.51789 0.0
H619 H 0.59534 1.00327 0.55665 0.0
H620 H 0.51084 0.10793 0.5405 0.0
H621 H 0.44859 0.08399 0.49021 0.0
C622 C 0.44911 1.01571 0.46595 0.0
C623 C 0.45453 0.97924 0.45556 0.0
C624 C 0.48533 0.02972 0.49459 0.0
C625 C 0.49617 0.95687 0.47489 0.0
C626 C 0.53208 0.97059 0.50361 0.0
C627 C 0.56359 0.02105 0.54214 0.0
C628 C 0.55818 0.05754 0.55249 0.0
C629 C 0.52731 1.00701 0.51352 0.0
C630 C 0.51645 0.07988 0.53318 0.0
C631 C 0.48053 0.06614 0.50449 0.0
H632 H 0.60273 0.53728 0.06081 0.0
H633 H 0.52223 0.43109 0.04355 0.0
H634 H 0.46344 0.45391 0.99147 0.0
H635 H 0.43387 0.50392 0.95151 0.0
H636 H 0.51424 0.61014 0.96883 0.0
H637 H 0.57343 0.58724 0.02073 0.0
C638 C 0.57262 0.51894 0.04565 0.0
C639 C 0.56722 0.48237 0.05623 0.0
C640 C 0.53838 0.53231 0.01598 0.0
C641 C 0.52771 0.45925 0.03608 0.0
C642 C 0.49378 0.47234 0.00636 0.0
C643 C 0.46406 0.52225 0.96663 0.0
C644 C 0.46921 0.55886 0.95617 0.0
C645 C 0.49847 0.50885 0.99623 0.0
C646 C 0.50892 0.58195 0.97623 0.0
C647 C 0.54306 0.56882 0.00585 0.0
H648 H 0.0806 0.03922 0.94491 0.0
H649 H 0.01955 0.92944 0.96591 0.0
H650 H 0.9651 0.94905 0.02047 0.0
H651 H 0.93467 0.99709 0.06196 0.0
H652 H 0.99579 0.10687 0.04111 0.0
H653 H 0.05013 0.0873 0.98646 0.0
C654 C 0.05562 0.01942 0.96138 0.0
C655 C 0.05453 0.98276 0.95118 0.0
C656 C 0.02413 0.03089 0.99265 0.0
C657 C 0.02155 0.95774 0.97302 0.0
C658 C 0.99021 0.96896 0.00422 0.0
C659 C 0.95962 1.01691 0.04551 0.0
C660 C 0.96078 0.05354 0.05577 0.0
C661 C 0.99109 1.00546 0.01423 0.0
C662 C 0.99373 0.07859 0.03395 0.0
C663 C 0.02501 0.06739 1.0027 0.0
H664 H 0.14537 0.72816 0.40971 0.0
H665 H 0.32633 0.67497 0.40787 0.0
H666 H 0.38095 0.73346 0.4088 0.0
H667 H 0.37732 0.80004 0.40619 0.0
H668 H 0.19674 0.85325 0.4123 0.0
H669 H 0.14215 0.7947 0.41392 0.0
C670 C 0.19678 0.72941 0.40996 0.0
C671 C 0.23167 0.6972 0.40854 0.0
C672 C 0.228 0.76321 0.4111 0.0
C673 C 0.29827 0.69927 0.40914 0.0
C674 C 0.32958 0.73276 0.40946 0.0
C675 C 0.32604 0.79877 0.40828 0.0
C676 C 0.29115 0.831 0.4089 0.0
C677 C 0.29497 0.76494 0.40986 0.0
C678 C 0.22478 0.82891 0.41194 0.0
C679 C 0.19348 0.79539 0.41267 0.0
H680 H 0.7107 0.19497 0.11861 0.0
H681 H 0.9076 0.22608 0.10909 0.0
H682 H 0.87801 0.28955 0.10516 0.0
H683 H 0.79657 0.33679 0.10808 0.0
H684 H 0.6004 0.30571 0.12177 0.0
H685 H 0.62916 0.24208 0.12022 0.0
C686 C 0.74705 0.21561 0.11518 0.0
C687 C 0.81126 0.20568 0.11404 0.0
C688 C 0.72981 0.25226 0.1139 0.0
C689 C 0.8578 0.2329 0.11011 0.0
C690 C 0.84093 0.26927 0.10788 0.0
C691 C 0.76007 0.31608 0.11026 0.0
C692 C 0.69641 0.32609 0.11498 0.0
C693 C 0.77714 0.27937 0.11027 0.0
C694 C 0.64981 0.29883 0.11824 0.0
C695 C 0.6662 0.26237 0.11735 0.0
H696 H 0.62436 0.23704 0.60963 0.0
H697 H 0.80342 0.18978 0.5809 0.0
H698 H 0.85138 0.24996 0.57574 0.0
H699 H 0.84442 0.31582 0.58371 0.0
H700 H 0.66457 0.36312 0.61088 0.0
H701 H 0.61493 0.30326 0.61178 0.0
C702 C 0.67376 0.2399 0.60192 0.0
C703 C 0.71035 0.20884 0.59597 0.0
C704 C 0.70096 0.27466 0.59874 0.0
C705 C 0.77409 0.21313 0.5856 0.0
C706 C 0.80164 0.24758 0.58278 0.0
C707 C 0.79416 0.31311 0.58939 0.0
C708 C 0.75847 0.34406 0.59747 0.0
C709 C 0.76582 0.27852 0.58989 0.0
C710 C 0.69327 0.33994 0.60445 0.0
C711 C 0.66487 0.30562 0.60521 0.0
H712 H 0.23032 0.70151 0.90437 0.0
H713 H 0.42532 0.73686 0.89693 0.0
H714 H 0.39208 0.79984 0.89762 0.0
H715 H 0.30713 0.84512 0.89637 0.0
H716 H 0.11188 0.80951 0.89914 0.0
H717 H 0.1455 0.74681 0.90442 0.0
C718 C 0.26556 0.72302 0.90344 0.0
C719 C 0.33024 0.71442 0.90075 0.0
C720 C 0.24596 0.75929 0.90276 0.0
C721 C 0.37521 0.74267 0.89898 0.0
C722 C 0.35623 0.77875 0.89933 0.0
C723 C 0.27199 0.82366 0.89863 0.0
C724 C 0.20707 0.83208 0.89746 0.0
C725 C 0.29167 0.78743 0.90064 0.0
C726 C 0.16216 0.80384 0.89989 0.0
C727 C 0.18135 0.76792 0.9029 0.0
loop_
_geom_bond_atom_site_label_1
_geom_bond_atom_site_label_2
_geom_bond_distance
_geom_bond_site_symmetry_2
_ccdc_geom_bond_type
Co0 O2 2.143 . S
Co0 O8 2.074 . S
Co0 O11 2.093 . S
Co0 O24 2.097 . S
Co0 N41 2.151 . S
Co0 N49 2.214 . S
Co1 O2 2.160 . S
Co1 O7 2.058 . S
Co1 O17 2.057 . S
Co1 O32 2.037 . S
Co1 N36 2.145 . S
Co1 N57 2.257 . S
O2 Co0 2.143 . S
O2 Co1 2.160 . S
C3 O4 1.278 . S
C3 O11 1.224 . S
O4 C3 1.278 . S
C5 O6 1.245 . S
C5 O17 1.232 . S
O6 C5 1.245 . S
O7 Co1 2.058 . S
O7 C33 1.269 . S
O8 Co0 2.074 . S
O8 C33 1.257 . S
H9 C34 0.930 . S
H10 C40 0.930 . S
O11 Co0 2.093 . S
O11 C3 1.224 . S
H12 C44 0.929 . S
H13 C46 0.930 . S
H14 C47 0.930 . S
H15 C45 0.929 . S
H16 C48 0.928 . S
O17 Co1 2.057 . S
O17 C5 1.232 . S
H18 C37 0.929 . S
H19 C38 0.929 . S
H20 C50 0.931 . S
H21 C42 0.929 . S
H22 C51 0.930 . S
H23 C43 0.931 . S
O24 Co0 2.097 . S
O24 C52 1.214 . S
H25 C53 0.929 . S
H26 C54 0.929 . S
H27 C55 0.930 . S
H28 C56 0.929 . S
H29 C58 0.930 . S
H30 C35 0.930 . S
H31 C39 0.930 . S
O32 Co1 2.037 . S
O32 C52 1.234 . S
C33 O7 1.269 . S
C33 O8 1.257 . S
C34 H9 0.930 . S
C34 C37 1.388 . S
C34 C39 1.418 . S
C35 H30 0.930 . S
C35 C38 1.404 1_655 S
C35 C39 1.353 . S
N36 Co1 2.145 . S
N36 C37 1.397 1_455 S
N36 C38 1.334 . S
C37 H18 0.929 . S
C37 C34 1.388 . S
C37 N36 1.397 1_655 S
C38 H19 0.929 . S
C38 C35 1.404 1_455 S
C38 N36 1.334 . S
C39 H31 0.930 . S
C39 C34 1.418 . S
C39 C35 1.353 . S
C40 H10 0.930 . S
C40 N41 1.330 . S
C40 C42 1.446 . S
N41 Co0 2.151 . S
N41 C40 1.330 . S
N41 C45 1.418 . S
C42 H21 0.929 . S
C42 C40 1.446 . S
C42 C43 1.332 . S
C43 H23 0.931 . S
C43 C42 1.332 . S
C43 C44 1.267 . S
C44 H12 0.929 . S
C44 C43 1.267 . S
C44 C45 1.251 . S
C45 H15 0.929 . S
C45 N41 1.418 . S
C45 C44 1.251 . S
C46 H13 0.930 . S
C46 C48 1.406 . S
C46 C51 1.261 . S
C47 H14 0.930 . S
C47 N49 1.325 . S
C47 C50 1.357 . S
C48 H16 0.928 . S
C48 C46 1.406 . S
C48 N49 1.261 . S
N49 Co0 2.214 . S
N49 C47 1.325 . S
N49 C48 1.261 . S
C50 H20 0.931 . S
C50 C47 1.357 . S
C50 C51 1.312 . S
C51 H22 0.930 . S
C51 C46 1.261 . S
C51 C50 1.312 . S
C52 O24 1.214 . S
C52 O32 1.234 . S
C53 H25 0.929 . S
C53 C56 1.391 . S
C53 C58 1.391 . S
C54 H26 0.929 . S
C54 C55 1.390 . S
C54 N57 1.391 . S
C55 H27 0.930 . S
C55 C54 1.390 . S
C55 C56 1.392 . S
C56 H28 0.929 . S
C56 C53 1.391 . S
C56 C55 1.392 . S
N57 Co1 2.257 . S
N57 C54 1.391 . S
N57 C58 1.388 . S
C58 H29 0.930 . S
C58 C53 1.391 . S
C58 N57 1.388 . S
Co59 O61 2.143 . S
Co59 O67 2.074 . S
Co59 O70 2.093 . S
Co59 O83 2.097 . S
Co59 N100 2.151 . S
Co59 N108 2.214 1_565 S
Co60 O61 2.160 . S
Co60 O66 2.058 . S
Co60 O76 2.057 . S
Co60 O91 2.037 . S
Co60 N95 2.145 . S
Co60 N116 2.257 . S
O61 Co59 2.143 . S
O61 Co60 2.160 . S
C62 O63 1.278 . S
C62 O70 1.224 . S
O63 C62 1.278 . S
C64 O65 1.245 . S
C64 O76 1.232 . S
O65 C64 1.245 . S
O66 Co60 2.058 . S
O66 C92 1.269 . S
O67 Co59 2.074 . S
O67 C92 1.257 . S
H68 C93 0.930 . S
H69 C99 0.930 . S
O70 Co59 2.093 . S
O70 C62 1.224 . S
H71 C103 0.929 . S
H72 C105 0.930 . S
H73 C106 0.930 . S
H74 C104 0.929 . S
H75 C107 0.928 . S
O76 Co60 2.057 . S
O76 C64 1.232 . S
H77 C96 0.929 . S
H78 C97 0.929 . S
H79 C109 0.931 . S
H80 C101 0.929 . S
H81 C110 0.930 . S
H82 C102 0.931 1_545 S
O83 Co59 2.097 . S
O83 C111 1.214 . S
H84 C112 0.929 . S
H85 C113 0.929 . S
H86 C114 0.930 . S
H87 C115 0.929 . S
H88 C117 0.930 . S
H89 C94 0.930 . S
H90 C98 0.930 . S
O91 Co60 2.037 . S
O91 C111 1.234 . S
C92 O66 1.269 . S
C92 O67 1.257 . S
C93 H68 0.930 . S
C93 C96 1.388 . S
C93 C98 1.418 . S
C94 H89 0.930 . S
C94 C97 1.404 . S
C94 C98 1.353 . S
N95 Co60 2.145 . S
N95 C96 1.397 . S
N95 C97 1.334 . S
C96 H77 0.929 . S
C96 C93 1.388 . S
C96 N95 1.397 . S
C97 H78 0.929 . S
C97 C94 1.404 . S
C97 N95 1.334 . S
C98 H90 0.930 . S
C98 C93 1.418 . S
C98 C94 1.353 . S
C99 H69 0.930 . S
C99 N100 1.330 . S
C99 C101 1.446 . S
N100 Co59 2.151 . S
N100 C99 1.330 . S
N100 C104 1.418 1_565 S
C101 H80 0.929 . S
C101 C99 1.446 . S
C101 C102 1.332 . S
C102 H82 0.931 1_565 S
C102 C101 1.332 . S
C102 C103 1.267 1_565 S
C103 H71 0.929 . S
C103 C102 1.267 1_545 S
C103 C104 1.251 . S
C104 H74 0.929 . S
C104 N100 1.418 1_545 S
C104 C103 1.251 . S
C105 H72 0.930 . S
C105 C107 1.406 . S
C105 C110 1.261 . S
C106 H73 0.930 . S
C106 N108 1.325 . S
C106 C109 1.357 . S
C107 H75 0.928 . S
C107 C105 1.406 . S
C107 N108 1.261 . S
N108 Co59 2.214 1_545 S
N108 C106 1.325 . S
N108 C107 1.261 . S
C109 H79 0.931 . S
C109 C106 1.357 . S
C109 C110 1.312 . S
C110 H81 0.930 . S
C110 C105 1.261 . S
C110 C109 1.312 . S
C111 O83 1.214 . S
C111 O91 1.234 . S
C112 H84 0.929 . S
C112 C115 1.391 . S
C112 C117 1.391 . S
C113 H85 0.929 . S
C113 C114 1.390 . S
C113 N116 1.391 . S
C114 H86 0.930 . S
C114 C113 1.390 . S
C114 C115 1.392 . S
C115 H87 0.929 . S
C115 C112 1.391 . S
C115 C114 1.392 . S
N116 Co60 2.257 . S
N116 C113 1.391 . S
N116 C117 1.388 . S
C117 H88 0.930 . S
C117 C112 1.391 . S
C117 N116 1.388 . S
Co118 O120 2.143 . S
Co118 O126 2.074 . S
Co118 O129 2.093 . S
Co118 O142 2.097 . S
Co118 N159 2.151 . S
Co118 N167 2.214 . S
Co119 O120 2.160 . S
Co119 O125 2.058 . S
Co119 O135 2.057 . S
Co119 O150 2.037 . S
Co119 N154 2.145 . S
Co119 N175 2.257 . S
O120 Co118 2.143 . S
O120 Co119 2.160 . S
C121 O122 1.278 . S
C121 O129 1.224 . S
O122 C121 1.278 . S
C123 O124 1.245 . S
C123 O135 1.232 . S
O124 C123 1.245 . S
O125 Co119 2.058 . S
O125 C151 1.269 . S
O126 Co118 2.074 . S
O126 C151 1.257 . S
H127 C152 0.930 . S
H128 C158 0.930 . S
O129 Co118 2.093 . S
O129 C121 1.224 . S
H130 C162 0.929 . S
H131 C164 0.930 . S
H132 C165 0.930 . S
H133 C163 0.929 . S
H134 C166 0.928 . S
O135 Co119 2.057 . S
O135 C123 1.232 . S
H136 C155 0.929 . S
H137 C156 0.929 . S
H138 C168 0.931 . S
H139 C160 0.929 . S
H140 C169 0.930 . S
H141 C161 0.931 . S
O142 Co118 2.097 . S
O142 C170 1.214 . S
H143 C171 0.929 . S
H144 C172 0.929 . S
H145 C173 0.930 . S
H146 C174 0.929 . S
H147 C176 0.930 . S
H148 C153 0.930 . S
H149 C157 0.930 . S
O150 Co119 2.037 . S
O150 C170 1.234 . S
C151 O125 1.269 . S
C151 O126 1.257 . S
C152 H127 0.930 . S
C152 C155 1.388 . S
C152 C157 1.418 . S
C153 H148 0.930 . S
C153 C156 1.404 . S
C153 C157 1.353 . S
N154 Co119 2.145 . S
N154 C155 1.397 . S
N154 C156 1.334 . S
C155 H136 0.929 . S
C155 C152 1.388 . S
C155 N154 1.397 . S
C156 H137 0.929 . S
C156 C153 1.404 . S
C156 N154 1.334 . S
C157 H149 0.930 . S
C157 C152 1.418 . S
C157 C153 1.353 . S
C158 H128 0.930 . S
C158 N159 1.330 . S
C158 C160 1.446 . S
N159 Co118 2.151 . S
N159 C158 1.330 . S
N159 C163 1.418 . S
C160 H139 0.929 . S
C160 C158 1.446 . S
C160 C161 1.332 . S
C161 H141 0.931 . S
C161 C160 1.332 . S
C161 C162 1.267 . S
C162 H130 0.929 . S
C162 C161 1.267 . S
C162 C163 1.251 . S
C163 H133 0.929 . S
C163 N159 1.418 . S
C163 C162 1.251 . S
C164 H131 0.930 . S
C164 C166 1.406 . S
C164 C169 1.261 . S
C165 H132 0.930 . S
C165 N167 1.325 . S
C165 C168 1.357 . S
C166 H134 0.928 . S
C166 C164 1.406 . S
C166 N167 1.261 . S
N167 Co118 2.214 . S
N167 C165 1.325 . S
N167 C166 1.261 . S
C168 H138 0.931 . S
C168 C165 1.357 . S
C168 C169 1.312 . S
C169 H140 0.930 . S
C169 C164 1.261 . S
C169 C168 1.312 . S
C170 O142 1.214 . S
C170 O150 1.234 . S
C171 H143 0.929 . S
C171 C174 1.391 . S
C171 C176 1.391 . S
C172 H144 0.929 . S
C172 C173 1.390 . S
C172 N175 1.391 . S
C173 H145 0.930 . S
C173 C172 1.390 . S
C173 C174 1.392 . S
C174 H146 0.929 . S
C174 C171 1.391 . S
C174 C173 1.392 . S
N175 Co119 2.257 . S
N175 C172 1.391 . S
N175 C176 1.388 . S
C176 H147 0.930 . S
C176 C171 1.391 . S
C176 N175 1.388 . S
Co177 O179 2.143 . S
Co177 O185 2.074 . S
Co177 O188 2.093 . S
Co177 O201 2.097 . S
Co177 N218 2.151 . S
Co177 N226 2.214 1_545 S
Co178 O179 2.160 . S
Co178 O184 2.058 . S
Co178 O194 2.057 . S
Co178 O209 2.037 . S
Co178 N213 2.145 . S
Co178 N234 2.257 . S
O179 Co177 2.143 . S
O179 Co178 2.160 . S
C180 O181 1.278 . S
C180 O188 1.224 . S
O181 C180 1.278 . S
C182 O183 1.245 . S
C182 O194 1.232 . S
O183 C182 1.245 . S
O184 Co178 2.058 . S
O184 C210 1.269 . S
O185 Co177 2.074 . S
O185 C210 1.257 . S
H186 C211 0.930 . S
H187 C217 0.930 . S
O188 Co177 2.093 . S
O188 C180 1.224 . S
H189 C221 0.929 . S
H190 C223 0.930 . S
H191 C224 0.930 . S
H192 C222 0.929 . S
H193 C225 0.928 . S
O194 Co178 2.057 . S
O194 C182 1.232 . S
H195 C214 0.929 . S
H196 C215 0.929 . S
H197 C227 0.931 . S
H198 C219 0.929 . S
H199 C228 0.930 . S
H200 C220 0.931 1_565 S
O201 Co177 2.097 . S
O201 C229 1.214 . S
H202 C230 0.929 . S
H203 C231 0.929 . S
H204 C232 0.930 . S
H205 C233 0.929 . S
H206 C235 0.930 . S
H207 C212 0.930 . S
H208 C216 0.930 . S
O209 Co178 2.037 . S
O209 C229 1.234 . S
C210 O184 1.269 . S
C210 O185 1.257 . S
C211 H186 0.930 . S
C211 C214 1.388 . S
C211 C216 1.418 . S
C212 H207 0.930 . S
C212 C215 1.404 1_455 S
C212 C216 1.353 . S
N213 Co178 2.145 . S
N213 C214 1.397 1_655 S
N213 C215 1.334 . S
C214 H195 0.929 . S
C214 C211 1.388 . S
C214 N213 1.397 1_455 S
C215 H196 0.929 . S
C215 C212 1.404 1_655 S
C215 N213 1.334 . S
C216 H208 0.930 . S
C216 C211 1.418 . S
C216 C212 1.353 . S
C217 H187 0.930 . S
C217 N218 1.330 . S
C217 C219 1.446 . S
N218 Co177 2.151 . S
N218 C217 1.330 . S
N218 C222 1.418 1_545 S
C219 H198 0.929 . S
C219 C217 1.446 . S
C219 C220 1.332 . S
C220 H200 0.931 1_545 S
C220 C219 1.332 . S
C220 C221 1.267 1_545 S
C221 H189 0.929 . S
C221 C220 1.267 1_565 S
C221 C222 1.251 . S
C222 H192 0.929 . S
C222 N218 1.418 1_565 S
C222 C221 1.251 . S
C223 H190 0.930 . S
C223 C225 1.406 . S
C223 C228 1.261 . S
C224 H191 0.930 . S
C224 N226 1.325 . S
C224 C227 1.357 . S
C225 H193 0.928 . S
C225 C223 1.406 . S
C225 N226 1.261 . S
N226 Co177 2.214 1_565 S
N226 C224 1.325 . S
N226 C225 1.261 . S
C227 H197 0.931 . S
C227 C224 1.357 . S
C227 C228 1.312 . S
C228 H199 0.930 . S
C228 C223 1.261 . S
C228 C227 1.312 . S
C229 O201 1.214 . S
C229 O209 1.234 . S
C230 H202 0.929 . S
C230 C233 1.391 . S
C230 C235 1.391 . S
C231 H203 0.929 . S
C231 C232 1.390 . S
C231 N234 1.391 . S
C232 H204 0.930 . S
C232 C231 1.390 . S
C232 C233 1.392 . S
C233 H205 0.929 . S
C233 C230 1.391 . S
C233 C232 1.392 . S
N234 Co178 2.257 . S
N234 C231 1.391 . S
N234 C235 1.388 . S
C235 H206 0.930 . S
C235 C230 1.391 . S
C235 N234 1.388 . S
Co236 O238 2.143 . S
Co236 O244 2.074 . S
Co236 O247 2.093 . S
Co236 O260 2.097 . S
Co236 N277 2.151 . S
Co236 N285 2.214 . S
Co237 O238 2.160 . S
Co237 O243 2.058 . S
Co237 O253 2.057 . S
Co237 O268 2.037 . S
Co237 N272 2.145 . S
Co237 N293 2.257 . S
O238 Co236 2.143 . S
O238 Co237 2.160 . S
C239 O240 1.278 . S
C239 O247 1.224 . S
O240 C239 1.278 . S
C241 O242 1.245 . S
C241 O253 1.232 . S
O242 C241 1.245 . S
O243 Co237 2.058 . S
O243 C269 1.269 . S
O244 Co236 2.074 . S
O244 C269 1.257 . S
H245 C270 0.930 . S
H246 C276 0.930 . S
O247 Co236 2.093 . S
O247 C239 1.224 . S
H248 C280 0.929 . S
H249 C282 0.930 . S
H250 C283 0.930 . S
H251 C281 0.929 . S
H252 C284 0.928 . S
O253 Co237 2.057 . S
O253 C241 1.232 . S
H254 C273 0.929 . S
H255 C274 0.929 . S
H256 C286 0.931 . S
H257 C278 0.929 . S
H258 C287 0.930 . S
H259 C279 0.931 . S
O260 Co236 2.097 . S
O260 C288 1.214 . S
H261 C289 0.929 . S
H262 C290 0.929 . S
H263 C291 0.930 . S
H264 C292 0.929 . S
H265 C294 0.930 . S
H266 C271 0.930 . S
H267 C275 0.930 . S
O268 Co237 2.037 . S
O268 C288 1.234 . S
C269 O243 1.269 . S
C269 O244 1.257 . S
C270 H245 0.930 . S
C270 C273 1.388 . S
C270 C275 1.418 . S
C271 H266 0.930 . S
C271 C274 1.404 1_455 S
C271 C275 1.353 . S
N272 Co237 2.145 . S
N272 C273 1.397 1_655 S
N272 C274 1.334 . S
C273 H254 0.929 . S
C273 C270 1.388 . S
C273 N272 1.397 1_455 S
C274 H255 0.929 . S
C274 C271 1.404 1_655 S
C274 N272 1.334 . S
C275 H267 0.930 . S
C275 C270 1.418 . S
C275 C271 1.353 . S
C276 H246 0.930 . S
C276 N277 1.330 . S
C276 C278 1.446 . S
N277 Co236 2.151 . S
N277 C276 1.330 . S
N277 C281 1.418 . S
C278 H257 0.929 . S
C278 C276 1.446 . S
C278 C279 1.332 . S
C279 H259 0.931 . S
C279 C278 1.332 . S
C279 C280 1.267 . S
C280 H248 0.929 . S
C280 C279 1.267 . S
C280 C281 1.251 . S
C281 H251 0.929 . S
C281 N277 1.418 . S
C281 C280 1.251 . S
C282 H249 0.930 . S
C282 C284 1.406 . S
C282 C287 1.261 . S
C283 H250 0.930 . S
C283 N285 1.325 . S
C283 C286 1.357 . S
C284 H252 0.928 . S
C284 C282 1.406 . S
C284 N285 1.261 . S
N285 Co236 2.214 . S
N285 C283 1.325 . S
N285 C284 1.261 . S
C286 H256 0.931 . S
C286 C283 1.357 . S
C286 C287 1.312 . S
C287 H258 0.930 . S
C287 C282 1.261 . S
C287 C286 1.312 . S
C288 O260 1.214 . S
C288 O268 1.234 . S
C289 H261 0.929 . S
C289 C292 1.391 . S
C289 C294 1.391 . S
C290 H262 0.929 . S
C290 C291 1.390 . S
C290 N293 1.391 . S
C291 H263 0.930 . S
C291 C290 1.390 . S
C291 C292 1.392 . S
C292 H264 0.929 . S
C292 C289 1.391 . S
C292 C291 1.392 . S
N293 Co237 2.257 . S
N293 C290 1.391 . S
N293 C294 1.388 . S
C294 H265 0.930 . S
C294 C289 1.391 . S
C294 N293 1.388 . S
Co295 O297 2.143 . S
Co295 O303 2.074 . S
Co295 O306 2.093 . S
Co295 O319 2.097 . S
Co295 N336 2.151 . S
Co295 N344 2.214 1_545 S
Co296 O297 2.160 . S
Co296 O302 2.058 . S
Co296 O312 2.057 . S
Co296 O327 2.037 . S
Co296 N331 2.145 . S
Co296 N352 2.257 . S
O297 Co295 2.143 . S
O297 Co296 2.160 . S
C298 O299 1.278 . S
C298 O306 1.224 . S
O299 C298 1.278 . S
C300 O301 1.245 . S
C300 O312 1.232 . S
O301 C300 1.245 . S
O302 Co296 2.058 . S
O302 C328 1.269 . S
O303 Co295 2.074 . S
O303 C328 1.257 . S
H304 C329 0.930 . S
H305 C335 0.930 . S
O306 Co295 2.093 . S
O306 C298 1.224 . S
H307 C339 0.929 . S
H308 C341 0.930 . S
H309 C342 0.930 . S
H310 C340 0.929 . S
H311 C343 0.928 . S
O312 Co296 2.057 . S
O312 C300 1.232 . S
H313 C332 0.929 . S
H314 C333 0.929 . S
H315 C345 0.931 . S
H316 C337 0.929 . S
H317 C346 0.930 . S
H318 C338 0.931 1_565 S
O319 Co295 2.097 . S
O319 C347 1.214 . S
H320 C348 0.929 . S
H321 C349 0.929 . S
H322 C350 0.930 . S
H323 C351 0.929 . S
H324 C353 0.930 . S
H325 C330 0.930 . S
H326 C334 0.930 . S
O327 Co296 2.037 . S
O327 C347 1.234 . S
C328 O302 1.269 . S
C328 O303 1.257 . S
C329 H304 0.930 . S
C329 C332 1.388 . S
C329 C334 1.418 . S
C330 H325 0.930 . S
C330 C333 1.404 . S
C330 C334 1.353 . S
N331 Co296 2.145 . S
N331 C332 1.397 . S
N331 C333 1.334 . S
C332 H313 0.929 . S
C332 C329 1.388 . S
C332 N331 1.397 . S
C333 H314 0.929 . S
C333 C330 1.404 . S
C333 N331 1.334 . S
C334 H326 0.930 . S
C334 C329 1.418 . S
C334 C330 1.353 . S
C335 H305 0.930 . S
C335 N336 1.330 . S
C335 C337 1.446 . S
N336 Co295 2.151 . S
N336 C335 1.330 . S
N336 C340 1.418 1_545 S
C337 H316 0.929 . S
C337 C335 1.446 . S
C337 C338 1.332 . S
C338 H318 0.931 1_545 S
C338 C337 1.332 . S
C338 C339 1.267 1_545 S
C339 H307 0.929 . S
C339 C338 1.267 1_565 S
C339 C340 1.251 . S
C340 H310 0.929 . S
C340 N336 1.418 1_565 S
C340 C339 1.251 . S
C341 H308 0.930 . S
C341 C343 1.406 . S
C341 C346 1.261 . S
C342 H309 0.930 . S
C342 N344 1.325 . S
C342 C345 1.357 . S
C343 H311 0.928 . S
C343 C341 1.406 . S
C343 N344 1.261 . S
N344 Co295 2.214 1_565 S
N344 C342 1.325 . S
N344 C343 1.261 . S
C345 H315 0.931 . S
C345 C342 1.357 . S
C345 C346 1.312 . S
C346 H317 0.930 . S
C346 C341 1.261 . S
C346 C345 1.312 . S
C347 O319 1.214 . S
C347 O327 1.234 . S
C348 H320 0.929 . S
C348 C351 1.391 . S
C348 C353 1.391 . S
C349 H321 0.929 . S
C349 C350 1.390 . S
C349 N352 1.391 . S
C350 H322 0.930 . S
C350 C349 1.390 . S
C350 C351 1.392 . S
C351 H323 0.929 . S
C351 C348 1.391 . S
C351 C350 1.392 . S
N352 Co296 2.257 . S
N352 C349 1.391 . S
N352 C353 1.388 . S
C353 H324 0.930 . S
C353 C348 1.391 . S
C353 N352 1.388 . S
Co354 O356 2.143 . S
Co354 O362 2.074 . S
Co354 O365 2.093 . S
Co354 O378 2.097 . S
Co354 N395 2.151 . S
Co354 N403 2.214 . S
Co355 O356 2.160 . S
Co355 O361 2.058 . S
Co355 O371 2.057 . S
Co355 O386 2.037 . S
Co355 N390 2.145 . S
Co355 N411 2.257 . S
O356 Co354 2.143 . S
O356 Co355 2.160 . S
C357 O358 1.278 . S
C357 O365 1.224 . S
O358 C357 1.278 . S
C359 O360 1.245 . S
C359 O371 1.232 . S
O360 C359 1.245 . S
O361 Co355 2.058 . S
O361 C387 1.269 . S
O362 Co354 2.074 . S
O362 C387 1.257 . S
H363 C388 0.930 . S
H364 C394 0.930 . S
O365 Co354 2.093 . S
O365 C357 1.224 . S
H366 C398 0.929 . S
H367 C400 0.930 . S
H368 C401 0.930 . S
H369 C399 0.929 . S
H370 C402 0.928 . S
O371 Co355 2.057 . S
O371 C359 1.232 . S
H372 C391 0.929 . S
H373 C392 0.929 . S
H374 C404 0.931 . S
H375 C396 0.929 . S
H376 C405 0.930 . S
H377 C397 0.931 . S
O378 Co354 2.097 . S
O378 C406 1.214 . S
H379 C407 0.929 . S
H380 C408 0.929 . S
H381 C409 0.930 . S
H382 C410 0.929 . S
H383 C412 0.930 . S
H384 C389 0.930 . S
H385 C393 0.930 . S
O386 Co355 2.037 . S
O386 C406 1.234 . S
C387 O361 1.269 . S
C387 O362 1.257 . S
C388 H363 0.930 . S
C388 C391 1.388 . S
C388 C393 1.418 . S
C389 H384 0.930 . S
C389 C392 1.404 . S
C389 C393 1.353 . S
N390 Co355 2.145 . S
N390 C391 1.397 . S
N390 C392 1.334 . S
C391 H372 0.929 . S
C391 C388 1.388 . S
C391 N390 1.397 . S
C392 H373 0.929 . S
C392 C389 1.404 . S
C392 N390 1.334 . S
C393 H385 0.930 . S
C393 C388 1.418 . S
C393 C389 1.353 . S
C394 H364 0.930 . S
C394 N395 1.330 . S
C394 C396 1.446 . S
N395 Co354 2.151 . S
N395 C394 1.330 . S
N395 C399 1.418 . S
C396 H375 0.929 . S
C396 C394 1.446 . S
C396 C397 1.332 . S
C397 H377 0.931 . S
C397 C396 1.332 . S
C397 C398 1.267 . S
C398 H366 0.929 . S
C398 C397 1.267 . S
C398 C399 1.251 . S
C399 H369 0.929 . S
C399 N395 1.418 . S
C399 C398 1.251 . S
C400 H367 0.930 . S
C400 C402 1.406 . S
C400 C405 1.261 . S
C401 H368 0.930 . S
C401 N403 1.325 . S
C401 C404 1.357 . S
C402 H370 0.928 . S
C402 C400 1.406 . S
C402 N403 1.261 . S
N403 Co354 2.214 . S
N403 C401 1.325 . S
N403 C402 1.261 . S
C404 H374 0.931 . S
C404 C401 1.357 . S
C404 C405 1.312 . S
C405 H376 0.930 . S
C405 C400 1.261 . S
C405 C404 1.312 . S
C406 O378 1.214 . S
C406 O386 1.234 . S
C407 H379 0.929 . S
C407 C410 1.391 . S
C407 C412 1.391 . S
C408 H380 0.929 . S
C408 C409 1.390 . S
C408 N411 1.391 . S
C409 H381 0.930 . S
C409 C408 1.390 . S
C409 C410 1.392 . S
C410 H382 0.929 . S
C410 C407 1.391 . S
C410 C409 1.392 . S
N411 Co355 2.257 . S
N411 C408 1.391 . S
N411 C412 1.388 . S
C412 H383 0.930 . S
C412 C407 1.391 . S
C412 N411 1.388 . S
Co413 O415 2.143 . S
Co413 O421 2.074 . S
Co413 O424 2.093 . S
Co413 O437 2.097 . S
Co413 N454 2.151 . S
Co413 N462 2.214 1_565 S
Co414 O415 2.160 . S
Co414 O420 2.058 . S
Co414 O430 2.057 . S
Co414 O445 2.037 . S
Co414 N449 2.145 . S
Co414 N470 2.257 . S
O415 Co413 2.143 . S
O415 Co414 2.160 . S
C416 O417 1.278 . S
C416 O424 1.224 . S
O417 C416 1.278 . S
C418 O419 1.245 . S
C418 O430 1.232 . S
O419 C418 1.245 . S
O420 Co414 2.058 . S
O420 C446 1.269 . S
O421 Co413 2.074 . S
O421 C446 1.257 . S
H422 C447 0.930 . S
H423 C453 0.930 . S
O424 Co413 2.093 . S
O424 C416 1.224 . S
H425 C457 0.929 . S
H426 C459 0.930 . S
H427 C460 0.930 . S
H428 C458 0.929 . S
H429 C461 0.928 . S
O430 Co414 2.057 . S
O430 C418 1.232 . S
H431 C450 0.929 . S
H432 C451 0.929 . S
H433 C463 0.931 . S
H434 C455 0.929 . S
H435 C464 0.930 . S
H436 C456 0.931 1_545 S
O437 Co413 2.097 . S
O437 C465 1.214 . S
H438 C466 0.929 . S
H439 C467 0.929 . S
H440 C468 0.930 . S
H441 C469 0.929 . S
H442 C471 0.930 . S
H443 C448 0.930 . S
H444 C452 0.930 . S
O445 Co414 2.037 . S
O445 C465 1.234 . S
C446 O420 1.269 . S
C446 O421 1.257 . S
C447 H422 0.930 . S
C447 C450 1.388 . S
C447 C452 1.418 . S
C448 H443 0.930 . S
C448 C451 1.404 1_655 S
C448 C452 1.353 . S
N449 Co414 2.145 . S
N449 C450 1.397 1_455 S
N449 C451 1.334 . S
C450 H431 0.929 . S
C450 C447 1.388 . S
C450 N449 1.397 1_655 S
C451 H432 0.929 . S
C451 C448 1.404 1_455 S
C451 N449 1.334 . S
C452 H444 0.930 . S
C452 C447 1.418 . S
C452 C448 1.353 . S
C453 H423 0.930 . S
C453 N454 1.330 . S
C453 C455 1.446 . S
N454 Co413 2.151 . S
N454 C453 1.330 . S
N454 C458 1.418 1_565 S
C455 H434 0.929 . S
C455 C453 1.446 . S
C455 C456 1.332 . S
C456 H436 0.931 1_565 S
C456 C455 1.332 . S
C456 C457 1.267 1_565 S
C457 H425 0.929 . S
C457 C456 1.267 1_545 S
C457 C458 1.251 . S
C458 H428 0.929 . S
C458 N454 1.418 1_545 S
C458 C457 1.251 . S
C459 H426 0.930 . S
C459 C461 1.406 . S
C459 C464 1.261 . S
C460 H427 0.930 . S
C460 N462 1.325 . S
C460 C463 1.357 . S
C461 H429 0.928 . S
C461 C459 1.406 . S
C461 N462 1.261 . S
N462 Co413 2.214 1_545 S
N462 C460 1.325 . S
N462 C461 1.261 . S
C463 H433 0.931 . S
C463 C460 1.357 . S
C463 C464 1.312 . S
C464 H435 0.930 . S
C464 C459 1.261 . S
C464 C463 1.312 . S
C465 O437 1.214 . S
C465 O445 1.234 . S
C466 H438 0.929 . S
C466 C469 1.391 . S
C466 C471 1.391 . S
C467 H439 0.929 . S
C467 C468 1.390 . S
C467 N470 1.391 . S
C468 H440 0.930 . S
C468 C467 1.390 . S
C468 C469 1.392 . S
C469 H441 0.929 . S
C469 C466 1.391 . S
C469 C468 1.392 . S
N470 Co414 2.257 . S
N470 C467 1.391 . S
N470 C471 1.388 . S
C471 H442 0.930 . S
C471 C466 1.391 . S
C471 N470 1.388 . S
H472 C478 0.930 . S
H473 C481 0.930 . S
H474 C482 0.930 . S
H475 C483 0.930 . S
H476 C486 0.930 . S
H477 C487 0.930 . S
C478 H472 0.930 . S
C478 C479 1.355 . S
C478 C480 1.415 . S
C479 C478 1.355 . S
C479 C481 1.419 . S
C480 C478 1.415 . S
C480 C485 1.425 . S
C480 C487 1.409 . S
C481 H473 0.930 . S
C481 C479 1.419 . S
C481 C482 1.362 . S
C482 H474 0.930 . S
C482 C481 1.362 . S
C482 C485 1.409 . S
C483 H475 0.930 . S
C483 C484 1.355 . S
C483 C485 1.415 . S
C484 C483 1.355 . S
C484 C486 1.419 . S
C485 C480 1.425 . S
C485 C482 1.409 . S
C485 C483 1.415 . S
C486 H476 0.930 . S
C486 C484 1.419 . S
C486 C487 1.362 . S
C487 H477 0.930 . S
C487 C480 1.409 . S
C487 C486 1.362 . S
H488 C494 0.930 . S
H489 C497 0.930 . S
H490 C498 0.930 . S
H491 C499 0.919 1_545 S
H492 C502 0.930 . S
H493 C503 0.930 . S
C494 H488 0.930 . S
C494 C495 1.355 1_465 S
C494 C496 1.415 . S
C495 C494 1.355 1_645 S
C495 C497 1.419 . S
C496 C494 1.415 . S
C496 C501 1.425 1_565 S
C496 C503 1.409 . S
C497 H489 0.930 . S
C497 C495 1.419 . S
C497 C498 1.362 1_655 S
C498 H490 0.930 . S
C498 C497 1.362 1_455 S
C498 C501 1.409 . S
C499 H491 0.919 1_565 S
C499 C500 1.370 . S
C499 C501 1.411 1_565 S
C500 C499 1.370 . S
C500 C502 1.419 . S
C501 C496 1.425 1_545 S
C501 C498 1.409 . S
C501 C499 1.411 1_545 S
C502 H492 0.930 . S
C502 C500 1.419 . S
C502 C503 1.362 . S
C503 H493 0.930 . S
C503 C496 1.409 . S
C503 C502 1.362 . S
H504 C510 0.930 . S
H505 C513 0.930 . S
H506 C514 0.930 . S
H507 C515 0.930 . S
H508 C518 0.930 . S
H509 C519 0.932 . S
C510 H504 0.930 . S
C510 C511 1.355 . S
C510 C512 1.415 . S
C511 C510 1.355 . S
C511 C513 1.419 . S
C512 C510 1.415 . S
C512 C517 1.425 . S
C512 C519 1.404 1_655 S
C513 H505 0.930 . S
C513 C511 1.419 . S
C513 C514 1.362 . S
C514 H506 0.930 . S
C514 C513 1.362 . S
C514 C517 1.409 . S
C515 H507 0.930 . S
C515 C516 1.355 1_655 S
C515 C517 1.415 . S
C516 C515 1.355 1_455 S
C516 C518 1.419 . S
C517 C512 1.425 . S
C517 C514 1.409 . S
C517 C515 1.415 . S
C518 H508 0.930 . S
C518 C516 1.419 . S
C518 C519 1.366 . S
C519 H509 0.932 . S
C519 C512 1.404 1_455 S
C519 C518 1.366 . S
H520 C526 0.930 . S
H521 C529 0.930 . S
H522 C530 0.930 . S
H523 C531 0.930 . S
H524 C534 0.930 . S
H525 C535 0.930 . S
C526 H520 0.930 . S
C526 C527 1.355 . S
C526 C528 1.415 . S
C527 C526 1.355 . S
C527 C529 1.419 1_545 S
C528 C526 1.415 . S
C528 C533 1.425 1_545 S
C528 C535 1.409 . S
C529 H521 0.930 . S
C529 C527 1.419 1_565 S
C529 C530 1.362 . S
C530 H522 0.930 . S
C530 C529 1.362 . S
C530 C533 1.409 . S
C531 H523 0.930 . S
C531 C532 1.355 . S
C531 C533 1.415 . S
C532 C531 1.355 . S
C532 C534 1.419 1_565 S
C533 C528 1.425 1_565 S
C533 C530 1.409 . S
C533 C531 1.415 . S
C534 H524 0.930 . S
C534 C532 1.419 1_545 S
C534 C535 1.362 . S
C535 H525 0.930 . S
C535 C528 1.409 . S
C535 C534 1.362 . S
H536 C542 0.930 . S
H537 C545 0.930 . S
H538 C546 0.930 . S
H539 C547 0.930 . S
H540 C550 0.930 . S
H541 C551 0.930 . S
C542 H536 0.930 . S
C542 C543 1.355 . S
C542 C544 1.415 . S
C543 C542 1.355 . S
C543 C545 1.419 . S
C544 C542 1.415 . S
C544 C549 1.425 . S
C544 C551 1.409 . S
C545 H537 0.930 . S
C545 C543 1.419 . S
C545 C546 1.362 . S
C546 H538 0.930 . S
C546 C545 1.362 . S
C546 C549 1.409 . S
C547 H539 0.930 . S
C547 C548 1.355 . S
C547 C549 1.415 . S
C548 C547 1.355 . S
C548 C550 1.419 . S
C549 C544 1.425 . S
C549 C546 1.409 . S
C549 C547 1.415 . S
C550 H540 0.930 . S
C550 C548 1.419 . S
C550 C551 1.362 . S
C551 H541 0.930 . S
C551 C544 1.409 . S
C551 C550 1.362 . S
H552 C558 0.930 . S
H553 C561 0.930 . S
H554 C562 0.930 . S
H555 C563 0.930 . S
H556 C566 0.930 . S
H557 C567 0.936 1_545 S
C558 H552 0.930 . S
C558 C559 1.355 . S
C558 C560 1.415 . S
C559 C558 1.355 . S
C559 C561 1.419 . S
C560 C558 1.415 . S
C560 C565 1.425 . S
C560 C567 1.395 1_645 S
C561 H553 0.930 . S
C561 C559 1.419 . S
C561 C562 1.362 . S
C562 H554 0.930 . S
C562 C561 1.362 . S
C562 C565 1.409 . S
C563 H555 0.930 . S
C563 C564 1.355 1_655 S
C563 C565 1.415 1_565 S
C564 C563 1.355 1_455 S
C564 C566 1.419 . S
C565 C560 1.425 . S
C565 C562 1.409 . S
C565 C563 1.415 1_545 S
C566 H556 0.930 . S
C566 C564 1.419 . S
C566 C567 1.372 . S
C567 H557 0.936 1_565 S
C567 C560 1.395 1_465 S
C567 C566 1.372 . S
H568 C574 0.930 . S
H569 C577 0.930 . S
H570 C578 0.930 . S
H571 C579 0.930 1_655 S
H572 C582 0.930 . S
H573 C583 0.930 . S
C574 H568 0.930 . S
C574 C575 1.355 . S
C574 C576 1.415 . S
C575 C574 1.355 . S
C575 C577 1.419 . S
C576 C574 1.415 . S
C576 C581 1.425 . S
C576 C583 1.409 . S
C577 H569 0.930 . S
C577 C575 1.419 . S
C577 C578 1.362 . S
C578 H570 0.930 . S
C578 C577 1.362 . S
C578 C581 1.409 . S
C579 H571 0.930 1_455 S
C579 C580 1.355 1_455 S
C579 C581 1.415 . S
C580 C579 1.355 1_655 S
C580 C582 1.419 1_655 S
C581 C576 1.425 . S
C581 C578 1.409 . S
C581 C579 1.415 . S
C582 H572 0.930 . S
C582 C580 1.419 1_455 S
C582 C583 1.362 . S
C583 H573 0.930 . S
C583 C576 1.409 . S
C583 C582 1.362 . S
H584 C590 0.930 . S
H585 C593 0.930 . S
H586 C594 0.930 . S
H587 C595 0.930 . S
H588 C598 0.930 . S
H589 C599 0.930 . S
C590 H584 0.930 . S
C590 C591 1.355 . S
C590 C592 1.415 . S
C591 C590 1.355 . S
C591 C593 1.419 1_565 S
C592 C590 1.415 . S
C592 C597 1.425 1_565 S
C592 C599 1.409 . S
C593 H585 0.930 . S
C593 C591 1.419 1_545 S
C593 C594 1.362 . S
C594 H586 0.930 . S
C594 C593 1.362 . S
C594 C597 1.409 . S
C595 H587 0.930 . S
C595 C596 1.355 . S
C595 C597 1.415 . S
C596 C595 1.355 . S
C596 C598 1.419 1_545 S
C597 C592 1.425 1_545 S
C597 C594 1.409 . S
C597 C595 1.415 . S
C598 H588 0.930 . S
C598 C596 1.419 1_565 S
C598 C599 1.362 . S
C599 H589 0.930 . S
C599 C592 1.409 . S
C599 C598 1.362 . S
H600 C606 0.930 . S
H601 C609 0.930 . S
H602 C610 0.930 . S
H603 C611 0.930 . S
H604 C614 0.930 . S
H605 C615 0.930 . S
C606 H600 0.930 . S
C606 C607 1.355 . S
C606 C608 1.415 1_455 S
C607 C606 1.355 . S
C607 C609 1.419 . S
C608 C606 1.415 1_655 S
C608 C613 1.425 1_655 S
C608 C615 1.409 . S
C609 H601 0.930 . S
C609 C607 1.419 . S
C609 C610 1.362 . S
C610 H602 0.930 . S
C610 C609 1.362 . S
C610 C613 1.409 . S
C611 H603 0.930 . S
C611 C612 1.355 . S
C611 C613 1.415 1_655 S
C612 C611 1.355 . S
C612 C614 1.419 . S
C613 C608 1.425 1_455 S
C613 C610 1.409 . S
C613 C611 1.415 1_455 S
C614 H604 0.930 . S
C614 C612 1.419 . S
C614 C615 1.362 . S
C615 H605 0.930 . S
C615 C608 1.409 . S
C615 C614 1.362 . S
H616 C622 0.930 . S
H617 C625 0.930 . S
H618 C626 0.930 . S
H619 C627 0.930 . S
H620 C630 0.930 . S
H621 C631 0.930 . S
C622 H616 0.930 . S
C622 C623 1.355 . S
C622 C624 1.415 . S
C623 C622 1.355 . S
C623 C625 1.419 . S
C624 C622 1.415 . S
C624 C629 1.425 1_565 S
C624 C631 1.409 1_565 S
C625 H617 0.930 . S
C625 C623 1.419 . S
C625 C626 1.362 . S
C626 H618 0.930 . S
C626 C625 1.362 . S
C626 C629 1.409 1_565 S
C627 H619 0.930 . S
C627 C628 1.355 . S
C627 C629 1.415 . S
C628 C627 1.355 . S
C628 C630 1.419 . S
C629 C624 1.425 1_545 S
C629 C626 1.409 1_545 S
C629 C627 1.415 . S
C630 H620 0.930 . S
C630 C628 1.419 . S
C630 C631 1.362 . S
C631 H621 0.930 . S
C631 C624 1.409 1_545 S
C631 C630 1.362 . S
H632 C638 0.930 . S
H633 C641 0.930 . S
H634 C642 0.930 . S
H635 C643 0.930 . S
H636 C646 0.930 . S
H637 C647 0.930 . S
C638 H632 0.930 . S
C638 C639 1.355 . S
C638 C640 1.415 . S
C639 C638 1.355 . S
C639 C641 1.419 . S
C640 C638 1.415 . S
C640 C645 1.425 1_554 S
C640 C647 1.409 1_554 S
C641 H633 0.930 . S
C641 C639 1.419 . S
C641 C642 1.362 . S
C642 H634 0.930 . S
C642 C641 1.362 . S
C642 C645 1.409 1_554 S
C643 H635 0.930 . S
C643 C644 1.355 . S
C643 C645 1.415 . S
C644 C643 1.355 . S
C644 C646 1.419 . S
C645 C640 1.425 1_556 S
C645 C642 1.409 1_556 S
C645 C643 1.415 . S
C646 H636 0.930 . S
C646 C644 1.419 . S
C646 C647 1.362 . S
C647 H637 0.930 . S
C647 C640 1.409 1_556 S
C647 C646 1.362 . S
H648 C654 0.930 1_545 S
H649 C657 0.930 . S
H650 C658 0.930 . S
H651 C659 0.930 1_565 S
H652 C662 0.930 . S
H653 C663 0.930 . S
C654 H648 0.930 1_565 S
C654 C655 1.355 . S
C654 C656 1.415 1_465 S
C655 C654 1.355 . S
C655 C657 1.419 . S
C656 C654 1.415 1_645 S
C656 C661 1.425 1_646 S
C656 C663 1.409 . S
C657 H649 0.930 . S
C657 C655 1.419 . S
C657 C658 1.362 1_556 S
C658 H650 0.930 . S
C658 C657 1.362 1_554 S
C658 C661 1.409 . S
C659 H651 0.930 1_545 S
C659 C660 1.355 . S
C659 C661 1.415 1_645 S
C660 C659 1.355 . S
C660 C662 1.419 . S
C661 C656 1.425 1_464 S
C661 C658 1.409 . S
C661 C659 1.415 1_465 S
C662 H652 0.930 . S
C662 C660 1.419 . S
C662 C663 1.362 1_554 S
C663 H653 0.930 . S
C663 C656 1.409 . S
C663 C662 1.362 1_556 S
H664 C670 0.930 . S
H665 C673 0.930 . S
H666 C674 0.930 . S
H667 C675 0.930 . S
H668 C678 0.930 . S
H669 C679 0.930 . S
C670 H664 0.930 . S
C670 C671 1.355 . S
C670 C672 1.415 . S
C671 C670 1.355 . S
C671 C673 1.419 . S
C672 C670 1.415 . S
C672 C677 1.425 . S
C672 C679 1.409 . S
C673 H665 0.930 . S
C673 C671 1.419 . S
C673 C674 1.362 . S
C674 H666 0.930 . S
C674 C673 1.362 . S
C674 C677 1.409 . S
C675 H667 0.930 . S
C675 C676 1.355 . S
C675 C677 1.415 . S
C676 C675 1.355 . S
C676 C678 1.419 . S
C677 C672 1.425 . S
C677 C674 1.409 . S
C677 C675 1.415 . S
C678 H668 0.930 . S
C678 C676 1.419 . S
C678 C679 1.362 . S
C679 H669 0.930 . S
C679 C672 1.409 . S
C679 C678 1.362 . S
H680 C686 0.930 . S
H681 C689 0.930 . S
H682 C690 0.930 . S
H683 C691 0.930 . S
H684 C694 0.930 . S
H685 C695 0.930 . S
C686 H680 0.930 . S
C686 C687 1.355 . S
C686 C688 1.415 . S
C687 C686 1.355 . S
C687 C689 1.419 . S
C688 C686 1.415 . S
C688 C693 1.425 . S
C688 C695 1.409 . S
C689 H681 0.930 . S
C689 C687 1.419 . S
C689 C690 1.362 . S
C690 H682 0.930 . S
C690 C689 1.362 . S
C690 C693 1.409 . S
C691 H683 0.930 . S
C691 C692 1.355 . S
C691 C693 1.415 . S
C692 C691 1.355 . S
C692 C694 1.419 . S
C693 C688 1.425 . S
C693 C690 1.409 . S
C693 C691 1.415 . S
C694 H684 0.930 . S
C694 C692 1.419 . S
C694 C695 1.362 . S
C695 H685 0.930 . S
C695 C688 1.409 . S
C695 C694 1.362 . S
H696 C702 0.930 . S
H697 C705 0.930 . S
H698 C706 0.930 . S
H699 C707 0.930 . S
H700 C710 0.930 . S
H701 C711 0.930 . S
C702 H696 0.930 . S
C702 C703 1.355 . S
C702 C704 1.415 . S
C703 C702 1.355 . S
C703 C705 1.419 . S
C704 C702 1.415 . S
C704 C709 1.425 . S
C704 C711 1.409 . S
C705 H697 0.930 . S
C705 C703 1.419 . S
C705 C706 1.362 . S
C706 H698 0.930 . S
C706 C705 1.362 . S
C706 C709 1.409 . S
C707 H699 0.930 . S
C707 C708 1.355 . S
C707 C709 1.415 . S
C708 C707 1.355 . S
C708 C710 1.419 . S
C709 C704 1.425 . S
C709 C706 1.409 . S
C709 C707 1.415 . S
C710 H700 0.930 . S
C710 C708 1.419 . S
C710 C711 1.362 . S
C711 H701 0.930 . S
C711 C704 1.409 . S
C711 C710 1.362 . S
H712 C718 0.930 . S
H713 C721 0.930 . S
H714 C722 0.930 . S
H715 C723 0.930 . S
H716 C726 0.930 . S
H717 C727 0.930 . S
C718 H712 0.930 . S
C718 C719 1.355 . S
C718 C720 1.415 . S
C719 C718 1.355 . S
C719 C721 1.419 . S
C720 C718 1.415 . S
C720 C725 1.425 . S
C720 C727 1.409 . S
C721 H713 0.930 . S
C721 C719 1.419 . S
C721 C722 1.362 . S
C722 H714 0.930 . S
C722 C721 1.362 . S
C722 C725 1.409 . S
C723 H715 0.930 . S
C723 C724 1.355 . S
C723 C725 1.415 . S
C724 C723 1.355 . S
C724 C726 1.419 . S
C725 C720 1.425 . S
C725 C722 1.409 . S
C725 C723 1.415 . S
C726 H716 0.930 . S
C726 C724 1.419 . S
C726 C727 1.362 . S
C727 H717 0.930 . S
C727 C720 1.409 . S
C727 C726 1.362 . S
C479 C3 1.565 . S
C484 C170 1.541 . S
C495 C229 1.540 . S
C500 C62 1.543 . S
C511 C121 1.544 . S
C516 C52 1.539 . S
C527 C180 1.542 . S
C532 C111 1.553 . S
C543 C406 1.553 . S
C548 C239 1.542 . S
C559 C298 1.542 . S
C564 C465 1.549 . S
C575 C357 1.567 . S
C580 C288 1.570 . S
C591 C416 1.569 . S
C596 C347 1.569 . S
C607 C33 1.576 . S
C612 C269 1.576 . S
C623 C92 1.573 . S
C628 C328 1.573 . S
C639 C151 1.589 . S
C644 C387 1.589 . S
C655 C446 1.605 . S
C660 C210 1.605 . S
C671 C5 1.646 . S
C676 C64 1.648 . S
C687 C182 1.649 . S
C692 C123 1.630 . S
C703 C300 1.649 . S
C708 C241 1.644 . S
C719 C359 1.630 . S
C724 C418 1.635 . S
