# Generated by pormake.
# Topology uou, (4)-cn, num edge types: 1
# Building blocks:
#     Node 0, Type 0, BuildingBlock: ICAMEG_clean_sbu_1, # of connection points: 4
#     Node 1, Type 0, BuildingBlock: ICAMEG_clean_sbu_1, # of connection points: 4
#     Node 2, Type 0, BuildingBlock: ICAMEG_clean_sbu_1, # of connection points: 4
#     Node 3, Type 0, BuildingBlock: ICAMEG_clean_sbu_1, # of connection points: 4
#     Node 4, Type 0, BuildingBlock: ICAMEG_clean_sbu_1, # of connection points: 4
#     Node 5, Type 0, BuildingBlock: ICAMEG_clean_sbu_1, # of connection points: 4
#     Node 6, Type 0, BuildingBlock: ICAMEG_clean_sbu_1, # of connection points: 4
#     Node 7, Type 0, BuildingBlock: ICAMEG_clean_sbu_1, # of connection points: 4
#     Node 8, Type 0, BuildingBlock: ICAMEG_clean_sbu_1, # of connection points: 4
#     Node 9, Type 0, BuildingBlock: ICAMEG_clean_sbu_1, # of connection points: 4
#     Node 10, Type 0, BuildingBlock: ICAMEG_clean_sbu_1, # of connection points: 4
#     Node 11, Type 0, BuildingBlock: ICAMEG_clean_sbu_1, # of connection points: 4
#     Node 12, Type 0, BuildingBlock: ICAMEG_clean_sbu_1, # of connection points: 4
#     Node 13, Type 0, BuildingBlock: ICAMEG_clean_sbu_1, # of connection points: 4
#     Node 14, Type 0, BuildingBlock: ICAMEG_clean_sbu_1, # of connection points: 4
#     Node 15, Type 0, BuildingBlock: ICAMEG_clean_sbu_1, # of connection points: 4
#     Edge 16, Type (0, 0), None
#     Edge 17, Type (0, 0), None
#     Edge 18, Type (0, 0), None
#     Edge 19, Type (0, 0), None
#     Edge 20, Type (0, 0), None
#     Edge 21, Type (0, 0), None
#     Edge 22, Type (0, 0), None
#     Edge 23, Type (0, 0), None
#     Edge 24, Type (0, 0), None
#     Edge 25, Type (0, 0), None
#     Edge 26, Type (0, 0), None
#     Edge 27, Type (0, 0), None
#     Edge 28, Type (0, 0), None
#     Edge 29, Type (0, 0), None
#     Edge 30, Type (0, 0), None
#     Edge 31, Type (0, 0), None
#     Edge 32, Type (0, 0), None
#     Edge 33, Type (0, 0), None
#     Edge 34, Type (0, 0), None
#     Edge 35, Type (0, 0), None
#     Edge 36, Type (0, 0), None
#     Edge 37, Type (0, 0), None
#     Edge 38, Type (0, 0), None
#     Edge 39, Type (0, 0), None
#     Edge 40, Type (0, 0), None
#     Edge 41, Type (0, 0), None
#     Edge 42, Type (0, 0), None
#     Edge 43, Type (0, 0), None
#     Edge 44, Type (0, 0), None
#     Edge 45, Type (0, 0), None
#     Edge 46, Type (0, 0), None
#     Edge 47, Type (0, 0), None
# Relax obj value: 0.029
# Max RMSD: 0.077
# Mean RMSD: 0.077
data_MOF--net-uou--node1-ICAMEG_clean_sbu_1--edge1-none
_symmetry_space_group_name_H-M    P1
_symmetry_Int_Tables_number       1
_symmetry_cell_setting            triclinic
loop_
_symmetry_equiv_pos_as_xyz
'x, y, z'
_cell_length_a     20.827092
_cell_length_b     19.308439
_cell_length_c     28.231441
_cell_angle_alpha  89.98863
_cell_angle_beta   89.999957
_cell_angle_gamma 89.999979
loop_
_atom_site_label
_atom_site_type_symbol
_atom_site_fract_x
_atom_site_fract_y
_atom_site_fract_z
_atom_type_partial_charge
Co0 Co 0.97018 0.0529 0.12202 0.0
Co1 Co 0.11869 0.1167 0.1558 0.0
O2 O 0.0633 0.04656 0.12663 0.0
C3 C 0.00518 -0.01207 0.02663 0.0
O4 O 0.04551 0.94613 0.04811 0.0
C5 C 0.19847 0.98183 0.16762 0.0
O6 O 0.15882 0.94414 0.14236 0.0
O7 O 0.06634 0.10511 0.21819 0.0
O8 O 0.96604 0.07412 0.19284 0.0
H9 H 0.18259 0.34253 0.23301 0.0
H10 H 0.90009 0.93586 0.07851 0.0
O11 O 0.97433 0.03366 0.05052 0.0
H12 H 0.02114 0.8304 0.20909 0.0
H13 H 0.76877 0.13075 0.04545 0.0
H14 H 0.86026 0.01619 0.18572 0.0
H15 H 0.03055 0.95675 0.19296 0.0
H16 H 0.88269 0.1083 0.05013 0.0
O17 O 0.18479 0.04461 0.17742 0.0
H18 H 0.10502 0.25486 0.2058 0.0
H19 H 0.25956 0.13095 0.15538 0.0
H20 H 0.74417 0.04189 0.18331 0.0
H21 H 0.89191 0.80991 0.09389 0.0
H22 H 0.69647 0.09513 0.11234 0.0
H23 H 0.9512 0.75801 0.16025 0.0
O24 O 0.9707 0.15457 0.10803 0.0
H25 H 0.17104 0.04198 0.99107 0.0
H26 H 0.16349 0.23913 0.10094 0.0
H27 H 0.18138 0.26017 0.01663 0.0
H28 H 0.18299 0.16322 0.96118 0.0
H29 H 0.15653 0.02211 0.07566 0.0
H30 H 0.33704 0.21889 0.17963 0.0
H31 H 0.2992 0.32547 0.21952 0.0
O32 O 0.06148 0.19419 0.13824 0.0
C33 C 0.00553 0.09113 0.22609 0.0
C34 C 0.19937 0.29691 0.21469 0.0
C35 C 0.28637 0.22689 0.18603 0.0
N36 N 0.17734 0.18541 0.18152 0.0
C37 C 0.15568 0.24647 0.19983 0.0
C38 C 0.24187 0.17633 0.17348 0.0
C39 C 0.26498 0.28702 0.20767 0.0
C40 C 0.9267 0.91334 0.10745 0.0
N41 N 0.96504 0.95407 0.13511 0.0
C42 C 0.92166 0.84226 0.11582 0.0
C43 C 0.95538 0.81282 0.15303 0.0
C44 C 0.99471 0.85418 0.1808 0.0
C45 C 0.99933 0.9252 0.17137 0.0
C46 C 0.78707 0.10368 0.07586 0.0
C47 C 0.83996 0.04045 0.15464 0.0
C48 C 0.8524 0.0905 0.07864 0.0
N49 N 0.87814 0.05948 0.1177 0.0
C50 C 0.77424 0.0541 0.15324 0.0
C51 C 0.74742 0.08469 0.1133 0.0
C52 C 0.00858 0.20388 0.1179 0.0
C53 C 0.1705 0.08546 0.01523 0.0
C54 C 0.16806 0.19504 0.07775 0.0
C55 C 0.17676 0.20791 0.02975 0.0
C56 C 0.17642 0.153 0.99836 0.0
N57 N 0.15965 0.12885 0.09433 0.0
C58 C 0.16357 0.0743 0.06368 0.0
Co59 Co 0.52551 0.92179 0.12321 0.0
Co60 Co 0.37486 0.86509 0.15016 0.0
O61 O 0.43328 0.93479 0.12487 0.0
C62 C 0.48857 0.97686 0.02492 0.0
O63 O 0.43161 -0.00277 0.03869 0.0
C64 C 0.25961 0.95053 0.18523 0.0
O65 O 0.258 0.9152 0.22478 0.0
O66 O 0.41786 0.88118 0.21556 0.0
O67 O 0.5228 0.88588 0.19154 0.0
H68 H 0.31099 0.64208 0.22767 0.0
H69 H 0.51061 0.06942 0.08185 0.0
O70 O 0.52881 0.95298 0.05463 0.0
H71 H 0.5929 0.10421 0.2421 0.0
H72 H 0.71945 0.87402 0.03098 0.0
H73 H 0.64252 0.93307 0.18967 0.0
H74 H 0.56354 -0.01014 0.21724 0.0
H75 H 0.60786 0.87119 0.04767 0.0
O76 O 0.30652 0.94199 0.15615 0.0
H77 H 0.38508 0.73495 0.2076 0.0
H78 H 0.23659 0.8391 0.13343 0.0
H79 H 0.75797 0.92134 0.17641 0.0
H80 H 0.52872 0.18541 0.10948 0.0
H81 H 0.7984 0.89553 0.09622 0.0
H82 H 0.56793 0.20526 0.19138 0.0
O83 O 0.51795 0.82395 0.09987 0.0
H84 H 0.3269 0.93456 0.98335 0.0
H85 H 0.35443 0.73764 0.09208 0.0
H86 H 0.35528 0.71719 0.00616 0.0
H87 H 0.34871 0.81647 0.95144 0.0
H88 H 0.32624 0.95274 0.06993 0.0
H89 H 0.15873 0.75261 0.15877 0.0
H90 H 0.19502 0.65331 0.20852 0.0
O91 O 0.43677 0.78768 0.14334 0.0
C92 C 0.47989 0.8801 0.22446 0.0
C93 C 0.29333 0.68645 0.20852 0.0
C94 C 0.20787 0.74873 0.17062 0.0
N95 N 0.31428 0.79656 0.17305 0.0
C96 C 0.33563 0.73938 0.19654 0.0
C97 C 0.25211 0.799 0.15738 0.0
C98 C 0.22844 0.69291 0.19764 0.0
C99 C 0.52679 0.07436 0.11735 0.0
N100 N 0.5368 0.01824 0.14633 0.0
C101 C 0.53722 0.14206 0.13298 0.0
C102 C 0.55955 0.15329 0.17858 0.0
C103 C 0.57147 0.09695 0.20763 0.0
C104 C 0.55673 0.03051 0.19194 0.0
C105 C 0.70454 0.88548 0.06638 0.0
C106 C 0.65894 0.92072 0.15477 0.0
C107 C 0.63972 0.88695 0.07579 0.0
N108 N 0.6171 0.90858 0.11872 0.0
C109 C 0.7248 0.91363 0.14747 0.0
C110 C 0.74772 0.89817 0.10262 0.0
C111 C 0.48445 0.77545 0.11733 0.0
C112 C 0.33299 0.89104 0.00712 0.0
C113 C 0.34804 0.78108 0.06853 0.0
C114 C 0.34899 0.76906 0.01988 0.0
C115 C 0.34476 0.82497 0.98913 0.0
N116 N 0.34472 0.84709 0.086 0.0
C117 C 0.332 0.90094 0.05617 0.0
Co118 Co 0.47018 0.91522 0.37931 0.0
Co119 Co 0.61869 0.85142 0.34553 0.0
O120 O 0.5633 0.92156 0.3747 0.0
C121 C 0.50518 0.9802 0.4747 0.0
O122 O 0.54551 0.02199 0.45322 0.0
C123 C 0.69847 -0.0137 0.33371 0.0
O124 O 0.65882 0.02398 0.35897 0.0
O125 O 0.56634 0.86301 0.28314 0.0
O126 O 0.46604 0.894 0.30849 0.0
H127 H 0.68259 0.62559 0.26832 0.0
H128 H 0.40009 0.03227 0.42281 0.0
O129 O 0.47433 0.93447 0.45081 0.0
H130 H 0.52116 0.13773 0.29225 0.0
H131 H 0.26877 0.83738 0.45588 0.0
H132 H 0.36026 0.95193 0.31561 0.0
H133 H 0.53055 0.01137 0.30837 0.0
H134 H 0.38269 0.85983 0.45121 0.0
O135 O 0.68479 0.92351 0.32391 0.0
H136 H 0.60502 0.71327 0.29553 0.0
H137 H 0.75956 0.83717 0.34595 0.0
H138 H 0.24417 0.92623 0.31802 0.0
H139 H 0.39192 0.15822 0.40744 0.0
H140 H 0.19647 0.87299 0.389 0.0
H141 H 0.45121 0.21012 0.34109 0.0
O142 O 0.47069 0.81355 0.39331 0.0
H143 H 0.67104 0.92614 0.51026 0.0
H144 H 0.66349 0.72899 0.40039 0.0
H145 H 0.68137 0.70795 0.4847 0.0
H146 H 0.68298 0.80491 0.54015 0.0
H147 H 0.65652 0.94602 0.42567 0.0
H148 H 0.83704 0.74924 0.3217 0.0
H149 H 0.7992 0.64265 0.28181 0.0
O150 O 0.56148 0.77394 0.36309 0.0
C151 C 0.50553 0.87699 0.27524 0.0
C152 C 0.69937 0.67121 0.28664 0.0
C153 C 0.78637 0.74123 0.3153 0.0
N154 N 0.67734 0.78271 0.31981 0.0
C155 C 0.65568 0.72165 0.3015 0.0
C156 C 0.74187 0.79179 0.32785 0.0
C157 C 0.76498 0.6811 0.29366 0.0
C158 C 0.42671 0.05479 0.39388 0.0
N159 N 0.46504 0.01405 0.36622 0.0
C160 C 0.42167 0.12587 0.38551 0.0
C161 C 0.45539 0.1553 0.3483 0.0
C162 C 0.49472 0.11395 0.32054 0.0
C163 C 0.49934 0.04292 0.32997 0.0
C164 C 0.28707 0.86445 0.42547 0.0
C165 C 0.33996 0.92768 0.34669 0.0
C166 C 0.3524 0.87763 0.42269 0.0
N167 N 0.37814 0.90864 0.38363 0.0
C168 C 0.27424 0.91402 0.34809 0.0
C169 C 0.24742 0.88343 0.38803 0.0
C170 C 0.50858 0.76425 0.38343 0.0
C171 C 0.6705 0.88266 0.4861 0.0
C172 C 0.66806 0.77309 0.42358 0.0
C173 C 0.67675 0.76021 0.47158 0.0
C174 C 0.67642 0.81513 0.50298 0.0
N175 N 0.65965 0.83927 0.407 0.0
C176 C 0.66357 0.89382 0.43765 0.0
Co177 Co 0.02551 0.04633 0.37812 0.0
Co178 Co 0.87486 0.10303 0.35117 0.0
O179 O 0.93328 0.03333 0.37646 0.0
C180 C 0.98857 -0.00873 0.47641 0.0
O181 O 0.93162 0.97088 0.46264 0.0
C182 C 0.75962 0.01759 0.3161 0.0
O183 O 0.75801 0.05292 0.27655 0.0
O184 O 0.91786 0.08694 0.28578 0.0
O185 O 0.0228 0.08224 0.30979 0.0
H186 H 0.81098 0.32604 0.27366 0.0
H187 H 0.01065 0.8987 0.41949 0.0
O188 O 0.02881 0.01515 0.44671 0.0
H189 H 0.09289 0.86392 0.25923 0.0
H190 H 0.21946 0.09411 0.47035 0.0
H191 H 0.14252 0.03505 0.31166 0.0
H192 H 0.06353 0.97827 0.28409 0.0
H193 H 0.10786 0.09694 0.45366 0.0
O194 O 0.80652 0.02613 0.34519 0.0
H195 H 0.88508 0.23317 0.29373 0.0
H196 H 0.73659 0.12902 0.36791 0.0
H197 H 0.25797 0.04678 0.32492 0.0
H198 H 0.02875 0.78271 0.39186 0.0
H199 H 0.2984 0.0726 0.4051 0.0
H200 H 0.06793 0.76287 0.30995 0.0
O201 O 0.01795 0.14417 0.40146 0.0
H202 H 0.82691 0.03356 0.51798 0.0
H203 H 0.85443 0.23048 0.40926 0.0
H204 H 0.85528 0.25093 0.49517 0.0
H205 H 0.84872 0.15166 0.5499 0.0
H206 H 0.82625 0.01538 0.4314 0.0
H207 H 0.65873 0.21551 0.34257 0.0
H208 H 0.69502 0.31481 0.29282 0.0
O209 O 0.93677 0.18044 0.35799 0.0
C210 C 0.97989 0.08803 0.27687 0.0
C211 C 0.79333 0.28167 0.29282 0.0
C212 C 0.70787 0.21939 0.33072 0.0
N213 N 0.81428 0.17156 0.32829 0.0
C214 C 0.83563 0.22874 0.30479 0.0
C215 C 0.75211 0.16912 0.34395 0.0
C216 C 0.72844 0.27521 0.3037 0.0
C217 C 0.02681 0.89376 0.38399 0.0
N218 N 0.03681 0.94988 0.355 0.0
C219 C 0.03725 0.82607 0.36836 0.0
C220 C 0.05956 0.81484 0.32275 0.0
C221 C 0.07147 0.87118 0.29369 0.0
C222 C 0.05672 0.93761 0.30939 0.0
C223 C 0.20454 0.08265 0.43495 0.0
C224 C 0.15894 0.0474 0.34656 0.0
C225 C 0.13973 0.08118 0.42554 0.0
N226 N 0.1171 0.05955 0.38261 0.0
C227 C 0.22481 0.05449 0.35386 0.0
C228 C 0.24773 0.06996 0.39871 0.0
C229 C 0.98445 0.19268 0.38401 0.0
C230 C 0.833 0.07708 0.49422 0.0
C231 C 0.84805 0.18705 0.43281 0.0
C232 C 0.849 0.19907 0.48145 0.0
C233 C 0.84476 0.14315 0.5122 0.0
N234 N 0.84473 0.12103 0.41534 0.0
C235 C 0.83201 0.06718 0.44517 0.0
Co236 Co 0.02852 0.91522 0.87931 0.0
Co237 Co 0.88001 0.85142 0.84553 0.0
O238 O 0.9354 0.92157 0.8747 0.0
C239 C 0.99352 0.9802 0.9747 0.0
O240 O 0.95318 0.02199 0.95322 0.0
C241 C 0.80023 -0.0137 0.83371 0.0
O242 O 0.83988 0.02398 0.85897 0.0
O243 O 0.93236 0.86302 0.78314 0.0
O244 O 0.03265 0.89401 0.80849 0.0
H245 H 0.81611 0.62559 0.76832 0.0
H246 H 0.09861 0.03227 0.92282 0.0
O247 O 0.02437 0.93447 0.95081 0.0
H248 H 0.97755 0.13773 0.79225 0.0
H249 H 0.22993 0.83737 0.95588 0.0
H250 H 0.13844 0.95194 0.81561 0.0
H251 H 0.96815 0.01138 0.80837 0.0
H252 H 0.11601 0.85983 0.9512 0.0
O253 O 0.81391 0.92352 0.82391 0.0
H254 H 0.89368 0.71327 0.79553 0.0
H255 H 0.73914 0.83717 0.84595 0.0
H256 H 0.25453 0.92624 0.81802 0.0
H257 H 0.10679 0.15822 0.90744 0.0
H258 H 0.30223 0.87299 0.88899 0.0
H259 H 0.0475 0.21012 0.84109 0.0
O260 O 0.028 0.81356 0.8933 0.0
H261 H 0.82766 0.92615 0.01026 0.0
H262 H 0.83521 0.72899 0.90039 0.0
H263 H 0.81732 0.70795 0.9847 0.0
H264 H 0.81571 0.80491 0.04015 0.0
H265 H 0.84217 0.94602 0.92567 0.0
H266 H 0.66166 0.74924 0.8217 0.0
H267 H 0.6995 0.64265 0.78181 0.0
O268 O 0.93722 0.77394 0.86309 0.0
C269 C 0.99317 0.877 0.77524 0.0
C270 C 0.79933 0.67121 0.78664 0.0
C271 C 0.71233 0.74123 0.8153 0.0
N272 N 0.82136 0.78271 0.81981 0.0
C273 C 0.84302 0.72165 0.8015 0.0
C274 C 0.75683 0.7918 0.82785 0.0
C275 C 0.73372 0.68111 0.79366 0.0
C276 C 0.072 0.05479 0.89388 0.0
N277 N 0.03366 0.01405 0.86622 0.0
C278 C 0.07703 0.12587 0.88552 0.0
C279 C 0.04332 0.1553 0.84831 0.0
C280 C 0.00398 0.11395 0.82054 0.0
C281 C -0.00063 0.04292 0.82997 0.0
C282 C 0.21163 0.86444 0.92547 0.0
C283 C 0.15874 0.92768 0.84669 0.0
C284 C 0.14629 0.87763 0.92269 0.0
N285 N 0.12055 0.90865 0.88363 0.0
C286 C 0.22446 0.91402 0.84809 0.0
C287 C 0.25128 0.88343 0.88803 0.0
C288 C 0.99012 0.76425 0.88343 0.0
C289 C 0.8282 0.88267 0.9861 0.0
C290 C 0.83064 0.77309 0.92358 0.0
C291 C 0.82194 0.76021 0.97158 0.0
C292 C 0.82227 0.81513 0.00297 0.0
N293 N 0.83905 0.83927 0.907 0.0
C294 C 0.83513 0.89382 0.93765 0.0
Co295 Co 0.47319 0.04633 0.87812 0.0
Co296 Co 0.62384 0.10304 0.85117 0.0
O297 O 0.56542 0.03333 0.87646 0.0
C298 C 0.51014 -0.00872 0.97641 0.0
O299 O 0.56709 0.97088 0.96264 0.0
C300 C 0.73909 0.01759 0.8161 0.0
O301 O 0.7407 0.05292 0.77655 0.0
O302 O 0.58084 0.08695 0.78577 0.0
O303 O 0.4759 0.08224 0.80979 0.0
H304 H 0.68772 0.32605 0.77366 0.0
H305 H 0.48807 0.89871 0.91949 0.0
O306 O 0.46989 0.01515 0.94671 0.0
H307 H 0.40581 0.86391 0.75924 0.0
H308 H 0.27925 0.09411 0.97035 0.0
H309 H 0.35618 0.03505 0.81166 0.0
H310 H 0.43517 0.97826 0.78409 0.0
H311 H 0.39084 0.09693 0.95366 0.0
O312 O 0.69218 0.02613 0.84519 0.0
H313 H 0.61362 0.23317 0.79373 0.0
H314 H 0.76211 0.12903 0.86791 0.0
H315 H 0.24073 0.04678 0.82492 0.0
H316 H 0.46997 0.78271 0.89186 0.0
H317 H 0.2003 0.0726 0.9051 0.0
H318 H 0.43078 0.76286 0.80995 0.0
O319 O 0.48075 0.14417 0.90146 0.0
H320 H 0.6718 0.03357 0.01798 0.0
H321 H 0.64427 0.23049 0.90925 0.0
H322 H 0.64342 0.25094 0.99517 0.0
H323 H 0.64998 0.15166 0.04989 0.0
H324 H 0.67246 0.01538 0.9314 0.0
H325 H 0.83997 0.21552 0.84257 0.0
H326 H 0.80368 0.31482 0.79281 0.0
O327 O 0.56193 0.18045 0.85799 0.0
C328 C 0.51881 0.08803 0.77687 0.0
C329 C 0.70537 0.28168 0.79281 0.0
C330 C 0.79083 0.21939 0.83071 0.0
N331 N 0.68442 0.17156 0.82828 0.0
C332 C 0.66307 0.22874 0.80479 0.0
C333 C 0.74659 0.16912 0.84395 0.0
C334 C 0.77026 0.27522 0.80369 0.0
C335 C 0.4719 0.89376 0.88399 0.0
N336 N 0.46189 0.94988 0.855 0.0
C337 C 0.46147 0.82607 0.86836 0.0
C338 C 0.43914 0.81483 0.82275 0.0
C339 C 0.42724 0.87118 0.7937 0.0
C340 C 0.44198 0.93761 0.80939 0.0
C341 C 0.29416 0.08265 0.93495 0.0
C342 C 0.33976 0.0474 0.84656 0.0
C343 C 0.35898 0.08118 0.92554 0.0
N344 N 0.3816 0.05955 0.88261 0.0
C345 C 0.2739 0.05449 0.85386 0.0
C346 C 0.25098 0.06996 0.89871 0.0
C347 C 0.51425 0.19268 0.884 0.0
C348 C 0.66571 0.07709 0.99421 0.0
C349 C 0.65066 0.18705 0.9328 0.0
C350 C 0.6497 0.19907 0.98145 0.0
C351 C 0.65394 0.14316 0.0122 0.0
N352 N 0.65398 0.12103 0.91533 0.0
C353 C 0.66669 0.06719 0.94516 0.0
Co354 Co 0.52852 0.0529 0.62202 0.0
Co355 Co 0.38001 0.11671 0.6558 0.0
O356 O 0.4354 0.04656 0.62663 0.0
C357 C 0.49352 -0.01207 0.52663 0.0
O358 O 0.45318 0.94613 0.54811 0.0
C359 C 0.30023 0.98183 0.66762 0.0
O360 O 0.33987 0.94415 0.64236 0.0
O361 O 0.43236 0.10511 0.71819 0.0
O362 O 0.53266 0.07412 0.69284 0.0
H363 H 0.31611 0.34254 0.73301 0.0
H364 H 0.59861 0.93586 0.57852 0.0
O365 O 0.52437 0.03366 0.55052 0.0
H366 H 0.47754 0.83039 0.70908 0.0
H367 H 0.72993 0.13075 0.54545 0.0
H368 H 0.63844 0.01619 0.68572 0.0
H369 H 0.46814 0.95675 0.69296 0.0
H370 H 0.61601 0.1083 0.55012 0.0
O371 O 0.31391 0.04461 0.67742 0.0
H372 H 0.39368 0.25486 0.7058 0.0
H373 H 0.23914 0.13096 0.65538 0.0
H374 H 0.75453 0.04189 0.68331 0.0
H375 H 0.60678 0.80991 0.59389 0.0
H376 H 0.80223 0.09514 0.61233 0.0
H377 H 0.54748 0.758 0.66024 0.0
O378 O 0.528 0.15457 0.60803 0.0
H379 H 0.32766 0.04198 0.49107 0.0
H380 H 0.33521 0.23913 0.60094 0.0
H381 H 0.31733 0.26017 0.51663 0.0
H382 H 0.31572 0.16322 0.46118 0.0
H383 H 0.34217 0.02211 0.57566 0.0
H384 H 0.16166 0.21889 0.67963 0.0
H385 H 0.1995 0.32548 0.71952 0.0
O386 O 0.43722 0.19419 0.63824 0.0
C387 C 0.49317 0.09114 0.72609 0.0
C388 C 0.29934 0.29692 0.71469 0.0
C389 C 0.21233 0.2269 0.68603 0.0
N390 N 0.32136 0.18541 0.68152 0.0
C391 C 0.34302 0.24647 0.69983 0.0
C392 C 0.25683 0.17633 0.67348 0.0
C393 C 0.23372 0.28702 0.70767 0.0
C394 C 0.57199 0.91334 0.60745 0.0
N395 N 0.53365 0.95407 0.63511 0.0
C396 C 0.57703 0.84226 0.61581 0.0
C397 C 0.54331 0.81282 0.65302 0.0
C398 C 0.50397 0.85417 0.68079 0.0
C399 C 0.49936 0.9252 0.67136 0.0
C400 C 0.71163 0.10368 0.57586 0.0
C401 C 0.65874 0.04045 0.65464 0.0
C402 C 0.64629 0.09049 0.57864 0.0
N403 N 0.62055 0.05948 0.6177 0.0
C404 C 0.72446 0.05411 0.65324 0.0
C405 C 0.75128 0.08469 0.6133 0.0
C406 C 0.49012 0.20388 0.6179 0.0
C407 C 0.3282 0.08546 0.51523 0.0
C408 C 0.33064 0.19504 0.57775 0.0
C409 C 0.32195 0.20792 0.52975 0.0
C410 C 0.32228 0.153 0.49835 0.0
N411 N 0.33905 0.12885 0.59433 0.0
C412 C 0.33513 0.07431 0.56368 0.0
Co413 Co 0.97319 0.92179 0.62321 0.0
Co414 Co 0.12384 0.86509 0.65016 0.0
O415 O 0.06542 0.93479 0.62487 0.0
C416 C 0.01014 0.97685 0.52492 0.0
O417 O 0.06709 -0.00274 0.53869 0.0
C418 C 0.23908 0.95054 0.68523 0.0
O419 O 0.24069 0.91521 0.72478 0.0
O420 O 0.08084 0.88118 0.71555 0.0
O421 O 0.9759 0.88588 0.69154 0.0
H422 H 0.18772 0.64208 0.72767 0.0
H423 H 0.98802 0.06942 0.58183 0.0
O424 O 0.96989 0.95297 0.55462 0.0
H425 H 0.90582 0.10421 0.7421 0.0
H426 H 0.77924 0.87401 0.53098 0.0
H427 H 0.85618 0.93308 0.68966 0.0
H428 H 0.93518 -0.01014 0.71724 0.0
H429 H 0.89084 0.87119 0.54767 0.0
O430 O 0.19218 0.942 0.65614 0.0
H431 H 0.11362 0.73495 0.7076 0.0
H432 H 0.26211 0.8391 0.63342 0.0
H433 H 0.74073 0.92135 0.67641 0.0
H434 H 0.96993 0.18542 0.60946 0.0
H435 H 0.7003 0.89552 0.59623 0.0
H436 H 0.93077 0.20526 0.69138 0.0
O437 O 0.98074 0.82395 0.59987 0.0
H438 H 0.17178 0.93456 0.48335 0.0
H439 H 0.14427 0.73764 0.59207 0.0
H440 H 0.14342 0.71719 0.50616 0.0
H441 H 0.14997 0.81647 0.45143 0.0
H442 H 0.17245 0.95275 0.56993 0.0
H443 H 0.33997 0.75262 0.65876 0.0
H444 H 0.30368 0.65331 0.70851 0.0
O445 O 0.06193 0.78768 0.64334 0.0
C446 C 0.01881 0.88009 0.72446 0.0
C447 C 0.20537 0.68645 0.70851 0.0
C448 C 0.29083 0.74874 0.67061 0.0
N449 N 0.18442 0.79657 0.67304 0.0
C450 C 0.16307 0.73939 0.69654 0.0
C451 C 0.24659 0.79901 0.65738 0.0
C452 C 0.27026 0.69291 0.69763 0.0
C453 C 0.97187 0.07436 0.61733 0.0
N454 N 0.96189 0.01825 0.64633 0.0
C455 C 0.96144 0.14206 0.63296 0.0
C456 C 0.93914 0.15329 0.67858 0.0
C457 C 0.92724 0.09695 0.70763 0.0
C458 C 0.94198 0.03051 0.69194 0.0
C459 C 0.79416 0.88548 0.56638 0.0
C460 C 0.83976 0.92073 0.65477 0.0
C461 C 0.85897 0.88695 0.57579 0.0
N462 N 0.8816 0.90858 0.61872 0.0
C463 C 0.7739 0.91364 0.64747 0.0
C464 C 0.75097 0.89816 0.60262 0.0
C465 C 0.01425 0.77545 0.61733 0.0
C466 C 0.1657 0.89105 0.50711 0.0
C467 C 0.15065 0.78108 0.56852 0.0
C468 C 0.1497 0.76906 0.51988 0.0
C469 C 0.15393 0.82497 0.48913 0.0
N470 N 0.15397 0.8471 0.58599 0.0
C471 C 0.16668 0.90094 0.55616 0.0
Co472 Co 0.47018 0.55292 0.12202 0.0
Co473 Co 0.61869 0.61671 0.15581 0.0
O474 O 0.5633 0.54657 0.12663 0.0
C475 C 0.50518 0.48793 0.02663 0.0
O476 O 0.54551 0.44613 0.04811 0.0
C477 C 0.69848 0.48184 0.16762 0.0
O478 O 0.65884 0.44416 0.14234 0.0
O479 O 0.56635 0.60512 0.21819 0.0
O480 O 0.46605 0.57413 0.19284 0.0
H481 H 0.6826 0.84254 0.23302 0.0
H482 H 0.40009 0.43588 0.07852 0.0
O483 O 0.47433 0.53367 0.05052 0.0
H484 H 0.52114 0.33041 0.20909 0.0
H485 H 0.26877 0.63074 0.04544 0.0
H486 H 0.36027 0.5162 0.18572 0.0
H487 H 0.53056 0.45676 0.19296 0.0
H488 H 0.3827 0.60831 0.05012 0.0
O489 O 0.68479 0.54461 0.17743 0.0
H490 H 0.60503 0.75486 0.20581 0.0
H491 H 0.75957 0.63095 0.15539 0.0
H492 H 0.24417 0.54188 0.1833 0.0
H493 H 0.3919 0.30993 0.09389 0.0
H494 H 0.19647 0.59512 0.11232 0.0
H495 H 0.45118 0.25802 0.16025 0.0
O496 O 0.4707 0.65459 0.10803 0.0
H497 H 0.67103 0.54201 0.99106 0.0
H498 H 0.66351 0.73915 0.10096 0.0
H499 H 0.68139 0.7602 0.01664 0.0
H500 H 0.68298 0.66326 0.96119 0.0
H501 H 0.65652 0.52213 0.07565 0.0
H502 H 0.83705 0.71888 0.17965 0.0
H503 H 0.79921 0.82548 0.21953 0.0
O504 O 0.56149 0.6942 0.13824 0.0
C505 C 0.50554 0.59114 0.22609 0.0
C506 C 0.69938 0.79692 0.2147 0.0
C507 C 0.78638 0.72689 0.18604 0.0
N508 N 0.67735 0.68542 0.18153 0.0
C509 C 0.65569 0.74648 0.19984 0.0
C510 C 0.74188 0.67633 0.17349 0.0
C511 C 0.76499 0.78702 0.20769 0.0
C512 C 0.4267 0.41335 0.10745 0.0
N513 N 0.46505 0.45409 0.13511 0.0
C514 C 0.42166 0.34227 0.11582 0.0
C515 C 0.45537 0.31284 0.15303 0.0
C516 C 0.49471 0.35419 0.1808 0.0
C517 C 0.49933 0.42522 0.17137 0.0
C518 C 0.28707 0.60368 0.07586 0.0
C519 C 0.33996 0.54046 0.15464 0.0
C520 C 0.35241 0.5905 0.07864 0.0
N521 N 0.37815 0.55949 0.1177 0.0
C522 C 0.27424 0.5541 0.15323 0.0
C523 C 0.24742 0.58469 0.11329 0.0
C524 C 0.50861 0.70388 0.11788 0.0
C525 C 0.6705 0.58549 0.01523 0.0
C526 C 0.66807 0.69505 0.07776 0.0
C527 C 0.67677 0.70794 0.02977 0.0
C528 C 0.67642 0.65303 0.99836 0.0
N529 N 0.65966 0.62887 0.09434 0.0
C530 C 0.66357 0.57432 0.06368 0.0
Co531 Co 0.02552 0.42178 0.12321 0.0
Co532 Co 0.87486 0.36509 0.15016 0.0
O533 O 0.93329 0.43479 0.12487 0.0
C534 C 0.98857 0.47686 0.02492 0.0
O535 O 0.93162 0.49726 0.0387 0.0
C536 C 0.75962 0.45054 0.18523 0.0
O537 O 0.75801 0.41522 0.22478 0.0
O538 O 0.91787 0.38118 0.21555 0.0
O539 O 0.02281 0.38587 0.19154 0.0
H540 H 0.81098 0.14209 0.22767 0.0
H541 H 0.01069 0.56941 0.08183 0.0
O542 O 0.02882 0.45296 0.05462 0.0
H543 H 0.09289 0.60419 0.2421 0.0
H544 H 0.21945 0.37398 0.03097 0.0
H545 H 0.14254 0.43308 0.18966 0.0
H546 H 0.06353 0.48985 0.21724 0.0
H547 H 0.10786 0.37116 0.04767 0.0
O548 O 0.80653 0.442 0.15614 0.0
H549 H 0.88507 0.23496 0.2076 0.0
H550 H 0.73659 0.33911 0.13343 0.0
H551 H 0.25798 0.42134 0.17639 0.0
H552 H 0.02878 0.68541 0.10947 0.0
H553 H 0.2984 0.39551 0.09621 0.0
H554 H 0.06794 0.70525 0.19138 0.0
O555 O 0.01796 0.32394 0.09988 0.0
H556 H 0.82693 0.43457 0.98335 0.0
H557 H 0.8544 0.23764 0.09208 0.0
H558 H 0.85526 0.21719 0.00616 0.0
H559 H 0.84872 0.31647 0.95144 0.0
H560 H 0.82626 0.45275 0.06993 0.0
H561 H 0.65872 0.25262 0.15877 0.0
H562 H 0.69502 0.15332 0.20852 0.0
O563 O 0.93676 0.28768 0.14334 0.0
C564 C 0.97989 0.38009 0.22446 0.0
C565 C 0.79332 0.18646 0.20852 0.0
C566 C 0.70786 0.24875 0.17062 0.0
N567 N 0.81427 0.29657 0.17305 0.0
C568 C 0.83563 0.23939 0.19654 0.0
C569 C 0.7521 0.29902 0.15739 0.0
C570 C 0.72843 0.19292 0.19764 0.0
C571 C 0.02684 0.57435 0.11733 0.0
N572 N 0.03682 0.51823 0.14633 0.0
C573 C 0.03727 0.64205 0.13297 0.0
C574 C 0.05957 0.65328 0.17858 0.0
C575 C 0.07147 0.59693 0.20763 0.0
C576 C 0.05673 0.5305 0.19194 0.0
C577 C 0.20454 0.38545 0.06637 0.0
C578 C 0.15895 0.42072 0.15476 0.0
C579 C 0.13973 0.38692 0.07579 0.0
N580 N 0.11711 0.40856 0.11872 0.0
C581 C 0.22481 0.41363 0.14745 0.0
C582 C 0.24773 0.39815 0.10261 0.0
C583 C 0.98443 0.27545 0.11731 0.0
C584 C 0.83301 0.39105 0.00711 0.0
C585 C 0.84803 0.28108 0.06853 0.0
C586 C 0.84898 0.26906 0.01988 0.0
C587 C 0.84476 0.32497 0.98913 0.0
N588 N 0.84472 0.3471 0.086 0.0
C589 C 0.83202 0.40094 0.05617 0.0
Co590 Co 0.97018 0.41521 0.37931 0.0
Co591 Co 0.11869 0.35141 0.34552 0.0
O592 O 0.0633 0.42155 0.3747 0.0
C593 C 0.00518 0.48019 0.4747 0.0
O594 O 0.04551 0.52199 0.45322 0.0
C595 C 0.19848 0.48628 0.33371 0.0
O596 O 0.15885 0.52396 0.35899 0.0
O597 O 0.06634 0.36301 0.28314 0.0
O598 O 0.96605 0.39399 0.30849 0.0
H599 H 0.1826 0.12558 0.26831 0.0
H600 H 0.90009 0.53225 0.42281 0.0
O601 O 0.97433 0.43446 0.45081 0.0
H602 H 0.02115 0.63772 0.29225 0.0
H603 H 0.76877 0.33739 0.45589 0.0
H604 H 0.86027 0.45192 0.31561 0.0
H605 H 0.03056 0.51136 0.30837 0.0
H606 H 0.8827 0.35982 0.45121 0.0
O607 O 0.1848 0.42351 0.3239 0.0
H608 H 0.10503 0.21326 0.29552 0.0
H609 H 0.25957 0.33717 0.34594 0.0
H610 H 0.74417 0.42624 0.31803 0.0
H611 H 0.8919 0.6582 0.40744 0.0
H612 H 0.69647 0.37301 0.38901 0.0
H613 H 0.9512 0.7101 0.34108 0.0
O614 O 0.9707 0.31354 0.39331 0.0
H615 H 0.17102 0.42611 0.51027 0.0
H616 H 0.16351 0.22898 0.40037 0.0
H617 H 0.18139 0.20792 0.48469 0.0
H618 H 0.18298 0.30487 0.54014 0.0
H619 H 0.15652 0.446 0.42568 0.0
H620 H 0.33705 0.24924 0.32168 0.0
H621 H 0.29921 0.14265 0.2818 0.0
O622 O 0.06149 0.27393 0.36309 0.0
C623 C 0.00554 0.37698 0.27524 0.0
C624 C 0.19938 0.17121 0.28663 0.0
C625 C 0.28638 0.24123 0.31529 0.0
N626 N 0.17735 0.28271 0.3198 0.0
C627 C 0.15569 0.22165 0.30149 0.0
C628 C 0.24188 0.29179 0.32784 0.0
C629 C 0.26499 0.1811 0.29364 0.0
C630 C 0.9267 0.55477 0.39388 0.0
N631 N 0.96505 0.51404 0.36622 0.0
C632 C 0.92166 0.62585 0.38551 0.0
C633 C 0.95538 0.65529 0.3483 0.0
C634 C 0.99472 0.61394 0.32054 0.0
C635 C 0.99934 0.54291 0.32997 0.0
C636 C 0.78707 0.36445 0.42548 0.0
C637 C 0.83996 0.42767 0.34669 0.0
C638 C 0.85241 0.37762 0.42269 0.0
N639 N 0.87815 0.40863 0.38363 0.0
C640 C 0.77424 0.41402 0.3481 0.0
C641 C 0.74742 0.38344 0.38804 0.0
C642 C 0.0086 0.26424 0.38345 0.0
C643 C 0.17049 0.38263 0.4861 0.0
C644 C 0.16807 0.27307 0.42357 0.0
C645 C 0.17677 0.26018 0.47157 0.0
C646 C 0.17642 0.31509 0.50297 0.0
N647 N 0.15966 0.33926 0.40699 0.0
C648 C 0.16357 0.3938 0.43765 0.0
Co649 Co 0.52552 0.54635 0.37812 0.0
Co650 Co 0.37486 0.60303 0.35117 0.0
O651 O 0.43329 0.53334 0.37646 0.0
C652 C 0.48858 0.49127 0.47641 0.0
O653 O 0.43163 0.47085 0.46263 0.0
C654 C 0.25962 0.51758 0.3161 0.0
O655 O 0.25802 0.5529 0.27655 0.0
O656 O 0.41787 0.58695 0.28578 0.0
O657 O 0.52281 0.58225 0.30979 0.0
H658 H 0.31097 0.82603 0.27366 0.0
H659 H 0.51074 0.39871 0.41951 0.0
O660 O 0.52882 0.51517 0.44671 0.0
H661 H 0.59288 0.36393 0.25923 0.0
H662 H 0.71945 0.59415 0.47036 0.0
H663 H 0.64254 0.53504 0.31168 0.0
H664 H 0.56352 0.47828 0.28409 0.0
H665 H 0.60786 0.59697 0.45366 0.0
O666 O 0.30653 0.52612 0.34519 0.0
H667 H 0.38507 0.73317 0.29373 0.0
H668 H 0.23659 0.62901 0.36791 0.0
H669 H 0.75799 0.54678 0.32493 0.0
H670 H 0.52882 0.28272 0.39187 0.0
H671 H 0.79841 0.57262 0.40512 0.0
H672 H 0.56795 0.26288 0.30995 0.0
O673 O 0.51796 0.64419 0.40145 0.0
H674 H 0.32694 0.53355 0.51799 0.0
H675 H 0.3544 0.73048 0.40925 0.0
H676 H 0.35526 0.75093 0.49517 0.0
H677 H 0.34873 0.65166 0.5499 0.0
H678 H 0.32627 0.51537 0.4314 0.0
H679 H 0.15872 0.7155 0.34257 0.0
H680 H 0.19501 0.8148 0.29282 0.0
O681 O 0.43676 0.68044 0.35799 0.0
C682 C 0.47989 0.58804 0.27687 0.0
C683 C 0.29332 0.78166 0.29282 0.0
C684 C 0.20786 0.71937 0.33072 0.0
N685 N 0.31427 0.67155 0.32829 0.0
C686 C 0.33563 0.72873 0.30479 0.0
C687 C 0.2521 0.6691 0.34395 0.0
C688 C 0.22843 0.7752 0.3037 0.0
C689 C 0.52686 0.39377 0.384 0.0
N690 N 0.53683 0.44989 0.35501 0.0
C691 C 0.53729 0.32608 0.36837 0.0
C692 C 0.55958 0.31485 0.32275 0.0
C693 C 0.57147 0.37119 0.29369 0.0
C694 C 0.55672 0.43763 0.30939 0.0
C695 C 0.70454 0.58268 0.43496 0.0
C696 C 0.65895 0.5474 0.34657 0.0
C697 C 0.63973 0.5812 0.42554 0.0
N698 N 0.61711 0.55956 0.38261 0.0
C699 C 0.72482 0.55449 0.35388 0.0
C700 C 0.74773 0.56998 0.39872 0.0
C701 C 0.48443 0.69268 0.38402 0.0
C702 C 0.33302 0.57707 0.49422 0.0
C703 C 0.34803 0.68704 0.43281 0.0
C704 C 0.34898 0.69906 0.48145 0.0
C705 C 0.34477 0.64315 0.5122 0.0
N706 N 0.34472 0.62102 0.41534 0.0
C707 C 0.33203 0.56718 0.44517 0.0
Co708 Co 0.52852 0.41521 0.87931 0.0
Co709 Co 0.38001 0.35141 0.84552 0.0
O710 O 0.4354 0.42155 0.8747 0.0
C711 C 0.49352 0.4802 0.9747 0.0
O712 O 0.45319 0.52199 0.95322 0.0
C713 C 0.30022 0.48629 0.83371 0.0
O714 O 0.33986 0.52396 0.85899 0.0
O715 O 0.43235 0.36301 0.78314 0.0
O716 O 0.53265 0.394 0.80849 0.0
H717 H 0.3161 0.12559 0.76831 0.0
H718 H 0.59861 0.53225 0.92281 0.0
O719 O 0.52437 0.43446 0.95081 0.0
H720 H 0.47756 0.63772 0.79225 0.0
H721 H 0.72993 0.33738 0.95589 0.0
H722 H 0.63843 0.45193 0.81561 0.0
H723 H 0.46814 0.51137 0.80837 0.0
H724 H 0.616 0.35982 0.95121 0.0
O725 O 0.3139 0.42351 0.8239 0.0
H726 H 0.39367 0.21326 0.79552 0.0
H727 H 0.23913 0.33717 0.84594 0.0
H728 H 0.75453 0.42624 0.81803 0.0
H729 H 0.6068 0.6582 0.90744 0.0
H730 H 0.80223 0.37301 0.889 0.0
H731 H 0.54751 0.71011 0.84108 0.0
O732 O 0.528 0.31354 0.8933 0.0
H733 H 0.32767 0.42611 0.01027 0.0
H734 H 0.33519 0.22898 0.90037 0.0
H735 H 0.31731 0.20793 0.98469 0.0
H736 H 0.31572 0.30487 0.04014 0.0
H737 H 0.34218 0.446 0.92568 0.0
H738 H 0.16165 0.24924 0.82168 0.0
H739 H 0.19949 0.14265 0.7818 0.0
O740 O 0.43721 0.27393 0.86309 0.0
C741 C 0.49316 0.37699 0.77524 0.0
C742 C 0.29932 0.17121 0.78663 0.0
C743 C 0.21232 0.24123 0.81529 0.0
N744 N 0.32135 0.28271 0.8198 0.0
C745 C 0.34301 0.22165 0.80149 0.0
C746 C 0.25682 0.29179 0.82784 0.0
C747 C 0.23371 0.18111 0.79364 0.0
C748 C 0.572 0.55477 0.89388 0.0
N749 N 0.53365 0.51404 0.86622 0.0
C750 C 0.57704 0.62585 0.88551 0.0
C751 C 0.54333 0.65529 0.8483 0.0
C752 C 0.50399 0.61394 0.82054 0.0
C753 C 0.49936 0.54291 0.82997 0.0
C754 C 0.71163 0.36445 0.92547 0.0
C755 C 0.65874 0.42767 0.84669 0.0
C756 C 0.64629 0.37762 0.92269 0.0
N757 N 0.62055 0.40863 0.88363 0.0
C758 C 0.72446 0.41402 0.8481 0.0
C759 C 0.75127 0.38344 0.88804 0.0
C760 C 0.49009 0.26425 0.88345 0.0
C761 C 0.3282 0.38264 0.9861 0.0
C762 C 0.33062 0.27307 0.92357 0.0
C763 C 0.32193 0.26019 0.97157 0.0
C764 C 0.32228 0.3151 0.00297 0.0
N765 N 0.33904 0.33926 0.90699 0.0
C766 C 0.33513 0.3938 0.93765 0.0
Co767 Co 0.97318 0.54635 0.87812 0.0
Co768 Co 0.12384 0.60303 0.85117 0.0
O769 O 0.06541 0.53334 0.87646 0.0
C770 C 0.01013 0.49128 0.97641 0.0
O771 O 0.06708 0.47086 0.96263 0.0
C772 C 0.23908 0.51758 0.8161 0.0
O773 O 0.24069 0.55291 0.77655 0.0
O774 O 0.08083 0.58695 0.78578 0.0
O775 O 0.97589 0.58225 0.80979 0.0
H776 H 0.18772 0.82604 0.77366 0.0
H777 H 0.98798 0.39871 0.91951 0.0
O778 O 0.96989 0.51517 0.94671 0.0
H779 H 0.90582 0.36393 0.75923 0.0
H780 H 0.77925 0.59415 0.97036 0.0
H781 H 0.85617 0.53504 0.81168 0.0
H782 H 0.93518 0.47827 0.78409 0.0
H783 H 0.89084 0.59696 0.95366 0.0
O784 O 0.19217 0.52612 0.84519 0.0
H785 H 0.11363 0.73317 0.79373 0.0
H786 H 0.26211 0.62901 0.8679 0.0
H787 H 0.74072 0.54678 0.82494 0.0
H788 H 0.9699 0.28272 0.89187 0.0
H789 H 0.7003 0.57262 0.90512 0.0
H790 H 0.93076 0.26288 0.80995 0.0
O791 O 0.98074 0.64419 0.90145 0.0
H792 H 0.17177 0.53356 0.01798 0.0
H793 H 0.1443 0.73048 0.90925 0.0
H794 H 0.14344 0.75093 0.99517 0.0
H795 H 0.14998 0.65166 0.04989 0.0
H796 H 0.17244 0.51537 0.9314 0.0
H797 H 0.33998 0.7155 0.84256 0.0
H798 H 0.30368 0.81481 0.79281 0.0
O799 O 0.06194 0.68045 0.85799 0.0
C800 C 0.01881 0.58803 0.77687 0.0
C801 C 0.20538 0.78167 0.79281 0.0
C802 C 0.29084 0.71938 0.83071 0.0
N803 N 0.18443 0.67155 0.82828 0.0
C804 C 0.16307 0.72874 0.80479 0.0
C805 C 0.2466 0.66911 0.84395 0.0
C806 C 0.27027 0.7752 0.80369 0.0
C807 C 0.97185 0.39377 0.884 0.0
N808 N 0.96188 0.44989 0.85501 0.0
C809 C 0.96142 0.32608 0.86837 0.0
C810 C 0.93913 0.31485 0.82275 0.0
C811 C 0.92724 0.37119 0.7937 0.0
C812 C 0.94198 0.43762 0.80939 0.0
C813 C 0.79416 0.58268 0.93496 0.0
C814 C 0.83975 0.5474 0.84657 0.0
C815 C 0.85897 0.5812 0.92554 0.0
N816 N 0.88159 0.55956 0.88261 0.0
C817 C 0.77389 0.55449 0.85388 0.0
C818 C 0.75097 0.56998 0.89872 0.0
C819 C 0.01427 0.69268 0.88402 0.0
C820 C 0.16569 0.57708 0.99422 0.0
C821 C 0.15067 0.68705 0.9328 0.0
C822 C 0.14972 0.69907 0.98145 0.0
C823 C 0.15394 0.64315 0.0122 0.0
N824 N 0.15398 0.62103 0.91533 0.0
C825 C 0.16668 0.56718 0.94517 0.0
Co826 Co 0.02852 0.55292 0.62202 0.0
Co827 Co 0.88001 0.61671 0.65581 0.0
O828 O 0.9354 0.54657 0.62663 0.0
C829 C 0.99352 0.48793 0.52663 0.0
O830 O 0.95319 0.44613 0.54811 0.0
C831 C 0.80022 0.48184 0.66762 0.0
O832 O 0.83985 0.44416 0.64234 0.0
O833 O 0.93235 0.60512 0.71819 0.0
O834 O 0.03265 0.57413 0.69284 0.0
H835 H 0.8161 0.84254 0.73302 0.0
H836 H 0.09861 0.43587 0.57852 0.0
O837 O 0.02437 0.53367 0.55052 0.0
H838 H 0.97754 0.3304 0.70908 0.0
H839 H 0.22993 0.63074 0.54544 0.0
H840 H 0.13843 0.5162 0.68572 0.0
H841 H 0.96814 0.45676 0.69296 0.0
H842 H 0.116 0.6083 0.55012 0.0
O843 O 0.8139 0.54462 0.67743 0.0
H844 H 0.89367 0.75486 0.70581 0.0
H845 H 0.73913 0.63096 0.65539 0.0
H846 H 0.25453 0.54189 0.6833 0.0
H847 H 0.10679 0.30993 0.59389 0.0
H848 H 0.30223 0.59512 0.61232 0.0
H849 H 0.0475 0.25802 0.66025 0.0
O850 O 0.028 0.65459 0.60803 0.0
H851 H 0.82768 0.54202 0.49106 0.0
H852 H 0.83519 0.73915 0.60096 0.0
H853 H 0.81731 0.7602 0.51664 0.0
H854 H 0.81572 0.66326 0.46119 0.0
H855 H 0.84218 0.52213 0.57565 0.0
H856 H 0.66165 0.71889 0.67965 0.0
H857 H 0.69949 0.82548 0.71953 0.0
O858 O 0.93721 0.6942 0.63824 0.0
C859 C 0.99316 0.59115 0.72609 0.0
C860 C 0.79932 0.79692 0.7147 0.0
C861 C 0.71232 0.7269 0.68604 0.0
N862 N 0.82135 0.68542 0.68153 0.0
C863 C 0.84301 0.74648 0.69984 0.0
C864 C 0.75682 0.67634 0.67349 0.0
C865 C 0.73371 0.78702 0.70769 0.0
C866 C 0.07199 0.41335 0.60745 0.0
N867 N 0.03365 0.45409 0.63511 0.0
C868 C 0.07703 0.34227 0.61582 0.0
C869 C 0.04332 0.31284 0.65303 0.0
C870 C 0.00398 0.35419 0.68079 0.0
C871 C -0.00064 0.42522 0.67136 0.0
C872 C 0.21163 0.60368 0.57586 0.0
C873 C 0.15874 0.54046 0.65464 0.0
C874 C 0.14629 0.5905 0.57864 0.0
N875 N 0.12055 0.55949 0.6177 0.0
C876 C 0.22446 0.5541 0.65323 0.0
C877 C 0.25127 0.58469 0.61329 0.0
C878 C 0.9901 0.70388 0.61788 0.0
C879 C 0.8282 0.58549 0.51523 0.0
C880 C 0.83063 0.69505 0.57776 0.0
C881 C 0.82193 0.70794 0.52976 0.0
C882 C 0.82228 0.65303 0.49836 0.0
N883 N 0.83904 0.62887 0.59434 0.0
C884 C 0.83513 0.57433 0.56368 0.0
Co885 Co 0.47318 0.42178 0.6232 0.0
Co886 Co 0.62384 0.3651 0.65016 0.0
O887 O 0.56541 0.43479 0.62487 0.0
C888 C 0.51013 0.47685 0.52492 0.0
O889 O 0.56707 0.49729 0.53871 0.0
C890 C 0.73907 0.45055 0.68523 0.0
O891 O 0.74068 0.41523 0.72478 0.0
O892 O 0.58083 0.38118 0.71555 0.0
O893 O 0.47589 0.38588 0.69154 0.0
H894 H 0.68773 0.14209 0.72767 0.0
H895 H 0.48794 0.56941 0.58181 0.0
O896 O 0.46989 0.45295 0.55462 0.0
H897 H 0.40583 0.6042 0.7421 0.0
H898 H 0.27924 0.37397 0.53097 0.0
H899 H 0.35617 0.43309 0.68965 0.0
H900 H 0.43519 0.48985 0.71724 0.0
H901 H 0.39084 0.37116 0.54767 0.0
O902 O 0.69217 0.44201 0.65614 0.0
H903 H 0.61363 0.23496 0.7076 0.0
H904 H 0.76211 0.33912 0.63342 0.0
H905 H 0.24072 0.42135 0.6764 0.0
H906 H 0.46987 0.68541 0.60945 0.0
H907 H 0.20029 0.3955 0.59621 0.0
H908 H 0.43075 0.70525 0.69138 0.0
O909 O 0.48074 0.32394 0.59988 0.0
H910 H 0.67175 0.43457 0.48334 0.0
H911 H 0.6443 0.23765 0.59208 0.0
H912 H 0.64344 0.21719 0.50616 0.0
H913 H 0.64997 0.31647 0.45143 0.0
H914 H 0.67243 0.45276 0.56993 0.0
H915 H 0.83998 0.25263 0.65876 0.0
H916 H 0.80369 0.15333 0.70851 0.0
O917 O 0.56194 0.28768 0.64334 0.0
C918 C 0.5188 0.38009 0.72446 0.0
C919 C 0.70538 0.18646 0.70851 0.0
C920 C 0.79084 0.24875 0.67061 0.0
N921 N 0.68443 0.29658 0.67304 0.0
C922 C 0.66308 0.23939 0.69654 0.0
C923 C 0.7466 0.29902 0.65738 0.0
C924 C 0.77027 0.19293 0.69763 0.0
C925 C 0.47183 0.57435 0.61732 0.0
N926 N 0.46187 0.51824 0.64632 0.0
C927 C 0.4614 0.64205 0.63296 0.0
C928 C 0.43912 0.65328 0.67858 0.0
C929 C 0.42724 0.59694 0.70763 0.0
C930 C 0.44198 0.5305 0.69194 0.0
C931 C 0.29416 0.38545 0.56638 0.0
C932 C 0.33975 0.42073 0.65476 0.0
C933 C 0.35897 0.38692 0.57579 0.0
N934 N 0.38159 0.40856 0.61872 0.0
C935 C 0.27388 0.41363 0.64746 0.0
C936 C 0.25097 0.39815 0.60261 0.0
C937 C 0.51427 0.27545 0.61731 0.0
C938 C 0.66568 0.39105 0.50711 0.0
C939 C 0.65067 0.28108 0.56852 0.0
C940 C 0.64971 0.26906 0.51988 0.0
C941 C 0.65393 0.32498 0.48913 0.0
N942 N 0.65398 0.3471 0.58599 0.0
C943 C 0.66667 0.40095 0.55616 0.0
loop_
_geom_bond_atom_site_label_1
_geom_bond_atom_site_label_2
_geom_bond_distance
_geom_bond_site_symmetry_2
_ccdc_geom_bond_type
Co0 O2 2.143 1_655 S
Co0 O8 2.074 . S
Co0 O11 2.093 . S
Co0 O24 2.097 . S
Co0 N41 2.151 1_545 S
Co0 N49 2.214 . S
Co1 O2 2.160 . S
Co1 O7 2.058 . S
Co1 O17 2.057 . S
Co1 O32 2.037 . S
Co1 N36 2.145 . S
Co1 N57 2.257 . S
O2 Co0 2.143 1_455 S
O2 Co1 2.160 . S
C3 O4 1.278 . S
C3 O11 1.224 1_455 S
O4 C3 1.278 . S
C5 O6 1.245 . S
C5 O17 1.232 1_565 S
O6 C5 1.245 . S
O7 Co1 2.058 . S
O7 C33 1.269 . S
O8 Co0 2.074 . S
O8 C33 1.257 1_655 S
H9 C34 0.930 . S
H10 C40 0.930 1_455 S
O11 Co0 2.093 . S
O11 C3 1.224 1_655 S
H12 C44 0.929 . S
H13 C46 0.930 1_565 S
H14 C47 0.930 . S
H15 C45 0.929 . S
H16 C48 0.928 1_565 S
O17 Co1 2.057 . S
O17 C5 1.232 1_545 S
H18 C37 0.929 . S
H19 C38 0.929 . S
H20 C50 0.931 . S
H21 C42 0.929 . S
H22 C51 0.930 . S
H23 C43 0.931 . S
O24 Co0 2.097 . S
O24 C52 1.213 1_655 S
H25 C53 0.929 1_556 S
H26 C54 0.929 . S
H27 C55 0.930 . S
H28 C56 0.929 1_556 S
H29 C58 0.930 . S
H30 C35 0.930 . S
H31 C39 0.930 . S
O32 Co1 2.037 . S
O32 C52 1.236 . S
C33 O7 1.269 . S
C33 O8 1.257 1_455 S
C34 H9 0.930 . S
C34 C37 1.388 . S
C34 C39 1.418 . S
C35 H30 0.930 . S
C35 C38 1.404 . S
C35 C39 1.353 . S
N36 Co1 2.145 . S
N36 C37 1.397 . S
N36 C38 1.334 . S
C37 H18 0.929 . S
C37 C34 1.388 . S
C37 N36 1.397 . S
C38 H19 0.929 . S
C38 C35 1.404 . S
C38 N36 1.334 . S
C39 H31 0.930 . S
C39 C34 1.418 . S
C39 C35 1.353 . S
C40 H10 0.930 1_655 S
C40 N41 1.330 . S
C40 C42 1.446 . S
N41 Co0 2.151 1_565 S
N41 C40 1.330 . S
N41 C45 1.418 . S
C42 H21 0.929 . S
C42 C40 1.446 . S
C42 C43 1.332 . S
C43 H23 0.931 . S
C43 C42 1.332 . S
C43 C44 1.267 . S
C44 H12 0.929 . S
C44 C43 1.267 . S
C44 C45 1.251 . S
C45 H15 0.929 . S
C45 N41 1.418 . S
C45 C44 1.251 . S
C46 H13 0.930 1_545 S
C46 C48 1.406 . S
C46 C51 1.261 . S
C47 H14 0.930 . S
C47 N49 1.325 . S
C47 C50 1.357 . S
C48 H16 0.928 1_545 S
C48 C46 1.406 . S
C48 N49 1.261 . S
N49 Co0 2.214 . S
N49 C47 1.325 . S
N49 C48 1.261 . S
C50 H20 0.931 . S
C50 C47 1.357 . S
C50 C51 1.312 . S
C51 H22 0.930 . S
C51 C46 1.261 . S
C51 C50 1.312 . S
C52 O24 1.213 1_455 S
C52 O32 1.236 . S
C53 H25 0.929 1_554 S
C53 C56 1.391 . S
C53 C58 1.391 . S
C54 H26 0.929 . S
C54 C55 1.390 . S
C54 N57 1.391 . S
C55 H27 0.930 . S
C55 C54 1.390 . S
C55 C56 1.392 . S
C56 H28 0.929 1_554 S
C56 C53 1.391 . S
C56 C55 1.392 . S
N57 Co1 2.257 . S
N57 C54 1.391 . S
N57 C58 1.388 . S
C58 H29 0.930 . S
C58 C53 1.391 . S
C58 N57 1.388 . S
Co59 O61 2.143 . S
Co59 O67 2.074 . S
Co59 O70 2.093 . S
Co59 O83 2.097 . S
Co59 N100 2.151 1_565 S
Co59 N108 2.214 . S
Co60 O61 2.160 . S
Co60 O66 2.058 . S
Co60 O76 2.057 . S
Co60 O91 2.037 . S
Co60 N95 2.145 . S
Co60 N116 2.257 . S
O61 Co59 2.143 . S
O61 Co60 2.160 . S
C62 O63 1.278 . S
C62 O70 1.224 . S
O63 C62 1.278 . S
C64 O65 1.245 . S
C64 O76 1.232 1_545 S
O65 C64 1.245 . S
O66 Co60 2.058 . S
O66 C92 1.269 . S
O67 Co59 2.074 . S
O67 C92 1.257 . S
H68 C93 0.930 . S
H69 C99 0.930 . S
O70 Co59 2.093 . S
O70 C62 1.224 . S
H71 C103 0.929 . S
H72 C105 0.930 1_545 S
H73 C106 0.930 . S
H74 C104 0.929 . S
H75 C107 0.928 1_545 S
O76 Co60 2.057 . S
O76 C64 1.232 1_565 S
H77 C96 0.929 . S
H78 C97 0.929 . S
H79 C109 0.931 . S
H80 C101 0.929 . S
H81 C110 0.930 . S
H82 C102 0.931 . S
O83 Co59 2.097 . S
O83 C111 1.214 . S
H84 C112 0.929 1_556 S
H85 C113 0.929 . S
H86 C114 0.930 . S
H87 C115 0.929 1_556 S
H88 C117 0.930 . S
H89 C94 0.930 . S
H90 C98 0.930 . S
O91 Co60 2.037 . S
O91 C111 1.234 . S
C92 O66 1.269 . S
C92 O67 1.257 . S
C93 H68 0.930 . S
C93 C96 1.388 . S
C93 C98 1.418 . S
C94 H89 0.930 . S
C94 C97 1.404 . S
C94 C98 1.353 . S
N95 Co60 2.145 . S
N95 C96 1.397 . S
N95 C97 1.334 . S
C96 H77 0.929 . S
C96 C93 1.388 . S
C96 N95 1.397 . S
C97 H78 0.929 . S
C97 C94 1.404 . S
C97 N95 1.334 . S
C98 H90 0.930 . S
C98 C93 1.418 . S
C98 C94 1.353 . S
C99 H69 0.930 . S
C99 N100 1.330 . S
C99 C101 1.446 . S
N100 Co59 2.151 1_545 S
N100 C99 1.330 . S
N100 C104 1.418 . S
C101 H80 0.929 . S
C101 C99 1.446 . S
C101 C102 1.332 . S
C102 H82 0.931 . S
C102 C101 1.332 . S
C102 C103 1.267 . S
C103 H71 0.929 . S
C103 C102 1.267 . S
C103 C104 1.251 . S
C104 H74 0.929 . S
C104 N100 1.418 . S
C104 C103 1.251 . S
C105 H72 0.930 1_565 S
C105 C107 1.406 . S
C105 C110 1.261 . S
C106 H73 0.930 . S
C106 N108 1.325 . S
C106 C109 1.357 . S
C107 H75 0.928 1_565 S
C107 C105 1.406 . S
C107 N108 1.261 . S
N108 Co59 2.214 . S
N108 C106 1.325 . S
N108 C107 1.261 . S
C109 H79 0.931 . S
C109 C106 1.357 . S
C109 C110 1.312 . S
C110 H81 0.930 . S
C110 C105 1.261 . S
C110 C109 1.312 . S
C111 O83 1.214 . S
C111 O91 1.234 . S
C112 H84 0.929 1_554 S
C112 C115 1.391 . S
C112 C117 1.391 . S
C113 H85 0.929 . S
C113 C114 1.390 . S
C113 N116 1.391 . S
C114 H86 0.930 . S
C114 C113 1.390 . S
C114 C115 1.392 . S
C115 H87 0.929 1_554 S
C115 C112 1.391 . S
C115 C114 1.392 . S
N116 Co60 2.257 . S
N116 C113 1.391 . S
N116 C117 1.388 . S
C117 H88 0.930 . S
C117 C112 1.391 . S
C117 N116 1.388 . S
Co118 O120 2.143 . S
Co118 O126 2.074 . S
Co118 O129 2.093 . S
Co118 O142 2.097 . S
Co118 N159 2.151 1_565 S
Co118 N167 2.214 . S
Co119 O120 2.160 . S
Co119 O125 2.058 . S
Co119 O135 2.057 . S
Co119 O150 2.037 . S
Co119 N154 2.145 . S
Co119 N175 2.257 . S
O120 Co118 2.143 . S
O120 Co119 2.160 . S
C121 O122 1.278 . S
C121 O129 1.224 . S
O122 C121 1.278 . S
C123 O124 1.245 . S
C123 O135 1.232 1_545 S
O124 C123 1.245 . S
O125 Co119 2.058 . S
O125 C151 1.269 . S
O126 Co118 2.074 . S
O126 C151 1.257 . S
H127 C152 0.930 . S
H128 C158 0.930 . S
O129 Co118 2.093 . S
O129 C121 1.224 . S
H130 C162 0.929 . S
H131 C164 0.930 1_545 S
H132 C165 0.930 . S
H133 C163 0.929 . S
H134 C166 0.928 1_545 S
O135 Co119 2.057 . S
O135 C123 1.232 1_565 S
H136 C155 0.929 . S
H137 C156 0.929 . S
H138 C168 0.931 . S
H139 C160 0.929 . S
H140 C169 0.930 . S
H141 C161 0.931 . S
O142 Co118 2.097 . S
O142 C170 1.214 . S
H143 C171 0.929 . S
H144 C172 0.929 . S
H145 C173 0.930 . S
H146 C174 0.929 . S
H147 C176 0.930 . S
H148 C153 0.930 . S
H149 C157 0.930 . S
O150 Co119 2.037 . S
O150 C170 1.234 . S
C151 O125 1.269 . S
C151 O126 1.257 . S
C152 H127 0.930 . S
C152 C155 1.388 . S
C152 C157 1.418 . S
C153 H148 0.930 . S
C153 C156 1.404 . S
C153 C157 1.353 . S
N154 Co119 2.145 . S
N154 C155 1.397 . S
N154 C156 1.334 . S
C155 H136 0.929 . S
C155 C152 1.388 . S
C155 N154 1.397 . S
C156 H137 0.929 . S
C156 C153 1.404 . S
C156 N154 1.334 . S
C157 H149 0.930 . S
C157 C152 1.418 . S
C157 C153 1.353 . S
C158 H128 0.930 . S
C158 N159 1.330 . S
C158 C160 1.446 . S
N159 Co118 2.151 1_545 S
N159 C158 1.330 . S
N159 C163 1.418 . S
C160 H139 0.929 . S
C160 C158 1.446 . S
C160 C161 1.332 . S
C161 H141 0.931 . S
C161 C160 1.332 . S
C161 C162 1.267 . S
C162 H130 0.929 . S
C162 C161 1.267 . S
C162 C163 1.251 . S
C163 H133 0.929 . S
C163 N159 1.418 . S
C163 C162 1.251 . S
C164 H131 0.930 1_565 S
C164 C166 1.406 . S
C164 C169 1.261 . S
C165 H132 0.930 . S
C165 N167 1.325 . S
C165 C168 1.357 . S
C166 H134 0.928 1_565 S
C166 C164 1.406 . S
C166 N167 1.261 . S
N167 Co118 2.214 . S
N167 C165 1.325 . S
N167 C166 1.261 . S
C168 H138 0.931 . S
C168 C165 1.357 . S
C168 C169 1.312 . S
C169 H140 0.930 . S
C169 C164 1.261 . S
C169 C168 1.312 . S
C170 O142 1.214 . S
C170 O150 1.234 . S
C171 H143 0.929 . S
C171 C174 1.391 . S
C171 C176 1.391 . S
C172 H144 0.929 . S
C172 C173 1.390 . S
C172 N175 1.391 . S
C173 H145 0.930 . S
C173 C172 1.390 . S
C173 C174 1.392 . S
C174 H146 0.929 . S
C174 C171 1.391 . S
C174 C173 1.392 . S
N175 Co119 2.257 . S
N175 C172 1.391 . S
N175 C176 1.388 . S
C176 H147 0.930 . S
C176 C171 1.391 . S
C176 N175 1.388 . S
Co177 O179 2.143 1_455 S
Co177 O185 2.074 . S
Co177 O188 2.093 . S
Co177 O201 2.097 . S
Co177 N218 2.151 1_545 S
Co177 N226 2.214 . S
Co178 O179 2.160 . S
Co178 O184 2.058 . S
Co178 O194 2.057 . S
Co178 O209 2.037 . S
Co178 N213 2.145 . S
Co178 N234 2.257 . S
O179 Co177 2.143 1_655 S
O179 Co178 2.160 . S
C180 O181 1.278 . S
C180 O188 1.224 1_655 S
O181 C180 1.278 . S
C182 O183 1.245 . S
C182 O194 1.232 1_565 S
O183 C182 1.245 . S
O184 Co178 2.058 . S
O184 C210 1.269 . S
O185 Co177 2.074 . S
O185 C210 1.257 1_455 S
H186 C211 0.930 . S
H187 C217 0.930 1_655 S
O188 Co177 2.093 . S
O188 C180 1.224 1_455 S
H189 C221 0.929 . S
H190 C223 0.930 1_565 S
H191 C224 0.930 . S
H192 C222 0.929 . S
H193 C225 0.928 1_565 S
O194 Co178 2.057 . S
O194 C182 1.232 1_545 S
H195 C214 0.929 . S
H196 C215 0.929 . S
H197 C227 0.931 . S
H198 C219 0.929 . S
H199 C228 0.930 . S
H200 C220 0.931 . S
O201 Co177 2.097 . S
O201 C229 1.213 1_455 S
H202 C230 0.929 . S
H203 C231 0.929 . S
H204 C232 0.930 . S
H205 C233 0.929 . S
H206 C235 0.930 . S
H207 C212 0.930 . S
H208 C216 0.930 . S
O209 Co178 2.037 . S
O209 C229 1.236 . S
C210 O184 1.269 . S
C210 O185 1.257 1_655 S
C211 H186 0.930 . S
C211 C214 1.388 . S
C211 C216 1.418 . S
C212 H207 0.930 . S
C212 C215 1.404 . S
C212 C216 1.353 . S
N213 Co178 2.145 . S
N213 C214 1.397 . S
N213 C215 1.334 . S
C214 H195 0.929 . S
C214 C211 1.388 . S
C214 N213 1.397 . S
C215 H196 0.929 . S
C215 C212 1.404 . S
C215 N213 1.334 . S
C216 H208 0.930 . S
C216 C211 1.418 . S
C216 C212 1.353 . S
C217 H187 0.930 1_455 S
C217 N218 1.330 . S
C217 C219 1.446 . S
N218 Co177 2.151 1_565 S
N218 C217 1.330 . S
N218 C222 1.418 . S
C219 H198 0.929 . S
C219 C217 1.446 . S
C219 C220 1.332 . S
C220 H200 0.931 . S
C220 C219 1.332 . S
C220 C221 1.267 . S
C221 H189 0.929 . S
C221 C220 1.267 . S
C221 C222 1.251 . S
C222 H192 0.929 . S
C222 N218 1.418 . S
C222 C221 1.251 . S
C223 H190 0.930 1_545 S
C223 C225 1.406 . S
C223 C228 1.261 . S
C224 H191 0.930 . S
C224 N226 1.325 . S
C224 C227 1.357 . S
C225 H193 0.928 1_545 S
C225 C223 1.406 . S
C225 N226 1.261 . S
N226 Co177 2.214 . S
N226 C224 1.325 . S
N226 C225 1.261 . S
C227 H197 0.931 . S
C227 C224 1.357 . S
C227 C228 1.312 . S
C228 H199 0.930 . S
C228 C223 1.261 . S
C228 C227 1.312 . S
C229 O201 1.213 1_655 S
C229 O209 1.236 . S
C230 H202 0.929 . S
C230 C233 1.391 . S
C230 C235 1.391 . S
C231 H203 0.929 . S
C231 C232 1.390 . S
C231 N234 1.391 . S
C232 H204 0.930 . S
C232 C231 1.390 . S
C232 C233 1.392 . S
C233 H205 0.929 . S
C233 C230 1.391 . S
C233 C232 1.392 . S
N234 Co178 2.257 . S
N234 C231 1.391 . S
N234 C235 1.388 . S
C235 H206 0.930 . S
C235 C230 1.391 . S
C235 N234 1.388 . S
Co236 O238 2.143 1_455 S
Co236 O244 2.074 . S
Co236 O247 2.093 . S
Co236 O260 2.097 . S
Co236 N277 2.151 1_565 S
Co236 N285 2.214 . S
Co237 O238 2.160 . S
Co237 O243 2.058 . S
Co237 O253 2.057 . S
Co237 O268 2.037 . S
Co237 N272 2.145 . S
Co237 N293 2.257 . S
O238 Co236 2.143 1_655 S
O238 Co237 2.160 . S
C239 O240 1.278 . S
C239 O247 1.224 1_655 S
O240 C239 1.278 . S
C241 O242 1.245 . S
C241 O253 1.232 1_545 S
O242 C241 1.245 . S
O243 Co237 2.058 . S
O243 C269 1.269 . S
O244 Co236 2.074 . S
O244 C269 1.257 1_455 S
H245 C270 0.930 . S
H246 C276 0.930 1_655 S
O247 Co236 2.093 . S
O247 C239 1.224 1_455 S
H248 C280 0.929 . S
H249 C282 0.930 1_545 S
H250 C283 0.930 . S
H251 C281 0.929 . S
H252 C284 0.928 1_545 S
O253 Co237 2.057 . S
O253 C241 1.232 1_565 S
H254 C273 0.929 . S
H255 C274 0.929 . S
H256 C286 0.931 . S
H257 C278 0.929 . S
H258 C287 0.930 . S
H259 C279 0.931 . S
O260 Co236 2.097 . S
O260 C288 1.213 1_455 S
H261 C289 0.929 1_554 S
H262 C290 0.929 . S
H263 C291 0.930 . S
H264 C292 0.929 1_554 S
H265 C294 0.930 . S
H266 C271 0.930 . S
H267 C275 0.930 . S
O268 Co237 2.037 . S
O268 C288 1.236 . S
C269 O243 1.269 . S
C269 O244 1.257 1_655 S
C270 H245 0.930 . S
C270 C273 1.388 . S
C270 C275 1.418 . S
C271 H266 0.930 . S
C271 C274 1.404 . S
C271 C275 1.353 . S
N272 Co237 2.145 . S
N272 C273 1.397 . S
N272 C274 1.334 . S
C273 H254 0.929 . S
C273 C270 1.388 . S
C273 N272 1.397 . S
C274 H255 0.929 . S
C274 C271 1.404 . S
C274 N272 1.334 . S
C275 H267 0.930 . S
C275 C270 1.418 . S
C275 C271 1.353 . S
C276 H246 0.930 1_455 S
C276 N277 1.330 . S
C276 C278 1.446 . S
N277 Co236 2.151 1_545 S
N277 C276 1.330 . S
N277 C281 1.418 . S
C278 H257 0.929 . S
C278 C276 1.446 . S
C278 C279 1.332 . S
C279 H259 0.931 . S
C279 C278 1.332 . S
C279 C280 1.267 . S
C280 H248 0.929 . S
C280 C279 1.267 . S
C280 C281 1.251 . S
C281 H251 0.929 . S
C281 N277 1.418 . S
C281 C280 1.251 . S
C282 H249 0.930 1_565 S
C282 C284 1.406 . S
C282 C287 1.261 . S
C283 H250 0.930 . S
C283 N285 1.325 . S
C283 C286 1.357 . S
C284 H252 0.928 1_565 S
C284 C282 1.406 . S
C284 N285 1.261 . S
N285 Co236 2.214 . S
N285 C283 1.325 . S
N285 C284 1.261 . S
C286 H256 0.931 . S
C286 C283 1.357 . S
C286 C287 1.312 . S
C287 H258 0.930 . S
C287 C282 1.261 . S
C287 C286 1.312 . S
C288 O260 1.213 1_655 S
C288 O268 1.236 . S
C289 H261 0.929 1_556 S
C289 C292 1.391 . S
C289 C294 1.391 . S
C290 H262 0.929 . S
C290 C291 1.390 . S
C290 N293 1.391 . S
C291 H263 0.930 . S
C291 C290 1.390 . S
C291 C292 1.392 . S
C292 H264 0.929 1_556 S
C292 C289 1.391 . S
C292 C291 1.392 . S
N293 Co237 2.257 . S
N293 C290 1.391 . S
N293 C294 1.388 . S
C294 H265 0.930 . S
C294 C289 1.391 . S
C294 N293 1.388 . S
Co295 O297 2.143 . S
Co295 O303 2.074 . S
Co295 O306 2.093 . S
Co295 O319 2.097 . S
Co295 N336 2.151 1_545 S
Co295 N344 2.214 . S
Co296 O297 2.160 . S
Co296 O302 2.058 . S
Co296 O312 2.057 . S
Co296 O327 2.037 . S
Co296 N331 2.145 . S
Co296 N352 2.257 . S
O297 Co295 2.143 . S
O297 Co296 2.160 . S
C298 O299 1.278 . S
C298 O306 1.224 . S
O299 C298 1.278 . S
C300 O301 1.245 . S
C300 O312 1.232 1_565 S
O301 C300 1.245 . S
O302 Co296 2.058 . S
O302 C328 1.269 . S
O303 Co295 2.074 . S
O303 C328 1.257 . S
H304 C329 0.930 . S
H305 C335 0.930 . S
O306 Co295 2.093 . S
O306 C298 1.224 . S
H307 C339 0.929 . S
H308 C341 0.930 1_565 S
H309 C342 0.930 . S
H310 C340 0.929 . S
H311 C343 0.928 1_565 S
O312 Co296 2.057 . S
O312 C300 1.232 1_545 S
H313 C332 0.929 . S
H314 C333 0.929 . S
H315 C345 0.931 . S
H316 C337 0.929 . S
H317 C346 0.930 . S
H318 C338 0.931 . S
O319 Co295 2.097 . S
O319 C347 1.214 . S
H320 C348 0.929 1_554 S
H321 C349 0.929 . S
H322 C350 0.930 . S
H323 C351 0.929 1_554 S
H324 C353 0.930 . S
H325 C330 0.930 . S
H326 C334 0.930 . S
O327 Co296 2.037 . S
O327 C347 1.234 . S
C328 O302 1.269 . S
C328 O303 1.257 . S
C329 H304 0.930 . S
C329 C332 1.388 . S
C329 C334 1.418 . S
C330 H325 0.930 . S
C330 C333 1.404 . S
C330 C334 1.353 . S
N331 Co296 2.145 . S
N331 C332 1.397 . S
N331 C333 1.334 . S
C332 H313 0.929 . S
C332 C329 1.388 . S
C332 N331 1.397 . S
C333 H314 0.929 . S
C333 C330 1.404 . S
C333 N331 1.334 . S
C334 H326 0.930 . S
C334 C329 1.418 . S
C334 C330 1.353 . S
C335 H305 0.930 . S
C335 N336 1.330 . S
C335 C337 1.446 . S
N336 Co295 2.151 1_565 S
N336 C335 1.330 . S
N336 C340 1.418 . S
C337 H316 0.929 . S
C337 C335 1.446 . S
C337 C338 1.332 . S
C338 H318 0.931 . S
C338 C337 1.332 . S
C338 C339 1.267 . S
C339 H307 0.929 . S
C339 C338 1.267 . S
C339 C340 1.251 . S
C340 H310 0.929 . S
C340 N336 1.418 . S
C340 C339 1.251 . S
C341 H308 0.930 1_545 S
C341 C343 1.406 . S
C341 C346 1.261 . S
C342 H309 0.930 . S
C342 N344 1.325 . S
C342 C345 1.357 . S
C343 H311 0.928 1_545 S
C343 C341 1.406 . S
C343 N344 1.261 . S
N344 Co295 2.214 . S
N344 C342 1.325 . S
N344 C343 1.261 . S
C345 H315 0.931 . S
C345 C342 1.357 . S
C345 C346 1.312 . S
C346 H317 0.930 . S
C346 C341 1.261 . S
C346 C345 1.312 . S
C347 O319 1.214 . S
C347 O327 1.234 . S
C348 H320 0.929 1_556 S
C348 C351 1.391 . S
C348 C353 1.391 . S
C349 H321 0.929 . S
C349 C350 1.390 . S
C349 N352 1.391 . S
C350 H322 0.930 . S
C350 C349 1.390 . S
C350 C351 1.392 . S
C351 H323 0.929 1_556 S
C351 C348 1.391 . S
C351 C350 1.392 . S
N352 Co296 2.257 . S
N352 C349 1.391 . S
N352 C353 1.388 . S
C353 H324 0.930 . S
C353 C348 1.391 . S
C353 N352 1.388 . S
Co354 O356 2.143 . S
Co354 O362 2.074 . S
Co354 O365 2.093 . S
Co354 O378 2.097 . S
Co354 N395 2.151 1_545 S
Co354 N403 2.214 . S
Co355 O356 2.160 . S
Co355 O361 2.058 . S
Co355 O371 2.057 . S
Co355 O386 2.037 . S
Co355 N390 2.145 . S
Co355 N411 2.257 . S
O356 Co354 2.143 . S
O356 Co355 2.160 . S
C357 O358 1.278 . S
C357 O365 1.224 . S
O358 C357 1.278 . S
C359 O360 1.245 . S
C359 O371 1.232 1_565 S
O360 C359 1.245 . S
O361 Co355 2.058 . S
O361 C387 1.269 . S
O362 Co354 2.074 . S
O362 C387 1.257 . S
H363 C388 0.930 . S
H364 C394 0.930 . S
O365 Co354 2.093 . S
O365 C357 1.224 . S
H366 C398 0.929 . S
H367 C400 0.930 1_565 S
H368 C401 0.930 . S
H369 C399 0.929 . S
H370 C402 0.928 1_565 S
O371 Co355 2.057 . S
O371 C359 1.232 1_545 S
H372 C391 0.929 . S
H373 C392 0.929 . S
H374 C404 0.931 . S
H375 C396 0.929 . S
H376 C405 0.930 . S
H377 C397 0.931 . S
O378 Co354 2.097 . S
O378 C406 1.214 . S
H379 C407 0.929 . S
H380 C408 0.929 . S
H381 C409 0.930 . S
H382 C410 0.929 . S
H383 C412 0.930 . S
H384 C389 0.930 . S
H385 C393 0.930 . S
O386 Co355 2.037 . S
O386 C406 1.234 . S
C387 O361 1.269 . S
C387 O362 1.257 . S
C388 H363 0.930 . S
C388 C391 1.388 . S
C388 C393 1.418 . S
C389 H384 0.930 . S
C389 C392 1.404 . S
C389 C393 1.353 . S
N390 Co355 2.145 . S
N390 C391 1.397 . S
N390 C392 1.334 . S
C391 H372 0.929 . S
C391 C388 1.388 . S
C391 N390 1.397 . S
C392 H373 0.929 . S
C392 C389 1.404 . S
C392 N390 1.334 . S
C393 H385 0.930 . S
C393 C388 1.418 . S
C393 C389 1.353 . S
C394 H364 0.930 . S
C394 N395 1.330 . S
C394 C396 1.446 . S
N395 Co354 2.151 1_565 S
N395 C394 1.330 . S
N395 C399 1.418 . S
C396 H375 0.929 . S
C396 C394 1.446 . S
C396 C397 1.332 . S
C397 H377 0.931 . S
C397 C396 1.332 . S
C397 C398 1.267 . S
C398 H366 0.929 . S
C398 C397 1.267 . S
C398 C399 1.251 . S
C399 H369 0.929 . S
C399 N395 1.418 . S
C399 C398 1.251 . S
C400 H367 0.930 1_545 S
C400 C402 1.406 . S
C400 C405 1.261 . S
C401 H368 0.930 . S
C401 N403 1.325 . S
C401 C404 1.357 . S
C402 H370 0.928 1_545 S
C402 C400 1.406 . S
C402 N403 1.261 . S
N403 Co354 2.214 . S
N403 C401 1.325 . S
N403 C402 1.261 . S
C404 H374 0.931 . S
C404 C401 1.357 . S
C404 C405 1.312 . S
C405 H376 0.930 . S
C405 C400 1.261 . S
C405 C404 1.312 . S
C406 O378 1.214 . S
C406 O386 1.234 . S
C407 H379 0.929 . S
C407 C410 1.391 . S
C407 C412 1.391 . S
C408 H380 0.929 . S
C408 C409 1.390 . S
C408 N411 1.391 . S
C409 H381 0.930 . S
C409 C408 1.390 . S
C409 C410 1.392 . S
C410 H382 0.929 . S
C410 C407 1.391 . S
C410 C409 1.392 . S
N411 Co355 2.257 . S
N411 C408 1.391 . S
N411 C412 1.388 . S
C412 H383 0.930 . S
C412 C407 1.391 . S
C412 N411 1.388 . S
Co413 O415 2.143 1_655 S
Co413 O421 2.074 . S
Co413 O424 2.093 . S
Co413 O437 2.097 . S
Co413 N454 2.151 1_565 S
Co413 N462 2.214 . S
Co414 O415 2.160 . S
Co414 O420 2.058 . S
Co414 O430 2.057 . S
Co414 O445 2.037 . S
Co414 N449 2.145 . S
Co414 N470 2.257 . S
O415 Co413 2.143 1_455 S
O415 Co414 2.160 . S
C416 O417 1.278 . S
C416 O424 1.224 1_455 S
O417 C416 1.278 . S
C418 O419 1.245 . S
C418 O430 1.232 1_545 S
O419 C418 1.245 . S
O420 Co414 2.058 . S
O420 C446 1.269 . S
O421 Co413 2.074 . S
O421 C446 1.257 1_655 S
H422 C447 0.930 . S
H423 C453 0.930 1_455 S
O424 Co413 2.093 . S
O424 C416 1.224 1_655 S
H425 C457 0.929 . S
H426 C459 0.930 1_545 S
H427 C460 0.930 . S
H428 C458 0.929 . S
H429 C461 0.928 1_545 S
O430 Co414 2.057 . S
O430 C418 1.232 1_565 S
H431 C450 0.929 . S
H432 C451 0.929 . S
H433 C463 0.931 . S
H434 C455 0.929 . S
H435 C464 0.930 . S
H436 C456 0.931 . S
O437 Co413 2.097 . S
O437 C465 1.213 1_655 S
H438 C466 0.929 . S
H439 C467 0.929 . S
H440 C468 0.930 . S
H441 C469 0.929 . S
H442 C471 0.930 . S
H443 C448 0.930 . S
H444 C452 0.930 . S
O445 Co414 2.037 . S
O445 C465 1.236 . S
C446 O420 1.269 . S
C446 O421 1.257 1_455 S
C447 H422 0.930 . S
C447 C450 1.388 . S
C447 C452 1.418 . S
C448 H443 0.930 . S
C448 C451 1.404 . S
C448 C452 1.353 . S
N449 Co414 2.145 . S
N449 C450 1.397 . S
N449 C451 1.334 . S
C450 H431 0.929 . S
C450 C447 1.388 . S
C450 N449 1.397 . S
C451 H432 0.929 . S
C451 C448 1.404 . S
C451 N449 1.334 . S
C452 H444 0.930 . S
C452 C447 1.418 . S
C452 C448 1.353 . S
C453 H423 0.930 1_655 S
C453 N454 1.330 . S
C453 C455 1.446 . S
N454 Co413 2.151 1_545 S
N454 C453 1.330 . S
N454 C458 1.418 . S
C455 H434 0.929 . S
C455 C453 1.446 . S
C455 C456 1.332 . S
C456 H436 0.931 . S
C456 C455 1.332 . S
C456 C457 1.267 . S
C457 H425 0.929 . S
C457 C456 1.267 . S
C457 C458 1.251 . S
C458 H428 0.929 . S
C458 N454 1.418 . S
C458 C457 1.251 . S
C459 H426 0.930 1_565 S
C459 C461 1.406 . S
C459 C464 1.261 . S
C460 H427 0.930 . S
C460 N462 1.325 . S
C460 C463 1.357 . S
C461 H429 0.928 1_565 S
C461 C459 1.406 . S
C461 N462 1.261 . S
N462 Co413 2.214 . S
N462 C460 1.325 . S
N462 C461 1.261 . S
C463 H433 0.931 . S
C463 C460 1.357 . S
C463 C464 1.312 . S
C464 H435 0.930 . S
C464 C459 1.261 . S
C464 C463 1.312 . S
C465 O437 1.213 1_455 S
C465 O445 1.236 . S
C466 H438 0.929 . S
C466 C469 1.391 . S
C466 C471 1.391 . S
C467 H439 0.929 . S
C467 C468 1.390 . S
C467 N470 1.391 . S
C468 H440 0.930 . S
C468 C467 1.390 . S
C468 C469 1.392 . S
C469 H441 0.929 . S
C469 C466 1.391 . S
C469 C468 1.392 . S
N470 Co414 2.257 . S
N470 C467 1.391 . S
N470 C471 1.388 . S
C471 H442 0.930 . S
C471 C466 1.391 . S
C471 N470 1.388 . S
Co472 O474 2.143 . S
Co472 O480 2.074 . S
Co472 O483 2.093 . S
Co472 O496 2.097 . S
Co472 N513 2.151 . S
Co472 N521 2.214 . S
Co473 O474 2.160 . S
Co473 O479 2.058 . S
Co473 O489 2.057 . S
Co473 O504 2.037 . S
Co473 N508 2.145 . S
Co473 N529 2.257 . S
O474 Co472 2.143 . S
O474 Co473 2.160 . S
C475 O476 1.278 . S
C475 O483 1.224 . S
O476 C475 1.278 . S
C477 O478 1.245 . S
C477 O489 1.232 . S
O478 C477 1.245 . S
O479 Co473 2.058 . S
O479 C505 1.269 . S
O480 Co472 2.074 . S
O480 C505 1.257 . S
H481 C506 0.930 . S
H482 C512 0.930 . S
O483 Co472 2.093 . S
O483 C475 1.224 . S
H484 C516 0.929 . S
H485 C518 0.930 . S
H486 C519 0.930 . S
H487 C517 0.929 . S
H488 C520 0.928 . S
O489 Co473 2.057 . S
O489 C477 1.232 . S
H490 C509 0.929 . S
H491 C510 0.929 . S
H492 C522 0.931 . S
H493 C514 0.929 . S
H494 C523 0.930 . S
H495 C515 0.931 . S
O496 Co472 2.097 . S
O496 C524 1.214 . S
H497 C525 0.929 1_556 S
H498 C526 0.929 . S
H499 C527 0.930 . S
H500 C528 0.929 1_556 S
H501 C530 0.930 . S
H502 C507 0.930 . S
H503 C511 0.930 . S
O504 Co473 2.037 . S
O504 C524 1.234 . S
C505 O479 1.269 . S
C505 O480 1.257 . S
C506 H481 0.930 . S
C506 C509 1.388 . S
C506 C511 1.418 . S
C507 H502 0.930 . S
C507 C510 1.404 . S
C507 C511 1.353 . S
N508 Co473 2.145 . S
N508 C509 1.397 . S
N508 C510 1.334 . S
C509 H490 0.929 . S
C509 C506 1.388 . S
C509 N508 1.397 . S
C510 H491 0.929 . S
C510 C507 1.404 . S
C510 N508 1.334 . S
C511 H503 0.930 . S
C511 C506 1.418 . S
C511 C507 1.353 . S
C512 H482 0.930 . S
C512 N513 1.330 . S
C512 C514 1.446 . S
N513 Co472 2.151 . S
N513 C512 1.330 . S
N513 C517 1.418 . S
C514 H493 0.929 . S
C514 C512 1.446 . S
C514 C515 1.332 . S
C515 H495 0.931 . S
C515 C514 1.332 . S
C515 C516 1.267 . S
C516 H484 0.929 . S
C516 C515 1.267 . S
C516 C517 1.251 . S
C517 H487 0.929 . S
C517 N513 1.418 . S
C517 C516 1.251 . S
C518 H485 0.930 . S
C518 C520 1.406 . S
C518 C523 1.261 . S
C519 H486 0.930 . S
C519 N521 1.325 . S
C519 C522 1.357 . S
C520 H488 0.928 . S
C520 C518 1.406 . S
C520 N521 1.261 . S
N521 Co472 2.214 . S
N521 C519 1.325 . S
N521 C520 1.261 . S
C522 H492 0.931 . S
C522 C519 1.357 . S
C522 C523 1.312 . S
C523 H494 0.930 . S
C523 C518 1.261 . S
C523 C522 1.312 . S
C524 O496 1.214 . S
C524 O504 1.234 . S
C525 H497 0.929 1_554 S
C525 C528 1.391 . S
C525 C530 1.391 . S
C526 H498 0.929 . S
C526 C527 1.390 . S
C526 N529 1.391 . S
C527 H499 0.930 . S
C527 C526 1.390 . S
C527 C528 1.392 . S
C528 H500 0.929 1_554 S
C528 C525 1.391 . S
C528 C527 1.392 . S
N529 Co473 2.257 . S
N529 C526 1.391 . S
N529 C530 1.388 . S
C530 H501 0.930 . S
C530 C525 1.391 . S
C530 N529 1.388 . S
Co531 O533 2.143 1_455 S
Co531 O539 2.074 . S
Co531 O542 2.093 . S
Co531 O555 2.097 . S
Co531 N572 2.151 . S
Co531 N580 2.214 . S
Co532 O533 2.160 . S
Co532 O538 2.058 . S
Co532 O548 2.057 . S
Co532 O563 2.037 . S
Co532 N567 2.145 . S
Co532 N588 2.257 . S
O533 Co531 2.143 1_655 S
O533 Co532 2.160 . S
C534 O535 1.278 . S
C534 O542 1.224 1_655 S
O535 C534 1.278 . S
C536 O537 1.245 . S
C536 O548 1.232 . S
O537 C536 1.245 . S
O538 Co532 2.058 . S
O538 C564 1.269 . S
O539 Co531 2.074 . S
O539 C564 1.257 1_455 S
H540 C565 0.930 . S
H541 C571 0.930 1_655 S
O542 Co531 2.093 . S
O542 C534 1.224 1_455 S
H543 C575 0.929 . S
H544 C577 0.930 . S
H545 C578 0.930 . S
H546 C576 0.929 . S
H547 C579 0.928 . S
O548 Co532 2.057 . S
O548 C536 1.232 . S
H549 C568 0.929 . S
H550 C569 0.929 . S
H551 C581 0.931 . S
H552 C573 0.929 . S
H553 C582 0.930 . S
H554 C574 0.931 . S
O555 Co531 2.097 . S
O555 C583 1.213 1_455 S
H556 C584 0.929 1_556 S
H557 C585 0.929 . S
H558 C586 0.930 . S
H559 C587 0.929 1_556 S
H560 C589 0.930 . S
H561 C566 0.930 . S
H562 C570 0.930 . S
O563 Co532 2.037 . S
O563 C583 1.236 . S
C564 O538 1.269 . S
C564 O539 1.257 1_655 S
C565 H540 0.930 . S
C565 C568 1.388 . S
C565 C570 1.418 . S
C566 H561 0.930 . S
C566 C569 1.404 . S
C566 C570 1.353 . S
N567 Co532 2.145 . S
N567 C568 1.397 . S
N567 C569 1.334 . S
C568 H549 0.929 . S
C568 C565 1.388 . S
C568 N567 1.397 . S
C569 H550 0.929 . S
C569 C566 1.404 . S
C569 N567 1.334 . S
C570 H562 0.930 . S
C570 C565 1.418 . S
C570 C566 1.353 . S
C571 H541 0.930 1_455 S
C571 N572 1.330 . S
C571 C573 1.446 . S
N572 Co531 2.151 . S
N572 C571 1.330 . S
N572 C576 1.418 . S
C573 H552 0.929 . S
C573 C571 1.446 . S
C573 C574 1.332 . S
C574 H554 0.931 . S
C574 C573 1.332 . S
C574 C575 1.267 . S
C575 H543 0.929 . S
C575 C574 1.267 . S
C575 C576 1.251 . S
C576 H546 0.929 . S
C576 N572 1.418 . S
C576 C575 1.251 . S
C577 H544 0.930 . S
C577 C579 1.406 . S
C577 C582 1.261 . S
C578 H545 0.930 . S
C578 N580 1.325 . S
C578 C581 1.357 . S
C579 H547 0.928 . S
C579 C577 1.406 . S
C579 N580 1.261 . S
N580 Co531 2.214 . S
N580 C578 1.325 . S
N580 C579 1.261 . S
C581 H551 0.931 . S
C581 C578 1.357 . S
C581 C582 1.312 . S
C582 H553 0.930 . S
C582 C577 1.261 . S
C582 C581 1.312 . S
C583 O555 1.213 1_655 S
C583 O563 1.236 . S
C584 H556 0.929 1_554 S
C584 C587 1.391 . S
C584 C589 1.391 . S
C585 H557 0.929 . S
C585 C586 1.390 . S
C585 N588 1.391 . S
C586 H558 0.930 . S
C586 C585 1.390 . S
C586 C587 1.392 . S
C587 H559 0.929 1_554 S
C587 C584 1.391 . S
C587 C586 1.392 . S
N588 Co532 2.257 . S
N588 C585 1.391 . S
N588 C589 1.388 . S
C589 H560 0.930 . S
C589 C584 1.391 . S
C589 N588 1.388 . S
Co590 O592 2.143 1_655 S
Co590 O598 2.074 . S
Co590 O601 2.093 . S
Co590 O614 2.097 . S
Co590 N631 2.151 . S
Co590 N639 2.214 . S
Co591 O592 2.160 . S
Co591 O597 2.058 . S
Co591 O607 2.057 . S
Co591 O622 2.037 . S
Co591 N626 2.145 . S
Co591 N647 2.257 . S
O592 Co590 2.143 1_455 S
O592 Co591 2.160 . S
C593 O594 1.278 . S
C593 O601 1.224 1_455 S
O594 C593 1.278 . S
C595 O596 1.245 . S
C595 O607 1.232 . S
O596 C595 1.245 . S
O597 Co591 2.058 . S
O597 C623 1.269 . S
O598 Co590 2.074 . S
O598 C623 1.257 1_655 S
H599 C624 0.930 . S
H600 C630 0.930 1_455 S
O601 Co590 2.093 . S
O601 C593 1.224 1_655 S
H602 C634 0.929 . S
H603 C636 0.930 . S
H604 C637 0.930 . S
H605 C635 0.929 . S
H606 C638 0.928 . S
O607 Co591 2.057 . S
O607 C595 1.232 . S
H608 C627 0.929 . S
H609 C628 0.929 . S
H610 C640 0.931 . S
H611 C632 0.929 . S
H612 C641 0.930 . S
H613 C633 0.931 . S
O614 Co590 2.097 . S
O614 C642 1.213 1_655 S
H615 C643 0.929 . S
H616 C644 0.929 . S
H617 C645 0.930 . S
H618 C646 0.929 . S
H619 C648 0.930 . S
H620 C625 0.930 . S
H621 C629 0.930 . S
O622 Co591 2.037 . S
O622 C642 1.236 . S
C623 O597 1.269 . S
C623 O598 1.257 1_455 S
C624 H599 0.930 . S
C624 C627 1.388 . S
C624 C629 1.418 . S
C625 H620 0.930 . S
C625 C628 1.404 . S
C625 C629 1.353 . S
N626 Co591 2.145 . S
N626 C627 1.397 . S
N626 C628 1.334 . S
C627 H608 0.929 . S
C627 C624 1.388 . S
C627 N626 1.397 . S
C628 H609 0.929 . S
C628 C625 1.404 . S
C628 N626 1.334 . S
C629 H621 0.930 . S
C629 C624 1.418 . S
C629 C625 1.353 . S
C630 H600 0.930 1_655 S
C630 N631 1.330 . S
C630 C632 1.446 . S
N631 Co590 2.151 . S
N631 C630 1.330 . S
N631 C635 1.418 . S
C632 H611 0.929 . S
C632 C630 1.446 . S
C632 C633 1.332 . S
C633 H613 0.931 . S
C633 C632 1.332 . S
C633 C634 1.267 . S
C634 H602 0.929 . S
C634 C633 1.267 . S
C634 C635 1.251 . S
C635 H605 0.929 . S
C635 N631 1.418 . S
C635 C634 1.251 . S
C636 H603 0.930 . S
C636 C638 1.406 . S
C636 C641 1.261 . S
C637 H604 0.930 . S
C637 N639 1.325 . S
C637 C640 1.357 . S
C638 H606 0.928 . S
C638 C636 1.406 . S
C638 N639 1.261 . S
N639 Co590 2.214 . S
N639 C637 1.325 . S
N639 C638 1.261 . S
C640 H610 0.931 . S
C640 C637 1.357 . S
C640 C641 1.312 . S
C641 H612 0.930 . S
C641 C636 1.261 . S
C641 C640 1.312 . S
C642 O614 1.213 1_455 S
C642 O622 1.236 . S
C643 H615 0.929 . S
C643 C646 1.391 . S
C643 C648 1.391 . S
C644 H616 0.929 . S
C644 C645 1.390 . S
C644 N647 1.391 . S
C645 H617 0.930 . S
C645 C644 1.390 . S
C645 C646 1.392 . S
C646 H618 0.929 . S
C646 C643 1.391 . S
C646 C645 1.392 . S
N647 Co591 2.257 . S
N647 C644 1.391 . S
N647 C648 1.388 . S
C648 H619 0.930 . S
C648 C643 1.391 . S
C648 N647 1.388 . S
Co649 O651 2.143 . S
Co649 O657 2.074 . S
Co649 O660 2.093 . S
Co649 O673 2.097 . S
Co649 N690 2.151 . S
Co649 N698 2.214 . S
Co650 O651 2.160 . S
Co650 O656 2.058 . S
Co650 O666 2.057 . S
Co650 O681 2.037 . S
Co650 N685 2.145 . S
Co650 N706 2.257 . S
O651 Co649 2.143 . S
O651 Co650 2.160 . S
C652 O653 1.278 . S
C652 O660 1.224 . S
O653 C652 1.278 . S
C654 O655 1.245 . S
C654 O666 1.232 . S
O655 C654 1.245 . S
O656 Co650 2.058 . S
O656 C682 1.269 . S
O657 Co649 2.074 . S
O657 C682 1.257 . S
H658 C683 0.930 . S
H659 C689 0.930 . S
O660 Co649 2.093 . S
O660 C652 1.224 . S
H661 C693 0.929 . S
H662 C695 0.930 . S
H663 C696 0.930 . S
H664 C694 0.929 . S
H665 C697 0.928 . S
O666 Co650 2.057 . S
O666 C654 1.232 . S
H667 C686 0.929 . S
H668 C687 0.929 . S
H669 C699 0.931 . S
H670 C691 0.929 . S
H671 C700 0.930 . S
H672 C692 0.931 . S
O673 Co649 2.097 . S
O673 C701 1.214 . S
H674 C702 0.929 . S
H675 C703 0.929 . S
H676 C704 0.930 . S
H677 C705 0.929 . S
H678 C707 0.930 . S
H679 C684 0.930 . S
H680 C688 0.930 . S
O681 Co650 2.037 . S
O681 C701 1.234 . S
C682 O656 1.269 . S
C682 O657 1.257 . S
C683 H658 0.930 . S
C683 C686 1.388 . S
C683 C688 1.418 . S
C684 H679 0.930 . S
C684 C687 1.404 . S
C684 C688 1.353 . S
N685 Co650 2.145 . S
N685 C686 1.397 . S
N685 C687 1.334 . S
C686 H667 0.929 . S
C686 C683 1.388 . S
C686 N685 1.397 . S
C687 H668 0.929 . S
C687 C684 1.404 . S
C687 N685 1.334 . S
C688 H680 0.930 . S
C688 C683 1.418 . S
C688 C684 1.353 . S
C689 H659 0.930 . S
C689 N690 1.330 . S
C689 C691 1.446 . S
N690 Co649 2.151 . S
N690 C689 1.330 . S
N690 C694 1.418 . S
C691 H670 0.929 . S
C691 C689 1.446 . S
C691 C692 1.332 . S
C692 H672 0.931 . S
C692 C691 1.332 . S
C692 C693 1.267 . S
C693 H661 0.929 . S
C693 C692 1.267 . S
C693 C694 1.251 . S
C694 H664 0.929 . S
C694 N690 1.418 . S
C694 C693 1.251 . S
C695 H662 0.930 . S
C695 C697 1.406 . S
C695 C700 1.261 . S
C696 H663 0.930 . S
C696 N698 1.325 . S
C696 C699 1.357 . S
C697 H665 0.928 . S
C697 C695 1.406 . S
C697 N698 1.261 . S
N698 Co649 2.214 . S
N698 C696 1.325 . S
N698 C697 1.261 . S
C699 H669 0.931 . S
C699 C696 1.357 . S
C699 C700 1.312 . S
C700 H671 0.930 . S
C700 C695 1.261 . S
C700 C699 1.312 . S
C701 O673 1.214 . S
C701 O681 1.234 . S
C702 H674 0.929 . S
C702 C705 1.391 . S
C702 C707 1.391 . S
C703 H675 0.929 . S
C703 C704 1.390 . S
C703 N706 1.391 . S
C704 H676 0.930 . S
C704 C703 1.390 . S
C704 C705 1.392 . S
C705 H677 0.929 . S
C705 C702 1.391 . S
C705 C704 1.392 . S
N706 Co650 2.257 . S
N706 C703 1.391 . S
N706 C707 1.388 . S
C707 H678 0.930 . S
C707 C702 1.391 . S
C707 N706 1.388 . S
Co708 O710 2.143 . S
Co708 O716 2.074 . S
Co708 O719 2.093 . S
Co708 O732 2.097 . S
Co708 N749 2.151 . S
Co708 N757 2.214 . S
Co709 O710 2.160 . S
Co709 O715 2.058 . S
Co709 O725 2.057 . S
Co709 O740 2.037 . S
Co709 N744 2.145 . S
Co709 N765 2.257 . S
O710 Co708 2.143 . S
O710 Co709 2.160 . S
C711 O712 1.278 . S
C711 O719 1.224 . S
O712 C711 1.278 . S
C713 O714 1.245 . S
C713 O725 1.232 . S
O714 C713 1.245 . S
O715 Co709 2.058 . S
O715 C741 1.269 . S
O716 Co708 2.074 . S
O716 C741 1.257 . S
H717 C742 0.930 . S
H718 C748 0.930 . S
O719 Co708 2.093 . S
O719 C711 1.224 . S
H720 C752 0.929 . S
H721 C754 0.930 . S
H722 C755 0.930 . S
H723 C753 0.929 . S
H724 C756 0.928 . S
O725 Co709 2.057 . S
O725 C713 1.232 . S
H726 C745 0.929 . S
H727 C746 0.929 . S
H728 C758 0.931 . S
H729 C750 0.929 . S
H730 C759 0.930 . S
H731 C751 0.931 . S
O732 Co708 2.097 . S
O732 C760 1.214 . S
H733 C761 0.929 1_554 S
H734 C762 0.929 . S
H735 C763 0.930 . S
H736 C764 0.929 1_554 S
H737 C766 0.930 . S
H738 C743 0.930 . S
H739 C747 0.930 . S
O740 Co709 2.037 . S
O740 C760 1.234 . S
C741 O715 1.269 . S
C741 O716 1.257 . S
C742 H717 0.930 . S
C742 C745 1.388 . S
C742 C747 1.418 . S
C743 H738 0.930 . S
C743 C746 1.404 . S
C743 C747 1.353 . S
N744 Co709 2.145 . S
N744 C745 1.397 . S
N744 C746 1.334 . S
C745 H726 0.929 . S
C745 C742 1.388 . S
C745 N744 1.397 . S
C746 H727 0.929 . S
C746 C743 1.404 . S
C746 N744 1.334 . S
C747 H739 0.930 . S
C747 C742 1.418 . S
C747 C743 1.353 . S
C748 H718 0.930 . S
C748 N749 1.330 . S
C748 C750 1.446 . S
N749 Co708 2.151 . S
N749 C748 1.330 . S
N749 C753 1.418 . S
C750 H729 0.929 . S
C750 C748 1.446 . S
C750 C751 1.332 . S
C751 H731 0.931 . S
C751 C750 1.332 . S
C751 C752 1.267 . S
C752 H720 0.929 . S
C752 C751 1.267 . S
C752 C753 1.251 . S
C753 H723 0.929 . S
C753 N749 1.418 . S
C753 C752 1.251 . S
C754 H721 0.930 . S
C754 C756 1.406 . S
C754 C759 1.261 . S
C755 H722 0.930 . S
C755 N757 1.325 . S
C755 C758 1.357 . S
C756 H724 0.928 . S
C756 C754 1.406 . S
C756 N757 1.261 . S
N757 Co708 2.214 . S
N757 C755 1.325 . S
N757 C756 1.261 . S
C758 H728 0.931 . S
C758 C755 1.357 . S
C758 C759 1.312 . S
C759 H730 0.930 . S
C759 C754 1.261 . S
C759 C758 1.312 . S
C760 O732 1.214 . S
C760 O740 1.234 . S
C761 H733 0.929 1_556 S
C761 C764 1.391 . S
C761 C766 1.391 . S
C762 H734 0.929 . S
C762 C763 1.390 . S
C762 N765 1.391 . S
C763 H735 0.930 . S
C763 C762 1.390 . S
C763 C764 1.392 . S
C764 H736 0.929 1_556 S
C764 C761 1.391 . S
C764 C763 1.392 . S
N765 Co709 2.257 . S
N765 C762 1.391 . S
N765 C766 1.388 . S
C766 H737 0.930 . S
C766 C761 1.391 . S
C766 N765 1.388 . S
Co767 O769 2.143 1_655 S
Co767 O775 2.074 . S
Co767 O778 2.093 . S
Co767 O791 2.097 . S
Co767 N808 2.151 . S
Co767 N816 2.214 . S
Co768 O769 2.160 . S
Co768 O774 2.058 . S
Co768 O784 2.057 . S
Co768 O799 2.037 . S
Co768 N803 2.145 . S
Co768 N824 2.257 . S
O769 Co767 2.143 1_455 S
O769 Co768 2.160 . S
C770 O771 1.278 . S
C770 O778 1.224 1_455 S
O771 C770 1.278 . S
C772 O773 1.245 . S
C772 O784 1.232 . S
O773 C772 1.245 . S
O774 Co768 2.058 . S
O774 C800 1.269 . S
O775 Co767 2.074 . S
O775 C800 1.257 1_655 S
H776 C801 0.930 . S
H777 C807 0.930 1_455 S
O778 Co767 2.093 . S
O778 C770 1.224 1_655 S
H779 C811 0.929 . S
H780 C813 0.930 . S
H781 C814 0.930 . S
H782 C812 0.929 . S
H783 C815 0.928 . S
O784 Co768 2.057 . S
O784 C772 1.232 . S
H785 C804 0.929 . S
H786 C805 0.929 . S
H787 C817 0.931 . S
H788 C809 0.929 . S
H789 C818 0.930 . S
H790 C810 0.931 . S
O791 Co767 2.097 . S
O791 C819 1.213 1_655 S
H792 C820 0.929 1_554 S
H793 C821 0.929 . S
H794 C822 0.930 . S
H795 C823 0.929 1_554 S
H796 C825 0.930 . S
H797 C802 0.930 . S
H798 C806 0.930 . S
O799 Co768 2.037 . S
O799 C819 1.236 . S
C800 O774 1.269 . S
C800 O775 1.257 1_455 S
C801 H776 0.930 . S
C801 C804 1.388 . S
C801 C806 1.418 . S
C802 H797 0.930 . S
C802 C805 1.404 . S
C802 C806 1.353 . S
N803 Co768 2.145 . S
N803 C804 1.397 . S
N803 C805 1.334 . S
C804 H785 0.929 . S
C804 C801 1.388 . S
C804 N803 1.397 . S
C805 H786 0.929 . S
C805 C802 1.404 . S
C805 N803 1.334 . S
C806 H798 0.930 . S
C806 C801 1.418 . S
C806 C802 1.353 . S
C807 H777 0.930 1_655 S
C807 N808 1.330 . S
C807 C809 1.446 . S
N808 Co767 2.151 . S
N808 C807 1.330 . S
N808 C812 1.418 . S
C809 H788 0.929 . S
C809 C807 1.446 . S
C809 C810 1.332 . S
C810 H790 0.931 . S
C810 C809 1.332 . S
C810 C811 1.267 . S
C811 H779 0.929 . S
C811 C810 1.267 . S
C811 C812 1.251 . S
C812 H782 0.929 . S
C812 N808 1.418 . S
C812 C811 1.251 . S
C813 H780 0.930 . S
C813 C815 1.406 . S
C813 C818 1.261 . S
C814 H781 0.930 . S
C814 N816 1.325 . S
C814 C817 1.357 . S
C815 H783 0.928 . S
C815 C813 1.406 . S
C815 N816 1.261 . S
N816 Co767 2.214 . S
N816 C814 1.325 . S
N816 C815 1.261 . S
C817 H787 0.931 . S
C817 C814 1.357 . S
C817 C818 1.312 . S
C818 H789 0.930 . S
C818 C813 1.261 . S
C818 C817 1.312 . S
C819 O791 1.213 1_455 S
C819 O799 1.236 . S
C820 H792 0.929 1_556 S
C820 C823 1.391 . S
C820 C825 1.391 . S
C821 H793 0.929 . S
C821 C822 1.390 . S
C821 N824 1.391 . S
C822 H794 0.930 . S
C822 C821 1.390 . S
C822 C823 1.392 . S
C823 H795 0.929 1_556 S
C823 C820 1.391 . S
C823 C822 1.392 . S
N824 Co768 2.257 . S
N824 C821 1.391 . S
N824 C825 1.388 . S
C825 H796 0.930 . S
C825 C820 1.391 . S
C825 N824 1.388 . S
Co826 O828 2.143 1_455 S
Co826 O834 2.074 . S
Co826 O837 2.093 . S
Co826 O850 2.097 . S
Co826 N867 2.151 . S
Co826 N875 2.214 . S
Co827 O828 2.160 . S
Co827 O833 2.058 . S
Co827 O843 2.057 . S
Co827 O858 2.037 . S
Co827 N862 2.145 . S
Co827 N883 2.257 . S
O828 Co826 2.143 1_655 S
O828 Co827 2.160 . S
C829 O830 1.278 . S
C829 O837 1.224 1_655 S
O830 C829 1.278 . S
C831 O832 1.245 . S
C831 O843 1.232 . S
O832 C831 1.245 . S
O833 Co827 2.058 . S
O833 C859 1.269 . S
O834 Co826 2.074 . S
O834 C859 1.257 1_455 S
H835 C860 0.930 . S
H836 C866 0.930 1_655 S
O837 Co826 2.093 . S
O837 C829 1.224 1_455 S
H838 C870 0.929 . S
H839 C872 0.930 . S
H840 C873 0.930 . S
H841 C871 0.929 . S
H842 C874 0.928 . S
O843 Co827 2.057 . S
O843 C831 1.232 . S
H844 C863 0.929 . S
H845 C864 0.929 . S
H846 C876 0.931 . S
H847 C868 0.929 . S
H848 C877 0.930 . S
H849 C869 0.931 . S
O850 Co826 2.097 . S
O850 C878 1.213 1_455 S
H851 C879 0.929 . S
H852 C880 0.929 . S
H853 C881 0.930 . S
H854 C882 0.929 . S
H855 C884 0.930 . S
H856 C861 0.930 . S
H857 C865 0.930 . S
O858 Co827 2.037 . S
O858 C878 1.236 . S
C859 O833 1.269 . S
C859 O834 1.257 1_655 S
C860 H835 0.930 . S
C860 C863 1.388 . S
C860 C865 1.418 . S
C861 H856 0.930 . S
C861 C864 1.404 . S
C861 C865 1.353 . S
N862 Co827 2.145 . S
N862 C863 1.397 . S
N862 C864 1.334 . S
C863 H844 0.929 . S
C863 C860 1.388 . S
C863 N862 1.397 . S
C864 H845 0.929 . S
C864 C861 1.404 . S
C864 N862 1.334 . S
C865 H857 0.930 . S
C865 C860 1.418 . S
C865 C861 1.353 . S
C866 H836 0.930 1_455 S
C866 N867 1.330 . S
C866 C868 1.446 . S
N867 Co826 2.151 . S
N867 C866 1.330 . S
N867 C871 1.418 . S
C868 H847 0.929 . S
C868 C866 1.446 . S
C868 C869 1.332 . S
C869 H849 0.931 . S
C869 C868 1.332 . S
C869 C870 1.267 . S
C870 H838 0.929 . S
C870 C869 1.267 . S
C870 C871 1.251 . S
C871 H841 0.929 . S
C871 N867 1.418 . S
C871 C870 1.251 . S
C872 H839 0.930 . S
C872 C874 1.406 . S
C872 C877 1.261 . S
C873 H840 0.930 . S
C873 N875 1.325 . S
C873 C876 1.357 . S
C874 H842 0.928 . S
C874 C872 1.406 . S
C874 N875 1.261 . S
N875 Co826 2.214 . S
N875 C873 1.325 . S
N875 C874 1.261 . S
C876 H846 0.931 . S
C876 C873 1.357 . S
C876 C877 1.312 . S
C877 H848 0.930 . S
C877 C872 1.261 . S
C877 C876 1.312 . S
C878 O850 1.213 1_655 S
C878 O858 1.236 . S
C879 H851 0.929 . S
C879 C882 1.391 . S
C879 C884 1.391 . S
C880 H852 0.929 . S
C880 C881 1.390 . S
C880 N883 1.391 . S
C881 H853 0.930 . S
C881 C880 1.390 . S
C881 C882 1.392 . S
C882 H854 0.929 . S
C882 C879 1.391 . S
C882 C881 1.392 . S
N883 Co827 2.257 . S
N883 C880 1.391 . S
N883 C884 1.388 . S
C884 H855 0.930 . S
C884 C879 1.391 . S
C884 N883 1.388 . S
Co885 O887 2.143 . S
Co885 O893 2.074 . S
Co885 O896 2.093 . S
Co885 O909 2.097 . S
Co885 N926 2.151 . S
Co885 N934 2.214 . S
Co886 O887 2.160 . S
Co886 O892 2.058 . S
Co886 O902 2.057 . S
Co886 O917 2.037 . S
Co886 N921 2.145 . S
Co886 N942 2.257 . S
O887 Co885 2.143 . S
O887 Co886 2.160 . S
C888 O889 1.278 . S
C888 O896 1.224 . S
O889 C888 1.278 . S
C890 O891 1.245 . S
C890 O902 1.232 . S
O891 C890 1.245 . S
O892 Co886 2.058 . S
O892 C918 1.269 . S
O893 Co885 2.074 . S
O893 C918 1.257 . S
H894 C919 0.930 . S
H895 C925 0.930 . S
O896 Co885 2.093 . S
O896 C888 1.224 . S
H897 C929 0.929 . S
H898 C931 0.930 . S
H899 C932 0.930 . S
H900 C930 0.929 . S
H901 C933 0.928 . S
O902 Co886 2.057 . S
O902 C890 1.232 . S
H903 C922 0.929 . S
H904 C923 0.929 . S
H905 C935 0.931 . S
H906 C927 0.929 . S
H907 C936 0.930 . S
H908 C928 0.931 . S
O909 Co885 2.097 . S
O909 C937 1.214 . S
H910 C938 0.929 . S
H911 C939 0.929 . S
H912 C940 0.930 . S
H913 C941 0.929 . S
H914 C943 0.930 . S
H915 C920 0.930 . S
H916 C924 0.930 . S
O917 Co886 2.037 . S
O917 C937 1.234 . S
C918 O892 1.269 . S
C918 O893 1.257 . S
C919 H894 0.930 . S
C919 C922 1.388 . S
C919 C924 1.418 . S
C920 H915 0.930 . S
C920 C923 1.404 . S
C920 C924 1.353 . S
N921 Co886 2.145 . S
N921 C922 1.397 . S
N921 C923 1.334 . S
C922 H903 0.929 . S
C922 C919 1.388 . S
C922 N921 1.397 . S
C923 H904 0.929 . S
C923 C920 1.404 . S
C923 N921 1.334 . S
C924 H916 0.930 . S
C924 C919 1.418 . S
C924 C920 1.353 . S
C925 H895 0.930 . S
C925 N926 1.330 . S
C925 C927 1.446 . S
N926 Co885 2.151 . S
N926 C925 1.330 . S
N926 C930 1.418 . S
C927 H906 0.929 . S
C927 C925 1.446 . S
C927 C928 1.332 . S
C928 H908 0.931 . S
C928 C927 1.332 . S
C928 C929 1.267 . S
C929 H897 0.929 . S
C929 C928 1.267 . S
C929 C930 1.251 . S
C930 H900 0.929 . S
C930 N926 1.418 . S
C930 C929 1.251 . S
C931 H898 0.930 . S
C931 C933 1.406 . S
C931 C936 1.261 . S
C932 H899 0.930 . S
C932 N934 1.325 . S
C932 C935 1.357 . S
C933 H901 0.928 . S
C933 C931 1.406 . S
C933 N934 1.261 . S
N934 Co885 2.214 . S
N934 C932 1.325 . S
N934 C933 1.261 . S
C935 H905 0.931 . S
C935 C932 1.357 . S
C935 C936 1.312 . S
C936 H907 0.930 . S
C936 C931 1.261 . S
C936 C935 1.312 . S
C937 O909 1.214 . S
C937 O917 1.234 . S
C938 H910 0.929 . S
C938 C941 1.391 . S
C938 C943 1.391 . S
C939 H911 0.929 . S
C939 C940 1.390 . S
C939 N942 1.391 . S
C940 H912 0.930 . S
C940 C939 1.390 . S
C940 C941 1.392 . S
C941 H913 0.929 . S
C941 C938 1.391 . S
C941 C940 1.392 . S
N942 Co886 2.257 . S
N942 C939 1.391 . S
N942 C943 1.388 . S
C943 H914 0.930 . S
C943 C938 1.391 . S
C943 N942 1.388 . S
C64 C5 1.724 1_545 S
C123 C182 1.724 1_545 S
C241 C300 1.724 1_545 S
C418 C359 1.724 1_545 S
C536 C477 1.724 . S
C654 C595 1.724 . S
C772 C713 1.724 . S
C890 C831 1.724 . S
C210 C33 1.630 1_655 S
C92 C151 1.630 . S
C446 C269 1.630 1_455 S
C387 C328 1.630 . S
C505 C682 1.630 . S
C623 C564 1.630 1_455 S
C918 C741 1.630 . S
C800 C859 1.630 1_455 S
C52 C583 1.690 1_455 S
C111 C524 1.690 . S
C701 C170 1.690 . S
C642 C229 1.690 1_455 S
C819 C288 1.690 1_455 S
C760 C347 1.690 . S
C406 C937 1.690 . S
C465 C878 1.690 1_455 S
C239 C3 1.578 1_666 S
C298 C62 1.578 1_546 S
C357 C121 1.578 1_545 S
C416 C180 1.578 1_465 S
C475 C711 1.578 1_554 S
C534 C770 1.578 1_654 S
C829 C593 1.578 1_655 S
C888 C652 1.578 . S
