# Generated by pormake.
# Topology whw, (6)-cn, num edge types: 1
# Building blocks:
#     Node 0, Type 0, BuildingBlock: MIFKUJ_clean_sbu_0, # of connection points: 6
#     Node 1, Type 0, BuildingBlock: MIFKUJ_clean_sbu_0, # of connection points: 6
#     Node 2, Type 0, BuildingBlock: MIFKUJ_clean_sbu_0, # of connection points: 6
#     Node 3, Type 0, BuildingBlock: MIFKUJ_clean_sbu_0, # of connection points: 6
#     Node 4, Type 0, BuildingBlock: MIFKUJ_clean_sbu_0, # of connection points: 6
#     Node 5, Type 0, BuildingBlock: MIFKUJ_clean_sbu_0, # of connection points: 6
#     Node 6, Type 0, BuildingBlock: MIFKUJ_clean_sbu_0, # of connection points: 6
#     Node 7, Type 0, BuildingBlock: MIFKUJ_clean_sbu_0, # of connection points: 6
#     Node 8, Type 0, BuildingBlock: MIFKUJ_clean_sbu_0, # of connection points: 6
#     Node 9, Type 0, BuildingBlock: MIFKUJ_clean_sbu_0, # of connection points: 6
#     Node 10, Type 0, BuildingBlock: MIFKUJ_clean_sbu_0, # of connection points: 6
#     Node 11, Type 0, BuildingBlock: MIFKUJ_clean_sbu_0, # of connection points: 6
#     Node 12, Type 0, BuildingBlock: MIFKUJ_clean_sbu_0, # of connection points: 6
#     Node 13, Type 0, BuildingBlock: MIFKUJ_clean_sbu_0, # of connection points: 6
#     Node 14, Type 0, BuildingBlock: MIFKUJ_clean_sbu_0, # of connection points: 6
#     Node 15, Type 0, BuildingBlock: MIFKUJ_clean_sbu_0, # of connection points: 6
#     Edge 16, Type (0, 0), BuildingBlock: MIFKUJ_clean_linker_0, # of connection points: 2
#     Edge 17, Type (0, 0), BuildingBlock: MIFKUJ_clean_linker_0, # of connection points: 2
#     Edge 18, Type (0, 0), BuildingBlock: MIFKUJ_clean_linker_0, # of connection points: 2
#     Edge 19, Type (0, 0), BuildingBlock: MIFKUJ_clean_linker_0, # of connection points: 2
#     Edge 20, Type (0, 0), BuildingBlock: MIFKUJ_clean_linker_0, # of connection points: 2
#     Edge 21, Type (0, 0), BuildingBlock: MIFKUJ_clean_linker_0, # of connection points: 2
#     Edge 22, Type (0, 0), BuildingBlock: MIFKUJ_clean_linker_0, # of connection points: 2
#     Edge 23, Type (0, 0), BuildingBlock: MIFKUJ_clean_linker_0, # of connection points: 2
#     Edge 24, Type (0, 0), BuildingBlock: MIFKUJ_clean_linker_0, # of connection points: 2
#     Edge 25, Type (0, 0), BuildingBlock: MIFKUJ_clean_linker_0, # of connection points: 2
#     Edge 26, Type (0, 0), BuildingBlock: MIFKUJ_clean_linker_0, # of connection points: 2
#     Edge 27, Type (0, 0), BuildingBlock: MIFKUJ_clean_linker_0, # of connection points: 2
#     Edge 28, Type (0, 0), BuildingBlock: MIFKUJ_clean_linker_0, # of connection points: 2
#     Edge 29, Type (0, 0), BuildingBlock: MIFKUJ_clean_linker_0, # of connection points: 2
#     Edge 30, Type (0, 0), BuildingBlock: MIFKUJ_clean_linker_0, # of connection points: 2
#     Edge 31, Type (0, 0), BuildingBlock: MIFKUJ_clean_linker_0, # of connection points: 2
#     Edge 32, Type (0, 0), BuildingBlock: MIFKUJ_clean_linker_0, # of connection points: 2
#     Edge 33, Type (0, 0), BuildingBlock: MIFKUJ_clean_linker_0, # of connection points: 2
#     Edge 34, Type (0, 0), BuildingBlock: MIFKUJ_clean_linker_0, # of connection points: 2
#     Edge 35, Type (0, 0), BuildingBlock: MIFKUJ_clean_linker_0, # of connection points: 2
#     Edge 36, Type (0, 0), BuildingBlock: MIFKUJ_clean_linker_0, # of connection points: 2
#     Edge 37, Type (0, 0), BuildingBlock: MIFKUJ_clean_linker_0, # of connection points: 2
#     Edge 38, Type (0, 0), BuildingBlock: MIFKUJ_clean_linker_0, # of connection points: 2
#     Edge 39, Type (0, 0), BuildingBlock: MIFKUJ_clean_linker_0, # of connection points: 2
#     Edge 40, Type (0, 0), BuildingBlock: MIFKUJ_clean_linker_0, # of connection points: 2
#     Edge 41, Type (0, 0), BuildingBlock: MIFKUJ_clean_linker_0, # of connection points: 2
#     Edge 42, Type (0, 0), BuildingBlock: MIFKUJ_clean_linker_0, # of connection points: 2
#     Edge 43, Type (0, 0), BuildingBlock: MIFKUJ_clean_linker_0, # of connection points: 2
#     Edge 44, Type (0, 0), BuildingBlock: MIFKUJ_clean_linker_0, # of connection points: 2
#     Edge 45, Type (0, 0), BuildingBlock: MIFKUJ_clean_linker_0, # of connection points: 2
#     Edge 46, Type (0, 0), BuildingBlock: MIFKUJ_clean_linker_0, # of connection points: 2
#     Edge 47, Type (0, 0), BuildingBlock: MIFKUJ_clean_linker_0, # of connection points: 2
#     Edge 48, Type (0, 0), BuildingBlock: MIFKUJ_clean_linker_0, # of connection points: 2
#     Edge 49, Type (0, 0), BuildingBlock: MIFKUJ_clean_linker_0, # of connection points: 2
#     Edge 50, Type (0, 0), BuildingBlock: MIFKUJ_clean_linker_0, # of connection points: 2
#     Edge 51, Type (0, 0), BuildingBlock: MIFKUJ_clean_linker_0, # of connection points: 2
#     Edge 52, Type (0, 0), BuildingBlock: MIFKUJ_clean_linker_0, # of connection points: 2
#     Edge 53, Type (0, 0), BuildingBlock: MIFKUJ_clean_linker_0, # of connection points: 2
#     Edge 54, Type (0, 0), BuildingBlock: MIFKUJ_clean_linker_0, # of connection points: 2
#     Edge 55, Type (0, 0), BuildingBlock: MIFKUJ_clean_linker_0, # of connection points: 2
#     Edge 56, Type (0, 0), BuildingBlock: MIFKUJ_clean_linker_0, # of connection points: 2
#     Edge 57, Type (0, 0), BuildingBlock: MIFKUJ_clean_linker_0, # of connection points: 2
#     Edge 58, Type (0, 0), BuildingBlock: MIFKUJ_clean_linker_0, # of connection points: 2
#     Edge 59, Type (0, 0), BuildingBlock: MIFKUJ_clean_linker_0, # of connection points: 2
#     Edge 60, Type (0, 0), BuildingBlock: MIFKUJ_clean_linker_0, # of connection points: 2
#     Edge 61, Type (0, 0), BuildingBlock: MIFKUJ_clean_linker_0, # of connection points: 2
#     Edge 62, Type (0, 0), BuildingBlock: MIFKUJ_clean_linker_0, # of connection points: 2
#     Edge 63, Type (0, 0), BuildingBlock: MIFKUJ_clean_linker_0, # of connection points: 2
# Relax obj value: 0.366
# Max RMSD: 0.217
# Mean RMSD: 0.217
data_MOF--net-whw--node1-MIFKUJ_clean_sbu_0--edge1-MIFKUJ_clean_linker_0
_symmetry_space_group_name_H-M    P1
_symmetry_Int_Tables_number       1
_symmetry_cell_setting            triclinic
loop_
_symmetry_equiv_pos_as_xyz
'x, y, z'
_cell_length_a     57.810413
_cell_length_b     57.823364
_cell_length_c     37.163279
_cell_angle_alpha  89.926896
_cell_angle_beta   89.971264
_cell_angle_gamma 90.011805
loop_
_atom_site_label
_atom_site_type_symbol
_atom_site_fract_x
_atom_site_fract_y
_atom_site_fract_z
_atom_type_partial_charge
Zn0 Zn 0.9873 0.10758 0.19716 0.0
Zn1 Zn 0.98338 0.11989 0.08334 0.0
C2 C 0.0315 0.09314 0.22926 0.0
O3 O 0.02725 0.07266 0.2155 0.0
C4 C 0.96063 0.13669 0.02474 0.0
O5 O 0.98104 0.14668 0.02412 0.0
O6 O 0.96271 0.11346 0.23452 0.0
O7 O 0.98804 0.13347 0.1602 0.0
O8 O 0.98755 0.15092 0.10786 0.0
C9 C 0.96577 0.10427 0.26527 0.0
O10 O 0.98256 0.08917 0.26927 0.0
O11 O 0.01742 0.10961 0.22367 0.0
C12 C 0.01084 0.10258 0.02342 0.0
O13 O 0.99098 0.09336 0.01407 0.0
O14 O 0.01214 0.11364 0.05297 0.0
O15 O 0.9804 0.0982 0.12527 0.0
O16 O 0.98462 0.07613 0.17173 0.0
O17 O 0.95576 0.12291 0.05035 0.0
C18 C 0.98934 0.15203 0.14203 0.0
C19 C 0.98325 0.07805 0.13771 0.0
Zn20 Zn 0.17046 0.70299 0.43982 0.0
Zn21 Zn 0.14855 0.70091 0.32974 0.0
C22 C 0.18224 0.74757 0.47441 0.0
O23 O 0.20262 0.74611 0.45893 0.0
C24 C 0.1285 0.6595 0.29864 0.0
O25 O 0.11042 0.66537 0.31799 0.0
O26 O 0.16748 0.67603 0.47402 0.0
O27 O 0.14392 0.70366 0.4052 0.0
O28 O 0.1197 0.70527 0.36089 0.0
C29 C 0.15275 0.66012 0.46841 0.0
O30 O 0.14185 0.65956 0.43743 0.0
O31 O 0.16741 0.73168 0.4695 0.0
C32 C 0.15905 0.72232 0.26217 0.0
O33 O 0.1687 0.70206 0.25675 0.0
O34 O 0.14965 0.72646 0.29247 0.0
O35 O 0.17631 0.70235 0.36345 0.0
O36 O 0.20002 0.70391 0.40911 0.0
O37 O 0.14711 0.67099 0.3019 0.0
C38 C 0.12335 0.70648 0.39461 0.0
C39 C 0.19674 0.70501 0.37519 0.0
Zn40 Zn 0.59025 0.90209 0.69138 0.0
Zn41 Zn 0.59715 0.88591 0.57934 0.0
C42 C 0.56368 0.90339 0.7571 0.0
O43 O 0.58284 0.91245 0.7698 0.0
C44 C 0.63707 0.8618 0.54856 0.0
O45 O 0.63381 0.84712 0.57508 0.0
O46 O 0.6184 0.89848 0.72319 0.0
O47 O 0.58872 0.87618 0.65536 0.0
O48 O 0.58946 0.85591 0.60596 0.0
C49 C 0.63213 0.88142 0.72006 0.0
O50 O 0.63046 0.86804 0.69166 0.0
O51 O 0.56236 0.89868 0.72374 0.0
C52 C 0.57506 0.90151 0.51498 0.0
O53 O 0.59666 0.90637 0.5071 0.0
O54 O 0.57033 0.89343 0.546 0.0
O55 O 0.60196 0.90938 0.61931 0.0
O56 O 0.58865 0.93184 0.66133 0.0
O57 O 0.62512 0.88025 0.54756 0.0
C58 C 0.58677 0.85678 0.63998 0.0
C59 C 0.5924 0.92835 0.62796 0.0
Zn60 Zn 0.39131 0.29359 0.93667 0.0
Zn61 Zn 0.41227 0.29034 0.8258 0.0
C62 C 0.38178 0.27251 0.00526 0.0
O63 O 0.37547 0.29368 0.01344 0.0
C64 C 0.44056 0.32793 0.79783 0.0
O65 O 0.45562 0.32023 0.82143 0.0
O66 O 0.39788 0.32294 0.96406 0.0
O67 O 0.41839 0.28546 0.90418 0.0
O68 O 0.43984 0.28006 0.85641 0.0
C69 C 0.41857 0.3301 0.96711 0.0
O70 O 0.43496 0.31986 0.94859 0.0
O71 O 0.38829 0.26806 0.97332 0.0
C72 C 0.39797 0.27 0.75853 0.0
O73 O 0.395 0.2919 0.75041 0.0
O74 O 0.40442 0.26467 0.79025 0.0
O75 O 0.38745 0.29601 0.86271 0.0
O76 O 0.36208 0.29596 0.9055 0.0
O77 O 0.42051 0.31891 0.79689 0.0
C78 C 0.43757 0.27941 0.89057 0.0
C79 C 0.3664 0.29554 0.87192 0.0
Zn80 Zn 0.09044 0.88918 0.92499 0.0
Zn81 Zn 0.07838 0.90576 0.81435 0.0
C82 C 0.12899 0.86344 0.95474 0.0
O83 O 0.1249 0.84929 0.92786 0.0
C84 C 0.04477 0.924 0.76589 0.0
O85 O 0.06131 0.93919 0.76037 0.0
O86 O 0.06429 0.89639 0.95922 0.0
O87 O 0.09468 0.91125 0.88369 0.0
O88 O 0.08369 0.93541 0.84269 0.0
C89 C 0.06859 0.90325 0.99104 0.0
O90 O 0.08988 0.90871 0.99992 0.0
O91 O 0.11844 0.88271 0.95582 0.0
C92 C 0.09428 0.88252 0.75537 0.0
O93 O 0.07471 0.87247 0.76413 0.0
O94 O 0.10157 0.89904 0.77491 0.0
O95 O 0.07667 0.87819 0.84859 0.0
O96 O 0.08047 0.85989 0.90017 0.0
O97 O 0.04764 0.90852 0.78975 0.0
C98 C 0.08767 0.93137 0.8757 0.0
C99 C 0.07475 0.85974 0.86706 0.0
Zn100 Zn 0.42035 0.80202 0.18326 0.0
Zn101 Zn 0.39339 0.79894 0.07557 0.0
C102 C 0.44349 0.84389 0.2083 0.0
O103 O 0.45711 0.84043 0.18052 0.0
C104 C 0.37636 0.75968 0.03093 0.0
O105 O 0.35547 0.76848 0.03353 0.0
O106 O 0.41944 0.77623 0.22022 0.0
O107 O 0.39099 0.80213 0.15254 0.0
O108 O 0.36536 0.80117 0.10931 0.0
C109 C 0.41084 0.78094 0.2509 0.0
O110 O 0.40186 0.80151 0.25631 0.0
O111 O 0.42569 0.83123 0.21216 0.0
C112 C 0.39363 0.82416 0.00853 0.0
O113 O 0.37986 0.80743 0.99804 0.0
O114 O 0.39921 0.82546 0.04155 0.0
O115 O 0.4211 0.79764 0.10752 0.0
O116 O 0.44756 0.79678 0.14879 0.0
O117 O 0.39311 0.76942 0.04702 0.0
C118 C 0.36998 0.80043 0.14289 0.0
C119 C 0.44218 0.79536 0.11566 0.0
Zn120 Zn 0.49112 0.12514 0.40482 0.0
Zn121 Zn 0.48414 0.09882 0.29759 0.0
C122 C 0.45388 0.14935 0.44176 0.0
O123 O 0.45728 0.16488 0.41648 0.0
C124 C 0.53033 0.0995 0.26511 0.0
O125 O 0.53808 0.09902 0.29834 0.0
O126 O 0.51975 0.12403 0.43587 0.0
O127 O 0.48779 0.09563 0.37497 0.0
O128 O 0.48524 0.07073 0.33084 0.0
C129 C 0.53255 0.10662 0.44228 0.0
O130 O 0.52862 0.08703 0.42564 0.0
O131 O 0.46498 0.13037 0.44036 0.0
C132 C 0.43861 0.11713 0.28382 0.0
O133 O 0.44099 0.12591 0.31619 0.0
O134 O 0.45387 0.1032 0.27214 0.0
O135 O 0.48938 0.12617 0.32889 0.0
O136 O 0.49445 0.15243 0.36967 0.0
O137 O 0.50869 0.09855 0.25944 0.0
C138 C 0.48719 0.07474 0.36447 0.0
C139 C 0.49346 0.14701 0.33656 0.0
Zn140 Zn 0.17504 0.19 0.68067 0.0
Zn141 Zn 0.18501 0.18914 0.56653 0.0
C142 C 0.14764 0.15439 0.71745 0.0
O143 O 0.13395 0.15613 0.68938 0.0
C144 C 0.18717 0.23672 0.5391 0.0
O145 O 0.19328 0.24244 0.57195 0.0
O146 O 0.18774 0.21761 0.70785 0.0
O147 O 0.19478 0.17944 0.63817 0.0
O148 O 0.21626 0.18631 0.59133 0.0
C149 C 0.19466 0.21517 0.74014 0.0
O150 O 0.19639 0.19423 0.7536 0.0
O151 O 0.16663 0.16551 0.71764 0.0
C152 C 0.15529 0.15339 0.53992 0.0
O153 O 0.14073 0.16285 0.56269 0.0
O154 O 0.17601 0.16069 0.53889 0.0
O155 O 0.16216 0.19674 0.6057 0.0
O156 O 0.14529 0.20184 0.65745 0.0
O157 O 0.18413 0.21554 0.53129 0.0
C158 C 0.21451 0.18467 0.62541 0.0
C159 C 0.14475 0.20367 0.62329 0.0
Zn160 Zn 0.91992 0.29474 0.68046 0.0
Zn161 Zn 0.90716 0.3029 0.57184 0.0
C162 C 0.93853 0.31695 0.74045 0.0
O163 O 0.94482 0.29534 0.74513 0.0
C164 C 0.89635 0.26174 0.53431 0.0
O165 O 0.87896 0.27505 0.52483 0.0
O166 O 0.9128 0.26717 0.7122 0.0
O167 O 0.89466 0.29962 0.64335 0.0
O168 O 0.87461 0.30508 0.59447 0.0
C169 C 0.89888 0.26961 0.73846 0.0
O170 O 0.88861 0.28967 0.74311 0.0
O171 O 0.92696 0.32236 0.71255 0.0
C172 C 0.92794 0.31346 0.50536 0.0
O173 O 0.93744 0.29347 0.51314 0.0
O174 O 0.91357 0.32241 0.52738 0.0
O175 O 0.93034 0.31028 0.6107 0.0
O176 O 0.94814 0.28852 0.65004 0.0
O177 O 0.91091 0.26944 0.55694 0.0
C178 C 0.87508 0.30063 0.62808 0.0
C179 C 0.94699 0.29692 0.61843 0.0
Zn180 Zn 0.66758 0.70423 0.18021 0.0
Zn181 Zn 0.68322 0.705 0.06743 0.0
C182 C 0.64362 0.66339 0.20909 0.0
O183 O 0.63114 0.66459 0.1796 0.0
C184 C 0.69082 0.75026 0.03079 0.0
O185 O 0.70437 0.756 0.05772 0.0
O186 O 0.6765 0.73139 0.21214 0.0
O187 O 0.69022 0.69749 0.13981 0.0
O188 O 0.71353 0.70583 0.09595 0.0
C189 C 0.68341 0.72745 0.24411 0.0
O190 O 0.68641 0.70596 0.25455 0.0
O191 O 0.66063 0.6771 0.21298 0.0
C192 C 0.66019 0.66332 0.04433 0.0
O193 O 0.64656 0.6679 0.07167 0.0
O194 O 0.67819 0.6756 0.03955 0.0
O195 O 0.65743 0.70996 0.10334 0.0
O196 O 0.63789 0.71282 0.15341 0.0
O197 O 0.68125 0.73048 0.03054 0.0
C198 C 0.71014 0.70401 0.12972 0.0
C199 C 0.63842 0.71389 0.11912 0.0
Zn200 Zn 0.67239 0.19625 0.91635 0.0
Zn201 Zn 0.64686 0.20428 0.81123 0.0
C202 C 0.67937 0.23755 0.96029 0.0
O203 O 0.70119 0.23584 0.95076 0.0
C204 C 0.62244 0.17308 0.76978 0.0
O205 O 0.60654 0.18805 0.77953 0.0
O206 O 0.67379 0.16893 0.95008 0.0
O207 O 0.64632 0.19309 0.88164 0.0
O208 O 0.62074 0.20855 0.84672 0.0
C209 C 0.65839 0.15332 0.94765 0.0
O210 O 0.64639 0.15166 0.91777 0.0
O211 O 0.66478 0.22321 0.94796 0.0
C212 C 0.65857 0.22756 0.74747 0.0
O213 O 0.6723 0.2095 0.74526 0.0
O214 O 0.64581 0.2299 0.77504 0.0
O215 O 0.67674 0.20544 0.84032 0.0
O216 O 0.70121 0.20332 0.88518 0.0
O217 O 0.64267 0.17509 0.78274 0.0
C218 C 0.62729 0.20372 0.87841 0.0
C219 C 0.69718 0.20798 0.85212 0.0
Zn220 Zn 0.8995 0.80596 0.4378 0.0
Zn221 Zn 0.91983 0.78619 0.33365 0.0
C222 C 0.89068 0.76001 0.47026 0.0
O223 O 0.87748 0.75526 0.44247 0.0
C224 C 0.95062 0.80643 0.28529 0.0
O225 O 0.95967 0.78585 0.29052 0.0
O226 O 0.90498 0.83485 0.46666 0.0
O227 O 0.92436 0.80032 0.40226 0.0
O228 O 0.94386 0.77599 0.37035 0.0
C229 C 0.92208 0.84816 0.46091 0.0
O230 O 0.93467 0.84514 0.43185 0.0
O231 O 0.90029 0.7797 0.4727 0.0
C232 C 0.90321 0.76325 0.27062 0.0
O233 O 0.89438 0.78383 0.26467 0.0
O234 O 0.91375 0.75957 0.30009 0.0
O235 O 0.89079 0.79553 0.36151 0.0
O236 O 0.86977 0.80596 0.40815 0.0
O237 O 0.93255 0.81195 0.3028 0.0
C238 C 0.93951 0.78456 0.40102 0.0
C239 C 0.87121 0.80071 0.37484 0.0
Zn240 Zn 0.49741 0.59902 0.69957 0.0
Zn241 Zn 0.50336 0.61903 0.58884 0.0
C242 C 0.54406 0.59336 0.72971 0.0
O243 O 0.55139 0.60253 0.69942 0.0
C244 C 0.46847 0.65065 0.56004 0.0
O245 O 0.47521 0.66453 0.58595 0.0
O246 O 0.47109 0.61072 0.73101 0.0
O247 O 0.50942 0.62648 0.66952 0.0
O248 O 0.51662 0.64484 0.61851 0.0
C249 C 0.47892 0.62268 0.7571 0.0
O250 O 0.50137 0.62562 0.75977 0.0
O251 O 0.52262 0.58931 0.73376 0.0
C252 C 0.52226 0.59833 0.5248 0.0
O253 O 0.50066 0.59176 0.52069 0.0
O254 O 0.52801 0.60868 0.55364 0.0
O255 O 0.49309 0.59694 0.62689 0.0
O256 O 0.49074 0.57068 0.66796 0.0
O257 O 0.47698 0.63044 0.55817 0.0
C258 C 0.51722 0.64412 0.65283 0.0
C259 C 0.49352 0.57575 0.63506 0.0
Zn260 Zn 0.10116 0.39475 0.18135 0.0
Zn261 Zn 0.0995 0.38752 0.07031 0.0
C262 C 0.0609 0.40491 0.22108 0.0
O263 O 0.07385 0.42288 0.22899 0.0
C264 C 0.11527 0.35718 0.01834 0.0
O265 O 0.09403 0.35022 0.02484 0.0
O266 O 0.12115 0.3891 0.22573 0.0
O267 O 0.10805 0.37062 0.14345 0.0
O268 O 0.08567 0.36082 0.0984 0.0
C269 C 0.11436 0.37048 0.24079 0.0
O270 O 0.09721 0.35907 0.22606 0.0
O271 O 0.06839 0.39033 0.19837 0.0
C272 C 0.07794 0.40913 0.009 0.0
O273 O 0.09956 0.41181 0.99892 0.0
O274 O 0.07375 0.40116 0.04026 0.0
O275 O 0.11271 0.40783 0.1095 0.0
O276 O 0.10159 0.42659 0.15716 0.0
O277 O 0.12321 0.37423 0.03607 0.0
C278 C 0.09196 0.35809 0.13092 0.0
C279 C 0.10361 0.42575 0.12306 0.0
Zn280 Zn 0.55517 0.37607 0.40239 0.0
Zn281 Zn 0.57157 0.39745 0.30234 0.0
C282 C 0.57608 0.33948 0.43971 0.0
O283 O 0.55542 0.33094 0.43338 0.0
C284 C 0.53569 0.41801 0.25991 0.0
O285 O 0.55262 0.43203 0.25086 0.0
O286 O 0.5323 0.38597 0.44032 0.0
O287 O 0.56739 0.40123 0.37207 0.0
O288 O 0.57937 0.42619 0.33325 0.0
C289 C 0.54116 0.39514 0.46819 0.0
O290 O 0.56343 0.39973 0.46817 0.0
O291 O 0.58096 0.35948 0.42774 0.0
C292 C 0.58266 0.37744 0.23751 0.0
O293 O 0.56122 0.37109 0.24366 0.0
O294 O 0.59241 0.39108 0.2597 0.0
O295 O 0.57053 0.36737 0.33185 0.0
O296 O 0.54202 0.35464 0.36548 0.0
O297 O 0.53944 0.40252 0.28343 0.0
C298 C 0.57285 0.42179 0.36514 0.0
C299 C 0.55225 0.35521 0.33508 0.0
Zn300 Zn 0.01243 0.61211 0.91834 0.0
Zn301 Zn 0.98769 0.59977 0.81779 0.0
C302 C 0.99877 0.64141 0.9736 0.0
O303 O 0.02067 0.64671 0.96886 0.0
C304 C 0.01764 0.5843 0.76272 0.0
O305 O 0.99879 0.57257 0.75514 0.0
O306 O 0.03928 0.59986 0.94771 0.0
O307 O 0.9976 0.58948 0.88564 0.0
O308 O 0.98245 0.56853 0.84381 0.0
C309 C 0.03422 0.58772 0.97522 0.0
O310 O 0.01262 0.58124 0.97977 0.0
O311 O 0.9898 0.62599 0.9536 0.0
C312 C 0.97123 0.62581 0.76185 0.0
O313 O 0.99199 0.63388 0.76866 0.0
O314 O 0.96375 0.6089 0.78052 0.0
O315 O 0.99053 0.6268 0.85344 0.0
O316 O 0.02134 0.63736 0.88375 0.0
O317 O 0.01786 0.5969 0.79071 0.0
C318 C 0.99123 0.56981 0.87505 0.0
C319 C 0.00853 0.63942 0.85598 0.0
H320 H 0.01382 0.07953 0.95961 0.0
H321 H 0.04298 0.08415 0.91278 0.0
H322 H 0.08106 0.13104 0.98087 0.0
H323 H 0.05152 0.12695 0.02764 0.0
H324 H 0.076 0.14949 0.91781 0.0
H325 H 0.10207 0.07715 0.95873 0.0
H326 H 0.10094 0.03641 0.97802 0.0
H327 H 0.07761 0.01613 0.87304 0.0
H328 H 0.07817 0.05687 0.85321 0.0
H329 H 0.16448 0.15972 0.78578 0.0
H330 H 0.14656 0.14682 0.84196 0.0
H331 H 0.0934 0.11168 0.78185 0.0
H332 H 0.111 0.12481 0.7254 0.0
H333 H 0.11098 0.08664 0.8451 0.0
H334 H 0.08134 0.16224 0.80958 0.0
H335 H 0.08449 0.20355 0.79361 0.0
H336 H 0.11842 0.21734 0.89406 0.0
H337 H 0.11578 0.17603 0.9104 0.0
C338 C 0.02854 0.09062 0.96486 0.0
C339 C 0.03022 0.10302 0.99728 0.0
C340 C 0.04534 0.09311 0.93809 0.0
C341 C 0.06435 0.10787 0.94324 0.0
C342 C 0.06655 0.11958 0.9762 0.0
C343 C 0.04968 0.11715 0.00298 0.0
C344 C 0.08061 0.11262 0.91302 0.0
C345 C 0.08404 0.1357 0.90248 0.0
C346 C 0.09095 0.09469 0.89261 0.0
C347 C 0.09006 0.07015 0.90451 0.0
C348 C 0.09645 0.06407 0.93982 0.0
C349 C 0.09596 0.04096 0.95084 0.0
C350 C 0.08928 0.02371 0.92672 0.0
C351 C 0.08284 0.02954 0.89164 0.0
C352 C 0.08326 0.05265 0.88048 0.0
C353 C 0.14924 0.14886 0.7844 0.0
C354 C 0.13908 0.1434 0.75104 0.0
C355 C 0.13899 0.14157 0.81659 0.0
C356 C 0.11857 0.12845 0.81605 0.0
C357 C 0.10917 0.12178 0.78283 0.0
C358 C 0.11922 0.12935 0.7506 0.0
C359 C 0.10592 0.12336 0.84993 0.0
C360 C 0.10315 0.1003 0.86095 0.0
C361 C 0.09653 0.14129 0.87129 0.0
C362 C 0.0986 0.16601 0.86103 0.0
C363 C 0.08973 0.17403 0.82806 0.0
C364 C 0.09137 0.19745 0.81899 0.0
C365 C 0.10165 0.21304 0.84282 0.0
C366 C 0.11047 0.20523 0.87565 0.0
C367 C 0.10891 0.18183 0.88482 0.0
H368 H 0.10264 0.23119 0.83599 0.0
H369 H 0.08925 0.00581 0.93513 0.0
H370 H 0.14434 0.76739 0.26546 0.0
H371 H 0.1436 0.79572 0.21637 0.0
H372 H 0.1727 0.74508 0.14428 0.0
H373 H 0.17318 0.71667 0.19289 0.0
H374 H 0.19334 0.7877 0.13632 0.0
H375 H 0.11684 0.7556 0.1364 0.0
H376 H 0.08021 0.74318 0.16458 0.0
H377 H 0.06696 0.81288 0.19824 0.0
H378 H 0.10374 0.82568 0.17061 0.0
H379 H 0.15425 0.82375 0.96251 0.0
H380 H 0.16487 0.80489 0.01908 0.0
H381 H 0.13876 0.86333 0.07847 0.0
H382 H 0.1284 0.88249 0.02215 0.0
H383 H 0.11829 0.82093 0.0973 0.0
H384 H 0.19394 0.85284 0.08294 0.0
H385 H 0.23037 0.86197 0.05151 0.0
H386 H 0.24497 0.78953 0.04035 0.0
H387 H 0.20843 0.77994 0.07123 0.0
C388 C 0.15066 0.76233 0.23918 0.0
C389 C 0.15903 0.73984 0.23312 0.0
C390 C 0.15023 0.77852 0.21119 0.0
C391 C 0.15814 0.7725 0.17672 0.0
C392 C 0.16677 0.75017 0.17077 0.0
C393 C 0.16707 0.73397 0.19863 0.0
C394 C 0.15669 0.78912 0.1464 0.0
C395 C 0.17695 0.79493 0.12762 0.0
C396 C 0.13534 0.79879 0.13553 0.0
C397 C 0.11316 0.79147 0.15198 0.0
C398 C 0.10621 0.7682 0.15018 0.0
C399 C 0.08541 0.76114 0.16593 0.0
C400 C 0.07131 0.77727 0.18329 0.0
C401 C 0.07795 0.80048 0.1848 0.0
C402 C 0.09876 0.80764 0.16909 0.0
C403 C 0.15136 0.83289 0.98754 0.0
C404 C 0.14026 0.85453 0.98777 0.0
C405 C 0.15746 0.82209 0.01986 0.0
C406 C 0.15246 0.83268 0.05293 0.0
C407 C 0.1427 0.85487 0.0532 0.0
C408 C 0.13688 0.86582 0.02091 0.0
C409 C 0.15496 0.81946 0.0869 0.0
C410 C 0.1348 0.81416 0.10635 0.0
C411 C 0.17637 0.80999 0.09793 0.0
C412 C 0.19831 0.81567 0.07914 0.0
C413 C 0.20479 0.83884 0.07348 0.0
C414 C 0.2255 0.8441 0.05582 0.0
C415 C 0.23995 0.82634 0.04387 0.0
C416 C 0.23375 0.80327 0.0496 0.0
C417 C 0.21305 0.79792 0.06721 0.0
H418 H 0.25599 0.83045 0.03023 0.0
H419 H 0.0552 0.77179 0.19548 0.0
H420 H 0.4263 0.84525 0.27698 0.0
H421 H 0.44495 0.86187 0.32977 0.0
H422 H 0.498 0.8914 0.26212 0.0
H423 H 0.47977 0.87422 0.20922 0.0
H424 H 0.51702 0.86738 0.31273 0.0
H425 H 0.45824 0.92491 0.31035 0.0
H426 H 0.41889 0.94123 0.30845 0.0
H427 H 0.40246 0.90752 0.40824 0.0
H428 H 0.44165 0.89075 0.41056 0.0
H429 H 0.57992 0.92026 0.44834 0.0
H430 H 0.55377 0.91653 0.39758 0.0
H431 H 0.50377 0.88222 0.4653 0.0
H432 H 0.53014 0.8858 0.51671 0.0
H433 H 0.48254 0.90993 0.41545 0.0
H434 H 0.54161 0.85098 0.41446 0.0
H435 H 0.58239 0.83869 0.41863 0.0
H436 H 0.59862 0.87784 0.32369 0.0
H437 H 0.558 0.89071 0.3193 0.0
C438 C 0.44161 0.85576 0.27315 0.0
C439 C 0.45169 0.85819 0.23885 0.0
C440 C 0.45224 0.86535 0.30347 0.0
C441 C 0.47295 0.87788 0.30005 0.0
C442 C 0.48212 0.88167 0.26551 0.0
C443 C 0.47163 0.87191 0.23523 0.0
C444 C 0.48645 0.88458 0.3325 0.0
C445 C 0.50951 0.8771 0.33479 0.0
C446 C 0.47655 0.89658 0.36198 0.0
C447 C 0.45284 0.90636 0.36042 0.0
C448 C 0.44618 0.92077 0.33172 0.0
C449 C 0.42391 0.93016 0.33061 0.0
C450 C 0.40816 0.92537 0.35815 0.0
C451 C 0.41467 0.9112 0.3869 0.0
C452 C 0.43692 0.90177 0.38814 0.0
C453 C 0.56324 0.9122 0.45271 0.0
C454 C 0.55731 0.90289 0.48641 0.0
C455 C 0.54824 0.91014 0.4236 0.0
C456 C 0.52696 0.89873 0.42743 0.0
C457 C 0.52016 0.89099 0.46168 0.0
C458 C 0.53526 0.89301 0.491 0.0
C459 C 0.51299 0.89305 0.39509 0.0
C460 C 0.48989 0.90035 0.39311 0.0
C461 C 0.52282 0.88102 0.36565 0.0
C462 C 0.54683 0.87197 0.36675 0.0
C463 C 0.55387 0.85694 0.39445 0.0
C464 C 0.57696 0.84993 0.39691 0.0
C465 C 0.59308 0.85765 0.37161 0.0
C466 C 0.5861 0.872 0.34337 0.0
C467 C 0.56305 0.87913 0.34085 0.0
H468 H 0.611 0.85259 0.37396 0.0
H469 H 0.39093 0.93266 0.35726 0.0
H470 H 0.40965 0.22392 0.76198 0.0
H471 H 0.41249 0.19674 0.71165 0.0
H472 H 0.38711 0.24934 0.63932 0.0
H473 H 0.38357 0.27623 0.68941 0.0
H474 H 0.37084 0.20865 0.6195 0.0
H475 H 0.44575 0.2395 0.65195 0.0
H476 H 0.47843 0.24734 0.69281 0.0
H477 H 0.48797 0.17443 0.70923 0.0
H478 H 0.45512 0.16619 0.6688 0.0
H479 H 0.42693 0.18754 0.45272 0.0
H480 H 0.41092 0.20122 0.50966 0.0
H481 H 0.43571 0.13969 0.56278 0.0
H482 H 0.45186 0.12587 0.50586 0.0
H483 H 0.44986 0.17866 0.59655 0.0
H484 H 0.37818 0.14873 0.55382 0.0
H485 H 0.3464 0.14258 0.51068 0.0
H486 H 0.33153 0.21532 0.51096 0.0
H487 H 0.36345 0.22199 0.55369 0.0
C488 C 0.40424 0.22954 0.73548 0.0
C489 C 0.3967 0.25236 0.72965 0.0
C490 C 0.40599 0.21402 0.70668 0.0
C491 C 0.40048 0.22113 0.6715 0.0
C492 C 0.39158 0.24344 0.66612 0.0
C493 C 0.38969 0.25887 0.69484 0.0
C494 C 0.40564 0.20626 0.63982 0.0
C495 C 0.38813 0.20212 0.61442 0.0
C496 C 0.42809 0.19731 0.63345 0.0
C497 C 0.44781 0.20224 0.65775 0.0
C498 C 0.4547 0.22515 0.66451 0.0
C499 C 0.47327 0.22967 0.68755 0.0
C500 C 0.48521 0.2114 0.70371 0.0
C501 C 0.47866 0.18857 0.69677 0.0
C502 C 0.46007 0.18396 0.6738 0.0
C503 C 0.42858 0.17666 0.47632 0.0
C504 C 0.4408 0.15566 0.47471 0.0
C505 C 0.41932 0.18448 0.50889 0.0
C506 C 0.42205 0.17146 0.54054 0.0
C507 C 0.43338 0.15001 0.53871 0.0
C508 C 0.44252 0.1421 0.50608 0.0
C509 C 0.41517 0.18138 0.57587 0.0
C510 C 0.43243 0.1847 0.60191 0.0
C511 C 0.39258 0.18979 0.58255 0.0
C512 C 0.37335 0.18587 0.5568 0.0
C513 C 0.36827 0.16345 0.54447 0.0
C514 C 0.3502 0.15986 0.52012 0.0
C515 C 0.33698 0.17855 0.50804 0.0
C516 C 0.34179 0.20086 0.52033 0.0
C517 C 0.35985 0.20455 0.54466 0.0
H518 H 0.323 0.17573 0.48919 0.0
H519 H 0.49959 0.21493 0.72152 0.0
H520 H 0.99084 0.80056 0.24837 0.0
H521 H 0.00652 0.82464 0.20045 0.0
H522 H 0.94895 0.87159 0.21124 0.0
H523 H 0.9328 0.84718 0.25916 0.0
H524 H 0.95776 0.8631 0.14165 0.0
H525 H 0.00119 0.8865 0.24268 0.0
H526 H 0.02497 0.88263 0.29737 0.0
H527 H 0.07916 0.8509 0.23573 0.0
H528 H 0.05554 0.85417 0.18076 0.0
H529 H 0.06496 0.92871 0.05231 0.0
H530 H 0.0393 0.92137 0.1035 0.0
H531 H 0.00846 0.86431 0.04593 0.0
H532 H 0.03298 0.87259 0.99418 0.0
H533 H 0.04002 0.88743 0.14428 0.0
H534 H 0.95714 0.84865 0.07678 0.0
H535 H 0.93345 0.85598 0.02282 0.0
H536 H 0.95661 0.92653 0.0204 0.0
H537 H 0.98012 0.91978 0.07468 0.0
C538 C 0.98153 0.81608 0.24081 0.0
C539 C 0.9606 0.822 0.25771 0.0
C540 C 0.99058 0.82988 0.21342 0.0
C541 C 0.97907 0.85008 0.20253 0.0
C542 C 0.95815 0.8561 0.2193 0.0
C543 C 0.94903 0.84223 0.24681 0.0
C544 C 0.98896 0.86451 0.17324 0.0
C545 C 0.97568 0.86865 0.14225 0.0
C546 C 0.01212 0.8724 0.17452 0.0
C547 C 0.02644 0.87037 0.20759 0.0
C548 C 0.01807 0.87848 0.24081 0.0
C549 C 0.03155 0.87643 0.27188 0.0
C550 C 0.05353 0.86646 0.27005 0.0
C551 C 0.06211 0.85858 0.23713 0.0
C552 C 0.04868 0.86054 0.206 0.0
C553 C 0.05226 0.91498 0.05041 0.0
C554 C 0.05096 0.90116 0.01947 0.0
C555 C 0.03765 0.91075 0.07964 0.0
C556 C 0.02181 0.8923 0.07874 0.0
C557 C 0.02002 0.87901 0.04719 0.0
C558 C 0.03419 0.88365 0.01762 0.0
C559 C 0.00917 0.88523 0.11189 0.0
C560 C 0.02195 0.88239 0.14372 0.0
C561 C 0.98541 0.87919 0.11164 0.0
C562 C 0.97051 0.88365 0.07979 0.0
C563 C 0.95701 0.8658 0.06499 0.0
C564 C 0.94365 0.86984 0.03425 0.0
C565 C 0.94357 0.89169 0.01814 0.0
C566 C 0.95673 0.9096 0.03285 0.0
C567 C 0.97008 0.90567 0.0636 0.0
H568 H 0.93329 0.89476 0.99426 0.0
H569 H 0.06394 0.8649 0.29413 0.0
H570 H 0.92183 0.22831 0.74225 0.0
H571 H 0.91979 0.19974 0.79043 0.0
H572 H 0.8663 0.23955 0.84262 0.0
H573 H 0.86889 0.26855 0.79496 0.0
H574 H 0.89837 0.2302 0.88842 0.0
H575 H 0.85522 0.18462 0.80787 0.0
H576 H 0.84465 0.16593 0.75062 0.0
H577 H 0.9068 0.12535 0.75423 0.0
H578 H 0.91795 0.14405 0.81123 0.0
H579 H 0.9148 0.14819 0.0286 0.0
H580 H 0.89141 0.16434 0.97918 0.0
H581 H 0.94745 0.15163 0.9051 0.0
H582 H 0.97087 0.13618 0.95425 0.0
H583 H 0.90171 0.14492 0.87472 0.0
H584 H 0.94788 0.20042 0.94509 0.0
H585 H 0.95857 0.21958 0.00198 0.0
H586 H 0.88821 0.24145 0.01673 0.0
H587 H 0.87708 0.22209 0.96011 0.0
C588 C 0.90935 0.2308 0.76364 0.0
C589 C 0.89558 0.2508 0.76495 0.0
C590 C 0.90804 0.21432 0.79108 0.0
C591 C 0.89271 0.21732 0.82007 0.0
C592 C 0.87823 0.2368 0.82055 0.0
C593 C 0.87969 0.25337 0.79327 0.0
C594 C 0.89395 0.20165 0.85171 0.0
C595 C 0.89832 0.21153 0.88552 0.0
C596 C 0.89408 0.17727 0.84809 0.0
C597 C 0.88746 0.16583 0.81383 0.0
C598 C 0.86672 0.17182 0.79636 0.0
C599 C 0.86061 0.1612 0.76395 0.0
C600 C 0.87506 0.14448 0.74879 0.0
C601 C 0.89562 0.1383 0.76603 0.0
C602 C 0.90182 0.14887 0.79844 0.0
C603 C 0.92171 0.14821 0.0015 0.0
C604 C 0.94456 0.14117 0.995 0.0
C605 C 0.90841 0.15741 0.9734 0.0
C606 C 0.91779 0.1592 0.93858 0.0
C607 C 0.93987 0.15026 0.9317 0.0
C608 C 0.95326 0.14158 0.95977 0.0
C609 C 0.90671 0.17364 0.91062 0.0
C610 C 0.90072 0.16356 0.8776 0.0
C611 C 0.90488 0.19785 0.91488 0.0
C612 C 0.9116 0.20956 0.94873 0.0
C613 C 0.93467 0.20915 0.96065 0.0
C614 C 0.94081 0.22006 0.9928 0.0
C615 C 0.92406 0.23165 0.01303 0.0
C616 C 0.90115 0.23241 0.00109 0.0
C617 C 0.89491 0.22146 0.96899 0.0
H618 H 0.92885 0.24011 0.03791 0.0
H619 H 0.8703 0.13628 0.72369 0.0
H620 H 0.58061 0.16286 0.7406 0.0
H621 H 0.57303 0.14213 0.68498 0.0
H622 H 0.64573 0.12669 0.67432 0.0
H623 H 0.65358 0.14796 0.73003 0.0
H624 H 0.62931 0.14444 0.61387 0.0
H625 H 0.60654 0.08368 0.69111 0.0
H626 H 0.58702 0.06455 0.74205 0.0
H627 H 0.52082 0.08243 0.69777 0.0
H628 H 0.53989 0.10202 0.64685 0.0
H629 H 0.55422 0.07068 0.47677 0.0
H630 H 0.57813 0.0729 0.53117 0.0
H631 H 0.57247 0.14732 0.52945 0.0
H632 H 0.54885 0.14525 0.47541 0.0
H633 H 0.56477 0.08921 0.59501 0.0
H634 H 0.61601 0.17288 0.56351 0.0
H635 H 0.63652 0.19101 0.51256 0.0
H636 H 0.64787 0.12418 0.46547 0.0
H637 H 0.62776 0.10565 0.5165 0.0
C638 C 0.59498 0.1547 0.72687 0.0
C639 C 0.6177 0.15711 0.73968 0.0
C640 C 0.59059 0.14271 0.69511 0.0
C641 C 0.60878 0.13265 0.67562 0.0
C642 C 0.63143 0.13424 0.68904 0.0
C643 C 0.63586 0.14628 0.72096 0.0
C644 C 0.6041 0.12253 0.63971 0.0
C645 C 0.61547 0.13204 0.60978 0.0
C646 C 0.58635 0.10603 0.63437 0.0
C647 C 0.5747 0.09442 0.66515 0.0
C648 C 0.58782 0.08375 0.69239 0.0
C649 C 0.57682 0.07277 0.72123 0.0
C650 C 0.5527 0.07229 0.72316 0.0
C651 C 0.53951 0.08281 0.69624 0.0
C652 C 0.55041 0.09382 0.66733 0.0
C653 C 0.55852 0.08752 0.48759 0.0
C654 C 0.5496 0.1078 0.47187 0.0
C655 C 0.57213 0.08875 0.51869 0.0
C656 C 0.57735 0.11029 0.53412 0.0
C657 C 0.56912 0.13053 0.51763 0.0
C658 C 0.55545 0.12931 0.48683 0.0
C659 C 0.58926 0.11192 0.56936 0.0
C660 C 0.57915 0.10095 0.59917 0.0
C661 C 0.6083 0.1269 0.57464 0.0
C662 C 0.62049 0.1379 0.54392 0.0
C663 C 0.6231 0.16205 0.54247 0.0
C664 C 0.63459 0.1724 0.51352 0.0
C665 C 0.64352 0.15875 0.48581 0.0
C666 C 0.64095 0.13473 0.48697 0.0
C667 C 0.62949 0.1243 0.51588 0.0
H668 H 0.65241 0.16679 0.46341 0.0
H669 H 0.54422 0.06375 0.74549 0.0
H670 H 0.66515 0.824 0.5411 0.0
H671 H 0.68043 0.80806 0.48504 0.0
H672 H 0.65356 0.86664 0.42657 0.0
H673 H 0.63831 0.88277 0.48246 0.0
H674 H 0.6382 0.82581 0.39992 0.0
H675 H 0.71115 0.85829 0.43184 0.0
H676 H 0.74466 0.86663 0.4707 0.0
H677 H 0.76044 0.79417 0.47663 0.0
H678 H 0.72679 0.78534 0.43827 0.0
H679 H 0.67048 0.77288 0.23686 0.0
H680 H 0.67026 0.80261 0.28367 0.0
H681 H 0.70002 0.75402 0.35874 0.0
H682 H 0.70137 0.72472 0.31172 0.0
H683 H 0.71641 0.79546 0.37226 0.0
H684 H 0.63902 0.76333 0.35458 0.0
H685 H 0.60453 0.75352 0.31851 0.0
H686 H 0.59727 0.82473 0.28745 0.0
H687 H 0.63201 0.8348 0.32274 0.0
C688 C 0.66299 0.8338 0.51647 0.0
C689 C 0.65034 0.85457 0.51629 0.0
C690 C 0.67183 0.82469 0.48442 0.0
C691 C 0.66815 0.83616 0.45158 0.0
C692 C 0.65663 0.85752 0.4516 0.0
C693 C 0.64797 0.86674 0.48366 0.0
C694 C 0.67375 0.82451 0.41705 0.0
C695 C 0.65546 0.8198 0.39336 0.0
C696 C 0.6961 0.81592 0.40912 0.0
C697 C 0.71631 0.82114 0.43237 0.0
C698 C 0.72162 0.84411 0.44169 0.0
C699 C 0.74068 0.84893 0.46359 0.0
C700 C 0.75464 0.83094 0.47619 0.0
C701 C 0.74959 0.80809 0.46687 0.0
C702 C 0.73055 0.80317 0.44502 0.0
C703 C 0.67745 0.76872 0.26311 0.0
C704 C 0.68572 0.74638 0.27066 0.0
C705 C 0.67716 0.78567 0.28995 0.0
C706 C 0.68462 0.78041 0.32503 0.0
C707 C 0.69408 0.75851 0.33198 0.0
C708 C 0.69467 0.74169 0.30508 0.0
C709 C 0.68081 0.79677 0.35531 0.0
C710 C 0.69932 0.80214 0.37834 0.0
C711 C 0.65863 0.8059 0.36291 0.0
C712 C 0.63802 0.7998 0.34126 0.0
C713 C 0.6301 0.77684 0.3399 0.0
C714 C 0.61055 0.77124 0.31957 0.0
C715 C 0.59871 0.78849 0.3007 0.0
C716 C 0.60644 0.81138 0.30206 0.0
C717 C 0.62605 0.81704 0.32222 0.0
H718 H 0.58355 0.78413 0.28503 0.0
H719 H 0.76939 0.83472 0.49312 0.0
H720 H 0.61007 0.62989 0.21 0.0
H721 H 0.59266 0.61161 0.26289 0.0
H722 H 0.64021 0.64838 0.33161 0.0
H723 H 0.65824 0.66593 0.27894 0.0
H724 H 0.63273 0.60776 0.35915 0.0
H725 H 0.58393 0.6686 0.31373 0.0
H726 H 0.56091 0.6892 0.26791 0.0
H727 H 0.51722 0.62968 0.25556 0.0
H728 H 0.54012 0.60865 0.30111 0.0
H729 H 0.5657 0.61703 0.51999 0.0
H730 H 0.58929 0.62124 0.46592 0.0
H731 H 0.53927 0.58183 0.40557 0.0
H732 H 0.51533 0.57795 0.45932 0.0
H733 H 0.54823 0.61992 0.37208 0.0
H734 H 0.59518 0.56253 0.42861 0.0
H735 H 0.61856 0.54451 0.47642 0.0
H736 H 0.66649 0.60119 0.47165 0.0
H737 H 0.64317 0.61959 0.42404 0.0
C738 C 0.61709 0.63375 0.23633 0.0
C739 C 0.63538 0.64957 0.24022 0.0
C740 C 0.60703 0.62339 0.26659 0.0
C741 C 0.61471 0.62905 0.30139 0.0
C742 C 0.63387 0.64378 0.30514 0.0
C743 C 0.64415 0.65387 0.2749 0.0
C744 C 0.60194 0.621 0.33391 0.0
C745 C 0.61427 0.61054 0.36215 0.0
C746 C 0.57779 0.62432 0.33768 0.0
C747 C 0.56391 0.63696 0.31045 0.0
C748 C 0.56951 0.65986 0.30105 0.0
C749 C 0.55648 0.67161 0.27516 0.0
C750 C 0.53772 0.66069 0.25866 0.0
C751 C 0.53184 0.63807 0.26823 0.0
C752 C 0.54481 0.62623 0.29411 0.0
C753 C 0.55994 0.60881 0.4954 0.0
C754 C 0.53852 0.59729 0.49397 0.0
C755 C 0.57354 0.61115 0.46445 0.0
C756 C 0.5662 0.60168 0.43157 0.0
C757 C 0.54537 0.5892 0.43058 0.0
C758 C 0.53169 0.587 0.46141 0.0
C759 C 0.57898 0.60669 0.39762 0.0
C760 C 0.56663 0.61676 0.36907 0.0
C761 C 0.60319 0.60343 0.39403 0.0
C762 C 0.61731 0.59243 0.42275 0.0
C763 C 0.61064 0.57114 0.43782 0.0
C764 C 0.62389 0.56088 0.46492 0.0
C765 C 0.64401 0.57171 0.4771 0.0
C766 C 0.6509 0.5928 0.46218 0.0
C767 C 0.63766 0.60313 0.43508 0.0
H768 H 0.65427 0.56375 0.49809 0.0
H769 H 0.52765 0.66982 0.23861 0.0
H770 H 0.62348 0.25762 0.73241 0.0
H771 H 0.61835 0.28001 0.67714 0.0
H772 H 0.68513 0.25713 0.63935 0.0
H773 H 0.6901 0.23452 0.69471 0.0
H774 H 0.64071 0.31395 0.64 0.0
H775 H 0.67874 0.24323 0.55086 0.0
H776 H 0.68897 0.20186 0.5553 0.0
H777 H 0.63346 0.19099 0.63024 0.0
H778 H 0.62266 0.23217 0.62571 0.0
H779 H 0.61873 0.35375 0.46315 0.0
H780 H 0.64211 0.33615 0.5108 0.0
H781 H 0.59264 0.28057 0.51998 0.0
H782 H 0.56951 0.29771 0.47215 0.0
H783 H 0.63567 0.26473 0.53092 0.0
H784 H 0.58915 0.32964 0.56662 0.0
H785 H 0.57559 0.36987 0.56952 0.0
H786 H 0.6428 0.39168 0.60515 0.0
H787 H 0.6566 0.35131 0.6028 0.0
C788 C 0.63724 0.25773 0.71262 0.0
C789 C 0.65701 0.24394 0.71722 0.0
C790 C 0.63434 0.27058 0.68113 0.0
C791 C 0.65119 0.2699 0.65393 0.0
C792 C 0.67175 0.25757 0.65977 0.0
C793 C 0.67455 0.24459 0.69115 0.0
C794 C 0.6459 0.2799 0.61822 0.0
C795 C 0.64001 0.30336 0.61594 0.0
C796 C 0.64471 0.26589 0.58706 0.0
C797 C 0.65008 0.24081 0.58822 0.0
C798 C 0.66862 0.23196 0.56804 0.0
C799 C 0.67454 0.20856 0.57065 0.0
C800 C 0.66199 0.19386 0.59326 0.0
C801 C 0.64327 0.20243 0.61293 0.0
C802 C 0.6372 0.22578 0.61027 0.0
C803 C 0.6131 0.33752 0.47482 0.0
C804 C 0.59208 0.32731 0.4643 0.0
C805 C 0.62649 0.3275 0.50201 0.0
C806 C 0.61894 0.30724 0.51927 0.0
C807 C 0.59881 0.2962 0.50703 0.0
C808 C 0.5855 0.30613 0.47982 0.0
C809 C 0.63018 0.29886 0.55266 0.0
C810 C 0.63714 0.27562 0.55457 0.0
C811 C 0.63195 0.31303 0.58368 0.0
C812 C 0.6239 0.33743 0.58426 0.0
C813 C 0.60101 0.343 0.57502 0.0
C814 C 0.59329 0.36585 0.57656 0.0
C815 C 0.60835 0.38341 0.58733 0.0
C816 C 0.63115 0.37807 0.59673 0.0
C817 C 0.6389 0.35517 0.59537 0.0
H818 H 0.60234 0.40112 0.58848 0.0
H819 H 0.66666 0.17578 0.59533 0.0
H820 H 0.03189 0.40005 0.01877 0.0
H821 H 0.00307 0.39363 0.97171 0.0
H822 H 0.05228 0.41478 0.89105 0.0
H823 H 0.08146 0.42081 0.93775 0.0
H824 H 0.99604 0.42611 0.8837 0.0
H825 H 0.0577 0.36646 0.89245 0.0
H826 H 0.08265 0.34097 0.92888 0.0
H827 H 0.02265 0.31146 0.9794 0.0
H828 H 0.99739 0.33707 0.94352 0.0
H829 H 0.95749 0.35985 0.72998 0.0
H830 H 0.97636 0.38377 0.77601 0.0
H831 H 0.95307 0.33635 0.8583 0.0
H832 H 0.93546 0.31201 0.81227 0.0
H833 H 0.99618 0.34118 0.86471 0.0
H834 H 0.93385 0.39556 0.85191 0.0
H835 H 0.90715 0.42147 0.81937 0.0
H836 H 0.96474 0.46094 0.77978 0.0
H837 H 0.99177 0.43498 0.81156 0.0
C838 C 0.03646 0.40391 0.99114 0.0
C839 C 0.05914 0.41043 0.98195 0.0
C840 C 0.01989 0.40043 0.96433 0.0
C841 C 0.02562 0.40371 0.92801 0.0
C842 C 0.04753 0.41232 0.91899 0.0
C843 C 0.06423 0.41552 0.94573 0.0
C844 C 0.01076 0.39354 0.89981 0.0
C845 C 0.99616 0.40761 0.87908 0.0
C846 C 0.01059 0.36939 0.89453 0.0
C847 C 0.02572 0.35379 0.91564 0.0
C848 C 0.04987 0.35466 0.91155 0.0
C849 C 0.06406 0.34018 0.93206 0.0
C850 C 0.05424 0.32464 0.95653 0.0
C851 C 0.03022 0.32353 0.96048 0.0
C852 C 0.01597 0.338 0.94006 0.0
C853 C 0.95596 0.35498 0.75803 0.0
C854 C 0.94523 0.33411 0.76774 0.0
C855 C 0.96667 0.36866 0.78437 0.0
C856 C 0.96625 0.36187 0.82078 0.0
C857 C 0.9539 0.34188 0.83046 0.0
C858 C 0.94376 0.32801 0.80419 0.0
C859 C 0.9809 0.3736 0.8482 0.0
C860 C 0.99578 0.35974 0.86892 0.0
C861 C 0.98101 0.39789 0.8535 0.0
C862 C 0.96483 0.41334 0.83406 0.0
C863 C 0.94081 0.40968 0.83607 0.0
C864 C 0.92562 0.42437 0.81778 0.0
C865 C 0.93424 0.44284 0.79752 0.0
C866 C 0.95808 0.44665 0.79552 0.0
C867 C 0.97334 0.43199 0.81372 0.0
H868 H 0.92245 0.4542 0.78339 0.0
H869 H 0.0652 0.31339 0.97235 0.0
H870 H 0.92607 0.7218 0.27053 0.0
H871 H 0.9364 0.69869 0.21799 0.0
H872 H 0.89544 0.74346 0.15044 0.0
H873 H 0.88526 0.7669 0.20279 0.0
H874 H 0.9164 0.67433 0.16467 0.0
H875 H 0.92731 0.75564 0.0751 0.0
H876 H 0.93444 0.79754 0.08176 0.0
H877 H 0.96811 0.78541 0.18296 0.0
H878 H 0.96148 0.74353 0.17669 0.0
H879 H 0.9526 0.63641 0.98981 0.0
H880 H 0.93107 0.65545 0.03836 0.0
H881 H 0.99326 0.69083 0.07133 0.0
H882 H 0.01462 0.67239 0.02278 0.0
H883 H 0.95879 0.71975 0.07238 0.0
H884 H 0.97276 0.64287 0.11623 0.0
H885 H 0.97143 0.60025 0.11464 0.0
H886 H 0.89718 0.60221 0.11314 0.0
H887 H 0.89809 0.64489 0.11421 0.0
C888 C 0.91883 0.72647 0.24464 0.0
C889 C 0.90523 0.74648 0.24072 0.0
C890 C 0.92471 0.71318 0.21462 0.0
C891 C 0.91708 0.71964 0.1802 0.0
C892 C 0.90184 0.73841 0.17669 0.0
C893 C 0.89601 0.75176 0.20667 0.0
C894 C 0.9271 0.70836 0.14791 0.0
C895 C 0.92545 0.68426 0.14425 0.0
C896 C 0.93942 0.72127 0.12174 0.0
C897 C 0.94359 0.74648 0.12563 0.0
C898 C 0.93626 0.76194 0.09874 0.0
C899 C 0.94022 0.78569 0.10246 0.0
C900 C 0.95163 0.79417 0.13286 0.0
C901 C 0.95918 0.77889 0.15953 0.0
C902 C 0.9553 0.75514 0.15593 0.0
C903 C 0.96163 0.64831 0.00737 0.0
C904 C 0.98532 0.65287 0.00244 0.0
C905 C 0.94933 0.65911 0.03516 0.0
C906 C 0.96058 0.67448 0.05866 0.0
C907 C 0.98416 0.67915 0.05348 0.0
C908 C 0.99639 0.66849 0.02572 0.0
C909 C 0.9481 0.68565 0.08897 0.0
C910 C 0.94932 0.70981 0.09231 0.0
C911 C 0.9361 0.67269 0.11543 0.0
C912 C 0.9355 0.64706 0.11486 0.0
C913 C 0.95616 0.63421 0.11526 0.0
C914 C 0.95548 0.61005 0.1145 0.0
C915 C 0.93424 0.59853 0.11367 0.0
C916 C 0.91363 0.61116 0.1137 0.0
C917 C 0.91421 0.63533 0.11439 0.0
H918 H 0.93375 0.57982 0.1131 0.0
H919 H 0.95468 0.81255 0.13571 0.0
H920 H 0.55805 0.40314 0.53542 0.0
H921 H 0.538 0.3972 0.5925 0.0
H922 H 0.4742 0.38477 0.53577 0.0
H923 H 0.49441 0.38962 0.47813 0.0
H924 H 0.47192 0.41355 0.60423 0.0
H925 H 0.49662 0.3417 0.55523 0.0
H926 H 0.52232 0.31206 0.52951 0.0
H927 H 0.56472 0.31424 0.62424 0.0
H928 H 0.53991 0.34475 0.64985 0.0
H929 H 0.41509 0.34415 0.74083 0.0
H930 H 0.42988 0.36313 0.68661 0.0
H931 H 0.49816 0.3651 0.73314 0.0
H932 H 0.48361 0.34619 0.78736 0.0
H933 H 0.49637 0.34234 0.66835 0.0
H934 H 0.47007 0.41451 0.71748 0.0
H935 H 0.44166 0.44148 0.74366 0.0
H936 H 0.39939 0.43556 0.64915 0.0
H937 H 0.4274 0.4083 0.62258 0.0
C938 C 0.53969 0.39942 0.53496 0.0
C939 C 0.52791 0.39635 0.50221 0.0
C940 C 0.52828 0.39607 0.56764 0.0
C941 C 0.50473 0.3903 0.56822 0.0
C942 C 0.49242 0.38916 0.53576 0.0
C943 C 0.50399 0.3919 0.50291 0.0
C944 C 0.49372 0.3834 0.60252 0.0
C945 C 0.47705 0.39788 0.61818 0.0
C946 C 0.50063 0.36303 0.62067 0.0
C947 C 0.51658 0.34588 0.60422 0.0
C948 C 0.51175 0.33635 0.57022 0.0
C949 C 0.52611 0.31928 0.55571 0.0
C950 C 0.5451 0.31124 0.57525 0.0
C951 C 0.54996 0.32046 0.60916 0.0
C952 C 0.53587 0.33778 0.62355 0.0
C953 C 0.43315 0.34913 0.73992 0.0
C954 C 0.44823 0.34338 0.76829 0.0
C955 C 0.44154 0.36006 0.70892 0.0
C956 C 0.46513 0.36544 0.70581 0.0
C957 C 0.4799 0.36103 0.73498 0.0
C958 C 0.47153 0.35023 0.76599 0.0
C959 C 0.47501 0.37277 0.67076 0.0
C960 C 0.49137 0.35817 0.65469 0.0
C961 C 0.46762 0.39285 0.65223 0.0
C962 C 0.45072 0.40916 0.66821 0.0
C963 C 0.4546 0.41877 0.70242 0.0
C964 C 0.4386 0.43416 0.7173 0.0
C965 C 0.4187 0.44018 0.69813 0.0
C966 C 0.41479 0.43086 0.66399 0.0
C967 C 0.43074 0.41546 0.649 0.0
H968 H 0.40633 0.4521 0.70968 0.0
H969 H 0.5561 0.2979 0.5641 0.0
H970 H 0.44849 0.69338 0.55351 0.0
H971 H 0.43178 0.71042 0.49922 0.0
H972 H 0.44097 0.64586 0.443 0.0
H973 H 0.45774 0.62868 0.49708 0.0
H974 H 0.46079 0.68164 0.40777 0.0
H975 H 0.38727 0.66543 0.45967 0.0
H976 H 0.35715 0.6649 0.50664 0.0
H977 H 0.35621 0.73914 0.50794 0.0
H978 H 0.38658 0.74014 0.46134 0.0
H979 H 0.41884 0.73422 0.24739 0.0
H980 H 0.42226 0.70715 0.29793 0.0
H981 H 0.40934 0.76296 0.37231 0.0
H982 H 0.4052 0.78975 0.32214 0.0
H983 H 0.38796 0.72617 0.39486 0.0
H984 H 0.46547 0.74225 0.35116 0.0
H985 H 0.49689 0.74336 0.30622 0.0
H986 H 0.4911 0.66994 0.29143 0.0
H987 H 0.45955 0.66845 0.33604 0.0
C988 C 0.4465 0.68264 0.52985 0.0
C989 C 0.45465 0.65973 0.52957 0.0
C990 C 0.43685 0.69239 0.49885 0.0
C991 C 0.43513 0.6794 0.46705 0.0
C992 C 0.44216 0.65619 0.46724 0.0
C993 C 0.45169 0.64639 0.49825 0.0
C994 C 0.42846 0.6908 0.43281 0.0
C995 C 0.44462 0.69096 0.40463 0.0
C996 C 0.40761 0.70335 0.42906 0.0
C997 C 0.38936 0.70285 0.45718 0.0
C998 C 0.3808 0.68165 0.47018 0.0
C999 C 0.36364 0.68126 0.4967 0.0
C1000 C 0.35481 0.70197 0.51032 0.0
C1001 C 0.36308 0.72311 0.49739 0.0
C1002 C 0.38025 0.72359 0.47088 0.0
C1003 C 0.41659 0.74063 0.27454 0.0
C1004 C 0.41186 0.76412 0.28082 0.0
C1005 C 0.41861 0.72518 0.3034 0.0
C1006 C 0.41642 0.73307 0.33902 0.0
C1007 C 0.41108 0.75641 0.34514 0.0
C1008 C 0.40877 0.77175 0.31638 0.0
C1009 C 0.42055 0.71747 0.37018 0.0
C1010 C 0.40394 0.71653 0.39779 0.0
C1011 C 0.44111 0.70433 0.37361 0.0
C1012 C 0.45997 0.70529 0.34658 0.0
C1013 C 0.47079 0.72639 0.3381 0.0
C1014 C 0.48866 0.72707 0.31275 0.0
C1015 C 0.49597 0.70675 0.29591 0.0
C1016 C 0.48545 0.68568 0.30444 0.0
C1017 C 0.46757 0.6849 0.32976 0.0
H1018 H 0.50982 0.70732 0.27631 0.0
H1019 H 0.34152 0.70163 0.53084 0.0
H1020 H 0.1585 0.65209 0.24278 0.0
H1021 H 0.15025 0.63184 0.18654 0.0
H1022 H 0.08397 0.6106 0.22833 0.0
H1023 H 0.09198 0.63088 0.28465 0.0
H1024 H 0.10698 0.57647 0.18449 0.0
H1025 H 0.08505 0.65827 0.18192 0.0
H1026 H 0.09486 0.69946 0.19031 0.0
H1027 H 0.14875 0.69374 0.11129 0.0
H1028 H 0.13937 0.65242 0.10266 0.0
H1029 H 0.02654 0.56892 0.0417 0.0
H1030 H 0.05072 0.57295 0.09493 0.0
H1031 H 0.10408 0.60494 0.03066 0.0
H1032 H 0.07954 0.60172 0.97737 0.0
H1033 H 0.09528 0.63131 0.08343 0.0
H1034 H 0.10958 0.55116 0.07472 0.0
H1035 H 0.10396 0.50904 0.0708 0.0
H1036 H 0.06847 0.50926 0.17227 0.0
H1037 H 0.07309 0.55147 0.17632 0.0
C1038 C 0.1424 0.64264 0.24042 0.0
C1039 C 0.12574 0.64335 0.26804 0.0
C1040 C 0.13772 0.63111 0.20821 0.0
C1041 C 0.11639 0.62 0.20318 0.0
C1042 C 0.10052 0.61911 0.23172 0.0
C1043 C 0.1051 0.63078 0.26384 0.0
C1044 C 0.10936 0.61174 0.16709 0.0
C1045 C 0.1042 0.58831 0.16225 0.0
C1046 C 0.10672 0.62724 0.13797 0.0
C1047 C 0.11163 0.65227 0.14184 0.0
C1048 C 0.099 0.66581 0.16636 0.0
C1049 C 0.10448 0.68915 0.17117 0.0
C1050 C 0.12245 0.69916 0.1514 0.0
C1051 C 0.13485 0.68592 0.12657 0.0
C1052 C 0.12943 0.66256 0.12166 0.0
C1053 C 0.04362 0.57637 0.03864 0.0
C1054 C 0.05093 0.58536 0.00531 0.0
C1055 C 0.05756 0.5785 0.0692 0.0
C1056 C 0.0793 0.58929 0.06702 0.0
C1057 C 0.08733 0.59669 0.03318 0.0
C1058 C 0.0733 0.59477 0.00265 0.0
C1059 C 0.09203 0.5957 0.10045 0.0
C1060 C 0.09827 0.61904 0.10504 0.0
C1061 C 0.09572 0.57994 0.12923 0.0
C1062 C 0.09156 0.55467 0.12566 0.0
C1063 C 0.10019 0.54235 0.09591 0.0
C1064 C 0.09723 0.5184 0.09372 0.0
C1065 C 0.08589 0.50651 0.12132 0.0
C1066 C 0.07735 0.51851 0.15101 0.0
C1067 C 0.08005 0.54247 0.15318 0.0
H1068 H 0.08368 0.48801 0.11984 0.0
H1069 H 0.12676 0.71716 0.15535 0.0
H1070 H 0.20649 0.2153 0.81111 0.0
H1071 H 0.2003 0.24644 0.85401 0.0
H1072 H 0.18143 0.29238 0.76728 0.0
H1073 H 0.18619 0.26078 0.72431 0.0
H1074 H 0.21293 0.28873 0.87073 0.0
H1075 H 0.1353 0.32471 0.79441 0.0
H1076 H 0.10923 0.31403 0.74455 0.0
H1077 H 0.1174 0.24215 0.77082 0.0
H1078 H 0.14316 0.25246 0.82127 0.0
H1079 H 0.15445 0.37303 0.9841 0.0
H1080 H 0.17438 0.35496 0.93286 0.0
H1081 H 0.12621 0.298 0.93651 0.0
H1082 H 0.10649 0.31575 0.98728 0.0
H1083 H 0.13099 0.3142 0.8691 0.0
H1084 H 0.18092 0.29281 0.96888 0.0
H1085 H 0.20674 0.30078 0.02021 0.0
H1086 H 0.2524 0.33896 0.95096 0.0
H1087 H 0.22667 0.33144 0.89929 0.0
C1088 C 0.2014 0.23212 0.80099 0.0
C1089 C 0.19637 0.23541 0.76434 0.0
C1090 C 0.19805 0.25001 0.8256 0.0
C1091 C 0.18984 0.27161 0.81401 0.0
C1092 C 0.18727 0.2757 0.77695 0.0
C1093 C 0.19013 0.25764 0.75235 0.0
C1094 C 0.1809 0.28825 0.8411 0.0
C1095 C 0.19511 0.2946 0.87011 0.0
C1096 C 0.15758 0.29581 0.84052 0.0
C1097 C 0.14135 0.28936 0.81129 0.0
C1098 C 0.1314 0.30664 0.78967 0.0
C1099 C 0.11669 0.30065 0.76131 0.0
C1100 C 0.11172 0.27742 0.75444 0.0
C1101 C 0.12129 0.26014 0.77613 0.0
C1102 C 0.13592 0.26605 0.80465 0.0
C1103 C 0.14831 0.35655 0.97411 0.0
C1104 C 0.12877 0.3459 0.98947 0.0
C1105 C 0.15966 0.34629 0.94484 0.0
C1106 C 0.15167 0.32521 0.93072 0.0
C1107 C 0.13251 0.3144 0.94665 0.0
C1108 C 0.12126 0.32457 0.97573 0.0
C1109 C 0.16284 0.31414 0.89919 0.0
C1110 C 0.14899 0.30888 0.86929 0.0
C1111 C 0.18633 0.30727 0.89932 0.0
C1112 C 0.20173 0.31183 0.93036 0.0
C1113 C 0.19636 0.30308 0.96469 0.0
C1114 C 0.21099 0.30748 0.99382 0.0
C1115 C 0.23115 0.32044 0.98888 0.0
C1116 C 0.23675 0.32897 0.95477 0.0
C1117 C 0.22215 0.32464 0.92556 0.0
H1118 H 0.24247 0.32382 0.01146 0.0
H1119 H 0.10042 0.27282 0.73236 0.0
H1120 H 0.04663 0.34723 0.14066 0.0
H1121 H 0.03123 0.31244 0.17009 0.0
H1122 H 0.10057 0.29127 0.19756 0.0
H1123 H 0.11594 0.32627 0.16888 0.0
H1124 H 0.07651 0.26166 0.15117 0.0
H1125 H 0.06917 0.2963 0.26166 0.0
H1126 H 0.06021 0.32366 0.3102 0.0
H1127 H 0.98759 0.31204 0.29478 0.0
H1128 H 0.99594 0.28551 0.24464 0.0
H1129 H 0.00717 0.15883 0.20962 0.0
H1130 H 0.02524 0.19445 0.23198 0.0
H1131 H 0.00346 0.23034 0.13603 0.0
H1132 H 0.98572 0.19504 0.11338 0.0
H1133 H 0.01236 0.24735 0.23722 0.0
H1134 H 0.05402 0.24241 0.09679 0.0
H1135 H 0.06433 0.21253 0.05223 0.0
H1136 H 0.07364 0.16293 0.13708 0.0
H1137 H 0.06381 0.19262 0.18215 0.0
C1138 C 0.05844 0.33538 0.15382 0.0
C1139 C 0.08237 0.33916 0.15251 0.0
C1140 C 0.04967 0.31575 0.17099 0.0
C1141 C 0.06479 0.29947 0.18625 0.0
C1142 C 0.08866 0.30382 0.18636 0.0
C1143 C 0.09738 0.32364 0.16976 0.0
C1144 C 0.05611 0.27604 0.19425 0.0
C1145 C 0.06285 0.25844 0.17059 0.0
C1146 C 0.03867 0.27177 0.22019 0.0
C1147 C 0.03324 0.28887 0.24895 0.0
C1148 C 0.05124 0.29988 0.26795 0.0
C1149 C 0.04625 0.31524 0.29591 0.0
C1150 C 0.02333 0.31949 0.30569 0.0
C1151 C 0.00533 0.30866 0.28718 0.0
C1152 C 0.01019 0.29354 0.25882 0.0
C1153 C 0.00567 0.17451 0.19382 0.0
C1154 C 0.99555 0.17409 0.15935 0.0
C1155 C 0.01584 0.19483 0.20678 0.0
C1156 C 0.01581 0.21482 0.18541 0.0
C1157 C 0.00367 0.21497 0.15277 0.0
C1158 C 0.99371 0.19476 0.13974 0.0
C1159 C 0.03193 0.23401 0.19267 0.0
C1160 C 0.02653 0.25064 0.21879 0.0
C1161 C 0.0511 0.23739 0.16968 0.0
C1162 C 0.05806 0.21971 0.14281 0.0
C1163 C 0.05848 0.22518 0.10595 0.0
C1164 C 0.06419 0.20827 0.0806 0.0
C1165 C 0.06958 0.18583 0.09181 0.0
C1166 C 0.06941 0.1803 0.12842 0.0
C1167 C 0.06376 0.19716 0.15387 0.0
H1168 H 0.07391 0.17274 0.07213 0.0
H1169 H 0.01947 0.33124 0.3275 0.0
H1170 H 0.95451 0.74062 0.41273 0.0
H1171 H 0.98276 0.7286 0.45734 0.0
H1172 H 0.97929 0.79609 0.50647 0.0
H1173 H 0.95031 0.80773 0.46266 0.0
H1174 H 0.01926 0.79068 0.48044 0.0
H1175 H 0.98793 0.74708 0.57093 0.0
H1176 H 0.964 0.72104 0.60808 0.0
H1177 H 0.97941 0.66451 0.53732 0.0
H1178 H 0.00403 0.69002 0.50028 0.0
H1179 H 0.12501 0.70956 0.46849 0.0
H1180 H 0.09487 0.72516 0.50853 0.0
H1181 H 0.05025 0.73545 0.41697 0.0
H1182 H 0.07985 0.72 0.37716 0.0
H1183 H 0.04156 0.71036 0.51176 0.0
H1184 H 0.04132 0.79365 0.42314 0.0
H1185 H 0.06985 0.82045 0.39681 0.0
H1186 H 0.11917 0.80156 0.47791 0.0
H1187 H 0.0909 0.77472 0.50505 0.0
C1188 C 0.95901 0.75253 0.4341 0.0
C1189 C 0.95074 0.77532 0.43368 0.0
C1190 C 0.97497 0.74554 0.4601 0.0
C1191 C 0.98341 0.76143 0.48557 0.0
C1192 C 0.97297 0.78335 0.48768 0.0
C1193 C 0.95655 0.79014 0.46215 0.0
C1194 C 0.00711 0.75765 0.49996 0.0
C1195 C 0.02418 0.77336 0.4886 0.0
C1196 C 0.01406 0.7357 0.51279 0.0
C1197 C 0.99781 0.72052 0.53277 0.0
C1198 C 0.98606 0.72915 0.56305 0.0
C1199 C 0.97257 0.71443 0.58431 0.0
C1200 C 0.97022 0.69117 0.57504 0.0
C1201 C 0.98134 0.68254 0.5445 0.0
C1202 C 0.99524 0.69707 0.52355 0.0
C1203 C 0.1087 0.71503 0.45702 0.0
C1204 C 0.10485 0.71376 0.4196 0.0
C1205 C 0.09155 0.72385 0.47992 0.0
C1206 C 0.07055 0.73162 0.46551 0.0
C1207 C 0.06649 0.72968 0.42845 0.0
C1208 C 0.08341 0.72079 0.40574 0.0
C1209 C 0.05243 0.74245 0.4878 0.0
C1210 C 0.03671 0.72806 0.50578 0.0
C1211 C 0.0469 0.76596 0.48233 0.0
C1212 C 0.06392 0.7822 0.46621 0.0
C1213 C 0.05818 0.79532 0.43559 0.0
C1214 C 0.07434 0.81046 0.42044 0.0
C1215 C 0.09631 0.81268 0.43571 0.0
C1216 C 0.10217 0.79974 0.46613 0.0
C1217 C 0.0861 0.78453 0.48135 0.0
H1218 H 0.10879 0.82443 0.42396 0.0
H1219 H 0.95991 0.67983 0.59164 0.0
H1220 H 0.50421 0.66107 0.71847 0.0
H1221 H 0.51888 0.69603 0.74822 0.0
H1222 H 0.56643 0.70665 0.66012 0.0
H1223 H 0.55226 0.67167 0.63111 0.0
H1224 H 0.58585 0.71855 0.72589 0.0
H1225 H 0.51094 0.73221 0.65792 0.0
H1226 H 0.46918 0.72413 0.65136 0.0
H1227 H 0.45841 0.74054 0.76283 0.0
H1228 H 0.50016 0.74847 0.76998 0.0
H1229 H 0.59475 0.81248 0.61971 0.0
H1230 H 0.58595 0.77732 0.65318 0.0
H1231 H 0.55898 0.81792 0.74103 0.0
H1232 H 0.56837 0.8535 0.7078 0.0
H1233 H 0.52873 0.78211 0.71387 0.0
H1234 H 0.60247 0.7883 0.76425 0.0
H1235 H 0.64417 0.79704 0.76709 0.0
H1236 H 0.65817 0.74328 0.69068 0.0
H1237 H 0.61658 0.73433 0.6869 0.0
C1238 C 0.51834 0.67047 0.70626 0.0
C1239 C 0.52723 0.66368 0.6727 0.0
C1240 C 0.52658 0.69048 0.72309 0.0
C1241 C 0.54377 0.70389 0.7064 0.0
C1242 C 0.55333 0.69643 0.67368 0.0
C1243 C 0.54506 0.6766 0.65691 0.0
C1244 C 0.54992 0.72726 0.71936 0.0
C1245 C 0.5734 0.73253 0.72415 0.0
C1246 C 0.5335 0.74538 0.71889 0.0
C1247 C 0.50851 0.74088 0.71447 0.0
C1248 C 0.4996 0.73408 0.68096 0.0
C1249 C 0.47598 0.72949 0.67716 0.0
C1250 C 0.46115 0.73182 0.70666 0.0
C1251 C 0.46991 0.73875 0.74001 0.0
C1252 C 0.49353 0.7433 0.74395 0.0
C1253 C 0.58715 0.81398 0.64626 0.0
C1254 C 0.58209 0.83569 0.66104 0.0
C1255 C 0.58233 0.79391 0.66551 0.0
C1256 C 0.57214 0.79511 0.69975 0.0
C1257 C 0.56714 0.81673 0.71484 0.0
C1258 C 0.57242 0.83695 0.69578 0.0
C1259 C 0.5649 0.77335 0.7172 0.0
C1260 C 0.54119 0.76833 0.71809 0.0
C1261 C 0.58115 0.75551 0.72317 0.0
C1262 C 0.60632 0.76057 0.72542 0.0
C1263 C 0.61441 0.77837 0.74794 0.0
C1264 C 0.63804 0.78338 0.74971 0.0
C1265 C 0.65379 0.77075 0.72912 0.0
C1266 C 0.64595 0.75302 0.70671 0.0
C1267 C 0.62234 0.74791 0.70483 0.0
H1268 H 0.67207 0.77469 0.73052 0.0
H1269 H 0.44287 0.72825 0.70368 0.0
H1270 H 0.62063 0.18481 0.94515 0.0
H1271 H 0.59184 0.19708 0.98923 0.0
H1272 H 0.57767 0.25773 0.92486 0.0
H1273 H 0.60599 0.24519 0.88092 0.0
H1274 H 0.56901 0.26712 0.99441 0.0
H1275 H 0.55163 0.19878 0.90849 0.0
H1276 H 0.56067 0.15806 0.89409 0.0
H1277 H 0.54953 0.13908 0.00455 0.0
H1278 H 0.54026 0.17965 0.01935 0.0
H1279 H 0.4833 0.28073 0.87442 0.0
H1280 H 0.51559 0.26818 0.91193 0.0
H1281 H 0.46823 0.24883 0.99646 0.0
H1282 H 0.43559 0.2621 0.95923 0.0
H1283 H 0.50483 0.21324 0.96602 0.0
H1284 H 0.49741 0.28257 0.02822 0.0
H1285 H 0.48874 0.32384 0.03663 0.0
H1286 H 0.54728 0.34224 0.97159 0.0
H1287 H 0.55594 0.30104 0.96165 0.0
C1288 C 0.61196 0.20114 0.94126 0.0
C1289 C 0.61504 0.21376 0.90933 0.0
C1290 C 0.59557 0.20828 0.96664 0.0
C1291 C 0.58233 0.22829 0.96042 0.0
C1292 C 0.58759 0.24224 0.93052 0.0
C1293 C 0.60362 0.23494 0.90507 0.0
C1294 C 0.55991 0.2325 0.97874 0.0
C1295 C 0.55486 0.25524 0.98939 0.0
C1296 C 0.54146 0.21661 0.97447 0.0
C1297 C 0.54555 0.19214 0.96507 0.0
C1298 C 0.55097 0.18584 0.92956 0.0
C1299 C 0.55618 0.16282 0.92137 0.0
C1300 C 0.55576 0.146 0.94842 0.0
C1301 C 0.54992 0.15212 0.98365 0.0
C1302 C 0.5447 0.17511 0.99196 0.0
C1303 C 0.47972 0.27396 0.90105 0.0
C1304 C 0.45697 0.27226 0.91383 0.0
C1305 C 0.49816 0.26696 0.92254 0.0
C1306 C 0.49422 0.25778 0.95698 0.0
C1307 C 0.47155 0.25605 0.97005 0.0
C1308 C 0.45301 0.26358 0.94875 0.0
C1309 C 0.51422 0.24855 0.97704 0.0
C1310 C 0.51869 0.22484 0.97389 0.0
C1311 C 0.53208 0.26362 0.98811 0.0
C1312 C 0.52739 0.28858 0.99433 0.0
C1313 C 0.50841 0.29538 0.01554 0.0
C1314 C 0.50348 0.3188 0.02058 0.0
C1315 C 0.5175 0.33568 0.00484 0.0
C1316 C 0.53647 0.32915 0.9839 0.0
C1317 C 0.54142 0.30572 0.97857 0.0
H1318 H 0.51363 0.35381 0.0088 0.0
H1319 H 0.55991 0.12822 0.94207 0.0
H1320 H 0.04523 0.85563 0.80979 0.0
H1321 H 0.02715 0.81999 0.78736 0.0
H1322 H 0.06423 0.78055 0.86724 0.0
H1323 H 0.08262 0.81579 0.88916 0.0
H1324 H 0.04563 0.77412 0.76345 0.0
H1325 H 0.02363 0.7503 0.91137 0.0
H1326 H 0.01428 0.77037 0.96805 0.0
H1327 H 0.9879 0.82832 0.90852 0.0
H1328 H 0.99671 0.80844 0.85148 0.0
H1329 H 0.0477 0.66147 0.83455 0.0
H1330 H 0.05041 0.70093 0.81096 0.0
H1331 H 0.976 0.70533 0.8073 0.0
H1332 H 0.97317 0.66562 0.82982 0.0
H1333 H -0.00032 0.73469 0.85825 0.0
H1334 H 0.99553 0.72159 0.73521 0.0
H1335 H 0.00188 0.70431 0.67546 0.0
H1336 H 0.07407 0.72136 0.68129 0.0
H1337 H 0.06814 0.73894 0.74105 0.0
C1338 C 0.05007 0.83924 0.8217 0.0
C1339 C 0.06546 0.8384 0.851 0.0
C1340 C 0.03965 0.81898 0.809 0.0
C1341 C 0.04432 0.79778 0.82581 0.0
C1342 C 0.06036 0.79684 0.85408 0.0
C1343 C 0.07077 0.81696 0.86665 0.0
C1344 C 0.03117 0.77671 0.81671 0.0
C1345 C 0.03534 0.76551 0.78387 0.0
C1346 C 0.01691 0.7661 0.84284 0.0
C1347 C 0.01094 0.7779 0.87711 0.0
C1348 C 0.01566 0.76724 0.91035 0.0
C1349 C 0.01049 0.77861 0.94256 0.0
C1350 C 0.00054 0.80062 0.94189 0.0
C1351 C 0.99566 0.81129 0.909 0.0
C1352 C 0.00075 0.79998 0.87673 0.0
C1353 C 0.03197 0.67058 0.82743 0.0
C1354 C 0.01027 0.66071 0.83439 0.0
C1355 C 0.03352 0.69299 0.81361 0.0
C1356 C 0.01339 0.70595 0.80734 0.0
C1357 C 0.99169 0.69547 0.8116 0.0
C1358 C 0.99014 0.67287 0.82469 0.0
C1359 C 0.01534 0.73137 0.80591 0.0
C1360 C 0.00925 0.74347 0.83715 0.0
C1361 C 0.02733 0.74284 0.778 0.0
C1362 C 0.0314 0.7315 0.74275 0.0
C1363 C 0.01281 0.72149 0.72393 0.0
C1364 C 0.0163 0.71178 0.68993 0.0
C1365 C 0.03837 0.71172 0.6746 0.0
C1366 C 0.05698 0.72144 0.6932 0.0
C1367 C 0.05354 0.73141 0.72706 0.0
H1368 H 0.04104 0.70413 0.64831 0.0
H1369 H 0.9966 0.80941 0.96685 0.0
H1370 H 0.59489 0.72053 0.1448 0.0
H1371 H 0.56018 0.72956 0.11068 0.0
H1372 H 0.59928 0.72798 0.01176 0.0
H1373 H 0.63441 0.71892 0.04598 0.0
H1374 H 0.57129 0.7652 0.01401 0.0
H1375 H 0.56162 0.68659 0.02546 0.0
H1376 H 0.56197 0.64745 0.05131 0.0
H1377 H 0.50908 0.667 0.12645 0.0
H1378 H 0.50855 0.70638 0.10134 0.0
H1379 H 0.43639 0.77125 0.0532 0.0
H1380 H 0.46697 0.75552 0.01467 0.0
H1381 H 0.51801 0.79181 0.07779 0.0
H1382 H 0.48762 0.80687 0.11673 0.0
H1383 H 0.49781 0.72678 0.04825 0.0
H1384 H 0.56427 0.80492 0.02288 0.0
H1385 H 0.56336 0.84207 0.99057 0.0
H1386 H 0.5016 0.82133 0.93525 0.0
H1387 H 0.50229 0.78387 0.96667 0.0
C1388 C 0.59616 0.72196 0.1158 0.0
C1389 C 0.61738 0.71905 0.09813 0.0
C1390 C 0.57626 0.72694 0.09624 0.0
C1391 C 0.57707 0.72897 0.05859 0.0
C1392 C 0.59825 0.7262 0.04073 0.0
C1393 C 0.61827 0.7211 0.06036 0.0
C1394 C 0.55572 0.73545 0.03912 0.0
C1395 C 0.55515 0.75677 0.02098 0.0
C1396 C 0.53485 0.72336 0.04552 0.0
C1397 C 0.53483 0.69953 0.06094 0.0
C1398 C 0.54996 0.68259 0.04733 0.0
C1399 C 0.55025 0.66032 0.06198 0.0
C1400 C 0.53547 0.6547 0.09041 0.0
C1401 C 0.52042 0.67135 0.10427 0.0
C1402 C 0.52006 0.69365 0.08969 0.0
C1403 C 0.45405 0.7764 0.05807 0.0
C1404 C 0.45974 0.7899 0.08824 0.0
C1405 C 0.47148 0.76751 0.03592 0.0
C1406 C 0.49473 0.7726 0.0432 0.0
C1407 C 0.50015 0.78792 0.0713 0.0
C1408 C 0.48283 0.79629 0.09387 0.0
C1409 C 0.51356 0.75807 0.02871 0.0
C1410 C 0.51385 0.73492 0.03996 0.0
C1411 C 0.53403 0.76829 0.01533 0.0
C1412 C 0.53343 0.7913 0.99714 0.0
C1413 C 0.55059 0.80807 0.00361 0.0
C1414 C 0.55008 0.82928 0.98547 0.0
C1415 C 0.53247 0.83404 0.96081 0.0
C1416 C 0.51525 0.81764 0.95435 0.0
C1417 C 0.51568 0.79641 0.97238 0.0
H1418 H 0.53215 0.85044 0.94673 0.0
H1419 H 0.53574 0.63745 0.10177 0.0
H1420 H 0.46894 0.18582 0.32208 0.0
H1421 H 0.4818 0.21864 0.28546 0.0
H1422 H 0.54245 0.18034 0.2536 0.0
H1423 H 0.52909 0.14718 0.28923 0.0
H1424 H 0.54867 0.219 0.3019 0.0
H1425 H 0.52437 0.20753 0.18306 0.0
H1426 H 0.50137 0.19853 0.12901 0.0
H1427 H 0.44927 0.2469 0.16223 0.0
H1428 H 0.4723 0.25669 0.21606 0.0
H1429 H 0.58219 0.3339 0.28909 0.0
H1430 H 0.57524 0.29777 0.25674 0.0
H1431 H 0.50366 0.29937 0.28938 0.0
H1432 H 0.51049 0.33549 0.32184 0.0
H1433 H 0.51331 0.27622 0.2189 0.0
H1434 H 0.53579 0.27653 0.34799 0.0
H1435 H 0.56197 0.28881 0.3968 0.0
H1436 H 0.6199 0.26027 0.33972 0.0
H1437 H 0.59398 0.24795 0.29044 0.0
C1438 C 0.48448 0.18414 0.30597 0.0
C1439 C 0.49817 0.16423 0.30846 0.0
C1440 C 0.49169 0.20273 0.28471 0.0
C1441 C 0.51302 0.20187 0.26661 0.0
C1442 C 0.52576 0.1812 0.26681 0.0
C1443 C 0.51821 0.16236 0.28733 0.0
C1444 C 0.52457 0.22402 0.25829 0.0
C1445 C 0.54163 0.23124 0.28263 0.0
C1446 C 0.51515 0.24008 0.23367 0.0
C1447 C 0.49996 0.23267 0.20375 0.0
C1448 C 0.50787 0.21603 0.1791 0.0
C1449 C 0.49497 0.211 0.14829 0.0
C1450 C 0.47388 0.22212 0.14223 0.0
C1451 C 0.46562 0.2383 0.16699 0.0
C1452 C 0.47866 0.24372 0.19753 0.0
C1453 C 0.56477 0.32703 0.2882 0.0
C1454 C 0.54691 0.33721 0.3084 0.0
C1455 C 0.56083 0.30646 0.26955 0.0
C1456 C 0.53901 0.2959 0.27099 0.0
C1457 C 0.52059 0.30737 0.28784 0.0
C1458 C 0.52455 0.32783 0.30669 0.0
C1459 C 0.53658 0.27101 0.26333 0.0
C1460 C 0.5211 0.26358 0.23674 0.0
C1461 C 0.54752 0.25456 0.28575 0.0
C1462 C 0.56305 0.26154 0.31549 0.0
C1463 C 0.55413 0.27298 0.34583 0.0
C1464 C 0.5689 0.27994 0.37355 0.0
C1465 C 0.5926 0.27541 0.3713 0.0
C1466 C 0.60155 0.26381 0.34139 0.0
C1467 C 0.58683 0.25681 0.31357 0.0
H1468 H 0.60401 0.28084 0.39279 0.0
H1469 H 0.46399 0.21825 0.11828 0.0
H1470 H 0.14036 0.21408 0.55151 0.0
H1471 H 0.11018 0.23768 0.52321 0.0
H1472 H 0.07496 0.24264 0.62531 0.0
H1473 H 0.10526 0.21993 0.65385 0.0
H1474 H 0.06308 0.23337 0.51565 0.0
H1475 H 0.05776 0.29401 0.64149 0.0
H1476 H 0.08484 0.31051 0.68568 0.0
H1477 H 0.14053 0.30431 0.60981 0.0
H1478 H 0.1137 0.28812 0.56485 0.0
H1479 H 0.96482 0.25467 0.60382 0.0
H1480 H 0.0001 0.24675 0.56997 0.0
H1481 H 0.00513 0.31892 0.54113 0.0
H1482 H 0.96904 0.32663 0.57368 0.0
H1483 H 0.04094 0.30433 0.58221 0.0
H1484 H 0.0125 0.28376 0.47254 0.0
H1485 H 0.987 0.26835 0.42531 0.0
H1486 H 0.00016 0.19918 0.46211 0.0
H1487 H 0.02563 0.21412 0.50972 0.0
C1488 C 0.1262 0.22027 0.56789 0.0
C1489 C 0.12542 0.21554 0.60508 0.0
C1490 C 0.10895 0.23365 0.55162 0.0
C1491 C 0.0907 0.24238 0.57237 0.0
C1492 C 0.08928 0.23659 0.60902 0.0
C1493 C 0.10653 0.22347 0.62529 0.0
C1494 C 0.07287 0.25772 0.55673 0.0
C1495 C 0.05833 0.2491 0.52964 0.0
C1496 C 0.06762 0.27911 0.57326 0.0
C1497 C 0.08365 0.2899 0.59968 0.0
C1498 C 0.0757 0.29646 0.63399 0.0
C1499 C 0.09105 0.30567 0.65926 0.0
C1500 C 0.1144 0.30845 0.65058 0.0
C1501 C 0.12244 0.30214 0.61652 0.0
C1502 C 0.10716 0.29294 0.59112 0.0
C1503 C 0.97299 0.26861 0.58899 0.0
C1504 C 0.9646 0.29123 0.59155 0.0
C1505 C 0.99299 0.26409 0.56932 0.0
C1506 C 0.00521 0.28226 0.55283 0.0
C1507 C 0.9958 0.30462 0.55309 0.0
C1508 C 0.97534 0.30902 0.57192 0.0
C1509 C 0.02987 0.27844 0.54431 0.0
C1510 C 0.04604 0.28925 0.56681 0.0
C1511 C 0.0368 0.25953 0.52286 0.0
C1512 C 0.02118 0.25011 0.49469 0.0
C1513 C 0.00991 0.26525 0.47071 0.0
C1514 C 0.99548 0.25659 0.44376 0.0
C1515 C 0.99211 0.23278 0.44046 0.0
C1516 C 0.00297 0.2176 0.46439 0.0
C1517 C 0.0175 0.22617 0.49133 0.0
H1518 H 0.98113 0.22611 0.41932 0.0
H1519 H 0.12626 0.31549 0.67026 0.0
H1520 H 0.01228 0.04235 0.15354 0.0
H1521 H 0.02898 0.01467 0.11099 0.0
H1522 H 0.98714 0.0434 0.02587 0.0
H1523 H 0.97034 0.0711 0.06846 0.0
H1524 H 0.99043 0.99518 0.02354 0.0
H1525 H 0.03985 0.06147 0.03536 0.0
H1526 H 0.06374 0.09004 0.06775 0.0
H1527 H 0.10854 0.03573 0.10449 0.0
H1528 H 0.08458 0.00685 0.07294 0.0
H1529 H 0.0516 0.96128 0.86826 0.0
H1530 H 0.03266 0.98361 0.91558 0.0
H1531 H 0.08228 0.95823 0.99281 0.0
H1532 H 0.10166 0.93618 0.94507 0.0
H1533 H 0.07489 0.00238 0.00244 0.0
H1534 H 0.02739 0.93639 0.98839 0.0
H1535 H 0.00315 0.90687 0.95892 0.0
H1536 H 0.95488 0.95946 0.92706 0.0
H1537 H 0.97903 0.98922 0.95618 0.0
C1538 C 0.00632 0.04243 0.12591 0.0
C1539 C 0.99031 0.05902 0.11395 0.0
C1540 C 0.01595 0.02674 0.10165 0.0
C1541 C 0.00955 0.02733 0.06526 0.0
C1542 C 0.99239 0.04283 0.05384 0.0
C1543 C 0.98293 0.05867 0.07802 0.0
C1544 C 0.0217 0.01283 0.0386 0.0
C1545 C 0.00884 0.99689 0.01851 0.0
C1546 C 0.04584 0.01472 0.03298 0.0
C1547 C 0.06022 0.03202 0.05218 0.0
C1548 C 0.05466 0.05566 0.05064 0.0
C1549 C 0.06824 0.07189 0.06876 0.0
C1550 C 0.08763 0.06471 0.08819 0.0
C1551 C 0.09348 0.04127 0.08949 0.0
C1552 C 0.07989 0.02496 0.07152 0.0
C1553 C 0.0586 0.96062 0.89527 0.0
C1554 C 0.07784 0.94669 0.90335 0.0
C1555 C 0.04758 0.97314 0.92235 0.0
C1556 C 0.05561 0.97196 0.95792 0.0
C1557 C 0.07555 0.95901 0.96564 0.0
C1558 C 0.08656 0.94643 0.93851 0.0
C1559 C 0.04361 0.98485 0.98678 0.0
C1560 C 0.05649 0.00055 0.00736 0.0
C1561 C 0.01949 0.98267 0.99284 0.0
C1562 C 0.00519 0.965 0.97423 0.0
C1563 C 0.01174 0.94161 0.97483 0.0
C1564 C 0.99799 0.92485 0.95826 0.0
C1565 C 0.97751 0.93129 0.94102 0.0
C1566 C 0.97077 0.9545 0.94037 0.0
C1567 C 0.9845 0.97131 0.95696 0.0
H1568 H 0.96682 0.91829 0.92829 0.0
H1569 H 0.09815 0.0773 0.10218 0.0
H1570 H 0.19183 0.73047 0.31494 0.0
H1571 H 0.22185 0.74558 0.27557 0.0
H1572 H 0.27392 0.71334 0.34208 0.0
H1573 H 0.24348 0.69832 0.38198 0.0
H1574 H 0.286 0.75563 0.32722 0.0
H1575 H 0.25819 0.69261 0.25812 0.0
H1576 H 0.23035 0.66751 0.22665 0.0
H1577 H 0.21295 0.72318 0.15512 0.0
H1578 H 0.23986 0.74897 0.18715 0.0
H1579 H 0.37657 0.77381 0.20144 0.0
H1580 H 0.34769 0.75821 0.2424 0.0
H1581 H 0.29401 0.79287 0.18231 0.0
H1582 H 0.32331 0.8086 0.14101 0.0
H1583 H 0.28381 0.74837 0.19429 0.0
H1584 H 0.31209 0.81145 0.26706 0.0
H1585 H 0.34235 0.83437 0.29727 0.0
H1586 H 0.36165 0.77521 0.36041 0.0
H1587 H 0.33191 0.75178 0.32997 0.0
C1588 C 0.20959 0.726 0.32049 0.0
C1589 C 0.21529 0.71268 0.35079 0.0
C1590 C 0.2268 0.73478 0.29814 0.0
C1591 C 0.25015 0.73021 0.30541 0.0
C1592 C 0.25598 0.71694 0.33583 0.0
C1593 C 0.23865 0.70832 0.3585 0.0
C1594 C 0.26836 0.74029 0.28209 0.0
C1595 C 0.28571 0.75374 0.29818 0.0
C1596 C 0.26771 0.73818 0.24411 0.0
C1597 C 0.25094 0.72284 0.22537 0.0
C1598 C 0.24816 0.69965 0.23608 0.0
C1599 C 0.23251 0.68528 0.21813 0.0
C1600 C 0.21981 0.69377 0.18902 0.0
C1601 C 0.2227 0.71666 0.17781 0.0
C1602 C 0.23807 0.73119 0.19597 0.0
C1603 C 0.35877 0.77886 0.19786 0.0
C1604 C 0.35227 0.79303 0.16892 0.0
C1605 C 0.3422 0.76973 0.22104 0.0
C1606 C 0.31873 0.77474 0.21586 0.0
C1607 C 0.31209 0.78897 0.18693 0.0
C1608 C 0.32877 0.79799 0.1635 0.0
C1609 C 0.30111 0.76395 0.23941 0.0
C1610 C 0.28396 0.75029 0.22333 0.0
C1611 C 0.30212 0.7656 0.27738 0.0
C1612 C 0.31985 0.77981 0.29602 0.0
C1613 C 0.3229 0.80328 0.28719 0.0
C1614 C 0.33998 0.81636 0.30434 0.0
C1615 C 0.35396 0.80623 0.33066 0.0
C1616 C 0.35085 0.78302 0.33995 0.0
C1617 C 0.33389 0.76983 0.32275 0.0
H1618 H 0.36718 0.81639 0.3439 0.0
H1619 H 0.20775 0.68261 0.17508 0.0
H1620 H 0.5163 0.03907 0.35208 0.0
H1621 H 0.53242 0.01261 0.3965 0.0
H1622 H 0.48771 0.0416 0.47794 0.0
H1623 H 0.47287 0.06945 0.43378 0.0
H1624 H 0.52827 0.03853 0.50369 0.0
H1625 H 0.48029 0.98114 0.44292 0.0
H1626 H 0.46527 0.9635 0.38709 0.0
H1627 H 0.53442 0.9463 0.35461 0.0
H1628 H 0.5498 0.96364 0.41041 0.0
H1629 H 0.55262 0.95324 0.6353 0.0
H1630 H 0.53274 0.9759 0.58904 0.0
H1631 H 0.58633 0.95896 0.51274 0.0
H1632 H 0.60646 0.93638 0.55929 0.0
H1633 H 0.5403 0.95442 0.4846 0.0
H1634 H 0.5879 0.0108 0.54576 0.0
H1635 H 0.60308 0.02856 0.60127 0.0
H1636 H 0.53432 0.0486 0.63186 0.0
H1637 H 0.51874 0.0309 0.57654 0.0
C1638 C 0.50951 0.03937 0.37926 0.0
C1639 C 0.49323 0.05605 0.38957 0.0
C1640 C 0.51865 0.02414 0.40468 0.0
C1641 C 0.51095 0.02466 0.44056 0.0
C1642 C 0.49389 0.04077 0.45045 0.0
C1643 C 0.48526 0.05651 0.42523 0.0
C1644 C 0.52199 0.00968 0.4682 0.0
C1645 C 0.53048 0.02009 0.49967 0.0
C1646 C 0.5255 0.98567 0.4628 0.0
C1647 C 0.51617 0.97365 0.43075 0.0
C1648 C 0.49225 0.97343 0.42396 0.0
C1649 C 0.48369 0.96357 0.3923 0.0
C1650 C 0.49892 0.95399 0.3672 0.0
C1651 C 0.52268 0.95385 0.37401 0.0
C1652 C 0.53131 0.96352 0.40576 0.0
C1653 C 0.56022 0.95445 0.60872 0.0
C1654 C 0.58094 0.94287 0.60061 0.0
C1655 C 0.5488 0.96728 0.58229 0.0
C1656 C 0.55801 0.96897 0.54743 0.0
C1657 C 0.57883 0.95764 0.53938 0.0
C1658 C 0.59028 0.9448 0.56588 0.0
C1659 C 0.5463 0.98335 0.51991 0.0
C1660 C 0.53783 0.97284 0.48854 0.0
C1661 C 0.54272 0.00727 0.52536 0.0
C1662 C 0.55215 0.01932 0.55729 0.0
C1663 C 0.57604 0.01903 0.56433 0.0
C1664 C 0.58471 0.02907 0.59572 0.0
C1665 C 0.56965 0.03949 0.62019 0.0
C1666 C 0.54595 0.04041 0.61294 0.0
C1667 C 0.5372 0.03046 0.58151 0.0
H1668 H 0.57636 0.04678 0.6448 0.0
H1669 H 0.49233 0.94655 0.34256 0.0
H1670 H 0.32638 0.27207 0.8846 0.0
H1671 H 0.30073 0.25516 0.83939 0.0
H1672 H 0.34055 0.2875 0.75498 0.0
H1673 H 0.36613 0.30475 0.80037 0.0
H1674 H 0.29133 0.28685 0.74292 0.0
H1675 H 0.35407 0.23625 0.77147 0.0
H1676 H 0.38026 0.21506 0.81217 0.0
H1677 H 0.32272 0.17671 0.85448 0.0
H1678 H 0.29611 0.19804 0.81451 0.0
H1679 H 0.24966 0.2135 0.60543 0.0
H1680 H 0.27716 0.23308 0.64488 0.0
H1681 H 0.2478 0.19796 0.73671 0.0
H1682 H 0.22077 0.17762 0.69702 0.0
H1683 H 0.29384 0.201 0.74207 0.0
H1684 H 0.2312 0.25198 0.71004 0.0
H1685 H 0.20618 0.2736 0.66805 0.0
H1686 H 0.26499 0.31175 0.62988 0.0
H1687 H 0.29041 0.29001 0.67112 0.0
C1688 C 0.32932 0.27604 0.85647 0.0
C1689 C 0.34847 0.28926 0.84569 0.0
C1690 C 0.31474 0.26631 0.83072 0.0
C1691 C 0.31907 0.26982 0.79397 0.0
C1692 C 0.33708 0.28452 0.78326 0.0
C1693 C 0.35174 0.29415 0.80904 0.0
C1694 C 0.30613 0.2564 0.76694 0.0
C1695 C 0.29203 0.2681 0.7423 0.0
C1696 C 0.30713 0.23198 0.76649 0.0
C1697 C 0.32308 0.2189 0.79026 0.0
C1698 C 0.34699 0.22343 0.78966 0.0
C1699 C 0.36191 0.21138 0.81255 0.0
C1700 C 0.35316 0.19457 0.83592 0.0
C1701 C 0.32947 0.18976 0.83639 0.0
C1702 C 0.31446 0.20182 0.81362 0.0
C1703 C 0.24927 0.2097 0.63397 0.0
C1704 C 0.23269 0.19452 0.64847 0.0
C1705 C 0.26491 0.221 0.65646 0.0
C1706 C 0.26406 0.21743 0.69377 0.0
C1707 C 0.24852 0.20116 0.70799 0.0
C1708 C 0.23298 0.18973 0.68545 0.0
C1709 C 0.27857 0.23137 0.71826 0.0
C1710 C 0.2931 0.21975 0.74246 0.0
C1711 C 0.27808 0.2559 0.71798 0.0
C1712 C 0.26272 0.26922 0.69353 0.0
C1713 C 0.23879 0.26492 0.69261 0.0
C1714 C 0.22454 0.27718 0.66894 0.0
C1715 C 0.23399 0.29403 0.64633 0.0
C1716 C 0.2577 0.29867 0.6474 0.0
C1717 C 0.27203 0.28637 0.67091 0.0
H1718 H 0.22293 0.3035 0.62801 0.0
H1719 H 0.36474 0.18525 0.85363 0.0
H1720 H 0.68998 0.23788 0.79771 0.0
H1721 H 0.71805 0.25362 0.75517 0.0
H1722 H 0.77304 0.21991 0.81349 0.0
H1723 H 0.74448 0.20273 0.85489 0.0
H1724 H 0.77908 0.26847 0.79897 0.0
H1725 H 0.75654 0.19868 0.7398 0.0
H1726 H 0.73112 0.17021 0.71059 0.0
H1727 H 0.71439 0.21942 0.62807 0.0
H1728 H 0.73872 0.24868 0.65779 0.0
H1729 H 0.87323 0.26792 0.67883 0.0
H1730 H 0.8405 0.2564 0.71606 0.0
H1731 H 0.79613 0.30185 0.65517 0.0
H1732 H 0.8298 0.31487 0.6194 0.0
H1733 H 0.78204 0.25086 0.66842 0.0
H1734 H 0.80398 0.32046 0.72613 0.0
H1735 H 0.83013 0.34906 0.75351 0.0
H1736 H 0.84782 0.30059 0.83661 0.0
H1737 H 0.82243 0.27134 0.80902 0.0
C1738 C 0.70792 0.23304 0.80051 0.0
C1739 C 0.71493 0.21825 0.82845 0.0
C1740 C 0.72396 0.24233 0.77657 0.0
C1741 C 0.7475 0.23752 0.78078 0.0
C1742 C 0.75482 0.22351 0.8096 0.0
C1743 C 0.73859 0.21381 0.83324 0.0
C1744 C 0.7645 0.24817 0.75612 0.0
C1745 C 0.77989 0.26446 0.77048 0.0
C1746 C 0.76471 0.24355 0.71864 0.0
C1747 C 0.74919 0.22615 0.70161 0.0
C1748 C 0.74701 0.20372 0.71598 0.0
C1749 C 0.73282 0.18737 0.69923 0.0
C1750 C 0.72106 0.19304 0.66759 0.0
C1751 C 0.7235 0.21505 0.6526 0.0
C1752 C 0.73735 0.23159 0.66958 0.0
C1753 C 0.85675 0.27622 0.67452 0.0
C1754 C 0.85429 0.29319 0.64784 0.0
C1755 C 0.83799 0.2693 0.69522 0.0
C1756 C 0.8161 0.27867 0.6888 0.0
C1757 C 0.81308 0.29473 0.66075 0.0
C1758 C 0.83219 0.30209 0.6404 0.0
C1759 C 0.79662 0.27091 0.71141 0.0
C1760 C 0.78087 0.2551 0.6968 0.0
C1761 C 0.79589 0.27605 0.74857 0.0
C1762 C 0.81152 0.29351 0.76506 0.0
C1763 C 0.81376 0.3157 0.74984 0.0
C1764 C 0.82842 0.33207 0.76548 0.0
C1765 C 0.84072 0.32661 0.79668 0.0
C1766 C 0.83832 0.30479 0.81238 0.0
C1767 C 0.82382 0.28828 0.79669 0.0
H1768 H 0.85205 0.33932 0.80878 0.0
H1769 H 0.71013 0.18034 0.65461 0.0
H1770 H 0.82983 0.78252 0.39531 0.0
H1771 H 0.79896 0.76926 0.35493 0.0
H1772 H 0.83543 0.79829 0.26419 0.0
H1773 H 0.86638 0.81131 0.30437 0.0
H1774 H 0.78434 0.80255 0.26282 0.0
H1775 H 0.84672 0.74732 0.27482 0.0
H1776 H 0.87423 0.72371 0.30981 0.0
H1777 H 0.81767 0.68915 0.36213 0.0
H1778 H 0.78981 0.7128 0.3277 0.0
H1779 H 0.7433 0.73651 0.11622 0.0
H1780 H 0.76857 0.7554 0.16 0.0
H1781 H 0.73908 0.71375 0.24487 0.0
H1782 H 0.71437 0.69419 0.20076 0.0
H1783 H 0.78486 0.71697 0.25183 0.0
H1784 H 0.72244 0.76964 0.23016 0.0
H1785 H 0.69632 0.79389 0.19356 0.0
H1786 H 0.75418 0.83419 0.15727 0.0
H1787 H 0.78064 0.80994 0.19315 0.0
C1788 C 0.83084 0.78667 0.36691 0.0
C1789 C 0.85046 0.79765 0.35267 0.0
C1790 C 0.81331 0.77905 0.34394 0.0
C1791 C 0.81513 0.78269 0.30669 0.0
C1792 C 0.83378 0.79538 0.29289 0.0
C1793 C 0.85145 0.80265 0.31574 0.0
C1794 C 0.79935 0.77077 0.28172 0.0
C1795 C 0.78443 0.78387 0.26016 0.0
C1796 C 0.79955 0.74642 0.27867 0.0
C1797 C 0.81621 0.73198 0.29904 0.0
C1798 C 0.84016 0.73481 0.29401 0.0
C1799 C 0.85581 0.72141 0.31368 0.0
C1800 C 0.8477 0.705 0.33828 0.0
C1801 C 0.82392 0.7019 0.34312 0.0
C1802 C 0.80819 0.71528 0.32352 0.0
C1803 C 0.74237 0.73124 0.14417 0.0
C1804 C 0.72657 0.71425 0.15542 0.0
C1805 C 0.75665 0.74218 0.16918 0.0
C1806 C 0.75527 0.73637 0.2058 0.0
C1807 C 0.74021 0.71868 0.21679 0.0
C1808 C 0.726 0.70768 0.19173 0.0
C1809 C 0.76958 0.74869 0.23266 0.0
C1810 C 0.78441 0.73564 0.25458 0.0
C1811 C 0.76941 0.77314 0.23567 0.0
C1812 C 0.75351 0.78785 0.2142 0.0
C1813 C 0.72957 0.7836 0.21423 0.0
C1814 C 0.71471 0.79734 0.19364 0.0
C1815 C 0.72358 0.81555 0.17311 0.0
C1816 C 0.74733 0.82007 0.17317 0.0
C1817 C 0.76226 0.80633 0.19365 0.0
H1818 H 0.71206 0.82618 0.15718 0.0
H1819 H 0.85984 0.69464 0.35351 0.0
H1820 H 0.47604 0.53429 0.61265 0.0
H1821 H 0.494 0.50764 0.56905 0.0
H1822 H 0.55296 0.55312 0.56057 0.0
H1823 H 0.53539 0.57918 0.6047 0.0
H1824 H 0.53208 0.54112 0.49378 0.0
H1825 H 0.56046 0.50505 0.60273 0.0
H1826 H 0.55606 0.48728 0.6627 0.0
H1827 H 0.51283 0.43432 0.61789 0.0
H1828 H 0.51686 0.45179 0.55757 0.0
H1829 H 0.60162 0.45564 0.39075 0.0
H1830 H 0.5928 0.48276 0.44009 0.0
H1831 H 0.52355 0.45526 0.44685 0.0
H1832 H 0.53254 0.42779 0.39894 0.0
H1833 H 0.55388 0.4593 0.51544 0.0
H1834 H 0.50806 0.5213 0.42959 0.0
H1835 H 0.5079 0.5381 0.36844 0.0
H1836 H 0.58218 0.53857 0.3677 0.0
H1837 H 0.58266 0.52197 0.42893 0.0
C1838 C 0.49287 0.53837 0.60149 0.0
C1839 C 0.5041 0.55902 0.61063 0.0
C1840 C 0.50311 0.52323 0.57683 0.0
C1841 C 0.52469 0.52862 0.56151 0.0
C1842 C 0.53621 0.54883 0.57186 0.0
C1843 C 0.52609 0.56378 0.5966 0.0
C1844 C 0.5348 0.51392 0.53323 0.0
C1845 C 0.53729 0.52339 0.49868 0.0
C1846 C 0.54103 0.49064 0.53961 0.0
C1847 C 0.5388 0.47987 0.5757 0.0
C1848 C 0.5499 0.48969 0.60568 0.0
C1849 C 0.54752 0.47962 0.63971 0.0
C1850 C 0.53415 0.45968 0.64407 0.0
C1851 C 0.5232 0.44972 0.61439 0.0
C1852 C 0.52557 0.45967 0.58027 0.0
C1853 C 0.58449 0.45576 0.40258 0.0
C1854 C 0.56769 0.43986 0.39137 0.0
C1855 C 0.57946 0.47116 0.43054 0.0
C1856 C 0.55742 0.47114 0.4465 0.0
C1857 C 0.54058 0.45555 0.43465 0.0
C1858 C 0.54572 0.43997 0.40738 0.0
C1859 C 0.55169 0.48677 0.47635 0.0
C1860 C 0.54942 0.47731 0.51096 0.0
C1861 C 0.54547 0.51 0.47007 0.0
C1862 C 0.54541 0.52007 0.43346 0.0
C1863 C 0.52434 0.52495 0.41627 0.0
C1864 C 0.52418 0.53442 0.38162 0.0
C1865 C 0.54502 0.53922 0.36406 0.0
C1866 C 0.56604 0.53462 0.38117 0.0
C1867 C 0.56626 0.52512 0.41578 0.0
H1868 H 0.54488 0.54666 0.33732 0.0
H1869 H 0.53229 0.45193 0.67044 0.0
H1870 H 0.03397 0.55986 0.89703 0.0
H1871 H 0.04616 0.52862 0.93686 0.0
H1872 H 0.97608 0.50304 0.94096 0.0
H1873 H 0.96382 0.53439 0.89981 0.0
H1874 H 0.00053 0.51331 0.01082 0.0
H1875 H 0.00816 0.46887 0.90506 0.0
H1876 H 0.01885 0.45981 0.84251 0.0
H1877 H 0.09063 0.46913 0.86801 0.0
H1878 H 0.0804 0.47897 0.9305 0.0
H1879 H 0.05699 0.43059 0.12835 0.0
H1880 H 0.03144 0.45018 0.08564 0.0
H1881 H 0.09106 0.47336 0.02542 0.0
H1882 H 0.11631 0.45193 0.0663 0.0
H1883 H 0.06303 0.45782 0.98206 0.0
H1884 H 0.04491 0.52436 0.07123 0.0
H1885 H 0.03228 0.53879 0.13069 0.0
H1886 H 0.98025 0.48594 0.13581 0.0
H1887 H 0.99188 0.47194 0.07567 0.0
C1888 C 0.02126 0.5473 0.90591 0.0
C1889 C 0.99804 0.54932 0.89558 0.0
C1890 C 0.02822 0.52948 0.9285 0.0
C1891 C 0.01203 0.51353 0.94155 0.0
C1892 C 0.98878 0.51519 0.93083 0.0
C1893 C 0.98184 0.53291 0.9074 0.0
C1894 C 0.01973 0.49658 0.96863 0.0
C1895 C 0.01357 0.50041 0.00457 0.0
C1896 C 0.03712 0.48033 0.96033 0.0
C1897 C 0.04345 0.47483 0.92253 0.0
C1898 C 0.02621 0.4693 0.89727 0.0
C1899 C 0.0322 0.46395 0.86181 0.0
C1900 C 0.05539 0.46387 0.85128 0.0
C1901 C 0.07266 0.4692 0.87619 0.0
C1902 C 0.06677 0.47469 0.91166 0.0
C1903 C 0.06451 0.44027 0.10627 0.0
C1904 C 0.08852 0.44009 0.10058 0.0
C1905 C 0.04992 0.45173 0.0821 0.0
C1906 C 0.0592 0.46387 0.05264 0.0
C1907 C 0.08336 0.46417 0.04786 0.0
C1908 C 0.09784 0.45207 0.07124 0.0
C1909 C 0.04406 0.47439 0.02468 0.0
C1910 C 0.04912 0.46961 0.98847 0.0
C1911 C 0.02555 0.48957 0.03272 0.0
C1912 C 0.01974 0.49667 0.06973 0.0
C1913 C 0.03101 0.51565 0.08536 0.0
C1914 C 0.0239 0.52388 0.11896 0.0
C1915 C 0.0058 0.51302 0.13731 0.0
C1916 C 0.99444 0.49418 0.12177 0.0
C1917 C 0.00116 0.48621 0.08784 0.0
H1918 H 0.00041 0.51936 0.16339 0.0
H1919 H 0.05998 0.45964 0.82383 0.0
H1920 H 0.06167 0.06062 0.2555 0.0
H1921 H 0.08897 0.06539 0.30533 0.0
H1922 H 0.07076 0.1376 0.31271 0.0
H1923 H 0.04393 0.13314 0.26277 0.0
H1924 H 0.11558 0.13216 0.32519 0.0
H1925 H 0.04408 0.09806 0.36542 0.0
H1926 H 0.01294 0.06891 0.36525 0.0
H1927 H 0.06209 0.01582 0.39154 0.0
H1928 H 0.09359 0.04467 0.39138 0.0
H1929 H 0.11071 0.1399 0.52817 0.0
H1930 H 0.0951 0.12297 0.47332 0.0
H1931 H 0.16413 0.11594 0.43056 0.0
H1932 H 0.17993 0.13337 0.48519 0.0
H1933 H 0.098 0.08494 0.43347 0.0
H1934 H 0.16286 0.13364 0.34291 0.0
H1935 H 0.18874 0.16757 0.34565 0.0
H1936 H 0.14458 0.199 0.42463 0.0
H1937 H 0.11831 0.16542 0.42196 0.0
C1938 C 0.06382 0.0776 0.2673 0.0
C1939 C 0.05042 0.09642 0.2555 0.0
C1940 C 0.07937 0.08028 0.29581 0.0
C1941 C 0.08163 0.10177 0.31302 0.0
C1942 C 0.0693 0.12086 0.29983 0.0
C1943 C 0.05385 0.11823 0.27135 0.0
C1944 C 0.09517 0.10418 0.34665 0.0
C1945 C 0.11201 0.12158 0.3487 0.0
C1946 C 0.0901 0.09077 0.37757 0.0
C1947 C 0.07121 0.07344 0.37796 0.0
C1948 C 0.04826 0.08014 0.37091 0.0
C1949 C 0.03055 0.06368 0.37091 0.0
C1950 C 0.03554 0.04051 0.37827 0.0
C1951 C 0.05826 0.03377 0.38576 0.0
C1952 C 0.07605 0.05016 0.38573 0.0
C1953 C 0.12265 0.13429 0.50749 0.0
C1954 C 0.14653 0.1384 0.51075 0.0
C1955 C 0.11369 0.12452 0.47615 0.0
C1956 C 0.12843 0.11863 0.4476 0.0
C1957 C 0.15244 0.12075 0.45208 0.0
C1958 C 0.16143 0.13066 0.48336 0.0
C1959 C 0.11839 0.11293 0.41202 0.0
C1960 C 0.10212 0.095 0.40965 0.0
C1961 C 0.12332 0.12647 0.38115 0.0
C1962 C 0.13883 0.14689 0.38257 0.0
C1963 C 0.15867 0.14783 0.36078 0.0
C1964 C 0.1734 0.16699 0.36232 0.0
C1965 C 0.16836 0.18539 0.38541 0.0
C1966 C 0.14852 0.18471 0.40687 0.0
C1967 C 0.13372 0.16561 0.40537 0.0
H1968 H 0.1798 0.20019 0.3866 0.0
H1969 H 0.02181 0.02779 0.37826 0.0
H1970 H 0.21014 0.78355 0.49579 0.0
H1971 H 0.20015 0.8149 0.53749 0.0
H1972 H 0.13139 0.78677 0.54879 0.0
H1973 H 0.14096 0.75589 0.50711 0.0
H1974 H 0.13043 0.83316 0.54135 0.0
H1975 H 0.17361 0.77593 0.61082 0.0
H1976 H 0.20817 0.75259 0.62482 0.0
H1977 H 0.24847 0.81452 0.63652 0.0
H1978 H 0.21416 0.83821 0.62215 0.0
H1979 H 0.0795 0.8509 0.70682 0.0
H1980 H 0.09919 0.83715 0.65338 0.0
H1981 H 0.15672 0.88249 0.67545 0.0
H1982 H 0.13693 0.89647 0.72993 0.0
H1983 H 0.17039 0.8382 0.65919 0.0
H1984 H 0.1212 0.89444 0.60707 0.0
H1985 H 0.08508 0.91573 0.5952 0.0
H1986 H 0.05445 0.85445 0.55081 0.0
H1987 H 0.08999 0.83253 0.5636 0.0
C1988 C 0.19286 0.78418 0.50701 0.0
C1989 C 0.1764 0.76715 0.49832 0.0
C1990 C 0.18721 0.80206 0.53085 0.0
C1991 C 0.16507 0.80309 0.54633 0.0
C1992 C 0.14856 0.78636 0.53708 0.0
C1993 C 0.15413 0.76861 0.51335 0.0
C1994 C 0.1589 0.82087 0.57331 0.0
C1995 C 0.13914 0.83437 0.56713 0.0
C1996 C 0.17086 0.82303 0.60634 0.0
C1997 C 0.19144 0.8088 0.61493 0.0
C1998 C 0.18989 0.78455 0.61607 0.0
C1999 C 0.20942 0.77126 0.62414 0.0
C2000 C 0.23053 0.78206 0.63142 0.0
C2001 C 0.23213 0.80618 0.63077 0.0
C2002 C 0.21265 0.81954 0.62267 0.0
C2003 C 0.0963 0.85813 0.70043 0.0
C2004 C 0.10666 0.87481 0.72269 0.0
C2005 C 0.10747 0.85034 0.66959 0.0
C2006 C 0.12922 0.8591 0.66005 0.0
C2007 C 0.13981 0.8757 0.68221 0.0
C2008 C 0.12852 0.88364 0.71325 0.0
C2009 C 0.14109 0.84956 0.628 0.0
C2010 C 0.162 0.83766 0.63309 0.0
C2011 C 0.12996 0.84864 0.59407 0.0
C2012 C 0.10835 0.86177 0.58652 0.0
C2013 C 0.10668 0.8854 0.59518 0.0
C2014 C 0.08626 0.89759 0.58832 0.0
C2015 C 0.06743 0.88642 0.57244 0.0
C2016 C 0.06899 0.86305 0.56334 0.0
C2017 C 0.08928 0.85073 0.57041 0.0
H2018 H 0.05165 0.8959 0.56709 0.0
H2019 H 0.24563 0.77175 0.63767 0.0
H2020 H 0.42878 0.85496 0.02027 0.0
H2021 H 0.45527 0.8709 0.97551 0.0
H2022 H 0.41564 0.83894 0.89075 0.0
H2023 H 0.38915 0.82271 0.93537 0.0
H2024 H 0.46103 0.82867 0.88546 0.0
H2025 H 0.41573 0.89743 0.90126 0.0
H2026 H 0.3967 0.92851 0.93564 0.0
H2027 H 0.4625 0.95037 0.97701 0.0
H2028 H 0.4819 0.9192 0.94324 0.0
H2029 H 0.52422 0.87918 0.74159 0.0
H2030 H 0.49367 0.86745 0.78325 0.0
H2031 H 0.52985 0.9007 0.87053 0.0
H2032 H 0.56025 0.91289 0.82892 0.0
H2033 H 0.48502 0.91068 0.87304 0.0
H2034 H 0.52845 0.83819 0.86938 0.0
H2035 H 0.54883 0.80646 0.83807 0.0
H2036 H 0.48769 0.79199 0.77651 0.0
H2037 H 0.46702 0.82356 0.80759 0.0
C2038 C 0.42535 0.85175 0.99207 0.0
C2039 C 0.40686 0.83749 0.98142 0.0
C2040 C 0.44053 0.86089 0.96649 0.0
C2041 C 0.43741 0.85613 0.92979 0.0
C2042 C 0.41838 0.84279 0.91896 0.0
C2043 C 0.40318 0.83364 0.94451 0.0
C2044 C 0.4549 0.86366 0.90306 0.0
C2045 C 0.46596 0.84667 0.88231 0.0
C2046 C 0.46187 0.88703 0.89973 0.0
C2047 C 0.45025 0.90585 0.91994 0.0
C2048 C 0.42613 0.90875 0.9179 0.0
C2049 C 0.41528 0.92641 0.93724 0.0
C2050 C 0.42838 0.94137 0.95856 0.0
C2051 C 0.45237 0.93875 0.9605 0.0
C2052 C 0.46331 0.92111 0.94123 0.0
C2053 C 0.52562 0.88412 0.7696 0.0
C2054 C 0.54465 0.89704 0.7819 0.0
C2055 C 0.50825 0.87719 0.79348 0.0
C2056 C 0.50963 0.8829 0.83014 0.0
C2057 C 0.52843 0.89607 0.84237 0.0
C2058 C 0.5458 0.90303 0.81853 0.0
C2059 C 0.49114 0.8757 0.85554 0.0
C2060 C 0.47995 0.89272 0.87608 0.0
C2061 C 0.48414 0.85236 0.85898 0.0
C2062 C 0.49639 0.8334 0.84029 0.0
C2063 C 0.51949 0.82834 0.8489 0.0
C2064 C 0.53104 0.81035 0.83133 0.0
C2065 C 0.51962 0.79731 0.80517 0.0
C2066 C 0.49655 0.80211 0.79672 0.0
C2067 C 0.48489 0.82 0.81438 0.0
H2068 H 0.5286 0.7834 0.79161 0.0
H2069 H 0.41994 0.95503 0.97352 0.0
H2070 H 0.42986 0.10373 0.21473 0.0
H2071 H 0.41286 0.12762 0.16751 0.0
H2072 H 0.39477 0.17938 0.24603 0.0
H2073 H 0.41167 0.15556 0.29363 0.0
H2074 H 0.36289 0.176 0.18633 0.0
H2075 H 0.44388 0.18402 0.21181 0.0
H2076 H 0.48295 0.16848 0.22234 0.0
H2077 H 0.48501 0.14223 0.11442 0.0
H2078 H 0.44549 0.15684 0.10362 0.0
H2079 H 0.37051 0.27682 0.07637 0.0
H2080 H 0.37463 0.24782 0.12377 0.0
H2081 H 0.40014 0.1987 0.04604 0.0
H2082 H 0.39634 0.22769 0.99845 0.0
H2083 H 0.42692 0.19993 0.10532 0.0
H2084 H 0.34576 0.19374 0.07997 0.0
H2085 H 0.30605 0.20829 0.07149 0.0
H2086 H 0.30502 0.2329 0.18044 0.0
H2087 H 0.34488 0.21877 0.18943 0.0
C2088 C 0.42161 0.11984 0.22221 0.0
C2089 C 0.4226 0.128 0.25781 0.0
C2090 C 0.41188 0.13345 0.19517 0.0
C2091 C 0.40305 0.15543 0.20328 0.0
C2092 C 0.40161 0.16249 0.23929 0.0
C2093 C 0.41135 0.14885 0.26644 0.0
C2094 C 0.39907 0.17231 0.17402 0.0
C2095 C 0.37688 0.18145 0.16879 0.0
C2096 C 0.41741 0.17924 0.15115 0.0
C2097 C 0.44154 0.17122 0.15707 0.0
C2098 C 0.45251 0.17467 0.19045 0.0
C2099 C 0.47473 0.16599 0.19651 0.0
C2100 C 0.48641 0.15427 0.16915 0.0
C2101 C 0.47588 0.15121 0.13565 0.0
C2102 C 0.45354 0.15965 0.12956 0.0
C2103 C 0.3768 0.25978 0.06924 0.0
C2104 C 0.38298 0.25453 0.03357 0.0
C2105 C 0.37908 0.24321 0.09639 0.0
C2106 C 0.38745 0.22102 0.08836 0.0
C2107 C 0.39357 0.2157 0.05277 0.0
C2108 C 0.3913 0.23226 0.0256 0.0
C2109 C 0.39066 0.20366 0.11732 0.0
C2110 C 0.41287 0.19451 0.12273 0.0
C2111 C 0.37239 0.19698 0.14054 0.0
C2112 C 0.34838 0.20538 0.13527 0.0
C2113 C 0.33714 0.20241 0.10204 0.0
C2114 C 0.31459 0.21055 0.09715 0.0
C2115 C 0.30304 0.22156 0.12538 0.0
C2116 C 0.314 0.22439 0.15859 0.0
C2117 C 0.33656 0.21629 0.16361 0.0
H2118 H 0.28558 0.22785 0.12154 0.0
H2119 H 0.50371 0.14779 0.17379 0.0
H2120 H 0.96601 0.86429 0.47025 0.0
H2121 H 0.98227 0.8812 0.52494 0.0
H2122 H 0.91478 0.88073 0.57434 0.0
H2123 H 0.89835 0.86348 0.51985 0.0
H2124 H 0.94185 0.92176 0.58839 0.0
H2125 H 0.9471 0.83838 0.5947 0.0
H2126 H 0.95815 0.79869 0.57744 0.0
H2127 H 0.02968 0.81864 0.57472 0.0
H2128 H 0.01902 0.85848 0.5918 0.0
H2129 H 0.00996 0.89209 0.76628 0.0
H2130 H 0.98273 0.88405 0.71775 0.0
H2131 H 0.00869 0.94271 0.65837 0.0
H2132 H 0.03595 0.95102 0.70694 0.0
H2133 H 0.99871 0.87229 0.65224 0.0
H2134 H 0.96507 0.96047 0.59935 0.0
H2135 H 0.95357 0.99853 0.62333 0.0
H2136 H 0.93689 0.96741 0.72505 0.0
H2137 H 0.94795 0.92913 0.70155 0.0
C2138 C 0.9545 0.86828 0.49239 0.0
C2139 C 0.9309 0.86248 0.49081 0.0
C2140 C 0.96386 0.8778 0.52368 0.0
C2141 C 0.94974 0.88194 0.55369 0.0
C2142 C 0.92593 0.87759 0.55141 0.0
C2143 C 0.91659 0.86776 0.5203 0.0
C2144 C 0.96011 0.88929 0.58816 0.0
C2145 C 0.95431 0.91101 0.60242 0.0
C2146 C 0.97605 0.87504 0.60663 0.0
C2147 C 0.98224 0.85148 0.59407 0.0
C2148 C 0.96514 0.8344 0.5899 0.0
C2149 C 0.97135 0.81183 0.58044 0.0
C2150 C 0.99461 0.80615 0.57516 0.0
C2151 C 0.01169 0.82306 0.57893 0.0
C2152 C 0.00557 0.84561 0.58849 0.0
C2153 C 0.00952 0.90365 0.74333 0.0
C2154 C 0.02535 0.92201 0.74023 0.0
C2155 C 0.99394 0.89901 0.71562 0.0
C2156 C 0.99378 0.91272 0.68445 0.0
C2157 C 0.00841 0.93203 0.68235 0.0
C2158 C 0.02405 0.93669 0.71008 0.0
C2159 C 0.98078 0.90492 0.65239 0.0
C2160 C 0.98621 0.8831 0.63838 0.0
C2161 C 0.96447 0.91903 0.63443 0.0
C2162 C 0.95756 0.94195 0.64875 0.0
C2163 C 0.95886 0.96173 0.62679 0.0
C2164 C 0.95243 0.98335 0.64031 0.0
C2165 C 0.94457 0.9854 0.67573 0.0
C2166 C 0.94307 0.96582 0.69767 0.0
C2167 C 0.94946 0.94416 0.68428 0.0
H2168 H 0.93961 0.00215 0.68614 0.0
H2169 H -0.00058 0.78867 0.56799 0.0
H2170 H 0.87004 0.24246 0.4814 0.0
H2171 H 0.8798 0.20983 0.44308 0.0
H2172 H 0.94255 0.19887 0.50365 0.0
H2173 H 0.93318 0.23215 0.54159 0.0
H2174 H 0.95236 0.19839 0.43661 0.0
H2175 H 0.89574 0.15966 0.50569 0.0
H2176 H 0.85843 0.15314 0.53619 0.0
H2177 H 0.82331 0.15502 0.43446 0.0
H2178 H 0.86038 0.1619 0.40335 0.0
H2179 H 0.97736 0.09764 0.33564 0.0
H2180 H 0.96269 0.11876 0.38774 0.0
H2181 H 0.91334 0.15392 0.32017 0.0
H2182 H 0.92818 0.13314 0.2675 0.0
H2183 H 0.89777 0.13753 0.39615 0.0
H2184 H 0.95514 0.18507 0.33147 0.0
H2185 H 0.99316 0.18982 0.30202 0.0
H2186 H 0.0272 0.16817 0.39908 0.0
H2187 H 0.98932 0.16294 0.4288 0.0
C2188 C 0.88574 0.23292 0.48702 0.0
C2189 C 0.90083 0.23996 0.51457 0.0
C2190 C 0.89124 0.21408 0.46517 0.0
C2191 C 0.91178 0.20161 0.47067 0.0
C2192 C 0.92655 0.20814 0.49893 0.0
C2193 C 0.92112 0.22712 0.52071 0.0
C2194 C 0.9187 0.18322 0.44481 0.0
C2195 C 0.94052 0.18489 0.42837 0.0
C2196 C 0.90325 0.16556 0.43365 0.0
C2197 C 0.88086 0.16147 0.4522 0.0
C2198 C 0.88005 0.15888 0.48983 0.0
C2199 C 0.85894 0.15508 0.50723 0.0
C2200 C 0.83851 0.15371 0.48728 0.0
C2201 C 0.83915 0.1561 0.44988 0.0
C2202 C 0.86022 0.15991 0.43234 0.0
C2203 C 0.96303 0.10946 0.33187 0.0
C2204 C 0.95403 0.11384 0.29735 0.0
C2205 C 0.95469 0.1215 0.36171 0.0
C2206 C 0.93702 0.13788 0.35766 0.0
C2207 C 0.92694 0.14123 0.32374 0.0
C2208 C 0.93548 0.12941 0.29371 0.0
C2209 C 0.931 0.15335 0.38787 0.0
C2210 C 0.90951 0.15103 0.40493 0.0
C2211 C 0.94676 0.17028 0.39996 0.0
C2212 C 0.96949 0.17364 0.38231 0.0
C2213 C 0.97076 0.18126 0.34643 0.0
C2214 C 0.99226 0.18402 0.3297 0.0
C2215 C 0.01259 0.1793 0.34867 0.0
C2216 C 0.01145 0.17183 0.38442 0.0
C2217 C 0.98998 0.16899 0.40122 0.0
H2218 H 0.02921 0.18142 0.33567 0.0
H2219 H 0.82218 0.15077 0.5008 0.0
H2220 H 0.61382 0.14072 0.96058 0.0
H2221 H 0.59628 0.13224 0.01884 0.0
H2222 H 0.66332 0.13546 0.06935 0.0
H2223 H 0.68106 0.14496 0.01104 0.0
H2224 H 0.63223 0.09631 0.09016 0.0
H2225 H 0.63637 0.17716 0.07895 0.0
H2226 H 0.63204 0.21658 0.05524 0.0
H2227 H 0.5582 0.21069 0.0621 0.0
H2228 H 0.56194 0.17054 0.08361 0.0
H2229 H 0.57783 0.10028 0.26561 0.0
H2230 H 0.60366 0.10907 0.21497 0.0
H2231 H 0.54455 0.1176 0.14546 0.0
H2232 H 0.51876 0.10859 0.19546 0.0
H2233 H 0.57703 0.15359 0.14015 0.0
H2234 H 0.57499 0.06944 0.14091 0.0
H2235 H 0.58044 0.03115 0.16897 0.0
H2236 H 0.65218 0.04646 0.1871 0.0
H2237 H 0.64706 0.08498 0.15954 0.0
C2238 C 0.62497 0.13917 0.98387 0.0
C2239 C 0.64887 0.14346 0.98123 0.0
C2240 C 0.61485 0.13455 0.01719 0.0
C2241 C 0.62849 0.13356 0.04831 0.0
C2242 C 0.65255 0.13631 0.04554 0.0
C2243 C 0.66264 0.14161 0.01229 0.0
C2244 C 0.61731 0.13017 0.08369 0.0
C2245 C 0.62044 0.10898 0.10141 0.0
C2246 C 0.60192 0.14682 0.09815 0.0
C2247 C 0.59947 0.17048 0.08253 0.0
C2248 C 0.61915 0.18387 0.07439 0.0
C2249 C 0.6168 0.20645 0.06141 0.0
C2250 C 0.59487 0.21622 0.05748 0.0
C2251 C 0.5752 0.20316 0.06547 0.0
C2252 C 0.57743 0.18038 0.07773 0.0
C2253 C 0.57037 0.10388 0.23948 0.0
C2254 C 0.54624 0.10367 0.23455 0.0
C2255 C 0.58513 0.10892 0.21063 0.0
C2256 C 0.57598 0.11397 0.17652 0.0
C2257 C 0.55194 0.11381 0.1716 0.0
C2258 C 0.53724 0.10854 0.20022 0.0
C2259 C 0.59125 0.11942 0.14563 0.0
C2260 C 0.58894 0.14105 0.12885 0.0
C2261 C 0.60751 0.10334 0.13216 0.0
C2262 C 0.61058 0.08017 0.14857 0.0
C2263 C 0.59187 0.06471 0.15116 0.0
C2264 C 0.59491 0.04296 0.16691 0.0
C2265 C 0.61662 0.0364 0.17991 0.0
C2266 C 0.63536 0.05157 0.17708 0.0
C2267 C 0.63241 0.07336 0.16139 0.0
H2268 H 0.61894 0.01955 0.1921 0.0
H2269 H 0.59311 0.23382 0.04795 0.0
H2270 H 0.66135 0.8443 0.72447 0.0
H2271 H 0.67608 0.82631 0.77939 0.0
H2272 H 0.64752 0.88197 0.8424 0.0
H2273 H 0.63281 0.90019 0.78769 0.0
H2274 H 0.70332 0.83663 0.83857 0.0
H2275 H 0.61772 0.857 0.91153 0.0
H2276 H 0.5778 0.86819 0.89532 0.0
H2277 H 0.58405 0.83193 0.79506 0.0
H2278 H 0.62371 0.82017 0.81099 0.0
H2279 H 0.71111 0.79249 0.01824 0.0
H2280 H 0.70434 0.81852 0.96718 0.0
H2281 H 0.65438 0.7706 0.92401 0.0
H2282 H 0.6608 0.74473 0.97485 0.0
H2283 H 0.6386 0.81373 0.91897 0.0
H2284 H 0.70884 0.77322 0.8902 0.0
H2285 H 0.74875 0.75967 0.90034 0.0
H2286 H 0.77255 0.82995 0.90498 0.0
H2287 H 0.73269 0.84393 0.89533 0.0
C2288 C 0.65872 0.85307 0.74988 0.0
C2289 C 0.64556 0.8735 0.75171 0.0
C2290 C 0.6672 0.84276 0.78126 0.0
C2291 C 0.66246 0.85256 0.81497 0.0
C2292 C 0.65109 0.87398 0.81663 0.0
C2293 C 0.64272 0.88438 0.78528 0.0
C2294 C 0.66668 0.83898 0.84821 0.0
C2295 C 0.68925 0.83182 0.8564 0.0
C2296 C 0.64819 0.83221 0.87092 0.0
C2297 C 0.62381 0.83799 0.86223 0.0
C2298 C 0.61049 0.85128 0.88617 0.0
C2299 C 0.58793 0.85775 0.87701 0.0
C2300 C 0.57852 0.85095 0.84404 0.0
C2301 C 0.59144 0.83732 0.82045 0.0
C2302 C 0.61393 0.83072 0.82956 0.0
C2303 C 0.69863 0.78755 0.99792 0.0
C2304 C 0.68661 0.76646 1.00054 0.0
C2305 C 0.69483 0.80241 0.96872 0.0
C2306 C 0.67898 0.79643 0.94162 0.0
C2307 C 0.66667 0.7756 0.94459 0.0
C2308 C 0.67047 0.76076 0.97363 0.0
C2309 C 0.67537 0.81153 0.90974 0.0
C2310 C 0.65281 0.81889 0.90164 0.0
C2311 C 0.6938 0.81797 0.88667 0.0
C2312 C 0.71776 0.80962 0.89247 0.0
C2313 C 0.72255 0.78579 0.89369 0.0
C2314 C 0.74517 0.77803 0.89929 0.0
C2315 C 0.76317 0.79394 0.90341 0.0
C2316 C 0.75859 0.81765 0.90185 0.0
C2317 C 0.73599 0.8255 0.8963 0.0
H2318 H 0.78067 0.7879 0.90773 0.0
H2319 H 0.56121 0.85618 0.83676 0.0
H2320 H 0.59061 0.60256 0.73317 0.0
H2321 H 0.61387 0.60726 0.78787 0.0
H2322 H 0.55534 0.58703 0.85256 0.0
H2323 H 0.53213 0.58196 0.79845 0.0
H2324 H 0.57475 0.63234 0.86648 0.0
H2325 H 0.59765 0.5525 0.85217 0.0
H2326 H 0.61429 0.51952 0.8191 0.0
H2327 H 0.67907 0.55541 0.81 0.0
H2328 H 0.6627 0.58877 0.84257 0.0
H2329 H 0.61875 0.64084 0.03993 0.0
H2330 H 0.60212 0.6226 0.98673 0.0
H2331 H 0.66586 0.63359 0.92883 0.0
H2332 H 0.68277 0.65178 0.98205 0.0
H2333 H 0.6454 0.59244 0.91001 0.0
H2334 H 0.62505 0.67161 0.92034 0.0
H2335 H 0.61002 0.7076 0.94698 0.0
H2336 H 0.54265 0.67699 0.95677 0.0
H2337 H 0.5574 0.64056 0.93098 0.0
C2338 C 0.58287 0.59856 0.75898 0.0
C2339 C 0.55945 0.59212 0.76145 0.0
C2340 C 0.59619 0.60121 0.79016 0.0
C2341 C 0.58622 0.59757 0.82412 0.0
C2342 C 0.56328 0.58992 0.82653 0.0
C2343 C 0.55007 0.58702 0.7955 0.0
C2344 C 0.59859 0.6044 0.85722 0.0
C2345 C 0.58996 0.62337 0.87642 0.0
C2346 C 0.619 0.5933 0.86898 0.0
C2347 C 0.62887 0.57324 0.84948 0.0
C2348 C 0.61537 0.55346 0.8428 0.0
C2349 C 0.62477 0.53468 0.82422 0.0
C2350 C 0.6477 0.5354 0.81236 0.0
C2351 C 0.6613 0.55489 0.81915 0.0
C2352 C 0.65197 0.57373 0.83771 0.0
C2353 C 0.62947 0.6389 0.01621 0.0
C2354 C 0.65199 0.64806 0.01508 0.0
C2355 C 0.61988 0.62855 0.98577 0.0
C2356 C 0.63262 0.62717 0.95368 0.0
C2357 C 0.65572 0.6346 0.9533 0.0
C2358 C 0.66532 0.64503 0.98373 0.0
C2359 C 0.62114 0.62001 0.91988 0.0
C2360 C 0.63005 0.60124 0.90032 0.0
C2361 C 0.60119 0.63164 0.90719 0.0
C2362 C 0.59242 0.65322 0.9241 0.0
C2363 C 0.60711 0.6724 0.92866 0.0
C2364 C 0.59862 0.69293 0.94349 0.0
C2365 C 0.57538 0.6946 0.95346 0.0
C2366 C 0.56063 0.67568 0.94892 0.0
C2367 C 0.56907 0.65506 0.9343 0.0
H2368 H 0.5688 0.71054 0.96477 0.0
H2369 H 0.65495 0.52083 0.79798 0.0
H2370 H 0.6273 0.38581 0.21462 0.0
H2371 H 0.64837 0.36499 0.16704 0.0
H2372 H 0.58768 0.32384 0.14579 0.0
H2373 H 0.56668 0.34432 0.19245 0.0
H2374 H 0.62783 0.29796 0.15765 0.0
H2375 H 0.60154 0.3644 0.08891 0.0
H2376 H 0.59872 0.4061 0.07562 0.0
H2377 H 0.67262 0.41023 0.06587 0.0
H2378 H 0.67589 0.36857 0.0796 0.0
H2379 H 0.63703 0.24106 0.99225 0.0
H2380 H 0.62553 0.26717 0.04049 0.0
H2381 H 0.69311 0.29877 0.03868 0.0
H2382 H 0.70497 0.27243 0.99038 0.0
H2383 H 0.65676 0.33088 0.04281 0.0
H2384 H 0.68231 0.26292 0.10183 0.0
H2385 H 0.68576 0.22177 0.1182 0.0
H2386 H 0.61431 0.22042 0.14961 0.0
H2387 H 0.61015 0.26135 0.1322 0.0
C2388 C 0.61845 0.37248 0.19949 0.0
C2389 C 0.59536 0.36668 0.20737 0.0
C2390 C 0.63047 0.36066 0.17238 0.0
C2391 C 0.61954 0.34286 0.15311 0.0
C2392 C 0.59642 0.33745 0.1605 0.0
C2393 C 0.58443 0.34928 0.18717 0.0
C2394 C 0.6321 0.32889 0.12617 0.0
C2395 C 0.63405 0.30506 0.13239 0.0
C2396 C 0.64095 0.33846 0.09399 0.0
C2397 C 0.63898 0.36346 0.08576 0.0
C2398 C 0.6172 0.37425 0.0843 0.0
C2399 C 0.61552 0.39786 0.0766 0.0
C2400 C 0.63548 0.41082 0.07004 0.0
C2401 C 0.65717 0.40018 0.07105 0.0
C2402 C 0.65895 0.37657 0.07877 0.0
C2403 C 0.64947 0.2536 0.00192 0.0
C2404 C 0.672 0.25457 0.98765 0.0
C2405 C 0.64288 0.26845 0.02961 0.0
C2406 C 0.65859 0.28465 0.04342 0.0
C2407 C 0.68082 0.28626 0.02845 0.0
C2408 C 0.68754 0.27121 0.00093 0.0
C2409 C 0.65162 0.29971 0.07367 0.0
C2410 C 0.65082 0.32373 0.06819 0.0
C2411 C 0.64379 0.29029 0.10667 0.0
C2412 C 0.64588 0.26526 0.11538 0.0
C2413 C 0.66721 0.25379 0.11163 0.0
C2414 C 0.66931 0.23049 0.12122 0.0
C2415 C 0.6503 0.21852 0.13508 0.0
C2416 C 0.62907 0.22977 0.13909 0.0
C2417 C 0.6268 0.25298 0.12915 0.0
H2418 H 0.65198 0.20051 0.14258 0.0
H2419 H 0.63414 0.4291 0.06407 0.0
H2420 H 0.03287 0.36678 0.21703 0.0
H2421 H 0.00329 0.35507 0.26014 0.0
H2422 H 0.01317 0.41867 0.31877 0.0
H2423 H 0.04262 0.43062 0.27559 0.0
H2424 H 0.01821 0.38339 0.36194 0.0
H2425 H 0.96218 0.40487 0.27301 0.0
H2426 H 0.94404 0.40514 0.213 0.0
H2427 H 0.932 0.33202 0.22046 0.0
H2428 H 0.95026 0.33125 0.28035 0.0
H2429 H 0.93059 0.36001 0.49222 0.0
H2430 H 0.94756 0.37867 0.43885 0.0
H2431 H 0.95766 0.31186 0.38989 0.0
H2432 H 0.94146 0.29315 0.4433 0.0
H2433 H 0.94004 0.35041 0.34196 0.0
H2434 H 0.00102 0.32765 0.42323 0.0
H2435 H 0.02187 0.32525 0.48091 0.0
H2436 H 0.02507 0.39933 0.4862 0.0
H2437 H 0.00436 0.40218 0.42826 0.0
C2438 C 0.0284 0.37851 0.23865 0.0
C2439 C 0.0403 0.39953 0.24313 0.0
C2440 C 0.01146 0.37177 0.26336 0.0
C2441 C 0.00619 0.38584 0.29304 0.0
C2442 C 0.01708 0.40743 0.29627 0.0
C2443 C 0.0339 0.41425 0.2715 0.0
C2444 C 0.9914 0.37707 0.32276 0.0
C2445 C 0.00087 0.37676 0.35756 0.0
C2446 C 0.96915 0.36751 0.31694 0.0
C2447 C 0.95789 0.36796 0.28105 0.0
C2448 C 0.95585 0.38881 0.26175 0.0
C2449 C 0.94549 0.38906 0.22777 0.0
C2450 C 0.93695 0.36859 0.21287 0.0
C2451 C 0.93867 0.34785 0.23199 0.0
C2452 C 0.94901 0.3475 0.26599 0.0
C2453 C 0.93603 0.34941 0.46976 0.0
C2454 C 0.93483 0.3252 0.47183 0.0
C2455 C 0.9457 0.36003 0.43941 0.0
C2456 C 0.95376 0.34657 0.41056 0.0
C2457 C 0.95137 0.32249 0.41181 0.0
C2458 C 0.94224 0.31187 0.44238 0.0
C2459 C 0.96679 0.3573 0.38071 0.0
C2460 C 0.95715 0.35764 0.3461 0.0
C2461 C 0.98898 0.36675 0.38645 0.0
C2462 C 0.00076 0.36514 0.42178 0.0
C2463 C 0.0058 0.34344 0.437 0.0
C2464 C 0.01773 0.34198 0.46961 0.0
C2465 C 0.02457 0.36211 0.48742 0.0
C2466 C 0.01967 0.38375 0.47246 0.0
C2467 C 0.00792 0.3853 0.43965 0.0
H2468 H 0.03378 0.36094 0.5127 0.0
H2469 H 0.92895 0.36882 0.18655 0.0
H2470 H 0.93082 0.61031 0.73049 0.0
H2471 H 0.90909 0.62918 0.6816 0.0
H2472 H 0.95901 0.68467 0.67997 0.0
H2473 H 0.98042 0.66631 0.72825 0.0
H2474 H 0.91553 0.70088 0.6792 0.0
H2475 H 0.95983 0.64042 0.61946 0.0
H2476 H 0.9709 0.60017 0.60637 0.0
H2477 H 0.90099 0.5849 0.57535 0.0
H2478 H 0.88954 0.62513 0.58865 0.0
H2479 H 0.92407 0.76127 0.52138 0.0
H2480 H 0.92972 0.7349 0.57122 0.0
H2481 H 0.87256 0.69311 0.53471 0.0
H2482 H 0.86674 0.71976 0.48386 0.0
H2483 H 0.9078 0.66619 0.55776 0.0
H2484 H 0.86551 0.72923 0.60749 0.0
H2485 H 0.8561 0.77029 0.6178 0.0
H2486 H 0.92246 0.78078 0.66701 0.0
H2487 H 0.93238 0.73984 0.65667 0.0
C2488 C 0.93702 0.62658 0.7197 0.0
C2489 C 0.95735 0.63677 0.73314 0.0
C2490 C 0.92468 0.63726 0.69175 0.0
C2491 C 0.93249 0.65829 0.67712 0.0
C2492 C 0.9526 0.66851 0.69093 0.0
C2493 C 0.96491 0.65788 0.71848 0.0
C2494 C 0.9202 0.67014 0.64739 0.0
C2495 C 0.91373 0.69326 0.65268 0.0
C2496 C 0.91697 0.6599 0.61316 0.0
C2497 C 0.92379 0.63569 0.60557 0.0
C2498 C 0.94681 0.62844 0.61018 0.0
C2499 C 0.95316 0.60564 0.60264 0.0
C2500 C 0.93663 0.58994 0.59017 0.0
C2501 C 0.91376 0.59706 0.58512 0.0
C2502 C 0.90734 0.61987 0.59265 0.0
C2503 C 0.91263 0.7465 0.52379 0.0
C2504 C 0.89468 0.74282 0.499 0.0
C2505 C 0.91594 0.73135 0.55237 0.0
C2506 C 0.9013 0.71224 0.55718 0.0
C2507 C 0.88392 0.70788 0.53168 0.0
C2508 C 0.88061 0.72311 0.50273 0.0
C2509 C 0.90436 0.69726 0.58927 0.0
C2510 C 0.90886 0.6736 0.58452 0.0
C2511 C 0.90577 0.70693 0.62417 0.0
C2512 C 0.89967 0.73145 0.6313 0.0
C2513 C 0.87811 0.7403 0.62047 0.0
C2514 C 0.87269 0.76356 0.62631 0.0
C2515 C 0.88867 0.77813 0.64306 0.0
C2516 C 0.91008 0.76946 0.65411 0.0
C2517 C 0.91558 0.74621 0.64836 0.0
H2518 H 0.88446 0.79614 0.64749 0.0
H2519 H 0.94157 0.57229 0.58431 0.0
H2520 H 0.52676 0.4407 0.19692 0.0
H2521 H 0.49691 0.43108 0.1532 0.0
H2522 H 0.46721 0.38215 0.22788 0.0
H2523 H 0.49744 0.39127 0.27147 0.0
H2524 H 0.47692 0.36165 0.16829 0.0
H2525 H 0.43615 0.42984 0.19762 0.0
H2526 H 0.43038 0.47121 0.21081 0.0
H2527 H 0.45261 0.48888 0.10401 0.0
H2528 H 0.45885 0.44764 0.0903 0.0
H2529 H 0.38968 0.35117 0.01564 0.0
H2530 H 0.40118 0.37149 0.07068 0.0
H2531 H 0.47284 0.3651 0.04037 0.0
H2532 H 0.46167 0.3451 0.98526 0.0
H2533 H 0.43247 0.41216 0.08536 0.0
H2534 H 0.49698 0.33777 0.11996 0.0
H2535 H 0.50121 0.29585 0.10986 0.0
H2536 H 0.42793 0.28959 0.09401 0.0
H2537 H 0.42312 0.33129 0.10528 0.0
C2538 C 0.5135 0.42838 0.20448 0.0
C2539 C 0.51468 0.41648 0.23743 0.0
C2540 C 0.49632 0.42298 0.17948 0.0
C2541 C 0.47981 0.40585 0.18721 0.0
C2542 C 0.47983 0.39535 0.22129 0.0
C2543 C 0.49711 0.40061 0.24619 0.0
C2544 C 0.46516 0.39641 0.15796 0.0
C2545 C 0.46696 0.37269 0.15047 0.0
C2546 C 0.45186 0.41074 0.13499 0.0
C2547 C 0.44807 0.43561 0.143 0.0
C2548 C 0.43997 0.44255 0.17701 0.0
C2549 C 0.43658 0.46598 0.18457 0.0
C2550 C 0.44115 0.48266 0.15828 0.0
C2551 C 0.44907 0.47594 0.12434 0.0
C2552 C 0.45249 0.45252 0.11664 0.0
C2553 C 0.40786 0.35457 0.02027 0.0
C2554 C 0.4248 0.3462 0.99637 0.0
C2555 C 0.41436 0.36617 0.05168 0.0
C2556 C 0.43783 0.36929 0.05969 0.0
C2557 C 0.45465 0.36247 0.03472 0.0
C2558 C 0.4482 0.35109 0.00325 0.0
C2559 C 0.44516 0.37778 0.0953 0.0
C2560 C 0.44207 0.40119 0.10374 0.0
C2561 C 0.45704 0.36311 0.11953 0.0
C2562 C 0.45974 0.33785 0.11287 0.0
C2563 C 0.48173 0.32746 0.11454 0.0
C2564 C 0.48422 0.30369 0.10874 0.0
C2565 C 0.46487 0.29009 0.10111 0.0
C2566 C 0.44294 0.30018 0.09965 0.0
C2567 C 0.44032 0.32391 0.10574 0.0
H2568 H 0.46686 0.27173 0.09642 0.0
H2569 H 0.43852 0.5008 0.16418 0.0
H2570 H 0.41614 0.73488 0.02497 0.0
H2571 H 0.42767 0.7098 0.97553 0.0
H2572 H 0.36051 0.71812 0.92673 0.0
H2573 H 0.34865 0.7433 0.97659 0.0
H2574 H 0.3791 0.67255 0.92019 0.0
H2575 H 0.40189 0.7512 0.89756 0.0
H2576 H 0.41977 0.78871 0.91236 0.0
H2577 H 0.48573 0.75561 0.92523 0.0
H2578 H 0.46819 0.71787 0.91123 0.0
H2579 H 0.43181 0.6306 0.75385 0.0
H2580 H 0.40844 0.65252 0.79752 0.0
H2581 H 0.46879 0.66151 0.86434 0.0
H2582 H 0.49197 0.64025 0.82123 0.0
H2583 H 0.44774 0.70154 0.85378 0.0
H2584 H 0.42536 0.62333 0.88582 0.0
H2585 H 0.40873 0.58477 0.87422 0.0
H2586 H 0.34383 0.61591 0.84572 0.0
H2587 H 0.3602 0.65469 0.85673 0.0
C2588 C 0.40364 0.73112 0.00408 0.0
C2589 C 0.38158 0.74135 0.00443 0.0
C2590 C 0.41028 0.7168 0.9758 0.0
C2591 C 0.3951 0.71254 0.94715 0.0
C2592 C 0.3725 0.72136 0.94854 0.0
C2593 C 0.36577 0.73571 0.97703 0.0
C2594 C 0.40368 0.70034 0.91479 0.0
C2595 C 0.39384 0.67903 0.90516 0.0
C2596 C 0.42301 0.70881 0.89545 0.0
C2597 C 0.43366 0.73164 0.90354 0.0
C2598 C 0.42017 0.75189 0.90382 0.0
C2599 C 0.43026 0.77322 0.91209 0.0
C2600 C 0.45386 0.77457 0.91992 0.0
C2601 C 0.46744 0.75459 0.91933 0.0
C2602 C 0.45743 0.73322 0.91117 0.0
C2603 C 0.43993 0.63709 0.77806 0.0
C2604 C 0.46375 0.63386 0.78396 0.0
C2605 C 0.4266 0.64959 0.80295 0.0
C2606 C 0.43693 0.65876 0.8341 0.0
C2607 C 0.4605 0.65484 0.84034 0.0
C2608 C 0.47374 0.64261 0.81561 0.0
C2609 C 0.42386 0.6732 0.86008 0.0
C2610 C 0.43276 0.69515 0.86834 0.0
C2611 C 0.4039 0.66518 0.87829 0.0
C2612 C 0.39409 0.6419 0.87162 0.0
C2613 C 0.40761 0.62196 0.87675 0.0
C2614 C 0.39822 0.60007 0.87036 0.0
C2615 C 0.37526 0.5979 0.85911 0.0
C2616 C 0.36163 0.61762 0.85434 0.0
C2617 C 0.37095 0.63955 0.86067 0.0
H2618 H 0.36802 0.58093 0.85419 0.0
H2619 H 0.46163 0.7911 0.92634 0.0
H2620 H 0.16961 0.65851 0.53737 0.0
H2621 H 0.1512 0.64044 0.58964 0.0
H2622 H 0.0984 0.61181 0.52091 0.0
H2623 H 0.11663 0.62972 0.46859 0.0
H2624 H 0.08103 0.63833 0.57657 0.0
H2625 H 0.13647 0.57683 0.5606 0.0
H2626 H 0.17562 0.56039 0.55435 0.0
H2627 H 0.19397 0.58669 0.6585 0.0
H2628 H 0.15501 0.60357 0.66516 0.0
H2629 H 0.01698 0.56931 0.69331 0.0
H2630 H 0.04503 0.57794 0.64612 0.0
H2631 H 0.08891 0.61194 0.72345 0.0
H2632 H 0.06059 0.60379 0.77105 0.0
H2633 H 0.11276 0.58349 0.66676 0.0
H2634 H 0.05884 0.64431 0.6845 0.0
H2635 H 0.02054 0.66201 0.69267 0.0
H2636 H 0.00093 0.64095 0.58625 0.0
H2637 H 0.03871 0.62185 0.57817 0.0
C2638 C 0.15438 0.64793 0.53324 0.0
C2639 C 0.14447 0.64574 0.49882 0.0
C2640 C 0.14391 0.63758 0.56316 0.0
C2641 C 0.12339 0.62488 0.55913 0.0
C2642 C 0.1142 0.62162 0.52457 0.0
C2643 C 0.1247 0.63182 0.49467 0.0
C2644 C 0.11015 0.61704 0.59105 0.0
C2645 C 0.08784 0.62605 0.59596 0.0
C2646 C 0.11949 0.60185 0.61716 0.0
C2647 C 0.1429 0.59167 0.61321 0.0
C2648 C 0.14892 0.57929 0.58203 0.0
C2649 C 0.17106 0.56985 0.57844 0.0
C2650 C 0.18729 0.57255 0.60596 0.0
C2651 C 0.18139 0.58464 0.63718 0.0
C2652 C 0.15928 0.59412 0.64089 0.0
C2653 C 0.03279 0.57821 0.70055 0.0
C2654 C 0.03645 0.58609 0.73587 0.0
C2655 C 0.0488 0.5831 0.67352 0.0
C2656 C 0.0689 0.59568 0.68134 0.0
C2657 C 0.07349 0.60215 0.71699 0.0
C2658 C 0.05725 0.59758 0.74406 0.0
C2659 C 0.08349 0.60431 0.6515 0.0
C2660 C 0.106 0.59567 0.6472 0.0
C2661 C 0.07451 0.62015 0.62607 0.0
C2662 C 0.05157 0.63133 0.63092 0.0
C2663 C 0.04624 0.64302 0.66306 0.0
C2664 C 0.02462 0.65337 0.66765 0.0
C2665 C 0.0084 0.65284 0.63986 0.0
C2666 C 0.01357 0.64148 0.60769 0.0
C2667 C 0.03504 0.63073 0.60318 0.0
H2668 H 0.9919 0.66135 0.6432 0.0
H2669 H 0.20443 0.56522 0.60314 0.0
H2670 H 0.10657 0.32848 0.27036 0.0
H2671 H 0.12054 0.31335 0.32707 0.0
H2672 H 0.15877 0.37629 0.34567 0.0
H2673 H 0.14487 0.39175 0.28769 0.0
H2674 H 0.18387 0.33762 0.36381 0.0
H2675 H 0.11013 0.36726 0.39241 0.0
H2676 H 0.06854 0.37491 0.38375 0.0
H2677 H 0.05394 0.30237 0.39288 0.0
H2678 H 0.09548 0.29416 0.40093 0.0
H2679 H 0.19921 0.28268 0.53952 0.0
H2680 H 0.18853 0.31229 0.49496 0.0
H2681 H 0.15085 0.26105 0.43447 0.0
H2682 H 0.16165 0.23148 0.47817 0.0
H2683 H 0.12622 0.30364 0.44763 0.0
H2684 H 0.20132 0.27528 0.40586 0.0
H2685 H 0.24313 0.26814 0.41299 0.0
H2686 H 0.25462 0.34059 0.4309 0.0
H2687 H 0.21279 0.3481 0.42434 0.0
C2688 C 0.11796 0.33925 0.28631 0.0
C2689 C 0.12445 0.36146 0.2746 0.0
C2690 C 0.12586 0.33055 0.31894 0.0
C2691 C 0.14024 0.34388 0.34106 0.0
C2692 C 0.14746 0.36582 0.32912 0.0
C2693 C 0.13956 0.37461 0.29606 0.0
C2694 C 0.14762 0.33425 0.37628 0.0
C2695 C 0.17129 0.33076 0.38268 0.0
C2696 C 0.13119 0.32527 0.40094 0.0
C2697 C 0.10602 0.33009 0.39711 0.0
C2698 C 0.09809 0.3529 0.39243 0.0
C2699 C 0.07452 0.35735 0.38764 0.0
C2700 C 0.05867 0.33913 0.3877 0.0
C2701 C 0.06628 0.31645 0.39288 0.0
C2702 C 0.08984 0.31189 0.39759 0.0
C2703 C 0.18873 0.27776 0.51662 0.0
C2704 C 0.18143 0.25472 0.5122 0.0
C2705 C 0.18264 0.29467 0.49128 0.0
C2706 C 0.16889 0.28882 0.46152 0.0
C2707 C 0.16142 0.26591 0.45733 0.0
C2708 C 0.16777 0.249 0.48221 0.0
C2709 C 0.16232 0.30623 0.43412 0.0
C2710 C 0.13877 0.31115 0.42931 0.0
C2711 C 0.17884 0.31673 0.41126 0.0
C2712 C 0.20393 0.3122 0.41511 0.0
C2713 C 0.21274 0.28964 0.41167 0.0
C2714 C 0.23644 0.28554 0.41553 0.0
C2715 C 0.25151 0.30389 0.42253 0.0
C2716 C 0.24292 0.32639 0.42557 0.0
C2717 C 0.21922 0.33058 0.42178 0.0
H2718 H 0.26986 0.30068 0.42549 0.0
H2719 H 0.04051 0.34259 0.38349 0.0
loop_
_geom_bond_atom_site_label_1
_geom_bond_atom_site_label_2
_geom_bond_distance
_geom_bond_site_symmetry_2
_ccdc_geom_bond_type
Zn0 O6 1.969 1_455 S
Zn0 O7 1.965 1_455 S
Zn0 O11 2.024 . S
Zn0 O16 1.969 . S
Zn1 O8 1.969 . S
Zn1 O14 1.969 . S
Zn1 O15 1.965 . S
Zn1 O17 2.024 1_455 S
C2 O3 1.229 . S
C2 O11 1.058 . S
O3 C2 1.229 . S
C4 O5 1.229 . S
C4 O17 1.058 . S
O5 C4 1.229 . S
O6 Zn0 1.969 1_655 S
O6 C9 1.267 . S
O7 Zn0 1.965 1_655 S
O7 C18 1.260 1_655 S
O8 Zn1 1.969 . S
O8 C18 1.258 . S
C9 O6 1.267 . S
C9 O10 1.228 . S
O10 C9 1.228 . S
O11 Zn0 2.024 . S
O11 C2 1.058 . S
C12 O13 1.228 . S
C12 O14 1.267 . S
O13 C12 1.228 . S
O14 Zn1 1.969 . S
O14 C12 1.267 . S
O15 Zn1 1.965 . S
O15 C19 1.260 . S
O16 Zn0 1.969 . S
O16 C19 1.258 . S
O17 Zn1 2.024 1_655 S
O17 C4 1.058 . S
C18 O7 1.260 1_455 S
C18 O8 1.258 . S
C19 O15 1.260 . S
C19 O16 1.258 . S
Zn20 O26 1.969 . S
Zn20 O27 1.965 . S
Zn20 O31 2.024 . S
Zn20 O36 1.969 . S
Zn21 O28 1.969 . S
Zn21 O34 1.969 . S
Zn21 O35 1.965 . S
Zn21 O37 2.024 . S
C22 O23 1.229 . S
C22 O31 1.058 . S
O23 C22 1.229 . S
C24 O25 1.229 . S
C24 O37 1.058 . S
O25 C24 1.229 . S
O26 Zn20 1.969 . S
O26 C29 1.267 . S
O27 Zn20 1.965 . S
O27 C38 1.260 . S
O28 Zn21 1.969 . S
O28 C38 1.258 . S
C29 O26 1.267 . S
C29 O30 1.228 . S
O30 C29 1.228 . S
O31 Zn20 2.024 . S
O31 C22 1.058 . S
C32 O33 1.228 . S
C32 O34 1.267 . S
O33 C32 1.228 . S
O34 Zn21 1.969 . S
O34 C32 1.267 . S
O35 Zn21 1.965 . S
O35 C39 1.260 . S
O36 Zn20 1.969 . S
O36 C39 1.258 . S
O37 Zn21 2.024 . S
O37 C24 1.058 . S
C38 O27 1.260 . S
C38 O28 1.258 . S
C39 O35 1.260 . S
C39 O36 1.258 . S
Zn40 O46 1.969 . S
Zn40 O47 1.965 . S
Zn40 O51 2.024 . S
Zn40 O56 1.969 . S
Zn41 O48 1.969 . S
Zn41 O54 1.969 . S
Zn41 O55 1.965 . S
Zn41 O57 2.024 . S
C42 O43 1.229 . S
C42 O51 1.058 . S
O43 C42 1.229 . S
C44 O45 1.229 . S
C44 O57 1.058 . S
O45 C44 1.229 . S
O46 Zn40 1.969 . S
O46 C49 1.267 . S
O47 Zn40 1.965 . S
O47 C58 1.260 . S
O48 Zn41 1.969 . S
O48 C58 1.258 . S
C49 O46 1.267 . S
C49 O50 1.228 . S
O50 C49 1.228 . S
O51 Zn40 2.024 . S
O51 C42 1.058 . S
C52 O53 1.228 . S
C52 O54 1.267 . S
O53 C52 1.228 . S
O54 Zn41 1.969 . S
O54 C52 1.267 . S
O55 Zn41 1.965 . S
O55 C59 1.260 . S
O56 Zn40 1.969 . S
O56 C59 1.258 . S
O57 Zn41 2.024 . S
O57 C44 1.058 . S
C58 O47 1.260 . S
C58 O48 1.258 . S
C59 O55 1.260 . S
C59 O56 1.258 . S
Zn60 O66 1.969 . S
Zn60 O67 1.965 . S
Zn60 O71 2.024 . S
Zn60 O76 1.969 . S
Zn61 O68 1.969 . S
Zn61 O74 1.969 . S
Zn61 O75 1.965 . S
Zn61 O77 2.024 . S
C62 O63 1.229 . S
C62 O71 1.058 . S
O63 C62 1.229 . S
C64 O65 1.229 . S
C64 O77 1.058 . S
O65 C64 1.229 . S
O66 Zn60 1.969 . S
O66 C69 1.267 . S
O67 Zn60 1.965 . S
O67 C78 1.260 . S
O68 Zn61 1.969 . S
O68 C78 1.258 . S
C69 O66 1.267 . S
C69 O70 1.228 . S
O70 C69 1.228 . S
O71 Zn60 2.024 . S
O71 C62 1.058 . S
C72 O73 1.228 . S
C72 O74 1.267 . S
O73 C72 1.228 . S
O74 Zn61 1.969 . S
O74 C72 1.267 . S
O75 Zn61 1.965 . S
O75 C79 1.260 . S
O76 Zn60 1.969 . S
O76 C79 1.258 . S
O77 Zn61 2.024 . S
O77 C64 1.058 . S
C78 O67 1.260 . S
C78 O68 1.258 . S
C79 O75 1.260 . S
C79 O76 1.258 . S
Zn80 O86 1.969 . S
Zn80 O87 1.965 . S
Zn80 O91 2.024 . S
Zn80 O96 1.969 . S
Zn81 O88 1.969 . S
Zn81 O94 1.969 . S
Zn81 O95 1.965 . S
Zn81 O97 2.024 . S
C82 O83 1.229 . S
C82 O91 1.058 . S
O83 C82 1.229 . S
C84 O85 1.229 . S
C84 O97 1.058 . S
O85 C84 1.229 . S
O86 Zn80 1.969 . S
O86 C89 1.267 . S
O87 Zn80 1.965 . S
O87 C98 1.260 . S
O88 Zn81 1.969 . S
O88 C98 1.258 . S
C89 O86 1.267 . S
C89 O90 1.228 . S
O90 C89 1.228 . S
O91 Zn80 2.024 . S
O91 C82 1.058 . S
C92 O93 1.228 . S
C92 O94 1.267 . S
O93 C92 1.228 . S
O94 Zn81 1.969 . S
O94 C92 1.267 . S
O95 Zn81 1.965 . S
O95 C99 1.260 . S
O96 Zn80 1.969 . S
O96 C99 1.258 . S
O97 Zn81 2.024 . S
O97 C84 1.058 . S
C98 O87 1.260 . S
C98 O88 1.258 . S
C99 O95 1.260 . S
C99 O96 1.258 . S
Zn100 O106 1.969 . S
Zn100 O107 1.965 . S
Zn100 O111 2.024 . S
Zn100 O116 1.969 . S
Zn101 O108 1.969 . S
Zn101 O114 1.969 . S
Zn101 O115 1.965 . S
Zn101 O117 2.024 . S
C102 O103 1.229 . S
C102 O111 1.058 . S
O103 C102 1.229 . S
C104 O105 1.229 . S
C104 O117 1.058 . S
O105 C104 1.229 . S
O106 Zn100 1.969 . S
O106 C109 1.267 . S
O107 Zn100 1.965 . S
O107 C118 1.260 . S
O108 Zn101 1.969 . S
O108 C118 1.258 . S
C109 O106 1.267 . S
C109 O110 1.228 . S
O110 C109 1.228 . S
O111 Zn100 2.024 . S
O111 C102 1.058 . S
C112 O113 1.228 . S
C112 O114 1.267 . S
O113 C112 1.228 . S
O114 Zn101 1.969 . S
O114 C112 1.267 . S
O115 Zn101 1.965 . S
O115 C119 1.260 . S
O116 Zn100 1.969 . S
O116 C119 1.258 . S
O117 Zn101 2.024 . S
O117 C104 1.058 . S
C118 O107 1.260 . S
C118 O108 1.258 . S
C119 O115 1.260 . S
C119 O116 1.258 . S
Zn120 O126 1.969 . S
Zn120 O127 1.965 . S
Zn120 O131 2.024 . S
Zn120 O136 1.969 . S
Zn121 O128 1.969 . S
Zn121 O134 1.969 . S
Zn121 O135 1.965 . S
Zn121 O137 2.024 . S
C122 O123 1.229 . S
C122 O131 1.058 . S
O123 C122 1.229 . S
C124 O125 1.229 . S
C124 O137 1.058 . S
O125 C124 1.229 . S
O126 Zn120 1.969 . S
O126 C129 1.267 . S
O127 Zn120 1.965 . S
O127 C138 1.260 . S
O128 Zn121 1.969 . S
O128 C138 1.258 . S
C129 O126 1.267 . S
C129 O130 1.228 . S
O130 C129 1.228 . S
O131 Zn120 2.024 . S
O131 C122 1.058 . S
C132 O133 1.228 . S
C132 O134 1.267 . S
O133 C132 1.228 . S
O134 Zn121 1.969 . S
O134 C132 1.267 . S
O135 Zn121 1.965 . S
O135 C139 1.260 . S
O136 Zn120 1.969 . S
O136 C139 1.258 . S
O137 Zn121 2.024 . S
O137 C124 1.058 . S
C138 O127 1.260 . S
C138 O128 1.258 . S
C139 O135 1.260 . S
C139 O136 1.258 . S
Zn140 O146 1.969 . S
Zn140 O147 1.965 . S
Zn140 O151 2.024 . S
Zn140 O156 1.969 . S
Zn141 O148 1.969 . S
Zn141 O154 1.969 . S
Zn141 O155 1.965 . S
Zn141 O157 2.024 . S
C142 O143 1.229 . S
C142 O151 1.058 . S
O143 C142 1.229 . S
C144 O145 1.229 . S
C144 O157 1.058 . S
O145 C144 1.229 . S
O146 Zn140 1.969 . S
O146 C149 1.267 . S
O147 Zn140 1.965 . S
O147 C158 1.260 . S
O148 Zn141 1.969 . S
O148 C158 1.258 . S
C149 O146 1.267 . S
C149 O150 1.228 . S
O150 C149 1.228 . S
O151 Zn140 2.024 . S
O151 C142 1.058 . S
C152 O153 1.228 . S
C152 O154 1.267 . S
O153 C152 1.228 . S
O154 Zn141 1.969 . S
O154 C152 1.267 . S
O155 Zn141 1.965 . S
O155 C159 1.260 . S
O156 Zn140 1.969 . S
O156 C159 1.258 . S
O157 Zn141 2.024 . S
O157 C144 1.058 . S
C158 O147 1.260 . S
C158 O148 1.258 . S
C159 O155 1.260 . S
C159 O156 1.258 . S
Zn160 O166 1.969 . S
Zn160 O167 1.965 . S
Zn160 O171 2.024 . S
Zn160 O176 1.969 . S
Zn161 O168 1.969 . S
Zn161 O174 1.969 . S
Zn161 O175 1.965 . S
Zn161 O177 2.024 . S
C162 O163 1.229 . S
C162 O171 1.058 . S
O163 C162 1.229 . S
C164 O165 1.229 . S
C164 O177 1.058 . S
O165 C164 1.229 . S
O166 Zn160 1.969 . S
O166 C169 1.267 . S
O167 Zn160 1.965 . S
O167 C178 1.260 . S
O168 Zn161 1.969 . S
O168 C178 1.258 . S
C169 O166 1.267 . S
C169 O170 1.228 . S
O170 C169 1.228 . S
O171 Zn160 2.024 . S
O171 C162 1.058 . S
C172 O173 1.228 . S
C172 O174 1.267 . S
O173 C172 1.228 . S
O174 Zn161 1.969 . S
O174 C172 1.267 . S
O175 Zn161 1.965 . S
O175 C179 1.260 . S
O176 Zn160 1.969 . S
O176 C179 1.258 . S
O177 Zn161 2.024 . S
O177 C164 1.058 . S
C178 O167 1.260 . S
C178 O168 1.258 . S
C179 O175 1.260 . S
C179 O176 1.258 . S
Zn180 O186 1.969 . S
Zn180 O187 1.965 . S
Zn180 O191 2.024 . S
Zn180 O196 1.969 . S
Zn181 O188 1.969 . S
Zn181 O194 1.969 . S
Zn181 O195 1.965 . S
Zn181 O197 2.024 . S
C182 O183 1.229 . S
C182 O191 1.058 . S
O183 C182 1.229 . S
C184 O185 1.229 . S
C184 O197 1.058 . S
O185 C184 1.229 . S
O186 Zn180 1.969 . S
O186 C189 1.267 . S
O187 Zn180 1.965 . S
O187 C198 1.260 . S
O188 Zn181 1.969 . S
O188 C198 1.258 . S
C189 O186 1.267 . S
C189 O190 1.228 . S
O190 C189 1.228 . S
O191 Zn180 2.024 . S
O191 C182 1.058 . S
C192 O193 1.228 . S
C192 O194 1.267 . S
O193 C192 1.228 . S
O194 Zn181 1.969 . S
O194 C192 1.267 . S
O195 Zn181 1.965 . S
O195 C199 1.260 . S
O196 Zn180 1.969 . S
O196 C199 1.258 . S
O197 Zn181 2.024 . S
O197 C184 1.058 . S
C198 O187 1.260 . S
C198 O188 1.258 . S
C199 O195 1.260 . S
C199 O196 1.258 . S
Zn200 O206 1.969 . S
Zn200 O207 1.965 . S
Zn200 O211 2.024 . S
Zn200 O216 1.969 . S
Zn201 O208 1.969 . S
Zn201 O214 1.969 . S
Zn201 O215 1.965 . S
Zn201 O217 2.024 . S
C202 O203 1.229 . S
C202 O211 1.058 . S
O203 C202 1.229 . S
C204 O205 1.229 . S
C204 O217 1.058 . S
O205 C204 1.229 . S
O206 Zn200 1.969 . S
O206 C209 1.267 . S
O207 Zn200 1.965 . S
O207 C218 1.260 . S
O208 Zn201 1.969 . S
O208 C218 1.258 . S
C209 O206 1.267 . S
C209 O210 1.228 . S
O210 C209 1.228 . S
O211 Zn200 2.024 . S
O211 C202 1.058 . S
C212 O213 1.228 . S
C212 O214 1.267 . S
O213 C212 1.228 . S
O214 Zn201 1.969 . S
O214 C212 1.267 . S
O215 Zn201 1.965 . S
O215 C219 1.260 . S
O216 Zn200 1.969 . S
O216 C219 1.258 . S
O217 Zn201 2.024 . S
O217 C204 1.058 . S
C218 O207 1.260 . S
C218 O208 1.258 . S
C219 O215 1.260 . S
C219 O216 1.258 . S
Zn220 O226 1.969 . S
Zn220 O227 1.965 . S
Zn220 O231 2.024 . S
Zn220 O236 1.969 . S
Zn221 O228 1.969 . S
Zn221 O234 1.969 . S
Zn221 O235 1.965 . S
Zn221 O237 2.024 . S
C222 O223 1.229 . S
C222 O231 1.058 . S
O223 C222 1.229 . S
C224 O225 1.229 . S
C224 O237 1.058 . S
O225 C224 1.229 . S
O226 Zn220 1.969 . S
O226 C229 1.267 . S
O227 Zn220 1.965 . S
O227 C238 1.260 . S
O228 Zn221 1.969 . S
O228 C238 1.258 . S
C229 O226 1.267 . S
C229 O230 1.228 . S
O230 C229 1.228 . S
O231 Zn220 2.024 . S
O231 C222 1.058 . S
C232 O233 1.228 . S
C232 O234 1.267 . S
O233 C232 1.228 . S
O234 Zn221 1.969 . S
O234 C232 1.267 . S
O235 Zn221 1.965 . S
O235 C239 1.260 . S
O236 Zn220 1.969 . S
O236 C239 1.258 . S
O237 Zn221 2.024 . S
O237 C224 1.058 . S
C238 O227 1.260 . S
C238 O228 1.258 . S
C239 O235 1.260 . S
C239 O236 1.258 . S
Zn240 O246 1.969 . S
Zn240 O247 1.965 . S
Zn240 O251 2.024 . S
Zn240 O256 1.969 . S
Zn241 O248 1.969 . S
Zn241 O254 1.969 . S
Zn241 O255 1.965 . S
Zn241 O257 2.024 . S
C242 O243 1.229 . S
C242 O251 1.058 . S
O243 C242 1.229 . S
C244 O245 1.229 . S
C244 O257 1.058 . S
O245 C244 1.229 . S
O246 Zn240 1.969 . S
O246 C249 1.267 . S
O247 Zn240 1.965 . S
O247 C258 1.260 . S
O248 Zn241 1.969 . S
O248 C258 1.258 . S
C249 O246 1.267 . S
C249 O250 1.228 . S
O250 C249 1.228 . S
O251 Zn240 2.024 . S
O251 C242 1.058 . S
C252 O253 1.228 . S
C252 O254 1.267 . S
O253 C252 1.228 . S
O254 Zn241 1.969 . S
O254 C252 1.267 . S
O255 Zn241 1.965 . S
O255 C259 1.260 . S
O256 Zn240 1.969 . S
O256 C259 1.258 . S
O257 Zn241 2.024 . S
O257 C244 1.058 . S
C258 O247 1.260 . S
C258 O248 1.258 . S
C259 O255 1.260 . S
C259 O256 1.258 . S
Zn260 O266 1.969 . S
Zn260 O267 1.965 . S
Zn260 O271 2.024 . S
Zn260 O276 1.969 . S
Zn261 O268 1.969 . S
Zn261 O274 1.969 . S
Zn261 O275 1.965 . S
Zn261 O277 2.024 . S
C262 O263 1.229 . S
C262 O271 1.058 . S
O263 C262 1.229 . S
C264 O265 1.229 . S
C264 O277 1.058 . S
O265 C264 1.229 . S
O266 Zn260 1.969 . S
O266 C269 1.267 . S
O267 Zn260 1.965 . S
O267 C278 1.260 . S
O268 Zn261 1.969 . S
O268 C278 1.258 . S
C269 O266 1.267 . S
C269 O270 1.228 . S
O270 C269 1.228 . S
O271 Zn260 2.024 . S
O271 C262 1.058 . S
C272 O273 1.228 . S
C272 O274 1.267 . S
O273 C272 1.228 . S
O274 Zn261 1.969 . S
O274 C272 1.267 . S
O275 Zn261 1.965 . S
O275 C279 1.260 . S
O276 Zn260 1.969 . S
O276 C279 1.258 . S
O277 Zn261 2.024 . S
O277 C264 1.058 . S
C278 O267 1.260 . S
C278 O268 1.258 . S
C279 O275 1.260 . S
C279 O276 1.258 . S
Zn280 O286 1.969 . S
Zn280 O287 1.965 . S
Zn280 O291 2.024 . S
Zn280 O296 1.969 . S
Zn281 O288 1.969 . S
Zn281 O294 1.969 . S
Zn281 O295 1.965 . S
Zn281 O297 2.024 . S
C282 O283 1.229 . S
C282 O291 1.058 . S
O283 C282 1.229 . S
C284 O285 1.229 . S
C284 O297 1.058 . S
O285 C284 1.229 . S
O286 Zn280 1.969 . S
O286 C289 1.267 . S
O287 Zn280 1.965 . S
O287 C298 1.260 . S
O288 Zn281 1.969 . S
O288 C298 1.258 . S
C289 O286 1.267 . S
C289 O290 1.228 . S
O290 C289 1.228 . S
O291 Zn280 2.024 . S
O291 C282 1.058 . S
C292 O293 1.228 . S
C292 O294 1.267 . S
O293 C292 1.228 . S
O294 Zn281 1.969 . S
O294 C292 1.267 . S
O295 Zn281 1.965 . S
O295 C299 1.260 . S
O296 Zn280 1.969 . S
O296 C299 1.258 . S
O297 Zn281 2.024 . S
O297 C284 1.058 . S
C298 O287 1.260 . S
C298 O288 1.258 . S
C299 O295 1.260 . S
C299 O296 1.258 . S
Zn300 O306 1.969 . S
Zn300 O307 1.965 . S
Zn300 O311 2.024 1_455 S
Zn300 O316 1.969 . S
Zn301 O308 1.969 . S
Zn301 O314 1.969 1_455 S
Zn301 O315 1.965 1_455 S
Zn301 O317 2.024 . S
C302 O303 1.229 . S
C302 O311 1.058 . S
O303 C302 1.229 . S
C304 O305 1.229 . S
C304 O317 1.058 . S
O305 C304 1.229 . S
O306 Zn300 1.969 . S
O306 C309 1.267 . S
O307 Zn300 1.965 . S
O307 C318 1.260 . S
O308 Zn301 1.969 . S
O308 C318 1.258 . S
C309 O306 1.267 . S
C309 O310 1.228 . S
O310 C309 1.228 . S
O311 Zn300 2.024 1_655 S
O311 C302 1.058 . S
C312 O313 1.228 . S
C312 O314 1.267 . S
O313 C312 1.228 . S
O314 Zn301 1.969 1_655 S
O314 C312 1.267 . S
O315 Zn301 1.965 1_655 S
O315 C319 1.260 1_655 S
O316 Zn300 1.969 . S
O316 C319 1.258 . S
O317 Zn301 2.024 . S
O317 C304 1.058 . S
C318 O307 1.260 . S
C318 O308 1.258 . S
C319 O315 1.260 1_455 S
C319 O316 1.258 . S
H320 C338 0.951 . S
H321 C340 0.951 . S
H322 C342 0.950 . S
H323 C343 0.950 1_554 S
H324 C345 0.950 . S
H325 C348 0.950 . S
H326 C349 0.928 1_554 S
H327 C351 0.950 . S
H328 C352 0.950 . S
H329 C353 0.951 . S
H330 C355 0.951 . S
H331 C357 0.950 . S
H332 C358 0.950 . S
H333 C360 0.950 . S
H334 C363 0.950 . S
H335 C364 0.950 . S
H336 C366 0.950 . S
H337 C367 0.950 . S
C338 H320 0.951 . S
C338 C339 1.366 . S
C338 C340 1.388 . S
C339 C338 1.366 . S
C339 C343 1.385 . S
C340 H321 0.951 . S
C340 C338 1.388 . S
C340 C341 1.366 . S
C341 C340 1.366 . S
C341 C342 1.414 . S
C341 C344 1.499 . S
C342 H322 0.950 . S
C342 C341 1.414 . S
C342 C343 1.374 . S
C343 H323 0.950 1_556 S
C343 C339 1.385 . S
C343 C342 1.374 . S
C344 C341 1.499 . S
C344 C345 1.373 . S
C344 C346 1.389 . S
C345 H324 0.950 . S
C345 C344 1.373 . S
C345 C361 1.377 . S
C346 C344 1.389 . S
C346 C347 1.524 . S
C346 C360 1.377 . S
C347 C346 1.524 . S
C347 C348 1.397 . S
C347 C352 1.363 . S
C348 H325 0.950 . S
C348 C347 1.397 . S
C348 C349 1.334 . S
C349 H326 0.928 1_556 S
C349 C348 1.334 . S
C349 C350 1.287 . S
C350 C349 1.287 . S
C350 C351 1.524 . S
C350 H369 0.913 . S
C351 H327 0.950 . S
C351 C350 1.524 . S
C351 C352 1.415 . S
C352 H328 0.950 . S
C352 C347 1.363 . S
C352 C351 1.415 . S
C353 H329 0.951 . S
C353 C354 1.366 . S
C353 C355 1.388 . S
C354 C353 1.366 . S
C354 C358 1.385 . S
C355 H330 0.951 . S
C355 C353 1.388 . S
C355 C356 1.366 . S
C356 C355 1.366 . S
C356 C357 1.414 . S
C356 C359 1.499 . S
C357 H331 0.950 . S
C357 C356 1.414 . S
C357 C358 1.374 . S
C358 H332 0.950 . S
C358 C354 1.385 . S
C358 C357 1.374 . S
C359 C356 1.499 . S
C359 C360 1.373 . S
C359 C361 1.389 . S
C360 H333 0.950 . S
C360 C346 1.377 . S
C360 C359 1.373 . S
C361 C345 1.377 . S
C361 C359 1.389 . S
C361 C362 1.524 . S
C362 C361 1.524 . S
C362 C363 1.397 . S
C362 C367 1.363 . S
C363 H334 0.950 . S
C363 C362 1.397 . S
C363 C364 1.334 . S
C364 H335 0.950 . S
C364 C363 1.334 . S
C364 C365 1.287 . S
C365 C364 1.287 . S
C365 C366 1.524 . S
C365 H368 0.999 . S
C366 H336 0.950 . S
C366 C365 1.524 . S
C366 C367 1.415 . S
C367 H337 0.950 . S
C367 C362 1.363 . S
C367 C366 1.415 . S
H368 C365 0.999 . S
H369 C350 0.913 . S
H370 C388 0.951 . S
H371 C390 0.951 . S
H372 C392 0.950 . S
H373 C393 0.950 . S
H374 C395 0.950 . S
H375 C398 0.950 . S
H376 C399 0.950 . S
H377 C401 0.950 . S
H378 C402 0.950 . S
H379 C403 0.951 . S
H380 C405 0.951 . S
H381 C407 0.950 . S
H382 C408 0.950 . S
H383 C410 0.950 . S
H384 C413 0.950 . S
H385 C414 0.950 . S
H386 C416 0.950 . S
H387 C417 0.950 . S
C388 H370 0.951 . S
C388 C389 1.366 . S
C388 C390 1.388 . S
C389 C388 1.366 . S
C389 C393 1.385 . S
C390 H371 0.951 . S
C390 C388 1.388 . S
C390 C391 1.366 . S
C391 C390 1.366 . S
C391 C392 1.414 . S
C391 C394 1.499 . S
C392 H372 0.950 . S
C392 C391 1.414 . S
C392 C393 1.374 . S
C393 H373 0.950 . S
C393 C389 1.385 . S
C393 C392 1.374 . S
C394 C391 1.499 . S
C394 C395 1.373 . S
C394 C396 1.389 . S
C395 H374 0.950 . S
C395 C394 1.373 . S
C395 C411 1.377 . S
C396 C394 1.389 . S
C396 C397 1.524 . S
C396 C410 1.377 . S
C397 C396 1.524 . S
C397 C398 1.397 . S
C397 C402 1.363 . S
C398 H375 0.950 . S
C398 C397 1.397 . S
C398 C399 1.334 . S
C399 H376 0.950 . S
C399 C398 1.334 . S
C399 C400 1.287 . S
C400 C399 1.287 . S
C400 C401 1.524 . S
C400 H419 0.913 . S
C401 H377 0.950 . S
C401 C400 1.524 . S
C401 C402 1.415 . S
C402 H378 0.950 . S
C402 C397 1.363 . S
C402 C401 1.415 . S
C403 H379 0.951 . S
C403 C404 1.366 . S
C403 C405 1.388 1_556 S
C404 C403 1.366 . S
C404 C408 1.385 1_556 S
C405 H380 0.951 . S
C405 C403 1.388 1_554 S
C405 C406 1.366 . S
C406 C405 1.366 . S
C406 C407 1.414 . S
C406 C409 1.499 . S
C407 H381 0.950 . S
C407 C406 1.414 . S
C407 C408 1.374 . S
C408 H382 0.950 . S
C408 C404 1.385 1_554 S
C408 C407 1.374 . S
C409 C406 1.499 . S
C409 C410 1.373 . S
C409 C411 1.389 . S
C410 H383 0.950 . S
C410 C396 1.377 . S
C410 C409 1.373 . S
C411 C395 1.377 . S
C411 C409 1.389 . S
C411 C412 1.524 . S
C412 C411 1.524 . S
C412 C413 1.397 . S
C412 C417 1.363 . S
C413 H384 0.950 . S
C413 C412 1.397 . S
C413 C414 1.334 . S
C414 H385 0.950 . S
C414 C413 1.334 . S
C414 C415 1.287 . S
C415 C414 1.287 . S
C415 C416 1.524 . S
C415 H418 0.999 . S
C416 H386 0.950 . S
C416 C415 1.524 . S
C416 C417 1.415 . S
C417 H387 0.950 . S
C417 C412 1.363 . S
C417 C416 1.415 . S
H418 C415 0.999 . S
H419 C400 0.913 . S
H420 C438 0.951 . S
H421 C440 0.951 . S
H422 C442 0.950 . S
H423 C443 0.950 . S
H424 C445 0.950 . S
H425 C448 0.950 . S
H426 C449 0.950 . S
H427 C451 0.950 . S
H428 C452 0.950 . S
H429 C453 0.951 . S
H430 C455 0.951 . S
H431 C457 0.950 . S
H432 C458 0.950 . S
H433 C460 0.950 . S
H434 C463 0.950 . S
H435 C464 0.950 . S
H436 C466 0.950 . S
H437 C467 0.950 . S
C438 H420 0.951 . S
C438 C439 1.366 . S
C438 C440 1.388 . S
C439 C438 1.366 . S
C439 C443 1.385 . S
C440 H421 0.951 . S
C440 C438 1.388 . S
C440 C441 1.366 . S
C441 C440 1.366 . S
C441 C442 1.414 . S
C441 C444 1.499 . S
C442 H422 0.950 . S
C442 C441 1.414 . S
C442 C443 1.374 . S
C443 H423 0.950 . S
C443 C439 1.385 . S
C443 C442 1.374 . S
C444 C441 1.499 . S
C444 C445 1.373 . S
C444 C446 1.389 . S
C445 H424 0.950 . S
C445 C444 1.373 . S
C445 C461 1.377 . S
C446 C444 1.389 . S
C446 C447 1.524 . S
C446 C460 1.377 . S
C447 C446 1.524 . S
C447 C448 1.397 . S
C447 C452 1.363 . S
C448 H425 0.950 . S
C448 C447 1.397 . S
C448 C449 1.334 . S
C449 H426 0.950 . S
C449 C448 1.334 . S
C449 C450 1.287 . S
C450 C449 1.287 . S
C450 C451 1.524 . S
C450 H469 0.913 . S
C451 H427 0.950 . S
C451 C450 1.524 . S
C451 C452 1.415 . S
C452 H428 0.950 . S
C452 C447 1.363 . S
C452 C451 1.415 . S
C453 H429 0.951 . S
C453 C454 1.366 . S
C453 C455 1.388 . S
C454 C453 1.366 . S
C454 C458 1.385 . S
C455 H430 0.951 . S
C455 C453 1.388 . S
C455 C456 1.366 . S
C456 C455 1.366 . S
C456 C457 1.414 . S
C456 C459 1.499 . S
C457 H431 0.950 . S
C457 C456 1.414 . S
C457 C458 1.374 . S
C458 H432 0.950 . S
C458 C454 1.385 . S
C458 C457 1.374 . S
C459 C456 1.499 . S
C459 C460 1.373 . S
C459 C461 1.389 . S
C460 H433 0.950 . S
C460 C446 1.377 . S
C460 C459 1.373 . S
C461 C445 1.377 . S
C461 C459 1.389 . S
C461 C462 1.524 . S
C462 C461 1.524 . S
C462 C463 1.397 . S
C462 C467 1.363 . S
C463 H434 0.950 . S
C463 C462 1.397 . S
C463 C464 1.334 . S
C464 H435 0.950 . S
C464 C463 1.334 . S
C464 C465 1.287 . S
C465 C464 1.287 . S
C465 C466 1.524 . S
C465 H468 0.999 . S
C466 H436 0.950 . S
C466 C465 1.524 . S
C466 C467 1.415 . S
C467 H437 0.950 . S
C467 C462 1.363 . S
C467 C466 1.415 . S
H468 C465 0.999 . S
H469 C450 0.913 . S
H470 C488 0.951 . S
H471 C490 0.951 . S
H472 C492 0.950 . S
H473 C493 0.950 . S
H474 C495 0.950 . S
H475 C498 0.950 . S
H476 C499 0.950 . S
H477 C501 0.950 . S
H478 C502 0.950 . S
H479 C503 0.951 . S
H480 C505 0.951 . S
H481 C507 0.950 . S
H482 C508 0.950 . S
H483 C510 0.950 . S
H484 C513 0.950 . S
H485 C514 0.950 . S
H486 C516 0.950 . S
H487 C517 0.950 . S
C488 H470 0.951 . S
C488 C489 1.366 . S
C488 C490 1.388 . S
C489 C488 1.366 . S
C489 C493 1.385 . S
C490 H471 0.951 . S
C490 C488 1.388 . S
C490 C491 1.366 . S
C491 C490 1.366 . S
C491 C492 1.414 . S
C491 C494 1.499 . S
C492 H472 0.950 . S
C492 C491 1.414 . S
C492 C493 1.374 . S
C493 H473 0.950 . S
C493 C489 1.385 . S
C493 C492 1.374 . S
C494 C491 1.499 . S
C494 C495 1.373 . S
C494 C496 1.389 . S
C495 H474 0.950 . S
C495 C494 1.373 . S
C495 C511 1.377 . S
C496 C494 1.389 . S
C496 C497 1.524 . S
C496 C510 1.377 . S
C497 C496 1.524 . S
C497 C498 1.397 . S
C497 C502 1.363 . S
C498 H475 0.950 . S
C498 C497 1.397 . S
C498 C499 1.334 . S
C499 H476 0.950 . S
C499 C498 1.334 . S
C499 C500 1.287 . S
C500 C499 1.287 . S
C500 C501 1.524 . S
C500 H519 0.913 . S
C501 H477 0.950 . S
C501 C500 1.524 . S
C501 C502 1.415 . S
C502 H478 0.950 . S
C502 C497 1.363 . S
C502 C501 1.415 . S
C503 H479 0.951 . S
C503 C504 1.366 . S
C503 C505 1.388 . S
C504 C503 1.366 . S
C504 C508 1.385 . S
C505 H480 0.951 . S
C505 C503 1.388 . S
C505 C506 1.366 . S
C506 C505 1.366 . S
C506 C507 1.414 . S
C506 C509 1.499 . S
C507 H481 0.950 . S
C507 C506 1.414 . S
C507 C508 1.374 . S
C508 H482 0.950 . S
C508 C504 1.385 . S
C508 C507 1.374 . S
C509 C506 1.499 . S
C509 C510 1.373 . S
C509 C511 1.389 . S
C510 H483 0.950 . S
C510 C496 1.377 . S
C510 C509 1.373 . S
C511 C495 1.377 . S
C511 C509 1.389 . S
C511 C512 1.524 . S
C512 C511 1.524 . S
C512 C513 1.397 . S
C512 C517 1.363 . S
C513 H484 0.950 . S
C513 C512 1.397 . S
C513 C514 1.334 . S
C514 H485 0.950 . S
C514 C513 1.334 . S
C514 C515 1.287 . S
C515 C514 1.287 . S
C515 C516 1.524 . S
C515 H518 0.999 . S
C516 H486 0.950 . S
C516 C515 1.524 . S
C516 C517 1.415 . S
C517 H487 0.950 . S
C517 C512 1.363 . S
C517 C516 1.415 . S
H518 C515 0.999 . S
H519 C500 0.913 . S
H520 C538 0.951 . S
H521 C540 0.951 . S
H522 C542 0.950 . S
H523 C543 0.950 . S
H524 C545 0.950 . S
H525 C548 0.950 . S
H526 C549 0.950 . S
H527 C551 0.950 . S
H528 C552 0.950 . S
H529 C553 0.939 1_656 S
H530 C555 0.951 . S
H531 C557 0.950 . S
H532 C558 0.950 . S
H533 C560 0.950 1_455 S
H534 C563 0.950 . S
H535 C564 0.950 1_556 S
H536 C566 0.950 . S
H537 C567 0.950 . S
C538 H520 0.951 . S
C538 C539 1.366 . S
C538 C540 1.388 . S
C539 C538 1.366 . S
C539 C543 1.385 . S
C540 H521 0.951 . S
C540 C538 1.388 . S
C540 C541 1.366 . S
C541 C540 1.366 . S
C541 C542 1.414 . S
C541 C544 1.499 . S
C542 H522 0.950 . S
C542 C541 1.414 . S
C542 C543 1.374 . S
C543 H523 0.950 . S
C543 C539 1.385 . S
C543 C542 1.374 . S
C544 C541 1.499 . S
C544 C545 1.373 . S
C544 C546 1.389 . S
C545 H524 0.950 . S
C545 C544 1.373 . S
C545 C561 1.377 . S
C546 C544 1.389 . S
C546 C547 1.531 . S
C546 C560 1.377 . S
C547 C546 1.531 . S
C547 C548 1.403 . S
C547 C552 1.351 1_655 S
C548 H525 0.950 . S
C548 C547 1.403 . S
C548 C549 1.334 . S
C549 H526 0.950 . S
C549 C548 1.334 . S
C549 C550 1.287 1_655 S
C550 C549 1.287 1_455 S
C550 C551 1.524 . S
C550 H569 0.913 . S
C551 H527 0.950 . S
C551 C550 1.524 . S
C551 C552 1.415 . S
C552 H528 0.950 . S
C552 C547 1.351 1_455 S
C552 C551 1.415 . S
C553 H529 0.939 1_454 S
C553 C554 1.389 . S
C553 C555 1.376 1_455 S
C554 C553 1.389 . S
C554 C558 1.385 . S
C555 H530 0.951 . S
C555 C553 1.376 1_655 S
C555 C556 1.367 . S
C556 C555 1.367 . S
C556 C557 1.410 1_655 S
C556 C559 1.500 . S
C557 H531 0.950 . S
C557 C556 1.410 1_455 S
C557 C558 1.374 . S
C558 H532 0.950 . S
C558 C554 1.385 . S
C558 C557 1.374 . S
C559 C556 1.500 . S
C559 C560 1.373 . S
C559 C561 1.389 . S
C560 H533 0.950 1_655 S
C560 C546 1.377 . S
C560 C559 1.373 . S
C561 C545 1.377 . S
C561 C559 1.389 . S
C561 C562 1.524 . S
C562 C561 1.524 . S
C562 C563 1.397 . S
C562 C567 1.363 . S
C563 H534 0.950 . S
C563 C562 1.397 . S
C563 C564 1.334 . S
C564 H535 0.950 1_554 S
C564 C563 1.334 . S
C564 C565 1.287 . S
C565 C564 1.287 . S
C565 C566 1.524 . S
C565 H568 0.999 1_554 S
C566 H536 0.950 . S
C566 C565 1.524 . S
C566 C567 1.415 . S
C567 H537 0.950 . S
C567 C562 1.363 . S
C567 C566 1.415 . S
H568 C565 0.999 1_556 S
H569 C550 0.913 . S
H570 C588 0.951 . S
H571 C590 0.951 . S
H572 C592 0.950 . S
H573 C593 0.950 . S
H574 C595 0.950 . S
H575 C598 0.950 . S
H576 C599 0.950 . S
H577 C601 0.950 . S
H578 C602 0.950 . S
H579 C603 0.951 . S
H580 C605 0.951 . S
H581 C607 0.950 . S
H582 C608 0.950 . S
H583 C610 0.950 . S
H584 C613 0.950 . S
H585 C614 0.950 1_455 S
H586 C616 0.950 . S
H587 C617 0.950 . S
C588 H570 0.951 . S
C588 C589 1.366 . S
C588 C590 1.388 . S
C589 C588 1.366 . S
C589 C593 1.385 . S
C590 H571 0.951 . S
C590 C588 1.388 . S
C590 C591 1.366 . S
C591 C590 1.366 . S
C591 C592 1.414 . S
C591 C594 1.499 . S
C592 H572 0.950 . S
C592 C591 1.414 . S
C592 C593 1.374 . S
C593 H573 0.950 . S
C593 C589 1.385 . S
C593 C592 1.374 . S
C594 C591 1.499 . S
C594 C595 1.373 . S
C594 C596 1.389 . S
C595 H574 0.950 . S
C595 C594 1.373 . S
C595 C611 1.377 . S
C596 C594 1.389 . S
C596 C597 1.524 . S
C596 C610 1.377 . S
C597 C596 1.524 . S
C597 C598 1.397 . S
C597 C602 1.363 . S
C598 H575 0.950 . S
C598 C597 1.397 . S
C598 C599 1.334 . S
C599 H576 0.950 . S
C599 C598 1.334 . S
C599 C600 1.287 . S
C600 C599 1.287 . S
C600 C601 1.524 . S
C600 H619 0.913 . S
C601 H577 0.950 . S
C601 C600 1.524 . S
C601 C602 1.415 . S
C602 H578 0.950 . S
C602 C597 1.363 . S
C602 C601 1.415 . S
C603 H579 0.951 . S
C603 C604 1.366 . S
C603 C605 1.388 1_554 S
C604 C603 1.366 . S
C604 C608 1.385 1_554 S
C605 H580 0.951 . S
C605 C603 1.388 1_556 S
C605 C606 1.366 . S
C606 C605 1.366 . S
C606 C607 1.414 . S
C606 C609 1.499 . S
C607 H581 0.950 . S
C607 C606 1.414 . S
C607 C608 1.374 . S
C608 H582 0.950 . S
C608 C604 1.385 1_556 S
C608 C607 1.374 . S
C609 C606 1.499 . S
C609 C610 1.373 . S
C609 C611 1.389 . S
C610 H583 0.950 . S
C610 C596 1.377 . S
C610 C609 1.373 . S
C611 C595 1.377 . S
C611 C609 1.389 . S
C611 C612 1.524 . S
C612 C611 1.524 . S
C612 C613 1.397 . S
C612 C617 1.363 . S
C613 H584 0.950 . S
C613 C612 1.397 . S
C613 C614 1.334 . S
C614 H585 0.950 1_655 S
C614 C613 1.334 . S
C614 C615 1.287 . S
C615 C614 1.287 . S
C615 C616 1.524 . S
C615 H618 0.999 . S
C616 H586 0.950 . S
C616 C615 1.524 . S
C616 C617 1.415 . S
C617 H587 0.950 . S
C617 C612 1.363 . S
C617 C616 1.415 . S
H618 C615 0.999 . S
H619 C600 0.913 . S
H620 C638 0.951 . S
H621 C640 0.951 . S
H622 C642 0.950 . S
H623 C643 0.950 . S
H624 C645 0.950 . S
H625 C648 0.950 . S
H626 C649 0.950 . S
H627 C651 0.950 . S
H628 C652 0.950 . S
H629 C653 0.951 . S
H630 C655 0.951 . S
H631 C657 0.950 . S
H632 C658 0.950 . S
H633 C660 0.950 . S
H634 C663 0.950 . S
H635 C664 0.950 . S
H636 C666 0.950 . S
H637 C667 0.950 . S
C638 H620 0.951 . S
C638 C639 1.366 . S
C638 C640 1.388 . S
C639 C638 1.366 . S
C639 C643 1.385 . S
C640 H621 0.951 . S
C640 C638 1.388 . S
C640 C641 1.366 . S
C641 C640 1.366 . S
C641 C642 1.414 . S
C641 C644 1.499 . S
C642 H622 0.950 . S
C642 C641 1.414 . S
C642 C643 1.374 . S
C643 H623 0.950 . S
C643 C639 1.385 . S
C643 C642 1.374 . S
C644 C641 1.499 . S
C644 C645 1.373 . S
C644 C646 1.389 . S
C645 H624 0.950 . S
C645 C644 1.373 . S
C645 C661 1.377 . S
C646 C644 1.389 . S
C646 C647 1.524 . S
C646 C660 1.377 . S
C647 C646 1.524 . S
C647 C648 1.397 . S
C647 C652 1.363 . S
C648 H625 0.950 . S
C648 C647 1.397 . S
C648 C649 1.334 . S
C649 H626 0.950 . S
C649 C648 1.334 . S
C649 C650 1.287 . S
C650 C649 1.287 . S
C650 C651 1.524 . S
C650 H669 0.913 . S
C651 H627 0.950 . S
C651 C650 1.524 . S
C651 C652 1.415 . S
C652 H628 0.950 . S
C652 C647 1.363 . S
C652 C651 1.415 . S
C653 H629 0.951 . S
C653 C654 1.366 . S
C653 C655 1.388 . S
C654 C653 1.366 . S
C654 C658 1.385 . S
C655 H630 0.951 . S
C655 C653 1.388 . S
C655 C656 1.366 . S
C656 C655 1.366 . S
C656 C657 1.414 . S
C656 C659 1.499 . S
C657 H631 0.950 . S
C657 C656 1.414 . S
C657 C658 1.374 . S
C658 H632 0.950 . S
C658 C654 1.385 . S
C658 C657 1.374 . S
C659 C656 1.499 . S
C659 C660 1.373 . S
C659 C661 1.389 . S
C660 H633 0.950 . S
C660 C646 1.377 . S
C660 C659 1.373 . S
C661 C645 1.377 . S
C661 C659 1.389 . S
C661 C662 1.524 . S
C662 C661 1.524 . S
C662 C663 1.397 . S
C662 C667 1.363 . S
C663 H634 0.950 . S
C663 C662 1.397 . S
C663 C664 1.334 . S
C664 H635 0.950 . S
C664 C663 1.334 . S
C664 C665 1.287 . S
C665 C664 1.287 . S
C665 C666 1.524 . S
C665 H668 0.999 . S
C666 H636 0.950 . S
C666 C665 1.524 . S
C666 C667 1.415 . S
C667 H637 0.950 . S
C667 C662 1.363 . S
C667 C666 1.415 . S
H668 C665 0.999 . S
H669 C650 0.913 . S
H670 C688 0.951 . S
H671 C690 0.951 . S
H672 C692 0.950 . S
H673 C693 0.950 . S
H674 C695 0.950 . S
H675 C698 0.950 . S
H676 C699 0.950 . S
H677 C701 0.950 . S
H678 C702 0.950 . S
H679 C703 0.951 . S
H680 C705 0.951 . S
H681 C707 0.950 . S
H682 C708 0.950 . S
H683 C710 0.950 . S
H684 C713 0.950 . S
H685 C714 0.950 . S
H686 C716 0.950 . S
H687 C717 0.950 . S
C688 H670 0.951 . S
C688 C689 1.366 . S
C688 C690 1.388 . S
C689 C688 1.366 . S
C689 C693 1.385 . S
C690 H671 0.951 . S
C690 C688 1.388 . S
C690 C691 1.366 . S
C691 C690 1.366 . S
C691 C692 1.414 . S
C691 C694 1.499 . S
C692 H672 0.950 . S
C692 C691 1.414 . S
C692 C693 1.374 . S
C693 H673 0.950 . S
C693 C689 1.385 . S
C693 C692 1.374 . S
C694 C691 1.499 . S
C694 C695 1.373 . S
C694 C696 1.389 . S
C695 H674 0.950 . S
C695 C694 1.373 . S
C695 C711 1.377 . S
C696 C694 1.389 . S
C696 C697 1.524 . S
C696 C710 1.377 . S
C697 C696 1.524 . S
C697 C698 1.397 . S
C697 C702 1.363 . S
C698 H675 0.950 . S
C698 C697 1.397 . S
C698 C699 1.334 . S
C699 H676 0.950 . S
C699 C698 1.334 . S
C699 C700 1.287 . S
C700 C699 1.287 . S
C700 C701 1.524 . S
C700 H719 0.913 . S
C701 H677 0.950 . S
C701 C700 1.524 . S
C701 C702 1.415 . S
C702 H678 0.950 . S
C702 C697 1.363 . S
C702 C701 1.415 . S
C703 H679 0.951 . S
C703 C704 1.366 . S
C703 C705 1.388 . S
C704 C703 1.366 . S
C704 C708 1.385 . S
C705 H680 0.951 . S
C705 C703 1.388 . S
C705 C706 1.366 . S
C706 C705 1.366 . S
C706 C707 1.414 . S
C706 C709 1.499 . S
C707 H681 0.950 . S
C707 C706 1.414 . S
C707 C708 1.374 . S
C708 H682 0.950 . S
C708 C704 1.385 . S
C708 C707 1.374 . S
C709 C706 1.499 . S
C709 C710 1.373 . S
C709 C711 1.389 . S
C710 H683 0.950 . S
C710 C696 1.377 . S
C710 C709 1.373 . S
C711 C695 1.377 . S
C711 C709 1.389 . S
C711 C712 1.524 . S
C712 C711 1.524 . S
C712 C713 1.397 . S
C712 C717 1.363 . S
C713 H684 0.950 . S
C713 C712 1.397 . S
C713 C714 1.334 . S
C714 H685 0.950 . S
C714 C713 1.334 . S
C714 C715 1.287 . S
C715 C714 1.287 . S
C715 C716 1.524 . S
C715 H718 0.999 . S
C716 H686 0.950 . S
C716 C715 1.524 . S
C716 C717 1.415 . S
C717 H687 0.950 . S
C717 C712 1.363 . S
C717 C716 1.415 . S
H718 C715 0.999 . S
H719 C700 0.913 . S
H720 C738 0.951 . S
H721 C740 0.951 . S
H722 C742 0.950 . S
H723 C743 0.950 . S
H724 C745 0.950 . S
H725 C748 0.950 . S
H726 C749 0.950 . S
H727 C751 0.950 . S
H728 C752 0.950 . S
H729 C753 0.951 . S
H730 C755 0.951 . S
H731 C757 0.950 . S
H732 C758 0.950 . S
H733 C760 0.950 . S
H734 C763 0.950 . S
H735 C764 0.950 . S
H736 C766 0.950 . S
H737 C767 0.950 . S
C738 H720 0.951 . S
C738 C739 1.366 . S
C738 C740 1.388 . S
C739 C738 1.366 . S
C739 C743 1.385 . S
C740 H721 0.951 . S
C740 C738 1.388 . S
C740 C741 1.366 . S
C741 C740 1.366 . S
C741 C742 1.414 . S
C741 C744 1.499 . S
C742 H722 0.950 . S
C742 C741 1.414 . S
C742 C743 1.374 . S
C743 H723 0.950 . S
C743 C739 1.385 . S
C743 C742 1.374 . S
C744 C741 1.499 . S
C744 C745 1.373 . S
C744 C746 1.389 . S
C745 H724 0.950 . S
C745 C744 1.373 . S
C745 C761 1.377 . S
C746 C744 1.389 . S
C746 C747 1.524 . S
C746 C760 1.377 . S
C747 C746 1.524 . S
C747 C748 1.397 . S
C747 C752 1.363 . S
C748 H725 0.950 . S
C748 C747 1.397 . S
C748 C749 1.334 . S
C749 H726 0.950 . S
C749 C748 1.334 . S
C749 C750 1.287 . S
C750 C749 1.287 . S
C750 C751 1.524 . S
C750 H769 0.913 . S
C751 H727 0.950 . S
C751 C750 1.524 . S
C751 C752 1.415 . S
C752 H728 0.950 . S
C752 C747 1.363 . S
C752 C751 1.415 . S
C753 H729 0.951 . S
C753 C754 1.366 . S
C753 C755 1.388 . S
C754 C753 1.366 . S
C754 C758 1.385 . S
C755 H730 0.951 . S
C755 C753 1.388 . S
C755 C756 1.366 . S
C756 C755 1.366 . S
C756 C757 1.414 . S
C756 C759 1.499 . S
C757 H731 0.950 . S
C757 C756 1.414 . S
C757 C758 1.374 . S
C758 H732 0.950 . S
C758 C754 1.385 . S
C758 C757 1.374 . S
C759 C756 1.499 . S
C759 C760 1.373 . S
C759 C761 1.389 . S
C760 H733 0.950 . S
C760 C746 1.377 . S
C760 C759 1.373 . S
C761 C745 1.377 . S
C761 C759 1.389 . S
C761 C762 1.524 . S
C762 C761 1.524 . S
C762 C763 1.397 . S
C762 C767 1.363 . S
C763 H734 0.950 . S
C763 C762 1.397 . S
C763 C764 1.334 . S
C764 H735 0.950 . S
C764 C763 1.334 . S
C764 C765 1.287 . S
C765 C764 1.287 . S
C765 C766 1.524 . S
C765 H768 0.999 . S
C766 H736 0.950 . S
C766 C765 1.524 . S
C766 C767 1.415 . S
C767 H737 0.950 . S
C767 C762 1.363 . S
C767 C766 1.415 . S
H768 C765 0.999 . S
H769 C750 0.913 . S
H770 C788 0.951 . S
H771 C790 0.951 . S
H772 C792 0.950 . S
H773 C793 0.950 . S
H774 C795 0.950 . S
H775 C798 0.950 . S
H776 C799 0.950 . S
H777 C801 0.950 . S
H778 C802 0.950 . S
H779 C803 0.951 . S
H780 C805 0.951 . S
H781 C807 0.950 . S
H782 C808 0.950 . S
H783 C810 0.950 . S
H784 C813 0.950 . S
H785 C814 0.950 . S
H786 C816 0.950 . S
H787 C817 0.950 . S
C788 H770 0.951 . S
C788 C789 1.366 . S
C788 C790 1.388 . S
C789 C788 1.366 . S
C789 C793 1.385 . S
C790 H771 0.951 . S
C790 C788 1.388 . S
C790 C791 1.366 . S
C791 C790 1.366 . S
C791 C792 1.414 . S
C791 C794 1.499 . S
C792 H772 0.950 . S
C792 C791 1.414 . S
C792 C793 1.374 . S
C793 H773 0.950 . S
C793 C789 1.385 . S
C793 C792 1.374 . S
C794 C791 1.499 . S
C794 C795 1.373 . S
C794 C796 1.389 . S
C795 H774 0.950 . S
C795 C794 1.373 . S
C795 C811 1.377 . S
C796 C794 1.389 . S
C796 C797 1.524 . S
C796 C810 1.377 . S
C797 C796 1.524 . S
C797 C798 1.397 . S
C797 C802 1.363 . S
C798 H775 0.950 . S
C798 C797 1.397 . S
C798 C799 1.334 . S
C799 H776 0.950 . S
C799 C798 1.334 . S
C799 C800 1.287 . S
C800 C799 1.287 . S
C800 C801 1.524 . S
C800 H819 0.913 . S
C801 H777 0.950 . S
C801 C800 1.524 . S
C801 C802 1.415 . S
C802 H778 0.950 . S
C802 C797 1.363 . S
C802 C801 1.415 . S
C803 H779 0.951 . S
C803 C804 1.366 . S
C803 C805 1.388 . S
C804 C803 1.366 . S
C804 C808 1.385 . S
C805 H780 0.951 . S
C805 C803 1.388 . S
C805 C806 1.366 . S
C806 C805 1.366 . S
C806 C807 1.414 . S
C806 C809 1.499 . S
C807 H781 0.950 . S
C807 C806 1.414 . S
C807 C808 1.374 . S
C808 H782 0.950 . S
C808 C804 1.385 . S
C808 C807 1.374 . S
C809 C806 1.499 . S
C809 C810 1.373 . S
C809 C811 1.389 . S
C810 H783 0.950 . S
C810 C796 1.377 . S
C810 C809 1.373 . S
C811 C795 1.377 . S
C811 C809 1.389 . S
C811 C812 1.524 . S
C812 C811 1.524 . S
C812 C813 1.397 . S
C812 C817 1.363 . S
C813 H784 0.950 . S
C813 C812 1.397 . S
C813 C814 1.334 . S
C814 H785 0.950 . S
C814 C813 1.334 . S
C814 C815 1.287 . S
C815 C814 1.287 . S
C815 C816 1.524 . S
C815 H818 0.999 . S
C816 H786 0.950 . S
C816 C815 1.524 . S
C816 C817 1.415 . S
C817 H787 0.950 . S
C817 C812 1.363 . S
C817 C816 1.415 . S
H818 C815 0.999 . S
H819 C800 0.913 . S
H820 C838 0.951 1_654 S
H821 C840 0.951 . S
H822 C842 0.950 . S
H823 C843 0.950 . S
H824 C845 0.950 . S
H825 C848 0.950 . S
H826 C849 0.950 . S
H827 C851 0.950 . S
H828 C852 0.950 . S
H829 C853 0.951 . S
H830 C855 0.951 . S
H831 C857 0.950 . S
H832 C858 0.950 . S
H833 C860 0.950 . S
H834 C863 0.950 . S
H835 C864 0.950 . S
H836 C866 0.950 . S
H837 C867 0.950 . S
C838 H820 0.951 1_456 S
C838 C839 1.366 . S
C838 C840 1.388 1_455 S
C839 C838 1.366 . S
C839 C843 1.385 . S
C840 H821 0.951 . S
C840 C838 1.388 1_655 S
C840 C841 1.350 1_655 S
C841 C840 1.350 1_455 S
C841 C842 1.453 . S
C841 C844 1.477 1_455 S
C842 H822 0.950 . S
C842 C841 1.453 . S
C842 C843 1.374 . S
C843 H823 0.950 . S
C843 C839 1.385 . S
C843 C842 1.374 . S
C844 C841 1.477 1_655 S
C844 C845 1.373 . S
C844 C846 1.389 . S
C845 H824 0.950 . S
C845 C844 1.373 . S
C845 C861 1.377 . S
C846 C844 1.389 . S
C846 C847 1.524 . S
C846 C860 1.377 . S
C847 C846 1.524 . S
C847 C848 1.397 1_655 S
C847 C852 1.363 . S
C848 H825 0.950 . S
C848 C847 1.397 1_455 S
C848 C849 1.334 . S
C849 H826 0.950 . S
C849 C848 1.334 . S
C849 C850 1.287 . S
C850 C849 1.287 . S
C850 C851 1.524 1_455 S
C850 H869 0.913 . S
C851 H827 0.950 . S
C851 C850 1.524 1_655 S
C851 C852 1.415 . S
C852 H828 0.950 . S
C852 C847 1.363 . S
C852 C851 1.415 . S
C853 H829 0.951 . S
C853 C854 1.366 . S
C853 C855 1.388 . S
C854 C853 1.366 . S
C854 C858 1.385 . S
C855 H830 0.951 . S
C855 C853 1.388 . S
C855 C856 1.366 . S
C856 C855 1.366 . S
C856 C857 1.414 . S
C856 C859 1.499 . S
C857 H831 0.950 . S
C857 C856 1.414 . S
C857 C858 1.374 . S
C858 H832 0.950 . S
C858 C854 1.385 . S
C858 C857 1.374 . S
C859 C856 1.499 . S
C859 C860 1.373 . S
C859 C861 1.389 . S
C860 H833 0.950 . S
C860 C846 1.377 . S
C860 C859 1.373 . S
C861 C845 1.377 . S
C861 C859 1.389 . S
C861 C862 1.524 . S
C862 C861 1.524 . S
C862 C863 1.397 . S
C862 C867 1.363 . S
C863 H834 0.950 . S
C863 C862 1.397 . S
C863 C864 1.334 . S
C864 H835 0.950 . S
C864 C863 1.334 . S
C864 C865 1.287 . S
C865 C864 1.287 . S
C865 C866 1.524 . S
C865 H868 0.999 . S
C866 H836 0.950 . S
C866 C865 1.524 . S
C866 C867 1.415 . S
C867 H837 0.950 . S
C867 C862 1.363 . S
C867 C866 1.415 . S
H868 C865 0.999 . S
H869 C850 0.913 . S
H870 C888 0.951 . S
H871 C890 0.951 . S
H872 C892 0.950 . S
H873 C893 0.950 . S
H874 C895 0.950 . S
H875 C898 0.950 . S
H876 C899 0.950 . S
H877 C901 0.950 . S
H878 C902 0.950 . S
H879 C903 0.951 1_556 S
H880 C905 0.951 . S
H881 C907 0.950 . S
H882 C908 0.950 1_556 S
H883 C910 0.950 . S
H884 C913 0.950 . S
H885 C914 0.950 . S
H886 C916 0.950 . S
H887 C917 0.950 . S
C888 H870 0.951 . S
C888 C889 1.366 . S
C888 C890 1.388 . S
C889 C888 1.366 . S
C889 C893 1.385 . S
C890 H871 0.951 . S
C890 C888 1.388 . S
C890 C891 1.366 . S
C891 C890 1.366 . S
C891 C892 1.414 . S
C891 C894 1.499 . S
C892 H872 0.950 . S
C892 C891 1.414 . S
C892 C893 1.374 . S
C893 H873 0.950 . S
C893 C889 1.385 . S
C893 C892 1.374 . S
C894 C891 1.499 . S
C894 C895 1.373 . S
C894 C896 1.389 . S
C895 H874 0.950 . S
C895 C894 1.373 . S
C895 C911 1.377 . S
C896 C894 1.389 . S
C896 C897 1.524 . S
C896 C910 1.377 . S
C897 C896 1.524 . S
C897 C898 1.397 . S
C897 C902 1.363 . S
C898 H875 0.950 . S
C898 C897 1.397 . S
C898 C899 1.334 . S
C899 H876 0.950 . S
C899 C898 1.334 . S
C899 C900 1.287 . S
C900 C899 1.287 . S
C900 C901 1.524 . S
C900 H919 0.913 . S
C901 H877 0.950 . S
C901 C900 1.524 . S
C901 C902 1.415 . S
C902 H878 0.950 . S
C902 C897 1.363 . S
C902 C901 1.415 . S
C903 H879 0.951 1_554 S
C903 C904 1.366 1_554 S
C903 C905 1.388 . S
C904 C903 1.366 1_556 S
C904 C908 1.385 1_556 S
C905 H880 0.951 . S
C905 C903 1.388 . S
C905 C906 1.366 . S
C906 C905 1.366 . S
C906 C907 1.414 . S
C906 C909 1.499 . S
C907 H881 0.950 . S
C907 C906 1.414 . S
C907 C908 1.374 . S
C908 H882 0.950 1_554 S
C908 C904 1.385 1_554 S
C908 C907 1.374 . S
C909 C906 1.499 . S
C909 C910 1.373 . S
C909 C911 1.389 . S
C910 H883 0.950 . S
C910 C896 1.377 . S
C910 C909 1.373 . S
C911 C895 1.377 . S
C911 C909 1.389 . S
C911 C912 1.524 . S
C912 C911 1.524 . S
C912 C913 1.397 . S
C912 C917 1.363 . S
C913 H884 0.950 . S
C913 C912 1.397 . S
C913 C914 1.334 . S
C914 H885 0.950 . S
C914 C913 1.334 . S
C914 C915 1.287 . S
C915 C914 1.287 . S
C915 C916 1.524 . S
C915 H918 0.999 . S
C916 H886 0.950 . S
C916 C915 1.524 . S
C916 C917 1.415 . S
C917 H887 0.950 . S
C917 C912 1.363 . S
C917 C916 1.415 . S
H918 C915 0.999 . S
H919 C900 0.913 . S
H920 C938 0.951 . S
H921 C940 0.951 . S
H922 C942 0.950 . S
H923 C943 0.950 . S
H924 C945 0.950 . S
H925 C948 0.950 . S
H926 C949 0.950 . S
H927 C951 0.950 . S
H928 C952 0.950 . S
H929 C953 0.951 . S
H930 C955 0.951 . S
H931 C957 0.950 . S
H932 C958 0.950 . S
H933 C960 0.950 . S
H934 C963 0.950 . S
H935 C964 0.950 . S
H936 C966 0.950 . S
H937 C967 0.950 . S
C938 H920 0.951 . S
C938 C939 1.366 . S
C938 C940 1.388 . S
C939 C938 1.366 . S
C939 C943 1.385 . S
C940 H921 0.951 . S
C940 C938 1.388 . S
C940 C941 1.366 . S
C941 C940 1.366 . S
C941 C942 1.414 . S
C941 C944 1.499 . S
C942 H922 0.950 . S
C942 C941 1.414 . S
C942 C943 1.374 . S
C943 H923 0.950 . S
C943 C939 1.385 . S
C943 C942 1.374 . S
C944 C941 1.499 . S
C944 C945 1.373 . S
C944 C946 1.389 . S
C945 H924 0.950 . S
C945 C944 1.373 . S
C945 C961 1.377 . S
C946 C944 1.389 . S
C946 C947 1.524 . S
C946 C960 1.377 . S
C947 C946 1.524 . S
C947 C948 1.397 . S
C947 C952 1.363 . S
C948 H925 0.950 . S
C948 C947 1.397 . S
C948 C949 1.334 . S
C949 H926 0.950 . S
C949 C948 1.334 . S
C949 C950 1.287 . S
C950 C949 1.287 . S
C950 C951 1.524 . S
C950 H969 0.913 . S
C951 H927 0.950 . S
C951 C950 1.524 . S
C951 C952 1.415 . S
C952 H928 0.950 . S
C952 C947 1.363 . S
C952 C951 1.415 . S
C953 H929 0.951 . S
C953 C954 1.366 . S
C953 C955 1.388 . S
C954 C953 1.366 . S
C954 C958 1.385 . S
C955 H930 0.951 . S
C955 C953 1.388 . S
C955 C956 1.366 . S
C956 C955 1.366 . S
C956 C957 1.414 . S
C956 C959 1.499 . S
C957 H931 0.950 . S
C957 C956 1.414 . S
C957 C958 1.374 . S
C958 H932 0.950 . S
C958 C954 1.385 . S
C958 C957 1.374 . S
C959 C956 1.499 . S
C959 C960 1.373 . S
C959 C961 1.389 . S
C960 H933 0.950 . S
C960 C946 1.377 . S
C960 C959 1.373 . S
C961 C945 1.377 . S
C961 C959 1.389 . S
C961 C962 1.524 . S
C962 C961 1.524 . S
C962 C963 1.397 . S
C962 C967 1.363 . S
C963 H934 0.950 . S
C963 C962 1.397 . S
C963 C964 1.334 . S
C964 H935 0.950 . S
C964 C963 1.334 . S
C964 C965 1.287 . S
C965 C964 1.287 . S
C965 C966 1.524 . S
C965 H968 0.999 . S
C966 H936 0.950 . S
C966 C965 1.524 . S
C966 C967 1.415 . S
C967 H937 0.950 . S
C967 C962 1.363 . S
C967 C966 1.415 . S
H968 C965 0.999 . S
H969 C950 0.913 . S
H970 C988 0.951 . S
H971 C990 0.951 . S
H972 C992 0.950 . S
H973 C993 0.950 . S
H974 C995 0.950 . S
H975 C998 0.950 . S
H976 C999 0.950 . S
H977 C1001 0.950 . S
H978 C1002 0.950 . S
H979 C1003 0.951 . S
H980 C1005 0.951 . S
H981 C1007 0.950 . S
H982 C1008 0.950 . S
H983 C1010 0.950 . S
H984 C1013 0.950 . S
H985 C1014 0.950 . S
H986 C1016 0.950 . S
H987 C1017 0.950 . S
C988 H970 0.951 . S
C988 C989 1.366 . S
C988 C990 1.388 . S
C989 C988 1.366 . S
C989 C993 1.385 . S
C990 H971 0.951 . S
C990 C988 1.388 . S
C990 C991 1.366 . S
C991 C990 1.366 . S
C991 C992 1.414 . S
C991 C994 1.499 . S
C992 H972 0.950 . S
C992 C991 1.414 . S
C992 C993 1.374 . S
C993 H973 0.950 . S
C993 C989 1.385 . S
C993 C992 1.374 . S
C994 C991 1.499 . S
C994 C995 1.373 . S
C994 C996 1.389 . S
C995 H974 0.950 . S
C995 C994 1.373 . S
C995 C1011 1.377 . S
C996 C994 1.389 . S
C996 C997 1.524 . S
C996 C1010 1.377 . S
C997 C996 1.524 . S
C997 C998 1.397 . S
C997 C1002 1.363 . S
C998 H975 0.950 . S
C998 C997 1.397 . S
C998 C999 1.334 . S
C999 H976 0.950 . S
C999 C998 1.334 . S
C999 C1000 1.287 . S
C1000 C999 1.287 . S
C1000 C1001 1.524 . S
C1000 H1019 0.913 . S
C1001 H977 0.950 . S
C1001 C1000 1.524 . S
C1001 C1002 1.415 . S
C1002 H978 0.950 . S
C1002 C997 1.363 . S
C1002 C1001 1.415 . S
C1003 H979 0.951 . S
C1003 C1004 1.366 . S
C1003 C1005 1.388 . S
C1004 C1003 1.366 . S
C1004 C1008 1.385 . S
C1005 H980 0.951 . S
C1005 C1003 1.388 . S
C1005 C1006 1.366 . S
C1006 C1005 1.366 . S
C1006 C1007 1.414 . S
C1006 C1009 1.499 . S
C1007 H981 0.950 . S
C1007 C1006 1.414 . S
C1007 C1008 1.374 . S
C1008 H982 0.950 . S
C1008 C1004 1.385 . S
C1008 C1007 1.374 . S
C1009 C1006 1.499 . S
C1009 C1010 1.373 . S
C1009 C1011 1.389 . S
C1010 H983 0.950 . S
C1010 C996 1.377 . S
C1010 C1009 1.373 . S
C1011 C995 1.377 . S
C1011 C1009 1.389 . S
C1011 C1012 1.524 . S
C1012 C1011 1.524 . S
C1012 C1013 1.397 . S
C1012 C1017 1.363 . S
C1013 H984 0.950 . S
C1013 C1012 1.397 . S
C1013 C1014 1.334 . S
C1014 H985 0.950 . S
C1014 C1013 1.334 . S
C1014 C1015 1.287 . S
C1015 C1014 1.287 . S
C1015 C1016 1.524 . S
C1015 H1018 0.999 . S
C1016 H986 0.950 . S
C1016 C1015 1.524 . S
C1016 C1017 1.415 . S
C1017 H987 0.950 . S
C1017 C1012 1.363 . S
C1017 C1016 1.415 . S
H1018 C1015 0.999 . S
H1019 C1000 0.913 . S
H1020 C1038 0.951 . S
H1021 C1040 0.951 . S
H1022 C1042 0.950 . S
H1023 C1043 0.950 . S
H1024 C1045 0.950 . S
H1025 C1048 0.950 . S
H1026 C1049 0.950 . S
H1027 C1051 0.950 . S
H1028 C1052 0.950 . S
H1029 C1053 0.951 . S
H1030 C1055 0.951 . S
H1031 C1057 0.950 . S
H1032 C1058 0.950 1_556 S
H1033 C1060 0.950 . S
H1034 C1063 0.950 . S
H1035 C1064 0.950 . S
H1036 C1066 0.950 . S
H1037 C1067 0.950 . S
C1038 H1020 0.951 . S
C1038 C1039 1.366 . S
C1038 C1040 1.388 . S
C1039 C1038 1.366 . S
C1039 C1043 1.385 . S
C1040 H1021 0.951 . S
C1040 C1038 1.388 . S
C1040 C1041 1.366 . S
C1041 C1040 1.366 . S
C1041 C1042 1.414 . S
C1041 C1044 1.499 . S
C1042 H1022 0.950 . S
C1042 C1041 1.414 . S
C1042 C1043 1.374 . S
C1043 H1023 0.950 . S
C1043 C1039 1.385 . S
C1043 C1042 1.374 . S
C1044 C1041 1.499 . S
C1044 C1045 1.373 . S
C1044 C1046 1.389 . S
C1045 H1024 0.950 . S
C1045 C1044 1.373 . S
C1045 C1061 1.377 . S
C1046 C1044 1.389 . S
C1046 C1047 1.524 . S
C1046 C1060 1.377 . S
C1047 C1046 1.524 . S
C1047 C1048 1.397 . S
C1047 C1052 1.363 . S
C1048 H1025 0.950 . S
C1048 C1047 1.397 . S
C1048 C1049 1.334 . S
C1049 H1026 0.950 . S
C1049 C1048 1.334 . S
C1049 C1050 1.287 . S
C1050 C1049 1.287 . S
C1050 C1051 1.524 . S
C1050 H1069 0.913 . S
C1051 H1027 0.950 . S
C1051 C1050 1.524 . S
C1051 C1052 1.415 . S
C1052 H1028 0.950 . S
C1052 C1047 1.363 . S
C1052 C1051 1.415 . S
C1053 H1029 0.951 . S
C1053 C1054 1.366 . S
C1053 C1055 1.388 . S
C1054 C1053 1.366 . S
C1054 C1058 1.385 . S
C1055 H1030 0.951 . S
C1055 C1053 1.388 . S
C1055 C1056 1.366 . S
C1056 C1055 1.366 . S
C1056 C1057 1.414 . S
C1056 C1059 1.499 . S
C1057 H1031 0.950 . S
C1057 C1056 1.414 . S
C1057 C1058 1.374 . S
C1058 H1032 0.950 1_554 S
C1058 C1054 1.385 . S
C1058 C1057 1.374 . S
C1059 C1056 1.499 . S
C1059 C1060 1.373 . S
C1059 C1061 1.389 . S
C1060 H1033 0.950 . S
C1060 C1046 1.377 . S
C1060 C1059 1.373 . S
C1061 C1045 1.377 . S
C1061 C1059 1.389 . S
C1061 C1062 1.524 . S
C1062 C1061 1.524 . S
C1062 C1063 1.397 . S
C1062 C1067 1.363 . S
C1063 H1034 0.950 . S
C1063 C1062 1.397 . S
C1063 C1064 1.334 . S
C1064 H1035 0.950 . S
C1064 C1063 1.334 . S
C1064 C1065 1.287 . S
C1065 C1064 1.287 . S
C1065 C1066 1.524 . S
C1065 H1068 0.999 . S
C1066 H1036 0.950 . S
C1066 C1065 1.524 . S
C1066 C1067 1.415 . S
C1067 H1037 0.950 . S
C1067 C1062 1.363 . S
C1067 C1066 1.415 . S
H1068 C1065 0.999 . S
H1069 C1050 0.913 . S
H1070 C1088 0.951 . S
H1071 C1090 0.951 . S
H1072 C1092 0.950 . S
H1073 C1093 0.950 . S
H1074 C1095 0.950 . S
H1075 C1098 0.950 . S
H1076 C1099 0.950 . S
H1077 C1101 0.950 . S
H1078 C1102 0.950 . S
H1079 C1103 0.951 . S
H1080 C1105 0.951 . S
H1081 C1107 0.950 . S
H1082 C1108 0.950 . S
H1083 C1110 0.950 . S
H1084 C1113 0.950 . S
H1085 C1114 0.950 1_554 S
H1086 C1116 0.950 . S
H1087 C1117 0.950 . S
C1088 H1070 0.951 . S
C1088 C1089 1.366 . S
C1088 C1090 1.388 . S
C1089 C1088 1.366 . S
C1089 C1093 1.385 . S
C1090 H1071 0.951 . S
C1090 C1088 1.388 . S
C1090 C1091 1.366 . S
C1091 C1090 1.366 . S
C1091 C1092 1.414 . S
C1091 C1094 1.499 . S
C1092 H1072 0.950 . S
C1092 C1091 1.414 . S
C1092 C1093 1.374 . S
C1093 H1073 0.950 . S
C1093 C1089 1.385 . S
C1093 C1092 1.374 . S
C1094 C1091 1.499 . S
C1094 C1095 1.373 . S
C1094 C1096 1.389 . S
C1095 H1074 0.950 . S
C1095 C1094 1.373 . S
C1095 C1111 1.377 . S
C1096 C1094 1.389 . S
C1096 C1097 1.524 . S
C1096 C1110 1.377 . S
C1097 C1096 1.524 . S
C1097 C1098 1.397 . S
C1097 C1102 1.363 . S
C1098 H1075 0.950 . S
C1098 C1097 1.397 . S
C1098 C1099 1.334 . S
C1099 H1076 0.950 . S
C1099 C1098 1.334 . S
C1099 C1100 1.287 . S
C1100 C1099 1.287 . S
C1100 C1101 1.524 . S
C1100 H1119 0.913 . S
C1101 H1077 0.950 . S
C1101 C1100 1.524 . S
C1101 C1102 1.415 . S
C1102 H1078 0.950 . S
C1102 C1097 1.363 . S
C1102 C1101 1.415 . S
C1103 H1079 0.951 . S
C1103 C1104 1.366 1_556 S
C1103 C1105 1.388 . S
C1104 C1103 1.366 1_554 S
C1104 C1108 1.385 . S
C1105 H1080 0.951 . S
C1105 C1103 1.388 . S
C1105 C1106 1.366 . S
C1106 C1105 1.366 . S
C1106 C1107 1.414 . S
C1106 C1109 1.499 . S
C1107 H1081 0.950 . S
C1107 C1106 1.414 . S
C1107 C1108 1.374 1_556 S
C1108 H1082 0.950 . S
C1108 C1104 1.385 . S
C1108 C1107 1.374 1_554 S
C1109 C1106 1.499 . S
C1109 C1110 1.373 . S
C1109 C1111 1.389 . S
C1110 H1083 0.950 . S
C1110 C1096 1.377 . S
C1110 C1109 1.373 . S
C1111 C1095 1.377 . S
C1111 C1109 1.389 . S
C1111 C1112 1.524 . S
C1112 C1111 1.524 . S
C1112 C1113 1.397 . S
C1112 C1117 1.363 . S
C1113 H1084 0.950 . S
C1113 C1112 1.397 . S
C1113 C1114 1.334 . S
C1114 H1085 0.950 1_556 S
C1114 C1113 1.334 . S
C1114 C1115 1.287 . S
C1115 C1114 1.287 . S
C1115 C1116 1.524 . S
C1115 H1118 0.999 . S
C1116 H1086 0.950 . S
C1116 C1115 1.524 . S
C1116 C1117 1.415 . S
C1117 H1087 0.950 . S
C1117 C1112 1.363 . S
C1117 C1116 1.415 . S
H1118 C1115 0.999 . S
H1119 C1100 0.913 . S
H1120 C1138 0.951 . S
H1121 C1140 0.951 . S
H1122 C1142 0.950 . S
H1123 C1143 0.950 . S
H1124 C1145 0.950 . S
H1125 C1148 0.950 . S
H1126 C1149 0.950 . S
H1127 C1151 0.950 . S
H1128 C1152 0.950 1_655 S
H1129 C1153 0.951 . S
H1130 C1155 0.951 . S
H1131 C1157 0.950 . S
H1132 C1158 0.950 . S
H1133 C1160 0.950 . S
H1134 C1163 0.950 . S
H1135 C1164 0.950 . S
H1136 C1166 0.950 . S
H1137 C1167 0.950 . S
C1138 H1120 0.951 . S
C1138 C1139 1.366 . S
C1138 C1140 1.388 . S
C1139 C1138 1.366 . S
C1139 C1143 1.385 . S
C1140 H1121 0.951 . S
C1140 C1138 1.388 . S
C1140 C1141 1.366 . S
C1141 C1140 1.366 . S
C1141 C1142 1.414 . S
C1141 C1144 1.499 . S
C1142 H1122 0.950 . S
C1142 C1141 1.414 . S
C1142 C1143 1.374 . S
C1143 H1123 0.950 . S
C1143 C1139 1.385 . S
C1143 C1142 1.374 . S
C1144 C1141 1.499 . S
C1144 C1145 1.373 . S
C1144 C1146 1.389 . S
C1145 H1124 0.950 . S
C1145 C1144 1.373 . S
C1145 C1161 1.377 . S
C1146 C1144 1.389 . S
C1146 C1147 1.524 . S
C1146 C1160 1.377 . S
C1147 C1146 1.524 . S
C1147 C1148 1.397 . S
C1147 C1152 1.363 . S
C1148 H1125 0.950 . S
C1148 C1147 1.397 . S
C1148 C1149 1.334 . S
C1149 H1126 0.950 . S
C1149 C1148 1.334 . S
C1149 C1150 1.287 . S
C1150 C1149 1.287 . S
C1150 C1151 1.524 1_455 S
C1150 H1169 0.913 . S
C1151 H1127 0.950 . S
C1151 C1150 1.524 1_655 S
C1151 C1152 1.415 1_655 S
C1152 H1128 0.950 1_455 S
C1152 C1147 1.363 . S
C1152 C1151 1.415 1_455 S
C1153 H1129 0.951 . S
C1153 C1154 1.366 . S
C1153 C1155 1.388 . S
C1154 C1153 1.366 . S
C1154 C1158 1.385 1_455 S
C1155 H1130 0.951 . S
C1155 C1153 1.388 . S
C1155 C1156 1.366 . S
C1156 C1155 1.366 . S
C1156 C1157 1.414 1_455 S
C1156 C1159 1.499 . S
C1157 H1131 0.950 . S
C1157 C1156 1.414 1_655 S
C1157 C1158 1.374 . S
C1158 H1132 0.950 . S
C1158 C1154 1.385 1_655 S
C1158 C1157 1.374 . S
C1159 C1156 1.499 . S
C1159 C1160 1.373 . S
C1159 C1161 1.389 . S
C1160 H1133 0.950 . S
C1160 C1146 1.377 . S
C1160 C1159 1.373 . S
C1161 C1145 1.377 . S
C1161 C1159 1.389 . S
C1161 C1162 1.524 . S
C1162 C1161 1.524 . S
C1162 C1163 1.397 . S
C1162 C1167 1.363 . S
C1163 H1134 0.950 . S
C1163 C1162 1.397 . S
C1163 C1164 1.334 . S
C1164 H1135 0.950 . S
C1164 C1163 1.334 . S
C1164 C1165 1.287 . S
C1165 C1164 1.287 . S
C1165 C1166 1.524 . S
C1165 H1168 0.999 1_554 S
C1166 H1136 0.950 . S
C1166 C1165 1.524 . S
C1166 C1167 1.415 . S
C1167 H1137 0.950 . S
C1167 C1162 1.363 . S
C1167 C1166 1.415 . S
H1168 C1165 0.999 1_556 S
H1169 C1150 0.913 . S
H1170 C1188 0.951 . S
H1171 C1190 0.951 . S
H1172 C1192 0.950 1_455 S
H1173 C1193 0.950 . S
H1174 C1195 0.950 . S
H1175 C1198 0.945 1_455 S
H1176 C1199 0.950 . S
H1177 C1201 0.950 . S
H1178 C1202 0.950 . S
H1179 C1203 0.951 . S
H1180 C1205 0.951 . S
H1181 C1207 0.950 . S
H1182 C1208 0.950 . S
H1183 C1210 0.950 . S
H1184 C1213 0.950 . S
H1185 C1214 0.950 . S
H1186 C1216 0.950 . S
H1187 C1217 0.950 . S
C1188 H1170 0.951 . S
C1188 C1189 1.366 . S
C1188 C1190 1.388 . S
C1189 C1188 1.366 . S
C1189 C1193 1.385 . S
C1190 H1171 0.951 . S
C1190 C1188 1.388 . S
C1190 C1191 1.366 . S
C1191 C1190 1.366 . S
C1191 C1192 1.414 . S
C1191 C1194 1.499 1_655 S
C1192 H1172 0.950 1_655 S
C1192 C1191 1.414 . S
C1192 C1193 1.374 . S
C1193 H1173 0.950 . S
C1193 C1189 1.385 . S
C1193 C1192 1.374 . S
C1194 C1191 1.499 1_455 S
C1194 C1195 1.373 . S
C1194 C1196 1.389 . S
C1195 H1174 0.950 . S
C1195 C1194 1.373 . S
C1195 C1211 1.377 . S
C1196 C1194 1.389 . S
C1196 C1197 1.524 . S
C1196 C1210 1.377 . S
C1197 C1196 1.524 . S
C1197 C1198 1.388 1_455 S
C1197 C1202 1.363 . S
C1198 H1175 0.945 1_655 S
C1198 C1197 1.388 1_655 S
C1198 C1199 1.348 . S
C1199 H1176 0.950 . S
C1199 C1198 1.348 . S
C1199 C1200 1.287 . S
C1200 C1199 1.287 . S
C1200 C1201 1.524 . S
C1200 H1219 0.913 . S
C1201 H1177 0.950 . S
C1201 C1200 1.524 . S
C1201 C1202 1.415 1_655 S
C1202 H1178 0.950 . S
C1202 C1197 1.363 . S
C1202 C1201 1.415 1_455 S
C1203 H1179 0.951 . S
C1203 C1204 1.366 . S
C1203 C1205 1.388 . S
C1204 C1203 1.366 . S
C1204 C1208 1.385 . S
C1205 H1180 0.951 . S
C1205 C1203 1.388 . S
C1205 C1206 1.366 . S
C1206 C1205 1.366 . S
C1206 C1207 1.414 . S
C1206 C1209 1.499 . S
C1207 H1181 0.950 . S
C1207 C1206 1.414 . S
C1207 C1208 1.374 . S
C1208 H1182 0.950 . S
C1208 C1204 1.385 . S
C1208 C1207 1.374 . S
C1209 C1206 1.499 . S
C1209 C1210 1.373 . S
C1209 C1211 1.389 . S
C1210 H1183 0.950 . S
C1210 C1196 1.377 . S
C1210 C1209 1.373 . S
C1211 C1195 1.377 . S
C1211 C1209 1.389 . S
C1211 C1212 1.524 . S
C1212 C1211 1.524 . S
C1212 C1213 1.397 . S
C1212 C1217 1.363 . S
C1213 H1184 0.950 . S
C1213 C1212 1.397 . S
C1213 C1214 1.334 . S
C1214 H1185 0.950 . S
C1214 C1213 1.334 . S
C1214 C1215 1.287 . S
C1215 C1214 1.287 . S
C1215 C1216 1.524 . S
C1215 H1218 0.999 . S
C1216 H1186 0.950 . S
C1216 C1215 1.524 . S
C1216 C1217 1.415 . S
C1217 H1187 0.950 . S
C1217 C1212 1.363 . S
C1217 C1216 1.415 . S
H1218 C1215 0.999 . S
H1219 C1200 0.913 . S
H1220 C1238 0.951 . S
H1221 C1240 0.951 . S
H1222 C1242 0.950 . S
H1223 C1243 0.950 . S
H1224 C1245 0.950 . S
H1225 C1248 0.950 . S
H1226 C1249 0.950 . S
H1227 C1251 0.950 . S
H1228 C1252 0.950 . S
H1229 C1253 0.951 . S
H1230 C1255 0.951 . S
H1231 C1257 0.950 . S
H1232 C1258 0.950 . S
H1233 C1260 0.950 . S
H1234 C1263 0.950 . S
H1235 C1264 0.950 . S
H1236 C1266 0.950 . S
H1237 C1267 0.950 . S
C1238 H1220 0.951 . S
C1238 C1239 1.366 . S
C1238 C1240 1.388 . S
C1239 C1238 1.366 . S
C1239 C1243 1.385 . S
C1240 H1221 0.951 . S
C1240 C1238 1.388 . S
C1240 C1241 1.366 . S
C1241 C1240 1.366 . S
C1241 C1242 1.414 . S
C1241 C1244 1.499 . S
C1242 H1222 0.950 . S
C1242 C1241 1.414 . S
C1242 C1243 1.374 . S
C1243 H1223 0.950 . S
C1243 C1239 1.385 . S
C1243 C1242 1.374 . S
C1244 C1241 1.499 . S
C1244 C1245 1.373 . S
C1244 C1246 1.389 . S
C1245 H1224 0.950 . S
C1245 C1244 1.373 . S
C1245 C1261 1.377 . S
C1246 C1244 1.389 . S
C1246 C1247 1.524 . S
C1246 C1260 1.377 . S
C1247 C1246 1.524 . S
C1247 C1248 1.397 . S
C1247 C1252 1.363 . S
C1248 H1225 0.950 . S
C1248 C1247 1.397 . S
C1248 C1249 1.334 . S
C1249 H1226 0.950 . S
C1249 C1248 1.334 . S
C1249 C1250 1.287 . S
C1250 C1249 1.287 . S
C1250 C1251 1.524 . S
C1250 H1269 0.913 . S
C1251 H1227 0.950 . S
C1251 C1250 1.524 . S
C1251 C1252 1.415 . S
C1252 H1228 0.950 . S
C1252 C1247 1.363 . S
C1252 C1251 1.415 . S
C1253 H1229 0.951 . S
C1253 C1254 1.366 . S
C1253 C1255 1.388 . S
C1254 C1253 1.366 . S
C1254 C1258 1.385 . S
C1255 H1230 0.951 . S
C1255 C1253 1.388 . S
C1255 C1256 1.366 . S
C1256 C1255 1.366 . S
C1256 C1257 1.414 . S
C1256 C1259 1.499 . S
C1257 H1231 0.950 . S
C1257 C1256 1.414 . S
C1257 C1258 1.374 . S
C1258 H1232 0.950 . S
C1258 C1254 1.385 . S
C1258 C1257 1.374 . S
C1259 C1256 1.499 . S
C1259 C1260 1.373 . S
C1259 C1261 1.389 . S
C1260 H1233 0.950 . S
C1260 C1246 1.377 . S
C1260 C1259 1.373 . S
C1261 C1245 1.377 . S
C1261 C1259 1.389 . S
C1261 C1262 1.524 . S
C1262 C1261 1.524 . S
C1262 C1263 1.397 . S
C1262 C1267 1.363 . S
C1263 H1234 0.950 . S
C1263 C1262 1.397 . S
C1263 C1264 1.334 . S
C1264 H1235 0.950 . S
C1264 C1263 1.334 . S
C1264 C1265 1.287 . S
C1265 C1264 1.287 . S
C1265 C1266 1.524 . S
C1265 H1268 0.999 . S
C1266 H1236 0.950 . S
C1266 C1265 1.524 . S
C1266 C1267 1.415 . S
C1267 H1237 0.950 . S
C1267 C1262 1.363 . S
C1267 C1266 1.415 . S
H1268 C1265 0.999 . S
H1269 C1250 0.913 . S
H1270 C1288 0.951 . S
H1271 C1290 0.951 . S
H1272 C1292 0.950 . S
H1273 C1293 0.950 . S
H1274 C1295 0.950 . S
H1275 C1298 0.950 . S
H1276 C1299 0.950 . S
H1277 C1301 0.950 . S
H1278 C1302 0.950 . S
H1279 C1303 0.951 . S
H1280 C1305 0.951 . S
H1281 C1307 0.950 . S
H1282 C1308 0.950 . S
H1283 C1310 0.950 . S
H1284 C1313 0.950 . S
H1285 C1314 0.950 . S
H1286 C1316 0.950 . S
H1287 C1317 0.950 . S
C1288 H1270 0.951 . S
C1288 C1289 1.366 . S
C1288 C1290 1.388 . S
C1289 C1288 1.366 . S
C1289 C1293 1.385 . S
C1290 H1271 0.951 . S
C1290 C1288 1.388 . S
C1290 C1291 1.366 . S
C1291 C1290 1.366 . S
C1291 C1292 1.414 . S
C1291 C1294 1.499 . S
C1292 H1272 0.950 . S
C1292 C1291 1.414 . S
C1292 C1293 1.374 . S
C1293 H1273 0.950 . S
C1293 C1289 1.385 . S
C1293 C1292 1.374 . S
C1294 C1291 1.499 . S
C1294 C1295 1.373 . S
C1294 C1296 1.389 . S
C1295 H1274 0.950 . S
C1295 C1294 1.373 . S
C1295 C1311 1.377 . S
C1296 C1294 1.389 . S
C1296 C1297 1.524 . S
C1296 C1310 1.377 . S
C1297 C1296 1.524 . S
C1297 C1298 1.397 . S
C1297 C1302 1.363 . S
C1298 H1275 0.950 . S
C1298 C1297 1.397 . S
C1298 C1299 1.334 . S
C1299 H1276 0.950 . S
C1299 C1298 1.334 . S
C1299 C1300 1.287 . S
C1300 C1299 1.287 . S
C1300 C1301 1.524 . S
C1300 H1319 0.913 . S
C1301 H1277 0.950 . S
C1301 C1300 1.524 . S
C1301 C1302 1.415 . S
C1302 H1278 0.950 . S
C1302 C1297 1.363 . S
C1302 C1301 1.415 . S
C1303 H1279 0.951 . S
C1303 C1304 1.366 . S
C1303 C1305 1.388 . S
C1304 C1303 1.366 . S
C1304 C1308 1.385 . S
C1305 H1280 0.951 . S
C1305 C1303 1.388 . S
C1305 C1306 1.366 . S
C1306 C1305 1.366 . S
C1306 C1307 1.414 . S
C1306 C1309 1.499 . S
C1307 H1281 0.950 . S
C1307 C1306 1.414 . S
C1307 C1308 1.374 . S
C1308 H1282 0.950 . S
C1308 C1304 1.385 . S
C1308 C1307 1.374 . S
C1309 C1306 1.499 . S
C1309 C1310 1.373 . S
C1309 C1311 1.389 . S
C1310 H1283 0.950 . S
C1310 C1296 1.377 . S
C1310 C1309 1.373 . S
C1311 C1295 1.377 . S
C1311 C1309 1.389 . S
C1311 C1312 1.524 . S
C1312 C1311 1.524 . S
C1312 C1313 1.397 . S
C1312 C1317 1.363 . S
C1313 H1284 0.950 . S
C1313 C1312 1.397 . S
C1313 C1314 1.334 . S
C1314 H1285 0.950 . S
C1314 C1313 1.334 . S
C1314 C1315 1.287 . S
C1315 C1314 1.287 . S
C1315 C1316 1.524 . S
C1315 H1318 0.999 . S
C1316 H1286 0.950 . S
C1316 C1315 1.524 . S
C1316 C1317 1.415 . S
C1317 H1287 0.950 . S
C1317 C1312 1.363 . S
C1317 C1316 1.415 . S
H1318 C1315 0.999 . S
H1319 C1300 0.913 . S
H1320 C1338 0.951 . S
H1321 C1340 0.951 . S
H1322 C1342 0.950 . S
H1323 C1343 0.950 . S
H1324 C1345 0.950 . S
H1325 C1348 0.950 . S
H1326 C1349 0.950 . S
H1327 C1351 0.950 1_554 S
H1328 C1352 0.950 . S
H1329 C1353 0.951 . S
H1330 C1355 0.951 . S
H1331 C1357 0.950 . S
H1332 C1358 0.973 . S
H1333 C1360 0.950 . S
H1334 C1363 0.950 . S
H1335 C1364 0.950 . S
H1336 C1366 0.950 . S
H1337 C1367 0.950 . S
C1338 H1320 0.951 . S
C1338 C1339 1.366 . S
C1338 C1340 1.388 . S
C1339 C1338 1.366 . S
C1339 C1343 1.385 . S
C1340 H1321 0.951 . S
C1340 C1338 1.388 . S
C1340 C1341 1.366 . S
C1341 C1340 1.366 . S
C1341 C1342 1.414 . S
C1341 C1344 1.499 . S
C1342 H1322 0.950 . S
C1342 C1341 1.414 . S
C1342 C1343 1.374 . S
C1343 H1323 0.950 . S
C1343 C1339 1.385 . S
C1343 C1342 1.374 . S
C1344 C1341 1.499 . S
C1344 C1345 1.373 . S
C1344 C1346 1.389 . S
C1345 H1324 0.950 . S
C1345 C1344 1.373 . S
C1345 C1361 1.377 . S
C1346 C1344 1.389 . S
C1346 C1347 1.524 . S
C1346 C1360 1.377 . S
C1347 C1346 1.524 . S
C1347 C1348 1.397 . S
C1347 C1352 1.363 . S
C1348 H1325 0.950 . S
C1348 C1347 1.397 . S
C1348 C1349 1.334 . S
C1349 H1326 0.950 . S
C1349 C1348 1.334 . S
C1349 C1350 1.287 . S
C1350 C1349 1.287 . S
C1350 C1351 1.524 . S
C1350 H1369 0.909 1_556 S
C1351 H1327 0.950 1_556 S
C1351 C1350 1.524 . S
C1351 C1352 1.415 . S
C1352 H1328 0.950 . S
C1352 C1347 1.363 . S
C1352 C1351 1.415 . S
C1353 H1329 0.951 . S
C1353 C1354 1.366 . S
C1353 C1355 1.388 . S
C1354 C1353 1.366 . S
C1354 C1358 1.378 1_455 S
C1355 H1330 0.951 . S
C1355 C1353 1.388 . S
C1355 C1356 1.366 . S
C1356 C1355 1.366 . S
C1356 C1357 1.414 . S
C1356 C1359 1.499 . S
C1357 H1331 0.950 . S
C1357 C1356 1.414 . S
C1357 C1358 1.359 1_455 S
C1358 H1332 0.973 . S
C1358 C1354 1.378 1_655 S
C1358 C1357 1.359 1_655 S
C1359 C1356 1.499 . S
C1359 C1360 1.373 . S
C1359 C1361 1.389 . S
C1360 H1333 0.950 . S
C1360 C1346 1.377 . S
C1360 C1359 1.373 . S
C1361 C1345 1.377 . S
C1361 C1359 1.389 . S
C1361 C1362 1.524 . S
C1362 C1361 1.524 . S
C1362 C1363 1.397 1_455 S
C1362 C1367 1.363 . S
C1363 H1334 0.950 . S
C1363 C1362 1.397 1_655 S
C1363 C1364 1.334 . S
C1364 H1335 0.950 . S
C1364 C1363 1.334 . S
C1364 C1365 1.287 . S
C1365 C1364 1.287 . S
C1365 C1366 1.524 1_655 S
C1365 H1368 0.999 . S
C1366 H1336 0.950 . S
C1366 C1365 1.524 1_455 S
C1366 C1367 1.415 . S
C1367 H1337 0.950 . S
C1367 C1362 1.363 . S
C1367 C1366 1.415 . S
H1368 C1365 0.999 . S
H1369 C1350 0.909 1_554 S
H1370 C1388 0.951 . S
H1371 C1390 0.951 . S
H1372 C1392 0.950 . S
H1373 C1393 0.950 . S
H1374 C1395 0.950 . S
H1375 C1398 0.950 . S
H1376 C1399 0.950 . S
H1377 C1401 0.950 . S
H1378 C1402 0.950 . S
H1379 C1403 0.951 . S
H1380 C1405 0.951 . S
H1381 C1407 0.950 . S
H1382 C1408 0.950 . S
H1383 C1410 0.950 . S
H1384 C1413 0.950 . S
H1385 C1414 0.950 . S
H1386 C1416 0.950 . S
H1387 C1417 0.950 . S
C1388 H1370 0.951 . S
C1388 C1389 1.366 . S
C1388 C1390 1.388 . S
C1389 C1388 1.366 . S
C1389 C1393 1.385 . S
C1390 H1371 0.951 . S
C1390 C1388 1.388 . S
C1390 C1391 1.366 . S
C1391 C1390 1.366 . S
C1391 C1392 1.414 . S
C1391 C1394 1.499 . S
C1392 H1372 0.950 . S
C1392 C1391 1.414 . S
C1392 C1393 1.374 . S
C1393 H1373 0.950 . S
C1393 C1389 1.385 . S
C1393 C1392 1.374 . S
C1394 C1391 1.499 . S
C1394 C1395 1.373 . S
C1394 C1396 1.389 . S
C1395 H1374 0.950 . S
C1395 C1394 1.373 . S
C1395 C1411 1.377 . S
C1396 C1394 1.389 . S
C1396 C1397 1.524 . S
C1396 C1410 1.377 . S
C1397 C1396 1.524 . S
C1397 C1398 1.397 . S
C1397 C1402 1.363 . S
C1398 H1375 0.950 . S
C1398 C1397 1.397 . S
C1398 C1399 1.334 . S
C1399 H1376 0.950 . S
C1399 C1398 1.334 . S
C1399 C1400 1.287 . S
C1400 C1399 1.287 . S
C1400 C1401 1.524 . S
C1400 H1419 0.913 . S
C1401 H1377 0.950 . S
C1401 C1400 1.524 . S
C1401 C1402 1.415 . S
C1402 H1378 0.950 . S
C1402 C1397 1.363 . S
C1402 C1401 1.415 . S
C1403 H1379 0.951 . S
C1403 C1404 1.366 . S
C1403 C1405 1.388 . S
C1404 C1403 1.366 . S
C1404 C1408 1.385 . S
C1405 H1380 0.951 . S
C1405 C1403 1.388 . S
C1405 C1406 1.366 . S
C1406 C1405 1.366 . S
C1406 C1407 1.414 . S
C1406 C1409 1.499 . S
C1407 H1381 0.950 . S
C1407 C1406 1.414 . S
C1407 C1408 1.374 . S
C1408 H1382 0.950 . S
C1408 C1404 1.385 . S
C1408 C1407 1.374 . S
C1409 C1406 1.499 . S
C1409 C1410 1.373 . S
C1409 C1411 1.389 . S
C1410 H1383 0.950 . S
C1410 C1396 1.377 . S
C1410 C1409 1.373 . S
C1411 C1395 1.377 . S
C1411 C1409 1.389 . S
C1411 C1412 1.524 . S
C1412 C1411 1.524 . S
C1412 C1413 1.397 . S
C1412 C1417 1.363 . S
C1413 H1384 0.950 . S
C1413 C1412 1.397 . S
C1413 C1414 1.334 . S
C1414 H1385 0.950 . S
C1414 C1413 1.334 . S
C1414 C1415 1.287 . S
C1415 C1414 1.287 . S
C1415 C1416 1.524 . S
C1415 H1418 0.999 . S
C1416 H1386 0.950 . S
C1416 C1415 1.524 . S
C1416 C1417 1.415 . S
C1417 H1387 0.950 . S
C1417 C1412 1.363 . S
C1417 C1416 1.415 . S
H1418 C1415 0.999 . S
H1419 C1400 0.913 . S
H1420 C1438 0.951 . S
H1421 C1440 0.951 . S
H1422 C1442 0.950 . S
H1423 C1443 0.950 . S
H1424 C1445 0.950 . S
H1425 C1448 0.950 . S
H1426 C1449 0.950 . S
H1427 C1451 0.950 . S
H1428 C1452 0.950 . S
H1429 C1453 0.951 . S
H1430 C1455 0.951 . S
H1431 C1457 0.950 . S
H1432 C1458 0.950 . S
H1433 C1460 0.950 . S
H1434 C1463 0.950 . S
H1435 C1464 0.950 . S
H1436 C1466 0.950 . S
H1437 C1467 0.950 . S
C1438 H1420 0.951 . S
C1438 C1439 1.366 . S
C1438 C1440 1.388 . S
C1439 C1438 1.366 . S
C1439 C1443 1.385 . S
C1440 H1421 0.951 . S
C1440 C1438 1.388 . S
C1440 C1441 1.366 . S
C1441 C1440 1.366 . S
C1441 C1442 1.414 . S
C1441 C1444 1.499 . S
C1442 H1422 0.950 . S
C1442 C1441 1.414 . S
C1442 C1443 1.374 . S
C1443 H1423 0.950 . S
C1443 C1439 1.385 . S
C1443 C1442 1.374 . S
C1444 C1441 1.499 . S
C1444 C1445 1.373 . S
C1444 C1446 1.389 . S
C1445 H1424 0.950 . S
C1445 C1444 1.373 . S
C1445 C1461 1.377 . S
C1446 C1444 1.389 . S
C1446 C1447 1.524 . S
C1446 C1460 1.377 . S
C1447 C1446 1.524 . S
C1447 C1448 1.397 . S
C1447 C1452 1.363 . S
C1448 H1425 0.950 . S
C1448 C1447 1.397 . S
C1448 C1449 1.334 . S
C1449 H1426 0.950 . S
C1449 C1448 1.334 . S
C1449 C1450 1.287 . S
C1450 C1449 1.287 . S
C1450 C1451 1.524 . S
C1450 H1469 0.913 . S
C1451 H1427 0.950 . S
C1451 C1450 1.524 . S
C1451 C1452 1.415 . S
C1452 H1428 0.950 . S
C1452 C1447 1.363 . S
C1452 C1451 1.415 . S
C1453 H1429 0.951 . S
C1453 C1454 1.366 . S
C1453 C1455 1.388 . S
C1454 C1453 1.366 . S
C1454 C1458 1.385 . S
C1455 H1430 0.951 . S
C1455 C1453 1.388 . S
C1455 C1456 1.366 . S
C1456 C1455 1.366 . S
C1456 C1457 1.414 . S
C1456 C1459 1.499 . S
C1457 H1431 0.950 . S
C1457 C1456 1.414 . S
C1457 C1458 1.374 . S
C1458 H1432 0.950 . S
C1458 C1454 1.385 . S
C1458 C1457 1.374 . S
C1459 C1456 1.499 . S
C1459 C1460 1.373 . S
C1459 C1461 1.389 . S
C1460 H1433 0.950 . S
C1460 C1446 1.377 . S
C1460 C1459 1.373 . S
C1461 C1445 1.377 . S
C1461 C1459 1.389 . S
C1461 C1462 1.524 . S
C1462 C1461 1.524 . S
C1462 C1463 1.397 . S
C1462 C1467 1.363 . S
C1463 H1434 0.950 . S
C1463 C1462 1.397 . S
C1463 C1464 1.334 . S
C1464 H1435 0.950 . S
C1464 C1463 1.334 . S
C1464 C1465 1.287 . S
C1465 C1464 1.287 . S
C1465 C1466 1.524 . S
C1465 H1468 0.999 . S
C1466 H1436 0.950 . S
C1466 C1465 1.524 . S
C1466 C1467 1.415 . S
C1467 H1437 0.950 . S
C1467 C1462 1.363 . S
C1467 C1466 1.415 . S
H1468 C1465 0.999 . S
H1469 C1450 0.913 . S
H1470 C1488 0.951 . S
H1471 C1490 0.951 . S
H1472 C1492 0.950 . S
H1473 C1493 0.950 . S
H1474 C1495 0.950 . S
H1475 C1498 0.950 . S
H1476 C1499 0.950 . S
H1477 C1501 0.950 . S
H1478 C1502 0.950 . S
H1479 C1503 0.951 . S
H1480 C1505 0.951 . S
H1481 C1507 0.950 1_455 S
H1482 C1508 0.950 . S
H1483 C1510 0.950 . S
H1484 C1513 0.956 . S
H1485 C1514 0.950 . S
H1486 C1516 0.950 . S
H1487 C1517 0.950 . S
C1488 H1470 0.951 . S
C1488 C1489 1.366 . S
C1488 C1490 1.388 . S
C1489 C1488 1.366 . S
C1489 C1493 1.385 . S
C1490 H1471 0.951 . S
C1490 C1488 1.388 . S
C1490 C1491 1.366 . S
C1491 C1490 1.366 . S
C1491 C1492 1.414 . S
C1491 C1494 1.499 . S
C1492 H1472 0.950 . S
C1492 C1491 1.414 . S
C1492 C1493 1.374 . S
C1493 H1473 0.950 . S
C1493 C1489 1.385 . S
C1493 C1492 1.374 . S
C1494 C1491 1.499 . S
C1494 C1495 1.373 . S
C1494 C1496 1.389 . S
C1495 H1474 0.950 . S
C1495 C1494 1.373 . S
C1495 C1511 1.377 . S
C1496 C1494 1.389 . S
C1496 C1497 1.524 . S
C1496 C1510 1.377 . S
C1497 C1496 1.524 . S
C1497 C1498 1.397 . S
C1497 C1502 1.363 . S
C1498 H1475 0.950 . S
C1498 C1497 1.397 . S
C1498 C1499 1.334 . S
C1499 H1476 0.950 . S
C1499 C1498 1.334 . S
C1499 C1500 1.287 . S
C1500 C1499 1.287 . S
C1500 C1501 1.524 . S
C1500 H1519 0.913 . S
C1501 H1477 0.950 . S
C1501 C1500 1.524 . S
C1501 C1502 1.415 . S
C1502 H1478 0.950 . S
C1502 C1497 1.363 . S
C1502 C1501 1.415 . S
C1503 H1479 0.951 . S
C1503 C1504 1.366 . S
C1503 C1505 1.388 . S
C1504 C1503 1.366 . S
C1504 C1508 1.385 . S
C1505 H1480 0.951 . S
C1505 C1503 1.388 . S
C1505 C1506 1.366 . S
C1506 C1505 1.366 . S
C1506 C1507 1.414 . S
C1506 C1509 1.499 1_655 S
C1507 H1481 0.950 1_655 S
C1507 C1506 1.414 . S
C1507 C1508 1.374 . S
C1508 H1482 0.950 . S
C1508 C1504 1.385 . S
C1508 C1507 1.374 . S
C1509 C1506 1.499 1_455 S
C1509 C1510 1.373 . S
C1509 C1511 1.389 . S
C1510 H1483 0.950 . S
C1510 C1496 1.377 . S
C1510 C1509 1.373 . S
C1511 C1495 1.377 . S
C1511 C1509 1.389 . S
C1511 C1512 1.524 . S
C1512 C1511 1.524 . S
C1512 C1513 1.408 . S
C1512 C1517 1.363 . S
C1513 H1484 0.956 . S
C1513 C1512 1.408 . S
C1513 C1514 1.317 1_455 S
C1514 H1485 0.950 . S
C1514 C1513 1.317 1_655 S
C1514 C1515 1.287 . S
C1515 C1514 1.287 . S
C1515 C1516 1.524 . S
C1515 H1518 0.999 . S
C1516 H1486 0.950 . S
C1516 C1515 1.524 . S
C1516 C1517 1.415 1_655 S
C1517 H1487 0.950 . S
C1517 C1512 1.363 . S
C1517 C1516 1.415 1_455 S
H1518 C1515 0.999 . S
H1519 C1500 0.913 . S
H1520 C1538 0.951 . S
H1521 C1540 0.951 . S
H1522 C1542 0.950 1_655 S
H1523 C1543 0.950 . S
H1524 C1545 0.933 1_655 S
H1525 C1548 0.950 . S
H1526 C1549 0.950 . S
H1527 C1551 0.950 . S
H1528 C1552 0.950 . S
H1529 C1553 0.951 . S
H1530 C1555 0.951 . S
H1531 C1557 0.950 . S
H1532 C1558 0.950 . S
H1533 C1560 0.950 . S
H1534 C1563 0.950 . S
H1535 C1564 0.950 . S
H1536 C1566 0.950 . S
H1537 C1567 0.950 . S
C1538 H1520 0.951 . S
C1538 C1539 1.366 . S
C1538 C1540 1.388 . S
C1539 C1538 1.366 . S
C1539 C1543 1.385 1_455 S
C1540 H1521 0.951 . S
C1540 C1538 1.388 . S
C1540 C1541 1.366 . S
C1541 C1540 1.366 . S
C1541 C1542 1.414 . S
C1541 C1544 1.499 . S
C1542 H1522 0.950 1_455 S
C1542 C1541 1.414 . S
C1542 C1543 1.374 1_455 S
C1543 H1523 0.950 . S
C1543 C1539 1.385 1_655 S
C1543 C1542 1.374 1_655 S
C1544 C1541 1.499 . S
C1544 C1545 1.373 . S
C1544 C1546 1.389 . S
C1545 H1524 0.933 1_455 S
C1545 C1544 1.373 . S
C1545 C1561 1.377 1_544 S
C1546 C1544 1.389 . S
C1546 C1547 1.524 . S
C1546 C1560 1.377 1_544 S
C1547 C1546 1.524 . S
C1547 C1548 1.397 . S
C1547 C1552 1.363 . S
C1548 H1525 0.950 . S
C1548 C1547 1.397 . S
C1548 C1549 1.334 . S
C1549 H1526 0.950 . S
C1549 C1548 1.334 . S
C1549 C1550 1.287 . S
C1550 C1549 1.287 . S
C1550 C1551 1.524 . S
C1550 H1569 0.913 . S
C1551 H1527 0.950 . S
C1551 C1550 1.524 . S
C1551 C1552 1.415 . S
C1552 H1528 0.950 . S
C1552 C1547 1.363 . S
C1552 C1551 1.415 . S
C1553 H1529 0.951 . S
C1553 C1554 1.366 . S
C1553 C1555 1.388 . S
C1554 C1553 1.366 . S
C1554 C1558 1.385 . S
C1555 H1530 0.951 . S
C1555 C1553 1.388 . S
C1555 C1556 1.366 . S
C1556 C1555 1.366 . S
C1556 C1557 1.414 . S
C1556 C1559 1.499 . S
C1557 H1531 0.950 . S
C1557 C1556 1.414 . S
C1557 C1558 1.374 . S
C1558 H1532 0.950 . S
C1558 C1554 1.385 . S
C1558 C1557 1.374 . S
C1559 C1556 1.499 . S
C1559 C1560 1.373 . S
C1559 C1561 1.389 . S
C1560 H1533 0.950 . S
C1560 C1546 1.377 1_566 S
C1560 C1559 1.373 . S
C1561 C1545 1.377 1_566 S
C1561 C1559 1.389 . S
C1561 C1562 1.524 . S
C1562 C1561 1.524 . S
C1562 C1563 1.397 . S
C1562 C1567 1.363 1_455 S
C1563 H1534 0.950 . S
C1563 C1562 1.397 . S
C1563 C1564 1.334 1_455 S
C1564 H1535 0.950 . S
C1564 C1563 1.334 1_655 S
C1564 C1565 1.287 . S
C1565 C1564 1.287 . S
C1565 C1566 1.524 . S
C1565 H1568 0.999 . S
C1566 H1536 0.950 . S
C1566 C1565 1.524 . S
C1566 C1567 1.415 . S
C1567 H1537 0.950 . S
C1567 C1562 1.363 1_655 S
C1567 C1566 1.415 . S
H1568 C1565 0.999 . S
H1569 C1550 0.913 . S
H1570 C1588 0.951 . S
H1571 C1590 0.951 . S
H1572 C1592 0.950 . S
H1573 C1593 0.950 . S
H1574 C1595 0.950 . S
H1575 C1598 0.950 . S
H1576 C1599 0.950 . S
H1577 C1601 0.950 . S
H1578 C1602 0.950 . S
H1579 C1603 0.951 . S
H1580 C1605 0.951 . S
H1581 C1607 0.950 . S
H1582 C1608 0.950 . S
H1583 C1610 0.950 . S
H1584 C1613 0.950 . S
H1585 C1614 0.950 . S
H1586 C1616 0.950 . S
H1587 C1617 0.950 . S
C1588 H1570 0.951 . S
C1588 C1589 1.366 . S
C1588 C1590 1.388 . S
C1589 C1588 1.366 . S
C1589 C1593 1.385 . S
C1590 H1571 0.951 . S
C1590 C1588 1.388 . S
C1590 C1591 1.366 . S
C1591 C1590 1.366 . S
C1591 C1592 1.414 . S
C1591 C1594 1.499 . S
C1592 H1572 0.950 . S
C1592 C1591 1.414 . S
C1592 C1593 1.374 . S
C1593 H1573 0.950 . S
C1593 C1589 1.385 . S
C1593 C1592 1.374 . S
C1594 C1591 1.499 . S
C1594 C1595 1.373 . S
C1594 C1596 1.389 . S
C1595 H1574 0.950 . S
C1595 C1594 1.373 . S
C1595 C1611 1.377 . S
C1596 C1594 1.389 . S
C1596 C1597 1.524 . S
C1596 C1610 1.377 . S
C1597 C1596 1.524 . S
C1597 C1598 1.397 . S
C1597 C1602 1.363 . S
C1598 H1575 0.950 . S
C1598 C1597 1.397 . S
C1598 C1599 1.334 . S
C1599 H1576 0.950 . S
C1599 C1598 1.334 . S
C1599 C1600 1.287 . S
C1600 C1599 1.287 . S
C1600 C1601 1.524 . S
C1600 H1619 0.913 . S
C1601 H1577 0.950 . S
C1601 C1600 1.524 . S
C1601 C1602 1.415 . S
C1602 H1578 0.950 . S
C1602 C1597 1.363 . S
C1602 C1601 1.415 . S
C1603 H1579 0.951 . S
C1603 C1604 1.366 . S
C1603 C1605 1.388 . S
C1604 C1603 1.366 . S
C1604 C1608 1.385 . S
C1605 H1580 0.951 . S
C1605 C1603 1.388 . S
C1605 C1606 1.366 . S
C1606 C1605 1.366 . S
C1606 C1607 1.414 . S
C1606 C1609 1.499 . S
C1607 H1581 0.950 . S
C1607 C1606 1.414 . S
C1607 C1608 1.374 . S
C1608 H1582 0.950 . S
C1608 C1604 1.385 . S
C1608 C1607 1.374 . S
C1609 C1606 1.499 . S
C1609 C1610 1.373 . S
C1609 C1611 1.389 . S
C1610 H1583 0.950 . S
C1610 C1596 1.377 . S
C1610 C1609 1.373 . S
C1611 C1595 1.377 . S
C1611 C1609 1.389 . S
C1611 C1612 1.524 . S
C1612 C1611 1.524 . S
C1612 C1613 1.397 . S
C1612 C1617 1.363 . S
C1613 H1584 0.950 . S
C1613 C1612 1.397 . S
C1613 C1614 1.334 . S
C1614 H1585 0.950 . S
C1614 C1613 1.334 . S
C1614 C1615 1.287 . S
C1615 C1614 1.287 . S
C1615 C1616 1.524 . S
C1615 H1618 0.999 . S
C1616 H1586 0.950 . S
C1616 C1615 1.524 . S
C1616 C1617 1.415 . S
C1617 H1587 0.950 . S
C1617 C1612 1.363 . S
C1617 C1616 1.415 . S
H1618 C1615 0.999 . S
H1619 C1600 0.913 . S
H1620 C1638 0.951 . S
H1621 C1640 0.951 . S
H1622 C1642 0.950 . S
H1623 C1643 0.950 . S
H1624 C1645 0.950 . S
H1625 C1648 0.950 . S
H1626 C1649 0.950 . S
H1627 C1651 0.950 . S
H1628 C1652 0.950 . S
H1629 C1653 0.951 . S
H1630 C1655 0.951 . S
H1631 C1657 0.950 . S
H1632 C1658 0.950 . S
H1633 C1660 0.950 . S
H1634 C1663 0.950 . S
H1635 C1664 0.950 . S
H1636 C1666 0.950 . S
H1637 C1667 0.950 . S
C1638 H1620 0.951 . S
C1638 C1639 1.366 . S
C1638 C1640 1.388 . S
C1639 C1638 1.366 . S
C1639 C1643 1.385 . S
C1640 H1621 0.951 . S
C1640 C1638 1.388 . S
C1640 C1641 1.366 . S
C1641 C1640 1.366 . S
C1641 C1642 1.414 . S
C1641 C1644 1.499 . S
C1642 H1622 0.950 . S
C1642 C1641 1.414 . S
C1642 C1643 1.374 . S
C1643 H1623 0.950 . S
C1643 C1639 1.385 . S
C1643 C1642 1.374 . S
C1644 C1641 1.499 . S
C1644 C1645 1.373 . S
C1644 C1646 1.389 . S
C1645 H1624 0.950 . S
C1645 C1644 1.373 . S
C1645 C1661 1.377 1_545 S
C1646 C1644 1.389 . S
C1646 C1647 1.524 . S
C1646 C1660 1.377 1_545 S
C1647 C1646 1.524 . S
C1647 C1648 1.397 . S
C1647 C1652 1.363 . S
C1648 H1625 0.950 . S
C1648 C1647 1.397 . S
C1648 C1649 1.334 . S
C1649 H1626 0.950 . S
C1649 C1648 1.334 . S
C1649 C1650 1.287 . S
C1650 C1649 1.287 . S
C1650 C1651 1.524 . S
C1650 H1669 0.913 . S
C1651 H1627 0.950 . S
C1651 C1650 1.524 . S
C1651 C1652 1.415 . S
C1652 H1628 0.950 . S
C1652 C1647 1.363 . S
C1652 C1651 1.415 . S
C1653 H1629 0.951 . S
C1653 C1654 1.366 . S
C1653 C1655 1.388 . S
C1654 C1653 1.366 . S
C1654 C1658 1.385 . S
C1655 H1630 0.951 . S
C1655 C1653 1.388 . S
C1655 C1656 1.366 . S
C1656 C1655 1.366 . S
C1656 C1657 1.414 . S
C1656 C1659 1.499 . S
C1657 H1631 0.950 . S
C1657 C1656 1.414 . S
C1657 C1658 1.374 . S
C1658 H1632 0.950 . S
C1658 C1654 1.385 . S
C1658 C1657 1.374 . S
C1659 C1656 1.499 . S
C1659 C1660 1.373 . S
C1659 C1661 1.389 . S
C1660 H1633 0.950 . S
C1660 C1646 1.377 1_565 S
C1660 C1659 1.373 . S
C1661 C1645 1.377 1_565 S
C1661 C1659 1.389 . S
C1661 C1662 1.524 . S
C1662 C1661 1.524 . S
C1662 C1663 1.397 . S
C1662 C1667 1.363 . S
C1663 H1634 0.950 . S
C1663 C1662 1.397 . S
C1663 C1664 1.334 . S
C1664 H1635 0.950 . S
C1664 C1663 1.334 . S
C1664 C1665 1.287 . S
C1665 C1664 1.287 . S
C1665 C1666 1.524 . S
C1665 H1668 0.999 . S
C1666 H1636 0.950 . S
C1666 C1665 1.524 . S
C1666 C1667 1.415 . S
C1667 H1637 0.950 . S
C1667 C1662 1.363 . S
C1667 C1666 1.415 . S
H1668 C1665 0.999 . S
H1669 C1650 0.913 . S
H1670 C1688 0.951 . S
H1671 C1690 0.951 . S
H1672 C1692 0.950 . S
H1673 C1693 0.950 . S
H1674 C1695 0.950 . S
H1675 C1698 0.950 . S
H1676 C1699 0.950 . S
H1677 C1701 0.950 . S
H1678 C1702 0.950 . S
H1679 C1703 0.951 . S
H1680 C1705 0.951 . S
H1681 C1707 0.950 . S
H1682 C1708 0.950 . S
H1683 C1710 0.950 . S
H1684 C1713 0.950 . S
H1685 C1714 0.950 . S
H1686 C1716 0.950 . S
H1687 C1717 0.950 . S
C1688 H1670 0.951 . S
C1688 C1689 1.366 . S
C1688 C1690 1.388 . S
C1689 C1688 1.366 . S
C1689 C1693 1.385 . S
C1690 H1671 0.951 . S
C1690 C1688 1.388 . S
C1690 C1691 1.366 . S
C1691 C1690 1.366 . S
C1691 C1692 1.414 . S
C1691 C1694 1.499 . S
C1692 H1672 0.950 . S
C1692 C1691 1.414 . S
C1692 C1693 1.374 . S
C1693 H1673 0.950 . S
C1693 C1689 1.385 . S
C1693 C1692 1.374 . S
C1694 C1691 1.499 . S
C1694 C1695 1.373 . S
C1694 C1696 1.389 . S
C1695 H1674 0.950 . S
C1695 C1694 1.373 . S
C1695 C1711 1.377 . S
C1696 C1694 1.389 . S
C1696 C1697 1.524 . S
C1696 C1710 1.377 . S
C1697 C1696 1.524 . S
C1697 C1698 1.397 . S
C1697 C1702 1.363 . S
C1698 H1675 0.950 . S
C1698 C1697 1.397 . S
C1698 C1699 1.334 . S
C1699 H1676 0.950 . S
C1699 C1698 1.334 . S
C1699 C1700 1.287 . S
C1700 C1699 1.287 . S
C1700 C1701 1.524 . S
C1700 H1719 0.913 . S
C1701 H1677 0.950 . S
C1701 C1700 1.524 . S
C1701 C1702 1.415 . S
C1702 H1678 0.950 . S
C1702 C1697 1.363 . S
C1702 C1701 1.415 . S
C1703 H1679 0.951 . S
C1703 C1704 1.366 . S
C1703 C1705 1.388 . S
C1704 C1703 1.366 . S
C1704 C1708 1.385 . S
C1705 H1680 0.951 . S
C1705 C1703 1.388 . S
C1705 C1706 1.366 . S
C1706 C1705 1.366 . S
C1706 C1707 1.414 . S
C1706 C1709 1.499 . S
C1707 H1681 0.950 . S
C1707 C1706 1.414 . S
C1707 C1708 1.374 . S
C1708 H1682 0.950 . S
C1708 C1704 1.385 . S
C1708 C1707 1.374 . S
C1709 C1706 1.499 . S
C1709 C1710 1.373 . S
C1709 C1711 1.389 . S
C1710 H1683 0.950 . S
C1710 C1696 1.377 . S
C1710 C1709 1.373 . S
C1711 C1695 1.377 . S
C1711 C1709 1.389 . S
C1711 C1712 1.524 . S
C1712 C1711 1.524 . S
C1712 C1713 1.397 . S
C1712 C1717 1.363 . S
C1713 H1684 0.950 . S
C1713 C1712 1.397 . S
C1713 C1714 1.334 . S
C1714 H1685 0.950 . S
C1714 C1713 1.334 . S
C1714 C1715 1.287 . S
C1715 C1714 1.287 . S
C1715 C1716 1.524 . S
C1715 H1718 0.999 . S
C1716 H1686 0.950 . S
C1716 C1715 1.524 . S
C1716 C1717 1.415 . S
C1717 H1687 0.950 . S
C1717 C1712 1.363 . S
C1717 C1716 1.415 . S
H1718 C1715 0.999 . S
H1719 C1700 0.913 . S
H1720 C1738 0.951 . S
H1721 C1740 0.951 . S
H1722 C1742 0.950 . S
H1723 C1743 0.950 . S
H1724 C1745 0.950 . S
H1725 C1748 0.950 . S
H1726 C1749 0.950 . S
H1727 C1751 0.950 . S
H1728 C1752 0.950 . S
H1729 C1753 0.951 . S
H1730 C1755 0.951 . S
H1731 C1757 0.950 . S
H1732 C1758 0.950 . S
H1733 C1760 0.950 . S
H1734 C1763 0.950 . S
H1735 C1764 0.950 . S
H1736 C1766 0.950 . S
H1737 C1767 0.950 . S
C1738 H1720 0.951 . S
C1738 C1739 1.366 . S
C1738 C1740 1.388 . S
C1739 C1738 1.366 . S
C1739 C1743 1.385 . S
C1740 H1721 0.951 . S
C1740 C1738 1.388 . S
C1740 C1741 1.366 . S
C1741 C1740 1.366 . S
C1741 C1742 1.414 . S
C1741 C1744 1.499 . S
C1742 H1722 0.950 . S
C1742 C1741 1.414 . S
C1742 C1743 1.374 . S
C1743 H1723 0.950 . S
C1743 C1739 1.385 . S
C1743 C1742 1.374 . S
C1744 C1741 1.499 . S
C1744 C1745 1.373 . S
C1744 C1746 1.389 . S
C1745 H1724 0.950 . S
C1745 C1744 1.373 . S
C1745 C1761 1.377 . S
C1746 C1744 1.389 . S
C1746 C1747 1.524 . S
C1746 C1760 1.377 . S
C1747 C1746 1.524 . S
C1747 C1748 1.397 . S
C1747 C1752 1.363 . S
C1748 H1725 0.950 . S
C1748 C1747 1.397 . S
C1748 C1749 1.334 . S
C1749 H1726 0.950 . S
C1749 C1748 1.334 . S
C1749 C1750 1.287 . S
C1750 C1749 1.287 . S
C1750 C1751 1.524 . S
C1750 H1769 0.913 . S
C1751 H1727 0.950 . S
C1751 C1750 1.524 . S
C1751 C1752 1.415 . S
C1752 H1728 0.950 . S
C1752 C1747 1.363 . S
C1752 C1751 1.415 . S
C1753 H1729 0.951 . S
C1753 C1754 1.366 . S
C1753 C1755 1.388 . S
C1754 C1753 1.366 . S
C1754 C1758 1.385 . S
C1755 H1730 0.951 . S
C1755 C1753 1.388 . S
C1755 C1756 1.366 . S
C1756 C1755 1.366 . S
C1756 C1757 1.414 . S
C1756 C1759 1.499 . S
C1757 H1731 0.950 . S
C1757 C1756 1.414 . S
C1757 C1758 1.374 . S
C1758 H1732 0.950 . S
C1758 C1754 1.385 . S
C1758 C1757 1.374 . S
C1759 C1756 1.499 . S
C1759 C1760 1.373 . S
C1759 C1761 1.389 . S
C1760 H1733 0.950 . S
C1760 C1746 1.377 . S
C1760 C1759 1.373 . S
C1761 C1745 1.377 . S
C1761 C1759 1.389 . S
C1761 C1762 1.524 . S
C1762 C1761 1.524 . S
C1762 C1763 1.397 . S
C1762 C1767 1.363 . S
C1763 H1734 0.950 . S
C1763 C1762 1.397 . S
C1763 C1764 1.334 . S
C1764 H1735 0.950 . S
C1764 C1763 1.334 . S
C1764 C1765 1.287 . S
C1765 C1764 1.287 . S
C1765 C1766 1.524 . S
C1765 H1768 0.999 . S
C1766 H1736 0.950 . S
C1766 C1765 1.524 . S
C1766 C1767 1.415 . S
C1767 H1737 0.950 . S
C1767 C1762 1.363 . S
C1767 C1766 1.415 . S
H1768 C1765 0.999 . S
H1769 C1750 0.913 . S
H1770 C1788 0.951 . S
H1771 C1790 0.951 . S
H1772 C1792 0.950 . S
H1773 C1793 0.950 . S
H1774 C1795 0.950 . S
H1775 C1798 0.950 . S
H1776 C1799 0.950 . S
H1777 C1801 0.950 . S
H1778 C1802 0.950 . S
H1779 C1803 0.951 . S
H1780 C1805 0.951 . S
H1781 C1807 0.950 . S
H1782 C1808 0.950 . S
H1783 C1810 0.950 . S
H1784 C1813 0.950 . S
H1785 C1814 0.950 . S
H1786 C1816 0.950 . S
H1787 C1817 0.950 . S
C1788 H1770 0.951 . S
C1788 C1789 1.366 . S
C1788 C1790 1.388 . S
C1789 C1788 1.366 . S
C1789 C1793 1.385 . S
C1790 H1771 0.951 . S
C1790 C1788 1.388 . S
C1790 C1791 1.366 . S
C1791 C1790 1.366 . S
C1791 C1792 1.414 . S
C1791 C1794 1.499 . S
C1792 H1772 0.950 . S
C1792 C1791 1.414 . S
C1792 C1793 1.374 . S
C1793 H1773 0.950 . S
C1793 C1789 1.385 . S
C1793 C1792 1.374 . S
C1794 C1791 1.499 . S
C1794 C1795 1.373 . S
C1794 C1796 1.389 . S
C1795 H1774 0.950 . S
C1795 C1794 1.373 . S
C1795 C1811 1.377 . S
C1796 C1794 1.389 . S
C1796 C1797 1.524 . S
C1796 C1810 1.377 . S
C1797 C1796 1.524 . S
C1797 C1798 1.397 . S
C1797 C1802 1.363 . S
C1798 H1775 0.950 . S
C1798 C1797 1.397 . S
C1798 C1799 1.334 . S
C1799 H1776 0.950 . S
C1799 C1798 1.334 . S
C1799 C1800 1.287 . S
C1800 C1799 1.287 . S
C1800 C1801 1.524 . S
C1800 H1819 0.913 . S
C1801 H1777 0.950 . S
C1801 C1800 1.524 . S
C1801 C1802 1.415 . S
C1802 H1778 0.950 . S
C1802 C1797 1.363 . S
C1802 C1801 1.415 . S
C1803 H1779 0.951 . S
C1803 C1804 1.366 . S
C1803 C1805 1.388 . S
C1804 C1803 1.366 . S
C1804 C1808 1.385 . S
C1805 H1780 0.951 . S
C1805 C1803 1.388 . S
C1805 C1806 1.366 . S
C1806 C1805 1.366 . S
C1806 C1807 1.414 . S
C1806 C1809 1.499 . S
C1807 H1781 0.950 . S
C1807 C1806 1.414 . S
C1807 C1808 1.374 . S
C1808 H1782 0.950 . S
C1808 C1804 1.385 . S
C1808 C1807 1.374 . S
C1809 C1806 1.499 . S
C1809 C1810 1.373 . S
C1809 C1811 1.389 . S
C1810 H1783 0.950 . S
C1810 C1796 1.377 . S
C1810 C1809 1.373 . S
C1811 C1795 1.377 . S
C1811 C1809 1.389 . S
C1811 C1812 1.524 . S
C1812 C1811 1.524 . S
C1812 C1813 1.397 . S
C1812 C1817 1.363 . S
C1813 H1784 0.950 . S
C1813 C1812 1.397 . S
C1813 C1814 1.334 . S
C1814 H1785 0.950 . S
C1814 C1813 1.334 . S
C1814 C1815 1.287 . S
C1815 C1814 1.287 . S
C1815 C1816 1.524 . S
C1815 H1818 0.999 . S
C1816 H1786 0.950 . S
C1816 C1815 1.524 . S
C1816 C1817 1.415 . S
C1817 H1787 0.950 . S
C1817 C1812 1.363 . S
C1817 C1816 1.415 . S
H1818 C1815 0.999 . S
H1819 C1800 0.913 . S
H1820 C1838 0.951 . S
H1821 C1840 0.951 . S
H1822 C1842 0.950 . S
H1823 C1843 0.950 . S
H1824 C1845 0.950 . S
H1825 C1848 0.950 . S
H1826 C1849 0.950 . S
H1827 C1851 0.950 . S
H1828 C1852 0.950 . S
H1829 C1853 0.951 . S
H1830 C1855 0.951 . S
H1831 C1857 0.950 . S
H1832 C1858 0.950 . S
H1833 C1860 0.950 . S
H1834 C1863 0.950 . S
H1835 C1864 0.950 . S
H1836 C1866 0.950 . S
H1837 C1867 0.950 . S
C1838 H1820 0.951 . S
C1838 C1839 1.366 . S
C1838 C1840 1.388 . S
C1839 C1838 1.366 . S
C1839 C1843 1.385 . S
C1840 H1821 0.951 . S
C1840 C1838 1.388 . S
C1840 C1841 1.366 . S
C1841 C1840 1.366 . S
C1841 C1842 1.414 . S
C1841 C1844 1.499 . S
C1842 H1822 0.950 . S
C1842 C1841 1.414 . S
C1842 C1843 1.374 . S
C1843 H1823 0.950 . S
C1843 C1839 1.385 . S
C1843 C1842 1.374 . S
C1844 C1841 1.499 . S
C1844 C1845 1.373 . S
C1844 C1846 1.389 . S
C1845 H1824 0.950 . S
C1845 C1844 1.373 . S
C1845 C1861 1.377 . S
C1846 C1844 1.389 . S
C1846 C1847 1.524 . S
C1846 C1860 1.377 . S
C1847 C1846 1.524 . S
C1847 C1848 1.397 . S
C1847 C1852 1.363 . S
C1848 H1825 0.950 . S
C1848 C1847 1.397 . S
C1848 C1849 1.334 . S
C1849 H1826 0.950 . S
C1849 C1848 1.334 . S
C1849 C1850 1.287 . S
C1850 C1849 1.287 . S
C1850 C1851 1.524 . S
C1850 H1869 0.913 . S
C1851 H1827 0.950 . S
C1851 C1850 1.524 . S
C1851 C1852 1.415 . S
C1852 H1828 0.950 . S
C1852 C1847 1.363 . S
C1852 C1851 1.415 . S
C1853 H1829 0.951 . S
C1853 C1854 1.366 . S
C1853 C1855 1.388 . S
C1854 C1853 1.366 . S
C1854 C1858 1.385 . S
C1855 H1830 0.951 . S
C1855 C1853 1.388 . S
C1855 C1856 1.366 . S
C1856 C1855 1.366 . S
C1856 C1857 1.414 . S
C1856 C1859 1.499 . S
C1857 H1831 0.950 . S
C1857 C1856 1.414 . S
C1857 C1858 1.374 . S
C1858 H1832 0.950 . S
C1858 C1854 1.385 . S
C1858 C1857 1.374 . S
C1859 C1856 1.499 . S
C1859 C1860 1.373 . S
C1859 C1861 1.389 . S
C1860 H1833 0.950 . S
C1860 C1846 1.377 . S
C1860 C1859 1.373 . S
C1861 C1845 1.377 . S
C1861 C1859 1.389 . S
C1861 C1862 1.524 . S
C1862 C1861 1.524 . S
C1862 C1863 1.397 . S
C1862 C1867 1.363 . S
C1863 H1834 0.950 . S
C1863 C1862 1.397 . S
C1863 C1864 1.334 . S
C1864 H1835 0.950 . S
C1864 C1863 1.334 . S
C1864 C1865 1.287 . S
C1865 C1864 1.287 . S
C1865 C1866 1.524 . S
C1865 H1868 0.999 . S
C1866 H1836 0.950 . S
C1866 C1865 1.524 . S
C1866 C1867 1.415 . S
C1867 H1837 0.950 . S
C1867 C1862 1.363 . S
C1867 C1866 1.415 . S
H1868 C1865 0.999 . S
H1869 C1850 0.913 . S
H1870 C1888 0.951 . S
H1871 C1890 0.951 . S
H1872 C1892 0.950 . S
H1873 C1893 0.950 1_655 S
H1874 C1895 0.964 . S
H1875 C1898 0.950 . S
H1876 C1899 0.950 . S
H1877 C1901 0.950 . S
H1878 C1902 0.950 1_554 S
H1879 C1903 0.951 . S
H1880 C1905 0.951 . S
H1881 C1907 0.950 . S
H1882 C1908 0.950 . S
H1883 C1910 0.950 . S
H1884 C1913 0.950 . S
H1885 C1914 0.950 . S
H1886 C1916 0.950 . S
H1887 C1917 0.950 1_556 S
C1888 H1870 0.951 . S
C1888 C1889 1.366 . S
C1888 C1890 1.388 . S
C1889 C1888 1.366 . S
C1889 C1893 1.385 . S
C1890 H1871 0.951 . S
C1890 C1888 1.388 . S
C1890 C1891 1.366 . S
C1891 C1890 1.366 . S
C1891 C1892 1.414 . S
C1891 C1894 1.499 . S
C1892 H1872 0.950 . S
C1892 C1891 1.414 . S
C1892 C1893 1.374 . S
C1893 H1873 0.950 1_455 S
C1893 C1889 1.385 . S
C1893 C1892 1.374 . S
C1894 C1891 1.499 . S
C1894 C1895 1.373 . S
C1894 C1896 1.389 . S
C1895 H1874 0.964 . S
C1895 C1894 1.373 . S
C1895 C1911 1.377 1_556 S
C1896 C1894 1.389 . S
C1896 C1897 1.524 . S
C1896 C1910 1.377 1_556 S
C1897 C1896 1.524 . S
C1897 C1898 1.397 . S
C1897 C1902 1.363 . S
C1898 H1875 0.950 . S
C1898 C1897 1.397 . S
C1898 C1899 1.334 . S
C1899 H1876 0.950 . S
C1899 C1898 1.334 . S
C1899 C1900 1.287 . S
C1900 C1899 1.287 . S
C1900 C1901 1.524 . S
C1900 H1919 0.913 . S
C1901 H1877 0.950 . S
C1901 C1900 1.524 . S
C1901 C1902 1.415 . S
C1902 H1878 0.950 1_556 S
C1902 C1897 1.363 . S
C1902 C1901 1.415 . S
C1903 H1879 0.951 . S
C1903 C1904 1.366 . S
C1903 C1905 1.388 . S
C1904 C1903 1.366 . S
C1904 C1908 1.385 . S
C1905 H1880 0.951 . S
C1905 C1903 1.388 . S
C1905 C1906 1.366 . S
C1906 C1905 1.366 . S
C1906 C1907 1.414 . S
C1906 C1909 1.499 . S
C1907 H1881 0.950 . S
C1907 C1906 1.414 . S
C1907 C1908 1.374 . S
C1908 H1882 0.950 . S
C1908 C1904 1.385 . S
C1908 C1907 1.374 . S
C1909 C1906 1.499 . S
C1909 C1910 1.373 . S
C1909 C1911 1.389 . S
C1910 H1883 0.950 . S
C1910 C1896 1.377 1_554 S
C1910 C1909 1.373 . S
C1911 C1895 1.377 1_554 S
C1911 C1909 1.389 . S
C1911 C1912 1.524 . S
C1912 C1911 1.524 . S
C1912 C1913 1.397 . S
C1912 C1917 1.363 1_455 S
C1913 H1884 0.950 . S
C1913 C1912 1.397 . S
C1913 C1914 1.334 1_455 S
C1914 H1885 0.950 . S
C1914 C1913 1.334 1_655 S
C1914 C1915 1.287 . S
C1915 C1914 1.287 . S
C1915 C1916 1.524 . S
C1915 H1918 0.999 . S
C1916 H1886 0.950 . S
C1916 C1915 1.524 . S
C1916 C1917 1.415 . S
C1917 H1887 0.950 1_554 S
C1917 C1912 1.363 1_655 S
C1917 C1916 1.415 . S
H1918 C1915 0.999 . S
H1919 C1900 0.913 . S
H1920 C1938 0.951 . S
H1921 C1940 0.951 . S
H1922 C1942 0.950 . S
H1923 C1943 0.950 . S
H1924 C1945 0.950 . S
H1925 C1948 0.950 . S
H1926 C1949 0.950 . S
H1927 C1951 0.950 . S
H1928 C1952 0.950 . S
H1929 C1953 0.951 . S
H1930 C1955 0.951 . S
H1931 C1957 0.950 . S
H1932 C1958 0.950 . S
H1933 C1960 0.950 . S
H1934 C1963 0.950 . S
H1935 C1964 0.950 . S
H1936 C1966 0.950 . S
H1937 C1967 0.950 . S
C1938 H1920 0.951 . S
C1938 C1939 1.366 . S
C1938 C1940 1.388 . S
C1939 C1938 1.366 . S
C1939 C1943 1.385 . S
C1940 H1921 0.951 . S
C1940 C1938 1.388 . S
C1940 C1941 1.366 . S
C1941 C1940 1.366 . S
C1941 C1942 1.414 . S
C1941 C1944 1.499 . S
C1942 H1922 0.950 . S
C1942 C1941 1.414 . S
C1942 C1943 1.374 . S
C1943 H1923 0.950 . S
C1943 C1939 1.385 . S
C1943 C1942 1.374 . S
C1944 C1941 1.499 . S
C1944 C1945 1.373 . S
C1944 C1946 1.389 . S
C1945 H1924 0.950 . S
C1945 C1944 1.373 . S
C1945 C1961 1.377 . S
C1946 C1944 1.389 . S
C1946 C1947 1.524 . S
C1946 C1960 1.377 . S
C1947 C1946 1.524 . S
C1947 C1948 1.397 . S
C1947 C1952 1.363 . S
C1948 H1925 0.950 . S
C1948 C1947 1.397 . S
C1948 C1949 1.334 . S
C1949 H1926 0.950 . S
C1949 C1948 1.334 . S
C1949 C1950 1.287 . S
C1950 C1949 1.287 . S
C1950 C1951 1.524 . S
C1950 H1969 0.913 . S
C1951 H1927 0.950 . S
C1951 C1950 1.524 . S
C1951 C1952 1.415 . S
C1952 H1928 0.950 . S
C1952 C1947 1.363 . S
C1952 C1951 1.415 . S
C1953 H1929 0.951 . S
C1953 C1954 1.366 . S
C1953 C1955 1.388 . S
C1954 C1953 1.366 . S
C1954 C1958 1.385 . S
C1955 H1930 0.951 . S
C1955 C1953 1.388 . S
C1955 C1956 1.366 . S
C1956 C1955 1.366 . S
C1956 C1957 1.414 . S
C1956 C1959 1.499 . S
C1957 H1931 0.950 . S
C1957 C1956 1.414 . S
C1957 C1958 1.374 . S
C1958 H1932 0.950 . S
C1958 C1954 1.385 . S
C1958 C1957 1.374 . S
C1959 C1956 1.499 . S
C1959 C1960 1.373 . S
C1959 C1961 1.389 . S
C1960 H1933 0.950 . S
C1960 C1946 1.377 . S
C1960 C1959 1.373 . S
C1961 C1945 1.377 . S
C1961 C1959 1.389 . S
C1961 C1962 1.524 . S
C1962 C1961 1.524 . S
C1962 C1963 1.397 . S
C1962 C1967 1.363 . S
C1963 H1934 0.950 . S
C1963 C1962 1.397 . S
C1963 C1964 1.334 . S
C1964 H1935 0.950 . S
C1964 C1963 1.334 . S
C1964 C1965 1.287 . S
C1965 C1964 1.287 . S
C1965 C1966 1.524 . S
C1965 H1968 0.999 . S
C1966 H1936 0.950 . S
C1966 C1965 1.524 . S
C1966 C1967 1.415 . S
C1967 H1937 0.950 . S
C1967 C1962 1.363 . S
C1967 C1966 1.415 . S
H1968 C1965 0.999 . S
H1969 C1950 0.913 . S
H1970 C1988 0.951 . S
H1971 C1990 0.951 . S
H1972 C1992 0.950 . S
H1973 C1993 0.950 . S
H1974 C1995 0.950 . S
H1975 C1998 0.950 . S
H1976 C1999 0.950 . S
H1977 C2001 0.950 . S
H1978 C2002 0.950 . S
H1979 C2003 0.951 . S
H1980 C2005 0.951 . S
H1981 C2007 0.950 . S
H1982 C2008 0.950 . S
H1983 C2010 0.950 . S
H1984 C2013 0.950 . S
H1985 C2014 0.950 . S
H1986 C2016 0.950 . S
H1987 C2017 0.950 . S
C1988 H1970 0.951 . S
C1988 C1989 1.366 . S
C1988 C1990 1.388 . S
C1989 C1988 1.366 . S
C1989 C1993 1.385 . S
C1990 H1971 0.951 . S
C1990 C1988 1.388 . S
C1990 C1991 1.366 . S
C1991 C1990 1.366 . S
C1991 C1992 1.414 . S
C1991 C1994 1.499 . S
C1992 H1972 0.950 . S
C1992 C1991 1.414 . S
C1992 C1993 1.374 . S
C1993 H1973 0.950 . S
C1993 C1989 1.385 . S
C1993 C1992 1.374 . S
C1994 C1991 1.499 . S
C1994 C1995 1.373 . S
C1994 C1996 1.389 . S
C1995 H1974 0.950 . S
C1995 C1994 1.373 . S
C1995 C2011 1.377 . S
C1996 C1994 1.389 . S
C1996 C1997 1.524 . S
C1996 C2010 1.377 . S
C1997 C1996 1.524 . S
C1997 C1998 1.397 . S
C1997 C2002 1.363 . S
C1998 H1975 0.950 . S
C1998 C1997 1.397 . S
C1998 C1999 1.334 . S
C1999 H1976 0.950 . S
C1999 C1998 1.334 . S
C1999 C2000 1.287 . S
C2000 C1999 1.287 . S
C2000 C2001 1.524 . S
C2000 H2019 0.913 . S
C2001 H1977 0.950 . S
C2001 C2000 1.524 . S
C2001 C2002 1.415 . S
C2002 H1978 0.950 . S
C2002 C1997 1.363 . S
C2002 C2001 1.415 . S
C2003 H1979 0.951 . S
C2003 C2004 1.366 . S
C2003 C2005 1.388 . S
C2004 C2003 1.366 . S
C2004 C2008 1.385 . S
C2005 H1980 0.951 . S
C2005 C2003 1.388 . S
C2005 C2006 1.366 . S
C2006 C2005 1.366 . S
C2006 C2007 1.414 . S
C2006 C2009 1.499 . S
C2007 H1981 0.950 . S
C2007 C2006 1.414 . S
C2007 C2008 1.374 . S
C2008 H1982 0.950 . S
C2008 C2004 1.385 . S
C2008 C2007 1.374 . S
C2009 C2006 1.499 . S
C2009 C2010 1.373 . S
C2009 C2011 1.389 . S
C2010 H1983 0.950 . S
C2010 C1996 1.377 . S
C2010 C2009 1.373 . S
C2011 C1995 1.377 . S
C2011 C2009 1.389 . S
C2011 C2012 1.524 . S
C2012 C2011 1.524 . S
C2012 C2013 1.397 . S
C2012 C2017 1.363 . S
C2013 H1984 0.950 . S
C2013 C2012 1.397 . S
C2013 C2014 1.334 . S
C2014 H1985 0.950 . S
C2014 C2013 1.334 . S
C2014 C2015 1.287 . S
C2015 C2014 1.287 . S
C2015 C2016 1.524 . S
C2015 H2018 0.999 . S
C2016 H1986 0.950 . S
C2016 C2015 1.524 . S
C2016 C2017 1.415 . S
C2017 H1987 0.950 . S
C2017 C2012 1.363 . S
C2017 C2016 1.415 . S
H2018 C2015 0.999 . S
H2019 C2000 0.913 . S
H2020 C2038 0.951 1_554 S
H2021 C2040 0.951 . S
H2022 C2042 0.950 . S
H2023 C2043 0.950 . S
H2024 C2045 0.950 . S
H2025 C2048 0.950 . S
H2026 C2049 0.950 . S
H2027 C2051 0.950 . S
H2028 C2052 0.950 . S
H2029 C2053 0.951 . S
H2030 C2055 0.951 . S
H2031 C2057 0.950 . S
H2032 C2058 0.950 . S
H2033 C2060 0.950 . S
H2034 C2063 0.950 . S
H2035 C2064 0.950 . S
H2036 C2066 0.950 . S
H2037 C2067 0.950 . S
C2038 H2020 0.951 1_556 S
C2038 C2039 1.366 . S
C2038 C2040 1.388 . S
C2039 C2038 1.366 . S
C2039 C2043 1.385 . S
C2040 H2021 0.951 . S
C2040 C2038 1.388 . S
C2040 C2041 1.366 . S
C2041 C2040 1.366 . S
C2041 C2042 1.414 . S
C2041 C2044 1.499 . S
C2042 H2022 0.950 . S
C2042 C2041 1.414 . S
C2042 C2043 1.374 . S
C2043 H2023 0.950 . S
C2043 C2039 1.385 . S
C2043 C2042 1.374 . S
C2044 C2041 1.499 . S
C2044 C2045 1.373 . S
C2044 C2046 1.389 . S
C2045 H2024 0.950 . S
C2045 C2044 1.373 . S
C2045 C2061 1.377 . S
C2046 C2044 1.389 . S
C2046 C2047 1.524 . S
C2046 C2060 1.377 . S
C2047 C2046 1.524 . S
C2047 C2048 1.397 . S
C2047 C2052 1.363 . S
C2048 H2025 0.950 . S
C2048 C2047 1.397 . S
C2048 C2049 1.334 . S
C2049 H2026 0.950 . S
C2049 C2048 1.334 . S
C2049 C2050 1.287 . S
C2050 C2049 1.287 . S
C2050 C2051 1.524 . S
C2050 H2069 0.913 . S
C2051 H2027 0.950 . S
C2051 C2050 1.524 . S
C2051 C2052 1.415 . S
C2052 H2028 0.950 . S
C2052 C2047 1.363 . S
C2052 C2051 1.415 . S
C2053 H2029 0.951 . S
C2053 C2054 1.366 . S
C2053 C2055 1.388 . S
C2054 C2053 1.366 . S
C2054 C2058 1.385 . S
C2055 H2030 0.951 . S
C2055 C2053 1.388 . S
C2055 C2056 1.366 . S
C2056 C2055 1.366 . S
C2056 C2057 1.414 . S
C2056 C2059 1.499 . S
C2057 H2031 0.950 . S
C2057 C2056 1.414 . S
C2057 C2058 1.374 . S
C2058 H2032 0.950 . S
C2058 C2054 1.385 . S
C2058 C2057 1.374 . S
C2059 C2056 1.499 . S
C2059 C2060 1.373 . S
C2059 C2061 1.389 . S
C2060 H2033 0.950 . S
C2060 C2046 1.377 . S
C2060 C2059 1.373 . S
C2061 C2045 1.377 . S
C2061 C2059 1.389 . S
C2061 C2062 1.524 . S
C2062 C2061 1.524 . S
C2062 C2063 1.397 . S
C2062 C2067 1.363 . S
C2063 H2034 0.950 . S
C2063 C2062 1.397 . S
C2063 C2064 1.334 . S
C2064 H2035 0.950 . S
C2064 C2063 1.334 . S
C2064 C2065 1.287 . S
C2065 C2064 1.287 . S
C2065 C2066 1.524 . S
C2065 H2068 0.999 . S
C2066 H2036 0.950 . S
C2066 C2065 1.524 . S
C2066 C2067 1.415 . S
C2067 H2037 0.950 . S
C2067 C2062 1.363 . S
C2067 C2066 1.415 . S
H2068 C2065 0.999 . S
H2069 C2050 0.913 . S
H2070 C2088 0.951 . S
H2071 C2090 0.951 . S
H2072 C2092 0.950 . S
H2073 C2093 0.950 . S
H2074 C2095 0.950 . S
H2075 C2098 0.950 . S
H2076 C2099 0.950 . S
H2077 C2101 0.950 . S
H2078 C2102 0.950 . S
H2079 C2103 0.951 . S
H2080 C2105 0.951 . S
H2081 C2107 0.950 . S
H2082 C2108 0.950 . S
H2083 C2110 0.950 . S
H2084 C2113 0.950 . S
H2085 C2114 0.950 . S
H2086 C2116 0.950 . S
H2087 C2117 0.950 . S
C2088 H2070 0.951 . S
C2088 C2089 1.366 . S
C2088 C2090 1.388 . S
C2089 C2088 1.366 . S
C2089 C2093 1.385 . S
C2090 H2071 0.951 . S
C2090 C2088 1.388 . S
C2090 C2091 1.366 . S
C2091 C2090 1.366 . S
C2091 C2092 1.414 . S
C2091 C2094 1.499 . S
C2092 H2072 0.950 . S
C2092 C2091 1.414 . S
C2092 C2093 1.374 . S
C2093 H2073 0.950 . S
C2093 C2089 1.385 . S
C2093 C2092 1.374 . S
C2094 C2091 1.499 . S
C2094 C2095 1.373 . S
C2094 C2096 1.389 . S
C2095 H2074 0.950 . S
C2095 C2094 1.373 . S
C2095 C2111 1.377 . S
C2096 C2094 1.389 . S
C2096 C2097 1.524 . S
C2096 C2110 1.377 . S
C2097 C2096 1.524 . S
C2097 C2098 1.397 . S
C2097 C2102 1.363 . S
C2098 H2075 0.950 . S
C2098 C2097 1.397 . S
C2098 C2099 1.334 . S
C2099 H2076 0.950 . S
C2099 C2098 1.334 . S
C2099 C2100 1.287 . S
C2100 C2099 1.287 . S
C2100 C2101 1.524 . S
C2100 H2119 0.913 . S
C2101 H2077 0.950 . S
C2101 C2100 1.524 . S
C2101 C2102 1.415 . S
C2102 H2078 0.950 . S
C2102 C2097 1.363 . S
C2102 C2101 1.415 . S
C2103 H2079 0.951 . S
C2103 C2104 1.366 1_554 S
C2103 C2105 1.388 . S
C2104 C2103 1.366 1_556 S
C2104 C2108 1.385 . S
C2105 H2080 0.951 . S
C2105 C2103 1.388 . S
C2105 C2106 1.366 . S
C2106 C2105 1.366 . S
C2106 C2107 1.414 . S
C2106 C2109 1.499 . S
C2107 H2081 0.950 . S
C2107 C2106 1.414 . S
C2107 C2108 1.374 1_554 S
C2108 H2082 0.950 . S
C2108 C2104 1.385 . S
C2108 C2107 1.374 1_556 S
C2109 C2106 1.499 . S
C2109 C2110 1.373 . S
C2109 C2111 1.389 . S
C2110 H2083 0.950 . S
C2110 C2096 1.377 . S
C2110 C2109 1.373 . S
C2111 C2095 1.377 . S
C2111 C2109 1.389 . S
C2111 C2112 1.524 . S
C2112 C2111 1.524 . S
C2112 C2113 1.397 . S
C2112 C2117 1.363 . S
C2113 H2084 0.950 . S
C2113 C2112 1.397 . S
C2113 C2114 1.334 . S
C2114 H2085 0.950 . S
C2114 C2113 1.334 . S
C2114 C2115 1.287 . S
C2115 C2114 1.287 . S
C2115 C2116 1.524 . S
C2115 H2118 0.999 . S
C2116 H2086 0.950 . S
C2116 C2115 1.524 . S
C2116 C2117 1.415 . S
C2117 H2087 0.950 . S
C2117 C2112 1.363 . S
C2117 C2116 1.415 . S
H2118 C2115 0.999 . S
H2119 C2100 0.913 . S
H2120 C2138 0.951 . S
H2121 C2140 0.951 . S
H2122 C2142 0.950 . S
H2123 C2143 0.950 . S
H2124 C2145 0.950 . S
H2125 C2148 0.950 . S
H2126 C2149 0.950 1_655 S
H2127 C2151 0.950 . S
H2128 C2152 0.950 . S
H2129 C2153 0.930 1_655 S
H2130 C2155 0.951 . S
H2131 C2157 0.950 . S
H2132 C2158 0.950 . S
H2133 C2160 0.950 1_455 S
H2134 C2163 0.950 . S
H2135 C2164 0.950 . S
H2136 C2166 0.950 . S
H2137 C2167 0.950 . S
C2138 H2120 0.951 . S
C2138 C2139 1.366 . S
C2138 C2140 1.388 . S
C2139 C2138 1.366 . S
C2139 C2143 1.385 . S
C2140 H2121 0.951 . S
C2140 C2138 1.388 . S
C2140 C2141 1.366 . S
C2141 C2140 1.366 . S
C2141 C2142 1.414 . S
C2141 C2144 1.499 . S
C2142 H2122 0.950 . S
C2142 C2141 1.414 . S
C2142 C2143 1.374 . S
C2143 H2123 0.950 . S
C2143 C2139 1.385 . S
C2143 C2142 1.374 . S
C2144 C2141 1.499 . S
C2144 C2145 1.373 . S
C2144 C2146 1.389 . S
C2145 H2124 0.950 . S
C2145 C2144 1.373 . S
C2145 C2161 1.377 . S
C2146 C2144 1.389 . S
C2146 C2147 1.505 1_655 S
C2146 C2160 1.377 . S
C2147 C2146 1.505 1_455 S
C2147 C2148 1.382 1_455 S
C2147 C2152 1.397 . S
C2148 H2125 0.950 . S
C2148 C2147 1.382 1_655 S
C2148 C2149 1.334 1_655 S
C2149 H2126 0.950 1_455 S
C2149 C2148 1.334 1_455 S
C2149 C2150 1.287 . S
C2150 C2149 1.287 . S
C2150 C2151 1.524 . S
C2150 H2169 0.913 . S
C2151 H2127 0.950 . S
C2151 C2150 1.524 . S
C2151 C2152 1.415 . S
C2152 H2128 0.950 . S
C2152 C2147 1.397 . S
C2152 C2151 1.415 . S
C2153 H2129 0.930 1_455 S
C2153 C2154 1.413 . S
C2153 C2155 1.363 1_455 S
C2154 C2153 1.413 . S
C2154 C2158 1.385 . S
C2155 H2130 0.951 . S
C2155 C2153 1.363 1_655 S
C2155 C2156 1.366 . S
C2156 C2155 1.366 . S
C2156 C2157 1.414 1_655 S
C2156 C2159 1.499 . S
C2157 H2131 0.950 . S
C2157 C2156 1.414 1_455 S
C2157 C2158 1.374 . S
C2158 H2132 0.950 . S
C2158 C2154 1.385 . S
C2158 C2157 1.374 . S
C2159 C2156 1.499 . S
C2159 C2160 1.373 . S
C2159 C2161 1.389 . S
C2160 H2133 0.950 1_655 S
C2160 C2146 1.377 . S
C2160 C2159 1.373 . S
C2161 C2145 1.377 . S
C2161 C2159 1.389 . S
C2161 C2162 1.524 . S
C2162 C2161 1.524 . S
C2162 C2163 1.397 . S
C2162 C2167 1.363 . S
C2163 H2134 0.950 . S
C2163 C2162 1.397 . S
C2163 C2164 1.334 . S
C2164 H2135 0.950 . S
C2164 C2163 1.334 . S
C2164 C2165 1.287 . S
C2165 C2164 1.287 . S
C2165 C2166 1.524 . S
C2165 H2168 0.999 . S
C2166 H2136 0.950 . S
C2166 C2165 1.524 . S
C2166 C2167 1.415 . S
C2167 H2137 0.950 . S
C2167 C2162 1.363 . S
C2167 C2166 1.415 . S
H2168 C2165 0.999 . S
H2169 C2150 0.913 . S
H2170 C2188 0.951 . S
H2171 C2190 0.951 . S
H2172 C2192 0.950 . S
H2173 C2193 0.950 . S
H2174 C2195 0.950 . S
H2175 C2198 0.950 . S
H2176 C2199 0.950 . S
H2177 C2201 0.950 . S
H2178 C2202 0.950 . S
H2179 C2203 0.951 . S
H2180 C2205 0.951 . S
H2181 C2207 0.950 . S
H2182 C2208 0.950 . S
H2183 C2210 0.950 . S
H2184 C2213 0.950 . S
H2185 C2214 0.950 . S
H2186 C2216 0.950 . S
H2187 C2217 0.950 . S
C2188 H2170 0.951 . S
C2188 C2189 1.366 . S
C2188 C2190 1.388 . S
C2189 C2188 1.366 . S
C2189 C2193 1.385 . S
C2190 H2171 0.951 . S
C2190 C2188 1.388 . S
C2190 C2191 1.366 . S
C2191 C2190 1.366 . S
C2191 C2192 1.414 . S
C2191 C2194 1.499 . S
C2192 H2172 0.950 . S
C2192 C2191 1.414 . S
C2192 C2193 1.374 . S
C2193 H2173 0.950 . S
C2193 C2189 1.385 . S
C2193 C2192 1.374 . S
C2194 C2191 1.499 . S
C2194 C2195 1.373 . S
C2194 C2196 1.389 . S
C2195 H2174 0.950 . S
C2195 C2194 1.373 . S
C2195 C2211 1.377 . S
C2196 C2194 1.389 . S
C2196 C2197 1.524 . S
C2196 C2210 1.377 . S
C2197 C2196 1.524 . S
C2197 C2198 1.397 . S
C2197 C2202 1.363 . S
C2198 H2175 0.950 . S
C2198 C2197 1.397 . S
C2198 C2199 1.334 . S
C2199 H2176 0.950 . S
C2199 C2198 1.334 . S
C2199 C2200 1.287 . S
C2200 C2199 1.287 . S
C2200 C2201 1.524 . S
C2200 H2219 0.913 . S
C2201 H2177 0.950 . S
C2201 C2200 1.524 . S
C2201 C2202 1.415 . S
C2202 H2178 0.950 . S
C2202 C2197 1.363 . S
C2202 C2201 1.415 . S
C2203 H2179 0.951 . S
C2203 C2204 1.366 . S
C2203 C2205 1.388 . S
C2204 C2203 1.366 . S
C2204 C2208 1.385 . S
C2205 H2180 0.951 . S
C2205 C2203 1.388 . S
C2205 C2206 1.366 . S
C2206 C2205 1.366 . S
C2206 C2207 1.414 . S
C2206 C2209 1.499 . S
C2207 H2181 0.950 . S
C2207 C2206 1.414 . S
C2207 C2208 1.374 . S
C2208 H2182 0.950 . S
C2208 C2204 1.385 . S
C2208 C2207 1.374 . S
C2209 C2206 1.499 . S
C2209 C2210 1.373 . S
C2209 C2211 1.389 . S
C2210 H2183 0.950 . S
C2210 C2196 1.377 . S
C2210 C2209 1.373 . S
C2211 C2195 1.377 . S
C2211 C2209 1.389 . S
C2211 C2212 1.524 . S
C2212 C2211 1.524 . S
C2212 C2213 1.397 . S
C2212 C2217 1.363 . S
C2213 H2184 0.950 . S
C2213 C2212 1.397 . S
C2213 C2214 1.334 . S
C2214 H2185 0.950 . S
C2214 C2213 1.334 . S
C2214 C2215 1.287 1_655 S
C2215 C2214 1.287 1_455 S
C2215 C2216 1.524 . S
C2215 H2218 0.999 . S
C2216 H2186 0.950 . S
C2216 C2215 1.524 . S
C2216 C2217 1.415 1_455 S
C2217 H2187 0.950 . S
C2217 C2212 1.363 . S
C2217 C2216 1.415 1_655 S
H2218 C2215 0.999 . S
H2219 C2200 0.913 . S
H2220 C2238 0.951 1_556 S
H2221 C2240 0.951 . S
H2222 C2242 0.950 . S
H2223 C2243 0.950 . S
H2224 C2245 0.950 . S
H2225 C2248 0.950 . S
H2226 C2249 0.950 . S
H2227 C2251 0.950 . S
H2228 C2252 0.950 . S
H2229 C2253 0.951 . S
H2230 C2255 0.951 . S
H2231 C2257 0.950 . S
H2232 C2258 0.950 . S
H2233 C2260 0.950 . S
H2234 C2263 0.950 . S
H2235 C2264 0.950 . S
H2236 C2266 0.950 . S
H2237 C2267 0.950 . S
C2238 H2220 0.951 1_554 S
C2238 C2239 1.366 . S
C2238 C2240 1.388 . S
C2239 C2238 1.366 . S
C2239 C2243 1.385 . S
C2240 H2221 0.951 . S
C2240 C2238 1.388 . S
C2240 C2241 1.366 . S
C2241 C2240 1.366 . S
C2241 C2242 1.414 . S
C2241 C2244 1.499 . S
C2242 H2222 0.950 . S
C2242 C2241 1.414 . S
C2242 C2243 1.374 . S
C2243 H2223 0.950 . S
C2243 C2239 1.385 . S
C2243 C2242 1.374 . S
C2244 C2241 1.499 . S
C2244 C2245 1.373 . S
C2244 C2246 1.389 . S
C2245 H2224 0.950 . S
C2245 C2244 1.373 . S
C2245 C2261 1.377 . S
C2246 C2244 1.389 . S
C2246 C2247 1.524 . S
C2246 C2260 1.377 . S
C2247 C2246 1.524 . S
C2247 C2248 1.397 . S
C2247 C2252 1.363 . S
C2248 H2225 0.950 . S
C2248 C2247 1.397 . S
C2248 C2249 1.334 . S
C2249 H2226 0.950 . S
C2249 C2248 1.334 . S
C2249 C2250 1.287 . S
C2250 C2249 1.287 . S
C2250 C2251 1.524 . S
C2250 H2269 0.913 . S
C2251 H2227 0.950 . S
C2251 C2250 1.524 . S
C2251 C2252 1.415 . S
C2252 H2228 0.950 . S
C2252 C2247 1.363 . S
C2252 C2251 1.415 . S
C2253 H2229 0.951 . S
C2253 C2254 1.366 . S
C2253 C2255 1.388 . S
C2254 C2253 1.366 . S
C2254 C2258 1.385 . S
C2255 H2230 0.951 . S
C2255 C2253 1.388 . S
C2255 C2256 1.366 . S
C2256 C2255 1.366 . S
C2256 C2257 1.414 . S
C2256 C2259 1.499 . S
C2257 H2231 0.950 . S
C2257 C2256 1.414 . S
C2257 C2258 1.374 . S
C2258 H2232 0.950 . S
C2258 C2254 1.385 . S
C2258 C2257 1.374 . S
C2259 C2256 1.499 . S
C2259 C2260 1.373 . S
C2259 C2261 1.389 . S
C2260 H2233 0.950 . S
C2260 C2246 1.377 . S
C2260 C2259 1.373 . S
C2261 C2245 1.377 . S
C2261 C2259 1.389 . S
C2261 C2262 1.524 . S
C2262 C2261 1.524 . S
C2262 C2263 1.397 . S
C2262 C2267 1.363 . S
C2263 H2234 0.950 . S
C2263 C2262 1.397 . S
C2263 C2264 1.334 . S
C2264 H2235 0.950 . S
C2264 C2263 1.334 . S
C2264 C2265 1.287 . S
C2265 C2264 1.287 . S
C2265 C2266 1.524 . S
C2265 H2268 0.999 . S
C2266 H2236 0.950 . S
C2266 C2265 1.524 . S
C2266 C2267 1.415 . S
C2267 H2237 0.950 . S
C2267 C2262 1.363 . S
C2267 C2266 1.415 . S
H2268 C2265 0.999 . S
H2269 C2250 0.913 . S
H2270 C2288 0.951 . S
H2271 C2290 0.951 . S
H2272 C2292 0.950 . S
H2273 C2293 0.950 . S
H2274 C2295 0.950 . S
H2275 C2298 0.950 . S
H2276 C2299 0.950 . S
H2277 C2301 0.950 . S
H2278 C2302 0.950 . S
H2279 C2303 0.951 . S
H2280 C2305 0.951 . S
H2281 C2307 0.950 . S
H2282 C2308 0.950 . S
H2283 C2310 0.950 . S
H2284 C2313 0.950 . S
H2285 C2314 0.950 . S
H2286 C2316 0.950 . S
H2287 C2317 0.950 . S
C2288 H2270 0.951 . S
C2288 C2289 1.366 . S
C2288 C2290 1.388 . S
C2289 C2288 1.366 . S
C2289 C2293 1.385 . S
C2290 H2271 0.951 . S
C2290 C2288 1.388 . S
C2290 C2291 1.366 . S
C2291 C2290 1.366 . S
C2291 C2292 1.414 . S
C2291 C2294 1.499 . S
C2292 H2272 0.950 . S
C2292 C2291 1.414 . S
C2292 C2293 1.374 . S
C2293 H2273 0.950 . S
C2293 C2289 1.385 . S
C2293 C2292 1.374 . S
C2294 C2291 1.499 . S
C2294 C2295 1.373 . S
C2294 C2296 1.389 . S
C2295 H2274 0.950 . S
C2295 C2294 1.373 . S
C2295 C2311 1.377 . S
C2296 C2294 1.389 . S
C2296 C2297 1.524 . S
C2296 C2310 1.377 . S
C2297 C2296 1.524 . S
C2297 C2298 1.397 . S
C2297 C2302 1.363 . S
C2298 H2275 0.950 . S
C2298 C2297 1.397 . S
C2298 C2299 1.334 . S
C2299 H2276 0.950 . S
C2299 C2298 1.334 . S
C2299 C2300 1.287 . S
C2300 C2299 1.287 . S
C2300 C2301 1.524 . S
C2300 H2319 0.913 . S
C2301 H2277 0.950 . S
C2301 C2300 1.524 . S
C2301 C2302 1.415 . S
C2302 H2278 0.950 . S
C2302 C2297 1.363 . S
C2302 C2301 1.415 . S
C2303 H2279 0.951 . S
C2303 C2304 1.366 . S
C2303 C2305 1.388 1_554 S
C2304 C2303 1.366 . S
C2304 C2308 1.385 1_554 S
C2305 H2280 0.951 . S
C2305 C2303 1.388 1_556 S
C2305 C2306 1.366 . S
C2306 C2305 1.366 . S
C2306 C2307 1.414 . S
C2306 C2309 1.499 . S
C2307 H2281 0.950 . S
C2307 C2306 1.414 . S
C2307 C2308 1.374 . S
C2308 H2282 0.950 . S
C2308 C2304 1.385 1_556 S
C2308 C2307 1.374 . S
C2309 C2306 1.499 . S
C2309 C2310 1.373 . S
C2309 C2311 1.389 . S
C2310 H2283 0.950 . S
C2310 C2296 1.377 . S
C2310 C2309 1.373 . S
C2311 C2295 1.377 . S
C2311 C2309 1.389 . S
C2311 C2312 1.524 . S
C2312 C2311 1.524 . S
C2312 C2313 1.397 . S
C2312 C2317 1.363 . S
C2313 H2284 0.950 . S
C2313 C2312 1.397 . S
C2313 C2314 1.334 . S
C2314 H2285 0.950 . S
C2314 C2313 1.334 . S
C2314 C2315 1.287 . S
C2315 C2314 1.287 . S
C2315 C2316 1.524 . S
C2315 H2318 0.999 . S
C2316 H2286 0.950 . S
C2316 C2315 1.524 . S
C2316 C2317 1.415 . S
C2317 H2287 0.950 . S
C2317 C2312 1.363 . S
C2317 C2316 1.415 . S
H2318 C2315 0.999 . S
H2319 C2300 0.913 . S
H2320 C2338 0.951 . S
H2321 C2340 0.951 . S
H2322 C2342 0.950 . S
H2323 C2343 0.950 . S
H2324 C2345 0.950 . S
H2325 C2348 0.950 . S
H2326 C2349 0.950 . S
H2327 C2351 0.950 . S
H2328 C2352 0.950 . S
H2329 C2353 0.951 1_554 S
H2330 C2355 0.951 . S
H2331 C2357 0.950 . S
H2332 C2358 0.950 . S
H2333 C2360 0.950 . S
H2334 C2363 0.950 . S
H2335 C2364 0.950 . S
H2336 C2366 0.950 . S
H2337 C2367 0.950 . S
C2338 H2320 0.951 . S
C2338 C2339 1.366 . S
C2338 C2340 1.388 . S
C2339 C2338 1.366 . S
C2339 C2343 1.385 . S
C2340 H2321 0.951 . S
C2340 C2338 1.388 . S
C2340 C2341 1.366 . S
C2341 C2340 1.366 . S
C2341 C2342 1.414 . S
C2341 C2344 1.499 . S
C2342 H2322 0.950 . S
C2342 C2341 1.414 . S
C2342 C2343 1.374 . S
C2343 H2323 0.950 . S
C2343 C2339 1.385 . S
C2343 C2342 1.374 . S
C2344 C2341 1.499 . S
C2344 C2345 1.373 . S
C2344 C2346 1.389 . S
C2345 H2324 0.950 . S
C2345 C2344 1.373 . S
C2345 C2361 1.377 . S
C2346 C2344 1.389 . S
C2346 C2347 1.524 . S
C2346 C2360 1.377 . S
C2347 C2346 1.524 . S
C2347 C2348 1.397 . S
C2347 C2352 1.363 . S
C2348 H2325 0.950 . S
C2348 C2347 1.397 . S
C2348 C2349 1.334 . S
C2349 H2326 0.950 . S
C2349 C2348 1.334 . S
C2349 C2350 1.287 . S
C2350 C2349 1.287 . S
C2350 C2351 1.524 . S
C2350 H2369 0.913 . S
C2351 H2327 0.950 . S
C2351 C2350 1.524 . S
C2351 C2352 1.415 . S
C2352 H2328 0.950 . S
C2352 C2347 1.363 . S
C2352 C2351 1.415 . S
C2353 H2329 0.951 1_556 S
C2353 C2354 1.366 . S
C2353 C2355 1.388 . S
C2354 C2353 1.366 . S
C2354 C2358 1.385 . S
C2355 H2330 0.951 . S
C2355 C2353 1.388 . S
C2355 C2356 1.366 . S
C2356 C2355 1.366 . S
C2356 C2357 1.414 . S
C2356 C2359 1.499 . S
C2357 H2331 0.950 . S
C2357 C2356 1.414 . S
C2357 C2358 1.374 . S
C2358 H2332 0.950 . S
C2358 C2354 1.385 . S
C2358 C2357 1.374 . S
C2359 C2356 1.499 . S
C2359 C2360 1.373 . S
C2359 C2361 1.389 . S
C2360 H2333 0.950 . S
C2360 C2346 1.377 . S
C2360 C2359 1.373 . S
C2361 C2345 1.377 . S
C2361 C2359 1.389 . S
C2361 C2362 1.524 . S
C2362 C2361 1.524 . S
C2362 C2363 1.397 . S
C2362 C2367 1.363 . S
C2363 H2334 0.950 . S
C2363 C2362 1.397 . S
C2363 C2364 1.334 . S
C2364 H2335 0.950 . S
C2364 C2363 1.334 . S
C2364 C2365 1.287 . S
C2365 C2364 1.287 . S
C2365 C2366 1.524 . S
C2365 H2368 0.999 . S
C2366 H2336 0.950 . S
C2366 C2365 1.524 . S
C2366 C2367 1.415 . S
C2367 H2337 0.950 . S
C2367 C2362 1.363 . S
C2367 C2366 1.415 . S
H2368 C2365 0.999 . S
H2369 C2350 0.913 . S
H2370 C2388 0.951 . S
H2371 C2390 0.951 . S
H2372 C2392 0.950 . S
H2373 C2393 0.950 . S
H2374 C2395 0.950 . S
H2375 C2398 0.950 . S
H2376 C2399 0.950 . S
H2377 C2401 0.950 . S
H2378 C2402 0.950 . S
H2379 C2403 0.951 . S
H2380 C2405 0.951 . S
H2381 C2407 0.950 . S
H2382 C2408 0.960 . S
H2383 C2410 0.950 . S
H2384 C2413 0.950 . S
H2385 C2414 0.950 . S
H2386 C2416 0.950 . S
H2387 C2417 0.950 . S
C2388 H2370 0.951 . S
C2388 C2389 1.366 . S
C2388 C2390 1.388 . S
C2389 C2388 1.366 . S
C2389 C2393 1.385 . S
C2390 H2371 0.951 . S
C2390 C2388 1.388 . S
C2390 C2391 1.366 . S
C2391 C2390 1.366 . S
C2391 C2392 1.414 . S
C2391 C2394 1.499 . S
C2392 H2372 0.950 . S
C2392 C2391 1.414 . S
C2392 C2393 1.374 . S
C2393 H2373 0.950 . S
C2393 C2389 1.385 . S
C2393 C2392 1.374 . S
C2394 C2391 1.499 . S
C2394 C2395 1.373 . S
C2394 C2396 1.389 . S
C2395 H2374 0.950 . S
C2395 C2394 1.373 . S
C2395 C2411 1.377 . S
C2396 C2394 1.389 . S
C2396 C2397 1.524 . S
C2396 C2410 1.377 . S
C2397 C2396 1.524 . S
C2397 C2398 1.397 . S
C2397 C2402 1.363 . S
C2398 H2375 0.950 . S
C2398 C2397 1.397 . S
C2398 C2399 1.334 . S
C2399 H2376 0.950 . S
C2399 C2398 1.334 . S
C2399 C2400 1.287 . S
C2400 C2399 1.287 . S
C2400 C2401 1.524 . S
C2400 H2419 0.913 . S
C2401 H2377 0.950 . S
C2401 C2400 1.524 . S
C2401 C2402 1.415 . S
C2402 H2378 0.950 . S
C2402 C2397 1.363 . S
C2402 C2401 1.415 . S
C2403 H2379 0.951 . S
C2403 C2404 1.366 1_554 S
C2403 C2405 1.388 . S
C2404 C2403 1.366 1_556 S
C2404 C2408 1.389 . S
C2405 H2380 0.951 . S
C2405 C2403 1.388 . S
C2405 C2406 1.366 . S
C2406 C2405 1.366 . S
C2406 C2407 1.414 . S
C2406 C2409 1.499 . S
C2407 H2381 0.950 . S
C2407 C2406 1.414 . S
C2407 C2408 1.360 1_554 S
C2408 H2382 0.960 . S
C2408 C2404 1.389 . S
C2408 C2407 1.360 1_556 S
C2409 C2406 1.499 . S
C2409 C2410 1.373 . S
C2409 C2411 1.389 . S
C2410 H2383 0.950 . S
C2410 C2396 1.377 . S
C2410 C2409 1.373 . S
C2411 C2395 1.377 . S
C2411 C2409 1.389 . S
C2411 C2412 1.524 . S
C2412 C2411 1.524 . S
C2412 C2413 1.397 . S
C2412 C2417 1.363 . S
C2413 H2384 0.950 . S
C2413 C2412 1.397 . S
C2413 C2414 1.334 . S
C2414 H2385 0.950 . S
C2414 C2413 1.334 . S
C2414 C2415 1.287 . S
C2415 C2414 1.287 . S
C2415 C2416 1.524 . S
C2415 H2418 0.999 . S
C2416 H2386 0.950 . S
C2416 C2415 1.524 . S
C2416 C2417 1.415 . S
C2417 H2387 0.950 . S
C2417 C2412 1.363 . S
C2417 C2416 1.415 . S
H2418 C2415 0.999 . S
H2419 C2400 0.913 . S
H2420 C2438 0.951 . S
H2421 C2440 0.951 . S
H2422 C2442 0.950 . S
H2423 C2443 0.950 . S
H2424 C2445 0.950 . S
H2425 C2448 0.950 . S
H2426 C2449 0.950 . S
H2427 C2451 0.950 . S
H2428 C2452 0.950 . S
H2429 C2453 0.951 . S
H2430 C2455 0.951 . S
H2431 C2457 0.950 . S
H2432 C2458 0.950 . S
H2433 C2460 0.950 . S
H2434 C2463 0.950 . S
H2435 C2464 0.950 . S
H2436 C2466 0.950 . S
H2437 C2467 0.950 . S
C2438 H2420 0.951 . S
C2438 C2439 1.366 . S
C2438 C2440 1.388 . S
C2439 C2438 1.366 . S
C2439 C2443 1.385 . S
C2440 H2421 0.951 . S
C2440 C2438 1.388 . S
C2440 C2441 1.366 1_455 S
C2441 C2440 1.366 1_655 S
C2441 C2442 1.414 . S
C2441 C2444 1.499 . S
C2442 H2422 0.950 . S
C2442 C2441 1.414 . S
C2442 C2443 1.374 1_655 S
C2443 H2423 0.950 . S
C2443 C2439 1.385 . S
C2443 C2442 1.374 1_455 S
C2444 C2441 1.499 . S
C2444 C2445 1.373 . S
C2444 C2446 1.389 . S
C2445 H2424 0.950 . S
C2445 C2444 1.373 . S
C2445 C2461 1.377 . S
C2446 C2444 1.389 . S
C2446 C2447 1.524 . S
C2446 C2460 1.377 . S
C2447 C2446 1.524 . S
C2447 C2448 1.397 . S
C2447 C2452 1.363 . S
C2448 H2425 0.950 . S
C2448 C2447 1.397 . S
C2448 C2449 1.334 . S
C2449 H2426 0.950 . S
C2449 C2448 1.334 . S
C2449 C2450 1.287 . S
C2450 C2449 1.287 . S
C2450 C2451 1.524 . S
C2450 H2469 0.913 . S
C2451 H2427 0.950 . S
C2451 C2450 1.524 . S
C2451 C2452 1.415 . S
C2452 H2428 0.950 . S
C2452 C2447 1.363 . S
C2452 C2451 1.415 . S
C2453 H2429 0.951 . S
C2453 C2454 1.366 . S
C2453 C2455 1.388 . S
C2454 C2453 1.366 . S
C2454 C2458 1.385 . S
C2455 H2430 0.951 . S
C2455 C2453 1.388 . S
C2455 C2456 1.366 . S
C2456 C2455 1.366 . S
C2456 C2457 1.414 . S
C2456 C2459 1.499 . S
C2457 H2431 0.950 . S
C2457 C2456 1.414 . S
C2457 C2458 1.374 . S
C2458 H2432 0.950 . S
C2458 C2454 1.385 . S
C2458 C2457 1.374 . S
C2459 C2456 1.499 . S
C2459 C2460 1.373 . S
C2459 C2461 1.389 . S
C2460 H2433 0.950 . S
C2460 C2446 1.377 . S
C2460 C2459 1.373 . S
C2461 C2445 1.377 . S
C2461 C2459 1.389 . S
C2461 C2462 1.524 . S
C2462 C2461 1.524 . S
C2462 C2463 1.397 . S
C2462 C2467 1.363 . S
C2463 H2434 0.950 . S
C2463 C2462 1.397 . S
C2463 C2464 1.334 . S
C2464 H2435 0.950 . S
C2464 C2463 1.334 . S
C2464 C2465 1.287 . S
C2465 C2464 1.287 . S
C2465 C2466 1.524 . S
C2465 H2468 0.999 . S
C2466 H2436 0.950 . S
C2466 C2465 1.524 . S
C2466 C2467 1.415 . S
C2467 H2437 0.950 . S
C2467 C2462 1.363 . S
C2467 C2466 1.415 . S
H2468 C2465 0.999 . S
H2469 C2450 0.913 . S
H2470 C2488 0.951 . S
H2471 C2490 0.951 . S
H2472 C2492 0.950 . S
H2473 C2493 0.950 . S
H2474 C2495 0.950 . S
H2475 C2498 0.950 . S
H2476 C2499 0.950 . S
H2477 C2501 0.950 . S
H2478 C2502 0.950 . S
H2479 C2503 0.951 . S
H2480 C2505 0.951 . S
H2481 C2507 0.950 . S
H2482 C2508 0.950 . S
H2483 C2510 0.950 . S
H2484 C2513 0.950 . S
H2485 C2514 0.950 . S
H2486 C2516 0.950 . S
H2487 C2517 0.950 . S
C2488 H2470 0.951 . S
C2488 C2489 1.366 . S
C2488 C2490 1.388 . S
C2489 C2488 1.366 . S
C2489 C2493 1.385 . S
C2490 H2471 0.951 . S
C2490 C2488 1.388 . S
C2490 C2491 1.366 . S
C2491 C2490 1.366 . S
C2491 C2492 1.414 . S
C2491 C2494 1.499 . S
C2492 H2472 0.950 . S
C2492 C2491 1.414 . S
C2492 C2493 1.374 . S
C2493 H2473 0.950 . S
C2493 C2489 1.385 . S
C2493 C2492 1.374 . S
C2494 C2491 1.499 . S
C2494 C2495 1.373 . S
C2494 C2496 1.389 . S
C2495 H2474 0.950 . S
C2495 C2494 1.373 . S
C2495 C2511 1.377 . S
C2496 C2494 1.389 . S
C2496 C2497 1.524 . S
C2496 C2510 1.377 . S
C2497 C2496 1.524 . S
C2497 C2498 1.397 . S
C2497 C2502 1.363 . S
C2498 H2475 0.950 . S
C2498 C2497 1.397 . S
C2498 C2499 1.334 . S
C2499 H2476 0.950 . S
C2499 C2498 1.334 . S
C2499 C2500 1.287 . S
C2500 C2499 1.287 . S
C2500 C2501 1.524 . S
C2500 H2519 0.913 . S
C2501 H2477 0.950 . S
C2501 C2500 1.524 . S
C2501 C2502 1.415 . S
C2502 H2478 0.950 . S
C2502 C2497 1.363 . S
C2502 C2501 1.415 . S
C2503 H2479 0.951 . S
C2503 C2504 1.366 . S
C2503 C2505 1.388 . S
C2504 C2503 1.366 . S
C2504 C2508 1.385 . S
C2505 H2480 0.951 . S
C2505 C2503 1.388 . S
C2505 C2506 1.366 . S
C2506 C2505 1.366 . S
C2506 C2507 1.414 . S
C2506 C2509 1.499 . S
C2507 H2481 0.950 . S
C2507 C2506 1.414 . S
C2507 C2508 1.374 . S
C2508 H2482 0.950 . S
C2508 C2504 1.385 . S
C2508 C2507 1.374 . S
C2509 C2506 1.499 . S
C2509 C2510 1.373 . S
C2509 C2511 1.389 . S
C2510 H2483 0.950 . S
C2510 C2496 1.377 . S
C2510 C2509 1.373 . S
C2511 C2495 1.377 . S
C2511 C2509 1.389 . S
C2511 C2512 1.524 . S
C2512 C2511 1.524 . S
C2512 C2513 1.397 . S
C2512 C2517 1.363 . S
C2513 H2484 0.950 . S
C2513 C2512 1.397 . S
C2513 C2514 1.334 . S
C2514 H2485 0.950 . S
C2514 C2513 1.334 . S
C2514 C2515 1.287 . S
C2515 C2514 1.287 . S
C2515 C2516 1.524 . S
C2515 H2518 0.999 . S
C2516 H2486 0.950 . S
C2516 C2515 1.524 . S
C2516 C2517 1.415 . S
C2517 H2487 0.950 . S
C2517 C2512 1.363 . S
C2517 C2516 1.415 . S
H2518 C2515 0.999 . S
H2519 C2500 0.913 . S
H2520 C2538 0.951 . S
H2521 C2540 0.951 . S
H2522 C2542 0.950 . S
H2523 C2543 0.950 . S
H2524 C2545 0.950 . S
H2525 C2548 0.950 . S
H2526 C2549 0.950 . S
H2527 C2551 0.950 . S
H2528 C2552 0.950 . S
H2529 C2553 0.951 . S
H2530 C2555 0.951 . S
H2531 C2557 0.950 . S
H2532 C2558 0.950 1_556 S
H2533 C2560 0.950 . S
H2534 C2563 0.950 . S
H2535 C2564 0.950 . S
H2536 C2566 0.950 . S
H2537 C2567 0.950 . S
C2538 H2520 0.951 . S
C2538 C2539 1.366 . S
C2538 C2540 1.388 . S
C2539 C2538 1.366 . S
C2539 C2543 1.385 . S
C2540 H2521 0.951 . S
C2540 C2538 1.388 . S
C2540 C2541 1.366 . S
C2541 C2540 1.366 . S
C2541 C2542 1.414 . S
C2541 C2544 1.499 . S
C2542 H2522 0.950 . S
C2542 C2541 1.414 . S
C2542 C2543 1.374 . S
C2543 H2523 0.950 . S
C2543 C2539 1.385 . S
C2543 C2542 1.374 . S
C2544 C2541 1.499 . S
C2544 C2545 1.373 . S
C2544 C2546 1.389 . S
C2545 H2524 0.950 . S
C2545 C2544 1.373 . S
C2545 C2561 1.377 . S
C2546 C2544 1.389 . S
C2546 C2547 1.524 . S
C2546 C2560 1.377 . S
C2547 C2546 1.524 . S
C2547 C2548 1.397 . S
C2547 C2552 1.363 . S
C2548 H2525 0.950 . S
C2548 C2547 1.397 . S
C2548 C2549 1.334 . S
C2549 H2526 0.950 . S
C2549 C2548 1.334 . S
C2549 C2550 1.287 . S
C2550 C2549 1.287 . S
C2550 C2551 1.524 . S
C2550 H2569 0.913 . S
C2551 H2527 0.950 . S
C2551 C2550 1.524 . S
C2551 C2552 1.415 . S
C2552 H2528 0.950 . S
C2552 C2547 1.363 . S
C2552 C2551 1.415 . S
C2553 H2529 0.951 . S
C2553 C2554 1.366 . S
C2553 C2555 1.388 . S
C2554 C2553 1.366 . S
C2554 C2558 1.385 . S
C2555 H2530 0.951 . S
C2555 C2553 1.388 . S
C2555 C2556 1.366 . S
C2556 C2555 1.366 . S
C2556 C2557 1.414 . S
C2556 C2559 1.499 . S
C2557 H2531 0.950 . S
C2557 C2556 1.414 . S
C2557 C2558 1.374 . S
C2558 H2532 0.950 1_554 S
C2558 C2554 1.385 . S
C2558 C2557 1.374 . S
C2559 C2556 1.499 . S
C2559 C2560 1.373 . S
C2559 C2561 1.389 . S
C2560 H2533 0.950 . S
C2560 C2546 1.377 . S
C2560 C2559 1.373 . S
C2561 C2545 1.377 . S
C2561 C2559 1.389 . S
C2561 C2562 1.524 . S
C2562 C2561 1.524 . S
C2562 C2563 1.397 . S
C2562 C2567 1.363 . S
C2563 H2534 0.950 . S
C2563 C2562 1.397 . S
C2563 C2564 1.334 . S
C2564 H2535 0.950 . S
C2564 C2563 1.334 . S
C2564 C2565 1.287 . S
C2565 C2564 1.287 . S
C2565 C2566 1.524 . S
C2565 H2568 0.999 . S
C2566 H2536 0.950 . S
C2566 C2565 1.524 . S
C2566 C2567 1.415 . S
C2567 H2537 0.950 . S
C2567 C2562 1.363 . S
C2567 C2566 1.415 . S
H2568 C2565 0.999 . S
H2569 C2550 0.913 . S
H2570 C2588 0.951 . S
H2571 C2590 0.951 . S
H2572 C2592 0.950 . S
H2573 C2593 0.950 . S
H2574 C2595 0.950 . S
H2575 C2598 0.950 . S
H2576 C2599 0.950 . S
H2577 C2601 0.950 . S
H2578 C2602 0.950 . S
H2579 C2603 0.951 . S
H2580 C2605 0.951 . S
H2581 C2607 0.950 . S
H2582 C2608 0.950 . S
H2583 C2610 0.950 . S
H2584 C2613 0.950 . S
H2585 C2614 0.950 . S
H2586 C2616 0.950 . S
H2587 C2617 0.950 . S
C2588 H2570 0.951 . S
C2588 C2589 1.366 . S
C2588 C2590 1.388 1_554 S
C2589 C2588 1.366 . S
C2589 C2593 1.385 1_554 S
C2590 H2571 0.951 . S
C2590 C2588 1.388 1_556 S
C2590 C2591 1.366 . S
C2591 C2590 1.366 . S
C2591 C2592 1.414 . S
C2591 C2594 1.499 . S
C2592 H2572 0.950 . S
C2592 C2591 1.414 . S
C2592 C2593 1.374 . S
C2593 H2573 0.950 . S
C2593 C2589 1.385 1_556 S
C2593 C2592 1.374 . S
C2594 C2591 1.499 . S
C2594 C2595 1.373 . S
C2594 C2596 1.389 . S
C2595 H2574 0.950 . S
C2595 C2594 1.373 . S
C2595 C2611 1.377 . S
C2596 C2594 1.389 . S
C2596 C2597 1.524 . S
C2596 C2610 1.377 . S
C2597 C2596 1.524 . S
C2597 C2598 1.397 . S
C2597 C2602 1.363 . S
C2598 H2575 0.950 . S
C2598 C2597 1.397 . S
C2598 C2599 1.334 . S
C2599 H2576 0.950 . S
C2599 C2598 1.334 . S
C2599 C2600 1.287 . S
C2600 C2599 1.287 . S
C2600 C2601 1.524 . S
C2600 H2619 0.913 . S
C2601 H2577 0.950 . S
C2601 C2600 1.524 . S
C2601 C2602 1.415 . S
C2602 H2578 0.950 . S
C2602 C2597 1.363 . S
C2602 C2601 1.415 . S
C2603 H2579 0.951 . S
C2603 C2604 1.366 . S
C2603 C2605 1.388 . S
C2604 C2603 1.366 . S
C2604 C2608 1.385 . S
C2605 H2580 0.951 . S
C2605 C2603 1.388 . S
C2605 C2606 1.366 . S
C2606 C2605 1.366 . S
C2606 C2607 1.414 . S
C2606 C2609 1.499 . S
C2607 H2581 0.950 . S
C2607 C2606 1.414 . S
C2607 C2608 1.374 . S
C2608 H2582 0.950 . S
C2608 C2604 1.385 . S
C2608 C2607 1.374 . S
C2609 C2606 1.499 . S
C2609 C2610 1.373 . S
C2609 C2611 1.389 . S
C2610 H2583 0.950 . S
C2610 C2596 1.377 . S
C2610 C2609 1.373 . S
C2611 C2595 1.377 . S
C2611 C2609 1.389 . S
C2611 C2612 1.524 . S
C2612 C2611 1.524 . S
C2612 C2613 1.397 . S
C2612 C2617 1.363 . S
C2613 H2584 0.950 . S
C2613 C2612 1.397 . S
C2613 C2614 1.334 . S
C2614 H2585 0.950 . S
C2614 C2613 1.334 . S
C2614 C2615 1.287 . S
C2615 C2614 1.287 . S
C2615 C2616 1.524 . S
C2615 H2618 0.999 . S
C2616 H2586 0.950 . S
C2616 C2615 1.524 . S
C2616 C2617 1.415 . S
C2617 H2587 0.950 . S
C2617 C2612 1.363 . S
C2617 C2616 1.415 . S
H2618 C2615 0.999 . S
H2619 C2600 0.913 . S
H2620 C2638 0.951 . S
H2621 C2640 0.951 . S
H2622 C2642 0.950 . S
H2623 C2643 0.950 . S
H2624 C2645 0.950 . S
H2625 C2648 0.950 . S
H2626 C2649 0.950 . S
H2627 C2651 0.950 . S
H2628 C2652 0.950 . S
H2629 C2653 0.951 . S
H2630 C2655 0.951 . S
H2631 C2657 0.950 . S
H2632 C2658 0.950 . S
H2633 C2660 0.950 . S
H2634 C2663 0.950 . S
H2635 C2664 0.950 . S
H2636 C2666 0.950 . S
H2637 C2667 0.950 . S
C2638 H2620 0.951 . S
C2638 C2639 1.366 . S
C2638 C2640 1.388 . S
C2639 C2638 1.366 . S
C2639 C2643 1.385 . S
C2640 H2621 0.951 . S
C2640 C2638 1.388 . S
C2640 C2641 1.366 . S
C2641 C2640 1.366 . S
C2641 C2642 1.414 . S
C2641 C2644 1.499 . S
C2642 H2622 0.950 . S
C2642 C2641 1.414 . S
C2642 C2643 1.374 . S
C2643 H2623 0.950 . S
C2643 C2639 1.385 . S
C2643 C2642 1.374 . S
C2644 C2641 1.499 . S
C2644 C2645 1.373 . S
C2644 C2646 1.389 . S
C2645 H2624 0.950 . S
C2645 C2644 1.373 . S
C2645 C2661 1.377 . S
C2646 C2644 1.389 . S
C2646 C2647 1.524 . S
C2646 C2660 1.377 . S
C2647 C2646 1.524 . S
C2647 C2648 1.397 . S
C2647 C2652 1.363 . S
C2648 H2625 0.950 . S
C2648 C2647 1.397 . S
C2648 C2649 1.334 . S
C2649 H2626 0.950 . S
C2649 C2648 1.334 . S
C2649 C2650 1.287 . S
C2650 C2649 1.287 . S
C2650 C2651 1.524 . S
C2650 H2669 0.913 . S
C2651 H2627 0.950 . S
C2651 C2650 1.524 . S
C2651 C2652 1.415 . S
C2652 H2628 0.950 . S
C2652 C2647 1.363 . S
C2652 C2651 1.415 . S
C2653 H2629 0.951 . S
C2653 C2654 1.366 . S
C2653 C2655 1.388 . S
C2654 C2653 1.366 . S
C2654 C2658 1.385 . S
C2655 H2630 0.951 . S
C2655 C2653 1.388 . S
C2655 C2656 1.366 . S
C2656 C2655 1.366 . S
C2656 C2657 1.414 . S
C2656 C2659 1.499 . S
C2657 H2631 0.950 . S
C2657 C2656 1.414 . S
C2657 C2658 1.374 . S
C2658 H2632 0.950 . S
C2658 C2654 1.385 . S
C2658 C2657 1.374 . S
C2659 C2656 1.499 . S
C2659 C2660 1.373 . S
C2659 C2661 1.389 . S
C2660 H2633 0.950 . S
C2660 C2646 1.377 . S
C2660 C2659 1.373 . S
C2661 C2645 1.377 . S
C2661 C2659 1.389 . S
C2661 C2662 1.524 . S
C2662 C2661 1.524 . S
C2662 C2663 1.397 . S
C2662 C2667 1.363 . S
C2663 H2634 0.950 . S
C2663 C2662 1.397 . S
C2663 C2664 1.334 . S
C2664 H2635 0.950 . S
C2664 C2663 1.334 . S
C2664 C2665 1.287 . S
C2665 C2664 1.287 . S
C2665 C2666 1.524 . S
C2665 H2668 0.999 1_455 S
C2666 H2636 0.950 . S
C2666 C2665 1.524 . S
C2666 C2667 1.415 . S
C2667 H2637 0.950 . S
C2667 C2662 1.363 . S
C2667 C2666 1.415 . S
H2668 C2665 0.999 1_655 S
H2669 C2650 0.913 . S
H2670 C2688 0.951 . S
H2671 C2690 0.951 . S
H2672 C2692 0.950 . S
H2673 C2693 0.950 . S
H2674 C2695 0.950 . S
H2675 C2698 0.950 . S
H2676 C2699 0.950 . S
H2677 C2701 0.950 . S
H2678 C2702 0.950 . S
H2679 C2703 0.951 . S
H2680 C2705 0.951 . S
H2681 C2707 0.950 . S
H2682 C2708 0.950 . S
H2683 C2710 0.950 . S
H2684 C2713 0.950 . S
H2685 C2714 0.950 . S
H2686 C2716 0.950 . S
H2687 C2717 0.950 . S
C2688 H2670 0.951 . S
C2688 C2689 1.366 . S
C2688 C2690 1.388 . S
C2689 C2688 1.366 . S
C2689 C2693 1.385 . S
C2690 H2671 0.951 . S
C2690 C2688 1.388 . S
C2690 C2691 1.366 . S
C2691 C2690 1.366 . S
C2691 C2692 1.414 . S
C2691 C2694 1.499 . S
C2692 H2672 0.950 . S
C2692 C2691 1.414 . S
C2692 C2693 1.374 . S
C2693 H2673 0.950 . S
C2693 C2689 1.385 . S
C2693 C2692 1.374 . S
C2694 C2691 1.499 . S
C2694 C2695 1.373 . S
C2694 C2696 1.389 . S
C2695 H2674 0.950 . S
C2695 C2694 1.373 . S
C2695 C2711 1.377 . S
C2696 C2694 1.389 . S
C2696 C2697 1.524 . S
C2696 C2710 1.377 . S
C2697 C2696 1.524 . S
C2697 C2698 1.397 . S
C2697 C2702 1.363 . S
C2698 H2675 0.950 . S
C2698 C2697 1.397 . S
C2698 C2699 1.334 . S
C2699 H2676 0.950 . S
C2699 C2698 1.334 . S
C2699 C2700 1.287 . S
C2700 C2699 1.287 . S
C2700 C2701 1.524 . S
C2700 H2719 0.913 . S
C2701 H2677 0.950 . S
C2701 C2700 1.524 . S
C2701 C2702 1.415 . S
C2702 H2678 0.950 . S
C2702 C2697 1.363 . S
C2702 C2701 1.415 . S
C2703 H2679 0.951 . S
C2703 C2704 1.366 . S
C2703 C2705 1.388 . S
C2704 C2703 1.366 . S
C2704 C2708 1.385 . S
C2705 H2680 0.951 . S
C2705 C2703 1.388 . S
C2705 C2706 1.366 . S
C2706 C2705 1.366 . S
C2706 C2707 1.414 . S
C2706 C2709 1.499 . S
C2707 H2681 0.950 . S
C2707 C2706 1.414 . S
C2707 C2708 1.374 . S
C2708 H2682 0.950 . S
C2708 C2704 1.385 . S
C2708 C2707 1.374 . S
C2709 C2706 1.499 . S
C2709 C2710 1.373 . S
C2709 C2711 1.389 . S
C2710 H2683 0.950 . S
C2710 C2696 1.377 . S
C2710 C2709 1.373 . S
C2711 C2695 1.377 . S
C2711 C2709 1.389 . S
C2711 C2712 1.524 . S
C2712 C2711 1.524 . S
C2712 C2713 1.397 . S
C2712 C2717 1.363 . S
C2713 H2684 0.950 . S
C2713 C2712 1.397 . S
C2713 C2714 1.334 . S
C2714 H2685 0.950 . S
C2714 C2713 1.334 . S
C2714 C2715 1.287 . S
C2715 C2714 1.287 . S
C2715 C2716 1.524 . S
C2715 H2718 0.999 . S
C2716 H2686 0.950 . S
C2716 C2715 1.524 . S
C2716 C2717 1.415 . S
C2717 H2687 0.950 . S
C2717 C2712 1.363 . S
C2717 C2716 1.415 . S
H2718 C2715 0.999 . S
H2719 C2700 0.913 . S
C339 C12 0.899 1_556 S
C354 C142 0.858 . S
C389 C32 0.901 . S
C404 C82 0.856 . S
C439 C102 0.855 . S
C454 C52 0.900 . S
C489 C72 0.900 . S
C504 C122 0.855 . S
C539 C224 0.856 . S
C554 C89 0.899 1_554 S
C589 C169 0.899 . S
C604 C4 0.858 . S
C639 C204 0.856 . S
C654 C129 0.899 . S
C689 C44 0.855 . S
C704 C189 0.900 . S
C739 C182 0.858 . S
C754 C252 0.899 . S
C789 C212 0.900 . S
C804 C282 0.858 . S
C839 C272 0.900 1_556 S
C854 C162 0.855 . S
C889 C232 0.901 . S
C904 C302 0.857 . S
C939 C289 0.900 . S
C954 C64 0.855 . S
C989 C244 0.855 . S
C1004 C109 0.900 . S
C1039 C24 0.858 . S
C1054 C309 0.900 1_554 S
C1089 C149 0.900 . S
C1104 C264 0.856 . S
C1139 C278 0.421 . S
C1154 C18 0.424 . S
C1189 C238 0.421 . S
C1204 C38 0.425 . S
C1239 C258 0.423 . S
C1254 C58 0.421 . S
C1289 C218 0.424 . S
C1304 C78 0.421 . S
C1339 C99 0.423 . S
C1354 C319 0.421 . S
C1389 C199 0.421 . S
C1404 C119 0.424 . S
C1439 C139 0.421 . S
C1454 C299 0.424 . S
C1489 C159 0.425 . S
C1504 C179 0.421 . S
C1539 C19 1.356 . S
C1554 C98 1.356 . S
C1589 C39 1.354 . S
C1604 C118 1.354 . S
C1639 C138 1.355 . S
C1654 C59 1.355 . S
C1689 C79 1.355 . S
C1704 C158 1.355 . S
C1739 C219 1.354 . S
C1754 C178 1.354 . S
C1789 C239 1.355 . S
C1804 C198 1.355 . S
C1839 C259 1.355 . S
C1854 C298 1.355 . S
C1889 C318 1.355 . S
C1904 C279 1.355 . S
C1939 C2 1.505 . S
C1954 C152 1.468 . S
C1989 C22 1.505 . S
C2004 C92 1.468 . S
C2039 C112 1.467 1_556 S
C2054 C42 1.505 . S
C2089 C132 1.469 . S
C2104 C62 1.504 . S
C2139 C229 1.469 . S
C2154 C84 1.504 . S
C2189 C164 1.504 . S
C2204 C9 1.469 . S
C2239 C209 1.469 1_554 S
C2254 C124 1.504 . S
C2289 C49 1.468 . S
C2304 C184 1.504 . S
C2339 C242 1.504 . S
C2354 C192 1.469 1_556 S
C2389 C292 1.468 . S
C2404 C202 1.505 . S
C2439 C262 1.504 . S
C2454 C172 1.468 . S
C2489 C312 1.468 . S
C2504 C222 1.505 . S
C2539 C284 1.504 . S
C2554 C69 1.469 1_554 S
C2589 C104 1.505 . S
C2604 C249 1.467 . S
C2639 C29 1.467 . S
C2654 C304 1.505 . S
C2689 C269 1.468 . S
C2704 C144 1.505 . S
