# Generated by pormake.
# Topology una, (4)-cn, num edge types: 1
# Building blocks:
#     Node 0, Type 0, BuildingBlock: QUQFOY_clean_sbu_1, # of connection points: 4
#     Node 1, Type 0, BuildingBlock: QUQFOY_clean_sbu_1, # of connection points: 4
#     Node 2, Type 0, BuildingBlock: QUQFOY_clean_sbu_1, # of connection points: 4
#     Node 3, Type 0, BuildingBlock: QUQFOY_clean_sbu_1, # of connection points: 4
#     Node 4, Type 0, BuildingBlock: QUQFOY_clean_sbu_1, # of connection points: 4
#     Node 5, Type 0, BuildingBlock: QUQFOY_clean_sbu_1, # of connection points: 4
#     Node 6, Type 0, BuildingBlock: QUQFOY_clean_sbu_1, # of connection points: 4
#     Node 7, Type 0, BuildingBlock: QUQFOY_clean_sbu_1, # of connection points: 4
#     Node 8, Type 0, BuildingBlock: QUQFOY_clean_sbu_1, # of connection points: 4
#     Node 9, Type 0, BuildingBlock: QUQFOY_clean_sbu_1, # of connection points: 4
#     Node 10, Type 0, BuildingBlock: QUQFOY_clean_sbu_1, # of connection points: 4
#     Node 11, Type 0, BuildingBlock: QUQFOY_clean_sbu_1, # of connection points: 4
#     Edge 12, Type (0, 0), BuildingBlock: XIVTED_clean_linker_0, # of connection points: 2
#     Edge 13, Type (0, 0), BuildingBlock: XIVTED_clean_linker_0, # of connection points: 2
#     Edge 14, Type (0, 0), BuildingBlock: XIVTED_clean_linker_0, # of connection points: 2
#     Edge 15, Type (0, 0), BuildingBlock: XIVTED_clean_linker_0, # of connection points: 2
#     Edge 16, Type (0, 0), BuildingBlock: XIVTED_clean_linker_0, # of connection points: 2
#     Edge 17, Type (0, 0), BuildingBlock: XIVTED_clean_linker_0, # of connection points: 2
#     Edge 18, Type (0, 0), BuildingBlock: XIVTED_clean_linker_0, # of connection points: 2
#     Edge 19, Type (0, 0), BuildingBlock: XIVTED_clean_linker_0, # of connection points: 2
#     Edge 20, Type (0, 0), BuildingBlock: XIVTED_clean_linker_0, # of connection points: 2
#     Edge 21, Type (0, 0), BuildingBlock: XIVTED_clean_linker_0, # of connection points: 2
#     Edge 22, Type (0, 0), BuildingBlock: XIVTED_clean_linker_0, # of connection points: 2
#     Edge 23, Type (0, 0), BuildingBlock: XIVTED_clean_linker_0, # of connection points: 2
#     Edge 24, Type (0, 0), BuildingBlock: XIVTED_clean_linker_0, # of connection points: 2
#     Edge 25, Type (0, 0), BuildingBlock: XIVTED_clean_linker_0, # of connection points: 2
#     Edge 26, Type (0, 0), BuildingBlock: XIVTED_clean_linker_0, # of connection points: 2
#     Edge 27, Type (0, 0), BuildingBlock: XIVTED_clean_linker_0, # of connection points: 2
#     Edge 28, Type (0, 0), BuildingBlock: XIVTED_clean_linker_0, # of connection points: 2
#     Edge 29, Type (0, 0), BuildingBlock: XIVTED_clean_linker_0, # of connection points: 2
#     Edge 30, Type (0, 0), BuildingBlock: XIVTED_clean_linker_0, # of connection points: 2
#     Edge 31, Type (0, 0), BuildingBlock: XIVTED_clean_linker_0, # of connection points: 2
#     Edge 32, Type (0, 0), BuildingBlock: XIVTED_clean_linker_0, # of connection points: 2
#     Edge 33, Type (0, 0), BuildingBlock: XIVTED_clean_linker_0, # of connection points: 2
#     Edge 34, Type (0, 0), BuildingBlock: XIVTED_clean_linker_0, # of connection points: 2
#     Edge 35, Type (0, 0), BuildingBlock: XIVTED_clean_linker_0, # of connection points: 2
# Relax obj value: 0.095
# Max RMSD: 0.099
# Mean RMSD: 0.099
data_MOF--net-una--node1-QUQFOY_clean_sbu_1--edge1-XIVTED_clean_linker_0
_symmetry_space_group_name_H-M    P1
_symmetry_Int_Tables_number       1
_symmetry_cell_setting            triclinic
loop_
_symmetry_equiv_pos_as_xyz
'x, y, z'
_cell_length_a     59.673437
_cell_length_b     59.694729
_cell_length_c     22.531464
_cell_angle_alpha  90.008773
_cell_angle_beta   89.920886
_cell_angle_gamma 120.13144
loop_
_atom_site_label
_atom_site_type_symbol
_atom_site_fract_x
_atom_site_fract_y
_atom_site_fract_z
_atom_type_partial_charge
O0 O 0.13883 0.48009 0.12739 0.0
Cd1 Cd 0.13614 0.44447 0.1138 0.0
Cd2 Cd 0.18447 0.47402 0.06334 0.0
O3 O 0.17689 0.50332 0.08377 0.0
O4 O 0.09905 0.41783 0.09903 0.0
O5 O 0.12945 0.43169 0.02964 0.0
C6 C 0.10532 0.4175 0.04424 0.0
C7 C 0.20913 0.47869 0.9793 0.0
C8 C 0.15734 0.50188 0.11013 0.0
C9 C 0.17856 0.43932 0.16894 0.0
O10 O 0.19242 0.45534 0.12915 0.0
O11 O 0.15455 0.43191 0.17299 0.0
O12 O 0.21931 0.49243 0.02607 0.0
O13 O 0.1844 0.46305 0.97868 0.0
O14 O 0.68639 0.12582 0.29845 0.0
Cd15 Cd 0.71904 0.12401 0.27531 0.0
Cd16 Cd 0.7335 0.17006 0.21955 0.0
O17 O 0.69522 0.15857 0.23869 0.0
O18 O 0.70923 0.08713 0.26036 0.0
O19 O 0.72165 0.11671 0.18939 0.0
C20 C 0.71322 0.0929 0.20459 0.0
C21 C 0.75178 0.19408 0.13362 0.0
C22 C 0.67984 0.1409 0.27409 0.0
C23 C 0.76653 0.16882 0.32252 0.0
O24 O 0.76117 0.18138 0.28525 0.0
O25 O 0.7523 0.14434 0.32643 0.0
O26 O 0.74688 0.20398 0.17903 0.0
O27 O 0.74494 0.16985 0.13545 0.0
O28 O 0.57934 0.67212 0.45793 0.0
Cd29 Cd 0.61386 0.70552 0.43808 0.0
Cd30 Cd 0.58343 0.71883 0.37726 0.0
O31 O 0.55751 0.67973 0.38973 0.0
O32 O 0.6422 0.69727 0.42534 0.0
O33 O 0.62521 0.70913 0.35308 0.0
C34 C 0.64107 0.70151 0.36944 0.0
C35 C 0.58091 0.73814 0.28969 0.0
C36 C 0.55877 0.66472 0.42789 0.0
C37 C 0.61241 0.75097 0.48537 0.0
O38 O 0.59476 0.74477 0.44679 0.0
O39 O 0.62435 0.73836 0.48916 0.0
O40 O 0.56282 0.72984 0.32898 0.0
O41 O 0.6001 0.73433 0.29858 0.0
O42 O 0.9266 0.56098 0.60831 0.0
Cd43 Cd 0.92743 0.59601 0.5946 0.0
Cd44 Cd 0.88235 0.56573 0.54164 0.0
O45 O 0.89432 0.53908 0.54623 0.0
O46 O 0.96431 0.62427 0.58373 0.0
O47 O 0.9355 0.60946 0.51102 0.0
C48 C 0.95913 0.62449 0.52811 0.0
C49 C 0.85917 0.56596 0.4586 0.0
C50 C 0.91181 0.5402 0.58018 0.0
C51 C 0.88131 0.59148 0.65561 0.0
O52 O 0.86918 0.57331 0.61862 0.0
O53 O 0.90583 0.60586 0.65175 0.0
O54 O 0.84977 0.54689 0.49534 0.0
O55 O 0.88243 0.58479 0.46759 0.0
O56 O 0.38507 0.91997 0.78769 0.0
Cd57 Cd 0.3521 0.9223 0.77076 0.0
Cd58 Cd 0.33485 0.8759 0.71607 0.0
O59 O 0.37192 0.88414 0.73596 0.0
O60 O 0.3624 0.95955 0.75959 0.0
O61 O 0.34828 0.93091 0.6865 0.0
C62 C 0.35749 0.95459 0.70373 0.0
C63 C 0.31641 0.85447 0.62765 0.0
C64 C 0.38915 0.90253 0.76684 0.0
C65 C 0.30408 0.87754 0.82137 0.0
O66 O 0.30773 0.86441 0.78226 0.0
O67 O 0.31951 0.90188 0.82539 0.0
O68 O 0.32164 0.84338 0.66997 0.0
O69 O 0.32272 0.87842 0.63423 0.0
O70 O 0.4888 0.37728 0.95596 0.0
Cd71 Cd 0.4559 0.34214 0.93617 0.0
Cd72 Cd 0.48959 0.33396 0.87935 0.0
O73 O 0.51131 0.37385 0.88262 0.0
O74 O 0.42583 0.34788 0.9243 0.0
O75 O 0.44461 0.33844 0.85134 0.0
C76 C 0.42774 0.34467 0.86813 0.0
C77 C 0.49038 0.31176 0.79482 0.0
C78 C 0.50878 0.38735 0.92282 0.0
C79 C 0.4657 0.30336 0.99111 0.0
O80 O 0.48501 0.3133 0.95607 0.0
O81 O 0.44841 0.30985 0.98717 0.0
O82 O 0.51033 0.32373 0.82868 0.0
O83 O 0.47013 0.31338 0.80734 0.0
O84 O 0.57726 0.92058 0.81345 0.0
Cd85 Cd 0.61245 0.92236 0.82723 0.0
Cd86 Cd 0.58332 0.87599 0.88293 0.0
O87 O 0.55464 0.88483 0.86573 0.0
O88 O 0.64007 0.95934 0.8396 0.0
O89 O 0.62547 0.92985 0.91105 0.0
C90 C 0.64022 0.95368 0.89494 0.0
C91 C 0.58095 0.85415 0.97046 0.0
C92 C 0.55582 0.90337 0.8355 0.0
C93 C 0.61429 0.87747 0.7744 0.0
O94 O 0.59815 0.86452 0.81492 0.0
O95 O 0.62334 0.9018 0.77012 0.0
O96 O 0.56419 0.84329 0.92878 0.0
O97 O 0.59864 0.87811 0.96386 0.0
O98 O 0.68159 0.57284 0.97292 0.0
Cd99 Cd 0.71635 0.60598 0.99408 0.0
Cd100 Cd 0.72364 0.57309 0.0574 0.0
O101 O 0.68388 0.55135 0.04992 0.0
O102 O 0.71072 0.63617 0.00604 0.0
O103 O 0.71902 0.61663 0.07914 0.0
C104 C 0.71325 0.63381 0.06234 0.0
C105 C 0.74382 0.57174 0.14482 0.0
C106 C 0.67105 0.55326 0.00722 0.0
C107 C 0.75648 0.59614 0.94753 0.0
O108 O 0.74609 0.57743 0.9841 0.0
O109 O 0.74953 0.61312 0.94698 0.0
O110 O 0.73229 0.55189 0.11052 0.0
O111 O 0.74283 0.5922 0.1311 0.0
O112 O 0.13738 0.67108 0.14425 0.0
Cd113 Cd 0.13408 0.70366 0.15898 0.0
Cd114 Cd 0.18063 0.7225 0.21463 0.0
O115 O 0.17328 0.68558 0.19642 0.0
O116 O 0.09666 0.69274 0.17053 0.0
O117 O 0.12561 0.70811 0.24293 0.0
C118 C 0.10179 0.6983 0.22612 0.0
C119 C 0.20233 0.74181 0.30228 0.0
C120 C 0.15518 0.66778 0.16602 0.0
C121 C 0.17814 0.75188 0.10739 0.0
O122 O 0.19143 0.74908 0.14749 0.0
O123 O 0.15394 0.73583 0.10299 0.0
O124 O 0.21348 0.73672 0.25979 0.0
O125 O 0.17821 0.73495 0.29627 0.0
O126 O 0.49422 0.12923 0.3179 0.0
Cd127 Cd 0.46055 0.12994 0.33814 0.0
Cd128 Cd 0.49313 0.17168 0.39726 0.0
O129 O 0.51592 0.15478 0.3925 0.0
O130 O 0.43087 0.09362 0.34821 0.0
O131 O 0.44869 0.12127 0.42258 0.0
C132 C 0.43216 0.09819 0.40458 0.0
C133 C 0.49355 0.19393 0.48282 0.0
C134 C 0.51411 0.13946 0.35122 0.0
C135 C 0.46916 0.17859 0.28589 0.0
O136 O 0.48819 0.18812 0.3216 0.0
O137 O 0.45244 0.15453 0.28831 0.0
O138 O 0.51347 0.20252 0.44858 0.0
O139 O 0.47353 0.17187 0.47008 0.0
O140 O 0.38572 0.47899 0.47935 0.0
Cd141 Cd 0.3528 0.44414 0.50007 0.0
Cd142 Cd 0.33852 0.4749 0.55952 0.0
O143 O 0.37692 0.5019 0.54227 0.0
O144 O 0.36215 0.41665 0.51326 0.0
O145 O 0.34944 0.43305 0.58526 0.0
C146 C 0.3577 0.41767 0.56909 0.0
C147 C 0.31983 0.47962 0.64577 0.0
C148 C 0.39234 0.50021 0.50598 0.0
C149 C 0.30567 0.44238 0.45424 0.0
O150 O 0.31113 0.4598 0.49302 0.0
O151 O 0.31971 0.43203 0.44883 0.0
O152 O 0.32529 0.49514 0.60155 0.0
O153 O 0.32641 0.46208 0.64272 0.0
O154 O 0.93259 0.37252 0.64694 0.0
Cd155 Cd 0.93488 0.33969 0.66496 0.0
Cd156 Cd 0.88623 0.32166 0.71257 0.0
O157 O 0.89404 0.3582 0.68753 0.0
O158 O 0.97191 0.35035 0.6809 0.0
O159 O 0.94142 0.33494 0.7502 0.0
C160 C 0.96556 0.34466 0.73601 0.0
C161 C 0.86134 0.30306 0.79733 0.0
C162 C 0.91389 0.37595 0.66113 0.0
C163 C 0.89254 0.29145 0.61091 0.0
O164 O 0.87843 0.29406 0.64918 0.0
O165 O 0.91663 0.30798 0.6075 0.0
O166 O 0.85132 0.30589 0.74945 0.0
O167 O 0.88605 0.31213 0.79851 0.0
H168 H 0.21747 0.42969 0.14513 0.0
H169 H 0.26369 0.44753 0.47761 0.0
H170 H 0.1703 0.43061 0.2891 0.0
H171 H 0.29577 0.42047 0.34261 0.0
H172 H 0.2285 0.43983 0.41043 0.0
H173 H 0.24503 0.42411 0.21657 0.0
C174 C 0.21265 0.42822 0.19189 0.0
C175 C 0.19164 0.43073 0.21133 0.0
C176 C 0.243 0.43522 0.39566 0.0
C177 C 0.22355 0.42498 0.29359 0.0
C178 C 0.26322 0.43975 0.43389 0.0
C179 C 0.28291 0.4349 0.41546 0.0
C180 C 0.24261 0.42623 0.33796 0.0
C181 C 0.28107 0.42456 0.35858 0.0
C182 C 0.2284 0.42503 0.23265 0.0
C183 C 0.18624 0.42866 0.27231 0.0
N184 N 0.26151 0.42096 0.32147 0.0
N185 N 0.20241 0.42641 0.31143 0.0
H186 H 0.85261 0.24317 0.63407 0.0
H187 H 0.80947 0.21547 0.30015 0.0
H188 H 0.90225 0.29037 0.49182 0.0
H189 H 0.77535 0.15596 0.43417 0.0
H190 H 0.8445 0.24233 0.36854 0.0
H191 H 0.82539 0.21006 0.56198 0.0
C192 C 0.85806 0.24631 0.58761 0.0
C193 C 0.87965 0.26959 0.56878 0.0
C194 C 0.8296 0.22327 0.38282 0.0
C195 C 0.84814 0.232 0.48574 0.0
C196 C 0.80949 0.20793 0.34389 0.0
C197 C 0.78928 0.18351 0.36171 0.0
C198 C 0.82932 0.21442 0.44063 0.0
C199 C 0.79048 0.17467 0.41866 0.0
C200 C 0.84249 0.22739 0.54648 0.0
C201 C 0.88583 0.27266 0.50817 0.0
N202 N 0.80992 0.19031 0.45649 0.0
N203 N 0.86984 0.25429 0.4686 0.0
H204 H 0.60524 0.79185 0.46423 0.0
H205 H 0.61961 0.83577 0.79751 0.0
H206 H 0.63347 0.76035 0.59767 0.0
H207 H 0.6245 0.88614 0.65477 0.0
H208 H 0.62466 0.80789 0.72582 0.0
H209 H 0.61172 0.82626 0.53294 0.0
C210 C 0.61297 0.79226 0.50796 0.0
C211 C 0.6186 0.77303 0.52546 0.0
C212 C 0.62506 0.82524 0.71016 0.0
C213 C 0.62583 0.81234 0.6046 0.0
C214 C 0.62212 0.84115 0.75102 0.0
C215 C 0.62152 0.86323 0.73194 0.0
C216 C 0.62675 0.83105 0.64945 0.0
C217 C 0.62494 0.86934 0.67129 0.0
C218 C 0.61681 0.81203 0.547 0.0
C219 C 0.62882 0.77473 0.58241 0.0
N220 N 0.62693 0.85305 0.63198 0.0
N221 N 0.63171 0.7938 0.62034 0.0
H222 H 0.88892 0.63635 0.711 0.0
H223 H 0.76685 0.55768 0.92406 0.0
H224 H 0.83847 0.55344 0.70821 0.0
H225 H 0.7918 0.63691 0.87687 0.0
H226 H 0.79925 0.55848 0.85776 0.0
H227 H 0.85954 0.63947 0.784 0.0
C228 C 0.87192 0.61886 0.72627 0.0
C229 C 0.86607 0.59459 0.70354 0.0
C230 C 0.79771 0.57575 0.8617 0.0
C231 C 0.83278 0.598 0.78639 0.0
C232 C 0.77917 0.57535 0.89977 0.0
C233 C 0.77639 0.59723 0.90597 0.0
C234 C 0.81399 0.59825 0.8294 0.0
C235 C 0.79311 0.61953 0.87308 0.0
C236 C 0.85511 0.62068 0.76733 0.0
C237 C 0.84368 0.57255 0.72424 0.0
N238 N 0.81131 0.61952 0.83615 0.0
N239 N 0.82801 0.57479 0.76442 0.0
H240 H 0.29907 0.88964 0.93692 0.0
H241 H 0.16672 0.75516 0.99029 0.0
H242 H 0.25874 0.83315 0.79959 0.0
H243 H 0.22119 0.79836 0.12909 0.0
H244 H 0.19435 0.78935 0.91931 0.0
H245 H 0.26457 0.86191 0.00719 0.0
C246 C 0.28275 0.87169 0.92133 0.0
C247 C 0.28193 0.86352 0.86261 0.0
C248 C 0.2 0.79146 0.96554 0.0
C249 C 0.24248 0.83187 0.94228 0.0
C250 C 0.18418 0.77205 0.00601 0.0
C251 C 0.19185 0.77378 0.06543 0.0
C252 C 0.22339 0.81286 0.98495 0.0
C253 C 0.21473 0.79607 0.08345 0.0
C254 C 0.26316 0.85582 0.96141 0.0
C255 C 0.26033 0.84002 0.84473 0.0
N256 N 0.22974 0.81463 0.04341 0.0
N257 N 0.24158 0.82498 0.88439 0.0
H258 H 0.50789 0.22552 0.24953 0.0
H259 H 0.4229 0.266 0.05281 0.0
H260 H 0.42647 0.17189 0.222 0.0
H261 H 0.50529 0.29768 0.03192 0.0
H262 H 0.42218 0.2343 0.12443 0.0
H263 H 0.50564 0.25531 0.17978 0.0
C264 C 0.48945 0.21995 0.22878 0.0
C265 C 0.46734 0.19606 0.24165 0.0
C266 C 0.44032 0.24824 0.10391 0.0
C267 C 0.46461 0.2305 0.16137 0.0
C268 C 0.44079 0.2664 0.06347 0.0
C269 C 0.46419 0.28454 0.03628 0.0
C270 C 0.46349 0.24866 0.11789 0.0
C271 C 0.48677 0.28406 0.05143 0.0
C272 C 0.48822 0.23702 0.18872 0.0
C273 C 0.44403 0.19003 0.21305 0.0
N274 N 0.48585 0.26659 0.09123 0.0
N275 N 0.44321 0.20724 0.17438 0.0
H276 H 0.11469 0.50652 0.13471 0.0
H277 H 0.19599 0.65962 0.17699 0.0
H278 H 0.19731 0.55189 0.10655 0.0
H279 H 0.11456 0.62003 0.13375 0.0
H280 H 0.19608 0.61911 0.16375 0.0
H281 H 0.1135 0.5468 0.14704 0.0
C282 C 0.13258 0.52491 0.13144 0.0
C283 C 0.15615 0.52583 0.1196 0.0
C284 C 0.17819 0.61927 0.15698 0.0
C285 C 0.1549 0.57182 0.13395 0.0
C286 C 0.17809 0.64238 0.16472 0.0
C287 C 0.15522 0.64324 0.15641 0.0
C288 C 0.15518 0.59664 0.14173 0.0
C289 C 0.13264 0.62027 0.1403 0.0
C290 C 0.13184 0.54785 0.13811 0.0
C291 C 0.1787 0.55022 0.11543 0.0
N292 N 0.13313 0.59781 0.13388 0.0
N293 N 0.17753 0.57219 0.12293 0.0
H294 H 0.64983 0.12146 0.37403 0.0
H295 H 0.52889 0.12806 0.24567 0.0
H296 H 0.6511 0.15313 0.20112 0.0
H297 H 0.54966 0.14168 0.43088 0.0
H298 H 0.56831 0.12593 0.22637 0.0
H299 H 0.60761 0.11797 0.39331 0.0
C300 C 0.64114 0.12749 0.34003 0.0
C301 C 0.65403 0.13779 0.28608 0.0
C302 C 0.56403 0.12914 0.27126 0.0
C303 C 0.60574 0.13332 0.30734 0.0
C304 C 0.54151 0.13018 0.28238 0.0
C305 C 0.53611 0.13519 0.3399 0.0
C306 C 0.58088 0.13252 0.31823 0.0
C307 C 0.55323 0.13797 0.38581 0.0
C308 C 0.61716 0.12556 0.35112 0.0
C309 C 0.64193 0.14534 0.24354 0.0
N310 N 0.57483 0.13653 0.37404 0.0
N311 N 0.61839 0.14282 0.25492 0.0
H312 H 0.4214 0.53941 0.58311 0.0
H313 H 0.52127 0.63453 0.34811 0.0
H314 H 0.42193 0.51332 0.40482 0.0
H315 H 0.54387 0.63624 0.53059 0.0
H316 H 0.48188 0.59287 0.36687 0.0
H317 H 0.46355 0.57812 0.56426 0.0
C318 C 0.4304 0.54184 0.53999 0.0
C319 C 0.41816 0.52318 0.49536 0.0
C320 C 0.4956 0.6023 0.40259 0.0
C321 C 0.46607 0.56753 0.4734 0.0
C322 C 0.51798 0.62607 0.39206 0.0
C323 C 0.53582 0.63884 0.43793 0.0
C324 C 0.49067 0.59158 0.45978 0.0
C325 C 0.53066 0.62698 0.49397 0.0
C326 C 0.45448 0.56382 0.52946 0.0
C327 C 0.43076 0.52721 0.44044 0.0
N328 N 0.50834 0.60418 0.50361 0.0
N329 N 0.4539 0.54916 0.43067 0.0
H330 H 0.87528 0.49067 0.55294 0.0
H331 H 0.95688 0.42369 0.64079 0.0
H332 H 0.95186 0.53546 0.62798 0.0
H333 H 0.87341 0.38465 0.64997 0.0
H334 H 0.95769 0.46456 0.61993 0.0
H335 H 0.87677 0.45123 0.57098 0.0
C336 C 0.89254 0.49227 0.57287 0.0
C337 C 0.91348 0.51648 0.58913 0.0
C338 C 0.93927 0.44699 0.62657 0.0
C339 C 0.91526 0.47115 0.60963 0.0
C340 C 0.93876 0.42368 0.63811 0.0
C341 C 0.91503 0.40074 0.64715 0.0
C342 C 0.91587 0.44714 0.62276 0.0
C343 C 0.89214 0.40186 0.64356 0.0
C344 C 0.89328 0.46968 0.58342 0.0
C345 C 0.93525 0.5172 0.61504 0.0
N346 N 0.89313 0.42461 0.63124 0.0
N347 N 0.93564 0.49483 0.6243 0.0
H348 H 0.39819 0.86218 0.76147 0.0
H349 H 0.551 0.94518 0.80251 0.0
H350 H 0.43642 0.94415 0.79809 0.0
H351 H 0.50591 0.86391 0.84619 0.0
H352 H 0.51052 0.94583 0.78732 0.0
H353 H 0.43898 0.86305 0.77864 0.0
C354 C 0.41519 0.8804 0.77308 0.0
C355 C 0.41388 0.90313 0.77846 0.0
C356 C 0.50961 0.92793 0.80039 0.0
C357 C 0.46077 0.90427 0.79758 0.0
C358 C 0.53264 0.9275 0.80875 0.0
C359 C 0.53183 0.90445 0.82566 0.0
C360 C 0.48569 0.90505 0.80782 0.0
C361 C 0.50749 0.88213 0.83341 0.0
C362 C 0.43845 0.88084 0.78308 0.0
C363 C 0.43656 0.92616 0.79383 0.0
N364 N 0.48545 0.88295 0.824 0.0
N365 N 0.45918 0.9262 0.80243 0.0
H366 H 0.54589 0.41959 0.84404 0.0
H367 H 0.63727 0.51785 0.08666 0.0
H368 H 0.52013 0.41624 0.02455 0.0
H369 H 0.64455 0.53929 0.9018 0.0
H370 H 0.59528 0.47954 0.06543 0.0
H371 H 0.58319 0.46248 0.86399 0.0
C372 C 0.54798 0.42797 0.88775 0.0
C373 C 0.52995 0.41427 0.93282 0.0
C374 C 0.60591 0.4928 0.02967 0.0
C375 C 0.57276 0.46314 0.95608 0.0
C376 C 0.62991 0.51461 0.04168 0.0
C377 C 0.64446 0.53172 0.99585 0.0
C378 C 0.59665 0.48771 0.97116 0.0
C379 C 0.63393 0.52663 0.93844 0.0
C380 C 0.5692 0.45249 0.89899 0.0
C381 C 0.53355 0.42613 0.98853 0.0
N382 N 0.61083 0.50484 0.92751 0.0
N383 N 0.55477 0.44973 -0.00112 0.0
H384 H 0.28602 0.4974 0.64357 0.0
H385 H 0.2591 0.49002 0.98628 0.0
H386 H 0.31841 0.46385 0.76079 0.0
H387 H 0.19701 0.4692 0.8612 0.0
H388 H 0.28662 0.49018 0.90528 0.0
H389 H 0.25857 0.49703 0.72488 0.0
C390 C 0.28755 0.49022 0.68664 0.0
C391 C 0.30452 0.4807 0.69577 0.0
C392 C 0.26698 0.48563 0.89577 0.0
C393 C 0.27348 0.4805 0.78842 0.0
C394 C 0.25136 0.48571 0.94162 0.0
C395 C 0.22582 0.47967 0.9301 0.0
C396 C 0.25719 0.48016 0.83789 0.0
C397 C 0.2166 0.47394 0.87172 0.0
C398 C 0.27176 0.48983 0.73264 0.0
C399 C 0.30554 0.47133 0.75213 0.0
N400 N 0.23243 0.4746 0.82742 0.0
N401 N 0.29036 0.4717 0.79676 0.0
H402 H 0.78597 0.24576 0.1362 0.0
H403 H 0.81083 0.26528 0.79187 0.0
H404 H 0.75187 0.18016 0.01763 0.0
H405 H 0.87365 0.30637 0.91551 0.0
H406 H 0.78334 0.23854 0.87364 0.0
H407 H 0.81283 0.27309 0.05432 0.0
C408 C 0.78393 0.23719 0.09273 0.0
C409 C 0.76668 0.2107 0.08341 0.0
C410 C 0.80311 0.25348 0.88269 0.0
C411 C 0.79703 0.24184 0.9901 0.0
C412 C 0.81874 0.26885 0.83637 0.0
C413 C 0.84451 0.28806 0.84719 0.0
C414 C 0.81314 0.25783 0.94035 0.0
C415 C 0.85389 0.29171 0.90548 0.0
C416 C 0.79938 0.25273 0.04639 0.0
C417 C 0.76499 0.20049 0.02649 0.0
N418 N 0.83808 0.27684 0.9502 0.0
N419 N 0.77986 0.21618 0.98162 0.0
H420 H 0.5389 0.738 0.24257 0.0
H421 H 0.62116 0.86378 0.04457 0.0
H422 H 0.62181 0.77364 0.2232 0.0
H423 H 0.54054 0.80895 0.01114 0.0
H424 H 0.62139 0.8347 0.12132 0.0
H425 H 0.5388 0.76708 0.16641 0.0
C426 C 0.55705 0.7518 0.22181 0.0
C427 C 0.58039 0.7534 0.23892 0.0
C428 C 0.60367 0.82916 0.09723 0.0
C429 C 0.58048 0.78706 0.15295 0.0
C430 C 0.60345 0.84583 0.054 0.0
C431 C 0.58079 0.8387 0.02159 0.0
C432 C 0.58098 0.8055 0.10853 0.0
C433 C 0.55843 0.81512 0.03504 0.0
C434 C 0.55698 0.7684 0.1785 0.0
C435 C 0.60338 0.77166 0.21081 0.0
N436 N 0.55906 0.79938 0.0776 0.0
N437 N 0.6029 0.78803 0.1695 0.0
H438 H 0.81431 0.52572 0.41626 0.0
H439 H 0.78081 0.61307 0.20785 0.0
H440 H 0.86665 0.60764 0.39189 0.0
H441 H 0.74262 0.52974 0.19553 0.0
H442 H 0.8096 0.61204 0.28406 0.0
H443 H 0.78542 0.52738 0.34228 0.0
C444 C 0.8198 0.54406 0.39501 0.0
C445 C 0.84293 0.56658 0.4101 0.0
C446 C 0.79484 0.59402 0.26474 0.0
C447 C 0.80973 0.56868 0.32596 0.0
C448 C 0.77827 0.59456 0.22172 0.0
C449 C 0.75935 0.57145 0.19535 0.0
C450 C 0.79219 0.57018 0.28181 0.0
C451 C 0.75701 0.54802 0.21457 0.0
C452 C 0.80328 0.54499 0.35283 0.0
C453 C 0.84907 0.5898 0.38121 0.0
N454 N 0.77324 0.54799 0.25662 0.0
N455 N 0.83244 0.59031 0.3407 0.0
H456 H 0.19296 0.77255 0.37637 0.0
H457 H 0.31458 0.81126 0.5833 0.0
H458 H 0.2468 0.7456 0.344 0.0
H459 H 0.28416 0.86252 0.55598 0.0
H460 H 0.28605 0.78298 0.50507 0.0
H461 H 0.22185 0.80125 0.45438 0.0
C462 C 0.21065 0.77241 0.38632 0.0
C463 C 0.21758 0.75675 0.3539 0.0
C464 C 0.28578 0.80053 0.51589 0.0
C465 C 0.25047 0.78934 0.44223 0.0
C466 C 0.30206 0.81667 0.56034 0.0
C467 C 0.30174 0.83926 0.57575 0.0
C468 C 0.26868 0.80674 0.48764 0.0
C469 C 0.28512 0.84537 0.54489 0.0
C470 C 0.22719 0.78894 0.43022 0.0
C471 C 0.24081 0.75745 0.36794 0.0
N472 N 0.26895 0.829 0.5026 0.0
N473 N 0.2564 0.77343 0.41125 0.0
H474 H 0.44894 0.27545 0.73072 0.0
H475 H 0.53481 0.23635 0.53141 0.0
H476 H 0.53182 0.31022 0.74861 0.0
H477 H 0.4517 0.18856 0.54561 0.0
H478 H 0.53389 0.26543 0.60613 0.0
H479 H 0.44934 0.24573 0.65614 0.0
C480 C 0.46723 0.27701 0.71853 0.0
C481 C 0.49039 0.29532 0.74588 0.0
C482 C 0.51585 0.2485 0.59325 0.0
C483 C 0.49095 0.26137 0.66117 0.0
C484 C 0.51637 0.23186 0.55064 0.0
C485 C 0.49329 0.20999 0.53234 0.0
C486 C 0.49205 0.24345 0.61732 0.0
C487 C 0.46995 0.20514 0.55873 0.0
C488 C 0.46741 0.25992 0.67637 0.0
C489 C 0.51351 0.29638 0.72875 0.0
N490 N 0.46989 0.22187 0.59964 0.0
N491 N 0.5132 0.27966 0.6875 0.0
H492 H 0.11167 0.41454 0.92429 0.0
H493 H 0.95914 0.33766 0.85665 0.0
H494 H 0.05284 0.3871 0.06049 0.0
H495 H 1.018 0.36632 0.72044 0.0
H496 H 0.99309 0.35213 0.93204 0.0
H497 H 0.07769 0.39358 0.84939 0.0
C498 C 0.09163 0.4039 0.93856 0.0
C499 C 0.08514 0.40272 -0.00113 0.0
C500 C 0.99858 0.35507 0.88565 0.0
C501 C 0.04602 0.37877 0.91309 0.0
C502 C 0.97917 0.34674 0.84251 0.0
C503 C 0.98568 0.35087 0.78201 0.0
C504 C 1.02477 0.3677 0.86832 0.0
C505 C 1.01203 0.36278 0.76648 0.0
C506 C 0.0722 0.39197 0.8957 0.0
C507 C 0.0588 0.38862 0.01458 0.0
N508 N 1.03056 0.37091 0.80929 0.0
N509 N 0.04024 0.37737 0.97201 0.0
H510 H 0.67121 1.00588 0.87586 0.0
H511 H 0.69347 0.04085 0.22226 0.0
H512 H 0.64335 0.94855 0.01531 0.0
H513 H 0.71758 0.09817 0.08332 0.0
H514 H 0.67895 1.00697 0.1468 0.0
H515 H 0.6922 0.0399 0.95059 0.0
C516 C 0.66972 1.00039 0.92214 0.0
C517 C 0.65535 0.97426 0.93924 0.0
C518 C 0.68759 0.02697 0.13275 0.0
C519 C 0.67926 1.01326 0.02533 0.0
C520 C 0.69596 0.04637 0.17588 0.0
C521 C 0.70667 0.07245 0.15922 0.0
C522 C 0.68989 0.03359 0.07231 0.0
C523 C 0.70938 0.07835 0.09833 0.0
C524 C 0.68167 1.01987 0.96486 0.0
C525 C 0.65414 0.96841 -3e-05 0.0
N526 N 0.70091 0.05909 0.05718 0.0
N527 N 0.66578 0.98773 0.04075 0.0
H528 H 0.6948 0.66708 0.04279 0.0
H529 H 0.67356 0.6822 0.38888 0.0
H530 H 0.71806 0.634 0.18336 0.0
H531 H 0.64272 0.70801 0.24851 0.0
H532 H 0.69478 0.66936 0.31438 0.0
H533 H 0.68059 0.68712 0.11748 0.0
C534 C 0.69724 0.66429 0.08932 0.0
C535 C 0.70753 0.64869 0.10672 0.0
C536 C 0.68354 0.67801 0.29984 0.0
C537 C 0.69111 0.67147 0.19262 0.0
C538 C 0.67145 0.68543 0.34242 0.0
C539 C 0.65617 0.69608 0.32502 0.0
C540 C 0.6804 0.68125 0.23921 0.0
C541 C 0.6542 0.69978 0.26407 0.0
C542 C 0.68902 0.67566 0.13199 0.0
C543 C 0.71015 0.64576 0.16777 0.0
N544 N 0.66603 0.69225 0.22343 0.0
N545 N 0.70187 0.65689 0.2084 0.0
H546 H 0.04971 0.67662 0.20492 0.0
H547 H 1.01097 0.65668 0.54955 0.0
H548 H 0.10561 0.70474 0.34715 0.0
H549 H 0.95517 0.62711 0.40717 0.0
H550 H 0.0457 0.67801 0.47634 0.0
H551 H 1.01489 0.66204 0.27819 0.0
C552 C 0.05472 0.67998 0.25153 0.0
C553 C 0.08069 0.69184 0.2698 0.0
C554 C 1.02585 0.66705 0.46107 0.0
C555 C 0.04074 0.67495 0.35426 0.0
C556 C 1.00596 0.65489 0.50293 0.0
C557 C 0.98005 0.63993 0.4846 0.0
C558 C 1.01989 0.66422 0.40022 0.0
C559 C 0.97483 0.63836 0.42347 0.0
C560 C 0.03477 0.67159 0.29342 0.0
C561 C 0.0859 0.69565 0.33092 0.0
N562 N 0.99455 0.65017 0.38356 0.0
N563 N 0.06613 0.68709 0.37088 0.0
H564 H 0.3987 0.04667 0.38193 0.0
H565 H 0.37882 1.00652 0.72583 0.0
H566 H 0.43064 0.10155 0.52583 0.0
H567 H 0.35163 0.95113 0.58249 0.0
H568 H 0.39362 0.04155 0.65324 0.0
H569 H 0.37714 1.01165 0.45446 0.0
C570 C 0.40096 0.05142 0.42874 0.0
C571 C 0.41665 0.07714 0.44771 0.0
C572 C 0.38424 1.02174 0.6376 0.0
C573 C 0.39209 0.03701 0.53119 0.0
C574 C 0.3757 1.00167 0.67911 0.0
C575 C 0.36405 0.97578 0.66034 0.0
C576 C 0.38119 1.01598 0.57664 0.0
C577 C 0.36056 0.97077 0.59909 0.0
C578 C 0.38869 0.03137 0.47018 0.0
C579 C 0.41883 0.08205 0.50905 0.0
N580 N 0.36923 0.99066 0.5595 0.0
N581 N 0.40685 0.06219 0.54848 0.0
H582 H 0.35081 0.41571 0.68994 0.0
H583 H 0.42673 0.33888 0.74724 0.0
H584 H 0.37814 0.38615 0.54978 0.0
H585 H 0.39513 0.36391 0.88774 0.0
H586 H 0.40633 0.35328 0.67436 0.0
H587 H 0.3642 0.39436 0.76286 0.0
C588 C 0.3594 0.40454 0.67441 0.0
C589 C 0.36346 0.40286 0.61354 0.0
C590 C 0.40363 0.35541 0.72112 0.0
C591 C 0.37905 0.37846 0.69702 0.0
C592 C 0.41525 0.34712 0.76285 0.0
C593 C 0.41277 0.35027 0.82383 0.0
C594 C 0.38953 0.36715 0.74032 0.0
C595 C 0.39762 0.3611 0.84125 0.0
C596 C 0.36708 0.39235 0.71614 0.0
C597 C 0.37469 0.38807 0.59617 0.0
N598 N 0.38679 0.36934 0.79976 0.0
N599 N 0.38224 0.37663 0.63764 0.0
loop_
_geom_bond_atom_site_label_1
_geom_bond_atom_site_label_2
_geom_bond_distance
_geom_bond_site_symmetry_2
_ccdc_geom_bond_type
O0 Cd1 2.223 . S
O0 C8 1.315 . S
Cd1 O0 2.223 . S
Cd1 O4 2.297 . S
Cd1 O5 2.439 1_554 S
Cd1 O11 2.240 . S
Cd2 O3 2.240 . S
Cd2 O10 2.223 . S
Cd2 O12 2.297 1_554 S
Cd2 O13 2.439 1_554 S
O3 Cd2 2.240 . S
O3 C8 1.279 . S
O4 Cd1 2.297 . S
O4 C6 1.247 . S
O5 Cd1 2.439 1_556 S
O5 C6 1.208 1_556 S
C6 O4 1.247 . S
C6 O5 1.208 1_554 S
C7 O12 1.247 . S
C7 O13 1.208 . S
C8 O0 1.315 . S
C8 O3 1.279 . S
C9 O10 1.315 . S
C9 O11 1.279 . S
O10 Cd2 2.223 . S
O10 C9 1.315 . S
O11 Cd1 2.240 . S
O11 C9 1.279 . S
O12 Cd2 2.297 1_556 S
O12 C7 1.247 . S
O13 Cd2 2.439 1_556 S
O13 C7 1.208 . S
O14 Cd15 2.223 . S
O14 C22 1.315 . S
Cd15 O14 2.223 . S
Cd15 O18 2.297 . S
Cd15 O19 2.439 . S
Cd15 O25 2.240 . S
Cd16 O17 2.240 . S
Cd16 O24 2.223 . S
Cd16 O26 2.297 . S
Cd16 O27 2.439 . S
O17 Cd16 2.240 . S
O17 C22 1.279 . S
O18 Cd15 2.297 . S
O18 C20 1.247 . S
O19 Cd15 2.439 . S
O19 C20 1.208 . S
C20 O18 1.247 . S
C20 O19 1.208 . S
C21 O26 1.247 . S
C21 O27 1.208 . S
C22 O14 1.315 . S
C22 O17 1.279 . S
C23 O24 1.315 . S
C23 O25 1.279 . S
O24 Cd16 2.223 . S
O24 C23 1.315 . S
O25 Cd15 2.240 . S
O25 C23 1.279 . S
O26 Cd16 2.297 . S
O26 C21 1.247 . S
O27 Cd16 2.439 . S
O27 C21 1.208 . S
O28 Cd29 2.223 . S
O28 C36 1.315 . S
Cd29 O28 2.223 . S
Cd29 O32 2.297 . S
Cd29 O33 2.439 . S
Cd29 O39 2.240 . S
Cd30 O31 2.240 . S
Cd30 O38 2.223 . S
Cd30 O40 2.297 . S
Cd30 O41 2.439 . S
O31 Cd30 2.240 . S
O31 C36 1.279 . S
O32 Cd29 2.297 . S
O32 C34 1.247 . S
O33 Cd29 2.439 . S
O33 C34 1.208 . S
C34 O32 1.247 . S
C34 O33 1.208 . S
C35 O40 1.247 . S
C35 O41 1.208 . S
C36 O28 1.315 . S
C36 O31 1.279 . S
C37 O38 1.315 . S
C37 O39 1.279 . S
O38 Cd30 2.223 . S
O38 C37 1.315 . S
O39 Cd29 2.240 . S
O39 C37 1.279 . S
O40 Cd30 2.297 . S
O40 C35 1.247 . S
O41 Cd30 2.439 . S
O41 C35 1.208 . S
O42 Cd43 2.223 . S
O42 C50 1.315 . S
Cd43 O42 2.223 . S
Cd43 O46 2.297 . S
Cd43 O47 2.439 . S
Cd43 O53 2.240 . S
Cd44 O45 2.240 . S
Cd44 O52 2.223 . S
Cd44 O54 2.297 . S
Cd44 O55 2.439 . S
O45 Cd44 2.240 . S
O45 C50 1.279 . S
O46 Cd43 2.297 . S
O46 C48 1.247 . S
O47 Cd43 2.439 . S
O47 C48 1.208 . S
C48 O46 1.247 . S
C48 O47 1.208 . S
C49 O54 1.247 . S
C49 O55 1.208 . S
C50 O42 1.315 . S
C50 O45 1.279 . S
C51 O52 1.315 . S
C51 O53 1.279 . S
O52 Cd44 2.223 . S
O52 C51 1.315 . S
O53 Cd43 2.240 . S
O53 C51 1.279 . S
O54 Cd44 2.297 . S
O54 C49 1.247 . S
O55 Cd44 2.439 . S
O55 C49 1.208 . S
O56 Cd57 2.223 . S
O56 C64 1.315 . S
Cd57 O56 2.223 . S
Cd57 O60 2.297 . S
Cd57 O61 2.439 . S
Cd57 O67 2.240 . S
Cd58 O59 2.240 . S
Cd58 O66 2.223 . S
Cd58 O68 2.297 . S
Cd58 O69 2.439 . S
O59 Cd58 2.240 . S
O59 C64 1.279 . S
O60 Cd57 2.297 . S
O60 C62 1.247 . S
O61 Cd57 2.439 . S
O61 C62 1.208 . S
C62 O60 1.247 . S
C62 O61 1.208 . S
C63 O68 1.247 . S
C63 O69 1.208 . S
C64 O56 1.315 . S
C64 O59 1.279 . S
C65 O66 1.315 . S
C65 O67 1.279 . S
O66 Cd58 2.223 . S
O66 C65 1.315 . S
O67 Cd57 2.240 . S
O67 C65 1.279 . S
O68 Cd58 2.297 . S
O68 C63 1.247 . S
O69 Cd58 2.439 . S
O69 C63 1.208 . S
O70 Cd71 2.223 . S
O70 C78 1.315 . S
Cd71 O70 2.223 . S
Cd71 O74 2.297 . S
Cd71 O75 2.439 . S
Cd71 O81 2.240 . S
Cd72 O73 2.240 . S
Cd72 O80 2.223 . S
Cd72 O82 2.297 . S
Cd72 O83 2.439 . S
O73 Cd72 2.240 . S
O73 C78 1.279 . S
O74 Cd71 2.297 . S
O74 C76 1.247 . S
O75 Cd71 2.439 . S
O75 C76 1.208 . S
C76 O74 1.247 . S
C76 O75 1.208 . S
C77 O82 1.247 . S
C77 O83 1.208 . S
C78 O70 1.315 . S
C78 O73 1.279 . S
C79 O80 1.315 . S
C79 O81 1.279 . S
O80 Cd72 2.223 . S
O80 C79 1.315 . S
O81 Cd71 2.240 . S
O81 C79 1.279 . S
O82 Cd72 2.297 . S
O82 C77 1.247 . S
O83 Cd72 2.439 . S
O83 C77 1.208 . S
O84 Cd85 2.223 . S
O84 C92 1.315 . S
Cd85 O84 2.223 . S
Cd85 O88 2.297 . S
Cd85 O89 2.439 . S
Cd85 O95 2.240 . S
Cd86 O87 2.240 . S
Cd86 O94 2.223 . S
Cd86 O96 2.297 . S
Cd86 O97 2.439 . S
O87 Cd86 2.240 . S
O87 C92 1.279 . S
O88 Cd85 2.297 . S
O88 C90 1.247 . S
O89 Cd85 2.439 . S
O89 C90 1.208 . S
C90 O88 1.247 . S
C90 O89 1.208 . S
C91 O96 1.247 . S
C91 O97 1.208 . S
C92 O84 1.315 . S
C92 O87 1.279 . S
C93 O94 1.315 . S
C93 O95 1.279 . S
O94 Cd86 2.223 . S
O94 C93 1.315 . S
O95 Cd85 2.240 . S
O95 C93 1.279 . S
O96 Cd86 2.297 . S
O96 C91 1.247 . S
O97 Cd86 2.439 . S
O97 C91 1.208 . S
O98 Cd99 2.223 1_556 S
O98 C106 1.315 1_556 S
Cd99 O98 2.223 1_554 S
Cd99 O102 2.297 . S
Cd99 O103 2.439 . S
Cd99 O109 2.240 . S
Cd100 O101 2.240 . S
Cd100 O108 2.238 . S
Cd100 O110 2.297 . S
Cd100 O111 2.439 . S
O101 Cd100 2.240 . S
O101 C106 1.279 . S
O102 Cd99 2.297 . S
O102 C104 1.247 . S
O103 Cd99 2.439 . S
O103 C104 1.208 . S
C104 O102 1.247 . S
C104 O103 1.208 . S
C105 O110 1.247 . S
C105 O111 1.208 . S
C106 O98 1.315 1_554 S
C106 O101 1.279 . S
C107 O108 1.310 1_556 S
C107 O109 1.279 1_556 S
O108 Cd100 2.238 . S
O108 C107 1.310 1_554 S
O109 Cd99 2.240 . S
O109 C107 1.279 1_554 S
O110 Cd100 2.297 . S
O110 C105 1.247 . S
O111 Cd100 2.439 . S
O111 C105 1.208 . S
O112 Cd113 2.223 . S
O112 C120 1.315 . S
Cd113 O112 2.223 . S
Cd113 O116 2.297 . S
Cd113 O117 2.439 . S
Cd113 O123 2.240 . S
Cd114 O115 2.240 . S
Cd114 O122 2.223 . S
Cd114 O124 2.297 . S
Cd114 O125 2.439 . S
O115 Cd114 2.240 . S
O115 C120 1.279 . S
O116 Cd113 2.297 . S
O116 C118 1.247 . S
O117 Cd113 2.439 . S
O117 C118 1.208 . S
C118 O116 1.247 . S
C118 O117 1.208 . S
C119 O124 1.247 . S
C119 O125 1.208 . S
C120 O112 1.315 . S
C120 O115 1.279 . S
C121 O122 1.315 . S
C121 O123 1.279 . S
O122 Cd114 2.223 . S
O122 C121 1.315 . S
O123 Cd113 2.240 . S
O123 C121 1.279 . S
O124 Cd114 2.297 . S
O124 C119 1.247 . S
O125 Cd114 2.439 . S
O125 C119 1.208 . S
O126 Cd127 2.223 . S
O126 C134 1.315 . S
Cd127 O126 2.223 . S
Cd127 O130 2.297 . S
Cd127 O131 2.439 . S
Cd127 O137 2.240 . S
Cd128 O129 2.240 . S
Cd128 O136 2.223 . S
Cd128 O138 2.297 . S
Cd128 O139 2.439 . S
O129 Cd128 2.240 . S
O129 C134 1.279 . S
O130 Cd127 2.297 . S
O130 C132 1.247 . S
O131 Cd127 2.439 . S
O131 C132 1.208 . S
C132 O130 1.247 . S
C132 O131 1.208 . S
C133 O138 1.247 . S
C133 O139 1.208 . S
C134 O126 1.315 . S
C134 O129 1.279 . S
C135 O136 1.315 . S
C135 O137 1.279 . S
O136 Cd128 2.223 . S
O136 C135 1.315 . S
O137 Cd127 2.240 . S
O137 C135 1.279 . S
O138 Cd128 2.297 . S
O138 C133 1.247 . S
O139 Cd128 2.439 . S
O139 C133 1.208 . S
O140 Cd141 2.223 . S
O140 C148 1.315 . S
Cd141 O140 2.223 . S
Cd141 O144 2.297 . S
Cd141 O145 2.439 . S
Cd141 O151 2.240 . S
Cd142 O143 2.240 . S
Cd142 O150 2.223 . S
Cd142 O152 2.297 . S
Cd142 O153 2.439 . S
O143 Cd142 2.240 . S
O143 C148 1.279 . S
O144 Cd141 2.297 . S
O144 C146 1.247 . S
O145 Cd141 2.439 . S
O145 C146 1.208 . S
C146 O144 1.247 . S
C146 O145 1.208 . S
C147 O152 1.247 . S
C147 O153 1.208 . S
C148 O140 1.315 . S
C148 O143 1.279 . S
C149 O150 1.315 . S
C149 O151 1.279 . S
O150 Cd142 2.223 . S
O150 C149 1.315 . S
O151 Cd141 2.240 . S
O151 C149 1.279 . S
O152 Cd142 2.297 . S
O152 C147 1.247 . S
O153 Cd142 2.439 . S
O153 C147 1.208 . S
O154 Cd155 2.223 . S
O154 C162 1.315 . S
Cd155 O154 2.223 . S
Cd155 O158 2.297 . S
Cd155 O159 2.439 . S
Cd155 O165 2.240 . S
Cd156 O157 2.240 . S
Cd156 O164 2.223 . S
Cd156 O166 2.297 . S
Cd156 O167 2.439 . S
O157 Cd156 2.240 . S
O157 C162 1.279 . S
O158 Cd155 2.297 . S
O158 C160 1.247 . S
O159 Cd155 2.439 . S
O159 C160 1.208 . S
C160 O158 1.247 . S
C160 O159 1.208 . S
C161 O166 1.247 . S
C161 O167 1.208 . S
C162 O154 1.315 . S
C162 O157 1.279 . S
C163 O164 1.315 . S
C163 O165 1.279 . S
O164 Cd156 2.223 . S
O164 C163 1.315 . S
O165 Cd155 2.240 . S
O165 C163 1.279 . S
O166 Cd156 2.297 . S
O166 C161 1.247 . S
O167 Cd156 2.439 . S
O167 C161 1.208 . S
H168 C174 0.930 . S
H169 C178 0.930 . S
H170 C183 0.929 . S
H171 C181 0.929 . S
H172 C176 0.929 . S
H173 C182 0.929 . S
C174 H168 0.930 . S
C174 C175 1.367 . S
C174 C182 1.378 . S
C175 C174 1.367 . S
C175 C183 1.433 . S
C176 H172 0.929 . S
C176 C178 1.378 . S
C176 C180 1.350 . S
C177 C180 1.463 . S
C177 C182 1.350 . S
C177 N185 1.427 . S
C178 H169 0.930 . S
C178 C176 1.378 . S
C178 C179 1.367 . S
C179 C178 1.367 . S
C179 C181 1.433 . S
C180 C176 1.350 . S
C180 C177 1.463 . S
C180 N184 1.427 . S
C181 H171 0.929 . S
C181 C179 1.433 . S
C181 N184 1.384 . S
C182 H173 0.929 . S
C182 C174 1.378 . S
C182 C177 1.350 . S
C183 H170 0.929 . S
C183 C175 1.433 . S
C183 N185 1.384 . S
N184 C180 1.427 . S
N184 C181 1.384 . S
N185 C177 1.427 . S
N185 C183 1.384 . S
H186 C192 0.930 . S
H187 C196 0.930 . S
H188 C201 0.929 . S
H189 C199 0.929 . S
H190 C194 0.929 . S
H191 C200 0.929 . S
C192 H186 0.930 . S
C192 C193 1.367 . S
C192 C200 1.378 . S
C193 C192 1.367 . S
C193 C201 1.433 . S
C194 H190 0.929 . S
C194 C196 1.378 . S
C194 C198 1.350 . S
C195 C198 1.463 . S
C195 C200 1.350 . S
C195 N203 1.427 . S
C196 H187 0.930 . S
C196 C194 1.378 . S
C196 C197 1.367 . S
C197 C196 1.367 . S
C197 C199 1.433 . S
C198 C194 1.350 . S
C198 C195 1.463 . S
C198 N202 1.427 . S
C199 H189 0.929 . S
C199 C197 1.433 . S
C199 N202 1.384 . S
C200 H191 0.929 . S
C200 C192 1.378 . S
C200 C195 1.350 . S
C201 H188 0.929 . S
C201 C193 1.433 . S
C201 N203 1.384 . S
N202 C198 1.427 . S
N202 C199 1.384 . S
N203 C195 1.427 . S
N203 C201 1.384 . S
H204 C210 0.930 . S
H205 C214 0.930 . S
H206 C219 0.929 . S
H207 C217 0.929 . S
H208 C212 0.929 . S
H209 C218 0.929 . S
C210 H204 0.930 . S
C210 C211 1.367 . S
C210 C218 1.378 . S
C211 C210 1.367 . S
C211 C219 1.433 . S
C212 H208 0.929 . S
C212 C214 1.378 . S
C212 C216 1.350 . S
C213 C216 1.463 . S
C213 C218 1.350 . S
C213 N221 1.427 . S
C214 H205 0.930 . S
C214 C212 1.378 . S
C214 C215 1.367 . S
C215 C214 1.367 . S
C215 C217 1.433 . S
C216 C212 1.350 . S
C216 C213 1.463 . S
C216 N220 1.427 . S
C217 H207 0.929 . S
C217 C215 1.433 . S
C217 N220 1.384 . S
C218 H209 0.929 . S
C218 C210 1.378 . S
C218 C213 1.350 . S
C219 H206 0.929 . S
C219 C211 1.433 . S
C219 N221 1.384 . S
N220 C216 1.427 . S
N220 C217 1.384 . S
N221 C213 1.427 . S
N221 C219 1.384 . S
H222 C228 0.930 . S
H223 C232 0.930 . S
H224 C237 0.929 . S
H225 C235 0.929 . S
H226 C230 0.929 . S
H227 C236 0.929 . S
C228 H222 0.930 . S
C228 C229 1.367 . S
C228 C236 1.378 . S
C229 C228 1.367 . S
C229 C237 1.433 . S
C230 H226 0.929 . S
C230 C232 1.378 . S
C230 C234 1.350 . S
C231 C234 1.463 . S
C231 C236 1.350 . S
C231 N239 1.427 . S
C232 H223 0.930 . S
C232 C230 1.378 . S
C232 C233 1.367 . S
C233 C232 1.367 . S
C233 C235 1.433 . S
C234 C230 1.350 . S
C234 C231 1.463 . S
C234 N238 1.427 . S
C235 H225 0.929 . S
C235 C233 1.433 . S
C235 N238 1.384 . S
C236 H227 0.929 . S
C236 C228 1.378 . S
C236 C231 1.350 . S
C237 H224 0.929 . S
C237 C229 1.433 . S
C237 N239 1.384 . S
N238 C234 1.427 . S
N238 C235 1.384 . S
N239 C231 1.427 . S
N239 C237 1.384 . S
H240 C246 0.930 . S
H241 C250 0.930 . S
H242 C255 0.929 . S
H243 C253 0.929 . S
H244 C248 0.929 . S
H245 C254 0.929 . S
C246 H240 0.930 . S
C246 C247 1.367 . S
C246 C254 1.378 . S
C247 C246 1.367 . S
C247 C255 1.433 . S
C248 H244 0.929 . S
C248 C250 1.378 1_556 S
C248 C252 1.350 . S
C249 C252 1.463 . S
C249 C254 1.350 . S
C249 N257 1.427 . S
C250 H241 0.930 . S
C250 C248 1.378 1_554 S
C250 C251 1.367 . S
C251 C250 1.367 . S
C251 C253 1.433 . S
C252 C248 1.350 . S
C252 C249 1.463 . S
C252 N256 1.427 1_556 S
C253 H243 0.929 . S
C253 C251 1.433 . S
C253 N256 1.384 . S
C254 H245 0.929 . S
C254 C246 1.378 . S
C254 C249 1.350 . S
C255 H242 0.929 . S
C255 C247 1.433 . S
C255 N257 1.384 . S
N256 C252 1.427 1_554 S
N256 C253 1.384 . S
N257 C249 1.427 . S
N257 C255 1.384 . S
H258 C264 0.930 . S
H259 C268 0.930 . S
H260 C273 0.929 . S
H261 C271 0.929 . S
H262 C266 0.929 . S
H263 C272 0.929 . S
C264 H258 0.930 . S
C264 C265 1.367 . S
C264 C272 1.378 . S
C265 C264 1.367 . S
C265 C273 1.433 . S
C266 H262 0.929 . S
C266 C268 1.378 . S
C266 C270 1.350 . S
C267 C270 1.463 . S
C267 C272 1.350 . S
C267 N275 1.427 . S
C268 H259 0.930 . S
C268 C266 1.378 . S
C268 C269 1.367 . S
C269 C268 1.367 . S
C269 C271 1.433 . S
C270 C266 1.350 . S
C270 C267 1.463 . S
C270 N274 1.427 . S
C271 H261 0.929 . S
C271 C269 1.433 . S
C271 N274 1.384 . S
C272 H263 0.929 . S
C272 C264 1.378 . S
C272 C267 1.350 . S
C273 H260 0.929 . S
C273 C265 1.433 . S
C273 N275 1.384 . S
N274 C270 1.427 . S
N274 C271 1.384 . S
N275 C267 1.427 . S
N275 C273 1.384 . S
H276 C282 0.930 . S
H277 C286 0.930 . S
H278 C291 0.929 . S
H279 C289 0.929 . S
H280 C284 0.929 . S
H281 C290 0.929 . S
C282 H276 0.930 . S
C282 C283 1.367 . S
C282 C290 1.378 . S
C283 C282 1.367 . S
C283 C291 1.433 . S
C284 H280 0.929 . S
C284 C286 1.378 . S
C284 C288 1.350 . S
C285 C288 1.463 . S
C285 C290 1.350 . S
C285 N293 1.427 . S
C286 H277 0.930 . S
C286 C284 1.378 . S
C286 C287 1.367 . S
C287 C286 1.367 . S
C287 C289 1.433 . S
C288 C284 1.350 . S
C288 C285 1.463 . S
C288 N292 1.427 . S
C289 H279 0.929 . S
C289 C287 1.433 . S
C289 N292 1.384 . S
C290 H281 0.929 . S
C290 C282 1.378 . S
C290 C285 1.350 . S
C291 H278 0.929 . S
C291 C283 1.433 . S
C291 N293 1.384 . S
N292 C288 1.427 . S
N292 C289 1.384 . S
N293 C285 1.427 . S
N293 C291 1.384 . S
H294 C300 0.930 . S
H295 C304 0.930 . S
H296 C309 0.929 . S
H297 C307 0.929 . S
H298 C302 0.929 . S
H299 C308 0.929 . S
C300 H294 0.930 . S
C300 C301 1.367 . S
C300 C308 1.378 . S
C301 C300 1.367 . S
C301 C309 1.433 . S
C302 H298 0.929 . S
C302 C304 1.378 . S
C302 C306 1.350 . S
C303 C306 1.463 . S
C303 C308 1.350 . S
C303 N311 1.427 . S
C304 H295 0.930 . S
C304 C302 1.378 . S
C304 C305 1.367 . S
C305 C304 1.367 . S
C305 C307 1.433 . S
C306 C302 1.350 . S
C306 C303 1.463 . S
C306 N310 1.427 . S
C307 H297 0.929 . S
C307 C305 1.433 . S
C307 N310 1.384 . S
C308 H299 0.929 . S
C308 C300 1.378 . S
C308 C303 1.350 . S
C309 H296 0.929 . S
C309 C301 1.433 . S
C309 N311 1.384 . S
N310 C306 1.427 . S
N310 C307 1.384 . S
N311 C303 1.427 . S
N311 C309 1.384 . S
H312 C318 0.930 . S
H313 C322 0.930 . S
H314 C327 0.929 . S
H315 C325 0.929 . S
H316 C320 0.929 . S
H317 C326 0.929 . S
C318 H312 0.930 . S
C318 C319 1.367 . S
C318 C326 1.378 . S
C319 C318 1.367 . S
C319 C327 1.433 . S
C320 H316 0.929 . S
C320 C322 1.378 . S
C320 C324 1.350 . S
C321 C324 1.463 . S
C321 C326 1.350 . S
C321 N329 1.427 . S
C322 H313 0.930 . S
C322 C320 1.378 . S
C322 C323 1.367 . S
C323 C322 1.367 . S
C323 C325 1.433 . S
C324 C320 1.350 . S
C324 C321 1.463 . S
C324 N328 1.427 . S
C325 H315 0.929 . S
C325 C323 1.433 . S
C325 N328 1.384 . S
C326 H317 0.929 . S
C326 C318 1.378 . S
C326 C321 1.350 . S
C327 H314 0.929 . S
C327 C319 1.433 . S
C327 N329 1.384 . S
N328 C324 1.427 . S
N328 C325 1.384 . S
N329 C321 1.427 . S
N329 C327 1.384 . S
H330 C336 0.930 . S
H331 C340 0.930 . S
H332 C345 0.929 . S
H333 C343 0.929 . S
H334 C338 0.929 . S
H335 C344 0.929 . S
C336 H330 0.930 . S
C336 C337 1.367 . S
C336 C344 1.378 . S
C337 C336 1.367 . S
C337 C345 1.433 . S
C338 H334 0.929 . S
C338 C340 1.378 . S
C338 C342 1.350 . S
C339 C342 1.463 . S
C339 C344 1.350 . S
C339 N347 1.427 . S
C340 H331 0.930 . S
C340 C338 1.378 . S
C340 C341 1.367 . S
C341 C340 1.367 . S
C341 C343 1.433 . S
C342 C338 1.350 . S
C342 C339 1.463 . S
C342 N346 1.427 . S
C343 H333 0.929 . S
C343 C341 1.433 . S
C343 N346 1.384 . S
C344 H335 0.929 . S
C344 C336 1.378 . S
C344 C339 1.350 . S
C345 H332 0.929 . S
C345 C337 1.433 . S
C345 N347 1.384 . S
N346 C342 1.427 . S
N346 C343 1.384 . S
N347 C339 1.427 . S
N347 C345 1.384 . S
H348 C354 0.930 . S
H349 C358 0.930 . S
H350 C363 0.929 . S
H351 C361 0.929 . S
H352 C356 0.929 . S
H353 C362 0.929 . S
C354 H348 0.930 . S
C354 C355 1.367 . S
C354 C362 1.378 . S
C355 C354 1.367 . S
C355 C363 1.433 . S
C356 H352 0.929 . S
C356 C358 1.378 . S
C356 C360 1.350 . S
C357 C360 1.463 . S
C357 C362 1.350 . S
C357 N365 1.427 . S
C358 H349 0.930 . S
C358 C356 1.378 . S
C358 C359 1.367 . S
C359 C358 1.367 . S
C359 C361 1.433 . S
C360 C356 1.350 . S
C360 C357 1.463 . S
C360 N364 1.427 . S
C361 H351 0.929 . S
C361 C359 1.433 . S
C361 N364 1.384 . S
C362 H353 0.929 . S
C362 C354 1.378 . S
C362 C357 1.350 . S
C363 H350 0.929 . S
C363 C355 1.433 . S
C363 N365 1.384 . S
N364 C360 1.427 . S
N364 C361 1.384 . S
N365 C357 1.427 . S
N365 C363 1.384 . S
H366 C372 0.930 . S
H367 C376 0.930 . S
H368 C381 0.929 . S
H369 C379 0.929 . S
H370 C374 0.929 . S
H371 C380 0.929 . S
C372 H366 0.930 . S
C372 C373 1.367 . S
C372 C380 1.378 . S
C373 C372 1.367 . S
C373 C381 1.433 1_556 S
C374 H370 0.929 . S
C374 C376 1.378 . S
C374 C378 1.350 1_554 S
C375 C378 1.463 . S
C375 C380 1.350 . S
C375 N383 1.427 1_556 S
C376 H367 0.930 . S
C376 C374 1.378 . S
C376 C377 1.367 1_554 S
C377 C376 1.367 1_556 S
C377 C379 1.433 . S
C378 C374 1.350 1_556 S
C378 C375 1.463 . S
C378 N382 1.427 . S
C379 H369 0.929 . S
C379 C377 1.433 . S
C379 N382 1.384 . S
C380 H371 0.929 . S
C380 C372 1.378 . S
C380 C375 1.350 . S
C381 H368 0.929 . S
C381 C373 1.433 1_554 S
C381 N383 1.384 . S
N382 C378 1.427 . S
N382 C379 1.384 . S
N383 C375 1.427 1_554 S
N383 C381 1.384 . S
H384 C390 0.930 . S
H385 C394 0.930 . S
H386 C399 0.929 . S
H387 C397 0.929 . S
H388 C392 0.929 . S
H389 C398 0.929 . S
C390 H384 0.930 . S
C390 C391 1.367 . S
C390 C398 1.378 . S
C391 C390 1.367 . S
C391 C399 1.433 . S
C392 H388 0.929 . S
C392 C394 1.378 . S
C392 C396 1.350 . S
C393 C396 1.463 . S
C393 C398 1.350 . S
C393 N401 1.427 . S
C394 H385 0.930 . S
C394 C392 1.378 . S
C394 C395 1.367 . S
C395 C394 1.367 . S
C395 C397 1.433 . S
C396 C392 1.350 . S
C396 C393 1.463 . S
C396 N400 1.427 . S
C397 H387 0.929 . S
C397 C395 1.433 . S
C397 N400 1.384 . S
C398 H389 0.929 . S
C398 C390 1.378 . S
C398 C393 1.350 . S
C399 H386 0.929 . S
C399 C391 1.433 . S
C399 N401 1.384 . S
N400 C396 1.427 . S
N400 C397 1.384 . S
N401 C393 1.427 . S
N401 C399 1.384 . S
H402 C408 0.930 . S
H403 C412 0.930 . S
H404 C417 0.929 . S
H405 C415 0.929 . S
H406 C410 0.929 . S
H407 C416 0.929 . S
C408 H402 0.930 . S
C408 C409 1.367 . S
C408 C416 1.378 . S
C409 C408 1.367 . S
C409 C417 1.433 . S
C410 H406 0.929 . S
C410 C412 1.378 . S
C410 C414 1.350 . S
C411 C414 1.463 . S
C411 C416 1.350 1_556 S
C411 N419 1.427 . S
C412 H403 0.930 . S
C412 C410 1.378 . S
C412 C413 1.367 . S
C413 C412 1.367 . S
C413 C415 1.433 . S
C414 C410 1.350 . S
C414 C411 1.463 . S
C414 N418 1.427 . S
C415 H405 0.929 . S
C415 C413 1.433 . S
C415 N418 1.384 . S
C416 H407 0.929 . S
C416 C408 1.378 . S
C416 C411 1.350 1_554 S
C417 H404 0.929 . S
C417 C409 1.433 . S
C417 N419 1.384 1_554 S
N418 C414 1.427 . S
N418 C415 1.384 . S
N419 C411 1.427 . S
N419 C417 1.384 1_556 S
H420 C426 0.930 . S
H421 C430 0.930 . S
H422 C435 0.929 . S
H423 C433 0.929 1_556 S
H424 C428 0.929 . S
H425 C434 0.929 . S
C426 H420 0.930 . S
C426 C427 1.367 . S
C426 C434 1.378 . S
C427 C426 1.367 . S
C427 C435 1.433 . S
C428 H424 0.929 . S
C428 C430 1.378 . S
C428 C432 1.350 . S
C429 C432 1.463 . S
C429 C434 1.350 . S
C429 N437 1.427 . S
C430 H421 0.930 . S
C430 C428 1.378 . S
C430 C431 1.367 . S
C431 C430 1.367 . S
C431 C433 1.433 . S
C432 C428 1.350 . S
C432 C429 1.463 . S
C432 N436 1.427 . S
C433 H423 0.929 1_554 S
C433 C431 1.433 . S
C433 N436 1.384 . S
C434 H425 0.929 . S
C434 C426 1.378 . S
C434 C429 1.350 . S
C435 H422 0.929 . S
C435 C427 1.433 . S
C435 N437 1.384 . S
N436 C432 1.427 . S
N436 C433 1.384 . S
N437 C429 1.427 . S
N437 C435 1.384 . S
H438 C444 0.930 . S
H439 C448 0.930 . S
H440 C453 0.929 . S
H441 C451 0.929 . S
H442 C446 0.929 . S
H443 C452 0.929 . S
C444 H438 0.930 . S
C444 C445 1.367 . S
C444 C452 1.378 . S
C445 C444 1.367 . S
C445 C453 1.433 . S
C446 H442 0.929 . S
C446 C448 1.378 . S
C446 C450 1.350 . S
C447 C450 1.463 . S
C447 C452 1.350 . S
C447 N455 1.427 . S
C448 H439 0.930 . S
C448 C446 1.378 . S
C448 C449 1.367 . S
C449 C448 1.367 . S
C449 C451 1.433 . S
C450 C446 1.350 . S
C450 C447 1.463 . S
C450 N454 1.427 . S
C451 H441 0.929 . S
C451 C449 1.433 . S
C451 N454 1.384 . S
C452 H443 0.929 . S
C452 C444 1.378 . S
C452 C447 1.350 . S
C453 H440 0.929 . S
C453 C445 1.433 . S
C453 N455 1.384 . S
N454 C450 1.427 . S
N454 C451 1.384 . S
N455 C447 1.427 . S
N455 C453 1.384 . S
H456 C462 0.930 . S
H457 C466 0.930 . S
H458 C471 0.929 . S
H459 C469 0.929 . S
H460 C464 0.929 . S
H461 C470 0.929 . S
C462 H456 0.930 . S
C462 C463 1.367 . S
C462 C470 1.378 . S
C463 C462 1.367 . S
C463 C471 1.433 . S
C464 H460 0.929 . S
C464 C466 1.378 . S
C464 C468 1.350 . S
C465 C468 1.463 . S
C465 C470 1.350 . S
C465 N473 1.427 . S
C466 H457 0.930 . S
C466 C464 1.378 . S
C466 C467 1.367 . S
C467 C466 1.367 . S
C467 C469 1.433 . S
C468 C464 1.350 . S
C468 C465 1.463 . S
C468 N472 1.427 . S
C469 H459 0.929 . S
C469 C467 1.433 . S
C469 N472 1.384 . S
C470 H461 0.929 . S
C470 C462 1.378 . S
C470 C465 1.350 . S
C471 H458 0.929 . S
C471 C463 1.433 . S
C471 N473 1.384 . S
N472 C468 1.427 . S
N472 C469 1.384 . S
N473 C465 1.427 . S
N473 C471 1.384 . S
H474 C480 0.930 . S
H475 C484 0.930 . S
H476 C489 0.929 . S
H477 C487 0.929 . S
H478 C482 0.929 . S
H479 C488 0.929 . S
C480 H474 0.930 . S
C480 C481 1.367 . S
C480 C488 1.378 . S
C481 C480 1.367 . S
C481 C489 1.433 . S
C482 H478 0.929 . S
C482 C484 1.378 . S
C482 C486 1.350 . S
C483 C486 1.463 . S
C483 C488 1.350 . S
C483 N491 1.427 . S
C484 H475 0.930 . S
C484 C482 1.378 . S
C484 C485 1.367 . S
C485 C484 1.367 . S
C485 C487 1.433 . S
C486 C482 1.350 . S
C486 C483 1.463 . S
C486 N490 1.427 . S
C487 H477 0.929 . S
C487 C485 1.433 . S
C487 N490 1.384 . S
C488 H479 0.929 . S
C488 C480 1.378 . S
C488 C483 1.350 . S
C489 H476 0.929 . S
C489 C481 1.433 . S
C489 N491 1.384 . S
N490 C486 1.427 . S
N490 C487 1.384 . S
N491 C483 1.427 . S
N491 C489 1.384 . S
H492 C498 0.930 . S
H493 C502 0.930 . S
H494 C507 0.929 1_554 S
H495 C505 0.929 . S
H496 C500 0.929 . S
H497 C506 0.929 . S
C498 H492 0.930 . S
C498 C499 1.367 . S
C498 C506 1.378 . S
C499 C498 1.367 . S
C499 C507 1.433 . S
C500 H496 0.929 . S
C500 C502 1.378 . S
C500 C504 1.350 . S
C501 C504 1.463 1_455 S
C501 C506 1.350 . S
C501 N509 1.427 . S
C502 H493 0.930 . S
C502 C500 1.378 . S
C502 C503 1.367 . S
C503 C502 1.367 . S
C503 C505 1.433 . S
C504 C500 1.350 . S
C504 C501 1.463 1_655 S
C504 N508 1.427 . S
C505 H495 0.929 . S
C505 C503 1.433 . S
C505 N508 1.384 . S
C506 H497 0.929 . S
C506 C498 1.378 . S
C506 C501 1.350 . S
C507 H494 0.929 1_556 S
C507 C499 1.433 . S
C507 N509 1.384 . S
N508 C504 1.427 . S
N508 C505 1.384 . S
N509 C501 1.427 . S
N509 C507 1.384 . S
H510 C516 0.930 . S
H511 C520 0.930 . S
H512 C525 0.929 . S
H513 C523 0.929 . S
H514 C518 0.929 1_565 S
H515 C524 0.929 1_545 S
C516 H510 0.930 . S
C516 C517 1.367 . S
C516 C524 1.378 . S
C517 C516 1.367 . S
C517 C525 1.433 1_556 S
C518 H514 0.929 1_545 S
C518 C520 1.378 . S
C518 C522 1.350 . S
C519 C522 1.463 1_565 S
C519 C524 1.350 1_554 S
C519 N527 1.427 . S
C520 H511 0.930 . S
C520 C518 1.378 . S
C520 C521 1.367 . S
C521 C520 1.367 . S
C521 C523 1.433 . S
C522 C518 1.350 . S
C522 C519 1.463 1_545 S
C522 N526 1.427 . S
C523 H513 0.929 . S
C523 C521 1.433 . S
C523 N526 1.384 . S
C524 H515 0.929 1_565 S
C524 C516 1.378 . S
C524 C519 1.350 1_556 S
C525 H512 0.929 . S
C525 C517 1.433 1_554 S
C525 N527 1.384 . S
N526 C522 1.427 . S
N526 C523 1.384 . S
N527 C519 1.427 . S
N527 C525 1.384 . S
H528 C534 0.930 . S
H529 C538 0.930 . S
H530 C543 0.929 . S
H531 C541 0.929 . S
H532 C536 0.929 . S
H533 C542 0.929 . S
C534 H528 0.930 . S
C534 C535 1.367 . S
C534 C542 1.378 . S
C535 C534 1.367 . S
C535 C543 1.433 . S
C536 H532 0.929 . S
C536 C538 1.378 . S
C536 C540 1.350 . S
C537 C540 1.463 . S
C537 C542 1.350 . S
C537 N545 1.427 . S
C538 H529 0.930 . S
C538 C536 1.378 . S
C538 C539 1.367 . S
C539 C538 1.367 . S
C539 C541 1.433 . S
C540 C536 1.350 . S
C540 C537 1.463 . S
C540 N544 1.427 . S
C541 H531 0.929 . S
C541 C539 1.433 . S
C541 N544 1.384 . S
C542 H533 0.929 . S
C542 C534 1.378 . S
C542 C537 1.350 . S
C543 H530 0.929 . S
C543 C535 1.433 . S
C543 N545 1.384 . S
N544 C540 1.427 . S
N544 C541 1.384 . S
N545 C537 1.427 . S
N545 C543 1.384 . S
H546 C552 0.930 . S
H547 C556 0.930 . S
H548 C561 0.929 . S
H549 C559 0.929 . S
H550 C554 0.929 . S
H551 C560 0.929 . S
C552 H546 0.930 . S
C552 C553 1.367 . S
C552 C560 1.378 . S
C553 C552 1.367 . S
C553 C561 1.433 . S
C554 H550 0.929 . S
C554 C556 1.378 . S
C554 C558 1.350 . S
C555 C558 1.463 1_455 S
C555 C560 1.350 . S
C555 N563 1.427 . S
C556 H547 0.930 . S
C556 C554 1.378 . S
C556 C557 1.367 . S
C557 C556 1.367 . S
C557 C559 1.433 . S
C558 C554 1.350 . S
C558 C555 1.463 1_655 S
C558 N562 1.427 . S
C559 H549 0.929 . S
C559 C557 1.433 . S
C559 N562 1.384 . S
C560 H551 0.929 . S
C560 C552 1.378 . S
C560 C555 1.350 . S
C561 H548 0.929 . S
C561 C553 1.433 . S
C561 N563 1.384 . S
N562 C558 1.427 . S
N562 C559 1.384 . S
N563 C555 1.427 . S
N563 C561 1.384 . S
H564 C570 0.930 . S
H565 C574 0.930 . S
H566 C579 0.929 . S
H567 C577 0.929 . S
H568 C572 0.929 1_545 S
H569 C578 0.929 1_565 S
C570 H564 0.930 . S
C570 C571 1.367 . S
C570 C578 1.378 . S
C571 C570 1.367 . S
C571 C579 1.433 . S
C572 H568 0.929 1_565 S
C572 C574 1.378 . S
C572 C576 1.350 . S
C573 C576 1.463 1_545 S
C573 C578 1.350 . S
C573 N581 1.427 . S
C574 H565 0.930 . S
C574 C572 1.378 . S
C574 C575 1.367 . S
C575 C574 1.367 . S
C575 C577 1.433 . S
C576 C572 1.350 . S
C576 C573 1.463 1_565 S
C576 N580 1.427 . S
C577 H567 0.929 . S
C577 C575 1.433 . S
C577 N580 1.384 . S
C578 H569 0.929 1_545 S
C578 C570 1.378 . S
C578 C573 1.350 . S
C579 H566 0.929 . S
C579 C571 1.433 . S
C579 N581 1.384 . S
N580 C576 1.427 . S
N580 C577 1.384 . S
N581 C573 1.427 . S
N581 C579 1.384 . S
H582 C588 0.930 . S
H583 C592 0.930 . S
H584 C597 0.929 . S
H585 C595 0.929 . S
H586 C590 0.929 . S
H587 C596 0.929 . S
C588 H582 0.930 . S
C588 C589 1.367 . S
C588 C596 1.378 . S
C589 C588 1.367 . S
C589 C597 1.433 . S
C590 H586 0.929 . S
C590 C592 1.378 . S
C590 C594 1.350 . S
C591 C594 1.463 . S
C591 C596 1.350 . S
C591 N599 1.427 . S
C592 H583 0.930 . S
C592 C590 1.378 . S
C592 C593 1.367 . S
C593 C592 1.367 . S
C593 C595 1.433 . S
C594 C590 1.350 . S
C594 C591 1.463 . S
C594 N598 1.427 . S
C595 H585 0.929 . S
C595 C593 1.433 . S
C595 N598 1.384 . S
C596 H587 0.929 . S
C596 C588 1.378 . S
C596 C591 1.350 . S
C597 H584 0.929 . S
C597 C589 1.433 . S
C597 N599 1.384 . S
N598 C594 1.427 . S
N598 C595 1.384 . S
N599 C591 1.427 . S
N599 C597 1.384 . S
C175 C9 2.062 . S
C179 C149 2.058 . S
C193 C163 2.056 . S
C197 C23 2.058 . S
C211 C37 2.056 . S
C215 C93 2.059 . S
C229 C51 2.063 . S
C233 C107 2.059 . S
C247 C65 2.066 . S
C251 C121 2.061 . S
C265 C135 2.058 . S
C269 C79 2.063 1_554 S
C283 C8 1.619 . S
C287 C120 1.625 . S
C301 C22 1.622 . S
C305 C134 1.623 . S
C319 C148 1.619 . S
C323 C36 1.622 . S
C337 C50 1.625 . S
C341 C162 1.619 . S
C355 C64 1.625 . S
C359 C92 1.619 . S
C373 C78 1.619 . S
C377 C106 1.621 1_556 S
C391 C147 0.802 . S
C395 C7 0.796 . S
C409 C21 0.796 . S
C413 C161 0.801 . S
C427 C35 0.788 . S
C431 C91 0.808 1_554 S
C445 C49 0.787 . S
C449 C105 0.810 . S
C463 C119 0.809 . S
C467 C63 0.787 . S
C481 C77 0.805 . S
C485 C133 0.791 . S
C499 C6 1.542 1_556 S
C503 C160 1.540 . S
C517 C90 1.538 . S
C521 C20 1.538 . S
C535 C104 1.538 . S
C539 C34 1.539 . S
C553 C118 1.539 . S
C557 C48 1.540 . S
C571 C132 1.539 . S
C575 C62 1.538 . S
C589 C146 1.542 . S
C593 C76 1.542 . S
