# Generated by pormake.
# Topology vbm, (6)-cn, num edge types: 1
# Building blocks:
#     Node 0, Type 0, BuildingBlock: KUMJIN_clean_sbu_1, # of connection points: 6
#     Node 1, Type 0, BuildingBlock: KUMJIN_clean_sbu_1, # of connection points: 6
#     Node 2, Type 0, BuildingBlock: KUMJIN_clean_sbu_1, # of connection points: 6
#     Node 3, Type 0, BuildingBlock: KUMJIN_clean_sbu_1, # of connection points: 6
#     Node 4, Type 0, BuildingBlock: KUMJIN_clean_sbu_1, # of connection points: 6
#     Node 5, Type 0, BuildingBlock: KUMJIN_clean_sbu_1, # of connection points: 6
#     Node 6, Type 0, BuildingBlock: KUMJIN_clean_sbu_1, # of connection points: 6
#     Node 7, Type 0, BuildingBlock: KUMJIN_clean_sbu_1, # of connection points: 6
#     Node 8, Type 0, BuildingBlock: KUMJIN_clean_sbu_1, # of connection points: 6
#     Node 9, Type 0, BuildingBlock: KUMJIN_clean_sbu_1, # of connection points: 6
#     Node 10, Type 0, BuildingBlock: KUMJIN_clean_sbu_1, # of connection points: 6
#     Node 11, Type 0, BuildingBlock: KUMJIN_clean_sbu_1, # of connection points: 6
#     Node 12, Type 0, BuildingBlock: KUMJIN_clean_sbu_1, # of connection points: 6
#     Node 13, Type 0, BuildingBlock: KUMJIN_clean_sbu_1, # of connection points: 6
#     Node 14, Type 0, BuildingBlock: KUMJIN_clean_sbu_1, # of connection points: 6
#     Node 15, Type 0, BuildingBlock: KUMJIN_clean_sbu_1, # of connection points: 6
#     Edge 16, Type (0, 0), BuildingBlock: XIVTED_clean_linker_0, # of connection points: 2
#     Edge 17, Type (0, 0), BuildingBlock: XIVTED_clean_linker_0, # of connection points: 2
#     Edge 18, Type (0, 0), BuildingBlock: XIVTED_clean_linker_0, # of connection points: 2
#     Edge 19, Type (0, 0), BuildingBlock: XIVTED_clean_linker_0, # of connection points: 2
#     Edge 20, Type (0, 0), BuildingBlock: XIVTED_clean_linker_0, # of connection points: 2
#     Edge 21, Type (0, 0), BuildingBlock: XIVTED_clean_linker_0, # of connection points: 2
#     Edge 22, Type (0, 0), BuildingBlock: XIVTED_clean_linker_0, # of connection points: 2
#     Edge 23, Type (0, 0), BuildingBlock: XIVTED_clean_linker_0, # of connection points: 2
#     Edge 24, Type (0, 0), BuildingBlock: XIVTED_clean_linker_0, # of connection points: 2
#     Edge 25, Type (0, 0), BuildingBlock: XIVTED_clean_linker_0, # of connection points: 2
#     Edge 26, Type (0, 0), BuildingBlock: XIVTED_clean_linker_0, # of connection points: 2
#     Edge 27, Type (0, 0), BuildingBlock: XIVTED_clean_linker_0, # of connection points: 2
#     Edge 28, Type (0, 0), BuildingBlock: XIVTED_clean_linker_0, # of connection points: 2
#     Edge 29, Type (0, 0), BuildingBlock: XIVTED_clean_linker_0, # of connection points: 2
#     Edge 30, Type (0, 0), BuildingBlock: XIVTED_clean_linker_0, # of connection points: 2
#     Edge 31, Type (0, 0), BuildingBlock: XIVTED_clean_linker_0, # of connection points: 2
#     Edge 32, Type (0, 0), BuildingBlock: XIVTED_clean_linker_0, # of connection points: 2
#     Edge 33, Type (0, 0), BuildingBlock: XIVTED_clean_linker_0, # of connection points: 2
#     Edge 34, Type (0, 0), BuildingBlock: XIVTED_clean_linker_0, # of connection points: 2
#     Edge 35, Type (0, 0), BuildingBlock: XIVTED_clean_linker_0, # of connection points: 2
#     Edge 36, Type (0, 0), BuildingBlock: XIVTED_clean_linker_0, # of connection points: 2
#     Edge 37, Type (0, 0), BuildingBlock: XIVTED_clean_linker_0, # of connection points: 2
#     Edge 38, Type (0, 0), BuildingBlock: XIVTED_clean_linker_0, # of connection points: 2
#     Edge 39, Type (0, 0), BuildingBlock: XIVTED_clean_linker_0, # of connection points: 2
#     Edge 40, Type (0, 0), BuildingBlock: XIVTED_clean_linker_0, # of connection points: 2
#     Edge 41, Type (0, 0), BuildingBlock: XIVTED_clean_linker_0, # of connection points: 2
#     Edge 42, Type (0, 0), BuildingBlock: XIVTED_clean_linker_0, # of connection points: 2
#     Edge 43, Type (0, 0), BuildingBlock: XIVTED_clean_linker_0, # of connection points: 2
#     Edge 44, Type (0, 0), BuildingBlock: XIVTED_clean_linker_0, # of connection points: 2
#     Edge 45, Type (0, 0), BuildingBlock: XIVTED_clean_linker_0, # of connection points: 2
#     Edge 46, Type (0, 0), BuildingBlock: XIVTED_clean_linker_0, # of connection points: 2
#     Edge 47, Type (0, 0), BuildingBlock: XIVTED_clean_linker_0, # of connection points: 2
#     Edge 48, Type (0, 0), BuildingBlock: XIVTED_clean_linker_0, # of connection points: 2
#     Edge 49, Type (0, 0), BuildingBlock: XIVTED_clean_linker_0, # of connection points: 2
#     Edge 50, Type (0, 0), BuildingBlock: XIVTED_clean_linker_0, # of connection points: 2
#     Edge 51, Type (0, 0), BuildingBlock: XIVTED_clean_linker_0, # of connection points: 2
#     Edge 52, Type (0, 0), BuildingBlock: XIVTED_clean_linker_0, # of connection points: 2
#     Edge 53, Type (0, 0), BuildingBlock: XIVTED_clean_linker_0, # of connection points: 2
#     Edge 54, Type (0, 0), BuildingBlock: XIVTED_clean_linker_0, # of connection points: 2
#     Edge 55, Type (0, 0), BuildingBlock: XIVTED_clean_linker_0, # of connection points: 2
#     Edge 56, Type (0, 0), BuildingBlock: XIVTED_clean_linker_0, # of connection points: 2
#     Edge 57, Type (0, 0), BuildingBlock: XIVTED_clean_linker_0, # of connection points: 2
#     Edge 58, Type (0, 0), BuildingBlock: XIVTED_clean_linker_0, # of connection points: 2
#     Edge 59, Type (0, 0), BuildingBlock: XIVTED_clean_linker_0, # of connection points: 2
#     Edge 60, Type (0, 0), BuildingBlock: XIVTED_clean_linker_0, # of connection points: 2
#     Edge 61, Type (0, 0), BuildingBlock: XIVTED_clean_linker_0, # of connection points: 2
#     Edge 62, Type (0, 0), BuildingBlock: XIVTED_clean_linker_0, # of connection points: 2
#     Edge 63, Type (0, 0), BuildingBlock: XIVTED_clean_linker_0, # of connection points: 2
# Relax obj value: 0.078
# Max RMSD: 0.142
# Mean RMSD: 0.142
data_MOF--net-vbm--node1-KUMJIN_clean_sbu_1--edge1-XIVTED_clean_linker_0
_symmetry_space_group_name_H-M    P1
_symmetry_Int_Tables_number       1
_symmetry_cell_setting            triclinic
loop_
_symmetry_equiv_pos_as_xyz
'x, y, z'
_cell_length_a     54.56631
_cell_length_b     24.967333
_cell_length_c     58.175718
_cell_angle_alpha  89.865266
_cell_angle_beta   90.034529
_cell_angle_gamma 90.023481
loop_
_atom_site_label
_atom_site_type_symbol
_atom_site_fract_x
_atom_site_fract_y
_atom_site_fract_z
_atom_type_partial_charge
Eu0 Eu 0.11911 0.18835 0.13796 0.0
C1 C 0.19879 0.06675 0.09106 0.0
N2 N 0.1744 0.06115 0.08688 0.0
C3 C 0.18158 0.07187 0.04643 0.0
C4 C 0.21539 0.078 0.0731 0.0
C5 C 0.16594 0.05999 0.06479 0.0
C6 C 0.20633 0.08203 0.05065 0.0
C7 C 0.23272 0.06019 0.11796 0.0
C8 C 0.20742 0.0578 0.11315 0.0
C9 C 0.24917 0.07399 0.10036 0.0
C10 C 0.24052 0.08295 0.07798 0.0
Eu11 Eu 0.14917 0.04614 0.11952 0.0
N12 N 0.19102 0.04575 0.12992 0.0
C13 C 0.24072 0.04778 0.14023 0.0
C14 C 0.19873 0.03075 0.15133 0.0
C15 C 0.22367 0.03221 0.15689 0.0
H16 H 0.1472 0.04918 0.06118 0.0
H17 H 0.22971 0.02161 0.17403 0.0
H18 H 0.09509 0.16958 0.18982 0.0
H19 H 0.07496 0.276 0.06196 0.0
H20 H 0.18546 0.01917 0.16421 0.0
H21 H 0.26001 0.04915 0.14461 0.0
H22 H 0.10955 0.25402 0.08751 0.0
H23 H 0.17459 0.07237 0.02902 0.0
H24 H 0.26866 0.07671 0.10377 0.0
H25 H 0.25349 0.09218 0.06445 0.0
H26 H 0.05417 0.16463 0.20823 0.0
H27 H 0.21846 0.09065 0.03638 0.0
H28 H 0.03242 0.25822 0.07458 0.0
N29 N 0.08075 0.18498 0.15657 0.0
C30 C 0.06062 0.19555 0.14368 0.0
C31 C 0.05571 0.17298 0.19002 0.0
C32 C 0.03694 0.19283 0.15329 0.0
C33 C 0.0788 0.17573 0.17962 0.0
C34 C 0.03465 0.18073 0.17672 0.0
N35 N 0.08714 0.21814 0.11325 0.0
C36 C 0.09119 0.24365 0.0928 0.0
C37 C 0.04348 0.22565 0.10752 0.0
C38 C 0.06391 0.21178 0.12117 0.0
C39 C 0.0476 0.2471 0.08562 0.0
C40 C 0.07158 0.25715 0.07843 0.0
H41 H 0.01678 0.17839 0.18478 0.0
H42 H 0.99808 0.20089 0.14634 0.0
H43 H 1.0038 0.22963 0.10619 0.0
O44 O 0.1146 0.27544 0.14062 0.0
O45 O 0.09745 0.11162 0.14426 0.0
O46 O 0.10799 0.0566 0.11422 0.0
O47 O 0.13828 0.23396 0.16437 0.0
O48 O 0.13161 0.17633 0.10069 0.0
O49 O 0.12464 0.08714 0.09316 0.0
O50 O 0.14551 0.96907 0.13702 0.0
O51 O 0.17093 0.11441 0.13625 0.0
O52 O 0.15453 0.18613 0.11821 0.0
O53 O 0.15343 0.9706 0.10085 0.0
O54 O 0.13581 0.04938 0.15604 0.0
O55 O 0.1358 0.13871 0.16759 0.0
C56 C 0.09173 0.07512 0.12893 0.0
C57 C 0.15006 0.32206 0.15322 0.0
C58 C 0.16105 0.41562 0.14522 0.0
C59 C 0.18597 0.40159 0.14702 0.0
C60 C 0.1751 0.30946 0.15503 0.0
C61 C 0.19286 0.34894 0.15183 0.0
C62 C 0.14318 0.37528 0.14833 0.0
C63 C 0.12517 0.13761 0.08656 0.0
C64 C 0.13103 0.28039 0.15668 0.0
C65 C 0.01646 0.20358 0.13939 0.0
C66 C 0.01972 0.21984 0.11652 0.0
C67 C 0.17361 0.16169 0.12671 0.0
C68 C 0.12994 0.89817 0.11498 0.0
C69 C 0.11873 0.80335 0.1166 0.0
C70 C 0.09462 0.81725 0.11036 0.0
C71 C 0.10583 0.91105 0.10872 0.0
C72 C 0.13635 0.84436 0.11882 0.0
C73 C 0.08829 0.87071 0.10642 0.0
C74 C 0.13717 0.08656 0.17197 0.0
C75 C 0.14822 0.9407 0.11851 0.0
H76 H 0.20022 0.43149 0.14518 0.0
H77 H 0.18102 0.26917 0.15905 0.0
H78 H 0.21209 0.3388 0.1533 0.0
H79 H 0.12389 0.38502 0.14678 0.0
H80 H 0.0807 0.78671 0.10827 0.0
H81 H 0.10057 0.95226 0.10575 0.0
H82 H 0.15492 0.83463 0.124 0.0
H83 H 0.0697 0.88093 0.1016 0.0
Eu84 Eu 0.89053 0.83219 0.13427 0.0
C85 C 0.80116 0.96259 0.11248 0.0
N86 N 0.82163 0.95935 0.09928 0.0
C87 C 0.79726 0.94007 0.06606 0.0
C88 C 0.77783 0.95219 0.10308 0.0
C89 C 0.82004 0.95022 0.0762 0.0
C90 C 0.77609 0.94042 0.0796 0.0
C91 C 0.78279 0.98052 0.14958 0.0
C92 C 0.8037 0.97624 0.13545 0.0
C93 C 0.75956 0.96825 0.14054 0.0
C94 C 0.75709 0.9542 0.11734 0.0
Eu95 Eu 0.85948 0.97433 0.11781 0.0
N96 N 0.82643 0.98781 0.14369 0.0
C97 C 0.78576 0.99855 0.17216 0.0
C98 C 0.82905 1.01005 0.16495 0.0
C99 C 0.80894 0.01444 0.17971 0.0
H100 H 0.83647 0.94958 0.06583 0.0
H101 H 0.81127 0.03091 0.19677 0.0
H102 H 0.89017 0.82357 0.19243 0.0
H103 H 0.96826 0.79808 0.07735 0.0
H104 H 0.84649 0.02563 0.17043 0.0
H105 H 0.77017 1.00242 0.18356 0.0
H106 H 0.92437 0.80285 0.08828 0.0
H107 H 0.79605 0.93173 0.04784 0.0
H108 H 0.74335 0.97068 0.15123 0.0
H109 H 0.73901 0.94576 0.11052 0.0
H110 H 0.91923 0.83478 0.22455 0.0
H111 H 0.7585 0.93221 0.07172 0.0
H112 H 1.00034 0.81625 0.10643 0.0
N113 N 0.91718 0.83511 0.16653 0.0
C114 C 0.94154 0.83758 0.16188 0.0
C115 C 0.92573 0.8365 0.20699 0.0
C116 C 0.95896 0.84218 0.17969 0.0
C117 C 0.90924 0.83118 0.18872 0.0
C118 C 0.95068 0.84313 0.20245 0.0
N119 N 0.93191 0.82444 0.12286 0.0
C120 C 0.93839 0.81046 0.10101 0.0
C121 C 0.97433 0.82923 0.13398 0.0
C122 C 0.94917 0.83119 0.13938 0.0
C123 C 0.98119 0.81816 0.11128 0.0
C124 C 0.96313 0.80782 0.09481 0.0
H125 H 0.96345 0.84663 0.21663 0.0
H126 H 0.9977 0.84763 0.1877 0.0
H127 H 0.01116 0.83632 0.14762 0.0
O128 O 0.8778 0.76106 0.11613 0.0
O129 O 0.91372 0.89734 0.11754 0.0
O130 O 0.89858 0.97619 0.13179 0.0
O131 O 0.89515 0.75216 0.14917 0.0
O132 O 0.87906 0.84291 0.09658 0.0
O133 O 0.88015 0.93458 0.08901 0.0
O134 O 0.85182 0.06019 0.1204 0.0
O135 O 0.84055 0.89363 0.11238 0.0
O136 O 0.85146 0.84911 0.1447 0.0
O137 O 0.8685 0.02878 0.08969 0.0
O138 O 0.87729 0.9678 0.15285 0.0
O139 O 0.87153 0.87937 0.16303 0.0
C140 C 0.91705 0.94632 0.12498 0.0
C141 C 0.86558 0.68755 0.13869 0.0
C142 C 0.85273 0.59389 0.1395 0.0
C143 C 0.82988 0.60981 0.14832 0.0
C144 C 0.84293 0.7026 0.14797 0.0
C145 C 0.8251 0.66389 0.15261 0.0
C146 C 0.87047 0.63328 0.13462 0.0
C147 C 0.88111 0.8842 0.0824 0.0
C148 C 0.88398 0.72794 0.13241 0.0
C149 C 0.98406 0.84344 0.17428 0.0
C150 C 0.99174 0.8369 0.15146 0.0
C151 C 0.835 0.86079 0.12918 0.0
C152 C 0.88187 0.11364 0.10256 0.0
C153 C 0.89302 0.20734 0.10897 0.0
C154 C 0.91789 0.19324 0.10669 0.0
C155 C 0.90683 0.1005 0.10069 0.0
C156 C 0.87508 0.16701 0.10676 0.0
C157 C 0.92468 0.14021 0.10266 0.0
C158 C 0.87519 0.93003 0.16851 0.0
C159 C 0.8629 0.07167 0.10123 0.0
H160 H 0.8159 0.58041 0.15231 0.0
H161 H 0.83911 0.74418 0.15153 0.0
H162 H 0.80756 0.67581 0.15962 0.0
H163 H 0.88798 0.62183 0.12731 0.0
H164 H 0.93217 0.22325 0.10786 0.0
H165 H 0.91258 0.05955 0.09779 0.0
H166 H 0.85584 0.17671 0.10883 0.0
H167 H 0.94387 0.12981 0.1011 0.0
Eu168 Eu 0.12321 0.84484 0.36768 0.0
C169 C 0.21054 0.98044 0.39151 0.0
N170 N 0.19013 0.97382 0.40456 0.0
C171 C 0.21478 0.9537 0.43755 0.0
C172 C 0.23402 0.97147 0.40083 0.0
C173 C 0.19185 0.96273 0.42749 0.0
C174 C 0.23594 0.95738 0.42409 0.0
C175 C 0.22865 1.0053 0.355 0.0
C176 C 0.20779 0.99685 0.36886 0.0
C177 C 0.25208 0.99445 0.36392 0.0
C178 C 0.25476 0.97761 0.38679 0.0
Eu179 Eu 0.15211 0.98771 0.38626 0.0
N180 N 0.18488 1.0074 0.36079 0.0
C181 C 0.2254 0.02607 0.33285 0.0
C182 C 0.18187 0.03196 0.34 0.0
C183 C 0.20194 0.04041 0.32549 0.0
H184 H 0.17543 0.95966 0.43781 0.0
H185 H 0.19934 0.05881 0.3088 0.0
H186 H 0.124 0.83995 0.30944 0.0
H187 H 0.04543 0.8035 0.42382 0.0
H188 H 0.16413 0.04625 0.33468 0.0
H189 H 0.24094 0.03316 0.32166 0.0
H190 H 0.08933 0.8105 0.41321 0.0
H191 H 0.21611 0.94373 0.45562 0.0
H192 H 0.26829 1.00024 0.35345 0.0
H193 H 0.27297 0.97042 0.39356 0.0
H194 H 0.09501 0.85259 0.27732 0.0
H195 H 0.25367 0.95017 0.4319 0.0
H196 H 0.01342 0.8227 0.39476 0.0
N197 N 0.0968 0.84894 0.33532 0.0
C198 C 0.07239 0.85018 0.3399 0.0
C199 C 0.08842 0.85285 0.29486 0.0
C200 C 0.05503 0.85557 0.32207 0.0
C201 C 0.10486 0.84671 0.31313 0.0
C202 C 0.06342 0.85846 0.29937 0.0
N203 N 0.08188 0.83442 0.37885 0.0
C204 C 0.07536 0.81861 0.40049 0.0
C205 C 0.03951 0.83856 0.36752 0.0
C206 C 0.06468 0.84177 0.36229 0.0
C207 C 0.03258 0.8256 0.39004 0.0
C208 C 0.0506 0.81469 0.4065 0.0
H209 H 0.05069 0.86263 0.28518 0.0
H210 H 0.01631 0.86048 0.31394 0.0
H211 H 1.00271 0.84565 0.35379 0.0
O212 O 0.13873 0.77304 0.38371 0.0
O213 O 0.09961 0.90753 0.38535 0.0
O214 O 0.11321 0.98826 0.37169 0.0
O215 O 0.11769 0.76568 0.35258 0.0
O216 O 0.13388 0.8524 0.4058 0.0
O217 O 0.13226 0.94347 0.41454 0.0
O218 O 0.15864 0.07511 0.38595 0.0
O219 O 0.17233 0.90782 0.39075 0.0
O220 O 0.16196 0.86576 0.35778 0.0
O221 O 0.1404 0.03692 0.41512 0.0
O222 O 0.13493 0.98328 0.35079 0.0
O223 O 0.14145 0.89584 0.33942 0.0
C224 C 0.09524 0.95594 0.37766 0.0
C225 C 0.14829 0.70076 0.35919 0.0
C226 C 0.1619 0.60732 0.35744 0.0
C227 C 0.18063 0.6231 0.34218 0.0
C228 C 0.16699 0.71544 0.34395 0.0
C229 C 0.18316 0.67675 0.33562 0.0
C230 C 0.14592 0.647 0.36601 0.0
C231 C 0.13169 0.89252 0.4205 0.0
C232 C 0.13082 0.74072 0.36786 0.0
C233 C 0.0299 0.85566 0.32737 0.0
C234 C 0.02215 0.84709 0.35006 0.0
C235 C 0.17803 0.87528 0.3739 0.0
C236 C 0.14604 0.13327 0.41784 0.0
C237 C 0.14504 0.23128 0.41732 0.0
C238 C 0.13837 0.23084 0.44065 0.0
C239 C 0.13946 0.1341 0.44119 0.0
C240 C 0.14921 0.18221 0.40601 0.0
C241 C 0.13578 0.18259 0.45249 0.0
C242 C 0.13745 0.94691 0.33462 0.0
C243 C 0.14837 0.08118 0.40595 0.0
H244 H 0.19309 0.59396 0.33493 0.0
H245 H 0.16891 0.75664 0.33839 0.0
H246 H 0.19757 0.68828 0.32381 0.0
H247 H 0.13163 0.63638 0.37812 0.0
H248 H 0.13528 0.268 0.44978 0.0
H249 H 0.137 0.09718 0.45073 0.0
H250 H 0.15406 0.18216 0.38794 0.0
H251 H 0.1307 0.18275 0.47047 0.0
Eu252 Eu 0.88995 0.17884 0.35936 0.0
C253 C 0.81031 0.04468 0.41066 0.0
N254 N 0.83476 0.04571 0.4153 0.0
C255 C 0.82659 0.05158 0.45566 0.0
C256 C 0.79297 0.04777 0.42856 0.0
C257 C 0.84312 0.0484 0.43735 0.0
C258 C 0.80142 0.05139 0.45125 0.0
C259 C 0.77737 0.04129 0.38255 0.0
C260 C 0.8026 0.0416 0.38783 0.0
C261 C 0.76008 0.04424 0.40037 0.0
C262 C 0.76785 0.04749 0.42329 0.0
Eu263 Eu 0.86109 0.04072 0.38331 0.0
N264 N 0.81978 0.04018 0.37083 0.0
C265 C 0.77026 0.03814 0.35948 0.0
C266 C 0.81293 0.03528 0.34839 0.0
C267 C 0.78812 0.03474 0.34236 0.0
H268 H 0.86254 0.04725 0.44085 0.0
H269 H 0.78277 0.03137 0.3245 0.0
H270 H 0.90588 0.16043 0.30461 0.0
H271 H 0.94754 0.24355 0.43171 0.0
H272 H 0.82641 0.03119 0.33505 0.0
H273 H 0.75106 0.0378 0.35471 0.0
H274 H 0.90906 0.23151 0.41056 0.0
H275 H 0.83328 0.05392 0.47315 0.0
H276 H 0.74063 0.04412 0.39661 0.0
H277 H 0.75426 0.04988 0.43682 0.0
H278 H 0.94353 0.15309 0.28118 0.0
H279 H 0.78867 0.05388 0.46548 0.0
H280 H 0.98711 0.22444 0.41275 0.0
N281 N 0.92502 0.17338 0.33579 0.0
C282 C 0.94708 0.18037 0.34621 0.0
C283 C 0.9448 0.16054 0.29946 0.0
C284 C 0.96906 0.17664 0.33355 0.0
C285 C 0.92352 0.16441 0.31273 0.0
C286 C 0.96768 0.16636 0.30994 0.0
N287 N 0.92601 0.19689 0.38109 0.0
C288 C 0.92591 0.21899 0.40257 0.0
C289 C 0.97024 0.20056 0.38067 0.0
C290 C 0.9476 0.19157 0.36957 0.0
C291 C 0.97012 0.21707 0.40362 0.0
C292 C 0.94784 0.2276 0.41442 0.0
H293 H 0.98415 0.16317 0.29963 0.0
H294 H 0.00869 0.17974 0.33545 0.0
H295 H 0.00974 0.20113 0.37667 0.0
O296 O 0.88048 0.26074 0.36931 0.0
O297 O 0.91222 0.10236 0.35456 0.0
O298 O 0.90256 0.05084 0.38609 0.0
O299 O 0.88994 0.24381 0.33413 0.0
O300 O 0.87837 0.17129 0.39725 0.0
O301 O 0.88736 0.08387 0.4064 0.0
O302 O 0.86244 0.9607 0.36821 0.0
O303 O 0.83867 0.11807 0.38606 0.0
O304 O 0.84979 0.1623 0.35343 0.0
O305 O 0.86281 0.96945 0.40514 0.0
O306 O 0.87057 0.04278 0.34541 0.0
O307 O 0.87012 0.13061 0.33182 0.0
C308 C 0.9182 0.06678 0.37023 0.0
C309 C 0.90082 0.32893 0.34877 0.0
C310 C 0.90528 0.4255 0.35433 0.0
C311 C 0.93033 0.42095 0.34889 0.0
C312 C 0.92584 0.32539 0.34343 0.0
C313 C 0.94047 0.37121 0.34351 0.0
C314 C 0.89064 0.37899 0.35422 0.0
C315 C 0.88495 0.13423 0.41222 0.0
C316 C 0.88518 0.28085 0.34915 0.0
C317 C 0.99161 0.1831 0.34482 0.0
C318 C 0.9922 0.19498 0.36833 0.0
C319 C 0.83421 0.15405 0.3701 0.0
C320 C 0.84546 0.89009 0.39004 0.0
C321 C 0.83897 0.79341 0.38755 0.0
C322 C 0.81419 0.80121 0.39333 0.0
C323 C 0.82074 0.89696 0.39586 0.0
C324 C 0.85448 0.83838 0.3859 0.0
C325 C 0.80521 0.85268 0.39746 0.0
C326 C 0.86966 0.07816 0.32859 0.0
C327 C 0.86215 0.93612 0.38799 0.0
H328 H 0.94205 0.45595 0.34847 0.0
H329 H 0.93409 0.28738 0.33913 0.0
H330 H 0.95974 0.3682 0.33929 0.0
H331 H 0.87138 0.38146 0.35868 0.0
H332 H 0.80184 0.76747 0.395 0.0
H333 H 0.81346 0.93633 0.3992 0.0
H334 H 0.87354 0.83333 0.38111 0.0
H335 H 0.78614 0.85826 0.40201 0.0
Eu336 Eu 0.85598 0.97899 0.87948 0.0
C337 C 0.93204 0.82606 0.82804 0.0
N338 N 0.90745 0.83196 0.8254 0.0
C339 C 0.91206 0.82983 0.7844 0.0
C340 C 0.94776 0.82374 0.80882 0.0
C341 C 0.89723 0.83064 0.80399 0.0
C342 C 0.93749 0.82734 0.78682 0.0
C343 C 0.96632 0.80613 0.85323 0.0
C344 C 0.94127 0.81779 0.84993 0.0
C345 C 0.98224 0.80647 0.83427 0.0
C346 C 0.973 0.81551 0.81212 0.0
Eu347 Eu 0.88407 0.8364 0.85969 0.0
N348 N 0.92548 0.81812 0.86792 0.0
C349 C 0.97443 0.79295 0.87539 0.0
C350 C 0.93294 0.80277 0.88935 0.0
C351 C 0.95758 0.79052 0.89347 0.0
H352 H 0.87759 0.82933 0.80195 0.0
H353 H 0.96356 0.7793 0.91056 0.0
H354 H 0.83611 0.94937 0.93216 0.0
H355 H 0.8034 0.03686 0.80294 0.0
H356 H 0.91987 0.80061 0.90327 0.0
H357 H 0.9935 0.78352 0.87862 0.0
H358 H 0.8401 0.03079 0.82738 0.0
H359 H 0.90384 0.83009 0.76746 0.0
H360 H 1.00161 0.79837 0.83649 0.0
H361 H 0.98538 0.81411 0.79757 0.0
H362 H 0.79673 0.93048 0.95192 0.0
H363 H 0.94893 0.8258 0.77162 0.0
H364 H 0.76311 1.00847 0.81819 0.0
N365 N 0.81935 0.96188 0.89965 0.0
C366 C 0.79815 0.96629 0.88751 0.0
C367 C 0.79691 0.94022 0.93379 0.0
C368 C 0.77539 0.95528 0.89794 0.0
C369 C 0.81909 0.95094 0.92264 0.0
C370 C 0.77499 0.94181 0.92133 0.0
N371 N 0.82164 0.99253 0.85509 0.0
C372 C 0.82302 0.01513 0.83375 0.0
C373 C 0.77769 0.98572 0.85144 0.0
C374 C 0.79939 0.98101 0.86449 0.0
C375 C 0.77935 1.00426 0.82878 0.0
C376 C 0.80207 0.02005 0.82006 0.0
H377 H 0.75786 0.93307 0.92997 0.0
H378 H 0.7362 0.9492 0.89237 0.0
H379 H 0.73823 0.97591 0.85167 0.0
O380 O 0.84826 0.0649 0.87712 0.0
O381 O 0.83728 0.89781 0.8846 0.0
O382 O 0.84513 0.85779 0.85071 0.0
O383 O 0.86428 0.03256 0.90803 0.0
O384 O 0.87266 0.9763 0.84393 0.0
O385 O 0.8654 0.88934 0.83254 0.0
O386 O 0.86894 0.76851 0.8787 0.0
O387 O 0.91134 0.89775 0.8737 0.0
O388 O 0.89506 0.98129 0.86547 0.0
O389 O 0.88526 0.75537 0.84542 0.0
O390 O 0.87665 0.84741 0.8982 0.0
O391 O 0.8794 0.93856 0.90612 0.0
C392 C 0.8299 0.8681 0.86739 0.0
C393 C 0.87671 0.11956 0.89654 0.0
C394 C 0.88643 0.2144 0.89075 0.0
C395 C 0.91129 0.20272 0.89494 0.0
C396 C 0.90165 0.10896 0.90045 0.0
C397 C 0.91878 0.1504 0.89969 0.0
C398 C 0.86921 0.1723 0.8917 0.0
C399 C 0.87026 0.93997 0.82778 0.0
C400 C 0.8585 0.07584 0.89673 0.0
C401 C 0.75386 0.95806 0.88474 0.0
C402 C 0.75502 0.97315 0.86155 0.0
C403 C 0.91387 0.94949 0.8697 0.0
C404 C 0.85535 0.69309 0.85782 0.0
C405 C 0.84271 0.59915 0.85826 0.0
C406 C 0.81954 0.61456 0.84994 0.0
C407 C 0.83242 0.70752 0.84897 0.0
C408 C 0.86045 0.63902 0.86234 0.0
C409 C 0.8145 0.66845 0.84527 0.0
C410 C 0.88061 0.88794 0.91231 0.0
C411 C 0.87413 0.73359 0.86285 0.0
H412 H 0.92499 0.2341 0.89476 0.0
H413 H 0.90796 0.06864 0.90399 0.0
H414 H 0.93796 0.14191 0.90276 0.0
H415 H 0.85003 0.18019 0.88821 0.0
H416 H 0.80552 0.5849 0.84655 0.0
H417 H 0.82851 0.74884 0.84492 0.0
H418 H 0.87823 0.6281 0.86926 0.0
H419 H 0.79673 0.6799 0.83859 0.0
Eu420 Eu 0.14289 0.0587 0.88028 0.0
C421 C 0.06707 0.21324 0.83487 0.0
N422 N 0.09144 0.20731 0.8307 0.0
C423 C 0.08366 0.20687 0.79007 0.0
C424 C 0.04992 0.21411 0.81671 0.0
C425 C 0.09998 0.20744 0.80861 0.0
C426 C 0.05849 0.20923 0.79415 0.0
C427 C 0.03458 0.23368 0.86199 0.0
C428 C 0.0594 0.22255 0.85724 0.0
C429 C 0.01731 0.23204 0.8441 0.0
C430 C 0.02495 0.22203 0.82152 0.0
Eu431 Eu 0.11716 0.20503 0.86363 0.0
N432 N 0.0764 0.22298 0.87427 0.0
C433 C 0.02797 0.24727 0.88451 0.0
C434 C 0.07037 0.23853 0.89602 0.0
C435 C 0.04602 0.25039 0.90153 0.0
H436 H 0.1194 0.2085 0.8051 0.0
H437 H 0.04117 0.26182 0.91888 0.0
H438 H 0.16723 0.08073 0.93186 0.0
H439 H 0.18733 0.98333 0.80227 0.0
H440 H 0.08438 0.24115 0.90912 0.0
H441 H 0.00911 0.25629 0.88883 0.0
H442 H 0.15266 1.00076 0.82821 0.0
H443 H 0.09054 0.20551 0.77264 0.0
H444 H 0.9981 0.2397 0.84746 0.0
H445 H 0.01151 0.2223 0.8078 0.0
H446 H 0.20843 0.08881 0.94964 0.0
H447 H 0.04591 0.20958 0.77973 0.0
H448 H 0.22969 1.00227 0.81503 0.0
N449 N 0.18131 0.06682 0.89839 0.0
C450 C 0.20137 0.05763 0.88517 0.0
C451 C 0.20669 0.08043 0.93147 0.0
C452 C 0.22513 0.0622 0.89446 0.0
C453 C 0.18348 0.07585 0.92144 0.0
C454 C 0.22761 0.07437 0.91786 0.0
N455 N 0.17476 0.03531 0.85448 0.0
C456 C 0.17088 1.01181 0.83362 0.0
C457 C 0.21846 0.0311 0.84849 0.0
C458 C 0.19799 0.04236 0.86246 0.0
C459 C 0.21446 1.01139 0.8263 0.0
C460 C 0.19058 1.00074 0.81902 0.0
H461 H 0.24557 0.07812 0.92565 0.0
H462 H 0.26397 0.05731 0.88703 0.0
H463 H 0.25815 0.03004 0.84678 0.0
O464 O 0.14703 0.97054 0.87975 0.0
O465 O 0.16505 0.13585 0.88598 0.0
O466 O 0.15566 0.18207 0.8537 0.0
O467 O 0.13034 1.01064 0.90918 0.0
O468 O 0.12614 0.06755 0.84472 0.0
O469 O 0.13567 0.15499 0.83553 0.0
O470 O 0.13368 0.27402 0.88091 0.0
O471 O 0.09018 0.1438 0.87844 0.0
O472 O 0.10438 0.06272 0.86527 0.0
O473 O 0.11405 0.28537 0.84909 0.0
O474 O 0.12701 0.19253 0.9017 0.0
O475 O 0.12213 0.10136 0.90815 0.0
C476 C 0.17153 0.16926 0.8696 0.0
C477 C 0.13336 0.91391 0.91193 0.0
C478 C 0.13324 0.81599 0.91231 0.0
C479 C 0.12385 0.81694 0.93479 0.0
C480 C 0.12408 0.91367 0.93447 0.0
C481 C 0.11946 0.86548 0.9458 0.0
C482 C 0.13824 0.86475 0.90098 0.0
C483 C 0.12992 0.10569 0.82951 0.0
C484 C 0.13703 0.96559 0.89995 0.0
C485 C 0.24555 0.05343 0.88029 0.0
C486 C 0.24222 0.038 0.85735 0.0
C487 C 0.08628 0.09418 0.87172 0.0
C488 C 0.14525 0.34744 0.85752 0.0
C489 C 0.15919 0.44052 0.85646 0.0
C490 C 0.1787 0.42491 0.84212 0.0
C491 C 0.16441 0.33292 0.84283 0.0
C492 C 0.14278 0.40095 0.86438 0.0
C493 C 0.18126 0.37141 0.83543 0.0
C494 C 0.12326 0.15104 0.91544 0.0
C495 C 0.12696 0.30804 0.86513 0.0
H496 H 0.12004 0.77997 0.94391 0.0
H497 H 0.12023 0.9508 0.94337 0.0
H498 H 0.11229 0.86576 0.96315 0.0
H499 H 0.14523 0.8643 0.88354 0.0
H500 H 0.19158 0.45416 0.83554 0.0
H501 H 0.16605 0.2921 0.83689 0.0
H502 H 0.12791 0.41167 0.87582 0.0
H503 H 0.1961 0.35994 0.82412 0.0
Eu504 Eu 0.86174 0.04024 0.61433 0.0
C505 C 0.94704 0.1902 0.6422 0.0
N506 N 0.92592 0.18248 0.65404 0.0
C507 C 0.94857 0.1696 0.68892 0.0
C508 C 0.96999 0.18577 0.65318 0.0
C509 C 0.92626 0.174 0.6772 0.0
C510 C 0.97055 0.17482 0.6768 0.0
C511 C 0.9671 0.21359 0.60647 0.0
C512 C 0.94556 0.20363 0.61917 0.0
C513 C 0.99008 0.2068 0.617 0.0
C514 C 0.99152 0.19296 0.64033 0.0
Eu515 Eu 0.88897 0.18645 0.63296 0.0
N516 N 0.92305 0.21016 0.60958 0.0
C517 C 0.96488 0.23187 0.58381 0.0
C518 C 0.92087 0.23267 0.58825 0.0
C519 C 0.94165 0.24253 0.57484 0.0
H520 H 0.90928 0.1697 0.68649 0.0
H521 H 0.93975 0.25896 0.5577 0.0
H522 H 0.86749 0.04007 0.55622 0.0
H523 H 0.7784 1.00561 0.66381 0.0
H524 H 0.90311 0.2435 0.58151 0.0
H525 H 0.98097 0.23998 0.57346 0.0
H526 H 0.82321 1.00902 0.65676 0.0
H527 H 0.94879 0.16194 0.70723 0.0
H528 H 0.00683 0.21358 0.60743 0.0
H529 H 0.00935 0.18898 0.64836 0.0
H530 H 0.84181 0.05832 0.52225 0.0
H531 H 0.98782 0.17113 0.68588 0.0
H532 H 0.74954 0.02948 0.63257 0.0
N533 N 0.83845 0.05112 0.58015 0.0
C534 C 0.81375 0.05451 0.58286 0.0
C535 C 0.83372 0.05829 0.53923 0.0
C536 C 0.79814 0.06263 0.56382 0.0
C537 C 0.84834 0.04921 0.55861 0.0
C538 C 0.80855 0.06615 0.54189 0.0
N539 N 0.81935 0.03564 0.62227 0.0
C540 C 0.81059 0.01931 0.64314 0.0
C541 C 0.77828 0.04452 0.6077 0.0
C542 C 0.80387 0.04559 0.60449 0.0
C543 C 0.7691 0.03093 0.62943 0.0
C544 C 0.78533 0.01738 0.64712 0.0
H545 H 0.79721 0.07241 0.52682 0.0
H546 H 0.7604 0.07141 0.55276 0.0
H547 H 0.74302 0.0555 0.59119 0.0
O548 O 0.86929 0.96457 0.63222 0.0
O549 O 0.83718 0.10543 0.63 0.0
O550 O 0.85385 0.17825 0.61296 0.0
O551 O 0.85936 0.96338 0.5965 0.0
O552 O 0.87178 0.04866 0.65169 0.0
O553 O 0.87052 0.13901 0.66225 0.0
O554 O 0.89273 0.27357 0.63119 0.0
O555 O 0.90993 0.10991 0.64108 0.0
O556 O 0.90286 0.05487 0.61029 0.0
O557 O 0.86966 0.2383 0.65725 0.0
O558 O 0.87717 0.17223 0.59572 0.0
O559 O 0.88646 0.08374 0.58897 0.0
C560 C 0.83488 0.15427 0.62192 0.0
C561 C 0.84706 0.88932 0.61918 0.0
C562 C 0.84045 0.79684 0.63182 0.0
C563 C 0.81506 0.80432 0.62919 0.0
C564 C 0.82167 0.89529 0.61621 0.0
C565 C 0.80581 0.85311 0.62131 0.0
C566 C 0.85642 0.8397 0.62674 0.0
C567 C 0.86918 0.08698 0.66705 0.0
C568 C 0.86379 0.93466 0.6147 0.0
C569 C 0.77265 0.06463 0.56714 0.0
C570 C 0.76274 0.05548 0.58902 0.0
C571 C 0.91777 0.07568 0.6257 0.0
C572 C 0.8864 0.32483 0.66472 0.0
C573 C 0.88852 0.42036 0.67392 0.0
C574 C 0.89953 0.40725 0.69506 0.0
C575 C 0.89752 0.31264 0.68583 0.0
C576 C 0.88214 0.37869 0.65877 0.0
C577 C 0.90409 0.35378 0.70087 0.0
C578 C 0.8848 0.13378 0.58203 0.0
C579 C 0.8786 0.28249 0.64871 0.0
H580 H 0.80238 0.77199 0.63282 0.0
H581 H 0.81407 0.93243 0.60986 0.0
H582 H 0.78625 0.8582 0.61907 0.0
H583 H 0.87602 0.83469 0.62894 0.0
H584 H 0.90479 0.4384 0.70702 0.0
H585 H 0.90095 0.2715 0.69074 0.0
H586 H 0.87332 0.38804 0.64254 0.0
H587 H 0.91265 0.34419 0.71715 0.0
Eu588 Eu 0.15359 0.9876 0.61832 0.0
C589 C 0.07721 0.84391 0.67672 0.0
N590 N 0.10187 0.84977 0.67893 0.0
C591 C 0.09772 0.85683 0.71983 0.0
C592 C 0.06172 0.84545 0.69609 0.0
C593 C 0.11235 0.85453 0.70012 0.0
C594 C 0.07228 0.85271 0.7178 0.0
C595 C 0.04206 0.82789 0.65206 0.0
C596 C 0.06747 0.83503 0.65503 0.0
C597 C 0.02651 0.83035 0.67126 0.0
C598 C 0.03631 0.83912 0.69321 0.0
Eu599 Eu 0.12498 0.84767 0.64457 0.0
N600 N 0.08293 0.83435 0.63671 0.0
C601 C 0.03307 0.81846 0.62988 0.0
C602 C 0.07446 0.82316 0.61518 0.0
C603 C 0.04938 0.81562 0.6114 0.0
H604 H 0.13204 0.85629 0.70188 0.0
H605 H 0.04264 0.80757 0.59425 0.0
H606 H 0.16971 0.95484 0.56484 0.0
H607 H 0.2111 0.0352 0.69311 0.0
H608 H 0.08702 0.82046 0.60091 0.0
H609 H 0.01365 0.81277 0.62688 0.0
H610 H 0.17288 0.03182 0.67099 0.0
H611 H 0.10609 0.86142 0.73658 0.0
H612 H 0.00689 0.82523 0.66932 0.0
H613 H 0.0241 0.84047 0.70788 0.0
H614 H 0.20775 0.93673 0.54287 0.0
H615 H 0.06101 0.85425 0.73311 0.0
H616 H 0.25018 1.00871 0.67496 0.0
N617 N 0.18854 0.96799 0.59627 0.0
C618 C 0.21048 0.97211 0.60729 0.0
C619 C 0.20874 0.94641 0.56097 0.0
C620 C 0.23253 0.96154 0.59552 0.0
C621 C 0.18731 0.95664 0.57336 0.0
C622 C 0.23142 0.94855 0.57212 0.0
N623 N 0.18914 0.99571 0.64158 0.0
C624 C 0.18932 0.01627 0.6633 0.0
C625 C 0.23331 0.98897 0.64237 0.0
C626 C 0.21073 0.98521 0.63061 0.0
C627 C 0.23324 1.00531 0.66535 0.0
C628 C 0.21119 0.01994 0.67571 0.0
H629 H 0.24798 0.94023 0.56249 0.0
H630 H 0.27201 0.95576 0.5987 0.0
H631 H 0.27272 0.98015 0.63959 0.0
O632 O 0.15973 0.07493 0.62243 0.0
O633 O 0.17229 0.90588 0.61372 0.0
O634 O 0.1643 0.87217 0.64882 0.0
O635 O 0.15109 0.04091 0.58879 0.0
O636 O 0.13713 0.99126 0.6541 0.0
O637 O 0.14587 0.90658 0.66694 0.0
O638 O 0.13057 0.76848 0.62888 0.0
O639 O 0.09674 0.91229 0.63757 0.0
O640 O 0.11212 0.99261 0.62243 0.0
O641 O 0.13261 0.77742 0.66566 0.0
O642 O 0.13176 0.8522 0.60559 0.0
O643 O 0.1281 0.94203 0.595 0.0
C644 C 0.17824 0.87378 0.63069 0.0
C645 C 0.15878 0.13632 0.58923 0.0
C646 C 0.15774 0.23433 0.59025 0.0
C647 C 0.16628 0.23549 0.56747 0.0
C648 C 0.16702 0.13871 0.56639 0.0
C649 C 0.17075 0.188 0.55563 0.0
C650 C 0.15396 0.18439 0.60112 0.0
C651 C 0.13806 0.95559 0.67072 0.0
C652 C 0.15645 0.08353 0.60057 0.0
C653 C 0.25488 0.96401 0.60742 0.0
C654 C 0.25527 0.97766 0.63075 0.0
C655 C 0.09415 0.96164 0.62994 0.0
C656 C 0.11656 0.69579 0.65195 0.0
C657 C 0.1098 0.59898 0.64799 0.0
C658 C 0.08801 0.60445 0.66078 0.0
C659 C 0.09459 0.69971 0.66437 0.0
C660 C 0.12405 0.64535 0.64366 0.0
C661 C 0.08046 0.6544 0.66871 0.0
C662 C 0.12713 0.89048 0.59039 0.0
C663 C 0.13209 0.74381 0.64861 0.0
H664 H 0.16913 0.27328 0.55867 0.0
H665 H 0.17098 0.10239 0.55694 0.0
H666 H 0.17721 0.1894 0.53805 0.0
H667 H 0.14757 0.183 0.61875 0.0
H668 H 0.0769 0.56996 0.6651 0.0
H669 H 0.08854 0.73762 0.67117 0.0
H670 H 0.14087 0.64245 0.63387 0.0
H671 H 0.06371 0.65789 0.67855 0.0
Eu672 Eu 0.62133 0.68048 0.1411 0.0
C673 C 0.70468 0.55098 0.09746 0.0
N674 N 0.68136 0.55638 0.08946 0.0
C675 C 0.69638 0.57667 0.05177 0.0
C676 C 0.72489 0.55985 0.08284 0.0
C677 C 0.67691 0.56798 0.06693 0.0
C678 C 0.72047 0.57287 0.05977 0.0
C679 C 0.73229 0.53437 0.12942 0.0
C680 C 0.70827 0.53891 0.12062 0.0
C681 C 0.75245 0.54347 0.11492 0.0
C682 C 0.74876 0.55618 0.09171 0.0
Eu683 Eu 0.64968 0.54186 0.11628 0.0
N684 N 0.68837 0.53147 0.13448 0.0
C685 C 0.7354 0.52019 0.15251 0.0
C686 C 0.69143 0.51397 0.15653 0.0
C687 C 0.71488 0.50912 0.16601 0.0
H688 H 0.65832 0.57008 0.06065 0.0
H689 H 0.71712 0.49603 0.18363 0.0
H690 H 0.60971 0.66458 0.19695 0.0
H691 H 0.55736 0.73013 0.07106 0.0
H692 H 0.67603 0.50201 0.16679 0.0
H693 H 0.75354 0.51624 0.1599 0.0
H694 H 0.59744 0.72485 0.08989 0.0
H695 H 0.6928 0.58624 0.03392 0.0
H696 H 0.77101 0.54048 0.12146 0.0
H697 H 0.76451 0.56309 0.08076 0.0
H698 H 0.57398 0.6543 0.22275 0.0
H699 H 0.73551 0.57996 0.048 0.0
H700 H 0.51969 0.71035 0.09309 0.0
N701 N 0.58814 0.67466 0.16697 0.0
C702 C 0.56526 0.67925 0.15793 0.0
C703 C 0.57127 0.66106 0.20454 0.0
C704 C 0.54433 0.67353 0.17194 0.0
C705 C 0.59146 0.66654 0.18993 0.0
C706 C 0.54759 0.66423 0.19549 0.0
N707 N 0.58345 0.69357 0.1214 0.0
C708 C 0.58154 0.71202 0.09934 0.0
C709 C 0.5393 0.69313 0.12461 0.0
C710 C 0.56285 0.68819 0.13446 0.0
C711 C 0.53742 0.70616 0.10129 0.0
C712 C 0.55864 0.71693 0.08876 0.0
H713 H 0.53198 0.65959 0.20682 0.0
H714 H 0.50463 0.67183 0.17246 0.0
H715 H 0.5002 0.68942 0.13106 0.0
O716 O 0.62746 0.76321 0.12987 0.0
O717 O 0.59898 0.60431 0.14557 0.0
O718 O 0.6081 0.55214 0.11416 0.0
O719 O 0.62208 0.74635 0.16581 0.0
O720 O 0.63226 0.67587 0.10299 0.0
O721 O 0.624 0.58817 0.09359 0.0
O722 O 0.64842 0.45477 0.12458 0.0
O723 O 0.67109 0.62043 0.11307 0.0
O724 O 0.66157 0.66304 0.1465 0.0
O725 O 0.64759 0.4831 0.08904 0.0
O726 O 0.63819 0.54208 0.1538 0.0
O727 O 0.64223 0.62947 0.16728 0.0
C728 C 0.59262 0.56955 0.12982 0.0
C729 C 0.64678 0.8213 0.15626 0.0
C730 C 0.6624 0.91348 0.15581 0.0
C731 C 0.68372 0.89536 0.16708 0.0
C732 C 0.66815 0.80443 0.16749 0.0
C733 C 0.68655 0.84128 0.17276 0.0
C734 C 0.64403 0.87566 0.15035 0.0
C735 C 0.62669 0.63855 0.08782 0.0
C736 C 0.62717 0.78284 0.15056 0.0
C737 C 0.52092 0.67661 0.16201 0.0
C738 C 0.5184 0.68636 0.13841 0.0
C739 C 0.6769 0.65339 0.12975 0.0
C740 C 0.64514 0.38699 0.09368 0.0
C741 C 0.64419 0.28959 0.09859 0.0
C742 C 0.63807 0.28414 0.07527 0.0
C743 C 0.63924 0.38009 0.07032 0.0
C744 C 0.6479 0.34125 0.10781 0.0
C745 C 0.63578 0.32908 0.06124 0.0
C746 C 0.64061 0.57704 0.17067 0.0
C747 C 0.64713 0.4422 0.10286 0.0
H748 H 0.6981 0.92302 0.1719 0.0
H749 H 0.67051 0.76286 0.1723 0.0
H750 H 0.703 0.82796 0.18147 0.0
H751 H 0.62763 0.88818 0.14131 0.0
H752 H 0.63525 0.24483 0.06786 0.0
H753 H 0.63694 0.41426 0.05901 0.0
H754 H 0.6524 0.34571 0.12585 0.0
H755 H 0.63114 0.32439 0.04326 0.0
Eu756 Eu 0.38837 0.34341 0.1405 0.0
C757 C 0.30463 0.47389 0.09742 0.0
N758 N 0.32834 0.47282 0.0902 0.0
C759 C 0.31532 0.46276 0.05114 0.0
C760 C 0.28523 0.46807 0.08159 0.0
C761 C 0.33396 0.46819 0.06746 0.0
C762 C 0.29085 0.46247 0.05823 0.0
C763 C 0.27539 0.47818 0.12883 0.0
C764 C 0.29982 0.47848 0.12087 0.0
C765 C 0.25605 0.47221 0.1131 0.0
C766 C 0.26095 0.46719 0.08957 0.0
Eu767 Eu 0.3585 0.48127 0.11894 0.0
N768 N 0.31896 0.48274 0.13586 0.0
C769 C 0.2711 0.48431 0.15238 0.0
C770 C 0.31472 0.49254 0.15856 0.0
C771 C 0.29084 0.49236 0.16724 0.0
H772 H 0.35282 0.46936 0.06191 0.0
H773 H 0.28765 0.49925 0.18536 0.0
H774 H 0.39176 0.34776 0.19796 0.0
H775 H 0.46207 0.32636 0.07668 0.0
H776 H 0.32951 0.50223 0.17001 0.0
H777 H 0.25261 0.48428 0.15917 0.0
H778 H 0.41959 0.32461 0.09025 0.0
H779 H 0.31982 0.45887 0.0331 0.0
H780 H 0.2372 0.47163 0.11895 0.0
H781 H 0.24581 0.46254 0.07767 0.0
H782 H 0.42354 0.35327 0.22813 0.0
H783 H 0.27646 0.45792 0.04554 0.0
H784 H 0.49605 0.33648 0.10446 0.0
N785 N 0.41741 0.34551 0.17052 0.0
C786 C 0.44141 0.34399 0.16424 0.0
C787 C 0.42881 0.35088 0.21023 0.0
C788 C 0.46014 0.347 0.1809 0.0
C789 C 0.41086 0.34817 0.19311 0.0
C790 C 0.45355 0.35051 0.20411 0.0
N791 N 0.42872 0.34001 0.1252 0.0
C792 C 0.43389 0.33215 0.10251 0.0
C793 C 0.47199 0.34092 0.13397 0.0
C794 C 0.44722 0.3414 0.14096 0.0
C795 C 0.47727 0.33692 0.11052 0.0
C796 C 0.45814 0.33164 0.09477 0.0
H797 H 0.46741 0.35293 0.21741 0.0
H798 H 0.49939 0.34971 0.18646 0.0
H799 H 0.50976 0.34419 0.14542 0.0
O800 O 0.38529 0.2639 0.12509 0.0
O801 O 0.41029 0.41983 0.1459 0.0
O802 O 0.40005 0.47414 0.11548 0.0
O803 O 0.38841 0.27148 0.16189 0.0
O804 O 0.37874 0.35184 0.10205 0.0
O805 O 0.38438 0.4417 0.09431 0.0
O806 O 0.35799 0.56299 0.13229 0.0
O807 O 0.33792 0.40223 0.1136 0.0
O808 O 0.34767 0.35489 0.14588 0.0
O809 O 0.3586 0.54991 0.09564 0.0
O810 O 0.37046 0.47629 0.15632 0.0
O811 O 0.36488 0.38754 0.16664 0.0
C812 C 0.41586 0.45719 0.13095 0.0
C813 C 0.36583 0.19825 0.14772 0.0
C814 C 0.35291 0.10494 0.14508 0.0
C815 C 0.32937 0.11989 0.15258 0.0
C816 C 0.34247 0.21225 0.15563 0.0
C817 C 0.32425 0.17329 0.15785 0.0
C818 C 0.371 0.14471 0.14249 0.0
C819 C 0.38289 0.39173 0.08757 0.0
C820 C 0.385 0.23897 0.14478 0.0
C821 C 0.48476 0.34716 0.17391 0.0
C822 C 0.49067 0.34414 0.15053 0.0
C823 C 0.33221 0.36686 0.12944 0.0
C824 C 0.37934 0.62573 0.10976 0.0
C825 C 0.39198 0.71923 0.11252 0.0
C826 C 0.41599 0.70409 0.10658 0.0
C827 C 0.40336 0.6114 0.10375 0.0
C828 C 0.37375 0.6795 0.11414 0.0
C829 C 0.42159 0.65048 0.10223 0.0
C830 C 0.36773 0.43847 0.17192 0.0
C831 C 0.36008 0.58499 0.11207 0.0
H832 H 0.3151 0.09018 0.15487 0.0
H833 H 0.3385 0.25317 0.16022 0.0
H834 H 0.3062 0.18442 0.16388 0.0
H835 H 0.38909 0.13415 0.13628 0.0
H836 H 0.43038 0.73375 0.10497 0.0
H837 H 0.40802 0.57016 0.10021 0.0
H838 H 0.35525 0.69018 0.11915 0.0
H839 H 0.44009 0.6392 0.09759 0.0
Eu840 Eu 0.62281 0.33405 0.36608 0.0
C841 C 0.70934 0.47286 0.38955 0.0
N842 N 0.68892 0.46505 0.40248 0.0
C843 C 0.71356 0.44486 0.43546 0.0
C844 C 0.73284 0.46449 0.39893 0.0
C845 C 0.69061 0.45331 0.42536 0.0
C846 C 0.73476 0.44981 0.42213 0.0
C847 C 0.72743 0.49877 0.35316 0.0
C848 C 0.70658 0.48947 0.36692 0.0
C849 C 0.7509 0.48871 0.36216 0.0
C850 C 0.7536 0.47163 0.38499 0.0
Eu851 Eu 0.6509 0.47828 0.38404 0.0
N852 N 0.68362 0.49911 0.35874 0.0
C853 C 0.72411 0.51947 0.331 0.0
C854 C 0.68051 0.52349 0.33794 0.0
C855 C 0.70057 0.53282 0.32353 0.0
H856 H 0.67418 0.4494 0.43559 0.0
H857 H 0.69789 0.55114 0.30683 0.0
H858 H 0.62124 0.33036 0.30788 0.0
H859 H 0.5482 0.28745 0.4251 0.0
H860 H 0.66267 0.53706 0.3326 0.0
H861 H 0.73965 0.5272 0.31989 0.0
H862 H 0.59146 0.29831 0.41289 0.0
H863 H 0.71488 0.43443 0.45349 0.0
H864 H 0.7671 0.49517 0.35176 0.0
H865 H 0.77182 0.46495 0.39181 0.0
H866 H 0.59078 0.34074 0.27685 0.0
H867 H 0.7525 0.44305 0.42998 0.0
H868 H 0.51468 0.30318 0.39717 0.0
N869 N 0.595 0.33655 0.33473 0.0
C870 C 0.57079 0.33553 0.34019 0.0
C871 C 0.58491 0.34023 0.29462 0.0
C872 C 0.55263 0.33939 0.32301 0.0
C873 C 0.60219 0.33549 0.31227 0.0
C874 C 0.56002 0.34329 0.30003 0.0
N875 N 0.58216 0.32098 0.37878 0.0
C876 C 0.57683 0.30501 0.40068 0.0
C877 C 0.53931 0.32108 0.36899 0.0
C878 C 0.56417 0.32652 0.36284 0.0
C879 C 0.53356 0.30778 0.39176 0.0
C880 C 0.55244 0.29884 0.40758 0.0
H881 H 0.54664 0.34634 0.28631 0.0
H882 H 0.51354 0.34063 0.31628 0.0
H883 H 0.50188 0.32461 0.35658 0.0
O884 O 0.63821 0.26273 0.38251 0.0
O885 O 0.59853 0.39598 0.38358 0.0
O886 O 0.61182 0.47715 0.36993 0.0
O887 O 0.61883 0.25491 0.35045 0.0
O888 O 0.63513 0.34278 0.40358 0.0
O889 O 0.6313 0.43339 0.41224 0.0
O890 O 0.65665 0.56597 0.38333 0.0
O891 O 0.67202 0.39937 0.38778 0.0
O892 O 0.66112 0.35637 0.35515 0.0
O893 O 0.6395 0.52748 0.41301 0.0
O894 O 0.63358 0.47295 0.34867 0.0
O895 O 0.64005 0.38526 0.33742 0.0
C896 C 0.59402 0.4448 0.37636 0.0
C897 C 0.64986 0.19147 0.35831 0.0
C898 C 0.66498 0.09908 0.35739 0.0
C899 C 0.68459 0.11632 0.34346 0.0
C900 C 0.66941 0.20759 0.34432 0.0
C901 C 0.68676 0.17017 0.33707 0.0
C902 C 0.64777 0.13748 0.36489 0.0
C903 C 0.63201 0.38254 0.41825 0.0
C904 C 0.63146 0.23032 0.36623 0.0
C905 C 0.52776 0.33707 0.3292 0.0
C906 C 0.52111 0.32784 0.35215 0.0
C907 C 0.67764 0.36758 0.37065 0.0
C908 C 0.64435 0.62415 0.41535 0.0
C909 C 0.6437 0.72219 0.41487 0.0
C910 C 0.63631 0.72184 0.43799 0.0
C911 C 0.63712 0.6251 0.43854 0.0
C912 C 0.64803 0.67309 0.40362 0.0
C913 C 0.63324 0.67363 0.44975 0.0
C914 C 0.63613 0.43635 0.33258 0.0
C915 C 0.64687 0.57194 0.40356 0.0
H916 H 0.69803 0.08813 0.33711 0.0
H917 H 0.67113 0.24896 0.33897 0.0
H918 H 0.70185 0.18285 0.32628 0.0
H919 H 0.63279 0.12567 0.37602 0.0
H920 H 0.633 0.75907 0.44701 0.0
H921 H 0.63425 0.58824 0.44802 0.0
H922 H 0.65343 0.67307 0.38569 0.0
H923 H 0.6276 0.67385 0.46759 0.0
Eu924 Eu 0.38798 0.68478 0.36137 0.0
C925 C 0.30487 0.5561 0.40103 0.0
N926 N 0.32784 0.55893 0.4101 0.0
C927 C 0.31133 0.57483 0.44758 0.0
C928 C 0.28411 0.56388 0.41503 0.0
C929 C 0.3314 0.56734 0.43301 0.0
C930 C 0.28759 0.57332 0.43854 0.0
C931 C 0.27863 0.5446 0.36769 0.0
C932 C 0.30225 0.54704 0.3775 0.0
C933 C 0.25793 0.55297 0.38156 0.0
C934 C 0.26065 0.56251 0.40515 0.0
Eu935 Eu 0.36043 0.54546 0.38431 0.0
N936 N 0.32267 0.54003 0.3643 0.0
C937 C 0.27646 0.53289 0.34427 0.0
C938 C 0.32049 0.5243 0.34196 0.0
C939 C 0.29746 0.52178 0.33146 0.0
H940 H 0.34975 0.56813 0.43999 0.0
H941 H 0.29591 0.51026 0.31359 0.0
H942 H 0.38304 0.68738 0.30383 0.0
H943 H 0.46912 0.70637 0.4159 0.0
H944 H 0.33626 0.51182 0.3323 0.0
H945 H 0.25864 0.53059 0.33611 0.0
H946 H 0.4251 0.69792 0.4076 0.0
H947 H 0.31417 0.58177 0.46574 0.0
H948 H 0.2397 0.55172 0.37424 0.0
H949 H 0.24447 0.56869 0.4156 0.0
H950 H 0.41022 0.69172 0.26995 0.0
H951 H 0.27209 0.57943 0.44987 0.0
H952 H 0.499 0.7103 0.38399 0.0
N953 N 0.41229 0.69127 0.32793 0.0
C954 C 0.43684 0.69658 0.33121 0.0
C955 C 0.41794 0.69295 0.28708 0.0
C956 C 0.453 0.69983 0.31235 0.0
C957 C 0.40262 0.69004 0.3063 0.0
C958 C 0.44324 0.69772 0.2901 0.0
N959 N 0.42985 0.69399 0.37138 0.0
C960 C 0.43785 0.69819 0.39352 0.0
C961 C 0.47125 0.70398 0.35751 0.0
C962 C 0.44589 0.69847 0.35354 0.0
C963 C 0.47965 0.70614 0.38022 0.0
C964 C 0.46284 0.70368 0.39828 0.0
H965 H 0.45506 0.7 0.27517 0.0
H966 H 0.49099 0.70735 0.30197 0.0
H967 H 0.50695 0.71105 0.34149 0.0
O968 O 0.38065 0.76014 0.37928 0.0
O969 O 0.41447 0.6146 0.36004 0.0
O970 O 0.40221 0.5504 0.38659 0.0
O971 O 0.38316 0.7593 0.34225 0.0
O972 O 0.38129 0.67623 0.4004 0.0
O973 O 0.38579 0.58603 0.40903 0.0
O974 O 0.36069 0.46153 0.3738 0.0
O975 O 0.34008 0.62532 0.38955 0.0
O976 O 0.34837 0.66447 0.35545 0.0
O977 O 0.36046 0.48113 0.4099 0.0
O978 O 0.37491 0.54758 0.3477 0.0
O979 O 0.36601 0.63368 0.33649 0.0
C980 C 0.41882 0.57253 0.37305 0.0
C981 C 0.39611 0.83784 0.36108 0.0
C982 C 0.39941 0.93413 0.36781 0.0
C983 C 0.42433 0.93169 0.36166 0.0
C984 C 0.42095 0.83649 0.35496 0.0
C985 C 0.43498 0.88315 0.35532 0.0
C986 C 0.38539 0.8867 0.3675 0.0
C987 C 0.38572 0.63667 0.41502 0.0
C988 C 0.38113 0.78884 0.36053 0.0
C989 C 0.4783 0.70493 0.31625 0.0
C990 C 0.48739 0.70704 0.33876 0.0
C991 C 0.33372 0.65803 0.37291 0.0
C992 C 0.34219 0.39905 0.39873 0.0
C993 C 0.3341 0.30282 0.39903 0.0
C994 C 0.30961 0.31331 0.40506 0.0
C995 C 0.31776 0.40875 0.40489 0.0
C996 C 0.35024 0.34618 0.39583 0.0
C997 C 0.30156 0.366 0.408 0.0
C998 C 0.37208 0.58404 0.3316 0.0
C999 C 0.35957 0.44306 0.3947 0.0
H1000 H 0.43554 0.9675 0.36134 0.0
H1001 H 0.42948 0.79962 0.34969 0.0
H1002 H 0.45411 0.88176 0.35046 0.0
H1003 H 0.36622 0.88763 0.37235 0.0
H1004 H 0.29679 0.28082 0.40782 0.0
H1005 H 0.3112 0.4491 0.40731 0.0
H1006 H 0.36907 0.33893 0.39074 0.0
H1007 H 0.28272 0.37373 0.41276 0.0
Eu1008 Eu 0.35788 0.48663 0.88149 0.0
C1009 C 0.44299 0.32966 0.8561 0.0
N1010 N 0.42195 0.34019 0.8445 0.0
C1011 C 0.44423 0.34756 0.80915 0.0
C1012 C 0.46578 0.3296 0.84468 0.0
C1013 C 0.4221 0.34769 0.82127 0.0
C1014 C 0.46621 0.33903 0.82095 0.0
C1015 C 0.46306 0.30563 0.8918 0.0
C1016 C 0.44159 0.3179 0.87933 0.0
C1017 C 0.48594 0.30781 0.88076 0.0
C1018 C 0.48729 0.31963 0.85724 0.0
Eu1019 Eu 0.38527 0.33992 0.86592 0.0
N1020 N 0.41914 0.31535 0.88941 0.0
C1021 C 0.46084 0.28971 0.91477 0.0
C1022 C 0.41681 0.29533 0.91118 0.0
C1023 C 0.43757 0.28359 0.92436 0.0
H1024 H 0.40513 0.35421 0.81216 0.0
H1025 H 0.43558 0.26895 0.94179 0.0
H1026 H 0.36028 0.49054 0.93987 0.0
H1027 H 0.2776 0.515 0.82695 0.0
H1028 H 0.39899 0.28731 0.9184 0.0
H1029 H 0.47688 0.27998 0.92494 0.0
H1030 H 0.32192 0.51342 0.83649 0.0
H1031 H 0.44432 0.35417 0.79076 0.0
H1032 H 0.50264 0.29902 0.89012 0.0
H1033 H 0.50501 0.32006 0.84884 0.0
H1034 H 0.3326 0.47458 0.97259 0.0
H1035 H 0.48334 0.3392 0.81154 0.0
H1036 H 0.24693 0.49423 0.85705 0.0
N1037 N 0.33264 0.47867 0.91456 0.0
C1038 C 0.30811 0.47545 0.91059 0.0
C1039 C 0.32551 0.47377 0.95522 0.0
C1040 C 0.2914 0.4684 0.92885 0.0
C1041 C 0.34127 0.48152 0.93656 0.0
C1042 C 0.30051 0.46606 0.95132 0.0
N1043 N 0.31603 0.49109 0.87127 0.0
C1044 C 0.30851 0.50474 0.84964 0.0
C1045 C 0.27415 0.48292 0.88375 0.0
C1046 C 0.29952 0.48283 0.88837 0.0
C1047 C 0.26628 0.49377 0.86129 0.0
C1048 C 0.28353 0.50554 0.84424 0.0
H1049 H 0.28829 0.46065 0.96582 0.0
H1050 H 0.25307 0.45995 0.93798 0.0
H1051 H 0.23798 0.47254 0.89846 0.0
O1052 O 0.36472 0.5607 0.86234 0.0
O1053 O 0.33391 0.41961 0.86644 0.0
O1054 O 0.34984 0.34867 0.88541 0.0
O1055 O 0.35463 0.56504 0.89795 0.0
O1056 O 0.37139 0.47551 0.84528 0.0
O1057 O 0.36737 0.38556 0.83571 0.0
O1058 O 0.38836 0.25287 0.86897 0.0
O1059 O 0.40844 0.41411 0.8584 0.0
O1060 O 0.39869 0.4723 0.88754 0.0
O1061 O 0.36632 0.28686 0.84184 0.0
O1062 O 0.37332 0.35637 0.90305 0.0
O1063 O 0.38135 0.44603 0.90877 0.0
C1064 C 0.33103 0.37249 0.87609 0.0
C1065 C 0.38208 0.63047 0.88398 0.0
C1066 C 0.39964 0.71998 0.87881 0.0
C1067 C 0.42104 0.7024 0.89007 0.0
C1068 C 0.40359 0.61409 0.89518 0.0
C1069 C 0.42293 0.6499 0.89818 0.0
C1070 C 0.3801 0.68352 0.8759 0.0
C1071 C 0.36745 0.43724 0.83023 0.0
C1072 C 0.36213 0.59174 0.88006 0.0
C1073 C 0.26614 0.46593 0.9242 0.0
C1074 C 0.25754 0.47323 0.9017 0.0
C1075 C 0.41469 0.45164 0.8731 0.0
C1076 C 0.38451 0.20133 0.83523 0.0
C1077 C 0.39344 0.10657 0.8281 0.0
C1078 C 0.40255 0.12067 0.80628 0.0
C1079 C 0.39365 0.21427 0.81337 0.0
C1080 C 0.38437 0.14744 0.84247 0.0
C1081 C 0.40261 0.17406 0.79902 0.0
C1082 C 0.37997 0.39643 0.91641 0.0
C1083 C 0.37518 0.2431 0.85086 0.0
H1084 H 0.43626 0.72946 0.89286 0.0
H1085 H 0.40541 0.57355 0.90157 0.0
H1086 H 0.43947 0.63691 0.90684 0.0
H1087 H 0.36359 0.69597 0.86699 0.0
H1088 H 0.40936 0.09032 0.79465 0.0
H1089 H 0.39383 0.2553 0.80735 0.0
H1090 H 0.37753 0.13754 0.85945 0.0
H1091 H 0.40959 0.1843 0.78216 0.0
Eu1092 Eu 0.64792 0.5418 0.8835 0.0
C1093 C 0.56651 0.68057 0.83971 0.0
N1094 N 0.59074 0.68076 0.83429 0.0
C1095 C 0.58073 0.67588 0.79418 0.0
C1096 C 0.54841 0.67553 0.82253 0.0
C1097 C 0.59794 0.68171 0.81181 0.0
C1098 C 0.55587 0.67172 0.79958 0.0
C1099 C 0.53482 0.69327 0.86844 0.0
C1100 C 0.55974 0.6893 0.86234 0.0
C1101 C 0.51673 0.68545 0.8516 0.0
C1102 C 0.52351 0.6765 0.82869 0.0
Eu1103 Eu 0.61844 0.6852 0.86569 0.0
N1104 N 0.57763 0.69585 0.8783 0.0
C1105 C 0.52887 0.70613 0.89119 0.0
C1106 C 0.57208 0.71137 0.90018 0.0
C1107 C 0.5476 0.71605 0.90704 0.0
H1108 H 0.61697 0.68739 0.80736 0.0
H1109 H 0.5432 0.72709 0.92453 0.0
H1110 H 0.67248 0.56985 0.93453 0.0
H1111 H 0.69328 0.46989 0.80542 0.0
H1112 H 0.5866 0.71881 0.91241 0.0
H1113 H 0.50993 0.7096 0.89656 0.0
H1114 H 0.65871 0.4825 0.83209 0.0
H1115 H 0.58662 0.6753 0.77642 0.0
H1116 H 0.49746 0.68757 0.856 0.0
H1117 H 0.50936 0.67205 0.81576 0.0
H1118 H 0.71358 0.58561 0.95149 0.0
H1119 H 0.54255 0.66779 0.78587 0.0
H1120 H 0.73519 0.49583 0.81726 0.0
N1121 N 0.6864 0.55551 0.90104 0.0
C1122 C 0.7065 0.54874 0.8876 0.0
C1123 C 0.71182 0.57562 0.93347 0.0
C1124 C 0.73021 0.55776 0.89641 0.0
C1125 C 0.68866 0.56667 0.9239 0.0
C1126 C 0.73267 0.57187 0.91959 0.0
N1127 N 0.68012 0.52164 0.85753 0.0
C1128 C 0.6766 0.49687 0.83691 0.0
C1129 C 0.72374 0.52382 0.85078 0.0
C1130 C 0.70322 0.53226 0.86507 0.0
C1131 C 0.71993 0.50291 0.82877 0.0
C1132 C 0.6963 0.4884 0.82199 0.0
H1133 H 0.75058 0.57907 0.92702 0.0
H1134 H 0.76897 0.55908 0.88828 0.0
H1135 H 0.76333 0.52909 0.84836 0.0
O1136 O 0.65402 0.4542 0.88306 0.0
O1137 O 0.66854 0.62138 0.88723 0.0
O1138 O 0.65691 0.6647 0.85477 0.0
O1139 O 0.63691 0.49258 0.91269 0.0
O1140 O 0.63009 0.54734 0.84835 0.0
O1141 O 0.63644 0.63516 0.83719 0.0
O1142 O 0.63307 0.75739 0.88196 0.0
O1143 O 0.59502 0.62188 0.88349 0.0
O1144 O 0.60878 0.54161 0.86952 0.0
O1145 O 0.6135 0.76412 0.84996 0.0
O1146 O 0.63105 0.67697 0.90316 0.0
O1147 O 0.62851 0.58604 0.91193 0.0
C1148 C 0.67364 0.65405 0.87018 0.0
C1149 C 0.64213 0.39606 0.91536 0.0
C1150 C 0.64095 0.29803 0.91513 0.0
C1151 C 0.63443 0.29859 0.93848 0.0
C1152 C 0.63575 0.39531 0.93876 0.0
C1153 C 0.63205 0.34689 0.95022 0.0
C1154 C 0.64513 0.34702 0.90363 0.0
C1155 C 0.63264 0.58415 0.83229 0.0
C1156 C 0.64436 0.44819 0.90335 0.0
C1157 C 0.75061 0.55173 0.88192 0.0
C1158 C 0.74738 0.53482 0.85916 0.0
C1159 C 0.59077 0.57327 0.87598 0.0
C1160 C 0.64401 0.82894 0.85747 0.0
C1161 C 0.65907 0.92145 0.85684 0.0
C1162 C 0.67818 0.90505 0.84217 0.0
C1163 C 0.66304 0.81374 0.84273 0.0
C1164 C 0.64213 0.88258 0.86455 0.0
C1165 C 0.68013 0.8516 0.83527 0.0
C1166 C 0.62866 0.6369 0.91789 0.0
C1167 C 0.62595 0.78941 0.86561 0.0
H1168 H 0.63127 0.26146 0.9477 0.0
H1169 H 0.63342 0.43226 0.94824 0.0
H1170 H 0.62709 0.34682 0.96823 0.0
H1171 H 0.64984 0.34691 0.88554 0.0
H1172 H 0.69139 0.93362 0.83563 0.0
H1173 H 0.66456 0.77271 0.83695 0.0
H1174 H 0.62754 0.89374 0.87622 0.0
H1175 H 0.69482 0.8396 0.82389 0.0
Eu1176 Eu 0.36017 0.54035 0.61221 0.0
C1177 C 0.43994 0.67332 0.6649 0.0
N1178 N 0.41568 0.67192 0.67018 0.0
C1179 C 0.42521 0.66486 0.71028 0.0
C1180 C 0.45788 0.66936 0.68228 0.0
C1181 C 0.4081 0.66854 0.69246 0.0
C1182 C 0.45022 0.66498 0.70518 0.0
C1183 C 0.47185 0.67842 0.63595 0.0
C1184 C 0.4468 0.67745 0.64196 0.0
C1185 C 0.48977 0.67394 0.65319 0.0
C1186 C 0.48281 0.66945 0.67629 0.0
Eu1187 Eu 0.38798 0.67532 0.63906 0.0
N1188 N 0.42902 0.68024 0.62554 0.0
C1189 C 0.47817 0.68434 0.61279 0.0
C1190 C 0.43518 0.69033 0.60323 0.0
C1191 C 0.45975 0.69128 0.59642 0.0
H1192 H 0.38883 0.66946 0.69649 0.0
H1193 H 0.46445 0.69824 0.57859 0.0
H1194 H 0.36603 0.5469 0.55483 0.0
H1195 H 0.2778 0.53298 0.6657 0.0
H1196 H 0.4214 0.69948 0.59066 0.0
H1197 H 0.49719 0.68519 0.60747 0.0
H1198 H 0.32217 0.53204 0.65801 0.0
H1199 H 0.41911 0.66202 0.72794 0.0
H1200 H 0.50908 0.6742 0.64885 0.0
H1201 H 0.49685 0.66614 0.68939 0.0
H1202 H 0.33925 0.55397 0.52067 0.0
H1203 H 0.46344 0.66189 0.71902 0.0
H1204 H 0.24842 0.53924 0.63342 0.0
N1205 N 0.3364 0.5454 0.57849 0.0
C1206 C 0.31168 0.54444 0.58149 0.0
C1207 C 0.33127 0.55153 0.53768 0.0
C1208 C 0.29572 0.54787 0.56248 0.0
C1209 C 0.34639 0.54811 0.55704 0.0
C1210 C 0.30583 0.55156 0.5404 0.0
N1211 N 0.31811 0.54016 0.62186 0.0
C1212 C 0.30965 0.53582 0.64382 0.0
C1213 C 0.27672 0.54165 0.60735 0.0
C1214 C 0.30226 0.54137 0.60374 0.0
C1215 C 0.26792 0.53908 0.62993 0.0
C1216 C 0.28446 0.53578 0.64821 0.0
H1217 H 0.29417 0.55431 0.52536 0.0
H1218 H 0.25772 0.55061 0.55166 0.0
H1219 H 0.24112 0.54518 0.59088 0.0
O1220 O 0.35867 0.46026 0.62739 0.0
O1221 O 0.33768 0.61798 0.60964 0.0
O1222 O 0.34733 0.66154 0.64296 0.0
O1223 O 0.36271 0.46899 0.59067 0.0
O1224 O 0.36826 0.53987 0.65051 0.0
O1225 O 0.36442 0.62683 0.66399 0.0
O1226 O 0.38654 0.75628 0.62471 0.0
O1227 O 0.40973 0.5981 0.64352 0.0
O1228 O 0.40167 0.55028 0.61074 0.0
O1229 O 0.38519 0.74533 0.66143 0.0
O1230 O 0.37893 0.67285 0.60034 0.0
O1231 O 0.38714 0.5855 0.59046 0.0
C1232 C 0.33232 0.6526 0.62586 0.0
C1233 C 0.38173 0.39448 0.60822 0.0
C1234 C 0.39372 0.30087 0.6135 0.0
C1235 C 0.41831 0.3157 0.60977 0.0
C1236 C 0.40634 0.40828 0.60458 0.0
C1237 C 0.42451 0.36903 0.60537 0.0
C1238 C 0.37549 0.34085 0.61268 0.0
C1239 C 0.36534 0.57442 0.66737 0.0
C1240 C 0.36251 0.43581 0.60796 0.0
C1241 C 0.27026 0.54795 0.56606 0.0
C1242 C 0.2608 0.54486 0.58842 0.0
C1243 C 0.41629 0.56335 0.62781 0.0
C1244 C 0.36431 0.8201 0.6459 0.0
C1245 C 0.35128 0.91338 0.64184 0.0
C1246 C 0.32717 0.8977 0.64723 0.0
C1247 C 0.34025 0.80554 0.6515 0.0
C1248 C 0.36977 0.87396 0.6411 0.0
C1249 C 0.32175 0.84413 0.65202 0.0
C1250 C 0.38425 0.63597 0.5849 0.0
C1251 C 0.3838 0.77946 0.64456 0.0
H1252 H 0.43276 0.28599 0.60995 0.0
H1253 H 0.4115 0.44933 0.6011 0.0
H1254 H 0.44347 0.37995 0.60251 0.0
H1255 H 0.35649 0.33054 0.61587 0.0
H1256 H 0.31257 0.92696 0.64818 0.0
H1257 H 0.33587 0.7644 0.65553 0.0
H1258 H 0.38837 0.88496 0.63656 0.0
H1259 H 0.30319 0.83256 0.65632 0.0
Eu1260 Eu 0.64921 0.47651 0.6168 0.0
C1261 C 0.56203 0.34252 0.6494 0.0
N1262 N 0.58324 0.34752 0.66146 0.0
C1263 C 0.56066 0.36435 0.69601 0.0
C1264 C 0.53914 0.3497 0.66021 0.0
C1265 C 0.58291 0.35718 0.68452 0.0
C1266 C 0.53867 0.36104 0.68377 0.0
C1267 C 0.54154 0.32249 0.61348 0.0
C1268 C 0.56331 0.32977 0.62623 0.0
C1269 C 0.51873 0.3318 0.62392 0.0
C1270 C 0.51754 0.34535 0.64724 0.0
Eu1271 Eu 0.62014 0.33791 0.64068 0.0
N1272 N 0.58567 0.32109 0.61656 0.0
C1273 C 0.54328 0.30384 0.5909 0.0
C1274 C 0.58711 0.29662 0.59561 0.0
C1275 C 0.56614 0.28946 0.58215 0.0
H1276 H 0.59988 0.3598 0.69395 0.0
H1277 H 0.56757 0.27182 0.56523 0.0
H1278 H 0.6434 0.47775 0.5594 0.0
H1279 H 0.73144 0.48279 0.67046 0.0
H1280 H 0.60433 0.28158 0.5892 0.0
H1281 H 0.52701 0.29768 0.58054 0.0
H1282 H 0.68707 0.48008 0.66271 0.0
H1283 H 0.56048 0.37261 0.71426 0.0
H1284 H 0.50187 0.32714 0.61428 0.0
H1285 H 0.4998 0.35147 0.65517 0.0
H1286 H 0.67017 0.47697 0.52513 0.0
H1287 H 0.52146 0.36689 0.69269 0.0
H1288 H 0.7609 0.48369 0.63816 0.0
N1289 N 0.67303 0.47731 0.58306 0.0
C1290 C 0.69773 0.47913 0.58608 0.0
C1291 C 0.67815 0.47737 0.54217 0.0
C1292 C 0.71369 0.47976 0.56704 0.0
C1293 C 0.66305 0.47714 0.56157 0.0
C1294 C 0.70359 0.47858 0.5449 0.0
N1295 N 0.69127 0.4778 0.62641 0.0
C1296 C 0.69966 0.47982 0.64848 0.0
C1297 C 0.73266 0.48168 0.61201 0.0
C1298 C 0.70713 0.47994 0.60835 0.0
C1299 C 0.74141 0.48236 0.63463 0.0
C1300 C 0.72483 0.48169 0.65292 0.0
H1301 H 0.71525 0.4789 0.52983 0.0
H1302 H 0.75168 0.48189 0.55622 0.0
H1303 H 0.76826 0.48367 0.59555 0.0
O1304 O 0.64579 0.55384 0.63409 0.0
O1305 O 0.67321 0.40119 0.61554 0.0
O1306 O 0.66057 0.35168 0.64655 0.0
O1307 O 0.647 0.55087 0.59702 0.0
O1308 O 0.64209 0.4727 0.65514 0.0
O1309 O 0.63934 0.38495 0.66897 0.0
O1310 O 0.62859 0.25443 0.63248 0.0
O1311 O 0.59974 0.41675 0.64588 0.0
O1312 O 0.60809 0.4638 0.61304 0.0
O1313 O 0.61808 0.27526 0.66695 0.0
O1314 O 0.63382 0.34392 0.60339 0.0
O1315 O 0.6237 0.43032 0.594 0.0
C1316 C 0.67667 0.36225 0.6305 0.0
C1317 C 0.66286 0.62847 0.61486 0.0
C1318 C 0.66857 0.72496 0.61967 0.0
C1319 C 0.69361 0.71854 0.61462 0.0
C1320 C 0.68785 0.62312 0.60981 0.0
C1321 C 0.70313 0.66793 0.60974 0.0
C1322 C 0.65329 0.67939 0.61978 0.0
C1323 C 0.64183 0.43724 0.67199 0.0
C1324 C 0.64653 0.58152 0.61508 0.0
C1325 C 0.73914 0.4814 0.57065 0.0
C1326 C 0.74859 0.48243 0.59306 0.0
C1327 C 0.59299 0.45007 0.62963 0.0
C1328 C 0.60626 0.18983 0.65325 0.0
C1329 C 0.60027 0.09333 0.64874 0.0
C1330 C 0.57509 0.10044 0.653 0.0
C1331 C 0.58108 0.19594 0.65741 0.0
C1332 C 0.61575 0.13854 0.64892 0.0
C1333 C 0.56563 0.1514 0.65729 0.0
C1334 C 0.62795 0.38066 0.58806 0.0
C1335 C 0.62276 0.23652 0.65274 0.0
H1336 H 0.70581 0.75276 0.61407 0.0
H1337 H 0.69555 0.58452 0.60582 0.0
H1338 H 0.72239 0.66347 0.60575 0.0
H1339 H 0.634 0.68335 0.62389 0.0
H1340 H 0.56273 0.06651 0.65331 0.0
H1341 H 0.57334 0.235 0.66075 0.0
H1342 H 0.63514 0.13409 0.64532 0.0
H1343 H 0.54625 0.15639 0.66058 0.0
H1344 H 0.21151 0.15114 0.15743 0.0
H1345 H 0.30153 0.35335 0.09244 0.0
H1346 H 0.18984 0.23699 0.09634 0.0
H1347 H 0.30764 0.31855 0.16487 0.0
H1348 H 0.2628 0.30343 0.09146 0.0
H1349 H 0.25 0.20212 0.15799 0.0
C1350 C 0.21498 0.18028 0.14401 0.0
C1351 C 0.19753 0.18977 0.12678 0.0
C1352 C 0.27269 0.30663 0.10754 0.0
C1353 C 0.24132 0.24847 0.12739 0.0
C1354 C 0.29473 0.33533 0.10814 0.0
C1355 C 0.30812 0.33926 0.12868 0.0
C1356 C 0.26415 0.28106 0.12755 0.0
C1357 C 0.29836 0.3151 0.14849 0.0
C1358 C 0.23681 0.20972 0.14445 0.0
C1359 C 0.20279 0.22859 0.10998 0.0
N1360 N 0.27715 0.28657 0.14739 0.0
N1361 N 0.22424 0.25637 0.11064 0.0
H1362 H 0.80919 0.82593 0.16641 0.0
H1363 H 0.70575 0.6764 0.09236 0.0
H1364 H 0.80685 0.83062 0.09238 0.0
H1365 H 0.70221 0.69581 0.16591 0.0
H1366 H 0.74412 0.72765 0.09194 0.0
H1367 H 0.7709 0.77476 0.16653 0.0
C1368 C 0.80054 0.8162 0.15018 0.0
C1369 C 0.81123 0.83218 0.12936 0.0
C1370 C 0.7349 0.72086 0.10816 0.0
C1371 C 0.76743 0.77347 0.1293 0.0
C1372 C 0.71309 0.6913 0.10843 0.0
C1373 C 0.70062 0.68234 0.12918 0.0
C1374 C 0.74442 0.74131 0.12883 0.0
C1375 C 0.71094 0.70268 0.14947 0.0
C1376 C 0.77867 0.78706 0.15024 0.0
C1377 C 0.79917 0.81904 0.10881 0.0
N1378 N 0.73218 0.73117 0.14879 0.0
N1379 N 0.77799 0.79016 0.10928 0.0
H1380 H 0.30939 0.70218 0.33667 0.0
H1381 H 0.20629 0.84862 0.41141 0.0
H1382 H 0.3043 0.68185 0.41015 0.0
H1383 H 0.20209 0.82923 0.33791 0.0
H1384 H 0.24377 0.79407 0.41179 0.0
H1385 H 0.27155 0.75413 0.33725 0.0
C1386 C 0.30029 0.70864 0.35297 0.0
C1387 C 0.31011 0.68769 0.37341 0.0
C1388 C 0.23459 0.80164 0.3956 0.0
C1389 C 0.26661 0.74785 0.37421 0.0
C1390 C 0.21331 0.83312 0.39535 0.0
C1391 C 0.20101 0.84345 0.37459 0.0
C1392 C 0.2438 0.78082 0.3749 0.0
C1393 C 0.21083 0.82192 0.35433 0.0
C1394 C 0.2786 0.73824 0.35327 0.0
C1395 C 0.29734 0.69709 0.39398 0.0
N1396 N 0.23161 0.79187 0.35498 0.0
N1397 N 0.27634 0.72682 0.3939 0.0
H1398 H 0.80206 0.16635 0.40607 0.0
H1399 H 0.70243 0.32924 0.33351 0.0
H1400 H 0.81304 0.21162 0.33519 0.0
H1401 H 0.70618 0.33771 0.40743 0.0
H1402 H 0.74033 0.27664 0.3334 0.0
H1403 H 0.76407 0.21891 0.40649 0.0
C1404 C 0.79646 0.18713 0.39057 0.0
C1405 C 0.81084 0.18464 0.37057 0.0
C1406 C 0.73293 0.29018 0.34964 0.0
C1407 C 0.76733 0.24473 0.37095 0.0
C1408 C 0.71127 0.32005 0.34972 0.0
C1409 C 0.70114 0.33777 0.37051 0.0
C1410 C 0.74445 0.27727 0.37053 0.0
C1411 C 0.71345 0.32504 0.39101 0.0
C1412 C 0.77485 0.21736 0.39088 0.0
C1413 C 0.80266 0.21259 0.35104 0.0
N1414 N 0.73436 0.29519 0.39054 0.0
N1415 N 0.78144 0.2412 0.35168 0.0
H1416 H 0.69621 0.69878 0.83301 0.0
H1417 H 0.80536 0.8325 0.90556 0.0
H1418 H 0.70408 0.6791 0.90628 0.0
H1419 H 0.8006 0.83829 0.83166 0.0
H1420 H 0.76722 0.78045 0.9066 0.0
H1421 H 0.73356 0.75284 0.83248 0.0
C1422 C 0.70583 0.70585 0.84901 0.0
C1423 C 0.69696 0.68457 0.86973 0.0
C1424 C 0.77449 0.79309 0.89015 0.0
C1425 C 0.73992 0.74639 0.86928 0.0
C1426 C 0.79617 0.82305 0.88957 0.0
C1427 C 0.80622 0.83922 0.86847 0.0
C1428 C 0.76268 0.7795 0.86947 0.0
C1429 C 0.79359 0.82602 0.84826 0.0
C1430 C 0.72721 0.73663 0.84869 0.0
C1431 C 0.71035 0.69445 0.8899 0.0
N1432 N 0.77255 0.79683 0.84925 0.0
N1433 N 0.73111 0.72479 0.88919 0.0
H1434 H 0.31455 0.29701 0.90628 0.0
H1435 H 0.19509 0.22083 0.83449 0.0
H1436 H 0.2929 0.38384 0.84544 0.0
H1437 H 0.20246 0.18343 0.90652 0.0
H1438 H 0.23298 0.27322 0.83644 0.0
H1439 H 0.27575 0.24774 0.90507 0.0
C1440 C 0.30159 0.30578 0.89267 0.0
C1441 C 0.30698 0.34463 0.87591 0.0
C1442 C 0.22631 0.25358 0.85183 0.0
C1443 C 0.26259 0.28778 0.87429 0.0
C1444 C 0.20462 0.22379 0.85077 0.0
C1445 C 0.19536 0.19817 0.87045 0.0
C1446 C 0.23925 0.25688 0.87264 0.0
C1447 C 0.20894 0.20213 0.89089 0.0
C1448 C 0.27941 0.27775 0.89205 0.0
C1449 C 0.28943 0.35452 0.85877 0.0
N1450 N 0.23021 0.23076 0.89144 0.0
N1451 N 0.26812 0.32595 0.85827 0.0
H1452 H 0.69225 0.28292 0.66 0.0
H1453 H 0.82083 0.24032 0.59619 0.0
H1454 H 0.71364 0.36769 0.59846 0.0
H1455 H 0.79485 0.13474 0.64965 0.0
H1456 H 0.78235 0.28984 0.59815 0.0
H1457 H 0.73015 0.23066 0.65779 0.0
C1458 C 0.70492 0.29085 0.64608 0.0
C1459 C 0.69976 0.3305 0.62956 0.0
C1460 C 0.78494 0.2557 0.6094 0.0
C1461 C 0.74331 0.27052 0.62695 0.0
C1462 C 0.80699 0.22741 0.60834 0.0
C1463 C 0.81108 0.18308 0.62273 0.0
C1464 C 0.76677 0.24007 0.62514 0.0
C1465 C 0.79237 0.16822 0.63805 0.0
C1466 C 0.72656 0.26082 0.64481 0.0
C1467 C 0.7169 0.33845 0.61184 0.0
N1468 N 0.77109 0.19678 0.63893 0.0
N1469 N 0.73786 0.30898 0.61108 0.0
H1470 H 0.20095 0.8219 0.66604 0.0
H1471 H 0.30396 0.6806 0.58863 0.0
H1472 H 0.20577 0.8461 0.59275 0.0
H1473 H 0.30574 0.68684 0.66266 0.0
H1474 H 0.26576 0.73304 0.58906 0.0
H1475 H 0.23726 0.76513 0.66441 0.0
C1476 C 0.20963 0.81521 0.64955 0.0
C1477 C 0.20032 0.83909 0.62951 0.0
C1478 C 0.27454 0.72289 0.60519 0.0
C1479 C 0.2421 0.77355 0.62749 0.0
C1480 C 0.29624 0.69276 0.60496 0.0
C1481 C 0.30826 0.68025 0.62563 0.0
C1482 C 0.26463 0.73982 0.62628 0.0
C1483 C 0.29734 0.69651 0.6463 0.0
C1484 C 0.23045 0.78281 0.64865 0.0
C1485 C 0.21245 0.82895 0.60866 0.0
N1486 N 0.27626 0.72549 0.64609 0.0
N1487 N 0.23269 0.79689 0.60817 0.0
H1488 H 0.11681 0.03894 0.31838 0.0
H1489 H 0.14752 0.98505 0.18673 0.0
H1490 H 0.15687 0.89977 0.29573 0.0
H1491 H 0.13055 0.14275 0.21258 0.0
H1492 H 0.1478 0.95086 0.22589 0.0
H1493 H 0.11796 0.07441 0.27927 0.0
C1494 C 0.12578 0.01562 0.30515 0.0
C1495 C 0.13676 0.96612 0.31042 0.0
C1496 C 0.14408 0.99296 0.22304 0.0
C1497 C 0.13796 1.0067 0.26539 0.0
C1498 C 0.14385 0.01274 0.2006 0.0
C1499 C 0.13874 0.06707 0.19615 0.0
C1500 C 0.13886 0.02736 0.24137 0.0
C1501 C 0.13436 0.10061 0.21505 0.0
C1502 C 0.12648 0.0361 0.28282 0.0
C1503 C 0.14793 0.93771 0.29247 0.0
N1504 N 0.1343 0.08011 0.23681 0.0
N1505 N 0.14819 0.95835 0.27075 0.0
H1506 H 0.86893 0.1336 0.28746 0.0
H1507 H 0.85572 0.87878 0.20647 0.0
H1508 H 0.86704 0.97305 0.31531 0.0
H1509 H 0.89426 0.02205 0.18583 0.0
H1510 H 0.85333 0.91434 0.24581 0.0
H1511 H 0.87073 0.0956 0.24875 0.0
C1512 C 0.86899 0.0905 0.28553 0.0
C1513 C 0.86851 0.05665 0.30481 0.0
C1514 C 0.86238 0.93768 0.23259 0.0
C1515 C 0.86979 0.01301 0.26051 0.0
C1516 C 0.86393 0.91726 0.21024 0.0
C1517 C 0.87522 0.94743 0.19284 0.0
C1518 C 0.87176 0.98893 0.23736 0.0
C1519 C 0.88521 0.99754 0.19864 0.0
C1520 C 0.86995 0.06886 0.26342 0.0
C1521 C 0.86778 1.00093 0.30106 0.0
N1522 N 0.88301 0.01693 0.2203 0.0
N1523 N 0.86842 0.98088 0.27937 0.0
H1524 H 0.87355 0.14545 0.70735 0.0
H1525 H 0.84832 0.89451 0.78985 0.0
H1526 H 0.85878 0.98601 0.68214 0.0
H1527 H 0.89055 0.03192 0.81119 0.0
H1528 H 0.84639 0.93201 0.75092 0.0
H1529 H 0.87343 0.10963 0.74672 0.0
C1530 C 0.87022 0.10316 0.71 0.0
C1531 C 0.86667 0.06869 0.69126 0.0
C1532 C 0.85617 0.95375 0.76415 0.0
C1533 C 0.86602 0.02777 0.73619 0.0
C1534 C 0.85753 0.93203 0.78629 0.0
C1535 C 0.86996 0.95962 0.80372 0.0
C1536 C 0.86695 1.00381 0.75952 0.0
C1537 C 0.88082 1.00916 0.79825 0.0
C1538 C 0.87018 0.08274 0.73246 0.0
C1539 C 0.86194 0.01426 0.6959 0.0
N1540 N 0.87897 0.02978 0.77669 0.0
N1541 N 0.86177 0.99559 0.71781 0.0
H1542 H 0.09257 0.05979 0.80602 0.0
H1543 H 0.17077 0.94303 0.70591 0.0
H1544 H 0.16706 0.11407 0.79828 0.0
H1545 H 0.10122 0.01479 0.68903 0.0
H1546 H 0.16863 0.98454 0.74428 0.0
H1547 H 0.09387 0.02374 0.76665 0.0
C1548 C 0.10908 0.06451 0.79586 0.0
C1549 C 0.12967 0.09022 0.80511 0.0
C1550 C 0.15385 0.99087 0.73213 0.0
C1551 C 0.13161 0.0473 0.7609 0.0
C1552 C 0.15494 0.96693 0.71045 0.0
C1553 C 0.13614 0.97577 0.69445 0.0
C1554 C 0.13345 0.0222 0.738 0.0
C1555 C 0.11608 1.00738 0.70097 0.0
C1556 C 0.10981 0.04396 0.77357 0.0
C1557 C 0.15074 0.09509 0.7915 0.0
N1558 N 0.11509 0.02903 0.72239 0.0
N1559 N 0.15137 0.07284 0.77015 0.0
H1560 H 0.61802 0.53072 0.31609 0.0
H1561 H 0.6346 0.47275 0.18436 0.0
H1562 H 0.654 0.38583 0.29386 0.0
H1563 H 0.64735 0.63122 0.2116 0.0
H1564 H 0.63406 0.43734 0.22349 0.0
H1565 H 0.62042 0.56537 0.27685 0.0
C1566 C 0.62631 0.50595 0.30295 0.0
C1567 C 0.63589 0.45518 0.30836 0.0
C1568 C 0.63697 0.47983 0.22081 0.0
C1569 C 0.63814 0.49448 0.26331 0.0
C1570 C 0.63727 0.50031 0.1985 0.0
C1571 C 0.64083 0.55543 0.19453 0.0
C1572 C 0.6396 0.51472 0.23943 0.0
C1573 C 0.64413 0.58873 0.21371 0.0
C1574 C 0.62771 0.52595 0.28061 0.0
C1575 C 0.64612 0.42482 0.29049 0.0
N1576 N 0.64312 0.56797 0.23536 0.0
N1577 N 0.64683 0.44481 0.26868 0.0
H1578 H 0.40818 0.52784 0.31071 0.0
H1579 H 0.33197 0.42994 0.20463 0.0
H1580 H 0.33714 0.59755 0.29839 0.0
H1581 H 0.40583 0.48553 0.19373 0.0
H1582 H 0.3331 0.46834 0.24372 0.0
H1583 H 0.40764 0.49041 0.27158 0.0
C1584 C 0.39256 0.53538 0.29966 0.0
C1585 C 0.37274 0.56592 0.30754 0.0
C1586 C 0.34906 0.47162 0.23274 0.0
C1587 C 0.37158 0.5217 0.26355 0.0
C1588 C 0.34851 0.44942 0.21067 0.0
C1589 C 0.36884 0.45483 0.19617 0.0
C1590 C 0.37037 0.49756 0.24042 0.0
C1591 C 0.38981 0.48081 0.20453 0.0
C1592 C 0.39225 0.51405 0.2775 0.0
C1593 C 0.35284 0.5746 0.29273 0.0
N1594 N 0.39016 0.50081 0.22624 0.0
N1595 N 0.35255 0.55178 0.27149 0.0
H1596 H 0.36078 0.53921 0.81463 0.0
H1597 H 0.37408 0.47146 0.68159 0.0
H1598 H 0.3674 0.37672 0.79007 0.0
H1599 H 0.35135 0.62575 0.70725 0.0
H1600 H 0.37238 0.43572 0.72066 0.0
H1601 H 0.35813 0.57068 0.77536 0.0
C1602 C 0.36165 0.50982 0.80101 0.0
C1603 C 0.36456 0.45493 0.80589 0.0
C1604 C 0.3677 0.47733 0.71774 0.0
C1605 C 0.36162 0.4916 0.76026 0.0
C1606 C 0.36866 0.49797 0.6954 0.0
C1607 C 0.36322 0.55219 0.69105 0.0
C1608 C 0.36136 0.51107 0.73602 0.0
C1609 C 0.35624 0.58415 0.70973 0.0
C1610 C 0.36006 0.52809 0.77844 0.0
C1611 C 0.36535 0.41933 0.78724 0.0
N1612 N 0.35569 0.56323 0.73136 0.0
N1613 N 0.36411 0.43833 0.76522 0.0
H1614 H 0.61242 0.49279 0.81536 0.0
H1615 H 0.65038 0.54098 0.68517 0.0
H1616 H 0.65365 0.63201 0.79429 0.0
H1617 H 0.63638 0.38359 0.71326 0.0
H1618 H 0.64822 0.57819 0.72382 0.0
H1619 H 0.61641 0.4564 0.77669 0.0
C1620 C 0.62221 0.51593 0.80253 0.0
C1621 C 0.63288 0.56542 0.80814 0.0
C1622 C 0.64569 0.53551 0.7215 0.0
C1623 C 0.63735 0.5239 0.76368 0.0
C1624 C 0.64688 0.51403 0.69941 0.0
C1625 C 0.64307 0.45892 0.69575 0.0
C1626 C 0.64033 0.50193 0.74016 0.0
C1627 C 0.63894 0.42633 0.71506 0.0
C1628 C 0.62457 0.49492 0.78049 0.0
C1629 C 0.64506 0.59385 0.79071 0.0
N1630 N 0.63739 0.44841 0.73638 0.0
N1631 N 0.64697 0.57266 0.76922 0.0
H1632 H 0.09533 0.09017 0.94365 0.0
H1633 H 0.14548 0.21823 0.0604 0.0
H1634 H 0.14251 0.22879 0.94408 0.0
H1635 H 0.09661 0.08283 0.05643 0.0
H1636 H 0.14208 0.22954 0.0185 0.0
H1637 H 0.09281 0.09388 0.98525 0.0
C1638 C 0.10505 0.12181 0.95255 0.0
C1639 C 0.11934 0.15897 0.94038 0.0
C1640 C 0.1319 0.19778 0.02685 0.0
C1641 C 0.11678 0.16314 0.98845 0.0
C1642 C 0.13374 0.19146 0.05075 0.0
C1643 C 0.12141 0.14931 0.06184 0.0
C1644 C 0.11758 0.16174 0.01406 0.0
C1645 C 0.10661 0.11553 0.04855 0.0
C1646 C 0.1036 0.12392 0.9764 0.0
C1647 C 0.13127 0.19942 0.95284 0.0
N1648 N 0.10525 0.12228 0.02542 0.0
N1649 N 0.12999 0.20005 0.97629 0.0
H1650 H 0.90819 0.94869 0.94073 0.0
H1651 H 0.86712 0.79783 0.0559 0.0
H1652 H 0.86495 0.80405 0.9395 0.0
H1653 H 0.90484 0.94958 0.05269 0.0
H1654 H 0.87098 0.79022 0.01381 0.0
H1655 H 0.9125 0.9398 0.98209 0.0
C1656 C 0.89973 0.91471 0.94922 0.0
C1657 C 0.88591 0.87745 0.93676 0.0
C1658 C 0.87861 0.82482 0.02243 0.0
C1659 C 0.89044 0.8673 0.98441 0.0
C1660 C 0.87648 0.82907 0.04639 0.0
C1661 C 0.88536 0.87476 0.05769 0.0
C1662 C 0.88991 0.86632 0.00993 0.0
C1663 C 0.89733 0.91411 0.04465 0.0
C1664 C 0.90219 0.9096 0.97289 0.0
C1665 C 0.8757 0.83371 0.94857 0.0
N1666 N 0.89912 0.90906 0.02155 0.0
N1667 N 0.87785 0.83021 0.97189 0.0
H1668 H 0.10202 0.94878 0.44861 0.0
H1669 H 0.1478 0.80961 0.56463 0.0
H1670 H 0.14968 0.8111 0.44802 0.0
H1671 H 0.09712 0.94173 0.56067 0.0
H1672 H 0.14556 0.8006 0.52247 0.0
H1673 H 0.09677 0.93833 0.48979 0.0
C1674 C 0.11131 0.91602 0.45722 0.0
C1675 C 0.12653 0.88113 0.44496 0.0
C1676 C 0.13462 0.83089 0.53092 0.0
C1677 C 0.12088 0.86912 0.49253 0.0
C1678 C 0.13576 0.83576 0.55495 0.0
C1679 C 0.12276 0.87674 0.56605 0.0
C1680 C 0.12029 0.86715 0.51812 0.0
C1681 C 0.10766 0.90999 0.55275 0.0
C1682 C 0.10827 0.90993 0.48081 0.0
C1683 C 0.1378 0.83888 0.45693 0.0
N1684 N 0.10701 0.90471 0.52958 0.0
N1685 N 0.13506 0.83447 0.48019 0.0
H1686 H 0.91746 0.08527 0.55392 0.0
H1687 H 0.86109 0.2092 0.43864 0.0
H1688 H 0.86156 0.20722 0.55443 0.0
H1689 H 0.9174 0.08826 0.44121 0.0
H1690 H 0.86418 0.2188 0.48068 0.0
H1691 H 0.92108 0.09539 0.5124 0.0
C1692 C 0.90611 0.1146 0.54522 0.0
C1693 C 0.88904 0.14506 0.55747 0.0
C1694 C 0.87609 0.19075 0.47195 0.0
C1695 C 0.89277 0.15658 0.50984 0.0
C1696 C 0.8744 0.18552 0.44802 0.0
C1697 C 0.88881 0.14746 0.43662 0.0
C1698 C 0.8924 0.15786 0.48433 0.0
C1699 C 0.9057 0.11751 0.44944 0.0
C1700 C 0.90815 0.12043 0.52151 0.0
C1701 C 0.87493 0.18294 0.54549 0.0
N1702 N 0.90689 0.12306 0.47257 0.0
N1703 N 0.87685 0.18716 0.52222 0.0
H1704 H 0.65048 0.71461 0.06153 0.0
H1705 H 0.5986 0.58309 0.94655 0.0
H1706 H 0.59483 0.5922 0.0585 0.0
H1707 H 0.64899 0.7161 0.94487 0.0
H1708 H 0.59457 0.5936 0.98783 0.0
H1709 H 0.64796 0.72404 0.01936 0.0
C1710 C 0.63741 0.69063 0.05203 0.0
C1711 C 0.62305 0.65213 0.06336 0.0
C1712 C 0.60641 0.62099 0.97858 0.0
C1713 C 0.62014 0.66233 0.01553 0.0
C1714 C 0.60874 0.61485 0.95496 0.0
C1715 C 0.62434 0.64841 0.9424 0.0
C1716 C 0.62013 0.66046 0.98999 0.0
C1717 C 0.63677 0.68941 0.95406 0.0
C1718 C 0.63605 0.69578 0.02803 0.0
C1719 C 0.60651 0.62176 0.05038 0.0
N1720 N 0.63471 0.69384 0.97736 0.0
N1721 N 0.60566 0.62724 0.02723 0.0
H1722 H 0.40988 0.45246 0.94485 0.0
H1723 H 0.36229 0.31253 0.06074 0.0
H1724 H 0.35916 0.32001 0.94449 0.0
H1725 H 0.41072 0.44889 0.05782 0.0
H1726 H 0.36412 0.30645 0.01848 0.0
H1727 H 0.41366 0.44385 0.98641 0.0
C1728 C 0.39965 0.42125 0.95357 0.0
C1729 C 0.38404 0.3872 0.94126 0.0
C1730 C 0.37455 0.33725 0.02717 0.0
C1731 C 0.3881 0.37715 0.98908 0.0
C1732 C 0.37363 0.34048 0.05125 0.0
C1733 C 0.38621 0.38153 0.06272 0.0
C1734 C 0.38829 0.37513 0.01466 0.0
C1735 C 0.40049 0.417 0.04964 0.0
C1736 C 0.40179 0.41628 0.97734 0.0
C1737 C 0.3714 0.34707 0.95339 0.0
N1738 N 0.40102 0.41315 0.02641 0.0
N1739 N 0.3735 0.34346 0.9767 0.0
H1740 H 0.60056 0.43336 0.44645 0.0
H1741 H 0.65475 0.30949 0.56209 0.0
H1742 H 0.65362 0.3055 0.44555 0.0
H1743 H 0.5948 0.42156 0.55845 0.0
H1744 H 0.65296 0.29977 0.51994 0.0
H1745 H 0.59635 0.42256 0.48774 0.0
C1746 C 0.61122 0.40264 0.45504 0.0
C1747 C 0.62762 0.3706 0.44271 0.0
C1748 C 0.63998 0.3258 0.52846 0.0
C1749 C 0.62321 0.35828 0.49026 0.0
C1750 C 0.64095 0.33114 0.55245 0.0
C1751 C 0.62513 0.36695 0.56357 0.0
C1752 C 0.623 0.35637 0.51579 0.0
C1753 C 0.6076 0.39425 0.55044 0.0
C1754 C 0.6088 0.39632 0.47865 0.0
C1755 C 0.64077 0.33093 0.45456 0.0
N1756 N 0.60716 0.38874 0.5273 0.0
N1757 N 0.63858 0.32637 0.47785 0.0
H1758 H 0.42384 0.60967 0.55968 0.0
H1759 H 0.41404 0.57869 0.44386 0.0
H1760 H 0.35528 0.6945 0.55535 0.0
H1761 H 0.36738 0.71796 0.44235 0.0
H1762 H 0.41712 0.58617 0.48513 0.0
H1763 H 0.42925 0.62045 0.51842 0.0
C1764 C 0.40995 0.63081 0.5499 0.0
C1765 C 0.38904 0.65092 0.56078 0.0
C1766 C 0.40684 0.61649 0.47599 0.0
C1767 C 0.39411 0.66013 0.51308 0.0
C1768 C 0.40485 0.61177 0.45226 0.0
C1769 C 0.39047 0.6478 0.43962 0.0
C1770 C 0.3944 0.6578 0.48748 0.0
C1771 C 0.37888 0.68969 0.45147 0.0
C1772 C 0.41281 0.63626 0.52624 0.0
C1773 C 0.3717 0.6786 0.54747 0.0
N1774 N 0.3808 0.69312 0.47484 0.0
N1775 N 0.37441 0.68165 0.52417 0.0
H1776 H 0.93712 0.01848 0.155 0.0
H1777 H 0.06821 0.02603 0.09297 0.0
H1778 H 0.95408 0.92503 0.0949 0.0
H1779 H 0.05712 0.07636 0.16301 0.0
H1780 H 0.02545 0.99607 0.09151 0.0
H1781 H 0.9798 0.04996 0.15597 0.0
C1782 C 0.94981 1.00484 0.14196 0.0
C1783 C 0.94221 0.96856 0.12503 0.0
C1784 C 0.03236 0.01392 0.10718 0.0
C1785 C 0.99092 1.00428 0.12598 0.0
C1786 C 0.0568 0.03085 0.10805 0.0
C1787 C 0.06617 0.05472 0.12804 0.0
C1788 C 0.01708 0.02123 0.12637 0.0
C1789 C 0.05048 0.05981 0.14703 0.0
C1790 C 0.97417 0.02246 0.1426 0.0
C1791 C 0.95936 0.95214 0.10852 0.0
N1792 N 0.02671 0.04363 0.1457 0.0
N1793 N 0.98288 0.97009 0.10938 0.0
H1794 H 0.94274 0.02471 0.4072 0.0
H1795 H 0.07365 0.01955 0.34503 0.0
H1796 H 0.9523 0.0646 0.33562 0.0
H1797 H 0.05854 0.93487 0.40807 0.0
H1798 H 0.03022 0.04548 0.34281 0.0
H1799 H 0.98593 0.99854 0.40916 0.0
C1800 C 0.95389 0.02782 0.39186 0.0
C1801 C 0.94395 0.0477 0.37128 0.0
C1802 C 0.03643 0.0212 0.35712 0.0
C1803 C 0.99357 0.01845 0.3735 0.0
C1804 C 0.0612 1.00684 0.35848 0.0
C1805 C 0.06958 0.9749 0.37671 0.0
C1806 C 0.02005 1.00417 0.37432 0.0
C1807 C 0.05272 0.95909 0.39361 0.0
C1808 C 0.97859 0.01307 0.39302 0.0
C1809 C 0.95935 0.05085 0.35198 0.0
N1810 N 0.0288 0.97396 0.39205 0.0
N1811 N 0.9834 0.03683 0.35358 0.0
H1812 H 0.06998 0.99832 0.85427 0.0
H1813 H 0.92807 0.05397 0.86109 0.0
H1814 H 0.04443 0.13932 0.88948 0.0
H1815 H 0.95726 0.89991 0.88028 0.0
H1816 H 0.96995 0.09052 0.86186 0.0
H1817 H 0.0278 0.96427 0.85377 0.0
C1818 C 0.05555 0.02254 0.86168 0.0
C1819 C 0.06079 0.07271 0.87144 0.0
C1820 C 0.96702 0.04851 0.86567 0.0
C1821 C 0.01246 0.03434 0.87033 0.0
C1822 C 0.94317 0.02755 0.86528 0.0
C1823 C 0.93901 0.97307 0.87018 0.0
C1824 C 0.98688 0.01445 0.87034 0.0
C1825 C 0.95945 0.94123 0.87556 0.0
C1826 C 0.03151 1.00305 0.86133 0.0
C1827 C 0.04121 0.10181 0.88091 0.0
N1828 N 0.98246 0.96205 0.8752 0.0
N1829 N 0.01787 0.08261 0.87989 0.0
H1830 H 0.94796 0.05884 0.58891 0.0
H1831 H 0.05994 0.95178 0.6636 0.0
H1832 H 0.94695 0.05779 0.66297 0.0
H1833 H 0.07088 0.01961 0.5962 0.0
H1834 H 0.01714 0.98086 0.66251 0.0
H1835 H 0.99173 0.03516 0.58988 0.0
C1836 C 0.95694 0.05318 0.60534 0.0
C1837 C 0.94389 0.05993 0.6259 0.0
C1838 C 0.0289 0.98974 0.64801 0.0
C1839 C 0.99369 0.03267 0.62715 0.0
C1840 C 0.05328 0.97285 0.64856 0.0
C1841 C 0.06888 0.98313 0.62992 0.0
C1842 C 0.01988 0.01642 0.62849 0.0
C1843 C 0.05943 1.01126 0.61098 0.0
C1844 C 0.9819 0.04018 0.60589 0.0
C1845 C 0.9564 0.05291 0.64675 0.0
N1846 N 0.03543 0.02646 0.61062 0.0
N1847 N 0.98053 0.03922 0.64685 0.0
H1848 H 0.44694 0.46522 0.16738 0.0
H1849 H 0.56461 0.54311 0.0924 0.0
H1850 H 0.44284 0.49456 0.0944 0.0
H1851 H 0.56198 0.55519 0.16627 0.0
H1852 H 0.52101 0.51816 0.09227 0.0
H1853 H 0.49002 0.49165 0.16688 0.0
C1854 C 0.45511 0.47758 0.15125 0.0
C1855 C 0.4413 0.47774 0.1309 0.0
C1856 C 0.53001 0.52623 0.10849 0.0
C1857 C 0.49076 0.50791 0.13016 0.0
C1858 C 0.5549 0.53995 0.10859 0.0
C1859 C 0.56686 0.5511 0.12939 0.0
C1860 C 0.51715 0.52286 0.12938 0.0
C1861 C 0.5534 0.54713 0.14985 0.0
C1862 C 0.4797 0.49277 0.15098 0.0
C1863 C 0.45279 0.49433 0.11051 0.0
N1864 N 0.52932 0.53321 0.14934 0.0
N1865 N 0.47693 0.5084 0.11061 0.0
H1866 H 0.45441 0.58782 0.34053 0.0
H1867 H 0.55726 0.41636 0.40581 0.0
H1868 H 0.44144 0.50779 0.4052 0.0
H1869 H 0.57243 0.51806 0.34759 0.0
H1870 H 0.51436 0.44489 0.40473 0.0
H1871 H 0.49698 0.55857 0.34175 0.0
C1872 C 0.46051 0.56434 0.35511 0.0
C1873 C 0.44429 0.55115 0.37301 0.0
C1874 C 0.52703 0.46111 0.39221 0.0
C1875 C 0.49324 0.51613 0.37421 0.0
C1876 C 0.5515 0.44456 0.39272 0.0
C1877 C 0.56837 0.46439 0.3766 0.0
C1878 C 0.51927 0.49794 0.37543 0.0
C1879 C 0.56005 0.50185 0.36037 0.0
C1880 C 0.48489 0.54736 0.35571 0.0
C1881 C 0.45323 0.51906 0.39103 0.0
N1882 N 0.53608 0.51718 0.36012 0.0
N1883 N 0.47708 0.50275 0.39118 0.0
H1884 H 0.4386 0.50383 0.908 0.0
H1885 H 0.56954 0.50414 0.84535 0.0
H1886 H 0.44952 0.44455 0.83923 0.0
H1887 H 0.55388 0.59685 0.90597 0.0
H1888 H 0.52652 0.47504 0.84435 0.0
H1889 H 0.48139 0.53324 0.90881 0.0
C1890 C 0.44997 0.497 0.89304 0.0
C1891 C 0.44048 0.47095 0.8736 0.0
C1892 C 0.53249 0.50183 0.85785 0.0
C1893 C 0.48973 0.50386 0.87455 0.0
C1894 C 0.55706 0.5181 0.85851 0.0
C1895 C 0.5652 0.55324 0.87568 0.0
C1896 C 0.51602 0.52024 0.87468 0.0
C1897 C 0.54825 0.57037 0.89224 0.0
C1898 C 0.47446 0.51363 0.89355 0.0
C1899 C 0.45619 0.4631 0.85479 0.0
N1900 N 0.52452 0.55368 0.89137 0.0
N1901 N 0.48002 0.47912 0.85577 0.0
H1902 H 0.44633 0.55305 0.66506 0.0
H1903 H 0.56461 0.46958 0.59177 0.0
H1904 H 0.44445 0.52836 0.59174 0.0
H1905 H 0.56276 0.47113 0.66583 0.0
H1906 H 0.52117 0.49493 0.59108 0.0
H1907 H 0.48938 0.52631 0.66546 0.0
C1908 C 0.45498 0.54175 0.64903 0.0
C1909 C 0.4418 0.54308 0.62832 0.0
C1910 C 0.53027 0.48983 0.60749 0.0
C1911 C 0.4912 0.51226 0.62862 0.0
C1912 C 0.55509 0.4758 0.60788 0.0
C1913 C 0.56722 0.46831 0.6289 0.0
C1914 C 0.51759 0.49709 0.62828 0.0
C1915 C 0.55401 0.47628 0.64927 0.0
C1916 C 0.47957 0.52636 0.64927 0.0
C1917 C 0.45389 0.5276 0.60811 0.0
N1918 N 0.52993 0.49029 0.64846 0.0
N1919 N 0.47794 0.51312 0.60874 0.0
H1920 H 0.16006 0.74951 0.10283 0.0
H1921 H 0.12224 0.47253 0.16306 0.0
H1922 H 0.09243 0.72696 0.14001 0.0
H1923 H 0.18363 0.48878 0.11675 0.0
H1924 H 0.11176 0.56627 0.15599 0.0
H1925 H 0.17017 0.65525 0.10951 0.0
C1926 C 0.1474 0.72483 0.11251 0.0
C1927 C 0.12534 0.74626 0.12083 0.0
C1928 C 0.1275 0.54926 0.14734 0.0
C1929 C 0.13673 0.63804 0.12844 0.0
C1930 C 0.13341 0.49551 0.15124 0.0
C1931 C 0.1539 0.47236 0.14052 0.0
C1932 C 0.14221 0.58045 0.13268 0.0
C1933 C 0.16791 0.50484 0.12572 0.0
C1934 C 0.1531 0.6709 0.11619 0.0
C1935 C 0.1095 0.71208 0.13303 0.0
N1936 N 0.16185 0.5571 0.12231 0.0
N1937 N 0.11552 0.65981 0.1365 0.0
H1938 H 0.85352 0.26426 0.09232 0.0
H1939 H 0.89456 0.53963 0.15068 0.0
H1940 H 0.91635 0.27955 0.13701 0.0
H1941 H 0.82352 0.5173 0.11953 0.0
H1942 H 0.90384 0.4454 0.14367 0.0
H1943 H 0.84288 0.35753 0.10037 0.0
C1944 C 0.865 0.28698 0.10394 0.0
C1945 C 0.88596 0.26382 0.1139 0.0
C1946 C 0.88619 0.461 0.1384 0.0
C1947 C 0.87405 0.371 0.12289 0.0
C1948 C 0.88095 0.51489 0.14227 0.0
C1949 C 0.85827 0.53639 0.1356 0.0
C1950 C 0.86873 0.42826 0.12759 0.0
C1951 C 0.84116 0.50225 0.12509 0.0
C1952 C 0.85896 0.34035 0.10844 0.0
C1953 C 0.9003 0.29574 0.12855 0.0
N1954 N 0.84679 0.44991 0.12129 0.0
N1955 N 0.89414 0.34761 0.13251 0.0
H1956 H 0.1835 0.26982 0.39169 0.0
H1957 H 0.11913 0.55202 0.36609 0.0
H1958 H 0.1112 0.31133 0.41555 0.0
H1959 H 0.19763 0.53032 0.36399 0.0
H1960 H 0.11466 0.45915 0.37842 0.0
H1961 H 0.18757 0.36021 0.37511 0.0
C1962 C 0.16839 0.29775 0.39315 0.0
C1963 C 0.14704 0.28336 0.40509 0.0
C1964 C 0.13287 0.47477 0.37523 0.0
C1965 C 0.1515 0.38628 0.38625 0.0
C1966 C 0.1355 0.52808 0.36835 0.0
C1967 C 0.15887 0.54982 0.36423 0.0
C1968 C 0.1537 0.44234 0.37783 0.0
C1969 C 0.17923 0.51566 0.36678 0.0
C1970 C 0.17077 0.34931 0.38385 0.0
C1971 C 0.12805 0.32107 0.40665 0.0
N1972 N 0.17618 0.46376 0.37343 0.0
N1973 N 0.13072 0.37071 0.39736 0.0
H1974 H 0.86061 0.4665 0.3413 0.0
H1975 H 0.8829 0.75084 0.40146 0.0
H1976 H 0.92549 0.50596 0.38025 0.0
H1977 H 0.81707 0.71089 0.36406 0.0
H1978 H 0.89865 0.66104 0.39396 0.0
H1979 H 0.84393 0.555 0.35004 0.0
C1980 C 0.87129 0.49357 0.35183 0.0
C1981 C 0.89456 0.47869 0.35998 0.0
C1982 C 0.88074 0.67184 0.38741 0.0
C1983 C 0.87566 0.5805 0.36981 0.0
C1984 C 0.87179 0.72328 0.39156 0.0
C1985 C 0.84864 0.7386 0.38331 0.0
C1986 C 0.86649 0.63526 0.37486 0.0
C1987 C 0.8349 0.70073 0.37095 0.0
C1988 C 0.8618 0.54426 0.3567 0.0
C1989 C 0.90767 0.51588 0.37327 0.0
N1990 N 0.84405 0.65093 0.36705 0.0
N1991 N 0.89806 0.56498 0.37773 0.0
H1992 H 0.8448 0.2678 0.9047 0.0
H1993 H 0.88491 0.546 0.84725 0.0
H1994 H 0.91036 0.28875 0.86413 0.0
H1995 H 0.81402 0.52131 0.87838 0.0
H1996 H 0.89489 0.45228 0.85458 0.0
H1997 H 0.83328 0.36045 0.89608 0.0
C1998 C 0.8567 0.29163 0.89385 0.0
C1999 C 0.87869 0.27028 0.88525 0.0
C2000 C 0.87712 0.46722 0.85979 0.0
C2001 C 0.86573 0.37677 0.87559 0.0
C2002 C 0.87147 0.5209 0.85575 0.0
C2003 C 0.84865 0.54173 0.86234 0.0
C2004 C 0.85991 0.43385 0.87065 0.0
C2005 C 0.83178 0.50692 0.87289 0.0
C2006 C 0.85016 0.34466 0.88904 0.0
C2007 C 0.89349 0.30355 0.87154 0.0
N2008 N 0.8378 0.45477 0.87682 0.0
N2009 N 0.88679 0.35501 0.86723 0.0
H2010 H 0.11569 0.49461 0.86052 0.0
H2011 H 0.17482 0.77897 0.89106 0.0
H2012 H 0.19392 0.518 0.866 0.0
H2013 H 0.10065 0.73421 0.9079 0.0
H2014 H 0.1816 0.68857 0.87545 0.0
H2015 H 0.10943 0.58738 0.8719 0.0
C2016 C 0.13159 0.51903 0.86427 0.0
C2017 C 0.15539 0.49788 0.86261 0.0
C2018 C 0.16383 0.69877 0.88246 0.0
C2019 C 0.14825 0.60512 0.87513 0.0
C2020 C 0.15992 0.75029 0.89119 0.0
C2021 C 0.1372 0.76374 0.90086 0.0
C2022 C 0.14473 0.66099 0.88312 0.0
C2023 C 0.1185 0.72518 0.90078 0.0
C2024 C 0.12798 0.57223 0.8706 0.0
C2025 C 0.17524 0.53242 0.86693 0.0
N2026 N 0.12268 0.67563 0.89206 0.0
N2027 N 0.17123 0.58431 0.87305 0.0
H2028 H 0.82561 0.73812 0.66895 0.0
H2029 H 0.89707 0.47281 0.63313 0.0
H2030 H 0.87625 0.73488 0.61213 0.0
H2031 H 0.86767 0.49733 0.70109 0.0
H2032 H 0.88726 0.5662 0.62359 0.0
H2033 H 0.83864 0.64768 0.67976 0.0
C2034 C 0.83959 0.71838 0.65883 0.0
C2035 C 0.84987 0.74396 0.63961 0.0
C2036 C 0.88309 0.55118 0.64062 0.0
C2037 C 0.86466 0.64011 0.65169 0.0
C2038 C 0.88853 0.49783 0.64602 0.0
C2039 C 0.88317 0.47722 0.66794 0.0
C2040 C 0.87183 0.58398 0.65712 0.0
C2041 C 0.87231 0.51162 0.68405 0.0
C2042 C 0.84707 0.66684 0.66503 0.0
C2043 C 0.868 0.71668 0.62716 0.0
N2044 N 0.86682 0.56308 0.67827 0.0
N2045 N 0.87464 0.66598 0.63325 0.0
H2046 H 0.18773 0.32134 0.59497 0.0
H2047 H 0.08045 0.51629 0.63309 0.0
H2048 H 0.11525 0.26462 0.61159 0.0
H2049 H 0.15656 0.55707 0.64375 0.0
H2050 H 0.09276 0.42631 0.62198 0.0
H2051 H 0.1768 0.40982 0.61009 0.0
C2052 C 0.16959 0.32747 0.60204 0.0
C2053 C 0.15234 0.2857 0.60204 0.0
C2054 C 0.10676 0.45489 0.62685 0.0
C2055 C 0.13957 0.38696 0.61889 0.0
C2056 C 0.09977 0.50646 0.6333 0.0
C2057 C 0.11743 0.54475 0.6397 0.0
C2058 C 0.13167 0.44126 0.62629 0.0
C2059 C 0.14223 0.52947 0.63877 0.0
C2060 C 0.16338 0.37788 0.61065 0.0
C2061 C 0.12911 0.29566 0.61141 0.0
N2062 N 0.1486 0.47904 0.63214 0.0
N2063 N 0.1233 0.34546 0.61919 0.0
H2064 H 0.6201 0.97397 0.15607 0.0
H2065 H 0.68544 0.24837 0.11866 0.0
H2066 H 0.69768 0.98636 0.14226 0.0
H2067 H 0.60844 0.21776 0.10905 0.0
H2068 H 0.69011 0.15802 0.13516 0.0
H2069 H 0.61546 0.06826 0.14568 0.0
C2070 C 0.63618 0.99621 0.15077 0.0
C2071 C 0.65933 0.97153 0.14994 0.0
C2072 C 0.67213 0.17142 0.12975 0.0
C2073 C 0.65412 0.08047 0.1386 0.0
C2074 C 0.66945 0.22304 0.1206 0.0
C2075 C 0.64652 0.24034 0.11266 0.0
C2076 C 0.65167 0.13725 0.13112 0.0
C2077 C 0.62639 0.2058 0.11511 0.0
C2078 C 0.63351 0.0503 0.14503 0.0
C2079 C 0.67951 1.0034 0.14351 0.0
N2080 N 0.62943 0.15589 0.12407 0.0
N2081 N 0.67644 0.05605 0.13809 0.0
H2082 H 0.35101 0.77489 0.09924 0.0
H2083 H 0.39446 0.04994 0.1568 0.0
H2084 H 0.41912 0.79346 0.13616 0.0
H2085 H 0.32474 0.03012 0.12275 0.0
H2086 H 0.40409 0.95646 0.14871 0.0
H2087 H 0.34119 0.86841 0.1073 0.0
C2088 C 0.36385 0.79854 0.10915 0.0
C2089 C 0.38592 0.77621 0.11707 0.0
C2090 C 0.38668 0.97249 0.14299 0.0
C2091 C 0.3749 0.88357 0.12613 0.0
C2092 C 0.38123 0.02599 0.14748 0.0
C2093 C 0.3588 0.04799 0.14035 0.0
C2094 C 0.36961 0.94059 0.13123 0.0
C2095 C 0.34216 0.01472 0.12874 0.0
C2096 C 0.35828 0.85204 0.11364 0.0
C2097 C 0.40204 0.80911 0.12947 0.0
N2098 N 0.34793 0.96272 0.1245 0.0
N2099 N 0.3962 0.86107 0.13363 0.0
H2100 H 0.70124 0.02515 0.36722 0.0
H2101 H 0.60895 0.79932 0.41005 0.0
H2102 H 0.62256 0.04047 0.36226 0.0
H2103 H 0.68404 0.76394 0.39299 0.0
H2104 H 0.61407 0.8894 0.39414 0.0
H2105 H 0.69606 0.93115 0.37818 0.0
C2106 C 0.68288 1.00887 0.36823 0.0
C2107 C 0.6623 0.04136 0.36388 0.0
C2108 C 0.6294 0.86189 0.39363 0.0
C2109 C 0.6563 0.93363 0.37685 0.0
C2110 C 0.62647 0.81053 0.40271 0.0
C2111 C 0.6461 0.77431 0.40279 0.0
C2112 C 0.6523 0.8777 0.38493 0.0
C2113 C 0.66843 0.7907 0.39309 0.0
C2114 C 0.67997 0.95512 0.37457 0.0
C2115 C 0.63899 0.01774 0.3659 0.0
N2116 N 0.67104 0.84151 0.38479 0.0
N2117 N 0.63666 0.96562 0.37236 0.0
H2118 H 0.35411 0.97336 0.35572 0.0
H2119 H 0.37741 0.25939 0.41377 0.0
H2120 H 0.41913 0.01397 0.39424 0.0
H2121 H 0.31088 0.21898 0.37758 0.0
H2122 H 0.39238 0.16855 0.40752 0.0
H2123 H 0.33708 0.06148 0.36473 0.0
C2124 C 0.36471 1.00056 0.36626 0.0
C2125 C 0.38817 0.98629 0.37412 0.0
C2126 C 0.37446 0.1794 0.40099 0.0
C2127 C 0.36891 0.08751 0.38423 0.0
C2128 C 0.36596 0.23141 0.40444 0.0
C2129 C 0.34291 0.24697 0.39606 0.0
C2130 C 0.35988 0.14247 0.38899 0.0
C2131 C 0.32869 0.20863 0.38448 0.0
C2132 C 0.35503 0.05101 0.37128 0.0
C2133 C 0.40117 0.02351 0.38746 0.0
N2134 N 0.33745 0.15824 0.38118 0.0
N2135 N 0.39142 0.07237 0.39201 0.0
H2136 H 0.435 0.77789 0.85642 0.0
H2137 H 0.35771 0.05093 0.85164 0.0
H2138 H 0.36081 0.79031 0.88143 0.0
H2139 H 0.42967 0.03176 0.82208 0.0
H2140 H 0.3585 0.95663 0.86348 0.0
H2141 H 0.43324 0.87132 0.84419 0.0
C2142 C 0.41832 0.80032 0.85939 0.0
C2143 C 0.39807 0.77615 0.87013 0.0
C2144 C 0.37409 0.97307 0.85437 0.0
C2145 C 0.39587 0.88371 0.856 0.0
C2146 C 0.37373 0.02704 0.84774 0.0
C2147 C 0.39364 0.04947 0.83578 0.0
C2148 C 0.39457 0.94122 0.84914 0.0
C2149 C 0.41375 0.01621 0.83096 0.0
C2150 C 0.41729 0.85372 0.8523 0.0
C2151 C 0.3768 0.80712 0.8731 0.0
N2152 N 0.41371 0.964 0.83768 0.0
N2153 N 0.3763 0.85933 0.86621 0.0
H2154 H 0.6058 0.2212 0.91187 0.0
H2155 H 0.6957 0.99466 0.86614 0.0
H2156 H 0.68015 0.25577 0.8918 0.0
H2157 H 0.61689 0.98001 0.86348 0.0
H2158 H 0.69112 0.08844 0.87734 0.0
H2159 H 0.61 0.13099 0.89599 0.0
C2160 C 0.62295 0.20979 0.90389 0.0
C2161 C 0.64266 0.24582 0.90311 0.0
C2162 C 0.67486 0.06469 0.87418 0.0
C2163 C 0.6478 0.14231 0.88528 0.0
C2164 C 0.67743 1.01106 0.86768 0.0
C2165 C 0.65666 0.97885 0.86383 0.0
C2166 C 0.65135 0.08637 0.87716 0.0
C2167 C 0.63348 1.00255 0.86666 0.0
C2168 C 0.62535 0.15836 0.89483 0.0
C2169 C 0.6645 0.22918 0.89259 0.0
N2170 N 0.63148 0.05459 0.87326 0.0
N2171 N 0.6666 0.17833 0.88432 0.0
H2172 H 0.32438 0.98738 0.61743 0.0
H2173 H 0.41857 0.228 0.64016 0.0
H2174 H 0.39149 0.97044 0.65609 0.0
H2175 H 0.35407 0.24357 0.59768 0.0
H2176 H 0.40832 0.13412 0.64687 0.0
H2177 H 0.33417 0.0818 0.6109 0.0
C2178 C 0.34114 1.00349 0.62462 0.0
C2179 C 0.35715 0.97073 0.63732 0.0
C2180 C 0.39639 0.15803 0.63608 0.0
C2181 C 0.36855 0.07894 0.62977 0.0
C2182 C 0.4023 0.21167 0.63213 0.0
C2183 C 0.38724 0.24389 0.61823 0.0
C2184 C 0.3752 0.13612 0.62609 0.0
C2185 C 0.36611 0.22056 0.6087 0.0
C2186 C 0.34678 0.0574 0.62078 0.0
C2187 C 0.37876 0.99384 0.64593 0.0
N2188 N 0.36075 0.16814 0.61277 0.0
N2189 N 0.38378 0.04642 0.64204 0.0
H2190 H 0.68921 0.80535 0.64534 0.0
H2191 H 0.57992 0.0132 0.62271 0.0
H2192 H 0.62496 0.7683 0.60507 0.0
H2193 H 0.64342 0.04923 0.66417 0.0
H2194 H 0.59617 0.92349 0.61599 0.0
H2195 H 0.67291 0.89501 0.65218 0.0
C2196 C 0.6717 0.8161 0.63786 0.0
C2197 C 0.65848 0.77914 0.62456 0.0
C2198 C 0.60657 0.95099 0.62656 0.0
C2199 C 0.63957 0.88184 0.6325 0.0
C2200 C 0.59723 1.00221 0.63051 0.0
C2201 C 0.61026 0.03892 0.6441 0.0
C2202 C 0.62915 0.93613 0.63626 0.0
C2203 C 0.63284 0.02258 0.65338 0.0
C2204 C 0.66235 0.86727 0.64187 0.0
C2205 C 0.63569 0.79515 0.61565 0.0
N2206 N 0.64153 0.97243 0.64932 0.0
N2207 N 0.627 0.84528 0.61973 0.0
loop_
_geom_bond_atom_site_label_1
_geom_bond_atom_site_label_2
_geom_bond_distance
_geom_bond_site_symmetry_2
_ccdc_geom_bond_type
Eu0 N29 2.600 . S
Eu0 N35 2.562 . S
Eu0 O44 2.462 . S
Eu0 O45 2.373 . S
Eu0 O47 2.432 . S
Eu0 O48 2.291 . S
Eu0 O52 2.335 . S
Eu0 O55 2.372 . S
Eu0 C64 2.787 . S
C1 N2 1.365 . S
C1 C4 1.405 . S
C1 C8 1.448 . S
N2 C1 1.365 . S
N2 C5 1.319 . S
N2 Eu11 2.600 . S
C3 C5 1.397 . S
C3 C6 1.367 . S
C3 H23 0.931 . S
C4 C1 1.405 . S
C4 C6 1.403 . S
C4 C10 1.439 . S
C5 N2 1.319 . S
C5 C3 1.397 . S
C5 H16 0.930 . S
C6 C3 1.367 . S
C6 C4 1.403 . S
C6 H27 0.929 . S
C7 C8 1.430 . S
C7 C9 1.387 . S
C7 C13 1.404 . S
C8 C1 1.448 . S
C8 C7 1.430 . S
C8 N12 1.351 . S
C9 C7 1.387 . S
C9 C10 1.374 . S
C9 H24 0.933 . S
C10 C4 1.439 . S
C10 C9 1.374 . S
C10 H25 0.931 . S
Eu11 N2 2.600 . S
Eu11 N12 2.562 . S
Eu11 O46 2.335 . S
Eu11 O49 2.372 . S
Eu11 O50 2.462 1_545 S
Eu11 O51 2.373 . S
Eu11 O53 2.432 1_545 S
Eu11 O54 2.291 . S
Eu11 C75 2.787 1_545 S
N12 C8 1.351 . S
N12 Eu11 2.562 . S
N12 C14 1.325 . S
C13 C7 1.404 . S
C13 C15 1.366 . S
C13 H21 0.930 1_545 S
C14 N12 1.325 . S
C14 C15 1.416 . S
C14 H20 0.929 . S
C15 C13 1.366 . S
C15 C14 1.416 . S
C15 H17 0.930 . S
H16 C5 0.930 . S
H17 C15 0.930 . S
H18 C33 0.930 . S
H19 C40 0.930 . S
H20 C14 0.929 . S
H21 C13 0.930 1_565 S
H22 C36 0.929 . S
H23 C3 0.931 . S
H24 C9 0.933 . S
H25 C10 0.931 . S
H26 C31 0.931 . S
H27 C6 0.929 . S
H28 C39 0.930 . S
N29 Eu0 2.600 . S
N29 C30 1.365 . S
N29 C33 1.319 . S
C30 N29 1.365 . S
C30 C32 1.405 . S
C30 C38 1.448 . S
C31 H26 0.931 . S
C31 C33 1.397 . S
C31 C34 1.367 . S
C32 C30 1.405 . S
C32 C34 1.403 . S
C32 C65 1.439 . S
C33 H18 0.930 . S
C33 N29 1.319 . S
C33 C31 1.397 . S
C34 C31 1.367 . S
C34 C32 1.403 . S
C34 H41 0.929 . S
N35 Eu0 2.562 . S
N35 C36 1.325 . S
N35 C38 1.351 . S
C36 H22 0.929 . S
C36 N35 1.325 . S
C36 C40 1.416 . S
C37 C38 1.430 . S
C37 C39 1.404 . S
C37 C66 1.387 . S
C38 C30 1.448 . S
C38 N35 1.351 . S
C38 C37 1.430 . S
C39 H28 0.930 . S
C39 C37 1.404 . S
C39 C40 1.366 . S
C40 H19 0.930 . S
C40 C36 1.416 . S
C40 C39 1.366 . S
H41 C34 0.929 . S
H42 C65 0.931 1_655 S
H43 C66 0.931 1_655 S
O44 Eu0 2.462 . S
O44 C64 1.252 . S
O45 Eu0 2.373 . S
O45 C56 1.249 . S
O46 Eu11 2.335 . S
O46 C56 1.264 . S
O47 Eu0 2.432 . S
O47 C64 1.268 . S
O48 Eu0 2.291 . S
O48 C63 1.255 . S
O49 Eu11 2.372 . S
O49 C63 1.257 . S
O50 Eu11 2.462 1_565 S
O50 C75 1.252 . S
O51 Eu11 2.373 . S
O51 C67 1.249 . S
O52 Eu0 2.335 . S
O52 C67 1.264 . S
O53 Eu11 2.432 1_565 S
O53 C75 1.268 . S
O54 Eu11 2.291 . S
O54 C74 1.255 . S
O55 Eu0 2.372 . S
O55 C74 1.257 . S
C56 O45 1.249 . S
C56 O46 1.264 . S
C57 C60 1.382 . S
C57 C62 1.390 . S
C57 C64 1.506 . S
C58 C59 1.398 . S
C58 C62 1.392 . S
C59 C58 1.398 . S
C59 C61 1.372 . S
C59 H76 0.931 . S
C60 C57 1.382 . S
C60 C61 1.390 . S
C60 H77 0.931 . S
C61 C59 1.372 . S
C61 C60 1.390 . S
C61 H78 0.929 . S
C62 C57 1.390 . S
C62 C58 1.392 . S
C62 H79 0.930 . S
C63 O48 1.255 . S
C63 O49 1.257 . S
C64 Eu0 2.787 . S
C64 O44 1.252 . S
C64 O47 1.268 . S
C64 C57 1.506 . S
C65 C32 1.439 . S
C65 H42 0.931 1_455 S
C65 C66 1.374 . S
C66 C37 1.387 . S
C66 H43 0.931 1_455 S
C66 C65 1.374 . S
C67 O51 1.249 . S
C67 O52 1.264 . S
C68 C71 1.382 . S
C68 C72 1.390 . S
C68 C75 1.506 . S
C69 C70 1.398 . S
C69 C72 1.392 . S
C70 C69 1.398 . S
C70 C73 1.372 . S
C70 H80 0.931 . S
C71 C68 1.382 . S
C71 C73 1.390 . S
C71 H81 0.931 . S
C72 C68 1.390 . S
C72 C69 1.392 . S
C72 H82 0.930 . S
C73 C70 1.372 . S
C73 C71 1.390 . S
C73 H83 0.929 . S
C74 O54 1.255 . S
C74 O55 1.257 . S
C75 Eu11 2.787 1_565 S
C75 O50 1.252 . S
C75 O53 1.268 . S
C75 C68 1.506 . S
H76 C59 0.931 . S
H77 C60 0.931 . S
H78 C61 0.929 . S
H79 C62 0.930 . S
H80 C70 0.931 . S
H81 C71 0.931 . S
H82 C72 0.930 . S
H83 C73 0.929 . S
Eu84 N113 2.600 . S
Eu84 N119 2.562 . S
Eu84 O128 2.462 . S
Eu84 O129 2.373 . S
Eu84 O131 2.432 . S
Eu84 O132 2.291 . S
Eu84 O136 2.335 . S
Eu84 O139 2.372 . S
Eu84 C148 2.787 . S
C85 N86 1.365 . S
C85 C88 1.405 . S
C85 C92 1.448 . S
N86 C85 1.365 . S
N86 C89 1.319 . S
N86 Eu95 2.600 . S
C87 C89 1.397 . S
C87 C90 1.367 . S
C87 H107 0.931 . S
C88 C85 1.405 . S
C88 C90 1.403 . S
C88 C94 1.439 . S
C89 N86 1.319 . S
C89 C87 1.397 . S
C89 H100 0.930 . S
C90 C87 1.367 . S
C90 C88 1.403 . S
C90 H111 0.929 . S
C91 C92 1.430 . S
C91 C93 1.387 . S
C91 C97 1.404 . S
C92 C85 1.448 . S
C92 C91 1.430 . S
C92 N96 1.351 . S
C93 C91 1.387 . S
C93 C94 1.374 . S
C93 H108 0.933 . S
C94 C88 1.439 . S
C94 C93 1.374 . S
C94 H109 0.931 . S
Eu95 N86 2.600 . S
Eu95 N96 2.562 . S
Eu95 O130 2.335 . S
Eu95 O133 2.372 . S
Eu95 O134 2.462 1_565 S
Eu95 O135 2.373 . S
Eu95 O137 2.432 1_565 S
Eu95 O138 2.291 . S
Eu95 C159 2.787 1_565 S
N96 C92 1.351 . S
N96 Eu95 2.562 . S
N96 C98 1.325 . S
C97 C91 1.404 . S
C97 C99 1.366 . S
C97 H105 0.930 1_565 S
C98 N96 1.325 . S
C98 C99 1.416 . S
C98 H104 0.929 . S
C99 C97 1.366 . S
C99 C98 1.416 . S
C99 H101 0.930 . S
H100 C89 0.930 . S
H101 C99 0.930 . S
H102 C117 0.930 . S
H103 C124 0.930 . S
H104 C98 0.929 . S
H105 C97 0.930 1_545 S
H106 C120 0.929 . S
H107 C87 0.931 . S
H108 C93 0.933 . S
H109 C94 0.931 . S
H110 C115 0.931 . S
H111 C90 0.929 . S
H112 C123 0.930 . S
N113 Eu84 2.600 . S
N113 C114 1.365 . S
N113 C117 1.319 . S
C114 N113 1.365 . S
C114 C116 1.405 . S
C114 C122 1.448 . S
C115 H110 0.931 . S
C115 C117 1.397 . S
C115 C118 1.367 . S
C116 C114 1.405 . S
C116 C118 1.403 . S
C116 C149 1.439 . S
C117 H102 0.930 . S
C117 N113 1.319 . S
C117 C115 1.397 . S
C118 C115 1.367 . S
C118 C116 1.403 . S
C118 H125 0.929 . S
N119 Eu84 2.562 . S
N119 C120 1.325 . S
N119 C122 1.351 . S
C120 H106 0.929 . S
C120 N119 1.325 . S
C120 C124 1.416 . S
C121 C122 1.430 . S
C121 C123 1.404 . S
C121 C150 1.387 . S
C122 C114 1.448 . S
C122 N119 1.351 . S
C122 C121 1.430 . S
C123 H112 0.930 . S
C123 C121 1.404 . S
C123 C124 1.366 . S
C124 H103 0.930 . S
C124 C120 1.416 . S
C124 C123 1.366 . S
H125 C118 0.929 . S
H126 C149 0.931 1_455 S
H127 C150 0.931 1_455 S
O128 Eu84 2.462 . S
O128 C148 1.252 . S
O129 Eu84 2.373 . S
O129 C140 1.249 . S
O130 Eu95 2.335 . S
O130 C140 1.264 . S
O131 Eu84 2.432 . S
O131 C148 1.268 . S
O132 Eu84 2.291 . S
O132 C147 1.255 . S
O133 Eu95 2.372 . S
O133 C147 1.257 . S
O134 Eu95 2.462 1_545 S
O134 C159 1.252 . S
O135 Eu95 2.373 . S
O135 C151 1.249 . S
O136 Eu84 2.335 . S
O136 C151 1.264 . S
O137 Eu95 2.432 1_545 S
O137 C159 1.268 . S
O138 Eu95 2.291 . S
O138 C158 1.255 . S
O139 Eu84 2.372 . S
O139 C158 1.257 . S
C140 O129 1.249 . S
C140 O130 1.264 . S
C141 C144 1.382 . S
C141 C146 1.390 . S
C141 C148 1.506 . S
C142 C143 1.398 . S
C142 C146 1.392 . S
C143 C142 1.398 . S
C143 C145 1.372 . S
C143 H160 0.931 . S
C144 C141 1.382 . S
C144 C145 1.390 . S
C144 H161 0.931 . S
C145 C143 1.372 . S
C145 C144 1.390 . S
C145 H162 0.929 . S
C146 C141 1.390 . S
C146 C142 1.392 . S
C146 H163 0.930 . S
C147 O132 1.255 . S
C147 O133 1.257 . S
C148 Eu84 2.787 . S
C148 O128 1.252 . S
C148 O131 1.268 . S
C148 C141 1.506 . S
C149 C116 1.439 . S
C149 H126 0.931 1_655 S
C149 C150 1.374 . S
C150 C121 1.387 . S
C150 H127 0.931 1_655 S
C150 C149 1.374 . S
C151 O135 1.249 . S
C151 O136 1.264 . S
C152 C155 1.382 . S
C152 C156 1.390 . S
C152 C159 1.506 . S
C153 C154 1.398 . S
C153 C156 1.392 . S
C154 C153 1.398 . S
C154 C157 1.372 . S
C154 H164 0.931 . S
C155 C152 1.382 . S
C155 C157 1.390 . S
C155 H165 0.931 . S
C156 C152 1.390 . S
C156 C153 1.392 . S
C156 H166 0.930 . S
C157 C154 1.372 . S
C157 C155 1.390 . S
C157 H167 0.929 . S
C158 O138 1.255 . S
C158 O139 1.257 . S
C159 Eu95 2.787 1_545 S
C159 O134 1.252 . S
C159 O137 1.268 . S
C159 C152 1.506 . S
H160 C143 0.931 . S
H161 C144 0.931 . S
H162 C145 0.929 . S
H163 C146 0.930 . S
H164 C154 0.931 . S
H165 C155 0.931 . S
H166 C156 0.930 . S
H167 C157 0.929 . S
Eu168 N197 2.600 . S
Eu168 N203 2.562 . S
Eu168 O212 2.462 . S
Eu168 O213 2.373 . S
Eu168 O215 2.432 . S
Eu168 O216 2.291 . S
Eu168 O220 2.335 . S
Eu168 O223 2.372 . S
Eu168 C232 2.787 . S
C169 N170 1.365 . S
C169 C172 1.405 . S
C169 C176 1.448 . S
N170 C169 1.365 . S
N170 C173 1.319 . S
N170 Eu179 2.600 . S
C171 C173 1.397 . S
C171 C174 1.367 . S
C171 H191 0.931 . S
C172 C169 1.405 . S
C172 C174 1.403 . S
C172 C178 1.439 . S
C173 N170 1.319 . S
C173 C171 1.397 . S
C173 H184 0.930 . S
C174 C171 1.367 . S
C174 C172 1.403 . S
C174 H195 0.929 . S
C175 C176 1.430 . S
C175 C177 1.387 . S
C175 C181 1.404 . S
C176 C169 1.448 . S
C176 C175 1.430 . S
C176 N180 1.351 . S
C177 C175 1.387 . S
C177 C178 1.374 . S
C177 H192 0.933 . S
C178 C172 1.439 . S
C178 C177 1.374 . S
C178 H193 0.931 . S
Eu179 N170 2.600 . S
Eu179 N180 2.562 . S
Eu179 O214 2.335 . S
Eu179 O217 2.372 . S
Eu179 O218 2.462 1_565 S
Eu179 O219 2.373 . S
Eu179 O221 2.432 1_565 S
Eu179 O222 2.291 . S
Eu179 C243 2.787 1_565 S
N180 C176 1.351 . S
N180 Eu179 2.562 . S
N180 C182 1.325 . S
C181 C175 1.404 . S
C181 C183 1.366 . S
C181 H189 0.930 1_565 S
C182 N180 1.325 . S
C182 C183 1.416 . S
C182 H188 0.929 . S
C183 C181 1.366 . S
C183 C182 1.416 . S
C183 H185 0.930 . S
H184 C173 0.930 . S
H185 C183 0.930 . S
H186 C201 0.930 . S
H187 C208 0.930 . S
H188 C182 0.929 . S
H189 C181 0.930 1_545 S
H190 C204 0.929 . S
H191 C171 0.931 . S
H192 C177 0.933 . S
H193 C178 0.931 . S
H194 C199 0.931 . S
H195 C174 0.929 . S
H196 C207 0.930 . S
N197 Eu168 2.600 . S
N197 C198 1.365 . S
N197 C201 1.319 . S
C198 N197 1.365 . S
C198 C200 1.405 . S
C198 C206 1.448 . S
C199 H194 0.931 . S
C199 C201 1.397 . S
C199 C202 1.367 . S
C200 C198 1.405 . S
C200 C202 1.403 . S
C200 C233 1.439 . S
C201 H186 0.930 . S
C201 N197 1.319 . S
C201 C199 1.397 . S
C202 C199 1.367 . S
C202 C200 1.403 . S
C202 H209 0.929 . S
N203 Eu168 2.562 . S
N203 C204 1.325 . S
N203 C206 1.351 . S
C204 H190 0.929 . S
C204 N203 1.325 . S
C204 C208 1.416 . S
C205 C206 1.430 . S
C205 C207 1.404 . S
C205 C234 1.387 . S
C206 C198 1.448 . S
C206 N203 1.351 . S
C206 C205 1.430 . S
C207 H196 0.930 . S
C207 C205 1.404 . S
C207 C208 1.366 . S
C208 H187 0.930 . S
C208 C204 1.416 . S
C208 C207 1.366 . S
H209 C202 0.929 . S
H210 C233 0.931 1_655 S
H211 C234 0.931 1_655 S
O212 Eu168 2.462 . S
O212 C232 1.252 . S
O213 Eu168 2.373 . S
O213 C224 1.249 . S
O214 Eu179 2.335 . S
O214 C224 1.264 . S
O215 Eu168 2.432 . S
O215 C232 1.268 . S
O216 Eu168 2.291 . S
O216 C231 1.255 . S
O217 Eu179 2.372 . S
O217 C231 1.257 . S
O218 Eu179 2.462 1_545 S
O218 C243 1.252 . S
O219 Eu179 2.373 . S
O219 C235 1.249 . S
O220 Eu168 2.335 . S
O220 C235 1.264 . S
O221 Eu179 2.432 1_545 S
O221 C243 1.268 . S
O222 Eu179 2.291 . S
O222 C242 1.255 . S
O223 Eu168 2.372 . S
O223 C242 1.257 . S
C224 O213 1.249 . S
C224 O214 1.264 . S
C225 C228 1.382 . S
C225 C230 1.390 . S
C225 C232 1.506 . S
C226 C227 1.398 . S
C226 C230 1.392 . S
C227 C226 1.398 . S
C227 C229 1.372 . S
C227 H244 0.931 . S
C228 C225 1.382 . S
C228 C229 1.390 . S
C228 H245 0.931 . S
C229 C227 1.372 . S
C229 C228 1.390 . S
C229 H246 0.929 . S
C230 C225 1.390 . S
C230 C226 1.392 . S
C230 H247 0.930 . S
C231 O216 1.255 . S
C231 O217 1.257 . S
C232 Eu168 2.787 . S
C232 O212 1.252 . S
C232 O215 1.268 . S
C232 C225 1.506 . S
C233 C200 1.439 . S
C233 H210 0.931 1_455 S
C233 C234 1.374 . S
C234 C205 1.387 . S
C234 H211 0.931 1_455 S
C234 C233 1.374 . S
C235 O219 1.249 . S
C235 O220 1.264 . S
C236 C239 1.382 . S
C236 C240 1.390 . S
C236 C243 1.506 . S
C237 C238 1.398 . S
C237 C240 1.392 . S
C238 C237 1.398 . S
C238 C241 1.372 . S
C238 H248 0.931 . S
C239 C236 1.382 . S
C239 C241 1.390 . S
C239 H249 0.931 . S
C240 C236 1.390 . S
C240 C237 1.392 . S
C240 H250 0.930 . S
C241 C238 1.372 . S
C241 C239 1.390 . S
C241 H251 0.929 . S
C242 O222 1.255 . S
C242 O223 1.257 . S
C243 Eu179 2.787 1_545 S
C243 O218 1.252 . S
C243 O221 1.268 . S
C243 C236 1.506 . S
H244 C227 0.931 . S
H245 C228 0.931 . S
H246 C229 0.929 . S
H247 C230 0.930 . S
H248 C238 0.931 . S
H249 C239 0.931 . S
H250 C240 0.930 . S
H251 C241 0.929 . S
Eu252 N281 2.600 . S
Eu252 N287 2.562 . S
Eu252 O296 2.462 . S
Eu252 O297 2.373 . S
Eu252 O299 2.432 . S
Eu252 O300 2.291 . S
Eu252 O304 2.335 . S
Eu252 O307 2.372 . S
Eu252 C316 2.787 . S
C253 N254 1.365 . S
C253 C256 1.405 . S
C253 C260 1.448 . S
N254 C253 1.365 . S
N254 C257 1.319 . S
N254 Eu263 2.600 . S
C255 C257 1.397 . S
C255 C258 1.367 . S
C255 H275 0.931 . S
C256 C253 1.405 . S
C256 C258 1.403 . S
C256 C262 1.439 . S
C257 N254 1.319 . S
C257 C255 1.397 . S
C257 H268 0.930 . S
C258 C255 1.367 . S
C258 C256 1.403 . S
C258 H279 0.929 . S
C259 C260 1.430 . S
C259 C261 1.387 . S
C259 C265 1.404 . S
C260 C253 1.448 . S
C260 C259 1.430 . S
C260 N264 1.351 . S
C261 C259 1.387 . S
C261 C262 1.374 . S
C261 H276 0.933 . S
C262 C256 1.439 . S
C262 C261 1.374 . S
C262 H277 0.931 . S
Eu263 N254 2.600 . S
Eu263 N264 2.562 . S
Eu263 O298 2.335 . S
Eu263 O301 2.372 . S
Eu263 O302 2.462 1_545 S
Eu263 O303 2.373 . S
Eu263 O305 2.432 1_545 S
Eu263 O306 2.291 . S
Eu263 C327 2.787 1_545 S
N264 C260 1.351 . S
N264 Eu263 2.562 . S
N264 C266 1.325 . S
C265 C259 1.404 . S
C265 C267 1.366 . S
C265 H273 0.930 1_545 S
C266 N264 1.325 . S
C266 C267 1.416 . S
C266 H272 0.929 . S
C267 C265 1.366 . S
C267 C266 1.416 . S
C267 H269 0.930 . S
H268 C257 0.930 . S
H269 C267 0.930 . S
H270 C285 0.930 . S
H271 C292 0.930 . S
H272 C266 0.929 . S
H273 C265 0.930 1_565 S
H274 C288 0.929 . S
H275 C255 0.931 . S
H276 C261 0.933 . S
H277 C262 0.931 . S
H278 C283 0.931 . S
H279 C258 0.929 . S
H280 C291 0.930 . S
N281 Eu252 2.600 . S
N281 C282 1.365 . S
N281 C285 1.319 . S
C282 N281 1.365 . S
C282 C284 1.405 . S
C282 C290 1.448 . S
C283 H278 0.931 . S
C283 C285 1.397 . S
C283 C286 1.367 . S
C284 C282 1.405 . S
C284 C286 1.403 . S
C284 C317 1.439 . S
C285 H270 0.930 . S
C285 N281 1.319 . S
C285 C283 1.397 . S
C286 C283 1.367 . S
C286 C284 1.403 . S
C286 H293 0.929 . S
N287 Eu252 2.562 . S
N287 C288 1.325 . S
N287 C290 1.351 . S
C288 H274 0.929 . S
C288 N287 1.325 . S
C288 C292 1.416 . S
C289 C290 1.430 . S
C289 C291 1.404 . S
C289 C318 1.387 . S
C290 C282 1.448 . S
C290 N287 1.351 . S
C290 C289 1.430 . S
C291 H280 0.930 . S
C291 C289 1.404 . S
C291 C292 1.366 . S
C292 H271 0.930 . S
C292 C288 1.416 . S
C292 C291 1.366 . S
H293 C286 0.929 . S
H294 C317 0.931 1_455 S
H295 C318 0.931 1_455 S
O296 Eu252 2.462 . S
O296 C316 1.252 . S
O297 Eu252 2.373 . S
O297 C308 1.249 . S
O298 Eu263 2.335 . S
O298 C308 1.264 . S
O299 Eu252 2.432 . S
O299 C316 1.268 . S
O300 Eu252 2.291 . S
O300 C315 1.255 . S
O301 Eu263 2.372 . S
O301 C315 1.257 . S
O302 Eu263 2.462 1_565 S
O302 C327 1.252 . S
O303 Eu263 2.373 . S
O303 C319 1.249 . S
O304 Eu252 2.335 . S
O304 C319 1.264 . S
O305 Eu263 2.432 1_565 S
O305 C327 1.268 . S
O306 Eu263 2.291 . S
O306 C326 1.255 . S
O307 Eu252 2.372 . S
O307 C326 1.257 . S
C308 O297 1.249 . S
C308 O298 1.264 . S
C309 C312 1.382 . S
C309 C314 1.390 . S
C309 C316 1.506 . S
C310 C311 1.398 . S
C310 C314 1.392 . S
C311 C310 1.398 . S
C311 C313 1.372 . S
C311 H328 0.931 . S
C312 C309 1.382 . S
C312 C313 1.390 . S
C312 H329 0.931 . S
C313 C311 1.372 . S
C313 C312 1.390 . S
C313 H330 0.929 . S
C314 C309 1.390 . S
C314 C310 1.392 . S
C314 H331 0.930 . S
C315 O300 1.255 . S
C315 O301 1.257 . S
C316 Eu252 2.787 . S
C316 O296 1.252 . S
C316 O299 1.268 . S
C316 C309 1.506 . S
C317 C284 1.439 . S
C317 H294 0.931 1_655 S
C317 C318 1.374 . S
C318 C289 1.387 . S
C318 H295 0.931 1_655 S
C318 C317 1.374 . S
C319 O303 1.249 . S
C319 O304 1.264 . S
C320 C323 1.382 . S
C320 C324 1.390 . S
C320 C327 1.506 . S
C321 C322 1.398 . S
C321 C324 1.392 . S
C322 C321 1.398 . S
C322 C325 1.372 . S
C322 H332 0.931 . S
C323 C320 1.382 . S
C323 C325 1.390 . S
C323 H333 0.931 . S
C324 C320 1.390 . S
C324 C321 1.392 . S
C324 H334 0.930 . S
C325 C322 1.372 . S
C325 C323 1.390 . S
C325 H335 0.929 . S
C326 O306 1.255 . S
C326 O307 1.257 . S
C327 Eu263 2.787 1_565 S
C327 O302 1.252 . S
C327 O305 1.268 . S
C327 C320 1.506 . S
H328 C311 0.931 . S
H329 C312 0.931 . S
H330 C313 0.929 . S
H331 C314 0.930 . S
H332 C322 0.931 . S
H333 C323 0.931 . S
H334 C324 0.930 . S
H335 C325 0.929 . S
Eu336 N365 2.600 . S
Eu336 N371 2.562 . S
Eu336 O380 2.462 1_565 S
Eu336 O381 2.373 . S
Eu336 O383 2.432 1_565 S
Eu336 O384 2.291 . S
Eu336 O388 2.335 . S
Eu336 O391 2.372 . S
Eu336 C400 2.787 1_565 S
C337 N338 1.365 . S
C337 C340 1.405 . S
C337 C344 1.448 . S
N338 C337 1.365 . S
N338 C341 1.319 . S
N338 Eu347 2.600 . S
C339 C341 1.397 . S
C339 C342 1.367 . S
C339 H359 0.931 . S
C340 C337 1.405 . S
C340 C342 1.403 . S
C340 C346 1.439 . S
C341 N338 1.319 . S
C341 C339 1.397 . S
C341 H352 0.930 . S
C342 C339 1.367 . S
C342 C340 1.403 . S
C342 H363 0.929 . S
C343 C344 1.430 . S
C343 C345 1.387 . S
C343 C349 1.404 . S
C344 C337 1.448 . S
C344 C343 1.430 . S
C344 N348 1.351 . S
C345 C343 1.387 . S
C345 C346 1.374 . S
C345 H360 0.931 1_655 S
C346 C340 1.439 . S
C346 C345 1.374 . S
C346 H361 0.931 1_655 S
Eu347 N338 2.600 . S
Eu347 N348 2.562 . S
Eu347 O382 2.335 . S
Eu347 O385 2.372 . S
Eu347 O386 2.462 . S
Eu347 O387 2.373 . S
Eu347 O389 2.432 . S
Eu347 O390 2.291 . S
Eu347 C411 2.787 . S
N348 C344 1.351 . S
N348 Eu347 2.562 . S
N348 C350 1.325 . S
C349 C343 1.404 . S
C349 C351 1.366 . S
C349 H357 0.930 . S
C350 N348 1.325 . S
C350 C351 1.416 . S
C350 H356 0.929 . S
C351 C349 1.366 . S
C351 C350 1.416 . S
C351 H353 0.930 . S
H352 C341 0.930 . S
H353 C351 0.930 . S
H354 C369 0.930 . S
H355 C376 0.930 . S
H356 C350 0.929 . S
H357 C349 0.930 . S
H358 C372 0.929 . S
H359 C339 0.931 . S
H360 C345 0.931 1_455 S
H361 C346 0.931 1_455 S
H362 C367 0.931 . S
H363 C342 0.929 . S
H364 C375 0.930 1_545 S
N365 Eu336 2.600 . S
N365 C366 1.365 . S
N365 C369 1.319 . S
C366 N365 1.365 . S
C366 C368 1.405 . S
C366 C374 1.448 . S
C367 H362 0.931 . S
C367 C369 1.397 . S
C367 C370 1.367 . S
C368 C366 1.405 . S
C368 C370 1.403 . S
C368 C401 1.439 . S
C369 H354 0.930 . S
C369 N365 1.319 . S
C369 C367 1.397 . S
C370 C367 1.367 . S
C370 C368 1.403 . S
C370 H377 0.929 . S
N371 Eu336 2.562 . S
N371 C372 1.325 . S
N371 C374 1.351 . S
C372 H358 0.929 . S
C372 N371 1.325 . S
C372 C376 1.416 . S
C373 C374 1.430 . S
C373 C375 1.404 . S
C373 C402 1.387 . S
C374 C366 1.448 . S
C374 N371 1.351 . S
C374 C373 1.430 . S
C375 H364 0.930 1_565 S
C375 C373 1.404 . S
C375 C376 1.366 . S
C376 H355 0.930 . S
C376 C372 1.416 . S
C376 C375 1.366 . S
H377 C370 0.929 . S
H378 C401 0.931 . S
H379 C402 0.933 . S
O380 Eu336 2.462 1_545 S
O380 C400 1.252 . S
O381 Eu336 2.373 . S
O381 C392 1.249 . S
O382 Eu347 2.335 . S
O382 C392 1.264 . S
O383 Eu336 2.432 1_545 S
O383 C400 1.268 . S
O384 Eu336 2.291 . S
O384 C399 1.255 . S
O385 Eu347 2.372 . S
O385 C399 1.257 . S
O386 Eu347 2.462 . S
O386 C411 1.252 . S
O387 Eu347 2.373 . S
O387 C403 1.249 . S
O388 Eu336 2.335 . S
O388 C403 1.264 . S
O389 Eu347 2.432 . S
O389 C411 1.268 . S
O390 Eu347 2.291 . S
O390 C410 1.255 . S
O391 Eu336 2.372 . S
O391 C410 1.257 . S
C392 O381 1.249 . S
C392 O382 1.264 . S
C393 C396 1.382 . S
C393 C398 1.390 . S
C393 C400 1.506 . S
C394 C395 1.398 . S
C394 C398 1.392 . S
C395 C394 1.398 . S
C395 C397 1.372 . S
C395 H412 0.931 . S
C396 C393 1.382 . S
C396 C397 1.390 . S
C396 H413 0.931 . S
C397 C395 1.372 . S
C397 C396 1.390 . S
C397 H414 0.929 . S
C398 C393 1.390 . S
C398 C394 1.392 . S
C398 H415 0.930 . S
C399 O384 1.255 . S
C399 O385 1.257 . S
C400 Eu336 2.787 1_545 S
C400 O380 1.252 . S
C400 O383 1.268 . S
C400 C393 1.506 . S
C401 C368 1.439 . S
C401 H378 0.931 . S
C401 C402 1.374 . S
C402 C373 1.387 . S
C402 H379 0.933 . S
C402 C401 1.374 . S
C403 O387 1.249 . S
C403 O388 1.264 . S
C404 C407 1.382 . S
C404 C408 1.390 . S
C404 C411 1.506 . S
C405 C406 1.398 . S
C405 C408 1.392 . S
C406 C405 1.398 . S
C406 C409 1.372 . S
C406 H416 0.931 . S
C407 C404 1.382 . S
C407 C409 1.390 . S
C407 H417 0.931 . S
C408 C404 1.390 . S
C408 C405 1.392 . S
C408 H418 0.930 . S
C409 C406 1.372 . S
C409 C407 1.390 . S
C409 H419 0.929 . S
C410 O390 1.255 . S
C410 O391 1.257 . S
C411 Eu347 2.787 . S
C411 O386 1.252 . S
C411 O389 1.268 . S
C411 C404 1.506 . S
H412 C395 0.931 . S
H413 C396 0.931 . S
H414 C397 0.929 . S
H415 C398 0.930 . S
H416 C406 0.931 . S
H417 C407 0.931 . S
H418 C408 0.930 . S
H419 C409 0.929 . S
Eu420 N449 2.600 . S
Eu420 N455 2.562 . S
Eu420 O464 2.462 1_545 S
Eu420 O465 2.373 . S
Eu420 O467 2.432 1_545 S
Eu420 O468 2.291 . S
Eu420 O472 2.335 . S
Eu420 O475 2.372 . S
Eu420 C484 2.787 1_545 S
C421 N422 1.365 . S
C421 C424 1.405 . S
C421 C428 1.448 . S
N422 C421 1.365 . S
N422 C425 1.319 . S
N422 Eu431 2.600 . S
C423 C425 1.397 . S
C423 C426 1.367 . S
C423 H443 0.931 . S
C424 C421 1.405 . S
C424 C426 1.403 . S
C424 C430 1.439 . S
C425 N422 1.319 . S
C425 C423 1.397 . S
C425 H436 0.930 . S
C426 C423 1.367 . S
C426 C424 1.403 . S
C426 H447 0.929 . S
C427 C428 1.430 . S
C427 C429 1.387 . S
C427 C433 1.404 . S
C428 C421 1.448 . S
C428 C427 1.430 . S
C428 N432 1.351 . S
C429 C427 1.387 . S
C429 C430 1.374 . S
C429 H444 0.931 1_455 S
C430 C424 1.439 . S
C430 C429 1.374 . S
C430 H445 0.931 1_455 S
Eu431 N422 2.600 . S
Eu431 N432 2.562 . S
Eu431 O466 2.335 . S
Eu431 O469 2.372 . S
Eu431 O470 2.462 . S
Eu431 O471 2.373 . S
Eu431 O473 2.432 . S
Eu431 O474 2.291 . S
Eu431 C495 2.787 . S
N432 C428 1.351 . S
N432 Eu431 2.562 . S
N432 C434 1.325 . S
C433 C427 1.404 . S
C433 C435 1.366 . S
C433 H441 0.930 . S
C434 N432 1.325 . S
C434 C435 1.416 . S
C434 H440 0.929 . S
C435 C433 1.366 . S
C435 C434 1.416 . S
C435 H437 0.930 . S
H436 C425 0.930 . S
H437 C435 0.930 . S
H438 C453 0.930 . S
H439 C460 0.930 . S
H440 C434 0.929 . S
H441 C433 0.930 . S
H442 C456 0.929 . S
H443 C423 0.931 . S
H444 C429 0.931 1_655 S
H445 C430 0.931 1_655 S
H446 C451 0.931 . S
H447 C426 0.929 . S
H448 C459 0.930 1_565 S
N449 Eu420 2.600 . S
N449 C450 1.365 . S
N449 C453 1.319 . S
C450 N449 1.365 . S
C450 C452 1.405 . S
C450 C458 1.448 . S
C451 H446 0.931 . S
C451 C453 1.397 . S
C451 C454 1.367 . S
C452 C450 1.405 . S
C452 C454 1.403 . S
C452 C485 1.439 . S
C453 H438 0.930 . S
C453 N449 1.319 . S
C453 C451 1.397 . S
C454 C451 1.367 . S
C454 C452 1.403 . S
C454 H461 0.929 . S
N455 Eu420 2.562 . S
N455 C456 1.325 . S
N455 C458 1.351 . S
C456 H442 0.929 . S
C456 N455 1.325 . S
C456 C460 1.416 . S
C457 C458 1.430 . S
C457 C459 1.404 . S
C457 C486 1.387 . S
C458 C450 1.448 . S
C458 N455 1.351 . S
C458 C457 1.430 . S
C459 H448 0.930 1_545 S
C459 C457 1.404 . S
C459 C460 1.366 . S
C460 H439 0.930 . S
C460 C456 1.416 . S
C460 C459 1.366 . S
H461 C454 0.929 . S
H462 C485 0.931 . S
H463 C486 0.933 . S
O464 Eu420 2.462 1_565 S
O464 C484 1.252 . S
O465 Eu420 2.373 . S
O465 C476 1.249 . S
O466 Eu431 2.335 . S
O466 C476 1.264 . S
O467 Eu420 2.432 1_565 S
O467 C484 1.268 . S
O468 Eu420 2.291 . S
O468 C483 1.255 . S
O469 Eu431 2.372 . S
O469 C483 1.257 . S
O470 Eu431 2.462 . S
O470 C495 1.252 . S
O471 Eu431 2.373 . S
O471 C487 1.249 . S
O472 Eu420 2.335 . S
O472 C487 1.264 . S
O473 Eu431 2.432 . S
O473 C495 1.268 . S
O474 Eu431 2.291 . S
O474 C494 1.255 . S
O475 Eu420 2.372 . S
O475 C494 1.257 . S
C476 O465 1.249 . S
C476 O466 1.264 . S
C477 C480 1.382 . S
C477 C482 1.390 . S
C477 C484 1.506 . S
C478 C479 1.398 . S
C478 C482 1.392 . S
C479 C478 1.398 . S
C479 C481 1.372 . S
C479 H496 0.931 . S
C480 C477 1.382 . S
C480 C481 1.390 . S
C480 H497 0.931 . S
C481 C479 1.372 . S
C481 C480 1.390 . S
C481 H498 0.929 . S
C482 C477 1.390 . S
C482 C478 1.392 . S
C482 H499 0.930 . S
C483 O468 1.255 . S
C483 O469 1.257 . S
C484 Eu420 2.787 1_565 S
C484 O464 1.252 . S
C484 O467 1.268 . S
C484 C477 1.506 . S
C485 C452 1.439 . S
C485 H462 0.931 . S
C485 C486 1.374 . S
C486 C457 1.387 . S
C486 H463 0.933 . S
C486 C485 1.374 . S
C487 O471 1.249 . S
C487 O472 1.264 . S
C488 C491 1.382 . S
C488 C492 1.390 . S
C488 C495 1.506 . S
C489 C490 1.398 . S
C489 C492 1.392 . S
C490 C489 1.398 . S
C490 C493 1.372 . S
C490 H500 0.931 . S
C491 C488 1.382 . S
C491 C493 1.390 . S
C491 H501 0.931 . S
C492 C488 1.390 . S
C492 C489 1.392 . S
C492 H502 0.930 . S
C493 C490 1.372 . S
C493 C491 1.390 . S
C493 H503 0.929 . S
C494 O474 1.255 . S
C494 O475 1.257 . S
C495 Eu431 2.787 . S
C495 O470 1.252 . S
C495 O473 1.268 . S
C495 C488 1.506 . S
H496 C479 0.931 . S
H497 C480 0.931 . S
H498 C481 0.929 . S
H499 C482 0.930 . S
H500 C490 0.931 . S
H501 C491 0.931 . S
H502 C492 0.930 . S
H503 C493 0.929 . S
Eu504 N533 2.600 . S
Eu504 N539 2.562 . S
Eu504 O548 2.462 1_545 S
Eu504 O549 2.373 . S
Eu504 O551 2.432 1_545 S
Eu504 O552 2.291 . S
Eu504 O556 2.335 . S
Eu504 O559 2.372 . S
Eu504 C568 2.787 1_545 S
C505 N506 1.365 . S
C505 C508 1.405 . S
C505 C512 1.448 . S
N506 C505 1.365 . S
N506 C509 1.319 . S
N506 Eu515 2.600 . S
C507 C509 1.397 . S
C507 C510 1.367 . S
C507 H527 0.931 . S
C508 C505 1.405 . S
C508 C510 1.403 . S
C508 C514 1.439 . S
C509 N506 1.319 . S
C509 C507 1.397 . S
C509 H520 0.930 . S
C510 C507 1.367 . S
C510 C508 1.403 . S
C510 H531 0.929 . S
C511 C512 1.430 . S
C511 C513 1.387 . S
C511 C517 1.404 . S
C512 C505 1.448 . S
C512 C511 1.430 . S
C512 N516 1.351 . S
C513 C511 1.387 . S
C513 C514 1.374 . S
C513 H528 0.931 1_655 S
C514 C508 1.439 . S
C514 C513 1.374 . S
C514 H529 0.931 1_655 S
Eu515 N506 2.600 . S
Eu515 N516 2.562 . S
Eu515 O550 2.335 . S
Eu515 O553 2.372 . S
Eu515 O554 2.462 . S
Eu515 O555 2.373 . S
Eu515 O557 2.432 . S
Eu515 O558 2.291 . S
Eu515 C579 2.787 . S
N516 C512 1.351 . S
N516 Eu515 2.562 . S
N516 C518 1.325 . S
C517 C511 1.404 . S
C517 C519 1.366 . S
C517 H525 0.930 . S
C518 N516 1.325 . S
C518 C519 1.416 . S
C518 H524 0.929 . S
C519 C517 1.366 . S
C519 C518 1.416 . S
C519 H521 0.930 . S
H520 C509 0.930 . S
H521 C519 0.930 . S
H522 C537 0.930 . S
H523 C544 0.930 . S
H524 C518 0.929 . S
H525 C517 0.930 . S
H526 C540 0.929 . S
H527 C507 0.931 . S
H528 C513 0.931 1_455 S
H529 C514 0.931 1_455 S
H530 C535 0.931 . S
H531 C510 0.929 . S
H532 C543 0.930 1_565 S
N533 Eu504 2.600 . S
N533 C534 1.365 . S
N533 C537 1.319 . S
C534 N533 1.365 . S
C534 C536 1.405 . S
C534 C542 1.448 . S
C535 H530 0.931 . S
C535 C537 1.397 . S
C535 C538 1.367 . S
C536 C534 1.405 . S
C536 C538 1.403 . S
C536 C569 1.439 . S
C537 H522 0.930 . S
C537 N533 1.319 . S
C537 C535 1.397 . S
C538 C535 1.367 . S
C538 C536 1.403 . S
C538 H545 0.929 . S
N539 Eu504 2.562 . S
N539 C540 1.325 . S
N539 C542 1.351 . S
C540 H526 0.929 . S
C540 N539 1.325 . S
C540 C544 1.416 . S
C541 C542 1.430 . S
C541 C543 1.404 . S
C541 C570 1.387 . S
C542 C534 1.448 . S
C542 N539 1.351 . S
C542 C541 1.430 . S
C543 H532 0.930 1_545 S
C543 C541 1.404 . S
C543 C544 1.366 . S
C544 H523 0.930 . S
C544 C540 1.416 . S
C544 C543 1.366 . S
H545 C538 0.929 . S
H546 C569 0.931 . S
H547 C570 0.933 . S
O548 Eu504 2.462 1_565 S
O548 C568 1.252 . S
O549 Eu504 2.373 . S
O549 C560 1.249 . S
O550 Eu515 2.335 . S
O550 C560 1.264 . S
O551 Eu504 2.432 1_565 S
O551 C568 1.268 . S
O552 Eu504 2.291 . S
O552 C567 1.255 . S
O553 Eu515 2.372 . S
O553 C567 1.257 . S
O554 Eu515 2.462 . S
O554 C579 1.252 . S
O555 Eu515 2.373 . S
O555 C571 1.249 . S
O556 Eu504 2.335 . S
O556 C571 1.264 . S
O557 Eu515 2.432 . S
O557 C579 1.268 . S
O558 Eu515 2.291 . S
O558 C578 1.255 . S
O559 Eu504 2.372 . S
O559 C578 1.257 . S
C560 O549 1.249 . S
C560 O550 1.264 . S
C561 C564 1.382 . S
C561 C566 1.390 . S
C561 C568 1.506 . S
C562 C563 1.398 . S
C562 C566 1.392 . S
C563 C562 1.398 . S
C563 C565 1.372 . S
C563 H580 0.931 . S
C564 C561 1.382 . S
C564 C565 1.390 . S
C564 H581 0.931 . S
C565 C563 1.372 . S
C565 C564 1.390 . S
C565 H582 0.929 . S
C566 C561 1.390 . S
C566 C562 1.392 . S
C566 H583 0.930 . S
C567 O552 1.255 . S
C567 O553 1.257 . S
C568 Eu504 2.787 1_565 S
C568 O548 1.252 . S
C568 O551 1.268 . S
C568 C561 1.506 . S
C569 C536 1.439 . S
C569 H546 0.931 . S
C569 C570 1.374 . S
C570 C541 1.387 . S
C570 H547 0.933 . S
C570 C569 1.374 . S
C571 O555 1.249 . S
C571 O556 1.264 . S
C572 C575 1.382 . S
C572 C576 1.390 . S
C572 C579 1.506 . S
C573 C574 1.398 . S
C573 C576 1.392 . S
C574 C573 1.398 . S
C574 C577 1.372 . S
C574 H584 0.931 . S
C575 C572 1.382 . S
C575 C577 1.390 . S
C575 H585 0.931 . S
C576 C572 1.390 . S
C576 C573 1.392 . S
C576 H586 0.930 . S
C577 C574 1.372 . S
C577 C575 1.390 . S
C577 H587 0.929 . S
C578 O558 1.255 . S
C578 O559 1.257 . S
C579 Eu515 2.787 . S
C579 O554 1.252 . S
C579 O557 1.268 . S
C579 C572 1.506 . S
H580 C563 0.931 . S
H581 C564 0.931 . S
H582 C565 0.929 . S
H583 C566 0.930 . S
H584 C574 0.931 . S
H585 C575 0.931 . S
H586 C576 0.930 . S
H587 C577 0.929 . S
Eu588 N617 2.600 . S
Eu588 N623 2.562 . S
Eu588 O632 2.462 1_565 S
Eu588 O633 2.373 . S
Eu588 O635 2.432 1_565 S
Eu588 O636 2.291 . S
Eu588 O640 2.335 . S
Eu588 O643 2.372 . S
Eu588 C652 2.787 1_565 S
C589 N590 1.365 . S
C589 C592 1.405 . S
C589 C596 1.448 . S
N590 C589 1.365 . S
N590 C593 1.319 . S
N590 Eu599 2.600 . S
C591 C593 1.397 . S
C591 C594 1.367 . S
C591 H611 0.931 . S
C592 C589 1.405 . S
C592 C594 1.403 . S
C592 C598 1.439 . S
C593 N590 1.319 . S
C593 C591 1.397 . S
C593 H604 0.930 . S
C594 C591 1.367 . S
C594 C592 1.403 . S
C594 H615 0.929 . S
C595 C596 1.430 . S
C595 C597 1.387 . S
C595 C601 1.404 . S
C596 C589 1.448 . S
C596 C595 1.430 . S
C596 N600 1.351 . S
C597 C595 1.387 . S
C597 C598 1.374 . S
C597 H612 0.931 1_455 S
C598 C592 1.439 . S
C598 C597 1.374 . S
C598 H613 0.931 1_455 S
Eu599 N590 2.600 . S
Eu599 N600 2.562 . S
Eu599 O634 2.335 . S
Eu599 O637 2.372 . S
Eu599 O638 2.462 . S
Eu599 O639 2.373 . S
Eu599 O641 2.432 . S
Eu599 O642 2.291 . S
Eu599 C663 2.787 . S
N600 C596 1.351 . S
N600 Eu599 2.562 . S
N600 C602 1.325 . S
C601 C595 1.404 . S
C601 C603 1.366 . S
C601 H609 0.930 . S
C602 N600 1.325 . S
C602 C603 1.416 . S
C602 H608 0.929 . S
C603 C601 1.366 . S
C603 C602 1.416 . S
C603 H605 0.930 . S
H604 C593 0.930 . S
H605 C603 0.930 . S
H606 C621 0.930 . S
H607 C628 0.930 . S
H608 C602 0.929 . S
H609 C601 0.930 . S
H610 C624 0.929 . S
H611 C591 0.931 . S
H612 C597 0.931 1_655 S
H613 C598 0.931 1_655 S
H614 C619 0.931 . S
H615 C594 0.929 . S
H616 C627 0.930 1_545 S
N617 Eu588 2.600 . S
N617 C618 1.365 . S
N617 C621 1.319 . S
C618 N617 1.365 . S
C618 C620 1.405 . S
C618 C626 1.448 . S
C619 H614 0.931 . S
C619 C621 1.397 . S
C619 C622 1.367 . S
C620 C618 1.405 . S
C620 C622 1.403 . S
C620 C653 1.439 . S
C621 H606 0.930 . S
C621 N617 1.319 . S
C621 C619 1.397 . S
C622 C619 1.367 . S
C622 C620 1.403 . S
C622 H629 0.929 . S
N623 Eu588 2.562 . S
N623 C624 1.325 . S
N623 C626 1.351 . S
C624 H610 0.929 . S
C624 N623 1.325 . S
C624 C628 1.416 . S
C625 C626 1.430 . S
C625 C627 1.404 . S
C625 C654 1.387 . S
C626 C618 1.448 . S
C626 N623 1.351 . S
C626 C625 1.430 . S
C627 H616 0.930 1_565 S
C627 C625 1.404 . S
C627 C628 1.366 . S
C628 H607 0.930 . S
C628 C624 1.416 . S
C628 C627 1.366 . S
H629 C622 0.929 . S
H630 C653 0.931 . S
H631 C654 0.933 . S
O632 Eu588 2.462 1_545 S
O632 C652 1.252 . S
O633 Eu588 2.373 . S
O633 C644 1.249 . S
O634 Eu599 2.335 . S
O634 C644 1.264 . S
O635 Eu588 2.432 1_545 S
O635 C652 1.268 . S
O636 Eu588 2.291 . S
O636 C651 1.255 . S
O637 Eu599 2.372 . S
O637 C651 1.257 . S
O638 Eu599 2.462 . S
O638 C663 1.252 . S
O639 Eu599 2.373 . S
O639 C655 1.249 . S
O640 Eu588 2.335 . S
O640 C655 1.264 . S
O641 Eu599 2.432 . S
O641 C663 1.268 . S
O642 Eu599 2.291 . S
O642 C662 1.255 . S
O643 Eu588 2.372 . S
O643 C662 1.257 . S
C644 O633 1.249 . S
C644 O634 1.264 . S
C645 C648 1.382 . S
C645 C650 1.390 . S
C645 C652 1.506 . S
C646 C647 1.398 . S
C646 C650 1.392 . S
C647 C646 1.398 . S
C647 C649 1.372 . S
C647 H664 0.931 . S
C648 C645 1.382 . S
C648 C649 1.390 . S
C648 H665 0.931 . S
C649 C647 1.372 . S
C649 C648 1.390 . S
C649 H666 0.929 . S
C650 C645 1.390 . S
C650 C646 1.392 . S
C650 H667 0.930 . S
C651 O636 1.255 . S
C651 O637 1.257 . S
C652 Eu588 2.787 1_545 S
C652 O632 1.252 . S
C652 O635 1.268 . S
C652 C645 1.506 . S
C653 C620 1.439 . S
C653 H630 0.931 . S
C653 C654 1.374 . S
C654 C625 1.387 . S
C654 H631 0.933 . S
C654 C653 1.374 . S
C655 O639 1.249 . S
C655 O640 1.264 . S
C656 C659 1.382 . S
C656 C660 1.390 . S
C656 C663 1.506 . S
C657 C658 1.398 . S
C657 C660 1.392 . S
C658 C657 1.398 . S
C658 C661 1.372 . S
C658 H668 0.931 . S
C659 C656 1.382 . S
C659 C661 1.390 . S
C659 H669 0.931 . S
C660 C656 1.390 . S
C660 C657 1.392 . S
C660 H670 0.930 . S
C661 C658 1.372 . S
C661 C659 1.390 . S
C661 H671 0.929 . S
C662 O642 1.255 . S
C662 O643 1.257 . S
C663 Eu599 2.787 . S
C663 O638 1.252 . S
C663 O641 1.268 . S
C663 C656 1.506 . S
H664 C647 0.931 . S
H665 C648 0.931 . S
H666 C649 0.929 . S
H667 C650 0.930 . S
H668 C658 0.931 . S
H669 C659 0.931 . S
H670 C660 0.930 . S
H671 C661 0.929 . S
Eu672 N701 2.600 . S
Eu672 N707 2.562 . S
Eu672 O716 2.462 . S
Eu672 O717 2.373 . S
Eu672 O719 2.432 . S
Eu672 O720 2.291 . S
Eu672 O724 2.335 . S
Eu672 O727 2.372 . S
Eu672 C736 2.787 . S
C673 N674 1.365 . S
C673 C676 1.405 . S
C673 C680 1.448 . S
N674 C673 1.365 . S
N674 C677 1.319 . S
N674 Eu683 2.600 . S
C675 C677 1.397 . S
C675 C678 1.367 . S
C675 H695 0.931 . S
C676 C673 1.405 . S
C676 C678 1.403 . S
C676 C682 1.439 . S
C677 N674 1.319 . S
C677 C675 1.397 . S
C677 H688 0.930 . S
C678 C675 1.367 . S
C678 C676 1.403 . S
C678 H699 0.929 . S
C679 C680 1.430 . S
C679 C681 1.387 . S
C679 C685 1.404 . S
C680 C673 1.448 . S
C680 C679 1.430 . S
C680 N684 1.351 . S
C681 C679 1.387 . S
C681 C682 1.374 . S
C681 H696 0.931 . S
C682 C676 1.439 . S
C682 C681 1.374 . S
C682 H697 0.931 . S
Eu683 N674 2.600 . S
Eu683 N684 2.562 . S
Eu683 O718 2.335 . S
Eu683 O721 2.372 . S
Eu683 O722 2.462 . S
Eu683 O723 2.373 . S
Eu683 O725 2.432 . S
Eu683 O726 2.291 . S
Eu683 C747 2.787 . S
N684 C680 1.351 . S
N684 Eu683 2.562 . S
N684 C686 1.325 . S
C685 C679 1.404 . S
C685 C687 1.366 . S
C685 H693 0.930 . S
C686 N684 1.325 . S
C686 C687 1.416 . S
C686 H692 0.929 . S
C687 C685 1.366 . S
C687 C686 1.416 . S
C687 H689 0.930 . S
H688 C677 0.930 . S
H689 C687 0.930 . S
H690 C705 0.930 . S
H691 C712 0.930 . S
H692 C686 0.929 . S
H693 C685 0.930 . S
H694 C708 0.929 . S
H695 C675 0.931 . S
H696 C681 0.931 . S
H697 C682 0.931 . S
H698 C703 0.931 . S
H699 C678 0.929 . S
H700 C711 0.930 . S
N701 Eu672 2.600 . S
N701 C702 1.365 . S
N701 C705 1.319 . S
C702 N701 1.365 . S
C702 C704 1.405 . S
C702 C710 1.448 . S
C703 H698 0.931 . S
C703 C705 1.397 . S
C703 C706 1.367 . S
C704 C702 1.405 . S
C704 C706 1.403 . S
C704 C737 1.439 . S
C705 H690 0.930 . S
C705 N701 1.319 . S
C705 C703 1.397 . S
C706 C703 1.367 . S
C706 C704 1.403 . S
C706 H713 0.929 . S
N707 Eu672 2.562 . S
N707 C708 1.325 . S
N707 C710 1.351 . S
C708 H694 0.929 . S
C708 N707 1.325 . S
C708 C712 1.416 . S
C709 C710 1.430 . S
C709 C711 1.404 . S
C709 C738 1.387 . S
C710 C702 1.448 . S
C710 N707 1.351 . S
C710 C709 1.430 . S
C711 H700 0.930 . S
C711 C709 1.404 . S
C711 C712 1.366 . S
C712 H691 0.930 . S
C712 C708 1.416 . S
C712 C711 1.366 . S
H713 C706 0.929 . S
H714 C737 0.931 . S
H715 C738 0.931 . S
O716 Eu672 2.462 . S
O716 C736 1.252 . S
O717 Eu672 2.373 . S
O717 C728 1.249 . S
O718 Eu683 2.335 . S
O718 C728 1.264 . S
O719 Eu672 2.432 . S
O719 C736 1.268 . S
O720 Eu672 2.291 . S
O720 C735 1.255 . S
O721 Eu683 2.372 . S
O721 C735 1.257 . S
O722 Eu683 2.462 . S
O722 C747 1.252 . S
O723 Eu683 2.373 . S
O723 C739 1.249 . S
O724 Eu672 2.335 . S
O724 C739 1.264 . S
O725 Eu683 2.432 . S
O725 C747 1.268 . S
O726 Eu683 2.291 . S
O726 C746 1.255 . S
O727 Eu672 2.372 . S
O727 C746 1.257 . S
C728 O717 1.249 . S
C728 O718 1.264 . S
C729 C732 1.382 . S
C729 C734 1.390 . S
C729 C736 1.506 . S
C730 C731 1.398 . S
C730 C734 1.392 . S
C731 C730 1.398 . S
C731 C733 1.372 . S
C731 H748 0.914 1_565 S
C732 C729 1.382 . S
C732 C733 1.390 . S
C732 H749 0.931 . S
C733 C731 1.372 . S
C733 C732 1.390 . S
C733 H750 0.929 . S
C734 C729 1.390 . S
C734 C730 1.392 . S
C734 H751 0.930 . S
C735 O720 1.255 . S
C735 O721 1.257 . S
C736 Eu672 2.787 . S
C736 O716 1.252 . S
C736 O719 1.268 . S
C736 C729 1.506 . S
C737 C704 1.439 . S
C737 H714 0.931 . S
C737 C738 1.374 . S
C738 C709 1.387 . S
C738 H715 0.931 . S
C738 C737 1.374 . S
C739 O723 1.249 . S
C739 O724 1.264 . S
C740 C743 1.382 . S
C740 C744 1.390 . S
C740 C747 1.506 . S
C741 C742 1.398 . S
C741 C744 1.392 . S
C742 C741 1.398 . S
C742 C745 1.372 . S
C742 H752 0.931 . S
C743 C740 1.382 . S
C743 C745 1.390 . S
C743 H753 0.931 . S
C744 C740 1.390 . S
C744 C741 1.392 . S
C744 H754 0.930 . S
C745 C742 1.372 . S
C745 C743 1.390 . S
C745 H755 0.929 . S
C746 O726 1.255 . S
C746 O727 1.257 . S
C747 Eu683 2.787 . S
C747 O722 1.252 . S
C747 O725 1.268 . S
C747 C740 1.506 . S
H748 C731 0.914 1_545 S
H749 C732 0.931 . S
H750 C733 0.929 . S
H751 C734 0.930 . S
H752 C742 0.931 . S
H753 C743 0.931 . S
H754 C744 0.930 . S
H755 C745 0.929 . S
Eu756 N785 2.600 . S
Eu756 N791 2.562 . S
Eu756 O800 2.462 . S
Eu756 O801 2.373 . S
Eu756 O803 2.432 . S
Eu756 O804 2.291 . S
Eu756 O808 2.335 . S
Eu756 O811 2.372 . S
Eu756 C820 2.787 . S
C757 N758 1.365 . S
C757 C760 1.405 . S
C757 C764 1.448 . S
N758 C757 1.365 . S
N758 C761 1.319 . S
N758 Eu767 2.600 . S
C759 C761 1.397 . S
C759 C762 1.367 . S
C759 H779 0.931 . S
C760 C757 1.405 . S
C760 C762 1.403 . S
C760 C766 1.439 . S
C761 N758 1.319 . S
C761 C759 1.397 . S
C761 H772 0.930 . S
C762 C759 1.367 . S
C762 C760 1.403 . S
C762 H783 0.929 . S
C763 C764 1.430 . S
C763 C765 1.387 . S
C763 C769 1.404 . S
C764 C757 1.448 . S
C764 C763 1.430 . S
C764 N768 1.351 . S
C765 C763 1.387 . S
C765 C766 1.374 . S
C765 H780 0.931 . S
C766 C760 1.439 . S
C766 C765 1.374 . S
C766 H781 0.931 . S
Eu767 N758 2.600 . S
Eu767 N768 2.562 . S
Eu767 O802 2.335 . S
Eu767 O805 2.372 . S
Eu767 O806 2.462 . S
Eu767 O807 2.373 . S
Eu767 O809 2.432 . S
Eu767 O810 2.291 . S
Eu767 C831 2.787 . S
N768 C764 1.351 . S
N768 Eu767 2.562 . S
N768 C770 1.325 . S
C769 C763 1.404 . S
C769 C771 1.366 . S
C769 H777 0.930 . S
C770 N768 1.325 . S
C770 C771 1.416 . S
C770 H776 0.929 . S
C771 C769 1.366 . S
C771 C770 1.416 . S
C771 H773 0.930 . S
H772 C761 0.930 . S
H773 C771 0.930 . S
H774 C789 0.930 . S
H775 C796 0.930 . S
H776 C770 0.929 . S
H777 C769 0.930 . S
H778 C792 0.929 . S
H779 C759 0.931 . S
H780 C765 0.931 . S
H781 C766 0.931 . S
H782 C787 0.931 . S
H783 C762 0.929 . S
H784 C795 0.930 . S
N785 Eu756 2.600 . S
N785 C786 1.365 . S
N785 C789 1.319 . S
C786 N785 1.365 . S
C786 C788 1.405 . S
C786 C794 1.448 . S
C787 H782 0.931 . S
C787 C789 1.397 . S
C787 C790 1.367 . S
C788 C786 1.405 . S
C788 C790 1.403 . S
C788 C821 1.439 . S
C789 H774 0.930 . S
C789 N785 1.319 . S
C789 C787 1.397 . S
C790 C787 1.367 . S
C790 C788 1.403 . S
C790 H797 0.929 . S
N791 Eu756 2.562 . S
N791 C792 1.325 . S
N791 C794 1.351 . S
C792 H778 0.929 . S
C792 N791 1.325 . S
C792 C796 1.416 . S
C793 C794 1.430 . S
C793 C795 1.404 . S
C793 C822 1.387 . S
C794 C786 1.448 . S
C794 N791 1.351 . S
C794 C793 1.430 . S
C795 H784 0.930 . S
C795 C793 1.404 . S
C795 C796 1.366 . S
C796 H775 0.930 . S
C796 C792 1.416 . S
C796 C795 1.366 . S
H797 C790 0.929 . S
H798 C821 0.931 . S
H799 C822 0.931 . S
O800 Eu756 2.462 . S
O800 C820 1.252 . S
O801 Eu756 2.373 . S
O801 C812 1.249 . S
O802 Eu767 2.335 . S
O802 C812 1.264 . S
O803 Eu756 2.432 . S
O803 C820 1.268 . S
O804 Eu756 2.291 . S
O804 C819 1.255 . S
O805 Eu767 2.372 . S
O805 C819 1.257 . S
O806 Eu767 2.462 . S
O806 C831 1.252 . S
O807 Eu767 2.373 . S
O807 C823 1.249 . S
O808 Eu756 2.335 . S
O808 C823 1.264 . S
O809 Eu767 2.432 . S
O809 C831 1.268 . S
O810 Eu767 2.291 . S
O810 C830 1.255 . S
O811 Eu756 2.372 . S
O811 C830 1.257 . S
C812 O801 1.249 . S
C812 O802 1.264 . S
C813 C816 1.382 . S
C813 C818 1.390 . S
C813 C820 1.506 . S
C814 C815 1.398 . S
C814 C818 1.392 . S
C815 C814 1.398 . S
C815 C817 1.372 . S
C815 H832 0.914 1_545 S
C816 C813 1.382 . S
C816 C817 1.390 . S
C816 H833 0.931 . S
C817 C815 1.372 . S
C817 C816 1.390 . S
C817 H834 0.929 . S
C818 C813 1.390 . S
C818 C814 1.392 . S
C818 H835 0.930 . S
C819 O804 1.255 . S
C819 O805 1.257 . S
C820 Eu756 2.787 . S
C820 O800 1.252 . S
C820 O803 1.268 . S
C820 C813 1.506 . S
C821 C788 1.439 . S
C821 H798 0.931 . S
C821 C822 1.374 . S
C822 C793 1.387 . S
C822 H799 0.931 . S
C822 C821 1.374 . S
C823 O807 1.249 . S
C823 O808 1.264 . S
C824 C827 1.382 . S
C824 C828 1.390 . S
C824 C831 1.506 . S
C825 C826 1.398 . S
C825 C828 1.392 . S
C826 C825 1.398 . S
C826 C829 1.372 . S
C826 H836 0.931 . S
C827 C824 1.382 . S
C827 C829 1.390 . S
C827 H837 0.931 . S
C828 C824 1.390 . S
C828 C825 1.392 . S
C828 H838 0.930 . S
C829 C826 1.372 . S
C829 C827 1.390 . S
C829 H839 0.929 . S
C830 O810 1.255 . S
C830 O811 1.257 . S
C831 Eu767 2.787 . S
C831 O806 1.252 . S
C831 O809 1.268 . S
C831 C824 1.506 . S
H832 C815 0.914 1_565 S
H833 C816 0.931 . S
H834 C817 0.929 . S
H835 C818 0.930 . S
H836 C826 0.931 . S
H837 C827 0.931 . S
H838 C828 0.930 . S
H839 C829 0.929 . S
Eu840 N869 2.600 . S
Eu840 N875 2.562 . S
Eu840 O884 2.462 . S
Eu840 O885 2.373 . S
Eu840 O887 2.432 . S
Eu840 O888 2.291 . S
Eu840 O892 2.335 . S
Eu840 O895 2.372 . S
Eu840 C904 2.787 . S
C841 N842 1.365 . S
C841 C844 1.405 . S
C841 C848 1.448 . S
N842 C841 1.365 . S
N842 C845 1.319 . S
N842 Eu851 2.600 . S
C843 C845 1.397 . S
C843 C846 1.367 . S
C843 H863 0.931 . S
C844 C841 1.405 . S
C844 C846 1.403 . S
C844 C850 1.439 . S
C845 N842 1.319 . S
C845 C843 1.397 . S
C845 H856 0.930 . S
C846 C843 1.367 . S
C846 C844 1.403 . S
C846 H867 0.929 . S
C847 C848 1.430 . S
C847 C849 1.387 . S
C847 C853 1.404 . S
C848 C841 1.448 . S
C848 C847 1.430 . S
C848 N852 1.351 . S
C849 C847 1.387 . S
C849 C850 1.374 . S
C849 H864 0.931 . S
C850 C844 1.439 . S
C850 C849 1.374 . S
C850 H865 0.931 . S
Eu851 N842 2.600 . S
Eu851 N852 2.562 . S
Eu851 O886 2.335 . S
Eu851 O889 2.372 . S
Eu851 O890 2.462 . S
Eu851 O891 2.373 . S
Eu851 O893 2.432 . S
Eu851 O894 2.291 . S
Eu851 C915 2.787 . S
N852 C848 1.351 . S
N852 Eu851 2.562 . S
N852 C854 1.325 . S
C853 C847 1.404 . S
C853 C855 1.366 . S
C853 H861 0.930 . S
C854 N852 1.325 . S
C854 C855 1.416 . S
C854 H860 0.929 . S
C855 C853 1.366 . S
C855 C854 1.416 . S
C855 H857 0.930 . S
H856 C845 0.930 . S
H857 C855 0.930 . S
H858 C873 0.930 . S
H859 C880 0.930 . S
H860 C854 0.929 . S
H861 C853 0.930 . S
H862 C876 0.929 . S
H863 C843 0.931 . S
H864 C849 0.931 . S
H865 C850 0.931 . S
H866 C871 0.931 . S
H867 C846 0.929 . S
H868 C879 0.930 . S
N869 Eu840 2.600 . S
N869 C870 1.365 . S
N869 C873 1.319 . S
C870 N869 1.365 . S
C870 C872 1.405 . S
C870 C878 1.448 . S
C871 H866 0.931 . S
C871 C873 1.397 . S
C871 C874 1.367 . S
C872 C870 1.405 . S
C872 C874 1.403 . S
C872 C905 1.439 . S
C873 H858 0.930 . S
C873 N869 1.319 . S
C873 C871 1.397 . S
C874 C871 1.367 . S
C874 C872 1.403 . S
C874 H881 0.929 . S
N875 Eu840 2.562 . S
N875 C876 1.325 . S
N875 C878 1.351 . S
C876 H862 0.929 . S
C876 N875 1.325 . S
C876 C880 1.416 . S
C877 C878 1.430 . S
C877 C879 1.404 . S
C877 C906 1.387 . S
C878 C870 1.448 . S
C878 N875 1.351 . S
C878 C877 1.430 . S
C879 H868 0.930 . S
C879 C877 1.404 . S
C879 C880 1.366 . S
C880 H859 0.930 . S
C880 C876 1.416 . S
C880 C879 1.366 . S
H881 C874 0.929 . S
H882 C905 0.931 . S
H883 C906 0.931 . S
O884 Eu840 2.462 . S
O884 C904 1.252 . S
O885 Eu840 2.373 . S
O885 C896 1.249 . S
O886 Eu851 2.335 . S
O886 C896 1.264 . S
O887 Eu840 2.432 . S
O887 C904 1.268 . S
O888 Eu840 2.291 . S
O888 C903 1.255 . S
O889 Eu851 2.372 . S
O889 C903 1.257 . S
O890 Eu851 2.462 . S
O890 C915 1.252 . S
O891 Eu851 2.373 . S
O891 C907 1.249 . S
O892 Eu840 2.335 . S
O892 C907 1.264 . S
O893 Eu851 2.432 . S
O893 C915 1.268 . S
O894 Eu851 2.291 . S
O894 C914 1.255 . S
O895 Eu840 2.372 . S
O895 C914 1.257 . S
C896 O885 1.249 . S
C896 O886 1.264 . S
C897 C900 1.382 . S
C897 C902 1.390 . S
C897 C904 1.506 . S
C898 C899 1.398 . S
C898 C902 1.392 . S
C899 C898 1.398 . S
C899 C901 1.372 . S
C899 H916 0.914 1_545 S
C900 C897 1.382 . S
C900 C901 1.390 . S
C900 H917 0.931 . S
C901 C899 1.372 . S
C901 C900 1.390 . S
C901 H918 0.929 . S
C902 C897 1.390 . S
C902 C898 1.392 . S
C902 H919 0.930 . S
C903 O888 1.255 . S
C903 O889 1.257 . S
C904 Eu840 2.787 . S
C904 O884 1.252 . S
C904 O887 1.268 . S
C904 C897 1.506 . S
C905 C872 1.439 . S
C905 H882 0.931 . S
C905 C906 1.374 . S
C906 C877 1.387 . S
C906 H883 0.931 . S
C906 C905 1.374 . S
C907 O891 1.249 . S
C907 O892 1.264 . S
C908 C911 1.382 . S
C908 C912 1.390 . S
C908 C915 1.506 . S
C909 C910 1.398 . S
C909 C912 1.392 . S
C910 C909 1.398 . S
C910 C913 1.372 . S
C910 H920 0.931 . S
C911 C908 1.382 . S
C911 C913 1.390 . S
C911 H921 0.931 . S
C912 C908 1.390 . S
C912 C909 1.392 . S
C912 H922 0.930 . S
C913 C910 1.372 . S
C913 C911 1.390 . S
C913 H923 0.929 . S
C914 O894 1.255 . S
C914 O895 1.257 . S
C915 Eu851 2.787 . S
C915 O890 1.252 . S
C915 O893 1.268 . S
C915 C908 1.506 . S
H916 C899 0.914 1_565 S
H917 C900 0.931 . S
H918 C901 0.929 . S
H919 C902 0.930 . S
H920 C910 0.931 . S
H921 C911 0.931 . S
H922 C912 0.930 . S
H923 C913 0.929 . S
Eu924 N953 2.600 . S
Eu924 N959 2.562 . S
Eu924 O968 2.462 . S
Eu924 O969 2.373 . S
Eu924 O971 2.432 . S
Eu924 O972 2.291 . S
Eu924 O976 2.335 . S
Eu924 O979 2.372 . S
Eu924 C988 2.787 . S
C925 N926 1.365 . S
C925 C928 1.405 . S
C925 C932 1.448 . S
N926 C925 1.365 . S
N926 C929 1.319 . S
N926 Eu935 2.600 . S
C927 C929 1.397 . S
C927 C930 1.367 . S
C927 H947 0.931 . S
C928 C925 1.405 . S
C928 C930 1.403 . S
C928 C934 1.439 . S
C929 N926 1.319 . S
C929 C927 1.397 . S
C929 H940 0.930 . S
C930 C927 1.367 . S
C930 C928 1.403 . S
C930 H951 0.929 . S
C931 C932 1.430 . S
C931 C933 1.387 . S
C931 C937 1.404 . S
C932 C925 1.448 . S
C932 C931 1.430 . S
C932 N936 1.351 . S
C933 C931 1.387 . S
C933 C934 1.374 . S
C933 H948 0.931 . S
C934 C928 1.439 . S
C934 C933 1.374 . S
C934 H949 0.931 . S
Eu935 N926 2.600 . S
Eu935 N936 2.562 . S
Eu935 O970 2.335 . S
Eu935 O973 2.372 . S
Eu935 O974 2.462 . S
Eu935 O975 2.373 . S
Eu935 O977 2.432 . S
Eu935 O978 2.291 . S
Eu935 C999 2.787 . S
N936 C932 1.351 . S
N936 Eu935 2.562 . S
N936 C938 1.325 . S
C937 C931 1.404 . S
C937 C939 1.366 . S
C937 H945 0.930 . S
C938 N936 1.325 . S
C938 C939 1.416 . S
C938 H944 0.929 . S
C939 C937 1.366 . S
C939 C938 1.416 . S
C939 H941 0.930 . S
H940 C929 0.930 . S
H941 C939 0.930 . S
H942 C957 0.930 . S
H943 C964 0.930 . S
H944 C938 0.929 . S
H945 C937 0.930 . S
H946 C960 0.929 . S
H947 C927 0.931 . S
H948 C933 0.931 . S
H949 C934 0.931 . S
H950 C955 0.931 . S
H951 C930 0.929 . S
H952 C963 0.930 . S
N953 Eu924 2.600 . S
N953 C954 1.365 . S
N953 C957 1.319 . S
C954 N953 1.365 . S
C954 C956 1.405 . S
C954 C962 1.448 . S
C955 H950 0.931 . S
C955 C957 1.397 . S
C955 C958 1.367 . S
C956 C954 1.405 . S
C956 C958 1.403 . S
C956 C989 1.439 . S
C957 H942 0.930 . S
C957 N953 1.319 . S
C957 C955 1.397 . S
C958 C955 1.367 . S
C958 C956 1.403 . S
C958 H965 0.929 . S
N959 Eu924 2.562 . S
N959 C960 1.325 . S
N959 C962 1.351 . S
C960 H946 0.929 . S
C960 N959 1.325 . S
C960 C964 1.416 . S
C961 C962 1.430 . S
C961 C963 1.404 . S
C961 C990 1.387 . S
C962 C954 1.448 . S
C962 N959 1.351 . S
C962 C961 1.430 . S
C963 H952 0.930 . S
C963 C961 1.404 . S
C963 C964 1.366 . S
C964 H943 0.930 . S
C964 C960 1.416 . S
C964 C963 1.366 . S
H965 C958 0.929 . S
H966 C989 0.931 . S
H967 C990 0.931 . S
O968 Eu924 2.462 . S
O968 C988 1.252 . S
O969 Eu924 2.373 . S
O969 C980 1.249 . S
O970 Eu935 2.335 . S
O970 C980 1.264 . S
O971 Eu924 2.432 . S
O971 C988 1.268 . S
O972 Eu924 2.291 . S
O972 C987 1.255 . S
O973 Eu935 2.372 . S
O973 C987 1.257 . S
O974 Eu935 2.462 . S
O974 C999 1.252 . S
O975 Eu935 2.373 . S
O975 C991 1.249 . S
O976 Eu924 2.335 . S
O976 C991 1.264 . S
O977 Eu935 2.432 . S
O977 C999 1.268 . S
O978 Eu935 2.291 . S
O978 C998 1.255 . S
O979 Eu924 2.372 . S
O979 C998 1.257 . S
C980 O969 1.249 . S
C980 O970 1.264 . S
C981 C984 1.382 . S
C981 C986 1.390 . S
C981 C988 1.506 . S
C982 C983 1.398 . S
C982 C986 1.392 . S
C983 C982 1.398 . S
C983 C985 1.372 . S
C983 H1000 0.914 1_565 S
C984 C981 1.382 . S
C984 C985 1.390 . S
C984 H1001 0.931 . S
C985 C983 1.372 . S
C985 C984 1.390 . S
C985 H1002 0.929 . S
C986 C981 1.390 . S
C986 C982 1.392 . S
C986 H1003 0.930 . S
C987 O972 1.255 . S
C987 O973 1.257 . S
C988 Eu924 2.787 . S
C988 O968 1.252 . S
C988 O971 1.268 . S
C988 C981 1.506 . S
C989 C956 1.439 . S
C989 H966 0.931 . S
C989 C990 1.374 . S
C990 C961 1.387 . S
C990 H967 0.931 . S
C990 C989 1.374 . S
C991 O975 1.249 . S
C991 O976 1.264 . S
C992 C995 1.382 . S
C992 C996 1.390 . S
C992 C999 1.506 . S
C993 C994 1.398 . S
C993 C996 1.392 . S
C994 C993 1.398 . S
C994 C997 1.372 . S
C994 H1004 0.931 . S
C995 C992 1.382 . S
C995 C997 1.390 . S
C995 H1005 0.931 . S
C996 C992 1.390 . S
C996 C993 1.392 . S
C996 H1006 0.930 . S
C997 C994 1.372 . S
C997 C995 1.390 . S
C997 H1007 0.929 . S
C998 O978 1.255 . S
C998 O979 1.257 . S
C999 Eu935 2.787 . S
C999 O974 1.252 . S
C999 O977 1.268 . S
C999 C992 1.506 . S
H1000 C983 0.914 1_545 S
H1001 C984 0.931 . S
H1002 C985 0.929 . S
H1003 C986 0.930 . S
H1004 C994 0.931 . S
H1005 C995 0.931 . S
H1006 C996 0.930 . S
H1007 C997 0.929 . S
Eu1008 N1037 2.600 . S
Eu1008 N1043 2.562 . S
Eu1008 O1052 2.462 . S
Eu1008 O1053 2.373 . S
Eu1008 O1055 2.432 . S
Eu1008 O1056 2.291 . S
Eu1008 O1060 2.335 . S
Eu1008 O1063 2.372 . S
Eu1008 C1072 2.787 . S
C1009 N1010 1.365 . S
C1009 C1012 1.405 . S
C1009 C1016 1.448 . S
N1010 C1009 1.365 . S
N1010 C1013 1.319 . S
N1010 Eu1019 2.600 . S
C1011 C1013 1.397 . S
C1011 C1014 1.367 . S
C1011 H1031 0.931 . S
C1012 C1009 1.405 . S
C1012 C1014 1.403 . S
C1012 C1018 1.439 . S
C1013 N1010 1.319 . S
C1013 C1011 1.397 . S
C1013 H1024 0.930 . S
C1014 C1011 1.367 . S
C1014 C1012 1.403 . S
C1014 H1035 0.929 . S
C1015 C1016 1.430 . S
C1015 C1017 1.387 . S
C1015 C1021 1.404 . S
C1016 C1009 1.448 . S
C1016 C1015 1.430 . S
C1016 N1020 1.351 . S
C1017 C1015 1.387 . S
C1017 C1018 1.374 . S
C1017 H1032 0.931 . S
C1018 C1012 1.439 . S
C1018 C1017 1.374 . S
C1018 H1033 0.931 . S
Eu1019 N1010 2.600 . S
Eu1019 N1020 2.562 . S
Eu1019 O1054 2.335 . S
Eu1019 O1057 2.372 . S
Eu1019 O1058 2.462 . S
Eu1019 O1059 2.373 . S
Eu1019 O1061 2.432 . S
Eu1019 O1062 2.291 . S
Eu1019 C1083 2.787 . S
N1020 C1016 1.351 . S
N1020 Eu1019 2.562 . S
N1020 C1022 1.325 . S
C1021 C1015 1.404 . S
C1021 C1023 1.366 . S
C1021 H1029 0.930 . S
C1022 N1020 1.325 . S
C1022 C1023 1.416 . S
C1022 H1028 0.929 . S
C1023 C1021 1.366 . S
C1023 C1022 1.416 . S
C1023 H1025 0.930 . S
H1024 C1013 0.930 . S
H1025 C1023 0.930 . S
H1026 C1041 0.930 . S
H1027 C1048 0.930 . S
H1028 C1022 0.929 . S
H1029 C1021 0.930 . S
H1030 C1044 0.929 . S
H1031 C1011 0.931 . S
H1032 C1017 0.931 . S
H1033 C1018 0.931 . S
H1034 C1039 0.931 . S
H1035 C1014 0.929 . S
H1036 C1047 0.930 . S
N1037 Eu1008 2.600 . S
N1037 C1038 1.365 . S
N1037 C1041 1.319 . S
C1038 N1037 1.365 . S
C1038 C1040 1.405 . S
C1038 C1046 1.448 . S
C1039 H1034 0.931 . S
C1039 C1041 1.397 . S
C1039 C1042 1.367 . S
C1040 C1038 1.405 . S
C1040 C1042 1.403 . S
C1040 C1073 1.439 . S
C1041 H1026 0.930 . S
C1041 N1037 1.319 . S
C1041 C1039 1.397 . S
C1042 C1039 1.367 . S
C1042 C1040 1.403 . S
C1042 H1049 0.929 . S
N1043 Eu1008 2.562 . S
N1043 C1044 1.325 . S
N1043 C1046 1.351 . S
C1044 H1030 0.929 . S
C1044 N1043 1.325 . S
C1044 C1048 1.416 . S
C1045 C1046 1.430 . S
C1045 C1047 1.404 . S
C1045 C1074 1.387 . S
C1046 C1038 1.448 . S
C1046 N1043 1.351 . S
C1046 C1045 1.430 . S
C1047 H1036 0.930 . S
C1047 C1045 1.404 . S
C1047 C1048 1.366 . S
C1048 H1027 0.930 . S
C1048 C1044 1.416 . S
C1048 C1047 1.366 . S
H1049 C1042 0.929 . S
H1050 C1073 0.931 . S
H1051 C1074 0.931 . S
O1052 Eu1008 2.462 . S
O1052 C1072 1.252 . S
O1053 Eu1008 2.373 . S
O1053 C1064 1.249 . S
O1054 Eu1019 2.335 . S
O1054 C1064 1.264 . S
O1055 Eu1008 2.432 . S
O1055 C1072 1.268 . S
O1056 Eu1008 2.291 . S
O1056 C1071 1.255 . S
O1057 Eu1019 2.372 . S
O1057 C1071 1.257 . S
O1058 Eu1019 2.462 . S
O1058 C1083 1.252 . S
O1059 Eu1019 2.373 . S
O1059 C1075 1.249 . S
O1060 Eu1008 2.335 . S
O1060 C1075 1.264 . S
O1061 Eu1019 2.432 . S
O1061 C1083 1.268 . S
O1062 Eu1019 2.291 . S
O1062 C1082 1.255 . S
O1063 Eu1008 2.372 . S
O1063 C1082 1.257 . S
C1064 O1053 1.249 . S
C1064 O1054 1.264 . S
C1065 C1068 1.382 . S
C1065 C1070 1.390 . S
C1065 C1072 1.506 . S
C1066 C1067 1.398 . S
C1066 C1070 1.392 . S
C1067 C1066 1.398 . S
C1067 C1069 1.372 . S
C1067 H1084 0.931 . S
C1068 C1065 1.382 . S
C1068 C1069 1.390 . S
C1068 H1085 0.931 . S
C1069 C1067 1.372 . S
C1069 C1068 1.390 . S
C1069 H1086 0.929 . S
C1070 C1065 1.390 . S
C1070 C1066 1.392 . S
C1070 H1087 0.930 . S
C1071 O1056 1.255 . S
C1071 O1057 1.257 . S
C1072 Eu1008 2.787 . S
C1072 O1052 1.252 . S
C1072 O1055 1.268 . S
C1072 C1065 1.506 . S
C1073 C1040 1.439 . S
C1073 H1050 0.931 . S
C1073 C1074 1.374 . S
C1074 C1045 1.387 . S
C1074 H1051 0.931 . S
C1074 C1073 1.374 . S
C1075 O1059 1.249 . S
C1075 O1060 1.264 . S
C1076 C1079 1.382 . S
C1076 C1080 1.390 . S
C1076 C1083 1.506 . S
C1077 C1078 1.398 . S
C1077 C1080 1.392 . S
C1078 C1077 1.398 . S
C1078 C1081 1.372 . S
C1078 H1088 0.914 1_545 S
C1079 C1076 1.382 . S
C1079 C1081 1.390 . S
C1079 H1089 0.931 . S
C1080 C1076 1.390 . S
C1080 C1077 1.392 . S
C1080 H1090 0.930 . S
C1081 C1078 1.372 . S
C1081 C1079 1.390 . S
C1081 H1091 0.929 . S
C1082 O1062 1.255 . S
C1082 O1063 1.257 . S
C1083 Eu1019 2.787 . S
C1083 O1058 1.252 . S
C1083 O1061 1.268 . S
C1083 C1076 1.506 . S
H1084 C1067 0.931 . S
H1085 C1068 0.931 . S
H1086 C1069 0.929 . S
H1087 C1070 0.930 . S
H1088 C1078 0.914 1_565 S
H1089 C1079 0.931 . S
H1090 C1080 0.930 . S
H1091 C1081 0.929 . S
Eu1092 N1121 2.600 . S
Eu1092 N1127 2.562 . S
Eu1092 O1136 2.462 . S
Eu1092 O1137 2.373 . S
Eu1092 O1139 2.432 . S
Eu1092 O1140 2.291 . S
Eu1092 O1144 2.335 . S
Eu1092 O1147 2.372 . S
Eu1092 C1156 2.787 . S
C1093 N1094 1.365 . S
C1093 C1096 1.405 . S
C1093 C1100 1.448 . S
N1094 C1093 1.365 . S
N1094 C1097 1.319 . S
N1094 Eu1103 2.600 . S
C1095 C1097 1.397 . S
C1095 C1098 1.367 . S
C1095 H1115 0.931 . S
C1096 C1093 1.405 . S
C1096 C1098 1.403 . S
C1096 C1102 1.439 . S
C1097 N1094 1.319 . S
C1097 C1095 1.397 . S
C1097 H1108 0.930 . S
C1098 C1095 1.367 . S
C1098 C1096 1.403 . S
C1098 H1119 0.929 . S
C1099 C1100 1.430 . S
C1099 C1101 1.387 . S
C1099 C1105 1.404 . S
C1100 C1093 1.448 . S
C1100 C1099 1.430 . S
C1100 N1104 1.351 . S
C1101 C1099 1.387 . S
C1101 C1102 1.374 . S
C1101 H1116 0.931 . S
C1102 C1096 1.439 . S
C1102 C1101 1.374 . S
C1102 H1117 0.931 . S
Eu1103 N1094 2.600 . S
Eu1103 N1104 2.562 . S
Eu1103 O1138 2.335 . S
Eu1103 O1141 2.372 . S
Eu1103 O1142 2.462 . S
Eu1103 O1143 2.373 . S
Eu1103 O1145 2.432 . S
Eu1103 O1146 2.291 . S
Eu1103 C1167 2.787 . S
N1104 C1100 1.351 . S
N1104 Eu1103 2.562 . S
N1104 C1106 1.325 . S
C1105 C1099 1.404 . S
C1105 C1107 1.366 . S
C1105 H1113 0.930 . S
C1106 N1104 1.325 . S
C1106 C1107 1.416 . S
C1106 H1112 0.929 . S
C1107 C1105 1.366 . S
C1107 C1106 1.416 . S
C1107 H1109 0.930 . S
H1108 C1097 0.930 . S
H1109 C1107 0.930 . S
H1110 C1125 0.930 . S
H1111 C1132 0.930 . S
H1112 C1106 0.929 . S
H1113 C1105 0.930 . S
H1114 C1128 0.929 . S
H1115 C1095 0.931 . S
H1116 C1101 0.931 . S
H1117 C1102 0.931 . S
H1118 C1123 0.931 . S
H1119 C1098 0.929 . S
H1120 C1131 0.930 . S
N1121 Eu1092 2.600 . S
N1121 C1122 1.365 . S
N1121 C1125 1.319 . S
C1122 N1121 1.365 . S
C1122 C1124 1.405 . S
C1122 C1130 1.448 . S
C1123 H1118 0.931 . S
C1123 C1125 1.397 . S
C1123 C1126 1.367 . S
C1124 C1122 1.405 . S
C1124 C1126 1.403 . S
C1124 C1157 1.439 . S
C1125 H1110 0.930 . S
C1125 N1121 1.319 . S
C1125 C1123 1.397 . S
C1126 C1123 1.367 . S
C1126 C1124 1.403 . S
C1126 H1133 0.929 . S
N1127 Eu1092 2.562 . S
N1127 C1128 1.325 . S
N1127 C1130 1.351 . S
C1128 H1114 0.929 . S
C1128 N1127 1.325 . S
C1128 C1132 1.416 . S
C1129 C1130 1.430 . S
C1129 C1131 1.404 . S
C1129 C1158 1.387 . S
C1130 C1122 1.448 . S
C1130 N1127 1.351 . S
C1130 C1129 1.430 . S
C1131 H1120 0.930 . S
C1131 C1129 1.404 . S
C1131 C1132 1.366 . S
C1132 H1111 0.930 . S
C1132 C1128 1.416 . S
C1132 C1131 1.366 . S
H1133 C1126 0.929 . S
H1134 C1157 0.931 . S
H1135 C1158 0.931 . S
O1136 Eu1092 2.462 . S
O1136 C1156 1.252 . S
O1137 Eu1092 2.373 . S
O1137 C1148 1.249 . S
O1138 Eu1103 2.335 . S
O1138 C1148 1.264 . S
O1139 Eu1092 2.432 . S
O1139 C1156 1.268 . S
O1140 Eu1092 2.291 . S
O1140 C1155 1.255 . S
O1141 Eu1103 2.372 . S
O1141 C1155 1.257 . S
O1142 Eu1103 2.462 . S
O1142 C1167 1.252 . S
O1143 Eu1103 2.373 . S
O1143 C1159 1.249 . S
O1144 Eu1092 2.335 . S
O1144 C1159 1.264 . S
O1145 Eu1103 2.432 . S
O1145 C1167 1.268 . S
O1146 Eu1103 2.291 . S
O1146 C1166 1.255 . S
O1147 Eu1092 2.372 . S
O1147 C1166 1.257 . S
C1148 O1137 1.249 . S
C1148 O1138 1.264 . S
C1149 C1152 1.382 . S
C1149 C1154 1.390 . S
C1149 C1156 1.506 . S
C1150 C1151 1.398 . S
C1150 C1154 1.392 . S
C1151 C1150 1.398 . S
C1151 C1153 1.372 . S
C1151 H1168 0.931 . S
C1152 C1149 1.382 . S
C1152 C1153 1.390 . S
C1152 H1169 0.931 . S
C1153 C1151 1.372 . S
C1153 C1152 1.390 . S
C1153 H1170 0.929 . S
C1154 C1149 1.390 . S
C1154 C1150 1.392 . S
C1154 H1171 0.930 . S
C1155 O1140 1.255 . S
C1155 O1141 1.257 . S
C1156 Eu1092 2.787 . S
C1156 O1136 1.252 . S
C1156 O1139 1.268 . S
C1156 C1149 1.506 . S
C1157 C1124 1.439 . S
C1157 H1134 0.931 . S
C1157 C1158 1.374 . S
C1158 C1129 1.387 . S
C1158 H1135 0.931 . S
C1158 C1157 1.374 . S
C1159 O1143 1.249 . S
C1159 O1144 1.264 . S
C1160 C1163 1.382 . S
C1160 C1164 1.390 . S
C1160 C1167 1.506 . S
C1161 C1162 1.398 . S
C1161 C1164 1.392 . S
C1162 C1161 1.398 . S
C1162 C1165 1.372 . S
C1162 H1172 0.914 1_565 S
C1163 C1160 1.382 . S
C1163 C1165 1.390 . S
C1163 H1173 0.931 . S
C1164 C1160 1.390 . S
C1164 C1161 1.392 . S
C1164 H1174 0.930 . S
C1165 C1162 1.372 . S
C1165 C1163 1.390 . S
C1165 H1175 0.929 . S
C1166 O1146 1.255 . S
C1166 O1147 1.257 . S
C1167 Eu1103 2.787 . S
C1167 O1142 1.252 . S
C1167 O1145 1.268 . S
C1167 C1160 1.506 . S
H1168 C1151 0.931 . S
H1169 C1152 0.931 . S
H1170 C1153 0.929 . S
H1171 C1154 0.930 . S
H1172 C1162 0.914 1_545 S
H1173 C1163 0.931 . S
H1174 C1164 0.930 . S
H1175 C1165 0.929 . S
Eu1176 N1205 2.600 . S
Eu1176 N1211 2.562 . S
Eu1176 O1220 2.462 . S
Eu1176 O1221 2.373 . S
Eu1176 O1223 2.432 . S
Eu1176 O1224 2.291 . S
Eu1176 O1228 2.335 . S
Eu1176 O1231 2.372 . S
Eu1176 C1240 2.787 . S
C1177 N1178 1.365 . S
C1177 C1180 1.405 . S
C1177 C1184 1.448 . S
N1178 C1177 1.365 . S
N1178 C1181 1.319 . S
N1178 Eu1187 2.600 . S
C1179 C1181 1.397 . S
C1179 C1182 1.367 . S
C1179 H1199 0.931 . S
C1180 C1177 1.405 . S
C1180 C1182 1.403 . S
C1180 C1186 1.439 . S
C1181 N1178 1.319 . S
C1181 C1179 1.397 . S
C1181 H1192 0.930 . S
C1182 C1179 1.367 . S
C1182 C1180 1.403 . S
C1182 H1203 0.929 . S
C1183 C1184 1.430 . S
C1183 C1185 1.387 . S
C1183 C1189 1.404 . S
C1184 C1177 1.448 . S
C1184 C1183 1.430 . S
C1184 N1188 1.351 . S
C1185 C1183 1.387 . S
C1185 C1186 1.374 . S
C1185 H1200 0.931 . S
C1186 C1180 1.439 . S
C1186 C1185 1.374 . S
C1186 H1201 0.931 . S
Eu1187 N1178 2.600 . S
Eu1187 N1188 2.562 . S
Eu1187 O1222 2.335 . S
Eu1187 O1225 2.372 . S
Eu1187 O1226 2.462 . S
Eu1187 O1227 2.373 . S
Eu1187 O1229 2.432 . S
Eu1187 O1230 2.291 . S
Eu1187 C1251 2.787 . S
N1188 C1184 1.351 . S
N1188 Eu1187 2.562 . S
N1188 C1190 1.325 . S
C1189 C1183 1.404 . S
C1189 C1191 1.366 . S
C1189 H1197 0.930 . S
C1190 N1188 1.325 . S
C1190 C1191 1.416 . S
C1190 H1196 0.929 . S
C1191 C1189 1.366 . S
C1191 C1190 1.416 . S
C1191 H1193 0.930 . S
H1192 C1181 0.930 . S
H1193 C1191 0.930 . S
H1194 C1209 0.930 . S
H1195 C1216 0.930 . S
H1196 C1190 0.929 . S
H1197 C1189 0.930 . S
H1198 C1212 0.929 . S
H1199 C1179 0.931 . S
H1200 C1185 0.931 . S
H1201 C1186 0.931 . S
H1202 C1207 0.931 . S
H1203 C1182 0.929 . S
H1204 C1215 0.930 . S
N1205 Eu1176 2.600 . S
N1205 C1206 1.365 . S
N1205 C1209 1.319 . S
C1206 N1205 1.365 . S
C1206 C1208 1.405 . S
C1206 C1214 1.448 . S
C1207 H1202 0.931 . S
C1207 C1209 1.397 . S
C1207 C1210 1.367 . S
C1208 C1206 1.405 . S
C1208 C1210 1.403 . S
C1208 C1241 1.439 . S
C1209 H1194 0.930 . S
C1209 N1205 1.319 . S
C1209 C1207 1.397 . S
C1210 C1207 1.367 . S
C1210 C1208 1.403 . S
C1210 H1217 0.929 . S
N1211 Eu1176 2.562 . S
N1211 C1212 1.325 . S
N1211 C1214 1.351 . S
C1212 H1198 0.929 . S
C1212 N1211 1.325 . S
C1212 C1216 1.416 . S
C1213 C1214 1.430 . S
C1213 C1215 1.404 . S
C1213 C1242 1.387 . S
C1214 C1206 1.448 . S
C1214 N1211 1.351 . S
C1214 C1213 1.430 . S
C1215 H1204 0.930 . S
C1215 C1213 1.404 . S
C1215 C1216 1.366 . S
C1216 H1195 0.930 . S
C1216 C1212 1.416 . S
C1216 C1215 1.366 . S
H1217 C1210 0.929 . S
H1218 C1241 0.931 . S
H1219 C1242 0.931 . S
O1220 Eu1176 2.462 . S
O1220 C1240 1.252 . S
O1221 Eu1176 2.373 . S
O1221 C1232 1.249 . S
O1222 Eu1187 2.335 . S
O1222 C1232 1.264 . S
O1223 Eu1176 2.432 . S
O1223 C1240 1.268 . S
O1224 Eu1176 2.291 . S
O1224 C1239 1.255 . S
O1225 Eu1187 2.372 . S
O1225 C1239 1.257 . S
O1226 Eu1187 2.462 . S
O1226 C1251 1.252 . S
O1227 Eu1187 2.373 . S
O1227 C1243 1.249 . S
O1228 Eu1176 2.335 . S
O1228 C1243 1.264 . S
O1229 Eu1187 2.432 . S
O1229 C1251 1.268 . S
O1230 Eu1187 2.291 . S
O1230 C1250 1.255 . S
O1231 Eu1176 2.372 . S
O1231 C1250 1.257 . S
C1232 O1221 1.249 . S
C1232 O1222 1.264 . S
C1233 C1236 1.382 . S
C1233 C1238 1.390 . S
C1233 C1240 1.506 . S
C1234 C1235 1.398 . S
C1234 C1238 1.392 . S
C1235 C1234 1.398 . S
C1235 C1237 1.372 . S
C1235 H1252 0.931 . S
C1236 C1233 1.382 . S
C1236 C1237 1.390 . S
C1236 H1253 0.931 . S
C1237 C1235 1.372 . S
C1237 C1236 1.390 . S
C1237 H1254 0.929 . S
C1238 C1233 1.390 . S
C1238 C1234 1.392 . S
C1238 H1255 0.930 . S
C1239 O1224 1.255 . S
C1239 O1225 1.257 . S
C1240 Eu1176 2.787 . S
C1240 O1220 1.252 . S
C1240 O1223 1.268 . S
C1240 C1233 1.506 . S
C1241 C1208 1.439 . S
C1241 H1218 0.931 . S
C1241 C1242 1.374 . S
C1242 C1213 1.387 . S
C1242 H1219 0.931 . S
C1242 C1241 1.374 . S
C1243 O1227 1.249 . S
C1243 O1228 1.264 . S
C1244 C1247 1.382 . S
C1244 C1248 1.390 . S
C1244 C1251 1.506 . S
C1245 C1246 1.398 . S
C1245 C1248 1.392 . S
C1246 C1245 1.398 . S
C1246 C1249 1.372 . S
C1246 H1256 0.914 1_565 S
C1247 C1244 1.382 . S
C1247 C1249 1.390 . S
C1247 H1257 0.931 . S
C1248 C1244 1.390 . S
C1248 C1245 1.392 . S
C1248 H1258 0.930 . S
C1249 C1246 1.372 . S
C1249 C1247 1.390 . S
C1249 H1259 0.929 . S
C1250 O1230 1.255 . S
C1250 O1231 1.257 . S
C1251 Eu1187 2.787 . S
C1251 O1226 1.252 . S
C1251 O1229 1.268 . S
C1251 C1244 1.506 . S
H1252 C1235 0.931 . S
H1253 C1236 0.931 . S
H1254 C1237 0.929 . S
H1255 C1238 0.930 . S
H1256 C1246 0.914 1_545 S
H1257 C1247 0.931 . S
H1258 C1248 0.930 . S
H1259 C1249 0.929 . S
Eu1260 N1289 2.600 . S
Eu1260 N1295 2.562 . S
Eu1260 O1304 2.462 . S
Eu1260 O1305 2.373 . S
Eu1260 O1307 2.432 . S
Eu1260 O1308 2.291 . S
Eu1260 O1312 2.335 . S
Eu1260 O1315 2.372 . S
Eu1260 C1324 2.787 . S
C1261 N1262 1.365 . S
C1261 C1264 1.405 . S
C1261 C1268 1.448 . S
N1262 C1261 1.365 . S
N1262 C1265 1.319 . S
N1262 Eu1271 2.600 . S
C1263 C1265 1.397 . S
C1263 C1266 1.367 . S
C1263 H1283 0.931 . S
C1264 C1261 1.405 . S
C1264 C1266 1.403 . S
C1264 C1270 1.439 . S
C1265 N1262 1.319 . S
C1265 C1263 1.397 . S
C1265 H1276 0.930 . S
C1266 C1263 1.367 . S
C1266 C1264 1.403 . S
C1266 H1287 0.929 . S
C1267 C1268 1.430 . S
C1267 C1269 1.387 . S
C1267 C1273 1.404 . S
C1268 C1261 1.448 . S
C1268 C1267 1.430 . S
C1268 N1272 1.351 . S
C1269 C1267 1.387 . S
C1269 C1270 1.374 . S
C1269 H1284 0.931 . S
C1270 C1264 1.439 . S
C1270 C1269 1.374 . S
C1270 H1285 0.931 . S
Eu1271 N1262 2.600 . S
Eu1271 N1272 2.562 . S
Eu1271 O1306 2.335 . S
Eu1271 O1309 2.372 . S
Eu1271 O1310 2.462 . S
Eu1271 O1311 2.373 . S
Eu1271 O1313 2.432 . S
Eu1271 O1314 2.291 . S
Eu1271 C1335 2.787 . S
N1272 C1268 1.351 . S
N1272 Eu1271 2.562 . S
N1272 C1274 1.325 . S
C1273 C1267 1.404 . S
C1273 C1275 1.366 . S
C1273 H1281 0.930 . S
C1274 N1272 1.325 . S
C1274 C1275 1.416 . S
C1274 H1280 0.929 . S
C1275 C1273 1.366 . S
C1275 C1274 1.416 . S
C1275 H1277 0.930 . S
H1276 C1265 0.930 . S
H1277 C1275 0.930 . S
H1278 C1293 0.930 . S
H1279 C1300 0.930 . S
H1280 C1274 0.929 . S
H1281 C1273 0.930 . S
H1282 C1296 0.929 . S
H1283 C1263 0.931 . S
H1284 C1269 0.931 . S
H1285 C1270 0.931 . S
H1286 C1291 0.931 . S
H1287 C1266 0.929 . S
H1288 C1299 0.930 . S
N1289 Eu1260 2.600 . S
N1289 C1290 1.365 . S
N1289 C1293 1.319 . S
C1290 N1289 1.365 . S
C1290 C1292 1.405 . S
C1290 C1298 1.448 . S
C1291 H1286 0.931 . S
C1291 C1293 1.397 . S
C1291 C1294 1.367 . S
C1292 C1290 1.405 . S
C1292 C1294 1.403 . S
C1292 C1325 1.439 . S
C1293 H1278 0.930 . S
C1293 N1289 1.319 . S
C1293 C1291 1.397 . S
C1294 C1291 1.367 . S
C1294 C1292 1.403 . S
C1294 H1301 0.929 . S
N1295 Eu1260 2.562 . S
N1295 C1296 1.325 . S
N1295 C1298 1.351 . S
C1296 H1282 0.929 . S
C1296 N1295 1.325 . S
C1296 C1300 1.416 . S
C1297 C1298 1.430 . S
C1297 C1299 1.404 . S
C1297 C1326 1.387 . S
C1298 C1290 1.448 . S
C1298 N1295 1.351 . S
C1298 C1297 1.430 . S
C1299 H1288 0.930 . S
C1299 C1297 1.404 . S
C1299 C1300 1.366 . S
C1300 H1279 0.930 . S
C1300 C1296 1.416 . S
C1300 C1299 1.366 . S
H1301 C1294 0.929 . S
H1302 C1325 0.931 . S
H1303 C1326 0.931 . S
O1304 Eu1260 2.462 . S
O1304 C1324 1.252 . S
O1305 Eu1260 2.373 . S
O1305 C1316 1.249 . S
O1306 Eu1271 2.335 . S
O1306 C1316 1.264 . S
O1307 Eu1260 2.432 . S
O1307 C1324 1.268 . S
O1308 Eu1260 2.291 . S
O1308 C1323 1.255 . S
O1309 Eu1271 2.372 . S
O1309 C1323 1.257 . S
O1310 Eu1271 2.462 . S
O1310 C1335 1.252 . S
O1311 Eu1271 2.373 . S
O1311 C1327 1.249 . S
O1312 Eu1260 2.335 . S
O1312 C1327 1.264 . S
O1313 Eu1271 2.432 . S
O1313 C1335 1.268 . S
O1314 Eu1271 2.291 . S
O1314 C1334 1.255 . S
O1315 Eu1260 2.372 . S
O1315 C1334 1.257 . S
C1316 O1305 1.249 . S
C1316 O1306 1.264 . S
C1317 C1320 1.382 . S
C1317 C1322 1.390 . S
C1317 C1324 1.506 . S
C1318 C1319 1.398 . S
C1318 C1322 1.392 . S
C1319 C1318 1.398 . S
C1319 C1321 1.372 . S
C1319 H1336 0.931 . S
C1320 C1317 1.382 . S
C1320 C1321 1.390 . S
C1320 H1337 0.931 . S
C1321 C1319 1.372 . S
C1321 C1320 1.390 . S
C1321 H1338 0.929 . S
C1322 C1317 1.390 . S
C1322 C1318 1.392 . S
C1322 H1339 0.930 . S
C1323 O1308 1.255 . S
C1323 O1309 1.257 . S
C1324 Eu1260 2.787 . S
C1324 O1304 1.252 . S
C1324 O1307 1.268 . S
C1324 C1317 1.506 . S
C1325 C1292 1.439 . S
C1325 H1302 0.931 . S
C1325 C1326 1.374 . S
C1326 C1297 1.387 . S
C1326 H1303 0.931 . S
C1326 C1325 1.374 . S
C1327 O1311 1.249 . S
C1327 O1312 1.264 . S
C1328 C1331 1.382 . S
C1328 C1332 1.390 . S
C1328 C1335 1.506 . S
C1329 C1330 1.398 . S
C1329 C1332 1.392 . S
C1330 C1329 1.398 . S
C1330 C1333 1.372 . S
C1330 H1340 0.914 1_545 S
C1331 C1328 1.382 . S
C1331 C1333 1.390 . S
C1331 H1341 0.931 . S
C1332 C1328 1.390 . S
C1332 C1329 1.392 . S
C1332 H1342 0.930 . S
C1333 C1330 1.372 . S
C1333 C1331 1.390 . S
C1333 H1343 0.929 . S
C1334 O1314 1.255 . S
C1334 O1315 1.257 . S
C1335 Eu1271 2.787 . S
C1335 O1310 1.252 . S
C1335 O1313 1.268 . S
C1335 C1328 1.506 . S
H1336 C1319 0.931 . S
H1337 C1320 0.931 . S
H1338 C1321 0.929 . S
H1339 C1322 0.930 . S
H1340 C1330 0.914 1_565 S
H1341 C1331 0.931 . S
H1342 C1332 0.930 . S
H1343 C1333 0.929 . S
H1344 C1350 0.930 . S
H1345 C1354 0.930 . S
H1346 C1359 0.929 . S
H1347 C1357 0.929 . S
H1348 C1352 0.929 . S
H1349 C1358 0.929 . S
C1350 H1344 0.930 . S
C1350 C1351 1.367 . S
C1350 C1358 1.378 . S
C1351 C1350 1.367 . S
C1351 C1359 1.433 . S
C1352 H1348 0.929 . S
C1352 C1354 1.378 . S
C1352 C1356 1.350 . S
C1353 C1356 1.463 . S
C1353 C1358 1.350 . S
C1353 N1361 1.427 . S
C1354 H1345 0.930 . S
C1354 C1352 1.378 . S
C1354 C1355 1.367 . S
C1355 C1354 1.367 . S
C1355 C1357 1.433 . S
C1356 C1352 1.350 . S
C1356 C1353 1.463 . S
C1356 N1360 1.427 . S
C1357 H1347 0.929 . S
C1357 C1355 1.433 . S
C1357 N1360 1.384 . S
C1358 H1349 0.929 . S
C1358 C1350 1.378 . S
C1358 C1353 1.350 . S
C1359 H1346 0.929 . S
C1359 C1351 1.433 . S
C1359 N1361 1.384 . S
N1360 C1356 1.427 . S
N1360 C1357 1.384 . S
N1361 C1353 1.427 . S
N1361 C1359 1.384 . S
H1362 C1368 0.930 . S
H1363 C1372 0.930 . S
H1364 C1377 0.929 . S
H1365 C1375 0.929 . S
H1366 C1370 0.929 . S
H1367 C1376 0.929 . S
C1368 H1362 0.930 . S
C1368 C1369 1.367 . S
C1368 C1376 1.378 . S
C1369 C1368 1.367 . S
C1369 C1377 1.433 . S
C1370 H1366 0.929 . S
C1370 C1372 1.378 . S
C1370 C1374 1.350 . S
C1371 C1374 1.463 . S
C1371 C1376 1.350 . S
C1371 N1379 1.427 . S
C1372 H1363 0.930 . S
C1372 C1370 1.378 . S
C1372 C1373 1.367 . S
C1373 C1372 1.367 . S
C1373 C1375 1.433 . S
C1374 C1370 1.350 . S
C1374 C1371 1.463 . S
C1374 N1378 1.427 . S
C1375 H1365 0.929 . S
C1375 C1373 1.433 . S
C1375 N1378 1.384 . S
C1376 H1367 0.929 . S
C1376 C1368 1.378 . S
C1376 C1371 1.350 . S
C1377 H1364 0.929 . S
C1377 C1369 1.433 . S
C1377 N1379 1.384 . S
N1378 C1374 1.427 . S
N1378 C1375 1.384 . S
N1379 C1371 1.427 . S
N1379 C1377 1.384 . S
H1380 C1386 0.930 . S
H1381 C1390 0.930 . S
H1382 C1395 0.929 . S
H1383 C1393 0.929 . S
H1384 C1388 0.929 . S
H1385 C1394 0.929 . S
C1386 H1380 0.930 . S
C1386 C1387 1.367 . S
C1386 C1394 1.378 . S
C1387 C1386 1.367 . S
C1387 C1395 1.433 . S
C1388 H1384 0.929 . S
C1388 C1390 1.378 . S
C1388 C1392 1.350 . S
C1389 C1392 1.463 . S
C1389 C1394 1.350 . S
C1389 N1397 1.427 . S
C1390 H1381 0.930 . S
C1390 C1388 1.378 . S
C1390 C1391 1.367 . S
C1391 C1390 1.367 . S
C1391 C1393 1.433 . S
C1392 C1388 1.350 . S
C1392 C1389 1.463 . S
C1392 N1396 1.427 . S
C1393 H1383 0.929 . S
C1393 C1391 1.433 . S
C1393 N1396 1.384 . S
C1394 H1385 0.929 . S
C1394 C1386 1.378 . S
C1394 C1389 1.350 . S
C1395 H1382 0.929 . S
C1395 C1387 1.433 . S
C1395 N1397 1.384 . S
N1396 C1392 1.427 . S
N1396 C1393 1.384 . S
N1397 C1389 1.427 . S
N1397 C1395 1.384 . S
H1398 C1404 0.930 . S
H1399 C1408 0.930 . S
H1400 C1413 0.929 . S
H1401 C1411 0.929 . S
H1402 C1406 0.929 . S
H1403 C1412 0.929 . S
C1404 H1398 0.930 . S
C1404 C1405 1.367 . S
C1404 C1412 1.378 . S
C1405 C1404 1.367 . S
C1405 C1413 1.433 . S
C1406 H1402 0.929 . S
C1406 C1408 1.378 . S
C1406 C1410 1.350 . S
C1407 C1410 1.463 . S
C1407 C1412 1.350 . S
C1407 N1415 1.427 . S
C1408 H1399 0.930 . S
C1408 C1406 1.378 . S
C1408 C1409 1.367 . S
C1409 C1408 1.367 . S
C1409 C1411 1.433 . S
C1410 C1406 1.350 . S
C1410 C1407 1.463 . S
C1410 N1414 1.427 . S
C1411 H1401 0.929 . S
C1411 C1409 1.433 . S
C1411 N1414 1.384 . S
C1412 H1403 0.929 . S
C1412 C1404 1.378 . S
C1412 C1407 1.350 . S
C1413 H1400 0.929 . S
C1413 C1405 1.433 . S
C1413 N1415 1.384 . S
N1414 C1410 1.427 . S
N1414 C1411 1.384 . S
N1415 C1407 1.427 . S
N1415 C1413 1.384 . S
H1416 C1422 0.930 . S
H1417 C1426 0.930 . S
H1418 C1431 0.929 . S
H1419 C1429 0.929 . S
H1420 C1424 0.929 . S
H1421 C1430 0.929 . S
C1422 H1416 0.930 . S
C1422 C1423 1.367 . S
C1422 C1430 1.378 . S
C1423 C1422 1.367 . S
C1423 C1431 1.433 . S
C1424 H1420 0.929 . S
C1424 C1426 1.378 . S
C1424 C1428 1.350 . S
C1425 C1428 1.463 . S
C1425 C1430 1.350 . S
C1425 N1433 1.427 . S
C1426 H1417 0.930 . S
C1426 C1424 1.378 . S
C1426 C1427 1.367 . S
C1427 C1426 1.367 . S
C1427 C1429 1.433 . S
C1428 C1424 1.350 . S
C1428 C1425 1.463 . S
C1428 N1432 1.427 . S
C1429 H1419 0.929 . S
C1429 C1427 1.433 . S
C1429 N1432 1.384 . S
C1430 H1421 0.929 . S
C1430 C1422 1.378 . S
C1430 C1425 1.350 . S
C1431 H1418 0.929 . S
C1431 C1423 1.433 . S
C1431 N1433 1.384 . S
N1432 C1428 1.427 . S
N1432 C1429 1.384 . S
N1433 C1425 1.427 . S
N1433 C1431 1.384 . S
H1434 C1440 0.930 . S
H1435 C1444 0.930 . S
H1436 C1449 0.929 . S
H1437 C1447 0.929 . S
H1438 C1442 0.929 . S
H1439 C1448 0.929 . S
C1440 H1434 0.930 . S
C1440 C1441 1.367 . S
C1440 C1448 1.378 . S
C1441 C1440 1.367 . S
C1441 C1449 1.433 . S
C1442 H1438 0.929 . S
C1442 C1444 1.378 . S
C1442 C1446 1.350 . S
C1443 C1446 1.463 . S
C1443 C1448 1.350 . S
C1443 N1451 1.427 . S
C1444 H1435 0.930 . S
C1444 C1442 1.378 . S
C1444 C1445 1.367 . S
C1445 C1444 1.367 . S
C1445 C1447 1.433 . S
C1446 C1442 1.350 . S
C1446 C1443 1.463 . S
C1446 N1450 1.427 . S
C1447 H1437 0.929 . S
C1447 C1445 1.433 . S
C1447 N1450 1.384 . S
C1448 H1439 0.929 . S
C1448 C1440 1.378 . S
C1448 C1443 1.350 . S
C1449 H1436 0.929 . S
C1449 C1441 1.433 . S
C1449 N1451 1.384 . S
N1450 C1446 1.427 . S
N1450 C1447 1.384 . S
N1451 C1443 1.427 . S
N1451 C1449 1.384 . S
H1452 C1458 0.930 . S
H1453 C1462 0.930 . S
H1454 C1467 0.929 . S
H1455 C1465 0.929 . S
H1456 C1460 0.929 . S
H1457 C1466 0.929 . S
C1458 H1452 0.930 . S
C1458 C1459 1.367 . S
C1458 C1466 1.378 . S
C1459 C1458 1.367 . S
C1459 C1467 1.433 . S
C1460 H1456 0.929 . S
C1460 C1462 1.378 . S
C1460 C1464 1.350 . S
C1461 C1464 1.463 . S
C1461 C1466 1.350 . S
C1461 N1469 1.427 . S
C1462 H1453 0.930 . S
C1462 C1460 1.378 . S
C1462 C1463 1.367 . S
C1463 C1462 1.367 . S
C1463 C1465 1.433 . S
C1464 C1460 1.350 . S
C1464 C1461 1.463 . S
C1464 N1468 1.427 . S
C1465 H1455 0.929 . S
C1465 C1463 1.433 . S
C1465 N1468 1.384 . S
C1466 H1457 0.929 . S
C1466 C1458 1.378 . S
C1466 C1461 1.350 . S
C1467 H1454 0.929 . S
C1467 C1459 1.433 . S
C1467 N1469 1.384 . S
N1468 C1464 1.427 . S
N1468 C1465 1.384 . S
N1469 C1461 1.427 . S
N1469 C1467 1.384 . S
H1470 C1476 0.930 . S
H1471 C1480 0.930 . S
H1472 C1485 0.929 . S
H1473 C1483 0.929 . S
H1474 C1478 0.929 . S
H1475 C1484 0.929 . S
C1476 H1470 0.930 . S
C1476 C1477 1.367 . S
C1476 C1484 1.378 . S
C1477 C1476 1.367 . S
C1477 C1485 1.433 . S
C1478 H1474 0.929 . S
C1478 C1480 1.378 . S
C1478 C1482 1.350 . S
C1479 C1482 1.463 . S
C1479 C1484 1.350 . S
C1479 N1487 1.427 . S
C1480 H1471 0.930 . S
C1480 C1478 1.378 . S
C1480 C1481 1.367 . S
C1481 C1480 1.367 . S
C1481 C1483 1.433 . S
C1482 C1478 1.350 . S
C1482 C1479 1.463 . S
C1482 N1486 1.427 . S
C1483 H1473 0.929 . S
C1483 C1481 1.433 . S
C1483 N1486 1.384 . S
C1484 H1475 0.929 . S
C1484 C1476 1.378 . S
C1484 C1479 1.350 . S
C1485 H1472 0.929 . S
C1485 C1477 1.433 . S
C1485 N1487 1.384 . S
N1486 C1482 1.427 . S
N1486 C1483 1.384 . S
N1487 C1479 1.427 . S
N1487 C1485 1.384 . S
H1488 C1494 0.930 . S
H1489 C1498 0.930 . S
H1490 C1503 0.929 . S
H1491 C1501 0.929 . S
H1492 C1496 0.929 . S
H1493 C1502 0.929 . S
C1494 H1488 0.930 . S
C1494 C1495 1.367 . S
C1494 C1502 1.378 1_565 S
C1495 C1494 1.367 . S
C1495 C1503 1.433 . S
C1496 H1492 0.929 . S
C1496 C1498 1.378 1_565 S
C1496 C1500 1.350 1_565 S
C1497 C1500 1.463 1_565 S
C1497 C1502 1.350 1_565 S
C1497 N1505 1.427 . S
C1498 H1489 0.930 . S
C1498 C1496 1.378 1_545 S
C1498 C1499 1.367 . S
C1499 C1498 1.367 . S
C1499 C1501 1.433 . S
C1500 C1496 1.350 1_545 S
C1500 C1497 1.463 1_545 S
C1500 N1504 1.427 . S
C1501 H1491 0.929 . S
C1501 C1499 1.433 . S
C1501 N1504 1.384 . S
C1502 H1493 0.929 . S
C1502 C1494 1.378 1_545 S
C1502 C1497 1.350 1_545 S
C1503 H1490 0.929 . S
C1503 C1495 1.433 . S
C1503 N1505 1.384 . S
N1504 C1500 1.427 . S
N1504 C1501 1.384 . S
N1505 C1497 1.427 . S
N1505 C1503 1.384 . S
H1506 C1512 0.930 . S
H1507 C1516 0.930 . S
H1508 C1521 0.929 1_565 S
H1509 C1519 0.929 1_545 S
H1510 C1514 0.929 . S
H1511 C1520 0.929 . S
C1512 H1506 0.930 . S
C1512 C1513 1.367 . S
C1512 C1520 1.378 . S
C1513 C1512 1.367 . S
C1513 C1521 1.433 . S
C1514 H1510 0.929 . S
C1514 C1516 1.378 . S
C1514 C1518 1.350 . S
C1515 C1518 1.463 1_545 S
C1515 C1520 1.350 . S
C1515 N1523 1.427 1_545 S
C1516 H1507 0.930 . S
C1516 C1514 1.378 . S
C1516 C1517 1.367 . S
C1517 C1516 1.367 . S
C1517 C1519 1.433 . S
C1518 C1514 1.350 . S
C1518 C1515 1.463 1_565 S
C1518 N1522 1.427 1_565 S
C1519 H1509 0.929 1_565 S
C1519 C1517 1.433 . S
C1519 N1522 1.384 1_565 S
C1520 H1511 0.929 . S
C1520 C1512 1.378 . S
C1520 C1515 1.350 . S
C1521 H1508 0.929 1_545 S
C1521 C1513 1.433 . S
C1521 N1523 1.384 1_545 S
N1522 C1518 1.427 1_545 S
N1522 C1519 1.384 1_545 S
N1523 C1515 1.427 1_565 S
N1523 C1521 1.384 1_565 S
H1524 C1530 0.930 . S
H1525 C1534 0.930 . S
H1526 C1539 0.929 1_565 S
H1527 C1537 0.929 1_545 S
H1528 C1532 0.929 . S
H1529 C1538 0.929 . S
C1530 H1524 0.930 . S
C1530 C1531 1.367 . S
C1530 C1538 1.378 . S
C1531 C1530 1.367 . S
C1531 C1539 1.433 . S
C1532 H1528 0.929 . S
C1532 C1534 1.378 . S
C1532 C1536 1.350 . S
C1533 C1536 1.463 1_545 S
C1533 C1538 1.350 . S
C1533 N1541 1.427 1_545 S
C1534 H1525 0.930 . S
C1534 C1532 1.378 . S
C1534 C1535 1.367 . S
C1535 C1534 1.367 . S
C1535 C1537 1.433 . S
C1536 C1532 1.350 . S
C1536 C1533 1.463 1_565 S
C1536 N1540 1.427 1_565 S
C1537 H1527 0.929 1_565 S
C1537 C1535 1.433 . S
C1537 N1540 1.384 1_565 S
C1538 H1529 0.929 . S
C1538 C1530 1.378 . S
C1538 C1533 1.350 . S
C1539 H1526 0.929 1_545 S
C1539 C1531 1.433 . S
C1539 N1541 1.384 1_545 S
N1540 C1536 1.427 1_545 S
N1540 C1537 1.384 1_545 S
N1541 C1533 1.427 1_565 S
N1541 C1539 1.384 1_565 S
H1542 C1548 0.930 . S
H1543 C1552 0.930 . S
H1544 C1557 0.929 . S
H1545 C1555 0.929 . S
H1546 C1550 0.926 1_545 S
H1547 C1556 0.926 1_565 S
C1548 H1542 0.930 . S
C1548 C1549 1.367 . S
C1548 C1556 1.378 . S
C1549 C1548 1.367 . S
C1549 C1557 1.433 . S
C1550 H1546 0.926 1_565 S
C1550 C1552 1.378 . S
C1550 C1554 1.350 . S
C1551 C1554 1.463 1_545 S
C1551 C1556 1.350 . S
C1551 N1559 1.427 . S
C1552 H1543 0.930 . S
C1552 C1550 1.378 . S
C1552 C1553 1.367 . S
C1553 C1552 1.367 . S
C1553 C1555 1.433 . S
C1554 C1550 1.350 . S
C1554 C1551 1.463 1_565 S
C1554 N1558 1.427 . S
C1555 H1545 0.929 . S
C1555 C1553 1.433 . S
C1555 N1558 1.384 . S
C1556 H1547 0.926 1_545 S
C1556 C1548 1.378 . S
C1556 C1551 1.350 . S
C1557 H1544 0.929 . S
C1557 C1549 1.433 . S
C1557 N1559 1.384 . S
N1558 C1554 1.427 . S
N1558 C1555 1.384 . S
N1559 C1551 1.427 . S
N1559 C1557 1.384 . S
H1560 C1566 0.930 . S
H1561 C1570 0.930 . S
H1562 C1575 0.929 . S
H1563 C1573 0.929 . S
H1564 C1568 0.929 . S
H1565 C1574 0.929 . S
C1566 H1560 0.930 . S
C1566 C1567 1.367 . S
C1566 C1574 1.378 . S
C1567 C1566 1.367 . S
C1567 C1575 1.433 . S
C1568 H1564 0.929 . S
C1568 C1570 1.378 . S
C1568 C1572 1.350 . S
C1569 C1572 1.463 . S
C1569 C1574 1.350 . S
C1569 N1577 1.427 . S
C1570 H1561 0.930 . S
C1570 C1568 1.378 . S
C1570 C1571 1.367 . S
C1571 C1570 1.367 . S
C1571 C1573 1.433 . S
C1572 C1568 1.350 . S
C1572 C1569 1.463 . S
C1572 N1576 1.427 . S
C1573 H1563 0.929 . S
C1573 C1571 1.433 . S
C1573 N1576 1.384 . S
C1574 H1565 0.929 . S
C1574 C1566 1.378 . S
C1574 C1569 1.350 . S
C1575 H1562 0.929 . S
C1575 C1567 1.433 . S
C1575 N1577 1.384 . S
N1576 C1572 1.427 . S
N1576 C1573 1.384 . S
N1577 C1569 1.427 . S
N1577 C1575 1.384 . S
H1578 C1584 0.930 . S
H1579 C1588 0.930 . S
H1580 C1593 0.929 . S
H1581 C1591 0.929 . S
H1582 C1586 0.929 . S
H1583 C1592 0.929 . S
C1584 H1578 0.930 . S
C1584 C1585 1.367 . S
C1584 C1592 1.378 . S
C1585 C1584 1.367 . S
C1585 C1593 1.433 . S
C1586 H1582 0.929 . S
C1586 C1588 1.378 . S
C1586 C1590 1.350 . S
C1587 C1590 1.463 . S
C1587 C1592 1.350 . S
C1587 N1595 1.427 . S
C1588 H1579 0.930 . S
C1588 C1586 1.378 . S
C1588 C1589 1.367 . S
C1589 C1588 1.367 . S
C1589 C1591 1.433 . S
C1590 C1586 1.350 . S
C1590 C1587 1.463 . S
C1590 N1594 1.427 . S
C1591 H1581 0.929 . S
C1591 C1589 1.433 . S
C1591 N1594 1.384 . S
C1592 H1583 0.929 . S
C1592 C1584 1.378 . S
C1592 C1587 1.350 . S
C1593 H1580 0.929 . S
C1593 C1585 1.433 . S
C1593 N1595 1.384 . S
N1594 C1590 1.427 . S
N1594 C1591 1.384 . S
N1595 C1587 1.427 . S
N1595 C1593 1.384 . S
H1596 C1602 0.930 . S
H1597 C1606 0.930 . S
H1598 C1611 0.929 . S
H1599 C1609 0.929 . S
H1600 C1604 0.929 . S
H1601 C1610 0.929 . S
C1602 H1596 0.930 . S
C1602 C1603 1.367 . S
C1602 C1610 1.378 . S
C1603 C1602 1.367 . S
C1603 C1611 1.433 . S
C1604 H1600 0.929 . S
C1604 C1606 1.378 . S
C1604 C1608 1.350 . S
C1605 C1608 1.463 . S
C1605 C1610 1.350 . S
C1605 N1613 1.427 . S
C1606 H1597 0.930 . S
C1606 C1604 1.378 . S
C1606 C1607 1.367 . S
C1607 C1606 1.367 . S
C1607 C1609 1.433 . S
C1608 C1604 1.350 . S
C1608 C1605 1.463 . S
C1608 N1612 1.427 . S
C1609 H1599 0.929 . S
C1609 C1607 1.433 . S
C1609 N1612 1.384 . S
C1610 H1601 0.929 . S
C1610 C1602 1.378 . S
C1610 C1605 1.350 . S
C1611 H1598 0.929 . S
C1611 C1603 1.433 . S
C1611 N1613 1.384 . S
N1612 C1608 1.427 . S
N1612 C1609 1.384 . S
N1613 C1605 1.427 . S
N1613 C1611 1.384 . S
H1614 C1620 0.930 . S
H1615 C1624 0.930 . S
H1616 C1629 0.929 . S
H1617 C1627 0.929 . S
H1618 C1622 0.929 . S
H1619 C1628 0.929 . S
C1620 H1614 0.930 . S
C1620 C1621 1.367 . S
C1620 C1628 1.378 . S
C1621 C1620 1.367 . S
C1621 C1629 1.433 . S
C1622 H1618 0.929 . S
C1622 C1624 1.378 . S
C1622 C1626 1.350 . S
C1623 C1626 1.463 . S
C1623 C1628 1.350 . S
C1623 N1631 1.427 . S
C1624 H1615 0.930 . S
C1624 C1622 1.378 . S
C1624 C1625 1.367 . S
C1625 C1624 1.367 . S
C1625 C1627 1.433 . S
C1626 C1622 1.350 . S
C1626 C1623 1.463 . S
C1626 N1630 1.427 . S
C1627 H1617 0.929 . S
C1627 C1625 1.433 . S
C1627 N1630 1.384 . S
C1628 H1619 0.929 . S
C1628 C1620 1.378 . S
C1628 C1623 1.350 . S
C1629 H1616 0.929 . S
C1629 C1621 1.433 . S
C1629 N1631 1.384 . S
N1630 C1626 1.427 . S
N1630 C1627 1.384 . S
N1631 C1623 1.427 . S
N1631 C1629 1.384 . S
H1632 C1638 0.930 . S
H1633 C1642 0.930 . S
H1634 C1647 0.929 . S
H1635 C1645 0.929 . S
H1636 C1640 0.929 . S
H1637 C1646 0.929 . S
C1638 H1632 0.930 . S
C1638 C1639 1.367 . S
C1638 C1646 1.378 . S
C1639 C1638 1.367 . S
C1639 C1647 1.433 . S
C1640 H1636 0.929 . S
C1640 C1642 1.378 . S
C1640 C1644 1.350 . S
C1641 C1644 1.463 1_556 S
C1641 C1646 1.350 . S
C1641 N1649 1.427 . S
C1642 H1633 0.930 . S
C1642 C1640 1.378 . S
C1642 C1643 1.367 . S
C1643 C1642 1.367 . S
C1643 C1645 1.433 . S
C1644 C1640 1.350 . S
C1644 C1641 1.463 1_554 S
C1644 N1648 1.427 . S
C1645 H1635 0.929 . S
C1645 C1643 1.433 . S
C1645 N1648 1.384 . S
C1646 H1637 0.929 . S
C1646 C1638 1.378 . S
C1646 C1641 1.350 . S
C1647 H1634 0.929 . S
C1647 C1639 1.433 . S
C1647 N1649 1.384 . S
N1648 C1644 1.427 . S
N1648 C1645 1.384 . S
N1649 C1641 1.427 . S
N1649 C1647 1.384 . S
H1650 C1656 0.930 . S
H1651 C1660 0.930 . S
H1652 C1665 0.929 . S
H1653 C1663 0.929 . S
H1654 C1658 0.929 . S
H1655 C1664 0.929 . S
C1656 H1650 0.930 . S
C1656 C1657 1.367 . S
C1656 C1664 1.378 . S
C1657 C1656 1.367 . S
C1657 C1665 1.433 . S
C1658 H1654 0.929 . S
C1658 C1660 1.378 . S
C1658 C1662 1.350 . S
C1659 C1662 1.463 1_556 S
C1659 C1664 1.350 . S
C1659 N1667 1.427 . S
C1660 H1651 0.930 . S
C1660 C1658 1.378 . S
C1660 C1661 1.367 . S
C1661 C1660 1.367 . S
C1661 C1663 1.433 . S
C1662 C1658 1.350 . S
C1662 C1659 1.463 1_554 S
C1662 N1666 1.427 . S
C1663 H1653 0.929 . S
C1663 C1661 1.433 . S
C1663 N1666 1.384 . S
C1664 H1655 0.929 . S
C1664 C1656 1.378 . S
C1664 C1659 1.350 . S
C1665 H1652 0.929 . S
C1665 C1657 1.433 . S
C1665 N1667 1.384 . S
N1666 C1662 1.427 . S
N1666 C1663 1.384 . S
N1667 C1659 1.427 . S
N1667 C1665 1.384 . S
H1668 C1674 0.930 . S
H1669 C1678 0.930 . S
H1670 C1683 0.929 . S
H1671 C1681 0.929 . S
H1672 C1676 0.929 . S
H1673 C1682 0.929 . S
C1674 H1668 0.930 . S
C1674 C1675 1.367 . S
C1674 C1682 1.378 . S
C1675 C1674 1.367 . S
C1675 C1683 1.433 . S
C1676 H1672 0.929 . S
C1676 C1678 1.378 . S
C1676 C1680 1.350 . S
C1677 C1680 1.463 . S
C1677 C1682 1.350 . S
C1677 N1685 1.427 . S
C1678 H1669 0.930 . S
C1678 C1676 1.378 . S
C1678 C1679 1.367 . S
C1679 C1678 1.367 . S
C1679 C1681 1.433 . S
C1680 C1676 1.350 . S
C1680 C1677 1.463 . S
C1680 N1684 1.427 . S
C1681 H1671 0.929 . S
C1681 C1679 1.433 . S
C1681 N1684 1.384 . S
C1682 H1673 0.929 . S
C1682 C1674 1.378 . S
C1682 C1677 1.350 . S
C1683 H1670 0.929 . S
C1683 C1675 1.433 . S
C1683 N1685 1.384 . S
N1684 C1680 1.427 . S
N1684 C1681 1.384 . S
N1685 C1677 1.427 . S
N1685 C1683 1.384 . S
H1686 C1692 0.930 . S
H1687 C1696 0.930 . S
H1688 C1701 0.929 . S
H1689 C1699 0.929 . S
H1690 C1694 0.929 . S
H1691 C1700 0.929 . S
C1692 H1686 0.930 . S
C1692 C1693 1.367 . S
C1692 C1700 1.378 . S
C1693 C1692 1.367 . S
C1693 C1701 1.433 . S
C1694 H1690 0.929 . S
C1694 C1696 1.378 . S
C1694 C1698 1.350 . S
C1695 C1698 1.463 . S
C1695 C1700 1.350 . S
C1695 N1703 1.427 . S
C1696 H1687 0.930 . S
C1696 C1694 1.378 . S
C1696 C1697 1.367 . S
C1697 C1696 1.367 . S
C1697 C1699 1.433 . S
C1698 C1694 1.350 . S
C1698 C1695 1.463 . S
C1698 N1702 1.427 . S
C1699 H1689 0.929 . S
C1699 C1697 1.433 . S
C1699 N1702 1.384 . S
C1700 H1691 0.929 . S
C1700 C1692 1.378 . S
C1700 C1695 1.350 . S
C1701 H1688 0.929 . S
C1701 C1693 1.433 . S
C1701 N1703 1.384 . S
N1702 C1698 1.427 . S
N1702 C1699 1.384 . S
N1703 C1695 1.427 . S
N1703 C1701 1.384 . S
H1704 C1710 0.930 . S
H1705 C1714 0.930 . S
H1706 C1719 0.929 . S
H1707 C1717 0.929 . S
H1708 C1712 0.929 . S
H1709 C1718 0.929 . S
C1710 H1704 0.930 . S
C1710 C1711 1.367 . S
C1710 C1718 1.378 . S
C1711 C1710 1.367 . S
C1711 C1719 1.433 . S
C1712 H1708 0.929 . S
C1712 C1714 1.378 . S
C1712 C1716 1.350 . S
C1713 C1716 1.463 1_554 S
C1713 C1718 1.350 . S
C1713 N1721 1.427 . S
C1714 H1705 0.930 . S
C1714 C1712 1.378 . S
C1714 C1715 1.367 . S
C1715 C1714 1.367 . S
C1715 C1717 1.433 . S
C1716 C1712 1.350 . S
C1716 C1713 1.463 1_556 S
C1716 N1720 1.427 . S
C1717 H1707 0.929 . S
C1717 C1715 1.433 . S
C1717 N1720 1.384 . S
C1718 H1709 0.929 . S
C1718 C1710 1.378 . S
C1718 C1713 1.350 . S
C1719 H1706 0.929 . S
C1719 C1711 1.433 . S
C1719 N1721 1.384 . S
N1720 C1716 1.427 . S
N1720 C1717 1.384 . S
N1721 C1713 1.427 . S
N1721 C1719 1.384 . S
H1722 C1728 0.930 . S
H1723 C1732 0.930 . S
H1724 C1737 0.929 . S
H1725 C1735 0.929 . S
H1726 C1730 0.929 . S
H1727 C1736 0.929 . S
C1728 H1722 0.930 . S
C1728 C1729 1.367 . S
C1728 C1736 1.378 . S
C1729 C1728 1.367 . S
C1729 C1737 1.433 . S
C1730 H1726 0.929 . S
C1730 C1732 1.378 . S
C1730 C1734 1.350 . S
C1731 C1734 1.463 1_556 S
C1731 C1736 1.350 . S
C1731 N1739 1.427 . S
C1732 H1723 0.930 . S
C1732 C1730 1.378 . S
C1732 C1733 1.367 . S
C1733 C1732 1.367 . S
C1733 C1735 1.433 . S
C1734 C1730 1.350 . S
C1734 C1731 1.463 1_554 S
C1734 N1738 1.427 . S
C1735 H1725 0.929 . S
C1735 C1733 1.433 . S
C1735 N1738 1.384 . S
C1736 H1727 0.929 . S
C1736 C1728 1.378 . S
C1736 C1731 1.350 . S
C1737 H1724 0.929 . S
C1737 C1729 1.433 . S
C1737 N1739 1.384 . S
N1738 C1734 1.427 . S
N1738 C1735 1.384 . S
N1739 C1731 1.427 . S
N1739 C1737 1.384 . S
H1740 C1746 0.930 . S
H1741 C1750 0.930 . S
H1742 C1755 0.929 . S
H1743 C1753 0.929 . S
H1744 C1748 0.929 . S
H1745 C1754 0.929 . S
C1746 H1740 0.930 . S
C1746 C1747 1.367 . S
C1746 C1754 1.378 . S
C1747 C1746 1.367 . S
C1747 C1755 1.433 . S
C1748 H1744 0.929 . S
C1748 C1750 1.378 . S
C1748 C1752 1.350 . S
C1749 C1752 1.463 . S
C1749 C1754 1.350 . S
C1749 N1757 1.427 . S
C1750 H1741 0.930 . S
C1750 C1748 1.378 . S
C1750 C1751 1.367 . S
C1751 C1750 1.367 . S
C1751 C1753 1.433 . S
C1752 C1748 1.350 . S
C1752 C1749 1.463 . S
C1752 N1756 1.427 . S
C1753 H1743 0.929 . S
C1753 C1751 1.433 . S
C1753 N1756 1.384 . S
C1754 H1745 0.929 . S
C1754 C1746 1.378 . S
C1754 C1749 1.350 . S
C1755 H1742 0.929 . S
C1755 C1747 1.433 . S
C1755 N1757 1.384 . S
N1756 C1752 1.427 . S
N1756 C1753 1.384 . S
N1757 C1749 1.427 . S
N1757 C1755 1.384 . S
H1758 C1764 0.930 . S
H1759 C1768 0.930 . S
H1760 C1773 0.929 . S
H1761 C1771 0.929 . S
H1762 C1766 0.929 . S
H1763 C1772 0.929 . S
C1764 H1758 0.930 . S
C1764 C1765 1.367 . S
C1764 C1772 1.378 . S
C1765 C1764 1.367 . S
C1765 C1773 1.433 . S
C1766 H1762 0.929 . S
C1766 C1768 1.378 . S
C1766 C1770 1.350 . S
C1767 C1770 1.463 . S
C1767 C1772 1.350 . S
C1767 N1775 1.427 . S
C1768 H1759 0.930 . S
C1768 C1766 1.378 . S
C1768 C1769 1.367 . S
C1769 C1768 1.367 . S
C1769 C1771 1.433 . S
C1770 C1766 1.350 . S
C1770 C1767 1.463 . S
C1770 N1774 1.427 . S
C1771 H1761 0.929 . S
C1771 C1769 1.433 . S
C1771 N1774 1.384 . S
C1772 H1763 0.929 . S
C1772 C1764 1.378 . S
C1772 C1767 1.350 . S
C1773 H1760 0.929 . S
C1773 C1765 1.433 . S
C1773 N1775 1.384 . S
N1774 C1770 1.427 . S
N1774 C1771 1.384 . S
N1775 C1767 1.427 . S
N1775 C1773 1.384 . S
H1776 C1782 0.941 . S
H1777 C1786 0.941 . S
H1778 C1791 0.929 . S
H1779 C1789 0.929 . S
H1780 C1784 0.929 . S
H1781 C1790 0.929 . S
C1782 H1776 0.941 . S
C1782 C1783 1.350 1_545 S
C1782 C1790 1.385 . S
C1783 C1782 1.350 1_565 S
C1783 C1791 1.433 . S
C1784 H1780 0.929 . S
C1784 C1786 1.385 . S
C1784 C1788 1.350 1_565 S
C1785 C1788 1.463 1_665 S
C1785 C1790 1.350 1_565 S
C1785 N1793 1.427 . S
C1786 H1777 0.941 . S
C1786 C1784 1.385 . S
C1786 C1787 1.350 1_565 S
C1787 C1786 1.350 1_545 S
C1787 C1789 1.433 . S
C1788 C1784 1.350 1_545 S
C1788 C1785 1.463 1_445 S
C1788 N1792 1.427 . S
C1789 H1779 0.929 . S
C1789 C1787 1.433 . S
C1789 N1792 1.384 . S
C1790 H1781 0.929 . S
C1790 C1782 1.385 . S
C1790 C1785 1.350 1_545 S
C1791 H1778 0.929 . S
C1791 C1783 1.433 . S
C1791 N1793 1.384 . S
N1792 C1788 1.427 . S
N1792 C1789 1.384 . S
N1793 C1785 1.427 . S
N1793 C1791 1.384 . S
H1794 C1800 0.930 1_565 S
H1795 C1804 0.930 1_545 S
H1796 C1809 0.929 . S
H1797 C1807 0.929 . S
H1798 C1802 0.929 . S
H1799 C1808 0.929 . S
C1800 H1794 0.930 1_545 S
C1800 C1801 1.367 . S
C1800 C1808 1.378 1_545 S
C1801 C1800 1.367 . S
C1801 C1809 1.433 . S
C1802 H1798 0.929 . S
C1802 C1804 1.378 1_545 S
C1802 C1806 1.350 1_545 S
C1803 C1806 1.463 1_645 S
C1803 C1808 1.350 1_545 S
C1803 N1811 1.427 . S
C1804 H1795 0.930 1_565 S
C1804 C1802 1.378 1_565 S
C1804 C1805 1.367 . S
C1805 C1804 1.367 . S
C1805 C1807 1.433 . S
C1806 C1802 1.350 1_565 S
C1806 C1803 1.463 1_465 S
C1806 N1810 1.427 . S
C1807 H1797 0.929 . S
C1807 C1805 1.433 . S
C1807 N1810 1.384 . S
C1808 H1799 0.929 . S
C1808 C1800 1.378 1_565 S
C1808 C1803 1.350 1_565 S
C1809 H1796 0.929 . S
C1809 C1801 1.433 . S
C1809 N1811 1.384 . S
N1810 C1806 1.427 . S
N1810 C1807 1.384 . S
N1811 C1803 1.427 . S
N1811 C1809 1.384 . S
H1812 C1818 0.930 . S
H1813 C1822 0.930 . S
H1814 C1827 0.929 . S
H1815 C1825 0.929 . S
H1816 C1820 0.929 . S
H1817 C1826 0.929 . S
C1818 H1812 0.930 . S
C1818 C1819 1.367 1_565 S
C1818 C1826 1.378 . S
C1819 C1818 1.367 1_545 S
C1819 C1827 1.433 . S
C1820 H1816 0.929 . S
C1820 C1822 1.378 . S
C1820 C1824 1.350 1_545 S
C1821 C1824 1.463 1_445 S
C1821 C1826 1.350 1_545 S
C1821 N1829 1.427 . S
C1822 H1813 0.930 . S
C1822 C1820 1.378 . S
C1822 C1823 1.367 1_545 S
C1823 C1822 1.367 1_565 S
C1823 C1825 1.433 . S
C1824 C1820 1.350 1_565 S
C1824 C1821 1.463 1_665 S
C1824 N1828 1.427 . S
C1825 H1815 0.929 . S
C1825 C1823 1.433 . S
C1825 N1828 1.384 . S
C1826 H1817 0.929 . S
C1826 C1818 1.378 . S
C1826 C1821 1.350 1_565 S
C1827 H1814 0.929 . S
C1827 C1819 1.433 . S
C1827 N1829 1.384 . S
N1828 C1824 1.427 . S
N1828 C1825 1.384 . S
N1829 C1821 1.427 . S
N1829 C1827 1.384 . S
H1830 C1836 0.930 . S
H1831 C1840 0.930 . S
H1832 C1845 0.929 . S
H1833 C1843 0.929 . S
H1834 C1838 0.929 . S
H1835 C1844 0.929 . S
C1836 H1830 0.930 . S
C1836 C1837 1.367 . S
C1836 C1844 1.378 . S
C1837 C1836 1.367 . S
C1837 C1845 1.433 . S
C1838 H1834 0.929 . S
C1838 C1840 1.378 . S
C1838 C1842 1.350 . S
C1839 C1842 1.463 1_645 S
C1839 C1844 1.350 . S
C1839 N1847 1.427 . S
C1840 H1831 0.930 . S
C1840 C1838 1.378 . S
C1840 C1841 1.367 . S
C1841 C1840 1.367 . S
C1841 C1843 1.433 . S
C1842 C1838 1.350 . S
C1842 C1839 1.463 1_465 S
C1842 N1846 1.427 . S
C1843 H1833 0.929 . S
C1843 C1841 1.433 . S
C1843 N1846 1.384 . S
C1844 H1835 0.929 . S
C1844 C1836 1.378 . S
C1844 C1839 1.350 . S
C1845 H1832 0.929 . S
C1845 C1837 1.433 . S
C1845 N1847 1.384 . S
N1846 C1842 1.427 . S
N1846 C1843 1.384 . S
N1847 C1839 1.427 . S
N1847 C1845 1.384 . S
H1848 C1854 0.930 . S
H1849 C1858 0.930 . S
H1850 C1863 0.929 . S
H1851 C1861 0.929 . S
H1852 C1856 0.929 . S
H1853 C1862 0.929 . S
C1854 H1848 0.930 . S
C1854 C1855 1.367 . S
C1854 C1862 1.378 . S
C1855 C1854 1.367 . S
C1855 C1863 1.433 . S
C1856 H1852 0.929 . S
C1856 C1858 1.378 . S
C1856 C1860 1.350 . S
C1857 C1860 1.463 . S
C1857 C1862 1.350 . S
C1857 N1865 1.427 . S
C1858 H1849 0.930 . S
C1858 C1856 1.378 . S
C1858 C1859 1.367 . S
C1859 C1858 1.367 . S
C1859 C1861 1.433 . S
C1860 C1856 1.350 . S
C1860 C1857 1.463 . S
C1860 N1864 1.427 . S
C1861 H1851 0.929 . S
C1861 C1859 1.433 . S
C1861 N1864 1.384 . S
C1862 H1853 0.929 . S
C1862 C1854 1.378 . S
C1862 C1857 1.350 . S
C1863 H1850 0.929 . S
C1863 C1855 1.433 . S
C1863 N1865 1.384 . S
N1864 C1860 1.427 . S
N1864 C1861 1.384 . S
N1865 C1857 1.427 . S
N1865 C1863 1.384 . S
H1866 C1872 0.930 . S
H1867 C1876 0.930 . S
H1868 C1881 0.929 . S
H1869 C1879 0.929 . S
H1870 C1874 0.929 . S
H1871 C1880 0.929 . S
C1872 H1866 0.930 . S
C1872 C1873 1.367 . S
C1872 C1880 1.378 . S
C1873 C1872 1.367 . S
C1873 C1881 1.433 . S
C1874 H1870 0.929 . S
C1874 C1876 1.378 . S
C1874 C1878 1.350 . S
C1875 C1878 1.463 . S
C1875 C1880 1.350 . S
C1875 N1883 1.427 . S
C1876 H1867 0.930 . S
C1876 C1874 1.378 . S
C1876 C1877 1.367 . S
C1877 C1876 1.367 . S
C1877 C1879 1.433 . S
C1878 C1874 1.350 . S
C1878 C1875 1.463 . S
C1878 N1882 1.427 . S
C1879 H1869 0.929 . S
C1879 C1877 1.433 . S
C1879 N1882 1.384 . S
C1880 H1871 0.929 . S
C1880 C1872 1.378 . S
C1880 C1875 1.350 . S
C1881 H1868 0.929 . S
C1881 C1873 1.433 . S
C1881 N1883 1.384 . S
N1882 C1878 1.427 . S
N1882 C1879 1.384 . S
N1883 C1875 1.427 . S
N1883 C1881 1.384 . S
H1884 C1890 0.930 . S
H1885 C1894 0.930 . S
H1886 C1899 0.929 . S
H1887 C1897 0.929 . S
H1888 C1892 0.929 . S
H1889 C1898 0.929 . S
C1890 H1884 0.930 . S
C1890 C1891 1.367 . S
C1890 C1898 1.378 . S
C1891 C1890 1.367 . S
C1891 C1899 1.433 . S
C1892 H1888 0.929 . S
C1892 C1894 1.378 . S
C1892 C1896 1.350 . S
C1893 C1896 1.463 . S
C1893 C1898 1.350 . S
C1893 N1901 1.427 . S
C1894 H1885 0.930 . S
C1894 C1892 1.378 . S
C1894 C1895 1.367 . S
C1895 C1894 1.367 . S
C1895 C1897 1.433 . S
C1896 C1892 1.350 . S
C1896 C1893 1.463 . S
C1896 N1900 1.427 . S
C1897 H1887 0.929 . S
C1897 C1895 1.433 . S
C1897 N1900 1.384 . S
C1898 H1889 0.929 . S
C1898 C1890 1.378 . S
C1898 C1893 1.350 . S
C1899 H1886 0.929 . S
C1899 C1891 1.433 . S
C1899 N1901 1.384 . S
N1900 C1896 1.427 . S
N1900 C1897 1.384 . S
N1901 C1893 1.427 . S
N1901 C1899 1.384 . S
H1902 C1908 0.930 . S
H1903 C1912 0.930 . S
H1904 C1917 0.929 . S
H1905 C1915 0.929 . S
H1906 C1910 0.929 . S
H1907 C1916 0.929 . S
C1908 H1902 0.930 . S
C1908 C1909 1.367 . S
C1908 C1916 1.378 . S
C1909 C1908 1.367 . S
C1909 C1917 1.433 . S
C1910 H1906 0.929 . S
C1910 C1912 1.378 . S
C1910 C1914 1.350 . S
C1911 C1914 1.463 . S
C1911 C1916 1.350 . S
C1911 N1919 1.427 . S
C1912 H1903 0.930 . S
C1912 C1910 1.378 . S
C1912 C1913 1.367 . S
C1913 C1912 1.367 . S
C1913 C1915 1.433 . S
C1914 C1910 1.350 . S
C1914 C1911 1.463 . S
C1914 N1918 1.427 . S
C1915 H1905 0.929 . S
C1915 C1913 1.433 . S
C1915 N1918 1.384 . S
C1916 H1907 0.929 . S
C1916 C1908 1.378 . S
C1916 C1911 1.350 . S
C1917 H1904 0.929 . S
C1917 C1909 1.433 . S
C1917 N1919 1.384 . S
N1918 C1914 1.427 . S
N1918 C1915 1.384 . S
N1919 C1911 1.427 . S
N1919 C1917 1.384 . S
H1920 C1926 0.930 . S
H1921 C1930 0.930 . S
H1922 C1935 0.929 . S
H1923 C1933 0.929 . S
H1924 C1928 0.929 . S
H1925 C1934 0.929 . S
C1926 H1920 0.930 . S
C1926 C1927 1.367 . S
C1926 C1934 1.378 . S
C1927 C1926 1.367 . S
C1927 C1935 1.433 . S
C1928 H1924 0.929 . S
C1928 C1930 1.378 . S
C1928 C1932 1.350 . S
C1929 C1932 1.463 . S
C1929 C1934 1.350 . S
C1929 N1937 1.427 . S
C1930 H1921 0.930 . S
C1930 C1928 1.378 . S
C1930 C1931 1.367 . S
C1931 C1930 1.367 . S
C1931 C1933 1.433 . S
C1932 C1928 1.350 . S
C1932 C1929 1.463 . S
C1932 N1936 1.427 . S
C1933 H1923 0.929 . S
C1933 C1931 1.433 . S
C1933 N1936 1.384 . S
C1934 H1925 0.929 . S
C1934 C1926 1.378 . S
C1934 C1929 1.350 . S
C1935 H1922 0.929 . S
C1935 C1927 1.433 . S
C1935 N1937 1.384 . S
N1936 C1932 1.427 . S
N1936 C1933 1.384 . S
N1937 C1929 1.427 . S
N1937 C1935 1.384 . S
H1938 C1944 0.930 . S
H1939 C1948 0.930 . S
H1940 C1953 0.929 . S
H1941 C1951 0.929 . S
H1942 C1946 0.929 . S
H1943 C1952 0.929 . S
C1944 H1938 0.930 . S
C1944 C1945 1.367 . S
C1944 C1952 1.378 . S
C1945 C1944 1.367 . S
C1945 C1953 1.433 . S
C1946 H1942 0.929 . S
C1946 C1948 1.378 . S
C1946 C1950 1.350 . S
C1947 C1950 1.463 . S
C1947 C1952 1.350 . S
C1947 N1955 1.427 . S
C1948 H1939 0.930 . S
C1948 C1946 1.378 . S
C1948 C1949 1.367 . S
C1949 C1948 1.367 . S
C1949 C1951 1.433 . S
C1950 C1946 1.350 . S
C1950 C1947 1.463 . S
C1950 N1954 1.427 . S
C1951 H1941 0.929 . S
C1951 C1949 1.433 . S
C1951 N1954 1.384 . S
C1952 H1943 0.929 . S
C1952 C1944 1.378 . S
C1952 C1947 1.350 . S
C1953 H1940 0.929 . S
C1953 C1945 1.433 . S
C1953 N1955 1.384 . S
N1954 C1950 1.427 . S
N1954 C1951 1.384 . S
N1955 C1947 1.427 . S
N1955 C1953 1.384 . S
H1956 C1962 0.930 . S
H1957 C1966 0.930 . S
H1958 C1971 0.929 . S
H1959 C1969 0.929 . S
H1960 C1964 0.929 . S
H1961 C1970 0.929 . S
C1962 H1956 0.930 . S
C1962 C1963 1.367 . S
C1962 C1970 1.378 . S
C1963 C1962 1.367 . S
C1963 C1971 1.433 . S
C1964 H1960 0.929 . S
C1964 C1966 1.378 . S
C1964 C1968 1.350 . S
C1965 C1968 1.463 . S
C1965 C1970 1.350 . S
C1965 N1973 1.427 . S
C1966 H1957 0.930 . S
C1966 C1964 1.378 . S
C1966 C1967 1.367 . S
C1967 C1966 1.367 . S
C1967 C1969 1.433 . S
C1968 C1964 1.350 . S
C1968 C1965 1.463 . S
C1968 N1972 1.427 . S
C1969 H1959 0.929 . S
C1969 C1967 1.433 . S
C1969 N1972 1.384 . S
C1970 H1961 0.929 . S
C1970 C1962 1.378 . S
C1970 C1965 1.350 . S
C1971 H1958 0.929 . S
C1971 C1963 1.433 . S
C1971 N1973 1.384 . S
N1972 C1968 1.427 . S
N1972 C1969 1.384 . S
N1973 C1965 1.427 . S
N1973 C1971 1.384 . S
H1974 C1980 0.930 . S
H1975 C1984 0.930 . S
H1976 C1989 0.929 . S
H1977 C1987 0.929 . S
H1978 C1982 0.929 . S
H1979 C1988 0.929 . S
C1980 H1974 0.930 . S
C1980 C1981 1.367 . S
C1980 C1988 1.378 . S
C1981 C1980 1.367 . S
C1981 C1989 1.433 . S
C1982 H1978 0.929 . S
C1982 C1984 1.378 . S
C1982 C1986 1.350 . S
C1983 C1986 1.463 . S
C1983 C1988 1.350 . S
C1983 N1991 1.427 . S
C1984 H1975 0.930 . S
C1984 C1982 1.378 . S
C1984 C1985 1.367 . S
C1985 C1984 1.367 . S
C1985 C1987 1.433 . S
C1986 C1982 1.350 . S
C1986 C1983 1.463 . S
C1986 N1990 1.427 . S
C1987 H1977 0.929 . S
C1987 C1985 1.433 . S
C1987 N1990 1.384 . S
C1988 H1979 0.929 . S
C1988 C1980 1.378 . S
C1988 C1983 1.350 . S
C1989 H1976 0.929 . S
C1989 C1981 1.433 . S
C1989 N1991 1.384 . S
N1990 C1986 1.427 . S
N1990 C1987 1.384 . S
N1991 C1983 1.427 . S
N1991 C1989 1.384 . S
H1992 C1998 0.930 . S
H1993 C2002 0.930 . S
H1994 C2007 0.929 . S
H1995 C2005 0.929 . S
H1996 C2000 0.929 . S
H1997 C2006 0.929 . S
C1998 H1992 0.930 . S
C1998 C1999 1.367 . S
C1998 C2006 1.378 . S
C1999 C1998 1.367 . S
C1999 C2007 1.433 . S
C2000 H1996 0.929 . S
C2000 C2002 1.378 . S
C2000 C2004 1.350 . S
C2001 C2004 1.463 . S
C2001 C2006 1.350 . S
C2001 N2009 1.427 . S
C2002 H1993 0.930 . S
C2002 C2000 1.378 . S
C2002 C2003 1.367 . S
C2003 C2002 1.367 . S
C2003 C2005 1.433 . S
C2004 C2000 1.350 . S
C2004 C2001 1.463 . S
C2004 N2008 1.427 . S
C2005 H1995 0.929 . S
C2005 C2003 1.433 . S
C2005 N2008 1.384 . S
C2006 H1997 0.929 . S
C2006 C1998 1.378 . S
C2006 C2001 1.350 . S
C2007 H1994 0.929 . S
C2007 C1999 1.433 . S
C2007 N2009 1.384 . S
N2008 C2004 1.427 . S
N2008 C2005 1.384 . S
N2009 C2001 1.427 . S
N2009 C2007 1.384 . S
H2010 C2016 0.930 . S
H2011 C2020 0.930 . S
H2012 C2025 0.929 . S
H2013 C2023 0.929 . S
H2014 C2018 0.929 . S
H2015 C2024 0.929 . S
C2016 H2010 0.930 . S
C2016 C2017 1.367 . S
C2016 C2024 1.378 . S
C2017 C2016 1.367 . S
C2017 C2025 1.433 . S
C2018 H2014 0.929 . S
C2018 C2020 1.378 . S
C2018 C2022 1.350 . S
C2019 C2022 1.463 . S
C2019 C2024 1.350 . S
C2019 N2027 1.427 . S
C2020 H2011 0.930 . S
C2020 C2018 1.378 . S
C2020 C2021 1.367 . S
C2021 C2020 1.367 . S
C2021 C2023 1.433 . S
C2022 C2018 1.350 . S
C2022 C2019 1.463 . S
C2022 N2026 1.427 . S
C2023 H2013 0.929 . S
C2023 C2021 1.433 . S
C2023 N2026 1.384 . S
C2024 H2015 0.929 . S
C2024 C2016 1.378 . S
C2024 C2019 1.350 . S
C2025 H2012 0.929 . S
C2025 C2017 1.433 . S
C2025 N2027 1.384 . S
N2026 C2022 1.427 . S
N2026 C2023 1.384 . S
N2027 C2019 1.427 . S
N2027 C2025 1.384 . S
H2028 C2034 0.930 . S
H2029 C2038 0.930 . S
H2030 C2043 0.929 . S
H2031 C2041 0.929 . S
H2032 C2036 0.929 . S
H2033 C2042 0.929 . S
C2034 H2028 0.930 . S
C2034 C2035 1.367 . S
C2034 C2042 1.378 . S
C2035 C2034 1.367 . S
C2035 C2043 1.433 . S
C2036 H2032 0.929 . S
C2036 C2038 1.378 . S
C2036 C2040 1.350 . S
C2037 C2040 1.463 . S
C2037 C2042 1.350 . S
C2037 N2045 1.427 . S
C2038 H2029 0.930 . S
C2038 C2036 1.378 . S
C2038 C2039 1.367 . S
C2039 C2038 1.367 . S
C2039 C2041 1.433 . S
C2040 C2036 1.350 . S
C2040 C2037 1.463 . S
C2040 N2044 1.427 . S
C2041 H2031 0.929 . S
C2041 C2039 1.433 . S
C2041 N2044 1.384 . S
C2042 H2033 0.929 . S
C2042 C2034 1.378 . S
C2042 C2037 1.350 . S
C2043 H2030 0.929 . S
C2043 C2035 1.433 . S
C2043 N2045 1.384 . S
N2044 C2040 1.427 . S
N2044 C2041 1.384 . S
N2045 C2037 1.427 . S
N2045 C2043 1.384 . S
H2046 C2052 0.930 . S
H2047 C2056 0.930 . S
H2048 C2061 0.929 . S
H2049 C2059 0.929 . S
H2050 C2054 0.929 . S
H2051 C2060 0.929 . S
C2052 H2046 0.930 . S
C2052 C2053 1.367 . S
C2052 C2060 1.378 . S
C2053 C2052 1.367 . S
C2053 C2061 1.433 . S
C2054 H2050 0.929 . S
C2054 C2056 1.378 . S
C2054 C2058 1.350 . S
C2055 C2058 1.463 . S
C2055 C2060 1.350 . S
C2055 N2063 1.427 . S
C2056 H2047 0.930 . S
C2056 C2054 1.378 . S
C2056 C2057 1.367 . S
C2057 C2056 1.367 . S
C2057 C2059 1.433 . S
C2058 C2054 1.350 . S
C2058 C2055 1.463 . S
C2058 N2062 1.427 . S
C2059 H2049 0.929 . S
C2059 C2057 1.433 . S
C2059 N2062 1.384 . S
C2060 H2051 0.929 . S
C2060 C2052 1.378 . S
C2060 C2055 1.350 . S
C2061 H2048 0.929 . S
C2061 C2053 1.433 . S
C2061 N2063 1.384 . S
N2062 C2058 1.427 . S
N2062 C2059 1.384 . S
N2063 C2055 1.427 . S
N2063 C2061 1.384 . S
H2064 C2070 0.930 . S
H2065 C2074 0.930 . S
H2066 C2079 0.929 1_565 S
H2067 C2077 0.929 . S
H2068 C2072 0.929 . S
H2069 C2078 0.929 . S
C2070 H2064 0.930 . S
C2070 C2071 1.367 1_545 S
C2070 C2078 1.378 . S
C2071 C2070 1.367 1_565 S
C2071 C2079 1.433 1_565 S
C2072 H2068 0.929 . S
C2072 C2074 1.378 . S
C2072 C2076 1.350 . S
C2073 C2076 1.463 . S
C2073 C2078 1.350 . S
C2073 N2081 1.427 . S
C2074 H2065 0.930 . S
C2074 C2072 1.378 . S
C2074 C2075 1.367 . S
C2075 C2074 1.367 . S
C2075 C2077 1.433 . S
C2076 C2072 1.350 . S
C2076 C2073 1.463 . S
C2076 N2080 1.427 . S
C2077 H2067 0.929 . S
C2077 C2075 1.433 . S
C2077 N2080 1.384 . S
C2078 H2069 0.929 . S
C2078 C2070 1.378 . S
C2078 C2073 1.350 . S
C2079 H2066 0.929 1_545 S
C2079 C2071 1.433 1_545 S
C2079 N2081 1.384 . S
N2080 C2076 1.427 . S
N2080 C2077 1.384 . S
N2081 C2073 1.427 . S
N2081 C2079 1.384 . S
H2082 C2088 0.930 . S
H2083 C2092 0.930 1_545 S
H2084 C2097 0.929 . S
H2085 C2095 0.929 . S
H2086 C2090 0.929 . S
H2087 C2096 0.929 . S
C2088 H2082 0.930 . S
C2088 C2089 1.367 . S
C2088 C2096 1.378 . S
C2089 C2088 1.367 . S
C2089 C2097 1.433 . S
C2090 H2086 0.929 . S
C2090 C2092 1.378 . S
C2090 C2094 1.350 . S
C2091 C2094 1.463 . S
C2091 C2096 1.350 . S
C2091 N2099 1.427 . S
C2092 H2083 0.930 1_565 S
C2092 C2090 1.378 . S
C2092 C2093 1.367 1_565 S
C2093 C2092 1.367 1_545 S
C2093 C2095 1.433 1_545 S
C2094 C2090 1.350 . S
C2094 C2091 1.463 . S
C2094 N2098 1.427 . S
C2095 H2085 0.929 . S
C2095 C2093 1.433 1_565 S
C2095 N2098 1.384 . S
C2096 H2087 0.929 . S
C2096 C2088 1.378 . S
C2096 C2091 1.350 . S
C2097 H2084 0.929 . S
C2097 C2089 1.433 . S
C2097 N2099 1.384 . S
N2098 C2094 1.427 . S
N2098 C2095 1.384 . S
N2099 C2091 1.427 . S
N2099 C2097 1.384 . S
H2100 C2106 0.930 . S
H2101 C2110 0.930 . S
H2102 C2115 0.929 1_545 S
H2103 C2113 0.929 . S
H2104 C2108 0.929 . S
H2105 C2114 0.929 . S
C2106 H2100 0.930 . S
C2106 C2107 1.367 1_565 S
C2106 C2114 1.378 . S
C2107 C2106 1.367 1_545 S
C2107 C2115 1.433 1_545 S
C2108 H2104 0.929 . S
C2108 C2110 1.378 . S
C2108 C2112 1.350 . S
C2109 C2112 1.463 . S
C2109 C2114 1.350 . S
C2109 N2117 1.427 . S
C2110 H2101 0.930 . S
C2110 C2108 1.378 . S
C2110 C2111 1.367 . S
C2111 C2110 1.367 . S
C2111 C2113 1.433 . S
C2112 C2108 1.350 . S
C2112 C2109 1.463 . S
C2112 N2116 1.427 . S
C2113 H2103 0.929 . S
C2113 C2111 1.433 . S
C2113 N2116 1.384 . S
C2114 H2105 0.929 . S
C2114 C2106 1.378 . S
C2114 C2109 1.350 . S
C2115 H2102 0.929 1_565 S
C2115 C2107 1.433 1_565 S
C2115 N2117 1.384 . S
N2116 C2112 1.427 . S
N2116 C2113 1.384 . S
N2117 C2109 1.427 . S
N2117 C2115 1.384 . S
H2118 C2124 0.930 1_565 S
H2119 C2128 0.930 . S
H2120 C2133 0.929 . S
H2121 C2131 0.929 . S
H2122 C2126 0.929 . S
H2123 C2132 0.929 . S
C2124 H2118 0.930 1_545 S
C2124 C2125 1.367 1_545 S
C2124 C2132 1.378 . S
C2125 C2124 1.367 1_565 S
C2125 C2133 1.433 1_565 S
C2126 H2122 0.929 . S
C2126 C2128 1.378 . S
C2126 C2130 1.350 . S
C2127 C2130 1.463 . S
C2127 C2132 1.350 . S
C2127 N2135 1.427 . S
C2128 H2119 0.930 . S
C2128 C2126 1.378 . S
C2128 C2129 1.367 . S
C2129 C2128 1.367 . S
C2129 C2131 1.433 . S
C2130 C2126 1.350 . S
C2130 C2127 1.463 . S
C2130 N2134 1.427 . S
C2131 H2121 0.929 . S
C2131 C2129 1.433 . S
C2131 N2134 1.384 . S
C2132 H2123 0.929 . S
C2132 C2124 1.378 . S
C2132 C2127 1.350 . S
C2133 H2120 0.929 . S
C2133 C2125 1.433 1_545 S
C2133 N2135 1.384 . S
N2134 C2130 1.427 . S
N2134 C2131 1.384 . S
N2135 C2127 1.427 . S
N2135 C2133 1.384 . S
H2136 C2142 0.930 . S
H2137 C2146 0.930 1_545 S
H2138 C2151 0.929 . S
H2139 C2149 0.930 . S
H2140 C2144 0.929 . S
H2141 C2150 0.929 . S
C2142 H2136 0.930 . S
C2142 C2143 1.367 . S
C2142 C2150 1.378 . S
C2143 C2142 1.367 . S
C2143 C2151 1.433 . S
C2144 H2140 0.929 . S
C2144 C2146 1.378 . S
C2144 C2148 1.350 . S
C2145 C2148 1.463 . S
C2145 C2150 1.350 . S
C2145 N2153 1.427 . S
C2146 H2137 0.930 1_565 S
C2146 C2144 1.378 . S
C2146 C2147 1.367 1_565 S
C2147 C2146 1.367 1_545 S
C2147 C2149 1.433 1_545 S
C2148 C2144 1.350 . S
C2148 C2145 1.463 . S
C2148 N2152 1.427 . S
C2149 H2139 0.930 . S
C2149 C2147 1.433 1_565 S
C2149 N2152 1.384 . S
C2150 H2141 0.929 . S
C2150 C2142 1.378 . S
C2150 C2145 1.350 . S
C2151 H2138 0.929 . S
C2151 C2143 1.433 . S
C2151 N2153 1.384 . S
N2152 C2148 1.427 . S
N2152 C2149 1.384 . S
N2153 C2145 1.427 . S
N2153 C2151 1.384 . S
H2154 C2160 0.930 . S
H2155 C2164 0.930 1_565 S
H2156 C2169 0.929 . S
H2157 C2167 0.929 . S
H2158 C2162 0.929 . S
H2159 C2168 0.929 . S
C2160 H2154 0.930 . S
C2160 C2161 1.367 . S
C2160 C2168 1.378 . S
C2161 C2160 1.367 . S
C2161 C2169 1.433 . S
C2162 H2158 0.929 . S
C2162 C2164 1.378 . S
C2162 C2166 1.350 . S
C2163 C2166 1.463 . S
C2163 C2168 1.350 . S
C2163 N2171 1.427 . S
C2164 H2155 0.930 1_545 S
C2164 C2162 1.378 . S
C2164 C2165 1.367 1_545 S
C2165 C2164 1.367 1_565 S
C2165 C2167 1.433 1_565 S
C2166 C2162 1.350 . S
C2166 C2163 1.463 . S
C2166 N2170 1.427 . S
C2167 H2157 0.929 . S
C2167 C2165 1.433 1_545 S
C2167 N2170 1.384 . S
C2168 H2159 0.929 . S
C2168 C2160 1.378 . S
C2168 C2163 1.350 . S
C2169 H2156 0.929 . S
C2169 C2161 1.433 . S
C2169 N2171 1.384 . S
N2170 C2166 1.427 . S
N2170 C2167 1.384 . S
N2171 C2163 1.427 . S
N2171 C2169 1.384 . S
H2172 C2178 0.930 . S
H2173 C2182 0.930 . S
H2174 C2187 0.929 1_565 S
H2175 C2185 0.929 . S
H2176 C2180 0.929 . S
H2177 C2186 0.929 . S
C2178 H2172 0.930 . S
C2178 C2179 1.367 1_545 S
C2178 C2186 1.378 . S
C2179 C2178 1.367 1_565 S
C2179 C2187 1.433 1_565 S
C2180 H2176 0.929 . S
C2180 C2182 1.378 . S
C2180 C2184 1.350 . S
C2181 C2184 1.463 . S
C2181 C2186 1.350 . S
C2181 N2189 1.427 . S
C2182 H2173 0.930 . S
C2182 C2180 1.378 . S
C2182 C2183 1.367 . S
C2183 C2182 1.367 . S
C2183 C2185 1.433 . S
C2184 C2180 1.350 . S
C2184 C2181 1.463 . S
C2184 N2188 1.427 . S
C2185 H2175 0.929 . S
C2185 C2183 1.433 . S
C2185 N2188 1.384 . S
C2186 H2177 0.929 . S
C2186 C2178 1.378 . S
C2186 C2181 1.350 . S
C2187 H2174 0.929 1_545 S
C2187 C2179 1.433 1_545 S
C2187 N2189 1.384 . S
N2188 C2184 1.427 . S
N2188 C2185 1.384 . S
N2189 C2181 1.427 . S
N2189 C2187 1.384 . S
H2190 C2196 0.930 . S
H2191 C2200 0.930 . S
H2192 C2205 0.929 . S
H2193 C2203 0.929 1_545 S
H2194 C2198 0.929 . S
H2195 C2204 0.929 . S
C2196 H2190 0.930 . S
C2196 C2197 1.367 . S
C2196 C2204 1.378 . S
C2197 C2196 1.367 . S
C2197 C2205 1.433 . S
C2198 H2194 0.929 . S
C2198 C2200 1.378 . S
C2198 C2202 1.350 . S
C2199 C2202 1.463 . S
C2199 C2204 1.350 . S
C2199 N2207 1.427 . S
C2200 H2191 0.930 . S
C2200 C2198 1.378 . S
C2200 C2201 1.367 1_565 S
C2201 C2200 1.367 1_545 S
C2201 C2203 1.433 1_545 S
C2202 C2198 1.350 . S
C2202 C2199 1.463 . S
C2202 N2206 1.427 . S
C2203 H2193 0.929 1_565 S
C2203 C2201 1.433 1_565 S
C2203 N2206 1.384 . S
C2204 H2195 0.929 . S
C2204 C2196 1.378 . S
C2204 C2199 1.350 . S
C2205 H2192 0.929 . S
C2205 C2197 1.433 . S
C2205 N2207 1.384 . S
N2206 C2202 1.427 . S
N2206 C2203 1.384 . S
N2207 C2199 1.427 . S
N2207 C2205 1.384 . S
C1351 C67 1.499 . S
C1355 C823 1.496 . S
C1369 C151 1.500 . S
C1373 C739 1.494 . S
C1387 C991 1.500 . S
C1391 C235 1.494 . S
C1405 C319 1.494 . S
C1409 C907 1.499 . S
C1423 C1148 1.499 . S
C1427 C392 1.494 . S
C1441 C1064 1.495 . S
C1445 C476 1.498 . S
C1459 C1316 1.497 . S
C1463 C560 1.496 . S
C1477 C644 1.497 . S
C1481 C1232 1.496 . S
C1495 C242 1.660 . S
C1499 C74 1.661 . S
C1513 C326 1.658 . S
C1517 C158 1.658 . S
C1531 C567 1.658 . S
C1535 C399 1.658 . S
C1549 C483 1.660 . S
C1553 C651 1.659 . S
C1567 C914 1.660 . S
C1571 C746 1.661 . S
C1585 C998 1.659 . S
C1589 C830 1.658 . S
C1603 C1071 1.661 . S
C1607 C1239 1.660 . S
C1621 C1155 1.661 . S
C1625 C1323 1.660 . S
C1639 C494 1.693 . S
C1643 C63 1.682 . S
C1657 C410 1.692 . S
C1661 C147 1.683 . S
C1675 C231 1.681 . S
C1679 C662 1.694 . S
C1693 C578 1.692 . S
C1697 C315 1.683 . S
C1711 C735 1.693 . S
C1715 C1166 1.682 . S
C1729 C1082 1.688 . S
C1733 C819 1.687 . S
C1747 C903 1.680 . S
C1751 C1334 1.695 . S
C1765 C1250 1.693 . S
C1769 C987 1.682 . S
C1783 C140 1.500 . S
C1787 C56 1.499 . S
C1801 C308 1.501 . S
C1805 C224 1.498 . S
C1819 C487 1.499 . S
C1823 C403 1.499 . S
C1837 C571 1.502 . S
C1841 C655 1.496 . S
C1855 C812 1.496 . S
C1859 C728 1.502 . S
C1873 C980 1.496 . S
C1877 C896 1.502 . S
C1891 C1075 1.501 . S
C1895 C1159 1.498 . S
C1909 C1243 1.496 . S
C1913 C1327 1.502 . S
C1927 C69 1.396 . S
C1931 C58 1.396 . S
C1945 C153 1.396 . S
C1949 C142 1.396 . S
C1963 C237 1.406 . S
C1967 C226 1.406 . S
C1981 C310 1.394 . S
C1985 C321 1.394 . S
C1999 C394 1.403 . S
C2003 C405 1.403 . S
C2017 C489 1.396 . S
C2021 C478 1.396 . S
C2035 C562 1.412 . S
C2039 C573 1.412 . S
C2053 C646 1.416 . S
C2057 C657 1.416 . S
C2071 C730 1.414 . S
C2075 C741 1.414 . S
C2089 C825 1.394 . S
C2093 C814 1.394 . S
C2107 C898 1.415 . S
C2111 C909 1.415 . S
C2125 C982 1.397 . S
C2129 C993 1.397 . S
C2143 C1066 1.405 . S
C2147 C1077 1.405 . S
C2161 C1150 1.403 . S
C2165 C1161 1.403 . S
C2179 C1245 1.414 . S
C2183 C1234 1.414 . S
C2197 C1318 1.421 . S
C2201 C1329 1.421 . S
