# Generated by pormake.
# Topology whw, (6)-cn, num edge types: 1
# Building blocks:
#     Node 0, Type 0, BuildingBlock: BETDAH_clean_sbu_0, # of connection points: 6
#     Node 1, Type 0, BuildingBlock: BETDAH_clean_sbu_0, # of connection points: 6
#     Node 2, Type 0, BuildingBlock: BETDAH_clean_sbu_0, # of connection points: 6
#     Node 3, Type 0, BuildingBlock: BETDAH_clean_sbu_0, # of connection points: 6
#     Node 4, Type 0, BuildingBlock: BETDAH_clean_sbu_0, # of connection points: 6
#     Node 5, Type 0, BuildingBlock: BETDAH_clean_sbu_0, # of connection points: 6
#     Node 6, Type 0, BuildingBlock: BETDAH_clean_sbu_0, # of connection points: 6
#     Node 7, Type 0, BuildingBlock: BETDAH_clean_sbu_0, # of connection points: 6
#     Node 8, Type 0, BuildingBlock: BETDAH_clean_sbu_0, # of connection points: 6
#     Node 9, Type 0, BuildingBlock: BETDAH_clean_sbu_0, # of connection points: 6
#     Node 10, Type 0, BuildingBlock: BETDAH_clean_sbu_0, # of connection points: 6
#     Node 11, Type 0, BuildingBlock: BETDAH_clean_sbu_0, # of connection points: 6
#     Node 12, Type 0, BuildingBlock: BETDAH_clean_sbu_0, # of connection points: 6
#     Node 13, Type 0, BuildingBlock: BETDAH_clean_sbu_0, # of connection points: 6
#     Node 14, Type 0, BuildingBlock: BETDAH_clean_sbu_0, # of connection points: 6
#     Node 15, Type 0, BuildingBlock: BETDAH_clean_sbu_0, # of connection points: 6
#     Edge 16, Type (0, 0), BuildingBlock: EZIPEK_clean_linker_0, # of connection points: 2
#     Edge 17, Type (0, 0), BuildingBlock: EZIPEK_clean_linker_0, # of connection points: 2
#     Edge 18, Type (0, 0), BuildingBlock: EZIPEK_clean_linker_0, # of connection points: 2
#     Edge 19, Type (0, 0), BuildingBlock: EZIPEK_clean_linker_0, # of connection points: 2
#     Edge 20, Type (0, 0), BuildingBlock: EZIPEK_clean_linker_0, # of connection points: 2
#     Edge 21, Type (0, 0), BuildingBlock: EZIPEK_clean_linker_0, # of connection points: 2
#     Edge 22, Type (0, 0), BuildingBlock: EZIPEK_clean_linker_0, # of connection points: 2
#     Edge 23, Type (0, 0), BuildingBlock: EZIPEK_clean_linker_0, # of connection points: 2
#     Edge 24, Type (0, 0), BuildingBlock: EZIPEK_clean_linker_0, # of connection points: 2
#     Edge 25, Type (0, 0), BuildingBlock: EZIPEK_clean_linker_0, # of connection points: 2
#     Edge 26, Type (0, 0), BuildingBlock: EZIPEK_clean_linker_0, # of connection points: 2
#     Edge 27, Type (0, 0), BuildingBlock: EZIPEK_clean_linker_0, # of connection points: 2
#     Edge 28, Type (0, 0), BuildingBlock: EZIPEK_clean_linker_0, # of connection points: 2
#     Edge 29, Type (0, 0), BuildingBlock: EZIPEK_clean_linker_0, # of connection points: 2
#     Edge 30, Type (0, 0), BuildingBlock: EZIPEK_clean_linker_0, # of connection points: 2
#     Edge 31, Type (0, 0), BuildingBlock: EZIPEK_clean_linker_0, # of connection points: 2
#     Edge 32, Type (0, 0), BuildingBlock: EZIPEK_clean_linker_0, # of connection points: 2
#     Edge 33, Type (0, 0), BuildingBlock: EZIPEK_clean_linker_0, # of connection points: 2
#     Edge 34, Type (0, 0), BuildingBlock: EZIPEK_clean_linker_0, # of connection points: 2
#     Edge 35, Type (0, 0), BuildingBlock: EZIPEK_clean_linker_0, # of connection points: 2
#     Edge 36, Type (0, 0), BuildingBlock: EZIPEK_clean_linker_0, # of connection points: 2
#     Edge 37, Type (0, 0), BuildingBlock: EZIPEK_clean_linker_0, # of connection points: 2
#     Edge 38, Type (0, 0), BuildingBlock: EZIPEK_clean_linker_0, # of connection points: 2
#     Edge 39, Type (0, 0), BuildingBlock: EZIPEK_clean_linker_0, # of connection points: 2
#     Edge 40, Type (0, 0), BuildingBlock: EZIPEK_clean_linker_0, # of connection points: 2
#     Edge 41, Type (0, 0), BuildingBlock: EZIPEK_clean_linker_0, # of connection points: 2
#     Edge 42, Type (0, 0), BuildingBlock: EZIPEK_clean_linker_0, # of connection points: 2
#     Edge 43, Type (0, 0), BuildingBlock: EZIPEK_clean_linker_0, # of connection points: 2
#     Edge 44, Type (0, 0), BuildingBlock: EZIPEK_clean_linker_0, # of connection points: 2
#     Edge 45, Type (0, 0), BuildingBlock: EZIPEK_clean_linker_0, # of connection points: 2
#     Edge 46, Type (0, 0), BuildingBlock: EZIPEK_clean_linker_0, # of connection points: 2
#     Edge 47, Type (0, 0), BuildingBlock: EZIPEK_clean_linker_0, # of connection points: 2
#     Edge 48, Type (0, 0), BuildingBlock: EZIPEK_clean_linker_0, # of connection points: 2
#     Edge 49, Type (0, 0), BuildingBlock: EZIPEK_clean_linker_0, # of connection points: 2
#     Edge 50, Type (0, 0), BuildingBlock: EZIPEK_clean_linker_0, # of connection points: 2
#     Edge 51, Type (0, 0), BuildingBlock: EZIPEK_clean_linker_0, # of connection points: 2
#     Edge 52, Type (0, 0), BuildingBlock: EZIPEK_clean_linker_0, # of connection points: 2
#     Edge 53, Type (0, 0), BuildingBlock: EZIPEK_clean_linker_0, # of connection points: 2
#     Edge 54, Type (0, 0), BuildingBlock: EZIPEK_clean_linker_0, # of connection points: 2
#     Edge 55, Type (0, 0), BuildingBlock: EZIPEK_clean_linker_0, # of connection points: 2
#     Edge 56, Type (0, 0), BuildingBlock: EZIPEK_clean_linker_0, # of connection points: 2
#     Edge 57, Type (0, 0), BuildingBlock: EZIPEK_clean_linker_0, # of connection points: 2
#     Edge 58, Type (0, 0), BuildingBlock: EZIPEK_clean_linker_0, # of connection points: 2
#     Edge 59, Type (0, 0), BuildingBlock: EZIPEK_clean_linker_0, # of connection points: 2
#     Edge 60, Type (0, 0), BuildingBlock: EZIPEK_clean_linker_0, # of connection points: 2
#     Edge 61, Type (0, 0), BuildingBlock: EZIPEK_clean_linker_0, # of connection points: 2
#     Edge 62, Type (0, 0), BuildingBlock: EZIPEK_clean_linker_0, # of connection points: 2
#     Edge 63, Type (0, 0), BuildingBlock: EZIPEK_clean_linker_0, # of connection points: 2
# Relax obj value: 0.397
# Max RMSD: 0.267
# Mean RMSD: 0.225
data_MOF--net-whw--node1-BETDAH_clean_sbu_0--edge1-EZIPEK_clean_linker_0
_symmetry_space_group_name_H-M    P1
_symmetry_Int_Tables_number       1
_symmetry_cell_setting            triclinic
loop_
_symmetry_equiv_pos_as_xyz
'x, y, z'
_cell_length_a     33.465335
_cell_length_b     33.364154
_cell_length_c     27.315486
_cell_angle_alpha  89.665777
_cell_angle_beta   98.260916
_cell_angle_gamma 94.432854
loop_
_atom_site_label
_atom_site_type_symbol
_atom_site_fract_x
_atom_site_fract_y
_atom_site_fract_z
_atom_type_partial_charge
Ho0 Ho 0.06954 0.16439 0.15482 0.0
Ho1 Ho 0.99486 0.11752 0.16936 0.0
C2 C 0.99353 0.16804 0.06397 0.0
C3 C 0.13907 0.18728 0.129 0.0
C4 C 0.15968 0.17435 0.08865 0.0
C5 C 0.14947 0.13586 0.06819 0.0
C6 C 0.16284 0.12554 1.02447 0.0
C7 C 0.18799 0.15299 1.00157 0.0
C8 C 0.20272 0.18948 1.02562 0.0
C9 C 0.18772 0.20058 0.06848 0.0
C10 C 0.01872 0.20191 0.20512 0.0
C11 C 0.0674 0.14313 0.26941 0.0
C12 C 0.93447 0.0784 0.20199 0.0
C13 C 0.92094 0.07645 0.25081 0.0
C14 C 0.94096 0.1014 0.28923 0.0
C15 C 0.9296 0.09889 0.33618 0.0
C16 C 0.8977 0.07158 0.34552 0.0
C17 C 0.8772 0.04668 0.30718 0.0
C18 C 0.88901 0.04895 0.25998 0.0
C19 C 0.03316 0.08326 0.10184 0.0
O20 O 0.03314 0.17537 0.07856 0.0
O21 O 0.9706 0.14919 0.09524 0.0
O22 O 0.10649 0.20641 0.11589 0.0
O23 O 0.13383 0.15958 0.16197 0.0
O24 O 0.05761 0.21 0.21075 0.0
O25 O 0.00889 0.1801 0.16811 0.0
O26 O 0.029 0.12988 0.25166 0.0
O27 O 0.09177 0.15146 0.23611 0.0
O28 O 0.96919 0.0633 0.20008 0.0
O29 O 0.93173 0.11293 0.17916 0.0
O30 O 0.99468 0.08319 0.10106 0.0
O31 O 0.05131 0.09871 0.14282 0.0
H32 H 0.12927 0.1145 0.08455 0.0
H33 H 0.15168 0.09693 1.00709 0.0
H34 H 0.22282 0.21068 1.00886 0.0
H35 H 0.19666 0.23008 0.08459 0.0
H36 H 0.96508 0.12327 0.28298 0.0
H37 H 0.94546 0.1186 0.36524 0.0
H38 H 0.85223 0.02569 0.31385 0.0
H39 H 0.87329 0.02936 0.23074 0.0
Ho40 Ho 0.17777 0.80573 0.47214 0.0
Ho41 Ho 0.16831 0.72851 0.41714 0.0
C42 C 0.18574 0.72324 0.53137 0.0
C43 C 0.18576 0.86773 0.53042 0.0
C44 C 0.17086 0.8829 0.5743 0.0
C45 C 0.1294 0.88656 0.57482 0.0
C46 C 0.11582 0.89879 0.61782 0.0
C47 C 0.14348 0.90777 0.66066 0.0
C48 C 0.18507 0.90636 0.65953 0.0
C49 C 0.19869 0.89405 0.61644 0.0
C50 C 0.24046 0.79031 0.42253 0.0
C51 C 0.14265 0.81106 0.36106 0.0
C52 C 0.17262 0.67178 0.35439 0.0
C53 C 0.15809 0.66502 0.3012 0.0
C54 C 0.18592 0.66765 0.26714 0.0
C55 C 0.17268 0.66145 0.2167 0.0
C56 C 0.13147 0.65207 0.1997 0.0
C57 C 0.10356 0.64954 0.23346 0.0
C58 C 0.11671 0.65597 0.28384 0.0
C59 C 0.10064 0.7419 0.45687 0.0
O60 O 0.17056 0.7587 0.53056 0.0
O61 O 0.19773 0.7091 0.49137 0.0
O62 O 0.20863 0.83759 0.53732 0.0
O63 O 0.16012 0.86418 0.48956 0.0
O64 O 0.22827 0.82542 0.42794 0.0
O65 O 0.22097 0.76628 0.44759 0.0
O66 O 0.15568 0.77489 0.35698 0.0
O67 O 0.14066 0.82679 0.40449 0.0
O68 O 0.14531 0.67106 0.3841 0.0
O69 O 0.20099 0.70072 0.36528 0.0
O70 O 0.11598 0.70756 0.45552 0.0
O71 O 0.12252 0.7684 0.43735 0.0
H72 H 0.10735 0.87893 0.54259 0.0
H73 H 0.08357 0.89932 0.61848 0.0
H74 H 0.20664 0.91268 0.69261 0.0
H75 H 0.23086 0.89202 0.61647 0.0
H76 H 0.21796 0.67449 0.27954 0.0
H77 H 0.19455 0.66351 0.19097 0.0
H78 H 0.07163 0.64231 0.22078 0.0
H79 H 0.09446 0.65372 0.30905 0.0
Ho80 Ho 0.47049 0.91169 0.71618 0.0
Ho81 Ho 0.50524 0.87168 0.61711 0.0
C82 C 0.56701 0.89412 0.71483 0.0
C83 C 0.44671 0.90816 0.80518 0.0
C84 C 0.44411 0.88701 0.85555 0.0
C85 C 0.47536 0.89049 0.89666 0.0
C86 C 0.46989 0.87421 0.94416 0.0
C87 C 0.43268 0.85412 0.95352 0.0
C88 C 0.40171 0.85048 0.91225 0.0
C89 C 0.40731 0.8663 0.86484 0.0
C90 C 0.48932 0.96096 0.64155 0.0
C91 C 0.40827 0.88844 0.61844 0.0
C92 C 0.52725 0.85237 0.53158 0.0
C93 C 0.53964 0.84051 0.48148 0.0
C94 C 0.57142 0.86178 0.46058 0.0
C95 C 0.58431 0.84886 0.41585 0.0
C96 C 0.56569 0.81431 0.38914 0.0
C97 C 0.53354 0.79378 0.40971 0.0
C98 C 0.52105 0.80623 0.45464 0.0
C99 C 0.4878 0.82721 0.69493 0.0
O100 O 0.53613 0.89937 0.7394 0.0
O101 O 0.56364 0.8882 0.66631 0.0
O102 O 0.42683 0.89108 0.76497 0.0
O103 O 0.47936 0.92954 0.79541 0.0
O104 O 0.46566 0.9712 0.67333 0.0
O105 O 0.50473 0.92909 0.65572 0.0
O106 O 0.43875 0.88197 0.59315 0.0
O107 O 0.4125 0.89773 0.66603 0.0
O108 O 0.50693 0.82746 0.55814 0.0
O109 O 0.53444 0.88855 0.55144 0.0
O110 O 0.51451 0.8175 0.66747 0.0
O111 O 0.4702 0.85602 0.67678 0.0
H112 H 0.50408 0.90644 0.89246 0.0
H113 H 0.4948 0.87808 0.97417 0.0
H114 H 0.37248 0.83581 0.91683 0.0
H115 H 0.38192 0.86316 0.83534 0.0
H116 H 0.58707 0.8882 0.47942 0.0
H117 H 0.60928 0.86591 0.40228 0.0
H118 H 0.51831 0.76749 0.39079 0.0
H119 H 0.4966 0.78879 0.46857 0.0
Ho120 Ho 0.34487 0.17321 0.91708 0.0
Ho121 Ho 0.3612 0.25317 0.86578 0.0
C122 C 0.35282 0.25683 0.98171 0.0
C123 C 0.34258 0.11266 0.97602 0.0
C124 C 0.36094 0.10475 1.02702 0.0
C125 C 0.39723 0.12602 0.04789 0.0
C126 C 0.41456 0.11815 0.09631 0.0
C127 C 0.39575 0.08904 0.1245 0.0
C128 C 0.35947 0.06783 0.10373 0.0
C129 C 0.34221 0.07561 0.0552 0.0
C130 C 0.28554 0.18962 0.84162 0.0
C131 C 0.37504 0.17169 0.81085 0.0
C132 C 0.35732 0.31707 0.81273 0.0
C133 C 0.37505 0.32701 0.76743 0.0
C134 C 0.35175 0.34429 0.72707 0.0
C135 C 0.36742 0.35098 0.68263 0.0
C136 C 0.40655 0.34045 0.6782 0.0
C137 C 0.42972 0.32294 0.71833 0.0
C138 C 0.41402 0.31602 0.76252 0.0
C139 C 0.42957 0.21855 0.9035 0.0
O140 O 0.34771 0.21704 0.98075 0.0
O141 O 0.35558 0.27805 0.94103 0.0
O142 O 0.31504 0.13889 0.97085 0.0
O143 O 0.3679 0.11735 0.94366 0.0
O144 O 0.29173 0.15428 0.85883 0.0
O145 O 0.30625 0.2146 0.87208 0.0
O146 O 0.36916 0.21016 0.8069 0.0
O147 O 0.37288 0.15202 0.85281 0.0
O148 O 0.38282 0.31469 0.85364 0.0
O149 O 0.329 0.28751 0.80775 0.0
O150 O 0.42492 0.2391 0.8629 0.0
O151 O 0.39756 0.21865 0.92327 0.0
H152 H 0.41207 0.14875 1.02677 0.0
H153 H 0.44232 0.13508 0.11206 0.0
H154 H 0.34444 0.04555 0.12526 0.0
H155 H 0.31418 0.05901 1.03972 0.0
H156 H 0.32139 0.35228 0.72984 0.0
H157 H 0.3493 0.36472 0.65193 0.0
H158 H 0.46003 0.3148 0.71544 0.0
H159 H 0.43231 0.30185 0.7927 0.0
Ho160 Ho 0.05962 0.90098 0.94583 0.0
Ho161 Ho 0.98023 0.90708 0.88058 0.0
C162 C 0.97388 0.87129 0.98498 0.0
C163 C 0.11794 0.91036 1.01845 0.0
C164 C 0.11877 0.90325 0.07142 0.0
C165 C 0.08384 0.90693 0.09358 0.0
C166 C 0.08294 0.89525 0.14244 0.0
C167 C 0.11694 0.87962 0.16942 0.0
C168 C 0.1522 0.8768 0.14785 0.0
C169 C 0.15308 0.8885 0.0989 0.0
C170 C 0.03586 0.83283 0.89356 0.0
C171 C 0.06351 0.91492 0.83329 0.0
C172 C 0.91892 0.90579 0.81004 0.0
C173 C 0.90625 0.88655 0.76096 0.0
C174 C 0.93458 0.87258 0.73306 0.0
C175 C 0.92169 0.85478 0.68647 0.0
C176 C 0.8803 0.85054 0.66707 0.0
C177 C 0.85202 0.86422 0.69515 0.0
C178 C 0.8649 0.88199 0.7417 0.0
C179 C 0.00572 0.97084 0.94407 0.0
O180 O 0.01241 0.88502 0.99653 0.0
O181 O 0.95581 0.87015 0.93895 0.0
O182 O 0.11105 0.87796 0.99111 0.0
O183 O 0.09698 0.9398 1.00001 0.0
O184 O 0.07302 0.84817 0.90305 0.0
O185 O 0.01273 0.85483 0.91209 0.0
O186 O 0.02457 0.90316 0.82668 0.0
O187 O 0.08362 0.92321 0.87767 0.0
O188 O 0.94948 0.93305 0.81395 0.0
O189 O 0.92067 0.88191 0.84815 0.0
O190 O 0.96829 0.95742 0.93175 0.0
O191 O 0.02667 0.95187 0.91869 0.0
H192 H 0.05698 0.91788 0.07285 0.0
H193 H 0.05558 0.89754 0.15886 0.0
H194 H 0.17866 0.86477 0.1686 0.0
H195 H 0.18004 0.88502 0.0821 0.0
H196 H 0.96662 0.87563 0.74712 0.0
H197 H 0.94402 0.8446 0.66532 0.0
H198 H 0.82003 0.8615 0.68078 0.0
H199 H 0.84253 0.89247 0.7626 0.0
Ho200 Ho 0.42373 0.80118 0.27856 0.0
Ho201 Ho 0.41046 0.71652 0.24244 0.0
C202 C 0.44414 0.72764 0.35998 0.0
C203 C 0.4157 0.86911 0.3192 0.0
C204 C 0.39652 0.88049 0.36185 0.0
C205 C 0.35424 0.88311 0.35727 0.0
C206 C 0.33544 0.88692 0.39927 0.0
C207 C 0.35887 0.8889 0.44594 0.0
C208 C 0.40122 0.88968 0.45022 0.0
C209 C 0.41995 0.88557 0.40852 0.0
C210 C 0.48705 0.77527 0.23801 0.0
C211 C 0.4102 0.79161 0.15926 0.0
C212 C 0.39522 0.64806 0.19675 0.0
C213 C 0.39465 0.63364 0.14617 0.0
C214 C 0.4062 0.65999 0.10971 0.0
C215 C 0.40331 0.64698 0.06091 0.0
C216 C 0.38815 0.6076 0.04787 0.0
C217 C 0.37619 0.58117 0.08413 0.0
C218 C 0.37961 0.59416 0.13324 0.0
C219 C 0.3505 0.74073 0.28984 0.0
O220 O 0.43465 0.76574 0.35233 0.0
O221 O 0.44144 0.70287 0.32105 0.0
O222 O 0.44847 0.84962 0.32894 0.0
O223 O 0.39094 0.85387 0.28138 0.0
O224 O 0.47778 0.81223 0.23859 0.0
O225 O 0.46473 0.75573 0.26457 0.0
O226 O 0.41411 0.75263 0.16921 0.0
O227 O 0.40649 0.81574 0.19653 0.0
O228 O 0.36779 0.67295 0.20161 0.0
O229 O 0.43059 0.65968 0.22148 0.0
O230 O 0.3667 0.70702 0.29626 0.0
O231 O 0.36827 0.76118 0.25893 0.0
H232 H 0.33546 0.88031 0.32155 0.0
H233 H 0.30274 0.88632 0.39566 0.0
H234 H 0.41967 0.89128 0.48629 0.0
H235 H 0.45256 0.88445 0.41316 0.0
H236 H 0.41759 0.69053 0.11897 0.0
H237 H 0.41269 0.66767 1.03325 0.0
H238 H 0.36433 0.55069 0.07438 0.0
H239 H 0.36999 0.57364 0.16092 0.0
Ho240 Ho 0.47334 0.08511 0.44173 0.0
Ho241 Ho 0.55447 0.08569 0.40365 0.0
C242 C 0.5571 0.10345 0.51674 0.0
C243 C 0.41124 0.07512 0.48842 0.0
C244 C 0.40638 0.06789 0.54011 0.0
C245 C 0.3676 0.06618 0.55385 0.0
C246 C 0.36317 0.07201 0.60326 0.0
C247 C 0.39762 0.08032 0.63866 0.0
C248 C 0.43619 0.0765 0.62591 0.0
C249 C 0.4405 0.0702 0.57672 0.0
C250 C 0.49813 0.15599 0.40069 0.0
C251 C 0.47036 0.07377 0.32778 0.0
C252 C 0.61839 0.09424 0.3601 0.0
C253 C 0.63056 0.10866 0.31322 0.0
C254 C 0.60347 0.1272 0.27783 0.0
C255 C 0.61596 0.14103 0.23361 0.0
C256 C 0.65559 0.1364 0.22439 0.0
C257 C 0.68253 0.11762 0.25969 0.0
C258 C 0.67007 0.10392 0.30394 0.0
C259 C 0.53412 0.01784 0.45486 0.0
O260 O 0.51942 0.08709 0.51109 0.0
O261 O 0.57546 0.11323 0.47824 0.0
O262 O 0.42898 0.11018 0.48009 0.0
O263 O 0.42479 0.04627 0.46519 0.0
O264 O 0.46099 0.14092 0.39664 0.0
O265 O 0.51981 0.13323 0.42802 0.0
O266 O 0.5086 0.08868 0.33445 0.0
O267 O 0.45182 0.06191 0.36534 0.0
O268 O 0.59437 0.06126 0.35779 0.0
O269 O 0.60795 0.12154 0.38897 0.0
O270 O 0.57041 0.03341 0.45295 0.0
O271 O 0.51083 0.03766 0.42484 0.0
H272 H 0.34096 0.06411 0.526 0.0
H273 H 0.33317 0.07489 0.61275 0.0
H274 H 0.46305 0.08275 0.65282 0.0
H275 H 0.47059 0.07061 0.56698 0.0
H276 H 0.57282 0.13093 0.28442 0.0
H277 H 0.59475 0.15526 0.20652 0.0
H278 H 0.71309 0.1136 0.25293 0.0
H279 H 0.69128 0.08959 0.33094 0.0
Ho280 Ho 0.12122 0.18134 0.60867 0.0
Ho281 Ho 0.14303 0.26279 0.57933 0.0
C282 C 0.11814 0.25368 0.69043 0.0
C283 C 0.1177 0.11205 0.65155 0.0
C284 C 0.13114 0.09942 0.70276 0.0
C285 C 0.17133 0.09001 0.7175 0.0
C286 C 0.18767 0.09113 0.7675 0.0
C287 C 0.16346 0.10035 0.80295 0.0
C288 C 0.12172 0.10283 0.78879 0.0
C289 C 0.10563 0.10249 0.73893 0.0
C290 C 0.0553 0.22226 0.57403 0.0
C291 C 0.11744 0.19217 0.48946 0.0
C292 C 0.16669 0.33226 0.54612 0.0
C293 C 0.17657 0.35049 0.49974 0.0
C294 C 0.1643 0.38878 0.48692 0.0
C295 C 0.1666 0.4035 0.43943 0.0
C296 C 0.18032 0.37955 0.40407 0.0
C297 C 0.19897 0.34441 0.41939 0.0
C298 C 0.19665 0.32962 0.46704 0.0
C299 C 0.20198 0.23372 0.64578 0.0
O300 O 0.12579 0.21545 0.68371 0.0
O301 O 0.11651 0.27775 0.65067 0.0
O302 O 0.08803 0.13567 0.64613 0.0
O303 O 0.1463 0.12411 0.62555 0.0
O304 O 0.05977 0.18523 0.56356 0.0
O305 O 0.08754 0.23534 0.59973 0.0
O306 O 0.12509 0.2312 0.50163 0.0
O307 O 0.11936 0.16568 0.52617 0.0
O308 O 0.19102 0.30583 0.56525 0.0
O309 O 0.12852 0.32124 0.54871 0.0
O310 O 0.18928 0.26898 0.64458 0.0
O311 O 0.1819 0.21341 0.60901 0.0
H312 H 0.1908 0.08464 0.69033 0.0
H313 H 0.21963 0.08783 0.77817 0.0
H314 H 0.10246 0.10926 0.816 0.0
H315 H 0.07408 0.10822 0.72881 0.0
H316 H 0.14995 0.40586 0.5122 0.0
H317 H 0.15214 0.43072 0.42825 0.0
H318 H 0.20942 0.32541 0.39259 0.0
H319 H 0.20732 0.30035 0.47659 0.0
Ho320 Ho 0.91371 0.29194 0.7671 0.0
Ho321 Ho 0.90481 0.20679 0.73668 0.0
C322 C 0.93822 0.22287 0.85318 0.0
C323 C 0.90203 0.3618 0.80025 0.0
C324 C 0.88405 0.37704 0.84189 0.0
C325 C 0.84204 0.3718 0.84331 0.0
C326 C 0.82687 0.37639 0.88779 0.0
C327 C 0.85357 0.38729 0.93054 0.0
C328 C 0.89456 0.39788 0.92742 0.0
C329 C 0.90971 0.39298 0.88333 0.0
C330 C 0.97919 0.27082 0.72784 0.0
C331 C 0.9026 0.27624 0.64713 0.0
C332 C 0.88831 0.13587 0.69697 0.0
C333 C 0.88571 0.11684 0.64777 0.0
C334 C 0.92036 0.1056 0.62951 0.0
C335 C 0.91776 0.09258 0.58054 0.0
C336 C 0.88027 0.08943 0.54975 0.0
C337 C 0.84505 0.09656 0.56946 0.0
C338 C 0.84778 0.11045 0.61798 0.0
C339 C 0.844 0.22946 0.78418 0.0
O340 O 0.92524 0.25952 0.84323 0.0
O341 O 0.93871 0.19777 0.81523 0.0
O342 O 0.9358 0.34422 0.81206 0.0
O343 O 0.87702 0.34234 0.76561 0.0
O344 O 0.96689 0.30661 0.7279 0.0
O345 O 0.95834 0.24898 0.75443 0.0
O346 O 0.9069 0.23805 0.66047 0.0
O347 O 0.90074 0.3025 0.6831 0.0
O348 O 0.86147 0.16168 0.70047 0.0
O349 O 0.92402 0.14804 0.72047 0.0
O350 O 0.86316 0.19775 0.79278 0.0
O351 O 0.85964 0.24964 0.75111 0.0
H352 H 0.82133 0.3614 0.81119 0.0
H353 H 0.79526 0.36801 0.88986 0.0
H354 H 0.91577 0.40516 0.9606 0.0
H355 H 0.94204 0.3982 0.88295 0.0
H356 H 0.94959 0.10805 0.65246 0.0
H357 H 0.94514 0.08623 0.56615 0.0
H358 H 0.81578 0.0935 0.54644 0.0
H359 H 0.82028 0.11744 0.63165 0.0
Ho360 Ho 0.61959 0.68122 0.11387 0.0
Ho361 Ho 0.62631 0.7657 0.08179 0.0
C362 C 0.60981 0.7526 0.19577 0.0
C363 C 0.62802 0.61252 0.15663 0.0
C364 C 0.64082 0.60208 0.20857 0.0
C365 C 0.68216 0.60101 0.227 0.0
C366 C 0.69522 0.60532 0.2776 0.0
C367 C 0.66688 0.61017 0.30961 0.0
C368 C 0.62541 0.60482 0.29219 0.0
C369 C 0.61236 0.60045 0.24183 0.0
C370 C 0.54706 0.71164 0.08397 0.0
C371 C 0.61166 0.69321 0.99416 0.0
C372 C 0.62685 0.83595 1.04165 0.0
C373 C 0.63292 0.85126 0.99224 0.0
C374 C 0.59999 0.8643 0.96018 0.0
C375 C 0.60462 0.87571 0.91206 0.0
C376 C 0.6421 0.87396 0.89503 0.0
C377 C 0.67579 0.86373 0.92789 0.0
C378 C 0.6712 0.85214 0.97611 0.0
C379 C 0.69413 0.74549 0.14074 0.0
O380 O 0.62256 0.71611 0.18882 0.0
O381 O 0.60197 0.77539 0.15548 0.0
O382 O 0.59374 0.62926 0.14827 0.0
O383 O 0.65571 0.63082 0.13333 0.0
O384 O 0.5551 0.67529 0.07498 0.0
O385 O 0.57853 0.72865 0.10723 0.0
O386 O 0.61564 0.73245 1.00527 0.0
O387 O 0.61584 0.66685 1.03089 0.0
O388 O 0.65841 0.82197 0.06789 0.0
O389 O 0.59341 0.81342 1.04458 0.0
O390 O 0.67819 0.77939 0.13986 0.0
O391 O 0.67364 0.72272 0.10657 0.0
H392 H 0.70449 0.60013 0.20219 0.0
H393 H 0.7273 0.60794 0.29137 0.0
H394 H 0.60323 0.60742 0.31705 0.0
H395 H 0.58016 0.59975 0.22882 0.0
H396 H 0.57048 0.86483 0.97197 0.0
H397 H 0.57866 0.88521 0.88768 0.0
H398 H 0.70519 0.86345 0.91574 0.0
H399 H 0.69749 0.84308 1.00026 0.0
Ho400 Ho 0.67542 0.28672 0.97569 0.0
Ho401 Ho 0.6724 0.20856 0.9199 0.0
C402 C 0.68474 0.20469 1.03791 0.0
C403 C 0.67775 0.34795 1.03391 0.0
C404 C 0.66351 0.35915 0.07995 0.0
C405 C 0.62825 0.3401 0.09458 0.0
C406 C 0.61502 0.35203 0.13815 0.0
C407 C 0.63706 0.38285 0.16759 0.0
C408 C 0.67239 0.40167 0.15314 0.0
C409 C 0.68546 0.38992 0.10946 0.0
C410 C 0.73907 0.27698 0.92428 0.0
C411 C 0.64436 0.28837 0.86347 0.0
C412 C 0.68579 0.14704 0.86987 0.0
C413 C 0.67111 0.13498 0.818 0.0
C414 C 0.6891 0.15333 0.77912 0.0
C415 C 0.67177 0.14644 0.7301 0.0
C416 C 0.63648 0.12085 0.71909 0.0
C417 C 0.6196 0.10073 0.75736 0.0
C418 C 0.63684 0.1077 0.80655 0.0
C419 C 0.59795 0.22787 0.93488 0.0
O420 O 0.67531 0.2424 1.03773 0.0
O421 O 0.69065 0.18626 0.99716 0.0
O422 O 0.70581 0.3224 1.03795 0.0
O423 O 0.65002 0.34091 0.99535 0.0
O424 O 0.72398 0.31064 0.93009 0.0
O425 O 0.72137 0.25149 0.94948 0.0
O426 O 0.66407 0.25571 0.86033 0.0
O427 O 0.63604 0.30095 0.90612 0.0
O428 O 0.65869 0.14568 0.90014 0.0
O429 O 0.71034 0.17966 0.87586 0.0
O430 O 0.60625 0.21056 0.8957 0.0
O431 O 0.62994 0.23342 0.966 0.0
H432 H 0.61107 0.31609 0.07244 0.0
H433 H 0.58789 0.33701 0.14922 0.0
H434 H 0.68983 0.42526 0.17577 0.0
H435 H 0.71277 0.40485 0.0987 0.0
H436 H 0.71577 0.17415 0.78649 0.0
H437 H 0.68524 0.16192 0.70077 0.0
H438 H 0.59249 0.08059 0.74917 0.0
H439 H 0.62257 0.09284 0.83564 0.0
Ho440 Ho 0.84786 0.69388 0.41029 0.0
Ho441 Ho 0.86672 0.77471 0.36495 0.0
C442 C 0.84464 0.77677 0.4715 0.0
C443 C 0.84127 0.63315 0.46861 0.0
C444 C 0.85826 0.62344 0.51959 0.0
C445 C 0.89434 0.64373 0.54271 0.0
C446 C 0.91083 0.63337 0.59066 0.0
C447 C 0.89126 0.60288 0.61618 0.0
C448 C 0.85495 0.58298 0.59335 0.0
C449 C 0.8386 0.59315 0.54525 0.0
C450 C 0.79111 0.7115 0.3325 0.0
C451 C 0.88409 0.69336 0.30887 0.0
C452 C 0.87035 0.83576 0.30678 0.0
C453 C 0.8793 0.84033 0.25584 0.0
C454 C 0.85769 0.81641 0.21717 0.0
C455 C 0.87 0.8172 0.17054 0.0
C456 C 0.90315 0.84302 0.16157 0.0
C457 C 0.92382 0.8681 0.19948 0.0
C458 C 0.91207 0.86661 0.24645 0.0
C459 C 0.92816 0.75168 0.43391 0.0
O460 O 0.85401 0.73894 0.47339 0.0
O461 O 0.83775 0.79493 0.42856 0.0
O462 O 0.81583 0.66133 0.4636 0.0
O463 O 0.8671 0.63645 0.43684 0.0
O464 O 0.79626 0.67596 0.34983 0.0
O465 O 0.8106 0.73609 0.36451 0.0
O466 O 0.88389 0.73293 0.30885 0.0
O467 O 0.87493 0.67116 0.34659 0.0
O468 O 0.9007 0.82643 0.33926 0.0
O469 O 0.83653 0.81522 0.31264 0.0
O470 O 0.91776 0.78812 0.42657 0.0
O471 O 0.90563 0.72913 0.40223 0.0
H472 H 0.90975 0.66748 0.52368 0.0
H473 H 0.93864 0.64929 0.60803 0.0
H474 H 0.83933 0.55965 0.61281 0.0
H475 H 0.81066 0.57734 0.52803 0.0
H476 H 0.83172 0.79664 0.22311 0.0
H477 H 0.85362 0.79796 0.14136 0.0
H478 H 0.94945 0.88824 0.19285 0.0
H479 H 0.92909 0.88533 0.27572 0.0
Ho480 Ho 0.57525 0.66193 0.66372 0.0
Ho481 Ho 0.49808 0.62766 0.67341 0.0
C482 C 0.50248 0.67582 0.57063 0.0
C483 C 0.64612 0.68413 0.64115 0.0
C484 C 0.66414 0.68804 0.59552 0.0
C485 C 0.69974 0.66932 0.59188 0.0
C486 C 0.71189 0.6644 0.54569 0.0
C487 C 0.68831 0.67821 0.50327 0.0
C488 C 0.65576 0.7012 0.50772 0.0
C489 C 0.64351 0.70595 0.55363 0.0
C490 C 0.53368 0.71108 0.71284 0.0
C491 C 0.56627 0.64171 0.77633 0.0
C492 C 0.43613 0.58789 0.70248 0.0
C493 C 0.41809 0.58955 0.74818 0.0
C494 C 0.43197 0.61998 0.78312 0.0
C495 C 0.41984 0.61846 0.8297 0.0
C496 C 0.39405 0.58625 0.84231 0.0
C497 C 0.37893 0.55635 0.80713 0.0
C498 C 0.39095 0.55804 0.76008 0.0
C499 C 0.53188 0.58403 0.60876 0.0
O500 O 0.54225 0.67455 0.58512 0.0
O501 O 0.47727 0.66331 0.60253 0.0
O502 O 0.61876 0.70892 0.64641 0.0
O503 O 0.63546 0.64736 0.65359 0.0
O504 O 0.57236 0.70916 0.72129 0.0
O505 O 0.51948 0.69045 0.67524 0.0
O506 O 0.52713 0.63938 0.75671 0.0
O507 O 0.5921 0.64134 0.74395 0.0
O508 O 0.47266 0.57573 0.70869 0.0
O509 O 0.43273 0.61891 0.67327 0.0
O510 O 0.49682 0.59776 0.60197 0.0
O511 O 0.55061 0.59707 0.65078 0.0
H512 H 0.71614 0.65568 0.62401 0.0
H513 H 0.73694 0.64633 0.54248 0.0
H514 H 0.63723 0.71166 0.47513 0.0
H515 H 0.61612 0.72083 0.5555 0.0
H516 H 0.45376 0.6439 0.7756 0.0
H517 H 0.43206 0.6415 0.85676 0.0
H518 H 0.35918 0.53115 0.81671 0.0
H519 H 0.38045 0.53398 0.73379 0.0
Ho520 Ho 0.98178 0.40254 0.20741 0.0
Ho521 Ho 0.02778 0.37364 0.11125 0.0
C522 C 0.07858 0.40485 0.21946 0.0
C523 C 0.96071 0.38527 0.2957 0.0
C524 C 0.94741 0.37224 0.34612 0.0
C525 C 0.92477 0.33508 0.35152 0.0
C526 C 0.91629 0.32034 0.39852 0.0
C527 C 0.93077 0.34123 0.44349 0.0
C528 C 0.95352 0.37841 0.43813 0.0
C529 C 0.96138 0.39356 0.39089 0.0
C530 C 0.99267 0.45497 0.13239 0.0
C531 C 0.92906 0.3756 0.10323 0.0
C532 C 0.06717 0.36603 1.03471 0.0
C533 C 0.07026 0.34734 0.98394 0.0
C534 C 0.05479 0.36504 0.93845 0.0
C535 C 0.06166 0.34973 0.89184 0.0
C536 C 0.08487 0.31632 0.88824 0.0
C537 C 0.10025 0.29877 0.93369 0.0
C538 C 0.09316 0.31379 0.98013 0.0
C539 C 0.9956 0.31899 0.16899 0.0
O540 O 0.04708 0.42304 0.23018 0.0
O541 O 0.07893 0.38558 0.17647 0.0
O542 O 0.97432 0.42175 0.28372 0.0
O543 O 0.95604 0.36022 0.25811 0.0
O544 O 0.96414 0.45787 0.16092 0.0
O545 O 0.01463 0.4275 0.1488 0.0
O546 O 0.96185 0.37707 0.08031 0.0
O547 O 0.92947 0.38002 0.1516 0.0
O548 O 0.07155 0.34374 0.07465 0.0
O549 O 0.04235 0.3942 1.03872 0.0
O550 O -7e-05 0.31127 0.12345 0.0
O551 O 0.01175 0.3529 0.18131 0.0
H552 H 0.91376 0.31678 0.31906 0.0
H553 H 0.89862 0.29185 0.39971 0.0
H554 H 0.96569 0.39589 0.47091 0.0
H555 H 0.97969 0.42166 0.38971 0.0
H556 H 0.03767 0.39126 0.93877 0.0
H557 H 0.04913 0.3645 0.85834 0.0
H558 H 0.11846 0.27348 0.93346 0.0
H559 H 0.10655 0.29936 1.01347 0.0
Ho560 Ho 0.56852 0.39724 0.45786 0.0
Ho561 Ho 0.48799 0.39925 0.39236 0.0
C562 C 0.48491 0.37725 0.50538 0.0
C563 C 0.62934 0.40473 0.52773 0.0
C564 C 0.63224 0.39527 0.58046 0.0
C565 C 0.60253 0.4067 0.60803 0.0
C566 C 0.60174 0.39256 0.65588 0.0
C567 C 0.63089 0.36723 0.67675 0.0
C568 C 0.66166 0.35714 0.65031 0.0
C569 C 0.66227 0.37107 0.60219 0.0
C570 C 0.54196 0.32722 0.40902 0.0
C571 C 0.5723 0.41095 0.34688 0.0
C572 C 0.42718 0.38893 0.32147 0.0
C573 C 0.41676 0.37117 0.27095 0.0
C574 C 0.44493 0.37162 0.23729 0.0
C575 C 0.43385 0.35443 0.18988 0.0
C576 C 0.39449 0.33636 0.17525 0.0
C577 C 0.36647 0.33602 0.20895 0.0
C578 C 0.37747 0.35329 0.25617 0.0
C579 C 0.5099 0.46721 0.44934 0.0
O580 O 0.52474 0.3849 0.51267 0.0
O581 O 0.46336 0.37769 0.46078 0.0
O582 O 0.62238 0.37376 0.49793 0.0
O583 O 0.607 0.43391 0.51272 0.0
O584 O 0.57943 0.34143 0.41714 0.0
O585 O 0.52084 0.35045 0.42863 0.0
O586 O 0.5345 0.39517 0.34067 0.0
O587 O 0.5905 0.42328 0.39061 0.0
O588 O 0.45182 0.42159 0.32701 0.0
O589 O 0.43438 0.36371 0.35796 0.0
O590 O 0.47342 0.45148 0.43574 0.0
O591 O 0.53326 0.44718 0.42783 0.0
H592 H 0.57919 0.42554 0.59217 0.0
H593 H 0.57795 0.40058 0.67619 0.0
H594 H 0.68436 0.33757 0.66643 0.0
H595 H 0.68527 0.36186 0.58138 0.0
H596 H 0.47548 0.38504 0.24767 0.0
H597 H 0.45612 0.35485 0.16472 0.0
H598 H 0.3361 0.32207 0.19881 0.0
H599 H 0.35521 0.35251 0.28138 0.0
Ho600 Ho 0.97649 0.59396 0.92817 0.0
Ho601 Ho 0.05411 0.58455 0.88793 0.0
C602 C 0.06228 0.61284 0.99905 0.0
C603 C 0.91732 0.59238 0.9792 0.0
C604 C 0.91724 0.59915 1.03188 0.0
C605 C 0.89066 0.57548 0.0574 0.0
C606 C 0.88917 0.58338 0.10717 0.0
C607 C 0.91382 0.61546 0.13104 0.0
C608 C 0.94244 0.63709 0.10655 0.0
C609 C 0.94438 0.62877 0.05725 0.0
C610 C 0.00442 0.66073 0.88077 0.0
C611 C 0.96831 0.57743 0.81592 0.0
C612 C 0.11419 0.58431 0.83763 0.0
C613 C 0.12663 0.60392 0.79326 0.0
C614 C 0.10888 0.63844 0.77364 0.0
C615 C 0.12195 0.65727 0.73216 0.0
C616 C 0.15277 0.64173 0.70983 0.0
C617 C 0.17048 0.60727 0.7295 0.0
C618 C 0.15751 0.58853 0.77102 0.0
C619 C 0.0305 0.52093 0.94429 0.0
O620 O 0.02312 0.60231 0.99645 0.0
O621 O 0.08102 0.61389 0.9597 0.0
O622 O 0.92812 0.62363 0.95382 0.0
O623 O 0.9344 0.56053 0.96873 0.0
O624 O 0.96671 0.64816 0.87969 0.0
O625 O 0.02521 0.63767 0.90904 0.0
O626 O 0.00683 0.59118 0.82076 0.0
O627 O 0.95125 0.56667 0.85492 0.0
O628 O 0.08268 0.55815 0.83069 0.0
O629 O 0.11374 0.6079 0.87546 0.0
O630 O 0.06725 0.5337 0.9403 0.0
O631 O 0.00788 0.54096 0.91363 0.0
H632 H 0.87019 0.55193 1.03843 0.0
H633 H 0.86683 0.56666 0.1259 0.0
H634 H 0.9616 0.6619 0.12477 0.0
H635 H 0.96595 0.64658 1.0385 0.0
H636 H 0.08503 0.65078 0.79041 0.0
H637 H 0.10778 0.68368 0.71715 0.0
H638 H 0.1941 0.59478 0.71248 0.0
H639 H 0.17161 0.56201 0.78581 0.0
C640 C 0.17683 0.16951 0.91092 0.0
C641 C 0.19372 0.14475 0.94985 0.0
C642 C 0.19894 0.09167 0.89002 0.0
C643 C 0.18195 0.11667 0.85183 0.0
N644 N 0.17059 0.18401 0.82356 0.0
N645 N 0.23222 0.08809 0.97478 0.0
C646 C 0.17693 0.1574 0.86161 0.0
C647 C 0.20897 0.10781 0.93865 0.0
N648 N 0.1568 0.20217 0.92022 0.0
N649 N 0.20322 0.05222 0.88059 0.0
H650 H 0.24022 0.0998 1.01051 0.0
H651 H 0.24673 0.06259 0.96799 0.0
H652 H 0.1962 0.03964 0.84525 0.0
H653 H 0.21131 0.03152 0.90825 0.0
H654 H 0.14013 0.21779 0.89221 0.0
H655 H 0.1528 0.21122 0.95543 0.0
H656 H 0.16966 0.21478 0.82917 0.0
H657 H 0.17068 0.1759 0.78672 0.0
C658 C 0.14378 0.87306 0.30768 0.0
C659 C 0.1282 0.83293 0.3156 0.0
C660 C 0.09819 0.82654 0.22879 0.0
C661 C 0.1158 0.86549 0.22039 0.0
N662 N 0.14403 0.93021 0.25225 0.0
N663 N 0.07905 0.77788 0.28925 0.0
C664 C 0.13478 0.89026 0.26016 0.0
C665 C 0.1016 0.81169 0.27779 0.0
N666 N 0.16909 0.89394 0.34419 0.0
N667 N 0.07958 0.80329 0.18979 0.0
H668 H 0.07983 0.76733 0.3254 0.0
H669 H 0.05656 0.76277 0.26429 0.0
H670 H 0.07628 0.81328 0.15329 0.0
H671 H 0.06902 0.77341 0.19318 0.0
H672 H 0.18545 0.9209 0.33824 0.0
H673 H 0.17666 0.88333 0.37989 0.0
H674 H 0.154 0.95096 0.28051 0.0
H675 H 0.13809 0.94347 0.21752 0.0
C676 C 0.33793 0.91893 0.51991 0.0
C677 C 0.34052 0.88418 0.49162 0.0
C678 C 0.35749 0.84558 0.56625 0.0
C679 C 0.36705 0.88253 0.59121 0.0
N680 N 0.3441 0.94739 0.60288 0.0
N681 N 0.33702 0.81227 0.48689 0.0
C682 C 0.34867 0.9168 0.57188 0.0
C683 C 0.34325 0.84634 0.51496 0.0
N684 N 0.32958 0.95418 0.49666 0.0
N685 N 0.36681 0.81109 0.59084 0.0
H686 H 0.32961 0.81352 0.44857 0.0
H687 H 0.33762 0.78346 0.50143 0.0
H688 H 0.37805 0.81178 0.62855 0.0
H689 H 0.36291 0.78256 0.57492 0.0
H690 H 0.33147 0.98166 0.51505 0.0
H691 H 0.32151 0.95537 0.45832 0.0
H692 H 0.32943 0.97294 0.59127 0.0
H693 H 0.35316 0.94526 0.64097 0.0
C694 C 0.40537 0.11456 0.77225 0.0
C695 C 0.38389 0.15001 0.76629 0.0
C696 C 0.38219 0.14357 0.67677 0.0
C697 C 0.39407 0.10391 0.68311 0.0
N698 N 0.41418 0.04974 0.73751 0.0
N699 N 0.34506 0.19374 0.70746 0.0
C700 C 0.40464 0.08865 0.7311 0.0
C701 C 0.37053 0.16358 0.71715 0.0
N702 N 0.42918 0.10715 0.81573 0.0
N703 N 0.38284 0.16275 0.63244 0.0
H704 H 0.33214 0.20888 0.73341 0.0
H705 H 0.33211 0.20056 0.67163 0.0
H706 H 0.39242 0.14976 0.60193 0.0
H707 H 0.37845 0.19323 0.62794 0.0
H708 H 0.44738 0.08304 0.82043 0.0
H709 H 0.43561 0.1283 0.84416 0.0
H710 H 0.41862 0.03628 0.77222 0.0
H711 H 0.41424 0.03015 0.70787 0.0
C712 C 0.89586 0.8661 0.0739 0.0
C713 C 0.91677 0.84398 0.11248 0.0
C714 C 0.96756 0.82981 0.06008 0.0
C715 C 0.95072 0.85763 1.02503 0.0
N716 N 0.89841 0.90275 0.99786 0.0
N717 N 0.97073 0.80256 0.14302 0.0
C718 C 0.91416 0.87514 1.03101 0.0
C719 C 0.952 0.82489 0.10562 0.0
N720 N 0.85868 0.87886 0.07852 0.0
N721 N -0.00246 0.80729 0.04885 0.0
H722 H 0.95876 0.79638 0.17571 0.0
H723 H -0.00123 0.79125 0.14266 0.0
H724 H 0.00825 0.80914 1.0148 0.0
H725 H 0.00923 0.7842 0.07088 0.0
H726 H 0.83944 0.89029 0.04931 0.0
H727 H 0.84537 0.87529 0.11065 0.0
H728 H 0.87554 0.9207 1.00409 0.0
H729 H 0.90983 0.91049 0.96541 0.0
C730 C 0.94048 0.16902 0.92435 0.0
C731 C 0.95075 0.2091 0.90819 0.0
C732 C 0.98105 0.22358 0.997 0.0
C733 C 0.97563 0.18235 1.01111 0.0
N734 N 0.95505 0.11476 0.98266 0.0
N735 N 0.98649 0.27324 0.93195 0.0
C736 C 0.95662 0.15497 0.97314 0.0
C737 C 0.97231 0.23599 0.94557 0.0
N738 N 0.91297 0.14445 0.89439 0.0
N739 N 0.99381 0.25155 1.03332 0.0
H740 H 0.98385 0.28299 0.89548 0.0
H741 H 0.00478 0.29314 0.95607 0.0
H742 H 0.00015 0.24386 0.07054 0.0
H743 H 0.9941 0.28243 1.02755 0.0
H744 H 0.90086 0.11687 0.90588 0.0
H745 H 0.8984 0.15347 0.8604 0.0
H746 H 0.94682 0.09288 0.95523 0.0
H747 H 0.96537 0.10324 1.01719 0.0
C748 C 0.58149 0.13752 0.65164 0.0
C749 C 0.61632 0.11663 0.66731 0.0
C750 C 0.6164 0.09274 0.58276 0.0
C751 C 0.57896 0.11011 0.56779 0.0
N752 N 0.52435 0.14714 0.58904 0.0
N753 N 0.66379 0.06964 0.65073 0.0
C754 C 0.56098 0.13177 0.60265 0.0
C755 C 0.63305 0.09313 0.63363 0.0
N756 N 0.56904 0.16426 0.68303 0.0
N757 N 0.63642 0.07588 0.5488 0.0
H758 H 0.67681 0.06915 0.68777 0.0
H759 H 0.67392 0.04787 0.62932 0.0
H760 H 0.62489 0.07197 0.51168 0.0
H761 H 0.66612 0.06793 0.55685 0.0
H762 H 0.54684 0.184 0.67215 0.0
H763 H 0.58316 0.16921 0.71931 0.0
H764 H 0.50695 0.15767 0.61421 0.0
H765 H 0.51016 0.14775 0.55264 0.0
C766 C 0.59117 0.7588 0.33669 0.0
C767 C 0.5797 0.79889 0.34083 0.0
C768 C 0.5992 0.81012 0.25654 0.0
C769 C 0.60214 0.76803 0.24785 0.0
N770 N 0.59445 0.70139 0.28408 0.0
N771 N 0.56633 0.86045 0.29711 0.0
C772 C 0.59661 0.74218 0.2893 0.0
C773 C 0.58183 0.82377 0.29848 0.0
N774 N 0.5985 0.7365 0.3786 0.0
N775 N 0.61566 0.838 0.22695 0.0
H776 H 0.55225 0.87106 0.32559 0.0
H777 H 0.56368 0.87823 0.26547 0.0
H778 H 0.63376 0.83055 0.2009 0.0
H779 H 0.61675 0.86882 0.23367 0.0
H780 H 0.61154 0.70909 0.37933 0.0
H781 H 0.59575 0.74747 0.41352 0.0
H782 H 0.58649 0.68183 0.31158 0.0
H783 H 0.59476 0.68657 0.25095 0.0
C784 C 0.6721 0.60153 0.40013 0.0
C785 C 0.67974 0.62602 0.35985 0.0
C786 C 0.70185 0.68287 0.41591 0.0
C787 C 0.6896 0.65949 0.45506 0.0
N788 N 0.65011 0.60123 0.47976 0.0
N789 N 0.69153 0.69292 0.32759 0.0
C790 C 0.67159 0.61989 0.44625 0.0
C791 C 0.69227 0.66752 0.36704 0.0
N792 N 0.66427 0.56092 0.39417 0.0
N793 N 0.72158 0.71996 0.42529 0.0
H794 H 0.68408 0.68325 0.29096 0.0
H795 H 0.69455 0.72408 0.33159 0.0
H796 H 0.72834 0.73211 0.4609 0.0
H797 H 0.73384 0.73705 0.39835 0.0
H798 H 0.66138 0.5416 0.42383 0.0
H799 H 0.66431 0.54643 0.36041 0.0
H800 H 0.63012 0.57629 0.46991 0.0
H801 H 0.64764 0.61351 0.51407 0.0
C802 C 0.61142 0.29166 0.77586 0.0
C803 C 0.63322 0.31187 0.81814 0.0
C804 C 0.64602 0.37175 0.76857 0.0
C805 C 0.62823 0.34973 0.72579 0.0
N806 N 0.59357 0.28971 0.68663 0.0
N807 N 0.66176 0.3748 0.85765 0.0
C808 C 0.6103 0.3101 0.7289 0.0
C809 C 0.64717 0.3532 0.81558 0.0
N810 N 0.58991 0.2558 0.78133 0.0
N811 N 0.66451 0.40935 0.7637 0.0
H812 H 0.6672 0.36244 0.89271 0.0
H813 H 0.66672 0.40597 0.85855 0.0
H814 H 0.66338 0.42434 0.72998 0.0
H815 H 0.68314 0.42498 0.79222 0.0
H816 H 0.57034 0.24092 0.75303 0.0
H817 H 0.58817 0.24289 0.81577 0.0
H818 H 0.58484 0.25907 0.68535 0.0
H819 H 0.59009 0.30306 0.6518 0.0
C820 C 0.86373 0.40018 0.06352 0.0
C821 C 0.8897 0.36838 0.07142 0.0
C822 C 0.85665 0.33747 0.99422 0.0
C823 C 0.84391 0.37532 0.97956 0.0
N824 N 0.82636 0.44036 1.00067 0.0
N825 N 0.9074 0.30328 0.04736 0.0
C826 C 0.84323 0.40552 1.01504 0.0
C827 C 0.88395 0.33498 1.03853 0.0
N828 N 0.86017 0.42574 0.10113 0.0
N829 N 0.8467 0.3065 0.96151 0.0
H830 H 0.92781 0.30116 0.07953 0.0
H831 H 0.90852 0.28033 1.0221 0.0
H832 H 0.85483 0.27725 0.96824 0.0
H833 H 0.85483 0.27725 0.96824 0.0
H834 H 0.84007 0.44826 0.09764 0.0
H835 H 0.8747 0.42202 0.13703 0.0
H836 H 0.82854 0.46572 1.02323 0.0
H837 H 0.81109 0.44361 0.96488 0.0
C838 C 0.92114 0.64331 0.26678 0.0
C839 C 0.89263 0.67319 0.26344 0.0
C840 C 0.87463 0.65992 0.17442 0.0
C841 C 0.90459 0.63204 0.1775 0.0
N842 N 0.95884 0.59866 0.22378 0.0
N843 N 0.84725 0.71463 0.21119 0.0
C844 C 0.92843 0.62392 0.22299 0.0
C845 C 0.87098 0.68293 0.2165 0.0
N846 N 0.94193 0.63415 0.31165 0.0
N847 N 0.84881 0.66392 0.13125 0.0
H848 H 0.83839 0.72977 0.24026 0.0
H849 H 0.83697 0.72709 0.17708 0.0
H850 H 0.85161 0.64973 0.09818 0.0
H851 H 0.82242 0.67888 0.12892 0.0
H852 H 0.95893 0.60934 0.31806 0.0
H853 H 0.94159 0.65124 0.34317 0.0
H854 H 0.98059 0.59471 0.25431 0.0
H855 H 0.96359 0.58274 0.19262 0.0
C856 C 0.46934 0.39501 0.58981 0.0
C857 C 0.46411 0.36758 0.5492 0.0
C858 C 0.4216 0.32114 0.59418 0.0
C859 C 0.42471 0.35007 0.63269 0.0
N860 N 0.44651 0.41642 0.66501 0.0
N861 N 0.43533 0.3043 0.51209 0.0
C862 C 0.44722 0.38746 0.62989 0.0
C863 C 0.43998 0.33064 0.55107 0.0
N864 N 0.49616 0.42807 0.59092 0.0
N865 N 0.40218 0.28413 0.59981 0.0
H866 H 0.45162 0.30783 0.48239 0.0
H867 H 0.41453 0.2793 0.50813 0.0
H868 H 0.38739 0.27678 0.63016 0.0
H869 H 0.40231 0.25987 0.57613 0.0
H870 H 0.5067 0.44475 0.62292 0.0
H871 H 0.51014 0.43762 0.56092 0.0
H872 H 0.45805 0.44606 0.66189 0.0
H873 H 0.43158 0.41184 0.6958 0.0
C874 C 0.45516 0.71512 0.50537 0.0
C875 C 0.48641 0.68813 0.51642 0.0
C876 C 0.49194 0.68875 0.42554 0.0
C877 C 0.45807 0.7127 0.41386 0.0
N878 N 0.40176 0.73951 0.44511 0.0
N879 N 0.52689 0.64175 0.48184 0.0
C880 C 0.4382 0.7232 0.45459 0.0
C881 C 0.50255 0.67294 0.47493 0.0
N882 N 0.44266 0.73501 0.54328 0.0
N883 N 0.51575 0.68246 0.39016 0.0
H884 H 0.53407 0.62801 0.51596 0.0
H885 H 0.5361 0.62643 0.45279 0.0
H886 H 0.51084 0.69475 0.35492 0.0
H887 H 0.54302 0.66898 0.39747 0.0
H888 H 0.42364 0.75842 0.5376 0.0
H889 H 0.45464 0.73114 0.58024 0.0
H890 H 0.38362 0.74327 0.47239 0.0
H891 H 0.38747 0.74466 0.40943 0.0
C892 C 0.12553 0.60755 0.12493 0.0
C893 C 0.11738 0.64407 0.14646 0.0
C894 C 0.07586 0.66202 0.06931 0.0
C895 C 0.08484 0.62589 0.04752 0.0
N896 N 0.1266 0.56994 0.04974 0.0
N897 N 0.09321 0.71019 0.1366 0.0
C898 C 0.11249 0.60051 0.07374 0.0
C899 C 0.09498 0.67259 0.11785 0.0
N900 N 0.1441 0.57881 0.15383 0.0
N901 N 0.04889 0.68605 1.04371 0.0
H902 H 0.10753 0.71898 0.17178 0.0
H903 H 0.08083 0.7337 0.1159 0.0
H904 H 0.03658 0.68087 1.00678 0.0
H905 H 0.03718 0.71002 0.05966 0.0
H906 H 0.147 0.54992 0.14131 0.0
H907 H 0.15384 0.58261 0.19164 0.0
H908 H 0.14978 0.5529 0.06578 0.0
H909 H 0.11799 0.56408 1.01219 0.0
C910 C 0.12547 0.30898 0.75992 0.0
C911 C 0.11053 0.26931 0.74218 0.0
C912 C 0.07811 0.26114 0.81984 0.0
C913 C 0.09373 0.30017 0.83771 0.0
N914 N 0.13891 0.3581 0.82765 0.0
N915 N 0.07822 0.20524 0.76371 0.0
C916 C 0.11886 0.32326 0.80812 0.0
C917 C 0.08875 0.24483 0.77476 0.0
N918 N 0.14742 0.33321 0.73142 0.0
N919 N 0.05096 0.23986 0.8448 0.0
H920 H 0.07792 0.19249 0.72912 0.0
H921 H 0.07039 0.18435 0.78989 0.0
H922 H 0.04302 0.2498 0.87787 0.0
H923 H 0.03382 0.21396 0.83091 0.0
H924 H 0.15283 0.36413 0.73675 0.0
H925 H 0.16006 0.32269 0.70182 0.0
H926 H 0.16152 0.37442 0.81187 0.0
H927 H 0.13548 0.36918 0.86229 0.0
C928 C 0.01777 0.28005 0.24543 0.0
C929 C 0.98732 0.2885 0.20503 0.0
C930 C 0.95331 0.2231 0.21613 0.0
C931 C 0.99117 0.21338 0.24014 0.0
N932 N 0.0299 0.2364 0.31649 0.0
N933 N 0.91746 0.27428 0.1682 0.0
C934 C 0.0108 0.24411 0.27067 0.0
C935 C 0.95153 0.26214 0.19558 0.0
N936 N 0.05609 0.29785 0.25053 0.0
N937 N 0.92039 0.1967 0.21613 0.0
H938 H 0.91518 0.30429 0.15841 0.0
H939 H 0.89178 0.2551 0.15692 0.0
H940 H 0.92289 0.1697 0.23521 0.0
H941 H 0.8912 0.20279 0.20071 0.0
H942 H 0.07903 0.28822 0.27698 0.0
H943 H 0.06581 0.3186 0.2254 0.0
H944 H 0.04706 0.25886 0.33833 0.0
H945 H 0.02513 0.20832 0.33262 0.0
C946 C -0.00242 0.77485 0.48076 0.0
C947 C 0.97118 0.74432 0.45414 0.0
C948 C 0.02894 0.71325 0.43068 0.0
C949 C 0.0561 0.74375 0.45598 0.0
N950 N 0.06677 0.79883 0.51421 0.0
N951 N 0.96553 0.6744 0.43221 0.0
C952 C 0.04058 0.7733 0.48383 0.0
C953 C 0.98801 0.71021 0.43821 0.0
N954 N 0.9815 0.80465 0.50384 0.0
N955 N 0.04096 0.68888 0.39645 0.0
H956 H 0.93635 0.67092 0.44139 0.0
H957 H 0.97807 0.64774 0.42501 0.0
H958 H 0.06894 0.6934 0.38399 0.0
H959 H 0.02087 0.66796 0.37549 0.0
H960 H -0.00196 0.83073 0.51814 0.0
H961 H 0.95113 0.80275 0.50904 0.0
H962 H 0.05766 0.81836 0.53927 0.0
H963 H 0.09815 0.7986 0.51678 0.0
C964 C 0.46788 0.73864 0.72567 0.0
C965 C 0.51028 0.7367 0.74023 0.0
C966 C 0.51355 0.80311 0.77557 0.0
C967 C 0.47926 0.80874 0.74127 0.0
N968 N 0.41136 0.7813 0.72077 0.0
N969 N 0.56544 0.75815 0.80386 0.0
C970 C 0.45151 0.77571 0.73109 0.0
C971 C 0.53085 0.766 0.77409 0.0
N972 N 0.44467 0.70634 0.70539 0.0
N973 N 0.52845 0.83293 0.80826 0.0
H974 H 0.57562 0.7296 0.80536 0.0
H975 H 0.58215 0.77864 0.82875 0.0
H976 H 0.51354 0.85913 0.8093 0.0
H977 H 0.5534 0.83071 0.83524 0.0
H978 H 0.41436 0.7067 0.69004 0.0
H979 H 0.45707 0.67899 0.70624 0.0
H980 H 0.38889 0.7579 0.71324 0.0
H981 H 0.40127 0.81005 0.72278 0.0
C982 C 0.53357 0.18511 0.94109 0.0
C983 C 0.55595 0.22323 0.94746 0.0
C984 C 0.4929 0.25623 0.94549 0.0
C985 C 0.47079 0.21888 0.93224 0.0
N986 N 0.46812 0.14715 0.93655 0.0
N987 N 0.55828 0.29198 0.97344 0.0
C988 C 0.49061 0.183 0.93666 0.0
C989 C 0.53595 0.25782 0.95596 0.0
N990 N 0.55338 0.15122 0.93727 0.0
N991 N 0.47262 0.29019 0.94604 0.0
H992 H 0.58959 0.29266 0.98248 0.0
H993 H 0.54598 0.31791 0.98342 0.0
H994 H 0.44107 0.28923 0.94176 0.0
H995 H 0.4867 0.31914 0.94972 0.0
H996 H 0.53889 0.12329 0.92649 0.0
H997 H 0.58483 0.15141 0.94356 0.0
H998 H 0.48034 0.11958 0.94349 0.0
H999 H 0.4367 0.14582 0.93371 0.0
C1000 C 0.05261 0.76276 0.91644 0.0
C1001 C 0.02708 0.78859 0.88746 0.0
C1002 C 0.99002 0.72932 0.84434 0.0
C1003 C 0.01688 0.70421 0.87305 0.0
N1004 N 0.08492 0.70106 0.91533 0.0
N1005 N 0.97368 0.79729 0.81998 0.0
C1006 C 0.05175 0.72211 0.90248 0.0
C1007 C 0.99626 0.77211 0.85016 0.0
N1008 N 0.07611 0.77616 0.95911 0.0
N1009 N 0.95929 0.71216 0.8109 0.0
H1010 H 0.97682 0.82842 0.82456 0.0
H1011 H 0.95315 0.78786 0.78921 0.0
H1012 H 0.95798 0.68197 0.80063 0.0
H1013 H 0.93554 0.72754 0.79302 0.0
H1014 H 0.09273 0.75706 0.98304 0.0
H1015 H 0.07454 0.80462 0.9739 0.0
H1016 H 0.11187 0.71389 0.93496 0.0
H1017 H 0.08743 0.67338 0.89919 0.0
C1018 C 0.50562 0.76153 0.10582 0.0
C1019 C 0.51042 0.72009 0.1046 0.0
C1020 C 0.50329 0.71475 0.1921 0.0
C1021 C 0.50181 0.75712 0.19465 0.0
N1022 N 0.51893 0.82088 0.15729 0.0
N1023 N 0.49793 0.65536 0.13975 0.0
C1024 C 0.50724 0.78084 0.15227 0.0
C1025 C 0.50327 0.69609 0.14555 0.0
N1026 N 0.5049 0.78261 0.06285 0.0
N1027 N 0.5087 0.69293 0.23462 0.0
H1028 H 0.49613 0.64196 0.10496 0.0
H1029 H 0.49063 0.63574 0.16747 0.0
H1030 H 0.51253 0.70624 0.26952 0.0
H1031 H 0.51419 0.66261 0.23549 0.0
H1032 H 0.50081 0.81319 0.06019 0.0
H1033 H 0.50542 0.76798 1.02923 0.0
H1034 H 0.52636 0.83893 0.1282 0.0
H1035 H 0.52696 0.83488 0.19162 0.0
C1036 C 0.50689 0.22204 0.44516 0.0
C1037 C 0.50771 0.20014 0.40101 0.0
C1038 C 0.52862 0.26256 0.36017 0.0
C1039 C 0.53145 0.2833 0.40591 0.0
N1040 N 0.53375 0.28021 0.49471 0.0
N1041 N 0.52223 0.19816 0.31728 0.0
C1042 C 0.52352 0.26235 0.44921 0.0
C1043 C 0.51939 0.22002 0.35861 0.0
N1044 N 0.4891 0.20477 0.4829 0.0
N1045 N 0.53388 0.28364 0.31822 0.0
H1046 H 0.51397 0.16739 0.31439 0.0
H1047 H 0.5348 0.20989 0.28703 0.0
H1048 H 0.54178 0.31452 0.31853 0.0
H1049 H 0.5281 0.27117 0.28284 0.0
H1050 H 0.4837 0.22084 0.51358 0.0
H1051 H 0.47598 0.17542 0.48128 0.0
H1052 H 0.53225 0.26481 0.52778 0.0
H1053 H 0.54802 0.30907 0.49987 0.0
C1054 C 0.01894 0.27457 0.60468 0.0
C1055 C 0.01868 0.23334 0.59358 0.0
C1056 C 0.99738 0.21595 0.67319 0.0
C1057 C -0.00088 0.25715 0.68591 0.0
N1058 N 0.0266 0.32431 0.66991 0.0
N1059 N 0.99128 0.16642 0.60947 0.0
C1060 C 0.01345 0.28643 0.65299 0.0
C1061 C 0.00204 0.20486 0.62481 0.0
N1062 N 0.02763 0.30199 0.56977 0.0
N1063 N 0.99466 0.18694 0.70797 0.0
H1064 H 0.99106 0.15693 0.57306 0.0
H1065 H 0.99106 0.15693 0.57306 0.0
H1066 H 0.99556 0.19339 0.74538 0.0
H1067 H 0.99669 0.15666 0.69997 0.0
H1068 H 0.02525 0.33274 0.57341 0.0
H1069 H 0.0335 0.29286 0.53513 0.0
H1070 H 0.03994 0.34616 0.64875 0.0
H1071 H 0.02969 0.33204 0.70729 0.0
C1072 C 0.052 0.06489 1.01927 0.0
C1073 C 0.04709 0.05344 0.06851 0.0
C1074 C 0.01536 0.98859 1.03668 0.0
C1075 C 0.02197 -0.00138 0.9874 0.0
N1076 N 0.05628 0.04416 0.93516 0.0
N1077 N 0.03755 -0.00056 0.12456 0.0
C1078 C 0.04419 0.03575 0.98 0.0
C1079 C 0.03457 0.01307 0.07711 0.0
N1080 N 0.06083 0.10434 1.00916 0.0
N1081 N 0.9881 0.95791 0.04516 0.0
H1082 H 0.05074 0.01768 0.15441 0.0
H1083 H 0.03074 0.96947 0.13332 0.0
H1084 H 0.96931 0.94311 1.01657 0.0
H1085 H 0.9802 0.95119 0.08 0.0
H1086 H 0.05973 0.11564 0.97339 0.0
H1087 H 0.06729 0.12592 1.03707 0.0
H1088 H 0.07569 0.06915 0.92934 0.0
H1089 H 0.04942 0.02466 0.90492 0.0
C1090 C 0.28729 0.74249 0.39384 0.0
C1091 C 0.26716 0.77843 0.3859 0.0
C1092 C 0.29771 0.78861 0.3089 0.0
C1093 C 0.31689 0.75215 0.31708 0.0
N1094 N 0.30694 0.68574 0.35223 0.0
N1095 N 0.25004 0.83255 0.32676 0.0
C1096 C 0.305 0.72638 0.35502 0.0
C1097 C 0.27147 0.80052 0.34145 0.0
N1098 N 0.29092 0.72379 0.43872 0.0
N1099 N 0.30025 0.81146 0.26782 0.0
H1100 H 0.22771 0.84323 0.34479 0.0
H1101 H 0.22771 0.84323 0.34479 0.0
H1102 H 0.31489 0.80392 0.23839 0.0
H1103 H 0.31489 0.80392 0.23839 0.0
H1104 H 0.30832 0.69926 0.44632 0.0
H1105 H 0.28146 0.73551 0.46999 0.0
H1106 H 0.29619 0.66604 0.37801 0.0
H1107 H 0.31185 0.67131 0.32016 0.0
C1108 C 0.55226 -0.00556 0.54338 0.0
C1109 C 0.52285 -0.00332 0.5005 0.0
C1110 C 0.46964 0.97891 0.55155 0.0
C1111 C 0.49842 0.98158 0.59513 0.0
N1112 N 0.56642 0.00032 0.63269 0.0
N1113 N 0.45458 0.97453 0.4639 0.0
C1114 C 0.53956 0.99191 0.59091 0.0
C1115 C 0.48209 0.98415 0.50453 0.0
N1116 N 0.59183 0.99059 0.53864 0.0
N1117 N 0.4295 0.97244 0.55372 0.0
H1118 H 0.46177 0.97475 0.42795 0.0
H1119 H 0.46177 0.97475 0.42795 0.0
H1120 H 0.41781 0.97198 0.58709 0.0
H1121 H 0.41781 0.97198 0.58709 0.0
H1122 H 0.614 0.98594 0.56858 0.0
H1123 H 0.60117 0.98564 0.50453 0.0
H1124 H 0.59653 0.01061 0.63217 0.0
H1125 H 0.55703 0.00128 0.66746 0.0
C1126 C 0.24933 0.2364 0.78048 0.0
C1127 C 0.26396 0.19814 0.79005 0.0
C1128 C 0.24133 0.18127 0.7004 0.0
C1129 C 0.22931 0.22085 0.69188 0.0
N1130 N 0.24646 0.28959 0.72342 0.0
N1131 N 0.28096 0.13596 0.75389 0.0
C1132 C 0.24045 0.24938 0.73131 0.0
C1133 C 0.26145 0.17061 0.74872 0.0
N1134 N 0.24479 0.26165 0.81809 0.0
N1135 N 0.23633 0.15483 0.66165 0.0
H1136 H 0.2978 0.12685 0.78623 0.0
H1137 H 0.28402 0.11715 0.72469 0.0
H1138 H 0.22761 0.16342 0.62525 0.0
H1139 H 0.24151 0.12457 0.66479 0.0
H1140 H 0.23425 0.29012 0.81129 0.0
H1141 H 0.2476 0.25279 0.85501 0.0
H1142 H 0.24817 0.30242 0.6888 0.0
H1143 H 0.24817 0.30242 0.6888 0.0
C1144 C 0.78838 0.23299 0.89462 0.0
C1145 C 0.76567 0.26718 0.88627 0.0
C1146 C 0.78915 0.27452 0.80383 0.0
C1147 C 0.81122 0.24003 0.81352 0.0
N1148 N 0.80852 0.17558 0.85478 0.0
N1149 N 0.73944 0.31704 0.82713 0.0
C1150 C 0.80406 0.21593 0.8549 0.0
C1151 C 0.76472 0.28721 0.83929 0.0
N1152 N 0.79566 0.21654 0.94069 0.0
N1153 N 0.78983 0.29399 0.75977 0.0
H1154 H 0.72372 0.33023 0.85178 0.0
H1155 H 0.73253 0.32829 0.7916 0.0
H1156 H 0.80055 0.28151 0.72982 0.0
H1157 H 0.77891 0.322 0.75187 0.0
H1158 H 0.81474 0.19333 0.94849 0.0
H1159 H 0.7876 0.22944 0.97217 0.0
H1160 H 0.80116 0.1567 0.88325 0.0
H1161 H 0.81212 0.15999 0.82295 0.0
C1162 C 0.76385 0.68988 0.24156 0.0
C1163 C 0.76933 0.71989 0.28064 0.0
C1164 C 0.74042 0.76738 0.21909 0.0
C1165 C 0.72607 0.7361 0.18422 0.0
N1166 N 0.73677 0.67079 0.15572 0.0
N1167 N 0.75242 0.78558 0.30504 0.0
C1168 C 0.74082 0.69777 0.19387 0.0
C1169 C 0.75468 0.75808 0.26893 0.0
N1170 N 0.78263 0.6549 0.24866 0.0
N1171 N 0.7439 0.80643 0.20397 0.0
H1172 H 0.76039 0.78037 0.34257 0.0
H1173 H 0.7383 0.8122 0.29757 0.0
H1174 H 0.74046 0.8143 0.16667 0.0
H1175 H 0.75685 0.82981 0.22768 0.0
H1176 H 0.77775 0.63044 0.22469 0.0
H1177 H 0.80603 0.65065 0.277 0.0
H1178 H 0.74673 0.64207 0.15796 0.0
H1179 H 0.72554 0.67827 0.11957 0.0
C1180 C 0.49781 0.52317 0.56597 0.0
C1181 C 0.5351 0.54556 0.58083 0.0
C1182 C 0.56062 0.51439 0.51012 0.0
C1183 C 0.52033 0.49823 0.49129 0.0
N1184 N 0.44937 0.50755 0.49436 0.0
N1185 N 0.60477 0.55772 0.57166 0.0
C1186 C 0.48851 0.50836 0.51716 0.0
C1187 C 0.56763 0.53945 0.55439 0.0
N1188 N 0.47014 0.5179 0.59799 0.0
N1189 N 0.59143 0.50831 0.48413 0.0
H1190 H 0.60948 0.5754 0.60366 0.0
H1191 H 0.63091 0.55404 0.55635 0.0
H1192 H 0.58652 0.4971 0.44812 0.0
H1193 H 0.62188 0.51346 0.49852 0.0
H1194 H 0.44301 0.5001 0.58929 0.0
H1195 H 0.47704 0.52741 0.63477 0.0
H1196 H 0.42597 0.51633 0.51236 0.0
H1197 H 0.44162 0.50569 0.45608 0.0
C1198 C 0.05004 0.4901 1.02903 0.0
C1199 C 0.01929 0.49852 0.98957 0.0
C1200 C 0.96841 0.48203 0.04557 0.0
C1201 C -0.00013 0.47734 0.0858 0.0
N1202 N 0.07156 0.48518 0.11623 0.0
N1203 N 0.94951 0.48459 0.95595 0.0
C1204 C 0.04073 0.48445 0.07749 0.0
C1205 C 0.97837 0.48948 0.9966 0.0
N1206 N 0.08822 0.48323 1.0213 0.0
N1207 N 0.92924 0.48057 0.05422 0.0
H1208 H 0.9568 0.48553 0.92007 0.0
H1209 H 0.91902 0.47688 0.9575 0.0
H1210 H 0.92147 0.47782 0.08964 0.0
H1211 H 0.9051 0.48671 1.02751 0.0
H1212 H 0.09695 0.48006 0.98647 0.0
H1213 H 0.09695 0.48006 0.98647 0.0
H1214 H 0.10196 0.48947 0.11129 0.0
H1215 H 0.06657 0.48475 0.15307 0.0
C1216 C 0.06519 0.13328 0.36585 0.0
C1217 C 0.08218 0.15407 0.32648 0.0
C1218 C 0.12675 0.19479 0.39513 0.0
C1219 C 0.10573 0.178 0.43337 0.0
N1220 N 0.04788 0.13469 0.44951 0.0
N1221 N 0.12567 0.21319 0.30927 0.0
C1222 C 0.07314 0.14813 0.41695 0.0
C1223 C 0.11211 0.18695 0.34286 0.0
N1224 N 0.04252 0.09779 0.35537 0.0
N1225 N 0.16241 0.21744 0.40839 0.0
H1226 H 0.11758 0.21084 0.2714 0.0
H1227 H 0.14216 0.24037 0.31957 0.0
H1228 H 0.17501 0.22291 0.44512 0.0
H1229 H 0.18182 0.22674 0.3832 0.0
H1230 H 0.0325 0.07908 0.38252 0.0
H1231 H 0.03791 0.08457 0.32036 0.0
H1232 H 0.02094 0.11711 0.43889 0.0
H1233 H 0.05149 0.14446 0.48602 0.0
C1234 C 0.11382 0.87461 0.72958 0.0
C1235 C 0.12794 0.91066 0.7083 0.0
C1236 C 0.10502 0.94972 0.77327 0.0
C1237 C 0.08594 0.9138 0.79036 0.0
N1238 N 0.06595 0.8426 0.77744 0.0
N1239 N 0.13505 0.9829 0.70634 0.0
C1240 C 0.08859 0.8764 0.76653 0.0
C1241 C 0.12335 0.94842 0.72937 0.0
N1242 N 0.12485 0.83844 0.71472 0.0
N1243 N 0.10518 0.98502 0.79847 0.0
H1244 H 0.14968 0.98283 0.67509 0.0
H1245 H 0.12794 0.01126 0.71626 0.0
H1246 H 0.08985 0.98773 0.82879 0.0
H1247 H 0.12242 0.01109 0.79112 0.0
H1248 H 0.11932 0.81156 0.73308 0.0
H1249 H 0.14313 0.8357 0.68722 0.0
H1250 H 0.06323 0.81612 0.7568 0.0
H1251 H 0.04646 0.84181 0.80355 0.0
C1252 C 0.43033 0.84925 0.09765 0.0
C1253 C 0.41352 0.80899 0.10599 0.0
C1254 C 0.4125 0.79748 1.01474 0.0
C1255 C 0.42556 0.83846 1.00606 0.0
N1256 N 0.43526 0.90527 1.04057 0.0
N1257 N 0.3769 0.75047 0.06494 0.0
C1258 C 0.43091 0.86474 0.04796 0.0
C1259 C 0.4014 0.78481 0.06228 0.0
N1260 N 0.44822 0.87283 0.13661 0.0
N1261 N 0.41205 0.76971 0.97816 0.0
H1262 H 0.36484 0.74198 0.09688 0.0
H1263 H 0.36429 0.73343 1.03389 0.0
H1264 H 0.42094 0.77708 0.94397 0.0
H1265 H 0.40708 0.73891 0.98379 0.0
H1266 H 0.4647 0.90007 0.1321 0.0
H1267 H 0.4516 0.86368 0.17318 0.0
H1268 H 0.4346 0.92628 0.06848 0.0
H1269 H 0.43482 0.91796 1.00554 0.0
C1270 C 0.41362 0.09646 0.26501 0.0
C1271 C 0.44752 0.07298 0.2767 0.0
C1272 C 0.44309 0.05499 0.18869 0.0
C1273 C 0.41289 0.08246 0.1769 0.0
N1274 N 0.37261 0.1332 0.20236 0.0
N1275 N 0.49491 0.02976 0.25002 0.0
C1276 C 0.39892 0.1041 0.21467 0.0
C1277 C 0.46233 0.05216 0.23854 0.0
N1278 N 0.39487 0.11117 0.30162 0.0
N1279 N 0.45269 0.03104 0.15229 0.0
H1280 H 0.50734 0.0238 0.28633 0.0
H1281 H 0.51061 0.0182 0.22374 0.0
H1282 H 0.43971 0.03297 0.11535 0.0
H1283 H 0.47122 0.00737 0.15891 0.0
H1284 H 0.36739 0.12431 0.29486 0.0
H1285 H 0.40406 0.10699 0.33907 0.0
H1286 H 0.36558 0.15382 0.22767 0.0
H1287 H 0.36019 0.13904 0.16601 0.0
C1288 C 0.86888 0.83846 0.52679 0.0
C1289 C 0.84748 0.7996 0.51942 0.0
C1290 C 0.84703 0.79448 0.60947 0.0
C1291 C 0.86686 0.8336 0.61623 0.0
N1292 N 0.88619 0.8969 0.58024 0.0
N1293 N 0.8059 0.74696 0.55294 0.0
C1294 C 0.87437 0.85684 0.5745 0.0
C1295 C 0.8334 0.77959 0.56062 0.0
N1296 N 0.88645 0.85726 0.48976 0.0
N1297 N 0.84243 0.77088 0.64964 0.0
H1298 H 0.79376 0.73638 0.51765 0.0
H1299 H 0.79176 0.73329 0.58099 0.0
H1300 H 0.85182 0.78076 0.68593 0.0
H1301 H 0.8324 0.74052 0.64683 0.0
H1302 H 0.90716 0.88231 0.49592 0.0
H1303 H 0.88342 0.84693 0.45364 0.0
H1304 H 0.88752 0.91647 0.55055 0.0
H1305 H 0.89075 0.91143 0.61453 0.0
C1306 C 0.88951 0.04449 0.47943 0.0
C1307 C 0.87854 0.08179 0.49601 0.0
C1308 C 0.8675 0.10547 0.41055 0.0
C1309 C 0.88527 0.07135 0.39539 0.0
N1310 N 0.91596 0.0091 0.41532 0.0
N1311 N 0.86202 0.15022 0.47792 0.0
C1312 C 0.89663 0.04071 0.42966 0.0
C1313 C 0.86835 0.11285 0.46169 0.0
N1314 N 0.8926 0.01266 0.5111 0.0
N1315 N 0.8499 0.13085 0.37587 0.0
H1316 H 0.8631 0.15754 0.51511 0.0
H1317 H 0.85932 0.17509 0.45477 0.0
H1318 H 0.84867 0.12603 0.33794 0.0
H1319 H 0.83306 0.15415 0.38449 0.0
H1320 H 0.8968 0.98368 0.49994 0.0
H1321 H 0.88717 0.01446 0.54767 0.0
H1322 H 0.92919 0.98838 0.44001 0.0
H1323 H 0.92115 0.00502 0.37901 0.0
C1324 C 0.70508 0.19928 0.12916 0.0
C1325 C 0.68373 0.18198 0.0847 0.0
C1326 C 0.65265 0.12897 0.13287 0.0
C1327 C 0.66833 0.15039 0.17691 0.0
N1328 N 0.70702 0.20795 0.2175 0.0
N1329 N 0.63271 0.13252 1.04468 0.0
C1330 C 0.69425 0.18593 0.17533 0.0
C1331 C 0.65675 0.147 0.08648 0.0
N1332 N 0.73612 0.2281 0.12711 0.0
N1333 N 0.63399 0.09124 0.13538 0.0
H1334 H 0.63397 0.14457 1.00977 0.0
H1335 H 0.60896 0.11048 0.04519 0.0
H1336 H 0.63035 0.07715 0.16883 0.0
H1337 H 0.62572 0.0725 0.10463 0.0
H1338 H 0.75524 0.23933 0.15828 0.0
H1339 H 0.74535 0.23775 0.09378 0.0
H1340 H 0.72207 0.23647 0.2176 0.0
H1341 H 0.69985 0.19911 0.25207 0.0
C1342 C 0.62109 0.92702 0.77498 0.0
C1343 C 0.60672 0.8927 0.74589 0.0
C1344 C 0.64105 0.84977 0.80841 0.0
C1345 C 0.64443 0.88241 0.84219 0.0
N1346 N 0.64754 0.95351 0.85695 0.0
N1347 N 0.61095 0.82305 0.72756 0.0
C1348 C 0.63862 0.92183 0.82478 0.0
C1349 C 0.62047 0.85468 0.75971 0.0
N1350 N 0.61623 0.9641 0.75483 0.0
N1351 N 0.656 0.81411 0.82362 0.0
H1352 H 0.59754 0.82687 0.69114 0.0
H1353 H 0.61621 0.79338 0.73641 0.0
H1354 H 0.67049 0.80976 0.8594 0.0
H1355 H 0.65658 0.78969 0.80032 0.0
H1356 H 0.62691 0.99106 0.7728 0.0
H1357 H 0.60414 0.9671 0.71775 0.0
H1358 H 0.64065 0.98283 0.84833 0.0
H1359 H 0.66184 0.9499 0.89311 0.0
C1360 C 0.6185 0.67473 0.85215 0.0
C1361 C 0.58079 0.65167 0.83341 0.0
C1362 C 0.56298 0.65803 0.91972 0.0
C1363 C 0.60134 0.67832 0.93882 0.0
N1364 N 0.66869 0.69746 0.92273 0.0
N1365 N 0.52414 0.61187 0.85872 0.0
C1366 C 0.62983 0.68387 0.90476 0.0
C1367 C 0.55518 0.6408 0.87005 0.0
N1368 N 0.64285 0.69124 0.82002 0.0
N1369 N 0.53277 0.65617 0.94844 0.0
H1370 H 0.51929 0.59601 0.82538 0.0
H1371 H 0.50673 0.59985 0.88472 0.0
H1372 H 0.53669 0.66873 0.98372 0.0
H1373 H 0.50293 0.64603 0.93533 0.0
H1374 H 0.66713 0.71226 0.83086 0.0
H1375 H 0.63687 0.6885 0.78191 0.0
H1376 H 0.69255 0.69726 0.9021 0.0
H1377 H 0.67781 0.70529 0.9598 0.0
C1378 C 0.62729 0.38539 0.30448 0.0
C1379 C 0.59492 0.41072 0.30399 0.0
C1380 C 0.59621 0.42395 0.21564 0.0
C1381 C 0.62409 0.39413 0.21494 0.0
N1382 N 0.66422 0.34392 0.25691 0.0
N1383 N 0.54869 0.45494 0.26006 0.0
C1384 C 0.63937 0.37439 0.25896 0.0
C1385 C 0.57961 0.43047 0.25981 0.0
N1386 N 0.64678 0.37192 0.34821 0.0
N1387 N 0.58608 0.44629 0.17421 0.0
H1388 H 0.53817 0.46305 0.2925 0.0
H1389 H 0.53245 0.4661 0.2282 0.0
H1390 H 0.59707 0.44162 0.14101 0.0
H1391 H 0.56922 0.47128 0.17349 0.0
H1392 H 0.6732 0.35701 0.35096 0.0
H1393 H 0.63937 0.37892 0.38262 0.0
H1394 H 0.67196 0.32465 0.28628 0.0
H1395 H 0.67487 0.33578 0.2246 0.0
C1396 C 0.90086 0.34602 0.52703 0.0
C1397 C 0.92201 0.32428 0.49514 0.0
C1398 C 0.91864 0.26703 0.55521 0.0
C1399 C 0.90438 0.29108 0.59189 0.0
N1400 N 0.87643 0.35413 0.6058 0.0
N1401 N 0.9565 0.2648 0.48543 0.0
C1402 C 0.8944 0.33086 0.57575 0.0
C1403 C 0.93236 0.28507 0.51135 0.0
N1404 N 0.88387 0.38014 0.50929 0.0
N1405 N 0.91643 0.22616 0.55944 0.0
H1406 H 0.96836 0.27701 0.45487 0.0
H1407 H 0.96857 0.23801 0.49751 0.0
H1408 H 0.90062 0.21058 0.58453 0.0
H1409 H 0.92416 0.20718 0.53275 0.0
H1410 H 0.86422 0.39547 0.52726 0.0
H1411 H 0.88621 0.3913 0.47402 0.0
H1412 H 0.87644 0.38525 0.60253 0.0
H1413 H 0.86016 0.34214 0.63289 0.0
C1414 C 0.91072 0.60325 0.75702 0.0
C1415 C 0.94366 0.57824 0.76597 0.0
C1416 C 0.93694 0.56384 0.67674 0.0
C1417 C 0.90809 0.59298 0.66776 0.0
N1418 N 0.87025 0.64371 0.69805 0.0
N1419 N 0.98801 0.53402 0.73489 0.0
C1420 C 0.89554 0.61338 0.70756 0.0
C1421 C 0.95662 0.55821 0.72588 0.0
N1422 N 0.89345 0.61724 0.79535 0.0
N1423 N 0.94498 0.54117 0.63827 0.0
H1424 H 0.00051 0.52608 0.7705 0.0
H1425 H 0.00265 0.5228 0.70736 0.0
H1426 H 0.93174 0.54519 0.60178 0.0
H1427 H 0.96245 0.51657 0.64262 0.0
H1428 H 0.8666 0.63154 0.79041 0.0
H1429 H 0.90324 0.61161 0.83234 0.0
H1430 H 0.86451 0.66358 0.72501 0.0
H1431 H 0.85733 0.65122 0.66245 0.0
C1432 C 0.35465 0.33234 0.08839 0.0
C1433 C 0.38313 0.31613 0.12556 0.0
C1434 C 0.39437 0.26413 0.06675 0.0
C1435 C 0.36267 0.27745 1.03127 0.0
N1436 N 0.30824 0.32073 1.01187 0.0
N1437 N 0.42315 0.261 0.1531 0.0
C1438 C 0.34161 0.31069 1.04306 0.0
C1439 C 0.40087 0.28034 0.11559 0.0
N1440 N 0.34097 0.36906 0.0957 0.0
N1441 N 0.42011 0.23766 0.05329 0.0
H1442 H 0.42843 0.27158 0.18949 0.0
H1443 H 0.43291 0.23245 0.14905 0.0
H1444 H 0.41835 0.22656 1.01748 0.0
H1445 H 0.44609 0.23024 0.07625 0.0
H1446 H 0.32359 0.38445 0.06814 0.0
H1447 H 0.34994 0.38579 0.12809 0.0
H1448 H 0.28911 0.34192 1.02072 0.0
H1449 H 0.29753 0.30523 0.97896 0.0
C1450 C 0.35315 0.60758 0.96073 0.0
C1451 C 0.38496 0.59461 0.99579 0.0
C1452 C 0.41617 0.56646 0.92933 0.0
C1453 C 0.38656 0.58283 0.89416 0.0
N1454 N 0.32424 0.61623 0.87666 0.0
N1455 N 0.44646 0.55952 1.01299 0.0
C1456 C 0.35419 0.60201 0.90975 0.0
C1457 C 0.41584 0.57302 0.98023 0.0
N1458 N 0.32205 0.62618 0.9759 0.0
N1459 N 0.44577 0.54552 0.91423 0.0
H1460 H 0.44937 0.56343 0.05126 0.0
H1461 H 0.44937 0.56343 0.05126 0.0
H1462 H 0.44706 0.53939 0.87709 0.0
H1463 H 0.46846 0.53364 0.93908 0.0
H1464 H 0.29848 0.6366 0.95103 0.0
H1465 H 0.3195 0.63038 1.01312 0.0
H1466 H 0.32243 0.61326 0.83836 0.0
H1467 H 0.32243 0.61326 0.83836 0.0
C1468 C 0.20166 0.71449 0.62336 0.0
C1469 C 0.18446 0.69796 0.57645 0.0
C1470 C 0.1477 0.64397 0.61745 0.0
C1471 C 0.16505 0.66032 0.66413 0.0
N1472 N 0.21394 0.7062 0.71267 0.0
N1473 N 0.14984 0.64059 0.52965 0.0
C1474 C 0.19376 0.69411 0.66742 0.0
C1475 C 0.16043 0.66062 0.57368 0.0
N1476 N 0.22531 0.74992 0.62563 0.0
N1477 N 0.1176 0.61353 0.61478 0.0
H1478 H 0.15792 0.65084 0.49625 0.0
H1479 H 0.1364 0.61133 0.52683 0.0
H1480 H 0.10793 0.59984 0.6459 0.0
H1481 H 0.09983 0.60398 0.58185 0.0
H1482 H 0.23438 0.76655 0.65798 0.0
H1483 H 0.23502 0.76351 0.59444 0.0
H1484 H 0.23813 0.72802 0.71761 0.0
H1485 H 0.20834 0.69228 0.74558 0.0
C1486 C 0.14993 0.40709 0.26783 0.0
C1487 C 0.10785 0.39529 0.26367 0.0
C1488 C 0.11819 0.36458 0.34576 0.0
C1489 C 0.15864 0.38119 0.35303 0.0
N1490 N 0.21403 0.41898 0.32293 0.0
N1491 N 0.05141 0.36795 0.30392 0.0
C1492 C 0.17506 0.40244 0.31441 0.0
C1493 C 0.09201 0.37582 0.30421 0.0
N1494 N 0.16546 0.42338 0.22797 0.0
N1495 N 0.10442 0.33725 0.37837 0.0
H1496 H 0.03085 0.36624 0.2718 0.0
H1497 H 0.0384 0.36223 0.33598 0.0
H1498 H 0.12181 0.32763 0.41021 0.0
H1499 H 0.07637 0.32094 0.37157 0.0
H1500 H 0.19629 0.4297 0.2271 0.0
H1501 H 0.14735 0.42858 0.1945 0.0
H1502 H 0.22706 0.43803 0.29831 0.0
H1503 H 0.23289 0.4148 0.35618 0.0
loop_
_geom_bond_atom_site_label_1
_geom_bond_atom_site_label_2
_geom_bond_distance
_geom_bond_site_symmetry_2
_ccdc_geom_bond_type
Ho0 C3 2.802 1_554 S
Ho0 O20 2.322 1_455 S
Ho0 O22 2.378 . S
Ho0 O23 2.524 . S
Ho0 O24 2.381 . S
Ho0 O25 2.669 1_455 S
Ho0 O27 2.346 . S
Ho0 O31 2.305 . S
Ho1 C12 2.811 . S
Ho1 O21 2.346 . S
Ho1 O25 2.305 . S
Ho1 O26 2.322 1_655 S
Ho1 O28 2.378 . S
Ho1 O29 2.524 . S
Ho1 O30 2.381 . S
Ho1 O31 2.669 1_655 S
C2 O20 1.259 . S
C2 O21 1.268 . S
C3 Ho0 2.802 1_556 S
C3 C4 1.497 . S
C3 O22 1.210 1_556 S
C3 O23 1.286 1_556 S
C4 C3 1.497 . S
C4 C5 1.348 . S
C4 C9 1.413 . S
C5 C4 1.348 . S
C5 C6 1.442 . S
C5 H32 0.930 . S
C6 C5 1.442 . S
C6 C7 1.381 . S
C6 H33 0.931 . S
C7 C6 1.381 . S
C7 C8 1.321 . S
C8 C7 1.321 . S
C8 C9 1.403 . S
C8 H34 0.934 . S
C9 C4 1.413 . S
C9 C8 1.403 . S
C9 H35 0.930 . S
C10 O24 1.275 . S
C10 O25 1.256 1_455 S
C11 O26 1.259 . S
C11 O27 1.268 . S
C12 Ho1 2.811 . S
C12 C13 1.488 . S
C12 O28 1.215 . S
C12 O29 1.289 . S
C13 C12 1.488 . S
C13 C14 1.348 . S
C13 C18 1.413 . S
C14 C13 1.348 . S
C14 C15 1.442 . S
C14 H36 0.930 . S
C15 C14 1.442 . S
C15 C16 1.381 . S
C15 H37 0.931 . S
C16 C15 1.381 . S
C16 C17 1.321 . S
C17 C16 1.321 . S
C17 C18 1.403 . S
C17 H38 0.934 . S
C18 C13 1.413 . S
C18 C17 1.403 . S
C18 H39 0.930 . S
C19 O30 1.275 . S
C19 O31 1.256 1_655 S
O20 Ho0 2.322 1_655 S
O20 C2 1.259 . S
O21 Ho1 2.346 . S
O21 C2 1.268 . S
O22 Ho0 2.378 . S
O22 C3 1.210 1_554 S
O23 Ho0 2.524 . S
O23 C3 1.286 1_554 S
O24 Ho0 2.381 . S
O24 C10 1.275 . S
O25 Ho0 2.669 1_655 S
O25 Ho1 2.305 . S
O25 C10 1.256 1_655 S
O26 Ho1 2.322 1_455 S
O26 C11 1.259 . S
O27 Ho0 2.346 . S
O27 C11 1.268 . S
O28 Ho1 2.378 . S
O28 C12 1.215 . S
O29 Ho1 2.524 . S
O29 C12 1.289 . S
O30 Ho1 2.381 . S
O30 C19 1.275 . S
O31 Ho0 2.305 . S
O31 Ho1 2.669 1_455 S
O31 C19 1.256 1_455 S
H32 C5 0.930 . S
H33 C6 0.931 . S
H34 C8 0.934 . S
H35 C9 0.930 . S
H36 C14 0.930 . S
H37 C15 0.931 . S
H38 C17 0.934 . S
H39 C18 0.930 . S
Ho40 C43 2.811 . S
Ho40 O60 2.322 . S
Ho40 O62 2.378 . S
Ho40 O63 2.524 . S
Ho40 O64 2.381 . S
Ho40 O65 2.669 . S
Ho40 O67 2.346 . S
Ho40 O71 2.305 . S
Ho41 C52 2.811 . S
Ho41 O61 2.346 . S
Ho41 O65 2.305 . S
Ho41 O66 2.322 . S
Ho41 O68 2.378 . S
Ho41 O69 2.524 . S
Ho41 O70 2.381 . S
Ho41 O71 2.669 . S
C42 O60 1.259 . S
C42 O61 1.268 . S
C43 Ho40 2.811 . S
C43 C44 1.488 . S
C43 O62 1.215 . S
C43 O63 1.289 . S
C44 C43 1.488 . S
C44 C45 1.348 . S
C44 C49 1.413 . S
C45 C44 1.348 . S
C45 C46 1.442 . S
C45 H72 0.930 . S
C46 C45 1.442 . S
C46 C47 1.381 . S
C46 H73 0.931 . S
C47 C46 1.381 . S
C47 C48 1.321 . S
C48 C47 1.321 . S
C48 C49 1.403 . S
C48 H74 0.934 . S
C49 C44 1.413 . S
C49 C48 1.403 . S
C49 H75 0.930 . S
C50 O64 1.275 . S
C50 O65 1.256 . S
C51 O66 1.259 . S
C51 O67 1.268 . S
C52 Ho41 2.811 . S
C52 C53 1.488 . S
C52 O68 1.215 . S
C52 O69 1.289 . S
C53 C52 1.488 . S
C53 C54 1.348 . S
C53 C58 1.413 . S
C54 C53 1.348 . S
C54 C55 1.442 . S
C54 H76 0.930 . S
C55 C54 1.442 . S
C55 C56 1.381 . S
C55 H77 0.931 . S
C56 C55 1.381 . S
C56 C57 1.321 . S
C57 C56 1.321 . S
C57 C58 1.403 . S
C57 H78 0.934 . S
C58 C53 1.413 . S
C58 C57 1.403 . S
C58 H79 0.930 . S
C59 O70 1.275 . S
C59 O71 1.256 . S
O60 Ho40 2.322 . S
O60 C42 1.259 . S
O61 Ho41 2.346 . S
O61 C42 1.268 . S
O62 Ho40 2.378 . S
O62 C43 1.215 . S
O63 Ho40 2.524 . S
O63 C43 1.289 . S
O64 Ho40 2.381 . S
O64 C50 1.275 . S
O65 Ho40 2.669 . S
O65 Ho41 2.305 . S
O65 C50 1.256 . S
O66 Ho41 2.322 . S
O66 C51 1.259 . S
O67 Ho40 2.346 . S
O67 C51 1.268 . S
O68 Ho41 2.378 . S
O68 C52 1.215 . S
O69 Ho41 2.524 . S
O69 C52 1.289 . S
O70 Ho41 2.381 . S
O70 C59 1.275 . S
O71 Ho40 2.305 . S
O71 Ho41 2.669 . S
O71 C59 1.256 . S
H72 C45 0.930 . S
H73 C46 0.931 . S
H74 C48 0.934 . S
H75 C49 0.930 . S
H76 C54 0.930 . S
H77 C55 0.931 . S
H78 C57 0.934 . S
H79 C58 0.930 . S
Ho80 C83 2.811 . S
Ho80 O100 2.322 . S
Ho80 O102 2.378 . S
Ho80 O103 2.524 . S
Ho80 O104 2.381 . S
Ho80 O105 2.669 . S
Ho80 O107 2.346 . S
Ho80 O111 2.305 . S
Ho81 C92 2.811 . S
Ho81 O101 2.346 . S
Ho81 O105 2.305 . S
Ho81 O106 2.322 . S
Ho81 O108 2.378 . S
Ho81 O109 2.524 . S
Ho81 O110 2.381 . S
Ho81 O111 2.669 . S
C82 O100 1.259 . S
C82 O101 1.268 . S
C83 Ho80 2.811 . S
C83 C84 1.488 . S
C83 O102 1.215 . S
C83 O103 1.289 . S
C84 C83 1.488 . S
C84 C85 1.348 . S
C84 C89 1.413 . S
C85 C84 1.348 . S
C85 C86 1.442 . S
C85 H112 0.930 . S
C86 C85 1.442 . S
C86 C87 1.381 . S
C86 H113 0.931 . S
C87 C86 1.381 . S
C87 C88 1.321 . S
C88 C87 1.321 . S
C88 C89 1.403 . S
C88 H114 0.934 . S
C89 C84 1.413 . S
C89 C88 1.403 . S
C89 H115 0.930 . S
C90 O104 1.275 . S
C90 O105 1.256 . S
C91 O106 1.259 . S
C91 O107 1.268 . S
C92 Ho81 2.811 . S
C92 C93 1.488 . S
C92 O108 1.215 . S
C92 O109 1.289 . S
C93 C92 1.488 . S
C93 C94 1.348 . S
C93 C98 1.413 . S
C94 C93 1.348 . S
C94 C95 1.442 . S
C94 H116 0.930 . S
C95 C94 1.442 . S
C95 C96 1.381 . S
C95 H117 0.931 . S
C96 C95 1.381 . S
C96 C97 1.321 . S
C97 C96 1.321 . S
C97 C98 1.403 . S
C97 H118 0.934 . S
C98 C93 1.413 . S
C98 C97 1.403 . S
C98 H119 0.930 . S
C99 O110 1.275 . S
C99 O111 1.256 . S
O100 Ho80 2.322 . S
O100 C82 1.259 . S
O101 Ho81 2.346 . S
O101 C82 1.268 . S
O102 Ho80 2.378 . S
O102 C83 1.215 . S
O103 Ho80 2.524 . S
O103 C83 1.289 . S
O104 Ho80 2.381 . S
O104 C90 1.275 . S
O105 Ho80 2.669 . S
O105 Ho81 2.305 . S
O105 C90 1.256 . S
O106 Ho81 2.322 . S
O106 C91 1.259 . S
O107 Ho80 2.346 . S
O107 C91 1.268 . S
O108 Ho81 2.378 . S
O108 C92 1.215 . S
O109 Ho81 2.524 . S
O109 C92 1.289 . S
O110 Ho81 2.381 . S
O110 C99 1.275 . S
O111 Ho80 2.305 . S
O111 Ho81 2.669 . S
O111 C99 1.256 . S
H112 C85 0.930 . S
H113 C86 0.931 . S
H114 C88 0.934 . S
H115 C89 0.930 . S
H116 C94 0.930 . S
H117 C95 0.931 . S
H118 C97 0.934 . S
H119 C98 0.930 . S
Ho120 C123 2.811 . S
Ho120 O140 2.322 . S
Ho120 O142 2.378 . S
Ho120 O143 2.524 . S
Ho120 O144 2.381 . S
Ho120 O145 2.669 . S
Ho120 O147 2.346 . S
Ho120 O151 2.305 . S
Ho121 C132 2.811 . S
Ho121 O141 2.346 . S
Ho121 O145 2.305 . S
Ho121 O146 2.322 . S
Ho121 O148 2.378 . S
Ho121 O149 2.524 . S
Ho121 O150 2.381 . S
Ho121 O151 2.669 . S
C122 O140 1.259 . S
C122 O141 1.268 . S
C123 Ho120 2.811 . S
C123 C124 1.488 1_556 S
C123 O142 1.215 . S
C123 O143 1.289 . S
C124 C123 1.488 1_554 S
C124 C125 1.348 . S
C124 C129 1.413 . S
C125 C124 1.348 . S
C125 C126 1.442 . S
C125 H152 0.930 . S
C126 C125 1.442 . S
C126 C127 1.381 . S
C126 H153 0.931 . S
C127 C126 1.381 . S
C127 C128 1.321 . S
C128 C127 1.321 . S
C128 C129 1.403 . S
C128 H154 0.934 . S
C129 C124 1.413 . S
C129 C128 1.403 . S
C129 H155 0.930 1_554 S
C130 O144 1.275 . S
C130 O145 1.256 . S
C131 O146 1.259 . S
C131 O147 1.268 . S
C132 Ho121 2.811 . S
C132 C133 1.488 . S
C132 O148 1.215 . S
C132 O149 1.289 . S
C133 C132 1.488 . S
C133 C134 1.348 . S
C133 C138 1.413 . S
C134 C133 1.348 . S
C134 C135 1.442 . S
C134 H156 0.930 . S
C135 C134 1.442 . S
C135 C136 1.381 . S
C135 H157 0.931 . S
C136 C135 1.381 . S
C136 C137 1.321 . S
C137 C136 1.321 . S
C137 C138 1.403 . S
C137 H158 0.934 . S
C138 C133 1.413 . S
C138 C137 1.403 . S
C138 H159 0.930 . S
C139 O150 1.275 . S
C139 O151 1.256 . S
O140 Ho120 2.322 . S
O140 C122 1.259 . S
O141 Ho121 2.346 . S
O141 C122 1.268 . S
O142 Ho120 2.378 . S
O142 C123 1.215 . S
O143 Ho120 2.524 . S
O143 C123 1.289 . S
O144 Ho120 2.381 . S
O144 C130 1.275 . S
O145 Ho120 2.669 . S
O145 Ho121 2.305 . S
O145 C130 1.256 . S
O146 Ho121 2.322 . S
O146 C131 1.259 . S
O147 Ho120 2.346 . S
O147 C131 1.268 . S
O148 Ho121 2.378 . S
O148 C132 1.215 . S
O149 Ho121 2.524 . S
O149 C132 1.289 . S
O150 Ho121 2.381 . S
O150 C139 1.275 . S
O151 Ho120 2.305 . S
O151 Ho121 2.669 . S
O151 C139 1.256 . S
H152 C125 0.930 . S
H153 C126 0.931 . S
H154 C128 0.934 . S
H155 C129 0.930 1_556 S
H156 C134 0.930 . S
H157 C135 0.931 . S
H158 C137 0.934 . S
H159 C138 0.930 . S
Ho160 C163 2.811 1_556 S
Ho160 O180 2.322 . S
Ho160 O182 2.378 . S
Ho160 O183 2.524 1_556 S
Ho160 O184 2.381 . S
Ho160 O185 2.669 . S
Ho160 O187 2.346 . S
Ho160 O191 2.305 . S
Ho161 C172 2.811 . S
Ho161 O181 2.346 . S
Ho161 O185 2.305 1_655 S
Ho161 O186 2.322 1_655 S
Ho161 O188 2.378 . S
Ho161 O189 2.524 . S
Ho161 O190 2.381 . S
Ho161 O191 2.669 1_655 S
C162 O180 1.259 1_655 S
C162 O181 1.268 . S
C163 Ho160 2.811 1_554 S
C163 C164 1.488 . S
C163 O182 1.215 1_554 S
C163 O183 1.289 . S
C164 C163 1.488 . S
C164 C165 1.348 . S
C164 C169 1.413 . S
C165 C164 1.348 . S
C165 C166 1.442 . S
C165 H192 0.930 . S
C166 C165 1.442 . S
C166 C167 1.381 . S
C166 H193 0.931 . S
C167 C166 1.381 . S
C167 C168 1.321 . S
C168 C167 1.321 . S
C168 C169 1.403 . S
C168 H194 0.934 . S
C169 C164 1.413 . S
C169 C168 1.403 . S
C169 H195 0.930 . S
C170 O184 1.275 . S
C170 O185 1.256 . S
C171 O186 1.259 . S
C171 O187 1.268 . S
C172 Ho161 2.811 . S
C172 C173 1.488 . S
C172 O188 1.215 . S
C172 O189 1.289 . S
C173 C172 1.488 . S
C173 C174 1.348 . S
C173 C178 1.413 . S
C174 C173 1.348 . S
C174 C175 1.442 . S
C174 H196 0.930 . S
C175 C174 1.442 . S
C175 C176 1.381 . S
C175 H197 0.931 . S
C176 C175 1.381 . S
C176 C177 1.321 . S
C177 C176 1.321 . S
C177 C178 1.403 . S
C177 H198 0.934 . S
C178 C173 1.413 . S
C178 C177 1.403 . S
C178 H199 0.930 . S
C179 O190 1.275 1_455 S
C179 O191 1.256 . S
O180 Ho160 2.322 . S
O180 C162 1.259 1_455 S
O181 Ho161 2.346 . S
O181 C162 1.268 . S
O182 Ho160 2.378 . S
O182 C163 1.215 1_556 S
O183 Ho160 2.524 1_554 S
O183 C163 1.289 . S
O184 Ho160 2.381 . S
O184 C170 1.275 . S
O185 Ho160 2.669 . S
O185 Ho161 2.305 1_455 S
O185 C170 1.256 . S
O186 Ho161 2.322 1_455 S
O186 C171 1.259 . S
O187 Ho160 2.346 . S
O187 C171 1.268 . S
O188 Ho161 2.378 . S
O188 C172 1.215 . S
O189 Ho161 2.524 . S
O189 C172 1.289 . S
O190 Ho161 2.381 . S
O190 C179 1.275 1_655 S
O191 Ho160 2.305 . S
O191 Ho161 2.669 1_455 S
O191 C179 1.256 . S
H192 C165 0.930 . S
H193 C166 0.931 . S
H194 C168 0.934 . S
H195 C169 0.930 . S
H196 C174 0.930 . S
H197 C175 0.931 . S
H198 C177 0.934 . S
H199 C178 0.930 . S
Ho200 C203 2.811 . S
Ho200 O220 2.322 . S
Ho200 O222 2.378 . S
Ho200 O223 2.524 . S
Ho200 O224 2.381 . S
Ho200 O225 2.669 . S
Ho200 O227 2.346 . S
Ho200 O231 2.305 . S
Ho201 C212 2.811 . S
Ho201 O221 2.346 . S
Ho201 O225 2.305 . S
Ho201 O226 2.322 . S
Ho201 O228 2.378 . S
Ho201 O229 2.524 . S
Ho201 O230 2.381 . S
Ho201 O231 2.669 . S
C202 O220 1.259 . S
C202 O221 1.268 . S
C203 Ho200 2.811 . S
C203 C204 1.488 . S
C203 O222 1.215 . S
C203 O223 1.289 . S
C204 C203 1.488 . S
C204 C205 1.348 . S
C204 C209 1.413 . S
C205 C204 1.348 . S
C205 C206 1.442 . S
C205 H232 0.930 . S
C206 C205 1.442 . S
C206 C207 1.381 . S
C206 H233 0.931 . S
C207 C206 1.381 . S
C207 C208 1.321 . S
C208 C207 1.321 . S
C208 C209 1.403 . S
C208 H234 0.934 . S
C209 C204 1.413 . S
C209 C208 1.403 . S
C209 H235 0.930 . S
C210 O224 1.275 . S
C210 O225 1.256 . S
C211 O226 1.259 . S
C211 O227 1.268 . S
C212 Ho201 2.811 . S
C212 C213 1.488 . S
C212 O228 1.215 . S
C212 O229 1.289 . S
C213 C212 1.488 . S
C213 C214 1.348 1_554 S
C213 C218 1.413 . S
C214 C213 1.348 1_556 S
C214 C215 1.442 . S
C214 H236 0.930 1_556 S
C215 C214 1.442 . S
C215 C216 1.381 . S
C215 H237 0.931 . S
C216 C215 1.381 . S
C216 C217 1.321 . S
C217 C216 1.321 . S
C217 C218 1.403 1_556 S
C217 H238 0.934 . S
C218 C213 1.413 . S
C218 C217 1.403 1_554 S
C218 H239 0.930 . S
C219 O230 1.275 . S
C219 O231 1.256 . S
O220 Ho200 2.322 . S
O220 C202 1.259 . S
O221 Ho201 2.346 . S
O221 C202 1.268 . S
O222 Ho200 2.378 . S
O222 C203 1.215 . S
O223 Ho200 2.524 . S
O223 C203 1.289 . S
O224 Ho200 2.381 . S
O224 C210 1.275 . S
O225 Ho200 2.669 . S
O225 Ho201 2.305 . S
O225 C210 1.256 . S
O226 Ho201 2.322 . S
O226 C211 1.259 . S
O227 Ho200 2.346 . S
O227 C211 1.268 . S
O228 Ho201 2.378 . S
O228 C212 1.215 . S
O229 Ho201 2.524 . S
O229 C212 1.289 . S
O230 Ho201 2.381 . S
O230 C219 1.275 . S
O231 Ho200 2.305 . S
O231 Ho201 2.669 . S
O231 C219 1.256 . S
H232 C205 0.930 . S
H233 C206 0.931 . S
H234 C208 0.934 . S
H235 C209 0.930 . S
H236 C214 0.930 1_554 S
H237 C215 0.931 . S
H238 C217 0.934 . S
H239 C218 0.930 . S
Ho240 C243 2.811 . S
Ho240 O260 2.322 . S
Ho240 O262 2.378 . S
Ho240 O263 2.524 . S
Ho240 O264 2.381 . S
Ho240 O265 2.669 . S
Ho240 O267 2.346 . S
Ho240 O271 2.305 . S
Ho241 C252 2.811 . S
Ho241 O261 2.346 . S
Ho241 O265 2.305 . S
Ho241 O266 2.322 . S
Ho241 O268 2.378 . S
Ho241 O269 2.524 . S
Ho241 O270 2.381 . S
Ho241 O271 2.669 . S
C242 O260 1.259 . S
C242 O261 1.268 . S
C243 Ho240 2.811 . S
C243 C244 1.488 . S
C243 O262 1.215 . S
C243 O263 1.289 . S
C244 C243 1.488 . S
C244 C245 1.348 . S
C244 C249 1.413 . S
C245 C244 1.348 . S
C245 C246 1.442 . S
C245 H272 0.930 . S
C246 C245 1.442 . S
C246 C247 1.381 . S
C246 H273 0.931 . S
C247 C246 1.381 . S
C247 C248 1.321 . S
C248 C247 1.321 . S
C248 C249 1.403 . S
C248 H274 0.934 . S
C249 C244 1.413 . S
C249 C248 1.403 . S
C249 H275 0.930 . S
C250 O264 1.275 . S
C250 O265 1.256 . S
C251 O266 1.259 . S
C251 O267 1.268 . S
C252 Ho241 2.811 . S
C252 C253 1.488 . S
C252 O268 1.215 . S
C252 O269 1.289 . S
C253 C252 1.488 . S
C253 C254 1.348 . S
C253 C258 1.413 . S
C254 C253 1.348 . S
C254 C255 1.442 . S
C254 H276 0.930 . S
C255 C254 1.442 . S
C255 C256 1.381 . S
C255 H277 0.931 . S
C256 C255 1.381 . S
C256 C257 1.321 . S
C257 C256 1.321 . S
C257 C258 1.403 . S
C257 H278 0.934 . S
C258 C253 1.413 . S
C258 C257 1.403 . S
C258 H279 0.930 . S
C259 O270 1.275 . S
C259 O271 1.256 . S
O260 Ho240 2.322 . S
O260 C242 1.259 . S
O261 Ho241 2.346 . S
O261 C242 1.268 . S
O262 Ho240 2.378 . S
O262 C243 1.215 . S
O263 Ho240 2.524 . S
O263 C243 1.289 . S
O264 Ho240 2.381 . S
O264 C250 1.275 . S
O265 Ho240 2.669 . S
O265 Ho241 2.305 . S
O265 C250 1.256 . S
O266 Ho241 2.322 . S
O266 C251 1.259 . S
O267 Ho240 2.346 . S
O267 C251 1.268 . S
O268 Ho241 2.378 . S
O268 C252 1.215 . S
O269 Ho241 2.524 . S
O269 C252 1.289 . S
O270 Ho241 2.381 . S
O270 C259 1.275 . S
O271 Ho240 2.305 . S
O271 Ho241 2.669 . S
O271 C259 1.256 . S
H272 C245 0.930 . S
H273 C246 0.931 . S
H274 C248 0.934 . S
H275 C249 0.930 . S
H276 C254 0.930 . S
H277 C255 0.931 . S
H278 C257 0.934 . S
H279 C258 0.930 . S
Ho280 C283 2.811 . S
Ho280 O300 2.322 . S
Ho280 O302 2.378 . S
Ho280 O303 2.524 . S
Ho280 O304 2.381 . S
Ho280 O305 2.669 . S
Ho280 O307 2.346 . S
Ho280 O311 2.305 . S
Ho281 C292 2.811 . S
Ho281 O301 2.346 . S
Ho281 O305 2.305 . S
Ho281 O306 2.322 . S
Ho281 O308 2.378 . S
Ho281 O309 2.524 . S
Ho281 O310 2.381 . S
Ho281 O311 2.669 . S
C282 O300 1.259 . S
C282 O301 1.268 . S
C283 Ho280 2.811 . S
C283 C284 1.488 . S
C283 O302 1.215 . S
C283 O303 1.289 . S
C284 C283 1.488 . S
C284 C285 1.348 . S
C284 C289 1.413 . S
C285 C284 1.348 . S
C285 C286 1.442 . S
C285 H312 0.930 . S
C286 C285 1.442 . S
C286 C287 1.381 . S
C286 H313 0.931 . S
C287 C286 1.381 . S
C287 C288 1.321 . S
C288 C287 1.321 . S
C288 C289 1.403 . S
C288 H314 0.934 . S
C289 C284 1.413 . S
C289 C288 1.403 . S
C289 H315 0.930 . S
C290 O304 1.275 . S
C290 O305 1.256 . S
C291 O306 1.259 . S
C291 O307 1.268 . S
C292 Ho281 2.811 . S
C292 C293 1.488 . S
C292 O308 1.215 . S
C292 O309 1.289 . S
C293 C292 1.488 . S
C293 C294 1.348 . S
C293 C298 1.413 . S
C294 C293 1.348 . S
C294 C295 1.442 . S
C294 H316 0.930 . S
C295 C294 1.442 . S
C295 C296 1.381 . S
C295 H317 0.931 . S
C296 C295 1.381 . S
C296 C297 1.321 . S
C297 C296 1.321 . S
C297 C298 1.403 . S
C297 H318 0.934 . S
C298 C293 1.413 . S
C298 C297 1.403 . S
C298 H319 0.930 . S
C299 O310 1.275 . S
C299 O311 1.256 . S
O300 Ho280 2.322 . S
O300 C282 1.259 . S
O301 Ho281 2.346 . S
O301 C282 1.268 . S
O302 Ho280 2.378 . S
O302 C283 1.215 . S
O303 Ho280 2.524 . S
O303 C283 1.289 . S
O304 Ho280 2.381 . S
O304 C290 1.275 . S
O305 Ho280 2.669 . S
O305 Ho281 2.305 . S
O305 C290 1.256 . S
O306 Ho281 2.322 . S
O306 C291 1.259 . S
O307 Ho280 2.346 . S
O307 C291 1.268 . S
O308 Ho281 2.378 . S
O308 C292 1.215 . S
O309 Ho281 2.524 . S
O309 C292 1.289 . S
O310 Ho281 2.381 . S
O310 C299 1.275 . S
O311 Ho280 2.305 . S
O311 Ho281 2.669 . S
O311 C299 1.256 . S
H312 C285 0.930 . S
H313 C286 0.931 . S
H314 C288 0.934 . S
H315 C289 0.930 . S
H316 C294 0.930 . S
H317 C295 0.931 . S
H318 C297 0.934 . S
H319 C298 0.930 . S
Ho320 C323 2.811 . S
Ho320 O340 2.322 . S
Ho320 O342 2.378 . S
Ho320 O343 2.524 . S
Ho320 O344 2.381 . S
Ho320 O345 2.669 . S
Ho320 O347 2.346 . S
Ho320 O351 2.305 . S
Ho321 C332 2.811 . S
Ho321 O341 2.346 . S
Ho321 O345 2.305 . S
Ho321 O346 2.322 . S
Ho321 O348 2.378 . S
Ho321 O349 2.524 . S
Ho321 O350 2.381 . S
Ho321 O351 2.669 . S
C322 O340 1.259 . S
C322 O341 1.268 . S
C323 Ho320 2.811 . S
C323 C324 1.488 . S
C323 O342 1.215 . S
C323 O343 1.289 . S
C324 C323 1.488 . S
C324 C325 1.348 . S
C324 C329 1.413 . S
C325 C324 1.348 . S
C325 C326 1.442 . S
C325 H352 0.930 . S
C326 C325 1.442 . S
C326 C327 1.381 . S
C326 H353 0.931 . S
C327 C326 1.381 . S
C327 C328 1.321 . S
C328 C327 1.321 . S
C328 C329 1.403 . S
C328 H354 0.934 . S
C329 C324 1.413 . S
C329 C328 1.403 . S
C329 H355 0.930 . S
C330 O344 1.275 . S
C330 O345 1.256 . S
C331 O346 1.259 . S
C331 O347 1.268 . S
C332 Ho321 2.811 . S
C332 C333 1.488 . S
C332 O348 1.215 . S
C332 O349 1.289 . S
C333 C332 1.488 . S
C333 C334 1.348 . S
C333 C338 1.413 . S
C334 C333 1.348 . S
C334 C335 1.442 . S
C334 H356 0.930 . S
C335 C334 1.442 . S
C335 C336 1.381 . S
C335 H357 0.931 . S
C336 C335 1.381 . S
C336 C337 1.321 . S
C337 C336 1.321 . S
C337 C338 1.403 . S
C337 H358 0.934 . S
C338 C333 1.413 . S
C338 C337 1.403 . S
C338 H359 0.930 . S
C339 O350 1.275 . S
C339 O351 1.256 . S
O340 Ho320 2.322 . S
O340 C322 1.259 . S
O341 Ho321 2.346 . S
O341 C322 1.268 . S
O342 Ho320 2.378 . S
O342 C323 1.215 . S
O343 Ho320 2.524 . S
O343 C323 1.289 . S
O344 Ho320 2.381 . S
O344 C330 1.275 . S
O345 Ho320 2.669 . S
O345 Ho321 2.305 . S
O345 C330 1.256 . S
O346 Ho321 2.322 . S
O346 C331 1.259 . S
O347 Ho320 2.346 . S
O347 C331 1.268 . S
O348 Ho321 2.378 . S
O348 C332 1.215 . S
O349 Ho321 2.524 . S
O349 C332 1.289 . S
O350 Ho321 2.381 . S
O350 C339 1.275 . S
O351 Ho320 2.305 . S
O351 Ho321 2.669 . S
O351 C339 1.256 . S
H352 C325 0.930 . S
H353 C326 0.931 . S
H354 C328 0.934 . S
H355 C329 0.930 . S
H356 C334 0.930 . S
H357 C335 0.931 . S
H358 C337 0.934 . S
H359 C338 0.930 . S
Ho360 C363 2.811 . S
Ho360 O380 2.322 . S
Ho360 O382 2.378 . S
Ho360 O383 2.524 . S
Ho360 O384 2.381 . S
Ho360 O385 2.669 . S
Ho360 O387 2.346 . S
Ho360 O391 2.305 . S
Ho361 C372 2.811 1_554 S
Ho361 O381 2.346 . S
Ho361 O385 2.305 . S
Ho361 O386 2.322 . S
Ho361 O388 2.378 1_554 S
Ho361 O389 2.524 1_554 S
Ho361 O390 2.381 . S
Ho361 O391 2.669 . S
C362 O380 1.259 . S
C362 O381 1.268 . S
C363 Ho360 2.811 . S
C363 C364 1.488 . S
C363 O382 1.215 . S
C363 O383 1.289 . S
C364 C363 1.488 . S
C364 C365 1.348 . S
C364 C369 1.413 . S
C365 C364 1.348 . S
C365 C366 1.442 . S
C365 H392 0.930 . S
C366 C365 1.442 . S
C366 C367 1.381 . S
C366 H393 0.931 . S
C367 C366 1.381 . S
C367 C368 1.321 . S
C368 C367 1.321 . S
C368 C369 1.403 . S
C368 H394 0.934 . S
C369 C364 1.413 . S
C369 C368 1.403 . S
C369 H395 0.930 . S
C370 O384 1.275 . S
C370 O385 1.256 . S
C371 O386 1.259 . S
C371 O387 1.268 . S
C372 Ho361 2.811 1_556 S
C372 C373 1.488 . S
C372 O388 1.215 . S
C372 O389 1.289 . S
C373 C372 1.488 . S
C373 C374 1.348 . S
C373 C378 1.413 . S
C374 C373 1.348 . S
C374 C375 1.442 . S
C374 H396 0.930 . S
C375 C374 1.442 . S
C375 C376 1.381 . S
C375 H397 0.931 . S
C376 C375 1.381 . S
C376 C377 1.321 . S
C377 C376 1.321 . S
C377 C378 1.403 . S
C377 H398 0.934 . S
C378 C373 1.413 . S
C378 C377 1.403 . S
C378 H399 0.930 . S
C379 O390 1.275 . S
C379 O391 1.256 . S
O380 Ho360 2.322 . S
O380 C362 1.259 . S
O381 Ho361 2.346 . S
O381 C362 1.268 . S
O382 Ho360 2.378 . S
O382 C363 1.215 . S
O383 Ho360 2.524 . S
O383 C363 1.289 . S
O384 Ho360 2.381 . S
O384 C370 1.275 . S
O385 Ho360 2.669 . S
O385 Ho361 2.305 . S
O385 C370 1.256 . S
O386 Ho361 2.322 . S
O386 C371 1.259 . S
O387 Ho360 2.346 . S
O387 C371 1.268 . S
O388 Ho361 2.378 1_556 S
O388 C372 1.215 . S
O389 Ho361 2.524 1_556 S
O389 C372 1.289 . S
O390 Ho361 2.381 . S
O390 C379 1.275 . S
O391 Ho360 2.305 . S
O391 Ho361 2.669 . S
O391 C379 1.256 . S
H392 C365 0.930 . S
H393 C366 0.931 . S
H394 C368 0.934 . S
H395 C369 0.930 . S
H396 C374 0.930 . S
H397 C375 0.931 . S
H398 C377 0.934 . S
H399 C378 0.930 . S
Ho400 C403 2.811 1_556 S
Ho400 O420 2.322 . S
Ho400 O422 2.378 . S
Ho400 O423 2.524 . S
Ho400 O424 2.381 . S
Ho400 O425 2.669 . S
Ho400 O427 2.346 . S
Ho400 O431 2.305 . S
Ho401 C412 2.811 . S
Ho401 O421 2.346 . S
Ho401 O425 2.305 . S
Ho401 O426 2.322 . S
Ho401 O428 2.378 . S
Ho401 O429 2.524 . S
Ho401 O430 2.381 . S
Ho401 O431 2.669 . S
C402 O420 1.259 . S
C402 O421 1.268 . S
C403 Ho400 2.811 1_554 S
C403 C404 1.488 . S
C403 O422 1.215 1_554 S
C403 O423 1.289 1_554 S
C404 C403 1.488 . S
C404 C405 1.348 . S
C404 C409 1.413 . S
C405 C404 1.348 . S
C405 C406 1.442 . S
C405 H432 0.930 . S
C406 C405 1.442 . S
C406 C407 1.381 . S
C406 H433 0.931 . S
C407 C406 1.381 . S
C407 C408 1.321 . S
C408 C407 1.321 . S
C408 C409 1.403 . S
C408 H434 0.934 . S
C409 C404 1.413 . S
C409 C408 1.403 . S
C409 H435 0.930 . S
C410 O424 1.275 . S
C410 O425 1.256 . S
C411 O426 1.259 . S
C411 O427 1.268 . S
C412 Ho401 2.811 . S
C412 C413 1.488 . S
C412 O428 1.215 . S
C412 O429 1.289 . S
C413 C412 1.488 . S
C413 C414 1.348 . S
C413 C418 1.413 . S
C414 C413 1.348 . S
C414 C415 1.442 . S
C414 H436 0.930 . S
C415 C414 1.442 . S
C415 C416 1.381 . S
C415 H437 0.931 . S
C416 C415 1.381 . S
C416 C417 1.321 . S
C417 C416 1.321 . S
C417 C418 1.403 . S
C417 H438 0.934 . S
C418 C413 1.413 . S
C418 C417 1.403 . S
C418 H439 0.930 . S
C419 O430 1.275 . S
C419 O431 1.256 . S
O420 Ho400 2.322 . S
O420 C402 1.259 . S
O421 Ho401 2.346 . S
O421 C402 1.268 . S
O422 Ho400 2.378 . S
O422 C403 1.215 1_556 S
O423 Ho400 2.524 . S
O423 C403 1.289 1_556 S
O424 Ho400 2.381 . S
O424 C410 1.275 . S
O425 Ho400 2.669 . S
O425 Ho401 2.305 . S
O425 C410 1.256 . S
O426 Ho401 2.322 . S
O426 C411 1.259 . S
O427 Ho400 2.346 . S
O427 C411 1.268 . S
O428 Ho401 2.378 . S
O428 C412 1.215 . S
O429 Ho401 2.524 . S
O429 C412 1.289 . S
O430 Ho401 2.381 . S
O430 C419 1.275 . S
O431 Ho400 2.305 . S
O431 Ho401 2.669 . S
O431 C419 1.256 . S
H432 C405 0.930 . S
H433 C406 0.931 . S
H434 C408 0.934 . S
H435 C409 0.930 . S
H436 C414 0.930 . S
H437 C415 0.931 . S
H438 C417 0.934 . S
H439 C418 0.930 . S
Ho440 C443 2.811 . S
Ho440 O460 2.322 . S
Ho440 O462 2.378 . S
Ho440 O463 2.524 . S
Ho440 O464 2.381 . S
Ho440 O465 2.669 . S
Ho440 O467 2.346 . S
Ho440 O471 2.305 . S
Ho441 C452 2.811 . S
Ho441 O461 2.346 . S
Ho441 O465 2.305 . S
Ho441 O466 2.322 . S
Ho441 O468 2.378 . S
Ho441 O469 2.524 . S
Ho441 O470 2.381 . S
Ho441 O471 2.669 . S
C442 O460 1.259 . S
C442 O461 1.268 . S
C443 Ho440 2.811 . S
C443 C444 1.488 . S
C443 O462 1.215 . S
C443 O463 1.289 . S
C444 C443 1.488 . S
C444 C445 1.348 . S
C444 C449 1.413 . S
C445 C444 1.348 . S
C445 C446 1.442 . S
C445 H472 0.930 . S
C446 C445 1.442 . S
C446 C447 1.381 . S
C446 H473 0.931 . S
C447 C446 1.381 . S
C447 C448 1.321 . S
C448 C447 1.321 . S
C448 C449 1.403 . S
C448 H474 0.934 . S
C449 C444 1.413 . S
C449 C448 1.403 . S
C449 H475 0.930 . S
C450 O464 1.275 . S
C450 O465 1.256 . S
C451 O466 1.259 . S
C451 O467 1.268 . S
C452 Ho441 2.811 . S
C452 C453 1.488 . S
C452 O468 1.215 . S
C452 O469 1.289 . S
C453 C452 1.488 . S
C453 C454 1.348 . S
C453 C458 1.413 . S
C454 C453 1.348 . S
C454 C455 1.442 . S
C454 H476 0.930 . S
C455 C454 1.442 . S
C455 C456 1.381 . S
C455 H477 0.931 . S
C456 C455 1.381 . S
C456 C457 1.321 . S
C457 C456 1.321 . S
C457 C458 1.403 . S
C457 H478 0.934 . S
C458 C453 1.413 . S
C458 C457 1.403 . S
C458 H479 0.930 . S
C459 O470 1.275 . S
C459 O471 1.256 . S
O460 Ho440 2.322 . S
O460 C442 1.259 . S
O461 Ho441 2.346 . S
O461 C442 1.268 . S
O462 Ho440 2.378 . S
O462 C443 1.215 . S
O463 Ho440 2.524 . S
O463 C443 1.289 . S
O464 Ho440 2.381 . S
O464 C450 1.275 . S
O465 Ho440 2.669 . S
O465 Ho441 2.305 . S
O465 C450 1.256 . S
O466 Ho441 2.322 . S
O466 C451 1.259 . S
O467 Ho440 2.346 . S
O467 C451 1.268 . S
O468 Ho441 2.378 . S
O468 C452 1.215 . S
O469 Ho441 2.524 . S
O469 C452 1.289 . S
O470 Ho441 2.381 . S
O470 C459 1.275 . S
O471 Ho440 2.305 . S
O471 Ho441 2.669 . S
O471 C459 1.256 . S
H472 C445 0.930 . S
H473 C446 0.931 . S
H474 C448 0.934 . S
H475 C449 0.930 . S
H476 C454 0.930 . S
H477 C455 0.931 . S
H478 C457 0.934 . S
H479 C458 0.930 . S
Ho480 C483 2.811 . S
Ho480 O500 2.322 . S
Ho480 O502 2.378 . S
Ho480 O503 2.524 . S
Ho480 O504 2.381 . S
Ho480 O505 2.669 . S
Ho480 O507 2.346 . S
Ho480 O511 2.305 . S
Ho481 C492 2.811 . S
Ho481 O501 2.346 . S
Ho481 O505 2.305 . S
Ho481 O506 2.322 . S
Ho481 O508 2.378 . S
Ho481 O509 2.524 . S
Ho481 O510 2.381 . S
Ho481 O511 2.669 . S
C482 O500 1.259 . S
C482 O501 1.268 . S
C483 Ho480 2.811 . S
C483 C484 1.488 . S
C483 O502 1.215 . S
C483 O503 1.289 . S
C484 C483 1.488 . S
C484 C485 1.348 . S
C484 C489 1.413 . S
C485 C484 1.348 . S
C485 C486 1.442 . S
C485 H512 0.930 . S
C486 C485 1.442 . S
C486 C487 1.381 . S
C486 H513 0.931 . S
C487 C486 1.381 . S
C487 C488 1.321 . S
C488 C487 1.321 . S
C488 C489 1.403 . S
C488 H514 0.934 . S
C489 C484 1.413 . S
C489 C488 1.403 . S
C489 H515 0.930 . S
C490 O504 1.275 . S
C490 O505 1.256 . S
C491 O506 1.259 . S
C491 O507 1.268 . S
C492 Ho481 2.811 . S
C492 C493 1.488 . S
C492 O508 1.215 . S
C492 O509 1.289 . S
C493 C492 1.488 . S
C493 C494 1.348 . S
C493 C498 1.413 . S
C494 C493 1.348 . S
C494 C495 1.442 . S
C494 H516 0.930 . S
C495 C494 1.442 . S
C495 C496 1.381 . S
C495 H517 0.931 . S
C496 C495 1.381 . S
C496 C497 1.321 . S
C497 C496 1.321 . S
C497 C498 1.403 . S
C497 H518 0.934 . S
C498 C493 1.413 . S
C498 C497 1.403 . S
C498 H519 0.930 . S
C499 O510 1.275 . S
C499 O511 1.256 . S
O500 Ho480 2.322 . S
O500 C482 1.259 . S
O501 Ho481 2.346 . S
O501 C482 1.268 . S
O502 Ho480 2.378 . S
O502 C483 1.215 . S
O503 Ho480 2.524 . S
O503 C483 1.289 . S
O504 Ho480 2.381 . S
O504 C490 1.275 . S
O505 Ho480 2.669 . S
O505 Ho481 2.305 . S
O505 C490 1.256 . S
O506 Ho481 2.322 . S
O506 C491 1.259 . S
O507 Ho480 2.346 . S
O507 C491 1.268 . S
O508 Ho481 2.378 . S
O508 C492 1.215 . S
O509 Ho481 2.524 . S
O509 C492 1.289 . S
O510 Ho481 2.381 . S
O510 C499 1.275 . S
O511 Ho480 2.305 . S
O511 Ho481 2.669 . S
O511 C499 1.256 . S
H512 C485 0.930 . S
H513 C486 0.931 . S
H514 C488 0.934 . S
H515 C489 0.930 . S
H516 C494 0.930 . S
H517 C495 0.931 . S
H518 C497 0.934 . S
H519 C498 0.930 . S
Ho520 C523 2.811 . S
Ho520 O540 2.322 1_655 S
Ho520 O542 2.378 . S
Ho520 O543 2.524 . S
Ho520 O544 2.381 . S
Ho520 O545 2.669 1_655 S
Ho520 O547 2.346 . S
Ho520 O551 2.305 1_655 S
Ho521 C532 2.825 . S
Ho521 O541 2.346 . S
Ho521 O545 2.305 . S
Ho521 O546 2.322 . S
Ho521 O548 2.378 . S
Ho521 O549 2.524 . S
Ho521 O550 2.381 . S
Ho521 O551 2.669 . S
C522 O540 1.259 . S
C522 O541 1.268 . S
C523 Ho520 2.811 . S
C523 C524 1.488 . S
C523 O542 1.215 . S
C523 O543 1.289 . S
C524 C523 1.488 . S
C524 C525 1.348 . S
C524 C529 1.413 . S
C525 C524 1.348 . S
C525 C526 1.442 . S
C525 H552 0.930 . S
C526 C525 1.442 . S
C526 C527 1.381 . S
C526 H553 0.931 . S
C527 C526 1.381 . S
C527 C528 1.321 . S
C528 C527 1.321 . S
C528 C529 1.403 . S
C528 H554 0.934 . S
C529 C524 1.413 . S
C529 C528 1.403 . S
C529 H555 0.930 . S
C530 O544 1.275 1_455 S
C530 O545 1.256 . S
C531 O546 1.259 1_655 S
C531 O547 1.268 . S
C532 Ho521 2.825 . S
C532 C533 1.474 1_554 S
C532 O548 1.225 . S
C532 O549 1.294 . S
C533 C532 1.474 1_556 S
C533 C534 1.348 . S
C533 C538 1.413 . S
C534 C533 1.348 . S
C534 C535 1.442 . S
C534 H556 0.930 . S
C535 C534 1.442 . S
C535 C536 1.381 . S
C535 H557 0.931 . S
C536 C535 1.381 . S
C536 C537 1.321 . S
C537 C536 1.321 . S
C537 C538 1.403 . S
C537 H558 0.934 . S
C538 C533 1.413 . S
C538 C537 1.403 . S
C538 H559 0.930 . S
C539 O550 1.275 . S
C539 O551 1.256 . S
O540 Ho520 2.322 1_455 S
O540 C522 1.259 . S
O541 Ho521 2.346 . S
O541 C522 1.268 . S
O542 Ho520 2.378 . S
O542 C523 1.215 . S
O543 Ho520 2.524 . S
O543 C523 1.289 . S
O544 Ho520 2.381 . S
O544 C530 1.275 1_655 S
O545 Ho520 2.669 1_455 S
O545 Ho521 2.305 . S
O545 C530 1.256 . S
O546 Ho521 2.322 . S
O546 C531 1.259 1_455 S
O547 Ho520 2.346 . S
O547 C531 1.268 . S
O548 Ho521 2.378 . S
O548 C532 1.225 . S
O549 Ho521 2.524 . S
O549 C532 1.294 . S
O550 Ho521 2.381 . S
O550 C539 1.275 . S
O551 Ho520 2.305 1_455 S
O551 Ho521 2.669 . S
O551 C539 1.256 . S
H552 C525 0.930 . S
H553 C526 0.931 . S
H554 C528 0.934 . S
H555 C529 0.930 . S
H556 C534 0.930 . S
H557 C535 0.931 . S
H558 C537 0.934 . S
H559 C538 0.930 . S
Ho560 C563 2.811 . S
Ho560 O580 2.322 . S
Ho560 O582 2.378 . S
Ho560 O583 2.524 . S
Ho560 O584 2.381 . S
Ho560 O585 2.669 . S
Ho560 O587 2.346 . S
Ho560 O591 2.305 . S
Ho561 C572 2.811 . S
Ho561 O581 2.346 . S
Ho561 O585 2.305 . S
Ho561 O586 2.322 . S
Ho561 O588 2.378 . S
Ho561 O589 2.524 . S
Ho561 O590 2.381 . S
Ho561 O591 2.669 . S
C562 O580 1.259 . S
C562 O581 1.268 . S
C563 Ho560 2.811 . S
C563 C564 1.488 . S
C563 O582 1.215 . S
C563 O583 1.289 . S
C564 C563 1.488 . S
C564 C565 1.348 . S
C564 C569 1.413 . S
C565 C564 1.348 . S
C565 C566 1.442 . S
C565 H592 0.930 . S
C566 C565 1.442 . S
C566 C567 1.381 . S
C566 H593 0.931 . S
C567 C566 1.381 . S
C567 C568 1.321 . S
C568 C567 1.321 . S
C568 C569 1.403 . S
C568 H594 0.934 . S
C569 C564 1.413 . S
C569 C568 1.403 . S
C569 H595 0.930 . S
C570 O584 1.275 . S
C570 O585 1.256 . S
C571 O586 1.259 . S
C571 O587 1.268 . S
C572 Ho561 2.811 . S
C572 C573 1.488 . S
C572 O588 1.215 . S
C572 O589 1.289 . S
C573 C572 1.488 . S
C573 C574 1.348 . S
C573 C578 1.413 . S
C574 C573 1.348 . S
C574 C575 1.442 . S
C574 H596 0.930 . S
C575 C574 1.442 . S
C575 C576 1.381 . S
C575 H597 0.931 . S
C576 C575 1.381 . S
C576 C577 1.321 . S
C577 C576 1.321 . S
C577 C578 1.403 . S
C577 H598 0.934 . S
C578 C573 1.413 . S
C578 C577 1.403 . S
C578 H599 0.930 . S
C579 O590 1.275 . S
C579 O591 1.256 . S
O580 Ho560 2.322 . S
O580 C562 1.259 . S
O581 Ho561 2.346 . S
O581 C562 1.268 . S
O582 Ho560 2.378 . S
O582 C563 1.215 . S
O583 Ho560 2.524 . S
O583 C563 1.289 . S
O584 Ho560 2.381 . S
O584 C570 1.275 . S
O585 Ho560 2.669 . S
O585 Ho561 2.305 . S
O585 C570 1.256 . S
O586 Ho561 2.322 . S
O586 C571 1.259 . S
O587 Ho560 2.346 . S
O587 C571 1.268 . S
O588 Ho561 2.378 . S
O588 C572 1.215 . S
O589 Ho561 2.524 . S
O589 C572 1.289 . S
O590 Ho561 2.381 . S
O590 C579 1.275 . S
O591 Ho560 2.305 . S
O591 Ho561 2.669 . S
O591 C579 1.256 . S
H592 C565 0.930 . S
H593 C566 0.931 . S
H594 C568 0.934 . S
H595 C569 0.930 . S
H596 C574 0.930 . S
H597 C575 0.931 . S
H598 C577 0.934 . S
H599 C578 0.930 . S
Ho600 C603 2.811 . S
Ho600 O620 2.322 1_655 S
Ho600 O622 2.378 . S
Ho600 O623 2.524 . S
Ho600 O624 2.381 . S
Ho600 O625 2.669 1_655 S
Ho600 O627 2.346 . S
Ho600 O631 2.305 1_655 S
Ho601 C612 2.811 . S
Ho601 O621 2.346 . S
Ho601 O625 2.305 . S
Ho601 O626 2.322 . S
Ho601 O628 2.378 . S
Ho601 O629 2.524 . S
Ho601 O630 2.381 . S
Ho601 O631 2.669 . S
C602 O620 1.259 . S
C602 O621 1.268 . S
C603 Ho600 2.811 . S
C603 C604 1.488 1_556 S
C603 O622 1.215 . S
C603 O623 1.289 . S
C604 C603 1.488 1_554 S
C604 C605 1.348 . S
C604 C609 1.413 . S
C605 C604 1.348 . S
C605 C606 1.442 . S
C605 H632 0.930 . S
C606 C605 1.442 . S
C606 C607 1.381 . S
C606 H633 0.931 . S
C607 C606 1.381 . S
C607 C608 1.321 . S
C608 C607 1.321 . S
C608 C609 1.403 . S
C608 H634 0.934 . S
C609 C604 1.413 . S
C609 C608 1.403 . S
C609 H635 0.930 . S
C610 O624 1.275 1_455 S
C610 O625 1.256 . S
C611 O626 1.259 1_655 S
C611 O627 1.268 . S
C612 Ho601 2.811 . S
C612 C613 1.488 . S
C612 O628 1.215 . S
C612 O629 1.289 . S
C613 C612 1.488 . S
C613 C614 1.348 . S
C613 C618 1.413 . S
C614 C613 1.348 . S
C614 C615 1.442 . S
C614 H636 0.930 . S
C615 C614 1.442 . S
C615 C616 1.381 . S
C615 H637 0.931 . S
C616 C615 1.381 . S
C616 C617 1.321 . S
C617 C616 1.321 . S
C617 C618 1.403 . S
C617 H638 0.934 . S
C618 C613 1.413 . S
C618 C617 1.403 . S
C618 H639 0.930 . S
C619 O630 1.275 . S
C619 O631 1.256 . S
O620 Ho600 2.322 1_455 S
O620 C602 1.259 . S
O621 Ho601 2.346 . S
O621 C602 1.268 . S
O622 Ho600 2.378 . S
O622 C603 1.215 . S
O623 Ho600 2.524 . S
O623 C603 1.289 . S
O624 Ho600 2.381 . S
O624 C610 1.275 1_655 S
O625 Ho600 2.669 1_455 S
O625 Ho601 2.305 . S
O625 C610 1.256 . S
O626 Ho601 2.322 . S
O626 C611 1.259 1_455 S
O627 Ho600 2.346 . S
O627 C611 1.268 . S
O628 Ho601 2.378 . S
O628 C612 1.215 . S
O629 Ho601 2.524 . S
O629 C612 1.289 . S
O630 Ho601 2.381 . S
O630 C619 1.275 . S
O631 Ho600 2.305 1_455 S
O631 Ho601 2.669 . S
O631 C619 1.256 . S
H632 C605 0.930 . S
H633 C606 0.931 . S
H634 C608 0.934 . S
H635 C609 0.930 . S
H636 C614 0.930 . S
H637 C615 0.931 . S
H638 C617 0.934 . S
H639 C618 0.930 . S
C640 C641 1.363 . S
C640 C646 1.379 . S
C640 N648 1.356 . S
C641 C640 1.363 . S
C641 C647 1.363 . S
C642 C643 1.363 . S
C642 C647 1.379 . S
C642 N649 1.356 . S
C643 C642 1.363 . S
C643 C646 1.363 . S
N644 C646 1.356 . S
N644 H656 0.984 . S
N644 H657 0.985 . S
N645 C647 1.356 . S
N645 H650 0.984 . S
N645 H651 0.985 . S
C646 C640 1.379 . S
C646 C643 1.363 . S
C646 N644 1.356 . S
C647 C641 1.363 . S
C647 C642 1.379 . S
C647 N645 1.356 . S
N648 C640 1.356 . S
N648 H654 0.984 . S
N648 H655 0.984 . S
N649 C642 1.356 . S
N649 H652 0.984 . S
N649 H653 0.985 . S
H650 N645 0.984 . S
H651 N645 0.985 . S
H652 N649 0.984 . S
H653 N649 0.985 . S
H654 N648 0.984 . S
H655 N648 0.984 . S
H656 N644 0.984 . S
H657 N644 0.985 . S
C658 C659 1.363 . S
C658 C664 1.379 . S
C658 N666 1.356 . S
C659 C658 1.363 . S
C659 C665 1.363 . S
C660 C661 1.363 . S
C660 C665 1.379 . S
C660 N667 1.356 . S
C661 C660 1.363 . S
C661 C664 1.363 . S
N662 C664 1.356 . S
N662 H674 0.984 . S
N662 H675 0.985 . S
N663 C665 1.356 . S
N663 H668 0.984 . S
N663 H669 0.985 . S
C664 C658 1.379 . S
C664 C661 1.363 . S
C664 N662 1.356 . S
C665 C659 1.363 . S
C665 C660 1.379 . S
C665 N663 1.356 . S
N666 C658 1.356 . S
N666 H672 0.984 . S
N666 H673 0.984 . S
N667 C660 1.356 . S
N667 H670 0.984 . S
N667 H671 0.985 . S
H668 N663 0.984 . S
H669 N663 0.985 . S
H670 N667 0.984 . S
H671 N667 0.985 . S
H672 N666 0.984 . S
H673 N666 0.984 . S
H674 N662 0.984 . S
H675 N662 0.985 . S
C676 C677 1.363 . S
C676 C682 1.379 . S
C676 N684 1.356 . S
C677 C676 1.363 . S
C677 C683 1.363 . S
C678 C679 1.363 . S
C678 C683 1.379 . S
C678 N685 1.356 . S
C679 C678 1.363 . S
C679 C682 1.363 . S
N680 C682 1.356 . S
N680 H692 0.984 . S
N680 H693 0.985 . S
N681 C683 1.356 . S
N681 H686 0.984 . S
N681 H687 0.985 . S
C682 C676 1.379 . S
C682 C679 1.363 . S
C682 N680 1.356 . S
C683 C677 1.363 . S
C683 C678 1.379 . S
C683 N681 1.356 . S
N684 C676 1.356 . S
N684 H690 0.984 . S
N684 H691 0.984 . S
N685 C678 1.356 . S
N685 H688 0.984 . S
N685 H689 0.985 . S
H686 N681 0.984 . S
H687 N681 0.985 . S
H688 N685 0.984 . S
H689 N685 0.985 . S
H690 N684 0.984 . S
H691 N684 0.984 . S
H692 N680 0.984 . S
H693 N680 0.985 . S
C694 C695 1.363 . S
C694 C700 1.379 . S
C694 N702 1.356 . S
C695 C694 1.363 . S
C695 C701 1.363 . S
C696 C697 1.363 . S
C696 C701 1.379 . S
C696 N703 1.356 . S
C697 C696 1.363 . S
C697 C700 1.363 . S
N698 C700 1.356 . S
N698 H710 0.984 . S
N698 H711 0.985 . S
N699 C701 1.356 . S
N699 H704 0.984 . S
N699 H705 0.985 . S
C700 C694 1.379 . S
C700 C697 1.363 . S
C700 N698 1.356 . S
C701 C695 1.363 . S
C701 C696 1.379 . S
C701 N699 1.356 . S
N702 C694 1.356 . S
N702 H708 0.984 . S
N702 H709 0.984 . S
N703 C696 1.356 . S
N703 H706 0.984 . S
N703 H707 0.985 . S
H704 N699 0.984 . S
H705 N699 0.985 . S
H706 N703 0.984 . S
H707 N703 0.985 . S
H708 N702 0.984 . S
H709 N702 0.984 . S
H710 N698 0.984 . S
H711 N698 0.985 . S
C712 C713 1.363 . S
C712 C718 1.397 . S
C712 N720 1.356 . S
C713 C712 1.363 . S
C713 C719 1.363 . S
C714 C715 1.363 1_554 S
C714 C719 1.379 . S
C714 N721 1.356 1_554 S
C715 C714 1.363 1_556 S
C715 C718 1.356 1_556 S
N716 C718 1.341 1_556 S
N716 H728 0.984 . S
N716 H729 0.985 . S
N717 C719 1.356 . S
N717 H722 0.984 . S
N717 H723 0.985 . S
C718 C712 1.397 . S
C718 C715 1.356 1_554 S
C718 N716 1.341 1_554 S
C719 C713 1.363 . S
C719 C714 1.379 . S
C719 N717 1.356 . S
N720 C712 1.356 . S
N720 H726 0.984 . S
N720 H727 0.984 . S
N721 C714 1.356 1_556 S
N721 H724 0.984 1_655 S
N721 H725 0.985 1_556 S
H722 N717 0.984 . S
H723 N717 0.985 . S
H724 N721 0.984 1_455 S
H725 N721 0.985 1_554 S
H726 N720 0.984 . S
H727 N720 0.984 . S
H728 N716 0.984 . S
H729 N716 0.985 . S
C730 C731 1.363 . S
C730 C736 1.379 . S
C730 N738 1.356 . S
C731 C730 1.363 . S
C731 C737 1.363 . S
C732 C733 1.363 . S
C732 C737 1.379 . S
C732 N739 1.356 . S
C733 C732 1.363 . S
C733 C736 1.363 . S
N734 C736 1.356 . S
N734 H746 0.984 . S
N734 H747 0.985 . S
N735 C737 1.356 . S
N735 H740 0.984 . S
N735 H741 0.985 . S
C736 C730 1.379 . S
C736 C733 1.363 . S
C736 N734 1.356 . S
C737 C731 1.363 . S
C737 C732 1.379 . S
C737 N735 1.356 . S
N738 C730 1.356 . S
N738 H744 0.984 . S
N738 H745 0.984 . S
N739 C732 1.356 . S
N739 H742 0.984 . S
N739 H743 0.985 1_655 S
H740 N735 0.984 . S
H741 N735 0.985 . S
H742 N739 0.984 . S
H743 N739 0.985 1_455 S
H744 N738 0.984 . S
H745 N738 0.984 . S
H746 N734 0.984 . S
H747 N734 0.985 . S
C748 C749 1.363 . S
C748 C754 1.379 . S
C748 N756 1.356 . S
C749 C748 1.363 . S
C749 C755 1.363 . S
C750 C751 1.363 . S
C750 C755 1.379 . S
C750 N757 1.356 . S
C751 C750 1.363 . S
C751 C754 1.363 . S
N752 C754 1.356 . S
N752 H764 0.984 . S
N752 H765 0.985 . S
N753 C755 1.356 . S
N753 H758 0.984 . S
N753 H759 0.985 . S
C754 C748 1.379 . S
C754 C751 1.363 . S
C754 N752 1.356 . S
C755 C749 1.363 . S
C755 C750 1.379 . S
C755 N753 1.356 . S
N756 C748 1.356 . S
N756 H762 0.984 . S
N756 H763 0.984 . S
N757 C750 1.356 . S
N757 H760 0.984 . S
N757 H761 0.985 . S
H758 N753 0.984 . S
H759 N753 0.985 . S
H760 N757 0.984 . S
H761 N757 0.985 . S
H762 N756 0.984 . S
H763 N756 0.984 . S
H764 N752 0.984 . S
H765 N752 0.985 . S
C766 C767 1.363 . S
C766 C772 1.379 . S
C766 N774 1.356 . S
C767 C766 1.363 . S
C767 C773 1.363 . S
C768 C769 1.363 . S
C768 C773 1.379 . S
C768 N775 1.356 . S
C769 C768 1.363 . S
C769 C772 1.363 . S
N770 C772 1.356 . S
N770 H782 0.984 . S
N770 H783 0.985 . S
N771 C773 1.356 . S
N771 H776 0.984 . S
N771 H777 0.985 . S
C772 C766 1.379 . S
C772 C769 1.363 . S
C772 N770 1.356 . S
C773 C767 1.363 . S
C773 C768 1.379 . S
C773 N771 1.356 . S
N774 C766 1.356 . S
N774 H780 0.984 . S
N774 H781 0.984 . S
N775 C768 1.356 . S
N775 H778 0.984 . S
N775 H779 0.985 . S
H776 N771 0.984 . S
H777 N771 0.985 . S
H778 N775 0.984 . S
H779 N775 0.985 . S
H780 N774 0.984 . S
H781 N774 0.984 . S
H782 N770 0.984 . S
H783 N770 0.985 . S
C784 C785 1.363 . S
C784 C790 1.379 . S
C784 N792 1.356 . S
C785 C784 1.363 . S
C785 C791 1.363 . S
C786 C787 1.363 . S
C786 C791 1.379 . S
C786 N793 1.356 . S
C787 C786 1.363 . S
C787 C790 1.363 . S
N788 C790 1.356 . S
N788 H800 0.984 . S
N788 H801 0.985 . S
N789 C791 1.356 . S
N789 H794 0.984 . S
N789 H795 0.985 . S
C790 C784 1.379 . S
C790 C787 1.363 . S
C790 N788 1.356 . S
C791 C785 1.363 . S
C791 C786 1.379 . S
C791 N789 1.356 . S
N792 C784 1.356 . S
N792 H798 0.984 . S
N792 H799 0.984 . S
N793 C786 1.356 . S
N793 H796 0.984 . S
N793 H797 0.985 . S
H794 N789 0.984 . S
H795 N789 0.985 . S
H796 N793 0.984 . S
H797 N793 0.985 . S
H798 N792 0.984 . S
H799 N792 0.984 . S
H800 N788 0.984 . S
H801 N788 0.985 . S
C802 C803 1.363 . S
C802 C808 1.379 . S
C802 N810 1.356 . S
C803 C802 1.363 . S
C803 C809 1.363 . S
C804 C805 1.363 . S
C804 C809 1.379 . S
C804 N811 1.356 . S
C805 C804 1.363 . S
C805 C808 1.363 . S
N806 C808 1.356 . S
N806 H818 0.984 . S
N806 H819 0.985 . S
N807 C809 1.356 . S
N807 H812 0.984 . S
N807 H813 0.985 . S
C808 C802 1.379 . S
C808 C805 1.363 . S
C808 N806 1.356 . S
C809 C803 1.363 . S
C809 C804 1.379 . S
C809 N807 1.356 . S
N810 C802 1.356 . S
N810 H816 0.984 . S
N810 H817 0.984 . S
N811 C804 1.356 . S
N811 H814 0.984 . S
N811 H815 0.985 . S
H812 N807 0.984 . S
H813 N807 0.985 . S
H814 N811 0.984 . S
H815 N811 0.985 . S
H816 N810 0.984 . S
H817 N810 0.984 . S
H818 N806 0.984 . S
H819 N806 0.985 . S
C820 C821 1.363 . S
C820 C826 1.379 . S
C820 N828 1.356 . S
C821 C820 1.363 . S
C821 C827 1.363 1_554 S
C822 C823 1.363 . S
C822 C827 1.379 . S
C822 N829 1.356 . S
C823 C822 1.363 . S
C823 C826 1.363 1_556 S
N824 C826 1.356 . S
N824 H836 0.984 . S
N824 H837 0.985 1_554 S
N825 C827 1.356 1_455 S
N825 H830 0.984 1_556 S
N825 H831 0.985 . S
C826 C820 1.379 . S
C826 C823 1.363 1_554 S
C826 N824 1.356 . S
C827 C821 1.363 1_556 S
C827 C822 1.379 . S
C827 N825 1.356 1_655 S
N828 C820 1.356 . S
N828 H834 0.984 . S
N828 H835 0.984 . S
N829 C822 1.356 . S
N829 H832 0.984 . S
N829 H833 0.985 . S
H830 N825 0.984 1_554 S
H831 N825 0.985 . S
H832 N829 0.984 . S
H833 N829 0.985 . S
H834 N828 0.984 . S
H835 N828 0.984 . S
H836 N824 0.984 . S
H837 N824 0.985 1_556 S
C838 C839 1.363 . S
C838 C844 1.379 . S
C838 N846 1.356 . S
C839 C838 1.363 . S
C839 C845 1.363 . S
C840 C841 1.363 . S
C840 C845 1.379 . S
C840 N847 1.356 . S
C841 C840 1.363 . S
C841 C844 1.363 . S
N842 C844 1.356 . S
N842 H854 0.984 . S
N842 H855 0.985 . S
N843 C845 1.356 . S
N843 H848 0.984 . S
N843 H849 0.985 . S
C844 C838 1.379 . S
C844 C841 1.363 . S
C844 N842 1.356 . S
C845 C839 1.363 . S
C845 C840 1.379 . S
C845 N843 1.356 . S
N846 C838 1.356 . S
N846 H852 0.984 . S
N846 H853 0.984 . S
N847 C840 1.356 . S
N847 H850 0.984 . S
N847 H851 0.985 . S
H848 N843 0.984 . S
H849 N843 0.985 . S
H850 N847 0.984 . S
H851 N847 0.985 . S
H852 N846 0.984 . S
H853 N846 0.984 . S
H854 N842 0.984 . S
H855 N842 0.985 . S
C856 C857 1.363 . S
C856 C862 1.379 . S
C856 N864 1.356 . S
C857 C856 1.363 . S
C857 C863 1.363 . S
C858 C859 1.363 . S
C858 C863 1.379 . S
C858 N865 1.356 . S
C859 C858 1.363 . S
C859 C862 1.363 . S
N860 C862 1.356 . S
N860 H872 0.984 . S
N860 H873 0.985 . S
N861 C863 1.356 . S
N861 H866 0.984 . S
N861 H867 0.985 . S
C862 C856 1.379 . S
C862 C859 1.363 . S
C862 N860 1.356 . S
C863 C857 1.363 . S
C863 C858 1.379 . S
C863 N861 1.356 . S
N864 C856 1.356 . S
N864 H870 0.984 . S
N864 H871 0.984 . S
N865 C858 1.356 . S
N865 H868 0.984 . S
N865 H869 0.985 . S
H866 N861 0.984 . S
H867 N861 0.985 . S
H868 N865 0.984 . S
H869 N865 0.985 . S
H870 N864 0.984 . S
H871 N864 0.984 . S
H872 N860 0.984 . S
H873 N860 0.985 . S
C874 C875 1.363 . S
C874 C880 1.379 . S
C874 N882 1.356 . S
C875 C874 1.363 . S
C875 C881 1.363 . S
C876 C877 1.363 . S
C876 C881 1.379 . S
C876 N883 1.356 . S
C877 C876 1.363 . S
C877 C880 1.363 . S
N878 C880 1.356 . S
N878 H890 0.984 . S
N878 H891 0.985 . S
N879 C881 1.356 . S
N879 H884 0.984 . S
N879 H885 0.985 . S
C880 C874 1.379 . S
C880 C877 1.363 . S
C880 N878 1.356 . S
C881 C875 1.363 . S
C881 C876 1.379 . S
C881 N879 1.356 . S
N882 C874 1.356 . S
N882 H888 0.984 . S
N882 H889 0.984 . S
N883 C876 1.356 . S
N883 H886 0.984 . S
N883 H887 0.985 . S
H884 N879 0.984 . S
H885 N879 0.985 . S
H886 N883 0.984 . S
H887 N883 0.985 . S
H888 N882 0.984 . S
H889 N882 0.984 . S
H890 N878 0.984 . S
H891 N878 0.985 . S
C892 C893 1.363 . S
C892 C898 1.379 . S
C892 N900 1.356 . S
C893 C892 1.363 . S
C893 C899 1.363 . S
C894 C895 1.363 . S
C894 C899 1.379 . S
C894 N901 1.356 1_554 S
C895 C894 1.363 . S
C895 C898 1.363 . S
N896 C898 1.356 . S
N896 H908 0.984 . S
N896 H909 0.985 1_554 S
N897 C899 1.356 . S
N897 H902 0.984 . S
N897 H903 0.985 . S
C898 C892 1.379 . S
C898 C895 1.363 . S
C898 N896 1.356 . S
C899 C893 1.363 . S
C899 C894 1.379 . S
C899 N897 1.356 . S
N900 C892 1.356 . S
N900 H906 0.984 . S
N900 H907 0.984 . S
N901 C894 1.356 1_556 S
N901 H904 0.984 . S
N901 H905 0.985 . S
H902 N897 0.984 . S
H903 N897 0.985 . S
H904 N901 0.984 . S
H905 N901 0.985 . S
H906 N900 0.984 . S
H907 N900 0.984 . S
H908 N896 0.984 . S
H909 N896 0.985 1_556 S
C910 C911 1.363 . S
C910 C916 1.379 . S
C910 N918 1.356 . S
C911 C910 1.363 . S
C911 C917 1.363 . S
C912 C913 1.363 . S
C912 C917 1.379 . S
C912 N919 1.356 . S
C913 C912 1.363 . S
C913 C916 1.363 . S
N914 C916 1.356 . S
N914 H926 0.984 . S
N914 H927 0.985 . S
N915 C917 1.356 . S
N915 H920 0.984 . S
N915 H921 0.985 . S
C916 C910 1.379 . S
C916 C913 1.363 . S
C916 N914 1.356 . S
C917 C911 1.363 . S
C917 C912 1.379 . S
C917 N915 1.356 . S
N918 C910 1.356 . S
N918 H924 0.984 . S
N918 H925 0.984 . S
N919 C912 1.356 . S
N919 H922 0.984 . S
N919 H923 0.985 . S
H920 N915 0.984 . S
H921 N915 0.985 . S
H922 N919 0.984 . S
H923 N919 0.985 . S
H924 N918 0.984 . S
H925 N918 0.984 . S
H926 N914 0.984 . S
H927 N914 0.985 . S
C928 C929 1.363 . S
C928 C934 1.379 . S
C928 N936 1.356 . S
C929 C928 1.363 . S
C929 C935 1.363 1_455 S
C930 C931 1.355 1_655 S
C930 C935 1.379 . S
C930 N937 1.356 . S
C931 C930 1.355 1_455 S
C931 C934 1.371 . S
N932 C934 1.356 . S
N932 H944 0.984 . S
N932 H945 0.985 . S
N933 C935 1.356 . S
N933 H938 0.984 . S
N933 H939 0.985 . S
C934 C928 1.379 . S
C934 C931 1.371 . S
C934 N932 1.356 . S
C935 C929 1.363 1_655 S
C935 C930 1.379 . S
C935 N933 1.356 . S
N936 C928 1.356 . S
N936 H942 0.984 . S
N936 H943 0.984 . S
N937 C930 1.356 . S
N937 H940 0.984 . S
N937 H941 0.985 . S
H938 N933 0.984 . S
H939 N933 0.985 . S
H940 N937 0.984 . S
H941 N937 0.985 . S
H942 N936 0.984 . S
H943 N936 0.984 . S
H944 N932 0.984 . S
H945 N932 0.985 . S
C946 C947 1.363 1_455 S
C946 C952 1.379 . S
C946 N954 1.356 1_455 S
C947 C946 1.363 1_655 S
C947 C953 1.363 1_655 S
C948 C949 1.363 . S
C948 C953 1.379 . S
C948 N955 1.356 . S
C949 C948 1.363 . S
C949 C952 1.363 . S
N950 C952 1.356 . S
N950 H962 0.984 . S
N950 H963 0.985 . S
N951 C953 1.356 1_655 S
N951 H956 0.984 . S
N951 H957 0.985 . S
C952 C946 1.379 . S
C952 C949 1.363 . S
C952 N950 1.356 . S
C953 C947 1.363 1_455 S
C953 C948 1.379 . S
C953 N951 1.356 1_455 S
N954 C946 1.356 1_655 S
N954 H960 0.984 . S
N954 H961 0.984 . S
N955 C948 1.356 . S
N955 H958 0.984 . S
N955 H959 0.985 . S
H956 N951 0.984 . S
H957 N951 0.985 . S
H958 N955 0.984 . S
H959 N955 0.985 . S
H960 N954 0.984 . S
H961 N954 0.984 . S
H962 N950 0.984 . S
H963 N950 0.985 . S
C964 C965 1.363 . S
C964 C970 1.379 . S
C964 N972 1.356 . S
C965 C964 1.363 . S
C965 C971 1.363 . S
C966 C967 1.363 . S
C966 C971 1.379 . S
C966 N973 1.356 . S
C967 C966 1.363 . S
C967 C970 1.363 . S
N968 C970 1.356 . S
N968 H980 0.984 . S
N968 H981 0.985 . S
N969 C971 1.356 . S
N969 H974 0.984 . S
N969 H975 0.985 . S
C970 C964 1.379 . S
C970 C967 1.363 . S
C970 N968 1.356 . S
C971 C965 1.363 . S
C971 C966 1.379 . S
C971 N969 1.356 . S
N972 C964 1.356 . S
N972 H978 0.984 . S
N972 H979 0.984 . S
N973 C966 1.356 . S
N973 H976 0.984 . S
N973 H977 0.985 . S
H974 N969 0.984 . S
H975 N969 0.985 . S
H976 N973 0.984 . S
H977 N973 0.985 . S
H978 N972 0.984 . S
H979 N972 0.984 . S
H980 N968 0.984 . S
H981 N968 0.985 . S
C982 C983 1.363 . S
C982 C988 1.379 . S
C982 N990 1.356 . S
C983 C982 1.363 . S
C983 C989 1.363 . S
C984 C985 1.363 . S
C984 C989 1.379 . S
C984 N991 1.356 . S
C985 C984 1.363 . S
C985 C988 1.363 . S
N986 C988 1.356 . S
N986 H998 0.984 . S
N986 H999 0.985 . S
N987 C989 1.356 . S
N987 H992 0.984 . S
N987 H993 0.985 . S
C988 C982 1.379 . S
C988 C985 1.363 . S
C988 N986 1.356 . S
C989 C983 1.363 . S
C989 C984 1.379 . S
C989 N987 1.356 . S
N990 C982 1.356 . S
N990 H996 0.984 . S
N990 H997 0.984 . S
N991 C984 1.356 . S
N991 H994 0.984 . S
N991 H995 0.985 . S
H992 N987 0.984 . S
H993 N987 0.985 . S
H994 N991 0.984 . S
H995 N991 0.985 . S
H996 N990 0.984 . S
H997 N990 0.984 . S
H998 N986 0.984 . S
H999 N986 0.985 . S
C1000 C1001 1.363 . S
C1000 C1006 1.379 . S
C1000 N1008 1.356 . S
C1001 C1000 1.363 . S
C1001 C1007 1.363 . S
C1002 C1003 1.363 . S
C1002 C1007 1.379 . S
C1002 N1009 1.356 1_455 S
C1003 C1002 1.363 . S
C1003 C1006 1.363 . S
N1004 C1006 1.356 . S
N1004 H1016 0.984 . S
N1004 H1017 0.985 . S
N1005 C1007 1.356 1_655 S
N1005 H1010 0.984 . S
N1005 H1011 0.985 . S
C1006 C1000 1.379 . S
C1006 C1003 1.363 . S
C1006 N1004 1.356 . S
C1007 C1001 1.363 . S
C1007 C1002 1.379 . S
C1007 N1005 1.356 1_455 S
N1008 C1000 1.356 . S
N1008 H1014 0.984 . S
N1008 H1015 0.984 . S
N1009 C1002 1.356 1_655 S
N1009 H1012 0.984 . S
N1009 H1013 0.985 . S
H1010 N1005 0.984 . S
H1011 N1005 0.985 . S
H1012 N1009 0.984 . S
H1013 N1009 0.985 . S
H1014 N1008 0.984 . S
H1015 N1008 0.984 . S
H1016 N1004 0.984 . S
H1017 N1004 0.985 . S
C1018 C1019 1.363 . S
C1018 C1024 1.379 . S
C1018 N1026 1.356 . S
C1019 C1018 1.363 . S
C1019 C1025 1.363 . S
C1020 C1021 1.363 . S
C1020 C1025 1.379 . S
C1020 N1027 1.356 . S
C1021 C1020 1.363 . S
C1021 C1024 1.363 . S
N1022 C1024 1.356 . S
N1022 H1034 0.984 . S
N1022 H1035 0.985 . S
N1023 C1025 1.356 . S
N1023 H1028 0.984 . S
N1023 H1029 0.985 . S
C1024 C1018 1.379 . S
C1024 C1021 1.363 . S
C1024 N1022 1.356 . S
C1025 C1019 1.363 . S
C1025 C1020 1.379 . S
C1025 N1023 1.356 . S
N1026 C1018 1.356 . S
N1026 H1032 0.984 . S
N1026 H1033 0.984 . S
N1027 C1020 1.356 . S
N1027 H1030 0.984 . S
N1027 H1031 0.985 . S
H1028 N1023 0.984 . S
H1029 N1023 0.985 . S
H1030 N1027 0.984 . S
H1031 N1027 0.985 . S
H1032 N1026 0.984 . S
H1033 N1026 0.984 . S
H1034 N1022 0.984 . S
H1035 N1022 0.985 . S
C1036 C1037 1.363 . S
C1036 C1042 1.379 . S
C1036 N1044 1.356 . S
C1037 C1036 1.363 . S
C1037 C1043 1.363 . S
C1038 C1039 1.363 . S
C1038 C1043 1.379 . S
C1038 N1045 1.356 . S
C1039 C1038 1.363 . S
C1039 C1042 1.363 . S
N1040 C1042 1.356 . S
N1040 H1052 0.984 . S
N1040 H1053 0.985 . S
N1041 C1043 1.356 . S
N1041 H1046 0.984 . S
N1041 H1047 0.985 . S
C1042 C1036 1.379 . S
C1042 C1039 1.363 . S
C1042 N1040 1.356 . S
C1043 C1037 1.363 . S
C1043 C1038 1.379 . S
C1043 N1041 1.356 . S
N1044 C1036 1.356 . S
N1044 H1050 0.984 . S
N1044 H1051 0.984 . S
N1045 C1038 1.356 . S
N1045 H1048 0.984 . S
N1045 H1049 0.985 . S
H1046 N1041 0.984 . S
H1047 N1041 0.985 . S
H1048 N1045 0.984 . S
H1049 N1045 0.985 . S
H1050 N1044 0.984 . S
H1051 N1044 0.984 . S
H1052 N1040 0.984 . S
H1053 N1040 0.985 . S
C1054 C1055 1.363 . S
C1054 C1060 1.379 1_455 S
C1054 N1062 1.356 . S
C1055 C1054 1.363 . S
C1055 C1061 1.363 . S
C1056 C1057 1.363 1_455 S
C1056 C1061 1.379 . S
C1056 N1063 1.356 . S
C1057 C1056 1.363 1_655 S
C1057 C1060 1.363 . S
N1058 C1060 1.356 . S
N1058 H1070 0.984 . S
N1058 H1071 0.985 . S
N1059 C1061 1.356 . S
N1059 H1064 0.984 . S
N1059 H1065 0.985 . S
C1060 C1054 1.379 1_655 S
C1060 C1057 1.363 . S
C1060 N1058 1.356 . S
C1061 C1055 1.363 . S
C1061 C1056 1.379 . S
C1061 N1059 1.356 . S
N1062 C1054 1.356 . S
N1062 H1068 0.984 1_455 S
N1062 H1069 0.984 . S
N1063 C1056 1.356 . S
N1063 H1066 0.984 1_455 S
N1063 H1067 0.985 . S
H1064 N1059 0.984 . S
H1065 N1059 0.985 . S
H1066 N1063 0.984 1_655 S
H1067 N1063 0.985 . S
H1068 N1062 0.984 1_655 S
H1069 N1062 0.984 . S
H1070 N1058 0.984 . S
H1071 N1058 0.985 . S
C1072 C1073 1.363 1_645 S
C1072 C1078 1.379 1_554 S
C1072 N1080 1.356 . S
C1073 C1072 1.363 1_465 S
C1073 C1079 1.363 . S
C1074 C1075 1.363 . S
C1074 C1079 1.379 1_556 S
C1074 N1081 1.356 . S
C1075 C1074 1.363 . S
C1075 C1078 1.363 1_465 S
N1076 C1078 1.356 . S
N1076 H1088 0.984 . S
N1076 H1089 0.985 . S
N1077 C1079 1.356 . S
N1077 H1082 0.984 . S
N1077 H1083 0.985 . S
C1078 C1072 1.379 1_556 S
C1078 C1075 1.363 1_645 S
C1078 N1076 1.356 . S
C1079 C1073 1.363 . S
C1079 C1074 1.379 1_554 S
C1079 N1077 1.356 . S
N1080 C1072 1.356 . S
N1080 H1086 0.984 . S
N1080 H1087 0.984 . S
N1081 C1074 1.356 . S
N1081 H1084 0.984 . S
N1081 H1085 0.985 . S
H1082 N1077 0.984 . S
H1083 N1077 0.985 . S
H1084 N1081 0.984 . S
H1085 N1081 0.985 . S
H1086 N1080 0.984 . S
H1087 N1080 0.984 . S
H1088 N1076 0.984 . S
H1089 N1076 0.985 . S
C1090 C1091 1.363 . S
C1090 C1096 1.379 . S
C1090 N1098 1.356 . S
C1091 C1090 1.363 . S
C1091 C1097 1.363 . S
C1092 C1093 1.363 . S
C1092 C1097 1.379 . S
C1092 N1099 1.356 . S
C1093 C1092 1.363 . S
C1093 C1096 1.363 . S
N1094 C1096 1.356 . S
N1094 H1106 0.984 . S
N1094 H1107 0.985 . S
N1095 C1097 1.356 . S
N1095 H1100 0.984 . S
N1095 H1101 0.985 . S
C1096 C1090 1.379 . S
C1096 C1093 1.363 . S
C1096 N1094 1.356 . S
C1097 C1091 1.363 . S
C1097 C1092 1.379 . S
C1097 N1095 1.356 . S
N1098 C1090 1.356 . S
N1098 H1104 0.984 . S
N1098 H1105 0.984 . S
N1099 C1092 1.356 . S
N1099 H1102 0.984 . S
N1099 H1103 0.985 . S
H1100 N1095 0.984 . S
H1101 N1095 0.985 . S
H1102 N1099 0.984 . S
H1103 N1099 0.985 . S
H1104 N1098 0.984 . S
H1105 N1098 0.984 . S
H1106 N1094 0.984 . S
H1107 N1094 0.985 . S
C1108 C1109 1.363 . S
C1108 C1114 1.379 . S
C1108 N1116 1.356 . S
C1109 C1108 1.363 . S
C1109 C1115 1.363 1_545 S
C1110 C1111 1.363 . S
C1110 C1115 1.379 . S
C1110 N1117 1.356 . S
C1111 C1110 1.363 . S
C1111 C1114 1.363 1_565 S
N1112 C1114 1.356 . S
N1112 H1124 0.984 . S
N1112 H1125 0.985 . S
N1113 C1115 1.356 . S
N1113 H1118 0.984 . S
N1113 H1119 0.985 . S
C1114 C1108 1.379 . S
C1114 C1111 1.363 1_545 S
C1114 N1112 1.356 . S
C1115 C1109 1.363 1_565 S
C1115 C1110 1.379 . S
C1115 N1113 1.356 . S
N1116 C1108 1.356 . S
N1116 H1122 0.984 . S
N1116 H1123 0.984 . S
N1117 C1110 1.356 . S
N1117 H1120 0.984 . S
N1117 H1121 0.985 . S
H1118 N1113 0.984 . S
H1119 N1113 0.985 . S
H1120 N1117 0.984 . S
H1121 N1117 0.985 . S
H1122 N1116 0.984 . S
H1123 N1116 0.984 . S
H1124 N1112 0.984 . S
H1125 N1112 0.985 . S
C1126 C1127 1.363 . S
C1126 C1132 1.379 . S
C1126 N1134 1.356 . S
C1127 C1126 1.363 . S
C1127 C1133 1.363 . S
C1128 C1129 1.363 . S
C1128 C1133 1.379 . S
C1128 N1135 1.356 . S
C1129 C1128 1.363 . S
C1129 C1132 1.363 . S
N1130 C1132 1.356 . S
N1130 H1142 0.984 . S
N1130 H1143 0.985 . S
N1131 C1133 1.356 . S
N1131 H1136 0.984 . S
N1131 H1137 0.985 . S
C1132 C1126 1.379 . S
C1132 C1129 1.363 . S
C1132 N1130 1.356 . S
C1133 C1127 1.363 . S
C1133 C1128 1.379 . S
C1133 N1131 1.356 . S
N1134 C1126 1.356 . S
N1134 H1140 0.984 . S
N1134 H1141 0.984 . S
N1135 C1128 1.356 . S
N1135 H1138 0.984 . S
N1135 H1139 0.985 . S
H1136 N1131 0.984 . S
H1137 N1131 0.985 . S
H1138 N1135 0.984 . S
H1139 N1135 0.985 . S
H1140 N1134 0.984 . S
H1141 N1134 0.984 . S
H1142 N1130 0.984 . S
H1143 N1130 0.985 . S
C1144 C1145 1.363 . S
C1144 C1150 1.379 . S
C1144 N1152 1.356 . S
C1145 C1144 1.363 . S
C1145 C1151 1.363 . S
C1146 C1147 1.363 . S
C1146 C1151 1.379 . S
C1146 N1153 1.356 . S
C1147 C1146 1.363 . S
C1147 C1150 1.363 . S
N1148 C1150 1.356 . S
N1148 H1160 0.984 . S
N1148 H1161 0.985 . S
N1149 C1151 1.356 . S
N1149 H1154 0.984 . S
N1149 H1155 0.985 . S
C1150 C1144 1.379 . S
C1150 C1147 1.363 . S
C1150 N1148 1.356 . S
C1151 C1145 1.363 . S
C1151 C1146 1.379 . S
C1151 N1149 1.356 . S
N1152 C1144 1.356 . S
N1152 H1158 0.984 . S
N1152 H1159 0.984 . S
N1153 C1146 1.356 . S
N1153 H1156 0.984 . S
N1153 H1157 0.985 . S
H1154 N1149 0.984 . S
H1155 N1149 0.985 . S
H1156 N1153 0.984 . S
H1157 N1153 0.985 . S
H1158 N1152 0.984 . S
H1159 N1152 0.984 . S
H1160 N1148 0.984 . S
H1161 N1148 0.985 . S
C1162 C1163 1.363 . S
C1162 C1168 1.379 . S
C1162 N1170 1.356 . S
C1163 C1162 1.363 . S
C1163 C1169 1.363 . S
C1164 C1165 1.363 . S
C1164 C1169 1.379 . S
C1164 N1171 1.356 . S
C1165 C1164 1.363 . S
C1165 C1168 1.363 . S
N1166 C1168 1.356 . S
N1166 H1178 0.984 . S
N1166 H1179 0.985 . S
N1167 C1169 1.356 . S
N1167 H1172 0.984 . S
N1167 H1173 0.985 . S
C1168 C1162 1.379 . S
C1168 C1165 1.363 . S
C1168 N1166 1.356 . S
C1169 C1163 1.363 . S
C1169 C1164 1.379 . S
C1169 N1167 1.356 . S
N1170 C1162 1.356 . S
N1170 H1176 0.984 . S
N1170 H1177 0.984 . S
N1171 C1164 1.356 . S
N1171 H1174 0.984 . S
N1171 H1175 0.985 . S
H1172 N1167 0.984 . S
H1173 N1167 0.985 . S
H1174 N1171 0.984 . S
H1175 N1171 0.985 . S
H1176 N1170 0.984 . S
H1177 N1170 0.984 . S
H1178 N1166 0.984 . S
H1179 N1166 0.985 . S
C1180 C1181 1.363 . S
C1180 C1186 1.379 . S
C1180 N1188 1.356 . S
C1181 C1180 1.363 . S
C1181 C1187 1.363 . S
C1182 C1183 1.363 . S
C1182 C1187 1.379 . S
C1182 N1189 1.356 . S
C1183 C1182 1.363 . S
C1183 C1186 1.363 . S
N1184 C1186 1.356 . S
N1184 H1196 0.984 . S
N1184 H1197 0.985 . S
N1185 C1187 1.356 . S
N1185 H1190 0.984 . S
N1185 H1191 0.985 . S
C1186 C1180 1.379 . S
C1186 C1183 1.363 . S
C1186 N1184 1.356 . S
C1187 C1181 1.363 . S
C1187 C1182 1.379 . S
C1187 N1185 1.356 . S
N1188 C1180 1.356 . S
N1188 H1194 0.984 . S
N1188 H1195 0.984 . S
N1189 C1182 1.356 . S
N1189 H1192 0.984 . S
N1189 H1193 0.985 . S
H1190 N1185 0.984 . S
H1191 N1185 0.985 . S
H1192 N1189 0.984 . S
H1193 N1189 0.985 . S
H1194 N1188 0.984 . S
H1195 N1188 0.984 . S
H1196 N1184 0.984 . S
H1197 N1184 0.985 . S
C1198 C1199 1.363 . S
C1198 C1204 1.379 1_556 S
C1198 N1206 1.356 . S
C1199 C1198 1.363 . S
C1199 C1205 1.363 . S
C1200 C1201 1.363 . S
C1200 C1205 1.379 1_554 S
C1200 N1207 1.356 1_455 S
C1201 C1200 1.363 . S
C1201 C1204 1.363 . S
N1202 C1204 1.356 . S
N1202 H1214 0.984 . S
N1202 H1215 0.985 . S
N1203 C1205 1.356 1_655 S
N1203 H1208 0.984 . S
N1203 H1209 0.985 . S
C1204 C1198 1.379 1_554 S
C1204 C1201 1.363 . S
C1204 N1202 1.356 . S
C1205 C1199 1.363 . S
C1205 C1200 1.379 1_556 S
C1205 N1203 1.356 1_455 S
N1206 C1198 1.356 . S
N1206 H1212 0.984 . S
N1206 H1213 0.984 . S
N1207 C1200 1.356 1_655 S
N1207 H1210 0.984 . S
N1207 H1211 0.985 . S
H1208 N1203 0.984 . S
H1209 N1203 0.985 . S
H1210 N1207 0.984 . S
H1211 N1207 0.985 . S
H1212 N1206 0.984 . S
H1213 N1206 0.984 . S
H1214 N1202 0.984 . S
H1215 N1202 0.985 . S
C1216 C1217 1.363 . S
C1216 C1222 1.379 . S
C1216 N1224 1.356 . S
C1217 C1216 1.363 . S
C1217 C1223 1.363 . S
C1218 C1219 1.363 . S
C1218 C1223 1.379 . S
C1218 N1225 1.356 . S
C1219 C1218 1.363 . S
C1219 C1222 1.363 . S
N1220 C1222 1.356 . S
N1220 H1232 0.984 . S
N1220 H1233 0.985 . S
N1221 C1223 1.356 . S
N1221 H1226 0.984 . S
N1221 H1227 0.985 . S
C1222 C1216 1.379 . S
C1222 C1219 1.363 . S
C1222 N1220 1.356 . S
C1223 C1217 1.363 . S
C1223 C1218 1.379 . S
C1223 N1221 1.356 . S
N1224 C1216 1.356 . S
N1224 H1230 0.984 . S
N1224 H1231 0.984 . S
N1225 C1218 1.356 . S
N1225 H1228 0.984 . S
N1225 H1229 0.985 . S
H1226 N1221 0.984 . S
H1227 N1221 0.985 . S
H1228 N1225 0.984 . S
H1229 N1225 0.985 . S
H1230 N1224 0.984 . S
H1231 N1224 0.984 . S
H1232 N1220 0.984 . S
H1233 N1220 0.985 . S
C1234 C1235 1.363 . S
C1234 C1240 1.379 . S
C1234 N1242 1.356 . S
C1235 C1234 1.363 . S
C1235 C1241 1.363 . S
C1236 C1237 1.363 . S
C1236 C1241 1.379 . S
C1236 N1243 1.356 . S
C1237 C1236 1.363 . S
C1237 C1240 1.363 . S
N1238 C1240 1.356 . S
N1238 H1250 0.984 . S
N1238 H1251 0.985 . S
N1239 C1241 1.356 . S
N1239 H1244 0.984 . S
N1239 H1245 0.985 . S
C1240 C1234 1.379 . S
C1240 C1237 1.363 . S
C1240 N1238 1.356 . S
C1241 C1235 1.363 . S
C1241 C1236 1.379 . S
C1241 N1239 1.356 . S
N1242 C1234 1.356 . S
N1242 H1248 0.984 . S
N1242 H1249 0.984 . S
N1243 C1236 1.356 . S
N1243 H1246 0.984 . S
N1243 H1247 0.985 . S
H1244 N1239 0.984 . S
H1245 N1239 0.985 . S
H1246 N1243 0.984 . S
H1247 N1243 0.985 . S
H1248 N1242 0.984 . S
H1249 N1242 0.984 . S
H1250 N1238 0.984 . S
H1251 N1238 0.985 . S
C1252 C1253 1.363 . S
C1252 C1258 1.379 1_554 S
C1252 N1260 1.356 . S
C1253 C1252 1.363 . S
C1253 C1259 1.363 1_554 S
C1254 C1255 1.363 . S
C1254 C1259 1.379 . S
C1254 N1261 1.356 . S
C1255 C1254 1.363 . S
C1255 C1258 1.363 . S
N1256 C1258 1.356 . S
N1256 H1268 0.984 . S
N1256 H1269 0.985 . S
N1257 C1259 1.356 1_554 S
N1257 H1262 0.984 . S
N1257 H1263 0.985 1_554 S
C1258 C1252 1.379 1_556 S
C1258 C1255 1.363 . S
C1258 N1256 1.356 . S
C1259 C1253 1.363 1_556 S
C1259 C1254 1.379 . S
C1259 N1257 1.356 1_556 S
N1260 C1252 1.356 . S
N1260 H1266 0.984 . S
N1260 H1267 0.984 . S
N1261 C1254 1.356 . S
N1261 H1264 0.984 . S
N1261 H1265 0.985 . S
H1262 N1257 0.984 . S
H1263 N1257 0.985 1_556 S
H1264 N1261 0.984 . S
H1265 N1261 0.985 . S
H1266 N1260 0.984 . S
H1267 N1260 0.984 . S
H1268 N1256 0.984 . S
H1269 N1256 0.985 . S
C1270 C1271 1.363 . S
C1270 C1276 1.379 . S
C1270 N1278 1.356 . S
C1271 C1270 1.363 . S
C1271 C1277 1.363 . S
C1272 C1273 1.363 . S
C1272 C1277 1.379 . S
C1272 N1279 1.356 . S
C1273 C1272 1.363 . S
C1273 C1276 1.363 . S
N1274 C1276 1.356 . S
N1274 H1286 0.984 . S
N1274 H1287 0.985 . S
N1275 C1277 1.356 . S
N1275 H1280 0.984 . S
N1275 H1281 0.985 . S
C1276 C1270 1.379 . S
C1276 C1273 1.363 . S
C1276 N1274 1.356 . S
C1277 C1271 1.363 . S
C1277 C1272 1.379 . S
C1277 N1275 1.356 . S
N1278 C1270 1.356 . S
N1278 H1284 0.984 . S
N1278 H1285 0.984 . S
N1279 C1272 1.356 . S
N1279 H1282 0.984 . S
N1279 H1283 0.985 . S
H1280 N1275 0.984 . S
H1281 N1275 0.985 . S
H1282 N1279 0.984 . S
H1283 N1279 0.985 . S
H1284 N1278 0.984 . S
H1285 N1278 0.984 . S
H1286 N1274 0.984 . S
H1287 N1274 0.985 . S
C1288 C1289 1.363 . S
C1288 C1294 1.379 . S
C1288 N1296 1.356 . S
C1289 C1288 1.363 . S
C1289 C1295 1.363 . S
C1290 C1291 1.363 . S
C1290 C1295 1.379 . S
C1290 N1297 1.356 . S
C1291 C1290 1.363 . S
C1291 C1294 1.363 . S
N1292 C1294 1.356 . S
N1292 H1304 0.984 . S
N1292 H1305 0.985 . S
N1293 C1295 1.356 . S
N1293 H1298 0.984 . S
N1293 H1299 0.985 . S
C1294 C1288 1.379 . S
C1294 C1291 1.363 . S
C1294 N1292 1.356 . S
C1295 C1289 1.363 . S
C1295 C1290 1.379 . S
C1295 N1293 1.356 . S
N1296 C1288 1.356 . S
N1296 H1302 0.984 . S
N1296 H1303 0.984 . S
N1297 C1290 1.356 . S
N1297 H1300 0.984 . S
N1297 H1301 0.985 . S
H1298 N1293 0.984 . S
H1299 N1293 0.985 . S
H1300 N1297 0.984 . S
H1301 N1297 0.985 . S
H1302 N1296 0.984 . S
H1303 N1296 0.984 . S
H1304 N1292 0.984 . S
H1305 N1292 0.985 . S
C1306 C1307 1.363 . S
C1306 C1312 1.379 . S
C1306 N1314 1.356 . S
C1307 C1306 1.363 . S
C1307 C1313 1.363 . S
C1308 C1309 1.363 . S
C1308 C1313 1.379 . S
C1308 N1315 1.356 . S
C1309 C1308 1.363 . S
C1309 C1312 1.363 . S
N1310 C1312 1.356 . S
N1310 H1322 0.984 . S
N1310 H1323 0.985 . S
N1311 C1313 1.356 . S
N1311 H1316 0.984 . S
N1311 H1317 0.985 . S
C1312 C1306 1.379 . S
C1312 C1309 1.363 . S
C1312 N1310 1.356 . S
C1313 C1307 1.363 . S
C1313 C1308 1.379 . S
C1313 N1311 1.356 . S
N1314 C1306 1.356 . S
N1314 H1320 0.984 . S
N1314 H1321 0.984 . S
N1315 C1308 1.356 . S
N1315 H1318 0.984 . S
N1315 H1319 0.985 . S
H1316 N1311 0.984 . S
H1317 N1311 0.985 . S
H1318 N1315 0.984 . S
H1319 N1315 0.985 . S
H1320 N1314 0.984 . S
H1321 N1314 0.984 . S
H1322 N1310 0.984 . S
H1323 N1310 0.985 . S
C1324 C1325 1.363 . S
C1324 C1330 1.379 . S
C1324 N1332 1.356 . S
C1325 C1324 1.363 . S
C1325 C1331 1.363 . S
C1326 C1327 1.363 . S
C1326 C1331 1.379 . S
C1326 N1333 1.356 . S
C1327 C1326 1.363 . S
C1327 C1330 1.363 . S
N1328 C1330 1.356 . S
N1328 H1340 0.984 . S
N1328 H1341 0.985 . S
N1329 C1331 1.356 1_556 S
N1329 H1334 0.984 . S
N1329 H1335 0.985 . S
C1330 C1324 1.379 . S
C1330 C1327 1.363 . S
C1330 N1328 1.356 . S
C1331 C1325 1.363 . S
C1331 C1326 1.379 . S
C1331 N1329 1.356 1_554 S
N1332 C1324 1.356 . S
N1332 H1338 0.984 . S
N1332 H1339 0.984 . S
N1333 C1326 1.356 . S
N1333 H1336 0.984 . S
N1333 H1337 0.985 . S
H1334 N1329 0.984 . S
H1335 N1329 0.985 . S
H1336 N1333 0.984 . S
H1337 N1333 0.985 . S
H1338 N1332 0.984 . S
H1339 N1332 0.984 . S
H1340 N1328 0.984 . S
H1341 N1328 0.985 . S
C1342 C1343 1.363 . S
C1342 C1348 1.379 . S
C1342 N1350 1.356 . S
C1343 C1342 1.363 . S
C1343 C1349 1.363 . S
C1344 C1345 1.363 . S
C1344 C1349 1.379 . S
C1344 N1351 1.356 . S
C1345 C1344 1.363 . S
C1345 C1348 1.363 . S
N1346 C1348 1.356 . S
N1346 H1358 0.984 . S
N1346 H1359 0.985 . S
N1347 C1349 1.356 . S
N1347 H1352 0.984 . S
N1347 H1353 0.985 . S
C1348 C1342 1.379 . S
C1348 C1345 1.363 . S
C1348 N1346 1.356 . S
C1349 C1343 1.363 . S
C1349 C1344 1.379 . S
C1349 N1347 1.356 . S
N1350 C1342 1.356 . S
N1350 H1356 0.984 . S
N1350 H1357 0.984 . S
N1351 C1344 1.356 . S
N1351 H1354 0.984 . S
N1351 H1355 0.985 . S
H1352 N1347 0.984 . S
H1353 N1347 0.985 . S
H1354 N1351 0.984 . S
H1355 N1351 0.985 . S
H1356 N1350 0.984 . S
H1357 N1350 0.984 . S
H1358 N1346 0.984 . S
H1359 N1346 0.985 . S
C1360 C1361 1.363 . S
C1360 C1366 1.379 . S
C1360 N1368 1.356 . S
C1361 C1360 1.363 . S
C1361 C1367 1.363 . S
C1362 C1363 1.363 . S
C1362 C1367 1.379 . S
C1362 N1369 1.356 . S
C1363 C1362 1.363 . S
C1363 C1366 1.363 . S
N1364 C1366 1.356 . S
N1364 H1376 0.984 . S
N1364 H1377 0.985 . S
N1365 C1367 1.356 . S
N1365 H1370 0.984 . S
N1365 H1371 0.985 . S
C1366 C1360 1.379 . S
C1366 C1363 1.363 . S
C1366 N1364 1.356 . S
C1367 C1361 1.363 . S
C1367 C1362 1.379 . S
C1367 N1365 1.356 . S
N1368 C1360 1.356 . S
N1368 H1374 0.984 . S
N1368 H1375 0.984 . S
N1369 C1362 1.356 . S
N1369 H1372 0.984 . S
N1369 H1373 0.985 . S
H1370 N1365 0.984 . S
H1371 N1365 0.985 . S
H1372 N1369 0.984 . S
H1373 N1369 0.985 . S
H1374 N1368 0.984 . S
H1375 N1368 0.984 . S
H1376 N1364 0.984 . S
H1377 N1364 0.985 . S
C1378 C1379 1.363 . S
C1378 C1384 1.379 . S
C1378 N1386 1.356 . S
C1379 C1378 1.363 . S
C1379 C1385 1.363 . S
C1380 C1381 1.363 . S
C1380 C1385 1.379 . S
C1380 N1387 1.356 . S
C1381 C1380 1.363 . S
C1381 C1384 1.363 . S
N1382 C1384 1.356 . S
N1382 H1394 0.984 . S
N1382 H1395 0.985 . S
N1383 C1385 1.356 . S
N1383 H1388 0.984 . S
N1383 H1389 0.985 . S
C1384 C1378 1.379 . S
C1384 C1381 1.363 . S
C1384 N1382 1.356 . S
C1385 C1379 1.363 . S
C1385 C1380 1.379 . S
C1385 N1383 1.356 . S
N1386 C1378 1.356 . S
N1386 H1392 0.984 . S
N1386 H1393 0.984 . S
N1387 C1380 1.356 . S
N1387 H1390 0.984 . S
N1387 H1391 0.985 . S
H1388 N1383 0.984 . S
H1389 N1383 0.985 . S
H1390 N1387 0.984 . S
H1391 N1387 0.985 . S
H1392 N1386 0.984 . S
H1393 N1386 0.984 . S
H1394 N1382 0.984 . S
H1395 N1382 0.985 . S
C1396 C1397 1.363 . S
C1396 C1402 1.379 . S
C1396 N1404 1.356 . S
C1397 C1396 1.363 . S
C1397 C1403 1.363 . S
C1398 C1399 1.363 . S
C1398 C1403 1.379 . S
C1398 N1405 1.356 . S
C1399 C1398 1.363 . S
C1399 C1402 1.363 . S
N1400 C1402 1.356 . S
N1400 H1412 0.984 . S
N1400 H1413 0.985 . S
N1401 C1403 1.356 . S
N1401 H1406 0.984 . S
N1401 H1407 0.985 . S
C1402 C1396 1.379 . S
C1402 C1399 1.363 . S
C1402 N1400 1.356 . S
C1403 C1397 1.363 . S
C1403 C1398 1.379 . S
C1403 N1401 1.356 . S
N1404 C1396 1.356 . S
N1404 H1410 0.984 . S
N1404 H1411 0.984 . S
N1405 C1398 1.356 . S
N1405 H1408 0.984 . S
N1405 H1409 0.985 . S
H1406 N1401 0.984 . S
H1407 N1401 0.985 . S
H1408 N1405 0.984 . S
H1409 N1405 0.985 . S
H1410 N1404 0.984 . S
H1411 N1404 0.984 . S
H1412 N1400 0.984 . S
H1413 N1400 0.985 . S
C1414 C1415 1.363 . S
C1414 C1420 1.379 . S
C1414 N1422 1.356 . S
C1415 C1414 1.363 . S
C1415 C1421 1.363 . S
C1416 C1417 1.363 . S
C1416 C1421 1.379 . S
C1416 N1423 1.356 . S
C1417 C1416 1.363 . S
C1417 C1420 1.363 . S
N1418 C1420 1.356 . S
N1418 H1430 0.984 . S
N1418 H1431 0.985 . S
N1419 C1421 1.356 . S
N1419 H1424 0.984 . S
N1419 H1425 0.985 . S
C1420 C1414 1.379 . S
C1420 C1417 1.363 . S
C1420 N1418 1.356 . S
C1421 C1415 1.363 . S
C1421 C1416 1.379 . S
C1421 N1419 1.356 . S
N1422 C1414 1.356 . S
N1422 H1428 0.984 . S
N1422 H1429 0.984 . S
N1423 C1416 1.356 . S
N1423 H1426 0.984 . S
N1423 H1427 0.985 . S
H1424 N1419 0.984 . S
H1425 N1419 0.985 . S
H1426 N1423 0.984 . S
H1427 N1423 0.985 . S
H1428 N1422 0.984 . S
H1429 N1422 0.984 . S
H1430 N1418 0.984 . S
H1431 N1418 0.985 . S
C1432 C1433 1.363 . S
C1432 C1438 1.379 1_554 S
C1432 N1440 1.356 . S
C1433 C1432 1.363 . S
C1433 C1439 1.363 . S
C1434 C1435 1.363 1_554 S
C1434 C1439 1.379 . S
C1434 N1441 1.356 . S
C1435 C1434 1.363 1_556 S
C1435 C1438 1.363 . S
N1436 C1438 1.356 . S
N1436 H1448 0.984 . S
N1436 H1449 0.985 . S
N1437 C1439 1.356 . S
N1437 H1442 0.984 . S
N1437 H1443 0.985 . S
C1438 C1432 1.379 1_556 S
C1438 C1435 1.363 . S
C1438 N1436 1.356 . S
C1439 C1433 1.363 . S
C1439 C1434 1.379 . S
C1439 N1437 1.356 . S
N1440 C1432 1.356 . S
N1440 H1446 0.984 1_554 S
N1440 H1447 0.984 . S
N1441 C1434 1.356 . S
N1441 H1444 0.984 1_554 S
N1441 H1445 0.985 . S
H1442 N1437 0.984 . S
H1443 N1437 0.985 . S
H1444 N1441 0.984 1_556 S
H1445 N1441 0.985 . S
H1446 N1440 0.984 1_556 S
H1447 N1440 0.984 . S
H1448 N1436 0.984 . S
H1449 N1436 0.985 . S
C1450 C1451 1.363 . S
C1450 C1456 1.379 . S
C1450 N1458 1.356 . S
C1451 C1450 1.363 . S
C1451 C1457 1.363 . S
C1452 C1453 1.363 . S
C1452 C1457 1.379 . S
C1452 N1459 1.356 . S
C1453 C1452 1.363 . S
C1453 C1456 1.363 . S
N1454 C1456 1.356 . S
N1454 H1466 0.984 . S
N1454 H1467 0.985 . S
N1455 C1457 1.356 . S
N1455 H1460 0.984 . S
N1455 H1461 0.985 1_556 S
C1456 C1450 1.379 . S
C1456 C1453 1.363 . S
C1456 N1454 1.356 . S
C1457 C1451 1.363 . S
C1457 C1452 1.379 . S
C1457 N1455 1.356 . S
N1458 C1450 1.356 . S
N1458 H1464 0.984 . S
N1458 H1465 0.984 . S
N1459 C1452 1.356 . S
N1459 H1462 0.984 . S
N1459 H1463 0.985 . S
H1460 N1455 0.984 . S
H1461 N1455 0.985 1_554 S
H1462 N1459 0.984 . S
H1463 N1459 0.985 . S
H1464 N1458 0.984 . S
H1465 N1458 0.984 . S
H1466 N1454 0.984 . S
H1467 N1454 0.985 . S
C1468 C1469 1.363 . S
C1468 C1474 1.379 . S
C1468 N1476 1.356 . S
C1469 C1468 1.363 . S
C1469 C1475 1.363 . S
C1470 C1471 1.363 . S
C1470 C1475 1.379 . S
C1470 N1477 1.356 . S
C1471 C1470 1.363 . S
C1471 C1474 1.363 . S
N1472 C1474 1.356 . S
N1472 H1484 0.984 . S
N1472 H1485 0.985 . S
N1473 C1475 1.356 . S
N1473 H1478 0.984 . S
N1473 H1479 0.985 . S
C1474 C1468 1.379 . S
C1474 C1471 1.363 . S
C1474 N1472 1.356 . S
C1475 C1469 1.363 . S
C1475 C1470 1.379 . S
C1475 N1473 1.356 . S
N1476 C1468 1.356 . S
N1476 H1482 0.984 . S
N1476 H1483 0.984 . S
N1477 C1470 1.356 . S
N1477 H1480 0.984 . S
N1477 H1481 0.985 . S
H1478 N1473 0.984 . S
H1479 N1473 0.985 . S
H1480 N1477 0.984 . S
H1481 N1477 0.985 . S
H1482 N1476 0.984 . S
H1483 N1476 0.984 . S
H1484 N1472 0.984 . S
H1485 N1472 0.985 . S
C1486 C1487 1.363 . S
C1486 C1492 1.379 . S
C1486 N1494 1.356 . S
C1487 C1486 1.363 . S
C1487 C1493 1.363 . S
C1488 C1489 1.363 . S
C1488 C1493 1.379 . S
C1488 N1495 1.356 . S
C1489 C1488 1.363 . S
C1489 C1492 1.363 . S
N1490 C1492 1.356 . S
N1490 H1502 0.984 . S
N1490 H1503 0.985 . S
N1491 C1493 1.356 . S
N1491 H1496 0.984 . S
N1491 H1497 0.985 . S
C1492 C1486 1.379 . S
C1492 C1489 1.363 . S
C1492 N1490 1.356 . S
C1493 C1487 1.363 . S
C1493 C1488 1.379 . S
C1493 N1491 1.356 . S
N1494 C1486 1.356 . S
N1494 H1500 0.984 . S
N1494 H1501 0.984 . S
N1495 C1488 1.356 . S
N1495 H1498 0.984 . S
N1495 H1499 0.985 . S
H1496 N1491 0.984 . S
H1497 N1491 0.985 . S
H1498 N1495 0.984 . S
H1499 N1495 0.985 . S
H1500 N1494 0.984 . S
H1501 N1494 0.984 . S
H1502 N1490 0.984 . S
H1503 N1490 0.985 . S
C641 C7 1.155 . S
C643 C287 1.327 . S
C659 C51 1.196 . S
C661 C167 1.138 . S
C677 C207 0.793 . S
C679 C91 0.442 . S
C695 C131 1.100 . S
C697 C247 1.056 . S
C713 C456 1.049 . S
C715 C162 1.086 . S
C731 C322 2.925 . S
C733 C2 2.834 1_556 S
C749 C416 1.112 . S
C751 C242 1.165 . S
C767 C96 2.062 . S
C769 C362 2.049 . S
C785 C367 1.325 . S
C787 C487 1.152 . S
C803 C411 1.198 . S
C805 C567 1.140 . S
C821 C531 0.441 . S
C823 C327 0.792 . S
C839 C451 1.100 . S
C841 C607 1.057 . S
C857 C562 1.087 . S
C859 C136 1.049 . S
C875 C482 2.833 . S
C877 C202 2.926 . S
C893 C56 1.113 . S
C895 C602 1.167 1_554 S
C911 C282 2.049 . S
C913 C536 2.062 . S
C929 C539 0.942 . S
C931 C10 0.946 . S
C947 C459 0.768 . S
C949 C59 0.768 . S
C965 C490 0.938 . S
C967 C99 0.942 . S
C983 C419 0.768 . S
C985 C139 0.768 . S
C1001 C170 0.757 . S
C1003 C610 0.757 . S
C1019 C370 1.362 . S
C1021 C210 1.654 . S
C1037 C250 0.757 . S
C1039 C570 0.757 . S
C1055 C290 1.362 . S
C1057 C330 1.655 . S
C1073 C19 1.931 1_465 S
C1075 C179 1.892 . S
C1091 C50 1.750 . S
C1093 C219 1.788 . S
C1109 C259 1.948 . S
C1111 C90 1.955 . S
C1127 C130 2.171 . S
C1129 C299 2.127 . S
C1145 C410 1.752 . S
C1147 C339 1.790 . S
C1163 C450 2.171 . S
C1165 C379 2.127 . S
C1181 C499 1.933 . S
C1183 C579 1.891 . S
C1199 C619 1.948 . S
C1201 C530 1.954 . S
C1217 C11 3.673 . S
C1219 C291 3.698 . S
C1235 C47 2.062 . S
C1237 C171 2.189 . S
C1253 C211 2.946 . S
C1255 C87 2.866 . S
C1271 C251 2.161 . S
C1273 C127 2.025 . S
C1289 C442 2.145 . S
C1291 C176 2.020 . S
C1307 C336 0.822 . S
C1309 C16 0.822 . S
C1325 C402 2.148 1_554 S
C1327 C256 2.024 . S
C1343 C82 1.140 . S
C1345 C376 1.057 . S
C1361 C491 3.674 . S
C1363 C371 3.699 1_556 S
C1379 C571 2.190 . S
C1381 C407 2.063 . S
C1397 C527 2.866 . S
C1399 C331 2.946 . S
C1415 C611 2.161 . S
C1417 C447 2.026 . S
C1433 C576 2.017 . S
C1435 C122 2.142 . S
C1451 C216 0.823 . S
C1453 C496 0.820 . S
C1469 C42 2.147 . S
C1471 C616 2.024 . S
C1487 C522 1.140 . S
C1489 C296 1.058 . S
