# Generated by pormake.
# Topology umm, (4)-cn, num edge types: 1
# Building blocks:
#     Node 0, Type 0, BuildingBlock: GALJAG_clean_sbu_0, # of connection points: 4
#     Node 1, Type 0, BuildingBlock: GALJAG_clean_sbu_0, # of connection points: 4
#     Node 2, Type 0, BuildingBlock: GALJAG_clean_sbu_0, # of connection points: 4
#     Node 3, Type 0, BuildingBlock: GALJAG_clean_sbu_0, # of connection points: 4
#     Node 4, Type 0, BuildingBlock: GALJAG_clean_sbu_0, # of connection points: 4
#     Node 5, Type 0, BuildingBlock: GALJAG_clean_sbu_0, # of connection points: 4
#     Node 6, Type 0, BuildingBlock: GALJAG_clean_sbu_0, # of connection points: 4
#     Node 7, Type 0, BuildingBlock: GALJAG_clean_sbu_0, # of connection points: 4
#     Node 8, Type 0, BuildingBlock: GALJAG_clean_sbu_0, # of connection points: 4
#     Node 9, Type 0, BuildingBlock: GALJAG_clean_sbu_0, # of connection points: 4
#     Node 10, Type 0, BuildingBlock: GALJAG_clean_sbu_0, # of connection points: 4
#     Node 11, Type 0, BuildingBlock: GALJAG_clean_sbu_0, # of connection points: 4
#     Edge 12, Type (0, 0), BuildingBlock: CIFDUS_clean_linker_0, # of connection points: 2
#     Edge 13, Type (0, 0), BuildingBlock: CIFDUS_clean_linker_0, # of connection points: 2
#     Edge 14, Type (0, 0), BuildingBlock: CIFDUS_clean_linker_0, # of connection points: 2
#     Edge 15, Type (0, 0), BuildingBlock: CIFDUS_clean_linker_0, # of connection points: 2
#     Edge 16, Type (0, 0), BuildingBlock: CIFDUS_clean_linker_0, # of connection points: 2
#     Edge 17, Type (0, 0), BuildingBlock: CIFDUS_clean_linker_0, # of connection points: 2
#     Edge 18, Type (0, 0), BuildingBlock: CIFDUS_clean_linker_0, # of connection points: 2
#     Edge 19, Type (0, 0), BuildingBlock: CIFDUS_clean_linker_0, # of connection points: 2
#     Edge 20, Type (0, 0), BuildingBlock: CIFDUS_clean_linker_0, # of connection points: 2
#     Edge 21, Type (0, 0), BuildingBlock: CIFDUS_clean_linker_0, # of connection points: 2
#     Edge 22, Type (0, 0), BuildingBlock: CIFDUS_clean_linker_0, # of connection points: 2
#     Edge 23, Type (0, 0), BuildingBlock: CIFDUS_clean_linker_0, # of connection points: 2
#     Edge 24, Type (0, 0), BuildingBlock: CIFDUS_clean_linker_0, # of connection points: 2
#     Edge 25, Type (0, 0), BuildingBlock: CIFDUS_clean_linker_0, # of connection points: 2
#     Edge 26, Type (0, 0), BuildingBlock: CIFDUS_clean_linker_0, # of connection points: 2
#     Edge 27, Type (0, 0), BuildingBlock: CIFDUS_clean_linker_0, # of connection points: 2
#     Edge 28, Type (0, 0), BuildingBlock: CIFDUS_clean_linker_0, # of connection points: 2
#     Edge 29, Type (0, 0), BuildingBlock: CIFDUS_clean_linker_0, # of connection points: 2
#     Edge 30, Type (0, 0), BuildingBlock: CIFDUS_clean_linker_0, # of connection points: 2
#     Edge 31, Type (0, 0), BuildingBlock: CIFDUS_clean_linker_0, # of connection points: 2
#     Edge 32, Type (0, 0), BuildingBlock: CIFDUS_clean_linker_0, # of connection points: 2
#     Edge 33, Type (0, 0), BuildingBlock: CIFDUS_clean_linker_0, # of connection points: 2
#     Edge 34, Type (0, 0), BuildingBlock: CIFDUS_clean_linker_0, # of connection points: 2
#     Edge 35, Type (0, 0), BuildingBlock: CIFDUS_clean_linker_0, # of connection points: 2
# Relax obj value: 0.093
# Max RMSD: 0.220
# Mean RMSD: 0.220
data_MOF--net-umm--node1-GALJAG_clean_sbu_0--edge1-CIFDUS_clean_linker_0
_symmetry_space_group_name_H-M    P1
_symmetry_Int_Tables_number       1
_symmetry_cell_setting            triclinic
loop_
_symmetry_equiv_pos_as_xyz
'x, y, z'
_cell_length_a     48.977932
_cell_length_b     49.109284
_cell_length_c     25.043258
_cell_angle_alpha  90.042542
_cell_angle_beta   89.903626
_cell_angle_gamma 120.03712
loop_
_atom_site_label
_atom_site_type_symbol
_atom_site_fract_x
_atom_site_fract_y
_atom_site_fract_z
_atom_type_partial_charge
In0 In 0.38469 0.53002 0.08181 0.0
O1 O 0.40174 0.57292 0.13552 0.0
O2 O 0.38012 0.52734 0.17178 0.0
C3 C 0.39057 0.54816 0.97957 0.0
C4 C 0.43277 0.51824 0.08705 0.0
C5 C 0.32167 0.5003 0.07627 0.0
O6 O 0.40094 0.56813 0.0172 0.0
O7 O 0.37796 0.51978 0.99383 0.0
O8 O 0.33656 0.48549 0.07076 0.0
O9 O 0.33846 0.52924 0.08673 0.0
C10 C 0.39341 0.55682 0.17816 0.0
O11 O 0.4044 0.49641 0.09334 0.0
O12 O 0.43616 0.54499 0.07789 0.0
In13 In 0.85115 0.38597 0.42865 0.0
O14 O 0.82825 0.40013 0.49447 0.0
O15 O 0.85237 0.37566 0.51655 0.0
C16 C 0.83383 0.3974 0.33327 0.0
C17 C 0.91165 0.43326 0.43002 0.0
C18 C 0.81906 0.32355 0.41367 0.0
O19 O 0.82608 0.4053 0.37643 0.0
O20 O 0.8501 0.38425 0.3388 0.0
O21 O 0.84859 0.33954 0.40583 0.0
O22 O 0.80638 0.33886 0.43055 0.0
C23 C 0.83706 0.38876 0.53162 0.0
O24 O 0.90482 0.4047 0.4292 0.0
O25 O 0.88822 0.43732 0.43018 0.0
In26 In 0.44734 0.8465 0.75115 0.0
O27 O 0.4058 0.82824 0.80741 0.0
O28 O 0.4505 0.83947 0.8401 0.0
C29 C 0.42007 0.83591 0.65578 0.0
C30 C 0.47321 0.9094 0.75679 0.0
C31 C 0.46523 0.80485 0.72522 0.0
O32 O 0.40394 0.82919 0.69827 0.0
O33 O 0.44954 0.84912 0.66191 0.0
O34 O 0.48533 0.83397 0.72803 0.0
O35 O 0.43786 0.79735 0.74101 0.0
C36 C 0.42163 0.83007 0.84839 0.0
O37 O 0.4899 0.89647 0.76215 0.0
O38 O 0.44434 0.89064 0.74877 0.0
In39 In 0.61408 0.45865 0.06845 0.0
O40 O 0.59819 0.41511 0.11986 0.0
O41 O 0.62287 0.4604 0.15709 0.0
C42 C 0.60338 0.43861 0.96709 0.0
C43 C 0.56535 0.46862 0.08437 0.0
C44 C 0.67671 0.49417 0.05318 0.0
O45 O 0.60439 0.42148 0.00396 0.0
O46 O 0.60705 0.46471 0.98215 0.0
O47 O 0.65861 0.50547 0.04799 0.0
O48 O 0.66341 0.46596 0.06858 0.0
C49 C 0.60897 0.43082 0.16249 0.0
O50 O 0.59373 0.49094 0.08678 0.0
O51 O 0.56209 0.44196 0.07457 0.0
In52 In 0.15475 0.61199 0.4088 0.0
O53 O 0.17956 0.59976 0.47419 0.0
O54 O 0.15589 0.62456 0.49644 0.0
C55 C 0.17569 0.602 0.31538 0.0
C56 C 0.09484 0.56317 0.413 0.0
C57 C 0.17941 0.67333 0.38532 0.0
O58 O 0.18403 0.59581 0.35952 0.0
O59 O 0.15688 0.61235 0.31904 0.0
O60 O 0.15077 0.65334 0.37634 0.0
O61 O 0.19486 0.66266 0.40896 0.0
C62 C 0.17151 0.61182 0.51135 0.0
O63 O 0.10109 0.59141 0.4173 0.0
O64 O 0.11857 0.55997 0.40634 0.0
In65 In 0.53574 0.15039 0.75459 0.0
O66 O 0.57332 0.16789 0.81977 0.0
O67 O 0.52524 0.15015 0.8426 0.0
C68 C 0.566 0.16601 0.66026 0.0
C69 C 0.51125 0.08757 0.75519 0.0
C70 C 0.51437 0.19077 0.74441 0.0
O71 O 0.58077 0.17013 0.70374 0.0
O72 O 0.53657 0.15396 0.6649 0.0
O73 O 0.4973 0.16204 0.73183 0.0
O74 O 0.54118 0.19831 0.76311 0.0
C75 C 0.55362 0.1618 0.8572 0.0
O76 O 0.49381 0.09982 0.75528 0.0
O77 O 0.54043 0.10696 0.75443 0.0
In78 In 0.46445 0.60975 0.57822 0.0
O79 O 0.41994 0.58495 0.52757 0.0
O80 O 0.46357 0.61633 0.48896 0.0
C81 C 0.44735 0.59975 0.6813 0.0
C82 C 0.48791 0.57118 0.56376 0.0
C83 C 0.48455 0.67118 0.58851 0.0
O84 O 0.42701 0.58875 0.64427 0.0
O85 O 0.47568 0.6145 0.66595 0.0
O86 O 0.50383 0.66105 0.5901 0.0
O87 O 0.45631 0.65062 0.57862 0.0
C88 C 0.43433 0.59723 0.4843 0.0
O89 O 0.50513 0.60075 0.55853 0.0
O90 O 0.45978 0.56186 0.57726 0.0
In91 In 0.8551 0.46296 0.93139 0.0
O92 O 0.83049 0.42569 0.86657 0.0
O93 O 0.85449 0.47409 0.84367 0.0
C94 C 0.83658 0.43301 0.0258 0.0
C95 C 0.91532 0.47517 0.92635 0.0
C96 C 0.82678 0.49659 0.95244 0.0
O97 O 0.82811 0.41796 0.98213 0.0
O98 O 0.85427 0.4623 0.02118 0.0
O99 O 0.85583 0.5073 0.96163 0.0
O100 O 0.81279 0.46993 0.93019 0.0
C101 C 0.83874 0.44566 0.82916 0.0
O102 O 0.90872 0.49703 0.92482 0.0
O103 O 0.89179 0.44792 0.93063 0.0
In104 In 0.38303 0.85186 0.25362 0.0
O105 O 0.39752 0.82486 0.19823 0.0
O106 O 0.37651 0.84997 0.16414 0.0
C107 C 0.3901 0.83189 0.34876 0.0
C108 C 0.43236 0.91138 0.25136 0.0
C109 C 0.32044 0.82492 0.26983 0.0
O110 O 0.39763 0.82322 0.30634 0.0
O111 O 0.37994 0.85069 0.34257 0.0
O112 O 0.33929 0.85337 0.28179 0.0
O113 O 0.33292 0.81128 0.24578 0.0
C114 C 0.38881 0.83294 0.15656 0.0
O115 O 0.4044 0.90552 0.24313 0.0
O116 O 0.43485 0.88752 0.26054 0.0
In117 In 0.54382 0.39013 0.56149 0.0
O118 O 0.58802 0.411 0.50988 0.0
O119 O 0.54505 0.37573 0.47549 0.0
C120 C 0.56773 0.41456 0.65714 0.0
C121 C 0.51986 0.42781 0.54135 0.0
C122 C 0.51674 0.33029 0.5953 0.0
O123 O 0.58287 0.40752 0.6243 0.0
O124 O 0.54126 0.40977 0.64139 0.0
O125 O 0.50106 0.33957 0.56839 0.0
O126 O 0.54531 0.35046 0.60232 0.0
C127 C 0.57404 0.39505 0.469 0.0
O128 O 0.50222 0.39868 0.55067 0.0
O129 O 0.54899 0.43712 0.54036 0.0
In130 In 0.1591 0.54123 0.91378 0.0
O131 O 0.10535 0.50714 0.91295 0.0
O132 O 0.12252 0.55636 0.91707 0.0
C133 C 0.18849 0.508 0.92709 0.0
C134 C 0.17227 0.55774 0.81031 0.0
C135 C 0.17951 0.57066 0.00835 0.0
O136 O 0.15967 0.49671 0.93915 0.0
O137 O 0.20175 0.53518 0.90667 0.0
O138 O 0.18637 0.58599 0.96493 0.0
O139 O 0.16269 0.54128 0.00342 0.0
C140 C 0.09886 0.52906 0.91543 0.0
O141 O 0.18205 0.57806 0.84736 0.0
O142 O 0.15644 0.52948 0.82571 0.0
In143 In 0.61517 0.1526 0.25739 0.0
O144 O 0.59496 0.09887 0.25613 0.0
O145 O 0.56342 0.11697 0.2564 0.0
C146 C 0.67791 0.18629 0.26892 0.0
C147 C 0.61174 0.16448 0.15416 0.0
C148 C 0.6043 0.16971 0.3531 0.0
O149 O 0.66266 0.15717 0.28016 0.0
O150 O 0.66165 0.1976 0.2506 0.0
O151 O 0.59691 0.17825 0.31028 0.0
O152 O 0.61679 0.15283 0.34697 0.0
C153 C 0.56658 0.09303 0.25551 0.0
O154 O 0.60122 0.17472 0.19066 0.0
O155 O 0.62433 0.14886 0.1701 0.0
H156 H 0.36548 0.52955 0.27198 0.0
H157 H 0.4389 0.61631 0.20441 0.0
H158 H 0.4568 0.6376 0.29401 0.0
H159 H 0.45463 0.62947 0.39128 0.0
H160 H 0.38004 0.54347 0.45897 0.0
H161 H 0.35926 0.52405 0.36964 0.0
C162 C 0.38514 0.55326 0.27697 0.0
C163 C 0.40111 0.57122 0.2318 0.0
C164 C 0.39515 0.56539 0.32855 0.0
C165 C 0.42627 0.60204 0.23864 0.0
C166 C 0.4366 0.61416 0.28984 0.0
C167 C 0.43357 0.60666 0.38643 0.0
C168 C 0.41907 0.58775 0.43146 0.0
C169 C 0.4217 0.59574 0.33503 0.0
C170 C 0.3916 0.55843 0.42485 0.0
C171 C 0.37982 0.54725 0.37379 0.0
H172 H 0.8304 0.43506 0.57813 0.0
H173 H 0.8332 0.35057 0.61324 0.0
H174 H 0.83016 0.35878 0.70892 0.0
H175 H 0.83125 0.39238 0.78287 0.0
H176 H 0.83408 0.47967 0.74775 0.0
H177 H 0.8301 0.46799 0.65216 0.0
C178 C 0.82984 0.41824 0.6068 0.0
C179 C 0.83192 0.39222 0.58881 0.0
C180 C 0.8293 0.42376 0.66182 0.0
C181 C 0.83168 0.37082 0.62626 0.0
C182 C 0.82997 0.37552 0.68094 0.0
C183 C 0.83046 0.40854 0.75424 0.0
C184 C 0.83282 0.43676 0.77219 0.0
C185 C 0.82942 0.40224 0.69925 0.0
C186 C 0.83231 0.4578 0.73476 0.0
C187 C 0.8301 0.45116 0.68013 0.0
H188 H 0.44499 0.81959 0.93932 0.0
H189 H 0.36801 0.82937 0.87822 0.0
H190 H 0.34946 0.82876 0.96893 0.0
H191 H 0.35827 0.83079 0.06563 0.0
H192 H 0.43385 0.81894 0.12719 0.0
H193 H 0.44963 0.81464 0.03628 0.0
C194 C 0.42393 0.82116 0.94598 0.0
C195 C 0.40812 0.82495 0.90244 0.0
C196 C 0.41327 0.8206 0.99821 0.0
C197 C 0.38062 0.82653 0.91128 0.0
C198 C 0.37007 0.82633 0.96309 0.0
C199 C 0.37792 0.82685 0.05901 0.0
C200 C 0.39517 0.8256 0.10265 0.0
C201 C 0.38669 0.8242 0.00684 0.0
C202 C 0.42029 0.82003 0.09396 0.0
C203 C 0.42942 0.81773 0.04207 0.0
H204 H 0.6413 0.45668 0.25344 0.0
H205 H 0.56261 0.37199 0.19053 0.0
H206 H 0.54658 0.3514 0.28109 0.0
H207 H 0.55122 0.36074 0.37818 0.0
H208 H 0.63046 0.44528 0.44059 0.0
H209 H 0.65032 0.46244 0.35021 0.0
C210 C 0.62096 0.43348 0.25961 0.0
C211 C 0.60287 0.41604 0.21566 0.0
C212 C 0.6119 0.42188 0.31165 0.0
C213 C 0.57684 0.38586 0.22389 0.0
C214 C 0.56758 0.37417 0.27564 0.0
C215 C 0.57315 0.38261 0.37198 0.0
C216 C 0.5891 0.40194 0.41584 0.0
C217 C 0.58435 0.39244 0.31985 0.0
C218 C 0.61767 0.43005 0.40742 0.0
C219 C 0.62896 0.43998 0.35573 0.0
H220 H 0.17792 0.56566 0.55878 0.0
H221 H 0.17693 0.65127 0.5921 0.0
H222 H 0.18064 0.64395 0.68793 0.0
H223 H 0.17974 0.61085 0.76277 0.0
H224 H 0.17507 0.5225 0.72926 0.0
H225 H 0.17821 0.5332 0.63342 0.0
C226 C 0.17906 0.58295 0.58706 0.0
C227 C 0.17733 0.60905 0.5685 0.0
C228 C 0.17992 0.57791 0.6422 0.0
C229 C 0.17824 0.63099 0.60553 0.0
C230 C 0.1803 0.62678 0.66031 0.0
C231 C 0.1799 0.59422 0.73441 0.0
C232 C 0.17729 0.566 0.75294 0.0
C233 C 0.18051 0.6 0.67921 0.0
C234 C 0.177 0.54438 0.71585 0.0
C235 C 0.17877 0.55046 0.66106 0.0
H236 H 0.56661 0.17298 0.10773 0.0
H237 H 0.64778 0.16378 0.07221 0.0
H238 H 0.63867 0.16507 0.9765 0.0
H239 H 0.60537 0.165 0.90292 0.0
H240 H 0.52148 0.1693 0.93893 0.0
H241 H 0.53387 0.17388 0.03416 0.0
C242 C 0.58253 0.17174 0.07893 0.0
C243 C 0.60787 0.16843 0.09679 0.0
C244 C 0.57648 0.17137 0.02403 0.0
C245 C 0.62808 0.16632 0.05924 0.0
C246 C 0.62286 0.16701 0.00457 0.0
C247 C 0.59005 0.16732 0.93166 0.0
C248 C 0.5626 0.16685 0.9141 0.0
C249 C 0.5968 0.16895 0.98648 0.0
C250 C 0.5427 0.16948 0.95165 0.0
C251 C 0.54977 0.17212 0.00606 0.0
H252 H 0.3009 0.4867 0.97599 0.0
H253 H 0.27112 0.48991 0.13647 0.0
H254 H 0.222 0.4853 0.1027 0.0
H255 H 0.19295 0.49067 0.02702 0.0
H256 H 0.22806 0.49697 0.86711 0.0
H257 H 0.26929 0.48703 0.90028 0.0
C258 C 0.28294 0.48502 0.00344 0.0
C259 C 0.28899 0.48782 0.05853 0.0
C260 C 0.25596 0.48461 0.98344 0.0
C261 C 0.26642 0.48703 0.09397 0.0
C262 C 0.23858 0.48478 0.07457 0.0
C263 C 0.20895 0.48863 -0.00055 0.0
C264 C 0.20736 0.49397 0.94473 0.0
C265 C 0.23377 0.48496 0.01932 0.0
C266 C 0.22877 0.49248 0.90929 0.0
C267 C 0.25243 0.48705 0.92833 0.0
H268 H 0.80784 0.3059 0.31146 0.0
H269 H 0.78417 0.27046 0.47201 0.0
H270 H 0.74105 0.22033 0.43853 0.0
H271 H 0.70467 0.19079 0.365 0.0
H272 H 0.72399 0.23043 0.20676 0.0
H273 H 0.77435 0.27436 0.23699 0.0
C274 C 0.7939 0.28666 0.33871 0.0
C275 C 0.79934 0.29131 0.39384 0.0
C276 C 0.76808 0.25882 0.31934 0.0
C277 C 0.78058 0.26693 0.42932 0.0
C278 C 0.7558 0.23847 0.41017 0.0
C279 C 0.72057 0.20848 0.33692 0.0
C280 C 0.71109 0.2073 0.28365 0.0
C281 C 0.74854 0.23463 0.35545 0.0
C282 C 0.73118 0.2308 0.24779 0.0
C283 C 0.7598 0.256 0.26518 0.0
H284 H 0.51348 0.79096 0.72305 0.0
H285 H 0.42614 0.77071 0.64758 0.0
H286 H 0.42795 0.73155 0.59092 0.0
H287 H 0.45034 0.69878 0.57002 0.0
H288 H 0.53511 0.71403 0.64835 0.0
H289 H 0.53895 0.75976 0.6954 0.0
C290 C 0.49513 0.77803 0.69387 0.0
C291 C 0.46934 0.78307 0.69022 0.0
C292 C 0.49588 0.75469 0.66186 0.0
C293 C 0.44578 0.76656 0.65197 0.0
C294 C 0.44687 0.74431 0.61927 0.0
C295 C 0.47004 0.71247 0.5966 0.0
C296 C 0.49221 0.70295 0.60607 0.0
C297 C 0.47124 0.73756 0.62494 0.0
C298 C 0.51777 0.72103 0.64024 0.0
C299 C 0.51974 0.74693 0.66764 0.0
H300 H 0.7306 0.50521 0.10197 0.0
H301 H 0.69285 0.51318 0.95143 0.0
H302 H 0.73951 0.51913 0.90493 0.0
H303 H 0.78581 0.5115 0.90635 0.0
H304 H 0.82541 0.50729 0.05743 0.0
H305 H 0.78373 0.51104 0.10485 0.0
C306 C 0.73335 0.50964 0.05931 0.0
C307 C 0.70855 0.50882 0.03 0.0
C308 C 0.76034 0.51323 0.03298 0.0
C309 C 0.71197 0.51421 0.97472 0.0
C310 C 0.73844 0.51718 0.94808 0.0
C311 C 0.78592 0.51271 0.94961 0.0
C312 C 0.80844 0.50911 0.97854 0.0
C313 C 0.76206 0.51524 0.97657 0.0
C314 C 0.80843 0.51044 0.03452 0.0
C315 C 0.78441 0.51223 0.06162 0.0
H316 H 0.22023 0.73059 0.42745 0.0
H317 H 0.17667 0.68342 0.28036 0.0
H318 H 0.21469 0.72924 0.22916 0.0
H319 H 0.26603 0.77871 0.22669 0.0
H320 H 0.30729 0.82767 0.37365 0.0
H321 H 0.26416 0.78573 0.42458 0.0
C322 C 0.21845 0.73093 0.38431 0.0
C323 C 0.1959 0.70383 0.35755 0.0
C324 C 0.24013 0.75758 0.35516 0.0
C325 C 0.19371 0.70426 0.30169 0.0
C326 C 0.21564 0.73033 0.27239 0.0
C327 C 0.26477 0.78073 0.26966 0.0
C328 C 0.2897 0.80609 0.29647 0.0
C329 C 0.23974 0.7566 0.29866 0.0
C330 C 0.28809 0.80851 0.35215 0.0
C331 C 0.26365 0.78431 0.38136 0.0
H332 H 0.4808 0.19328 0.65959 0.0
H333 H 0.5315 0.24363 0.80053 0.0
H334 H 0.5318 0.29076 0.76934 0.0
H335 H 0.5264 0.31987 0.69551 0.0
H336 H 0.47827 0.27181 0.55177 0.0
H337 H 0.46773 0.22136 0.59043 0.0
C338 C 0.49089 0.21429 0.68414 0.0
C339 C 0.50632 0.21521 0.73206 0.0
C340 C 0.49195 0.24177 0.66493 0.0
C341 C 0.51967 0.24256 0.76339 0.0
C342 C 0.52001 0.26953 0.74545 0.0
C343 C 0.51292 0.29816 0.67321 0.0
C344 C 0.50339 0.29929 0.6209 0.0
C345 C 0.5076 0.26978 0.69525 0.0
C346 C 0.48574 0.27127 0.59225 0.0
C347 C 0.47998 0.24257 0.61422 0.0
H348 H 0.43357 0.463 0.09447 0.0
H349 H 0.49444 0.56366 0.08565 0.0
H350 H 0.54079 0.55756 0.08694 0.0
H351 H 0.56443 0.52367 0.08723 0.0
H352 H 0.50382 0.42295 0.09346 0.0
H353 H 0.45737 0.42904 0.09686 0.0
C354 C 0.45698 0.48355 0.0931 0.0
C355 C 0.46045 0.51368 0.08978 0.0
C356 C 0.48375 0.47991 0.09334 0.0
C357 C 0.49101 0.54012 0.08796 0.0
C358 C 0.51763 0.53671 0.08874 0.0
C359 C 0.54107 0.5031 0.08979 0.0
C360 C 0.53764 0.47295 0.09003 0.0
C361 C 0.51433 0.50672 0.09097 0.0
C362 C 0.50716 0.44648 0.09307 0.0
C363 C 0.48052 0.44991 0.09496 0.0
H364 H 0.96699 0.43283 0.41771 0.0
H365 H 0.92949 0.49486 0.44214 0.0
H366 H 0.98249 0.54039 0.43952 0.0
H367 H 0.03968 0.56304 0.42881 0.0
H368 H 0.07746 0.50134 0.40354 0.0
H369 H 0.02449 0.45558 0.40784 0.0
C370 C 0.97048 0.4563 0.42266 0.0
C371 C 0.94429 0.46036 0.43001 0.0
C372 C 0.00116 0.4826 0.42074 0.0
C373 C 0.94921 0.49099 0.43624 0.0
C374 C 0.97955 0.51713 0.43474 0.0
C375 C 0.0363 0.53958 0.42425 0.0
C376 C 0.06249 0.53568 0.41577 0.0
C377 C 0.00571 0.51327 0.4267 0.0
C378 C 0.0577 0.50507 0.41005 0.0
C379 C 0.02739 0.47882 0.41253 0.0
H380 H 0.5452 0.05788 0.76237 0.0
H381 H 0.44981 0.04028 0.75004 0.0
H382 H 0.42988 0.98357 0.75017 0.0
H383 H 0.43963 0.93932 0.75263 0.0
H384 H 0.53484 0.95654 0.76568 0.0
H385 H 0.55489 0.01337 0.76661 0.0
C386 C 0.52003 0.04164 0.75973 0.0
C387 C 0.49898 0.05325 0.756 0.0
C388 C 0.50879 0.00914 0.75998 0.0
C389 C 0.46646 0.03193 0.75287 0.0
C390 C 0.45509 -0.00046 0.75293 0.0
C391 C 0.4648 0.95547 0.75575 0.0
C392 C 0.48578 0.94375 0.75892 0.0
C393 C 0.47605 0.98793 0.7563 0.0
C394 C 0.51826 0.96499 0.76317 0.0
C395 C 0.52969 0.99744 0.76364 0.0
H396 H 0.45241 0.50778 0.56212 0.0
H397 H 0.54818 0.58386 0.54366 0.0
H398 H 0.56608 0.5458 0.53083 0.0
H399 H 0.5547 0.49105 0.52932 0.0
H400 H 0.45893 0.41515 0.54914 0.0
H401 H 0.44069 0.45316 0.5562 0.0
C402 C 0.47723 0.51609 0.5552 0.0
C403 C 0.49903 0.5486 0.55434 0.0
C404 C 0.48725 0.49414 0.54788 0.0
C405 C 0.531 0.55897 0.54478 0.0
C406 C 0.54121 0.53722 0.53741 0.0
C407 C 0.52976 0.48278 0.53456 0.0
C408 C 0.50817 0.4503 0.53884 0.0
C409 C 0.51957 0.50477 0.53942 0.0
C410 C 0.47599 0.43999 0.54566 0.0
C411 C 0.46559 0.46172 0.54997 0.0
H412 H 0.04332 0.47314 0.91629 0.0
H413 H 0.08146 0.57364 0.91718 0.0
H414 H 0.02839 0.56616 0.91996 0.0
H415 H 0.97081 0.53109 0.92298 0.0
H416 H 0.93269 0.4306 0.92305 0.0
H417 H 0.98574 0.43807 0.919 0.0
C418 C 0.03997 0.49336 0.91702 0.0
C419 C 0.06633 0.52385 0.91655 0.0
C420 C 0.00928 0.48894 0.91884 0.0
C421 C 0.06159 0.54985 0.91756 0.0
C422 C 0.03121 0.54564 0.91915 0.0
C423 C 0.97415 0.51087 0.92204 0.0
C424 C 0.94781 0.48038 0.92339 0.0
C425 C 0.00484 0.51529 0.91993 0.0
C426 C 0.95255 0.45438 0.92218 0.0
C427 C 0.98292 0.45859 0.91984 0.0
H428 H 0.43422 0.96782 0.2449 0.0
H429 H 0.49379 0.92664 0.25738 0.0
H430 H 0.5406 0.9788 0.25913 0.0
H431 H 0.56497 0.03652 0.25837 0.0
H432 H 0.50522 0.07759 0.24754 0.0
H433 H 0.45855 0.02546 0.24397 0.0
C434 C 0.45745 0.97031 0.24781 0.0
C435 C 0.46043 0.94337 0.25101 0.0
C436 C 0.48442 0.00048 0.24927 0.0
C437 C 0.49075 0.94699 0.25497 0.0
C438 C 0.51762 0.97685 0.25599 0.0
C439 C 0.54174 0.03401 0.25518 0.0
C440 C 0.53868 0.06095 0.25329 0.0
C441 C 0.51478 0.00381 0.2534 0.0
C442 C 0.50834 0.05728 0.2492 0.0
C443 C 0.48154 0.02743 0.24709 0.0
H444 H 0.39321 0.55534 0.72878 0.0
H445 H 0.48367 0.63686 0.76196 0.0
H446 H 0.47249 0.63045 0.85755 0.0
H447 H 0.43869 0.59933 0.93234 0.0
H448 H 0.35039 0.51514 0.89968 0.0
H449 H 0.35866 0.52503 0.80368 0.0
C450 C 0.41026 0.5718 0.75703 0.0
C451 C 0.43923 0.59637 0.73855 0.0
C452 C 0.40405 0.56746 0.81212 0.0
C453 C 0.46129 0.61752 0.77541 0.0
C454 C 0.45491 0.61394 0.83005 0.0
C455 C 0.42109 0.58354 0.90408 0.0
C456 C 0.39402 0.55666 0.92267 0.0
C457 C 0.4266 0.5887 0.84896 0.0
C458 C 0.3715 0.53599 0.88594 0.0
C459 C 0.37624 0.54157 0.83114 0.0
H460 H 0.82596 0.36454 0.24263 0.0
H461 H 0.82653 0.44686 0.30413 0.0
H462 H 0.82454 0.46386 0.21295 0.0
H463 H 0.82886 0.45817 0.11612 0.0
H464 H 0.82644 0.37502 0.05437 0.0
H465 H 0.82247 0.35507 0.14551 0.0
C466 C 0.82512 0.38595 0.23596 0.0
C467 C 0.8268 0.40472 0.27972 0.0
C468 C 0.82384 0.39541 0.18359 0.0
C469 C 0.82525 0.43211 0.27093 0.0
C470 C 0.82432 0.4419 0.21887 0.0
C471 C 0.82695 0.43543 0.1227 0.0
C472 C 0.82836 0.41818 0.07896 0.0
C473 C 0.82455 0.42419 0.17497 0.0
C474 C 0.8254 0.38862 0.08759 0.0
C475 C 0.82334 0.37736 0.13962 0.0
H476 H 0.44331 0.82241 0.5692 0.0
H477 H 0.36546 0.83281 0.62385 0.0
H478 H 0.34655 0.82794 0.53185 0.0
H479 H 0.35648 0.82768 0.43592 0.0
H480 H 0.43418 0.81706 0.38119 0.0
H481 H 0.44865 0.81428 0.47384 0.0
C482 C 0.42203 0.82331 0.56083 0.0
C483 C 0.40609 0.82871 0.60244 0.0
C484 C 0.41142 0.82043 0.50825 0.0
C485 C 0.37814 0.82898 0.59195 0.0
C486 C 0.36744 0.82628 0.53955 0.0
C487 C 0.37625 0.82419 0.44444 0.0
C488 C 0.39469 0.82314 0.40242 0.0
C489 C 0.38451 0.82302 0.49738 0.0
C490 C 0.41982 0.81801 0.41329 0.0
C491 C 0.4282 0.8167 0.46608 0.0
H492 H 0.58736 0.38775 0.7305 0.0
H493 H 0.56992 0.46452 0.70516 0.0
H494 H 0.58054 0.47923 0.79929 0.0
H495 H 0.5916 0.46845 0.88878 0.0
H496 H 0.60522 0.38948 0.91786 0.0
H497 H 0.59882 0.37694 0.82212 0.0
C498 C 0.58661 0.40805 0.74573 0.0
C499 C 0.57852 0.42552 0.71145 0.0
C500 C 0.5914 0.41548 0.80036 0.0
C501 C 0.57653 0.45116 0.7312 0.0
C502 C 0.58237 0.45938 0.78487 0.0
C503 C 0.59326 0.4485 0.87428 0.0
C504 C 0.59882 0.42986 0.91017 0.0
C505 C 0.58926 0.44138 0.81986 0.0
C506 C 0.60075 0.40403 0.89087 0.0
C507 C 0.59726 0.39699 0.83621 0.0
H508 H 0.18826 0.54578 0.09833 0.0
H509 H 0.18807 0.62788 0.03793 0.0
H510 H 0.1903 0.64673 0.12934 0.0
H511 H 0.18506 0.63598 0.22599 0.0
H512 H 0.18682 0.55476 0.28667 0.0
H513 H 0.19169 0.53949 0.19539 0.0
C514 C 0.18933 0.56811 0.10527 0.0
C515 C 0.18756 0.58529 0.06174 0.0
C516 C 0.19063 0.57871 0.1578 0.0
C517 C 0.1894 0.61433 0.07091 0.0
C518 C 0.19044 0.62495 0.12312 0.0
C519 C 0.18712 0.61526 0.21916 0.0
C520 C 0.18515 0.5962 0.2626 0.0
C521 C 0.18997 0.60678 0.1668 0.0
C522 C 0.18829 0.5697 0.25369 0.0
C523 C 0.19084 0.5609 0.20156 0.0
H524 H 0.54435 0.17811 0.56957 0.0
H525 H 0.62129 0.16893 0.63236 0.0
H526 H 0.64172 0.17218 0.5418 0.0
H527 H 0.63425 0.17195 0.44465 0.0
H528 H 0.55808 0.18245 0.38193 0.0
H529 H 0.54089 0.18484 0.47291 0.0
C530 C 0.56582 0.17722 0.56339 0.0
C531 C 0.58111 0.17282 0.60724 0.0
C532 C 0.57738 0.17921 0.51141 0.0
C533 C 0.60914 0.17223 0.59907 0.0
C534 C 0.6207 0.17393 0.54735 0.0
C535 C 0.61414 0.17521 0.451 0.0
C536 C 0.59712 0.1766 0.40692 0.0
C537 C 0.60451 0.17656 0.50322 0.0
C538 C 0.57146 0.1813 0.41538 0.0
C539 C 0.56155 0.18246 0.46731 0.0
loop_
_geom_bond_atom_site_label_1
_geom_bond_atom_site_label_2
_geom_bond_distance
_geom_bond_site_symmetry_2
_ccdc_geom_bond_type
In0 O1 2.294 . S
In0 O2 2.326 . S
In0 O6 2.266 . S
In0 O7 2.326 1_554 S
In0 O8 2.266 . S
In0 O9 2.326 . S
In0 O11 2.294 . S
In0 O12 2.326 . S
O1 In0 2.294 . S
O1 C10 1.240 . S
O2 In0 2.326 . S
O2 C10 1.252 . S
C3 O6 1.252 1_556 S
C3 O7 1.260 . S
C4 O11 1.240 . S
C4 O12 1.252 . S
C5 O8 1.252 . S
C5 O9 1.260 . S
O6 In0 2.266 . S
O6 C3 1.252 1_554 S
O7 In0 2.326 1_556 S
O7 C3 1.260 . S
O8 In0 2.266 . S
O8 C5 1.252 . S
O9 In0 2.326 . S
O9 C5 1.260 . S
C10 O1 1.240 . S
C10 O2 1.252 . S
O11 In0 2.294 . S
O11 C4 1.240 . S
O12 In0 2.326 . S
O12 C4 1.252 . S
In13 O14 2.294 . S
In13 O15 2.326 . S
In13 O19 2.266 . S
In13 O20 2.326 . S
In13 O21 2.266 . S
In13 O22 2.326 . S
In13 O24 2.294 . S
In13 O25 2.326 . S
O14 In13 2.294 . S
O14 C23 1.240 . S
O15 In13 2.326 . S
O15 C23 1.252 . S
C16 O19 1.252 . S
C16 O20 1.260 . S
C17 O24 1.240 . S
C17 O25 1.252 . S
C18 O21 1.252 . S
C18 O22 1.260 . S
O19 In13 2.266 . S
O19 C16 1.252 . S
O20 In13 2.326 . S
O20 C16 1.260 . S
O21 In13 2.266 . S
O21 C18 1.252 . S
O22 In13 2.326 . S
O22 C18 1.260 . S
C23 O14 1.240 . S
C23 O15 1.252 . S
O24 In13 2.294 . S
O24 C17 1.240 . S
O25 In13 2.326 . S
O25 C17 1.252 . S
In26 O27 2.294 . S
In26 O28 2.326 . S
In26 O32 2.266 . S
In26 O33 2.326 . S
In26 O34 2.266 . S
In26 O35 2.326 . S
In26 O37 2.294 . S
In26 O38 2.326 . S
O27 In26 2.294 . S
O27 C36 1.240 . S
O28 In26 2.326 . S
O28 C36 1.252 . S
C29 O32 1.252 . S
C29 O33 1.260 . S
C30 O37 1.240 . S
C30 O38 1.252 . S
C31 O34 1.252 . S
C31 O35 1.260 . S
O32 In26 2.266 . S
O32 C29 1.252 . S
O33 In26 2.326 . S
O33 C29 1.260 . S
O34 In26 2.266 . S
O34 C31 1.252 . S
O35 In26 2.326 . S
O35 C31 1.260 . S
C36 O27 1.240 . S
C36 O28 1.252 . S
O37 In26 2.294 . S
O37 C30 1.240 . S
O38 In26 2.326 . S
O38 C30 1.252 . S
In39 O40 2.294 . S
In39 O41 2.326 . S
In39 O45 2.266 . S
In39 O46 2.326 1_554 S
In39 O47 2.266 . S
In39 O48 2.326 . S
In39 O50 2.294 . S
In39 O51 2.326 . S
O40 In39 2.294 . S
O40 C49 1.240 . S
O41 In39 2.326 . S
O41 C49 1.252 . S
C42 O45 1.252 1_556 S
C42 O46 1.260 . S
C43 O50 1.240 . S
C43 O51 1.252 . S
C44 O47 1.252 . S
C44 O48 1.260 . S
O45 In39 2.266 . S
O45 C42 1.252 1_554 S
O46 In39 2.326 1_556 S
O46 C42 1.260 . S
O47 In39 2.266 . S
O47 C44 1.252 . S
O48 In39 2.326 . S
O48 C44 1.260 . S
C49 O40 1.240 . S
C49 O41 1.252 . S
O50 In39 2.294 . S
O50 C43 1.240 . S
O51 In39 2.326 . S
O51 C43 1.252 . S
In52 O53 2.294 . S
In52 O54 2.326 . S
In52 O58 2.266 . S
In52 O59 2.326 . S
In52 O60 2.266 . S
In52 O61 2.326 . S
In52 O63 2.294 . S
In52 O64 2.326 . S
O53 In52 2.294 . S
O53 C62 1.240 . S
O54 In52 2.326 . S
O54 C62 1.252 . S
C55 O58 1.252 . S
C55 O59 1.260 . S
C56 O63 1.240 . S
C56 O64 1.252 . S
C57 O60 1.252 . S
C57 O61 1.260 . S
O58 In52 2.266 . S
O58 C55 1.252 . S
O59 In52 2.326 . S
O59 C55 1.260 . S
O60 In52 2.266 . S
O60 C57 1.252 . S
O61 In52 2.326 . S
O61 C57 1.260 . S
C62 O53 1.240 . S
C62 O54 1.252 . S
O63 In52 2.294 . S
O63 C56 1.240 . S
O64 In52 2.326 . S
O64 C56 1.252 . S
In65 O66 2.294 . S
In65 O67 2.326 . S
In65 O71 2.266 . S
In65 O72 2.326 . S
In65 O73 2.266 . S
In65 O74 2.326 . S
In65 O76 2.294 . S
In65 O77 2.326 . S
O66 In65 2.294 . S
O66 C75 1.240 . S
O67 In65 2.326 . S
O67 C75 1.252 . S
C68 O71 1.252 . S
C68 O72 1.260 . S
C69 O76 1.240 . S
C69 O77 1.252 . S
C70 O73 1.252 . S
C70 O74 1.260 . S
O71 In65 2.266 . S
O71 C68 1.252 . S
O72 In65 2.326 . S
O72 C68 1.260 . S
O73 In65 2.266 . S
O73 C70 1.252 . S
O74 In65 2.326 . S
O74 C70 1.260 . S
C75 O66 1.240 . S
C75 O67 1.252 . S
O76 In65 2.294 . S
O76 C69 1.240 . S
O77 In65 2.326 . S
O77 C69 1.252 . S
In78 O79 2.294 . S
In78 O80 2.326 . S
In78 O84 2.266 . S
In78 O85 2.326 . S
In78 O86 2.266 . S
In78 O87 2.326 . S
In78 O89 2.294 . S
In78 O90 2.326 . S
O79 In78 2.294 . S
O79 C88 1.240 . S
O80 In78 2.326 . S
O80 C88 1.252 . S
C81 O84 1.252 . S
C81 O85 1.260 . S
C82 O89 1.240 . S
C82 O90 1.252 . S
C83 O86 1.252 . S
C83 O87 1.260 . S
O84 In78 2.266 . S
O84 C81 1.252 . S
O85 In78 2.326 . S
O85 C81 1.260 . S
O86 In78 2.266 . S
O86 C83 1.252 . S
O87 In78 2.326 . S
O87 C83 1.260 . S
C88 O79 1.240 . S
C88 O80 1.252 . S
O89 In78 2.294 . S
O89 C82 1.240 . S
O90 In78 2.326 . S
O90 C82 1.252 . S
In91 O92 2.294 . S
In91 O93 2.326 . S
In91 O97 2.266 . S
In91 O98 2.326 1_556 S
In91 O99 2.266 . S
In91 O100 2.326 . S
In91 O102 2.294 . S
In91 O103 2.326 . S
O92 In91 2.294 . S
O92 C101 1.240 . S
O93 In91 2.326 . S
O93 C101 1.252 . S
C94 O97 1.252 1_554 S
C94 O98 1.260 . S
C95 O102 1.240 . S
C95 O103 1.252 . S
C96 O99 1.252 . S
C96 O100 1.260 . S
O97 In91 2.266 . S
O97 C94 1.252 1_556 S
O98 In91 2.326 1_554 S
O98 C94 1.260 . S
O99 In91 2.266 . S
O99 C96 1.252 . S
O100 In91 2.326 . S
O100 C96 1.260 . S
C101 O92 1.240 . S
C101 O93 1.252 . S
O102 In91 2.294 . S
O102 C95 1.240 . S
O103 In91 2.326 . S
O103 C95 1.252 . S
In104 O105 2.294 . S
In104 O106 2.326 . S
In104 O110 2.266 . S
In104 O111 2.326 . S
In104 O112 2.266 . S
In104 O113 2.326 . S
In104 O115 2.294 . S
In104 O116 2.326 . S
O105 In104 2.294 . S
O105 C114 1.240 . S
O106 In104 2.326 . S
O106 C114 1.252 . S
C107 O110 1.252 . S
C107 O111 1.260 . S
C108 O115 1.240 . S
C108 O116 1.252 . S
C109 O112 1.252 . S
C109 O113 1.260 . S
O110 In104 2.266 . S
O110 C107 1.252 . S
O111 In104 2.326 . S
O111 C107 1.260 . S
O112 In104 2.266 . S
O112 C109 1.252 . S
O113 In104 2.326 . S
O113 C109 1.260 . S
C114 O105 1.240 . S
C114 O106 1.252 . S
O115 In104 2.294 . S
O115 C108 1.240 . S
O116 In104 2.326 . S
O116 C108 1.252 . S
In117 O118 2.294 . S
In117 O119 2.326 . S
In117 O123 2.266 . S
In117 O124 2.326 . S
In117 O125 2.266 . S
In117 O126 2.326 . S
In117 O128 2.294 . S
In117 O129 2.326 . S
O118 In117 2.294 . S
O118 C127 1.240 . S
O119 In117 2.326 . S
O119 C127 1.252 . S
C120 O123 1.252 . S
C120 O124 1.260 . S
C121 O128 1.240 . S
C121 O129 1.252 . S
C122 O125 1.252 . S
C122 O126 1.260 . S
O123 In117 2.266 . S
O123 C120 1.252 . S
O124 In117 2.326 . S
O124 C120 1.260 . S
O125 In117 2.266 . S
O125 C122 1.252 . S
O126 In117 2.326 . S
O126 C122 1.260 . S
C127 O118 1.240 . S
C127 O119 1.252 . S
O128 In117 2.294 . S
O128 C121 1.240 . S
O129 In117 2.326 . S
O129 C121 1.252 . S
In130 O131 2.294 . S
In130 O132 2.326 . S
In130 O136 2.266 . S
In130 O137 2.326 . S
In130 O138 2.266 . S
In130 O139 2.326 1_556 S
In130 O141 2.294 . S
In130 O142 2.326 . S
O131 In130 2.294 . S
O131 C140 1.240 . S
O132 In130 2.326 . S
O132 C140 1.252 . S
C133 O136 1.252 . S
C133 O137 1.260 . S
C134 O141 1.240 . S
C134 O142 1.252 . S
C135 O138 1.252 1_554 S
C135 O139 1.260 . S
O136 In130 2.266 . S
O136 C133 1.252 . S
O137 In130 2.326 . S
O137 C133 1.260 . S
O138 In130 2.266 . S
O138 C135 1.252 1_556 S
O139 In130 2.326 1_554 S
O139 C135 1.260 . S
C140 O131 1.240 . S
C140 O132 1.252 . S
O141 In130 2.294 . S
O141 C134 1.240 . S
O142 In130 2.326 . S
O142 C134 1.252 . S
In143 O144 2.294 . S
In143 O145 2.326 . S
In143 O149 2.266 . S
In143 O150 2.326 . S
In143 O151 2.266 . S
In143 O152 2.326 . S
In143 O154 2.294 . S
In143 O155 2.326 . S
O144 In143 2.294 . S
O144 C153 1.240 . S
O145 In143 2.326 . S
O145 C153 1.252 . S
C146 O149 1.252 . S
C146 O150 1.260 . S
C147 O154 1.240 . S
C147 O155 1.252 . S
C148 O151 1.252 . S
C148 O152 1.260 . S
O149 In143 2.266 . S
O149 C146 1.252 . S
O150 In143 2.326 . S
O150 C146 1.260 . S
O151 In143 2.266 . S
O151 C148 1.252 . S
O152 In143 2.326 . S
O152 C148 1.260 . S
C153 O144 1.240 . S
C153 O145 1.252 . S
O154 In143 2.294 . S
O154 C147 1.240 . S
O155 In143 2.326 . S
O155 C147 1.252 . S
H156 C162 0.930 . S
H157 C165 0.930 . S
H158 C166 0.930 . S
H159 C167 0.930 . S
H160 C170 0.930 . S
H161 C171 0.930 . S
C162 H156 0.930 . S
C162 C163 1.355 . S
C162 C164 1.415 . S
C163 C162 1.355 . S
C163 C165 1.419 . S
C164 C162 1.415 . S
C164 C169 1.425 . S
C164 C171 1.409 . S
C165 H157 0.930 . S
C165 C163 1.419 . S
C165 C166 1.362 . S
C166 H158 0.930 . S
C166 C165 1.362 . S
C166 C169 1.409 . S
C167 H159 0.930 . S
C167 C168 1.355 . S
C167 C169 1.415 . S
C168 C167 1.355 . S
C168 C170 1.419 . S
C169 C164 1.425 . S
C169 C166 1.409 . S
C169 C167 1.415 . S
C170 H160 0.930 . S
C170 C168 1.419 . S
C170 C171 1.362 . S
C171 H161 0.930 . S
C171 C164 1.409 . S
C171 C170 1.362 . S
H172 C178 0.930 . S
H173 C181 0.930 . S
H174 C182 0.930 . S
H175 C183 0.930 . S
H176 C186 0.930 . S
H177 C187 0.930 . S
C178 H172 0.930 . S
C178 C179 1.355 . S
C178 C180 1.415 . S
C179 C178 1.355 . S
C179 C181 1.419 . S
C180 C178 1.415 . S
C180 C185 1.425 . S
C180 C187 1.409 . S
C181 H173 0.930 . S
C181 C179 1.419 . S
C181 C182 1.362 . S
C182 H174 0.930 . S
C182 C181 1.362 . S
C182 C185 1.409 . S
C183 H175 0.930 . S
C183 C184 1.355 . S
C183 C185 1.415 . S
C184 C183 1.355 . S
C184 C186 1.419 . S
C185 C180 1.425 . S
C185 C182 1.409 . S
C185 C183 1.415 . S
C186 H176 0.930 . S
C186 C184 1.419 . S
C186 C187 1.362 . S
C187 H177 0.930 . S
C187 C180 1.409 . S
C187 C186 1.362 . S
H188 C194 0.930 . S
H189 C197 0.930 . S
H190 C198 0.930 . S
H191 C199 0.930 . S
H192 C202 0.930 . S
H193 C203 0.930 . S
C194 H188 0.930 . S
C194 C195 1.355 . S
C194 C196 1.415 . S
C195 C194 1.355 . S
C195 C197 1.419 . S
C196 C194 1.415 . S
C196 C201 1.425 1_556 S
C196 C203 1.409 1_556 S
C197 H189 0.930 . S
C197 C195 1.419 . S
C197 C198 1.362 . S
C198 H190 0.930 . S
C198 C197 1.362 . S
C198 C201 1.409 1_556 S
C199 H191 0.930 . S
C199 C200 1.355 . S
C199 C201 1.415 . S
C200 C199 1.355 . S
C200 C202 1.419 . S
C201 C196 1.425 1_554 S
C201 C198 1.409 1_554 S
C201 C199 1.415 . S
C202 H192 0.930 . S
C202 C200 1.419 . S
C202 C203 1.362 . S
C203 H193 0.930 . S
C203 C196 1.409 1_554 S
C203 C202 1.362 . S
H204 C210 0.930 . S
H205 C213 0.930 . S
H206 C214 0.930 . S
H207 C215 0.930 . S
H208 C218 0.930 . S
H209 C219 0.930 . S
C210 H204 0.930 . S
C210 C211 1.355 . S
C210 C212 1.415 . S
C211 C210 1.355 . S
C211 C213 1.419 . S
C212 C210 1.415 . S
C212 C217 1.425 . S
C212 C219 1.409 . S
C213 H205 0.930 . S
C213 C211 1.419 . S
C213 C214 1.362 . S
C214 H206 0.930 . S
C214 C213 1.362 . S
C214 C217 1.409 . S
C215 H207 0.930 . S
C215 C216 1.355 . S
C215 C217 1.415 . S
C216 C215 1.355 . S
C216 C218 1.419 . S
C217 C212 1.425 . S
C217 C214 1.409 . S
C217 C215 1.415 . S
C218 H208 0.930 . S
C218 C216 1.419 . S
C218 C219 1.362 . S
C219 H209 0.930 . S
C219 C212 1.409 . S
C219 C218 1.362 . S
H220 C226 0.930 . S
H221 C229 0.930 . S
H222 C230 0.930 . S
H223 C231 0.930 . S
H224 C234 0.930 . S
H225 C235 0.930 . S
C226 H220 0.930 . S
C226 C227 1.355 . S
C226 C228 1.415 . S
C227 C226 1.355 . S
C227 C229 1.419 . S
C228 C226 1.415 . S
C228 C233 1.425 . S
C228 C235 1.409 . S
C229 H221 0.930 . S
C229 C227 1.419 . S
C229 C230 1.362 . S
C230 H222 0.930 . S
C230 C229 1.362 . S
C230 C233 1.409 . S
C231 H223 0.930 . S
C231 C232 1.355 . S
C231 C233 1.415 . S
C232 C231 1.355 . S
C232 C234 1.419 . S
C233 C228 1.425 . S
C233 C230 1.409 . S
C233 C231 1.415 . S
C234 H224 0.930 . S
C234 C232 1.419 . S
C234 C235 1.362 . S
C235 H225 0.930 . S
C235 C228 1.409 . S
C235 C234 1.362 . S
H236 C242 0.930 . S
H237 C245 0.930 . S
H238 C246 0.930 . S
H239 C247 0.930 . S
H240 C250 0.930 . S
H241 C251 0.930 . S
C242 H236 0.930 . S
C242 C243 1.355 . S
C242 C244 1.415 . S
C243 C242 1.355 . S
C243 C245 1.419 . S
C244 C242 1.415 . S
C244 C249 1.425 1_554 S
C244 C251 1.409 1_554 S
C245 H237 0.930 . S
C245 C243 1.419 . S
C245 C246 1.362 . S
C246 H238 0.930 . S
C246 C245 1.362 . S
C246 C249 1.409 1_554 S
C247 H239 0.930 . S
C247 C248 1.355 . S
C247 C249 1.415 . S
C248 C247 1.355 . S
C248 C250 1.419 . S
C249 C244 1.425 1_556 S
C249 C246 1.409 1_556 S
C249 C247 1.415 . S
C250 H240 0.930 . S
C250 C248 1.419 . S
C250 C251 1.362 . S
C251 H241 0.930 . S
C251 C244 1.409 1_556 S
C251 C250 1.362 . S
H252 C258 0.930 . S
H253 C261 0.930 . S
H254 C262 0.930 . S
H255 C263 0.930 . S
H256 C266 0.930 . S
H257 C267 0.930 . S
C258 H252 0.930 . S
C258 C259 1.355 1_556 S
C258 C260 1.415 . S
C259 C258 1.355 1_554 S
C259 C261 1.419 . S
C260 C258 1.415 . S
C260 C265 1.425 1_556 S
C260 C267 1.409 . S
C261 H253 0.930 . S
C261 C259 1.419 . S
C261 C262 1.362 . S
C262 H254 0.930 . S
C262 C261 1.362 . S
C262 C265 1.409 . S
C263 H255 0.930 . S
C263 C264 1.355 1_554 S
C263 C265 1.415 . S
C264 C263 1.355 1_556 S
C264 C266 1.419 . S
C265 C260 1.425 1_554 S
C265 C262 1.409 . S
C265 C263 1.415 . S
C266 H256 0.930 . S
C266 C264 1.419 . S
C266 C267 1.362 . S
C267 H257 0.930 . S
C267 C260 1.409 . S
C267 C266 1.362 . S
H268 C274 0.930 . S
H269 C277 0.930 . S
H270 C278 0.930 . S
H271 C279 0.930 . S
H272 C282 0.930 . S
H273 C283 0.930 . S
C274 H268 0.930 . S
C274 C275 1.355 . S
C274 C276 1.415 . S
C275 C274 1.355 . S
C275 C277 1.419 . S
C276 C274 1.415 . S
C276 C281 1.425 . S
C276 C283 1.409 . S
C277 H269 0.930 . S
C277 C275 1.419 . S
C277 C278 1.362 . S
C278 H270 0.930 . S
C278 C277 1.362 . S
C278 C281 1.409 . S
C279 H271 0.930 . S
C279 C280 1.355 . S
C279 C281 1.415 . S
C280 C279 1.355 . S
C280 C282 1.419 . S
C281 C276 1.425 . S
C281 C278 1.409 . S
C281 C279 1.415 . S
C282 H272 0.930 . S
C282 C280 1.419 . S
C282 C283 1.362 . S
C283 H273 0.930 . S
C283 C276 1.409 . S
C283 C282 1.362 . S
H284 C290 0.930 . S
H285 C293 0.930 . S
H286 C294 0.930 . S
H287 C295 0.930 . S
H288 C298 0.930 . S
H289 C299 0.930 . S
C290 H284 0.930 . S
C290 C291 1.355 . S
C290 C292 1.415 . S
C291 C290 1.355 . S
C291 C293 1.419 . S
C292 C290 1.415 . S
C292 C297 1.425 . S
C292 C299 1.409 . S
C293 H285 0.930 . S
C293 C291 1.419 . S
C293 C294 1.362 . S
C294 H286 0.930 . S
C294 C293 1.362 . S
C294 C297 1.409 . S
C295 H287 0.930 . S
C295 C296 1.355 . S
C295 C297 1.415 . S
C296 C295 1.355 . S
C296 C298 1.419 . S
C297 C292 1.425 . S
C297 C294 1.409 . S
C297 C295 1.415 . S
C298 H288 0.930 . S
C298 C296 1.419 . S
C298 C299 1.362 . S
C299 H289 0.930 . S
C299 C292 1.409 . S
C299 C298 1.362 . S
H300 C306 0.930 . S
H301 C309 0.930 . S
H302 C310 0.930 . S
H303 C311 0.930 . S
H304 C314 0.930 . S
H305 C315 0.930 . S
C306 H300 0.930 . S
C306 C307 1.355 . S
C306 C308 1.415 . S
C307 C306 1.355 . S
C307 C309 1.419 1_554 S
C308 C306 1.415 . S
C308 C313 1.425 1_554 S
C308 C315 1.409 . S
C309 H301 0.930 . S
C309 C307 1.419 1_556 S
C309 C310 1.362 . S
C310 H302 0.930 . S
C310 C309 1.362 . S
C310 C313 1.409 . S
C311 H303 0.930 . S
C311 C312 1.355 . S
C311 C313 1.415 . S
C312 C311 1.355 . S
C312 C314 1.419 1_556 S
C313 C308 1.425 1_556 S
C313 C310 1.409 . S
C313 C311 1.415 . S
C314 H304 0.930 . S
C314 C312 1.419 1_554 S
C314 C315 1.362 . S
C315 H305 0.930 . S
C315 C308 1.409 . S
C315 C314 1.362 . S
H316 C322 0.930 . S
H317 C325 0.930 . S
H318 C326 0.930 . S
H319 C327 0.930 . S
H320 C330 0.930 . S
H321 C331 0.930 . S
C322 H316 0.930 . S
C322 C323 1.355 . S
C322 C324 1.415 . S
C323 C322 1.355 . S
C323 C325 1.419 . S
C324 C322 1.415 . S
C324 C329 1.425 . S
C324 C331 1.409 . S
C325 H317 0.930 . S
C325 C323 1.419 . S
C325 C326 1.362 . S
C326 H318 0.930 . S
C326 C325 1.362 . S
C326 C329 1.409 . S
C327 H319 0.930 . S
C327 C328 1.355 . S
C327 C329 1.415 . S
C328 C327 1.355 . S
C328 C330 1.419 . S
C329 C324 1.425 . S
C329 C326 1.409 . S
C329 C327 1.415 . S
C330 H320 0.930 . S
C330 C328 1.419 . S
C330 C331 1.362 . S
C331 H321 0.930 . S
C331 C324 1.409 . S
C331 C330 1.362 . S
H332 C338 0.930 . S
H333 C341 0.930 . S
H334 C342 0.930 . S
H335 C343 0.930 . S
H336 C346 0.930 . S
H337 C347 0.930 . S
C338 H332 0.930 . S
C338 C339 1.355 . S
C338 C340 1.415 . S
C339 C338 1.355 . S
C339 C341 1.419 . S
C340 C338 1.415 . S
C340 C345 1.425 . S
C340 C347 1.409 . S
C341 H333 0.930 . S
C341 C339 1.419 . S
C341 C342 1.362 . S
C342 H334 0.930 . S
C342 C341 1.362 . S
C342 C345 1.409 . S
C343 H335 0.930 . S
C343 C344 1.355 . S
C343 C345 1.415 . S
C344 C343 1.355 . S
C344 C346 1.419 . S
C345 C340 1.425 . S
C345 C342 1.409 . S
C345 C343 1.415 . S
C346 H336 0.930 . S
C346 C344 1.419 . S
C346 C347 1.362 . S
C347 H337 0.930 . S
C347 C340 1.409 . S
C347 C346 1.362 . S
H348 C354 0.930 . S
H349 C357 0.930 . S
H350 C358 0.930 . S
H351 C359 0.930 . S
H352 C362 0.930 . S
H353 C363 0.930 . S
C354 H348 0.930 . S
C354 C355 1.355 . S
C354 C356 1.415 . S
C355 C354 1.355 . S
C355 C357 1.419 . S
C356 C354 1.415 . S
C356 C361 1.425 . S
C356 C363 1.409 . S
C357 H349 0.930 . S
C357 C355 1.419 . S
C357 C358 1.362 . S
C358 H350 0.930 . S
C358 C357 1.362 . S
C358 C361 1.409 . S
C359 H351 0.930 . S
C359 C360 1.355 . S
C359 C361 1.415 . S
C360 C359 1.355 . S
C360 C362 1.419 . S
C361 C356 1.425 . S
C361 C358 1.409 . S
C361 C359 1.415 . S
C362 H352 0.930 . S
C362 C360 1.419 . S
C362 C363 1.362 . S
C363 H353 0.930 . S
C363 C356 1.409 . S
C363 C362 1.362 . S
H364 C370 0.930 . S
H365 C373 0.930 . S
H366 C374 0.930 . S
H367 C375 0.930 . S
H368 C378 0.930 . S
H369 C379 0.930 . S
C370 H364 0.930 . S
C370 C371 1.355 . S
C370 C372 1.395 1_655 S
C371 C370 1.355 . S
C371 C373 1.419 . S
C372 C370 1.395 1_455 S
C372 C377 1.380 1_455 S
C372 C379 1.452 . S
C373 H365 0.930 . S
C373 C371 1.419 . S
C373 C374 1.362 . S
C374 H366 0.930 . S
C374 C373 1.362 . S
C374 C377 1.452 . S
C375 H367 0.930 . S
C375 C376 1.355 . S
C375 C377 1.395 1_455 S
C376 C375 1.355 . S
C376 C378 1.419 . S
C377 C372 1.380 1_655 S
C377 C374 1.452 . S
C377 C375 1.395 1_655 S
C378 H368 0.930 . S
C378 C376 1.419 . S
C378 C379 1.362 . S
C379 H369 0.930 . S
C379 C372 1.452 . S
C379 C378 1.362 . S
H380 C386 0.930 . S
H381 C389 0.930 . S
H382 C390 0.930 . S
H383 C391 0.930 . S
H384 C394 0.930 . S
H385 C395 0.930 . S
C386 H380 0.930 . S
C386 C387 1.355 . S
C386 C388 1.415 . S
C387 C386 1.355 . S
C387 C389 1.419 . S
C388 C386 1.415 . S
C388 C393 1.425 1_545 S
C388 C395 1.409 1_545 S
C389 H381 0.930 . S
C389 C387 1.419 . S
C389 C390 1.362 . S
C390 H382 0.930 . S
C390 C389 1.362 . S
C390 C393 1.409 1_545 S
C391 H383 0.930 . S
C391 C392 1.355 . S
C391 C393 1.415 . S
C392 C391 1.355 . S
C392 C394 1.419 . S
C393 C388 1.425 1_565 S
C393 C390 1.409 1_565 S
C393 C391 1.415 . S
C394 H384 0.930 . S
C394 C392 1.419 . S
C394 C395 1.362 . S
C395 H385 0.930 . S
C395 C388 1.409 1_565 S
C395 C394 1.362 . S
H396 C402 0.930 . S
H397 C405 0.930 . S
H398 C406 0.930 . S
H399 C407 0.930 . S
H400 C410 0.930 . S
H401 C411 0.930 . S
C402 H396 0.930 . S
C402 C403 1.355 . S
C402 C404 1.415 . S
C403 C402 1.355 . S
C403 C405 1.419 . S
C404 C402 1.415 . S
C404 C409 1.425 . S
C404 C411 1.409 . S
C405 H397 0.930 . S
C405 C403 1.419 . S
C405 C406 1.362 . S
C406 H398 0.930 . S
C406 C405 1.362 . S
C406 C409 1.409 . S
C407 H399 0.930 . S
C407 C408 1.355 . S
C407 C409 1.415 . S
C408 C407 1.355 . S
C408 C410 1.419 . S
C409 C404 1.425 . S
C409 C406 1.409 . S
C409 C407 1.415 . S
C410 H400 0.930 . S
C410 C408 1.419 . S
C410 C411 1.362 . S
C411 H401 0.930 . S
C411 C404 1.409 . S
C411 C410 1.362 . S
H412 C418 0.930 . S
H413 C421 0.930 . S
H414 C422 0.930 . S
H415 C423 0.930 . S
H416 C426 0.930 . S
H417 C427 0.930 . S
C418 H412 0.930 . S
C418 C419 1.355 . S
C418 C420 1.415 . S
C419 C418 1.355 . S
C419 C421 1.419 . S
C420 C418 1.415 . S
C420 C425 1.425 1_455 S
C420 C427 1.409 1_455 S
C421 H413 0.930 . S
C421 C419 1.419 . S
C421 C422 1.362 . S
C422 H414 0.930 . S
C422 C421 1.362 . S
C422 C425 1.409 1_455 S
C423 H415 0.930 . S
C423 C424 1.355 . S
C423 C425 1.415 . S
C424 C423 1.355 . S
C424 C426 1.419 . S
C425 C420 1.425 1_655 S
C425 C422 1.409 1_655 S
C425 C423 1.415 . S
C426 H416 0.930 . S
C426 C424 1.419 . S
C426 C427 1.362 . S
C427 H417 0.930 . S
C427 C420 1.409 1_655 S
C427 C426 1.362 . S
H428 C434 0.930 . S
H429 C437 0.930 . S
H430 C438 0.930 . S
H431 C439 0.930 . S
H432 C442 0.930 . S
H433 C443 0.930 . S
C434 H428 0.930 . S
C434 C435 1.355 . S
C434 C436 1.415 . S
C435 C434 1.355 . S
C435 C437 1.419 . S
C436 C434 1.415 . S
C436 C441 1.425 1_565 S
C436 C443 1.409 1_565 S
C437 H429 0.930 . S
C437 C435 1.419 . S
C437 C438 1.362 . S
C438 H430 0.930 . S
C438 C437 1.362 . S
C438 C441 1.409 1_565 S
C439 H431 0.930 . S
C439 C440 1.355 . S
C439 C441 1.415 . S
C440 C439 1.355 . S
C440 C442 1.419 . S
C441 C436 1.425 1_545 S
C441 C438 1.409 1_545 S
C441 C439 1.415 . S
C442 H432 0.930 . S
C442 C440 1.419 . S
C442 C443 1.362 . S
C443 H433 0.930 . S
C443 C436 1.409 1_545 S
C443 C442 1.362 . S
H444 C450 0.930 . S
H445 C453 0.930 . S
H446 C454 0.930 . S
H447 C455 0.930 . S
H448 C458 0.930 . S
H449 C459 0.930 . S
C450 H444 0.930 . S
C450 C451 1.355 . S
C450 C452 1.415 . S
C451 C450 1.355 . S
C451 C453 1.419 . S
C452 C450 1.415 . S
C452 C457 1.425 . S
C452 C459 1.409 . S
C453 H445 0.930 . S
C453 C451 1.419 . S
C453 C454 1.362 . S
C454 H446 0.930 . S
C454 C453 1.362 . S
C454 C457 1.409 . S
C455 H447 0.930 . S
C455 C456 1.355 . S
C455 C457 1.415 . S
C456 C455 1.355 . S
C456 C458 1.419 . S
C457 C452 1.425 . S
C457 C454 1.409 . S
C457 C455 1.415 . S
C458 H448 0.930 . S
C458 C456 1.419 . S
C458 C459 1.362 . S
C459 H449 0.930 . S
C459 C452 1.409 . S
C459 C458 1.362 . S
H460 C466 0.930 . S
H461 C469 0.930 . S
H462 C470 0.930 . S
H463 C471 0.930 . S
H464 C474 0.930 . S
H465 C475 0.930 . S
C466 H460 0.930 . S
C466 C467 1.355 . S
C466 C468 1.415 . S
C467 C466 1.355 . S
C467 C469 1.419 . S
C468 C466 1.415 . S
C468 C473 1.425 . S
C468 C475 1.409 . S
C469 H461 0.930 . S
C469 C467 1.419 . S
C469 C470 1.362 . S
C470 H462 0.930 . S
C470 C469 1.362 . S
C470 C473 1.409 . S
C471 H463 0.930 . S
C471 C472 1.355 . S
C471 C473 1.415 . S
C472 C471 1.355 . S
C472 C474 1.419 . S
C473 C468 1.425 . S
C473 C470 1.409 . S
C473 C471 1.415 . S
C474 H464 0.930 . S
C474 C472 1.419 . S
C474 C475 1.362 . S
C475 H465 0.930 . S
C475 C468 1.409 . S
C475 C474 1.362 . S
H476 C482 0.930 . S
H477 C485 0.930 . S
H478 C486 0.930 . S
H479 C487 0.930 . S
H480 C490 0.930 . S
H481 C491 0.930 . S
C482 H476 0.930 . S
C482 C483 1.355 . S
C482 C484 1.415 . S
C483 C482 1.355 . S
C483 C485 1.419 . S
C484 C482 1.415 . S
C484 C489 1.425 . S
C484 C491 1.409 . S
C485 H477 0.930 . S
C485 C483 1.419 . S
C485 C486 1.362 . S
C486 H478 0.930 . S
C486 C485 1.362 . S
C486 C489 1.409 . S
C487 H479 0.930 . S
C487 C488 1.355 . S
C487 C489 1.415 . S
C488 C487 1.355 . S
C488 C490 1.419 . S
C489 C484 1.425 . S
C489 C486 1.409 . S
C489 C487 1.415 . S
C490 H480 0.930 . S
C490 C488 1.419 . S
C490 C491 1.362 . S
C491 H481 0.930 . S
C491 C484 1.409 . S
C491 C490 1.362 . S
H492 C498 0.930 . S
H493 C501 0.930 . S
H494 C502 0.930 . S
H495 C503 0.930 . S
H496 C506 0.930 . S
H497 C507 0.930 . S
C498 H492 0.930 . S
C498 C499 1.355 . S
C498 C500 1.415 . S
C499 C498 1.355 . S
C499 C501 1.419 . S
C500 C498 1.415 . S
C500 C505 1.425 . S
C500 C507 1.409 . S
C501 H493 0.930 . S
C501 C499 1.419 . S
C501 C502 1.362 . S
C502 H494 0.930 . S
C502 C501 1.362 . S
C502 C505 1.409 . S
C503 H495 0.930 . S
C503 C504 1.355 . S
C503 C505 1.415 . S
C504 C503 1.355 . S
C504 C506 1.419 . S
C505 C500 1.425 . S
C505 C502 1.409 . S
C505 C503 1.415 . S
C506 H496 0.930 . S
C506 C504 1.419 . S
C506 C507 1.362 . S
C507 H497 0.930 . S
C507 C500 1.409 . S
C507 C506 1.362 . S
H508 C514 0.930 . S
H509 C517 0.930 . S
H510 C518 0.930 . S
H511 C519 0.930 . S
H512 C522 0.930 . S
H513 C523 0.930 . S
C514 H508 0.930 . S
C514 C515 1.355 . S
C514 C516 1.415 . S
C515 C514 1.355 . S
C515 C517 1.419 . S
C516 C514 1.415 . S
C516 C521 1.425 . S
C516 C523 1.409 . S
C517 H509 0.930 . S
C517 C515 1.419 . S
C517 C518 1.362 . S
C518 H510 0.930 . S
C518 C517 1.362 . S
C518 C521 1.409 . S
C519 H511 0.930 . S
C519 C520 1.355 . S
C519 C521 1.415 . S
C520 C519 1.355 . S
C520 C522 1.419 . S
C521 C516 1.425 . S
C521 C518 1.409 . S
C521 C519 1.415 . S
C522 H512 0.930 . S
C522 C520 1.419 . S
C522 C523 1.362 . S
C523 H513 0.930 . S
C523 C516 1.409 . S
C523 C522 1.362 . S
H524 C530 0.930 . S
H525 C533 0.930 . S
H526 C534 0.930 . S
H527 C535 0.930 . S
H528 C538 0.930 . S
H529 C539 0.930 . S
C530 H524 0.930 . S
C530 C531 1.355 . S
C530 C532 1.415 . S
C531 C530 1.355 . S
C531 C533 1.419 . S
C532 C530 1.415 . S
C532 C537 1.425 . S
C532 C539 1.409 . S
C533 H525 0.930 . S
C533 C531 1.419 . S
C533 C534 1.362 . S
C534 H526 0.930 . S
C534 C533 1.362 . S
C534 C537 1.409 . S
C535 H527 0.930 . S
C535 C536 1.355 . S
C535 C537 1.415 . S
C536 C535 1.355 . S
C536 C538 1.419 . S
C537 C532 1.425 . S
C537 C534 1.409 . S
C537 C535 1.415 . S
C538 H528 0.930 . S
C538 C536 1.419 . S
C538 C539 1.362 . S
C539 H529 0.930 . S
C539 C532 1.409 . S
C539 C538 1.362 . S
C163 C10 1.445 . S
C168 C88 1.428 . S
C179 C23 1.399 . S
C184 C101 1.402 . S
C195 C36 1.436 . S
C200 C114 1.448 . S
C211 C49 1.433 . S
C216 C127 1.447 . S
C227 C62 1.398 . S
C232 C134 1.407 . S
C243 C147 1.401 . S
C248 C75 1.399 . S
C259 C5 1.394 . S
C264 C133 1.409 . S
C275 C18 1.402 . S
C280 C146 1.405 . S
C291 C31 1.362 . S
C296 C83 1.389 . S
C307 C44 1.396 . S
C312 C96 1.364 . S
C323 C57 1.387 . S
C328 C109 1.362 . S
C339 C70 1.389 . S
C344 C122 1.410 . S
C355 C4 1.457 . S
C360 C43 1.450 . S
C371 C17 1.451 . S
C376 C56 1.448 . S
C387 C69 1.471 . S
C392 C30 1.483 . S
C403 C82 1.503 . S
C408 C121 1.494 . S
C419 C140 1.451 . S
C424 C95 1.458 . S
C435 C108 1.478 . S
C440 C153 1.467 . S
C451 C81 1.172 . S
C456 C3 1.149 . S
C467 C16 1.144 . S
C472 C94 1.161 . S
C483 C29 1.227 . S
C488 C107 1.213 . S
C499 C120 1.160 . S
C504 C42 1.187 . S
C515 C135 1.223 . S
C520 C55 1.203 . S
C531 C68 1.207 . S
C536 C148 1.225 . S
