# Generated by pormake.
# Topology ukf, (4)-cn, num edge types: 1
# Building blocks:
#     Node 0, Type 0, BuildingBlock: QUQFOY_clean_sbu_1, # of connection points: 4
#     Node 1, Type 0, BuildingBlock: QUQFOY_clean_sbu_1, # of connection points: 4
#     Node 2, Type 0, BuildingBlock: QUQFOY_clean_sbu_1, # of connection points: 4
#     Node 3, Type 0, BuildingBlock: QUQFOY_clean_sbu_1, # of connection points: 4
#     Node 4, Type 0, BuildingBlock: QUQFOY_clean_sbu_1, # of connection points: 4
#     Node 5, Type 0, BuildingBlock: QUQFOY_clean_sbu_1, # of connection points: 4
#     Node 6, Type 0, BuildingBlock: QUQFOY_clean_sbu_1, # of connection points: 4
#     Node 7, Type 0, BuildingBlock: QUQFOY_clean_sbu_1, # of connection points: 4
#     Node 8, Type 0, BuildingBlock: QUQFOY_clean_sbu_1, # of connection points: 4
#     Node 9, Type 0, BuildingBlock: QUQFOY_clean_sbu_1, # of connection points: 4
#     Node 10, Type 0, BuildingBlock: QUQFOY_clean_sbu_1, # of connection points: 4
#     Node 11, Type 0, BuildingBlock: QUQFOY_clean_sbu_1, # of connection points: 4
#     Edge 12, Type (0, 0), BuildingBlock: UVAHIK_clean_linker_0, # of connection points: 2
#     Edge 13, Type (0, 0), BuildingBlock: UVAHIK_clean_linker_0, # of connection points: 2
#     Edge 14, Type (0, 0), BuildingBlock: UVAHIK_clean_linker_0, # of connection points: 2
#     Edge 15, Type (0, 0), BuildingBlock: UVAHIK_clean_linker_0, # of connection points: 2
#     Edge 16, Type (0, 0), BuildingBlock: UVAHIK_clean_linker_0, # of connection points: 2
#     Edge 17, Type (0, 0), BuildingBlock: UVAHIK_clean_linker_0, # of connection points: 2
#     Edge 18, Type (0, 0), BuildingBlock: UVAHIK_clean_linker_0, # of connection points: 2
#     Edge 19, Type (0, 0), BuildingBlock: UVAHIK_clean_linker_0, # of connection points: 2
#     Edge 20, Type (0, 0), BuildingBlock: UVAHIK_clean_linker_0, # of connection points: 2
#     Edge 21, Type (0, 0), BuildingBlock: UVAHIK_clean_linker_0, # of connection points: 2
#     Edge 22, Type (0, 0), BuildingBlock: UVAHIK_clean_linker_0, # of connection points: 2
#     Edge 23, Type (0, 0), BuildingBlock: UVAHIK_clean_linker_0, # of connection points: 2
#     Edge 24, Type (0, 0), BuildingBlock: UVAHIK_clean_linker_0, # of connection points: 2
#     Edge 25, Type (0, 0), BuildingBlock: UVAHIK_clean_linker_0, # of connection points: 2
#     Edge 26, Type (0, 0), BuildingBlock: UVAHIK_clean_linker_0, # of connection points: 2
#     Edge 27, Type (0, 0), BuildingBlock: UVAHIK_clean_linker_0, # of connection points: 2
#     Edge 28, Type (0, 0), BuildingBlock: UVAHIK_clean_linker_0, # of connection points: 2
#     Edge 29, Type (0, 0), BuildingBlock: UVAHIK_clean_linker_0, # of connection points: 2
#     Edge 30, Type (0, 0), BuildingBlock: UVAHIK_clean_linker_0, # of connection points: 2
#     Edge 31, Type (0, 0), BuildingBlock: UVAHIK_clean_linker_0, # of connection points: 2
#     Edge 32, Type (0, 0), BuildingBlock: UVAHIK_clean_linker_0, # of connection points: 2
#     Edge 33, Type (0, 0), BuildingBlock: UVAHIK_clean_linker_0, # of connection points: 2
#     Edge 34, Type (0, 0), BuildingBlock: UVAHIK_clean_linker_0, # of connection points: 2
#     Edge 35, Type (0, 0), BuildingBlock: UVAHIK_clean_linker_0, # of connection points: 2
# Relax obj value: 0.115
# Max RMSD: 0.131
# Mean RMSD: 0.131
data_MOF--net-ukf--node1-QUQFOY_clean_sbu_1--edge1-UVAHIK_clean_linker_0
_symmetry_space_group_name_H-M    P1
_symmetry_Int_Tables_number       1
_symmetry_cell_setting            triclinic
loop_
_symmetry_equiv_pos_as_xyz
'x, y, z'
_cell_length_a     41.187711
_cell_length_b     41.203946
_cell_length_c     93.784412
_cell_angle_alpha  90.013667
_cell_angle_beta   89.986212
_cell_angle_gamma 119.97584
loop_
_atom_site_label
_atom_site_type_symbol
_atom_site_fract_x
_atom_site_fract_y
_atom_site_fract_z
_atom_type_partial_charge
O0 O 0.43412 0.28712 0.06727 0.0
Cd1 Cd 0.4295 0.23564 0.07103 0.0
Cd2 Cd 0.38832 0.22273 0.04528 0.0
O3 O 0.39799 0.27633 0.04841 0.0
O4 O 0.45285 0.24477 0.09031 0.0
O5 O 0.39381 0.20207 0.08637 0.0
C6 C 0.42092 0.2198 0.09531 0.0
C7 C 0.33098 0.17411 0.03704 0.0
C8 C 0.41937 0.29834 0.05803 0.0
C9 C 0.45864 0.21643 0.04489 0.0
O10 O 0.4329 0.21816 0.03809 0.0
O11 O 0.46116 0.22043 0.05838 0.0
O12 O 0.35254 0.20209 0.02903 0.0
O13 O 0.34088 0.17485 0.05017 0.0
O14 O 0.1509 0.43893 0.40109 0.0
Cd15 Cd 0.19651 0.43153 0.40391 0.0
Cd16 Cd 0.16528 0.38972 0.37952 0.0
O17 O 0.12141 0.39896 0.38361 0.0
O18 O 0.21607 0.45598 0.42275 0.0
O19 O 0.19325 0.39544 0.4193 0.0
C20 C 0.20709 0.42364 0.42793 0.0
C21 C 0.15887 0.33171 0.37407 0.0
C22 C 0.12305 0.42261 0.3927 0.0
C23 C 0.24101 0.45813 0.37673 0.0
O24 O 0.21185 0.43337 0.3704 0.0
O25 O 0.24187 0.4603 0.39028 0.0
O26 O 0.14773 0.34833 0.36535 0.0
O27 O 0.17124 0.34686 0.38642 0.0
O28 O 0.70827 0.14449 0.73355 0.0
Cd29 Cd 0.759 0.19211 0.73755 0.0
Cd30 Cd 0.77362 0.16563 0.71176 0.0
O31 O 0.72026 0.12086 0.71445 0.0
O32 O 0.74915 0.20527 0.75691 0.0
O33 O 0.7931 0.19069 0.75283 0.0
C34 C 0.77478 0.19917 0.76183 0.0
C35 C 0.82378 0.15854 0.70422 0.0
C36 C 0.69779 0.11909 0.72411 0.0
C37 C 0.77805 0.24136 0.71169 0.0
O38 O 0.77753 0.21461 0.70478 0.0
O39 O 0.77328 0.23913 0.72514 0.0
O40 O 0.79662 0.15234 0.69576 0.0
O41 O 0.82132 0.16654 0.71736 0.0
O42 O 0.56383 0.70806 0.06657 0.0
Cd43 Cd 0.56774 0.75923 0.07036 0.0
Cd44 Cd 0.60875 0.77299 0.04487 0.0
O45 O 0.59987 0.71956 0.04763 0.0
O46 O 0.545 0.75027 0.08974 0.0
O47 O 0.60374 0.79341 0.08549 0.0
C48 C 0.57697 0.77567 0.09456 0.0
C49 C 0.66633 0.82338 0.03789 0.0
C50 C 0.57878 0.69727 0.05725 0.0
C51 C 0.53805 0.77831 0.04439 0.0
O52 O 0.56408 0.77718 0.03756 0.0
O53 O 0.53546 0.77392 0.05786 0.0
O54 O 0.64606 0.79645 0.02924 0.0
O55 O 0.65499 0.82048 0.05093 0.0
O56 O 0.85655 0.56577 0.39968 0.0
Cd57 Cd 0.80798 0.5673 0.40354 0.0
Cd58 Cd 0.83416 0.60772 0.37732 0.0
O59 O 0.87931 0.59979 0.38015 0.0
O60 O 0.7939 0.54102 0.42228 0.0
O61 O 0.80704 0.59955 0.41976 0.0
C62 C 0.79848 0.57136 0.42804 0.0
C63 C 0.84032 0.66483 0.37026 0.0
C64 C 0.88171 0.58022 0.39013 0.0
C65 C 0.75892 0.53643 0.37743 0.0
O66 O 0.78544 0.56237 0.37033 0.0
O67 O 0.76148 0.53454 0.39089 0.0
O68 O 0.84713 0.64465 0.3616 0.0
O69 O 0.83225 0.65364 0.38332 0.0
O70 O 0.28745 0.85224 0.73436 0.0
Cd71 Cd 0.23576 0.80592 0.73841 0.0
Cd72 Cd 0.22309 0.8326 0.71216 0.0
O73 O 0.27703 0.87622 0.71501 0.0
O74 O 0.24501 0.79251 0.75782 0.0
O75 O 0.20245 0.80895 0.75367 0.0
C76 C 0.22011 0.79974 0.76271 0.0
C77 C 0.17481 0.84164 0.70374 0.0
C78 C 0.29891 0.87742 0.7248 0.0
C79 C 0.21549 0.75554 0.71279 0.0
O80 O 0.21754 0.78259 0.70559 0.0
O81 O 0.21982 0.75816 0.72626 0.0
O82 O 0.20249 0.84709 0.69571 0.0
O83 O 0.1757 0.83328 0.71696 0.0
O84 O 0.70662 0.56754 0.61023 0.0
Cd85 Cd 0.75651 0.56882 0.60612 0.0
Cd86 Cd 0.77181 0.61004 0.63222 0.0
O87 O 0.71876 0.60232 0.62959 0.0
O88 O 0.74363 0.5423 0.58742 0.0
O89 O 0.78922 0.6008 0.58976 0.0
C90 C 0.76924 0.57254 0.58156 0.0
C91 C 0.82288 0.6671 0.63926 0.0
C92 C 0.69637 0.58243 0.61978 0.0
C93 C 0.77544 0.5385 0.63218 0.0
O94 O 0.77513 0.56467 0.63922 0.0
O95 O 0.77063 0.53628 0.61874 0.0
O96 O 0.79597 0.64693 0.64794 0.0
O97 O 0.81964 0.65594 0.62619 0.0
O98 O 0.14285 0.7081 0.94299 0.0
Cd99 Cd 0.19002 0.75919 0.93898 0.0
Cd100 Cd 0.16408 0.77296 0.9649 0.0
O101 O 0.11949 0.7195 0.96231 0.0
O102 O 0.20304 0.74971 0.91953 0.0
O103 O 0.18793 0.79318 0.92382 0.0
C104 C 0.19656 0.77518 0.91472 0.0
C105 C 0.1569 0.82324 0.97209 0.0
C106 C 0.11769 0.69726 0.95255 0.0
C107 C 0.24011 0.7784 0.96463 0.0
O108 O 0.21336 0.7773 0.97175 0.0
O109 O 0.2375 0.77392 0.95116 0.0
O110 O 0.15086 0.79645 0.98072 0.0
O111 O 0.1648 0.8203 0.95898 0.0
O112 O 0.43262 0.14376 0.27531 0.0
Cd113 Cd 0.42873 0.19111 0.27181 0.0
Cd114 Cd 0.38815 0.16345 0.29727 0.0
O115 O 0.39562 0.11817 0.29392 0.0
O116 O 0.45231 0.20558 0.25257 0.0
O117 O 0.39342 0.18993 0.25647 0.0
C118 C 0.42055 0.19914 0.24756 0.0
C119 C 0.33118 0.15817 0.3039 0.0
C120 C 0.41707 0.1174 0.28435 0.0
C121 C 0.45918 0.23853 0.29815 0.0
O122 O 0.4336 0.21101 0.30499 0.0
O123 O 0.46088 0.23746 0.28462 0.0
O124 O 0.34943 0.14859 0.31245 0.0
O125 O 0.34413 0.16856 0.29114 0.0
O126 O 0.28566 0.4397 0.609 0.0
Cd127 Cd 0.23278 0.43187 0.60536 0.0
Cd128 Cd 0.22144 0.38996 0.63057 0.0
O129 O 0.27554 0.40136 0.62707 0.0
O130 O 0.23985 0.45668 0.58645 0.0
O131 O 0.20175 0.39611 0.58955 0.0
C132 C 0.21722 0.42446 0.58101 0.0
C133 C 0.17346 0.33174 0.63836 0.0
C134 C 0.29746 0.42456 0.61784 0.0
C135 C 0.21188 0.45799 0.63191 0.0
O136 O 0.21574 0.43321 0.63849 0.0
O137 O 0.21483 0.46058 0.6184 0.0
O138 O 0.20151 0.3529 0.64642 0.0
O139 O 0.17394 0.34249 0.62538 0.0
O140 O 0.85195 0.28715 0.94234 0.0
Cd141 Cd 0.80508 0.23581 0.93839 0.0
Cd142 Cd 0.83216 0.22284 0.96455 0.0
O143 O 0.87618 0.27646 0.96156 0.0
O144 O 0.7914 0.24551 0.9191 0.0
O145 O 0.80719 0.20238 0.92296 0.0
C146 C 0.79811 0.22041 0.91406 0.0
C147 C 0.8408 0.17432 0.97298 0.0
C148 C 0.87739 0.2984 0.95179 0.0
C149 C 0.75559 0.21652 0.96427 0.0
O150 O 0.78267 0.21818 0.97134 0.0
O151 O 0.75781 0.22061 0.95078 0.0
O152 O 0.84673 0.2022 0.98097 0.0
O153 O 0.83212 0.17507 0.95979 0.0
O154 O 0.56302 0.85307 0.27496 0.0
Cd155 Cd 0.56757 0.80633 0.2708 0.0
Cd156 Cd 0.60645 0.83176 0.29724 0.0
O157 O 0.59675 0.87585 0.29454 0.0
O158 O 0.54528 0.79368 0.25133 0.0
O159 O 0.60392 0.80902 0.25562 0.0
C160 C 0.57732 0.80043 0.24652 0.0
C161 C 0.66344 0.84013 0.30576 0.0
C162 C 0.57666 0.87783 0.28468 0.0
C163 C 0.53638 0.75519 0.29618 0.0
O164 O 0.56158 0.78171 0.30352 0.0
O165 O 0.53488 0.75843 0.28274 0.0
O166 O 0.64115 0.84548 0.31379 0.0
O167 O 0.65444 0.8322 0.2925 0.0
C168 C 0.15586 0.86232 0.99228 0.0
C169 C 0.159 0.85798 0.97756 0.0
C170 C 0.16444 0.89708 0.99793 0.0
C171 C 0.22307 0.9972 0.9893 0.0
H172 H 0.18186 0.01018 0.02463 0.0
C173 C 0.28932 0.14066 0.01635 0.0
C174 C 0.29864 0.14049 0.03077 0.0
C175 C 0.26406 0.10739 0.00949 0.0
C176 C 0.19359 0.00697 0.01475 0.0
H177 H 0.17076 0.88608 0.9571 0.0
H178 H 0.18473 0.94659 0.9669 0.0
H179 H 0.15124 0.94927 0.0127 0.0
H180 H 0.28661 0.10564 0.04955 0.0
H181 H 0.24251 0.04742 0.03754 0.0
H182 H 0.26576 0.05454 0.99147 0.0
C183 C 0.17667 0.92334 0.97415 0.0
C184 C 0.17613 0.97208 0.00791 0.0
C185 C 0.16836 0.88856 0.9685 0.0
C186 C 0.28004 0.10672 0.03844 0.0
C187 C 0.25469 0.07336 0.03156 0.0
C188 C 0.24029 0.03205 0.99606 0.0
C189 C 0.17609 0.92837 0.98899 0.0
C190 C 0.19116 0.96651 0.99526 0.0
C191 C 0.2475 0.07316 0.01688 0.0
C192 C 0.22623 0.03718 0.00901 0.0
H193 H 0.14868 0.83934 0.99959 0.0
H194 H 0.16398 0.89978 0.0094 0.0
H195 H 0.236 0.99398 0.97976 0.0
H196 H 0.30286 0.16625 0.01015 0.0
H197 H 0.25857 0.10826 0.99825 0.0
C198 C 0.19001 0.29302 0.37484 0.0
C199 C 0.16214 0.29935 0.36917 0.0
C200 C 0.19891 0.26807 0.36819 0.0
C201 C 0.19103 0.225 0.33253 0.0
H202 H 0.24198 0.18064 0.35221 0.0
C203 C 0.27975 0.14192 0.32153 0.0
C204 C 0.29927 0.16157 0.30928 0.0
C205 C 0.25442 0.15022 0.32823 0.0
C206 C 0.22714 0.19203 0.34647 0.0
H207 H 0.11947 0.28221 0.35285 0.0
H208 H 0.13331 0.23703 0.34174 0.0
H209 H 0.21153 0.20768 0.3659 0.0
H210 H 0.30644 0.20418 0.29407 0.0
H211 H 0.26377 0.21992 0.30599 0.0
H212 H 0.20547 0.20817 0.31311 0.0
C213 C 0.14965 0.25252 0.35092 0.0
C214 C 0.21018 0.2083 0.35438 0.0
C215 C 0.14134 0.2781 0.35739 0.0
C216 C 0.29153 0.18832 0.30343 0.0
C217 C 0.26684 0.19724 0.31029 0.0
C218 C 0.20732 0.20805 0.32462 0.0
C219 C 0.1796 0.24825 0.35586 0.0
C220 C 0.19287 0.22608 0.34754 0.0
C221 C 0.24868 0.17905 0.32304 0.0
C222 C 0.22666 0.19233 0.33145 0.0
H223 H 0.20677 0.30926 0.38384 0.0
H224 H 0.22244 0.26615 0.37229 0.0
H225 H 0.17838 0.23861 0.32676 0.0
H226 H 0.28496 0.12092 0.32621 0.0
H227 H 0.24022 0.13472 0.33773 0.0
C228 C 0.88911 0.1696 0.70744 0.0
C229 C 0.85834 0.16062 0.69853 0.0
C230 C 0.92368 0.17774 0.70161 0.0
C231 C 0.97131 0.17731 0.6675 0.0
H232 H 0.05497 0.26574 0.68407 0.0
C233 C 0.10597 0.28106 0.63691 0.0
C234 C 0.13992 0.29905 0.6445 0.0
C235 C 0.07262 0.25566 0.64379 0.0
C236 C 0.03213 0.24059 0.67943 0.0
H237 H 0.83916 0.15089 0.67657 0.0
H238 H 0.89925 0.16593 0.66645 0.0
H239 H 0.99463 0.23646 0.69595 0.0
H240 H 0.16597 0.30201 0.66494 0.0
H241 H 0.10798 0.25764 0.67685 0.0
H242 H 0.00886 0.18295 0.65057 0.0
C243 C 0.89685 0.16619 0.67794 0.0
C244 C 0.99741 0.22364 0.68629 0.0
C245 C 0.86229 0.15776 0.68376 0.0
C246 C 0.14025 0.28895 0.6588 0.0
C247 C 0.10699 0.26366 0.66566 0.0
C248 C 0.00608 0.19452 0.66056 0.0
C249 C 0.92833 0.1774 0.68674 0.0
C250 C 0.96629 0.19217 0.68031 0.0
C251 C 0.0726 0.24781 0.65839 0.0
C252 C 0.03672 0.22672 0.66635 0.0
H253 H 0.88693 0.17178 0.71887 0.0
H254 H 0.94708 0.18544 0.70876 0.0
H255 H 0.94819 0.15274 0.66268 0.0
H256 H 0.10475 0.28823 0.62589 0.0
H257 H 0.04657 0.24403 0.63789 0.0
C258 C 0.71964 0.88894 0.04157 0.0
C259 C 0.69893 0.85825 0.03249 0.0
C260 C 0.74591 0.92383 0.03596 0.0
C261 C 0.79543 0.97292 1.00227 0.0
H262 H 0.7865 0.05458 0.01854 0.0
C263 C 0.82501 0.10711 0.97164 0.0
C264 C 0.83966 0.14083 0.97932 0.0
C265 C 0.81723 0.07383 0.97854 0.0
C266 C 0.78997 0.03233 0.014 0.0
H267 H 0.69135 0.83956 0.01049 0.0
H268 H 0.73612 0.90018 1.00072 0.0
H269 H 0.75624 0.99403 0.03024 0.0
H270 H 0.8605 0.16663 0.99999 0.0
H271 H 0.84719 0.1088 0.01193 0.0
H272 H 0.82773 0.01123 0.98561 0.0
C273 C 0.73272 0.89749 0.01218 0.0
C274 C 0.77265 0.99748 0.02075 0.0
C275 C 0.70675 0.86261 0.0178 0.0
C276 C 0.84885 0.14107 0.99378 0.0
C277 C 0.84106 0.10789 1.00066 0.0
C278 C 0.81254 0.0078 0.99544 0.0
C279 C 0.7518 0.92887 0.02113 0.0
C280 C 0.77452 0.96706 0.01486 0.0
C281 C 0.82393 0.07368 0.99325 0.0
C282 C 0.80948 0.03773 1.00112 0.0
H283 H 0.71448 0.88644 0.05295 0.0
H284 H 0.76069 0.94716 0.04321 0.0
H285 H 0.798 0.95034 0.99754 0.0
H286 H 0.81761 0.10597 0.9605 0.0
H287 H 0.80387 0.0479 0.97254 0.0
C288 C 0.70438 0.84746 0.32661 0.0
C289 C 0.69569 0.83878 0.31211 0.0
C290 C 0.72969 0.83947 0.33344 0.0
C291 C 0.80136 0.81102 0.32805 0.0
H292 H 0.75873 0.7542 0.36273 0.0
C293 C 0.84088 0.70498 0.35017 0.0
C294 C 0.83763 0.69721 0.36486 0.0
C295 C 0.83181 0.73088 0.34459 0.0
C296 C 0.7717 0.77074 0.35327 0.0
H297 H 0.70887 0.8174 0.29317 0.0
H298 H 0.75302 0.80326 0.30515 0.0
H299 H 0.72847 0.78467 0.35114 0.0
H300 H 0.82511 0.71274 0.38536 0.0
H301 H 0.81026 0.75878 0.37567 0.0
H302 H 0.84425 0.79636 0.33006 0.0
C303 C 0.74033 0.8164 0.31121 0.0
C304 C 0.7542 0.78819 0.34658 0.0
C305 C 0.71494 0.82441 0.30435 0.0
C306 C 0.82761 0.71785 0.37397 0.0
C307 C 0.8188 0.74403 0.36839 0.0
C308 C 0.81909 0.79375 0.33481 0.0
C309 C 0.74693 0.8226 0.32595 0.0
C310 C 0.76837 0.80793 0.33375 0.0
C311 C 0.81952 0.74992 0.35357 0.0
C312 C 0.80401 0.77268 0.34736 0.0
H313 H 0.69033 0.85889 0.33287 0.0
H314 H 0.73472 0.84524 0.34474 0.0
H315 H 0.81318 0.82638 0.31826 0.0
H316 H 0.84855 0.68962 0.34283 0.0
H317 H 0.83241 0.73428 0.33313 0.0
C318 C 0.86255 0.70726 0.65933 0.0
C319 C 0.85799 0.69946 0.64464 0.0
C320 C 0.89753 0.73315 0.6649 0.0
C321 C 0.99747 0.77299 0.6562 0.0
H322 H 0.0116 0.82855 0.69124 0.0
C323 C 0.14141 0.84945 0.68293 0.0
C324 C 0.14132 0.84056 0.69741 0.0
C325 C 0.10816 0.84159 0.67609 0.0
C326 C 0.00807 0.81322 0.68144 0.0
H327 H 0.88597 0.71491 0.62414 0.0
H328 H 0.94689 0.76094 0.6338 0.0
H329 H 0.95054 0.79861 0.67941 0.0
H330 H 0.10666 0.81898 0.71631 0.0
H331 H 0.04847 0.80511 0.70433 0.0
H332 H 0.05462 0.78689 0.65833 0.0
C333 C 0.92362 0.74622 0.64109 0.0
C334 C 0.97309 0.79599 0.67466 0.0
C335 C 0.88861 0.72005 0.63552 0.0
C336 C 0.10768 0.82616 0.70515 0.0
C337 C 0.07433 0.81829 0.69828 0.0
C338 C 0.03241 0.79041 0.66289 0.0
C339 C 0.92883 0.75216 0.65591 0.0
C340 C 0.9671 0.77492 0.66211 0.0
C341 C 0.07401 0.82467 0.68355 0.0
C342 C 0.03796 0.8101 0.67574 0.0
H343 H 0.83954 0.69193 0.66668 0.0
H344 H 0.90036 0.73657 0.67636 0.0
H345 H 0.9939 0.75646 0.64674 0.0
H346 H 0.1669 0.8609 0.67668 0.0
H347 H 0.10895 0.84748 0.6648 0.0
C348 C 0.69147 0.20996 0.96483 0.0
C349 C 0.72192 0.21111 0.97206 0.0
C350 C 0.66078 0.20681 0.97244 0.0
C351 C 0.6146 0.18149 0.00801 0.0
H352 H 0.57397 0.24423 0.99626 0.0
C353 C 0.51672 0.2108 0.04359 0.0
C354 C 0.4865 0.2111 0.03675 0.0
C355 C 0.54389 0.20787 0.03561 0.0
C356 C 0.58471 0.22621 0.99959 0.0
H357 H 0.74355 0.20915 0.99298 0.0
H358 H 0.69063 0.20433 0.00614 0.0
H359 H 0.62349 0.24381 0.98223 0.0
H360 H 0.46066 0.20746 0.01617 0.0
H361 H 0.50777 0.20227 1.00239 0.0
H362 H 0.57615 0.16448 0.02555 0.0
C363 C 0.69006 0.20526 0.9946 0.0
C364 C 0.61303 0.22587 0.99152 0.0
C365 C 0.72061 0.2083 0.98702 0.0
C366 C 0.48365 0.20758 0.02181 0.0
C367 C 0.51078 0.20479 0.01387 0.0
C368 C 0.58636 0.18196 0.01613 0.0
C369 C 0.6599 0.2048 0.98743 0.0
C370 C 0.62845 0.20364 0.99565 0.0
C371 C 0.54144 0.20536 0.02064 0.0
C372 C 0.57118 0.2044 0.01202 0.0
H373 H 0.6915 0.2119 0.95331 0.0
H374 H 0.63775 0.20602 0.96657 0.0
H375 H 0.62548 0.16363 0.01139 0.0
H376 H 0.51976 0.21346 0.05507 0.0
H377 H 0.56736 0.20861 0.04112 0.0
C378 C 0.27197 0.48311 0.35315 0.0
C379 C 0.2735 0.48523 0.36813 0.0
C380 C 0.30157 0.50962 0.3449 0.0
C381 C 0.4018 0.58155 0.34612 0.0
H382 H 0.37665 0.62361 0.31383 0.0
C383 C 0.50998 0.71783 0.31848 0.0
C384 C 0.50802 0.7209 0.30361 0.0
C385 C 0.48246 0.68666 0.32575 0.0
C386 C 0.38419 0.61173 0.32265 0.0
H387 H 0.30787 0.51653 0.38617 0.0
H388 H 0.35959 0.56302 0.37173 0.0
H389 H 0.32676 0.57389 0.32781 0.0
H390 H 0.47592 0.69299 0.28467 0.0
H391 H 0.42789 0.63819 0.2974 0.0
H392 H 0.45926 0.61963 0.34103 0.0
C393 C 0.33548 0.54059 0.36639 0.0
C394 C 0.35558 0.58329 0.33069 0.0
C395 C 0.30577 0.51406 0.37467 0.0
C396 C 0.47821 0.69158 0.29613 0.0
C397 C 0.45059 0.66029 0.30343 0.0
C398 C 0.43043 0.60995 0.33805 0.0
C399 C 0.3335 0.53888 0.35142 0.0
C400 C 0.36405 0.56811 0.34259 0.0
C401 C 0.45225 0.65765 0.31835 0.0
C402 C 0.42195 0.62565 0.32631 0.0
H403 H 0.24766 0.46117 0.34773 0.0
H404 H 0.29944 0.50722 0.33339 0.0
H405 H 0.40922 0.57002 0.3551 0.0
H406 H 0.53251 0.73984 0.32461 0.0
H407 H 0.48434 0.68583 0.33725 0.0
C408 C 0.7824 0.30451 0.71072 0.0
C409 C 0.78281 0.27453 0.70372 0.0
C410 C 0.78483 0.3346 0.70289 0.0
C411 C 0.76607 0.35756 0.66706 0.0
H412 H 0.82777 0.46075 0.67915 0.0
C413 C 0.78143 0.48066 0.63266 0.0
C414 C 0.78036 0.50992 0.63995 0.0
C415 C 0.78453 0.45304 0.64021 0.0
C416 C 0.81012 0.43205 0.6757 0.0
H417 H 0.78716 0.25329 0.68302 0.0
H418 H 0.79144 0.30555 0.66951 0.0
H419 H 0.82756 0.41061 0.6931 0.0
H420 H 0.78222 0.53328 0.66091 0.0
H421 H 0.78692 0.48499 0.67397 0.0
H422 H 0.74804 0.3787 0.64983 0.0
C423 C 0.78878 0.30562 0.681 0.0
C424 C 0.81004 0.40337 0.6837 0.0
C425 C 0.78652 0.27574 0.68878 0.0
C426 C 0.78304 0.51122 0.65492 0.0
C427 C 0.78601 0.48361 0.66244 0.0
C428 C 0.766 0.38617 0.65911 0.0
C429 C 0.78752 0.33516 0.68793 0.0
C430 C 0.78796 0.36582 0.67947 0.0
C431 C 0.78654 0.45403 0.6552 0.0
C432 C 0.78793 0.42377 0.66335 0.0
H433 H 0.77959 0.30447 0.7222 0.0
H434 H 0.78358 0.3569 0.70852 0.0
H435 H 0.74833 0.32883 0.66365 0.0
H436 H 0.77959 0.47891 0.62114 0.0
H437 H 0.78539 0.4309 0.63429 0.0
C438 C 0.30408 0.78464 0.965 0.0
C439 C 0.27382 0.78363 0.97233 0.0
C440 C 0.33487 0.78774 0.97252 0.0
C441 C 0.38163 0.81315 0.00798 0.0
H442 H 0.42197 0.75029 0.99603 0.0
C443 C 0.47981 0.78366 0.04324 0.0
C444 C 0.51001 0.78347 0.03632 0.0
C445 C 0.45254 0.78657 0.03533 0.0
C446 C 0.4113 0.76834 0.99941 0.0
H447 H 0.25256 0.78574 0.99331 0.0
H448 H 0.30563 0.79045 0.00631 0.0
H449 H 0.37226 0.75073 0.98214 0.0
H450 H 0.53567 0.78724 0.01568 0.0
H451 H 0.48835 0.79237 1.00203 0.0
H452 H 0.42034 0.83015 0.02542 0.0
C453 C 0.306 0.78947 0.99478 0.0
C454 C 0.38288 0.76869 0.99142 0.0
C455 C 0.27538 0.78649 0.98729 0.0
C456 C 0.51271 0.78704 0.02138 0.0
C457 C 0.48546 0.7898 0.01352 0.0
C458 C 0.40997 0.81266 0.01601 0.0
C459 C 0.336 0.78983 0.98751 0.0
C460 C 0.36756 0.79097 0.99564 0.0
C461 C 0.45486 0.78917 0.02037 0.0
C462 C 0.42504 0.79017 0.01183 0.0
H463 H 0.30386 0.78267 0.95348 0.0
H464 H 0.35777 0.78845 0.96658 0.0
H465 H 0.37084 0.83106 0.01141 0.0
H466 H 0.4769 0.78097 0.05472 0.0
H467 H 0.42911 0.78578 0.0409 0.0
C468 C 0.51737 0.30204 0.29923 0.0
C469 C 0.48768 0.27139 0.30623 0.0
C470 C 0.54501 0.33205 0.30708 0.0
C471 C 0.58815 0.35461 0.34273 0.0
H472 H 0.62749 0.4578 0.33102 0.0
C473 C 0.69543 0.47818 0.37706 0.0
C474 C 0.72539 0.50769 0.36972 0.0
C475 C 0.66472 0.45036 0.36958 0.0
C476 C 0.61702 0.4291 0.33437 0.0
H477 H 0.46335 0.2488 0.32697 0.0
H478 H 0.5113 0.301 0.34054 0.0
H479 H 0.57752 0.40743 0.31718 0.0
H480 H 0.7462 0.5313 0.34874 0.0
H481 H 0.69316 0.48269 0.33578 0.0
H482 H 0.62792 0.37606 0.35977 0.0
C483 C 0.51352 0.30164 0.32902 0.0
C484 C 0.58841 0.40028 0.32643 0.0
C485 C 0.48591 0.27179 0.32121 0.0
C486 C 0.72362 0.50904 0.35477 0.0
C487 C 0.69303 0.48126 0.34731 0.0
C488 C 0.61681 0.38338 0.35063 0.0
C489 C 0.54358 0.33192 0.32207 0.0
C490 C 0.57373 0.36272 0.33051 0.0
C491 C 0.66332 0.45142 0.3546 0.0
C492 C 0.6317 0.42098 0.34652 0.0
H493 H 0.51958 0.30263 0.28772 0.0
H494 H 0.56801 0.35489 0.30143 0.0
H495 H 0.57782 0.3259 0.34603 0.0
H496 H 0.69582 0.47637 0.38858 0.0
H497 H 0.64204 0.428 0.37554 0.0
C498 C 0.20277 0.4818 0.65524 0.0
C499 C 0.20563 0.48489 0.64029 0.0
C500 C 0.19961 0.50842 0.66338 0.0
C501 C 0.17557 0.58336 0.66174 0.0
H502 H 0.23967 0.62141 0.69505 0.0
C503 C 0.20541 0.7193 0.69023 0.0
C504 C 0.20918 0.72134 0.70517 0.0
C505 C 0.20137 0.68817 0.6828 0.0
C506 C 0.2211 0.61067 0.68594 0.0
H507 H 0.20625 0.5179 0.62217 0.0
H508 H 0.20082 0.5646 0.63646 0.0
H509 H 0.23911 0.57147 0.68098 0.0
H510 H 0.21069 0.69165 0.72402 0.0
H511 H 0.20315 0.63691 0.71102 0.0
H512 H 0.15772 0.62276 0.66665 0.0
C513 C 0.20085 0.54135 0.64183 0.0
C514 C 0.22085 0.58209 0.67785 0.0
C515 C 0.20411 0.51469 0.63365 0.0
C516 C 0.20801 0.69106 0.71252 0.0
C517 C 0.2039 0.65978 0.70506 0.0
C518 C 0.1757 0.61187 0.66987 0.0
C519 C 0.19915 0.53878 0.6568 0.0
C520 C 0.1983 0.56831 0.6656 0.0
C521 C 0.20088 0.65816 0.69009 0.0
C522 C 0.19875 0.62612 0.68199 0.0
H523 H 0.20357 0.45909 0.66073 0.0
H524 H 0.19773 0.50532 0.67487 0.0
H525 H 0.15751 0.57295 0.65248 0.0
H526 H 0.20622 0.74209 0.68419 0.0
H527 H 0.1997 0.68815 0.67128 0.0
C528 C 0.3851 0.1813 0.11663 0.0
C529 C 0.41545 0.21389 0.1109 0.0
C530 C 0.38013 0.17686 0.13145 0.0
C531 C 0.39986 0.22948 0.16467 0.0
H532 H 0.40016 0.1456 0.18328 0.0
C533 C 0.38505 0.20242 0.22624 0.0
C534 C 0.41525 0.19988 0.23197 0.0
C535 C 0.38016 0.20204 0.21141 0.0
C536 C 0.39963 0.16893 0.17819 0.0
H537 H 0.46396 0.26754 0.11618 0.0
H538 H 0.45468 0.26009 0.14189 0.0
H539 H 0.39979 0.14846 0.15716 0.0
H540 H 0.46357 0.19437 0.22668 0.0
H541 H 0.45442 0.19278 0.20096 0.0
H542 H 0.40015 0.25017 0.1857 0.0
C543 C 0.43499 0.23791 0.13497 0.0
C544 C 0.39924 0.17046 0.16329 0.0
C545 C 0.44043 0.24198 0.12024 0.0
C546 C 0.44017 0.19663 0.22262 0.0
C547 C 0.4348 0.1954 0.20789 0.0
C548 C 0.39945 0.22755 0.17957 0.0
C549 C 0.40487 0.20535 0.14072 0.0
C550 C 0.40028 0.20121 0.1564 0.0
C551 C 0.40481 0.19812 0.20214 0.0
C552 C 0.40025 0.19772 0.18645 0.0
H553 H 0.3654 0.15922 0.10968 0.0
H554 H 0.35673 0.15144 0.13566 0.0
H555 H 0.40057 0.25343 0.15958 0.0
H556 H 0.36539 0.2049 0.23318 0.0
H557 H 0.35686 0.20426 0.2072 0.0
C558 C 0.19358 0.38376 0.44992 0.0
C559 C 0.21076 0.41929 0.44344 0.0
C560 C 0.19437 0.38044 0.46479 0.0
C561 C 0.24476 0.43359 0.49715 0.0
H562 H 0.15231 0.36741 0.51706 0.0
C563 C 0.22852 0.45235 0.55662 0.0
C564 C 0.21172 0.42034 0.56534 0.0
C565 C 0.22727 0.44903 0.5418 0.0
C566 C 0.17845 0.38567 0.51165 0.0
H567 H 0.24304 0.47909 0.44747 0.0
H568 H 0.24449 0.47333 0.47319 0.0
H569 H 0.15392 0.3668 0.49097 0.0
H570 H 0.17917 0.35965 0.56527 0.0
H571 H 0.17695 0.35383 0.53922 0.0
H572 H 0.26923 0.45291 0.51771 0.0
C573 C 0.23058 0.44797 0.46687 0.0
C574 C 0.17941 0.38527 0.49671 0.0
C575 C 0.22957 0.45128 0.45209 0.0
C576 C 0.19235 0.38486 0.55885 0.0
C577 C 0.19106 0.38152 0.54394 0.0
C578 C 0.2438 0.434 0.51202 0.0
C579 C 0.21268 0.41258 0.47344 0.0
C580 C 0.21241 0.40981 0.48928 0.0
C581 C 0.20923 0.4136 0.53526 0.0
C582 C 0.21047 0.41065 0.51946 0.0
H583 H 0.17874 0.35859 0.44355 0.0
H584 H 0.18058 0.35277 0.46953 0.0
H585 H 0.27084 0.45228 0.49178 0.0
H586 H 0.24343 0.48015 0.56124 0.0
H587 H 0.24078 0.47434 0.53544 0.0
C588 C 0.79491 0.18184 0.89268 0.0
C589 C 0.79756 0.21457 0.89846 0.0
C590 C 0.79511 0.17735 0.87786 0.0
C591 C 0.82739 0.2299 0.84456 0.0
H592 H 0.7428 0.1458 0.82623 0.0
C593 C 0.81398 0.20276 0.78305 0.0
C594 C 0.78095 0.19972 0.77741 0.0
C595 C 0.81875 0.20245 0.79785 0.0
C596 C 0.76677 0.16921 0.83124 0.0
H597 H 0.80316 0.26846 0.89325 0.0
H598 H 0.80443 0.26093 0.86752 0.0
H599 H 0.74671 0.14892 0.85234 0.0
H600 H 0.72684 0.19337 0.78284 0.0
H601 H 0.73488 0.19193 0.80853 0.0
H602 H 0.84721 0.25043 0.82346 0.0
C603 C 0.80186 0.23867 0.87442 0.0
C604 C 0.76908 0.17088 0.84613 0.0
C605 C 0.80082 0.24279 0.88915 0.0
C606 C 0.75273 0.196 0.78683 0.0
C607 C 0.75715 0.19487 0.80154 0.0
C608 C 0.82547 0.22785 0.82967 0.0
C609 C 0.79895 0.20593 0.86862 0.0
C610 C 0.79895 0.20169 0.85292 0.0
C611 C 0.79017 0.19813 0.80721 0.0
C612 C 0.79469 0.19793 0.82288 0.0
H613 H 0.7924 0.15965 0.8996 0.0
H614 H 0.79275 0.15181 0.87361 0.0
H615 H 0.85075 0.2539 0.84957 0.0
H616 H 0.83617 0.20562 0.77604 0.0
H617 H 0.84451 0.20508 0.80199 0.0
C618 C 0.61321 0.81512 0.11563 0.0
C619 C 0.58286 0.78219 0.11011 0.0
C620 C 0.61851 0.82022 0.13041 0.0
C621 C 0.59939 0.76899 0.16399 0.0
H622 H 0.59957 0.85384 0.18198 0.0
C623 C 0.61347 0.79728 0.2254 0.0
C624 C 0.58339 0.80029 0.23096 0.0
C625 C 0.61874 0.79759 0.21061 0.0
C626 C 0.59998 0.83024 0.17706 0.0
H627 H 0.53473 0.72859 0.11573 0.0
H628 H 0.54457 0.73718 0.14139 0.0
H629 H 0.5997 0.84982 0.15588 0.0
H630 H 0.53576 0.80674 0.22543 0.0
H631 H 0.54556 0.80818 0.19976 0.0
H632 H 0.5991 0.74913 0.18517 0.0
C633 C 0.56401 0.75913 0.13432 0.0
C634 C 0.60023 0.82805 0.16218 0.0
C635 C 0.55825 0.75439 0.11963 0.0
C636 C 0.55907 0.80412 0.22149 0.0
C637 C 0.56481 0.80526 0.20679 0.0
C638 C 0.5999 0.77156 0.17887 0.0
C639 C 0.59412 0.79205 0.13987 0.0
C640 C 0.59899 0.79694 0.15552 0.0
C641 C 0.59458 0.8019 0.2012 0.0
C642 C 0.59925 0.80174 0.18554 0.0
H643 H 0.63263 0.83699 0.10854 0.0
H644 H 0.64189 0.84591 0.13447 0.0
H645 H 0.59853 0.74477 0.15908 0.0
H646 H 0.63265 0.79432 0.23246 0.0
H647 H 0.64186 0.79487 0.20652 0.0
C648 C 0.806 0.60331 0.55925 0.0
C649 C 0.77374 0.57471 0.56586 0.0
C650 C 0.80938 0.60465 0.54434 0.0
C651 C 0.76774 0.54424 0.51221 0.0
H652 H 0.81983 0.63839 0.49175 0.0
C653 C 0.79703 0.54659 0.4524 0.0
C654 C 0.79574 0.57368 0.44371 0.0
C655 C 0.79537 0.54846 0.4672 0.0
C656 C 0.80477 0.61183 0.49727 0.0
H657 H 0.71918 0.52596 0.56202 0.0
H658 H 0.72429 0.52908 0.53629 0.0
H659 H 0.8145 0.63866 0.51766 0.0
H660 H 0.79178 0.62416 0.44377 0.0
H661 H 0.78726 0.62667 0.46974 0.0
H662 H 0.75633 0.51732 0.49196 0.0
C663 C 0.74778 0.5497 0.54246 0.0
C664 C 0.80224 0.61197 0.51219 0.0
C665 C 0.74472 0.54801 0.55728 0.0
C666 C 0.79278 0.60284 0.4502 0.0
C667 C 0.7905 0.6044 0.46509 0.0
C668 C 0.76979 0.54411 0.49737 0.0
C669 C 0.7803 0.57772 0.53574 0.0
C670 C 0.78368 0.57813 0.51987 0.0
C671 C 0.79165 0.5771 0.4738 0.0
C672 C 0.78859 0.57784 0.48966 0.0
H673 H 0.82881 0.62431 0.5656 0.0
H674 H 0.83502 0.62643 0.5396 0.0
H675 H 0.7538 0.51753 0.51768 0.0
H676 H 0.79992 0.52407 0.44777 0.0
H677 H 0.79744 0.5275 0.47347 0.0
C678 C 0.19326 0.75351 0.88967 0.0
C679 C 0.19696 0.78155 0.89917 0.0
C680 C 0.19218 0.7582 0.87497 0.0
C681 C 0.22565 0.82703 0.84708 0.0
H682 H 0.14711 0.74874 0.82412 0.0
C683 C 0.24196 0.80267 0.78771 0.0
C684 C 0.21399 0.79947 0.77827 0.0
C685 C 0.2375 0.80378 0.80241 0.0
C686 C 0.16896 0.77099 0.83041 0.0
H687 H 0.20283 0.83671 0.90071 0.0
H688 H 0.2024 0.84553 0.87479 0.0
H689 H 0.1434 0.74444 0.85022 0.0
H690 H 0.15919 0.79455 0.77687 0.0
H691 H 0.15074 0.79502 0.80282 0.0
H692 H 0.25221 0.85255 0.82727 0.0
C693 C 0.19973 0.8197 0.87885 0.0
C694 C 0.16694 0.76846 0.8453 0.0
C695 C 0.19998 0.81466 0.89364 0.0
C696 C 0.18119 0.79702 0.78389 0.0
C697 C 0.17635 0.79728 0.79869 0.0
C698 C 0.22804 0.82917 0.83219 0.0
C699 C 0.19549 0.79132 0.86941 0.0
C700 C 0.19554 0.79618 0.85375 0.0
C701 C 0.20466 0.801 0.80806 0.0
C702 C 0.19999 0.80089 0.82373 0.0
H703 H 0.19064 0.72757 0.89358 0.0
H704 H 0.18931 0.73608 0.86792 0.0
H705 H 0.24814 0.84862 0.85336 0.0
H706 H 0.26768 0.80486 0.78372 0.0
H707 H 0.25955 0.80625 0.80941 0.0
C708 C 0.56732 0.63944 0.0442 0.0
C709 C 0.56865 0.65747 0.05709 0.0
C710 C 0.55241 0.60059 0.04384 0.0
C711 C 0.53227 0.51911 0.06549 0.0
H712 H 0.44832 0.46281 0.03999 0.0
C713 C 0.44308 0.35956 0.07046 0.0
C714 C 0.4304 0.33838 0.05789 0.0
C715 C 0.45866 0.39839 0.07011 0.0
C716 C 0.47206 0.478 0.04702 0.0
H717 H 0.5573 0.64945 0.07978 0.0
H718 H 0.53245 0.58184 0.07919 0.0
H719 H 0.48177 0.53119 0.03937 0.0
H720 H 0.423 0.34099 0.03513 0.0
H721 H 0.4514 0.40897 0.03437 0.0
H722 H 0.52359 0.46645 0.07294 0.0
C723 C 0.54243 0.59764 0.06937 0.0
C724 C 0.49116 0.51717 0.04666 0.0
C725 C 0.55657 0.63627 0.06969 0.0
C726 C 0.43227 0.35662 0.04501 0.0
C727 C 0.44855 0.39564 0.0446 0.0
C728 C 0.51365 0.48002 0.06569 0.0
C729 C 0.53943 0.57935 0.0564 0.0
C730 C 0.52114 0.53802 0.05601 0.0
C731 C 0.46272 0.41713 0.05711 0.0
C732 C 0.48293 0.45887 0.0566 0.0
H733 H 0.57618 0.65507 0.03431 0.0
H734 H 0.55055 0.58706 0.03372 0.0
H735 H 0.55552 0.53463 0.07272 0.0
H736 H 0.44163 0.34617 0.08057 0.0
H737 H 0.46809 0.41375 0.08003 0.0
C738 C 0.9275 0.5676 0.37724 0.0
C739 C 0.91205 0.57101 0.39013 0.0
C740 C 0.95181 0.55309 0.37715 0.0
C741 C 0.01638 0.53766 0.39872 0.0
H742 H 0.9848 0.44815 0.37599 0.0
C743 C 0.08889 0.45038 0.40501 0.0
C744 C 0.09448 0.43428 0.39274 0.0
C745 C 0.06565 0.46603 0.40461 0.0
C746 C 0.99449 0.47345 0.38223 0.0
H747 H 0.91138 0.56391 0.41305 0.0
H748 H 0.9549 0.53984 0.41291 0.0
H749 H 0.94959 0.48125 0.37482 0.0
H750 H 0.07951 0.4211 0.3705 0.0
H751 H 0.04009 0.44962 0.36958 0.0
H752 H 0.06182 0.5309 0.40587 0.0
C753 C 0.94777 0.54785 0.4029 0.0
C754 C 0.97421 0.49232 0.38156 0.0
C755 C 0.92288 0.56155 0.40297 0.0
C756 C 0.07541 0.43302 0.38016 0.0
C757 C 0.05273 0.44936 0.37967 0.0
C758 C 0.03708 0.51925 0.3992 0.0
C759 C 0.9617 0.54262 0.38997 0.0
C760 C 0.9848 0.52436 0.3899 0.0
C761 C 0.04809 0.46673 0.39182 0.0
C762 C 0.02618 0.48659 0.3911 0.0
H763 H 0.91939 0.57441 0.36718 0.0
H764 H 0.96241 0.54945 0.36706 0.0
H765 H 0.02518 0.56247 0.40519 0.0
H766 H 0.10299 0.45145 0.4149 0.0
H767 H 0.06191 0.47802 0.41431 0.0
C768 C 0.63672 0.07963 0.73645 0.0
C769 C 0.6581 0.08911 0.72387 0.0
C770 C 0.59815 0.05479 0.73606 0.0
C771 C 0.51774 0.02464 0.71315 0.0
H772 H 0.46748 0.94193 0.73963 0.0
C773 C 0.35725 0.9221 0.7116 0.0
C774 C 0.33905 0.90622 0.72454 0.0
C775 C 0.39628 0.94486 0.71114 0.0
C776 C 0.48092 0.9653 0.73232 0.0
H777 H 0.65608 0.07943 0.70108 0.0
H778 H 0.58818 0.03639 0.70038 0.0
H779 H 0.53566 0.97869 0.73945 0.0
H780 H 0.34699 0.90362 0.74727 0.0
H781 H 0.41458 0.9447 0.74662 0.0
H782 H 0.4632 0.01242 0.70636 0.0
C783 C 0.60152 0.04809 0.71052 0.0
C784 C 0.52002 0.98607 0.73214 0.0
C785 C 0.64032 0.07241 0.71095 0.0
C786 C 0.36033 0.91517 0.73711 0.0
C787 C 0.39917 0.93841 0.7367 0.0
C788 C 0.47855 0.00423 0.71347 0.0
C789 C 0.58009 0.03946 0.72306 0.0
C790 C 0.53877 0.016 0.7226 0.0
C791 C 0.41784 0.95267 0.72366 0.0
C792 C 0.45959 0.97441 0.72313 0.0
H793 H 0.64969 0.09206 0.74656 0.0
H794 H 0.58221 0.0487 0.74586 0.0
H795 H 0.5316 0.04794 0.70581 0.0
H796 H 0.34157 0.91542 0.70172 0.0
H797 H 0.40957 0.95503 0.70089 0.0
C798 C 0.63862 0.57082 0.63292 0.0
C799 C 0.6569 0.57342 0.61996 0.0
C800 C 0.59985 0.55659 0.63321 0.0
C801 C 0.51923 0.54054 0.61184 0.0
H802 H 0.46162 0.45259 0.63537 0.0
C803 C 0.35959 0.45231 0.60571 0.0
C804 C 0.33785 0.4369 0.61803 0.0
C805 C 0.39849 0.46831 0.60621 0.0
C806 C 0.47716 0.47746 0.62891 0.0
H807 H 0.64948 0.56518 0.5971 0.0
H808 H 0.58202 0.5416 0.59758 0.0
H809 H 0.52996 0.48553 0.63631 0.0
H810 H 0.33963 0.42536 0.64046 0.0
H811 H 0.40765 0.45448 0.64151 0.0
H812 H 0.46693 0.53346 0.60464 0.0
C813 C 0.59756 0.55003 0.6075 0.0
C814 C 0.51632 0.49626 0.62945 0.0
C815 C 0.63609 0.56344 0.60724 0.0
C816 C 0.35568 0.43675 0.63077 0.0
C817 C 0.39473 0.45343 0.63134 0.0
C818 C 0.48012 0.52221 0.61147 0.0
C819 C 0.57897 0.54562 0.62051 0.0
C820 C 0.53765 0.52768 0.6208 0.0
C821 C 0.41674 0.47004 0.61911 0.0
C822 C 0.45849 0.49007 0.61985 0.0
H823 H 0.65394 0.57804 0.64289 0.0
H824 H 0.58607 0.5536 0.64336 0.0
H825 H 0.53513 0.56489 0.60513 0.0
H826 H 0.34655 0.45249 0.5957 0.0
H827 H 0.41424 0.4797 0.59646 0.0
C828 C 0.07169 0.6395 0.96573 0.0
C829 C 0.08801 0.65747 0.95279 0.0
C830 C 0.04766 0.60066 0.96613 0.0
C831 C 0.98573 0.5192 0.9445 0.0
H832 H 0.013 0.46266 0.97004 0.0
C833 C 0.91528 0.35968 0.93943 0.0
C834 C 0.90645 0.33843 0.952 0.0
C835 C 0.93858 0.39849 0.93983 0.0
C836 C 0.00457 0.47793 0.96299 0.0
H837 H 0.09062 0.64932 0.93006 0.0
H838 H 0.04778 0.58176 0.93073 0.0
H839 H 0.04817 0.53105 0.97064 0.0
H840 H 0.91598 0.34095 0.9748 0.0
H841 H 0.95571 0.40891 0.97561 0.0
H842 H 0.94168 0.46659 0.93702 0.0
C843 C 0.05392 0.5976 0.94055 0.0
C844 C 0.02477 0.5171 0.96334 0.0
C845 C 0.07847 0.63621 0.94019 0.0
C846 C 0.92257 0.35661 0.96492 0.0
C847 C 0.94539 0.39562 0.96536 0.0
C848 C 0.96516 0.48011 0.94429 0.0
C849 C 0.03897 0.57937 0.95356 0.0
C850 C 0.01578 0.53803 0.95398 0.0
C851 C 0.95301 0.41716 0.95286 0.0
C852 C 0.97461 0.45889 0.95339 0.0
H853 H 0.07877 0.65516 0.97562 0.0
H854 H 0.03624 0.58719 0.97628 0.0
H855 H 0.97806 0.53476 0.93726 0.0
H856 H 0.90354 0.34634 0.9293 0.0
H857 H 0.94473 0.4139 0.92991 0.0
C858 C 0.5548 0.91709 0.27235 0.0
C859 C 0.56612 0.90721 0.28497 0.0
C860 C 0.54036 0.94134 0.27273 0.0
C861 C 0.48745 0.96904 0.29537 0.0
H862 H 0.52081 0.05322 0.26956 0.0
C863 C 0.42872 0.07097 0.29722 0.0
C864 C 0.42744 0.08789 0.2844 0.0
C865 C 0.44476 0.04799 0.29759 0.0
C866 C 0.51061 0.02942 0.27667 0.0
H867 H 0.57193 0.91555 0.30786 0.0
H868 H 0.54583 0.95755 0.30854 0.0
H869 H 0.5529 0.0171 0.26977 0.0
H870 H 0.43935 0.092 0.26176 0.0
H871 H 0.4654 0.05049 0.26223 0.0
H872 H 0.44428 0.98026 0.30193 0.0
C873 C 0.54849 0.94662 0.29837 0.0
C874 C 0.52931 0.00901 0.27687 0.0
C875 C 0.56367 0.9229 0.29796 0.0
C876 C 0.44034 0.07962 0.27183 0.0
C877 C 0.4557 0.05615 0.27214 0.0
C878 C 0.46831 0.98909 0.29502 0.0
C879 C 0.5363 0.95566 0.28577 0.0
C880 C 0.51785 0.97859 0.28618 0.0
C881 C 0.45928 0.041 0.2851 0.0
C882 C 0.4795 0.01945 0.2856 0.0
H883 H 0.55639 0.90544 0.26219 0.0
H884 H 0.53101 0.94777 0.26288 0.0
H885 H 0.47781 0.94535 0.30253 0.0
H886 H 0.41927 0.07713 0.3071 0.0
H887 H 0.44722 0.0371 0.30779 0.0
loop_
_geom_bond_atom_site_label_1
_geom_bond_atom_site_label_2
_geom_bond_distance
_geom_bond_site_symmetry_2
_ccdc_geom_bond_type
O0 Cd1 2.223 . S
O0 C8 1.315 . S
Cd1 O0 2.223 . S
Cd1 O4 2.297 . S
Cd1 O5 2.439 . S
Cd1 O11 2.240 . S
Cd2 O3 2.240 . S
Cd2 O10 2.223 . S
Cd2 O12 2.297 . S
Cd2 O13 2.439 . S
O3 Cd2 2.240 . S
O3 C8 1.279 . S
O4 Cd1 2.297 . S
O4 C6 1.247 . S
O5 Cd1 2.439 . S
O5 C6 1.208 . S
C6 O4 1.247 . S
C6 O5 1.208 . S
C7 O12 1.247 . S
C7 O13 1.208 . S
C8 O0 1.315 . S
C8 O3 1.279 . S
C9 O10 1.315 . S
C9 O11 1.279 . S
O10 Cd2 2.223 . S
O10 C9 1.315 . S
O11 Cd1 2.240 . S
O11 C9 1.279 . S
O12 Cd2 2.297 . S
O12 C7 1.247 . S
O13 Cd2 2.439 . S
O13 C7 1.208 . S
O14 Cd15 2.223 . S
O14 C22 1.315 . S
Cd15 O14 2.223 . S
Cd15 O18 2.297 . S
Cd15 O19 2.439 . S
Cd15 O25 2.240 . S
Cd16 O17 2.240 . S
Cd16 O24 2.223 . S
Cd16 O26 2.297 . S
Cd16 O27 2.439 . S
O17 Cd16 2.240 . S
O17 C22 1.279 . S
O18 Cd15 2.297 . S
O18 C20 1.247 . S
O19 Cd15 2.439 . S
O19 C20 1.208 . S
C20 O18 1.247 . S
C20 O19 1.208 . S
C21 O26 1.247 . S
C21 O27 1.208 . S
C22 O14 1.315 . S
C22 O17 1.279 . S
C23 O24 1.315 . S
C23 O25 1.279 . S
O24 Cd16 2.223 . S
O24 C23 1.315 . S
O25 Cd15 2.240 . S
O25 C23 1.279 . S
O26 Cd16 2.297 . S
O26 C21 1.247 . S
O27 Cd16 2.439 . S
O27 C21 1.208 . S
O28 Cd29 2.223 . S
O28 C36 1.315 . S
Cd29 O28 2.223 . S
Cd29 O32 2.297 . S
Cd29 O33 2.439 . S
Cd29 O39 2.240 . S
Cd30 O31 2.240 . S
Cd30 O38 2.223 . S
Cd30 O40 2.297 . S
Cd30 O41 2.439 . S
O31 Cd30 2.240 . S
O31 C36 1.279 . S
O32 Cd29 2.297 . S
O32 C34 1.247 . S
O33 Cd29 2.439 . S
O33 C34 1.208 . S
C34 O32 1.247 . S
C34 O33 1.208 . S
C35 O40 1.247 . S
C35 O41 1.208 . S
C36 O28 1.315 . S
C36 O31 1.279 . S
C37 O38 1.315 . S
C37 O39 1.279 . S
O38 Cd30 2.223 . S
O38 C37 1.315 . S
O39 Cd29 2.240 . S
O39 C37 1.279 . S
O40 Cd30 2.297 . S
O40 C35 1.247 . S
O41 Cd30 2.439 . S
O41 C35 1.208 . S
O42 Cd43 2.223 . S
O42 C50 1.315 . S
Cd43 O42 2.223 . S
Cd43 O46 2.297 . S
Cd43 O47 2.439 . S
Cd43 O53 2.240 . S
Cd44 O45 2.240 . S
Cd44 O52 2.223 . S
Cd44 O54 2.297 . S
Cd44 O55 2.439 . S
O45 Cd44 2.240 . S
O45 C50 1.279 . S
O46 Cd43 2.297 . S
O46 C48 1.247 . S
O47 Cd43 2.439 . S
O47 C48 1.208 . S
C48 O46 1.247 . S
C48 O47 1.208 . S
C49 O54 1.247 . S
C49 O55 1.208 . S
C50 O42 1.315 . S
C50 O45 1.279 . S
C51 O52 1.315 . S
C51 O53 1.279 . S
O52 Cd44 2.223 . S
O52 C51 1.315 . S
O53 Cd43 2.240 . S
O53 C51 1.279 . S
O54 Cd44 2.297 . S
O54 C49 1.247 . S
O55 Cd44 2.439 . S
O55 C49 1.208 . S
O56 Cd57 2.223 . S
O56 C64 1.315 . S
Cd57 O56 2.223 . S
Cd57 O60 2.297 . S
Cd57 O61 2.439 . S
Cd57 O67 2.240 . S
Cd58 O59 2.240 . S
Cd58 O66 2.223 . S
Cd58 O68 2.297 . S
Cd58 O69 2.439 . S
O59 Cd58 2.240 . S
O59 C64 1.279 . S
O60 Cd57 2.297 . S
O60 C62 1.247 . S
O61 Cd57 2.439 . S
O61 C62 1.208 . S
C62 O60 1.247 . S
C62 O61 1.208 . S
C63 O68 1.247 . S
C63 O69 1.208 . S
C64 O56 1.315 . S
C64 O59 1.279 . S
C65 O66 1.315 . S
C65 O67 1.279 . S
O66 Cd58 2.223 . S
O66 C65 1.315 . S
O67 Cd57 2.240 . S
O67 C65 1.279 . S
O68 Cd58 2.297 . S
O68 C63 1.247 . S
O69 Cd58 2.439 . S
O69 C63 1.208 . S
O70 Cd71 2.223 . S
O70 C78 1.315 . S
Cd71 O70 2.223 . S
Cd71 O74 2.297 . S
Cd71 O75 2.439 . S
Cd71 O81 2.240 . S
Cd72 O73 2.240 . S
Cd72 O80 2.223 . S
Cd72 O82 2.297 . S
Cd72 O83 2.439 . S
O73 Cd72 2.240 . S
O73 C78 1.279 . S
O74 Cd71 2.297 . S
O74 C76 1.247 . S
O75 Cd71 2.439 . S
O75 C76 1.208 . S
C76 O74 1.247 . S
C76 O75 1.208 . S
C77 O82 1.247 . S
C77 O83 1.208 . S
C78 O70 1.315 . S
C78 O73 1.279 . S
C79 O80 1.315 . S
C79 O81 1.279 . S
O80 Cd72 2.223 . S
O80 C79 1.315 . S
O81 Cd71 2.240 . S
O81 C79 1.279 . S
O82 Cd72 2.297 . S
O82 C77 1.247 . S
O83 Cd72 2.439 . S
O83 C77 1.208 . S
O84 Cd85 2.223 . S
O84 C92 1.315 . S
Cd85 O84 2.223 . S
Cd85 O88 2.297 . S
Cd85 O89 2.439 . S
Cd85 O95 2.240 . S
Cd86 O87 2.240 . S
Cd86 O94 2.223 . S
Cd86 O96 2.297 . S
Cd86 O97 2.439 . S
O87 Cd86 2.240 . S
O87 C92 1.279 . S
O88 Cd85 2.297 . S
O88 C90 1.247 . S
O89 Cd85 2.439 . S
O89 C90 1.208 . S
C90 O88 1.247 . S
C90 O89 1.208 . S
C91 O96 1.247 . S
C91 O97 1.208 . S
C92 O84 1.315 . S
C92 O87 1.279 . S
C93 O94 1.315 . S
C93 O95 1.279 . S
O94 Cd86 2.223 . S
O94 C93 1.315 . S
O95 Cd85 2.240 . S
O95 C93 1.279 . S
O96 Cd86 2.297 . S
O96 C91 1.247 . S
O97 Cd86 2.439 . S
O97 C91 1.208 . S
O98 Cd99 2.223 . S
O98 C106 1.315 . S
Cd99 O98 2.223 . S
Cd99 O102 2.297 . S
Cd99 O103 2.439 . S
Cd99 O109 2.240 . S
Cd100 O101 2.240 . S
Cd100 O108 2.223 . S
Cd100 O110 2.297 . S
Cd100 O111 2.439 . S
O101 Cd100 2.240 . S
O101 C106 1.279 . S
O102 Cd99 2.297 . S
O102 C104 1.247 . S
O103 Cd99 2.439 . S
O103 C104 1.208 . S
C104 O102 1.247 . S
C104 O103 1.208 . S
C105 O110 1.247 . S
C105 O111 1.208 . S
C106 O98 1.315 . S
C106 O101 1.279 . S
C107 O108 1.315 . S
C107 O109 1.279 . S
O108 Cd100 2.223 . S
O108 C107 1.315 . S
O109 Cd99 2.240 . S
O109 C107 1.279 . S
O110 Cd100 2.297 . S
O110 C105 1.247 . S
O111 Cd100 2.439 . S
O111 C105 1.208 . S
O112 Cd113 2.223 . S
O112 C120 1.315 . S
Cd113 O112 2.223 . S
Cd113 O116 2.297 . S
Cd113 O117 2.439 . S
Cd113 O123 2.240 . S
Cd114 O115 2.240 . S
Cd114 O122 2.223 . S
Cd114 O124 2.297 . S
Cd114 O125 2.439 . S
O115 Cd114 2.240 . S
O115 C120 1.279 . S
O116 Cd113 2.297 . S
O116 C118 1.247 . S
O117 Cd113 2.439 . S
O117 C118 1.208 . S
C118 O116 1.247 . S
C118 O117 1.208 . S
C119 O124 1.247 . S
C119 O125 1.208 . S
C120 O112 1.315 . S
C120 O115 1.279 . S
C121 O122 1.315 . S
C121 O123 1.279 . S
O122 Cd114 2.223 . S
O122 C121 1.315 . S
O123 Cd113 2.240 . S
O123 C121 1.279 . S
O124 Cd114 2.297 . S
O124 C119 1.247 . S
O125 Cd114 2.439 . S
O125 C119 1.208 . S
O126 Cd127 2.223 . S
O126 C134 1.315 . S
Cd127 O126 2.223 . S
Cd127 O130 2.297 . S
Cd127 O131 2.439 . S
Cd127 O137 2.240 . S
Cd128 O129 2.240 . S
Cd128 O136 2.223 . S
Cd128 O138 2.297 . S
Cd128 O139 2.439 . S
O129 Cd128 2.240 . S
O129 C134 1.279 . S
O130 Cd127 2.297 . S
O130 C132 1.247 . S
O131 Cd127 2.439 . S
O131 C132 1.208 . S
C132 O130 1.247 . S
C132 O131 1.208 . S
C133 O138 1.247 . S
C133 O139 1.208 . S
C134 O126 1.315 . S
C134 O129 1.279 . S
C135 O136 1.315 . S
C135 O137 1.279 . S
O136 Cd128 2.223 . S
O136 C135 1.315 . S
O137 Cd127 2.240 . S
O137 C135 1.279 . S
O138 Cd128 2.297 . S
O138 C133 1.247 . S
O139 Cd128 2.439 . S
O139 C133 1.208 . S
O140 Cd141 2.223 . S
O140 C148 1.315 . S
Cd141 O140 2.223 . S
Cd141 O144 2.297 . S
Cd141 O145 2.439 . S
Cd141 O151 2.240 . S
Cd142 O143 2.240 . S
Cd142 O150 2.223 . S
Cd142 O152 2.297 . S
Cd142 O153 2.439 . S
O143 Cd142 2.240 . S
O143 C148 1.279 . S
O144 Cd141 2.297 . S
O144 C146 1.247 . S
O145 Cd141 2.439 . S
O145 C146 1.208 . S
C146 O144 1.247 . S
C146 O145 1.208 . S
C147 O152 1.247 . S
C147 O153 1.208 . S
C148 O140 1.315 . S
C148 O143 1.279 . S
C149 O150 1.315 . S
C149 O151 1.279 . S
O150 Cd142 2.223 . S
O150 C149 1.315 . S
O151 Cd141 2.240 . S
O151 C149 1.279 . S
O152 Cd142 2.297 . S
O152 C147 1.247 . S
O153 Cd142 2.439 . S
O153 C147 1.208 . S
O154 Cd155 2.223 . S
O154 C162 1.315 . S
Cd155 O154 2.223 . S
Cd155 O158 2.297 . S
Cd155 O159 2.439 . S
Cd155 O165 2.240 . S
Cd156 O157 2.240 . S
Cd156 O164 2.223 . S
Cd156 O166 2.297 . S
Cd156 O167 2.439 . S
O157 Cd156 2.240 . S
O157 C162 1.279 . S
O158 Cd155 2.297 . S
O158 C160 1.247 . S
O159 Cd155 2.439 . S
O159 C160 1.208 . S
C160 O158 1.247 . S
C160 O159 1.208 . S
C161 O166 1.247 . S
C161 O167 1.208 . S
C162 O154 1.315 . S
C162 O157 1.279 . S
C163 O164 1.315 . S
C163 O165 1.279 . S
O164 Cd156 2.223 . S
O164 C163 1.315 . S
O165 Cd155 2.240 . S
O165 C163 1.279 . S
O166 Cd156 2.297 . S
O166 C161 1.247 . S
O167 Cd156 2.439 . S
O167 C161 1.208 . S
C168 C169 1.349 . S
C168 C170 1.327 . S
C168 H193 0.950 . S
C169 C168 1.349 . S
C169 C185 1.349 . S
C170 C168 1.327 . S
C170 C189 1.429 . S
C170 H194 0.975 . S
C171 C188 1.574 1_565 S
C171 C190 1.368 . S
C171 H195 0.949 . S
H172 C176 0.949 . S
C173 C174 1.349 . S
C173 C175 1.327 . S
C173 H196 0.950 . S
C174 C173 1.349 . S
C174 C186 1.349 . S
C175 C173 1.327 . S
C175 C191 1.429 . S
C175 H197 0.975 . S
C176 H172 0.949 . S
C176 C184 1.574 1_545 S
C176 C192 1.368 . S
H177 C185 0.950 . S
H178 C183 0.950 . S
H179 C184 0.949 . S
H180 C186 0.950 . S
H181 C187 0.950 . S
H182 C188 0.949 . S
C183 H178 0.950 . S
C183 C185 1.327 . S
C183 C189 1.429 . S
C184 C176 1.574 1_565 S
C184 H179 0.949 . S
C184 C190 1.368 1_554 S
C185 C169 1.349 . S
C185 H177 0.950 . S
C185 C183 1.327 . S
C186 C174 1.349 . S
C186 H180 0.950 . S
C186 C187 1.327 . S
C187 H181 0.950 . S
C187 C186 1.327 . S
C187 C191 1.429 . S
C188 C171 1.574 1_545 S
C188 H182 0.949 . S
C188 C192 1.368 1_556 S
C189 C170 1.429 . S
C189 C183 1.429 . S
C189 C190 1.523 . S
C190 C171 1.368 . S
C190 C184 1.368 1_556 S
C190 C189 1.523 . S
C191 C175 1.429 . S
C191 C187 1.429 . S
C191 C192 1.523 . S
C192 C176 1.368 . S
C192 C188 1.368 1_554 S
C192 C191 1.523 . S
H193 C168 0.950 . S
H194 C170 0.975 . S
H195 C171 0.949 . S
H196 C173 0.950 . S
H197 C175 0.975 . S
C198 C199 1.349 . S
C198 C200 1.327 . S
C198 H223 0.950 . S
C199 C198 1.349 . S
C199 C215 1.349 . S
C200 C198 1.327 . S
C200 C219 1.429 . S
C200 H224 0.950 . S
C201 C218 1.574 . S
C201 C220 1.368 . S
C201 H225 0.949 . S
H202 C206 0.949 . S
C203 C204 1.349 . S
C203 C205 1.327 . S
C203 H226 0.950 . S
C204 C203 1.349 . S
C204 C216 1.349 . S
C205 C203 1.327 . S
C205 C221 1.429 . S
C205 H227 0.950 . S
C206 H202 0.949 . S
C206 C214 1.574 . S
C206 C222 1.368 . S
H207 C215 0.950 . S
H208 C213 0.950 . S
H209 C214 0.949 . S
H210 C216 0.950 . S
H211 C217 0.950 . S
H212 C218 0.949 . S
C213 H208 0.950 . S
C213 C215 1.327 . S
C213 C219 1.429 . S
C214 C206 1.574 . S
C214 H209 0.949 . S
C214 C220 1.368 . S
C215 C199 1.349 . S
C215 H207 0.950 . S
C215 C213 1.327 . S
C216 C204 1.349 . S
C216 H210 0.950 . S
C216 C217 1.327 . S
C217 H211 0.950 . S
C217 C216 1.327 . S
C217 C221 1.429 . S
C218 C201 1.574 . S
C218 H212 0.949 . S
C218 C222 1.368 . S
C219 C200 1.429 . S
C219 C213 1.429 . S
C219 C220 1.523 . S
C220 C201 1.368 . S
C220 C214 1.368 . S
C220 C219 1.523 . S
C221 C205 1.429 . S
C221 C217 1.429 . S
C221 C222 1.523 . S
C222 C206 1.368 . S
C222 C218 1.368 . S
C222 C221 1.523 . S
H223 C198 0.950 . S
H224 C200 0.950 . S
H225 C201 0.949 . S
H226 C203 0.950 . S
H227 C205 0.950 . S
C228 C229 1.349 . S
C228 C230 1.327 . S
C228 H253 0.950 . S
C229 C228 1.349 . S
C229 C245 1.349 . S
C230 C228 1.327 . S
C230 C249 1.429 . S
C230 H254 0.950 . S
C231 C248 1.574 1_655 S
C231 C250 1.368 . S
C231 H255 0.949 . S
H232 C236 0.949 . S
C233 C234 1.349 . S
C233 C235 1.327 . S
C233 H256 0.950 . S
C234 C233 1.349 . S
C234 C246 1.349 . S
C235 C233 1.327 . S
C235 C251 1.429 . S
C235 H257 0.950 . S
C236 H232 0.949 . S
C236 C244 1.574 1_455 S
C236 C252 1.368 . S
H237 C245 0.950 . S
H238 C243 0.950 . S
H239 C244 0.949 . S
H240 C246 0.950 . S
H241 C247 0.950 . S
H242 C248 0.949 . S
C243 H238 0.950 . S
C243 C245 1.327 . S
C243 C249 1.429 . S
C244 C236 1.574 1_655 S
C244 H239 0.949 . S
C244 C250 1.368 . S
C245 C229 1.349 . S
C245 H237 0.950 . S
C245 C243 1.327 . S
C246 C234 1.349 . S
C246 H240 0.950 . S
C246 C247 1.327 . S
C247 H241 0.950 . S
C247 C246 1.327 . S
C247 C251 1.429 . S
C248 C231 1.574 1_455 S
C248 H242 0.949 . S
C248 C252 1.368 . S
C249 C230 1.429 . S
C249 C243 1.429 . S
C249 C250 1.523 . S
C250 C231 1.368 . S
C250 C244 1.368 . S
C250 C249 1.523 . S
C251 C235 1.429 . S
C251 C247 1.429 . S
C251 C252 1.523 . S
C252 C236 1.368 . S
C252 C248 1.368 . S
C252 C251 1.523 . S
H253 C228 0.950 . S
H254 C230 0.950 . S
H255 C231 0.949 . S
H256 C233 0.950 . S
H257 C235 0.950 . S
C258 C259 1.349 . S
C258 C260 1.327 . S
C258 H283 0.950 . S
C259 C258 1.349 . S
C259 C275 1.349 . S
C260 C258 1.327 . S
C260 C279 1.429 . S
C260 H284 0.950 . S
C261 C278 1.574 1_565 S
C261 C280 1.368 1_556 S
C261 H285 0.949 . S
H262 C266 0.949 . S
C263 C264 1.349 . S
C263 C265 1.327 . S
C263 H286 0.950 . S
C264 C263 1.349 . S
C264 C276 1.349 . S
C265 C263 1.327 . S
C265 C281 1.429 . S
C265 H287 0.950 . S
C266 H262 0.949 . S
C266 C274 1.574 1_545 S
C266 C282 1.368 1_554 S
H267 C275 0.950 . S
H268 C273 0.950 . S
H269 C274 0.949 . S
H270 C276 0.950 . S
H271 C277 0.950 . S
H272 C278 0.949 . S
C273 H268 0.950 . S
C273 C275 1.327 . S
C273 C279 1.429 . S
C274 C266 1.574 1_565 S
C274 H269 0.949 . S
C274 C280 1.368 . S
C275 C259 1.349 . S
C275 H267 0.950 . S
C275 C273 1.327 . S
C276 C264 1.349 . S
C276 H270 0.950 . S
C276 C277 1.327 . S
C277 H271 0.950 . S
C277 C276 1.327 . S
C277 C281 1.429 . S
C278 C261 1.574 1_545 S
C278 H272 0.949 . S
C278 C282 1.368 . S
C279 C260 1.429 . S
C279 C273 1.429 . S
C279 C280 1.523 . S
C280 C261 1.368 1_554 S
C280 C274 1.368 . S
C280 C279 1.523 . S
C281 C265 1.429 . S
C281 C277 1.429 . S
C281 C282 1.523 . S
C282 C266 1.368 1_556 S
C282 C278 1.368 . S
C282 C281 1.523 . S
H283 C258 0.950 . S
H284 C260 0.950 . S
H285 C261 0.949 . S
H286 C263 0.950 . S
H287 C265 0.950 . S
C288 C289 1.349 . S
C288 C290 1.327 . S
C288 H313 0.950 . S
C289 C288 1.349 . S
C289 C305 1.349 . S
C290 C288 1.327 . S
C290 C309 1.429 . S
C290 H314 0.950 . S
C291 C308 1.574 . S
C291 C310 1.368 . S
C291 H315 0.949 . S
H292 C296 0.949 . S
C293 C294 1.349 . S
C293 C295 1.327 . S
C293 H316 0.950 . S
C294 C293 1.349 . S
C294 C306 1.349 . S
C295 C293 1.327 . S
C295 C311 1.429 . S
C295 H317 0.950 . S
C296 H292 0.949 . S
C296 C304 1.574 . S
C296 C312 1.368 . S
H297 C305 0.950 . S
H298 C303 0.950 . S
H299 C304 0.949 . S
H300 C306 0.950 . S
H301 C307 0.950 . S
H302 C308 0.949 . S
C303 H298 0.950 . S
C303 C305 1.327 . S
C303 C309 1.429 . S
C304 C296 1.574 . S
C304 H299 0.949 . S
C304 C310 1.368 . S
C305 C289 1.349 . S
C305 H297 0.950 . S
C305 C303 1.327 . S
C306 C294 1.349 . S
C306 H300 0.950 . S
C306 C307 1.327 . S
C307 H301 0.950 . S
C307 C306 1.327 . S
C307 C311 1.429 . S
C308 C291 1.574 . S
C308 H302 0.949 . S
C308 C312 1.368 . S
C309 C290 1.429 . S
C309 C303 1.429 . S
C309 C310 1.523 . S
C310 C291 1.368 . S
C310 C304 1.368 . S
C310 C309 1.523 . S
C311 C295 1.429 . S
C311 C307 1.429 . S
C311 C312 1.523 . S
C312 C296 1.368 . S
C312 C308 1.368 . S
C312 C311 1.523 . S
H313 C288 0.950 . S
H314 C290 0.950 . S
H315 C291 0.949 . S
H316 C293 0.950 . S
H317 C295 0.950 . S
C318 C319 1.349 . S
C318 C320 1.327 . S
C318 H343 0.950 . S
C319 C318 1.349 . S
C319 C335 1.349 . S
C320 C318 1.327 . S
C320 C339 1.429 . S
C320 H344 0.950 . S
C321 C338 1.557 1_655 S
C321 C340 1.382 . S
C321 H345 0.952 . S
H322 C326 0.952 . S
C323 C324 1.349 . S
C323 C325 1.327 . S
C323 H346 0.950 . S
C324 C323 1.349 . S
C324 C336 1.349 . S
C325 C323 1.327 . S
C325 C341 1.429 . S
C325 H347 0.950 . S
C326 H322 0.952 . S
C326 C334 1.558 1_455 S
C326 C342 1.382 . S
H327 C335 0.950 . S
H328 C333 0.950 . S
H329 C334 0.949 . S
H330 C336 0.950 . S
H331 C337 0.950 . S
H332 C338 0.949 . S
C333 H328 0.950 . S
C333 C335 1.327 . S
C333 C339 1.429 . S
C334 C326 1.558 1_655 S
C334 H329 0.949 . S
C334 C340 1.368 . S
C335 C319 1.349 . S
C335 H327 0.950 . S
C335 C333 1.327 . S
C336 C324 1.349 . S
C336 H330 0.950 . S
C336 C337 1.327 . S
C337 H331 0.950 . S
C337 C336 1.327 . S
C337 C341 1.429 . S
C338 C321 1.557 1_455 S
C338 H332 0.949 . S
C338 C342 1.368 . S
C339 C320 1.429 . S
C339 C333 1.429 . S
C339 C340 1.523 . S
C340 C321 1.382 . S
C340 C334 1.368 . S
C340 C339 1.523 . S
C341 C325 1.429 . S
C341 C337 1.429 . S
C341 C342 1.523 . S
C342 C326 1.382 . S
C342 C338 1.368 . S
C342 C341 1.523 . S
H343 C318 0.950 . S
H344 C320 0.950 . S
H345 C321 0.952 . S
H346 C323 0.950 . S
H347 C325 0.950 . S
C348 C349 1.349 . S
C348 C350 1.327 . S
C348 H373 0.950 . S
C349 C348 1.349 . S
C349 C365 1.349 . S
C350 C348 1.327 . S
C350 C369 1.429 . S
C350 H374 0.950 . S
C351 C368 1.574 . S
C351 C370 1.368 1_554 S
C351 H375 0.949 . S
H352 C356 0.949 . S
C353 C354 1.349 . S
C353 C355 1.327 . S
C353 H376 0.950 . S
C354 C353 1.349 . S
C354 C366 1.349 . S
C355 C353 1.327 . S
C355 C371 1.429 . S
C355 H377 0.950 . S
C356 H352 0.949 . S
C356 C364 1.574 . S
C356 C372 1.368 1_556 S
H357 C365 0.950 . S
H358 C363 0.950 . S
H359 C364 0.949 . S
H360 C366 0.950 . S
H361 C367 0.950 . S
H362 C368 0.949 . S
C363 H358 0.950 . S
C363 C365 1.327 . S
C363 C369 1.429 . S
C364 C356 1.574 . S
C364 H359 0.949 . S
C364 C370 1.368 . S
C365 C349 1.349 . S
C365 H357 0.950 . S
C365 C363 1.327 . S
C366 C354 1.349 . S
C366 H360 0.950 . S
C366 C367 1.327 . S
C367 H361 0.950 . S
C367 C366 1.327 . S
C367 C371 1.429 . S
C368 C351 1.574 . S
C368 H362 0.949 . S
C368 C372 1.368 . S
C369 C350 1.429 . S
C369 C363 1.429 . S
C369 C370 1.523 . S
C370 C351 1.368 1_556 S
C370 C364 1.368 . S
C370 C369 1.523 . S
C371 C355 1.429 . S
C371 C367 1.429 . S
C371 C372 1.523 . S
C372 C356 1.368 1_554 S
C372 C368 1.368 . S
C372 C371 1.523 . S
H373 C348 0.950 . S
H374 C350 0.950 . S
H375 C351 0.949 . S
H376 C353 0.950 . S
H377 C355 0.950 . S
C378 C379 1.349 . S
C378 C380 1.327 . S
C378 H403 0.950 . S
C379 C378 1.349 . S
C379 C395 1.349 . S
C380 C378 1.327 . S
C380 C399 1.429 . S
C380 H404 0.950 . S
C381 C398 1.574 . S
C381 C400 1.368 . S
C381 H405 0.949 . S
H382 C386 0.949 . S
C383 C384 1.349 . S
C383 C385 1.327 . S
C383 H406 0.950 . S
C384 C383 1.349 . S
C384 C396 1.349 . S
C385 C383 1.327 . S
C385 C401 1.429 . S
C385 H407 0.950 . S
C386 H382 0.949 . S
C386 C394 1.574 . S
C386 C402 1.368 . S
H387 C395 0.950 . S
H388 C393 0.950 . S
H389 C394 0.949 . S
H390 C396 0.950 . S
H391 C397 0.950 . S
H392 C398 0.949 . S
C393 H388 0.950 . S
C393 C395 1.327 . S
C393 C399 1.429 . S
C394 C386 1.574 . S
C394 H389 0.949 . S
C394 C400 1.368 . S
C395 C379 1.349 . S
C395 H387 0.950 . S
C395 C393 1.327 . S
C396 C384 1.349 . S
C396 H390 0.950 . S
C396 C397 1.327 . S
C397 H391 0.950 . S
C397 C396 1.327 . S
C397 C401 1.429 . S
C398 C381 1.574 . S
C398 H392 0.949 . S
C398 C402 1.368 . S
C399 C380 1.429 . S
C399 C393 1.429 . S
C399 C400 1.523 . S
C400 C381 1.368 . S
C400 C394 1.368 . S
C400 C399 1.523 . S
C401 C385 1.429 . S
C401 C397 1.429 . S
C401 C402 1.523 . S
C402 C386 1.368 . S
C402 C398 1.368 . S
C402 C401 1.523 . S
H403 C378 0.950 . S
H404 C380 0.950 . S
H405 C381 0.949 . S
H406 C383 0.950 . S
H407 C385 0.950 . S
C408 C409 1.349 . S
C408 C410 1.327 . S
C408 H433 0.950 . S
C409 C408 1.349 . S
C409 C425 1.349 . S
C410 C408 1.327 . S
C410 C429 1.429 . S
C410 H434 0.950 . S
C411 C428 1.574 . S
C411 C430 1.368 . S
C411 H435 0.949 . S
H412 C416 0.949 . S
C413 C414 1.349 . S
C413 C415 1.327 . S
C413 H436 0.950 . S
C414 C413 1.349 . S
C414 C426 1.349 . S
C415 C413 1.327 . S
C415 C431 1.429 . S
C415 H437 0.950 . S
C416 H412 0.949 . S
C416 C424 1.574 . S
C416 C432 1.368 . S
H417 C425 0.950 . S
H418 C423 0.950 . S
H419 C424 0.949 . S
H420 C426 0.950 . S
H421 C427 0.950 . S
H422 C428 0.949 . S
C423 H418 0.950 . S
C423 C425 1.327 . S
C423 C429 1.429 . S
C424 C416 1.574 . S
C424 H419 0.949 . S
C424 C430 1.368 . S
C425 C409 1.349 . S
C425 H417 0.950 . S
C425 C423 1.327 . S
C426 C414 1.349 . S
C426 H420 0.950 . S
C426 C427 1.327 . S
C427 H421 0.950 . S
C427 C426 1.327 . S
C427 C431 1.429 . S
C428 C411 1.574 . S
C428 H422 0.949 . S
C428 C432 1.368 . S
C429 C410 1.429 . S
C429 C423 1.429 . S
C429 C430 1.523 . S
C430 C411 1.368 . S
C430 C424 1.368 . S
C430 C429 1.523 . S
C431 C415 1.429 . S
C431 C427 1.429 . S
C431 C432 1.523 . S
C432 C416 1.368 . S
C432 C428 1.368 . S
C432 C431 1.523 . S
H433 C408 0.950 . S
H434 C410 0.950 . S
H435 C411 0.949 . S
H436 C413 0.950 . S
H437 C415 0.950 . S
C438 C439 1.349 . S
C438 C440 1.327 . S
C438 H463 0.950 . S
C439 C438 1.349 . S
C439 C455 1.349 . S
C440 C438 1.327 . S
C440 C459 1.429 . S
C440 H464 0.950 . S
C441 C458 1.574 . S
C441 C460 1.368 1_554 S
C441 H465 0.949 . S
H442 C446 0.949 . S
C443 C444 1.349 . S
C443 C445 1.327 . S
C443 H466 0.950 . S
C444 C443 1.349 . S
C444 C456 1.349 . S
C445 C443 1.327 . S
C445 C461 1.429 . S
C445 H467 0.950 . S
C446 H442 0.949 . S
C446 C454 1.574 . S
C446 C462 1.368 1_556 S
H447 C455 0.950 . S
H448 C453 0.950 . S
H449 C454 0.949 . S
H450 C456 0.950 . S
H451 C457 0.950 . S
H452 C458 0.949 . S
C453 H448 0.950 . S
C453 C455 1.327 . S
C453 C459 1.429 . S
C454 C446 1.574 . S
C454 H449 0.949 . S
C454 C460 1.368 . S
C455 C439 1.349 . S
C455 H447 0.950 . S
C455 C453 1.327 . S
C456 C444 1.349 . S
C456 H450 0.950 . S
C456 C457 1.327 . S
C457 H451 0.950 . S
C457 C456 1.327 . S
C457 C461 1.429 . S
C458 C441 1.574 . S
C458 H452 0.949 . S
C458 C462 1.368 . S
C459 C440 1.429 . S
C459 C453 1.429 . S
C459 C460 1.523 . S
C460 C441 1.368 1_556 S
C460 C454 1.368 . S
C460 C459 1.523 . S
C461 C445 1.429 . S
C461 C457 1.429 . S
C461 C462 1.523 . S
C462 C446 1.368 1_554 S
C462 C458 1.368 . S
C462 C461 1.523 . S
H463 C438 0.950 . S
H464 C440 0.950 . S
H465 C441 0.949 . S
H466 C443 0.950 . S
H467 C445 0.950 . S
C468 C469 1.349 . S
C468 C470 1.327 . S
C468 H493 0.950 . S
C469 C468 1.349 . S
C469 C485 1.349 . S
C470 C468 1.327 . S
C470 C489 1.429 . S
C470 H494 0.950 . S
C471 C488 1.574 . S
C471 C490 1.368 . S
C471 H495 0.949 . S
H472 C476 0.949 . S
C473 C474 1.349 . S
C473 C475 1.327 . S
C473 H496 0.950 . S
C474 C473 1.349 . S
C474 C486 1.349 . S
C475 C473 1.327 . S
C475 C491 1.429 . S
C475 H497 0.950 . S
C476 H472 0.949 . S
C476 C484 1.574 . S
C476 C492 1.368 . S
H477 C485 0.950 . S
H478 C483 0.950 . S
H479 C484 0.949 . S
H480 C486 0.950 . S
H481 C487 0.950 . S
H482 C488 0.949 . S
C483 H478 0.950 . S
C483 C485 1.327 . S
C483 C489 1.429 . S
C484 C476 1.574 . S
C484 H479 0.949 . S
C484 C490 1.368 . S
C485 C469 1.349 . S
C485 H477 0.950 . S
C485 C483 1.327 . S
C486 C474 1.349 . S
C486 H480 0.950 . S
C486 C487 1.327 . S
C487 H481 0.950 . S
C487 C486 1.327 . S
C487 C491 1.429 . S
C488 C471 1.574 . S
C488 H482 0.949 . S
C488 C492 1.368 . S
C489 C470 1.429 . S
C489 C483 1.429 . S
C489 C490 1.523 . S
C490 C471 1.368 . S
C490 C484 1.368 . S
C490 C489 1.523 . S
C491 C475 1.429 . S
C491 C487 1.429 . S
C491 C492 1.523 . S
C492 C476 1.368 . S
C492 C488 1.368 . S
C492 C491 1.523 . S
H493 C468 0.950 . S
H494 C470 0.950 . S
H495 C471 0.949 . S
H496 C473 0.950 . S
H497 C475 0.950 . S
C498 C499 1.349 . S
C498 C500 1.327 . S
C498 H523 0.950 . S
C499 C498 1.349 . S
C499 C515 1.349 . S
C500 C498 1.327 . S
C500 C519 1.429 . S
C500 H524 0.950 . S
C501 C518 1.574 . S
C501 C520 1.368 . S
C501 H525 0.949 . S
H502 C506 0.949 . S
C503 C504 1.349 . S
C503 C505 1.327 . S
C503 H526 0.950 . S
C504 C503 1.349 . S
C504 C516 1.349 . S
C505 C503 1.327 . S
C505 C521 1.429 . S
C505 H527 0.950 . S
C506 H502 0.949 . S
C506 C514 1.574 . S
C506 C522 1.368 . S
H507 C515 0.950 . S
H508 C513 0.950 . S
H509 C514 0.949 . S
H510 C516 0.950 . S
H511 C517 0.950 . S
H512 C518 0.949 . S
C513 H508 0.950 . S
C513 C515 1.327 . S
C513 C519 1.429 . S
C514 C506 1.574 . S
C514 H509 0.949 . S
C514 C520 1.368 . S
C515 C499 1.349 . S
C515 H507 0.950 . S
C515 C513 1.327 . S
C516 C504 1.349 . S
C516 H510 0.950 . S
C516 C517 1.327 . S
C517 H511 0.950 . S
C517 C516 1.327 . S
C517 C521 1.429 . S
C518 C501 1.574 . S
C518 H512 0.949 . S
C518 C522 1.368 . S
C519 C500 1.429 . S
C519 C513 1.429 . S
C519 C520 1.523 . S
C520 C501 1.368 . S
C520 C514 1.368 . S
C520 C519 1.523 . S
C521 C505 1.429 . S
C521 C517 1.429 . S
C521 C522 1.523 . S
C522 C506 1.368 . S
C522 C518 1.368 . S
C522 C521 1.523 . S
H523 C498 0.950 . S
H524 C500 0.950 . S
H525 C501 0.949 . S
H526 C503 0.950 . S
H527 C505 0.950 . S
C528 C529 1.349 . S
C528 C530 1.327 . S
C528 H553 0.950 . S
C529 C528 1.349 . S
C529 C545 1.349 . S
C530 C528 1.327 . S
C530 C549 1.429 . S
C530 H554 0.950 . S
C531 C548 1.574 . S
C531 C550 1.368 . S
C531 H555 0.949 . S
H532 C536 0.949 . S
C533 C534 1.349 . S
C533 C535 1.327 . S
C533 H556 0.950 . S
C534 C533 1.349 . S
C534 C546 1.349 . S
C535 C533 1.327 . S
C535 C551 1.429 . S
C535 H557 0.950 . S
C536 H532 0.949 . S
C536 C544 1.574 . S
C536 C552 1.368 . S
H537 C545 0.950 . S
H538 C543 0.950 . S
H539 C544 0.949 . S
H540 C546 0.950 . S
H541 C547 0.950 . S
H542 C548 0.949 . S
C543 H538 0.950 . S
C543 C545 1.327 . S
C543 C549 1.429 . S
C544 C536 1.574 . S
C544 H539 0.949 . S
C544 C550 1.368 . S
C545 C529 1.349 . S
C545 H537 0.950 . S
C545 C543 1.327 . S
C546 C534 1.349 . S
C546 H540 0.950 . S
C546 C547 1.327 . S
C547 H541 0.950 . S
C547 C546 1.327 . S
C547 C551 1.429 . S
C548 C531 1.574 . S
C548 H542 0.949 . S
C548 C552 1.368 . S
C549 C530 1.429 . S
C549 C543 1.429 . S
C549 C550 1.523 . S
C550 C531 1.368 . S
C550 C544 1.368 . S
C550 C549 1.523 . S
C551 C535 1.429 . S
C551 C547 1.429 . S
C551 C552 1.523 . S
C552 C536 1.368 . S
C552 C548 1.368 . S
C552 C551 1.523 . S
H553 C528 0.950 . S
H554 C530 0.950 . S
H555 C531 0.949 . S
H556 C533 0.950 . S
H557 C535 0.950 . S
C558 C559 1.349 . S
C558 C560 1.327 . S
C558 H583 0.950 . S
C559 C558 1.349 . S
C559 C575 1.349 . S
C560 C558 1.327 . S
C560 C579 1.429 . S
C560 H584 0.950 . S
C561 C578 1.574 . S
C561 C580 1.368 . S
C561 H585 0.949 . S
H562 C566 0.949 . S
C563 C564 1.349 . S
C563 C565 1.327 . S
C563 H586 0.950 . S
C564 C563 1.349 . S
C564 C576 1.349 . S
C565 C563 1.327 . S
C565 C581 1.429 . S
C565 H587 0.950 . S
C566 H562 0.949 . S
C566 C574 1.574 . S
C566 C582 1.368 . S
H567 C575 0.950 . S
H568 C573 0.950 . S
H569 C574 0.949 . S
H570 C576 0.950 . S
H571 C577 0.950 . S
H572 C578 0.949 . S
C573 H568 0.950 . S
C573 C575 1.327 . S
C573 C579 1.429 . S
C574 C566 1.574 . S
C574 H569 0.949 . S
C574 C580 1.368 . S
C575 C559 1.349 . S
C575 H567 0.950 . S
C575 C573 1.327 . S
C576 C564 1.349 . S
C576 H570 0.950 . S
C576 C577 1.327 . S
C577 H571 0.950 . S
C577 C576 1.327 . S
C577 C581 1.429 . S
C578 C561 1.574 . S
C578 H572 0.949 . S
C578 C582 1.368 . S
C579 C560 1.429 . S
C579 C573 1.429 . S
C579 C580 1.523 . S
C580 C561 1.368 . S
C580 C574 1.368 . S
C580 C579 1.523 . S
C581 C565 1.429 . S
C581 C577 1.429 . S
C581 C582 1.523 . S
C582 C566 1.368 . S
C582 C578 1.368 . S
C582 C581 1.523 . S
H583 C558 0.950 . S
H584 C560 0.950 . S
H585 C561 0.949 . S
H586 C563 0.950 . S
H587 C565 0.950 . S
C588 C589 1.349 . S
C588 C590 1.327 . S
C588 H613 0.950 . S
C589 C588 1.349 . S
C589 C605 1.349 . S
C590 C588 1.327 . S
C590 C609 1.429 . S
C590 H614 0.950 . S
C591 C608 1.574 . S
C591 C610 1.368 . S
C591 H615 0.949 . S
H592 C596 0.949 . S
C593 C594 1.349 . S
C593 C595 1.327 . S
C593 H616 0.950 . S
C594 C593 1.349 . S
C594 C606 1.349 . S
C595 C593 1.327 . S
C595 C611 1.429 . S
C595 H617 0.950 . S
C596 H592 0.949 . S
C596 C604 1.574 . S
C596 C612 1.368 . S
H597 C605 0.950 . S
H598 C603 0.950 . S
H599 C604 0.949 . S
H600 C606 0.950 . S
H601 C607 0.950 . S
H602 C608 0.949 . S
C603 H598 0.950 . S
C603 C605 1.327 . S
C603 C609 1.429 . S
C604 C596 1.574 . S
C604 H599 0.949 . S
C604 C610 1.368 . S
C605 C589 1.349 . S
C605 H597 0.950 . S
C605 C603 1.327 . S
C606 C594 1.349 . S
C606 H600 0.950 . S
C606 C607 1.327 . S
C607 H601 0.950 . S
C607 C606 1.327 . S
C607 C611 1.429 . S
C608 C591 1.574 . S
C608 H602 0.949 . S
C608 C612 1.368 . S
C609 C590 1.429 . S
C609 C603 1.429 . S
C609 C610 1.523 . S
C610 C591 1.368 . S
C610 C604 1.368 . S
C610 C609 1.523 . S
C611 C595 1.429 . S
C611 C607 1.429 . S
C611 C612 1.523 . S
C612 C596 1.368 . S
C612 C608 1.368 . S
C612 C611 1.523 . S
H613 C588 0.950 . S
H614 C590 0.950 . S
H615 C591 0.949 . S
H616 C593 0.950 . S
H617 C595 0.950 . S
C618 C619 1.349 . S
C618 C620 1.327 . S
C618 H643 0.950 . S
C619 C618 1.349 . S
C619 C635 1.349 . S
C620 C618 1.327 . S
C620 C639 1.429 . S
C620 H644 0.950 . S
C621 C638 1.574 . S
C621 C640 1.368 . S
C621 H645 0.949 . S
H622 C626 0.949 . S
C623 C624 1.349 . S
C623 C625 1.327 . S
C623 H646 0.950 . S
C624 C623 1.349 . S
C624 C636 1.349 . S
C625 C623 1.327 . S
C625 C641 1.429 . S
C625 H647 0.950 . S
C626 H622 0.949 . S
C626 C634 1.574 . S
C626 C642 1.368 . S
H627 C635 0.950 . S
H628 C633 0.950 . S
H629 C634 0.949 . S
H630 C636 0.950 . S
H631 C637 0.950 . S
H632 C638 0.949 . S
C633 H628 0.950 . S
C633 C635 1.327 . S
C633 C639 1.429 . S
C634 C626 1.574 . S
C634 H629 0.949 . S
C634 C640 1.368 . S
C635 C619 1.349 . S
C635 H627 0.950 . S
C635 C633 1.327 . S
C636 C624 1.349 . S
C636 H630 0.950 . S
C636 C637 1.327 . S
C637 H631 0.950 . S
C637 C636 1.327 . S
C637 C641 1.429 . S
C638 C621 1.574 . S
C638 H632 0.949 . S
C638 C642 1.368 . S
C639 C620 1.429 . S
C639 C633 1.429 . S
C639 C640 1.523 . S
C640 C621 1.368 . S
C640 C634 1.368 . S
C640 C639 1.523 . S
C641 C625 1.429 . S
C641 C637 1.429 . S
C641 C642 1.523 . S
C642 C626 1.368 . S
C642 C638 1.368 . S
C642 C641 1.523 . S
H643 C618 0.950 . S
H644 C620 0.950 . S
H645 C621 0.949 . S
H646 C623 0.950 . S
H647 C625 0.950 . S
C648 C649 1.349 . S
C648 C650 1.327 . S
C648 H673 0.950 . S
C649 C648 1.349 . S
C649 C665 1.349 . S
C650 C648 1.327 . S
C650 C669 1.429 . S
C650 H674 0.950 . S
C651 C668 1.574 . S
C651 C670 1.368 . S
C651 H675 0.949 . S
H652 C656 0.949 . S
C653 C654 1.349 . S
C653 C655 1.327 . S
C653 H676 0.950 . S
C654 C653 1.349 . S
C654 C666 1.349 . S
C655 C653 1.327 . S
C655 C671 1.429 . S
C655 H677 0.950 . S
C656 H652 0.949 . S
C656 C664 1.574 . S
C656 C672 1.368 . S
H657 C665 0.950 . S
H658 C663 0.950 . S
H659 C664 0.949 . S
H660 C666 0.950 . S
H661 C667 0.950 . S
H662 C668 0.949 . S
C663 H658 0.950 . S
C663 C665 1.327 . S
C663 C669 1.429 . S
C664 C656 1.574 . S
C664 H659 0.949 . S
C664 C670 1.368 . S
C665 C649 1.349 . S
C665 H657 0.950 . S
C665 C663 1.327 . S
C666 C654 1.349 . S
C666 H660 0.950 . S
C666 C667 1.327 . S
C667 H661 0.950 . S
C667 C666 1.327 . S
C667 C671 1.429 . S
C668 C651 1.574 . S
C668 H662 0.949 . S
C668 C672 1.368 . S
C669 C650 1.429 . S
C669 C663 1.429 . S
C669 C670 1.523 . S
C670 C651 1.368 . S
C670 C664 1.368 . S
C670 C669 1.523 . S
C671 C655 1.429 . S
C671 C667 1.429 . S
C671 C672 1.523 . S
C672 C656 1.368 . S
C672 C668 1.368 . S
C672 C671 1.523 . S
H673 C648 0.950 . S
H674 C650 0.950 . S
H675 C651 0.949 . S
H676 C653 0.950 . S
H677 C655 0.950 . S
C678 C679 1.349 . S
C678 C680 1.327 . S
C678 H703 0.950 . S
C679 C678 1.349 . S
C679 C695 1.349 . S
C680 C678 1.327 . S
C680 C699 1.429 . S
C680 H704 0.950 . S
C681 C698 1.574 . S
C681 C700 1.368 . S
C681 H705 0.949 . S
H682 C686 0.949 . S
C683 C684 1.349 . S
C683 C685 1.327 . S
C683 H706 0.950 . S
C684 C683 1.349 . S
C684 C696 1.349 . S
C685 C683 1.327 . S
C685 C701 1.429 . S
C685 H707 0.950 . S
C686 H682 0.949 . S
C686 C694 1.574 . S
C686 C702 1.368 . S
H687 C695 0.950 . S
H688 C693 0.950 . S
H689 C694 0.949 . S
H690 C696 0.950 . S
H691 C697 0.950 . S
H692 C698 0.949 . S
C693 H688 0.950 . S
C693 C695 1.327 . S
C693 C699 1.429 . S
C694 C686 1.574 . S
C694 H689 0.949 . S
C694 C700 1.368 . S
C695 C679 1.349 . S
C695 H687 0.950 . S
C695 C693 1.327 . S
C696 C684 1.349 . S
C696 H690 0.950 . S
C696 C697 1.327 . S
C697 H691 0.950 . S
C697 C696 1.327 . S
C697 C701 1.429 . S
C698 C681 1.574 . S
C698 H692 0.949 . S
C698 C702 1.368 . S
C699 C680 1.429 . S
C699 C693 1.429 . S
C699 C700 1.523 . S
C700 C681 1.368 . S
C700 C694 1.368 . S
C700 C699 1.523 . S
C701 C685 1.429 . S
C701 C697 1.429 . S
C701 C702 1.523 . S
C702 C686 1.368 . S
C702 C698 1.368 . S
C702 C701 1.523 . S
H703 C678 0.950 . S
H704 C680 0.950 . S
H705 C681 0.949 . S
H706 C683 0.950 . S
H707 C685 0.950 . S
C708 C709 1.349 . S
C708 C710 1.327 . S
C708 H733 0.950 . S
C709 C708 1.349 . S
C709 C725 1.349 . S
C710 C708 1.327 . S
C710 C729 1.429 . S
C710 H734 0.950 . S
C711 C728 1.574 . S
C711 C730 1.368 . S
C711 H735 0.949 . S
H712 C716 0.949 . S
C713 C714 1.349 . S
C713 C715 1.327 . S
C713 H736 0.950 . S
C714 C713 1.349 . S
C714 C726 1.349 . S
C715 C713 1.327 . S
C715 C731 1.429 . S
C715 H737 0.950 . S
C716 H712 0.949 . S
C716 C724 1.574 . S
C716 C732 1.368 . S
H717 C725 0.950 . S
H718 C723 0.950 . S
H719 C724 0.949 . S
H720 C726 0.950 . S
H721 C727 0.950 . S
H722 C728 0.949 . S
C723 H718 0.950 . S
C723 C725 1.327 . S
C723 C729 1.429 . S
C724 C716 1.574 . S
C724 H719 0.949 . S
C724 C730 1.368 . S
C725 C709 1.349 . S
C725 H717 0.950 . S
C725 C723 1.327 . S
C726 C714 1.349 . S
C726 H720 0.950 . S
C726 C727 1.327 . S
C727 H721 0.950 . S
C727 C726 1.327 . S
C727 C731 1.429 . S
C728 C711 1.574 . S
C728 H722 0.949 . S
C728 C732 1.368 . S
C729 C710 1.429 . S
C729 C723 1.429 . S
C729 C730 1.523 . S
C730 C711 1.368 . S
C730 C724 1.368 . S
C730 C729 1.523 . S
C731 C715 1.429 . S
C731 C727 1.429 . S
C731 C732 1.523 . S
C732 C716 1.368 . S
C732 C728 1.368 . S
C732 C731 1.523 . S
H733 C708 0.950 . S
H734 C710 0.950 . S
H735 C711 0.949 . S
H736 C713 0.950 . S
H737 C715 0.950 . S
C738 C739 1.349 . S
C738 C740 1.327 . S
C738 H763 0.950 . S
C739 C738 1.349 . S
C739 C755 1.349 . S
C740 C738 1.327 . S
C740 C759 1.429 . S
C740 H764 0.950 . S
C741 C758 1.574 . S
C741 C760 1.368 . S
C741 H765 0.949 . S
H742 C746 0.949 . S
C743 C744 1.349 . S
C743 C745 1.327 . S
C743 H766 0.950 . S
C744 C743 1.349 . S
C744 C756 1.349 . S
C745 C743 1.327 . S
C745 C761 1.429 . S
C745 H767 0.950 . S
C746 H742 0.949 . S
C746 C754 1.574 . S
C746 C762 1.368 . S
H747 C755 0.950 . S
H748 C753 0.950 . S
H749 C754 0.949 . S
H750 C756 0.950 . S
H751 C757 0.950 . S
H752 C758 0.949 . S
C753 H748 0.950 . S
C753 C755 1.327 . S
C753 C759 1.429 . S
C754 C746 1.574 . S
C754 H749 0.949 . S
C754 C760 1.368 1_455 S
C755 C739 1.349 . S
C755 H747 0.950 . S
C755 C753 1.327 . S
C756 C744 1.349 . S
C756 H750 0.950 . S
C756 C757 1.327 . S
C757 H751 0.950 . S
C757 C756 1.327 . S
C757 C761 1.429 . S
C758 C741 1.574 . S
C758 H752 0.949 . S
C758 C762 1.368 1_655 S
C759 C740 1.429 . S
C759 C753 1.429 . S
C759 C760 1.523 . S
C760 C741 1.368 . S
C760 C754 1.368 1_655 S
C760 C759 1.523 . S
C761 C745 1.429 . S
C761 C757 1.429 . S
C761 C762 1.523 . S
C762 C746 1.368 . S
C762 C758 1.368 1_455 S
C762 C761 1.523 . S
H763 C738 0.950 . S
H764 C740 0.950 . S
H765 C741 0.949 . S
H766 C743 0.950 . S
H767 C745 0.950 . S
C768 C769 1.349 . S
C768 C770 1.327 . S
C768 H793 0.950 . S
C769 C768 1.349 . S
C769 C785 1.349 . S
C770 C768 1.327 . S
C770 C789 1.429 . S
C770 H794 0.950 . S
C771 C788 1.574 . S
C771 C790 1.368 1_565 S
C771 H795 0.949 . S
H772 C776 0.949 . S
C773 C774 1.349 . S
C773 C775 1.327 . S
C773 H796 0.950 . S
C774 C773 1.349 . S
C774 C786 1.349 . S
C775 C773 1.327 . S
C775 C791 1.429 . S
C775 H797 0.950 . S
C776 H772 0.949 . S
C776 C784 1.574 . S
C776 C792 1.368 1_545 S
H777 C785 0.950 . S
H778 C783 0.950 . S
H779 C784 0.949 . S
H780 C786 0.950 . S
H781 C787 0.950 . S
H782 C788 0.949 . S
C783 H778 0.950 . S
C783 C785 1.327 . S
C783 C789 1.429 . S
C784 C776 1.574 . S
C784 H779 0.949 . S
C784 C790 1.368 . S
C785 C769 1.349 . S
C785 H777 0.950 . S
C785 C783 1.327 . S
C786 C774 1.349 . S
C786 H780 0.950 . S
C786 C787 1.327 . S
C787 H781 0.950 . S
C787 C786 1.327 . S
C787 C791 1.429 . S
C788 C771 1.574 . S
C788 H782 0.949 . S
C788 C792 1.368 . S
C789 C770 1.429 . S
C789 C783 1.429 . S
C789 C790 1.523 . S
C790 C771 1.368 1_545 S
C790 C784 1.368 . S
C790 C789 1.523 . S
C791 C775 1.429 . S
C791 C787 1.429 . S
C791 C792 1.523 . S
C792 C776 1.368 1_565 S
C792 C788 1.368 . S
C792 C791 1.523 . S
H793 C768 0.950 . S
H794 C770 0.950 . S
H795 C771 0.949 . S
H796 C773 0.950 . S
H797 C775 0.950 . S
C798 C799 1.349 . S
C798 C800 1.327 . S
C798 H823 0.950 . S
C799 C798 1.349 . S
C799 C815 1.349 . S
C800 C798 1.327 . S
C800 C819 1.429 . S
C800 H824 0.950 . S
C801 C818 1.574 . S
C801 C820 1.368 . S
C801 H825 0.949 . S
H802 C806 0.949 . S
C803 C804 1.349 . S
C803 C805 1.327 . S
C803 H826 0.950 . S
C804 C803 1.349 . S
C804 C816 1.349 . S
C805 C803 1.327 . S
C805 C821 1.429 . S
C805 H827 0.950 . S
C806 H802 0.949 . S
C806 C814 1.574 . S
C806 C822 1.368 . S
H807 C815 0.950 . S
H808 C813 0.950 . S
H809 C814 0.949 . S
H810 C816 0.950 . S
H811 C817 0.950 . S
H812 C818 0.949 . S
C813 H808 0.950 . S
C813 C815 1.327 . S
C813 C819 1.429 . S
C814 C806 1.574 . S
C814 H809 0.949 . S
C814 C820 1.368 . S
C815 C799 1.349 . S
C815 H807 0.950 . S
C815 C813 1.327 . S
C816 C804 1.349 . S
C816 H810 0.950 . S
C816 C817 1.327 . S
C817 H811 0.950 . S
C817 C816 1.327 . S
C817 C821 1.429 . S
C818 C801 1.574 . S
C818 H812 0.949 . S
C818 C822 1.368 . S
C819 C800 1.429 . S
C819 C813 1.429 . S
C819 C820 1.523 . S
C820 C801 1.368 . S
C820 C814 1.368 . S
C820 C819 1.523 . S
C821 C805 1.429 . S
C821 C817 1.429 . S
C821 C822 1.523 . S
C822 C806 1.368 . S
C822 C818 1.368 . S
C822 C821 1.523 . S
H823 C798 0.950 . S
H824 C800 0.950 . S
H825 C801 0.949 . S
H826 C803 0.950 . S
H827 C805 0.950 . S
C828 C829 1.349 . S
C828 C830 1.327 . S
C828 H853 0.950 . S
C829 C828 1.349 . S
C829 C845 1.349 . S
C830 C828 1.327 . S
C830 C849 1.429 . S
C830 H854 0.950 . S
C831 C848 1.574 . S
C831 C850 1.368 . S
C831 H855 0.949 . S
H832 C836 0.949 . S
C833 C834 1.349 . S
C833 C835 1.327 . S
C833 H856 0.950 . S
C834 C833 1.349 . S
C834 C846 1.349 . S
C835 C833 1.327 . S
C835 C851 1.429 . S
C835 H857 0.950 . S
C836 H832 0.949 . S
C836 C844 1.574 . S
C836 C852 1.368 . S
H837 C845 0.950 . S
H838 C843 0.950 . S
H839 C844 0.949 . S
H840 C846 0.950 . S
H841 C847 0.950 . S
H842 C848 0.949 . S
C843 H838 0.950 . S
C843 C845 1.327 . S
C843 C849 1.429 . S
C844 C836 1.574 . S
C844 H839 0.949 . S
C844 C850 1.368 1_655 S
C845 C829 1.349 . S
C845 H837 0.950 . S
C845 C843 1.327 . S
C846 C834 1.349 . S
C846 H840 0.950 . S
C846 C847 1.327 . S
C847 H841 0.950 . S
C847 C846 1.327 . S
C847 C851 1.429 . S
C848 C831 1.574 . S
C848 H842 0.949 . S
C848 C852 1.368 1_455 S
C849 C830 1.429 . S
C849 C843 1.429 . S
C849 C850 1.523 . S
C850 C831 1.368 . S
C850 C844 1.368 1_455 S
C850 C849 1.523 . S
C851 C835 1.429 . S
C851 C847 1.429 . S
C851 C852 1.523 . S
C852 C836 1.368 . S
C852 C848 1.368 1_655 S
C852 C851 1.523 . S
H853 C828 0.950 . S
H854 C830 0.950 . S
H855 C831 0.949 . S
H856 C833 0.950 . S
H857 C835 0.950 . S
C858 C859 1.349 . S
C858 C860 1.327 . S
C858 H883 0.950 . S
C859 C858 1.349 . S
C859 C875 1.349 . S
C860 C858 1.327 . S
C860 C879 1.429 . S
C860 H884 0.950 . S
C861 C878 1.574 . S
C861 C880 1.368 1_545 S
C861 H885 0.949 . S
H862 C866 0.949 . S
C863 C864 1.349 . S
C863 C865 1.327 . S
C863 H886 0.950 . S
C864 C863 1.349 . S
C864 C876 1.349 . S
C865 C863 1.327 . S
C865 C881 1.429 . S
C865 H887 0.950 . S
C866 H862 0.949 . S
C866 C874 1.574 . S
C866 C882 1.368 1_565 S
H867 C875 0.950 . S
H868 C873 0.950 . S
H869 C874 0.949 . S
H870 C876 0.950 . S
H871 C877 0.950 . S
H872 C878 0.949 . S
C873 H868 0.950 . S
C873 C875 1.327 . S
C873 C879 1.429 . S
C874 C866 1.574 . S
C874 H869 0.949 . S
C874 C880 1.368 . S
C875 C859 1.349 . S
C875 H867 0.950 . S
C875 C873 1.327 . S
C876 C864 1.349 . S
C876 H870 0.950 . S
C876 C877 1.327 . S
C877 H871 0.950 . S
C877 C876 1.327 . S
C877 C881 1.429 . S
C878 C861 1.574 . S
C878 H872 0.949 . S
C878 C882 1.368 . S
C879 C860 1.429 . S
C879 C873 1.429 . S
C879 C880 1.523 . S
C880 C861 1.368 1_565 S
C880 C874 1.368 . S
C880 C879 1.523 . S
C881 C865 1.429 . S
C881 C877 1.429 . S
C881 C882 1.523 . S
C882 C866 1.368 1_545 S
C882 C878 1.368 . S
C882 C881 1.523 . S
H883 C858 0.950 . S
H884 C860 0.950 . S
H885 C861 0.949 . S
H886 C863 0.950 . S
H887 C865 0.950 . S
C169 C105 1.068 . S
C174 C7 1.068 . S
C199 C21 1.068 . S
C204 C119 1.068 . S
C229 C35 1.068 . S
C234 C133 1.068 . S
C259 C49 1.068 . S
C264 C147 1.068 . S
C289 C161 1.068 . S
C294 C63 1.068 . S
C319 C91 1.068 . S
C324 C77 1.068 . S
C349 C149 1.728 . S
C354 C9 1.728 . S
C379 C23 1.728 . S
C384 C163 1.728 . S
C409 C37 1.728 . S
C414 C93 1.728 . S
C439 C107 1.728 . S
C444 C51 1.728 . S
C469 C121 1.728 . S
C474 C65 1.728 . S
C499 C135 1.728 . S
C504 C79 1.728 . S
C529 C6 1.806 . S
C534 C118 1.806 . S
C559 C20 1.806 . S
C564 C132 1.806 . S
C589 C146 1.805 . S
C594 C34 1.805 . S
C619 C48 1.806 . S
C624 C160 1.806 . S
C649 C90 1.806 . S
C654 C62 1.806 . S
C679 C104 1.806 . S
C684 C76 1.806 . S
C709 C50 1.281 . S
C714 C8 1.281 . S
C739 C64 1.282 . S
C744 C22 1.282 . S
C769 C36 1.282 . S
C774 C78 1.282 . S
C799 C92 1.281 . S
C804 C134 1.281 . S
C829 C106 1.282 . S
C834 C148 1.282 . S
C859 C162 1.282 . S
C864 C120 1.282 . S
