# Generated by pormake.
# Topology wln, (5)-cn, num edge types: 1
# Building blocks:
#     Node 0, Type 0, BuildingBlock: BEQFEK_clean_sbu_0, # of connection points: 5
#     Node 1, Type 0, BuildingBlock: BEQFEK_clean_sbu_0, # of connection points: 5
#     Node 2, Type 0, BuildingBlock: BEQFEK_clean_sbu_0, # of connection points: 5
#     Node 3, Type 0, BuildingBlock: BEQFEK_clean_sbu_0, # of connection points: 5
#     Node 4, Type 0, BuildingBlock: BEQFEK_clean_sbu_0, # of connection points: 5
#     Node 5, Type 0, BuildingBlock: BEQFEK_clean_sbu_0, # of connection points: 5
#     Node 6, Type 0, BuildingBlock: BEQFEK_clean_sbu_0, # of connection points: 5
#     Node 7, Type 0, BuildingBlock: BEQFEK_clean_sbu_0, # of connection points: 5
#     Node 8, Type 0, BuildingBlock: BEQFEK_clean_sbu_0, # of connection points: 5
#     Node 9, Type 0, BuildingBlock: BEQFEK_clean_sbu_0, # of connection points: 5
#     Node 10, Type 0, BuildingBlock: BEQFEK_clean_sbu_0, # of connection points: 5
#     Node 11, Type 0, BuildingBlock: BEQFEK_clean_sbu_0, # of connection points: 5
#     Node 12, Type 0, BuildingBlock: BEQFEK_clean_sbu_0, # of connection points: 5
#     Node 13, Type 0, BuildingBlock: BEQFEK_clean_sbu_0, # of connection points: 5
#     Node 14, Type 0, BuildingBlock: BEQFEK_clean_sbu_0, # of connection points: 5
#     Node 15, Type 0, BuildingBlock: BEQFEK_clean_sbu_0, # of connection points: 5
#     Node 16, Type 0, BuildingBlock: BEQFEK_clean_sbu_0, # of connection points: 5
#     Node 17, Type 0, BuildingBlock: BEQFEK_clean_sbu_0, # of connection points: 5
#     Node 18, Type 0, BuildingBlock: BEQFEK_clean_sbu_0, # of connection points: 5
#     Node 19, Type 0, BuildingBlock: BEQFEK_clean_sbu_0, # of connection points: 5
#     Node 20, Type 0, BuildingBlock: BEQFEK_clean_sbu_0, # of connection points: 5
#     Node 21, Type 0, BuildingBlock: BEQFEK_clean_sbu_0, # of connection points: 5
#     Node 22, Type 0, BuildingBlock: BEQFEK_clean_sbu_0, # of connection points: 5
#     Node 23, Type 0, BuildingBlock: BEQFEK_clean_sbu_0, # of connection points: 5
#     Node 24, Type 0, BuildingBlock: BEQFEK_clean_sbu_0, # of connection points: 5
#     Node 25, Type 0, BuildingBlock: BEQFEK_clean_sbu_0, # of connection points: 5
#     Node 26, Type 0, BuildingBlock: BEQFEK_clean_sbu_0, # of connection points: 5
#     Node 27, Type 0, BuildingBlock: BEQFEK_clean_sbu_0, # of connection points: 5
#     Node 28, Type 0, BuildingBlock: BEQFEK_clean_sbu_0, # of connection points: 5
#     Node 29, Type 0, BuildingBlock: BEQFEK_clean_sbu_0, # of connection points: 5
#     Node 30, Type 0, BuildingBlock: BEQFEK_clean_sbu_0, # of connection points: 5
#     Node 31, Type 0, BuildingBlock: BEQFEK_clean_sbu_0, # of connection points: 5
#     Node 32, Type 0, BuildingBlock: BEQFEK_clean_sbu_0, # of connection points: 5
#     Node 33, Type 0, BuildingBlock: BEQFEK_clean_sbu_0, # of connection points: 5
#     Node 34, Type 0, BuildingBlock: BEQFEK_clean_sbu_0, # of connection points: 5
#     Node 35, Type 0, BuildingBlock: BEQFEK_clean_sbu_0, # of connection points: 5
#     Edge 36, Type (0, 0), None
#     Edge 37, Type (0, 0), None
#     Edge 38, Type (0, 0), None
#     Edge 39, Type (0, 0), None
#     Edge 40, Type (0, 0), None
#     Edge 41, Type (0, 0), None
#     Edge 42, Type (0, 0), None
#     Edge 43, Type (0, 0), None
#     Edge 44, Type (0, 0), None
#     Edge 45, Type (0, 0), None
#     Edge 46, Type (0, 0), None
#     Edge 47, Type (0, 0), None
#     Edge 48, Type (0, 0), None
#     Edge 49, Type (0, 0), None
#     Edge 50, Type (0, 0), None
#     Edge 51, Type (0, 0), None
#     Edge 52, Type (0, 0), None
#     Edge 53, Type (0, 0), None
#     Edge 54, Type (0, 0), None
#     Edge 55, Type (0, 0), None
#     Edge 56, Type (0, 0), None
#     Edge 57, Type (0, 0), None
#     Edge 58, Type (0, 0), None
#     Edge 59, Type (0, 0), None
#     Edge 60, Type (0, 0), None
#     Edge 61, Type (0, 0), None
#     Edge 62, Type (0, 0), None
#     Edge 63, Type (0, 0), None
#     Edge 64, Type (0, 0), None
#     Edge 65, Type (0, 0), None
#     Edge 66, Type (0, 0), None
#     Edge 67, Type (0, 0), None
#     Edge 68, Type (0, 0), None
#     Edge 69, Type (0, 0), None
#     Edge 70, Type (0, 0), None
#     Edge 71, Type (0, 0), None
#     Edge 72, Type (0, 0), None
#     Edge 73, Type (0, 0), None
#     Edge 74, Type (0, 0), None
#     Edge 75, Type (0, 0), None
#     Edge 76, Type (0, 0), None
#     Edge 77, Type (0, 0), None
#     Edge 78, Type (0, 0), None
#     Edge 79, Type (0, 0), None
#     Edge 80, Type (0, 0), None
#     Edge 81, Type (0, 0), None
#     Edge 82, Type (0, 0), None
#     Edge 83, Type (0, 0), None
#     Edge 84, Type (0, 0), None
#     Edge 85, Type (0, 0), None
#     Edge 86, Type (0, 0), None
#     Edge 87, Type (0, 0), None
#     Edge 88, Type (0, 0), None
#     Edge 89, Type (0, 0), None
#     Edge 90, Type (0, 0), None
#     Edge 91, Type (0, 0), None
#     Edge 92, Type (0, 0), None
#     Edge 93, Type (0, 0), None
#     Edge 94, Type (0, 0), None
#     Edge 95, Type (0, 0), None
#     Edge 96, Type (0, 0), None
#     Edge 97, Type (0, 0), None
#     Edge 98, Type (0, 0), None
#     Edge 99, Type (0, 0), None
#     Edge 100, Type (0, 0), None
#     Edge 101, Type (0, 0), None
#     Edge 102, Type (0, 0), None
#     Edge 103, Type (0, 0), None
#     Edge 104, Type (0, 0), None
#     Edge 105, Type (0, 0), None
#     Edge 106, Type (0, 0), None
#     Edge 107, Type (0, 0), None
#     Edge 108, Type (0, 0), None
#     Edge 109, Type (0, 0), None
#     Edge 110, Type (0, 0), None
#     Edge 111, Type (0, 0), None
#     Edge 112, Type (0, 0), None
#     Edge 113, Type (0, 0), None
#     Edge 114, Type (0, 0), None
#     Edge 115, Type (0, 0), None
#     Edge 116, Type (0, 0), None
#     Edge 117, Type (0, 0), None
#     Edge 118, Type (0, 0), None
#     Edge 119, Type (0, 0), None
#     Edge 120, Type (0, 0), None
#     Edge 121, Type (0, 0), None
#     Edge 122, Type (0, 0), None
#     Edge 123, Type (0, 0), None
#     Edge 124, Type (0, 0), None
#     Edge 125, Type (0, 0), None
# Relax obj value: 0.302
# Max RMSD: 0.224
# Mean RMSD: 0.224
data_MOF--net-wln--node1-BEQFEK_clean_sbu_0--edge1-none
_symmetry_space_group_name_H-M    P1
_symmetry_Int_Tables_number       1
_symmetry_cell_setting            triclinic
loop_
_symmetry_equiv_pos_as_xyz
'x, y, z'
_cell_length_a     57.607567
_cell_length_b     57.742324
_cell_length_c     10.456814
_cell_angle_alpha  90.045768
_cell_angle_beta   89.920033
_cell_angle_gamma 120.06822
loop_
_atom_site_label
_atom_site_type_symbol
_atom_site_fract_x
_atom_site_fract_y
_atom_site_fract_z
_atom_type_partial_charge
Co0 Co 0.14831 0.40574 0.86039 0.0
Co1 Co 0.14333 0.38178 0.1226 0.0
C2 C 0.19502 0.40433 0.99048 0.0
O3 O 0.18613 0.413 0.90187 0.0
O4 O 0.18009 0.39066 0.08294 0.0
C5 C 0.15584 0.40205 0.61738 0.0
O6 O 0.17084 0.39395 0.67363 0.0
C7 C 0.15394 0.38377 0.39297 0.0
C8 C 0.11633 0.38033 0.46668 0.0
C9 C 0.14252 0.38849 0.49904 0.0
N10 N 0.13567 0.37468 0.29869 0.0
N11 N 0.11311 0.37218 0.34426 0.0
C12 C 0.18294 0.39275 0.37338 0.0
H13 H 0.18492 0.37779 0.31485 0.0
H14 H 0.19248 0.41202 0.32117 0.0
H15 H 0.19363 0.39564 0.46511 0.0
C16 C 0.12136 0.43244 0.01256 0.0
N17 N 0.13417 0.41849 0.99346 0.0
N18 N 0.14094 0.41374 0.10502 0.0
C19 C 0.13704 0.42808 0.19633 0.0
C20 C 0.12237 0.43899 0.14466 0.0
C21 C 0.10666 0.43674 0.90682 0.0
H22 H 0.10233 0.42203 0.82896 0.0
H23 H 0.11935 0.45698 0.86573 0.0
H24 H 0.08759 0.43429 0.94347 0.0
O25 O 0.12468 0.36808 0.82782 0.0
O26 O 0.11744 0.34795 0.01314 0.0
H27 H 0.15015 0.43197 0.39209 0.0
H28 H 0.16246 0.46301 0.31039 0.0
C29 C 0.15751 0.44188 0.2996 0.0
H30 H 0.17618 0.44161 0.27658 0.0
H31 H 0.09642 0.3677 0.288 0.0
O32 O 0.14723 0.41505 0.68199 0.0
C33 C 0.11364 0.34689 0.89188 0.0
Co34 Co 0.5918 0.73757 0.8377 0.0
Co35 Co 0.62226 0.75162 0.09065 0.0
C36 C 0.59689 0.78309 0.96906 0.0
O37 O 0.58486 0.76731 0.87664 0.0
O38 O 0.61103 0.77835 0.04651 0.0
C39 C 0.59193 0.745 0.5836 0.0
O40 O 0.59762 0.76846 0.62879 0.0
C41 C 0.60319 0.75051 0.34549 0.0
C42 C 0.63118 0.74555 0.47005 0.0
C43 C 0.60695 0.74519 0.46985 0.0
N44 N 0.62381 0.75312 0.27345 0.0
N45 N 0.64045 0.75003 0.34868 0.0
C46 C 0.57856 0.74963 0.29343 0.0
H47 H 0.58387 0.76936 0.25332 0.0
H48 H 0.57019 0.73497 0.21418 0.0
H49 H 0.56301 0.74419 0.36842 0.0
C50 C 0.55529 0.68812 0.01291 0.0
N51 N 0.57812 0.71041 0.97404 0.0
N52 N 0.59633 0.71574 0.06156 0.0
C53 C 0.58693 0.69641 0.15117 0.0
C54 C 0.56003 0.67875 0.12991 0.0
C55 C 0.52907 0.67793 0.94591 0.0
H56 H 0.52805 0.6949 0.90192 0.0
H57 H 0.51208 0.66715 0.01328 0.0
H58 H 0.52755 0.66434 0.86734 0.0
O59 O 0.63213 0.75435 0.8059 0.0
O60 O 0.65507 0.76173 0.98572 0.0
H61 H 0.59958 0.67086 0.23816 0.0
H62 H 0.60158 0.69664 0.33987 0.0
C63 C 0.6047 0.69213 0.24073 0.0
H64 H 0.62607 0.70493 0.21351 0.0
H65 H 0.65679 0.74881 0.31539 0.0
O66 O 0.58224 0.72499 0.65939 0.0
C67 C 0.65436 0.76231 0.8632 0.0
Co68 Co 0.26642 0.85745 0.84676 0.0
Co69 Co 0.24837 0.86525 0.11091 0.0
C70 C 0.21707 0.81329 0.98199 0.0
O71 O 0.23403 0.82082 0.8902 0.0
O72 O 0.21999 0.82881 0.07468 0.0
C73 C 0.25565 0.85205 0.60274 0.0
O74 O 0.23217 0.83697 0.65632 0.0
C75 C 0.23876 0.8574 0.38501 0.0
C76 C 0.27749 0.89137 0.44991 0.0
C77 C 0.25657 0.86673 0.48675 0.0
N78 N 0.25 0.8746 0.28713 0.0
N79 N 0.27251 0.89541 0.32877 0.0
C80 C 0.21424 0.83037 0.37389 0.0
H81 H 0.20207 0.82943 0.28999 0.0
H82 H 0.22038 0.81506 0.36571 0.0
H83 H 0.20166 0.82582 0.46094 0.0
C84 C 0.31985 0.87813 1.0023 0.0
N85 N 0.29361 0.87001 0.98026 0.0
N86 N 0.2819 0.86598 0.09175 0.0
C87 C 0.29879 0.8674 0.18493 0.0
C88 C 0.32418 0.87719 0.13507 0.0
C89 C 0.33997 0.8846 0.89807 0.0
H90 H 0.33297 0.86699 0.83421 0.0
H91 H 0.35996 0.89007 0.93749 0.0
H92 H 0.34139 0.90124 0.83915 0.0
O93 O 0.253 0.88191 0.8141 0.0
O94 O 0.24037 0.89019 0.99787 0.0
H95 H 0.29767 0.8605 0.38709 0.0
H96 H 0.29648 0.83455 0.28983 0.0
C97 C 0.28929 0.84907 0.29783 0.0
H98 H 0.26719 0.83706 0.30034 0.0
H99 H 0.2861 0.91091 0.26995 0.0
O100 O 0.27693 0.85885 0.66763 0.0
C101 C 0.24275 0.89313 0.87627 0.0
Co102 Co 0.41221 0.14943 0.16443 0.0
Co103 Co 0.38831 0.14388 0.90209 0.0
C104 C 0.4106 0.19566 0.03154 0.0
O105 O 0.41965 0.18724 0.12075 0.0
O106 O 0.397 0.18043 0.94009 0.0
C107 C 0.4094 0.15735 0.40761 0.0
O108 O 0.40174 0.17282 0.35265 0.0
C109 C 0.39103 0.15504 0.63223 0.0
C110 C 0.38692 0.11747 0.55549 0.0
C111 C 0.39556 0.1438 0.52509 0.0
N112 N 0.38161 0.13652 0.72538 0.0
N113 N 0.37882 0.114 0.67811 0.0
C114 C 0.40042 0.184 0.65357 0.0
H115 H 0.3851 0.18605 0.70885 0.0
H116 H 0.41924 0.19296 0.70979 0.0
H117 H 0.40438 0.19518 0.56263 0.0
C118 C 0.43749 0.12051 0.01454 0.0
N119 N 0.42445 0.1343 0.03287 0.0
N120 N 0.42017 0.14129 0.92091 0.0
C121 C 0.43398 0.13648 0.83005 0.0
C122 C 0.44396 0.12105 0.88249 0.0
C123 C 0.44105 0.10543 0.12086 0.0
H124 H 0.42644 0.10174 0.19862 0.0
H125 H 0.46143 0.11753 0.16178 0.0
H126 H 0.43788 0.08606 0.08502 0.0
O127 O 0.37436 0.12692 0.19965 0.0
O128 O 0.35432 0.11874 0.01348 0.0
H129 H 0.43835 0.14941 0.6338 0.0
H130 H 0.46931 0.16064 0.71533 0.0
C131 C 0.44841 0.15659 0.72608 0.0
H132 H 0.44898 0.17566 0.74816 0.0
H133 H 0.37377 0.09701 0.73283 0.0
O134 O 0.42198 0.14845 0.34182 0.0
C135 C 0.35313 0.11591 0.13561 0.0
Co136 Co 0.85984 0.26295 0.16406 0.0
Co137 Co 0.87278 0.24585 0.90581 0.0
C138 C 0.81737 0.2169 0.03622 0.0
O139 O 0.82254 0.23342 0.12691 0.0
O140 O 0.83536 0.2203 0.95594 0.0
C141 C 0.8487 0.25633 0.42049 0.0
O142 O 0.8264 0.23562 0.38033 0.0
C143 C 0.85322 0.24611 0.65427 0.0
C144 C 0.8853 0.25029 0.52475 0.0
C145 C 0.86202 0.25173 0.52932 0.0
N146 N 0.871 0.24247 0.72278 0.0
N147 N 0.88994 0.24466 0.64412 0.0
C148 C 0.83042 0.24823 0.7108 0.0
H149 H 0.81583 0.22893 0.75495 0.0
H150 H 0.83785 0.26348 0.78758 0.0
H151 H 0.81999 0.25359 0.63757 0.0
C152 C 0.87784 0.31433 0.99649 0.0
N153 N 0.87401 0.28968 0.02578 0.0
N154 N 0.88265 0.2819 0.9277 0.0
C155 C 0.89315 0.30125 0.83796 0.0
C156 C 0.88891 0.32175 0.8727 0.0
C157 C 0.87225 0.33103 0.08659 0.0
H158 H 0.8554 0.31802 0.15125 0.0
H159 H 0.86769 0.34487 0.03306 0.0
H160 H 0.89032 0.34318 0.14607 0.0
O161 O 0.8828 0.2461 0.19529 0.0
O162 O 0.89616 0.23648 0.01399 0.0
H163 H 0.91971 0.28918 0.75543 0.0
H164 H 0.92999 0.32372 0.73237 0.0
C165 C 0.91233 0.30321 0.73598 0.0
H166 H 0.90251 0.29947 0.6414 0.0
H167 H 0.90738 0.24526 0.67438 0.0
O168 O 0.86261 0.27534 0.34251 0.0
C169 C 0.89617 0.23727 0.13693 0.0
Co170 Co 0.74147 0.59246 0.16685 0.0
Co171 Co 0.75482 0.62321 0.91402 0.0
C172 C 0.78716 0.59852 0.03276 0.0
O173 O 0.77157 0.58614 0.12564 0.0
O174 O 0.78189 0.61242 0.95647 0.0
C175 C 0.74861 0.59256 0.42165 0.0
O176 O 0.77223 0.59831 0.37752 0.0
C177 C 0.75413 0.60427 0.65939 0.0
C178 C 0.74779 0.6312 0.53394 0.0
C179 C 0.74846 0.60754 0.53487 0.0
N180 N 0.75609 0.62466 0.73076 0.0
N181 N 0.75213 0.64063 0.65497 0.0
C182 C 0.7539 0.58008 0.71248 0.0
H183 H 0.77405 0.58575 0.74874 0.0
H184 H 0.73988 0.57206 0.79457 0.0
H185 H 0.74797 0.56421 0.63905 0.0
C186 C 0.69186 0.55597 0.99272 0.0
N187 N 0.71409 0.57889 0.03129 0.0
N188 N 0.71903 0.5971 0.9445 0.0
C189 C 0.69953 0.58755 0.85554 0.0
C190 C 0.68215 0.56063 0.87657 0.0
C191 C 0.68199 0.5298 0.05926 0.0
H192 H 0.69915 0.529 0.10274 0.0
H193 H 0.6713 0.51288 0.99169 0.0
H194 H 0.6683 0.52803 0.1381 0.0
O195 O 0.75859 0.63259 0.19977 0.0
O196 O 0.76527 0.65577 0.02127 0.0
H197 H 0.67336 0.59971 0.77086 0.0
H198 H 0.69915 0.60211 0.66744 0.0
C199 C 0.69476 0.60512 0.76702 0.0
H200 H 0.7074 0.62645 0.79428 0.0
H201 H 0.75006 0.65648 0.68769 0.0
O202 O 0.72871 0.58278 0.34506 0.0
C203 C 0.76647 0.65486 0.14364 0.0
Co204 Co 0.86028 0.59903 0.15051 0.0
Co205 Co 0.86527 0.62299 0.8883 0.0
C206 C 0.81358 0.60044 0.02038 0.0
O207 O 0.82247 0.59177 0.109 0.0
O208 O 0.82852 0.61412 0.92795 0.0
C209 C 0.85275 0.60272 0.39352 0.0
O210 O 0.83775 0.61082 0.33727 0.0
C211 C 0.85466 0.621 0.61793 0.0
C212 C 0.89227 0.62445 0.54419 0.0
C213 C 0.86608 0.61628 0.51184 0.0
N214 N 0.87293 0.63009 0.7122 0.0
N215 N 0.8955 0.63259 0.66661 0.0
C216 C 0.82567 0.61203 0.63753 0.0
H217 H 0.82368 0.62698 0.69605 0.0
H218 H 0.81612 0.59275 0.68977 0.0
H219 H 0.81497 0.60913 0.54581 0.0
C220 C 0.88724 0.57233 0.99834 0.0
N221 N 0.87443 0.58628 0.01744 0.0
N222 N 0.86766 0.59103 0.90588 0.0
C223 C 0.87156 0.5767 0.81456 0.0
C224 C 0.88623 0.56579 0.86624 0.0
C225 C 0.90194 0.56803 0.10408 0.0
H226 H 0.90626 0.58274 0.18197 0.0
H227 H 0.88926 0.54779 0.14514 0.0
H228 H 0.92102 0.5705 0.06745 0.0
O229 O 0.88392 0.63668 0.18309 0.0
O230 O 0.89117 0.65683 0.99778 0.0
H231 H 0.85845 0.57281 0.61881 0.0
H232 H 0.84615 0.54177 0.7005 0.0
C233 C 0.85109 0.56289 0.7113 0.0
H234 H 0.83242 0.56315 0.73435 0.0
H235 H 0.91219 0.63707 0.72286 0.0
O236 O 0.86136 0.58972 0.32891 0.0
C237 C 0.89498 0.65787 0.11904 0.0
Co238 Co 0.41692 0.26727 0.17328 0.0
Co239 Co 0.38646 0.25321 0.92033 0.0
C240 C 0.41186 0.22177 0.04194 0.0
O241 O 0.42388 0.23755 0.13437 0.0
O242 O 0.3977 0.2265 0.9645 0.0
C243 C 0.4168 0.25985 0.42739 0.0
O244 O 0.41113 0.2364 0.3822 0.0
C245 C 0.40553 0.25433 0.66549 0.0
C246 C 0.37753 0.25927 0.54093 0.0
C247 C 0.40178 0.25965 0.54113 0.0
N248 N 0.38491 0.25171 0.73753 0.0
N249 N 0.36827 0.25478 0.6623 0.0
C250 C 0.43018 0.25523 0.71756 0.0
H251 H 0.42487 0.2355 0.75772 0.0
H252 H 0.43855 0.26989 0.79677 0.0
H253 H 0.44572 0.26066 0.64256 0.0
C254 C 0.45342 0.31671 0.99794 0.0
N255 N 0.43059 0.29443 0.0369 0.0
N256 N 0.41237 0.28909 0.94942 0.0
C257 C 0.42176 0.30841 0.85976 0.0
C258 C 0.44867 0.32607 0.88093 0.0
C259 C 0.47965 0.32691 0.06489 0.0
H260 H 0.48068 0.30995 0.10883 0.0
H261 H 0.49663 0.33771 0.9975 0.0
H262 H 0.48116 0.3405 0.14349 0.0
O263 O 0.37659 0.25048 0.20508 0.0
O264 O 0.35364 0.24309 0.02526 0.0
H265 H 0.4091 0.33396 0.77285 0.0
H266 H 0.4071 0.30819 0.6711 0.0
C267 C 0.40398 0.31269 0.77025 0.0
H268 H 0.38261 0.29988 0.7975 0.0
H269 H 0.35192 0.25599 0.69559 0.0
O270 O 0.42648 0.27986 0.35159 0.0
C271 C 0.35436 0.24252 0.14778 0.0
Co272 Co 0.7423 0.14738 0.16423 0.0
Co273 Co 0.76035 0.13957 0.90007 0.0
C274 C 0.79165 0.19154 0.02898 0.0
O275 O 0.77469 0.18401 0.12078 0.0
O276 O 0.78873 0.17601 0.93629 0.0
C277 C 0.75307 0.15278 0.40825 0.0
O278 O 0.77655 0.16785 0.35466 0.0
C279 C 0.76996 0.14742 0.62598 0.0
C280 C 0.73123 0.11345 0.56108 0.0
C281 C 0.75215 0.1381 0.52424 0.0
N282 N 0.75872 0.13022 0.72385 0.0
N283 N 0.73621 0.10941 0.68221 0.0
C284 C 0.79448 0.17445 0.63709 0.0
H285 H 0.80664 0.17539 0.72099 0.0
H286 H 0.78835 0.18976 0.64527 0.0
H287 H 0.80706 0.179 0.55004 0.0
C288 C 0.68887 0.1267 0.00869 0.0
N289 N 0.71511 0.13482 0.03073 0.0
N290 N 0.72682 0.13885 0.91923 0.0
C291 C 0.70993 0.13743 0.82605 0.0
C292 C 0.68454 0.12764 0.87591 0.0
C293 C 0.66875 0.12023 0.11291 0.0
H294 H 0.67575 0.13784 0.17676 0.0
H295 H 0.64876 0.11475 0.07349 0.0
H296 H 0.66733 0.10359 0.17184 0.0
O297 O 0.75571 0.12291 0.19689 0.0
O298 O 0.76834 0.11464 0.01313 0.0
H299 H 0.71105 0.14433 0.62389 0.0
H300 H 0.71225 0.17028 0.72117 0.0
C301 C 0.71943 0.15576 0.71316 0.0
H302 H 0.74153 0.16777 0.71065 0.0
H303 H 0.72261 0.09391 0.74103 0.0
O304 O 0.73179 0.14598 0.34335 0.0
C305 C 0.76597 0.11169 0.13472 0.0
Co306 Co 0.59658 0.85545 0.84658 0.0
Co307 Co 0.62048 0.86099 0.10893 0.0
C308 C 0.59816 0.8092 0.97948 0.0
O309 O 0.58913 0.81763 0.89025 0.0
O310 O 0.61177 0.82442 0.07094 0.0
C311 C 0.59939 0.84753 0.6034 0.0
O312 O 0.60705 0.83206 0.65838 0.0
C313 C 0.61776 0.84984 0.37879 0.0
C314 C 0.62187 0.88741 0.4555 0.0
C315 C 0.61324 0.86108 0.48592 0.0
N316 N 0.62718 0.86835 0.28563 0.0
N317 N 0.62997 0.89087 0.33288 0.0
C318 C 0.60838 0.82088 0.35749 0.0
H319 H 0.6237 0.81882 0.30213 0.0
H320 H 0.58955 0.8119 0.30136 0.0
H321 H 0.60444 0.8097 0.44844 0.0
C322 C 0.57129 0.88436 0.99648 0.0
N323 N 0.58435 0.87058 0.97815 0.0
N324 N 0.58862 0.86359 0.09011 0.0
C325 C 0.57481 0.8684 0.18096 0.0
C326 C 0.56482 0.88382 0.12852 0.0
C327 C 0.56773 0.89944 0.89016 0.0
H328 H 0.58234 0.90314 0.81241 0.0
H329 H 0.54735 0.88733 0.84921 0.0
H330 H 0.57088 0.9188 0.92601 0.0
O331 O 0.63443 0.87795 0.81137 0.0
O332 O 0.65447 0.88612 0.99754 0.0
H333 H 0.57044 0.85548 0.37724 0.0
H334 H 0.53948 0.84422 0.29568 0.0
C335 C 0.56039 0.84829 0.28495 0.0
H336 H 0.55984 0.82923 0.26292 0.0
H337 H 0.63502 0.90786 0.27814 0.0
O338 O 0.58681 0.85643 0.66919 0.0
C339 C 0.65566 0.88895 0.87542 0.0
Co340 Co 0.14886 0.74188 0.84689 0.0
Co341 Co 0.13594 0.75899 0.10514 0.0
C342 C 0.19134 0.78793 0.97474 0.0
O343 O 0.18617 0.77141 0.88403 0.0
O344 O 0.17335 0.78453 0.05502 0.0
C345 C 0.16001 0.74849 0.59045 0.0
O346 O 0.18233 0.76919 0.63059 0.0
C347 C 0.1555 0.75872 0.35668 0.0
C348 C 0.12342 0.75455 0.48622 0.0
C349 C 0.1467 0.7531 0.48164 0.0
N350 N 0.13773 0.76237 0.28818 0.0
N351 N 0.11879 0.76018 0.36686 0.0
C352 C 0.17829 0.75659 0.30013 0.0
H353 H 0.19289 0.77589 0.25602 0.0
H354 H 0.17086 0.74135 0.22331 0.0
H355 H 0.18871 0.75121 0.37334 0.0
C356 C 0.13084 0.6905 0.01446 0.0
N357 N 0.13469 0.71516 0.98517 0.0
N358 N 0.12605 0.72294 0.08324 0.0
C359 C 0.11554 0.70359 0.17298 0.0
C360 C 0.11976 0.68308 0.13823 0.0
C361 C 0.13642 0.67379 0.92436 0.0
H362 H 0.15326 0.6868 0.85962 0.0
H363 H 0.141 0.65996 0.9779 0.0
H364 H 0.11834 0.66163 0.86497 0.0
O365 O 0.12591 0.75875 0.81564 0.0
O366 O 0.11257 0.76837 0.99695 0.0
H367 H 0.07869 0.68113 0.27855 0.0
H368 H 0.10618 0.70537 0.36953 0.0
C369 C 0.09635 0.70163 0.27495 0.0
H370 H 0.08899 0.71568 0.25548 0.0
H371 H 0.10135 0.75959 0.33662 0.0
O372 O 0.1461 0.72949 0.66845 0.0
C373 C 0.11256 0.76759 0.87401 0.0
Co374 Co 0.26713 0.41231 0.84392 0.0
Co375 Co 0.25379 0.38156 0.09677 0.0
C376 C 0.22145 0.40625 0.97808 0.0
O377 O 0.23702 0.41863 0.88517 0.0
O378 O 0.22671 0.39235 0.05437 0.0
C379 C 0.25997 0.41219 0.58916 0.0
O380 O 0.23635 0.40641 0.63334 0.0
C381 C 0.25448 0.4005 0.3514 0.0
C382 C 0.2608 0.37356 0.47684 0.0
C383 C 0.26013 0.39722 0.47592 0.0
N384 N 0.25252 0.38012 0.28002 0.0
N385 N 0.25646 0.36414 0.3558 0.0
C386 C 0.25471 0.4247 0.29833 0.0
H387 H 0.23456 0.41902 0.26213 0.0
H388 H 0.26872 0.43271 0.2162 0.0
H389 H 0.26066 0.44057 0.37176 0.0
C390 C 0.31676 0.4488 0.01792 0.0
N391 N 0.29452 0.42589 0.97944 0.0
N392 N 0.28958 0.40769 0.06628 0.0
C393 C 0.30908 0.41723 0.1552 0.0
C394 C 0.32647 0.44415 0.13408 0.0
C395 C 0.32664 0.47496 0.95129 0.0
H396 H 0.30949 0.47577 0.90782 0.0
H397 H 0.33735 0.49189 0.0188 0.0
H398 H 0.34032 0.4767 0.87244 0.0
O399 O 0.25002 0.37217 0.811 0.0
O400 O 0.24335 0.34901 0.98953 0.0
H401 H 0.33524 0.40507 0.23999 0.0
H402 H 0.30944 0.40268 0.34333 0.0
C403 C 0.31384 0.39967 0.24378 0.0
H404 H 0.3012 0.37833 0.21653 0.0
H405 H 0.25853 0.34828 0.32307 0.0
O406 O 0.27988 0.422 0.66571 0.0
C407 C 0.24215 0.34991 0.86716 0.0
Co408 Co 0.81513 0.73914 0.18633 0.0
Co409 Co 0.8101 0.71541 0.44854 0.0
C410 C 0.86183 0.7378 0.31694 0.0
O411 O 0.85301 0.74657 0.22843 0.0
O412 O 0.84682 0.72408 0.40901 0.0
C413 C 0.82283 0.73575 0.94344 0.0
O414 O 0.83791 0.72772 0.99944 0.0
C415 C 0.82104 0.71785 0.71848 0.0
C416 C 0.7832 0.71361 0.79367 0.0
C417 C 0.80953 0.72222 0.82514 0.0
N418 N 0.80266 0.70849 0.62474 0.0
N419 N 0.77998 0.70556 0.67108 0.0
C420 C 0.85014 0.72746 0.69792 0.0
H421 H 0.85243 0.71232 0.64258 0.0
H422 H 0.85904 0.74626 0.64183 0.0
H423 H 0.86123 0.73144 0.7892 0.0
C424 C 0.7868 0.76466 0.33671 0.0
N425 N 0.80056 0.75163 0.31832 0.0
N426 N 0.80762 0.74732 0.43013 0.0
C427 C 0.80289 0.76114 0.52105 0.0
C428 C 0.7875 0.77118 0.4686 0.0
C429 C 0.77142 0.76793 0.23075 0.0
H430 H 0.76761 0.75319 0.15368 0.0
H431 H 0.78343 0.78816 0.18854 0.0
H432 H 0.75204 0.76478 0.26718 0.0
O433 O 0.79172 0.70151 0.15377 0.0
O434 O 0.78414 0.68151 0.3397 0.0
H435 H 0.8159 0.76528 0.71709 0.0
H436 H 0.82712 0.79628 0.63622 0.0
C437 C 0.82306 0.77544 0.62495 0.0
H438 H 0.84218 0.77606 0.60231 0.0
H439 H 0.76315 0.70083 0.61534 0.0
O440 O 0.81407 0.74857 0.00835 0.0
C441 C 0.78052 0.68038 0.21826 0.0
Co442 Co 0.26537 0.07698 0.18486 0.0
Co443 Co 0.29536 0.09392 0.44357 0.0
C444 C 0.26973 0.12329 0.31343 0.0
O445 O 0.25806 0.1069 0.22249 0.0
O446 O 0.28395 0.11939 0.39327 0.0
C447 C 0.25958 0.08289 0.9285 0.0
O448 O 0.25726 0.1032 0.96791 0.0
C449 C 0.27454 0.09304 0.69462 0.0
C450 C 0.30293 0.0903 0.82598 0.0
C451 C 0.27783 0.08796 0.82022 0.0
N452 N 0.29633 0.09728 0.62691 0.0
N453 N 0.31334 0.09596 0.70677 0.0
C454 C 0.24931 0.08999 0.63728 0.0
H455 H 0.25372 0.10859 0.58716 0.0
H456 H 0.24121 0.07372 0.56541 0.0
H457 H 0.23375 0.08544 0.71113 0.0
C458 C 0.23258 0.02496 0.35082 0.0
N459 N 0.25295 0.05004 0.32282 0.0
N460 N 0.26932 0.05798 0.42105 0.0
C461 C 0.26088 0.03845 0.50965 0.0
C462 C 0.23644 0.01747 0.47398 0.0
C463 C 0.21064 0.00788 0.25977 0.0
H464 H 0.20683 0.02059 0.19323 0.0
H465 H 0.19207 0.99399 0.31266 0.0
H466 H 0.21691 0.99575 0.20255 0.0
O467 O 0.30529 0.09405 0.15151 0.0
O468 O 0.32807 0.10356 0.33353 0.0
H469 H 0.27608 0.01691 0.61599 0.0
H470 H 0.27192 0.04065 0.70647 0.0
C471 C 0.27832 0.03714 0.61212 0.0
H472 H 0.2997 0.05172 0.59312 0.0
H473 H 0.3306 0.09611 0.67757 0.0
O474 O 0.25515 0.06426 0.00735 0.0
C475 C 0.32746 0.10302 0.21039 0.0
Co476 Co 0.93259 0.18891 0.1834 0.0
Co477 Co 0.91452 0.19671 0.44749 0.0
C478 C 0.88323 0.14471 0.31861 0.0
O479 O 0.90021 0.15224 0.22689 0.0
O480 O 0.88614 0.16025 0.41123 0.0
C481 C 0.9218 0.18349 0.93933 0.0
O482 O 0.89834 0.16838 0.99295 0.0
C483 C 0.9049 0.1888 0.7215 0.0
C484 C 0.94353 0.22286 0.7867 0.0
C485 C 0.92268 0.19816 0.82337 0.0
N486 N 0.91611 0.20603 0.62374 0.0
N487 N 0.93856 0.2269 0.66554 0.0
C488 C 0.88047 0.16171 0.71008 0.0
H489 H 0.86821 0.1608 0.62668 0.0
H490 H 0.88674 0.14651 0.70065 0.0
H491 H 0.86795 0.15695 0.79743 0.0
C492 C 0.98612 0.21003 0.33886 0.0
N493 N 0.95981 0.20163 0.31683 0.0
N494 N 0.9481 0.19753 0.42835 0.0
C495 C 0.96509 0.19918 0.52155 0.0
C496 C 0.9905 0.2092 0.47166 0.0
C497 C 0.00629 0.21674 0.23462 0.0
H498 H 0.99944 0.19919 0.17052 0.0
H499 H 0.02632 0.22238 0.274 0.0
H500 H 0.00754 0.23334 0.17594 0.0
O501 O 0.91911 0.2133 0.1507 0.0
O502 O 0.90651 0.22163 0.33443 0.0
H503 H 0.96412 0.19238 0.72377 0.0
H504 H 0.96308 0.1665 0.62661 0.0
C505 C 0.95575 0.1809 0.63463 0.0
H506 H 0.93366 0.16876 0.63741 0.0
H507 H 0.95212 0.24243 0.60683 0.0
O508 O 0.94309 0.19034 1.00422 0.0
C509 C 0.90886 0.22454 0.2128 0.0
Co510 Co 0.07692 0.48025 0.49987 0.0
Co511 Co 0.05269 0.47375 0.23697 0.0
C512 C 0.07499 0.52574 0.36564 0.0
O513 O 0.08443 0.51806 0.45613 0.0
O514 O 0.06141 0.50999 0.27575 0.0
C515 C 0.07397 0.48801 0.74307 0.0
O516 O 0.06639 0.50357 0.68847 0.0
C517 C 0.05544 0.48534 0.96763 0.0
C518 C 0.05149 0.44791 0.88957 0.0
C519 C 0.06003 0.47427 0.86003 0.0
N520 N 0.04609 0.46669 0.06021 0.0
N521 N 0.04331 0.44424 0.0121 0.0
C522 C 0.06449 0.51424 0.98954 0.0
H523 H 0.04914 0.51603 0.04599 0.0
H524 H 0.08344 0.52349 0.04474 0.0
H525 H 0.06806 0.52539 0.89872 0.0
C526 C 0.10311 0.45206 0.35091 0.0
N527 N 0.08929 0.46509 0.36866 0.0
N528 N 0.08452 0.47146 0.25627 0.0
C529 C 0.09869 0.46716 0.16565 0.0
C530 C 0.10941 0.45248 0.21868 0.0
C531 C 0.1078 0.43799 0.45827 0.0
H532 H 0.09364 0.4345 0.53791 0.0
H533 H 0.12841 0.45067 0.49569 0.0
H534 H 0.10482 0.41857 0.42452 0.0
O535 O 0.03887 0.45794 0.53394 0.0
O536 O 0.01881 0.44869 0.34747 0.0
H537 H 0.10282 0.48032 0.96985 0.0
H538 H 0.13388 0.49195 0.05096 0.0
C539 C 0.11286 0.48749 0.06215 0.0
H540 H 0.11307 0.50636 0.0851 0.0
H541 H 0.03824 0.42717 0.06619 0.0
O542 O 0.08657 0.47915 0.67714 0.0
C543 C 0.01764 0.4465 0.4698 0.0
Co544 Co 0.52794 0.59719 0.49637 0.0
Co545 Co 0.53865 0.58135 0.23023 0.0
C546 C 0.48605 0.54548 0.35594 0.0
O547 O 0.49273 0.56187 0.45056 0.0
O548 O 0.50205 0.5502 0.2618 0.0
C549 C 0.52642 0.58857 0.74234 0.0
O550 O 0.51251 0.56457 0.69246 0.0
C551 C 0.53568 0.57383 0.95719 0.0
C552 C 0.56574 0.61452 0.8965 0.0
C553 C 0.54267 0.59176 0.85703 0.0
N554 N 0.55174 0.58611 0.05672 0.0
N555 N 0.57073 0.60998 0.01731 0.0
C556 C 0.51122 0.54738 0.96642 0.0
H557 H 0.51212 0.53643 0.05149 0.0
H558 H 0.49374 0.55043 0.97213 0.0
H559 H 0.50961 0.5357 0.87948 0.0
C560 C 0.54449 0.64951 0.33919 0.0
N561 N 0.53832 0.62387 0.36167 0.0
N562 N 0.53527 0.61241 0.25026 0.0
C563 C 0.53543 0.62857 0.15671 0.0
C564 C 0.54337 0.65355 0.20624 0.0
C565 C 0.54983 0.66938 0.443 0.0
H566 H 0.53185 0.66174 0.5052 0.0
H567 H 0.55468 0.68912 0.40309 0.0
H568 H 0.56656 0.67148 0.50374 0.0
O569 O 0.55534 0.58782 0.53028 0.0
O570 O 0.56476 0.57638 0.34656 0.0
H571 H 0.5288 0.6276 0.95428 0.0
H572 H 0.50121 0.6227 0.05083 0.0
C573 C 0.51754 0.6179 0.04249 0.0
H574 H 0.50778 0.59588 0.03734 0.0
H575 H 0.58489 0.6246 0.07786 0.0
O576 O 0.53003 0.6087 0.67592 0.0
C577 C 0.56805 0.57934 0.4676 0.0
Co578 Co 0.40846 0.92646 0.50316 0.0
Co579 Co 0.42176 0.95721 0.25074 0.0
C580 C 0.45396 0.93215 0.36862 0.0
O581 O 0.43843 0.91996 0.46192 0.0
O582 O 0.4488 0.94616 0.2924 0.0
C583 C 0.41571 0.92688 0.75777 0.0
O584 O 0.43938 0.93296 0.71313 0.0
C585 C 0.42102 0.93838 0.99576 0.0
C586 C 0.41481 0.96543 0.87066 0.0
C587 C 0.41542 0.94174 0.87125 0.0
N588 N 0.42299 0.95874 0.06743 0.0
N589 N 0.4191 0.97478 0.99184 0.0
C590 C 0.42078 0.91416 0.04846 0.0
H591 H 0.44098 0.91978 0.08373 0.0
H592 H 0.40692 0.90621 0.13115 0.0
H593 H 0.41466 0.89825 0.97505 0.0
C594 C 0.35916 0.8898 0.32801 0.0
N595 N 0.38109 0.91288 0.3674 0.0
N596 N 0.38585 0.93111 0.28099 0.0
C597 C 0.3664 0.92139 0.19165 0.0
C598 C 0.34927 0.89437 0.21206 0.0
C599 C 0.35018 0.86356 0.39227 0.0
H600 H 0.36751 0.86373 0.4395 0.0
H601 H 0.34107 0.84692 0.3222 0.0
H602 H 0.33538 0.86042 0.46793 0.0
O603 O 0.42551 0.96659 0.53666 0.0
O604 O 0.43228 0.98984 0.35849 0.0
H605 H 0.34002 0.93312 0.10559 0.0
H606 H 0.36616 0.93595 1.0034 0.0
C607 C 0.3615 0.9388 0.1027 0.0
H608 H 0.37391 0.96015 0.1302 0.0
H609 H 0.4171 0.99067 0.02471 0.0
O610 O 0.39573 0.91681 0.68155 0.0
C611 C 0.43338 0.98888 0.4809 0.0
Co612 Co 0.52665 0.93159 0.48575 0.0
Co613 Co 0.53189 0.95562 0.2235 0.0
C614 C 0.48021 0.93363 0.35565 0.0
O615 O 0.48897 0.92481 0.44425 0.0
O616 O 0.49516 0.94706 0.26277 0.0
C617 C 0.51922 0.93535 0.72886 0.0
O618 O 0.50434 0.94361 0.67278 0.0
C619 C 0.52137 0.95377 0.95314 0.0
C620 C 0.55878 0.95675 0.87942 0.0
C621 C 0.53265 0.94885 0.8471 0.0
N622 N 0.53964 0.9627 0.0474 0.0
N623 N 0.5621 0.96493 1.00182 0.0
C624 C 0.49245 0.94513 0.9727 0.0
H625 H 0.49069 0.9602 0.03132 0.0
H626 H 0.4827 0.92583 0.02476 0.0
H627 H 0.4818 0.94239 0.88099 0.0
C628 C 0.55313 0.90428 0.33437 0.0
N629 N 0.54068 0.9186 0.35296 0.0
N630 N 0.53418 0.92355 0.24116 0.0
C631 C 0.53792 0.90904 0.15014 0.0
C632 C 0.55224 0.89776 0.20228 0.0
C633 C 0.56735 0.89948 0.4407 0.0
H634 H 0.57177 0.91414 0.5189 0.0
H635 H 0.55429 0.87923 0.48094 0.0
H636 H 0.58633 0.90162 0.40476 0.0
O637 O 0.55043 0.96923 0.5186 0.0
O638 O 0.55773 0.98943 0.33343 0.0
H639 H 0.52532 0.90542 0.95365 0.0
H640 H 0.51228 0.87432 0.03536 0.0
C641 C 0.51761 0.89557 0.04593 0.0
H642 H 0.49911 0.89625 0.06772 0.0
H643 H 0.57875 0.96927 0.05803 0.0
O644 O 0.52764 0.92221 0.66411 0.0
C645 C 0.56146 0.99045 0.45476 0.0
Co646 Co 0.07885 0.59767 0.49549 0.0
Co647 Co 0.0492 0.57974 0.23618 0.0
C648 C 0.07545 0.55145 0.3711 0.0
O649 O 0.08683 0.56813 0.46117 0.0
O650 O 0.06109 0.55483 0.28995 0.0
C651 C 0.08565 0.59245 0.75224 0.0
O652 O 0.09 0.57332 0.71407 0.0
C653 C 0.07047 0.58116 0.98536 0.0
C654 C 0.04141 0.5827 0.85396 0.0
C655 C 0.06696 0.58612 0.85986 0.0
N656 N 0.0484 0.57609 0.05298 0.0
N657 N 0.03095 0.57658 0.97302 0.0
C658 C 0.09606 0.58512 0.04265 0.0
H659 H 0.09202 0.5675 0.10066 0.0
H660 H 0.10477 0.6027 0.10702 0.0
H661 H 0.11106 0.58827 0.9679 0.0
C662 C 0.11108 0.64947 0.3275 0.0
N663 N 0.09106 0.62427 0.35616 0.0
N664 N 0.07476 0.61586 0.25766 0.0
C665 C 0.08283 0.63521 0.16838 0.0
C666 C 0.10701 0.65657 0.20387 0.0
C667 C 0.13281 0.66703 0.4185 0.0
H668 H 0.13721 0.6547 0.48464 0.0
H669 H 0.15117 0.68142 0.36562 0.0
H670 H 0.12593 0.6786 0.47623 0.0
O671 O 0.03885 0.58036 0.52681 0.0
O672 O 0.01626 0.57005 0.34396 0.0
H673 H 0.06674 0.65592 0.06185 0.0
H674 H 0.07188 0.63282 0.97128 0.0
C675 C 0.06514 0.63596 0.06553 0.0
H676 H 0.04388 0.62089 0.08395 0.0
H677 H 0.01325 0.57551 1.00216 0.0
O678 O 0.0888 0.61059 0.67292 0.0
C679 C 0.01674 0.57104 0.467 0.0
Co680 Co 0.40874 0.47722 0.4982 0.0
Co681 Co 0.42471 0.46668 0.23189 0.0
C682 C 0.46015 0.51943 0.35642 0.0
O683 O 0.44379 0.51264 0.45149 0.0
O684 O 0.45556 0.50345 0.26262 0.0
C685 C 0.41744 0.47883 0.74432 0.0
O686 O 0.44149 0.49302 0.69454 0.0
C687 C 0.43236 0.46972 0.95913 0.0
C688 C 0.39173 0.43943 0.89811 0.0
C689 C 0.41442 0.4626 0.85882 0.0
N690 N 0.42011 0.45361 0.05856 0.0
N691 N 0.39629 0.4345 0.01898 0.0
C692 C 0.45872 0.49429 0.96877 0.0
H693 H 0.46981 0.49336 0.05328 0.0
H694 H 0.45538 0.51153 0.97604 0.0
H695 H 0.47046 0.49623 0.88145 0.0
C696 C 0.35603 0.45996 0.34237 0.0
N697 N 0.38184 0.4664 0.36407 0.0
N698 N 0.39322 0.46946 0.25232 0.0
C699 C 0.37682 0.46904 0.15922 0.0
C700 C 0.35179 0.46094 0.20956 0.0
C701 C 0.33616 0.45444 0.44674 0.0
H702 H 0.34368 0.47238 0.50874 0.0
H703 H 0.31626 0.44935 0.40739 0.0
H704 H 0.33432 0.43785 0.50751 0.0
O705 O 0.41882 0.45038 0.53216 0.0
O706 O 0.43034 0.44107 0.34839 0.0
H707 H 0.37739 0.47525 0.95655 0.0
H708 H 0.38215 0.50284 0.05203 0.0
C709 C 0.38718 0.48669 0.04415 0.0
H710 H 0.40926 0.49665 0.03821 0.0
H711 H 0.38169 0.42026 0.07943 0.0
O712 O 0.39719 0.47497 0.67787 0.0
C713 C 0.42757 0.43792 0.46957 0.0
Co714 Co 0.26936 0.19529 0.18887 0.0
Co715 Co 0.29336 0.20111 0.45196 0.0
C716 C 0.27067 0.14922 0.32122 0.0
O717 O 0.26173 0.15743 0.23083 0.0
O718 O 0.28417 0.1646 0.41257 0.0
C719 C 0.27287 0.18791 0.94609 0.0
O720 O 0.28082 0.17272 1.00152 0.0
C721 C 0.29136 0.19021 0.72183 0.0
C722 C 0.29442 0.22751 0.79657 0.0
C723 C 0.28649 0.20139 0.82824 0.0
N724 N 0.30029 0.20854 0.62796 0.0
N725 N 0.30259 0.23093 0.67411 0.0
C726 C 0.28278 0.16137 0.70188 0.0
H727 H 0.29769 0.15968 0.6414 0.0
H728 H 0.26321 0.15149 0.65183 0.0
H729 H 0.2805 0.1508 0.79343 0.0
C730 C 0.24173 0.2218 0.33716 0.0
N731 N 0.25655 0.20981 0.32016 0.0
N732 N 0.26169 0.20383 0.43269 0.0
C733 C 0.24683 0.20729 0.52273 0.0
C734 C 0.23518 0.22108 0.4691 0.0
C735 C 0.23621 0.23512 0.22918 0.0
H736 H 0.25049 0.23906 0.14948 0.0
H737 H 0.21571 0.22174 0.19217 0.0
H738 H 0.23841 0.25426 0.26226 0.0
O739 O 0.30745 0.21819 0.15744 0.0
O740 O 0.32745 0.2263 0.34367 0.0
H741 H 0.24331 0.19453 0.71896 0.0
H742 H 0.21207 0.18158 0.63791 0.0
C743 C 0.23337 0.18693 0.62679 0.0
H744 H 0.23405 0.1685 0.60438 0.0
H745 H 0.30712 0.24768 0.61845 0.0
O746 O 0.26 0.19656 0.01131 0.0
C747 C 0.32866 0.22929 0.22192 0.0
Co748 Co 0.81499 0.07327 0.18326 0.0
Co749 Co 0.80207 0.09031 0.44145 0.0
C750 C 0.8575 0.11933 0.31139 0.0
O751 O 0.85233 0.10279 0.2208 0.0
O752 O 0.83949 0.11594 0.39158 0.0
C753 C 0.82608 0.08015 0.92715 0.0
O754 O 0.84817 0.10103 0.96798 0.0
C755 C 0.82155 0.09013 0.69312 0.0
C756 C 0.78944 0.08603 0.82228 0.0
C757 C 0.81273 0.08459 0.81803 0.0
N758 N 0.80378 0.09373 0.62432 0.0
N759 N 0.78482 0.09158 0.70274 0.0
C760 C 0.84436 0.088 0.63696 0.0
H761 H 0.85892 0.10725 0.59236 0.0
H762 H 0.83694 0.07265 0.56061 0.0
H763 H 0.85482 0.08274 0.71052 0.0
C764 C 0.79658 0.02162 0.34938 0.0
N765 N 0.80072 0.04643 0.32109 0.0
N766 N 0.79226 0.05424 0.41973 0.0
C767 C 0.78161 0.03478 0.50896 0.0
C768 C 0.78551 0.0141 0.47314 0.0
C769 C 0.80181 0.00483 0.25819 0.0
H770 H 0.81856 0.01776 0.19287 0.0
H771 H 0.80636 0.99088 0.31086 0.0
H772 H 0.78358 0.99278 0.19955 0.0
O773 O 0.79204 0.09015 0.15201 0.0
O774 O 0.77865 0.09966 0.3334 0.0
H775 H 0.74491 0.01246 0.61591 0.0
H776 H 0.77257 0.03679 0.70575 0.0
C777 C 0.76259 0.03294 0.61154 0.0
H778 H 0.75523 0.04699 0.59216 0.0
H779 H 0.76739 0.09099 0.67223 0.0
O780 O 0.81228 0.06101 1.00466 0.0
C781 C 0.77866 0.09893 0.21047 0.0
Co782 Co 0.93392 0.74579 0.17127 0.0
Co783 Co 0.9208 0.71506 0.42364 0.0
C784 C 0.88828 0.73973 0.30484 0.0
O785 O 0.90386 0.75213 0.212 0.0
O786 O 0.89358 0.72583 0.38116 0.0
C787 C 0.92672 0.74533 0.91652 0.0
O788 O 0.90303 0.73929 0.96085 0.0
C789 C 0.92137 0.73382 0.67859 0.0
C790 C 0.92785 0.70691 0.80354 0.0
C791 C 0.92705 0.73051 0.80303 0.0
N792 N 0.91954 0.71352 0.60687 0.0
N793 N 0.92359 0.69757 0.68235 0.0
C794 C 0.9215 0.75799 0.62591 0.0
H795 H 0.90135 0.75224 0.58931 0.0
H796 H 0.93557 0.76615 0.5441 0.0
H797 H 0.92728 0.77377 0.69967 0.0
C798 C 0.9831 0.78266 0.34657 0.0
N799 N 0.96129 0.75949 0.30708 0.0
N800 N 0.95666 0.74129 0.39338 0.0
C801 C 0.9761 0.75113 0.4828 0.0
C802 C 0.99306 0.77819 0.46258 0.0
C803 C 0.99184 0.80888 0.28253 0.0
H804 H 0.97441 0.80854 0.23552 0.0
H805 H 1.00084 0.8255 0.35272 0.0
H806 H 0.00666 0.81217 0.20671 0.0
O807 O 0.91683 0.70565 0.13827 0.0
O808 O 0.91034 0.68245 0.31636 0.0
H809 H 1.00269 0.73968 0.56887 0.0
H810 H 0.97646 0.73662 0.67103 0.0
C811 C 0.98116 0.73383 0.57173 0.0
H812 H 0.96889 0.71247 0.5442 0.0
H813 H 0.92574 0.68177 0.64936 0.0
O814 O 0.94667 0.75538 0.99291 0.0
C815 C 0.90904 0.68337 0.19405 0.0
Co816 Co 0.48208 0.07323 0.52525 0.0
Co817 Co 0.47684 0.0492 0.7875 0.0
C818 C 0.52852 0.07119 0.65535 0.0
O819 O 0.51976 0.08 0.56675 0.0
O820 O 0.51356 0.05776 0.74823 0.0
C821 C 0.48951 0.06947 0.28214 0.0
O822 O 0.50439 0.0612 0.33822 0.0
C823 C 0.48735 0.05103 0.05787 0.0
C824 C 0.44994 0.04808 0.13156 0.0
C825 C 0.47608 0.05597 0.1639 0.0
N826 N 0.46908 0.04211 0.9636 0.0
N827 N 0.44663 0.0399 0.00917 0.0
C828 C 0.51626 0.05966 0.03834 0.0
H829 H 0.51802 0.0446 0.97961 0.0
H830 H 0.52603 0.07897 0.98641 0.0
H831 H 0.5269 0.06236 0.13006 0.0
C832 C 0.45563 0.10058 0.67664 0.0
N833 N 0.46806 0.08623 0.65805 0.0
N834 N 0.47455 0.08127 0.76985 0.0
C835 C 0.47082 0.0958 0.86087 0.0
C836 C 0.45653 0.1071 0.80872 0.0
C837 C 0.44145 0.10541 0.57028 0.0
H838 H 0.43703 0.09076 0.49203 0.0
H839 H 0.45451 0.12566 0.53013 0.0
H840 H 0.42246 0.10328 0.60618 0.0
O841 O 0.45829 0.03559 0.4924 0.0
O842 O 0.451 0.01539 0.67756 0.0
H843 H 0.48342 0.09941 0.05736 0.0
H844 H 0.49649 0.13051 0.97562 0.0
C845 C 0.49115 0.10925 0.96507 0.0
H846 H 0.50963 0.10855 0.94326 0.0
H847 H 0.42998 0.03557 0.95295 0.0
O848 O 0.48109 0.08261 0.34688 0.0
C849 C 0.44727 0.01437 0.55623 0.0
Co850 Co 0.92979 0.40715 0.51543 0.0
Co851 Co 0.95945 0.42509 0.77474 0.0
C852 C 0.9332 0.45337 0.6398 0.0
O853 O 0.92182 0.43669 0.54974 0.0
O854 O 0.94755 0.45 0.72096 0.0
C855 C 0.92298 0.41237 0.25867 0.0
O856 O 0.91861 0.43149 0.29683 0.0
C857 C 0.93817 0.42367 0.02556 0.0
C858 C 0.96724 0.42214 0.15698 0.0
C859 C 0.94168 0.41871 0.15107 0.0
N860 N 0.96024 0.42875 0.95795 0.0
N861 N 0.97769 0.42826 0.03793 0.0
C862 C 0.91258 0.41971 0.96825 0.0
H863 H 0.91661 0.43732 0.91021 0.0
H864 H 0.90387 0.40212 0.90392 0.0
H865 H 0.89758 0.41656 0.043 0.0
C866 C 0.89758 0.35535 0.68343 0.0
N867 N 0.91759 0.38056 0.65477 0.0
N868 N 0.93389 0.38897 0.75328 0.0
C869 C 0.92583 0.36962 0.84256 0.0
C870 C 0.90165 0.34826 0.80707 0.0
C871 C 0.87586 0.33778 0.59241 0.0
H872 H 0.8714 0.35011 0.52648 0.0
H873 H 0.85752 0.32334 0.64526 0.0
H874 H 0.88278 0.32628 0.53445 0.0
O875 O 0.9698 0.42446 0.4841 0.0
O876 O 0.99239 0.43478 0.66695 0.0
H877 H 0.94193 0.34893 0.94909 0.0
H878 H 0.93678 0.37202 0.03966 0.0
C879 C 0.94352 0.36888 0.94541 0.0
H880 H 0.96478 0.38396 0.92699 0.0
H881 H 0.9954 0.42935 0.0088 0.0
O882 O 0.91984 0.39424 0.33799 0.0
C883 C 0.99191 0.43379 0.54391 0.0
Co884 Co 0.59989 0.52754 0.51236 0.0
Co885 Co 0.58392 0.53807 0.77866 0.0
C886 C 0.54847 0.48533 0.65414 0.0
O887 O 0.56484 0.49212 0.55908 0.0
O888 O 0.55306 0.50132 0.74793 0.0
C889 C 0.59117 0.5259 0.26623 0.0
O890 O 0.56713 0.51172 0.31605 0.0
C891 C 0.57625 0.53501 0.05138 0.0
C892 C 0.61687 0.56531 0.11249 0.0
C893 C 0.59419 0.54213 0.15173 0.0
N894 N 0.58851 0.55113 0.952 0.0
N895 N 0.61231 0.57025 0.99163 0.0
C896 C 0.54991 0.51043 0.04162 0.0
H897 H 0.53879 0.5114 0.95735 0.0
H898 H 0.55327 0.4932 0.03372 0.0
H899 H 0.53818 0.50839 0.12911 0.0
C900 C 0.65261 0.54482 0.66823 0.0
N901 N 0.62679 0.53836 0.6465 0.0
N902 N 0.6154 0.53529 0.75824 0.0
C903 C 0.63181 0.53572 0.85135 0.0
C904 C 0.65684 0.54383 0.80104 0.0
C905 C 0.67249 0.55036 0.56388 0.0
H906 H 0.66497 0.53242 0.50182 0.0
H907 H 0.69238 0.55545 0.60324 0.0
H908 H 0.67432 0.56695 0.50315 0.0
O909 O 0.58981 0.55437 0.47838 0.0
O910 O 0.57829 0.56368 0.66217 0.0
H911 H 0.63124 0.5295 0.05403 0.0
H912 H 0.6265 0.50193 0.95855 0.0
C913 C 0.62145 0.51806 0.96642 0.0
H914 H 0.59937 0.5081 0.97234 0.0
H915 H 0.62692 0.5845 0.93122 0.0
O916 O 0.61143 0.52978 0.33268 0.0
C917 C 0.58106 0.56684 0.54099 0.0
Co918 Co 0.73936 0.80952 0.8221 0.0
Co919 Co 0.71535 0.80372 0.55903 0.0
C920 C 0.73807 0.85561 0.68977 0.0
O921 O 0.747 0.84739 0.78014 0.0
O922 O 0.72456 0.84023 0.59843 0.0
C923 C 0.73585 0.81691 0.06489 0.0
O924 O 0.72791 0.8321 0.00945 0.0
C925 C 0.71736 0.81462 0.28915 0.0
C926 C 0.71429 0.77731 0.21442 0.0
C927 C 0.72223 0.80343 0.18274 0.0
N928 N 0.70843 0.79629 0.38303 0.0
N929 N 0.70612 0.7739 0.33688 0.0
C930 C 0.72596 0.84346 0.3091 0.0
H931 H 0.71105 0.84517 0.36958 0.0
H932 H 0.74553 0.85333 0.35915 0.0
H933 H 0.72825 0.85403 0.21755 0.0
C934 C 0.76696 0.78299 0.67375 0.0
N935 N 0.75216 0.79499 0.6908 0.0
N936 N 0.74702 0.80099 0.57828 0.0
C937 C 0.76187 0.79752 0.48822 0.0
C938 C 0.7735 0.7837 0.54179 0.0
C939 C 0.77248 0.76967 0.78171 0.0
H940 H 0.75821 0.76574 0.86144 0.0
H941 H 0.79299 0.78304 0.81868 0.0
H942 H 0.77028 0.75052 0.74863 0.0
O943 O 0.70126 0.78663 0.85354 0.0
O944 O 0.68127 0.77854 0.66732 0.0
H945 H 0.76541 0.8103 0.29202 0.0
H946 H 0.79664 0.82322 0.3731 0.0
C947 C 0.77535 0.81789 0.38421 0.0
H948 H 0.77468 0.83632 0.40666 0.0
H949 H 0.70157 0.75715 0.39255 0.0
O950 O 0.74871 0.80825 0.99968 0.0
C951 C 0.68005 0.77554 0.78906 0.0
Co952 Co 0.19373 0.93156 0.82777 0.0
Co953 Co 0.20665 0.91454 0.56958 0.0
C954 C 0.15121 0.88552 0.69957 0.0
O955 O 0.15638 0.90206 0.79016 0.0
O956 O 0.16922 0.88891 0.61941 0.0
C957 C 0.18265 0.92466 0.08383 0.0
O958 O 0.16058 0.90376 0.04293 0.0
C959 C 0.18719 0.91472 0.3179 0.0
C960 C 0.21928 0.91879 0.18876 0.0
C961 C 0.19601 0.92024 0.19299 0.0
N962 N 0.20495 0.91113 0.38673 0.0
N963 N 0.22391 0.91325 0.30833 0.0
C964 C 0.16438 0.91688 0.37402 0.0
H965 H 0.14982 0.89765 0.41873 0.0
H966 H 0.17182 0.93225 0.45029 0.0
H967 H 0.15392 0.92213 0.30043 0.0
C968 C 0.2122 0.98325 0.66192 0.0
N969 N 0.20802 0.95842 0.69003 0.0
N970 N 0.21648 0.95061 0.59132 0.0
C971 C 0.22715 0.9701 0.5022 0.0
C972 C 0.22333 0.9908 0.53832 0.0
C973 C 0.20697 1.00002 0.75319 0.0
H974 H 0.1903 0.98708 0.81888 0.0
H975 H 0.20229 0.01388 0.70054 0.0
H976 H 0.22524 0.01217 0.81139 0.0
O977 O 0.21667 0.91467 0.85902 0.0
O978 O 0.23007 0.90517 0.67761 0.0
H979 H 0.26381 0.99239 0.39486 0.0
H980 H 0.2361 0.96804 0.30532 0.0
C981 C 0.24613 0.97191 0.39943 0.0
H982 H 0.2535 0.95786 0.41873 0.0
H983 H 0.24133 0.91383 0.33886 0.0
O984 O 0.19644 0.94382 0.00636 0.0
C985 C 0.23006 0.90589 0.80055 0.0
Co986 Co 0.07473 0.25898 0.83971 0.0
Co987 Co 0.08783 0.28969 0.58733 0.0
C988 C 0.12037 0.26504 0.70608 0.0
O989 O 0.1048 0.25264 0.79895 0.0
O990 O 0.11506 0.27893 0.62977 0.0
C991 C 0.08194 0.25945 0.09442 0.0
O992 O 0.10564 0.26554 0.05003 0.0
C993 C 0.08726 0.27095 0.33237 0.0
C994 C 0.0808 0.29787 0.20744 0.0
C995 C 0.0816 0.27427 0.20793 0.0
N996 N 0.08909 0.29123 0.40411 0.0
N997 N 0.08505 0.30719 0.32865 0.0
C998 C 0.08714 0.24678 0.38503 0.0
H999 H 0.10728 0.25252 0.42158 0.0
H1000 H 0.07307 0.23862 0.46685 0.0
H1001 H 0.08134 0.23099 0.31126 0.0
C1002 C 0.02554 0.22209 0.66454 0.0
N1003 N 0.04735 0.24527 0.70396 0.0
N1004 N 0.05197 0.26346 0.6176 0.0
C1005 C 0.03252 0.25361 0.52823 0.0
C1006 C 0.01555 0.22655 0.54862 0.0
C1007 C 0.01679 0.19588 0.72869 0.0
H1008 H 0.03422 0.19621 0.77572 0.0
H1009 H 0.00778 0.17925 0.65857 0.0
H1010 H 1.00198 0.19261 0.80449 0.0
O1011 O 0.09181 0.29911 0.8727 0.0
O1012 O 0.09828 0.32231 0.69458 0.0
H1013 H 0.00593 0.26503 0.44188 0.0
H1014 H 0.0322 0.26809 0.33991 0.0
C1015 C 0.02746 0.27089 0.43915 0.0
H1016 H 0.03972 0.29225 0.46664 0.0
H1017 H 0.0829 0.323 0.36165 0.0
O1018 O 0.06199 0.24938 0.01807 0.0
C1019 C 0.09959 0.32139 0.8169 0.0
Co1020 Co 0.19352 0.26563 0.82452 0.0
Co1021 Co 0.19853 0.28934 0.56231 0.0
C1022 C 0.14681 0.26695 0.69393 0.0
O1023 O 0.15564 0.25818 0.78243 0.0
O1024 O 0.16182 0.28067 0.60184 0.0
C1025 C 0.18581 0.269 0.06742 0.0
O1026 O 0.17073 0.27702 0.01143 0.0
C1027 C 0.18759 0.28689 0.29238 0.0
C1028 C 0.22544 0.29115 0.21718 0.0
C1029 C 0.19911 0.28253 0.18572 0.0
N1030 N 0.20598 0.29626 0.38611 0.0
N1031 N 0.22866 0.2992 0.33978 0.0
C1032 C 0.15849 0.27726 0.31296 0.0
H1033 H 0.15618 0.2924 0.36821 0.0
H1034 H 0.1496 0.25848 0.36914 0.0
H1035 H 0.14739 0.27325 0.22168 0.0
C1036 C 0.22189 0.24015 0.67415 0.0
N1037 N 0.2081 0.25315 0.69254 0.0
N1038 N 0.20103 0.25744 0.58074 0.0
C1039 C 0.20578 0.24364 0.48982 0.0
C1040 C 0.2212 0.23363 0.54226 0.0
C1041 C 0.23728 0.2369 0.78011 0.0
H1042 H 0.2411 0.25164 0.85714 0.0
H1043 H 0.22528 0.21667 0.82239 0.0
H1044 H 0.25666 0.24005 0.74367 0.0
O1045 O 0.21692 0.30326 0.85709 0.0
O1046 O 0.22449 0.32325 0.67113 0.0
H1047 H 0.19277 0.23947 0.29376 0.0
H1048 H 0.18158 0.20849 0.37468 0.0
C1049 C 0.18561 0.22932 0.38591 0.0
H1050 H 0.16648 0.22868 0.40852 0.0
H1051 H 0.24549 0.30395 0.39552 0.0
O1052 O 0.19458 0.25619 1.00249 0.0
C1053 C 0.2281 0.32439 0.79257 0.0
Co1054 Co 0.74341 0.92785 0.82619 0.0
Co1055 Co 0.71343 0.91094 0.56746 0.0
C1056 C 0.73904 0.88155 0.69757 0.0
O1057 O 0.75071 0.89793 0.78852 0.0
O1058 O 0.72482 0.88546 0.61774 0.0
C1059 C 0.74919 0.92193 0.08253 0.0
O1060 O 0.75149 0.90161 0.0431 0.0
C1061 C 0.73424 0.9118 0.31642 0.0
C1062 C 0.70585 0.91456 0.18506 0.0
C1063 C 0.73095 0.91688 0.19081 0.0
N1064 N 0.71246 0.90759 0.38413 0.0
N1065 N 0.69544 0.90891 0.30427 0.0
C1066 C 0.75947 0.91486 0.37377 0.0
H1067 H 0.75506 0.89625 0.42384 0.0
H1068 H 0.76757 0.93111 0.44567 0.0
H1069 H 0.77503 0.91941 0.29992 0.0
C1070 C 0.7762 0.97989 0.66046 0.0
N1071 N 0.75584 0.95481 0.6883 0.0
N1072 N 0.73949 0.94688 0.59 0.0
C1073 C 0.74793 0.96643 0.5015 0.0
C1074 C 0.77233 0.98743 0.53745 0.0
C1075 C 0.79815 0.99695 0.75158 0.0
H1076 H 0.80182 0.98424 0.81864 0.0
H1077 H 0.81677 0.01072 0.69872 0.0
H1078 H 0.79196 0.00923 0.80818 0.0
O1079 O 0.7035 0.91079 0.85954 0.0
O1080 O 0.68072 0.90131 0.6775 0.0
H1081 H 0.73278 0.98798 0.3948 0.0
H1082 H 0.73693 0.9642 0.30461 0.0
C1083 C 0.73051 0.96774 0.39886 0.0
H1084 H 0.70913 0.95317 0.41781 0.0
H1085 H 0.67819 0.90878 0.33347 0.0
O1086 O 0.75364 0.94057 1.00369 0.0
C1087 C 0.68133 0.90184 0.80065 0.0
Co1088 Co 0.07613 0.81594 0.82754 0.0
Co1089 Co 0.09419 0.80814 0.56344 0.0
C1090 C 0.12548 0.86014 0.69232 0.0
O1091 O 0.10849 0.85262 0.78404 0.0
O1092 O 0.12257 0.8446 0.59973 0.0
C1093 C 0.08693 0.82137 0.07161 0.0
O1094 O 0.11039 0.83649 0.01797 0.0
C1095 C 0.10383 0.81608 0.28947 0.0
C1096 C 0.06523 0.78198 0.22413 0.0
C1097 C 0.08607 0.8067 0.18755 0.0
N1098 N 0.09262 0.79883 0.38719 0.0
N1099 N 0.07019 0.77795 0.34531 0.0
C1100 C 0.12822 0.8432 0.30104 0.0
H1101 H 0.14052 0.84408 0.38422 0.0
H1102 H 0.1219 0.85834 0.31101 0.0
H1103 H 0.14071 0.84804 0.21357 0.0
C1104 C 0.02256 0.79472 0.67219 0.0
N1105 N 0.04889 0.80319 0.69414 0.0
N1106 N 0.0606 0.8073 0.58259 0.0
C1107 C 0.04358 0.80556 0.48936 0.0
C1108 C 0.01816 0.79546 0.53937 0.0
C1109 C 1.0024 0.78797 0.77647 0.0
H1110 H 0.00924 0.8055 0.84073 0.0
H1111 H 0.98236 0.78234 0.73713 0.0
H1112 H 1.00115 0.77135 0.83496 0.0
O1113 O 0.08963 0.79156 0.86025 0.0
O1114 O 0.10221 0.78322 0.67651 0.0
H1115 H 0.04446 0.8123 0.28712 0.0
H1116 H 0.04549 0.83819 0.38423 0.0
C1117 C 0.05285 0.82381 0.37618 0.0
H1118 H 0.07493 0.83599 0.37325 0.0
H1119 H 0.05664 0.7624 0.40396 0.0
O1120 O 0.06563 0.81451 0.00673 0.0
C1121 C 0.09987 0.78032 0.79814 0.0
Co1122 Co 0.93173 0.52457 0.51102 0.0
Co1123 Co 0.95596 0.53107 0.77393 0.0
C1124 C 0.93365 0.47908 0.64526 0.0
O1125 O 0.92422 0.48676 0.55475 0.0
O1126 O 0.94723 0.49483 0.73516 0.0
C1127 C 0.93468 0.51682 0.26782 0.0
O1128 O 0.94226 0.50126 0.32243 0.0
C1129 C 0.95321 0.51949 0.04327 0.0
C1130 C 0.95715 0.55691 0.12131 0.0
C1131 C 0.94862 0.53056 0.15087 0.0
N1132 N 0.96256 0.53814 0.95069 0.0
N1133 N 0.96532 0.56058 0.99878 0.0
C1134 C 0.94418 0.49059 0.02138 0.0
H1135 H 0.95953 0.48881 0.96489 0.0
H1136 H 0.92522 0.48133 0.96624 0.0
H1137 H 0.94063 0.47945 0.11221 0.0
C1138 C 0.90551 0.55273 0.65997 0.0
N1139 N 0.91935 0.53972 0.64224 0.0
N1140 N 0.92413 0.53336 0.75462 0.0
C1141 C 0.90994 0.53764 0.84525 0.0
C1142 C 0.8992 0.55231 0.79221 0.0
C1143 C 0.90079 0.56678 0.5526 0.0
H1144 H 0.91495 0.57027 0.47293 0.0
H1145 H 0.88018 0.55409 0.51525 0.0
H1146 H 0.90377 0.58621 0.58633 0.0
O1147 O 0.96978 0.54689 0.47696 0.0
O1148 O 0.98984 0.55614 0.66344 0.0
H1149 H 0.90582 0.52448 0.04103 0.0
H1150 H 0.87476 0.51284 0.95992 0.0
C1151 C 0.89579 0.51731 0.94872 0.0
H1152 H 0.89558 0.49845 0.92575 0.0
H1153 H 0.97039 0.57766 0.94469 0.0
O1154 O 0.92207 0.52567 0.33374 0.0
C1155 C 0.99101 0.55833 0.54111 0.0
Co1156 Co 0.48068 0.40756 0.51422 0.0
Co1157 Co 0.46998 0.42342 0.78036 0.0
C1158 C 0.52258 0.45929 0.65463 0.0
O1159 O 0.51589 0.44289 0.56001 0.0
O1160 O 0.50658 0.45457 0.74879 0.0
C1161 C 0.48219 0.41617 0.26825 0.0
O1162 O 0.4961 0.44017 0.3181 0.0
C1163 C 0.47292 0.43091 0.05345 0.0
C1164 C 0.44289 0.3902 0.11398 0.0
C1165 C 0.46594 0.41297 0.15355 0.0
N1166 N 0.45688 0.41863 0.95386 0.0
N1167 N 0.43791 0.39474 0.99318 0.0
C1168 C 0.49735 0.45739 0.04439 0.0
H1169 H 0.4965 0.4683 0.95907 0.0
H1170 H 0.51487 0.45438 0.03937 0.0
H1171 H 0.49886 0.46908 0.13114 0.0
C1172 C 0.46417 0.35526 0.67153 0.0
N1173 N 0.47033 0.3809 0.64897 0.0
N1174 N 0.47339 0.39237 0.76034 0.0
C1175 C 0.47326 0.37624 0.85394 0.0
C1176 C 0.46532 0.35126 0.8045 0.0
C1177 C 0.45884 0.33539 0.5678 0.0
H1178 H 0.47681 0.34302 0.50558 0.0
H1179 H 0.454 0.31566 0.60778 0.0
H1180 H 0.4421 0.33327 0.50705 0.0
O1181 O 0.45327 0.41692 0.48029 0.0
O1182 O 0.44388 0.42838 0.66401 0.0
H1183 H 0.47995 0.37724 0.05633 0.0
H1184 H 0.50752 0.38217 0.9596 0.0
C1185 C 0.49117 0.38694 0.96805 0.0
H1186 H 0.50091 0.40896 0.97314 0.0
H1187 H 0.42377 0.38012 0.93258 0.0
O1188 O 0.47859 0.39604 0.33468 0.0
C1189 C 0.44058 0.42541 0.54297 0.0
Co1190 Co 0.60027 0.07836 0.50783 0.0
Co1191 Co 0.58697 0.04761 0.76025 0.0
C1192 C 0.55477 0.07267 0.64238 0.0
O1193 O 0.57029 0.08486 0.54907 0.0
O1194 O 0.55993 0.05866 0.7186 0.0
C1195 C 0.59302 0.07794 0.25322 0.0
O1196 O 0.56935 0.07186 0.29785 0.0
C1197 C 0.58771 0.06644 0.01523 0.0
C1198 C 0.59393 0.03939 0.14034 0.0
C1199 C 0.59331 0.06309 0.13974 0.0
N1200 N 0.58574 0.04609 0.94357 0.0
N1201 N 0.58964 0.03005 0.01915 0.0
C1202 C 0.58794 0.09066 0.96253 0.0
H1203 H 0.56774 0.08504 0.92727 0.0
H1204 H 0.6018 0.09861 0.87983 0.0
H1205 H 0.59406 0.10657 0.03594 0.0
C1206 C 0.64956 0.11502 0.68298 0.0
N1207 N 0.62764 0.09194 0.64359 0.0
N1208 N 0.62288 0.07371 0.72999 0.0
C1209 C 0.64232 0.08343 0.81934 0.0
C1210 C 0.65946 0.11045 0.79892 0.0
C1211 C 0.65854 0.14126 0.61871 0.0
H1212 H 0.64121 0.1411 0.57149 0.0
H1213 H 0.66765 0.1579 0.68878 0.0
H1214 H 0.67334 0.1444 0.54305 0.0
O1215 O 0.58321 0.03824 0.47433 0.0
O1216 O 0.57645 0.01499 0.6525 0.0
H1217 H 0.66871 0.07172 0.90539 0.0
H1218 H 0.64257 0.06888 0.00759 0.0
C1219 C 0.64723 0.06603 0.90828 0.0
H1220 H 0.63483 0.04467 0.88079 0.0
H1221 H 0.59164 0.01416 0.98628 0.0
O1222 O 0.613 0.08802 0.32944 0.0
C1223 C 0.57535 0.01594 0.53009 0.0
loop_
_geom_bond_atom_site_label_1
_geom_bond_atom_site_label_2
_geom_bond_distance
_geom_bond_site_symmetry_2
_ccdc_geom_bond_type
Co0 O3 1.970 . S
Co0 N17 1.989 . S
Co0 O25 1.967 . S
Co0 O32 1.920 . S
Co1 O4 1.966 . S
Co1 N10 2.022 . S
Co1 N18 1.993 . S
Co1 O26 1.941 . S
C2 O3 1.258 1_554 S
C2 O4 1.264 . S
O3 Co0 1.970 . S
O3 C2 1.258 1_556 S
O4 Co1 1.966 . S
O4 C2 1.264 . S
C5 O6 1.235 . S
C5 O32 1.289 . S
O6 C5 1.235 . S
C7 C9 1.400 . S
C7 N10 1.351 . S
C7 C12 1.501 . S
C8 C9 1.387 . S
C8 N11 1.341 . S
C9 C7 1.400 . S
C9 C8 1.387 . S
N10 Co1 2.022 . S
N10 C7 1.351 . S
N10 N11 1.365 . S
N11 C8 1.341 . S
N11 N10 1.365 . S
N11 H31 0.862 . S
C12 C7 1.501 . S
C12 H13 0.961 . S
C12 H14 0.961 . S
C12 H15 0.960 . S
H13 C12 0.961 . S
H14 C12 0.961 . S
H15 C12 0.960 . S
C16 N17 1.342 . S
C16 C20 1.401 1_556 S
C16 C21 1.499 . S
N17 Co0 1.989 . S
N17 C16 1.342 . S
N17 N18 1.388 1_556 S
N18 Co1 1.993 . S
N18 N17 1.388 1_554 S
N18 C19 1.346 . S
C19 N18 1.346 . S
C19 C20 1.396 . S
C19 C29 1.510 . S
C20 C16 1.401 1_554 S
C20 C19 1.396 . S
C21 C16 1.499 . S
C21 H22 0.959 . S
C21 H23 0.960 . S
C21 H24 0.961 . S
H22 C21 0.959 . S
H23 C21 0.960 . S
H24 C21 0.961 . S
O25 Co0 1.967 . S
O25 C33 1.258 . S
O26 Co1 1.941 . S
O26 C33 1.266 1_554 S
H27 C29 0.959 . S
H28 C29 0.961 . S
C29 C19 1.510 . S
C29 H27 0.959 . S
C29 H28 0.961 . S
C29 H30 0.960 . S
H30 C29 0.960 . S
H31 N11 0.862 . S
O32 Co0 1.920 . S
O32 C5 1.289 . S
C33 O25 1.258 . S
C33 O26 1.266 1_556 S
Co34 O37 1.970 . S
Co34 N51 1.989 . S
Co34 O59 1.967 . S
Co34 O66 1.920 . S
Co35 O38 1.966 . S
Co35 N44 2.022 . S
Co35 N52 1.993 . S
Co35 O60 1.941 . S
C36 O37 1.258 1_554 S
C36 O38 1.264 . S
O37 Co34 1.970 . S
O37 C36 1.258 1_556 S
O38 Co35 1.966 . S
O38 C36 1.264 . S
C39 O40 1.235 . S
C39 O66 1.289 . S
O40 C39 1.235 . S
C41 C43 1.400 . S
C41 N44 1.351 . S
C41 C46 1.501 . S
C42 C43 1.387 . S
C42 N45 1.341 . S
C43 C41 1.400 . S
C43 C42 1.387 . S
N44 Co35 2.022 . S
N44 C41 1.351 . S
N44 N45 1.365 . S
N45 C42 1.341 . S
N45 N44 1.365 . S
N45 H65 0.862 . S
C46 C41 1.501 . S
C46 H47 0.961 . S
C46 H48 0.961 . S
C46 H49 0.960 . S
H47 C46 0.961 . S
H48 C46 0.961 . S
H49 C46 0.960 . S
C50 N51 1.342 . S
C50 C54 1.401 1_556 S
C50 C55 1.499 . S
N51 Co34 1.989 . S
N51 C50 1.342 . S
N51 N52 1.388 1_556 S
N52 Co35 1.993 . S
N52 N51 1.388 1_554 S
N52 C53 1.346 . S
C53 N52 1.346 . S
C53 C54 1.396 . S
C53 C63 1.510 . S
C54 C50 1.401 1_554 S
C54 C53 1.396 . S
C55 C50 1.499 . S
C55 H56 0.959 . S
C55 H57 0.960 . S
C55 H58 0.961 . S
H56 C55 0.959 . S
H57 C55 0.960 . S
H58 C55 0.961 . S
O59 Co34 1.967 . S
O59 C67 1.258 . S
O60 Co35 1.941 . S
O60 C67 1.266 1_554 S
H61 C63 0.959 . S
H62 C63 0.961 . S
C63 C53 1.510 . S
C63 H61 0.959 . S
C63 H62 0.961 . S
C63 H64 0.960 . S
H64 C63 0.960 . S
H65 N45 0.862 . S
O66 Co34 1.920 . S
O66 C39 1.289 . S
C67 O59 1.258 . S
C67 O60 1.266 1_556 S
Co68 O71 1.970 . S
Co68 N85 1.989 . S
Co68 O93 1.967 . S
Co68 O100 1.920 . S
Co69 O72 1.966 . S
Co69 N78 2.022 . S
Co69 N86 1.993 . S
Co69 O94 1.941 . S
C70 O71 1.257 1_554 S
C70 O72 1.264 . S
O71 Co68 1.970 . S
O71 C70 1.257 1_556 S
O72 Co69 1.966 . S
O72 C70 1.264 . S
C73 O74 1.235 . S
C73 O100 1.289 . S
O74 C73 1.235 . S
C75 C77 1.400 . S
C75 N78 1.351 . S
C75 C80 1.501 . S
C76 C77 1.387 . S
C76 N79 1.341 . S
C77 C75 1.400 . S
C77 C76 1.387 . S
N78 Co69 2.022 . S
N78 C75 1.351 . S
N78 N79 1.365 . S
N79 C76 1.341 . S
N79 N78 1.365 . S
N79 H99 0.862 . S
C80 C75 1.501 . S
C80 H81 0.961 . S
C80 H82 0.961 . S
C80 H83 0.960 . S
H81 C80 0.961 . S
H82 C80 0.961 . S
H83 C80 0.960 . S
C84 N85 1.342 . S
C84 C88 1.401 1_556 S
C84 C89 1.499 . S
N85 Co68 1.989 . S
N85 C84 1.342 . S
N85 N86 1.388 1_556 S
N86 Co69 1.993 . S
N86 N85 1.388 1_554 S
N86 C87 1.346 . S
C87 N86 1.346 . S
C87 C88 1.396 . S
C87 C97 1.510 . S
C88 C84 1.401 1_554 S
C88 C87 1.396 . S
C89 C84 1.499 . S
C89 H90 0.959 . S
C89 H91 0.960 . S
C89 H92 0.961 . S
H90 C89 0.959 . S
H91 C89 0.960 . S
H92 C89 0.961 . S
O93 Co68 1.967 . S
O93 C101 1.258 . S
O94 Co69 1.941 . S
O94 C101 1.266 1_554 S
H95 C97 0.959 . S
H96 C97 0.961 . S
C97 C87 1.510 . S
C97 H95 0.959 . S
C97 H96 0.961 . S
C97 H98 0.960 . S
H98 C97 0.960 . S
H99 N79 0.862 . S
O100 Co68 1.920 . S
O100 C73 1.289 . S
C101 O93 1.258 . S
C101 O94 1.266 1_556 S
Co102 O105 1.970 . S
Co102 N119 1.989 . S
Co102 O127 1.967 . S
Co102 O134 1.920 . S
Co103 O106 1.966 . S
Co103 N112 2.022 . S
Co103 N120 1.993 . S
Co103 O128 1.941 . S
C104 O105 1.258 1_556 S
C104 O106 1.264 . S
O105 Co102 1.970 . S
O105 C104 1.258 1_554 S
O106 Co103 1.966 . S
O106 C104 1.264 . S
C107 O108 1.235 . S
C107 O134 1.289 . S
O108 C107 1.235 . S
C109 C111 1.400 . S
C109 N112 1.351 . S
C109 C114 1.501 . S
C110 C111 1.387 . S
C110 N113 1.341 . S
C111 C109 1.400 . S
C111 C110 1.387 . S
N112 Co103 2.022 . S
N112 C109 1.351 . S
N112 N113 1.365 . S
N113 C110 1.341 . S
N113 N112 1.365 . S
N113 H133 0.862 . S
C114 C109 1.501 . S
C114 H115 0.961 . S
C114 H116 0.961 . S
C114 H117 0.960 . S
H115 C114 0.961 . S
H116 C114 0.961 . S
H117 C114 0.960 . S
C118 N119 1.342 . S
C118 C122 1.401 1_554 S
C118 C123 1.499 . S
N119 Co102 1.989 . S
N119 C118 1.342 . S
N119 N120 1.388 1_554 S
N120 Co103 1.993 . S
N120 N119 1.388 1_556 S
N120 C121 1.346 . S
C121 N120 1.346 . S
C121 C122 1.396 . S
C121 C131 1.510 . S
C122 C118 1.401 1_556 S
C122 C121 1.396 . S
C123 C118 1.499 . S
C123 H124 0.959 . S
C123 H125 0.960 . S
C123 H126 0.961 . S
H124 C123 0.959 . S
H125 C123 0.960 . S
H126 C123 0.961 . S
O127 Co102 1.967 . S
O127 C135 1.258 . S
O128 Co103 1.941 . S
O128 C135 1.266 1_556 S
H129 C131 0.959 . S
H130 C131 0.961 . S
C131 C121 1.510 . S
C131 H129 0.959 . S
C131 H130 0.961 . S
C131 H132 0.960 . S
H132 C131 0.960 . S
H133 N113 0.862 . S
O134 Co102 1.920 . S
O134 C107 1.289 . S
C135 O127 1.258 . S
C135 O128 1.266 1_554 S
Co136 O139 1.970 . S
Co136 N153 1.989 . S
Co136 O161 1.967 . S
Co136 O168 1.920 . S
Co137 O140 1.966 . S
Co137 N146 2.022 . S
Co137 N154 1.993 . S
Co137 O162 1.941 . S
C138 O139 1.257 1_556 S
C138 O140 1.264 . S
O139 Co136 1.970 . S
O139 C138 1.257 1_554 S
O140 Co137 1.966 . S
O140 C138 1.264 . S
C141 O142 1.235 . S
C141 O168 1.289 . S
O142 C141 1.235 . S
C143 C145 1.400 . S
C143 N146 1.351 . S
C143 C148 1.501 . S
C144 C145 1.387 . S
C144 N147 1.341 . S
C145 C143 1.400 . S
C145 C144 1.387 . S
N146 Co137 2.022 . S
N146 C143 1.351 . S
N146 N147 1.365 . S
N147 C144 1.341 . S
N147 N146 1.365 . S
N147 H167 0.862 . S
C148 C143 1.501 . S
C148 H149 0.961 . S
C148 H150 0.961 . S
C148 H151 0.960 . S
H149 C148 0.961 . S
H150 C148 0.961 . S
H151 C148 0.960 . S
C152 N153 1.342 . S
C152 C156 1.401 1_554 S
C152 C157 1.499 . S
N153 Co136 1.989 . S
N153 C152 1.342 . S
N153 N154 1.388 1_554 S
N154 Co137 1.993 . S
N154 N153 1.388 1_556 S
N154 C155 1.346 . S
C155 N154 1.346 . S
C155 C156 1.396 . S
C155 C165 1.510 . S
C156 C152 1.401 1_556 S
C156 C155 1.396 . S
C157 C152 1.499 . S
C157 H158 0.959 . S
C157 H159 0.960 . S
C157 H160 0.961 . S
H158 C157 0.959 . S
H159 C157 0.960 . S
H160 C157 0.961 . S
O161 Co136 1.967 . S
O161 C169 1.258 . S
O162 Co137 1.941 . S
O162 C169 1.266 1_556 S
H163 C165 0.959 . S
H164 C165 0.961 . S
C165 C155 1.510 . S
C165 H163 0.959 . S
C165 H164 0.961 . S
C165 H166 0.960 . S
H166 C165 0.960 . S
H167 N147 0.862 . S
O168 Co136 1.920 . S
O168 C141 1.289 . S
C169 O161 1.258 . S
C169 O162 1.266 1_554 S
Co170 O173 1.970 . S
Co170 N187 1.989 . S
Co170 O195 1.967 . S
Co170 O202 1.920 . S
Co171 O174 1.966 . S
Co171 N180 2.022 . S
Co171 N188 1.993 . S
Co171 O196 1.941 . S
C172 O173 1.258 1_556 S
C172 O174 1.264 . S
O173 Co170 1.970 . S
O173 C172 1.258 1_554 S
O174 Co171 1.966 . S
O174 C172 1.264 . S
C175 O176 1.235 . S
C175 O202 1.289 . S
O176 C175 1.235 . S
C177 C179 1.400 . S
C177 N180 1.351 . S
C177 C182 1.501 . S
C178 C179 1.387 . S
C178 N181 1.341 . S
C179 C177 1.400 . S
C179 C178 1.387 . S
N180 Co171 2.022 . S
N180 C177 1.351 . S
N180 N181 1.365 . S
N181 C178 1.341 . S
N181 N180 1.365 . S
N181 H201 0.862 . S
C182 C177 1.501 . S
C182 H183 0.961 . S
C182 H184 0.961 . S
C182 H185 0.960 . S
H183 C182 0.961 . S
H184 C182 0.961 . S
H185 C182 0.960 . S
C186 N187 1.342 . S
C186 C190 1.401 1_554 S
C186 C191 1.499 . S
N187 Co170 1.989 . S
N187 C186 1.342 . S
N187 N188 1.388 1_554 S
N188 Co171 1.993 . S
N188 N187 1.388 1_556 S
N188 C189 1.346 . S
C189 N188 1.346 . S
C189 C190 1.396 . S
C189 C199 1.510 . S
C190 C186 1.401 1_556 S
C190 C189 1.396 . S
C191 C186 1.499 . S
C191 H192 0.959 . S
C191 H193 0.960 . S
C191 H194 0.961 . S
H192 C191 0.959 . S
H193 C191 0.960 . S
H194 C191 0.961 . S
O195 Co170 1.967 . S
O195 C203 1.258 . S
O196 Co171 1.941 . S
O196 C203 1.266 1_556 S
H197 C199 0.959 . S
H198 C199 0.961 . S
C199 C189 1.510 . S
C199 H197 0.959 . S
C199 H198 0.961 . S
C199 H200 0.960 . S
H200 C199 0.960 . S
H201 N181 0.862 . S
O202 Co170 1.920 . S
O202 C175 1.289 . S
C203 O195 1.258 . S
C203 O196 1.266 1_554 S
Co204 O207 1.970 . S
Co204 N221 1.989 . S
Co204 O229 1.967 . S
Co204 O236 1.920 . S
Co205 O208 1.966 . S
Co205 N214 2.022 . S
Co205 N222 1.993 . S
Co205 O230 1.941 . S
C206 O207 1.258 1_556 S
C206 O208 1.264 . S
O207 Co204 1.970 . S
O207 C206 1.258 1_554 S
O208 Co205 1.966 . S
O208 C206 1.264 . S
C209 O210 1.235 . S
C209 O236 1.289 . S
O210 C209 1.235 . S
C211 C213 1.400 . S
C211 N214 1.351 . S
C211 C216 1.501 . S
C212 C213 1.387 . S
C212 N215 1.341 . S
C213 C211 1.400 . S
C213 C212 1.387 . S
N214 Co205 2.022 . S
N214 C211 1.351 . S
N214 N215 1.365 . S
N215 C212 1.341 . S
N215 N214 1.365 . S
N215 H235 0.862 . S
C216 C211 1.501 . S
C216 H217 0.961 . S
C216 H218 0.961 . S
C216 H219 0.960 . S
H217 C216 0.961 . S
H218 C216 0.961 . S
H219 C216 0.960 . S
C220 N221 1.342 . S
C220 C224 1.401 1_554 S
C220 C225 1.499 . S
N221 Co204 1.989 . S
N221 C220 1.342 . S
N221 N222 1.388 1_554 S
N222 Co205 1.993 . S
N222 N221 1.388 1_556 S
N222 C223 1.346 . S
C223 N222 1.346 . S
C223 C224 1.396 . S
C223 C233 1.510 . S
C224 C220 1.401 1_556 S
C224 C223 1.396 . S
C225 C220 1.499 . S
C225 H226 0.959 . S
C225 H227 0.960 . S
C225 H228 0.961 . S
H226 C225 0.959 . S
H227 C225 0.960 . S
H228 C225 0.961 . S
O229 Co204 1.967 . S
O229 C237 1.258 . S
O230 Co205 1.941 . S
O230 C237 1.266 1_556 S
H231 C233 0.959 . S
H232 C233 0.961 . S
C233 C223 1.510 . S
C233 H231 0.959 . S
C233 H232 0.961 . S
C233 H234 0.960 . S
H234 C233 0.960 . S
H235 N215 0.862 . S
O236 Co204 1.920 . S
O236 C209 1.289 . S
C237 O229 1.258 . S
C237 O230 1.266 1_554 S
Co238 O241 1.970 . S
Co238 N255 1.989 . S
Co238 O263 1.967 . S
Co238 O270 1.920 . S
Co239 O242 1.966 . S
Co239 N248 2.022 . S
Co239 N256 1.993 . S
Co239 O264 1.941 . S
C240 O241 1.258 1_556 S
C240 O242 1.264 . S
O241 Co238 1.970 . S
O241 C240 1.258 1_554 S
O242 Co239 1.966 . S
O242 C240 1.264 . S
C243 O244 1.235 . S
C243 O270 1.289 . S
O244 C243 1.235 . S
C245 C247 1.400 . S
C245 N248 1.351 . S
C245 C250 1.501 . S
C246 C247 1.387 . S
C246 N249 1.341 . S
C247 C245 1.400 . S
C247 C246 1.387 . S
N248 Co239 2.022 . S
N248 C245 1.351 . S
N248 N249 1.365 . S
N249 C246 1.341 . S
N249 N248 1.365 . S
N249 H269 0.862 . S
C250 C245 1.501 . S
C250 H251 0.961 . S
C250 H252 0.961 . S
C250 H253 0.960 . S
H251 C250 0.961 . S
H252 C250 0.961 . S
H253 C250 0.960 . S
C254 N255 1.342 . S
C254 C258 1.401 1_554 S
C254 C259 1.499 . S
N255 Co238 1.989 . S
N255 C254 1.342 . S
N255 N256 1.388 1_554 S
N256 Co239 1.993 . S
N256 N255 1.388 1_556 S
N256 C257 1.346 . S
C257 N256 1.346 . S
C257 C258 1.396 . S
C257 C267 1.510 . S
C258 C254 1.401 1_556 S
C258 C257 1.396 . S
C259 C254 1.499 . S
C259 H260 0.959 . S
C259 H261 0.960 . S
C259 H262 0.961 . S
H260 C259 0.959 . S
H261 C259 0.960 . S
H262 C259 0.961 . S
O263 Co238 1.967 . S
O263 C271 1.258 . S
O264 Co239 1.941 . S
O264 C271 1.266 1_556 S
H265 C267 0.959 . S
H266 C267 0.961 . S
C267 C257 1.510 . S
C267 H265 0.959 . S
C267 H266 0.961 . S
C267 H268 0.960 . S
H268 C267 0.960 . S
H269 N249 0.862 . S
O270 Co238 1.920 . S
O270 C243 1.289 . S
C271 O263 1.258 . S
C271 O264 1.266 1_554 S
Co272 O275 1.970 . S
Co272 N289 1.989 . S
Co272 O297 1.967 . S
Co272 O304 1.920 . S
Co273 O276 1.966 . S
Co273 N282 2.022 . S
Co273 N290 1.993 . S
Co273 O298 1.941 . S
C274 O275 1.257 1_556 S
C274 O276 1.264 . S
O275 Co272 1.970 . S
O275 C274 1.257 1_554 S
O276 Co273 1.966 . S
O276 C274 1.264 . S
C277 O278 1.235 . S
C277 O304 1.289 . S
O278 C277 1.235 . S
C279 C281 1.400 . S
C279 N282 1.351 . S
C279 C284 1.501 . S
C280 C281 1.387 . S
C280 N283 1.341 . S
C281 C279 1.400 . S
C281 C280 1.387 . S
N282 Co273 2.022 . S
N282 C279 1.351 . S
N282 N283 1.365 . S
N283 C280 1.341 . S
N283 N282 1.365 . S
N283 H303 0.862 . S
C284 C279 1.501 . S
C284 H285 0.961 . S
C284 H286 0.961 . S
C284 H287 0.960 . S
H285 C284 0.961 . S
H286 C284 0.961 . S
H287 C284 0.960 . S
C288 N289 1.342 . S
C288 C292 1.401 1_554 S
C288 C293 1.499 . S
N289 Co272 1.989 . S
N289 C288 1.342 . S
N289 N290 1.388 1_554 S
N290 Co273 1.993 . S
N290 N289 1.388 1_556 S
N290 C291 1.346 . S
C291 N290 1.346 . S
C291 C292 1.396 . S
C291 C301 1.510 . S
C292 C288 1.401 1_556 S
C292 C291 1.396 . S
C293 C288 1.499 . S
C293 H294 0.959 . S
C293 H295 0.960 . S
C293 H296 0.961 . S
H294 C293 0.959 . S
H295 C293 0.960 . S
H296 C293 0.961 . S
O297 Co272 1.967 . S
O297 C305 1.258 . S
O298 Co273 1.941 . S
O298 C305 1.266 1_556 S
H299 C301 0.959 . S
H300 C301 0.961 . S
C301 C291 1.510 . S
C301 H299 0.959 . S
C301 H300 0.961 . S
C301 H302 0.960 . S
H302 C301 0.960 . S
H303 N283 0.862 . S
O304 Co272 1.920 . S
O304 C277 1.289 . S
C305 O297 1.258 . S
C305 O298 1.266 1_554 S
Co306 O309 1.970 . S
Co306 N323 1.989 . S
Co306 O331 1.967 . S
Co306 O338 1.920 . S
Co307 O310 1.966 . S
Co307 N316 2.022 . S
Co307 N324 1.993 . S
Co307 O332 1.941 . S
C308 O309 1.258 1_554 S
C308 O310 1.264 . S
O309 Co306 1.970 . S
O309 C308 1.258 1_556 S
O310 Co307 1.966 . S
O310 C308 1.264 . S
C311 O312 1.235 . S
C311 O338 1.289 . S
O312 C311 1.235 . S
C313 C315 1.400 . S
C313 N316 1.351 . S
C313 C318 1.501 . S
C314 C315 1.387 . S
C314 N317 1.341 . S
C315 C313 1.400 . S
C315 C314 1.387 . S
N316 Co307 2.022 . S
N316 C313 1.351 . S
N316 N317 1.365 . S
N317 C314 1.341 . S
N317 N316 1.365 . S
N317 H337 0.862 . S
C318 C313 1.501 . S
C318 H319 0.961 . S
C318 H320 0.961 . S
C318 H321 0.960 . S
H319 C318 0.961 . S
H320 C318 0.961 . S
H321 C318 0.960 . S
C322 N323 1.342 . S
C322 C326 1.401 1_556 S
C322 C327 1.499 . S
N323 Co306 1.989 . S
N323 C322 1.342 . S
N323 N324 1.388 1_556 S
N324 Co307 1.993 . S
N324 N323 1.388 1_554 S
N324 C325 1.346 . S
C325 N324 1.346 . S
C325 C326 1.396 . S
C325 C335 1.510 . S
C326 C322 1.401 1_554 S
C326 C325 1.396 . S
C327 C322 1.499 . S
C327 H328 0.959 . S
C327 H329 0.960 . S
C327 H330 0.961 . S
H328 C327 0.959 . S
H329 C327 0.960 . S
H330 C327 0.961 . S
O331 Co306 1.967 . S
O331 C339 1.258 . S
O332 Co307 1.941 . S
O332 C339 1.266 1_554 S
H333 C335 0.959 . S
H334 C335 0.961 . S
C335 C325 1.510 . S
C335 H333 0.959 . S
C335 H334 0.961 . S
C335 H336 0.960 . S
H336 C335 0.960 . S
H337 N317 0.862 . S
O338 Co306 1.920 . S
O338 C311 1.289 . S
C339 O331 1.258 . S
C339 O332 1.266 1_556 S
Co340 O343 1.970 . S
Co340 N357 1.989 . S
Co340 O365 1.967 . S
Co340 O372 1.920 . S
Co341 O344 1.966 . S
Co341 N350 2.022 . S
Co341 N358 1.993 . S
Co341 O366 1.941 . S
C342 O343 1.257 1_554 S
C342 O344 1.264 . S
O343 Co340 1.970 . S
O343 C342 1.257 1_556 S
O344 Co341 1.966 . S
O344 C342 1.264 . S
C345 O346 1.235 . S
C345 O372 1.289 . S
O346 C345 1.235 . S
C347 C349 1.400 . S
C347 N350 1.351 . S
C347 C352 1.501 . S
C348 C349 1.387 . S
C348 N351 1.341 . S
C349 C347 1.400 . S
C349 C348 1.387 . S
N350 Co341 2.022 . S
N350 C347 1.351 . S
N350 N351 1.365 . S
N351 C348 1.341 . S
N351 N350 1.365 . S
N351 H371 0.862 . S
C352 C347 1.501 . S
C352 H353 0.961 . S
C352 H354 0.961 . S
C352 H355 0.960 . S
H353 C352 0.961 . S
H354 C352 0.961 . S
H355 C352 0.960 . S
C356 N357 1.342 . S
C356 C360 1.401 1_556 S
C356 C361 1.499 . S
N357 Co340 1.989 . S
N357 C356 1.342 . S
N357 N358 1.388 1_556 S
N358 Co341 1.993 . S
N358 N357 1.388 1_554 S
N358 C359 1.346 . S
C359 N358 1.346 . S
C359 C360 1.396 . S
C359 C369 1.510 . S
C360 C356 1.401 1_554 S
C360 C359 1.396 . S
C361 C356 1.499 . S
C361 H362 0.959 . S
C361 H363 0.960 . S
C361 H364 0.961 . S
H362 C361 0.959 . S
H363 C361 0.960 . S
H364 C361 0.961 . S
O365 Co340 1.967 . S
O365 C373 1.258 . S
O366 Co341 1.941 . S
O366 C373 1.266 1_554 S
H367 C369 0.959 . S
H368 C369 0.961 . S
C369 C359 1.510 . S
C369 H367 0.959 . S
C369 H368 0.961 . S
C369 H370 0.960 . S
H370 C369 0.960 . S
H371 N351 0.862 . S
O372 Co340 1.920 . S
O372 C345 1.289 . S
C373 O365 1.258 . S
C373 O366 1.266 1_556 S
Co374 O377 1.970 . S
Co374 N391 1.989 . S
Co374 O399 1.967 . S
Co374 O406 1.920 . S
Co375 O378 1.966 . S
Co375 N384 2.022 . S
Co375 N392 1.993 . S
Co375 O400 1.941 . S
C376 O377 1.258 1_554 S
C376 O378 1.264 . S
O377 Co374 1.970 . S
O377 C376 1.258 1_556 S
O378 Co375 1.966 . S
O378 C376 1.264 . S
C379 O380 1.235 . S
C379 O406 1.289 . S
O380 C379 1.235 . S
C381 C383 1.400 . S
C381 N384 1.351 . S
C381 C386 1.501 . S
C382 C383 1.387 . S
C382 N385 1.341 . S
C383 C381 1.400 . S
C383 C382 1.387 . S
N384 Co375 2.022 . S
N384 C381 1.351 . S
N384 N385 1.365 . S
N385 C382 1.341 . S
N385 N384 1.365 . S
N385 H405 0.862 . S
C386 C381 1.501 . S
C386 H387 0.961 . S
C386 H388 0.961 . S
C386 H389 0.960 . S
H387 C386 0.961 . S
H388 C386 0.961 . S
H389 C386 0.960 . S
C390 N391 1.342 . S
C390 C394 1.401 1_556 S
C390 C395 1.499 . S
N391 Co374 1.989 . S
N391 C390 1.342 . S
N391 N392 1.388 1_556 S
N392 Co375 1.993 . S
N392 N391 1.388 1_554 S
N392 C393 1.346 . S
C393 N392 1.346 . S
C393 C394 1.396 . S
C393 C403 1.510 . S
C394 C390 1.401 1_554 S
C394 C393 1.396 . S
C395 C390 1.499 . S
C395 H396 0.959 . S
C395 H397 0.960 . S
C395 H398 0.961 . S
H396 C395 0.959 . S
H397 C395 0.960 . S
H398 C395 0.961 . S
O399 Co374 1.967 . S
O399 C407 1.258 . S
O400 Co375 1.941 . S
O400 C407 1.266 1_554 S
H401 C403 0.959 . S
H402 C403 0.961 . S
C403 C393 1.510 . S
C403 H401 0.959 . S
C403 H402 0.961 . S
C403 H404 0.960 . S
H404 C403 0.960 . S
H405 N385 0.862 . S
O406 Co374 1.920 . S
O406 C379 1.289 . S
C407 O399 1.258 . S
C407 O400 1.266 1_556 S
Co408 O411 1.970 . S
Co408 N425 1.989 . S
Co408 O433 1.967 . S
Co408 O440 1.920 . S
Co409 O412 1.966 . S
Co409 N418 2.022 . S
Co409 N426 1.993 . S
Co409 O434 1.941 . S
C410 O411 1.258 . S
C410 O412 1.263 . S
O411 Co408 1.970 . S
O411 C410 1.258 . S
O412 Co409 1.966 . S
O412 C410 1.263 . S
C413 O414 1.235 1_556 S
C413 O440 1.289 1_556 S
O414 C413 1.235 1_554 S
C415 C417 1.400 . S
C415 N418 1.351 . S
C415 C420 1.501 . S
C416 C417 1.387 . S
C416 N419 1.341 . S
C417 C415 1.400 . S
C417 C416 1.387 . S
N418 Co409 2.022 . S
N418 C415 1.351 . S
N418 N419 1.365 . S
N419 C416 1.341 . S
N419 N418 1.365 . S
N419 H439 0.862 . S
C420 C415 1.501 . S
C420 H421 0.961 . S
C420 H422 0.961 . S
C420 H423 0.960 . S
H421 C420 0.961 . S
H422 C420 0.961 . S
H423 C420 0.960 . S
C424 N425 1.342 . S
C424 C428 1.401 . S
C424 C429 1.499 . S
N425 Co408 1.989 . S
N425 C424 1.342 . S
N425 N426 1.388 . S
N426 Co409 1.993 . S
N426 N425 1.388 . S
N426 C427 1.346 . S
C427 N426 1.346 . S
C427 C428 1.396 . S
C427 C437 1.510 . S
C428 C424 1.401 . S
C428 C427 1.396 . S
C429 C424 1.499 . S
C429 H430 0.959 . S
C429 H431 0.960 . S
C429 H432 0.961 . S
H430 C429 0.959 . S
H431 C429 0.960 . S
H432 C429 0.961 . S
O433 Co408 1.967 . S
O433 C441 1.258 . S
O434 Co409 1.941 . S
O434 C441 1.266 . S
H435 C437 0.959 . S
H436 C437 0.961 . S
C437 C427 1.510 . S
C437 H435 0.959 . S
C437 H436 0.961 . S
C437 H438 0.960 . S
H438 C437 0.960 . S
H439 N419 0.862 . S
O440 Co408 1.920 . S
O440 C413 1.289 1_554 S
C441 O433 1.258 . S
C441 O434 1.266 . S
Co442 O445 1.970 . S
Co442 N459 1.989 . S
Co442 O467 1.967 . S
Co442 O474 1.920 . S
Co443 O446 1.966 . S
Co443 N452 2.022 . S
Co443 N460 1.993 . S
Co443 O468 1.941 . S
C444 O445 1.258 . S
C444 O446 1.263 . S
O445 Co442 1.970 . S
O445 C444 1.258 . S
O446 Co443 1.966 . S
O446 C444 1.263 . S
C447 O448 1.235 1_556 S
C447 O474 1.289 1_556 S
O448 C447 1.235 1_554 S
C449 C451 1.400 . S
C449 N452 1.351 . S
C449 C454 1.501 . S
C450 C451 1.387 . S
C450 N453 1.341 . S
C451 C449 1.400 . S
C451 C450 1.387 . S
N452 Co443 2.022 . S
N452 C449 1.351 . S
N452 N453 1.365 . S
N453 C450 1.341 . S
N453 N452 1.365 . S
N453 H473 0.862 . S
C454 C449 1.501 . S
C454 H455 0.961 . S
C454 H456 0.961 . S
C454 H457 0.960 . S
H455 C454 0.961 . S
H456 C454 0.961 . S
H457 C454 0.960 . S
C458 N459 1.342 . S
C458 C462 1.401 . S
C458 C463 1.499 . S
N459 Co442 1.989 . S
N459 C458 1.342 . S
N459 N460 1.388 . S
N460 Co443 1.993 . S
N460 N459 1.388 . S
N460 C461 1.346 . S
C461 N460 1.346 . S
C461 C462 1.396 . S
C461 C471 1.510 . S
C462 C458 1.401 . S
C462 C461 1.396 . S
C463 C458 1.499 . S
C463 H464 0.959 . S
C463 H465 0.961 . S
C463 H466 0.930 1_545 S
H464 C463 0.959 . S
H465 C463 0.961 . S
H466 C463 0.930 1_565 S
O467 Co442 1.967 . S
O467 C475 1.258 . S
O468 Co443 1.941 . S
O468 C475 1.266 . S
H469 C471 0.959 . S
H470 C471 0.961 . S
C471 C461 1.510 . S
C471 H469 0.959 . S
C471 H470 0.961 . S
C471 H472 0.960 . S
H472 C471 0.960 . S
H473 N453 0.862 . S
O474 Co442 1.920 . S
O474 C447 1.289 1_554 S
C475 O467 1.258 . S
C475 O468 1.266 . S
Co476 O479 1.970 . S
Co476 N493 1.989 . S
Co476 O501 1.967 . S
Co476 O508 1.920 . S
Co477 O480 1.966 . S
Co477 N486 2.022 . S
Co477 N494 1.993 . S
Co477 O502 1.941 . S
C478 O479 1.258 . S
C478 O480 1.263 . S
O479 Co476 1.970 . S
O479 C478 1.258 . S
O480 Co477 1.966 . S
O480 C478 1.263 . S
C481 O482 1.235 1_556 S
C481 O508 1.289 1_556 S
O482 C481 1.235 1_554 S
C483 C485 1.400 . S
C483 N486 1.351 . S
C483 C488 1.501 . S
C484 C485 1.387 . S
C484 N487 1.341 . S
C485 C483 1.400 . S
C485 C484 1.387 . S
N486 Co477 2.022 . S
N486 C483 1.351 . S
N486 N487 1.365 . S
N487 C484 1.341 . S
N487 N486 1.365 . S
N487 H507 0.862 . S
C488 C483 1.501 . S
C488 H489 0.961 . S
C488 H490 0.961 . S
C488 H491 0.960 . S
H489 C488 0.961 . S
H490 C488 0.961 . S
H491 C488 0.960 . S
C492 N493 1.342 . S
C492 C496 1.401 . S
C492 C497 1.499 . S
N493 Co476 1.989 . S
N493 C492 1.342 . S
N493 N494 1.388 . S
N494 Co477 1.993 . S
N494 N493 1.388 . S
N494 C495 1.346 . S
C495 N494 1.346 . S
C495 C496 1.396 . S
C495 C505 1.510 . S
C496 C492 1.401 . S
C496 C495 1.396 . S
C497 C492 1.499 . S
C497 H498 0.959 . S
C497 H499 0.980 . S
C497 H500 0.957 1_655 S
H498 C497 0.959 . S
H499 C497 0.980 . S
H500 C497 0.957 1_455 S
O501 Co476 1.967 . S
O501 C509 1.258 . S
O502 Co477 1.941 . S
O502 C509 1.266 . S
H503 C505 0.959 . S
H504 C505 0.961 . S
C505 C495 1.510 . S
C505 H503 0.959 . S
C505 H504 0.961 . S
C505 H506 0.960 . S
H506 C505 0.960 . S
H507 N487 0.862 . S
O508 Co476 1.920 . S
O508 C481 1.289 1_554 S
C509 O501 1.258 . S
C509 O502 1.266 . S
Co510 O513 1.970 . S
Co510 N527 1.989 . S
Co510 O535 1.967 . S
Co510 O542 1.920 . S
Co511 O514 1.966 . S
Co511 N520 2.022 . S
Co511 N528 1.993 . S
Co511 O536 1.941 . S
C512 O513 1.258 . S
C512 O514 1.263 . S
O513 Co510 1.970 . S
O513 C512 1.258 . S
O514 Co511 1.966 . S
O514 C512 1.263 . S
C515 O516 1.235 . S
C515 O542 1.289 . S
O516 C515 1.235 . S
C517 C519 1.400 . S
C517 N520 1.351 1_556 S
C517 C522 1.501 . S
C518 C519 1.387 . S
C518 N521 1.341 . S
C519 C517 1.400 . S
C519 C518 1.387 . S
N520 Co511 2.022 . S
N520 C517 1.351 1_554 S
N520 N521 1.365 1_554 S
N521 C518 1.341 . S
N521 N520 1.365 1_556 S
N521 H541 0.862 . S
C522 C517 1.501 . S
C522 H523 0.961 1_556 S
C522 H524 0.961 . S
C522 H525 0.960 . S
H523 C522 0.961 1_554 S
H524 C522 0.961 . S
H525 C522 0.960 . S
C526 N527 1.342 . S
C526 C530 1.401 . S
C526 C531 1.499 . S
N527 Co510 1.989 . S
N527 C526 1.342 . S
N527 N528 1.388 . S
N528 Co511 1.993 . S
N528 N527 1.388 . S
N528 C529 1.346 . S
C529 N528 1.346 . S
C529 C530 1.396 . S
C529 C539 1.510 . S
C530 C526 1.401 . S
C530 C529 1.396 . S
C531 C526 1.499 . S
C531 H532 0.959 . S
C531 H533 0.960 . S
C531 H534 0.961 . S
H532 C531 0.959 . S
H533 C531 0.960 . S
H534 C531 0.961 . S
O535 Co510 1.967 . S
O535 C543 1.258 . S
O536 Co511 1.941 . S
O536 C543 1.266 . S
H537 C539 0.959 . S
H538 C539 0.961 . S
C539 C529 1.510 . S
C539 H537 0.959 . S
C539 H538 0.961 . S
C539 H540 0.960 . S
H540 C539 0.960 . S
H541 N521 0.862 . S
O542 Co510 1.920 . S
O542 C515 1.289 . S
C543 O535 1.258 . S
C543 O536 1.266 . S
Co544 O547 1.970 . S
Co544 N561 1.989 . S
Co544 O569 1.967 . S
Co544 O576 1.920 . S
Co545 O548 1.966 . S
Co545 N554 2.022 . S
Co545 N562 1.993 . S
Co545 O570 1.941 . S
C546 O547 1.258 . S
C546 O548 1.263 . S
O547 Co544 1.970 . S
O547 C546 1.258 . S
O548 Co545 1.966 . S
O548 C546 1.263 . S
C549 O550 1.235 . S
C549 O576 1.289 . S
O550 C549 1.235 . S
C551 C553 1.400 . S
C551 N554 1.351 1_556 S
C551 C556 1.501 . S
C552 C553 1.387 . S
C552 N555 1.341 . S
C553 C551 1.400 . S
C553 C552 1.387 . S
N554 Co545 2.022 . S
N554 C551 1.351 1_554 S
N554 N555 1.365 1_554 S
N555 C552 1.341 . S
N555 N554 1.365 1_556 S
N555 H575 0.862 . S
C556 C551 1.501 . S
C556 H557 0.961 1_556 S
C556 H558 0.961 . S
C556 H559 0.960 . S
H557 C556 0.961 1_554 S
H558 C556 0.961 . S
H559 C556 0.960 . S
C560 N561 1.342 . S
C560 C564 1.401 . S
C560 C565 1.499 . S
N561 Co544 1.989 . S
N561 C560 1.342 . S
N561 N562 1.388 . S
N562 Co545 1.993 . S
N562 N561 1.388 . S
N562 C563 1.346 . S
C563 N562 1.346 . S
C563 C564 1.396 . S
C563 C573 1.510 . S
C564 C560 1.401 . S
C564 C563 1.396 . S
C565 C560 1.499 . S
C565 H566 0.959 . S
C565 H567 0.960 . S
C565 H568 0.961 . S
H566 C565 0.959 . S
H567 C565 0.960 . S
H568 C565 0.961 . S
O569 Co544 1.967 . S
O569 C577 1.258 . S
O570 Co545 1.941 . S
O570 C577 1.266 . S
H571 C573 0.959 . S
H572 C573 0.961 . S
C573 C563 1.510 . S
C573 H571 0.959 . S
C573 H572 0.961 . S
C573 H574 0.960 . S
H574 C573 0.960 . S
H575 N555 0.862 . S
O576 Co544 1.920 . S
O576 C549 1.289 . S
C577 O569 1.258 . S
C577 O570 1.266 . S
Co578 O581 1.970 . S
Co578 N595 1.989 . S
Co578 O603 1.967 . S
Co578 O610 1.920 . S
Co579 O582 1.966 . S
Co579 N588 2.022 . S
Co579 N596 1.993 . S
Co579 O604 1.941 . S
C580 O581 1.258 . S
C580 O582 1.263 . S
O581 Co578 1.970 . S
O581 C580 1.258 . S
O582 Co579 1.966 . S
O582 C580 1.263 . S
C583 O584 1.235 . S
C583 O610 1.289 . S
O584 C583 1.235 . S
C585 C587 1.400 . S
C585 N588 1.351 1_556 S
C585 C590 1.501 . S
C586 C587 1.387 . S
C586 N589 1.341 . S
C587 C585 1.400 . S
C587 C586 1.387 . S
N588 Co579 2.022 . S
N588 C585 1.351 1_554 S
N588 N589 1.365 1_554 S
N589 C586 1.341 . S
N589 N588 1.365 1_556 S
N589 H609 0.862 . S
C590 C585 1.501 . S
C590 H591 0.961 1_556 S
C590 H592 0.961 . S
C590 H593 0.960 . S
H591 C590 0.961 1_554 S
H592 C590 0.961 . S
H593 C590 0.960 . S
C594 N595 1.342 . S
C594 C598 1.401 . S
C594 C599 1.499 . S
N595 Co578 1.989 . S
N595 C594 1.342 . S
N595 N596 1.388 . S
N596 Co579 1.993 . S
N596 N595 1.388 . S
N596 C597 1.346 . S
C597 N596 1.346 . S
C597 C598 1.396 . S
C597 C607 1.510 . S
C598 C594 1.401 . S
C598 C597 1.396 . S
C599 C594 1.499 . S
C599 H600 0.959 . S
C599 H601 0.960 . S
C599 H602 0.961 . S
H600 C599 0.959 . S
H601 C599 0.960 . S
H602 C599 0.961 . S
O603 Co578 1.967 . S
O603 C611 1.258 . S
O604 Co579 1.941 . S
O604 C611 1.266 . S
H605 C607 0.959 . S
H606 C607 0.961 . S
C607 C597 1.510 . S
C607 H605 0.959 . S
C607 H606 0.961 . S
C607 H608 0.960 . S
H608 C607 0.960 . S
H609 N589 0.862 . S
O610 Co578 1.920 . S
O610 C583 1.289 . S
C611 O603 1.258 . S
C611 O604 1.266 . S
Co612 O615 1.970 . S
Co612 N629 1.989 . S
Co612 O637 1.967 . S
Co612 O644 1.920 . S
Co613 O616 1.966 . S
Co613 N622 2.022 . S
Co613 N630 1.993 . S
Co613 O638 1.941 . S
C614 O615 1.258 . S
C614 O616 1.263 . S
O615 Co612 1.970 . S
O615 C614 1.258 . S
O616 Co613 1.966 . S
O616 C614 1.263 . S
C617 O618 1.235 . S
C617 O644 1.289 . S
O618 C617 1.235 . S
C619 C621 1.400 . S
C619 N622 1.351 1_556 S
C619 C624 1.501 . S
C620 C621 1.387 . S
C620 N623 1.341 . S
C621 C619 1.400 . S
C621 C620 1.387 . S
N622 Co613 2.022 . S
N622 C619 1.351 1_554 S
N622 N623 1.365 1_554 S
N623 C620 1.341 . S
N623 N622 1.365 1_556 S
N623 H643 0.862 . S
C624 C619 1.501 . S
C624 H625 0.961 1_556 S
C624 H626 0.961 . S
C624 H627 0.960 . S
H625 C624 0.961 1_554 S
H626 C624 0.961 . S
H627 C624 0.960 . S
C628 N629 1.342 . S
C628 C632 1.401 . S
C628 C633 1.499 . S
N629 Co612 1.989 . S
N629 C628 1.342 . S
N629 N630 1.388 . S
N630 Co613 1.993 . S
N630 N629 1.388 . S
N630 C631 1.346 . S
C631 N630 1.346 . S
C631 C632 1.396 . S
C631 C641 1.510 . S
C632 C628 1.401 . S
C632 C631 1.396 . S
C633 C628 1.499 . S
C633 H634 0.959 . S
C633 H635 0.960 . S
C633 H636 0.961 . S
H634 C633 0.959 . S
H635 C633 0.960 . S
H636 C633 0.961 . S
O637 Co612 1.967 . S
O637 C645 1.258 . S
O638 Co613 1.941 . S
O638 C645 1.266 . S
H639 C641 0.959 . S
H640 C641 0.961 . S
C641 C631 1.510 . S
C641 H639 0.959 . S
C641 H640 0.961 . S
C641 H642 0.960 . S
H642 C641 0.960 . S
H643 N623 0.862 . S
O644 Co612 1.920 . S
O644 C617 1.289 . S
C645 O637 1.258 . S
C645 O638 1.266 . S
Co646 O649 1.970 . S
Co646 N663 1.989 . S
Co646 O671 1.967 . S
Co646 O678 1.920 . S
Co647 O650 1.966 . S
Co647 N656 2.022 . S
Co647 N664 1.993 . S
Co647 O672 1.941 . S
C648 O649 1.258 . S
C648 O650 1.263 . S
O649 Co646 1.970 . S
O649 C648 1.258 . S
O650 Co647 1.966 . S
O650 C648 1.263 . S
C651 O652 1.235 . S
C651 O678 1.289 . S
O652 C651 1.235 . S
C653 C655 1.400 . S
C653 N656 1.351 1_556 S
C653 C658 1.501 . S
C654 C655 1.387 . S
C654 N657 1.341 . S
C655 C653 1.400 . S
C655 C654 1.387 . S
N656 Co647 2.022 . S
N656 C653 1.351 1_554 S
N656 N657 1.365 1_554 S
N657 C654 1.341 . S
N657 N656 1.365 1_556 S
N657 H677 0.862 . S
C658 C653 1.501 . S
C658 H659 0.961 1_556 S
C658 H660 0.961 . S
C658 H661 0.960 . S
H659 C658 0.961 1_554 S
H660 C658 0.961 . S
H661 C658 0.960 . S
C662 N663 1.342 . S
C662 C666 1.401 . S
C662 C667 1.499 . S
N663 Co646 1.989 . S
N663 C662 1.342 . S
N663 N664 1.388 . S
N664 Co647 1.993 . S
N664 N663 1.388 . S
N664 C665 1.346 . S
C665 N664 1.346 . S
C665 C666 1.396 . S
C665 C675 1.510 . S
C666 C662 1.401 . S
C666 C665 1.396 . S
C667 C662 1.499 . S
C667 H668 0.959 . S
C667 H669 0.960 . S
C667 H670 0.961 . S
H668 C667 0.959 . S
H669 C667 0.960 . S
H670 C667 0.961 . S
O671 Co646 1.967 . S
O671 C679 1.258 . S
O672 Co647 1.941 . S
O672 C679 1.266 . S
H673 C675 0.959 . S
H674 C675 0.961 . S
C675 C665 1.510 . S
C675 H673 0.959 . S
C675 H674 0.961 . S
C675 H676 0.960 . S
H676 C675 0.960 . S
H677 N657 0.862 . S
O678 Co646 1.920 . S
O678 C651 1.289 . S
C679 O671 1.258 . S
C679 O672 1.266 . S
Co680 O683 1.970 . S
Co680 N697 1.989 . S
Co680 O705 1.967 . S
Co680 O712 1.920 . S
Co681 O684 1.966 . S
Co681 N690 2.022 . S
Co681 N698 1.993 . S
Co681 O706 1.941 . S
C682 O683 1.258 . S
C682 O684 1.263 . S
O683 Co680 1.970 . S
O683 C682 1.258 . S
O684 Co681 1.966 . S
O684 C682 1.263 . S
C685 O686 1.235 . S
C685 O712 1.289 . S
O686 C685 1.235 . S
C687 C689 1.400 . S
C687 N690 1.351 1_556 S
C687 C692 1.501 . S
C688 C689 1.387 . S
C688 N691 1.341 . S
C689 C687 1.400 . S
C689 C688 1.387 . S
N690 Co681 2.022 . S
N690 C687 1.351 1_554 S
N690 N691 1.365 1_554 S
N691 C688 1.341 . S
N691 N690 1.365 1_556 S
N691 H711 0.862 . S
C692 C687 1.501 . S
C692 H693 0.961 1_556 S
C692 H694 0.961 . S
C692 H695 0.960 . S
H693 C692 0.961 1_554 S
H694 C692 0.961 . S
H695 C692 0.960 . S
C696 N697 1.342 . S
C696 C700 1.401 . S
C696 C701 1.499 . S
N697 Co680 1.989 . S
N697 C696 1.342 . S
N697 N698 1.388 . S
N698 Co681 1.993 . S
N698 N697 1.388 . S
N698 C699 1.346 . S
C699 N698 1.346 . S
C699 C700 1.396 . S
C699 C709 1.510 . S
C700 C696 1.401 . S
C700 C699 1.396 . S
C701 C696 1.499 . S
C701 H702 0.959 . S
C701 H703 0.960 . S
C701 H704 0.961 . S
H702 C701 0.959 . S
H703 C701 0.960 . S
H704 C701 0.961 . S
O705 Co680 1.967 . S
O705 C713 1.258 . S
O706 Co681 1.941 . S
O706 C713 1.266 . S
H707 C709 0.959 . S
H708 C709 0.961 . S
C709 C699 1.510 . S
C709 H707 0.959 . S
C709 H708 0.961 . S
C709 H710 0.960 . S
H710 C709 0.960 . S
H711 N691 0.862 . S
O712 Co680 1.920 . S
O712 C685 1.289 . S
C713 O705 1.258 . S
C713 O706 1.266 . S
Co714 O717 1.970 . S
Co714 N731 1.989 . S
Co714 O739 1.967 . S
Co714 O746 1.920 . S
Co715 O718 1.966 . S
Co715 N724 2.022 . S
Co715 N732 1.993 . S
Co715 O740 1.941 . S
C716 O717 1.258 . S
C716 O718 1.263 . S
O717 Co714 1.970 . S
O717 C716 1.258 . S
O718 Co715 1.966 . S
O718 C716 1.263 . S
C719 O720 1.235 1_556 S
C719 O746 1.289 1_556 S
O720 C719 1.235 1_554 S
C721 C723 1.400 . S
C721 N724 1.351 . S
C721 C726 1.501 . S
C722 C723 1.387 . S
C722 N725 1.341 . S
C723 C721 1.400 . S
C723 C722 1.387 . S
N724 Co715 2.022 . S
N724 C721 1.351 . S
N724 N725 1.365 . S
N725 C722 1.341 . S
N725 N724 1.365 . S
N725 H745 0.862 . S
C726 C721 1.501 . S
C726 H727 0.961 . S
C726 H728 0.961 . S
C726 H729 0.960 . S
H727 C726 0.961 . S
H728 C726 0.961 . S
H729 C726 0.960 . S
C730 N731 1.342 . S
C730 C734 1.401 . S
C730 C735 1.499 . S
N731 Co714 1.989 . S
N731 C730 1.342 . S
N731 N732 1.388 . S
N732 Co715 1.993 . S
N732 N731 1.388 . S
N732 C733 1.346 . S
C733 N732 1.346 . S
C733 C734 1.396 . S
C733 C743 1.510 . S
C734 C730 1.401 . S
C734 C733 1.396 . S
C735 C730 1.499 . S
C735 H736 0.959 . S
C735 H737 0.960 . S
C735 H738 0.961 . S
H736 C735 0.959 . S
H737 C735 0.960 . S
H738 C735 0.961 . S
O739 Co714 1.967 . S
O739 C747 1.258 . S
O740 Co715 1.941 . S
O740 C747 1.266 . S
H741 C743 0.959 . S
H742 C743 0.961 . S
C743 C733 1.510 . S
C743 H741 0.959 . S
C743 H742 0.961 . S
C743 H744 0.960 . S
H744 C743 0.960 . S
H745 N725 0.862 . S
O746 Co714 1.920 . S
O746 C719 1.289 1_554 S
C747 O739 1.258 . S
C747 O740 1.266 . S
Co748 O751 1.970 . S
Co748 N765 1.989 . S
Co748 O773 1.967 . S
Co748 O780 1.920 . S
Co749 O752 1.966 . S
Co749 N758 2.022 . S
Co749 N766 1.993 . S
Co749 O774 1.941 . S
C750 O751 1.258 . S
C750 O752 1.263 . S
O751 Co748 1.970 . S
O751 C750 1.258 . S
O752 Co749 1.966 . S
O752 C750 1.263 . S
C753 O754 1.235 1_556 S
C753 O780 1.289 1_556 S
O754 C753 1.235 1_554 S
C755 C757 1.400 . S
C755 N758 1.351 . S
C755 C760 1.501 . S
C756 C757 1.387 . S
C756 N759 1.341 . S
C757 C755 1.400 . S
C757 C756 1.387 . S
N758 Co749 2.022 . S
N758 C755 1.351 . S
N758 N759 1.365 . S
N759 C756 1.341 . S
N759 N758 1.365 . S
N759 H779 0.862 . S
C760 C755 1.501 . S
C760 H761 0.961 . S
C760 H762 0.961 . S
C760 H763 0.960 . S
H761 C760 0.961 . S
H762 C760 0.961 . S
H763 C760 0.960 . S
C764 N765 1.342 . S
C764 C768 1.401 . S
C764 C769 1.499 . S
N765 Co748 1.989 . S
N765 C764 1.342 . S
N765 N766 1.388 . S
N766 Co749 1.993 . S
N766 N765 1.388 . S
N766 C767 1.346 . S
C767 N766 1.346 . S
C767 C768 1.396 . S
C767 C777 1.510 . S
C768 C764 1.401 . S
C768 C767 1.396 . S
C769 C764 1.499 . S
C769 H770 0.959 . S
C769 H771 0.980 . S
C769 H772 0.957 1_545 S
H770 C769 0.959 . S
H771 C769 0.980 . S
H772 C769 0.957 1_565 S
O773 Co748 1.967 . S
O773 C781 1.258 . S
O774 Co749 1.941 . S
O774 C781 1.266 . S
H775 C777 0.959 . S
H776 C777 0.961 . S
C777 C767 1.510 . S
C777 H775 0.959 . S
C777 H776 0.961 . S
C777 H778 0.960 . S
H778 C777 0.960 . S
H779 N759 0.862 . S
O780 Co748 1.920 . S
O780 C753 1.289 1_554 S
C781 O773 1.258 . S
C781 O774 1.266 . S
Co782 O785 1.970 . S
Co782 N799 1.989 . S
Co782 O807 1.967 . S
Co782 O814 1.920 . S
Co783 O786 1.966 . S
Co783 N792 2.022 . S
Co783 N800 1.993 . S
Co783 O808 1.941 . S
C784 O785 1.258 . S
C784 O786 1.263 . S
O785 Co782 1.970 . S
O785 C784 1.258 . S
O786 Co783 1.966 . S
O786 C784 1.263 . S
C787 O788 1.235 1_556 S
C787 O814 1.289 1_556 S
O788 C787 1.235 1_554 S
C789 C791 1.400 . S
C789 N792 1.351 . S
C789 C794 1.501 . S
C790 C791 1.387 . S
C790 N793 1.341 . S
C791 C789 1.400 . S
C791 C790 1.387 . S
N792 Co783 2.022 . S
N792 C789 1.351 . S
N792 N793 1.365 . S
N793 C790 1.341 . S
N793 N792 1.365 . S
N793 H813 0.862 . S
C794 C789 1.501 . S
C794 H795 0.961 . S
C794 H796 0.961 . S
C794 H797 0.960 . S
H795 C794 0.961 . S
H796 C794 0.961 . S
H797 C794 0.960 . S
C798 N799 1.342 . S
C798 C802 1.401 . S
C798 C803 1.499 . S
N799 Co782 1.989 . S
N799 C798 1.342 . S
N799 N800 1.388 . S
N800 Co783 1.993 . S
N800 N799 1.388 . S
N800 C801 1.346 . S
C801 N800 1.346 . S
C801 C802 1.396 . S
C801 C811 1.510 . S
C802 C798 1.401 . S
C802 C801 1.396 . S
C803 C798 1.499 . S
C803 H804 0.959 . S
C803 H805 0.961 . S
C803 H806 0.930 1_655 S
H804 C803 0.959 . S
H805 C803 0.961 . S
H806 C803 0.930 1_455 S
O807 Co782 1.967 . S
O807 C815 1.258 . S
O808 Co783 1.941 . S
O808 C815 1.266 . S
H809 C811 0.959 . S
H810 C811 0.961 . S
C811 C801 1.510 . S
C811 H809 0.959 . S
C811 H810 0.961 . S
C811 H812 0.960 . S
H812 C811 0.960 . S
H813 N793 0.862 . S
O814 Co782 1.920 . S
O814 C787 1.289 1_554 S
C815 O807 1.258 . S
C815 O808 1.266 . S
Co816 O819 1.970 . S
Co816 N833 1.989 . S
Co816 O841 1.967 . S
Co816 O848 1.920 . S
Co817 O820 1.966 . S
Co817 N826 2.022 . S
Co817 N834 1.993 . S
Co817 O842 1.941 . S
C818 O819 1.258 . S
C818 O820 1.263 . S
O819 Co816 1.970 . S
O819 C818 1.258 . S
O820 Co817 1.966 . S
O820 C818 1.263 . S
C821 O822 1.235 . S
C821 O848 1.289 . S
O822 C821 1.235 . S
C823 C825 1.400 . S
C823 N826 1.351 1_554 S
C823 C828 1.501 . S
C824 C825 1.387 . S
C824 N827 1.341 . S
C825 C823 1.400 . S
C825 C824 1.387 . S
N826 Co817 2.022 . S
N826 C823 1.351 1_556 S
N826 N827 1.365 1_556 S
N827 C824 1.341 . S
N827 N826 1.365 1_554 S
N827 H847 0.862 . S
C828 C823 1.501 . S
C828 H829 0.961 1_554 S
C828 H830 0.961 . S
C828 H831 0.960 . S
H829 C828 0.961 1_556 S
H830 C828 0.961 . S
H831 C828 0.960 . S
C832 N833 1.342 . S
C832 C836 1.401 . S
C832 C837 1.499 . S
N833 Co816 1.989 . S
N833 C832 1.342 . S
N833 N834 1.388 . S
N834 Co817 1.993 . S
N834 N833 1.388 . S
N834 C835 1.346 . S
C835 N834 1.346 . S
C835 C836 1.396 . S
C835 C845 1.510 . S
C836 C832 1.401 . S
C836 C835 1.396 . S
C837 C832 1.499 . S
C837 H838 0.959 . S
C837 H839 0.960 . S
C837 H840 0.961 . S
H838 C837 0.959 . S
H839 C837 0.960 . S
H840 C837 0.961 . S
O841 Co816 1.967 . S
O841 C849 1.258 . S
O842 Co817 1.941 . S
O842 C849 1.266 . S
H843 C845 0.959 . S
H844 C845 0.961 . S
C845 C835 1.510 . S
C845 H843 0.959 . S
C845 H844 0.961 . S
C845 H846 0.960 . S
H846 C845 0.960 . S
H847 N827 0.862 . S
O848 Co816 1.920 . S
O848 C821 1.289 . S
C849 O841 1.258 . S
C849 O842 1.266 . S
Co850 O853 1.970 . S
Co850 N867 1.989 . S
Co850 O875 1.967 . S
Co850 O882 1.920 . S
Co851 O854 1.966 . S
Co851 N860 2.022 . S
Co851 N868 1.993 . S
Co851 O876 1.941 . S
C852 O853 1.258 . S
C852 O854 1.263 . S
O853 Co850 1.970 . S
O853 C852 1.258 . S
O854 Co851 1.966 . S
O854 C852 1.263 . S
C855 O856 1.235 . S
C855 O882 1.289 . S
O856 C855 1.235 . S
C857 C859 1.400 . S
C857 N860 1.351 1_554 S
C857 C862 1.501 . S
C858 C859 1.387 . S
C858 N861 1.341 . S
C859 C857 1.400 . S
C859 C858 1.387 . S
N860 Co851 2.022 . S
N860 C857 1.351 1_556 S
N860 N861 1.365 1_556 S
N861 C858 1.341 . S
N861 N860 1.365 1_554 S
N861 H881 0.862 . S
C862 C857 1.501 . S
C862 H863 0.961 1_554 S
C862 H864 0.961 . S
C862 H865 0.960 . S
H863 C862 0.961 1_556 S
H864 C862 0.961 . S
H865 C862 0.960 . S
C866 N867 1.342 . S
C866 C870 1.401 . S
C866 C871 1.499 . S
N867 Co850 1.989 . S
N867 C866 1.342 . S
N867 N868 1.388 . S
N868 Co851 1.993 . S
N868 N867 1.388 . S
N868 C869 1.346 . S
C869 N868 1.346 . S
C869 C870 1.396 . S
C869 C879 1.510 . S
C870 C866 1.401 . S
C870 C869 1.396 . S
C871 C866 1.499 . S
C871 H872 0.959 . S
C871 H873 0.960 . S
C871 H874 0.961 . S
H872 C871 0.959 . S
H873 C871 0.960 . S
H874 C871 0.961 . S
O875 Co850 1.967 . S
O875 C883 1.258 . S
O876 Co851 1.941 . S
O876 C883 1.266 . S
H877 C879 0.959 . S
H878 C879 0.961 . S
C879 C869 1.510 . S
C879 H877 0.959 . S
C879 H878 0.961 . S
C879 H880 0.960 . S
H880 C879 0.960 . S
H881 N861 0.862 . S
O882 Co850 1.920 . S
O882 C855 1.289 . S
C883 O875 1.258 . S
C883 O876 1.266 . S
Co884 O887 1.970 . S
Co884 N901 1.989 . S
Co884 O909 1.967 . S
Co884 O916 1.920 . S
Co885 O888 1.966 . S
Co885 N894 2.022 . S
Co885 N902 1.993 . S
Co885 O910 1.941 . S
C886 O887 1.258 . S
C886 O888 1.263 . S
O887 Co884 1.970 . S
O887 C886 1.258 . S
O888 Co885 1.966 . S
O888 C886 1.263 . S
C889 O890 1.235 . S
C889 O916 1.289 . S
O890 C889 1.235 . S
C891 C893 1.400 . S
C891 N894 1.351 1_554 S
C891 C896 1.501 . S
C892 C893 1.387 . S
C892 N895 1.341 . S
C893 C891 1.400 . S
C893 C892 1.387 . S
N894 Co885 2.022 . S
N894 C891 1.351 1_556 S
N894 N895 1.365 1_556 S
N895 C892 1.341 . S
N895 N894 1.365 1_554 S
N895 H915 0.862 . S
C896 C891 1.501 . S
C896 H897 0.961 1_554 S
C896 H898 0.961 . S
C896 H899 0.960 . S
H897 C896 0.961 1_556 S
H898 C896 0.961 . S
H899 C896 0.960 . S
C900 N901 1.342 . S
C900 C904 1.401 . S
C900 C905 1.499 . S
N901 Co884 1.989 . S
N901 C900 1.342 . S
N901 N902 1.388 . S
N902 Co885 1.993 . S
N902 N901 1.388 . S
N902 C903 1.346 . S
C903 N902 1.346 . S
C903 C904 1.396 . S
C903 C913 1.510 . S
C904 C900 1.401 . S
C904 C903 1.396 . S
C905 C900 1.499 . S
C905 H906 0.959 . S
C905 H907 0.960 . S
C905 H908 0.961 . S
H906 C905 0.959 . S
H907 C905 0.960 . S
H908 C905 0.961 . S
O909 Co884 1.967 . S
O909 C917 1.258 . S
O910 Co885 1.941 . S
O910 C917 1.266 . S
H911 C913 0.959 . S
H912 C913 0.961 . S
C913 C903 1.510 . S
C913 H911 0.959 . S
C913 H912 0.961 . S
C913 H914 0.960 . S
H914 C913 0.960 . S
H915 N895 0.862 . S
O916 Co884 1.920 . S
O916 C889 1.289 . S
C917 O909 1.258 . S
C917 O910 1.266 . S
Co918 O921 1.970 . S
Co918 N935 1.989 . S
Co918 O943 1.967 . S
Co918 O950 1.920 . S
Co919 O922 1.966 . S
Co919 N928 2.022 . S
Co919 N936 1.993 . S
Co919 O944 1.941 . S
C920 O921 1.258 . S
C920 O922 1.263 . S
O921 Co918 1.970 . S
O921 C920 1.258 . S
O922 Co919 1.966 . S
O922 C920 1.263 . S
C923 O924 1.235 1_554 S
C923 O950 1.289 1_554 S
O924 C923 1.235 1_556 S
C925 C927 1.400 . S
C925 N928 1.351 . S
C925 C930 1.501 . S
C926 C927 1.387 . S
C926 N929 1.341 . S
C927 C925 1.400 . S
C927 C926 1.387 . S
N928 Co919 2.022 . S
N928 C925 1.351 . S
N928 N929 1.365 . S
N929 C926 1.341 . S
N929 N928 1.365 . S
N929 H949 0.862 . S
C930 C925 1.501 . S
C930 H931 0.961 . S
C930 H932 0.961 . S
C930 H933 0.960 . S
H931 C930 0.961 . S
H932 C930 0.961 . S
H933 C930 0.960 . S
C934 N935 1.342 . S
C934 C938 1.401 . S
C934 C939 1.499 . S
N935 Co918 1.989 . S
N935 C934 1.342 . S
N935 N936 1.388 . S
N936 Co919 1.993 . S
N936 N935 1.388 . S
N936 C937 1.346 . S
C937 N936 1.346 . S
C937 C938 1.396 . S
C937 C947 1.510 . S
C938 C934 1.401 . S
C938 C937 1.396 . S
C939 C934 1.499 . S
C939 H940 0.959 . S
C939 H941 0.960 . S
C939 H942 0.961 . S
H940 C939 0.959 . S
H941 C939 0.960 . S
H942 C939 0.961 . S
O943 Co918 1.967 . S
O943 C951 1.258 . S
O944 Co919 1.941 . S
O944 C951 1.266 . S
H945 C947 0.959 . S
H946 C947 0.961 . S
C947 C937 1.510 . S
C947 H945 0.959 . S
C947 H946 0.961 . S
C947 H948 0.960 . S
H948 C947 0.960 . S
H949 N929 0.862 . S
O950 Co918 1.920 . S
O950 C923 1.289 1_556 S
C951 O943 1.258 . S
C951 O944 1.266 . S
Co952 O955 1.970 . S
Co952 N969 1.989 . S
Co952 O977 1.967 . S
Co952 O984 1.920 . S
Co953 O956 1.966 . S
Co953 N962 2.022 . S
Co953 N970 1.993 . S
Co953 O978 1.941 . S
C954 O955 1.258 . S
C954 O956 1.263 . S
O955 Co952 1.970 . S
O955 C954 1.258 . S
O956 Co953 1.966 . S
O956 C954 1.263 . S
C957 O958 1.235 1_554 S
C957 O984 1.289 1_554 S
O958 C957 1.235 1_556 S
C959 C961 1.400 . S
C959 N962 1.351 . S
C959 C964 1.501 . S
C960 C961 1.387 . S
C960 N963 1.341 . S
C961 C959 1.400 . S
C961 C960 1.387 . S
N962 Co953 2.022 . S
N962 C959 1.351 . S
N962 N963 1.365 . S
N963 C960 1.341 . S
N963 N962 1.365 . S
N963 H983 0.862 . S
C964 C959 1.501 . S
C964 H965 0.961 . S
C964 H966 0.961 . S
C964 H967 0.960 . S
H965 C964 0.961 . S
H966 C964 0.961 . S
H967 C964 0.960 . S
C968 N969 1.342 . S
C968 C972 1.401 . S
C968 C973 1.499 . S
N969 Co952 1.989 . S
N969 C968 1.342 . S
N969 N970 1.388 . S
N970 Co953 1.993 . S
N970 N969 1.388 . S
N970 C971 1.346 . S
C971 N970 1.346 . S
C971 C972 1.396 . S
C971 C981 1.510 . S
C972 C968 1.401 . S
C972 C971 1.396 . S
C973 C968 1.499 . S
C973 H974 0.959 . S
C973 H975 0.980 . S
C973 H976 0.957 1_565 S
H974 C973 0.959 . S
H975 C973 0.980 . S
H976 C973 0.957 1_545 S
O977 Co952 1.967 . S
O977 C985 1.258 . S
O978 Co953 1.941 . S
O978 C985 1.266 . S
H979 C981 0.959 . S
H980 C981 0.961 . S
C981 C971 1.510 . S
C981 H979 0.959 . S
C981 H980 0.961 . S
C981 H982 0.960 . S
H982 C981 0.960 . S
H983 N963 0.862 . S
O984 Co952 1.920 . S
O984 C957 1.289 1_556 S
C985 O977 1.258 . S
C985 O978 1.266 . S
Co986 O989 1.970 . S
Co986 N1003 1.989 . S
Co986 O1011 1.967 . S
Co986 O1018 1.920 . S
Co987 O990 1.966 . S
Co987 N996 2.022 . S
Co987 N1004 1.993 . S
Co987 O1012 1.941 . S
C988 O989 1.258 . S
C988 O990 1.263 . S
O989 Co986 1.970 . S
O989 C988 1.258 . S
O990 Co987 1.966 . S
O990 C988 1.263 . S
C991 O992 1.235 1_554 S
C991 O1018 1.289 1_554 S
O992 C991 1.235 1_556 S
C993 C995 1.400 . S
C993 N996 1.351 . S
C993 C998 1.501 . S
C994 C995 1.387 . S
C994 N997 1.341 . S
C995 C993 1.400 . S
C995 C994 1.387 . S
N996 Co987 2.022 . S
N996 C993 1.351 . S
N996 N997 1.365 . S
N997 C994 1.341 . S
N997 N996 1.365 . S
N997 H1017 0.862 . S
C998 C993 1.501 . S
C998 H999 0.961 . S
C998 H1000 0.961 . S
C998 H1001 0.960 . S
H999 C998 0.961 . S
H1000 C998 0.961 . S
H1001 C998 0.960 . S
C1002 N1003 1.342 . S
C1002 C1006 1.401 . S
C1002 C1007 1.499 . S
N1003 Co986 1.989 . S
N1003 C1002 1.342 . S
N1003 N1004 1.388 . S
N1004 Co987 1.993 . S
N1004 N1003 1.388 . S
N1004 C1005 1.346 . S
C1005 N1004 1.346 . S
C1005 C1006 1.396 . S
C1005 C1015 1.510 . S
C1006 C1002 1.401 . S
C1006 C1005 1.396 . S
C1007 C1002 1.499 . S
C1007 H1008 0.959 . S
C1007 H1009 0.961 . S
C1007 H1010 0.930 1_455 S
H1008 C1007 0.959 . S
H1009 C1007 0.961 . S
H1010 C1007 0.930 1_655 S
O1011 Co986 1.967 . S
O1011 C1019 1.258 . S
O1012 Co987 1.941 . S
O1012 C1019 1.266 . S
H1013 C1015 0.959 . S
H1014 C1015 0.961 . S
C1015 C1005 1.510 . S
C1015 H1013 0.959 . S
C1015 H1014 0.961 . S
C1015 H1016 0.960 . S
H1016 C1015 0.960 . S
H1017 N997 0.862 . S
O1018 Co986 1.920 . S
O1018 C991 1.289 1_556 S
C1019 O1011 1.258 . S
C1019 O1012 1.266 . S
Co1020 O1023 1.970 . S
Co1020 N1037 1.989 . S
Co1020 O1045 1.967 . S
Co1020 O1052 1.920 . S
Co1021 O1024 1.966 . S
Co1021 N1030 2.022 . S
Co1021 N1038 1.993 . S
Co1021 O1046 1.941 . S
C1022 O1023 1.258 . S
C1022 O1024 1.263 . S
O1023 Co1020 1.970 . S
O1023 C1022 1.258 . S
O1024 Co1021 1.966 . S
O1024 C1022 1.263 . S
C1025 O1026 1.235 1_554 S
C1025 O1052 1.289 1_554 S
O1026 C1025 1.235 1_556 S
C1027 C1029 1.400 . S
C1027 N1030 1.351 . S
C1027 C1032 1.501 . S
C1028 C1029 1.387 . S
C1028 N1031 1.341 . S
C1029 C1027 1.400 . S
C1029 C1028 1.387 . S
N1030 Co1021 2.022 . S
N1030 C1027 1.351 . S
N1030 N1031 1.365 . S
N1031 C1028 1.341 . S
N1031 N1030 1.365 . S
N1031 H1051 0.862 . S
C1032 C1027 1.501 . S
C1032 H1033 0.961 . S
C1032 H1034 0.961 . S
C1032 H1035 0.960 . S
H1033 C1032 0.961 . S
H1034 C1032 0.961 . S
H1035 C1032 0.960 . S
C1036 N1037 1.342 . S
C1036 C1040 1.401 . S
C1036 C1041 1.499 . S
N1037 Co1020 1.989 . S
N1037 C1036 1.342 . S
N1037 N1038 1.388 . S
N1038 Co1021 1.993 . S
N1038 N1037 1.388 . S
N1038 C1039 1.346 . S
C1039 N1038 1.346 . S
C1039 C1040 1.396 . S
C1039 C1049 1.510 . S
C1040 C1036 1.401 . S
C1040 C1039 1.396 . S
C1041 C1036 1.499 . S
C1041 H1042 0.959 . S
C1041 H1043 0.960 . S
C1041 H1044 0.961 . S
H1042 C1041 0.959 . S
H1043 C1041 0.960 . S
H1044 C1041 0.961 . S
O1045 Co1020 1.967 . S
O1045 C1053 1.258 . S
O1046 Co1021 1.941 . S
O1046 C1053 1.266 . S
H1047 C1049 0.959 . S
H1048 C1049 0.961 . S
C1049 C1039 1.510 . S
C1049 H1047 0.959 . S
C1049 H1048 0.961 . S
C1049 H1050 0.960 . S
H1050 C1049 0.960 . S
H1051 N1031 0.862 . S
O1052 Co1020 1.920 . S
O1052 C1025 1.289 1_556 S
C1053 O1045 1.258 . S
C1053 O1046 1.266 . S
Co1054 O1057 1.970 . S
Co1054 N1071 1.989 . S
Co1054 O1079 1.967 . S
Co1054 O1086 1.920 . S
Co1055 O1058 1.966 . S
Co1055 N1064 2.022 . S
Co1055 N1072 1.993 . S
Co1055 O1080 1.941 . S
C1056 O1057 1.258 . S
C1056 O1058 1.263 . S
O1057 Co1054 1.970 . S
O1057 C1056 1.258 . S
O1058 Co1055 1.966 . S
O1058 C1056 1.263 . S
C1059 O1060 1.235 1_554 S
C1059 O1086 1.289 1_554 S
O1060 C1059 1.235 1_556 S
C1061 C1063 1.400 . S
C1061 N1064 1.351 . S
C1061 C1066 1.501 . S
C1062 C1063 1.387 . S
C1062 N1065 1.341 . S
C1063 C1061 1.400 . S
C1063 C1062 1.387 . S
N1064 Co1055 2.022 . S
N1064 C1061 1.351 . S
N1064 N1065 1.365 . S
N1065 C1062 1.341 . S
N1065 N1064 1.365 . S
N1065 H1085 0.862 . S
C1066 C1061 1.501 . S
C1066 H1067 0.961 . S
C1066 H1068 0.961 . S
C1066 H1069 0.960 . S
H1067 C1066 0.961 . S
H1068 C1066 0.961 . S
H1069 C1066 0.960 . S
C1070 N1071 1.342 . S
C1070 C1074 1.401 . S
C1070 C1075 1.499 . S
N1071 Co1054 1.989 . S
N1071 C1070 1.342 . S
N1071 N1072 1.388 . S
N1072 Co1055 1.993 . S
N1072 N1071 1.388 . S
N1072 C1073 1.346 . S
C1073 N1072 1.346 . S
C1073 C1074 1.396 . S
C1073 C1083 1.510 . S
C1074 C1070 1.401 . S
C1074 C1073 1.396 . S
C1075 C1070 1.499 . S
C1075 H1076 0.959 . S
C1075 H1077 0.961 . S
C1075 H1078 0.930 1_565 S
H1076 C1075 0.959 . S
H1077 C1075 0.961 . S
H1078 C1075 0.930 1_545 S
O1079 Co1054 1.967 . S
O1079 C1087 1.258 . S
O1080 Co1055 1.941 . S
O1080 C1087 1.266 . S
H1081 C1083 0.959 . S
H1082 C1083 0.961 . S
C1083 C1073 1.510 . S
C1083 H1081 0.959 . S
C1083 H1082 0.961 . S
C1083 H1084 0.960 . S
H1084 C1083 0.960 . S
H1085 N1065 0.862 . S
O1086 Co1054 1.920 . S
O1086 C1059 1.289 1_556 S
C1087 O1079 1.258 . S
C1087 O1080 1.266 . S
Co1088 O1091 1.970 . S
Co1088 N1105 1.989 . S
Co1088 O1113 1.967 . S
Co1088 O1120 1.920 . S
Co1089 O1092 1.966 . S
Co1089 N1098 2.022 . S
Co1089 N1106 1.993 . S
Co1089 O1114 1.941 . S
C1090 O1091 1.258 . S
C1090 O1092 1.263 . S
O1091 Co1088 1.970 . S
O1091 C1090 1.258 . S
O1092 Co1089 1.966 . S
O1092 C1090 1.263 . S
C1093 O1094 1.235 1_554 S
C1093 O1120 1.289 1_554 S
O1094 C1093 1.235 1_556 S
C1095 C1097 1.400 . S
C1095 N1098 1.351 . S
C1095 C1100 1.501 . S
C1096 C1097 1.387 . S
C1096 N1099 1.341 . S
C1097 C1095 1.400 . S
C1097 C1096 1.387 . S
N1098 Co1089 2.022 . S
N1098 C1095 1.351 . S
N1098 N1099 1.365 . S
N1099 C1096 1.341 . S
N1099 N1098 1.365 . S
N1099 H1119 0.862 . S
C1100 C1095 1.501 . S
C1100 H1101 0.961 . S
C1100 H1102 0.961 . S
C1100 H1103 0.960 . S
H1101 C1100 0.961 . S
H1102 C1100 0.961 . S
H1103 C1100 0.960 . S
C1104 N1105 1.342 . S
C1104 C1108 1.401 . S
C1104 C1109 1.499 . S
N1105 Co1088 1.989 . S
N1105 C1104 1.342 . S
N1105 N1106 1.388 . S
N1106 Co1089 1.993 . S
N1106 N1105 1.388 . S
N1106 C1107 1.346 . S
C1107 N1106 1.346 . S
C1107 C1108 1.396 . S
C1107 C1117 1.510 . S
C1108 C1104 1.401 . S
C1108 C1107 1.396 . S
C1109 C1104 1.499 . S
C1109 H1110 0.959 . S
C1109 H1111 0.980 . S
C1109 H1112 0.957 1_455 S
H1110 C1109 0.959 . S
H1111 C1109 0.980 . S
H1112 C1109 0.957 1_655 S
O1113 Co1088 1.967 . S
O1113 C1121 1.258 . S
O1114 Co1089 1.941 . S
O1114 C1121 1.266 . S
H1115 C1117 0.959 . S
H1116 C1117 0.961 . S
C1117 C1107 1.510 . S
C1117 H1115 0.959 . S
C1117 H1116 0.961 . S
C1117 H1118 0.960 . S
H1118 C1117 0.960 . S
H1119 N1099 0.862 . S
O1120 Co1088 1.920 . S
O1120 C1093 1.289 1_556 S
C1121 O1113 1.258 . S
C1121 O1114 1.266 . S
Co1122 O1125 1.970 . S
Co1122 N1139 1.989 . S
Co1122 O1147 1.967 . S
Co1122 O1154 1.920 . S
Co1123 O1126 1.966 . S
Co1123 N1132 2.022 . S
Co1123 N1140 1.993 . S
Co1123 O1148 1.941 . S
C1124 O1125 1.258 . S
C1124 O1126 1.263 . S
O1125 Co1122 1.970 . S
O1125 C1124 1.258 . S
O1126 Co1123 1.966 . S
O1126 C1124 1.263 . S
C1127 O1128 1.235 . S
C1127 O1154 1.289 . S
O1128 C1127 1.235 . S
C1129 C1131 1.400 . S
C1129 N1132 1.351 1_554 S
C1129 C1134 1.501 . S
C1130 C1131 1.387 . S
C1130 N1133 1.341 . S
C1131 C1129 1.400 . S
C1131 C1130 1.387 . S
N1132 Co1123 2.022 . S
N1132 C1129 1.351 1_556 S
N1132 N1133 1.365 1_556 S
N1133 C1130 1.341 . S
N1133 N1132 1.365 1_554 S
N1133 H1153 0.862 . S
C1134 C1129 1.501 . S
C1134 H1135 0.961 1_554 S
C1134 H1136 0.961 . S
C1134 H1137 0.960 . S
H1135 C1134 0.961 1_556 S
H1136 C1134 0.961 . S
H1137 C1134 0.960 . S
C1138 N1139 1.342 . S
C1138 C1142 1.401 . S
C1138 C1143 1.499 . S
N1139 Co1122 1.989 . S
N1139 C1138 1.342 . S
N1139 N1140 1.388 . S
N1140 Co1123 1.993 . S
N1140 N1139 1.388 . S
N1140 C1141 1.346 . S
C1141 N1140 1.346 . S
C1141 C1142 1.396 . S
C1141 C1151 1.510 . S
C1142 C1138 1.401 . S
C1142 C1141 1.396 . S
C1143 C1138 1.499 . S
C1143 H1144 0.959 . S
C1143 H1145 0.960 . S
C1143 H1146 0.961 . S
H1144 C1143 0.959 . S
H1145 C1143 0.960 . S
H1146 C1143 0.961 . S
O1147 Co1122 1.967 . S
O1147 C1155 1.258 . S
O1148 Co1123 1.941 . S
O1148 C1155 1.266 . S
H1149 C1151 0.959 . S
H1150 C1151 0.961 . S
C1151 C1141 1.510 . S
C1151 H1149 0.959 . S
C1151 H1150 0.961 . S
C1151 H1152 0.960 . S
H1152 C1151 0.960 . S
H1153 N1133 0.862 . S
O1154 Co1122 1.920 . S
O1154 C1127 1.289 . S
C1155 O1147 1.258 . S
C1155 O1148 1.266 . S
Co1156 O1159 1.970 . S
Co1156 N1173 1.989 . S
Co1156 O1181 1.967 . S
Co1156 O1188 1.920 . S
Co1157 O1160 1.966 . S
Co1157 N1166 2.022 . S
Co1157 N1174 1.993 . S
Co1157 O1182 1.941 . S
C1158 O1159 1.258 . S
C1158 O1160 1.263 . S
O1159 Co1156 1.970 . S
O1159 C1158 1.258 . S
O1160 Co1157 1.966 . S
O1160 C1158 1.263 . S
C1161 O1162 1.235 . S
C1161 O1188 1.289 . S
O1162 C1161 1.235 . S
C1163 C1165 1.400 . S
C1163 N1166 1.351 1_554 S
C1163 C1168 1.501 . S
C1164 C1165 1.387 . S
C1164 N1167 1.341 . S
C1165 C1163 1.400 . S
C1165 C1164 1.387 . S
N1166 Co1157 2.022 . S
N1166 C1163 1.351 1_556 S
N1166 N1167 1.365 1_556 S
N1167 C1164 1.341 . S
N1167 N1166 1.365 1_554 S
N1167 H1187 0.862 . S
C1168 C1163 1.501 . S
C1168 H1169 0.961 1_554 S
C1168 H1170 0.961 . S
C1168 H1171 0.960 . S
H1169 C1168 0.961 1_556 S
H1170 C1168 0.961 . S
H1171 C1168 0.960 . S
C1172 N1173 1.342 . S
C1172 C1176 1.401 . S
C1172 C1177 1.499 . S
N1173 Co1156 1.989 . S
N1173 C1172 1.342 . S
N1173 N1174 1.388 . S
N1174 Co1157 1.993 . S
N1174 N1173 1.388 . S
N1174 C1175 1.346 . S
C1175 N1174 1.346 . S
C1175 C1176 1.396 . S
C1175 C1185 1.510 . S
C1176 C1172 1.401 . S
C1176 C1175 1.396 . S
C1177 C1172 1.499 . S
C1177 H1178 0.959 . S
C1177 H1179 0.960 . S
C1177 H1180 0.961 . S
H1178 C1177 0.959 . S
H1179 C1177 0.960 . S
H1180 C1177 0.961 . S
O1181 Co1156 1.967 . S
O1181 C1189 1.258 . S
O1182 Co1157 1.941 . S
O1182 C1189 1.266 . S
H1183 C1185 0.959 . S
H1184 C1185 0.961 . S
C1185 C1175 1.510 . S
C1185 H1183 0.959 . S
C1185 H1184 0.961 . S
C1185 H1186 0.960 . S
H1186 C1185 0.960 . S
H1187 N1167 0.862 . S
O1188 Co1156 1.920 . S
O1188 C1161 1.289 . S
C1189 O1181 1.258 . S
C1189 O1182 1.266 . S
Co1190 O1193 1.970 . S
Co1190 N1207 1.989 . S
Co1190 O1215 1.967 . S
Co1190 O1222 1.920 . S
Co1191 O1194 1.966 . S
Co1191 N1200 2.022 . S
Co1191 N1208 1.993 . S
Co1191 O1216 1.941 . S
C1192 O1193 1.258 . S
C1192 O1194 1.263 . S
O1193 Co1190 1.970 . S
O1193 C1192 1.258 . S
O1194 Co1191 1.966 . S
O1194 C1192 1.263 . S
C1195 O1196 1.235 . S
C1195 O1222 1.289 . S
O1196 C1195 1.235 . S
C1197 C1199 1.400 . S
C1197 N1200 1.351 1_554 S
C1197 C1202 1.501 . S
C1198 C1199 1.387 . S
C1198 N1201 1.341 . S
C1199 C1197 1.400 . S
C1199 C1198 1.387 . S
N1200 Co1191 2.022 . S
N1200 C1197 1.351 1_556 S
N1200 N1201 1.365 1_556 S
N1201 C1198 1.341 . S
N1201 N1200 1.365 1_554 S
N1201 H1221 0.862 . S
C1202 C1197 1.501 . S
C1202 H1203 0.961 1_554 S
C1202 H1204 0.961 . S
C1202 H1205 0.960 . S
H1203 C1202 0.961 1_556 S
H1204 C1202 0.961 . S
H1205 C1202 0.960 . S
C1206 N1207 1.342 . S
C1206 C1210 1.401 . S
C1206 C1211 1.499 . S
N1207 Co1190 1.989 . S
N1207 C1206 1.342 . S
N1207 N1208 1.388 . S
N1208 Co1191 1.993 . S
N1208 N1207 1.388 . S
N1208 C1209 1.346 . S
C1209 N1208 1.346 . S
C1209 C1210 1.396 . S
C1209 C1219 1.510 . S
C1210 C1206 1.401 . S
C1210 C1209 1.396 . S
C1211 C1206 1.499 . S
C1211 H1212 0.959 . S
C1211 H1213 0.960 . S
C1211 H1214 0.961 . S
H1212 C1211 0.959 . S
H1213 C1211 0.960 . S
H1214 C1211 0.961 . S
O1215 Co1190 1.967 . S
O1215 C1223 1.258 . S
O1216 Co1191 1.941 . S
O1216 C1223 1.266 . S
H1217 C1219 0.959 . S
H1218 C1219 0.961 . S
C1219 C1209 1.510 . S
C1219 H1217 0.959 . S
C1219 H1218 0.961 . S
C1219 H1220 0.960 . S
H1220 C1219 0.960 . S
H1221 N1201 0.862 . S
O1222 Co1190 1.920 . S
O1222 C1195 1.289 . S
C1223 O1215 1.258 . S
C1223 O1216 1.266 . S
C20 C530 2.351 . S
C564 C54 2.351 . S
C88 C598 2.351 . S
C836 C122 2.351 . S
C870 C156 2.351 . S
C190 C904 2.351 . S
C224 C1142 2.351 . S
C1176 C258 2.351 . S
C292 C1210 2.351 . S
C632 C326 2.351 . S
C360 C666 2.351 . S
C700 C394 2.351 . S
C428 C938 2.351 . S
C462 C972 2.350 1_545 S
C1006 C496 2.350 1_455 S
C1040 C734 2.350 . S
C1074 C768 2.350 1_565 S
C802 C1108 2.350 1_655 S
C2 C376 1.583 . S
C36 C308 1.583 . S
C70 C342 1.584 . S
C240 C104 1.583 . S
C274 C138 1.584 . S
C172 C206 1.583 . S
C410 C784 1.583 . S
C716 C444 1.583 . S
C478 C750 1.584 . S
C512 C648 1.583 . S
C546 C682 1.584 . S
C580 C614 1.583 . S
C818 C1192 1.583 . S
C1124 C852 1.583 . S
C1158 C886 1.584 . S
C1056 C920 1.583 . S
C954 C1090 1.584 . S
C988 C1022 1.583 . S
C1019 C33 2.263 . S
C67 C951 2.263 . S
C101 C985 2.263 . S
C475 C135 2.263 . S
C169 C509 2.263 . S
C203 C441 2.263 . S
C815 C237 2.263 . S
C271 C747 2.263 . S
C781 C305 2.263 . S
C1087 C339 2.263 . S
C1121 C373 2.263 . S
C1053 C407 2.263 . S
C543 C883 2.263 1_455 S
C917 C577 2.263 . S
C611 C849 2.263 1_565 S
C645 C1223 2.263 1_565 S
C679 C1155 2.263 1_455 S
C713 C1189 2.263 . S
C9 C5 2.551 . S
C43 C39 2.550 . S
C77 C73 2.550 . S
C107 C111 2.551 . S
C145 C141 2.550 . S
C175 C179 2.550 . S
C213 C209 2.551 . S
C243 C247 2.550 . S
C277 C281 2.550 . S
C315 C311 2.551 . S
C349 C345 2.550 . S
C379 C383 2.550 . S
C413 C417 2.550 . S
C447 C451 2.550 . S
C485 C481 2.550 . S
C515 C519 2.551 . S
C549 C553 2.550 . S
C587 C583 2.550 . S
C617 C621 2.551 . S
C655 C651 2.550 . S
C689 C685 2.550 . S
C719 C723 2.550 . S
C753 C757 2.550 . S
C787 C791 2.550 . S
C821 C825 2.551 . S
C855 C859 2.550 . S
C893 C889 2.550 . S
C927 C923 2.550 . S
C961 C957 2.550 . S
C995 C991 2.550 . S
C1029 C1025 2.550 . S
C1063 C1059 2.550 . S
C1093 C1097 2.550 . S
C1131 C1127 2.551 . S
C1165 C1161 2.550 . S
C1195 C1199 2.550 . S
