# Generated by pormake.
# Topology qtz-e, (6)-cn, num edge types: 1
# Building blocks:
#     Node 0, Type 0, BuildingBlock: MIFKUJ_clean_sbu_0, # of connection points: 6
#     Node 1, Type 0, BuildingBlock: MIFKUJ_clean_sbu_0, # of connection points: 6
#     Node 2, Type 0, BuildingBlock: MIFKUJ_clean_sbu_0, # of connection points: 6
#     Node 3, Type 0, BuildingBlock: MIFKUJ_clean_sbu_0, # of connection points: 6
#     Node 4, Type 0, BuildingBlock: MIFKUJ_clean_sbu_0, # of connection points: 6
#     Node 5, Type 0, BuildingBlock: MIFKUJ_clean_sbu_0, # of connection points: 6
#     Edge 6, Type (0, 0), BuildingBlock: FUNLAD_clean_linker_1, # of connection points: 2
#     Edge 7, Type (0, 0), BuildingBlock: FUNLAD_clean_linker_1, # of connection points: 2
#     Edge 8, Type (0, 0), BuildingBlock: FUNLAD_clean_linker_1, # of connection points: 2
#     Edge 9, Type (0, 0), BuildingBlock: FUNLAD_clean_linker_1, # of connection points: 2
#     Edge 10, Type (0, 0), BuildingBlock: FUNLAD_clean_linker_1, # of connection points: 2
#     Edge 11, Type (0, 0), BuildingBlock: FUNLAD_clean_linker_1, # of connection points: 2
#     Edge 12, Type (0, 0), BuildingBlock: FUNLAD_clean_linker_1, # of connection points: 2
#     Edge 13, Type (0, 0), BuildingBlock: FUNLAD_clean_linker_1, # of connection points: 2
#     Edge 14, Type (0, 0), BuildingBlock: FUNLAD_clean_linker_1, # of connection points: 2
#     Edge 15, Type (0, 0), BuildingBlock: FUNLAD_clean_linker_1, # of connection points: 2
#     Edge 16, Type (0, 0), BuildingBlock: FUNLAD_clean_linker_1, # of connection points: 2
#     Edge 17, Type (0, 0), BuildingBlock: FUNLAD_clean_linker_1, # of connection points: 2
#     Edge 18, Type (0, 0), BuildingBlock: FUNLAD_clean_linker_1, # of connection points: 2
#     Edge 19, Type (0, 0), BuildingBlock: FUNLAD_clean_linker_1, # of connection points: 2
#     Edge 20, Type (0, 0), BuildingBlock: FUNLAD_clean_linker_1, # of connection points: 2
#     Edge 21, Type (0, 0), BuildingBlock: FUNLAD_clean_linker_1, # of connection points: 2
#     Edge 22, Type (0, 0), BuildingBlock: FUNLAD_clean_linker_1, # of connection points: 2
#     Edge 23, Type (0, 0), BuildingBlock: FUNLAD_clean_linker_1, # of connection points: 2
# Relax obj value: 0.217
# Max RMSD: 0.225
# Mean RMSD: 0.225
data_MOF--net-qtz-e--node1-MIFKUJ_clean_sbu_0--edge1-FUNLAD_clean_linker_1
_symmetry_space_group_name_H-M    P1
_symmetry_Int_Tables_number       1
_symmetry_cell_setting            triclinic
loop_
_symmetry_equiv_pos_as_xyz
'x, y, z'
_cell_length_a     25.303504
_cell_length_b     25.359603
_cell_length_c     44.752096
_cell_angle_alpha  90.139133
_cell_angle_beta   90.105922
_cell_angle_gamma 120.06851
loop_
_atom_site_label
_atom_site_type_symbol
_atom_site_fract_x
_atom_site_fract_y
_atom_site_fract_z
_atom_type_partial_charge
Zn0 Zn 0.18655 0.33073 0.97187 0.0
Zn1 Zn 0.18885 0.36261 0.06452 0.0
C2 C 0.266 0.43989 0.93743 0.0
O3 O 0.23373 0.46248 0.94888 0.0
C4 C 0.15664 0.27955 0.11143 0.0
O5 O 0.21302 0.31962 0.1189 0.0
O6 O 0.14491 0.24976 0.95113 0.0
O7 O 0.21707 0.33007 0.0125 0.0
O8 O 0.26871 0.3677 0.05301 0.0
C9 C 0.1792 0.2289 0.94358 0.0
O10 O 0.23484 0.25463 0.95467 0.0
O11 O 0.25399 0.38662 0.94439 0.0
C12 C 0.1655 0.43173 0.1079 0.0
O13 O 0.11028 0.38406 0.10631 0.0
O14 O 0.20774 0.43325 0.09198 0.0
O15 O 0.145 0.37006 0.02745 0.0
O16 O 0.12684 0.35973 0.97874 0.0
O17 O 0.13518 0.28594 0.08691 0.0
C18 C 0.26861 0.35693 0.02536 0.0
C19 C 0.11759 0.37483 0.00456 0.0
Zn20 Zn 0.80754 0.17372 0.32941 0.0
Zn21 Zn 0.77425 0.21108 0.39027 0.0
C22 C 0.7712 0.22005 0.27904 0.0
O23 O 0.75778 0.16753 0.26692 0.0
C24 C 0.84693 0.16927 0.4184 0.0
O25 O 0.88139 0.22798 0.42356 0.0
O26 O 0.83573 0.13482 0.29905 0.0
O27 O 0.88192 0.22965 0.35438 0.0
O28 O 0.84397 0.28422 0.37271 0.0
C29 C 0.8818 0.17249 0.28412 0.0
O30 O 0.90798 0.2308 0.29074 0.0
O31 O 0.7897 0.23121 0.30595 0.0
C32 C 0.6993 0.18237 0.44022 0.0
O33 O 0.67935 0.12927 0.42717 0.0
O34 O 0.74335 0.22962 0.42843 0.0
O35 O 0.70277 0.17322 0.36303 0.0
O36 O 0.728 0.10696 0.34687 0.0
O37 O 0.79922 0.15054 0.40251 0.0
C38 C 0.88815 0.28119 0.3611 0.0
C39 C 0.68744 0.12072 0.35317 0.0
Zn40 Zn 0.64184 0.82914 0.63322 0.0
Zn41 Zn 0.60461 0.80122 0.72043 0.0
C42 C 0.57396 0.81009 0.58055 0.0
O43 O 0.61568 0.79725 0.5717 0.0
C44 C 0.70603 0.84565 0.75659 0.0
O45 O 0.67721 0.87317 0.76657 0.0
O46 O 0.72133 0.87472 0.6111 0.0
O47 O 0.64898 0.8661 0.67329 0.0
O48 O 0.61242 0.88287 0.71335 0.0
C49 C 0.72721 0.92359 0.60033 0.0
O50 O 0.68577 0.93868 0.60653 0.0
O51 O 0.5744 0.82622 0.60754 0.0
C52 C 0.54062 0.71224 0.76554 0.0
O53 O 0.57686 0.69214 0.75664 0.0
O54 O 0.54358 0.75848 0.753 0.0
O55 O 0.57073 0.75476 0.68124 0.0
O56 O 0.61678 0.74184 0.64295 0.0
O57 O 0.68502 0.81143 0.73375 0.0
C58 C 0.62569 0.89428 0.68594 0.0
C59 C 0.58634 0.72145 0.66704 0.0
Zn60 Zn 0.80297 0.62682 0.97097 0.0
Zn61 Zn 0.78939 0.57323 0.05723 0.0
C62 C 0.77293 0.5422 0.9237 0.0
O63 O 0.83239 0.57421 0.92034 0.0
C64 C 0.83343 0.67682 0.09539 0.0
O65 O 0.77528 0.64934 0.10249 0.0
O66 O 0.83017 0.70338 0.94744 0.0
O67 O 0.7641 0.62372 0.01038 0.0
O68 O 0.71011 0.57074 0.04791 0.0
C69 C 0.81438 0.74303 0.95183 0.0
O70 O 0.77859 0.73675 0.97437 0.0
O71 O 0.74809 0.55539 0.94488 0.0
C72 C 0.80792 0.5137 0.10811 0.0
O73 O 0.85593 0.56771 0.11261 0.0
O74 O 0.77366 0.50489 0.08563 0.0
O75 O 0.81661 0.55883 0.01698 0.0
O76 O 0.877 0.62086 0.9828 0.0
O77 O 0.85089 0.65411 0.07503 0.0
C78 C 0.71168 0.59073 0.02176 0.0
C79 C 0.8699 0.5898 0.00624 0.0
Zn80 Zn 0.12452 0.79171 0.31034 0.0
Zn81 Zn 0.14721 0.77119 0.39729 0.0
C82 C 0.15767 0.72772 0.26759 0.0
O83 O 0.21263 0.77526 0.27073 0.0
C84 C 0.10479 0.85588 0.41313 0.0
O85 O 0.05068 0.81286 0.40426 0.0
O86 O 0.0933 0.83922 0.28804 0.0
O87 O 0.08432 0.76064 0.34965 0.0
O88 O 0.06086 0.70404 0.38881 0.0
C89 C 0.0396 0.83 0.29195 0.0
O90 O 0.00729 0.79627 0.31447 0.0
O91 O 0.11354 0.72475 0.28239 0.0
C92 C 0.23962 0.7875 0.43763 0.0
O93 O 0.26694 0.83845 0.42238 0.0
O94 O 0.18483 0.74809 0.43109 0.0
O95 O 0.1957 0.78022 0.35916 0.0
O96 O 0.21283 0.84318 0.32194 0.0
O97 O 0.15071 0.8487 0.40993 0.0
C98 C 0.05291 0.70827 0.36116 0.0
C99 C 0.23152 0.82905 0.34544 0.0
Zn100 Zn 0.33606 0.1526 0.6514 0.0
Zn101 Zn 0.4036 0.20454 0.71457 0.0
C102 C 0.42926 0.19721 0.60577 0.0
O103 O 0.38413 0.19217 0.58912 0.0
C104 C 0.30537 0.12681 0.75173 0.0
O105 O 0.34206 0.10483 0.7557 0.0
O106 O 0.27629 0.10887 0.61823 0.0
O107 O 0.32474 0.0883 0.68116 0.0
O108 O 0.41853 0.14044 0.69832 0.0
C109 C 0.27813 0.0638 0.60698 0.0
O110 O 0.31575 0.04759 0.61822 0.0
O111 O 0.42062 0.18549 0.6335 0.0
C112 C 0.44498 0.2777 0.76626 0.0
O113 O 0.39518 0.27929 0.75998 0.0
O114 O 0.46099 0.2479 0.74924 0.0
O115 O 0.41965 0.26853 0.68457 0.0
O116 O 0.32816 0.2248 0.66387 0.0
O117 O 0.31899 0.16796 0.73219 0.0
C118 C 0.37442 0.09089 0.68853 0.0
C119 C 0.37889 0.27207 0.66974 0.0
H120 H 0.09918 0.64248 0.24292 0.0
C121 C 0.14611 0.67828 0.2466 0.0
H122 H 0.23834 0.71218 0.23486 0.0
H123 H 0.10267 0.42129 0.19156 0.0
H124 H 0.08119 0.39625 0.244 0.0
H125 H 0.10453 0.47649 0.28154 0.0
H126 H 0.15045 0.58216 0.26691 0.0
C127 C 0.19123 0.67602 0.23204 0.0
C128 C 0.17771 0.62717 0.20975 0.0
C129 C 0.15163 0.56554 0.21884 0.0
C130 C 0.13805 0.51924 0.19719 0.0
C131 C 0.11318 0.45826 0.20695 0.0
C132 C 0.10082 0.44322 0.23704 0.0
C133 C 0.11388 0.48835 0.25815 0.0
C134 C 0.1397 0.5489 0.24936 0.0
H135 H 0.22655 0.51855 0.13099 0.0
C136 C 0.17925 0.48258 0.12848 0.0
H137 H 0.08818 0.44887 0.14227 0.0
H138 H 0.22808 0.74087 0.18497 0.0
H139 H 0.24585 0.76546 0.13234 0.0
H140 H 0.21783 0.68464 0.09456 0.0
H141 H 0.17264 0.5789 0.10924 0.0
C142 C 0.13541 0.48532 0.14414 0.0
C143 C 0.15022 0.5345 0.16651 0.0
C144 C 0.17548 0.59606 0.1574 0.0
C145 C 0.19025 0.64252 0.17912 0.0
C146 C 0.21595 0.70369 0.16947 0.0
C147 C 0.22622 0.71848 0.13929 0.0
C148 C 0.21054 0.67299 0.11803 0.0
C149 C 0.18512 0.61243 0.12682 0.0
H150 H 0.52787 0.22651 0.60638 0.0
C151 C 0.48822 0.21225 0.59206 0.0
H152 H 0.45255 0.19163 0.54834 0.0
H153 H 0.67524 0.32725 0.46702 0.0
H154 H 0.62979 0.3913 0.46267 0.0
H155 H 0.54884 0.37952 0.49728 0.0
H156 H 0.51248 0.30314 0.53631 0.0
C157 C 0.49239 0.20559 0.5625 0.0
C158 C 0.55053 0.22121 0.54702 0.0
C159 C 0.57284 0.2674 0.52493 0.0
C160 C 0.62034 0.27498 0.50534 0.0
C161 C 0.63979 0.31985 0.48273 0.0
C162 C 0.61409 0.35701 0.47997 0.0
C163 C 0.56846 0.35033 0.49943 0.0
C164 C 0.54784 0.30611 0.52164 0.0
H165 H 0.62444 0.14454 0.47263 0.0
C166 C 0.66691 0.18552 0.46692 0.0
H167 H 0.72763 0.27749 0.47811 0.0
H168 H 0.52181 0.13022 0.58817 0.0
H169 H 0.57525 0.07454 0.59597 0.0
H170 H 0.66289 0.09363 0.56436 0.0
H171 H 0.69712 0.16846 0.52448 0.0
C172 C 0.68591 0.2358 0.48376 0.0
C173 C 0.64596 0.23671 0.50807 0.0
C174 C 0.6284 0.19518 0.53227 0.0
C175 C 0.57957 0.18622 0.55135 0.0
C176 C 0.56014 0.14101 0.5738 0.0
C177 C 0.59023 0.10831 0.57841 0.0
C178 C 0.63943 0.11889 0.56056 0.0
C179 C 0.65835 0.16161 0.53765 0.0
H180 H 0.3395 0.45287 0.90679 0.0
C181 C 0.31414 0.47388 0.91532 0.0
H182 H 0.29869 0.54811 0.91156 0.0
H183 H 0.56969 0.66277 0.8473 0.0
H184 H 0.60829 0.66711 0.89745 0.0
H185 H 0.53763 0.62053 0.93979 0.0
H186 H 0.42796 0.57012 0.93227 0.0
C187 C 0.32529 0.52757 0.90431 0.0
C188 C 0.36836 0.55585 0.87907 0.0
C189 C 0.43226 0.58455 0.88388 0.0
C190 C 0.47295 0.61057 0.8594 0.0
C191 C 0.53664 0.64112 0.86498 0.0
C192 C 0.55944 0.64416 0.89369 0.0
C193 C 0.51967 0.61789 0.91751 0.0
C194 C 0.45679 0.58879 0.91285 0.0
H195 H 0.46795 0.70069 0.79646 0.0
C196 C 0.49709 0.68241 0.79008 0.0
H197 H 0.52286 0.61671 0.79937 0.0
H198 H 0.2483 0.50452 0.86245 0.0
H199 H 0.20939 0.49545 0.81201 0.0
H200 H 0.27965 0.53464 0.76911 0.0
H201 H 0.38914 0.5839 0.77644 0.0
C202 C 0.49257 0.63418 0.80472 0.0
C203 C 0.44958 0.60649 0.83013 0.0
C204 C 0.38552 0.57634 0.82526 0.0
C205 C 0.34495 0.5522 0.84988 0.0
C206 C 0.28122 0.52336 0.84453 0.0
C207 C 0.25822 0.51771 0.81568 0.0
C208 C 0.29778 0.53988 0.79154 0.0
C209 C 0.36066 0.56859 0.79611 0.0
H210 H 0.78292 0.31141 0.27175 0.0
C211 C 0.77315 0.26921 0.2607 0.0
H212 H 0.76266 0.22484 0.21919 0.0
H213 H 0.70826 0.43666 0.17036 0.0
H214 H 0.6064 0.36985 0.18933 0.0
H215 H 0.58364 0.27872 0.21873 0.0
H216 H 0.66305 0.25436 0.22964 0.0
C217 C 0.76943 0.26549 0.23076 0.0
C218 C 0.78243 0.3194 0.21243 0.0
C219 C 0.73532 0.33213 0.20562 0.0
C220 C 0.74806 0.38354 0.1878 0.0
C221 C 0.70069 0.3968 0.18262 0.0
C222 C 0.64208 0.35912 0.19365 0.0
C223 C 0.6293 0.30791 0.21027 0.0
C224 C 0.67525 0.29445 0.21636 0.0
H225 H 0.75916 0.41738 0.12213 0.0
C226 C 0.79356 0.46321 0.12883 0.0
H227 H 0.85555 0.51817 0.16243 0.0
H228 H 0.8833 0.30884 0.22252 0.0
H229 H 0.98488 0.37439 0.20332 0.0
H230 H 0.00777 0.46419 0.17256 0.0
H231 H 0.92833 0.48707 0.16001 0.0
C232 C 0.82079 0.47255 0.1557 0.0
C233 C 0.80764 0.42108 0.17612 0.0
C234 C 0.85521 0.40935 0.18382 0.0
C235 C 0.84236 0.35806 0.20172 0.0
C236 C 0.89041 0.34681 0.20874 0.0
C237 C 0.94921 0.38453 0.19809 0.0
C238 C 0.96196 0.43487 0.18075 0.0
C239 C 0.91579 0.44746 0.1737 0.0
H240 H 0.53605 0.80002 0.53532 0.0
C241 C 0.52889 0.80683 0.55864 0.0
H242 H 0.47231 0.81827 0.5893 0.0
H243 H 0.35699 0.91424 0.49322 0.0
H244 H 0.40743 0.00037 0.52705 0.0
H245 H 0.47228 0.00014 0.56815 0.0
H246 H 0.48786 0.91431 0.5755 0.0
C247 C 0.47956 0.8106 0.5662 0.0
C248 C 0.43624 0.80836 0.54286 0.0
C249 C 0.4291 0.85975 0.53836 0.0
C250 C 0.39253 0.86026 0.51428 0.0
C251 C 0.38522 0.91179 0.51072 0.0
C252 C 0.41378 0.96154 0.53004 0.0
C253 C 0.45043 0.9615 0.55314 0.0
C254 C 0.45861 0.91163 0.55721 0.0
H255 H 0.24494 0.73994 0.478 0.0
C256 C 0.27133 0.77751 0.46284 0.0
H257 H 0.35755 0.85247 0.45251 0.0
H258 H 0.42867 0.69734 0.54923 0.0
H259 H 0.38035 0.61182 0.5149 0.0
H260 H 0.32711 0.61718 0.46977 0.0
H261 H 0.32032 0.7072 0.45922 0.0
C262 C 0.33158 0.81443 0.46747 0.0
C263 C 0.36421 0.80996 0.49429 0.0
C264 C 0.37027 0.75792 0.49919 0.0
C265 C 0.40446 0.75634 0.52414 0.0
C266 C 0.40617 0.70225 0.52975 0.0
C267 C 0.37818 0.65261 0.51036 0.0
C268 C 0.34796 0.65553 0.48504 0.0
C269 C 0.344 0.70744 0.47937 0.0
H270 H 0.75932 0.49033 0.88209 0.0
C271 C 0.73586 0.4958 0.90114 0.0
H272 H 0.65037 0.47058 0.92044 0.0
H273 H 0.53609 0.42782 0.78991 0.0
H274 H 0.54077 0.52251 0.80401 0.0
H275 H 0.59395 0.57666 0.84987 0.0
H276 H 0.6397 0.53555 0.88287 0.0
C277 C 0.67466 0.46403 0.90213 0.0
C278 C 0.63891 0.42795 0.87577 0.0
C279 C 0.61176 0.45228 0.85675 0.0
C280 C 0.58039 0.42027 0.83044 0.0
C281 C 0.55693 0.44785 0.81109 0.0
C282 C 0.56054 0.50294 0.81853 0.0
C283 C 0.59008 0.53336 0.84449 0.0
C284 C 0.61629 0.50913 0.86322 0.0
H285 H 0.45752 0.32318 0.80965 0.0
C286 C 0.48018 0.30995 0.7931 0.0
H287 H 0.56231 0.3139 0.78052 0.0
H288 H 0.68348 0.36777 0.90838 0.0
H289 H 0.67313 0.26952 0.89655 0.0
H290 H 0.61705 0.21254 0.85151 0.0
H291 H 0.5711 0.25331 0.818 0.0
C292 C 0.5393 0.32708 0.79687 0.0
C293 C 0.57422 0.36253 0.82377 0.0
C294 C 0.6012 0.3381 0.84304 0.0
C295 C 0.63355 0.37088 0.86905 0.0
C296 C 0.65913 0.34505 0.88815 0.0
C297 C 0.65329 0.28861 0.8817 0.0
C298 C 0.6217 0.25652 0.85634 0.0
C299 C 0.5957 0.28061 0.83721 0.0
H300 H 0.32412 0.40769 0.98637 0.0
C301 C 0.32576 0.39141 0.00846 0.0
H302 H 0.38093 0.39441 0.04418 0.0
H303 H 0.59471 0.53217 0.94071 0.0
H304 H 0.5357 0.44467 0.90779 0.0
H305 H 0.4329 0.36363 0.92175 0.0
H306 H 0.38753 0.3683 0.96853 0.0
C307 C 0.3799 0.4099 0.02165 0.0
C308 C 0.438 0.46122 0.00996 0.0
C309 C 0.46394 0.45656 0.98268 0.0
C310 C 0.52423 0.50254 0.97493 0.0
C311 C 0.54948 0.49756 0.94766 0.0
C312 C 0.51622 0.4481 0.92862 0.0
C313 C 0.45808 0.40232 0.93648 0.0
C314 C 0.4323 0.40587 0.96334 0.0
H315 H 0.62989 0.50891 0.00702 0.0
C316 C 0.65604 0.55797 0.00362 0.0
H317 H 0.65054 0.63544 0.99234 0.0
H318 H 0.39686 0.49061 0.0605 0.0
H319 H 0.4545 0.57912 0.09213 0.0
H320 H 0.5602 0.65668 0.07943 0.0
H321 H 0.60856 0.64633 0.0349 0.0
C322 C 0.62675 0.58598 0.99325 0.0
C323 C 0.55879 0.5516 0.99479 0.0
C324 C 0.5305 0.55947 0.02037 0.0
C325 C 0.47004 0.51427 0.02794 0.0
C326 C 0.44324 0.52276 0.05398 0.0
C327 C 0.47567 0.57359 0.07229 0.0
C328 C 0.53513 0.61726 0.06512 0.0
C329 C 0.56242 0.61059 0.0395 0.0
H330 H 0.98505 0.6166 0.34656 0.0
C331 C 0.03193 0.65286 0.34333 0.0
H332 H 0.1212 0.67404 0.33216 0.0
H333 H 0.0389 0.41319 0.38565 0.0
H334 H 0.12553 0.48011 0.41707 0.0
H335 H 0.18282 0.59104 0.40823 0.0
H336 H 0.15372 0.63566 0.36811 0.0
C337 C 0.07322 0.63933 0.33243 0.0
C338 C 0.0567 0.57461 0.3297 0.0
C339 C 0.07724 0.54936 0.35199 0.0
C340 C 0.04458 0.48552 0.357 0.0
C341 C 0.06251 0.46141 0.38086 0.0
C342 C 0.11215 0.4993 0.399 0.0
C343 C 0.14441 0.56177 0.39402 0.0
C344 C 0.12717 0.58682 0.37092 0.0
H345 H 0.98171 0.33514 0.34243 0.0
C346 C 0.9431 0.33747 0.35148 0.0
H347 H 0.90312 0.39184 0.35923 0.0
H348 H 0.01851 0.60822 0.28005 0.0
H349 H 0.93838 0.54013 0.24548 0.0
H350 H 0.88235 0.42906 0.25393 0.0
H351 H 0.90773 0.38501 0.29612 0.0
C352 C 0.94317 0.39037 0.35168 0.0
C353 C -0.00724 0.44789 0.33925 0.0
C354 C 0.97965 0.47214 0.31372 0.0
C355 C 0.01148 0.53593 0.30901 0.0
C356 C -0.0044 0.55979 0.2843 0.0
C357 C 0.94984 0.52127 0.26443 0.0
C358 C 0.91847 0.45865 0.26909 0.0
C359 C 0.93297 0.43404 0.29345 0.0
H360 H 0.37258 0.00348 0.69136 0.0
C361 C 0.38763 0.04416 0.67793 0.0
H362 H 0.44572 0.10036 0.64383 0.0
H363 H 0.63305 0.02761 0.69707 0.0
H364 H 0.67801 0.13268 0.71281 0.0
H365 H 0.62769 0.19214 0.70132 0.0
H366 H 0.53167 0.1463 0.67433 0.0
C367 C 0.42894 0.05816 0.65615 0.0
C368 C 0.46548 0.02759 0.65508 0.0
C369 C 0.5237 0.0566 0.66896 0.0
C370 C 0.55323 0.02279 0.67498 0.0
C371 C 0.60903 0.05129 0.69117 0.0
C372 C 0.63539 0.11173 0.70047 0.0
C373 C 0.60705 0.14516 0.69405 0.0
C374 C 0.55183 0.11817 0.67855 0.0
H375 H 0.62239 0.95078 0.64908 0.0
C376 C 0.59909 0.92445 0.66872 0.0
H377 H 0.52299 0.89341 0.69731 0.0
H378 H 0.36074 0.96423 0.62252 0.0
H379 H 0.31643 0.85936 0.60502 0.0
H380 H 0.36725 0.7999 0.61561 0.0
H381 H 0.46314 0.84517 0.64335 0.0
C382 C 0.54787 0.92204 0.67846 0.0
C383 C 0.52504 0.96079 0.66614 0.0
C384 C 0.46957 0.93367 0.6498 0.0
C385 C 0.43983 0.96743 0.64407 0.0
C386 C 0.38435 0.93973 0.62782 0.0
C387 C 0.35866 0.87983 0.61765 0.0
C388 C 0.38731 0.84636 0.62361 0.0
C389 C 0.44216 0.87274 0.63954 0.0
H390 H 0.51673 0.641 0.69032 0.0
C391 C 0.54946 0.6557 0.67211 0.0
H392 H 0.57959 0.628 0.6345 0.0
H393 H 0.39053 0.38383 0.71861 0.0
H394 H 0.46125 0.43279 0.75974 0.0
H395 H 0.55487 0.53302 0.75273 0.0
H396 H 0.57501 0.58601 0.70571 0.0
C397 C 0.54906 0.61393 0.65358 0.0
C398 C 0.50018 0.54906 0.65617 0.0
C399 C 0.4912 0.51731 0.68349 0.0
C400 C 0.44033 0.45785 0.68674 0.0
C401 C 0.42991 0.42836 0.71474 0.0
C402 C 0.47019 0.45592 0.7385 0.0
C403 C 0.52233 0.51242 0.73469 0.0
C404 C 0.53308 0.54281 0.70756 0.0
H405 H 0.44158 0.35581 0.64706 0.0
C406 C 0.39563 0.33055 0.65621 0.0
H407 H 0.323 0.33815 0.67463 0.0
H408 H 0.50087 0.5979 0.60121 0.0
H409 H 0.43172 0.546 0.55994 0.0
H410 H 0.34896 0.43914 0.56469 0.0
H411 H 0.33426 0.3839 0.61126 0.0
C412 C 0.36591 0.36037 0.6625 0.0
C413 C 0.40251 0.42772 0.66183 0.0
C414 C 0.41102 0.45906 0.63463 0.0
C415 C 0.45942 0.52022 0.63185 0.0
C416 C 0.46569 0.55102 0.60455 0.0
C417 C 0.42617 0.52177 0.58065 0.0
C418 C 0.37956 0.46159 0.58331 0.0
C419 C 0.37182 0.43035 0.60998 0.0
H420 H 0.04583 0.39222 0.98854 0.0
C421 C 0.0764 0.39963 0.00721 0.0
H422 H 0.10954 0.4434 0.04895 0.0
H423 H 0.95982 0.55339 0.96879 0.0
H424 H 0.04172 0.58528 0.93318 0.0
H425 H 0.12772 0.56769 0.94279 0.0
H426 H 0.13002 0.51503 0.98756 0.0
C427 C 0.0791 0.43521 0.03016 0.0
C428 C 0.0404 0.46415 0.03002 0.0
C429 C 0.04371 0.5014 0.00567 0.0
C430 C -0.00215 0.51743 0.00181 0.0
C431 C -0.00332 0.54549 0.97461 0.0
C432 C 0.04303 0.56317 0.9536 0.0
C433 C 0.09115 0.55286 0.95889 0.0
C434 C 0.09163 0.52217 0.98454 0.0
H435 H 0.96559 0.61408 0.01367 0.0
C436 C 0.9184 0.57772 0.0156 0.0
H437 H 0.858 0.48399 0.0222 0.0
H438 H 0.02432 0.39745 0.08061 0.0
H439 H 0.94728 0.3724 0.11867 0.0
H440 H 0.8722 0.40692 0.11407 0.0
H441 H 0.8753 0.46868 0.07219 0.0
C442 C 0.90538 0.52038 0.02111 0.0
C443 C 0.95343 0.50326 0.02449 0.0
C444 C 0.95285 0.46966 0.04996 0.0
C445 C -0.0039 0.44967 0.0526 0.0
C446 C -0.00699 0.41427 0.07766 0.0
C447 C 0.94891 0.39945 0.09964 0.0
C448 C 0.90686 0.41917 0.09715 0.0
C449 C 0.9089 0.45428 0.07282 0.0
H450 H 0.31226 0.8345 0.367 0.0
C451 C 0.29722 0.8568 0.35117 0.0
H452 H 0.32442 0.92804 0.32005 0.0
H453 H 0.57363 0.00404 0.40263 0.0
H454 H 0.51509 0.00363 0.44582 0.0
H455 H 0.40627 0.97298 0.44059 0.0
H456 H 0.35509 0.94086 0.39263 0.0
C457 C 0.3387 0.90653 0.3367 0.0
C458 C 0.40487 0.92872 0.34015 0.0
C459 C 0.43434 0.95029 0.3682 0.0
C460 C 0.49777 0.97173 0.37086 0.0
C461 C 0.52591 0.9898 0.39932 0.0
C462 C 0.49284 0.98947 0.42424 0.0
C463 C 0.43154 0.97195 0.42132 0.0
C464 C 0.40248 0.95287 0.39367 0.0
H465 H 0.59086 0.0932 0.35495 0.0
C466 C 0.62221 0.07628 0.35103 0.0
H467 H 0.62941 -0.00172 0.34132 0.0
H468 H 0.36096 0.88328 0.28414 0.0
H469 H 0.42054 0.88472 0.24144 0.0
H470 H 0.53206 0.92837 0.24563 0.0
H471 H 0.58453 0.97018 0.29278 0.0
C472 C 0.59963 0.01671 0.34583 0.0
C473 C 0.53234 0.97637 0.3451 0.0
C474 C 0.50259 0.95183 0.31755 0.0
C475 C 0.43856 0.92764 0.31507 0.0
C476 C 0.40971 0.90319 0.28723 0.0
C477 C 0.44335 0.90357 0.26254 0.0
C478 C 0.50613 0.92812 0.2649 0.0
C479 C 0.53569 0.95213 0.29203 0.0
H480 H 0.25974 0.08949 0.79434 0.0
C481 C 0.26061 0.11646 0.77529 0.0
H482 H 0.23428 0.17754 0.75871 0.0
H483 H 0.1169 0.07077 0.89633 0.0
H484 H 0.04992 0.97401 0.87176 0.0
H485 H 0.05663 0.96187 0.8174 0.0
H486 H 0.13098 0.04649 0.78725 0.0
C487 C 0.23222 0.14912 0.77729 0.0
C488 C 0.214 0.15997 0.80732 0.0
C489 C 0.16969 0.11073 0.82447 0.0
C490 C 0.16492 0.11814 0.85569 0.0
C491 C 0.12169 0.06774 0.87247 0.0
C492 C 0.08309 0.01202 0.85865 0.0
C493 C 0.08698 0.00514 0.82804 0.0
C494 C 0.12991 0.05374 0.81104 0.0
H495 H 0.1221 0.18138 0.90436 0.0
C496 C 0.16377 0.19157 0.91619 0.0
H497 H 0.24873 0.19556 0.91356 0.0
H498 H 0.29284 0.26773 0.77958 0.0
H499 H 0.35513 0.3658 0.80336 0.0
H500 H 0.3484 0.37839 0.85766 0.0
H501 H 0.27956 0.29279 0.88835 0.0
C502 C 0.20567 0.18262 0.90242 0.0
C503 C 0.20418 0.17502 0.86947 0.0
C504 C 0.24429 0.22584 0.85179 0.0
C505 C 0.24846 0.21853 0.82058 0.0
C506 C 0.28882 0.27013 0.80348 0.0
C507 C 0.32451 0.32699 0.81683 0.0
C508 C 0.32072 0.33408 0.84737 0.0
C509 C 0.28107 0.28438 0.86474 0.0
H510 H 0.87673 0.10384 0.25174 0.0
C511 C 0.90076 0.15199 0.25752 0.0
H512 H 0.96613 0.241 0.24437 0.0
H513 H 0.07874 0.11997 0.15653 0.0
H514 H 0.10079 0.07845 0.20086 0.0
H515 H 0.05851 0.08247 0.24993 0.0
H516 H -0.00714 0.12644 0.25492 0.0
C517 C 0.94408 0.19255 0.23938 0.0
C518 C 0.95781 0.17562 0.20992 0.0
C519 C -0.00397 0.14991 0.2077 0.0
C520 C 0.02221 0.1496 0.17971 0.0
C521 C 0.0595 0.12287 0.17764 0.0
C522 C 0.0722 0.09881 0.2028 0.0
C523 C 0.04827 0.10096 0.23042 0.0
C524 C 0.01063 0.12626 0.233 0.0
H525 H 0.13262 0.24717 0.15733 0.0
C526 C 0.11548 0.23843 0.13449 0.0
H527 H 0.03889 0.19083 0.10644 0.0
H528 H 0.8727 0.21127 0.2056 0.0
H529 H 0.84686 0.24826 0.16094 0.0
H530 H 0.89682 0.25358 0.11286 0.0
H531 H 0.97182 0.22134 0.10895 0.0
C532 C 0.05612 0.19883 0.12921 0.0
C533 C 0.01239 0.17765 0.1546 0.0
C534 C 0.96779 0.19586 0.15604 0.0
C535 C 0.94008 0.19427 0.18382 0.0
C536 C 0.89614 0.2132 0.18507 0.0
C537 C 0.8807 0.23414 0.15963 0.0
C538 C 0.90878 0.23706 0.13256 0.0
C539 C 0.95197 0.21842 0.13065 0.0
H540 H 0.81827 0.95943 0.57936 0.0
C541 C 0.77546 0.95965 0.57866 0.0
H542 H 0.72163 0.99004 0.55714 0.0
H543 H 0.89624 0.22526 0.4942 0.0
H544 H 0.86189 0.26288 0.53511 0.0
H545 H 0.8065 0.19663 0.57769 0.0
H546 H 0.78494 0.09213 0.57938 0.0
C547 C 0.76504 0.99089 0.55757 0.0
C548 C 0.81166 0.03257 0.53605 0.0
C549 C 0.82742 0.09466 0.53633 0.0
C550 C 0.86017 0.13302 0.51209 0.0
C551 C 0.87198 0.19394 0.51212 0.0
C552 C 0.85256 0.2163 0.53554 0.0
C553 C 0.82137 0.17902 0.55948 0.0
C554 C 0.80903 0.11901 0.56007 0.0
H555 H 0.81305 0.07916 0.43806 0.0
C556 C 0.85219 0.12515 0.43755 0.0
H557 H 0.93319 0.18955 0.45918 0.0
H558 H 0.79054 0.91567 0.52854 0.0
H559 H 0.82831 0.87955 0.48837 0.0
H560 H 0.89105 0.94864 0.44802 0.0
H561 H 0.91535 0.05454 0.4475 0.0
C562 C 0.8946 0.14333 0.4592 0.0
C563 C 0.87744 0.10913 0.48773 0.0
C564 C 0.86695 0.04887 0.48881 0.0
C565 C 0.83283 0.00987 0.51272 0.0
C566 C 0.81834 0.94822 0.51173 0.0
C567 C 0.83943 0.9267 0.48862 0.0
C568 C 0.8746 0.96554 0.46585 0.0
C569 C 0.88807 0.02595 0.46574 0.0
H570 H 0.77806 0.82279 0.76589 0.0
C571 C 0.75327 0.84381 0.77508 0.0
H572 H 0.73308 0.87852 0.81359 0.0
H573 H 0.80653 0.68939 0.87661 0.0
H574 H 0.73215 0.61045 0.84425 0.0
H575 H 0.67917 0.63492 0.80502 0.0
H576 H 0.70218 0.7381 0.79726 0.0
C577 C 0.75779 0.85747 0.80435 0.0
C578 C 0.79218 0.84147 0.826 0.0
C579 C 0.77467 0.77948 0.83125 0.0
C580 C 0.80216 0.7647 0.85504 0.0
C581 C 0.78604 0.70303 0.85927 0.0
C582 C 0.74315 0.65711 0.84093 0.0
C583 C 0.7137 0.67096 0.81876 0.0
C584 C 0.72831 0.73106 0.8142 0.0
H585 H 0.7959 0.80812 0.92819 0.0
C586 C 0.82422 0.78706 0.92801 0.0
H587 H 0.88514 0.77038 0.90305 0.0
H588 H 0.84228 0.96471 0.81956 0.0
H589 H 0.9195 0.04339 0.8515 0.0
H590 H 0.96224 0.01628 0.89452 0.0
H591 H 0.92804 0.91002 0.9058 0.0
C592 C 0.85778 0.79244 0.90372 0.0
C593 C 0.84288 0.81086 0.87491 0.0
C594 C 0.86282 0.87267 0.86882 0.0
C595 C 0.83789 0.8881 0.84412 0.0
C596 C 0.85912 0.95041 0.83829 0.0
C597 C 0.90355 -0.00403 0.85638 0.0
C598 C 0.92758 0.9807 0.88062 0.0
C599 C 0.90749 0.91974 0.88693 0.0
H600 H 0.95823 0.81917 0.2687 0.0
C601 C 0.00749 0.83952 0.26683 0.0
H602 H 0.08245 0.87491 0.23736 0.0
H603 H 0.89779 0.65798 0.15291 0.0
H604 H 0.95546 0.61494 0.17437 0.0
H605 H 0.03333 0.67051 0.21311 0.0
H606 H 0.0534 0.76913 0.2308 0.0
C607 C 0.03365 0.85695 0.23981 0.0
C608 C -0.0047 0.83062 0.2127 0.0
C609 C 0.98691 0.77466 0.20131 0.0
C610 C 0.94384 0.74385 0.1781 0.0
C611 C 0.93231 0.68525 0.16921 0.0
C612 C 0.96459 0.65948 0.18166 0.0
C613 C 0.00834 0.69068 0.20351 0.0
C614 C 0.01933 0.74737 0.21345 0.0
H615 H 0.92752 0.74337 0.10915 0.0
C616 C 0.87968 0.72477 0.11485 0.0
H617 H 0.81737 0.71944 0.14777 0.0
H618 H 0.00386 0.93866 0.22845 0.0
H619 H 0.9484 0.98399 0.20579 0.0
H620 H 0.87728 0.93315 0.16385 0.0
H621 H 0.85986 0.83599 0.14454 0.0
C622 C 0.8649 0.73761 0.14163 0.0
C623 C 0.91195 0.77099 0.16506 0.0
C624 C 0.92216 0.82805 0.17576 0.0
C625 C 0.96367 0.85775 0.19977 0.0
C626 C 0.97257 0.91428 0.21032 0.0
C627 C 0.94137 0.94086 0.19744 0.0
C628 C 0.90116 0.91213 0.17383 0.0
C629 C 0.89148 0.85637 0.16301 0.0
H630 H 0.25052 -0.0026 0.57055 0.0
C631 C 0.24407 0.03355 0.5797 0.0
H632 H 0.2041 0.08857 0.57304 0.0
H633 H 0.20862 0.04852 0.43264 0.0
H634 H 0.26818 0.1589 0.43738 0.0
H635 H 0.28949 0.20832 0.48696 0.0
H636 H 0.25114 0.14798 0.53205 0.0
C637 C 0.20922 0.05101 0.56487 0.0
C638 C 0.18354 0.02342 0.5352 0.0
C639 C 0.20521 0.05964 0.50914 0.0
C640 C 0.19359 0.03119 0.4806 0.0
C641 C 0.21678 0.06806 0.45487 0.0
C642 C 0.25085 0.13133 0.45728 0.0
C643 C 0.26281 0.15916 0.4852 0.0
C644 C 0.24055 0.12397 0.51092 0.0
H645 H 0.06753 0.90287 0.43998 0.0
C646 C 0.10927 0.90324 0.43383 0.0
H647 H 0.20264 0.93791 0.44391 0.0
H648 H 0.12141 0.94328 0.58001 0.0
H649 H 0.06281 0.83286 0.57575 0.0
H650 H 0.05053 0.78233 0.52698 0.0
H651 H 0.09488 0.84136 0.48233 0.0
C652 C 0.16058 0.9372 0.44969 0.0
C653 C 0.16069 0.96685 0.4783 0.0
C654 C 0.13513 0.93082 0.50427 0.0
C655 C 0.14494 0.95951 0.53262 0.0
C656 C 0.11727 0.9232 0.55814 0.0
C657 C 0.08329 0.85996 0.55598 0.0
C658 C 0.0762 0.83156 0.52851 0.0
C659 C 0.10175 0.86625 0.50292 0.0
loop_
_geom_bond_atom_site_label_1
_geom_bond_atom_site_label_2
_geom_bond_distance
_geom_bond_site_symmetry_2
_ccdc_geom_bond_type
Zn0 O6 1.969 . S
Zn0 O7 1.965 1_556 S
Zn0 O11 2.024 . S
Zn0 O16 1.969 . S
Zn1 O8 1.969 . S
Zn1 O14 1.969 . S
Zn1 O15 1.965 . S
Zn1 O17 2.024 . S
C2 O3 1.229 . S
C2 O11 1.058 . S
O3 C2 1.229 . S
C4 O5 1.229 . S
C4 O17 1.058 . S
O5 C4 1.229 . S
O6 Zn0 1.969 . S
O6 C9 1.267 . S
O7 Zn0 1.965 1_554 S
O7 C18 1.260 . S
O8 Zn1 1.969 . S
O8 C18 1.258 . S
C9 O6 1.267 . S
C9 O10 1.228 . S
O10 C9 1.228 . S
O11 Zn0 2.024 . S
O11 C2 1.058 . S
C12 O13 1.228 . S
C12 O14 1.267 . S
O13 C12 1.228 . S
O14 Zn1 1.969 . S
O14 C12 1.267 . S
O15 Zn1 1.965 . S
O15 C19 1.260 . S
O16 Zn0 1.969 . S
O16 C19 1.258 1_556 S
O17 Zn1 2.024 . S
O17 C4 1.058 . S
C18 O7 1.260 . S
C18 O8 1.258 . S
C19 O15 1.260 . S
C19 O16 1.258 1_554 S
Zn20 O26 1.969 . S
Zn20 O27 1.965 . S
Zn20 O31 2.024 . S
Zn20 O36 1.969 . S
Zn21 O28 1.969 . S
Zn21 O34 1.969 . S
Zn21 O35 1.965 . S
Zn21 O37 2.024 . S
C22 O23 1.229 . S
C22 O31 1.058 . S
O23 C22 1.229 . S
C24 O25 1.229 . S
C24 O37 1.058 . S
O25 C24 1.229 . S
O26 Zn20 1.969 . S
O26 C29 1.267 . S
O27 Zn20 1.965 . S
O27 C38 1.260 . S
O28 Zn21 1.969 . S
O28 C38 1.258 . S
C29 O26 1.267 . S
C29 O30 1.228 . S
O30 C29 1.228 . S
O31 Zn20 2.024 . S
O31 C22 1.058 . S
C32 O33 1.228 . S
C32 O34 1.267 . S
O33 C32 1.228 . S
O34 Zn21 1.969 . S
O34 C32 1.267 . S
O35 Zn21 1.965 . S
O35 C39 1.260 . S
O36 Zn20 1.969 . S
O36 C39 1.258 . S
O37 Zn21 2.024 . S
O37 C24 1.058 . S
C38 O27 1.260 . S
C38 O28 1.258 . S
C39 O35 1.260 . S
C39 O36 1.258 . S
Zn40 O46 1.969 . S
Zn40 O47 1.965 . S
Zn40 O51 2.024 . S
Zn40 O56 1.969 . S
Zn41 O48 1.969 . S
Zn41 O54 1.969 . S
Zn41 O55 1.965 . S
Zn41 O57 2.024 . S
C42 O43 1.229 . S
C42 O51 1.058 . S
O43 C42 1.229 . S
C44 O45 1.229 . S
C44 O57 1.058 . S
O45 C44 1.229 . S
O46 Zn40 1.969 . S
O46 C49 1.267 . S
O47 Zn40 1.965 . S
O47 C58 1.260 . S
O48 Zn41 1.969 . S
O48 C58 1.258 . S
C49 O46 1.267 . S
C49 O50 1.228 . S
O50 C49 1.228 . S
O51 Zn40 2.024 . S
O51 C42 1.058 . S
C52 O53 1.228 . S
C52 O54 1.267 . S
O53 C52 1.228 . S
O54 Zn41 1.969 . S
O54 C52 1.267 . S
O55 Zn41 1.965 . S
O55 C59 1.260 . S
O56 Zn40 1.969 . S
O56 C59 1.258 . S
O57 Zn41 2.024 . S
O57 C44 1.058 . S
C58 O47 1.260 . S
C58 O48 1.258 . S
C59 O55 1.260 . S
C59 O56 1.258 . S
Zn60 O66 1.969 . S
Zn60 O67 1.965 1_556 S
Zn60 O71 2.024 . S
Zn60 O76 1.969 . S
Zn61 O68 1.969 . S
Zn61 O74 1.969 . S
Zn61 O75 1.965 . S
Zn61 O77 2.024 . S
C62 O63 1.229 . S
C62 O71 1.058 . S
O63 C62 1.229 . S
C64 O65 1.229 . S
C64 O77 1.058 . S
O65 C64 1.229 . S
O66 Zn60 1.969 . S
O66 C69 1.267 . S
O67 Zn60 1.965 1_554 S
O67 C78 1.260 . S
O68 Zn61 1.969 . S
O68 C78 1.258 . S
C69 O66 1.267 . S
C69 O70 1.228 . S
O70 C69 1.228 . S
O71 Zn60 2.024 . S
O71 C62 1.058 . S
C72 O73 1.228 . S
C72 O74 1.267 . S
O73 C72 1.228 . S
O74 Zn61 1.969 . S
O74 C72 1.267 . S
O75 Zn61 1.965 . S
O75 C79 1.260 . S
O76 Zn60 1.969 . S
O76 C79 1.258 1_556 S
O77 Zn61 2.024 . S
O77 C64 1.058 . S
C78 O67 1.260 . S
C78 O68 1.258 . S
C79 O75 1.260 . S
C79 O76 1.258 1_554 S
Zn80 O86 1.969 . S
Zn80 O87 1.965 . S
Zn80 O91 2.024 . S
Zn80 O96 1.969 . S
Zn81 O88 1.969 . S
Zn81 O94 1.969 . S
Zn81 O95 1.965 . S
Zn81 O97 2.024 . S
C82 O83 1.229 . S
C82 O91 1.058 . S
O83 C82 1.229 . S
C84 O85 1.229 . S
C84 O97 1.058 . S
O85 C84 1.229 . S
O86 Zn80 1.969 . S
O86 C89 1.267 . S
O87 Zn80 1.965 . S
O87 C98 1.260 . S
O88 Zn81 1.969 . S
O88 C98 1.258 . S
C89 O86 1.267 . S
C89 O90 1.228 . S
O90 C89 1.228 . S
O91 Zn80 2.024 . S
O91 C82 1.058 . S
C92 O93 1.228 . S
C92 O94 1.267 . S
O93 C92 1.228 . S
O94 Zn81 1.969 . S
O94 C92 1.267 . S
O95 Zn81 1.965 . S
O95 C99 1.260 . S
O96 Zn80 1.969 . S
O96 C99 1.258 . S
O97 Zn81 2.024 . S
O97 C84 1.058 . S
C98 O87 1.260 . S
C98 O88 1.258 . S
C99 O95 1.260 . S
C99 O96 1.258 . S
Zn100 O106 1.969 . S
Zn100 O107 1.965 . S
Zn100 O111 2.024 . S
Zn100 O116 1.969 . S
Zn101 O108 1.969 . S
Zn101 O114 1.969 . S
Zn101 O115 1.965 . S
Zn101 O117 2.024 . S
C102 O103 1.229 . S
C102 O111 1.058 . S
O103 C102 1.229 . S
C104 O105 1.229 . S
C104 O117 1.058 . S
O105 C104 1.229 . S
O106 Zn100 1.969 . S
O106 C109 1.267 . S
O107 Zn100 1.965 . S
O107 C118 1.260 . S
O108 Zn101 1.969 . S
O108 C118 1.258 . S
C109 O106 1.267 . S
C109 O110 1.228 . S
O110 C109 1.228 . S
O111 Zn100 2.024 . S
O111 C102 1.058 . S
C112 O113 1.228 . S
C112 O114 1.267 . S
O113 C112 1.228 . S
O114 Zn101 1.969 . S
O114 C112 1.267 . S
O115 Zn101 1.965 . S
O115 C119 1.260 . S
O116 Zn100 1.969 . S
O116 C119 1.258 . S
O117 Zn101 2.024 . S
O117 C104 1.058 . S
C118 O107 1.260 . S
C118 O108 1.258 . S
C119 O115 1.260 . S
C119 O116 1.258 . S
H120 C121 0.951 . S
C121 H120 0.951 . S
C121 C127 1.265 . S
H122 C127 0.950 . S
H123 C131 0.949 . S
H124 C132 0.950 . S
H125 C133 0.951 . S
H126 C134 0.951 . S
C127 C121 1.265 . S
C127 H122 0.950 . S
C127 C128 1.478 . S
C128 C127 1.478 . S
C128 C129 1.397 . S
C128 C145 1.394 . S
C129 C128 1.397 . S
C129 C130 1.438 . S
C129 C134 1.429 . S
C130 C129 1.438 . S
C130 C131 1.428 . S
C130 C143 1.394 . S
C131 H123 0.949 . S
C131 C130 1.428 . S
C131 C132 1.345 . S
C132 H124 0.950 . S
C132 C131 1.345 . S
C132 C133 1.424 . S
C133 H125 0.951 . S
C133 C132 1.424 . S
C133 C134 1.347 . S
C134 H126 0.951 . S
C134 C129 1.429 . S
C134 C133 1.347 . S
H135 C136 0.951 . S
C136 H135 0.951 . S
C136 C142 1.265 . S
H137 C142 0.950 . S
H138 C146 0.949 . S
H139 C147 0.950 . S
H140 C148 0.951 . S
H141 C149 0.951 . S
C142 C136 1.265 . S
C142 H137 0.950 . S
C142 C143 1.478 . S
C143 C130 1.394 . S
C143 C142 1.478 . S
C143 C144 1.397 . S
C144 C143 1.397 . S
C144 C145 1.438 . S
C144 C149 1.429 . S
C145 C128 1.394 . S
C145 C144 1.438 . S
C145 C146 1.428 . S
C146 H138 0.949 . S
C146 C145 1.428 . S
C146 C147 1.345 . S
C147 H139 0.950 . S
C147 C146 1.345 . S
C147 C148 1.424 . S
C148 H140 0.951 . S
C148 C147 1.424 . S
C148 C149 1.347 . S
C149 H141 0.951 . S
C149 C144 1.429 . S
C149 C148 1.347 . S
H150 C151 0.951 . S
C151 H150 0.951 . S
C151 C157 1.265 . S
H152 C157 0.950 . S
H153 C161 0.949 . S
H154 C162 0.950 . S
H155 C163 0.951 . S
H156 C164 0.951 . S
C157 C151 1.265 . S
C157 H152 0.950 . S
C157 C158 1.478 . S
C158 C157 1.478 . S
C158 C159 1.397 . S
C158 C175 1.394 . S
C159 C158 1.397 . S
C159 C160 1.438 . S
C159 C164 1.429 . S
C160 C159 1.438 . S
C160 C161 1.428 . S
C160 C173 1.394 . S
C161 H153 0.949 . S
C161 C160 1.428 . S
C161 C162 1.345 . S
C162 H154 0.950 . S
C162 C161 1.345 . S
C162 C163 1.424 . S
C163 H155 0.951 . S
C163 C162 1.424 . S
C163 C164 1.347 . S
C164 H156 0.951 . S
C164 C159 1.429 . S
C164 C163 1.347 . S
H165 C166 0.951 . S
C166 H165 0.951 . S
C166 C172 1.265 . S
H167 C172 0.950 . S
H168 C176 0.949 . S
H169 C177 0.950 . S
H170 C178 0.951 . S
H171 C179 0.951 . S
C172 C166 1.265 . S
C172 H167 0.950 . S
C172 C173 1.478 . S
C173 C160 1.394 . S
C173 C172 1.478 . S
C173 C174 1.397 . S
C174 C173 1.397 . S
C174 C175 1.438 . S
C174 C179 1.429 . S
C175 C158 1.394 . S
C175 C174 1.438 . S
C175 C176 1.428 . S
C176 H168 0.949 . S
C176 C175 1.428 . S
C176 C177 1.345 . S
C177 H169 0.950 . S
C177 C176 1.345 . S
C177 C178 1.424 . S
C178 H170 0.951 . S
C178 C177 1.424 . S
C178 C179 1.347 . S
C179 H171 0.951 . S
C179 C174 1.429 . S
C179 C178 1.347 . S
H180 C181 0.951 . S
C181 H180 0.951 . S
C181 C187 1.265 . S
H182 C187 0.950 . S
H183 C191 0.949 . S
H184 C192 0.950 . S
H185 C193 0.951 . S
H186 C194 0.951 . S
C187 C181 1.265 . S
C187 H182 0.950 . S
C187 C188 1.478 . S
C188 C187 1.478 . S
C188 C189 1.397 . S
C188 C205 1.394 . S
C189 C188 1.397 . S
C189 C190 1.438 . S
C189 C194 1.429 . S
C190 C189 1.438 . S
C190 C191 1.428 . S
C190 C203 1.394 . S
C191 H183 0.949 . S
C191 C190 1.428 . S
C191 C192 1.345 . S
C192 H184 0.950 . S
C192 C191 1.345 . S
C192 C193 1.424 . S
C193 H185 0.951 . S
C193 C192 1.424 . S
C193 C194 1.347 . S
C194 H186 0.951 . S
C194 C189 1.429 . S
C194 C193 1.347 . S
H195 C196 0.951 . S
C196 H195 0.951 . S
C196 C202 1.265 . S
H197 C202 0.950 . S
H198 C206 0.949 . S
H199 C207 0.950 . S
H200 C208 0.951 . S
H201 C209 0.951 . S
C202 C196 1.265 . S
C202 H197 0.950 . S
C202 C203 1.478 . S
C203 C190 1.394 . S
C203 C202 1.478 . S
C203 C204 1.397 . S
C204 C203 1.397 . S
C204 C205 1.438 . S
C204 C209 1.429 . S
C205 C188 1.394 . S
C205 C204 1.438 . S
C205 C206 1.428 . S
C206 H198 0.949 . S
C206 C205 1.428 . S
C206 C207 1.345 . S
C207 H199 0.950 . S
C207 C206 1.345 . S
C207 C208 1.424 . S
C208 H200 0.951 . S
C208 C207 1.424 . S
C208 C209 1.347 . S
C209 H201 0.951 . S
C209 C204 1.429 . S
C209 C208 1.347 . S
H210 C211 0.951 . S
C211 H210 0.951 . S
C211 C217 1.265 . S
H212 C217 0.950 . S
H213 C221 0.949 . S
H214 C222 0.950 . S
H215 C223 0.951 . S
H216 C224 0.951 . S
C217 C211 1.265 . S
C217 H212 0.950 . S
C217 C218 1.478 . S
C218 C217 1.478 . S
C218 C219 1.397 . S
C218 C235 1.394 . S
C219 C218 1.397 . S
C219 C220 1.438 . S
C219 C224 1.429 . S
C220 C219 1.438 . S
C220 C221 1.428 . S
C220 C233 1.394 . S
C221 H213 0.949 . S
C221 C220 1.428 . S
C221 C222 1.345 . S
C222 H214 0.950 . S
C222 C221 1.345 . S
C222 C223 1.424 . S
C223 H215 0.951 . S
C223 C222 1.424 . S
C223 C224 1.347 . S
C224 H216 0.951 . S
C224 C219 1.429 . S
C224 C223 1.347 . S
H225 C226 0.951 . S
C226 H225 0.951 . S
C226 C232 1.265 . S
H227 C232 0.950 . S
H228 C236 0.949 . S
H229 C237 0.950 . S
H230 C238 0.951 . S
H231 C239 0.951 . S
C232 C226 1.265 . S
C232 H227 0.950 . S
C232 C233 1.478 . S
C233 C220 1.394 . S
C233 C232 1.478 . S
C233 C234 1.397 . S
C234 C233 1.397 . S
C234 C235 1.438 . S
C234 C239 1.429 . S
C235 C218 1.394 . S
C235 C234 1.438 . S
C235 C236 1.428 . S
C236 H228 0.949 . S
C236 C235 1.428 . S
C236 C237 1.345 . S
C237 H229 0.950 . S
C237 C236 1.345 . S
C237 C238 1.424 . S
C238 H230 0.951 . S
C238 C237 1.424 . S
C238 C239 1.347 . S
C239 H231 0.951 . S
C239 C234 1.429 . S
C239 C238 1.347 . S
H240 C241 0.951 . S
C241 H240 0.951 . S
C241 C247 1.265 . S
H242 C247 0.950 . S
H243 C251 0.949 . S
H244 C252 0.950 . S
H245 C253 0.951 . S
H246 C254 0.951 . S
C247 C241 1.265 . S
C247 H242 0.950 . S
C247 C248 1.478 . S
C248 C247 1.478 . S
C248 C249 1.397 . S
C248 C265 1.394 . S
C249 C248 1.397 . S
C249 C250 1.438 . S
C249 C254 1.429 . S
C250 C249 1.438 . S
C250 C251 1.428 . S
C250 C263 1.394 . S
C251 H243 0.949 . S
C251 C250 1.428 . S
C251 C252 1.345 . S
C252 H244 0.950 . S
C252 C251 1.345 . S
C252 C253 1.424 . S
C253 H245 0.951 . S
C253 C252 1.424 . S
C253 C254 1.347 . S
C254 H246 0.951 . S
C254 C249 1.429 . S
C254 C253 1.347 . S
H255 C256 0.951 . S
C256 H255 0.951 . S
C256 C262 1.265 . S
H257 C262 0.950 . S
H258 C266 0.949 . S
H259 C267 0.950 . S
H260 C268 0.951 . S
H261 C269 0.951 . S
C262 C256 1.265 . S
C262 H257 0.950 . S
C262 C263 1.478 . S
C263 C250 1.394 . S
C263 C262 1.478 . S
C263 C264 1.397 . S
C264 C263 1.397 . S
C264 C265 1.438 . S
C264 C269 1.429 . S
C265 C248 1.394 . S
C265 C264 1.438 . S
C265 C266 1.428 . S
C266 H258 0.949 . S
C266 C265 1.428 . S
C266 C267 1.345 . S
C267 H259 0.950 . S
C267 C266 1.345 . S
C267 C268 1.424 . S
C268 H260 0.951 . S
C268 C267 1.424 . S
C268 C269 1.347 . S
C269 H261 0.951 . S
C269 C264 1.429 . S
C269 C268 1.347 . S
H270 C271 0.951 . S
C271 H270 0.951 . S
C271 C277 1.265 . S
H272 C277 0.950 . S
H273 C281 0.949 . S
H274 C282 0.950 . S
H275 C283 0.951 . S
H276 C284 0.951 . S
C277 C271 1.265 . S
C277 H272 0.950 . S
C277 C278 1.478 . S
C278 C277 1.478 . S
C278 C279 1.397 . S
C278 C295 1.394 . S
C279 C278 1.397 . S
C279 C280 1.438 . S
C279 C284 1.429 . S
C280 C279 1.438 . S
C280 C281 1.428 . S
C280 C293 1.394 . S
C281 H273 0.949 . S
C281 C280 1.428 . S
C281 C282 1.345 . S
C282 H274 0.950 . S
C282 C281 1.345 . S
C282 C283 1.424 . S
C283 H275 0.951 . S
C283 C282 1.424 . S
C283 C284 1.347 . S
C284 H276 0.951 . S
C284 C279 1.429 . S
C284 C283 1.347 . S
H285 C286 0.951 . S
C286 H285 0.951 . S
C286 C292 1.265 . S
H287 C292 0.950 . S
H288 C296 0.949 . S
H289 C297 0.950 . S
H290 C298 0.951 . S
H291 C299 0.951 . S
C292 C286 1.265 . S
C292 H287 0.950 . S
C292 C293 1.478 . S
C293 C280 1.394 . S
C293 C292 1.478 . S
C293 C294 1.397 . S
C294 C293 1.397 . S
C294 C295 1.438 . S
C294 C299 1.429 . S
C295 C278 1.394 . S
C295 C294 1.438 . S
C295 C296 1.428 . S
C296 H288 0.949 . S
C296 C295 1.428 . S
C296 C297 1.345 . S
C297 H289 0.950 . S
C297 C296 1.345 . S
C297 C298 1.424 . S
C298 H290 0.951 . S
C298 C297 1.424 . S
C298 C299 1.347 . S
C299 H291 0.951 . S
C299 C294 1.429 . S
C299 C298 1.347 . S
H300 C301 0.951 . S
C301 H300 0.951 . S
C301 C307 1.265 . S
H302 C307 0.950 . S
H303 C311 0.949 . S
H304 C312 0.950 . S
H305 C313 0.951 . S
H306 C314 0.951 . S
C307 C301 1.265 . S
C307 H302 0.950 . S
C307 C308 1.478 . S
C308 C307 1.478 . S
C308 C309 1.397 . S
C308 C325 1.394 . S
C309 C308 1.397 . S
C309 C310 1.438 . S
C309 C314 1.429 1_554 S
C310 C309 1.438 . S
C310 C311 1.428 1_554 S
C310 C323 1.394 . S
C311 H303 0.949 . S
C311 C310 1.428 1_556 S
C311 C312 1.345 . S
C312 H304 0.950 . S
C312 C311 1.345 . S
C312 C313 1.424 . S
C313 H305 0.951 . S
C313 C312 1.424 . S
C313 C314 1.347 . S
C314 H306 0.951 . S
C314 C309 1.429 1_556 S
C314 C313 1.347 . S
H315 C316 0.951 . S
C316 H315 0.951 . S
C316 C322 1.265 . S
H317 C322 0.950 . S
H318 C326 0.949 . S
H319 C327 0.950 . S
H320 C328 0.951 . S
H321 C329 0.951 . S
C322 C316 1.265 . S
C322 H317 0.950 . S
C322 C323 1.478 . S
C323 C310 1.394 . S
C323 C322 1.478 . S
C323 C324 1.397 . S
C324 C323 1.397 . S
C324 C325 1.438 . S
C324 C329 1.429 . S
C325 C308 1.394 . S
C325 C324 1.438 . S
C325 C326 1.428 . S
C326 H318 0.949 . S
C326 C325 1.428 . S
C326 C327 1.345 . S
C327 H319 0.950 . S
C327 C326 1.345 . S
C327 C328 1.424 . S
C328 H320 0.951 . S
C328 C327 1.424 . S
C328 C329 1.347 . S
C329 H321 0.951 . S
C329 C324 1.429 . S
C329 C328 1.347 . S
H330 C331 0.951 . S
C331 H330 0.951 . S
C331 C337 1.265 . S
H332 C337 0.950 . S
H333 C341 0.949 . S
H334 C342 0.950 . S
H335 C343 0.951 . S
H336 C344 0.951 . S
C337 C331 1.265 . S
C337 H332 0.950 . S
C337 C338 1.478 . S
C338 C337 1.478 . S
C338 C339 1.397 . S
C338 C355 1.394 . S
C339 C338 1.397 . S
C339 C340 1.438 1_455 S
C339 C344 1.429 . S
C340 C339 1.438 1_655 S
C340 C341 1.428 . S
C340 C353 1.394 . S
C341 H333 0.949 . S
C341 C340 1.428 . S
C341 C342 1.345 1_655 S
C342 H334 0.950 . S
C342 C341 1.345 1_455 S
C342 C343 1.424 . S
C343 H335 0.951 . S
C343 C342 1.424 . S
C343 C344 1.347 . S
C344 H336 0.951 . S
C344 C339 1.429 . S
C344 C343 1.347 . S
H345 C346 0.951 . S
C346 H345 0.951 . S
C346 C352 1.265 . S
H347 C352 0.950 . S
H348 C356 0.949 . S
H349 C357 0.950 . S
H350 C358 0.951 . S
H351 C359 0.951 . S
C352 C346 1.265 . S
C352 H347 0.950 . S
C352 C353 1.478 . S
C353 C340 1.394 . S
C353 C352 1.478 . S
C353 C354 1.397 . S
C354 C353 1.397 . S
C354 C355 1.438 1_655 S
C354 C359 1.429 . S
C355 C338 1.394 . S
C355 C354 1.438 1_455 S
C355 C356 1.428 . S
C356 H348 0.949 . S
C356 C355 1.428 . S
C356 C357 1.345 1_455 S
C357 H349 0.950 . S
C357 C356 1.345 1_655 S
C357 C358 1.424 . S
C358 H350 0.951 . S
C358 C357 1.424 . S
C358 C359 1.347 . S
C359 H351 0.951 . S
C359 C354 1.429 . S
C359 C358 1.347 . S
H360 C361 0.951 . S
C361 H360 0.951 . S
C361 C367 1.265 . S
H362 C367 0.950 . S
H363 C371 0.942 1_565 S
H364 C372 0.950 . S
H365 C373 0.951 . S
H366 C374 0.951 . S
C367 C361 1.265 . S
C367 H362 0.950 . S
C367 C368 1.478 . S
C368 C367 1.478 . S
C368 C369 1.397 . S
C368 C385 1.403 . S
C369 C368 1.397 . S
C369 C370 1.424 1_545 S
C369 C374 1.429 . S
C370 C369 1.424 1_565 S
C370 C371 1.434 1_565 S
C370 C383 1.403 . S
C371 H363 0.942 1_545 S
C371 C370 1.434 1_545 S
C371 C372 1.349 . S
C372 H364 0.950 . S
C372 C371 1.349 . S
C372 C373 1.424 . S
C373 H365 0.951 . S
C373 C372 1.424 . S
C373 C374 1.347 . S
C374 H366 0.951 . S
C374 C369 1.429 . S
C374 C373 1.347 . S
H375 C376 0.951 . S
C376 H375 0.951 . S
C376 C382 1.265 . S
H377 C382 0.950 . S
H378 C386 0.942 1_545 S
H379 C387 0.950 . S
H380 C388 0.951 . S
H381 C389 0.951 . S
C382 C376 1.265 . S
C382 H377 0.950 . S
C382 C383 1.478 . S
C383 C370 1.403 . S
C383 C382 1.478 . S
C383 C384 1.397 . S
C384 C383 1.397 . S
C384 C385 1.424 1_565 S
C384 C389 1.429 . S
C385 C368 1.403 . S
C385 C384 1.424 1_545 S
C385 C386 1.434 1_545 S
C386 H378 0.942 1_565 S
C386 C385 1.434 1_565 S
C386 C387 1.349 . S
C387 H379 0.950 . S
C387 C386 1.349 . S
C387 C388 1.424 . S
C388 H380 0.951 . S
C388 C387 1.424 . S
C388 C389 1.347 . S
C389 H381 0.951 . S
C389 C384 1.429 . S
C389 C388 1.347 . S
H390 C391 0.951 . S
C391 H390 0.951 . S
C391 C397 1.265 . S
H392 C397 0.950 . S
H393 C401 0.949 . S
H394 C402 0.950 . S
H395 C403 0.951 . S
H396 C404 0.951 . S
C397 C391 1.265 . S
C397 H392 0.950 . S
C397 C398 1.478 . S
C398 C397 1.478 . S
C398 C399 1.397 . S
C398 C415 1.394 . S
C399 C398 1.397 . S
C399 C400 1.438 . S
C399 C404 1.429 . S
C400 C399 1.438 . S
C400 C401 1.428 . S
C400 C413 1.394 . S
C401 H393 0.949 . S
C401 C400 1.428 . S
C401 C402 1.345 . S
C402 H394 0.950 . S
C402 C401 1.345 . S
C402 C403 1.424 . S
C403 H395 0.951 . S
C403 C402 1.424 . S
C403 C404 1.347 . S
C404 H396 0.951 . S
C404 C399 1.429 . S
C404 C403 1.347 . S
H405 C406 0.951 . S
C406 H405 0.951 . S
C406 C412 1.265 . S
H407 C412 0.950 . S
H408 C416 0.949 . S
H409 C417 0.950 . S
H410 C418 0.951 . S
H411 C419 0.951 . S
C412 C406 1.265 . S
C412 H407 0.950 . S
C412 C413 1.478 . S
C413 C400 1.394 . S
C413 C412 1.478 . S
C413 C414 1.397 . S
C414 C413 1.397 . S
C414 C415 1.438 . S
C414 C419 1.429 . S
C415 C398 1.394 . S
C415 C414 1.438 . S
C415 C416 1.428 . S
C416 H408 0.949 . S
C416 C415 1.428 . S
C416 C417 1.345 . S
C417 H409 0.950 . S
C417 C416 1.345 . S
C417 C418 1.424 . S
C418 H410 0.951 . S
C418 C417 1.424 . S
C418 C419 1.347 . S
C419 H411 0.951 . S
C419 C414 1.429 . S
C419 C418 1.347 . S
H420 C421 0.951 . S
C421 H420 0.951 . S
C421 C427 1.265 . S
H422 C427 0.950 1_556 S
H423 C431 0.949 . S
H424 C432 0.950 . S
H425 C433 0.951 . S
H426 C434 0.951 . S
C427 C421 1.265 . S
C427 H422 0.950 1_554 S
C427 C428 1.478 . S
C428 C427 1.478 . S
C428 C429 1.397 1_554 S
C428 C445 1.394 . S
C429 C428 1.397 1_556 S
C429 C430 1.438 1_455 S
C429 C434 1.429 . S
C430 C429 1.438 1_655 S
C430 C431 1.428 . S
C430 C443 1.394 1_556 S
C431 H423 0.949 . S
C431 C430 1.428 . S
C431 C432 1.345 1_655 S
C432 H424 0.950 . S
C432 C431 1.345 1_455 S
C432 C433 1.424 . S
C433 H425 0.951 . S
C433 C432 1.424 . S
C433 C434 1.347 . S
C434 H426 0.951 . S
C434 C429 1.429 . S
C434 C433 1.347 . S
H435 C436 0.951 . S
C436 H435 0.951 . S
C436 C442 1.265 . S
H437 C442 0.950 . S
H438 C446 0.949 . S
H439 C447 0.950 . S
H440 C448 0.951 . S
H441 C449 0.951 . S
C442 C436 1.265 . S
C442 H437 0.950 . S
C442 C443 1.478 . S
C443 C430 1.394 1_554 S
C443 C442 1.478 . S
C443 C444 1.397 . S
C444 C443 1.397 . S
C444 C445 1.438 1_655 S
C444 C449 1.429 . S
C445 C428 1.394 . S
C445 C444 1.438 1_455 S
C445 C446 1.428 . S
C446 H438 0.949 . S
C446 C445 1.428 . S
C446 C447 1.345 1_455 S
C447 H439 0.950 . S
C447 C446 1.345 1_655 S
C447 C448 1.424 . S
C448 H440 0.951 . S
C448 C447 1.424 . S
C448 C449 1.347 . S
C449 H441 0.951 . S
C449 C444 1.429 . S
C449 C448 1.347 . S
H450 C451 0.951 . S
C451 H450 0.951 . S
C451 C457 1.265 . S
H452 C457 0.950 . S
H453 C461 0.949 . S
H454 C462 0.950 . S
H455 C463 0.951 . S
H456 C464 0.951 . S
C457 C451 1.265 . S
C457 H452 0.950 . S
C457 C458 1.478 . S
C458 C457 1.478 . S
C458 C459 1.397 1_565 S
C458 C475 1.394 . S
C459 C458 1.397 1_545 S
C459 C460 1.438 . S
C459 C464 1.429 . S
C460 C459 1.438 . S
C460 C461 1.428 . S
C460 C473 1.394 . S
C461 H453 0.949 . S
C461 C460 1.428 . S
C461 C462 1.345 . S
C462 H454 0.950 . S
C462 C461 1.345 . S
C462 C463 1.424 . S
C463 H455 0.951 . S
C463 C462 1.424 . S
C463 C464 1.347 . S
C464 H456 0.951 . S
C464 C459 1.429 . S
C464 C463 1.347 . S
H465 C466 0.951 . S
C466 H465 0.951 . S
C466 C472 1.265 . S
H467 C472 0.950 . S
H468 C476 0.949 . S
H469 C477 0.950 . S
H470 C478 0.951 . S
H471 C479 0.951 . S
C472 C466 1.265 . S
C472 H467 0.950 . S
C472 C473 1.478 . S
C473 C460 1.394 . S
C473 C472 1.478 . S
C473 C474 1.397 1_545 S
C474 C473 1.397 1_565 S
C474 C475 1.438 . S
C474 C479 1.429 . S
C475 C458 1.394 . S
C475 C474 1.438 . S
C475 C476 1.428 . S
C476 H468 0.949 . S
C476 C475 1.428 . S
C476 C477 1.345 . S
C477 H469 0.950 . S
C477 C476 1.345 . S
C477 C478 1.424 . S
C478 H470 0.951 . S
C478 C477 1.424 . S
C478 C479 1.347 . S
C479 H471 0.951 . S
C479 C474 1.429 . S
C479 C478 1.347 . S
H480 C481 0.951 . S
C481 H480 0.951 . S
C481 C487 1.265 . S
H482 C487 0.950 . S
H483 C491 0.949 . S
H484 C492 0.950 . S
H485 C493 0.951 . S
H486 C494 0.951 . S
C487 C481 1.265 . S
C487 H482 0.950 . S
C487 C488 1.478 . S
C488 C487 1.478 . S
C488 C489 1.397 . S
C488 C505 1.394 . S
C489 C488 1.397 . S
C489 C490 1.438 . S
C489 C494 1.429 . S
C490 C489 1.438 . S
C490 C491 1.428 . S
C490 C503 1.394 . S
C491 H483 0.949 . S
C491 C490 1.428 . S
C491 C492 1.345 . S
C492 H484 0.950 . S
C492 C491 1.345 . S
C492 C493 1.424 . S
C493 H485 0.951 . S
C493 C492 1.424 . S
C493 C494 1.347 . S
C494 H486 0.951 . S
C494 C489 1.429 . S
C494 C493 1.347 . S
H495 C496 0.951 . S
C496 H495 0.951 . S
C496 C502 1.265 . S
H497 C502 0.950 . S
H498 C506 0.949 . S
H499 C507 0.950 . S
H500 C508 0.951 . S
H501 C509 0.951 . S
C502 C496 1.265 . S
C502 H497 0.950 . S
C502 C503 1.478 . S
C503 C490 1.394 . S
C503 C502 1.478 . S
C503 C504 1.397 . S
C504 C503 1.397 . S
C504 C505 1.438 . S
C504 C509 1.429 . S
C505 C488 1.394 . S
C505 C504 1.438 . S
C505 C506 1.428 . S
C506 H498 0.949 . S
C506 C505 1.428 . S
C506 C507 1.345 . S
C507 H499 0.950 . S
C507 C506 1.345 . S
C507 C508 1.424 . S
C508 H500 0.951 . S
C508 C507 1.424 . S
C508 C509 1.347 . S
C509 H501 0.951 . S
C509 C504 1.429 . S
C509 C508 1.347 . S
H510 C511 0.951 . S
C511 H510 0.951 . S
C511 C517 1.265 . S
H512 C517 0.950 1_455 S
H513 C521 0.949 . S
H514 C522 0.950 . S
H515 C523 0.951 . S
H516 C524 0.951 . S
C517 C511 1.265 . S
C517 H512 0.950 1_655 S
C517 C518 1.478 1_655 S
C518 C517 1.478 1_455 S
C518 C519 1.397 . S
C518 C535 1.394 1_455 S
C519 C518 1.397 . S
C519 C520 1.438 . S
C519 C524 1.429 . S
C520 C519 1.438 . S
C520 C521 1.428 . S
C520 C533 1.394 . S
C521 H513 0.949 . S
C521 C520 1.428 . S
C521 C522 1.345 . S
C522 H514 0.950 . S
C522 C521 1.345 . S
C522 C523 1.424 . S
C523 H515 0.951 . S
C523 C522 1.424 . S
C523 C524 1.347 . S
C524 H516 0.951 . S
C524 C519 1.429 . S
C524 C523 1.347 . S
H525 C526 0.951 . S
C526 H525 0.951 . S
C526 C532 1.265 . S
H527 C532 0.950 . S
H528 C536 0.949 . S
H529 C537 0.950 . S
H530 C538 0.951 . S
H531 C539 0.951 . S
C532 C526 1.265 . S
C532 H527 0.950 . S
C532 C533 1.478 . S
C533 C520 1.394 . S
C533 C532 1.478 . S
C533 C534 1.397 . S
C534 C533 1.397 . S
C534 C535 1.438 1_455 S
C534 C539 1.429 1_455 S
C535 C518 1.394 1_655 S
C535 C534 1.438 1_655 S
C535 C536 1.428 . S
C536 H528 0.949 . S
C536 C535 1.428 . S
C536 C537 1.345 . S
C537 H529 0.950 . S
C537 C536 1.345 . S
C537 C538 1.424 . S
C538 H530 0.951 . S
C538 C537 1.424 . S
C538 C539 1.347 . S
C539 H531 0.951 . S
C539 C534 1.429 1_655 S
C539 C538 1.347 . S
H540 C541 0.951 . S
C541 H540 0.951 . S
C541 C547 1.265 . S
H542 C547 0.950 . S
H543 C551 0.949 . S
H544 C552 0.950 . S
H545 C553 0.951 . S
H546 C554 0.951 . S
C547 C541 1.265 . S
C547 H542 0.950 . S
C547 C548 1.478 . S
C548 C547 1.478 . S
C548 C549 1.397 1_565 S
C548 C565 1.394 . S
C549 C548 1.397 1_545 S
C549 C550 1.438 . S
C549 C554 1.429 . S
C550 C549 1.438 . S
C550 C551 1.428 . S
C550 C563 1.394 . S
C551 H543 0.949 . S
C551 C550 1.428 . S
C551 C552 1.345 . S
C552 H544 0.950 . S
C552 C551 1.345 . S
C552 C553 1.424 . S
C553 H545 0.951 . S
C553 C552 1.424 . S
C553 C554 1.347 . S
C554 H546 0.951 . S
C554 C549 1.429 . S
C554 C553 1.347 . S
H555 C556 0.951 . S
C556 H555 0.951 . S
C556 C562 1.265 . S
H557 C562 0.950 . S
H558 C566 0.949 . S
H559 C567 0.950 . S
H560 C568 0.951 . S
H561 C569 0.950 1_545 S
C562 C556 1.265 . S
C562 H557 0.950 . S
C562 C563 1.478 . S
C563 C550 1.394 . S
C563 C562 1.478 . S
C563 C564 1.397 . S
C564 C563 1.397 . S
C564 C565 1.438 1_545 S
C564 C569 1.429 1_545 S
C565 C548 1.394 . S
C565 C564 1.438 1_565 S
C565 C566 1.428 . S
C566 H558 0.949 . S
C566 C565 1.428 . S
C566 C567 1.345 . S
C567 H559 0.950 . S
C567 C566 1.345 . S
C567 C568 1.424 . S
C568 H560 0.951 . S
C568 C567 1.424 . S
C568 C569 1.347 . S
C569 H561 0.950 1_565 S
C569 C564 1.429 1_565 S
C569 C568 1.347 . S
H570 C571 0.951 . S
C571 H570 0.951 . S
C571 C577 1.265 . S
H572 C577 0.950 . S
H573 C581 0.949 . S
H574 C582 0.950 . S
H575 C583 0.951 . S
H576 C584 0.951 . S
C577 C571 1.265 . S
C577 H572 0.950 . S
C577 C578 1.478 . S
C578 C577 1.478 . S
C578 C579 1.397 . S
C578 C595 1.394 . S
C579 C578 1.397 . S
C579 C580 1.438 . S
C579 C584 1.429 . S
C580 C579 1.438 . S
C580 C581 1.428 . S
C580 C593 1.394 . S
C581 H573 0.949 . S
C581 C580 1.428 . S
C581 C582 1.345 . S
C582 H574 0.950 . S
C582 C581 1.345 . S
C582 C583 1.424 . S
C583 H575 0.951 . S
C583 C582 1.424 . S
C583 C584 1.347 . S
C584 H576 0.951 . S
C584 C579 1.429 . S
C584 C583 1.347 . S
H585 C586 0.951 . S
C586 H585 0.951 . S
C586 C592 1.265 . S
H587 C592 0.950 . S
H588 C596 0.949 . S
H589 C597 0.950 . S
H590 C598 0.951 . S
H591 C599 0.951 . S
C592 C586 1.265 . S
C592 H587 0.950 . S
C592 C593 1.478 . S
C593 C580 1.394 . S
C593 C592 1.478 . S
C593 C594 1.397 . S
C594 C593 1.397 . S
C594 C595 1.438 . S
C594 C599 1.429 . S
C595 C578 1.394 . S
C595 C594 1.438 . S
C595 C596 1.428 . S
C596 H588 0.949 . S
C596 C595 1.428 . S
C596 C597 1.345 . S
C597 H589 0.950 . S
C597 C596 1.345 . S
C597 C598 1.424 . S
C598 H590 0.951 . S
C598 C597 1.424 . S
C598 C599 1.347 . S
C599 H591 0.951 . S
C599 C594 1.429 . S
C599 C598 1.347 . S
H600 C601 0.951 . S
C601 H600 0.951 . S
C601 C607 1.265 . S
H602 C607 0.950 . S
H603 C611 0.949 . S
H604 C612 0.950 . S
H605 C613 0.951 1_455 S
H606 C614 0.951 . S
C607 C601 1.265 . S
C607 H602 0.950 . S
C607 C608 1.478 . S
C608 C607 1.478 . S
C608 C609 1.397 1_455 S
C608 C625 1.394 . S
C609 C608 1.397 1_655 S
C609 C610 1.438 . S
C609 C614 1.429 1_655 S
C610 C609 1.438 . S
C610 C611 1.428 . S
C610 C623 1.394 . S
C611 H603 0.949 . S
C611 C610 1.428 . S
C611 C612 1.345 . S
C612 H604 0.950 . S
C612 C611 1.345 . S
C612 C613 1.424 . S
C613 H605 0.951 1_655 S
C613 C612 1.424 . S
C613 C614 1.347 1_655 S
C614 H606 0.951 . S
C614 C609 1.429 1_455 S
C614 C613 1.347 1_455 S
H615 C616 0.951 . S
C616 H615 0.951 . S
C616 C622 1.265 . S
H617 C622 0.950 . S
H618 C626 0.949 . S
H619 C627 0.950 . S
H620 C628 0.951 . S
H621 C629 0.951 . S
C622 C616 1.265 . S
C622 H617 0.950 . S
C622 C623 1.478 . S
C623 C610 1.394 . S
C623 C622 1.478 . S
C623 C624 1.397 . S
C624 C623 1.397 . S
C624 C625 1.438 1_655 S
C624 C629 1.429 . S
C625 C608 1.394 . S
C625 C624 1.438 1_455 S
C625 C626 1.428 . S
C626 H618 0.949 . S
C626 C625 1.428 . S
C626 C627 1.345 . S
C627 H619 0.950 . S
C627 C626 1.345 . S
C627 C628 1.424 1_455 S
C628 H620 0.951 . S
C628 C627 1.424 1_655 S
C628 C629 1.347 . S
C629 H621 0.951 . S
C629 C624 1.429 . S
C629 C628 1.347 . S
H630 C631 0.951 . S
C631 H630 0.951 . S
C631 C637 1.265 . S
H632 C637 0.950 . S
H633 C641 0.949 . S
H634 C642 0.950 . S
H635 C643 0.951 . S
H636 C644 0.951 . S
C637 C631 1.265 . S
C637 H632 0.950 . S
C637 C638 1.478 . S
C638 C637 1.478 . S
C638 C639 1.397 . S
C638 C655 1.394 1_545 S
C639 C638 1.397 . S
C639 C640 1.438 . S
C639 C644 1.429 . S
C640 C639 1.438 . S
C640 C641 1.428 . S
C640 C653 1.394 1_545 S
C641 H633 0.949 . S
C641 C640 1.428 . S
C641 C642 1.345 . S
C642 H634 0.950 . S
C642 C641 1.345 . S
C642 C643 1.424 . S
C643 H635 0.951 . S
C643 C642 1.424 . S
C643 C644 1.347 . S
C644 H636 0.951 . S
C644 C639 1.429 . S
C644 C643 1.347 . S
H645 C646 0.951 . S
C646 H645 0.951 . S
C646 C652 1.265 . S
H647 C652 0.950 . S
H648 C656 0.949 . S
H649 C657 0.950 . S
H650 C658 0.951 . S
H651 C659 0.951 . S
C652 C646 1.265 . S
C652 H647 0.950 . S
C652 C653 1.478 . S
C653 C640 1.394 1_565 S
C653 C652 1.478 . S
C653 C654 1.397 . S
C654 C653 1.397 . S
C654 C655 1.438 . S
C654 C659 1.429 . S
C655 C638 1.394 1_565 S
C655 C654 1.438 . S
C655 C656 1.428 . S
C656 H648 0.949 . S
C656 C655 1.428 . S
C656 C657 1.345 . S
C657 H649 0.950 . S
C657 C656 1.345 . S
C657 C658 1.424 . S
C658 H650 0.951 . S
C658 C657 1.424 . S
C658 C659 1.347 . S
C659 H651 0.951 . S
C659 C654 1.429 . S
C659 C658 1.347 . S
C121 C82 0.911 . S
C136 C12 1.039 . S
C151 C102 1.093 . S
C166 C32 1.080 . S
C181 C2 0.908 . S
C196 C52 1.019 . S
C211 C22 1.049 . S
C226 C72 1.105 . S
C241 C42 0.921 . S
C256 C92 0.996 . S
C271 C62 0.992 . S
C286 C112 0.979 . S
C301 C18 0.983 . S
C316 C78 0.982 . S
C331 C98 1.089 . S
C346 C38 1.088 . S
C361 C118 1.088 . S
C376 C58 1.089 . S
C391 C59 1.007 . S
C406 C119 1.009 . S
C421 C19 1.153 . S
C436 C79 1.151 . S
C451 C99 1.008 . S
C466 C39 1.006 . S
C481 C104 0.859 . S
C496 C9 1.035 . S
C511 C29 1.009 . S
C526 C4 0.885 . S
C541 C49 1.092 . S
C556 C24 0.877 . S
C571 C44 1.063 . S
C586 C69 0.962 . S
C601 C89 1.055 . S
C616 C64 0.971 . S
C631 C109 0.923 . S
C646 C84 1.071 . S
