# Generated by pormake.
# Topology rob, (6)-cn, num edge types: 1
# Building blocks:
#     Node 0, Type 0, BuildingBlock: KUMJIN_clean_sbu_0, # of connection points: 6
#     Node 1, Type 0, BuildingBlock: KUMJIN_clean_sbu_0, # of connection points: 6
#     Node 2, Type 0, BuildingBlock: KUMJIN_clean_sbu_0, # of connection points: 6
#     Node 3, Type 0, BuildingBlock: KUMJIN_clean_sbu_0, # of connection points: 6
#     Edge 4, Type (0, 0), BuildingBlock: FUNLAD_clean_linker_1, # of connection points: 2
#     Edge 5, Type (0, 0), BuildingBlock: FUNLAD_clean_linker_1, # of connection points: 2
#     Edge 6, Type (0, 0), BuildingBlock: FUNLAD_clean_linker_1, # of connection points: 2
#     Edge 7, Type (0, 0), BuildingBlock: FUNLAD_clean_linker_1, # of connection points: 2
#     Edge 8, Type (0, 0), BuildingBlock: FUNLAD_clean_linker_1, # of connection points: 2
#     Edge 9, Type (0, 0), BuildingBlock: FUNLAD_clean_linker_1, # of connection points: 2
#     Edge 10, Type (0, 0), BuildingBlock: FUNLAD_clean_linker_1, # of connection points: 2
#     Edge 11, Type (0, 0), BuildingBlock: FUNLAD_clean_linker_1, # of connection points: 2
#     Edge 12, Type (0, 0), BuildingBlock: FUNLAD_clean_linker_1, # of connection points: 2
#     Edge 13, Type (0, 0), BuildingBlock: FUNLAD_clean_linker_1, # of connection points: 2
#     Edge 14, Type (0, 0), BuildingBlock: FUNLAD_clean_linker_1, # of connection points: 2
#     Edge 15, Type (0, 0), BuildingBlock: FUNLAD_clean_linker_1, # of connection points: 2
# Relax obj value: 0.035
# Max RMSD: 0.158
# Mean RMSD: 0.158
data_MOF--net-rob--node1-KUMJIN_clean_sbu_0--edge1-FUNLAD_clean_linker_1
_symmetry_space_group_name_H-M    P1
_symmetry_Int_Tables_number       1
_symmetry_cell_setting            triclinic
loop_
_symmetry_equiv_pos_as_xyz
'x, y, z'
_cell_length_a     16.37128
_cell_length_b     27.050939
_cell_length_c     35.379608
_cell_angle_alpha  117.16216
_cell_angle_beta   89.77494
_cell_angle_gamma 89.991774
loop_
_atom_site_label
_atom_site_type_symbol
_atom_site_fract_x
_atom_site_fract_y
_atom_site_fract_z
_atom_type_partial_charge
Eu0 Eu 0.17462 0.31046 0.05643 0.0
C1 C 0.41346 0.10823 0.96595 0.0
C2 C 0.53181 0.13362 0.01183 0.0
C3 C 0.49952 0.03615 0.96803 0.0
C4 C 0.46211 0.14877 0.99611 0.0
C5 C 0.43238 0.05147 0.95104 0.0
C6 C 0.5493 0.07715 0.99827 0.0
C7 C 0.32164 0.02927 0.90093 0.0
N8 N 0.34998 0.12435 0.94959 0.0
C9 C 0.30578 0.08605 0.91648 0.0
C10 C 0.38471 0.01186 0.91859 0.0
Eu11 Eu 0.32674 0.22102 0.9774 0.0
N12 N 0.44393 0.20294 0.00832 0.0
C13 C 0.49502 0.24401 0.03471 0.0
C14 C 0.58317 0.17564 0.03978 0.0
C15 C 0.56489 0.23106 0.05106 0.0
H16 H 0.25719 0.09943 0.90266 0.0
H17 H 0.60466 0.26384 0.07233 0.0
H18 H 0.6021 0.06476 0.01032 0.0
H19 H 0.28552 0.99899 0.87524 0.0
H20 H 0.48208 0.28699 0.04346 0.0
H21 H 0.90306 0.27605 0.95854 0.0
H22 H 0.63742 0.16573 0.05244 0.0
H23 H 0.24827 0.42966 0.13353 0.0
H24 H 0.02038 0.24921 0.98883 0.0
H25 H 0.22281 0.53064 0.16354 0.0
H26 H 0.51465 0.99276 0.95722 0.0
H27 H 0.87494 0.37533 0.98048 0.0
H28 H 0.90976 0.47535 0.02737 0.0
H29 H 0.39733 0.96789 0.90628 0.0
H30 H 0.99616 0.54448 0.08324 0.0
N31 N 0.06065 0.33225 0.02594 0.0
C32 C 1.00939 0.29263 0.99824 0.0
C33 C 0.92703 0.36377 0.99356 0.0
C34 C 0.97734 0.40433 0.0237 0.0
C35 C 0.94261 0.3077 0.98115 0.0
C36 C 0.04464 0.38704 0.03956 0.0
H37 H 0.11287 0.56548 0.1341 0.0
N38 N 0.15561 0.40784 0.08667 0.0
C39 C 0.18626 0.50168 0.13735 0.0
C40 C 0.09329 0.426 0.071 0.0
C41 C 0.20063 0.4445 0.12024 0.0
C42 C 0.12413 0.52119 0.12066 0.0
C43 C 0.076 0.48325 0.08748 0.0
O44 O 0.17177 0.31926 0.12076 0.0
O45 O 0.28202 0.25554 0.04354 0.0
O46 O 0.25066 0.16476 0.99412 0.0
O47 O 0.13253 0.21871 0.02148 0.0
O48 O 0.28578 0.32854 0.09875 0.0
O49 O 0.06118 0.29649 0.08383 0.0
O50 O 0.33056 0.20285 0.91084 0.0
O51 O 0.21923 0.27597 0.98979 0.0
O52 O 0.25199 0.36759 0.04016 0.0
O53 O 0.36828 0.31228 0.01127 0.0
O54 O 0.21477 0.20295 0.93541 0.0
O55 O 0.43505 0.24161 0.95091 0.0
C56 C 0.32236 0.28148 0.07704 0.0
C57 C 0.04936 0.34234 0.15963 0.0
C58 C 0.99272 0.35344 0.22719 0.0
C59 C 0.02593 0.31951 0.18671 0.0
C60 C 0.9817 0.41042 0.23996 0.0
C61 C 0.03674 0.39909 0.17269 0.0
C62 C 1.00289 0.43282 0.21262 0.0
C63 C 0.17314 0.17058 0.00588 0.0
C64 C 0.09473 0.30764 0.12026 0.0
C65 C 1.01023 0.50069 0.07109 0.0
C66 C 0.96102 0.46131 0.03928 0.0
C67 C 0.17875 0.25035 0.95618 0.0
C68 C 0.4575 0.18835 0.87672 0.0
C69 C 0.47259 0.20746 0.84668 0.0
C70 C 0.51549 0.17454 0.80913 0.0
C71 C 0.54548 0.12236 0.80245 0.0
C72 C 0.48747 0.13635 0.86985 0.0
C73 C 0.53168 0.10363 0.83284 0.0
C74 C 0.32879 0.36065 0.0267 0.0
C75 C 0.40432 0.22166 0.91281 0.0
H76 H 0.03595 0.27568 0.17684 0.0
H77 H 0.95507 0.43736 0.27063 0.0
H78 H 0.05402 0.41745 0.15237 0.0
H79 H 0.99335 0.47655 0.22245 0.0
H80 H 0.44873 0.2476 0.85204 0.0
H81 H 0.58045 0.09641 0.77426 0.0
H82 H 0.47599 0.1209 0.89269 0.0
H83 H 0.55487 0.06349 0.82755 0.0
Eu84 Eu 0.69571 0.7853 0.03536 0.0
C85 C 0.95284 0.60106 0.96385 0.0
C86 C 0.05911 0.64021 0.01668 0.0
C87 C 0.02674 0.54196 0.98685 0.0
C88 C 0.99684 0.64653 0.9918 0.0
C89 C 0.9695 0.54781 0.95973 0.0
C90 C 0.07235 0.58787 0.0149 0.0
C91 C 0.87371 0.51048 0.9015 0.0
N92 N 0.89462 0.60886 0.94 0.0
C93 C 0.85784 0.56449 0.90757 0.0
C94 C 0.92838 0.50221 0.92838 0.0
Eu95 Eu 0.85954 0.70209 0.95875 0.0
N96 N 0.97894 0.69699 0.99452 0.0
C97 C 0.0262 0.7421 0.01845 0.0
C98 C 0.10538 0.68679 0.04284 0.0
C99 C 0.08987 0.73771 0.04306 0.0
H100 H 0.81327 0.57124 0.8879 0.0
H101 H 0.12589 0.77386 0.06281 0.0
H102 H 0.11793 0.58239 0.03481 0.0
H103 H 0.84274 0.47544 0.87664 0.0
H104 H 0.01347 0.78203 0.01989 0.0
H105 H 0.40432 0.74322 0.95213 0.0
H106 H 0.15362 0.68377 0.06257 0.0
H107 H 0.7707 0.90787 0.10742 0.0
H108 H 0.5338 0.71972 0.97566 0.0
H109 H 0.74991 0.00777 0.12952 0.0
H110 H 0.03665 0.50201 0.98606 0.0
H111 H 0.37212 0.84122 0.97109 0.0
H112 H 0.41508 0.9414 0.00624 0.0
H113 H 0.93977 0.46048 0.92407 0.0
H114 H 0.51125 0.01301 0.05268 0.0
N115 N 0.57385 0.80357 0.00825 0.0
C116 C 0.52038 0.76261 0.98425 0.0
C117 C 0.42907 0.83106 0.98142 0.0
C118 C 0.48434 0.87278 0.00581 0.0
C119 C 0.44688 0.77577 0.97088 0.0
C120 C 0.55602 0.85763 0.01995 0.0
H121 H 0.63855 0.03805 0.0979 0.0
N122 N 0.67229 0.88211 0.06349 0.0
C123 C 0.70936 0.97735 0.10657 0.0
C124 C 0.60772 0.89811 0.04778 0.0
C125 C 0.72069 0.92079 0.09415 0.0
C126 C 0.64608 0.9943 0.08876 0.0
C127 C 0.59243 0.95472 0.06013 0.0
O128 O 0.68574 0.80455 0.10212 0.0
O129 O 0.81091 0.73807 0.02428 0.0
O130 O 0.78565 0.6449 0.97701 0.0
O131 O 0.66189 0.69316 0.9986 0.0
O132 O 0.80124 0.80697 0.08194 0.0
O133 O 0.5956 0.75117 0.05709 0.0
O134 O 0.87289 0.67196 0.89035 0.0
O135 O 0.74368 0.74882 0.96945 0.0
O136 O 0.76171 0.84214 0.01487 0.0
O137 O 0.88682 0.79616 0.9907 0.0
O138 O 0.75342 0.67886 0.91232 0.0
O139 O 0.95888 0.73207 0.93308 0.0
C140 C 0.84638 0.76451 0.05925 0.0
C141 C 0.55711 0.79838 0.12962 0.0
C142 C 0.49423 0.79961 0.19256 0.0
C143 C 0.55066 0.77725 0.159 0.0
C144 C 0.44241 0.84296 0.19574 0.0
C145 C 0.5059 0.84181 0.1332 0.0
C146 C 0.44843 0.8638 0.16614 0.0
C147 C 0.70718 0.64774 0.98719 0.0
C148 C 0.61979 0.77508 0.09653 0.0
C149 C 0.52383 0.96985 0.04396 0.0
C150 C 0.46918 0.92902 0.01737 0.0
C151 C 0.70765 0.72124 0.93477 0.0
C152 C 1.00512 0.67133 0.86357 0.0
C153 C 0.02373 0.68494 0.83055 0.0
C154 C 0.08327 0.65452 0.79957 0.0
C155 C 0.1244 0.61105 0.80293 0.0
C156 C 0.04752 0.62817 0.8664 0.0
C157 C 0.10709 0.59833 0.83624 0.0
C158 C 0.83947 0.84115 1.00447 0.0
C159 C 0.93865 0.70077 0.89357 0.0
H160 H 0.5909 0.7438 0.15612 0.0
H161 H 0.39654 0.86026 0.2205 0.0
H162 H 0.51054 0.8586 0.11072 0.0
H163 H 0.40844 0.8971 0.16878 0.0
H164 H 0.99026 0.71829 0.82884 0.0
H165 H 0.17019 0.5867 0.77964 0.0
H166 H 0.03394 0.61722 0.89162 0.0
H167 H 0.13938 0.56478 0.83838 0.0
Eu168 Eu 0.21366 0.70769 0.46788 0.0
C169 C 0.43591 0.91971 0.55333 0.0
C170 C 0.56626 0.89347 0.5169 0.0
C171 C 0.52268 0.98999 0.549 0.0
C172 C 0.49246 0.87907 0.53013 0.0
C173 C 0.45063 0.97571 0.56333 0.0
C174 C 0.58037 0.94893 0.52577 0.0
C175 C 0.32488 1.00013 0.6038 0.0
N176 N 0.36782 0.90481 0.56754 0.0
C177 C 0.31365 0.94419 0.59364 0.0
C178 C 0.3933 0.01586 0.58819 0.0
Eu179 Eu 0.35152 0.80917 0.54796 0.0
N180 N 0.47716 0.82592 0.52224 0.0
C181 C 0.53511 0.78563 0.50321 0.0
C182 C 0.62484 0.85203 0.49638 0.0
C183 C 0.60961 0.79805 0.49007 0.0
H184 H 0.26058 0.93215 0.60571 0.0
H185 H 0.65504 0.76584 0.47477 0.0
H186 H 0.63632 0.96066 0.51549 0.0
H187 H 0.28095 0.03105 0.6237 0.0
H188 H 0.52444 0.74365 0.4979 0.0
H189 H 0.91924 0.74776 0.54981 0.0
H190 H 0.68255 0.86148 0.48606 0.0
H191 H 0.29899 0.58602 0.40103 0.0
H192 H 0.04802 0.77178 0.5261 0.0
H193 H 0.27196 0.48572 0.37283 0.0
H194 H 0.53491 0.03278 0.55625 0.0
H195 H 0.8863 0.64946 0.52886 0.0
H196 H 0.92468 0.54894 0.48782 0.0
H197 H 0.40215 0.05909 0.59599 0.0
H198 H 0.02092 0.47767 0.43998 0.0
N199 N 0.09095 0.68832 0.49433 0.0
C200 C 0.03565 0.7288 0.51751 0.0
C201 C 0.9437 0.65984 0.51889 0.0
C202 C 0.99881 0.6183 0.49346 0.0
C203 C 0.9621 0.71534 0.5308 0.0
C204 C 0.07293 0.63406 0.48153 0.0
H205 H 0.14994 0.4537 0.39676 0.0
N206 N 0.19494 0.61076 0.4418 0.0
C207 C 0.2309 0.51573 0.39603 0.0
C208 C 0.12668 0.59404 0.4545 0.0
C209 C 0.24608 0.57265 0.41217 0.0
C210 C 0.16203 0.49781 0.40965 0.0
C211 C 0.10833 0.53708 0.43882 0.0
O212 O 0.22064 0.68714 0.40082 0.0
O213 O 0.3207 0.76318 0.47993 0.0
O214 O 0.28223 0.85325 0.51716 0.0
O215 O 0.16576 0.79786 0.4964 0.0
O216 O 0.33071 0.68564 0.42908 0.0
O217 O 0.11069 0.72503 0.43605 0.0
O218 O 0.34872 0.84482 0.61687 0.0
O219 O 0.24621 0.75197 0.53649 0.0
O220 O 0.29097 0.65792 0.49182 0.0
O221 O 0.39971 0.72009 0.52181 0.0
O222 O 0.23398 0.82991 0.58656 0.0
O223 O 0.44728 0.78863 0.58141 0.0
C224 C 0.36674 0.73295 0.44946 0.0
C225 C 0.10019 0.67108 0.36107 0.0
C226 C 0.04253 0.65988 0.29404 0.0
C227 C 0.08056 0.69302 0.33308 0.0
C228 C 0.02212 0.6047 0.2839 0.0
C229 C 0.07964 0.61601 0.35046 0.0
C230 C 0.04039 0.58311 0.31208 0.0
C231 C 0.20472 0.84518 0.5058 0.0
C232 C 0.14773 0.70511 0.39934 0.0
C233 C 0.0359 0.52119 0.45163 0.0
C234 C 0.98116 0.56173 0.47882 0.0
C235 C 0.20006 0.78181 0.56711 0.0
C236 C 0.47068 0.85063 0.65399 0.0
C237 C 0.48668 0.82911 0.68242 0.0
C238 C 0.53433 0.85857 0.71873 0.0
C239 C 0.56688 0.9104 0.72594 0.0
C240 C 0.50363 0.90196 0.66124 0.0
C241 C 0.55179 0.93162 0.69715 0.0
C242 C 0.36617 0.67009 0.50739 0.0
C243 C 0.41528 0.81957 0.61871 0.0
H244 H 0.09705 0.73553 0.34118 0.0
H245 H 0.99071 0.57857 0.25466 0.0
H246 H 0.09459 0.59837 0.37156 0.0
H247 H 0.02435 0.54067 0.30409 0.0
H248 H 0.46035 0.78942 0.67656 0.0
H249 H 0.60297 0.93512 0.75373 0.0
H250 H 0.49129 0.91922 0.63959 0.0
H251 H 0.57672 0.97153 0.70298 0.0
Eu252 Eu 0.65068 0.18408 0.4624 0.0
C253 C 0.89148 0.38368 0.53128 0.0
C254 C 1.00978 0.3494 0.48538 0.0
C255 C 0.97114 0.44662 0.51416 0.0
C256 C 0.94183 0.34019 0.50596 0.0
C257 C 0.90637 0.43767 0.53643 0.0
C258 C 0.02276 0.40251 0.48858 0.0
C259 C 0.799 0.47098 0.58932 0.0
N260 N 0.83082 0.37372 0.55302 0.0
C261 C 0.78696 0.41664 0.58327 0.0
C262 C 0.85744 0.48127 0.56492 0.0
Eu263 Eu 0.80627 0.27986 0.53672 0.0
N264 N 0.92785 0.28975 0.50409 0.0
C265 C 0.98392 0.24801 0.4856 0.0
C266 C 0.06452 0.30561 0.46385 0.0
C267 C 0.05253 0.25508 0.46482 0.0
H268 H 0.74036 0.40843 0.60139 0.0
H269 H 0.09568 0.22139 0.44927 0.0
H270 H 0.07413 0.41034 0.47266 0.0
H271 H 0.76276 0.50478 0.61246 0.0
H272 H 0.97499 0.20852 0.48557 0.0
H273 H 0.35469 0.23108 0.54341 0.0
H274 H 0.11759 0.31096 0.4477 0.0
H275 H 0.73541 0.06022 0.40118 0.0
H276 H 0.4841 0.25204 0.51847 0.0
H277 H 0.71323 0.96142 0.38249 0.0
H278 H 0.9837 0.48783 0.51786 0.0
H279 H 0.32463 0.13516 0.53071 0.0
H280 H 0.36736 0.03511 0.49891 0.0
H281 H 0.86557 0.52308 0.56898 0.0
H282 H 0.46473 0.96175 0.45505 0.0
N283 N 0.52801 0.16869 0.49135 0.0
C284 C 0.47238 0.20992 0.5125 0.0
C285 C 0.38181 0.14408 0.51957 0.0
C286 C 0.43817 0.10182 0.49719 0.0
C287 C 0.39851 0.19821 0.52669 0.0
C288 C 0.51106 0.11547 0.48268 0.0
H289 H 0.59367 0.9342 0.41215 0.0
N290 N 0.63141 0.08843 0.44172 0.0
C291 C 0.6709 0.99263 0.40355 0.0
C292 C 0.56477 0.07413 0.45736 0.0
C293 C 0.6832 0.04858 0.41409 0.0
C294 C 0.60364 0.97742 0.42031 0.0
C295 C 0.54876 0.01815 0.44691 0.0
O296 O 0.6314 0.1492 0.39386 0.0
O297 O 0.76274 0.23385 0.47056 0.0
O298 O 0.72635 0.32921 0.51298 0.0
O299 O 0.60861 0.27438 0.49413 0.0
O300 O 0.75798 0.16084 0.41575 0.0
O301 O 0.55863 0.2194 0.43762 0.0
O302 O 0.81893 0.31535 0.60567 0.0
O303 O 0.69458 0.22987 0.52864 0.0
O304 O 0.72194 0.13735 0.49057 0.0
O305 O 0.84392 0.18755 0.50722 0.0
O306 O 0.69846 0.30439 0.58272 0.0
O307 O 0.90205 0.25065 0.5646 0.0
C308 C 0.80164 0.20436 0.43706 0.0
C309 C 0.50214 0.16382 0.37034 0.0
C310 C 0.42147 0.16609 0.31333 0.0
C311 C 0.49079 0.1818 0.33938 0.0
C312 C 0.36351 0.13105 0.31842 0.0
C313 C 0.44397 0.1293 0.37538 0.0
C314 C 0.37498 0.11289 0.34932 0.0
C315 C 0.64766 0.32127 0.50304 0.0
C316 C 0.57332 0.18446 0.39809 0.0
C317 C 0.47791 0.00453 0.46262 0.0
C318 C 0.42258 0.04629 0.48765 0.0
C319 C 0.65622 0.25971 0.56232 0.0
C320 C 0.94717 0.31004 0.63435 0.0
C321 C 0.95748 0.29484 0.66705 0.0
C322 C 0.0172 0.32034 0.69849 0.0
C323 C 0.06818 0.36075 0.69601 0.0
C324 C 0.99849 0.35011 0.63222 0.0
C325 C 0.05903 0.3751 0.6629 0.0
C326 C 0.80088 0.14213 0.49931 0.0
C327 C 0.88113 0.28413 0.60362 0.0
H328 H 0.53598 0.20884 0.33592 0.0
H329 H 0.31013 0.11689 0.29841 0.0
H330 H 0.45173 0.11542 0.39942 0.0
H331 H 0.33021 0.086 0.35307 0.0
H332 H 0.91849 0.2631 0.66809 0.0
H333 H 0.1137 0.38236 0.72002 0.0
H334 H 0.99132 0.36221 0.60714 0.0
H335 H 0.09824 0.40639 0.6614 0.0
H336 H 0.70765 0.56077 0.97703 0.0
C337 C 0.66937 0.59736 0.98624 0.0
H338 H 0.5537 0.63319 0.00923 0.0
H339 H 0.46983 0.36351 0.9338 0.0
H340 H 0.50709 0.35464 0.8647 0.0
H341 H 0.5654 0.43389 0.85735 0.0
H342 H 0.58724 0.5224 0.9191 0.0
C343 C 0.59151 0.59615 0.99831 0.0
C344 C 0.5571 0.5473 1.00214 0.0
C345 C 0.54402 0.49576 0.9656 0.0
C346 C 0.50932 0.45013 0.96983 0.0
C347 C 0.49646 0.39941 0.93267 0.0
C348 C 0.51725 0.39376 0.89269 0.0
C349 C 0.55015 0.43836 0.88856 0.0
C350 C 0.56298 0.48891 0.92439 0.0
H351 H 0.3365 0.44819 0.03881 0.0
C352 C 0.37117 0.40979 0.0279 0.0
H353 H 0.48282 0.36936 1.00189 0.0
H354 H 0.5747 0.63967 0.07876 0.0
H355 H 0.54044 0.64784 0.14801 0.0
H356 H 0.48313 0.56853 0.15552 0.0
H357 H 0.45987 0.48029 0.09371 0.0
C358 C 0.44855 0.40803 0.01417 0.0
C359 C 0.48649 0.45611 0.0105 0.0
C360 C 0.50078 0.50741 0.0471 0.0
C361 C 0.53511 0.55309 0.04283 0.0
C362 C 0.54841 0.60372 0.07997 0.0
C363 C 0.52925 0.60901 0.12003 0.0
C364 C 0.49704 0.56431 0.12424 0.0
C365 C 0.4833 0.51396 0.08838 0.0
H366 H 0.48183 0.6383 0.51909 0.0
C367 C 0.41935 0.6265 0.50844 0.0
H368 H 0.33376 0.56097 0.4865 0.0
H369 H 0.6054 0.37204 0.42569 0.0
H370 H 0.54544 0.35672 0.35864 0.0
H371 H 0.44361 0.42214 0.35569 0.0
H372 H 0.40151 0.5034 0.41977 0.0
C373 C 0.39513 0.57447 0.49825 0.0
C374 C 0.45358 0.53331 0.50064 0.0
C375 C 0.47754 0.4858 0.46295 0.0
C376 C 0.53586 0.44773 0.46469 0.0
C377 C 0.56005 0.40153 0.42635 0.0
C378 C 0.52653 0.39244 0.38759 0.0
C379 C 0.46925 0.42929 0.38593 0.0
C380 C 0.4453 0.47567 0.42299 0.0
H381 H 0.53225 0.35778 0.49628 0.0
C382 C 0.59721 0.36609 0.50215 0.0
H383 H 0.69054 0.42503 0.51292 0.0
H384 H 0.41495 0.6163 0.57986 0.0
H385 H 0.47473 0.63108 0.64669 0.0
H386 H 0.57794 0.5662 0.64924 0.0
H387 H 0.62132 0.48585 0.58482 0.0
C388 C 0.6263 0.41483 0.50657 0.0
C389 C 0.56944 0.45664 0.50422 0.0
C390 C 0.54538 0.50396 0.54191 0.0
C391 C 0.48684 0.54196 0.54026 0.0
C392 C 0.4614 0.5873 0.57885 0.0
C393 C 0.49462 0.59598 0.61758 0.0
C394 C 0.55262 0.55943 0.61903 0.0
C395 C 0.57737 0.51364 0.5818 0.0
H396 H 0.16344 0.08013 0.98017 0.0
C397 C 0.13198 0.11898 0.9999 0.0
H398 H 0.03015 0.15533 0.03995 0.0
H399 H 0.83091 0.92756 0.95331 0.0
H400 H 0.74975 0.987 0.9337 0.0
H401 H 0.7956 0.08177 0.95102 0.0
H402 H 0.92354 0.11742 0.98773 0.0
C403 C 0.06313 0.11731 0.02005 0.0
C404 C 0.03048 0.06284 0.01487 0.0
C405 C 0.95446 0.04305 0.99449 0.0
C406 C 0.92677 0.98889 0.98569 0.0
C407 C 0.85309 0.96917 0.96279 0.0
C408 C 0.80627 0.00266 0.95081 0.0
C409 C 0.83219 0.05596 0.96046 0.0
C410 C 0.9057 0.07594 0.98165 0.0
H411 H 0.83757 0.9318 0.02864 0.0
C412 C 0.87352 0.89463 0.01005 0.0
H413 H 0.98058 0.86294 0.97353 0.0
H414 H 0.17314 0.09074 0.06028 0.0
H415 H 0.25361 0.03198 0.08092 0.0
H416 H 0.20721 0.93758 0.06445 0.0
H417 H 0.07974 0.9016 0.02755 0.0
C418 C 0.94336 0.89946 0.99196 0.0
C419 C 0.97374 0.95519 0.99881 0.0
C420 C 0.0493 0.97534 0.01972 0.0
C421 C 0.07708 0.02939 0.02833 0.0
C422 C 0.15076 0.04925 0.05121 0.0
C423 C 0.1972 0.01616 0.06373 0.0
C424 C 0.17099 0.96307 0.05454 0.0
C425 C 0.09771 0.94286 0.03315 0.0
H426 H 0.80315 0.05937 0.4971 0.0
C427 C 0.8417 0.0933 0.49926 0.0
H428 H 0.96253 0.1224 0.50355 0.0
H429 H 0.11295 0.97252 0.57991 0.0
H430 H 0.12775 0.06474 0.63841 0.0
H431 H 0.06701 0.14615 0.63521 0.0
H432 H 0.9907 0.13571 0.5735 0.0
C433 C 0.92328 0.08847 0.50064 0.0
C434 C 0.96217 0.03878 0.50137 0.0
C435 C 1.00827 0.04559 0.53734 0.0
C436 C 0.04487 0.99866 0.53881 0.0
C437 C 0.08683 0.0067 0.57616 0.0
C438 C 0.09505 0.05946 0.61028 0.0
C439 C 0.06075 0.10527 0.60851 0.0
C440 C 0.01734 0.09865 0.57273 0.0
H441 H 0.19708 0.92777 0.5081 0.0
C442 C 0.16069 0.89271 0.50545 0.0
H443 H 0.0416 0.86071 0.50079 0.0
H444 H 0.88474 0.01086 0.42556 0.0
H445 H 0.86865 0.91853 0.36747 0.0
H446 H 0.92966 0.83718 0.37066 0.0
H447 H 1.00738 0.84781 0.43201 0.0
C448 C 0.07884 0.89559 0.50387 0.0
C449 C 0.03728 0.94489 0.50375 0.0
C450 C 0.99042 0.93799 0.46799 0.0
C451 C 0.95376 0.98492 0.46652 0.0
C452 C 0.91103 0.97676 0.42935 0.0
C453 C 0.90204 0.92391 0.39544 0.0
C454 C 0.93648 0.87813 0.39721 0.0
C455 C 0.98075 0.88486 0.43277 0.0
H456 H 0.46937 0.20321 0.2737 0.0
C457 C 0.41456 0.18597 0.28062 0.0
H458 H 0.28813 0.17172 0.26692 0.0
H459 H 0.26461 0.3447 0.19251 0.0
H460 H 0.17599 0.38646 0.25392 0.0
H461 H 0.16579 0.34741 0.30457 0.0
H462 H 0.24259 0.26512 0.29322 0.0
C463 C 0.34586 0.1851 0.25956 0.0
C464 C 0.34717 0.2063 0.22732 0.0
C465 C 0.30277 0.25479 0.23462 0.0
C466 C 0.31103 0.27833 0.20607 0.0
C467 C 0.26324 0.32571 0.21353 0.0
C468 C 0.21156 0.35012 0.2487 0.0
C469 C 0.20564 0.32808 0.27715 0.0
C470 C 0.25028 0.28087 0.27029 0.0
H471 H 0.34452 0.20723 0.08572 0.0
C472 C 0.35397 0.2519 0.10013 0.0
H473 H 0.38126 0.32467 0.15553 0.0
H474 H 0.42467 0.10601 0.19836 0.0
H475 H 0.51785 0.06551 0.13898 0.0
H476 H 0.55003 0.11379 0.09574 0.0
H477 H 0.48394 0.20111 0.11079 0.0
C478 C 0.37395 0.27986 0.14148 0.0
C479 C 0.36593 0.25424 0.1709 0.0
C480 C 0.40995 0.2055 0.16369 0.0
C481 C 0.39739 0.18017 0.19071 0.0
C482 C 0.43585 0.12871 0.18038 0.0
C483 C 0.48933 0.10481 0.14611 0.0
C484 C 0.50665 0.13171 0.12168 0.0
C485 C 0.46772 0.18155 0.13033 0.0
H486 H 0.51341 0.73369 0.21228 0.0
C487 C 0.49042 0.77567 0.22286 0.0
H488 H 0.44625 0.84726 0.27611 0.0
H489 H 0.33047 0.66399 0.33844 0.0
H490 H 0.23601 0.63125 0.27962 0.0
H491 H 0.24502 0.6646 0.22558 0.0
H492 H 0.34469 0.73424 0.23179 0.0
C493 C 0.46386 0.80388 0.26311 0.0
C494 C 0.46425 0.77802 0.29226 0.0
C495 C 0.40285 0.73942 0.28918 0.0
C496 C 0.39905 0.71911 0.31981 0.0
C497 C 0.33681 0.6807 0.31609 0.0
C498 C 0.28199 0.66149 0.28242 0.0
C499 C 0.28663 0.68065 0.25218 0.0
C500 C 0.34492 0.72011 0.25587 0.0
H501 H 0.41495 0.79917 0.43554 0.0
C502 C 0.41702 0.75481 0.42572 0.0
H503 H 0.44709 0.6753 0.37738 0.0
H504 H 0.60009 0.84112 0.301 0.0
H505 H 0.71009 0.85911 0.35157 0.0
H506 H 0.70356 0.8235 0.40442 0.0
H507 H 0.58808 0.76761 0.40585 0.0
C508 C 0.4472 0.71972 0.38726 0.0
C509 C 0.4568 0.73739 0.35333 0.0
C510 C 0.52276 0.77141 0.35372 0.0
C511 C 0.52634 0.79201 0.32327 0.0
C512 C 0.59416 0.82467 0.3236 0.0
C513 C 0.6577 0.83521 0.35237 0.0
C514 C 0.65401 0.81516 0.38217 0.0
C515 C 0.58725 0.78376 0.38304 0.0
H516 H 0.64459 0.79172 0.93213 0.0
C517 C 0.65754 0.74756 0.91428 0.0
H518 H 0.66151 0.67795 0.85395 0.0
H519 H 0.46369 0.8757 0.8248 0.0
H520 H 0.35208 0.86262 0.86483 0.0
H521 H 0.36473 0.79628 0.8943 0.0
H522 H 0.49205 0.74615 0.88737 0.0
C523 C 0.64529 0.72157 0.87203 0.0
C524 C 0.631 0.75367 0.84782 0.0
C525 C 0.55622 0.78189 0.85152 0.0
C526 C 0.54668 0.81666 0.83145 0.0
C527 C 0.47289 0.84679 0.83773 0.0
C528 C 0.40851 0.83985 0.86072 0.0
C529 C 0.41599 0.80297 0.87782 0.0
C530 C 0.48922 0.7747 0.8738 0.0
H531 H 0.51172 0.79596 0.74134 0.0
C532 C 0.54615 0.83347 0.74801 0.0
H533 H 0.63741 0.88756 0.78807 0.0
H534 H 0.77975 0.7004 0.83008 0.0
H535 H 0.88233 0.70211 0.78118 0.0
H536 H 0.86408 0.75983 0.74457 0.0
H537 H 0.74118 0.81483 0.7553 0.0
C538 C 0.59795 0.85229 0.78102 0.0
C539 C 0.61011 0.82023 0.80537 0.0
C540 C 0.68332 0.78964 0.79979 0.0
C541 C 0.69392 0.75641 0.82107 0.0
C542 C 0.76766 0.72599 0.81454 0.0
C543 C 0.82763 0.72693 0.78683 0.0
C544 C 0.81711 0.75922 0.76599 0.0
C545 C 0.74619 0.79053 0.77244 0.0
H546 H 0.59692 0.19239 0.57116 0.0
C547 C 0.60455 0.23717 0.58507 0.0
H548 H 0.5946 0.31381 0.6402 0.0
H549 H 0.40083 0.14194 0.69859 0.0
H550 H 0.28926 0.14525 0.65472 0.0
H551 H 0.30482 0.19452 0.61119 0.0
H552 H 0.43264 0.24064 0.6112 0.0
C553 C 0.58401 0.26927 0.62597 0.0
C554 C 0.56994 0.24449 0.65534 0.0
C555 C 0.49586 0.2171 0.65465 0.0
C556 C 0.4864 0.18985 0.68057 0.0
C557 C 0.41118 0.1635 0.6797 0.0
C558 C 0.34662 0.16519 0.65474 0.0
C559 C 0.35554 0.19266 0.63003 0.0
C560 C 0.42924 0.21834 0.62986 0.0
H561 H 0.52798 0.24183 0.79059 0.0
C562 C 0.52904 0.1969 0.7784 0.0
H563 H 0.53413 0.12009 0.7224 0.0
H564 H 0.71439 0.30196 0.67017 0.0
H565 H 0.81785 0.30941 0.72117 0.0
H566 H 0.80579 0.25724 0.76261 0.0
H567 H 0.6863 0.20104 0.75601 0.0
C568 C 0.53903 0.16501 0.73642 0.0
C569 C 0.55057 0.19112 0.70779 0.0
C570 C 0.62345 0.22058 0.70984 0.0
C571 C 0.63242 0.24826 0.68424 0.0
C572 C 0.70433 0.27952 0.68841 0.0
C573 C 0.7649 0.28367 0.71723 0.0
C574 C 0.75762 0.25482 0.74095 0.0
C575 C 0.68829 0.2231 0.7371 0.0
H576 H 0.90595 0.69245 0.06125 0.0
C577 C 0.89305 0.73638 0.07955 0.0
H578 H 0.8933 0.80486 0.14055 0.0
H579 H 0.90219 0.59183 0.18604 0.0
H580 H 0.77725 0.56042 0.14566 0.0
H581 H 0.72187 0.60845 0.10657 0.0
H582 H 0.79144 0.68724 0.10692 0.0
C583 C 0.90667 0.76092 0.1216 0.0
C584 C 0.93993 0.7301 0.14407 0.0
C585 C 0.89574 0.68546 0.14514 0.0
C586 C 0.92589 0.65916 0.16921 0.0
C587 C 0.88194 0.6137 0.16869 0.0
C588 C 0.80986 0.59528 0.14575 0.0
C589 C 0.77876 0.62224 0.12367 0.0
C590 C 0.82027 0.66717 0.12368 0.0
H591 H 1.00888 0.7286 0.2794 0.0
C592 C 0.02261 0.6844 0.26515 0.0
H593 H 0.03865 0.61097 0.20761 0.0
H594 H 0.04385 0.80988 0.14518 0.0
H595 H 0.16967 0.84069 0.18513 0.0
H596 H 0.21719 0.79906 0.23034 0.0
H597 H 0.13941 0.72627 0.23555 0.0
C598 C 0.02334 0.65488 0.22248 0.0
C599 C 0.99704 0.67968 0.19437 0.0
C600 C 0.04187 0.72357 0.19266 0.0
C601 C 0.01386 0.74818 0.16705 0.0
C602 C 0.06143 0.7905 0.16476 0.0
C603 C 0.134 0.80842 0.18737 0.0
C604 C 0.1608 0.78494 0.21277 0.0
C605 C 0.11552 0.74309 0.21549 0.0
H606 H 0.91825 0.21493 0.4097 0.0
C607 C 0.85464 0.22721 0.41508 0.0
H608 H 0.7578 0.26826 0.40267 0.0
H609 H 0.91098 0.43977 0.35546 0.0
H610 H 0.83284 0.49698 0.41858 0.0
H611 H 0.77616 0.45794 0.46388 0.0
H612 H 0.79451 0.36073 0.44525 0.0
C613 C 0.82244 0.25777 0.39766 0.0
C614 C 0.87141 0.28205 0.37425 0.0
C615 C 0.86441 0.33984 0.38683 0.0
C616 C 0.90081 0.36303 0.36182 0.0
C617 C 0.88716 0.42001 0.3737 0.0
C618 C 0.84214 0.4535 0.40995 0.0
C619 C 0.80997 0.43149 0.43537 0.0
C620 C 0.82065 0.37543 0.42411 0.0
H621 H 0.9361 0.28839 0.24 0.0
C622 C 0.96668 0.32839 0.25496 0.0
H623 H 0.0131 0.39199 0.31173 0.0
H624 H 0.89052 0.16804 0.33603 0.0
H625 H 0.98637 0.11417 0.28013 0.0
H626 H 0.07225 0.1589 0.24706 0.0
H627 H 0.05875 0.25731 0.26822 0.0
C628 C 0.98067 0.35268 0.2972 0.0
C629 C 0.94859 0.32914 0.32548 0.0
C630 C 0.96327 0.27283 0.31585 0.0
C631 C 0.9205 0.24835 0.3383 0.0
C632 C 0.92707 0.19016 0.32327 0.0
C633 C 0.98113 0.15842 0.29062 0.0
C634 C 0.02898 0.18348 0.27177 0.0
C635 C 0.02008 0.23992 0.28395 0.0
H636 H 0.96624 0.28911 0.74168 0.0
C637 C 0.021 0.30606 0.7345 0.0
H638 H 0.1446 0.32745 0.75106 0.0
H639 H 0.10604 0.37402 0.94202 0.0
H640 H 0.15171 0.46248 0.94861 0.0
H641 H 0.15469 0.48069 0.8865 0.0
H642 H 0.12269 0.40783 0.8164 0.0
C643 C 0.08847 0.3116 0.75781 0.0
C644 C 0.08801 0.29937 0.79507 0.0
C645 C 0.10375 0.34278 0.83629 0.0
C646 C 0.10188 0.33232 0.87235 0.0
C647 C 0.11348 0.37772 0.91308 0.0
C648 C 0.13628 0.42969 0.91762 0.0
C649 C 0.13912 0.43971 0.88256 0.0
C650 C 0.12118 0.39729 0.84244 0.0
H651 H 0.20473 0.30581 0.92836 0.0
C652 C 0.15781 0.27886 0.93058 0.0
H653 H 0.04995 0.23509 0.90582 0.0
H654 H 0.06682 0.20514 0.71997 0.0
H655 H 0.04574 0.112 0.71086 0.0
H656 H 0.04616 0.09257 0.77244 0.0
H657 H 0.06719 0.1658 0.84321 0.0
C658 C 0.09404 0.26376 0.90379 0.0
C659 C 0.08892 0.27737 0.867 0.0
C660 C 0.07541 0.23354 0.8253 0.0
C661 C 0.07496 0.2446 0.78951 0.0
C662 C 0.06485 0.19966 0.74836 0.0
C663 C 0.05364 0.14568 0.74254 0.0
C664 C 0.05387 0.13477 0.77721 0.0
C665 C 0.06533 0.17773 0.81799 0.0
H666 H 0.09657 0.78132 0.60706 0.0
C667 C 0.15396 0.76096 0.59297 0.0
H668 H 0.25251 0.71413 0.59768 0.0
H669 H 0.18921 0.78688 0.79219 0.0
H670 H 0.29473 0.85262 0.79721 0.0
H671 H 0.33924 0.86138 0.73402 0.0
H672 H 0.27915 0.80405 0.66506 0.0
C673 C 0.19103 0.72953 0.60838 0.0
C674 C 0.15938 0.72628 0.64697 0.0
C675 C 0.1953 0.75978 0.68716 0.0
C676 C 0.16884 0.75525 0.72389 0.0
C677 C 0.2065 0.78893 0.76338 0.0
C678 C 0.26732 0.8267 0.76673 0.0
C679 C 0.29249 0.83158 0.73108 0.0
C680 C 0.25743 0.79847 0.69169 0.0
H681 H 0.13687 0.63259 0.73627 0.0
C682 C 0.10229 0.66458 0.76227 0.0
H683 H 0.0516 0.74534 0.78472 0.0
H684 H 0.07821 0.65581 0.57547 0.0
H685 H 0.96545 0.59497 0.57138 0.0
H686 H 0.91443 0.59137 0.6359 0.0
H687 H 0.9768 0.64687 0.70425 0.0
C688 C 0.08171 0.71061 0.75882 0.0
C689 C 0.10628 0.7173 0.7206 0.0
C690 C 0.068 0.68553 0.68083 0.0
C691 C 0.09543 0.68933 0.64391 0.0
C692 C 0.05815 0.65546 0.60448 0.0
C693 C 0.99372 0.62032 0.60173 0.0
C694 C 0.96517 0.61805 0.63795 0.0
C695 C 1.00174 0.65004 0.67707 0.0
loop_
_geom_bond_atom_site_label_1
_geom_bond_atom_site_label_2
_geom_bond_distance
_geom_bond_site_symmetry_2
_ccdc_geom_bond_type
Eu0 N31 2.657 . S
Eu0 N38 2.609 . S
Eu0 O44 2.558 . S
Eu0 O45 2.612 . S
Eu0 O47 2.339 . S
Eu0 O48 2.563 . S
Eu0 O49 2.419 . S
Eu0 O51 2.380 1_554 S
Eu0 O52 2.432 . S
Eu0 C64 2.848 . S
C1 C4 1.429 . S
C1 C5 1.411 . S
C1 N8 1.377 . S
C2 C4 1.420 1_554 S
C2 C6 1.423 . S
C2 C14 1.392 . S
C3 C5 1.420 . S
C3 C6 1.351 1_556 S
C3 H26 0.931 . S
C4 C1 1.429 . S
C4 C2 1.420 1_556 S
C4 N12 1.362 . S
C5 C1 1.411 . S
C5 C3 1.420 . S
C5 C10 1.395 . S
C6 C2 1.423 . S
C6 C3 1.351 1_554 S
C6 H18 0.930 . S
C7 C9 1.400 . S
C7 C10 1.386 . S
C7 H19 0.930 1_545 S
N8 C1 1.377 . S
N8 C9 1.321 . S
N8 Eu11 2.609 . S
C9 C7 1.400 . S
C9 N8 1.321 . S
C9 H16 0.930 . S
C10 C5 1.395 . S
C10 C7 1.386 . S
C10 H29 0.930 1_545 S
Eu11 N8 2.609 . S
Eu11 N12 2.657 . S
Eu11 O45 2.380 1_556 S
Eu11 O46 2.432 . S
Eu11 O50 2.558 . S
Eu11 O51 2.612 . S
Eu11 O53 2.339 . S
Eu11 O54 2.563 . S
Eu11 O55 2.419 . S
Eu11 C75 2.848 . S
N12 C4 1.362 . S
N12 Eu11 2.657 . S
N12 C13 1.334 1_556 S
C13 N12 1.334 1_554 S
C13 C15 1.413 . S
C13 H20 0.929 . S
C14 C2 1.392 . S
C14 C15 1.367 . S
C14 H22 0.930 . S
C15 C13 1.413 . S
C15 C14 1.367 . S
C15 H17 0.930 . S
H16 C9 0.930 . S
H17 C15 0.930 . S
H18 C6 0.930 . S
H19 C7 0.930 1_565 S
H20 C13 0.929 . S
H21 C35 0.930 . S
H22 C14 0.930 . S
H23 C41 0.930 . S
H24 C32 0.929 1_455 S
H25 C39 0.930 . S
H26 C3 0.931 . S
H27 C33 0.930 . S
H28 C66 0.930 . S
H29 C10 0.930 1_565 S
H30 C65 0.931 . S
N31 Eu0 2.657 . S
N31 C32 1.334 1_454 S
N31 C36 1.362 1_455 S
C32 H24 0.929 1_655 S
C32 N31 1.334 1_656 S
C32 C35 1.413 . S
C33 H27 0.930 . S
C33 C34 1.392 . S
C33 C35 1.367 . S
C34 C33 1.392 . S
C34 C36 1.420 1_556 S
C34 C66 1.423 . S
C35 H21 0.930 . S
C35 C32 1.413 . S
C35 C33 1.367 . S
C36 N31 1.362 1_655 S
C36 C34 1.420 1_554 S
C36 C40 1.429 1_655 S
H37 C42 0.930 1_655 S
N38 Eu0 2.609 . S
N38 C40 1.377 . S
N38 C41 1.321 . S
C39 H25 0.930 . S
C39 C41 1.400 . S
C39 C42 1.386 . S
C40 C36 1.429 1_455 S
C40 N38 1.377 . S
C40 C43 1.411 1_455 S
C41 H23 0.930 . S
C41 N38 1.321 . S
C41 C39 1.400 . S
C42 H37 0.930 1_455 S
C42 C39 1.386 . S
C42 C43 1.395 1_455 S
C43 C40 1.411 1_655 S
C43 C42 1.395 1_655 S
C43 C65 1.420 . S
O44 Eu0 2.558 . S
O44 C64 1.257 . S
O45 Eu0 2.612 . S
O45 Eu11 2.380 1_554 S
O45 C56 1.276 . S
O46 Eu11 2.432 . S
O46 C63 1.264 . S
O47 Eu0 2.339 . S
O47 C63 1.254 1_554 S
O48 Eu0 2.563 . S
O48 C56 1.235 . S
O49 Eu0 2.419 . S
O49 C64 1.249 . S
O50 Eu11 2.558 . S
O50 C75 1.257 . S
O51 Eu0 2.380 1_556 S
O51 Eu11 2.612 . S
O51 C67 1.276 . S
O52 Eu0 2.432 . S
O52 C74 1.264 . S
O53 Eu11 2.339 . S
O53 C74 1.254 1_556 S
O54 Eu11 2.563 . S
O54 C67 1.235 . S
O55 Eu11 2.419 . S
O55 C75 1.249 . S
C56 O45 1.276 . S
C56 O48 1.235 . S
C57 C59 1.393 . S
C57 C61 1.395 . S
C57 C64 1.492 . S
C58 C59 1.392 . S
C58 C60 1.386 1_455 S
C59 C57 1.393 . S
C59 C58 1.392 . S
C59 H76 0.930 . S
C60 C58 1.386 1_655 S
C60 C62 1.395 1_655 S
C60 H77 0.930 . S
C61 C57 1.395 . S
C61 C62 1.379 . S
C61 H78 0.930 . S
C62 C60 1.395 1_455 S
C62 C61 1.379 . S
C62 H79 0.930 1_455 S
C63 O46 1.264 . S
C63 O47 1.254 1_556 S
C64 Eu0 2.848 . S
C64 O44 1.257 . S
C64 O49 1.249 . S
C64 C57 1.492 . S
C65 H30 0.931 . S
C65 C43 1.420 . S
C65 C66 1.351 1_554 S
C66 H28 0.930 . S
C66 C34 1.423 . S
C66 C65 1.351 1_556 S
C67 O51 1.276 . S
C67 O54 1.235 . S
C68 C69 1.393 . S
C68 C72 1.395 . S
C68 C75 1.492 . S
C69 C68 1.393 . S
C69 C70 1.392 . S
C69 H80 0.930 . S
C70 C69 1.392 . S
C70 C71 1.386 . S
C71 C70 1.386 . S
C71 C73 1.395 . S
C71 H81 0.930 . S
C72 C68 1.395 . S
C72 C73 1.379 . S
C72 H82 0.930 . S
C73 C71 1.395 . S
C73 C72 1.379 . S
C73 H83 0.930 . S
C74 O52 1.264 . S
C74 O53 1.254 1_554 S
C75 Eu11 2.848 . S
C75 O50 1.257 . S
C75 O55 1.249 . S
C75 C68 1.492 . S
H76 C59 0.930 . S
H77 C60 0.930 . S
H78 C61 0.930 . S
H79 C62 0.930 1_655 S
H80 C69 0.930 . S
H81 C71 0.930 . S
H82 C72 0.930 . S
H83 C73 0.930 . S
Eu84 N115 2.657 . S
Eu84 N122 2.609 . S
Eu84 O128 2.558 . S
Eu84 O129 2.612 . S
Eu84 O131 2.339 . S
Eu84 O132 2.563 . S
Eu84 O133 2.419 . S
Eu84 O135 2.380 1_554 S
Eu84 O136 2.432 . S
Eu84 C148 2.848 . S
C85 C88 1.429 1_655 S
C85 C89 1.411 1_655 S
C85 N92 1.377 . S
C86 C88 1.420 1_554 S
C86 C90 1.423 . S
C86 C98 1.392 . S
C87 C89 1.420 . S
C87 C90 1.351 1_556 S
C87 H110 0.931 . S
C88 C85 1.429 1_455 S
C88 C86 1.420 1_556 S
C88 N96 1.362 1_455 S
C89 C85 1.411 1_455 S
C89 C87 1.420 . S
C89 C94 1.395 1_455 S
C90 C86 1.423 . S
C90 C87 1.351 1_554 S
C90 H102 0.930 . S
C91 C93 1.400 . S
C91 C94 1.386 . S
C91 H103 0.930 . S
N92 C85 1.377 . S
N92 C93 1.321 . S
N92 Eu95 2.609 . S
C93 C91 1.400 . S
C93 N92 1.321 . S
C93 H100 0.930 . S
C94 C89 1.395 1_655 S
C94 C91 1.386 . S
C94 H113 0.930 1_655 S
Eu95 N92 2.609 . S
Eu95 N96 2.657 . S
Eu95 O129 2.380 1_556 S
Eu95 O130 2.432 . S
Eu95 O134 2.558 . S
Eu95 O135 2.612 . S
Eu95 O137 2.339 . S
Eu95 O138 2.563 . S
Eu95 O139 2.419 . S
Eu95 C159 2.848 . S
N96 C88 1.362 1_655 S
N96 Eu95 2.657 . S
N96 C97 1.334 1_656 S
C97 N96 1.334 1_454 S
C97 C99 1.413 . S
C97 H104 0.929 1_455 S
C98 C86 1.392 . S
C98 C99 1.367 . S
C98 H106 0.930 . S
C99 C97 1.413 . S
C99 C98 1.367 . S
C99 H101 0.930 . S
H100 C93 0.930 . S
H101 C99 0.930 . S
H102 C90 0.930 . S
H103 C91 0.930 . S
H104 C97 0.929 1_655 S
H105 C119 0.930 . S
H106 C98 0.930 . S
H107 C125 0.930 . S
H108 C116 0.929 . S
H109 C123 0.930 1_545 S
H110 C87 0.931 . S
H111 C117 0.930 . S
H112 C150 0.930 . S
H113 C94 0.930 1_455 S
H114 C149 0.931 . S
N115 Eu84 2.657 . S
N115 C116 1.334 1_554 S
N115 C120 1.362 . S
C116 H108 0.929 . S
C116 N115 1.334 1_556 S
C116 C119 1.413 . S
C117 H111 0.930 . S
C117 C118 1.392 . S
C117 C119 1.367 . S
C118 C117 1.392 . S
C118 C120 1.420 1_556 S
C118 C150 1.423 . S
C119 H105 0.930 . S
C119 C116 1.413 . S
C119 C117 1.367 . S
C120 N115 1.362 . S
C120 C118 1.420 1_554 S
C120 C124 1.429 . S
H121 C126 0.930 1_545 S
N122 Eu84 2.609 . S
N122 C124 1.377 . S
N122 C125 1.321 . S
C123 H109 0.930 1_565 S
C123 C125 1.400 . S
C123 C126 1.386 . S
C124 C120 1.429 . S
C124 N122 1.377 . S
C124 C127 1.411 . S
C125 H107 0.930 . S
C125 N122 1.321 . S
C125 C123 1.400 . S
C126 H121 0.930 1_565 S
C126 C123 1.386 . S
C126 C127 1.395 . S
C127 C124 1.411 . S
C127 C126 1.395 . S
C127 C149 1.420 . S
O128 Eu84 2.558 . S
O128 C148 1.257 . S
O129 Eu84 2.612 . S
O129 Eu95 2.380 1_554 S
O129 C140 1.276 . S
O130 Eu95 2.432 . S
O130 C147 1.264 . S
O131 Eu84 2.339 . S
O131 C147 1.254 1_554 S
O132 Eu84 2.563 . S
O132 C140 1.235 . S
O133 Eu84 2.419 . S
O133 C148 1.249 . S
O134 Eu95 2.558 . S
O134 C159 1.257 . S
O135 Eu84 2.380 1_556 S
O135 Eu95 2.612 . S
O135 C151 1.276 . S
O136 Eu84 2.432 . S
O136 C158 1.264 . S
O137 Eu95 2.339 . S
O137 C158 1.254 1_556 S
O138 Eu95 2.563 . S
O138 C151 1.235 . S
O139 Eu95 2.419 . S
O139 C159 1.249 . S
C140 O129 1.276 . S
C140 O132 1.235 . S
C141 C143 1.393 . S
C141 C145 1.395 . S
C141 C148 1.492 . S
C142 C143 1.392 . S
C142 C144 1.386 . S
C143 C141 1.393 . S
C143 C142 1.392 . S
C143 H160 0.930 . S
C144 C142 1.386 . S
C144 C146 1.395 . S
C144 H161 0.930 . S
C145 C141 1.395 . S
C145 C146 1.379 . S
C145 H162 0.930 . S
C146 C144 1.395 . S
C146 C145 1.379 . S
C146 H163 0.930 . S
C147 O130 1.264 . S
C147 O131 1.254 1_556 S
C148 Eu84 2.848 . S
C148 O128 1.257 . S
C148 O133 1.249 . S
C148 C141 1.492 . S
C149 H114 0.931 . S
C149 C127 1.420 . S
C149 C150 1.351 1_554 S
C150 H112 0.930 . S
C150 C118 1.423 . S
C150 C149 1.351 1_556 S
C151 O135 1.276 . S
C151 O138 1.235 . S
C152 C153 1.393 . S
C152 C156 1.395 . S
C152 C159 1.492 . S
C153 C152 1.393 . S
C153 C154 1.392 . S
C153 H164 0.930 . S
C154 C153 1.392 . S
C154 C155 1.386 1_655 S
C155 C154 1.386 1_455 S
C155 C157 1.395 1_455 S
C155 H165 0.930 . S
C156 C152 1.395 . S
C156 C157 1.379 . S
C156 H166 0.930 . S
C157 C155 1.395 1_655 S
C157 C156 1.379 . S
C157 H167 0.930 1_655 S
C158 O136 1.264 . S
C158 O137 1.254 1_554 S
C159 Eu95 2.848 . S
C159 O134 1.257 . S
C159 O139 1.249 . S
C159 C152 1.492 . S
H160 C143 0.930 . S
H161 C144 0.930 . S
H162 C145 0.930 . S
H163 C146 0.930 . S
H164 C153 0.930 . S
H165 C155 0.930 . S
H166 C156 0.930 . S
H167 C157 0.930 1_455 S
Eu168 N199 2.657 . S
Eu168 N206 2.609 . S
Eu168 O212 2.558 . S
Eu168 O213 2.612 . S
Eu168 O215 2.339 . S
Eu168 O216 2.563 . S
Eu168 O217 2.419 . S
Eu168 O219 2.380 . S
Eu168 O220 2.432 . S
Eu168 C232 2.848 . S
C169 C172 1.429 . S
C169 C173 1.411 . S
C169 N176 1.377 . S
C170 C172 1.420 . S
C170 C174 1.423 . S
C170 C182 1.392 . S
C171 C173 1.420 . S
C171 C174 1.351 . S
C171 H194 0.931 . S
C172 C169 1.429 . S
C172 C170 1.420 . S
C172 N180 1.362 . S
C173 C169 1.411 . S
C173 C171 1.420 . S
C173 C178 1.395 . S
C174 C170 1.423 . S
C174 C171 1.351 . S
C174 H186 0.930 . S
C175 C177 1.400 . S
C175 C178 1.386 . S
C175 H187 0.930 1_565 S
N176 C169 1.377 . S
N176 C177 1.321 . S
N176 Eu179 2.609 . S
C177 C175 1.400 . S
C177 N176 1.321 . S
C177 H184 0.930 . S
C178 C173 1.395 . S
C178 C175 1.386 . S
C178 H197 0.930 1_565 S
Eu179 N176 2.609 . S
Eu179 N180 2.657 . S
Eu179 O213 2.380 . S
Eu179 O214 2.432 . S
Eu179 O218 2.558 . S
Eu179 O219 2.612 . S
Eu179 O221 2.339 . S
Eu179 O222 2.563 . S
Eu179 O223 2.419 . S
Eu179 C243 2.848 . S
N180 C172 1.362 . S
N180 Eu179 2.657 . S
N180 C181 1.334 . S
C181 N180 1.334 . S
C181 C183 1.413 . S
C181 H188 0.929 . S
C182 C170 1.392 . S
C182 C183 1.367 . S
C182 H190 0.930 . S
C183 C181 1.413 . S
C183 C182 1.367 . S
C183 H185 0.930 . S
H184 C177 0.930 . S
H185 C183 0.930 . S
H186 C174 0.930 . S
H187 C175 0.930 1_545 S
H188 C181 0.929 . S
H189 C203 0.930 . S
H190 C182 0.930 . S
H191 C209 0.930 . S
H192 C200 0.929 1_455 S
H193 C207 0.930 . S
H194 C171 0.931 . S
H195 C201 0.930 . S
H196 C234 0.930 . S
H197 C178 0.930 1_545 S
H198 C233 0.931 . S
N199 Eu168 2.657 . S
N199 C200 1.334 1_455 S
N199 C204 1.362 1_455 S
C200 H192 0.929 1_655 S
C200 N199 1.334 1_655 S
C200 C203 1.413 . S
C201 H195 0.930 . S
C201 C202 1.392 . S
C201 C203 1.367 . S
C202 C201 1.392 . S
C202 C204 1.420 . S
C202 C234 1.423 . S
C203 H189 0.930 . S
C203 C200 1.413 . S
C203 C201 1.367 . S
C204 N199 1.362 1_655 S
C204 C202 1.420 . S
C204 C208 1.429 1_655 S
H205 C210 0.930 1_655 S
N206 Eu168 2.609 . S
N206 C208 1.377 . S
N206 C209 1.321 . S
C207 H193 0.930 . S
C207 C209 1.400 . S
C207 C210 1.386 . S
C208 C204 1.429 1_455 S
C208 N206 1.377 . S
C208 C211 1.411 1_455 S
C209 H191 0.930 . S
C209 N206 1.321 . S
C209 C207 1.400 . S
C210 H205 0.930 1_455 S
C210 C207 1.386 . S
C210 C211 1.395 1_455 S
C211 C208 1.411 1_655 S
C211 C210 1.395 1_655 S
C211 C233 1.420 . S
O212 Eu168 2.558 . S
O212 C232 1.257 . S
O213 Eu168 2.612 . S
O213 Eu179 2.380 . S
O213 C224 1.276 . S
O214 Eu179 2.432 . S
O214 C231 1.264 . S
O215 Eu168 2.339 . S
O215 C231 1.254 . S
O216 Eu168 2.563 . S
O216 C224 1.235 . S
O217 Eu168 2.419 . S
O217 C232 1.249 . S
O218 Eu179 2.558 . S
O218 C243 1.257 . S
O219 Eu168 2.380 . S
O219 Eu179 2.612 . S
O219 C235 1.276 . S
O220 Eu168 2.432 . S
O220 C242 1.264 . S
O221 Eu179 2.339 . S
O221 C242 1.254 . S
O222 Eu179 2.563 . S
O222 C235 1.235 . S
O223 Eu179 2.419 . S
O223 C243 1.249 . S
C224 O213 1.276 . S
C224 O216 1.235 . S
C225 C227 1.393 . S
C225 C229 1.395 . S
C225 C232 1.492 . S
C226 C227 1.392 . S
C226 C228 1.386 1_455 S
C227 C225 1.393 . S
C227 C226 1.392 . S
C227 H244 0.930 . S
C228 C226 1.386 1_655 S
C228 C230 1.395 1_655 S
C228 H245 0.930 . S
C229 C225 1.395 . S
C229 C230 1.379 . S
C229 H246 0.930 . S
C230 C228 1.395 1_455 S
C230 C229 1.379 . S
C230 H247 0.930 1_455 S
C231 O214 1.264 . S
C231 O215 1.254 . S
C232 Eu168 2.848 . S
C232 O212 1.257 . S
C232 O217 1.249 . S
C232 C225 1.492 . S
C233 H198 0.931 . S
C233 C211 1.420 . S
C233 C234 1.351 . S
C234 H196 0.930 . S
C234 C202 1.423 . S
C234 C233 1.351 . S
C235 O219 1.276 . S
C235 O222 1.235 . S
C236 C237 1.393 . S
C236 C240 1.395 . S
C236 C243 1.492 . S
C237 C236 1.393 . S
C237 C238 1.392 . S
C237 H248 0.930 . S
C238 C237 1.392 . S
C238 C239 1.386 . S
C239 C238 1.386 . S
C239 C241 1.395 . S
C239 H249 0.930 . S
C240 C236 1.395 . S
C240 C241 1.379 . S
C240 H250 0.930 . S
C241 C239 1.395 . S
C241 C240 1.379 . S
C241 H251 0.930 . S
C242 O220 1.264 . S
C242 O221 1.254 . S
C243 Eu179 2.848 . S
C243 O218 1.257 . S
C243 O223 1.249 . S
C243 C236 1.492 . S
H244 C227 0.930 . S
H245 C228 0.930 . S
H246 C229 0.930 . S
H247 C230 0.930 1_655 S
H248 C237 0.930 . S
H249 C239 0.930 . S
H250 C240 0.930 . S
H251 C241 0.930 . S
Eu252 N283 2.657 . S
Eu252 N290 2.609 . S
Eu252 O296 2.558 . S
Eu252 O297 2.612 . S
Eu252 O299 2.339 . S
Eu252 O300 2.563 . S
Eu252 O301 2.419 . S
Eu252 O303 2.380 . S
Eu252 O304 2.432 . S
Eu252 C316 2.848 . S
C253 C256 1.429 1_655 S
C253 C257 1.411 1_655 S
C253 N260 1.377 . S
C254 C256 1.420 . S
C254 C258 1.423 . S
C254 C266 1.392 . S
C255 C257 1.420 . S
C255 C258 1.351 . S
C255 H278 0.931 . S
C256 C253 1.429 1_455 S
C256 C254 1.420 . S
C256 N264 1.362 1_455 S
C257 C253 1.411 1_455 S
C257 C255 1.420 . S
C257 C262 1.395 1_455 S
C258 C254 1.423 . S
C258 C255 1.351 . S
C258 H270 0.930 . S
C259 C261 1.400 . S
C259 C262 1.386 . S
C259 H271 0.930 . S
N260 C253 1.377 . S
N260 C261 1.321 . S
N260 Eu263 2.609 . S
C261 C259 1.400 . S
C261 N260 1.321 . S
C261 H268 0.930 . S
C262 C257 1.395 1_655 S
C262 C259 1.386 . S
C262 H281 0.930 1_655 S
Eu263 N260 2.609 . S
Eu263 N264 2.657 . S
Eu263 O297 2.380 . S
Eu263 O298 2.432 . S
Eu263 O302 2.558 . S
Eu263 O303 2.612 . S
Eu263 O305 2.339 . S
Eu263 O306 2.563 . S
Eu263 O307 2.419 . S
Eu263 C327 2.848 . S
N264 C256 1.362 1_655 S
N264 Eu263 2.657 . S
N264 C265 1.334 1_655 S
C265 N264 1.334 1_455 S
C265 C267 1.413 . S
C265 H272 0.929 1_455 S
C266 C254 1.392 . S
C266 C267 1.367 . S
C266 H274 0.930 . S
C267 C265 1.413 . S
C267 C266 1.367 . S
C267 H269 0.930 . S
H268 C261 0.930 . S
H269 C267 0.930 . S
H270 C258 0.930 . S
H271 C259 0.930 . S
H272 C265 0.929 1_655 S
H273 C287 0.930 . S
H274 C266 0.930 . S
H275 C293 0.930 . S
H276 C284 0.929 . S
H277 C291 0.930 1_565 S
H278 C255 0.931 . S
H279 C285 0.930 . S
H280 C318 0.930 . S
H281 C262 0.930 1_455 S
H282 C317 0.931 . S
N283 Eu252 2.657 . S
N283 C284 1.334 . S
N283 C288 1.362 . S
C284 H276 0.929 . S
C284 N283 1.334 . S
C284 C287 1.413 . S
C285 H279 0.930 . S
C285 C286 1.392 . S
C285 C287 1.367 . S
C286 C285 1.392 . S
C286 C288 1.420 . S
C286 C318 1.423 . S
C287 H273 0.930 . S
C287 C284 1.413 . S
C287 C285 1.367 . S
C288 N283 1.362 . S
C288 C286 1.420 . S
C288 C292 1.429 . S
H289 C294 0.930 1_565 S
N290 Eu252 2.609 . S
N290 C292 1.377 . S
N290 C293 1.321 . S
C291 H277 0.930 1_545 S
C291 C293 1.400 . S
C291 C294 1.386 . S
C292 C288 1.429 . S
C292 N290 1.377 . S
C292 C295 1.411 . S
C293 H275 0.930 . S
C293 N290 1.321 . S
C293 C291 1.400 . S
C294 H289 0.930 1_545 S
C294 C291 1.386 . S
C294 C295 1.395 . S
C295 C292 1.411 . S
C295 C294 1.395 . S
C295 C317 1.420 . S
O296 Eu252 2.558 . S
O296 C316 1.257 . S
O297 Eu252 2.612 . S
O297 Eu263 2.380 . S
O297 C308 1.276 . S
O298 Eu263 2.432 . S
O298 C315 1.264 . S
O299 Eu252 2.339 . S
O299 C315 1.254 . S
O300 Eu252 2.563 . S
O300 C308 1.235 . S
O301 Eu252 2.419 . S
O301 C316 1.249 . S
O302 Eu263 2.558 . S
O302 C327 1.257 . S
O303 Eu252 2.380 . S
O303 Eu263 2.612 . S
O303 C319 1.276 . S
O304 Eu252 2.432 . S
O304 C326 1.264 . S
O305 Eu263 2.339 . S
O305 C326 1.254 . S
O306 Eu263 2.563 . S
O306 C319 1.235 . S
O307 Eu263 2.419 . S
O307 C327 1.249 . S
C308 O297 1.276 . S
C308 O300 1.235 . S
C309 C311 1.393 . S
C309 C313 1.395 . S
C309 C316 1.492 . S
C310 C311 1.392 . S
C310 C312 1.386 . S
C311 C309 1.393 . S
C311 C310 1.392 . S
C311 H328 0.930 . S
C312 C310 1.386 . S
C312 C314 1.395 . S
C312 H329 0.930 . S
C313 C309 1.395 . S
C313 C314 1.379 . S
C313 H330 0.930 . S
C314 C312 1.395 . S
C314 C313 1.379 . S
C314 H331 0.930 . S
C315 O298 1.264 . S
C315 O299 1.254 . S
C316 Eu252 2.848 . S
C316 O296 1.257 . S
C316 O301 1.249 . S
C316 C309 1.492 . S
C317 H282 0.931 . S
C317 C295 1.420 . S
C317 C318 1.351 . S
C318 H280 0.930 . S
C318 C286 1.423 . S
C318 C317 1.351 . S
C319 O303 1.276 . S
C319 O306 1.235 . S
C320 C321 1.393 . S
C320 C324 1.395 . S
C320 C327 1.492 . S
C321 C320 1.393 . S
C321 C322 1.392 . S
C321 H332 0.930 . S
C322 C321 1.392 . S
C322 C323 1.386 1_655 S
C323 C322 1.386 1_455 S
C323 C325 1.395 1_455 S
C323 H333 0.930 . S
C324 C320 1.395 . S
C324 C325 1.379 . S
C324 H334 0.930 . S
C325 C323 1.395 1_655 S
C325 C324 1.379 . S
C325 H335 0.930 1_655 S
C326 O304 1.264 . S
C326 O305 1.254 . S
C327 Eu263 2.848 . S
C327 O302 1.257 . S
C327 O307 1.249 . S
C327 C320 1.492 . S
H328 C311 0.930 . S
H329 C312 0.930 . S
H330 C313 0.930 . S
H331 C314 0.930 . S
H332 C321 0.930 . S
H333 C323 0.930 . S
H334 C324 0.930 . S
H335 C325 0.930 1_455 S
H336 C337 0.951 . S
C337 H336 0.951 . S
C337 C343 1.265 1_554 S
H338 C343 0.950 . S
H339 C347 0.949 . S
H340 C348 0.950 . S
H341 C349 0.951 . S
H342 C350 0.951 . S
C343 C337 1.265 1_556 S
C343 H338 0.950 . S
C343 C344 1.478 . S
C344 C343 1.478 . S
C344 C345 1.397 . S
C344 C361 1.394 1_556 S
C345 C344 1.397 . S
C345 C346 1.438 . S
C345 C350 1.429 . S
C346 C345 1.438 . S
C346 C347 1.428 . S
C346 C359 1.394 1_556 S
C347 H339 0.949 . S
C347 C346 1.428 . S
C347 C348 1.345 . S
C348 H340 0.950 . S
C348 C347 1.345 . S
C348 C349 1.424 . S
C349 H341 0.951 . S
C349 C348 1.424 . S
C349 C350 1.347 . S
C350 H342 0.951 . S
C350 C345 1.429 . S
C350 C349 1.347 . S
H351 C352 0.979 . S
C352 H351 0.979 . S
C352 C358 1.258 1_556 S
H353 C358 0.950 . S
H354 C362 0.949 . S
H355 C363 0.950 . S
H356 C364 0.951 . S
H357 C365 0.951 . S
C358 C352 1.258 1_554 S
C358 H353 0.950 . S
C358 C359 1.478 . S
C359 C346 1.394 1_554 S
C359 C358 1.478 . S
C359 C360 1.397 . S
C360 C359 1.397 . S
C360 C361 1.438 . S
C360 C365 1.429 . S
C361 C344 1.394 1_554 S
C361 C360 1.438 . S
C361 C362 1.428 . S
C362 H354 0.949 . S
C362 C361 1.428 . S
C362 C363 1.345 . S
C363 H355 0.950 . S
C363 C362 1.345 . S
C363 C364 1.424 . S
C364 H356 0.951 . S
C364 C363 1.424 . S
C364 C365 1.347 . S
C365 H357 0.951 . S
C365 C360 1.429 . S
C365 C364 1.347 . S
H366 C367 0.951 . S
C367 H366 0.951 . S
C367 C373 1.265 . S
H368 C373 0.950 . S
H369 C377 0.949 . S
H370 C378 0.950 . S
H371 C379 0.951 . S
H372 C380 0.951 . S
C373 C367 1.265 . S
C373 H368 0.950 . S
C373 C374 1.478 . S
C374 C373 1.478 . S
C374 C375 1.397 . S
C374 C391 1.394 . S
C375 C374 1.397 . S
C375 C376 1.438 . S
C375 C380 1.429 . S
C376 C375 1.438 . S
C376 C377 1.428 . S
C376 C389 1.394 . S
C377 H369 0.949 . S
C377 C376 1.428 . S
C377 C378 1.345 . S
C378 H370 0.950 . S
C378 C377 1.345 . S
C378 C379 1.424 . S
C379 H371 0.951 . S
C379 C378 1.424 . S
C379 C380 1.347 . S
C380 H372 0.951 . S
C380 C375 1.429 . S
C380 C379 1.347 . S
H381 C382 0.951 . S
C382 H381 0.951 . S
C382 C388 1.265 . S
H383 C388 0.950 . S
H384 C392 0.949 . S
H385 C393 0.950 . S
H386 C394 0.951 . S
H387 C395 0.951 . S
C388 C382 1.265 . S
C388 H383 0.950 . S
C388 C389 1.478 . S
C389 C376 1.394 . S
C389 C388 1.478 . S
C389 C390 1.397 . S
C390 C389 1.397 . S
C390 C391 1.438 . S
C390 C395 1.429 . S
C391 C374 1.394 . S
C391 C390 1.438 . S
C391 C392 1.428 . S
C392 H384 0.949 . S
C392 C391 1.428 . S
C392 C393 1.345 . S
C393 H385 0.950 . S
C393 C392 1.345 . S
C393 C394 1.424 . S
C394 H386 0.951 . S
C394 C393 1.424 . S
C394 C395 1.347 . S
C395 H387 0.951 . S
C395 C390 1.429 . S
C395 C394 1.347 . S
H396 C397 0.951 . S
C397 H396 0.951 . S
C397 C403 1.265 1_556 S
H398 C403 0.950 . S
H399 C407 0.949 . S
H400 C408 0.950 . S
H401 C409 0.951 . S
H402 C410 0.951 . S
C403 C397 1.265 1_554 S
C403 H398 0.950 . S
C403 C404 1.478 . S
C404 C403 1.478 . S
C404 C405 1.397 1_454 S
C404 C421 1.394 . S
C405 C404 1.397 1_656 S
C405 C406 1.438 1_545 S
C405 C410 1.429 . S
C406 C405 1.438 1_565 S
C406 C407 1.428 . S
C406 C419 1.422 . S
C407 H399 0.949 . S
C407 C406 1.428 . S
C407 C408 1.345 . S
C408 H400 0.950 . S
C408 C407 1.345 . S
C408 C409 1.424 1_565 S
C409 H401 0.951 . S
C409 C408 1.424 1_545 S
C409 C410 1.347 . S
C410 H402 0.951 . S
C410 C405 1.429 . S
C410 C409 1.347 . S
H411 C412 0.951 . S
C412 H411 0.951 . S
C412 C418 1.265 1_554 S
H413 C418 0.950 . S
H414 C422 0.949 . S
H415 C423 0.950 . S
H416 C424 0.951 . S
H417 C425 0.951 . S
C418 C412 1.265 1_556 S
C418 H413 0.950 . S
C418 C419 1.466 . S
C419 C406 1.422 . S
C419 C418 1.466 . S
C419 C420 1.382 1_656 S
C420 C419 1.382 1_454 S
C420 C421 1.438 1_565 S
C420 C425 1.429 . S
C421 C404 1.394 . S
C421 C420 1.438 1_545 S
C421 C422 1.428 . S
C422 H414 0.949 . S
C422 C421 1.428 . S
C422 C423 1.345 . S
C423 H415 0.950 . S
C423 C422 1.345 . S
C423 C424 1.424 1_545 S
C424 H416 0.951 . S
C424 C423 1.424 1_565 S
C424 C425 1.347 . S
C425 H417 0.951 . S
C425 C420 1.429 . S
C425 C424 1.347 . S
H426 C427 0.951 . S
C427 H426 0.951 . S
C427 C433 1.265 . S
H428 C433 0.950 . S
H429 C437 0.949 1_565 S
H430 C438 0.950 . S
H431 C439 0.951 . S
H432 C440 0.951 . S
C433 C427 1.265 . S
C433 H428 0.950 . S
C433 C434 1.478 . S
C434 C433 1.478 . S
C434 C435 1.397 1_655 S
C434 C451 1.394 1_545 S
C435 C434 1.397 1_455 S
C435 C436 1.438 . S
C435 C440 1.429 . S
C436 C435 1.438 . S
C436 C437 1.428 . S
C436 C449 1.394 1_545 S
C437 H429 0.949 1_545 S
C437 C436 1.428 . S
C437 C438 1.345 . S
C438 H430 0.950 . S
C438 C437 1.345 . S
C438 C439 1.424 . S
C439 H431 0.951 . S
C439 C438 1.424 . S
C439 C440 1.347 . S
C440 H432 0.951 . S
C440 C435 1.429 . S
C440 C439 1.347 . S
H441 C442 0.951 . S
C442 H441 0.951 . S
C442 C448 1.265 . S
H443 C448 0.950 . S
H444 C452 0.949 1_545 S
H445 C453 0.950 . S
H446 C454 0.951 . S
H447 C455 0.951 . S
C448 C442 1.265 . S
C448 H443 0.950 . S
C448 C449 1.478 . S
C449 C436 1.394 1_565 S
C449 C448 1.478 . S
C449 C450 1.397 1_455 S
C450 C449 1.397 1_655 S
C450 C451 1.438 . S
C450 C455 1.429 . S
C451 C434 1.394 1_565 S
C451 C450 1.438 . S
C451 C452 1.428 . S
C452 H444 0.949 1_565 S
C452 C451 1.428 . S
C452 C453 1.345 . S
C453 H445 0.950 . S
C453 C452 1.345 . S
C453 C454 1.424 . S
C454 H446 0.951 . S
C454 C453 1.424 . S
C454 C455 1.347 . S
C455 H447 0.951 . S
C455 C450 1.429 . S
C455 C454 1.347 . S
H456 C457 0.951 . S
C457 H456 0.951 . S
C457 C463 1.265 . S
H458 C463 0.950 . S
H459 C467 0.949 . S
H460 C468 0.950 . S
H461 C469 0.951 . S
H462 C470 0.951 . S
C463 C457 1.265 . S
C463 H458 0.950 . S
C463 C464 1.478 . S
C464 C463 1.478 . S
C464 C465 1.397 . S
C464 C481 1.394 . S
C465 C464 1.397 . S
C465 C466 1.438 . S
C465 C470 1.429 . S
C466 C465 1.438 . S
C466 C467 1.428 . S
C466 C479 1.394 . S
C467 H459 0.949 . S
C467 C466 1.428 . S
C467 C468 1.345 . S
C468 H460 0.950 . S
C468 C467 1.345 . S
C468 C469 1.424 . S
C469 H461 0.951 . S
C469 C468 1.424 . S
C469 C470 1.347 . S
C470 H462 0.951 . S
C470 C465 1.429 . S
C470 C469 1.347 . S
H471 C472 0.951 . S
C472 H471 0.951 . S
C472 C478 1.265 . S
H473 C478 0.950 . S
H474 C482 0.949 . S
H475 C483 0.950 . S
H476 C484 0.951 . S
H477 C485 0.951 . S
C478 C472 1.265 . S
C478 H473 0.950 . S
C478 C479 1.478 . S
C479 C466 1.394 . S
C479 C478 1.478 . S
C479 C480 1.397 . S
C480 C479 1.397 . S
C480 C481 1.438 . S
C480 C485 1.429 . S
C481 C464 1.394 . S
C481 C480 1.438 . S
C481 C482 1.428 . S
C482 H474 0.949 . S
C482 C481 1.428 . S
C482 C483 1.345 . S
C483 H475 0.950 . S
C483 C482 1.345 . S
C483 C484 1.424 . S
C484 H476 0.951 . S
C484 C483 1.424 . S
C484 C485 1.347 . S
C485 H477 0.951 . S
C485 C480 1.429 . S
C485 C484 1.347 . S
H486 C487 0.951 . S
C487 H486 0.951 . S
C487 C493 1.265 . S
H488 C493 0.950 . S
H489 C497 0.949 . S
H490 C498 0.950 . S
H491 C499 0.951 . S
H492 C500 0.951 . S
C493 C487 1.265 . S
C493 H488 0.950 . S
C493 C494 1.478 . S
C494 C493 1.478 . S
C494 C495 1.397 . S
C494 C511 1.394 . S
C495 C494 1.397 . S
C495 C496 1.438 . S
C495 C500 1.429 . S
C496 C495 1.438 . S
C496 C497 1.428 . S
C496 C509 1.394 . S
C497 H489 0.949 . S
C497 C496 1.428 . S
C497 C498 1.345 . S
C498 H490 0.950 . S
C498 C497 1.345 . S
C498 C499 1.424 . S
C499 H491 0.951 . S
C499 C498 1.424 . S
C499 C500 1.347 . S
C500 H492 0.951 . S
C500 C495 1.429 . S
C500 C499 1.347 . S
H501 C502 0.951 . S
C502 H501 0.951 . S
C502 C508 1.265 . S
H503 C508 0.950 . S
H504 C512 0.949 . S
H505 C513 0.950 . S
H506 C514 0.951 . S
H507 C515 0.951 . S
C508 C502 1.265 . S
C508 H503 0.950 . S
C508 C509 1.478 . S
C509 C496 1.394 . S
C509 C508 1.478 . S
C509 C510 1.397 . S
C510 C509 1.397 . S
C510 C511 1.438 . S
C510 C515 1.429 . S
C511 C494 1.394 . S
C511 C510 1.438 . S
C511 C512 1.428 . S
C512 H504 0.949 . S
C512 C511 1.428 . S
C512 C513 1.345 . S
C513 H505 0.950 . S
C513 C512 1.345 . S
C513 C514 1.424 . S
C514 H506 0.951 . S
C514 C513 1.424 . S
C514 C515 1.347 . S
C515 H507 0.951 . S
C515 C510 1.429 . S
C515 C514 1.347 . S
H516 C517 0.951 . S
C517 H516 0.951 . S
C517 C523 1.265 . S
H518 C523 0.950 . S
H519 C527 0.949 . S
H520 C528 0.950 . S
H521 C529 0.951 . S
H522 C530 0.951 . S
C523 C517 1.265 . S
C523 H518 0.950 . S
C523 C524 1.478 . S
C524 C523 1.478 . S
C524 C525 1.397 . S
C524 C541 1.394 . S
C525 C524 1.397 . S
C525 C526 1.438 . S
C525 C530 1.429 . S
C526 C525 1.438 . S
C526 C527 1.428 . S
C526 C539 1.394 . S
C527 H519 0.949 . S
C527 C526 1.428 . S
C527 C528 1.345 . S
C528 H520 0.950 . S
C528 C527 1.345 . S
C528 C529 1.424 . S
C529 H521 0.951 . S
C529 C528 1.424 . S
C529 C530 1.347 . S
C530 H522 0.951 . S
C530 C525 1.429 . S
C530 C529 1.347 . S
H531 C532 0.951 . S
C532 H531 0.951 . S
C532 C538 1.265 . S
H533 C538 0.950 . S
H534 C542 0.949 . S
H535 C543 0.950 . S
H536 C544 0.951 . S
H537 C545 0.951 . S
C538 C532 1.265 . S
C538 H533 0.950 . S
C538 C539 1.478 . S
C539 C526 1.394 . S
C539 C538 1.478 . S
C539 C540 1.397 . S
C540 C539 1.397 . S
C540 C541 1.438 . S
C540 C545 1.429 . S
C541 C524 1.394 . S
C541 C540 1.438 . S
C541 C542 1.428 . S
C542 H534 0.949 . S
C542 C541 1.428 . S
C542 C543 1.345 . S
C543 H535 0.950 . S
C543 C542 1.345 . S
C543 C544 1.424 . S
C544 H536 0.951 . S
C544 C543 1.424 . S
C544 C545 1.347 . S
C545 H537 0.951 . S
C545 C540 1.429 . S
C545 C544 1.347 . S
H546 C547 0.951 . S
C547 H546 0.951 . S
C547 C553 1.265 . S
H548 C553 0.950 . S
H549 C557 0.949 . S
H550 C558 0.950 . S
H551 C559 0.951 . S
H552 C560 0.951 . S
C553 C547 1.265 . S
C553 H548 0.950 . S
C553 C554 1.478 . S
C554 C553 1.478 . S
C554 C555 1.397 . S
C554 C571 1.394 . S
C555 C554 1.397 . S
C555 C556 1.438 . S
C555 C560 1.429 . S
C556 C555 1.438 . S
C556 C557 1.428 . S
C556 C569 1.394 . S
C557 H549 0.949 . S
C557 C556 1.428 . S
C557 C558 1.345 . S
C558 H550 0.950 . S
C558 C557 1.345 . S
C558 C559 1.424 . S
C559 H551 0.951 . S
C559 C558 1.424 . S
C559 C560 1.347 . S
C560 H552 0.951 . S
C560 C555 1.429 . S
C560 C559 1.347 . S
H561 C562 0.951 . S
C562 H561 0.951 . S
C562 C568 1.265 . S
H563 C568 0.950 . S
H564 C572 0.949 . S
H565 C573 0.950 . S
H566 C574 0.951 . S
H567 C575 0.951 . S
C568 C562 1.265 . S
C568 H563 0.950 . S
C568 C569 1.478 . S
C569 C556 1.394 . S
C569 C568 1.478 . S
C569 C570 1.397 . S
C570 C569 1.397 . S
C570 C571 1.438 . S
C570 C575 1.429 . S
C571 C554 1.394 . S
C571 C570 1.438 . S
C571 C572 1.428 . S
C572 H564 0.949 . S
C572 C571 1.428 . S
C572 C573 1.345 . S
C573 H565 0.950 . S
C573 C572 1.345 . S
C573 C574 1.424 . S
C574 H566 0.951 . S
C574 C573 1.424 . S
C574 C575 1.347 . S
C575 H567 0.951 . S
C575 C570 1.429 . S
C575 C574 1.347 . S
H576 C577 0.951 . S
C577 H576 0.951 . S
C577 C583 1.265 . S
H578 C583 0.950 . S
H579 C587 0.949 . S
H580 C588 0.950 . S
H581 C589 0.951 . S
H582 C590 0.951 . S
C583 C577 1.265 . S
C583 H578 0.950 . S
C583 C584 1.478 . S
C584 C583 1.478 . S
C584 C585 1.397 . S
C584 C601 1.394 . S
C585 C584 1.397 . S
C585 C586 1.438 . S
C585 C590 1.429 . S
C586 C585 1.438 . S
C586 C587 1.428 . S
C586 C599 1.394 . S
C587 H579 0.949 . S
C587 C586 1.428 . S
C587 C588 1.345 . S
C588 H580 0.950 . S
C588 C587 1.345 . S
C588 C589 1.424 . S
C589 H581 0.951 . S
C589 C588 1.424 . S
C589 C590 1.347 . S
C590 H582 0.951 . S
C590 C585 1.429 . S
C590 C589 1.347 . S
H591 C592 0.951 . S
C592 H591 0.951 . S
C592 C598 1.265 1_655 S
H593 C598 0.950 . S
H594 C602 0.949 . S
H595 C603 0.950 . S
H596 C604 0.951 1_455 S
H597 C605 0.951 1_455 S
C598 C592 1.265 1_455 S
C598 H593 0.950 . S
C598 C599 1.478 1_455 S
C599 C586 1.394 . S
C599 C598 1.478 1_655 S
C599 C600 1.397 . S
C600 C599 1.397 . S
C600 C601 1.438 . S
C600 C605 1.429 . S
C601 C584 1.394 . S
C601 C600 1.438 . S
C601 C602 1.428 . S
C602 H594 0.949 . S
C602 C601 1.428 . S
C602 C603 1.345 . S
C603 H595 0.950 . S
C603 C602 1.345 . S
C603 C604 1.424 . S
C604 H596 0.951 1_655 S
C604 C603 1.424 . S
C604 C605 1.347 . S
C605 H597 0.951 1_655 S
C605 C600 1.429 . S
C605 C604 1.347 . S
H606 C607 0.951 . S
C607 H606 0.951 . S
C607 C613 1.265 . S
H608 C613 0.950 . S
H609 C617 0.949 . S
H610 C618 0.950 . S
H611 C619 0.951 . S
H612 C620 0.951 . S
C613 C607 1.265 . S
C613 H608 0.950 . S
C613 C614 1.478 . S
C614 C613 1.478 . S
C614 C615 1.397 . S
C614 C631 1.394 . S
C615 C614 1.397 . S
C615 C616 1.438 . S
C615 C620 1.429 . S
C616 C615 1.438 . S
C616 C617 1.428 . S
C616 C629 1.394 . S
C617 H609 0.949 . S
C617 C616 1.428 . S
C617 C618 1.345 . S
C618 H610 0.950 . S
C618 C617 1.345 . S
C618 C619 1.424 . S
C619 H611 0.951 . S
C619 C618 1.424 . S
C619 C620 1.347 . S
C620 H612 0.951 . S
C620 C615 1.429 . S
C620 C619 1.347 . S
H621 C622 0.951 . S
C622 H621 0.951 . S
C622 C628 1.265 1_655 S
H623 C628 0.950 . S
H624 C632 0.949 . S
H625 C633 0.950 . S
H626 C634 0.951 . S
H627 C635 0.951 . S
C628 C622 1.265 1_455 S
C628 H623 0.950 . S
C628 C629 1.478 1_455 S
C629 C616 1.394 . S
C629 C628 1.478 1_655 S
C629 C630 1.397 . S
C630 C629 1.397 . S
C630 C631 1.438 . S
C630 C635 1.429 1_655 S
C631 C614 1.394 . S
C631 C630 1.438 . S
C631 C632 1.428 . S
C632 H624 0.949 . S
C632 C631 1.428 . S
C632 C633 1.345 . S
C633 H625 0.950 . S
C633 C632 1.345 . S
C633 C634 1.424 1_655 S
C634 H626 0.951 . S
C634 C633 1.424 1_455 S
C634 C635 1.347 . S
C635 H627 0.951 . S
C635 C630 1.429 1_455 S
C635 C634 1.347 . S
H636 C637 0.951 1_655 S
C637 H636 0.951 1_455 S
C637 C643 1.265 . S
H638 C643 0.950 . S
H639 C647 0.949 . S
H640 C648 0.950 . S
H641 C649 0.951 . S
H642 C650 0.951 . S
C643 C637 1.265 . S
C643 H638 0.950 . S
C643 C644 1.478 . S
C644 C643 1.478 . S
C644 C645 1.397 . S
C644 C661 1.394 . S
C645 C644 1.397 . S
C645 C646 1.438 . S
C645 C650 1.429 . S
C646 C645 1.438 . S
C646 C647 1.428 . S
C646 C659 1.394 . S
C647 H639 0.949 . S
C647 C646 1.428 . S
C647 C648 1.345 . S
C648 H640 0.950 . S
C648 C647 1.345 . S
C648 C649 1.424 . S
C649 H641 0.951 . S
C649 C648 1.424 . S
C649 C650 1.347 . S
C650 H642 0.951 . S
C650 C645 1.429 . S
C650 C649 1.347 . S
H651 C652 0.951 . S
C652 H651 0.951 . S
C652 C658 1.265 . S
H653 C658 0.950 . S
H654 C662 0.949 . S
H655 C663 0.950 . S
H656 C664 0.951 . S
H657 C665 0.951 . S
C658 C652 1.265 . S
C658 H653 0.950 . S
C658 C659 1.478 . S
C659 C646 1.394 . S
C659 C658 1.478 . S
C659 C660 1.397 . S
C660 C659 1.397 . S
C660 C661 1.438 . S
C660 C665 1.429 . S
C661 C644 1.394 . S
C661 C660 1.438 . S
C661 C662 1.428 . S
C662 H654 0.949 . S
C662 C661 1.428 . S
C662 C663 1.345 . S
C663 H655 0.950 . S
C663 C662 1.345 . S
C663 C664 1.424 . S
C664 H656 0.951 . S
C664 C663 1.424 . S
C664 C665 1.347 . S
C665 H657 0.951 . S
C665 C660 1.429 . S
C665 C664 1.347 . S
H666 C667 0.951 . S
C667 H666 0.951 . S
C667 C673 1.265 . S
H668 C673 0.950 . S
H669 C677 0.949 . S
H670 C678 0.950 . S
H671 C679 0.951 . S
H672 C680 0.951 . S
C673 C667 1.265 . S
C673 H668 0.950 . S
C673 C674 1.478 . S
C674 C673 1.478 . S
C674 C675 1.397 . S
C674 C691 1.394 . S
C675 C674 1.397 . S
C675 C676 1.438 . S
C675 C680 1.429 . S
C676 C675 1.438 . S
C676 C677 1.428 . S
C676 C689 1.394 . S
C677 H669 0.949 . S
C677 C676 1.428 . S
C677 C678 1.345 . S
C678 H670 0.950 . S
C678 C677 1.345 . S
C678 C679 1.424 . S
C679 H671 0.951 . S
C679 C678 1.424 . S
C679 C680 1.347 . S
C680 H672 0.951 . S
C680 C675 1.429 . S
C680 C679 1.347 . S
H681 C682 0.951 . S
C682 H681 0.951 . S
C682 C688 1.261 1_455 S
H683 C688 0.961 . S
H684 C692 0.949 . S
H685 C693 0.950 . S
H686 C694 0.951 . S
H687 C695 0.951 . S
C688 C682 1.261 1_655 S
C688 H683 0.961 . S
C688 C689 1.472 1_655 S
C689 C676 1.394 . S
C689 C688 1.472 1_455 S
C689 C690 1.397 . S
C690 C689 1.397 . S
C690 C691 1.438 . S
C690 C695 1.429 1_455 S
C691 C674 1.394 . S
C691 C690 1.438 . S
C691 C692 1.428 . S
C692 H684 0.949 . S
C692 C691 1.428 . S
C692 C693 1.345 1_455 S
C693 H685 0.950 . S
C693 C692 1.345 1_655 S
C693 C694 1.424 . S
C694 H686 0.951 . S
C694 C693 1.424 . S
C694 C695 1.347 . S
C695 H687 0.951 . S
C695 C690 1.429 1_655 S
C695 C694 1.347 . S
C337 C147 1.536 1_554 S
C352 C74 1.516 1_556 S
C367 C242 1.467 . S
C382 C315 1.467 . S
C397 C63 1.519 . S
C412 C158 1.519 . S
C427 C326 1.535 . S
C442 C231 1.535 . S
C457 C310 1.181 . S
C472 C56 1.118 . S
C487 C142 1.199 . S
C502 C224 1.129 . S
C517 C151 1.134 . S
C532 C238 1.206 . S
C547 C319 1.148 . S
C562 C70 1.221 . S
C577 C140 1.233 . S
C592 C226 1.179 1_655 S
C607 C308 1.236 . S
C622 C58 1.183 1_655 S
C637 C322 1.218 1_455 S
C652 C67 1.145 . S
C667 C235 1.208 . S
C682 C154 1.153 1_455 S
