# Generated by pormake.
# Topology bsn, (6)-cn, num edge types: 1
# Building blocks:
#     Node 0, Type 0, BuildingBlock: FUNLAD_clean_sbu_0, # of connection points: 6
#     Node 1, Type 0, BuildingBlock: FUNLAD_clean_sbu_0, # of connection points: 6
#     Node 2, Type 0, BuildingBlock: FUNLAD_clean_sbu_0, # of connection points: 6
#     Node 3, Type 0, BuildingBlock: FUNLAD_clean_sbu_0, # of connection points: 6
#     Edge 4, Type (0, 0), BuildingBlock: EZIPEK_clean_linker_0, # of connection points: 2
#     Edge 5, Type (0, 0), BuildingBlock: EZIPEK_clean_linker_0, # of connection points: 2
#     Edge 6, Type (0, 0), BuildingBlock: EZIPEK_clean_linker_0, # of connection points: 2
#     Edge 7, Type (0, 0), BuildingBlock: EZIPEK_clean_linker_0, # of connection points: 2
#     Edge 8, Type (0, 0), BuildingBlock: EZIPEK_clean_linker_0, # of connection points: 2
#     Edge 9, Type (0, 0), BuildingBlock: EZIPEK_clean_linker_0, # of connection points: 2
#     Edge 10, Type (0, 0), BuildingBlock: EZIPEK_clean_linker_0, # of connection points: 2
#     Edge 11, Type (0, 0), BuildingBlock: EZIPEK_clean_linker_0, # of connection points: 2
#     Edge 12, Type (0, 0), BuildingBlock: EZIPEK_clean_linker_0, # of connection points: 2
#     Edge 13, Type (0, 0), BuildingBlock: EZIPEK_clean_linker_0, # of connection points: 2
#     Edge 14, Type (0, 0), BuildingBlock: EZIPEK_clean_linker_0, # of connection points: 2
#     Edge 15, Type (0, 0), BuildingBlock: EZIPEK_clean_linker_0, # of connection points: 2
# Relax obj value: 0.578
# Max RMSD: 0.305
# Mean RMSD: 0.305
data_MOF--net-bsn--node1-FUNLAD_clean_sbu_0--edge1-EZIPEK_clean_linker_0
_symmetry_space_group_name_H-M    P1
_symmetry_Int_Tables_number       1
_symmetry_cell_setting            triclinic
loop_
_symmetry_equiv_pos_as_xyz
'x, y, z'
_cell_length_a     19.800626
_cell_length_b     20.033913
_cell_length_c     17.083808
_cell_angle_alpha  91.582001
_cell_angle_beta   92.765431
_cell_angle_gamma 96.179933
loop_
_atom_site_label
_atom_site_type_symbol
_atom_site_fract_x
_atom_site_fract_y
_atom_site_fract_z
_atom_type_partial_charge
C0 C 0.1874 0.27615 0.33878 0.0
N1 N 1.03018 0.26809 0.19612 0.0
C2 C 0.05189 0.32767 0.16451 0.0
C3 C 0.05584 0.33222 0.08409 0.0
C4 C 1.03642 0.27508 0.03628 0.0
C5 C 1.01124 0.21479 0.06952 0.0
C6 C 1.00893 0.21226 0.15079 0.0
Zn7 Zn 1.04127 0.26521 0.31269 0.0
C8 C 0.0456 0.13426 0.38907 0.0
N9 N 0.06876 0.28015 0.54454 0.0
C10 C 0.12545 0.30873 0.58594 0.0
C11 C 1.01249 0.2542 0.58047 0.0
C12 C 1.01183 0.25556 0.66145 0.0
C13 C 0.06918 0.28493 0.70543 0.0
C14 C 0.12657 0.31219 0.66763 0.0
Zn15 Zn 0.06183 0.27525 0.42733 0.0
O16 O 0.14017 0.29407 0.29596 0.0
C17 C 0.05738 0.40869 0.39467 0.0
O18 O 0.17341 0.25717 0.40839 0.0
H19 H 0.96803 0.23201 0.54617 0.0
H20 H 0.06953 0.37097 0.20195 0.0
H21 H 0.16928 0.32926 0.55556 0.0
O22 O 1.02171 0.3801 0.33514 0.0
O23 O 0.09321 0.37187 0.432 0.0
H24 H 0.99235 0.16553 0.1778 0.0
O25 O 0.94542 0.29429 0.41868 0.0
O26 O 0.94382 0.2328 0.31239 0.0
O27 O 1.03408 0.178 0.43845 0.0
O28 O 0.05926 0.15321 0.31942 0.0
C29 C 0.91132 0.26382 0.35917 0.0
H30 H 0.07566 0.37919 0.0595 0.0
H31 H 0.996 0.17001 0.03322 0.0
H32 H 0.9669 0.2344 0.68964 0.0
H33 H 0.17131 0.33549 0.7009 0.0
C34 C 0.1728 0.78096 0.64565 0.0
N35 N 1.03185 0.76537 0.44237 0.0
C36 C 0.09072 0.75908 0.40654 0.0
C37 C 0.09189 0.76135 0.32566 0.0
C38 C 1.03163 0.76897 0.28248 0.0
C39 C 0.97117 0.77345 0.32025 0.0
C40 C 0.97257 0.77209 0.40137 0.0
Zn41 Zn 1.03363 0.76925 0.55809 0.0
C42 C 1.02508 0.63572 0.59663 0.0
N43 N 1.03409 0.78229 0.78931 0.0
C44 C 0.08007 0.8261 0.83136 0.0
C45 C 0.98739 0.73974 0.82391 0.0
C46 C 0.98536 0.74025 0.90475 0.0
C47 C 1.0333 0.78363 0.94934 0.0
C48 C 0.0811 0.82711 0.91266 0.0
Zn49 Zn 1.03513 0.77742 0.67392 0.0
O50 O 0.15163 0.79869 0.57738 0.0
C51 C 0.04312 0.909 0.59061 0.0
O52 O 0.1295 0.75787 0.69087 0.0
H53 H 0.95218 0.70513 0.78865 0.0
H54 H 0.13684 0.75295 0.4406 0.0
H55 H 0.1166 0.8591 0.80173 0.0
O56 O 1.01459 0.86354 0.54562 0.0
O57 O 0.06626 0.89212 0.6584 0.0
H58 H 0.9268 0.7779 0.43158 0.0
O59 O 0.94027 0.79885 0.67597 0.0
O60 O 0.91629 0.73889 0.5688 0.0
O61 O 1.00441 0.65994 0.66117 0.0
O62 O 0.05234 0.6759 0.55054 0.0
C63 C 0.8963 0.76613 0.63173 0.0
H64 H 0.13904 0.7575 0.29703 0.0
H65 H 0.92411 0.77936 0.2874 0.0
H66 H 0.94815 0.70616 0.93235 0.0
H67 H 0.11871 0.8608 0.94655 0.0
C68 C 0.68621 0.78556 0.84739 0.0
N69 N 0.54441 0.78662 0.69717 0.0
C70 C 0.56999 0.84443 0.66435 0.0
C71 C 0.57517 0.84654 0.58367 0.0
C72 C 0.55266 0.78891 0.53765 0.0
C73 C 0.52491 0.73056 0.57247 0.0
C74 C 0.52161 0.73038 0.65334 0.0
Zn75 Zn 0.546 0.78117 0.81304 0.0
C76 C 0.54188 0.64117 0.87703 0.0
N77 N 0.55711 0.76906 0.04332 0.0
C78 C 0.61621 0.79357 0.08279 0.0
C79 C 0.50147 0.74388 0.08083 0.0
C80 C 0.50356 0.74404 0.16214 0.0
C81 C 0.56301 0.77156 0.20398 0.0
C82 C 0.62013 0.79593 0.16415 0.0
Zn83 Zn 0.55123 0.77488 0.92746 0.0
O84 O 0.64316 0.81481 0.81022 0.0
C85 C 0.55249 0.91353 0.90607 0.0
O86 O 0.66525 0.7544 0.90838 0.0
H87 H 0.4552 0.72486 0.04762 0.0
H88 H 0.58807 0.88817 0.70103 0.0
H89 H 0.6595 0.81329 0.05103 0.0
O90 O 0.52509 0.89181 0.8386 0.0
O91 O 0.58217 0.87337 0.94636 0.0
H92 H 0.50173 0.68518 0.68131 0.0
O93 O 0.43667 0.79285 0.91562 0.0
O94 O 0.44825 0.74929 0.79996 0.0
O95 O 0.51882 0.67895 0.92545 0.0
O96 O 0.56776 0.66816 0.81588 0.0
C97 C 0.40992 0.77091 0.84813 0.0
H98 H 0.59688 0.89206 0.55746 0.0
H99 H 0.5072 0.68557 0.53751 0.0
H100 H 0.45882 0.72513 0.19218 0.0
H101 H 0.66643 0.81764 0.19571 0.0
C102 C 0.69527 0.30792 0.14057 0.0
N103 N 0.54664 0.29308 0.94275 0.0
C104 C 0.60346 0.31874 0.90762 0.0
C105 C 0.60378 0.31991 0.82666 0.0
C106 C 0.54541 0.2936 0.78223 0.0
C107 C 0.48755 0.26679 0.81932 0.0
C108 C 0.48911 0.2676 0.90081 0.0
Zn109 Zn 0.54955 0.29539 0.05943 0.0
C110 C 0.55386 0.16314 0.09161 0.0
N111 N 0.56824 0.30618 0.28974 0.0
C112 C 0.58903 0.36332 0.33289 0.0
C113 C 0.5468 0.24748 0.32333 0.0
C114 C 0.54354 0.24505 0.40394 0.0
C115 C 0.56376 0.30332 0.44959 0.0
C116 C 0.58772 0.36287 0.41416 0.0
Zn117 Zn 0.56199 0.30635 0.17372 0.0
O118 O 0.66551 0.27735 0.07884 0.0
C119 C 0.56143 0.43566 0.09403 0.0
O120 O 0.65985 0.34172 0.18077 0.0
H121 H 0.53009 0.20305 0.28728 0.0
H122 H 0.64851 0.33843 0.94262 0.0
H123 H 0.6056 0.4092 0.30414 0.0
O124 O 0.58096 0.39209 0.04997 0.0
O125 O 0.54073 0.41709 0.16123 0.0
H126 H 0.44473 0.24776 0.93067 0.0
O127 O 0.46307 0.27403 0.18508 0.0
O128 O 0.43634 0.31495 0.07294 0.0
O129 O 0.5844 0.19241 0.15423 0.0
O130 O 0.51722 0.19697 0.05091 0.0
C131 C 0.41835 0.29444 0.14077 0.0
H132 H 0.64906 0.34064 0.79883 0.0
H133 H 0.44202 0.24601 0.78561 0.0
H134 H 0.52488 0.19857 0.43048 0.0
H135 H 0.60373 0.40838 0.44889 0.0
C136 C 0.98999 0.50827 0.43204 0.0
C137 C 0.0491 0.4746 0.43906 0.0
C138 C 0.07735 0.5323 0.5693 0.0
C139 C 1.0176 0.56466 0.56413 0.0
N140 N 0.91222 0.57752 0.4937 0.0
N141 N 0.16324 0.48327 0.49783 0.0
C142 C 0.97238 0.5502 0.49634 0.0
C143 C 0.09682 0.49479 0.50337 0.0
N144 N 0.95562 0.50711 0.36089 0.0
N145 N 0.11699 0.5396 0.63722 0.0
H146 H 0.18118 0.46367 0.44649 0.0
H147 H 0.20175 0.50124 0.53919 0.0
H148 H 0.10348 0.56762 0.68539 0.0
H149 H 0.1586 0.51285 0.64806 0.0
H150 H 0.91717 0.53725 0.34793 0.0
H151 H 0.97131 0.48192 0.31192 0.0
H152 H 0.87365 0.56527 0.45048 0.0
H153 H 0.899 0.6081 0.5395 0.0
C154 C 0.76651 0.83267 0.74819 0.0
C155 C 0.75057 0.78094 0.8025 0.0
C156 C 0.81577 0.70751 0.72297 0.0
C157 C 0.82761 0.75813 0.66648 0.0
N158 N 0.80142 0.86348 0.61816 0.0
N159 N 0.78246 0.67894 0.85476 0.0
C160 C 0.79802 0.81863 0.67694 0.0
C161 C 0.78082 0.72047 0.79316 0.0
N162 N 0.75446 0.89682 0.76753 0.0
N163 N 0.8384 0.64666 0.70894 0.0
H164 H 0.76367 0.69162 0.90854 0.0
H165 H 0.8091 0.63692 0.85597 0.0
H166 H 0.86371 0.63695 0.65851 0.0
H167 H 0.8274 0.605 0.74303 0.0
H168 H 0.76961 0.93821 0.73452 0.0
H169 H 0.73612 0.90937 0.82172 0.0
H170 H 0.77607 0.90641 0.61791 0.0
H171 H 0.82454 0.85355 0.566 0.0
C172 C 0.61257 0.53256 0.02234 0.0
C173 C 0.55244 0.49929 0.052 0.0
C174 C 0.4872 0.53991 0.93834 0.0
C175 C 0.54778 0.57289 0.90928 0.0
N176 N 0.66848 0.58101 0.91002 0.0
N177 N 0.43193 0.46871 0.03529 0.0
C178 C 0.61057 0.56303 0.94744 0.0
C179 C 0.48943 0.50284 0.00913 0.0
N180 N 0.67216 0.53418 0.06636 0.0
N181 N 0.42705 0.54678 0.89845 0.0
H182 H 0.43153 0.4466 0.08972 0.0
H183 H 0.38529 0.46175 0.00387 0.0
H184 H 0.42599 0.56941 0.84409 0.0
H185 H 0.37927 0.53132 0.91839 0.0
H186 H 0.71726 0.56174 0.05201 0.0
H187 H 0.67429 0.51258 0.12128 0.0
H188 H 0.71623 0.56955 0.93009 0.0
H189 H 0.66647 0.6002 0.85385 0.0
C190 C 0.80474 0.21901 0.283 0.0
C191 C 0.84194 0.27492 0.3248 0.0
C192 C 0.79617 0.34936 0.22818 0.0
C193 C 0.7601 0.29375 0.18446 0.0
N194 N 0.73932 0.17394 0.16485 0.0
N195 N 0.84908 0.39254 0.35326 0.0
C196 C 0.76692 0.2279 0.21062 0.0
C197 C 0.83079 0.33993 0.30185 0.0
N198 N 0.80582 0.15719 0.31441 0.0
N199 N 0.79773 0.4119 0.19806 0.0
H200 H 0.87205 0.38603 0.40839 0.0
H201 H 0.8327 0.43971 0.34545 0.0
H202 H 0.77427 0.41993 0.14355 0.0
H203 H 0.82754 0.45381 0.2232 0.0
H204 H 0.77765 0.11354 0.29175 0.0
H205 H 0.83122 0.1514 0.36842 0.0
H206 H 0.74442 0.12423 0.17753 0.0
H207 H 0.71669 0.17917 0.10941 0.0
C208 C 0.29951 0.24593 0.1688 0.0
C209 C 0.35178 0.29974 0.17967 0.0
C210 C 0.30314 0.3304 0.30668 0.0
C211 C 0.25329 0.27427 0.29796 0.0
N212 N 0.20679 0.17498 0.22312 0.0
N213 N 0.40439 0.39283 0.26111 0.0
C214 C 0.25261 0.23108 0.22942 0.0
C215 C 0.35327 0.34189 0.24923 0.0
N216 N 0.29512 0.20903 0.0999 0.0
N217 N 0.30047 0.37482 0.3684 0.0
H218 H 0.43481 0.40876 0.21616 0.0
H219 H 0.41686 0.41847 0.31455 0.0
H220 H 0.26725 0.36554 0.41344 0.0
H221 H 0.32891 0.42165 0.37391 0.0
H222 H 0.25659 0.17099 0.08398 0.0
H223 H 0.3283 0.22028 0.05525 0.0
H224 H 0.20452 0.1384 0.17846 0.0
H225 H 0.17347 0.16248 0.26683 0.0
C226 C 0.32066 0.84017 0.79133 0.0
C227 C 0.33973 0.7766 0.81306 0.0
C228 C 0.26832 0.72457 0.69991 0.0
C229 C 0.24384 0.78667 0.68218 0.0
N230 N 0.23726 0.90156 0.72481 0.0
N231 N 0.31738 0.65681 0.79901 0.0
C232 C 0.26782 0.84406 0.73155 0.0
C233 C 0.30836 0.71844 0.7707 0.0
N234 N 0.35401 0.89724 0.82628 0.0
N235 N 0.2515 0.67068 0.64938 0.0
H236 H 0.34464 0.6519 0.85203 0.0
H237 H 0.29235 0.61198 0.77497 0.0
H238 H 0.22235 0.67435 0.59735 0.0
H239 H 0.27149 0.62496 0.65522 0.0
H240 H 0.34885 0.9451 0.80599 0.0
H241 H 0.38902 0.89624 0.87366 0.0
H242 H 0.24648 0.94217 0.76474 0.0
H243 H 0.19875 0.90629 0.68261 0.0
C244 C 0.51777 0.98034 0.02285 0.0
C245 C 0.54682 0.98029 0.94731 0.0
C246 C 0.593 0.0979 0.97493 0.0
C247 C 0.56679 0.09718 0.05221 0.0
N248 N 0.51354 0.03351 0.15284 0.0
N249 N 0.6229 0.03619 0.85911 0.0
C250 C 0.53246 0.03674 0.07707 0.0
C251 C 0.58734 0.0384 0.92565 0.0
N252 N 0.47405 0.92661 0.04192 0.0
N253 N 0.62169 0.15661 0.94681 0.0
H254 H 0.61726 0.99494 0.81981 0.0
H255 H 0.66104 0.07328 0.84525 0.0
H256 H 0.63149 0.19982 0.9814 0.0
H257 H 0.63261 0.16336 0.88841 0.0
H258 H 0.44582 0.92496 0.09176 0.0
H259 H 0.46099 0.88572 0.00369 0.0
H260 H 0.49318 0.98973 0.17816 0.0
H261 H 0.52403 0.07409 0.1928 0.0
C262 C 0.11046 0.99499 0.51009 0.0
C263 C 0.0514 0.97628 0.55279 0.0
C264 C 0.98652 0.04015 0.45886 0.0
C265 C 0.04689 0.06605 0.42333 0.0
N266 N 0.16921 0.07591 0.42687 0.0
N267 N 0.93469 0.99057 0.57304 0.0
C268 C 0.10966 0.04548 0.45227 0.0
C269 C 0.9901 1.00256 0.52881 0.0
N270 N 0.16659 0.96192 0.52117 0.0
N271 N 0.92529 0.05216 0.42511 0.0
H272 H 0.93651 0.96374 0.62454 0.0
H273 H 0.8897 1.01227 0.56304 0.0
H274 H 0.92207 0.07811 0.3731 0.0
H275 H 0.87866 1.03098 0.44364 0.0
H276 H 0.20793 0.96759 0.48549 0.0
H277 H 0.16923 0.92498 0.56218 0.0
H278 H 0.21667 0.06915 0.45269 0.0
H279 H 0.17055 0.11104 0.38308 0.0
C280 C 0.09843 0.24501 0.91887 0.0
C281 C 0.04623 0.27832 0.95171 0.0
C282 C 1.02208 0.32829 0.82637 0.0
C283 C 0.06717 0.2875 0.79129 0.0
N284 N 0.14147 0.19965 0.80095 0.0
N285 N 0.95132 0.3438 0.93544 0.0
C286 C 0.10384 0.24393 0.8366 0.0
C287 C 1.00608 0.31801 0.90517 0.0
N288 N 0.14406 0.21635 0.96633 0.0
N289 N 0.99558 0.37749 0.78462 0.0
H290 H 0.93728 0.3363 0.99288 0.0
H291 H 0.91625 0.36736 0.90165 0.0
H292 H 1.0073 0.38702 0.72678 0.0
H293 H 0.96753 0.41294 0.80953 0.0
H294 H 0.1873 0.19771 0.94585 0.0
H295 H 0.14235 0.21673 0.02727 0.0
H296 H 0.1628 0.1616 0.83057 0.0
H297 H 0.14696 0.1973 0.74057 0.0
C298 C 0.05272 0.72237 0.0711 0.0
C299 C 1.03486 0.78119 0.03483 0.0
C300 C 1.02283 0.83489 0.16204 0.0
C301 C 1.03224 0.77314 0.1973 0.0
N302 N 1.04299 0.65433 0.1853 0.0
N303 N 0.99093 0.88901 0.0433 0.0
C304 C 0.04343 0.71562 0.15187 0.0
C305 C 1.01653 0.83642 0.0795 0.0
N306 N 0.08044 0.67405 0.02895 0.0
N307 N 1.02204 0.89225 0.20715 0.0
H308 H 0.98465 0.89154 0.98253 0.0
H309 H 0.97025 0.92712 0.07364 0.0
H310 H 1.02755 0.89337 0.26823 0.0
H311 H 1.02227 0.93975 0.18377 0.0
H312 H 0.10044 0.63337 0.0546 0.0
H313 H 0.08964 0.67798 0.96955 0.0
H314 H 0.044 0.60968 0.15285 0.0
H315 H 1.03509 0.6471 0.24456 0.0
C316 C 0.52293 0.82467 0.3238 0.0
C317 C 0.56374 0.77892 0.28964 0.0
C318 C 0.60706 0.75058 0.41893 0.0
C319 C 0.55902 0.78878 0.45262 0.0
N320 N 0.46413 0.85463 0.43812 0.0
N321 N 0.63762 0.69105 0.30311 0.0
C322 C 0.51504 0.82406 0.40545 0.0
C323 C 0.60423 0.73993 0.33668 0.0
N324 N 0.49323 0.86976 0.27851 0.0
N325 N 0.65607 0.7258 0.46544 0.0
H326 H 0.63608 0.68116 0.24275 0.0
H327 H 0.66198 0.65648 0.33547 0.0
H328 H 0.66009 0.73344 0.52624 0.0
H329 H 0.69647 0.70327 0.44321 0.0
H330 H 0.46868 0.9087 0.30173 0.0
H331 H 0.49869 0.87235 0.21823 0.0
H332 H 0.42603 0.87458 0.40501 0.0
H333 H 0.4564 0.85512 0.49808 0.0
C334 C 0.60137 0.26239 0.57867 0.0
C335 C 0.5587 0.30148 0.53476 0.0
C336 C 0.50817 0.33764 0.65385 0.0
C337 C 0.54621 0.29346 0.69649 0.0
N338 N 0.6168 0.20242 0.69775 0.0
N339 N 0.46134 0.36467 0.52679 0.0
C340 C 0.58919 0.25228 0.65835 0.0
C341 C 0.509 0.33583 0.57115 0.0
N342 N 0.65472 0.23678 0.54493 0.0
N343 N 0.47345 0.3829 0.69225 0.0
H344 H 0.45966 0.36364 0.46564 0.0
H345 H 0.41977 0.38419 0.55039 0.0
H346 H 0.47195 0.38618 0.75316 0.0
H347 H 0.45099 0.42099 0.66401 0.0
H348 H 0.69138 0.21358 0.57667 0.0
H349 H 0.66616 0.24431 0.48663 0.0
H350 H 0.64322 0.16678 0.67052 0.0
H351 H 0.60735 0.19247 0.75602 0.0
loop_
_geom_bond_atom_site_label_1
_geom_bond_atom_site_label_2
_geom_bond_distance
_geom_bond_site_symmetry_2
_ccdc_geom_bond_type
C0 O16 1.251 . S
C0 O18 1.254 . S
N1 C2 1.326 1_655 S
N1 C6 1.313 . S
N1 Zn7 2.020 1_655 S
C2 N1 1.326 1_455 S
C2 C3 1.379 . S
C2 H20 0.952 . S
C3 C2 1.379 . S
C3 C4 1.390 . S
C3 H30 0.949 . S
C4 C3 1.390 . S
C4 C5 1.357 1_455 S
C5 C4 1.357 1_655 S
C5 C6 1.370 . S
C5 H31 0.950 . S
C6 N1 1.313 . S
C6 C5 1.370 . S
C6 H24 0.948 . S
Zn7 N1 2.020 1_455 S
Zn7 O16 2.039 . S
Zn7 O22 2.034 . S
Zn7 O26 2.025 1_455 S
Zn7 O28 2.024 1_455 S
C8 O27 1.246 . S
C8 O28 1.249 1_455 S
N9 C10 1.307 . S
N9 C11 1.333 1_455 S
N9 Zn15 2.020 . S
C10 N9 1.307 . S
C10 C14 1.370 . S
C10 H21 0.948 . S
C11 N9 1.333 1_655 S
C11 C12 1.379 . S
C11 H19 0.952 . S
C12 C11 1.379 . S
C12 C13 1.390 1_655 S
C12 H32 0.949 . S
C13 C12 1.390 1_455 S
C13 C14 1.357 . S
C14 C10 1.370 . S
C14 C13 1.357 . S
C14 H33 0.950 . S
Zn15 N9 2.020 . S
Zn15 O18 2.025 . S
Zn15 O23 2.024 . S
Zn15 O25 2.039 1_455 S
Zn15 O27 2.034 . S
O16 C0 1.251 . S
O16 Zn7 2.039 . S
C17 O22 1.246 . S
C17 O23 1.249 . S
O18 C0 1.254 . S
O18 Zn15 2.025 . S
H19 C11 0.952 . S
H20 C2 0.952 . S
H21 C10 0.948 . S
O22 Zn7 2.034 . S
O22 C17 1.246 . S
O23 Zn15 2.024 . S
O23 C17 1.249 . S
H24 C6 0.948 . S
O25 Zn15 2.039 1_655 S
O25 C29 1.251 . S
O26 Zn7 2.025 1_655 S
O26 C29 1.254 . S
O27 C8 1.246 . S
O27 Zn15 2.034 . S
O28 Zn7 2.024 1_655 S
O28 C8 1.249 1_655 S
C29 O25 1.251 . S
C29 O26 1.254 . S
H30 C3 0.949 . S
H31 C5 0.950 . S
H32 C12 0.949 . S
H33 C14 0.950 . S
C34 O50 1.251 . S
C34 O52 1.254 . S
N35 C36 1.333 1_655 S
N35 C40 1.307 . S
N35 Zn41 2.020 . S
C36 N35 1.333 1_455 S
C36 C37 1.379 . S
C36 H54 0.952 . S
C37 C36 1.379 . S
C37 C38 1.390 . S
C37 H64 0.949 . S
C38 C37 1.390 . S
C38 C39 1.357 1_455 S
C39 C38 1.357 1_655 S
C39 C40 1.370 . S
C39 H65 0.950 . S
C40 N35 1.307 . S
C40 C39 1.370 . S
C40 H58 0.948 . S
Zn41 N35 2.020 . S
Zn41 O50 2.039 1_655 S
Zn41 O56 2.034 1_655 S
Zn41 O60 2.025 . S
Zn41 O62 2.024 . S
C42 O61 1.246 . S
C42 O62 1.249 . S
N43 C44 1.307 . S
N43 C45 1.333 1_455 S
N43 Zn49 2.020 . S
C44 N43 1.307 . S
C44 C48 1.370 . S
C44 H55 0.948 . S
C45 N43 1.333 1_655 S
C45 C46 1.379 . S
C45 H53 0.952 . S
C46 C45 1.379 . S
C46 C47 1.390 1_655 S
C46 H66 0.949 . S
C47 C46 1.390 1_455 S
C47 C48 1.357 . S
C48 C44 1.370 . S
C48 C47 1.357 . S
C48 H67 0.950 . S
Zn49 N43 2.020 . S
Zn49 O52 2.025 . S
Zn49 O57 2.024 . S
Zn49 O59 2.039 1_455 S
Zn49 O61 2.034 1_455 S
O50 C34 1.251 . S
O50 Zn41 2.039 1_455 S
C51 O56 1.246 . S
C51 O57 1.249 . S
O52 C34 1.254 . S
O52 Zn49 2.025 . S
H53 C45 0.952 . S
H54 C36 0.952 . S
H55 C44 0.948 . S
O56 Zn41 2.034 1_455 S
O56 C51 1.246 . S
O57 Zn49 2.024 . S
O57 C51 1.249 . S
H58 C40 0.948 . S
O59 Zn49 2.039 1_655 S
O59 C63 1.251 . S
O60 Zn41 2.025 . S
O60 C63 1.254 . S
O61 C42 1.246 . S
O61 Zn49 2.034 1_655 S
O62 Zn41 2.024 . S
O62 C42 1.249 . S
C63 O59 1.251 . S
C63 O60 1.254 . S
H64 C37 0.949 . S
H65 C39 0.950 . S
H66 C46 0.949 . S
H67 C48 0.950 . S
C68 O84 1.251 . S
C68 O86 1.254 . S
N69 C70 1.333 . S
N69 C74 1.307 . S
N69 Zn75 2.020 . S
C70 N69 1.333 . S
C70 C71 1.379 . S
C70 H88 0.952 . S
C71 C70 1.379 . S
C71 C72 1.390 . S
C71 H98 0.949 . S
C72 C71 1.390 . S
C72 C73 1.357 . S
C73 C72 1.357 . S
C73 C74 1.370 . S
C73 H99 0.950 . S
C74 N69 1.307 . S
C74 C73 1.370 . S
C74 H92 0.948 . S
Zn75 N69 2.020 . S
Zn75 O84 2.039 . S
Zn75 O90 2.034 . S
Zn75 O94 2.025 . S
Zn75 O96 2.024 . S
C76 O95 1.246 . S
C76 O96 1.249 . S
N77 C78 1.307 . S
N77 C79 1.333 . S
N77 Zn83 2.020 1_554 S
C78 N77 1.307 . S
C78 C82 1.370 . S
C78 H89 0.948 . S
C79 N77 1.333 . S
C79 C80 1.379 . S
C79 H87 0.952 . S
C80 C79 1.379 . S
C80 C81 1.390 . S
C80 H100 0.949 . S
C81 C80 1.390 . S
C81 C82 1.357 . S
C82 C78 1.370 . S
C82 C81 1.357 . S
C82 H101 0.950 . S
Zn83 N77 2.020 1_556 S
Zn83 O86 2.025 . S
Zn83 O91 2.024 . S
Zn83 O93 2.039 . S
Zn83 O95 2.034 . S
O84 C68 1.251 . S
O84 Zn75 2.039 . S
C85 O90 1.246 . S
C85 O91 1.249 . S
O86 C68 1.254 . S
O86 Zn83 2.025 . S
H87 C79 0.952 . S
H88 C70 0.952 . S
H89 C78 0.948 . S
O90 Zn75 2.034 . S
O90 C85 1.246 . S
O91 Zn83 2.024 . S
O91 C85 1.249 . S
H92 C74 0.948 . S
O93 Zn83 2.039 . S
O93 C97 1.251 . S
O94 Zn75 2.025 . S
O94 C97 1.254 . S
O95 C76 1.246 . S
O95 Zn83 2.034 . S
O96 Zn75 2.024 . S
O96 C76 1.249 . S
C97 O93 1.251 . S
C97 O94 1.254 . S
H98 C71 0.949 . S
H99 C73 0.950 . S
H100 C80 0.949 . S
H101 C82 0.950 . S
C102 O118 1.251 . S
C102 O120 1.254 . S
N103 C104 1.333 . S
N103 C108 1.307 . S
N103 Zn109 2.020 1_556 S
C104 N103 1.333 . S
C104 C105 1.379 . S
C104 H122 0.952 . S
C105 C104 1.379 . S
C105 C106 1.390 . S
C105 H132 0.949 . S
C106 C105 1.390 . S
C106 C107 1.357 . S
C107 C106 1.357 . S
C107 C108 1.370 . S
C107 H133 0.950 . S
C108 N103 1.307 . S
C108 C107 1.370 . S
C108 H126 0.948 . S
Zn109 N103 2.020 1_554 S
Zn109 O118 2.039 . S
Zn109 O124 2.034 . S
Zn109 O128 2.025 . S
Zn109 O130 2.024 . S
C110 O129 1.246 . S
C110 O130 1.249 . S
N111 C112 1.307 . S
N111 C113 1.333 . S
N111 Zn117 2.020 . S
C112 N111 1.307 . S
C112 C116 1.370 . S
C112 H123 0.948 . S
C113 N111 1.333 . S
C113 C114 1.379 . S
C113 H121 0.952 . S
C114 C113 1.379 . S
C114 C115 1.390 . S
C114 H134 0.949 . S
C115 C114 1.390 . S
C115 C116 1.357 . S
C116 C112 1.370 . S
C116 C115 1.357 . S
C116 H135 0.950 . S
Zn117 N111 2.020 . S
Zn117 O120 2.025 . S
Zn117 O125 2.024 . S
Zn117 O127 2.039 . S
Zn117 O129 2.034 . S
O118 C102 1.251 . S
O118 Zn109 2.039 . S
C119 O124 1.246 . S
C119 O125 1.249 . S
O120 C102 1.254 . S
O120 Zn117 2.025 . S
H121 C113 0.952 . S
H122 C104 0.952 . S
H123 C112 0.948 . S
O124 Zn109 2.034 . S
O124 C119 1.246 . S
O125 Zn117 2.024 . S
O125 C119 1.249 . S
H126 C108 0.948 . S
O127 Zn117 2.039 . S
O127 C131 1.251 . S
O128 Zn109 2.025 . S
O128 C131 1.254 . S
O129 C110 1.246 . S
O129 Zn117 2.034 . S
O130 Zn109 2.024 . S
O130 C110 1.249 . S
C131 O127 1.251 . S
C131 O128 1.254 . S
H132 C105 0.949 . S
H133 C107 0.950 . S
H134 C114 0.949 . S
H135 C116 0.950 . S
C136 C137 1.363 1_655 S
C136 C142 1.379 . S
C136 N144 1.356 . S
C137 C136 1.363 1_455 S
C137 C143 1.363 . S
C138 C139 1.363 . S
C138 C143 1.379 . S
C138 N145 1.356 . S
C139 C138 1.363 . S
C139 C142 1.363 1_455 S
N140 C142 1.356 . S
N140 H152 0.984 . S
N140 H153 0.985 . S
N141 C143 1.356 . S
N141 H146 0.984 . S
N141 H147 0.985 . S
C142 C136 1.379 . S
C142 C139 1.363 1_655 S
C142 N140 1.356 . S
C143 C137 1.363 . S
C143 C138 1.379 . S
C143 N141 1.356 . S
N144 C136 1.356 . S
N144 H150 0.984 . S
N144 H151 0.984 . S
N145 C138 1.356 . S
N145 H148 0.984 . S
N145 H149 0.985 . S
H146 N141 0.984 . S
H147 N141 0.985 . S
H148 N145 0.984 . S
H149 N145 0.985 . S
H150 N144 0.984 . S
H151 N144 0.984 . S
H152 N140 0.984 . S
H153 N140 0.985 . S
C154 C155 1.363 . S
C154 C160 1.379 . S
C154 N162 1.356 . S
C155 C154 1.363 . S
C155 C161 1.363 . S
C156 C157 1.363 . S
C156 C161 1.379 . S
C156 N163 1.356 . S
C157 C156 1.363 . S
C157 C160 1.363 . S
N158 C160 1.356 . S
N158 H170 0.984 . S
N158 H171 0.985 . S
N159 C161 1.356 . S
N159 H164 0.984 . S
N159 H165 0.985 . S
C160 C154 1.379 . S
C160 C157 1.363 . S
C160 N158 1.356 . S
C161 C155 1.363 . S
C161 C156 1.379 . S
C161 N159 1.356 . S
N162 C154 1.356 . S
N162 H168 0.984 . S
N162 H169 0.984 . S
N163 C156 1.356 . S
N163 H166 0.984 . S
N163 H167 0.985 . S
H164 N159 0.984 . S
H165 N159 0.985 . S
H166 N163 0.984 . S
H167 N163 0.985 . S
H168 N162 0.984 . S
H169 N162 0.984 . S
H170 N158 0.984 . S
H171 N158 0.985 . S
C172 C173 1.363 1_556 S
C172 C178 1.379 . S
C172 N180 1.356 1_556 S
C173 C172 1.363 1_554 S
C173 C179 1.363 . S
C174 C175 1.363 1_554 S
C174 C179 1.379 . S
C174 N181 1.356 1_554 S
C175 C174 1.363 1_556 S
C175 C178 1.363 . S
N176 C178 1.356 . S
N176 H188 0.984 . S
N176 H189 0.985 . S
N177 C179 1.356 . S
N177 H182 0.984 . S
N177 H183 0.985 . S
C178 C172 1.379 . S
C178 C175 1.363 . S
C178 N176 1.356 . S
C179 C173 1.363 . S
C179 C174 1.379 . S
C179 N177 1.356 . S
N180 C172 1.356 1_554 S
N180 H186 0.984 1_554 S
N180 H187 0.984 . S
N181 C174 1.356 1_556 S
N181 H184 0.984 . S
N181 H185 0.985 1_556 S
H182 N177 0.984 . S
H183 N177 0.985 . S
H184 N181 0.984 . S
H185 N181 0.985 1_554 S
H186 N180 0.984 1_556 S
H187 N180 0.984 . S
H188 N176 0.984 . S
H189 N176 0.985 . S
C190 C191 1.363 . S
C190 C196 1.379 . S
C190 N198 1.356 . S
C191 C190 1.363 . S
C191 C197 1.363 . S
C192 C193 1.363 . S
C192 C197 1.379 . S
C192 N199 1.356 . S
C193 C192 1.363 . S
C193 C196 1.363 . S
N194 C196 1.356 . S
N194 H206 0.984 . S
N194 H207 0.985 . S
N195 C197 1.356 . S
N195 H200 0.984 . S
N195 H201 0.985 . S
C196 C190 1.379 . S
C196 C193 1.363 . S
C196 N194 1.356 . S
C197 C191 1.363 . S
C197 C192 1.379 . S
C197 N195 1.356 . S
N198 C190 1.356 . S
N198 H204 0.984 . S
N198 H205 0.984 . S
N199 C192 1.356 . S
N199 H202 0.984 . S
N199 H203 0.985 . S
H200 N195 0.984 . S
H201 N195 0.985 . S
H202 N199 0.984 . S
H203 N199 0.985 . S
H204 N198 0.984 . S
H205 N198 0.984 . S
H206 N194 0.984 . S
H207 N194 0.985 . S
C208 C209 1.363 . S
C208 C214 1.379 . S
C208 N216 1.356 . S
C209 C208 1.363 . S
C209 C215 1.363 . S
C210 C211 1.363 . S
C210 C215 1.379 . S
C210 N217 1.356 . S
C211 C210 1.363 . S
C211 C214 1.363 . S
N212 C214 1.356 . S
N212 H224 0.984 . S
N212 H225 0.985 . S
N213 C215 1.356 . S
N213 H218 0.984 . S
N213 H219 0.985 . S
C214 C208 1.379 . S
C214 C211 1.363 . S
C214 N212 1.356 . S
C215 C209 1.363 . S
C215 C210 1.379 . S
C215 N213 1.356 . S
N216 C208 1.356 . S
N216 H222 0.984 . S
N216 H223 0.984 . S
N217 C210 1.356 . S
N217 H220 0.984 . S
N217 H221 0.985 . S
H218 N213 0.984 . S
H219 N213 0.985 . S
H220 N217 0.984 . S
H221 N217 0.985 . S
H222 N216 0.984 . S
H223 N216 0.984 . S
H224 N212 0.984 . S
H225 N212 0.985 . S
C226 C227 1.363 . S
C226 C232 1.379 . S
C226 N234 1.356 . S
C227 C226 1.363 . S
C227 C233 1.363 . S
C228 C229 1.363 . S
C228 C233 1.379 . S
C228 N235 1.356 . S
C229 C228 1.363 . S
C229 C232 1.363 . S
N230 C232 1.356 . S
N230 H242 0.984 . S
N230 H243 0.985 . S
N231 C233 1.356 . S
N231 H236 0.984 . S
N231 H237 0.985 . S
C232 C226 1.379 . S
C232 C229 1.363 . S
C232 N230 1.356 . S
C233 C227 1.363 . S
C233 C228 1.379 . S
C233 N231 1.356 . S
N234 C226 1.356 . S
N234 H240 0.984 . S
N234 H241 0.984 . S
N235 C228 1.356 . S
N235 H238 0.984 . S
N235 H239 0.985 . S
H236 N231 0.984 . S
H237 N231 0.985 . S
H238 N235 0.984 . S
H239 N235 0.985 . S
H240 N234 0.984 . S
H241 N234 0.984 . S
H242 N230 0.984 . S
H243 N230 0.985 . S
C244 C245 1.363 1_554 S
C244 C250 1.379 . S
C244 N252 1.356 . S
C245 C244 1.363 1_556 S
C245 C251 1.363 1_565 S
C246 C247 1.363 1_556 S
C246 C251 1.379 . S
C246 N253 1.356 . S
C247 C246 1.363 1_554 S
C247 C250 1.363 1_545 S
N248 C250 1.356 . S
N248 H260 0.984 . S
N248 H261 0.985 1_565 S
N249 C251 1.356 . S
N249 H254 0.984 1_545 S
N249 H255 0.985 . S
C250 C244 1.379 . S
C250 C247 1.363 1_565 S
C250 N248 1.356 . S
C251 C245 1.363 1_545 S
C251 C246 1.379 . S
C251 N249 1.356 . S
N252 C244 1.356 . S
N252 H258 0.984 . S
N252 H259 0.984 1_554 S
N253 C246 1.356 . S
N253 H256 0.984 1_556 S
N253 H257 0.985 . S
H254 N249 0.984 1_565 S
H255 N249 0.985 . S
H256 N253 0.984 1_554 S
H257 N253 0.985 . S
H258 N252 0.984 . S
H259 N252 0.984 1_556 S
H260 N248 0.984 . S
H261 N248 0.985 1_545 S
C262 C263 1.363 . S
C262 C268 1.379 . S
C262 N270 1.356 . S
C263 C262 1.363 . S
C263 C269 1.363 1_465 S
C264 C265 1.363 1_655 S
C264 C269 1.379 . S
C264 N271 1.356 . S
C265 C264 1.363 1_455 S
C265 C268 1.363 1_545 S
N266 C268 1.356 1_545 S
N266 H278 0.984 1_545 S
N266 H279 0.985 . S
N267 C269 1.356 1_565 S
N267 H272 0.984 . S
N267 H273 0.985 1_565 S
C268 C262 1.379 . S
C268 C265 1.363 1_565 S
C268 N266 1.356 1_565 S
C269 C263 1.363 1_645 S
C269 C264 1.379 . S
C269 N267 1.356 1_545 S
N270 C262 1.356 . S
N270 H276 0.984 . S
N270 H277 0.984 . S
N271 C264 1.356 . S
N271 H274 0.984 . S
N271 H275 0.985 . S
H272 N267 0.984 . S
H273 N267 0.985 1_545 S
H274 N271 0.984 . S
H275 N271 0.985 . S
H276 N270 0.984 . S
H277 N270 0.984 . S
H278 N266 0.984 1_565 S
H279 N266 0.985 . S
C280 C281 1.363 . S
C280 C286 1.379 . S
C280 N288 1.356 . S
C281 C280 1.363 . S
C281 C287 1.363 1_455 S
C282 C283 1.363 1_655 S
C282 C287 1.379 . S
C282 N289 1.356 . S
C283 C282 1.363 1_455 S
C283 C286 1.363 . S
N284 C286 1.356 . S
N284 H296 0.984 . S
N284 H297 0.985 . S
N285 C287 1.356 . S
N285 H290 0.984 1_556 S
N285 H291 0.985 . S
C286 C280 1.379 . S
C286 C283 1.363 . S
C286 N284 1.356 . S
C287 C281 1.363 1_655 S
C287 C282 1.379 . S
C287 N285 1.356 . S
N288 C280 1.356 . S
N288 H294 0.984 . S
N288 H295 0.984 1_556 S
N289 C282 1.356 . S
N289 H292 0.984 . S
N289 H293 0.985 . S
H290 N285 0.984 1_554 S
H291 N285 0.985 . S
H292 N289 0.984 . S
H293 N289 0.985 . S
H294 N288 0.984 . S
H295 N288 0.984 1_554 S
H296 N284 0.984 . S
H297 N284 0.985 . S
C298 C299 1.363 1_655 S
C298 C304 1.379 . S
C298 N306 1.356 . S
C299 C298 1.363 1_455 S
C299 C305 1.363 . S
C300 C301 1.363 . S
C300 C305 1.379 . S
C300 N307 1.356 . S
C301 C300 1.363 . S
C301 C304 1.363 1_455 S
N302 C304 1.356 . S
N302 H314 0.984 . S
N302 H315 0.985 . S
N303 C305 1.356 . S
N303 H308 0.984 1_554 S
N303 H309 0.985 . S
C304 C298 1.379 . S
C304 C301 1.363 1_655 S
C304 N302 1.356 . S
C305 C299 1.363 . S
C305 C300 1.379 . S
C305 N303 1.356 . S
N306 C298 1.356 . S
N306 H312 0.984 . S
N306 H313 0.984 1_554 S
N307 C300 1.356 . S
N307 H310 0.984 . S
N307 H311 0.985 . S
H308 N303 0.984 1_556 S
H309 N303 0.985 . S
H310 N307 0.984 . S
H311 N307 0.985 . S
H312 N306 0.984 . S
H313 N306 0.984 1_556 S
H314 N302 0.984 . S
H315 N302 0.985 . S
C316 C317 1.363 . S
C316 C322 1.379 . S
C316 N324 1.356 . S
C317 C316 1.363 . S
C317 C323 1.363 . S
C318 C319 1.363 . S
C318 C323 1.379 . S
C318 N325 1.356 . S
C319 C318 1.363 . S
C319 C322 1.363 . S
N320 C322 1.356 . S
N320 H332 0.984 . S
N320 H333 0.985 . S
N321 C323 1.356 . S
N321 H326 0.984 . S
N321 H327 0.985 . S
C322 C316 1.379 . S
C322 C319 1.363 . S
C322 N320 1.356 . S
C323 C317 1.363 . S
C323 C318 1.379 . S
C323 N321 1.356 . S
N324 C316 1.356 . S
N324 H330 0.984 . S
N324 H331 0.984 . S
N325 C318 1.356 . S
N325 H328 0.984 . S
N325 H329 0.985 . S
H326 N321 0.984 . S
H327 N321 0.985 . S
H328 N325 0.984 . S
H329 N325 0.985 . S
H330 N324 0.984 . S
H331 N324 0.984 . S
H332 N320 0.984 . S
H333 N320 0.985 . S
C334 C335 1.363 . S
C334 C340 1.379 . S
C334 N342 1.356 . S
C335 C334 1.363 . S
C335 C341 1.363 . S
C336 C337 1.363 . S
C336 C341 1.379 . S
C336 N343 1.356 . S
C337 C336 1.363 . S
C337 C340 1.363 . S
N338 C340 1.356 . S
N338 H350 0.984 . S
N338 H351 0.985 . S
N339 C341 1.356 . S
N339 H344 0.984 . S
N339 H345 0.985 . S
C340 C334 1.379 . S
C340 C337 1.363 . S
C340 N338 1.356 . S
C341 C335 1.363 . S
C341 C336 1.379 . S
C341 N339 1.356 . S
N342 C334 1.356 . S
N342 H348 0.984 . S
N342 H349 0.984 . S
N343 C336 1.356 . S
N343 H346 0.984 . S
N343 H347 0.985 . S
H344 N339 0.984 . S
H345 N339 0.985 . S
H346 N343 0.984 . S
H347 N343 0.985 . S
H348 N342 0.984 . S
H349 N342 0.984 . S
H350 N338 0.984 . S
H351 N338 0.985 . S
C137 C17 2.063 . S
C139 C42 2.063 1_455 S
C155 C68 2.178 . S
C157 C63 2.178 . S
C173 C119 2.137 . S
C175 C76 2.137 . S
C191 C29 2.027 . S
C193 C102 2.027 . S
C209 C131 2.178 . S
C211 C0 2.178 . S
C227 C97 2.027 . S
C229 C34 2.027 . S
C245 C85 2.063 . S
C247 C110 2.063 . S
C263 C51 2.137 . S
C265 C8 2.137 . S
C281 C4 0.777 1_556 S
C283 C13 0.777 . S
C299 C47 0.777 1_554 S
C301 C38 0.777 . S
C317 C81 0.777 . S
C319 C72 0.777 . S
C335 C115 0.777 . S
C337 C106 0.777 . S
