# Generated by pormake.
# Topology unh, (4)-cn, num edge types: 1
# Building blocks:
#     Node 0, Type 0, BuildingBlock: ICAMEG_clean_sbu_1, # of connection points: 4
#     Node 1, Type 0, BuildingBlock: ICAMEG_clean_sbu_1, # of connection points: 4
#     Node 2, Type 0, BuildingBlock: ICAMEG_clean_sbu_1, # of connection points: 4
#     Node 3, Type 0, BuildingBlock: ICAMEG_clean_sbu_1, # of connection points: 4
#     Node 4, Type 0, BuildingBlock: ICAMEG_clean_sbu_1, # of connection points: 4
#     Node 5, Type 0, BuildingBlock: ICAMEG_clean_sbu_1, # of connection points: 4
#     Edge 6, Type (0, 0), BuildingBlock: XIVTED_clean_linker_0, # of connection points: 2
#     Edge 7, Type (0, 0), BuildingBlock: XIVTED_clean_linker_0, # of connection points: 2
#     Edge 8, Type (0, 0), BuildingBlock: XIVTED_clean_linker_0, # of connection points: 2
#     Edge 9, Type (0, 0), BuildingBlock: XIVTED_clean_linker_0, # of connection points: 2
#     Edge 10, Type (0, 0), BuildingBlock: XIVTED_clean_linker_0, # of connection points: 2
#     Edge 11, Type (0, 0), BuildingBlock: XIVTED_clean_linker_0, # of connection points: 2
#     Edge 12, Type (0, 0), BuildingBlock: XIVTED_clean_linker_0, # of connection points: 2
#     Edge 13, Type (0, 0), BuildingBlock: XIVTED_clean_linker_0, # of connection points: 2
#     Edge 14, Type (0, 0), BuildingBlock: XIVTED_clean_linker_0, # of connection points: 2
#     Edge 15, Type (0, 0), BuildingBlock: XIVTED_clean_linker_0, # of connection points: 2
#     Edge 16, Type (0, 0), BuildingBlock: XIVTED_clean_linker_0, # of connection points: 2
#     Edge 17, Type (0, 0), BuildingBlock: XIVTED_clean_linker_0, # of connection points: 2
# Relax obj value: 0.020
# Max RMSD: 0.108
# Mean RMSD: 0.108
data_MOF--net-unh--node1-ICAMEG_clean_sbu_1--edge1-XIVTED_clean_linker_0
_symmetry_space_group_name_H-M    P1
_symmetry_Int_Tables_number       1
_symmetry_cell_setting            triclinic
loop_
_symmetry_equiv_pos_as_xyz
'x, y, z'
_cell_length_a     44.423707
_cell_length_b     44.434642
_cell_length_c     24.871051
_cell_angle_alpha  89.976534
_cell_angle_beta   89.949394
_cell_angle_gamma 119.97701
loop_
_atom_site_label
_atom_site_type_symbol
_atom_site_fract_x
_atom_site_fract_y
_atom_site_fract_z
_atom_type_partial_charge
Co0 Co 0.14561 0.54151 0.03171 0.0
Co1 Co 0.14447 0.60155 0.11866 0.0
O2 O 0.12165 0.55985 0.07455 0.0
C3 C 0.10122 0.55188 0.95484 0.0
O4 O 0.11399 0.58325 0.97485 0.0
C5 C 0.09825 0.546 0.19354 0.0
O6 O 0.11118 0.52736 0.17414 0.0
O7 O 0.17552 0.58621 0.15157 0.0
O8 O 0.17971 0.55114 0.09045 0.0
H9 H 0.24657 0.70602 0.2004 0.0
H10 H 0.06936 0.49918 0.0482 0.0
O11 O 0.11169 0.5317 0.97218 0.0
H12 H 0.11756 0.42957 0.12389 0.0
H13 H 0.15021 0.45659 0.90283 0.0
H14 H 0.21926 0.56245 0.0105 0.0
H15 H 0.15611 0.48657 0.08217 0.0
H16 H 0.12127 0.48048 0.95893 0.0
O17 O 0.10926 0.57681 0.17655 0.0
H18 H 0.2176 0.65368 0.14341 0.0
H19 H 0.11869 0.63744 0.19073 0.0
H20 H 0.24928 0.53934 0.95531 0.0
H21 H 0.02986 0.44222 0.08922 0.0
H22 H 0.21468 0.48602 0.90095 0.0
H23 H 0.05395 0.40705 0.12758 0.0
O24 O 0.17751 0.58811 0.00059 0.0
H25 H 0.03008 0.58515 0.05399 0.0
H26 H 0.15552 0.66806 0.0715 0.0
H27 H 0.11782 0.68685 0.02779 0.0
H28 H 0.05459 0.64523 0.01883 0.0
H29 H 0.0688 0.56738 0.09696 0.0
H30 H 0.14656 0.68943 0.24858 0.0
H31 H 0.21097 0.72419 0.25349 0.0
O32 O 0.17972 0.62692 0.06108 0.0
C33 C 0.18825 0.56775 0.1348 0.0
C34 C 0.21849 0.69116 0.19845 0.0
C35 C 0.16236 0.68182 0.22556 0.0
N36 N 0.16653 0.64273 0.16343 0.0
C37 C 0.20195 0.66157 0.16614 0.0
C38 C 0.14672 0.65237 0.19284 0.0
C39 C 0.1985 0.70131 0.22828 0.0
C40 C 0.08 0.48387 0.0643 0.0
N41 N 0.11498 0.49609 0.06248 0.0
C42 C 0.05752 0.4517 0.08769 0.0
C43 C 0.07106 0.43201 0.10928 0.0
C44 C 0.10676 0.44464 0.10725 0.0
C45 C 0.12846 0.47695 0.08365 0.0
C46 C 0.16557 0.47982 0.92639 0.0
C47 C 0.20404 0.53915 0.98717 0.0
C48 C 0.14934 0.49351 0.95813 0.0
N49 N 0.16858 0.52272 0.9882 0.0
C50 C 0.22118 0.52623 0.9559 0.0
C51 C 0.20175 0.49633 0.92537 0.0
C52 C 0.18948 0.61913 0.01752 0.0
C53 C 0.05758 0.60353 0.0577 0.0
C54 C 0.12809 0.64977 0.06748 0.0
C55 C 0.10684 0.66059 0.04288 0.0
C56 C 0.07136 0.63723 0.03792 0.0
N57 N 0.1144 0.61666 0.08667 0.0
C58 C 0.07961 0.59366 0.08216 0.0
Co59 Co 0.60155 0.14492 0.20072 0.0
Co60 Co 0.543 0.14542 0.29066 0.0
O61 O 0.5602 0.1214 0.24564 0.0
C62 C 0.54628 0.09748 0.1271 0.0
O63 O 0.52757 0.11054 0.14568 0.0
C64 C 0.54963 0.09706 0.36408 0.0
O65 O 0.58135 0.10965 0.34551 0.0
O66 O 0.58953 0.17392 0.32379 0.0
O67 O 0.62664 0.18141 0.25672 0.0
H68 H 0.54653 0.24924 0.3774 0.0
H69 H 0.57046 0.06958 0.22301 0.0
O70 O 0.57714 0.1088 0.1441 0.0
H71 H 0.69011 0.12373 0.29307 0.0
H72 H 0.69022 0.14872 0.07058 0.0
H73 H 0.65126 0.21827 0.17255 0.0
H74 H 0.66889 0.15941 0.24924 0.0
H75 H 0.63872 0.12016 0.12958 0.0
O76 O 0.53057 0.10898 0.34717 0.0
H77 H 0.56785 0.21896 0.31903 0.0
H78 H 0.48114 0.12153 0.36176 0.0
H79 H 0.70306 0.24793 0.11437 0.0
H80 H 0.59071 0.0329 0.26616 0.0
H81 H 0.72285 0.21307 0.06289 0.0
H82 H 0.65091 0.05999 0.3017 0.0
O83 O 0.58433 0.17416 0.16766 0.0
H84 H 0.44073 0.03458 0.2246 0.0
H85 H 0.49106 0.16131 0.24224 0.0
H86 H 0.43415 0.12661 0.19814 0.0
H87 H 0.40861 0.06277 0.18913 0.0
H88 H 0.4977 0.07029 0.26804 0.0
H89 H 0.459 0.15071 0.42095 0.0
H90 H 0.49172 0.21504 0.42886 0.0
O91 O 0.55509 0.18222 0.23472 0.0
C92 C 0.61998 0.18839 0.30353 0.0
C93 C 0.53197 0.22121 0.37413 0.0
C94 C 0.48287 0.1659 0.39863 0.0
N95 N 0.52557 0.16857 0.3366 0.0
C96 C 0.54386 0.20394 0.34101 0.0
C97 C 0.49555 0.14952 0.36513 0.0
C98 C 0.50124 0.202 0.40303 0.0
C99 C 0.5968 0.08151 0.23786 0.0
N100 N 0.61852 0.11656 0.23335 0.0
C101 C 0.60808 0.06063 0.26248 0.0
C102 C 0.64183 0.07586 0.28249 0.0
C103 C 0.66384 0.11162 0.27769 0.0
C104 C 0.65165 0.1317 0.25293 0.0
C105 C 0.68191 0.16419 0.09291 0.0
C106 C 0.65987 0.20296 0.15055 0.0
C107 C 0.65274 0.14817 0.1263 0.0
N108 N 0.64224 0.16757 0.15486 0.0
C109 C 0.68915 0.21988 0.11755 0.0
C110 C 0.70021 0.2003 0.08863 0.0
C111 C 0.56877 0.18906 0.18791 0.0
C112 C 0.45154 0.06236 0.22845 0.0
C113 C 0.48015 0.13355 0.2384 0.0
C114 C 0.44788 0.11403 0.21348 0.0
C115 C 0.43356 0.0782 0.20847 0.0
N116 N 0.49761 0.11781 0.25793 0.0
C117 C 0.48371 0.0827 0.25322 0.0
Co118 Co 0.39655 0.54354 0.45686 0.0
Co119 Co 0.45419 0.60168 0.3652 0.0
O120 O 0.43752 0.5609 0.41114 0.0
C121 C 0.45226 0.55156 0.52985 0.0
O122 O 0.47089 0.58321 0.51079 0.0
C123 C 0.44786 0.54639 0.2927 0.0
O124 O 0.41621 0.52713 0.31149 0.0
O125 O 0.40745 0.58291 0.3326 0.0
O126 O 0.37106 0.55483 0.40121 0.0
H127 H 0.44894 0.70039 0.27586 0.0
H128 H 0.42707 0.49878 0.43442 0.0
O129 O 0.42132 0.53198 0.51321 0.0
H130 H 0.30676 0.43348 0.36701 0.0
H131 H 0.30887 0.45992 0.58931 0.0
H132 H 0.34741 0.5678 0.48579 0.0
H133 H 0.32868 0.49071 0.40991 0.0
H134 H 0.35974 0.48212 0.52909 0.0
O135 O 0.46674 0.57746 0.30924 0.0
H136 H 0.42842 0.64947 0.33553 0.0
H137 H 0.51566 0.63945 0.2933 0.0
H138 H 0.29624 0.5464 0.54517 0.0
H139 H 0.40612 0.44151 0.39218 0.0
H140 H 0.27666 0.49207 0.59745 0.0
H141 H 0.34559 0.4085 0.35798 0.0
O142 O 0.41429 0.59021 0.48915 0.0
H143 H 0.55751 0.59493 0.43133 0.0
H144 H 0.50584 0.67011 0.41203 0.0
H145 H 0.56307 0.69325 0.45549 0.0
H146 H 0.58929 0.65556 0.46532 0.0
H147 H 0.50021 0.57274 0.38851 0.0
H148 H 0.53699 0.6901 0.23281 0.0
H149 H 0.50361 0.72101 0.22399 0.0
O150 O 0.44197 0.62667 0.42047 0.0
C151 C 0.37727 0.56767 0.35384 0.0
C152 C 0.46379 0.68723 0.27952 0.0
C153 C 0.51319 0.68142 0.25531 0.0
N154 N 0.47101 0.64176 0.31829 0.0
C155 C 0.45236 0.65846 0.31338 0.0
C156 C 0.50095 0.65273 0.28954 0.0
C157 C 0.49445 0.69876 0.25039 0.0
C158 C 0.40059 0.48442 0.42014 0.0
N159 N 0.37908 0.49799 0.42488 0.0
C160 C 0.38892 0.45207 0.39604 0.0
C161 C 0.35497 0.43359 0.37678 0.0
C162 C 0.33318 0.4476 0.3818 0.0
C163 C 0.34576 0.48005 0.40602 0.0
C164 C 0.31709 0.48357 0.56663 0.0
C165 C 0.33889 0.54401 0.50811 0.0
C166 C 0.3459 0.49629 0.53255 0.0
N167 N 0.35629 0.52603 0.50357 0.0
C168 C 0.30997 0.53208 0.5418 0.0
C169 C 0.29902 0.50162 0.57117 0.0
C170 C 0.42906 0.62033 0.46779 0.0
C171 C 0.54641 0.61164 0.42711 0.0
C172 C 0.51704 0.65352 0.41625 0.0
C173 C 0.54949 0.66679 0.44079 0.0
C174 C 0.5642 0.64564 0.44626 0.0
N175 N 0.49978 0.62015 0.39752 0.0
C176 C 0.51405 0.59927 0.40269 0.0
Co177 Co 0.853 0.45573 0.53149 0.0
Co178 Co 0.85407 0.39752 0.62143 0.0
O179 O 0.87733 0.43857 0.57584 0.0
C180 C 0.90031 0.44827 0.45669 0.0
O181 O 0.88771 0.41662 0.47553 0.0
C182 C 0.90282 0.45298 0.69372 0.0
O183 O 0.88987 0.47191 0.67568 0.0
O184 O 0.82561 0.41537 0.65538 0.0
O185 O 0.81687 0.44421 0.58848 0.0
H186 H 0.75164 0.29725 0.7111 0.0
H187 H 0.92844 0.50081 0.552 0.0
O188 O 0.88877 0.46759 0.47398 0.0
H189 H 0.87355 0.56545 0.62305 0.0
H190 H 0.84679 0.53913 0.40113 0.0
H191 H 0.77921 0.43112 0.50519 0.0
H192 H 0.83806 0.50824 0.58022 0.0
H193 H 0.87641 0.51714 0.45962 0.0
O194 O 0.89097 0.42201 0.67691 0.0
H195 H 0.78094 0.34854 0.65186 0.0
H196 H 0.87921 0.36035 0.69178 0.0
H197 H 0.7485 0.4523 0.44755 0.0
H198 H 0.96493 0.55807 0.59413 0.0
H199 H 0.78236 0.50669 0.39502 0.0
H200 H 0.93747 0.59074 0.63016 0.0
O201 O 0.82395 0.40906 0.49917 0.0
H202 H 0.96478 0.40682 0.55246 0.0
H203 H 0.83834 0.32967 0.57341 0.0
H204 H 0.87305 0.30769 0.52847 0.0
H205 H 0.93675 0.34638 0.5178 0.0
H206 H 0.92906 0.42784 0.59676 0.0
H207 H 0.85101 0.30936 0.75179 0.0
H208 H 0.78676 0.27736 0.76156 0.0
O209 O 0.81679 0.37229 0.56655 0.0
C210 C 0.8106 0.43093 0.63556 0.0
C211 C 0.77964 0.3109 0.70701 0.0
C212 C 0.83542 0.31772 0.72991 0.0
N213 N 0.83169 0.35717 0.66797 0.0
C214 C 0.79636 0.33988 0.67341 0.0
C215 C 0.85124 0.3466 0.69595 0.0
C216 C 0.79937 0.29977 0.73536 0.0
C217 C 0.91634 0.51503 0.56708 0.0
N218 N 0.88119 0.50127 0.5634 0.0
C219 C 0.93712 0.54737 0.59111 0.0
C220 C 0.92169 0.56566 0.6114 0.0
C221 C 0.88582 0.55148 0.60746 0.0
C222 C 0.86585 0.51904 0.58326 0.0
C223 C 0.83174 0.51545 0.42393 0.0
C224 C 0.79409 0.45494 0.48273 0.0
C225 C 0.84837 0.50285 0.45703 0.0
N226 N 0.82952 0.47307 0.48616 0.0
C227 C 0.77657 0.46674 0.45004 0.0
C228 C 0.79559 0.49724 0.42053 0.0
C229 C 0.80948 0.37875 0.51984 0.0
C230 C 0.93706 0.38968 0.55702 0.0
C231 C 0.86604 0.34669 0.56883 0.0
C232 C 0.88557 0.33407 0.54345 0.0
C233 C 0.92131 0.35578 0.53751 0.0
N234 N 0.88169 0.37996 0.58792 0.0
C235 C 0.91672 0.40139 0.58229 0.0
Co236 Co 0.39707 0.85414 0.70423 0.0
Co237 Co 0.45891 0.85412 0.78834 0.0
O238 O 0.43965 0.87749 0.74624 0.0
C239 C 0.45126 0.89899 0.62673 0.0
O240 O 0.4699 0.88595 0.64561 0.0
C241 C 0.45007 0.89945 0.86531 0.0
O242 O 0.41834 0.88649 0.84668 0.0
O243 O 0.41297 0.8226 0.82178 0.0
O244 O 0.37286 0.8197 0.76328 0.0
H245 H 0.46277 0.75153 0.86539 0.0
H246 H 0.43176 0.93012 0.72329 0.0
O247 O 0.42078 0.88852 0.64491 0.0
H248 H 0.31385 0.88232 0.7986 0.0
H249 H 0.30668 0.85056 0.5783 0.0
H250 H 0.34425 0.78074 0.68268 0.0
H251 H 0.33168 0.84389 0.75472 0.0
H252 H 0.3599 0.87908 0.63342 0.0
O253 O 0.46991 0.88876 0.84717 0.0
H254 H 0.43846 0.78078 0.81109 0.0
H255 H 0.52146 0.87943 0.858 0.0
H256 H 0.2907 0.75114 0.62845 0.0
H257 H 0.41495 0.96955 0.76636 0.0
H258 H 0.27161 0.78613 0.57577 0.0
H259 H 0.35566 0.94566 0.80459 0.0
O260 O 0.41159 0.82253 0.67102 0.0
H261 H 0.55678 0.9691 0.72514 0.0
H262 H 0.51284 0.84304 0.73538 0.0
H263 H 0.56885 0.88106 0.6905 0.0
H264 H 0.59116 0.94458 0.68517 0.0
H265 H 0.5008 0.93013 0.76934 0.0
H266 H 0.54657 0.85127 0.91315 0.0
H267 H 0.51723 0.78686 0.91692 0.0
O268 O 0.4481 0.81927 0.73032 0.0
C269 C 0.38158 0.81044 0.80645 0.0
C270 C 0.47586 0.77961 0.86396 0.0
C271 C 0.52286 0.83559 0.89082 0.0
N272 N 0.47864 0.83174 0.83111 0.0
C273 C 0.46225 0.79631 0.83318 0.0
C274 C 0.50848 0.85139 0.85963 0.0
C275 C 0.50639 0.79945 0.8929 0.0
C276 C 0.40582 0.91957 0.73943 0.0
N277 N 0.38272 0.88473 0.73652 0.0
C278 C 0.39649 0.94201 0.76394 0.0
C279 C 0.36323 0.92858 0.78544 0.0
C280 C 0.33978 0.89304 0.78215 0.0
C281 C 0.35004 0.87138 0.75744 0.0
C282 C 0.3147 0.83503 0.60115 0.0
C283 C 0.33597 0.79613 0.66012 0.0
C284 C 0.34484 0.85103 0.63233 0.0
N285 N 0.35499 0.83157 0.66154 0.0
C286 C 0.30569 0.77923 0.62937 0.0
C287 C 0.29502 0.79888 0.59977 0.0
C288 C 0.43045 0.81006 0.68695 0.0
C289 C 0.54739 0.94148 0.72737 0.0
C290 C 0.52238 0.87066 0.73324 0.0
C291 C 0.55413 0.89206 0.70783 0.0
C292 C 0.56664 0.9277 0.70488 0.0
N293 N 0.50367 0.88438 0.75525 0.0
C294 C 0.51579 0.9193 0.75257 0.0
Co295 Co 0.60238 0.45568 0.95599 0.0
Co296 Co 0.54323 0.39672 0.86671 0.0
O297 O 0.56082 0.43795 0.9117 0.0
C298 C 0.54729 0.44732 0.03073 0.0
O299 O 0.52872 0.41564 0.01184 0.0
C300 C 0.55005 0.45181 0.79327 0.0
O301 O 0.58179 0.47085 0.81171 0.0
O302 O 0.58961 0.41445 0.83302 0.0
O303 O 0.62732 0.44457 0.89907 0.0
H304 H 0.5458 0.29609 0.77937 0.0
H305 H 0.57096 0.49983 0.93523 0.0
O306 O 0.57807 0.46708 0.01346 0.0
H307 H 0.69028 0.56581 0.86359 0.0
H308 H 0.6914 0.54012 0.08573 0.0
H309 H 0.65246 0.43219 0.98241 0.0
H310 H 0.66943 0.5088 0.90686 0.0
H311 H 0.63966 0.51731 0.02747 0.0
O312 O 0.53088 0.4209 0.81042 0.0
H313 H 0.56759 0.34769 0.83771 0.0
H314 H 0.4811 0.35911 0.79631 0.0
H315 H 0.7045 0.45421 0.03983 0.0
H316 H 0.59085 0.55686 0.89265 0.0
H317 H 0.72427 0.50856 0.09198 0.0
H318 H 0.65087 0.59021 0.85632 0.0
O319 O 0.58549 0.40917 0.98866 0.0
H320 H 0.44167 0.40623 0.93427 0.0
H321 H 0.49113 0.32908 0.91551 0.0
H322 H 0.43442 0.3073 0.96033 0.0
H323 H 0.40933 0.34599 0.96992 0.0
H324 H 0.49842 0.42705 0.89008 0.0
H325 H 0.4585 0.30779 0.73716 0.0
H326 H 0.49087 0.27583 0.7286 0.0
O327 O 0.55525 0.37182 0.92233 0.0
C328 C 0.62025 0.43068 0.85244 0.0
C329 C 0.53139 0.30971 0.78293 0.0
C330 C 0.48241 0.31631 0.75918 0.0
N331 N 0.52544 0.35614 0.82081 0.0
C332 C 0.54354 0.33887 0.81603 0.0
C333 C 0.49536 0.34537 0.79265 0.0
C334 C 0.50059 0.29839 0.75441 0.0
C335 C 0.59723 0.51434 0.92002 0.0
N336 N 0.61905 0.50108 0.92379 0.0
C337 C 0.6083 0.54656 0.89574 0.0
C338 C 0.64196 0.56522 0.87528 0.0
C339 C 0.66408 0.55154 0.87931 0.0
C340 C 0.6521 0.51921 0.90376 0.0
C341 C 0.68309 0.51646 0.0631 0.0
C342 C 0.66106 0.45599 0.0047 0.0
C343 C 0.65379 0.50339 0.03012 0.0
N344 N 0.64328 0.47364 0.0012 0.0
C345 C 0.69047 0.46827 0.03727 0.0
C346 C 0.70153 0.49874 0.06657 0.0
C347 C 0.56946 0.37868 0.9687 0.0
C348 C 0.45228 0.38909 0.93017 0.0
C349 C 0.4804 0.3461 0.91958 0.0
C350 C 0.44825 0.33359 0.94492 0.0
C351 C 0.43418 0.35531 0.95025 0.0
N352 N 0.49799 0.37926 0.89996 0.0
C353 C 0.48433 0.40069 0.90497 0.0
H354 H 0.06853 0.58529 0.91316 0.0
H355 H 0.93613 0.42118 0.73736 0.0
H356 H 0.06957 0.48872 0.90491 0.0
H357 H 0.93644 0.51854 0.73727 0.0
H358 H 0.98496 0.44594 0.79943 0.0
H359 H 0.02036 0.56189 0.84893 0.0
C360 C 0.05879 0.55927 0.89765 0.0
C361 C 0.07314 0.53895 0.91441 0.0
C362 C 0.97439 0.46195 0.78592 0.0
C363 C 0.01795 0.51199 0.8413 0.0
C364 C 0.94641 0.44778 0.75048 0.0
C365 C 0.93207 0.46778 0.73216 0.0
C366 C 0.98825 0.49642 0.80338 0.0
C367 C 0.94661 0.50214 0.75051 0.0
C368 C 0.03125 0.54592 0.86109 0.0
C369 C 0.05935 0.50535 0.89319 0.0
N370 N 0.97392 0.51539 0.78518 0.0
N371 N 0.03253 0.49295 0.85789 0.0
H372 H 0.5141 0.93152 0.91257 0.0
H373 H 0.48049 0.06431 0.08446 0.0
H374 H 0.41729 0.93231 0.90872 0.0
H375 H 0.57782 0.06453 0.08113 0.0
H376 H 0.45624 0.01555 0.0213 0.0
H377 H 0.53709 0.97959 0.97607 0.0
C378 C 0.49759 0.94172 0.92522 0.0
C379 C 0.46367 0.9278 0.90531 0.0
C380 C 0.48291 0.02634 0.03437 0.0
C381 C 0.48999 0.98312 0.97809 0.0
C382 C 0.4968 0.05421 0.07034 0.0
C383 C 0.53127 0.06859 0.08802 0.0
C384 C 0.50364 0.01276 0.01609 0.0
C385 C 0.55113 0.05435 0.06858 0.0
C386 C 0.51079 0.96926 0.96148 0.0
C387 C 0.44355 0.94216 0.92316 0.0
N388 N 0.53702 0.02725 0.03375 0.0
N389 N 0.45704 0.96909 0.95853 0.0
H390 H 0.51237 0.57898 0.24663 0.0
H391 H 0.48162 0.41392 0.07389 0.0
H392 H 0.41649 0.4806 0.25011 0.0
H393 H 0.57827 0.51155 0.07756 0.0
H394 H 0.45689 0.43759 0.13775 0.0
H395 H 0.5364 0.55452 0.18365 0.0
C396 C 0.4963 0.55222 0.23406 0.0
C397 C 0.4623 0.53184 0.25364 0.0
C398 C 0.48352 0.45377 0.12465 0.0
C399 C 0.4898 0.50356 0.1814 0.0
C400 C 0.49769 0.44027 0.08825 0.0
C401 C 0.53211 0.46076 0.0704 0.0
C402 C 0.5039 0.48803 0.14322 0.0
C403 C 0.55164 0.49477 0.09021 0.0
C404 C 0.51009 0.53824 0.19809 0.0
C405 C 0.44279 0.4973 0.23594 0.0
N406 N 0.53725 0.50731 0.12545 0.0
N407 N 0.45682 0.48424 0.2008 0.0
H408 H 0.93249 0.51262 0.41017 0.0
H409 H 0.06534 0.48007 0.23602 0.0
H410 H 0.93378 0.41609 0.41331 0.0
H411 H 0.06569 0.5774 0.24124 0.0
H412 H 0.01686 0.45558 0.29992 0.0
H413 H 0.98074 0.53606 0.34675 0.0
C414 C 0.94285 0.49627 0.39741 0.0
C415 C 0.92899 0.46228 0.41706 0.0
C416 C 0.02764 0.48232 0.28713 0.0
C417 C 0.98451 0.48912 0.34433 0.0
C418 C 0.05535 0.49634 0.25074 0.0
C419 C 0.06967 0.53088 0.23331 0.0
C420 C 0.01413 0.50297 0.3061 0.0
C421 C 0.05555 0.55067 0.25354 0.0
C422 C 0.97049 0.50973 0.3612 0.0
C423 C 0.94358 0.4424 0.39909 0.0
N424 N 0.02859 0.53642 0.28874 0.0
N425 N 0.97058 0.45612 0.36373 0.0
H426 H 0.485 0.06471 0.40977 0.0
H427 H 0.51675 0.93108 0.58288 0.0
H428 H 0.58134 0.063 0.40686 0.0
H429 H 0.41983 0.93164 0.57925 0.0
H430 H 0.54118 0.97928 0.51863 0.0
H431 H 0.46114 0.01611 0.47256 0.0
C432 C 0.50121 0.05418 0.42243 0.0
C433 C 0.53529 0.06805 0.40309 0.0
C434 C 0.51454 0.96876 0.5318 0.0
C435 C 0.50799 0.01215 0.47507 0.0
C436 C 0.50055 0.94119 0.5684 0.0
C437 C 0.46616 0.92724 0.58643 0.0
C438 C 0.49402 0.9825 0.51322 0.0
C439 C 0.44645 0.94152 0.56649 0.0
C440 C 0.48752 0.02634 0.45828 0.0
C441 C 0.55498 0.05321 0.42087 0.0
N442 N 0.46068 0.96836 0.53107 0.0
N443 N 0.54104 0.02605 0.45589 0.0
H444 H 0.48556 0.4196 0.74742 0.0
H445 H 0.51809 0.58454 0.5723 0.0
H446 H 0.58211 0.51737 0.74963 0.0
H447 H 0.42093 0.48742 0.57705 0.0
H448 H 0.54251 0.56066 0.63636 0.0
H449 H 0.46205 0.4442 0.6838 0.0
C450 C 0.50188 0.44625 0.73444 0.0
C451 C 0.53591 0.46643 0.75386 0.0
C452 C 0.51583 0.54464 0.62342 0.0
C453 C 0.50902 0.49486 0.68087 0.0
C454 C 0.50185 0.55826 0.58691 0.0
C455 C 0.46738 0.53798 0.56934 0.0
C456 C 0.4952 0.51048 0.64239 0.0
C457 C 0.44761 0.50404 0.58947 0.0
C458 C 0.4884 0.46031 0.6981 0.0
C459 C 0.55577 0.50083 0.73561 0.0
N460 N 0.46182 0.4914 0.62482 0.0
N461 N 0.54202 0.51397 0.70012 0.0
H462 H 0.23432 0.54752 0.10277 0.0
H463 H 0.31535 0.55853 0.39171 0.0
H464 H 0.20312 0.58357 0.24181 0.0
H465 H 0.37271 0.57226 0.24477 0.0
H466 H 0.26821 0.55741 0.33913 0.0
H467 H 0.27948 0.54611 0.15655 0.0
C468 C 0.23682 0.555 0.14467 0.0
C469 C 0.21495 0.56585 0.16775 0.0
C470 C 0.29114 0.56063 0.31856 0.0
C471 C 0.26647 0.56392 0.22952 0.0
C472 C 0.31795 0.56108 0.3484 0.0
C473 C 0.34805 0.56558 0.32254 0.0
C474 C 0.29418 0.56402 0.26246 0.0
C475 C 0.35006 0.56893 0.26635 0.0
C476 C 0.26272 0.5543 0.17521 0.0
C477 C 0.21953 0.57525 0.2223 0.0
N478 N 0.32339 0.56789 0.23814 0.0
N479 N 0.24472 0.57391 0.25148 0.0
H480 H 0.68407 0.23796 0.26745 0.0
H481 H 0.75936 0.31517 0.55689 0.0
H482 H 0.62224 0.20027 0.41201 0.0
H483 H 0.79791 0.3757 0.4113 0.0
H484 H 0.71379 0.26774 0.50444 0.0
H485 H 0.73111 0.28364 0.32017 0.0
C486 C 0.68042 0.23914 0.3103 0.0
C487 C 0.64908 0.21532 0.33533 0.0
C488 C 0.73227 0.29142 0.4841 0.0
C489 C 0.70293 0.26736 0.39574 0.0
C490 C 0.75837 0.31845 0.51389 0.0
C491 C 0.78241 0.34952 0.48844 0.0
C492 C 0.73057 0.29526 0.42839 0.0
C493 C 0.77979 0.3523 0.43261 0.0
C494 C 0.70724 0.26532 0.34024 0.0
C495 C 0.64586 0.21821 0.39101 0.0
N496 N 0.75441 0.32544 0.40439 0.0
N497 N 0.67253 0.2437 0.41941 0.0
H498 H 0.4509 0.7641 0.7184 0.0
H499 H 0.43699 0.68173 0.42982 0.0
H500 H 0.41291 0.79429 0.58064 0.0
H501 H 0.42482 0.62503 0.57689 0.0
H502 H 0.43806 0.72883 0.48249 0.0
H503 H 0.45148 0.7185 0.66459 0.0
C504 C 0.44281 0.76127 0.67678 0.0
C505 C 0.43169 0.783 0.65405 0.0
C506 C 0.43516 0.70604 0.50305 0.0
C507 C 0.43267 0.73101 0.59225 0.0
C508 C 0.43473 0.67925 0.47316 0.0
C509 C 0.43074 0.64937 0.49905 0.0
C510 C 0.43228 0.70319 0.55922 0.0
C511 C 0.42776 0.6475 0.55529 0.0
C512 C 0.44303 0.73513 0.64622 0.0
C513 C 0.42147 0.778 0.59986 0.0
N514 N 0.42881 0.67416 0.58355 0.0
N515 N 0.42237 0.7526 0.57064 0.0
H516 H 0.62135 0.42118 0.74379 0.0
H517 H 0.80081 0.42266 0.74454 0.0
H518 H 0.68477 0.44508 0.88626 0.0
H519 H 0.75957 0.44388 0.60141 0.0
H520 H 0.75532 0.42455 0.7975 0.0
H521 H 0.66876 0.42316 0.69086 0.0
C522 C 0.64523 0.42688 0.76395 0.0
C523 C 0.64907 0.43293 0.81958 0.0
C524 C 0.7564 0.42895 0.75453 0.0
C525 C 0.70317 0.43486 0.75931 0.0
C526 C 0.78223 0.42774 0.72424 0.0
C527 C 0.78398 0.43308 0.66842 0.0
C528 C 0.73177 0.4349 0.72871 0.0
C529 C 0.75929 0.43971 0.64433 0.0
C530 C 0.67229 0.42813 0.73366 0.0
C531 C 0.68069 0.44034 0.84348 0.0
N532 N 0.734 0.44013 0.67456 0.0
N533 N 0.70642 0.44079 0.81328 0.0
H534 H 0.38473 0.76119 0.86791 0.0
H535 H 0.20073 0.68512 0.00466 0.0
H536 H 0.31505 0.79764 0.82028 0.0
H537 H 0.24071 0.61817 0.9583 0.0
H538 H 0.2477 0.73263 0.95343 0.0
H539 H 0.33727 0.71422 0.91895 0.0
C540 C 0.35956 0.7595 0.86855 0.0
C541 C 0.35374 0.78324 0.83968 0.0
C542 C 0.24601 0.70745 0.95455 0.0
C543 C 0.29979 0.7301 0.8984 0.0
C544 C 0.21939 0.68045 0.98382 0.0
C545 C 0.21684 0.64769 0.98558 0.0
C546 C 0.27073 0.70186 0.92831 0.0
C547 C 0.24163 0.64296 0.95765 0.0
C548 C 0.33253 0.73262 0.89734 0.0
C549 C 0.32054 0.77974 0.84169 0.0
N550 N 0.26785 0.66991 0.93063 0.0
N551 N 0.29481 0.75377 0.87098 0.0
H552 H 0.55537 0.31464 0.93303 0.0
H553 H 0.55572 0.23969 0.2237 0.0
H554 H 0.57921 0.37665 0.07712 0.0
H555 H 0.57776 0.20025 0.07923 0.0
H556 H 0.55458 0.28537 0.17038 0.0
H557 H 0.55386 0.26762 0.98631 0.0
C558 C 0.56013 0.31834 0.97588 0.0
C559 C 0.56756 0.34971 0.00064 0.0
C560 C 0.55964 0.26667 0.15047 0.0
C561 C 0.56554 0.29589 0.06169 0.0
C562 C 0.56014 0.2405 0.18076 0.0
C563 C 0.56697 0.21616 0.1559 0.0
C564 C 0.5654 0.26818 0.09482 0.0
C565 C 0.57261 0.21859 0.10011 0.0
C566 C 0.5594 0.29154 0.00615 0.0
C567 C 0.5736 0.35301 0.05632 0.0
N568 N 0.57154 0.24406 0.07137 0.0
N569 N 0.57229 0.32636 0.08503 0.0
loop_
_geom_bond_atom_site_label_1
_geom_bond_atom_site_label_2
_geom_bond_distance
_geom_bond_site_symmetry_2
_ccdc_geom_bond_type
Co0 O2 2.143 . S
Co0 O8 2.074 . S
Co0 O11 2.093 1_554 S
Co0 O24 2.097 . S
Co0 N41 2.151 . S
Co0 N49 2.214 1_554 S
Co1 O2 2.160 . S
Co1 O7 2.058 . S
Co1 O17 2.057 . S
Co1 O32 2.037 . S
Co1 N36 2.145 . S
Co1 N57 2.257 . S
O2 Co0 2.143 . S
O2 Co1 2.160 . S
C3 O4 1.278 1_556 S
C3 O11 1.224 . S
O4 C3 1.278 1_554 S
C5 O6 1.245 . S
C5 O17 1.232 . S
O6 C5 1.245 . S
O7 Co1 2.058 . S
O7 C33 1.269 . S
O8 Co0 2.074 . S
O8 C33 1.257 . S
H9 C34 0.930 . S
H10 C40 0.930 . S
O11 Co0 2.093 1_556 S
O11 C3 1.224 . S
H12 C44 0.929 . S
H13 C46 0.930 . S
H14 C47 0.930 . S
H15 C45 0.929 . S
H16 C48 0.928 . S
O17 Co1 2.057 . S
O17 C5 1.232 . S
H18 C37 0.929 . S
H19 C38 0.929 . S
H20 C50 0.931 . S
H21 C42 0.929 . S
H22 C51 0.930 . S
H23 C43 0.931 . S
O24 Co0 2.097 . S
O24 C52 1.214 . S
H25 C53 0.929 . S
H26 C54 0.929 . S
H27 C55 0.930 . S
H28 C56 0.929 . S
H29 C58 0.930 . S
H30 C35 0.930 . S
H31 C39 0.930 . S
O32 Co1 2.037 . S
O32 C52 1.234 . S
C33 O7 1.269 . S
C33 O8 1.257 . S
C34 H9 0.930 . S
C34 C37 1.388 . S
C34 C39 1.418 . S
C35 H30 0.930 . S
C35 C38 1.404 . S
C35 C39 1.353 . S
N36 Co1 2.145 . S
N36 C37 1.397 . S
N36 C38 1.334 . S
C37 H18 0.929 . S
C37 C34 1.388 . S
C37 N36 1.397 . S
C38 H19 0.929 . S
C38 C35 1.404 . S
C38 N36 1.334 . S
C39 H31 0.930 . S
C39 C34 1.418 . S
C39 C35 1.353 . S
C40 H10 0.930 . S
C40 N41 1.330 . S
C40 C42 1.446 . S
N41 Co0 2.151 . S
N41 C40 1.330 . S
N41 C45 1.418 . S
C42 H21 0.929 . S
C42 C40 1.446 . S
C42 C43 1.332 . S
C43 H23 0.931 . S
C43 C42 1.332 . S
C43 C44 1.267 . S
C44 H12 0.929 . S
C44 C43 1.267 . S
C44 C45 1.251 . S
C45 H15 0.929 . S
C45 N41 1.418 . S
C45 C44 1.251 . S
C46 H13 0.930 . S
C46 C48 1.406 . S
C46 C51 1.261 . S
C47 H14 0.930 . S
C47 N49 1.325 . S
C47 C50 1.357 . S
C48 H16 0.928 . S
C48 C46 1.406 . S
C48 N49 1.261 . S
N49 Co0 2.214 1_556 S
N49 C47 1.325 . S
N49 C48 1.261 . S
C50 H20 0.931 . S
C50 C47 1.357 . S
C50 C51 1.312 . S
C51 H22 0.930 . S
C51 C46 1.261 . S
C51 C50 1.312 . S
C52 O24 1.214 . S
C52 O32 1.234 . S
C53 H25 0.929 . S
C53 C56 1.391 . S
C53 C58 1.391 . S
C54 H26 0.929 . S
C54 C55 1.390 . S
C54 N57 1.391 . S
C55 H27 0.930 . S
C55 C54 1.390 . S
C55 C56 1.392 . S
C56 H28 0.929 . S
C56 C53 1.391 . S
C56 C55 1.392 . S
N57 Co1 2.257 . S
N57 C54 1.391 . S
N57 C58 1.388 . S
C58 H29 0.930 . S
C58 C53 1.391 . S
C58 N57 1.388 . S
Co59 O61 2.143 . S
Co59 O67 2.074 . S
Co59 O70 2.093 . S
Co59 O83 2.097 . S
Co59 N100 2.151 . S
Co59 N108 2.214 . S
Co60 O61 2.160 . S
Co60 O66 2.058 . S
Co60 O76 2.057 . S
Co60 O91 2.037 . S
Co60 N95 2.145 . S
Co60 N116 2.257 . S
O61 Co59 2.143 . S
O61 Co60 2.160 . S
C62 O63 1.278 . S
C62 O70 1.224 . S
O63 C62 1.278 . S
C64 O65 1.245 . S
C64 O76 1.232 . S
O65 C64 1.245 . S
O66 Co60 2.058 . S
O66 C92 1.269 . S
O67 Co59 2.074 . S
O67 C92 1.257 . S
H68 C93 0.930 . S
H69 C99 0.930 . S
O70 Co59 2.093 . S
O70 C62 1.224 . S
H71 C103 0.929 . S
H72 C105 0.930 . S
H73 C106 0.930 . S
H74 C104 0.929 . S
H75 C107 0.928 . S
O76 Co60 2.057 . S
O76 C64 1.232 . S
H77 C96 0.929 . S
H78 C97 0.929 . S
H79 C109 0.931 . S
H80 C101 0.929 . S
H81 C110 0.930 . S
H82 C102 0.931 . S
O83 Co59 2.097 . S
O83 C111 1.214 . S
H84 C112 0.929 . S
H85 C113 0.929 . S
H86 C114 0.930 . S
H87 C115 0.929 . S
H88 C117 0.930 . S
H89 C94 0.930 . S
H90 C98 0.930 . S
O91 Co60 2.037 . S
O91 C111 1.234 . S
C92 O66 1.269 . S
C92 O67 1.257 . S
C93 H68 0.930 . S
C93 C96 1.388 . S
C93 C98 1.418 . S
C94 H89 0.930 . S
C94 C97 1.404 . S
C94 C98 1.353 . S
N95 Co60 2.145 . S
N95 C96 1.397 . S
N95 C97 1.334 . S
C96 H77 0.929 . S
C96 C93 1.388 . S
C96 N95 1.397 . S
C97 H78 0.929 . S
C97 C94 1.404 . S
C97 N95 1.334 . S
C98 H90 0.930 . S
C98 C93 1.418 . S
C98 C94 1.353 . S
C99 H69 0.930 . S
C99 N100 1.330 . S
C99 C101 1.446 . S
N100 Co59 2.151 . S
N100 C99 1.330 . S
N100 C104 1.418 . S
C101 H80 0.929 . S
C101 C99 1.446 . S
C101 C102 1.332 . S
C102 H82 0.931 . S
C102 C101 1.332 . S
C102 C103 1.267 . S
C103 H71 0.929 . S
C103 C102 1.267 . S
C103 C104 1.251 . S
C104 H74 0.929 . S
C104 N100 1.418 . S
C104 C103 1.251 . S
C105 H72 0.930 . S
C105 C107 1.406 . S
C105 C110 1.261 . S
C106 H73 0.930 . S
C106 N108 1.325 . S
C106 C109 1.357 . S
C107 H75 0.928 . S
C107 C105 1.406 . S
C107 N108 1.261 . S
N108 Co59 2.214 . S
N108 C106 1.325 . S
N108 C107 1.261 . S
C109 H79 0.931 . S
C109 C106 1.357 . S
C109 C110 1.312 . S
C110 H81 0.930 . S
C110 C105 1.261 . S
C110 C109 1.312 . S
C111 O83 1.214 . S
C111 O91 1.234 . S
C112 H84 0.929 . S
C112 C115 1.391 . S
C112 C117 1.391 . S
C113 H85 0.929 . S
C113 C114 1.390 . S
C113 N116 1.391 . S
C114 H86 0.930 . S
C114 C113 1.390 . S
C114 C115 1.392 . S
C115 H87 0.929 . S
C115 C112 1.391 . S
C115 C114 1.392 . S
N116 Co60 2.257 . S
N116 C113 1.391 . S
N116 C117 1.388 . S
C117 H88 0.930 . S
C117 C112 1.391 . S
C117 N116 1.388 . S
Co118 O120 2.143 . S
Co118 O126 2.074 . S
Co118 O129 2.093 . S
Co118 O142 2.097 . S
Co118 N159 2.151 . S
Co118 N167 2.214 . S
Co119 O120 2.160 . S
Co119 O125 2.058 . S
Co119 O135 2.057 . S
Co119 O150 2.037 . S
Co119 N154 2.145 . S
Co119 N175 2.257 . S
O120 Co118 2.143 . S
O120 Co119 2.160 . S
C121 O122 1.278 . S
C121 O129 1.224 . S
O122 C121 1.278 . S
C123 O124 1.245 . S
C123 O135 1.232 . S
O124 C123 1.245 . S
O125 Co119 2.058 . S
O125 C151 1.269 . S
O126 Co118 2.074 . S
O126 C151 1.257 . S
H127 C152 0.930 . S
H128 C158 0.930 . S
O129 Co118 2.093 . S
O129 C121 1.224 . S
H130 C162 0.929 . S
H131 C164 0.930 . S
H132 C165 0.930 . S
H133 C163 0.929 . S
H134 C166 0.928 . S
O135 Co119 2.057 . S
O135 C123 1.232 . S
H136 C155 0.929 . S
H137 C156 0.929 . S
H138 C168 0.931 . S
H139 C160 0.929 . S
H140 C169 0.930 . S
H141 C161 0.931 . S
O142 Co118 2.097 . S
O142 C170 1.214 . S
H143 C171 0.929 . S
H144 C172 0.929 . S
H145 C173 0.930 . S
H146 C174 0.929 . S
H147 C176 0.930 . S
H148 C153 0.930 . S
H149 C157 0.930 . S
O150 Co119 2.037 . S
O150 C170 1.234 . S
C151 O125 1.269 . S
C151 O126 1.257 . S
C152 H127 0.930 . S
C152 C155 1.388 . S
C152 C157 1.418 . S
C153 H148 0.930 . S
C153 C156 1.404 . S
C153 C157 1.353 . S
N154 Co119 2.145 . S
N154 C155 1.397 . S
N154 C156 1.334 . S
C155 H136 0.929 . S
C155 C152 1.388 . S
C155 N154 1.397 . S
C156 H137 0.929 . S
C156 C153 1.404 . S
C156 N154 1.334 . S
C157 H149 0.930 . S
C157 C152 1.418 . S
C157 C153 1.353 . S
C158 H128 0.930 . S
C158 N159 1.330 . S
C158 C160 1.446 . S
N159 Co118 2.151 . S
N159 C158 1.330 . S
N159 C163 1.418 . S
C160 H139 0.929 . S
C160 C158 1.446 . S
C160 C161 1.332 . S
C161 H141 0.931 . S
C161 C160 1.332 . S
C161 C162 1.267 . S
C162 H130 0.929 . S
C162 C161 1.267 . S
C162 C163 1.251 . S
C163 H133 0.929 . S
C163 N159 1.418 . S
C163 C162 1.251 . S
C164 H131 0.930 . S
C164 C166 1.406 . S
C164 C169 1.261 . S
C165 H132 0.930 . S
C165 N167 1.325 . S
C165 C168 1.357 . S
C166 H134 0.928 . S
C166 C164 1.406 . S
C166 N167 1.261 . S
N167 Co118 2.214 . S
N167 C165 1.325 . S
N167 C166 1.261 . S
C168 H138 0.931 . S
C168 C165 1.357 . S
C168 C169 1.312 . S
C169 H140 0.930 . S
C169 C164 1.261 . S
C169 C168 1.312 . S
C170 O142 1.214 . S
C170 O150 1.234 . S
C171 H143 0.929 . S
C171 C174 1.391 . S
C171 C176 1.391 . S
C172 H144 0.929 . S
C172 C173 1.390 . S
C172 N175 1.391 . S
C173 H145 0.930 . S
C173 C172 1.390 . S
C173 C174 1.392 . S
C174 H146 0.929 . S
C174 C171 1.391 . S
C174 C173 1.392 . S
N175 Co119 2.257 . S
N175 C172 1.391 . S
N175 C176 1.388 . S
C176 H147 0.930 . S
C176 C171 1.391 . S
C176 N175 1.388 . S
Co177 O179 2.143 . S
Co177 O185 2.074 . S
Co177 O188 2.093 . S
Co177 O201 2.097 . S
Co177 N218 2.151 . S
Co177 N226 2.214 . S
Co178 O179 2.160 . S
Co178 O184 2.058 . S
Co178 O194 2.057 . S
Co178 O209 2.037 . S
Co178 N213 2.145 . S
Co178 N234 2.257 . S
O179 Co177 2.143 . S
O179 Co178 2.160 . S
C180 O181 1.278 . S
C180 O188 1.224 . S
O181 C180 1.278 . S
C182 O183 1.245 . S
C182 O194 1.232 . S
O183 C182 1.245 . S
O184 Co178 2.058 . S
O184 C210 1.269 . S
O185 Co177 2.074 . S
O185 C210 1.257 . S
H186 C211 0.930 . S
H187 C217 0.930 . S
O188 Co177 2.093 . S
O188 C180 1.224 . S
H189 C221 0.929 . S
H190 C223 0.930 . S
H191 C224 0.930 . S
H192 C222 0.929 . S
H193 C225 0.928 . S
O194 Co178 2.057 . S
O194 C182 1.232 . S
H195 C214 0.929 . S
H196 C215 0.929 . S
H197 C227 0.931 . S
H198 C219 0.929 . S
H199 C228 0.930 . S
H200 C220 0.931 . S
O201 Co177 2.097 . S
O201 C229 1.214 . S
H202 C230 0.929 . S
H203 C231 0.929 . S
H204 C232 0.930 . S
H205 C233 0.929 . S
H206 C235 0.930 . S
H207 C212 0.930 . S
H208 C216 0.930 . S
O209 Co178 2.037 . S
O209 C229 1.234 . S
C210 O184 1.269 . S
C210 O185 1.257 . S
C211 H186 0.930 . S
C211 C214 1.388 . S
C211 C216 1.418 . S
C212 H207 0.930 . S
C212 C215 1.404 . S
C212 C216 1.353 . S
N213 Co178 2.145 . S
N213 C214 1.397 . S
N213 C215 1.334 . S
C214 H195 0.929 . S
C214 C211 1.388 . S
C214 N213 1.397 . S
C215 H196 0.929 . S
C215 C212 1.404 . S
C215 N213 1.334 . S
C216 H208 0.930 . S
C216 C211 1.418 . S
C216 C212 1.353 . S
C217 H187 0.930 . S
C217 N218 1.330 . S
C217 C219 1.446 . S
N218 Co177 2.151 . S
N218 C217 1.330 . S
N218 C222 1.418 . S
C219 H198 0.929 . S
C219 C217 1.446 . S
C219 C220 1.332 . S
C220 H200 0.931 . S
C220 C219 1.332 . S
C220 C221 1.267 . S
C221 H189 0.929 . S
C221 C220 1.267 . S
C221 C222 1.251 . S
C222 H192 0.929 . S
C222 N218 1.418 . S
C222 C221 1.251 . S
C223 H190 0.930 . S
C223 C225 1.406 . S
C223 C228 1.261 . S
C224 H191 0.930 . S
C224 N226 1.325 . S
C224 C227 1.357 . S
C225 H193 0.928 . S
C225 C223 1.406 . S
C225 N226 1.261 . S
N226 Co177 2.214 . S
N226 C224 1.325 . S
N226 C225 1.261 . S
C227 H197 0.931 . S
C227 C224 1.357 . S
C227 C228 1.312 . S
C228 H199 0.930 . S
C228 C223 1.261 . S
C228 C227 1.312 . S
C229 O201 1.214 . S
C229 O209 1.234 . S
C230 H202 0.929 . S
C230 C233 1.391 . S
C230 C235 1.391 . S
C231 H203 0.929 . S
C231 C232 1.390 . S
C231 N234 1.391 . S
C232 H204 0.930 . S
C232 C231 1.390 . S
C232 C233 1.392 . S
C233 H205 0.929 . S
C233 C230 1.391 . S
C233 C232 1.392 . S
N234 Co178 2.257 . S
N234 C231 1.391 . S
N234 C235 1.388 . S
C235 H206 0.930 . S
C235 C230 1.391 . S
C235 N234 1.388 . S
Co236 O238 2.143 . S
Co236 O244 2.074 . S
Co236 O247 2.093 . S
Co236 O260 2.097 . S
Co236 N277 2.151 . S
Co236 N285 2.214 . S
Co237 O238 2.160 . S
Co237 O243 2.058 . S
Co237 O253 2.057 . S
Co237 O268 2.037 . S
Co237 N272 2.145 . S
Co237 N293 2.257 . S
O238 Co236 2.143 . S
O238 Co237 2.160 . S
C239 O240 1.278 . S
C239 O247 1.224 . S
O240 C239 1.278 . S
C241 O242 1.245 . S
C241 O253 1.232 . S
O242 C241 1.245 . S
O243 Co237 2.058 . S
O243 C269 1.269 . S
O244 Co236 2.074 . S
O244 C269 1.257 . S
H245 C270 0.930 . S
H246 C276 0.930 . S
O247 Co236 2.093 . S
O247 C239 1.224 . S
H248 C280 0.929 . S
H249 C282 0.930 . S
H250 C283 0.930 . S
H251 C281 0.929 . S
H252 C284 0.928 . S
O253 Co237 2.057 . S
O253 C241 1.232 . S
H254 C273 0.929 . S
H255 C274 0.929 . S
H256 C286 0.931 . S
H257 C278 0.929 . S
H258 C287 0.930 . S
H259 C279 0.931 . S
O260 Co236 2.097 . S
O260 C288 1.214 . S
H261 C289 0.929 . S
H262 C290 0.929 . S
H263 C291 0.930 . S
H264 C292 0.929 . S
H265 C294 0.930 . S
H266 C271 0.930 . S
H267 C275 0.930 . S
O268 Co237 2.037 . S
O268 C288 1.234 . S
C269 O243 1.269 . S
C269 O244 1.257 . S
C270 H245 0.930 . S
C270 C273 1.388 . S
C270 C275 1.418 . S
C271 H266 0.930 . S
C271 C274 1.404 . S
C271 C275 1.353 . S
N272 Co237 2.145 . S
N272 C273 1.397 . S
N272 C274 1.334 . S
C273 H254 0.929 . S
C273 C270 1.388 . S
C273 N272 1.397 . S
C274 H255 0.929 . S
C274 C271 1.404 . S
C274 N272 1.334 . S
C275 H267 0.930 . S
C275 C270 1.418 . S
C275 C271 1.353 . S
C276 H246 0.930 . S
C276 N277 1.330 . S
C276 C278 1.446 . S
N277 Co236 2.151 . S
N277 C276 1.330 . S
N277 C281 1.418 . S
C278 H257 0.929 . S
C278 C276 1.446 . S
C278 C279 1.332 . S
C279 H259 0.931 . S
C279 C278 1.332 . S
C279 C280 1.267 . S
C280 H248 0.929 . S
C280 C279 1.267 . S
C280 C281 1.251 . S
C281 H251 0.929 . S
C281 N277 1.418 . S
C281 C280 1.251 . S
C282 H249 0.930 . S
C282 C284 1.406 . S
C282 C287 1.261 . S
C283 H250 0.930 . S
C283 N285 1.325 . S
C283 C286 1.357 . S
C284 H252 0.928 . S
C284 C282 1.406 . S
C284 N285 1.261 . S
N285 Co236 2.214 . S
N285 C283 1.325 . S
N285 C284 1.261 . S
C286 H256 0.931 . S
C286 C283 1.357 . S
C286 C287 1.312 . S
C287 H258 0.930 . S
C287 C282 1.261 . S
C287 C286 1.312 . S
C288 O260 1.214 . S
C288 O268 1.234 . S
C289 H261 0.929 . S
C289 C292 1.391 . S
C289 C294 1.391 . S
C290 H262 0.929 . S
C290 C291 1.390 . S
C290 N293 1.391 . S
C291 H263 0.930 . S
C291 C290 1.390 . S
C291 C292 1.392 . S
C292 H264 0.929 . S
C292 C289 1.391 . S
C292 C291 1.392 . S
N293 Co237 2.257 . S
N293 C290 1.391 . S
N293 C294 1.388 . S
C294 H265 0.930 . S
C294 C289 1.391 . S
C294 N293 1.388 . S
Co295 O297 2.143 . S
Co295 O303 2.074 . S
Co295 O306 2.093 1_556 S
Co295 O319 2.097 . S
Co295 N336 2.151 . S
Co295 N344 2.214 1_556 S
Co296 O297 2.160 . S
Co296 O302 2.058 . S
Co296 O312 2.057 . S
Co296 O327 2.037 . S
Co296 N331 2.145 . S
Co296 N352 2.257 . S
O297 Co295 2.143 . S
O297 Co296 2.160 . S
C298 O299 1.278 1_554 S
C298 O306 1.224 . S
O299 C298 1.278 1_556 S
C300 O301 1.245 . S
C300 O312 1.232 . S
O301 C300 1.245 . S
O302 Co296 2.058 . S
O302 C328 1.269 . S
O303 Co295 2.074 . S
O303 C328 1.257 . S
H304 C329 0.930 . S
H305 C335 0.930 . S
O306 Co295 2.093 1_554 S
O306 C298 1.224 . S
H307 C339 0.929 . S
H308 C341 0.930 . S
H309 C342 0.930 . S
H310 C340 0.929 . S
H311 C343 0.928 . S
O312 Co296 2.057 . S
O312 C300 1.232 . S
H313 C332 0.929 . S
H314 C333 0.929 . S
H315 C345 0.931 . S
H316 C337 0.929 . S
H317 C346 0.930 . S
H318 C338 0.931 . S
O319 Co295 2.097 . S
O319 C347 1.214 . S
H320 C348 0.929 . S
H321 C349 0.929 . S
H322 C350 0.930 . S
H323 C351 0.929 . S
H324 C353 0.930 . S
H325 C330 0.930 . S
H326 C334 0.930 . S
O327 Co296 2.037 . S
O327 C347 1.234 . S
C328 O302 1.269 . S
C328 O303 1.257 . S
C329 H304 0.930 . S
C329 C332 1.388 . S
C329 C334 1.418 . S
C330 H325 0.930 . S
C330 C333 1.404 . S
C330 C334 1.353 . S
N331 Co296 2.145 . S
N331 C332 1.397 . S
N331 C333 1.334 . S
C332 H313 0.929 . S
C332 C329 1.388 . S
C332 N331 1.397 . S
C333 H314 0.929 . S
C333 C330 1.404 . S
C333 N331 1.334 . S
C334 H326 0.930 . S
C334 C329 1.418 . S
C334 C330 1.353 . S
C335 H305 0.930 . S
C335 N336 1.330 . S
C335 C337 1.446 . S
N336 Co295 2.151 . S
N336 C335 1.330 . S
N336 C340 1.418 . S
C337 H316 0.929 . S
C337 C335 1.446 . S
C337 C338 1.332 . S
C338 H318 0.931 . S
C338 C337 1.332 . S
C338 C339 1.267 . S
C339 H307 0.929 . S
C339 C338 1.267 . S
C339 C340 1.251 . S
C340 H310 0.929 . S
C340 N336 1.418 . S
C340 C339 1.251 . S
C341 H308 0.930 . S
C341 C343 1.406 . S
C341 C346 1.261 . S
C342 H309 0.930 . S
C342 N344 1.325 . S
C342 C345 1.357 . S
C343 H311 0.928 . S
C343 C341 1.406 . S
C343 N344 1.261 . S
N344 Co295 2.214 1_554 S
N344 C342 1.325 . S
N344 C343 1.261 . S
C345 H315 0.931 . S
C345 C342 1.357 . S
C345 C346 1.312 . S
C346 H317 0.930 . S
C346 C341 1.261 . S
C346 C345 1.312 . S
C347 O319 1.214 . S
C347 O327 1.234 . S
C348 H320 0.929 . S
C348 C351 1.391 . S
C348 C353 1.391 . S
C349 H321 0.929 . S
C349 C350 1.390 . S
C349 N352 1.391 . S
C350 H322 0.930 . S
C350 C349 1.390 . S
C350 C351 1.392 . S
C351 H323 0.929 . S
C351 C348 1.391 . S
C351 C350 1.392 . S
N352 Co296 2.257 . S
N352 C349 1.391 . S
N352 C353 1.388 . S
C353 H324 0.930 . S
C353 C348 1.391 . S
C353 N352 1.388 . S
H354 C360 0.930 . S
H355 C364 0.930 . S
H356 C369 0.929 . S
H357 C367 0.929 . S
H358 C362 0.929 1_455 S
H359 C368 0.929 1_655 S
C360 H354 0.930 . S
C360 C361 1.367 . S
C360 C368 1.378 . S
C361 C360 1.367 . S
C361 C369 1.433 . S
C362 H358 0.929 1_655 S
C362 C364 1.378 . S
C362 C366 1.350 . S
C363 C366 1.463 1_455 S
C363 C368 1.350 . S
C363 N371 1.427 . S
C364 H355 0.930 . S
C364 C362 1.378 . S
C364 C365 1.367 . S
C365 C364 1.367 . S
C365 C367 1.433 . S
C366 C362 1.350 . S
C366 C363 1.463 1_655 S
C366 N370 1.427 . S
C367 H357 0.929 . S
C367 C365 1.433 . S
C367 N370 1.384 . S
C368 H359 0.929 1_455 S
C368 C360 1.378 . S
C368 C363 1.350 . S
C369 H356 0.929 . S
C369 C361 1.433 . S
C369 N371 1.384 . S
N370 C366 1.427 . S
N370 C367 1.384 . S
N371 C363 1.427 . S
N371 C369 1.384 . S
H372 C378 0.930 . S
H373 C382 0.930 . S
H374 C387 0.929 . S
H375 C385 0.929 . S
H376 C380 0.929 1_556 S
H377 C386 0.929 1_554 S
C378 H372 0.930 . S
C378 C379 1.367 . S
C378 C386 1.378 . S
C379 C378 1.367 . S
C379 C387 1.433 . S
C380 H376 0.929 1_554 S
C380 C382 1.378 . S
C380 C384 1.350 . S
C381 C384 1.463 1_566 S
C381 C386 1.350 . S
C381 N389 1.427 . S
C382 H373 0.930 . S
C382 C380 1.378 . S
C382 C383 1.367 . S
C383 C382 1.367 . S
C383 C385 1.433 . S
C384 C380 1.350 . S
C384 C381 1.463 1_544 S
C384 N388 1.427 . S
C385 H375 0.929 . S
C385 C383 1.433 . S
C385 N388 1.384 . S
C386 H377 0.929 1_556 S
C386 C378 1.378 . S
C386 C381 1.350 . S
C387 H374 0.929 . S
C387 C379 1.433 . S
C387 N389 1.384 . S
N388 C384 1.427 . S
N388 C385 1.384 . S
N389 C381 1.427 . S
N389 C387 1.384 . S
H390 C396 0.930 . S
H391 C400 0.930 . S
H392 C405 0.929 . S
H393 C403 0.929 . S
H394 C398 0.929 . S
H395 C404 0.929 . S
C396 H390 0.930 . S
C396 C397 1.367 . S
C396 C404 1.378 . S
C397 C396 1.367 . S
C397 C405 1.433 . S
C398 H394 0.929 . S
C398 C400 1.378 . S
C398 C402 1.350 . S
C399 C402 1.463 . S
C399 C404 1.350 . S
C399 N407 1.427 . S
C400 H391 0.930 . S
C400 C398 1.378 . S
C400 C401 1.367 . S
C401 C400 1.367 . S
C401 C403 1.433 . S
C402 C398 1.350 . S
C402 C399 1.463 . S
C402 N406 1.427 . S
C403 H393 0.929 . S
C403 C401 1.433 . S
C403 N406 1.384 . S
C404 H395 0.929 . S
C404 C396 1.378 . S
C404 C399 1.350 . S
C405 H392 0.929 . S
C405 C397 1.433 . S
C405 N407 1.384 . S
N406 C402 1.427 . S
N406 C403 1.384 . S
N407 C399 1.427 . S
N407 C405 1.384 . S
H408 C414 0.930 . S
H409 C418 0.930 . S
H410 C423 0.929 . S
H411 C421 0.929 . S
H412 C416 0.929 1_655 S
H413 C422 0.929 1_455 S
C414 H408 0.930 . S
C414 C415 1.367 . S
C414 C422 1.378 . S
C415 C414 1.367 . S
C415 C423 1.433 . S
C416 H412 0.929 1_455 S
C416 C418 1.378 . S
C416 C420 1.350 . S
C417 C420 1.463 1_655 S
C417 C422 1.350 . S
C417 N425 1.427 . S
C418 H409 0.930 . S
C418 C416 1.378 . S
C418 C419 1.367 . S
C419 C418 1.367 . S
C419 C421 1.433 . S
C420 C416 1.350 . S
C420 C417 1.463 1_455 S
C420 N424 1.427 . S
C421 H411 0.929 . S
C421 C419 1.433 . S
C421 N424 1.384 . S
C422 H413 0.929 1_655 S
C422 C414 1.378 . S
C422 C417 1.350 . S
C423 H410 0.929 . S
C423 C415 1.433 . S
C423 N425 1.384 . S
N424 C420 1.427 . S
N424 C421 1.384 . S
N425 C417 1.427 . S
N425 C423 1.384 . S
H426 C432 0.930 . S
H427 C436 0.930 . S
H428 C441 0.929 . S
H429 C439 0.929 . S
H430 C434 0.929 . S
H431 C440 0.929 . S
C432 H426 0.930 . S
C432 C433 1.367 . S
C432 C440 1.378 . S
C433 C432 1.367 . S
C433 C441 1.433 . S
C434 H430 0.929 . S
C434 C436 1.378 . S
C434 C438 1.350 . S
C435 C438 1.463 1_545 S
C435 C440 1.350 . S
C435 N443 1.427 . S
C436 H427 0.930 . S
C436 C434 1.378 . S
C436 C437 1.367 . S
C437 C436 1.367 . S
C437 C439 1.433 . S
C438 C434 1.350 . S
C438 C435 1.463 1_565 S
C438 N442 1.427 . S
C439 H429 0.929 . S
C439 C437 1.433 . S
C439 N442 1.384 . S
C440 H431 0.929 . S
C440 C432 1.378 . S
C440 C435 1.350 . S
C441 H428 0.929 . S
C441 C433 1.433 . S
C441 N443 1.384 . S
N442 C438 1.427 . S
N442 C439 1.384 . S
N443 C435 1.427 . S
N443 C441 1.384 . S
H444 C450 0.930 . S
H445 C454 0.930 . S
H446 C459 0.929 . S
H447 C457 0.929 . S
H448 C452 0.929 . S
H449 C458 0.929 . S
C450 H444 0.930 . S
C450 C451 1.367 . S
C450 C458 1.378 . S
C451 C450 1.367 . S
C451 C459 1.433 . S
C452 H448 0.929 . S
C452 C454 1.378 . S
C452 C456 1.350 . S
C453 C456 1.463 . S
C453 C458 1.350 . S
C453 N461 1.427 . S
C454 H445 0.930 . S
C454 C452 1.378 . S
C454 C455 1.367 . S
C455 C454 1.367 . S
C455 C457 1.433 . S
C456 C452 1.350 . S
C456 C453 1.463 . S
C456 N460 1.427 . S
C457 H447 0.929 . S
C457 C455 1.433 . S
C457 N460 1.384 . S
C458 H449 0.929 . S
C458 C450 1.378 . S
C458 C453 1.350 . S
C459 H446 0.929 . S
C459 C451 1.433 . S
C459 N461 1.384 . S
N460 C456 1.427 . S
N460 C457 1.384 . S
N461 C453 1.427 . S
N461 C459 1.384 . S
H462 C468 0.930 . S
H463 C472 0.930 . S
H464 C477 0.929 . S
H465 C475 0.929 . S
H466 C470 0.929 . S
H467 C476 0.929 . S
C468 H462 0.930 . S
C468 C469 1.367 . S
C468 C476 1.378 . S
C469 C468 1.367 . S
C469 C477 1.433 . S
C470 H466 0.929 . S
C470 C472 1.378 . S
C470 C474 1.350 . S
C471 C474 1.463 . S
C471 C476 1.350 . S
C471 N479 1.427 . S
C472 H463 0.930 . S
C472 C470 1.378 . S
C472 C473 1.367 . S
C473 C472 1.367 . S
C473 C475 1.433 . S
C474 C470 1.350 . S
C474 C471 1.463 . S
C474 N478 1.427 . S
C475 H465 0.929 . S
C475 C473 1.433 . S
C475 N478 1.384 . S
C476 H467 0.929 . S
C476 C468 1.378 . S
C476 C471 1.350 . S
C477 H464 0.929 . S
C477 C469 1.433 . S
C477 N479 1.384 . S
N478 C474 1.427 . S
N478 C475 1.384 . S
N479 C471 1.427 . S
N479 C477 1.384 . S
H480 C486 0.930 . S
H481 C490 0.930 . S
H482 C495 0.929 . S
H483 C493 0.929 . S
H484 C488 0.929 . S
H485 C494 0.929 . S
C486 H480 0.930 . S
C486 C487 1.367 . S
C486 C494 1.378 . S
C487 C486 1.367 . S
C487 C495 1.433 . S
C488 H484 0.929 . S
C488 C490 1.378 . S
C488 C492 1.350 . S
C489 C492 1.463 . S
C489 C494 1.350 . S
C489 N497 1.427 . S
C490 H481 0.930 . S
C490 C488 1.378 . S
C490 C491 1.367 . S
C491 C490 1.367 . S
C491 C493 1.433 . S
C492 C488 1.350 . S
C492 C489 1.463 . S
C492 N496 1.427 . S
C493 H483 0.929 . S
C493 C491 1.433 . S
C493 N496 1.384 . S
C494 H485 0.929 . S
C494 C486 1.378 . S
C494 C489 1.350 . S
C495 H482 0.929 . S
C495 C487 1.433 . S
C495 N497 1.384 . S
N496 C492 1.427 . S
N496 C493 1.384 . S
N497 C489 1.427 . S
N497 C495 1.384 . S
H498 C504 0.930 . S
H499 C508 0.930 . S
H500 C513 0.929 . S
H501 C511 0.929 . S
H502 C506 0.929 . S
H503 C512 0.929 . S
C504 H498 0.930 . S
C504 C505 1.367 . S
C504 C512 1.378 . S
C505 C504 1.367 . S
C505 C513 1.433 . S
C506 H502 0.929 . S
C506 C508 1.378 . S
C506 C510 1.350 . S
C507 C510 1.463 . S
C507 C512 1.350 . S
C507 N515 1.427 . S
C508 H499 0.930 . S
C508 C506 1.378 . S
C508 C509 1.367 . S
C509 C508 1.367 . S
C509 C511 1.433 . S
C510 C506 1.350 . S
C510 C507 1.463 . S
C510 N514 1.427 . S
C511 H501 0.929 . S
C511 C509 1.433 . S
C511 N514 1.384 . S
C512 H503 0.929 . S
C512 C504 1.378 . S
C512 C507 1.350 . S
C513 H500 0.929 . S
C513 C505 1.433 . S
C513 N515 1.384 . S
N514 C510 1.427 . S
N514 C511 1.384 . S
N515 C507 1.427 . S
N515 C513 1.384 . S
H516 C522 0.930 . S
H517 C526 0.930 . S
H518 C531 0.929 . S
H519 C529 0.929 . S
H520 C524 0.929 . S
H521 C530 0.929 . S
C522 H516 0.930 . S
C522 C523 1.367 . S
C522 C530 1.378 . S
C523 C522 1.367 . S
C523 C531 1.433 . S
C524 H520 0.929 . S
C524 C526 1.378 . S
C524 C528 1.350 . S
C525 C528 1.463 . S
C525 C530 1.350 . S
C525 N533 1.427 . S
C526 H517 0.930 . S
C526 C524 1.378 . S
C526 C527 1.367 . S
C527 C526 1.367 . S
C527 C529 1.433 . S
C528 C524 1.350 . S
C528 C525 1.463 . S
C528 N532 1.427 . S
C529 H519 0.929 . S
C529 C527 1.433 . S
C529 N532 1.384 . S
C530 H521 0.929 . S
C530 C522 1.378 . S
C530 C525 1.350 . S
C531 H518 0.929 . S
C531 C523 1.433 . S
C531 N533 1.384 . S
N532 C528 1.427 . S
N532 C529 1.384 . S
N533 C525 1.427 . S
N533 C531 1.384 . S
H534 C540 0.930 . S
H535 C544 0.930 . S
H536 C549 0.929 . S
H537 C547 0.929 1_554 S
H538 C542 0.929 . S
H539 C548 0.929 . S
C540 H534 0.930 . S
C540 C541 1.367 . S
C540 C548 1.378 . S
C541 C540 1.367 . S
C541 C549 1.433 . S
C542 H538 0.929 . S
C542 C544 1.378 . S
C542 C546 1.350 . S
C543 C546 1.463 . S
C543 C548 1.350 . S
C543 N551 1.427 . S
C544 H535 0.930 . S
C544 C542 1.378 . S
C544 C545 1.372 . S
C545 C544 1.372 . S
C545 C547 1.436 . S
C546 C542 1.350 . S
C546 C543 1.463 . S
C546 N550 1.427 . S
C547 H537 0.929 1_556 S
C547 C545 1.436 . S
C547 N550 1.384 . S
C548 H539 0.929 . S
C548 C540 1.378 . S
C548 C543 1.350 . S
C549 H536 0.929 . S
C549 C541 1.433 . S
C549 N551 1.384 . S
N550 C546 1.427 . S
N550 C547 1.384 . S
N551 C543 1.427 . S
N551 C549 1.384 . S
H552 C558 0.930 . S
H553 C562 0.930 . S
H554 C567 0.929 . S
H555 C565 0.929 . S
H556 C560 0.929 . S
H557 C566 0.929 . S
C558 H552 0.930 . S
C558 C559 1.370 . S
C558 C566 1.378 1_556 S
C559 C558 1.370 . S
C559 C567 1.426 1_556 S
C560 H556 0.929 . S
C560 C562 1.378 . S
C560 C564 1.350 . S
C561 C564 1.463 . S
C561 C566 1.350 . S
C561 N569 1.427 . S
C562 H553 0.930 . S
C562 C560 1.378 . S
C562 C563 1.367 . S
C563 C562 1.367 . S
C563 C565 1.433 . S
C564 C560 1.350 . S
C564 C561 1.463 . S
C564 N568 1.427 . S
C565 H555 0.929 . S
C565 C563 1.433 . S
C565 N568 1.384 . S
C566 H557 0.929 . S
C566 C558 1.378 1_554 S
C566 C561 1.350 . S
C567 H554 0.929 . S
C567 C559 1.426 1_554 S
C567 N569 1.384 . S
N568 C564 1.427 . S
N568 C565 1.384 . S
N569 C561 1.427 . S
N569 C567 1.384 . S
C361 C3 1.286 . S
C365 C182 1.289 . S
C379 C241 1.291 . S
C383 C62 1.282 . S
C397 C123 1.291 . S
C401 C298 1.281 . S
C415 C180 1.288 . S
C419 C5 1.287 . S
C433 C64 1.292 . S
C437 C239 1.283 . S
C451 C300 1.291 . S
C455 C121 1.285 . S
C469 C33 1.515 . S
C473 C151 1.511 . S
C487 C92 1.517 . S
C491 C229 1.517 . S
C505 C288 1.517 . S
C509 C170 1.516 . S
C523 C328 1.509 . S
C527 C210 1.512 . S
C541 C269 1.512 . S
C545 C52 1.507 1_556 S
C559 C347 1.523 . S
C563 C111 1.519 . S
