# Generated by pormake.
# Topology reo-e, (6)-cn, num edge types: 1
# Building blocks:
#     Node 0, Type 0, BuildingBlock: OJICUG_clean_sbu_0, # of connection points: 6
#     Node 1, Type 0, BuildingBlock: OJICUG_clean_sbu_0, # of connection points: 6
#     Node 2, Type 0, BuildingBlock: OJICUG_clean_sbu_0, # of connection points: 6
#     Node 3, Type 0, BuildingBlock: OJICUG_clean_sbu_0, # of connection points: 6
#     Node 4, Type 0, BuildingBlock: OJICUG_clean_sbu_0, # of connection points: 6
#     Node 5, Type 0, BuildingBlock: OJICUG_clean_sbu_0, # of connection points: 6
#     Node 6, Type 0, BuildingBlock: OJICUG_clean_sbu_0, # of connection points: 6
#     Node 7, Type 0, BuildingBlock: OJICUG_clean_sbu_0, # of connection points: 6
#     Node 8, Type 0, BuildingBlock: OJICUG_clean_sbu_0, # of connection points: 6
#     Node 9, Type 0, BuildingBlock: OJICUG_clean_sbu_0, # of connection points: 6
#     Node 10, Type 0, BuildingBlock: OJICUG_clean_sbu_0, # of connection points: 6
#     Node 11, Type 0, BuildingBlock: OJICUG_clean_sbu_0, # of connection points: 6
#     Edge 12, Type (0, 0), BuildingBlock: CIFDUS_clean_linker_0, # of connection points: 2
#     Edge 13, Type (0, 0), BuildingBlock: CIFDUS_clean_linker_0, # of connection points: 2
#     Edge 14, Type (0, 0), BuildingBlock: CIFDUS_clean_linker_0, # of connection points: 2
#     Edge 15, Type (0, 0), BuildingBlock: CIFDUS_clean_linker_0, # of connection points: 2
#     Edge 16, Type (0, 0), BuildingBlock: CIFDUS_clean_linker_0, # of connection points: 2
#     Edge 17, Type (0, 0), BuildingBlock: CIFDUS_clean_linker_0, # of connection points: 2
#     Edge 18, Type (0, 0), BuildingBlock: CIFDUS_clean_linker_0, # of connection points: 2
#     Edge 19, Type (0, 0), BuildingBlock: CIFDUS_clean_linker_0, # of connection points: 2
#     Edge 20, Type (0, 0), BuildingBlock: CIFDUS_clean_linker_0, # of connection points: 2
#     Edge 21, Type (0, 0), BuildingBlock: CIFDUS_clean_linker_0, # of connection points: 2
#     Edge 22, Type (0, 0), BuildingBlock: CIFDUS_clean_linker_0, # of connection points: 2
#     Edge 23, Type (0, 0), BuildingBlock: CIFDUS_clean_linker_0, # of connection points: 2
#     Edge 24, Type (0, 0), BuildingBlock: CIFDUS_clean_linker_0, # of connection points: 2
#     Edge 25, Type (0, 0), BuildingBlock: CIFDUS_clean_linker_0, # of connection points: 2
#     Edge 26, Type (0, 0), BuildingBlock: CIFDUS_clean_linker_0, # of connection points: 2
#     Edge 27, Type (0, 0), BuildingBlock: CIFDUS_clean_linker_0, # of connection points: 2
#     Edge 28, Type (0, 0), BuildingBlock: CIFDUS_clean_linker_0, # of connection points: 2
#     Edge 29, Type (0, 0), BuildingBlock: CIFDUS_clean_linker_0, # of connection points: 2
#     Edge 30, Type (0, 0), BuildingBlock: CIFDUS_clean_linker_0, # of connection points: 2
#     Edge 31, Type (0, 0), BuildingBlock: CIFDUS_clean_linker_0, # of connection points: 2
#     Edge 32, Type (0, 0), BuildingBlock: CIFDUS_clean_linker_0, # of connection points: 2
#     Edge 33, Type (0, 0), BuildingBlock: CIFDUS_clean_linker_0, # of connection points: 2
#     Edge 34, Type (0, 0), BuildingBlock: CIFDUS_clean_linker_0, # of connection points: 2
#     Edge 35, Type (0, 0), BuildingBlock: CIFDUS_clean_linker_0, # of connection points: 2
#     Edge 36, Type (0, 0), BuildingBlock: CIFDUS_clean_linker_0, # of connection points: 2
#     Edge 37, Type (0, 0), BuildingBlock: CIFDUS_clean_linker_0, # of connection points: 2
#     Edge 38, Type (0, 0), BuildingBlock: CIFDUS_clean_linker_0, # of connection points: 2
#     Edge 39, Type (0, 0), BuildingBlock: CIFDUS_clean_linker_0, # of connection points: 2
#     Edge 40, Type (0, 0), BuildingBlock: CIFDUS_clean_linker_0, # of connection points: 2
#     Edge 41, Type (0, 0), BuildingBlock: CIFDUS_clean_linker_0, # of connection points: 2
#     Edge 42, Type (0, 0), BuildingBlock: CIFDUS_clean_linker_0, # of connection points: 2
#     Edge 43, Type (0, 0), BuildingBlock: CIFDUS_clean_linker_0, # of connection points: 2
#     Edge 44, Type (0, 0), BuildingBlock: CIFDUS_clean_linker_0, # of connection points: 2
#     Edge 45, Type (0, 0), BuildingBlock: CIFDUS_clean_linker_0, # of connection points: 2
#     Edge 46, Type (0, 0), BuildingBlock: CIFDUS_clean_linker_0, # of connection points: 2
#     Edge 47, Type (0, 0), BuildingBlock: CIFDUS_clean_linker_0, # of connection points: 2
# Relax obj value: 0.131
# Max RMSD: 0.142
# Mean RMSD: 0.142
data_MOF--net-reo-e--node1-OJICUG_clean_sbu_0--edge1-CIFDUS_clean_linker_0
_symmetry_space_group_name_H-M    P1
_symmetry_Int_Tables_number       1
_symmetry_cell_setting            triclinic
loop_
_symmetry_equiv_pos_as_xyz
'x, y, z'
_cell_length_a     35.314132
_cell_length_b     35.334843
_cell_length_c     35.341914
_cell_angle_alpha  89.979411
_cell_angle_beta   89.969486
_cell_angle_gamma 89.770248
loop_
_atom_site_label
_atom_site_type_symbol
_atom_site_fract_x
_atom_site_fract_y
_atom_site_fract_z
_atom_type_partial_charge
Sc0 Sc 0.17177 0.19536 0.4449 0.0
Sc1 Sc 0.2431 0.24003 0.49729 0.0
Sc2 Sc 0.1721 0.19011 0.54514 0.0
O3 O 0.19545 0.20853 0.49581 0.0
C4 C 0.09756 0.20519 0.49632 0.0
C5 C 0.19502 0.28075 0.43139 0.0
C6 C 0.19348 0.27607 0.5635 0.0
C7 C 0.26067 0.18877 0.42658 0.0
C8 C 0.16974 0.11727 0.49077 0.0
C9 C 0.25981 0.18349 0.56564 0.0
O10 O 0.11403 0.20348 0.46434 0.0
O11 O 0.22224 0.27849 0.45484 0.0
O12 O 0.17355 0.24665 0.56997 0.0
O13 O 0.22599 0.18476 0.41764 0.0
O14 O 0.16955 0.13251 0.52357 0.0
O15 O 0.27043 0.20599 0.53979 0.0
O16 O 0.17028 0.13643 0.46021 0.0
O17 O 0.27108 0.20607 0.45615 0.0
O18 O 0.22528 0.17542 0.57108 0.0
O19 O 0.17217 0.25355 0.42557 0.0
O20 O 0.11527 0.20168 0.52732 0.0
O21 O 0.21942 0.27694 0.53865 0.0
Sc22 Sc 0.80075 0.17848 0.53436 0.0
Sc23 Sc 0.73074 0.22653 0.48294 0.0
Sc24 Sc 0.79595 0.16887 0.43474 0.0
O25 O 0.77581 0.1911 0.48399 0.0
C26 C 0.87274 0.18527 0.48035 0.0
C27 C 0.77908 0.26406 0.54972 0.0
C28 C 0.78257 0.25628 0.41626 0.0
C29 C 0.71179 0.17405 0.55251 0.0
C30 C 0.80066 0.09878 0.49112 0.0
C31 C 0.70805 0.17175 0.41447 0.0
O32 O 0.85738 0.18758 0.51286 0.0
O33 O 0.75209 0.26336 0.52613 0.0
O34 O 0.79725 0.22414 0.40869 0.0
O35 O 0.74642 0.16828 0.56111 0.0
O36 O 0.79681 0.11227 0.45787 0.0
O37 O 0.70108 0.19668 0.4393 0.0
O38 O 0.80323 0.11939 0.52048 0.0
O39 O 0.70144 0.19311 0.52377 0.0
O40 O 0.74085 0.15743 0.41027 0.0
O41 O 0.80117 0.23606 0.55463 0.0
O42 O 0.85404 0.17764 0.45065 0.0
O43 O 0.75838 0.26154 0.44241 0.0
Sc44 Sc 0.82257 0.803 0.54212 0.0
Sc45 Sc 0.75969 0.73928 0.49916 0.0
Sc46 Sc 0.82058 0.79435 0.44265 0.0
O47 O 0.80092 0.77887 0.49463 0.0
C48 C 0.8187 0.87346 0.48516 0.0
C49 C 0.73658 0.79774 0.56559 0.0
C50 C 0.73078 0.78864 0.42936 0.0
C51 C 0.81351 0.71622 0.5675 0.0
C52 C 0.8963 0.78987 0.49197 0.0
C53 C 0.80852 0.70647 0.42937 0.0
O54 O 0.82089 0.85947 0.51829 0.0
O55 O 0.72967 0.77017 0.5434 0.0
O56 O 0.76375 0.79947 0.41947 0.0
O57 O 0.82619 0.74961 0.57198 0.0
O58 O 0.87947 0.79069 0.4601 0.0
O59 O 0.78373 0.70291 0.45537 0.0
O60 O 0.87912 0.7937 0.52325 0.0
O61 O 0.7908 0.70749 0.54096 0.0
O62 O 0.82528 0.73746 0.42297 0.0
O63 O 0.76844 0.81408 0.56677 0.0
O64 O 0.81799 0.85324 0.45558 0.0
O65 O 0.72497 0.76782 0.45816 0.0
Sc66 Sc 0.20255 0.82045 0.45248 0.0
Sc67 Sc 0.26187 0.7655 0.51038 0.0
Sc68 Sc 0.184 0.81242 0.55067 0.0
O69 O 0.21621 0.79965 0.50453 0.0
C70 C 0.18917 0.89169 0.50552 0.0
C71 C 0.29318 0.81908 0.44526 0.0
C72 C 0.26785 0.81889 0.58249 0.0
C73 C 0.22078 0.73346 0.43691 0.0
C74 C 0.12071 0.80409 0.48774 0.0
C75 C 0.2049 0.72651 0.56902 0.0
O76 O 0.19942 0.8777 0.47382 0.0
O77 O 0.29761 0.79739 0.47345 0.0
O78 O 0.23254 0.82557 0.58483 0.0
O79 O 0.20376 0.76426 0.42865 0.0
O80 O 0.13217 0.80037 0.52159 0.0
O81 O 0.23384 0.72722 0.54784 0.0
O82 O 0.1425 0.81338 0.46075 0.0
O83 O 0.24347 0.73021 0.4647 0.0
O84 O 0.18305 0.75498 0.57294 0.0
O85 O 0.2606 0.83006 0.4344 0.0
O86 O 0.18147 0.87144 0.53437 0.0
O87 O 0.28263 0.7985 0.55669 0.0
Sc88 Sc 0.42739 0.1871 0.16781 0.0
Sc89 Sc 0.46992 0.24307 0.23811 0.0
Sc90 Sc 0.52695 0.18596 0.17976 0.0
O91 O 0.47477 0.20535 0.19522 0.0
C92 C 0.47634 0.11143 0.1754 0.0
C93 C 0.40012 0.18853 0.25388 0.0
C94 C 0.53781 0.19097 0.26921 0.0
C95 C 0.40602 0.27328 0.1807 0.0
C96 C 0.48593 0.1951 0.09969 0.0
C97 C 0.54177 0.27413 0.19312 0.0
O98 O 0.44534 0.1292 0.17087 0.0
O99 O 0.42621 0.21054 0.2652 0.0
O100 O 0.54644 0.17733 0.23707 0.0
O101 O 0.40345 0.24275 0.16199 0.0
O102 O 0.51515 0.19239 0.12046 0.0
O103 O 0.51318 0.27881 0.21461 0.0
O104 O 0.45248 0.19384 0.11282 0.0
O105 O 0.4283 0.27703 0.20872 0.0
O106 O 0.55062 0.2422 0.17887 0.0
O107 O 0.39637 0.17854 0.21955 0.0
O108 O 0.50809 0.12797 0.17916 0.0
O109 O 0.51091 0.21461 0.27357 0.0
Sc110 Sc 0.79949 0.53658 0.18695 0.0
Sc111 Sc 0.74152 0.47604 0.24047 0.0
Sc112 Sc 0.80111 0.43754 0.17094 0.0
O113 O 0.7807 0.48348 0.19935 0.0
C114 C 0.79517 0.49858 0.10477 0.0
C115 C 0.7105 0.54969 0.19892 0.0
C116 C 0.71447 0.41501 0.17957 0.0
C117 C 0.7902 0.54223 0.2771 0.0
C118 C 0.87557 0.48739 0.18337 0.0
C119 C 0.7974 0.4068 0.25512 0.0
O120 O 0.79685 0.52747 0.12622 0.0
O121 O 0.70617 0.52028 0.21909 0.0
O122 O 0.74605 0.41239 0.16248 0.0
O123 O 0.8045 0.55333 0.24593 0.0
O124 O 0.85845 0.45661 0.17637 0.0
O125 O 0.77342 0.43136 0.26598 0.0
O126 O 0.85826 0.51872 0.18841 0.0
O127 O 0.76778 0.51438 0.27908 0.0
O128 O 0.80953 0.40475 0.22139 0.0
O129 O 0.74235 0.55927 0.18487 0.0
O130 O 0.79538 0.46496 0.11742 0.0
O131 O 0.70934 0.43674 0.20769 0.0
Sc132 Sc 0.4528 0.81242 0.18498 0.0
Sc133 Sc 0.50634 0.75909 0.25 0.0
Sc134 Sc 0.55252 0.81174 0.17922 0.0
O135 O 0.50387 0.79446 0.20481 0.0
C136 C 0.49763 0.80082 0.10775 0.0
C137 C 0.43574 0.72578 0.20495 0.0
C138 C 0.57069 0.72565 0.19452 0.0
C139 C 0.4379 0.81428 0.27407 0.0
C140 C 0.50402 0.88722 0.18112 0.0
C141 C 0.57792 0.81048 0.26653 0.0
O142 O 0.46733 0.80123 0.12706 0.0
O143 O 0.46348 0.72268 0.2276 0.0
O144 O 0.57383 0.75541 0.1747 0.0
O145 O 0.43146 0.82528 0.24045 0.0
O146 O 0.53548 0.86971 0.18178 0.0
O147 O 0.54983 0.79107 0.27766 0.0
O148 O 0.47214 0.8704 0.18083 0.0
O149 O 0.4641 0.79066 0.2821 0.0
O150 O 0.58289 0.81931 0.23197 0.0
O151 O 0.42802 0.75643 0.18753 0.0
O152 O 0.53006 0.80566 0.12257 0.0
O153 O 0.54853 0.72326 0.22295 0.0
Sc154 Sc 0.17607 0.46424 0.18686 0.0
Sc155 Sc 0.23543 0.51231 0.25053 0.0
Sc156 Sc 0.17488 0.56415 0.19091 0.0
O157 O 0.19539 0.51353 0.20949 0.0
C158 C 0.18104 0.517 0.11416 0.0
C159 C 0.26483 0.44689 0.19608 0.0
C160 C 0.26206 0.5832 0.20032 0.0
C161 C 0.18381 0.44123 0.27357 0.0
C162 C 0.1002 0.51439 0.19359 0.0
C163 C 0.18338 0.57965 0.27944 0.0
O164 O 0.18206 0.48473 0.12998 0.0
O165 O 0.27006 0.47308 0.22005 0.0
O166 O 0.23025 0.58808 0.18426 0.0
O167 O 0.16845 0.43788 0.24123 0.0
O168 O 0.11737 0.54582 0.19577 0.0
O169 O 0.20547 0.55184 0.28546 0.0
O170 O 0.11748 0.48292 0.18933 0.0
O171 O 0.20839 0.46649 0.28081 0.0
O172 O 0.17052 0.58767 0.24684 0.0
O173 O 0.23241 0.43967 0.18204 0.0
O174 O 0.17734 0.54765 0.13254 0.0
O175 O 0.26769 0.55766 0.22514 0.0
Sc176 Sc 0.4547 0.79712 0.81286 0.0
Sc177 Sc 0.50131 0.74861 0.74022 0.0
Sc178 Sc 0.55445 0.8045 0.80253 0.0
O179 O 0.5036 0.78344 0.78541 0.0
C180 C 0.49912 0.87615 0.80808 0.0
C181 C 0.4319 0.8031 0.72573 0.0
C182 C 0.56824 0.80191 0.71301 0.0
C183 C 0.43855 0.71111 0.79325 0.0
C184 C 0.5119 0.79142 0.88202 0.0
C185 C 0.57093 0.71653 0.78743 0.0
O186 O 0.47001 0.85581 0.81371 0.0
O187 O 0.45887 0.78236 0.71409 0.0
O188 O 0.57683 0.81397 0.7458 0.0
O189 O 0.43372 0.73957 0.81474 0.0
O190 O 0.54095 0.79825 0.86189 0.0
O191 O 0.54412 0.71334 0.76372 0.0
O192 O 0.47892 0.78821 0.86802 0.0
O193 O 0.46078 0.71174 0.76518 0.0
O194 O 0.57917 0.74772 0.80383 0.0
O195 O 0.42501 0.80886 0.7606 0.0
O196 O 0.53212 0.86218 0.8024 0.0
O197 O 0.54138 0.77907 0.70761 0.0
Sc198 Sc 0.18194 0.44666 0.81388 0.0
Sc199 Sc 0.24274 0.49566 0.75191 0.0
Sc200 Sc 0.18634 0.54616 0.81704 0.0
O201 O 0.2038 0.49614 0.79425 0.0
C202 C 0.10942 0.50079 0.81116 0.0
C203 C 0.1859 0.43032 0.72545 0.0
C204 C 0.19417 0.56914 0.72978 0.0
C205 C 0.26793 0.42277 0.8002 0.0
C206 C 0.19023 0.49307 0.89017 0.0
C207 C 0.27454 0.56021 0.8074 0.0
O208 O 0.12512 0.46841 0.81268 0.0
O209 O 0.21092 0.4553 0.71849 0.0
O210 O 0.18177 0.5742 0.76315 0.0
O211 O 0.23605 0.41872 0.81635 0.0
O212 O 0.18878 0.52522 0.87413 0.0
O213 O 0.27877 0.53592 0.78101 0.0
O214 O 0.189 0.46219 0.87196 0.0
O215 O 0.27467 0.44962 0.77708 0.0
O216 O 0.24303 0.56608 0.82376 0.0
O217 O 0.17262 0.42475 0.75833 0.0
O218 O 0.12787 0.53151 0.81201 0.0
O219 O 0.21558 0.54138 0.72107 0.0
Sc220 Sc 0.44255 0.17442 0.79444 0.0
Sc221 Sc 0.49735 0.2282 0.73141 0.0
Sc222 Sc 0.54167 0.18271 0.80765 0.0
O223 O 0.49379 0.19504 0.77789 0.0
C224 C 0.48172 0.1905 0.87435 0.0
C225 C 0.42401 0.26074 0.77364 0.0
C226 C 0.5558 0.26878 0.78735 0.0
C227 C 0.43256 0.17222 0.7045 0.0
C228 C 0.49849 0.10323 0.80353 0.0
C229 C 0.57086 0.17725 0.7224 0.0
O230 O 0.45329 0.18359 0.85358 0.0
O231 O 0.45142 0.26296 0.75042 0.0
O232 O 0.56057 0.24058 0.80917 0.0
O233 O 0.42283 0.16269 0.73776 0.0
O234 O 0.52755 0.12377 0.8086 0.0
O235 O 0.5435 0.19612 0.70857 0.0
O236 O 0.46543 0.11697 0.79756 0.0
O237 O 0.46001 0.1943 0.69808 0.0
O238 O 0.57487 0.17154 0.75766 0.0
O239 O 0.41677 0.23071 0.79247 0.0
O240 O 0.51522 0.19208 0.86149 0.0
O241 O 0.53491 0.26751 0.75817 0.0
Sc242 Sc 0.81437 0.53165 0.80411 0.0
Sc243 Sc 0.74692 0.48491 0.74744 0.0
Sc244 Sc 0.80888 0.4319 0.8043 0.0
O245 O 0.79008 0.48289 0.78524 0.0
C246 C 0.88608 0.47726 0.79729 0.0
C247 C 0.80279 0.54844 0.71578 0.0
C248 C 0.79442 0.41303 0.7178 0.0
C249 C 0.7283 0.5571 0.79925 0.0
C250 C 0.80823 0.48196 0.8795 0.0
C251 C 0.71943 0.41857 0.80137 0.0
O252 O 0.87057 0.50966 0.79857 0.0
O253 O 0.77689 0.52385 0.71193 0.0
O254 O 0.81202 0.40783 0.74869 0.0
O255 O 0.76165 0.56028 0.81198 0.0
O256 O 0.80733 0.45074 0.8617 0.0
O257 O 0.71254 0.44594 0.77902 0.0
O258 O 0.81108 0.51384 0.86288 0.0
O259 O 0.71872 0.53113 0.77623 0.0
O260 O 0.7527 0.41006 0.81214 0.0
O261 O 0.8192 0.55483 0.74728 0.0
O262 O 0.86745 0.4467 0.79895 0.0
O263 O 0.76977 0.4391 0.71356 0.0
H264 H 0.1508 0.294 0.36898 0.0
H265 H 0.23165 0.3475 0.44323 0.0
H266 H 0.23229 0.4033 0.40299 0.0
H267 H 0.21464 0.43474 0.34399 0.0
H268 H 0.13487 0.3813 0.2686 0.0
H269 H 0.12876 0.32824 0.3123 0.0
C270 C 0.16819 0.31803 0.37664 0.0
C271 C 0.19152 0.31613 0.40889 0.0
C272 C 0.16882 0.35016 0.35306 0.0
C273 C 0.21375 0.34776 0.41835 0.0
C274 C 0.21415 0.37983 0.39535 0.0
C275 C 0.19548 0.4118 0.33724 0.0
C276 C 0.17564 0.41201 0.30272 0.0
C277 C 0.19252 0.38099 0.36218 0.0
C278 C 0.15078 0.38196 0.29478 0.0
C279 C 0.14733 0.35143 0.31973 0.0
H280 H 0.60534 0.15235 0.27016 0.0
H281 H 0.52562 0.20976 0.34328 0.0
H282 H 0.56971 0.2043 0.39596 0.0
H283 H 0.63331 0.19012 0.4194 0.0
H284 H 0.71427 0.13456 0.3464 0.0
H285 H 0.66698 0.13175 0.29599 0.0
C286 C 0.59728 0.16313 0.29775 0.0
C287 C 0.56226 0.18198 0.30239 0.0
C288 C 0.62312 0.16044 0.32802 0.0
C289 C 0.55244 0.19553 0.33855 0.0
C290 C 0.5777 0.19247 0.3688 0.0
C291 C 0.64058 0.17685 0.39268 0.0
C292 C 0.67761 0.16306 0.38667 0.0
C293 C 0.61353 0.17605 0.36355 0.0
C294 C 0.68613 0.14553 0.35193 0.0
C295 C 0.65912 0.14415 0.32293 0.0
H296 H 0.77558 0.63632 0.42776 0.0
H297 H 0.85769 0.70561 0.36963 0.0
H298 H 0.86202 0.65929 0.31904 0.0
H299 H 0.83737 0.60265 0.2875 0.0
H300 H 0.75585 0.53289 0.34582 0.0
H301 H 0.75702 0.57546 0.39982 0.0
C302 C 0.79489 0.64105 0.40437 0.0
C303 C 0.81566 0.67488 0.40242 0.0
C304 C 0.79722 0.61428 0.37496 0.0
C305 C 0.84086 0.68015 0.37191 0.0
C306 C 0.84338 0.65365 0.34274 0.0
C307 C 0.82027 0.59641 0.3122 0.0
C308 C 0.79614 0.56485 0.31207 0.0
C309 C 0.82084 0.62117 0.34336 0.0
C310 C 0.77454 0.55709 0.34472 0.0
C311 C 0.77504 0.58154 0.37575 0.0
H312 H 0.29568 0.85185 0.37499 0.0
H313 H 0.36716 0.80177 0.46073 0.0
H314 H 0.41973 0.79912 0.41625 0.0
H315 H 0.44291 0.80282 0.35069 0.0
H316 H 0.37147 0.85329 0.26513 0.0
H317 H 0.32205 0.86418 0.31185 0.0
C318 C 0.32296 0.84117 0.3843 0.0
C319 C 0.32697 0.82637 0.42108 0.0
C320 C 0.3532 0.83919 0.35835 0.0
C321 C 0.36283 0.81292 0.4325 0.0
C322 C 0.39304 0.8112 0.40698 0.0
C323 C 0.41679 0.81672 0.34233 0.0
C324 C 0.41091 0.8265 0.30415 0.0
C325 C 0.38812 0.82287 0.36941 0.0
C326 C 0.37693 0.84503 0.29414 0.0
C327 C 0.34842 0.85125 0.32088 0.0
H328 H 0.16471 0.71808 0.63495 0.0
H329 H 0.23213 0.65604 0.55388 0.0
H330 H 0.23181 0.6007 0.59484 0.0
H331 H 0.21819 0.57186 0.6563 0.0
H332 H 0.15185 0.63383 0.73835 0.0
H333 H 0.14569 0.68661 0.69435 0.0
C334 C 0.17869 0.69223 0.62594 0.0
C335 C 0.19878 0.69153 0.59154 0.0
C336 C 0.17898 0.6604 0.65002 0.0
C337 C 0.21682 0.65768 0.58041 0.0
C338 C 0.21671 0.6259 0.60385 0.0
C339 C 0.20193 0.59665 0.66447 0.0
C340 C 0.18598 0.59881 0.70091 0.0
C341 C 0.19883 0.62726 0.63919 0.0
C342 C 0.16479 0.63126 0.71068 0.0
C343 C 0.16126 0.66165 0.68551 0.0
H344 H 0.33636 0.18268 0.557 0.0
H345 H 0.2478 0.15176 0.63526 0.0
H346 H 0.29494 0.13875 0.68402 0.0
H347 H 0.36009 0.1459 0.70714 0.0
H348 H 0.44826 0.17857 0.62909 0.0
H349 H 0.40256 0.18025 0.57751 0.0
C350 C 0.32736 0.17256 0.58454 0.0
C351 C 0.28853 0.16904 0.59265 0.0
C352 C 0.35457 0.16559 0.61265 0.0
C353 C 0.27746 0.15512 0.62828 0.0
C354 C 0.30442 0.14777 0.65629 0.0
C355 C 0.36957 0.15237 0.67868 0.0
C356 C 0.40745 0.16287 0.67225 0.0
C357 C 0.34293 0.15429 0.64921 0.0
C358 C 0.41917 0.17095 0.63505 0.0
C359 C 0.39301 0.17212 0.60549 0.0
H360 H 0.75959 0.41084 0.64892 0.0
H361 H 0.84391 0.35318 0.71642 0.0
H362 H 0.84909 0.30368 0.66874 0.0
H363 H 0.82561 0.27368 0.61072 0.0
H364 H 0.74047 0.33098 0.54393 0.0
H365 H 0.74011 0.3836 0.58833 0.0
C366 C 0.77944 0.38772 0.65309 0.0
C367 C 0.80092 0.38567 0.68655 0.0
C368 C 0.78203 0.35899 0.62575 0.0
C369 C 0.8267 0.35549 0.69116 0.0
C370 C 0.82969 0.32703 0.6639 0.0
C371 C 0.80732 0.29787 0.60556 0.0
C372 C 0.78279 0.29798 0.5742 0.0
C373 C 0.80685 0.32801 0.6315 0.0
C374 C 0.75942 0.32978 0.56799 0.0
C375 C 0.75913 0.35998 0.59342 0.0
H376 H 0.65988 0.7901 0.5617 0.0
H377 H 0.74937 0.83016 0.63426 0.0
H378 H 0.70419 0.84016 0.6855 0.0
H379 H 0.64055 0.82993 0.71221 0.0
H380 H 0.55094 0.79152 0.63872 0.0
H381 H 0.59456 0.78934 0.58556 0.0
C382 C 0.66936 0.80148 0.58857 0.0
C383 C 0.70798 0.80879 0.59426 0.0
C384 C 0.64319 0.8074 0.61798 0.0
C385 C 0.71977 0.82415 0.62907 0.0
C386 C 0.69396 0.82977 0.65853 0.0
C387 C 0.63034 0.82204 0.68439 0.0
C388 C 0.59268 0.81012 0.67984 0.0
C389 C 0.65574 0.82049 0.65368 0.0
C390 C 0.57996 0.80018 0.64337 0.0
C391 C 0.60492 0.79877 0.61282 0.0
H392 H 0.40808 0.18096 0.32962 0.0
H393 H 0.32633 0.17077 0.23959 0.0
H394 H 0.27543 0.1639 0.28592 0.0
H395 H 0.25345 0.17065 0.35176 0.0
H396 H 0.33596 0.18121 0.4413 0.0
H397 H 0.38715 0.17734 0.39545 0.0
C398 C 0.37919 0.17663 0.32017 0.0
C399 C 0.37085 0.17712 0.28137 0.0
C400 C 0.35011 0.17302 0.34687 0.0
C401 C 0.33344 0.17071 0.26941 0.0
C402 C 0.30428 0.16698 0.29587 0.0
C403 C 0.28262 0.17116 0.36133 0.0
C404 C 0.29076 0.17719 0.3998 0.0
C405 C 0.31213 0.16952 0.33469 0.0
C406 C 0.32879 0.17741 0.41175 0.0
C407 C 0.35818 0.17527 0.38555 0.0
H408 H 0.79175 0.4103 0.33098 0.0
H409 H 0.82706 0.33664 0.24004 0.0
H410 H 0.83079 0.2834 0.28406 0.0
H411 H 0.81383 0.25628 0.34589 0.0
H412 H 0.7748 0.33034 0.43515 0.0
H413 H 0.78275 0.38498 0.39414 0.0
C414 C 0.80081 0.38272 0.32085 0.0
C415 C 0.80819 0.37713 0.28227 0.0
C416 C 0.80165 0.3522 0.34587 0.0
C417 C 0.82086 0.34154 0.26966 0.0
C418 C 0.82272 0.31103 0.29472 0.0
C419 C 0.8077 0.28444 0.35651 0.0
C420 C 0.79287 0.28921 0.39309 0.0
C421 C 0.81155 0.31576 0.33252 0.0
C422 C 0.78539 0.32587 0.40671 0.0
C423 C 0.79003 0.35715 0.38338 0.0
H424 H 0.57578 0.80003 0.34272 0.0
H425 H 0.6494 0.83781 0.25287 0.0
H426 H 0.70299 0.83802 0.29654 0.0
H427 H 0.73035 0.81977 0.35822 0.0
H428 H 0.6561 0.78006 0.44684 0.0
H429 H 0.60163 0.7884 0.40561 0.0
C430 C 0.60339 0.8089 0.33268 0.0
C431 C 0.60849 0.81833 0.29432 0.0
C432 C 0.63425 0.80809 0.35766 0.0
C433 C 0.64451 0.83022 0.28215 0.0
C434 C 0.67531 0.8301 0.30708 0.0
C435 C 0.70222 0.81345 0.36872 0.0
C436 C 0.6976 0.79866 0.40547 0.0
C437 C 0.67076 0.81785 0.3446 0.0
C438 C 0.66077 0.79089 0.41855 0.0
C439 C 0.62946 0.7957 0.39499 0.0
H440 H 0.17137 0.72625 0.37808 0.0
H441 H 0.25379 0.66386 0.44391 0.0
H442 H 0.24437 0.6085 0.40433 0.0
H443 H 0.21762 0.57985 0.34799 0.0
H444 H 0.13751 0.64252 0.2798 0.0
H445 H 0.14035 0.69528 0.32426 0.0
C446 C 0.1872 0.70054 0.38387 0.0
C447 C 0.21371 0.69954 0.41356 0.0
C448 C 0.18189 0.66871 0.36082 0.0
C449 C 0.23353 0.66572 0.42098 0.0
C450 C 0.22809 0.6339 0.39844 0.0
C451 C 0.20016 0.60469 0.34308 0.0
C452 C 0.17785 0.60738 0.31026 0.0
C453 C 0.20294 0.63536 0.36788 0.0
C454 C 0.15523 0.63978 0.30467 0.0
C455 C 0.15704 0.67011 0.32992 0.0
H456 H 0.34236 0.83337 0.57806 0.0
H457 H 0.2487 0.8313 0.65639 0.0
H458 H 0.29269 0.83342 0.70972 0.0
H459 H 0.35757 0.82234 0.73309 0.0
H460 H 0.45038 0.82051 0.6535 0.0
H461 H 0.407 0.83389 0.60171 0.0
C462 C 0.3316 0.83427 0.60683 0.0
C463 C 0.29264 0.83115 0.61346 0.0
C464 C 0.35693 0.83416 0.63711 0.0
C465 C 0.27877 0.83331 0.65068 0.0
C466 C 0.30389 0.83417 0.68117 0.0
C467 C 0.3683 0.82584 0.70454 0.0
C468 C 0.40677 0.81935 0.69683 0.0
C469 C 0.34304 0.8325 0.67465 0.0
C470 C 0.42058 0.82437 0.65986 0.0
C471 C 0.39588 0.83208 0.63025 0.0
H472 H 0.15171 0.28552 0.62836 0.0
H473 H 0.2235 0.34553 0.54973 0.0
H474 H 0.22351 0.40049 0.59076 0.0
H475 H 0.20974 0.42896 0.65213 0.0
H476 H 0.13821 0.36962 0.73139 0.0
H477 H 0.13099 0.31778 0.68668 0.0
C478 C 0.16687 0.3108 0.61995 0.0
C479 C 0.18826 0.31085 0.58641 0.0
C480 C 0.16705 0.34261 0.64389 0.0
C481 C 0.20739 0.34416 0.57578 0.0
C482 C 0.20741 0.37582 0.5992 0.0
C483 C 0.19202 0.40505 0.65945 0.0
C484 C 0.17526 0.40304 0.69542 0.0
C485 C 0.18836 0.37494 0.63386 0.0
C486 C 0.15194 0.3719 0.70408 0.0
C487 C 0.14786 0.34202 0.67857 0.0
H488 H 0.56395 0.16415 0.64751 0.0
H489 H 0.64503 0.16171 0.73879 0.0
H490 H 0.69662 0.15353 0.69334 0.0
H491 H 0.71894 0.15817 0.62754 0.0
H492 H 0.63722 0.16345 0.53679 0.0
H493 H 0.58561 0.15878 0.58223 0.0
C494 C 0.59287 0.16124 0.6575 0.0
C495 C 0.60082 0.16444 0.69627 0.0
C496 C 0.6223 0.15736 0.6313 0.0
C497 C 0.63825 0.15968 0.70897 0.0
C498 C 0.66778 0.15521 0.683 0.0
C499 C 0.68988 0.1573 0.61766 0.0
C500 C 0.68187 0.16203 0.57898 0.0
C501 C 0.66023 0.15565 0.64403 0.0
C502 C 0.64409 0.16061 0.56654 0.0
C503 C 0.61454 0.15802 0.59247 0.0
H504 H 0.83695 0.61787 0.71449 0.0
H505 H 0.78704 0.53337 0.64192 0.0
H506 H 0.78985 0.57671 0.58851 0.0
H507 H 0.7993 0.64066 0.56414 0.0
H508 H 0.84784 0.72617 0.6364 0.0
H509 H 0.85326 0.68025 0.68775 0.0
C510 C 0.82742 0.60868 0.68683 0.0
C511 C 0.81127 0.57257 0.68248 0.0
C512 C 0.82848 0.63407 0.65613 0.0
C513 C 0.79909 0.56117 0.64633 0.0
C514 C 0.80064 0.58596 0.61567 0.0
C515 C 0.81152 0.64924 0.59094 0.0
C516 C 0.82255 0.68705 0.59645 0.0
C517 C 0.81407 0.62287 0.62055 0.0
C518 C 0.83885 0.69736 0.63129 0.0
C519 C 0.84183 0.67112 0.66081 0.0
H520 H 0.41208 0.34718 0.20081 0.0
H521 H 0.3393 0.26927 0.14162 0.0
H522 H 0.29019 0.31787 0.13708 0.0
H523 H 0.26508 0.3799 0.15701 0.0
H524 H 0.33857 0.45733 0.2163 0.0
H525 H 0.39009 0.41169 0.21321 0.0
C526 C 0.38568 0.34097 0.18645 0.0
C527 C 0.37921 0.30447 0.17215 0.0
C528 C 0.35743 0.3689 0.18419 0.0
C529 C 0.34505 0.2971 0.15305 0.0
C530 C 0.31681 0.32483 0.15061 0.0
C531 C 0.29254 0.38709 0.16864 0.0
C532 C 0.29751 0.42177 0.18755 0.0
C533 C 0.32224 0.36048 0.16713 0.0
C534 C 0.33353 0.43065 0.20212 0.0
C535 C 0.36315 0.40452 0.20044 0.0
H536 H 0.34524 0.56139 0.7764 0.0
H537 H 0.27487 0.61804 0.85899 0.0
H538 H 0.32157 0.66812 0.86513 0.0
H539 H 0.37839 0.70012 0.84091 0.0
H540 H 0.4481 0.64325 0.75786 0.0
H541 H 0.40587 0.58921 0.75849 0.0
C542 C 0.34033 0.5843 0.79624 0.0
C543 C 0.30616 0.58617 0.81654 0.0
C544 C 0.36704 0.61344 0.7993 0.0
C545 C 0.30066 0.61596 0.84252 0.0
C546 C 0.32733 0.64481 0.84602 0.0
C547 C 0.38468 0.67567 0.82342 0.0
C548 C 0.41594 0.67628 0.7988 0.0
C549 C 0.36 0.64454 0.82355 0.0
C550 C 0.42385 0.64405 0.77663 0.0
C551 C 0.39971 0.61297 0.77692 0.0
H552 H 0.33602 0.41611 0.76469 0.0
H553 H 0.26422 0.36009 0.84604 0.0
H554 H 0.30665 0.30541 0.8463 0.0
H555 H 0.36185 0.27132 0.81965 0.0
H556 H 0.4323 0.32832 0.73754 0.0
H557 H 0.39267 0.38425 0.74149 0.0
C558 C 0.32981 0.39224 0.78293 0.0
C559 C 0.29671 0.39232 0.80504 0.0
C560 C 0.35392 0.36057 0.7825 0.0
C561 C 0.28938 0.36094 0.82853 0.0
C562 C 0.31357 0.32946 0.82859 0.0
C563 C 0.36862 0.29601 0.80275 0.0
C564 C 0.39992 0.2951 0.77805 0.0
C565 C 0.3455 0.32857 0.805 0.0
C566 C 0.40831 0.3277 0.75662 0.0
C567 C 0.38566 0.35996 0.75885 0.0
H568 H 0.64719 0.41964 0.77476 0.0
H569 H 0.72153 0.35856 0.85045 0.0
H570 H 0.67456 0.30859 0.85685 0.0
H571 H 0.61669 0.27812 0.83372 0.0
H572 H 0.54407 0.33822 0.75566 0.0
H573 H 0.58597 0.39272 0.75782 0.0
C574 C 0.65293 0.3958 0.79325 0.0
C575 C 0.68819 0.39259 0.81146 0.0
C576 C 0.62628 0.36665 0.79604 0.0
C577 C 0.69485 0.36158 0.83561 0.0
C578 C 0.66805 0.33287 0.83923 0.0
C579 C 0.60964 0.30339 0.81774 0.0
C580 C 0.57768 0.30375 0.79402 0.0
C581 C 0.63431 0.33442 0.81841 0.0
C582 C 0.56886 0.33687 0.77366 0.0
C583 C 0.5928 0.36811 0.77486 0.0
H584 H 0.65312 0.55903 0.78308 0.0
H585 H 0.74203 0.62417 0.83545 0.0
H586 H 0.69994 0.67876 0.83998 0.0
H587 H 0.64021 0.71037 0.82198 0.0
H588 H 0.55201 0.64434 0.76931 0.0
H589 H 0.59143 0.58812 0.77229 0.0
C590 C 0.66319 0.58497 0.79598 0.0
C591 C 0.70086 0.58757 0.80821 0.0
C592 C 0.63907 0.61647 0.79809 0.0
C593 C 0.7132 0.62132 0.82543 0.0
C594 C 0.68921 0.65273 0.82791 0.0
C595 C 0.62946 0.68358 0.81169 0.0
C596 C 0.59357 0.68195 0.79466 0.0
C597 C 0.65244 0.65102 0.8132 0.0
C598 C 0.57989 0.64679 0.78182 0.0
C599 C 0.60236 0.61444 0.78355 0.0
H600 H 0.56737 0.65341 0.22133 0.0
H601 H 0.63227 0.72623 0.14781 0.0
H602 H 0.67958 0.67672 0.13954 0.0
H603 H 0.7059 0.61527 0.15829 0.0
H604 H 0.64074 0.54231 0.23154 0.0
H605 H 0.59024 0.58913 0.2342 0.0
C606 C 0.59166 0.65832 0.2032 0.0
C607 C 0.59646 0.69371 0.18578 0.0
C608 C 0.61897 0.62976 0.19857 0.0
C609 C 0.62785 0.69936 0.16185 0.0
C610 C 0.65509 0.67108 0.15712 0.0
C611 C 0.68047 0.60935 0.17443 0.0
C612 C 0.67761 0.57556 0.19518 0.0
C613 C 0.65144 0.63653 0.17614 0.0
C614 C 0.64409 0.56822 0.21553 0.0
C615 C 0.6151 0.59506 0.21722 0.0
H616 H 0.36834 0.72221 0.16701 0.0
H617 H 0.44479 0.65522 0.23533 0.0
H618 H 0.399 0.60405 0.2373 0.0
H619 H 0.33522 0.58046 0.2247 0.0
H620 H 0.25828 0.64735 0.15692 0.0
H621 H 0.30648 0.69595 0.14944 0.0
C622 C 0.37525 0.69625 0.18191 0.0
C623 C 0.40984 0.69298 0.20141 0.0
C624 C 0.34857 0.66686 0.18332 0.0
C625 C 0.41827 0.65889 0.22036 0.0
C626 C 0.39205 0.6295 0.22159 0.0
C627 C 0.32903 0.60547 0.20797 0.0
C628 C 0.29292 0.61032 0.19188 0.0
C629 C 0.35675 0.63355 0.204 0.0
C630 C 0.28571 0.64281 0.1699 0.0
C631 C 0.31325 0.67077 0.16565 0.0
H632 H 0.60833 0.27545 0.15355 0.0
H633 H 0.5322 0.34679 0.21784 0.0
H634 H 0.57728 0.39852 0.21447 0.0
H635 H 0.64076 0.42108 0.19988 0.0
H636 H 0.71828 0.34977 0.13755 0.0
H637 H 0.66973 0.30087 0.13278 0.0
C638 C 0.60134 0.30244 0.16644 0.0
C639 C 0.56712 0.30685 0.18654 0.0
C640 C 0.62766 0.33211 0.16484 0.0
C641 C 0.55847 0.34226 0.20264 0.0
C642 C 0.58425 0.37196 0.20074 0.0
C643 C 0.64697 0.39506 0.18477 0.0
C644 C 0.68334 0.38887 0.16967 0.0
C645 C 0.61934 0.36681 0.18293 0.0
C646 C 0.69059 0.35526 0.1496 0.0
C647 C 0.66292 0.32714 0.14711 0.0
H648 H 0.18517 0.94395 0.44887 0.0
H649 H 0.18424 0.93337 0.57057 0.0
H650 H 0.17711 0.00178 0.57687 0.0
H651 H 0.17179 0.06487 0.54793 0.0
H652 H 0.17179 0.07491 0.42606 0.0
H653 H 0.17834 0.00666 0.41999 0.0
C654 C 0.18357 0.95657 0.47679 0.0
C655 C 0.18541 0.93342 0.50914 0.0
C656 C 0.17909 -0.00404 0.48029 0.0
C657 C 0.18286 0.95038 0.5451 0.0
C658 C 0.17877 0.98957 0.54878 0.0
C659 C 0.17301 0.05218 0.52002 0.0
C660 C 0.17135 0.07531 0.48758 0.0
C661 C 0.17686 0.01268 0.51657 0.0
C662 C 0.17299 0.05809 0.45165 0.0
C663 C 0.17685 0.01893 0.44806 0.0
H664 H 0.04666 0.19535 0.43897 0.0
H665 H 0.05393 0.22146 0.5581 0.0
H666 H 0.98522 0.21893 0.56345 0.0
H667 H 0.92319 0.20542 0.53541 0.0
H668 H 0.91597 0.17847 0.41641 0.0
H669 H 0.98425 0.1853 0.41015 0.0
C670 C 0.03323 0.20101 0.466 0.0
C671 C 0.05563 0.20833 0.49808 0.0
C672 C 0.99358 0.19898 0.46911 0.0
C673 C 0.03756 0.21547 0.53291 0.0
C674 C -0.00182 0.21396 0.53608 0.0
C675 C 0.93646 0.20115 0.50805 0.0
C676 C 0.91426 0.19109 0.47659 0.0
C677 C 0.97593 0.205 0.50454 0.0
C678 C 0.93216 0.18602 0.4413 0.0
C679 C 0.97132 0.18994 0.4376 0.0
H680 H 0.80646 0.04478 0.43643 0.0
H681 H 0.80027 0.05929 0.55766 0.0
H682 H 0.80579 0.99117 0.56658 0.0
H683 H 0.81258 0.92736 0.54015 0.0
H684 H 0.81892 0.91315 0.41886 0.0
H685 H 0.81325 0.98116 0.41006 0.0
C686 C 0.80617 0.0331 0.46482 0.0
C687 C 0.80297 0.05725 0.49623 0.0
C688 C 0.80953 0.99386 0.46987 0.0
C689 C 0.80281 0.04148 0.53285 0.0
C690 C 0.80597 0.00246 0.53806 0.0
C691 C 0.81284 0.93911 0.5118 0.0
C692 C 0.81618 0.91502 0.48032 0.0
C693 C 0.80947 0.97838 0.50678 0.0
C694 C 0.81634 0.93087 0.44374 0.0
C695 C 0.81307 0.96985 0.43858 0.0
H696 H 0.06786 0.77514 0.53499 0.0
H697 H 0.0817 0.82123 0.42269 0.0
H698 H 0.01335 0.81778 0.41245 0.0
H699 H 0.94899 0.80644 0.43763 0.0
H700 H 0.9367 0.76178 0.55073 0.0
H701 H 0.00506 0.75973 0.55816 0.0
C702 C 0.05607 0.7843 0.50815 0.0
C703 C 0.07988 0.79889 0.47991 0.0
C704 C 0.01689 0.78263 0.50259 0.0
C705 C 0.06403 0.81005 0.44508 0.0
C706 C 0.02491 0.80817 0.4392 0.0
C707 C 0.96137 0.7958 0.46364 0.0
C708 C 0.93779 0.78481 0.49373 0.0
C709 C 0.00096 0.7952 0.46806 0.0
C710 C 0.9542 0.77102 0.52732 0.0
C711 C 0.99332 0.76977 0.53164 0.0
H712 H 0.5355 0.1999 0.92857 0.0
H713 H 0.41447 0.19139 0.91296 0.0
H714 H 0.40509 0.19416 0.98124 0.0
H715 H 0.43134 0.19538 0.04531 0.0
H716 H 0.55248 0.20257 0.06079 0.0
H717 H 0.56151 0.20408 0.99247 0.0
C718 C 0.507 0.19891 0.93998 0.0
C719 C 0.4758 0.19513 0.91556 0.0
C720 C 0.50177 0.20009 0.97927 0.0
C721 C 0.43909 0.19405 0.93101 0.0
C722 C 0.43365 0.1956 0.9701 0.0
C723 C 0.45974 0.19753 0.03383 0.0
C724 C 0.49116 0.19853 0.05827 0.0
C725 C 0.46483 0.19804 -0.00551 0.0
C726 C 0.52773 0.20146 0.04274 0.0
C727 C 0.53297 0.20234 0.00363 0.0
H728 H 0.80514 0.54085 0.93057 0.0
H729 H 0.80412 0.41865 0.92291 0.0
H730 H 0.79823 0.41383 0.99089 0.0
H731 H 0.7943 0.44308 0.05231 0.0
H732 H 0.79643 0.56478 0.06305 0.0
H733 H 0.8005 0.57082 0.99403 0.0
C734 C 0.80369 0.5132 0.9438 0.0
C735 C 0.80518 0.48023 0.92135 0.0
C736 C 0.8003 0.5104 0.98345 0.0
C737 C 0.80311 0.44463 0.93913 0.0
C738 C 0.79967 0.44172 0.97818 0.0
C739 C 0.79548 0.4711 0.03983 0.0
C740 C 0.79513 0.50341 0.06303 0.0
C741 C 0.79831 0.47431 0.00053 0.0
C742 C 0.79665 0.53936 0.04595 0.0
C743 C 0.7991 0.54282 0.00647 0.0
H744 H 0.55481 0.8007 0.05542 0.0
H745 H 0.43361 0.78821 0.06623 0.0
H746 H 0.42781 0.78191 -0.00207 0.0
H747 H 0.45637 0.78288 0.93492 0.0
H748 H 0.57737 0.79626 0.92348 0.0
H749 H 0.58382 0.79889 0.99216 0.0
C750 C 0.52712 0.79643 0.04292 0.0
C751 C 0.49472 0.79525 0.06616 0.0
C752 C 0.52384 0.79299 0.0034 0.0
C753 C 0.45911 0.7895 0.04924 0.0
C754 C 0.45569 0.78586 0.01007 0.0
C755 C 0.48425 0.78606 0.94732 0.0
C756 C 0.51626 0.78957 0.92382 0.0
C757 C 0.48779 0.78799 0.98685 0.0
C758 C 0.55213 0.79361 0.94069 0.0
C759 C 0.55589 0.79521 0.98005 0.0
H760 H 0.18601 0.55198 0.93948 0.0
H761 H 0.19814 0.43031 0.93483 0.0
H762 H 0.19727 0.42722 0.00369 0.0
H763 H 0.19092 0.45863 0.06496 0.0
H764 H 0.17808 0.58024 0.06956 0.0
H765 H 0.18145 0.58356 0.00081 0.0
C766 C 0.1887 0.52476 0.95344 0.0
C767 C 0.19194 0.49145 0.93192 0.0
C768 C 0.18787 0.52308 0.99303 0.0
C769 C 0.19541 0.45645 0.95062 0.0
C770 C 0.19489 0.4546 0.99003 0.0
C771 C 0.1889 0.48591 0.05102 0.0
C772 C 0.18403 0.51906 0.07249 0.0
C773 C 0.19074 0.48769 0.01147 0.0
C774 C 0.1817 0.55418 0.05382 0.0
C775 C 0.18363 0.55616 0.01446 0.0
H776 H 0.0517 0.4554 0.18281 0.0
H777 H 0.05397 0.5751 0.20756 0.0
H778 H 0.98507 0.57725 0.20718 0.0
H779 H 0.92397 0.5457 0.19829 0.0
H780 H 0.92187 0.42605 0.17319 0.0
H781 H 0.99066 0.4236 0.17533 0.0
C782 C 0.03719 0.48194 0.18831 0.0
C783 C 0.0582 0.51499 0.19504 0.0
C784 C -0.00257 0.48315 0.18787 0.0
C785 C 0.03871 0.54914 0.2021 0.0
C786 C -0.0008 0.55047 0.2019 0.0
C787 C 0.93849 0.51906 0.19333 0.0
C788 C 0.91754 0.48622 0.18544 0.0
C789 C 0.97825 0.51773 0.19452 0.0
C790 C 0.93706 0.45192 0.17923 0.0
C791 C 0.97652 0.4504 0.18045 0.0
H792 H 0.93519 0.53585 0.80075 0.0
H793 H 0.93074 0.41399 0.7914 0.0
H794 H -0.00031 0.41072 0.79434 0.0
H795 H 0.06072 0.44221 0.80192 0.0
H796 H 0.06469 0.56406 0.81213 0.0
H797 H -0.00395 0.56737 0.80656 0.0
C798 C 0.94919 0.50852 0.79909 0.0
C799 C 0.92778 0.47522 0.79606 0.0
C800 C 0.98866 0.50678 0.80123 0.0
C801 C 0.94651 0.4401 0.79389 0.0
C802 C 0.98592 0.43817 0.79565 0.0
C803 C 0.04664 0.46953 0.80299 0.0
C804 C 0.06785 0.50278 0.80769 0.0
C805 C 0.0072 0.4713 0.7998 0.0
C806 C 0.0491 0.53796 0.80867 0.0
C807 C 0.00984 0.53993 0.80545 0.0
H808 H 0.44502 0.04722 0.80551 0.0
H809 H 0.5659 0.06515 0.80241 0.0
H810 H 0.57692 -0.00278 0.80332 0.0
H811 H 0.55263 0.93217 0.80519 0.0
H812 H 0.43175 0.91433 0.80921 0.0
H813 H 0.42075 0.98221 0.80777 0.0
C814 C 0.47376 0.0363 0.80497 0.0
C815 C 0.50443 0.06153 0.80397 0.0
C816 C 0.48012 -0.00306 0.80572 0.0
C817 C 0.54155 0.04664 0.80341 0.0
C818 C 0.54801 0.00764 0.80385 0.0
C819 C 0.52389 0.94309 0.80573 0.0
C820 C 0.49323 0.91788 0.80737 0.0
C821 C 0.51755 0.98246 0.80507 0.0
C822 C 0.45612 0.9328 0.80813 0.0
C823 C 0.44966 0.97178 0.80723 0.0
H824 H 0.44417 0.93598 0.17657 0.0
H825 H 0.56625 0.93275 0.1848 0.0
H826 H 0.56834 0.00151 0.18395 0.0
H827 H 0.53586 0.06257 0.18066 0.0
H828 H 0.41383 0.06607 0.17214 0.0
H829 H 0.41162 -0.00278 0.17334 0.0
C830 C 0.47125 0.95026 0.17821 0.0
C831 C 0.50492 0.92907 0.18071 0.0
C832 C 0.47237 0.98992 0.17764 0.0
C833 C 0.53978 0.94819 0.18278 0.0
C834 C 0.54108 0.9876 0.18232 0.0
C835 C 0.50875 0.04836 0.1791 0.0
C836 C 0.47514 0.06959 0.17629 0.0
C837 C 0.50758 0.00873 0.17972 0.0
C838 C 0.44025 0.05054 0.17425 0.0
C839 C 0.43889 0.0111 0.17495 0.0
loop_
_geom_bond_atom_site_label_1
_geom_bond_atom_site_label_2
_geom_bond_distance
_geom_bond_site_symmetry_2
_ccdc_geom_bond_type
Sc0 O3 2.025 . S
Sc0 O10 2.105 . S
Sc0 O13 2.105 . S
Sc0 O16 2.105 . S
Sc0 O19 2.105 . S
Sc1 O3 2.025 . S
Sc1 O11 2.105 . S
Sc1 O15 2.105 . S
Sc1 O17 2.105 . S
Sc1 O21 2.105 . S
Sc2 O3 2.025 . S
Sc2 O12 2.105 . S
Sc2 O14 2.105 . S
Sc2 O18 2.105 . S
Sc2 O20 2.105 . S
O3 Sc0 2.025 . S
O3 Sc1 2.025 . S
O3 Sc2 2.025 . S
C4 O10 1.268 . S
C4 O20 1.268 . S
C5 O11 1.268 . S
C5 O19 1.268 . S
C6 O12 1.268 . S
C6 O21 1.268 . S
C7 O13 1.268 . S
C7 O17 1.268 . S
C8 O14 1.268 . S
C8 O16 1.268 . S
C9 O15 1.268 . S
C9 O18 1.268 . S
O10 Sc0 2.105 . S
O10 C4 1.268 . S
O11 Sc1 2.105 . S
O11 C5 1.268 . S
O12 Sc2 2.105 . S
O12 C6 1.268 . S
O13 Sc0 2.105 . S
O13 C7 1.268 . S
O14 Sc2 2.105 . S
O14 C8 1.268 . S
O15 Sc1 2.105 . S
O15 C9 1.268 . S
O16 Sc0 2.105 . S
O16 C8 1.268 . S
O17 Sc1 2.105 . S
O17 C7 1.268 . S
O18 Sc2 2.105 . S
O18 C9 1.268 . S
O19 Sc0 2.105 . S
O19 C5 1.268 . S
O20 Sc2 2.105 . S
O20 C4 1.268 . S
O21 Sc1 2.105 . S
O21 C6 1.268 . S
Sc22 O25 2.025 . S
Sc22 O32 2.105 . S
Sc22 O35 2.105 . S
Sc22 O38 2.105 . S
Sc22 O41 2.105 . S
Sc23 O25 2.025 . S
Sc23 O33 2.105 . S
Sc23 O37 2.105 . S
Sc23 O39 2.105 . S
Sc23 O43 2.105 . S
Sc24 O25 2.025 . S
Sc24 O34 2.105 . S
Sc24 O36 2.105 . S
Sc24 O40 2.105 . S
Sc24 O42 2.105 . S
O25 Sc22 2.025 . S
O25 Sc23 2.025 . S
O25 Sc24 2.025 . S
C26 O32 1.268 . S
C26 O42 1.268 . S
C27 O33 1.268 . S
C27 O41 1.268 . S
C28 O34 1.268 . S
C28 O43 1.268 . S
C29 O35 1.268 . S
C29 O39 1.268 . S
C30 O36 1.268 . S
C30 O38 1.268 . S
C31 O37 1.268 . S
C31 O40 1.268 . S
O32 Sc22 2.105 . S
O32 C26 1.268 . S
O33 Sc23 2.105 . S
O33 C27 1.268 . S
O34 Sc24 2.105 . S
O34 C28 1.268 . S
O35 Sc22 2.105 . S
O35 C29 1.268 . S
O36 Sc24 2.105 . S
O36 C30 1.268 . S
O37 Sc23 2.105 . S
O37 C31 1.268 . S
O38 Sc22 2.105 . S
O38 C30 1.268 . S
O39 Sc23 2.105 . S
O39 C29 1.268 . S
O40 Sc24 2.105 . S
O40 C31 1.268 . S
O41 Sc22 2.105 . S
O41 C27 1.268 . S
O42 Sc24 2.105 . S
O42 C26 1.268 . S
O43 Sc23 2.105 . S
O43 C28 1.268 . S
Sc44 O47 2.025 . S
Sc44 O54 2.105 . S
Sc44 O57 2.105 . S
Sc44 O60 2.105 . S
Sc44 O63 2.105 . S
Sc45 O47 2.025 . S
Sc45 O55 2.105 . S
Sc45 O59 2.105 . S
Sc45 O61 2.105 . S
Sc45 O65 2.105 . S
Sc46 O47 2.025 . S
Sc46 O56 2.105 . S
Sc46 O58 2.105 . S
Sc46 O62 2.105 . S
Sc46 O64 2.105 . S
O47 Sc44 2.025 . S
O47 Sc45 2.025 . S
O47 Sc46 2.025 . S
C48 O54 1.268 . S
C48 O64 1.268 . S
C49 O55 1.268 . S
C49 O63 1.268 . S
C50 O56 1.268 . S
C50 O65 1.268 . S
C51 O57 1.268 . S
C51 O61 1.268 . S
C52 O58 1.268 . S
C52 O60 1.268 . S
C53 O59 1.268 . S
C53 O62 1.268 . S
O54 Sc44 2.105 . S
O54 C48 1.268 . S
O55 Sc45 2.105 . S
O55 C49 1.268 . S
O56 Sc46 2.105 . S
O56 C50 1.268 . S
O57 Sc44 2.105 . S
O57 C51 1.268 . S
O58 Sc46 2.105 . S
O58 C52 1.268 . S
O59 Sc45 2.105 . S
O59 C53 1.268 . S
O60 Sc44 2.105 . S
O60 C52 1.268 . S
O61 Sc45 2.105 . S
O61 C51 1.268 . S
O62 Sc46 2.105 . S
O62 C53 1.268 . S
O63 Sc44 2.105 . S
O63 C49 1.268 . S
O64 Sc46 2.105 . S
O64 C48 1.268 . S
O65 Sc45 2.105 . S
O65 C50 1.268 . S
Sc66 O69 2.025 . S
Sc66 O76 2.105 . S
Sc66 O79 2.105 . S
Sc66 O82 2.105 . S
Sc66 O85 2.105 . S
Sc67 O69 2.025 . S
Sc67 O77 2.105 . S
Sc67 O81 2.105 . S
Sc67 O83 2.105 . S
Sc67 O87 2.105 . S
Sc68 O69 2.025 . S
Sc68 O78 2.105 . S
Sc68 O80 2.105 . S
Sc68 O84 2.105 . S
Sc68 O86 2.105 . S
O69 Sc66 2.025 . S
O69 Sc67 2.025 . S
O69 Sc68 2.025 . S
C70 O76 1.268 . S
C70 O86 1.268 . S
C71 O77 1.268 . S
C71 O85 1.268 . S
C72 O78 1.268 . S
C72 O87 1.268 . S
C73 O79 1.268 . S
C73 O83 1.268 . S
C74 O80 1.268 . S
C74 O82 1.268 . S
C75 O81 1.268 . S
C75 O84 1.268 . S
O76 Sc66 2.105 . S
O76 C70 1.268 . S
O77 Sc67 2.105 . S
O77 C71 1.268 . S
O78 Sc68 2.105 . S
O78 C72 1.268 . S
O79 Sc66 2.105 . S
O79 C73 1.268 . S
O80 Sc68 2.105 . S
O80 C74 1.268 . S
O81 Sc67 2.105 . S
O81 C75 1.268 . S
O82 Sc66 2.105 . S
O82 C74 1.268 . S
O83 Sc67 2.105 . S
O83 C73 1.268 . S
O84 Sc68 2.105 . S
O84 C75 1.268 . S
O85 Sc66 2.105 . S
O85 C71 1.268 . S
O86 Sc68 2.105 . S
O86 C70 1.268 . S
O87 Sc67 2.105 . S
O87 C72 1.268 . S
Sc88 O91 2.025 . S
Sc88 O98 2.105 . S
Sc88 O101 2.105 . S
Sc88 O104 2.105 . S
Sc88 O107 2.105 . S
Sc89 O91 2.025 . S
Sc89 O99 2.105 . S
Sc89 O103 2.105 . S
Sc89 O105 2.105 . S
Sc89 O109 2.105 . S
Sc90 O91 2.025 . S
Sc90 O100 2.105 . S
Sc90 O102 2.105 . S
Sc90 O106 2.105 . S
Sc90 O108 2.105 . S
O91 Sc88 2.025 . S
O91 Sc89 2.025 . S
O91 Sc90 2.025 . S
C92 O98 1.268 . S
C92 O108 1.268 . S
C93 O99 1.268 . S
C93 O107 1.268 . S
C94 O100 1.268 . S
C94 O109 1.268 . S
C95 O101 1.268 . S
C95 O105 1.268 . S
C96 O102 1.268 . S
C96 O104 1.268 . S
C97 O103 1.268 . S
C97 O106 1.268 . S
O98 Sc88 2.105 . S
O98 C92 1.268 . S
O99 Sc89 2.105 . S
O99 C93 1.268 . S
O100 Sc90 2.105 . S
O100 C94 1.268 . S
O101 Sc88 2.105 . S
O101 C95 1.268 . S
O102 Sc90 2.105 . S
O102 C96 1.268 . S
O103 Sc89 2.105 . S
O103 C97 1.268 . S
O104 Sc88 2.105 . S
O104 C96 1.268 . S
O105 Sc89 2.105 . S
O105 C95 1.268 . S
O106 Sc90 2.105 . S
O106 C97 1.268 . S
O107 Sc88 2.105 . S
O107 C93 1.268 . S
O108 Sc90 2.105 . S
O108 C92 1.268 . S
O109 Sc89 2.105 . S
O109 C94 1.268 . S
Sc110 O113 2.025 . S
Sc110 O120 2.105 . S
Sc110 O123 2.105 . S
Sc110 O126 2.105 . S
Sc110 O129 2.105 . S
Sc111 O113 2.025 . S
Sc111 O121 2.105 . S
Sc111 O125 2.105 . S
Sc111 O127 2.105 . S
Sc111 O131 2.105 . S
Sc112 O113 2.025 . S
Sc112 O122 2.105 . S
Sc112 O124 2.105 . S
Sc112 O128 2.105 . S
Sc112 O130 2.105 . S
O113 Sc110 2.025 . S
O113 Sc111 2.025 . S
O113 Sc112 2.025 . S
C114 O120 1.268 . S
C114 O130 1.268 . S
C115 O121 1.268 . S
C115 O129 1.268 . S
C116 O122 1.268 . S
C116 O131 1.268 . S
C117 O123 1.268 . S
C117 O127 1.268 . S
C118 O124 1.268 . S
C118 O126 1.268 . S
C119 O125 1.268 . S
C119 O128 1.268 . S
O120 Sc110 2.105 . S
O120 C114 1.268 . S
O121 Sc111 2.105 . S
O121 C115 1.268 . S
O122 Sc112 2.105 . S
O122 C116 1.268 . S
O123 Sc110 2.105 . S
O123 C117 1.268 . S
O124 Sc112 2.105 . S
O124 C118 1.268 . S
O125 Sc111 2.105 . S
O125 C119 1.268 . S
O126 Sc110 2.105 . S
O126 C118 1.268 . S
O127 Sc111 2.105 . S
O127 C117 1.268 . S
O128 Sc112 2.105 . S
O128 C119 1.268 . S
O129 Sc110 2.105 . S
O129 C115 1.268 . S
O130 Sc112 2.105 . S
O130 C114 1.268 . S
O131 Sc111 2.105 . S
O131 C116 1.268 . S
Sc132 O135 2.025 . S
Sc132 O142 2.105 . S
Sc132 O145 2.105 . S
Sc132 O148 2.105 . S
Sc132 O151 2.105 . S
Sc133 O135 2.025 . S
Sc133 O143 2.105 . S
Sc133 O147 2.105 . S
Sc133 O149 2.105 . S
Sc133 O153 2.105 . S
Sc134 O135 2.025 . S
Sc134 O144 2.105 . S
Sc134 O146 2.105 . S
Sc134 O150 2.105 . S
Sc134 O152 2.105 . S
O135 Sc132 2.025 . S
O135 Sc133 2.025 . S
O135 Sc134 2.025 . S
C136 O142 1.268 . S
C136 O152 1.268 . S
C137 O143 1.268 . S
C137 O151 1.268 . S
C138 O144 1.268 . S
C138 O153 1.268 . S
C139 O145 1.268 . S
C139 O149 1.268 . S
C140 O146 1.268 . S
C140 O148 1.268 . S
C141 O147 1.268 . S
C141 O150 1.268 . S
O142 Sc132 2.105 . S
O142 C136 1.268 . S
O143 Sc133 2.105 . S
O143 C137 1.268 . S
O144 Sc134 2.105 . S
O144 C138 1.268 . S
O145 Sc132 2.105 . S
O145 C139 1.268 . S
O146 Sc134 2.105 . S
O146 C140 1.268 . S
O147 Sc133 2.105 . S
O147 C141 1.268 . S
O148 Sc132 2.105 . S
O148 C140 1.268 . S
O149 Sc133 2.105 . S
O149 C139 1.268 . S
O150 Sc134 2.105 . S
O150 C141 1.268 . S
O151 Sc132 2.105 . S
O151 C137 1.268 . S
O152 Sc134 2.105 . S
O152 C136 1.268 . S
O153 Sc133 2.105 . S
O153 C138 1.268 . S
Sc154 O157 2.025 . S
Sc154 O164 2.105 . S
Sc154 O167 2.105 . S
Sc154 O170 2.105 . S
Sc154 O173 2.105 . S
Sc155 O157 2.025 . S
Sc155 O165 2.105 . S
Sc155 O169 2.105 . S
Sc155 O171 2.105 . S
Sc155 O175 2.105 . S
Sc156 O157 2.025 . S
Sc156 O166 2.105 . S
Sc156 O168 2.105 . S
Sc156 O172 2.105 . S
Sc156 O174 2.105 . S
O157 Sc154 2.025 . S
O157 Sc155 2.025 . S
O157 Sc156 2.025 . S
C158 O164 1.268 . S
C158 O174 1.268 . S
C159 O165 1.268 . S
C159 O173 1.268 . S
C160 O166 1.268 . S
C160 O175 1.268 . S
C161 O167 1.268 . S
C161 O171 1.268 . S
C162 O168 1.268 . S
C162 O170 1.268 . S
C163 O169 1.268 . S
C163 O172 1.268 . S
O164 Sc154 2.105 . S
O164 C158 1.268 . S
O165 Sc155 2.105 . S
O165 C159 1.268 . S
O166 Sc156 2.105 . S
O166 C160 1.268 . S
O167 Sc154 2.105 . S
O167 C161 1.268 . S
O168 Sc156 2.105 . S
O168 C162 1.268 . S
O169 Sc155 2.105 . S
O169 C163 1.268 . S
O170 Sc154 2.105 . S
O170 C162 1.268 . S
O171 Sc155 2.105 . S
O171 C161 1.268 . S
O172 Sc156 2.105 . S
O172 C163 1.268 . S
O173 Sc154 2.105 . S
O173 C159 1.268 . S
O174 Sc156 2.105 . S
O174 C158 1.268 . S
O175 Sc155 2.105 . S
O175 C160 1.268 . S
Sc176 O179 2.025 . S
Sc176 O186 2.105 . S
Sc176 O189 2.105 . S
Sc176 O192 2.105 . S
Sc176 O195 2.105 . S
Sc177 O179 2.025 . S
Sc177 O187 2.105 . S
Sc177 O191 2.105 . S
Sc177 O193 2.105 . S
Sc177 O197 2.105 . S
Sc178 O179 2.025 . S
Sc178 O188 2.105 . S
Sc178 O190 2.105 . S
Sc178 O194 2.105 . S
Sc178 O196 2.105 . S
O179 Sc176 2.025 . S
O179 Sc177 2.025 . S
O179 Sc178 2.025 . S
C180 O186 1.268 . S
C180 O196 1.268 . S
C181 O187 1.268 . S
C181 O195 1.268 . S
C182 O188 1.268 . S
C182 O197 1.268 . S
C183 O189 1.268 . S
C183 O193 1.268 . S
C184 O190 1.268 . S
C184 O192 1.268 . S
C185 O191 1.268 . S
C185 O194 1.268 . S
O186 Sc176 2.105 . S
O186 C180 1.268 . S
O187 Sc177 2.105 . S
O187 C181 1.268 . S
O188 Sc178 2.105 . S
O188 C182 1.268 . S
O189 Sc176 2.105 . S
O189 C183 1.268 . S
O190 Sc178 2.105 . S
O190 C184 1.268 . S
O191 Sc177 2.105 . S
O191 C185 1.268 . S
O192 Sc176 2.105 . S
O192 C184 1.268 . S
O193 Sc177 2.105 . S
O193 C183 1.268 . S
O194 Sc178 2.105 . S
O194 C185 1.268 . S
O195 Sc176 2.105 . S
O195 C181 1.268 . S
O196 Sc178 2.105 . S
O196 C180 1.268 . S
O197 Sc177 2.105 . S
O197 C182 1.268 . S
Sc198 O201 2.025 . S
Sc198 O208 2.105 . S
Sc198 O211 2.105 . S
Sc198 O214 2.105 . S
Sc198 O217 2.105 . S
Sc199 O201 2.025 . S
Sc199 O209 2.105 . S
Sc199 O213 2.105 . S
Sc199 O215 2.105 . S
Sc199 O219 2.105 . S
Sc200 O201 2.025 . S
Sc200 O210 2.105 . S
Sc200 O212 2.105 . S
Sc200 O216 2.105 . S
Sc200 O218 2.105 . S
O201 Sc198 2.025 . S
O201 Sc199 2.025 . S
O201 Sc200 2.025 . S
C202 O208 1.268 . S
C202 O218 1.268 . S
C203 O209 1.268 . S
C203 O217 1.268 . S
C204 O210 1.268 . S
C204 O219 1.268 . S
C205 O211 1.268 . S
C205 O215 1.268 . S
C206 O212 1.268 . S
C206 O214 1.268 . S
C207 O213 1.268 . S
C207 O216 1.268 . S
O208 Sc198 2.105 . S
O208 C202 1.268 . S
O209 Sc199 2.105 . S
O209 C203 1.268 . S
O210 Sc200 2.105 . S
O210 C204 1.268 . S
O211 Sc198 2.105 . S
O211 C205 1.268 . S
O212 Sc200 2.105 . S
O212 C206 1.268 . S
O213 Sc199 2.105 . S
O213 C207 1.268 . S
O214 Sc198 2.105 . S
O214 C206 1.268 . S
O215 Sc199 2.105 . S
O215 C205 1.268 . S
O216 Sc200 2.105 . S
O216 C207 1.268 . S
O217 Sc198 2.105 . S
O217 C203 1.268 . S
O218 Sc200 2.105 . S
O218 C202 1.268 . S
O219 Sc199 2.105 . S
O219 C204 1.268 . S
Sc220 O223 2.025 . S
Sc220 O230 2.105 . S
Sc220 O233 2.105 . S
Sc220 O236 2.105 . S
Sc220 O239 2.105 . S
Sc221 O223 2.025 . S
Sc221 O231 2.105 . S
Sc221 O235 2.105 . S
Sc221 O237 2.105 . S
Sc221 O241 2.105 . S
Sc222 O223 2.025 . S
Sc222 O232 2.105 . S
Sc222 O234 2.105 . S
Sc222 O238 2.105 . S
Sc222 O240 2.105 . S
O223 Sc220 2.025 . S
O223 Sc221 2.025 . S
O223 Sc222 2.025 . S
C224 O230 1.268 . S
C224 O240 1.268 . S
C225 O231 1.268 . S
C225 O239 1.268 . S
C226 O232 1.268 . S
C226 O241 1.268 . S
C227 O233 1.268 . S
C227 O237 1.268 . S
C228 O234 1.268 . S
C228 O236 1.268 . S
C229 O235 1.268 . S
C229 O238 1.268 . S
O230 Sc220 2.105 . S
O230 C224 1.268 . S
O231 Sc221 2.105 . S
O231 C225 1.268 . S
O232 Sc222 2.105 . S
O232 C226 1.268 . S
O233 Sc220 2.105 . S
O233 C227 1.268 . S
O234 Sc222 2.105 . S
O234 C228 1.268 . S
O235 Sc221 2.105 . S
O235 C229 1.268 . S
O236 Sc220 2.105 . S
O236 C228 1.268 . S
O237 Sc221 2.105 . S
O237 C227 1.268 . S
O238 Sc222 2.105 . S
O238 C229 1.268 . S
O239 Sc220 2.105 . S
O239 C225 1.268 . S
O240 Sc222 2.105 . S
O240 C224 1.268 . S
O241 Sc221 2.105 . S
O241 C226 1.268 . S
Sc242 O245 2.025 . S
Sc242 O252 2.105 . S
Sc242 O255 2.105 . S
Sc242 O258 2.105 . S
Sc242 O261 2.105 . S
Sc243 O245 2.025 . S
Sc243 O253 2.105 . S
Sc243 O257 2.105 . S
Sc243 O259 2.105 . S
Sc243 O263 2.105 . S
Sc244 O245 2.025 . S
Sc244 O254 2.105 . S
Sc244 O256 2.105 . S
Sc244 O260 2.105 . S
Sc244 O262 2.105 . S
O245 Sc242 2.025 . S
O245 Sc243 2.025 . S
O245 Sc244 2.025 . S
C246 O252 1.268 . S
C246 O262 1.268 . S
C247 O253 1.268 . S
C247 O261 1.268 . S
C248 O254 1.268 . S
C248 O263 1.268 . S
C249 O255 1.268 . S
C249 O259 1.268 . S
C250 O256 1.268 . S
C250 O258 1.268 . S
C251 O257 1.268 . S
C251 O260 1.268 . S
O252 Sc242 2.105 . S
O252 C246 1.268 . S
O253 Sc243 2.105 . S
O253 C247 1.268 . S
O254 Sc244 2.105 . S
O254 C248 1.268 . S
O255 Sc242 2.105 . S
O255 C249 1.268 . S
O256 Sc244 2.105 . S
O256 C250 1.268 . S
O257 Sc243 2.105 . S
O257 C251 1.268 . S
O258 Sc242 2.105 . S
O258 C250 1.268 . S
O259 Sc243 2.105 . S
O259 C249 1.268 . S
O260 Sc244 2.105 . S
O260 C251 1.268 . S
O261 Sc242 2.105 . S
O261 C247 1.268 . S
O262 Sc244 2.105 . S
O262 C246 1.268 . S
O263 Sc243 2.105 . S
O263 C248 1.268 . S
H264 C270 0.930 . S
H265 C273 0.930 . S
H266 C274 0.930 . S
H267 C275 0.930 . S
H268 C278 0.930 . S
H269 C279 0.930 . S
C270 H264 0.930 . S
C270 C271 1.355 . S
C270 C272 1.415 . S
C271 C270 1.355 . S
C271 C273 1.419 . S
C272 C270 1.415 . S
C272 C277 1.425 . S
C272 C279 1.409 . S
C273 H265 0.930 . S
C273 C271 1.419 . S
C273 C274 1.362 . S
C274 H266 0.930 . S
C274 C273 1.362 . S
C274 C277 1.409 . S
C275 H267 0.930 . S
C275 C276 1.355 . S
C275 C277 1.415 . S
C276 C275 1.355 . S
C276 C278 1.419 . S
C277 C272 1.425 . S
C277 C274 1.409 . S
C277 C275 1.415 . S
C278 H268 0.930 . S
C278 C276 1.419 . S
C278 C279 1.362 . S
C279 H269 0.930 . S
C279 C272 1.409 . S
C279 C278 1.362 . S
H280 C286 0.930 . S
H281 C289 0.930 . S
H282 C290 0.930 . S
H283 C291 0.930 . S
H284 C294 0.930 . S
H285 C295 0.930 . S
C286 H280 0.930 . S
C286 C287 1.355 . S
C286 C288 1.415 . S
C287 C286 1.355 . S
C287 C289 1.419 . S
C288 C286 1.415 . S
C288 C293 1.425 . S
C288 C295 1.409 . S
C289 H281 0.930 . S
C289 C287 1.419 . S
C289 C290 1.362 . S
C290 H282 0.930 . S
C290 C289 1.362 . S
C290 C293 1.409 . S
C291 H283 0.930 . S
C291 C292 1.355 . S
C291 C293 1.415 . S
C292 C291 1.355 . S
C292 C294 1.419 . S
C293 C288 1.425 . S
C293 C290 1.409 . S
C293 C291 1.415 . S
C294 H284 0.930 . S
C294 C292 1.419 . S
C294 C295 1.362 . S
C295 H285 0.930 . S
C295 C288 1.409 . S
C295 C294 1.362 . S
H296 C302 0.930 . S
H297 C305 0.930 . S
H298 C306 0.930 . S
H299 C307 0.930 . S
H300 C310 0.930 . S
H301 C311 0.930 . S
C302 H296 0.930 . S
C302 C303 1.355 . S
C302 C304 1.415 . S
C303 C302 1.355 . S
C303 C305 1.419 . S
C304 C302 1.415 . S
C304 C309 1.425 . S
C304 C311 1.409 . S
C305 H297 0.930 . S
C305 C303 1.419 . S
C305 C306 1.362 . S
C306 H298 0.930 . S
C306 C305 1.362 . S
C306 C309 1.409 . S
C307 H299 0.930 . S
C307 C308 1.355 . S
C307 C309 1.415 . S
C308 C307 1.355 . S
C308 C310 1.419 . S
C309 C304 1.425 . S
C309 C306 1.409 . S
C309 C307 1.415 . S
C310 H300 0.930 . S
C310 C308 1.419 . S
C310 C311 1.362 . S
C311 H301 0.930 . S
C311 C304 1.409 . S
C311 C310 1.362 . S
H312 C318 0.930 . S
H313 C321 0.930 . S
H314 C322 0.930 . S
H315 C323 0.930 . S
H316 C326 0.930 . S
H317 C327 0.930 . S
C318 H312 0.930 . S
C318 C319 1.355 . S
C318 C320 1.415 . S
C319 C318 1.355 . S
C319 C321 1.419 . S
C320 C318 1.415 . S
C320 C325 1.425 . S
C320 C327 1.409 . S
C321 H313 0.930 . S
C321 C319 1.419 . S
C321 C322 1.362 . S
C322 H314 0.930 . S
C322 C321 1.362 . S
C322 C325 1.409 . S
C323 H315 0.930 . S
C323 C324 1.355 . S
C323 C325 1.415 . S
C324 C323 1.355 . S
C324 C326 1.419 . S
C325 C320 1.425 . S
C325 C322 1.409 . S
C325 C323 1.415 . S
C326 H316 0.930 . S
C326 C324 1.419 . S
C326 C327 1.362 . S
C327 H317 0.930 . S
C327 C320 1.409 . S
C327 C326 1.362 . S
H328 C334 0.930 . S
H329 C337 0.930 . S
H330 C338 0.930 . S
H331 C339 0.930 . S
H332 C342 0.930 . S
H333 C343 0.930 . S
C334 H328 0.930 . S
C334 C335 1.355 . S
C334 C336 1.415 . S
C335 C334 1.355 . S
C335 C337 1.419 . S
C336 C334 1.415 . S
C336 C341 1.425 . S
C336 C343 1.409 . S
C337 H329 0.930 . S
C337 C335 1.419 . S
C337 C338 1.362 . S
C338 H330 0.930 . S
C338 C337 1.362 . S
C338 C341 1.409 . S
C339 H331 0.930 . S
C339 C340 1.355 . S
C339 C341 1.415 . S
C340 C339 1.355 . S
C340 C342 1.419 . S
C341 C336 1.425 . S
C341 C338 1.409 . S
C341 C339 1.415 . S
C342 H332 0.930 . S
C342 C340 1.419 . S
C342 C343 1.362 . S
C343 H333 0.930 . S
C343 C336 1.409 . S
C343 C342 1.362 . S
H344 C350 0.930 . S
H345 C353 0.930 . S
H346 C354 0.930 . S
H347 C355 0.930 . S
H348 C358 0.930 . S
H349 C359 0.930 . S
C350 H344 0.930 . S
C350 C351 1.355 . S
C350 C352 1.415 . S
C351 C350 1.355 . S
C351 C353 1.419 . S
C352 C350 1.415 . S
C352 C357 1.425 . S
C352 C359 1.409 . S
C353 H345 0.930 . S
C353 C351 1.419 . S
C353 C354 1.362 . S
C354 H346 0.930 . S
C354 C353 1.362 . S
C354 C357 1.409 . S
C355 H347 0.930 . S
C355 C356 1.355 . S
C355 C357 1.415 . S
C356 C355 1.355 . S
C356 C358 1.419 . S
C357 C352 1.425 . S
C357 C354 1.409 . S
C357 C355 1.415 . S
C358 H348 0.930 . S
C358 C356 1.419 . S
C358 C359 1.362 . S
C359 H349 0.930 . S
C359 C352 1.409 . S
C359 C358 1.362 . S
H360 C366 0.930 . S
H361 C369 0.930 . S
H362 C370 0.930 . S
H363 C371 0.930 . S
H364 C374 0.930 . S
H365 C375 0.930 . S
C366 H360 0.930 . S
C366 C367 1.355 . S
C366 C368 1.415 . S
C367 C366 1.355 . S
C367 C369 1.419 . S
C368 C366 1.415 . S
C368 C373 1.425 . S
C368 C375 1.409 . S
C369 H361 0.930 . S
C369 C367 1.419 . S
C369 C370 1.362 . S
C370 H362 0.930 . S
C370 C369 1.362 . S
C370 C373 1.409 . S
C371 H363 0.930 . S
C371 C372 1.355 . S
C371 C373 1.415 . S
C372 C371 1.355 . S
C372 C374 1.419 . S
C373 C368 1.425 . S
C373 C370 1.409 . S
C373 C371 1.415 . S
C374 H364 0.930 . S
C374 C372 1.419 . S
C374 C375 1.362 . S
C375 H365 0.930 . S
C375 C368 1.409 . S
C375 C374 1.362 . S
H376 C382 0.930 . S
H377 C385 0.930 . S
H378 C386 0.930 . S
H379 C387 0.930 . S
H380 C390 0.930 . S
H381 C391 0.930 . S
C382 H376 0.930 . S
C382 C383 1.355 . S
C382 C384 1.415 . S
C383 C382 1.355 . S
C383 C385 1.419 . S
C384 C382 1.415 . S
C384 C389 1.425 . S
C384 C391 1.409 . S
C385 H377 0.930 . S
C385 C383 1.419 . S
C385 C386 1.362 . S
C386 H378 0.930 . S
C386 C385 1.362 . S
C386 C389 1.409 . S
C387 H379 0.930 . S
C387 C388 1.355 . S
C387 C389 1.415 . S
C388 C387 1.355 . S
C388 C390 1.419 . S
C389 C384 1.425 . S
C389 C386 1.409 . S
C389 C387 1.415 . S
C390 H380 0.930 . S
C390 C388 1.419 . S
C390 C391 1.362 . S
C391 H381 0.930 . S
C391 C384 1.409 . S
C391 C390 1.362 . S
H392 C398 0.930 . S
H393 C401 0.930 . S
H394 C402 0.930 . S
H395 C403 0.930 . S
H396 C406 0.930 . S
H397 C407 0.930 . S
C398 H392 0.930 . S
C398 C399 1.355 . S
C398 C400 1.415 . S
C399 C398 1.355 . S
C399 C401 1.419 . S
C400 C398 1.415 . S
C400 C405 1.425 . S
C400 C407 1.409 . S
C401 H393 0.930 . S
C401 C399 1.419 . S
C401 C402 1.362 . S
C402 H394 0.930 . S
C402 C401 1.362 . S
C402 C405 1.409 . S
C403 H395 0.930 . S
C403 C404 1.355 . S
C403 C405 1.415 . S
C404 C403 1.355 . S
C404 C406 1.419 . S
C405 C400 1.425 . S
C405 C402 1.409 . S
C405 C403 1.415 . S
C406 H396 0.930 . S
C406 C404 1.419 . S
C406 C407 1.362 . S
C407 H397 0.930 . S
C407 C400 1.409 . S
C407 C406 1.362 . S
H408 C414 0.930 . S
H409 C417 0.930 . S
H410 C418 0.930 . S
H411 C419 0.930 . S
H412 C422 0.930 . S
H413 C423 0.930 . S
C414 H408 0.930 . S
C414 C415 1.355 . S
C414 C416 1.415 . S
C415 C414 1.355 . S
C415 C417 1.419 . S
C416 C414 1.415 . S
C416 C421 1.425 . S
C416 C423 1.409 . S
C417 H409 0.930 . S
C417 C415 1.419 . S
C417 C418 1.362 . S
C418 H410 0.930 . S
C418 C417 1.362 . S
C418 C421 1.409 . S
C419 H411 0.930 . S
C419 C420 1.355 . S
C419 C421 1.415 . S
C420 C419 1.355 . S
C420 C422 1.419 . S
C421 C416 1.425 . S
C421 C418 1.409 . S
C421 C419 1.415 . S
C422 H412 0.930 . S
C422 C420 1.419 . S
C422 C423 1.362 . S
C423 H413 0.930 . S
C423 C416 1.409 . S
C423 C422 1.362 . S
H424 C430 0.930 . S
H425 C433 0.930 . S
H426 C434 0.930 . S
H427 C435 0.930 . S
H428 C438 0.930 . S
H429 C439 0.930 . S
C430 H424 0.930 . S
C430 C431 1.355 . S
C430 C432 1.415 . S
C431 C430 1.355 . S
C431 C433 1.419 . S
C432 C430 1.415 . S
C432 C437 1.425 . S
C432 C439 1.409 . S
C433 H425 0.930 . S
C433 C431 1.419 . S
C433 C434 1.362 . S
C434 H426 0.930 . S
C434 C433 1.362 . S
C434 C437 1.409 . S
C435 H427 0.930 . S
C435 C436 1.355 . S
C435 C437 1.415 . S
C436 C435 1.355 . S
C436 C438 1.419 . S
C437 C432 1.425 . S
C437 C434 1.409 . S
C437 C435 1.415 . S
C438 H428 0.930 . S
C438 C436 1.419 . S
C438 C439 1.362 . S
C439 H429 0.930 . S
C439 C432 1.409 . S
C439 C438 1.362 . S
H440 C446 0.930 . S
H441 C449 0.930 . S
H442 C450 0.930 . S
H443 C451 0.930 . S
H444 C454 0.930 . S
H445 C455 0.930 . S
C446 H440 0.930 . S
C446 C447 1.355 . S
C446 C448 1.415 . S
C447 C446 1.355 . S
C447 C449 1.419 . S
C448 C446 1.415 . S
C448 C453 1.425 . S
C448 C455 1.409 . S
C449 H441 0.930 . S
C449 C447 1.419 . S
C449 C450 1.362 . S
C450 H442 0.930 . S
C450 C449 1.362 . S
C450 C453 1.409 . S
C451 H443 0.930 . S
C451 C452 1.355 . S
C451 C453 1.415 . S
C452 C451 1.355 . S
C452 C454 1.419 . S
C453 C448 1.425 . S
C453 C450 1.409 . S
C453 C451 1.415 . S
C454 H444 0.930 . S
C454 C452 1.419 . S
C454 C455 1.362 . S
C455 H445 0.930 . S
C455 C448 1.409 . S
C455 C454 1.362 . S
H456 C462 0.930 . S
H457 C465 0.930 . S
H458 C466 0.930 . S
H459 C467 0.930 . S
H460 C470 0.930 . S
H461 C471 0.930 . S
C462 H456 0.930 . S
C462 C463 1.355 . S
C462 C464 1.415 . S
C463 C462 1.355 . S
C463 C465 1.419 . S
C464 C462 1.415 . S
C464 C469 1.425 . S
C464 C471 1.409 . S
C465 H457 0.930 . S
C465 C463 1.419 . S
C465 C466 1.362 . S
C466 H458 0.930 . S
C466 C465 1.362 . S
C466 C469 1.409 . S
C467 H459 0.930 . S
C467 C468 1.355 . S
C467 C469 1.415 . S
C468 C467 1.355 . S
C468 C470 1.419 . S
C469 C464 1.425 . S
C469 C466 1.409 . S
C469 C467 1.415 . S
C470 H460 0.930 . S
C470 C468 1.419 . S
C470 C471 1.362 . S
C471 H461 0.930 . S
C471 C464 1.409 . S
C471 C470 1.362 . S
H472 C478 0.930 . S
H473 C481 0.930 . S
H474 C482 0.930 . S
H475 C483 0.930 . S
H476 C486 0.930 . S
H477 C487 0.930 . S
C478 H472 0.930 . S
C478 C479 1.355 . S
C478 C480 1.415 . S
C479 C478 1.355 . S
C479 C481 1.419 . S
C480 C478 1.415 . S
C480 C485 1.425 . S
C480 C487 1.409 . S
C481 H473 0.930 . S
C481 C479 1.419 . S
C481 C482 1.362 . S
C482 H474 0.930 . S
C482 C481 1.362 . S
C482 C485 1.409 . S
C483 H475 0.930 . S
C483 C484 1.355 . S
C483 C485 1.415 . S
C484 C483 1.355 . S
C484 C486 1.419 . S
C485 C480 1.425 . S
C485 C482 1.409 . S
C485 C483 1.415 . S
C486 H476 0.930 . S
C486 C484 1.419 . S
C486 C487 1.362 . S
C487 H477 0.930 . S
C487 C480 1.409 . S
C487 C486 1.362 . S
H488 C494 0.930 . S
H489 C497 0.930 . S
H490 C498 0.930 . S
H491 C499 0.930 . S
H492 C502 0.930 . S
H493 C503 0.930 . S
C494 H488 0.930 . S
C494 C495 1.355 . S
C494 C496 1.415 . S
C495 C494 1.355 . S
C495 C497 1.419 . S
C496 C494 1.415 . S
C496 C501 1.425 . S
C496 C503 1.409 . S
C497 H489 0.930 . S
C497 C495 1.419 . S
C497 C498 1.362 . S
C498 H490 0.930 . S
C498 C497 1.362 . S
C498 C501 1.409 . S
C499 H491 0.930 . S
C499 C500 1.355 . S
C499 C501 1.415 . S
C500 C499 1.355 . S
C500 C502 1.419 . S
C501 C496 1.425 . S
C501 C498 1.409 . S
C501 C499 1.415 . S
C502 H492 0.930 . S
C502 C500 1.419 . S
C502 C503 1.362 . S
C503 H493 0.930 . S
C503 C496 1.409 . S
C503 C502 1.362 . S
H504 C510 0.930 . S
H505 C513 0.930 . S
H506 C514 0.930 . S
H507 C515 0.930 . S
H508 C518 0.930 . S
H509 C519 0.930 . S
C510 H504 0.930 . S
C510 C511 1.355 . S
C510 C512 1.415 . S
C511 C510 1.355 . S
C511 C513 1.419 . S
C512 C510 1.415 . S
C512 C517 1.425 . S
C512 C519 1.409 . S
C513 H505 0.930 . S
C513 C511 1.419 . S
C513 C514 1.362 . S
C514 H506 0.930 . S
C514 C513 1.362 . S
C514 C517 1.409 . S
C515 H507 0.930 . S
C515 C516 1.355 . S
C515 C517 1.415 . S
C516 C515 1.355 . S
C516 C518 1.419 . S
C517 C512 1.425 . S
C517 C514 1.409 . S
C517 C515 1.415 . S
C518 H508 0.930 . S
C518 C516 1.419 . S
C518 C519 1.362 . S
C519 H509 0.930 . S
C519 C512 1.409 . S
C519 C518 1.362 . S
H520 C526 0.930 . S
H521 C529 0.930 . S
H522 C530 0.930 . S
H523 C531 0.930 . S
H524 C534 0.930 . S
H525 C535 0.930 . S
C526 H520 0.930 . S
C526 C527 1.355 . S
C526 C528 1.415 . S
C527 C526 1.355 . S
C527 C529 1.419 . S
C528 C526 1.415 . S
C528 C533 1.425 . S
C528 C535 1.409 . S
C529 H521 0.930 . S
C529 C527 1.419 . S
C529 C530 1.362 . S
C530 H522 0.930 . S
C530 C529 1.362 . S
C530 C533 1.409 . S
C531 H523 0.930 . S
C531 C532 1.355 . S
C531 C533 1.415 . S
C532 C531 1.355 . S
C532 C534 1.419 . S
C533 C528 1.425 . S
C533 C530 1.409 . S
C533 C531 1.415 . S
C534 H524 0.930 . S
C534 C532 1.419 . S
C534 C535 1.362 . S
C535 H525 0.930 . S
C535 C528 1.409 . S
C535 C534 1.362 . S
H536 C542 0.930 . S
H537 C545 0.930 . S
H538 C546 0.930 . S
H539 C547 0.930 . S
H540 C550 0.930 . S
H541 C551 0.930 . S
C542 H536 0.930 . S
C542 C543 1.355 . S
C542 C544 1.415 . S
C543 C542 1.355 . S
C543 C545 1.419 . S
C544 C542 1.415 . S
C544 C549 1.425 . S
C544 C551 1.409 . S
C545 H537 0.930 . S
C545 C543 1.419 . S
C545 C546 1.362 . S
C546 H538 0.930 . S
C546 C545 1.362 . S
C546 C549 1.409 . S
C547 H539 0.930 . S
C547 C548 1.355 . S
C547 C549 1.415 . S
C548 C547 1.355 . S
C548 C550 1.419 . S
C549 C544 1.425 . S
C549 C546 1.409 . S
C549 C547 1.415 . S
C550 H540 0.930 . S
C550 C548 1.419 . S
C550 C551 1.362 . S
C551 H541 0.930 . S
C551 C544 1.409 . S
C551 C550 1.362 . S
H552 C558 0.930 . S
H553 C561 0.930 . S
H554 C562 0.930 . S
H555 C563 0.930 . S
H556 C566 0.930 . S
H557 C567 0.930 . S
C558 H552 0.930 . S
C558 C559 1.355 . S
C558 C560 1.415 . S
C559 C558 1.355 . S
C559 C561 1.419 . S
C560 C558 1.415 . S
C560 C565 1.425 . S
C560 C567 1.409 . S
C561 H553 0.930 . S
C561 C559 1.419 . S
C561 C562 1.362 . S
C562 H554 0.930 . S
C562 C561 1.362 . S
C562 C565 1.409 . S
C563 H555 0.930 . S
C563 C564 1.355 . S
C563 C565 1.415 . S
C564 C563 1.355 . S
C564 C566 1.419 . S
C565 C560 1.425 . S
C565 C562 1.409 . S
C565 C563 1.415 . S
C566 H556 0.930 . S
C566 C564 1.419 . S
C566 C567 1.362 . S
C567 H557 0.930 . S
C567 C560 1.409 . S
C567 C566 1.362 . S
H568 C574 0.930 . S
H569 C577 0.930 . S
H570 C578 0.930 . S
H571 C579 0.930 . S
H572 C582 0.930 . S
H573 C583 0.930 . S
C574 H568 0.930 . S
C574 C575 1.355 . S
C574 C576 1.415 . S
C575 C574 1.355 . S
C575 C577 1.419 . S
C576 C574 1.415 . S
C576 C581 1.425 . S
C576 C583 1.409 . S
C577 H569 0.930 . S
C577 C575 1.419 . S
C577 C578 1.362 . S
C578 H570 0.930 . S
C578 C577 1.362 . S
C578 C581 1.409 . S
C579 H571 0.930 . S
C579 C580 1.355 . S
C579 C581 1.415 . S
C580 C579 1.355 . S
C580 C582 1.419 . S
C581 C576 1.425 . S
C581 C578 1.409 . S
C581 C579 1.415 . S
C582 H572 0.930 . S
C582 C580 1.419 . S
C582 C583 1.362 . S
C583 H573 0.930 . S
C583 C576 1.409 . S
C583 C582 1.362 . S
H584 C590 0.930 . S
H585 C593 0.930 . S
H586 C594 0.930 . S
H587 C595 0.930 . S
H588 C598 0.930 . S
H589 C599 0.930 . S
C590 H584 0.930 . S
C590 C591 1.355 . S
C590 C592 1.415 . S
C591 C590 1.355 . S
C591 C593 1.419 . S
C592 C590 1.415 . S
C592 C597 1.425 . S
C592 C599 1.409 . S
C593 H585 0.930 . S
C593 C591 1.419 . S
C593 C594 1.362 . S
C594 H586 0.930 . S
C594 C593 1.362 . S
C594 C597 1.409 . S
C595 H587 0.930 . S
C595 C596 1.355 . S
C595 C597 1.415 . S
C596 C595 1.355 . S
C596 C598 1.419 . S
C597 C592 1.425 . S
C597 C594 1.409 . S
C597 C595 1.415 . S
C598 H588 0.930 . S
C598 C596 1.419 . S
C598 C599 1.362 . S
C599 H589 0.930 . S
C599 C592 1.409 . S
C599 C598 1.362 . S
H600 C606 0.930 . S
H601 C609 0.930 . S
H602 C610 0.930 . S
H603 C611 0.930 . S
H604 C614 0.930 . S
H605 C615 0.930 . S
C606 H600 0.930 . S
C606 C607 1.355 . S
C606 C608 1.415 . S
C607 C606 1.355 . S
C607 C609 1.419 . S
C608 C606 1.415 . S
C608 C613 1.425 . S
C608 C615 1.409 . S
C609 H601 0.930 . S
C609 C607 1.419 . S
C609 C610 1.362 . S
C610 H602 0.930 . S
C610 C609 1.362 . S
C610 C613 1.409 . S
C611 H603 0.930 . S
C611 C612 1.355 . S
C611 C613 1.415 . S
C612 C611 1.355 . S
C612 C614 1.419 . S
C613 C608 1.425 . S
C613 C610 1.409 . S
C613 C611 1.415 . S
C614 H604 0.930 . S
C614 C612 1.419 . S
C614 C615 1.362 . S
C615 H605 0.930 . S
C615 C608 1.409 . S
C615 C614 1.362 . S
H616 C622 0.930 . S
H617 C625 0.930 . S
H618 C626 0.930 . S
H619 C627 0.930 . S
H620 C630 0.930 . S
H621 C631 0.930 . S
C622 H616 0.930 . S
C622 C623 1.355 . S
C622 C624 1.415 . S
C623 C622 1.355 . S
C623 C625 1.419 . S
C624 C622 1.415 . S
C624 C629 1.425 . S
C624 C631 1.409 . S
C625 H617 0.930 . S
C625 C623 1.419 . S
C625 C626 1.362 . S
C626 H618 0.930 . S
C626 C625 1.362 . S
C626 C629 1.409 . S
C627 H619 0.930 . S
C627 C628 1.355 . S
C627 C629 1.415 . S
C628 C627 1.355 . S
C628 C630 1.419 . S
C629 C624 1.425 . S
C629 C626 1.409 . S
C629 C627 1.415 . S
C630 H620 0.930 . S
C630 C628 1.419 . S
C630 C631 1.362 . S
C631 H621 0.930 . S
C631 C624 1.409 . S
C631 C630 1.362 . S
H632 C638 0.930 . S
H633 C641 0.930 . S
H634 C642 0.930 . S
H635 C643 0.930 . S
H636 C646 0.930 . S
H637 C647 0.930 . S
C638 H632 0.930 . S
C638 C639 1.355 . S
C638 C640 1.415 . S
C639 C638 1.355 . S
C639 C641 1.419 . S
C640 C638 1.415 . S
C640 C645 1.425 . S
C640 C647 1.409 . S
C641 H633 0.930 . S
C641 C639 1.419 . S
C641 C642 1.362 . S
C642 H634 0.930 . S
C642 C641 1.362 . S
C642 C645 1.409 . S
C643 H635 0.930 . S
C643 C644 1.355 . S
C643 C645 1.415 . S
C644 C643 1.355 . S
C644 C646 1.419 . S
C645 C640 1.425 . S
C645 C642 1.409 . S
C645 C643 1.415 . S
C646 H636 0.930 . S
C646 C644 1.419 . S
C646 C647 1.362 . S
C647 H637 0.930 . S
C647 C640 1.409 . S
C647 C646 1.362 . S
H648 C654 0.930 . S
H649 C657 0.930 . S
H650 C658 0.930 . S
H651 C659 0.930 . S
H652 C662 0.930 . S
H653 C663 0.930 . S
C654 H648 0.930 . S
C654 C655 1.355 . S
C654 C656 1.415 . S
C655 C654 1.355 . S
C655 C657 1.419 . S
C656 C654 1.415 . S
C656 C661 1.425 1_565 S
C656 C663 1.409 1_565 S
C657 H649 0.930 . S
C657 C655 1.419 . S
C657 C658 1.362 . S
C658 H650 0.930 . S
C658 C657 1.362 . S
C658 C661 1.409 1_565 S
C659 H651 0.930 . S
C659 C660 1.355 . S
C659 C661 1.415 . S
C660 C659 1.355 . S
C660 C662 1.419 . S
C661 C656 1.425 1_545 S
C661 C658 1.409 1_545 S
C661 C659 1.415 . S
C662 H652 0.930 . S
C662 C660 1.419 . S
C662 C663 1.362 . S
C663 H653 0.930 . S
C663 C656 1.409 1_545 S
C663 C662 1.362 . S
H664 C670 0.930 . S
H665 C673 0.930 . S
H666 C674 0.930 . S
H667 C675 0.930 . S
H668 C678 0.930 . S
H669 C679 0.930 . S
C670 H664 0.930 . S
C670 C671 1.355 . S
C670 C672 1.415 . S
C671 C670 1.355 . S
C671 C673 1.419 . S
C672 C670 1.415 . S
C672 C677 1.425 1_455 S
C672 C679 1.409 1_455 S
C673 H665 0.930 . S
C673 C671 1.419 . S
C673 C674 1.362 . S
C674 H666 0.930 . S
C674 C673 1.362 . S
C674 C677 1.409 1_455 S
C675 H667 0.930 . S
C675 C676 1.355 . S
C675 C677 1.415 . S
C676 C675 1.355 . S
C676 C678 1.419 . S
C677 C672 1.425 1_655 S
C677 C674 1.409 1_655 S
C677 C675 1.415 . S
C678 H668 0.930 . S
C678 C676 1.419 . S
C678 C679 1.362 . S
C679 H669 0.930 . S
C679 C672 1.409 1_655 S
C679 C678 1.362 . S
H680 C686 0.930 . S
H681 C689 0.930 . S
H682 C690 0.930 . S
H683 C691 0.930 . S
H684 C694 0.930 . S
H685 C695 0.930 . S
C686 H680 0.930 . S
C686 C687 1.355 . S
C686 C688 1.415 . S
C687 C686 1.355 . S
C687 C689 1.419 . S
C688 C686 1.415 . S
C688 C693 1.425 1_545 S
C688 C695 1.409 1_545 S
C689 H681 0.930 . S
C689 C687 1.419 . S
C689 C690 1.362 . S
C690 H682 0.930 . S
C690 C689 1.362 . S
C690 C693 1.409 1_545 S
C691 H683 0.930 . S
C691 C692 1.355 . S
C691 C693 1.415 . S
C692 C691 1.355 . S
C692 C694 1.419 . S
C693 C688 1.425 1_565 S
C693 C690 1.409 1_565 S
C693 C691 1.415 . S
C694 H684 0.930 . S
C694 C692 1.419 . S
C694 C695 1.362 . S
C695 H685 0.930 . S
C695 C688 1.409 1_565 S
C695 C694 1.362 . S
H696 C702 0.930 . S
H697 C705 0.930 . S
H698 C706 0.930 . S
H699 C707 0.930 . S
H700 C710 0.930 . S
H701 C711 0.930 . S
C702 H696 0.930 . S
C702 C703 1.355 . S
C702 C704 1.415 . S
C703 C702 1.355 . S
C703 C705 1.419 . S
C704 C702 1.415 . S
C704 C709 1.425 1_455 S
C704 C711 1.409 1_455 S
C705 H697 0.930 . S
C705 C703 1.419 . S
C705 C706 1.362 . S
C706 H698 0.930 . S
C706 C705 1.362 . S
C706 C709 1.409 1_455 S
C707 H699 0.930 . S
C707 C708 1.355 . S
C707 C709 1.415 . S
C708 C707 1.355 . S
C708 C710 1.419 . S
C709 C704 1.425 1_655 S
C709 C706 1.409 1_655 S
C709 C707 1.415 . S
C710 H700 0.930 . S
C710 C708 1.419 . S
C710 C711 1.362 . S
C711 H701 0.930 . S
C711 C704 1.409 1_655 S
C711 C710 1.362 . S
H712 C718 0.930 . S
H713 C721 0.930 . S
H714 C722 0.930 . S
H715 C723 0.930 . S
H716 C726 0.930 . S
H717 C727 0.930 . S
C718 H712 0.930 . S
C718 C719 1.355 . S
C718 C720 1.415 . S
C719 C718 1.355 . S
C719 C721 1.419 . S
C720 C718 1.415 . S
C720 C725 1.425 1_556 S
C720 C727 1.409 1_556 S
C721 H713 0.930 . S
C721 C719 1.419 . S
C721 C722 1.362 . S
C722 H714 0.930 . S
C722 C721 1.362 . S
C722 C725 1.409 1_556 S
C723 H715 0.930 . S
C723 C724 1.355 . S
C723 C725 1.415 . S
C724 C723 1.355 . S
C724 C726 1.419 . S
C725 C720 1.425 1_554 S
C725 C722 1.409 1_554 S
C725 C723 1.415 . S
C726 H716 0.930 . S
C726 C724 1.419 . S
C726 C727 1.362 . S
C727 H717 0.930 . S
C727 C720 1.409 1_554 S
C727 C726 1.362 . S
H728 C734 0.930 . S
H729 C737 0.930 . S
H730 C738 0.930 . S
H731 C739 0.930 . S
H732 C742 0.930 . S
H733 C743 0.930 . S
C734 H728 0.930 . S
C734 C735 1.355 . S
C734 C736 1.415 . S
C735 C734 1.355 . S
C735 C737 1.419 . S
C736 C734 1.415 . S
C736 C741 1.425 1_556 S
C736 C743 1.409 1_556 S
C737 H729 0.930 . S
C737 C735 1.419 . S
C737 C738 1.362 . S
C738 H730 0.930 . S
C738 C737 1.362 . S
C738 C741 1.409 1_556 S
C739 H731 0.930 . S
C739 C740 1.355 . S
C739 C741 1.415 . S
C740 C739 1.355 . S
C740 C742 1.419 . S
C741 C736 1.425 1_554 S
C741 C738 1.409 1_554 S
C741 C739 1.415 . S
C742 H732 0.930 . S
C742 C740 1.419 . S
C742 C743 1.362 . S
C743 H733 0.930 . S
C743 C736 1.409 1_554 S
C743 C742 1.362 . S
H744 C750 0.930 . S
H745 C753 0.930 . S
H746 C754 0.930 . S
H747 C755 0.930 . S
H748 C758 0.930 . S
H749 C759 0.930 . S
C750 H744 0.930 . S
C750 C751 1.355 . S
C750 C752 1.415 . S
C751 C750 1.355 . S
C751 C753 1.419 . S
C752 C750 1.415 . S
C752 C757 1.425 1_554 S
C752 C759 1.409 1_554 S
C753 H745 0.930 . S
C753 C751 1.419 . S
C753 C754 1.362 . S
C754 H746 0.930 . S
C754 C753 1.362 . S
C754 C757 1.409 1_554 S
C755 H747 0.930 . S
C755 C756 1.355 . S
C755 C757 1.415 . S
C756 C755 1.355 . S
C756 C758 1.419 . S
C757 C752 1.425 1_556 S
C757 C754 1.409 1_556 S
C757 C755 1.415 . S
C758 H748 0.930 . S
C758 C756 1.419 . S
C758 C759 1.362 . S
C759 H749 0.930 . S
C759 C752 1.409 1_556 S
C759 C758 1.362 . S
H760 C766 0.930 . S
H761 C769 0.930 . S
H762 C770 0.930 . S
H763 C771 0.930 . S
H764 C774 0.930 . S
H765 C775 0.930 . S
C766 H760 0.930 . S
C766 C767 1.355 . S
C766 C768 1.415 . S
C767 C766 1.355 . S
C767 C769 1.419 . S
C768 C766 1.415 . S
C768 C773 1.425 1_556 S
C768 C775 1.409 1_556 S
C769 H761 0.930 . S
C769 C767 1.419 . S
C769 C770 1.362 . S
C770 H762 0.930 . S
C770 C769 1.362 . S
C770 C773 1.409 1_556 S
C771 H763 0.930 . S
C771 C772 1.355 . S
C771 C773 1.415 . S
C772 C771 1.355 . S
C772 C774 1.419 . S
C773 C768 1.425 1_554 S
C773 C770 1.409 1_554 S
C773 C771 1.415 . S
C774 H764 0.930 . S
C774 C772 1.419 . S
C774 C775 1.362 . S
C775 H765 0.930 . S
C775 C768 1.409 1_554 S
C775 C774 1.362 . S
H776 C782 0.930 . S
H777 C785 0.930 . S
H778 C786 0.930 . S
H779 C787 0.930 . S
H780 C790 0.930 . S
H781 C791 0.930 . S
C782 H776 0.930 . S
C782 C783 1.355 . S
C782 C784 1.415 . S
C783 C782 1.355 . S
C783 C785 1.419 . S
C784 C782 1.415 . S
C784 C789 1.425 1_455 S
C784 C791 1.409 1_455 S
C785 H777 0.930 . S
C785 C783 1.419 . S
C785 C786 1.362 . S
C786 H778 0.930 . S
C786 C785 1.362 . S
C786 C789 1.409 1_455 S
C787 H779 0.930 . S
C787 C788 1.355 . S
C787 C789 1.415 . S
C788 C787 1.355 . S
C788 C790 1.419 . S
C789 C784 1.425 1_655 S
C789 C786 1.409 1_655 S
C789 C787 1.415 . S
C790 H780 0.930 . S
C790 C788 1.419 . S
C790 C791 1.362 . S
C791 H781 0.930 . S
C791 C784 1.409 1_655 S
C791 C790 1.362 . S
H792 C798 0.930 . S
H793 C801 0.930 . S
H794 C802 0.930 . S
H795 C803 0.930 . S
H796 C806 0.930 . S
H797 C807 0.930 . S
C798 H792 0.930 . S
C798 C799 1.355 . S
C798 C800 1.415 . S
C799 C798 1.355 . S
C799 C801 1.419 . S
C800 C798 1.415 . S
C800 C805 1.425 1_655 S
C800 C807 1.409 1_655 S
C801 H793 0.930 . S
C801 C799 1.419 . S
C801 C802 1.362 . S
C802 H794 0.930 . S
C802 C801 1.362 . S
C802 C805 1.409 1_655 S
C803 H795 0.930 . S
C803 C804 1.355 . S
C803 C805 1.415 . S
C804 C803 1.355 . S
C804 C806 1.419 . S
C805 C800 1.425 1_455 S
C805 C802 1.409 1_455 S
C805 C803 1.415 . S
C806 H796 0.930 . S
C806 C804 1.419 . S
C806 C807 1.362 . S
C807 H797 0.930 . S
C807 C800 1.409 1_455 S
C807 C806 1.362 . S
H808 C814 0.930 . S
H809 C817 0.930 . S
H810 C818 0.930 . S
H811 C819 0.930 . S
H812 C822 0.930 . S
H813 C823 0.930 . S
C814 H808 0.930 . S
C814 C815 1.355 . S
C814 C816 1.415 . S
C815 C814 1.355 . S
C815 C817 1.419 . S
C816 C814 1.415 . S
C816 C821 1.425 1_545 S
C816 C823 1.409 1_545 S
C817 H809 0.930 . S
C817 C815 1.419 . S
C817 C818 1.362 . S
C818 H810 0.930 . S
C818 C817 1.362 . S
C818 C821 1.409 1_545 S
C819 H811 0.930 . S
C819 C820 1.355 . S
C819 C821 1.415 . S
C820 C819 1.355 . S
C820 C822 1.419 . S
C821 C816 1.425 1_565 S
C821 C818 1.409 1_565 S
C821 C819 1.415 . S
C822 H812 0.930 . S
C822 C820 1.419 . S
C822 C823 1.362 . S
C823 H813 0.930 . S
C823 C816 1.409 1_565 S
C823 C822 1.362 . S
H824 C830 0.930 . S
H825 C833 0.930 . S
H826 C834 0.930 . S
H827 C835 0.930 . S
H828 C838 0.930 . S
H829 C839 0.930 . S
C830 H824 0.930 . S
C830 C831 1.355 . S
C830 C832 1.415 . S
C831 C830 1.355 . S
C831 C833 1.419 . S
C832 C830 1.415 . S
C832 C837 1.425 1_565 S
C832 C839 1.409 1_565 S
C833 H825 0.930 . S
C833 C831 1.419 . S
C833 C834 1.362 . S
C834 H826 0.930 . S
C834 C833 1.362 . S
C834 C837 1.409 1_565 S
C835 H827 0.930 . S
C835 C836 1.355 . S
C835 C837 1.415 . S
C836 C835 1.355 . S
C836 C838 1.419 . S
C837 C832 1.425 1_545 S
C837 C834 1.409 1_545 S
C837 C835 1.415 . S
C838 H828 0.930 . S
C838 C836 1.419 . S
C838 C839 1.362 . S
C839 H829 0.930 . S
C839 C832 1.409 1_545 S
C839 C838 1.362 . S
C271 C5 1.403 . S
C276 C161 1.469 . S
C287 C94 1.472 . S
C292 C31 1.400 . S
C303 C53 1.422 . S
C308 C117 1.450 . S
C319 C71 1.434 . S
C324 C139 1.438 . S
C335 C75 1.408 . S
C340 C204 1.464 . S
C351 C9 1.423 . S
C356 C227 1.449 . S
C367 C248 1.464 . S
C372 C27 1.408 . S
C383 C49 1.444 . S
C388 C182 1.428 . S
C399 C93 1.435 . S
C404 C7 1.437 . S
C415 C119 1.465 . S
C420 C28 1.406 . S
C431 C141 1.444 . S
C436 C50 1.429 . S
C447 C73 1.402 . S
C452 C163 1.470 . S
C463 C72 1.406 . S
C468 C181 1.466 . S
C479 C6 1.468 . S
C484 C203 1.404 . S
C495 C229 1.463 . S
C500 C29 1.409 . S
C511 C247 1.400 . S
C516 C51 1.472 . S
C527 C95 1.404 . S
C532 C159 1.468 . S
C543 C207 1.415 . S
C548 C183 1.457 . S
C559 C205 1.407 . S
C564 C225 1.465 . S
C575 C251 1.421 . S
C580 C226 1.452 . S
C591 C249 1.404 . S
C596 C185 1.468 . S
C607 C138 1.400 . S
C612 C115 1.472 . S
C623 C137 1.468 . S
C628 C160 1.404 . S
C639 C97 1.400 . S
C644 C116 1.471 . S
C655 C70 1.530 . S
C660 C8 1.533 . S
C671 C4 1.549 . S
C676 C26 1.514 . S
C687 C30 1.535 . S
C692 C48 1.528 . S
C703 C74 1.520 . S
C708 C52 1.544 . S
C719 C224 1.517 . S
C724 C96 1.546 . S
C735 C250 1.521 . S
C740 C114 1.542 . S
C751 C136 1.523 . S
C756 C184 1.540 . S
C767 C206 1.546 . S
C772 C158 1.517 . S
C783 C162 1.540 . S
C788 C118 1.523 . S
C799 C246 1.533 . S
C804 C202 1.530 . S
C815 C228 1.544 . S
C820 C180 1.519 . S
C831 C140 1.523 . S
C836 C92 1.540 . S
