# Generated by pormake.
# Topology bcs, (6)-cn, num edge types: 1
# Building blocks:
#     Node 0, Type 0, BuildingBlock: FUNLAD_clean_sbu_0, # of connection points: 6
#     Node 1, Type 0, BuildingBlock: FUNLAD_clean_sbu_0, # of connection points: 6
#     Node 2, Type 0, BuildingBlock: FUNLAD_clean_sbu_0, # of connection points: 6
#     Node 3, Type 0, BuildingBlock: FUNLAD_clean_sbu_0, # of connection points: 6
#     Node 4, Type 0, BuildingBlock: FUNLAD_clean_sbu_0, # of connection points: 6
#     Node 5, Type 0, BuildingBlock: FUNLAD_clean_sbu_0, # of connection points: 6
#     Node 6, Type 0, BuildingBlock: FUNLAD_clean_sbu_0, # of connection points: 6
#     Node 7, Type 0, BuildingBlock: FUNLAD_clean_sbu_0, # of connection points: 6
#     Node 8, Type 0, BuildingBlock: FUNLAD_clean_sbu_0, # of connection points: 6
#     Node 9, Type 0, BuildingBlock: FUNLAD_clean_sbu_0, # of connection points: 6
#     Node 10, Type 0, BuildingBlock: FUNLAD_clean_sbu_0, # of connection points: 6
#     Node 11, Type 0, BuildingBlock: FUNLAD_clean_sbu_0, # of connection points: 6
#     Node 12, Type 0, BuildingBlock: FUNLAD_clean_sbu_0, # of connection points: 6
#     Node 13, Type 0, BuildingBlock: FUNLAD_clean_sbu_0, # of connection points: 6
#     Node 14, Type 0, BuildingBlock: FUNLAD_clean_sbu_0, # of connection points: 6
#     Node 15, Type 0, BuildingBlock: FUNLAD_clean_sbu_0, # of connection points: 6
#     Edge 16, Type (0, 0), BuildingBlock: UVAHIK_clean_linker_0, # of connection points: 2
#     Edge 17, Type (0, 0), BuildingBlock: UVAHIK_clean_linker_0, # of connection points: 2
#     Edge 18, Type (0, 0), BuildingBlock: UVAHIK_clean_linker_0, # of connection points: 2
#     Edge 19, Type (0, 0), BuildingBlock: UVAHIK_clean_linker_0, # of connection points: 2
#     Edge 20, Type (0, 0), BuildingBlock: UVAHIK_clean_linker_0, # of connection points: 2
#     Edge 21, Type (0, 0), BuildingBlock: UVAHIK_clean_linker_0, # of connection points: 2
#     Edge 22, Type (0, 0), BuildingBlock: UVAHIK_clean_linker_0, # of connection points: 2
#     Edge 23, Type (0, 0), BuildingBlock: UVAHIK_clean_linker_0, # of connection points: 2
#     Edge 24, Type (0, 0), BuildingBlock: UVAHIK_clean_linker_0, # of connection points: 2
#     Edge 25, Type (0, 0), BuildingBlock: UVAHIK_clean_linker_0, # of connection points: 2
#     Edge 26, Type (0, 0), BuildingBlock: UVAHIK_clean_linker_0, # of connection points: 2
#     Edge 27, Type (0, 0), BuildingBlock: UVAHIK_clean_linker_0, # of connection points: 2
#     Edge 28, Type (0, 0), BuildingBlock: UVAHIK_clean_linker_0, # of connection points: 2
#     Edge 29, Type (0, 0), BuildingBlock: UVAHIK_clean_linker_0, # of connection points: 2
#     Edge 30, Type (0, 0), BuildingBlock: UVAHIK_clean_linker_0, # of connection points: 2
#     Edge 31, Type (0, 0), BuildingBlock: UVAHIK_clean_linker_0, # of connection points: 2
#     Edge 32, Type (0, 0), BuildingBlock: UVAHIK_clean_linker_0, # of connection points: 2
#     Edge 33, Type (0, 0), BuildingBlock: UVAHIK_clean_linker_0, # of connection points: 2
#     Edge 34, Type (0, 0), BuildingBlock: UVAHIK_clean_linker_0, # of connection points: 2
#     Edge 35, Type (0, 0), BuildingBlock: UVAHIK_clean_linker_0, # of connection points: 2
#     Edge 36, Type (0, 0), BuildingBlock: UVAHIK_clean_linker_0, # of connection points: 2
#     Edge 37, Type (0, 0), BuildingBlock: UVAHIK_clean_linker_0, # of connection points: 2
#     Edge 38, Type (0, 0), BuildingBlock: UVAHIK_clean_linker_0, # of connection points: 2
#     Edge 39, Type (0, 0), BuildingBlock: UVAHIK_clean_linker_0, # of connection points: 2
#     Edge 40, Type (0, 0), BuildingBlock: UVAHIK_clean_linker_0, # of connection points: 2
#     Edge 41, Type (0, 0), BuildingBlock: UVAHIK_clean_linker_0, # of connection points: 2
#     Edge 42, Type (0, 0), BuildingBlock: UVAHIK_clean_linker_0, # of connection points: 2
#     Edge 43, Type (0, 0), BuildingBlock: UVAHIK_clean_linker_0, # of connection points: 2
#     Edge 44, Type (0, 0), BuildingBlock: UVAHIK_clean_linker_0, # of connection points: 2
#     Edge 45, Type (0, 0), BuildingBlock: UVAHIK_clean_linker_0, # of connection points: 2
#     Edge 46, Type (0, 0), BuildingBlock: UVAHIK_clean_linker_0, # of connection points: 2
#     Edge 47, Type (0, 0), BuildingBlock: UVAHIK_clean_linker_0, # of connection points: 2
#     Edge 48, Type (0, 0), BuildingBlock: UVAHIK_clean_linker_0, # of connection points: 2
#     Edge 49, Type (0, 0), BuildingBlock: UVAHIK_clean_linker_0, # of connection points: 2
#     Edge 50, Type (0, 0), BuildingBlock: UVAHIK_clean_linker_0, # of connection points: 2
#     Edge 51, Type (0, 0), BuildingBlock: UVAHIK_clean_linker_0, # of connection points: 2
#     Edge 52, Type (0, 0), BuildingBlock: UVAHIK_clean_linker_0, # of connection points: 2
#     Edge 53, Type (0, 0), BuildingBlock: UVAHIK_clean_linker_0, # of connection points: 2
#     Edge 54, Type (0, 0), BuildingBlock: UVAHIK_clean_linker_0, # of connection points: 2
#     Edge 55, Type (0, 0), BuildingBlock: UVAHIK_clean_linker_0, # of connection points: 2
#     Edge 56, Type (0, 0), BuildingBlock: UVAHIK_clean_linker_0, # of connection points: 2
#     Edge 57, Type (0, 0), BuildingBlock: UVAHIK_clean_linker_0, # of connection points: 2
#     Edge 58, Type (0, 0), BuildingBlock: UVAHIK_clean_linker_0, # of connection points: 2
#     Edge 59, Type (0, 0), BuildingBlock: UVAHIK_clean_linker_0, # of connection points: 2
#     Edge 60, Type (0, 0), BuildingBlock: UVAHIK_clean_linker_0, # of connection points: 2
#     Edge 61, Type (0, 0), BuildingBlock: UVAHIK_clean_linker_0, # of connection points: 2
#     Edge 62, Type (0, 0), BuildingBlock: UVAHIK_clean_linker_0, # of connection points: 2
#     Edge 63, Type (0, 0), BuildingBlock: UVAHIK_clean_linker_0, # of connection points: 2
# Relax obj value: 0.456
# Max RMSD: 0.281
# Mean RMSD: 0.240
data_MOF--net-bcs--node1-FUNLAD_clean_sbu_0--edge1-UVAHIK_clean_linker_0
_symmetry_space_group_name_H-M    P1
_symmetry_Int_Tables_number       1
_symmetry_cell_setting            triclinic
loop_
_symmetry_equiv_pos_as_xyz
'x, y, z'
_cell_length_a     48.324752
_cell_length_b     47.639508
_cell_length_c     48.478464
_cell_angle_alpha  81.426945
_cell_angle_beta   81.143963
_cell_angle_gamma 76.304772
loop_
_atom_site_label
_atom_site_type_symbol
_atom_site_fract_x
_atom_site_fract_y
_atom_site_fract_z
_atom_type_partial_charge
C0 C 0.96674 0.04097 0.01947 0.0
N1 N 0.94672 0.96462 0.00339 0.0
C2 C 0.92737 0.96711 0.0269 0.0
C3 C 0.90317 0.95532 0.02958 0.0
C4 C 0.89911 0.9406 0.00799 0.0
C5 C 0.91926 0.93854 0.9839 0.0
C6 C 0.94295 0.95099 0.98192 0.0
Zn7 Zn 0.9815 0.98248 0.99916 0.0
C8 C 0.98438 0.02049 0.94309 0.0
N9 N 0.05303 0.02188 0.98611 0.0
C10 C 0.0583 0.03418 0.00784 0.0
C11 C 0.07232 0.0182 0.96266 0.0
C12 C 0.09851 0.02619 0.9608 0.0
C13 C 0.10462 0.03851 0.98308 0.0
C14 C 0.08404 0.04303 0.00661 0.0
Zn15 Zn 0.01776 0.00469 0.99056 0.0
O16 O 0.95624 0.01949 0.01717 0.0
C17 C 0.01466 0.96701 0.04673 0.0
O18 O 0.99277 0.04069 0.00994 0.0
H19 H 0.06766 0.00847 0.94561 0.0
H20 H 0.93083 0.97803 0.04368 0.0
H21 H 0.04282 0.03652 0.02646 0.0
O22 O 0.99203 0.96246 0.03953 0.0
O23 O 0.02881 0.9833 0.03014 0.0
H24 H 0.95843 0.94961 0.96326 0.0
O25 O 0.04257 0.96828 0.97144 0.0
O26 O 0.00734 0.94534 0.98183 0.0
O27 O 0.00622 0.02611 0.95093 0.0
O28 O 0.97122 0.00279 0.95892 0.0
C29 C 0.03298 0.94571 0.97137 0.0
H30 H 0.88832 0.95682 0.04874 0.0
H31 H 0.9168 0.92725 0.96691 0.0
H32 H 0.11377 0.02301 0.94206 0.0
H33 H 0.08809 0.05271 0.02403 0.0
C34 C 0.19459 0.79147 0.23688 0.0
N35 N 0.24722 0.71581 0.20819 0.0
C36 C 0.22284 0.70684 0.20668 0.0
C37 C 0.22194 0.68975 0.18607 0.0
C38 C 0.24612 0.68233 0.16641 0.0
C39 C 0.27096 0.69206 0.16805 0.0
C40 C 0.27116 0.70865 0.18951 0.0
Zn41 Zn 0.24606 0.74131 0.23887 0.0
C42 C 0.27767 0.78968 0.21841 0.0
N43 N 0.24059 0.79542 0.30308 0.0
C44 C 0.21772 0.80185 0.32314 0.0
C45 C 0.26524 0.8044 0.30343 0.0
C46 C 0.26756 0.82066 0.32417 0.0
C47 C 0.2446 0.8272 0.3453 0.0
C48 C 0.21941 0.81757 0.34485 0.0
Zn49 Zn 0.24108 0.77001 0.27232 0.0
O50 O 0.20884 0.76946 0.22511 0.0
C51 C 0.20949 0.72151 0.29273 0.0
O52 O 0.20299 0.79766 0.25842 0.0
H53 H 0.28355 0.79838 0.28798 0.0
H54 H 0.20385 0.71323 0.22127 0.0
H55 H 0.19839 0.79433 0.32261 0.0
O56 O 0.21952 0.71575 0.26782 0.0
O57 O 0.21532 0.74334 0.30115 0.0
H58 H 0.29031 0.71602 0.19109 0.0
O59 O 0.27909 0.74218 0.28552 0.0
O60 O 0.28331 0.71332 0.2531 0.0
O61 O 0.26691 0.79602 0.24298 0.0
O62 O 0.27249 0.76737 0.21035 0.0
C63 C 0.29259 0.7198 0.27393 0.0
H64 H 0.20226 0.68299 0.18506 0.0
H65 H 0.28993 0.68677 0.15304 0.0
H66 H 0.28753 0.82723 0.32425 0.0
H67 H 0.20141 0.82209 0.36108 0.0
C68 C 0.54247 0.94968 0.51945 0.0
N69 N 0.56005 0.03192 0.4914 0.0
C70 C 0.56944 0.02749 0.5171 0.0
C71 C 0.59178 0.03949 0.52145 0.0
C72 C 0.60423 0.05673 0.49936 0.0
C73 C 0.59369 0.06192 0.47327 0.0
C74 C 0.57155 0.04892 0.46962 0.0
Zn75 Zn 0.52957 0.01014 0.48676 0.0
C76 C 0.54705 0.97524 0.43919 0.0
N77 N 0.46831 0.96015 0.48161 0.0
C78 C 0.4533 0.94841 0.50479 0.0
C79 C 0.4625 0.95887 0.45529 0.0
C80 C 0.44084 0.94549 0.45152 0.0
C81 C 0.42465 0.93377 0.47505 0.0
C82 C 0.43106 0.93527 0.50197 0.0
Zn83 Zn 0.49872 0.98222 0.48579 0.0
O84 O 0.55101 0.97319 0.51145 0.0
C85 C 0.48144 0.01749 0.53329 0.0
O86 O 0.51942 0.94675 0.51188 0.0
H87 H 0.47433 0.9687 0.43715 0.0
H88 H 0.55986 0.01423 0.53426 0.0
H89 H 0.45829 0.94958 0.52552 0.0
O90 O 0.50442 0.02578 0.52313 0.0
O91 O 0.47339 -0.00074 0.52146 0.0
H92 H 0.56383 0.05209 0.44935 0.0
O93 O 0.47825 0.01806 0.4596 0.0
O94 O 0.50769 0.04619 0.46184 0.0
O95 O 0.52501 0.96554 0.45017 0.0
O96 O 0.55413 0.99461 0.45029 0.0
C97 C 0.48583 0.0422 0.45266 0.0
H98 H 0.59926 0.03541 0.54194 0.0
H99 H 0.60287 0.07529 0.45586 0.0
H100 H 0.43627 0.94501 0.43043 0.0
H101 H 0.41906 0.92631 0.52058 0.0
C102 C 0.23205 0.28106 0.78344 0.0
N103 N 0.31958 0.2415 0.78128 0.0
C104 C 0.32401 0.26848 0.78219 0.0
C105 C 0.34742 0.27167 0.7941 0.0
C106 C 0.36662 0.24684 0.80465 0.0
C107 C 0.36206 0.21928 0.80277 0.0
C108 C 0.33808 0.21709 0.79119 0.0
Zn109 Zn 0.28404 0.23719 0.76604 0.0
C110 C 0.25371 0.19726 0.80505 0.0
N111 N 0.21037 0.22693 0.73405 0.0
C112 C 0.19198 0.25119 0.72371 0.0
C113 C 0.20678 0.19983 0.73224 0.0
C114 C 0.18481 0.19635 0.71839 0.0
C115 C 0.1662 0.221 0.70666 0.0
C116 C 0.16944 0.2487 0.71004 0.0
Zn117 Zn 0.24569 0.2314 0.74952 0.0
O118 O 0.25886 0.27384 0.78504 0.0
C119 C 0.27661 0.27054 0.71002 0.0
O120 O 0.22083 0.26639 0.77026 0.0
H121 H 0.22156 0.18087 0.74073 0.0
H122 H 0.30915 0.28756 0.77404 0.0
H123 H 0.19537 0.27252 0.72517 0.0
O124 O 0.2934 0.26438 0.72888 0.0
O125 O 0.25429 0.26013 0.71366 0.0
H126 H 0.33401 0.19585 0.79055 0.0
O127 O 0.27102 0.19648 0.7287 0.0
O128 O 0.30849 0.20065 0.74685 0.0
O129 O 0.23779 0.20228 0.7855 0.0
O130 O 0.2745 0.20983 0.80272 0.0
C131 C 0.29738 0.18769 0.73184 0.0
H132 H 0.35048 0.29327 0.79512 0.0
H133 H 0.37639 0.19972 0.81095 0.0
H134 H 0.18272 0.17464 0.71633 0.0
H135 H 0.15557 0.26815 0.70105 0.0
C136 C 0.98531 0.02186 0.4652 0.0
N137 N 0.99362 0.93342 0.49118 0.0
C138 C 0.96713 0.93515 0.48388 0.0
C139 C 0.96165 0.91247 0.4719 0.0
C140 C 0.98379 0.8881 0.46694 0.0
C141 C 0.0107 0.8865 0.47524 0.0
C142 C 0.0151 0.90944 0.48768 0.0
Zn143 Zn 0.00205 0.96878 0.50457 0.0
C144 C 0.0605 0.97748 0.48056 0.0
N145 N 0.0197 0.04335 0.5309 0.0
C146 C 0.99982 0.06893 0.52936 0.0
C147 C 0.04381 0.04031 0.54329 0.0
C148 C 0.04803 0.06315 0.55587 0.0
C149 C 0.02742 0.08944 0.55538 0.0
C150 C 0.0034 0.09252 0.54136 0.0
Zn151 Zn 0.01173 0.00785 0.51757 0.0
O152 O 0.98527 0.99495 0.46977 0.0
C153 C 0.95315 -7e-05 0.54114 0.0
O154 O 0.99596 0.03329 0.48191 0.0
H155 H 0.05938 0.01984 0.54415 0.0
H156 H 0.95046 0.95453 0.4865 0.0
H157 H 0.9807 0.07079 0.51959 0.0
O158 O 0.96104 0.97749 0.52819 0.0
O159 O 0.97028 0.01665 0.54008 0.0
H160 H 0.03594 0.90844 0.49377 0.0
O161 O 0.02691 0.98189 0.55323 0.0
O162 O 0.01827 0.94298 0.54002 0.0
O163 O 0.05314 -0.00116 0.49498 0.0
O164 O 0.04314 0.96116 0.48075 0.0
C165 C 0.02693 0.95496 0.55778 0.0
H166 H 0.94071 0.91454 0.46543 0.0
H167 H 0.02821 0.86792 0.47178 0.0
H168 H 0.06702 0.0602 0.56622 0.0
H169 H 0.98706 0.1125 0.54067 0.0
C170 C 0.29147 0.70481 0.77514 0.0
N171 N 0.27214 0.79568 0.76471 0.0
C172 C 0.28831 0.79262 0.78604 0.0
C173 C 0.30195 0.81451 0.78897 0.0
C174 C 0.29861 0.84004 0.77005 0.0
C175 C 0.28148 0.84294 0.74846 0.0
C176 C 0.26855 0.82022 0.74601 0.0
Zn177 Zn 0.25312 0.7623 0.76189 0.0
C178 C 0.26448 0.7426 0.70588 0.0
N179 N 0.21347 0.69194 0.75868 0.0
C180 C 0.2174 0.66733 0.77729 0.0
C181 C 0.1973 0.69486 0.73738 0.0
C182 C 0.18409 0.67271 0.73431 0.0
C183 C 0.18787 0.64707 0.75308 0.0
C184 C 0.20491 0.64435 0.77469 0.0
Zn185 Zn 0.23233 0.72532 0.76149 0.0
O186 O 0.29028 0.73196 0.77237 0.0
C187 C 0.22112 0.74464 0.81743 0.0
O188 O 0.26973 0.69564 0.77184 0.0
H189 H 0.19477 0.71438 0.72256 0.0
H190 H 0.2906 0.77317 0.80093 0.0
H191 H 0.23031 0.66548 0.79408 0.0
O192 O 0.23653 0.76207 0.8049 0.0
O193 O 0.21568 0.72593 0.80416 0.0
H194 H 0.25562 0.82219 0.72919 0.0
O195 O 0.1953 0.75536 0.75145 0.0
O196 O 0.21525 0.79223 0.75141 0.0
O197 O 0.249 0.72537 0.71869 0.0
O198 O 0.26974 0.76163 0.71893 0.0
C199 C 0.19356 0.78258 0.74872 0.0
H200 H 0.31463 0.81168 0.80617 0.0
H201 H 0.27848 0.86236 0.73347 0.0
H202 H 0.17144 0.67538 0.71711 0.0
H203 H 0.20824 0.62485 0.78955 0.0
C204 C 0.4524 0.05175 0.01665 0.0
N205 N 0.52563 0.00892 0.05445 0.0
C206 C 0.52689 0.03648 0.0576 0.0
C207 C 0.53888 0.04183 0.0801 0.0
C208 C 0.5501 0.01859 0.0995 0.0
C209 C 0.54913 0.99023 0.09555 0.0
C210 C 0.5365 0.98587 0.07283 0.0
Zn211 Zn 0.50591 0.0041 0.02147 0.0
C212 C 0.46101 0.96768 0.03953 0.0
N213 N 0.46245 -0.00148 0.95294 0.0
C214 C 0.45192 0.02171 0.93455 0.0
C215 C 0.46052 0.97113 0.94995 0.0
C216 C 0.448 0.96614 0.92765 0.0
C217 C 0.43716 0.98953 0.90819 0.0
C218 C 0.43895 0.01769 0.91194 0.0
Zn219 Zn 0.48223 0.00308 0.98586 0.0
O220 O 0.47362 0.04132 0.03039 0.0
C221 C 0.52709 0.03953 0.96782 0.0
O222 O 0.44978 0.03972 0.99581 0.0
H223 H 0.46881 0.95301 0.96488 0.0
H224 H 0.51844 0.0545 0.04264 0.0
H225 H 0.4537 0.04329 0.93733 0.0
O226 O 0.53102 0.03154 0.99348 0.0
O227 O 0.50763 0.03098 0.95837 0.0
H228 H 0.53525 0.96414 0.06996 0.0
O229 O 0.51459 0.96651 0.9765 0.0
O230 O 0.53812 0.96662 0.01172 0.0
O231 O 0.45749 0.97518 0.01372 0.0
O232 O 0.48009 0.97668 0.04914 0.0
C233 C 0.53556 0.95526 0.99037 0.0
H234 H 0.53971 0.06395 0.0821 0.0
H235 H 0.55761 0.97175 0.1101 0.0
H236 H 0.44656 0.94415 0.92585 0.0
H237 H 0.43087 0.03628 0.89733 0.0
C238 C 0.21026 0.27188 0.30346 0.0
N239 N 0.21537 0.19092 0.27601 0.0
C240 C 0.21429 0.18171 0.30399 0.0
C241 C 0.20895 0.15441 0.31443 0.0
C242 C 0.20551 0.13578 0.29588 0.0
C243 C 0.2061 0.14611 0.2671 0.0
C244 C 0.21083 0.17398 0.25762 0.0
Zn245 Zn 0.22876 0.22874 0.26213 0.0
C246 C 0.19184 0.27131 0.22759 0.0
N247 N 0.26295 0.3042 0.2358 0.0
C248 C 0.27543 0.31638 0.25292 0.0
C249 C 0.26008 0.31609 0.20882 0.0
C250 C 0.2703 0.34096 0.19792 0.0
C251 C 0.2839 0.35361 0.21484 0.0
C252 C 0.28628 0.34118 0.24275 0.0
Zn253 Zn 0.24861 0.26707 0.24961 0.0
O254 O 0.20621 0.24784 0.29839 0.0
C255 C 0.286 0.22412 0.28337 0.0
O256 O 0.22712 0.28483 0.28632 0.0
H257 H 0.25032 0.30595 0.19548 0.0
H258 H 0.21838 0.1952 0.31829 0.0
H259 H 0.27736 0.30662 0.27435 0.0
O260 O 0.26561 0.2115 0.28326 0.0
O261 O 0.28497 0.24938 0.27026 0.0
H262 H 0.21181 0.18163 0.23542 0.0
O263 O 0.27057 0.24873 0.21297 0.0
O264 O 0.25104 0.21091 0.22554 0.0
O265 O 0.21176 0.2842 0.22885 0.0
O266 O 0.19263 0.24599 0.24061 0.0
C267 C 0.26724 0.22436 0.2081 0.0
H268 H 0.20778 0.14802 0.33688 0.0
H269 H 0.20375 0.13263 0.25189 0.0
H270 H 0.26856 0.34953 0.17612 0.0
H271 H 0.29665 0.35035 0.25641 0.0
C272 C 0.48702 0.52047 0.94623 0.0
N273 N 0.52122 0.43118 0.95531 0.0
C274 C 0.4957 0.42904 0.94824 0.0
C275 C 0.49417 0.40589 0.93452 0.0
C276 C 0.51901 0.38452 0.92848 0.0
C277 C 0.5449 0.38665 0.9367 0.0
C278 C 0.5456 0.41053 0.94995 0.0
Zn279 Zn 0.52278 0.46695 0.9728 0.0
C280 C 0.56932 0.49453 0.9434 0.0
N281 N 0.52554 0.54224 0.00927 0.0
C282 C 0.50095 0.56036 0.01928 0.0
C283 C 0.55176 0.5464 0.01228 0.0
C284 C 0.55398 0.56918 0.02623 0.0
C285 C 0.52898 0.58762 0.03754 0.0
C286 C 0.50219 0.5832 0.03378 0.0
Zn287 Zn 0.52364 0.50654 0.99158 0.0
O288 O 0.49486 0.49316 0.94586 0.0
C289 C 0.47727 0.47832 0.02128 0.0
O290 O 0.49578 0.53253 0.96387 0.0
H291 H 0.57104 0.53157 0.00451 0.0
H292 H 0.47655 0.44553 0.95292 0.0
H293 H 0.48033 0.55673 0.01658 0.0
O294 O 0.48758 0.46075 0.00307 0.0
O295 O 0.48837 0.49994 0.02138 0.0
H296 H 0.56571 0.41277 0.95557 0.0
O297 O 0.55186 0.48024 0.01868 0.0
O298 O 0.55119 0.44152 0.99944 0.0
O299 O 0.55907 0.51216 0.96156 0.0
O300 O 0.55779 0.47332 0.94293 0.0
C301 C 0.5606 0.4532 0.01685 0.0
H302 H 0.47377 0.40463 0.92868 0.0
H303 H 0.56444 0.37047 0.93226 0.0
H304 H 0.57504 0.57166 0.02907 0.0
H305 H 0.48246 0.59707 0.04217 0.0
C306 C 0.78183 0.21115 0.30298 0.0
N307 N 0.79569 0.29126 0.26171 0.0
C308 C 0.79981 0.29578 0.2877 0.0
C309 C 0.81517 0.31625 0.29067 0.0
C310 C 0.82599 0.33264 0.26673 0.0
C311 C 0.82149 0.32766 0.24014 0.0
C312 C 0.80641 0.3065 0.23808 0.0
Zn313 Zn 0.77122 0.26226 0.25926 0.0
C314 C 0.79778 0.21887 0.22169 0.0
N315 N 0.71781 0.20272 0.25767 0.0
C316 C 0.7028 0.19009 0.28031 0.0
C317 C 0.71839 0.19563 0.23136 0.0
C318 C 0.70452 0.17444 0.22713 0.0
C319 C 0.68932 0.16077 0.25005 0.0
C320 C 0.68801 0.16905 0.27688 0.0
Zn321 Zn 0.74215 0.23171 0.26108 0.0
O322 O 0.78977 0.23437 0.29217 0.0
C323 C 0.71561 0.27581 0.29821 0.0
O324 O 0.76153 0.20398 0.29385 0.0
H325 H 0.73002 0.20612 0.21353 0.0
H326 H 0.79075 0.28384 0.30625 0.0
H327 H 0.70263 0.19602 0.30103 0.0
O328 O 0.73898 0.28346 0.28826 0.0
O329 O 0.71027 0.25346 0.2905 0.0
H330 H 0.80294 0.30256 0.21761 0.0
O331 O 0.72336 0.2597 0.22814 0.0
O332 O 0.75238 0.2893 0.22619 0.0
O333 O 0.77462 0.21085 0.23167 0.0
O334 O 0.80308 0.24087 0.23001 0.0
C335 C 0.73208 0.28238 0.21691 0.0
H336 H 0.81788 0.31982 0.31156 0.0
H337 H 0.8296 0.33992 0.22123 0.0
H338 H 0.70562 0.16876 0.2061 0.0
H339 H 0.67632 0.1589 0.29498 0.0
C340 C 0.9566 0.55529 0.52201 0.0
N341 N 0.02883 0.50512 0.55694 0.0
C342 C 0.03282 0.53135 0.5613 0.0
C343 C 0.04573 0.5338 0.58432 0.0
C344 C 0.05484 0.509 0.60303 0.0
C345 C 0.05127 0.482 0.59766 0.0
C346 C 0.03795 0.48057 0.5744 0.0
Zn347 Zn 0.00711 0.50429 0.52429 0.0
C348 C 0.95966 0.47072 0.54255 0.0
N349 N 0.95974 0.50513 0.45671 0.0
C350 C 0.95447 0.52804 0.43633 0.0
C351 C 0.9518 0.47982 0.4555 0.0
C352 C 0.93778 0.47688 0.43343 0.0
C353 C 0.93242 0.49993 0.41199 0.0
C354 C 0.94099 0.52577 0.4134 0.0
Zn355 Zn 0.98152 0.50636 0.48938 0.0
O356 O 0.97746 0.5422 0.53542 0.0
C357 C 0.02913 0.53983 0.47128 0.0
O358 O 0.95222 0.54499 0.50074 0.0
H359 H 0.95678 0.46158 0.47142 0.0
H360 H 0.0256 0.55057 0.54709 0.0
H361 H 0.96104 0.54794 0.43763 0.0
O362 O 0.03324 0.53118 0.4968 0.0
O363 O 0.00895 0.53241 0.46191 0.0
H364 H 0.03448 0.45996 0.57054 0.0
O365 O 0.01081 0.46785 0.47863 0.0
O366 O 0.03683 0.46656 0.51234 0.0
O367 O 0.95489 0.48028 0.51736 0.0
O368 O 0.98041 0.47737 0.55163 0.0
C369 C 0.0323 0.45565 0.49153 0.0
H370 H 0.04857 0.55494 0.58747 0.0
H371 H 0.05802 0.46242 0.61167 0.0
H372 H 0.93189 0.45645 0.43272 0.0
H373 H 0.93724 0.54391 0.39707 0.0
C374 C 0.7314 0.79089 0.26212 0.0
N375 N 0.81403 0.74219 0.27287 0.0
C376 C 0.82403 0.76698 0.26515 0.0
C377 C 0.84672 0.77134 0.2775 0.0
C378 C 0.85889 0.7501 0.29816 0.0
C379 C 0.84892 0.72427 0.30489 0.0
C380 C 0.82645 0.72067 0.29181 0.0
Zn381 Zn 0.77796 0.73796 0.2584 0.0
C382 C 0.73868 0.71469 0.30419 0.0
N383 N 0.70237 0.72889 0.22861 0.0
C384 C 0.68945 0.75056 0.21009 0.0
C385 C 0.69235 0.70414 0.23661 0.0
C386 C 0.66896 0.70009 0.22518 0.0
C387 C 0.65594 0.72164 0.20521 0.0
C388 C 0.66615 0.74733 0.19803 0.0
Zn389 Zn 0.73856 0.73308 0.2429 0.0
O390 O 0.75694 0.78035 0.26763 0.0
C391 C 0.7774 0.75754 0.19743 0.0
O392 O 0.71846 0.77566 0.25144 0.0
H393 H 0.703 0.68718 0.25131 0.0
H394 H 0.81375 0.78384 0.25014 0.0
H395 H 0.69766 0.77012 0.20413 0.0
O396 O 0.79234 0.75493 0.21745 0.0
O397 O 0.75376 0.74943 0.20212 0.0
H398 H 0.81829 0.70106 0.29752 0.0
O399 O 0.75942 0.6906 0.23404 0.0
O400 O 0.79833 0.69556 0.24923 0.0
O401 O 0.72363 0.71709 0.28429 0.0
O402 O 0.76291 0.72154 0.299 0.0
C403 C 0.78522 0.68027 0.23881 0.0
H404 H 0.85368 0.79168 0.27199 0.0
H405 H 0.85795 0.70734 0.32061 0.0
H406 H 0.66194 0.67981 0.23103 0.0
H407 H 0.65651 0.76456 0.1829 0.0
C408 C 0.69768 0.29054 0.73602 0.0
N409 N 0.74613 0.21465 0.70426 0.0
C410 C 0.72033 0.20888 0.70216 0.0
C411 C 0.71759 0.1928 0.68142 0.0
C412 C 0.74156 0.18257 0.66241 0.0
C413 C 0.7679 0.18921 0.6646 0.0
C414 C 0.76976 0.20529 0.68596 0.0
Zn415 Zn 0.74713 0.23804 0.73605 0.0
C416 C 0.78132 0.28491 0.71776 0.0
N417 N 0.74475 0.28782 0.80268 0.0
C418 C 0.72034 0.29995 0.81867 0.0
C419 C 0.77101 0.28989 0.80786 0.0
C420 C 0.77358 0.30395 0.83019 0.0
C421 C 0.74889 0.31646 0.84717 0.0
C422 C 0.72192 0.31476 0.84107 0.0
Zn423 Zn 0.744 0.26481 0.77061 0.0
O424 O 0.70978 0.26799 0.72411 0.0
C425 C 0.70978 0.21823 0.78913 0.0
O426 O 0.70788 0.29588 0.75684 0.0
H427 H 0.79013 0.28047 0.79472 0.0
H428 H 0.7017 0.21679 0.71663 0.0
H429 H 0.69968 0.29799 0.81416 0.0
O430 O 0.72029 0.21226 0.76437 0.0
O431 O 0.71582 0.23981 0.7978 0.0
H432 H 0.79004 0.21019 0.688 0.0
O433 O 0.78002 0.23348 0.78374 0.0
O434 O 0.78461 0.20804 0.74855 0.0
O435 O 0.77231 0.28942 0.74319 0.0
O436 O 0.77387 0.26455 0.70825 0.0
C437 C 0.79338 0.21199 0.77079 0.0
H438 H 0.69676 0.18865 0.68012 0.0
H439 H 0.78688 0.18166 0.65031 0.0
H440 H 0.79472 0.30535 0.83395 0.0
H441 H 0.70243 0.32434 0.85371 0.0
C442 C 0.71318 0.79096 0.72594 0.0
N443 N 0.77999 0.82682 0.73958 0.0
C444 C 0.77614 0.84105 0.7135 0.0
C445 C 0.77958 0.86953 0.7068 0.0
C446 C 0.78754 0.88338 0.72695 0.0
C447 C 0.79233 0.86801 0.75341 0.0
C448 C 0.78809 0.83959 0.75944 0.0
Zn449 Zn 0.7693 0.7874 0.74906 0.0
C450 C 0.72978 0.78592 0.80364 0.0
N451 N 0.74017 0.70883 0.76765 0.0
C452 C 0.73064 0.69812 0.74723 0.0
C453 C 0.74496 0.6927 0.79276 0.0
C454 C 0.74075 0.66437 0.79787 0.0
C455 C 0.73122 0.6527 0.77707 0.0
C456 C 0.72579 0.66999 0.75162 0.0
Zn457 Zn 0.75102 0.74812 0.75916 0.0
O458 O 0.73306 0.80392 0.72701 0.0
C459 C 0.79 0.74957 0.70448 0.0
O460 O 0.71409 0.76578 0.73917 0.0
H461 H 0.75246 0.70166 0.8087 0.0
H462 H 0.76988 0.83047 0.69796 0.0
H463 H 0.72728 0.71123 0.72731 0.0
O464 O 0.79405 0.77284 0.71143 0.0
O465 O 0.77327 0.73564 0.72058 0.0
H466 H 0.79079 0.82793 0.78011 0.0
O467 O 0.78825 0.7307 0.77912 0.0
O468 O 0.80523 0.77033 0.77116 0.0
O469 O 0.7285 0.76118 0.79772 0.0
O470 O 0.74461 0.80129 0.78663 0.0
C471 C 0.80721 0.7441 0.78209 0.0
H472 H 0.77642 0.88052 0.68592 0.0
H473 H 0.7988 0.87803 0.7693 0.0
H474 H 0.74455 0.65184 0.81802 0.0
H475 H 0.71831 0.66168 0.73517 0.0
C476 C 0.45858 0.55853 0.53628 0.0
N477 N 0.443 0.48242 0.5147 0.0
C478 C 0.426 0.4806 0.53967 0.0
C479 C 0.40289 0.4672 0.54265 0.0
C480 C 0.39709 0.45563 0.51966 0.0
C481 C 0.4147 0.45828 0.49396 0.0
C482 C 0.43769 0.47183 0.49193 0.0
Zn483 Zn 0.47655 0.50186 0.51169 0.0
C484 C 0.4786 0.54325 0.4589 0.0
N485 N 0.54499 0.54499 0.50461 0.0
C486 C 0.54974 0.55564 0.52759 0.0
C487 C 0.56266 0.54643 0.48003 0.0
C488 C 0.58619 0.55909 0.47783 0.0
C489 C 0.59157 0.57043 0.50115 0.0
C490 C 0.57301 0.56862 0.52629 0.0
Zn491 Zn 0.5115 0.52553 0.50734 0.0
O492 O 0.44951 0.53669 0.53226 0.0
C493 C 0.50986 0.48351 0.55996 0.0
O494 O 0.48469 0.55937 0.5284 0.0
H495 H 0.55841 0.53785 0.46205 0.0
H496 H 0.43062 0.48921 0.55745 0.0
H497 H 0.53545 0.55409 0.54698 0.0
O498 O 0.48836 0.47881 0.55071 0.0
O499 O 0.52316 0.5021 0.54601 0.0
H500 H 0.45145 0.47366 0.47223 0.0
O501 O 0.53811 0.49136 0.48565 0.0
O502 O 0.50341 0.46785 0.49083 0.0
O503 O 0.49934 0.54909 0.46854 0.0
O504 O 0.46565 0.52435 0.47273 0.0
C505 C 0.52907 0.46952 0.48157 0.0
H506 H 0.39033 0.46506 0.56307 0.0
H507 H 0.41092 0.44975 0.47571 0.0
H508 H 0.59962 0.56064 0.45784 0.0
H509 H 0.57646 0.57711 0.54469 0.0
C510 C 0.02978 0.45031 0.02788 0.0
N511 N 0.05221 0.53143 0.00834 0.0
C512 C 0.05662 0.5306 0.03553 0.0
C513 C 0.07747 0.54357 0.04197 0.0
C514 C 0.0943 0.55699 0.02019 0.0
C515 C 0.08972 0.55718 0.99231 0.0
C516 C 0.06821 0.54445 0.98682 0.0
Zn517 Zn 0.02129 0.5123 1.0 0.0
C518 C 0.03965 0.48145 0.94945 0.0
N519 N 0.95763 0.47005 0.98467 0.0
C520 C 0.94422 0.45313 0.00496 0.0
C521 C 0.94968 0.47646 0.95836 0.0
C522 C 0.92711 0.46624 0.9517 0.0
C523 C 0.9127 0.44878 0.97216 0.0
C524 C 0.92166 0.44211 0.99909 0.0
Zn525 Zn 0.98885 0.48858 0.99329 0.0
O526 O 0.03917 0.47354 0.02437 0.0
C527 C 0.97086 0.51847 0.04432 0.0
O528 O 0.00795 0.44969 0.01654 0.0
H529 H 0.96055 0.49 0.94254 0.0
H530 H 0.04396 0.51984 0.05229 0.0
H531 H 0.95084 0.44839 0.02579 0.0
O532 O 0.99401 0.52711 0.03594 0.0
O533 O 0.96326 0.50176 0.03026 0.0
H534 H 0.06427 0.54501 0.96537 0.0
O535 O 0.97 0.52816 0.97049 0.0
O536 O 0.00324 0.55073 0.97545 0.0
O537 O 0.01526 0.47501 0.95639 0.0
O538 O 0.04781 0.49701 0.96433 0.0
C539 C 0.98028 0.55087 0.96573 0.0
H540 H 0.08064 0.54286 0.06373 0.0
H541 H 0.10227 0.56753 0.97504 0.0
H542 H 0.92071 0.47247 0.93081 0.0
H543 H 0.91148 0.42843 0.01543 0.0
C544 C 0.22966 0.15816 0.82977 0.0
C545 C 0.24874 0.17621 0.82979 0.0
C546 C 0.22525 0.13779 0.8528 0.0
C547 C 0.22451 0.12444 0.92783 0.0
H548 H 0.21262 0.0503 0.91421 0.0
C549 C 0.13155 0.0772 0.98183 0.0
C550 C 0.13186 0.04793 0.98068 0.0
C551 C 0.1564 0.08774 0.97276 0.0
C552 C 0.21658 0.07041 0.91893 0.0
H553 H 0.27826 0.18714 0.85389 0.0
H554 H 0.26994 0.15165 0.89464 0.0
H555 H 0.23752 0.0786 0.87735 0.0
H556 H 0.15865 0.00582 0.97298 0.0
H557 H 0.20248 0.02397 0.95804 0.0
H558 H 0.20238 0.11682 0.96907 0.0
C559 C 0.2587 0.15323 0.8766 0.0
C560 C 0.23059 0.0868 0.89755 0.0
C561 C 0.26338 0.17349 0.85333 0.0
C562 C 0.15795 0.02865 0.97349 0.0
C563 C 0.18295 0.03906 0.96493 0.0
C564 C 0.21057 0.10792 0.94938 0.0
C565 C 0.23969 0.13513 0.87641 0.0
C566 C 0.23301 0.11471 0.90123 0.0
C567 C 0.18201 0.06905 0.96268 0.0
C568 C 0.20481 0.0816 0.9445 0.0
H569 H 0.21813 0.15967 0.81193 0.0
H570 H 0.20999 0.12452 0.85236 0.0
H571 H 0.22637 0.14584 0.93125 0.0
H572 H 0.11159 0.0924 0.98738 0.0
H573 H 0.15468 0.11098 0.9712 0.0
C574 C 0.01147 0.93318 0.0917 0.0
C575 C 0.02559 0.95257 0.07338 0.0
C576 C 0.02346 0.91795 0.11562 0.0
C577 C 0.06458 0.87352 0.15044 0.0
H578 H 0.1126 0.90564 0.18879 0.0
C579 C 0.16058 0.80221 0.20089 0.0
C580 C 0.16908 0.80986 0.2247 0.0
C581 C 0.13781 0.8201 0.18794 0.0
C582 C 0.09889 0.89636 0.17877 0.0
H583 H 0.06286 0.97194 0.0664 0.0
H584 H 0.0839 0.94512 0.10734 0.0
H585 H 0.0812 0.93768 0.15706 0.0
H586 H 0.15956 0.84192 0.25418 0.0
H587 H 0.11935 0.87322 0.23159 0.0
H588 H 0.08225 0.83222 0.17215 0.0
C589 C 0.06335 0.94192 0.10374 0.0
C590 C 0.08114 0.91471 0.16024 0.0
C591 C 0.05137 0.95715 0.08001 0.0
C592 C 0.15363 0.83549 0.23578 0.0
C593 C 0.13068 0.85346 0.22277 0.0
C594 C 0.08215 0.85523 0.16913 0.0
C595 C 0.04982 0.92178 0.12167 0.0
C596 C 0.06458 0.90335 0.14504 0.0
C597 C 0.12273 0.84613 0.19847 0.0
C598 C 0.10033 0.86624 0.18271 0.0
H599 H 0.99148 0.92929 0.08727 0.0
H600 H 0.01227 0.90287 0.12915 0.0
H601 H 0.05223 0.86393 0.13911 0.0
H602 H 0.17195 0.78263 0.19176 0.0
H603 H 0.13274 0.81396 0.16898 0.0
C604 C 0.37314 0.92992 0.4853 0.0
C605 C 0.40081 0.92068 0.47126 0.0
C606 C 0.35012 0.91945 0.47962 0.0
C607 C 0.30616 0.91052 0.44354 0.0
H608 H 0.31437 0.82926 0.43474 0.0
C609 C 0.25652 0.86925 0.36207 0.0
C610 C 0.24847 0.84237 0.36836 0.0
C611 C 0.26728 0.88041 0.3822 0.0
C612 C 0.31138 0.85194 0.43765 0.0
H613 H 0.42646 0.8925 0.4413 0.0
H614 H 0.38642 0.87384 0.4317 0.0
H615 H 0.35026 0.84388 0.45643 0.0
H616 H 0.24347 0.80688 0.40086 0.0
H617 H 0.26267 0.82628 0.43621 0.0
H618 H 0.2681 0.91877 0.42329 0.0
C619 C 0.38245 0.88921 0.44699 0.0
C620 C 0.33208 0.86031 0.44982 0.0
C621 C 0.4053 0.90002 0.4523 0.0
C622 C 0.24934 0.8278 0.39569 0.0
C623 C 0.2605 0.83877 0.41577 0.0
C624 C 0.28559 0.90218 0.43105 0.0
C625 C 0.35456 0.89917 0.46023 0.0
C626 C 0.33015 0.88978 0.45208 0.0
C627 C 0.27058 0.86464 0.40885 0.0
C628 C 0.28848 0.87291 0.42722 0.0
H629 H 0.36915 0.94599 0.4999 0.0
H630 H 0.32883 0.92744 0.4901 0.0
H631 H 0.30423 0.93341 0.44494 0.0
H632 H 0.25615 0.88073 0.34103 0.0
H633 H 0.2751 0.90024 0.37613 0.0
C634 C 0.34154 0.14829 0.72629 0.0
C635 C 0.31526 0.16344 0.71724 0.0
C636 C 0.3594 0.12666 0.71124 0.0
C637 C 0.36207 0.08272 0.65264 0.0
H638 H 0.44301 0.08339 0.64351 0.0
C639 C 0.46808 0.05495 0.56662 0.0
C640 C 0.46405 0.02934 0.55837 0.0
C641 C 0.45088 0.06697 0.58962 0.0
C642 C 0.42046 0.08303 0.64567 0.0
H643 H 0.28662 0.1675 0.68588 0.0
H644 H 0.31824 0.13091 0.65885 0.0
H645 H 0.41014 0.11244 0.67671 0.0
H646 H 0.43968 0.99555 0.56825 0.0
H647 H 0.41025 0.01598 0.60911 0.0
H648 H 0.37212 0.05512 0.61997 0.0
C649 C 0.32483 0.13486 0.67802 0.0
C650 C 0.40159 0.09933 0.66515 0.0
C651 C 0.30675 0.15607 0.69337 0.0
C652 C 0.44303 0.01551 0.574 0.0
C653 C 0.4261 0.02729 0.59733 0.0
C654 C 0.38087 0.06682 0.63279 0.0
C655 C 0.3516 0.12017 0.68651 0.0
C656 C 0.37204 0.09992 0.66843 0.0
C657 C 0.42958 0.05338 0.60522 0.0
C658 C 0.4102 0.06735 0.62859 0.0
H659 H 0.34842 0.15332 0.74487 0.0
H660 H 0.37953 0.11537 0.71878 0.0
H661 H 0.33956 0.0821 0.65504 0.0
H662 H 0.48402 0.06617 0.55486 0.0
H663 H 0.45381 0.0874 0.59462 0.0
C664 C 0.02745 0.91182 0.5939 0.0
C665 C 0.03574 0.93821 0.58413 0.0
C666 C 0.03548 0.89622 0.61918 0.0
C667 C 0.06846 0.90094 0.68262 0.0
H668 H 0.09958 0.81885 0.67731 0.0
C669 C 0.16579 0.83216 0.73294 0.0
C670 C 0.16683 0.80246 0.74121 0.0
C671 C 0.14168 0.84991 0.72197 0.0
C672 C 0.09036 0.84158 0.67954 0.0
H673 H 0.05836 0.96938 0.5932 0.0
H674 H 0.07362 0.94153 0.63651 0.0
H675 H 0.07208 0.84775 0.64127 0.0
H676 H 0.14247 0.76861 0.74724 0.0
H677 H 0.10052 0.79963 0.72796 0.0
H678 H 0.08884 0.89479 0.72001 0.0
C679 C 0.06015 0.93323 0.62527 0.0
C680 C 0.07453 0.85819 0.65884 0.0
C681 C 0.05175 0.94902 0.60024 0.0
C682 C 0.14251 0.79134 0.7405 0.0
C683 C 0.11845 0.80906 0.72959 0.0
C684 C 0.08463 0.88431 0.70323 0.0
C685 C 0.05234 0.90652 0.63489 0.0
C686 C 0.06426 0.88825 0.65961 0.0
C687 C 0.11831 0.83817 0.71918 0.0
C688 C 0.09645 0.85468 0.70131 0.0
H689 H 0.01462 0.90329 0.5821 0.0
H690 H 0.02876 0.87592 0.62623 0.0
H691 H 0.06025 0.92395 0.6841 0.0
H692 H 0.18414 0.84136 0.73352 0.0
H693 H 0.14219 0.87226 0.71387 0.0
C694 C 0.34186 0.85665 0.77753 0.0
C695 C 0.31279 0.86346 0.77341 0.0
C696 C 0.35467 0.87785 0.78387 0.0
C697 C 0.37982 0.92948 0.78773 0.0
H698 H 0.33884 0.96728 0.85225 0.0
C699 C 0.39735 0.00132 0.87765 0.0
C700 C 0.42389 0.98412 0.88441 0.0
C701 C 0.38335 0.99373 0.85754 0.0
C702 C 0.35037 0.95758 0.83379 0.0
H703 H 0.27454 0.89794 0.77159 0.0
H704 H 0.29696 0.93517 0.7831 0.0
H705 H 0.31461 0.94082 0.82785 0.0
H706 H 0.4575 0.9468 0.87408 0.0
H707 H 0.43306 0.9333 0.83958 0.0
H708 H 0.41592 0.94531 0.79429 0.0
C709 C 0.30979 0.9134 0.78131 0.0
C710 C 0.33646 0.94236 0.81982 0.0
C711 C 0.29703 0.8922 0.7746 0.0
C712 C 0.43687 0.96022 0.86959 0.0
C713 C 0.42299 0.95272 0.84952 0.0
C714 C 0.39368 0.94482 0.80159 0.0
C715 C 0.33862 0.90628 0.78649 0.0
C716 C 0.3514 0.92722 0.79734 0.0
C717 C 0.39575 0.96894 0.84371 0.0
C718 C 0.37948 0.95805 0.82549 0.0
H719 H 0.35451 0.83469 0.77653 0.0
H720 H 0.37682 0.87158 0.78806 0.0
H721 H 0.3917 0.91841 0.77016 0.0
H722 H 0.38683 0.01984 0.88877 0.0
H723 H 0.36251 0.00683 0.85335 0.0
C724 C 0.40134 0.07907 0.0231 0.0
C725 C 0.43026 0.07646 0.02634 0.0
C726 C 0.37994 0.09969 0.03644 0.0
C727 C 0.36471 0.16635 0.07026 0.0
H728 H 0.31496 0.12865 0.12659 0.0
C729 C 0.3077 0.21886 0.16909 0.0
C730 C 0.282 0.21167 0.18244 0.0
C731 C 0.32243 0.20556 0.14566 0.0
C732 C 0.32801 0.13989 0.11059 0.0
H733 H 0.45978 0.0945 0.04415 0.0
H734 H 0.42242 0.13107 0.06673 0.0
H735 H 0.34615 0.10103 0.09114 0.0
H736 H 0.25061 0.18628 0.181 0.0
H737 H 0.27545 0.16415 0.13934 0.0
H738 H 0.34668 0.20526 0.08951 0.0
C739 C 0.4163 0.11703 0.0542 0.0
C740 C 0.34596 0.12393 0.09031 0.0
C741 C 0.4376 0.09603 0.04145 0.0
C742 C 0.27066 0.19186 0.17132 0.0
C743 C 0.28502 0.17907 0.14751 0.0
C744 C 0.34631 0.18253 0.09021 0.0
C745 C 0.38727 0.11842 0.05254 0.0
C746 C 0.36498 0.13681 0.07048 0.0
C747 C 0.31143 0.18525 0.13468 0.0
C748 C 0.32831 0.16928 0.11118 0.0
H749 H 0.39517 0.06413 0.01165 0.0
H750 H 0.35763 0.10041 0.03497 0.0
H751 H 0.3792 0.1767 0.05505 0.0
H752 H 0.31692 0.23403 0.17732 0.0
H753 H 0.34292 0.21055 0.1368 0.0
C754 C 0.10876 0.98828 0.46385 0.0
C755 C 0.08703 0.97445 0.4606 0.0
C756 C 0.1305 0.99143 0.44182 0.0
C757 C 0.17664 0.99142 0.38989 0.0
H758 H 0.13293 0.04345 0.33484 0.0
C759 C 0.1835 0.09299 0.29463 0.0
C760 C 0.20118 0.10598 0.30683 0.0
C761 C 0.17694 0.06655 0.30708 0.0
C762 C 0.14598 0.02833 0.34917 0.0
H763 H 0.0724 0.95071 0.43288 0.0
H764 H 0.10986 0.9573 0.39397 0.0
H765 H 0.10953 0.01222 0.36982 0.0
H766 H 0.22834 0.09939 0.34007 0.0
H767 H 0.21488 0.05536 0.36305 0.0
H768 H 0.21312 0.00763 0.3695 0.0
C769 C 0.11026 0.96523 0.41369 0.0
C770 C 0.13237 0.01042 0.3694 0.0
C771 C 0.08885 0.96154 0.43594 0.0
C772 C 0.21366 0.0908 0.33065 0.0
C773 C 0.20647 0.06488 0.34352 0.0
C774 C 0.19054 0.00878 0.36911 0.0
C775 C 0.1305 0.98126 0.41608 0.0
C776 C 0.1472 0.99295 0.39073 0.0
C777 C 0.1872 0.05283 0.33249 0.0
C778 C 0.17497 0.02877 0.34947 0.0
H779 H 0.10796 -0.00176 0.48273 0.0
H780 H 0.14575 0.00411 0.44405 0.0
H781 H 0.18851 0.97791 0.4061 0.0
H782 H 0.17359 0.10377 0.27619 0.0
H783 H 0.16281 0.05757 0.29733 0.0
C784 C 0.84303 0.21179 0.18778 0.0
C785 C 0.8172 0.20358 0.1994 0.0
C786 C 0.86029 0.19817 0.16551 0.0
C787 C 0.8563 0.15699 0.1084 0.0
H788 H 0.93773 0.12598 0.11104 0.0
C789 C 0.92072 0.06506 0.04565 0.0
C790 C 0.94937 0.06509 0.03472 0.0
C791 C 0.90504 0.08629 0.06232 0.0
C792 C 0.91513 0.13502 0.10969 0.0
H793 H 0.78948 0.17435 0.19709 0.0
H794 H 0.81954 0.15073 0.15853 0.0
H795 H 0.90983 0.15502 0.14749 0.0
H796 H 0.98373 0.08804 0.03183 0.0
H797 H 0.95613 0.1253 0.0609 0.0
H798 H 0.86136 0.13656 0.071 0.0
C799 C 0.82629 0.16788 0.16633 0.0
C800 C 0.89919 0.15158 0.13058 0.0
C801 C 0.80921 0.18127 0.18861 0.0
C802 C 0.9617 0.08739 0.04002 0.0
C803 C 0.94598 0.10863 0.05678 0.0
C804 C 0.87222 0.14056 0.0875 0.0
C805 C 0.85183 0.17636 0.15437 0.0
C806 C 0.86948 0.16202 0.13052 0.0
C807 C 0.91763 0.10803 0.06844 0.0
C808 C 0.90164 0.12874 0.08833 0.0
H809 H 0.84973 0.22893 0.19564 0.0
H810 H 0.87992 0.20508 0.15663 0.0
H811 H 0.83351 0.16529 0.10757 0.0
H812 H 0.9106 0.04818 0.04197 0.0
H813 H 0.88336 0.08499 0.0713 0.0
C814 C 0.06501 0.57228 0.46462 0.0
C815 C 0.04755 0.55853 0.45288 0.0
C816 C 0.08209 0.59001 0.44759 0.0
C817 C 0.09412 0.62808 0.37332 0.0
H818 H 0.16364 0.63676 0.3985 0.0
C819 C 0.17916 0.68356 0.30007 0.0
C820 C 0.19097 0.70308 0.31138 0.0
C821 C 0.16158 0.66646 0.31724 0.0
C822 C 0.14418 0.63482 0.39116 0.0
H823 H 0.03498 0.55271 0.4135 0.0
H824 H 0.06537 0.58233 0.38383 0.0
H825 H 0.13425 0.60589 0.42765 0.0
H826 H 0.19335 0.71937 0.35016 0.0
H827 H 0.16329 0.68912 0.38015 0.0
H828 H 0.10485 0.65638 0.33633 0.0
C829 C 0.06537 0.58036 0.40634 0.0
C830 C 0.12703 0.61707 0.40807 0.0
C831 C 0.04793 0.56299 0.42345 0.0
C832 C 0.18474 0.70469 0.34056 0.0
C833 C 0.16754 0.68717 0.35784 0.0
C834 C 0.11154 0.64544 0.35623 0.0
C835 C 0.08281 0.59438 0.41802 0.0
C836 C 0.1015 0.61335 0.39962 0.0
C837 C 0.15552 0.66784 0.34647 0.0
C838 C 0.13685 0.64922 0.36486 0.0
H839 H 0.06522 0.56969 0.48717 0.0
H840 H 0.0944 0.60062 0.45791 0.0
H841 H 0.07455 0.62669 0.3659 0.0
H842 H 0.18332 0.68162 0.27775 0.0
H843 H 0.15305 0.65175 0.30761 0.0
C844 C 0.54767 0.90291 0.55182 0.0
C845 C 0.55903 0.92663 0.5381 0.0
C846 C 0.56292 0.88234 0.57094 0.0
C847 C 0.63555 0.85547 0.59268 0.0
H848 H 0.59615 0.83899 0.66728 0.0
C849 C 0.69349 0.82973 0.68929 0.0
C850 C 0.69122 0.80396 0.70695 0.0
C851 C 0.67547 0.84022 0.66855 0.0
C852 C 0.60727 0.84301 0.64639 0.0
H853 H 0.59551 0.94698 0.53302 0.0
H854 H 0.62185 0.91142 0.56616 0.0
H855 H 0.56839 0.86457 0.62917 0.0
H856 H 0.66724 0.76982 0.7177 0.0
H857 H 0.63504 0.78887 0.68145 0.0
H858 H 0.67447 0.83541 0.6102 0.0
C859 C 0.60137 0.90843 0.56208 0.0
C860 C 0.59145 0.85752 0.6246 0.0
C861 C 0.58615 0.92897 0.54323 0.0
C862 C 0.66951 0.78971 0.70435 0.0
C863 C 0.65115 0.80051 0.68367 0.0
C864 C 0.65127 0.84125 0.61441 0.0
C865 C 0.58986 0.88505 0.57633 0.0
C866 C 0.6056 0.86483 0.59782 0.0
C867 C 0.65459 0.82539 0.66517 0.0
C868 C 0.63735 0.83584 0.64162 0.0
H869 H 0.52677 0.90059 0.54829 0.0
H870 H 0.55361 0.86447 0.5816 0.0
H871 H 0.64695 0.86026 0.57209 0.0
H872 H 0.70988 0.84132 0.69077 0.0
H873 H 0.67815 0.85976 0.65477 0.0
C874 C 0.50651 0.36673 0.88742 0.0
C875 C 0.51758 0.36047 0.91326 0.0
C876 C 0.50129 0.34453 0.8746 0.0
C877 C 0.47644 0.27894 0.89542 0.0
H878 H 0.48122 0.27859 0.81485 0.0
C879 C 0.38505 0.26697 0.8408 0.0
C880 C 0.3906 0.24983 0.81863 0.0
C881 C 0.40757 0.27082 0.8536 0.0
C882 C 0.48024 0.27783 0.83742 0.0
H883 H 0.53339 0.32628 0.94541 0.0
H884 H 0.52346 0.28717 0.92322 0.0
H885 H 0.51198 0.30335 0.83349 0.0
H886 H 0.42365 0.22276 0.79263 0.0
H887 H 0.4635 0.2304 0.81457 0.0
H888 H 0.44317 0.25535 0.89921 0.0
C889 C 0.51917 0.30922 0.91279 0.0
C890 C 0.49771 0.29209 0.84805 0.0
C891 C 0.52485 0.33148 0.92542 0.0
C892 C 0.41899 0.23608 0.80975 0.0
C893 C 0.44166 0.2404 0.82224 0.0
C894 C 0.45879 0.26495 0.88478 0.0
C895 C 0.50668 0.31571 0.88761 0.0
C896 C 0.49495 0.29394 0.87704 0.0
C897 C 0.43608 0.25794 0.84418 0.0
C898 C 0.45961 0.2655 0.85563 0.0
H899 H 0.50091 0.38898 0.87767 0.0
H900 H 0.49127 0.35025 0.85543 0.0
H901 H 0.47375 0.28015 0.91785 0.0
H902 H 0.36328 0.27757 0.84809 0.0
H903 H 0.40274 0.28483 0.87018 0.0
C904 C 0.8753 0.75204 0.34398 0.0
C905 C 0.87986 0.75608 0.3145 0.0
C906 C 0.89313 0.76042 0.35975 0.0
C907 C 0.94201 0.8107 0.35332 0.0
H908 H 0.95276 0.77493 0.42933 0.0
C909 C 0.99748 0.85837 0.42672 0.0
C910 C 0.97921 0.86559 0.45131 0.0
C911 C 0.99111 0.83995 0.40987 0.0
C912 C 0.95009 0.78495 0.40805 0.0
H913 H 0.90739 0.77067 0.27832 0.0
H914 H 0.93935 0.78444 0.30586 0.0
H915 H 0.93222 0.75093 0.39888 0.0
H916 H 0.94095 0.85828 0.47843 0.0
H917 H 0.93013 0.82546 0.44923 0.0
H918 H 0.95993 0.8447 0.36269 0.0
C919 C 0.92148 0.77558 0.31686 0.0
C920 C 0.93815 0.77139 0.39065 0.0
C921 C 0.90331 0.76759 0.30105 0.0
C922 C 0.95529 0.85301 0.45952 0.0
C923 C 0.94923 0.83416 0.44295 0.0
C924 C 0.95442 0.82395 0.37056 0.0
C925 C 0.91623 0.77271 0.34643 0.0
C926 C 0.93307 0.78457 0.36336 0.0
C927 C 0.96671 0.82805 0.41765 0.0
C928 C 0.95779 0.81162 0.39831 0.0
H929 H 0.85711 0.74361 0.35487 0.0
H930 H 0.88792 0.75841 0.38239 0.0
H931 H 0.93811 0.8218 0.33265 0.0
H932 H 0.01592 0.86802 0.41988 0.0
H933 H 0.00486 0.83551 0.39043 0.0
C934 C 0.40933 0.58348 0.55555 0.0
C935 C 0.43866 0.58343 0.54859 0.0
C936 C 0.3903 0.60748 0.56614 0.0
C937 C 0.35223 0.66671 0.57491 0.0
H938 H 0.37402 0.6972 0.63621 0.0
C939 C 0.30409 0.74847 0.6671 0.0
C940 C 0.27967 0.7372 0.67768 0.0
C941 C 0.3226 0.73746 0.64418 0.0
C942 C 0.36777 0.68958 0.61863 0.0
H943 H 0.471 0.60859 0.54714 0.0
H944 H 0.43771 0.65045 0.56577 0.0
H945 H 0.40908 0.66159 0.61067 0.0
H946 H 0.25377 0.70803 0.67069 0.0
H947 H 0.28597 0.68877 0.63107 0.0
H948 H 0.31053 0.69392 0.58367 0.0
C949 C 0.42951 0.63187 0.56312 0.0
C950 C 0.38789 0.66902 0.60406 0.0
C951 C 0.44855 0.60788 0.55246 0.0
C952 C 0.27259 0.71694 0.66321 0.0
C953 C 0.291 0.70602 0.64031 0.0
C954 C 0.3321 0.68733 0.58946 0.0
C955 C 0.40017 0.63193 0.57004 0.0
C956 C 0.38006 0.65668 0.58266 0.0
C957 C 0.31689 0.71513 0.63141 0.0
C958 C 0.33939 0.69827 0.61209 0.0
H959 H 0.40101 0.56501 0.55278 0.0
H960 H 0.36791 0.60665 0.57177 0.0
H961 H 0.34578 0.65801 0.5581 0.0
H962 H 0.31002 0.76425 0.6777 0.0
H963 H 0.34215 0.74526 0.63745 0.0
C964 C 0.5461 0.06206 0.91982 0.0
C965 C 0.5452 0.0584 0.94929 0.0
C966 C 0.56364 0.07923 0.90258 0.0
C967 C 0.62505 0.11606 0.9043 0.0
H968 H 0.60402 0.15419 0.8318 0.0
C969 C 0.68405 0.20222 0.83661 0.0
C970 C 0.69071 0.20025 0.80751 0.0
C971 C 0.66647 0.18507 0.85378 0.0
C972 C 0.61039 0.14356 0.8519 0.0
H973 H 0.56196 0.07081 0.98352 0.0
H974 H 0.59131 0.1014 0.95399 0.0
H975 H 0.57321 0.12507 0.8615 0.0
H976 H 0.68343 0.17857 0.77388 0.0
H977 H 0.65248 0.14925 0.80359 0.0
H978 H 0.66186 0.1354 0.89479 0.0
C979 C 0.57933 0.09031 0.94378 0.0
C980 C 0.59268 0.12657 0.86907 0.0
C981 C 0.56215 0.07281 0.96094 0.0
C982 C 0.67893 0.18076 0.79614 0.0
C983 C 0.66097 0.16399 0.81322 0.0
C984 C 0.64251 0.13342 0.8873 0.0
C985 C 0.58066 0.09379 0.91417 0.0
C986 C 0.59964 0.11232 0.89566 0.0
C987 C 0.65452 0.16572 0.84238 0.0
C988 C 0.63557 0.1474 0.86074 0.0
H989 H 0.53357 0.05124 0.90994 0.0
H990 H 0.56411 0.08059 0.88005 0.0
H991 H 0.63194 0.10519 0.92411 0.0
H992 H 0.69263 0.21689 0.84624 0.0
H993 H 0.66189 0.1873 0.87602 0.0
C994 C 0.03039 0.40171 0.05648 0.0
C995 C 0.04416 0.42458 0.04537 0.0
C996 C 0.04379 0.37834 0.07446 0.0
C997 C 0.11477 0.34167 0.09567 0.0
H998 H 0.07469 0.32609 0.17014 0.0
C999 C 0.17203 0.31117 0.19197 0.0
C1000 C 0.16983 0.28488 0.20874 0.0
C1001 C 0.15393 0.32254 0.17146 0.0
C1002 C 0.08589 0.32972 0.14922 0.0
H1003 H 0.08295 0.44057 0.04365 0.0
H1004 H 0.10622 0.39998 0.07462 0.0
H1005 H 0.04808 0.35606 0.13288 0.0
H1006 H 0.14587 0.25067 0.21812 0.0
H1007 H 0.11342 0.27135 0.18221 0.0
H1008 H 0.15284 0.31708 0.11242 0.0
C1009 C 0.0852 0.39992 0.06947 0.0
C1010 C 0.07074 0.34677 0.12795 0.0
C1011 C 0.07176 0.42331 0.05191 0.0
C1012 C 0.14809 0.27094 0.20546 0.0
C1013 C 0.12961 0.28266 0.18498 0.0
C1014 C 0.12983 0.32484 0.11686 0.0
C1015 C 0.07132 0.37732 0.08112 0.0
C1016 C 0.08537 0.35394 0.10137 0.0
C1017 C 0.13301 0.30812 0.1674 0.0
C1018 C 0.11574 0.31981 0.14406 0.0
H1019 H 0.00904 0.40222 0.05184 0.0
H1020 H 0.03266 0.36117 0.08324 0.0
H1021 H 0.12643 0.34646 0.07522 0.0
H1022 H 0.18839 0.32258 0.19398 0.0
H1023 H 0.15658 0.3425 0.15837 0.0
C1024 C 0.60933 0.5198 0.92609 0.0
C1025 C 0.59456 0.49857 0.92321 0.0
C1026 C 0.63271 0.52435 0.90669 0.0
C1027 C 0.65982 0.52006 0.83345 0.0
H1028 H 0.72144 0.54667 0.85685 0.0
C1029 C 0.69875 0.6188 0.77875 0.0
C1030 C 0.72542 0.62321 0.78284 0.0
C1031 C 0.6909 0.59255 0.78928 0.0
C1032 C 0.70504 0.53858 0.84958 0.0
H1033 H 0.59314 0.46483 0.89822 0.0
H1034 H 0.63403 0.47318 0.86393 0.0
H1035 H 0.69264 0.5195 0.89102 0.0
H1036 H 0.76616 0.60283 0.79804 0.0
H1037 H 0.75274 0.55656 0.81599 0.0
H1038 H 0.67157 0.54012 0.79217 0.0
C1039 C 0.62743 0.48618 0.88129 0.0
C1040 C 0.68827 0.52329 0.86935 0.0
C1041 C 0.60406 0.48147 0.90088 0.0
C1042 C 0.74521 0.60004 0.79519 0.0
C1043 C 0.73752 0.57362 0.80541 0.0
C1044 C 0.67678 0.53519 0.81355 0.0
C1045 C 0.64183 0.50783 0.88394 0.0
C1046 C 0.66439 0.51559 0.86185 0.0
C1047 C 0.70972 0.57012 0.8039 0.0
C1048 C 0.69835 0.54627 0.82183 0.0
H1049 H 0.60263 0.53324 0.94313 0.0
H1050 H 0.64297 0.54163 0.90898 0.0
H1051 H 0.64166 0.51417 0.82702 0.0
H1052 H 0.68311 0.63637 0.76931 0.0
H1053 H 0.6692 0.59089 0.78796 0.0
C1054 C 0.73291 0.32068 0.17591 0.0
C1055 C 0.71939 0.29982 0.19258 0.0
C1056 C 0.7212 0.33652 0.15228 0.0
C1057 C 0.66841 0.33683 0.10439 0.0
H1058 H 0.66241 0.42024 0.09392 0.0
C1059 C 0.58795 0.44529 0.05779 0.0
C1060 C 0.58302 0.43586 0.03331 0.0
C1061 C 0.60961 0.42888 0.07312 0.0
C1062 C 0.66389 0.39697 0.09662 0.0
H1063 H 0.68311 0.27919 0.1979 0.0
H1064 H 0.66214 0.30748 0.15738 0.0
H1065 H 0.69088 0.39007 0.12907 0.0
H1066 H 0.59745 0.40285 0.00476 0.0
H1067 H 0.63585 0.37462 0.03106 0.0
H1068 H 0.6397 0.34382 0.07362 0.0
C1069 C 0.6822 0.31106 0.16195 0.0
C1070 C 0.68053 0.37966 0.11645 0.0
C1071 C 0.69403 0.29508 0.18534 0.0
C1072 C 0.6005 0.41025 0.02393 0.0
C1073 C 0.62249 0.39413 0.03895 0.0
C1074 C 0.65147 0.35415 0.08488 0.0
C1075 C 0.6957 0.33186 0.14513 0.0
C1076 C 0.68214 0.34954 0.12114 0.0
C1077 C 0.62702 0.40306 0.0639 0.0
C1078 C 0.64834 0.3845 0.08142 0.0
H1079 H 0.75269 0.32454 0.18092 0.0
H1080 H 0.73214 0.35228 0.13956 0.0
H1081 H 0.66983 0.31356 0.10713 0.0
H1082 H 0.57474 0.46504 0.06537 0.0
H1083 H 0.61215 0.43605 0.09257 0.0
C1084 C 0.89307 0.48654 0.39271 0.0
C1085 C 0.91899 0.49593 0.3879 0.0
C1086 C 0.88284 0.47746 0.37093 0.0
C1087 C 0.91134 0.44018 0.31003 0.0
H1088 H 0.83091 0.44923 0.30228 0.0
C1089 C 0.86298 0.34898 0.28721 0.0
C1090 C 0.84096 0.35544 0.26996 0.0
C1091 C 0.87478 0.37107 0.29326 0.0
C1092 C 0.85352 0.44686 0.3037 0.0
H1093 H 0.95388 0.50467 0.35651 0.0
H1094 H 0.93616 0.48822 0.31824 0.0
H1095 H 0.84534 0.48238 0.32839 0.0
H1096 H 0.81465 0.38974 0.24464 0.0
H1097 H 0.83503 0.42869 0.25568 0.0
H1098 H 0.91931 0.40362 0.28674 0.0
C1099 C 0.9237 0.48813 0.33883 0.0
C1100 C 0.86173 0.46571 0.31879 0.0
C1101 C 0.93372 0.49767 0.3606 0.0
C1102 C 0.83173 0.38424 0.2579 0.0
C1103 C 0.84325 0.40647 0.2643 0.0
C1104 C 0.90309 0.42117 0.29518 0.0
C1105 C 0.89855 0.47719 0.34401 0.0
C1106 C 0.8906 0.46188 0.32295 0.0
C1107 C 0.86453 0.40014 0.28246 0.0
C1108 C 0.87398 0.42369 0.29275 0.0
H1109 H 0.88141 0.48502 0.41364 0.0
H1110 H 0.86359 0.46883 0.37567 0.0
H1111 H 0.93372 0.43657 0.31305 0.0
H1112 H 0.87051 0.32692 0.29666 0.0
H1113 H 0.8909 0.36557 0.30758 0.0
C1114 C 0.61048 0.61323 0.50774 0.0
C1115 C 0.61526 0.58583 0.49822 0.0
C1116 C 0.63036 0.63079 0.49909 0.0
C1117 C 0.65541 0.66913 0.45185 0.0
H1118 H 0.7351 0.64126 0.42294 0.0
C1119 C 0.69972 0.70075 0.33981 0.0
C1120 C 0.72788 0.70488 0.33327 0.0
C1121 C 0.68939 0.69173 0.36733 0.0
C1122 C 0.71306 0.64975 0.43128 0.0
H1123 H 0.64613 0.55366 0.47559 0.0
H1124 H 0.68022 0.58442 0.45966 0.0
H1125 H 0.71319 0.61367 0.46342 0.0
H1126 H 0.76728 0.70314 0.35048 0.0
H1127 H 0.74916 0.68693 0.39868 0.0
H1128 H 0.65493 0.70445 0.41896 0.0
C1129 C 0.66139 0.59255 0.47388 0.0
C1130 C 0.70046 0.63386 0.45435 0.0
C1131 C 0.64162 0.57501 0.48263 0.0
C1132 C 0.74546 0.70004 0.35488 0.0
C1133 C 0.73515 0.69081 0.38245 0.0
C1134 C 0.66803 0.68503 0.42893 0.0
C1135 C 0.65519 0.62127 0.48064 0.0
C1136 C 0.67102 0.64242 0.46369 0.0
C1137 C 0.70702 0.68656 0.3889 0.0
C1138 C 0.69641 0.67451 0.41739 0.0
H1139 H 0.59041 0.62206 0.51996 0.0
H1140 H 0.62526 0.65261 0.50509 0.0
H1141 H 0.63269 0.67646 0.45838 0.0
H1142 H 0.68565 0.70435 0.32366 0.0
H1143 H 0.66779 0.68801 0.37157 0.0
C1144 C 0.77169 0.31815 0.8894 0.0
C1145 C 0.75192 0.33175 0.87052 0.0
C1146 C 0.77926 0.33408 0.90783 0.0
C1147 C 0.78972 0.37191 0.94851 0.0
H1148 H 0.81479 0.43818 0.90418 0.0
C1149 C 0.86429 0.43571 0.98503 0.0
C1150 C 0.88852 0.43782 0.9652 0.0
C1151 C 0.84133 0.42617 0.9779 0.0
C1152 C 0.8076 0.41996 0.91696 0.0
H1153 H 0.72282 0.37198 0.85748 0.0
H1154 H 0.73625 0.40014 0.88972 0.0
H1155 H 0.78281 0.4149 0.88591 0.0
H1156 H 0.90784 0.43047 0.92264 0.0
H1157 H 0.86763 0.41473 0.91013 0.0
H1158 H 0.81601 0.37616 0.97884 0.0
C1159 C 0.74591 0.37714 0.89019 0.0
C1160 C 0.78903 0.4068 0.90666 0.0
C1161 C 0.73813 0.36105 0.87188 0.0
C1162 C 0.88929 0.42991 0.93824 0.0
C1163 C 0.86626 0.42082 0.93104 0.0
C1164 C 0.80815 0.38527 0.95893 0.0
C1165 C 0.76737 0.36403 0.90757 0.0
C1166 C 0.78085 0.3819 0.92178 0.0
C1167 C 0.84202 0.419 0.95071 0.0
C1168 C 0.81819 0.40863 0.94266 0.0
H1169 H 0.78244 0.29549 0.88883 0.0
H1170 H 0.79602 0.32337 0.92073 0.0
H1171 H 0.78356 0.35288 0.9607 0.0
H1172 H 0.8628 0.44192 0.00589 0.0
H1173 H 0.82285 0.42486 0.99343 0.0
C1174 C 0.80884 0.78682 0.16641 0.0
C1175 C 0.78578 0.7729 0.16982 0.0
C1176 C 0.81401 0.80532 0.14207 0.0
C1177 C 0.80712 0.82544 0.06914 0.0
H1178 H 0.80984 0.90147 0.08673 0.0
C1179 C 0.88171 0.89522 0.00933 0.0
C1180 C 0.87554 0.92501 0.0122 0.0
C1181 C 0.86149 0.87858 0.02019 0.0
C1182 C 0.80838 0.88075 0.08109 0.0
H1183 H 0.75131 0.76576 0.14961 0.0
H1184 H 0.76091 0.79802 0.10656 0.0
H1185 H 0.79398 0.86645 0.12361 0.0
H1186 H 0.8424 0.96166 0.02491 0.0
H1187 H 0.80668 0.93272 0.04339 0.0
H1188 H 0.82307 0.83932 0.02676 0.0
C1189 C 0.77458 0.79471 0.12302 0.0
C1190 C 0.79964 0.86058 0.10238 0.0
C1191 C 0.76916 0.77635 0.1476 0.0
C1192 C 0.84776 0.93857 0.02301 0.0
C1193 C 0.82739 0.92201 0.03353 0.0
C1194 C 0.81608 0.84569 0.04769 0.0
C1195 C 0.79644 0.81001 0.12059 0.0
C1196 C 0.80015 0.83244 0.09682 0.0
C1197 C 0.83473 0.89157 0.03395 0.0
C1198 C 0.81797 0.87313 0.05376 0.0
H1199 H 0.82212 0.78453 0.18305 0.0
H1200 H 0.83127 0.81668 0.14035 0.0
H1201 H 0.80744 0.80382 0.06448 0.0
H1202 H 0.90302 0.88428 0.00104 0.0
H1203 H 0.86796 0.85521 0.02024 0.0
C1204 C 0.82688 0.19633 0.80736 0.0
C1205 C 0.81853 0.19181 0.78214 0.0
C1206 C 0.84987 0.17712 0.81894 0.0
C1207 C 0.89161 0.1016 0.81949 0.0
H1208 H 0.9385 0.13002 0.86238 0.0
C1209 C 0.98461 0.05808 0.90069 0.0
C1210 C 0.97248 0.03613 0.91723 0.0
C1211 C 0.9709 0.07523 0.87851 0.0
C1212 C 0.92608 0.12159 0.85009 0.0
H1213 H 0.82828 0.16378 0.74896 0.0
H1214 H 0.86886 0.13023 0.76911 0.0
H1215 H 0.90573 0.16442 0.83368 0.0
H1216 H 0.93724 0.01399 0.92244 0.0
H1217 H 0.91322 0.04407 0.88453 0.0
H1218 H 0.91209 0.05873 0.83583 0.0
C1219 C 0.85728 0.14853 0.78009 0.0
C1220 C 0.90691 0.1414 0.83392 0.0
C1221 C 0.8341 0.1678 0.76849 0.0
C1222 C 0.94719 0.03076 0.91021 0.0
C1223 C 0.93347 0.04793 0.88821 0.0
C1224 C 0.91097 0.08175 0.83551 0.0
C1225 C 0.86534 0.15289 0.80557 0.0
C1226 C 0.88873 0.13171 0.81917 0.0
C1227 C 0.94474 0.07085 0.87246 0.0
C1228 C 0.92778 0.09152 0.85175 0.0
H1229 H 0.81537 0.21454 0.81852 0.0
H1230 H 0.85499 0.18091 0.83886 0.0
H1231 H 0.87796 0.0933 0.80845 0.0
H1232 H 0.00417 0.06265 0.90543 0.0
H1233 H 0.98047 0.09237 0.86652 0.0
C1234 C 0.72289 0.14322 0.6478 0.0
C1235 C 0.73852 0.16517 0.64057 0.0
C1236 C 0.7168 0.12898 0.62712 0.0
C1237 C 0.70648 0.14081 0.55272 0.0
H1238 H 0.69729 0.06116 0.56885 0.0
C1239 C 0.65393 0.05055 0.5107 0.0
C1240 C 0.62801 0.06912 0.50421 0.0
C1241 C 0.67459 0.06136 0.52049 0.0
C1242 C 0.70023 0.08323 0.56348 0.0
H1243 H 0.76123 0.18853 0.6061 0.0
H1244 H 0.75079 0.16329 0.56967 0.0
H1245 H 0.72224 0.07988 0.59924 0.0
H1246 H 0.60356 0.11352 0.50151 0.0
H1247 H 0.63906 0.13248 0.5196 0.0
H1248 H 0.68435 0.14416 0.51694 0.0
C1249 C 0.74298 0.15738 0.59142 0.0
C1250 C 0.71425 0.0941 0.58123 0.0
C1251 C 0.74917 0.17163 0.61226 0.0
C1252 C 0.62359 0.09893 0.50618 0.0
C1253 C 0.64405 0.10972 0.51644 0.0
C1254 C 0.69265 0.12985 0.53475 0.0
C1255 C 0.72626 0.13626 0.59861 0.0
C1256 C 0.71655 0.12332 0.57672 0.0
C1257 C 0.66941 0.09088 0.52463 0.0
C1258 C 0.68844 0.10121 0.54047 0.0
H1259 H 0.71469 0.13754 0.6695 0.0
H1260 H 0.70357 0.11313 0.63346 0.0
H1261 H 0.70784 0.16345 0.54863 0.0
H1262 H 0.6577 0.02744 0.50923 0.0
H1263 H 0.69412 0.04632 0.52589 0.0
C1264 C 0.58492 0.97841 0.39813 0.0
C1265 C 0.56453 0.96381 0.41394 0.0
C1266 C 0.60217 0.96695 0.3748 0.0
C1267 C 0.61036 0.91 0.32714 0.0
H1268 H 0.69105 0.91119 0.32038 0.0
C1269 C 0.69152 0.83476 0.25767 0.0
C1270 C 0.7159 0.81954 0.27023 0.0
C1271 C 0.67432 0.85972 0.26819 0.0
C1272 C 0.66859 0.9106 0.32197 0.0
H1273 H 0.54586 0.92609 0.41755 0.0
H1274 H 0.57658 0.90549 0.37775 0.0
H1275 H 0.65694 0.93998 0.35316 0.0
H1276 H 0.74249 0.81927 0.30244 0.0
H1277 H 0.7119 0.86177 0.32175 0.0
H1278 H 0.62217 0.87868 0.29796 0.0
C1279 C 0.5788 0.92622 0.38266 0.0
C1280 C 0.64891 0.92749 0.34051 0.0
C1281 C 0.56133 0.93787 0.40571 0.0
C1282 C 0.72378 0.83062 0.29237 0.0
C1283 C 0.70628 0.85521 0.30329 0.0
C1284 C 0.63006 0.89273 0.30901 0.0
C1285 C 0.5996 0.94048 0.36703 0.0
C1286 C 0.61969 0.92657 0.34404 0.0
C1287 C 0.68081 0.86954 0.29192 0.0
C1288 C 0.65958 0.89203 0.30691 0.0
H1289 H 0.58763 -0.00135 0.40383 0.0
H1290 H 0.61764 0.97873 0.363 0.0
H1291 H 0.5879 0.90939 0.32873 0.0
H1292 H 0.68525 0.82688 0.24023 0.0
H1293 H 0.65535 0.87064 0.25838 0.0
C1294 C 0.8166 0.20212 0.33767 0.0
C1295 C 0.79802 0.19168 0.32418 0.0
C1296 C 0.83546 0.18298 0.35437 0.0
C1297 C 0.87544 0.10855 0.35897 0.0
H1298 H 0.89362 0.12489 0.42928 0.0
C1299 C 0.95306 0.02853 0.42828 0.0
C1300 C 0.96949 0.04034 0.44313 0.0
C1301 C 0.93332 0.04676 0.41181 0.0
C1302 C 0.88905 0.1203 0.40943 0.0
H1303 H 0.78319 0.15348 0.31884 0.0
H1304 H 0.81649 0.11982 0.34815 0.0
H1305 H 0.85333 0.15668 0.40767 0.0
H1306 H 0.98023 0.08019 0.45031 0.0
H1307 H 0.94612 0.11201 0.42099 0.0
H1308 H 0.91139 0.07239 0.3605 0.0
C1309 C 0.81649 0.1428 0.34553 0.0
C1310 C 0.86587 0.13831 0.39726 0.0
C1311 C 0.79737 0.16204 0.32899 0.0
C1312 C 0.9676 0.0705 0.43936 0.0
C1313 C 0.94793 0.08872 0.42278 0.0
C1314 C 0.89871 0.09058 0.37109 0.0
C1315 C 0.83616 0.15308 0.35771 0.0
C1316 C 0.85899 0.13265 0.37188 0.0
C1317 C 0.92984 0.07706 0.40981 0.0
C1318 C 0.90582 0.09643 0.39633 0.0
H1319 H 0.81735 0.22495 0.33446 0.0
H1320 H 0.85053 0.19139 0.36344 0.0
H1321 H 0.87081 0.10408 0.33909 0.0
H1322 H 0.95415 0.00533 0.43069 0.0
H1323 H 0.91961 0.03719 0.40206 0.0
C1324 C 0.64523 0.14263 0.24829 0.0
C1325 C 0.67523 0.13791 0.24529 0.0
C1326 C 0.63201 0.12336 0.23872 0.0
C1327 C 0.64841 0.07053 0.18656 0.0
H1328 H 0.5723 0.05846 0.21588 0.0
C1329 C 0.59062 0.00864 0.12884 0.0
C1330 C 0.56317 0.02434 0.12324 0.0
C1331 C 0.60442 0.01683 0.14872 0.0
C1332 C 0.59362 0.06156 0.20755 0.0
H1333 H 0.71506 0.10872 0.23191 0.0
H1334 H 0.69219 0.07431 0.21642 0.0
H1335 H 0.59673 0.08283 0.24252 0.0
H1336 H 0.52785 0.05953 0.13531 0.0
H1337 H 0.55187 0.07377 0.17001 0.0
H1338 H 0.64513 0.04968 0.15144 0.0
C1339 C 0.67869 0.09328 0.22517 0.0
C1340 C 0.60759 0.07564 0.22272 0.0
C1341 C 0.69184 0.11277 0.23429 0.0
C1342 C 0.54914 0.04725 0.13902 0.0
C1343 C 0.56279 0.05522 0.15907 0.0
C1344 C 0.63459 0.05623 0.1716 0.0
C1345 C 0.64863 0.09886 0.22627 0.0
C1346 C 0.63493 0.08088 0.21211 0.0
C1347 C 0.59088 0.04062 0.16359 0.0
C1348 C 0.60681 0.05214 0.18159 0.0
H1349 H 0.63207 0.16208 0.25649 0.0
H1350 H 0.60886 0.12861 0.23969 0.0
H1351 H 0.66915 0.07462 0.17732 0.0
H1352 H 0.60194 0.99095 0.11692 0.0
H1353 H 0.626 0.00506 0.15193 0.0
C1354 C 0.71254 0.82588 0.83429 0.0
C1355 C 0.714 0.79707 0.82982 0.0
C1356 C 0.69671 0.83704 0.85833 0.0
C1357 C 0.67028 0.85419 0.91547 0.0
H1358 H 0.59509 0.83633 0.93597 0.0
C1359 C 0.58364 0.92035 0.99103 0.0
C1360 C 0.55703 0.92993 0.98054 0.0
C1361 C 0.60471 0.89826 0.97921 0.0
C1362 C 0.61607 0.84148 0.93061 0.0
H1363 H 0.70095 0.75698 0.84768 0.0
H1364 H 0.67362 0.77637 0.89001 0.0
H1365 H 0.62958 0.80942 0.90203 0.0
H1366 H 0.5311 0.92282 0.95049 0.0
H1367 H 0.56758 0.88506 0.92983 0.0
H1368 H 0.65591 0.88777 0.94248 0.0
C1369 C 0.68428 0.79051 0.87461 0.0
C1370 C 0.63602 0.82578 0.91136 0.0
C1371 C 0.69998 0.77937 0.85038 0.0
C1372 C 0.55143 0.91611 0.95899 0.0
C1373 C 0.57232 0.89414 0.9473 0.0
C1374 C 0.65022 0.87008 0.93455 0.0
C1375 C 0.68212 0.81962 0.87869 0.0
C1376 C 0.663 0.83267 0.90276 0.0
C1377 C 0.59941 0.88528 0.95685 0.0
C1378 C 0.6225 0.86463 0.94149 0.0
H1379 H 0.72308 0.84012 0.81886 0.0
H1380 H 0.69511 0.85971 0.86041 0.0
H1381 H 0.69113 0.8596 0.90983 0.0
H1382 H 0.58853 0.93053 0.0077 0.0
H1383 H 0.6253 0.89174 0.98718 0.0
C1384 C 0.90596 0.98732 0.55946 0.0
C1385 C 0.92515 0.00542 0.55884 0.0
C1386 C 0.88132 0.98982 0.5789 0.0
C1387 C 0.85887 0.00838 0.64979 0.0
H1388 H 0.79291 0.98089 0.63773 0.0
C1389 C 0.81957 0.91831 0.72085 0.0
C1390 C 0.79262 0.91303 0.71915 0.0
C1391 C 0.8272 0.94363 0.70674 0.0
C1392 C 0.81058 0.98941 0.6418 0.0
H1393 H 0.93251 0.04186 0.57662 0.0
H1394 H 0.88936 0.04608 0.61078 0.0
H1395 H 0.82151 0.00147 0.59792 0.0
H1396 H 0.75111 0.93134 0.70483 0.0
H1397 H 0.76402 0.97616 0.68091 0.0
H1398 H 0.84851 0.99537 0.69361 0.0
C1399 C 0.89356 0.02982 0.59636 0.0
C1400 C 0.82722 0.00091 0.61878 0.0
C1401 C 0.91824 0.02738 0.57679 0.0
C1402 C 0.77223 0.93485 0.70596 0.0
C1403 C 0.77969 0.96041 0.69222 0.0
C1404 C 0.842 -0.00281 0.6729 0.0
C1405 C 0.8753 0.01047 0.59817 0.0
C1406 C 0.85271 0.00844 0.62236 0.0
C1407 C 0.80786 0.96424 0.69091 0.0
C1408 C 0.81894 0.98554 0.66892 0.0
H1409 H 0.91055 0.97035 0.54576 0.0
H1410 H 0.868 0.97424 0.57994 0.0
H1411 H 0.87824 0.01427 0.65335 0.0
H1412 H 0.83562 0.90174 0.7309 0.0
H1413 H 0.84916 0.94556 0.70615 0.0
C1414 C 0.17617 0.75015 0.85034 0.0
C1415 C 0.20553 0.75005 0.84525 0.0
C1416 C 0.15909 0.76362 0.87266 0.0
C1417 C 0.16132 0.82242 0.91375 0.0
H1418 H 0.08262 0.81609 0.93804 0.0
C1419 C 0.04824 0.89176 0.97199 0.0
C1420 C 0.0522 0.91966 0.9608 0.0
C1421 C 0.06807 0.86704 0.9637 0.0
C1422 C 0.10466 0.81803 0.93198 0.0
H1423 H 0.24096 0.76019 0.86123 0.0
H1424 H 0.21172 0.78138 0.90176 0.0
H1425 H 0.11657 0.7759 0.91799 0.0
H1426 H 0.07914 0.9438 0.9315 0.0
H1427 H 0.11261 0.901 0.91562 0.0
H1428 H 0.14986 0.86388 0.92889 0.0
C1429 C 0.20132 0.77291 0.88761 0.0
C1430 C 0.12413 0.79505 0.92002 0.0
C1431 C 0.21822 0.76039 0.86465 0.0
C1432 C 0.07575 0.92249 0.94061 0.0
C1433 C 0.09515 0.89788 0.93182 0.0
C1434 C 0.14213 0.84496 0.92639 0.0
C1435 C 0.17123 0.77655 0.8908 0.0
C1436 C 0.15241 0.79748 0.90949 0.0
C1437 C 0.09192 0.86979 0.94361 0.0
C1438 C 0.1132 0.84372 0.93442 0.0
H1439 H 0.16589 0.74244 0.8355 0.0
H1440 H 0.13613 0.76593 0.87403 0.0
H1441 H 0.1827 0.82559 0.9059 0.0
H1442 H 0.03036 0.88904 0.98786 0.0
H1443 H 0.06496 0.84587 0.97347 0.0
C1444 C 0.94228 0.44564 0.59004 0.0
C1445 C 0.94147 0.45167 0.56077 0.0
C1446 C 0.92515 0.42782 0.60691 0.0
C1447 C 0.88584 0.36973 0.60413 0.0
H1448 H 0.84509 0.39227 0.67543 0.0
C1449 C 0.805 0.30369 0.67016 0.0
C1450 C 0.80012 0.30337 0.6996 0.0
C1451 C 0.82208 0.32159 0.6533 0.0
C1452 C 0.85662 0.38509 0.65588 0.0
H1453 H 0.92182 0.44298 0.52655 0.0
H1454 H 0.89255 0.41167 0.55573 0.0
H1455 H 0.87516 0.42278 0.64683 0.0
H1456 H 0.81027 0.32158 0.73418 0.0
H1457 H 0.84069 0.35152 0.70537 0.0
H1458 H 0.86815 0.33168 0.6133 0.0
C1459 C 0.90636 0.42083 0.56574 0.0
C1460 C 0.87391 0.40289 0.63929 0.0
C1461 C 0.92311 0.43902 0.54895 0.0
C1462 C 0.81323 0.32128 0.71161 0.0
C1463 C 0.83064 0.33882 0.69485 0.0
C1464 C 0.86891 0.35167 0.62091 0.0
C1465 C 0.90697 0.41496 0.59505 0.0
C1466 C 0.88875 0.39562 0.61305 0.0
C1467 C 0.83534 0.33958 0.66526 0.0
C1468 C 0.8538 0.35896 0.64716 0.0
H1469 H 0.95608 0.45487 0.60001 0.0
H1470 H 0.92649 0.42374 0.6293 0.0
H1471 H 0.89715 0.36305 0.58428 0.0
H1472 H 0.7952 0.29042 0.66 0.0
H1473 H 0.8244 0.32157 0.63076 0.0
C1474 C 0.47569 0.09255 0.42649 0.0
C1475 C 0.46973 0.06464 0.43311 0.0
C1476 C 0.46053 0.11317 0.40731 0.0
C1477 C 0.41825 0.11814 0.34918 0.0
H1478 H 0.37815 0.1941 0.37008 0.0
C1479 C 0.31449 0.17918 0.3074 0.0
C1480 C 0.31089 0.20902 0.29807 0.0
C1481 C 0.33814 0.16445 0.32082 0.0
C1482 C 0.3897 0.17319 0.36372 0.0
H1483 H 0.4432 0.03654 0.42493 0.0
H1484 H 0.41706 0.07223 0.39178 0.0
H1485 H 0.41289 0.16271 0.39958 0.0
H1486 H 0.32904 0.24696 0.29578 0.0
H1487 H 0.37046 0.22099 0.3199 0.0
H1488 H 0.39423 0.12791 0.31413 0.0
C1489 C 0.43354 0.07817 0.4011 0.0
C1490 C 0.40954 0.15529 0.38055 0.0
C1491 C 0.44839 0.0578 0.42031 0.0
C1492 C 0.33134 0.22392 0.3027 0.0
C1493 C 0.35495 0.20916 0.3165 0.0
C1494 C 0.39847 0.13591 0.33249 0.0
C1495 C 0.43955 0.10596 0.39425 0.0
C1496 C 0.4231 0.12717 0.37396 0.0
C1497 C 0.35862 0.17924 0.32543 0.0
C1498 C 0.38322 0.16311 0.34019 0.0
H1499 H 0.49202 0.09843 0.43607 0.0
H1500 H 0.46545 0.13452 0.40239 0.0
H1501 H 0.42888 0.09676 0.34336 0.0
H1502 H 0.29912 0.16708 0.30417 0.0
H1503 H 0.34024 0.14146 0.32794 0.0
C1504 C 0.55067 0.62813 0.0452 0.0
C1505 C 0.53119 0.61007 0.05466 0.0
C1506 C 0.55561 0.64661 0.06282 0.0
C1507 C 0.55721 0.64872 0.13667 0.0
H1508 H 0.57146 0.72584 0.11211 0.0
C1509 C 0.61128 0.7034 0.20496 0.0
C1510 C 0.63342 0.7163 0.19033 0.0
C1511 C 0.59181 0.69585 0.19037 0.0
C1512 C 0.56764 0.70429 0.11928 0.0
H1513 H 0.50073 0.59792 0.08947 0.0
H1514 H 0.50962 0.63009 0.1205 0.0
H1515 H 0.54946 0.70284 0.08201 0.0
H1516 H 0.65219 0.73196 0.14905 0.0
H1517 H 0.61882 0.71832 0.12363 0.0
H1518 H 0.57687 0.6492 0.17306 0.0
C1519 C 0.52095 0.63 0.0994 0.0
C1520 C 0.55493 0.69122 0.1021 0.0
C1521 C 0.51575 0.61176 0.08162 0.0
C1522 C 0.63511 0.72241 0.16095 0.0
C1523 C 0.61585 0.71466 0.14637 0.0
C1524 C 0.57018 0.66164 0.15372 0.0
C1525 C 0.54139 0.64711 0.09037 0.0
C1526 C 0.5503 0.663 0.11031 0.0
C1527 C 0.59427 0.70079 0.16083 0.0
C1528 C 0.57633 0.68924 0.14487 0.0
H1529 H 0.56271 0.62734 0.02443 0.0
H1530 H 0.57168 0.65935 0.05539 0.0
H1531 H 0.55419 0.6268 0.14339 0.0
H1532 H 0.60927 0.69879 0.22766 0.0
H1533 H 0.57516 0.68565 0.20222 0.0
C1534 C 0.15394 0.20004 0.66737 0.0
C1535 C 0.145 0.21772 0.68917 0.0
C1536 C 0.13425 0.19637 0.65081 0.0
C1537 C 0.06058 0.19275 0.65453 0.0
H1538 H 0.08122 0.18761 0.57458 0.0
C1539 C 0.03667 0.10654 0.59842 0.0
C1540 C 0.03061 0.11294 0.57051 0.0
C1541 C 0.0421 0.12788 0.6123 0.0
C1542 C 0.07467 0.18959 0.59673 0.0
H1543 H 0.10876 0.24592 0.71059 0.0
H1544 H 0.07378 0.23874 0.68188 0.0
H1545 H 0.1084 0.21092 0.59919 0.0
H1546 H 0.02408 0.14682 0.53551 0.0
H1547 H 0.03427 0.18431 0.55972 0.0
H1548 H 0.028 0.16978 0.65239 0.0
C1549 C 0.09615 0.22806 0.67753 0.0
C1550 C 0.09037 0.20272 0.61083 0.0
C1551 C 0.11605 0.23213 0.69388 0.0
C1552 C 0.02879 0.14142 0.55704 0.0
C1553 C 0.03461 0.16278 0.57084 0.0
C1554 C 0.045 0.17942 0.64046 0.0
C1555 C 0.10514 0.21007 0.6559 0.0
C1556 C 0.08429 0.20319 0.64006 0.0
C1557 C 0.04182 0.15601 0.59844 0.0
C1558 C 0.05278 0.17655 0.61169 0.0
H1559 H 0.17622 0.189 0.66315 0.0
H1560 H 0.14166 0.18201 0.63457 0.0
H1561 H 0.0555 0.19281 0.67708 0.0
H1562 H 0.03783 0.0848 0.60934 0.0
H1563 H 0.04799 0.12189 0.6334 0.0
C1564 C 0.6682 0.2869 0.32875 0.0
C1565 C 0.69499 0.29346 0.31815 0.0
C1566 C 0.64869 0.3046 0.34689 0.0
C1567 C 0.63166 0.37907 0.36668 0.0
H1568 H 0.59101 0.34717 0.43496 0.0
C1569 C 0.5755 0.44995 0.45313 0.0
C1570 C 0.54774 0.44709 0.46494 0.0
C1571 C 0.59242 0.42997 0.43573 0.0
C1572 C 0.60199 0.35635 0.4158 0.0
H1573 H 0.72256 0.32332 0.31882 0.0
H1574 H 0.68885 0.35375 0.35034 0.0
H1575 H 0.62199 0.31433 0.40294 0.0
H1576 H 0.51626 0.42052 0.4684 0.0
H1577 H 0.54593 0.38561 0.43787 0.0
H1578 H 0.61203 0.42098 0.37948 0.0
C1579 C 0.68263 0.33532 0.34434 0.0
C1580 C 0.61965 0.33759 0.39748 0.0
C1581 C 0.70203 0.31772 0.32637 0.0
C1582 C 0.53757 0.42333 0.4596 0.0
C1583 C 0.55457 0.40328 0.44221 0.0
C1584 C 0.61411 0.39775 0.38493 0.0
C1585 C 0.65565 0.32919 0.35457 0.0
C1586 C 0.63504 0.34879 0.37299 0.0
C1587 C 0.58198 0.40668 0.42975 0.0
C1588 C 0.59947 0.3866 0.40991 0.0
H1589 H 0.66219 0.26833 0.32281 0.0
H1590 H 0.62798 0.29943 0.35442 0.0
H1591 H 0.64275 0.38837 0.34764 0.0
H1592 H 0.58403 0.46792 0.45692 0.0
H1593 H 0.61368 0.43285 0.4268 0.0
C1594 C 0.4413 0.94585 0.08759 0.0
C1595 C 0.44282 0.94887 0.05805 0.0
C1596 C 0.42364 0.92879 0.10479 0.0
C1597 C 0.38702 0.86804 0.10472 0.0
H1598 H 0.33975 0.89751 0.17071 0.0
C1599 C 0.30373 0.80522 0.17089 0.0
C1600 C 0.29642 0.80786 0.1998 0.0
C1601 C 0.32131 0.82234 0.15364 0.0
C1602 C 0.35308 0.88843 0.15272 0.0
H1603 H 0.42687 0.9356 0.02374 0.0
H1604 H 0.39673 0.90555 0.05356 0.0
H1605 H 0.37107 0.92638 0.14157 0.0
H1606 H 0.30268 0.83059 0.23307 0.0
H1607 H 0.33392 0.8593 0.20369 0.0
H1608 H 0.36987 0.82977 0.11607 0.0
C1609 C 0.40911 0.9165 0.0635 0.0
C1610 C 0.3711 0.90527 0.13581 0.0
C1611 C 0.42637 0.93393 0.04633 0.0
C1612 C 0.3075 0.82802 0.2109 0.0
C1613 C 0.32542 0.8448 0.19379 0.0
C1614 C 0.36935 0.85097 0.12186 0.0
C1615 C 0.40727 0.91374 0.09306 0.0
C1616 C 0.38831 0.89545 0.11144 0.0
C1617 C 0.33267 0.84247 0.16471 0.0
C1618 C 0.35186 0.86081 0.14623 0.0
H1619 H 0.45355 0.95696 0.0975 0.0
H1620 H 0.42308 0.92711 0.12739 0.0
H1621 H 0.40014 0.85944 0.08638 0.0
H1622 H 0.29558 0.7901 0.16143 0.0
H1623 H 0.3256 0.81993 0.13145 0.0
C1624 C 0.93743 0.57843 0.94321 0.0
C1625 C 0.96527 0.57703 0.94917 0.0
C1626 C 0.92299 0.60274 0.92739 0.0
C1627 C 0.93364 0.66103 0.8727 0.0
H1628 H 0.85197 0.68846 0.89392 0.0
C1629 C 0.85151 0.74314 0.80402 0.0
C1630 C 0.8297 0.72959 0.80015 0.0
C1631 C 0.87102 0.72983 0.8232 0.0
C1632 C 0.87485 0.68134 0.88793 0.0
H1633 H 0.9999 0.60004 0.94318 0.0
H1634 H 0.9745 0.64273 0.91488 0.0
H1635 H 0.88084 0.65562 0.92748 0.0
H1636 H 0.81184 0.69113 0.81272 0.0
H1637 H 0.84538 0.66848 0.84613 0.0
H1638 H 0.92706 0.6859 0.83253 0.0
C1639 C 0.96397 0.62491 0.92275 0.0
C1640 C 0.89131 0.66252 0.90703 0.0
C1641 C 0.9784 0.60058 0.93896 0.0
C1642 C 0.82825 0.70228 0.8152 0.0
C1643 C 0.84735 0.68932 0.83447 0.0
C1644 C 0.91708 0.68007 0.85352 0.0
C1645 C 0.93606 0.62621 0.91696 0.0
C1646 C 0.92056 0.65111 0.89915 0.0
C1647 C 0.86856 0.70313 0.83897 0.0
C1648 C 0.88735 0.68927 0.86067 0.0
H1649 H 0.9267 0.56068 0.95074 0.0
H1650 H 0.9017 0.60289 0.9228 0.0
H1651 H 0.95615 0.6525 0.86612 0.0
H1652 H 0.85316 0.76417 0.79265 0.0
H1653 H 0.88741 0.74071 0.82633 0.0
C1654 C 0.44308 0.49105 0.06426 0.0
C1655 C 0.45286 0.47341 0.04238 0.0
C1656 C 0.4206 0.48566 0.08473 0.0
C1657 C 0.36062 0.44772 0.09881 0.0
H1658 H 0.37193 0.44211 0.17711 0.0
C1659 C 0.32627 0.37667 0.20579 0.0
C1660 C 0.29767 0.37796 0.20231 0.0
C1661 C 0.34127 0.39632 0.18952 0.0
C1662 C 0.36837 0.44379 0.15535 0.0
H1663 H 0.44642 0.43664 0.02451 0.0
H1664 H 0.40744 0.42718 0.0602 0.0
H1665 H 0.40608 0.46049 0.14043 0.0
H1666 H 0.26141 0.40249 0.18133 0.0
H1667 H 0.2875 0.43712 0.15313 0.0
H1668 H 0.324 0.42948 0.11339 0.0
C1669 C 0.4169 0.44535 0.06142 0.0
C1670 C 0.38778 0.45453 0.13437 0.0
C1671 C 0.4394 0.45063 0.04109 0.0
C1672 C 0.28363 0.40073 0.18403 0.0
C1673 C 0.29856 0.42049 0.16788 0.0
C1674 C 0.34126 0.43701 0.11972 0.0
C1675 C 0.40737 0.46268 0.08354 0.0
C1676 C 0.38458 0.45569 0.10586 0.0
C1677 C 0.32788 0.41772 0.16958 0.0
C1678 C 0.3454 0.43408 0.14818 0.0
H1679 H 0.45299 0.50883 0.0658 0.0
H1680 H 0.41358 0.49945 0.10147 0.0
H1681 H 0.35738 0.4488 0.07703 0.0
H1682 H 0.33769 0.35922 0.21959 0.0
H1683 H 0.36389 0.39337 0.1912 0.0
C1684 C 0.46471 0.56839 0.92152 0.0
C1685 C 0.46896 0.53794 0.92535 0.0
C1686 C 0.44874 0.58467 0.90066 0.0
C1687 C 0.39191 0.58259 0.86078 0.0
H1688 H 0.41815 0.64552 0.81141 0.0
C1689 C 0.32033 0.65423 0.78318 0.0
C1690 C 0.31721 0.68417 0.7839 0.0
C1691 C 0.34291 0.63442 0.79477 0.0
C1692 C 0.41056 0.62803 0.82508 0.0
H1693 H 0.45971 0.50062 0.91065 0.0
H1694 H 0.43154 0.52921 0.87446 0.0
H1695 H 0.44928 0.61477 0.84446 0.0
H1696 H 0.33605 0.71708 0.79561 0.0
H1697 H 0.37485 0.6825 0.81666 0.0
H1698 H 0.35277 0.59641 0.84259 0.0
C1699 C 0.44065 0.54037 0.88752 0.0
C1700 C 0.42832 0.61053 0.84394 0.0
C1701 C 0.45676 0.52408 0.90819 0.0
C1702 C 0.33791 0.69408 0.79487 0.0
C1703 C 0.36029 0.67426 0.80673 0.0
C1704 C 0.37408 0.6002 0.84215 0.0
C1705 C 0.43662 0.57075 0.88353 0.0
C1706 C 0.41891 0.58798 0.8622 0.0
C1707 C 0.36249 0.64421 0.80755 0.0
C1708 C 0.38302 0.6234 0.82443 0.0
H1709 H 0.47395 0.57961 0.9344 0.0
H1710 H 0.44554 0.60816 0.89817 0.0
H1711 H 0.38409 0.56549 0.8749 0.0
H1712 H 0.30489 0.64605 0.77442 0.0
H1713 H 0.34445 0.61139 0.79458 0.0
C1714 C 0.09354 0.49324 0.63481 0.0
C1715 C 0.06763 0.51183 0.62806 0.0
C1716 C 0.1071 0.4984 0.6565 0.0
C1717 C 0.13989 0.53152 0.68442 0.0
H1718 H 0.09742 0.56625 0.75012 0.0
C1719 C 0.14528 0.62951 0.74549 0.0
C1720 C 0.17436 0.6233 0.74944 0.0
C1721 C 0.13314 0.60811 0.73854 0.0
C1722 C 0.10964 0.55633 0.73202 0.0
H1723 H 0.03455 0.54898 0.63983 0.0
H1724 H 0.05817 0.55821 0.67724 0.0
H1725 H 0.07393 0.54124 0.72325 0.0
H1726 H 0.21332 0.58967 0.75049 0.0
H1727 H 0.19209 0.55209 0.73789 0.0
H1728 H 0.17515 0.54784 0.6924 0.0
C1729 C 0.0681 0.53959 0.66605 0.0
C1730 C 0.09621 0.54207 0.71662 0.0
C1731 C 0.05471 0.53456 0.64436 0.0
C1732 C 0.1908 0.59492 0.74762 0.0
C1733 C 0.17872 0.57352 0.7403 0.0
C1734 C 0.15336 0.54569 0.6999 0.0
C1735 C 0.09479 0.52204 0.67195 0.0
C1736 C 0.11079 0.53069 0.69192 0.0
C1737 C 0.1499 0.58011 0.73514 0.0
C1738 C 0.13796 0.55936 0.7231 0.0
H1739 H 0.10393 0.47555 0.62254 0.0
H1740 H 0.12756 0.4844 0.66069 0.0
H1741 H 0.15169 0.52318 0.6654 0.0
H1742 H 0.13213 0.6512 0.74697 0.0
H1743 H 0.11099 0.61399 0.73436 0.0
C1744 C 0.30999 0.29696 0.67791 0.0
C1745 C 0.28361 0.28847 0.6835 0.0
C1746 C 0.31733 0.31262 0.65229 0.0
C1747 C 0.28743 0.36236 0.59453 0.0
H1748 H 0.36666 0.3441 0.56066 0.0
C1749 C 0.34906 0.44686 0.54161 0.0
C1750 C 0.37455 0.43854 0.52366 0.0
C1751 C 0.33142 0.42728 0.55141 0.0
C1752 C 0.34422 0.34922 0.56915 0.0
H1753 H 0.24397 0.29011 0.6668 0.0
H1754 H 0.25683 0.31789 0.62195 0.0
H1755 H 0.34946 0.31062 0.59834 0.0
H1756 H 0.39945 0.40467 0.49884 0.0
H1757 H 0.36809 0.3709 0.5152 0.0
H1758 H 0.28249 0.40154 0.56589 0.0
C1759 C 0.27179 0.31222 0.63744 0.0
C1760 C 0.33452 0.33017 0.5911 0.0
C1761 C 0.26449 0.29635 0.66308 0.0
C1762 C 0.38009 0.4117 0.51287 0.0
C1763 C 0.36224 0.39221 0.52244 0.0
C1764 C 0.29714 0.38148 0.57243 0.0
C1765 C 0.29842 0.32022 0.63173 0.0
C1766 C 0.3065 0.33726 0.60489 0.0
C1767 C 0.3388 0.39909 0.54322 0.0
C1768 C 0.32604 0.37577 0.56045 0.0
H1769 H 0.32515 0.29129 0.69321 0.0
H1770 H 0.33775 0.31908 0.64867 0.0
H1771 H 0.26563 0.36823 0.60471 0.0
H1772 H 0.34379 0.46776 0.54964 0.0
H1773 H 0.31352 0.43345 0.56734 0.0
C1774 C 0.24731 0.6779 0.11556 0.0
C1775 C 0.24439 0.66559 0.14373 0.0
C1776 C 0.23965 0.66485 0.09471 0.0
C1777 C 0.19402 0.64776 0.0674 0.0
H1778 H 0.20628 0.56475 0.06431 0.0
C1779 C 0.10849 0.59203 0.04564 0.0
C1780 C 0.11622 0.57104 0.02678 0.0
C1781 C 0.12924 0.60448 0.05306 0.0
C1782 C 0.20304 0.58802 0.06453 0.0
H1783 H 0.23346 0.62917 0.17212 0.0
H1784 H 0.22059 0.60602 0.13571 0.0
H1785 H 0.23701 0.58317 0.08978 0.0
H1786 H 0.15141 0.54666 0.00061 0.0
H1787 H 0.18817 0.56794 0.01438 0.0
H1788 H 0.15887 0.65245 0.04378 0.0
C1789 C 0.22869 0.62569 0.12963 0.0
C1790 C 0.2205 0.59851 0.07916 0.0
C1791 C 0.23587 0.63897 0.15047 0.0
C1792 C 0.14502 0.56293 0.01512 0.0
C1793 C 0.16595 0.57498 0.02301 0.0
C1794 C 0.17634 0.63724 0.05314 0.0
C1795 C 0.22945 0.63908 0.10174 0.0
C1796 C 0.21556 0.6284 0.08145 0.0
C1797 C 0.15819 0.5958 0.04211 0.0
C1798 C 0.18013 0.60723 0.05236 0.0
H1799 H 0.25367 0.69855 0.10999 0.0
H1800 H 0.24046 0.67554 0.07335 0.0
H1801 H 0.18953 0.67088 0.06905 0.0
H1802 H 0.08637 0.59865 0.05479 0.0
H1803 H 0.12279 0.62023 0.0681 0.0
C1804 C 0.65435 0.29941 0.71137 0.0
C1805 C 0.67243 0.31041 0.72495 0.0
C1806 C 0.63189 0.31816 0.69852 0.0
C1807 C 0.59097 0.39576 0.68982 0.0
H1808 H 0.57839 0.3739 0.61958 0.0
C1809 C 0.54082 0.47491 0.59857 0.0
C1810 C 0.52112 0.46585 0.58523 0.0
C1811 C 0.5546 0.45652 0.61998 0.0
C1812 C 0.58134 0.38012 0.63936 0.0
H1813 H 0.68087 0.34949 0.73647 0.0
H1814 H 0.64258 0.38255 0.71276 0.0
H1815 H 0.6119 0.34071 0.64825 0.0
H1816 H 0.49946 0.43098 0.5847 0.0
H1817 H 0.52409 0.39856 0.62175 0.0
H1818 H 0.56145 0.43612 0.67957 0.0
C1819 C 0.64503 0.35938 0.71272 0.0
C1820 C 0.6005 0.36101 0.65597 0.0
C1821 C 0.66712 0.34048 0.72621 0.0
C1822 C 0.5145 0.43857 0.5946 0.0
C1823 C 0.52866 0.41998 0.61569 0.0
C1824 C 0.57214 0.41513 0.67286 0.0
C1825 C 0.62743 0.34849 0.69821 0.0
C1826 C 0.60574 0.36855 0.6814 0.0
C1827 C 0.54928 0.42856 0.62814 0.0
C1828 C 0.56727 0.40749 0.64743 0.0
H1829 H 0.65772 0.27624 0.71046 0.0
H1830 H 0.61833 0.30877 0.68842 0.0
H1831 H 0.59401 0.40221 0.70943 0.0
H1832 H 0.54627 0.49587 0.59187 0.0
H1833 H 0.57053 0.46358 0.6291 0.0
C1834 C 0.82648 0.63736 0.24002 0.0
C1835 C 0.80103 0.65234 0.22919 0.0
C1836 C 0.84421 0.6139 0.22734 0.0
C1837 C 0.85011 0.568 0.16902 0.0
H1838 H 0.92979 0.5734 0.16066 0.0
C1839 C 0.93319 0.51146 0.08461 0.0
C1840 C 0.95304 0.52755 0.07031 0.0
C1841 C 0.91613 0.52023 0.10913 0.0
C1842 C 0.9076 0.57171 0.1626 0.0
H1843 H 0.77308 0.65346 0.19793 0.0
H1844 H 0.80443 0.61381 0.17492 0.0
H1845 H 0.89562 0.59945 0.19501 0.0
H1846 H 0.97076 0.56527 0.07036 0.0
H1847 H 0.94011 0.58148 0.11213 0.0
H1848 H 0.8617 0.5425 0.13469 0.0
C1849 C 0.8106 0.61928 0.19364 0.0
C1850 C 0.88798 0.58622 0.18281 0.0
C1851 C 0.7926 0.64227 0.20673 0.0
C1852 C 0.95571 0.55239 0.08104 0.0
C1853 C 0.9383 0.56147 0.10522 0.0
C1854 C 0.86965 0.55399 0.14835 0.0
C1855 C 0.83717 0.60547 0.20313 0.0
C1856 C 0.85875 0.5854 0.18566 0.0
C1857 C 0.9182 0.54557 0.11957 0.0
C1858 C 0.89845 0.55652 0.14424 0.0
H1859 H 0.83323 0.64446 0.25763 0.0
H1860 H 0.86403 0.60324 0.2358 0.0
H1861 H 0.82796 0.56617 0.17108 0.0
H1862 H 0.93097 0.49197 0.07695 0.0
H1863 H 0.90129 0.50715 0.11982 0.0
C1864 C 0.94839 0.59865 0.54759 0.0
C1865 C 0.93778 0.58209 0.53168 0.0
C1866 C 0.93031 0.62254 0.55918 0.0
C1867 C 0.88816 0.67935 0.5724 0.0
H1868 H 0.82366 0.65743 0.62158 0.0
C1869 C 0.78927 0.7244 0.66347 0.0
C1870 C 0.80406 0.73837 0.67796 0.0
C1871 C 0.80309 0.71067 0.64007 0.0
C1872 C 0.84103 0.66444 0.60749 0.0
H1873 H 0.90026 0.5781 0.51449 0.0
H1874 H 0.8682 0.61962 0.53565 0.0
H1875 H 0.85196 0.62459 0.58898 0.0
H1876 H 0.84446 0.75009 0.67893 0.0
H1877 H 0.86937 0.72469 0.63889 0.0
H1878 H 0.8774 0.71919 0.59096 0.0
C1879 C 0.89066 0.61416 0.53878 0.0
C1880 C 0.85731 0.64545 0.58882 0.0
C1881 C 0.90895 0.59051 0.52668 0.0
C1882 C 0.83264 0.73948 0.66799 0.0
C1883 C 0.84678 0.72504 0.64492 0.0
C1884 C 0.87155 0.69865 0.59077 0.0
C1885 C 0.90114 0.63008 0.55548 0.0
C1886 C 0.88142 0.6524 0.57161 0.0
C1887 C 0.83235 0.70982 0.63109 0.0
C1888 C 0.84816 0.69113 0.60909 0.0
H1889 H 0.97061 0.59277 0.55159 0.0
H1890 H 0.93886 0.63424 0.57219 0.0
H1891 H 0.90664 0.68522 0.5592 0.0
H1892 H 0.76702 0.72369 0.67054 0.0
H1893 H 0.79095 0.70009 0.62949 0.0
C1894 C 0.46881 0.58849 0.42514 0.0
C1895 C 0.46832 0.559 0.43261 0.0
C1896 C 0.4549 0.60437 0.40257 0.0
C1897 C 0.39678 0.60107 0.36199 0.0
H1898 H 0.41679 0.67061 0.31942 0.0
C1899 C 0.32769 0.67199 0.2799 0.0
C1900 C 0.31818 0.70106 0.28547 0.0
C1901 C 0.35015 0.65359 0.29314 0.0
C1902 C 0.4111 0.65112 0.33108 0.0
H1903 H 0.45521 0.52228 0.4212 0.0
H1904 H 0.43249 0.54935 0.38095 0.0
H1905 H 0.44968 0.6394 0.35064 0.0
H1906 H 0.32571 0.73412 0.30796 0.0
H1907 H 0.36521 0.70205 0.33071 0.0
H1908 H 0.35829 0.61284 0.34233 0.0
C1909 C 0.44225 0.56078 0.39315 0.0
C1910 C 0.4298 0.63333 0.34912 0.0
C1911 C 0.4555 0.54515 0.41606 0.0
C1912 C 0.33246 0.71175 0.30342 0.0
C1913 C 0.3552 0.69349 0.31627 0.0
C1914 C 0.37842 0.61855 0.34364 0.0
C1915 C 0.44078 0.59086 0.38672 0.0
C1916 C 0.42261 0.60834 0.36525 0.0
C1917 C 0.36381 0.66409 0.31175 0.0
C1918 C 0.38512 0.64401 0.32843 0.0
H1919 H 0.47847 0.59967 0.4377 0.0
H1920 H 0.45405 0.6275 0.39854 0.0
H1921 H 0.39002 0.5825 0.37444 0.0
H1922 H 0.3171 0.66317 0.26615 0.0
H1923 H 0.3565 0.63099 0.28928 0.0
C1924 C 0.18398 0.31236 0.79685 0.0
C1925 C 0.21392 0.30633 0.79655 0.0
C1926 C 0.16661 0.33596 0.80945 0.0
C1927 C 0.16599 0.38365 0.8626 0.0
H1928 H 0.09612 0.42714 0.83292 0.0
C1929 C 0.08786 0.47257 0.92084 0.0
C1930 C 0.05941 0.46892 0.92581 0.0
C1931 C 0.1077 0.45756 0.90106 0.0
C1932 C 0.1156 0.41519 0.84139 0.0
H1933 H 0.24921 0.32074 0.80865 0.0
H1934 H 0.21881 0.36232 0.83039 0.0
H1935 H 0.12986 0.39152 0.80577 0.0
H1936 H 0.02901 0.44811 0.91272 0.0
H1937 H 0.06371 0.4219 0.87816 0.0
H1938 H 0.1515 0.40697 0.8984 0.0
C1939 C 0.20876 0.34846 0.82125 0.0
C1940 C 0.13486 0.39475 0.82593 0.0
C1941 C 0.22618 0.32469 0.80875 0.0
C1942 C 0.0508 0.45128 0.90946 0.0
C1943 C 0.07063 0.4364 0.88955 0.0
C1944 C 0.14684 0.40421 0.87794 0.0
C1945 C 0.17876 0.35424 0.82189 0.0
C1946 C 0.15995 0.37827 0.83667 0.0
C1947 C 0.09944 0.43879 0.88573 0.0
C1948 C 0.12118 0.41974 0.86776 0.0
H1949 H 0.17385 0.2986 0.78766 0.0
H1950 H 0.14356 0.33943 0.81003 0.0
H1951 H 0.18489 0.37107 0.87168 0.0
H1952 H 0.09514 0.48617 0.93297 0.0
H1953 H 0.12971 0.46005 0.89826 0.0
C1954 C 0.16844 0.28005 0.3409 0.0
C1955 C 0.19546 0.28492 0.32891 0.0
C1956 C 0.15358 0.29428 0.36377 0.0
C1957 C 0.15187 0.35903 0.39889 0.0
H1958 H 0.09453 0.32827 0.45192 0.0
C1959 C 0.08166 0.42424 0.48501 0.0
C1960 C 0.05255 0.43001 0.48114 0.0
C1961 C 0.10146 0.40239 0.4717 0.0
C1962 C 0.1107 0.33692 0.43737 0.0
H1963 H 0.22907 0.30682 0.33234 0.0
H1964 H 0.20402 0.33036 0.37312 0.0
H1965 H 0.12605 0.2973 0.41874 0.0
H1966 H 0.02091 0.41635 0.46206 0.0
H1967 H 0.05545 0.37765 0.43943 0.0
H1968 H 0.13653 0.39854 0.41781 0.0
C1969 C 0.19352 0.31673 0.36423 0.0
C1970 C 0.12857 0.31936 0.41817 0.0
C1971 C 0.20801 0.30311 0.34095 0.0
C1972 C 0.04328 0.41243 0.46524 0.0
C1973 C 0.06296 0.3902 0.45247 0.0
C1974 C 0.13446 0.37629 0.41846 0.0
C1975 C 0.16577 0.31314 0.37554 0.0
C1976 C 0.14893 0.33044 0.39817 0.0
C1977 C 0.09228 0.38557 0.45494 0.0
C1978 C 0.11332 0.36562 0.4374 0.0
H1979 H 0.15831 0.26615 0.33191 0.0
H1980 H 0.13213 0.29124 0.37148 0.0
H1981 H 0.16676 0.36869 0.38357 0.0
H1982 H 0.08934 0.43755 0.49712 0.0
H1983 H 0.12403 0.39915 0.47383 0.0
loop_
_geom_bond_atom_site_label_1
_geom_bond_atom_site_label_2
_geom_bond_distance
_geom_bond_site_symmetry_2
_ccdc_geom_bond_type
C0 O16 1.251 . S
C0 O18 1.254 . S
N1 C2 1.333 . S
N1 C6 1.307 . S
N1 Zn7 2.020 . S
C2 N1 1.333 . S
C2 C3 1.379 . S
C2 H20 0.952 . S
C3 C2 1.379 . S
C3 C4 1.390 . S
C3 H30 0.949 . S
C4 C3 1.390 . S
C4 C5 1.357 . S
C5 C4 1.357 . S
C5 C6 1.370 . S
C5 H31 0.950 . S
C6 N1 1.307 . S
C6 C5 1.370 . S
C6 H24 0.948 1_554 S
Zn7 N1 2.020 . S
Zn7 O16 2.039 1_565 S
Zn7 O22 2.034 1_655 S
Zn7 O26 2.025 1_654 S
Zn7 O28 2.024 1_564 S
C8 O27 1.246 . S
C8 O28 1.249 . S
N9 C10 1.307 . S
N9 C11 1.333 . S
N9 Zn15 2.020 . S
C10 N9 1.307 . S
C10 C14 1.370 . S
C10 H21 0.948 1_556 S
C11 N9 1.333 . S
C11 C12 1.379 . S
C11 H19 0.952 . S
C12 C11 1.379 . S
C12 C13 1.390 . S
C12 H32 0.949 . S
C13 C12 1.390 . S
C13 C14 1.357 . S
C14 C10 1.370 . S
C14 C13 1.357 . S
C14 H33 0.950 . S
Zn15 N9 2.020 . S
Zn15 O18 2.025 1_456 S
Zn15 O23 2.024 1_546 S
Zn15 O25 2.039 1_545 S
Zn15 O27 2.034 1_455 S
O16 C0 1.251 . S
O16 Zn7 2.039 1_545 S
C17 O22 1.246 . S
C17 O23 1.249 . S
O18 C0 1.254 . S
O18 Zn15 2.025 1_654 S
H19 C11 0.952 . S
H20 C2 0.952 . S
H21 C10 0.948 1_554 S
O22 Zn7 2.034 1_455 S
O22 C17 1.246 . S
O23 Zn15 2.024 1_564 S
O23 C17 1.249 . S
H24 C6 0.948 1_556 S
O25 Zn15 2.039 1_565 S
O25 C29 1.251 . S
O26 Zn7 2.025 1_456 S
O26 C29 1.254 . S
O27 C8 1.246 . S
O27 Zn15 2.034 1_655 S
O28 Zn7 2.024 1_546 S
O28 C8 1.249 . S
C29 O25 1.251 . S
C29 O26 1.254 . S
H30 C3 0.949 . S
H31 C5 0.950 . S
H32 C12 0.949 . S
H33 C14 0.950 . S
C34 O50 1.251 . S
C34 O52 1.254 . S
N35 C36 1.333 . S
N35 C40 1.307 . S
N35 Zn41 2.020 . S
C36 N35 1.333 . S
C36 C37 1.379 . S
C36 H54 0.952 . S
C37 C36 1.379 . S
C37 C38 1.390 . S
C37 H64 0.949 . S
C38 C37 1.390 . S
C38 C39 1.357 . S
C39 C38 1.357 . S
C39 C40 1.370 . S
C39 H65 0.950 . S
C40 N35 1.307 . S
C40 C39 1.370 . S
C40 H58 0.948 . S
Zn41 N35 2.020 . S
Zn41 O50 2.039 . S
Zn41 O56 2.034 . S
Zn41 O60 2.025 . S
Zn41 O62 2.024 . S
C42 O61 1.246 . S
C42 O62 1.249 . S
N43 C44 1.307 . S
N43 C45 1.333 . S
N43 Zn49 2.020 . S
C44 N43 1.307 . S
C44 C48 1.370 . S
C44 H55 0.948 . S
C45 N43 1.333 . S
C45 C46 1.379 . S
C45 H53 0.952 . S
C46 C45 1.379 . S
C46 C47 1.390 . S
C46 H66 0.949 . S
C47 C46 1.390 . S
C47 C48 1.357 . S
C48 C44 1.370 . S
C48 C47 1.357 . S
C48 H67 0.950 . S
Zn49 N43 2.020 . S
Zn49 O52 2.025 . S
Zn49 O57 2.024 . S
Zn49 O59 2.039 . S
Zn49 O61 2.034 . S
O50 C34 1.251 . S
O50 Zn41 2.039 . S
C51 O56 1.246 . S
C51 O57 1.249 . S
O52 C34 1.254 . S
O52 Zn49 2.025 . S
H53 C45 0.952 . S
H54 C36 0.952 . S
H55 C44 0.948 . S
O56 Zn41 2.034 . S
O56 C51 1.246 . S
O57 Zn49 2.024 . S
O57 C51 1.249 . S
H58 C40 0.948 . S
O59 Zn49 2.039 . S
O59 C63 1.251 . S
O60 Zn41 2.025 . S
O60 C63 1.254 . S
O61 C42 1.246 . S
O61 Zn49 2.034 . S
O62 Zn41 2.024 . S
O62 C42 1.249 . S
C63 O59 1.251 . S
C63 O60 1.254 . S
H64 C37 0.949 . S
H65 C39 0.950 . S
H66 C46 0.949 . S
H67 C48 0.950 . S
C68 O84 1.251 . S
C68 O86 1.254 . S
N69 C70 1.333 . S
N69 C74 1.307 . S
N69 Zn75 2.020 . S
C70 N69 1.333 . S
C70 C71 1.379 . S
C70 H88 0.952 . S
C71 C70 1.379 . S
C71 C72 1.390 . S
C71 H98 0.949 . S
C72 C71 1.390 . S
C72 C73 1.357 . S
C73 C72 1.357 . S
C73 C74 1.370 . S
C73 H99 0.950 . S
C74 N69 1.307 . S
C74 C73 1.370 . S
C74 H92 0.948 . S
Zn75 N69 2.020 . S
Zn75 O84 2.039 1_545 S
Zn75 O90 2.034 . S
Zn75 O94 2.025 . S
Zn75 O96 2.024 1_545 S
C76 O95 1.246 . S
C76 O96 1.249 . S
N77 C78 1.307 . S
N77 C79 1.333 . S
N77 Zn83 2.020 . S
C78 N77 1.307 . S
C78 C82 1.370 . S
C78 H89 0.948 . S
C79 N77 1.333 . S
C79 C80 1.379 . S
C79 H87 0.952 . S
C80 C79 1.379 . S
C80 C81 1.390 . S
C80 H100 0.949 . S
C81 C80 1.390 . S
C81 C82 1.357 . S
C82 C78 1.370 . S
C82 C81 1.357 . S
C82 H101 0.950 . S
Zn83 N77 2.020 . S
Zn83 O86 2.025 . S
Zn83 O91 2.024 1_565 S
Zn83 O93 2.039 1_565 S
Zn83 O95 2.034 . S
O84 C68 1.251 . S
O84 Zn75 2.039 1_565 S
C85 O90 1.246 . S
C85 O91 1.249 . S
O86 C68 1.254 . S
O86 Zn83 2.025 . S
H87 C79 0.952 . S
H88 C70 0.952 . S
H89 C78 0.948 . S
O90 Zn75 2.034 . S
O90 C85 1.246 . S
O91 Zn83 2.024 1_545 S
O91 C85 1.249 . S
H92 C74 0.948 . S
O93 Zn83 2.039 1_545 S
O93 C97 1.251 . S
O94 Zn75 2.025 . S
O94 C97 1.254 . S
O95 C76 1.246 . S
O95 Zn83 2.034 . S
O96 Zn75 2.024 1_565 S
O96 C76 1.249 . S
C97 O93 1.251 . S
C97 O94 1.254 . S
H98 C71 0.949 . S
H99 C73 0.950 . S
H100 C80 0.949 . S
H101 C82 0.950 . S
C102 O118 1.251 . S
C102 O120 1.254 . S
N103 C104 1.333 . S
N103 C108 1.307 . S
N103 Zn109 2.020 . S
C104 N103 1.333 . S
C104 C105 1.379 . S
C104 H122 0.952 . S
C105 C104 1.379 . S
C105 C106 1.390 . S
C105 H132 0.949 . S
C106 C105 1.390 . S
C106 C107 1.357 . S
C107 C106 1.357 . S
C107 C108 1.370 . S
C107 H133 0.950 . S
C108 N103 1.307 . S
C108 C107 1.370 . S
C108 H126 0.948 . S
Zn109 N103 2.020 . S
Zn109 O118 2.039 . S
Zn109 O124 2.034 . S
Zn109 O128 2.025 . S
Zn109 O130 2.024 . S
C110 O129 1.246 . S
C110 O130 1.249 . S
N111 C112 1.307 . S
N111 C113 1.333 . S
N111 Zn117 2.020 . S
C112 N111 1.307 . S
C112 C116 1.370 . S
C112 H123 0.948 . S
C113 N111 1.333 . S
C113 C114 1.379 . S
C113 H121 0.952 . S
C114 C113 1.379 . S
C114 C115 1.390 . S
C114 H134 0.949 . S
C115 C114 1.390 . S
C115 C116 1.357 . S
C116 C112 1.370 . S
C116 C115 1.357 . S
C116 H135 0.950 . S
Zn117 N111 2.020 . S
Zn117 O120 2.025 . S
Zn117 O125 2.024 . S
Zn117 O127 2.039 . S
Zn117 O129 2.034 . S
O118 C102 1.251 . S
O118 Zn109 2.039 . S
C119 O124 1.246 . S
C119 O125 1.249 . S
O120 C102 1.254 . S
O120 Zn117 2.025 . S
H121 C113 0.952 . S
H122 C104 0.952 . S
H123 C112 0.948 . S
O124 Zn109 2.034 . S
O124 C119 1.246 . S
O125 Zn117 2.024 . S
O125 C119 1.249 . S
H126 C108 0.948 . S
O127 Zn117 2.039 . S
O127 C131 1.251 . S
O128 Zn109 2.025 . S
O128 C131 1.254 . S
O129 C110 1.246 . S
O129 Zn117 2.034 . S
O130 Zn109 2.024 . S
O130 C110 1.249 . S
C131 O127 1.251 . S
C131 O128 1.254 . S
H132 C105 0.949 . S
H133 C107 0.950 . S
H134 C114 0.949 . S
H135 C116 0.950 . S
C136 O152 1.251 . S
C136 O154 1.254 . S
N137 C138 1.333 . S
N137 C142 1.307 1_655 S
N137 Zn143 2.020 . S
C138 N137 1.333 . S
C138 C139 1.379 . S
C138 H156 0.952 . S
C139 C138 1.379 . S
C139 C140 1.390 . S
C139 H166 0.949 . S
C140 C139 1.390 . S
C140 C141 1.357 1_655 S
C141 C140 1.357 1_455 S
C141 C142 1.370 . S
C141 H167 0.950 . S
C142 N137 1.307 1_455 S
C142 C141 1.370 . S
C142 H160 0.948 . S
Zn143 N137 2.020 . S
Zn143 O152 2.039 1_565 S
Zn143 O158 2.034 . S
Zn143 O162 2.025 1_655 S
Zn143 O164 2.013 1_665 S
C144 O163 1.246 . S
C144 O164 1.270 . S
N145 C146 1.307 1_455 S
N145 C147 1.333 . S
N145 Zn151 2.020 . S
C146 N145 1.307 1_655 S
C146 C150 1.370 . S
C146 H157 0.948 . S
C147 N145 1.333 . S
C147 C148 1.379 . S
C147 H155 0.952 . S
C148 C147 1.379 . S
C148 C149 1.390 . S
C148 H168 0.949 . S
C149 C148 1.390 . S
C149 C150 1.357 1_455 S
C150 C146 1.370 . S
C150 C149 1.357 1_655 S
C150 H169 0.950 . S
Zn151 N145 2.020 . S
Zn151 O154 2.025 1_455 S
Zn151 O159 2.024 1_455 S
Zn151 O161 2.039 1_545 S
Zn151 O163 2.034 . S
O152 C136 1.251 . S
O152 Zn143 2.039 1_545 S
C153 O158 1.246 . S
C153 O159 1.249 1_565 S
O154 C136 1.254 . S
O154 Zn151 2.025 1_655 S
H155 C147 0.952 . S
H156 C138 0.952 . S
H157 C146 0.948 . S
O158 Zn143 2.034 . S
O158 C153 1.246 . S
O159 Zn151 2.024 1_655 S
O159 C153 1.249 1_545 S
H160 C142 0.948 . S
O161 Zn151 2.039 1_565 S
O161 C165 1.251 . S
O162 Zn143 2.025 1_455 S
O162 C165 1.254 . S
O163 C144 1.246 . S
O163 Zn151 2.034 . S
O164 Zn143 2.013 1_445 S
O164 C144 1.270 . S
C165 O161 1.251 . S
C165 O162 1.254 . S
H166 C139 0.949 . S
H167 C141 0.950 . S
H168 C148 0.949 . S
H169 C150 0.950 . S
C170 O186 1.251 . S
C170 O188 1.254 . S
N171 C172 1.333 . S
N171 C176 1.307 . S
N171 Zn177 2.020 . S
C172 N171 1.333 . S
C172 C173 1.379 . S
C172 H190 0.952 . S
C173 C172 1.379 . S
C173 C174 1.390 . S
C173 H200 0.949 . S
C174 C173 1.390 . S
C174 C175 1.357 . S
C175 C174 1.357 . S
C175 C176 1.370 . S
C175 H201 0.950 . S
C176 N171 1.307 . S
C176 C175 1.370 . S
C176 H194 0.948 . S
Zn177 N171 2.020 . S
Zn177 O186 2.039 . S
Zn177 O192 2.034 . S
Zn177 O196 2.025 . S
Zn177 O198 2.024 . S
C178 O197 1.246 . S
C178 O198 1.249 . S
N179 C180 1.307 . S
N179 C181 1.333 . S
N179 Zn185 2.020 . S
C180 N179 1.307 . S
C180 C184 1.370 . S
C180 H191 0.948 . S
C181 N179 1.333 . S
C181 C182 1.379 . S
C181 H189 0.952 . S
C182 C181 1.379 . S
C182 C183 1.390 . S
C182 H202 0.949 . S
C183 C182 1.390 . S
C183 C184 1.357 . S
C184 C180 1.370 . S
C184 C183 1.357 . S
C184 H203 0.950 . S
Zn185 N179 2.020 . S
Zn185 O188 2.025 . S
Zn185 O193 2.024 . S
Zn185 O195 2.039 . S
Zn185 O197 2.034 . S
O186 C170 1.251 . S
O186 Zn177 2.039 . S
C187 O192 1.246 . S
C187 O193 1.249 . S
O188 C170 1.254 . S
O188 Zn185 2.025 . S
H189 C181 0.952 . S
H190 C172 0.952 . S
H191 C180 0.948 . S
O192 Zn177 2.034 . S
O192 C187 1.246 . S
O193 Zn185 2.024 . S
O193 C187 1.249 . S
H194 C176 0.948 . S
O195 Zn185 2.039 . S
O195 C199 1.251 . S
O196 Zn177 2.025 . S
O196 C199 1.254 . S
O197 C178 1.246 . S
O197 Zn185 2.034 . S
O198 Zn177 2.024 . S
O198 C178 1.249 . S
C199 O195 1.251 . S
C199 O196 1.254 . S
H200 C173 0.949 . S
H201 C175 0.950 . S
H202 C182 0.949 . S
H203 C184 0.950 . S
C204 O220 1.251 . S
C204 O222 1.254 . S
N205 C206 1.333 . S
N205 C210 1.307 1_545 S
N205 Zn211 2.020 . S
C206 N205 1.333 . S
C206 C207 1.379 . S
C206 H224 0.952 . S
C207 C206 1.379 . S
C207 C208 1.390 . S
C207 H234 0.949 . S
C208 C207 1.390 . S
C208 C209 1.357 1_545 S
C209 C208 1.357 1_565 S
C209 C210 1.370 . S
C209 H235 0.950 . S
C210 N205 1.307 1_565 S
C210 C209 1.370 . S
C210 H228 0.948 . S
Zn211 N205 2.020 . S
Zn211 O220 2.039 . S
Zn211 O226 2.034 1_554 S
Zn211 O230 2.025 1_544 S
Zn211 O232 2.024 1_545 S
C212 O231 1.246 . S
C212 O232 1.249 . S
N213 C214 1.307 1_565 S
N213 C215 1.333 . S
N213 Zn219 2.020 . S
C214 N213 1.307 1_545 S
C214 C218 1.370 . S
C214 H225 0.948 . S
C215 N213 1.333 . S
C215 C216 1.379 . S
C215 H223 0.952 . S
C216 C215 1.379 . S
C216 C217 1.390 . S
C216 H236 0.949 . S
C217 C216 1.390 . S
C217 C218 1.357 1_565 S
C218 C214 1.370 . S
C218 C217 1.357 1_545 S
C218 H237 0.950 . S
Zn219 N213 2.020 . S
Zn219 O222 2.025 1_566 S
Zn219 O227 2.024 1_565 S
Zn219 O229 2.039 . S
Zn219 O231 2.034 1_556 S
O220 C204 1.251 . S
O220 Zn211 2.039 . S
C221 O226 1.246 . S
C221 O227 1.249 . S
O222 C204 1.254 . S
O222 Zn219 2.025 1_544 S
H223 C215 0.952 . S
H224 C206 0.952 . S
H225 C214 0.948 . S
O226 Zn211 2.034 1_556 S
O226 C221 1.246 . S
O227 Zn219 2.024 1_545 S
O227 C221 1.249 . S
H228 C210 0.948 . S
O229 Zn219 2.039 . S
O229 C233 1.251 . S
O230 Zn211 2.025 1_566 S
O230 C233 1.254 . S
O231 C212 1.246 . S
O231 Zn219 2.034 1_554 S
O232 Zn211 2.024 1_565 S
O232 C212 1.249 . S
C233 O229 1.251 . S
C233 O230 1.254 . S
H234 C207 0.949 . S
H235 C209 0.950 . S
H236 C216 0.949 . S
H237 C218 0.950 . S
C238 O254 1.251 . S
C238 O256 1.254 . S
N239 C240 1.333 . S
N239 C244 1.307 . S
N239 Zn245 2.020 . S
C240 N239 1.333 . S
C240 C241 1.379 . S
C240 H258 0.952 . S
C241 C240 1.379 . S
C241 C242 1.390 . S
C241 H268 0.949 . S
C242 C241 1.390 . S
C242 C243 1.357 . S
C243 C242 1.357 . S
C243 C244 1.370 . S
C243 H269 0.950 . S
C244 N239 1.307 . S
C244 C243 1.370 . S
C244 H262 0.948 . S
Zn245 N239 2.020 . S
Zn245 O254 2.039 . S
Zn245 O260 2.034 . S
Zn245 O264 2.025 . S
Zn245 O266 2.024 . S
C246 O265 1.246 . S
C246 O266 1.249 . S
N247 C248 1.307 . S
N247 C249 1.333 . S
N247 Zn253 2.020 . S
C248 N247 1.307 . S
C248 C252 1.370 . S
C248 H259 0.948 . S
C249 N247 1.333 . S
C249 C250 1.379 . S
C249 H257 0.952 . S
C250 C249 1.379 . S
C250 C251 1.390 . S
C250 H270 0.949 . S
C251 C250 1.390 . S
C251 C252 1.357 . S
C252 C248 1.370 . S
C252 C251 1.357 . S
C252 H271 0.950 . S
Zn253 N247 2.020 . S
Zn253 O256 2.025 . S
Zn253 O261 2.024 . S
Zn253 O263 2.039 . S
Zn253 O265 2.034 . S
O254 C238 1.251 . S
O254 Zn245 2.039 . S
C255 O260 1.246 . S
C255 O261 1.249 . S
O256 C238 1.254 . S
O256 Zn253 2.025 . S
H257 C249 0.952 . S
H258 C240 0.952 . S
H259 C248 0.948 . S
O260 Zn245 2.034 . S
O260 C255 1.246 . S
O261 Zn253 2.024 . S
O261 C255 1.249 . S
H262 C244 0.948 . S
O263 Zn253 2.039 . S
O263 C267 1.251 . S
O264 Zn245 2.025 . S
O264 C267 1.254 . S
O265 C246 1.246 . S
O265 Zn253 2.034 . S
O266 Zn245 2.024 . S
O266 C246 1.249 . S
C267 O263 1.251 . S
C267 O264 1.254 . S
H268 C241 0.949 . S
H269 C243 0.950 . S
H270 C250 0.949 . S
H271 C252 0.950 . S
C272 O288 1.251 . S
C272 O290 1.254 . S
N273 C274 1.333 . S
N273 C278 1.307 . S
N273 Zn279 2.020 . S
C274 N273 1.333 . S
C274 C275 1.379 . S
C274 H292 0.952 . S
C275 C274 1.379 . S
C275 C276 1.390 . S
C275 H302 0.949 . S
C276 C275 1.390 . S
C276 C277 1.357 . S
C277 C276 1.357 . S
C277 C278 1.370 . S
C277 H303 0.950 . S
C278 N273 1.307 . S
C278 C277 1.370 . S
C278 H296 0.948 . S
Zn279 N273 2.020 . S
Zn279 O288 2.039 . S
Zn279 O294 2.034 1_556 S
Zn279 O298 2.025 1_556 S
Zn279 O300 2.024 . S
C280 O299 1.246 . S
C280 O300 1.249 . S
N281 C282 1.307 . S
N281 C283 1.333 . S
N281 Zn287 2.020 . S
C282 N281 1.307 . S
C282 C286 1.370 . S
C282 H293 0.948 . S
C283 N281 1.333 . S
C283 C284 1.379 . S
C283 H291 0.952 . S
C284 C283 1.379 . S
C284 C285 1.390 . S
C284 H304 0.949 . S
C285 C284 1.390 . S
C285 C286 1.357 . S
C286 C282 1.370 . S
C286 C285 1.357 . S
C286 H305 0.950 . S
Zn287 N281 2.020 . S
Zn287 O290 2.025 1_554 S
Zn287 O295 2.024 . S
Zn287 O297 2.039 . S
Zn287 O299 2.034 1_554 S
O288 C272 1.251 . S
O288 Zn279 2.039 . S
C289 O294 1.246 . S
C289 O295 1.249 . S
O290 C272 1.254 . S
O290 Zn287 2.025 1_556 S
H291 C283 0.952 . S
H292 C274 0.952 . S
H293 C282 0.948 . S
O294 Zn279 2.034 1_554 S
O294 C289 1.246 . S
O295 Zn287 2.024 . S
O295 C289 1.249 . S
H296 C278 0.948 . S
O297 Zn287 2.039 . S
O297 C301 1.251 . S
O298 Zn279 2.025 1_554 S
O298 C301 1.254 . S
O299 C280 1.246 . S
O299 Zn287 2.034 1_556 S
O300 Zn279 2.024 . S
O300 C280 1.249 . S
C301 O297 1.251 . S
C301 O298 1.254 . S
H302 C275 0.949 . S
H303 C277 0.950 . S
H304 C284 0.949 . S
H305 C286 0.950 . S
C306 O322 1.251 . S
C306 O324 1.254 . S
N307 C308 1.333 . S
N307 C312 1.307 . S
N307 Zn313 2.020 . S
C308 N307 1.333 . S
C308 C309 1.379 . S
C308 H326 0.952 . S
C309 C308 1.379 . S
C309 C310 1.390 . S
C309 H336 0.949 . S
C310 C309 1.390 . S
C310 C311 1.357 . S
C311 C310 1.357 . S
C311 C312 1.370 . S
C311 H337 0.950 . S
C312 N307 1.307 . S
C312 C311 1.370 . S
C312 H330 0.948 . S
Zn313 N307 2.020 . S
Zn313 O322 2.039 . S
Zn313 O328 2.034 . S
Zn313 O332 2.025 . S
Zn313 O334 2.024 . S
C314 O333 1.246 . S
C314 O334 1.249 . S
N315 C316 1.307 . S
N315 C317 1.333 . S
N315 Zn321 2.020 . S
C316 N315 1.307 . S
C316 C320 1.370 . S
C316 H327 0.948 . S
C317 N315 1.333 . S
C317 C318 1.379 . S
C317 H325 0.952 . S
C318 C317 1.379 . S
C318 C319 1.390 . S
C318 H338 0.949 . S
C319 C318 1.390 . S
C319 C320 1.357 . S
C320 C316 1.370 . S
C320 C319 1.357 . S
C320 H339 0.950 . S
Zn321 N315 2.020 . S
Zn321 O324 2.025 . S
Zn321 O329 2.024 . S
Zn321 O331 2.039 . S
Zn321 O333 2.034 . S
O322 C306 1.251 . S
O322 Zn313 2.039 . S
C323 O328 1.246 . S
C323 O329 1.249 . S
O324 C306 1.254 . S
O324 Zn321 2.025 . S
H325 C317 0.952 . S
H326 C308 0.952 . S
H327 C316 0.948 . S
O328 Zn313 2.034 . S
O328 C323 1.246 . S
O329 Zn321 2.024 . S
O329 C323 1.249 . S
H330 C312 0.948 . S
O331 Zn321 2.039 . S
O331 C335 1.251 . S
O332 Zn313 2.025 . S
O332 C335 1.254 . S
O333 C314 1.246 . S
O333 Zn321 2.034 . S
O334 Zn313 2.024 . S
O334 C314 1.249 . S
C335 O331 1.251 . S
C335 O332 1.254 . S
H336 C309 0.949 . S
H337 C311 0.950 . S
H338 C318 0.949 . S
H339 C320 0.950 . S
C340 O356 1.251 . S
C340 O358 1.254 . S
N341 C342 1.333 . S
N341 C346 1.307 . S
N341 Zn347 2.020 . S
C342 N341 1.333 . S
C342 C343 1.379 . S
C342 H360 0.952 . S
C343 C342 1.379 . S
C343 C344 1.390 . S
C343 H370 0.949 . S
C344 C343 1.390 . S
C344 C345 1.357 . S
C345 C344 1.357 . S
C345 C346 1.370 . S
C345 H371 0.950 . S
C346 N341 1.307 . S
C346 C345 1.370 . S
C346 H364 0.948 . S
Zn347 N341 2.020 . S
Zn347 O356 2.039 1_455 S
Zn347 O362 2.034 . S
Zn347 O366 2.025 . S
Zn347 O368 2.024 . S
C348 O367 1.246 . S
C348 O368 1.249 1_655 S
N349 C350 1.307 . S
N349 C351 1.333 . S
N349 Zn355 2.020 . S
C350 N349 1.307 . S
C350 C354 1.370 . S
C350 H361 0.948 . S
C351 N349 1.333 . S
C351 C352 1.379 . S
C351 H359 0.952 . S
C352 C351 1.379 . S
C352 C353 1.390 . S
C352 H372 0.949 . S
C353 C352 1.390 . S
C353 C354 1.357 . S
C354 C350 1.370 . S
C354 C353 1.357 . S
C354 H373 0.950 . S
Zn355 N349 2.020 . S
Zn355 O358 2.025 . S
Zn355 O363 2.008 1_655 S
Zn355 O365 2.039 1_655 S
Zn355 O367 2.034 . S
O356 C340 1.251 . S
O356 Zn347 2.039 1_655 S
C357 O362 1.246 . S
C357 O363 1.279 . S
O358 C340 1.254 . S
O358 Zn355 2.025 . S
H359 C351 0.952 . S
H360 C342 0.952 . S
H361 C350 0.948 . S
O362 Zn347 2.034 . S
O362 C357 1.246 . S
O363 Zn355 2.008 1_455 S
O363 C357 1.279 . S
H364 C346 0.948 . S
O365 Zn355 2.039 1_455 S
O365 C369 1.251 . S
O366 Zn347 2.025 . S
O366 C369 1.254 . S
O367 C348 1.246 . S
O367 Zn355 2.034 . S
O368 Zn347 2.024 . S
O368 C348 1.249 1_455 S
C369 O365 1.251 . S
C369 O366 1.254 . S
H370 C343 0.949 . S
H371 C345 0.950 . S
H372 C352 0.949 . S
H373 C354 0.950 . S
C374 O390 1.251 . S
C374 O392 1.254 . S
N375 C376 1.333 . S
N375 C380 1.307 . S
N375 Zn381 2.020 . S
C376 N375 1.333 . S
C376 C377 1.379 . S
C376 H394 0.952 . S
C377 C376 1.379 . S
C377 C378 1.390 . S
C377 H404 0.949 . S
C378 C377 1.390 . S
C378 C379 1.357 . S
C379 C378 1.357 . S
C379 C380 1.370 . S
C379 H405 0.950 . S
C380 N375 1.307 . S
C380 C379 1.370 . S
C380 H398 0.948 . S
Zn381 N375 2.020 . S
Zn381 O390 2.039 . S
Zn381 O396 2.034 . S
Zn381 O400 2.025 . S
Zn381 O402 2.024 . S
C382 O401 1.246 . S
C382 O402 1.249 . S
N383 C384 1.307 . S
N383 C385 1.333 . S
N383 Zn389 2.020 . S
C384 N383 1.307 . S
C384 C388 1.370 . S
C384 H395 0.948 . S
C385 N383 1.333 . S
C385 C386 1.379 . S
C385 H393 0.952 . S
C386 C385 1.379 . S
C386 C387 1.390 . S
C386 H406 0.949 . S
C387 C386 1.390 . S
C387 C388 1.357 . S
C388 C384 1.370 . S
C388 C387 1.357 . S
C388 H407 0.950 . S
Zn389 N383 2.020 . S
Zn389 O392 2.025 . S
Zn389 O397 2.024 . S
Zn389 O399 2.039 . S
Zn389 O401 2.034 . S
O390 C374 1.251 . S
O390 Zn381 2.039 . S
C391 O396 1.246 . S
C391 O397 1.249 . S
O392 C374 1.254 . S
O392 Zn389 2.025 . S
H393 C385 0.952 . S
H394 C376 0.952 . S
H395 C384 0.948 . S
O396 Zn381 2.034 . S
O396 C391 1.246 . S
O397 Zn389 2.024 . S
O397 C391 1.249 . S
H398 C380 0.948 . S
O399 Zn389 2.039 . S
O399 C403 1.251 . S
O400 Zn381 2.025 . S
O400 C403 1.254 . S
O401 C382 1.246 . S
O401 Zn389 2.034 . S
O402 Zn381 2.024 . S
O402 C382 1.249 . S
C403 O399 1.251 . S
C403 O400 1.254 . S
H404 C377 0.949 . S
H405 C379 0.950 . S
H406 C386 0.949 . S
H407 C388 0.950 . S
C408 O424 1.251 . S
C408 O426 1.254 . S
N409 C410 1.333 . S
N409 C414 1.307 . S
N409 Zn415 2.020 . S
C410 N409 1.333 . S
C410 C411 1.379 . S
C410 H428 0.952 . S
C411 C410 1.379 . S
C411 C412 1.390 . S
C411 H438 0.949 . S
C412 C411 1.390 . S
C412 C413 1.357 . S
C413 C412 1.357 . S
C413 C414 1.370 . S
C413 H439 0.950 . S
C414 N409 1.307 . S
C414 C413 1.370 . S
C414 H432 0.948 . S
Zn415 N409 2.020 . S
Zn415 O424 2.039 . S
Zn415 O430 2.034 . S
Zn415 O434 2.025 . S
Zn415 O436 2.024 . S
C416 O435 1.246 . S
C416 O436 1.249 . S
N417 C418 1.307 . S
N417 C419 1.333 . S
N417 Zn423 2.020 . S
C418 N417 1.307 . S
C418 C422 1.370 . S
C418 H429 0.948 . S
C419 N417 1.333 . S
C419 C420 1.379 . S
C419 H427 0.952 . S
C420 C419 1.379 . S
C420 C421 1.390 . S
C420 H440 0.949 . S
C421 C420 1.390 . S
C421 C422 1.357 . S
C422 C418 1.370 . S
C422 C421 1.357 . S
C422 H441 0.950 . S
Zn423 N417 2.020 . S
Zn423 O426 2.025 . S
Zn423 O431 2.024 . S
Zn423 O433 2.039 . S
Zn423 O435 2.034 . S
O424 C408 1.251 . S
O424 Zn415 2.039 . S
C425 O430 1.246 . S
C425 O431 1.249 . S
O426 C408 1.254 . S
O426 Zn423 2.025 . S
H427 C419 0.952 . S
H428 C410 0.952 . S
H429 C418 0.948 . S
O430 Zn415 2.034 . S
O430 C425 1.246 . S
O431 Zn423 2.024 . S
O431 C425 1.249 . S
H432 C414 0.948 . S
O433 Zn423 2.039 . S
O433 C437 1.251 . S
O434 Zn415 2.025 . S
O434 C437 1.254 . S
O435 C416 1.246 . S
O435 Zn423 2.034 . S
O436 Zn415 2.024 . S
O436 C416 1.249 . S
C437 O433 1.251 . S
C437 O434 1.254 . S
H438 C411 0.949 . S
H439 C413 0.950 . S
H440 C420 0.949 . S
H441 C422 0.950 . S
C442 O458 1.251 . S
C442 O460 1.254 . S
N443 C444 1.333 . S
N443 C448 1.307 . S
N443 Zn449 2.020 . S
C444 N443 1.333 . S
C444 C445 1.379 . S
C444 H462 0.952 . S
C445 C444 1.379 . S
C445 C446 1.390 . S
C445 H472 0.949 . S
C446 C445 1.390 . S
C446 C447 1.357 . S
C447 C446 1.357 . S
C447 C448 1.370 . S
C447 H473 0.950 . S
C448 N443 1.307 . S
C448 C447 1.370 . S
C448 H466 0.948 . S
Zn449 N443 2.020 . S
Zn449 O458 2.039 . S
Zn449 O464 2.034 . S
Zn449 O468 2.025 . S
Zn449 O470 2.024 . S
C450 O469 1.246 . S
C450 O470 1.249 . S
N451 C452 1.307 . S
N451 C453 1.333 . S
N451 Zn457 2.020 . S
C452 N451 1.307 . S
C452 C456 1.370 . S
C452 H463 0.948 . S
C453 N451 1.333 . S
C453 C454 1.379 . S
C453 H461 0.952 . S
C454 C453 1.379 . S
C454 C455 1.390 . S
C454 H474 0.949 . S
C455 C454 1.390 . S
C455 C456 1.357 . S
C456 C452 1.370 . S
C456 C455 1.357 . S
C456 H475 0.950 . S
Zn457 N451 2.020 . S
Zn457 O460 2.025 . S
Zn457 O465 2.024 . S
Zn457 O467 2.039 . S
Zn457 O469 2.034 . S
O458 C442 1.251 . S
O458 Zn449 2.039 . S
C459 O464 1.246 . S
C459 O465 1.249 . S
O460 C442 1.254 . S
O460 Zn457 2.025 . S
H461 C453 0.952 . S
H462 C444 0.952 . S
H463 C452 0.948 . S
O464 Zn449 2.034 . S
O464 C459 1.246 . S
O465 Zn457 2.024 . S
O465 C459 1.249 . S
H466 C448 0.948 . S
O467 Zn457 2.039 . S
O467 C471 1.251 . S
O468 Zn449 2.025 . S
O468 C471 1.254 . S
O469 C450 1.246 . S
O469 Zn457 2.034 . S
O470 Zn449 2.024 . S
O470 C450 1.249 . S
C471 O467 1.251 . S
C471 O468 1.254 . S
H472 C445 0.949 . S
H473 C447 0.950 . S
H474 C454 0.949 . S
H475 C456 0.950 . S
C476 O492 1.251 . S
C476 O494 1.254 . S
N477 C478 1.333 . S
N477 C482 1.307 . S
N477 Zn483 2.020 . S
C478 N477 1.333 . S
C478 C479 1.379 . S
C478 H496 0.952 . S
C479 C478 1.379 . S
C479 C480 1.390 . S
C479 H506 0.949 . S
C480 C479 1.390 . S
C480 C481 1.357 . S
C481 C480 1.357 . S
C481 C482 1.370 . S
C481 H507 0.950 . S
C482 N477 1.307 . S
C482 C481 1.370 . S
C482 H500 0.948 . S
Zn483 N477 2.020 . S
Zn483 O492 2.039 . S
Zn483 O498 2.034 . S
Zn483 O502 2.025 . S
Zn483 O504 2.024 . S
C484 O503 1.246 . S
C484 O504 1.249 . S
N485 C486 1.307 . S
N485 C487 1.333 . S
N485 Zn491 2.020 . S
C486 N485 1.307 . S
C486 C490 1.370 . S
C486 H497 0.948 . S
C487 N485 1.333 . S
C487 C488 1.379 . S
C487 H495 0.952 . S
C488 C487 1.379 . S
C488 C489 1.390 . S
C488 H508 0.949 . S
C489 C488 1.390 . S
C489 C490 1.357 . S
C490 C486 1.370 . S
C490 C489 1.357 . S
C490 H509 0.950 . S
Zn491 N485 2.020 . S
Zn491 O494 2.025 . S
Zn491 O499 2.024 . S
Zn491 O501 2.039 . S
Zn491 O503 2.034 . S
O492 C476 1.251 . S
O492 Zn483 2.039 . S
C493 O498 1.246 . S
C493 O499 1.249 . S
O494 C476 1.254 . S
O494 Zn491 2.025 . S
H495 C487 0.952 . S
H496 C478 0.952 . S
H497 C486 0.948 . S
O498 Zn483 2.034 . S
O498 C493 1.246 . S
O499 Zn491 2.024 . S
O499 C493 1.249 . S
H500 C482 0.948 . S
O501 Zn491 2.039 . S
O501 C505 1.251 . S
O502 Zn483 2.025 . S
O502 C505 1.254 . S
O503 C484 1.246 . S
O503 Zn491 2.034 . S
O504 Zn483 2.024 . S
O504 C484 1.249 . S
C505 O501 1.251 . S
C505 O502 1.254 . S
H506 C479 0.949 . S
H507 C481 0.950 . S
H508 C488 0.949 . S
H509 C490 0.950 . S
C510 O526 1.251 . S
C510 O528 1.254 . S
N511 C512 1.333 . S
N511 C516 1.307 1_554 S
N511 Zn517 2.020 . S
C512 N511 1.333 . S
C512 C513 1.379 . S
C512 H530 0.952 . S
C513 C512 1.379 . S
C513 C514 1.390 . S
C513 H540 0.949 . S
C514 C513 1.390 . S
C514 C515 1.357 . S
C515 C514 1.357 . S
C515 C516 1.370 1_554 S
C515 H541 0.950 1_554 S
C516 N511 1.307 1_556 S
C516 C515 1.370 1_556 S
C516 H534 0.948 . S
Zn517 N511 2.020 . S
Zn517 O526 2.039 . S
Zn517 O532 2.034 1_455 S
Zn517 O536 2.025 1_454 S
Zn517 O538 2.024 1_554 S
C518 O537 1.246 . S
C518 O538 1.249 . S
N519 C520 1.307 1_556 S
N519 C521 1.333 . S
N519 Zn525 2.028 . S
C520 N519 1.307 1_554 S
C520 C524 1.370 . S
C520 H531 0.948 . S
C521 N519 1.333 . S
C521 C522 1.379 . S
C521 H529 0.952 . S
C522 C521 1.379 . S
C522 C523 1.390 . S
C522 H542 0.949 . S
C523 C522 1.390 . S
C523 C524 1.357 1_556 S
C524 C520 1.370 . S
C524 C523 1.357 1_554 S
C524 H543 0.950 . S
Zn525 N519 2.028 . S
Zn525 O528 2.011 1_656 S
Zn525 O533 2.009 1_556 S
Zn525 O535 2.052 . S
Zn525 O537 2.047 1_655 S
O526 C510 1.251 . S
O526 Zn517 2.039 . S
C527 O532 1.246 . S
C527 O533 1.249 . S
O528 C510 1.254 . S
O528 Zn525 2.011 1_454 S
H529 C521 0.952 . S
H530 C512 0.952 . S
H531 C520 0.948 . S
O532 Zn517 2.034 1_655 S
O532 C527 1.246 . S
O533 Zn525 2.009 1_554 S
O533 C527 1.249 . S
H534 C516 0.948 . S
O535 Zn525 2.052 . S
O535 C539 1.251 . S
O536 Zn517 2.025 1_656 S
O536 C539 1.254 . S
O537 C518 1.246 . S
O537 Zn525 2.047 1_455 S
O538 Zn517 2.024 1_556 S
O538 C518 1.249 . S
C539 O535 1.251 . S
C539 O536 1.254 . S
H540 C513 0.949 . S
H541 C515 0.950 1_556 S
H542 C522 0.949 . S
H543 C524 0.950 . S
C544 C545 1.349 . S
C544 C546 1.327 . S
C544 H569 0.950 . S
C545 C544 1.349 . S
C545 C561 1.349 . S
C546 C544 1.327 . S
C546 C565 1.429 . S
C546 H570 0.950 . S
C547 C564 1.574 . S
C547 C566 1.368 . S
C547 H571 0.949 . S
H548 C552 0.949 . S
C549 C550 1.349 . S
C549 C551 1.327 . S
C549 H572 0.950 . S
C550 C549 1.349 . S
C550 C562 1.349 . S
C551 C549 1.327 . S
C551 C567 1.429 . S
C551 H573 0.950 . S
C552 H548 0.949 . S
C552 C560 1.574 . S
C552 C568 1.368 . S
H553 C561 0.950 . S
H554 C559 0.950 . S
H555 C560 0.949 . S
H556 C562 0.950 . S
H557 C563 0.950 . S
H558 C564 0.949 . S
C559 H554 0.950 . S
C559 C561 1.327 . S
C559 C565 1.429 . S
C560 C552 1.574 . S
C560 H555 0.949 . S
C560 C566 1.368 . S
C561 C545 1.349 . S
C561 H553 0.950 . S
C561 C559 1.327 . S
C562 C550 1.349 . S
C562 H556 0.950 . S
C562 C563 1.327 . S
C563 H557 0.950 . S
C563 C562 1.327 . S
C563 C567 1.429 . S
C564 C547 1.574 . S
C564 H558 0.949 . S
C564 C568 1.368 . S
C565 C546 1.429 . S
C565 C559 1.429 . S
C565 C566 1.523 . S
C566 C547 1.368 . S
C566 C560 1.368 . S
C566 C565 1.523 . S
C567 C551 1.429 . S
C567 C563 1.429 . S
C567 C568 1.523 . S
C568 C552 1.368 . S
C568 C564 1.368 . S
C568 C567 1.523 . S
H569 C544 0.950 . S
H570 C546 0.950 . S
H571 C547 0.949 . S
H572 C549 0.950 . S
H573 C551 0.950 . S
C574 C575 1.349 . S
C574 C576 1.327 . S
C574 H599 0.950 . S
C575 C574 1.349 . S
C575 C591 1.349 . S
C576 C574 1.327 . S
C576 C595 1.429 . S
C576 H600 0.950 . S
C577 C594 1.574 . S
C577 C596 1.368 . S
C577 H601 0.949 . S
H578 C582 0.949 . S
C579 C580 1.349 . S
C579 C581 1.327 . S
C579 H602 0.950 . S
C580 C579 1.349 . S
C580 C592 1.349 . S
C581 C579 1.327 . S
C581 C597 1.429 . S
C581 H603 0.950 . S
C582 H578 0.949 . S
C582 C590 1.574 . S
C582 C598 1.368 . S
H583 C591 0.950 . S
H584 C589 0.950 . S
H585 C590 0.949 . S
H586 C592 0.950 . S
H587 C593 0.950 . S
H588 C594 0.949 . S
C589 H584 0.950 . S
C589 C591 1.327 . S
C589 C595 1.429 . S
C590 C582 1.574 . S
C590 H585 0.949 . S
C590 C596 1.368 . S
C591 C575 1.349 . S
C591 H583 0.950 . S
C591 C589 1.327 . S
C592 C580 1.349 . S
C592 H586 0.950 . S
C592 C593 1.327 . S
C593 H587 0.950 . S
C593 C592 1.327 . S
C593 C597 1.429 . S
C594 C577 1.574 . S
C594 H588 0.949 . S
C594 C598 1.368 . S
C595 C576 1.429 . S
C595 C589 1.429 . S
C595 C596 1.523 . S
C596 C577 1.368 . S
C596 C590 1.368 . S
C596 C595 1.523 . S
C597 C581 1.429 . S
C597 C593 1.429 . S
C597 C598 1.523 . S
C598 C582 1.368 . S
C598 C594 1.368 . S
C598 C597 1.523 . S
H599 C574 0.950 . S
H600 C576 0.950 . S
H601 C577 0.949 . S
H602 C579 0.950 . S
H603 C581 0.950 . S
C604 C605 1.349 . S
C604 C606 1.327 . S
C604 H629 0.950 . S
C605 C604 1.349 . S
C605 C621 1.349 . S
C606 C604 1.327 . S
C606 C625 1.429 . S
C606 H630 0.950 . S
C607 C624 1.574 . S
C607 C626 1.368 . S
C607 H631 0.949 . S
H608 C612 0.949 . S
C609 C610 1.349 . S
C609 C611 1.327 . S
C609 H632 0.950 . S
C610 C609 1.349 . S
C610 C622 1.349 . S
C611 C609 1.327 . S
C611 C627 1.429 . S
C611 H633 0.950 . S
C612 H608 0.949 . S
C612 C620 1.574 . S
C612 C628 1.368 . S
H613 C621 0.950 . S
H614 C619 0.950 . S
H615 C620 0.949 . S
H616 C622 0.950 . S
H617 C623 0.950 . S
H618 C624 0.949 . S
C619 H614 0.950 . S
C619 C621 1.327 . S
C619 C625 1.429 . S
C620 C612 1.574 . S
C620 H615 0.949 . S
C620 C626 1.368 . S
C621 C605 1.349 . S
C621 H613 0.950 . S
C621 C619 1.327 . S
C622 C610 1.349 . S
C622 H616 0.950 . S
C622 C623 1.327 . S
C623 H617 0.950 . S
C623 C622 1.327 . S
C623 C627 1.429 . S
C624 C607 1.574 . S
C624 H618 0.949 . S
C624 C628 1.368 . S
C625 C606 1.429 . S
C625 C619 1.429 . S
C625 C626 1.523 . S
C626 C607 1.368 . S
C626 C620 1.368 . S
C626 C625 1.523 . S
C627 C611 1.429 . S
C627 C623 1.429 . S
C627 C628 1.523 . S
C628 C612 1.368 . S
C628 C624 1.368 . S
C628 C627 1.523 . S
H629 C604 0.950 . S
H630 C606 0.950 . S
H631 C607 0.949 . S
H632 C609 0.950 . S
H633 C611 0.950 . S
C634 C635 1.349 . S
C634 C636 1.327 . S
C634 H659 0.950 . S
C635 C634 1.349 . S
C635 C651 1.349 . S
C636 C634 1.327 . S
C636 C655 1.429 . S
C636 H660 0.950 . S
C637 C654 1.574 . S
C637 C656 1.368 . S
C637 H661 0.949 . S
H638 C642 0.949 . S
C639 C640 1.349 . S
C639 C641 1.327 . S
C639 H662 0.950 . S
C640 C639 1.349 . S
C640 C652 1.349 . S
C641 C639 1.327 . S
C641 C657 1.429 . S
C641 H663 0.950 . S
C642 H638 0.949 . S
C642 C650 1.574 . S
C642 C658 1.368 . S
H643 C651 0.950 . S
H644 C649 0.950 . S
H645 C650 0.949 . S
H646 C652 0.950 . S
H647 C653 0.950 . S
H648 C654 0.949 . S
C649 H644 0.950 . S
C649 C651 1.327 . S
C649 C655 1.429 . S
C650 C642 1.574 . S
C650 H645 0.949 . S
C650 C656 1.368 . S
C651 C635 1.349 . S
C651 H643 0.950 . S
C651 C649 1.327 . S
C652 C640 1.349 . S
C652 H646 0.950 . S
C652 C653 1.327 . S
C653 H647 0.950 . S
C653 C652 1.327 . S
C653 C657 1.429 . S
C654 C637 1.574 . S
C654 H648 0.949 . S
C654 C658 1.368 . S
C655 C636 1.429 . S
C655 C649 1.429 . S
C655 C656 1.523 . S
C656 C637 1.368 . S
C656 C650 1.368 . S
C656 C655 1.523 . S
C657 C641 1.429 . S
C657 C653 1.429 . S
C657 C658 1.523 . S
C658 C642 1.368 . S
C658 C654 1.368 . S
C658 C657 1.523 . S
H659 C634 0.950 . S
H660 C636 0.950 . S
H661 C637 0.949 . S
H662 C639 0.950 . S
H663 C641 0.950 . S
C664 C665 1.349 . S
C664 C666 1.327 . S
C664 H689 0.950 . S
C665 C664 1.349 . S
C665 C681 1.349 . S
C666 C664 1.327 . S
C666 C685 1.429 . S
C666 H690 0.950 . S
C667 C684 1.574 . S
C667 C686 1.368 . S
C667 H691 0.949 . S
H668 C672 0.949 . S
C669 C670 1.349 . S
C669 C671 1.327 . S
C669 H692 0.950 . S
C670 C669 1.349 . S
C670 C682 1.349 . S
C671 C669 1.327 . S
C671 C687 1.429 . S
C671 H693 0.950 . S
C672 H668 0.949 . S
C672 C680 1.574 . S
C672 C688 1.368 . S
H673 C681 0.950 . S
H674 C679 0.950 . S
H675 C680 0.949 . S
H676 C682 0.950 . S
H677 C683 0.950 . S
H678 C684 0.949 . S
C679 H674 0.950 . S
C679 C681 1.327 . S
C679 C685 1.429 . S
C680 C672 1.574 . S
C680 H675 0.949 . S
C680 C686 1.368 . S
C681 C665 1.349 . S
C681 H673 0.950 . S
C681 C679 1.327 . S
C682 C670 1.349 . S
C682 H676 0.950 . S
C682 C683 1.327 . S
C683 H677 0.950 . S
C683 C682 1.327 . S
C683 C687 1.429 . S
C684 C667 1.574 . S
C684 H678 0.949 . S
C684 C688 1.368 . S
C685 C666 1.429 . S
C685 C679 1.429 . S
C685 C686 1.523 . S
C686 C667 1.368 . S
C686 C680 1.368 . S
C686 C685 1.523 . S
C687 C671 1.429 . S
C687 C683 1.429 . S
C687 C688 1.523 . S
C688 C672 1.368 . S
C688 C684 1.368 . S
C688 C687 1.523 . S
H689 C664 0.950 . S
H690 C666 0.950 . S
H691 C667 0.949 . S
H692 C669 0.950 . S
H693 C671 0.950 . S
C694 C695 1.349 . S
C694 C696 1.327 . S
C694 H719 0.950 . S
C695 C694 1.349 . S
C695 C711 1.349 . S
C696 C694 1.327 . S
C696 C715 1.429 . S
C696 H720 0.950 . S
C697 C714 1.574 . S
C697 C716 1.368 . S
C697 H721 0.949 . S
H698 C702 0.949 . S
C699 C700 1.349 . S
C699 C701 1.327 . S
C699 H722 0.979 . S
C700 C699 1.349 . S
C700 C712 1.349 . S
C701 C699 1.327 . S
C701 C717 1.429 . S
C701 H723 0.950 . S
C702 H698 0.949 . S
C702 C710 1.574 . S
C702 C718 1.368 . S
H703 C711 0.950 . S
H704 C709 0.950 . S
H705 C710 0.949 . S
H706 C712 0.950 . S
H707 C713 0.950 . S
H708 C714 0.949 . S
C709 H704 0.950 . S
C709 C711 1.327 . S
C709 C715 1.429 . S
C710 C702 1.574 . S
C710 H705 0.949 . S
C710 C716 1.368 . S
C711 C695 1.349 . S
C711 H703 0.950 . S
C711 C709 1.327 . S
C712 C700 1.349 . S
C712 H706 0.950 . S
C712 C713 1.327 . S
C713 H707 0.950 . S
C713 C712 1.327 . S
C713 C717 1.429 . S
C714 C697 1.574 . S
C714 H708 0.949 . S
C714 C718 1.368 . S
C715 C696 1.429 . S
C715 C709 1.429 . S
C715 C716 1.523 . S
C716 C697 1.368 . S
C716 C710 1.368 . S
C716 C715 1.523 . S
C717 C701 1.429 . S
C717 C713 1.429 . S
C717 C718 1.523 . S
C718 C702 1.368 . S
C718 C714 1.368 . S
C718 C717 1.523 . S
H719 C694 0.950 . S
H720 C696 0.950 . S
H721 C697 0.949 . S
H722 C699 0.979 . S
H723 C701 0.950 . S
C724 C725 1.349 . S
C724 C726 1.327 . S
C724 H749 0.950 . S
C725 C724 1.349 . S
C725 C741 1.349 . S
C726 C724 1.327 . S
C726 C745 1.429 . S
C726 H750 0.950 . S
C727 C744 1.574 . S
C727 C746 1.368 . S
C727 H751 0.949 . S
H728 C732 0.949 . S
C729 C730 1.349 . S
C729 C731 1.327 . S
C729 H752 0.950 . S
C730 C729 1.349 . S
C730 C742 1.349 . S
C731 C729 1.327 . S
C731 C747 1.429 . S
C731 H753 0.950 . S
C732 H728 0.949 . S
C732 C740 1.574 . S
C732 C748 1.368 . S
H733 C741 0.950 . S
H734 C739 0.950 . S
H735 C740 0.949 . S
H736 C742 0.950 . S
H737 C743 0.950 . S
H738 C744 0.949 . S
C739 H734 0.950 . S
C739 C741 1.327 . S
C739 C745 1.429 . S
C740 C732 1.574 . S
C740 H735 0.949 . S
C740 C746 1.368 . S
C741 C725 1.349 . S
C741 H733 0.950 . S
C741 C739 1.327 . S
C742 C730 1.349 . S
C742 H736 0.950 . S
C742 C743 1.327 . S
C743 H737 0.950 . S
C743 C742 1.327 . S
C743 C747 1.429 . S
C744 C727 1.574 . S
C744 H738 0.949 . S
C744 C748 1.368 . S
C745 C726 1.429 . S
C745 C739 1.429 . S
C745 C746 1.523 . S
C746 C727 1.368 . S
C746 C740 1.368 . S
C746 C745 1.523 . S
C747 C731 1.429 . S
C747 C743 1.429 . S
C747 C748 1.523 . S
C748 C732 1.368 . S
C748 C744 1.368 . S
C748 C747 1.523 . S
H749 C724 0.950 . S
H750 C726 0.950 . S
H751 C727 0.949 . S
H752 C729 0.950 . S
H753 C731 0.950 . S
C754 C755 1.349 . S
C754 C756 1.327 . S
C754 H779 0.950 . S
C755 C754 1.349 . S
C755 C771 1.349 . S
C756 C754 1.327 . S
C756 C775 1.429 . S
C756 H780 0.950 . S
C757 C774 1.574 . S
C757 C776 1.368 . S
C757 H781 0.949 . S
H758 C762 0.949 . S
C759 C760 1.349 . S
C759 C761 1.327 . S
C759 H782 0.950 . S
C760 C759 1.349 . S
C760 C772 1.349 . S
C761 C759 1.327 . S
C761 C777 1.429 . S
C761 H783 0.950 . S
C762 H758 0.949 . S
C762 C770 1.574 . S
C762 C778 1.368 . S
H763 C771 0.950 . S
H764 C769 0.950 . S
H765 C770 0.949 . S
H766 C772 0.950 . S
H767 C773 0.950 . S
H768 C774 0.949 . S
C769 H764 0.950 . S
C769 C771 1.327 . S
C769 C775 1.429 . S
C770 C762 1.574 . S
C770 H765 0.949 . S
C770 C776 1.368 . S
C771 C755 1.349 . S
C771 H763 0.950 . S
C771 C769 1.327 . S
C772 C760 1.349 . S
C772 H766 0.950 . S
C772 C773 1.327 . S
C773 H767 0.950 . S
C773 C772 1.327 . S
C773 C777 1.429 . S
C774 C757 1.574 . S
C774 H768 0.949 . S
C774 C778 1.368 . S
C775 C756 1.429 . S
C775 C769 1.429 . S
C775 C776 1.523 . S
C776 C757 1.368 . S
C776 C770 1.368 . S
C776 C775 1.523 . S
C777 C761 1.429 . S
C777 C773 1.429 . S
C777 C778 1.523 . S
C778 C762 1.368 . S
C778 C774 1.368 . S
C778 C777 1.523 . S
H779 C754 0.950 . S
H780 C756 0.950 . S
H781 C757 0.949 . S
H782 C759 0.950 . S
H783 C761 0.950 . S
C784 C785 1.349 . S
C784 C786 1.327 . S
C784 H809 0.950 . S
C785 C784 1.349 . S
C785 C801 1.349 . S
C786 C784 1.327 . S
C786 C805 1.429 . S
C786 H810 0.950 . S
C787 C804 1.574 . S
C787 C806 1.368 . S
C787 H811 0.949 . S
H788 C792 0.949 . S
C789 C790 1.349 . S
C789 C791 1.327 . S
C789 H812 0.950 . S
C790 C789 1.349 . S
C790 C802 1.349 . S
C791 C789 1.327 . S
C791 C807 1.429 . S
C791 H813 0.950 . S
C792 H788 0.949 . S
C792 C800 1.574 . S
C792 C808 1.368 . S
H793 C801 0.950 . S
H794 C799 0.950 . S
H795 C800 0.949 . S
H796 C802 0.950 . S
H797 C803 0.950 . S
H798 C804 0.949 . S
C799 H794 0.950 . S
C799 C801 1.327 . S
C799 C805 1.429 . S
C800 C792 1.574 . S
C800 H795 0.949 . S
C800 C806 1.368 . S
C801 C785 1.349 . S
C801 H793 0.950 . S
C801 C799 1.327 . S
C802 C790 1.349 . S
C802 H796 0.950 . S
C802 C803 1.327 . S
C803 H797 0.950 . S
C803 C802 1.327 . S
C803 C807 1.429 . S
C804 C787 1.574 . S
C804 H798 0.949 . S
C804 C808 1.368 . S
C805 C786 1.429 . S
C805 C799 1.429 . S
C805 C806 1.523 . S
C806 C787 1.368 . S
C806 C800 1.368 . S
C806 C805 1.523 . S
C807 C791 1.429 . S
C807 C803 1.429 . S
C807 C808 1.523 . S
C808 C792 1.368 . S
C808 C804 1.368 . S
C808 C807 1.523 . S
H809 C784 0.950 . S
H810 C786 0.950 . S
H811 C787 0.949 . S
H812 C789 0.950 . S
H813 C791 0.950 . S
C814 C815 1.349 . S
C814 C816 1.327 . S
C814 H839 0.950 . S
C815 C814 1.349 . S
C815 C831 1.349 . S
C816 C814 1.327 . S
C816 C835 1.429 . S
C816 H840 0.950 . S
C817 C834 1.574 . S
C817 C836 1.368 . S
C817 H841 0.949 . S
H818 C822 0.949 . S
C819 C820 1.349 . S
C819 C821 1.327 . S
C819 H842 0.950 . S
C820 C819 1.349 . S
C820 C832 1.349 . S
C821 C819 1.327 . S
C821 C837 1.429 . S
C821 H843 0.950 . S
C822 H818 0.949 . S
C822 C830 1.574 . S
C822 C838 1.368 . S
H823 C831 0.950 . S
H824 C829 0.950 . S
H825 C830 0.949 . S
H826 C832 0.950 . S
H827 C833 0.950 . S
H828 C834 0.949 . S
C829 H824 0.950 . S
C829 C831 1.327 . S
C829 C835 1.429 . S
C830 C822 1.574 . S
C830 H825 0.949 . S
C830 C836 1.368 . S
C831 C815 1.349 . S
C831 H823 0.950 . S
C831 C829 1.327 . S
C832 C820 1.349 . S
C832 H826 0.950 . S
C832 C833 1.327 . S
C833 H827 0.950 . S
C833 C832 1.327 . S
C833 C837 1.429 . S
C834 C817 1.574 . S
C834 H828 0.949 . S
C834 C838 1.368 . S
C835 C816 1.429 . S
C835 C829 1.429 . S
C835 C836 1.523 . S
C836 C817 1.368 . S
C836 C830 1.368 . S
C836 C835 1.523 . S
C837 C821 1.429 . S
C837 C833 1.429 . S
C837 C838 1.523 . S
C838 C822 1.368 . S
C838 C834 1.368 . S
C838 C837 1.523 . S
H839 C814 0.950 . S
H840 C816 0.950 . S
H841 C817 0.949 . S
H842 C819 0.950 . S
H843 C821 0.950 . S
C844 C845 1.349 . S
C844 C846 1.327 . S
C844 H869 0.950 . S
C845 C844 1.349 . S
C845 C861 1.349 . S
C846 C844 1.327 . S
C846 C865 1.429 . S
C846 H870 0.950 . S
C847 C864 1.574 . S
C847 C866 1.368 . S
C847 H871 0.949 . S
H848 C852 0.949 . S
C849 C850 1.349 . S
C849 C851 1.327 . S
C849 H872 0.950 . S
C850 C849 1.349 . S
C850 C862 1.349 . S
C851 C849 1.327 . S
C851 C867 1.429 . S
C851 H873 0.950 . S
C852 H848 0.949 . S
C852 C860 1.574 . S
C852 C868 1.368 . S
H853 C861 0.950 . S
H854 C859 0.950 . S
H855 C860 0.949 . S
H856 C862 0.950 . S
H857 C863 0.950 . S
H858 C864 0.949 . S
C859 H854 0.950 . S
C859 C861 1.327 . S
C859 C865 1.429 . S
C860 C852 1.574 . S
C860 H855 0.949 . S
C860 C866 1.368 . S
C861 C845 1.349 . S
C861 H853 0.950 . S
C861 C859 1.327 . S
C862 C850 1.349 . S
C862 H856 0.950 . S
C862 C863 1.327 . S
C863 H857 0.950 . S
C863 C862 1.327 . S
C863 C867 1.429 . S
C864 C847 1.574 . S
C864 H858 0.949 . S
C864 C868 1.368 . S
C865 C846 1.429 . S
C865 C859 1.429 . S
C865 C866 1.523 . S
C866 C847 1.368 . S
C866 C860 1.368 . S
C866 C865 1.523 . S
C867 C851 1.429 . S
C867 C863 1.429 . S
C867 C868 1.523 . S
C868 C852 1.368 . S
C868 C864 1.368 . S
C868 C867 1.523 . S
H869 C844 0.950 . S
H870 C846 0.950 . S
H871 C847 0.949 . S
H872 C849 0.950 . S
H873 C851 0.950 . S
C874 C875 1.349 . S
C874 C876 1.327 . S
C874 H899 0.950 . S
C875 C874 1.349 . S
C875 C891 1.349 . S
C876 C874 1.327 . S
C876 C895 1.429 . S
C876 H900 0.950 . S
C877 C894 1.574 . S
C877 C896 1.368 . S
C877 H901 0.949 . S
H878 C882 0.949 . S
C879 C880 1.349 . S
C879 C881 1.327 . S
C879 H902 0.950 . S
C880 C879 1.349 . S
C880 C892 1.349 . S
C881 C879 1.327 . S
C881 C897 1.429 . S
C881 H903 0.950 . S
C882 H878 0.949 . S
C882 C890 1.574 . S
C882 C898 1.368 . S
H883 C891 0.950 . S
H884 C889 0.950 . S
H885 C890 0.949 . S
H886 C892 0.950 . S
H887 C893 0.950 . S
H888 C894 0.949 . S
C889 H884 0.950 . S
C889 C891 1.327 . S
C889 C895 1.429 . S
C890 C882 1.574 . S
C890 H885 0.949 . S
C890 C896 1.368 . S
C891 C875 1.349 . S
C891 H883 0.950 . S
C891 C889 1.327 . S
C892 C880 1.349 . S
C892 H886 0.950 . S
C892 C893 1.327 . S
C893 H887 0.950 . S
C893 C892 1.327 . S
C893 C897 1.429 . S
C894 C877 1.574 . S
C894 H888 0.949 . S
C894 C898 1.368 . S
C895 C876 1.429 . S
C895 C889 1.429 . S
C895 C896 1.523 . S
C896 C877 1.368 . S
C896 C890 1.368 . S
C896 C895 1.523 . S
C897 C881 1.429 . S
C897 C893 1.429 . S
C897 C898 1.523 . S
C898 C882 1.368 . S
C898 C894 1.368 . S
C898 C897 1.523 . S
H899 C874 0.950 . S
H900 C876 0.950 . S
H901 C877 0.949 . S
H902 C879 0.950 . S
H903 C881 0.950 . S
C904 C905 1.349 . S
C904 C906 1.327 . S
C904 H929 0.950 . S
C905 C904 1.349 . S
C905 C921 1.349 . S
C906 C904 1.327 . S
C906 C925 1.429 . S
C906 H930 0.950 . S
C907 C924 1.574 . S
C907 C926 1.368 . S
C907 H931 0.949 . S
H908 C912 0.949 . S
C909 C910 1.349 . S
C909 C911 1.327 . S
C909 H932 0.950 . S
C910 C909 1.349 . S
C910 C922 1.349 . S
C911 C909 1.327 . S
C911 C927 1.429 . S
C911 H933 0.950 . S
C912 H908 0.949 . S
C912 C920 1.574 . S
C912 C928 1.368 . S
H913 C921 0.950 . S
H914 C919 0.950 . S
H915 C920 0.949 . S
H916 C922 0.950 . S
H917 C923 0.950 . S
H918 C924 0.949 . S
C919 H914 0.950 . S
C919 C921 1.327 . S
C919 C925 1.429 . S
C920 C912 1.574 . S
C920 H915 0.949 . S
C920 C926 1.368 . S
C921 C905 1.349 . S
C921 H913 0.950 . S
C921 C919 1.327 . S
C922 C910 1.349 . S
C922 H916 0.950 . S
C922 C923 1.327 . S
C923 H917 0.950 . S
C923 C922 1.327 . S
C923 C927 1.429 . S
C924 C907 1.574 . S
C924 H918 0.949 . S
C924 C928 1.368 . S
C925 C906 1.429 . S
C925 C919 1.429 . S
C925 C926 1.523 . S
C926 C907 1.368 . S
C926 C920 1.368 . S
C926 C925 1.523 . S
C927 C911 1.429 . S
C927 C923 1.429 . S
C927 C928 1.523 . S
C928 C912 1.368 . S
C928 C924 1.368 . S
C928 C927 1.523 . S
H929 C904 0.950 . S
H930 C906 0.950 . S
H931 C907 0.949 . S
H932 C909 0.950 . S
H933 C911 0.950 . S
C934 C935 1.349 . S
C934 C936 1.327 . S
C934 H959 0.950 . S
C935 C934 1.349 . S
C935 C951 1.349 . S
C936 C934 1.327 . S
C936 C955 1.429 . S
C936 H960 0.950 . S
C937 C954 1.574 . S
C937 C956 1.368 . S
C937 H961 0.949 . S
H938 C942 0.949 . S
C939 C940 1.349 . S
C939 C941 1.327 . S
C939 H962 0.950 . S
C940 C939 1.349 . S
C940 C952 1.349 . S
C941 C939 1.327 . S
C941 C957 1.429 . S
C941 H963 0.950 . S
C942 H938 0.949 . S
C942 C950 1.574 . S
C942 C958 1.368 . S
H943 C951 0.950 . S
H944 C949 0.950 . S
H945 C950 0.949 . S
H946 C952 0.950 . S
H947 C953 0.950 . S
H948 C954 0.949 . S
C949 H944 0.950 . S
C949 C951 1.327 . S
C949 C955 1.429 . S
C950 C942 1.574 . S
C950 H945 0.949 . S
C950 C956 1.368 . S
C951 C935 1.349 . S
C951 H943 0.950 . S
C951 C949 1.327 . S
C952 C940 1.349 . S
C952 H946 0.950 . S
C952 C953 1.327 . S
C953 H947 0.950 . S
C953 C952 1.327 . S
C953 C957 1.429 . S
C954 C937 1.574 . S
C954 H948 0.949 . S
C954 C958 1.368 . S
C955 C936 1.429 . S
C955 C949 1.429 . S
C955 C956 1.523 . S
C956 C937 1.368 . S
C956 C950 1.368 . S
C956 C955 1.523 . S
C957 C941 1.429 . S
C957 C953 1.429 . S
C957 C958 1.523 . S
C958 C942 1.368 . S
C958 C954 1.368 . S
C958 C957 1.523 . S
H959 C934 0.950 . S
H960 C936 0.950 . S
H961 C937 0.949 . S
H962 C939 0.950 . S
H963 C941 0.950 . S
C964 C965 1.349 . S
C964 C966 1.327 . S
C964 H989 0.950 . S
C965 C964 1.349 . S
C965 C981 1.349 . S
C966 C964 1.327 . S
C966 C985 1.429 . S
C966 H990 0.950 . S
C967 C984 1.574 . S
C967 C986 1.368 . S
C967 H991 0.949 . S
H968 C972 0.949 . S
C969 C970 1.349 . S
C969 C971 1.327 . S
C969 H992 0.950 . S
C970 C969 1.349 . S
C970 C982 1.349 . S
C971 C969 1.327 . S
C971 C987 1.429 . S
C971 H993 0.950 . S
C972 H968 0.949 . S
C972 C980 1.574 . S
C972 C988 1.368 . S
H973 C981 0.950 . S
H974 C979 0.950 . S
H975 C980 0.949 . S
H976 C982 0.950 . S
H977 C983 0.950 . S
H978 C984 0.949 . S
C979 H974 0.950 . S
C979 C981 1.327 . S
C979 C985 1.429 . S
C980 C972 1.574 . S
C980 H975 0.949 . S
C980 C986 1.368 . S
C981 C965 1.349 . S
C981 H973 0.950 . S
C981 C979 1.327 . S
C982 C970 1.349 . S
C982 H976 0.950 . S
C982 C983 1.327 . S
C983 H977 0.950 . S
C983 C982 1.327 . S
C983 C987 1.429 . S
C984 C967 1.574 . S
C984 H978 0.949 . S
C984 C988 1.368 . S
C985 C966 1.429 . S
C985 C979 1.429 . S
C985 C986 1.523 . S
C986 C967 1.368 . S
C986 C980 1.368 . S
C986 C985 1.523 . S
C987 C971 1.429 . S
C987 C983 1.429 . S
C987 C988 1.523 . S
C988 C972 1.368 . S
C988 C984 1.368 . S
C988 C987 1.523 . S
H989 C964 0.950 . S
H990 C966 0.950 . S
H991 C967 0.949 . S
H992 C969 0.950 . S
H993 C971 0.950 . S
C994 C995 1.349 . S
C994 C996 1.327 . S
C994 H1019 0.950 . S
C995 C994 1.349 . S
C995 C1011 1.349 . S
C996 C994 1.327 . S
C996 C1015 1.429 . S
C996 H1020 0.950 . S
C997 C1014 1.574 . S
C997 C1016 1.368 . S
C997 H1021 0.949 . S
H998 C1002 0.949 . S
C999 C1000 1.349 . S
C999 C1001 1.327 . S
C999 H1022 0.950 . S
C1000 C999 1.349 . S
C1000 C1012 1.349 . S
C1001 C999 1.327 . S
C1001 C1017 1.429 . S
C1001 H1023 0.950 . S
C1002 H998 0.949 . S
C1002 C1010 1.574 . S
C1002 C1018 1.368 . S
H1003 C1011 0.950 . S
H1004 C1009 0.950 . S
H1005 C1010 0.949 . S
H1006 C1012 0.950 . S
H1007 C1013 0.950 . S
H1008 C1014 0.949 . S
C1009 H1004 0.950 . S
C1009 C1011 1.327 . S
C1009 C1015 1.429 . S
C1010 C1002 1.574 . S
C1010 H1005 0.949 . S
C1010 C1016 1.368 . S
C1011 C995 1.349 . S
C1011 H1003 0.950 . S
C1011 C1009 1.327 . S
C1012 C1000 1.349 . S
C1012 H1006 0.950 . S
C1012 C1013 1.327 . S
C1013 H1007 0.950 . S
C1013 C1012 1.327 . S
C1013 C1017 1.429 . S
C1014 C997 1.574 . S
C1014 H1008 0.949 . S
C1014 C1018 1.368 . S
C1015 C996 1.429 . S
C1015 C1009 1.429 . S
C1015 C1016 1.523 . S
C1016 C997 1.368 . S
C1016 C1010 1.368 . S
C1016 C1015 1.523 . S
C1017 C1001 1.429 . S
C1017 C1013 1.429 . S
C1017 C1018 1.523 . S
C1018 C1002 1.368 . S
C1018 C1014 1.368 . S
C1018 C1017 1.523 . S
H1019 C994 0.950 . S
H1020 C996 0.950 . S
H1021 C997 0.949 . S
H1022 C999 0.950 . S
H1023 C1001 0.950 . S
C1024 C1025 1.349 . S
C1024 C1026 1.327 . S
C1024 H1049 0.950 . S
C1025 C1024 1.349 . S
C1025 C1041 1.349 . S
C1026 C1024 1.327 . S
C1026 C1045 1.429 . S
C1026 H1050 0.950 . S
C1027 C1044 1.574 . S
C1027 C1046 1.368 . S
C1027 H1051 0.949 . S
H1028 C1032 0.949 . S
C1029 C1030 1.349 . S
C1029 C1031 1.327 . S
C1029 H1052 0.950 . S
C1030 C1029 1.349 . S
C1030 C1042 1.349 . S
C1031 C1029 1.327 . S
C1031 C1047 1.429 . S
C1031 H1053 0.950 . S
C1032 H1028 0.949 . S
C1032 C1040 1.574 . S
C1032 C1048 1.368 . S
H1033 C1041 0.950 . S
H1034 C1039 0.950 . S
H1035 C1040 0.949 . S
H1036 C1042 0.950 . S
H1037 C1043 0.950 . S
H1038 C1044 0.949 . S
C1039 H1034 0.950 . S
C1039 C1041 1.327 . S
C1039 C1045 1.429 . S
C1040 C1032 1.574 . S
C1040 H1035 0.949 . S
C1040 C1046 1.368 . S
C1041 C1025 1.349 . S
C1041 H1033 0.950 . S
C1041 C1039 1.327 . S
C1042 C1030 1.349 . S
C1042 H1036 0.950 . S
C1042 C1043 1.327 . S
C1043 H1037 0.950 . S
C1043 C1042 1.327 . S
C1043 C1047 1.429 . S
C1044 C1027 1.574 . S
C1044 H1038 0.949 . S
C1044 C1048 1.368 . S
C1045 C1026 1.429 . S
C1045 C1039 1.429 . S
C1045 C1046 1.523 . S
C1046 C1027 1.368 . S
C1046 C1040 1.368 . S
C1046 C1045 1.523 . S
C1047 C1031 1.429 . S
C1047 C1043 1.429 . S
C1047 C1048 1.523 . S
C1048 C1032 1.368 . S
C1048 C1044 1.368 . S
C1048 C1047 1.523 . S
H1049 C1024 0.950 . S
H1050 C1026 0.950 . S
H1051 C1027 0.949 . S
H1052 C1029 0.950 . S
H1053 C1031 0.950 . S
C1054 C1055 1.349 . S
C1054 C1056 1.327 . S
C1054 H1079 0.950 . S
C1055 C1054 1.349 . S
C1055 C1071 1.349 . S
C1056 C1054 1.327 . S
C1056 C1075 1.429 . S
C1056 H1080 0.950 . S
C1057 C1074 1.574 . S
C1057 C1076 1.368 . S
C1057 H1081 0.949 . S
H1058 C1062 0.949 . S
C1059 C1060 1.349 . S
C1059 C1061 1.327 . S
C1059 H1082 0.950 . S
C1060 C1059 1.349 . S
C1060 C1072 1.349 . S
C1061 C1059 1.327 . S
C1061 C1077 1.429 . S
C1061 H1083 0.950 . S
C1062 H1058 0.949 . S
C1062 C1070 1.574 . S
C1062 C1078 1.368 . S
H1063 C1071 0.950 . S
H1064 C1069 0.950 . S
H1065 C1070 0.949 . S
H1066 C1072 0.950 . S
H1067 C1073 0.950 . S
H1068 C1074 0.949 . S
C1069 H1064 0.950 . S
C1069 C1071 1.327 . S
C1069 C1075 1.429 . S
C1070 C1062 1.574 . S
C1070 H1065 0.949 . S
C1070 C1076 1.368 . S
C1071 C1055 1.349 . S
C1071 H1063 0.950 . S
C1071 C1069 1.327 . S
C1072 C1060 1.349 . S
C1072 H1066 0.950 . S
C1072 C1073 1.327 . S
C1073 H1067 0.950 . S
C1073 C1072 1.327 . S
C1073 C1077 1.429 . S
C1074 C1057 1.574 . S
C1074 H1068 0.949 . S
C1074 C1078 1.368 . S
C1075 C1056 1.429 . S
C1075 C1069 1.429 . S
C1075 C1076 1.523 . S
C1076 C1057 1.368 . S
C1076 C1070 1.368 . S
C1076 C1075 1.523 . S
C1077 C1061 1.429 . S
C1077 C1073 1.429 . S
C1077 C1078 1.523 . S
C1078 C1062 1.368 . S
C1078 C1074 1.368 . S
C1078 C1077 1.523 . S
H1079 C1054 0.950 . S
H1080 C1056 0.950 . S
H1081 C1057 0.949 . S
H1082 C1059 0.950 . S
H1083 C1061 0.950 . S
C1084 C1085 1.349 . S
C1084 C1086 1.327 . S
C1084 H1109 0.950 . S
C1085 C1084 1.349 . S
C1085 C1101 1.349 . S
C1086 C1084 1.327 . S
C1086 C1105 1.429 . S
C1086 H1110 0.950 . S
C1087 C1104 1.574 . S
C1087 C1106 1.368 . S
C1087 H1111 0.949 . S
H1088 C1092 0.949 . S
C1089 C1090 1.349 . S
C1089 C1091 1.327 . S
C1089 H1112 0.950 . S
C1090 C1089 1.349 . S
C1090 C1102 1.349 . S
C1091 C1089 1.327 . S
C1091 C1107 1.429 . S
C1091 H1113 0.950 . S
C1092 H1088 0.949 . S
C1092 C1100 1.574 . S
C1092 C1108 1.368 . S
H1093 C1101 0.950 . S
H1094 C1099 0.950 . S
H1095 C1100 0.949 . S
H1096 C1102 0.950 . S
H1097 C1103 0.950 . S
H1098 C1104 0.949 . S
C1099 H1094 0.950 . S
C1099 C1101 1.327 . S
C1099 C1105 1.429 . S
C1100 C1092 1.574 . S
C1100 H1095 0.949 . S
C1100 C1106 1.368 . S
C1101 C1085 1.349 . S
C1101 H1093 0.950 . S
C1101 C1099 1.327 . S
C1102 C1090 1.349 . S
C1102 H1096 0.950 . S
C1102 C1103 1.327 . S
C1103 H1097 0.950 . S
C1103 C1102 1.327 . S
C1103 C1107 1.429 . S
C1104 C1087 1.574 . S
C1104 H1098 0.949 . S
C1104 C1108 1.368 . S
C1105 C1086 1.429 . S
C1105 C1099 1.429 . S
C1105 C1106 1.523 . S
C1106 C1087 1.368 . S
C1106 C1100 1.368 . S
C1106 C1105 1.523 . S
C1107 C1091 1.429 . S
C1107 C1103 1.429 . S
C1107 C1108 1.523 . S
C1108 C1092 1.368 . S
C1108 C1104 1.368 . S
C1108 C1107 1.523 . S
H1109 C1084 0.950 . S
H1110 C1086 0.950 . S
H1111 C1087 0.949 . S
H1112 C1089 0.950 . S
H1113 C1091 0.950 . S
C1114 C1115 1.349 . S
C1114 C1116 1.327 . S
C1114 H1139 0.950 . S
C1115 C1114 1.349 . S
C1115 C1131 1.349 . S
C1116 C1114 1.327 . S
C1116 C1135 1.429 . S
C1116 H1140 0.950 . S
C1117 C1134 1.574 . S
C1117 C1136 1.368 . S
C1117 H1141 0.949 . S
H1118 C1122 0.949 . S
C1119 C1120 1.349 . S
C1119 C1121 1.327 . S
C1119 H1142 0.950 . S
C1120 C1119 1.349 . S
C1120 C1132 1.349 . S
C1121 C1119 1.327 . S
C1121 C1137 1.429 . S
C1121 H1143 0.950 . S
C1122 H1118 0.949 . S
C1122 C1130 1.574 . S
C1122 C1138 1.368 . S
H1123 C1131 0.950 . S
H1124 C1129 0.950 . S
H1125 C1130 0.949 . S
H1126 C1132 0.950 . S
H1127 C1133 0.950 . S
H1128 C1134 0.949 . S
C1129 H1124 0.950 . S
C1129 C1131 1.327 . S
C1129 C1135 1.429 . S
C1130 C1122 1.574 . S
C1130 H1125 0.949 . S
C1130 C1136 1.368 . S
C1131 C1115 1.349 . S
C1131 H1123 0.950 . S
C1131 C1129 1.327 . S
C1132 C1120 1.349 . S
C1132 H1126 0.950 . S
C1132 C1133 1.327 . S
C1133 H1127 0.950 . S
C1133 C1132 1.327 . S
C1133 C1137 1.429 . S
C1134 C1117 1.574 . S
C1134 H1128 0.949 . S
C1134 C1138 1.368 . S
C1135 C1116 1.429 . S
C1135 C1129 1.429 . S
C1135 C1136 1.523 . S
C1136 C1117 1.368 . S
C1136 C1130 1.368 . S
C1136 C1135 1.523 . S
C1137 C1121 1.429 . S
C1137 C1133 1.429 . S
C1137 C1138 1.523 . S
C1138 C1122 1.368 . S
C1138 C1134 1.368 . S
C1138 C1137 1.523 . S
H1139 C1114 0.950 . S
H1140 C1116 0.950 . S
H1141 C1117 0.949 . S
H1142 C1119 0.950 . S
H1143 C1121 0.950 . S
C1144 C1145 1.349 . S
C1144 C1146 1.327 . S
C1144 H1169 0.950 . S
C1145 C1144 1.349 . S
C1145 C1161 1.349 . S
C1146 C1144 1.327 . S
C1146 C1165 1.429 . S
C1146 H1170 0.950 . S
C1147 C1164 1.574 . S
C1147 C1166 1.368 . S
C1147 H1171 0.949 . S
H1148 C1152 0.949 . S
C1149 C1150 1.349 . S
C1149 C1151 1.327 . S
C1149 H1172 0.950 . S
C1150 C1149 1.349 . S
C1150 C1162 1.349 . S
C1151 C1149 1.327 . S
C1151 C1167 1.429 . S
C1151 H1173 0.950 . S
C1152 H1148 0.949 . S
C1152 C1160 1.574 . S
C1152 C1168 1.368 . S
H1153 C1161 0.950 . S
H1154 C1159 0.950 . S
H1155 C1160 0.949 . S
H1156 C1162 0.950 . S
H1157 C1163 0.950 . S
H1158 C1164 0.949 . S
C1159 H1154 0.950 . S
C1159 C1161 1.327 . S
C1159 C1165 1.429 . S
C1160 C1152 1.574 . S
C1160 H1155 0.949 . S
C1160 C1166 1.368 . S
C1161 C1145 1.349 . S
C1161 H1153 0.950 . S
C1161 C1159 1.327 . S
C1162 C1150 1.349 . S
C1162 H1156 0.950 . S
C1162 C1163 1.327 . S
C1163 H1157 0.950 . S
C1163 C1162 1.327 . S
C1163 C1167 1.429 . S
C1164 C1147 1.574 . S
C1164 H1158 0.949 . S
C1164 C1168 1.368 . S
C1165 C1146 1.429 . S
C1165 C1159 1.429 . S
C1165 C1166 1.523 . S
C1166 C1147 1.368 . S
C1166 C1160 1.368 . S
C1166 C1165 1.523 . S
C1167 C1151 1.429 . S
C1167 C1163 1.429 . S
C1167 C1168 1.523 . S
C1168 C1152 1.368 . S
C1168 C1164 1.368 . S
C1168 C1167 1.523 . S
H1169 C1144 0.950 . S
H1170 C1146 0.950 . S
H1171 C1147 0.949 . S
H1172 C1149 0.950 . S
H1173 C1151 0.950 . S
C1174 C1175 1.349 . S
C1174 C1176 1.327 . S
C1174 H1199 0.950 . S
C1175 C1174 1.349 . S
C1175 C1191 1.349 . S
C1176 C1174 1.327 . S
C1176 C1195 1.429 . S
C1176 H1200 0.950 . S
C1177 C1194 1.574 . S
C1177 C1196 1.368 . S
C1177 H1201 0.949 . S
H1178 C1182 0.949 . S
C1179 C1180 1.349 . S
C1179 C1181 1.327 . S
C1179 H1202 0.950 . S
C1180 C1179 1.349 . S
C1180 C1192 1.349 . S
C1181 C1179 1.327 . S
C1181 C1197 1.429 . S
C1181 H1203 0.950 . S
C1182 H1178 0.949 . S
C1182 C1190 1.574 . S
C1182 C1198 1.368 . S
H1183 C1191 0.950 . S
H1184 C1189 0.950 . S
H1185 C1190 0.949 . S
H1186 C1192 0.950 . S
H1187 C1193 0.950 . S
H1188 C1194 0.949 . S
C1189 H1184 0.950 . S
C1189 C1191 1.327 . S
C1189 C1195 1.429 . S
C1190 C1182 1.574 . S
C1190 H1185 0.949 . S
C1190 C1196 1.368 . S
C1191 C1175 1.349 . S
C1191 H1183 0.950 . S
C1191 C1189 1.327 . S
C1192 C1180 1.349 . S
C1192 H1186 0.950 . S
C1192 C1193 1.327 . S
C1193 H1187 0.950 . S
C1193 C1192 1.327 . S
C1193 C1197 1.429 . S
C1194 C1177 1.574 . S
C1194 H1188 0.949 . S
C1194 C1198 1.368 . S
C1195 C1176 1.429 . S
C1195 C1189 1.429 . S
C1195 C1196 1.523 . S
C1196 C1177 1.368 . S
C1196 C1190 1.368 . S
C1196 C1195 1.523 . S
C1197 C1181 1.429 . S
C1197 C1193 1.429 . S
C1197 C1198 1.523 . S
C1198 C1182 1.368 . S
C1198 C1194 1.368 . S
C1198 C1197 1.523 . S
H1199 C1174 0.950 . S
H1200 C1176 0.950 . S
H1201 C1177 0.949 . S
H1202 C1179 0.950 . S
H1203 C1181 0.950 . S
C1204 C1205 1.349 . S
C1204 C1206 1.327 . S
C1204 H1229 0.950 . S
C1205 C1204 1.349 . S
C1205 C1221 1.349 . S
C1206 C1204 1.327 . S
C1206 C1225 1.429 . S
C1206 H1230 0.950 . S
C1207 C1224 1.574 . S
C1207 C1226 1.368 . S
C1207 H1231 0.949 . S
H1208 C1212 0.949 . S
C1209 C1210 1.349 . S
C1209 C1211 1.327 . S
C1209 H1232 0.950 . S
C1210 C1209 1.349 . S
C1210 C1222 1.349 . S
C1211 C1209 1.327 . S
C1211 C1227 1.429 . S
C1211 H1233 0.950 . S
C1212 H1208 0.949 . S
C1212 C1220 1.574 . S
C1212 C1228 1.368 . S
H1213 C1221 0.950 . S
H1214 C1219 0.950 . S
H1215 C1220 0.949 . S
H1216 C1222 0.950 . S
H1217 C1223 0.950 . S
H1218 C1224 0.949 . S
C1219 H1214 0.950 . S
C1219 C1221 1.327 . S
C1219 C1225 1.429 . S
C1220 C1212 1.574 . S
C1220 H1215 0.949 . S
C1220 C1226 1.368 . S
C1221 C1205 1.349 . S
C1221 H1213 0.950 . S
C1221 C1219 1.327 . S
C1222 C1210 1.349 . S
C1222 H1216 0.950 . S
C1222 C1223 1.327 . S
C1223 H1217 0.950 . S
C1223 C1222 1.327 . S
C1223 C1227 1.429 . S
C1224 C1207 1.574 . S
C1224 H1218 0.949 . S
C1224 C1228 1.368 . S
C1225 C1206 1.429 . S
C1225 C1219 1.429 . S
C1225 C1226 1.523 . S
C1226 C1207 1.368 . S
C1226 C1220 1.368 . S
C1226 C1225 1.523 . S
C1227 C1211 1.429 . S
C1227 C1223 1.429 . S
C1227 C1228 1.523 . S
C1228 C1212 1.368 . S
C1228 C1224 1.368 . S
C1228 C1227 1.523 . S
H1229 C1204 0.950 . S
H1230 C1206 0.950 . S
H1231 C1207 0.949 . S
H1232 C1209 0.950 . S
H1233 C1211 0.950 . S
C1234 C1235 1.349 . S
C1234 C1236 1.327 . S
C1234 H1259 0.950 . S
C1235 C1234 1.349 . S
C1235 C1251 1.349 . S
C1236 C1234 1.327 . S
C1236 C1255 1.429 . S
C1236 H1260 0.950 . S
C1237 C1254 1.574 . S
C1237 C1256 1.368 . S
C1237 H1261 0.949 . S
H1238 C1242 0.949 . S
C1239 C1240 1.349 . S
C1239 C1241 1.327 . S
C1239 H1262 0.950 . S
C1240 C1239 1.349 . S
C1240 C1252 1.349 . S
C1241 C1239 1.327 . S
C1241 C1257 1.429 . S
C1241 H1263 0.950 . S
C1242 H1238 0.949 . S
C1242 C1250 1.574 . S
C1242 C1258 1.368 . S
H1243 C1251 0.950 . S
H1244 C1249 0.950 . S
H1245 C1250 0.949 . S
H1246 C1252 0.950 . S
H1247 C1253 0.950 . S
H1248 C1254 0.949 . S
C1249 H1244 0.950 . S
C1249 C1251 1.327 . S
C1249 C1255 1.429 . S
C1250 C1242 1.574 . S
C1250 H1245 0.949 . S
C1250 C1256 1.368 . S
C1251 C1235 1.349 . S
C1251 H1243 0.950 . S
C1251 C1249 1.327 . S
C1252 C1240 1.349 . S
C1252 H1246 0.950 . S
C1252 C1253 1.327 . S
C1253 H1247 0.950 . S
C1253 C1252 1.327 . S
C1253 C1257 1.429 . S
C1254 C1237 1.574 . S
C1254 H1248 0.949 . S
C1254 C1258 1.368 . S
C1255 C1236 1.429 . S
C1255 C1249 1.429 . S
C1255 C1256 1.523 . S
C1256 C1237 1.368 . S
C1256 C1250 1.368 . S
C1256 C1255 1.523 . S
C1257 C1241 1.429 . S
C1257 C1253 1.429 . S
C1257 C1258 1.523 . S
C1258 C1242 1.368 . S
C1258 C1254 1.368 . S
C1258 C1257 1.523 . S
H1259 C1234 0.950 . S
H1260 C1236 0.950 . S
H1261 C1237 0.949 . S
H1262 C1239 0.950 . S
H1263 C1241 0.950 . S
C1264 C1265 1.349 . S
C1264 C1266 1.327 . S
C1264 H1289 0.950 . S
C1265 C1264 1.349 . S
C1265 C1281 1.349 . S
C1266 C1264 1.327 . S
C1266 C1285 1.429 . S
C1266 H1290 0.950 . S
C1267 C1284 1.574 . S
C1267 C1286 1.368 . S
C1267 H1291 0.949 . S
H1268 C1272 0.949 . S
C1269 C1270 1.349 . S
C1269 C1271 1.327 . S
C1269 H1292 0.950 . S
C1270 C1269 1.349 . S
C1270 C1282 1.349 . S
C1271 C1269 1.327 . S
C1271 C1287 1.429 . S
C1271 H1293 0.950 . S
C1272 H1268 0.949 . S
C1272 C1280 1.574 . S
C1272 C1288 1.368 . S
H1273 C1281 0.950 . S
H1274 C1279 0.950 . S
H1275 C1280 0.949 . S
H1276 C1282 0.950 . S
H1277 C1283 0.950 . S
H1278 C1284 0.949 . S
C1279 H1274 0.950 . S
C1279 C1281 1.327 . S
C1279 C1285 1.429 . S
C1280 C1272 1.574 . S
C1280 H1275 0.949 . S
C1280 C1286 1.368 . S
C1281 C1265 1.349 . S
C1281 H1273 0.950 . S
C1281 C1279 1.327 . S
C1282 C1270 1.349 . S
C1282 H1276 0.950 . S
C1282 C1283 1.327 . S
C1283 H1277 0.950 . S
C1283 C1282 1.327 . S
C1283 C1287 1.429 . S
C1284 C1267 1.574 . S
C1284 H1278 0.949 . S
C1284 C1288 1.368 . S
C1285 C1266 1.429 . S
C1285 C1279 1.429 . S
C1285 C1286 1.523 . S
C1286 C1267 1.368 . S
C1286 C1280 1.368 . S
C1286 C1285 1.523 . S
C1287 C1271 1.429 . S
C1287 C1283 1.429 . S
C1287 C1288 1.523 . S
C1288 C1272 1.368 . S
C1288 C1284 1.368 . S
C1288 C1287 1.523 . S
H1289 C1264 0.950 . S
H1290 C1266 0.950 . S
H1291 C1267 0.949 . S
H1292 C1269 0.950 . S
H1293 C1271 0.950 . S
C1294 C1295 1.349 . S
C1294 C1296 1.327 . S
C1294 H1319 0.950 . S
C1295 C1294 1.349 . S
C1295 C1311 1.349 . S
C1296 C1294 1.327 . S
C1296 C1315 1.429 . S
C1296 H1320 0.950 . S
C1297 C1314 1.574 . S
C1297 C1316 1.368 . S
C1297 H1321 0.949 . S
H1298 C1302 0.949 . S
C1299 C1300 1.349 . S
C1299 C1301 1.327 . S
C1299 H1322 0.950 . S
C1300 C1299 1.349 . S
C1300 C1312 1.349 . S
C1301 C1299 1.327 . S
C1301 C1317 1.429 . S
C1301 H1323 0.950 . S
C1302 H1298 0.949 . S
C1302 C1310 1.574 . S
C1302 C1318 1.368 . S
H1303 C1311 0.950 . S
H1304 C1309 0.950 . S
H1305 C1310 0.949 . S
H1306 C1312 0.950 . S
H1307 C1313 0.950 . S
H1308 C1314 0.949 . S
C1309 H1304 0.950 . S
C1309 C1311 1.327 . S
C1309 C1315 1.429 . S
C1310 C1302 1.574 . S
C1310 H1305 0.949 . S
C1310 C1316 1.368 . S
C1311 C1295 1.349 . S
C1311 H1303 0.950 . S
C1311 C1309 1.327 . S
C1312 C1300 1.349 . S
C1312 H1306 0.950 . S
C1312 C1313 1.327 . S
C1313 H1307 0.950 . S
C1313 C1312 1.327 . S
C1313 C1317 1.429 . S
C1314 C1297 1.574 . S
C1314 H1308 0.949 . S
C1314 C1318 1.368 . S
C1315 C1296 1.429 . S
C1315 C1309 1.429 . S
C1315 C1316 1.523 . S
C1316 C1297 1.368 . S
C1316 C1310 1.368 . S
C1316 C1315 1.523 . S
C1317 C1301 1.429 . S
C1317 C1313 1.429 . S
C1317 C1318 1.523 . S
C1318 C1302 1.368 . S
C1318 C1314 1.368 . S
C1318 C1317 1.523 . S
H1319 C1294 0.950 . S
H1320 C1296 0.950 . S
H1321 C1297 0.949 . S
H1322 C1299 0.950 . S
H1323 C1301 0.950 . S
C1324 C1325 1.349 . S
C1324 C1326 1.327 . S
C1324 H1349 0.950 . S
C1325 C1324 1.349 . S
C1325 C1341 1.349 . S
C1326 C1324 1.327 . S
C1326 C1345 1.429 . S
C1326 H1350 0.950 . S
C1327 C1344 1.574 . S
C1327 C1346 1.368 . S
C1327 H1351 0.949 . S
H1328 C1332 0.949 . S
C1329 C1330 1.349 . S
C1329 C1331 1.327 . S
C1329 H1352 0.950 . S
C1330 C1329 1.349 . S
C1330 C1342 1.349 . S
C1331 C1329 1.327 . S
C1331 C1347 1.429 . S
C1331 H1353 0.950 . S
C1332 H1328 0.949 . S
C1332 C1340 1.574 . S
C1332 C1348 1.368 . S
H1333 C1341 0.950 . S
H1334 C1339 0.950 . S
H1335 C1340 0.949 . S
H1336 C1342 0.950 . S
H1337 C1343 0.950 . S
H1338 C1344 0.949 . S
C1339 H1334 0.950 . S
C1339 C1341 1.327 . S
C1339 C1345 1.429 . S
C1340 C1332 1.574 . S
C1340 H1335 0.949 . S
C1340 C1346 1.368 . S
C1341 C1325 1.349 . S
C1341 H1333 0.950 . S
C1341 C1339 1.327 . S
C1342 C1330 1.349 . S
C1342 H1336 0.950 . S
C1342 C1343 1.327 . S
C1343 H1337 0.950 . S
C1343 C1342 1.327 . S
C1343 C1347 1.429 . S
C1344 C1327 1.574 . S
C1344 H1338 0.949 . S
C1344 C1348 1.368 . S
C1345 C1326 1.429 . S
C1345 C1339 1.429 . S
C1345 C1346 1.523 . S
C1346 C1327 1.368 . S
C1346 C1340 1.368 . S
C1346 C1345 1.523 . S
C1347 C1331 1.429 . S
C1347 C1343 1.429 . S
C1347 C1348 1.523 . S
C1348 C1332 1.368 . S
C1348 C1344 1.368 . S
C1348 C1347 1.523 . S
H1349 C1324 0.950 . S
H1350 C1326 0.950 . S
H1351 C1327 0.949 . S
H1352 C1329 0.950 . S
H1353 C1331 0.950 . S
C1354 C1355 1.349 . S
C1354 C1356 1.327 . S
C1354 H1379 0.950 . S
C1355 C1354 1.349 . S
C1355 C1371 1.349 . S
C1356 C1354 1.327 . S
C1356 C1375 1.429 . S
C1356 H1380 0.950 . S
C1357 C1374 1.574 . S
C1357 C1376 1.368 . S
C1357 H1381 0.949 . S
H1358 C1362 0.949 . S
C1359 C1360 1.349 . S
C1359 C1361 1.327 . S
C1359 H1382 0.950 . S
C1360 C1359 1.349 . S
C1360 C1372 1.349 . S
C1361 C1359 1.327 . S
C1361 C1377 1.429 . S
C1361 H1383 0.950 . S
C1362 H1358 0.949 . S
C1362 C1370 1.574 . S
C1362 C1378 1.368 . S
H1363 C1371 0.950 . S
H1364 C1369 0.950 . S
H1365 C1370 0.949 . S
H1366 C1372 0.950 . S
H1367 C1373 0.950 . S
H1368 C1374 0.949 . S
C1369 H1364 0.950 . S
C1369 C1371 1.327 . S
C1369 C1375 1.429 . S
C1370 C1362 1.574 . S
C1370 H1365 0.949 . S
C1370 C1376 1.368 . S
C1371 C1355 1.349 . S
C1371 H1363 0.950 . S
C1371 C1369 1.327 . S
C1372 C1360 1.349 . S
C1372 H1366 0.950 . S
C1372 C1373 1.327 . S
C1373 H1367 0.950 . S
C1373 C1372 1.327 . S
C1373 C1377 1.429 . S
C1374 C1357 1.574 . S
C1374 H1368 0.949 . S
C1374 C1378 1.368 . S
C1375 C1356 1.429 . S
C1375 C1369 1.429 . S
C1375 C1376 1.523 . S
C1376 C1357 1.368 . S
C1376 C1370 1.368 . S
C1376 C1375 1.523 . S
C1377 C1361 1.429 . S
C1377 C1373 1.429 . S
C1377 C1378 1.523 . S
C1378 C1362 1.368 . S
C1378 C1374 1.368 . S
C1378 C1377 1.523 . S
H1379 C1354 0.950 . S
H1380 C1356 0.950 . S
H1381 C1357 0.949 . S
H1382 C1359 0.950 . S
H1383 C1361 0.950 . S
C1384 C1385 1.349 . S
C1384 C1386 1.327 . S
C1384 H1409 0.950 1_565 S
C1385 C1384 1.349 . S
C1385 C1401 1.349 . S
C1386 C1384 1.327 . S
C1386 C1405 1.429 . S
C1386 H1410 0.950 . S
C1387 C1404 1.574 . S
C1387 C1406 1.368 . S
C1387 H1411 0.949 . S
H1388 C1392 0.949 . S
C1389 C1390 1.349 . S
C1389 C1391 1.327 . S
C1389 H1412 0.950 . S
C1390 C1389 1.349 . S
C1390 C1402 1.349 . S
C1391 C1389 1.327 . S
C1391 C1407 1.429 . S
C1391 H1413 0.950 . S
C1392 H1388 0.949 . S
C1392 C1400 1.574 . S
C1392 C1408 1.368 . S
H1393 C1401 0.950 . S
H1394 C1399 0.950 . S
H1395 C1400 0.949 . S
H1396 C1402 0.950 . S
H1397 C1403 0.950 . S
H1398 C1404 0.949 . S
C1399 H1394 0.950 . S
C1399 C1401 1.327 . S
C1399 C1405 1.429 . S
C1400 C1392 1.574 . S
C1400 H1395 0.949 . S
C1400 C1406 1.368 . S
C1401 C1385 1.349 . S
C1401 H1393 0.950 . S
C1401 C1399 1.327 . S
C1402 C1390 1.349 . S
C1402 H1396 0.950 . S
C1402 C1403 1.327 . S
C1403 H1397 0.950 . S
C1403 C1402 1.327 . S
C1403 C1407 1.429 . S
C1404 C1387 1.574 . S
C1404 H1398 0.949 . S
C1404 C1408 1.368 . S
C1405 C1386 1.429 . S
C1405 C1399 1.429 . S
C1405 C1406 1.523 . S
C1406 C1387 1.368 . S
C1406 C1400 1.368 . S
C1406 C1405 1.523 . S
C1407 C1391 1.429 . S
C1407 C1403 1.429 . S
C1407 C1408 1.523 . S
C1408 C1392 1.368 . S
C1408 C1404 1.368 . S
C1408 C1407 1.523 . S
H1409 C1384 0.950 1_545 S
H1410 C1386 0.950 . S
H1411 C1387 0.949 . S
H1412 C1389 0.950 . S
H1413 C1391 0.950 . S
C1414 C1415 1.349 . S
C1414 C1416 1.327 . S
C1414 H1439 0.950 . S
C1415 C1414 1.349 . S
C1415 C1431 1.349 . S
C1416 C1414 1.327 . S
C1416 C1435 1.429 . S
C1416 H1440 0.950 . S
C1417 C1434 1.574 . S
C1417 C1436 1.368 . S
C1417 H1441 0.949 . S
H1418 C1422 0.949 . S
C1419 C1420 1.349 . S
C1419 C1421 1.327 . S
C1419 H1442 0.950 . S
C1420 C1419 1.349 . S
C1420 C1432 1.349 . S
C1421 C1419 1.327 . S
C1421 C1437 1.429 . S
C1421 H1443 0.950 . S
C1422 H1418 0.949 . S
C1422 C1430 1.574 . S
C1422 C1438 1.368 . S
H1423 C1431 0.950 . S
H1424 C1429 0.950 . S
H1425 C1430 0.949 . S
H1426 C1432 0.950 . S
H1427 C1433 0.950 . S
H1428 C1434 0.949 . S
C1429 H1424 0.950 . S
C1429 C1431 1.327 . S
C1429 C1435 1.429 . S
C1430 C1422 1.574 . S
C1430 H1425 0.949 . S
C1430 C1436 1.368 . S
C1431 C1415 1.349 . S
C1431 H1423 0.950 . S
C1431 C1429 1.327 . S
C1432 C1420 1.349 . S
C1432 H1426 0.950 . S
C1432 C1433 1.327 . S
C1433 H1427 0.950 . S
C1433 C1432 1.327 . S
C1433 C1437 1.429 . S
C1434 C1417 1.574 . S
C1434 H1428 0.949 . S
C1434 C1438 1.368 . S
C1435 C1416 1.429 . S
C1435 C1429 1.429 . S
C1435 C1436 1.523 . S
C1436 C1417 1.368 . S
C1436 C1430 1.368 . S
C1436 C1435 1.523 . S
C1437 C1421 1.429 . S
C1437 C1433 1.429 . S
C1437 C1438 1.523 . S
C1438 C1422 1.368 . S
C1438 C1434 1.368 . S
C1438 C1437 1.523 . S
H1439 C1414 0.950 . S
H1440 C1416 0.950 . S
H1441 C1417 0.949 . S
H1442 C1419 0.950 . S
H1443 C1421 0.950 . S
C1444 C1445 1.349 . S
C1444 C1446 1.327 . S
C1444 H1469 0.950 . S
C1445 C1444 1.349 . S
C1445 C1461 1.349 . S
C1446 C1444 1.327 . S
C1446 C1465 1.429 . S
C1446 H1470 0.950 . S
C1447 C1464 1.574 . S
C1447 C1466 1.368 . S
C1447 H1471 0.949 . S
H1448 C1452 0.949 . S
C1449 C1450 1.349 . S
C1449 C1451 1.327 . S
C1449 H1472 0.950 . S
C1450 C1449 1.349 . S
C1450 C1462 1.349 . S
C1451 C1449 1.327 . S
C1451 C1467 1.429 . S
C1451 H1473 0.950 . S
C1452 H1448 0.949 . S
C1452 C1460 1.574 . S
C1452 C1468 1.368 . S
H1453 C1461 0.950 . S
H1454 C1459 0.950 . S
H1455 C1460 0.949 . S
H1456 C1462 0.950 . S
H1457 C1463 0.950 . S
H1458 C1464 0.949 . S
C1459 H1454 0.950 . S
C1459 C1461 1.327 . S
C1459 C1465 1.429 . S
C1460 C1452 1.574 . S
C1460 H1455 0.949 . S
C1460 C1466 1.368 . S
C1461 C1445 1.349 . S
C1461 H1453 0.950 . S
C1461 C1459 1.327 . S
C1462 C1450 1.349 . S
C1462 H1456 0.950 . S
C1462 C1463 1.327 . S
C1463 H1457 0.950 . S
C1463 C1462 1.327 . S
C1463 C1467 1.429 . S
C1464 C1447 1.574 . S
C1464 H1458 0.949 . S
C1464 C1468 1.368 . S
C1465 C1446 1.429 . S
C1465 C1459 1.429 . S
C1465 C1466 1.523 . S
C1466 C1447 1.368 . S
C1466 C1460 1.368 . S
C1466 C1465 1.523 . S
C1467 C1451 1.429 . S
C1467 C1463 1.429 . S
C1467 C1468 1.523 . S
C1468 C1452 1.368 . S
C1468 C1464 1.368 . S
C1468 C1467 1.523 . S
H1469 C1444 0.950 . S
H1470 C1446 0.950 . S
H1471 C1447 0.949 . S
H1472 C1449 0.950 . S
H1473 C1451 0.950 . S
C1474 C1475 1.349 . S
C1474 C1476 1.327 . S
C1474 H1499 0.950 . S
C1475 C1474 1.349 . S
C1475 C1491 1.349 . S
C1476 C1474 1.327 . S
C1476 C1495 1.429 . S
C1476 H1500 0.950 . S
C1477 C1494 1.574 . S
C1477 C1496 1.368 . S
C1477 H1501 0.949 . S
H1478 C1482 0.949 . S
C1479 C1480 1.349 . S
C1479 C1481 1.327 . S
C1479 H1502 0.950 . S
C1480 C1479 1.349 . S
C1480 C1492 1.349 . S
C1481 C1479 1.327 . S
C1481 C1497 1.429 . S
C1481 H1503 0.950 . S
C1482 H1478 0.949 . S
C1482 C1490 1.574 . S
C1482 C1498 1.368 . S
H1483 C1491 0.950 . S
H1484 C1489 0.950 . S
H1485 C1490 0.949 . S
H1486 C1492 0.950 . S
H1487 C1493 0.950 . S
H1488 C1494 0.949 . S
C1489 H1484 0.950 . S
C1489 C1491 1.327 . S
C1489 C1495 1.429 . S
C1490 C1482 1.574 . S
C1490 H1485 0.949 . S
C1490 C1496 1.368 . S
C1491 C1475 1.349 . S
C1491 H1483 0.950 . S
C1491 C1489 1.327 . S
C1492 C1480 1.349 . S
C1492 H1486 0.950 . S
C1492 C1493 1.327 . S
C1493 H1487 0.950 . S
C1493 C1492 1.327 . S
C1493 C1497 1.429 . S
C1494 C1477 1.574 . S
C1494 H1488 0.949 . S
C1494 C1498 1.368 . S
C1495 C1476 1.429 . S
C1495 C1489 1.429 . S
C1495 C1496 1.523 . S
C1496 C1477 1.368 . S
C1496 C1490 1.368 . S
C1496 C1495 1.523 . S
C1497 C1481 1.429 . S
C1497 C1493 1.429 . S
C1497 C1498 1.523 . S
C1498 C1482 1.368 . S
C1498 C1494 1.368 . S
C1498 C1497 1.523 . S
H1499 C1474 0.950 . S
H1500 C1476 0.950 . S
H1501 C1477 0.949 . S
H1502 C1479 0.950 . S
H1503 C1481 0.950 . S
C1504 C1505 1.349 . S
C1504 C1506 1.327 . S
C1504 H1529 0.950 . S
C1505 C1504 1.349 . S
C1505 C1521 1.349 . S
C1506 C1504 1.327 . S
C1506 C1525 1.429 . S
C1506 H1530 0.950 . S
C1507 C1524 1.574 . S
C1507 C1526 1.368 . S
C1507 H1531 0.949 . S
H1508 C1512 0.949 . S
C1509 C1510 1.349 . S
C1509 C1511 1.327 . S
C1509 H1532 0.950 . S
C1510 C1509 1.349 . S
C1510 C1522 1.349 . S
C1511 C1509 1.327 . S
C1511 C1527 1.429 . S
C1511 H1533 0.950 . S
C1512 H1508 0.949 . S
C1512 C1520 1.574 . S
C1512 C1528 1.368 . S
H1513 C1521 0.950 . S
H1514 C1519 0.950 . S
H1515 C1520 0.949 . S
H1516 C1522 0.950 . S
H1517 C1523 0.950 . S
H1518 C1524 0.949 . S
C1519 H1514 0.950 . S
C1519 C1521 1.327 . S
C1519 C1525 1.429 . S
C1520 C1512 1.574 . S
C1520 H1515 0.949 . S
C1520 C1526 1.368 . S
C1521 C1505 1.349 . S
C1521 H1513 0.950 . S
C1521 C1519 1.327 . S
C1522 C1510 1.349 . S
C1522 H1516 0.950 . S
C1522 C1523 1.327 . S
C1523 H1517 0.950 . S
C1523 C1522 1.327 . S
C1523 C1527 1.429 . S
C1524 C1507 1.574 . S
C1524 H1518 0.949 . S
C1524 C1528 1.368 . S
C1525 C1506 1.429 . S
C1525 C1519 1.429 . S
C1525 C1526 1.523 . S
C1526 C1507 1.368 . S
C1526 C1520 1.368 . S
C1526 C1525 1.523 . S
C1527 C1511 1.429 . S
C1527 C1523 1.429 . S
C1527 C1528 1.523 . S
C1528 C1512 1.368 . S
C1528 C1524 1.368 . S
C1528 C1527 1.523 . S
H1529 C1504 0.950 . S
H1530 C1506 0.950 . S
H1531 C1507 0.949 . S
H1532 C1509 0.950 . S
H1533 C1511 0.950 . S
C1534 C1535 1.349 . S
C1534 C1536 1.327 . S
C1534 H1559 0.950 . S
C1535 C1534 1.349 . S
C1535 C1551 1.349 . S
C1536 C1534 1.327 . S
C1536 C1555 1.429 . S
C1536 H1560 0.950 . S
C1537 C1554 1.574 . S
C1537 C1556 1.368 . S
C1537 H1561 0.949 . S
H1538 C1542 0.949 . S
C1539 C1540 1.349 . S
C1539 C1541 1.327 . S
C1539 H1562 0.950 . S
C1540 C1539 1.349 . S
C1540 C1552 1.349 . S
C1541 C1539 1.327 . S
C1541 C1557 1.429 . S
C1541 H1563 0.950 . S
C1542 H1538 0.949 . S
C1542 C1550 1.574 . S
C1542 C1558 1.368 . S
H1543 C1551 0.950 . S
H1544 C1549 0.950 . S
H1545 C1550 0.949 . S
H1546 C1552 0.950 . S
H1547 C1553 0.950 . S
H1548 C1554 0.949 . S
C1549 H1544 0.950 . S
C1549 C1551 1.327 . S
C1549 C1555 1.429 . S
C1550 C1542 1.574 . S
C1550 H1545 0.949 . S
C1550 C1556 1.368 . S
C1551 C1535 1.349 . S
C1551 H1543 0.950 . S
C1551 C1549 1.327 . S
C1552 C1540 1.349 . S
C1552 H1546 0.950 . S
C1552 C1553 1.327 . S
C1553 H1547 0.950 . S
C1553 C1552 1.327 . S
C1553 C1557 1.429 . S
C1554 C1537 1.574 . S
C1554 H1548 0.949 . S
C1554 C1558 1.368 . S
C1555 C1536 1.429 . S
C1555 C1549 1.429 . S
C1555 C1556 1.523 . S
C1556 C1537 1.368 . S
C1556 C1550 1.368 . S
C1556 C1555 1.523 . S
C1557 C1541 1.429 . S
C1557 C1553 1.429 . S
C1557 C1558 1.523 . S
C1558 C1542 1.368 . S
C1558 C1554 1.368 . S
C1558 C1557 1.523 . S
H1559 C1534 0.950 . S
H1560 C1536 0.950 . S
H1561 C1537 0.949 . S
H1562 C1539 0.950 . S
H1563 C1541 0.950 . S
C1564 C1565 1.349 . S
C1564 C1566 1.327 . S
C1564 H1589 0.950 . S
C1565 C1564 1.349 . S
C1565 C1581 1.349 . S
C1566 C1564 1.327 . S
C1566 C1585 1.429 . S
C1566 H1590 0.950 . S
C1567 C1584 1.574 . S
C1567 C1586 1.368 . S
C1567 H1591 0.949 . S
H1568 C1572 0.949 . S
C1569 C1570 1.349 . S
C1569 C1571 1.327 . S
C1569 H1592 0.950 . S
C1570 C1569 1.349 . S
C1570 C1582 1.349 . S
C1571 C1569 1.327 . S
C1571 C1587 1.429 . S
C1571 H1593 0.950 . S
C1572 H1568 0.949 . S
C1572 C1580 1.574 . S
C1572 C1588 1.368 . S
H1573 C1581 0.950 . S
H1574 C1579 0.950 . S
H1575 C1580 0.949 . S
H1576 C1582 0.950 . S
H1577 C1583 0.950 . S
H1578 C1584 0.949 . S
C1579 H1574 0.950 . S
C1579 C1581 1.327 . S
C1579 C1585 1.429 . S
C1580 C1572 1.574 . S
C1580 H1575 0.949 . S
C1580 C1586 1.368 . S
C1581 C1565 1.349 . S
C1581 H1573 0.950 . S
C1581 C1579 1.327 . S
C1582 C1570 1.349 . S
C1582 H1576 0.950 . S
C1582 C1583 1.327 . S
C1583 H1577 0.950 . S
C1583 C1582 1.327 . S
C1583 C1587 1.429 . S
C1584 C1567 1.574 . S
C1584 H1578 0.949 . S
C1584 C1588 1.368 . S
C1585 C1566 1.429 . S
C1585 C1579 1.429 . S
C1585 C1586 1.523 . S
C1586 C1567 1.368 . S
C1586 C1580 1.368 . S
C1586 C1585 1.523 . S
C1587 C1571 1.429 . S
C1587 C1583 1.429 . S
C1587 C1588 1.523 . S
C1588 C1572 1.368 . S
C1588 C1584 1.368 . S
C1588 C1587 1.523 . S
H1589 C1564 0.950 . S
H1590 C1566 0.950 . S
H1591 C1567 0.949 . S
H1592 C1569 0.950 . S
H1593 C1571 0.950 . S
C1594 C1595 1.349 . S
C1594 C1596 1.327 . S
C1594 H1619 0.950 . S
C1595 C1594 1.349 . S
C1595 C1611 1.349 . S
C1596 C1594 1.327 . S
C1596 C1615 1.429 . S
C1596 H1620 0.950 . S
C1597 C1614 1.574 . S
C1597 C1616 1.368 . S
C1597 H1621 0.949 . S
H1598 C1602 0.949 . S
C1599 C1600 1.349 . S
C1599 C1601 1.327 . S
C1599 H1622 0.950 . S
C1600 C1599 1.349 . S
C1600 C1612 1.349 . S
C1601 C1599 1.327 . S
C1601 C1617 1.429 . S
C1601 H1623 0.950 . S
C1602 H1598 0.949 . S
C1602 C1610 1.574 . S
C1602 C1618 1.368 . S
H1603 C1611 0.950 . S
H1604 C1609 0.950 . S
H1605 C1610 0.949 . S
H1606 C1612 0.950 . S
H1607 C1613 0.950 . S
H1608 C1614 0.949 . S
C1609 H1604 0.950 . S
C1609 C1611 1.327 . S
C1609 C1615 1.429 . S
C1610 C1602 1.574 . S
C1610 H1605 0.949 . S
C1610 C1616 1.368 . S
C1611 C1595 1.349 . S
C1611 H1603 0.950 . S
C1611 C1609 1.327 . S
C1612 C1600 1.349 . S
C1612 H1606 0.950 . S
C1612 C1613 1.327 . S
C1613 H1607 0.950 . S
C1613 C1612 1.327 . S
C1613 C1617 1.429 . S
C1614 C1597 1.574 . S
C1614 H1608 0.949 . S
C1614 C1618 1.368 . S
C1615 C1596 1.429 . S
C1615 C1609 1.429 . S
C1615 C1616 1.523 . S
C1616 C1597 1.368 . S
C1616 C1610 1.368 . S
C1616 C1615 1.523 . S
C1617 C1601 1.429 . S
C1617 C1613 1.429 . S
C1617 C1618 1.523 . S
C1618 C1602 1.368 . S
C1618 C1614 1.368 . S
C1618 C1617 1.523 . S
H1619 C1594 0.950 . S
H1620 C1596 0.950 . S
H1621 C1597 0.949 . S
H1622 C1599 0.950 . S
H1623 C1601 0.950 . S
C1624 C1625 1.349 . S
C1624 C1626 1.327 . S
C1624 H1649 0.950 . S
C1625 C1624 1.349 . S
C1625 C1641 1.349 . S
C1626 C1624 1.327 . S
C1626 C1645 1.429 . S
C1626 H1650 0.950 . S
C1627 C1644 1.574 . S
C1627 C1646 1.368 . S
C1627 H1651 0.949 . S
H1628 C1632 0.949 . S
C1629 C1630 1.349 . S
C1629 C1631 1.327 . S
C1629 H1652 0.950 . S
C1630 C1629 1.349 . S
C1630 C1642 1.349 . S
C1631 C1629 1.327 . S
C1631 C1647 1.429 . S
C1631 H1653 0.950 . S
C1632 H1628 0.949 . S
C1632 C1640 1.574 . S
C1632 C1648 1.368 . S
H1633 C1641 0.950 . S
H1634 C1639 0.950 . S
H1635 C1640 0.949 . S
H1636 C1642 0.950 . S
H1637 C1643 0.950 . S
H1638 C1644 0.949 . S
C1639 H1634 0.950 . S
C1639 C1641 1.327 . S
C1639 C1645 1.429 . S
C1640 C1632 1.574 . S
C1640 H1635 0.949 . S
C1640 C1646 1.368 . S
C1641 C1625 1.349 . S
C1641 H1633 0.950 . S
C1641 C1639 1.327 . S
C1642 C1630 1.349 . S
C1642 H1636 0.950 . S
C1642 C1643 1.327 . S
C1643 H1637 0.950 . S
C1643 C1642 1.327 . S
C1643 C1647 1.429 . S
C1644 C1627 1.574 . S
C1644 H1638 0.949 . S
C1644 C1648 1.368 . S
C1645 C1626 1.429 . S
C1645 C1639 1.429 . S
C1645 C1646 1.523 . S
C1646 C1627 1.368 . S
C1646 C1640 1.368 . S
C1646 C1645 1.523 . S
C1647 C1631 1.429 . S
C1647 C1643 1.429 . S
C1647 C1648 1.523 . S
C1648 C1632 1.368 . S
C1648 C1644 1.368 . S
C1648 C1647 1.523 . S
H1649 C1624 0.950 . S
H1650 C1626 0.950 . S
H1651 C1627 0.949 . S
H1652 C1629 0.950 . S
H1653 C1631 0.950 . S
C1654 C1655 1.349 . S
C1654 C1656 1.327 . S
C1654 H1679 0.950 . S
C1655 C1654 1.349 . S
C1655 C1671 1.349 . S
C1656 C1654 1.327 . S
C1656 C1675 1.429 . S
C1656 H1680 0.950 . S
C1657 C1674 1.574 . S
C1657 C1676 1.368 . S
C1657 H1681 0.949 . S
H1658 C1662 0.949 . S
C1659 C1660 1.349 . S
C1659 C1661 1.327 . S
C1659 H1682 0.950 . S
C1660 C1659 1.349 . S
C1660 C1672 1.349 . S
C1661 C1659 1.327 . S
C1661 C1677 1.429 . S
C1661 H1683 0.950 . S
C1662 H1658 0.949 . S
C1662 C1670 1.574 . S
C1662 C1678 1.368 . S
H1663 C1671 0.950 . S
H1664 C1669 0.950 . S
H1665 C1670 0.949 . S
H1666 C1672 0.950 . S
H1667 C1673 0.950 . S
H1668 C1674 0.949 . S
C1669 H1664 0.950 . S
C1669 C1671 1.327 . S
C1669 C1675 1.429 . S
C1670 C1662 1.574 . S
C1670 H1665 0.949 . S
C1670 C1676 1.368 . S
C1671 C1655 1.349 . S
C1671 H1663 0.950 . S
C1671 C1669 1.327 . S
C1672 C1660 1.349 . S
C1672 H1666 0.950 . S
C1672 C1673 1.327 . S
C1673 H1667 0.950 . S
C1673 C1672 1.327 . S
C1673 C1677 1.429 . S
C1674 C1657 1.574 . S
C1674 H1668 0.949 . S
C1674 C1678 1.368 . S
C1675 C1656 1.429 . S
C1675 C1669 1.429 . S
C1675 C1676 1.523 . S
C1676 C1657 1.368 . S
C1676 C1670 1.368 . S
C1676 C1675 1.523 . S
C1677 C1661 1.429 . S
C1677 C1673 1.429 . S
C1677 C1678 1.523 . S
C1678 C1662 1.368 . S
C1678 C1674 1.368 . S
C1678 C1677 1.523 . S
H1679 C1654 0.950 . S
H1680 C1656 0.950 . S
H1681 C1657 0.949 . S
H1682 C1659 0.950 . S
H1683 C1661 0.950 . S
C1684 C1685 1.349 . S
C1684 C1686 1.327 . S
C1684 H1709 0.950 . S
C1685 C1684 1.349 . S
C1685 C1701 1.349 . S
C1686 C1684 1.327 . S
C1686 C1705 1.429 . S
C1686 H1710 0.950 . S
C1687 C1704 1.574 . S
C1687 C1706 1.368 . S
C1687 H1711 0.949 . S
H1688 C1692 0.949 . S
C1689 C1690 1.349 . S
C1689 C1691 1.327 . S
C1689 H1712 0.950 . S
C1690 C1689 1.349 . S
C1690 C1702 1.349 . S
C1691 C1689 1.327 . S
C1691 C1707 1.429 . S
C1691 H1713 0.950 . S
C1692 H1688 0.949 . S
C1692 C1700 1.574 . S
C1692 C1708 1.368 . S
H1693 C1701 0.950 . S
H1694 C1699 0.950 . S
H1695 C1700 0.949 . S
H1696 C1702 0.950 . S
H1697 C1703 0.950 . S
H1698 C1704 0.949 . S
C1699 H1694 0.950 . S
C1699 C1701 1.327 . S
C1699 C1705 1.429 . S
C1700 C1692 1.574 . S
C1700 H1695 0.949 . S
C1700 C1706 1.368 . S
C1701 C1685 1.349 . S
C1701 H1693 0.950 . S
C1701 C1699 1.327 . S
C1702 C1690 1.349 . S
C1702 H1696 0.950 . S
C1702 C1703 1.327 . S
C1703 H1697 0.950 . S
C1703 C1702 1.327 . S
C1703 C1707 1.429 . S
C1704 C1687 1.574 . S
C1704 H1698 0.949 . S
C1704 C1708 1.368 . S
C1705 C1686 1.429 . S
C1705 C1699 1.429 . S
C1705 C1706 1.523 . S
C1706 C1687 1.368 . S
C1706 C1700 1.368 . S
C1706 C1705 1.523 . S
C1707 C1691 1.429 . S
C1707 C1703 1.429 . S
C1707 C1708 1.523 . S
C1708 C1692 1.368 . S
C1708 C1704 1.368 . S
C1708 C1707 1.523 . S
H1709 C1684 0.950 . S
H1710 C1686 0.950 . S
H1711 C1687 0.949 . S
H1712 C1689 0.950 . S
H1713 C1691 0.950 . S
C1714 C1715 1.349 . S
C1714 C1716 1.327 . S
C1714 H1739 0.950 . S
C1715 C1714 1.349 . S
C1715 C1731 1.349 . S
C1716 C1714 1.327 . S
C1716 C1735 1.429 . S
C1716 H1740 0.950 . S
C1717 C1734 1.574 . S
C1717 C1736 1.368 . S
C1717 H1741 0.949 . S
H1718 C1722 0.949 . S
C1719 C1720 1.349 . S
C1719 C1721 1.327 . S
C1719 H1742 0.950 . S
C1720 C1719 1.349 . S
C1720 C1732 1.349 . S
C1721 C1719 1.327 . S
C1721 C1737 1.429 . S
C1721 H1743 0.950 . S
C1722 H1718 0.949 . S
C1722 C1730 1.574 . S
C1722 C1738 1.368 . S
H1723 C1731 0.950 . S
H1724 C1729 0.950 . S
H1725 C1730 0.949 . S
H1726 C1732 0.950 . S
H1727 C1733 0.950 . S
H1728 C1734 0.949 . S
C1729 H1724 0.950 . S
C1729 C1731 1.327 . S
C1729 C1735 1.429 . S
C1730 C1722 1.574 . S
C1730 H1725 0.949 . S
C1730 C1736 1.368 . S
C1731 C1715 1.349 . S
C1731 H1723 0.950 . S
C1731 C1729 1.327 . S
C1732 C1720 1.349 . S
C1732 H1726 0.950 . S
C1732 C1733 1.327 . S
C1733 H1727 0.950 . S
C1733 C1732 1.327 . S
C1733 C1737 1.429 . S
C1734 C1717 1.574 . S
C1734 H1728 0.949 . S
C1734 C1738 1.368 . S
C1735 C1716 1.429 . S
C1735 C1729 1.429 . S
C1735 C1736 1.523 . S
C1736 C1717 1.368 . S
C1736 C1730 1.368 . S
C1736 C1735 1.523 . S
C1737 C1721 1.429 . S
C1737 C1733 1.429 . S
C1737 C1738 1.523 . S
C1738 C1722 1.368 . S
C1738 C1734 1.368 . S
C1738 C1737 1.523 . S
H1739 C1714 0.950 . S
H1740 C1716 0.950 . S
H1741 C1717 0.949 . S
H1742 C1719 0.950 . S
H1743 C1721 0.950 . S
C1744 C1745 1.349 . S
C1744 C1746 1.327 . S
C1744 H1769 0.950 . S
C1745 C1744 1.349 . S
C1745 C1761 1.349 . S
C1746 C1744 1.327 . S
C1746 C1765 1.429 . S
C1746 H1770 0.950 . S
C1747 C1764 1.574 . S
C1747 C1766 1.368 . S
C1747 H1771 0.949 . S
H1748 C1752 0.949 . S
C1749 C1750 1.349 . S
C1749 C1751 1.327 . S
C1749 H1772 0.950 . S
C1750 C1749 1.349 . S
C1750 C1762 1.349 . S
C1751 C1749 1.327 . S
C1751 C1767 1.429 . S
C1751 H1773 0.950 . S
C1752 H1748 0.949 . S
C1752 C1760 1.574 . S
C1752 C1768 1.368 . S
H1753 C1761 0.950 . S
H1754 C1759 0.950 . S
H1755 C1760 0.949 . S
H1756 C1762 0.950 . S
H1757 C1763 0.950 . S
H1758 C1764 0.949 . S
C1759 H1754 0.950 . S
C1759 C1761 1.327 . S
C1759 C1765 1.429 . S
C1760 C1752 1.574 . S
C1760 H1755 0.949 . S
C1760 C1766 1.368 . S
C1761 C1745 1.349 . S
C1761 H1753 0.950 . S
C1761 C1759 1.327 . S
C1762 C1750 1.349 . S
C1762 H1756 0.950 . S
C1762 C1763 1.327 . S
C1763 H1757 0.950 . S
C1763 C1762 1.327 . S
C1763 C1767 1.429 . S
C1764 C1747 1.574 . S
C1764 H1758 0.949 . S
C1764 C1768 1.368 . S
C1765 C1746 1.429 . S
C1765 C1759 1.429 . S
C1765 C1766 1.523 . S
C1766 C1747 1.368 . S
C1766 C1760 1.368 . S
C1766 C1765 1.523 . S
C1767 C1751 1.429 . S
C1767 C1763 1.429 . S
C1767 C1768 1.523 . S
C1768 C1752 1.368 . S
C1768 C1764 1.368 . S
C1768 C1767 1.523 . S
H1769 C1744 0.950 . S
H1770 C1746 0.950 . S
H1771 C1747 0.949 . S
H1772 C1749 0.950 . S
H1773 C1751 0.950 . S
C1774 C1775 1.349 . S
C1774 C1776 1.327 . S
C1774 H1799 0.950 . S
C1775 C1774 1.349 . S
C1775 C1791 1.349 . S
C1776 C1774 1.327 . S
C1776 C1795 1.429 . S
C1776 H1800 0.950 . S
C1777 C1794 1.574 . S
C1777 C1796 1.368 . S
C1777 H1801 0.949 . S
H1778 C1782 0.949 . S
C1779 C1780 1.349 . S
C1779 C1781 1.327 . S
C1779 H1802 0.950 . S
C1780 C1779 1.349 . S
C1780 C1792 1.349 . S
C1781 C1779 1.327 . S
C1781 C1797 1.429 . S
C1781 H1803 0.950 . S
C1782 H1778 0.949 . S
C1782 C1790 1.574 . S
C1782 C1798 1.368 . S
H1783 C1791 0.950 . S
H1784 C1789 0.950 . S
H1785 C1790 0.949 . S
H1786 C1792 0.950 . S
H1787 C1793 0.950 . S
H1788 C1794 0.949 . S
C1789 H1784 0.950 . S
C1789 C1791 1.327 . S
C1789 C1795 1.429 . S
C1790 C1782 1.574 . S
C1790 H1785 0.949 . S
C1790 C1796 1.368 . S
C1791 C1775 1.349 . S
C1791 H1783 0.950 . S
C1791 C1789 1.327 . S
C1792 C1780 1.349 . S
C1792 H1786 0.950 . S
C1792 C1793 1.327 . S
C1793 H1787 0.950 . S
C1793 C1792 1.327 . S
C1793 C1797 1.429 . S
C1794 C1777 1.574 . S
C1794 H1788 0.949 . S
C1794 C1798 1.368 . S
C1795 C1776 1.429 . S
C1795 C1789 1.429 . S
C1795 C1796 1.523 . S
C1796 C1777 1.368 . S
C1796 C1790 1.368 . S
C1796 C1795 1.523 . S
C1797 C1781 1.429 . S
C1797 C1793 1.429 . S
C1797 C1798 1.523 . S
C1798 C1782 1.368 . S
C1798 C1794 1.368 . S
C1798 C1797 1.523 . S
H1799 C1774 0.950 . S
H1800 C1776 0.950 . S
H1801 C1777 0.949 . S
H1802 C1779 0.950 . S
H1803 C1781 0.950 . S
C1804 C1805 1.349 . S
C1804 C1806 1.327 . S
C1804 H1829 0.950 . S
C1805 C1804 1.349 . S
C1805 C1821 1.349 . S
C1806 C1804 1.327 . S
C1806 C1825 1.429 . S
C1806 H1830 0.950 . S
C1807 C1824 1.574 . S
C1807 C1826 1.368 . S
C1807 H1831 0.949 . S
H1808 C1812 0.949 . S
C1809 C1810 1.349 . S
C1809 C1811 1.327 . S
C1809 H1832 0.950 . S
C1810 C1809 1.349 . S
C1810 C1822 1.349 . S
C1811 C1809 1.327 . S
C1811 C1827 1.429 . S
C1811 H1833 0.950 . S
C1812 H1808 0.949 . S
C1812 C1820 1.574 . S
C1812 C1828 1.368 . S
H1813 C1821 0.950 . S
H1814 C1819 0.950 . S
H1815 C1820 0.949 . S
H1816 C1822 0.950 . S
H1817 C1823 0.950 . S
H1818 C1824 0.949 . S
C1819 H1814 0.950 . S
C1819 C1821 1.327 . S
C1819 C1825 1.429 . S
C1820 C1812 1.574 . S
C1820 H1815 0.949 . S
C1820 C1826 1.368 . S
C1821 C1805 1.349 . S
C1821 H1813 0.950 . S
C1821 C1819 1.327 . S
C1822 C1810 1.349 . S
C1822 H1816 0.950 . S
C1822 C1823 1.327 . S
C1823 H1817 0.950 . S
C1823 C1822 1.327 . S
C1823 C1827 1.429 . S
C1824 C1807 1.574 . S
C1824 H1818 0.949 . S
C1824 C1828 1.368 . S
C1825 C1806 1.429 . S
C1825 C1819 1.429 . S
C1825 C1826 1.523 . S
C1826 C1807 1.368 . S
C1826 C1820 1.368 . S
C1826 C1825 1.523 . S
C1827 C1811 1.429 . S
C1827 C1823 1.429 . S
C1827 C1828 1.523 . S
C1828 C1812 1.368 . S
C1828 C1824 1.368 . S
C1828 C1827 1.523 . S
H1829 C1804 0.950 . S
H1830 C1806 0.950 . S
H1831 C1807 0.949 . S
H1832 C1809 0.950 . S
H1833 C1811 0.950 . S
C1834 C1835 1.349 . S
C1834 C1836 1.327 . S
C1834 H1859 0.950 . S
C1835 C1834 1.349 . S
C1835 C1851 1.349 . S
C1836 C1834 1.327 . S
C1836 C1855 1.429 . S
C1836 H1860 0.950 . S
C1837 C1854 1.574 . S
C1837 C1856 1.368 . S
C1837 H1861 0.949 . S
H1838 C1842 0.949 . S
C1839 C1840 1.349 . S
C1839 C1841 1.327 . S
C1839 H1862 0.950 . S
C1840 C1839 1.349 . S
C1840 C1852 1.349 . S
C1841 C1839 1.327 . S
C1841 C1857 1.429 . S
C1841 H1863 0.950 . S
C1842 H1838 0.949 . S
C1842 C1850 1.574 . S
C1842 C1858 1.368 . S
H1843 C1851 0.950 . S
H1844 C1849 0.950 . S
H1845 C1850 0.949 . S
H1846 C1852 0.950 . S
H1847 C1853 0.950 . S
H1848 C1854 0.949 . S
C1849 H1844 0.950 . S
C1849 C1851 1.327 . S
C1849 C1855 1.429 . S
C1850 C1842 1.574 . S
C1850 H1845 0.949 . S
C1850 C1856 1.368 . S
C1851 C1835 1.349 . S
C1851 H1843 0.950 . S
C1851 C1849 1.327 . S
C1852 C1840 1.349 . S
C1852 H1846 0.950 . S
C1852 C1853 1.327 . S
C1853 H1847 0.950 . S
C1853 C1852 1.327 . S
C1853 C1857 1.429 . S
C1854 C1837 1.574 . S
C1854 H1848 0.949 . S
C1854 C1858 1.368 . S
C1855 C1836 1.429 . S
C1855 C1849 1.429 . S
C1855 C1856 1.523 . S
C1856 C1837 1.368 . S
C1856 C1850 1.368 . S
C1856 C1855 1.523 . S
C1857 C1841 1.429 . S
C1857 C1853 1.429 . S
C1857 C1858 1.523 . S
C1858 C1842 1.368 . S
C1858 C1854 1.368 . S
C1858 C1857 1.523 . S
H1859 C1834 0.950 . S
H1860 C1836 0.950 . S
H1861 C1837 0.949 . S
H1862 C1839 0.950 . S
H1863 C1841 0.950 . S
C1864 C1865 1.349 . S
C1864 C1866 1.327 . S
C1864 H1889 0.950 . S
C1865 C1864 1.349 . S
C1865 C1881 1.349 . S
C1866 C1864 1.327 . S
C1866 C1885 1.429 . S
C1866 H1890 0.950 . S
C1867 C1884 1.574 . S
C1867 C1886 1.368 . S
C1867 H1891 0.949 . S
H1868 C1872 0.949 . S
C1869 C1870 1.349 . S
C1869 C1871 1.327 . S
C1869 H1892 0.950 . S
C1870 C1869 1.349 . S
C1870 C1882 1.349 . S
C1871 C1869 1.327 . S
C1871 C1887 1.429 . S
C1871 H1893 0.950 . S
C1872 H1868 0.949 . S
C1872 C1880 1.574 . S
C1872 C1888 1.368 . S
H1873 C1881 0.950 . S
H1874 C1879 0.950 . S
H1875 C1880 0.949 . S
H1876 C1882 0.950 . S
H1877 C1883 0.950 . S
H1878 C1884 0.949 . S
C1879 H1874 0.950 . S
C1879 C1881 1.327 . S
C1879 C1885 1.429 . S
C1880 C1872 1.574 . S
C1880 H1875 0.949 . S
C1880 C1886 1.368 . S
C1881 C1865 1.349 . S
C1881 H1873 0.950 . S
C1881 C1879 1.327 . S
C1882 C1870 1.349 . S
C1882 H1876 0.950 . S
C1882 C1883 1.327 . S
C1883 H1877 0.950 . S
C1883 C1882 1.327 . S
C1883 C1887 1.429 . S
C1884 C1867 1.574 . S
C1884 H1878 0.949 . S
C1884 C1888 1.368 . S
C1885 C1866 1.429 . S
C1885 C1879 1.429 . S
C1885 C1886 1.523 . S
C1886 C1867 1.368 . S
C1886 C1880 1.368 . S
C1886 C1885 1.523 . S
C1887 C1871 1.429 . S
C1887 C1883 1.429 . S
C1887 C1888 1.523 . S
C1888 C1872 1.368 . S
C1888 C1884 1.368 . S
C1888 C1887 1.523 . S
H1889 C1864 0.950 . S
H1890 C1866 0.950 . S
H1891 C1867 0.949 . S
H1892 C1869 0.950 . S
H1893 C1871 0.950 . S
C1894 C1895 1.349 . S
C1894 C1896 1.327 . S
C1894 H1919 0.950 . S
C1895 C1894 1.349 . S
C1895 C1911 1.349 . S
C1896 C1894 1.327 . S
C1896 C1915 1.429 . S
C1896 H1920 0.950 . S
C1897 C1914 1.574 . S
C1897 C1916 1.368 . S
C1897 H1921 0.949 . S
H1898 C1902 0.949 . S
C1899 C1900 1.349 . S
C1899 C1901 1.327 . S
C1899 H1922 0.950 . S
C1900 C1899 1.349 . S
C1900 C1912 1.349 . S
C1901 C1899 1.327 . S
C1901 C1917 1.429 . S
C1901 H1923 0.950 . S
C1902 H1898 0.949 . S
C1902 C1910 1.574 . S
C1902 C1918 1.368 . S
H1903 C1911 0.950 . S
H1904 C1909 0.950 . S
H1905 C1910 0.949 . S
H1906 C1912 0.950 . S
H1907 C1913 0.950 . S
H1908 C1914 0.949 . S
C1909 H1904 0.950 . S
C1909 C1911 1.327 . S
C1909 C1915 1.429 . S
C1910 C1902 1.574 . S
C1910 H1905 0.949 . S
C1910 C1916 1.368 . S
C1911 C1895 1.349 . S
C1911 H1903 0.950 . S
C1911 C1909 1.327 . S
C1912 C1900 1.349 . S
C1912 H1906 0.950 . S
C1912 C1913 1.327 . S
C1913 H1907 0.950 . S
C1913 C1912 1.327 . S
C1913 C1917 1.429 . S
C1914 C1897 1.574 . S
C1914 H1908 0.949 . S
C1914 C1918 1.368 . S
C1915 C1896 1.429 . S
C1915 C1909 1.429 . S
C1915 C1916 1.523 . S
C1916 C1897 1.368 . S
C1916 C1910 1.368 . S
C1916 C1915 1.523 . S
C1917 C1901 1.429 . S
C1917 C1913 1.429 . S
C1917 C1918 1.523 . S
C1918 C1902 1.368 . S
C1918 C1914 1.368 . S
C1918 C1917 1.523 . S
H1919 C1894 0.950 . S
H1920 C1896 0.950 . S
H1921 C1897 0.949 . S
H1922 C1899 0.950 . S
H1923 C1901 0.950 . S
C1924 C1925 1.349 . S
C1924 C1926 1.327 . S
C1924 H1949 0.950 . S
C1925 C1924 1.349 . S
C1925 C1941 1.349 . S
C1926 C1924 1.327 . S
C1926 C1945 1.429 . S
C1926 H1950 0.950 . S
C1927 C1944 1.574 . S
C1927 C1946 1.368 . S
C1927 H1951 0.949 . S
H1928 C1932 0.949 . S
C1929 C1930 1.349 . S
C1929 C1931 1.327 . S
C1929 H1952 0.950 . S
C1930 C1929 1.349 . S
C1930 C1942 1.349 . S
C1931 C1929 1.327 . S
C1931 C1947 1.429 . S
C1931 H1953 0.950 . S
C1932 H1928 0.949 . S
C1932 C1940 1.574 . S
C1932 C1948 1.368 . S
H1933 C1941 0.950 . S
H1934 C1939 0.950 . S
H1935 C1940 0.949 . S
H1936 C1942 0.950 . S
H1937 C1943 0.950 . S
H1938 C1944 0.949 . S
C1939 H1934 0.950 . S
C1939 C1941 1.327 . S
C1939 C1945 1.429 . S
C1940 C1932 1.574 . S
C1940 H1935 0.949 . S
C1940 C1946 1.368 . S
C1941 C1925 1.349 . S
C1941 H1933 0.950 . S
C1941 C1939 1.327 . S
C1942 C1930 1.349 . S
C1942 H1936 0.950 . S
C1942 C1943 1.327 . S
C1943 H1937 0.950 . S
C1943 C1942 1.327 . S
C1943 C1947 1.429 . S
C1944 C1927 1.574 . S
C1944 H1938 0.949 . S
C1944 C1948 1.368 . S
C1945 C1926 1.429 . S
C1945 C1939 1.429 . S
C1945 C1946 1.523 . S
C1946 C1927 1.368 . S
C1946 C1940 1.368 . S
C1946 C1945 1.523 . S
C1947 C1931 1.429 . S
C1947 C1943 1.429 . S
C1947 C1948 1.523 . S
C1948 C1932 1.368 . S
C1948 C1944 1.368 . S
C1948 C1947 1.523 . S
H1949 C1924 0.950 . S
H1950 C1926 0.950 . S
H1951 C1927 0.949 . S
H1952 C1929 0.950 . S
H1953 C1931 0.950 . S
C1954 C1955 1.349 . S
C1954 C1956 1.327 . S
C1954 H1979 0.950 . S
C1955 C1954 1.349 . S
C1955 C1971 1.349 . S
C1956 C1954 1.327 . S
C1956 C1975 1.429 . S
C1956 H1980 0.950 . S
C1957 C1974 1.574 . S
C1957 C1976 1.368 . S
C1957 H1981 0.949 . S
H1958 C1962 0.949 . S
C1959 C1960 1.349 . S
C1959 C1961 1.327 . S
C1959 H1982 0.950 . S
C1960 C1959 1.349 . S
C1960 C1972 1.349 . S
C1961 C1959 1.327 . S
C1961 C1977 1.429 . S
C1961 H1983 0.950 . S
C1962 H1958 0.949 . S
C1962 C1970 1.574 . S
C1962 C1978 1.368 . S
H1963 C1971 0.950 . S
H1964 C1969 0.950 . S
H1965 C1970 0.949 . S
H1966 C1972 0.950 . S
H1967 C1973 0.950 . S
H1968 C1974 0.949 . S
C1969 H1964 0.950 . S
C1969 C1971 1.327 . S
C1969 C1975 1.429 . S
C1970 C1962 1.574 . S
C1970 H1965 0.949 . S
C1970 C1976 1.368 . S
C1971 C1955 1.349 . S
C1971 H1963 0.950 . S
C1971 C1969 1.327 . S
C1972 C1960 1.349 . S
C1972 H1966 0.950 . S
C1972 C1973 1.327 . S
C1973 H1967 0.950 . S
C1973 C1972 1.327 . S
C1973 C1977 1.429 . S
C1974 C1957 1.574 . S
C1974 H1968 0.949 . S
C1974 C1978 1.368 . S
C1975 C1956 1.429 . S
C1975 C1969 1.429 . S
C1975 C1976 1.523 . S
C1976 C1957 1.368 . S
C1976 C1970 1.368 . S
C1976 C1975 1.523 . S
C1977 C1961 1.429 . S
C1977 C1973 1.429 . S
C1977 C1978 1.523 . S
C1978 C1962 1.368 . S
C1978 C1974 1.368 . S
C1978 C1977 1.523 . S
H1979 C1954 0.950 . S
H1980 C1956 0.950 . S
H1981 C1957 0.949 . S
H1982 C1959 0.950 . S
H1983 C1961 0.950 . S
C545 C110 0.432 . S
C550 C13 0.427 . S
C575 C17 1.386 . S
C580 C34 1.379 . S
C605 C81 0.670 . S
C610 C47 0.672 . S
C635 C131 1.423 . S
C640 C85 1.427 . S
C665 C165 1.464 . S
C670 C199 1.464 . S
C695 C174 0.671 . S
C700 C217 0.670 . S
C725 C204 1.350 . S
C730 C267 1.359 . S
C755 C144 0.443 . S
C760 C242 0.443 . S
C785 C314 1.364 . S
C790 C0 1.366 . S
C815 C357 2.283 . S
C820 C51 2.282 . S
C845 C68 1.375 . S
C850 C442 1.382 . S
C875 C276 0.728 . S
C880 C106 0.727 . S
C905 C378 0.733 . S
C910 C140 0.735 . S
C935 C476 1.342 . S
C940 C178 1.337 . S
C965 C221 2.250 . S
C970 C425 2.250 . S
C995 C510 1.364 . S
C1000 C246 1.372 . S
C1025 C280 0.415 . S
C1030 C455 0.413 . S
C1055 C335 1.374 . S
C1060 C301 1.370 . S
C1085 C353 0.671 . S
C1090 C310 0.672 . S
C1115 C489 0.428 . S
C1120 C382 0.430 . S
C1145 C421 0.670 . S
C1150 C523 0.669 . S
C1175 C391 0.430 . S
C1180 C4 0.431 . S
C1205 C437 1.408 . S
C1210 C8 1.415 . S
C1235 C412 0.670 . S
C1240 C72 0.669 . S
C1265 C76 1.380 . S
C1270 C374 1.376 . S
C1295 C306 1.374 . S
C1300 C136 1.373 . S
C1325 C319 0.672 . S
C1330 C208 0.670 . S
C1355 C450 1.376 . S
C1360 C233 1.368 . S
C1385 C153 0.415 . S
C1390 C446 0.416 . S
C1415 C187 1.338 . S
C1420 C29 1.345 . S
C1445 C348 2.250 . S
C1450 C416 2.250 . S
C1475 C97 1.364 . S
C1480 C255 1.372 . S
C1505 C285 0.733 . S
C1510 C387 0.733 . S
C1535 C115 0.728 . S
C1540 C149 0.726 . S
C1565 C323 1.365 . S
C1570 C505 1.369 . S
C1595 C212 2.283 . S
C1600 C42 2.282 . S
C1625 C539 1.375 . S
C1630 C471 1.382 . S
C1655 C289 0.443 . S
C1660 C251 0.447 . S
C1685 C272 1.465 . S
C1690 C170 1.467 . S
C1715 C344 0.669 . S
C1720 C183 0.671 . S
C1745 C119 0.432 . S
C1750 C480 0.430 . S
C1775 C38 0.672 . S
C1780 C514 0.670 . S
C1805 C408 1.408 . S
C1810 C493 1.417 . S
C1835 C403 1.376 . S
C1840 C527 1.380 . S
C1865 C340 1.367 . S
C1870 C459 1.376 . S
C1895 C484 1.386 . S
C1900 C63 1.377 . S
C1925 C102 1.423 . S
C1930 C518 1.427 . S
C1955 C238 1.359 . S
C1960 C369 1.350 . S
