# Generated by pormake.
# Topology nbo, (4)-cn, num edge types: 1
# Building blocks:
#     Node 0, Type 0, BuildingBlock: KOZSID_clean_sbu_0, # of connection points: 4
#     Node 1, Type 0, BuildingBlock: KOZSID_clean_sbu_0, # of connection points: 4
#     Node 2, Type 0, BuildingBlock: KOZSID_clean_sbu_0, # of connection points: 4
#     Node 3, Type 0, BuildingBlock: KOZSID_clean_sbu_0, # of connection points: 4
#     Node 4, Type 0, BuildingBlock: KOZSID_clean_sbu_0, # of connection points: 4
#     Node 5, Type 0, BuildingBlock: KOZSID_clean_sbu_0, # of connection points: 4
#     Edge 6, Type (0, 0), BuildingBlock: MIFKUJ_clean_linker_0, # of connection points: 2
#     Edge 7, Type (0, 0), BuildingBlock: MIFKUJ_clean_linker_0, # of connection points: 2
#     Edge 8, Type (0, 0), BuildingBlock: MIFKUJ_clean_linker_0, # of connection points: 2
#     Edge 9, Type (0, 0), BuildingBlock: MIFKUJ_clean_linker_0, # of connection points: 2
#     Edge 10, Type (0, 0), BuildingBlock: MIFKUJ_clean_linker_0, # of connection points: 2
#     Edge 11, Type (0, 0), BuildingBlock: MIFKUJ_clean_linker_0, # of connection points: 2
#     Edge 12, Type (0, 0), BuildingBlock: MIFKUJ_clean_linker_0, # of connection points: 2
#     Edge 13, Type (0, 0), BuildingBlock: MIFKUJ_clean_linker_0, # of connection points: 2
#     Edge 14, Type (0, 0), BuildingBlock: MIFKUJ_clean_linker_0, # of connection points: 2
#     Edge 15, Type (0, 0), BuildingBlock: MIFKUJ_clean_linker_0, # of connection points: 2
#     Edge 16, Type (0, 0), BuildingBlock: MIFKUJ_clean_linker_0, # of connection points: 2
#     Edge 17, Type (0, 0), BuildingBlock: MIFKUJ_clean_linker_0, # of connection points: 2
# Relax obj value: 0.000
# Max RMSD: 0.000
# Mean RMSD: 0.000
data_MOF--net-nbo--node1-KOZSID_clean_sbu_0--edge1-MIFKUJ_clean_linker_0
_symmetry_space_group_name_H-M    P1
_symmetry_Int_Tables_number       1
_symmetry_cell_setting            triclinic
loop_
_symmetry_equiv_pos_as_xyz
'x, y, z'
_cell_length_a     42.372794
_cell_length_b     48.243166
_cell_length_c     45.40374
_cell_angle_alpha  106.72965
_cell_angle_beta   107.32724
_cell_angle_gamma 107.09273
loop_
_atom_site_label
_atom_site_type_symbol
_atom_site_fract_x
_atom_site_fract_y
_atom_site_fract_z
_atom_type_partial_charge
C0 C 0.91635 0.98187 0.46915 0.0
C1 C 0.88589 0.96737 0.43851 0.0
C2 C 0.89797 0.96171 0.41367 0.0
C3 C 0.93492 0.97322 0.43044 0.0
N4 N 0.94725 0.98552 0.46454 0.0
Co5 Co 0.99927 1.0071 0.49859 0.0
N6 N 0.01708 0.99971 0.46192 0.0
C7 C 0.99651 0.9844 0.42813 0.0
C8 C 0.01615 0.98106 0.40929 0.0
C9 C 0.05141 0.99469 0.43238 0.0
C10 C 0.05125 1.00587 0.46415 0.0
N11 N 0.05124 0.02955 0.53263 0.0
C12 C 0.08223 0.03418 0.52806 0.0
C13 C 0.11288 0.05196 0.55854 0.0
C14 C 0.10079 0.05815 0.58334 0.0
C15 C 0.06365 0.04409 0.56665 0.0
N16 N 0.98153 0.01353 0.5353 0.0
C17 C 0.00196 0.027 0.5691 0.0
C18 C 0.98203 0.02752 0.58796 0.0
C19 C 0.94674 0.01385 0.56485 0.0
C20 C 0.94728 1.006 0.53313 0.0
N21 N 0.99811 0.96576 0.49948 0.0
C22 C 0.99805 0.90735 0.50062 0.0
C23 C 0.01535 0.93527 0.53036 0.0
C24 C 0.01511 0.96388 0.52922 0.0
C25 C 0.98057 0.90929 0.47031 0.0
C26 C 0.98085 0.93838 0.47033 0.0
N27 N 1.00048 0.0485 0.49774 0.0
C28 C 0.0107 0.10319 0.52687 0.0
C29 C 1.00112 0.10709 0.49653 0.0
C30 C 0.99129 0.08098 0.46681 0.0
C31 C 0.99097 0.05221 0.46795 0.0
C32 C 0.01042 0.07413 0.52693 0.0
H33 H 0.98287 0.0333 0.44434 0.0
H34 H 0.01814 0.07299 0.55095 0.0
H35 H 0.02899 0.98421 0.55277 0.0
H36 H 0.96714 0.93817 0.44637 0.0
C37 C 0.95874 0.97302 0.41489 0.0
C38 C 0.91473 0.99296 0.50189 0.0
C39 C 0.084 0.02104 0.49569 0.0
C40 C 0.03982 0.04157 0.58235 0.0
H41 H 0.85788 0.96189 0.43445 0.0
H42 H 0.88179 0.95096 0.38659 0.0
H43 H 0.00597 0.96955 0.38203 0.0
H44 H 0.07447 0.99569 0.42638 0.0
H45 H 0.14106 0.0591 0.56248 0.0
H46 H 0.11711 0.07056 0.61038 0.0
H47 H 0.99203 0.03756 0.61526 0.0
H48 H 0.92328 0.01073 0.57068 0.0
H49 H 0.02882 0.93512 0.55463 0.0
H50 H 0.96715 0.88856 0.44644 0.0
H51 H 0.01796 0.12232 0.55063 0.0
H52 H 0.98417 0.08266 0.44262 0.0
C53 C 0.53324 0.02305 0.07599 0.0
C54 C 0.56692 0.03598 0.10315 0.0
C55 C 0.59244 0.04148 0.09052 0.0
C56 C 0.57307 0.03132 0.0565 0.0
N57 N 0.53667 0.01996 0.04654 0.0
Co58 Co 0.49859 0.99948 0.99876 0.0
N59 N 0.53635 1.00707 0.98021 0.0
C60 C 0.57283 0.02171 0.99823 0.0
C61 C 0.59186 0.02609 0.97909 0.0
C62 C 0.56603 0.01397 0.94689 0.0
C63 C 0.53253 1.00251 0.9482 0.0
N64 N 0.46053 0.97811 0.95099 0.0
C65 C 0.4639 0.9749 0.92155 0.0
C66 C 0.43044 0.95785 0.89383 0.0
C67 C 0.40493 0.95073 0.90626 0.0
C68 C 0.4242 0.96353 0.94068 0.0
N69 N 0.46079 0.99301 0.01729 0.0
C70 C 0.42432 0.97988 0.99935 0.0
C71 C 0.40526 0.9796 0.01898 0.0
C72 C 0.43106 0.99308 0.05143 0.0
C73 C 0.46451 1.00048 0.04966 0.0
N74 N 0.49813 0.04134 0.0014 0.0
C75 C 0.49753 0.10013 0.00183 0.0
C76 C 0.46526 0.07256 0.98725 0.0
C77 C 0.46618 0.04377 0.98718 0.0
C78 C 0.53009 0.09765 0.01676 0.0
C79 C 0.52976 0.06841 0.01645 0.0
N80 N 0.49901 0.95743 0.99607 0.0
C81 C 0.46797 0.90315 0.98854 0.0
C82 C 0.50005 0.89867 0.99514 0.0
C83 C 0.53151 0.92399 0.00174 0.0
C84 C 0.53047 0.95292 0.00231 0.0
C85 C 0.46797 0.93227 0.9888 0.0
H86 H 0.5556 0.97134 0.00818 0.0
H87 H 0.44244 0.93378 0.98315 0.0
H88 H 0.44064 0.0237 0.97525 0.0
H89 H 0.55549 0.06818 0.02822 0.0
C90 C 0.58832 0.03193 0.03328 0.0
C91 C 0.4988 0.01309 0.07925 0.0
C92 C 0.49787 0.98868 0.91869 0.0
C93 C 0.4088 0.96572 0.96401 0.0
H94 H 0.57268 0.04051 0.12935 0.0
H95 H 0.62163 0.0512 0.10442 0.0
H96 H 0.62103 0.0375 0.98768 0.0
H97 H 0.57143 0.01429 0.92514 0.0
H98 H 0.42497 0.95193 0.86742 0.0
H99 H 0.37573 0.93876 0.89199 0.0
H100 H 0.37606 0.96998 0.01064 0.0
H101 H 0.42578 0.99641 0.07381 0.0
H102 H 0.43914 0.07304 0.97598 0.0
H103 H 0.55599 0.11801 0.02814 0.0
H104 H 0.44273 0.8841 0.98278 0.0
H105 H 0.55712 0.92178 0.00721 0.0
C106 C 0.08955 0.54198 0.02769 0.0
C107 C 0.12104 0.56988 0.04277 0.0
C108 C 0.11104 0.5944 0.05127 0.0
C109 C 0.07418 0.5802 0.04071 0.0
N110 N 0.05996 0.54803 0.02637 0.0
Co111 Co 0.00712 0.51815 0.00476 0.0
N112 N 0.99228 0.55442 0.01567 0.0
C113 C 0.01459 0.58579 0.03262 0.0
C114 C 0.99692 0.60503 0.03831 0.0
C115 C 0.96115 0.58478 0.02454 0.0
C116 C 0.95901 0.5542 0.01091 0.0
N117 N 0.95427 0.4883 0.98227 0.0
C118 C 0.92449 0.49439 0.97951 0.0
C119 C 0.89265 0.4667 0.96112 0.0
C120 C 0.9027 0.44218 0.95262 0.0
C121 C 0.9399 0.45622 0.96598 0.0
N122 N 0.02198 0.48185 0.99473 0.0
C123 C 0.9999 0.45042 0.97985 0.0
C124 C 0.01794 0.43115 0.97644 0.0
C125 C 0.05367 0.45145 0.9896 0.0
C126 C 0.0553 0.48205 1.00011 0.0
N127 N 0.00993 0.51644 0.04873 0.0
C128 C 0.01115 0.51435 0.11063 0.0
C129 C 0.99177 0.48698 0.08036 0.0
C130 C 0.9916 0.48853 0.05005 0.0
C131 C 0.03043 0.5427 0.10941 0.0
C132 C 0.02945 0.54322 0.0785 0.0
N133 N 0.00431 0.51979 0.96078 0.0
C134 C 0.9913 0.49292 0.90179 0.0
C135 C 0.00392 0.5219 0.89916 0.0
C136 C 0.01604 0.54982 0.92774 0.0
C137 C 0.01612 0.54825 0.95806 0.0
C138 C 0.99151 0.4924 0.93244 0.0
H139 H 0.02626 0.5704 0.97905 0.0
H140 H 0.98141 0.46951 0.9326 0.0
H141 H 0.97621 0.46681 0.028 0.0
H142 H 0.0444 0.56564 0.0793 0.0
C143 C 0.05211 0.59642 0.04327 0.0
C144 C 0.08892 0.51041 0.01375 0.0
C145 C 0.92502 0.52568 0.9949 0.0
C146 C 0.96213 0.43981 0.96628 0.0
H147 H 0.14837 0.5724 0.04667 0.0
H148 H 0.12846 0.6196 0.06308 0.0
H149 H 0.00873 0.63069 0.05145 0.0
H150 H 0.93927 0.59183 0.02509 0.0
H151 H 0.86503 0.4644 0.95507 0.0
H152 H 0.88503 0.41704 0.93916 0.0
H153 H 0.00636 0.40541 0.96473 0.0
H154 H 0.07593 0.44453 0.99062 0.0
H155 H 0.97689 0.46429 0.07998 0.0
H156 H 0.04564 0.56465 0.13211 0.0
H157 H 0.98103 0.4706 0.88017 0.0
H158 H 0.02624 0.57288 0.92698 0.0
C159 C 0.55727 0.50752 0.96839 0.0
C160 C 0.5608 0.4958 0.93829 0.0
C161 C 0.52694 0.47422 0.91419 0.0
C162 C 0.50462 0.47382 0.9307 0.0
N163 N 0.52218 0.49419 0.96365 0.0
Co164 Co 0.5 0.4992 0.99663 0.0
N165 N 0.4501 0.47759 0.95988 0.0
C166 C 0.44029 0.45905 0.92736 0.0
C167 C 0.40397 0.44845 0.90762 0.0
C168 C 0.39008 0.46106 0.92912 0.0
C169 C 0.4188 0.47849 0.96094 0.0
N170 N 0.47762 0.50369 0.02937 0.0
C171 C 0.44386 0.5018 0.02455 0.0
C172 C 0.43891 0.50596 0.05415 0.0
C173 C 0.47098 0.51089 0.07835 0.0
C174 C 0.49354 0.50931 0.06218 0.0
N175 N 0.5498 0.52101 0.03362 0.0
C176 C 0.5583 0.52638 0.06642 0.0
C177 C 0.59492 0.5424 0.08639 0.0
C178 C 0.61053 0.54692 0.06477 0.0
C179 C 0.58247 0.53298 0.03257 0.0
N180 N 0.50199 0.54035 0.99638 0.0
C181 C 0.5026 0.59876 0.99594 0.0
C182 C 0.51327 0.59494 0.02634 0.0
C183 C 0.51296 0.56574 0.02604 0.0
C184 C 0.49194 0.57266 0.96579 0.0
C185 C 0.49167 0.54375 0.96654 0.0
N186 N 0.498 0.45797 0.99692 0.0
C187 C 0.5272 0.42227 0.00079 0.0
C188 C 0.49572 0.39931 0.99779 0.0
C189 C 0.46528 0.40632 0.99418 0.0
C190 C 0.46706 0.4358 0.99409 0.0
C191 C 0.5277 0.45117 1.00006 0.0
H192 H 0.44338 0.44067 0.99182 0.0
H193 H 0.55229 0.46797 0.00203 0.0
H194 H 0.52143 0.56369 0.04987 0.0
H195 H 0.48273 0.52403 0.94286 0.0
C196 C 0.46676 0.45743 0.91538 0.0
C197 C 0.58837 0.52772 0.00145 0.0
C198 C 0.41553 0.49445 0.99198 0.0
C199 C 0.53111 0.51926 0.07806 0.0
H200 H 0.58539 0.50142 0.93425 0.0
H201 H 0.51947 0.46068 0.88771 0.0
H202 H 0.38966 0.43463 0.88052 0.0
H203 H 0.36213 0.45794 0.92201 0.0
H204 H 0.41474 0.5056 0.05789 0.0
H205 H 0.47758 0.5165 0.1049 0.0
H206 H 0.60861 0.5503 0.1135 0.0
H207 H 0.63939 0.55826 0.07174 0.0
H208 H 0.52218 0.61448 0.05034 0.0
H209 H 0.48312 0.57431 0.94163 0.0
H210 H 0.55125 0.41779 0.00322 0.0
H211 H 0.44043 0.38938 0.99203 0.0
C212 C 0.03813 0.53307 0.57762 0.0
C213 C 0.07183 0.54949 0.6051 0.0
C214 C 0.09719 0.55554 0.59234 0.0
C215 C 0.07764 0.54279 0.55797 0.0
N216 N 0.04125 0.52914 0.54797 0.0
Co217 Co 0.00284 0.50845 0.50034 0.0
N218 N 0.04034 0.51534 0.4815 0.0
C219 C 0.07683 0.52792 0.49903 0.0
C220 C 0.09558 0.52984 0.47922 0.0
C221 C 0.06956 0.51811 0.44713 0.0
C222 C 0.03633 0.50982 0.44931 0.0
N223 N 0.96445 0.48866 0.45274 0.0
C224 C 0.9677 0.48648 0.42341 0.0
C225 C 0.93404 0.47264 0.39613 0.0
C226 C 0.90855 0.46615 0.40869 0.0
C227 C 0.92803 0.47645 0.44277 0.0
N228 N 0.96533 0.50073 0.51915 0.0
C229 C 0.92882 0.48591 0.50127 0.0
C230 C 0.91001 0.48219 0.52074 0.0
C231 C 0.93602 0.49509 0.55301 0.0
C232 C 0.96938 0.50624 0.5514 0.0
N233 N 0.00271 0.55058 0.504 0.0
C234 C 0.00193 0.6095 0.50558 0.0
C235 C 0.97 0.58352 0.49694 0.0
C236 C 0.97098 0.55459 0.49623 0.0
C237 C 0.03435 0.60547 0.51403 0.0
C238 C 0.03416 0.57621 0.51327 0.0
N239 N 0.00293 0.46626 0.49665 0.0
C240 C 0.97043 0.40966 0.47929 0.0
C241 C 0.00267 0.40691 0.49438 0.0
C242 C 0.03511 0.43438 0.51014 0.0
C243 C 0.03464 0.46346 0.51088 0.0
C244 C 0.97117 0.43921 0.48068 0.0
H245 H 0.06032 0.48339 0.52334 0.0
H246 H 0.94559 0.43958 0.46896 0.0
H247 H 0.94563 0.53575 0.48909 0.0
H248 H 0.05979 0.57482 0.51991 0.0
C249 C 0.0927 0.54094 0.53437 0.0
C250 C 0.00412 0.52088 0.581 0.0
C251 C 0.00192 0.49831 0.42039 0.0
C252 C 0.91299 0.47551 0.46615 0.0
H253 H 0.07754 0.55591 0.63161 0.0
H254 H 0.12643 0.56714 0.60637 0.0
H255 H 0.12475 0.53974 0.48733 0.0
H256 H 0.07448 0.51663 0.42477 0.0
H257 H 0.92852 0.46821 0.36995 0.0
H258 H 0.87932 0.45572 0.39474 0.0
H259 H 0.88087 0.47098 0.51239 0.0
H260 H 0.93089 0.49569 0.57509 0.0
H261 H 0.9442 0.58539 0.49086 0.0
H262 H 0.05987 0.62458 0.52056 0.0
H263 H 0.94448 0.38922 0.46701 0.0
H264 H 0.06094 0.4335 0.52172 0.0
C265 C 0.58481 0.03408 0.52914 0.0
C266 C 0.61613 0.06207 0.54371 0.0
C267 C 0.60561 0.08648 0.54986 0.0
C268 C 0.56864 0.07212 0.53846 0.0
N269 N 0.55485 0.03998 0.52576 0.0
Co270 Co 0.50215 0.0098 0.50328 0.0
N271 N 0.48676 0.04583 0.51247 0.0
C272 C 0.50874 0.07727 0.52926 0.0
C273 C 0.49065 0.09628 0.53405 0.0
C274 C 0.45493 0.07576 0.51996 0.0
C275 C 0.4533 0.04529 0.50701 0.0
N276 N 0.44949 0.97964 0.47938 0.0
C277 C 0.41948 0.98549 0.47537 0.0
C278 C 0.38782 0.95775 0.45595 0.0
C279 C 0.39827 0.93341 0.44807 0.0
C280 C 0.43551 0.94764 0.46279 0.0
N281 N 0.51748 0.97371 0.49568 0.0
C282 C 0.49557 0.94226 0.48114 0.0
C283 C 0.51397 0.92316 0.48039 0.0
C284 C 0.5498 0.94362 0.49516 0.0
C285 C 0.55111 0.97412 0.50378 0.0
N286 N 0.50325 0.00892 0.54702 0.0
C287 C 0.5031 0.00781 0.6088 0.0
C288 C 0.48288 0.98045 0.57856 0.0
C289 C 0.48339 0.9815 0.54828 0.0
C290 C 0.52367 0.0357 0.60759 0.0
C291 C 0.52332 0.03574 0.57669 0.0
N292 N 0.501 0.01064 0.45936 0.0
C293 C 0.49195 0.98341 0.40163 0.0
C294 C 0.50025 0.01177 0.39716 0.0
C295 C 0.5089 0.03956 0.42454 0.0
C296 C 0.50939 0.03852 0.45513 0.0
C297 C 0.49214 0.98333 0.43243 0.0
H298 H 0.51666 0.06065 0.47494 0.0
H299 H 0.48519 0.96079 0.43376 0.0
H300 H 0.4674 0.9598 0.52617 0.0
H301 H 0.53928 0.05781 0.57739 0.0
C302 C 0.54627 0.08816 0.54002 0.0
C303 C 0.58475 1.00251 0.5179 0.0
C304 C 0.41962 0.01654 0.49083 0.0
C305 C 0.45789 0.93142 0.46523 0.0
H306 H 0.64374 0.06471 0.549 0.0
H307 H 0.62282 0.11169 0.56103 0.0
H308 H 0.50211 0.12196 0.54674 0.0
H309 H 0.43275 0.08257 0.51976 0.0
H310 H 0.36007 0.95528 0.44901 0.0
H311 H 0.38081 0.90823 0.4344 0.0
H312 H 0.50265 0.89742 0.46941 0.0
H313 H 0.57239 0.93686 0.4984 0.0
H314 H 0.46697 0.95811 0.57822 0.0
H315 H 0.53954 0.0576 0.63028 0.0
H316 H 0.48569 0.9612 0.38162 0.0
H317 H 0.51497 0.06216 0.42247 0.0
H318 H 0.9547 0.1168 0.44738 0.0
H319 H 0.95546 0.16734 0.44639 0.0
H320 H 0.04729 0.21816 0.54362 0.0
H321 H 0.0478 0.16788 0.54436 0.0
H322 H 0.99171 0.2398 0.53902 0.0
H323 H 0.06143 0.21671 0.4763 0.0
H324 H 0.07254 0.18367 0.43128 0.0
H325 H 0.98025 0.18039 0.35562 0.0
H326 H 0.96827 0.21304 0.40024 0.0
H327 H 0.04334 0.39578 0.54555 0.0
H328 H 0.04261 0.34483 0.54511 0.0
H329 H 0.95996 0.29639 0.44263 0.0
H330 H 0.96138 0.34742 0.44248 0.0
H331 H 0.00969 0.27276 0.44919 0.0
H332 H 0.93883 0.29483 0.5092 0.0
H333 H 0.92392 0.32557 0.55252 0.0
H334 H 0.01335 0.32857 0.63107 0.0
H335 H 0.02919 0.29825 0.58822 0.0
C336 C 0.97549 0.13865 0.46838 0.0
C337 C 1.00127 0.138 0.49592 0.0
C338 C 0.97569 0.16758 0.46784 0.0
C339 C 1.00151 0.19655 0.49487 0.0
C340 C 0.02702 0.19609 0.52254 0.0
C341 C 0.0271 0.1672 0.52297 0.0
C342 C 0.00186 0.22734 0.49435 0.0
C343 C 0.99616 0.24725 0.51968 0.0
C344 C 0.00649 0.23657 0.46848 0.0
C345 C 0.01373 0.21704 0.44162 0.0
C346 C 0.04331 0.20871 0.45007 0.0
C347 C 0.04981 0.1901 0.42462 0.0
C348 C 0.02706 0.17986 0.39061 0.0
C349 C 0.99782 0.18829 0.38198 0.0
C350 C 0.99118 0.20687 0.40734 0.0
C351 C 0.02525 0.37435 0.52276 0.0
C352 C 0.00238 0.37579 0.49405 0.0
C353 C 0.02459 0.34515 0.52268 0.0
C354 C 1.00089 0.31664 0.49398 0.0
C355 C 0.97838 0.31801 0.46513 0.0
C356 C 0.97901 0.34721 0.46519 0.0
C357 C 0.99976 0.28546 0.49404 0.0
C358 C 0.00527 0.26541 0.4686 0.0
C359 C 0.9945 0.27592 0.5196 0.0
C360 C 0.98542 0.29454 0.54549 0.0
C361 C 0.95556 0.30233 0.53572 0.0
C362 C 0.9469 0.31962 0.56018 0.0
C363 C 0.96771 0.32904 0.5945 0.0
C364 C 0.99728 0.32126 0.60446 0.0
C365 C 0.00611 0.30402 0.5801 0.0
H366 H 0.96079 0.34221 0.61336 0.0
H367 H 0.03214 0.16546 0.37095 0.0
H368 H 0.90086 0.04478 0.5229 0.0
H369 H 0.84519 0.04635 0.52773 0.0
H370 H 0.79646 0.94383 0.48919 0.0
H371 H 0.85263 0.94247 0.48533 0.0
H372 H 0.77815 0.02379 0.48266 0.0
H373 H 0.74014 0.92121 0.52606 0.0
H374 H 0.77097 0.89639 0.55842 0.0
H375 H 0.86794 0.98335 0.61173 0.0
H376 H 0.83753 0.00883 0.58012 0.0
H377 H 0.59719 0.9794 0.46265 0.0
H378 H 0.65349 0.97634 0.4612 0.0
H379 H 0.70378 0.01588 0.57043 0.0
H380 H 0.64688 0.01785 0.5717 0.0
H381 H 0.72362 0.97059 0.54528 0.0
H382 H 0.71878 0.06249 0.52791 0.0
H383 H 0.69118 0.09225 0.50093 0.0
H384 H 0.68732 0.03679 0.40602 0.0
H385 H 0.71435 1.0063 0.43232 0.0
C386 C 0.87814 0.02269 0.51554 0.0
C387 C 0.88061 0.99352 0.50371 0.0
C388 C 0.84643 0.02355 0.51817 0.0
C389 C 0.8168 0.99523 0.50907 0.0
C390 C 0.81919 0.96599 0.49682 0.0
C391 C 0.85103 0.96516 0.49441 0.0
C392 C 0.78339 0.99635 0.51237 0.0
C393 C 0.76622 0.01213 0.49633 0.0
C394 C 0.76828 0.98176 0.53086 0.0
C395 C 0.78663 0.9668 0.55044 0.0
C396 C 0.76798 0.93507 0.5448 0.0
C397 C 0.7854 0.92088 0.563 0.0
C398 C 0.82142 0.93825 0.58703 0.0
C399 C 0.84008 0.96989 0.59303 0.0
C400 C 0.82277 0.9842 0.57495 0.0
C401 C 0.62025 0.98708 0.48623 0.0
C402 C 0.61821 0.99916 0.51729 0.0
C403 C 0.65235 0.98549 0.48544 0.0
C404 C 0.68302 0.99643 0.51574 0.0
C405 C 0.68049 0.00744 0.54678 0.0
C406 C 0.64822 0.00872 0.54754 0.0
C407 C 0.71806 0.99748 0.51501 0.0
C408 C 0.73554 0.98216 0.53156 0.0
C409 C 0.73406 0.01331 0.49783 0.0
C410 C 0.71832 0.03193 0.48203 0.0
C411 C 0.71185 0.05651 0.50124 0.0
C412 C 0.69632 0.07351 0.48607 0.0
C413 C 0.68744 0.06638 0.45176 0.0
C414 C 0.69418 0.04227 0.43258 0.0
C415 C 0.70963 0.02513 0.44761 0.0
H416 H 0.6754 0.07956 0.44005 0.0
H417 H 0.83487 0.9272 0.60106 0.0
H418 H 0.05339 0.67035 0.54864 0.0
H419 H 0.05291 0.72042 0.54738 0.0
H420 H 0.9481 0.66917 0.46219 0.0
H421 H 0.94933 0.61886 0.46197 0.0
H422 H 0.9883 0.71424 0.45182 0.0
H423 H 0.95971 0.71023 0.54541 0.0
H424 H 0.96839 0.7049 0.59935 0.0
H425 H 0.07037 0.78707 0.64984 0.0
H426 H 0.06252 0.79263 0.59608 0.0
H427 H 0.94334 0.84709 0.46265 0.0
H428 H 0.94436 0.7969 0.46335 0.0
H429 H 0.05397 0.84743 0.54097 0.0
H430 H 0.05356 0.8977 0.53998 0.0
H431 H 0.0112 0.80304 0.55526 0.0
H432 H 0.03844 0.80664 0.46056 0.0
H433 H 0.02816 0.81173 0.40635 0.0
H434 H 0.92616 0.72974 0.35767 0.0
H435 H 0.9356 0.72441 0.41172 0.0
C436 C 0.03037 0.66959 0.52935 0.0
C437 C 1.00134 0.64033 0.50546 0.0
C438 C 0.02992 0.69838 0.52895 0.0
C439 C 1.00018 0.69875 0.50504 0.0
C440 C 0.9713 0.66963 0.48103 0.0
C441 C 0.97187 0.6408 0.4812 0.0
C442 C 0.99936 0.72941 0.50475 0.0
C443 C 0.99279 0.73344 0.47437 0.0
C444 C 0.00595 0.75488 0.53426 0.0
C445 C 0.01068 0.75166 0.56665 0.0
C446 C 0.98411 0.72702 0.56796 0.0
C447 C 0.98886 0.72398 0.59852 0.0
C448 C 0.01995 0.74558 0.62799 0.0
C449 C 0.04632 0.77033 0.62699 0.0
C450 C 0.04172 0.77345 0.59649 0.0
C451 C 0.96787 0.84759 0.47962 0.0
C452 C 0.99841 0.87661 0.5012 0.0
C453 C 0.96834 0.81881 0.48006 0.0
C454 C 0.99934 0.81832 0.50204 0.0
C455 C 0.0297 0.8472 0.52387 0.0
C456 C 0.02933 0.87598 0.52335 0.0
C457 C 1.00008 0.78773 0.50238 0.0
C458 C 0.00666 0.78376 0.53275 0.0
C459 C 0.99322 0.76224 0.47283 0.0
C460 C 0.98757 0.76532 0.44027 0.0
C461 C 0.01368 0.78984 0.43836 0.0
C462 C 0.00803 0.79275 0.40765 0.0
C463 C 0.97648 0.77112 0.3786 0.0
C464 C 0.95056 0.7465 0.38019 0.0
C465 C 0.95606 0.74351 0.41085 0.0
H466 H 0.97216 0.77341 0.35485 0.0
H467 H 0.02358 0.74319 0.65162 0.0
H468 H 0.38369 0.99491 0.52556 0.0
H469 H 0.32652 0.9966 0.52617 0.0
H470 H 0.32251 0.04422 0.45882 0.0
H471 H 0.37947 0.04205 0.4578 0.0
H472 H 0.30767 0.07159 0.51556 0.0
H473 H 0.27147 0.96998 0.42633 0.0
H474 H 0.27369 0.91811 0.40266 0.0
H475 H 0.23934 0.89048 0.47372 0.0
H476 H 0.23761 0.94248 0.49828 0.0
H477 H 0.12554 0.05402 0.47107 0.0
H478 H 0.18292 0.05379 0.46974 0.0
H479 H 0.17876 0.98974 0.51963 0.0
H480 H 0.12056 0.98892 0.51947 0.0
H481 H 0.19839 0.97107 0.47116 0.0
H482 H 0.23546 0.07079 0.56187 0.0
H483 H 0.23585 0.12309 0.58939 0.0
H484 H 0.27069 0.15474 0.52058 0.0
H485 H 0.26998 0.10241 0.49229 0.0
C486 C 0.37048 1.00574 0.51098 0.0
C487 C 0.38568 0.01849 0.49176 0.0
C488 C 0.33801 1.00671 0.51133 0.0
C489 C 0.3204 0.02048 0.49247 0.0
C490 C 0.33586 0.03363 0.4736 0.0
C491 C 0.36818 0.03236 0.47299 0.0
C492 C 0.28536 0.02047 0.49189 0.0
C493 C 0.28356 0.04969 0.50545 0.0
C494 C 0.25441 0.99179 0.47954 0.0
C495 C 0.25473 0.96025 0.46434 0.0
C496 C 0.26465 0.95295 0.43708 0.0
C497 C 0.2658 0.92351 0.42349 0.0
C498 C 0.25673 0.90103 0.43672 0.0
C499 C 0.24639 0.90793 0.46352 0.0
C500 C 0.24531 0.93738 0.47728 0.0
C501 C 0.13697 0.03983 0.48154 0.0
C502 C 0.1189 0.02135 0.49519 0.0
C503 C 0.16977 0.03987 0.48104 0.0
C504 C 0.18539 0.02204 0.49498 0.0
C505 C 0.16722 1.00363 0.50871 0.0
C506 C 0.13419 1.00326 0.50877 0.0
C507 C 0.22048 0.0223 0.49498 0.0
C508 C 0.22237 0.99307 0.48127 0.0
C509 C 0.25167 0.05101 0.50767 0.0
C510 C 0.25232 0.08256 0.52474 0.0
C511 C 0.24295 0.08881 0.55244 0.0
C512 C 0.24326 0.11848 0.5682 0.0
C513 C 0.2532 0.1422 0.55669 0.0
C514 C 0.26294 0.13632 0.52944 0.0
C515 C 0.26261 0.10667 0.51354 0.0
H516 H 0.25344 0.16516 0.56893 0.0
H517 H 0.25764 0.87826 0.42617 0.0
H518 H 0.54438 0.05917 0.38665 0.0
H519 H 0.54305 0.05998 0.33276 0.0
H520 H 0.45584 0.96607 0.27927 0.0
H521 H 0.45538 0.96554 0.33272 0.0
H522 H 0.51812 0.9767 0.2604 0.0
H523 H 0.43239 0.02089 0.27606 0.0
H524 H 0.41361 0.05867 0.30802 0.0
H525 H 0.49847 0.13689 0.31205 0.0
H526 H 0.51811 0.09957 0.28052 0.0
H527 H 0.46927 0.96249 0.09257 0.0
H528 H 0.46833 0.96278 0.14629 0.0
H529 H 0.52799 0.06498 0.19378 0.0
H530 H 0.52654 0.06473 0.13928 0.0
H531 H 0.48112 0.0509 0.21723 0.0
H532 H 0.56822 0.01045 0.20299 0.0
H533 H 0.5914 0.97537 0.17347 0.0
H534 H 0.51154 0.89411 0.17036 0.0
H535 H 0.48753 0.92866 0.19945 0.0
C536 C 0.52442 0.03884 0.3635 0.0
C537 C 0.49992 0.01229 0.36431 0.0
C538 C 0.52397 0.03929 0.33271 0.0
C539 C 0.49937 0.01309 0.30212 0.0
C540 C 0.47518 0.98644 0.30268 0.0
C541 C 0.47517 0.98615 0.33338 0.0
C542 C 0.4988 0.01349 0.26946 0.0
C543 C 0.50964 0.99261 0.25066 0.0
C544 C 0.4889 0.03504 0.2575 0.0
C545 C 0.47696 0.05746 0.27626 0.0
C546 C 0.44726 0.04616 0.28403 0.0
C547 C 0.43641 0.06749 0.30201 0.0
C548 C 0.4549 0.10017 0.31215 0.0
C549 C 0.48421 0.11158 0.30423 0.0
C550 C 0.49519 0.09034 0.28629 0.0
C551 C 0.48194 0.98497 0.11452 0.0
C552 C 0.49837 0.01356 0.11207 0.0
C553 C 0.48174 0.98514 0.14529 0.0
C554 C 0.49894 0.01383 0.17448 0.0
C555 C 0.51474 0.0425 0.17178 0.0
C556 C 0.51417 0.04237 0.14078 0.0
C557 C 0.50036 0.01393 0.20772 0.0
C558 C 0.48973 0.03495 0.22679 0.0
C559 C 0.51123 0.99294 0.22029 0.0
C560 C 0.52587 0.97212 0.20314 0.0
C561 C 0.55547 0.98507 0.19584 0.0
C562 C 0.56877 0.96529 0.17919 0.0
C563 C 0.5529 0.93253 0.16997 0.0
C564 C 0.52378 0.91949 0.17748 0.0
C565 C 0.51033 0.93917 0.19408 0.0
H566 H 0.56322 0.91725 0.15707 0.0
H567 H 0.44646 0.11664 0.32607 0.0
H568 H 0.95355 0.48192 0.12112 0.0
H569 H 0.95299 0.48014 0.1742 0.0
H570 H 0.06699 0.54321 0.22683 0.0
H571 H 0.06803 0.54437 0.17357 0.0
H572 H 0.0522 0.4956 0.24703 0.0
H573 H 0.00333 0.57101 0.23278 0.0
H574 H 0.96209 0.59039 0.20258 0.0
H575 H 0.87032 0.51685 0.1963 0.0
H576 H 0.91099 0.49674 0.22606 0.0
H577 H 0.01223 0.55 0.40563 0.0
H578 H 0.01453 0.554 0.35347 0.0
H579 H 0.99411 0.45476 0.31145 0.0
H580 H 0.99205 0.45096 0.36377 0.0
H581 H 0.96497 0.52403 0.28809 0.0
H582 H 0.04358 0.44616 0.26412 0.0
H583 H 0.08781 0.43067 0.29689 0.0
H584 H 0.12629 0.517 0.38452 0.0
H585 H 0.08278 0.53327 0.35212 0.0
C586 C 0.97862 0.49518 0.1439 0.0
C587 C 0.01085 0.51333 0.14304 0.0
C588 C 0.97817 0.49436 0.17431 0.0
C589 C 0.00986 0.5118 0.2046 0.0
C590 C 0.04218 0.52963 0.2038 0.0
C591 C 0.04265 0.53049 0.17338 0.0
C592 C 0.00921 0.51149 0.23709 0.0
C593 C 0.0331 0.50178 0.25597 0.0
C594 C 0.98471 0.52006 0.24911 0.0
C595 C 0.96019 0.5322 0.23138 0.0
C596 C 0.97433 0.55882 0.22474 0.0
C597 C 0.95106 0.56997 0.20774 0.0
C598 C 0.9136 0.55482 0.19746 0.0
C599 C 0.89934 0.52854 0.20424 0.0
C600 C 0.92249 0.51728 0.22121 0.0
C601 C 0.00811 0.52913 0.38508 0.0
C602 C 0.00197 0.50021 0.38836 0.0
C603 C 0.00932 0.53135 0.35536 0.0
C604 C 0.00475 0.50475 0.32865 0.0
C605 C 0.9981 0.47567 0.33186 0.0
C606 C 0.9968 0.47345 0.36156 0.0
C607 C 0.00747 0.50755 0.29765 0.0
C608 C 0.98399 0.51775 0.27907 0.0
C609 C 0.03276 0.49996 0.28622 0.0
C610 C 0.05964 0.49075 0.30575 0.0
C611 C 0.06161 0.46191 0.29032 0.0
C612 C 0.08655 0.45299 0.30884 0.0
C613 C 0.10977 0.47279 0.34279 0.0
C614 C 0.10822 0.50163 0.35825 0.0
C615 C 0.08341 0.5107 0.33982 0.0
H616 H 0.129 0.46581 0.3571 0.0
H617 H 0.89562 0.56348 0.18429 0.0
H618 H 0.56044 0.03614 0.67125 0.0
H619 H 0.55982 0.03331 0.72406 0.0
H620 H 0.44436 0.9753 0.67265 0.0
H621 H 0.44475 0.97805 0.61986 0.0
H622 H 0.52689 0.05156 0.76278 0.0
H623 H 0.42241 0.92006 0.70394 0.0
H624 H 0.40209 0.87003 0.65471 0.0
H625 H 0.50584 0.90337 0.65069 0.0
H626 H 0.52694 0.95336 0.70016 0.0
H627 H 0.47072 0.02186 0.88691 0.0
H628 H 0.47083 0.02483 0.83389 0.0
H629 H 0.52429 0.96118 0.82482 0.0
H630 H 0.5225 0.95711 0.87698 0.0
H631 H 0.4763 0.94619 0.76582 0.0
H632 H 0.5708 0.04421 0.85466 0.0
H633 H 0.59707 0.09398 0.90585 0.0
H634 H 0.52513 0.12772 0.8534 0.0
H635 H 0.49806 0.07793 0.802 0.0
C636 C 0.53485 0.02304 0.67126 0.0
C637 C 0.50269 1.00711 0.64125 0.0
C638 C 0.53455 0.0214 0.70146 0.0
C639 C 0.50214 1.00376 0.70225 0.0
C640 C 0.46983 0.98854 0.67254 0.0
C641 C 0.47012 0.99007 0.64234 0.0
C642 C 0.50216 1.00079 0.73396 0.0
C643 C 0.5158 0.02853 0.76345 0.0
C644 C 0.48839 0.97075 0.73507 0.0
C645 C 0.47609 0.94058 0.70554 0.0
C646 C 0.44092 0.91665 0.69262 0.0
C647 C 0.42926 0.88831 0.66466 0.0
C648 C 0.45262 0.88357 0.64951 0.0
C649 C 0.48773 0.90711 0.66236 0.0
C650 C 0.49953 0.93547 0.69033 0.0
C651 C 0.48222 0.0084 0.87333 0.0
C652 C 0.49704 0.98961 0.88602 0.0
C653 C 0.48255 0.01026 0.84325 0.0
C654 C 0.49829 0.99377 0.82566 0.0
C655 C 0.51217 0.97426 0.83796 0.0
C656 C 0.51135 0.97205 0.86778 0.0
C657 C 0.50054 0.99698 0.79462 0.0
C658 C 0.48732 0.96926 0.7652 0.0
C659 C 0.51559 0.02704 0.79386 0.0
C660 C 0.5322 0.05722 0.82456 0.0
C661 C 0.56045 0.06217 0.85409 0.0
C662 C 0.57549 0.09039 0.88314 0.0
C663 C 0.56272 0.11397 0.88289 0.0
C664 C 0.53497 0.10942 0.85355 0.0
C665 C 0.51979 0.08122 0.82445 0.0
H666 H 0.57438 0.13579 0.90541 0.0
H667 H 0.44353 0.86162 0.62786 0.0
H668 H 0.02901 0.48825 0.6151 0.0
H669 H 0.03022 0.48965 0.66989 0.0
H670 H 0.98191 0.55723 0.67623 0.0
H671 H 0.98185 0.55651 0.62187 0.0
H672 H 0.03492 0.57378 0.73601 0.0
H673 H 0.93213 0.47669 0.65186 0.0
H674 H 0.90157 0.42462 0.60293 0.0
H675 H 0.96904 0.3893 0.65829 0.0
H676 H 1.00051 0.44128 0.70716 0.0
H677 H 0.98303 0.5584 0.86787 0.0
H678 H 0.98363 0.55916 0.81436 0.0
H679 H 0.02771 0.48863 0.8044 0.0
H680 H 0.02658 0.48743 0.85755 0.0
H681 H 0.97632 0.47376 0.74626 0.0
H682 H 0.08055 0.56901 0.82871 0.0
H683 H 0.11399 0.62076 0.87817 0.0
H684 H 0.04708 0.65909 0.82727 0.0
H685 H 0.0129 0.60741 0.77765 0.0
C686 C 0.01879 0.50342 0.62837 0.0
C687 C 0.00502 0.52205 0.61437 0.0
C688 C 0.01929 0.50411 0.65951 0.0
C689 C 0.00556 0.52313 0.67696 0.0
C690 C 0.99249 0.54227 0.6632 0.0
C691 C 0.99227 0.54177 0.63217 0.0
C692 C 0.00465 0.52296 0.70943 0.0
C693 C 0.02166 0.55195 0.73813 0.0
C694 C 0.9882 0.4944 0.7125 0.0
C695 C 0.96891 0.463 0.68309 0.0
C696 C 0.94063 0.45788 0.65348 0.0
C697 C 0.92314 0.42836 0.62573 0.0
C698 C 0.93343 0.40366 0.6274 0.0
C699 C 0.96115 0.40842 0.65688 0.0
C700 C 0.97882 0.43791 0.68463 0.0
C701 C 0.9931 0.54324 0.85438 0.0
C702 C 0.00476 0.52286 0.86694 0.0
C703 C 0.99348 0.54371 0.8238 0.0
C704 C 0.00612 0.52421 0.80544 0.0
C705 C 0.01775 0.50384 0.81799 0.0
C706 C 0.01705 0.50314 0.84836 0.0
C707 C 0.00669 0.52457 0.7729 0.0
C708 C 0.98954 0.49561 0.74415 0.0
C709 C 0.02332 0.55311 0.76987 0.0
C710 C 0.04394 0.58425 0.7996 0.0
C711 C 0.0728 0.58841 0.82816 0.0
C712 C 0.09191 0.61774 0.85621 0.0
C713 C 0.0826 0.64317 0.8559 0.0
C714 C 0.05422 0.63935 0.82749 0.0
C715 C 0.03499 0.61006 0.79938 0.0
H716 H 0.09743 0.66585 0.87764 0.0
H717 H 0.91987 0.38082 0.6059 0.0
H718 H 0.15151 0.52287 0.06535 0.0
H719 H 0.20752 0.52076 0.0617 0.0
H720 H 0.15573 0.48751 0.95308 0.0
H721 H 0.10021 0.49055 0.95698 0.0
H722 H 0.22492 0.47546 0.03279 0.0
H723 H 0.21716 0.5181 0.92456 0.0
H724 H 0.19209 0.55154 0.90201 0.0
H725 H 0.19876 0.60375 0.99951 0.0
H726 H 0.2244 0.571 0.02277 0.0
H727 H 0.35025 0.44529 0.97048 0.0
H728 H 0.29445 0.44852 0.97314 0.0
H729 H 0.34838 0.55107 0.01685 0.0
H730 H 0.40386 0.54768 0.01296 0.0
H731 H 0.28072 0.53201 0.97315 0.0
H732 H 0.33853 0.51038 0.06589 0.0
H733 H 0.3673 0.48166 0.09365 0.0
H734 H 0.26777 0.397 0.03803 0.0
H735 H 0.23856 0.42506 0.00945 0.0
C736 C 0.15231 0.5151 0.04079 0.0
C737 C 0.12202 0.50722 0.01147 0.0
C738 C 0.18412 0.51377 0.03867 0.0
C739 C 0.18605 0.50444 0.00717 0.0
C740 C 0.15516 0.49539 0.97772 0.0
C741 C 0.12346 0.49694 0.97989 0.0
C742 C 0.22053 0.50476 0.00517 0.0
C743 C 0.23707 0.48778 0.0197 0.0
C744 C 0.23695 0.5215 0.98885 0.0
C745 C 0.22238 0.54186 0.97529 0.0
C746 C 0.21347 0.53683 0.94123 0.0
C747 C 0.19913 0.55565 0.92832 0.0
C748 C 0.19373 0.57968 0.94928 0.0
C749 C 0.20284 0.58506 0.98326 0.0
C750 C 0.21726 0.56637 0.99631 0.0
C751 C 0.34978 0.46844 0.97988 0.0
C752 C 0.38088 0.49626 0.9909 0.0
C753 C 0.31811 0.47031 0.98177 0.0
C754 C 0.31731 0.50005 0.99553 0.0
C755 C 0.3483 0.52788 0.00604 0.0
C756 C 0.37991 0.52597 0.00387 0.0
C757 C 0.28462 0.50209 1.00008 0.0
C758 C 0.26849 0.5196 0.98613 0.0
C759 C 0.26915 0.48659 0.01779 0.0
C760 C 0.28644 0.46976 0.03532 0.0
C761 C 0.32283 0.48558 0.05942 0.0
C762 C 0.33922 0.46942 0.07531 0.0
C763 C 0.31939 0.43751 0.06757 0.0
C764 C 0.2831 0.42171 0.04398 0.0
C765 C 0.26661 0.43774 0.02793 0.0
H766 H 0.33213 0.42503 0.07989 0.0
H767 H 0.18255 0.59417 0.93922 0.0
H768 H 0.44296 0.33926 0.95523 0.0
H769 H 0.4428 0.28849 0.9553 0.0
H770 H 0.54615 0.33867 0.04244 0.0
H771 H 0.54691 0.38934 0.04162 0.0
H772 H 0.54828 0.29061 0.0019 0.0
H773 H 0.46082 0.30251 0.04572 0.0
H774 H 0.40633 0.31107 0.04612 0.0
H775 H 0.33926 0.227 0.9538 0.0
H776 H 0.39342 0.21816 0.95261 0.0
H777 H 0.54274 0.16121 0.0502 0.0
H778 H 0.5422 0.21128 0.04864 0.0
H779 H 0.45034 0.15967 0.95148 0.0
H780 H 0.45139 0.1095 0.95208 0.0
H781 H 0.4419 0.20756 0.99656 0.0
H782 H 0.53091 0.19598 0.95445 0.0
H783 H 0.58598 0.18766 0.95603 0.0
H784 H 0.65098 0.27201 0.0484 0.0
H785 H 0.59618 0.28059 0.04762 0.0
C786 C 0.4655 0.33944 0.97454 0.0
C787 C 0.4949 0.36836 0.99847 0.0
C788 C 0.46537 0.31036 0.97465 0.0
C789 C 0.49421 0.30951 0.99922 0.0
C790 C 0.52356 0.33846 0.02315 0.0
C791 C 0.52397 0.36748 0.0227 0.0
C792 C 0.4942 0.27859 0.99975 0.0
C793 C 0.52514 0.27273 0.00124 0.0
C794 C 0.46385 0.25469 0.99816 0.0
C795 C 0.43122 0.25985 0.99892 0.0
C796 C 0.43447 0.28596 0.02539 0.0
C797 C 0.40365 0.29085 0.02577 0.0
C798 C 0.36937 0.26964 0.99996 0.0
C799 C 0.36583 0.24343 0.97375 0.0
C800 C 0.39658 0.23846 0.97323 0.0
C801 C 0.52268 0.16036 0.02821 0.0
C802 C 0.49713 0.13099 0.00125 0.0
C803 C 0.5223 0.18912 0.02748 0.0
C804 C 0.4963 0.18931 0.99989 0.0
C805 C 0.47055 0.16015 0.97313 0.0
C806 C 0.47111 0.13139 0.97365 0.0
C807 C 0.49596 0.21989 0.99893 0.0
C808 C 0.46498 0.22559 0.99731 0.0
C809 C 0.52638 0.24376 0.00074 0.0
C810 C 0.55938 0.23875 0.00116 0.0
C811 C 0.5569 0.21261 0.97525 0.0
C812 C 0.58807 0.20787 0.97597 0.0
C813 C 0.62194 0.22924 0.00234 0.0
C814 C 0.62472 0.25545 0.02801 0.0
C815 C 0.59361 0.26028 0.02742 0.0
H816 H 0.64605 0.22554 0.00286 0.0
H817 H 0.34553 0.27347 1.00029 0.0
H818 H 0.88834 0.50449 0.02948 0.0
H819 H 0.83174 0.50741 0.03044 0.0
H820 H 0.82943 0.55565 0.96373 0.0
H821 H 0.88583 0.55223 0.96235 0.0
H822 H 0.81428 0.58334 0.02037 0.0
H823 H 0.77662 0.48182 0.9306 0.0
H824 H 0.77785 0.42961 0.90623 0.0
H825 H 0.74359 0.40187 0.97728 0.0
H826 H 0.74284 0.45419 0.00253 0.0
H827 H 0.63077 0.56572 0.98095 0.0
H828 H 0.68885 0.56777 0.97934 0.0
H829 H 0.68645 0.50052 0.02507 0.0
H830 H 0.6277 0.49722 0.02479 0.0
H831 H 0.70441 0.48351 0.97652 0.0
H832 H 0.74459 0.58367 0.06879 0.0
H833 H 0.74628 0.63638 0.09714 0.0
H834 H 0.77786 0.66708 0.02638 0.0
H835 H 0.77588 0.61438 0.99732 0.0
C836 C 0.87564 0.5157 0.01509 0.0
C837 C 0.89119 0.52819 0.99589 0.0
C838 C 0.84347 0.5174 0.01565 0.0
C839 C 0.82643 0.5317 0.9971 0.0
C840 C 0.84228 0.54465 0.97831 0.0
C841 C 0.87429 0.54264 0.97746 0.0
C842 C 0.79148 0.5322 0.99659 0.0
C843 C 0.79004 0.56158 0.01038 0.0
C844 C 0.76023 0.50375 0.98425 0.0
C845 C 0.75998 0.47204 0.96865 0.0
C846 C 0.7696 0.46468 0.9412 0.0
C847 C 0.77019 0.43506 0.92721 0.0
C848 C 0.76087 0.41246 0.94024 0.0
C849 C 0.75084 0.41941 0.96723 0.0
C850 C 0.75031 0.44904 0.98138 0.0
C851 C 0.64304 0.55174 0.99094 0.0
C852 C 0.62526 0.53172 0.00347 0.0
C853 C 0.67622 0.55296 0.99016 0.0
C854 C 0.69241 0.5346 0.0025 0.0
C855 C 0.67465 0.51492 0.0154 0.0
C856 C 0.6413 0.51328 0.0156 0.0
C857 C 0.72707 0.53476 0.00092 0.0
C858 C 0.72849 0.5054 0.98653 0.0
C859 C 0.75843 0.56326 0.0132 0.0
C860 C 0.75971 0.59497 0.03067 0.0
C861 C 0.75162 0.60158 0.05912 0.0
C862 C 0.75268 0.63147 0.07534 0.0
C863 C 0.76207 0.65503 0.06351 0.0
C864 C 0.77053 0.64878 0.03549 0.0
C865 C 0.76947 0.61892 0.01914 0.0
H866 H 0.76288 0.67816 0.07611 0.0
H867 H 0.76135 0.38954 0.92938 0.0
H868 H 0.52561 0.62988 0.95914 0.0
H869 H 0.52524 0.68051 0.95893 0.0
H870 H 0.47899 0.68842 0.03203 0.0
H871 H 0.47892 0.63763 0.03209 0.0
H872 H 0.4448 0.70284 0.98025 0.0
H873 H 0.56757 0.73229 0.05667 0.0
H874 H 0.62699 0.72926 0.07357 0.0
H875 H 0.64287 0.75355 0.99363 0.0
H876 H 0.58327 0.75629 0.97595 0.0
H877 H 0.46956 0.86359 0.02525 0.0
H878 H 0.47043 0.81324 0.0256 0.0
H879 H 0.53201 0.81329 0.96511 0.0
H880 H 0.53221 0.86428 0.96574 0.0
H881 H 0.55824 0.79412 0.00988 0.0
H882 H 0.43681 0.76442 0.93229 0.0
H883 H 0.37685 0.76625 0.91297 0.0
H884 H 0.35733 0.74085 0.99114 0.0
H885 H 0.4174 0.73928 0.01122 0.0
C886 C 0.51516 0.64228 0.97504 0.0
C887 C 0.5024 0.62966 0.99572 0.0
C888 C 0.51521 0.67138 0.97508 0.0
C889 C 0.50237 0.68851 0.99568 0.0
C890 C 0.48914 0.67575 0.01598 0.0
C891 C 0.48937 0.6468 0.01618 0.0
C892 C 0.50263 0.71964 0.99603 0.0
C893 C 0.46966 0.72295 0.98714 0.0
C894 C 0.53488 0.74565 0.00407 0.0
C895 C 0.5708 0.74418 0.01478 0.0
C896 C 0.5836 0.73674 0.04253 0.0
C897 C 0.61734 0.73512 0.05228 0.0
C898 C 0.63865 0.74113 0.03463 0.0
C899 C 0.62631 0.74886 0.00725 0.0
C900 C 0.59257 0.75047 0.99737 0.0
C901 C 0.48313 0.85278 0.01188 0.0
C902 C 0.50063 0.86789 0.99529 0.0
C903 C 0.48352 0.82385 0.01198 0.0
C904 C 0.50067 0.80886 0.9948 0.0
C905 C 0.51852 0.82416 0.97853 0.0
C906 C 0.51862 0.85336 0.97889 0.0
C907 C 0.50031 0.77749 0.99405 0.0
C908 C 0.53328 0.77408 0.00288 0.0
C909 C 0.46796 0.75123 0.98555 0.0
C910 C 0.43175 0.75203 0.97345 0.0
C911 C 0.41983 0.75943 0.9455 0.0
C912 C 0.38581 0.7604 0.9344 0.0
C913 C 0.36333 0.75375 0.95087 0.0
C914 C 0.37479 0.74604 0.97843 0.0
C915 C 0.40881 0.74508 0.98967 0.0
H916 H 0.33701 0.75451 0.94224 0.0
H917 H 0.66476 0.73986 0.04222 0.0
loop_
_geom_bond_atom_site_label_1
_geom_bond_atom_site_label_2
_geom_bond_distance
_geom_bond_site_symmetry_2
_ccdc_geom_bond_type
C0 C1 1.443 . S
C0 N4 1.376 . S
C0 C38 1.388 1_565 S
C1 C0 1.443 . S
C1 C2 1.340 . S
C1 H41 0.951 . S
C2 C1 1.340 . S
C2 C3 1.439 . S
C2 H42 0.950 . S
C3 C2 1.439 . S
C3 N4 1.374 . S
C3 C37 1.395 . S
N4 C0 1.376 . S
N4 C3 1.374 . S
N4 Co5 1.992 1_665 S
Co5 N4 1.992 1_445 S
Co5 N6 2.011 1_545 S
Co5 N11 2.024 . S
Co5 N16 1.979 1_455 S
Co5 N21 2.287 1_445 S
Co5 N27 2.278 . S
N6 Co5 2.011 1_565 S
N6 C7 1.377 . S
N6 C10 1.383 . S
C7 N6 1.377 . S
C7 C8 1.455 . S
C7 C37 1.382 1_455 S
C8 C7 1.455 . S
C8 C9 1.339 . S
C8 H43 0.949 . S
C9 C8 1.339 . S
C9 C10 1.439 . S
C9 H44 0.950 . S
C10 N6 1.383 . S
C10 C9 1.439 . S
C10 C39 1.392 1_565 S
N11 Co5 2.024 . S
N11 C12 1.376 . S
N11 C15 1.374 . S
C12 N11 1.376 . S
C12 C13 1.443 . S
C12 C39 1.389 . S
C13 C12 1.443 . S
C13 C14 1.340 . S
C13 H45 0.951 . S
C14 C13 1.340 . S
C14 C15 1.439 . S
C14 H46 0.950 . S
C15 N11 1.374 . S
C15 C14 1.439 . S
C15 C40 1.395 . S
N16 Co5 1.979 1_655 S
N16 C17 1.372 1_655 S
N16 C20 1.383 . S
C17 N16 1.372 1_455 S
C17 C18 1.414 1_455 S
C17 C40 1.422 . S
C18 C17 1.414 1_655 S
C18 C19 1.339 . S
C18 H47 0.949 . S
C19 C18 1.339 . S
C19 C20 1.439 . S
C19 H48 0.950 . S
C20 N16 1.383 . S
C20 C19 1.439 . S
C20 C38 1.389 . S
N21 Co5 2.287 1_665 S
N21 C24 1.332 1_655 S
N21 C26 1.332 . S
C22 C23 1.389 1_655 S
C22 C25 1.388 . S
C23 C22 1.389 1_455 S
C23 C24 1.384 . S
C23 H49 0.950 . S
C24 N21 1.332 1_455 S
C24 C23 1.384 . S
C24 H35 0.949 . S
C25 C22 1.388 . S
C25 C26 1.382 . S
C25 H50 0.950 . S
C26 N21 1.332 . S
C26 C25 1.382 . S
C26 H36 0.948 . S
N27 Co5 2.278 . S
N27 C31 1.332 . S
N27 C32 1.332 . S
C28 C29 1.388 . S
C28 C32 1.382 . S
C28 H51 0.950 . S
C29 C28 1.388 . S
C29 C30 1.386 1_455 S
C30 C29 1.386 1_655 S
C30 C31 1.382 1_655 S
C30 H52 0.950 . S
C31 N27 1.332 . S
C31 C30 1.382 1_455 S
C31 H33 0.952 1_455 S
C32 N27 1.332 . S
C32 C28 1.382 . S
C32 H34 0.948 . S
H33 C31 0.952 1_655 S
H34 C32 0.948 . S
H35 C24 0.949 . S
H36 C26 0.948 . S
C37 C3 1.395 . S
C37 C7 1.382 1_655 S
C38 C0 1.388 1_545 S
C38 C20 1.389 . S
C39 C10 1.392 1_545 S
C39 C12 1.389 . S
C40 C15 1.395 . S
C40 C17 1.422 . S
H41 C1 0.951 . S
H42 C2 0.950 . S
H43 C8 0.949 . S
H44 C9 0.950 . S
H45 C13 0.951 . S
H46 C14 0.950 . S
H47 C18 0.949 . S
H48 C19 0.950 . S
H49 C23 0.950 . S
H50 C25 0.950 . S
H51 C28 0.950 . S
H52 C30 0.950 . S
C53 C54 1.443 . S
C53 N57 1.376 . S
C53 C91 1.389 . S
C54 C53 1.443 . S
C54 C55 1.340 . S
C54 H94 0.951 . S
C55 C54 1.340 . S
C55 C56 1.439 . S
C55 H95 0.950 . S
C56 C55 1.439 . S
C56 N57 1.374 . S
C56 C90 1.395 . S
N57 C53 1.376 . S
N57 C56 1.374 . S
N57 Co58 2.019 . S
Co58 N57 2.019 . S
Co58 N59 1.984 1_554 S
Co58 N64 1.997 1_544 S
Co58 N69 2.006 1_545 S
Co58 N74 2.279 . S
Co58 N80 2.286 1_544 S
N59 Co58 1.984 1_556 S
N59 C60 1.373 1_556 S
N59 C63 1.383 . S
C60 N59 1.373 1_554 S
C60 C61 1.421 1_554 S
C60 C90 1.416 . S
C61 C60 1.421 1_556 S
C61 C62 1.339 . S
C61 H96 0.949 . S
C62 C61 1.339 . S
C62 C63 1.439 . S
C62 H97 0.950 . S
C63 N59 1.383 . S
C63 C62 1.439 . S
C63 C92 1.389 . S
N64 Co58 1.997 1_566 S
N64 C65 1.376 . S
N64 C68 1.374 . S
C65 N64 1.376 . S
C65 C66 1.443 . S
C65 C92 1.388 1_565 S
C66 C65 1.443 . S
C66 C67 1.340 . S
C66 H98 0.951 . S
C67 C66 1.340 . S
C67 C68 1.439 . S
C67 H99 0.950 . S
C68 N64 1.374 . S
C68 C67 1.439 . S
C68 C93 1.395 . S
N69 Co58 2.006 1_565 S
N69 C70 1.376 . S
N69 C73 1.383 . S
C70 N69 1.376 . S
C70 C71 1.449 . S
C70 C93 1.389 1_554 S
C71 C70 1.449 . S
C71 C72 1.339 . S
C71 H100 0.949 . S
C72 C71 1.339 . S
C72 C73 1.439 . S
C72 H101 0.950 . S
C73 N69 1.383 . S
C73 C72 1.439 . S
C73 C91 1.392 1_565 S
N74 Co58 2.279 . S
N74 C77 1.332 . S
N74 C79 1.332 . S
C75 C76 1.386 1_554 S
C75 C78 1.388 . S
C76 C75 1.386 1_556 S
C76 C77 1.370 1_556 S
C76 H102 0.950 . S
C77 N74 1.332 . S
C77 C76 1.370 1_554 S
C77 H88 0.965 1_554 S
C78 C75 1.388 . S
C78 C79 1.382 . S
C78 H103 0.950 . S
C79 N74 1.332 . S
C79 C78 1.382 . S
C79 H89 0.948 . S
N80 Co58 2.286 1_566 S
N80 C84 1.332 1_556 S
N80 C85 1.332 . S
C81 C82 1.388 . S
C81 C85 1.382 . S
C81 H104 0.950 . S
C82 C81 1.388 . S
C82 C83 1.391 1_556 S
C83 C82 1.391 1_554 S
C83 C84 1.381 . S
C83 H105 0.950 . S
C84 N80 1.332 1_554 S
C84 C83 1.381 . S
C84 H86 0.952 . S
C85 N80 1.332 . S
C85 C81 1.382 . S
C85 H87 0.948 . S
H86 C84 0.952 . S
H87 C85 0.948 . S
H88 C77 0.965 1_556 S
H89 C79 0.948 . S
C90 C56 1.395 . S
C90 C60 1.416 . S
C91 C53 1.389 . S
C91 C73 1.392 1_545 S
C92 C63 1.389 . S
C92 C65 1.388 1_545 S
C93 C68 1.395 . S
C93 C70 1.389 1_556 S
H94 C54 0.951 . S
H95 C55 0.950 . S
H96 C61 0.949 . S
H97 C62 0.950 . S
H98 C66 0.951 . S
H99 C67 0.950 . S
H100 C71 0.949 . S
H101 C72 0.950 . S
H102 C76 0.950 . S
H103 C78 0.950 . S
H104 C81 0.950 . S
H105 C83 0.950 . S
C106 C107 1.443 . S
C106 N110 1.376 . S
C106 C144 1.389 . S
C107 C106 1.443 . S
C107 C108 1.340 . S
C107 H147 0.951 . S
C108 C107 1.340 . S
C108 C109 1.439 . S
C108 H148 0.950 . S
C109 C108 1.439 . S
C109 N110 1.374 . S
C109 C143 1.395 . S
N110 C106 1.376 . S
N110 C109 1.374 . S
N110 Co111 2.020 . S
Co111 N110 2.020 . S
Co111 N112 1.981 1_455 S
Co111 N117 1.996 1_454 S
Co111 N122 2.009 1_554 S
Co111 N127 2.295 . S
Co111 N133 2.270 1_454 S
N112 Co111 1.981 1_655 S
N112 C113 1.372 1_655 S
N112 C116 1.383 . S
C113 N112 1.372 1_455 S
C113 C114 1.414 1_455 S
C113 C143 1.422 . S
C114 C113 1.414 1_655 S
C114 C115 1.339 . S
C114 H149 0.949 . S
C115 C114 1.339 . S
C115 C116 1.439 . S
C115 H150 0.950 . S
C116 N112 1.383 . S
C116 C115 1.439 . S
C116 C145 1.398 1_554 S
N117 Co111 1.996 1_656 S
N117 C118 1.376 . S
N117 C121 1.374 . S
C118 N117 1.376 . S
C118 C119 1.443 . S
C118 C145 1.391 . S
C119 C118 1.443 . S
C119 C120 1.340 . S
C119 H151 0.951 . S
C120 C119 1.340 . S
C120 C121 1.439 . S
C120 H152 0.950 . S
C121 N117 1.374 . S
C121 C120 1.439 . S
C121 C146 1.395 . S
N122 Co111 2.009 1_556 S
N122 C123 1.377 . S
N122 C126 1.383 . S
C123 N122 1.377 . S
C123 C124 1.455 . S
C123 C146 1.383 1_455 S
C124 C123 1.455 . S
C124 C125 1.339 . S
C124 H153 0.949 . S
C125 C124 1.339 . S
C125 C126 1.439 . S
C125 H154 0.950 . S
C126 N122 1.383 . S
C126 C125 1.439 . S
C126 C144 1.392 1_556 S
N127 Co111 2.295 . S
N127 C130 1.332 . S
N127 C132 1.332 . S
C128 C129 1.386 1_455 S
C128 C131 1.388 . S
C129 C128 1.386 1_655 S
C129 C130 1.382 1_655 S
C129 H155 0.950 . S
C130 N127 1.332 . S
C130 C129 1.382 1_455 S
C130 H141 0.952 1_455 S
C131 C128 1.388 . S
C131 C132 1.382 . S
C131 H156 0.950 . S
C132 N127 1.332 . S
C132 C131 1.382 . S
C132 H142 0.948 . S
N133 Co111 2.270 1_656 S
N133 C137 1.332 1_655 S
N133 C138 1.332 . S
C134 C135 1.388 . S
C134 C138 1.382 . S
C134 H157 0.950 . S
C135 C134 1.388 . S
C135 C136 1.389 1_655 S
C136 C135 1.389 1_455 S
C136 C137 1.384 . S
C136 H158 0.950 . S
C137 N133 1.332 1_455 S
C137 C136 1.384 . S
C137 H139 0.949 . S
C138 N133 1.332 . S
C138 C134 1.382 . S
C138 H140 0.948 . S
H139 C137 0.949 . S
H140 C138 0.948 . S
H141 C130 0.952 1_655 S
H142 C132 0.948 . S
C143 C109 1.395 . S
C143 C113 1.422 . S
C144 C106 1.389 . S
C144 C126 1.392 1_554 S
C145 C116 1.398 1_556 S
C145 C118 1.391 . S
C146 C121 1.395 . S
C146 C123 1.383 1_655 S
H147 C107 0.951 . S
H148 C108 0.950 . S
H149 C114 0.949 . S
H150 C115 0.950 . S
H151 C119 0.951 . S
H152 C120 0.950 . S
H153 C124 0.949 . S
H154 C125 0.950 . S
H155 C129 0.950 . S
H156 C131 0.950 . S
H157 C134 0.950 . S
H158 C136 0.950 . S
C159 C160 1.443 . S
C159 N163 1.376 . S
C159 C197 1.391 1_556 S
C160 C159 1.443 . S
C160 C161 1.340 . S
C160 H200 0.951 . S
C161 C160 1.340 . S
C161 C162 1.439 . S
C161 H201 0.950 . S
C162 C161 1.439 . S
C162 N163 1.374 . S
C162 C196 1.395 . S
N163 C159 1.376 . S
N163 C162 1.374 . S
N163 Co164 1.995 1_556 S
Co164 N163 1.995 1_554 S
Co164 N165 1.989 1_554 S
Co164 N170 2.021 . S
Co164 N175 2.000 . S
Co164 N180 2.277 1_554 S
Co164 N186 2.288 . S
N165 Co164 1.989 1_556 S
N165 C166 1.376 . S
N165 C169 1.383 . S
C166 N165 1.376 . S
C166 C167 1.446 . S
C166 C196 1.391 . S
C167 C166 1.446 . S
C167 C168 1.339 . S
C167 H202 0.949 . S
C168 C167 1.339 . S
C168 C169 1.439 . S
C168 H203 0.950 . S
C169 N165 1.383 . S
C169 C168 1.439 . S
C169 C198 1.362 1_556 S
N170 Co164 2.021 . S
N170 C171 1.376 . S
N170 C174 1.374 . S
C171 N170 1.376 . S
C171 C172 1.443 . S
C171 C198 1.410 . S
C172 C171 1.443 . S
C172 C173 1.340 . S
C172 H204 0.951 . S
C173 C172 1.340 . S
C173 C174 1.439 . S
C173 H205 0.950 . S
C174 N170 1.374 . S
C174 C173 1.439 . S
C174 C199 1.395 . S
N175 Co164 2.000 . S
N175 C176 1.376 . S
N175 C179 1.383 . S
C176 N175 1.376 . S
C176 C177 1.446 . S
C176 C199 1.391 . S
C177 C176 1.446 . S
C177 C178 1.339 . S
C177 H206 0.949 . S
C178 C177 1.339 . S
C178 C179 1.439 . S
C178 H207 0.950 . S
C179 N175 1.383 . S
C179 C178 1.439 . S
C179 C197 1.389 . S
N180 Co164 2.277 1_556 S
N180 C183 1.332 1_556 S
N180 C185 1.332 . S
C181 C182 1.386 . S
C181 C184 1.388 1_554 S
C182 C181 1.386 . S
C182 C183 1.382 . S
C182 H208 0.950 . S
C183 N180 1.332 1_554 S
C183 C182 1.382 . S
C183 H194 0.952 . S
C184 C181 1.388 1_556 S
C184 C185 1.382 . S
C184 H209 0.950 . S
C185 N180 1.332 . S
C185 C184 1.382 . S
C185 H195 0.948 . S
N186 Co164 2.288 . S
N186 C190 1.332 1_554 S
N186 C191 1.332 . S
C187 C188 1.404 . S
C187 C191 1.382 . S
C187 H210 0.950 . S
C188 C187 1.404 . S
C188 C189 1.362 1_554 S
C189 C188 1.362 1_556 S
C189 C190 1.382 . S
C189 H211 0.950 . S
C190 N186 1.332 1_556 S
C190 C189 1.382 . S
C190 H192 0.952 . S
C191 N186 1.332 . S
C191 C187 1.382 . S
C191 H193 0.948 . S
H192 C190 0.952 . S
H193 C191 0.948 . S
H194 C183 0.952 . S
H195 C185 0.948 . S
C196 C162 1.395 . S
C196 C166 1.391 . S
C197 C159 1.391 1_554 S
C197 C179 1.389 . S
C198 C169 1.362 1_554 S
C198 C171 1.410 . S
C199 C174 1.395 . S
C199 C176 1.391 . S
H200 C160 0.951 . S
H201 C161 0.950 . S
H202 C167 0.949 . S
H203 C168 0.950 . S
H204 C172 0.951 . S
H205 C173 0.950 . S
H206 C177 0.949 . S
H207 C178 0.950 . S
H208 C182 0.950 . S
H209 C184 0.950 . S
H210 C187 0.950 . S
H211 C189 0.950 . S
C212 C213 1.443 . S
C212 N216 1.376 . S
C212 C250 1.389 . S
C213 C212 1.443 . S
C213 C214 1.340 . S
C213 H253 0.951 . S
C214 C213 1.340 . S
C214 C215 1.439 . S
C214 H254 0.950 . S
C215 C214 1.439 . S
C215 N216 1.374 . S
C215 C249 1.395 . S
N216 C212 1.376 . S
N216 C215 1.374 . S
N216 Co217 2.018 . S
Co217 N216 2.018 . S
Co217 N218 2.015 . S
Co217 N223 1.998 1_455 S
Co217 N228 1.975 1_455 S
Co217 N233 2.276 . S
Co217 N239 2.289 1_455 S
N218 Co217 2.015 . S
N218 C219 1.376 . S
N218 C222 1.383 . S
C219 N218 1.376 . S
C219 C220 1.446 . S
C219 C249 1.391 . S
C220 C219 1.446 . S
C220 C221 1.339 . S
C220 H255 0.949 . S
C221 C220 1.339 . S
C221 C222 1.439 . S
C221 H256 0.950 . S
C222 N218 1.383 . S
C222 C221 1.439 . S
C222 C251 1.395 . S
N223 Co217 1.998 1_655 S
N223 C224 1.376 . S
N223 C227 1.374 . S
C224 N223 1.376 . S
C224 C225 1.443 . S
C224 C251 1.385 1_655 S
C225 C224 1.443 . S
C225 C226 1.340 . S
C225 H257 0.951 . S
C226 C225 1.340 . S
C226 C227 1.439 . S
C226 H258 0.950 . S
C227 N223 1.374 . S
C227 C226 1.439 . S
C227 C252 1.395 . S
N228 Co217 1.975 1_655 S
N228 C229 1.376 . S
N228 C232 1.383 . S
C229 N228 1.376 . S
C229 C230 1.446 . S
C229 C252 1.391 . S
C230 C229 1.446 . S
C230 C231 1.339 . S
C230 H259 0.949 . S
C231 C230 1.339 . S
C231 C232 1.439 . S
C231 H260 0.950 . S
C232 N228 1.383 . S
C232 C231 1.439 . S
C232 C250 1.392 1_655 S
N233 Co217 2.276 . S
N233 C236 1.332 1_455 S
N233 C238 1.332 . S
C234 C235 1.386 1_455 S
C234 C237 1.388 . S
C235 C234 1.386 1_655 S
C235 C236 1.382 . S
C235 H261 0.950 . S
C236 N233 1.332 1_655 S
C236 C235 1.382 . S
C236 H247 0.952 . S
C237 C234 1.388 . S
C237 C238 1.382 . S
C237 H262 0.950 . S
C238 N233 1.332 . S
C238 C237 1.382 . S
C238 H248 0.948 . S
N239 Co217 2.289 1_655 S
N239 C243 1.332 1_655 S
N239 C244 1.332 . S
C240 C241 1.381 1_655 S
C240 C244 1.382 . S
C240 H263 0.950 . S
C241 C240 1.381 1_455 S
C241 C242 1.391 . S
C242 C241 1.391 . S
C242 C243 1.382 . S
C242 H264 0.950 . S
C243 N239 1.332 1_455 S
C243 C242 1.382 . S
C243 H245 0.952 . S
C244 N239 1.332 . S
C244 C240 1.382 . S
C244 H246 0.948 . S
H245 C243 0.952 . S
H246 C244 0.948 . S
H247 C236 0.952 . S
H248 C238 0.948 . S
C249 C215 1.395 . S
C249 C219 1.391 . S
C250 C212 1.389 . S
C250 C232 1.392 1_455 S
C251 C222 1.395 . S
C251 C224 1.385 1_455 S
C252 C227 1.395 . S
C252 C229 1.391 . S
H253 C213 0.951 . S
H254 C214 0.950 . S
H255 C220 0.949 . S
H256 C221 0.950 . S
H257 C225 0.951 . S
H258 C226 0.950 . S
H259 C230 0.949 . S
H260 C231 0.950 . S
H261 C235 0.950 . S
H262 C237 0.950 . S
H263 C240 0.950 . S
H264 C242 0.950 . S
C265 C266 1.443 . S
C265 N269 1.376 . S
C265 C303 1.389 . S
C266 C265 1.443 . S
C266 C267 1.340 . S
C266 H306 0.951 . S
C267 C266 1.340 . S
C267 C268 1.439 . S
C267 H307 0.950 . S
C268 C267 1.439 . S
C268 N269 1.374 . S
C268 C302 1.395 . S
N269 C265 1.376 . S
N269 C268 1.374 . S
N269 Co270 2.008 . S
Co270 N269 2.008 . S
Co270 N271 1.995 . S
Co270 N276 2.008 1_545 S
Co270 N281 1.995 1_545 S
Co270 N286 2.282 . S
Co270 N292 2.295 1_545 S
N271 Co270 1.995 . S
N271 C272 1.376 . S
N271 C275 1.383 . S
C272 N271 1.376 . S
C272 C273 1.446 . S
C272 C302 1.391 . S
C273 C272 1.446 . S
C273 C274 1.339 . S
C273 H308 0.949 . S
C274 C273 1.339 . S
C274 C275 1.439 . S
C274 H309 0.950 . S
C275 N271 1.383 . S
C275 C274 1.439 . S
C275 C304 1.392 . S
N276 Co270 2.008 1_565 S
N276 C277 1.376 . S
N276 C280 1.374 . S
C277 N276 1.376 . S
C277 C278 1.443 . S
C277 C304 1.389 1_565 S
C278 C277 1.443 . S
C278 C279 1.340 . S
C278 H310 0.951 . S
C279 C278 1.340 . S
C279 C280 1.439 . S
C279 H311 0.950 . S
C280 N276 1.374 . S
C280 C279 1.439 . S
C280 C305 1.395 . S
N281 Co270 1.995 1_565 S
N281 C282 1.376 . S
N281 C285 1.383 . S
C282 N281 1.376 . S
C282 C283 1.446 . S
C282 C305 1.391 . S
C283 C282 1.446 . S
C283 C284 1.339 . S
C283 H312 0.949 . S
C284 C283 1.339 . S
C284 C285 1.439 . S
C284 H313 0.950 . S
C285 N281 1.383 . S
C285 C284 1.439 . S
C285 C303 1.392 1_565 S
N286 Co270 2.282 . S
N286 C289 1.332 1_545 S
N286 C291 1.332 . S
C287 C288 1.386 1_545 S
C287 C290 1.388 . S
C288 C287 1.386 1_565 S
C288 C289 1.382 . S
C288 H314 0.950 . S
C289 N286 1.332 1_565 S
C289 C288 1.382 . S
C289 H300 0.952 . S
C290 C287 1.388 . S
C290 C291 1.382 . S
C290 H315 0.950 . S
C291 N286 1.332 . S
C291 C290 1.382 . S
C291 H301 0.948 . S
N292 Co270 2.295 1_565 S
N292 C296 1.292 1_565 S
N292 C297 1.360 . S
C293 C294 1.388 1_565 S
C293 C297 1.382 . S
C293 H316 0.950 . S
C294 C293 1.388 1_545 S
C294 C295 1.386 . S
C295 C294 1.386 . S
C295 C296 1.382 . S
C295 H317 0.950 . S
C296 N292 1.292 1_545 S
C296 C295 1.382 . S
C296 H298 0.952 . S
C297 N292 1.360 . S
C297 C293 1.382 . S
C297 H299 0.948 . S
H298 C296 0.952 . S
H299 C297 0.948 . S
H300 C289 0.952 . S
H301 C291 0.948 . S
C302 C268 1.395 . S
C302 C272 1.391 . S
C303 C265 1.389 . S
C303 C285 1.392 1_545 S
C304 C275 1.392 . S
C304 C277 1.389 1_545 S
C305 C280 1.395 . S
C305 C282 1.391 . S
H306 C266 0.951 . S
H307 C267 0.950 . S
H308 C273 0.949 . S
H309 C274 0.950 . S
H310 C278 0.951 . S
H311 C279 0.950 . S
H312 C283 0.949 . S
H313 C284 0.950 . S
H314 C288 0.950 . S
H315 C290 0.950 . S
H316 C293 0.950 . S
H317 C295 0.950 . S
H318 C336 0.951 . S
H319 C338 0.951 . S
H320 C340 0.950 . S
H321 C341 0.950 . S
H322 C343 0.950 . S
H323 C346 0.950 . S
H324 C347 0.950 . S
H325 C349 0.950 . S
H326 C350 0.950 . S
H327 C351 0.951 . S
H328 C353 0.951 . S
H329 C355 0.950 . S
H330 C356 0.950 . S
H331 C358 0.950 . S
H332 C361 0.950 . S
H333 C362 0.950 . S
H334 C364 0.950 . S
H335 C365 0.950 . S
C336 H318 0.951 . S
C336 C337 1.364 1_655 S
C336 C338 1.388 . S
C337 C336 1.364 1_455 S
C337 C341 1.381 . S
C338 H319 0.951 . S
C338 C336 1.388 . S
C338 C339 1.366 1_655 S
C339 C338 1.366 1_455 S
C339 C340 1.414 . S
C339 C342 1.499 . S
C340 H320 0.950 . S
C340 C339 1.414 . S
C340 C341 1.374 . S
C341 H321 0.950 . S
C341 C337 1.381 . S
C341 C340 1.374 . S
C342 C339 1.499 . S
C342 C343 1.373 1_455 S
C342 C344 1.389 . S
C343 H322 0.950 . S
C343 C342 1.373 1_655 S
C343 C359 1.377 . S
C344 C342 1.389 . S
C344 C345 1.524 . S
C344 C358 1.377 . S
C345 C344 1.524 . S
C345 C346 1.397 . S
C345 C350 1.363 . S
C346 H323 0.950 . S
C346 C345 1.397 . S
C346 C347 1.334 . S
C347 H324 0.950 . S
C347 C346 1.334 . S
C347 C348 1.287 . S
C348 C347 1.287 . S
C348 C349 1.524 . S
C348 H367 0.913 . S
C349 H325 0.950 . S
C349 C348 1.524 . S
C349 C350 1.415 . S
C350 H326 0.950 . S
C350 C345 1.363 . S
C350 C349 1.415 . S
C351 H327 0.951 . S
C351 C352 1.369 . S
C351 C353 1.388 . S
C352 C351 1.369 . S
C352 C356 1.389 1_455 S
C353 H328 0.951 . S
C353 C351 1.388 . S
C353 C354 1.366 1_455 S
C354 C353 1.366 1_655 S
C354 C355 1.414 . S
C354 C357 1.499 . S
C355 H329 0.950 . S
C355 C354 1.414 . S
C355 C356 1.374 . S
C356 H330 0.950 . S
C356 C352 1.389 1_655 S
C356 C355 1.374 . S
C357 C354 1.499 . S
C357 C358 1.373 1_655 S
C357 C359 1.389 . S
C358 H331 0.950 . S
C358 C344 1.377 . S
C358 C357 1.373 1_455 S
C359 C343 1.377 . S
C359 C357 1.389 . S
C359 C360 1.524 . S
C360 C359 1.524 . S
C360 C361 1.397 . S
C360 C365 1.363 . S
C361 H332 0.950 . S
C361 C360 1.397 . S
C361 C362 1.334 . S
C362 H333 0.950 . S
C362 C361 1.334 . S
C362 C363 1.287 . S
C363 C362 1.287 . S
C363 C364 1.524 . S
C363 H366 0.999 . S
C364 H334 0.950 . S
C364 C363 1.524 . S
C364 C365 1.415 . S
C365 H335 0.950 . S
C365 C360 1.363 . S
C365 C364 1.415 . S
H366 C363 0.999 . S
H367 C348 0.913 . S
H368 C386 0.951 . S
H369 C388 0.951 . S
H370 C390 0.950 . S
H371 C391 0.950 . S
H372 C393 0.950 . S
H373 C396 0.950 . S
H374 C397 0.950 . S
H375 C399 0.950 . S
H376 C400 0.950 1_545 S
H377 C401 0.951 . S
H378 C403 0.951 . S
H379 C405 0.950 . S
H380 C406 0.950 . S
H381 C408 0.950 . S
H382 C411 0.950 . S
H383 C412 0.950 . S
H384 C414 0.950 . S
H385 C415 0.950 1_565 S
C386 H368 0.951 . S
C386 C387 1.366 . S
C386 C388 1.388 . S
C387 C386 1.366 . S
C387 C391 1.385 1_545 S
C388 H369 0.951 . S
C388 C386 1.388 . S
C388 C389 1.366 1_545 S
C389 C388 1.366 1_565 S
C389 C390 1.413 . S
C389 C392 1.508 . S
C390 H370 0.950 . S
C390 C389 1.413 . S
C390 C391 1.374 . S
C391 H371 0.950 . S
C391 C387 1.385 1_565 S
C391 C390 1.374 . S
C392 C389 1.508 . S
C392 C393 1.354 1_565 S
C392 C394 1.399 . S
C393 H372 0.950 . S
C393 C392 1.354 1_545 S
C393 C409 1.377 . S
C394 C392 1.399 . S
C394 C395 1.524 . S
C394 C408 1.377 . S
C395 C394 1.524 . S
C395 C396 1.397 . S
C395 C400 1.363 . S
C396 H373 0.950 . S
C396 C395 1.397 . S
C396 C397 1.334 . S
C397 H374 0.950 . S
C397 C396 1.334 . S
C397 C398 1.287 . S
C398 C397 1.287 . S
C398 C399 1.524 . S
C398 H417 0.913 . S
C399 H375 0.950 . S
C399 C398 1.524 . S
C399 C400 1.415 . S
C400 H376 0.950 1_565 S
C400 C395 1.363 . S
C400 C399 1.415 . S
C401 H377 0.951 . S
C401 C402 1.366 1_565 S
C401 C403 1.388 . S
C402 C401 1.366 1_545 S
C402 C406 1.385 . S
C403 H378 0.951 . S
C403 C401 1.388 . S
C403 C404 1.366 1_565 S
C404 C403 1.366 1_545 S
C404 C405 1.414 . S
C404 C407 1.499 . S
C405 H379 0.950 . S
C405 C404 1.414 . S
C405 C406 1.374 . S
C406 H380 0.950 . S
C406 C402 1.385 . S
C406 C405 1.374 . S
C407 C404 1.499 . S
C407 C408 1.373 1_545 S
C407 C409 1.389 . S
C408 H381 0.950 . S
C408 C394 1.377 . S
C408 C407 1.373 1_565 S
C409 C393 1.377 . S
C409 C407 1.389 . S
C409 C410 1.524 . S
C410 C409 1.524 . S
C410 C411 1.397 . S
C410 C415 1.363 . S
C411 H382 0.950 . S
C411 C410 1.397 . S
C411 C412 1.334 . S
C412 H383 0.950 . S
C412 C411 1.334 . S
C412 C413 1.287 . S
C413 C412 1.287 . S
C413 C414 1.524 . S
C413 H416 0.999 . S
C414 H384 0.950 . S
C414 C413 1.524 . S
C414 C415 1.415 . S
C415 H385 0.950 1_545 S
C415 C410 1.363 . S
C415 C414 1.415 . S
H416 C413 0.999 . S
H417 C398 0.913 . S
H418 C436 0.951 . S
H419 C438 0.951 . S
H420 C440 0.950 . S
H421 C441 0.950 . S
H422 C443 0.950 . S
H423 C446 0.950 . S
H424 C447 0.950 1_655 S
H425 C449 0.950 . S
H426 C450 0.950 . S
H427 C451 0.951 . S
H428 C453 0.951 . S
H429 C455 0.950 . S
H430 C456 0.950 . S
H431 C458 0.950 . S
H432 C461 0.950 . S
H433 C462 0.947 1_455 S
H434 C464 0.950 . S
H435 C465 0.950 . S
C436 H418 0.951 . S
C436 C437 1.376 . S
C436 C438 1.388 . S
C437 C436 1.376 . S
C437 C441 1.367 1_455 S
C438 H419 0.951 . S
C438 C436 1.388 . S
C438 C439 1.366 1_455 S
C439 C438 1.366 1_655 S
C439 C440 1.414 . S
C439 C442 1.498 . S
C440 H420 0.950 . S
C440 C439 1.414 . S
C440 C441 1.374 . S
C441 H421 0.950 . S
C441 C437 1.367 1_655 S
C441 C440 1.374 . S
C442 C439 1.498 . S
C442 C443 1.373 . S
C442 C444 1.389 1_655 S
C443 H422 0.950 . S
C443 C442 1.373 . S
C443 C459 1.377 . S
C444 C442 1.389 1_455 S
C444 C445 1.524 . S
C444 C458 1.377 . S
C445 C444 1.524 . S
C445 C446 1.397 1_455 S
C445 C450 1.363 . S
C446 H423 0.950 . S
C446 C445 1.397 1_655 S
C446 C447 1.334 1_655 S
C447 H424 0.950 1_455 S
C447 C446 1.334 1_455 S
C447 C448 1.287 . S
C448 C447 1.287 . S
C448 C449 1.524 . S
C448 H467 0.913 . S
C449 H425 0.950 . S
C449 C448 1.524 . S
C449 C450 1.415 . S
C450 H426 0.950 . S
C450 C445 1.363 . S
C450 C449 1.415 . S
C451 H427 0.951 . S
C451 C452 1.356 1_655 S
C451 C453 1.388 . S
C452 C451 1.356 1_455 S
C452 C456 1.402 . S
C453 H428 0.951 . S
C453 C451 1.388 . S
C453 C454 1.366 1_655 S
C454 C453 1.366 1_455 S
C454 C455 1.414 . S
C454 C457 1.499 . S
C455 H429 0.950 . S
C455 C454 1.414 . S
C455 C456 1.374 . S
C456 H430 0.950 . S
C456 C452 1.402 . S
C456 C455 1.374 . S
C457 C454 1.499 . S
C457 C458 1.373 . S
C457 C459 1.389 1_455 S
C458 H431 0.950 . S
C458 C444 1.377 . S
C458 C457 1.373 . S
C459 C443 1.377 . S
C459 C457 1.389 1_655 S
C459 C460 1.524 . S
C460 C459 1.524 . S
C460 C461 1.397 1_655 S
C460 C465 1.363 . S
C461 H432 0.950 . S
C461 C460 1.397 1_455 S
C461 C462 1.335 1_455 S
C462 H433 0.947 1_655 S
C462 C461 1.335 1_655 S
C462 C463 1.290 . S
C463 C462 1.290 . S
C463 C464 1.524 . S
C463 H466 0.999 . S
C464 H434 0.950 . S
C464 C463 1.524 . S
C464 C465 1.415 . S
C465 H435 0.950 . S
C465 C460 1.363 . S
C465 C464 1.415 . S
H466 C463 0.999 . S
H467 C448 0.913 . S
H468 C486 0.944 1_565 S
H469 C488 0.958 . S
H470 C490 0.950 . S
H471 C491 0.950 . S
H472 C493 0.950 . S
H473 C496 0.950 . S
H474 C497 0.950 . S
H475 C499 0.950 . S
H476 C500 0.950 . S
H477 C501 0.951 . S
H478 C503 0.951 . S
H479 C505 0.952 1_565 S
H480 C506 0.944 1_565 S
H481 C508 0.950 . S
H482 C511 0.950 . S
H483 C512 0.950 . S
H484 C514 0.950 . S
H485 C515 0.950 . S
C486 H468 0.944 1_545 S
C486 C487 1.366 . S
C486 C488 1.396 1_545 S
C487 C486 1.366 . S
C487 C491 1.385 . S
C488 H469 0.958 . S
C488 C486 1.396 1_565 S
C488 C489 1.355 . S
C489 C488 1.355 . S
C489 C490 1.412 1_565 S
C489 C492 1.500 . S
C490 H470 0.950 . S
C490 C489 1.412 1_545 S
C490 C491 1.374 . S
C491 H471 0.950 . S
C491 C487 1.385 . S
C491 C490 1.374 . S
C492 C489 1.500 . S
C492 C493 1.361 1_565 S
C492 C494 1.397 . S
C493 H472 0.950 . S
C493 C492 1.361 1_545 S
C493 C509 1.377 . S
C494 C492 1.397 . S
C494 C495 1.524 . S
C494 C508 1.377 . S
C495 C494 1.524 . S
C495 C496 1.397 . S
C495 C500 1.363 . S
C496 H473 0.950 . S
C496 C495 1.397 . S
C496 C497 1.334 . S
C497 H474 0.950 . S
C497 C496 1.334 . S
C497 C498 1.287 . S
C498 C497 1.287 . S
C498 C499 1.524 . S
C498 H517 0.913 . S
C499 H475 0.950 . S
C499 C498 1.524 . S
C499 C500 1.415 . S
C500 H476 0.950 . S
C500 C495 1.363 . S
C500 C499 1.415 . S
C501 H477 0.951 . S
C501 C502 1.366 . S
C501 C503 1.388 . S
C502 C501 1.366 . S
C502 C506 1.398 . S
C503 H478 0.951 . S
C503 C501 1.388 . S
C503 C504 1.366 . S
C504 C503 1.366 . S
C504 C505 1.414 . S
C504 C507 1.499 . S
C505 H479 0.952 1_545 S
C505 C504 1.414 . S
C505 C506 1.367 . S
C506 H480 0.944 1_545 S
C506 C502 1.398 . S
C506 C505 1.367 . S
C507 C504 1.499 . S
C507 C508 1.373 1_545 S
C507 C509 1.389 . S
C508 H481 0.950 . S
C508 C494 1.377 . S
C508 C507 1.373 1_565 S
C509 C493 1.377 . S
C509 C507 1.389 . S
C509 C510 1.524 . S
C510 C509 1.524 . S
C510 C511 1.397 . S
C510 C515 1.363 . S
C511 H482 0.950 . S
C511 C510 1.397 . S
C511 C512 1.334 . S
C512 H483 0.950 . S
C512 C511 1.334 . S
C512 C513 1.287 . S
C513 C512 1.287 . S
C513 C514 1.524 . S
C513 H516 0.999 . S
C514 H484 0.950 . S
C514 C513 1.524 . S
C514 C515 1.415 . S
C515 H485 0.950 . S
C515 C510 1.363 . S
C515 C514 1.415 . S
H516 C513 0.999 . S
H517 C498 0.913 . S
H518 C536 0.951 . S
H519 C538 0.951 . S
H520 C540 0.950 . S
H521 C541 0.950 . S
H522 C543 0.950 . S
H523 C546 0.950 . S
H524 C547 0.950 . S
H525 C549 0.950 . S
H526 C550 0.950 . S
H527 C551 0.951 . S
H528 C553 0.951 . S
H529 C555 0.950 . S
H530 C556 0.950 . S
H531 C558 0.950 . S
H532 C561 0.950 . S
H533 C562 0.950 . S
H534 C564 0.950 . S
H535 C565 0.950 . S
C536 H518 0.951 . S
C536 C537 1.366 . S
C536 C538 1.388 . S
C537 C536 1.366 . S
C537 C541 1.385 1_545 S
C538 H519 0.951 . S
C538 C536 1.388 . S
C538 C539 1.366 . S
C539 C538 1.366 . S
C539 C540 1.414 1_545 S
C539 C542 1.499 . S
C540 H520 0.950 . S
C540 C539 1.414 1_565 S
C540 C541 1.374 . S
C541 H521 0.950 . S
C541 C537 1.385 1_565 S
C541 C540 1.374 . S
C542 C539 1.499 . S
C542 C543 1.373 1_545 S
C542 C544 1.389 . S
C543 H522 0.950 . S
C543 C542 1.373 1_565 S
C543 C559 1.377 . S
C544 C542 1.389 . S
C544 C545 1.524 . S
C544 C558 1.377 . S
C545 C544 1.524 . S
C545 C546 1.397 . S
C545 C550 1.363 . S
C546 H523 0.950 . S
C546 C545 1.397 . S
C546 C547 1.334 . S
C547 H524 0.950 . S
C547 C546 1.334 . S
C547 C548 1.287 . S
C548 C547 1.287 . S
C548 C549 1.524 . S
C548 H567 0.913 . S
C549 H525 0.950 . S
C549 C548 1.524 . S
C549 C550 1.415 . S
C550 H526 0.950 . S
C550 C545 1.363 . S
C550 C549 1.415 . S
C551 H527 0.951 . S
C551 C552 1.366 1_565 S
C551 C553 1.388 . S
C552 C551 1.366 1_545 S
C552 C556 1.385 . S
C553 H528 0.951 . S
C553 C551 1.388 . S
C553 C554 1.353 1_565 S
C554 C553 1.353 1_545 S
C554 C555 1.439 . S
C554 C557 1.489 . S
C555 H529 0.950 . S
C555 C554 1.439 . S
C555 C556 1.374 . S
C556 H530 0.950 . S
C556 C552 1.385 . S
C556 C555 1.374 . S
C557 C554 1.489 . S
C557 C558 1.373 . S
C557 C559 1.389 1_545 S
C558 H531 0.950 . S
C558 C544 1.377 . S
C558 C557 1.373 . S
C559 C543 1.377 . S
C559 C557 1.389 1_565 S
C559 C560 1.524 . S
C560 C559 1.524 . S
C560 C561 1.397 . S
C560 C565 1.363 . S
C561 H532 0.950 . S
C561 C560 1.397 . S
C561 C562 1.334 . S
C562 H533 0.950 . S
C562 C561 1.334 . S
C562 C563 1.287 . S
C563 C562 1.287 . S
C563 C564 1.524 . S
C563 H566 0.999 . S
C564 H534 0.950 . S
C564 C563 1.524 . S
C564 C565 1.415 . S
C565 H535 0.950 . S
C565 C560 1.363 . S
C565 C564 1.415 . S
H566 C563 0.999 . S
H567 C548 0.913 . S
H568 C586 0.951 . S
H569 C588 0.951 . S
H570 C590 0.950 . S
H571 C591 0.950 . S
H572 C593 0.950 . S
H573 C596 0.950 . S
H574 C597 0.950 . S
H575 C599 0.950 . S
H576 C600 0.950 . S
H577 C601 0.951 . S
H578 C603 0.951 . S
H579 C605 0.950 . S
H580 C606 0.950 . S
H581 C608 0.950 . S
H582 C611 0.950 . S
H583 C612 0.950 . S
H584 C614 0.950 . S
H585 C615 0.950 . S
C586 H568 0.951 . S
C586 C587 1.346 1_655 S
C586 C588 1.388 . S
C587 C586 1.346 1_455 S
C587 C591 1.398 . S
C588 H569 0.951 . S
C588 C586 1.388 . S
C588 C589 1.355 1_655 S
C589 C588 1.355 1_455 S
C589 C590 1.431 . S
C589 C592 1.493 . S
C590 H570 0.950 . S
C590 C589 1.431 . S
C590 C591 1.374 . S
C591 H571 0.950 . S
C591 C587 1.398 . S
C591 C590 1.374 . S
C592 C589 1.493 . S
C592 C593 1.373 . S
C592 C594 1.389 1_455 S
C593 H572 0.950 . S
C593 C592 1.373 . S
C593 C609 1.377 . S
C594 C592 1.389 1_655 S
C594 C595 1.524 . S
C594 C608 1.377 . S
C595 C594 1.524 . S
C595 C596 1.397 . S
C595 C600 1.363 . S
C596 H573 0.950 . S
C596 C595 1.397 . S
C596 C597 1.334 . S
C597 H574 0.950 . S
C597 C596 1.334 . S
C597 C598 1.287 . S
C598 C597 1.287 . S
C598 C599 1.524 . S
C598 H617 0.913 . S
C599 H575 0.950 . S
C599 C598 1.524 . S
C599 C600 1.415 . S
C600 H576 0.950 . S
C600 C595 1.363 . S
C600 C599 1.415 . S
C601 H577 0.951 . S
C601 C602 1.385 . S
C601 C603 1.388 . S
C602 C601 1.385 . S
C602 C606 1.372 1_455 S
C603 H578 0.951 . S
C603 C601 1.388 . S
C603 C604 1.380 . S
C604 C603 1.380 . S
C604 C605 1.391 1_455 S
C604 C607 1.509 1_455 S
C605 H579 0.950 . S
C605 C604 1.391 1_655 S
C605 C606 1.374 . S
C606 H580 0.950 . S
C606 C602 1.372 1_655 S
C606 C605 1.374 . S
C607 C604 1.509 1_655 S
C607 C608 1.381 . S
C607 C609 1.379 1_655 S
C608 H581 0.950 . S
C608 C594 1.377 . S
C608 C607 1.381 . S
C609 C593 1.377 . S
C609 C607 1.379 1_455 S
C609 C610 1.524 . S
C610 C609 1.524 . S
C610 C611 1.397 . S
C610 C615 1.363 . S
C611 H582 0.950 . S
C611 C610 1.397 . S
C611 C612 1.334 . S
C612 H583 0.950 . S
C612 C611 1.334 . S
C612 C613 1.287 . S
C613 C612 1.287 . S
C613 C614 1.524 . S
C613 H616 0.999 . S
C614 H584 0.950 . S
C614 C613 1.524 . S
C614 C615 1.415 . S
C615 H585 0.950 . S
C615 C610 1.363 . S
C615 C614 1.415 . S
H616 C613 0.999 . S
H617 C598 0.913 . S
H618 C636 0.951 . S
H619 C638 0.951 . S
H620 C640 0.950 . S
H621 C641 0.950 . S
H622 C643 0.950 . S
H623 C646 0.950 . S
H624 C647 0.950 . S
H625 C649 0.950 . S
H626 C650 0.950 . S
H627 C651 0.951 . S
H628 C653 0.951 . S
H629 C655 0.950 . S
H630 C656 0.950 . S
H631 C658 0.950 . S
H632 C661 0.950 . S
H633 C662 0.950 . S
H634 C664 0.950 . S
H635 C665 0.950 . S
C636 H618 0.951 . S
C636 C637 1.366 . S
C636 C638 1.388 . S
C637 C636 1.366 . S
C637 C641 1.385 1_545 S
C638 H619 0.951 . S
C638 C636 1.388 . S
C638 C639 1.365 1_545 S
C639 C638 1.365 1_565 S
C639 C640 1.412 . S
C639 C642 1.493 . S
C640 H620 0.950 . S
C640 C639 1.412 . S
C640 C641 1.374 . S
C641 H621 0.950 . S
C641 C637 1.385 1_565 S
C641 C640 1.374 . S
C642 C639 1.493 . S
C642 C643 1.358 1_565 S
C642 C644 1.411 . S
C643 H622 0.950 . S
C643 C642 1.358 1_545 S
C643 C659 1.377 . S
C644 C642 1.411 . S
C644 C645 1.524 . S
C644 C658 1.377 . S
C645 C644 1.524 . S
C645 C646 1.397 . S
C645 C650 1.363 . S
C646 H623 0.950 . S
C646 C645 1.397 . S
C646 C647 1.334 . S
C647 H624 0.950 . S
C647 C646 1.334 . S
C647 C648 1.287 . S
C648 C647 1.287 . S
C648 C649 1.524 . S
C648 H667 0.913 . S
C649 H625 0.950 . S
C649 C648 1.524 . S
C649 C650 1.415 . S
C650 H626 0.950 . S
C650 C645 1.363 . S
C650 C649 1.415 . S
C651 H627 0.951 . S
C651 C652 1.366 1_565 S
C651 C653 1.388 . S
C652 C651 1.366 1_545 S
C652 C656 1.385 . S
C653 H628 0.951 . S
C653 C651 1.388 . S
C653 C654 1.366 1_565 S
C654 C653 1.366 1_545 S
C654 C655 1.414 . S
C654 C657 1.499 . S
C655 H629 0.950 . S
C655 C654 1.414 . S
C655 C656 1.374 . S
C656 H630 0.950 . S
C656 C652 1.385 . S
C656 C655 1.374 . S
C657 C654 1.499 . S
C657 C658 1.373 1_545 S
C657 C659 1.389 . S
C658 H631 0.950 . S
C658 C644 1.377 . S
C658 C657 1.373 1_565 S
C659 C643 1.377 . S
C659 C657 1.389 . S
C659 C660 1.524 . S
C660 C659 1.524 . S
C660 C661 1.397 . S
C660 C665 1.363 . S
C661 H632 0.950 . S
C661 C660 1.397 . S
C661 C662 1.334 . S
C662 H633 0.950 . S
C662 C661 1.334 . S
C662 C663 1.287 . S
C663 C662 1.287 . S
C663 C664 1.524 . S
C663 H666 0.999 . S
C664 H634 0.950 . S
C664 C663 1.524 . S
C664 C665 1.415 . S
C665 H635 0.950 . S
C665 C660 1.363 . S
C665 C664 1.415 . S
H666 C663 0.999 . S
H667 C648 0.913 . S
H668 C686 0.951 . S
H669 C688 0.951 . S
H670 C690 0.950 . S
H671 C691 0.950 . S
H672 C693 0.950 . S
H673 C696 0.950 . S
H674 C697 0.950 . S
H675 C699 0.950 . S
H676 C700 0.950 . S
H677 C701 0.951 . S
H678 C703 0.951 . S
H679 C705 0.950 . S
H680 C706 0.950 . S
H681 C708 0.950 . S
H682 C711 0.950 . S
H683 C712 0.950 . S
H684 C714 0.950 . S
H685 C715 0.950 . S
C686 H668 0.951 . S
C686 C687 1.382 . S
C686 C688 1.388 . S
C687 C686 1.382 . S
C687 C691 1.362 1_455 S
C688 H669 0.951 . S
C688 C686 1.388 . S
C688 C689 1.363 1_455 S
C689 C688 1.363 1_655 S
C689 C690 1.416 . S
C689 C692 1.500 . S
C690 H670 0.950 . S
C690 C689 1.416 . S
C690 C691 1.374 . S
C691 H671 0.950 . S
C691 C687 1.362 1_655 S
C691 C690 1.374 . S
C692 C689 1.500 . S
C692 C693 1.373 . S
C692 C694 1.389 1_655 S
C693 H672 0.950 . S
C693 C692 1.373 . S
C693 C709 1.377 . S
C694 C692 1.389 1_455 S
C694 C695 1.524 . S
C694 C708 1.377 . S
C695 C694 1.524 . S
C695 C696 1.397 1_455 S
C695 C700 1.363 . S
C696 H673 0.950 . S
C696 C695 1.397 1_655 S
C696 C697 1.334 . S
C697 H674 0.950 . S
C697 C696 1.334 . S
C697 C698 1.287 1_655 S
C698 C697 1.287 1_455 S
C698 C699 1.524 . S
C698 H717 0.913 . S
C699 H675 0.950 . S
C699 C698 1.524 . S
C699 C700 1.415 . S
C700 H676 0.950 . S
C700 C695 1.363 . S
C700 C699 1.415 . S
C701 H677 0.951 . S
C701 C702 1.351 1_655 S
C701 C703 1.388 . S
C702 C701 1.351 1_455 S
C702 C706 1.407 . S
C703 H678 0.951 . S
C703 C701 1.388 . S
C703 C704 1.366 1_655 S
C704 C703 1.366 1_455 S
C704 C705 1.414 . S
C704 C707 1.499 . S
C705 H679 0.950 . S
C705 C704 1.414 . S
C705 C706 1.374 . S
C706 H680 0.950 . S
C706 C702 1.407 . S
C706 C705 1.374 . S
C707 C704 1.499 . S
C707 C708 1.373 . S
C707 C709 1.389 1_455 S
C708 H681 0.950 . S
C708 C694 1.377 . S
C708 C707 1.373 . S
C709 C693 1.377 . S
C709 C707 1.389 1_655 S
C709 C710 1.524 . S
C710 C709 1.524 . S
C710 C711 1.397 1_655 S
C710 C715 1.363 . S
C711 H682 0.950 . S
C711 C710 1.397 1_455 S
C711 C712 1.334 . S
C712 H683 0.950 . S
C712 C711 1.334 . S
C712 C713 1.287 1_455 S
C713 C712 1.287 1_655 S
C713 C714 1.524 . S
C713 H716 0.999 . S
C714 H684 0.950 . S
C714 C713 1.524 . S
C714 C715 1.415 . S
C715 H685 0.950 . S
C715 C710 1.363 . S
C715 C714 1.415 . S
H716 C713 0.999 . S
H717 C698 0.913 . S
H718 C736 0.951 . S
H719 C738 0.951 . S
H720 C740 0.950 . S
H721 C741 0.950 . S
H722 C743 0.950 . S
H723 C746 0.950 . S
H724 C747 0.950 . S
H725 C749 0.950 . S
H726 C750 0.950 . S
H727 C751 0.951 . S
H728 C753 0.951 . S
H729 C755 0.950 . S
H730 C756 0.950 . S
H731 C758 0.950 . S
H732 C761 0.950 . S
H733 C762 0.950 . S
H734 C764 0.950 . S
H735 C765 0.950 . S
C736 H718 0.951 . S
C736 C737 1.373 . S
C736 C738 1.388 . S
C737 C736 1.373 . S
C737 C741 1.372 1_554 S
C738 H719 0.951 . S
C738 C736 1.388 . S
C738 C739 1.359 1_554 S
C739 C738 1.359 1_556 S
C739 C740 1.417 . S
C739 C742 1.501 . S
C740 H720 0.950 . S
C740 C739 1.417 . S
C740 C741 1.374 . S
C741 H721 0.950 . S
C741 C737 1.372 1_556 S
C741 C740 1.374 . S
C742 C739 1.501 . S
C742 C743 1.373 . S
C742 C744 1.389 1_556 S
C743 H722 0.950 . S
C743 C742 1.373 . S
C743 C759 1.377 . S
C744 C742 1.389 1_554 S
C744 C745 1.524 . S
C744 C758 1.377 . S
C745 C744 1.524 . S
C745 C746 1.397 1_554 S
C745 C750 1.363 . S
C746 H723 0.950 . S
C746 C745 1.397 1_556 S
C746 C747 1.334 . S
C747 H724 0.950 . S
C747 C746 1.334 . S
C747 C748 1.287 1_556 S
C748 C747 1.287 1_554 S
C748 C749 1.524 . S
C748 H767 0.913 . S
C749 H725 0.950 . S
C749 C748 1.524 . S
C749 C750 1.415 . S
C750 H726 0.950 . S
C750 C745 1.363 . S
C750 C749 1.415 . S
C751 H727 0.951 . S
C751 C752 1.359 1_556 S
C751 C753 1.388 . S
C752 C751 1.359 1_554 S
C752 C756 1.396 . S
C753 H728 0.951 . S
C753 C751 1.388 . S
C753 C754 1.366 1_556 S
C754 C753 1.366 1_554 S
C754 C755 1.414 . S
C754 C757 1.499 . S
C755 H729 0.950 . S
C755 C754 1.414 . S
C755 C756 1.374 . S
C756 H730 0.950 . S
C756 C752 1.396 . S
C756 C755 1.374 . S
C757 C754 1.499 . S
C757 C758 1.373 . S
C757 C759 1.389 1_554 S
C758 H731 0.950 . S
C758 C744 1.377 . S
C758 C757 1.373 . S
C759 C743 1.377 . S
C759 C757 1.389 1_556 S
C759 C760 1.524 . S
C760 C759 1.524 . S
C760 C761 1.397 1_556 S
C760 C765 1.363 . S
C761 H732 0.950 . S
C761 C760 1.397 1_554 S
C761 C762 1.334 . S
C762 H733 0.950 . S
C762 C761 1.334 . S
C762 C763 1.287 1_554 S
C763 C762 1.287 1_556 S
C763 C764 1.524 . S
C763 H766 0.999 . S
C764 H734 0.950 . S
C764 C763 1.524 . S
C764 C765 1.415 . S
C765 H735 0.950 . S
C765 C760 1.363 . S
C765 C764 1.415 . S
H766 C763 0.999 . S
H767 C748 0.913 . S
H768 C786 0.951 . S
H769 C788 0.951 . S
H770 C790 0.950 . S
H771 C791 0.950 . S
H772 C793 0.950 . S
H773 C796 0.950 1_554 S
H774 C797 0.950 . S
H775 C799 0.950 . S
H776 C800 0.950 . S
H777 C801 0.951 . S
H778 C803 0.951 . S
H779 C805 0.950 . S
H780 C806 0.950 . S
H781 C808 0.950 . S
H782 C811 0.950 1_556 S
H783 C812 0.950 . S
H784 C814 0.950 . S
H785 C815 0.950 . S
C786 H768 0.951 . S
C786 C787 1.357 1_556 S
C786 C788 1.388 . S
C787 C786 1.357 1_554 S
C787 C791 1.399 . S
C788 H769 0.951 . S
C788 C786 1.388 . S
C788 C789 1.340 1_556 S
C789 C788 1.340 1_554 S
C789 C790 1.430 . S
C789 C792 1.508 . S
C790 H770 0.950 . S
C790 C789 1.430 . S
C790 C791 1.374 . S
C791 H771 0.950 . S
C791 C787 1.399 . S
C791 C790 1.374 . S
C792 C789 1.508 . S
C792 C793 1.373 . S
C792 C794 1.389 1_554 S
C793 H772 0.950 . S
C793 C792 1.373 . S
C793 C809 1.377 . S
C794 C792 1.389 1_556 S
C794 C795 1.524 . S
C794 C808 1.377 . S
C795 C794 1.524 . S
C795 C796 1.397 . S
C795 C800 1.363 . S
C796 H773 0.950 1_556 S
C796 C795 1.397 . S
C796 C797 1.334 . S
C797 H774 0.950 . S
C797 C796 1.334 . S
C797 C798 1.287 . S
C798 C797 1.287 . S
C798 C799 1.524 . S
C798 H817 0.913 . S
C799 H775 0.950 . S
C799 C798 1.524 . S
C799 C800 1.415 . S
C800 H776 0.950 . S
C800 C795 1.363 . S
C800 C799 1.415 . S
C801 H777 0.951 . S
C801 C802 1.374 . S
C801 C803 1.388 . S
C802 C801 1.374 . S
C802 C806 1.371 1_554 S
C803 H778 0.951 . S
C803 C801 1.388 . S
C803 C804 1.367 . S
C804 C803 1.367 . S
C804 C805 1.413 1_554 S
C804 C807 1.487 1_554 S
C805 H779 0.950 . S
C805 C804 1.413 1_556 S
C805 C806 1.374 . S
C806 H780 0.950 . S
C806 C802 1.371 1_556 S
C806 C805 1.374 . S
C807 C804 1.487 1_556 S
C807 C808 1.383 . S
C807 C809 1.390 1_556 S
C808 H781 0.950 . S
C808 C794 1.377 . S
C808 C807 1.383 . S
C809 C793 1.377 . S
C809 C807 1.390 1_554 S
C809 C810 1.524 . S
C810 C809 1.524 . S
C810 C811 1.397 . S
C810 C815 1.363 . S
C811 H782 0.950 1_554 S
C811 C810 1.397 . S
C811 C812 1.334 . S
C812 H783 0.950 . S
C812 C811 1.334 . S
C812 C813 1.287 . S
C813 C812 1.287 . S
C813 C814 1.524 . S
C813 H816 0.999 . S
C814 H784 0.950 . S
C814 C813 1.524 . S
C814 C815 1.415 . S
C815 H785 0.950 . S
C815 C810 1.363 . S
C815 C814 1.415 . S
H816 C813 0.999 . S
H817 C798 0.913 . S
H818 C836 0.951 . S
H819 C838 0.951 . S
H820 C840 0.950 . S
H821 C841 0.950 . S
H822 C843 0.950 . S
H823 C846 0.950 1_556 S
H824 C847 0.950 1_556 S
H825 C849 0.950 . S
H826 C850 0.950 . S
H827 C851 0.951 . S
H828 C853 0.951 . S
H829 C855 0.950 . S
H830 C856 0.950 . S
H831 C858 0.950 . S
H832 C861 0.950 1_554 S
H833 C862 0.950 1_554 S
H834 C864 0.950 . S
H835 C865 0.950 . S
C836 H818 0.951 . S
C836 C837 1.382 . S
C836 C838 1.388 . S
C837 C836 1.382 . S
C837 C841 1.373 1_554 S
C838 H819 0.951 . S
C838 C836 1.388 . S
C838 C839 1.367 1_554 S
C839 C838 1.367 1_556 S
C839 C840 1.412 . S
C839 C842 1.499 . S
C840 H820 0.950 . S
C840 C839 1.412 . S
C840 C841 1.374 . S
C841 H821 0.950 . S
C841 C837 1.373 1_556 S
C841 C840 1.374 . S
C842 C839 1.499 . S
C842 C843 1.373 . S
C842 C844 1.389 1_556 S
C843 H822 0.950 . S
C843 C842 1.373 . S
C843 C859 1.377 . S
C844 C842 1.389 1_554 S
C844 C845 1.524 . S
C844 C858 1.377 . S
C845 C844 1.524 . S
C845 C846 1.397 . S
C845 C850 1.363 . S
C846 H823 0.950 1_554 S
C846 C845 1.397 . S
C846 C847 1.334 . S
C847 H824 0.950 1_554 S
C847 C846 1.334 . S
C847 C848 1.287 . S
C848 C847 1.287 . S
C848 C849 1.524 . S
C848 H867 0.913 . S
C849 H825 0.950 . S
C849 C848 1.524 . S
C849 C850 1.415 . S
C850 H826 0.950 . S
C850 C845 1.363 . S
C850 C849 1.415 . S
C851 H827 0.951 . S
C851 C852 1.350 1_556 S
C851 C853 1.388 . S
C852 C851 1.350 1_554 S
C852 C856 1.395 . S
C853 H828 0.951 . S
C853 C851 1.388 . S
C853 C854 1.340 1_556 S
C854 C853 1.340 1_554 S
C854 C855 1.453 . S
C854 C857 1.488 . S
C855 H829 0.950 . S
C855 C854 1.453 . S
C855 C856 1.374 . S
C856 H830 0.950 . S
C856 C852 1.395 . S
C856 C855 1.374 . S
C857 C854 1.488 . S
C857 C858 1.373 . S
C857 C859 1.389 1_554 S
C858 H831 0.950 . S
C858 C844 1.377 . S
C858 C857 1.373 . S
C859 C843 1.377 . S
C859 C857 1.389 1_556 S
C859 C860 1.524 . S
C860 C859 1.524 . S
C860 C861 1.397 . S
C860 C865 1.363 . S
C861 H832 0.950 1_556 S
C861 C860 1.397 . S
C861 C862 1.334 . S
C862 H833 0.950 1_556 S
C862 C861 1.334 . S
C862 C863 1.287 . S
C863 C862 1.287 . S
C863 C864 1.524 . S
C863 H866 0.999 . S
C864 H834 0.950 . S
C864 C863 1.524 . S
C864 C865 1.415 . S
C865 H835 0.950 . S
C865 C860 1.363 . S
C865 C864 1.415 . S
H866 C863 0.999 . S
H867 C848 0.913 . S
H868 C886 0.951 . S
H869 C888 0.951 . S
H870 C890 0.950 . S
H871 C891 0.950 . S
H872 C893 0.959 . S
H873 C896 0.950 . S
H874 C897 0.950 . S
H875 C899 0.950 . S
H876 C900 0.950 . S
H877 C901 0.951 . S
H878 C903 0.951 . S
H879 C905 0.950 . S
H880 C906 0.950 . S
H881 C908 0.950 . S
H882 C911 0.950 . S
H883 C912 0.950 . S
H884 C914 0.950 . S
H885 C915 0.950 . S
C886 H868 0.951 . S
C886 C887 1.352 1_556 S
C886 C888 1.388 . S
C887 C886 1.352 1_554 S
C887 C891 1.394 . S
C888 H869 0.951 . S
C888 C886 1.388 . S
C888 C889 1.366 1_556 S
C889 C888 1.366 1_554 S
C889 C890 1.414 . S
C889 C892 1.499 . S
C890 H870 0.950 . S
C890 C889 1.414 . S
C890 C891 1.374 . S
C891 H871 0.950 . S
C891 C887 1.394 . S
C891 C890 1.374 . S
C892 C889 1.499 . S
C892 C893 1.375 1_554 S
C892 C894 1.389 . S
C893 H872 0.959 . S
C893 C892 1.375 1_556 S
C893 C909 1.380 . S
C894 C892 1.389 . S
C894 C895 1.524 . S
C894 C908 1.377 . S
C895 C894 1.524 . S
C895 C896 1.397 . S
C895 C900 1.363 1_554 S
C896 H873 0.950 . S
C896 C895 1.397 . S
C896 C897 1.334 . S
C897 H874 0.950 . S
C897 C896 1.334 . S
C897 C898 1.287 . S
C898 C897 1.287 . S
C898 C899 1.524 1_554 S
C898 H917 0.913 . S
C899 H875 0.950 . S
C899 C898 1.524 1_556 S
C899 C900 1.415 . S
C900 H876 0.950 . S
C900 C895 1.363 1_556 S
C900 C899 1.415 . S
C901 H877 0.951 . S
C901 C902 1.382 . S
C901 C903 1.388 . S
C902 C901 1.382 . S
C902 C906 1.374 1_554 S
C903 H878 0.951 . S
C903 C901 1.388 . S
C903 C904 1.343 1_554 S
C904 C903 1.343 1_556 S
C904 C905 1.447 . S
C904 C907 1.489 . S
C905 H879 0.950 . S
C905 C904 1.447 . S
C905 C906 1.374 . S
C906 H880 0.950 . S
C906 C902 1.374 1_556 S
C906 C905 1.374 . S
C907 C904 1.489 . S
C907 C908 1.373 1_556 S
C907 C909 1.389 . S
C908 H881 0.950 . S
C908 C894 1.377 . S
C908 C907 1.373 1_554 S
C909 C893 1.380 . S
C909 C907 1.389 . S
C909 C910 1.524 . S
C910 C909 1.524 . S
C910 C911 1.397 . S
C910 C915 1.363 1_556 S
C911 H882 0.950 . S
C911 C910 1.397 . S
C911 C912 1.334 . S
C912 H883 0.950 . S
C912 C911 1.334 . S
C912 C913 1.287 . S
C913 C912 1.287 . S
C913 C914 1.524 1_556 S
C913 H916 0.999 . S
C914 H884 0.950 . S
C914 C913 1.524 1_554 S
C914 C915 1.415 . S
C915 H885 0.950 . S
C915 C910 1.363 1_554 S
C915 C914 1.415 . S
H916 C913 0.999 . S
H917 C898 0.913 . S
C337 C29 1.506 . S
C352 C241 1.495 . S
C387 C38 1.504 . S
C402 C303 1.499 . S
C437 C234 1.507 . S
C452 C22 1.490 1_455 S
C487 C304 1.499 . S
C502 C39 1.499 . S
C537 C294 1.500 . S
C552 C91 1.499 . S
C587 C128 1.507 . S
C602 C251 1.494 . S
C637 C287 1.500 . S
C652 C92 1.503 . S
C687 C250 1.506 . S
C702 C135 1.490 1_455 S
C737 C144 1.505 . S
C752 C198 1.504 . S
C787 C188 1.504 . S
C802 C75 1.504 . S
C837 C145 1.486 1_554 S
C852 C197 1.505 . S
C887 C181 1.504 . S
C902 C82 1.490 1_554 S
