# Generated by pormake.
# Topology vby, (6)-cn, num edge types: 1
# Building blocks:
#     Node 0, Type 0, BuildingBlock: KUMJIN_clean_sbu_0, # of connection points: 6
#     Node 1, Type 0, BuildingBlock: KUMJIN_clean_sbu_0, # of connection points: 6
#     Node 2, Type 0, BuildingBlock: KUMJIN_clean_sbu_0, # of connection points: 6
#     Node 3, Type 0, BuildingBlock: KUMJIN_clean_sbu_0, # of connection points: 6
#     Node 4, Type 0, BuildingBlock: KUMJIN_clean_sbu_0, # of connection points: 6
#     Node 5, Type 0, BuildingBlock: KUMJIN_clean_sbu_0, # of connection points: 6
#     Node 6, Type 0, BuildingBlock: KUMJIN_clean_sbu_0, # of connection points: 6
#     Node 7, Type 0, BuildingBlock: KUMJIN_clean_sbu_0, # of connection points: 6
#     Edge 8, Type (0, 0), BuildingBlock: ZUJKAS_clean_linker_0, # of connection points: 2
#     Edge 9, Type (0, 0), BuildingBlock: ZUJKAS_clean_linker_0, # of connection points: 2
#     Edge 10, Type (0, 0), BuildingBlock: ZUJKAS_clean_linker_0, # of connection points: 2
#     Edge 11, Type (0, 0), BuildingBlock: ZUJKAS_clean_linker_0, # of connection points: 2
#     Edge 12, Type (0, 0), BuildingBlock: ZUJKAS_clean_linker_0, # of connection points: 2
#     Edge 13, Type (0, 0), BuildingBlock: ZUJKAS_clean_linker_0, # of connection points: 2
#     Edge 14, Type (0, 0), BuildingBlock: ZUJKAS_clean_linker_0, # of connection points: 2
#     Edge 15, Type (0, 0), BuildingBlock: ZUJKAS_clean_linker_0, # of connection points: 2
#     Edge 16, Type (0, 0), BuildingBlock: ZUJKAS_clean_linker_0, # of connection points: 2
#     Edge 17, Type (0, 0), BuildingBlock: ZUJKAS_clean_linker_0, # of connection points: 2
#     Edge 18, Type (0, 0), BuildingBlock: ZUJKAS_clean_linker_0, # of connection points: 2
#     Edge 19, Type (0, 0), BuildingBlock: ZUJKAS_clean_linker_0, # of connection points: 2
#     Edge 20, Type (0, 0), BuildingBlock: ZUJKAS_clean_linker_0, # of connection points: 2
#     Edge 21, Type (0, 0), BuildingBlock: ZUJKAS_clean_linker_0, # of connection points: 2
#     Edge 22, Type (0, 0), BuildingBlock: ZUJKAS_clean_linker_0, # of connection points: 2
#     Edge 23, Type (0, 0), BuildingBlock: ZUJKAS_clean_linker_0, # of connection points: 2
#     Edge 24, Type (0, 0), BuildingBlock: ZUJKAS_clean_linker_0, # of connection points: 2
#     Edge 25, Type (0, 0), BuildingBlock: ZUJKAS_clean_linker_0, # of connection points: 2
#     Edge 26, Type (0, 0), BuildingBlock: ZUJKAS_clean_linker_0, # of connection points: 2
#     Edge 27, Type (0, 0), BuildingBlock: ZUJKAS_clean_linker_0, # of connection points: 2
#     Edge 28, Type (0, 0), BuildingBlock: ZUJKAS_clean_linker_0, # of connection points: 2
#     Edge 29, Type (0, 0), BuildingBlock: ZUJKAS_clean_linker_0, # of connection points: 2
#     Edge 30, Type (0, 0), BuildingBlock: ZUJKAS_clean_linker_0, # of connection points: 2
#     Edge 31, Type (0, 0), BuildingBlock: ZUJKAS_clean_linker_0, # of connection points: 2
# Relax obj value: 0.108
# Max RMSD: 0.192
# Mean RMSD: 0.192
data_MOF--net-vby--node1-KUMJIN_clean_sbu_0--edge1-ZUJKAS_clean_linker_0
_symmetry_space_group_name_H-M    P1
_symmetry_Int_Tables_number       1
_symmetry_cell_setting            triclinic
loop_
_symmetry_equiv_pos_as_xyz
'x, y, z'
_cell_length_a     18.830532
_cell_length_b     115.97953
_cell_length_c     39.247614
_cell_angle_alpha  115.16909
_cell_angle_beta   89.815499
_cell_angle_gamma 90.242521
loop_
_atom_site_label
_atom_site_type_symbol
_atom_site_fract_x
_atom_site_fract_y
_atom_site_fract_z
_atom_type_partial_charge
Eu0 Eu 0.14253 0.39719 0.02727 0.0
C1 C 0.99329 0.34726 0.91635 0.0
C2 C 0.8839 0.34516 0.94585 0.0
C3 C 0.89132 0.33667 0.87768 0.0
C4 C 0.95444 0.34961 0.94859 0.0
C5 C 0.96267 0.34054 0.88051 0.0
C6 C 0.85204 0.33895 0.9103 0.0
C7 C 0.07725 0.34084 0.85296 0.0
N8 N 0.06255 0.35087 0.92007 0.0
C9 C 0.10544 0.34736 0.88911 0.0
C10 C 1.00534 0.33754 0.84861 0.0
Eu11 Eu 0.10578 0.36233 0.98221 0.0
N12 N 0.98687 0.3556 0.98253 0.0
C13 C 0.9532 0.35669 0.01464 0.0
C14 C 0.84822 0.34673 0.97885 0.0
C15 C 0.88349 0.35235 0.01332 0.0
H16 H 0.161 0.34994 0.89231 0.0
H17 H 0.85711 0.35335 0.03895 0.0
H18 H 0.79764 0.3356 0.90768 0.0
H19 H 0.11099 0.33837 0.82849 0.0
H20 H 0.97938 0.36103 0.04155 0.0
H21 H 0.39044 0.4028 0.96335 0.0
H22 H 0.79412 0.3434 0.97794 0.0
H23 H 0.09427 0.41454 0.11669 0.0
H24 H 0.2653 0.3969 0.9647 0.0
H25 H 0.14995 0.42599 0.17936 0.0
H26 H 0.86664 0.33159 0.85039 0.0
H27 H 0.46062 0.41168 0.02226 0.0
H28 H 0.46427 0.41934 0.09242 0.0
H29 H 0.98375 0.33242 0.82057 0.0
H30 H 0.39867 0.42526 0.1518 0.0
N31 N 0.26404 0.40209 0.02366 0.0
C32 C 0.29495 0.40073 0.99063 0.0
C33 C 0.40558 0.40903 0.02296 0.0
C34 C 0.37271 0.411 0.05698 0.0
C35 C 0.36614 0.40406 0.98972 0.0
C36 C 0.30063 0.40756 0.05646 0.0
H37 H 0.2808 0.42802 0.18464 0.0
N38 N 0.19268 0.40906 0.08778 0.0
C39 C 0.18279 0.42165 0.15445 0.0
C40 C 0.2639 0.41091 0.08973 0.0
C41 C 0.15147 0.41511 0.11909 0.0
C42 C 0.25665 0.42272 0.15732 0.0
C43 C 0.29803 0.41775 0.12457 0.0
O44 O 0.08282 0.41505 0.04792 0.0
O45 O 0.06009 0.3819 0.00518 0.0
O46 O 0.07081 0.3709 0.94294 0.0
O47 O 0.14614 0.38845 0.96269 0.0
O48 O 1.02895 0.39841 0.04961 0.0
O49 O 0.14223 0.4091 -0.00364 0.0
O50 O 0.17176 0.3452 0.96104 0.0
O51 O 0.19022 0.37756 0.00655 0.0
O52 O 0.1498 0.39029 0.07315 0.0
O53 O 0.09529 0.37018 0.046 0.0
O54 O 0.21474 0.36209 0.95687 0.0
O55 O 0.10804 0.34977 0.01094 0.0
C56 C 1.00798 0.38722 0.02644 0.0
C57 C 0.13662 0.43119 0.03477 0.0
C58 C 0.14352 0.45199 0.0328 0.0
C59 C 0.1114 0.43986 0.02109 0.0
C60 C 0.20025 0.4553 0.05848 0.0
C61 C 0.19299 0.43485 0.06049 0.0
C62 C 0.22458 0.44678 0.07223 0.0
C63 C 0.10315 0.3801 0.9374 0.0
C64 C 0.10587 0.41826 0.02181 0.0
C65 C 0.37126 0.42019 0.12531 0.0
C66 C 0.40855 0.41686 0.09151 0.0
C67 C 0.2392 0.37255 0.98251 0.0
C68 C 0.12661 0.32794 0.97181 0.0
C69 C 0.15878 0.31958 0.98474 0.0
C70 C 0.13495 0.30684 0.97168 0.0
C71 C 0.07914 0.30264 0.94543 0.0
C72 C 0.07155 0.32341 0.94542 0.0
C73 C 0.04792 0.31087 0.93239 0.0
C74 C 0.12088 0.38017 0.07516 0.0
C75 C 0.14956 0.34139 0.98611 0.0
H76 H 0.06793 0.43714 0.00114 0.0
H77 H 0.2252 0.46459 0.06843 0.0
H78 H 0.21272 0.42851 0.07165 0.0
H79 H 0.26802 0.44945 0.09214 0.0
H80 H 0.20139 0.32301 0.00517 0.0
H81 H 0.06033 0.29289 0.93444 0.0
H82 H 0.04685 0.32954 0.93474 0.0
H83 H 1.00536 0.3075 0.91198 0.0
Eu84 Eu 0.9884 0.65083 0.02954 0.0
C85 C 0.80583 0.60597 0.95743 0.0
C86 C 0.73764 0.60539 0.00922 0.0
C87 C 0.6833 0.59832 0.94769 0.0
C88 C 0.80129 0.6082 0.99498 0.0
C89 C 0.74677 0.60085 0.93336 0.0
C90 C 0.67895 0.60047 0.98542 0.0
C91 C 0.8195 0.5994 0.88124 0.0
N92 N 0.86845 0.60824 0.94395 0.0
C93 C 0.87686 0.60412 0.90579 0.0
C94 C 0.75375 0.59797 0.89517 0.0
Eu95 Eu 0.96431 0.61592 0.98812 0.0
N96 N 0.85877 0.61303 0.01758 0.0
C97 C 0.85628 0.61472 0.05428 0.0
C98 C 0.73482 0.60746 0.04695 0.0
C99 C 0.79444 0.61213 0.06952 0.0
H100 H 0.92825 0.60386 0.89335 0.0
H101 H 0.79324 0.61357 0.09863 0.0
H102 H 0.63006 0.59816 -0.0042 0.0
H103 H 0.82672 0.59648 0.85134 0.0
H104 H 0.90174 0.61774 0.07226 0.0
H105 H 0.18188 0.65467 0.93011 0.0
H106 H 0.68723 0.60533 0.05881 0.0
H107 H 0.99382 0.66699 0.1243 0.0
H108 H 0.069 0.64939 0.94998 0.0
H109 H 0.08166 0.6773 0.17465 0.0
H110 H 0.63769 0.59441 0.92959 0.0
H111 H 0.27751 0.66438 0.97623 0.0
H112 H 0.32176 0.67182 0.0424 0.0
H113 H 0.70965 0.59407 0.87594 0.0
H114 H 0.2959 0.67721 0.10881 0.0
N115 N 0.09967 0.65481 0.00706 0.0
C116 C 0.11018 0.65295 0.97056 0.0
C117 C 0.22859 0.66154 0.98512 0.0
C118 C 0.21778 0.66369 0.02257 0.0
C119 C 0.17455 0.65615 0.95904 0.0
C120 C 0.1514 0.66041 0.033 0.0
H121 H 0.20659 0.67933 0.15844 0.0
N122 N 0.0698 0.6616 0.07984 0.0
C123 C 0.09827 0.6733 0.14548 0.0
C124 C 0.13662 0.66357 0.0704 0.0
C125 C 0.04891 0.66726 0.11681 0.0
C126 C 0.16865 0.67441 0.13621 0.0
C127 C 0.18802 0.66997 0.09834 0.0
O128 O 0.9373 0.66911 0.06317 0.0
O129 O 0.90801 0.63482 0.00609 0.0
O130 O 0.98068 0.62121 0.93999 0.0
O131 O 0.9612 0.64312 0.967 0.0
O132 O 0.88399 0.65024 0.05701 0.0
O133 O 0.96216 0.66412 0.00507 0.0
O134 O 0.99812 0.59705 0.94776 0.0
O135 O 0.04335 0.63199 0.0114 0.0
O136 O 0.99198 0.64477 0.07737 0.0
O137 O 1.00515 0.62266 0.0482 0.0
O138 O 0.07514 0.6159 0.96487 0.0
O139 O 0.98761 0.60085 0.00631 0.0
C140 C 0.86079 0.63959 0.03148 0.0
C141 C 0.96812 0.68598 0.04696 0.0
C142 C 0.96122 0.70687 0.04541 0.0
C143 C 0.93294 0.69456 0.03594 0.0
C144 C 1.02475 0.7104 0.06616 0.0
C145 C 1.03123 0.68984 0.06769 0.0
C146 C 0.05932 0.70194 0.07714 0.0
C147 C 0.97032 0.63204 0.93753 0.0
C148 C 0.93946 0.67302 0.03661 0.0
C149 C 0.25564 0.67243 0.08778 0.0
C150 C 0.27029 0.6694 0.04999 0.0
C151 C 0.0948 0.62709 0.98898 0.0
C152 C 0.95769 0.58005 0.96121 0.0
C153 C 0.97848 0.57106 0.97465 0.0
C154 C 0.94011 0.55957 0.96435 0.0
C155 C 0.88068 0.55727 0.9407 0.0
C156 C 0.89888 0.57731 0.93705 0.0
C157 C 0.86042 0.56608 0.92719 0.0
C158 C 1.00452 0.63373 0.07838 0.0
C159 C 0.99737 0.59216 0.97213 0.0
H160 H 0.8843 0.69163 0.01977 0.0
H161 H 0.04725 0.71982 0.07453 0.0
H162 H 0.05878 0.68358 0.07689 0.0
H163 H 0.10795 0.7048 0.09328 0.0
H164 H 1.0241 0.57303 0.99307 0.0
H165 H 0.85078 0.54847 0.93179 0.0
H166 H 0.88286 0.58374 0.92525 0.0
H167 H 0.81519 0.56412 0.90857 0.0
Eu168 Eu 0.11527 0.61848 0.48842 0.0
C169 C 0.96883 0.66807 0.60231 0.0
C170 C 0.85717 0.66961 0.57412 0.0
C171 C 0.86767 0.67834 0.64221 0.0
C172 C 0.9283 0.66547 0.57058 0.0
C173 C 0.93948 0.67478 0.63852 0.0
C174 C 0.82659 0.67577 0.61006 0.0
C175 C 0.0558 0.67495 0.6646 0.0
N176 N 1.03834 0.66469 0.59772 0.0
C177 C 0.0826 0.6684 0.62811 0.0
C178 C 0.98375 0.67803 0.66987 0.0
Eu179 Eu 0.07931 0.65315 0.53511 0.0
N180 N 0.9597 0.65961 0.5363 0.0
C181 C 0.92436 0.65836 0.50458 0.0
C182 C 0.81963 0.66778 0.5415 0.0
C183 C 0.85369 0.66227 0.50662 0.0
H184 H 0.13826 0.66598 0.62425 0.0
H185 H 0.82548 0.66098 0.48127 0.0
H186 H 0.77179 0.67887 0.61331 0.0
H187 H 0.09071 0.67761 0.68862 0.0
H188 H 0.94983 0.65407 0.47743 0.0
H189 H 0.36809 0.61145 0.54451 0.0
H190 H 0.76498 0.67085 0.54301 0.0
H191 H 0.05807 0.60545 0.39901 0.0
H192 H 0.24338 0.61824 0.54736 0.0
H193 H 0.10689 0.59348 0.33497 0.0
H194 H 0.84395 0.68339 0.66979 0.0
H195 H 0.42983 0.60142 0.48314 0.0
H196 H 0.42436 0.59305 0.41272 0.0
H197 H 0.9632 0.68316 0.69816 0.0
H198 H 0.35337 0.5882 0.35568 0.0
N199 N 0.23518 0.61249 0.48832 0.0
C200 C 0.26972 0.61389 0.5204 0.0
C201 C 0.37515 0.60442 0.48422 0.0
C202 C 0.33824 0.60241 0.45126 0.0
C203 C 0.34042 0.61004 0.5189 0.0
C204 C 0.26707 0.60649 0.45423 0.0
H205 H 0.23472 0.58813 0.32642 0.0
N206 N 0.15779 0.60719 0.42611 0.0
C207 C 0.1414 0.59639 0.35922 0.0
C208 C 0.22727 0.6038 0.42214 0.0
C209 C 0.11393 0.60315 0.39546 0.0
C210 C 0.21364 0.59342 0.35452 0.0
C211 C 0.25732 0.59692 0.38619 0.0
O212 O 0.04795 0.6015 0.46949 0.0
O213 O 1.03195 0.63356 0.51216 0.0
O214 O 0.04702 0.6445 0.5745 0.0
O215 O 0.11976 0.6266 0.55291 0.0
O216 O 1.00375 0.61769 0.46463 0.0
O217 O 0.1226 0.60512 0.51455 0.0
O218 O 0.14699 0.67012 0.55421 0.0
O219 O 0.163 0.63804 0.51118 0.0
O220 O 0.14185 0.62706 0.44768 0.0
O221 O 0.06833 0.64485 0.47124 0.0
O222 O 0.18941 0.65357 0.55989 0.0
O223 O 0.07788 0.66577 0.50652 0.0
C224 C 0.98129 0.62849 0.48947 0.0
C225 C 0.10123 0.58351 0.47289 0.0
C226 C 0.11667 0.56255 0.47329 0.0
C227 C 0.09287 0.57532 0.49096 0.0
C228 C 0.14815 0.55816 0.43742 0.0
C229 C 0.13239 0.57872 0.43699 0.0
C230 C 0.1558 0.56618 0.41951 0.0
C231 C 0.07872 0.63511 0.57906 0.0
C232 C 0.07791 0.59698 0.49122 0.0
C233 C 0.32913 0.59338 0.38306 0.0
C234 C 0.36953 0.59613 0.41554 0.0
C235 C 0.21273 0.64294 0.53462 0.0
C236 C 0.10062 0.68753 0.5452 0.0
C237 C 0.13507 0.69608 0.53352 0.0
C238 C 0.1137 0.70897 0.54799 0.0
C239 C 0.05803 0.71311 0.57446 0.0
C240 C 0.04539 0.69199 0.57157 0.0
C241 C 1.02429 0.70468 0.58608 0.0
C242 C 0.10662 0.63629 0.44381 0.0
C243 C 0.122 0.67402 0.52997 0.0
H244 H 0.06874 0.57889 0.51865 0.0
H245 H 0.16585 0.54839 0.42281 0.0
H246 H 0.13821 0.58461 0.42211 0.0
H247 H 0.1796 0.56264 0.39178 0.0
H248 H 0.17761 0.69267 0.513 0.0
H249 H 0.04114 0.72297 0.58671 0.0
H250 H 1.01868 0.68568 0.5811 0.0
H251 H 0.98173 0.708 0.60657 0.0
Eu252 Eu 0.98258 0.36537 0.48845 0.0
C253 C 0.79258 0.41182 0.56353 0.0
C254 C 0.715 0.40895 0.51133 0.0
C255 C 0.67093 0.41966 0.57536 0.0
C256 C 0.78163 0.40728 0.52512 0.0
C257 C 0.73756 0.41827 0.58905 0.0
C258 C 0.65982 0.41507 0.5366 0.0
C259 C 0.82046 0.42293 0.63994 0.0
N260 N 0.85766 0.41044 0.57607 0.0
C261 C 0.87335 0.41666 0.61356 0.0
C262 C 0.75181 0.42353 0.62766 0.0
Eu263 Eu 0.94594 0.40007 0.52979 0.0
N264 N 0.83572 0.40122 0.50124 0.0
C265 C 0.82647 0.39691 0.46316 0.0
C266 C 0.7056 0.40445 0.4725 0.0
C267 C 0.7617 0.39845 0.44836 0.0
H268 H 0.92726 0.41694 0.62311 0.0
H269 H 0.75491 0.39487 0.41821 0.0
H270 H 0.6084 0.41637 0.52643 0.0
H271 H 0.83307 0.42751 0.66964 0.0
H272 H 0.86759 0.39193 0.44348 0.0
H273 H 0.23621 0.35936 0.5465 0.0
H274 H 0.65526 0.40553 0.46089 0.0
H275 H 0.92402 0.34983 0.39971 0.0
H276 H 0.11194 0.36599 0.54863 0.0
H277 H 0.97207 0.33664 0.33627 0.0
H278 H 0.62805 0.4245 0.59454 0.0
H279 H 0.29763 0.34848 0.48537 0.0
H280 H 0.2919 0.33904 0.41486 0.0
H281 H 0.71101 0.42854 0.6481 0.0
H282 H 0.21997 0.33284 0.3575 0.0
N283 N 0.10288 0.35945 0.4892 0.0
C284 C 0.13774 0.36134 0.52165 0.0
C285 C 0.24307 0.3515 0.48608 0.0
C286 C 0.20602 0.34895 0.45279 0.0
C287 C 0.20846 0.35757 0.52062 0.0
C288 C 0.13482 0.35299 0.45527 0.0
H289 H 0.1003 0.33163 0.328 0.0
N290 N 1.02457 0.35265 0.42668 0.0
C291 C 1.00713 0.34026 0.36038 0.0
C292 C 0.09448 0.3495 0.42297 0.0
C293 C 0.98008 0.3477 0.39629 0.0
C294 C 0.0796 0.33748 0.35582 0.0
C295 C 0.12403 0.34189 0.38738 0.0
O296 O 0.91383 0.34855 0.47163 0.0
O297 O 0.89812 0.38057 0.51291 0.0
O298 O 0.9424 0.39428 0.57848 0.0
O299 O 0.9932 0.37395 0.55216 0.0
O300 O 0.87271 0.36472 0.46404 0.0
O301 O 0.98661 0.35299 0.51775 0.0
O302 O 0.98851 0.41903 0.56475 0.0
O303 O 1.02933 0.38499 0.5091 0.0
O304 O 1.01284 0.37186 0.44343 0.0
O305 O 0.98001 0.39332 0.46828 0.0
O306 O 0.05597 0.40142 0.55559 0.0
O307 O 0.95752 0.41431 0.50735 0.0
C308 C 0.8485 0.3752 0.48966 0.0
C309 C 0.96172 0.3312 0.48061 0.0
C310 C 0.94916 0.30988 0.47871 0.0
C311 C 0.92747 0.32275 0.49274 0.0
C312 C 1.00448 0.30563 0.45208 0.0
C313 C 1.01685 0.32663 0.45422 0.0
C314 C 1.03793 0.31396 0.43999 0.0
C315 C 0.96962 0.38417 0.58123 0.0
C316 C 0.94091 0.34476 0.49564 0.0
C317 C 0.19607 0.33853 0.38463 0.0
C318 C 0.23701 0.34206 0.41729 0.0
C319 C 0.07932 0.39047 0.53193 0.0
C320 C 0.0473 0.4299 0.53338 0.0
C321 C 1.03809 0.44197 0.53349 0.0
C322 C 0.09672 0.44877 0.52863 0.0
C323 C 0.16471 0.44329 0.52424 0.0
C324 C 0.11542 0.42459 0.52832 0.0
C325 C 0.17377 0.43131 0.52403 0.0
C326 C 1.00396 0.38272 0.44055 0.0
C327 C 0.98527 0.42291 0.53809 0.0
H328 H 0.8851 0.32621 0.51335 0.0
H329 H 1.02148 0.29578 0.44018 0.0
H330 H 0.04375 0.33284 0.44454 0.0
H331 H 0.0804 0.31057 0.41946 0.0
H332 H 0.98515 0.44593 0.53666 0.0
H333 H 0.21121 0.4483 0.52124 0.0
H334 H 0.12361 0.41527 0.52767 0.0
H335 H 0.22632 0.4272 0.52047 0.0
Eu336 Eu 0.63495 0.89747 0.02737 0.0
C337 C 0.48942 0.84618 0.91917 0.0
C338 C 0.37869 0.84475 0.9487 0.0
C339 C 0.38915 0.83472 0.88051 0.0
C340 C 0.44913 0.84926 0.95138 0.0
C341 C 0.4605 0.83859 0.88343 0.0
C342 C 0.34832 0.83779 0.9131 0.0
C343 C 0.57668 0.83809 0.85648 0.0
N344 N 0.55865 0.84983 0.92304 0.0
C345 C 0.60315 0.84549 0.89254 0.0
C346 C 0.50484 0.83475 0.85184 0.0
Eu347 Eu 0.59967 0.86252 0.98503 0.0
N348 N 0.48042 0.85584 0.98538 0.0
C349 C 0.44576 0.85741 0.0177 0.0
C350 C 0.34183 0.84692 0.98186 0.0
C351 C 0.37606 0.85307 0.01645 0.0
H352 H 0.65873 0.84805 0.89596 0.0
H353 H 0.34896 0.85447 0.04226 0.0
H354 H 0.29402 0.8344 0.91051 0.0
H355 H 0.61171 0.83494 0.83232 0.0
H356 H 0.47096 0.86214 0.04477 0.0
H357 H 0.8106 0.89404 0.91097 0.0
H358 H 0.28777 0.84357 0.98101 0.0
H359 H 0.67095 0.91103 0.12133 0.0
H360 H 0.70452 0.88971 0.93867 0.0
H361 H 0.77159 0.92012 0.16352 0.0
H362 H 0.36573 0.82901 0.85328 0.0
H363 H 0.91187 0.90533 0.95101 0.0
H364 H 0.96701 0.91516 0.01482 0.0
H365 H 0.48459 0.82893 0.8239 0.0
H366 H 0.95867 0.92116 0.08259 0.0
N367 N 0.74124 0.89885 0.99564 0.0
C368 C 0.74631 0.89488 0.95745 0.0
C369 C 0.86465 0.90351 0.96382 0.0
C370 C 0.86072 0.90721 0.00259 0.0
C371 C 0.80753 0.89719 0.94115 0.0
C372 C 0.79743 0.9048 0.01801 0.0
H373 H 0.88736 0.92268 0.13786 0.0
N374 N 0.73073 0.90612 0.07073 0.0
C375 C 0.77886 0.91657 0.13339 0.0
C376 C 0.79259 0.90826 0.05637 0.0
C377 C 0.72223 0.91093 0.10902 0.0
C378 C 0.84385 0.91808 0.11884 0.0
C379 C 0.85088 0.91424 0.0801 0.0
O380 O 0.60125 0.91652 0.06673 0.0
O381 O 0.55334 0.88204 0.00707 0.0
O382 O 0.56619 0.86934 0.94116 0.0
O383 O 0.5963 0.89103 0.96675 0.0
O384 O 0.52202 0.89884 0.05056 0.0
O385 O 0.61386 0.91225 0.00781 0.0
O386 O 0.66891 0.8458 0.96712 0.0
O387 O 0.68331 0.878 0.00954 0.0
O388 O 0.62871 0.89171 0.07575 0.0
O389 O 0.5871 0.87068 0.04862 0.0
O390 O 0.70858 0.86239 0.96009 0.0
O391 O 0.60017 0.85036 0.01507 0.0
C392 C 0.50102 0.88755 0.02801 0.0
C393 C 0.63934 0.93344 0.05188 0.0
C394 C 0.65221 0.95374 0.04702 0.0
C395 C 0.61619 0.94206 0.03751 0.0
C396 C 0.71157 0.95662 0.07092 0.0
C397 C 0.69796 0.93675 0.07626 0.0
C398 C 0.73404 0.94818 0.08542 0.0
C399 C 0.57262 0.88038 0.93891 0.0
C400 C 0.60214 0.92111 0.04158 0.0
C401 C 0.91369 0.91657 0.06475 0.0
C402 C 0.91837 0.91317 0.02617 0.0
C403 C 0.73251 0.87289 0.98573 0.0
C404 C 0.6239 0.82858 0.97813 0.0
C405 C 0.65893 0.82039 0.99075 0.0
C406 C 0.63658 0.80758 0.97829 0.0
C407 C 0.57966 0.80313 0.95282 0.0
C408 C 0.56757 0.8238 0.95265 0.0
C409 C 0.54565 0.81119 0.94008 0.0
C410 C 0.60479 0.88132 0.07803 0.0
C411 C 0.64466 0.84213 0.99207 0.0
H412 H 0.57063 0.93966 0.01893 0.0
H413 H 0.73973 0.96556 0.07921 0.0
H414 H 0.71573 0.93062 0.08872 0.0
H415 H 0.7792 0.95058 0.10421 0.0
H416 H 0.7024 0.824 0.01057 0.0
H417 H 0.56197 0.79332 0.94231 0.0
H418 H 0.54034 0.82981 0.94246 0.0
H419 H 0.50207 0.80764 0.92035 0.0
Eu420 Eu 0.4749 0.15052 0.03047 0.0
C421 C 0.29531 0.10495 0.95752 0.0
C422 C 0.22515 0.10487 0.00935 0.0
C423 C 0.17318 0.09712 0.94708 0.0
C424 C 0.28928 0.10759 0.9953 0.0
C425 C 0.23737 0.09948 0.93294 0.0
C426 C 0.16728 0.09971 0.98511 0.0
C427 C 0.31304 0.0972 0.88098 0.0
N428 N 0.35866 0.10701 0.94432 0.0
C429 C 0.36919 0.10231 0.90616 0.0
C430 C 0.24638 0.09601 0.8945 0.0
Eu431 Eu 0.4523 0.11558 0.98944 0.0
N432 N 0.34598 0.11267 0.01827 0.0
C433 C 0.34237 0.11468 0.05523 0.0
C434 C 0.22117 0.10726 0.04731 0.0
C435 C 0.2801 0.11216 0.07029 0.0
H436 H 0.42141 0.10201 0.89447 0.0
H437 H 0.27797 0.11385 0.09961 0.0
H438 H 0.11793 0.09751 0.99536 0.0
H439 H 0.32184 0.09384 0.85101 0.0
H440 H 0.38721 0.11797 0.07359 0.0
H441 H 0.66751 0.1539 0.92992 0.0
H442 H 0.17328 0.10518 0.05904 0.0
H443 H 0.48119 0.16685 0.12524 0.0
H444 H 0.55486 0.14871 0.9503 0.0
H445 H 0.56945 0.1773 0.17524 0.0
H446 H 0.12833 0.09297 0.92861 0.0
H447 H 0.76345 0.16376 0.97575 0.0
H448 H 0.80798 0.17152 0.04196 0.0
H449 H 0.20321 0.09181 0.87483 0.0
H450 H 0.78269 0.17715 0.10857 0.0
N451 N 0.58576 0.15446 0.00751 0.0
C452 C 0.59604 0.15242 0.97084 0.0
C453 C 0.71451 0.16102 0.98493 0.0
C454 C 0.70389 0.16336 0.02255 0.0
C455 C 0.66031 0.15554 0.95901 0.0
C456 C 0.63761 0.16016 0.03329 0.0
H457 H 0.69403 0.17937 0.15856 0.0
N458 N 0.55663 0.16143 0.0805 0.0
C459 C 0.58573 0.17326 0.14601 0.0
C460 C 0.6232 0.16343 0.07079 0.0
C461 C 0.53614 0.16714 0.11754 0.0
C462 C 0.6559 0.1744 0.13648 0.0
C463 C 0.67482 0.1699 0.09853 0.0
O464 O 0.4235 0.16879 0.06391 0.0
O465 O 0.39527 0.1344 0.00731 0.0
O466 O 0.46454 0.12084 0.94077 0.0
O467 O 0.44667 0.1428 0.96807 0.0
O468 O 0.37039 0.14988 0.05785 0.0
O469 O 0.44854 0.16376 0.00582 0.0
O470 O 0.48903 0.09665 0.95079 0.0
O471 O 0.53083 0.13174 0.01232 0.0
O472 O 0.47879 0.14466 0.0787 0.0
O473 O 0.49245 0.12256 0.04977 0.0
O474 O 0.56156 0.11579 0.96498 0.0
O475 O 0.47775 0.10111 0.00972 0.0
C476 C 0.34768 0.13916 0.03248 0.0
C477 C 0.45387 0.18566 0.04754 0.0
C478 C 0.44743 0.20638 0.04484 0.0
C479 C 0.41956 0.19405 0.03542 0.0
C480 C 0.5096 0.21014 0.06671 0.0
C481 C 0.51567 0.18974 0.06933 0.0
C482 C 0.54329 0.20187 0.07878 0.0
C483 C 0.4541 0.1317 0.93845 0.0
C484 C 0.42562 0.17267 0.03729 0.0
C485 C 0.74227 0.17232 0.08769 0.0
C486 C 0.75659 0.16915 0.04979 0.0
C487 C 0.58154 0.12693 0.98929 0.0
C488 C 0.45207 0.07988 0.96627 0.0
C489 C 0.47607 0.07119 0.98021 0.0
C490 C 0.43967 0.05957 0.97112 0.0
C491 C 0.37919 0.05681 0.94801 0.0
C492 C 0.39214 0.07671 0.94279 0.0
C493 C 0.35582 0.06532 0.93398 0.0
C494 C 0.4917 0.13365 0.07987 0.0
C495 C 0.4893 0.09217 0.97613 0.0
H496 H 0.37196 0.19095 0.01843 0.0
H497 H 0.53171 0.21959 0.07509 0.0
H498 H 0.54257 0.18363 0.07936 0.0
H499 H 0.59089 0.2049 0.09574 0.0
H500 H 0.52249 0.07351 -0.00181 0.0
H501 H 0.35072 0.04791 0.94 0.0
H502 H 0.37351 0.08292 0.93079 0.0
H503 H 0.30971 0.06302 0.91585 0.0
Eu504 Eu 0.64156 0.11768 0.49157 0.0
C505 C 0.49055 0.16772 0.59969 0.0
C506 C 0.37859 0.16802 0.56988 0.0
C507 C 0.38808 0.1782 0.63809 0.0
C508 C 0.4503 0.16425 0.56737 0.0
C509 C 0.46048 0.17507 0.63534 0.0
C510 C 0.34718 0.17467 0.60541 0.0
C511 C 0.57736 0.17686 0.66249 0.0
N512 N 0.56072 0.16476 0.59601 0.0
C513 C 0.6049 0.16965 0.62653 0.0
C514 C 0.50467 0.17944 0.667 0.0
Eu515 Eu 0.60336 0.15234 0.53417 0.0
N516 N 0.48262 0.15803 0.53344 0.0
C517 C 0.44766 0.15617 0.50105 0.0
C518 C 0.34131 0.16542 0.53662 0.0
C519 C 0.37638 0.15966 0.50209 0.0
H520 H 0.66112 0.16765 0.62315 0.0
H521 H 0.34846 0.15783 0.47623 0.0
H522 H 0.29193 0.17749 0.60787 0.0
H523 H 0.6122 0.18044 0.68669 0.0
H524 H 0.4738 0.15171 0.4741 0.0
H525 H 0.83953 0.12168 0.59883 0.0
H526 H 0.2861 0.16811 0.53732 0.0
H527 H 0.65395 0.10093 0.39777 0.0
H528 H 0.72412 0.12463 0.57586 0.0
H529 H 0.74555 0.09056 0.34936 0.0
H530 H 0.36378 0.18369 0.66526 0.0
H531 H 0.93791 0.1118 0.55428 0.0
H532 H 0.98184 0.10189 0.48791 0.0
H533 H 0.48357 0.1851 0.69487 0.0
H534 H 0.95736 0.09401 0.42026 0.0
N535 N 0.75368 0.11617 0.5177 0.0
C536 C 0.76491 0.12003 0.55546 0.0
C537 C 0.88646 0.11288 0.5437 0.0
C538 C 0.87483 0.10875 0.50515 0.0
C539 C 0.83108 0.11845 0.5689 0.0
C540 C 0.80675 0.11038 0.49274 0.0
H541 H 0.86983 0.08979 0.36841 0.0
N542 N 0.72676 0.10733 0.44344 0.0
C543 C 0.7601 0.09508 0.37881 0.0
C544 C 0.79321 0.10604 0.45463 0.0
C545 C 0.70859 0.10117 0.40626 0.0
C546 C 0.83005 0.09463 0.38969 0.0
C547 C 0.84703 0.09983 0.42799 0.0
O548 O 0.59512 0.09896 0.4576 0.0
O549 O 0.55736 0.13265 0.51292 0.0
O550 O 0.57335 0.14551 0.57852 0.0
O551 O 0.61019 0.12426 0.55331 0.0
O552 O 0.53129 0.11631 0.46596 0.0
O553 O 0.6344 0.10328 0.51346 0.0
O554 O 0.67058 0.16938 0.55191 0.0
O555 O 0.68827 0.13731 0.5096 0.0
O556 O 0.64632 0.12384 0.44389 0.0
O557 O 0.59401 0.14406 0.47034 0.0
O558 O 0.71364 0.15308 0.5585 0.0
O559 O 0.59843 0.1649 0.50547 0.0
C560 C 0.50751 0.12718 0.48996 0.0
C561 C 0.5405 0.08848 0.49116 0.0
C562 C 0.49053 0.06991 0.49723 0.0
C563 C 0.54829 0.07614 0.48919 0.0
C564 C 0.42468 0.07622 0.50674 0.0
C565 C 0.47468 0.09462 0.50122 0.0
C566 C 0.41702 0.08847 0.50873 0.0
C567 C 0.58452 0.13465 0.58112 0.0
C568 C 0.60208 0.09495 0.48384 0.0
C569 C 0.9153 0.09862 0.44031 0.0
C570 C 0.92914 0.10305 0.4788 0.0
C571 C 0.73803 0.14264 0.53278 0.0
C572 C 0.62143 0.18671 0.5433 0.0
C573 C 0.65503 0.19532 0.53156 0.0
C574 C 0.63241 0.20814 0.54584 0.0
C575 C 0.57675 0.21219 0.5723 0.0
C576 C 0.56595 0.19107 0.56954 0.0
C577 C 0.54391 0.2037 0.584 0.0
C578 C 0.61878 0.13394 0.44134 0.0
C579 C 0.64334 0.17321 0.52801 0.0
H580 H 0.59971 0.07155 0.48223 0.0
H581 H 0.37879 0.07165 0.51246 0.0
H582 H 0.46794 0.10418 0.50344 0.0
H583 H 0.36619 0.09322 0.51626 0.0
H584 H 0.69766 0.19201 0.51107 0.0
H585 H 0.55904 0.22199 0.58438 0.0
H586 H 0.53952 0.18474 0.57893 0.0
H587 H 0.50119 0.20693 0.6044 0.0
Eu588 Eu 0.47977 0.86436 0.48624 0.0
C589 C 0.3273 0.91365 0.59475 0.0
C590 C 0.21856 0.91411 0.56275 0.0
C591 C 0.22164 0.92352 0.6311 0.0
C592 C 0.29009 0.91041 0.56174 0.0
C593 C 0.2943 0.92069 0.62982 0.0
C594 C 0.18382 0.92026 0.59756 0.0
C595 C 0.40983 0.92373 0.65898 0.0
N596 N 0.39797 0.91127 0.59235 0.0
C597 C 0.44011 0.91697 0.62343 0.0
C598 C 0.3363 0.92536 0.66231 0.0
Eu599 Eu 0.44615 0.89926 0.53148 0.0
N600 N 0.32553 0.9046 0.52864 0.0
C601 C 0.29419 0.90315 0.49571 0.0
C602 C 0.1851 0.91204 0.52888 0.0
C603 C 0.22351 0.90673 0.49527 0.0
H604 H 0.49714 0.91594 0.62068 0.0
H605 H 0.19879 0.90537 0.46898 0.0
H606 H 0.12856 0.92299 0.59887 0.0
H607 H 0.44324 0.9278 0.68369 0.0
H608 H 0.32305 0.89904 0.4695 0.0
H609 H 0.72702 0.85532 0.54297 0.0
H610 H 0.13044 0.91486 0.52853 0.0
H611 H 0.425 0.85204 0.39633 0.0
H612 H 0.60498 0.86302 0.54556 0.0
H613 H 0.4752 0.84046 0.3325 0.0
H614 H 0.19508 0.92877 0.65778 0.0
H615 H 0.79009 0.84528 0.48192 0.0
H616 H 0.787 0.83745 0.41164 0.0
H617 H 0.313 0.9308 0.68979 0.0
H618 H 0.71863 0.83348 0.35436 0.0
N619 N 0.59804 0.85753 0.48652 0.0
C620 C 0.63131 0.85864 0.51865 0.0
C621 C 0.73616 0.84862 0.48284 0.0
C622 C 0.70082 0.84704 0.44983 0.0
C623 C 0.70082 0.85428 0.51733 0.0
C624 C 0.63054 0.85152 0.45257 0.0
H625 H 0.6021 0.83441 0.32456 0.0
N626 N 0.52305 0.85288 0.42407 0.0
C627 C 0.5087 0.84289 0.35696 0.0
C628 C 0.59207 0.84922 0.42035 0.0
C629 C 0.4804 0.84941 0.39312 0.0
C630 C 0.58042 0.83954 0.3526 0.0
C631 C 0.62278 0.84248 0.38449 0.0
O632 O 0.41115 0.84749 0.46533 0.0
O633 O 0.39662 0.87973 0.51066 0.0
O634 O 0.43407 0.89218 0.57692 0.0
O635 O 0.48848 0.87212 0.55001 0.0
O636 O 0.37131 0.86431 0.46095 0.0
O637 O 0.47712 0.8515 0.51401 0.0
O638 O 0.50974 0.91675 0.551 0.0
O639 O 0.52732 0.88385 0.5093 0.0
O640 O 0.51632 0.87289 0.4471 0.0
O641 O 0.44229 0.89053 0.46687 0.0
O642 O 0.55895 0.90024 0.55413 0.0
O643 O 0.44575 0.91141 0.50123 0.0
C644 C 0.34758 0.87482 0.48665 0.0
C645 C 0.45419 0.82983 0.47427 0.0
C646 C 0.44139 0.8085 0.47233 0.0
C647 C 0.42064 0.82142 0.48681 0.0
C648 C 0.49561 0.80418 0.44504 0.0
C649 C 0.50783 0.82519 0.447 0.0
C650 C 0.52841 0.81247 0.43254 0.0
C651 C 0.46174 0.88201 0.57899 0.0
C652 C 0.43368 0.8434 0.48962 0.0
C653 C 0.69387 0.83857 0.38165 0.0
C654 C 0.73279 0.84082 0.41427 0.0
C655 C 0.57932 0.88904 0.53082 0.0
C656 C 0.45721 0.93344 0.54019 0.0
C657 C 0.47494 0.94149 0.52268 0.0
C658 C 0.4452 0.95382 0.53589 0.0
C659 C 0.39855 0.95796 0.56683 0.0
C660 C 0.41096 0.93796 0.57119 0.0
C661 C 0.38182 0.95009 0.58434 0.0
C662 C 0.4844 0.88205 0.44143 0.0
C663 C 0.48506 0.92028 0.52591 0.0
H664 H 0.37926 0.82496 0.50798 0.0
H665 H 0.51198 0.7943 0.43281 0.0
H666 H 0.53366 0.83136 0.43669 0.0
H667 H 0.56977 0.80901 0.41139 0.0
H668 H 0.51065 0.93814 0.49873 0.0
H669 H 0.37574 0.96742 0.57793 0.0
H670 H 0.39731 0.93218 0.5855 0.0
H671 H 0.34623 0.95342 0.6083 0.0
H672 H 0.31726 0.38156 0.04863 0.0
H673 H 0.44708 0.38387 0.05541 0.0
H674 H 0.46864 0.36835 0.93467 0.0
H675 H 0.33955 0.36683 0.92824 0.0
H676 H 0.55128 0.36825 0.03611 0.0
H677 H 0.59501 0.3975 0.95785 0.0
H678 H 0.5071 0.39338 0.96689 0.0
H679 H 0.55766 0.38236 0.92771 0.0
C680 C 0.34978 0.379 0.02367 0.0
C681 C 0.31772 0.37457 0.988 0.0
C682 C 0.42431 0.38017 0.02746 0.0
C683 C 0.46893 0.37671 0.99564 0.0
C684 C 0.43653 0.37169 0.95994 0.0
H685 H 0.93214 0.37623 0.96004 0.0
H686 H 0.80332 0.37269 0.9526 0.0
C687 C 0.3623 0.3707 0.95623 0.0
C688 C 0.5489 0.3778 -0.00038 0.0
H689 H 0.69852 0.38839 0.97132 0.0
C690 C 0.58315 0.37276 0.02212 0.0
C691 C 0.59199 0.38352 0.98112 0.0
C692 C 0.5609 0.38959 0.95736 0.0
C693 C 0.65783 0.37309 0.02619 0.0
C694 C 0.70077 0.37888 0.00791 0.0
C695 C 0.6666 0.38388 0.98533 0.0
C696 C 0.78056 0.38017 0.01233 0.0
C697 C 0.68957 0.36685 0.04934 0.0
C698 C 0.81215 0.38561 0.04823 0.0
C699 C 0.88608 0.38736 0.05237 0.0
C700 C 0.93099 0.38375 0.02081 0.0
C701 C 0.89964 0.3786 0.98489 0.0
C702 C 0.82555 0.37674 0.9807 0.0
H703 H 0.65458 0.35917 0.04972 0.0
H704 H 0.74225 0.36272 0.03841 0.0
H705 H 0.6958 0.37407 0.07885 0.0
H706 H 0.77951 0.38888 0.07331 0.0
H707 H 0.90822 0.39176 0.08048 0.0
H708 H 0.16823 0.63691 0.05617 0.0
H709 H 0.29747 0.63996 0.06484 0.0
H710 H 0.32436 0.62555 0.94458 0.0
H711 H 0.19578 0.62322 0.93631 0.0
H712 H 0.40124 0.62363 0.04368 0.0
H713 H 0.45027 0.65543 0.974 0.0
H714 H 0.36249 0.65183 0.98488 0.0
H715 H 0.4069 0.64101 0.9428 0.0
C716 C 0.20178 0.63482 0.03179 0.0
C717 C 0.17164 0.63033 0.99567 0.0
C718 C 0.27584 0.63641 0.03666 0.0
C719 C 0.32157 0.63331 0.00545 0.0
C720 C 0.29104 0.62853 0.96936 0.0
H721 H 0.78052 0.63185 0.96694 0.0
H722 H 0.65099 0.62937 0.96136 0.0
C723 C 0.21727 0.6271 0.96459 0.0
C724 C 0.40104 0.63429 0.01023 0.0
H725 H 0.55173 0.64533 0.98475 0.0
C726 C 0.43399 0.62847 0.03097 0.0
C727 C 0.44483 0.64052 0.99366 0.0
C728 C 0.41431 0.64765 0.97284 0.0
C729 C 0.50852 0.6284 0.03476 0.0
C730 C 0.55233 0.63452 0.01776 0.0
C731 C 0.51919 0.64045 -0.00261 0.0
C732 C 0.6321 0.63514 0.02093 0.0
C733 C 0.53867 0.62148 0.05637 0.0
C734 C 0.66589 0.63928 0.05611 0.0
C735 C 0.74012 0.64025 0.05899 0.0
C736 C 0.78281 0.63728 0.02691 0.0
C737 C 0.7493 0.63366 0.99192 0.0
C738 C 0.67501 0.6324 0.98887 0.0
H739 H 0.50415 0.61336 0.05383 0.0
H740 H 0.59254 0.6178 0.04658 0.0
H741 H 0.54147 0.62814 0.08665 0.0
H742 H 0.63491 0.64204 0.08162 0.0
H743 H 0.7643 0.6435 0.08654 0.0
H744 H 0.90432 0.63792 0.55601 0.0
H745 H 0.77453 0.6403 0.56336 0.0
H746 H 0.75269 0.62717 0.44333 0.0
H747 H 0.88169 0.62465 0.43603 0.0
H748 H 0.67649 0.65449 0.5465 0.0
H749 H 0.61619 0.6035 0.46095 0.0
H750 H 0.70504 0.60917 0.4763 0.0
H751 H 0.6678 0.61038 0.43575 0.0
C752 C 0.87182 0.63571 0.53129 0.0
C753 C 0.90361 0.63132 0.49546 0.0
C754 C 0.79737 0.63698 0.53544 0.0
C755 C 0.75274 0.63368 0.50384 0.0
C756 C 0.78494 0.62949 0.46818 0.0
H757 H 0.28961 0.63391 0.46798 0.0
H758 H 0.41953 0.63179 0.46045 0.0
C759 C 0.85903 0.62817 0.46404 0.0
C760 C 0.67293 0.63465 0.50794 0.0
H761 H 0.51802 0.61768 0.47717 0.0
C762 C 0.64206 0.6464 0.53145 0.0
C763 C 0.62696 0.62416 0.48839 0.0
C764 C 0.6556 0.61106 0.46423 0.0
C765 C 0.56756 0.64801 0.53524 0.0
C766 C 0.52159 0.63751 0.5157 0.0
C767 C 0.55246 0.62577 0.49219 0.0
C768 C 0.44179 0.63847 0.51994 0.0
C769 C 0.53893 0.66111 0.55942 0.0
C770 C 0.40985 0.64264 0.55565 0.0
C771 C 0.33573 0.64381 0.5599 0.0
C772 C 0.29084 0.64054 0.52853 0.0
C773 C 0.3224 0.63623 0.49266 0.0
C774 C 0.39689 0.6351 0.4884 0.0
H775 H 0.57824 0.66867 0.56256 0.0
H776 H 0.48931 0.66299 0.54745 0.0
H777 H 0.52707 0.66181 0.58795 0.0
H778 H 0.44232 0.64501 0.58046 0.0
H779 H 0.31327 0.64726 0.58794 0.0
H780 H 0.77205 0.38526 0.55667 0.0
H781 H 0.64205 0.38741 0.56439 0.0
H782 H 0.61785 0.37149 0.44381 0.0
H783 H 0.74655 0.36911 0.43621 0.0
H784 H 0.54393 0.40053 0.54615 0.0
H785 H 0.47974 0.34953 0.466 0.0
H786 H 0.56942 0.35507 0.47951 0.0
H787 H 0.53035 0.35552 0.43822 0.0
C788 C 0.73884 0.38228 0.53188 0.0
C789 C 0.76996 0.37726 0.49581 0.0
C790 C 0.66431 0.38345 0.53626 0.0
C791 C 0.61893 0.37939 0.50468 0.0
C792 C 0.6505 0.37438 0.46875 0.0
H793 H 0.15771 0.38029 0.46596 0.0
H794 H 0.28754 0.37778 0.45955 0.0
C795 C 0.72453 0.37314 0.46441 0.0
C796 C 0.53911 0.38057 0.50898 0.0
H797 H 0.38289 0.36399 0.47883 0.0
C798 C 0.50902 0.3925 0.53149 0.0
C799 C 0.49226 0.37014 0.49017 0.0
C800 C 0.51957 0.35682 0.46745 0.0
C801 C 0.43467 0.39438 0.53473 0.0
C802 C 0.38789 0.38397 0.51577 0.0
C803 C 0.41791 0.37202 0.49341 0.0
C804 C 0.3081 0.38522 0.51941 0.0
C805 C 0.40717 0.40768 0.55755 0.0
C806 C 0.27517 0.38998 0.555 0.0
C807 C 0.20106 0.3914 0.55861 0.0
C808 C 0.15718 0.38777 0.52675 0.0
C809 C 0.18969 0.38289 0.49104 0.0
C810 C 0.26415 0.38153 0.48741 0.0
H811 H 0.44753 0.415 0.55998 0.0
H812 H 0.35831 0.40952 0.54491 0.0
H813 H 0.39438 0.40882 0.58643 0.0
H814 H 0.30683 0.39262 0.58019 0.0
H815 H 0.17782 0.39532 0.58653 0.0
H816 H 0.81038 0.8827 0.05197 0.0
H817 H 0.94009 0.88529 0.05873 0.0
H818 H 0.9619 0.86862 0.93788 0.0
H819 H 0.83292 0.8669 0.9314 0.0
H820 H 0.0439 0.86941 0.04036 0.0
H821 H 0.08846 0.89768 0.95933 0.0
H822 H 1.0006 0.89359 0.96857 0.0
H823 H 0.05127 0.88245 0.92967 0.0
C824 C 0.8429 0.87998 0.02696 0.0
C825 C 0.81093 0.87514 0.9912 0.0
C826 C 0.91736 0.8813 0.03075 0.0
C827 C 0.96202 0.87752 -0.00115 0.0
C828 C 0.92973 0.87216 0.96314 0.0
H829 H 0.42503 0.87583 0.96185 0.0
H830 H 0.29604 0.8724 0.95487 0.0
C831 C 0.85556 0.87106 0.95942 0.0
C832 C 0.04198 0.87855 0.00276 0.0
H833 H 0.19203 0.88847 0.97286 0.0
C834 C 0.07598 0.87369 0.02578 0.0
C835 C 0.08531 0.88395 0.98349 0.0
C836 C 0.0544 0.88981 0.95917 0.0
C837 C 0.15068 0.8739 0.02962 0.0
C838 C 0.19384 0.87938 0.01055 0.0
C839 C 0.15992 0.88419 0.98746 0.0
C840 C 0.27363 0.88056 0.01473 0.0
C841 C 0.18228 0.86786 0.05331 0.0
C842 C 0.30538 0.88633 0.05054 0.0
C843 C 0.37932 0.88805 0.05444 0.0
C844 C 0.42407 0.88406 0.02274 0.0
C845 C 0.39259 0.87853 0.98686 0.0
C846 C 0.31845 0.87672 0.98292 0.0
H847 H 0.14657 0.86042 0.05475 0.0
H848 H 0.23428 0.86345 0.04205 0.0
H849 H 0.18994 0.87525 0.08246 0.0
H850 H 0.27285 0.8899 0.07568 0.0
H851 H 0.4016 0.89273 0.08247 0.0
H852 H 0.25019 0.14336 0.08728 0.0
H853 H 0.12089 0.1418 0.08179 0.0
H854 H 0.13888 0.12842 0.96137 0.0
H855 H 0.26847 0.13088 0.96738 0.0
H856 H 1.03926 0.14472 0.98446 0.0
H857 H 0.99039 0.11292 0.05402 0.0
H858 H 1.02888 0.12765 0.08647 0.0
H859 H 0.07888 0.11716 0.04615 0.0
C860 C 0.22649 0.13993 0.05957 0.0
C861 C 0.26975 0.13676 0.02759 0.0
C862 C 0.15231 0.13891 0.05638 0.0
C863 C 0.11909 0.13457 0.02101 0.0
C864 C 0.16251 0.13162 0.98902 0.0
H865 H 0.68251 0.12285 0.93641 0.0
H866 H 0.81117 0.1251 0.94451 0.0
C867 C 0.23682 0.13287 0.99234 0.0
C868 C 1.03936 0.13396 0.0176 0.0
H869 H 0.8879 0.12319 0.04357 0.0
C870 C 1.00648 0.13988 -0.00286 0.0
C871 C 0.99533 0.12788 0.03462 0.0
C872 C 1.02533 0.12095 0.05624 0.0
C873 C 0.9321 0.14002 0.99347 0.0
C874 C 0.88809 0.13384 0.0101 0.0
C875 C 0.92082 0.12799 0.03083 0.0
C876 C 0.8086 0.13294 0.0054 0.0
C877 C 0.90174 0.14719 0.97271 0.0
C878 C 0.76297 0.13611 0.03667 0.0
C879 C 0.68888 0.13457 0.03191 0.0
C880 C 0.65858 0.13005 -0.00419 0.0
C881 C 0.70412 0.12675 0.96465 0.0
C882 C 0.77794 0.12813 0.96933 0.0
H883 H 0.93813 0.15489 0.97362 0.0
H884 H 0.89366 0.14055 0.94273 0.0
H885 H 0.85024 0.15149 0.98499 0.0
H886 H 0.7847 0.13968 0.06483 0.0
H887 H 0.6554 0.13674 0.05636 0.0
H888 H 0.4298 0.13692 0.5562 0.0
H889 H 0.30028 0.13964 0.56333 0.0
H890 H 0.2784 0.12482 0.44283 0.0
H891 H 0.40764 0.12229 0.43582 0.0
H892 H 0.1945 0.1457 0.47804 0.0
H893 H 0.1505 0.11242 0.54387 0.0
H894 H 0.21254 0.12496 0.5689 0.0
H895 H 0.23385 0.1133 0.52226 0.0
C896 C 0.39739 0.1344 0.5313 0.0
C897 C 0.42939 0.1297 0.49547 0.0
C898 C 0.32296 0.13577 0.53532 0.0
C899 C 0.27845 0.13232 0.50359 0.0
C900 C 0.31076 0.1276 0.46786 0.0
H901 H 0.81353 0.13303 0.46549 0.0
H902 H 0.94315 0.1304 0.45701 0.0
C903 C 0.38488 0.12616 0.46385 0.0
C904 C 0.19864 0.13368 0.5073 0.0
H905 H 0.05113 0.12455 0.54142 0.0
C906 C 0.16328 0.14101 0.49176 0.0
C907 C 0.15693 0.12758 0.52508 0.0
C908 C 0.19014 0.11902 0.54068 0.0
C909 C 0.08863 0.14261 0.49419 0.0
C910 C 0.047 0.13657 0.51217 0.0
C911 C 0.08233 0.12921 0.5276 0.0
C912 C 0.96738 0.13812 0.51657 0.0
C913 C 0.0552 0.15107 0.47834 0.0
C914 C 0.9366 0.14319 0.55266 0.0
C915 C 0.86263 0.14461 0.55744 0.0
C916 C 0.81661 0.14067 0.52628 0.0
C917 C 0.84716 0.13584 0.49008 0.0
C918 C 0.92155 0.13448 0.48527 0.0
H919 H 0.09493 0.15744 0.47406 0.0
H920 H 1.03107 0.14505 0.45063 0.0
H921 H 1.01264 0.15702 0.49721 0.0
H922 H 0.97 0.14615 0.57738 0.0
H923 H 0.84113 0.14861 0.58574 0.0
H924 H 0.65539 0.87819 0.46429 0.0
H925 H 0.78429 0.8748 0.45681 0.0
H926 H 0.80733 0.89071 0.57748 0.0
H927 H 0.67864 0.89348 0.5847 0.0
H928 H 0.88917 0.89089 0.47654 0.0
H929 H 0.93188 0.86092 0.55254 0.0
H930 H 0.84439 0.86439 0.54115 0.0
H931 H 0.88994 0.87566 0.5821 0.0
C932 C 0.68774 0.88053 0.48911 0.0
C933 C 0.65621 0.88559 0.52505 0.0
C934 C 0.76184 0.87876 0.4849 0.0
C935 C 0.80661 0.88217 0.51651 0.0
C936 C 0.77483 0.88748 0.55242 0.0
H937 H 0.26973 0.8842 0.55298 0.0
H938 H 0.13993 0.88654 0.55998 0.0
C939 C 0.70092 0.88915 0.55658 0.0
C940 C 0.8864 0.88101 0.51215 0.0
H941 H 1.03546 0.87034 0.53981 0.0
C942 C 0.92088 0.88629 0.49019 0.0
C943 C 0.92902 0.87511 0.53001 0.0
C944 C 0.89684 0.8686 0.55246 0.0
C945 C 0.99555 0.88608 0.48621 0.0
C946 C 1.03828 0.88025 0.50426 0.0
C947 C 1.00376 0.87494 0.52616 0.0
C948 C 0.11819 0.87925 0.50022 0.0
C949 C 1.02726 0.89245 0.46323 0.0
C950 C 0.15051 0.87419 0.46446 0.0
C951 C 0.22469 0.87312 0.46059 0.0
C952 C 0.26924 0.877 0.49229 0.0
C953 C 0.23723 0.88159 0.52807 0.0
C954 C 0.16274 0.88279 0.53199 0.0
H955 H 0.99289 0.90028 0.46375 0.0
H956 H 0.08058 0.8964 0.47348 0.0
H957 H 1.03193 0.88534 0.43348 0.0
H958 H 0.11833 0.87084 0.43926 0.0
H959 H 0.24739 0.86917 0.43255 0.0
H960 H 0.85585 0.54576 0.99027 0.0
H961 H 0.88967 0.52749 0.00228 0.0
H962 H 0.10796 0.53233 0.97729 0.0
H963 H 0.07439 0.55063 0.96514 0.0
H964 H 0.9508 0.50514 0.95024 0.0
H965 H 0.12383 0.52829 0.07551 0.0
H966 H 0.06417 0.53721 0.0599 0.0
H967 H 0.14786 0.53175 0.03651 0.0
C968 C 0.91121 0.54301 0.98767 0.0
C969 C 0.96245 0.54963 0.97663 0.0
C970 C 0.93042 0.53257 0.99457 0.0
C971 C 1.00134 0.52857 0.99087 0.0
C972 C 0.05307 0.53537 0.98096 0.0
H973 H 0.22406 0.46598 0.00636 0.0
H974 H 0.18637 0.48392 0.9937 0.0
C975 C 1.03387 0.54585 0.97409 0.0
C976 C 1.02021 0.51685 0.99532 0.0
H977 H 0.12357 0.50568 0.04597 0.0
C978 C 0.9883 0.50526 0.9713 0.0
C979 C 0.06913 0.51702 0.02278 0.0
C980 C 0.10282 0.52924 0.0504 0.0
C981 C 1.00517 0.49379 0.97345 0.0
C982 C 0.05443 0.49395 0.00077 0.0
C983 C 0.08596 0.50556 0.02494 0.0
C984 C 0.07508 0.4822 0.00465 0.0
C985 C 0.97154 0.48156 0.94583 0.0
C986 C 1.02481 0.47507 0.01424 0.0
C987 C 0.04627 0.46473 0.02133 0.0
C988 C 0.11846 0.46148 0.0194 0.0
C989 C 0.16813 0.46834 0.0084 0.0
C990 C 0.14669 0.4786 0.00118 0.0
H991 H 0.94965 0.48255 0.92095 0.0
H992 H 1.01053 0.47365 0.93596 0.0
H993 H 0.92718 0.47895 0.95988 0.0
H994 H 0.9694 0.4778 0.01771 0.0
H995 H 1.007 0.45971 0.03019 0.0
H996 H 0.16362 0.45767 0.48243 0.0
H997 H 0.15425 0.47871 0.4827 0.0
H998 H 0.99958 0.48971 0.57197 0.0
H999 H 1.00952 0.46866 0.57255 0.0
H1000 H 0.99197 0.49286 0.48517 0.0
H1001 H 0.19998 0.51556 0.59428 0.0
H1002 H 0.20851 0.49904 0.5614 0.0
H1003 H 0.13998 0.50368 0.5964 0.0
C1004 C 0.12787 0.46455 0.50237 0.0
C1005 C 0.08778 0.46145 0.5277 0.0
C1006 C 0.12228 0.47656 0.50227 0.0
C1007 C 0.07646 0.48576 0.52741 0.0
C1008 C 1.03528 0.48271 0.55234 0.0
H1009 H 0.99865 0.55809 0.50766 0.0
H1010 H 0.98159 0.54071 0.52716 0.0
C1011 C 0.0408 0.47065 0.55247 0.0
C1012 C 0.07316 0.49857 0.52757 0.0
H1013 H 0.15854 0.52733 0.56204 0.0
C1014 C 1.02737 0.50051 0.5024 0.0
C1015 C 0.11983 0.50844 0.5499 0.0
C1016 C 0.17003 0.50671 0.57719 0.0
C1017 C 1.02895 0.51194 0.49792 0.0
C1018 C 0.07712 0.52174 0.51958 0.0
C1019 C 0.12129 0.51989 0.54564 0.0
C1020 C 0.0882 0.53328 0.51251 0.0
C1021 C 0.98182 0.51312 0.46856 0.0
C1022 C 0.15468 0.53532 0.49974 0.0
C1023 C 0.16467 0.54528 0.48907 0.0
C1024 C 0.10845 0.55348 0.49093 0.0
C1025 C 0.04299 0.55194 0.5059 0.0
C1026 C 1.03296 0.54192 0.51661 0.0
H1027 H 0.95797 0.50384 0.44946 0.0
H1028 H 0.93795 0.51982 0.48273 0.0
H1029 H 1.01215 0.51696 0.45133 0.0
H1030 H 0.19833 0.52889 0.4966 0.0
H1031 H 0.21607 0.54631 0.47819 0.0
H1032 H 0.51648 0.96211 0.04601 0.0
H1033 H 0.47962 0.97986 0.03169 0.0
H1034 H 0.69642 0.98506 0.00525 0.0
H1035 H 0.73317 0.96725 0.01871 0.0
H1036 H 0.52902 1.00507 0.06936 0.0
H1037 H 0.5876 0.98595 0.91658 0.0
H1038 H 0.58055 0.97588 0.94107 0.0
H1039 H 0.66059 0.98479 0.94425 0.0
C1040 C 0.55591 0.96684 0.03624 0.0
C1041 C 0.62774 0.96328 0.03354 0.0
C1042 C 0.53491 0.97704 0.02835 0.0
C1043 C 0.58517 0.98374 0.01714 0.0
C1044 C 0.65648 0.97993 0.01328 0.0
H1045 H 0.57553 0.05105 0.97095 0.0
H1046 H 0.61296 0.03328 0.98507 0.0
C1047 C 0.67749 0.9698 0.02127 0.0
C1048 C 0.56427 0.99524 0.0119 0.0
H1049 H 0.56431 0.00817 0.94823 0.0
C1050 C 0.53623 1.00572 0.04279 0.0
C1051 C 0.57435 0.99614 0.97735 0.0
C1052 C 0.60182 0.98506 0.9428 0.0
C1053 C 0.51906 0.01711 0.04025 0.0
C1054 C 0.52904 0.018 0.00569 0.0
C1055 C 0.55712 1.00753 0.9748 0.0
C1056 C 0.50787 0.02949 0.00043 0.0
C1057 C 0.49179 0.0282 0.07486 0.0
C1058 C 0.43663 0.03336 0.00479 0.0
C1059 C 0.41532 0.04351 -0.00303 0.0
C1060 C 0.46465 0.04998 0.98431 0.0
C1061 C 0.53643 0.04636 0.98104 0.0
C1062 C 0.55774 0.03614 0.9888 0.0
H1063 H 0.50675 0.02734 0.10106 0.0
H1064 H 0.51251 0.03738 0.07642 0.0
H1065 H 0.43296 0.0284 0.07369 0.0
H1066 H 0.39695 0.02827 0.01312 0.0
H1067 H 0.35971 0.04611 0.0 0.0
H1068 H 0.56464 0.04932 0.44627 0.0
H1069 H 0.5749 0.02803 0.44476 0.0
H1070 H 0.44399 0.03987 0.54414 0.0
H1071 H 0.43538 0.0612 0.54658 0.0
H1072 H 0.5627 0.02621 0.54711 0.0
H1073 H 0.41745 1.00093 0.41217 0.0
H1074 H 0.49306 0.01023 0.41074 0.0
H1075 H 0.41638 0.01805 0.43793 0.0
C1076 C 0.53856 0.04742 0.468 0.0
C1077 C 0.49862 0.05698 0.49637 0.0
C1078 C 0.54388 0.0352 0.46686 0.0
C1079 C 0.50928 0.03227 0.49399 0.0
C1080 C 0.47076 0.04186 0.52274 0.0
H1081 H 0.35227 0.96715 0.51366 0.0
H1082 H 0.37865 0.98501 0.49824 0.0
C1083 C 0.4654 0.05404 0.5239 0.0
C1084 C 0.51248 0.01928 0.49285 0.0
H1085 H 0.45654 0.98855 0.44283 0.0
C1086 C 0.54032 0.01793 0.5241 0.0
C1087 C 0.48286 0.0085 0.46289 0.0
C1088 C 0.45019 0.00944 0.42909 0.0
C1089 C 0.53733 1.00623 0.52682 0.0
C1090 C 0.50661 0.99549 0.49715 0.0
C1091 C 0.48073 0.99675 0.46535 0.0
C1092 C 0.49274 0.98343 0.50086 0.0
C1093 C 0.56361 1.00565 0.56235 0.0
C1094 C 0.54815 0.97619 0.50587 0.0
C1095 C 0.53306 0.96591 0.51474 0.0
C1096 C 0.46235 0.96274 0.51877 0.0
C1097 C 0.40727 0.96946 0.51113 0.0
C1098 C 0.4223 0.97966 0.50222 0.0
H1099 H 0.574 0.01528 0.58513 0.0
H1100 H 0.52437 1.00072 0.57274 0.0
H1101 H 0.61392 1.00019 0.55627 0.0
H1102 H 0.60297 0.97878 0.50429 0.0
H1103 H 0.57653 0.96093 0.52055 0.0
H1104 H 0.06762 0.29035 0.99419 0.0
H1105 H 0.12042 0.27347 0.00744 0.0
H1106 H 0.32947 0.28549 0.99069 0.0
H1107 H 0.27666 0.30238 0.9769 0.0
H1108 H 0.30067 0.25879 0.94894 0.0
H1109 H 0.23171 0.27542 0.10004 0.0
H1110 H 0.15865 0.27502 0.07023 0.0
H1111 H 0.23115 0.28586 0.0766 0.0
C1112 C 0.12491 0.28949 0.9937 0.0
C1113 C 0.16798 0.29769 0.98441 0.0
C1114 C 0.15503 0.27988 0.00153 0.0
C1115 C 0.22892 0.27826 0.00034 0.0
C1116 C 0.2723 0.28661 0.99194 0.0
H1117 H 0.51063 0.22204 0.01766 0.0
H1118 H 0.45599 0.23894 0.00544 0.0
C1119 C 0.24215 0.29631 0.98433 0.0
C1120 C 0.26021 0.26737 0.00561 0.0
H1121 H 0.27595 0.25435 0.06867 0.0
C1122 C 0.29571 0.25785 0.97519 0.0
C1123 C 0.25293 0.26608 0.03972 0.0
C1124 C 0.21708 0.27618 0.07367 0.0
C1125 C 0.32327 0.247 0.97776 0.0
C1126 C 0.31657 0.24575 0.01199 0.0
C1127 C 0.28084 0.25526 0.04238 0.0
C1128 C 0.34879 0.23493 0.01742 0.0
C1129 C 0.35792 0.23684 0.94347 0.0
C1130 C 0.30699 0.22707 0.02863 0.0
C1131 C 0.33836 0.21743 0.03607 0.0
C1132 C 0.4123 0.21556 0.03285 0.0
C1133 C 0.45362 0.22328 0.02078 0.0
C1134 C 0.42233 0.23288 0.01338 0.0
H1135 H 0.33944 0.23724 0.91714 0.0
H1136 H 0.41626 0.23836 0.9453 0.0
H1137 H 0.34682 0.22718 0.94158 0.0
H1138 H 0.25015 0.22852 0.03213 0.0
H1139 H 0.30511 0.21176 0.04569 0.0
H1140 H 0.57339 0.79143 0.00331 0.0
H1141 H 0.62927 0.77475 0.01639 0.0
H1142 H 0.83506 0.78638 0.99351 0.0
H1143 H 0.77919 0.80324 0.98085 0.0
H1144 H 0.70427 0.75473 0.96694 0.0
H1145 H 0.87303 0.78295 0.0902 0.0
H1146 H 0.80339 0.79005 0.07408 0.0
H1147 H 0.88799 0.78651 0.05051 0.0
C1148 C 0.63068 0.79054 0.00154 0.0
C1149 C 0.67192 0.79863 0.99098 0.0
C1150 C 0.66255 0.781 0.009 0.0
C1151 C 0.73644 0.77932 0.00617 0.0
C1152 C 0.77809 0.78763 -0.00336 0.0
H1153 H 1.02193 0.72268 0.01801 0.0
H1154 H 0.96548 0.73977 0.00729 0.0
C1155 C 0.74615 0.79726 0.98938 0.0
C1156 C 0.76885 0.7684 0.01091 0.0
H1157 H 0.89194 0.76056 0.06126 0.0
C1158 C 0.74503 0.75602 0.98773 0.0
C1159 C 0.82212 0.77006 0.03797 0.0
C1160 C 0.84775 0.78311 0.06487 0.0
C1161 C 0.77372 0.74526 0.99044 0.0
C1162 C 0.82714 0.74693 0.01738 0.0
C1163 C 0.85102 0.7593 0.04057 0.0
C1164 C 0.85979 0.73597 0.02175 0.0
C1165 C 0.74777 0.7322 0.96386 0.0
C1166 C 0.81901 0.72802 0.03306 0.0
C1167 C 0.85126 0.71821 0.03932 0.0
C1168 C 0.92501 0.71625 0.03468 0.0
C1169 C 0.96519 0.72403 0.02237 0.0
C1170 C 0.933 0.7338 0.01615 0.0
H1171 H 0.71969 0.73236 0.93921 0.0
H1172 H 0.79261 0.72538 0.95356 0.0
H1173 H 0.71007 0.72863 0.97898 0.0
H1174 H 0.76257 0.72964 0.03813 0.0
H1175 H 0.81895 0.71251 0.04922 0.0
H1176 H 0.25642 0.71201 0.53865 0.0
H1177 H 0.31351 0.72875 0.52547 0.0
H1178 H 0.10798 0.74397 0.51919 0.0
H1179 H 0.05073 0.72712 0.53119 0.0
H1180 H 0.19877 0.74324 0.46294 0.0
H1181 H 0.33087 0.76591 0.60236 0.0
H1182 H 0.35114 0.74934 0.57579 0.0
H1183 H 0.26199 0.75404 0.59217 0.0
C1184 C 0.22341 0.71882 0.53392 0.0
C1185 C 0.14899 0.7183 0.53642 0.0
C1186 C 0.25612 0.72848 0.52686 0.0
C1187 C 0.21509 0.73782 0.52221 0.0
C1188 C 0.14082 0.73698 0.5231 0.0
H1189 H 0.29914 0.80563 0.48307 0.0
H1190 H 0.24272 0.78894 0.49674 0.0
C1191 C 0.10818 0.72736 0.53016 0.0
C1192 C 0.24895 0.74854 0.51673 0.0
H1193 H 0.3581 0.7744 0.55865 0.0
C1194 C 0.23348 0.75007 0.4839 0.0
C1195 C 0.29404 0.7575 0.54416 0.0
C1196 C 0.31014 0.75673 0.58078 0.0
C1197 C 0.26279 0.76014 0.47744 0.0
C1198 C 0.30783 0.7691 0.50489 0.0
C1199 C 0.32338 0.76757 0.5377 0.0
C1200 C 0.3414 0.77985 0.49942 0.0
C1201 C 0.24668 0.76092 0.44084 0.0
C1202 C 0.41562 0.78065 0.49807 0.0
C1203 C 0.44789 0.79023 0.49068 0.0
C1204 C 0.40671 0.79929 0.48459 0.0
C1205 C 0.3324 0.79883 0.48767 0.0
C1206 C 0.30007 0.7892 0.49502 0.0
H1207 H 0.22581 0.75175 0.41927 0.0
H1208 H 0.20581 0.76833 0.44585 0.0
H1209 H 0.29487 0.76359 0.42942 0.0
H1210 H 0.44869 0.77365 0.50177 0.0
H1211 H 0.5053 0.79043 0.48916 0.0
H1212 H 0.80679 0.30616 0.48642 0.0
H1213 H 0.75178 0.28919 0.49942 0.0
H1214 H 0.95942 0.27547 0.50973 0.0
H1215 H 1.01433 0.29249 0.4978 0.0
H1216 H 0.76874 0.26305 0.45613 0.0
H1217 H 0.85863 0.27624 0.60236 0.0
H1218 H 0.86215 0.28722 0.58076 0.0
H1219 H 0.92971 0.27529 0.57072 0.0
C1220 C 0.84057 0.2997 0.49235 0.0
C1221 C 0.91491 0.30066 0.49098 0.0
C1222 C 0.80914 0.28995 0.49948 0.0
C1223 C 0.85145 0.2811 0.50587 0.0
C1224 C 0.92558 0.28228 0.50554 0.0
H1225 H 0.77454 0.2121 0.53832 0.0
H1226 H 0.82864 0.22922 0.52573 0.0
C1227 C 0.95691 0.29197 0.49836 0.0
C1228 C 0.81872 0.27016 0.51054 0.0
H1229 H 0.81079 0.25535 0.56945 0.0
C1230 C 0.77743 0.26142 0.48104 0.0
C1231 C 0.83063 0.26796 0.54289 0.0
C1232 C 0.87214 0.27723 0.57614 0.0
C1233 C 0.74882 0.25045 0.48271 0.0
C1234 C 0.76083 0.24824 0.51503 0.0
C1235 C 0.80205 0.25699 0.54455 0.0
C1236 C 0.72856 0.23724 0.51957 0.0
C1237 C 0.70729 0.24118 0.44946 0.0
C1238 C 0.65448 0.23598 0.51996 0.0
C1239 C 0.62364 0.22621 0.5269 0.0
C1240 C 0.66611 0.21751 0.53399 0.0
C1241 C 0.74039 0.21856 0.53262 0.0
C1242 C 0.77132 0.22839 0.52571 0.0
H1243 H 0.72042 0.24222 0.42328 0.0
H1244 H 0.71766 0.23119 0.4447 0.0
H1245 H 0.6497 0.24306 0.45501 0.0
H1246 H 0.62032 0.24279 0.51594 0.0
H1247 H 0.56626 0.22562 0.52745 0.0
H1248 H 0.14888 0.36096 0.09582 0.0
H1249 H 0.13243 0.36127 0.15848 0.0
H1250 H 0.0553 0.39983 0.20092 0.0
H1251 H 0.06968 0.39939 0.13857 0.0
H1252 H 0.19359 0.38007 0.2312 0.0
H1253 H 0.89849 0.37937 0.22769 0.0
H1254 H 0.95208 0.37443 0.1856 0.0
H1255 H 0.94033 0.39107 0.21548 0.0
C1256 C 0.12868 0.36949 0.11866 0.0
C1257 C 0.11253 0.38031 0.11272 0.0
C1258 C 0.11946 0.36967 0.15433 0.0
C1259 C 0.09262 0.38058 0.18426 0.0
C1260 C 0.07608 0.39133 0.1782 0.0
H1261 H 0.96942 0.40092 0.41614 0.0
H1262 H 0.99527 0.40071 0.35471 0.0
C1263 C 0.08563 0.39117 0.14273 0.0
C1264 C 0.08151 0.3808 0.22192 0.0
H1265 H 0.9526 0.38308 0.2858 0.0
C1266 C 0.14097 0.38065 0.24314 0.0
C1267 C 1.01279 0.38167 0.2374 0.0
C1268 C 0.94708 0.38155 0.21535 0.0
C1269 C 0.13359 0.38159 0.27988 0.0
C1270 C 0.06475 0.3824 0.29538 0.0
C1271 C 1.00532 0.38251 0.27399 0.0
C1272 C 0.05283 0.38289 0.33342 0.0
C1273 C 0.19969 0.38204 0.30207 0.0
C1274 C 0.07678 0.37299 0.34196 0.0
C1275 C 0.06264 0.37316 0.37711 0.0
C1276 C 1.023 0.38308 0.40429 0.0
C1277 C 0.99992 0.3931 0.39589 0.0
C1278 C 1.01445 0.39297 0.36072 0.0
H1279 H 0.24669 0.3852 0.29102 0.0
H1280 H 0.1929 0.38857 0.3323 0.0
H1281 H 0.21088 0.37236 0.29982 0.0
H1282 H 0.1054 0.365 0.3212 0.0
H1283 H 0.0826 0.36545 0.38282 0.0
H1284 H 0.0787 0.61603 0.09257 0.0
H1285 H 0.1025 0.61607 0.15408 0.0
H1286 H 0.98793 0.65135 0.20885 0.0
H1287 H 0.96341 0.65135 0.1477 0.0
H1288 H 0.16934 0.63887 0.22357 0.0
H1289 H 0.8973 0.6234 0.24209 0.0
H1290 H 0.93435 0.61999 0.19626 0.0
H1291 H 0.90441 0.63577 0.22598 0.0
C1292 C 0.0586 0.62379 0.11773 0.0
C1293 C 1.01968 0.63375 0.11534 0.0
C1294 C 0.0725 0.62382 0.15277 0.0
C1295 C 0.04686 0.63371 0.18581 0.0
C1296 C 1.00811 0.64365 0.18355 0.0
H1297 H 1.01989 0.65035 0.4205 0.0
H1298 H 1.01136 0.64971 0.35782 0.0
C1299 C 0.99464 0.64368 0.14863 0.0
C1300 C 0.0595 0.6336 0.22281 0.0
H1301 H 0.97522 0.62946 0.29381 0.0
C1302 C 0.12724 0.63674 0.23896 0.0
C1303 C 1.0042 0.63086 0.2426 0.0
C1304 C 0.93091 0.62723 0.22593 0.0
C1305 C 0.14067 0.63756 0.27513 0.0
C1306 C 0.08514 0.63487 0.29512 0.0
C1307 C 1.01769 0.63154 0.27852 0.0
C1308 C 0.09476 0.63578 0.33369 0.0
C1309 C 0.21337 0.64173 0.29207 0.0
C1310 C 0.14519 0.62828 0.34119 0.0
C1311 C 0.1509 0.62876 0.3773 0.0
C1312 C 0.10513 0.63651 0.40635 0.0
C1313 C 0.05573 0.6442 0.39885 0.0
C1314 C 0.05057 0.64381 0.36293 0.0
H1315 H 0.24318 0.6467 0.27776 0.0
H1316 H 0.20961 0.64817 0.32254 0.0
H1317 H 0.24438 0.63322 0.28891 0.0
H1318 H 0.17917 0.62186 0.31898 0.0
H1319 H 0.1906 0.62293 0.3823 0.0
H1320 H 0.92168 0.64998 0.91505 0.0
H1321 H 0.93688 0.65007 0.85299 0.0
H1322 H 0.04542 0.61404 0.81305 0.0
H1323 H 1.03082 0.61384 0.87458 0.0
H1324 H 0.11553 0.63643 0.80327 0.0
H1325 H 0.83955 0.6241 0.74872 0.0
H1326 H 0.85149 0.63589 0.79643 0.0
H1327 H 0.87495 0.61965 0.78418 0.0
C1328 C 0.94809 0.64202 0.89292 0.0
C1329 C 0.9743 0.63184 0.89963 0.0
C1330 C 0.95663 0.64208 0.85756 0.0
C1331 C 0.99187 0.63202 0.82858 0.0
C1332 C 1.01771 0.62184 0.83509 0.0
H1333 H 0.14559 0.61943 0.6052 0.0
H1334 H 0.12528 0.61825 0.66532 0.0
C1335 C 1.00879 0.62172 0.87022 0.0
C1336 C 1.0044 0.63229 0.79177 0.0
H1337 H 0.92205 0.62842 0.71035 0.0
C1338 C 0.07343 0.63468 0.78284 0.0
C1339 C 0.94915 0.63001 0.76547 0.0
C1340 C 0.8745 0.62719 0.77384 0.0
C1341 C 0.08856 0.63507 0.7483 0.0
C1342 C 1.0334 0.63264 0.72167 0.0
C1343 C 0.96432 0.63022 0.73071 0.0
C1344 C 0.04544 0.63305 0.68484 0.0
C1345 C 0.16293 0.63843 0.74116 0.0
C1346 C 1.00558 0.64142 0.67529 0.0
C1347 C 1.01608 0.64195 0.64081 0.0
C1348 C 0.06727 0.6342 0.61518 0.0
C1349 C 0.10637 0.62564 0.62447 0.0
C1350 C 0.09524 0.62503 0.65895 0.0
H1351 H 0.19316 0.64333 0.76779 0.0
H1352 H 0.19179 0.62958 0.72336 0.0
H1353 H 0.16214 0.64468 0.7262 0.0
H1354 H 0.96641 0.64762 0.69464 0.0
H1355 H 0.98365 0.64842 0.63429 0.0
H1356 H 0.96501 0.40471 0.6509 0.0
H1357 H 0.98811 0.40484 0.71223 0.0
H1358 H 1.01904 0.36418 0.65907 0.0
H1359 H 0.99633 0.36395 0.59769 0.0
H1360 H 0.92081 0.3923 0.75017 0.0
H1361 H 0.20154 0.37702 0.71962 0.0
H1362 H 0.15077 0.38251 0.69048 0.0
H1363 H 0.14008 0.36647 0.68568 0.0
C1364 C 0.97586 0.39577 0.65212 0.0
C1365 C 0.97879 0.38434 0.61909 0.0
C1366 C 0.98949 0.39587 0.68731 0.0
C1367 C 1.00667 0.38455 0.69019 0.0
C1368 C 1.00762 0.37308 0.65747 0.0
H1369 H 1.00068 0.36798 0.88497 0.0
H1370 H 0.97848 0.3696 0.82597 0.0
C1371 C 0.9942 0.37298 0.62234 0.0
C1372 C 1.0233 0.3847 0.72736 0.0
H1373 H 0.15146 0.37688 0.77528 0.0
C1374 C 0.97136 0.38899 0.75574 0.0
C1375 C 0.0897 0.38057 0.73481 0.0
C1376 C 0.14903 0.3765 0.70619 0.0
C1377 C 0.98327 0.38891 0.79097 0.0
C1378 C 0.04852 0.38426 0.79782 0.0
C1379 C 0.10122 0.38032 0.76984 0.0
C1380 C 0.06267 0.38324 0.83363 0.0
C1381 C 0.92611 0.39387 0.82069 0.0
C1382 C 0.11859 0.39012 0.85718 0.0
C1383 C 0.13194 0.38913 0.89092 0.0
C1384 C 0.09003 0.38112 0.90151 0.0
C1385 C 1.03446 0.37415 0.87762 0.0
C1386 C 1.02114 0.37517 0.84399 0.0
H1387 H 0.88799 0.40008 0.81478 0.0
H1388 H 0.89599 0.38572 0.82127 0.0
H1389 H 0.94951 0.39935 0.84901 0.0
H1390 H 0.15155 0.39635 0.84959 0.0
H1391 H 0.1752 0.39461 0.90859 0.0
H1392 H 0.58629 0.90233 0.14501 0.0
H1393 H 0.56662 0.90293 0.20725 0.0
H1394 H 0.57184 0.8619 0.15919 0.0
H1395 H 0.59306 0.86121 0.09679 0.0
H1396 H 0.45511 0.87335 0.20923 0.0
H1397 H 0.71479 0.89474 0.27192 0.0
H1398 H 0.6666 0.90309 0.24991 0.0
H1399 H 0.69964 0.88737 0.22173 0.0
C1400 C 0.58519 0.89344 0.14769 0.0
C1401 C 0.59321 0.88174 0.11595 0.0
C1402 C 0.5733 0.8938 0.18332 0.0
C1403 C 0.5689 0.88247 0.18791 0.0
C1404 C 0.57552 0.87076 0.15626 0.0
H1405 H 0.58802 0.87022 0.38964 0.0
H1406 H 0.60556 0.87054 0.32842 0.0
C1407 C 0.58767 0.87039 0.12062 0.0
C1408 C 0.5562 0.88282 0.22565 0.0
H1409 H 0.62959 0.89236 0.31296 0.0
C1410 C 0.49315 0.87751 0.23195 0.0
C1411 C 0.60625 0.88817 0.25509 0.0
C1412 C 0.67595 0.89359 0.24943 0.0
C1413 C 0.47858 0.8775 0.26708 0.0
C1414 C 0.52815 0.88302 0.29667 0.0
C1415 C 0.59142 0.88824 0.29029 0.0
C1416 C 0.51675 0.88299 0.33402 0.0
C1417 C 0.41103 0.87135 0.2721 0.0
C1418 C 0.46134 0.89 0.3577 0.0
C1419 C 0.45096 0.88983 0.39283 0.0
C1420 C 0.49574 0.88259 0.40477 0.0
C1421 C 0.55182 0.87574 0.38113 0.0
C1422 C 0.56224 0.87596 0.34617 0.0
H1423 H 0.38533 0.86539 0.24473 0.0
H1424 H 0.42179 0.86531 0.28715 0.0
H1425 H 0.37304 0.87888 0.28933 0.0
H1426 H 0.42628 0.89564 0.34903 0.0
H1427 H 0.4075 0.89525 0.41041 0.0
H1428 H 0.45086 0.1513 0.14941 0.0
H1429 H 0.47689 0.15141 0.21062 0.0
H1430 H 0.5918 0.11619 0.15558 0.0
H1431 H 0.5663 0.11601 0.09412 0.0
H1432 H 0.44323 0.12916 0.23126 0.0
H1433 H 0.72768 0.14353 0.24023 0.0
H1434 H 0.66416 0.14722 0.2119 0.0
H1435 H 0.69644 0.13127 0.19638 0.0
C1436 C 0.48244 0.14366 0.1503 0.0
C1437 C 0.50724 0.13372 0.11693 0.0
C1438 C 0.4968 0.14369 0.18528 0.0
C1439 C 0.53673 0.13387 0.18754 0.0
C1440 C 0.56138 0.12391 0.15435 0.0
H1441 H 0.59992 0.11331 0.37363 0.0
H1442 H 0.58213 0.11328 0.3119 0.0
C1443 C 0.5465 0.1238 0.11931 0.0
C1444 C 0.55139 0.13391 0.22463 0.0
H1445 H 0.68297 0.13873 0.28906 0.0
C1446 C 0.49558 0.13123 0.24393 0.0
C1447 C 0.61966 0.13672 0.24106 0.0
C1448 C 0.68066 0.13993 0.2216 0.0
C1449 C 0.50656 0.13113 0.27919 0.0
C1450 C 0.57504 0.13378 0.29543 0.0
C1451 C 0.63067 0.13663 0.27635 0.0
C1452 C 0.58942 0.13375 0.33246 0.0
C1453 C 0.44487 0.12833 0.29913 0.0
C1454 C 0.60047 0.14526 0.36429 0.0
C1455 C 0.61089 0.14529 0.39962 0.0
C1456 C 0.6115 0.13379 0.40359 0.0
C1457 C 0.60162 0.12228 0.37145 0.0
C1458 C 0.59061 0.12226 0.33621 0.0
H1459 H 0.39328 0.1284 0.28556 0.0
H1460 H 0.45207 0.11879 0.29877 0.0
H1461 H 0.44283 0.13542 0.32903 0.0
H1462 H 0.59971 0.15423 0.36191 0.0
H1463 H 0.61833 0.15432 0.42383 0.0
H1464 H 0.50836 0.11322 0.87367 0.0
H1465 H 0.52165 0.11378 0.8126 0.0
H1466 H 0.41995 0.15051 0.85593 0.0
H1467 H 0.40678 0.15009 0.9175 0.0
H1468 H 0.42526 0.11571 0.76257 0.0
H1469 H 0.60761 0.1574 0.81621 0.0
H1470 H 0.58381 0.14881 0.84362 0.0
H1471 H 0.52342 0.16019 0.83992 0.0
C1472 C 0.48758 0.12134 0.87017 0.0
C1473 C 0.45614 0.13159 0.90053 0.0
C1474 C 0.49565 0.12167 0.8352 0.0
C1475 C 0.47285 0.13227 0.82983 0.0
C1476 C 0.43932 0.14235 0.85966 0.0
H1477 H 0.50292 0.15133 0.63873 0.0
H1478 H 0.4736 0.15056 0.69829 0.0
C1479 C 0.43143 0.14205 0.89477 0.0
C1480 C 0.48576 0.13281 0.79319 0.0
H1481 H 0.57231 0.14973 0.7525 0.0
C1482 C 0.45741 0.12315 0.76035 0.0
C1483 C 0.52806 0.14249 0.79033 0.0
C1484 C 0.5631 0.15275 0.82431 0.0
C1485 C 0.4696 0.12297 0.72478 0.0
C1486 C 0.51188 0.13263 0.72199 0.0
C1487 C 0.53978 0.14235 0.7548 0.0
C1488 C 0.52834 0.13282 0.68525 0.0
C1489 C 0.43645 0.11254 0.69052 0.0
C1490 C 0.56916 0.12313 0.65816 0.0
C1491 C 0.58684 0.12363 0.62415 0.0
C1492 C 0.56435 0.13389 0.61671 0.0
C1493 C 0.52265 0.14347 0.64379 0.0
C1494 C 0.50529 0.143 0.6778 0.0
H1495 H 0.39257 0.10766 0.6982 0.0
H1496 H 0.41552 0.11641 0.67108 0.0
H1497 H 0.47745 0.10533 0.67518 0.0
H1498 H 0.58834 0.11528 0.66358 0.0
H1499 H 0.61896 0.11607 0.60397 0.0
H1500 H 0.42902 0.86228 0.59655 0.0
H1501 H 0.43769 0.86182 0.65844 0.0
H1502 H 0.51684 0.90042 0.70621 0.0
H1503 H 0.50875 0.9008 0.64475 0.0
H1504 H 0.55403 0.8648 0.70235 0.0
H1505 H 0.36065 0.9029 0.77992 0.0
H1506 H 0.36672 0.89563 0.7292 0.0
H1507 H 0.4281 0.90798 0.75688 0.0
C1508 C 0.44744 0.87069 0.62046 0.0
C1509 C 0.46558 0.88178 0.61624 0.0
C1510 C 0.45235 0.87043 0.65573 0.0
C1511 C 0.47591 0.88122 0.68726 0.0
C1512 C 0.49577 0.89216 0.68272 0.0
H1513 H 0.60142 0.89919 0.91587 0.0
H1514 H 0.5744 0.89912 0.85483 0.0
C1515 C 0.49053 0.89243 0.64759 0.0
C1516 C 0.48344 0.88089 0.7245 0.0
H1517 H 0.43762 0.89661 0.81734 0.0
C1518 C 0.52792 0.87166 0.72741 0.0
C1519 C 0.44944 0.88986 0.75723 0.0
C1520 C 0.398 0.89957 0.75567 0.0
C1521 C 0.541 0.87141 0.7623 0.0
C1522 C 0.50817 0.88054 0.79507 0.0
C1523 C 0.46298 0.88966 0.79216 0.0
C1524 C 0.52097 0.88085 0.83269 0.0
C1525 C 0.59146 0.8616 0.76406 0.0
C1526 C 0.49812 0.87077 0.84081 0.0
C1527 C 0.51317 0.8708 0.87569 0.0
C1528 C 0.55172 0.88088 0.90312 0.0
C1529 C 0.57216 0.89121 0.89536 0.0
C1530 C 0.55683 0.89119 0.86047 0.0
H1531 H 0.62326 0.85697 0.73784 0.0
H1532 H 0.62828 0.86601 0.78828 0.0
H1533 H 0.56062 0.85409 0.76805 0.0
H1534 H 0.46894 0.86283 0.82006 0.0
H1535 H 0.49462 0.86291 0.88105 0.0
loop_
_geom_bond_atom_site_label_1
_geom_bond_atom_site_label_2
_geom_bond_distance
_geom_bond_site_symmetry_2
_ccdc_geom_bond_type
Eu0 N31 2.657 . S
Eu0 N38 2.609 . S
Eu0 O44 2.558 . S
Eu0 O45 2.612 1_455 S
Eu0 O47 2.339 1_554 S
Eu0 O48 2.563 1_455 S
Eu0 O49 2.419 . S
Eu0 O51 2.380 . S
Eu0 O52 2.432 . S
Eu0 C64 2.848 . S
C1 C4 1.429 . S
C1 C5 1.411 . S
C1 N8 1.377 . S
C2 C4 1.420 . S
C2 C6 1.423 . S
C2 C14 1.392 1_556 S
C3 C5 1.420 . S
C3 C6 1.351 . S
C3 H26 0.931 . S
C4 C1 1.429 . S
C4 C2 1.420 . S
C4 N12 1.362 1_556 S
C5 C1 1.411 . S
C5 C3 1.420 . S
C5 C10 1.395 . S
C6 C2 1.423 . S
C6 C3 1.351 . S
C6 H18 0.930 . S
C7 C9 1.400 . S
C7 C10 1.386 . S
C7 H19 0.930 . S
N8 C1 1.377 . S
N8 C9 1.321 . S
N8 Eu11 2.609 1_655 S
C9 C7 1.400 . S
C9 N8 1.321 . S
C9 H16 0.930 1_655 S
C10 C5 1.395 . S
C10 C7 1.386 . S
C10 H29 0.930 . S
Eu11 N8 2.609 1_455 S
Eu11 N12 2.657 1_456 S
Eu11 O45 2.380 1_456 S
Eu11 O46 2.432 . S
Eu11 O50 2.558 . S
Eu11 O51 2.612 1_556 S
Eu11 O53 2.339 1_556 S
Eu11 O54 2.563 . S
Eu11 O55 2.419 1_556 S
Eu11 C75 2.848 . S
N12 C4 1.362 1_554 S
N12 Eu11 2.657 1_654 S
N12 C13 1.334 . S
C13 N12 1.334 . S
C13 C15 1.413 . S
C13 H20 0.929 . S
C14 C2 1.392 1_554 S
C14 C15 1.367 . S
C14 H22 0.930 . S
C15 C13 1.413 . S
C15 C14 1.367 . S
C15 H17 0.930 . S
H16 C9 0.930 1_455 S
H17 C15 0.930 . S
H18 C6 0.930 . S
H19 C7 0.930 . S
H20 C13 0.929 . S
H21 C35 0.930 . S
H22 C14 0.930 . S
H23 C41 0.930 . S
H24 C32 0.929 . S
H25 C39 0.930 . S
H26 C3 0.931 . S
H27 C33 0.930 . S
H28 C66 0.930 . S
H29 C10 0.930 . S
H30 C65 0.931 . S
N31 Eu0 2.657 . S
N31 C32 1.334 1_554 S
N31 C36 1.362 . S
C32 H24 0.929 . S
C32 N31 1.334 1_556 S
C32 C35 1.413 . S
C33 H27 0.930 . S
C33 C34 1.392 1_556 S
C33 C35 1.367 . S
C34 C33 1.392 1_554 S
C34 C36 1.420 . S
C34 C66 1.423 . S
C35 H21 0.930 . S
C35 C32 1.413 . S
C35 C33 1.367 . S
C36 N31 1.362 . S
C36 C34 1.420 . S
C36 C40 1.429 . S
H37 C42 0.930 . S
N38 Eu0 2.609 . S
N38 C40 1.377 . S
N38 C41 1.321 . S
C39 H25 0.930 . S
C39 C41 1.400 . S
C39 C42 1.386 . S
C40 C36 1.429 . S
C40 N38 1.377 . S
C40 C43 1.411 . S
C41 H23 0.930 . S
C41 N38 1.321 . S
C41 C39 1.400 . S
C42 H37 0.930 . S
C42 C39 1.386 . S
C42 C43 1.395 . S
C43 C40 1.411 . S
C43 C42 1.395 . S
C43 C65 1.420 . S
O44 Eu0 2.558 . S
O44 C64 1.257 . S
O45 Eu0 2.612 1_655 S
O45 Eu11 2.380 1_654 S
O45 C56 1.276 . S
O46 Eu11 2.432 . S
O46 C63 1.264 . S
O47 Eu0 2.339 1_556 S
O47 C63 1.254 . S
O48 Eu0 2.563 1_655 S
O48 C56 1.235 . S
O49 Eu0 2.419 . S
O49 C64 1.249 . S
O50 Eu11 2.558 . S
O50 C75 1.257 . S
O51 Eu0 2.380 . S
O51 Eu11 2.612 1_554 S
O51 C67 1.276 . S
O52 Eu0 2.432 . S
O52 C74 1.264 . S
O53 Eu11 2.339 1_554 S
O53 C74 1.254 . S
O54 Eu11 2.563 . S
O54 C67 1.235 1_556 S
O55 Eu11 2.419 1_554 S
O55 C75 1.249 1_554 S
C56 O45 1.276 . S
C56 O48 1.235 . S
C57 C59 1.387 1_455 S
C57 C61 1.395 . S
C57 C64 1.497 . S
C58 C59 1.392 . S
C58 C60 1.386 . S
C59 C57 1.387 1_655 S
C59 C58 1.392 . S
C59 H76 0.939 . S
C60 C58 1.386 . S
C60 C62 1.395 . S
C60 H77 0.930 . S
C61 C57 1.395 . S
C61 C62 1.379 1_455 S
C61 H78 0.930 . S
C62 C60 1.395 . S
C62 C61 1.379 1_655 S
C62 H79 0.930 . S
C63 O46 1.264 . S
C63 O47 1.254 . S
C64 Eu0 2.848 . S
C64 O44 1.257 . S
C64 O49 1.249 . S
C64 C57 1.497 . S
C65 H30 0.931 . S
C65 C43 1.420 . S
C65 C66 1.351 . S
C66 H28 0.930 . S
C66 C34 1.423 . S
C66 C65 1.351 . S
C67 O51 1.276 . S
C67 O54 1.235 1_554 S
C68 C69 1.393 . S
C68 C72 1.395 . S
C68 C75 1.492 . S
C69 C68 1.393 . S
C69 C70 1.392 . S
C69 H80 0.930 1_556 S
C70 C69 1.392 . S
C70 C71 1.386 . S
C71 C70 1.386 . S
C71 C73 1.395 . S
C71 H81 0.930 . S
C72 C68 1.395 . S
C72 C73 1.379 . S
C72 H82 0.930 . S
C73 C71 1.395 . S
C73 C72 1.379 . S
C73 H83 0.930 . S
C74 O52 1.264 . S
C74 O53 1.254 . S
C75 Eu11 2.848 . S
C75 O50 1.257 . S
C75 O55 1.249 1_556 S
C75 C68 1.492 . S
H76 C59 0.939 . S
H77 C60 0.930 . S
H78 C61 0.930 . S
H79 C62 0.930 . S
H80 C69 0.930 1_554 S
H81 C71 0.930 . S
H82 C72 0.930 . S
H83 C73 0.930 . S
Eu84 N115 2.657 1_655 S
Eu84 N122 2.609 1_655 S
Eu84 O128 2.558 . S
Eu84 O129 2.612 . S
Eu84 O131 2.339 1_554 S
Eu84 O132 2.563 . S
Eu84 O133 2.419 . S
Eu84 O135 2.380 1_655 S
Eu84 O136 2.432 . S
Eu84 C148 2.848 . S
C85 C88 1.429 . S
C85 C89 1.411 . S
C85 N92 1.377 . S
C86 C88 1.420 . S
C86 C90 1.423 . S
C86 C98 1.392 1_556 S
C87 C89 1.420 . S
C87 C90 1.351 . S
C87 H110 0.931 . S
C88 C85 1.429 . S
C88 C86 1.420 . S
C88 N96 1.362 1_556 S
C89 C85 1.411 . S
C89 C87 1.420 . S
C89 C94 1.395 . S
C90 C86 1.423 . S
C90 C87 1.351 . S
C90 H102 0.930 . S
C91 C93 1.400 . S
C91 C94 1.386 . S
C91 H103 0.930 . S
N92 C85 1.377 . S
N92 C93 1.321 . S
N92 Eu95 2.609 . S
C93 C91 1.400 . S
C93 N92 1.321 . S
C93 H100 0.930 . S
C94 C89 1.395 . S
C94 C91 1.386 . S
C94 H113 0.930 . S
Eu95 N92 2.609 . S
Eu95 N96 2.657 1_556 S
Eu95 O129 2.380 1_556 S
Eu95 O130 2.432 . S
Eu95 O134 2.558 . S
Eu95 O135 2.612 1_656 S
Eu95 O137 2.339 1_556 S
Eu95 O138 2.563 1_655 S
Eu95 O139 2.419 1_556 S
Eu95 C159 2.848 . S
N96 C88 1.362 1_554 S
N96 Eu95 2.657 1_554 S
N96 C97 1.334 . S
C97 N96 1.334 . S
C97 C99 1.413 . S
C97 H104 0.929 . S
C98 C86 1.392 1_554 S
C98 C99 1.367 . S
C98 H106 0.930 . S
C99 C97 1.413 . S
C99 C98 1.367 . S
C99 H101 0.930 . S
H100 C93 0.930 . S
H101 C99 0.930 . S
H102 C90 0.930 . S
H103 C91 0.930 . S
H104 C97 0.929 . S
H105 C119 0.930 . S
H106 C98 0.930 . S
H107 C125 0.930 1_655 S
H108 C116 0.929 . S
H109 C123 0.930 . S
H110 C87 0.931 . S
H111 C117 0.930 1_556 S
H112 C150 0.930 . S
H113 C94 0.930 . S
H114 C149 0.931 . S
N115 Eu84 2.657 1_455 S
N115 C116 1.334 1_554 S
N115 C120 1.362 . S
C116 H108 0.929 . S
C116 N115 1.334 1_556 S
C116 C119 1.413 . S
C117 H111 0.930 1_554 S
C117 C118 1.392 . S
C117 C119 1.367 1_554 S
C118 C117 1.392 . S
C118 C120 1.420 . S
C118 C150 1.423 . S
C119 H105 0.930 . S
C119 C116 1.413 . S
C119 C117 1.367 1_556 S
C120 N115 1.362 . S
C120 C118 1.420 . S
C120 C124 1.429 . S
H121 C126 0.930 . S
N122 Eu84 2.609 1_455 S
N122 C124 1.377 . S
N122 C125 1.321 . S
C123 H109 0.930 . S
C123 C125 1.400 . S
C123 C126 1.386 . S
C124 C120 1.429 . S
C124 N122 1.377 . S
C124 C127 1.411 . S
C125 H107 0.930 1_455 S
C125 N122 1.321 . S
C125 C123 1.400 . S
C126 H121 0.930 . S
C126 C123 1.386 . S
C126 C127 1.395 . S
C127 C124 1.411 . S
C127 C126 1.395 . S
C127 C149 1.420 . S
O128 Eu84 2.558 . S
O128 C148 1.257 . S
O129 Eu84 2.612 . S
O129 Eu95 2.380 1_554 S
O129 C140 1.276 . S
O130 Eu95 2.432 . S
O130 C147 1.264 . S
O131 Eu84 2.339 1_556 S
O131 C147 1.254 . S
O132 Eu84 2.563 . S
O132 C140 1.235 . S
O133 Eu84 2.419 . S
O133 C148 1.249 . S
O134 Eu95 2.558 . S
O134 C159 1.257 . S
O135 Eu84 2.380 1_455 S
O135 Eu95 2.612 1_454 S
O135 C151 1.276 . S
O136 Eu84 2.432 . S
O136 C158 1.264 . S
O137 Eu95 2.339 1_554 S
O137 C158 1.254 . S
O138 Eu95 2.563 1_455 S
O138 C151 1.235 1_556 S
O139 Eu95 2.419 1_554 S
O139 C159 1.249 1_554 S
C140 O129 1.276 . S
C140 O132 1.235 . S
C141 C143 1.393 . S
C141 C145 1.395 . S
C141 C148 1.492 . S
C142 C143 1.392 . S
C142 C144 1.386 . S
C143 C141 1.393 . S
C143 C142 1.392 . S
C143 H160 0.930 . S
C144 C142 1.386 . S
C144 C146 1.395 . S
C144 H161 0.930 . S
C145 C141 1.395 . S
C145 C146 1.379 . S
C145 H162 0.930 . S
C146 C144 1.395 . S
C146 C145 1.379 . S
C146 H163 0.930 . S
C147 O130 1.264 . S
C147 O131 1.254 . S
C148 Eu84 2.848 . S
C148 O128 1.257 . S
C148 O133 1.249 . S
C148 C141 1.492 . S
C149 H114 0.931 . S
C149 C127 1.420 . S
C149 C150 1.351 . S
C150 H112 0.930 . S
C150 C118 1.423 . S
C150 C149 1.351 . S
C151 O135 1.276 . S
C151 O138 1.235 1_554 S
C152 C153 1.387 1_656 S
C152 C156 1.395 . S
C152 C159 1.497 . S
C153 C152 1.387 1_454 S
C153 C154 1.392 1_554 S
C153 H164 0.930 . S
C154 C153 1.392 1_556 S
C154 C155 1.386 . S
C155 C154 1.386 . S
C155 C157 1.395 . S
C155 H165 0.930 . S
C156 C152 1.395 . S
C156 C157 1.379 1_655 S
C156 H166 0.930 . S
C157 C155 1.395 . S
C157 C156 1.379 1_455 S
C157 H167 0.930 . S
C158 O136 1.264 . S
C158 O137 1.254 . S
C159 Eu95 2.848 . S
C159 O134 1.257 . S
C159 O139 1.249 1_556 S
C159 C152 1.497 . S
H160 C143 0.930 . S
H161 C144 0.930 . S
H162 C145 0.930 . S
H163 C146 0.930 . S
H164 C153 0.930 . S
H165 C155 0.930 . S
H166 C156 0.930 . S
H167 C157 0.930 . S
Eu168 N199 2.657 . S
Eu168 N206 2.609 . S
Eu168 O212 2.558 . S
Eu168 O213 2.612 1_455 S
Eu168 O215 2.339 . S
Eu168 O216 2.563 1_455 S
Eu168 O217 2.419 . S
Eu168 O219 2.380 . S
Eu168 O220 2.432 . S
Eu168 C232 2.848 . S
C169 C172 1.429 . S
C169 C173 1.411 . S
C169 N176 1.377 . S
C170 C172 1.420 . S
C170 C174 1.423 . S
C170 C182 1.392 . S
C171 C173 1.420 . S
C171 C174 1.351 . S
C171 H194 0.931 . S
C172 C169 1.429 . S
C172 C170 1.420 . S
C172 N180 1.362 . S
C173 C169 1.411 . S
C173 C171 1.420 . S
C173 C178 1.395 . S
C174 C170 1.423 . S
C174 C171 1.351 . S
C174 H186 0.930 . S
C175 C177 1.400 . S
C175 C178 1.386 . S
C175 H187 0.930 . S
N176 C169 1.377 . S
N176 C177 1.321 . S
N176 Eu179 2.609 1_655 S
C177 C175 1.400 . S
C177 N176 1.321 . S
C177 H184 0.930 1_655 S
C178 C173 1.395 . S
C178 C175 1.386 . S
C178 H197 0.930 . S
Eu179 N176 2.609 1_455 S
Eu179 N180 2.657 1_455 S
Eu179 O213 2.380 1_455 S
Eu179 O214 2.432 . S
Eu179 O218 2.558 . S
Eu179 O219 2.612 . S
Eu179 O221 2.339 . S
Eu179 O222 2.563 . S
Eu179 O223 2.419 . S
Eu179 C243 2.848 . S
N180 C172 1.362 . S
N180 Eu179 2.657 1_655 S
N180 C181 1.334 . S
C181 N180 1.334 . S
C181 C183 1.413 . S
C181 H188 0.929 . S
C182 C170 1.392 . S
C182 C183 1.367 . S
C182 H190 0.930 . S
C183 C181 1.413 . S
C183 C182 1.367 . S
C183 H185 0.930 . S
H184 C177 0.930 1_455 S
H185 C183 0.930 . S
H186 C174 0.930 . S
H187 C175 0.930 . S
H188 C181 0.929 . S
H189 C203 0.930 . S
H190 C182 0.930 . S
H191 C209 0.930 . S
H192 C200 0.929 . S
H193 C207 0.930 . S
H194 C171 0.931 . S
H195 C201 0.930 . S
H196 C234 0.930 . S
H197 C178 0.930 . S
H198 C233 0.931 . S
N199 Eu168 2.657 . S
N199 C200 1.334 . S
N199 C204 1.362 . S
C200 H192 0.929 . S
C200 N199 1.334 . S
C200 C203 1.413 . S
C201 H195 0.930 . S
C201 C202 1.392 . S
C201 C203 1.367 . S
C202 C201 1.392 . S
C202 C204 1.420 . S
C202 C234 1.423 . S
C203 H189 0.930 . S
C203 C200 1.413 . S
C203 C201 1.367 . S
C204 N199 1.362 . S
C204 C202 1.420 . S
C204 C208 1.429 . S
H205 C210 0.930 . S
N206 Eu168 2.609 . S
N206 C208 1.377 . S
N206 C209 1.321 . S
C207 H193 0.930 . S
C207 C209 1.400 . S
C207 C210 1.386 . S
C208 C204 1.429 . S
C208 N206 1.377 . S
C208 C211 1.411 . S
C209 H191 0.930 . S
C209 N206 1.321 . S
C209 C207 1.400 . S
C210 H205 0.930 . S
C210 C207 1.386 . S
C210 C211 1.395 . S
C211 C208 1.411 . S
C211 C210 1.395 . S
C211 C233 1.420 . S
O212 Eu168 2.558 . S
O212 C232 1.257 . S
O213 Eu168 2.612 1_655 S
O213 Eu179 2.380 1_655 S
O213 C224 1.276 . S
O214 Eu179 2.432 . S
O214 C231 1.264 . S
O215 Eu168 2.339 . S
O215 C231 1.254 . S
O216 Eu168 2.563 1_655 S
O216 C224 1.235 . S
O217 Eu168 2.419 . S
O217 C232 1.249 . S
O218 Eu179 2.558 . S
O218 C243 1.257 . S
O219 Eu168 2.380 . S
O219 Eu179 2.612 . S
O219 C235 1.276 . S
O220 Eu168 2.432 . S
O220 C242 1.264 . S
O221 Eu179 2.339 . S
O221 C242 1.254 . S
O222 Eu179 2.563 . S
O222 C235 1.235 . S
O223 Eu179 2.419 . S
O223 C243 1.249 . S
C224 O213 1.276 . S
C224 O216 1.235 . S
C225 C227 1.387 1_455 S
C225 C229 1.395 . S
C225 C232 1.497 . S
C226 C227 1.392 . S
C226 C228 1.386 . S
C227 C225 1.387 1_655 S
C227 C226 1.392 . S
C227 H244 0.930 . S
C228 C226 1.386 . S
C228 C230 1.395 . S
C228 H245 0.930 . S
C229 C225 1.395 . S
C229 C230 1.379 1_455 S
C229 H246 0.930 . S
C230 C228 1.395 . S
C230 C229 1.379 1_655 S
C230 H247 0.930 . S
C231 O214 1.264 . S
C231 O215 1.254 . S
C232 Eu168 2.848 . S
C232 O212 1.257 . S
C232 O217 1.249 . S
C232 C225 1.497 . S
C233 H198 0.931 . S
C233 C211 1.420 . S
C233 C234 1.351 . S
C234 H196 0.930 . S
C234 C202 1.423 . S
C234 C233 1.351 . S
C235 O219 1.276 . S
C235 O222 1.235 . S
C236 C237 1.393 . S
C236 C240 1.395 . S
C236 C243 1.492 . S
C237 C236 1.393 . S
C237 C238 1.392 . S
C237 H248 0.930 . S
C238 C237 1.392 . S
C238 C239 1.386 . S
C239 C238 1.386 . S
C239 C241 1.395 . S
C239 H249 0.930 . S
C240 C236 1.395 . S
C240 C241 1.379 . S
C240 H250 0.930 . S
C241 C239 1.395 . S
C241 C240 1.379 . S
C241 H251 0.930 . S
C242 O220 1.264 . S
C242 O221 1.254 . S
C243 Eu179 2.848 . S
C243 O218 1.257 . S
C243 O223 1.249 . S
C243 C236 1.492 . S
H244 C227 0.930 . S
H245 C228 0.930 . S
H246 C229 0.930 . S
H247 C230 0.930 . S
H248 C237 0.930 . S
H249 C239 0.930 . S
H250 C240 0.930 . S
H251 C241 0.930 . S
Eu252 N283 2.657 1_655 S
Eu252 N290 2.609 1_655 S
Eu252 O296 2.558 . S
Eu252 O297 2.612 . S
Eu252 O299 2.339 . S
Eu252 O300 2.563 . S
Eu252 O301 2.419 . S
Eu252 O303 2.380 1_655 S
Eu252 O304 2.432 . S
Eu252 C316 2.848 . S
C253 C256 1.429 . S
C253 C257 1.411 . S
C253 N260 1.377 . S
C254 C256 1.420 . S
C254 C258 1.423 . S
C254 C266 1.392 . S
C255 C257 1.420 . S
C255 C258 1.351 . S
C255 H278 0.931 . S
C256 C253 1.429 . S
C256 C254 1.420 . S
C256 N264 1.362 . S
C257 C253 1.411 . S
C257 C255 1.420 . S
C257 C262 1.395 . S
C258 C254 1.423 . S
C258 C255 1.351 . S
C258 H270 0.930 . S
C259 C261 1.400 . S
C259 C262 1.386 . S
C259 H271 0.930 . S
N260 C253 1.377 . S
N260 C261 1.321 . S
N260 Eu263 2.609 . S
C261 C259 1.400 . S
C261 N260 1.321 . S
C261 H268 0.930 . S
C262 C257 1.395 . S
C262 C259 1.386 . S
C262 H281 0.930 . S
Eu263 N260 2.609 . S
Eu263 N264 2.657 . S
Eu263 O297 2.380 . S
Eu263 O298 2.432 . S
Eu263 O302 2.558 . S
Eu263 O303 2.612 1_655 S
Eu263 O305 2.339 . S
Eu263 O306 2.563 1_655 S
Eu263 O307 2.419 . S
Eu263 C327 2.848 . S
N264 C256 1.362 . S
N264 Eu263 2.657 . S
N264 C265 1.334 . S
C265 N264 1.334 . S
C265 C267 1.413 . S
C265 H272 0.929 . S
C266 C254 1.392 . S
C266 C267 1.367 . S
C266 H274 0.930 . S
C267 C265 1.413 . S
C267 C266 1.367 . S
C267 H269 0.930 . S
H268 C261 0.930 . S
H269 C267 0.930 . S
H270 C258 0.930 . S
H271 C259 0.930 . S
H272 C265 0.929 . S
H273 C287 0.930 . S
H274 C266 0.930 . S
H275 C293 0.930 1_655 S
H276 C284 0.929 . S
H277 C291 0.930 . S
H278 C255 0.931 . S
H279 C285 0.930 . S
H280 C318 0.930 . S
H281 C262 0.930 . S
H282 C317 0.931 . S
N283 Eu252 2.657 1_455 S
N283 C284 1.334 . S
N283 C288 1.362 . S
C284 H276 0.929 . S
C284 N283 1.334 . S
C284 C287 1.413 . S
C285 H279 0.930 . S
C285 C286 1.392 . S
C285 C287 1.367 . S
C286 C285 1.392 . S
C286 C288 1.420 . S
C286 C318 1.423 . S
C287 H273 0.930 . S
C287 C284 1.413 . S
C287 C285 1.367 . S
C288 N283 1.362 . S
C288 C286 1.420 . S
C288 C292 1.429 . S
H289 C294 0.930 . S
N290 Eu252 2.609 1_455 S
N290 C292 1.377 . S
N290 C293 1.321 . S
C291 H277 0.930 . S
C291 C293 1.400 . S
C291 C294 1.386 . S
C292 C288 1.429 . S
C292 N290 1.377 . S
C292 C295 1.411 . S
C293 H275 0.930 1_455 S
C293 N290 1.321 . S
C293 C291 1.400 . S
C294 H289 0.930 . S
C294 C291 1.386 . S
C294 C295 1.395 . S
C295 C292 1.411 . S
C295 C294 1.395 . S
C295 C317 1.420 . S
O296 Eu252 2.558 . S
O296 C316 1.257 . S
O297 Eu252 2.612 . S
O297 Eu263 2.380 . S
O297 C308 1.276 . S
O298 Eu263 2.432 . S
O298 C315 1.264 . S
O299 Eu252 2.339 . S
O299 C315 1.254 . S
O300 Eu252 2.563 . S
O300 C308 1.235 . S
O301 Eu252 2.419 . S
O301 C316 1.249 . S
O302 Eu263 2.558 . S
O302 C327 1.257 . S
O303 Eu252 2.380 1_455 S
O303 Eu263 2.612 1_455 S
O303 C319 1.276 . S
O304 Eu252 2.432 . S
O304 C326 1.264 . S
O305 Eu263 2.339 . S
O305 C326 1.254 . S
O306 Eu263 2.563 1_455 S
O306 C319 1.235 . S
O307 Eu263 2.419 . S
O307 C327 1.249 . S
C308 O297 1.276 . S
C308 O300 1.235 . S
C309 C311 1.393 . S
C309 C313 1.395 . S
C309 C316 1.492 . S
C310 C311 1.392 . S
C310 C312 1.386 . S
C311 C309 1.393 . S
C311 C310 1.392 . S
C311 H328 0.930 . S
C312 C310 1.386 . S
C312 C314 1.395 . S
C312 H329 0.930 . S
C313 C309 1.395 . S
C313 C314 1.379 . S
C313 H330 0.930 . S
C314 C312 1.395 . S
C314 C313 1.379 . S
C314 H331 0.930 . S
C315 O298 1.264 . S
C315 O299 1.254 . S
C316 Eu252 2.848 . S
C316 O296 1.257 . S
C316 O301 1.249 . S
C316 C309 1.492 . S
C317 H282 0.931 . S
C317 C295 1.420 . S
C317 C318 1.351 . S
C318 H280 0.930 . S
C318 C286 1.423 . S
C318 C317 1.351 . S
C319 O303 1.276 . S
C319 O306 1.235 . S
C320 C321 1.387 1_655 S
C320 C324 1.395 . S
C320 C327 1.497 . S
C321 C320 1.387 1_455 S
C321 C322 1.392 . S
C321 H332 0.930 . S
C322 C321 1.392 . S
C322 C323 1.386 . S
C323 C322 1.386 . S
C323 C325 1.395 . S
C323 H333 0.930 . S
C324 C320 1.395 . S
C324 C325 1.379 1_655 S
C324 H334 0.930 . S
C325 C323 1.395 . S
C325 C324 1.379 1_455 S
C325 H335 0.930 . S
C326 O304 1.264 . S
C326 O305 1.254 . S
C327 Eu263 2.848 . S
C327 O302 1.257 . S
C327 O307 1.249 . S
C327 C320 1.497 . S
H328 C311 0.930 . S
H329 C312 0.930 . S
H330 C313 0.930 . S
H331 C314 0.930 . S
H332 C321 0.930 . S
H333 C323 0.930 . S
H334 C324 0.930 . S
H335 C325 0.930 . S
Eu336 N367 2.657 . S
Eu336 N374 2.609 . S
Eu336 O380 2.558 . S
Eu336 O381 2.612 . S
Eu336 O383 2.339 1_554 S
Eu336 O384 2.563 . S
Eu336 O385 2.419 . S
Eu336 O387 2.380 . S
Eu336 O388 2.432 . S
Eu336 C400 2.848 . S
C337 C340 1.429 . S
C337 C341 1.411 . S
C337 N344 1.377 . S
C338 C340 1.420 . S
C338 C342 1.423 . S
C338 C350 1.392 1_556 S
C339 C341 1.420 . S
C339 C342 1.351 . S
C339 H362 0.931 . S
C340 C337 1.429 . S
C340 C338 1.420 . S
C340 N348 1.362 1_556 S
C341 C337 1.411 . S
C341 C339 1.420 . S
C341 C346 1.395 . S
C342 C338 1.423 . S
C342 C339 1.351 . S
C342 H354 0.930 . S
C343 C345 1.400 . S
C343 C346 1.386 . S
C343 H355 0.930 . S
N344 C337 1.377 . S
N344 C345 1.321 . S
N344 Eu347 2.609 . S
C345 C343 1.400 . S
C345 N344 1.321 . S
C345 H352 0.930 . S
C346 C341 1.395 . S
C346 C343 1.386 . S
C346 H365 0.930 . S
Eu347 N344 2.609 . S
Eu347 N348 2.657 1_556 S
Eu347 O381 2.380 1_556 S
Eu347 O382 2.432 . S
Eu347 O386 2.558 . S
Eu347 O387 2.612 1_556 S
Eu347 O389 2.339 1_556 S
Eu347 O390 2.563 . S
Eu347 O391 2.419 1_556 S
Eu347 C411 2.848 . S
N348 C340 1.362 1_554 S
N348 Eu347 2.657 1_554 S
N348 C349 1.334 . S
C349 N348 1.334 . S
C349 C351 1.413 . S
C349 H356 0.929 . S
C350 C338 1.392 1_554 S
C350 C351 1.367 . S
C350 H358 0.930 . S
C351 C349 1.413 . S
C351 C350 1.367 . S
C351 H353 0.930 . S
H352 C345 0.930 . S
H353 C351 0.930 . S
H354 C342 0.930 . S
H355 C343 0.930 . S
H356 C349 0.929 . S
H357 C371 0.930 . S
H358 C350 0.930 . S
H359 C377 0.930 . S
H360 C368 0.929 . S
H361 C375 0.930 . S
H362 C339 0.931 . S
H363 C369 0.930 . S
H364 C402 0.930 . S
H365 C346 0.930 . S
H366 C401 0.931 . S
N367 Eu336 2.657 . S
N367 C368 1.334 1_554 S
N367 C372 1.362 . S
C368 H360 0.929 . S
C368 N367 1.334 1_556 S
C368 C371 1.413 . S
C369 H363 0.930 . S
C369 C370 1.392 1_556 S
C369 C371 1.367 . S
C370 C369 1.392 1_554 S
C370 C372 1.420 . S
C370 C402 1.423 . S
C371 H357 0.930 . S
C371 C368 1.413 . S
C371 C369 1.367 . S
C372 N367 1.362 . S
C372 C370 1.420 . S
C372 C376 1.429 . S
H373 C378 0.930 . S
N374 Eu336 2.609 . S
N374 C376 1.377 . S
N374 C377 1.321 . S
C375 H361 0.930 . S
C375 C377 1.400 . S
C375 C378 1.386 . S
C376 C372 1.429 . S
C376 N374 1.377 . S
C376 C379 1.411 . S
C377 H359 0.930 . S
C377 N374 1.321 . S
C377 C375 1.400 . S
C378 H373 0.930 . S
C378 C375 1.386 . S
C378 C379 1.395 . S
C379 C376 1.411 . S
C379 C378 1.395 . S
C379 C401 1.420 . S
O380 Eu336 2.558 . S
O380 C400 1.257 . S
O381 Eu336 2.612 . S
O381 Eu347 2.380 1_554 S
O381 C392 1.276 . S
O382 Eu347 2.432 . S
O382 C399 1.264 . S
O383 Eu336 2.339 1_556 S
O383 C399 1.254 . S
O384 Eu336 2.563 . S
O384 C392 1.235 . S
O385 Eu336 2.419 . S
O385 C400 1.249 . S
O386 Eu347 2.558 . S
O386 C411 1.257 . S
O387 Eu336 2.380 . S
O387 Eu347 2.612 1_554 S
O387 C403 1.276 . S
O388 Eu336 2.432 . S
O388 C410 1.264 . S
O389 Eu347 2.339 1_554 S
O389 C410 1.254 . S
O390 Eu347 2.563 . S
O390 C403 1.235 1_556 S
O391 Eu347 2.419 1_554 S
O391 C411 1.249 1_554 S
C392 O381 1.276 . S
C392 O384 1.235 . S
C393 C395 1.393 . S
C393 C397 1.395 . S
C393 C400 1.492 . S
C394 C395 1.392 . S
C394 C396 1.386 . S
C395 C393 1.393 . S
C395 C394 1.392 . S
C395 H412 0.940 . S
C396 C394 1.386 . S
C396 C398 1.395 . S
C396 H413 0.930 . S
C397 C393 1.395 . S
C397 C398 1.379 . S
C397 H414 0.930 . S
C398 C396 1.395 . S
C398 C397 1.379 . S
C398 H415 0.930 . S
C399 O382 1.264 . S
C399 O383 1.254 . S
C400 Eu336 2.848 . S
C400 O380 1.257 . S
C400 O385 1.249 . S
C400 C393 1.492 . S
C401 H366 0.931 . S
C401 C379 1.420 . S
C401 C402 1.351 . S
C402 H364 0.930 . S
C402 C370 1.423 . S
C402 C401 1.351 . S
C403 O387 1.276 . S
C403 O390 1.235 1_554 S
C404 C405 1.393 . S
C404 C408 1.395 . S
C404 C411 1.492 . S
C405 C404 1.393 . S
C405 C406 1.392 . S
C405 H416 0.930 1_556 S
C406 C405 1.392 . S
C406 C407 1.386 . S
C407 C406 1.386 . S
C407 C409 1.395 . S
C407 H417 0.930 . S
C408 C404 1.395 . S
C408 C409 1.379 . S
C408 H418 0.930 . S
C409 C407 1.395 . S
C409 C408 1.379 . S
C409 H419 0.930 . S
C410 O388 1.264 . S
C410 O389 1.254 . S
C411 Eu347 2.848 . S
C411 O386 1.257 . S
C411 O391 1.249 1_556 S
C411 C404 1.492 . S
H412 C395 0.940 . S
H413 C396 0.930 . S
H414 C397 0.930 . S
H415 C398 0.930 . S
H416 C405 0.930 1_554 S
H417 C407 0.930 . S
H418 C408 0.930 . S
H419 C409 0.930 . S
Eu420 N451 2.657 . S
Eu420 N458 2.609 . S
Eu420 O464 2.558 . S
Eu420 O465 2.612 . S
Eu420 O467 2.339 1_554 S
Eu420 O468 2.563 . S
Eu420 O469 2.419 . S
Eu420 O471 2.380 . S
Eu420 O472 2.432 . S
Eu420 C484 2.848 . S
C421 C424 1.429 . S
C421 C425 1.411 . S
C421 N428 1.377 . S
C422 C424 1.420 . S
C422 C426 1.423 . S
C422 C434 1.392 1_556 S
C423 C425 1.420 . S
C423 C426 1.351 . S
C423 H446 0.931 . S
C424 C421 1.429 . S
C424 C422 1.420 . S
C424 N432 1.362 1_556 S
C425 C421 1.411 . S
C425 C423 1.420 . S
C425 C430 1.395 . S
C426 C422 1.423 . S
C426 C423 1.351 . S
C426 H438 0.930 . S
C427 C429 1.400 . S
C427 C430 1.386 . S
C427 H439 0.930 . S
N428 C421 1.377 . S
N428 C429 1.321 . S
N428 Eu431 2.609 . S
C429 C427 1.400 . S
C429 N428 1.321 . S
C429 H436 0.930 . S
C430 C425 1.395 . S
C430 C427 1.386 . S
C430 H449 0.930 . S
Eu431 N428 2.609 . S
Eu431 N432 2.657 1_556 S
Eu431 O465 2.380 1_556 S
Eu431 O466 2.432 . S
Eu431 O470 2.558 . S
Eu431 O471 2.612 1_556 S
Eu431 O473 2.339 1_556 S
Eu431 O474 2.563 . S
Eu431 O475 2.419 1_556 S
Eu431 C495 2.848 . S
N432 C424 1.362 1_554 S
N432 Eu431 2.657 1_554 S
N432 C433 1.334 . S
C433 N432 1.334 . S
C433 C435 1.413 . S
C433 H440 0.929 . S
C434 C422 1.392 1_554 S
C434 C435 1.367 . S
C434 H442 0.930 . S
C435 C433 1.413 . S
C435 C434 1.367 . S
C435 H437 0.930 . S
H436 C429 0.930 . S
H437 C435 0.930 . S
H438 C426 0.930 . S
H439 C427 0.930 . S
H440 C433 0.929 . S
H441 C455 0.930 . S
H442 C434 0.930 . S
H443 C461 0.930 . S
H444 C452 0.929 . S
H445 C459 0.930 . S
H446 C423 0.931 . S
H447 C453 0.930 1_556 S
H448 C486 0.930 . S
H449 C430 0.930 . S
H450 C485 0.931 . S
N451 Eu420 2.657 . S
N451 C452 1.334 1_554 S
N451 C456 1.362 . S
C452 H444 0.929 . S
C452 N451 1.334 1_556 S
C452 C455 1.413 . S
C453 H447 0.930 1_554 S
C453 C454 1.392 . S
C453 C455 1.367 1_554 S
C454 C453 1.392 . S
C454 C456 1.420 . S
C454 C486 1.423 . S
C455 H441 0.930 . S
C455 C452 1.413 . S
C455 C453 1.367 1_556 S
C456 N451 1.362 . S
C456 C454 1.420 . S
C456 C460 1.429 . S
H457 C462 0.930 . S
N458 Eu420 2.609 . S
N458 C460 1.377 . S
N458 C461 1.321 . S
C459 H445 0.930 . S
C459 C461 1.400 . S
C459 C462 1.386 . S
C460 C456 1.429 . S
C460 N458 1.377 . S
C460 C463 1.411 . S
C461 H443 0.930 . S
C461 N458 1.321 . S
C461 C459 1.400 . S
C462 H457 0.930 . S
C462 C459 1.386 . S
C462 C463 1.395 . S
C463 C460 1.411 . S
C463 C462 1.395 . S
C463 C485 1.420 . S
O464 Eu420 2.558 . S
O464 C484 1.257 . S
O465 Eu420 2.612 . S
O465 Eu431 2.380 1_554 S
O465 C476 1.276 . S
O466 Eu431 2.432 . S
O466 C483 1.264 . S
O467 Eu420 2.339 1_556 S
O467 C483 1.254 . S
O468 Eu420 2.563 . S
O468 C476 1.235 . S
O469 Eu420 2.419 . S
O469 C484 1.249 . S
O470 Eu431 2.558 . S
O470 C495 1.257 . S
O471 Eu420 2.380 . S
O471 Eu431 2.612 1_554 S
O471 C487 1.276 . S
O472 Eu420 2.432 . S
O472 C494 1.264 . S
O473 Eu431 2.339 1_554 S
O473 C494 1.254 . S
O474 Eu431 2.563 . S
O474 C487 1.235 1_556 S
O475 Eu431 2.419 1_554 S
O475 C495 1.249 1_554 S
C476 O465 1.276 . S
C476 O468 1.235 . S
C477 C479 1.393 . S
C477 C481 1.395 . S
C477 C484 1.492 . S
C478 C479 1.392 . S
C478 C480 1.386 . S
C479 C477 1.393 . S
C479 C478 1.392 . S
C479 H496 0.930 . S
C480 C478 1.386 . S
C480 C482 1.395 . S
C480 H497 0.930 . S
C481 C477 1.395 . S
C481 C482 1.379 . S
C481 H498 0.930 . S
C482 C480 1.395 . S
C482 C481 1.379 . S
C482 H499 0.930 . S
C483 O466 1.264 . S
C483 O467 1.254 . S
C484 Eu420 2.848 . S
C484 O464 1.257 . S
C484 O469 1.249 . S
C484 C477 1.492 . S
C485 H450 0.931 . S
C485 C463 1.420 . S
C485 C486 1.351 . S
C486 H448 0.930 . S
C486 C454 1.423 . S
C486 C485 1.351 . S
C487 O471 1.276 . S
C487 O474 1.235 1_554 S
C488 C489 1.393 1_556 S
C488 C492 1.395 . S
C488 C495 1.492 . S
C489 C488 1.393 1_554 S
C489 C490 1.392 1_554 S
C489 H500 0.930 . S
C490 C489 1.392 1_556 S
C490 C491 1.386 . S
C491 C490 1.386 . S
C491 C493 1.395 . S
C491 H501 0.930 . S
C492 C488 1.395 . S
C492 C493 1.379 . S
C492 H502 0.930 . S
C493 C491 1.395 . S
C493 C492 1.379 . S
C493 H503 0.930 . S
C494 O472 1.264 . S
C494 O473 1.254 . S
C495 Eu431 2.848 . S
C495 O470 1.257 . S
C495 O475 1.249 1_556 S
C495 C488 1.492 . S
H496 C479 0.930 . S
H497 C480 0.930 . S
H498 C481 0.930 . S
H499 C482 0.930 . S
H500 C489 0.930 . S
H501 C491 0.930 . S
H502 C492 0.930 . S
H503 C493 0.930 . S
Eu504 N535 2.657 . S
Eu504 N542 2.609 . S
Eu504 O548 2.558 . S
Eu504 O549 2.612 . S
Eu504 O551 2.339 . S
Eu504 O552 2.563 . S
Eu504 O553 2.419 . S
Eu504 O555 2.380 . S
Eu504 O556 2.432 . S
Eu504 C568 2.848 . S
C505 C508 1.429 . S
C505 C509 1.411 . S
C505 N512 1.377 . S
C506 C508 1.420 . S
C506 C510 1.423 . S
C506 C518 1.392 . S
C507 C509 1.420 . S
C507 C510 1.351 . S
C507 H530 0.931 . S
C508 C505 1.429 . S
C508 C506 1.420 . S
C508 N516 1.362 . S
C509 C505 1.411 . S
C509 C507 1.420 . S
C509 C514 1.395 . S
C510 C506 1.423 . S
C510 C507 1.351 . S
C510 H522 0.930 . S
C511 C513 1.400 . S
C511 C514 1.386 . S
C511 H523 0.930 . S
N512 C505 1.377 . S
N512 C513 1.321 . S
N512 Eu515 2.609 . S
C513 C511 1.400 . S
C513 N512 1.321 . S
C513 H520 0.930 . S
C514 C509 1.395 . S
C514 C511 1.386 . S
C514 H533 0.930 . S
Eu515 N512 2.609 . S
Eu515 N516 2.657 . S
Eu515 O549 2.380 . S
Eu515 O550 2.432 . S
Eu515 O554 2.558 . S
Eu515 O555 2.612 . S
Eu515 O557 2.339 . S
Eu515 O558 2.563 . S
Eu515 O559 2.419 . S
Eu515 C579 2.848 . S
N516 C508 1.362 . S
N516 Eu515 2.657 . S
N516 C517 1.334 . S
C517 N516 1.334 . S
C517 C519 1.413 . S
C517 H524 0.929 . S
C518 C506 1.392 . S
C518 C519 1.367 . S
C518 H526 0.930 . S
C519 C517 1.413 . S
C519 C518 1.367 . S
C519 H521 0.930 . S
H520 C513 0.930 . S
H521 C519 0.930 . S
H522 C510 0.930 . S
H523 C511 0.930 . S
H524 C517 0.929 . S
H525 C539 0.930 . S
H526 C518 0.930 . S
H527 C545 0.930 . S
H528 C536 0.929 . S
H529 C543 0.930 . S
H530 C507 0.931 . S
H531 C537 0.930 . S
H532 C570 0.930 . S
H533 C514 0.930 . S
H534 C569 0.931 . S
N535 Eu504 2.657 . S
N535 C536 1.334 . S
N535 C540 1.362 . S
C536 H528 0.929 . S
C536 N535 1.334 . S
C536 C539 1.413 . S
C537 H531 0.930 . S
C537 C538 1.392 . S
C537 C539 1.367 . S
C538 C537 1.392 . S
C538 C540 1.420 . S
C538 C570 1.423 . S
C539 H525 0.930 . S
C539 C536 1.413 . S
C539 C537 1.367 . S
C540 N535 1.362 . S
C540 C538 1.420 . S
C540 C544 1.429 . S
H541 C546 0.930 . S
N542 Eu504 2.609 . S
N542 C544 1.377 . S
N542 C545 1.321 . S
C543 H529 0.930 . S
C543 C545 1.400 . S
C543 C546 1.386 . S
C544 C540 1.429 . S
C544 N542 1.377 . S
C544 C547 1.411 . S
C545 H527 0.930 . S
C545 N542 1.321 . S
C545 C543 1.400 . S
C546 H541 0.930 . S
C546 C543 1.386 . S
C546 C547 1.395 . S
C547 C544 1.411 . S
C547 C546 1.395 . S
C547 C569 1.420 . S
O548 Eu504 2.558 . S
O548 C568 1.257 . S
O549 Eu504 2.612 . S
O549 Eu515 2.380 . S
O549 C560 1.276 . S
O550 Eu515 2.432 . S
O550 C567 1.264 . S
O551 Eu504 2.339 . S
O551 C567 1.254 . S
O552 Eu504 2.563 . S
O552 C560 1.235 . S
O553 Eu504 2.419 . S
O553 C568 1.249 . S
O554 Eu515 2.558 . S
O554 C579 1.257 . S
O555 Eu504 2.380 . S
O555 Eu515 2.612 . S
O555 C571 1.276 . S
O556 Eu504 2.432 . S
O556 C578 1.264 . S
O557 Eu515 2.339 . S
O557 C578 1.254 . S
O558 Eu515 2.563 . S
O558 C571 1.235 . S
O559 Eu515 2.419 . S
O559 C579 1.249 . S
C560 O549 1.276 . S
C560 O552 1.235 . S
C561 C563 1.393 . S
C561 C565 1.395 . S
C561 C568 1.492 . S
C562 C563 1.392 . S
C562 C564 1.386 . S
C563 C561 1.393 . S
C563 C562 1.392 . S
C563 H580 0.930 . S
C564 C562 1.386 . S
C564 C566 1.395 . S
C564 H581 0.930 . S
C565 C561 1.395 . S
C565 C566 1.379 . S
C565 H582 0.930 . S
C566 C564 1.395 . S
C566 C565 1.379 . S
C566 H583 0.930 . S
C567 O550 1.264 . S
C567 O551 1.254 . S
C568 Eu504 2.848 . S
C568 O548 1.257 . S
C568 O553 1.249 . S
C568 C561 1.492 . S
C569 H534 0.931 . S
C569 C547 1.420 . S
C569 C570 1.351 . S
C570 H532 0.930 . S
C570 C538 1.423 . S
C570 C569 1.351 . S
C571 O555 1.276 . S
C571 O558 1.235 . S
C572 C573 1.393 . S
C572 C576 1.395 . S
C572 C579 1.492 . S
C573 C572 1.393 . S
C573 C574 1.392 . S
C573 H584 0.930 . S
C574 C573 1.392 . S
C574 C575 1.386 . S
C575 C574 1.386 . S
C575 C577 1.395 . S
C575 H585 0.930 . S
C576 C572 1.395 . S
C576 C577 1.379 . S
C576 H586 0.930 . S
C577 C575 1.395 . S
C577 C576 1.379 . S
C577 H587 0.930 . S
C578 O556 1.264 . S
C578 O557 1.254 . S
C579 Eu515 2.848 . S
C579 O554 1.257 . S
C579 O559 1.249 . S
C579 C572 1.492 . S
H580 C563 0.930 . S
H581 C564 0.930 . S
H582 C565 0.930 . S
H583 C566 0.930 . S
H584 C573 0.930 . S
H585 C575 0.930 . S
H586 C576 0.930 . S
H587 C577 0.930 . S
Eu588 N619 2.657 . S
Eu588 N626 2.609 . S
Eu588 O632 2.558 . S
Eu588 O633 2.612 . S
Eu588 O635 2.339 . S
Eu588 O636 2.563 . S
Eu588 O637 2.419 . S
Eu588 O639 2.380 . S
Eu588 O640 2.432 . S
Eu588 C652 2.848 . S
C589 C592 1.429 . S
C589 C593 1.411 . S
C589 N596 1.377 . S
C590 C592 1.420 . S
C590 C594 1.423 . S
C590 C602 1.392 . S
C591 C593 1.420 . S
C591 C594 1.351 . S
C591 H614 0.931 . S
C592 C589 1.429 . S
C592 C590 1.420 . S
C592 N600 1.362 . S
C593 C589 1.411 . S
C593 C591 1.420 . S
C593 C598 1.395 . S
C594 C590 1.423 . S
C594 C591 1.351 . S
C594 H606 0.930 . S
C595 C597 1.400 . S
C595 C598 1.386 . S
C595 H607 0.930 . S
N596 C589 1.377 . S
N596 C597 1.321 . S
N596 Eu599 2.609 . S
C597 C595 1.400 . S
C597 N596 1.321 . S
C597 H604 0.930 . S
C598 C593 1.395 . S
C598 C595 1.386 . S
C598 H617 0.930 . S
Eu599 N596 2.609 . S
Eu599 N600 2.657 . S
Eu599 O633 2.380 . S
Eu599 O634 2.432 . S
Eu599 O638 2.558 . S
Eu599 O639 2.612 . S
Eu599 O641 2.339 . S
Eu599 O642 2.563 . S
Eu599 O643 2.419 . S
Eu599 C663 2.848 . S
N600 C592 1.362 . S
N600 Eu599 2.657 . S
N600 C601 1.334 . S
C601 N600 1.334 . S
C601 C603 1.413 . S
C601 H608 0.929 . S
C602 C590 1.392 . S
C602 C603 1.367 . S
C602 H610 0.930 . S
C603 C601 1.413 . S
C603 C602 1.367 . S
C603 H605 0.930 . S
H604 C597 0.930 . S
H605 C603 0.930 . S
H606 C594 0.930 . S
H607 C595 0.930 . S
H608 C601 0.929 . S
H609 C623 0.930 . S
H610 C602 0.930 . S
H611 C629 0.930 . S
H612 C620 0.929 . S
H613 C627 0.930 . S
H614 C591 0.931 . S
H615 C621 0.930 . S
H616 C654 0.930 . S
H617 C598 0.930 . S
H618 C653 0.931 . S
N619 Eu588 2.657 . S
N619 C620 1.334 . S
N619 C624 1.362 . S
C620 H612 0.929 . S
C620 N619 1.334 . S
C620 C623 1.413 . S
C621 H615 0.930 . S
C621 C622 1.392 . S
C621 C623 1.367 . S
C622 C621 1.392 . S
C622 C624 1.420 . S
C622 C654 1.423 . S
C623 H609 0.930 . S
C623 C620 1.413 . S
C623 C621 1.367 . S
C624 N619 1.362 . S
C624 C622 1.420 . S
C624 C628 1.429 . S
H625 C630 0.930 . S
N626 Eu588 2.609 . S
N626 C628 1.377 . S
N626 C629 1.321 . S
C627 H613 0.930 . S
C627 C629 1.400 . S
C627 C630 1.386 . S
C628 C624 1.429 . S
C628 N626 1.377 . S
C628 C631 1.411 . S
C629 H611 0.930 . S
C629 N626 1.321 . S
C629 C627 1.400 . S
C630 H625 0.930 . S
C630 C627 1.386 . S
C630 C631 1.395 . S
C631 C628 1.411 . S
C631 C630 1.395 . S
C631 C653 1.420 . S
O632 Eu588 2.558 . S
O632 C652 1.257 . S
O633 Eu588 2.612 . S
O633 Eu599 2.380 . S
O633 C644 1.276 . S
O634 Eu599 2.432 . S
O634 C651 1.264 . S
O635 Eu588 2.339 . S
O635 C651 1.254 . S
O636 Eu588 2.563 . S
O636 C644 1.235 . S
O637 Eu588 2.419 . S
O637 C652 1.249 . S
O638 Eu599 2.558 . S
O638 C663 1.257 . S
O639 Eu588 2.380 . S
O639 Eu599 2.612 . S
O639 C655 1.276 . S
O640 Eu588 2.432 . S
O640 C662 1.264 . S
O641 Eu599 2.339 . S
O641 C662 1.254 . S
O642 Eu599 2.563 . S
O642 C655 1.235 . S
O643 Eu599 2.419 . S
O643 C663 1.249 . S
C644 O633 1.276 . S
C644 O636 1.235 . S
C645 C647 1.393 . S
C645 C649 1.395 . S
C645 C652 1.492 . S
C646 C647 1.392 . S
C646 C648 1.386 . S
C647 C645 1.393 . S
C647 C646 1.392 . S
C647 H664 0.930 . S
C648 C646 1.386 . S
C648 C650 1.395 . S
C648 H665 0.930 . S
C649 C645 1.395 . S
C649 C650 1.379 . S
C649 H666 0.930 . S
C650 C648 1.395 . S
C650 C649 1.379 . S
C650 H667 0.930 . S
C651 O634 1.264 . S
C651 O635 1.254 . S
C652 Eu588 2.848 . S
C652 O632 1.257 . S
C652 O637 1.249 . S
C652 C645 1.492 . S
C653 H618 0.931 . S
C653 C631 1.420 . S
C653 C654 1.351 . S
C654 H616 0.930 . S
C654 C622 1.423 . S
C654 C653 1.351 . S
C655 O639 1.276 . S
C655 O642 1.235 . S
C656 C657 1.393 . S
C656 C660 1.395 . S
C656 C663 1.492 . S
C657 C656 1.393 . S
C657 C658 1.392 . S
C657 H668 0.930 . S
C658 C657 1.392 . S
C658 C659 1.386 . S
C659 C658 1.386 . S
C659 C661 1.395 . S
C659 H669 0.930 . S
C660 C656 1.395 . S
C660 C661 1.379 . S
C660 H670 0.930 . S
C661 C659 1.395 . S
C661 C660 1.379 . S
C661 H671 0.930 . S
C662 O640 1.264 . S
C662 O641 1.254 . S
C663 Eu599 2.848 . S
C663 O638 1.257 . S
C663 O643 1.249 . S
C663 C656 1.492 . S
H664 C647 0.930 . S
H665 C648 0.930 . S
H666 C649 0.930 . S
H667 C650 0.930 . S
H668 C657 0.930 . S
H669 C659 0.930 . S
H670 C660 0.930 . S
H671 C661 0.930 . S
H672 C680 0.929 . S
H673 C682 0.930 . S
H674 C684 0.930 . S
H675 C687 0.929 . S
H676 C690 0.930 . S
H677 C692 0.960 . S
H678 C692 0.960 . S
H679 C692 0.960 . S
C680 H672 0.929 . S
C680 C681 1.377 . S
C680 C682 1.384 . S
C681 C680 1.377 . S
C681 C687 1.390 1_554 S
C682 H673 0.930 . S
C682 C680 1.384 . S
C682 C683 1.372 . S
C683 C682 1.372 . S
C683 C684 1.400 1_554 S
C683 C688 1.490 . S
C684 H674 0.930 . S
C684 C683 1.400 1_556 S
C684 C687 1.386 . S
H685 C701 0.930 . S
H686 C702 0.931 . S
C687 H675 0.929 . S
C687 C681 1.390 1_556 S
C687 C684 1.386 . S
C688 C683 1.490 . S
C688 C690 1.395 . S
C688 C691 1.403 1_554 S
H689 C695 0.930 . S
C690 H676 0.930 . S
C690 C688 1.395 . S
C690 C693 1.403 . S
C691 C688 1.403 1_556 S
C691 C692 1.524 . S
C691 C695 1.400 . S
C692 H677 0.960 . S
C692 H678 0.960 . S
C692 H679 0.960 . S
C692 C691 1.524 . S
C693 C690 1.403 . S
C693 C694 1.392 . S
C693 C697 1.495 . S
C694 C693 1.392 . S
C694 C695 1.385 1_554 S
C694 C696 1.478 . S
C695 H689 0.930 . S
C695 C691 1.400 . S
C695 C694 1.385 1_556 S
C696 C694 1.478 . S
C696 C698 1.381 . S
C696 C702 1.383 1_554 S
C697 C693 1.495 . S
C697 H703 0.959 . S
C697 H704 0.961 . S
C697 H705 0.960 . S
C698 C696 1.381 . S
C698 C699 1.394 . S
C698 H706 0.930 . S
C699 C698 1.394 . S
C699 C700 1.383 . S
C699 H707 0.929 . S
C700 C699 1.383 . S
C700 C701 1.377 1_554 S
C701 H685 0.930 . S
C701 C700 1.377 1_556 S
C701 C702 1.379 . S
C702 H686 0.931 . S
C702 C696 1.383 1_556 S
C702 C701 1.379 . S
H703 C697 0.959 . S
H704 C697 0.961 . S
H705 C697 0.960 . S
H706 C698 0.930 . S
H707 C699 0.929 . S
H708 C716 0.929 . S
H709 C718 0.930 . S
H710 C720 0.930 . S
H711 C723 0.929 . S
H712 C726 0.930 . S
H713 C728 0.960 . S
H714 C728 0.960 1_554 S
H715 C728 0.960 . S
C716 H708 0.929 . S
C716 C717 1.377 . S
C716 C718 1.384 . S
C717 C716 1.377 . S
C717 C723 1.390 1_554 S
C718 H709 0.930 . S
C718 C716 1.384 . S
C718 C719 1.372 . S
C719 C718 1.372 . S
C719 C720 1.400 1_554 S
C719 C724 1.490 . S
C720 H710 0.930 . S
C720 C719 1.400 1_556 S
C720 C723 1.386 . S
H721 C737 0.930 . S
H722 C738 0.931 . S
C723 H711 0.929 . S
C723 C717 1.390 1_556 S
C723 C720 1.386 . S
C724 C719 1.490 . S
C724 C726 1.395 . S
C724 C727 1.403 . S
H725 C731 0.930 1_556 S
C726 H712 0.930 . S
C726 C724 1.395 . S
C726 C729 1.403 . S
C727 C724 1.403 . S
C727 C728 1.524 1_554 S
C727 C731 1.400 . S
C728 H713 0.960 . S
C728 H714 0.960 1_556 S
C728 H715 0.960 . S
C728 C727 1.524 1_556 S
C729 C726 1.403 . S
C729 C730 1.392 . S
C729 C733 1.495 . S
C730 C729 1.392 . S
C730 C731 1.385 . S
C730 C732 1.478 . S
C731 H725 0.930 1_554 S
C731 C727 1.400 . S
C731 C730 1.385 . S
C732 C730 1.478 . S
C732 C734 1.381 . S
C732 C738 1.383 1_554 S
C733 C729 1.495 . S
C733 H739 0.959 . S
C733 H740 0.961 . S
C733 H741 0.960 . S
C734 C732 1.381 . S
C734 C735 1.394 . S
C734 H742 0.930 . S
C735 C734 1.394 . S
C735 C736 1.383 . S
C735 H743 0.929 . S
C736 C735 1.383 . S
C736 C737 1.377 1_554 S
C737 H721 0.930 . S
C737 C736 1.377 1_556 S
C737 C738 1.379 . S
C738 H722 0.931 . S
C738 C732 1.383 1_556 S
C738 C737 1.379 . S
H739 C733 0.959 . S
H740 C733 0.961 . S
H741 C733 0.960 . S
H742 C734 0.930 . S
H743 C735 0.929 . S
H744 C752 0.929 . S
H745 C754 0.930 . S
H746 C756 0.930 . S
H747 C759 0.929 . S
H748 C762 0.930 . S
H749 C764 0.960 . S
H750 C764 0.960 . S
H751 C764 0.960 . S
C752 H744 0.929 . S
C752 C753 1.377 . S
C752 C754 1.384 . S
C753 C752 1.377 . S
C753 C759 1.390 . S
C754 H745 0.930 . S
C754 C752 1.384 . S
C754 C755 1.372 . S
C755 C754 1.372 . S
C755 C756 1.400 . S
C755 C760 1.490 . S
C756 H746 0.930 . S
C756 C755 1.400 . S
C756 C759 1.386 . S
H757 C773 0.930 . S
H758 C774 0.931 . S
C759 H747 0.929 . S
C759 C753 1.390 . S
C759 C756 1.386 . S
C760 C755 1.490 . S
C760 C762 1.395 . S
C760 C763 1.403 . S
H761 C767 0.930 . S
C762 H748 0.930 . S
C762 C760 1.395 . S
C762 C765 1.403 . S
C763 C760 1.403 . S
C763 C764 1.524 . S
C763 C767 1.400 . S
C764 H749 0.960 . S
C764 H750 0.960 . S
C764 H751 0.960 . S
C764 C763 1.524 . S
C765 C762 1.403 . S
C765 C766 1.392 . S
C765 C769 1.495 . S
C766 C765 1.392 . S
C766 C767 1.385 . S
C766 C768 1.478 . S
C767 H761 0.930 . S
C767 C763 1.400 . S
C767 C766 1.385 . S
C768 C766 1.478 . S
C768 C770 1.381 . S
C768 C774 1.383 . S
C769 C765 1.495 . S
C769 H775 0.959 . S
C769 H776 0.961 . S
C769 H777 0.960 . S
C770 C768 1.381 . S
C770 C771 1.394 . S
C770 H778 0.930 . S
C771 C770 1.394 . S
C771 C772 1.383 . S
C771 H779 0.929 . S
C772 C771 1.383 . S
C772 C773 1.377 . S
C773 H757 0.930 . S
C773 C772 1.377 . S
C773 C774 1.379 . S
C774 H758 0.931 . S
C774 C768 1.383 . S
C774 C773 1.379 . S
H775 C769 0.959 . S
H776 C769 0.961 . S
H777 C769 0.960 . S
H778 C770 0.930 . S
H779 C771 0.929 . S
H780 C788 0.929 . S
H781 C790 0.930 . S
H782 C792 0.930 . S
H783 C795 0.929 . S
H784 C798 0.930 . S
H785 C800 0.960 . S
H786 C800 0.960 . S
H787 C800 0.960 . S
C788 H780 0.929 . S
C788 C789 1.377 . S
C788 C790 1.384 . S
C789 C788 1.377 . S
C789 C795 1.390 . S
C790 H781 0.930 . S
C790 C788 1.384 . S
C790 C791 1.372 . S
C791 C790 1.372 . S
C791 C792 1.400 . S
C791 C796 1.490 . S
C792 H782 0.930 . S
C792 C791 1.400 . S
C792 C795 1.386 . S
H793 C809 0.930 . S
H794 C810 0.931 . S
C795 H783 0.929 . S
C795 C789 1.390 . S
C795 C792 1.386 . S
C796 C791 1.490 . S
C796 C798 1.395 . S
C796 C799 1.403 . S
H797 C803 0.930 . S
C798 H784 0.930 . S
C798 C796 1.395 . S
C798 C801 1.403 . S
C799 C796 1.403 . S
C799 C800 1.524 . S
C799 C803 1.400 . S
C800 H785 0.960 . S
C800 H786 0.960 . S
C800 H787 0.960 . S
C800 C799 1.524 . S
C801 C798 1.403 . S
C801 C802 1.392 . S
C801 C805 1.495 . S
C802 C801 1.392 . S
C802 C803 1.385 . S
C802 C804 1.478 . S
C803 H797 0.930 . S
C803 C799 1.400 . S
C803 C802 1.385 . S
C804 C802 1.478 . S
C804 C806 1.381 . S
C804 C810 1.383 . S
C805 C801 1.495 . S
C805 H811 0.959 . S
C805 H812 0.961 . S
C805 H813 0.960 . S
C806 C804 1.381 . S
C806 C807 1.394 . S
C806 H814 0.930 . S
C807 C806 1.394 . S
C807 C808 1.383 . S
C807 H815 0.929 . S
C808 C807 1.383 . S
C808 C809 1.377 . S
C809 H793 0.930 . S
C809 C808 1.377 . S
C809 C810 1.379 . S
C810 H794 0.931 . S
C810 C804 1.383 . S
C810 C809 1.379 . S
H811 C805 0.959 . S
H812 C805 0.961 . S
H813 C805 0.960 . S
H814 C806 0.930 . S
H815 C807 0.929 . S
H816 C824 0.929 . S
H817 C826 0.930 . S
H818 C828 0.930 . S
H819 C831 0.929 . S
H820 C834 0.930 . S
H821 C836 0.960 1_455 S
H822 C836 0.960 . S
H823 C836 0.960 . S
C824 H816 0.929 . S
C824 C825 1.377 . S
C824 C826 1.384 . S
C825 C824 1.377 . S
C825 C831 1.390 1_554 S
C826 H817 0.930 . S
C826 C824 1.384 . S
C826 C827 1.372 . S
C827 C826 1.372 . S
C827 C828 1.400 1_554 S
C827 C832 1.490 . S
C828 H818 0.930 . S
C828 C827 1.400 1_556 S
C828 C831 1.386 . S
H829 C845 0.930 . S
H830 C846 0.931 . S
C831 H819 0.929 . S
C831 C825 1.390 1_556 S
C831 C828 1.386 . S
C832 C827 1.490 . S
C832 C834 1.395 1_655 S
C832 C835 1.403 1_654 S
H833 C839 0.930 . S
C834 H820 0.930 . S
C834 C832 1.395 1_455 S
C834 C837 1.403 . S
C835 C832 1.403 1_456 S
C835 C836 1.524 1_455 S
C835 C839 1.400 . S
C836 H821 0.960 1_655 S
C836 H822 0.960 . S
C836 H823 0.960 . S
C836 C835 1.524 1_655 S
C837 C834 1.403 . S
C837 C838 1.392 . S
C837 C841 1.495 . S
C838 C837 1.392 . S
C838 C839 1.385 1_554 S
C838 C840 1.478 . S
C839 H833 0.930 . S
C839 C835 1.400 . S
C839 C838 1.385 1_556 S
C840 C838 1.478 . S
C840 C842 1.381 . S
C840 C846 1.383 1_554 S
C841 C837 1.495 . S
C841 H847 0.959 . S
C841 H848 0.961 . S
C841 H849 0.960 . S
C842 C840 1.381 . S
C842 C843 1.394 . S
C842 H850 0.930 . S
C843 C842 1.394 . S
C843 C844 1.383 . S
C843 H851 0.929 . S
C844 C843 1.383 . S
C844 C845 1.377 1_554 S
C845 H829 0.930 . S
C845 C844 1.377 1_556 S
C845 C846 1.379 . S
C846 H830 0.931 . S
C846 C840 1.383 1_556 S
C846 C845 1.379 . S
H847 C841 0.959 . S
H848 C841 0.961 . S
H849 C841 0.960 . S
H850 C842 0.930 . S
H851 C843 0.929 . S
H852 C860 0.929 . S
H853 C862 0.930 . S
H854 C864 0.930 . S
H855 C867 0.929 . S
H856 C870 0.932 1_556 S
H857 C872 0.960 1_655 S
H858 C872 0.960 . S
H859 C872 0.960 . S
C860 H852 0.929 . S
C860 C861 1.377 . S
C860 C862 1.384 . S
C861 C860 1.377 . S
C861 C867 1.390 1_554 S
C862 H853 0.930 . S
C862 C860 1.384 . S
C862 C863 1.372 . S
C863 C862 1.372 . S
C863 C864 1.400 1_554 S
C863 C868 1.490 . S
C864 H854 0.930 . S
C864 C863 1.400 1_556 S
C864 C867 1.386 . S
H865 C881 0.930 . S
H866 C882 0.931 . S
C867 H855 0.929 . S
C867 C861 1.390 1_556 S
C867 C864 1.386 . S
C868 C863 1.490 . S
C868 C870 1.393 1_455 S
C868 C871 1.403 1_455 S
H869 C875 0.930 . S
C870 H856 0.932 1_554 S
C870 C868 1.393 1_655 S
C870 C873 1.403 1_554 S
C871 C868 1.403 1_655 S
C871 C872 1.524 1_655 S
C871 C875 1.400 . S
C872 H857 0.960 1_455 S
C872 H858 0.960 . S
C872 H859 0.960 . S
C872 C871 1.524 1_455 S
C873 C870 1.403 1_556 S
C873 C874 1.392 1_556 S
C873 C877 1.495 . S
C874 C873 1.392 1_554 S
C874 C875 1.385 . S
C874 C876 1.478 . S
C875 H869 0.930 . S
C875 C871 1.400 . S
C875 C874 1.385 . S
C876 C874 1.478 . S
C876 C878 1.381 . S
C876 C882 1.383 1_554 S
C877 C873 1.495 . S
C877 H883 0.959 . S
C877 H884 0.961 . S
C877 H885 0.960 1_556 S
C878 C876 1.381 . S
C878 C879 1.394 . S
C878 H886 0.930 . S
C879 C878 1.394 . S
C879 C880 1.383 . S
C879 H887 0.929 . S
C880 C879 1.383 . S
C880 C881 1.377 1_554 S
C881 H865 0.930 . S
C881 C880 1.377 1_556 S
C881 C882 1.379 . S
C882 H866 0.931 . S
C882 C876 1.383 1_556 S
C882 C881 1.379 . S
H883 C877 0.959 . S
H884 C877 0.961 . S
H885 C877 0.960 1_554 S
H886 C878 0.930 . S
H887 C879 0.929 . S
H888 C896 0.929 . S
H889 C898 0.930 . S
H890 C900 0.930 . S
H891 C903 0.929 . S
H892 C906 0.930 . S
H893 C908 0.960 . S
H894 C908 0.960 . S
H895 C908 0.960 . S
C896 H888 0.929 . S
C896 C897 1.377 . S
C896 C898 1.384 . S
C897 C896 1.377 . S
C897 C903 1.390 . S
C898 H889 0.930 . S
C898 C896 1.384 . S
C898 C899 1.372 . S
C899 C898 1.372 . S
C899 C900 1.400 . S
C899 C904 1.490 . S
C900 H890 0.930 . S
C900 C899 1.400 . S
C900 C903 1.386 . S
H901 C917 0.930 . S
H902 C918 0.931 . S
C903 H891 0.929 . S
C903 C897 1.390 . S
C903 C900 1.386 . S
C904 C899 1.490 . S
C904 C906 1.395 . S
C904 C907 1.403 . S
H905 C911 0.930 1_655 S
C906 H892 0.930 . S
C906 C904 1.395 . S
C906 C909 1.403 . S
C907 C904 1.403 . S
C907 C908 1.524 . S
C907 C911 1.400 . S
C908 H893 0.960 . S
C908 H894 0.960 . S
C908 H895 0.960 . S
C908 C907 1.524 . S
C909 C906 1.403 . S
C909 C910 1.392 1_455 S
C909 C913 1.495 . S
C910 C909 1.392 1_655 S
C910 C911 1.385 1_655 S
C910 C912 1.478 . S
C911 H905 0.930 1_455 S
C911 C907 1.400 . S
C911 C910 1.385 1_455 S
C912 C910 1.478 . S
C912 C914 1.381 . S
C912 C918 1.383 . S
C913 C909 1.495 . S
C913 H919 0.959 . S
C913 H920 0.961 1_455 S
C913 H921 0.960 1_455 S
C914 C912 1.381 . S
C914 C915 1.394 . S
C914 H922 0.930 . S
C915 C914 1.394 . S
C915 C916 1.383 . S
C915 H923 0.929 . S
C916 C915 1.383 . S
C916 C917 1.377 . S
C917 H901 0.930 . S
C917 C916 1.377 . S
C917 C918 1.379 . S
C918 H902 0.931 . S
C918 C912 1.383 . S
C918 C917 1.379 . S
H919 C913 0.959 . S
H920 C913 0.961 1_655 S
H921 C913 0.960 1_655 S
H922 C914 0.930 . S
H923 C915 0.929 . S
H924 C932 0.929 . S
H925 C934 0.930 . S
H926 C936 0.930 . S
H927 C939 0.929 . S
H928 C942 0.930 . S
H929 C944 0.960 . S
H930 C944 0.960 . S
H931 C944 0.960 . S
C932 H924 0.929 . S
C932 C933 1.377 . S
C932 C934 1.384 . S
C933 C932 1.377 . S
C933 C939 1.390 . S
C934 H925 0.930 . S
C934 C932 1.384 . S
C934 C935 1.372 . S
C935 C934 1.372 . S
C935 C936 1.400 . S
C935 C940 1.490 . S
C936 H926 0.930 . S
C936 C935 1.400 . S
C936 C939 1.386 . S
H937 C953 0.930 . S
H938 C954 0.931 . S
C939 H927 0.929 . S
C939 C933 1.390 . S
C939 C936 1.386 . S
C940 C935 1.490 . S
C940 C942 1.395 . S
C940 C943 1.403 . S
H941 C947 0.930 1_455 S
C942 H928 0.930 . S
C942 C940 1.395 . S
C942 C945 1.403 . S
C943 C940 1.403 . S
C943 C944 1.524 . S
C943 C947 1.400 . S
C944 H929 0.960 . S
C944 H930 0.960 . S
C944 H931 0.960 . S
C944 C943 1.524 . S
C945 C942 1.403 . S
C945 C946 1.392 1_655 S
C945 C949 1.495 1_655 S
C946 C945 1.392 1_455 S
C946 C947 1.385 1_455 S
C946 C948 1.478 . S
C947 H941 0.930 1_655 S
C947 C943 1.400 . S
C947 C946 1.385 1_655 S
C948 C946 1.478 . S
C948 C950 1.381 . S
C948 C954 1.383 . S
C949 C945 1.495 1_455 S
C949 H955 0.959 1_455 S
C949 H956 0.961 . S
C949 H957 0.960 . S
C950 C948 1.381 . S
C950 C951 1.394 . S
C950 H958 0.930 . S
C951 C950 1.394 . S
C951 C952 1.383 . S
C951 H959 0.929 . S
C952 C951 1.383 . S
C952 C953 1.377 . S
C953 H937 0.930 . S
C953 C952 1.377 . S
C953 C954 1.379 . S
C954 H938 0.931 . S
C954 C948 1.383 . S
C954 C953 1.379 . S
H955 C949 0.959 1_655 S
H956 C949 0.961 . S
H957 C949 0.960 . S
H958 C950 0.930 . S
H959 C951 0.929 . S
H960 C968 0.929 1_655 S
H961 C970 0.930 . S
H962 C972 0.930 . S
H963 C975 0.929 . S
H964 C978 0.930 . S
H965 C980 0.960 . S
H966 C980 0.960 . S
H967 C980 0.960 . S
C968 H960 0.929 1_455 S
C968 C969 1.377 . S
C968 C970 1.384 1_455 S
C969 C968 1.377 . S
C969 C975 1.390 1_554 S
C970 H961 0.930 . S
C970 C968 1.384 1_655 S
C970 C971 1.372 1_655 S
C971 C970 1.372 1_455 S
C971 C972 1.400 1_554 S
C971 C976 1.490 . S
C972 H962 0.930 . S
C972 C971 1.400 1_556 S
C972 C975 1.386 . S
H973 C989 0.930 1_455 S
H974 C990 0.918 1_455 S
C975 H963 0.929 . S
C975 C969 1.390 1_556 S
C975 C972 1.386 . S
C976 C971 1.490 . S
C976 C978 1.395 1_454 S
C976 C979 1.403 . S
H977 C983 0.930 . S
C978 H964 0.930 . S
C978 C976 1.395 1_656 S
C978 C981 1.403 . S
C979 C976 1.403 . S
C979 C980 1.524 . S
C979 C983 1.400 . S
C980 H965 0.960 . S
C980 H966 0.960 . S
C980 H967 0.960 . S
C980 C979 1.524 . S
C981 C978 1.403 . S
C981 C982 1.392 1_556 S
C981 C985 1.495 . S
C982 C981 1.392 1_554 S
C982 C983 1.385 1_655 S
C982 C984 1.478 . S
C983 H977 0.930 . S
C983 C979 1.400 . S
C983 C982 1.385 1_455 S
C984 C982 1.478 . S
C984 C986 1.381 . S
C984 C990 1.393 1_554 S
C985 C981 1.495 . S
C985 H991 0.959 . S
C985 H992 0.961 . S
C985 H993 0.960 . S
C986 C984 1.381 . S
C986 C987 1.394 . S
C986 H994 0.930 . S
C987 C986 1.394 . S
C987 C988 1.383 . S
C987 H995 0.929 . S
C988 C987 1.383 . S
C988 C989 1.377 1_554 S
C989 H973 0.930 1_655 S
C989 C988 1.377 1_556 S
C989 C990 1.382 . S
C990 H974 0.918 1_655 S
C990 C984 1.393 1_556 S
C990 C989 1.382 . S
H991 C985 0.959 . S
H992 C985 0.961 . S
H993 C985 0.960 . S
H994 C986 0.930 . S
H995 C987 0.929 . S
H996 C1004 0.929 . S
H997 C1006 0.930 . S
H998 C1008 0.933 . S
H999 C1011 0.929 1_655 S
H1000 C1014 0.930 . S
H1001 C1016 0.960 . S
H1002 C1016 0.960 . S
H1003 C1016 0.960 . S
C1004 H996 0.929 . S
C1004 C1005 1.377 . S
C1004 C1006 1.384 . S
C1005 C1004 1.377 . S
C1005 C1011 1.390 . S
C1006 H997 0.930 . S
C1006 C1004 1.384 . S
C1006 C1007 1.372 . S
C1007 C1006 1.372 . S
C1007 C1008 1.398 1_455 S
C1007 C1012 1.490 . S
C1008 H998 0.933 . S
C1008 C1007 1.398 1_655 S
C1008 C1011 1.385 1_655 S
H1009 C1025 0.930 . S
H1010 C1026 0.931 . S
C1011 H999 0.929 1_455 S
C1011 C1005 1.390 . S
C1011 C1008 1.385 1_455 S
C1012 C1007 1.490 . S
C1012 C1014 1.395 1_455 S
C1012 C1015 1.403 . S
H1013 C1019 0.930 . S
C1014 H1000 0.930 . S
C1014 C1012 1.395 1_655 S
C1014 C1017 1.403 . S
C1015 C1012 1.403 . S
C1015 C1016 1.524 . S
C1015 C1019 1.400 . S
C1016 H1001 0.960 . S
C1016 H1002 0.960 . S
C1016 H1003 0.960 . S
C1016 C1015 1.524 . S
C1017 C1014 1.403 . S
C1017 C1018 1.392 . S
C1017 C1021 1.495 . S
C1018 C1017 1.392 . S
C1018 C1019 1.385 1_655 S
C1018 C1020 1.478 . S
C1019 H1013 0.930 . S
C1019 C1015 1.400 . S
C1019 C1018 1.385 1_455 S
C1020 C1018 1.478 . S
C1020 C1022 1.381 1_655 S
C1020 C1026 1.383 . S
C1021 C1017 1.495 . S
C1021 H1027 0.959 . S
C1021 H1028 0.961 . S
C1021 H1029 0.960 . S
C1022 C1020 1.381 1_455 S
C1022 C1023 1.394 1_455 S
C1022 H1030 0.930 . S
C1023 C1022 1.394 1_655 S
C1023 C1024 1.383 . S
C1023 H1031 0.929 1_655 S
C1024 C1023 1.383 . S
C1024 C1025 1.377 . S
C1025 H1009 0.930 . S
C1025 C1024 1.377 . S
C1025 C1026 1.379 . S
C1026 H1010 0.931 . S
C1026 C1020 1.383 . S
C1026 C1025 1.379 . S
H1027 C1021 0.959 . S
H1028 C1021 0.961 . S
H1029 C1021 0.960 . S
H1030 C1022 0.930 . S
H1031 C1023 0.929 1_455 S
H1032 C1040 0.929 . S
H1033 C1042 0.930 . S
H1034 C1044 0.930 . S
H1035 C1047 0.929 . S
H1036 C1050 0.985 . S
H1037 C1052 0.960 . S
H1038 C1052 0.960 . S
H1039 C1052 0.960 . S
C1040 H1032 0.929 . S
C1040 C1041 1.377 . S
C1040 C1042 1.384 . S
C1041 C1040 1.377 . S
C1041 C1047 1.390 1_554 S
C1042 H1033 0.930 . S
C1042 C1040 1.384 . S
C1042 C1043 1.372 . S
C1043 C1042 1.372 . S
C1043 C1044 1.400 1_554 S
C1043 C1048 1.490 . S
C1044 H1034 0.930 . S
C1044 C1043 1.400 1_556 S
C1044 C1047 1.386 . S
H1045 C1061 0.920 1_556 S
H1046 C1062 0.931 1_556 S
C1047 H1035 0.929 . S
C1047 C1041 1.390 1_556 S
C1047 C1044 1.386 . S
C1048 C1043 1.490 . S
C1048 C1050 1.436 . S
C1048 C1051 1.403 1_554 S
H1049 C1055 0.930 . S
C1050 H1036 0.985 . S
C1050 C1048 1.436 . S
C1050 C1053 1.314 1_565 S
C1051 C1048 1.403 1_556 S
C1051 C1052 1.524 . S
C1051 C1055 1.400 1_565 S
C1052 H1037 0.960 . S
C1052 H1038 0.960 . S
C1052 H1039 0.960 . S
C1052 C1051 1.524 . S
C1053 C1050 1.314 1_545 S
C1053 C1054 1.392 . S
C1053 C1057 1.495 . S
C1054 C1053 1.392 . S
C1054 C1055 1.385 1_554 S
C1054 C1056 1.478 . S
C1055 H1049 0.930 . S
C1055 C1051 1.400 1_545 S
C1055 C1054 1.385 1_556 S
C1056 C1054 1.478 . S
C1056 C1058 1.381 . S
C1056 C1062 1.383 . S
C1057 C1053 1.495 . S
C1057 H1063 0.959 . S
C1057 H1064 0.961 . S
C1057 H1065 0.960 . S
C1058 C1056 1.381 . S
C1058 C1059 1.394 . S
C1058 H1066 0.930 . S
C1059 C1058 1.394 . S
C1059 C1060 1.383 . S
C1059 H1067 0.929 . S
C1060 C1059 1.383 . S
C1060 C1061 1.378 . S
C1061 H1045 0.920 1_554 S
C1061 C1060 1.378 . S
C1061 C1062 1.388 . S
C1062 H1046 0.931 1_554 S
C1062 C1056 1.383 . S
C1062 C1061 1.388 . S
H1063 C1057 0.959 . S
H1064 C1057 0.961 . S
H1065 C1057 0.960 . S
H1066 C1058 0.930 . S
H1067 C1059 0.929 . S
H1068 C1076 0.929 . S
H1069 C1078 0.930 . S
H1070 C1080 0.930 . S
H1071 C1083 0.929 . S
H1072 C1086 0.930 . S
H1073 C1088 0.960 . S
H1074 C1088 0.960 1_545 S
H1075 C1088 0.960 1_545 S
C1076 H1068 0.929 . S
C1076 C1077 1.377 . S
C1076 C1078 1.384 . S
C1077 C1076 1.377 . S
C1077 C1083 1.390 . S
C1078 H1069 0.930 . S
C1078 C1076 1.384 . S
C1078 C1079 1.372 . S
C1079 C1078 1.372 . S
C1079 C1080 1.400 . S
C1079 C1084 1.490 . S
C1080 H1070 0.930 . S
C1080 C1079 1.400 . S
C1080 C1083 1.386 . S
H1081 C1097 0.930 . S
H1082 C1098 0.931 . S
C1083 H1071 0.929 . S
C1083 C1077 1.390 . S
C1083 C1080 1.386 . S
C1084 C1079 1.490 . S
C1084 C1086 1.395 . S
C1084 C1087 1.407 . S
H1085 C1091 0.930 . S
C1086 H1072 0.930 . S
C1086 C1084 1.395 . S
C1086 C1089 1.496 . S
C1087 C1084 1.407 . S
C1087 C1088 1.526 1_545 S
C1087 C1091 1.394 1_545 S
C1088 H1073 0.960 . S
C1088 H1074 0.960 1_565 S
C1088 H1075 0.960 1_565 S
C1088 C1087 1.526 1_565 S
C1089 C1086 1.496 . S
C1089 C1090 1.334 1_545 S
C1089 C1093 1.469 . S
C1090 C1089 1.334 1_565 S
C1090 C1091 1.385 . S
C1090 C1092 1.478 . S
C1091 H1085 0.930 . S
C1091 C1087 1.394 1_565 S
C1091 C1090 1.385 . S
C1092 C1090 1.478 . S
C1092 C1094 1.381 . S
C1092 C1098 1.383 . S
C1093 C1089 1.469 . S
C1093 H1099 0.959 . S
C1093 H1100 0.961 1_545 S
C1093 H1101 0.960 1_545 S
C1094 C1092 1.381 . S
C1094 C1095 1.394 . S
C1094 H1102 0.930 . S
C1095 C1094 1.394 . S
C1095 C1096 1.383 . S
C1095 H1103 0.929 . S
C1096 C1095 1.383 . S
C1096 C1097 1.377 . S
C1097 H1081 0.930 . S
C1097 C1096 1.377 . S
C1097 C1098 1.379 . S
C1098 H1082 0.931 . S
C1098 C1092 1.383 . S
C1098 C1097 1.379 . S
H1099 C1093 0.959 . S
H1100 C1093 0.961 1_565 S
H1101 C1093 0.960 1_565 S
H1102 C1094 0.930 . S
H1103 C1095 0.929 . S
H1104 C1112 0.929 . S
H1105 C1114 0.930 . S
H1106 C1116 0.930 . S
H1107 C1119 0.929 . S
H1108 C1122 0.930 . S
H1109 C1124 0.960 . S
H1110 C1124 0.960 . S
H1111 C1124 0.960 . S
C1112 H1104 0.929 . S
C1112 C1113 1.377 1_556 S
C1112 C1114 1.384 . S
C1113 C1112 1.377 1_554 S
C1113 C1119 1.390 . S
C1114 H1105 0.930 . S
C1114 C1112 1.384 . S
C1114 C1115 1.372 1_556 S
C1115 C1114 1.372 1_554 S
C1115 C1116 1.400 . S
C1115 C1120 1.490 . S
C1116 H1106 0.930 . S
C1116 C1115 1.400 . S
C1116 C1119 1.386 . S
H1117 C1133 0.930 . S
H1118 C1134 0.931 . S
C1119 H1107 0.929 . S
C1119 C1113 1.390 . S
C1119 C1116 1.386 . S
C1120 C1115 1.490 . S
C1120 C1122 1.395 1_554 S
C1120 C1123 1.403 . S
H1121 C1127 0.930 . S
C1122 H1108 0.930 . S
C1122 C1120 1.395 1_556 S
C1122 C1125 1.403 . S
C1123 C1120 1.403 . S
C1123 C1124 1.524 . S
C1123 C1127 1.400 . S
C1124 H1109 0.960 . S
C1124 H1110 0.960 . S
C1124 H1111 0.960 . S
C1124 C1123 1.524 . S
C1125 C1122 1.403 . S
C1125 C1126 1.392 1_556 S
C1125 C1129 1.495 . S
C1126 C1125 1.392 1_554 S
C1126 C1127 1.385 . S
C1126 C1128 1.478 . S
C1127 H1121 0.930 . S
C1127 C1123 1.400 . S
C1127 C1126 1.385 . S
C1128 C1126 1.478 . S
C1128 C1130 1.381 1_554 S
C1128 C1134 1.383 . S
C1129 C1125 1.495 . S
C1129 H1135 0.959 . S
C1129 H1136 0.961 . S
C1129 H1137 0.960 . S
C1130 C1128 1.381 1_556 S
C1130 C1131 1.394 . S
C1130 H1138 0.930 . S
C1131 C1130 1.394 . S
C1131 C1132 1.383 1_556 S
C1131 H1139 0.929 . S
C1132 C1131 1.383 1_554 S
C1132 C1133 1.377 . S
C1133 H1117 0.930 . S
C1133 C1132 1.377 . S
C1133 C1134 1.379 . S
C1134 H1118 0.931 . S
C1134 C1128 1.383 . S
C1134 C1133 1.379 . S
H1135 C1129 0.959 . S
H1136 C1129 0.961 . S
H1137 C1129 0.960 . S
H1138 C1130 0.930 . S
H1139 C1131 0.929 . S
H1140 C1148 0.929 . S
H1141 C1150 0.930 . S
H1142 C1152 0.929 1_556 S
H1143 C1155 0.929 . S
H1144 C1158 0.930 . S
H1145 C1160 0.960 . S
H1146 C1160 0.960 . S
H1147 C1160 0.960 . S
C1148 H1140 0.929 . S
C1148 C1149 1.377 . S
C1148 C1150 1.384 . S
C1149 C1148 1.377 . S
C1149 C1155 1.390 1_554 S
C1150 H1141 0.930 . S
C1150 C1148 1.384 . S
C1150 C1151 1.372 . S
C1151 C1150 1.372 . S
C1151 C1152 1.409 . S
C1151 C1156 1.490 . S
C1152 H1142 0.929 1_554 S
C1152 C1151 1.409 . S
C1152 C1155 1.377 1_554 S
H1153 C1169 0.928 1_556 S
H1154 C1170 0.931 . S
C1155 H1143 0.929 . S
C1155 C1149 1.390 1_556 S
C1155 C1152 1.377 1_556 S
C1156 C1151 1.490 . S
C1156 C1158 1.395 1_554 S
C1156 C1159 1.403 . S
H1157 C1163 0.930 . S
C1158 H1144 0.930 . S
C1158 C1156 1.395 1_556 S
C1158 C1161 1.403 . S
C1159 C1156 1.403 . S
C1159 C1160 1.524 . S
C1159 C1163 1.400 . S
C1160 H1145 0.960 . S
C1160 H1146 0.960 . S
C1160 H1147 0.960 . S
C1160 C1159 1.524 . S
C1161 C1158 1.403 . S
C1161 C1162 1.392 1_556 S
C1161 C1165 1.495 . S
C1162 C1161 1.392 1_554 S
C1162 C1163 1.385 . S
C1162 C1164 1.478 . S
C1163 H1157 0.930 . S
C1163 C1159 1.400 . S
C1163 C1162 1.385 . S
C1164 C1162 1.478 . S
C1164 C1166 1.381 . S
C1164 C1170 1.383 1_554 S
C1165 C1161 1.495 . S
C1165 H1171 0.959 . S
C1165 H1172 0.961 . S
C1165 H1173 0.960 . S
C1166 C1164 1.381 . S
C1166 C1167 1.394 . S
C1166 H1174 0.930 . S
C1167 C1166 1.394 . S
C1167 C1168 1.383 . S
C1167 H1175 0.929 . S
C1168 C1167 1.383 . S
C1168 C1169 1.383 . S
C1169 H1153 0.928 1_554 S
C1169 C1168 1.383 . S
C1169 C1170 1.374 1_554 S
C1170 H1154 0.931 . S
C1170 C1164 1.383 1_556 S
C1170 C1169 1.374 1_556 S
H1171 C1165 0.959 . S
H1172 C1165 0.961 . S
H1173 C1165 0.960 . S
H1174 C1166 0.930 . S
H1175 C1167 0.929 . S
H1176 C1184 0.929 . S
H1177 C1186 0.930 . S
H1178 C1188 0.930 . S
H1179 C1191 0.929 . S
H1180 C1194 0.930 . S
H1181 C1196 0.960 . S
H1182 C1196 0.960 . S
H1183 C1196 0.960 . S
C1184 H1176 0.929 . S
C1184 C1185 1.377 . S
C1184 C1186 1.384 . S
C1185 C1184 1.377 . S
C1185 C1191 1.390 . S
C1186 H1177 0.930 . S
C1186 C1184 1.384 . S
C1186 C1187 1.372 . S
C1187 C1186 1.372 . S
C1187 C1188 1.400 . S
C1187 C1192 1.490 . S
C1188 H1178 0.930 . S
C1188 C1187 1.400 . S
C1188 C1191 1.386 . S
H1189 C1205 0.930 . S
H1190 C1206 0.931 . S
C1191 H1179 0.929 . S
C1191 C1185 1.390 . S
C1191 C1188 1.386 . S
C1192 C1187 1.490 . S
C1192 C1194 1.395 . S
C1192 C1195 1.403 . S
H1193 C1199 0.930 . S
C1194 H1180 0.930 . S
C1194 C1192 1.395 . S
C1194 C1197 1.403 . S
C1195 C1192 1.403 . S
C1195 C1196 1.524 . S
C1195 C1199 1.400 . S
C1196 H1181 0.960 . S
C1196 H1182 0.960 . S
C1196 H1183 0.960 . S
C1196 C1195 1.524 . S
C1197 C1194 1.403 . S
C1197 C1198 1.392 . S
C1197 C1201 1.495 . S
C1198 C1197 1.392 . S
C1198 C1199 1.385 . S
C1198 C1200 1.478 . S
C1199 H1193 0.930 . S
C1199 C1195 1.400 . S
C1199 C1198 1.385 . S
C1200 C1198 1.478 . S
C1200 C1202 1.381 . S
C1200 C1206 1.383 . S
C1201 C1197 1.495 . S
C1201 H1207 0.959 . S
C1201 H1208 0.961 . S
C1201 H1209 0.960 . S
C1202 C1200 1.381 . S
C1202 C1203 1.394 . S
C1202 H1210 0.930 . S
C1203 C1202 1.394 . S
C1203 C1204 1.383 . S
C1203 H1211 0.929 . S
C1204 C1203 1.383 . S
C1204 C1205 1.377 . S
C1205 H1189 0.930 . S
C1205 C1204 1.377 . S
C1205 C1206 1.379 . S
C1206 H1190 0.931 . S
C1206 C1200 1.383 . S
C1206 C1205 1.379 . S
H1207 C1201 0.959 . S
H1208 C1201 0.961 . S
H1209 C1201 0.960 . S
H1210 C1202 0.930 . S
H1211 C1203 0.929 . S
H1212 C1220 0.929 . S
H1213 C1222 0.930 . S
H1214 C1224 0.930 . S
H1215 C1227 0.929 . S
H1216 C1230 0.930 . S
H1217 C1232 0.960 . S
H1218 C1232 0.960 . S
H1219 C1232 0.960 . S
C1220 H1212 0.929 . S
C1220 C1221 1.377 . S
C1220 C1222 1.384 . S
C1221 C1220 1.377 . S
C1221 C1227 1.390 . S
C1222 H1213 0.930 . S
C1222 C1220 1.384 . S
C1222 C1223 1.372 . S
C1223 C1222 1.372 . S
C1223 C1224 1.400 . S
C1223 C1228 1.490 . S
C1224 H1214 0.930 . S
C1224 C1223 1.400 . S
C1224 C1227 1.386 . S
H1225 C1241 0.930 . S
H1226 C1242 0.931 . S
C1227 H1215 0.929 . S
C1227 C1221 1.390 . S
C1227 C1224 1.386 . S
C1228 C1223 1.490 . S
C1228 C1230 1.395 . S
C1228 C1231 1.403 . S
H1229 C1235 0.930 . S
C1230 H1216 0.930 . S
C1230 C1228 1.395 . S
C1230 C1233 1.403 . S
C1231 C1228 1.403 . S
C1231 C1232 1.524 . S
C1231 C1235 1.400 . S
C1232 H1217 0.960 . S
C1232 H1218 0.960 . S
C1232 H1219 0.960 . S
C1232 C1231 1.524 . S
C1233 C1230 1.403 . S
C1233 C1234 1.392 . S
C1233 C1237 1.495 . S
C1234 C1233 1.392 . S
C1234 C1235 1.385 . S
C1234 C1236 1.478 . S
C1235 H1229 0.930 . S
C1235 C1231 1.400 . S
C1235 C1234 1.385 . S
C1236 C1234 1.478 . S
C1236 C1238 1.381 . S
C1236 C1242 1.383 . S
C1237 C1233 1.495 . S
C1237 H1243 0.959 . S
C1237 H1244 0.961 . S
C1237 H1245 0.960 . S
C1238 C1236 1.381 . S
C1238 C1239 1.394 . S
C1238 H1246 0.930 . S
C1239 C1238 1.394 . S
C1239 C1240 1.383 . S
C1239 H1247 0.929 . S
C1240 C1239 1.383 . S
C1240 C1241 1.377 . S
C1241 H1225 0.930 . S
C1241 C1240 1.377 . S
C1241 C1242 1.379 . S
C1242 H1226 0.931 . S
C1242 C1236 1.383 . S
C1242 C1241 1.379 . S
H1243 C1237 0.959 . S
H1244 C1237 0.961 . S
H1245 C1237 0.960 . S
H1246 C1238 0.930 . S
H1247 C1239 0.929 . S
H1248 C1256 0.929 . S
H1249 C1258 0.930 . S
H1250 C1260 0.930 . S
H1251 C1263 0.929 . S
H1252 C1266 0.930 . S
H1253 C1268 0.960 . S
H1254 C1268 0.960 . S
H1255 C1268 0.960 . S
C1256 H1248 0.929 . S
C1256 C1257 1.377 . S
C1256 C1258 1.384 . S
C1257 C1256 1.377 . S
C1257 C1263 1.390 . S
C1258 H1249 0.930 . S
C1258 C1256 1.384 . S
C1258 C1259 1.372 . S
C1259 C1258 1.372 . S
C1259 C1260 1.400 . S
C1259 C1264 1.490 . S
C1260 H1250 0.930 . S
C1260 C1259 1.400 . S
C1260 C1263 1.386 . S
H1261 C1277 0.930 . S
H1262 C1278 0.931 . S
C1263 H1251 0.929 . S
C1263 C1257 1.390 . S
C1263 C1260 1.386 . S
C1264 C1259 1.490 . S
C1264 C1266 1.395 . S
C1264 C1267 1.403 1_455 S
H1265 C1271 0.930 . S
C1266 H1252 0.930 . S
C1266 C1264 1.395 . S
C1266 C1269 1.403 . S
C1267 C1264 1.403 1_655 S
C1267 C1268 1.524 . S
C1267 C1271 1.400 . S
C1268 H1253 0.960 . S
C1268 H1254 0.960 . S
C1268 H1255 0.960 . S
C1268 C1267 1.524 . S
C1269 C1266 1.403 . S
C1269 C1270 1.392 . S
C1269 C1273 1.495 . S
C1270 C1269 1.392 . S
C1270 C1271 1.385 1_455 S
C1270 C1272 1.478 . S
C1271 H1265 0.930 . S
C1271 C1267 1.400 . S
C1271 C1270 1.385 1_655 S
C1272 C1270 1.478 . S
C1272 C1274 1.381 . S
C1272 C1278 1.383 1_455 S
C1273 C1269 1.495 . S
C1273 H1279 0.959 . S
C1273 H1280 0.961 . S
C1273 H1281 0.960 . S
C1274 C1272 1.381 . S
C1274 C1275 1.394 1_455 S
C1274 H1282 0.930 . S
C1275 C1274 1.394 1_655 S
C1275 C1276 1.383 . S
C1275 H1283 0.929 . S
C1276 C1275 1.383 . S
C1276 C1277 1.377 . S
C1277 H1261 0.930 . S
C1277 C1276 1.377 . S
C1277 C1278 1.379 . S
C1278 H1262 0.931 . S
C1278 C1272 1.383 1_655 S
C1278 C1277 1.379 . S
H1279 C1273 0.959 . S
H1280 C1273 0.961 . S
H1281 C1273 0.960 . S
H1282 C1274 0.930 . S
H1283 C1275 0.929 . S
H1284 C1292 0.929 . S
H1285 C1294 0.930 . S
H1286 C1296 0.930 . S
H1287 C1299 0.929 . S
H1288 C1302 0.930 . S
H1289 C1304 0.960 . S
H1290 C1304 0.960 . S
H1291 C1304 0.960 . S
C1292 H1284 0.929 . S
C1292 C1293 1.377 1_455 S
C1292 C1294 1.384 . S
C1293 C1292 1.377 1_655 S
C1293 C1299 1.390 . S
C1294 H1285 0.930 . S
C1294 C1292 1.384 . S
C1294 C1295 1.372 1_455 S
C1295 C1294 1.372 1_655 S
C1295 C1296 1.400 . S
C1295 C1300 1.490 1_655 S
C1296 H1286 0.930 . S
C1296 C1295 1.400 . S
C1296 C1299 1.386 . S
H1297 C1313 0.930 1_655 S
H1298 C1314 0.931 1_655 S
C1299 H1287 0.929 . S
C1299 C1293 1.390 . S
C1299 C1296 1.386 . S
C1300 C1295 1.490 1_455 S
C1300 C1302 1.395 . S
C1300 C1303 1.403 1_455 S
H1301 C1307 0.930 . S
C1302 H1288 0.930 . S
C1302 C1300 1.395 . S
C1302 C1305 1.403 . S
C1303 C1300 1.403 1_655 S
C1303 C1304 1.524 . S
C1303 C1307 1.400 . S
C1304 H1289 0.960 . S
C1304 H1290 0.960 . S
C1304 H1291 0.960 . S
C1304 C1303 1.524 . S
C1305 C1302 1.403 . S
C1305 C1306 1.392 . S
C1305 C1309 1.495 . S
C1306 C1305 1.392 . S
C1306 C1307 1.385 1_455 S
C1306 C1308 1.478 . S
C1307 H1301 0.930 . S
C1307 C1303 1.400 . S
C1307 C1306 1.385 1_655 S
C1308 C1306 1.478 . S
C1308 C1310 1.381 . S
C1308 C1314 1.383 . S
C1309 C1305 1.495 . S
C1309 H1315 0.959 . S
C1309 H1316 0.961 . S
C1309 H1317 0.960 . S
C1310 C1308 1.381 . S
C1310 C1311 1.394 . S
C1310 H1318 0.930 . S
C1311 C1310 1.394 . S
C1311 C1312 1.383 . S
C1311 H1319 0.929 . S
C1312 C1311 1.383 . S
C1312 C1313 1.377 . S
C1313 H1297 0.930 1_455 S
C1313 C1312 1.377 . S
C1313 C1314 1.379 . S
C1314 H1298 0.931 1_455 S
C1314 C1308 1.383 . S
C1314 C1313 1.379 . S
H1315 C1309 0.959 . S
H1316 C1309 0.961 . S
H1317 C1309 0.960 . S
H1318 C1310 0.930 . S
H1319 C1311 0.929 . S
H1320 C1328 0.929 . S
H1321 C1330 0.930 . S
H1322 C1332 0.930 . S
H1323 C1335 0.929 . S
H1324 C1338 0.930 . S
H1325 C1340 0.960 . S
H1326 C1340 0.960 . S
H1327 C1340 0.960 . S
C1328 H1320 0.929 . S
C1328 C1329 1.377 . S
C1328 C1330 1.384 . S
C1329 C1328 1.377 . S
C1329 C1335 1.390 . S
C1330 H1321 0.930 . S
C1330 C1328 1.384 . S
C1330 C1331 1.372 . S
C1331 C1330 1.372 . S
C1331 C1332 1.400 . S
C1331 C1336 1.490 . S
C1332 H1322 0.930 . S
C1332 C1331 1.400 . S
C1332 C1335 1.386 . S
H1333 C1349 0.930 . S
H1334 C1350 0.931 . S
C1335 H1323 0.929 . S
C1335 C1329 1.390 . S
C1335 C1332 1.386 . S
C1336 C1331 1.490 . S
C1336 C1338 1.395 1_655 S
C1336 C1339 1.403 . S
H1337 C1343 0.930 . S
C1338 H1324 0.930 . S
C1338 C1336 1.395 1_455 S
C1338 C1341 1.403 . S
C1339 C1336 1.403 . S
C1339 C1340 1.524 . S
C1339 C1343 1.400 . S
C1340 H1325 0.960 . S
C1340 H1326 0.960 . S
C1340 H1327 0.960 . S
C1340 C1339 1.524 . S
C1341 C1338 1.403 . S
C1341 C1342 1.392 . S
C1341 C1345 1.495 . S
C1342 C1341 1.392 . S
C1342 C1343 1.385 1_455 S
C1342 C1344 1.478 . S
C1343 H1337 0.930 . S
C1343 C1339 1.400 . S
C1343 C1342 1.385 1_655 S
C1344 C1342 1.478 . S
C1344 C1346 1.381 . S
C1344 C1350 1.383 . S
C1345 C1341 1.495 . S
C1345 H1351 0.959 . S
C1345 H1352 0.961 . S
C1345 H1353 0.960 . S
C1346 C1344 1.381 . S
C1346 C1347 1.394 . S
C1346 H1354 0.930 . S
C1347 C1346 1.394 . S
C1347 C1348 1.383 . S
C1347 H1355 0.929 . S
C1348 C1347 1.383 . S
C1348 C1349 1.377 . S
C1349 H1333 0.930 . S
C1349 C1348 1.377 . S
C1349 C1350 1.379 . S
C1350 H1334 0.931 . S
C1350 C1344 1.383 . S
C1350 C1349 1.379 . S
H1351 C1345 0.959 . S
H1352 C1345 0.961 . S
H1353 C1345 0.960 . S
H1354 C1346 0.930 . S
H1355 C1347 0.929 . S
H1356 C1364 0.929 . S
H1357 C1366 0.930 1_455 S
H1358 C1368 0.930 . S
H1359 C1371 0.929 . S
H1360 C1374 0.930 . S
H1361 C1376 0.960 . S
H1362 C1376 0.960 . S
H1363 C1376 0.960 1_655 S
C1364 H1356 0.929 . S
C1364 C1365 1.377 . S
C1364 C1366 1.384 . S
C1365 C1364 1.377 . S
C1365 C1371 1.390 . S
C1366 H1357 0.930 1_655 S
C1366 C1364 1.384 . S
C1366 C1367 1.372 . S
C1367 C1366 1.372 . S
C1367 C1368 1.400 . S
C1367 C1372 1.490 . S
C1368 H1358 0.930 . S
C1368 C1367 1.400 . S
C1368 C1371 1.386 . S
H1369 C1385 0.930 . S
H1370 C1386 0.931 . S
C1371 H1359 0.929 . S
C1371 C1365 1.390 . S
C1371 C1368 1.386 . S
C1372 C1367 1.490 . S
C1372 C1374 1.395 . S
C1372 C1375 1.403 . S
H1373 C1379 0.930 . S
C1374 H1360 0.930 . S
C1374 C1372 1.395 . S
C1374 C1377 1.403 . S
C1375 C1372 1.403 . S
C1375 C1376 1.524 1_655 S
C1375 C1379 1.400 1_655 S
C1376 H1361 0.960 . S
C1376 H1362 0.960 . S
C1376 H1363 0.960 1_455 S
C1376 C1375 1.524 1_455 S
C1377 C1374 1.403 . S
C1377 C1378 1.392 . S
C1377 C1381 1.495 . S
C1378 C1377 1.392 . S
C1378 C1379 1.385 1_655 S
C1378 C1380 1.478 1_655 S
C1379 H1373 0.930 . S
C1379 C1375 1.400 1_455 S
C1379 C1378 1.385 1_455 S
C1380 C1378 1.478 1_455 S
C1380 C1382 1.381 . S
C1380 C1386 1.383 1_455 S
C1381 C1377 1.495 . S
C1381 H1387 0.959 . S
C1381 H1388 0.961 . S
C1381 H1389 0.960 . S
C1382 C1380 1.381 . S
C1382 C1383 1.394 . S
C1382 H1390 0.930 . S
C1383 C1382 1.394 . S
C1383 C1384 1.383 . S
C1383 H1391 0.929 . S
C1384 C1383 1.383 . S
C1384 C1385 1.377 1_455 S
C1385 H1369 0.930 . S
C1385 C1384 1.377 1_655 S
C1385 C1386 1.379 . S
C1386 H1370 0.931 . S
C1386 C1380 1.383 1_655 S
C1386 C1385 1.379 . S
H1387 C1381 0.959 . S
H1388 C1381 0.961 . S
H1389 C1381 0.960 . S
H1390 C1382 0.930 . S
H1391 C1383 0.929 . S
H1392 C1400 0.929 . S
H1393 C1402 0.930 . S
H1394 C1404 0.930 . S
H1395 C1407 0.929 . S
H1396 C1410 0.930 . S
H1397 C1412 0.960 . S
H1398 C1412 0.960 . S
H1399 C1412 0.960 . S
C1400 H1392 0.929 . S
C1400 C1401 1.377 . S
C1400 C1402 1.384 . S
C1401 C1400 1.377 . S
C1401 C1407 1.390 . S
C1402 H1393 0.930 . S
C1402 C1400 1.384 . S
C1402 C1403 1.372 . S
C1403 C1402 1.372 . S
C1403 C1404 1.400 . S
C1403 C1408 1.490 . S
C1404 H1394 0.930 . S
C1404 C1403 1.400 . S
C1404 C1407 1.386 . S
H1405 C1421 0.930 . S
H1406 C1422 0.931 . S
C1407 H1395 0.929 . S
C1407 C1401 1.390 . S
C1407 C1404 1.386 . S
C1408 C1403 1.490 . S
C1408 C1410 1.395 . S
C1408 C1411 1.403 . S
H1409 C1415 0.930 . S
C1410 H1396 0.930 . S
C1410 C1408 1.395 . S
C1410 C1413 1.403 . S
C1411 C1408 1.403 . S
C1411 C1412 1.524 . S
C1411 C1415 1.400 . S
C1412 H1397 0.960 . S
C1412 H1398 0.960 . S
C1412 H1399 0.960 . S
C1412 C1411 1.524 . S
C1413 C1410 1.403 . S
C1413 C1414 1.392 . S
C1413 C1417 1.495 . S
C1414 C1413 1.392 . S
C1414 C1415 1.385 . S
C1414 C1416 1.478 . S
C1415 H1409 0.930 . S
C1415 C1411 1.400 . S
C1415 C1414 1.385 . S
C1416 C1414 1.478 . S
C1416 C1418 1.381 . S
C1416 C1422 1.383 . S
C1417 C1413 1.495 . S
C1417 H1423 0.959 . S
C1417 H1424 0.961 . S
C1417 H1425 0.960 . S
C1418 C1416 1.381 . S
C1418 C1419 1.394 . S
C1418 H1426 0.930 . S
C1419 C1418 1.394 . S
C1419 C1420 1.383 . S
C1419 H1427 0.929 . S
C1420 C1419 1.383 . S
C1420 C1421 1.377 . S
C1421 H1405 0.930 . S
C1421 C1420 1.377 . S
C1421 C1422 1.379 . S
C1422 H1406 0.931 . S
C1422 C1416 1.383 . S
C1422 C1421 1.379 . S
H1423 C1417 0.959 . S
H1424 C1417 0.961 . S
H1425 C1417 0.960 . S
H1426 C1418 0.930 . S
H1427 C1419 0.929 . S
H1428 C1436 0.929 . S
H1429 C1438 0.930 . S
H1430 C1440 0.930 . S
H1431 C1443 0.929 . S
H1432 C1446 0.930 . S
H1433 C1448 0.960 . S
H1434 C1448 0.960 . S
H1435 C1448 0.960 . S
C1436 H1428 0.929 . S
C1436 C1437 1.377 . S
C1436 C1438 1.384 . S
C1437 C1436 1.377 . S
C1437 C1443 1.390 . S
C1438 H1429 0.930 . S
C1438 C1436 1.384 . S
C1438 C1439 1.372 . S
C1439 C1438 1.372 . S
C1439 C1440 1.400 . S
C1439 C1444 1.490 . S
C1440 H1430 0.930 . S
C1440 C1439 1.400 . S
C1440 C1443 1.386 . S
H1441 C1457 0.930 . S
H1442 C1458 0.931 . S
C1443 H1431 0.929 . S
C1443 C1437 1.390 . S
C1443 C1440 1.386 . S
C1444 C1439 1.490 . S
C1444 C1446 1.395 . S
C1444 C1447 1.403 . S
H1445 C1451 0.930 . S
C1446 H1432 0.930 . S
C1446 C1444 1.395 . S
C1446 C1449 1.403 . S
C1447 C1444 1.403 . S
C1447 C1448 1.524 . S
C1447 C1451 1.400 . S
C1448 H1433 0.960 . S
C1448 H1434 0.960 . S
C1448 H1435 0.960 . S
C1448 C1447 1.524 . S
C1449 C1446 1.403 . S
C1449 C1450 1.392 . S
C1449 C1453 1.495 . S
C1450 C1449 1.392 . S
C1450 C1451 1.385 . S
C1450 C1452 1.478 . S
C1451 H1445 0.930 . S
C1451 C1447 1.400 . S
C1451 C1450 1.385 . S
C1452 C1450 1.478 . S
C1452 C1454 1.381 . S
C1452 C1458 1.383 . S
C1453 C1449 1.495 . S
C1453 H1459 0.959 . S
C1453 H1460 0.961 . S
C1453 H1461 0.960 . S
C1454 C1452 1.381 . S
C1454 C1455 1.394 . S
C1454 H1462 0.930 . S
C1455 C1454 1.394 . S
C1455 C1456 1.383 . S
C1455 H1463 0.929 . S
C1456 C1455 1.383 . S
C1456 C1457 1.377 . S
C1457 H1441 0.930 . S
C1457 C1456 1.377 . S
C1457 C1458 1.379 . S
C1458 H1442 0.931 . S
C1458 C1452 1.383 . S
C1458 C1457 1.379 . S
H1459 C1453 0.959 . S
H1460 C1453 0.961 . S
H1461 C1453 0.960 . S
H1462 C1454 0.930 . S
H1463 C1455 0.929 . S
H1464 C1472 0.929 . S
H1465 C1474 0.930 . S
H1466 C1476 0.930 . S
H1467 C1479 0.929 . S
H1468 C1482 0.930 . S
H1469 C1484 0.960 . S
H1470 C1484 0.960 . S
H1471 C1484 0.960 . S
C1472 H1464 0.929 . S
C1472 C1473 1.377 . S
C1472 C1474 1.384 . S
C1473 C1472 1.377 . S
C1473 C1479 1.390 . S
C1474 H1465 0.930 . S
C1474 C1472 1.384 . S
C1474 C1475 1.372 . S
C1475 C1474 1.372 . S
C1475 C1476 1.400 . S
C1475 C1480 1.490 . S
C1476 H1466 0.930 . S
C1476 C1475 1.400 . S
C1476 C1479 1.386 . S
H1477 C1493 0.930 . S
H1478 C1494 0.931 . S
C1479 H1467 0.929 . S
C1479 C1473 1.390 . S
C1479 C1476 1.386 . S
C1480 C1475 1.490 . S
C1480 C1482 1.395 . S
C1480 C1483 1.403 . S
H1481 C1487 0.930 . S
C1482 H1468 0.930 . S
C1482 C1480 1.395 . S
C1482 C1485 1.403 . S
C1483 C1480 1.403 . S
C1483 C1484 1.524 . S
C1483 C1487 1.400 . S
C1484 H1469 0.960 . S
C1484 H1470 0.960 . S
C1484 H1471 0.960 . S
C1484 C1483 1.524 . S
C1485 C1482 1.403 . S
C1485 C1486 1.392 . S
C1485 C1489 1.495 . S
C1486 C1485 1.392 . S
C1486 C1487 1.385 . S
C1486 C1488 1.478 . S
C1487 H1481 0.930 . S
C1487 C1483 1.400 . S
C1487 C1486 1.385 . S
C1488 C1486 1.478 . S
C1488 C1490 1.381 . S
C1488 C1494 1.383 . S
C1489 C1485 1.495 . S
C1489 H1495 0.959 . S
C1489 H1496 0.961 . S
C1489 H1497 0.960 . S
C1490 C1488 1.381 . S
C1490 C1491 1.394 . S
C1490 H1498 0.930 . S
C1491 C1490 1.394 . S
C1491 C1492 1.383 . S
C1491 H1499 0.929 . S
C1492 C1491 1.383 . S
C1492 C1493 1.377 . S
C1493 H1477 0.930 . S
C1493 C1492 1.377 . S
C1493 C1494 1.379 . S
C1494 H1478 0.931 . S
C1494 C1488 1.383 . S
C1494 C1493 1.379 . S
H1495 C1489 0.959 . S
H1496 C1489 0.961 . S
H1497 C1489 0.960 . S
H1498 C1490 0.930 . S
H1499 C1491 0.929 . S
H1500 C1508 0.929 . S
H1501 C1510 0.930 . S
H1502 C1512 0.930 . S
H1503 C1515 0.929 . S
H1504 C1518 0.930 . S
H1505 C1520 0.960 . S
H1506 C1520 0.960 . S
H1507 C1520 0.960 . S
C1508 H1500 0.929 . S
C1508 C1509 1.377 . S
C1508 C1510 1.384 . S
C1509 C1508 1.377 . S
C1509 C1515 1.390 . S
C1510 H1501 0.930 . S
C1510 C1508 1.384 . S
C1510 C1511 1.372 . S
C1511 C1510 1.372 . S
C1511 C1512 1.400 . S
C1511 C1516 1.490 . S
C1512 H1502 0.930 . S
C1512 C1511 1.400 . S
C1512 C1515 1.386 . S
H1513 C1529 0.930 . S
H1514 C1530 0.931 . S
C1515 H1503 0.929 . S
C1515 C1509 1.390 . S
C1515 C1512 1.386 . S
C1516 C1511 1.490 . S
C1516 C1518 1.395 . S
C1516 C1519 1.403 . S
H1517 C1523 0.930 . S
C1518 H1504 0.930 . S
C1518 C1516 1.395 . S
C1518 C1521 1.403 . S
C1519 C1516 1.403 . S
C1519 C1520 1.524 . S
C1519 C1523 1.400 . S
C1520 H1505 0.960 . S
C1520 H1506 0.960 . S
C1520 H1507 0.960 . S
C1520 C1519 1.524 . S
C1521 C1518 1.403 . S
C1521 C1522 1.392 . S
C1521 C1525 1.495 . S
C1522 C1521 1.392 . S
C1522 C1523 1.385 . S
C1522 C1524 1.478 . S
C1523 H1517 0.930 . S
C1523 C1519 1.400 . S
C1523 C1522 1.385 . S
C1524 C1522 1.478 . S
C1524 C1526 1.381 . S
C1524 C1530 1.383 . S
C1525 C1521 1.495 . S
C1525 H1531 0.959 . S
C1525 H1532 0.961 . S
C1525 H1533 0.960 . S
C1526 C1524 1.381 . S
C1526 C1527 1.394 . S
C1526 H1534 0.930 . S
C1527 C1526 1.394 . S
C1527 C1528 1.383 . S
C1527 H1535 0.929 . S
C1528 C1527 1.383 . S
C1528 C1529 1.377 . S
C1529 H1513 0.930 . S
C1529 C1528 1.377 . S
C1529 C1530 1.379 . S
C1530 H1514 0.931 . S
C1530 C1524 1.383 . S
C1530 C1529 1.379 . S
H1531 C1525 0.959 . S
H1532 C1525 0.961 . S
H1533 C1525 0.960 . S
H1534 C1526 0.930 . S
H1535 C1527 0.929 . S
C681 C67 2.100 . S
C700 C56 2.084 . S
C717 C151 2.102 . S
C736 C140 2.097 . S
C753 C224 2.099 . S
C772 C235 2.080 . S
C789 C308 2.100 . S
C808 C319 2.084 . S
C825 C403 2.102 . S
C844 C392 2.093 . S
C861 C476 2.095 . S
C880 C487 2.092 . S
C897 C560 2.102 . S
C916 C571 2.099 . S
C933 C655 2.097 . S
C952 C644 2.077 . S
C969 C154 1.738 1_554 S
C988 C58 1.768 . S
C1005 C322 1.736 . S
C1024 C226 1.706 . S
C1041 C394 1.739 . S
C1060 C490 1.766 1_554 S
C1077 C562 1.724 . S
C1096 C658 1.711 . S
C1113 C70 1.384 1_554 S
C1132 C478 1.406 . S
C1149 C406 1.396 1_554 S
C1168 C142 1.431 . S
C1185 C238 1.397 . S
C1204 C646 1.378 . S
C1221 C310 1.393 . S
C1240 C574 1.359 . S
C1257 C74 1.519 . S
C1276 C326 1.604 . S
C1293 C158 1.597 . S
C1312 C242 1.544 . S
C1329 C147 1.528 . S
C1348 C231 1.578 . S
C1365 C315 1.516 . S
C1384 C63 1.602 . S
C1401 C410 1.526 . S
C1420 C662 1.580 . S
C1437 C494 1.594 . S
C1456 C578 1.490 . S
C1473 C483 1.516 . S
C1492 C567 1.606 . S
C1509 C651 1.529 . S
C1528 C399 1.578 . S
