# Generated by pormake.
# Topology eci, (8)-cn, num edge types: 1
# Building blocks:
#     Node 0, Type 0, BuildingBlock: TAGTUT_clean_sbu_3, # of connection points: 8
#     Node 1, Type 0, BuildingBlock: TAGTUT_clean_sbu_3, # of connection points: 8
#     Node 2, Type 0, BuildingBlock: TAGTUT_clean_sbu_3, # of connection points: 8
#     Node 3, Type 0, BuildingBlock: TAGTUT_clean_sbu_3, # of connection points: 8
#     Edge 4, Type (0, 0), BuildingBlock: FUNLAD_clean_linker_1, # of connection points: 2
#     Edge 5, Type (0, 0), BuildingBlock: FUNLAD_clean_linker_1, # of connection points: 2
#     Edge 6, Type (0, 0), BuildingBlock: FUNLAD_clean_linker_1, # of connection points: 2
#     Edge 7, Type (0, 0), BuildingBlock: FUNLAD_clean_linker_1, # of connection points: 2
#     Edge 8, Type (0, 0), BuildingBlock: FUNLAD_clean_linker_1, # of connection points: 2
#     Edge 9, Type (0, 0), BuildingBlock: FUNLAD_clean_linker_1, # of connection points: 2
#     Edge 10, Type (0, 0), BuildingBlock: FUNLAD_clean_linker_1, # of connection points: 2
#     Edge 11, Type (0, 0), BuildingBlock: FUNLAD_clean_linker_1, # of connection points: 2
#     Edge 12, Type (0, 0), BuildingBlock: FUNLAD_clean_linker_1, # of connection points: 2
#     Edge 13, Type (0, 0), BuildingBlock: FUNLAD_clean_linker_1, # of connection points: 2
#     Edge 14, Type (0, 0), BuildingBlock: FUNLAD_clean_linker_1, # of connection points: 2
#     Edge 15, Type (0, 0), BuildingBlock: FUNLAD_clean_linker_1, # of connection points: 2
#     Edge 16, Type (0, 0), BuildingBlock: FUNLAD_clean_linker_1, # of connection points: 2
#     Edge 17, Type (0, 0), BuildingBlock: FUNLAD_clean_linker_1, # of connection points: 2
#     Edge 18, Type (0, 0), BuildingBlock: FUNLAD_clean_linker_1, # of connection points: 2
#     Edge 19, Type (0, 0), BuildingBlock: FUNLAD_clean_linker_1, # of connection points: 2
# Relax obj value: 0.303
# Max RMSD: 0.269
# Mean RMSD: 0.266
data_MOF--net-eci--node1-TAGTUT_clean_sbu_3--edge1-FUNLAD_clean_linker_1
_symmetry_space_group_name_H-M    P1
_symmetry_Int_Tables_number       1
_symmetry_cell_setting            triclinic
loop_
_symmetry_equiv_pos_as_xyz
'x, y, z'
_cell_length_a     33.016775
_cell_length_b     33.417572
_cell_length_c     16.544149
_cell_angle_alpha  87.995402
_cell_angle_beta   89.785475
_cell_angle_gamma 90.31055
loop_
_atom_site_label
_atom_site_type_symbol
_atom_site_fract_x
_atom_site_fract_y
_atom_site_fract_z
_atom_type_partial_charge
C0 C 0.76789 0.87518 0.03173 0.0
C1 C 0.66738 0.764 0.95823 0.0
C2 C 0.77293 0.68339 0.00221 0.0
Mg3 Mg 0.86178 0.88296 0.01013 0.0
Mg4 Mg 0.91573 0.83499 0.88038 0.0
O5 O 0.87924 0.83031 0.96724 0.0
Mg6 Mg 0.82415 0.80646 0.95264 0.0
O7 O 0.76699 0.7871 0.94566 0.0
Mg8 Mg 0.75354 0.77878 0.06396 0.0
Mg9 Mg 0.75027 0.7484 0.87493 0.0
C10 C 0.88892 0.74359 0.87358 0.0
O11 O 0.82366 0.81946 0.81674 0.0
O12 O 0.92901 0.89414 0.03154 0.0
O13 O 0.78061 0.7734 0.76802 0.0
O14 O 0.86746 0.91786 0.88843 0.0
O15 O 0.96644 0.85781 0.94744 0.0
O16 O 0.89588 0.88041 0.7954 0.0
O17 O 0.82195 0.79126 0.0872 0.0
O18 O 0.85489 0.84596 0.12756 0.0
C19 C 0.83734 0.81218 0.14294 0.0
C20 C 0.96331 0.8823 0.00493 0.0
O21 O 0.85707 0.74745 0.91812 0.0
O22 O 0.68572 0.77165 0.02451 0.0
O23 O 0.91161 0.77317 0.85062 0.0
O24 O 0.76536 0.70833 0.05785 0.0
O25 O 0.68622 0.75444 0.894 0.0
O26 O 0.77146 0.69355 0.92739 0.0
O27 O 0.79676 0.86577 -0.01538 0.0
O28 O 0.74558 0.84822 0.06715 0.0
C29 C 0.8793 0.91282 0.81592 0.0
C30 C 0.80688 0.80169 0.75814 0.0
C31 C 0.61755 0.24777 0.27886 0.0
C32 C 0.74624 0.16599 0.2334 0.0
C33 C 0.8141 0.27524 0.29225 0.0
Mg34 Mg 0.59609 0.33931 0.26085 0.0
Mg35 Mg 0.6425 0.4033 0.13739 0.0
O36 O 0.64796 0.36342 0.21827 0.0
Mg37 Mg 0.68318 0.31536 0.21065 0.0
O38 O 0.71392 0.26356 0.21307 0.0
Mg39 Mg 0.71461 0.24793 0.33168 0.0
Mg40 Mg 0.75947 0.25049 0.15321 0.0
C41 C 0.73791 0.3941 0.14417 0.0
O42 O 0.68273 0.31296 0.06666 0.0
O43 O 0.57816 0.40377 0.29171 0.0
O44 O 0.74018 0.27854 0.04096 0.0
O45 O 0.5625 0.34708 0.13872 0.0
O46 O 0.61612 0.44643 0.2145 0.0
O47 O 0.5966 0.3875 0.05236 0.0
O48 O 0.69068 0.31296 0.35198 0.0
O49 O 0.6276 0.33161 0.38175 0.0
C50 C 0.66304 0.32102 0.40387 0.0
C51 C 0.59043 0.43931 0.27134 0.0
O52 O 0.73711 0.3617 0.18955 0.0
O53 O 0.73233 0.18296 0.29617 0.0
O54 O 0.70619 0.40907 0.11044 0.0
O55 O 0.78491 0.26612 0.34162 0.0
O56 O 0.75781 0.18609 0.17002 0.0
O57 O 0.80968 0.27437 0.21591 0.0
O58 O 0.62414 0.27824 0.23135 0.0
O59 O 0.6464 0.23127 0.3194 0.0
C60 C 0.5658 0.36568 0.07027 0.0
C61 C 0.70963 0.29937 0.01751 0.0
C62 C 0.16266 0.18237 0.31694 0.0
C63 C 0.08804 0.05449 0.41337 0.0
C64 C 0.06803 0.11471 0.63558 0.0
Mg65 Mg 0.2081 0.2521 0.41428 0.0
Mg66 Mg 0.26081 0.22884 0.57959 0.0
O67 O 0.21113 0.22592 0.52641 0.0
Mg68 Mg 0.18227 0.17399 0.51057 0.0
O69 O 0.1484 0.12586 0.48502 0.0
Mg70 Mg 0.09582 0.15185 0.45183 0.0
Mg71 Mg 0.14237 0.0808 0.55295 0.0
C72 C 0.21056 0.17117 0.70182 0.0
O73 O 0.23847 0.1299 0.52337 0.0
O74 O 0.22795 0.31137 0.47468 0.0
O75 O 0.20594 0.07416 0.5732 0.0
O76 O 0.27647 0.23833 0.38715 0.0
O77 O 0.26056 0.29286 0.58962 0.0
O78 O 0.30893 0.21507 0.497 0.0
O79 O 0.12312 0.20874 0.50316 0.0
O80 O 0.13901 0.26587 0.43796 0.0
C81 C 0.11285 0.24271 0.47331 0.0
C82 C 0.24637 0.31974 0.54057 0.0
O83 O 0.18143 0.16531 0.6515 0.0
O84 O 0.07621 0.09081 0.40297 0.0
O85 O 0.24353 0.18991 0.68264 0.0
O86 O 0.06347 0.13639 0.57148 0.0
O87 O 0.11427 0.04375 0.46645 0.0
O88 O 0.09878 0.09217 0.64597 0.0
O89 O 0.18825 0.18869 0.37306 0.0
O90 O 0.12763 0.16758 0.33232 0.0
C91 C 0.30854 0.22486 0.42173 0.0
C92 C 0.23843 0.09349 0.55334 0.0
C93 C 0.32697 0.67014 0.56725 0.0
C94 C 0.43893 0.58107 0.68591 0.0
C95 C 0.36288 0.55922 0.88588 0.0
Mg96 Mg 0.25121 0.71603 0.64148 0.0
Mg97 Mg 0.24798 0.75019 0.82664 0.0
O98 O 0.26179 0.70819 0.7606 0.0
Mg99 Mg 0.31433 0.67801 0.75825 0.0
O100 O 0.36396 0.64396 0.74386 0.0
Mg101 Mg 0.33903 0.59494 0.69757 0.0
Mg102 Mg 0.4052 0.63441 0.81763 0.0
C103 C 0.29365 0.6893 0.94972 0.0
O104 O 0.35761 0.73054 0.79577 0.0
O105 O 0.18536 0.73319 0.67334 0.0
O106 O 0.41107 0.69598 0.84793 0.0
O107 O 0.27196 0.78309 0.64345 0.0
O108 O 0.18295 0.74809 0.80478 0.0
O109 O 0.27568 0.80322 0.77068 0.0
O110 O 0.27754 0.62254 0.72649 0.0
O111 O 0.23207 0.64981 0.64195 0.0
C112 C 0.24778 0.61915 0.67777 0.0
C113 C 0.16549 0.74148 0.73732 0.0
O114 O 0.30785 0.66703 0.89465 0.0
O115 O 0.40225 0.57343 0.66722 0.0
O116 O 0.27368 0.72171 0.93484 0.0
O117 O 0.34483 0.55679 0.81772 0.0
O118 O 0.44855 0.60602 0.73974 0.0
O119 O 0.38394 0.58978 0.90325 0.0
O120 O 0.31683 0.69331 0.62367 0.0
O121 O 0.33662 0.63351 0.58175 0.0
C122 C 0.28035 0.8098 0.69465 0.0
C123 C 0.39221 0.72885 0.83208 0.0
H124 H 0.80502 0.7831 0.24591 0.0
C125 C 0.83235 0.79937 0.22774 0.0
H126 H 0.88721 0.82595 0.26314 0.0
H127 H 0.81436 0.8792 0.59429 0.0
H128 H 0.84171 0.94094 0.53564 0.0
H129 H 0.87265 0.94281 0.39969 0.0
H130 H 0.87555 0.88323 0.32137 0.0
C131 C 0.85968 0.81042 0.28275 0.0
C132 C 0.85035 0.80739 0.37031 0.0
C133 C 0.84896 0.84285 0.41502 0.0
C134 C 0.83233 0.84153 0.49434 0.0
C135 C 0.82881 0.87781 0.53579 0.0
C136 C 0.84396 0.91369 0.50238 0.0
C137 C 0.8613 0.91476 0.42582 0.0
C138 C 0.86286 0.88013 0.38155 0.0
H139 H 0.8515 0.82527 0.66967 0.0
C140 C 0.82162 0.81166 0.67641 0.0
H141 H 0.77072 0.78801 0.61794 0.0
H142 H 0.85983 0.73306 0.30844 0.0
H143 H 0.8401 0.66957 0.37298 0.0
H144 H 0.81063 0.66695 0.51035 0.0
H145 H 0.80095 0.72758 0.58384 0.0
C146 C 0.80032 0.80217 0.61107 0.0
C147 C 0.81878 0.80442 0.5294 0.0
C148 C 0.82357 0.76853 0.48712 0.0
C149 C 0.83984 0.77 0.40768 0.0
C150 C 0.846 0.73369 0.36776 0.0
C151 C 0.83526 0.69701 0.40447 0.0
C152 C 0.81872 0.69554 0.4818 0.0
C153 C 0.8131 0.7307 0.52313 0.0
H154 H 0.64095 0.30024 0.52257 0.0
C155 C 0.66765 0.31224 0.49127 0.0
H156 H 0.72396 0.3408 0.50679 0.0
H157 H 0.67762 0.39851 0.85697 0.0
H158 H 0.68846 0.46131 0.78158 0.0
H159 H 0.70163 0.46224 0.63465 0.0
H160 H 0.7042 0.40052 0.56209 0.0
C161 C 0.69864 0.32513 0.53595 0.0
C162 C 0.69463 0.32435 0.62646 0.0
C163 C 0.69282 0.36085 0.66804 0.0
C164 C 0.68482 0.36042 0.75294 0.0
C165 C 0.68357 0.39721 0.79274 0.0
C166 C 0.6897 0.43345 0.7502 0.0
C167 C 0.69716 0.43396 0.66746 0.0
C168 C 0.69855 0.39824 0.6265 0.0
H169 H 0.73268 0.29471 0.89454 0.0
C170 C 0.70725 0.30606 0.92887 0.0
H171 H 0.65067 0.33525 0.91788 0.0
H172 H 0.7017 0.24871 0.56951 0.0
H173 H 0.68793 0.1863 0.64394 0.0
H174 H 0.66758 0.18607 0.7876 0.0
H175 H 0.66183 0.24825 0.85808 0.0
C176 C 0.67646 0.32255 0.88711 0.0
C177 C 0.67862 0.3236 0.79646 0.0
C178 C 0.67941 0.28721 0.75452 0.0
C179 C 0.68879 0.28748 0.6704 0.0
C180 C 0.69259 0.25041 0.63216 0.0
C181 C 0.68513 0.21431 0.67437 0.0
C182 C 0.67386 0.21417 0.75532 0.0
C183 C 0.67099 0.25007 0.7952 0.0
H184 H 0.23392 0.14906 0.81886 0.0
C185 C 0.20648 0.15845 0.78751 0.0
H186 H 0.14629 0.17804 0.8018 0.0
H187 H 0.12121 0.10968 0.15992 0.0
H188 H 0.0772 0.06566 0.08711 0.0
H189 H 0.07987 0.06422 0.93841 0.0
H190 H 0.12322 0.11026 0.86084 0.0
C191 C 0.17364 0.16719 0.83139 0.0
C192 C 0.17506 0.16555 0.92174 0.0
C193 C 0.15004 0.13811 0.96612 0.0
C194 C 0.1509 0.13682 0.05224 0.0
C195 C 0.12341 0.11087 0.09467 0.0
C196 C 0.0977 0.08551 0.05358 0.0
C197 C 0.0988 0.08505 0.96977 0.0
C198 C 0.12413 0.11137 0.92611 0.0
H199 H 0.17068 0.21968 0.20537 0.0
C200 C 0.1736 0.18958 0.23156 0.0
H201 H 0.18114 0.12837 0.21281 0.0
H202 H 0.22196 0.22702 0.85724 0.0
H203 H 0.27103 0.26651 0.92862 0.0
H204 H 0.28099 0.25602 0.07552 0.0
H205 H 0.24075 0.20713 0.15217 0.0
C206 C 0.17996 0.1582 0.18442 0.0
C207 C 0.17864 0.16134 0.09407 0.0
C208 C 0.2048 0.18779 0.04936 0.0
C209 C 0.20149 0.19139 0.9636 0.0
C210 C 0.22499 0.22108 0.92156 0.0
C211 C 0.25307 0.24427 0.96193 0.0
C212 C 0.2585 0.23853 0.04467 0.0
C213 C 0.23482 0.21063 0.08814 0.0
H214 H 0.3195 0.65067 0.04684 0.0
C215 C 0.30213 0.67771 0.03412 0.0
H216 H 0.27427 0.72839 0.08331 0.0
H217 H 0.29031 0.60369 0.40236 0.0
H218 H 0.24115 0.56222 0.3357 0.0
H219 H 0.21829 0.57965 0.19706 0.0
H220 H 0.24485 0.6384 0.12438 0.0
C221 C 0.29027 0.70045 0.0949 0.0
C222 C 0.30255 0.6905 0.17874 0.0
C223 C 0.28608 0.65632 0.22032 0.0
C224 C 0.29877 0.64663 0.30029 0.0
C225 C 0.28196 0.61236 0.3411 0.0
C226 C 0.25354 0.58835 0.30367 0.0
C227 C 0.24073 0.59813 0.22565 0.0
C228 C 0.25648 0.63182 0.18436 0.0
H229 H 0.30717 0.71184 0.46908 0.0
C230 C 0.32347 0.68426 0.48288 0.0
H231 H 0.35392 0.63442 0.43631 0.0
H232 H 0.34044 0.75766 0.11408 0.0
H233 H 0.39048 0.79844 0.18041 0.0
H234 H 0.41275 0.78124 0.31948 0.0
H235 H 0.38486 0.72322 0.39312 0.0
C236 C 0.3381 0.66233 0.42316 0.0
C237 C 0.32715 0.6716 0.33844 0.0
C238 C 0.34393 0.70549 0.29669 0.0
C239 C 0.33138 0.71513 0.21657 0.0
C240 C 0.34867 0.74906 0.17548 0.0
C241 C 0.37749 0.77271 0.21278 0.0
C242 C 0.39004 0.76302 0.29105 0.0
C243 C 0.37364 0.72976 0.33277 0.0
H244 H 0.39548 0.78891 0.88679 0.0
C245 C 0.41272 0.76545 0.85894 0.0
H246 H 0.46966 0.74217 0.82887 0.0
H247 H 0.60615 0.84936 0.88976 0.0
H248 H 0.58888 0.88222 0.76052 0.0
H249 H 0.52113 0.87312 0.70072 0.0
H250 H 0.47001 0.83123 0.77047 0.0
C251 C 0.4535 0.7653 0.8604 0.0
C252 C 0.47965 0.78967 0.91239 0.0
C253 C 0.50839 0.81509 0.87328 0.0
C254 C 0.54744 0.81987 0.90729 0.0
C255 C 0.5762 0.84439 0.86548 0.0
C256 C 0.56659 0.86344 0.79173 0.0
C257 C 0.52841 0.85833 0.75805 0.0
C258 C 0.49953 0.83428 0.79808 0.0
H259 H 0.60874 0.75616 0.89906 0.0
C260 C 0.62313 0.76871 0.95163 0.0
H261 H 0.61407 0.80476 0.05316 0.0
H262 H 0.427 0.74954 0.01441 0.0
H263 H 0.4425 0.72074 0.14779 0.0
H264 H 0.51046 0.72876 0.20687 0.0
H265 H 0.5637 0.76507 0.13212 0.0
C266 C 0.60083 0.79134 0.00048 0.0
C267 C 0.55749 0.79883 -0.01971 0.0
C268 C 0.52647 0.7795 0.02637 0.0
C269 C 0.48725 0.77505 -0.00763 0.0
C270 C 0.4573 0.75352 0.03737 0.0
C271 C 0.46576 0.73712 0.11407 0.0
C272 C 0.50408 0.7416 0.14732 0.0
C273 C 0.53431 0.76237 0.104 0.0
H274 H 0.72658 0.10572 0.27751 0.0
C275 C 0.74462 0.12167 0.23157 0.0
H276 H 0.77928 0.11735 0.12526 0.0
H277 H 0.75847 0.92587 0.25849 0.0
H278 H 0.78537 0.94586 0.38679 0.0
H279 H 0.80292 0.01643 0.40952 0.0
H280 H 0.79037 0.06788 0.30601 0.0
C281 C 0.76193 0.10116 0.17194 0.0
C282 C 0.75337 0.05772 0.1595 0.0
C283 C 0.76323 0.02771 0.21915 0.0
C284 C 0.75562 0.98654 0.20429 0.0
C285 C 0.76423 0.95742 0.26592 0.0
C286 C 0.78012 0.96844 0.33972 0.0
C287 C 0.78952 0.00823 0.35275 0.0
C288 C 0.78166 0.03758 0.29307 0.0
H289 H 0.78414 0.93893 0.01843 0.0
C290 C 0.76419 0.9179 0.05098 0.0
H291 H 0.72028 0.91127 0.14377 0.0
H292 H 0.72689 0.10718 0.03485 0.0
H293 H 0.69685 0.08696 0.90941 0.0
H294 H 0.6856 0.01558 0.88309 0.0
H295 H 0.70434 0.96399 -0.01759 0.0
C296 C 0.73933 0.9318 0.10803 0.0
C297 C 0.74058 0.97512 0.12825 0.0
C298 C 0.72933 0.00508 0.06992 0.0
C299 C 0.73569 0.0463 0.08546 0.0
C300 C 0.72353 0.07542 0.02615 0.0
C301 C 0.70596 0.06425 0.95386 0.0
C302 C 0.69965 0.02407 0.93901 0.0
C303 C 0.71092 -0.00526 -0.00373 0.0
H304 H 0.34542 0.23266 0.31002 0.0
C305 C 0.34688 0.22497 0.37433 0.0
H306 H 0.38558 0.21402 0.47413 0.0
H307 H 0.53387 0.17509 0.23635 0.0
H308 H 0.50607 0.10783 0.24882 0.0
H309 H 0.43995 0.09508 0.31502 0.0
H310 H 0.40089 0.14973 0.36819 0.0
C311 C 0.38342 0.22074 0.40959 0.0
C312 C 0.42216 0.22872 0.36445 0.0
C313 C 0.44515 0.19654 0.33527 0.0
C314 C 0.48393 0.20381 0.29912 0.0
C315 C 0.50514 0.17117 0.26724 0.0
C316 C 0.48933 0.13243 0.27334 0.0
C317 C 0.45206 0.12525 0.31047 0.0
C318 C 0.43002 0.15684 0.34094 0.0
H319 H 0.57118 0.21465 0.35125 0.0
C320 C 0.57539 0.2357 0.30028 0.0
H321 H 0.54638 0.27279 0.21296 0.0
H322 H 0.38534 0.29752 0.41021 0.0
H323 H 0.41257 0.36497 0.39665 0.0
H324 H 0.48026 0.37753 0.33714 0.0
H325 H 0.52093 0.32293 0.29047 0.0
C326 C 0.54248 0.25115 0.26291 0.0
C327 C 0.50038 0.24324 0.29446 0.0
C328 C 0.47663 0.27564 0.32101 0.0
C329 C 0.4376 0.26838 0.35593 0.0
C330 C 0.41503 0.30129 0.38308 0.0
C331 C 0.43033 0.34018 0.37579 0.0
C332 C 0.4684 0.34727 0.34222 0.0
C333 C 0.49144 0.31554 0.31536 0.0
H334 H 0.2838 0.85818 0.60084 0.0
C335 C 0.29147 0.85054 0.66331 0.0
H336 H 0.31519 0.87116 0.77213 0.0
H337 H 0.33586 0.01245 0.46822 0.0
H338 H 0.37884 0.96469 0.40055 0.0
H339 H 0.39207 0.89796 0.46337 0.0
H340 H 0.36192 0.87818 0.59321 0.0
C341 C 0.30743 0.87894 0.70986 0.0
C342 C 0.30926 0.92214 0.68153 0.0
C343 C 0.32879 0.93393 0.60779 0.0
C344 C 0.32212 0.97283 0.57251 0.0
C345 C 0.34015 0.98317 0.49699 0.0
C346 C 0.36497 0.95621 0.45807 0.0
C347 C 0.37239 0.91861 0.49343 0.0
C348 C 0.35467 0.90748 0.56752 0.0
H349 H 0.30074 0.08502 0.60186 0.0
C350 C 0.27638 0.07103 0.56897 0.0
H351 H 0.2506 0.01831 0.52561 0.0
H352 H 0.27405 0.91271 0.83197 0.0
H353 H 0.23721 0.96265 0.90401 0.0
H354 H 0.22813 0.03073 0.84489 0.0
H355 H 0.25588 0.04913 0.71348 0.0
C356 C 0.27491 0.03088 0.56119 0.0
C357 C 0.29713 0.00043 0.61182 0.0
C358 C 0.28279 0.99074 0.69124 0.0
C359 C 0.28852 0.95147 0.72585 0.0
C360 C 0.27134 0.94201 0.80289 0.0
C361 C 0.24994 0.97043 0.8451 0.0
C362 C 0.24476 0.00873 0.81178 0.0
C363 C 0.26074 0.01885 0.73576 0.0
H364 H 0.91937 0.69077 0.91179 0.0
C365 C 0.9052 0.70369 0.85788 0.0
H366 H 0.90614 0.70649 0.7331 0.0
H367 H 0.07018 0.80056 0.72709 0.0
H368 H 0.02447 0.84458 0.65327 0.0
H369 H 0.95314 0.82536 0.63337 0.0
H370 H 0.92699 0.76293 0.68823 0.0
C371 C 0.92389 0.69891 0.78636 0.0
C372 C 0.96881 0.7059 0.78041 0.0
C373 C 0.98418 0.74193 0.74246 0.0
C374 C 0.02586 0.7524 0.75064 0.0
C375 C 0.03946 0.79014 0.71914 0.0
C376 C 0.01342 0.81598 0.67723 0.0
C377 C 0.97327 0.8052 0.66621 0.0
C378 C 0.95865 0.76886 0.69838 0.0
H379 H 0.10738 0.73617 0.67343 0.0
C380 C 0.12083 0.73912 0.73286 0.0
H381 H 0.11011 0.73622 0.85869 0.0
H382 H 0.95113 0.63189 0.84663 0.0
H383 H 0.99792 0.58635 0.91479 0.0
H384 H 0.07027 0.60388 0.92673 0.0
H385 H 0.0963 0.66689 0.87069 0.0
C386 C 0.09684 0.73587 0.79871 0.0
C387 C 0.05278 0.72582 0.79182 0.0
C388 C 0.03789 0.68891 0.82551 0.0
C389 C 0.99603 0.67891 0.81947 0.0
C390 C 0.98236 0.64142 0.85177 0.0
C391 C 0.00895 0.61486 0.89036 0.0
C392 C 0.04969 0.62472 0.89699 0.0
C393 C 0.0642 0.66113 0.86476 0.0
H394 H 0.7811 0.43166 0.20549 0.0
C395 C 0.77294 0.42192 0.14573 0.0
H396 H 0.77266 0.43519 0.02192 0.0
H397 H 0.70536 0.6081 0.03835 0.0
H398 H 0.65255 0.57267 0.9688 0.0
H399 H 0.65738 0.50001 0.94983 0.0
H400 H 0.71414 0.46254 0.00107 0.0
C401 C 0.77983 0.44668 0.08082 0.0
C402 C 0.77915 0.49145 0.08746 0.0
C403 C 0.74607 0.51343 0.05319 0.0
C404 C 0.74394 0.55569 0.06094 0.0
C405 C 0.70938 0.57633 0.031 0.0
C406 C 0.67859 0.55632 -0.00845 0.0
C407 C 0.68125 0.51545 -0.01885 0.0
C408 C 0.71431 0.49416 0.01152 0.0
H409 H 0.78777 0.62233 0.96907 0.0
C410 C 0.7812 0.64051 0.0208 0.0
H411 H 0.76978 0.63826 0.14702 0.0
H412 H 0.84751 0.4599 0.15654 0.0
H413 H 0.90014 0.49627 0.2257 0.0
H414 H 0.89638 0.56956 0.23739 0.0
H415 H 0.83986 0.60707 0.17985 0.0
C416 C 0.77644 0.62163 0.09339 0.0
C417 C 0.77588 0.57668 0.09827 0.0
C418 C 0.80843 0.55492 0.13362 0.0
C419 C 0.81021 0.51237 0.128 0.0
C420 C 0.844 0.49189 0.16114 0.0
C421 C 0.87458 0.51247 0.20042 0.0
C422 C 0.87251 0.55377 0.20686 0.0
C423 C 0.83999 0.57494 0.17359 0.0
H424 H 0.87633 0.29757 0.27557 0.0
C425 C 0.85566 0.2844 0.32056 0.0
H426 H 0.85177 0.25561 0.43562 0.0
H427 H 0.03256 0.19309 0.40536 0.0
H428 H 0.99361 0.13165 0.41159 0.0
H429 H 0.91897 0.13304 0.41455 0.0
H430 H 0.88298 0.19591 0.41075 0.0
C431 C 0.87116 0.27144 0.39185 0.0
C432 C 0.91633 0.2712 0.40436 0.0
C433 C 0.9372 0.23413 0.40963 0.0
C434 C 0.98046 0.23335 0.4107 0.0
C435 C 1.00005 0.19572 0.40937 0.0
C436 C 0.97799 0.16006 0.41165 0.0
C437 C 0.93599 0.16084 0.41313 0.0
C438 C 0.91569 0.19727 0.41119 0.0
H439 H 0.05148 0.23855 0.52458 0.0
C440 C 0.06897 0.25199 0.47473 0.0
H441 H 0.06541 0.28218 0.3609 0.0
H442 H 0.88646 0.34724 0.40432 0.0
H443 H 0.92544 0.40902 0.40291 0.0
H444 H 1.00011 0.4078 0.40536 0.0
H445 H 0.03635 0.34481 0.40938 0.0
C446 C 0.04877 0.26929 0.41235 0.0
C447 C 0.00314 0.26976 0.41043 0.0
C448 C 0.98218 0.30677 0.40721 0.0
C449 C 0.93893 0.3075 0.4047 0.0
C450 C 0.91913 0.34497 0.40388 0.0
C451 C 0.94114 0.38065 0.40375 0.0
C452 C 0.98319 0.37996 0.40523 0.0
C453 C 0.00362 0.34357 0.40731 0.0
H454 H 0.26588 0.367 0.62106 0.0
C455 C 0.25025 0.3616 0.56464 0.0
H456 H 0.21842 0.38865 0.46631 0.0
H457 H 0.20218 0.51573 0.76623 0.0
H458 H 0.15357 0.46729 0.82189 0.0
H459 H 0.1415 0.40335 0.75547 0.0
H460 H 0.17813 0.38734 0.63338 0.0
C461 C 0.2337 0.39269 0.5235 0.0
C462 C 0.23634 0.43348 0.55638 0.0
C463 C 0.21392 0.44272 0.62662 0.0
C464 C 0.2203 0.47984 0.66408 0.0
C465 C 0.19824 0.48803 0.73512 0.0
C466 C 0.17026 0.46052 0.76764 0.0
C467 C 0.16351 0.42449 0.73032 0.0
C468 C 0.18493 0.41557 0.66055 0.0
H469 H 0.21295 0.57804 0.60274 0.0
C470 C 0.23638 0.57947 0.64862 0.0
H471 H 0.27995 0.54643 0.71612 0.0
H472 H 0.28142 0.42639 0.41865 0.0
H473 H 0.32855 0.47573 0.3608 0.0
H474 H 0.33964 0.5402 0.42585 0.0
H475 H 0.3036 0.55583 0.54883 0.0
C476 C 0.25623 0.546 0.67096 0.0
C477 C 0.24839 0.50789 0.63029 0.0
C478 C 0.26959 0.49939 0.55823 0.0
C479 C 0.26335 0.46217 0.52093 0.0
C480 C 0.28511 0.45422 0.44941 0.0
C481 C 0.31221 0.48227 0.4156 0.0
C482 C 0.31845 0.51857 0.45221 0.0
C483 C 0.29752 0.52719 0.52274 0.0
H484 H 0.0461 0.03269 0.32192 0.0
C485 C 0.07236 0.02473 0.35854 0.0
H486 H 0.11835 0.98149 0.38083 0.0
H487 H 0.96694 0.88274 0.21868 0.0
H488 H 0.9504 0.86778 0.35998 0.0
H489 H 0.99075 0.8967 0.46905 0.0
H490 H 0.0487 0.94002 0.43724 0.0
C491 C 0.09111 0.98977 0.3478 0.0
C492 C 0.07537 0.96297 0.28622 0.0
C493 C 0.0424 0.93738 0.30604 0.0
C494 C 0.01897 0.92129 0.2434 0.0
C495 C 0.98551 0.89622 0.26428 0.0
C496 C 0.97571 0.8874 0.34501 0.0
C497 C 0.99853 0.90358 0.40644 0.0
C498 C 0.03151 0.92842 0.38751 0.0
H499 H 0.0278 0.87825 0.04094 0.0
C500 C 0.99995 0.89505 0.04736 0.0
H501 H 0.96948 0.94095 0.10693 0.0
H502 H 0.14312 0.00246 0.23115 0.0
H503 H 0.16322 0.01328 0.09006 0.0
H504 H 0.1211 0.98748 -0.01978 0.0
H505 H 0.0591 0.9502 0.01053 0.0
C506 C 0.9976 0.92462 0.09982 0.0
C507 C 0.02869 0.93125 0.16163 0.0
C508 C 0.06459 0.95281 0.14197 0.0
C509 C 0.08838 0.96834 0.20496 0.0
C510 C 0.12395 0.99032 0.18493 0.0
C511 C 0.13581 -0.00344 0.10451 0.0
C512 C 0.11208 0.98201 0.04263 0.0
C513 C 0.0766 0.96068 0.06077 0.0
H514 H 0.5925 0.50196 0.3083 0.0
C515 C 0.57851 0.47288 0.32111 0.0
H516 H 0.54173 0.43811 0.40121 0.0
H517 H 0.55918 0.53026 0.71628 0.0
H518 H 0.59428 0.46795 0.75088 0.0
H519 H 0.60962 0.41958 0.64578 0.0
H520 H 0.5912 0.43338 0.50579 0.0
C521 C 0.55443 0.46752 0.38605 0.0
C522 C 0.5496 0.49905 0.44619 0.0
C523 C 0.56243 0.49106 0.52702 0.0
C524 C 0.55362 0.51872 0.58767 0.0
C525 C 0.56527 0.5098 0.66844 0.0
C526 C 0.58555 0.47442 0.6888 0.0
C527 C 0.59431 0.44724 0.62956 0.0
C528 C 0.58321 0.45539 0.54947 0.0
H529 H 0.45943 0.53524 0.60552 0.0
C530 C 0.46988 0.56035 0.64033 0.0
H531 H 0.51962 0.59929 0.66074 0.0
H532 H 0.51995 0.5242 0.29722 0.0
H533 H 0.48885 0.58809 0.26424 0.0
H534 H 0.47879 0.63796 0.36895 0.0
H535 H 0.49949 0.62353 0.50814 0.0
C536 C 0.50809 0.57324 0.63061 0.0
C537 C 0.53223 0.55406 0.56735 0.0
C538 C 0.52345 0.56412 0.48553 0.0
C539 C 0.53085 0.53606 0.42488 0.0
C540 C 0.51721 0.54511 0.34522 0.0
C541 C 0.49882 0.5816 0.32555 0.0
C542 C 0.49303 0.60963 0.38452 0.0
C543 C 0.5049 0.60102 0.46388 0.0
H544 H 0.00933 0.13215 0.68719 0.0
C545 C 0.03212 0.10879 0.68747 0.0
H546 H 0.0435 0.0473 0.70891 0.0
H547 H 0.89812 0.00139 0.93376 0.0
H548 H 0.9435 0.02167 0.0391 0.0
H549 H 0.00457 0.06199 0.00646 0.0
H550 H 0.02078 0.08149 0.8667 0.0
C551 C 0.02195 0.07161 0.71328 0.0
C552 C 0.97953 0.06006 0.73315 0.0
C553 C 0.96863 0.05158 0.81458 0.0
C554 C 0.93268 0.02956 0.83314 0.0
C555 C 0.92445 0.01873 0.91529 0.0
C556 C 0.95033 0.03022 0.97678 0.0
C557 C 0.98478 0.0528 0.95842 0.0
C558 C 0.99392 0.0635 0.87829 0.0
H559 H 0.90469 0.94465 0.71016 0.0
C560 C 0.88419 0.94815 0.76104 0.0
H561 H 0.85587 0.98864 0.83715 0.0
H562 H 0.98913 0.0759 0.56994 0.0
H563 H 0.94198 0.05914 0.46429 0.0
H564 H 0.8774 0.02462 0.49738 0.0
H565 H 0.86004 0.00618 0.63701 0.0
C566 C 0.87656 0.98511 0.78678 0.0
C567 C 0.90713 0.01718 0.7695 0.0
C568 C 0.91562 0.03002 0.68871 0.0
C569 C 0.9523 0.05084 0.67013 0.0
C570 C 0.96141 0.06069 0.58803 0.0
C571 C 0.93456 0.05123 0.52664 0.0
C572 C 0.89824 0.03175 0.54523 0.0
C573 C 0.88872 0.02119 0.6253 0.0
H574 H 0.50562 0.34642 0.02733 0.0
C575 C 0.5287 0.36965 0.02107 0.0
H576 H 0.54116 0.4296 -0.01523 0.0
H577 H 0.40111 0.47771 0.75809 0.0
H578 H 0.45098 0.46185 0.65735 0.0
H579 H 0.5123 0.42395 0.69448 0.0
H580 H 0.52491 0.40298 0.83418 0.0
C581 C 0.51872 0.40567 -0.01169 0.0
C582 C 0.47664 0.41681 0.9641 0.0
C583 C 0.46885 0.42773 0.88221 0.0
C584 C 0.43259 0.44832 0.8606 0.0
C585 C 0.42727 0.46107 0.77861 0.0
C586 C 0.45586 0.4523 0.71974 0.0
C587 C 0.49052 0.43113 0.74069 0.0
C588 C 0.49731 0.41926 0.82096 0.0
H589 H 0.38888 0.52628 -0.01085 0.0
C590 C 0.37072 0.52238 0.93523 0.0
H591 H 0.35299 0.4823 0.84683 0.0
H592 H 0.48051 0.39896 0.12787 0.0
H593 H 0.4277 0.40883 0.22661 0.0
H594 H 0.36233 0.4386 0.18639 0.0
H595 H 0.34994 0.45974 0.04652 0.0
C596 C 0.37032 0.4862 0.90163 0.0
C597 C 0.4035 0.45703 0.92116 0.0
C598 C 0.40935 0.44214 0.00155 0.0
C599 C 0.44638 0.42308 0.02375 0.0
C600 C 0.4526 0.41206 0.10629 0.0
C601 C 0.4225 0.41772 0.16399 0.0
C602 C 0.38573 0.43461 0.14141 0.0
C603 C 0.37909 0.4468 0.06123 0.0
loop_
_geom_bond_atom_site_label_1
_geom_bond_atom_site_label_2
_geom_bond_distance
_geom_bond_site_symmetry_2
_ccdc_geom_bond_type
C0 O27 1.312 . S
C0 O28 1.208 . S
C1 O22 1.331 . S
C1 O25 1.244 . S
C2 O24 1.264 . S
C2 O26 1.273 1_554 S
Mg3 O5 1.936 . S
Mg3 O12 2.081 . S
Mg3 O14 2.023 1_554 S
Mg3 O18 2.031 . S
Mg3 O27 2.291 . S
Mg4 O5 1.963 1_556 S
Mg4 O15 1.942 1_556 S
Mg4 O16 1.955 . S
Mg4 O23 1.986 . S
O5 Mg3 1.936 . S
O5 Mg4 1.963 1_554 S
O5 Mg6 1.915 1_554 S
Mg6 O5 1.915 1_556 S
Mg6 O7 1.915 . S
Mg6 O11 2.013 . S
Mg6 O17 2.114 1_556 S
Mg6 O21 2.013 . S
Mg6 O27 2.114 1_556 S
O7 Mg6 1.915 . S
O7 Mg8 1.936 1_556 S
O7 Mg9 1.963 . S
Mg8 O7 1.936 1_554 S
Mg8 O17 2.291 . S
Mg8 O22 2.081 1_554 S
Mg8 O24 2.023 . S
Mg8 O28 2.031 . S
Mg9 O7 1.963 . S
Mg9 O13 1.986 . S
Mg9 O25 1.942 . S
Mg9 O26 1.955 . S
C10 O21 1.191 . S
C10 O23 1.307 . S
O11 Mg6 2.013 . S
O11 C30 1.191 . S
O12 Mg3 2.081 . S
O12 C20 1.331 . S
O13 Mg9 1.986 . S
O13 C30 1.307 . S
O14 Mg3 2.023 1_556 S
O14 C29 1.264 . S
O15 Mg4 1.942 1_554 S
O15 C20 1.244 . S
O16 Mg4 1.955 . S
O16 C29 1.273 . S
O17 Mg6 2.114 1_554 S
O17 Mg8 2.291 . S
O17 C19 1.312 . S
O18 Mg3 2.031 . S
O18 C19 1.208 . S
C19 O17 1.312 . S
C19 O18 1.208 . S
C20 O12 1.331 . S
C20 O15 1.244 . S
O21 Mg6 2.013 . S
O21 C10 1.191 . S
O22 C1 1.331 . S
O22 Mg8 2.081 1_556 S
O23 Mg4 1.986 . S
O23 C10 1.307 . S
O24 C2 1.264 . S
O24 Mg8 2.023 . S
O25 C1 1.244 . S
O25 Mg9 1.942 . S
O26 C2 1.273 1_556 S
O26 Mg9 1.955 . S
O27 C0 1.312 . S
O27 Mg3 2.291 . S
O27 Mg6 2.114 1_554 S
O28 C0 1.208 . S
O28 Mg8 2.031 . S
C29 O14 1.264 . S
C29 O16 1.273 . S
C30 O11 1.191 . S
C30 O13 1.307 . S
C31 O58 1.312 . S
C31 O59 1.208 . S
C32 O53 1.331 . S
C32 O56 1.244 . S
C33 O55 1.264 . S
C33 O57 1.273 . S
Mg34 O36 1.936 . S
Mg34 O43 2.081 . S
Mg34 O45 2.023 . S
Mg34 O49 2.031 . S
Mg34 O58 2.291 . S
Mg35 O36 1.963 . S
Mg35 O46 1.942 . S
Mg35 O47 1.955 . S
Mg35 O54 1.986 . S
O36 Mg34 1.936 . S
O36 Mg35 1.963 . S
O36 Mg37 1.915 . S
Mg37 O36 1.915 . S
Mg37 O38 1.915 . S
Mg37 O42 2.013 . S
Mg37 O48 2.114 . S
Mg37 O52 2.013 . S
Mg37 O58 2.114 . S
O38 Mg37 1.915 . S
O38 Mg39 1.936 . S
O38 Mg40 1.963 . S
Mg39 O38 1.936 . S
Mg39 O48 2.291 . S
Mg39 O53 2.081 . S
Mg39 O55 2.023 . S
Mg39 O59 2.031 . S
Mg40 O38 1.963 . S
Mg40 O44 1.986 . S
Mg40 O56 1.942 . S
Mg40 O57 1.955 . S
C41 O52 1.191 . S
C41 O54 1.307 . S
O42 Mg37 2.013 . S
O42 C61 1.191 . S
O43 Mg34 2.081 . S
O43 C51 1.331 . S
O44 Mg40 1.986 . S
O44 C61 1.307 . S
O45 Mg34 2.023 . S
O45 C60 1.264 . S
O46 Mg35 1.942 . S
O46 C51 1.244 . S
O47 Mg35 1.955 . S
O47 C60 1.273 . S
O48 Mg37 2.114 . S
O48 Mg39 2.291 . S
O48 C50 1.312 . S
O49 Mg34 2.031 . S
O49 C50 1.208 . S
C50 O48 1.312 . S
C50 O49 1.208 . S
C51 O43 1.331 . S
C51 O46 1.244 . S
O52 Mg37 2.013 . S
O52 C41 1.191 . S
O53 C32 1.331 . S
O53 Mg39 2.081 . S
O54 Mg35 1.986 . S
O54 C41 1.307 . S
O55 C33 1.264 . S
O55 Mg39 2.023 . S
O56 C32 1.244 . S
O56 Mg40 1.942 . S
O57 C33 1.273 . S
O57 Mg40 1.955 . S
O58 C31 1.312 . S
O58 Mg34 2.291 . S
O58 Mg37 2.114 . S
O59 C31 1.208 . S
O59 Mg39 2.031 . S
C60 O45 1.264 . S
C60 O47 1.273 . S
C61 O42 1.191 . S
C61 O44 1.307 . S
C62 O89 1.312 . S
C62 O90 1.208 . S
C63 O84 1.331 . S
C63 O87 1.244 . S
C64 O86 1.264 . S
C64 O88 1.273 . S
Mg65 O67 1.936 . S
Mg65 O74 2.081 . S
Mg65 O76 2.023 . S
Mg65 O80 2.031 . S
Mg65 O89 2.291 . S
Mg66 O67 1.963 . S
Mg66 O77 1.942 . S
Mg66 O78 1.955 . S
Mg66 O85 1.986 . S
O67 Mg65 1.936 . S
O67 Mg66 1.963 . S
O67 Mg68 1.915 . S
Mg68 O67 1.915 . S
Mg68 O69 1.915 . S
Mg68 O73 2.013 . S
Mg68 O79 2.114 . S
Mg68 O83 2.013 . S
Mg68 O89 2.114 . S
O69 Mg68 1.915 . S
O69 Mg70 1.936 . S
O69 Mg71 1.963 . S
Mg70 O69 1.936 . S
Mg70 O79 2.291 . S
Mg70 O84 2.081 . S
Mg70 O86 2.023 . S
Mg70 O90 2.031 . S
Mg71 O69 1.963 . S
Mg71 O75 1.986 . S
Mg71 O87 1.942 . S
Mg71 O88 1.955 . S
C72 O83 1.191 . S
C72 O85 1.307 . S
O73 Mg68 2.013 . S
O73 C92 1.191 . S
O74 Mg65 2.081 . S
O74 C82 1.331 . S
O75 Mg71 1.986 . S
O75 C92 1.307 . S
O76 Mg65 2.023 . S
O76 C91 1.264 . S
O77 Mg66 1.942 . S
O77 C82 1.244 . S
O78 Mg66 1.955 . S
O78 C91 1.273 . S
O79 Mg68 2.114 . S
O79 Mg70 2.291 . S
O79 C81 1.312 . S
O80 Mg65 2.031 . S
O80 C81 1.208 . S
C81 O79 1.312 . S
C81 O80 1.208 . S
C82 O74 1.331 . S
C82 O77 1.244 . S
O83 Mg68 2.013 . S
O83 C72 1.191 . S
O84 C63 1.331 . S
O84 Mg70 2.081 . S
O85 Mg66 1.986 . S
O85 C72 1.307 . S
O86 C64 1.264 . S
O86 Mg70 2.023 . S
O87 C63 1.244 . S
O87 Mg71 1.942 . S
O88 C64 1.273 . S
O88 Mg71 1.955 . S
O89 C62 1.312 . S
O89 Mg65 2.291 . S
O89 Mg68 2.114 . S
O90 C62 1.208 . S
O90 Mg70 2.031 . S
C91 O76 1.264 . S
C91 O78 1.273 . S
C92 O73 1.191 . S
C92 O75 1.307 . S
C93 O120 1.312 . S
C93 O121 1.208 . S
C94 O115 1.331 . S
C94 O118 1.244 . S
C95 O117 1.264 . S
C95 O119 1.273 . S
Mg96 O98 1.936 . S
Mg96 O105 2.081 . S
Mg96 O107 2.023 . S
Mg96 O111 2.031 . S
Mg96 O120 2.291 . S
Mg97 O98 1.963 . S
Mg97 O108 1.942 . S
Mg97 O109 1.955 . S
Mg97 O116 1.986 . S
O98 Mg96 1.936 . S
O98 Mg97 1.963 . S
O98 Mg99 1.915 . S
Mg99 O98 1.915 . S
Mg99 O100 1.915 . S
Mg99 O104 2.013 . S
Mg99 O110 2.114 . S
Mg99 O114 2.013 . S
Mg99 O120 2.114 . S
O100 Mg99 1.915 . S
O100 Mg101 1.936 . S
O100 Mg102 1.963 . S
Mg101 O100 1.936 . S
Mg101 O110 2.291 . S
Mg101 O115 2.081 . S
Mg101 O117 2.023 . S
Mg101 O121 2.031 . S
Mg102 O100 1.963 . S
Mg102 O106 1.986 . S
Mg102 O118 1.942 . S
Mg102 O119 1.955 . S
C103 O114 1.191 . S
C103 O116 1.307 . S
O104 Mg99 2.013 . S
O104 C123 1.191 . S
O105 Mg96 2.081 . S
O105 C113 1.331 . S
O106 Mg102 1.986 . S
O106 C123 1.307 . S
O107 Mg96 2.023 . S
O107 C122 1.264 . S
O108 Mg97 1.942 . S
O108 C113 1.244 . S
O109 Mg97 1.955 . S
O109 C122 1.273 . S
O110 Mg99 2.114 . S
O110 Mg101 2.291 . S
O110 C112 1.312 . S
O111 Mg96 2.031 . S
O111 C112 1.208 . S
C112 O110 1.312 . S
C112 O111 1.208 . S
C113 O105 1.331 . S
C113 O108 1.244 . S
O114 Mg99 2.013 . S
O114 C103 1.191 . S
O115 C94 1.331 . S
O115 Mg101 2.081 . S
O116 Mg97 1.986 . S
O116 C103 1.307 . S
O117 C95 1.264 . S
O117 Mg101 2.023 . S
O118 C94 1.244 . S
O118 Mg102 1.942 . S
O119 C95 1.273 . S
O119 Mg102 1.955 . S
O120 C93 1.312 . S
O120 Mg96 2.291 . S
O120 Mg99 2.114 . S
O121 C93 1.208 . S
O121 Mg101 2.031 . S
C122 O107 1.264 . S
C122 O109 1.273 . S
C123 O104 1.191 . S
C123 O106 1.307 . S
H124 C125 0.951 . S
C125 H124 0.951 . S
C125 C131 1.265 . S
H126 C131 0.950 . S
H127 C135 0.949 . S
H128 C136 0.950 . S
H129 C137 0.951 . S
H130 C138 0.951 . S
C131 C125 1.265 . S
C131 H126 0.950 . S
C131 C132 1.478 . S
C132 C131 1.478 . S
C132 C133 1.397 . S
C132 C149 1.394 . S
C133 C132 1.397 . S
C133 C134 1.438 . S
C133 C138 1.429 . S
C134 C133 1.438 . S
C134 C135 1.428 . S
C134 C147 1.394 . S
C135 H127 0.949 . S
C135 C134 1.428 . S
C135 C136 1.345 . S
C136 H128 0.950 . S
C136 C135 1.345 . S
C136 C137 1.424 . S
C137 H129 0.951 . S
C137 C136 1.424 . S
C137 C138 1.347 . S
C138 H130 0.951 . S
C138 C133 1.429 . S
C138 C137 1.347 . S
H139 C140 0.951 . S
C140 H139 0.951 . S
C140 C146 1.265 . S
H141 C146 0.950 . S
H142 C150 0.949 . S
H143 C151 0.950 . S
H144 C152 0.951 . S
H145 C153 0.951 . S
C146 C140 1.265 . S
C146 H141 0.950 . S
C146 C147 1.478 . S
C147 C134 1.394 . S
C147 C146 1.478 . S
C147 C148 1.397 . S
C148 C147 1.397 . S
C148 C149 1.438 . S
C148 C153 1.429 . S
C149 C132 1.394 . S
C149 C148 1.438 . S
C149 C150 1.428 . S
C150 H142 0.949 . S
C150 C149 1.428 . S
C150 C151 1.345 . S
C151 H143 0.950 . S
C151 C150 1.345 . S
C151 C152 1.424 . S
C152 H144 0.951 . S
C152 C151 1.424 . S
C152 C153 1.347 . S
C153 H145 0.951 . S
C153 C148 1.429 . S
C153 C152 1.347 . S
H154 C155 0.951 . S
C155 H154 0.951 . S
C155 C161 1.265 . S
H156 C161 0.950 . S
H157 C165 0.949 . S
H158 C166 0.950 . S
H159 C167 0.951 . S
H160 C168 0.951 . S
C161 C155 1.265 . S
C161 H156 0.950 . S
C161 C162 1.478 . S
C162 C161 1.478 . S
C162 C163 1.397 . S
C162 C179 1.394 . S
C163 C162 1.397 . S
C163 C164 1.438 . S
C163 C168 1.429 . S
C164 C163 1.438 . S
C164 C165 1.428 . S
C164 C177 1.394 . S
C165 H157 0.949 . S
C165 C164 1.428 . S
C165 C166 1.345 . S
C166 H158 0.950 . S
C166 C165 1.345 . S
C166 C167 1.424 . S
C167 H159 0.951 . S
C167 C166 1.424 . S
C167 C168 1.347 . S
C168 H160 0.951 . S
C168 C163 1.429 . S
C168 C167 1.347 . S
H169 C170 0.951 . S
C170 H169 0.951 . S
C170 C176 1.265 . S
H171 C176 0.950 . S
H172 C180 0.949 . S
H173 C181 0.950 . S
H174 C182 0.951 . S
H175 C183 0.951 . S
C176 C170 1.265 . S
C176 H171 0.950 . S
C176 C177 1.478 . S
C177 C164 1.394 . S
C177 C176 1.478 . S
C177 C178 1.397 . S
C178 C177 1.397 . S
C178 C179 1.438 . S
C178 C183 1.429 . S
C179 C162 1.394 . S
C179 C178 1.438 . S
C179 C180 1.428 . S
C180 H172 0.949 . S
C180 C179 1.428 . S
C180 C181 1.345 . S
C181 H173 0.950 . S
C181 C180 1.345 . S
C181 C182 1.424 . S
C182 H174 0.951 . S
C182 C181 1.424 . S
C182 C183 1.347 . S
C183 H175 0.951 . S
C183 C178 1.429 . S
C183 C182 1.347 . S
H184 C185 0.951 . S
C185 H184 0.951 . S
C185 C191 1.265 . S
H186 C191 0.950 . S
H187 C195 0.949 . S
H188 C196 0.950 . S
H189 C197 0.953 . S
H190 C198 0.951 . S
C191 C185 1.265 . S
C191 H186 0.950 . S
C191 C192 1.478 . S
C192 C191 1.478 . S
C192 C193 1.397 . S
C192 C209 1.394 . S
C193 C192 1.397 . S
C193 C194 1.438 1_556 S
C193 C198 1.429 . S
C194 C193 1.438 1_554 S
C194 C195 1.428 . S
C194 C207 1.394 . S
C195 H187 0.949 . S
C195 C194 1.428 . S
C195 C196 1.345 . S
C196 H188 0.950 . S
C196 C195 1.345 . S
C196 C197 1.419 1_554 S
C197 H189 0.953 . S
C197 C196 1.419 1_556 S
C197 C198 1.350 . S
C198 H190 0.951 . S
C198 C193 1.429 . S
C198 C197 1.350 . S
H199 C200 0.951 . S
C200 H199 0.951 . S
C200 C206 1.265 . S
H201 C206 0.950 . S
H202 C210 0.949 . S
H203 C211 0.950 . S
H204 C212 0.951 . S
H205 C213 0.951 . S
C206 C200 1.265 . S
C206 H201 0.950 . S
C206 C207 1.478 . S
C207 C194 1.394 . S
C207 C206 1.478 . S
C207 C208 1.397 . S
C208 C207 1.397 . S
C208 C209 1.438 1_554 S
C208 C213 1.429 . S
C209 C192 1.394 . S
C209 C208 1.438 1_556 S
C209 C210 1.428 . S
C210 H202 0.949 . S
C210 C209 1.428 . S
C210 C211 1.345 . S
C211 H203 0.950 . S
C211 C210 1.345 . S
C211 C212 1.424 1_556 S
C212 H204 0.951 . S
C212 C211 1.424 1_554 S
C212 C213 1.347 . S
C213 H205 0.951 . S
C213 C208 1.429 . S
C213 C212 1.347 . S
H214 C215 0.951 . S
C215 H214 0.951 . S
C215 C221 1.265 . S
H216 C221 0.950 . S
H217 C225 0.949 . S
H218 C226 0.950 . S
H219 C227 0.951 . S
H220 C228 0.951 . S
C221 C215 1.265 . S
C221 H216 0.950 . S
C221 C222 1.478 . S
C222 C221 1.478 . S
C222 C223 1.397 . S
C222 C239 1.394 . S
C223 C222 1.397 . S
C223 C224 1.438 . S
C223 C228 1.429 . S
C224 C223 1.438 . S
C224 C225 1.428 . S
C224 C237 1.394 . S
C225 H217 0.949 . S
C225 C224 1.428 . S
C225 C226 1.345 . S
C226 H218 0.950 . S
C226 C225 1.345 . S
C226 C227 1.424 . S
C227 H219 0.951 . S
C227 C226 1.424 . S
C227 C228 1.347 . S
C228 H220 0.951 . S
C228 C223 1.429 . S
C228 C227 1.347 . S
H229 C230 0.951 . S
C230 H229 0.951 . S
C230 C236 1.265 . S
H231 C236 0.950 . S
H232 C240 0.949 . S
H233 C241 0.950 . S
H234 C242 0.951 . S
H235 C243 0.951 . S
C236 C230 1.265 . S
C236 H231 0.950 . S
C236 C237 1.478 . S
C237 C224 1.394 . S
C237 C236 1.478 . S
C237 C238 1.397 . S
C238 C237 1.397 . S
C238 C239 1.438 . S
C238 C243 1.429 . S
C239 C222 1.394 . S
C239 C238 1.438 . S
C239 C240 1.428 . S
C240 H232 0.949 . S
C240 C239 1.428 . S
C240 C241 1.345 . S
C241 H233 0.950 . S
C241 C240 1.345 . S
C241 C242 1.424 . S
C242 H234 0.951 . S
C242 C241 1.424 . S
C242 C243 1.347 . S
C243 H235 0.951 . S
C243 C238 1.429 . S
C243 C242 1.347 . S
H244 C245 0.951 . S
C245 H244 0.951 . S
C245 C251 1.265 . S
H246 C251 0.950 . S
H247 C255 0.949 . S
H248 C256 0.950 . S
H249 C257 0.951 . S
H250 C258 0.951 . S
C251 C245 1.265 . S
C251 H246 0.950 . S
C251 C252 1.478 . S
C252 C251 1.478 . S
C252 C253 1.397 . S
C252 C269 1.394 . S
C253 C252 1.397 . S
C253 C254 1.438 . S
C253 C258 1.429 . S
C254 C253 1.438 . S
C254 C255 1.428 . S
C254 C267 1.394 . S
C255 H247 0.949 . S
C255 C254 1.428 . S
C255 C256 1.345 . S
C256 H248 0.950 . S
C256 C255 1.345 . S
C256 C257 1.424 . S
C257 H249 0.951 . S
C257 C256 1.424 . S
C257 C258 1.347 . S
C258 H250 0.951 . S
C258 C253 1.429 . S
C258 C257 1.347 . S
H259 C260 0.951 . S
C260 H259 0.951 . S
C260 C266 1.265 . S
H261 C266 0.950 . S
H262 C270 0.949 . S
H263 C271 0.950 . S
H264 C272 0.951 . S
H265 C273 0.951 . S
C266 C260 1.265 . S
C266 H261 0.950 . S
C266 C267 1.478 . S
C267 C254 1.394 . S
C267 C266 1.478 . S
C267 C268 1.397 . S
C268 C267 1.397 . S
C268 C269 1.438 . S
C268 C273 1.429 1_556 S
C269 C252 1.394 . S
C269 C268 1.438 . S
C269 C270 1.428 . S
C270 H262 0.949 . S
C270 C269 1.428 . S
C270 C271 1.345 1_556 S
C271 H263 0.950 . S
C271 C270 1.345 1_554 S
C271 C272 1.424 . S
C272 H264 0.951 . S
C272 C271 1.424 . S
C272 C273 1.347 . S
C273 H265 0.951 . S
C273 C268 1.429 1_554 S
C273 C272 1.347 . S
H274 C275 0.951 . S
C275 H274 0.951 . S
C275 C281 1.265 . S
H276 C281 0.950 . S
H277 C285 0.949 1_565 S
H278 C286 0.950 1_565 S
H279 C287 0.951 . S
H280 C288 0.951 . S
C281 C275 1.265 . S
C281 H276 0.950 . S
C281 C282 1.478 . S
C282 C281 1.478 . S
C282 C283 1.397 . S
C282 C299 1.394 . S
C283 C282 1.397 . S
C283 C284 1.438 . S
C283 C288 1.429 . S
C284 C283 1.438 . S
C284 C285 1.428 . S
C284 C297 1.394 . S
C285 H277 0.949 1_545 S
C285 C284 1.428 . S
C285 C286 1.345 . S
C286 H278 0.950 1_545 S
C286 C285 1.345 . S
C286 C287 1.424 . S
C287 H279 0.951 . S
C287 C286 1.424 . S
C287 C288 1.347 . S
C288 H280 0.951 . S
C288 C283 1.429 . S
C288 C287 1.347 . S
H289 C290 0.951 . S
C290 H289 0.951 . S
C290 C296 1.265 . S
H291 C296 0.950 . S
H292 C300 0.949 . S
H293 C301 0.950 . S
H294 C302 0.951 . S
H295 C303 0.951 . S
C296 C290 1.265 . S
C296 H291 0.950 . S
C296 C297 1.478 1_565 S
C297 C284 1.394 . S
C297 C296 1.478 1_545 S
C297 C298 1.397 . S
C298 C297 1.397 . S
C298 C299 1.438 . S
C298 C303 1.429 1_554 S
C299 C282 1.394 . S
C299 C298 1.438 . S
C299 C300 1.428 1_554 S
C300 H292 0.949 . S
C300 C299 1.428 1_556 S
C300 C301 1.345 . S
C301 H293 0.950 . S
C301 C300 1.345 . S
C301 C302 1.424 . S
C302 H294 0.951 . S
C302 C301 1.424 . S
C302 C303 1.347 . S
C303 H295 0.951 . S
C303 C298 1.429 1_556 S
C303 C302 1.347 . S
H304 C305 0.951 . S
C305 H304 0.951 . S
C305 C311 1.265 . S
H306 C311 0.950 . S
H307 C315 0.949 . S
H308 C316 0.950 . S
H309 C317 0.951 . S
H310 C318 0.951 . S
C311 C305 1.265 . S
C311 H306 0.950 . S
C311 C312 1.478 . S
C312 C311 1.478 . S
C312 C313 1.397 . S
C312 C329 1.394 . S
C313 C312 1.397 . S
C313 C314 1.438 . S
C313 C318 1.429 . S
C314 C313 1.438 . S
C314 C315 1.428 . S
C314 C327 1.394 . S
C315 H307 0.949 . S
C315 C314 1.428 . S
C315 C316 1.345 . S
C316 H308 0.950 . S
C316 C315 1.345 . S
C316 C317 1.424 . S
C317 H309 0.951 . S
C317 C316 1.424 . S
C317 C318 1.347 . S
C318 H310 0.951 . S
C318 C313 1.429 . S
C318 C317 1.347 . S
H319 C320 0.951 . S
C320 H319 0.951 . S
C320 C326 1.265 . S
H321 C326 0.950 . S
H322 C330 0.949 . S
H323 C331 0.950 . S
H324 C332 0.951 . S
H325 C333 0.951 . S
C326 C320 1.265 . S
C326 H321 0.950 . S
C326 C327 1.478 . S
C327 C314 1.394 . S
C327 C326 1.478 . S
C327 C328 1.397 . S
C328 C327 1.397 . S
C328 C329 1.438 . S
C328 C333 1.429 . S
C329 C312 1.394 . S
C329 C328 1.438 . S
C329 C330 1.428 . S
C330 H322 0.949 . S
C330 C329 1.428 . S
C330 C331 1.345 . S
C331 H323 0.950 . S
C331 C330 1.345 . S
C331 C332 1.424 . S
C332 H324 0.951 . S
C332 C331 1.424 . S
C332 C333 1.347 . S
C333 H325 0.951 . S
C333 C328 1.429 . S
C333 C332 1.347 . S
H334 C335 0.951 . S
C335 H334 0.951 . S
C335 C341 1.265 . S
H336 C341 0.950 . S
H337 C345 0.949 1_545 S
H338 C346 0.950 . S
H339 C347 0.951 . S
H340 C348 0.951 . S
C341 C335 1.265 . S
C341 H336 0.950 . S
C341 C342 1.478 . S
C342 C341 1.478 . S
C342 C343 1.397 . S
C342 C359 1.394 . S
C343 C342 1.397 . S
C343 C344 1.438 . S
C343 C348 1.429 . S
C344 C343 1.438 . S
C344 C345 1.428 . S
C344 C357 1.394 . S
C345 H337 0.949 1_565 S
C345 C344 1.428 . S
C345 C346 1.345 . S
C346 H338 0.950 . S
C346 C345 1.345 . S
C346 C347 1.424 . S
C347 H339 0.951 . S
C347 C346 1.424 . S
C347 C348 1.347 . S
C348 H340 0.951 . S
C348 C343 1.429 . S
C348 C347 1.347 . S
H349 C350 0.951 . S
C350 H349 0.951 . S
C350 C356 1.265 . S
H351 C356 0.950 . S
H352 C360 0.949 . S
H353 C361 0.950 . S
H354 C362 0.951 . S
H355 C363 0.951 . S
C356 C350 1.265 . S
C356 H351 0.950 . S
C356 C357 1.478 1_545 S
C357 C344 1.394 . S
C357 C356 1.478 1_565 S
C357 C358 1.397 . S
C358 C357 1.397 . S
C358 C359 1.438 . S
C358 C363 1.429 . S
C359 C342 1.394 . S
C359 C358 1.438 . S
C359 C360 1.428 . S
C360 H352 0.949 . S
C360 C359 1.428 . S
C360 C361 1.345 . S
C361 H353 0.950 . S
C361 C360 1.345 . S
C361 C362 1.424 . S
C362 H354 0.951 . S
C362 C361 1.424 . S
C362 C363 1.347 . S
C363 H355 0.951 . S
C363 C358 1.429 . S
C363 C362 1.347 . S
H364 C365 0.951 . S
C365 H364 0.951 . S
C365 C371 1.265 . S
H366 C371 0.950 . S
H367 C375 0.949 . S
H368 C376 0.950 . S
H369 C377 0.951 1_655 S
H370 C378 0.951 1_655 S
C371 C365 1.265 . S
C371 H366 0.950 . S
C371 C372 1.478 1_655 S
C372 C371 1.478 1_455 S
C372 C373 1.397 . S
C372 C389 1.394 . S
C373 C372 1.397 . S
C373 C374 1.438 . S
C373 C378 1.429 . S
C374 C373 1.438 . S
C374 C375 1.428 . S
C374 C387 1.394 . S
C375 H367 0.949 . S
C375 C374 1.428 . S
C375 C376 1.345 . S
C376 H368 0.950 . S
C376 C375 1.345 . S
C376 C377 1.424 . S
C377 H369 0.951 1_455 S
C377 C376 1.424 . S
C377 C378 1.347 . S
C378 H370 0.951 1_455 S
C378 C373 1.429 . S
C378 C377 1.347 . S
H379 C380 0.951 . S
C380 H379 0.951 . S
C380 C386 1.265 . S
H381 C386 0.950 . S
H382 C390 0.949 . S
H383 C391 0.950 . S
H384 C392 0.951 . S
H385 C393 0.951 . S
C386 C380 1.265 . S
C386 H381 0.950 . S
C386 C387 1.478 . S
C387 C374 1.394 . S
C387 C386 1.478 . S
C387 C388 1.397 . S
C388 C387 1.397 . S
C388 C389 1.438 . S
C388 C393 1.429 1_556 S
C389 C372 1.394 . S
C389 C388 1.438 . S
C389 C390 1.428 1_556 S
C390 H382 0.949 . S
C390 C389 1.428 1_554 S
C390 C391 1.345 . S
C391 H383 0.950 . S
C391 C390 1.345 . S
C391 C392 1.424 . S
C392 H384 0.951 . S
C392 C391 1.424 . S
C392 C393 1.347 . S
C393 H385 0.951 . S
C393 C388 1.429 1_554 S
C393 C392 1.347 . S
H394 C395 0.951 . S
C395 H394 0.951 . S
C395 C401 1.265 . S
H396 C401 0.950 . S
H397 C405 0.949 1_556 S
H398 C406 0.950 . S
H399 C407 0.951 . S
H400 C408 0.951 . S
C401 C395 1.265 . S
C401 H396 0.950 . S
C401 C402 1.478 . S
C402 C401 1.478 . S
C402 C403 1.397 . S
C402 C419 1.394 . S
C403 C402 1.397 . S
C403 C404 1.438 . S
C403 C408 1.429 . S
C404 C403 1.438 . S
C404 C405 1.428 . S
C404 C417 1.394 . S
C405 H397 0.949 1_554 S
C405 C404 1.428 . S
C405 C406 1.345 1_554 S
C406 H398 0.950 . S
C406 C405 1.345 1_556 S
C406 C407 1.424 . S
C407 H399 0.951 . S
C407 C406 1.424 . S
C407 C408 1.347 1_556 S
C408 H400 0.951 . S
C408 C403 1.429 . S
C408 C407 1.347 1_554 S
H409 C410 0.951 . S
C410 H409 0.951 . S
C410 C416 1.265 . S
H411 C416 0.950 . S
H412 C420 0.949 . S
H413 C421 0.950 . S
H414 C422 0.951 . S
H415 C423 0.951 . S
C416 C410 1.265 . S
C416 H411 0.950 . S
C416 C417 1.478 . S
C417 C404 1.394 . S
C417 C416 1.478 . S
C417 C418 1.397 . S
C418 C417 1.397 . S
C418 C419 1.438 . S
C418 C423 1.429 . S
C419 C402 1.394 . S
C419 C418 1.438 . S
C419 C420 1.428 . S
C420 H412 0.949 . S
C420 C419 1.428 . S
C420 C421 1.345 . S
C421 H413 0.950 . S
C421 C420 1.345 . S
C421 C422 1.424 . S
C422 H414 0.951 . S
C422 C421 1.424 . S
C422 C423 1.347 . S
C423 H415 0.951 . S
C423 C418 1.429 . S
C423 C422 1.347 . S
H424 C425 0.951 . S
C425 H424 0.951 . S
C425 C431 1.265 . S
H426 C431 0.950 . S
H427 C435 0.949 . S
H428 C436 0.950 . S
H429 C437 0.951 . S
H430 C438 0.951 . S
C431 C425 1.265 . S
C431 H426 0.950 . S
C431 C432 1.478 . S
C432 C431 1.478 . S
C432 C433 1.397 . S
C432 C449 1.394 . S
C433 C432 1.397 . S
C433 C434 1.438 . S
C433 C438 1.429 . S
C434 C433 1.438 . S
C434 C435 1.428 . S
C434 C447 1.394 . S
C435 H427 0.949 . S
C435 C434 1.428 . S
C435 C436 1.345 . S
C436 H428 0.950 . S
C436 C435 1.345 . S
C436 C437 1.424 . S
C437 H429 0.951 . S
C437 C436 1.424 . S
C437 C438 1.347 . S
C438 H430 0.951 . S
C438 C433 1.429 . S
C438 C437 1.347 . S
H439 C440 0.951 . S
C440 H439 0.951 . S
C440 C446 1.265 . S
H441 C446 0.950 . S
H442 C450 0.949 . S
H443 C451 0.950 . S
H444 C452 0.951 . S
H445 C453 0.951 1_455 S
C446 C440 1.265 . S
C446 H441 0.950 . S
C446 C447 1.478 1_455 S
C447 C434 1.394 . S
C447 C446 1.478 1_655 S
C447 C448 1.397 . S
C448 C447 1.397 . S
C448 C449 1.438 . S
C448 C453 1.429 . S
C449 C432 1.394 . S
C449 C448 1.438 . S
C449 C450 1.428 . S
C450 H442 0.949 . S
C450 C449 1.428 . S
C450 C451 1.345 . S
C451 H443 0.950 . S
C451 C450 1.345 . S
C451 C452 1.424 . S
C452 H444 0.951 . S
C452 C451 1.424 . S
C452 C453 1.347 . S
C453 H445 0.951 1_655 S
C453 C448 1.429 . S
C453 C452 1.347 . S
H454 C455 0.951 . S
C455 H454 0.951 . S
C455 C461 1.265 . S
H456 C461 0.950 . S
H457 C465 0.949 . S
H458 C466 0.950 . S
H459 C467 0.951 . S
H460 C468 0.951 . S
C461 C455 1.265 . S
C461 H456 0.950 . S
C461 C462 1.478 . S
C462 C461 1.478 . S
C462 C463 1.397 . S
C462 C479 1.394 . S
C463 C462 1.397 . S
C463 C464 1.438 . S
C463 C468 1.429 . S
C464 C463 1.438 . S
C464 C465 1.428 . S
C464 C477 1.394 . S
C465 H457 0.949 . S
C465 C464 1.428 . S
C465 C466 1.345 . S
C466 H458 0.950 . S
C466 C465 1.345 . S
C466 C467 1.424 . S
C467 H459 0.951 . S
C467 C466 1.424 . S
C467 C468 1.347 . S
C468 H460 0.951 . S
C468 C463 1.429 . S
C468 C467 1.347 . S
H469 C470 0.951 . S
C470 H469 0.951 . S
C470 C476 1.265 . S
H471 C476 0.950 . S
H472 C480 0.949 . S
H473 C481 0.950 . S
H474 C482 0.951 . S
H475 C483 0.951 . S
C476 C470 1.265 . S
C476 H471 0.950 . S
C476 C477 1.478 . S
C477 C464 1.394 . S
C477 C476 1.478 . S
C477 C478 1.397 . S
C478 C477 1.397 . S
C478 C479 1.438 . S
C478 C483 1.429 . S
C479 C462 1.394 . S
C479 C478 1.438 . S
C479 C480 1.428 . S
C480 H472 0.949 . S
C480 C479 1.428 . S
C480 C481 1.345 . S
C481 H473 0.950 . S
C481 C480 1.345 . S
C481 C482 1.424 . S
C482 H474 0.951 . S
C482 C481 1.424 . S
C482 C483 1.347 . S
C483 H475 0.951 . S
C483 C478 1.429 . S
C483 C482 1.347 . S
H484 C485 0.951 . S
C485 H484 0.951 . S
C485 C491 1.265 1_545 S
H486 C491 0.950 . S
H487 C495 0.949 . S
H488 C496 0.950 . S
H489 C497 0.951 . S
H490 C498 0.951 . S
C491 C485 1.265 1_565 S
C491 H486 0.950 . S
C491 C492 1.478 . S
C492 C491 1.478 . S
C492 C493 1.397 . S
C492 C509 1.394 . S
C493 C492 1.397 . S
C493 C494 1.444 . S
C493 C498 1.429 . S
C494 C493 1.444 . S
C494 C495 1.418 1_455 S
C494 C507 1.397 . S
C495 H487 0.949 . S
C495 C494 1.418 1_655 S
C495 C496 1.345 . S
C496 H488 0.950 . S
C496 C495 1.345 . S
C496 C497 1.424 . S
C497 H489 0.951 . S
C497 C496 1.424 . S
C497 C498 1.347 1_655 S
C498 H490 0.951 . S
C498 C493 1.429 . S
C498 C497 1.347 1_455 S
H499 C500 0.951 . S
C500 H499 0.951 . S
C500 C506 1.265 . S
H501 C506 0.950 . S
H502 C510 0.949 1_545 S
H503 C511 0.950 1_545 S
H504 C512 0.951 . S
H505 C513 0.951 . S
C506 C500 1.265 . S
C506 H501 0.950 . S
C506 C507 1.478 1_655 S
C507 C494 1.397 . S
C507 C506 1.478 1_455 S
C507 C508 1.397 . S
C508 C507 1.397 . S
C508 C509 1.438 . S
C508 C513 1.429 . S
C509 C492 1.394 . S
C509 C508 1.438 . S
C509 C510 1.428 . S
C510 H502 0.949 1_565 S
C510 C509 1.428 . S
C510 C511 1.345 . S
C511 H503 0.950 1_565 S
C511 C510 1.345 . S
C511 C512 1.424 . S
C512 H504 0.951 . S
C512 C511 1.424 . S
C512 C513 1.347 . S
C513 H505 0.951 . S
C513 C508 1.429 . S
C513 C512 1.347 . S
H514 C515 0.951 . S
C515 H514 0.951 . S
C515 C521 1.265 . S
H516 C521 0.950 . S
H517 C525 0.949 . S
H518 C526 0.950 . S
H519 C527 0.951 . S
H520 C528 0.951 . S
C521 C515 1.265 . S
C521 H516 0.950 . S
C521 C522 1.478 . S
C522 C521 1.478 . S
C522 C523 1.397 . S
C522 C539 1.394 . S
C523 C522 1.397 . S
C523 C524 1.438 . S
C523 C528 1.429 . S
C524 C523 1.438 . S
C524 C525 1.428 . S
C524 C537 1.394 . S
C525 H517 0.949 . S
C525 C524 1.428 . S
C525 C526 1.345 . S
C526 H518 0.950 . S
C526 C525 1.345 . S
C526 C527 1.424 . S
C527 H519 0.951 . S
C527 C526 1.424 . S
C527 C528 1.347 . S
C528 H520 0.951 . S
C528 C523 1.429 . S
C528 C527 1.347 . S
H529 C530 0.951 . S
C530 H529 0.951 . S
C530 C536 1.265 . S
H531 C536 0.950 . S
H532 C540 0.949 . S
H533 C541 0.950 . S
H534 C542 0.951 . S
H535 C543 0.951 . S
C536 C530 1.265 . S
C536 H531 0.950 . S
C536 C537 1.478 . S
C537 C524 1.394 . S
C537 C536 1.478 . S
C537 C538 1.397 . S
C538 C537 1.397 . S
C538 C539 1.438 . S
C538 C543 1.429 . S
C539 C522 1.394 . S
C539 C538 1.438 . S
C539 C540 1.428 . S
C540 H532 0.949 . S
C540 C539 1.428 . S
C540 C541 1.345 . S
C541 H533 0.950 . S
C541 C540 1.345 . S
C541 C542 1.424 . S
C542 H534 0.951 . S
C542 C541 1.424 . S
C542 C543 1.347 . S
C543 H535 0.951 . S
C543 C538 1.429 . S
C543 C542 1.347 . S
H544 C545 0.951 . S
C545 H544 0.951 . S
C545 C551 1.265 . S
H546 C551 0.950 . S
H547 C555 0.949 1_565 S
H548 C556 0.949 1_564 S
H549 C557 0.951 . S
H550 C558 0.951 . S
C551 C545 1.265 . S
C551 H546 0.950 . S
C551 C552 1.478 1_455 S
C552 C551 1.478 1_655 S
C552 C553 1.397 1_655 S
C552 C569 1.394 . S
C553 C552 1.397 1_455 S
C553 C554 1.438 1_455 S
C553 C558 1.429 . S
C554 C553 1.438 1_655 S
C554 C555 1.428 . S
C554 C567 1.394 . S
C555 H547 0.949 1_545 S
C555 C554 1.428 . S
C555 C556 1.345 1_655 S
C556 H548 0.949 1_546 S
C556 C555 1.345 1_455 S
C556 C557 1.424 . S
C557 H549 0.951 . S
C557 C556 1.424 . S
C557 C558 1.347 . S
C558 H550 0.951 . S
C558 C553 1.429 . S
C558 C557 1.347 . S
H559 C560 0.951 . S
C560 H559 0.951 . S
C560 C566 1.287 . S
H561 C566 0.936 1_545 S
H562 C570 0.949 . S
H563 C571 0.950 . S
H564 C572 0.951 . S
H565 C573 0.951 . S
C566 C560 1.287 . S
C566 H561 0.936 1_565 S
C566 C567 1.469 1_565 S
C567 C554 1.394 . S
C567 C566 1.469 1_545 S
C567 C568 1.397 . S
C568 C567 1.397 . S
C568 C569 1.438 . S
C568 C573 1.429 . S
C569 C552 1.394 . S
C569 C568 1.438 . S
C569 C570 1.428 . S
C570 H562 0.949 . S
C570 C569 1.428 . S
C570 C571 1.345 . S
C571 H563 0.950 . S
C571 C570 1.345 . S
C571 C572 1.424 . S
C572 H564 0.951 . S
C572 C571 1.424 . S
C572 C573 1.347 . S
C573 H565 0.951 . S
C573 C568 1.429 . S
C573 C572 1.347 . S
H574 C575 0.951 . S
C575 H574 0.951 . S
C575 C581 1.265 . S
H576 C581 0.950 . S
H577 C585 0.949 . S
H578 C586 0.950 . S
H579 C587 0.951 . S
H580 C588 0.951 . S
C581 C575 1.265 . S
C581 H576 0.950 . S
C581 C582 1.478 . S
C582 C581 1.478 . S
C582 C583 1.397 1_554 S
C582 C599 1.394 . S
C583 C582 1.397 1_556 S
C583 C584 1.438 . S
C583 C588 1.429 . S
C584 C583 1.438 . S
C584 C585 1.428 . S
C584 C597 1.394 . S
C585 H577 0.949 . S
C585 C584 1.428 . S
C585 C586 1.345 . S
C586 H578 0.950 . S
C586 C585 1.345 . S
C586 C587 1.424 . S
C587 H579 0.951 . S
C587 C586 1.424 . S
C587 C588 1.347 . S
C588 H580 0.951 . S
C588 C583 1.429 . S
C588 C587 1.347 . S
H589 C590 0.951 . S
C590 H589 0.951 . S
C590 C596 1.265 . S
H591 C596 0.950 . S
H592 C600 0.949 . S
H593 C601 0.950 . S
H594 C602 0.951 . S
H595 C603 0.951 . S
C596 C590 1.265 . S
C596 H591 0.950 . S
C596 C597 1.478 . S
C597 C584 1.394 . S
C597 C596 1.478 . S
C597 C598 1.397 1_556 S
C598 C597 1.397 1_554 S
C598 C599 1.438 . S
C598 C603 1.429 . S
C599 C582 1.394 . S
C599 C598 1.438 . S
C599 C600 1.428 . S
C600 H592 0.949 . S
C600 C599 1.428 . S
C600 C601 1.345 . S
C601 H593 0.950 . S
C601 C600 1.345 . S
C601 C602 1.424 . S
C602 H594 0.951 . S
C602 C601 1.424 . S
C602 C603 1.347 . S
C603 H595 0.951 . S
C603 C598 1.429 . S
C603 C602 1.347 . S
C125 C19 1.255 . S
C140 C30 1.284 . S
C155 C50 1.201 . S
C170 C61 1.231 1_556 S
C185 C72 1.231 . S
C200 C62 1.201 . S
C215 C103 1.281 1_554 S
C230 C93 1.251 . S
C245 C123 1.514 . S
C260 C1 1.603 . S
C275 C32 1.758 . S
C290 C0 1.683 . S
C305 C91 1.976 . S
C320 C31 1.890 . S
C335 C122 1.831 . S
C350 C92 1.721 . S
C365 C10 1.389 . S
C380 C113 1.648 . S
C395 C41 1.623 . S
C410 C2 1.853 . S
C425 C33 1.938 . S
C440 C81 1.959 . S
C455 C82 1.707 . S
C470 C112 1.714 . S
C485 C63 0.381 . S
C500 C20 0.597 . S
C515 C51 0.597 . S
C530 C94 0.304 . S
C545 C64 0.709 . S
C560 C29 0.447 . S
C575 C60 0.617 . S
C590 C95 0.447 . S
