# Generated by pormake.
# Topology uof, (4)-cn, num edge types: 1
# Building blocks:
#     Node 0, Type 0, BuildingBlock: ICAMEG_clean_sbu_1, # of connection points: 4
#     Node 1, Type 0, BuildingBlock: ICAMEG_clean_sbu_1, # of connection points: 4
#     Node 2, Type 0, BuildingBlock: ICAMEG_clean_sbu_1, # of connection points: 4
#     Node 3, Type 0, BuildingBlock: ICAMEG_clean_sbu_1, # of connection points: 4
#     Node 4, Type 0, BuildingBlock: ICAMEG_clean_sbu_1, # of connection points: 4
#     Node 5, Type 0, BuildingBlock: ICAMEG_clean_sbu_1, # of connection points: 4
#     Node 6, Type 0, BuildingBlock: ICAMEG_clean_sbu_1, # of connection points: 4
#     Node 7, Type 0, BuildingBlock: ICAMEG_clean_sbu_1, # of connection points: 4
#     Node 8, Type 0, BuildingBlock: ICAMEG_clean_sbu_1, # of connection points: 4
#     Node 9, Type 0, BuildingBlock: ICAMEG_clean_sbu_1, # of connection points: 4
#     Node 10, Type 0, BuildingBlock: ICAMEG_clean_sbu_1, # of connection points: 4
#     Node 11, Type 0, BuildingBlock: ICAMEG_clean_sbu_1, # of connection points: 4
#     Edge 12, Type (0, 0), BuildingBlock: XUDNAN_clean_linker_2, # of connection points: 2
#     Edge 13, Type (0, 0), BuildingBlock: XUDNAN_clean_linker_2, # of connection points: 2
#     Edge 14, Type (0, 0), BuildingBlock: XUDNAN_clean_linker_2, # of connection points: 2
#     Edge 15, Type (0, 0), BuildingBlock: XUDNAN_clean_linker_2, # of connection points: 2
#     Edge 16, Type (0, 0), BuildingBlock: XUDNAN_clean_linker_2, # of connection points: 2
#     Edge 17, Type (0, 0), BuildingBlock: XUDNAN_clean_linker_2, # of connection points: 2
#     Edge 18, Type (0, 0), BuildingBlock: XUDNAN_clean_linker_2, # of connection points: 2
#     Edge 19, Type (0, 0), BuildingBlock: XUDNAN_clean_linker_2, # of connection points: 2
#     Edge 20, Type (0, 0), BuildingBlock: XUDNAN_clean_linker_2, # of connection points: 2
#     Edge 21, Type (0, 0), BuildingBlock: XUDNAN_clean_linker_2, # of connection points: 2
#     Edge 22, Type (0, 0), BuildingBlock: XUDNAN_clean_linker_2, # of connection points: 2
#     Edge 23, Type (0, 0), BuildingBlock: XUDNAN_clean_linker_2, # of connection points: 2
#     Edge 24, Type (0, 0), BuildingBlock: XUDNAN_clean_linker_2, # of connection points: 2
#     Edge 25, Type (0, 0), BuildingBlock: XUDNAN_clean_linker_2, # of connection points: 2
#     Edge 26, Type (0, 0), BuildingBlock: XUDNAN_clean_linker_2, # of connection points: 2
#     Edge 27, Type (0, 0), BuildingBlock: XUDNAN_clean_linker_2, # of connection points: 2
#     Edge 28, Type (0, 0), BuildingBlock: XUDNAN_clean_linker_2, # of connection points: 2
#     Edge 29, Type (0, 0), BuildingBlock: XUDNAN_clean_linker_2, # of connection points: 2
#     Edge 30, Type (0, 0), BuildingBlock: XUDNAN_clean_linker_2, # of connection points: 2
#     Edge 31, Type (0, 0), BuildingBlock: XUDNAN_clean_linker_2, # of connection points: 2
#     Edge 32, Type (0, 0), BuildingBlock: XUDNAN_clean_linker_2, # of connection points: 2
#     Edge 33, Type (0, 0), BuildingBlock: XUDNAN_clean_linker_2, # of connection points: 2
#     Edge 34, Type (0, 0), BuildingBlock: XUDNAN_clean_linker_2, # of connection points: 2
#     Edge 35, Type (0, 0), BuildingBlock: XUDNAN_clean_linker_2, # of connection points: 2
# Relax obj value: 0.218
# Max RMSD: 0.166
# Mean RMSD: 0.166
data_MOF--net-uof--node1-ICAMEG_clean_sbu_1--edge1-XUDNAN_clean_linker_2
_symmetry_space_group_name_H-M    P1
_symmetry_Int_Tables_number       1
_symmetry_cell_setting            triclinic
loop_
_symmetry_equiv_pos_as_xyz
'x, y, z'
_cell_length_a     32.922634
_cell_length_b     32.935458
_cell_length_c     71.835018
_cell_angle_alpha  89.962229
_cell_angle_beta   90.047607
_cell_angle_gamma 120.09446
loop_
_atom_site_label
_atom_site_type_symbol
_atom_site_fract_x
_atom_site_fract_y
_atom_site_fract_z
_atom_type_partial_charge
Co0 Co 0.25357 0.2993 0.22405 0.0
Co1 Co 0.19252 0.21968 0.25789 0.0
O2 O 0.24006 0.28329 0.25042 0.0
C3 C 0.35869 0.3512 0.22456 0.0
O4 O 0.35747 0.32183 0.21191 0.0
C5 C 0.20545 0.28276 0.28988 0.0
O6 O 0.2271 0.32153 0.28007 0.0
O7 O 0.14539 0.22824 0.24325 0.0
O8 O 0.18623 0.25364 0.21662 0.0
H9 H 0.05268 0.06109 0.24456 0.0
H10 H 0.27856 0.37615 0.25115 0.0
O11 O 0.32041 0.34601 0.23125 0.0
H12 H 0.17066 0.38754 0.20662 0.0
H13 H 0.32767 0.40842 0.16951 0.0
H14 H 0.23102 0.24359 0.18942 0.0
H15 H 0.19288 0.32685 0.20283 0.0
H16 H 0.30844 0.38872 0.20268 0.0
O17 O 0.17858 0.24402 0.28158 0.0
H18 H 0.11772 0.13994 0.23677 0.0
H19 H 0.16028 0.16369 0.29329 0.0
H20 H 0.24929 0.26168 0.15611 0.0
H21 H 0.25765 0.43773 0.25535 0.0
H22 H 0.29796 0.34463 0.14597 0.0
H23 H 0.20323 0.44365 0.233 0.0
O24 O 0.26996 0.24912 0.22179 0.0
H25 H 0.34229 0.27603 0.29483 0.0
H26 H 0.20778 0.13843 0.2664 0.0
H27 H 0.26634 0.12834 0.28355 0.0
H28 H 0.33399 0.19724 0.29828 0.0
H29 H 0.28368 0.285 0.27729 0.0
H30 H 0.09505 0.08567 0.30189 0.0
H31 H 0.04081 0.03347 0.27734 0.0
O32 O 0.20596 0.19206 0.23558 0.0
C33 C 0.14746 0.23567 0.22564 0.0
C34 C 0.07601 0.08352 0.25539 0.0
C35 C 0.0996 0.09738 0.28757 0.0
N36 N 0.14271 0.15687 0.26464 0.0
C37 C 0.11302 0.12825 0.25107 0.0
C38 C 0.13614 0.1419 0.28271 0.0
C39 C 0.0693 0.06807 0.27379 0.0
C40 C 0.25501 0.3786 0.24133 0.0
N41 N 0.23695 0.34785 0.2268 0.0
C42 C 0.24323 0.4135 0.2438 0.0
C43 C 0.21267 0.41678 0.23126 0.0
C44 C 0.19436 0.38529 0.21647 0.0
C45 C 0.20693 0.35086 0.21444 0.0
C46 C 0.30639 0.37215 0.17375 0.0
C47 C 0.25212 0.27976 0.1851 0.0
C48 C 0.29539 0.36079 0.19251 0.0
N49 N 0.26848 0.31505 0.19796 0.0
C50 C 0.26239 0.28979 0.16623 0.0
C51 C 0.28971 0.33634 0.16055 0.0
C52 C 0.24346 0.20616 0.22616 0.0
C53 C 0.31254 0.24554 0.28876 0.0
C54 C 0.23663 0.16883 0.27271 0.0
C55 C 0.26999 0.16279 0.28243 0.0
C56 C 0.30795 0.20141 0.29065 0.0
N57 N 0.2401 0.21195 0.27145 0.0
C58 C 0.27858 0.25024 0.27886 0.0
Co59 Co 0.91987 0.25384 0.55065 0.0
Co60 Co 0.01436 0.24048 0.56182 0.0
O61 O 0.96934 0.26072 0.56789 0.0
C62 C 0.96982 0.35558 0.55901 0.0
O63 O 1.00846 0.35582 0.55432 0.0
C64 C 0.99387 0.21914 0.60308 0.0
O65 O 0.952 0.2145 0.60175 0.0
O66 O 0.96135 0.1756 0.55583 0.0
O67 O 0.90926 0.19103 0.54181 0.0
H68 H 0.07934 0.16218 0.52129 0.0
H69 H 0.91443 0.27761 0.59006 0.0
O70 O 0.93057 0.31713 0.55875 0.0
H71 H 0.7709 0.12541 0.57912 0.0
H72 H 0.77948 0.26771 0.53272 0.0
H73 H 0.89192 0.21984 0.5119 0.0
H74 H 0.82836 0.16471 0.5539 0.0
H75 H 0.84233 0.27531 0.55367 0.0
O76 O 0.01783 0.22363 0.58851 0.0
H77 H 0.02309 0.18726 0.53034 0.0
H78 H 0.10103 0.24949 0.57964 0.0
H79 H 0.82932 0.21103 0.49056 0.0
H80 H 0.85758 0.23985 0.61561 0.0
H81 H 0.77254 0.23513 0.50094 0.0
H82 H 0.78528 0.1631 0.61023 0.0
O83 O 0.96536 0.28445 0.52993 0.0
H84 H 0.09501 0.39045 0.59867 0.0
H85 H 0.10506 0.30741 0.54337 0.0
H86 H 0.16936 0.38793 0.55012 0.0
H87 H 0.16442 0.42984 0.57788 0.0
H88 H 0.03193 0.31036 0.59149 0.0
H89 H 0.15765 0.22439 0.57126 0.0
H90 H 0.14727 0.18078 0.5418 0.0
O91 O 0.01592 0.25899 0.53547 0.0
C92 C 0.92542 0.16365 0.54536 0.0
C93 C 0.08427 0.18121 0.53416 0.0
C94 C 0.12817 0.21605 0.56221 0.0
N95 N 0.05871 0.21996 0.55551 0.0
C96 C 0.05256 0.19558 0.53936 0.0
C97 C 0.09577 0.22992 0.56695 0.0
C98 C 0.12235 0.19162 0.54567 0.0
C99 C 0.88285 0.24442 0.58757 0.0
N100 N 0.87472 0.2234 0.57052 0.0
C101 C 0.85088 0.22311 0.60211 0.0
C102 C 0.81036 0.18001 0.59909 0.0
C103 C 0.8023 0.15881 0.58165 0.0
C104 C 0.83507 0.18113 0.56744 0.0
C105 C 0.80395 0.25701 0.52804 0.0
C106 C 0.86717 0.23004 0.51655 0.0
C107 C 0.83967 0.26133 0.53983 0.0
N108 N 0.87054 0.24764 0.53406 0.0
C109 C 0.83188 0.22514 0.50439 0.0
C110 C 0.80006 0.23871 0.51022 0.0
C111 C 0.99976 0.27928 0.52535 0.0
C112 C 0.09768 0.37243 0.58655 0.0
C113 C 0.10285 0.32545 0.55552 0.0
C114 C 0.13925 0.37098 0.55924 0.0
C115 C 0.13654 0.39453 0.57486 0.0
N116 N 0.06509 0.30372 0.56717 0.0
C117 C 0.06211 0.32685 0.58244 0.0
Co118 Co 0.66973 0.89984 0.89533 0.0
Co119 Co 0.78489 0.96589 0.91069 0.0
O120 O 0.71651 0.93442 0.91488 0.0
C121 C 0.63899 0.96546 0.90903 0.0
O122 O 0.68332 0.99852 0.9091 0.0
C123 C 0.76979 0.9319 0.9505 0.0
O124 O 0.72409 0.90856 0.94828 0.0
O125 O 0.77946 0.90712 0.89953 0.0
O126 O 0.71015 0.87586 0.88477 0.0
H127 H 0.92836 0.00849 0.87226 0.0
H128 H 0.63589 0.88619 0.93425 0.0
O129 O 0.62765 0.92348 0.90479 0.0
H130 H 0.60156 0.72987 0.91287 0.0
H131 H 0.50598 0.80049 0.87009 0.0
H132 H 0.67478 0.88384 0.85495 0.0
H133 H 0.63898 0.79813 0.89182 0.0
H134 H 0.56513 0.84284 0.89447 0.0
O135 O 0.79678 0.94872 0.9364 0.0
H136 H 0.84351 0.97221 0.87829 0.0
H137 H 0.87108 0.02496 0.93362 0.0
H138 H 0.61686 0.84153 0.83018 0.0
H139 H 0.59787 0.81876 0.95573 0.0
H140 H 0.53174 0.7995 0.83768 0.0
H141 H 0.58062 0.73994 0.94508 0.0
O142 O 0.70012 0.95457 0.87833 0.0
H143 H 0.74925 0.06342 0.95494 0.0
H144 H 0.84018 0.06665 0.89995 0.0
H145 H 0.84953 0.14065 0.91216 0.0
H146 H 0.80426 0.1395 0.93997 0.0
H147 H 0.74007 0.99047 0.9421 0.0
H148 H 0.9562 0.06143 0.9282 0.0
H149 H 0.9854 0.05339 0.89733 0.0
O150 O 0.77666 0.98643 0.88565 0.0
C151 C 0.74993 0.87891 0.88757 0.0
C152 C 0.91609 0.01231 0.88576 0.0
C153 C 0.9317 0.04191 0.91717 0.0
N154 N 0.85219 0.99641 0.90629 0.0
C155 C 0.86805 0.99193 0.88926 0.0
C156 C 0.88339 0.02096 0.92018 0.0
C157 C 0.94807 0.03745 0.89984 0.0
C158 C 0.62825 0.85194 0.9295 0.0
N159 N 0.63986 0.84614 0.91185 0.0
C160 C 0.60684 0.81392 0.94173 0.0
C161 C 0.59722 0.76972 0.93575 0.0
C162 C 0.60903 0.76406 0.91769 0.0
C163 C 0.63046 0.8029 0.90586 0.0
C164 C 0.54297 0.81863 0.86664 0.0
C165 C 0.63785 0.86548 0.85835 0.0
C166 C 0.57664 0.84279 0.88038 0.0
N167 N 0.62342 0.86572 0.87615 0.0
C168 C 0.60519 0.84164 0.84425 0.0
C169 C 0.55744 0.81808 0.84847 0.0
C170 C 0.74342 0.98369 0.87564 0.0
C171 C 0.76981 0.0645 0.943 0.0
C172 C 0.82056 0.06565 0.91216 0.0
C173 C 0.82592 0.10778 0.91897 0.0
C174 C 0.80051 0.10713 0.93456 0.0
N175 N 0.79116 0.02388 0.92074 0.0
C176 C 0.7653 0.02307 0.93578 0.0
Co177 Co 0.77603 0.66923 0.2187 0.0
Co178 Co 0.81814 0.77294 0.24187 0.0
O179 O 0.77912 0.70419 0.24134 0.0
C180 C 0.67633 0.62871 0.2295 0.0
O181 O 0.68579 0.6722 0.23143 0.0
C182 C 0.81378 0.73941 0.28139 0.0
O183 O 0.79948 0.69665 0.27548 0.0
O184 O 0.87444 0.76731 0.23589 0.0
O185 O 0.84345 0.71736 0.21188 0.0
H186 H 0.94194 0.92898 0.21658 0.0
H187 H 0.74819 0.61681 0.25428 0.0
O188 O 0.70879 0.6205 0.22463 0.0
H189 H 0.88083 0.60156 0.23106 0.0
H190 H 0.72875 0.52357 0.18086 0.0
H191 H 0.80749 0.69636 0.1797 0.0
H192 H 0.85174 0.64568 0.21311 0.0
H193 H 0.73481 0.56783 0.20941 0.0
O194 O 0.8286 0.77315 0.26975 0.0
H195 H 0.89106 0.84307 0.21655 0.0
H196 H 0.83058 0.84925 0.26797 0.0
H197 H 0.80273 0.65355 0.15087 0.0
H198 H 0.77583 0.57193 0.27259 0.0
H199 H 0.76308 0.5665 0.15133 0.0
H200 H 0.84272 0.5642 0.26101 0.0
O201 O 0.75311 0.70553 0.2046 0.0
H202 H 0.66366 0.72878 0.27261 0.0
H203 H 0.78153 0.8328 0.22681 0.0
H204 H 0.71131 0.83946 0.23223 0.0
H205 H 0.6519 0.78754 0.25542 0.0
H206 H 0.73351 0.72229 0.26634 0.0
H207 H 0.88136 0.93522 0.26863 0.0
H208 H 0.93743 0.97573 0.24278 0.0
O209 O 0.80791 0.77646 0.21464 0.0
C210 C 0.87882 0.75019 0.2205 0.0
C211 C 0.9177 0.91173 0.22794 0.0
C212 C 0.88374 0.91522 0.25716 0.0
N213 N 0.85788 0.84091 0.24226 0.0
C214 C 0.88871 0.863 0.228 0.0
C215 C 0.85525 0.86643 0.25675 0.0
C216 C 0.91515 0.93794 0.24264 0.0
C217 C 0.77719 0.61343 0.24913 0.0
N218 N 0.79844 0.63399 0.23271 0.0
C219 C 0.79275 0.58806 0.25957 0.0
C220 C 0.8303 0.58377 0.25307 0.0
C221 C 0.85174 0.60477 0.23627 0.0
C222 C 0.83525 0.6299 0.22622 0.0
C223 C 0.7462 0.5615 0.18049 0.0
C224 C 0.79051 0.65851 0.18004 0.0
C225 C 0.74966 0.58674 0.1966 0.0
N226 N 0.77185 0.63465 0.19625 0.0
C227 C 0.78777 0.63445 0.16366 0.0
C228 C 0.76548 0.58561 0.16393 0.0
C229 C 0.77488 0.75001 0.20357 0.0
C230 C 0.68962 0.7521 0.26268 0.0
C231 C 0.75603 0.81011 0.23699 0.0
C232 C 0.71625 0.81406 0.23998 0.0
C233 C 0.68295 0.78493 0.25298 0.0
N234 N 0.76271 0.77818 0.24672 0.0
C235 C 0.72977 0.74905 0.25927 0.0
Co236 Co 0.0957 0.7767 0.55573 0.0
Co237 Co 0.03143 0.8233 0.57293 0.0
O238 O 0.05958 0.78351 0.57609 0.0
C239 C 0.02952 0.67908 0.56678 0.0
O240 O 0.99755 0.69171 0.56633 0.0
C241 C 0.0527 0.82608 0.61438 0.0
O242 O 0.07559 0.80346 0.61181 0.0
O243 O 0.09495 0.87783 0.56781 0.0
O244 O 0.11938 0.84385 0.547 0.0
H245 H 1.00773 0.94412 0.53951 0.0
H246 H 0.10926 0.75121 0.5938 0.0
O247 O 0.07233 0.70947 0.56346 0.0
H248 H 0.26526 0.87801 0.5741 0.0
H249 H 0.19763 0.72015 0.5268 0.0
H250 H 0.11127 0.80449 0.51594 0.0
H251 H 0.1972 0.84925 0.553 0.0
H252 H 0.154 0.73116 0.55233 0.0
O253 O 0.03739 0.83863 0.60045 0.0
H254 H 0.04181 0.89334 0.5444 0.0
H255 H 0.96324 0.8401 0.59428 0.0
H256 H 0.15487 0.79476 0.49006 0.0
H257 H 0.17645 0.77861 0.61532 0.0
H258 H 0.19842 0.75228 0.49542 0.0
H259 H 0.25512 0.84254 0.6055 0.0
O260 O 0.04068 0.75396 0.53904 0.0
H261 H 0.91218 0.67522 0.60549 0.0
H262 H 0.93868 0.78499 0.55409 0.0
H263 H 0.8602 0.716 0.5585 0.0
H264 H 0.84635 0.66063 0.58444 0.0
H265 H 0.99031 0.74377 0.6003 0.0
H266 H 0.92888 0.89093 0.59004 0.0
H267 H 0.95081 0.94319 0.56243 0.0
O268 O 0.02272 0.80943 0.54566 0.0
C269 C 0.12041 0.88024 0.55394 0.0
C270 C 0.99792 0.92154 0.55161 0.0
C271 C 0.95372 0.89173 0.57998 0.0
N272 N 1.00469 0.86376 0.56965 0.0
C273 C 0.01711 0.89263 0.55447 0.0
C274 C 0.97355 0.86323 0.58237 0.0
C275 C 0.966 0.92101 0.56448 0.0
C276 C 0.14343 0.77892 0.58943 0.0
N277 N 0.14929 0.79871 0.57222 0.0
C278 C 0.18132 0.79434 0.60168 0.0
C279 C 0.22544 0.83024 0.59616 0.0
C280 C 0.23115 0.8502 0.57856 0.0
C281 C 0.19244 0.83391 0.5667 0.0
C282 C 0.17889 0.73883 0.5243 0.0
C283 C 0.13045 0.7863 0.51841 0.0
C284 C 0.15406 0.74509 0.5387 0.0
N285 N 0.13048 0.76882 0.53566 0.0
C286 C 0.15494 0.78075 0.50369 0.0
C287 C 0.17933 0.75687 0.5067 0.0
C288 C 0.01865 0.77559 0.53573 0.0
C289 C 0.91762 0.69938 0.59427 0.0
C290 C 0.93312 0.76121 0.56545 0.0
C291 C 0.88848 0.72215 0.56787 0.0
C292 C 0.88074 0.69111 0.58242 0.0
N293 N 0.96921 0.76933 0.57719 0.0
C294 C 0.96184 0.73877 0.5914 0.0
Co295 Co 0.32736 0.07896 0.89145 0.0
Co296 Co 0.21937 0.039 0.91029 0.0
O297 O 0.28636 0.05909 0.91331 0.0
C298 C 0.37639 0.02426 0.89539 0.0
O299 O 0.35783 1.00532 0.87925 0.0
C300 C 0.2468 0.08718 0.94765 0.0
O301 O 0.28681 0.12093 0.94113 0.0
O302 O 0.23704 0.10258 0.90013 0.0
O303 O 0.29029 0.1062 0.87968 0.0
H304 H 0.07924 0.02418 0.87592 0.0
H305 H 0.3707 0.10789 0.92872 0.0
O306 O 0.36606 0.05311 0.90298 0.0
H307 H 0.42053 0.25558 0.89468 0.0
H308 H 0.4818 0.14911 0.85734 0.0
H309 H 0.30981 0.07277 0.85088 0.0
H310 H 0.37018 0.17921 0.87952 0.0
H311 H 0.43102 0.1255 0.88513 0.0
O312 O 0.2165 0.05647 0.93679 0.0
H313 H 0.16218 0.04679 0.87987 0.0
H314 H 0.13437 0.99097 0.93474 0.0
H315 H 0.35928 0.09601 0.82271 0.0
H316 H 0.42154 0.18353 0.94435 0.0
H317 H 0.44594 0.13446 0.82585 0.0
H318 H 0.44671 0.25807 0.92731 0.0
O319 O 0.28481 0.01649 0.87985 0.0
H320 H 0.23592 0.92444 0.95144 0.0
H321 H 0.14836 0.94097 0.89913 0.0
H322 H 0.12864 0.86203 0.90962 0.0
H323 H 0.17239 0.85331 0.93606 0.0
H324 H 0.255 1.0028 0.94029 0.0
H325 H 0.05111 0.96814 0.93138 0.0
H326 H 0.02296 0.98458 0.90179 0.0
O327 O 0.21893 0.01819 0.88428 0.0
C328 C 0.26049 0.11817 0.88496 0.0
C329 C 0.09107 0.01687 0.8889 0.0
C330 C 0.07532 0.98549 0.92002 0.0
N331 N 0.15342 0.02041 0.90754 0.0
C332 C 0.13811 0.0296 0.89123 0.0
C333 C 0.12264 0.99877 0.92187 0.0
C334 C 0.05953 0.99466 0.90341 0.0
C335 C 0.38185 0.14019 0.92117 0.0
N336 N 0.3677 0.13912 0.90321 0.0
C337 C 0.41048 0.18291 0.93011 0.0
C338 C 0.42453 0.22471 0.92055 0.0
C339 C 0.40982 0.22334 0.90225 0.0
C340 C 0.38117 0.17998 0.89376 0.0
C341 C 0.44409 0.13242 0.85579 0.0
C342 C 0.34749 0.08957 0.85235 0.0
C343 C 0.41516 0.11895 0.87147 0.0
N344 N 0.36749 0.09788 0.86961 0.0
C345 C 0.37532 0.10262 0.83635 0.0
C346 C 0.42394 0.12419 0.83812 0.0
C347 C 0.24116 0.99993 0.87701 0.0
C348 C 0.21655 0.92777 0.93993 0.0
C349 C 0.16778 0.93761 0.91055 0.0
C350 C 0.15635 0.89273 0.91648 0.0
C351 C 0.18091 0.88787 0.9313 0.0
N352 N 0.20275 0.97665 0.91909 0.0
C353 C 0.22716 0.97209 0.93356 0.0
Co354 Co 0.686 0.77923 0.46063 0.0
Co355 Co 0.78059 0.83905 0.4323 0.0
O356 O 0.71305 0.79552 0.43567 0.0
C357 C 0.62784 0.6752 0.45845 0.0
O358 O 0.65199 0.67433 0.47286 0.0
C359 C 0.73214 0.84188 0.3974 0.0
O360 O 0.69138 0.82454 0.40578 0.0
O361 O 0.77453 0.88885 0.44622 0.0
O362 O 0.7337 0.8435 0.4704 0.0
H363 H 0.94189 0.96009 0.45409 0.0
H364 H 0.62129 0.76363 0.42925 0.0
O365 O 0.63776 0.71463 0.45119 0.0
H366 H 0.60834 0.876 0.47063 0.0
H367 H 0.55461 0.70805 0.50756 0.0
H368 H 0.72619 0.79193 0.49851 0.0
H369 H 0.66072 0.8453 0.47869 0.0
H370 H 0.58848 0.72991 0.47604 0.0
O371 O 0.76962 0.85994 0.40713 0.0
H372 H 0.85747 0.90396 0.45757 0.0
H373 H 0.84749 0.869 0.40018 0.0
H374 H 0.69384 0.77086 0.53027 0.0
H375 H 0.56803 0.79301 0.42076 0.0
H376 H 0.60745 0.72859 0.53495 0.0
H377 H 0.56139 0.84971 0.4415 0.0
O378 O 0.72992 0.75592 0.46656 0.0
H379 H 0.72838 0.69743 0.39085 0.0
H380 H 0.85188 0.80835 0.43328 0.0
H381 H 0.86116 0.7468 0.41795 0.0
H382 H 0.79953 0.69115 0.39628 0.0
H383 H 0.71989 0.75851 0.40682 0.0
H384 H 0.9317 0.92545 0.39603 0.0
H385 H 0.97949 0.97124 0.42315 0.0
O386 O 0.79505 0.8188 0.45627 0.0
C387 C 0.76209 0.88385 0.4634 0.0
C388 C 0.92135 0.9404 0.44217 0.0
C389 C 0.91561 0.92103 0.40958 0.0
N390 N 0.84726 0.88328 0.42909 0.0
C391 C 0.87344 0.9085 0.44404 0.0
C392 C 0.86779 0.88938 0.41198 0.0
C393 C 0.94246 0.94666 0.4248 0.0
C394 C 0.61842 0.7881 0.43839 0.0
N395 N 0.64415 0.80275 0.45442 0.0
C396 C 0.58828 0.80471 0.43349 0.0
C397 C 0.58461 0.83656 0.44513 0.0
C398 C 0.61098 0.85136 0.46146 0.0
C399 C 0.64077 0.83402 0.4659 0.0
C400 C 0.59231 0.72653 0.50571 0.0
C401 C 0.68858 0.77367 0.50044 0.0
C402 C 0.61169 0.73901 0.4879 0.0
N403 N 0.65929 0.76234 0.48545 0.0
C404 C 0.67045 0.76178 0.51845 0.0
C405 C 0.62198 0.73805 0.52107 0.0
C406 C 0.77444 0.78051 0.46536 0.0
C407 C 0.75603 0.72214 0.39991 0.0
C408 C 0.82511 0.78489 0.42367 0.0
C409 C 0.83047 0.74979 0.41512 0.0
C410 C 0.79585 0.71853 0.40301 0.0
N411 N 0.78678 0.78949 0.42002 0.0
C412 C 0.75179 0.75754 0.40879 0.0
Co413 Co 0.90076 0.65543 0.80275 0.0
Co414 Co 0.96348 0.7567 0.7781 0.0
O415 O 0.9284 0.68818 0.77941 0.0
C416 C 0.95351 0.60567 0.79289 0.0
O417 O 0.99316 0.64562 0.79434 0.0
C418 C 0.93085 0.77812 0.74278 0.0
O419 O 0.91892 0.80435 0.75247 0.0
O420 O 0.90696 0.75865 0.78742 0.0
O421 O 0.88571 0.70553 0.81055 0.0
H422 H 0.01595 0.91981 0.80124 0.0
H423 H 0.86781 0.6043 0.76699 0.0
O424 O 0.91432 0.60415 0.79536 0.0
H425 H 0.72721 0.59368 0.79613 0.0
H426 H 0.80491 0.51257 0.84248 0.0
H427 H 0.90505 0.6849 0.84204 0.0
H428 H 0.80394 0.63502 0.81198 0.0
H429 H 0.8389 0.55492 0.81311 0.0
O430 O 0.94407 0.75267 0.75124 0.0
H431 H 0.97295 0.83343 0.80266 0.0
H432 H 0.02979 0.82692 0.75042 0.0
H433 H 0.87146 0.644 0.8717 0.0
H434 H 0.7916 0.5621 0.75074 0.0
H435 H 0.82099 0.5572 0.87204 0.0
H436 H 0.72065 0.55669 0.76531 0.0
O437 O 0.96287 0.69044 0.81542 0.0
H438 H 0.04829 0.69498 0.73962 0.0
H439 H 0.06467 0.80546 0.7893 0.0
H440 H 0.13372 0.80026 0.77967 0.0
H441 H 0.12588 0.74493 0.75457 0.0
H442 H 0.97988 0.7006 0.74992 0.0
H443 H 0.07361 0.91326 0.74851 0.0
H444 H 0.0668 0.96034 0.77403 0.0
O445 O 0.9848 0.76207 0.80427 0.0
C446 C 0.88538 0.74031 0.80271 0.0
C447 C 0.01913 0.89968 0.79001 0.0
C448 C 0.0515 0.89601 0.76042 0.0
N449 N 0.99838 0.82496 0.77657 0.0
C450 C 0.99472 0.85069 0.79071 0.0
C451 C 0.02654 0.84709 0.76159 0.0
C452 C 0.04767 0.9224 0.77475 0.0
C453 C 0.83701 0.60179 0.77347 0.0
N454 N 0.84027 0.62189 0.79044 0.0
C455 C 0.79399 0.57798 0.76418 0.0
C456 C 0.7542 0.57499 0.77236 0.0
C457 C 0.75785 0.59575 0.78965 0.0
C458 C 0.80143 0.61922 0.79853 0.0
C459 C 0.8268 0.5504 0.84251 0.0
C460 C 0.88293 0.64715 0.84206 0.0
C461 C 0.84625 0.57456 0.82593 0.0
N462 N 0.87371 0.62236 0.82585 0.0
C463 C 0.8641 0.62417 0.8589 0.0
C464 C 0.83582 0.57547 0.85909 0.0
C465 C 0.98871 0.73487 0.81579 0.0
C466 C 0.0522 0.71937 0.75051 0.0
C467 C 0.06082 0.78109 0.77844 0.0
C468 C 0.10013 0.77841 0.77301 0.0
C469 C 0.09571 0.74737 0.75892 0.0
N470 N 0.01828 0.75371 0.77004 0.0
C471 C 0.01363 0.7229 0.75634 0.0
Co472 Co 0.25456 0.91612 0.12679 0.0
Co473 Co 0.21434 0.99263 0.11708 0.0
O474 O 0.24549 0.95753 0.10954 0.0
C475 C 0.35083 0.97822 0.1127 0.0
O476 O 0.34249 0.01288 0.11502 0.0
C477 C 0.18863 0.96764 0.07636 0.0
O478 O 0.19764 0.93312 0.07696 0.0
O479 O 0.15749 0.93293 0.12584 0.0
O480 O 0.1923 0.89643 0.13916 0.0
H481 H 0.12406 0.03418 0.1621 0.0
H482 H 0.26825 0.90742 0.08658 0.0
O483 O 0.31832 0.93608 0.11573 0.0
H484 H 0.13636 0.75337 0.10534 0.0
H485 H 0.30465 0.79918 0.14343 0.0
H486 H 0.23853 0.89417 0.16715 0.0
H487 H 0.17572 0.81715 0.12831 0.0
H488 H 0.29157 0.85061 0.12233 0.0
O489 O 0.18701 0.98757 0.09136 0.0
H490 H 0.16433 0.99254 0.15136 0.0
H491 H 0.19682 0.06595 0.09996 0.0
H492 H 0.25047 0.84288 0.18874 0.0
H493 H 0.23031 0.84442 0.06318 0.0
H494 H 0.28386 0.79491 0.17689 0.0
H495 H 0.16376 0.76679 0.07252 0.0
O496 O 0.28546 0.96718 0.14544 0.0
H497 H 0.34837 0.09238 0.07387 0.0
H498 H 0.26986 0.08985 0.13263 0.0
H499 H 0.33838 0.16388 0.12193 0.0
H500 H 0.37812 0.16533 0.09249 0.0
H501 H 0.27979 0.0197 0.08476 0.0
H502 H 0.15632 0.10785 0.11003 0.0
H503 H 0.11972 0.09229 0.14138 0.0
O504 O 0.24256 1.00255 0.14236 0.0
C505 C 0.1572 0.90282 0.13723 0.0
C506 C 0.13987 0.0413 0.14841 0.0
C507 C 0.15788 0.08254 0.11918 0.0
N508 N 0.18304 0.02664 0.12498 0.0
C509 C 0.16284 0.01786 0.14223 0.0
C510 C 0.18056 0.05842 0.11348 0.0
C511 C 0.13741 0.07385 0.13677 0.0
C512 C 0.23954 0.87359 0.09075 0.0
N513 N 0.22416 0.86595 0.10875 0.0
C514 C 0.2181 0.83812 0.07744 0.0
C515 C 0.18071 0.79459 0.08268 0.0
C516 C 0.16528 0.78706 0.10109 0.0
C517 C 0.18754 0.82338 0.11402 0.0
C518 C 0.28994 0.81979 0.14876 0.0
C519 C 0.25259 0.87313 0.16188 0.0
C520 C 0.2825 0.84903 0.13688 0.0
N521 N 0.2638 0.87506 0.14348 0.0
C522 C 0.25949 0.84426 0.17417 0.0
C523 C 0.27827 0.81741 0.16752 0.0
C524 C 0.27298 0.99612 0.15073 0.0
C525 C 0.33113 0.09227 0.08671 0.0
C526 C 0.28668 0.09027 0.11967 0.0
C527 C 0.3256 0.13222 0.11377 0.0
C528 C 0.34788 0.13311 0.09718 0.0
N529 N 0.26968 0.05052 0.1091 0.0
C530 C 0.2919 0.05114 0.09293 0.0
Co531 Co 0.3139 0.26487 0.46627 0.0
Co532 Co 0.23824 0.18807 0.4343 0.0
O533 O 0.30034 0.24167 0.44069 0.0
C534 C 0.35156 0.35807 0.44672 0.0
O535 O 0.31042 0.34352 0.43896 0.0
C536 C 0.30531 0.19593 0.40474 0.0
O537 O 0.34332 0.22052 0.41477 0.0
O538 O 0.2489 0.14823 0.45288 0.0
O539 O 0.27185 0.19984 0.47634 0.0
H540 H 0.08462 0.04467 0.45058 0.0
H541 H 0.39355 0.28729 0.44114 0.0
O542 O 0.35805 0.33069 0.45727 0.0
H543 H 0.41261 0.20244 0.49391 0.0
H544 H 0.41534 0.3642 0.51927 0.0
H545 H 0.25466 0.24808 0.49958 0.0
H546 H 0.34688 0.21815 0.49321 0.0
H547 H 0.3998 0.333 0.48726 0.0
O548 O 0.26642 0.16959 0.41306 0.0
H549 H 0.15958 0.11669 0.45713 0.0
H550 H 0.18568 0.14199 0.39935 0.0
H551 H 0.26866 0.27806 0.53178 0.0
H552 H 0.46014 0.27277 0.44135 0.0
H553 H 0.34951 0.33656 0.54181 0.0
H554 H 0.46991 0.22994 0.46786 0.0
O555 O 0.25986 0.27601 0.465 0.0
H556 H 0.28651 0.3245 0.39006 0.0
H557 H 0.15326 0.19274 0.42181 0.0
H558 H 0.13888 0.24316 0.40107 0.0
H559 H 0.20563 0.30938 0.3847 0.0
H560 H 0.29968 0.27408 0.41118 0.0
H561 H 0.11157 0.06985 0.39204 0.0
H562 H 0.06055 0.0205 0.4178 0.0
O563 O 0.20706 0.20546 0.45409 0.0
C564 C 0.25545 0.15789 0.47032 0.0
C565 C 0.10672 0.06577 0.43922 0.0
C566 C 0.12192 0.07975 0.40637 0.0
N567 N 0.17757 0.13336 0.42857 0.0
C568 C 0.14925 0.10669 0.44283 0.0
C569 C 0.16423 0.12028 0.41054 0.0
C570 C 0.09318 0.05221 0.42084 0.0
C571 C 0.39764 0.26871 0.45273 0.0
N572 N 0.3662 0.25335 0.46708 0.0
C573 C 0.43539 0.26056 0.45277 0.0
C574 C 0.44083 0.23651 0.46765 0.0
C575 C 0.40867 0.22103 0.48226 0.0
C576 C 0.37136 0.22982 0.48174 0.0
C577 C 0.37998 0.33865 0.51508 0.0
C578 C 0.28996 0.27335 0.50387 0.0
C579 C 0.37094 0.32094 0.49695 0.0
N580 N 0.32639 0.28853 0.49159 0.0
C581 C 0.29766 0.29027 0.52211 0.0
C582 C 0.34302 0.32313 0.52772 0.0
C583 C 0.21774 0.2454 0.46081 0.0
C584 C 0.25696 0.29518 0.3968 0.0
C585 C 0.18273 0.22081 0.41469 0.0
C586 C 0.17425 0.24963 0.40299 0.0
C587 C 0.21166 0.28683 0.39386 0.0
N588 N 0.22714 0.22799 0.41711 0.0
C589 C 0.26409 0.26575 0.4087 0.0
Co590 Co 0.06828 0.30172 0.79978 0.0
Co591 Co 0.04736 0.22027 0.7659 0.0
O592 O 0.0635 0.28402 0.77339 0.0
C593 C 1.00521 0.33551 0.78566 0.0
O594 O 0.97727 0.29261 0.7797 0.0
C595 C 0.10245 0.28174 0.7333 0.0
O596 O 0.11183 0.3209 0.74166 0.0
O597 O 0.10277 0.22776 0.78047 0.0
O598 O 0.09334 0.25887 0.80679 0.0
H599 H 0.02291 0.05971 0.7793 0.0
H600 H 0.11292 0.3769 0.7715 0.0
O601 O 0.04376 0.34556 0.79367 0.0
H602 H 0.24155 0.39844 0.81306 0.0
H603 H 0.10333 0.41431 0.8529 0.0
H604 H 0.0444 0.24927 0.83541 0.0
H605 H 0.16039 0.33489 0.81876 0.0
H606 H 0.09936 0.39186 0.81991 0.0
O607 O 0.08552 0.24336 0.74235 0.0
H608 H 0.03862 0.1391 0.78706 0.0
H609 H 0.02773 0.16599 0.72995 0.0
H610 H 0.04815 0.27023 0.86857 0.0
H611 H 0.19355 0.44121 0.76537 0.0
H612 H 0.0778 0.35329 0.87749 0.0
H613 H 0.25854 0.45224 0.78623 0.0
O614 O 1.00323 0.24964 0.80413 0.0
H615 H 0.9561 0.2787 0.72896 0.0
H616 H 0.95067 0.13975 0.75698 0.0
H617 H 0.88151 0.13119 0.74069 0.0
H618 H 0.88371 0.20088 0.72638 0.0
H619 H 0.02443 0.28605 0.74542 0.0
H620 H 0.01273 0.08731 0.72159 0.0
H621 H 0.00985 0.03328 0.74636 0.0
O622 O 1.00589 0.19275 0.7881 0.0
C623 C 0.11044 0.23731 0.79785 0.0
C624 C 0.02383 0.08284 0.76839 0.0
C625 C 0.01828 0.09838 0.73601 0.0
N626 N 0.03361 0.15733 0.75904 0.0
C627 C 0.03249 0.12784 0.7727 0.0
C628 C 0.02711 0.14316 0.74084 0.0
C629 C 0.0166 0.06806 0.74991 0.0
C630 C 0.14101 0.38161 0.78067 0.0
N631 N 0.13197 0.35219 0.79545 0.0
C632 C 0.18659 0.41802 0.77711 0.0
C633 C 0.22304 0.42416 0.78881 0.0
C634 C 0.21355 0.39397 0.80386 0.0
C635 C 0.16753 0.35794 0.80698 0.0
C636 C 0.09046 0.37802 0.84919 0.0
C637 C 0.05765 0.28553 0.83919 0.0
C638 C 0.08805 0.36508 0.83053 0.0
N639 N 0.07205 0.31935 0.82575 0.0
C640 C 0.05955 0.29717 0.85799 0.0
C641 C 0.07614 0.34377 0.86298 0.0
C642 C 0.98579 0.20681 0.79943 0.0
C643 C 0.95471 0.24798 0.73507 0.0
C644 C 0.9525 0.1705 0.75095 0.0
C645 C 0.9129 0.16532 0.74165 0.0
C646 C 0.91412 0.20438 0.73364 0.0
N647 N 0.99267 0.21329 0.75218 0.0
C648 C 0.99366 0.25181 0.74446 0.0
Co649 Co 0.77544 0.09276 0.13046 0.0
Co650 Co 0.84727 0.06157 0.1085 0.0
O651 O 0.79869 0.07971 0.10748 0.0
C652 C 0.67189 0.0366 0.12528 0.0
O653 O 0.67103 0.01431 0.14057 0.0
C654 C 0.85182 0.09973 0.06996 0.0
O655 O 0.8212 0.11273 0.07411 0.0
O656 O 0.89081 0.12222 0.12138 0.0
O657 O 0.83915 0.11835 0.14267 0.0
H658 H 0.97241 0.04167 0.14039 0.0
H659 H 0.7612 0.13033 0.09516 0.0
O660 O 0.71132 0.06808 0.11859 0.0
H661 H 0.85532 0.26902 0.13463 0.0
H662 H 0.68534 0.14925 0.16885 0.0
H663 H 0.78461 0.07636 0.17034 0.0
H664 H 0.83042 0.18952 0.14631 0.0
H665 H 0.71552 0.13453 0.13973 0.0
O666 O 0.87136 0.0889 0.08289 0.0
H667 H 0.91023 0.06214 0.1384 0.0
H668 H 0.88997 0.02513 0.08109 0.0
H669 H 0.75536 0.09063 0.19981 0.0
H670 H 0.78498 0.2092 0.08298 0.0
H671 H 0.70532 0.1273 0.19917 0.0
H672 H 0.83244 0.27925 0.10277 0.0
O673 O 0.75667 0.02828 0.13923 0.0
H674 H 0.7152 0.95102 0.06588 0.0
H675 H 0.82637 0.96336 0.1145 0.0
H676 H 0.7717 0.88626 0.10116 0.0
H677 H 0.71588 0.8796 0.07645 0.0
H678 H 0.76954 0.0271 0.07979 0.0
H679 H 0.95263 1.0051 0.08244 0.0
H680 H 0.99419 0.01304 0.11227 0.0
O681 O 0.82493 0.0322 0.13335 0.0
C682 C 0.88151 0.13279 0.1374 0.0
C683 C 0.95466 0.03817 0.1273 0.0
C684 C 0.9436 0.01773 0.09477 0.0
N685 N 0.89644 0.04515 0.10963 0.0
C686 C 0.9193 0.04969 0.12607 0.0
C687 C 0.90836 0.02952 0.09407 0.0
C688 C 0.96685 0.02212 0.11152 0.0
C689 C 0.7817 0.16063 0.10387 0.0
N690 N 0.79438 0.1553 0.12141 0.0
C691 C 0.79513 0.20521 0.09689 0.0
C692 C 0.8218 0.24449 0.108 0.0
C693 C 0.83468 0.23878 0.12587 0.0
C694 C 0.82063 0.19367 0.13238 0.0
C695 C 0.70716 0.13329 0.16931 0.0
C696 C 0.76295 0.09244 0.16997 0.0
C697 C 0.72433 0.12486 0.15288 0.0
N698 N 0.75193 0.10474 0.15336 0.0
C699 C 0.74645 0.10039 0.18669 0.0
C700 C 0.71837 0.12097 0.18632 0.0
C701 C 0.78428 0.01193 0.14063 0.0
C702 C 0.74011 0.95359 0.07632 0.0
C703 C 0.80294 0.96129 0.10353 0.0
C704 C 0.77171 0.91724 0.09612 0.0
C705 C 0.74036 0.91351 0.0823 0.0
N706 N 0.80369 1.00091 0.09721 0.0
C707 C 0.77176 0.99704 0.08411 0.0
H708 H 0.97596 0.15605 0.13606 0.0
H709 H 0.87258 0.16075 0.17219 0.0
H710 H 0.92873 0.18727 0.19806 0.0
H711 H 0.02416 0.11345 0.16972 0.0
H712 H 0.0844 0.14876 0.1624 0.0
H713 H 0.03761 0.13265 0.14587 0.0
H714 H 0.06904 0.21985 0.13782 0.0
H715 H 0.11658 0.2365 0.15406 0.0
H716 H 0.07858 0.26095 0.15621 0.0
H717 H 0.99302 0.20647 0.22117 0.0
H718 H 0.06504 0.22614 0.23885 0.0
H719 H 0.12993 0.2141 0.18818 0.0
C720 C 0.9654 0.1635 0.1493 0.0
C721 C 0.91927 0.15585 0.15189 0.0
C722 C 0.90725 0.16589 0.16962 0.0
C723 C 0.93901 0.18098 0.18455 0.0
C724 C 0.98338 0.18667 0.18172 0.0
C725 C 0.99706 0.17911 0.16448 0.0
C726 C 0.04706 0.18783 0.16541 0.0
C727 C 0.04836 0.143 0.16057 0.0
C728 C 0.07975 0.22872 0.15262 0.0
C729 C 0.05886 0.20087 0.18585 0.0
C730 C 0.02137 0.19955 0.195 0.0
C731 C 0.02286 0.20822 0.21409 0.0
C732 C 0.06389 0.21916 0.22407 0.0
C733 C 0.10341 0.22206 0.21498 0.0
C734 C 0.10058 0.21271 0.19556 0.0
H735 H 0.875 0.13846 0.5125 0.0
H736 H 0.92602 0.08347 0.55583 0.0
H737 H 0.89048 0.00726 0.53932 0.0
H738 H 0.76516 0.03309 0.50329 0.0
H739 H 0.76783 0.04209 0.47847 0.0
H740 H 0.79612 0.09175 0.49391 0.0
H741 H 0.87488 0.12017 0.47672 0.0
H742 H 0.84691 0.07056 0.46123 0.0
H743 H 0.89796 0.08104 0.47436 0.0
H744 H 0.84702 0.93617 0.51866 0.0
H745 H 0.80286 0.87644 0.49474 0.0
H746 H 0.78395 0.97798 0.46311 0.0
C747 C 0.87836 0.1103 0.51866 0.0
C748 C 0.90289 0.11701 0.53573 0.0
C749 C 0.90726 0.07934 0.54294 0.0
C750 C 0.88715 0.03587 0.53361 0.0
C751 C 0.86335 0.03059 0.51686 0.0
C752 C 0.85927 0.06693 0.50933 0.0
C753 C 0.83325 0.0525 0.49078 0.0
C754 C 0.78789 0.05501 0.49167 0.0
C755 C 0.86516 0.08288 0.47483 0.0
C756 C 0.82256 1.00198 0.48915 0.0
C757 C 0.84011 0.99018 0.50446 0.0
C758 C 0.83345 0.94522 0.50661 0.0
C759 C 0.80808 0.91142 0.49293 0.0
C760 C 0.78987 0.92236 0.477 0.0
C761 C 0.79776 0.96861 0.47501 0.0
H762 H 0.8373 0.88523 0.88171 0.0
H763 H 0.69152 0.80901 0.86386 0.0
H764 H 0.71139 0.76881 0.83995 0.0
H765 H 0.8883 0.90171 0.8363 0.0
H766 H 0.93562 0.89242 0.84329 0.0
H767 H 0.91065 0.91504 0.85976 0.0
H768 H 0.89323 0.84716 0.88245 0.0
H769 H 0.91872 0.82477 0.86612 0.0
H770 H 0.8597 0.78734 0.87443 0.0
H771 H 0.74628 0.73832 0.81681 0.0
H772 H 0.79386 0.71462 0.7979 0.0
H773 H 0.91703 0.80738 0.83031 0.0
C774 C 0.80942 0.85953 0.87299 0.0
C775 C 0.76263 0.85063 0.8749 0.0
C776 C 0.72757 0.8169 0.86291 0.0
C777 C 0.73851 0.79377 0.84913 0.0
C778 C 0.78481 0.80413 0.84732 0.0
C779 C 0.81973 0.83567 0.85905 0.0
C780 C 0.86668 0.83988 0.85396 0.0
C781 C 0.90242 0.89026 0.84797 0.0
C782 C 0.88569 0.82382 0.87021 0.0
C783 C 0.85249 0.80601 0.83756 0.0
C784 C 0.80507 0.78608 0.83393 0.0
C785 C 0.78347 0.75374 0.81951 0.0
C786 C 0.81074 0.7407 0.80874 0.0
C787 C 0.85913 0.75989 0.81236 0.0
C788 C 0.88025 0.79301 0.82697 0.0
H789 H 0.89687 0.76573 0.18288 0.0
H790 H 0.96611 0.78907 0.23641 0.0
H791 H 0.04338 0.82948 0.22065 0.0
H792 H 0.97813 0.74702 0.15549 0.0
H793 H 0.97592 0.77905 0.13552 0.0
H794 H 0.92604 0.75032 0.15085 0.0
H795 H 0.92769 0.82898 0.15578 0.0
H796 H 0.97762 0.858 0.14048 0.0
H797 H 0.98089 0.87953 0.16382 0.0
H798 H 0.11273 0.86472 0.19919 0.0
H799 H 0.17059 0.89838 0.17396 0.0
H800 H 0.05877 0.85919 0.13372 0.0
C801 C 0.92835 0.77884 0.19126 0.0
C802 C 0.92539 0.77335 0.21094 0.0
C803 C 0.96742 0.79236 0.22139 0.0
C804 C 0.01146 0.81538 0.21252 0.0
C805 C 0.01315 0.82017 0.19316 0.0
C806 C 0.97277 0.80304 0.18263 0.0
C807 C 0.98472 0.81505 0.1621 0.0
C808 C 0.96503 0.77018 0.15029 0.0
C809 C 0.96666 0.8473 0.15514 0.0
C810 C 0.03823 0.84086 0.16266 0.0
C811 C 0.05355 0.84291 0.18077 0.0
C812 C 0.10105 0.86341 0.185 0.0
C813 C 0.13378 0.88221 0.17048 0.0
C814 C 0.11959 0.88123 0.15175 0.0
C815 C 0.0709 0.86064 0.14784 0.0
H816 H 0.20921 0.05921 0.46647 0.0
H817 H 0.26757 0.17077 0.50778 0.0
H818 H 0.24218 0.11271 0.53265 0.0
H819 H 0.10728 0.97954 0.49356 0.0
H820 H 0.10759 0.9272 0.48652 0.0
H821 H 0.13113 0.97737 0.47125 0.0
H822 H 0.21007 0.97803 0.46984 0.0
H823 H 0.18675 0.92794 0.48515 0.0
H824 H 0.24028 0.98085 0.49117 0.0
H825 H 0.20708 0.04411 0.55376 0.0
H826 H 0.16674 0.96721 0.56964 0.0
H827 H 0.13328 0.89714 0.51606 0.0
C828 C 0.21705 0.07138 0.48072 0.0
C829 C 0.24085 0.1202 0.48487 0.0
C830 C 0.24975 0.13409 0.50388 0.0
C831 C 0.23536 0.1012 0.5183 0.0
C832 C 0.21196 0.05381 0.51382 0.0
C833 C 0.20293 0.03859 0.49555 0.0
C834 C 0.17643 0.98504 0.49495 0.0
C835 C 0.12773 0.96618 0.48604 0.0
C836 C 0.2051 0.9669 0.48466 0.0
C837 C 0.17231 0.9731 0.51566 0.0
C838 C 0.19278 0.01353 0.52623 0.0
C839 C 0.19148 0.01213 0.54565 0.0
C840 C 0.16852 0.96829 0.55458 0.0
C841 C 0.14774 0.92617 0.54418 0.0
C842 C 0.15 0.92875 0.52442 0.0
H843 H 0.18834 0.14005 0.88603 0.0
H844 H 0.3036 0.15463 0.85172 0.0
H845 H 0.27797 0.18621 0.8263 0.0
H846 H 0.10361 0.10478 0.85009 0.0
H847 H 0.07697 0.13788 0.8581 0.0
H848 H 0.1051 0.11841 0.87447 0.0
H849 H 0.15875 0.20368 0.8857 0.0
H850 H 0.13041 0.22354 0.86958 0.0
H851 H 0.19326 0.24883 0.86898 0.0
H852 H 0.23581 0.20875 0.80307 0.0
H853 H 0.18563 0.23113 0.78525 0.0
H854 H 0.10072 0.20863 0.83449 0.0
C855 C 0.20875 0.15074 0.87332 0.0
C856 C 0.24801 0.14426 0.87106 0.0
C857 C 0.27331 0.15865 0.85401 0.0
C858 C 0.25896 0.17668 0.83934 0.0
C859 C 0.21946 0.18111 0.84178 0.0
C860 C 0.19518 0.16954 0.85845 0.0
C861 C 0.15382 0.17801 0.8572 0.0
C862 C 0.10711 0.13203 0.86014 0.0
C863 C 0.15941 0.21577 0.8712 0.0
C864 C 0.15851 0.19549 0.83723 0.0
C865 C 0.19636 0.19645 0.82854 0.0
C866 C 0.20649 0.20887 0.80981 0.0
C867 C 0.17767 0.22131 0.79974 0.0
C868 C 0.13957 0.22216 0.80845 0.0
C869 C 0.13003 0.20902 0.82749 0.0
H870 H 0.63393 0.53851 0.21547 0.0
H871 H 0.60819 0.63108 0.25017 0.0
H872 H 0.52587 0.56828 0.25433 0.0
H873 H 0.52452 0.48749 0.19169 0.0
H874 H 0.51722 0.42956 0.19026 0.0
H875 H 0.57525 0.48019 0.1913 0.0
H876 H 0.59423 0.44544 0.22015 0.0
H877 H 0.53619 0.39464 0.2192 0.0
H878 H 0.55646 0.42886 0.24025 0.0
H879 H 0.44572 0.49679 0.25391 0.0
H880 H 0.37217 0.42301 0.24768 0.0
H881 H 0.44802 0.37675 0.21224 0.0
C882 C 0.61112 0.54525 0.22418 0.0
C883 C 0.62764 0.58966 0.23262 0.0
C884 C 0.5964 0.59739 0.24358 0.0
C885 C 0.54958 0.56186 0.24608 0.0
C886 C 0.53421 0.51871 0.23742 0.0
C887 C 0.56391 0.51026 0.22661 0.0
C888 C 0.53755 0.46172 0.2179 0.0
C889 C 0.53871 0.46495 0.19652 0.0
C890 C 0.55729 0.43084 0.22479 0.0
C891 C 0.4884 0.44444 0.22538 0.0
C892 C 0.48747 0.47773 0.23678 0.0
C893 C 0.44606 0.47038 0.24506 0.0
C894 C 0.40436 0.42821 0.24143 0.0
C895 C 0.40404 0.39379 0.22948 0.0
C896 C 0.44693 0.40208 0.22152 0.0
H897 H 0.08056 0.63456 0.5606 0.0
H898 H 0.94406 0.60942 0.57872 0.0
H899 H 0.91567 0.52464 0.58058 0.0
H900 H 0.0384 0.53569 0.53148 0.0
H901 H 0.08414 0.52272 0.53694 0.0
H902 H 0.09548 0.58203 0.53867 0.0
H903 H 0.12123 0.58587 0.57301 0.0
H904 H 0.11012 0.52655 0.57137 0.0
H905 H 0.08197 0.542 0.58928 0.0
H906 H 0.89983 0.44199 0.57819 0.0
H907 H 0.89832 0.36744 0.5722 0.0
H908 H 0.04497 0.4454 0.55583 0.0
C909 C 0.045 0.61132 0.56532 0.0
C910 C 0.01462 0.6288 0.56958 0.0
C911 C 0.96806 0.59702 0.57538 0.0
C912 C 0.95158 0.5487 0.57652 0.0
C913 C 0.98202 0.53249 0.57187 0.0
C914 C 0.02785 0.56279 0.56649 0.0
C915 C 0.0525 0.53586 0.56134 0.0
C916 C 0.06856 0.5446 0.5409 0.0
C917 C 0.09391 0.54832 0.57454 0.0
C918 C 0.01312 0.48576 0.56434 0.0
C919 C 0.97286 0.48465 0.57052 0.0
C920 C 0.9313 0.44243 0.57354 0.0
C921 C 0.93076 0.40021 0.57006 0.0
C922 C 0.97151 0.40039 0.56361 0.0
C923 C 0.0133 0.44392 0.56091 0.0
H924 H 0.39693 0.95548 0.8866 0.0
H925 H 0.44442 0.07997 0.92066 0.0
H926 H 0.51469 0.07562 0.9297 0.0
H927 H 0.43938 0.89516 0.9179 0.0
H928 H 0.45566 0.87105 0.8987 0.0
H929 H 0.4074 0.88187 0.89627 0.0
H930 H 0.44723 0.93328 0.86723 0.0
H931 H 0.49565 0.92285 0.86964 0.0
H932 H 0.50631 0.98213 0.86907 0.0
H933 H 0.58484 0.06306 0.93179 0.0
H934 H 0.64511 0.0394 0.92888 0.0
H935 H 0.5495 0.92059 0.89497 0.0
C936 C 0.42162 0.98133 0.89626 0.0
C937 C 0.41499 0.01801 0.90296 0.0
C938 C 0.44837 0.05126 0.91549 0.0
C939 C 0.48855 0.04918 0.92064 0.0
C940 C 0.49454 0.01318 0.91341 0.0
C941 C 0.46153 0.97938 0.90173 0.0
C942 C 0.47684 0.94516 0.89539 0.0
C943 C 0.44279 0.89536 0.9025 0.0
C944 C 0.48181 0.94593 0.87407 0.0
C945 C 0.52419 0.96563 0.90491 0.0
C946 C 0.53391 1.00494 0.91521 0.0
C947 C 0.57714 0.03179 0.92407 0.0
C948 C 0.61123 0.01818 0.92231 0.0
C949 C 0.60179 0.97778 0.91196 0.0
C950 C 0.5574 0.951 0.90336 0.0
H951 H 0.59688 0.5858 0.47131 0.0
H952 H 0.56281 0.66394 0.43175 0.0
H953 H 0.48993 0.59087 0.42331 0.0
H954 H 0.55159 0.47839 0.44384 0.0
H955 H 0.52964 0.44092 0.46401 0.0
H956 H 0.58018 0.49884 0.46606 0.0
H957 H 0.53852 0.51848 0.49217 0.0
H958 H 0.48782 0.46075 0.49015 0.0
H959 H 0.48158 0.51183 0.48775 0.0
H960 H 0.41754 0.50886 0.42065 0.0
H961 H 0.35412 0.42603 0.42353 0.0
H962 H 0.43694 0.40237 0.46454 0.0
C963 C 0.57448 0.58762 0.46069 0.0
C964 C 0.58586 0.63083 0.45217 0.0
C965 C 0.55516 0.63138 0.43843 0.0
C966 C 0.51358 0.58998 0.43356 0.0
C967 C 0.50315 0.54814 0.44245 0.0
C968 C 0.53298 0.5467 0.45565 0.0
C969 C 0.51328 0.49769 0.46357 0.0
C970 C 0.5456 0.47779 0.4591 0.0
C971 C 0.5048 0.49718 0.48466 0.0
C972 C 0.46739 0.4718 0.45298 0.0
C973 C 0.46209 0.50135 0.44082 0.0
C974 C 0.42161 0.48542 0.43003 0.0
C975 C 0.38568 0.43826 0.43177 0.0
C976 C 0.39037 0.40741 0.44421 0.0
C977 C 0.43213 0.4247 0.45479 0.0
H978 H 0.02633 0.58795 0.7979 0.0
H979 H 0.88119 0.52288 0.77981 0.0
H980 H 0.88011 0.44822 0.77469 0.0
H981 H 0.06314 0.52595 0.76618 0.0
H982 H 0.09988 0.51976 0.78323 0.0
H983 H 0.09041 0.56905 0.78437 0.0
H984 H 0.06076 0.54694 0.81828 0.0
H985 H 0.07006 0.49757 0.81724 0.0
H986 H 0.01306 0.48874 0.82329 0.0
H987 H 0.89414 0.38014 0.77196 0.0
H988 H 0.9208 0.32235 0.77331 0.0
H989 H 0.05602 0.43001 0.79444 0.0
C990 C 0.99452 0.55816 0.79263 0.0
C991 C 0.95392 0.56147 0.78911 0.0
C992 C 0.91274 0.52133 0.78257 0.0
C993 C 0.91182 0.47875 0.77957 0.0
C994 C 0.95223 0.47654 0.78332 0.0
C995 C 0.99277 0.51507 0.78981 0.0
C996 C 0.03056 0.50251 0.79364 0.0
C997 C 0.07354 0.53101 0.7811 0.0
C998 C 0.04441 0.50934 0.81434 0.0
C999 C 1.00487 0.4509 0.78836 0.0
C1000 C 0.95989 0.43682 0.78228 0.0
C1001 C 0.9293 0.39079 0.7767 0.0
C1002 C 0.94485 0.35817 0.77751 0.0
C1003 C 0.99052 0.37141 0.78401 0.0
C1004 C 0.02091 0.41863 0.7894 0.0
H1005 H 0.39413 0.93056 0.12512 0.0
H1006 H 0.41831 0.05196 0.09287 0.0
H1007 H 0.50211 0.07542 0.08957 0.0
H1008 H 0.49742 0.98987 0.15114 0.0
H1009 H 0.50835 0.94152 0.15246 0.0
H1010 H 0.44926 0.93032 0.14981 0.0
H1011 H 0.43895 0.88131 0.12018 0.0
H1012 H 0.49809 0.89226 0.12275 0.0
H1013 H 0.48019 0.90711 0.10129 0.0
H1014 H 0.58469 0.08864 0.09165 0.0
H1015 H 0.6595 0.09366 0.10079 0.0
H1016 H 0.58226 0.96617 0.13329 0.0
C1017 C 0.41682 0.9613 0.1169 0.0
C1018 C 0.39956 0.98899 0.10892 0.0
C1019 C 0.43071 0.02998 0.09889 0.0
C1020 C 0.47834 0.04351 0.09692 0.0
C1021 C 0.49453 0.01599 0.10526 0.0
C1022 C 0.46471 0.97585 0.11514 0.0
C1023 C 0.49176 0.95522 0.12441 0.0
C1024 C 0.48638 0.9542 0.14571 0.0
C1025 C 0.47632 0.90605 0.11669 0.0
C1026 C 0.5415 0.99038 0.11846 0.0
C1027 C 0.54229 0.0247 0.10714 0.0
C1028 C 0.5844 0.06172 0.1004 0.0
C1029 C 0.62679 0.06421 0.10562 0.0
C1030 C 0.62694 0.03028 0.11772 0.0
C1031 C 0.58348 0.99258 0.12394 0.0
H1032 H 0.33193 0.08881 0.15506 0.0
H1033 H 0.2471 0.95953 0.18515 0.0
H1034 H 0.24393 1.00418 0.21196 0.0
H1035 H 0.39155 0.16712 0.20017 0.0
H1036 H 0.39001 0.2153 0.18894 0.0
H1037 H 0.40068 0.17548 0.1754 0.0
H1038 H 0.33227 0.16143 0.15414 0.0
H1039 H 0.31853 0.19833 0.1678 0.0
H1040 H 0.27401 0.13814 0.16362 0.0
H1041 H 0.22251 0.05559 0.22786 0.0
H1042 H 0.20208 0.11449 0.23705 0.0
H1043 H 0.3084 0.21575 0.19987 0.0
C1044 C 0.31576 0.0705 0.16787 0.0
C1045 C 0.29026 0.02107 0.16831 0.0
C1046 C 0.26768 0.99743 0.18482 0.0
C1047 C 0.26551 0.02263 0.20007 0.0
C1048 C 0.28724 0.07134 0.19861 0.0
C1049 C 0.31394 0.09544 0.18329 0.0
C1050 C 0.3276 0.14682 0.184 0.0
C1051 C 0.38061 0.17803 0.18733 0.0
C1052 C 0.31204 0.16198 0.16635 0.0
C1053 C 0.29998 0.14649 0.20084 0.0
C1054 C 0.2774 0.1027 0.20916 0.0
C1055 C 0.24238 0.09087 0.22237 0.0
C1056 C 0.23095 0.12477 0.22751 0.0
C1057 C 0.2554 0.17068 0.21995 0.0
C1058 C 0.29054 0.1816 0.20648 0.0
H1059 H 0.0872 0.34731 0.51681 0.0
H1060 H 0.95945 0.2343 0.49343 0.0
H1061 H 1.00469 0.22538 0.46824 0.0
H1062 H 0.15786 0.38782 0.46856 0.0
H1063 H 0.21035 0.39977 0.48095 0.0
H1064 H 0.16773 0.41116 0.49187 0.0
H1065 H 0.16458 0.35999 0.5194 0.0
H1066 H 0.2046 0.34565 0.50857 0.0
H1067 H 0.14748 0.29922 0.51564 0.0
H1068 H 0.06117 0.20602 0.45587 0.0
H1069 H 0.12563 0.19066 0.45092 0.0
H1070 H 0.22119 0.31989 0.47956 0.0
C1071 C 0.06878 0.32342 0.50547 0.0
C1072 C 0.02005 0.29202 0.50673 0.0
C1073 C 0.99656 0.25959 0.49229 0.0
C1074 C 0.02222 0.25398 0.47804 0.0
C1075 C 0.07105 0.28188 0.4783 0.0
C1076 C 0.09419 0.31759 0.49115 0.0
C1077 C 0.14686 0.33687 0.49048 0.0
C1078 C 0.1722 0.38687 0.48248 0.0
C1079 C 0.16694 0.33519 0.50967 0.0
C1080 C 0.14898 0.30267 0.47706 0.0
C1081 C 0.10498 0.27183 0.46995 0.0
C1082 C 0.09625 0.2316 0.46034 0.0
C1083 C 0.13331 0.22308 0.45766 0.0
C1084 C 0.17912 0.25512 0.46417 0.0
C1085 C 0.18697 0.29565 0.47385 0.0
H1086 H 0.94055 0.21164 0.83095 0.0
H1087 H 0.92849 0.11905 0.78576 0.0
H1088 H 0.85078 0.0602 0.79658 0.0
H1089 H 0.901 0.12229 0.86323 0.0
H1090 H 0.87153 0.14388 0.87787 0.0
H1091 H 0.91994 0.18404 0.86366 0.0
H1092 H 0.86647 0.21252 0.84888 0.0
H1093 H 0.81761 0.17108 0.86283 0.0
H1094 H 0.8122 0.17062 0.83785 0.0
H1095 H 0.77995 0.00724 0.81359 0.0
H1096 H 0.73149 0.95738 0.83951 0.0
H1097 H 0.79117 0.07831 0.87593 0.0
C1098 C 0.92079 0.17954 0.82306 0.0
C1099 C 0.93966 0.17122 0.80684 0.0
C1100 C 0.91396 0.12762 0.79753 0.0
C1101 C 0.8695 0.09372 0.8036 0.0
C1102 C 0.85153 0.10302 0.81946 0.0
C1103 C 0.87692 0.14423 0.82945 0.0
C1104 C 0.85448 0.1409 0.84818 0.0
C1105 C 0.88877 0.14816 0.86416 0.0
C1106 C 0.83662 0.17587 0.8495 0.0
C1107 C 0.81399 0.09077 0.84741 0.0
C1108 C 0.81173 0.07035 0.83036 0.0
C1109 C 0.78055 0.02292 0.8269 0.0
C1110 C 0.75289 0.99489 0.84161 0.0
C1111 C 0.75758 0.01448 0.85946 0.0
C1112 C 0.7867 0.06314 0.86221 0.0
H1113 H 0.84234 0.98193 0.15265 0.0
H1114 H 0.69513 0.942 0.15078 0.0
H1115 H 0.67404 0.86363 0.16355 0.0
H1116 H 0.82685 0.87248 0.13734 0.0
H1117 H 0.87315 0.8763 0.15199 0.0
H1118 H 0.87586 0.92902 0.14342 0.0
H1119 H 0.88303 0.96039 0.17718 0.0
H1120 H 0.88223 0.90867 0.18566 0.0
H1121 H 0.84026 0.92388 0.19435 0.0
H1122 H 0.67116 0.79006 0.17751 0.0
H1123 H 0.68745 0.73321 0.19385 0.0
H1124 H 0.83591 0.82259 0.18296 0.0
C1125 C 0.80551 0.957 0.15494 0.0
C1126 C 0.77031 0.96794 0.15069 0.0
C1127 C 0.72267 0.93432 0.15409 0.0
C1128 C 0.71042 0.88966 0.16109 0.0
C1129 C 0.74628 0.87955 0.16433 0.0
C1130 C 0.79285 0.91267 0.16145 0.0
C1131 C 0.8254 0.89445 0.16607 0.0
C1132 C 0.85185 0.89297 0.14867 0.0
C1133 C 0.85969 0.92356 0.18175 0.0
C1134 C 0.79007 0.84589 0.17252 0.0
C1135 C 0.74448 0.83741 0.17135 0.0
C1136 C 0.70657 0.79601 0.17816 0.0
C1137 C 0.71597 0.76371 0.18719 0.0
C1138 C 0.76278 0.77364 0.18928 0.0
C1139 C 0.79976 0.81404 0.18114 0.0
H1140 H 0.86617 0.83701 0.47345 0.0
H1141 H 0.75184 0.69364 0.47973 0.0
H1142 H 0.80714 0.67249 0.49443 0.0
H1143 H 0.95777 0.81114 0.46275 0.0
H1144 H 1.00116 0.86086 0.47577 0.0
H1145 H 0.95299 0.86312 0.46488 0.0
H1146 H 0.92919 0.88281 0.49666 0.0
H1147 H 0.97807 0.88199 0.50738 0.0
H1148 H 0.91969 0.84513 0.51637 0.0
H1149 H 0.8755 0.66964 0.51014 0.0
H1150 H 0.94633 0.68757 0.52858 0.0
H1151 H 0.01336 0.83216 0.51034 0.0
C1152 C 0.85248 0.80091 0.47771 0.0
C1153 C 0.8048 0.76682 0.47533 0.0
C1154 C 0.78834 0.7203 0.48148 0.0
C1155 C 0.81956 0.70794 0.48961 0.0
C1156 C 0.86678 0.74254 0.49132 0.0
C1157 C 0.88279 0.78817 0.48567 0.0
C1158 C 0.93391 0.82013 0.49015 0.0
C1159 C 0.96317 0.83996 0.47232 0.0
C1160 C 0.94056 0.8598 0.50343 0.0
C1161 C 0.9444 0.78566 0.49963 0.0
C1162 C 0.90565 0.74083 0.49999 0.0
C1163 C 0.90626 0.70431 0.50961 0.0
C1164 C 0.94669 0.71457 0.51984 0.0
C1165 C 0.98513 0.76095 0.52042 0.0
C1166 C 0.98466 0.79622 0.50961 0.0
H1167 H 0.155 0.97037 0.86296 0.0
H1168 H 0.2624 0.93119 0.8671 0.0
H1169 H 0.20578 0.85223 0.85451 0.0
H1170 H 0.06426 0.86279 0.88059 0.0
H1171 H 0.01961 0.8638 0.86637 0.0
H1172 H 0.07011 0.91801 0.87358 0.0
H1173 H 0.09055 0.94528 0.83913 0.0
H1174 H 0.0387 0.89225 0.83215 0.0
H1175 H 0.09486 0.90671 0.82244 0.0
H1176 H 0.13462 0.77728 0.84047 0.0
H1177 H 0.06029 0.71868 0.82513 0.0
H1178 H 1.00041 0.80684 0.8364 0.0
C1179 C 0.16722 0.94564 0.86105 0.0
C1180 C 0.21311 0.9569 0.86601 0.0
C1181 C 0.22743 0.92337 0.86319 0.0
C1182 C 0.19533 0.87833 0.85632 0.0
C1183 C 0.14923 0.86761 0.85277 0.0
C1184 C 0.13559 0.90069 0.85508 0.0
C1185 C 0.08417 0.88118 0.8513 0.0
C1186 C 0.05801 0.88146 0.86901 0.0
C1187 C 0.07669 0.90793 0.8353 0.0
C1188 C 0.07079 0.83201 0.84576 0.0
C1189 C 0.10842 0.82434 0.84662 0.0
C1190 C 0.10474 0.7826 0.84015 0.0
C1191 C 0.06233 0.74922 0.83172 0.0
C1192 C 0.02477 0.75822 0.83005 0.0
C1193 C 0.02842 0.79885 0.838 0.0
H1194 H 0.23657 0.15183 0.37778 0.0
H1195 H 0.37096 0.27718 0.38761 0.0
H1196 H 0.35914 0.31386 0.35979 0.0
H1197 H 0.23938 0.15871 0.32636 0.0
H1198 H 0.17735 0.13784 0.32488 0.0
H1199 H 0.2001 0.11939 0.34387 0.0
H1200 H 0.16073 0.14945 0.36707 0.0
H1201 H 0.13931 0.16923 0.34811 0.0
H1202 H 0.17502 0.20988 0.36597 0.0
H1203 H 0.32877 0.34056 0.33278 0.0
H1204 H 0.28764 0.35017 0.30592 0.0
H1205 H 0.16861 0.21147 0.31607 0.0
C1206 C 0.2633 0.1871 0.37421 0.0
C1207 C 0.30382 0.21209 0.38542 0.0
C1208 C 0.33943 0.25711 0.37942 0.0
C1209 C 0.33279 0.27858 0.3637 0.0
C1210 C 0.29061 0.25448 0.35395 0.0
C1211 C 0.25682 0.20933 0.35874 0.0
C1212 C 0.21403 0.19158 0.34623 0.0
C1213 C 0.20734 0.14939 0.33465 0.0
C1214 C 0.16968 0.17933 0.35754 0.0
C1215 C 0.2285 0.23428 0.33403 0.0
C1216 C 0.27298 0.27 0.33857 0.0
C1217 C 0.29405 0.31262 0.32903 0.0
C1218 C 0.27002 0.31799 0.3139 0.0
C1219 C 0.22521 0.28097 0.3084 0.0
C1220 C 0.20356 0.23955 0.31927 0.0
H1221 H 0.95683 0.18998 0.63849 0.0
H1222 H 0.08768 0.27565 0.60897 0.0
H1223 H 0.12995 0.30139 0.63871 0.0
H1224 H 0.9794 0.26708 0.67703 0.0
H1225 H 0.95367 0.22093 0.69414 0.0
H1226 H 0.9333 0.20931 0.67043 0.0
H1227 H 0.95088 0.14087 0.66915 0.0
H1228 H 0.97134 0.15267 0.69288 0.0
H1229 H 1.00896 0.152 0.67481 0.0
H1230 H 0.15761 0.32355 0.67211 0.0
H1231 H 0.16892 0.33116 0.70646 0.0
H1232 H 0.02278 0.22532 0.71389 0.0
C1233 C 0.9944 0.21378 0.63832 0.0
C1234 C 0.01877 0.2306 0.6213 0.0
C1235 C 0.06807 0.26172 0.62172 0.0
C1236 C 0.09253 0.27693 0.6386 0.0
C1237 C 0.06757 0.26008 0.65511 0.0
C1238 C 0.01976 0.22842 0.65512 0.0
C1239 C 1.00172 0.21468 0.67486 0.0
C1240 C 0.96485 0.22887 0.67937 0.0
C1241 C 0.98207 0.16192 0.67811 0.0
C1242 C 0.04662 0.24393 0.68581 0.0
C1243 C 0.08416 0.27049 0.67423 0.0
C1244 C 0.1286 0.30225 0.68133 0.0
C1245 C 0.13479 0.30648 0.70079 0.0
C1246 C 0.09706 0.27827 0.71281 0.0
C1247 C 0.05259 0.24674 0.70511 0.0
H1248 H 0.77979 0.06389 0.04476 0.0
H1249 H 0.92205 0.0918 0.05285 0.0
H1250 H 0.91663 0.05034 0.02336 0.0
H1251 H 0.73463 0.94822 0.0287 0.0
H1252 H 0.69452 0.95021 0.01213 0.0
H1253 H 0.71121 0.9866 0.0326 0.0
H1254 H 0.74011 0.06104 0.0122 0.0
H1255 H 0.72242 0.02477 0.99167 0.0
H1256 H 0.78193 0.07253 0.99387 0.0
H1257 H 0.89464 1.00494 0.99261 0.0
H1258 H 0.85793 0.95933 0.9639 0.0
H1259 H 0.72779 0.95487 0.97809 0.0
C1260 C 0.81036 0.06257 0.04007 0.0
C1261 C 0.85183 0.08213 0.05091 0.0
C1262 C 0.89028 0.07784 0.04461 0.0
C1263 C 0.88738 0.05411 0.02793 0.0
C1264 C 0.84547 0.03411 0.01785 0.0
C1265 C 0.80765 0.03811 0.02372 0.0
C1266 C 0.76561 0.01109 0.01106 0.0
C1267 C 0.72405 0.9717 0.02176 0.0
C1268 C 0.75172 0.04435 1.00165 0.0
C1269 C 0.78557 0.99129 0.9971 0.0
C1270 C 0.83185 1.00533 1.00109 0.0
C1271 C 0.85825 0.99331 0.98952 0.0
C1272 C 0.83706 0.96714 0.97331 0.0
C1273 C 0.78966 0.95241 0.96899 0.0
C1274 C 0.76359 0.96418 0.98128 0.0
H1275 H 0.85629 0.81593 0.3052 0.0
H1276 H 0.73223 0.67866 0.29861 0.0
H1277 H 0.69627 0.69349 0.3259 0.0
H1278 H 0.8549 0.80975 0.35686 0.0
H1279 H 0.87673 0.87171 0.35954 0.0
H1280 H 0.89277 0.85039 0.33936 0.0
H1281 H 0.86107 0.89197 0.31811 0.0
H1282 H 0.84405 0.91252 0.33825 0.0
H1283 H 0.80114 0.87858 0.32071 0.0
H1284 H 0.67028 0.72592 0.35181 0.0
H1285 H 0.66267 0.76528 0.37958 0.0
H1286 H 0.8065 0.87817 0.37245 0.0
C1287 C 0.82196 0.78873 0.30977 0.0
C1288 C 0.79714 0.74602 0.29976 0.0
C1289 C 0.75222 0.71134 0.30614 0.0
C1290 C 0.73121 0.71966 0.32152 0.0
C1291 C 0.75599 0.76241 0.33079 0.0
C1292 C 0.80102 0.79575 0.32561 0.0
C1293 C 0.82072 0.83751 0.33881 0.0
C1294 C 0.86384 0.84263 0.34926 0.0
C1295 C 0.83243 0.88283 0.32834 0.0
C1296 C 0.77936 0.82272 0.35192 0.0
C1297 C 0.74212 0.77971 0.34673 0.0
C1298 C 0.69945 0.7593 0.35618 0.0
C1299 C 0.69531 0.78233 0.37186 0.0
C1300 C 0.73403 0.8248 0.37837 0.0
C1301 C 0.7763 0.84568 0.36793 0.0
H1302 H 0.05396 0.78011 0.64637 0.0
H1303 H 0.01071 0.8761 0.62515 0.0
H1304 H 0.97262 0.87218 0.65518 0.0
H1305 H 0.94971 0.70676 0.67159 0.0
H1306 H 0.97884 0.69724 0.69094 0.0
H1307 H 1.00521 0.70935 0.66817 0.0
H1308 H 0.08112 0.77988 0.68135 0.0
H1309 H 0.05519 0.76746 0.70422 0.0
H1310 H 0.07735 0.82491 0.69418 0.0
H1311 H 0.93664 0.85575 0.68736 0.0
H1312 H 0.91045 0.83224 0.71981 0.0
H1313 H 0.97588 0.74597 0.71991 0.0
C1314 C 0.03727 0.80103 0.64812 0.0
C1315 C 0.03558 0.82858 0.63331 0.0
C1316 C 0.01263 0.85477 0.63621 0.0
C1317 C 0.99071 0.85267 0.65324 0.0
C1318 C 0.99192 0.82422 0.66734 0.0
C1319 C 0.01502 0.79922 0.66505 0.0
C1320 C 0.01048 0.77072 0.68235 0.0
C1321 C 0.98451 0.71789 0.67799 0.0
C1322 C 0.05891 0.78671 0.69104 0.0
C1323 C 0.98112 0.78347 0.69467 0.0
C1324 C 0.97075 0.81435 0.68576 0.0
C1325 C 0.94458 0.83157 0.69446 0.0
C1326 C 0.92961 0.8178 0.7129 0.0
C1327 C 0.94068 0.78696 0.72248 0.0
C1328 C 0.9662 0.76912 0.71301 0.0
H1329 H 0.16815 0.93142 0.04046 0.0
H1330 H 0.22359 0.06151 0.07149 0.0
H1331 H 0.24257 0.106 0.04235 0.0
H1332 H 0.25083 0.9742 1.00374 0.0
H1333 H 0.20941 0.94205 0.9855 0.0
H1334 H 0.19834 0.91944 0.00891 0.0
H1335 H 0.11783 0.91571 0.00867 0.0
H1336 H 0.12865 0.93803 0.98519 0.0
H1337 H 0.11521 0.96775 1.00312 0.0
H1338 H 0.2647 0.13791 0.00968 0.0
H1339 H 0.27726 0.15293 0.97571 0.0
H1340 H 0.19954 1.0029 0.96562 0.0
C1341 C 0.18348 0.96915 0.04109 0.0
C1342 C 0.19385 0.99268 0.05843 0.0
C1343 C 0.21427 0.04225 0.05856 0.0
C1344 C 0.2257 0.06811 0.04199 0.0
C1345 C 0.21568 0.04408 0.02518 0.0
C1346 C 0.194 0.99562 0.02456 0.0
C1347 C 0.18654 0.97861 1.00454 0.0
C1348 C 0.21286 0.95201 1.00044 0.0
C1349 C 0.13392 0.94823 1.00012 0.0
C1350 C 0.20829 0.02504 0.99417 0.0
C1351 C 0.22554 0.06246 1.00631 0.0
C1352 C 0.25042 0.10885 0.99999 0.0
C1353 C 0.25754 0.11713 0.98071 0.0
C1354 C 0.23888 0.07926 0.968 0.0
C1355 C 0.21364 0.03272 0.97493 0.0
loop_
_geom_bond_atom_site_label_1
_geom_bond_atom_site_label_2
_geom_bond_distance
_geom_bond_site_symmetry_2
_ccdc_geom_bond_type
Co0 O2 2.143 . S
Co0 O8 2.074 . S
Co0 O11 2.093 . S
Co0 O24 2.097 . S
Co0 N41 2.151 . S
Co0 N49 2.214 . S
Co1 O2 2.160 . S
Co1 O7 2.058 . S
Co1 O17 2.057 . S
Co1 O32 2.037 . S
Co1 N36 2.145 . S
Co1 N57 2.257 . S
O2 Co0 2.143 . S
O2 Co1 2.160 . S
C3 O4 1.278 . S
C3 O11 1.224 . S
O4 C3 1.278 . S
C5 O6 1.245 . S
C5 O17 1.232 . S
O6 C5 1.245 . S
O7 Co1 2.058 . S
O7 C33 1.269 . S
O8 Co0 2.074 . S
O8 C33 1.257 . S
H9 C34 0.930 . S
H10 C40 0.930 . S
O11 Co0 2.093 . S
O11 C3 1.224 . S
H12 C44 0.929 . S
H13 C46 0.930 . S
H14 C47 0.930 . S
H15 C45 0.929 . S
H16 C48 0.928 . S
O17 Co1 2.057 . S
O17 C5 1.232 . S
H18 C37 0.929 . S
H19 C38 0.929 . S
H20 C50 0.931 . S
H21 C42 0.929 . S
H22 C51 0.930 . S
H23 C43 0.931 . S
O24 Co0 2.097 . S
O24 C52 1.214 . S
H25 C53 0.929 . S
H26 C54 0.929 . S
H27 C55 0.930 . S
H28 C56 0.929 . S
H29 C58 0.930 . S
H30 C35 0.930 . S
H31 C39 0.930 . S
O32 Co1 2.037 . S
O32 C52 1.234 . S
C33 O7 1.269 . S
C33 O8 1.257 . S
C34 H9 0.930 . S
C34 C37 1.388 . S
C34 C39 1.418 . S
C35 H30 0.930 . S
C35 C38 1.404 . S
C35 C39 1.353 . S
N36 Co1 2.145 . S
N36 C37 1.397 . S
N36 C38 1.334 . S
C37 H18 0.929 . S
C37 C34 1.388 . S
C37 N36 1.397 . S
C38 H19 0.929 . S
C38 C35 1.404 . S
C38 N36 1.334 . S
C39 H31 0.930 . S
C39 C34 1.418 . S
C39 C35 1.353 . S
C40 H10 0.930 . S
C40 N41 1.330 . S
C40 C42 1.446 . S
N41 Co0 2.151 . S
N41 C40 1.330 . S
N41 C45 1.418 . S
C42 H21 0.929 . S
C42 C40 1.446 . S
C42 C43 1.332 . S
C43 H23 0.931 . S
C43 C42 1.332 . S
C43 C44 1.267 . S
C44 H12 0.929 . S
C44 C43 1.267 . S
C44 C45 1.251 . S
C45 H15 0.929 . S
C45 N41 1.418 . S
C45 C44 1.251 . S
C46 H13 0.930 . S
C46 C48 1.406 . S
C46 C51 1.261 . S
C47 H14 0.930 . S
C47 N49 1.325 . S
C47 C50 1.357 . S
C48 H16 0.928 . S
C48 C46 1.406 . S
C48 N49 1.261 . S
N49 Co0 2.214 . S
N49 C47 1.325 . S
N49 C48 1.261 . S
C50 H20 0.931 . S
C50 C47 1.357 . S
C50 C51 1.312 . S
C51 H22 0.930 . S
C51 C46 1.261 . S
C51 C50 1.312 . S
C52 O24 1.214 . S
C52 O32 1.234 . S
C53 H25 0.929 . S
C53 C56 1.391 . S
C53 C58 1.391 . S
C54 H26 0.929 . S
C54 C55 1.390 . S
C54 N57 1.391 . S
C55 H27 0.930 . S
C55 C54 1.390 . S
C55 C56 1.392 . S
C56 H28 0.929 . S
C56 C53 1.391 . S
C56 C55 1.392 . S
N57 Co1 2.257 . S
N57 C54 1.391 . S
N57 C58 1.388 . S
C58 H29 0.930 . S
C58 C53 1.391 . S
C58 N57 1.388 . S
Co59 O61 2.143 . S
Co59 O67 2.074 . S
Co59 O70 2.093 . S
Co59 O83 2.097 1_655 S
Co59 N100 2.151 . S
Co59 N108 2.214 . S
Co60 O61 2.160 1_455 S
Co60 O66 2.058 1_455 S
Co60 O76 2.057 1_455 S
Co60 O91 2.037 . S
Co60 N95 2.145 . S
Co60 N116 2.257 . S
O61 Co59 2.143 . S
O61 Co60 2.160 1_655 S
C62 O63 1.278 1_655 S
C62 O70 1.224 . S
O63 C62 1.278 1_455 S
C64 O65 1.245 . S
C64 O76 1.232 . S
O65 C64 1.245 . S
O66 Co60 2.058 1_655 S
O66 C92 1.269 . S
O67 Co59 2.074 . S
O67 C92 1.257 . S
H68 C93 0.930 . S
H69 C99 0.930 . S
O70 Co59 2.093 . S
O70 C62 1.224 . S
H71 C103 0.929 . S
H72 C105 0.930 . S
H73 C106 0.930 . S
H74 C104 0.929 . S
H75 C107 0.928 . S
O76 Co60 2.057 1_655 S
O76 C64 1.232 . S
H77 C96 0.929 . S
H78 C97 0.929 . S
H79 C109 0.931 . S
H80 C101 0.929 . S
H81 C110 0.930 . S
H82 C102 0.931 . S
O83 Co59 2.097 1_455 S
O83 C111 1.214 . S
H84 C112 0.929 . S
H85 C113 0.929 . S
H86 C114 0.930 . S
H87 C115 0.929 . S
H88 C117 0.930 . S
H89 C94 0.930 . S
H90 C98 0.930 . S
O91 Co60 2.037 . S
O91 C111 1.234 . S
C92 O66 1.269 . S
C92 O67 1.257 . S
C93 H68 0.930 . S
C93 C96 1.388 . S
C93 C98 1.418 . S
C94 H89 0.930 . S
C94 C97 1.404 . S
C94 C98 1.353 . S
N95 Co60 2.145 . S
N95 C96 1.397 . S
N95 C97 1.334 . S
C96 H77 0.929 . S
C96 C93 1.388 . S
C96 N95 1.397 . S
C97 H78 0.929 . S
C97 C94 1.404 . S
C97 N95 1.334 . S
C98 H90 0.930 . S
C98 C93 1.418 . S
C98 C94 1.353 . S
C99 H69 0.930 . S
C99 N100 1.330 . S
C99 C101 1.446 . S
N100 Co59 2.151 . S
N100 C99 1.330 . S
N100 C104 1.418 . S
C101 H80 0.929 . S
C101 C99 1.446 . S
C101 C102 1.332 . S
C102 H82 0.931 . S
C102 C101 1.332 . S
C102 C103 1.267 . S
C103 H71 0.929 . S
C103 C102 1.267 . S
C103 C104 1.251 . S
C104 H74 0.929 . S
C104 N100 1.418 . S
C104 C103 1.251 . S
C105 H72 0.930 . S
C105 C107 1.406 . S
C105 C110 1.261 . S
C106 H73 0.930 . S
C106 N108 1.325 . S
C106 C109 1.357 . S
C107 H75 0.928 . S
C107 C105 1.406 . S
C107 N108 1.261 . S
N108 Co59 2.214 . S
N108 C106 1.325 . S
N108 C107 1.261 . S
C109 H79 0.931 . S
C109 C106 1.357 . S
C109 C110 1.312 . S
C110 H81 0.930 . S
C110 C105 1.261 . S
C110 C109 1.312 . S
C111 O83 1.214 . S
C111 O91 1.234 . S
C112 H84 0.929 . S
C112 C115 1.391 . S
C112 C117 1.391 . S
C113 H85 0.929 . S
C113 C114 1.390 . S
C113 N116 1.391 . S
C114 H86 0.930 . S
C114 C113 1.390 . S
C114 C115 1.392 . S
C115 H87 0.929 . S
C115 C112 1.391 . S
C115 C114 1.392 . S
N116 Co60 2.257 . S
N116 C113 1.391 . S
N116 C117 1.388 . S
C117 H88 0.930 . S
C117 C112 1.391 . S
C117 N116 1.388 . S
Co118 O120 2.143 . S
Co118 O126 2.074 . S
Co118 O129 2.093 . S
Co118 O142 2.097 1_565 S
Co118 N159 2.151 . S
Co118 N167 2.214 . S
Co119 O120 2.160 1_545 S
Co119 O125 2.058 1_545 S
Co119 O135 2.057 1_545 S
Co119 O150 2.037 . S
Co119 N154 2.145 . S
Co119 N175 2.257 . S
O120 Co118 2.143 . S
O120 Co119 2.160 1_565 S
C121 O122 1.278 1_565 S
C121 O129 1.224 . S
O122 C121 1.278 1_545 S
C123 O124 1.245 . S
C123 O135 1.232 . S
O124 C123 1.245 . S
O125 Co119 2.058 1_565 S
O125 C151 1.269 . S
O126 Co118 2.074 . S
O126 C151 1.257 . S
H127 C152 0.930 . S
H128 C158 0.930 . S
O129 Co118 2.093 . S
O129 C121 1.224 . S
H130 C162 0.929 . S
H131 C164 0.930 . S
H132 C165 0.930 . S
H133 C163 0.929 . S
H134 C166 0.928 . S
O135 Co119 2.057 1_565 S
O135 C123 1.232 . S
H136 C155 0.929 . S
H137 C156 0.929 . S
H138 C168 0.931 . S
H139 C160 0.929 . S
H140 C169 0.930 . S
H141 C161 0.931 . S
O142 Co118 2.097 1_545 S
O142 C170 1.214 . S
H143 C171 0.929 . S
H144 C172 0.929 . S
H145 C173 0.930 . S
H146 C174 0.929 . S
H147 C176 0.930 . S
H148 C153 0.930 . S
H149 C157 0.930 . S
O150 Co119 2.037 . S
O150 C170 1.234 . S
C151 O125 1.269 . S
C151 O126 1.257 . S
C152 H127 0.930 . S
C152 C155 1.388 . S
C152 C157 1.418 . S
C153 H148 0.930 . S
C153 C156 1.404 . S
C153 C157 1.353 . S
N154 Co119 2.145 . S
N154 C155 1.397 . S
N154 C156 1.334 . S
C155 H136 0.929 . S
C155 C152 1.388 . S
C155 N154 1.397 . S
C156 H137 0.929 . S
C156 C153 1.404 . S
C156 N154 1.334 . S
C157 H149 0.930 . S
C157 C152 1.418 . S
C157 C153 1.353 . S
C158 H128 0.930 . S
C158 N159 1.330 . S
C158 C160 1.446 . S
N159 Co118 2.151 . S
N159 C158 1.330 . S
N159 C163 1.418 . S
C160 H139 0.929 . S
C160 C158 1.446 . S
C160 C161 1.332 . S
C161 H141 0.931 . S
C161 C160 1.332 . S
C161 C162 1.267 . S
C162 H130 0.929 . S
C162 C161 1.267 . S
C162 C163 1.251 . S
C163 H133 0.929 . S
C163 N159 1.418 . S
C163 C162 1.251 . S
C164 H131 0.930 . S
C164 C166 1.406 . S
C164 C169 1.261 . S
C165 H132 0.930 . S
C165 N167 1.325 . S
C165 C168 1.357 . S
C166 H134 0.928 . S
C166 C164 1.406 . S
C166 N167 1.261 . S
N167 Co118 2.214 . S
N167 C165 1.325 . S
N167 C166 1.261 . S
C168 H138 0.931 . S
C168 C165 1.357 . S
C168 C169 1.312 . S
C169 H140 0.930 . S
C169 C164 1.261 . S
C169 C168 1.312 . S
C170 O142 1.214 . S
C170 O150 1.234 . S
C171 H143 0.929 . S
C171 C174 1.391 . S
C171 C176 1.391 . S
C172 H144 0.929 . S
C172 C173 1.390 . S
C172 N175 1.391 . S
C173 H145 0.930 . S
C173 C172 1.390 . S
C173 C174 1.392 . S
C174 H146 0.929 . S
C174 C171 1.391 . S
C174 C173 1.392 . S
N175 Co119 2.257 . S
N175 C172 1.391 . S
N175 C176 1.388 . S
C176 H147 0.930 . S
C176 C171 1.391 . S
C176 N175 1.388 . S
Co177 O179 2.143 . S
Co177 O185 2.074 . S
Co177 O188 2.093 . S
Co177 O201 2.097 . S
Co177 N218 2.151 . S
Co177 N226 2.214 . S
Co178 O179 2.160 . S
Co178 O184 2.058 . S
Co178 O194 2.057 . S
Co178 O209 2.037 . S
Co178 N213 2.145 . S
Co178 N234 2.257 . S
O179 Co177 2.143 . S
O179 Co178 2.160 . S
C180 O181 1.278 . S
C180 O188 1.224 . S
O181 C180 1.278 . S
C182 O183 1.245 . S
C182 O194 1.232 . S
O183 C182 1.245 . S
O184 Co178 2.058 . S
O184 C210 1.269 . S
O185 Co177 2.074 . S
O185 C210 1.257 . S
H186 C211 0.930 . S
H187 C217 0.930 . S
O188 Co177 2.093 . S
O188 C180 1.224 . S
H189 C221 0.929 . S
H190 C223 0.930 . S
H191 C224 0.930 . S
H192 C222 0.929 . S
H193 C225 0.928 . S
O194 Co178 2.057 . S
O194 C182 1.232 . S
H195 C214 0.929 . S
H196 C215 0.929 . S
H197 C227 0.931 . S
H198 C219 0.929 . S
H199 C228 0.930 . S
H200 C220 0.931 . S
O201 Co177 2.097 . S
O201 C229 1.214 . S
H202 C230 0.929 . S
H203 C231 0.929 . S
H204 C232 0.930 . S
H205 C233 0.929 . S
H206 C235 0.930 . S
H207 C212 0.930 . S
H208 C216 0.930 . S
O209 Co178 2.037 . S
O209 C229 1.234 . S
C210 O184 1.269 . S
C210 O185 1.257 . S
C211 H186 0.930 . S
C211 C214 1.388 . S
C211 C216 1.418 . S
C212 H207 0.930 . S
C212 C215 1.404 . S
C212 C216 1.353 . S
N213 Co178 2.145 . S
N213 C214 1.397 . S
N213 C215 1.334 . S
C214 H195 0.929 . S
C214 C211 1.388 . S
C214 N213 1.397 . S
C215 H196 0.929 . S
C215 C212 1.404 . S
C215 N213 1.334 . S
C216 H208 0.930 . S
C216 C211 1.418 . S
C216 C212 1.353 . S
C217 H187 0.930 . S
C217 N218 1.330 . S
C217 C219 1.446 . S
N218 Co177 2.151 . S
N218 C217 1.330 . S
N218 C222 1.418 . S
C219 H198 0.929 . S
C219 C217 1.446 . S
C219 C220 1.332 . S
C220 H200 0.931 . S
C220 C219 1.332 . S
C220 C221 1.267 . S
C221 H189 0.929 . S
C221 C220 1.267 . S
C221 C222 1.251 . S
C222 H192 0.929 . S
C222 N218 1.418 . S
C222 C221 1.251 . S
C223 H190 0.930 . S
C223 C225 1.406 . S
C223 C228 1.261 . S
C224 H191 0.930 . S
C224 N226 1.325 . S
C224 C227 1.357 . S
C225 H193 0.928 . S
C225 C223 1.406 . S
C225 N226 1.261 . S
N226 Co177 2.214 . S
N226 C224 1.325 . S
N226 C225 1.261 . S
C227 H197 0.931 . S
C227 C224 1.357 . S
C227 C228 1.312 . S
C228 H199 0.930 . S
C228 C223 1.261 . S
C228 C227 1.312 . S
C229 O201 1.214 . S
C229 O209 1.234 . S
C230 H202 0.929 . S
C230 C233 1.391 . S
C230 C235 1.391 . S
C231 H203 0.929 . S
C231 C232 1.390 . S
C231 N234 1.391 . S
C232 H204 0.930 . S
C232 C231 1.390 . S
C232 C233 1.392 . S
C233 H205 0.929 . S
C233 C230 1.391 . S
C233 C232 1.392 . S
N234 Co178 2.257 . S
N234 C231 1.391 . S
N234 C235 1.388 . S
C235 H206 0.930 . S
C235 C230 1.391 . S
C235 N234 1.388 . S
Co236 O238 2.143 . S
Co236 O244 2.074 . S
Co236 O247 2.093 . S
Co236 O260 2.097 1_455 S
Co236 N277 2.151 . S
Co236 N285 2.214 . S
Co237 O238 2.160 1_655 S
Co237 O243 2.058 1_655 S
Co237 O253 2.057 1_655 S
Co237 O268 2.037 . S
Co237 N272 2.145 . S
Co237 N293 2.257 . S
O238 Co236 2.143 . S
O238 Co237 2.160 1_455 S
C239 O240 1.278 1_455 S
C239 O247 1.224 . S
O240 C239 1.278 1_655 S
C241 O242 1.245 . S
C241 O253 1.232 . S
O242 C241 1.245 . S
O243 Co237 2.058 1_455 S
O243 C269 1.269 . S
O244 Co236 2.074 . S
O244 C269 1.257 . S
H245 C270 0.930 . S
H246 C276 0.930 . S
O247 Co236 2.093 . S
O247 C239 1.224 . S
H248 C280 0.929 . S
H249 C282 0.930 . S
H250 C283 0.930 . S
H251 C281 0.929 . S
H252 C284 0.928 . S
O253 Co237 2.057 1_455 S
O253 C241 1.232 . S
H254 C273 0.929 . S
H255 C274 0.929 . S
H256 C286 0.931 . S
H257 C278 0.929 . S
H258 C287 0.930 . S
H259 C279 0.931 . S
O260 Co236 2.097 1_655 S
O260 C288 1.214 . S
H261 C289 0.929 . S
H262 C290 0.929 . S
H263 C291 0.930 . S
H264 C292 0.929 . S
H265 C294 0.930 . S
H266 C271 0.930 . S
H267 C275 0.930 . S
O268 Co237 2.037 . S
O268 C288 1.234 . S
C269 O243 1.269 . S
C269 O244 1.257 . S
C270 H245 0.930 . S
C270 C273 1.388 . S
C270 C275 1.418 . S
C271 H266 0.930 . S
C271 C274 1.404 . S
C271 C275 1.353 . S
N272 Co237 2.145 . S
N272 C273 1.397 . S
N272 C274 1.334 . S
C273 H254 0.929 . S
C273 C270 1.388 . S
C273 N272 1.397 . S
C274 H255 0.929 . S
C274 C271 1.404 . S
C274 N272 1.334 . S
C275 H267 0.930 . S
C275 C270 1.418 . S
C275 C271 1.353 . S
C276 H246 0.930 . S
C276 N277 1.330 . S
C276 C278 1.446 . S
N277 Co236 2.151 . S
N277 C276 1.330 . S
N277 C281 1.418 . S
C278 H257 0.929 . S
C278 C276 1.446 . S
C278 C279 1.332 . S
C279 H259 0.931 . S
C279 C278 1.332 . S
C279 C280 1.267 . S
C280 H248 0.929 . S
C280 C279 1.267 . S
C280 C281 1.251 . S
C281 H251 0.929 . S
C281 N277 1.418 . S
C281 C280 1.251 . S
C282 H249 0.930 . S
C282 C284 1.406 . S
C282 C287 1.261 . S
C283 H250 0.930 . S
C283 N285 1.325 . S
C283 C286 1.357 . S
C284 H252 0.928 . S
C284 C282 1.406 . S
C284 N285 1.261 . S
N285 Co236 2.214 . S
N285 C283 1.325 . S
N285 C284 1.261 . S
C286 H256 0.931 . S
C286 C283 1.357 . S
C286 C287 1.312 . S
C287 H258 0.930 . S
C287 C282 1.261 . S
C287 C286 1.312 . S
C288 O260 1.214 . S
C288 O268 1.234 . S
C289 H261 0.929 . S
C289 C292 1.391 . S
C289 C294 1.391 . S
C290 H262 0.929 . S
C290 C291 1.390 . S
C290 N293 1.391 . S
C291 H263 0.930 . S
C291 C290 1.390 . S
C291 C292 1.392 . S
C292 H264 0.929 . S
C292 C289 1.391 . S
C292 C291 1.392 . S
N293 Co237 2.257 . S
N293 C290 1.391 . S
N293 C294 1.388 . S
C294 H265 0.930 . S
C294 C289 1.391 . S
C294 N293 1.388 . S
Co295 O297 2.143 . S
Co295 O303 2.074 . S
Co295 O306 2.093 . S
Co295 O319 2.097 1_545 S
Co295 N336 2.151 . S
Co295 N344 2.214 . S
Co296 O297 2.160 1_565 S
Co296 O302 2.058 1_565 S
Co296 O312 2.057 1_565 S
Co296 O327 2.037 . S
Co296 N331 2.145 . S
Co296 N352 2.257 . S
O297 Co295 2.143 . S
O297 Co296 2.160 1_545 S
C298 O299 1.278 1_545 S
C298 O306 1.224 . S
O299 C298 1.278 1_565 S
C300 O301 1.245 . S
C300 O312 1.232 . S
O301 C300 1.245 . S
O302 Co296 2.058 1_545 S
O302 C328 1.269 . S
O303 Co295 2.074 . S
O303 C328 1.257 . S
H304 C329 0.930 . S
H305 C335 0.930 . S
O306 Co295 2.093 . S
O306 C298 1.224 . S
H307 C339 0.929 . S
H308 C341 0.930 . S
H309 C342 0.930 . S
H310 C340 0.929 . S
H311 C343 0.928 . S
O312 Co296 2.057 1_545 S
O312 C300 1.232 . S
H313 C332 0.929 . S
H314 C333 0.929 . S
H315 C345 0.931 . S
H316 C337 0.929 . S
H317 C346 0.930 . S
H318 C338 0.931 . S
O319 Co295 2.097 1_565 S
O319 C347 1.214 . S
H320 C348 0.929 . S
H321 C349 0.929 . S
H322 C350 0.930 . S
H323 C351 0.929 . S
H324 C353 0.930 . S
H325 C330 0.930 . S
H326 C334 0.930 . S
O327 Co296 2.037 . S
O327 C347 1.234 . S
C328 O302 1.269 . S
C328 O303 1.257 . S
C329 H304 0.930 . S
C329 C332 1.388 . S
C329 C334 1.418 . S
C330 H325 0.930 . S
C330 C333 1.404 . S
C330 C334 1.353 . S
N331 Co296 2.145 . S
N331 C332 1.397 . S
N331 C333 1.334 . S
C332 H313 0.929 . S
C332 C329 1.388 . S
C332 N331 1.397 . S
C333 H314 0.929 . S
C333 C330 1.404 . S
C333 N331 1.334 . S
C334 H326 0.930 . S
C334 C329 1.418 . S
C334 C330 1.353 . S
C335 H305 0.930 . S
C335 N336 1.330 . S
C335 C337 1.446 . S
N336 Co295 2.151 . S
N336 C335 1.330 . S
N336 C340 1.418 . S
C337 H316 0.929 . S
C337 C335 1.446 . S
C337 C338 1.332 . S
C338 H318 0.931 . S
C338 C337 1.332 . S
C338 C339 1.267 . S
C339 H307 0.929 . S
C339 C338 1.267 . S
C339 C340 1.251 . S
C340 H310 0.929 . S
C340 N336 1.418 . S
C340 C339 1.251 . S
C341 H308 0.930 . S
C341 C343 1.406 . S
C341 C346 1.261 . S
C342 H309 0.930 . S
C342 N344 1.325 . S
C342 C345 1.357 . S
C343 H311 0.928 . S
C343 C341 1.406 . S
C343 N344 1.261 . S
N344 Co295 2.214 . S
N344 C342 1.325 . S
N344 C343 1.261 . S
C345 H315 0.931 . S
C345 C342 1.357 . S
C345 C346 1.312 . S
C346 H317 0.930 . S
C346 C341 1.261 . S
C346 C345 1.312 . S
C347 O319 1.214 . S
C347 O327 1.234 . S
C348 H320 0.929 . S
C348 C351 1.391 . S
C348 C353 1.391 . S
C349 H321 0.929 . S
C349 C350 1.390 . S
C349 N352 1.391 . S
C350 H322 0.930 . S
C350 C349 1.390 . S
C350 C351 1.392 . S
C351 H323 0.929 . S
C351 C348 1.391 . S
C351 C350 1.392 . S
N352 Co296 2.257 . S
N352 C349 1.391 . S
N352 C353 1.388 . S
C353 H324 0.930 . S
C353 C348 1.391 . S
C353 N352 1.388 . S
Co354 O356 2.143 . S
Co354 O362 2.074 . S
Co354 O365 2.093 . S
Co354 O378 2.097 . S
Co354 N395 2.151 . S
Co354 N403 2.214 . S
Co355 O356 2.160 . S
Co355 O361 2.058 . S
Co355 O371 2.057 . S
Co355 O386 2.037 . S
Co355 N390 2.145 . S
Co355 N411 2.257 . S
O356 Co354 2.143 . S
O356 Co355 2.160 . S
C357 O358 1.278 . S
C357 O365 1.224 . S
O358 C357 1.278 . S
C359 O360 1.245 . S
C359 O371 1.232 . S
O360 C359 1.245 . S
O361 Co355 2.058 . S
O361 C387 1.269 . S
O362 Co354 2.074 . S
O362 C387 1.257 . S
H363 C388 0.930 . S
H364 C394 0.930 . S
O365 Co354 2.093 . S
O365 C357 1.224 . S
H366 C398 0.929 . S
H367 C400 0.930 . S
H368 C401 0.930 . S
H369 C399 0.929 . S
H370 C402 0.928 . S
O371 Co355 2.057 . S
O371 C359 1.232 . S
H372 C391 0.929 . S
H373 C392 0.929 . S
H374 C404 0.931 . S
H375 C396 0.929 . S
H376 C405 0.930 . S
H377 C397 0.931 . S
O378 Co354 2.097 . S
O378 C406 1.214 . S
H379 C407 0.929 . S
H380 C408 0.929 . S
H381 C409 0.930 . S
H382 C410 0.929 . S
H383 C412 0.930 . S
H384 C389 0.930 . S
H385 C393 0.930 . S
O386 Co355 2.037 . S
O386 C406 1.234 . S
C387 O361 1.269 . S
C387 O362 1.257 . S
C388 H363 0.930 . S
C388 C391 1.388 . S
C388 C393 1.418 . S
C389 H384 0.930 . S
C389 C392 1.404 . S
C389 C393 1.353 . S
N390 Co355 2.145 . S
N390 C391 1.397 . S
N390 C392 1.334 . S
C391 H372 0.929 . S
C391 C388 1.388 . S
C391 N390 1.397 . S
C392 H373 0.929 . S
C392 C389 1.404 . S
C392 N390 1.334 . S
C393 H385 0.930 . S
C393 C388 1.418 . S
C393 C389 1.353 . S
C394 H364 0.930 . S
C394 N395 1.330 . S
C394 C396 1.446 . S
N395 Co354 2.151 . S
N395 C394 1.330 . S
N395 C399 1.418 . S
C396 H375 0.929 . S
C396 C394 1.446 . S
C396 C397 1.332 . S
C397 H377 0.931 . S
C397 C396 1.332 . S
C397 C398 1.267 . S
C398 H366 0.929 . S
C398 C397 1.267 . S
C398 C399 1.251 . S
C399 H369 0.929 . S
C399 N395 1.418 . S
C399 C398 1.251 . S
C400 H367 0.930 . S
C400 C402 1.406 . S
C400 C405 1.261 . S
C401 H368 0.930 . S
C401 N403 1.325 . S
C401 C404 1.357 . S
C402 H370 0.928 . S
C402 C400 1.406 . S
C402 N403 1.261 . S
N403 Co354 2.214 . S
N403 C401 1.325 . S
N403 C402 1.261 . S
C404 H374 0.931 . S
C404 C401 1.357 . S
C404 C405 1.312 . S
C405 H376 0.930 . S
C405 C400 1.261 . S
C405 C404 1.312 . S
C406 O378 1.214 . S
C406 O386 1.234 . S
C407 H379 0.929 . S
C407 C410 1.391 . S
C407 C412 1.391 . S
C408 H380 0.929 . S
C408 C409 1.390 . S
C408 N411 1.391 . S
C409 H381 0.930 . S
C409 C408 1.390 . S
C409 C410 1.392 . S
C410 H382 0.929 . S
C410 C407 1.391 . S
C410 C409 1.392 . S
N411 Co355 2.257 . S
N411 C408 1.391 . S
N411 C412 1.388 . S
C412 H383 0.930 . S
C412 C407 1.391 . S
C412 N411 1.388 . S
Co413 O415 2.143 . S
Co413 O421 2.074 . S
Co413 O424 2.093 . S
Co413 O437 2.097 1_655 S
Co413 N454 2.151 . S
Co413 N462 2.214 . S
Co414 O415 2.160 1_455 S
Co414 O420 2.058 1_455 S
Co414 O430 2.057 1_455 S
Co414 O445 2.037 . S
Co414 N449 2.145 . S
Co414 N470 2.257 . S
O415 Co413 2.143 . S
O415 Co414 2.160 1_655 S
C416 O417 1.278 1_655 S
C416 O424 1.224 . S
O417 C416 1.278 1_455 S
C418 O419 1.245 . S
C418 O430 1.232 . S
O419 C418 1.245 . S
O420 Co414 2.058 1_655 S
O420 C446 1.269 . S
O421 Co413 2.074 . S
O421 C446 1.257 . S
H422 C447 0.930 . S
H423 C453 0.930 . S
O424 Co413 2.093 . S
O424 C416 1.224 . S
H425 C457 0.929 . S
H426 C459 0.930 . S
H427 C460 0.930 . S
H428 C458 0.929 . S
H429 C461 0.928 . S
O430 Co414 2.057 1_655 S
O430 C418 1.232 . S
H431 C450 0.929 . S
H432 C451 0.929 . S
H433 C463 0.931 . S
H434 C455 0.929 . S
H435 C464 0.930 . S
H436 C456 0.931 . S
O437 Co413 2.097 1_455 S
O437 C465 1.214 . S
H438 C466 0.929 . S
H439 C467 0.929 . S
H440 C468 0.930 . S
H441 C469 0.929 . S
H442 C471 0.930 . S
H443 C448 0.930 . S
H444 C452 0.930 . S
O445 Co414 2.037 . S
O445 C465 1.234 . S
C446 O420 1.269 . S
C446 O421 1.257 . S
C447 H422 0.930 . S
C447 C450 1.388 . S
C447 C452 1.418 . S
C448 H443 0.930 . S
C448 C451 1.404 . S
C448 C452 1.353 . S
N449 Co414 2.145 . S
N449 C450 1.397 . S
N449 C451 1.334 . S
C450 H431 0.929 . S
C450 C447 1.388 . S
C450 N449 1.397 . S
C451 H432 0.929 . S
C451 C448 1.404 . S
C451 N449 1.334 . S
C452 H444 0.930 . S
C452 C447 1.418 . S
C452 C448 1.353 . S
C453 H423 0.930 . S
C453 N454 1.330 . S
C453 C455 1.446 . S
N454 Co413 2.151 . S
N454 C453 1.330 . S
N454 C458 1.418 . S
C455 H434 0.929 . S
C455 C453 1.446 . S
C455 C456 1.332 . S
C456 H436 0.931 . S
C456 C455 1.332 . S
C456 C457 1.267 . S
C457 H425 0.929 . S
C457 C456 1.267 . S
C457 C458 1.251 . S
C458 H428 0.929 . S
C458 N454 1.418 . S
C458 C457 1.251 . S
C459 H426 0.930 . S
C459 C461 1.406 . S
C459 C464 1.261 . S
C460 H427 0.930 . S
C460 N462 1.325 . S
C460 C463 1.357 . S
C461 H429 0.928 . S
C461 C459 1.406 . S
C461 N462 1.261 . S
N462 Co413 2.214 . S
N462 C460 1.325 . S
N462 C461 1.261 . S
C463 H433 0.931 . S
C463 C460 1.357 . S
C463 C464 1.312 . S
C464 H435 0.930 . S
C464 C459 1.261 . S
C464 C463 1.312 . S
C465 O437 1.214 . S
C465 O445 1.234 . S
C466 H438 0.929 . S
C466 C469 1.391 . S
C466 C471 1.391 . S
C467 H439 0.929 . S
C467 C468 1.390 . S
C467 N470 1.391 . S
C468 H440 0.930 . S
C468 C467 1.390 . S
C468 C469 1.392 . S
C469 H441 0.929 . S
C469 C466 1.391 . S
C469 C468 1.392 . S
N470 Co414 2.257 . S
N470 C467 1.391 . S
N470 C471 1.388 . S
C471 H442 0.930 . S
C471 C466 1.391 . S
C471 N470 1.388 . S
Co472 O474 2.143 . S
Co472 O480 2.074 . S
Co472 O483 2.093 . S
Co472 O496 2.097 1_565 S
Co472 N513 2.151 . S
Co472 N521 2.214 . S
Co473 O474 2.160 1_545 S
Co473 O479 2.058 1_545 S
Co473 O489 2.057 1_545 S
Co473 O504 2.037 . S
Co473 N508 2.145 . S
Co473 N529 2.257 . S
O474 Co472 2.143 . S
O474 Co473 2.160 1_565 S
C475 O476 1.278 1_565 S
C475 O483 1.224 . S
O476 C475 1.278 1_545 S
C477 O478 1.245 . S
C477 O489 1.232 . S
O478 C477 1.245 . S
O479 Co473 2.058 1_565 S
O479 C505 1.269 . S
O480 Co472 2.074 . S
O480 C505 1.257 . S
H481 C506 0.930 . S
H482 C512 0.930 . S
O483 Co472 2.093 . S
O483 C475 1.224 . S
H484 C516 0.929 . S
H485 C518 0.930 . S
H486 C519 0.930 . S
H487 C517 0.929 . S
H488 C520 0.928 . S
O489 Co473 2.057 1_565 S
O489 C477 1.232 . S
H490 C509 0.929 . S
H491 C510 0.929 . S
H492 C522 0.931 . S
H493 C514 0.929 . S
H494 C523 0.930 . S
H495 C515 0.931 . S
O496 Co472 2.097 1_545 S
O496 C524 1.214 . S
H497 C525 0.929 . S
H498 C526 0.929 . S
H499 C527 0.930 . S
H500 C528 0.929 . S
H501 C530 0.930 . S
H502 C507 0.930 . S
H503 C511 0.930 . S
O504 Co473 2.037 . S
O504 C524 1.234 . S
C505 O479 1.269 . S
C505 O480 1.257 . S
C506 H481 0.930 . S
C506 C509 1.388 . S
C506 C511 1.418 . S
C507 H502 0.930 . S
C507 C510 1.404 . S
C507 C511 1.353 . S
N508 Co473 2.145 . S
N508 C509 1.397 . S
N508 C510 1.334 . S
C509 H490 0.929 . S
C509 C506 1.388 . S
C509 N508 1.397 . S
C510 H491 0.929 . S
C510 C507 1.404 . S
C510 N508 1.334 . S
C511 H503 0.930 . S
C511 C506 1.418 . S
C511 C507 1.353 . S
C512 H482 0.930 . S
C512 N513 1.330 . S
C512 C514 1.446 . S
N513 Co472 2.151 . S
N513 C512 1.330 . S
N513 C517 1.418 . S
C514 H493 0.929 . S
C514 C512 1.446 . S
C514 C515 1.332 . S
C515 H495 0.931 . S
C515 C514 1.332 . S
C515 C516 1.267 . S
C516 H484 0.929 . S
C516 C515 1.267 . S
C516 C517 1.251 . S
C517 H487 0.929 . S
C517 N513 1.418 . S
C517 C516 1.251 . S
C518 H485 0.930 . S
C518 C520 1.406 . S
C518 C523 1.261 . S
C519 H486 0.930 . S
C519 N521 1.325 . S
C519 C522 1.357 . S
C520 H488 0.928 . S
C520 C518 1.406 . S
C520 N521 1.261 . S
N521 Co472 2.214 . S
N521 C519 1.325 . S
N521 C520 1.261 . S
C522 H492 0.931 . S
C522 C519 1.357 . S
C522 C523 1.312 . S
C523 H494 0.930 . S
C523 C518 1.261 . S
C523 C522 1.312 . S
C524 O496 1.214 . S
C524 O504 1.234 . S
C525 H497 0.929 . S
C525 C528 1.391 . S
C525 C530 1.391 . S
C526 H498 0.929 . S
C526 C527 1.390 . S
C526 N529 1.391 . S
C527 H499 0.930 . S
C527 C526 1.390 . S
C527 C528 1.392 . S
C528 H500 0.929 . S
C528 C525 1.391 . S
C528 C527 1.392 . S
N529 Co473 2.257 . S
N529 C526 1.391 . S
N529 C530 1.388 . S
C530 H501 0.930 . S
C530 C525 1.391 . S
C530 N529 1.388 . S
Co531 O533 2.143 . S
Co531 O539 2.074 . S
Co531 O542 2.093 . S
Co531 O555 2.097 . S
Co531 N572 2.151 . S
Co531 N580 2.214 . S
Co532 O533 2.160 . S
Co532 O538 2.058 . S
Co532 O548 2.057 . S
Co532 O563 2.037 . S
Co532 N567 2.145 . S
Co532 N588 2.257 . S
O533 Co531 2.143 . S
O533 Co532 2.160 . S
C534 O535 1.278 . S
C534 O542 1.224 . S
O535 C534 1.278 . S
C536 O537 1.245 . S
C536 O548 1.232 . S
O537 C536 1.245 . S
O538 Co532 2.058 . S
O538 C564 1.269 . S
O539 Co531 2.074 . S
O539 C564 1.257 . S
H540 C565 0.930 . S
H541 C571 0.930 . S
O542 Co531 2.093 . S
O542 C534 1.224 . S
H543 C575 0.929 . S
H544 C577 0.930 . S
H545 C578 0.930 . S
H546 C576 0.929 . S
H547 C579 0.928 . S
O548 Co532 2.057 . S
O548 C536 1.232 . S
H549 C568 0.929 . S
H550 C569 0.929 . S
H551 C581 0.931 . S
H552 C573 0.929 . S
H553 C582 0.930 . S
H554 C574 0.931 . S
O555 Co531 2.097 . S
O555 C583 1.214 . S
H556 C584 0.929 . S
H557 C585 0.929 . S
H558 C586 0.930 . S
H559 C587 0.929 . S
H560 C589 0.930 . S
H561 C566 0.930 . S
H562 C570 0.930 . S
O563 Co532 2.037 . S
O563 C583 1.234 . S
C564 O538 1.269 . S
C564 O539 1.257 . S
C565 H540 0.930 . S
C565 C568 1.388 . S
C565 C570 1.418 . S
C566 H561 0.930 . S
C566 C569 1.404 . S
C566 C570 1.353 . S
N567 Co532 2.145 . S
N567 C568 1.397 . S
N567 C569 1.334 . S
C568 H549 0.929 . S
C568 C565 1.388 . S
C568 N567 1.397 . S
C569 H550 0.929 . S
C569 C566 1.404 . S
C569 N567 1.334 . S
C570 H562 0.930 . S
C570 C565 1.418 . S
C570 C566 1.353 . S
C571 H541 0.930 . S
C571 N572 1.330 . S
C571 C573 1.446 . S
N572 Co531 2.151 . S
N572 C571 1.330 . S
N572 C576 1.418 . S
C573 H552 0.929 . S
C573 C571 1.446 . S
C573 C574 1.332 . S
C574 H554 0.931 . S
C574 C573 1.332 . S
C574 C575 1.267 . S
C575 H543 0.929 . S
C575 C574 1.267 . S
C575 C576 1.251 . S
C576 H546 0.929 . S
C576 N572 1.418 . S
C576 C575 1.251 . S
C577 H544 0.930 . S
C577 C579 1.406 . S
C577 C582 1.261 . S
C578 H545 0.930 . S
C578 N580 1.325 . S
C578 C581 1.357 . S
C579 H547 0.928 . S
C579 C577 1.406 . S
C579 N580 1.261 . S
N580 Co531 2.214 . S
N580 C578 1.325 . S
N580 C579 1.261 . S
C581 H551 0.931 . S
C581 C578 1.357 . S
C581 C582 1.312 . S
C582 H553 0.930 . S
C582 C577 1.261 . S
C582 C581 1.312 . S
C583 O555 1.214 . S
C583 O563 1.234 . S
C584 H556 0.929 . S
C584 C587 1.391 . S
C584 C589 1.391 . S
C585 H557 0.929 . S
C585 C586 1.390 . S
C585 N588 1.391 . S
C586 H558 0.930 . S
C586 C585 1.390 . S
C586 C587 1.392 . S
C587 H559 0.929 . S
C587 C584 1.391 . S
C587 C586 1.392 . S
N588 Co532 2.257 . S
N588 C585 1.391 . S
N588 C589 1.388 . S
C589 H560 0.930 . S
C589 C584 1.391 . S
C589 N588 1.388 . S
Co590 O592 2.143 . S
Co590 O598 2.074 . S
Co590 O601 2.093 . S
Co590 O614 2.097 1_455 S
Co590 N631 2.151 . S
Co590 N639 2.214 . S
Co591 O592 2.160 1_655 S
Co591 O597 2.058 1_655 S
Co591 O607 2.057 1_655 S
Co591 O622 2.037 . S
Co591 N626 2.145 . S
Co591 N647 2.257 . S
O592 Co590 2.143 . S
O592 Co591 2.160 1_455 S
C593 O594 1.278 1_455 S
C593 O601 1.224 . S
O594 C593 1.278 1_655 S
C595 O596 1.245 . S
C595 O607 1.232 . S
O596 C595 1.245 . S
O597 Co591 2.058 1_455 S
O597 C623 1.269 . S
O598 Co590 2.074 . S
O598 C623 1.257 . S
H599 C624 0.930 . S
H600 C630 0.930 . S
O601 Co590 2.093 . S
O601 C593 1.224 . S
H602 C634 0.929 . S
H603 C636 0.930 . S
H604 C637 0.930 . S
H605 C635 0.929 . S
H606 C638 0.928 . S
O607 Co591 2.057 1_455 S
O607 C595 1.232 . S
H608 C627 0.929 . S
H609 C628 0.929 . S
H610 C640 0.931 . S
H611 C632 0.929 . S
H612 C641 0.930 . S
H613 C633 0.931 . S
O614 Co590 2.097 1_655 S
O614 C642 1.214 . S
H615 C643 0.929 . S
H616 C644 0.929 . S
H617 C645 0.930 . S
H618 C646 0.929 . S
H619 C648 0.930 . S
H620 C625 0.930 . S
H621 C629 0.930 . S
O622 Co591 2.037 . S
O622 C642 1.234 . S
C623 O597 1.269 . S
C623 O598 1.257 . S
C624 H599 0.930 . S
C624 C627 1.388 . S
C624 C629 1.418 . S
C625 H620 0.930 . S
C625 C628 1.404 . S
C625 C629 1.353 . S
N626 Co591 2.145 . S
N626 C627 1.397 . S
N626 C628 1.334 . S
C627 H608 0.929 . S
C627 C624 1.388 . S
C627 N626 1.397 . S
C628 H609 0.929 . S
C628 C625 1.404 . S
C628 N626 1.334 . S
C629 H621 0.930 . S
C629 C624 1.418 . S
C629 C625 1.353 . S
C630 H600 0.930 . S
C630 N631 1.330 . S
C630 C632 1.446 . S
N631 Co590 2.151 . S
N631 C630 1.330 . S
N631 C635 1.418 . S
C632 H611 0.929 . S
C632 C630 1.446 . S
C632 C633 1.332 . S
C633 H613 0.931 . S
C633 C632 1.332 . S
C633 C634 1.267 . S
C634 H602 0.929 . S
C634 C633 1.267 . S
C634 C635 1.251 . S
C635 H605 0.929 . S
C635 N631 1.418 . S
C635 C634 1.251 . S
C636 H603 0.930 . S
C636 C638 1.406 . S
C636 C641 1.261 . S
C637 H604 0.930 . S
C637 N639 1.325 . S
C637 C640 1.357 . S
C638 H606 0.928 . S
C638 C636 1.406 . S
C638 N639 1.261 . S
N639 Co590 2.214 . S
N639 C637 1.325 . S
N639 C638 1.261 . S
C640 H610 0.931 . S
C640 C637 1.357 . S
C640 C641 1.312 . S
C641 H612 0.930 . S
C641 C636 1.261 . S
C641 C640 1.312 . S
C642 O614 1.214 . S
C642 O622 1.234 . S
C643 H615 0.929 . S
C643 C646 1.391 . S
C643 C648 1.391 . S
C644 H616 0.929 . S
C644 C645 1.390 . S
C644 N647 1.391 . S
C645 H617 0.930 . S
C645 C644 1.390 . S
C645 C646 1.392 . S
C646 H618 0.929 . S
C646 C643 1.391 . S
C646 C645 1.392 . S
N647 Co591 2.257 . S
N647 C644 1.391 . S
N647 C648 1.388 . S
C648 H619 0.930 . S
C648 C643 1.391 . S
C648 N647 1.388 . S
Co649 O651 2.143 . S
Co649 O657 2.074 . S
Co649 O660 2.093 . S
Co649 O673 2.097 1_545 S
Co649 N690 2.151 . S
Co649 N698 2.214 . S
Co650 O651 2.160 1_565 S
Co650 O656 2.058 1_565 S
Co650 O666 2.057 1_565 S
Co650 O681 2.037 . S
Co650 N685 2.145 . S
Co650 N706 2.257 . S
O651 Co649 2.143 . S
O651 Co650 2.160 1_545 S
C652 O653 1.278 1_545 S
C652 O660 1.224 . S
O653 C652 1.278 1_565 S
C654 O655 1.245 . S
C654 O666 1.232 . S
O655 C654 1.245 . S
O656 Co650 2.058 1_545 S
O656 C682 1.269 . S
O657 Co649 2.074 . S
O657 C682 1.257 . S
H658 C683 0.930 . S
H659 C689 0.930 . S
O660 Co649 2.093 . S
O660 C652 1.224 . S
H661 C693 0.929 . S
H662 C695 0.930 . S
H663 C696 0.930 . S
H664 C694 0.929 . S
H665 C697 0.928 . S
O666 Co650 2.057 1_545 S
O666 C654 1.232 . S
H667 C686 0.929 . S
H668 C687 0.929 . S
H669 C699 0.931 . S
H670 C691 0.929 . S
H671 C700 0.930 . S
H672 C692 0.931 . S
O673 Co649 2.097 1_565 S
O673 C701 1.214 . S
H674 C702 0.929 . S
H675 C703 0.929 . S
H676 C704 0.930 . S
H677 C705 0.929 . S
H678 C707 0.930 . S
H679 C684 0.930 . S
H680 C688 0.930 . S
O681 Co650 2.037 . S
O681 C701 1.234 . S
C682 O656 1.269 . S
C682 O657 1.257 . S
C683 H658 0.930 . S
C683 C686 1.388 . S
C683 C688 1.418 . S
C684 H679 0.930 . S
C684 C687 1.404 . S
C684 C688 1.353 . S
N685 Co650 2.145 . S
N685 C686 1.397 . S
N685 C687 1.334 . S
C686 H667 0.929 . S
C686 C683 1.388 . S
C686 N685 1.397 . S
C687 H668 0.929 . S
C687 C684 1.404 . S
C687 N685 1.334 . S
C688 H680 0.930 . S
C688 C683 1.418 . S
C688 C684 1.353 . S
C689 H659 0.930 . S
C689 N690 1.330 . S
C689 C691 1.446 . S
N690 Co649 2.151 . S
N690 C689 1.330 . S
N690 C694 1.418 . S
C691 H670 0.929 . S
C691 C689 1.446 . S
C691 C692 1.332 . S
C692 H672 0.931 . S
C692 C691 1.332 . S
C692 C693 1.267 . S
C693 H661 0.929 . S
C693 C692 1.267 . S
C693 C694 1.251 . S
C694 H664 0.929 . S
C694 N690 1.418 . S
C694 C693 1.251 . S
C695 H662 0.930 . S
C695 C697 1.406 . S
C695 C700 1.261 . S
C696 H663 0.930 . S
C696 N698 1.325 . S
C696 C699 1.357 . S
C697 H665 0.928 . S
C697 C695 1.406 . S
C697 N698 1.261 . S
N698 Co649 2.214 . S
N698 C696 1.325 . S
N698 C697 1.261 . S
C699 H669 0.931 . S
C699 C696 1.357 . S
C699 C700 1.312 . S
C700 H671 0.930 . S
C700 C695 1.261 . S
C700 C699 1.312 . S
C701 O673 1.214 . S
C701 O681 1.234 . S
C702 H674 0.929 . S
C702 C705 1.391 . S
C702 C707 1.391 . S
C703 H675 0.929 . S
C703 C704 1.390 . S
C703 N706 1.391 . S
C704 H676 0.930 . S
C704 C703 1.390 . S
C704 C705 1.392 . S
C705 H677 0.929 . S
C705 C702 1.391 . S
C705 C704 1.392 . S
N706 Co650 2.257 . S
N706 C703 1.391 . S
N706 C707 1.388 . S
C707 H678 0.930 . S
C707 C702 1.391 . S
C707 N706 1.388 . S
H708 C720 0.930 . S
H709 C722 0.930 . S
H710 C723 0.930 . S
H711 C727 0.959 . S
H712 C727 0.959 . S
H713 C727 0.961 . S
H714 C728 0.960 1_655 S
H715 C728 0.961 . S
H716 C728 0.959 . S
H717 C731 0.929 . S
H718 C732 0.931 . S
H719 C734 0.930 . S
C720 H708 0.930 . S
C720 C721 1.399 . S
C720 C725 1.399 . S
C721 C720 1.399 . S
C721 C722 1.376 . S
C722 H709 0.930 . S
C722 C721 1.376 . S
C722 C723 1.388 . S
C723 H710 0.930 . S
C723 C722 1.388 . S
C723 C724 1.390 . S
C724 C723 1.390 . S
C724 C725 1.394 . S
C724 C730 1.465 1_655 S
C725 C720 1.399 . S
C725 C724 1.394 . S
C725 C726 1.516 . S
C726 C725 1.516 . S
C726 C727 1.502 . S
C726 C728 1.561 1_655 S
C726 C729 1.526 1_655 S
C727 H711 0.959 . S
C727 H712 0.959 . S
C727 H713 0.961 . S
C727 C726 1.502 . S
C728 H714 0.960 1_455 S
C728 H715 0.961 . S
C728 H716 0.959 . S
C728 C726 1.561 1_455 S
C729 C726 1.526 1_455 S
C729 C730 1.396 . S
C729 C734 1.390 . S
C730 C724 1.465 1_455 S
C730 C729 1.396 . S
C730 C731 1.399 . S
C731 H717 0.929 . S
C731 C730 1.399 . S
C731 C732 1.385 . S
C732 H718 0.931 . S
C732 C731 1.385 . S
C732 C733 1.389 . S
C733 C732 1.389 . S
C733 C734 1.387 . S
C734 H719 0.930 . S
C734 C729 1.390 . S
C734 C733 1.387 . S
H735 C747 0.930 . S
H736 C749 0.930 . S
H737 C750 0.930 1_565 S
H738 C754 0.959 . S
H739 C754 0.959 . S
H740 C754 0.961 . S
H741 C755 0.960 . S
H742 C755 0.961 . S
H743 C755 0.959 . S
H744 C758 0.929 . S
H745 C759 0.931 . S
H746 C761 0.930 . S
C747 H735 0.930 . S
C747 C748 1.399 . S
C747 C752 1.399 . S
C748 C747 1.399 . S
C748 C749 1.376 . S
C749 H736 0.930 . S
C749 C748 1.376 . S
C749 C750 1.388 . S
C750 H737 0.930 1_545 S
C750 C749 1.388 . S
C750 C751 1.390 . S
C751 C750 1.390 . S
C751 C752 1.394 . S
C751 C757 1.465 1_545 S
C752 C747 1.399 . S
C752 C751 1.394 . S
C752 C753 1.516 . S
C753 C752 1.516 . S
C753 C754 1.502 . S
C753 C755 1.561 . S
C753 C756 1.526 1_545 S
C754 H738 0.959 . S
C754 H739 0.959 . S
C754 H740 0.961 . S
C754 C753 1.502 . S
C755 H741 0.960 . S
C755 H742 0.961 . S
C755 H743 0.959 . S
C755 C753 1.561 . S
C756 C753 1.526 1_565 S
C756 C757 1.396 . S
C756 C761 1.390 . S
C757 C751 1.465 1_565 S
C757 C756 1.396 . S
C757 C758 1.399 . S
C758 H744 0.929 . S
C758 C757 1.399 . S
C758 C759 1.385 . S
C759 H745 0.931 . S
C759 C758 1.385 . S
C759 C760 1.389 . S
C760 C759 1.389 . S
C760 C761 1.387 . S
C761 H746 0.930 . S
C761 C756 1.390 . S
C761 C760 1.387 . S
H762 C774 0.930 . S
H763 C776 0.930 . S
H764 C777 0.930 . S
H765 C781 0.959 . S
H766 C781 0.959 . S
H767 C781 0.961 . S
H768 C782 0.960 . S
H769 C782 0.961 . S
H770 C782 0.959 . S
H771 C785 0.929 . S
H772 C786 0.931 . S
H773 C788 0.930 . S
C774 H762 0.930 . S
C774 C775 1.399 . S
C774 C779 1.399 . S
C775 C774 1.399 . S
C775 C776 1.376 . S
C776 H763 0.930 . S
C776 C775 1.376 . S
C776 C777 1.388 . S
C777 H764 0.930 . S
C777 C776 1.388 . S
C777 C778 1.390 . S
C778 C777 1.390 . S
C778 C779 1.394 . S
C778 C784 1.465 . S
C779 C774 1.399 . S
C779 C778 1.394 . S
C779 C780 1.516 . S
C780 C779 1.516 . S
C780 C781 1.502 . S
C780 C782 1.561 . S
C780 C783 1.526 . S
C781 H765 0.959 . S
C781 H766 0.959 . S
C781 H767 0.961 . S
C781 C780 1.502 . S
C782 H768 0.960 . S
C782 H769 0.961 . S
C782 H770 0.959 . S
C782 C780 1.561 . S
C783 C780 1.526 . S
C783 C784 1.396 . S
C783 C788 1.390 . S
C784 C778 1.465 . S
C784 C783 1.396 . S
C784 C785 1.399 . S
C785 H771 0.929 . S
C785 C784 1.399 . S
C785 C786 1.385 . S
C786 H772 0.931 . S
C786 C785 1.385 . S
C786 C787 1.389 . S
C787 C786 1.389 . S
C787 C788 1.387 . S
C788 H773 0.930 . S
C788 C783 1.390 . S
C788 C787 1.387 . S
H789 C801 0.930 . S
H790 C803 0.930 . S
H791 C804 0.930 . S
H792 C808 0.957 1_455 S
H793 C808 0.956 1_455 S
H794 C808 0.963 . S
H795 C809 0.960 . S
H796 C809 0.961 . S
H797 C809 0.959 . S
H798 C812 0.929 . S
H799 C813 0.931 . S
H800 C815 0.930 . S
C801 H789 0.930 . S
C801 C802 1.399 . S
C801 C806 1.399 . S
C802 C801 1.399 . S
C802 C803 1.376 . S
C803 H790 0.930 . S
C803 C802 1.376 . S
C803 C804 1.388 . S
C804 H791 0.930 . S
C804 C803 1.388 . S
C804 C805 1.390 . S
C805 C804 1.390 . S
C805 C806 1.394 . S
C805 C811 1.465 1_655 S
C806 C801 1.399 . S
C806 C805 1.394 . S
C806 C807 1.516 . S
C807 C806 1.516 . S
C807 C808 1.506 . S
C807 C809 1.561 . S
C807 C810 1.526 1_655 S
C808 H792 0.957 1_655 S
C808 H793 0.956 1_655 S
C808 H794 0.963 . S
C808 C807 1.506 . S
C809 H795 0.960 . S
C809 H796 0.961 . S
C809 H797 0.959 . S
C809 C807 1.561 . S
C810 C807 1.526 1_455 S
C810 C811 1.396 . S
C810 C815 1.390 . S
C811 C805 1.465 1_455 S
C811 C810 1.396 . S
C811 C812 1.399 . S
C812 H798 0.929 . S
C812 C811 1.399 . S
C812 C813 1.385 . S
C813 H799 0.931 . S
C813 C812 1.385 . S
C813 C814 1.389 . S
C814 C813 1.389 . S
C814 C815 1.387 . S
C815 H800 0.930 . S
C815 C810 1.390 . S
C815 C814 1.387 . S
H816 C828 0.930 . S
H817 C830 0.930 . S
H818 C831 0.930 . S
H819 C835 0.959 . S
H820 C835 0.959 . S
H821 C835 0.961 . S
H822 C836 0.960 . S
H823 C836 0.961 . S
H824 C836 0.959 . S
H825 C839 0.929 1_545 S
H826 C840 0.931 . S
H827 C842 0.930 . S
C828 H816 0.930 . S
C828 C829 1.399 . S
C828 C833 1.399 . S
C829 C828 1.399 . S
C829 C830 1.376 . S
C830 H817 0.930 . S
C830 C829 1.376 . S
C830 C831 1.388 . S
C831 H818 0.930 . S
C831 C830 1.388 . S
C831 C832 1.390 . S
C832 C831 1.390 . S
C832 C833 1.394 . S
C832 C838 1.465 1_545 S
C833 C828 1.399 . S
C833 C832 1.394 . S
C833 C834 1.516 1_545 S
C834 C833 1.516 1_565 S
C834 C835 1.502 . S
C834 C836 1.561 . S
C834 C837 1.526 . S
C835 H819 0.959 . S
C835 H820 0.959 . S
C835 H821 0.961 . S
C835 C834 1.502 . S
C836 H822 0.960 . S
C836 H823 0.961 . S
C836 H824 0.959 . S
C836 C834 1.561 . S
C837 C834 1.526 . S
C837 C838 1.396 . S
C837 C842 1.390 . S
C838 C832 1.465 1_565 S
C838 C837 1.396 . S
C838 C839 1.399 . S
C839 H825 0.929 1_565 S
C839 C838 1.399 . S
C839 C840 1.385 . S
C840 H826 0.931 . S
C840 C839 1.385 . S
C840 C841 1.389 . S
C841 C840 1.389 . S
C841 C842 1.387 . S
C842 H827 0.930 . S
C842 C837 1.390 . S
C842 C841 1.387 . S
H843 C855 0.930 . S
H844 C857 0.930 . S
H845 C858 0.930 . S
H846 C862 0.959 . S
H847 C862 0.959 . S
H848 C862 0.961 . S
H849 C863 0.960 . S
H850 C863 0.961 . S
H851 C863 0.959 . S
H852 C866 0.929 . S
H853 C867 0.931 . S
H854 C869 0.930 . S
C855 H843 0.930 . S
C855 C856 1.399 . S
C855 C860 1.399 . S
C856 C855 1.399 . S
C856 C857 1.376 . S
C857 H844 0.930 . S
C857 C856 1.376 . S
C857 C858 1.388 . S
C858 H845 0.930 . S
C858 C857 1.388 . S
C858 C859 1.390 . S
C859 C858 1.390 . S
C859 C860 1.394 . S
C859 C865 1.465 . S
C860 C855 1.399 . S
C860 C859 1.394 . S
C860 C861 1.516 . S
C861 C860 1.516 . S
C861 C862 1.502 . S
C861 C863 1.561 . S
C861 C864 1.526 . S
C862 H846 0.959 . S
C862 H847 0.959 . S
C862 H848 0.961 . S
C862 C861 1.502 . S
C863 H849 0.960 . S
C863 H850 0.961 . S
C863 H851 0.959 . S
C863 C861 1.561 . S
C864 C861 1.526 . S
C864 C865 1.396 . S
C864 C869 1.390 . S
C865 C859 1.465 . S
C865 C864 1.396 . S
C865 C866 1.399 . S
C866 H852 0.929 . S
C866 C865 1.399 . S
C866 C867 1.385 . S
C867 H853 0.931 . S
C867 C866 1.385 . S
C867 C868 1.389 . S
C868 C867 1.389 . S
C868 C869 1.387 . S
C869 H854 0.930 . S
C869 C864 1.390 . S
C869 C868 1.387 . S
H870 C882 0.930 . S
H871 C884 0.930 . S
H872 C885 0.930 . S
H873 C889 0.959 . S
H874 C889 0.959 . S
H875 C889 0.961 . S
H876 C890 0.960 . S
H877 C890 0.961 . S
H878 C890 0.959 . S
H879 C893 0.929 . S
H880 C894 0.931 . S
H881 C896 0.930 . S
C882 H870 0.930 . S
C882 C883 1.399 . S
C882 C887 1.399 . S
C883 C882 1.399 . S
C883 C884 1.376 . S
C884 H871 0.930 . S
C884 C883 1.376 . S
C884 C885 1.388 . S
C885 H872 0.930 . S
C885 C884 1.388 . S
C885 C886 1.390 . S
C886 C885 1.390 . S
C886 C887 1.394 . S
C886 C892 1.465 . S
C887 C882 1.399 . S
C887 C886 1.394 . S
C887 C888 1.516 . S
C888 C887 1.516 . S
C888 C889 1.502 . S
C888 C890 1.561 . S
C888 C891 1.526 . S
C889 H873 0.959 . S
C889 H874 0.959 . S
C889 H875 0.961 . S
C889 C888 1.502 . S
C890 H876 0.960 . S
C890 H877 0.961 . S
C890 H878 0.959 . S
C890 C888 1.561 . S
C891 C888 1.526 . S
C891 C892 1.396 . S
C891 C896 1.390 . S
C892 C886 1.465 . S
C892 C891 1.396 . S
C892 C893 1.399 . S
C893 H879 0.929 . S
C893 C892 1.399 . S
C893 C894 1.385 . S
C894 H880 0.931 . S
C894 C893 1.385 . S
C894 C895 1.389 . S
C895 C894 1.389 . S
C895 C896 1.387 . S
C896 H881 0.930 . S
C896 C891 1.390 . S
C896 C895 1.387 . S
H897 C909 0.930 . S
H898 C911 0.930 . S
H899 C912 0.930 . S
H900 C916 0.959 . S
H901 C916 0.959 . S
H902 C916 0.961 . S
H903 C917 0.960 . S
H904 C917 0.961 . S
H905 C917 0.959 . S
H906 C920 0.929 . S
H907 C921 0.931 . S
H908 C923 0.922 1_455 S
C909 H897 0.930 . S
C909 C910 1.399 . S
C909 C914 1.399 . S
C910 C909 1.399 . S
C910 C911 1.376 1_455 S
C911 H898 0.930 . S
C911 C910 1.376 1_655 S
C911 C912 1.388 . S
C912 H899 0.930 . S
C912 C911 1.388 . S
C912 C913 1.390 . S
C913 C912 1.390 . S
C913 C914 1.394 1_655 S
C913 C919 1.465 . S
C914 C909 1.399 . S
C914 C913 1.394 1_455 S
C914 C915 1.516 . S
C915 C914 1.516 . S
C915 C916 1.502 . S
C915 C917 1.561 1_455 S
C915 C918 1.526 1_455 S
C916 H900 0.959 . S
C916 H901 0.959 . S
C916 H902 0.961 . S
C916 C915 1.502 . S
C917 H903 0.960 . S
C917 H904 0.961 . S
C917 H905 0.959 . S
C917 C915 1.561 1_655 S
C918 C915 1.526 1_655 S
C918 C919 1.398 . S
C918 C923 1.396 . S
C919 C913 1.465 . S
C919 C918 1.398 . S
C919 C920 1.399 . S
C920 H906 0.929 . S
C920 C919 1.399 . S
C920 C921 1.385 . S
C921 H907 0.931 . S
C921 C920 1.385 . S
C921 C922 1.389 . S
C922 C921 1.389 . S
C922 C923 1.386 . S
C923 H908 0.922 1_655 S
C923 C918 1.396 . S
C923 C922 1.386 . S
H924 C936 0.930 . S
H925 C938 0.930 . S
H926 C939 0.930 . S
H927 C943 0.959 . S
H928 C943 0.959 . S
H929 C943 0.961 . S
H930 C944 0.960 . S
H931 C944 0.961 1_565 S
H932 C944 0.959 . S
H933 C947 0.929 . S
H934 C948 0.931 . S
H935 C950 0.930 . S
C936 H924 0.930 . S
C936 C937 1.399 1_565 S
C936 C941 1.399 . S
C937 C936 1.399 1_545 S
C937 C938 1.376 . S
C938 H925 0.930 . S
C938 C937 1.376 . S
C938 C939 1.388 . S
C939 H926 0.930 . S
C939 C938 1.388 . S
C939 C940 1.390 . S
C940 C939 1.390 . S
C940 C941 1.394 1_545 S
C940 C946 1.465 . S
C941 C936 1.399 . S
C941 C940 1.394 1_565 S
C941 C942 1.516 . S
C942 C941 1.516 . S
C942 C943 1.502 . S
C942 C944 1.561 1_565 S
C942 C945 1.526 . S
C943 H927 0.959 . S
C943 H928 0.959 . S
C943 H929 0.961 . S
C943 C942 1.502 . S
C944 H930 0.960 . S
C944 H931 0.961 1_545 S
C944 H932 0.959 . S
C944 C942 1.561 1_545 S
C945 C942 1.526 . S
C945 C946 1.396 1_565 S
C945 C950 1.390 . S
C946 C940 1.465 . S
C946 C945 1.396 1_545 S
C946 C947 1.399 . S
C947 H933 0.929 . S
C947 C946 1.399 . S
C947 C948 1.385 . S
C948 H934 0.931 . S
C948 C947 1.385 . S
C948 C949 1.389 1_545 S
C949 C948 1.389 1_565 S
C949 C950 1.387 . S
C950 H935 0.930 . S
C950 C945 1.390 . S
C950 C949 1.387 . S
H951 C963 0.930 . S
H952 C965 0.930 . S
H953 C966 0.930 . S
H954 C970 0.959 . S
H955 C970 0.959 . S
H956 C970 0.961 . S
H957 C971 0.960 . S
H958 C971 0.961 . S
H959 C971 0.959 . S
H960 C974 0.929 . S
H961 C975 0.931 . S
H962 C977 0.930 . S
C963 H951 0.930 . S
C963 C964 1.399 . S
C963 C968 1.399 . S
C964 C963 1.399 . S
C964 C965 1.376 . S
C965 H952 0.930 . S
C965 C964 1.376 . S
C965 C966 1.388 . S
C966 H953 0.930 . S
C966 C965 1.388 . S
C966 C967 1.390 . S
C967 C966 1.390 . S
C967 C968 1.394 . S
C967 C973 1.465 . S
C968 C963 1.399 . S
C968 C967 1.394 . S
C968 C969 1.516 . S
C969 C968 1.516 . S
C969 C970 1.502 . S
C969 C971 1.561 . S
C969 C972 1.526 . S
C970 H954 0.959 . S
C970 H955 0.959 . S
C970 H956 0.961 . S
C970 C969 1.502 . S
C971 H957 0.960 . S
C971 H958 0.961 . S
C971 H959 0.959 . S
C971 C969 1.561 . S
C972 C969 1.526 . S
C972 C973 1.396 . S
C972 C977 1.390 . S
C973 C967 1.465 . S
C973 C972 1.396 . S
C973 C974 1.399 . S
C974 H960 0.929 . S
C974 C973 1.399 . S
C974 C975 1.385 . S
C975 H961 0.931 . S
C975 C974 1.385 . S
C975 C976 1.389 . S
C976 C975 1.389 . S
C976 C977 1.387 . S
C977 H962 0.930 . S
C977 C972 1.390 . S
C977 C976 1.387 . S
H978 C990 0.930 1_455 S
H979 C992 0.930 . S
H980 C993 0.930 . S
H981 C997 0.959 . S
H982 C997 0.959 . S
H983 C997 0.961 . S
H984 C998 0.960 . S
H985 C998 0.961 . S
H986 C998 0.959 . S
H987 C1001 0.929 . S
H988 C1002 0.931 . S
H989 C1004 0.930 . S
C990 H978 0.930 1_655 S
C990 C991 1.399 . S
C990 C995 1.399 . S
C991 C990 1.399 . S
C991 C992 1.376 . S
C992 H979 0.930 . S
C992 C991 1.376 . S
C992 C993 1.388 . S
C993 H980 0.930 . S
C993 C992 1.388 . S
C993 C994 1.390 . S
C994 C993 1.390 . S
C994 C995 1.394 . S
C994 C1000 1.465 . S
C995 C990 1.399 . S
C995 C994 1.394 . S
C995 C996 1.516 1_655 S
C996 C995 1.516 1_455 S
C996 C997 1.502 . S
C996 C998 1.561 1_455 S
C996 C999 1.526 . S
C997 H981 0.959 . S
C997 H982 0.959 . S
C997 H983 0.961 . S
C997 C996 1.502 . S
C998 H984 0.960 . S
C998 H985 0.961 . S
C998 H986 0.959 . S
C998 C996 1.561 1_655 S
C999 C996 1.526 . S
C999 C1000 1.396 1_455 S
C999 C1004 1.390 . S
C1000 C994 1.465 . S
C1000 C999 1.396 1_655 S
C1000 C1001 1.399 . S
C1001 H987 0.929 . S
C1001 C1000 1.399 . S
C1001 C1002 1.385 . S
C1002 H988 0.931 . S
C1002 C1001 1.385 . S
C1002 C1003 1.389 1_655 S
C1003 C1002 1.389 1_455 S
C1003 C1004 1.387 . S
C1004 H989 0.930 . S
C1004 C999 1.390 . S
C1004 C1003 1.387 . S
H1005 C1017 0.930 . S
H1006 C1019 0.930 . S
H1007 C1020 0.930 . S
H1008 C1024 0.959 1_545 S
H1009 C1024 0.959 . S
H1010 C1024 0.961 . S
H1011 C1025 0.960 . S
H1012 C1025 0.961 . S
H1013 C1025 0.959 . S
H1014 C1028 0.929 . S
H1015 C1029 0.931 . S
H1016 C1031 0.930 . S
C1017 H1005 0.930 . S
C1017 C1018 1.399 . S
C1017 C1022 1.399 . S
C1018 C1017 1.399 . S
C1018 C1019 1.376 1_565 S
C1019 H1006 0.930 . S
C1019 C1018 1.376 1_545 S
C1019 C1020 1.388 . S
C1020 H1007 0.930 . S
C1020 C1019 1.388 . S
C1020 C1021 1.390 . S
C1021 C1020 1.390 . S
C1021 C1022 1.394 1_545 S
C1021 C1027 1.465 . S
C1022 C1017 1.399 . S
C1022 C1021 1.394 1_565 S
C1022 C1023 1.516 . S
C1023 C1022 1.516 . S
C1023 C1024 1.502 . S
C1023 C1025 1.561 . S
C1023 C1026 1.526 . S
C1024 H1008 0.959 1_565 S
C1024 H1009 0.959 . S
C1024 H1010 0.961 . S
C1024 C1023 1.502 . S
C1025 H1011 0.960 . S
C1025 H1012 0.961 . S
C1025 H1013 0.959 . S
C1025 C1023 1.561 . S
C1026 C1023 1.526 . S
C1026 C1027 1.396 1_565 S
C1026 C1031 1.390 . S
C1027 C1021 1.465 . S
C1027 C1026 1.396 1_545 S
C1027 C1028 1.399 . S
C1028 H1014 0.929 . S
C1028 C1027 1.399 . S
C1028 C1029 1.385 . S
C1029 H1015 0.931 . S
C1029 C1028 1.385 . S
C1029 C1030 1.389 . S
C1030 C1029 1.389 . S
C1030 C1031 1.387 1_545 S
C1031 H1016 0.930 . S
C1031 C1026 1.390 . S
C1031 C1030 1.387 1_565 S
H1032 C1044 0.930 . S
H1033 C1046 0.930 1_565 S
H1034 C1047 0.930 . S
H1035 C1051 0.959 . S
H1036 C1051 0.959 . S
H1037 C1051 0.961 . S
H1038 C1052 0.960 . S
H1039 C1052 0.961 . S
H1040 C1052 0.959 . S
H1041 C1055 0.929 . S
H1042 C1056 0.931 . S
H1043 C1058 0.930 . S
C1044 H1032 0.930 . S
C1044 C1045 1.399 . S
C1044 C1049 1.399 . S
C1045 C1044 1.399 . S
C1045 C1046 1.376 . S
C1046 H1033 0.930 1_545 S
C1046 C1045 1.376 . S
C1046 C1047 1.388 . S
C1047 H1034 0.930 . S
C1047 C1046 1.388 . S
C1047 C1048 1.390 . S
C1048 C1047 1.390 . S
C1048 C1049 1.394 . S
C1048 C1054 1.465 . S
C1049 C1044 1.399 . S
C1049 C1048 1.394 . S
C1049 C1050 1.516 . S
C1050 C1049 1.516 . S
C1050 C1051 1.502 . S
C1050 C1052 1.561 . S
C1050 C1053 1.526 . S
C1051 H1035 0.959 . S
C1051 H1036 0.959 . S
C1051 H1037 0.961 . S
C1051 C1050 1.502 . S
C1052 H1038 0.960 . S
C1052 H1039 0.961 . S
C1052 H1040 0.959 . S
C1052 C1050 1.561 . S
C1053 C1050 1.526 . S
C1053 C1054 1.396 . S
C1053 C1058 1.390 . S
C1054 C1048 1.465 . S
C1054 C1053 1.396 . S
C1054 C1055 1.399 . S
C1055 H1041 0.929 . S
C1055 C1054 1.399 . S
C1055 C1056 1.385 . S
C1056 H1042 0.931 . S
C1056 C1055 1.385 . S
C1056 C1057 1.389 . S
C1057 C1056 1.389 . S
C1057 C1058 1.387 . S
C1058 H1043 0.930 . S
C1058 C1053 1.390 . S
C1058 C1057 1.387 . S
H1059 C1071 0.930 . S
H1060 C1073 0.930 1_655 S
H1061 C1074 0.930 . S
H1062 C1078 0.959 . S
H1063 C1078 0.959 . S
H1064 C1078 0.961 . S
H1065 C1079 0.960 . S
H1066 C1079 0.961 . S
H1067 C1079 0.959 . S
H1068 C1082 0.929 . S
H1069 C1083 0.931 . S
H1070 C1085 0.930 . S
C1071 H1059 0.930 . S
C1071 C1072 1.399 . S
C1071 C1076 1.399 . S
C1072 C1071 1.399 . S
C1072 C1073 1.376 . S
C1073 H1060 0.930 1_455 S
C1073 C1072 1.376 . S
C1073 C1074 1.388 . S
C1074 H1061 0.930 . S
C1074 C1073 1.388 . S
C1074 C1075 1.390 . S
C1075 C1074 1.390 . S
C1075 C1076 1.394 . S
C1075 C1081 1.465 . S
C1076 C1071 1.399 . S
C1076 C1075 1.394 . S
C1076 C1077 1.516 . S
C1077 C1076 1.516 . S
C1077 C1078 1.502 . S
C1077 C1079 1.561 . S
C1077 C1080 1.526 . S
C1078 H1062 0.959 . S
C1078 H1063 0.959 . S
C1078 H1064 0.961 . S
C1078 C1077 1.502 . S
C1079 H1065 0.960 . S
C1079 H1066 0.961 . S
C1079 H1067 0.959 . S
C1079 C1077 1.561 . S
C1080 C1077 1.526 . S
C1080 C1081 1.396 . S
C1080 C1085 1.390 . S
C1081 C1075 1.465 . S
C1081 C1080 1.396 . S
C1081 C1082 1.399 . S
C1082 H1068 0.929 . S
C1082 C1081 1.399 . S
C1082 C1083 1.385 . S
C1083 H1069 0.931 . S
C1083 C1082 1.385 . S
C1083 C1084 1.389 . S
C1084 C1083 1.389 . S
C1084 C1085 1.387 . S
C1085 H1070 0.930 . S
C1085 C1080 1.390 . S
C1085 C1084 1.387 . S
H1086 C1098 0.930 . S
H1087 C1100 0.930 1_455 S
H1088 C1101 0.930 . S
H1089 C1105 0.959 . S
H1090 C1105 0.959 . S
H1091 C1105 0.961 . S
H1092 C1106 0.960 . S
H1093 C1106 0.961 . S
H1094 C1106 0.959 . S
H1095 C1109 0.929 . S
H1096 C1110 0.931 . S
H1097 C1112 0.930 . S
C1098 H1086 0.930 . S
C1098 C1099 1.399 . S
C1098 C1103 1.399 . S
C1099 C1098 1.399 . S
C1099 C1100 1.376 . S
C1100 H1087 0.930 1_655 S
C1100 C1099 1.376 . S
C1100 C1101 1.388 . S
C1101 H1088 0.930 . S
C1101 C1100 1.388 . S
C1101 C1102 1.390 . S
C1102 C1101 1.390 . S
C1102 C1103 1.394 . S
C1102 C1108 1.465 . S
C1103 C1098 1.399 . S
C1103 C1102 1.394 . S
C1103 C1104 1.516 . S
C1104 C1103 1.516 . S
C1104 C1105 1.502 . S
C1104 C1106 1.561 . S
C1104 C1107 1.526 . S
C1105 H1089 0.959 . S
C1105 H1090 0.959 . S
C1105 H1091 0.961 . S
C1105 C1104 1.502 . S
C1106 H1092 0.960 . S
C1106 H1093 0.961 . S
C1106 H1094 0.959 . S
C1106 C1104 1.561 . S
C1107 C1104 1.526 . S
C1107 C1108 1.396 . S
C1107 C1112 1.390 . S
C1108 C1102 1.465 . S
C1108 C1107 1.396 . S
C1108 C1109 1.399 . S
C1109 H1095 0.929 . S
C1109 C1108 1.399 . S
C1109 C1110 1.385 . S
C1110 H1096 0.931 . S
C1110 C1109 1.385 . S
C1110 C1111 1.389 . S
C1111 C1110 1.389 . S
C1111 C1112 1.387 . S
C1112 H1097 0.930 . S
C1112 C1107 1.390 . S
C1112 C1111 1.387 . S
H1113 C1125 0.930 . S
H1114 C1127 0.930 1_545 S
H1115 C1128 0.930 . S
H1116 C1132 0.959 . S
H1117 C1132 0.959 . S
H1118 C1132 0.961 . S
H1119 C1133 0.960 . S
H1120 C1133 0.961 . S
H1121 C1133 0.959 . S
H1122 C1136 0.929 . S
H1123 C1137 0.931 . S
H1124 C1139 0.930 . S
C1125 H1113 0.930 . S
C1125 C1126 1.399 . S
C1125 C1130 1.399 . S
C1126 C1125 1.399 . S
C1126 C1127 1.376 . S
C1127 H1114 0.930 1_565 S
C1127 C1126 1.376 . S
C1127 C1128 1.388 . S
C1128 H1115 0.930 . S
C1128 C1127 1.388 . S
C1128 C1129 1.390 . S
C1129 C1128 1.390 . S
C1129 C1130 1.394 . S
C1129 C1135 1.465 . S
C1130 C1125 1.399 . S
C1130 C1129 1.394 . S
C1130 C1131 1.516 . S
C1131 C1130 1.516 . S
C1131 C1132 1.502 . S
C1131 C1133 1.561 . S
C1131 C1134 1.526 . S
C1132 H1116 0.959 . S
C1132 H1117 0.959 . S
C1132 H1118 0.961 . S
C1132 C1131 1.502 . S
C1133 H1119 0.960 . S
C1133 H1120 0.961 . S
C1133 H1121 0.959 . S
C1133 C1131 1.561 . S
C1134 C1131 1.526 . S
C1134 C1135 1.396 . S
C1134 C1139 1.390 . S
C1135 C1129 1.465 . S
C1135 C1134 1.396 . S
C1135 C1136 1.399 . S
C1136 H1122 0.929 . S
C1136 C1135 1.399 . S
C1136 C1137 1.385 . S
C1137 H1123 0.931 . S
C1137 C1136 1.385 . S
C1137 C1138 1.389 . S
C1138 C1137 1.389 . S
C1138 C1139 1.387 . S
C1139 H1124 0.930 . S
C1139 C1134 1.390 . S
C1139 C1138 1.387 . S
H1140 C1152 0.930 . S
H1141 C1154 0.930 . S
H1142 C1155 0.930 . S
H1143 C1159 0.959 . S
H1144 C1159 0.959 . S
H1145 C1159 0.961 . S
H1146 C1160 0.960 . S
H1147 C1160 0.961 . S
H1148 C1160 0.959 . S
H1149 C1163 0.929 . S
H1150 C1164 0.931 . S
H1151 C1166 0.930 . S
C1152 H1140 0.930 . S
C1152 C1153 1.399 . S
C1152 C1157 1.399 . S
C1153 C1152 1.399 . S
C1153 C1154 1.376 . S
C1154 H1141 0.930 . S
C1154 C1153 1.376 . S
C1154 C1155 1.388 . S
C1155 H1142 0.930 . S
C1155 C1154 1.388 . S
C1155 C1156 1.390 . S
C1156 C1155 1.390 . S
C1156 C1157 1.394 . S
C1156 C1162 1.465 . S
C1157 C1152 1.399 . S
C1157 C1156 1.394 . S
C1157 C1158 1.516 . S
C1158 C1157 1.516 . S
C1158 C1159 1.502 . S
C1158 C1160 1.561 . S
C1158 C1161 1.526 . S
C1159 H1143 0.959 . S
C1159 H1144 0.959 . S
C1159 H1145 0.961 . S
C1159 C1158 1.502 . S
C1160 H1146 0.960 . S
C1160 H1147 0.961 . S
C1160 H1148 0.959 . S
C1160 C1158 1.561 . S
C1161 C1158 1.526 . S
C1161 C1162 1.396 . S
C1161 C1166 1.390 . S
C1162 C1156 1.465 . S
C1162 C1161 1.396 . S
C1162 C1163 1.399 . S
C1163 H1149 0.929 . S
C1163 C1162 1.399 . S
C1163 C1164 1.385 . S
C1164 H1150 0.931 . S
C1164 C1163 1.385 . S
C1164 C1165 1.389 . S
C1165 C1164 1.389 . S
C1165 C1166 1.387 . S
C1166 H1151 0.930 . S
C1166 C1161 1.390 . S
C1166 C1165 1.387 . S
H1167 C1179 0.930 . S
H1168 C1181 0.930 . S
H1169 C1182 0.930 . S
H1170 C1186 0.959 . S
H1171 C1186 0.959 . S
H1172 C1186 0.961 . S
H1173 C1187 0.960 . S
H1174 C1187 0.961 . S
H1175 C1187 0.959 . S
H1176 C1190 0.929 . S
H1177 C1191 0.931 . S
H1178 C1193 0.930 . S
C1179 H1167 0.930 . S
C1179 C1180 1.399 . S
C1179 C1184 1.399 . S
C1180 C1179 1.399 . S
C1180 C1181 1.376 . S
C1181 H1168 0.930 . S
C1181 C1180 1.376 . S
C1181 C1182 1.388 . S
C1182 H1169 0.930 . S
C1182 C1181 1.388 . S
C1182 C1183 1.390 . S
C1183 C1182 1.390 . S
C1183 C1184 1.394 . S
C1183 C1189 1.465 . S
C1184 C1179 1.399 . S
C1184 C1183 1.394 . S
C1184 C1185 1.516 . S
C1185 C1184 1.516 . S
C1185 C1186 1.502 . S
C1185 C1187 1.561 . S
C1185 C1188 1.526 . S
C1186 H1170 0.959 . S
C1186 H1171 0.959 . S
C1186 H1172 0.961 . S
C1186 C1185 1.502 . S
C1187 H1173 0.960 . S
C1187 H1174 0.961 . S
C1187 H1175 0.959 . S
C1187 C1185 1.561 . S
C1188 C1185 1.526 . S
C1188 C1189 1.396 . S
C1188 C1193 1.390 . S
C1189 C1183 1.465 . S
C1189 C1188 1.396 . S
C1189 C1190 1.399 . S
C1190 H1176 0.929 . S
C1190 C1189 1.399 . S
C1190 C1191 1.385 . S
C1191 H1177 0.931 . S
C1191 C1190 1.385 . S
C1191 C1192 1.389 . S
C1192 C1191 1.389 . S
C1192 C1193 1.387 . S
C1193 H1178 0.930 . S
C1193 C1188 1.390 . S
C1193 C1192 1.387 . S
H1194 C1206 0.930 . S
H1195 C1208 0.930 . S
H1196 C1209 0.930 . S
H1197 C1213 0.959 . S
H1198 C1213 0.959 . S
H1199 C1213 0.961 . S
H1200 C1214 0.960 . S
H1201 C1214 0.961 . S
H1202 C1214 0.959 . S
H1203 C1217 0.929 . S
H1204 C1218 0.931 . S
H1205 C1220 0.930 . S
C1206 H1194 0.930 . S
C1206 C1207 1.399 . S
C1206 C1211 1.399 . S
C1207 C1206 1.399 . S
C1207 C1208 1.376 . S
C1208 H1195 0.930 . S
C1208 C1207 1.376 . S
C1208 C1209 1.388 . S
C1209 H1196 0.930 . S
C1209 C1208 1.388 . S
C1209 C1210 1.390 . S
C1210 C1209 1.390 . S
C1210 C1211 1.394 . S
C1210 C1216 1.465 . S
C1211 C1206 1.399 . S
C1211 C1210 1.394 . S
C1211 C1212 1.516 . S
C1212 C1211 1.516 . S
C1212 C1213 1.502 . S
C1212 C1214 1.561 . S
C1212 C1215 1.526 . S
C1213 H1197 0.959 . S
C1213 H1198 0.959 . S
C1213 H1199 0.961 . S
C1213 C1212 1.502 . S
C1214 H1200 0.960 . S
C1214 H1201 0.961 . S
C1214 H1202 0.959 . S
C1214 C1212 1.561 . S
C1215 C1212 1.526 . S
C1215 C1216 1.396 . S
C1215 C1220 1.390 . S
C1216 C1210 1.465 . S
C1216 C1215 1.396 . S
C1216 C1217 1.399 . S
C1217 H1203 0.929 . S
C1217 C1216 1.399 . S
C1217 C1218 1.385 . S
C1218 H1204 0.931 . S
C1218 C1217 1.385 . S
C1218 C1219 1.389 . S
C1219 C1218 1.389 . S
C1219 C1220 1.387 . S
C1220 H1205 0.930 . S
C1220 C1215 1.390 . S
C1220 C1219 1.387 . S
H1221 C1233 0.930 . S
H1222 C1235 0.930 . S
H1223 C1236 0.930 . S
H1224 C1240 0.959 . S
H1225 C1240 0.959 . S
H1226 C1240 0.961 . S
H1227 C1241 0.960 . S
H1228 C1241 0.961 . S
H1229 C1241 0.959 . S
H1230 C1244 0.929 . S
H1231 C1245 0.931 . S
H1232 C1247 0.930 1_655 S
C1233 H1221 0.930 . S
C1233 C1234 1.399 . S
C1233 C1238 1.399 . S
C1234 C1233 1.399 . S
C1234 C1235 1.376 1_655 S
C1235 H1222 0.930 . S
C1235 C1234 1.376 1_455 S
C1235 C1236 1.388 . S
C1236 H1223 0.930 . S
C1236 C1235 1.388 . S
C1236 C1237 1.390 . S
C1237 C1236 1.390 . S
C1237 C1238 1.394 1_455 S
C1237 C1243 1.465 . S
C1238 C1233 1.399 . S
C1238 C1237 1.394 1_655 S
C1238 C1239 1.516 . S
C1239 C1238 1.516 . S
C1239 C1240 1.502 . S
C1239 C1241 1.561 . S
C1239 C1242 1.526 . S
C1240 H1224 0.959 . S
C1240 H1225 0.959 . S
C1240 H1226 0.961 . S
C1240 C1239 1.502 . S
C1241 H1227 0.960 . S
C1241 H1228 0.961 . S
C1241 H1229 0.959 . S
C1241 C1239 1.561 . S
C1242 C1239 1.526 . S
C1242 C1243 1.396 1_655 S
C1242 C1247 1.390 1_655 S
C1243 C1237 1.465 . S
C1243 C1242 1.396 1_455 S
C1243 C1244 1.399 . S
C1244 H1230 0.929 . S
C1244 C1243 1.399 . S
C1244 C1245 1.385 . S
C1245 H1231 0.931 . S
C1245 C1244 1.385 . S
C1245 C1246 1.389 . S
C1246 C1245 1.389 . S
C1246 C1247 1.387 . S
C1247 H1232 0.930 1_455 S
C1247 C1242 1.390 1_455 S
C1247 C1246 1.387 . S
H1248 C1260 0.930 . S
H1249 C1262 0.930 . S
H1250 C1263 0.930 . S
H1251 C1267 0.976 . S
H1252 C1267 0.907 1_556 S
H1253 C1267 1.012 1_545 S
H1254 C1268 0.960 1_554 S
H1255 C1268 0.961 . S
H1256 C1268 0.959 . S
H1257 C1271 0.929 . S
H1258 C1272 0.931 . S
H1259 C1274 0.930 . S
C1260 H1248 0.930 . S
C1260 C1261 1.399 . S
C1260 C1265 1.399 . S
C1261 C1260 1.399 . S
C1261 C1262 1.376 . S
C1262 H1249 0.930 . S
C1262 C1261 1.376 . S
C1262 C1263 1.388 . S
C1263 H1250 0.930 . S
C1263 C1262 1.388 . S
C1263 C1264 1.390 . S
C1264 C1263 1.390 . S
C1264 C1265 1.394 . S
C1264 C1270 1.465 1_544 S
C1265 C1260 1.399 . S
C1265 C1264 1.394 . S
C1265 C1266 1.516 1_554 S
C1266 C1265 1.516 1_556 S
C1266 C1267 1.493 1_546 S
C1266 C1268 1.561 . S
C1266 C1269 1.526 1_545 S
C1267 H1251 0.976 . S
C1267 H1252 0.907 1_554 S
C1267 H1253 1.012 1_565 S
C1267 C1266 1.493 1_564 S
C1268 H1254 0.960 1_556 S
C1268 H1255 0.961 . S
C1268 H1256 0.959 . S
C1268 C1266 1.561 . S
C1269 C1266 1.526 1_565 S
C1269 C1270 1.396 . S
C1269 C1274 1.390 . S
C1270 C1264 1.465 1_566 S
C1270 C1269 1.396 . S
C1270 C1271 1.399 . S
C1271 H1257 0.929 . S
C1271 C1270 1.399 . S
C1271 C1272 1.385 . S
C1272 H1258 0.931 . S
C1272 C1271 1.385 . S
C1272 C1273 1.389 . S
C1273 C1272 1.389 . S
C1273 C1274 1.387 . S
C1274 H1259 0.930 . S
C1274 C1269 1.390 . S
C1274 C1273 1.387 . S
H1275 C1287 0.930 . S
H1276 C1289 0.930 . S
H1277 C1290 0.930 . S
H1278 C1294 0.959 . S
H1279 C1294 0.959 . S
H1280 C1294 0.961 . S
H1281 C1295 0.960 . S
H1282 C1295 0.961 . S
H1283 C1295 0.959 . S
H1284 C1298 0.929 . S
H1285 C1299 0.931 . S
H1286 C1301 0.930 . S
C1287 H1275 0.930 . S
C1287 C1288 1.399 . S
C1287 C1292 1.399 . S
C1288 C1287 1.399 . S
C1288 C1289 1.376 . S
C1289 H1276 0.930 . S
C1289 C1288 1.376 . S
C1289 C1290 1.388 . S
C1290 H1277 0.930 . S
C1290 C1289 1.388 . S
C1290 C1291 1.390 . S
C1291 C1290 1.390 . S
C1291 C1292 1.394 . S
C1291 C1297 1.465 . S
C1292 C1287 1.399 . S
C1292 C1291 1.394 . S
C1292 C1293 1.516 . S
C1293 C1292 1.516 . S
C1293 C1294 1.502 . S
C1293 C1295 1.561 . S
C1293 C1296 1.526 . S
C1294 H1278 0.959 . S
C1294 H1279 0.959 . S
C1294 H1280 0.961 . S
C1294 C1293 1.502 . S
C1295 H1281 0.960 . S
C1295 H1282 0.961 . S
C1295 H1283 0.959 . S
C1295 C1293 1.561 . S
C1296 C1293 1.526 . S
C1296 C1297 1.396 . S
C1296 C1301 1.390 . S
C1297 C1291 1.465 . S
C1297 C1296 1.396 . S
C1297 C1298 1.399 . S
C1298 H1284 0.929 . S
C1298 C1297 1.399 . S
C1298 C1299 1.385 . S
C1299 H1285 0.931 . S
C1299 C1298 1.385 . S
C1299 C1300 1.389 . S
C1300 C1299 1.389 . S
C1300 C1301 1.387 . S
C1301 H1286 0.930 . S
C1301 C1296 1.390 . S
C1301 C1300 1.387 . S
H1302 C1314 0.930 . S
H1303 C1316 0.930 . S
H1304 C1317 0.930 . S
H1305 C1321 0.959 . S
H1306 C1321 0.959 . S
H1307 C1321 0.961 . S
H1308 C1322 0.960 . S
H1309 C1322 0.961 . S
H1310 C1322 0.959 . S
H1311 C1325 0.929 . S
H1312 C1326 0.931 . S
H1313 C1328 0.930 . S
C1314 H1302 0.930 . S
C1314 C1315 1.399 . S
C1314 C1319 1.399 . S
C1315 C1314 1.399 . S
C1315 C1316 1.376 1_455 S
C1316 H1303 0.930 . S
C1316 C1315 1.376 1_655 S
C1316 C1317 1.388 . S
C1317 H1304 0.930 . S
C1317 C1316 1.388 . S
C1317 C1318 1.390 . S
C1318 C1317 1.390 . S
C1318 C1319 1.394 1_655 S
C1318 C1324 1.465 . S
C1319 C1314 1.399 . S
C1319 C1318 1.394 1_455 S
C1319 C1320 1.516 . S
C1320 C1319 1.516 . S
C1320 C1321 1.502 . S
C1320 C1322 1.561 . S
C1320 C1323 1.526 . S
C1321 H1305 0.959 . S
C1321 H1306 0.959 . S
C1321 H1307 0.961 . S
C1321 C1320 1.502 . S
C1322 H1308 0.960 . S
C1322 H1309 0.961 . S
C1322 H1310 0.959 . S
C1322 C1320 1.561 . S
C1323 C1320 1.526 . S
C1323 C1324 1.396 1_455 S
C1323 C1328 1.389 . S
C1324 C1318 1.465 . S
C1324 C1323 1.396 1_655 S
C1324 C1325 1.399 . S
C1325 H1311 0.929 . S
C1325 C1324 1.399 . S
C1325 C1326 1.385 . S
C1326 H1312 0.931 . S
C1326 C1325 1.385 . S
C1326 C1327 1.389 . S
C1327 C1326 1.389 . S
C1327 C1328 1.387 1_655 S
C1328 H1313 0.930 . S
C1328 C1323 1.389 . S
C1328 C1327 1.387 1_455 S
H1329 C1341 0.930 . S
H1330 C1343 0.930 . S
H1331 C1344 0.930 . S
H1332 C1348 0.959 . S
H1333 C1348 0.959 . S
H1334 C1348 1.003 . S
H1335 C1349 0.960 . S
H1336 C1349 0.961 . S
H1337 C1349 0.959 . S
H1338 C1352 0.929 . S
H1339 C1353 0.931 . S
H1340 C1355 0.930 . S
C1341 H1329 0.930 . S
C1341 C1342 1.399 . S
C1341 C1346 1.399 . S
C1342 C1341 1.399 . S
C1342 C1343 1.376 1_565 S
C1343 H1330 0.930 . S
C1343 C1342 1.376 1_545 S
C1343 C1344 1.388 . S
C1344 H1331 0.930 . S
C1344 C1343 1.388 . S
C1344 C1345 1.390 . S
C1345 C1344 1.390 . S
C1345 C1346 1.394 1_545 S
C1345 C1351 1.465 1_554 S
C1346 C1341 1.399 . S
C1346 C1345 1.394 1_565 S
C1346 C1347 1.516 1_554 S
C1347 C1346 1.516 1_556 S
C1347 C1348 1.502 . S
C1347 C1349 1.561 . S
C1347 C1350 1.526 . S
C1348 H1332 0.959 . S
C1348 H1333 0.959 . S
C1348 H1334 1.003 . S
C1348 C1347 1.502 . S
C1349 H1335 0.960 . S
C1349 H1336 0.961 . S
C1349 H1337 0.959 . S
C1349 C1347 1.561 . S
C1350 C1347 1.526 . S
C1350 C1351 1.396 1_565 S
C1350 C1355 1.390 . S
C1351 C1345 1.465 1_556 S
C1351 C1350 1.396 1_545 S
C1351 C1352 1.399 . S
C1352 H1338 0.929 . S
C1352 C1351 1.399 . S
C1352 C1353 1.385 . S
C1353 H1339 0.931 . S
C1353 C1352 1.385 . S
C1353 C1354 1.389 . S
C1354 C1353 1.389 . S
C1354 C1355 1.387 1_545 S
C1355 H1340 0.930 . S
C1355 C1350 1.390 . S
C1355 C1354 1.387 1_565 S
C721 C682 1.878 . S
C733 C33 1.858 . S
C748 C92 1.858 . S
C760 C387 1.836 . S
C775 C151 1.877 . S
C787 C446 1.863 . S
C802 C210 1.845 . S
C814 C505 1.843 . S
C829 C564 1.851 . S
C841 C269 1.879 . S
C856 C328 1.856 . S
C868 C623 1.879 . S
C883 C180 1.371 . S
C895 C3 1.391 . S
C910 C239 1.371 . S
C922 C62 1.385 . S
C937 C298 1.400 . S
C949 C121 1.385 . S
C964 C357 1.399 . S
C976 C534 1.378 . S
C991 C416 1.400 . S
C1003 C593 1.387 . S
C1018 C475 1.391 . S
C1030 C652 1.398 . S
C1045 C524 0.353 . S
C1057 C52 0.237 . S
C1072 C111 0.392 . S
C1084 C583 0.194 . S
C1099 C642 0.311 . S
C1111 C170 0.282 . S
C1126 C701 0.411 . S
C1138 C229 0.182 . S
C1153 C406 0.414 . S
C1165 C288 0.247 . S
C1180 C347 0.420 . S
C1192 C465 0.187 . S
C1207 C536 1.615 . S
C1219 C5 1.631 . S
C1234 C64 1.605 . S
C1246 C595 1.652 . S
C1261 C654 1.640 . S
C1273 C123 1.636 . S
C1288 C182 1.618 . S
C1300 C359 1.629 . S
C1315 C241 1.619 . S
C1327 C418 1.653 . S
C1342 C477 1.616 . S
C1354 C300 1.654 . S
