# Generated by pormake.
# Topology sml, (6)-cn, num edge types: 1
# Building blocks:
#     Node 0, Type 0, BuildingBlock: KUMJIN_clean_sbu_1, # of connection points: 6
#     Node 1, Type 0, BuildingBlock: KUMJIN_clean_sbu_1, # of connection points: 6
#     Node 2, Type 0, BuildingBlock: KUMJIN_clean_sbu_1, # of connection points: 6
#     Node 3, Type 0, BuildingBlock: KUMJIN_clean_sbu_1, # of connection points: 6
#     Node 4, Type 0, BuildingBlock: KUMJIN_clean_sbu_1, # of connection points: 6
#     Node 5, Type 0, BuildingBlock: KUMJIN_clean_sbu_1, # of connection points: 6
#     Edge 6, Type (0, 0), BuildingBlock: TEMPAE_clean_linker_10, # of connection points: 2
#     Edge 7, Type (0, 0), BuildingBlock: TEMPAE_clean_linker_10, # of connection points: 2
#     Edge 8, Type (0, 0), BuildingBlock: TEMPAE_clean_linker_10, # of connection points: 2
#     Edge 9, Type (0, 0), BuildingBlock: TEMPAE_clean_linker_10, # of connection points: 2
#     Edge 10, Type (0, 0), BuildingBlock: TEMPAE_clean_linker_10, # of connection points: 2
#     Edge 11, Type (0, 0), BuildingBlock: TEMPAE_clean_linker_10, # of connection points: 2
#     Edge 12, Type (0, 0), BuildingBlock: TEMPAE_clean_linker_10, # of connection points: 2
#     Edge 13, Type (0, 0), BuildingBlock: TEMPAE_clean_linker_10, # of connection points: 2
#     Edge 14, Type (0, 0), BuildingBlock: TEMPAE_clean_linker_10, # of connection points: 2
#     Edge 15, Type (0, 0), BuildingBlock: TEMPAE_clean_linker_10, # of connection points: 2
#     Edge 16, Type (0, 0), BuildingBlock: TEMPAE_clean_linker_10, # of connection points: 2
#     Edge 17, Type (0, 0), BuildingBlock: TEMPAE_clean_linker_10, # of connection points: 2
#     Edge 18, Type (0, 0), BuildingBlock: TEMPAE_clean_linker_10, # of connection points: 2
#     Edge 19, Type (0, 0), BuildingBlock: TEMPAE_clean_linker_10, # of connection points: 2
#     Edge 20, Type (0, 0), BuildingBlock: TEMPAE_clean_linker_10, # of connection points: 2
#     Edge 21, Type (0, 0), BuildingBlock: TEMPAE_clean_linker_10, # of connection points: 2
#     Edge 22, Type (0, 0), BuildingBlock: TEMPAE_clean_linker_10, # of connection points: 2
#     Edge 23, Type (0, 0), BuildingBlock: TEMPAE_clean_linker_10, # of connection points: 2
# Relax obj value: 0.062
# Max RMSD: 0.175
# Mean RMSD: 0.175
data_MOF--net-sml--node1-KUMJIN_clean_sbu_1--edge1-TEMPAE_clean_linker_10
_symmetry_space_group_name_H-M    P1
_symmetry_Int_Tables_number       1
_symmetry_cell_setting            triclinic
loop_
_symmetry_equiv_pos_as_xyz
'x, y, z'
_cell_length_a     33.659283
_cell_length_b     33.688704
_cell_length_c     24.508055
_cell_angle_alpha  90.045733
_cell_angle_beta   90.119364
_cell_angle_gamma 120.00362
loop_
_atom_site_label
_atom_site_type_symbol
_atom_site_fract_x
_atom_site_fract_y
_atom_site_fract_z
_atom_type_partial_charge
Eu0 Eu 0.16976 0.42407 0.94877 0.0
C1 C 0.35043 0.44525 0.06239 0.0
N2 N 0.30981 0.40532 0.05844 0.0
C3 C 0.34921 0.36478 0.03578 0.0
C4 C 0.39226 0.44654 0.05185 0.0
C5 C 0.30867 0.36527 0.04642 0.0
C6 C 0.3912 0.40565 0.03816 0.0
C7 C 0.39175 0.52713 0.08019 0.0
C8 C 0.3501 0.4851 0.07635 0.0
C9 C 0.43342 0.52857 0.06928 0.0
C10 C 0.43367 0.4884 0.05519 0.0
Eu11 Eu 0.24271 0.40925 0.07466 0.0
N12 N 0.30905 0.48286 0.08536 0.0
C13 C 0.39033 0.56648 0.0951 0.0
C14 C 0.30788 0.52076 0.10265 0.0
C15 C 0.34825 0.56314 0.107 0.0
H16 H 0.2765 0.33353 0.04642 0.0
H17 H 0.34689 0.59314 0.12007 0.0
H18 H 0.13438 0.49814 0.97861 0.0
H19 H 0.06885 0.24017 0.90247 0.0
H20 H 0.27625 0.51866 0.11428 0.0
H21 H 0.42154 0.59939 0.09851 0.0
H22 H 0.13865 0.31528 0.90879 0.0
H23 H 0.34806 0.33286 0.02607 0.0
H24 H 0.46568 0.56059 0.07186 0.0
H25 H 0.46612 0.49007 0.04709 0.0
H26 H 0.0617 0.49742 0.9963 0.0
H27 H 0.42259 0.40521 0.02984 0.0
H28 H 0.99339 0.23246 0.92275 0.0
N29 N 0.10192 0.42669 0.96342 0.0
C30 C 0.06175 0.38639 0.95897 0.0
C31 C 0.06124 0.46593 0.98606 0.0
C32 C 0.01944 0.3843 0.96867 0.0
C33 C 0.10233 0.46624 0.97642 0.0
C34 C 0.01959 0.42476 0.98232 0.0
N35 N 0.10453 0.34993 0.93747 0.0
C36 C 0.10666 0.31252 0.92027 0.0
C37 C 0.02187 0.30453 0.94126 0.0
C38 C 0.06305 0.34692 0.94567 0.0
C39 C 0.02423 0.26563 0.92663 0.0
C40 C 0.06678 0.26979 0.91545 0.0
H41 H 0.98781 0.4246 0.98997 0.0
H42 H 0.94568 0.33975 0.97225 0.0
H43 H 0.94782 0.26992 0.94831 0.0
O44 O 0.18008 0.41868 0.86054 0.0
O45 O 0.13178 0.38945 0.02547 0.0
O46 O 0.17033 0.35341 0.05423 0.0
O47 O 0.16386 0.46996 0.8912 0.0
O48 O 0.21019 0.38793 0.93336 0.0
O49 O 0.21293 0.35142 0.0124 0.0
O50 O 0.23422 0.41498 0.16359 0.0
O51 O 0.2815 0.44687 0.99824 0.0
O52 O 0.24021 0.48063 0.97262 0.0
O53 O 0.25059 0.36428 0.13171 0.0
O54 O 0.20387 0.44736 0.09175 0.0
O55 O 0.19872 0.48149 0.01148 0.0
C56 C 0.13505 0.35976 0.0567 0.0
C57 C 0.175 0.47027 0.79335 0.0
C58 C 0.17724 0.46447 0.69378 0.0
C59 C 0.17935 0.50713 0.68943 0.0
C60 C 0.17684 0.51262 0.78736 0.0
C61 C 0.17917 0.53089 0.73581 0.0
C62 C 0.17569 0.44632 0.74625 0.0
C63 C 0.21579 0.35665 0.95887 0.0
C64 C 0.17304 0.45245 0.84905 0.0
C65 C 0.97849 0.34204 0.96482 0.0
C66 C 0.97971 0.30227 0.95122 0.0
C67 C 0.27704 0.47712 0.96927 0.0
C68 C 0.244 0.3655 0.23023 0.0
C69 C 0.22966 0.36168 0.32865 0.0
C70 C 0.24524 0.3302 0.33373 0.0
C71 C 0.25967 0.33414 0.23689 0.0
C72 C 0.22949 0.37979 0.27667 0.0
C73 C 0.26038 0.31682 0.28824 0.0
C74 C 0.19687 0.4775 0.06525 0.0
C75 C 0.24294 0.38221 0.17454 0.0
H76 H 0.18161 0.52248 0.6499 0.0
H77 H 0.17685 0.53198 0.82269 0.0
H78 H 0.18092 0.56372 0.73176 0.0
H79 H 0.17419 0.41356 0.7503 0.0
H80 H 0.24619 0.31631 0.37327 0.0
H81 H 0.27148 0.32287 0.20228 0.0
H82 H 0.21742 0.40403 0.2724 0.0
H83 H 0.27267 0.29281 0.29277 0.0
Eu84 Eu 0.83326 0.25591 0.41624 0.0
C85 C 0.65265 0.0999 0.29819 0.0
N86 N 0.69316 0.1004 0.30297 0.0
C87 C 0.65342 0.0202 0.32377 0.0
C88 C 0.61065 0.05917 0.30699 0.0
C89 C 0.69422 0.06143 0.31507 0.0
C90 C 0.61146 0.01906 0.31982 0.0
C91 C 0.61177 0.14136 0.28296 0.0
C92 C 0.65328 0.1407 0.28637 0.0
C93 C 0.56989 0.10076 0.29143 0.0
C94 C 0.56933 0.05982 0.30336 0.0
Eu95 Eu 0.75999 0.17135 0.28748 0.0
N96 N 0.69449 0.17993 0.28003 0.0
C97 C 0.61357 0.18291 0.27139 0.0
C98 C 0.69624 0.22004 0.26665 0.0
C99 C 0.65596 0.2223 0.26278 0.0
H100 H 0.72664 0.06216 0.31777 0.0
H101 H 0.65764 0.25438 0.25273 0.0
H102 H 0.8661 0.36349 0.37701 0.0
H103 H 0.93617 0.17987 0.48028 0.0
H104 H 0.72836 0.25023 0.25804 0.0
H105 H 0.58245 0.18484 0.26846 0.0
H106 H 0.86496 0.18113 0.46146 0.0
H107 H 0.65438 0.98937 0.33364 0.0
H108 H 0.5377 0.10069 0.28901 0.0
H109 H 0.53673 0.02886 0.31002 0.0
H110 H 0.93816 0.43611 0.36042 0.0
H111 H 0.57991 0.9871 0.32687 0.0
H112 H 0.01145 0.24995 0.46684 0.0
N113 N 0.89983 0.32715 0.40074 0.0
C114 C 0.94046 0.3291 0.41111 0.0
C115 C 0.93928 0.4062 0.37437 0.0
C116 C 0.98241 0.36992 0.40251 0.0
C117 C 0.89854 0.36493 0.3833 0.0
C118 C 0.98141 0.40868 0.38377 0.0
N119 N 0.89915 0.25028 0.43464 0.0
C120 C 0.89736 0.21148 0.4539 0.0
C121 C 0.98179 0.2908 0.44017 0.0
C122 C 0.9401 0.28981 0.42933 0.0
C123 C 0.98019 0.25062 0.45822 0.0
C124 C 0.93778 0.2109 0.46546 0.0
H125 H 0.01292 0.44068 0.37669 0.0
H126 H 0.05644 0.40167 0.40555 0.0
H127 H 0.0559 0.33245 0.43858 0.0
O128 O 0.81849 0.23944 0.50376 0.0
O129 O 0.87472 0.2555 0.34359 0.0
O130 O 0.83135 0.18384 0.30443 0.0
O131 O 0.83958 0.30828 0.47322 0.0
O132 O 0.79384 0.17882 0.4302 0.0
O133 O 0.79194 0.14416 0.3474 0.0
O134 O 0.76526 0.18529 0.19848 0.0
O135 O 0.7207 0.16708 0.36495 0.0
O136 O 0.76356 0.24136 0.38912 0.0
O137 O 0.75087 0.1186 0.22981 0.0
O138 O 0.80294 0.24833 0.27166 0.0
O139 O 0.80387 0.28346 0.3532 0.0
C140 C 0.86928 0.22353 0.30866 0.0
C141 C 0.82439 0.29684 0.57029 0.0
C142 C 0.82287 0.28994 0.66969 0.0
C143 C 0.82221 0.3312 0.67391 0.0
C144 C 0.82341 0.33786 0.5758 0.0
C145 C 0.82216 0.35475 0.62726 0.0
C146 C 0.82334 0.27241 0.61754 0.0
C147 C 0.78721 0.14326 0.40076 0.0
C148 C 0.82762 0.28101 0.51511 0.0
C149 C 0.02391 0.37073 0.41245 0.0
C150 C 0.0236 0.33134 0.43137 0.0
C151 C 0.7274 0.20128 0.39641 0.0
C152 C 0.75337 0.12546 0.13157 0.0
C153 C 0.76787 0.13542 0.03337 0.0
C154 C 0.74761 0.08766 0.02773 0.0
C155 C 0.73318 0.0778 0.12454 0.0
C156 C 0.77028 0.15432 0.08555 0.0
C157 C 0.73024 0.05913 0.07297 0.0
C158 C 0.81037 0.28474 0.30001 0.0
C159 C 0.75667 0.14385 0.18724 0.0
H160 H 0.82127 0.34502 0.71351 0.0
H161 H 0.82368 0.35706 0.54022 0.0
H162 H 0.82138 0.38636 0.63102 0.0
H163 H 0.82413 0.24074 0.61392 0.0
H164 H 0.74468 0.07228 0.98799 0.0
H165 H 0.71946 0.05475 0.15901 0.0
H166 H 0.786 0.19114 0.09035 0.0
H167 H 0.71443 0.02237 0.06805 0.0
Eu168 Eu 0.57581 0.74239 0.61672 0.0
C169 C 0.5585 0.90411 0.74786 0.0
N170 N 0.59807 0.90266 0.74541 0.0
C171 C 0.64184 0.98466 0.7405 0.0
C172 C 0.55911 0.94627 0.74526 0.0
C173 C 0.63946 0.94205 0.74297 0.0
C174 C 0.60146 0.98678 0.74115 0.0
C175 C 0.47553 0.86376 0.75571 0.0
C176 C 0.51722 0.86333 0.75321 0.0
C177 C 0.47596 0.90558 0.75213 0.0
C178 C 0.51763 0.94673 0.74699 0.0
Eu179 Eu 0.59095 0.82928 0.74521 0.0
N180 N 0.5178 0.82322 0.75533 0.0
C181 C 0.43461 0.82213 0.76187 0.0
C182 C 0.47807 0.78281 0.76357 0.0
C183 C 0.43598 0.78157 0.76642 0.0
H184 H 0.67079 0.94062 0.74363 0.0
H185 H 0.40459 0.74927 0.77226 0.0
H186 H 0.49912 0.63312 0.64419 0.0
H187 H 0.7616 0.82357 0.58403 0.0
H188 H 0.47826 0.75134 0.76822 0.0
H189 H 0.4019 0.82101 0.76391 0.0
H190 H 0.68745 0.82062 0.58892 0.0
H191 H 0.6748 0.01583 0.7382 0.0
H192 H 0.44425 0.9065 0.75365 0.0
H193 H 0.51742 0.97875 0.74466 0.0
H194 H 0.49727 0.55966 0.65919 0.0
H195 H 0.60339 0.01983 0.7391 0.0
H196 H 0.76599 0.75324 0.59855 0.0
N197 N 0.57081 0.67066 0.62964 0.0
C198 C 0.61048 0.66956 0.62511 0.0
C199 C 0.52935 0.59032 0.64981 0.0
C200 C 0.61109 0.62844 0.63366 0.0
C201 C 0.53052 0.63196 0.64167 0.0
C202 C 0.56982 0.58854 0.64588 0.0
N203 N 0.64947 0.7496 0.6079 0.0
C204 C 0.68845 0.78975 0.59611 0.0
C205 C 0.69291 0.71027 0.61129 0.0
C206 C 0.65094 0.71009 0.61391 0.0
C207 C 0.73308 0.75168 0.60081 0.0
C208 C 0.73076 0.79147 0.59281 0.0
H209 H 0.56886 0.55627 0.65259 0.0
H210 H 0.65399 0.59738 0.63738 0.0
H211 H 0.72556 0.66902 0.61861 0.0
O212 O 0.5813 0.75765 0.52846 0.0
O213 O 0.6113 0.73819 0.69236 0.0
O214 O 0.64495 0.81299 0.71647 0.0
O215 O 0.52837 0.69118 0.55944 0.0
O216 O 0.61387 0.81928 0.60034 0.0
O217 O 0.64551 0.86267 0.67977 0.0
O218 O 0.582 0.80986 0.8318 0.0
O219 O 0.55265 0.83321 0.67047 0.0
O220 O 0.522 0.75914 0.64383 0.0
O221 O 0.64267 0.87169 0.80523 0.0
O222 O 0.55323 0.75211 0.75967 0.0
O223 O 0.51853 0.7138 0.67926 0.0
C224 C 0.63975 0.77225 0.72313 0.0
C225 C 0.52896 0.70124 0.4614 0.0
C226 C 0.53422 0.71071 0.36229 0.0
C227 C 0.49523 0.66705 0.35667 0.0
C228 C 0.48983 0.6578 0.4545 0.0
C229 C 0.47311 0.64098 0.4025 0.0
C230 C 0.55084 0.72804 0.41496 0.0
C231 C 0.64141 0.85816 0.626 0.0
C232 C 0.54681 0.71715 0.51711 0.0
C233 C 0.65281 0.62857 0.63071 0.0
C234 C 0.6936 0.66939 0.61983 0.0
C235 C 0.52562 0.79931 0.63797 0.0
C236 C 0.62137 0.86895 0.89832 0.0
C237 C 0.62002 0.86719 0.99798 0.0
C238 C 0.63555 0.91438 0.99878 0.0
C239 C 0.63602 0.91601 0.89999 0.0
C240 C 0.61265 0.84451 0.94759 0.0
C241 C 0.64301 0.93847 0.95002 0.0
C242 C 0.52387 0.71483 0.7328 0.0
C243 C 0.62026 0.84601 0.84652 0.0
H244 H 0.48159 0.65326 0.31662 0.0
H245 H 0.47214 0.63654 0.48935 0.0
H246 H 0.44296 0.60747 0.39769 0.0
H247 H 0.58106 0.76161 0.41956 0.0
H248 H 0.64152 0.93247 0.03719 0.0
H249 H 0.64313 0.93572 0.8628 0.0
H250 H 0.60178 0.80828 0.9468 0.0
H251 H 0.65486 0.97484 0.95103 0.0
Eu252 Eu 0.74878 0.58177 0.07956 0.0
C253 C 0.90232 0.55029 0.97733 0.0
N254 N 0.9022 0.59063 0.97627 0.0
C255 C 0.98253 0.6322 0.99707 0.0
C256 C 0.94295 0.54952 0.98918 0.0
C257 C 0.94149 0.63135 0.98509 0.0
C258 C 0.98326 0.59113 0.99931 0.0
C259 C 0.86072 0.46722 0.9686 0.0
C260 C 0.8615 0.50945 0.96716 0.0
C261 C 0.90118 0.46645 0.98047 0.0
C262 C 0.94213 0.50743 0.99069 0.0
Eu263 Eu 0.8311 0.58497 0.95639 0.0
N264 N 0.82239 0.51096 0.95714 0.0
C265 C 0.81924 0.42695 0.95799 0.0
C266 C 0.78246 0.47212 0.9444 0.0
C267 C 0.78008 0.42948 0.94535 0.0
H268 H 0.94126 0.66325 0.98247 0.0
H269 H 0.74812 0.39862 0.93591 0.0
H270 H 0.63986 0.5021 0.0469 0.0
H271 H 0.82178 0.7624 0.13079 0.0
H272 H 0.7526 0.47386 0.93282 0.0
H273 H 0.81724 0.39383 0.95871 0.0
H274 H 0.82221 0.6901 0.11623 0.0
H275 H 0.01359 0.66452 1.00446 0.0
H276 H 0.90118 0.43429 0.98181 0.0
H277 H 0.97303 0.5062 0.99972 0.0
H278 H 0.56625 0.49892 0.02847 0.0
H279 H 0.01514 0.59194 0.00863 0.0
H280 H 0.75056 0.76517 0.11477 0.0
N281 N 0.67626 0.57397 0.06186 0.0
C282 C 0.67371 0.61283 0.06757 0.0
C283 C 0.59629 0.53121 0.03907 0.0
C284 C 0.63205 0.61231 0.05857 0.0
C285 C 0.63824 0.53326 0.04886 0.0
C286 C 0.5932 0.57092 0.04368 0.0
N287 N 0.75301 0.65325 0.08947 0.0
C288 C 0.79148 0.69133 0.10765 0.0
C289 C 0.71091 0.69375 0.09094 0.0
C290 C 0.71286 0.6533 0.08295 0.0
C291 C 0.75069 0.73345 0.10804 0.0
C292 C 0.79106 0.73211 0.11677 0.0
H293 H 0.56058 0.56913 0.03634 0.0
H294 H 0.59872 0.65321 0.05791 0.0
H295 H 0.66784 0.72448 0.08584 0.0
O296 O 0.77211 0.59186 0.16464 0.0
O297 O 0.75539 0.62573 1.00581 0.0
O298 O 0.82406 0.64805 0.96028 0.0
O299 O 0.69972 0.55051 0.14593 0.0
O300 O 0.82604 0.61738 0.09175 0.0
O301 O 0.86269 0.64831 0.0097 0.0
O302 O 0.81132 0.56989 0.87 0.0
O303 O 0.82957 0.55077 0.03751 0.0
O304 O 0.755 0.51905 0.06554 0.0
O305 O 0.88244 0.61365 0.8923 0.0
O306 O 0.7547 0.55522 0.94155 0.0
O307 O 0.71777 0.52095 0.02174 0.0
C308 C 0.78702 0.65073 0.96965 0.0
C309 C 0.72545 0.53549 0.22973 0.0
C310 C 0.73153 0.5252 0.32755 0.0
C311 C 0.70793 0.47751 0.31965 0.0
C312 C 0.70276 0.48776 0.22252 0.0
C313 C 0.69404 0.45901 0.26738 0.0
C314 C 0.7405 0.5541 0.28224 0.0
C315 C 0.86133 0.64779 0.06336 0.0
C316 C 0.73094 0.56634 0.18411 0.0
C317 C 0.63036 0.6529 0.06498 0.0
C318 C 0.66965 0.69345 0.08117 0.0
C319 C 0.79468 0.52083 0.06652 0.0
C320 C 0.85931 0.6276 0.80623 0.0
C321 C 0.84643 0.63824 0.71001 0.0
C322 C 0.87783 0.68542 0.71586 0.0
C323 C 0.88967 0.67502 0.81088 0.0
C324 C 0.83748 0.60942 0.75573 0.0
C325 C 0.8989 0.70355 0.7659 0.0
C326 C 0.71864 0.52426 0.96817 0.0
C327 C 0.85296 0.59666 0.85243 0.0
H328 H 0.7007 0.4546 0.35391 0.0
H329 H 0.69113 0.4727 0.18246 0.0
H330 H 0.67611 0.42222 0.26171 0.0
H331 H 0.75796 0.59094 0.2881 0.0
H332 H 0.88685 0.70844 0.68142 0.0
H333 H 0.90705 0.69006 0.84902 0.0
H334 H 0.81382 0.57291 0.75212 0.0
H335 H 0.92305 0.73988 0.76963 0.0
Eu336 Eu 0.25522 0.83301 0.28797 0.0
C337 C 0.10011 0.64556 0.39244 0.0
N338 N 0.09906 0.68537 0.39414 0.0
C339 C 0.01784 0.64439 0.37862 0.0
C340 C 0.05973 0.60342 0.38241 0.0
C341 C 0.05872 0.68529 0.38856 0.0
C342 C 0.01837 0.60329 0.37512 0.0
C343 C 0.14375 0.60608 0.39867 0.0
C344 C 0.14175 0.64691 0.40067 0.0
C345 C 0.10365 0.56416 0.38818 0.0
C346 C 0.06178 0.56283 0.38016 0.0
Eu347 Eu 0.16982 0.75273 0.41008 0.0
N348 N 0.18038 0.6882 0.40949 0.0
C349 C 0.18603 0.60857 0.40742 0.0
C350 C 0.22115 0.69042 0.42052 0.0
C351 C 0.22477 0.65085 0.41892 0.0
H352 H 0.05799 0.71662 0.3941 0.0
H353 H 0.2574 0.65296 0.42695 0.0
H354 H 0.36478 0.86607 0.31846 0.0
H355 H 0.17694 0.93668 0.23667 0.0
H356 H 0.25088 0.72236 0.43105 0.0
H357 H 0.189 0.57799 0.40616 0.0
H358 H 0.17886 0.86548 0.25097 0.0
H359 H 0.9859 0.64455 0.37427 0.0
H360 H 0.10461 0.53251 0.38641 0.0
H361 H 0.03112 0.53018 0.3724 0.0
H362 H 0.43781 0.93771 0.33504 0.0
H363 H 0.98662 0.57161 0.36751 0.0
H364 H 0.24725 0.01173 0.25053 0.0
N365 N 0.32679 0.89962 0.30354 0.0
C366 C 0.32818 0.94029 0.29653 0.0
C367 C 0.40714 0.93894 0.32481 0.0
C368 C 0.36934 0.98218 0.30453 0.0
C369 C 0.36558 0.89835 0.3164 0.0
C370 C 0.409 0.98107 0.31922 0.0
N371 N 0.24885 0.89918 0.27513 0.0
C372 C 0.20946 0.89766 0.25836 0.0
C373 C 0.2889 0.98184 0.27287 0.0
C374 C 0.28835 0.94009 0.28101 0.0
C375 C 0.24824 0.98043 0.25708 0.0
C376 C 0.20843 0.93814 0.24953 0.0
H377 H 0.44129 0.01249 0.32559 0.0
H378 H 0.40088 0.05622 0.30393 0.0
H379 H 0.33019 0.0558 0.27735 0.0
O380 O 0.23582 0.81823 0.20088 0.0
O381 O 0.24855 0.86973 0.36193 0.0
O382 O 0.17715 0.82287 0.40124 0.0
O383 O 0.30706 0.84568 0.22717 0.0
O384 O 0.17846 0.79217 0.27273 0.0
O385 O 0.1368 0.78105 0.35266 0.0
O386 O 0.18879 0.75762 0.49673 0.0
O387 O 0.17122 0.71954 0.32994 0.0
O388 O 0.24621 0.76382 0.30708 0.0
O389 O 0.11842 0.73341 0.47367 0.0
O390 O 0.24615 0.79905 0.42769 0.0
O391 O 0.28607 0.80519 0.3486 0.0
C392 C 0.21519 0.86246 0.39569 0.0
C393 C 0.29311 0.83186 0.13008 0.0
C394 C 0.27822 0.8195 0.03223 0.0
C395 C 0.32429 0.83239 0.02373 0.0
C396 C 0.33921 0.84478 0.12041 0.0
C397 C 0.35457 0.845 0.06761 0.0
C398 C 0.26248 0.81924 0.08552 0.0
C399 C 0.14104 0.78446 0.29891 0.0
C400 C 0.27808 0.83186 0.18674 0.0
C401 C 0.36971 0.02373 0.29749 0.0
C402 C 0.32956 0.02352 0.28189 0.0
C403 C 0.20665 0.72658 0.30068 0.0
C404 C 0.14213 0.76997 0.55956 0.0
C405 C 0.14798 0.78681 0.65723 0.0
C406 C 0.1255 0.81196 0.64866 0.0
C407 C 0.11999 0.79556 0.55197 0.0
C408 C 0.15662 0.76619 0.61226 0.0
C409 C 0.11193 0.81652 0.59632 0.0
C410 C 0.28368 0.80653 0.40219 0.0
C411 C 0.14736 0.74445 0.51381 0.0
H412 H 0.33688 0.83298 0.9829 0.0
H413 H 0.36358 0.85474 0.15372 0.0
H414 H 0.39013 0.85508 0.06067 0.0
H415 H 0.22688 0.8094 0.09205 0.0
H416 H 0.11893 0.82861 0.68247 0.0
H417 H 0.10871 0.79919 0.5118 0.0
H418 H 0.17335 0.74615 0.61849 0.0
H419 H 0.09492 0.83622 0.59016 0.0
Eu420 Eu 0.42677 0.16675 0.75464 0.0
C421 C 0.43144 0.33799 0.63117 0.0
N422 N 0.39506 0.29512 0.63827 0.0
C423 C 0.34652 0.32634 0.65851 0.0
C424 C 0.42675 0.377 0.63824 0.0
C425 C 0.35284 0.28869 0.65108 0.0
C426 C 0.38365 0.37069 0.65225 0.0
C427 C 0.51229 0.38699 0.61054 0.0
C428 C 0.47372 0.34293 0.61742 0.0
C429 C 0.50773 0.42591 0.61758 0.0
C430 C 0.46509 0.42093 0.63138 0.0
Eu431 Eu 0.40924 0.2338 0.62667 0.0
N432 N 0.47739 0.30466 0.61233 0.0
C433 C 0.55438 0.39063 0.59708 0.0
C434 C 0.51807 0.30801 0.59787 0.0
C435 C 0.55719 0.35095 0.59045 0.0
H436 H 0.32388 0.25444 0.65517 0.0
H437 H 0.58949 0.35338 0.57954 0.0
H438 H 0.49406 0.12288 0.72744 0.0
H439 H 0.24293 0.07808 0.80409 0.0
H440 H 0.52071 0.27783 0.59203 0.0
H441 H 0.58481 0.42385 0.59148 0.0
H442 H 0.32098 0.14365 0.79922 0.0
H443 H 0.31301 0.32112 0.6689 0.0
H444 H 0.537 0.46002 0.61257 0.0
H445 H 0.46216 0.4513 0.63676 0.0
H446 H 0.48698 0.04713 0.71095 0.0
H447 H 0.37864 0.39978 0.65811 0.0
H448 H 0.22833 0.00035 0.78159 0.0
N449 N 0.42301 0.09562 0.74141 0.0
C450 C 0.38098 0.05745 0.74574 0.0
C451 C 0.45687 0.04956 0.72043 0.0
C452 C 0.37522 0.01353 0.73652 0.0
C453 C 0.4608 0.09238 0.72941 0.0
C454 C 0.41386 0.00995 0.72376 0.0
N455 N 0.35013 0.10552 0.76639 0.0
C456 C 0.31504 0.11093 0.78541 0.0
C457 C 0.2994 0.02347 0.7627 0.0
C458 C 0.34347 0.06254 0.7582 0.0
C459 C 0.26267 0.02946 0.77766 0.0
C460 C 0.27071 0.07331 0.78999 0.0
H461 H 0.41089 0.97683 0.71657 0.0
H462 H 0.32614 0.94072 0.73299 0.0
H463 H 0.25983 0.94937 0.75615 0.0
O464 O 0.42003 0.17466 0.8424 0.0
O465 O 0.39624 0.12778 0.67653 0.0
O466 O 0.356 0.16229 0.65203 0.0
O467 O 0.472 0.15906 0.8127 0.0
O468 O 0.39485 0.21174 0.76862 0.0
O469 O 0.35374 0.20225 0.69014 0.0
O470 O 0.41512 0.21931 0.54057 0.0
O471 O 0.453 0.27774 0.69825 0.0
O472 O 0.48563 0.23711 0.73373 0.0
O473 O 0.36074 0.23162 0.56633 0.0
O474 O 0.45337 0.20108 0.61203 0.0
O475 O 0.48507 0.19247 0.69312 0.0
C476 C 0.36419 0.12847 0.64726 0.0
C477 C 0.46786 0.16634 0.91127 0.0
C478 C 0.45943 0.1717 0.00946 0.0
C479 C 0.4955 0.16296 0.01848 0.0
C480 C 0.50411 0.15793 0.92124 0.0
C481 C 0.51782 0.15634 0.97455 0.0
C482 C 0.44572 0.17364 0.95577 0.0
C483 C 0.36287 0.21487 0.7413 0.0
C484 C 0.45294 0.1665 0.85463 0.0
C485 C 0.33126 0.97474 0.74005 0.0
C486 C 0.29347 0.97969 0.75309 0.0
C487 C 0.48405 0.27502 0.72828 0.0
C488 C 0.38469 0.24874 0.47419 0.0
C489 C 0.38519 0.24958 0.37441 0.0
C490 C 0.38252 0.28989 0.37555 0.0
C491 C 0.38293 0.28954 0.47434 0.0
C492 C 0.38647 0.22923 0.42407 0.0
C493 C 0.38176 0.30985 0.4252 0.0
C494 C 0.4836 0.19448 0.63916 0.0
C495 C 0.38047 0.22387 0.52532 0.0
H496 H 0.50655 0.16155 0.05964 0.0
H497 H 0.52179 0.15234 0.88784 0.0
H498 H 0.54575 0.1498 0.98185 0.0
H499 H 0.41774 0.18027 0.94889 0.0
H500 H 0.38173 0.30638 0.33795 0.0
H501 H 0.38159 0.30527 0.51234 0.0
H502 H 0.38754 0.19759 0.42371 0.0
H503 H 0.37995 0.34103 0.42557 0.0
C504 C 0.35836 0.27083 0.80227 0.0
C505 C 0.33579 0.23146 0.77006 0.0
C506 C 0.33383 0.28775 0.83036 0.0
C507 C 0.28532 0.26319 0.82828 0.0
C508 C 0.26215 0.22284 0.79628 0.0
C509 C 0.28786 0.20792 0.76642 0.0
C510 C 0.35987 0.33188 0.86231 0.0
C511 C 0.21045 0.19538 0.79407 0.0
C512 C 0.23196 0.29183 0.94678 0.0
C513 C 0.22711 0.32746 0.92445 0.0
C514 C 0.24917 0.26899 0.91524 0.0
C515 C 0.25951 0.2806 0.85952 0.0
C516 C 0.2504 0.31333 0.83551 0.0
C517 C 0.23486 0.33671 0.86835 0.0
C518 C 0.25876 0.23437 0.94223 0.0
C519 C 0.26006 0.32611 0.77597 0.0
H520 H 0.39533 0.28873 0.80491 0.0
H521 H 0.27056 0.17717 0.74162 0.0
H522 H 0.3498 0.35698 0.84842 0.0
H523 H 0.35123 0.32536 0.90626 0.0
H524 H 0.39756 0.34764 0.85774 0.0
H525 H 0.19776 0.16389 0.76886 0.0
H526 H 0.19641 0.18535 0.8359 0.0
H527 H 0.19676 0.21664 0.77695 0.0
H528 H 0.22354 0.28257 0.98917 0.0
H529 H 0.23018 0.36335 0.85 0.0
H530 H 0.29637 0.24824 0.94425 0.0
H531 H 0.24385 0.20233 0.91782 0.0
H532 H 0.24486 0.22599 0.98434 0.0
H533 H 0.29765 0.34735 0.76982 0.0
H534 H 0.2438 0.34597 0.76169 0.0
H535 H 0.24756 0.29509 0.75007 0.0
C536 C 0.08453 0.28978 0.1113 0.0
C537 C 0.09844 0.33498 0.09658 0.0
C538 C 0.04715 0.26566 0.14659 0.0
C539 C 0.02427 0.28787 0.16803 0.0
C540 C 0.03942 0.33408 0.15452 0.0
C541 C 0.07602 0.35688 0.11849 0.0
C542 C 0.03151 0.21629 0.15998 0.0
C543 C 0.01673 0.35942 0.17766 0.0
C544 C 0.90148 0.22657 0.21702 0.0
C545 C 0.908 0.23249 0.27344 0.0
C546 C 0.93918 0.24207 0.18191 0.0
C547 C 0.98406 0.26328 0.20425 0.0
C548 C 0.99036 0.26627 0.2615 0.0
C549 C 0.95208 0.25095 0.29537 0.0
C550 C 0.93116 0.23864 0.12101 0.0
C551 C 0.03758 0.28839 0.28701 0.0
H552 H 0.10187 0.27293 0.09396 0.0
H553 H 0.08727 0.39213 0.10752 0.0
H554 H 0.02983 0.21134 0.20483 0.0
H555 H 0.9964 0.19399 0.14363 0.0
H556 H 0.05459 0.20487 0.14253 0.0
H557 H 0.03379 0.39574 0.1642 0.0
H558 H 0.98024 0.34226 0.16478 0.0
H559 H 0.01739 0.35875 0.22291 0.0
H560 H 0.86717 0.21229 0.20023 0.0
H561 H 0.95668 0.25409 0.33896 0.0
H562 H 0.951 0.22458 0.10091 0.0
H563 H 0.94335 0.27338 0.10402 0.0
H564 H 0.89429 0.21669 0.11039 0.0
H565 H 0.05926 0.27658 0.2667 0.0
H566 H 0.03612 0.28092 0.33135 0.0
H567 H 0.05465 0.32611 0.28177 0.0
C568 C 0.72263 0.07557 0.44307 0.0
C569 C 0.76892 0.09927 0.4286 0.0
C570 C 0.70419 0.03415 0.47152 0.0
C571 C 0.73348 0.01745 0.48808 0.0
C572 C 0.78046 0.04146 0.47338 0.0
C573 C 0.79753 0.08192 0.44278 0.0
C574 C 0.65364 0.0089 0.48494 0.0
C575 C 0.81282 0.02515 0.49128 0.0
C576 C 0.69301 0.94286 0.61403 0.0
C577 C 0.6699 0.89876 0.59138 0.0
C578 C 0.71482 0.98184 0.58093 0.0
C579 C 0.71519 0.97652 0.52372 0.0
C580 C 0.69493 0.9321 0.50069 0.0
C581 C 0.67201 0.89375 0.53471 0.0
C582 C 0.7356 0.02872 0.60704 0.0
C583 C 0.69554 0.92501 0.43993 0.0
H584 H 0.7008 0.08944 0.43187 0.0
H585 H 0.83343 0.10068 0.43136 0.0
H586 H 0.63756 0.97277 0.47099 0.0
H587 H 0.649 0.0084 0.52979 0.0
H588 H 0.63517 0.02491 0.46564 0.0
H589 H 0.84811 0.04723 0.47542 0.0
H590 H 0.81439 0.0249 0.5365 0.0
H591 H 0.79998 0.98947 0.47716 0.0
H592 H 0.69299 0.94721 0.65747 0.0
H593 H 0.65511 0.85984 0.51658 0.0
H594 H 0.71619 0.04574 0.59402 0.0
H595 H 0.77157 0.05063 0.5934 0.0
H596 H 0.73509 0.02703 0.65232 0.0
H597 H 0.67201 0.93443 0.41941 0.0
H598 H 0.68455 0.88884 0.42952 0.0
H599 H 0.73038 0.94742 0.4232 0.0
C600 C 0.7122 0.79405 0.77377 0.0
C601 C 0.66566 0.76323 0.76453 0.0
C602 C 0.73796 0.78206 0.8082 0.0
C603 C 0.71612 0.73879 0.83436 0.0
C604 C 0.66848 0.70872 0.82714 0.0
C605 C 0.64398 0.72111 0.7917 0.0
C606 C 0.78869 0.81483 0.81506 0.0
C607 C 0.64354 0.66289 0.85566 0.0
C608 C 0.77756 0.67576 0.87789 0.0
C609 C 0.77806 0.6807 0.93459 0.0
C610 C 0.75995 0.69695 0.84412 0.0
C611 C 0.74281 0.72374 0.868 0.0
C612 C 0.74642 0.7314 0.925 0.0
C613 C 0.76411 0.7097 0.95753 0.0
C614 C 0.75666 0.68793 0.78344 0.0
C615 C 0.72868 0.75973 0.95216 0.0
H616 H 0.72881 0.82646 0.75222 0.0
H617 H 0.60775 0.69754 0.78468 0.0
H618 H 0.79787 0.82057 0.859 0.0
H619 H 0.80822 0.79968 0.79669 0.0
H620 H 0.79971 0.84845 0.79539 0.0
H621 H 0.60596 0.64487 0.84797 0.0
H622 H 0.65706 0.64065 0.84144 0.0
H623 H 0.64947 0.66753 0.90035 0.0
H624 H 0.78823 0.65304 0.86025 0.0
H625 H 0.76609 0.71455 1.00105 0.0
H626 H 0.76948 0.7204 0.76043 0.0
H627 H 0.72019 0.66529 0.77179 0.0
H628 H 0.7764 0.67113 0.77074 0.0
H629 H 0.73837 0.79139 0.92865 0.0
H630 H 0.74181 0.76944 0.99454 0.0
H631 H 0.69065 0.73961 0.95374 0.0
C632 C 0.05727 0.75935 0.28683 0.0
C633 C 0.10079 0.77466 0.26435 0.0
C634 C 0.01821 0.74238 0.25332 0.0
C635 C 0.02332 0.74364 0.19591 0.0
C636 C 0.0676 0.76352 0.1729 0.0
C637 C 0.10564 0.77809 0.20728 0.0
C638 C 0.97136 0.72069 0.27936 0.0
C639 C 0.07468 0.76711 0.11185 0.0
C640 C 0.92622 0.65089 0.11333 0.0
C641 C 0.90454 0.67395 0.09308 0.0
C642 C 0.96531 0.67344 0.14623 0.0
C643 C 0.98244 0.72005 0.15999 0.0
C644 C 0.96082 0.74372 0.13898 0.0
C645 C 0.92204 0.72029 0.10525 0.0
C646 C 0.98782 0.64714 0.16681 0.0
C647 C 0.97807 0.79334 0.15297 0.0
H648 H 0.05338 0.75934 0.33049 0.0
H649 H 0.13918 0.79121 0.18901 0.0
H650 H 0.95107 0.73542 0.26208 0.0
H651 H 0.95243 0.6834 0.27023 0.0
H652 H 0.97333 0.72525 0.32437 0.0
H653 H 0.11146 0.78833 0.10075 0.0
H654 H 0.0613 0.73237 0.09419 0.0
H655 H 0.05539 0.78225 0.09276 0.0
H656 H 0.91244 0.61504 0.10333 0.0
H657 H 0.90474 0.73777 0.0896 0.0
H658 H 0.98746 0.64654 0.21208 0.0
H659 H 0.02423 0.66438 0.15379 0.0
H660 H 0.97042 0.61125 0.15152 0.0
H661 H 0.97393 0.7967 0.19733 0.0
H662 H 0.95935 0.80755 0.13033 0.0
H663 H 0.01521 0.81436 0.14375 0.0
C664 C 0.29159 0.07788 0.59664 0.0
C665 C 0.33656 0.08976 0.6106 0.0
C666 C 0.26502 0.03999 0.5628 0.0
C667 C 0.28451 0.01445 0.54171 0.0
C668 C 0.33022 0.0269 0.55518 0.0
C669 C 0.35545 0.06404 0.59011 0.0
C670 C 0.21619 0.02716 0.54976 0.0
C671 C 0.35269 0.00128 0.53229 0.0
C672 C 0.21817 0.89283 0.48875 0.0
C673 C 0.22334 0.90025 0.43246 0.0
C674 C 0.23514 0.92992 0.52522 0.0
C675 C 0.258 0.9752 0.50445 0.0
C676 C 0.26058 0.98261 0.44745 0.0
C677 C 0.24288 0.94485 0.41225 0.0
C678 C 0.2312 0.92079 0.58584 0.0
C679 C 0.28535 0.03023 0.42337 0.0
H680 H 0.27694 0.09764 0.61298 0.0
H681 H 0.39039 0.07344 0.60071 0.0
H682 H 0.21147 0.02736 0.50497 0.0
H683 H 0.19247 0.99181 0.56419 0.0
H684 H 0.20633 0.05084 0.56901 0.0
H685 H 0.38881 0.016 0.54615 0.0
H686 H 0.33327 0.9648 0.54487 0.0
H687 H 0.35221 0.00208 0.48703 0.0
H688 H 0.20383 0.8583 0.50426 0.0
H689 H 0.24572 0.95027 0.36887 0.0
H690 H 0.21275 0.93667 0.60523 0.0
H691 H 0.26581 0.9366 0.6047 0.0
H692 H 0.21282 0.88359 0.59523 0.0
H693 H 0.27729 0.05385 0.44595 0.0
H694 H 0.27651 0.03022 0.37967 0.0
H695 H 0.32292 0.04405 0.42648 0.0
C696 C 0.207 0.42317 0.63564 0.0
C697 C 0.17696 0.44026 0.64271 0.0
C698 C 0.21191 0.40733 0.58421 0.0
C699 C 0.18626 0.40875 0.5389 0.0
C700 C 0.15392 0.42341 0.54689 0.0
C701 C 0.14957 0.43865 0.59857 0.0
C702 C 0.24607 0.39105 0.57778 0.0
C703 C 0.12453 0.42506 0.50135 0.0
C704 C 0.23759 0.42052 0.39715 0.0
C705 C 0.21436 0.37508 0.37864 0.0
C706 C 0.22845 0.43197 0.44908 0.0
C707 C 0.19502 0.39721 0.48294 0.0
C708 C 0.16972 0.35174 0.46299 0.0
C709 C 0.18007 0.34114 0.41138 0.0
C710 C 0.25509 0.4811 0.46823 0.0
C711 C 0.13228 0.31417 0.49653 0.0
H712 H 0.22824 0.42422 0.66956 0.0
H713 H 0.12545 0.45079 0.60397 0.0
H714 H 0.22972 0.35712 0.55727 0.0
H715 H 0.27479 0.41539 0.55152 0.0
H716 H 0.26035 0.38826 0.61758 0.0
H717 H 0.13297 0.46109 0.49503 0.0
H718 H 0.12852 0.41123 0.46201 0.0
H719 H 0.08791 0.40543 0.51359 0.0
H720 H 0.26426 0.44671 0.37199 0.0
H721 H 0.16193 0.306 0.39688 0.0
H722 H 0.27437 0.48336 0.50601 0.0
H723 H 0.23102 0.49352 0.47834 0.0
H724 H 0.27971 0.50416 0.43704 0.0
H725 H 0.14742 0.30798 0.53356 0.0
H726 H 0.11327 0.28151 0.4734 0.0
H727 H 0.10755 0.32475 0.51033 0.0
C728 C 0.76978 0.19448 0.96958 0.0
C729 C 0.78542 0.16438 0.98386 0.0
C730 C 0.78019 0.21606 0.9183 0.0
C731 C 0.80715 0.20756 0.88084 0.0
C732 C 0.8255 0.17959 0.89667 0.0
C733 C 0.81414 0.15808 0.94781 0.0
C734 C 0.76106 0.2467 0.9034 0.0
C735 C 0.8564 0.17172 0.85915 0.0
C736 C 0.78795 0.22099 0.73046 0.0
C737 C 0.82284 0.26602 0.72048 0.0
C738 C 0.78328 0.20104 0.78218 0.0
C739 C 0.81467 0.22659 0.82447 0.0
C740 C 0.85169 0.27101 0.81328 0.0
C741 C 0.85501 0.2903 0.76162 0.0
C742 C 0.74348 0.15346 0.79234 0.0
C743 C 0.8867 0.29961 0.85617 0.0
H744 H 0.7476 0.19939 0.99742 0.0
H745 H 0.82687 0.13537 0.95925 0.0
H746 H 0.7894 0.28115 0.89184 0.0
H747 H 0.73803 0.23236 0.86746 0.0
H748 H 0.74152 0.25062 0.93743 0.0
H749 H 0.86935 0.15053 0.87846 0.0
H750 H 0.83753 0.15429 0.82132 0.0
H751 H 0.88618 0.20511 0.84705 0.0
H752 H 0.76295 0.2023 0.69874 0.0
H753 H 0.88223 0.32508 0.75378 0.0
H754 H 0.72015 0.15514 0.82303 0.0
H755 H 0.756 0.13116 0.80931 0.0
H756 H 0.72351 0.13726 0.75461 0.0
H757 H 0.87573 0.32202 0.87642 0.0
H758 H 0.92076 0.32214 0.83738 0.0
H759 H 0.89061 0.27835 0.88786 0.0
C760 C 0.569 0.71708 0.27074 0.0
C761 C 0.55655 0.73727 0.31235 0.0
C762 C 0.5834 0.73815 0.21962 0.0
C763 C 0.58505 0.78035 0.20973 0.0
C764 C 0.57441 0.80189 0.25251 0.0
C765 C 0.56058 0.7802 0.30356 0.0
C766 C 0.59623 0.71488 0.17609 0.0
C767 C 0.5753 0.84666 0.24347 0.0
C768 C 0.64794 0.85468 0.08728 0.0
C769 C 0.61189 0.84213 0.05008 0.0
C770 C 0.64008 0.83374 0.13875 0.0
C771 C 0.59487 0.80045 0.15381 0.0
C772 C 0.55853 0.78704 0.11575 0.0
C773 C 0.56761 0.8077 0.06403 0.0
C774 C 0.67999 0.84768 0.17724 0.0
C775 C 0.50984 0.75167 0.13017 0.0
H776 H 0.56635 0.68408 0.2779 0.0
H777 H 0.55065 0.79564 0.33566 0.0
H778 H 0.57776 0.71196 0.13741 0.0
H779 H 0.63347 0.73597 0.1677 0.0
H780 H 0.58872 0.68009 0.18849 0.0
H781 H 0.56856 0.86017 0.28157 0.0
H782 H 0.60906 0.87279 0.22706 0.0
H783 H 0.54892 0.84167 0.21272 0.0
H784 H 0.68226 0.8811 0.07607 0.0
H785 H 0.53982 0.79815 0.03514 0.0
H786 H 0.68174 0.81703 0.19012 0.0
H787 H 0.67505 0.86331 0.21459 0.0
H788 H 0.71326 0.87261 0.15842 0.0
H789 H 0.50801 0.71886 0.14124 0.0
H790 H 0.4855 0.74515 0.09608 0.0
H791 H 0.49856 0.76333 0.16629 0.0
C792 C 0.81878 0.57808 0.63582 0.0
C793 C 0.82465 0.61981 0.65566 0.0
C794 C 0.80196 0.56269 0.58277 0.0
C795 C 0.79111 0.58982 0.54845 0.0
C796 C 0.79598 0.6314 0.5686 0.0
C797 C 0.81208 0.64553 0.62201 0.0
C798 C 0.79692 0.51795 0.56289 0.0
C799 C 0.78479 0.66136 0.53349 0.0
C800 C 0.79297 0.574 0.39464 0.0
C801 C 0.74646 0.54433 0.38323 0.0
C802 C 0.80798 0.58918 0.44821 0.0
C803 C 0.77551 0.57513 0.49112 0.0
C804 C 0.72826 0.54654 0.47929 0.0
C805 C 0.71437 0.53103 0.42558 0.0
C806 C 0.85869 0.61934 0.4591 0.0
C807 C 0.69243 0.53171 0.52349 0.0
H808 H 0.82867 0.55804 0.66108 0.0
H809 H 0.81527 0.67721 0.63727 0.0
H810 H 0.76127 0.49481 0.54868 0.0
H811 H 0.81987 0.52437 0.52751 0.0
H812 H 0.80534 0.5001 0.59507 0.0
H813 H 0.79304 0.69398 0.55413 0.0
H814 H 0.80421 0.66967 0.49467 0.0
H815 H 0.74777 0.64268 0.52291 0.0
H816 H 0.81776 0.58408 0.36188 0.0
H817 H 0.67833 0.50835 0.41657 0.0
H818 H 0.87068 0.60136 0.48671 0.0
H819 H 0.86537 0.65132 0.48001 0.0
H820 H 0.87931 0.62858 0.42106 0.0
H821 H 0.69732 0.50984 0.55346 0.0
H822 H 0.65697 0.51215 0.50694 0.0
H823 H 0.69621 0.56204 0.54594 0.0
C824 C 0.13093 0.77006 0.75651 0.0
C825 C 0.16217 0.78255 0.71329 0.0
C826 C 0.14482 0.77058 0.81067 0.0
C827 C 0.19125 0.78455 0.82194 0.0
C828 C 0.22255 0.79536 0.7782 0.0
C829 C 0.20752 0.79394 0.72429 0.0
C830 C 0.11021 0.75805 0.85592 0.0
C831 C 0.2724 0.81052 0.78847 0.0
C832 C 0.24438 0.84231 0.957 0.0
C833 C 0.24797 0.80774 0.98414 0.0
C834 C 0.22459 0.83468 0.90479 0.0
C835 C 0.20797 0.79135 0.87942 0.0
C836 C 0.20958 0.75564 0.90802 0.0
C837 C 0.22992 0.7644 0.96004 0.0
C838 C 0.22371 0.87372 0.87564 0.0
C839 C 0.19185 0.7089 0.88268 0.0
H840 H 0.09566 0.76062 0.74794 0.0
H841 H 0.23174 0.80374 0.69094 0.0
H842 H 0.11215 0.73363 0.88462 0.0
H843 H 0.11807 0.78928 0.87951 0.0
H844 H 0.07456 0.74251 0.84006 0.0
H845 H 0.29141 0.81419 0.75006 0.0
H846 H 0.28913 0.84404 0.80997 0.0
H847 H 0.27543 0.78562 0.81523 0.0
H848 H 0.2592 0.87602 0.97552 0.0
H849 H 0.23349 0.73801 0.981 0.0
H850 H 0.18845 0.86287 0.86123 0.0
H851 H 0.24609 0.88355 0.83912 0.0
H852 H 0.23564 0.90442 0.9021 0.0
H853 H 0.15628 0.69537 0.86755 0.0
H854 H 0.19224 0.68391 0.91193 0.0
H855 H 0.21334 0.71163 0.84703 0.0
C856 C 0.42244 0.21959 0.31112 0.0
C857 C 0.38747 0.22967 0.32119 0.0
C858 C 0.42852 0.20631 0.25885 0.0
C859 C 0.39844 0.20234 0.2159 0.0
C860 C 0.36127 0.20959 0.22684 0.0
C861 C 0.35651 0.22365 0.27922 0.0
C862 C 0.46837 0.1985 0.24902 0.0
C863 C 0.32719 0.20352 0.18289 0.0
C864 C 0.45057 0.22363 0.07415 0.0
C865 C 0.43703 0.17905 0.05696 0.0
C866 C 0.43659 0.23156 0.12501 0.0
C867 C 0.40804 0.19388 0.15898 0.0
C868 C 0.39196 0.14863 0.13989 0.0
C869 C 0.4072 0.1418 0.08933 0.0
C870 C 0.45463 0.28034 0.14375 0.0
C871 C 0.36115 0.10731 0.17398 0.0
H872 H 0.44636 0.22416 0.34351 0.0
H873 H 0.32888 0.23057 0.28726 0.0
H874 H 0.45589 0.16383 0.23163 0.0
H875 H 0.49211 0.22371 0.21883 0.0
H876 H 0.48788 0.20177 0.28699 0.0
H877 H 0.29832 0.20714 0.19898 0.0
H878 H 0.34461 0.22938 0.15036 0.0
H879 H 0.31306 0.16918 0.16374 0.0
H880 H 0.47405 0.25234 0.04907 0.0
H881 H 0.39711 0.10733 0.07592 0.0
H882 H 0.47718 0.28742 0.17987 0.0
H883 H 0.42588 0.28545 0.15642 0.0
H884 H 0.47452 0.30565 0.11145 0.0
H885 H 0.38274 0.10001 0.20177 0.0
H886 H 0.34087 0.07646 0.14813 0.0
H887 H 0.33719 0.11318 0.19914 0.0
C888 C 0.19022 0.50806 0.15557 0.0
C889 C 0.19238 0.51183 0.09845 0.0
C890 C 0.19048 0.54228 0.18826 0.0
C891 C 0.19146 0.58054 0.16321 0.0
C892 C 0.1915 0.58367 0.10563 0.0
C893 C 0.1928 0.54966 0.07391 0.0
C894 C 0.19146 0.5383 0.24961 0.0
C895 C 0.19146 0.62356 0.07759 0.0
C896 C 0.15943 0.65248 0.25177 0.0
C897 C 0.20273 0.68961 0.26492 0.0
C898 C 0.15512 0.61702 0.21789 0.0
C899 C 0.19512 0.61852 0.19743 0.0
C900 C 0.23892 0.65587 0.21067 0.0
C901 C 0.24218 0.69119 0.24398 0.0
C902 C 0.10783 0.57807 0.20392 0.0
C903 C 0.28239 0.65817 0.1904 0.0
H904 H 0.18977 0.47898 0.17507 0.0
H905 H 0.19527 0.55343 0.02999 0.0
H906 H 0.22338 0.56763 0.26621 0.0
H907 H 0.16222 0.53977 0.26819 0.0
H908 H 0.18996 0.50598 0.26261 0.0
H909 H 0.18651 0.61841 0.03277 0.0
H910 H 0.16384 0.62884 0.09437 0.0
H911 H 0.22451 0.65543 0.08533 0.0
H912 H 0.12879 0.65125 0.26763 0.0
H913 H 0.27573 0.71973 0.25421 0.0
H914 H 0.10367 0.54529 0.21944 0.0
H915 H 0.10337 0.57471 0.15896 0.0
H916 H 0.08021 0.58302 0.22152 0.0
H917 H 0.28398 0.62778 0.20484 0.0
H918 H 0.31374 0.68959 0.20453 0.0
H919 H 0.28251 0.65745 0.14516 0.0
C920 C 0.65153 0.15406 0.44242 0.0
C921 C 0.69217 0.19612 0.43606 0.0
C922 C 0.61731 0.14976 0.47863 0.0
C923 C 0.62384 0.18858 0.50858 0.0
C924 C 0.66539 0.23073 0.50339 0.0
C925 C 0.69909 0.2339 0.46742 0.0
C926 C 0.57378 0.10404 0.48371 0.0
C927 C 0.67365 0.27305 0.53428 0.0
C928 C 0.52002 0.19719 0.54937 0.0
C929 C 0.51862 0.19079 0.60615 0.0
C930 C 0.55369 0.19593 0.51722 0.0
C931 C 0.58606 0.18652 0.54197 0.0
C932 C 0.58406 0.17838 0.59883 0.0
C933 C 0.55094 0.18156 0.63045 0.0
C934 C 0.55546 0.20617 0.45694 0.0
C935 C 0.61721 0.16682 0.62624 0.0
H936 H 0.64612 0.12461 0.41866 0.0
H937 H 0.73061 0.26643 0.46315 0.0
H938 H 0.56512 0.09506 0.5273 0.0
H939 H 0.54489 0.10606 0.46477 0.0
H940 H 0.5766 0.07605 0.46337 0.0
H941 H 0.7086 0.30263 0.5273 0.0
H942 H 0.64811 0.28289 0.52143 0.0
H943 H 0.66913 0.26597 0.57868 0.0
H944 H 0.49545 0.20446 0.52984 0.0
H945 H 0.55079 0.1772 0.67416 0.0
H946 H 0.55313 0.17728 0.43268 0.0
H947 H 0.58876 0.23701 0.447 0.0
H948 H 0.52737 0.21234 0.44392 0.0
H949 H 0.61605 0.13685 0.60579 0.0
H950 H 0.60948 0.15886 0.67024 0.0
H951 H 0.65277 0.19593 0.62233 0.0
C952 C 0.31759 0.55109 0.91931 0.0
C953 C 0.31573 0.51041 0.93593 0.0
C954 C 0.35333 0.58265 0.88633 0.0
C955 C 0.3875 0.57281 0.86872 0.0
C956 C 0.38595 0.53186 0.88554 0.0
C957 C 0.35024 0.50128 0.91954 0.0
C958 C 0.35443 0.62651 0.87029 0.0
C959 C 0.42157 0.52008 0.86699 0.0
C960 C 0.45106 0.63942 0.74297 0.0
C961 C 0.49105 0.67538 0.76609 0.0
C962 C 0.41808 0.60424 0.77568 0.0
C963 C 0.42485 0.60579 0.83286 0.0
C964 C 0.46572 0.6412 0.85622 0.0
C965 C 0.49852 0.67525 0.82247 0.0
C966 C 0.37515 0.56641 0.74937 0.0
C967 C 0.47376 0.64461 0.91716 0.0
H968 H 0.29119 0.55847 0.93234 0.0
H969 H 0.34878 0.46976 0.93227 0.0
H970 H 0.38765 0.65655 0.88256 0.0
H971 H 0.35154 0.6279 0.82533 0.0
H972 H 0.32622 0.62971 0.8893 0.0
H973 H 0.41472 0.48629 0.88261 0.0
H974 H 0.42249 0.51952 0.82174 0.0
H975 H 0.45608 0.54672 0.88112 0.0
H976 H 0.44468 0.63945 0.69964 0.0
H977 H 0.5295 0.70266 0.84076 0.0
H978 H 0.34518 0.56975 0.76132 0.0
H979 H 0.36862 0.53245 0.76378 0.0
H980 H 0.37741 0.56728 0.70413 0.0
H981 H 0.44877 0.65212 0.93739 0.0
H982 H 0.50895 0.67203 0.9283 0.0
H983 H 0.46819 0.6116 0.93372 0.0
C984 C 0.79785 0.35148 0.28966 0.0
C985 C 0.81545 0.32457 0.26896 0.0
C986 C 0.79736 0.38578 0.25771 0.0
C987 C 0.81539 0.39359 0.20415 0.0
C988 C 0.83526 0.36806 0.1841 0.0
C989 C 0.83476 0.3336 0.21668 0.0
C990 C 0.77567 0.41219 0.28033 0.0
C991 C 0.85543 0.37593 0.12748 0.0
C992 C 0.76539 0.44239 0.10341 0.0
C993 C 0.80038 0.48817 0.10056 0.0
C994 C 0.77038 0.41098 0.13606 0.0
C995 C 0.81069 0.42629 0.16785 0.0
C996 C 0.84599 0.4727 0.16527 0.0
C997 C 0.8407 0.50294 0.13079 0.0
C998 C 0.73255 0.36146 0.13656 0.0
C999 C 0.88878 0.49066 0.19982 0.0
H1000 H 0.7826 0.34442 0.32995 0.0
H1001 H 0.84878 0.3131 0.20085 0.0
H1002 H 0.79903 0.44958 0.27523 0.0
H1003 H 0.74379 0.40296 0.25729 0.0
H1004 H 0.76686 0.40488 0.32422 0.0
H1005 H 0.87199 0.3551 0.11931 0.0
H1006 H 0.82802 0.36707 0.09667 0.0
H1007 H 0.88128 0.41264 0.12179 0.0
H1008 H 0.73445 0.43103 0.07938 0.0
H1009 H 0.86754 0.53848 0.12873 0.0
H1010 H 0.71821 0.35162 0.17828 0.0
H1011 H 0.74652 0.33894 0.1252 0.0
H1012 H 0.70423 0.35485 0.10795 0.0
H1013 H 0.87939 0.48677 0.24366 0.0
H1014 H 0.91356 0.52737 0.19172 0.0
H1015 H 0.906 0.47043 0.19222 0.0
C1016 C 0.32036 0.81241 0.49304 0.0
C1017 C 0.3224 0.81089 0.43591 0.0
C1018 C 0.35466 0.81279 0.52597 0.0
C1019 C 0.39281 0.81321 0.50124 0.0
C1020 C 0.39599 0.81328 0.44366 0.0
C1021 C 0.3602 0.81093 0.41173 0.0
C1022 C 0.3492 0.81106 0.58724 0.0
C1023 C 0.43659 0.81456 0.41574 0.0
C1024 C 0.4972 0.84647 0.59107 0.0
C1025 C 0.4921 0.80347 0.60292 0.0
C1026 C 0.4656 0.85035 0.55714 0.0
C1027 C 0.42763 0.8102 0.53564 0.0
C1028 C 0.42229 0.76673 0.54772 0.0
C1029 C 0.4548 0.76395 0.58075 0.0
C1030 C 0.47299 0.89732 0.54393 0.0
C1031 C 0.38186 0.72302 0.52642 0.0
H1032 H 0.29123 0.81204 0.51234 0.0
H1033 H 0.36151 0.80803 0.3679 0.0
H1034 H 0.34783 0.77962 0.60335 0.0
H1035 H 0.37921 0.8408 0.60639 0.0
H1036 H 0.31758 0.81112 0.60004 0.0
H1037 H 0.43678 0.82048 0.37112 0.0
H1038 H 0.46916 0.84203 0.43357 0.0
H1039 H 0.43579 0.78158 0.42217 0.0
H1040 H 0.52614 0.87714 0.6078 0.0
H1041 H 0.45054 0.73054 0.58975 0.0
H1042 H 0.44378 0.9006 0.55928 0.0
H1043 H 0.47429 0.9021 0.49903 0.0
H1044 H 0.50519 0.92518 0.56211 0.0
H1045 H 0.34939 0.72038 0.54083 0.0
H1046 H 0.38275 0.69197 0.53979 0.0
H1047 H 0.3812 0.72339 0.48119 0.0
C1048 C 0.67215 0.50136 0.88297 0.0
C1049 C 0.67983 0.48979 0.93532 0.0
C1050 C 0.63917 0.46819 0.84816 0.0
C1051 C 0.61354 0.42219 0.86596 0.0
C1052 C 0.62024 0.41049 0.91942 0.0
C1053 C 0.65317 0.4446 0.95371 0.0
C1054 C 0.63285 0.48215 0.79168 0.0
C1055 C 0.59366 0.36172 0.93973 0.0
C1056 C 0.50449 0.34232 0.78813 0.0
C1057 C 0.5182 0.3157 0.75853 0.0
C1058 C 0.53489 0.37651 0.82419 0.0
C1059 C 0.58084 0.38611 0.82794 0.0
C1060 C 0.5956 0.36121 0.79531 0.0
C1061 C 0.56375 0.32549 0.76195 0.0
C1062 C 0.51745 0.40113 0.85972 0.0
C1063 C 0.64486 0.37196 0.79611 0.0
H1064 H 0.69256 0.53641 0.86885 0.0
H1065 H 0.65943 0.43551 0.99396 0.0
H1066 H 0.6416 0.46379 0.76061 0.0
H1067 H 0.59647 0.47234 0.78505 0.0
H1068 H 0.65458 0.51962 0.78479 0.0
H1069 H 0.60096 0.35876 0.9833 0.0
H1070 H 0.55628 0.34817 0.93472 0.0
H1071 H 0.60258 0.33964 0.91511 0.0
H1072 H 0.46947 0.33505 0.78495 0.0
H1073 H 0.57442 0.30517 0.73843 0.0
H1074 H 0.53803 0.43865 0.85306 0.0
H1075 H 0.5213 0.39482 0.90335 0.0
H1076 H 0.48084 0.38978 0.85165 0.0
H1077 H 0.66806 0.40869 0.78648 0.0
H1078 H 0.6512 0.35085 0.76636 0.0
H1079 H 0.6541 0.36586 0.83748 0.0
loop_
_geom_bond_atom_site_label_1
_geom_bond_atom_site_label_2
_geom_bond_distance
_geom_bond_site_symmetry_2
_ccdc_geom_bond_type
Eu0 N29 2.600 . S
Eu0 N35 2.562 . S
Eu0 O44 2.462 . S
Eu0 O45 2.373 1_556 S
Eu0 O47 2.432 . S
Eu0 O48 2.291 . S
Eu0 O52 2.335 . S
Eu0 O55 2.372 . S
Eu0 C64 2.787 . S
C1 N2 1.365 . S
C1 C4 1.405 . S
C1 C8 1.448 . S
N2 C1 1.365 . S
N2 C5 1.319 . S
N2 Eu11 2.600 . S
C3 C5 1.397 . S
C3 C6 1.367 . S
C3 H23 0.931 . S
C4 C1 1.405 . S
C4 C6 1.403 . S
C4 C10 1.439 . S
C5 N2 1.319 . S
C5 C3 1.397 . S
C5 H16 0.930 . S
C6 C3 1.367 . S
C6 C4 1.403 . S
C6 H27 0.929 . S
C7 C8 1.430 . S
C7 C9 1.387 . S
C7 C13 1.404 . S
C8 C1 1.448 . S
C8 C7 1.430 . S
C8 N12 1.351 . S
C9 C7 1.387 . S
C9 C10 1.374 . S
C9 H24 0.931 . S
C10 C4 1.439 . S
C10 C9 1.374 . S
C10 H25 0.931 . S
Eu11 N2 2.600 . S
Eu11 N12 2.562 . S
Eu11 O46 2.335 . S
Eu11 O49 2.372 . S
Eu11 O50 2.462 . S
Eu11 O51 2.373 1_554 S
Eu11 O53 2.432 . S
Eu11 O54 2.291 . S
Eu11 C75 2.787 . S
N12 C8 1.351 . S
N12 Eu11 2.562 . S
N12 C14 1.325 . S
C13 C7 1.404 . S
C13 C15 1.366 . S
C13 H21 0.930 . S
C14 N12 1.325 . S
C14 C15 1.416 . S
C14 H20 0.929 . S
C15 C13 1.366 . S
C15 C14 1.416 . S
C15 H17 0.930 . S
H16 C5 0.930 . S
H17 C15 0.930 . S
H18 C33 0.930 . S
H19 C40 0.930 . S
H20 C14 0.929 . S
H21 C13 0.930 . S
H22 C36 0.929 . S
H23 C3 0.931 . S
H24 C9 0.931 . S
H25 C10 0.931 . S
H26 C31 0.931 . S
H27 C6 0.929 . S
H28 C39 0.930 1_655 S
N29 Eu0 2.600 . S
N29 C30 1.365 . S
N29 C33 1.319 . S
C30 N29 1.365 . S
C30 C32 1.405 . S
C30 C38 1.448 . S
C31 H26 0.931 . S
C31 C33 1.397 . S
C31 C34 1.367 . S
C32 C30 1.405 . S
C32 C34 1.403 . S
C32 C65 1.439 1_455 S
C33 H18 0.930 . S
C33 N29 1.319 . S
C33 C31 1.397 . S
C34 C31 1.367 . S
C34 C32 1.403 . S
C34 H41 0.929 1_455 S
N35 Eu0 2.562 . S
N35 C36 1.325 . S
N35 C38 1.351 . S
C36 H22 0.929 . S
C36 N35 1.325 . S
C36 C40 1.416 . S
C37 C38 1.430 . S
C37 C39 1.404 . S
C37 C66 1.387 1_455 S
C38 C30 1.448 . S
C38 N35 1.351 . S
C38 C37 1.430 . S
C39 H28 0.930 1_455 S
C39 C37 1.404 . S
C39 C40 1.366 . S
C40 H19 0.930 . S
C40 C36 1.416 . S
C40 C39 1.366 . S
H41 C34 0.929 1_655 S
H42 C65 0.931 . S
H43 C66 0.931 . S
O44 Eu0 2.462 . S
O44 C64 1.252 . S
O45 Eu0 2.373 1_554 S
O45 C56 1.249 . S
O46 Eu11 2.335 . S
O46 C56 1.264 . S
O47 Eu0 2.432 . S
O47 C64 1.268 . S
O48 Eu0 2.291 . S
O48 C63 1.255 . S
O49 Eu11 2.372 . S
O49 C63 1.257 1_554 S
O50 Eu11 2.462 . S
O50 C75 1.252 . S
O51 Eu11 2.373 1_556 S
O51 C67 1.249 . S
O52 Eu0 2.335 . S
O52 C67 1.264 . S
O53 Eu11 2.432 . S
O53 C75 1.268 . S
O54 Eu11 2.291 . S
O54 C74 1.255 . S
O55 Eu0 2.372 . S
O55 C74 1.257 1_556 S
C56 O45 1.249 . S
C56 O46 1.264 . S
C57 C60 1.382 . S
C57 C62 1.390 . S
C57 C64 1.506 . S
C58 C59 1.398 . S
C58 C62 1.392 . S
C59 C58 1.398 . S
C59 C61 1.372 . S
C59 H76 0.931 . S
C60 C57 1.382 . S
C60 C61 1.390 . S
C60 H77 0.931 . S
C61 C59 1.372 . S
C61 C60 1.390 . S
C61 H78 0.929 . S
C62 C57 1.390 . S
C62 C58 1.392 . S
C62 H79 0.930 . S
C63 O48 1.255 . S
C63 O49 1.257 1_556 S
C64 Eu0 2.787 . S
C64 O44 1.252 . S
C64 O47 1.268 . S
C64 C57 1.506 . S
C65 C32 1.439 1_655 S
C65 H42 0.931 . S
C65 C66 1.374 . S
C66 C37 1.387 1_655 S
C66 H43 0.931 . S
C66 C65 1.374 . S
C67 O51 1.249 . S
C67 O52 1.264 . S
C68 C71 1.382 . S
C68 C72 1.390 . S
C68 C75 1.506 . S
C69 C70 1.398 . S
C69 C72 1.392 . S
C70 C69 1.398 . S
C70 C73 1.372 . S
C70 H80 0.931 . S
C71 C68 1.382 . S
C71 C73 1.390 . S
C71 H81 0.931 . S
C72 C68 1.390 . S
C72 C69 1.392 . S
C72 H82 0.930 . S
C73 C70 1.372 . S
C73 C71 1.390 . S
C73 H83 0.929 . S
C74 O54 1.255 . S
C74 O55 1.257 1_554 S
C75 Eu11 2.787 . S
C75 O50 1.252 . S
C75 O53 1.268 . S
C75 C68 1.506 . S
H76 C59 0.931 . S
H77 C60 0.931 . S
H78 C61 0.929 . S
H79 C62 0.930 . S
H80 C70 0.931 . S
H81 C71 0.931 . S
H82 C72 0.930 . S
H83 C73 0.929 . S
Eu84 N113 2.600 . S
Eu84 N119 2.562 . S
Eu84 O128 2.462 . S
Eu84 O129 2.373 . S
Eu84 O131 2.432 . S
Eu84 O132 2.291 . S
Eu84 O136 2.335 . S
Eu84 O139 2.372 . S
Eu84 C148 2.787 . S
C85 N86 1.365 . S
C85 C88 1.405 . S
C85 C92 1.448 . S
N86 C85 1.365 . S
N86 C89 1.319 . S
N86 Eu95 2.600 . S
C87 C89 1.397 . S
C87 C90 1.367 . S
C87 H107 0.931 1_545 S
C88 C85 1.405 . S
C88 C90 1.403 . S
C88 C94 1.439 . S
C89 N86 1.319 . S
C89 C87 1.397 . S
C89 H100 0.930 . S
C90 C87 1.367 . S
C90 C88 1.403 . S
C90 H111 0.929 1_545 S
C91 C92 1.430 . S
C91 C93 1.387 . S
C91 C97 1.404 . S
C92 C85 1.448 . S
C92 C91 1.430 . S
C92 N96 1.351 . S
C93 C91 1.387 . S
C93 C94 1.374 . S
C93 H108 0.931 . S
C94 C88 1.439 . S
C94 C93 1.374 . S
C94 H109 0.931 . S
Eu95 N86 2.600 . S
Eu95 N96 2.562 . S
Eu95 O130 2.335 . S
Eu95 O133 2.372 . S
Eu95 O134 2.462 . S
Eu95 O135 2.373 . S
Eu95 O137 2.432 . S
Eu95 O138 2.291 . S
Eu95 C159 2.787 . S
N96 C92 1.351 . S
N96 Eu95 2.562 . S
N96 C98 1.325 . S
C97 C91 1.404 . S
C97 C99 1.366 . S
C97 H105 0.930 . S
C98 N96 1.325 . S
C98 C99 1.416 . S
C98 H104 0.929 . S
C99 C97 1.366 . S
C99 C98 1.416 . S
C99 H101 0.930 . S
H100 C89 0.930 . S
H101 C99 0.930 . S
H102 C117 0.930 . S
H103 C124 0.930 . S
H104 C98 0.929 . S
H105 C97 0.930 . S
H106 C120 0.929 . S
H107 C87 0.931 1_565 S
H108 C93 0.931 . S
H109 C94 0.931 . S
H110 C115 0.931 . S
H111 C90 0.929 1_565 S
H112 C123 0.930 1_455 S
N113 Eu84 2.600 . S
N113 C114 1.365 . S
N113 C117 1.319 . S
C114 N113 1.365 . S
C114 C116 1.405 . S
C114 C122 1.448 . S
C115 H110 0.931 . S
C115 C117 1.397 . S
C115 C118 1.367 . S
C116 C114 1.405 . S
C116 C118 1.403 . S
C116 C149 1.439 1_655 S
C117 H102 0.930 . S
C117 N113 1.319 . S
C117 C115 1.397 . S
C118 C115 1.367 . S
C118 C116 1.403 . S
C118 H125 0.929 1_655 S
N119 Eu84 2.562 . S
N119 C120 1.325 . S
N119 C122 1.351 . S
C120 H106 0.929 . S
C120 N119 1.325 . S
C120 C124 1.416 . S
C121 C122 1.430 . S
C121 C123 1.404 . S
C121 C150 1.387 1_655 S
C122 C114 1.448 . S
C122 N119 1.351 . S
C122 C121 1.430 . S
C123 H112 0.930 1_655 S
C123 C121 1.404 . S
C123 C124 1.366 . S
C124 H103 0.930 . S
C124 C120 1.416 . S
C124 C123 1.366 . S
H125 C118 0.929 1_455 S
H126 C149 0.931 . S
H127 C150 0.931 . S
O128 Eu84 2.462 . S
O128 C148 1.252 . S
O129 Eu84 2.373 . S
O129 C140 1.249 . S
O130 Eu95 2.335 . S
O130 C140 1.264 . S
O131 Eu84 2.432 . S
O131 C148 1.268 . S
O132 Eu84 2.291 . S
O132 C147 1.255 . S
O133 Eu95 2.372 . S
O133 C147 1.257 . S
O134 Eu95 2.462 . S
O134 C159 1.252 . S
O135 Eu95 2.373 . S
O135 C151 1.249 . S
O136 Eu84 2.335 . S
O136 C151 1.264 . S
O137 Eu95 2.432 . S
O137 C159 1.268 . S
O138 Eu95 2.291 . S
O138 C158 1.255 . S
O139 Eu84 2.372 . S
O139 C158 1.257 . S
C140 O129 1.249 . S
C140 O130 1.264 . S
C141 C144 1.382 . S
C141 C146 1.390 . S
C141 C148 1.506 . S
C142 C143 1.398 . S
C142 C146 1.392 . S
C143 C142 1.398 . S
C143 C145 1.372 . S
C143 H160 0.931 . S
C144 C141 1.382 . S
C144 C145 1.390 . S
C144 H161 0.931 . S
C145 C143 1.372 . S
C145 C144 1.390 . S
C145 H162 0.929 . S
C146 C141 1.390 . S
C146 C142 1.392 . S
C146 H163 0.930 . S
C147 O132 1.255 . S
C147 O133 1.257 . S
C148 Eu84 2.787 . S
C148 O128 1.252 . S
C148 O131 1.268 . S
C148 C141 1.506 . S
C149 C116 1.439 1_455 S
C149 H126 0.931 . S
C149 C150 1.374 . S
C150 C121 1.387 1_455 S
C150 H127 0.931 . S
C150 C149 1.374 . S
C151 O135 1.249 . S
C151 O136 1.264 . S
C152 C155 1.382 . S
C152 C156 1.390 . S
C152 C159 1.506 . S
C153 C154 1.398 . S
C153 C156 1.392 . S
C154 C153 1.398 . S
C154 C157 1.372 . S
C154 H164 0.931 1_554 S
C155 C152 1.382 . S
C155 C157 1.390 . S
C155 H165 0.931 . S
C156 C152 1.390 . S
C156 C153 1.392 . S
C156 H166 0.930 . S
C157 C154 1.372 . S
C157 C155 1.390 . S
C157 H167 0.929 . S
C158 O138 1.255 . S
C158 O139 1.257 . S
C159 Eu95 2.787 . S
C159 O134 1.252 . S
C159 O137 1.268 . S
C159 C152 1.506 . S
H160 C143 0.931 . S
H161 C144 0.931 . S
H162 C145 0.929 . S
H163 C146 0.930 . S
H164 C154 0.931 1_556 S
H165 C155 0.931 . S
H166 C156 0.930 . S
H167 C157 0.929 . S
Eu168 N197 2.600 . S
Eu168 N203 2.562 . S
Eu168 O212 2.462 . S
Eu168 O213 2.373 . S
Eu168 O215 2.432 . S
Eu168 O216 2.291 . S
Eu168 O220 2.335 . S
Eu168 O223 2.372 . S
Eu168 C232 2.787 . S
C169 N170 1.365 . S
C169 C172 1.405 . S
C169 C176 1.448 . S
N170 C169 1.365 . S
N170 C173 1.319 . S
N170 Eu179 2.600 . S
C171 C173 1.397 . S
C171 C174 1.367 . S
C171 H191 0.931 1_565 S
C172 C169 1.405 . S
C172 C174 1.403 . S
C172 C178 1.439 . S
C173 N170 1.319 . S
C173 C171 1.397 . S
C173 H184 0.930 . S
C174 C171 1.367 . S
C174 C172 1.403 . S
C174 H195 0.929 1_565 S
C175 C176 1.430 . S
C175 C177 1.387 . S
C175 C181 1.404 . S
C176 C169 1.448 . S
C176 C175 1.430 . S
C176 N180 1.351 . S
C177 C175 1.387 . S
C177 C178 1.374 . S
C177 H192 0.931 . S
C178 C172 1.439 . S
C178 C177 1.374 . S
C178 H193 0.931 . S
Eu179 N170 2.600 . S
Eu179 N180 2.562 . S
Eu179 O214 2.335 . S
Eu179 O217 2.372 . S
Eu179 O218 2.462 . S
Eu179 O219 2.373 . S
Eu179 O221 2.432 . S
Eu179 O222 2.291 . S
Eu179 C243 2.787 . S
N180 C176 1.351 . S
N180 Eu179 2.562 . S
N180 C182 1.325 . S
C181 C175 1.404 . S
C181 C183 1.366 . S
C181 H189 0.930 . S
C182 N180 1.325 . S
C182 C183 1.416 . S
C182 H188 0.929 . S
C183 C181 1.366 . S
C183 C182 1.416 . S
C183 H185 0.930 . S
H184 C173 0.930 . S
H185 C183 0.930 . S
H186 C201 0.930 . S
H187 C208 0.930 . S
H188 C182 0.929 . S
H189 C181 0.930 . S
H190 C204 0.929 . S
H191 C171 0.931 1_545 S
H192 C177 0.931 . S
H193 C178 0.931 . S
H194 C199 0.931 . S
H195 C174 0.929 1_545 S
H196 C207 0.930 . S
N197 Eu168 2.600 . S
N197 C198 1.365 . S
N197 C201 1.319 . S
C198 N197 1.365 . S
C198 C200 1.405 . S
C198 C206 1.448 . S
C199 H194 0.931 . S
C199 C201 1.397 . S
C199 C202 1.367 . S
C200 C198 1.405 . S
C200 C202 1.403 . S
C200 C233 1.439 . S
C201 H186 0.930 . S
C201 N197 1.319 . S
C201 C199 1.397 . S
C202 C199 1.367 . S
C202 C200 1.403 . S
C202 H209 0.929 . S
N203 Eu168 2.562 . S
N203 C204 1.325 . S
N203 C206 1.351 . S
C204 H190 0.929 . S
C204 N203 1.325 . S
C204 C208 1.416 . S
C205 C206 1.430 . S
C205 C207 1.404 . S
C205 C234 1.387 . S
C206 C198 1.448 . S
C206 N203 1.351 . S
C206 C205 1.430 . S
C207 H196 0.930 . S
C207 C205 1.404 . S
C207 C208 1.366 . S
C208 H187 0.930 . S
C208 C204 1.416 . S
C208 C207 1.366 . S
H209 C202 0.929 . S
H210 C233 0.931 . S
H211 C234 0.931 . S
O212 Eu168 2.462 . S
O212 C232 1.252 . S
O213 Eu168 2.373 . S
O213 C224 1.249 . S
O214 Eu179 2.335 . S
O214 C224 1.264 . S
O215 Eu168 2.432 . S
O215 C232 1.268 . S
O216 Eu168 2.291 . S
O216 C231 1.255 . S
O217 Eu179 2.372 . S
O217 C231 1.257 . S
O218 Eu179 2.462 . S
O218 C243 1.252 . S
O219 Eu179 2.373 . S
O219 C235 1.249 . S
O220 Eu168 2.335 . S
O220 C235 1.264 . S
O221 Eu179 2.432 . S
O221 C243 1.268 . S
O222 Eu179 2.291 . S
O222 C242 1.255 . S
O223 Eu168 2.372 . S
O223 C242 1.257 . S
C224 O213 1.249 . S
C224 O214 1.264 . S
C225 C228 1.382 . S
C225 C230 1.390 . S
C225 C232 1.506 . S
C226 C227 1.398 . S
C226 C230 1.392 . S
C227 C226 1.398 . S
C227 C229 1.372 . S
C227 H244 0.931 . S
C228 C225 1.382 . S
C228 C229 1.390 . S
C228 H245 0.931 . S
C229 C227 1.372 . S
C229 C228 1.390 . S
C229 H246 0.929 . S
C230 C225 1.390 . S
C230 C226 1.392 . S
C230 H247 0.930 . S
C231 O216 1.255 . S
C231 O217 1.257 . S
C232 Eu168 2.787 . S
C232 O212 1.252 . S
C232 O215 1.268 . S
C232 C225 1.506 . S
C233 C200 1.439 . S
C233 H210 0.931 . S
C233 C234 1.374 . S
C234 C205 1.387 . S
C234 H211 0.931 . S
C234 C233 1.374 . S
C235 O219 1.249 . S
C235 O220 1.264 . S
C236 C239 1.382 . S
C236 C240 1.390 . S
C236 C243 1.506 . S
C237 C238 1.398 1_556 S
C237 C240 1.392 . S
C238 C237 1.398 1_554 S
C238 C241 1.372 1_554 S
C238 H248 0.931 . S
C239 C236 1.382 . S
C239 C241 1.390 . S
C239 H249 0.931 . S
C240 C236 1.390 . S
C240 C237 1.392 . S
C240 H250 0.930 . S
C241 C238 1.372 1_556 S
C241 C239 1.390 . S
C241 H251 0.929 . S
C242 O222 1.255 . S
C242 O223 1.257 . S
C243 Eu179 2.787 . S
C243 O218 1.252 . S
C243 O221 1.268 . S
C243 C236 1.506 . S
H244 C227 0.931 . S
H245 C228 0.931 . S
H246 C229 0.929 . S
H247 C230 0.930 . S
H248 C238 0.931 . S
H249 C239 0.931 . S
H250 C240 0.930 . S
H251 C241 0.929 . S
Eu252 N281 2.600 . S
Eu252 N287 2.562 . S
Eu252 O296 2.462 . S
Eu252 O297 2.373 1_554 S
Eu252 O299 2.432 . S
Eu252 O300 2.291 . S
Eu252 O304 2.335 . S
Eu252 O307 2.372 . S
Eu252 C316 2.787 . S
C253 N254 1.365 . S
C253 C256 1.405 . S
C253 C260 1.448 . S
N254 C253 1.365 . S
N254 C257 1.319 . S
N254 Eu263 2.600 . S
C255 C257 1.397 . S
C255 C258 1.367 . S
C255 H275 0.931 1_655 S
C256 C253 1.405 . S
C256 C258 1.403 . S
C256 C262 1.439 . S
C257 N254 1.319 . S
C257 C255 1.397 . S
C257 H268 0.930 . S
C258 C255 1.367 . S
C258 C256 1.403 . S
C258 H279 0.929 1_655 S
C259 C260 1.430 . S
C259 C261 1.387 . S
C259 C265 1.404 . S
C260 C253 1.448 . S
C260 C259 1.430 . S
C260 N264 1.351 . S
C261 C259 1.387 . S
C261 C262 1.374 . S
C261 H276 0.931 . S
C262 C256 1.439 . S
C262 C261 1.374 . S
C262 H277 0.931 . S
Eu263 N254 2.600 . S
Eu263 N264 2.562 . S
Eu263 O298 2.335 . S
Eu263 O301 2.372 1_556 S
Eu263 O302 2.462 . S
Eu263 O303 2.373 1_556 S
Eu263 O305 2.432 . S
Eu263 O306 2.291 . S
Eu263 C327 2.787 . S
N264 C260 1.351 . S
N264 Eu263 2.562 . S
N264 C266 1.325 . S
C265 C259 1.404 . S
C265 C267 1.366 . S
C265 H273 0.930 . S
C266 N264 1.325 . S
C266 C267 1.416 . S
C266 H272 0.929 . S
C267 C265 1.366 . S
C267 C266 1.416 . S
C267 H269 0.930 . S
H268 C257 0.930 . S
H269 C267 0.930 . S
H270 C285 0.930 . S
H271 C292 0.930 . S
H272 C266 0.929 . S
H273 C265 0.930 . S
H274 C288 0.929 . S
H275 C255 0.931 1_455 S
H276 C261 0.931 . S
H277 C262 0.931 . S
H278 C283 0.931 . S
H279 C258 0.929 1_455 S
H280 C291 0.930 . S
N281 Eu252 2.600 . S
N281 C282 1.365 . S
N281 C285 1.319 . S
C282 N281 1.365 . S
C282 C284 1.405 . S
C282 C290 1.448 . S
C283 H278 0.931 . S
C283 C285 1.397 . S
C283 C286 1.367 . S
C284 C282 1.405 . S
C284 C286 1.403 . S
C284 C317 1.439 . S
C285 H270 0.930 . S
C285 N281 1.319 . S
C285 C283 1.397 . S
C286 C283 1.367 . S
C286 C284 1.403 . S
C286 H293 0.929 . S
N287 Eu252 2.562 . S
N287 C288 1.325 . S
N287 C290 1.351 . S
C288 H274 0.929 . S
C288 N287 1.325 . S
C288 C292 1.416 . S
C289 C290 1.430 . S
C289 C291 1.404 . S
C289 C318 1.387 . S
C290 C282 1.448 . S
C290 N287 1.351 . S
C290 C289 1.430 . S
C291 H280 0.930 . S
C291 C289 1.404 . S
C291 C292 1.366 . S
C292 H271 0.930 . S
C292 C288 1.416 . S
C292 C291 1.366 . S
H293 C286 0.929 . S
H294 C317 0.931 . S
H295 C318 0.931 . S
O296 Eu252 2.462 . S
O296 C316 1.252 . S
O297 Eu252 2.373 1_556 S
O297 C308 1.249 . S
O298 Eu263 2.335 . S
O298 C308 1.264 . S
O299 Eu252 2.432 . S
O299 C316 1.268 . S
O300 Eu252 2.291 . S
O300 C315 1.255 . S
O301 Eu263 2.372 1_554 S
O301 C315 1.257 . S
O302 Eu263 2.462 . S
O302 C327 1.252 . S
O303 Eu263 2.373 1_554 S
O303 C319 1.249 . S
O304 Eu252 2.335 . S
O304 C319 1.264 . S
O305 Eu263 2.432 . S
O305 C327 1.268 . S
O306 Eu263 2.291 . S
O306 C326 1.255 . S
O307 Eu252 2.372 . S
O307 C326 1.257 1_554 S
C308 O297 1.249 . S
C308 O298 1.264 . S
C309 C312 1.382 . S
C309 C314 1.390 . S
C309 C316 1.506 . S
C310 C311 1.398 . S
C310 C314 1.392 . S
C311 C310 1.398 . S
C311 C313 1.372 . S
C311 H328 0.931 . S
C312 C309 1.382 . S
C312 C313 1.390 . S
C312 H329 0.931 . S
C313 C311 1.372 . S
C313 C312 1.390 . S
C313 H330 0.929 . S
C314 C309 1.390 . S
C314 C310 1.392 . S
C314 H331 0.930 . S
C315 O300 1.255 . S
C315 O301 1.257 . S
C316 Eu252 2.787 . S
C316 O296 1.252 . S
C316 O299 1.268 . S
C316 C309 1.506 . S
C317 C284 1.439 . S
C317 H294 0.931 . S
C317 C318 1.374 . S
C318 C289 1.387 . S
C318 H295 0.931 . S
C318 C317 1.374 . S
C319 O303 1.249 . S
C319 O304 1.264 . S
C320 C323 1.382 . S
C320 C324 1.390 . S
C320 C327 1.506 . S
C321 C322 1.398 . S
C321 C324 1.392 . S
C322 C321 1.398 . S
C322 C325 1.372 . S
C322 H332 0.931 . S
C323 C320 1.382 . S
C323 C325 1.390 . S
C323 H333 0.931 . S
C324 C320 1.390 . S
C324 C321 1.392 . S
C324 H334 0.930 . S
C325 C322 1.372 . S
C325 C323 1.390 . S
C325 H335 0.929 . S
C326 O306 1.255 . S
C326 O307 1.257 1_556 S
C327 Eu263 2.787 . S
C327 O302 1.252 . S
C327 O305 1.268 . S
C327 C320 1.506 . S
H328 C311 0.931 . S
H329 C312 0.931 . S
H330 C313 0.929 . S
H331 C314 0.930 . S
H332 C322 0.931 . S
H333 C323 0.931 . S
H334 C324 0.930 . S
H335 C325 0.929 . S
Eu336 N365 2.600 . S
Eu336 N371 2.562 . S
Eu336 O380 2.462 . S
Eu336 O381 2.373 . S
Eu336 O383 2.432 . S
Eu336 O384 2.291 . S
Eu336 O388 2.335 . S
Eu336 O391 2.372 . S
Eu336 C400 2.787 . S
C337 N338 1.365 . S
C337 C340 1.405 . S
C337 C344 1.448 . S
N338 C337 1.365 . S
N338 C341 1.319 . S
N338 Eu347 2.600 . S
C339 C341 1.397 . S
C339 C342 1.367 . S
C339 H359 0.931 1_455 S
C340 C337 1.405 . S
C340 C342 1.403 . S
C340 C346 1.439 . S
C341 N338 1.319 . S
C341 C339 1.397 . S
C341 H352 0.930 . S
C342 C339 1.367 . S
C342 C340 1.403 . S
C342 H363 0.929 1_455 S
C343 C344 1.430 . S
C343 C345 1.387 . S
C343 C349 1.404 . S
C344 C337 1.448 . S
C344 C343 1.430 . S
C344 N348 1.351 . S
C345 C343 1.387 . S
C345 C346 1.374 . S
C345 H360 0.931 . S
C346 C340 1.439 . S
C346 C345 1.374 . S
C346 H361 0.931 . S
Eu347 N338 2.600 . S
Eu347 N348 2.562 . S
Eu347 O382 2.335 . S
Eu347 O385 2.372 . S
Eu347 O386 2.462 . S
Eu347 O387 2.373 . S
Eu347 O389 2.432 . S
Eu347 O390 2.291 . S
Eu347 C411 2.787 . S
N348 C344 1.351 . S
N348 Eu347 2.562 . S
N348 C350 1.325 . S
C349 C343 1.404 . S
C349 C351 1.366 . S
C349 H357 0.930 . S
C350 N348 1.325 . S
C350 C351 1.416 . S
C350 H356 0.929 . S
C351 C349 1.366 . S
C351 C350 1.416 . S
C351 H353 0.930 . S
H352 C341 0.930 . S
H353 C351 0.930 . S
H354 C369 0.930 . S
H355 C376 0.930 . S
H356 C350 0.929 . S
H357 C349 0.930 . S
H358 C372 0.929 . S
H359 C339 0.931 1_655 S
H360 C345 0.931 . S
H361 C346 0.931 . S
H362 C367 0.931 . S
H363 C342 0.929 1_655 S
H364 C375 0.930 1_545 S
N365 Eu336 2.600 . S
N365 C366 1.365 . S
N365 C369 1.319 . S
C366 N365 1.365 . S
C366 C368 1.405 . S
C366 C374 1.448 . S
C367 H362 0.931 . S
C367 C369 1.397 . S
C367 C370 1.367 . S
C368 C366 1.405 . S
C368 C370 1.403 . S
C368 C401 1.439 1_565 S
C369 H354 0.930 . S
C369 N365 1.319 . S
C369 C367 1.397 . S
C370 C367 1.367 . S
C370 C368 1.403 . S
C370 H377 0.929 1_565 S
N371 Eu336 2.562 . S
N371 C372 1.325 . S
N371 C374 1.351 . S
C372 H358 0.929 . S
C372 N371 1.325 . S
C372 C376 1.416 . S
C373 C374 1.430 . S
C373 C375 1.404 . S
C373 C402 1.387 1_565 S
C374 C366 1.448 . S
C374 N371 1.351 . S
C374 C373 1.430 . S
C375 H364 0.930 1_565 S
C375 C373 1.404 . S
C375 C376 1.366 . S
C376 H355 0.930 . S
C376 C372 1.416 . S
C376 C375 1.366 . S
H377 C370 0.929 1_545 S
H378 C401 0.931 . S
H379 C402 0.931 . S
O380 Eu336 2.462 . S
O380 C400 1.252 . S
O381 Eu336 2.373 . S
O381 C392 1.249 . S
O382 Eu347 2.335 . S
O382 C392 1.264 . S
O383 Eu336 2.432 . S
O383 C400 1.268 . S
O384 Eu336 2.291 . S
O384 C399 1.255 . S
O385 Eu347 2.372 . S
O385 C399 1.257 . S
O386 Eu347 2.462 . S
O386 C411 1.252 . S
O387 Eu347 2.373 . S
O387 C403 1.249 . S
O388 Eu336 2.335 . S
O388 C403 1.264 . S
O389 Eu347 2.432 . S
O389 C411 1.268 . S
O390 Eu347 2.291 . S
O390 C410 1.255 . S
O391 Eu336 2.372 . S
O391 C410 1.257 . S
C392 O381 1.249 . S
C392 O382 1.264 . S
C393 C396 1.382 . S
C393 C398 1.390 . S
C393 C400 1.506 . S
C394 C395 1.398 1_554 S
C394 C398 1.392 . S
C395 C394 1.398 1_556 S
C395 C397 1.372 1_556 S
C395 H412 0.931 . S
C396 C393 1.382 . S
C396 C397 1.390 . S
C396 H413 0.931 . S
C397 C395 1.372 1_554 S
C397 C396 1.390 . S
C397 H414 0.929 . S
C398 C393 1.390 . S
C398 C394 1.392 . S
C398 H415 0.930 . S
C399 O384 1.255 . S
C399 O385 1.257 . S
C400 Eu336 2.787 . S
C400 O380 1.252 . S
C400 O383 1.268 . S
C400 C393 1.506 . S
C401 C368 1.439 1_545 S
C401 H378 0.931 . S
C401 C402 1.374 . S
C402 C373 1.387 1_545 S
C402 H379 0.931 . S
C402 C401 1.374 . S
C403 O387 1.249 . S
C403 O388 1.264 . S
C404 C407 1.382 . S
C404 C408 1.390 . S
C404 C411 1.506 . S
C405 C406 1.398 . S
C405 C408 1.392 . S
C406 C405 1.398 . S
C406 C409 1.372 . S
C406 H416 0.931 . S
C407 C404 1.382 . S
C407 C409 1.390 . S
C407 H417 0.931 . S
C408 C404 1.390 . S
C408 C405 1.392 . S
C408 H418 0.930 . S
C409 C406 1.372 . S
C409 C407 1.390 . S
C409 H419 0.929 . S
C410 O390 1.255 . S
C410 O391 1.257 . S
C411 Eu347 2.787 . S
C411 O386 1.252 . S
C411 O389 1.268 . S
C411 C404 1.506 . S
H412 C395 0.931 . S
H413 C396 0.931 . S
H414 C397 0.929 . S
H415 C398 0.930 . S
H416 C406 0.931 . S
H417 C407 0.931 . S
H418 C408 0.930 . S
H419 C409 0.929 . S
Eu420 N449 2.600 . S
Eu420 N455 2.562 . S
Eu420 O464 2.462 . S
Eu420 O465 2.373 . S
Eu420 O467 2.432 . S
Eu420 O468 2.291 . S
Eu420 O472 2.335 . S
Eu420 O475 2.372 . S
Eu420 C484 2.787 . S
C421 N422 1.365 . S
C421 C424 1.405 . S
C421 C428 1.448 . S
N422 C421 1.365 . S
N422 C425 1.319 . S
N422 Eu431 2.600 . S
C423 C425 1.397 . S
C423 C426 1.367 . S
C423 H443 0.931 . S
C424 C421 1.405 . S
C424 C426 1.403 . S
C424 C430 1.439 . S
C425 N422 1.319 . S
C425 C423 1.397 . S
C425 H436 0.930 . S
C426 C423 1.367 . S
C426 C424 1.403 . S
C426 H447 0.929 . S
C427 C428 1.430 . S
C427 C429 1.387 . S
C427 C433 1.404 . S
C428 C421 1.448 . S
C428 C427 1.430 . S
C428 N432 1.351 . S
C429 C427 1.387 . S
C429 C430 1.374 . S
C429 H444 0.931 . S
C430 C424 1.439 . S
C430 C429 1.374 . S
C430 H445 0.931 . S
Eu431 N422 2.600 . S
Eu431 N432 2.562 . S
Eu431 O466 2.335 . S
Eu431 O469 2.372 . S
Eu431 O470 2.462 . S
Eu431 O471 2.373 . S
Eu431 O473 2.432 . S
Eu431 O474 2.291 . S
Eu431 C495 2.787 . S
N432 C428 1.351 . S
N432 Eu431 2.562 . S
N432 C434 1.325 . S
C433 C427 1.404 . S
C433 C435 1.366 . S
C433 H441 0.930 . S
C434 N432 1.325 . S
C434 C435 1.416 . S
C434 H440 0.929 . S
C435 C433 1.366 . S
C435 C434 1.416 . S
C435 H437 0.930 . S
H436 C425 0.930 . S
H437 C435 0.930 . S
H438 C453 0.930 . S
H439 C460 0.930 . S
H440 C434 0.929 . S
H441 C433 0.930 . S
H442 C456 0.929 . S
H443 C423 0.931 . S
H444 C429 0.931 . S
H445 C430 0.931 . S
H446 C451 0.931 . S
H447 C426 0.929 . S
H448 C459 0.930 1_565 S
N449 Eu420 2.600 . S
N449 C450 1.365 . S
N449 C453 1.319 . S
C450 N449 1.365 . S
C450 C452 1.405 . S
C450 C458 1.448 . S
C451 H446 0.931 . S
C451 C453 1.397 . S
C451 C454 1.367 . S
C452 C450 1.405 . S
C452 C454 1.403 . S
C452 C485 1.439 1_545 S
C453 H438 0.930 . S
C453 N449 1.319 . S
C453 C451 1.397 . S
C454 C451 1.367 . S
C454 C452 1.403 . S
C454 H461 0.929 1_545 S
N455 Eu420 2.562 . S
N455 C456 1.325 . S
N455 C458 1.351 . S
C456 H442 0.929 . S
C456 N455 1.325 . S
C456 C460 1.416 . S
C457 C458 1.430 . S
C457 C459 1.404 . S
C457 C486 1.387 1_545 S
C458 C450 1.448 . S
C458 N455 1.351 . S
C458 C457 1.430 . S
C459 H448 0.930 1_545 S
C459 C457 1.404 . S
C459 C460 1.366 . S
C460 H439 0.930 . S
C460 C456 1.416 . S
C460 C459 1.366 . S
H461 C454 0.929 1_565 S
H462 C485 0.931 . S
H463 C486 0.931 . S
O464 Eu420 2.462 . S
O464 C484 1.252 . S
O465 Eu420 2.373 . S
O465 C476 1.249 . S
O466 Eu431 2.335 . S
O466 C476 1.264 . S
O467 Eu420 2.432 . S
O467 C484 1.268 . S
O468 Eu420 2.291 . S
O468 C483 1.255 . S
O469 Eu431 2.372 . S
O469 C483 1.257 . S
O470 Eu431 2.462 . S
O470 C495 1.252 . S
O471 Eu431 2.373 . S
O471 C487 1.249 . S
O472 Eu420 2.335 . S
O472 C487 1.264 . S
O473 Eu431 2.432 . S
O473 C495 1.268 . S
O474 Eu431 2.291 . S
O474 C494 1.255 . S
O475 Eu420 2.372 . S
O475 C494 1.257 . S
C476 O465 1.249 . S
C476 O466 1.264 . S
C477 C480 1.382 . S
C477 C482 1.390 . S
C477 C484 1.506 . S
C478 C479 1.398 . S
C478 C482 1.392 1_554 S
C479 C478 1.398 . S
C479 C481 1.372 1_554 S
C479 H496 0.931 . S
C480 C477 1.382 . S
C480 C481 1.390 . S
C480 H497 0.931 . S
C481 C479 1.372 1_556 S
C481 C480 1.390 . S
C481 H498 0.929 . S
C482 C477 1.390 . S
C482 C478 1.392 1_556 S
C482 H499 0.930 . S
C483 O468 1.255 . S
C483 O469 1.257 . S
C484 Eu420 2.787 . S
C484 O464 1.252 . S
C484 O467 1.268 . S
C484 C477 1.506 . S
C485 C452 1.439 1_565 S
C485 H462 0.931 . S
C485 C486 1.374 . S
C486 C457 1.387 1_565 S
C486 H463 0.931 . S
C486 C485 1.374 . S
C487 O471 1.249 . S
C487 O472 1.264 . S
C488 C491 1.382 . S
C488 C492 1.390 . S
C488 C495 1.506 . S
C489 C490 1.398 . S
C489 C492 1.392 . S
C490 C489 1.398 . S
C490 C493 1.372 . S
C490 H500 0.931 . S
C491 C488 1.382 . S
C491 C493 1.390 . S
C491 H501 0.931 . S
C492 C488 1.390 . S
C492 C489 1.392 . S
C492 H502 0.930 . S
C493 C490 1.372 . S
C493 C491 1.390 . S
C493 H503 0.929 . S
C494 O474 1.255 . S
C494 O475 1.257 . S
C495 Eu431 2.787 . S
C495 O470 1.252 . S
C495 O473 1.268 . S
C495 C488 1.506 . S
H496 C479 0.931 . S
H497 C480 0.931 . S
H498 C481 0.929 . S
H499 C482 0.930 . S
H500 C490 0.931 . S
H501 C491 0.931 . S
H502 C492 0.930 . S
H503 C493 0.929 . S
C504 C505 1.391 . S
C504 C506 1.394 . S
C504 H520 0.931 . S
C505 C504 1.391 . S
C505 C509 1.376 . S
C506 C504 1.394 . S
C506 C507 1.369 . S
C506 C510 1.531 . S
C507 C506 1.369 . S
C507 C508 1.410 . S
C507 C515 1.503 . S
C508 C507 1.410 . S
C508 C509 1.392 . S
C508 C511 1.511 . S
C509 C505 1.376 . S
C509 C508 1.392 . S
C509 H521 0.929 . S
C510 C506 1.531 . S
C510 H522 0.960 . S
C510 H523 0.962 . S
C510 H524 0.960 . S
C511 C508 1.511 . S
C511 H525 0.961 . S
C511 H526 0.961 . S
C511 H527 0.961 . S
C512 C513 1.370 . S
C512 C514 1.363 . S
C512 H528 0.931 . S
C513 C512 1.370 . S
C513 C517 1.408 . S
C514 C512 1.363 . S
C514 C515 1.370 . S
C514 C518 1.524 . S
C515 C507 1.503 . S
C515 C514 1.370 . S
C515 C516 1.403 . S
C516 C515 1.403 . S
C516 C517 1.404 . S
C516 C519 1.539 . S
C517 C513 1.408 . S
C517 C516 1.404 . S
C517 H529 0.930 . S
C518 C514 1.524 . S
C518 H530 0.956 . S
C518 H531 0.961 . S
C518 H532 0.961 . S
C519 C516 1.539 . S
C519 H533 0.958 . S
C519 H534 0.961 . S
C519 H535 0.960 . S
H520 C504 0.931 . S
H521 C509 0.929 . S
H522 C510 0.960 . S
H523 C510 0.962 . S
H524 C510 0.960 . S
H525 C511 0.961 . S
H526 C511 0.961 . S
H527 C511 0.961 . S
H528 C512 0.931 . S
H529 C517 0.930 . S
H530 C518 0.956 . S
H531 C518 0.961 . S
H532 C518 0.961 . S
H533 C519 0.958 . S
H534 C519 0.961 . S
H535 C519 0.960 . S
C536 C537 1.391 . S
C536 C538 1.394 . S
C536 H552 0.931 . S
C537 C536 1.391 . S
C537 C541 1.376 . S
C538 C536 1.394 . S
C538 C539 1.369 . S
C538 C542 1.531 . S
C539 C538 1.369 . S
C539 C540 1.410 . S
C539 C547 1.503 1_455 S
C540 C539 1.410 . S
C540 C541 1.392 . S
C540 C543 1.511 . S
C541 C537 1.376 . S
C541 C540 1.392 . S
C541 H553 0.929 . S
C542 C538 1.531 . S
C542 H554 0.960 . S
C542 H555 0.962 1_455 S
C542 H556 0.960 . S
C543 C540 1.511 . S
C543 H557 0.961 . S
C543 H558 0.961 . S
C543 H559 0.961 . S
C544 C545 1.370 . S
C544 C546 1.363 . S
C544 H560 0.931 . S
C545 C544 1.370 . S
C545 C549 1.408 . S
C546 C544 1.363 . S
C546 C547 1.370 . S
C546 C550 1.524 . S
C547 C539 1.503 1_655 S
C547 C546 1.370 . S
C547 C548 1.403 . S
C548 C547 1.403 . S
C548 C549 1.404 . S
C548 C551 1.539 1_655 S
C549 C545 1.408 . S
C549 C548 1.404 . S
C549 H561 0.930 . S
C550 C546 1.524 . S
C550 H562 0.956 . S
C550 H563 0.961 . S
C550 H564 0.961 . S
C551 C548 1.539 1_455 S
C551 H565 0.958 . S
C551 H566 0.961 . S
C551 H567 0.960 . S
H552 C536 0.931 . S
H553 C541 0.929 . S
H554 C542 0.960 . S
H555 C542 0.962 1_655 S
H556 C542 0.960 . S
H557 C543 0.961 . S
H558 C543 0.961 . S
H559 C543 0.961 . S
H560 C544 0.931 . S
H561 C549 0.930 . S
H562 C550 0.956 . S
H563 C550 0.961 . S
H564 C550 0.961 . S
H565 C551 0.958 . S
H566 C551 0.961 . S
H567 C551 0.960 . S
C568 C569 1.391 . S
C568 C570 1.394 . S
C568 H584 0.931 . S
C569 C568 1.391 . S
C569 C573 1.376 . S
C570 C568 1.394 . S
C570 C571 1.369 . S
C570 C574 1.531 1_545 S
C571 C570 1.369 . S
C571 C572 1.410 . S
C571 C579 1.503 1_545 S
C572 C571 1.410 . S
C572 C573 1.392 . S
C572 C575 1.511 . S
C573 C569 1.376 . S
C573 C572 1.392 . S
C573 H585 0.929 . S
C574 C570 1.531 1_565 S
C574 H586 0.960 . S
C574 H587 0.962 . S
C574 H588 0.960 . S
C575 C572 1.511 . S
C575 H589 0.961 . S
C575 H590 0.961 . S
C575 H591 0.961 . S
C576 C577 1.370 . S
C576 C578 1.363 . S
C576 H592 0.931 . S
C577 C576 1.370 . S
C577 C581 1.408 . S
C578 C576 1.363 . S
C578 C579 1.370 . S
C578 C582 1.524 1_565 S
C579 C571 1.503 1_565 S
C579 C578 1.370 . S
C579 C580 1.403 . S
C580 C579 1.403 . S
C580 C581 1.404 . S
C580 C583 1.539 . S
C581 C577 1.408 . S
C581 C580 1.404 . S
C581 H593 0.930 . S
C582 C578 1.524 1_545 S
C582 H594 0.956 . S
C582 H595 0.961 . S
C582 H596 0.961 . S
C583 C580 1.539 . S
C583 H597 0.958 . S
C583 H598 0.961 . S
C583 H599 0.960 . S
H584 C568 0.931 . S
H585 C573 0.929 . S
H586 C574 0.960 . S
H587 C574 0.962 . S
H588 C574 0.960 . S
H589 C575 0.961 . S
H590 C575 0.961 . S
H591 C575 0.961 . S
H592 C576 0.931 . S
H593 C581 0.930 . S
H594 C582 0.956 . S
H595 C582 0.961 . S
H596 C582 0.961 . S
H597 C583 0.958 . S
H598 C583 0.961 . S
H599 C583 0.960 . S
C600 C601 1.391 . S
C600 C602 1.394 . S
C600 H616 0.931 . S
C601 C600 1.391 . S
C601 C605 1.376 . S
C602 C600 1.394 . S
C602 C603 1.369 . S
C602 C606 1.531 . S
C603 C602 1.369 . S
C603 C604 1.410 . S
C603 C611 1.503 . S
C604 C603 1.410 . S
C604 C605 1.392 . S
C604 C607 1.511 . S
C605 C601 1.376 . S
C605 C604 1.392 . S
C605 H617 0.929 . S
C606 C602 1.531 . S
C606 H618 0.960 . S
C606 H619 0.962 . S
C606 H620 0.960 . S
C607 C604 1.511 . S
C607 H621 0.961 . S
C607 H622 0.961 . S
C607 H623 0.961 . S
C608 C609 1.370 . S
C608 C610 1.363 . S
C608 H624 0.931 . S
C609 C608 1.370 . S
C609 C613 1.408 . S
C610 C608 1.363 . S
C610 C611 1.370 . S
C610 C614 1.524 . S
C611 C603 1.503 . S
C611 C610 1.370 . S
C611 C612 1.403 . S
C612 C611 1.403 . S
C612 C613 1.404 . S
C612 C615 1.539 . S
C613 C609 1.408 . S
C613 C612 1.404 . S
C613 H625 0.930 . S
C614 C610 1.524 . S
C614 H626 0.956 . S
C614 H627 0.961 . S
C614 H628 0.961 . S
C615 C612 1.539 . S
C615 H629 0.958 . S
C615 H630 0.961 . S
C615 H631 0.960 . S
H616 C600 0.931 . S
H617 C605 0.929 . S
H618 C606 0.960 . S
H619 C606 0.962 . S
H620 C606 0.960 . S
H621 C607 0.961 . S
H622 C607 0.961 . S
H623 C607 0.961 . S
H624 C608 0.931 . S
H625 C613 0.930 . S
H626 C614 0.956 . S
H627 C614 0.961 . S
H628 C614 0.961 . S
H629 C615 0.958 . S
H630 C615 0.961 . S
H631 C615 0.960 . S
C632 C633 1.391 . S
C632 C634 1.394 . S
C632 H648 0.931 . S
C633 C632 1.391 . S
C633 C637 1.376 . S
C634 C632 1.394 . S
C634 C635 1.369 . S
C634 C638 1.531 1_455 S
C635 C634 1.369 . S
C635 C636 1.410 . S
C635 C643 1.503 1_455 S
C636 C635 1.410 . S
C636 C637 1.392 . S
C636 C639 1.511 . S
C637 C633 1.376 . S
C637 C636 1.392 . S
C637 H649 0.929 . S
C638 C634 1.531 1_655 S
C638 H650 0.960 . S
C638 H651 0.962 . S
C638 H652 0.960 . S
C639 C636 1.511 . S
C639 H653 0.961 . S
C639 H654 0.961 . S
C639 H655 0.961 . S
C640 C641 1.370 . S
C640 C642 1.363 . S
C640 H656 0.931 . S
C641 C640 1.370 . S
C641 C645 1.408 . S
C642 C640 1.363 . S
C642 C643 1.370 . S
C642 C646 1.524 1_655 S
C643 C635 1.503 1_655 S
C643 C642 1.370 . S
C643 C644 1.403 . S
C644 C643 1.403 . S
C644 C645 1.404 . S
C644 C647 1.539 . S
C645 C641 1.408 . S
C645 C644 1.404 . S
C645 H657 0.930 . S
C646 C642 1.524 1_455 S
C646 H658 0.956 . S
C646 H659 0.961 . S
C646 H660 0.961 1_455 S
C647 C644 1.539 . S
C647 H661 0.958 . S
C647 H662 0.961 . S
C647 H663 0.960 . S
H648 C632 0.931 . S
H649 C637 0.929 . S
H650 C638 0.960 . S
H651 C638 0.962 . S
H652 C638 0.960 . S
H653 C639 0.961 . S
H654 C639 0.961 . S
H655 C639 0.961 . S
H656 C640 0.931 . S
H657 C645 0.930 . S
H658 C646 0.956 . S
H659 C646 0.961 . S
H660 C646 0.961 1_655 S
H661 C647 0.958 . S
H662 C647 0.961 . S
H663 C647 0.960 . S
C664 C665 1.391 . S
C664 C666 1.394 . S
C664 H680 0.931 . S
C665 C664 1.391 . S
C665 C669 1.376 . S
C666 C664 1.394 . S
C666 C667 1.369 . S
C666 C670 1.531 . S
C667 C666 1.369 . S
C667 C668 1.410 . S
C667 C675 1.503 1_545 S
C668 C667 1.410 . S
C668 C669 1.392 . S
C668 C671 1.511 . S
C669 C665 1.376 . S
C669 C668 1.392 . S
C669 H681 0.929 . S
C670 C666 1.531 . S
C670 H682 0.960 . S
C670 H683 0.962 1_545 S
C670 H684 0.960 . S
C671 C668 1.511 . S
C671 H685 0.961 . S
C671 H686 0.961 1_545 S
C671 H687 0.961 . S
C672 C673 1.370 . S
C672 C674 1.363 . S
C672 H688 0.931 . S
C673 C672 1.370 . S
C673 C677 1.408 . S
C674 C672 1.363 . S
C674 C675 1.370 . S
C674 C678 1.524 . S
C675 C667 1.503 1_565 S
C675 C674 1.370 . S
C675 C676 1.403 . S
C676 C675 1.403 . S
C676 C677 1.404 . S
C676 C679 1.539 1_565 S
C677 C673 1.408 . S
C677 C676 1.404 . S
C677 H689 0.930 . S
C678 C674 1.524 . S
C678 H690 0.956 . S
C678 H691 0.961 . S
C678 H692 0.961 . S
C679 C676 1.539 1_545 S
C679 H693 0.958 . S
C679 H694 0.961 . S
C679 H695 0.960 . S
H680 C664 0.931 . S
H681 C669 0.929 . S
H682 C670 0.960 . S
H683 C670 0.962 1_565 S
H684 C670 0.960 . S
H685 C671 0.961 . S
H686 C671 0.961 1_565 S
H687 C671 0.961 . S
H688 C672 0.931 . S
H689 C677 0.930 . S
H690 C678 0.956 . S
H691 C678 0.961 . S
H692 C678 0.961 . S
H693 C679 0.958 . S
H694 C679 0.961 . S
H695 C679 0.960 . S
C696 C697 1.391 . S
C696 C698 1.394 . S
C696 H712 0.931 . S
C697 C696 1.391 . S
C697 C701 1.376 . S
C698 C696 1.394 . S
C698 C699 1.369 . S
C698 C702 1.531 . S
C699 C698 1.369 . S
C699 C700 1.410 . S
C699 C707 1.503 . S
C700 C699 1.410 . S
C700 C701 1.392 . S
C700 C703 1.511 . S
C701 C697 1.376 . S
C701 C700 1.392 . S
C701 H713 0.929 . S
C702 C698 1.531 . S
C702 H714 0.960 . S
C702 H715 0.962 . S
C702 H716 0.960 . S
C703 C700 1.511 . S
C703 H717 0.961 . S
C703 H718 0.961 . S
C703 H719 0.961 . S
C704 C705 1.370 . S
C704 C706 1.363 . S
C704 H720 0.931 . S
C705 C704 1.370 . S
C705 C709 1.408 . S
C706 C704 1.363 . S
C706 C707 1.370 . S
C706 C710 1.524 . S
C707 C699 1.503 . S
C707 C706 1.370 . S
C707 C708 1.403 . S
C708 C707 1.403 . S
C708 C709 1.404 . S
C708 C711 1.539 . S
C709 C705 1.408 . S
C709 C708 1.404 . S
C709 H721 0.930 . S
C710 C706 1.524 . S
C710 H722 0.956 . S
C710 H723 0.961 . S
C710 H724 0.961 . S
C711 C708 1.539 . S
C711 H725 0.958 . S
C711 H726 0.961 . S
C711 H727 0.960 . S
H712 C696 0.931 . S
H713 C701 0.929 . S
H714 C702 0.960 . S
H715 C702 0.962 . S
H716 C702 0.960 . S
H717 C703 0.961 . S
H718 C703 0.961 . S
H719 C703 0.961 . S
H720 C704 0.931 . S
H721 C709 0.930 . S
H722 C710 0.956 . S
H723 C710 0.961 . S
H724 C710 0.961 . S
H725 C711 0.958 . S
H726 C711 0.961 . S
H727 C711 0.960 . S
C728 C729 1.391 . S
C728 C730 1.394 . S
C728 H744 0.931 . S
C729 C728 1.391 . S
C729 C733 1.376 . S
C730 C728 1.394 . S
C730 C731 1.369 . S
C730 C734 1.531 . S
C731 C730 1.369 . S
C731 C732 1.410 . S
C731 C739 1.503 . S
C732 C731 1.410 . S
C732 C733 1.392 . S
C732 C735 1.511 . S
C733 C729 1.376 . S
C733 C732 1.392 . S
C733 H745 0.929 . S
C734 C730 1.531 . S
C734 H746 0.960 . S
C734 H747 0.962 . S
C734 H748 0.960 . S
C735 C732 1.511 . S
C735 H749 0.961 . S
C735 H750 0.961 . S
C735 H751 0.961 . S
C736 C737 1.370 . S
C736 C738 1.363 . S
C736 H752 0.931 . S
C737 C736 1.370 . S
C737 C741 1.408 . S
C738 C736 1.363 . S
C738 C739 1.370 . S
C738 C742 1.524 . S
C739 C731 1.503 . S
C739 C738 1.370 . S
C739 C740 1.403 . S
C740 C739 1.403 . S
C740 C741 1.404 . S
C740 C743 1.539 . S
C741 C737 1.408 . S
C741 C740 1.404 . S
C741 H753 0.930 . S
C742 C738 1.524 . S
C742 H754 0.956 . S
C742 H755 0.961 . S
C742 H756 0.961 . S
C743 C740 1.539 . S
C743 H757 0.958 . S
C743 H758 0.961 . S
C743 H759 0.960 . S
H744 C728 0.931 . S
H745 C733 0.929 . S
H746 C734 0.960 . S
H747 C734 0.962 . S
H748 C734 0.960 . S
H749 C735 0.961 . S
H750 C735 0.961 . S
H751 C735 0.961 . S
H752 C736 0.931 . S
H753 C741 0.930 . S
H754 C742 0.956 . S
H755 C742 0.961 . S
H756 C742 0.961 . S
H757 C743 0.958 . S
H758 C743 0.961 . S
H759 C743 0.960 . S
C760 C761 1.391 . S
C760 C762 1.394 . S
C760 H776 0.931 . S
C761 C760 1.391 . S
C761 C765 1.376 . S
C762 C760 1.394 . S
C762 C763 1.369 . S
C762 C766 1.531 . S
C763 C762 1.369 . S
C763 C764 1.410 . S
C763 C771 1.503 . S
C764 C763 1.410 . S
C764 C765 1.392 . S
C764 C767 1.511 . S
C765 C761 1.376 . S
C765 C764 1.392 . S
C765 H777 0.929 . S
C766 C762 1.531 . S
C766 H778 0.960 . S
C766 H779 0.962 . S
C766 H780 0.960 . S
C767 C764 1.511 . S
C767 H781 0.961 . S
C767 H782 0.961 . S
C767 H783 0.961 . S
C768 C769 1.370 . S
C768 C770 1.363 . S
C768 H784 0.931 . S
C769 C768 1.370 . S
C769 C773 1.408 . S
C770 C768 1.363 . S
C770 C771 1.370 . S
C770 C774 1.524 . S
C771 C763 1.503 . S
C771 C770 1.370 . S
C771 C772 1.403 . S
C772 C771 1.403 . S
C772 C773 1.404 . S
C772 C775 1.539 . S
C773 C769 1.408 . S
C773 C772 1.404 . S
C773 H785 0.930 . S
C774 C770 1.524 . S
C774 H786 0.956 . S
C774 H787 0.961 . S
C774 H788 0.961 . S
C775 C772 1.539 . S
C775 H789 0.958 . S
C775 H790 0.961 . S
C775 H791 0.960 . S
H776 C760 0.931 . S
H777 C765 0.929 . S
H778 C766 0.960 . S
H779 C766 0.962 . S
H780 C766 0.960 . S
H781 C767 0.961 . S
H782 C767 0.961 . S
H783 C767 0.961 . S
H784 C768 0.931 . S
H785 C773 0.930 . S
H786 C774 0.956 . S
H787 C774 0.961 . S
H788 C774 0.961 . S
H789 C775 0.958 . S
H790 C775 0.961 . S
H791 C775 0.960 . S
C792 C793 1.391 . S
C792 C794 1.394 . S
C792 H808 0.931 . S
C793 C792 1.391 . S
C793 C797 1.376 . S
C794 C792 1.394 . S
C794 C795 1.369 . S
C794 C798 1.531 . S
C795 C794 1.369 . S
C795 C796 1.410 . S
C795 C803 1.503 . S
C796 C795 1.410 . S
C796 C797 1.392 . S
C796 C799 1.511 . S
C797 C793 1.376 . S
C797 C796 1.392 . S
C797 H809 0.929 . S
C798 C794 1.531 . S
C798 H810 0.960 . S
C798 H811 0.962 . S
C798 H812 0.960 . S
C799 C796 1.511 . S
C799 H813 0.961 . S
C799 H814 0.961 . S
C799 H815 0.961 . S
C800 C801 1.370 . S
C800 C802 1.363 . S
C800 H816 0.931 . S
C801 C800 1.370 . S
C801 C805 1.408 . S
C802 C800 1.363 . S
C802 C803 1.370 . S
C802 C806 1.524 . S
C803 C795 1.503 . S
C803 C802 1.370 . S
C803 C804 1.403 . S
C804 C803 1.403 . S
C804 C805 1.404 . S
C804 C807 1.539 . S
C805 C801 1.408 . S
C805 C804 1.404 . S
C805 H817 0.930 . S
C806 C802 1.524 . S
C806 H818 0.956 . S
C806 H819 0.961 . S
C806 H820 0.961 . S
C807 C804 1.539 . S
C807 H821 0.958 . S
C807 H822 0.961 . S
C807 H823 0.960 . S
H808 C792 0.931 . S
H809 C797 0.929 . S
H810 C798 0.960 . S
H811 C798 0.962 . S
H812 C798 0.960 . S
H813 C799 0.961 . S
H814 C799 0.961 . S
H815 C799 0.961 . S
H816 C800 0.931 . S
H817 C805 0.930 . S
H818 C806 0.956 . S
H819 C806 0.961 . S
H820 C806 0.961 . S
H821 C807 0.958 . S
H822 C807 0.961 . S
H823 C807 0.960 . S
C824 C825 1.391 . S
C824 C826 1.394 . S
C824 H840 0.931 . S
C825 C824 1.391 . S
C825 C829 1.376 . S
C826 C824 1.394 . S
C826 C827 1.369 . S
C826 C830 1.531 . S
C827 C826 1.369 . S
C827 C828 1.410 . S
C827 C835 1.503 . S
C828 C827 1.410 . S
C828 C829 1.392 . S
C828 C831 1.511 . S
C829 C825 1.376 . S
C829 C828 1.392 . S
C829 H841 0.929 . S
C830 C826 1.531 . S
C830 H842 0.960 . S
C830 H843 0.962 . S
C830 H844 0.960 . S
C831 C828 1.511 . S
C831 H845 0.961 . S
C831 H846 0.961 . S
C831 H847 0.961 . S
C832 C833 1.370 . S
C832 C834 1.363 . S
C832 H848 0.931 . S
C833 C832 1.370 . S
C833 C837 1.408 . S
C834 C832 1.363 . S
C834 C835 1.370 . S
C834 C838 1.524 . S
C835 C827 1.503 . S
C835 C834 1.370 . S
C835 C836 1.403 . S
C836 C835 1.403 . S
C836 C837 1.404 . S
C836 C839 1.539 . S
C837 C833 1.408 . S
C837 C836 1.404 . S
C837 H849 0.930 . S
C838 C834 1.524 . S
C838 H850 0.956 . S
C838 H851 0.961 . S
C838 H852 0.961 . S
C839 C836 1.539 . S
C839 H853 0.958 . S
C839 H854 0.961 . S
C839 H855 0.960 . S
H840 C824 0.931 . S
H841 C829 0.929 . S
H842 C830 0.960 . S
H843 C830 0.962 . S
H844 C830 0.960 . S
H845 C831 0.961 . S
H846 C831 0.961 . S
H847 C831 0.961 . S
H848 C832 0.931 . S
H849 C837 0.930 . S
H850 C838 0.956 . S
H851 C838 0.961 . S
H852 C838 0.961 . S
H853 C839 0.958 . S
H854 C839 0.961 . S
H855 C839 0.960 . S
C856 C857 1.391 . S
C856 C858 1.394 . S
C856 H872 0.931 . S
C857 C856 1.391 . S
C857 C861 1.376 . S
C858 C856 1.394 . S
C858 C859 1.369 . S
C858 C862 1.531 . S
C859 C858 1.369 . S
C859 C860 1.410 . S
C859 C867 1.503 . S
C860 C859 1.410 . S
C860 C861 1.392 . S
C860 C863 1.511 . S
C861 C857 1.376 . S
C861 C860 1.392 . S
C861 H873 0.929 . S
C862 C858 1.531 . S
C862 H874 0.960 . S
C862 H875 0.962 . S
C862 H876 0.960 . S
C863 C860 1.511 . S
C863 H877 0.961 . S
C863 H878 0.961 . S
C863 H879 0.961 . S
C864 C865 1.370 . S
C864 C866 1.363 . S
C864 H880 0.931 . S
C865 C864 1.370 . S
C865 C869 1.408 . S
C866 C864 1.363 . S
C866 C867 1.370 . S
C866 C870 1.524 . S
C867 C859 1.503 . S
C867 C866 1.370 . S
C867 C868 1.403 . S
C868 C867 1.403 . S
C868 C869 1.404 . S
C868 C871 1.539 . S
C869 C865 1.408 . S
C869 C868 1.404 . S
C869 H881 0.930 . S
C870 C866 1.524 . S
C870 H882 0.956 . S
C870 H883 0.961 . S
C870 H884 0.961 . S
C871 C868 1.539 . S
C871 H885 0.958 . S
C871 H886 0.961 . S
C871 H887 0.960 . S
H872 C856 0.931 . S
H873 C861 0.929 . S
H874 C862 0.960 . S
H875 C862 0.962 . S
H876 C862 0.960 . S
H877 C863 0.961 . S
H878 C863 0.961 . S
H879 C863 0.961 . S
H880 C864 0.931 . S
H881 C869 0.930 . S
H882 C870 0.956 . S
H883 C870 0.961 . S
H884 C870 0.961 . S
H885 C871 0.958 . S
H886 C871 0.961 . S
H887 C871 0.960 . S
C888 C889 1.391 . S
C888 C890 1.394 . S
C888 H904 0.931 . S
C889 C888 1.391 . S
C889 C893 1.376 . S
C890 C888 1.394 . S
C890 C891 1.369 . S
C890 C894 1.531 . S
C891 C890 1.369 . S
C891 C892 1.410 . S
C891 C899 1.503 . S
C892 C891 1.410 . S
C892 C893 1.392 . S
C892 C895 1.511 . S
C893 C889 1.376 . S
C893 C892 1.392 . S
C893 H905 0.929 . S
C894 C890 1.531 . S
C894 H906 0.960 . S
C894 H907 0.962 . S
C894 H908 0.960 . S
C895 C892 1.511 . S
C895 H909 0.961 . S
C895 H910 0.961 . S
C895 H911 0.961 . S
C896 C897 1.370 . S
C896 C898 1.363 . S
C896 H912 0.931 . S
C897 C896 1.370 . S
C897 C901 1.408 . S
C898 C896 1.363 . S
C898 C899 1.370 . S
C898 C902 1.524 . S
C899 C891 1.503 . S
C899 C898 1.370 . S
C899 C900 1.403 . S
C900 C899 1.403 . S
C900 C901 1.404 . S
C900 C903 1.539 . S
C901 C897 1.408 . S
C901 C900 1.404 . S
C901 H913 0.930 . S
C902 C898 1.524 . S
C902 H914 0.956 . S
C902 H915 0.961 . S
C902 H916 0.961 . S
C903 C900 1.539 . S
C903 H917 0.958 . S
C903 H918 0.961 . S
C903 H919 0.960 . S
H904 C888 0.931 . S
H905 C893 0.929 . S
H906 C894 0.960 . S
H907 C894 0.962 . S
H908 C894 0.960 . S
H909 C895 0.961 . S
H910 C895 0.961 . S
H911 C895 0.961 . S
H912 C896 0.931 . S
H913 C901 0.930 . S
H914 C902 0.956 . S
H915 C902 0.961 . S
H916 C902 0.961 . S
H917 C903 0.958 . S
H918 C903 0.961 . S
H919 C903 0.960 . S
C920 C921 1.391 . S
C920 C922 1.394 . S
C920 H936 0.931 . S
C921 C920 1.391 . S
C921 C925 1.376 . S
C922 C920 1.394 . S
C922 C923 1.369 . S
C922 C926 1.531 . S
C923 C922 1.369 . S
C923 C924 1.410 . S
C923 C931 1.503 . S
C924 C923 1.410 . S
C924 C925 1.392 . S
C924 C927 1.511 . S
C925 C921 1.376 . S
C925 C924 1.392 . S
C925 H937 0.929 . S
C926 C922 1.531 . S
C926 H938 0.960 . S
C926 H939 0.962 . S
C926 H940 0.960 . S
C927 C924 1.511 . S
C927 H941 0.961 . S
C927 H942 0.961 . S
C927 H943 0.961 . S
C928 C929 1.370 . S
C928 C930 1.363 . S
C928 H944 0.931 . S
C929 C928 1.370 . S
C929 C933 1.408 . S
C930 C928 1.363 . S
C930 C931 1.370 . S
C930 C934 1.524 . S
C931 C923 1.503 . S
C931 C930 1.370 . S
C931 C932 1.403 . S
C932 C931 1.403 . S
C932 C933 1.404 . S
C932 C935 1.539 . S
C933 C929 1.408 . S
C933 C932 1.404 . S
C933 H945 0.930 . S
C934 C930 1.524 . S
C934 H946 0.956 . S
C934 H947 0.961 . S
C934 H948 0.961 . S
C935 C932 1.539 . S
C935 H949 0.958 . S
C935 H950 0.961 . S
C935 H951 0.960 . S
H936 C920 0.931 . S
H937 C925 0.929 . S
H938 C926 0.960 . S
H939 C926 0.962 . S
H940 C926 0.960 . S
H941 C927 0.961 . S
H942 C927 0.961 . S
H943 C927 0.961 . S
H944 C928 0.931 . S
H945 C933 0.930 . S
H946 C934 0.956 . S
H947 C934 0.961 . S
H948 C934 0.961 . S
H949 C935 0.958 . S
H950 C935 0.961 . S
H951 C935 0.960 . S
C952 C953 1.391 . S
C952 C954 1.394 . S
C952 H968 0.931 . S
C953 C952 1.391 . S
C953 C957 1.376 . S
C954 C952 1.394 . S
C954 C955 1.369 . S
C954 C958 1.531 . S
C955 C954 1.369 . S
C955 C956 1.410 . S
C955 C963 1.503 . S
C956 C955 1.410 . S
C956 C957 1.392 . S
C956 C959 1.511 . S
C957 C953 1.376 . S
C957 C956 1.392 . S
C957 H969 0.929 . S
C958 C954 1.531 . S
C958 H970 0.960 . S
C958 H971 0.962 . S
C958 H972 0.960 . S
C959 C956 1.511 . S
C959 H973 0.961 . S
C959 H974 0.961 . S
C959 H975 0.961 . S
C960 C961 1.370 . S
C960 C962 1.363 . S
C960 H976 0.931 . S
C961 C960 1.370 . S
C961 C965 1.408 . S
C962 C960 1.363 . S
C962 C963 1.370 . S
C962 C966 1.524 . S
C963 C955 1.503 . S
C963 C962 1.370 . S
C963 C964 1.403 . S
C964 C963 1.403 . S
C964 C965 1.404 . S
C964 C967 1.539 . S
C965 C961 1.408 . S
C965 C964 1.404 . S
C965 H977 0.930 . S
C966 C962 1.524 . S
C966 H978 0.956 . S
C966 H979 0.961 . S
C966 H980 0.961 . S
C967 C964 1.539 . S
C967 H981 0.958 . S
C967 H982 0.961 . S
C967 H983 0.960 . S
H968 C952 0.931 . S
H969 C957 0.929 . S
H970 C958 0.960 . S
H971 C958 0.962 . S
H972 C958 0.960 . S
H973 C959 0.961 . S
H974 C959 0.961 . S
H975 C959 0.961 . S
H976 C960 0.931 . S
H977 C965 0.930 . S
H978 C966 0.956 . S
H979 C966 0.961 . S
H980 C966 0.961 . S
H981 C967 0.958 . S
H982 C967 0.961 . S
H983 C967 0.960 . S
C984 C985 1.391 . S
C984 C986 1.394 . S
C984 H1000 0.931 . S
C985 C984 1.391 . S
C985 C989 1.376 . S
C986 C984 1.394 . S
C986 C987 1.369 . S
C986 C990 1.531 . S
C987 C986 1.369 . S
C987 C988 1.410 . S
C987 C995 1.503 . S
C988 C987 1.410 . S
C988 C989 1.392 . S
C988 C991 1.511 . S
C989 C985 1.376 . S
C989 C988 1.392 . S
C989 H1001 0.929 . S
C990 C986 1.531 . S
C990 H1002 0.960 . S
C990 H1003 0.962 . S
C990 H1004 0.960 . S
C991 C988 1.511 . S
C991 H1005 0.961 . S
C991 H1006 0.961 . S
C991 H1007 0.961 . S
C992 C993 1.370 . S
C992 C994 1.363 . S
C992 H1008 0.931 . S
C993 C992 1.370 . S
C993 C997 1.408 . S
C994 C992 1.363 . S
C994 C995 1.370 . S
C994 C998 1.524 . S
C995 C987 1.503 . S
C995 C994 1.370 . S
C995 C996 1.403 . S
C996 C995 1.403 . S
C996 C997 1.404 . S
C996 C999 1.539 . S
C997 C993 1.408 . S
C997 C996 1.404 . S
C997 H1009 0.930 . S
C998 C994 1.524 . S
C998 H1010 0.956 . S
C998 H1011 0.961 . S
C998 H1012 0.961 . S
C999 C996 1.539 . S
C999 H1013 0.958 . S
C999 H1014 0.961 . S
C999 H1015 0.960 . S
H1000 C984 0.931 . S
H1001 C989 0.929 . S
H1002 C990 0.960 . S
H1003 C990 0.962 . S
H1004 C990 0.960 . S
H1005 C991 0.961 . S
H1006 C991 0.961 . S
H1007 C991 0.961 . S
H1008 C992 0.931 . S
H1009 C997 0.930 . S
H1010 C998 0.956 . S
H1011 C998 0.961 . S
H1012 C998 0.961 . S
H1013 C999 0.958 . S
H1014 C999 0.961 . S
H1015 C999 0.960 . S
C1016 C1017 1.391 . S
C1016 C1018 1.394 . S
C1016 H1032 0.931 . S
C1017 C1016 1.391 . S
C1017 C1021 1.376 . S
C1018 C1016 1.394 . S
C1018 C1019 1.369 . S
C1018 C1022 1.531 . S
C1019 C1018 1.369 . S
C1019 C1020 1.410 . S
C1019 C1027 1.503 . S
C1020 C1019 1.410 . S
C1020 C1021 1.392 . S
C1020 C1023 1.511 . S
C1021 C1017 1.376 . S
C1021 C1020 1.392 . S
C1021 H1033 0.929 . S
C1022 C1018 1.531 . S
C1022 H1034 0.960 . S
C1022 H1035 0.962 . S
C1022 H1036 0.960 . S
C1023 C1020 1.511 . S
C1023 H1037 0.961 . S
C1023 H1038 0.961 . S
C1023 H1039 0.961 . S
C1024 C1025 1.370 . S
C1024 C1026 1.363 . S
C1024 H1040 0.931 . S
C1025 C1024 1.370 . S
C1025 C1029 1.408 . S
C1026 C1024 1.363 . S
C1026 C1027 1.370 . S
C1026 C1030 1.524 . S
C1027 C1019 1.503 . S
C1027 C1026 1.370 . S
C1027 C1028 1.403 . S
C1028 C1027 1.403 . S
C1028 C1029 1.404 . S
C1028 C1031 1.539 . S
C1029 C1025 1.408 . S
C1029 C1028 1.404 . S
C1029 H1041 0.930 . S
C1030 C1026 1.524 . S
C1030 H1042 0.956 . S
C1030 H1043 0.961 . S
C1030 H1044 0.961 . S
C1031 C1028 1.539 . S
C1031 H1045 0.958 . S
C1031 H1046 0.961 . S
C1031 H1047 0.960 . S
H1032 C1016 0.931 . S
H1033 C1021 0.929 . S
H1034 C1022 0.960 . S
H1035 C1022 0.962 . S
H1036 C1022 0.960 . S
H1037 C1023 0.961 . S
H1038 C1023 0.961 . S
H1039 C1023 0.961 . S
H1040 C1024 0.931 . S
H1041 C1029 0.930 . S
H1042 C1030 0.956 . S
H1043 C1030 0.961 . S
H1044 C1030 0.961 . S
H1045 C1031 0.958 . S
H1046 C1031 0.961 . S
H1047 C1031 0.960 . S
C1048 C1049 1.391 . S
C1048 C1050 1.394 . S
C1048 H1064 0.931 . S
C1049 C1048 1.391 . S
C1049 C1053 1.376 . S
C1050 C1048 1.394 . S
C1050 C1051 1.369 . S
C1050 C1054 1.531 . S
C1051 C1050 1.369 . S
C1051 C1052 1.410 . S
C1051 C1059 1.503 . S
C1052 C1051 1.410 . S
C1052 C1053 1.392 . S
C1052 C1055 1.511 . S
C1053 C1049 1.376 . S
C1053 C1052 1.392 . S
C1053 H1065 0.929 . S
C1054 C1050 1.531 . S
C1054 H1066 0.960 . S
C1054 H1067 0.962 . S
C1054 H1068 0.960 . S
C1055 C1052 1.511 . S
C1055 H1069 0.961 . S
C1055 H1070 0.961 . S
C1055 H1071 0.961 . S
C1056 C1057 1.370 . S
C1056 C1058 1.363 . S
C1056 H1072 0.931 . S
C1057 C1056 1.370 . S
C1057 C1061 1.408 . S
C1058 C1056 1.363 . S
C1058 C1059 1.370 . S
C1058 C1062 1.524 . S
C1059 C1051 1.503 . S
C1059 C1058 1.370 . S
C1059 C1060 1.403 . S
C1060 C1059 1.403 . S
C1060 C1061 1.404 . S
C1060 C1063 1.539 . S
C1061 C1057 1.408 . S
C1061 C1060 1.404 . S
C1061 H1073 0.930 . S
C1062 C1058 1.524 . S
C1062 H1074 0.956 . S
C1062 H1075 0.961 . S
C1062 H1076 0.961 . S
C1063 C1060 1.539 . S
C1063 H1077 0.958 . S
C1063 H1078 0.961 . S
C1063 H1079 0.960 . S
H1064 C1048 0.931 . S
H1065 C1053 0.929 . S
H1066 C1054 0.960 . S
H1067 C1054 0.962 . S
H1068 C1054 0.960 . S
H1069 C1055 0.961 . S
H1070 C1055 0.961 . S
H1071 C1055 0.961 . S
H1072 C1056 0.931 . S
H1073 C1061 0.930 . S
H1074 C1062 0.956 . S
H1075 C1062 0.961 . S
H1076 C1062 0.961 . S
H1077 C1063 0.958 . S
H1078 C1063 0.961 . S
H1079 C1063 0.960 . S
C505 C483 1.351 . S
C513 C63 1.370 . S
C537 C56 1.310 . S
C545 C140 1.326 . S
C569 C147 1.359 . S
C577 C231 1.372 . S
C601 C224 1.314 . S
C609 C308 1.328 . S
C633 C399 1.370 . S
C641 C315 1.372 . S
C665 C476 1.306 . S
C673 C392 1.325 . S
C697 C58 1.137 . S
C705 C69 1.105 . S
C729 C153 1.144 1_556 S
C737 C142 1.101 . S
C761 C226 1.066 . S
C769 C237 1.128 1_554 S
C793 C321 1.161 . S
C801 C310 1.092 . S
C825 C405 1.115 . S
C833 C394 1.107 1_556 S
C857 C489 1.114 . S
C865 C478 1.115 . S
C889 C74 1.611 . S
C897 C403 1.629 . S
C921 C151 1.613 . S
C929 C494 1.622 . S
C953 C67 1.636 . S
C961 C242 1.630 . S
C985 C158 1.622 . S
C993 C319 1.626 . S
C1017 C410 1.610 . S
C1025 C235 1.628 . S
C1049 C326 1.620 . S
C1057 C487 1.632 . S
