# Generated by pormake.
# Topology upb, (4)-cn, num edge types: 1
# Building blocks:
#     Node 0, Type 0, BuildingBlock: GALJAG_clean_sbu_0, # of connection points: 4
#     Node 1, Type 0, BuildingBlock: GALJAG_clean_sbu_0, # of connection points: 4
#     Node 2, Type 0, BuildingBlock: GALJAG_clean_sbu_0, # of connection points: 4
#     Node 3, Type 0, BuildingBlock: GALJAG_clean_sbu_0, # of connection points: 4
#     Node 4, Type 0, BuildingBlock: GALJAG_clean_sbu_0, # of connection points: 4
#     Node 5, Type 0, BuildingBlock: GALJAG_clean_sbu_0, # of connection points: 4
#     Node 6, Type 0, BuildingBlock: GALJAG_clean_sbu_0, # of connection points: 4
#     Node 7, Type 0, BuildingBlock: GALJAG_clean_sbu_0, # of connection points: 4
#     Node 8, Type 0, BuildingBlock: GALJAG_clean_sbu_0, # of connection points: 4
#     Node 9, Type 0, BuildingBlock: GALJAG_clean_sbu_0, # of connection points: 4
#     Node 10, Type 0, BuildingBlock: GALJAG_clean_sbu_0, # of connection points: 4
#     Node 11, Type 0, BuildingBlock: GALJAG_clean_sbu_0, # of connection points: 4
#     Node 12, Type 0, BuildingBlock: GALJAG_clean_sbu_0, # of connection points: 4
#     Node 13, Type 0, BuildingBlock: GALJAG_clean_sbu_0, # of connection points: 4
#     Node 14, Type 0, BuildingBlock: GALJAG_clean_sbu_0, # of connection points: 4
#     Node 15, Type 0, BuildingBlock: GALJAG_clean_sbu_0, # of connection points: 4
#     Edge 16, Type (0, 0), BuildingBlock: KIFKEQ_clean_linker_1, # of connection points: 2
#     Edge 17, Type (0, 0), BuildingBlock: KIFKEQ_clean_linker_1, # of connection points: 2
#     Edge 18, Type (0, 0), BuildingBlock: KIFKEQ_clean_linker_1, # of connection points: 2
#     Edge 19, Type (0, 0), BuildingBlock: KIFKEQ_clean_linker_1, # of connection points: 2
#     Edge 20, Type (0, 0), BuildingBlock: KIFKEQ_clean_linker_1, # of connection points: 2
#     Edge 21, Type (0, 0), BuildingBlock: KIFKEQ_clean_linker_1, # of connection points: 2
#     Edge 22, Type (0, 0), BuildingBlock: KIFKEQ_clean_linker_1, # of connection points: 2
#     Edge 23, Type (0, 0), BuildingBlock: KIFKEQ_clean_linker_1, # of connection points: 2
#     Edge 24, Type (0, 0), BuildingBlock: KIFKEQ_clean_linker_1, # of connection points: 2
#     Edge 25, Type (0, 0), BuildingBlock: KIFKEQ_clean_linker_1, # of connection points: 2
#     Edge 26, Type (0, 0), BuildingBlock: KIFKEQ_clean_linker_1, # of connection points: 2
#     Edge 27, Type (0, 0), BuildingBlock: KIFKEQ_clean_linker_1, # of connection points: 2
#     Edge 28, Type (0, 0), BuildingBlock: KIFKEQ_clean_linker_1, # of connection points: 2
#     Edge 29, Type (0, 0), BuildingBlock: KIFKEQ_clean_linker_1, # of connection points: 2
#     Edge 30, Type (0, 0), BuildingBlock: KIFKEQ_clean_linker_1, # of connection points: 2
#     Edge 31, Type (0, 0), BuildingBlock: KIFKEQ_clean_linker_1, # of connection points: 2
#     Edge 32, Type (0, 0), BuildingBlock: KIFKEQ_clean_linker_1, # of connection points: 2
#     Edge 33, Type (0, 0), BuildingBlock: KIFKEQ_clean_linker_1, # of connection points: 2
#     Edge 34, Type (0, 0), BuildingBlock: KIFKEQ_clean_linker_1, # of connection points: 2
#     Edge 35, Type (0, 0), BuildingBlock: KIFKEQ_clean_linker_1, # of connection points: 2
#     Edge 36, Type (0, 0), BuildingBlock: KIFKEQ_clean_linker_1, # of connection points: 2
#     Edge 37, Type (0, 0), BuildingBlock: KIFKEQ_clean_linker_1, # of connection points: 2
#     Edge 38, Type (0, 0), BuildingBlock: KIFKEQ_clean_linker_1, # of connection points: 2
#     Edge 39, Type (0, 0), BuildingBlock: KIFKEQ_clean_linker_1, # of connection points: 2
#     Edge 40, Type (0, 0), BuildingBlock: KIFKEQ_clean_linker_1, # of connection points: 2
#     Edge 41, Type (0, 0), BuildingBlock: KIFKEQ_clean_linker_1, # of connection points: 2
#     Edge 42, Type (0, 0), BuildingBlock: KIFKEQ_clean_linker_1, # of connection points: 2
#     Edge 43, Type (0, 0), BuildingBlock: KIFKEQ_clean_linker_1, # of connection points: 2
#     Edge 44, Type (0, 0), BuildingBlock: KIFKEQ_clean_linker_1, # of connection points: 2
#     Edge 45, Type (0, 0), BuildingBlock: KIFKEQ_clean_linker_1, # of connection points: 2
#     Edge 46, Type (0, 0), BuildingBlock: KIFKEQ_clean_linker_1, # of connection points: 2
#     Edge 47, Type (0, 0), BuildingBlock: KIFKEQ_clean_linker_1, # of connection points: 2
# Relax obj value: 0.253
# Max RMSD: 0.089
# Mean RMSD: 0.089
data_MOF--net-upb--node1-GALJAG_clean_sbu_0--edge1-KIFKEQ_clean_linker_1
_symmetry_space_group_name_H-M    P1
_symmetry_Int_Tables_number       1
_symmetry_cell_setting            triclinic
loop_
_symmetry_equiv_pos_as_xyz
'x, y, z'
_cell_length_a     44.940372
_cell_length_b     45.037464
_cell_length_c     37.047443
_cell_angle_alpha  89.912065
_cell_angle_beta   89.942498
_cell_angle_gamma 89.987412
loop_
_atom_site_label
_atom_site_type_symbol
_atom_site_fract_x
_atom_site_fract_y
_atom_site_fract_z
_atom_type_partial_charge
In0 In 0.05126 0.22797 0.29284 0.0
O1 O 0.09185 0.20139 0.31001 0.0
O2 O 0.08406 0.20602 0.25374 0.0
C3 C 0.03496 0.22846 0.36279 0.0
C4 C 0.06644 0.28397 0.27323 0.0
C5 C 0.0044 0.1976 0.26605 0.0
O6 O 0.06117 0.22257 0.35276 0.0
O7 O 0.01704 0.23433 0.33754 0.0
O8 O 0.00474 0.22562 0.26728 0.0
O9 O 0.02786 0.18532 0.27719 0.0
C10 C 0.10022 0.19529 0.27837 0.0
O11 O 0.06077 0.26404 0.25041 0.0
O12 O 0.0636 0.27587 0.30552 0.0
In13 In 0.77279 0.03956 0.29391 0.0
O14 O 0.82074 0.0534 0.30268 0.0
O15 O 0.79664 0.07621 0.26185 0.0
C16 C 0.77275 0.026 0.36494 0.0
C17 C 0.72129 0.06806 0.27898 0.0
C18 C 0.78152 0.98732 0.25994 0.0
O19 O 0.7778 0.05189 0.35344 0.0
O20 O 0.76759 0.0071 0.3407 0.0
O21 O 0.759 0.99228 0.27942 0.0
O22 O 0.79869 0.00925 0.25609 0.0
C23 C 0.82092 0.07323 0.27862 0.0
O24 O 0.73341 0.05064 0.25676 0.0
O25 O 0.73509 0.07094 0.30828 0.0
In26 In 0.94305 0.77258 0.30276 0.0
O27 O 0.94075 0.73269 0.26417 0.0
O28 O 0.91915 0.72961 0.315 0.0
C29 C 0.99018 0.80425 0.27956 0.0
C30 C 0.89619 0.80539 0.28096 0.0
C31 C 0.96024 0.76835 0.37205 0.0
O32 O 0.98815 0.77662 0.27397 0.0
O33 O 0.96834 0.81553 0.29591 0.0
O34 O 0.93622 0.7807 0.36274 0.0
O35 O 0.97551 0.75793 0.3464 0.0
C36 C 0.92505 0.71728 0.2854 0.0
O37 O 0.90139 0.79967 0.3137 0.0
O38 O 0.91448 0.79421 0.25896 0.0
In39 In 0.22253 0.96085 0.2963 0.0
O40 O 0.26108 0.9505 0.25712 0.0
O41 O 0.25805 0.9266 0.30643 0.0
C42 C 0.22166 0.01609 0.26793 0.0
C43 C 0.17583 0.9259 0.27812 0.0
C44 C 0.21892 0.97085 0.36797 0.0
O45 O 0.23418 0.01002 0.29748 0.0
O46 O 0.21127 0.99388 0.25144 0.0
O47 O 0.19604 0.96888 0.34843 0.0
O48 O 0.24319 0.968 0.35136 0.0
C49 C 0.27216 0.9309 0.27756 0.0
O50 O 0.17517 0.95378 0.27561 0.0
O51 O 0.20005 0.91557 0.28969 0.0
In52 In 0.04625 0.76914 0.69985 0.0
O53 O 0.08505 0.79908 0.6857 0.0
O54 O 0.07476 0.79367 0.74141 0.0
C55 C 0.02818 0.76747 0.63059 0.0
C56 C 0.07068 0.71584 0.71554 0.0
C57 C 0.99603 0.7928 0.72772 0.0
O58 O 0.0496 0.78339 0.64101 0.0
O59 O 0.01585 0.75239 0.65512 0.0
O60 O -0.00032 0.76511 0.72475 0.0
O61 O 0.01796 0.80823 0.71779 0.0
C62 C 0.09129 0.80564 0.71792 0.0
O63 O 0.05507 0.72984 0.73818 0.0
O64 O 0.07333 0.72849 0.68543 0.0
In65 In 0.22654 0.03913 0.70188 0.0
O66 O 0.19667 0.07775 0.68618 0.0
O67 O 0.19921 0.06667 0.74186 0.0
C68 C 0.22258 0.02303 0.63205 0.0
C69 C 0.2793 0.06439 0.71801 0.0
C70 C 0.21296 0.98617 0.73192 0.0
O71 O 0.19992 0.02567 0.65192 0.0
O72 O 0.247 0.02832 0.64747 0.0
O73 O 0.19735 0.00913 0.73636 0.0
O74 O 0.23632 0.9902 0.71363 0.0
C75 C 0.18821 0.08332 0.71791 0.0
O76 O 0.26792 0.04462 0.73792 0.0
O77 O 0.26402 0.07119 0.69081 0.0
In78 In 0.95483 0.22695 0.69351 0.0
O79 O 0.94507 0.26448 0.73371 0.0
O80 O 0.92891 0.26881 0.68025 0.0
C81 C 0.00573 0.2049 0.7213 0.0
C82 C 0.91033 0.18994 0.71233 0.0
C83 C 0.97212 0.22675 0.62381 0.0
O84 O 0.00205 0.23236 0.71605 0.0
O85 O 0.98365 0.18898 0.71337 0.0
O86 O 0.95207 0.20975 0.63577 0.0
O87 O 0.98339 0.24386 0.64699 0.0
C88 C 0.93054 0.27985 0.71134 0.0
O89 O 0.91391 0.1993 0.68048 0.0
O90 O 0.92901 0.19959 0.73489 0.0
In91 In 0.77251 0.95351 0.69801 0.0
O92 O 0.80033 0.91245 0.68671 0.0
O93 O 0.80074 0.92946 0.74025 0.0
C94 C 0.77383 0.97002 0.62802 0.0
C95 C 0.71934 0.92892 0.71468 0.0
C96 C 0.793 0.00529 0.72481 0.0
O97 O 0.79158 0.95115 0.64102 0.0
O98 O 0.7554 0.98052 0.65028 0.0
O99 O 0.76568 0.00094 0.71891 0.0
O100 O 0.80954 0.98335 0.71825 0.0
C101 C 0.81031 0.91015 0.71842 0.0
O102 O 0.73222 0.92528 0.68486 0.0
O103 O 0.73318 0.94532 0.73656 0.0
In104 In 0.55399 0.72125 0.80323 0.0
O105 O 0.55545 0.7622 0.76586 0.0
O106 O 0.57996 0.76289 0.81485 0.0
C107 C 0.5064 0.68885 0.7832 0.0
C108 C 0.60047 0.68868 0.7798 0.0
C109 C 0.53787 0.72718 0.87263 0.0
O110 O 0.50916 0.71576 0.77384 0.0
O111 O 0.52777 0.67869 0.80143 0.0
O112 O 0.5606 0.7127 0.86303 0.0
O113 O 0.5233 0.73886 0.84715 0.0
C114 C 0.57286 0.77638 0.78637 0.0
O115 O 0.59588 0.69427 0.81269 0.0
O116 O 0.58162 0.69971 0.75839 0.0
In117 In 0.27214 0.53268 0.79358 0.0
O118 O 0.32208 0.53973 0.78935 0.0
O119 O 0.29415 0.57578 0.77421 0.0
C120 C 0.27449 0.5192 0.86475 0.0
C121 C 0.22107 0.56168 0.77817 0.0
C122 C 0.27842 0.48087 0.75772 0.0
O123 O 0.28616 0.54235 0.85186 0.0
O124 O 0.26172 0.50301 0.84186 0.0
O125 O 0.25879 0.48487 0.78156 0.0
O126 O 0.29367 0.50361 0.7504 0.0
C127 C 0.32034 0.56608 0.77793 0.0
O128 O 0.23451 0.54613 0.755 0.0
O129 O 0.23333 0.56241 0.80867 0.0
In130 In 0.44476 0.27088 0.79856 0.0
O131 O 0.44233 0.23026 0.7611 0.0
O132 O 0.42323 0.22715 0.81333 0.0
C133 C 0.49164 0.30189 0.77329 0.0
C134 C 0.39696 0.30215 0.77639 0.0
C135 C 0.46138 0.27063 0.86831 0.0
O136 O 0.49076 0.27386 0.77172 0.0
O137 O 0.46875 0.31383 0.78658 0.0
O138 O 0.43689 0.28132 0.85786 0.0
O139 O 0.47745 0.25993 0.84358 0.0
C140 C 0.42825 0.21458 0.78366 0.0
O141 O 0.40256 0.29708 0.80918 0.0
O142 O 0.41535 0.29106 0.75443 0.0
In143 In 0.72505 0.45877 0.79154 0.0
O144 O 0.76827 0.45154 0.75975 0.0
O145 O 0.75583 0.4195 0.79916 0.0
C146 C 0.71933 0.51073 0.75591 0.0
C147 C 0.67739 0.42335 0.78042 0.0
C148 C 0.72598 0.47502 0.86169 0.0
O149 O 0.73924 0.50635 0.77933 0.0
O150 O 0.70364 0.48825 0.74887 0.0
O151 O 0.70678 0.48441 0.83971 0.0
O152 O 0.74492 0.45754 0.84831 0.0
C153 C 0.77457 0.42759 0.77582 0.0
O154 O 0.68137 0.43802 0.8089 0.0
O155 O 0.69769 0.42623 0.75714 0.0
In156 In 0.5416 0.27057 0.19843 0.0
O157 O 0.5816 0.29919 0.18474 0.0
O158 O 0.56728 0.2985 0.23949 0.0
C159 C 0.52422 0.27106 0.12883 0.0
C160 C 0.56702 0.21791 0.21512 0.0
C161 C 0.49005 0.291 0.22635 0.0
O162 O 0.54447 0.28779 0.14068 0.0
O163 O 0.51274 0.25406 0.15207 0.0
O164 O 0.49461 0.26369 0.22107 0.0
O165 O 0.51169 0.30762 0.21861 0.0
C166 C 0.58545 0.30855 0.21648 0.0
O167 O 0.5521 0.2325 0.23786 0.0
O168 O 0.56851 0.22963 0.18436 0.0
In169 In 0.72254 0.54501 0.1958 0.0
O170 O 0.69313 0.58464 0.18281 0.0
O171 O 0.69874 0.57327 0.23815 0.0
C172 C 0.72234 0.52956 0.12547 0.0
C173 C 0.77545 0.5695 0.21244 0.0
C174 C 0.70358 0.49302 0.22432 0.0
O175 O 0.6993 0.53873 0.14145 0.0
O176 O 0.74525 0.52809 0.14498 0.0
O177 O 0.72992 0.49669 0.2134 0.0
O178 O 0.68737 0.51574 0.22198 0.0
C179 C 0.68688 0.5904 0.21529 0.0
O180 O 0.76352 0.55001 0.23232 0.0
O181 O 0.76065 0.57637 0.18483 0.0
In182 In 0.46017 0.73286 0.20344 0.0
O183 O 0.44403 0.68638 0.19129 0.0
O184 O 0.42216 0.70961 0.23368 0.0
C185 C 0.47553 0.73512 0.13318 0.0
C186 C 0.43103 0.78393 0.21824 0.0
C187 C 0.51152 0.7189 0.23759 0.0
O188 O 0.45092 0.72482 0.14377 0.0
O189 O 0.49228 0.74441 0.15799 0.0
O190 O 0.50849 0.74231 0.21921 0.0
O191 O 0.48813 0.70372 0.24068 0.0
C192 C 0.42407 0.68608 0.21526 0.0
O193 O 0.44745 0.77133 0.24127 0.0
O194 O 0.42968 0.77091 0.18831 0.0
In195 In 0.271 0.45405 0.20008 0.0
O196 O 0.29443 0.41024 0.18824 0.0
O197 O 0.2973 0.42736 0.24155 0.0
C198 C 0.27295 0.4679 0.1294 0.0
C199 C 0.21518 0.43756 0.21925 0.0
C200 C 0.29956 0.50266 0.22463 0.0
O201 O 0.28258 0.44354 0.14164 0.0
O202 O 0.26217 0.48518 0.15282 0.0
O203 O 0.27147 0.50126 0.22389 0.0
O204 O 0.31266 0.4796 0.21385 0.0
C205 C 0.30472 0.40719 0.21972 0.0
O206 O 0.23466 0.4444 0.24222 0.0
O207 O 0.2236 0.43991 0.18702 0.0
H208 H 0.11955 0.17427 0.21305 0.0
H209 H 0.13744 0.17026 0.32746 0.0
H210 H 0.15695 0.13575 0.20254 0.0
H211 H 0.174 0.13156 0.31727 0.0
H212 H 0.24347 0.0672 0.29704 0.0
H213 H 0.22085 0.1163 0.29306 0.0
H214 H 0.15829 0.08315 0.21428 0.0
H215 H 0.18161 0.03448 0.21736 0.0
C216 C 0.13178 0.16547 0.23587 0.0
C217 C 0.12538 0.17503 0.27112 0.0
C218 C 0.15311 0.14334 0.22987 0.0
C219 C 0.16845 0.13042 0.25903 0.0
C220 C 0.16304 0.14124 0.29405 0.0
C221 C 0.14181 0.16329 0.29999 0.0
C222 C 0.22553 0.07071 0.27798 0.0
C223 C 0.21396 0.04691 0.25798 0.0
C224 C 0.2124 0.09878 0.27591 0.0
C225 C 0.18723 0.1035 0.25409 0.0
C226 C 0.17764 0.0804 0.23135 0.0
C227 C 0.19098 0.0524 0.23318 0.0
H228 H 0.94716 0.21745 0.25822 0.0
H229 H 0.00114 0.13816 0.25473 0.0
H230 H 0.90216 0.18694 0.25563 0.0
H231 H 0.9564 0.10782 0.25141 0.0
H232 H 0.87566 0.06691 0.30836 0.0
H233 H 0.91961 0.09709 0.2981 0.0
H234 H 0.87098 0.15074 0.22146 0.0
H235 H 0.82647 0.12043 0.23213 0.0
C236 C 0.9494 0.19358 0.25593 0.0
C237 C 0.9776 0.18013 0.25718 0.0
C238 C 0.92366 0.17612 0.25438 0.0
C239 C 0.92575 0.14495 0.25398 0.0
C240 C 0.95406 0.13174 0.25252 0.0
C241 C 0.97969 0.14913 0.25422 0.0
C242 C 0.87431 0.08503 0.28917 0.0
C243 C 0.84762 0.09132 0.27108 0.0
C244 C 0.8996 0.1022 0.28305 0.0
C245 C 0.89887 0.12616 0.25871 0.0
C246 C 0.87218 0.13247 0.24044 0.0
C247 C 0.84678 0.11509 0.24645 0.0
H248 H 0.83015 0.97112 0.22069 0.0
H249 H 0.75343 0.93514 0.2758 0.0
H250 H 0.85203 0.92179 0.21781 0.0
H251 H 0.77518 0.88554 0.27242 0.0
H252 H 0.85201 0.82794 0.32288 0.0
H253 H 0.81776 0.8678 0.30774 0.0
H254 H 0.85205 0.86946 0.19874 0.0
H255 H 0.88673 0.82951 0.21414 0.0
C256 C 0.81749 0.9525 0.23108 0.0
C257 C 0.79036 0.95705 0.24908 0.0
C258 C 0.82998 0.92415 0.22927 0.0
C259 C 0.81556 0.89984 0.24548 0.0
C260 C 0.78703 0.90397 0.26027 0.0
C261 C 0.77451 0.93234 0.262 0.0
C262 C 0.85185 0.83639 0.29548 0.0
C263 C 0.87229 0.82592 0.26983 0.0
C264 C 0.832 0.85908 0.28667 0.0
C265 C 0.83226 0.8719 0.25204 0.0
C266 C 0.85152 0.86018 0.22572 0.0
C267 C 0.87129 0.83729 0.23451 0.0
H268 H 0.04306 0.78498 0.25083 0.0
H269 H 0.9977 0.86345 0.28905 0.0
H270 H 0.08871 0.81398 0.24299 0.0
H271 H 0.04306 0.89204 0.28223 0.0
H272 H 0.12292 0.94307 0.2489 0.0
H273 H 0.07824 0.91307 0.24109 0.0
H274 H 0.12496 0.83649 0.28287 0.0
H275 H 0.16986 0.86634 0.28957 0.0
C276 C 0.04277 0.80845 0.25714 0.0
C277 C 0.01689 0.82192 0.27072 0.0
C278 C 0.06892 0.82502 0.2529 0.0
C279 C 0.0696 0.85532 0.26212 0.0
C280 C 0.0433 0.8689 0.27434 0.0
C281 C 0.01728 0.85242 0.27852 0.0
C282 C 0.12372 0.91973 0.25596 0.0
C283 C 0.14975 0.9071 0.27021 0.0
C284 C 0.0981 0.90256 0.25162 0.0
C285 C 0.09789 0.87244 0.26172 0.0
C286 C 0.12438 0.85953 0.27448 0.0
C287 C 0.15007 0.87668 0.27859 0.0
H288 H 0.10237 0.83204 0.78306 0.0
H289 H 0.13331 0.828 0.67276 0.0
H290 H 0.13773 0.87216 0.79525 0.0
H291 H 0.16827 0.86795 0.68475 0.0
H292 H 0.2372 0.93251 0.71423 0.0
H293 H 0.21277 0.88417 0.71814 0.0
H294 H 0.13886 0.92444 0.7744 0.0
H295 H 0.16338 0.97255 0.7709 0.0
C296 C 0.11705 0.83939 0.76163 0.0
C297 C 0.11491 0.82715 0.72687 0.0
C298 C 0.13721 0.86236 0.76858 0.0
C299 C 0.15576 0.87324 0.74097 0.0
C300 C 0.15461 0.85983 0.70676 0.0
C301 C 0.13436 0.83711 0.69978 0.0
C302 C 0.21615 0.93085 0.72835 0.0
C303 C 0.20197 0.95635 0.74178 0.0
C304 C 0.20209 0.90322 0.7304 0.0
C305 C 0.17369 0.90059 0.74606 0.0
C306 C 0.16078 0.92566 0.76231 0.0
C307 C 0.17478 0.95329 0.76014 0.0
H308 H 0.15496 0.08963 0.77919 0.0
H309 H 0.17029 0.12829 0.67403 0.0
H310 H 0.11298 0.12351 0.78846 0.0
H311 H 0.12869 0.1622 0.68344 0.0
H312 H 0.0609 0.23004 0.71663 0.0
H313 H 0.1088 0.20456 0.72296 0.0
H314 H 0.06305 0.12445 0.75507 0.0
H315 H 0.01536 0.14971 0.74842 0.0
C316 C 0.14973 0.10575 0.75841 0.0
C317 C 0.16563 0.10619 0.72575 0.0
C318 C 0.12573 0.12506 0.7637 0.0
C319 C 0.11762 0.14543 0.73666 0.0
C320 C 0.13465 0.14695 0.7049 0.0
C321 C 0.1583 0.12739 0.6994 0.0
C322 C 0.06118 0.20722 0.72591 0.0
C323 C 0.03449 0.19172 0.73174 0.0
C324 C 0.08853 0.19264 0.72936 0.0
C325 C 0.08957 0.16253 0.73932 0.0
C326 C 0.06293 0.14773 0.74765 0.0
C327 C 0.03563 0.16213 0.74364 0.0
H328 H 0.90592 0.15763 0.77451 0.0
H329 H 0.86411 0.17106 0.67083 0.0
H330 H 0.87297 0.11543 0.78604 0.0
H331 H 0.83122 0.12903 0.68238 0.0
H332 H 0.84814 0.01711 0.751 0.0
H333 H 0.8722 0.06545 0.75526 0.0
H334 H 0.7905 0.10812 0.72246 0.0
H335 H 0.76626 0.05952 0.71836 0.0
C336 C 0.88931 0.15193 0.75452 0.0
C337 C 0.88775 0.1674 0.72161 0.0
C338 C 0.87053 0.12777 0.76109 0.0
C339 C 0.84962 0.11891 0.73506 0.0
C340 C 0.8469 0.13553 0.7031 0.0
C341 C 0.86588 0.15945 0.69637 0.0
C342 C 0.83511 0.03685 0.74555 0.0
C343 C 0.80543 0.0346 0.73406 0.0
C344 C 0.84884 0.06455 0.74818 0.0
C345 C 0.83326 0.09051 0.73895 0.0
C346 C 0.80305 0.0884 0.72948 0.0
C347 C 0.78917 0.06065 0.72732 0.0
H348 H 0.84647 0.91027 0.77765 0.0
H349 H 0.82698 0.86127 0.68038 0.0
H350 H 0.88972 0.87841 0.78849 0.0
H351 H 0.86994 0.82941 0.69135 0.0
H352 H 0.98599 0.85009 0.74726 0.0
H353 H 0.93802 0.875 0.75275 0.0
H354 H 0.89303 0.79168 0.73436 0.0
H355 H 0.94121 0.76662 0.72911 0.0
C356 C 0.85105 0.89231 0.75904 0.0
C357 C 0.83354 0.88836 0.72802 0.0
C358 C 0.87583 0.87418 0.76519 0.0
C359 C 0.8832 0.8515 0.74073 0.0
C360 C 0.86463 0.8465 0.71087 0.0
C361 C 0.84015 0.86487 0.70446 0.0
C362 C 0.96586 0.83697 0.74523 0.0
C363 C 0.96729 0.80648 0.73752 0.0
C364 C 0.9384 0.8512 0.74856 0.0
C365 C 0.91181 0.83529 0.74378 0.0
C366 C 0.91321 0.80448 0.73795 0.0
C367 C 0.94074 0.79014 0.73513 0.0
H368 H 0.64531 0.66639 0.82071 0.0
H369 H 0.61011 0.66588 0.71229 0.0
H370 H 0.68072 0.62805 0.8043 0.0
H371 H 0.64613 0.62752 0.69548 0.0
H372 H 0.67197 0.52637 0.71412 0.0
H373 H 0.64888 0.57513 0.71165 0.0
H374 H 0.72353 0.61233 0.76943 0.0
H375 H 0.74631 0.56323 0.7727 0.0
C376 C 0.64559 0.6585 0.79311 0.0
C377 C 0.62469 0.66881 0.76792 0.0
C378 C 0.66614 0.63669 0.78353 0.0
C379 C 0.66625 0.62463 0.74854 0.0
C380 C 0.64643 0.63619 0.72272 0.0
C381 C 0.62587 0.65818 0.73231 0.0
C382 C 0.68394 0.54511 0.72525 0.0
C383 C 0.7106 0.54088 0.74435 0.0
C384 C 0.67074 0.57316 0.72371 0.0
C385 C 0.68404 0.59749 0.74112 0.0
C386 C 0.7124 0.59385 0.75651 0.0
C387 C 0.72556 0.56576 0.75817 0.0
H388 H 0.45651 0.70386 0.74413 0.0
H389 H 0.49563 0.63301 0.80684 0.0
H390 H 0.41134 0.67405 0.73632 0.0
H391 H 0.45071 0.60403 0.80047 0.0
H392 H 0.37669 0.5466 0.76646 0.0
H393 H 0.4217 0.5762 0.76062 0.0
H394 H 0.36945 0.65647 0.77011 0.0
H395 H 0.32418 0.62659 0.77406 0.0
C396 C 0.45551 0.68192 0.75606 0.0
C397 C 0.47962 0.67076 0.77601 0.0
C398 C 0.42959 0.66491 0.75183 0.0
C399 C 0.42732 0.63652 0.76764 0.0
C400 C 0.45174 0.62543 0.78715 0.0
C401 C 0.47754 0.64221 0.79108 0.0
C402 C 0.37482 0.57058 0.76685 0.0
C403 C 0.34704 0.58432 0.77113 0.0
C404 C 0.40064 0.5876 0.76372 0.0
C405 C 0.39937 0.61879 0.76558 0.0
C406 C 0.37133 0.63255 0.7683 0.0
C407 C 0.34538 0.61546 0.7708 0.0
H408 H 0.25147 0.42818 0.77378 0.0
H409 H 0.32587 0.46575 0.71566 0.0
H410 H 0.27398 0.37904 0.76923 0.0
H411 H 0.34867 0.41688 0.71185 0.0
H412 H 0.38655 0.32574 0.7094 0.0
H413 H 0.35064 0.36464 0.69402 0.0
H414 H 0.31698 0.36237 0.80332 0.0
H415 H 0.35233 0.32356 0.81835 0.0
C416 C 0.27219 0.42581 0.7591 0.0
C417 C 0.28722 0.45087 0.74572 0.0
C418 C 0.28518 0.39769 0.75669 0.0
C419 C 0.31345 0.39416 0.74096 0.0
C420 C 0.32687 0.41876 0.72411 0.0
C421 C 0.31384 0.44686 0.72642 0.0
C422 C 0.37097 0.33315 0.72982 0.0
C423 C 0.37244 0.32193 0.76519 0.0
C424 C 0.3505 0.35545 0.72105 0.0
C425 C 0.33102 0.36672 0.74745 0.0
C426 C 0.33132 0.354 0.78214 0.0
C427 C 0.35182 0.3319 0.79091 0.0
H428 H 0.62827 0.42163 0.82273 0.0
H429 H 0.66595 0.38378 0.72581 0.0
H430 H 0.58345 0.39229 0.81432 0.0
H431 H 0.62064 0.35401 0.71747 0.0
H432 H 0.54741 0.28179 0.75546 0.0
H433 H 0.59309 0.31148 0.75208 0.0
H434 H 0.54165 0.39127 0.76867 0.0
H435 H 0.49631 0.3619 0.77216 0.0
C436 C 0.62696 0.40702 0.79958 0.0
C437 C 0.65057 0.40503 0.77488 0.0
C438 C 0.6012 0.39036 0.79465 0.0
C439 C 0.59848 0.37113 0.76504 0.0
C440 C 0.62222 0.36872 0.74049 0.0
C441 C 0.64802 0.38575 0.74522 0.0
C442 C 0.54586 0.30573 0.75757 0.0
C443 C 0.51839 0.31951 0.76458 0.0
C444 C 0.57195 0.32268 0.75557 0.0
C445 C 0.57087 0.35358 0.76071 0.0
C446 C 0.54314 0.36743 0.76525 0.0
C447 C 0.51719 0.35059 0.76713 0.0
H448 H 0.72946 0.43858 0.21564 0.0
H449 H 0.64965 0.48138 0.25456 0.0
H450 H 0.70509 0.39021 0.22111 0.0
H451 H 0.62534 0.43325 0.25987 0.0
H452 H 0.63074 0.32762 0.17365 0.0
H453 H 0.66377 0.36958 0.18399 0.0
H454 H 0.62404 0.38322 0.28889 0.0
H455 H 0.59077 0.34106 0.27843 0.0
C456 C 0.70699 0.43759 0.22618 0.0
C457 C 0.69132 0.46373 0.2343 0.0
C458 C 0.69301 0.40995 0.22913 0.0
C459 C 0.66323 0.40798 0.24059 0.0
C460 C 0.64836 0.43399 0.25122 0.0
C461 C 0.66223 0.4616 0.24798 0.0
C462 C 0.62939 0.33924 0.19918 0.0
C463 C 0.608 0.33128 0.22509 0.0
C464 C 0.64849 0.36314 0.20523 0.0
C465 C 0.64645 0.37975 0.23722 0.0
C466 C 0.62597 0.37093 0.26388 0.0
C467 C 0.60701 0.34678 0.25795 0.0
H468 H 0.52338 0.66854 0.27586 0.0
H469 H 0.56614 0.74134 0.22027 0.0
H470 H 0.57041 0.64167 0.27719 0.0
H471 H 0.61334 0.71451 0.22191 0.0
H472 H 0.66451 0.6336 0.17176 0.0
H473 H 0.62615 0.66983 0.18619 0.0
H474 H 0.6234 0.63759 0.29603 0.0
H475 H 0.66194 0.60106 0.28144 0.0
C476 C 0.54305 0.67923 0.265 0.0
C477 C 0.54099 0.70684 0.24747 0.0
C478 C 0.57005 0.66385 0.26585 0.0
C479 C 0.59545 0.67577 0.24907 0.0
C480 C 0.59399 0.70458 0.23451 0.0
C481 C 0.56701 0.72003 0.23383 0.0
C482 C 0.65605 0.63451 0.19912 0.0
C483 C 0.66601 0.61434 0.22538 0.0
C484 C 0.63425 0.65547 0.20751 0.0
C485 C 0.62176 0.6566 0.24229 0.0
C486 C 0.63253 0.63714 0.26896 0.0
C487 C 0.65459 0.61629 0.26063 0.0
H488 H 0.42896 0.63235 0.18305 0.0
H489 H 0.3761 0.68062 0.2608 0.0
H490 H 0.39802 0.58877 0.19195 0.0
H491 H 0.34489 0.63646 0.26991 0.0
H492 H 0.27841 0.5596 0.23082 0.0
H493 H 0.3083 0.60511 0.23358 0.0
H494 H 0.3883 0.55227 0.24053 0.0
H495 H 0.35871 0.50714 0.23726 0.0
C496 C 0.41075 0.63361 0.20218 0.0
C497 C 0.40498 0.65987 0.22129 0.0
C498 C 0.39314 0.60855 0.20748 0.0
C499 C 0.36924 0.60911 0.23194 0.0
C500 C 0.36318 0.63545 0.25089 0.0
C501 C 0.38106 0.66061 0.24576 0.0
C502 C 0.30233 0.55781 0.23374 0.0
C503 C 0.31631 0.5299 0.23328 0.0
C504 C 0.3194 0.58381 0.23537 0.0
C505 C 0.35064 0.58218 0.23658 0.0
C506 C 0.36431 0.55419 0.23881 0.0
C507 C 0.34735 0.52836 0.23709 0.0
H508 H 0.33822 0.40293 0.28087 0.0
H509 H 0.32134 0.35961 0.17897 0.0
H510 H 0.38067 0.37006 0.29112 0.0
H511 H 0.36371 0.3268 0.18926 0.0
H512 H 0.43592 0.26352 0.2228 0.0
H513 H 0.38699 0.28704 0.22873 0.0
H514 H 0.42945 0.36966 0.2576 0.0
H515 H 0.47809 0.34632 0.2515 0.0
C516 C 0.34316 0.38595 0.26107 0.0
C517 C 0.32671 0.38403 0.22891 0.0
C518 C 0.36749 0.36722 0.2669 0.0
C519 C 0.3756 0.34604 0.24088 0.0
C520 C 0.35785 0.34275 0.20994 0.0
C521 C 0.3337 0.36166 0.20393 0.0
C522 C 0.43469 0.2865 0.23127 0.0
C523 C 0.46074 0.3032 0.23643 0.0
C524 C 0.40675 0.29996 0.23448 0.0
C525 C 0.40444 0.33019 0.24346 0.0
C526 C 0.43049 0.34627 0.25098 0.0
C527 C 0.45836 0.33295 0.24729 0.0
H528 H 0.08828 0.30133 0.20788 0.0
H529 H 0.07426 0.33187 0.31699 0.0
H530 H 0.11857 0.34488 0.19541 0.0
H531 H 0.10363 0.37619 0.30423 0.0
H532 H 0.19798 0.41597 0.28479 0.0
H533 H 0.15541 0.38421 0.29718 0.0
H534 H 0.12449 0.39676 0.1877 0.0
H535 H 0.16786 0.4276 0.17505 0.0
C536 C 0.09094 0.31784 0.22886 0.0
C537 C 0.0793 0.31303 0.26352 0.0
C538 C 0.10821 0.34296 0.2217 0.0
C539 C 0.11392 0.36395 0.24899 0.0
C540 C 0.10027 0.36017 0.28285 0.0
C541 C 0.08327 0.33488 0.2901 0.0
C542 C 0.18173 0.41247 0.26364 0.0
C543 C 0.18642 0.42387 0.22885 0.0
C544 C 0.15717 0.39435 0.27074 0.0
C545 C 0.13665 0.38753 0.24326 0.0
C546 C 0.1402 0.40096 0.20924 0.0
C547 C 0.16493 0.4188 0.20206 0.0
H548 H 0.68571 0.06428 0.21927 0.0
H549 H 0.69541 0.11029 0.32079 0.0
H550 H 0.64291 0.09549 0.20451 0.0
H551 H 0.65358 0.14206 0.30566 0.0
H552 H 0.5688 0.18831 0.27971 0.0
H553 H 0.60136 0.14691 0.29589 0.0
H554 H 0.63642 0.14598 0.18716 0.0
H555 H 0.6033 0.18636 0.17087 0.0
C556 C 0.67858 0.08095 0.23848 0.0
C557 C 0.69402 0.08507 0.27099 0.0
C558 C 0.65416 0.0989 0.23001 0.0
C559 C 0.64488 0.12144 0.25379 0.0
C560 C 0.65975 0.12469 0.28692 0.0
C561 C 0.68396 0.10664 0.29546 0.0
C562 C 0.58311 0.17883 0.2592 0.0
C563 C 0.58374 0.19072 0.22416 0.0
C564 C 0.60188 0.15525 0.26847 0.0
C565 C 0.62175 0.14328 0.24293 0.0
C566 C 0.62121 0.15433 0.20744 0.0
C567 C 0.60236 0.1777 0.19815 0.0
H568 H 0.80323 0.61218 0.17326 0.0
H569 H 0.81131 0.56087 0.27136 0.0
H570 H 0.846 0.64168 0.19045 0.0
H571 H 0.85507 0.59 0.28828 0.0
H572 H 0.89116 0.68164 0.32783 0.0
H573 H 0.86085 0.63994 0.30903 0.0
H574 H 0.89826 0.64572 0.20168 0.0
H575 H 0.92807 0.68841 0.22044 0.0
C576 C 0.81455 0.60683 0.19824 0.0
C577 C 0.80366 0.58454 0.22127 0.0
C578 C 0.83935 0.62356 0.20793 0.0
C579 C 0.85397 0.61833 0.24084 0.0
C580 C 0.84405 0.59487 0.26297 0.0
C581 C 0.81907 0.57814 0.25329 0.0
C582 C 0.89335 0.67369 0.30037 0.0
C583 C 0.91155 0.6886 0.2754 0.0
C584 C 0.87613 0.64955 0.28964 0.0
C585 C 0.87681 0.63967 0.2537 0.0
C586 C 0.89682 0.65317 0.22941 0.0
C587 C 0.91401 0.67748 0.24016 0.0
H588 H 0.30726 0.93435 0.21696 0.0
H589 H 0.29795 0.88845 0.31884 0.0
H590 H 0.35057 0.9035 0.20254 0.0
H591 H 0.34031 0.85741 0.30423 0.0
H592 H 0.4276 0.81522 0.2814 0.0
H593 H 0.39325 0.85567 0.29552 0.0
H594 H 0.35866 0.85207 0.18678 0.0
H595 H 0.39343 0.81247 0.17251 0.0
C596 C 0.31454 0.9178 0.23627 0.0
C597 C 0.29913 0.91366 0.26886 0.0
C598 C 0.33925 0.9001 0.22803 0.0
C599 C 0.34893 0.87799 0.25227 0.0
C600 C 0.33386 0.87453 0.28522 0.0
C601 C 0.30933 0.89216 0.29343 0.0
C602 C 0.41297 0.82346 0.26043 0.0
C603 C 0.41293 0.8105 0.22602 0.0
C604 C 0.39321 0.84651 0.26851 0.0
C605 C 0.37299 0.8569 0.24237 0.0
C606 C 0.37409 0.84486 0.20745 0.0
C607 C 0.39388 0.82195 0.19936 0.0
H608 H 0.19377 0.60189 0.8216 0.0
H609 H 0.18772 0.56108 0.71645 0.0
H610 H 0.15286 0.63482 0.80644 0.0
H611 H 0.14576 0.59333 0.7016 0.0
H612 H 0.06994 0.6839 0.77857 0.0
H613 H 0.1014 0.64145 0.79404 0.0
H614 H 0.14034 0.64429 0.68729 0.0
H615 H 0.1083 0.68562 0.67164 0.0
C616 C 0.18328 0.5996 0.79544 0.0
C617 C 0.19416 0.5792 0.77001 0.0
C618 C 0.15959 0.61832 0.78684 0.0
C619 C 0.14603 0.61689 0.7527 0.0
C620 C 0.15603 0.59541 0.72791 0.0
C621 C 0.17997 0.57684 0.73642 0.0
C622 C 0.08488 0.67503 0.75831 0.0
C623 C 0.08687 0.68821 0.72405 0.0
C624 C 0.10303 0.65085 0.76719 0.0
C625 C 0.12364 0.63957 0.74202 0.0
C626 C 0.12452 0.65203 0.70724 0.0
C627 C 0.10628 0.67596 0.69833 0.0
H628 H 0.43097 0.1842 0.71975 0.0
H629 H 0.39591 0.17918 0.82819 0.0
H630 H 0.4016 0.14066 0.70309 0.0
H631 H 0.36593 0.13666 0.81143 0.0
H632 H 0.31581 0.05685 0.77667 0.0
H633 H 0.35973 0.08637 0.79209 0.0
H634 H 0.34935 0.13633 0.69313 0.0
H635 H 0.30648 0.1065 0.67747 0.0
C636 C 0.41741 0.17348 0.74015 0.0
C637 C 0.4153 0.18536 0.77505 0.0
C638 C 0.40047 0.14867 0.73061 0.0
C639 C 0.38099 0.13546 0.75575 0.0
C640 C 0.38078 0.14604 0.7914 0.0
C641 C 0.39782 0.17066 0.80096 0.0
C642 C 0.32332 0.07383 0.75805 0.0
C643 C 0.30753 0.07967 0.72615 0.0
C644 C 0.3484 0.09077 0.76686 0.0
C645 C 0.35801 0.11385 0.74395 0.0
C646 C 0.34297 0.11851 0.7112 0.0
C647 C 0.31809 0.10159 0.70239 0.0
H648 H 0.92395 0.3042 0.77843 0.0
H649 H 0.8995 0.31637 0.66664 0.0
H650 H 0.89039 0.34454 0.79554 0.0
H651 H 0.86571 0.35618 0.68371 0.0
H652 H 0.81648 0.43734 0.72338 0.0
H653 H 0.85957 0.40618 0.70913 0.0
H654 H 0.83594 0.34696 0.79645 0.0
H655 H 0.79342 0.3781 0.81087 0.0
C656 C 0.91179 0.31581 0.75749 0.0
C657 C 0.91405 0.30696 0.72128 0.0
C658 C 0.89247 0.33877 0.76727 0.0
C659 C 0.87517 0.35331 0.741 0.0
C660 C 0.87888 0.3456 0.70456 0.0
C661 C 0.8981 0.32264 0.69481 0.0
C662 C 0.82074 0.4178 0.73967 0.0
C663 C 0.8015 0.40999 0.76803 0.0
C664 C 0.84533 0.39997 0.7315 0.0
C665 C 0.85118 0.37414 0.75171 0.0
C666 C 0.83236 0.36693 0.78072 0.0
C667 C 0.8078 0.38463 0.78876 0.0
H668 H 0.68625 0.93311 0.77659 0.0
H669 H 0.6896 0.88919 0.67312 0.0
H670 H 0.64356 0.90254 0.79369 0.0
H671 H 0.64797 0.85801 0.6905 0.0
H672 H 0.56763 0.80799 0.72324 0.0
H673 H 0.59679 0.85151 0.70538 0.0
H674 H 0.639 0.85191 0.81022 0.0
H675 H 0.60935 0.80954 0.8282 0.0
C676 C 0.67768 0.91714 0.75741 0.0
C677 C 0.69147 0.91324 0.72375 0.0
C678 C 0.65331 0.89955 0.7672 0.0
C679 C 0.64248 0.87755 0.74364 0.0
C680 C 0.65537 0.87491 0.70921 0.0
C681 C 0.67951 0.89262 0.69935 0.0
C682 C 0.58267 0.81789 0.74263 0.0
C683 C 0.58652 0.80516 0.7769 0.0
C684 C 0.5995 0.84268 0.73238 0.0
C685 C 0.62053 0.85505 0.7562 0.0
C686 C 0.62286 0.84331 0.79124 0.0
C687 C 0.60601 0.81874 0.80147 0.0
H688 H 0.07059 0.22245 0.4219 0.0
H689 H 0.97887 0.23404 0.39001 0.0
H690 H 0.05547 0.2218 0.48528 0.0
H691 H 0.9638 0.23346 0.45337 0.0
H692 H 0.94691 0.19665 0.56783 0.0
H693 H 0.96232 0.19698 0.50456 0.0
H694 H 0.0339 0.25725 0.53046 0.0
H695 H 0.01857 0.25687 0.59374 0.0
C696 C 0.04723 0.2249 0.42846 0.0
C697 C 0.0259 0.22831 0.40107 0.0
C698 C 0.0386 0.22466 0.4647 0.0
C699 C 0.00847 0.22756 0.47421 0.0
C700 C 0.98714 0.23088 0.44678 0.0
C701 C 0.99579 0.23138 0.41057 0.0
C702 C 0.96594 0.20994 0.55999 0.0
C703 C 0.98153 0.22676 0.58565 0.0
C704 C 0.97466 0.21024 0.52378 0.0
C705 C 0.99928 0.22717 0.51263 0.0
C706 C 0.015 0.2438 0.53837 0.0
C707 C 0.00613 0.2437 0.57452 0.0
H708 H 0.74223 0.01447 0.59592 0.0
H709 H 0.80659 0.94557 0.57373 0.0
H710 H 0.74238 0.02851 0.53218 0.0
H711 H 0.80675 0.95966 0.51003 0.0
H712 H 0.76947 0.97082 0.39471 0.0
H713 H 0.77027 0.95777 0.45867 0.0
H714 H 0.77772 0.05058 0.48643 0.0
H715 H 0.77689 0.06369 0.42235 0.0
C716 C 0.75645 0.00239 0.57743 0.0
C717 C 0.77435 0.97889 0.5897 0.0
C718 C 0.75664 0.01053 0.54103 0.0
C719 C 0.77453 0.99513 0.51621 0.0
C720 C 0.79252 0.97171 0.52855 0.0
C721 C 0.79253 0.96375 0.56499 0.0
C722 C 0.77127 0.98843 0.41447 0.0
C723 C 0.77311 0.01827 0.40361 0.0
C724 C 0.7719 0.98095 0.45103 0.0
C725 C 0.77411 0.00317 0.47745 0.0
C726 C 0.77577 0.03303 0.46661 0.0
C727 C 0.77543 0.04051 0.42999 0.0
H728 H 0.97763 0.74239 0.60383 0.0
H729 H 0.05656 0.79054 0.57191 0.0
H730 H 0.96108 0.74145 0.54098 0.0
H731 H 0.04003 0.78946 0.50911 0.0
H732 H 0.01468 0.75178 0.39746 0.0
H733 H 0.03124 0.7506 0.46029 0.0
H734 H 0.94436 0.7801 0.4949 0.0
H735 H 0.92779 0.78141 0.43212 0.0
C736 C 0.99145 0.75269 0.58337 0.0
C737 C 0.01834 0.76658 0.59268 0.0
C738 C 0.98192 0.75225 0.5475 0.0
C739 C 0.99931 0.76536 0.52028 0.0
C740 C 0.02636 0.77896 0.52956 0.0
C741 C 0.0357 0.77972 0.56548 0.0
C742 C 0.99911 0.7579 0.41852 0.0
C743 C 0.96998 0.76673 0.40998 0.0
C744 C 0.00863 0.75736 0.45438 0.0
C745 C 0.98907 0.76529 0.48235 0.0
C746 C 0.95979 0.77366 0.47384 0.0
C747 C 0.95038 0.77454 0.43795 0.0
H748 H 0.17503 4e-05 0.59558 0.0
H749 H 0.26634 0.02773 0.58194 0.0
H750 H 0.17306 0.98563 0.53204 0.0
H751 H 0.2641 0.01475 0.51843 0.0
H752 H 0.26326 0.96227 0.41631 0.0
H753 H 0.26293 0.97319 0.48047 0.0
H754 H 0.1722 0.00452 0.47194 0.0
H755 H 0.17223 0.9921 0.40771 0.0
C756 C 0.19458 0.00323 0.57889 0.0
C757 C 0.22089 0.0148 0.59365 0.0
C758 C 0.19342 0.99515 0.54247 0.0
C759 C 0.21848 -0.00118 0.52008 0.0
C760 C 0.2446 0.0109 0.53496 0.0
C761 C 0.24585 0.01855 0.57136 0.0
C762 C 0.2432 0.97134 0.4282 0.0
C763 C 0.21783 0.97652 0.40708 0.0
C764 C 0.24305 0.97782 0.46496 0.0
C765 C 0.21768 0.99016 0.48138 0.0
C766 C 0.19204 0.99479 0.46029 0.0
C767 C 0.19207 0.98785 0.42349 0.0
H768 H 0.48707 0.75205 0.89935 0.0
H769 H 0.56834 0.70828 0.93185 0.0
H770 H 0.47179 0.75548 0.96255 0.0
H771 H 0.55299 0.71158 0.9949 0.0
H772 H 0.52931 0.75087 0.10512 0.0
H773 H 0.54437 0.75044 0.04179 0.0
H774 H 0.45673 0.72006 0.01152 0.0
H775 H 0.44158 0.72063 0.07486 0.0
C776 C 0.50167 0.74324 0.92 0.0
C777 C 0.52887 0.72988 0.91075 0.0
C778 C 0.49287 0.74507 0.9561 0.0
C779 C 0.51122 0.7338 0.98357 0.0
C780 C 0.53856 0.72074 0.97429 0.0
C781 C 0.54725 0.71871 0.93821 0.0
C782 C 0.51324 0.74422 0.08492 0.0
C783 C 0.4843 0.73572 0.09486 0.0
C784 C 0.5219 0.74384 0.04873 0.0
C785 C 0.50173 0.73516 0.0218 0.0
C786 C 0.47264 0.72711 0.03171 0.0
C787 C 0.46403 0.72729 0.06794 0.0
H788 H 0.25506 0.46837 0.89683 0.0
H789 H 0.29581 0.55307 0.92006 0.0
H790 H 0.25551 0.45609 0.96098 0.0
H791 H 0.29643 0.54068 0.98434 0.0
H792 H 0.25797 0.52055 0.09786 0.0
H793 H 0.25931 0.53304 0.0337 0.0
H794 H 0.29213 0.44513 0.00953 0.0
H795 H 0.29062 0.43256 0.07366 0.0
C796 C 0.2642 0.48432 0.91565 0.0
C797 C 0.27536 0.51169 0.9035 0.0
C798 C 0.26461 0.47722 0.95234 0.0
C799 C 0.27601 0.49743 0.97764 0.0
C800 C 0.28725 0.5248 0.96546 0.0
C801 C 0.28703 0.53182 0.9287 0.0
C802 C 0.2655 0.50392 0.07883 0.0
C803 C 0.27411 0.47556 0.0907 0.0
C804 C 0.26643 0.51113 0.04216 0.0
C805 C 0.27581 0.49005 0.01664 0.0
C806 C 0.28452 0.46172 0.02857 0.0
C807 C 0.28378 0.45457 0.06526 0.0
H808 H 0.55197 0.29792 0.07211 0.0
H809 H 0.47538 0.24449 0.09968 0.0
H810 H 0.53667 0.29776 0.00879 0.0
H811 H 0.46002 0.24453 0.03638 0.0
H812 H 0.42707 0.2831 0.92703 0.0
H813 H 0.44225 0.28324 0.99039 0.0
H814 H 0.53147 0.25865 0.959 0.0
H815 H 0.51628 0.2583 0.89565 0.0
C816 C 0.53186 0.2862 0.06462 0.0
C817 C 0.51486 0.2712 0.09072 0.0
C818 C 0.52321 0.286 0.02843 0.0
C819 C 0.4972 0.27112 0.0178 0.0
C820 C 0.48006 0.25634 0.04396 0.0
C821 C 0.48892 0.25621 0.08008 0.0
C822 C 0.4499 0.27771 0.9337 0.0
C823 C 0.47051 0.27067 0.9065 0.0
C824 C 0.45853 0.27766 0.9699 0.0
C825 C 0.48801 0.27096 0.97948 0.0
C826 C 0.50866 0.26411 0.95226 0.0
C827 C 0.49994 0.26377 0.91609 0.0
H828 H 0.76041 0.45231 0.91562 0.0
H829 H 0.69106 0.51641 0.89454 0.0
H830 H 0.75906 0.46501 0.97954 0.0
H831 H 0.69036 0.52992 0.95821 0.0
H832 H 0.67499 0.52469 0.07976 0.0
H833 H 0.67588 0.51113 0.01602 0.0
H834 H 0.77175 0.50387 0.02031 0.0
H835 H 0.77066 0.51638 0.0842 0.0
C836 C 0.74506 0.4693 0.92465 0.0
C837 C 0.72583 0.48335 0.90017 0.0
C838 C 0.74437 0.47671 0.96123 0.0
C839 C 0.72459 0.4985 0.97406 0.0
C840 C 0.70552 0.5127 0.94939 0.0
C841 C 0.70606 0.50512 0.91286 0.0
C842 C 0.69621 0.52012 0.06702 0.0
C843 C 0.72274 0.52151 0.08691 0.0
C844 C 0.69677 0.51254 0.03046 0.0
C845 C 0.7239 0.50642 0.01299 0.0
C846 C 0.75042 0.50795 0.033 0.0
C847 C 0.74983 0.5153 0.06958 0.0
loop_
_geom_bond_atom_site_label_1
_geom_bond_atom_site_label_2
_geom_bond_distance
_geom_bond_site_symmetry_2
_ccdc_geom_bond_type
In0 O1 2.294 . S
In0 O2 2.326 . S
In0 O6 2.266 . S
In0 O7 2.326 . S
In0 O8 2.266 1_455 S
In0 O9 2.326 . S
In0 O11 2.294 . S
In0 O12 2.326 . S
O1 In0 2.294 . S
O1 C10 1.240 . S
O2 In0 2.326 . S
O2 C10 1.252 . S
C3 O6 1.252 . S
C3 O7 1.260 . S
C4 O11 1.240 . S
C4 O12 1.252 . S
C5 O8 1.252 . S
C5 O9 1.260 1_655 S
O6 In0 2.266 . S
O6 C3 1.252 . S
O7 In0 2.326 . S
O7 C3 1.260 . S
O8 In0 2.266 1_655 S
O8 C5 1.252 . S
O9 In0 2.326 . S
O9 C5 1.260 1_455 S
C10 O1 1.240 . S
C10 O2 1.252 . S
O11 In0 2.294 . S
O11 C4 1.240 . S
O12 In0 2.326 . S
O12 C4 1.252 . S
In13 O14 2.294 . S
In13 O15 2.326 . S
In13 O19 2.266 . S
In13 O20 2.326 . S
In13 O21 2.266 1_545 S
In13 O22 2.326 . S
In13 O24 2.294 . S
In13 O25 2.326 . S
O14 In13 2.294 . S
O14 C23 1.240 . S
O15 In13 2.326 . S
O15 C23 1.252 . S
C16 O19 1.252 . S
C16 O20 1.260 . S
C17 O24 1.240 . S
C17 O25 1.252 . S
C18 O21 1.252 . S
C18 O22 1.260 1_565 S
O19 In13 2.266 . S
O19 C16 1.252 . S
O20 In13 2.326 . S
O20 C16 1.260 . S
O21 In13 2.266 1_565 S
O21 C18 1.252 . S
O22 In13 2.326 . S
O22 C18 1.260 1_545 S
C23 O14 1.240 . S
C23 O15 1.252 . S
O24 In13 2.294 . S
O24 C17 1.240 . S
O25 In13 2.326 . S
O25 C17 1.252 . S
In26 O27 2.294 . S
In26 O28 2.326 . S
In26 O32 2.266 1_655 S
In26 O33 2.326 . S
In26 O34 2.266 . S
In26 O35 2.326 . S
In26 O37 2.294 . S
In26 O38 2.326 . S
O27 In26 2.294 . S
O27 C36 1.240 . S
O28 In26 2.326 . S
O28 C36 1.252 . S
C29 O32 1.252 . S
C29 O33 1.260 1_455 S
C30 O37 1.240 . S
C30 O38 1.252 . S
C31 O34 1.252 . S
C31 O35 1.260 . S
O32 In26 2.266 1_455 S
O32 C29 1.252 . S
O33 In26 2.326 . S
O33 C29 1.260 1_655 S
O34 In26 2.266 . S
O34 C31 1.252 . S
O35 In26 2.326 . S
O35 C31 1.260 . S
C36 O27 1.240 . S
C36 O28 1.252 . S
O37 In26 2.294 . S
O37 C30 1.240 . S
O38 In26 2.326 . S
O38 C30 1.252 . S
In39 O40 2.294 . S
In39 O41 2.326 . S
In39 O45 2.266 1_565 S
In39 O46 2.326 . S
In39 O47 2.266 . S
In39 O48 2.326 . S
In39 O50 2.294 . S
In39 O51 2.326 . S
O40 In39 2.294 . S
O40 C49 1.240 . S
O41 In39 2.326 . S
O41 C49 1.252 . S
C42 O45 1.252 . S
C42 O46 1.260 1_545 S
C43 O50 1.240 . S
C43 O51 1.252 . S
C44 O47 1.252 . S
C44 O48 1.260 . S
O45 In39 2.266 1_545 S
O45 C42 1.252 . S
O46 In39 2.326 . S
O46 C42 1.260 1_565 S
O47 In39 2.266 . S
O47 C44 1.252 . S
O48 In39 2.326 . S
O48 C44 1.260 . S
C49 O40 1.240 . S
C49 O41 1.252 . S
O50 In39 2.294 . S
O50 C43 1.240 . S
O51 In39 2.326 . S
O51 C43 1.252 . S
In52 O53 2.294 . S
In52 O54 2.326 . S
In52 O58 2.266 . S
In52 O59 2.326 . S
In52 O60 2.266 1_455 S
In52 O61 2.326 . S
In52 O63 2.294 . S
In52 O64 2.326 . S
O53 In52 2.294 . S
O53 C62 1.240 . S
O54 In52 2.326 . S
O54 C62 1.252 . S
C55 O58 1.252 . S
C55 O59 1.260 . S
C56 O63 1.240 . S
C56 O64 1.252 . S
C57 O60 1.252 . S
C57 O61 1.260 1_655 S
O58 In52 2.266 . S
O58 C55 1.252 . S
O59 In52 2.326 . S
O59 C55 1.260 . S
O60 In52 2.266 1_655 S
O60 C57 1.252 . S
O61 In52 2.326 . S
O61 C57 1.260 1_455 S
C62 O53 1.240 . S
C62 O54 1.252 . S
O63 In52 2.294 . S
O63 C56 1.240 . S
O64 In52 2.326 . S
O64 C56 1.252 . S
In65 O66 2.294 . S
In65 O67 2.326 . S
In65 O71 2.266 . S
In65 O72 2.326 . S
In65 O73 2.266 1_545 S
In65 O74 2.326 . S
In65 O76 2.294 . S
In65 O77 2.326 . S
O66 In65 2.294 . S
O66 C75 1.240 . S
O67 In65 2.326 . S
O67 C75 1.252 . S
C68 O71 1.252 . S
C68 O72 1.260 . S
C69 O76 1.240 . S
C69 O77 1.252 . S
C70 O73 1.252 . S
C70 O74 1.260 1_565 S
O71 In65 2.266 . S
O71 C68 1.252 . S
O72 In65 2.326 . S
O72 C68 1.260 . S
O73 In65 2.266 1_565 S
O73 C70 1.252 . S
O74 In65 2.326 . S
O74 C70 1.260 1_545 S
C75 O66 1.240 . S
C75 O67 1.252 . S
O76 In65 2.294 . S
O76 C69 1.240 . S
O77 In65 2.326 . S
O77 C69 1.252 . S
In78 O79 2.294 . S
In78 O80 2.326 . S
In78 O84 2.266 1_655 S
In78 O85 2.326 . S
In78 O86 2.266 . S
In78 O87 2.326 . S
In78 O89 2.294 . S
In78 O90 2.326 . S
O79 In78 2.294 . S
O79 C88 1.240 . S
O80 In78 2.326 . S
O80 C88 1.252 . S
C81 O84 1.252 . S
C81 O85 1.260 1_455 S
C82 O89 1.240 . S
C82 O90 1.252 . S
C83 O86 1.252 . S
C83 O87 1.260 . S
O84 In78 2.266 1_455 S
O84 C81 1.252 . S
O85 In78 2.326 . S
O85 C81 1.260 1_655 S
O86 In78 2.266 . S
O86 C83 1.252 . S
O87 In78 2.326 . S
O87 C83 1.260 . S
C88 O79 1.240 . S
C88 O80 1.252 . S
O89 In78 2.294 . S
O89 C82 1.240 . S
O90 In78 2.326 . S
O90 C82 1.252 . S
In91 O92 2.294 . S
In91 O93 2.326 . S
In91 O97 2.266 . S
In91 O98 2.326 . S
In91 O99 2.266 1_565 S
In91 O100 2.326 . S
In91 O102 2.294 . S
In91 O103 2.326 . S
O92 In91 2.294 . S
O92 C101 1.240 . S
O93 In91 2.326 . S
O93 C101 1.252 . S
C94 O97 1.252 . S
C94 O98 1.260 . S
C95 O102 1.240 . S
C95 O103 1.252 . S
C96 O99 1.252 . S
C96 O100 1.260 1_545 S
O97 In91 2.266 . S
O97 C94 1.252 . S
O98 In91 2.326 . S
O98 C94 1.260 . S
O99 In91 2.266 1_545 S
O99 C96 1.252 . S
O100 In91 2.326 . S
O100 C96 1.260 1_565 S
C101 O92 1.240 . S
C101 O93 1.252 . S
O102 In91 2.294 . S
O102 C95 1.240 . S
O103 In91 2.326 . S
O103 C95 1.252 . S
In104 O105 2.294 . S
In104 O106 2.326 . S
In104 O110 2.266 . S
In104 O111 2.326 . S
In104 O112 2.266 . S
In104 O113 2.326 . S
In104 O115 2.294 . S
In104 O116 2.326 . S
O105 In104 2.294 . S
O105 C114 1.240 . S
O106 In104 2.326 . S
O106 C114 1.252 . S
C107 O110 1.252 . S
C107 O111 1.260 . S
C108 O115 1.240 . S
C108 O116 1.252 . S
C109 O112 1.252 . S
C109 O113 1.260 . S
O110 In104 2.266 . S
O110 C107 1.252 . S
O111 In104 2.326 . S
O111 C107 1.260 . S
O112 In104 2.266 . S
O112 C109 1.252 . S
O113 In104 2.326 . S
O113 C109 1.260 . S
C114 O105 1.240 . S
C114 O106 1.252 . S
O115 In104 2.294 . S
O115 C108 1.240 . S
O116 In104 2.326 . S
O116 C108 1.252 . S
In117 O118 2.294 . S
In117 O119 2.326 . S
In117 O123 2.266 . S
In117 O124 2.326 . S
In117 O125 2.266 . S
In117 O126 2.326 . S
In117 O128 2.294 . S
In117 O129 2.326 . S
O118 In117 2.294 . S
O118 C127 1.240 . S
O119 In117 2.326 . S
O119 C127 1.252 . S
C120 O123 1.252 . S
C120 O124 1.260 . S
C121 O128 1.240 . S
C121 O129 1.252 . S
C122 O125 1.252 . S
C122 O126 1.260 . S
O123 In117 2.266 . S
O123 C120 1.252 . S
O124 In117 2.326 . S
O124 C120 1.260 . S
O125 In117 2.266 . S
O125 C122 1.252 . S
O126 In117 2.326 . S
O126 C122 1.260 . S
C127 O118 1.240 . S
C127 O119 1.252 . S
O128 In117 2.294 . S
O128 C121 1.240 . S
O129 In117 2.326 . S
O129 C121 1.252 . S
In130 O131 2.294 . S
In130 O132 2.326 . S
In130 O136 2.266 . S
In130 O137 2.326 . S
In130 O138 2.266 . S
In130 O139 2.326 . S
In130 O141 2.294 . S
In130 O142 2.326 . S
O131 In130 2.294 . S
O131 C140 1.240 . S
O132 In130 2.326 . S
O132 C140 1.252 . S
C133 O136 1.252 . S
C133 O137 1.260 . S
C134 O141 1.240 . S
C134 O142 1.252 . S
C135 O138 1.252 . S
C135 O139 1.260 . S
O136 In130 2.266 . S
O136 C133 1.252 . S
O137 In130 2.326 . S
O137 C133 1.260 . S
O138 In130 2.266 . S
O138 C135 1.252 . S
O139 In130 2.326 . S
O139 C135 1.260 . S
C140 O131 1.240 . S
C140 O132 1.252 . S
O141 In130 2.294 . S
O141 C134 1.240 . S
O142 In130 2.326 . S
O142 C134 1.252 . S
In143 O144 2.294 . S
In143 O145 2.326 . S
In143 O149 2.266 . S
In143 O150 2.326 . S
In143 O151 2.266 . S
In143 O152 2.326 . S
In143 O154 2.294 . S
In143 O155 2.326 . S
O144 In143 2.294 . S
O144 C153 1.240 . S
O145 In143 2.326 . S
O145 C153 1.252 . S
C146 O149 1.252 . S
C146 O150 1.260 . S
C147 O154 1.240 . S
C147 O155 1.252 . S
C148 O151 1.252 . S
C148 O152 1.260 . S
O149 In143 2.266 . S
O149 C146 1.252 . S
O150 In143 2.326 . S
O150 C146 1.260 . S
O151 In143 2.266 . S
O151 C148 1.252 . S
O152 In143 2.326 . S
O152 C148 1.260 . S
C153 O144 1.240 . S
C153 O145 1.252 . S
O154 In143 2.294 . S
O154 C147 1.240 . S
O155 In143 2.326 . S
O155 C147 1.252 . S
In156 O157 2.294 . S
In156 O158 2.326 . S
In156 O162 2.266 . S
In156 O163 2.326 . S
In156 O164 2.266 . S
In156 O165 2.326 . S
In156 O167 2.294 . S
In156 O168 2.326 . S
O157 In156 2.294 . S
O157 C166 1.240 . S
O158 In156 2.326 . S
O158 C166 1.252 . S
C159 O162 1.252 . S
C159 O163 1.260 . S
C160 O167 1.240 . S
C160 O168 1.252 . S
C161 O164 1.252 . S
C161 O165 1.260 . S
O162 In156 2.266 . S
O162 C159 1.252 . S
O163 In156 2.326 . S
O163 C159 1.260 . S
O164 In156 2.266 . S
O164 C161 1.252 . S
O165 In156 2.326 . S
O165 C161 1.260 . S
C166 O157 1.240 . S
C166 O158 1.252 . S
O167 In156 2.294 . S
O167 C160 1.240 . S
O168 In156 2.326 . S
O168 C160 1.252 . S
In169 O170 2.294 . S
In169 O171 2.326 . S
In169 O175 2.266 . S
In169 O176 2.326 . S
In169 O177 2.266 . S
In169 O178 2.326 . S
In169 O180 2.294 . S
In169 O181 2.326 . S
O170 In169 2.294 . S
O170 C179 1.240 . S
O171 In169 2.326 . S
O171 C179 1.252 . S
C172 O175 1.252 . S
C172 O176 1.260 . S
C173 O180 1.240 . S
C173 O181 1.252 . S
C174 O177 1.252 . S
C174 O178 1.260 . S
O175 In169 2.266 . S
O175 C172 1.252 . S
O176 In169 2.326 . S
O176 C172 1.260 . S
O177 In169 2.266 . S
O177 C174 1.252 . S
O178 In169 2.326 . S
O178 C174 1.260 . S
C179 O170 1.240 . S
C179 O171 1.252 . S
O180 In169 2.294 . S
O180 C173 1.240 . S
O181 In169 2.326 . S
O181 C173 1.252 . S
In182 O183 2.294 . S
In182 O184 2.326 . S
In182 O188 2.266 . S
In182 O189 2.326 . S
In182 O190 2.266 . S
In182 O191 2.326 . S
In182 O193 2.294 . S
In182 O194 2.326 . S
O183 In182 2.294 . S
O183 C192 1.240 . S
O184 In182 2.326 . S
O184 C192 1.252 . S
C185 O188 1.252 . S
C185 O189 1.260 . S
C186 O193 1.240 . S
C186 O194 1.252 . S
C187 O190 1.252 . S
C187 O191 1.260 . S
O188 In182 2.266 . S
O188 C185 1.252 . S
O189 In182 2.326 . S
O189 C185 1.260 . S
O190 In182 2.266 . S
O190 C187 1.252 . S
O191 In182 2.326 . S
O191 C187 1.260 . S
C192 O183 1.240 . S
C192 O184 1.252 . S
O193 In182 2.294 . S
O193 C186 1.240 . S
O194 In182 2.326 . S
O194 C186 1.252 . S
In195 O196 2.294 . S
In195 O197 2.326 . S
In195 O201 2.266 . S
In195 O202 2.326 . S
In195 O203 2.266 . S
In195 O204 2.326 . S
In195 O206 2.294 . S
In195 O207 2.326 . S
O196 In195 2.294 . S
O196 C205 1.240 . S
O197 In195 2.326 . S
O197 C205 1.252 . S
C198 O201 1.252 . S
C198 O202 1.260 . S
C199 O206 1.240 . S
C199 O207 1.252 . S
C200 O203 1.252 . S
C200 O204 1.260 . S
O201 In195 2.266 . S
O201 C198 1.252 . S
O202 In195 2.326 . S
O202 C198 1.260 . S
O203 In195 2.266 . S
O203 C200 1.252 . S
O204 In195 2.326 . S
O204 C200 1.260 . S
C205 O196 1.240 . S
C205 O197 1.252 . S
O206 In195 2.294 . S
O206 C199 1.240 . S
O207 In195 2.326 . S
O207 C199 1.252 . S
H208 C216 0.950 . S
H209 C221 0.950 . S
H210 C218 0.950 . S
H211 C220 0.950 . S
H212 C222 0.950 . S
H213 C224 0.950 . S
H214 C226 0.950 . S
H215 C227 0.950 . S
C216 H208 0.950 . S
C216 C217 1.386 . S
C216 C218 1.391 . S
C217 C216 1.386 . S
C217 C221 1.393 . S
C218 H210 0.950 . S
C218 C216 1.391 . S
C218 C219 1.400 . S
C219 C218 1.400 . S
C219 C220 1.398 . S
C219 C225 1.491 . S
C220 H211 0.950 . S
C220 C219 1.398 . S
C220 C221 1.391 . S
C221 H209 0.950 . S
C221 C217 1.393 . S
C221 C220 1.391 . S
C222 H212 0.950 . S
C222 C223 1.386 . S
C222 C224 1.391 . S
C223 C222 1.386 . S
C223 C227 1.393 . S
C224 H213 0.950 . S
C224 C222 1.391 . S
C224 C225 1.400 . S
C225 C219 1.491 . S
C225 C224 1.400 . S
C225 C226 1.398 . S
C226 H214 0.950 . S
C226 C225 1.398 . S
C226 C227 1.391 . S
C227 H215 0.950 . S
C227 C223 1.393 . S
C227 C226 1.391 . S
H228 C236 0.950 . S
H229 C241 0.950 . S
H230 C238 0.950 . S
H231 C240 0.950 . S
H232 C242 0.950 . S
H233 C244 0.950 . S
H234 C246 0.950 . S
H235 C247 0.950 . S
C236 H228 0.950 . S
C236 C237 1.386 . S
C236 C238 1.391 . S
C237 C236 1.386 . S
C237 C241 1.393 . S
C238 H230 0.950 . S
C238 C236 1.391 . S
C238 C239 1.400 . S
C239 C238 1.400 . S
C239 C240 1.398 . S
C239 C245 1.491 . S
C240 H231 0.950 . S
C240 C239 1.398 . S
C240 C241 1.391 . S
C241 H229 0.950 . S
C241 C237 1.393 . S
C241 C240 1.391 . S
C242 H232 0.950 . S
C242 C243 1.386 . S
C242 C244 1.391 . S
C243 C242 1.386 . S
C243 C247 1.393 . S
C244 H233 0.950 . S
C244 C242 1.391 . S
C244 C245 1.400 . S
C245 C239 1.491 . S
C245 C244 1.400 . S
C245 C246 1.398 . S
C246 H234 0.950 . S
C246 C245 1.398 . S
C246 C247 1.391 . S
C247 H235 0.950 . S
C247 C243 1.393 . S
C247 C246 1.391 . S
H248 C256 0.950 . S
H249 C261 0.950 . S
H250 C258 0.950 . S
H251 C260 0.950 . S
H252 C262 0.950 . S
H253 C264 0.950 . S
H254 C266 0.950 . S
H255 C267 0.950 . S
C256 H248 0.950 . S
C256 C257 1.386 . S
C256 C258 1.391 . S
C257 C256 1.386 . S
C257 C261 1.393 . S
C258 H250 0.950 . S
C258 C256 1.391 . S
C258 C259 1.400 . S
C259 C258 1.400 . S
C259 C260 1.398 . S
C259 C265 1.491 . S
C260 H251 0.950 . S
C260 C259 1.398 . S
C260 C261 1.391 . S
C261 H249 0.950 . S
C261 C257 1.393 . S
C261 C260 1.391 . S
C262 H252 0.950 . S
C262 C263 1.386 . S
C262 C264 1.391 . S
C263 C262 1.386 . S
C263 C267 1.393 . S
C264 H253 0.950 . S
C264 C262 1.391 . S
C264 C265 1.400 . S
C265 C259 1.491 . S
C265 C264 1.400 . S
C265 C266 1.398 . S
C266 H254 0.950 . S
C266 C265 1.398 . S
C266 C267 1.391 . S
C267 H255 0.950 . S
C267 C263 1.393 . S
C267 C266 1.391 . S
H268 C276 0.950 . S
H269 C281 0.950 . S
H270 C278 0.950 . S
H271 C280 0.950 . S
H272 C282 0.950 . S
H273 C284 0.950 . S
H274 C286 0.950 . S
H275 C287 0.950 . S
C276 H268 0.950 . S
C276 C277 1.386 . S
C276 C278 1.391 . S
C277 C276 1.386 . S
C277 C281 1.393 . S
C278 H270 0.950 . S
C278 C276 1.391 . S
C278 C279 1.400 . S
C279 C278 1.400 . S
C279 C280 1.398 . S
C279 C285 1.491 . S
C280 H271 0.950 . S
C280 C279 1.398 . S
C280 C281 1.391 . S
C281 H269 0.950 . S
C281 C277 1.393 . S
C281 C280 1.391 . S
C282 H272 0.950 . S
C282 C283 1.386 . S
C282 C284 1.391 . S
C283 C282 1.386 . S
C283 C287 1.393 . S
C284 H273 0.950 . S
C284 C282 1.391 . S
C284 C285 1.400 . S
C285 C279 1.491 . S
C285 C284 1.400 . S
C285 C286 1.398 . S
C286 H274 0.950 . S
C286 C285 1.398 . S
C286 C287 1.391 . S
C287 H275 0.950 . S
C287 C283 1.393 . S
C287 C286 1.391 . S
H288 C296 0.950 . S
H289 C301 0.950 . S
H290 C298 0.950 . S
H291 C300 0.950 . S
H292 C302 0.950 . S
H293 C304 0.950 . S
H294 C306 0.950 . S
H295 C307 0.950 . S
C296 H288 0.950 . S
C296 C297 1.386 . S
C296 C298 1.391 . S
C297 C296 1.386 . S
C297 C301 1.393 . S
C298 H290 0.950 . S
C298 C296 1.391 . S
C298 C299 1.400 . S
C299 C298 1.400 . S
C299 C300 1.398 . S
C299 C305 1.491 . S
C300 H291 0.950 . S
C300 C299 1.398 . S
C300 C301 1.391 . S
C301 H289 0.950 . S
C301 C297 1.393 . S
C301 C300 1.391 . S
C302 H292 0.950 . S
C302 C303 1.386 . S
C302 C304 1.391 . S
C303 C302 1.386 . S
C303 C307 1.393 . S
C304 H293 0.950 . S
C304 C302 1.391 . S
C304 C305 1.400 . S
C305 C299 1.491 . S
C305 C304 1.400 . S
C305 C306 1.398 . S
C306 H294 0.950 . S
C306 C305 1.398 . S
C306 C307 1.391 . S
C307 H295 0.950 . S
C307 C303 1.393 . S
C307 C306 1.391 . S
H308 C316 0.950 . S
H309 C321 0.950 . S
H310 C318 0.950 . S
H311 C320 0.950 . S
H312 C322 0.950 . S
H313 C324 0.950 . S
H314 C326 0.950 . S
H315 C327 0.950 . S
C316 H308 0.950 . S
C316 C317 1.386 . S
C316 C318 1.391 . S
C317 C316 1.386 . S
C317 C321 1.393 . S
C318 H310 0.950 . S
C318 C316 1.391 . S
C318 C319 1.400 . S
C319 C318 1.400 . S
C319 C320 1.398 . S
C319 C325 1.491 . S
C320 H311 0.950 . S
C320 C319 1.398 . S
C320 C321 1.391 . S
C321 H309 0.950 . S
C321 C317 1.393 . S
C321 C320 1.391 . S
C322 H312 0.950 . S
C322 C323 1.386 . S
C322 C324 1.391 . S
C323 C322 1.386 . S
C323 C327 1.393 . S
C324 H313 0.950 . S
C324 C322 1.391 . S
C324 C325 1.400 . S
C325 C319 1.491 . S
C325 C324 1.400 . S
C325 C326 1.398 . S
C326 H314 0.950 . S
C326 C325 1.398 . S
C326 C327 1.391 . S
C327 H315 0.950 . S
C327 C323 1.393 . S
C327 C326 1.391 . S
H328 C336 0.950 . S
H329 C341 0.950 . S
H330 C338 0.950 . S
H331 C340 0.950 . S
H332 C342 0.950 . S
H333 C344 0.950 . S
H334 C346 0.950 . S
H335 C347 0.950 . S
C336 H328 0.950 . S
C336 C337 1.386 . S
C336 C338 1.391 . S
C337 C336 1.386 . S
C337 C341 1.393 . S
C338 H330 0.950 . S
C338 C336 1.391 . S
C338 C339 1.400 . S
C339 C338 1.400 . S
C339 C340 1.398 . S
C339 C345 1.491 . S
C340 H331 0.950 . S
C340 C339 1.398 . S
C340 C341 1.391 . S
C341 H329 0.950 . S
C341 C337 1.393 . S
C341 C340 1.391 . S
C342 H332 0.950 . S
C342 C343 1.386 . S
C342 C344 1.391 . S
C343 C342 1.386 . S
C343 C347 1.393 . S
C344 H333 0.950 . S
C344 C342 1.391 . S
C344 C345 1.400 . S
C345 C339 1.491 . S
C345 C344 1.400 . S
C345 C346 1.398 . S
C346 H334 0.950 . S
C346 C345 1.398 . S
C346 C347 1.391 . S
C347 H335 0.950 . S
C347 C343 1.393 . S
C347 C346 1.391 . S
H348 C356 0.950 . S
H349 C361 0.950 . S
H350 C358 0.950 . S
H351 C360 0.950 . S
H352 C362 0.950 . S
H353 C364 0.950 . S
H354 C366 0.950 . S
H355 C367 0.950 . S
C356 H348 0.950 . S
C356 C357 1.386 . S
C356 C358 1.391 . S
C357 C356 1.386 . S
C357 C361 1.393 . S
C358 H350 0.950 . S
C358 C356 1.391 . S
C358 C359 1.400 . S
C359 C358 1.400 . S
C359 C360 1.398 . S
C359 C365 1.491 . S
C360 H351 0.950 . S
C360 C359 1.398 . S
C360 C361 1.391 . S
C361 H349 0.950 . S
C361 C357 1.393 . S
C361 C360 1.391 . S
C362 H352 0.950 . S
C362 C363 1.386 . S
C362 C364 1.391 . S
C363 C362 1.386 . S
C363 C367 1.393 . S
C364 H353 0.950 . S
C364 C362 1.391 . S
C364 C365 1.400 . S
C365 C359 1.491 . S
C365 C364 1.400 . S
C365 C366 1.398 . S
C366 H354 0.950 . S
C366 C365 1.398 . S
C366 C367 1.391 . S
C367 H355 0.950 . S
C367 C363 1.393 . S
C367 C366 1.391 . S
H368 C376 0.950 . S
H369 C381 0.950 . S
H370 C378 0.950 . S
H371 C380 0.950 . S
H372 C382 0.950 . S
H373 C384 0.950 . S
H374 C386 0.950 . S
H375 C387 0.950 . S
C376 H368 0.950 . S
C376 C377 1.386 . S
C376 C378 1.391 . S
C377 C376 1.386 . S
C377 C381 1.393 . S
C378 H370 0.950 . S
C378 C376 1.391 . S
C378 C379 1.400 . S
C379 C378 1.400 . S
C379 C380 1.398 . S
C379 C385 1.491 . S
C380 H371 0.950 . S
C380 C379 1.398 . S
C380 C381 1.391 . S
C381 H369 0.950 . S
C381 C377 1.393 . S
C381 C380 1.391 . S
C382 H372 0.950 . S
C382 C383 1.386 . S
C382 C384 1.391 . S
C383 C382 1.386 . S
C383 C387 1.393 . S
C384 H373 0.950 . S
C384 C382 1.391 . S
C384 C385 1.400 . S
C385 C379 1.491 . S
C385 C384 1.400 . S
C385 C386 1.398 . S
C386 H374 0.950 . S
C386 C385 1.398 . S
C386 C387 1.391 . S
C387 H375 0.950 . S
C387 C383 1.393 . S
C387 C386 1.391 . S
H388 C396 0.950 . S
H389 C401 0.950 . S
H390 C398 0.950 . S
H391 C400 0.950 . S
H392 C402 0.950 . S
H393 C404 0.950 . S
H394 C406 0.950 . S
H395 C407 0.950 . S
C396 H388 0.950 . S
C396 C397 1.386 . S
C396 C398 1.391 . S
C397 C396 1.386 . S
C397 C401 1.393 . S
C398 H390 0.950 . S
C398 C396 1.391 . S
C398 C399 1.400 . S
C399 C398 1.400 . S
C399 C400 1.398 . S
C399 C405 1.491 . S
C400 H391 0.950 . S
C400 C399 1.398 . S
C400 C401 1.391 . S
C401 H389 0.950 . S
C401 C397 1.393 . S
C401 C400 1.391 . S
C402 H392 0.950 . S
C402 C403 1.386 . S
C402 C404 1.391 . S
C403 C402 1.386 . S
C403 C407 1.393 . S
C404 H393 0.950 . S
C404 C402 1.391 . S
C404 C405 1.400 . S
C405 C399 1.491 . S
C405 C404 1.400 . S
C405 C406 1.398 . S
C406 H394 0.950 . S
C406 C405 1.398 . S
C406 C407 1.391 . S
C407 H395 0.950 . S
C407 C403 1.393 . S
C407 C406 1.391 . S
H408 C416 0.950 . S
H409 C421 0.950 . S
H410 C418 0.950 . S
H411 C420 0.950 . S
H412 C422 0.950 . S
H413 C424 0.950 . S
H414 C426 0.950 . S
H415 C427 0.950 . S
C416 H408 0.950 . S
C416 C417 1.386 . S
C416 C418 1.391 . S
C417 C416 1.386 . S
C417 C421 1.393 . S
C418 H410 0.950 . S
C418 C416 1.391 . S
C418 C419 1.400 . S
C419 C418 1.400 . S
C419 C420 1.398 . S
C419 C425 1.491 . S
C420 H411 0.950 . S
C420 C419 1.398 . S
C420 C421 1.391 . S
C421 H409 0.950 . S
C421 C417 1.393 . S
C421 C420 1.391 . S
C422 H412 0.950 . S
C422 C423 1.386 . S
C422 C424 1.391 . S
C423 C422 1.386 . S
C423 C427 1.393 . S
C424 H413 0.950 . S
C424 C422 1.391 . S
C424 C425 1.400 . S
C425 C419 1.491 . S
C425 C424 1.400 . S
C425 C426 1.398 . S
C426 H414 0.950 . S
C426 C425 1.398 . S
C426 C427 1.391 . S
C427 H415 0.950 . S
C427 C423 1.393 . S
C427 C426 1.391 . S
H428 C436 0.950 . S
H429 C441 0.950 . S
H430 C438 0.950 . S
H431 C440 0.950 . S
H432 C442 0.950 . S
H433 C444 0.950 . S
H434 C446 0.950 . S
H435 C447 0.950 . S
C436 H428 0.950 . S
C436 C437 1.386 . S
C436 C438 1.391 . S
C437 C436 1.386 . S
C437 C441 1.393 . S
C438 H430 0.950 . S
C438 C436 1.391 . S
C438 C439 1.400 . S
C439 C438 1.400 . S
C439 C440 1.398 . S
C439 C445 1.491 . S
C440 H431 0.950 . S
C440 C439 1.398 . S
C440 C441 1.391 . S
C441 H429 0.950 . S
C441 C437 1.393 . S
C441 C440 1.391 . S
C442 H432 0.950 . S
C442 C443 1.386 . S
C442 C444 1.391 . S
C443 C442 1.386 . S
C443 C447 1.393 . S
C444 H433 0.950 . S
C444 C442 1.391 . S
C444 C445 1.400 . S
C445 C439 1.491 . S
C445 C444 1.400 . S
C445 C446 1.398 . S
C446 H434 0.950 . S
C446 C445 1.398 . S
C446 C447 1.391 . S
C447 H435 0.950 . S
C447 C443 1.393 . S
C447 C446 1.391 . S
H448 C456 0.950 . S
H449 C461 0.950 . S
H450 C458 0.950 . S
H451 C460 0.950 . S
H452 C462 0.950 . S
H453 C464 0.950 . S
H454 C466 0.950 . S
H455 C467 0.950 . S
C456 H448 0.950 . S
C456 C457 1.386 . S
C456 C458 1.391 . S
C457 C456 1.386 . S
C457 C461 1.393 . S
C458 H450 0.950 . S
C458 C456 1.391 . S
C458 C459 1.400 . S
C459 C458 1.400 . S
C459 C460 1.398 . S
C459 C465 1.491 . S
C460 H451 0.950 . S
C460 C459 1.398 . S
C460 C461 1.391 . S
C461 H449 0.950 . S
C461 C457 1.393 . S
C461 C460 1.391 . S
C462 H452 0.950 . S
C462 C463 1.386 . S
C462 C464 1.391 . S
C463 C462 1.386 . S
C463 C467 1.393 . S
C464 H453 0.950 . S
C464 C462 1.391 . S
C464 C465 1.400 . S
C465 C459 1.491 . S
C465 C464 1.400 . S
C465 C466 1.398 . S
C466 H454 0.950 . S
C466 C465 1.398 . S
C466 C467 1.391 . S
C467 H455 0.950 . S
C467 C463 1.393 . S
C467 C466 1.391 . S
H468 C476 0.950 . S
H469 C481 0.950 . S
H470 C478 0.950 . S
H471 C480 0.950 . S
H472 C482 0.950 . S
H473 C484 0.950 . S
H474 C486 0.950 . S
H475 C487 0.950 . S
C476 H468 0.950 . S
C476 C477 1.386 . S
C476 C478 1.391 . S
C477 C476 1.386 . S
C477 C481 1.393 . S
C478 H470 0.950 . S
C478 C476 1.391 . S
C478 C479 1.400 . S
C479 C478 1.400 . S
C479 C480 1.398 . S
C479 C485 1.491 . S
C480 H471 0.950 . S
C480 C479 1.398 . S
C480 C481 1.391 . S
C481 H469 0.950 . S
C481 C477 1.393 . S
C481 C480 1.391 . S
C482 H472 0.950 . S
C482 C483 1.386 . S
C482 C484 1.391 . S
C483 C482 1.386 . S
C483 C487 1.393 . S
C484 H473 0.950 . S
C484 C482 1.391 . S
C484 C485 1.400 . S
C485 C479 1.491 . S
C485 C484 1.400 . S
C485 C486 1.398 . S
C486 H474 0.950 . S
C486 C485 1.398 . S
C486 C487 1.391 . S
C487 H475 0.950 . S
C487 C483 1.393 . S
C487 C486 1.391 . S
H488 C496 0.950 . S
H489 C501 0.950 . S
H490 C498 0.950 . S
H491 C500 0.950 . S
H492 C502 0.950 . S
H493 C504 0.950 . S
H494 C506 0.950 . S
H495 C507 0.950 . S
C496 H488 0.950 . S
C496 C497 1.386 . S
C496 C498 1.391 . S
C497 C496 1.386 . S
C497 C501 1.393 . S
C498 H490 0.950 . S
C498 C496 1.391 . S
C498 C499 1.400 . S
C499 C498 1.400 . S
C499 C500 1.398 . S
C499 C505 1.491 . S
C500 H491 0.950 . S
C500 C499 1.398 . S
C500 C501 1.391 . S
C501 H489 0.950 . S
C501 C497 1.393 . S
C501 C500 1.391 . S
C502 H492 0.950 . S
C502 C503 1.386 . S
C502 C504 1.391 . S
C503 C502 1.386 . S
C503 C507 1.393 . S
C504 H493 0.950 . S
C504 C502 1.391 . S
C504 C505 1.400 . S
C505 C499 1.491 . S
C505 C504 1.400 . S
C505 C506 1.398 . S
C506 H494 0.950 . S
C506 C505 1.398 . S
C506 C507 1.391 . S
C507 H495 0.950 . S
C507 C503 1.393 . S
C507 C506 1.391 . S
H508 C516 0.950 . S
H509 C521 0.950 . S
H510 C518 0.950 . S
H511 C520 0.950 . S
H512 C522 0.950 . S
H513 C524 0.950 . S
H514 C526 0.950 . S
H515 C527 0.950 . S
C516 H508 0.950 . S
C516 C517 1.386 . S
C516 C518 1.391 . S
C517 C516 1.386 . S
C517 C521 1.393 . S
C518 H510 0.950 . S
C518 C516 1.391 . S
C518 C519 1.400 . S
C519 C518 1.400 . S
C519 C520 1.398 . S
C519 C525 1.491 . S
C520 H511 0.950 . S
C520 C519 1.398 . S
C520 C521 1.391 . S
C521 H509 0.950 . S
C521 C517 1.393 . S
C521 C520 1.391 . S
C522 H512 0.950 . S
C522 C523 1.386 . S
C522 C524 1.391 . S
C523 C522 1.386 . S
C523 C527 1.393 . S
C524 H513 0.950 . S
C524 C522 1.391 . S
C524 C525 1.400 . S
C525 C519 1.491 . S
C525 C524 1.400 . S
C525 C526 1.398 . S
C526 H514 0.950 . S
C526 C525 1.398 . S
C526 C527 1.391 . S
C527 H515 0.950 . S
C527 C523 1.393 . S
C527 C526 1.391 . S
H528 C536 0.950 . S
H529 C541 0.950 . S
H530 C538 0.950 . S
H531 C540 0.950 . S
H532 C542 0.950 . S
H533 C544 0.950 . S
H534 C546 0.950 . S
H535 C547 0.950 . S
C536 H528 0.950 . S
C536 C537 1.386 . S
C536 C538 1.391 . S
C537 C536 1.386 . S
C537 C541 1.393 . S
C538 H530 0.950 . S
C538 C536 1.391 . S
C538 C539 1.400 . S
C539 C538 1.400 . S
C539 C540 1.398 . S
C539 C545 1.491 . S
C540 H531 0.950 . S
C540 C539 1.398 . S
C540 C541 1.391 . S
C541 H529 0.950 . S
C541 C537 1.393 . S
C541 C540 1.391 . S
C542 H532 0.950 . S
C542 C543 1.386 . S
C542 C544 1.391 . S
C543 C542 1.386 . S
C543 C547 1.393 . S
C544 H533 0.950 . S
C544 C542 1.391 . S
C544 C545 1.400 . S
C545 C539 1.491 . S
C545 C544 1.400 . S
C545 C546 1.398 . S
C546 H534 0.950 . S
C546 C545 1.398 . S
C546 C547 1.391 . S
C547 H535 0.950 . S
C547 C543 1.393 . S
C547 C546 1.391 . S
H548 C556 0.950 . S
H549 C561 0.950 . S
H550 C558 0.950 . S
H551 C560 0.950 . S
H552 C562 0.950 . S
H553 C564 0.950 . S
H554 C566 0.950 . S
H555 C567 0.950 . S
C556 H548 0.950 . S
C556 C557 1.386 . S
C556 C558 1.391 . S
C557 C556 1.386 . S
C557 C561 1.393 . S
C558 H550 0.950 . S
C558 C556 1.391 . S
C558 C559 1.400 . S
C559 C558 1.400 . S
C559 C560 1.398 . S
C559 C565 1.491 . S
C560 H551 0.950 . S
C560 C559 1.398 . S
C560 C561 1.391 . S
C561 H549 0.950 . S
C561 C557 1.393 . S
C561 C560 1.391 . S
C562 H552 0.950 . S
C562 C563 1.386 . S
C562 C564 1.391 . S
C563 C562 1.386 . S
C563 C567 1.393 . S
C564 H553 0.950 . S
C564 C562 1.391 . S
C564 C565 1.400 . S
C565 C559 1.491 . S
C565 C564 1.400 . S
C565 C566 1.398 . S
C566 H554 0.950 . S
C566 C565 1.398 . S
C566 C567 1.391 . S
C567 H555 0.950 . S
C567 C563 1.393 . S
C567 C566 1.391 . S
H568 C576 0.950 . S
H569 C581 0.950 . S
H570 C578 0.950 . S
H571 C580 0.950 . S
H572 C582 0.950 . S
H573 C584 0.950 . S
H574 C586 0.950 . S
H575 C587 0.950 . S
C576 H568 0.950 . S
C576 C577 1.386 . S
C576 C578 1.391 . S
C577 C576 1.386 . S
C577 C581 1.393 . S
C578 H570 0.950 . S
C578 C576 1.391 . S
C578 C579 1.400 . S
C579 C578 1.400 . S
C579 C580 1.398 . S
C579 C585 1.491 . S
C580 H571 0.950 . S
C580 C579 1.398 . S
C580 C581 1.391 . S
C581 H569 0.950 . S
C581 C577 1.393 . S
C581 C580 1.391 . S
C582 H572 0.950 . S
C582 C583 1.386 . S
C582 C584 1.391 . S
C583 C582 1.386 . S
C583 C587 1.393 . S
C584 H573 0.950 . S
C584 C582 1.391 . S
C584 C585 1.400 . S
C585 C579 1.491 . S
C585 C584 1.400 . S
C585 C586 1.398 . S
C586 H574 0.950 . S
C586 C585 1.398 . S
C586 C587 1.391 . S
C587 H575 0.950 . S
C587 C583 1.393 . S
C587 C586 1.391 . S
H588 C596 0.950 . S
H589 C601 0.950 . S
H590 C598 0.950 . S
H591 C600 0.950 . S
H592 C602 0.950 . S
H593 C604 0.950 . S
H594 C606 0.950 . S
H595 C607 0.950 . S
C596 H588 0.950 . S
C596 C597 1.386 . S
C596 C598 1.391 . S
C597 C596 1.386 . S
C597 C601 1.393 . S
C598 H590 0.950 . S
C598 C596 1.391 . S
C598 C599 1.400 . S
C599 C598 1.400 . S
C599 C600 1.398 . S
C599 C605 1.491 . S
C600 H591 0.950 . S
C600 C599 1.398 . S
C600 C601 1.391 . S
C601 H589 0.950 . S
C601 C597 1.393 . S
C601 C600 1.391 . S
C602 H592 0.950 . S
C602 C603 1.386 . S
C602 C604 1.391 . S
C603 C602 1.386 . S
C603 C607 1.393 . S
C604 H593 0.950 . S
C604 C602 1.391 . S
C604 C605 1.400 . S
C605 C599 1.491 . S
C605 C604 1.400 . S
C605 C606 1.398 . S
C606 H594 0.950 . S
C606 C605 1.398 . S
C606 C607 1.391 . S
C607 H595 0.950 . S
C607 C603 1.393 . S
C607 C606 1.391 . S
H608 C616 0.950 . S
H609 C621 0.950 . S
H610 C618 0.950 . S
H611 C620 0.950 . S
H612 C622 0.950 . S
H613 C624 0.950 . S
H614 C626 0.950 . S
H615 C627 0.950 . S
C616 H608 0.950 . S
C616 C617 1.386 . S
C616 C618 1.391 . S
C617 C616 1.386 . S
C617 C621 1.393 . S
C618 H610 0.950 . S
C618 C616 1.391 . S
C618 C619 1.400 . S
C619 C618 1.400 . S
C619 C620 1.398 . S
C619 C625 1.491 . S
C620 H611 0.950 . S
C620 C619 1.398 . S
C620 C621 1.391 . S
C621 H609 0.950 . S
C621 C617 1.393 . S
C621 C620 1.391 . S
C622 H612 0.950 . S
C622 C623 1.386 . S
C622 C624 1.391 . S
C623 C622 1.386 . S
C623 C627 1.393 . S
C624 H613 0.950 . S
C624 C622 1.391 . S
C624 C625 1.400 . S
C625 C619 1.491 . S
C625 C624 1.400 . S
C625 C626 1.398 . S
C626 H614 0.950 . S
C626 C625 1.398 . S
C626 C627 1.391 . S
C627 H615 0.950 . S
C627 C623 1.393 . S
C627 C626 1.391 . S
H628 C636 0.950 . S
H629 C641 0.950 . S
H630 C638 0.950 . S
H631 C640 0.950 . S
H632 C642 0.950 . S
H633 C644 0.950 . S
H634 C646 0.950 . S
H635 C647 0.950 . S
C636 H628 0.950 . S
C636 C637 1.386 . S
C636 C638 1.391 . S
C637 C636 1.386 . S
C637 C641 1.393 . S
C638 H630 0.950 . S
C638 C636 1.391 . S
C638 C639 1.400 . S
C639 C638 1.400 . S
C639 C640 1.398 . S
C639 C645 1.491 . S
C640 H631 0.950 . S
C640 C639 1.398 . S
C640 C641 1.391 . S
C641 H629 0.950 . S
C641 C637 1.393 . S
C641 C640 1.391 . S
C642 H632 0.950 . S
C642 C643 1.386 . S
C642 C644 1.391 . S
C643 C642 1.386 . S
C643 C647 1.393 . S
C644 H633 0.950 . S
C644 C642 1.391 . S
C644 C645 1.400 . S
C645 C639 1.491 . S
C645 C644 1.400 . S
C645 C646 1.398 . S
C646 H634 0.950 . S
C646 C645 1.398 . S
C646 C647 1.391 . S
C647 H635 0.950 . S
C647 C643 1.393 . S
C647 C646 1.391 . S
H648 C656 0.950 . S
H649 C661 0.950 . S
H650 C658 0.950 . S
H651 C660 0.950 . S
H652 C662 0.950 . S
H653 C664 0.950 . S
H654 C666 0.950 . S
H655 C667 0.950 . S
C656 H648 0.950 . S
C656 C657 1.386 . S
C656 C658 1.391 . S
C657 C656 1.386 . S
C657 C661 1.393 . S
C658 H650 0.950 . S
C658 C656 1.391 . S
C658 C659 1.400 . S
C659 C658 1.400 . S
C659 C660 1.398 . S
C659 C665 1.491 . S
C660 H651 0.950 . S
C660 C659 1.398 . S
C660 C661 1.391 . S
C661 H649 0.950 . S
C661 C657 1.393 . S
C661 C660 1.391 . S
C662 H652 0.950 . S
C662 C663 1.386 . S
C662 C664 1.391 . S
C663 C662 1.386 . S
C663 C667 1.393 . S
C664 H653 0.950 . S
C664 C662 1.391 . S
C664 C665 1.400 . S
C665 C659 1.491 . S
C665 C664 1.400 . S
C665 C666 1.398 . S
C666 H654 0.950 . S
C666 C665 1.398 . S
C666 C667 1.391 . S
C667 H655 0.950 . S
C667 C663 1.393 . S
C667 C666 1.391 . S
H668 C676 0.950 . S
H669 C681 0.950 . S
H670 C678 0.950 . S
H671 C680 0.950 . S
H672 C682 0.950 . S
H673 C684 0.950 . S
H674 C686 0.950 . S
H675 C687 0.950 . S
C676 H668 0.950 . S
C676 C677 1.386 . S
C676 C678 1.391 . S
C677 C676 1.386 . S
C677 C681 1.393 . S
C678 H670 0.950 . S
C678 C676 1.391 . S
C678 C679 1.400 . S
C679 C678 1.400 . S
C679 C680 1.398 . S
C679 C685 1.491 . S
C680 H671 0.950 . S
C680 C679 1.398 . S
C680 C681 1.391 . S
C681 H669 0.950 . S
C681 C677 1.393 . S
C681 C680 1.391 . S
C682 H672 0.950 . S
C682 C683 1.386 . S
C682 C684 1.391 . S
C683 C682 1.386 . S
C683 C687 1.393 . S
C684 H673 0.950 . S
C684 C682 1.391 . S
C684 C685 1.400 . S
C685 C679 1.491 . S
C685 C684 1.400 . S
C685 C686 1.398 . S
C686 H674 0.950 . S
C686 C685 1.398 . S
C686 C687 1.391 . S
C687 H675 0.950 . S
C687 C683 1.393 . S
C687 C686 1.391 . S
H688 C696 0.950 . S
H689 C701 0.950 . S
H690 C698 0.950 . S
H691 C700 0.950 . S
H692 C702 0.950 . S
H693 C704 0.950 . S
H694 C706 0.950 . S
H695 C707 0.950 . S
C696 H688 0.950 . S
C696 C697 1.386 . S
C696 C698 1.391 . S
C697 C696 1.386 . S
C697 C701 1.393 1_455 S
C698 H690 0.950 . S
C698 C696 1.391 . S
C698 C699 1.400 . S
C699 C698 1.400 . S
C699 C700 1.398 1_455 S
C699 C705 1.491 1_455 S
C700 H691 0.950 . S
C700 C699 1.398 1_655 S
C700 C701 1.391 . S
C701 H689 0.950 . S
C701 C697 1.393 1_655 S
C701 C700 1.391 . S
C702 H692 0.950 . S
C702 C703 1.386 . S
C702 C704 1.391 . S
C703 C702 1.386 . S
C703 C707 1.393 1_655 S
C704 H693 0.950 . S
C704 C702 1.391 . S
C704 C705 1.400 . S
C705 C699 1.491 1_655 S
C705 C704 1.400 . S
C705 C706 1.398 1_655 S
C706 H694 0.950 . S
C706 C705 1.398 1_455 S
C706 C707 1.391 . S
C707 H695 0.950 . S
C707 C703 1.393 1_455 S
C707 C706 1.391 . S
H708 C716 0.950 . S
H709 C721 0.950 . S
H710 C718 0.950 . S
H711 C720 0.950 . S
H712 C722 0.950 . S
H713 C724 0.950 . S
H714 C726 0.950 . S
H715 C727 0.950 . S
C716 H708 0.950 . S
C716 C717 1.386 1_545 S
C716 C718 1.391 . S
C717 C716 1.386 1_565 S
C717 C721 1.393 . S
C718 H710 0.950 . S
C718 C716 1.391 . S
C718 C719 1.400 1_545 S
C719 C718 1.400 1_565 S
C719 C720 1.398 . S
C719 C725 1.491 1_565 S
C720 H711 0.950 . S
C720 C719 1.398 . S
C720 C721 1.391 . S
C721 H709 0.950 . S
C721 C717 1.393 . S
C721 C720 1.391 . S
C722 H712 0.950 . S
C722 C723 1.386 1_565 S
C722 C724 1.391 . S
C723 C722 1.386 1_545 S
C723 C727 1.393 . S
C724 H713 0.950 . S
C724 C722 1.391 . S
C724 C725 1.400 1_565 S
C725 C719 1.491 1_545 S
C725 C724 1.400 1_545 S
C725 C726 1.398 . S
C726 H714 0.950 . S
C726 C725 1.398 . S
C726 C727 1.391 . S
C727 H715 0.950 . S
C727 C723 1.393 . S
C727 C726 1.391 . S
H728 C736 0.950 . S
H729 C741 0.950 . S
H730 C738 0.950 . S
H731 C740 0.950 . S
H732 C742 0.950 . S
H733 C744 0.950 . S
H734 C746 0.950 . S
H735 C747 0.950 . S
C736 H728 0.950 . S
C736 C737 1.386 1_655 S
C736 C738 1.391 . S
C737 C736 1.386 1_455 S
C737 C741 1.393 . S
C738 H730 0.950 . S
C738 C736 1.391 . S
C738 C739 1.400 1_655 S
C739 C738 1.400 1_455 S
C739 C740 1.398 . S
C739 C745 1.491 1_455 S
C740 H731 0.950 . S
C740 C739 1.398 . S
C740 C741 1.391 . S
C741 H729 0.950 . S
C741 C737 1.393 . S
C741 C740 1.391 . S
C742 H732 0.950 . S
C742 C743 1.386 1_455 S
C742 C744 1.391 . S
C743 C742 1.386 1_655 S
C743 C747 1.393 . S
C744 H733 0.950 . S
C744 C742 1.391 . S
C744 C745 1.400 1_455 S
C745 C739 1.491 1_655 S
C745 C744 1.400 1_655 S
C745 C746 1.398 . S
C746 H734 0.950 . S
C746 C745 1.398 . S
C746 C747 1.391 . S
C747 H735 0.950 . S
C747 C743 1.393 . S
C747 C746 1.391 . S
H748 C756 0.950 . S
H749 C761 0.950 . S
H750 C758 0.950 . S
H751 C760 0.950 . S
H752 C762 0.950 . S
H753 C764 0.950 . S
H754 C766 0.950 . S
H755 C767 0.950 . S
C756 H748 0.950 . S
C756 C757 1.386 . S
C756 C758 1.391 . S
C757 C756 1.386 . S
C757 C761 1.393 . S
C758 H750 0.950 . S
C758 C756 1.391 . S
C758 C759 1.400 . S
C759 C758 1.400 . S
C759 C760 1.398 . S
C759 C765 1.491 1_545 S
C760 H751 0.950 . S
C760 C759 1.398 . S
C760 C761 1.391 . S
C761 H749 0.950 . S
C761 C757 1.393 . S
C761 C760 1.391 . S
C762 H752 0.950 . S
C762 C763 1.386 . S
C762 C764 1.391 . S
C763 C762 1.386 . S
C763 C767 1.393 . S
C764 H753 0.950 . S
C764 C762 1.391 . S
C764 C765 1.400 . S
C765 C759 1.491 1_565 S
C765 C764 1.400 . S
C765 C766 1.398 . S
C766 H754 0.950 . S
C766 C765 1.398 . S
C766 C767 1.391 . S
C767 H755 0.950 . S
C767 C763 1.393 . S
C767 C766 1.391 . S
H768 C776 0.950 . S
H769 C781 0.950 . S
H770 C778 0.950 . S
H771 C780 0.950 . S
H772 C782 0.950 . S
H773 C784 0.950 . S
H774 C786 0.950 . S
H775 C787 0.950 . S
C776 H768 0.950 . S
C776 C777 1.386 . S
C776 C778 1.391 . S
C777 C776 1.386 . S
C777 C781 1.393 . S
C778 H770 0.950 . S
C778 C776 1.391 . S
C778 C779 1.400 . S
C779 C778 1.400 . S
C779 C780 1.398 . S
C779 C785 1.491 1_556 S
C780 H771 0.950 . S
C780 C779 1.398 . S
C780 C781 1.391 . S
C781 H769 0.950 . S
C781 C777 1.393 . S
C781 C780 1.391 . S
C782 H772 0.950 . S
C782 C783 1.386 . S
C782 C784 1.391 . S
C783 C782 1.386 . S
C783 C787 1.393 . S
C784 H773 0.950 . S
C784 C782 1.391 . S
C784 C785 1.400 . S
C785 C779 1.491 1_554 S
C785 C784 1.400 . S
C785 C786 1.398 . S
C786 H774 0.950 . S
C786 C785 1.398 . S
C786 C787 1.391 . S
C787 H775 0.950 . S
C787 C783 1.393 . S
C787 C786 1.391 . S
H788 C796 0.950 . S
H789 C801 0.950 . S
H790 C798 0.950 . S
H791 C800 0.950 . S
H792 C802 0.950 . S
H793 C804 0.950 . S
H794 C806 0.950 . S
H795 C807 0.950 . S
C796 H788 0.950 . S
C796 C797 1.386 . S
C796 C798 1.391 . S
C797 C796 1.386 . S
C797 C801 1.393 . S
C798 H790 0.950 . S
C798 C796 1.391 . S
C798 C799 1.400 . S
C799 C798 1.400 . S
C799 C800 1.398 . S
C799 C805 1.491 1_556 S
C800 H791 0.950 . S
C800 C799 1.398 . S
C800 C801 1.391 . S
C801 H789 0.950 . S
C801 C797 1.393 . S
C801 C800 1.391 . S
C802 H792 0.950 . S
C802 C803 1.386 . S
C802 C804 1.391 . S
C803 C802 1.386 . S
C803 C807 1.393 . S
C804 H793 0.950 . S
C804 C802 1.391 . S
C804 C805 1.400 . S
C805 C799 1.491 1_554 S
C805 C804 1.400 . S
C805 C806 1.398 . S
C806 H794 0.950 . S
C806 C805 1.398 . S
C806 C807 1.391 . S
C807 H795 0.950 . S
C807 C803 1.393 . S
C807 C806 1.391 . S
H808 C816 0.950 . S
H809 C821 0.950 . S
H810 C818 0.950 . S
H811 C820 0.950 . S
H812 C822 0.950 . S
H813 C824 0.950 . S
H814 C826 0.950 . S
H815 C827 0.950 . S
C816 H808 0.950 . S
C816 C817 1.386 . S
C816 C818 1.391 . S
C817 C816 1.386 . S
C817 C821 1.393 . S
C818 H810 0.950 . S
C818 C816 1.391 . S
C818 C819 1.400 . S
C819 C818 1.400 . S
C819 C820 1.398 . S
C819 C825 1.491 1_554 S
C820 H811 0.950 . S
C820 C819 1.398 . S
C820 C821 1.391 . S
C821 H809 0.950 . S
C821 C817 1.393 . S
C821 C820 1.391 . S
C822 H812 0.950 . S
C822 C823 1.386 . S
C822 C824 1.391 . S
C823 C822 1.386 . S
C823 C827 1.393 . S
C824 H813 0.950 . S
C824 C822 1.391 . S
C824 C825 1.400 . S
C825 C819 1.491 1_556 S
C825 C824 1.400 . S
C825 C826 1.398 . S
C826 H814 0.950 . S
C826 C825 1.398 . S
C826 C827 1.391 . S
C827 H815 0.950 . S
C827 C823 1.393 . S
C827 C826 1.391 . S
H828 C836 0.950 . S
H829 C841 0.950 . S
H830 C838 0.950 . S
H831 C840 0.950 . S
H832 C842 0.950 . S
H833 C844 0.950 . S
H834 C846 0.950 . S
H835 C847 0.950 . S
C836 H828 0.950 . S
C836 C837 1.386 . S
C836 C838 1.391 . S
C837 C836 1.386 . S
C837 C841 1.393 . S
C838 H830 0.950 . S
C838 C836 1.391 . S
C838 C839 1.400 . S
C839 C838 1.400 . S
C839 C840 1.398 . S
C839 C845 1.491 1_556 S
C840 H831 0.950 . S
C840 C839 1.398 . S
C840 C841 1.391 . S
C841 H829 0.950 . S
C841 C837 1.393 . S
C841 C840 1.391 . S
C842 H832 0.950 . S
C842 C843 1.386 . S
C842 C844 1.391 . S
C843 C842 1.386 . S
C843 C847 1.393 . S
C844 H833 0.950 . S
C844 C842 1.391 . S
C844 C845 1.400 . S
C845 C839 1.491 1_554 S
C845 C844 1.400 . S
C845 C846 1.398 . S
C846 H834 0.950 . S
C846 C845 1.398 . S
C846 C847 1.391 . S
C847 H835 0.950 . S
C847 C843 1.393 . S
C847 C846 1.391 . S
C217 C10 1.592 . S
C223 C42 1.585 . S
C237 C5 1.590 . S
C243 C23 1.579 . S
C257 C18 1.583 . S
C263 C30 1.591 . S
C277 C29 1.589 . S
C283 C43 1.580 . S
C297 C62 1.578 . S
C303 C70 1.591 . S
C317 C75 1.590 . S
C323 C81 1.583 . S
C337 C82 1.585 . S
C343 C96 1.585 . S
C357 C101 1.585 . S
C363 C57 1.586 . S
C377 C108 1.578 . S
C383 C146 1.592 . S
C397 C107 1.590 . S
C403 C127 1.580 . S
C417 C122 1.593 . S
C423 C134 1.577 . S
C437 C147 1.583 . S
C443 C133 1.595 . S
C457 C174 1.589 . S
C463 C166 1.580 . S
C477 C187 1.585 . S
C483 C179 1.592 . S
C497 C192 1.582 . S
C503 C200 1.596 . S
C517 C205 1.590 . S
C523 C161 1.589 . S
C537 C4 1.137 . S
C543 C199 1.133 . S
C557 C17 1.125 . S
C563 C160 1.119 . S
C577 C173 1.128 . S
C583 C36 1.137 . S
C597 C49 1.136 . S
C603 C186 1.126 . S
C617 C121 1.137 . S
C623 C56 1.133 . S
C637 C140 1.136 . S
C643 C69 1.126 . S
C657 C88 1.137 . S
C663 C153 1.131 . S
C677 C95 1.137 . S
C683 C114 1.132 . S
C697 C3 1.676 . S
C703 C83 1.665 . S
C717 C94 1.662 . S
C723 C16 1.666 . S
C737 C55 1.661 . S
C743 C31 1.672 . S
C757 C68 1.664 . S
C763 C44 1.663 . S
C777 C109 1.660 . S
C783 C185 1.671 . S
C797 C120 1.662 . S
C803 C198 1.666 . S
C817 C159 1.669 . S
C823 C135 1.661 . S
C837 C148 1.671 . S
C843 C172 1.674 . S
