# Generated by pormake.
# Topology whw, (6)-cn, num edge types: 1
# Building blocks:
#     Node 0, Type 0, BuildingBlock: CUKXOW_clean_sbu_0, # of connection points: 6
#     Node 1, Type 0, BuildingBlock: CUKXOW_clean_sbu_0, # of connection points: 6
#     Node 2, Type 0, BuildingBlock: CUKXOW_clean_sbu_0, # of connection points: 6
#     Node 3, Type 0, BuildingBlock: CUKXOW_clean_sbu_0, # of connection points: 6
#     Node 4, Type 0, BuildingBlock: CUKXOW_clean_sbu_0, # of connection points: 6
#     Node 5, Type 0, BuildingBlock: CUKXOW_clean_sbu_0, # of connection points: 6
#     Node 6, Type 0, BuildingBlock: CUKXOW_clean_sbu_0, # of connection points: 6
#     Node 7, Type 0, BuildingBlock: CUKXOW_clean_sbu_0, # of connection points: 6
#     Node 8, Type 0, BuildingBlock: CUKXOW_clean_sbu_0, # of connection points: 6
#     Node 9, Type 0, BuildingBlock: CUKXOW_clean_sbu_0, # of connection points: 6
#     Node 10, Type 0, BuildingBlock: CUKXOW_clean_sbu_0, # of connection points: 6
#     Node 11, Type 0, BuildingBlock: CUKXOW_clean_sbu_0, # of connection points: 6
#     Node 12, Type 0, BuildingBlock: CUKXOW_clean_sbu_0, # of connection points: 6
#     Node 13, Type 0, BuildingBlock: CUKXOW_clean_sbu_0, # of connection points: 6
#     Node 14, Type 0, BuildingBlock: CUKXOW_clean_sbu_0, # of connection points: 6
#     Node 15, Type 0, BuildingBlock: CUKXOW_clean_sbu_0, # of connection points: 6
#     Edge 16, Type (0, 0), BuildingBlock: ZUJKAS_clean_linker_0, # of connection points: 2
#     Edge 17, Type (0, 0), BuildingBlock: ZUJKAS_clean_linker_0, # of connection points: 2
#     Edge 18, Type (0, 0), BuildingBlock: ZUJKAS_clean_linker_0, # of connection points: 2
#     Edge 19, Type (0, 0), BuildingBlock: ZUJKAS_clean_linker_0, # of connection points: 2
#     Edge 20, Type (0, 0), BuildingBlock: ZUJKAS_clean_linker_0, # of connection points: 2
#     Edge 21, Type (0, 0), BuildingBlock: ZUJKAS_clean_linker_0, # of connection points: 2
#     Edge 22, Type (0, 0), BuildingBlock: ZUJKAS_clean_linker_0, # of connection points: 2
#     Edge 23, Type (0, 0), BuildingBlock: ZUJKAS_clean_linker_0, # of connection points: 2
#     Edge 24, Type (0, 0), BuildingBlock: ZUJKAS_clean_linker_0, # of connection points: 2
#     Edge 25, Type (0, 0), BuildingBlock: ZUJKAS_clean_linker_0, # of connection points: 2
#     Edge 26, Type (0, 0), BuildingBlock: ZUJKAS_clean_linker_0, # of connection points: 2
#     Edge 27, Type (0, 0), BuildingBlock: ZUJKAS_clean_linker_0, # of connection points: 2
#     Edge 28, Type (0, 0), BuildingBlock: ZUJKAS_clean_linker_0, # of connection points: 2
#     Edge 29, Type (0, 0), BuildingBlock: ZUJKAS_clean_linker_0, # of connection points: 2
#     Edge 30, Type (0, 0), BuildingBlock: ZUJKAS_clean_linker_0, # of connection points: 2
#     Edge 31, Type (0, 0), BuildingBlock: ZUJKAS_clean_linker_0, # of connection points: 2
#     Edge 32, Type (0, 0), BuildingBlock: ZUJKAS_clean_linker_0, # of connection points: 2
#     Edge 33, Type (0, 0), BuildingBlock: ZUJKAS_clean_linker_0, # of connection points: 2
#     Edge 34, Type (0, 0), BuildingBlock: ZUJKAS_clean_linker_0, # of connection points: 2
#     Edge 35, Type (0, 0), BuildingBlock: ZUJKAS_clean_linker_0, # of connection points: 2
#     Edge 36, Type (0, 0), BuildingBlock: ZUJKAS_clean_linker_0, # of connection points: 2
#     Edge 37, Type (0, 0), BuildingBlock: ZUJKAS_clean_linker_0, # of connection points: 2
#     Edge 38, Type (0, 0), BuildingBlock: ZUJKAS_clean_linker_0, # of connection points: 2
#     Edge 39, Type (0, 0), BuildingBlock: ZUJKAS_clean_linker_0, # of connection points: 2
#     Edge 40, Type (0, 0), BuildingBlock: ZUJKAS_clean_linker_0, # of connection points: 2
#     Edge 41, Type (0, 0), BuildingBlock: ZUJKAS_clean_linker_0, # of connection points: 2
#     Edge 42, Type (0, 0), BuildingBlock: ZUJKAS_clean_linker_0, # of connection points: 2
#     Edge 43, Type (0, 0), BuildingBlock: ZUJKAS_clean_linker_0, # of connection points: 2
#     Edge 44, Type (0, 0), BuildingBlock: ZUJKAS_clean_linker_0, # of connection points: 2
#     Edge 45, Type (0, 0), BuildingBlock: ZUJKAS_clean_linker_0, # of connection points: 2
#     Edge 46, Type (0, 0), BuildingBlock: ZUJKAS_clean_linker_0, # of connection points: 2
#     Edge 47, Type (0, 0), BuildingBlock: ZUJKAS_clean_linker_0, # of connection points: 2
#     Edge 48, Type (0, 0), BuildingBlock: ZUJKAS_clean_linker_0, # of connection points: 2
#     Edge 49, Type (0, 0), BuildingBlock: ZUJKAS_clean_linker_0, # of connection points: 2
#     Edge 50, Type (0, 0), BuildingBlock: ZUJKAS_clean_linker_0, # of connection points: 2
#     Edge 51, Type (0, 0), BuildingBlock: ZUJKAS_clean_linker_0, # of connection points: 2
#     Edge 52, Type (0, 0), BuildingBlock: ZUJKAS_clean_linker_0, # of connection points: 2
#     Edge 53, Type (0, 0), BuildingBlock: ZUJKAS_clean_linker_0, # of connection points: 2
#     Edge 54, Type (0, 0), BuildingBlock: ZUJKAS_clean_linker_0, # of connection points: 2
#     Edge 55, Type (0, 0), BuildingBlock: ZUJKAS_clean_linker_0, # of connection points: 2
#     Edge 56, Type (0, 0), BuildingBlock: ZUJKAS_clean_linker_0, # of connection points: 2
#     Edge 57, Type (0, 0), BuildingBlock: ZUJKAS_clean_linker_0, # of connection points: 2
#     Edge 58, Type (0, 0), BuildingBlock: ZUJKAS_clean_linker_0, # of connection points: 2
#     Edge 59, Type (0, 0), BuildingBlock: ZUJKAS_clean_linker_0, # of connection points: 2
#     Edge 60, Type (0, 0), BuildingBlock: ZUJKAS_clean_linker_0, # of connection points: 2
#     Edge 61, Type (0, 0), BuildingBlock: ZUJKAS_clean_linker_0, # of connection points: 2
#     Edge 62, Type (0, 0), BuildingBlock: ZUJKAS_clean_linker_0, # of connection points: 2
#     Edge 63, Type (0, 0), BuildingBlock: ZUJKAS_clean_linker_0, # of connection points: 2
# Relax obj value: 0.277
# Max RMSD: 0.178
# Mean RMSD: 0.171
data_MOF--net-whw--node1-CUKXOW_clean_sbu_0--edge1-ZUJKAS_clean_linker_0
_symmetry_space_group_name_H-M    P1
_symmetry_Int_Tables_number       1
_symmetry_cell_setting            triclinic
loop_
_symmetry_equiv_pos_as_xyz
'x, y, z'
_cell_length_a     60.367776
_cell_length_b     60.642245
_cell_length_c     34.977475
_cell_angle_alpha  92.04257
_cell_angle_beta   90.06303
_cell_angle_gamma 89.962463
loop_
_atom_site_label
_atom_site_type_symbol
_atom_site_fract_x
_atom_site_fract_y
_atom_site_fract_z
_atom_type_partial_charge
Tb0 Tb 0.01483 0.12584 0.20369 0.0
C1 C 0.0405 0.09329 0.14985 0.0
Tb2 Tb 0.05119 0.145 0.16088 0.0
O3 O 0.99561 0.12212 0.1505 0.0
O4 O 0.01655 0.14898 0.15846 0.0
O5 O 0.02567 0.09463 0.17777 0.0
C6 C 0.07102 0.15911 0.09841 0.0
O7 O 0.05207 0.11065 0.13921 0.0
C8 C 0.06621 0.13512 0.22735 0.0
C9 C 0.03276 0.172 0.23035 0.0
O10 O 0.05249 0.14854 0.09929 0.0
O11 O 0.07866 0.16183 0.1329 0.0
O12 O 0.0759 0.14837 0.20431 0.0
O13 O 0.05059 0.12432 0.2097 0.0
O14 O 0.04112 0.17419 0.19554 0.0
O15 O 0.02359 0.15348 0.24033 0.0
C16 C 0.98298 0.11921 0.25538 0.0
O17 O 0.98412 0.13545 0.23247 0.0
O18 O -0.00035 0.10602 0.24856 0.0
C19 C 0.00373 0.13927 0.13457 0.0
Tb20 Tb 0.13413 0.72505 0.40987 0.0
C21 C 0.17421 0.73586 0.35441 0.0
Tb22 Tb 0.1316 0.76684 0.36182 0.0
O23 O 0.10853 0.70891 0.37427 0.0
O24 O 0.1293 0.73214 0.35083 0.0
O25 O 0.16702 0.72307 0.38215 0.0
C26 C 0.12639 0.79413 0.30539 0.0
O27 O 0.16242 0.75248 0.34146 0.0
C28 C 0.14249 0.77786 0.43405 0.0
C29 C 0.09328 0.75724 0.41679 0.0
O30 O 0.14502 0.79015 0.32224 0.0
O31 O 0.11057 0.78266 0.32011 0.0
O32 O 0.14032 0.79181 0.40701 0.0
O33 O 0.13963 0.75911 0.418 0.0
O34 O 0.09783 0.76348 0.38178 0.0
O35 O 0.10656 0.7437 0.43509 0.0
C36 C 0.1413 0.6975 0.46662 0.0
O37 O 0.12802 0.69391 0.43788 0.0
O38 O 0.1511 0.7163 0.46254 0.0
C39 C 0.11239 0.72029 0.34418 0.0
Tb40 Tb 0.529 0.84267 0.64257 0.0
C41 C 0.51207 0.88832 0.60902 0.0
Tb42 Tb 0.48977 0.84251 0.58854 0.0
O43 O 0.54859 0.82289 0.6008 0.0
O44 O 0.52465 0.84471 0.58262 0.0
O45 O 0.52661 0.87832 0.63153 0.0
C46 C 0.46992 0.84074 0.52106 0.0
O47 O 0.49584 0.87763 0.59074 0.0
C48 C 0.47785 0.83745 0.66057 0.0
C49 C 0.50411 0.79816 0.62206 0.0
O50 O 0.48933 0.83295 0.52856 0.0
O51 O 0.46109 0.84956 0.55199 0.0
O52 O 0.46609 0.83148 0.63078 0.0
O53 O 0.49428 0.84878 0.64905 0.0
O54 O 0.49494 0.80727 0.59227 0.0
O55 O 0.51622 0.8095 0.64745 0.0
C56 C 0.55513 0.84499 0.70463 0.0
O57 O 0.53518 0.8373 0.70291 0.0
O58 O 0.56062 0.85169 0.67102 0.0
C59 C 0.53817 0.83 0.57114 0.0
Tb60 Tb 0.43339 0.30016 0.86095 0.0
C61 C 0.45988 0.31405 0.93461 0.0
Tb62 Tb 0.42999 0.27043 0.93559 0.0
O63 O 0.41698 0.32885 0.88959 0.0
O64 O 0.41414 0.29782 0.91106 0.0
O65 O 0.45954 0.3147 0.89668 0.0
C66 C 0.43574 0.25175 1.00471 0.0
O67 O 0.44839 0.29974 0.95457 0.0
C68 C 0.4495 0.25218 0.87504 0.0
C69 C 0.39455 0.26502 0.86961 0.0
O70 O 0.45104 0.25955 0.9829 0.0
O71 O 0.41667 0.25486 0.98776 0.0
O72 O 0.44074 0.24121 0.90223 0.0
O73 O 0.44926 0.27242 0.88483 0.0
O74 O 0.39786 0.26389 0.90746 0.0
O75 O 0.40861 0.27485 0.84623 0.0
C76 C 0.44426 0.31389 0.78983 0.0
O77 O 0.42431 0.3123 0.80375 0.0
O78 O 0.45801 0.30787 0.81622 0.0
C79 C 0.40989 0.31786 0.9186 0.0
Tb80 Tb 0.01672 0.87644 0.83219 0.0
C81 C 0.04508 0.90674 0.88365 0.0
Tb82 Tb 0.05224 0.85445 0.87343 0.0
O83 O -0.00032 0.88695 0.8862 0.0
O84 O 0.01823 0.85846 0.8836 0.0
O85 O 0.03264 0.90656 0.85249 0.0
C86 C 0.08185 0.8436 0.92591 0.0
O87 O 0.05242 0.88822 0.89827 0.0
C88 C 0.06063 0.85468 0.80017 0.0
C89 C 0.0161 0.82587 0.8331 0.0
O90 O 0.06606 0.83088 0.91302 0.0
O91 O 0.081 0.86215 0.90894 0.0
O92 O 0.06802 0.84023 0.82329 0.0
O93 O 0.05135 0.87041 0.81945 0.0
O94 O 0.02845 0.82756 0.86454 0.0
O95 O 0.01505 0.84259 0.81031 0.0
C96 C 0.98755 0.88615 0.77757 0.0
O97 O 0.98322 0.87582 0.80844 0.0
O98 O 0.00828 0.8919 0.77819 0.0
C99 C 0.0079 0.87126 0.90627 0.0
Tb100 Tb 0.43071 0.69702 0.1733 0.0
C101 C 0.45958 0.68696 0.10095 0.0
Tb102 Tb 0.42048 0.72245 0.09675 0.0
O103 O 0.4229 0.66475 0.14565 0.0
O104 O 0.41019 0.69362 0.1245 0.0
O105 O 0.45964 0.6876 0.13902 0.0
C106 C 0.42484 0.73983 0.02669 0.0
O107 O 0.44473 0.69737 0.08014 0.0
C108 C 0.43515 0.74604 0.1556 0.0
C109 C 0.38474 0.72303 0.16233 0.0
O110 O 0.43967 0.73945 0.05354 0.0
O111 O 0.40694 0.73025 0.03931 0.0
O112 O 0.42292 0.7537 0.12866 0.0
O113 O 0.44042 0.72637 0.14663 0.0
O114 O 0.38778 0.72453 0.12446 0.0
O115 O 0.40025 0.71563 0.18603 0.0
C116 C 0.44326 0.68911 0.24628 0.0
O117 O 0.42688 0.6797 0.22773 0.0
O118 O 0.45249 0.7029 0.22356 0.0
C119 C 0.41179 0.67315 0.1176 0.0
Tb120 Tb 0.54097 0.13938 0.3903 0.0
C121 C 0.52032 0.0996 0.43625 0.0
Tb122 Tb 0.4981 0.14743 0.43813 0.0
O123 O 0.56002 0.15993 0.43163 0.0
O124 O 0.53237 0.14256 0.44944 0.0
O125 O 0.53543 0.10587 0.41092 0.0
C126 C 0.47461 0.16114 0.49835 0.0
O127 O 0.50495 0.11318 0.45083 0.0
C128 C 0.48811 0.14399 0.36351 0.0
C129 C 0.51816 0.18587 0.39242 0.0
O130 O 0.47257 0.14181 0.48133 0.0
O131 O 0.48968 0.17245 0.48149 0.0
O132 O 0.47353 0.14641 0.39083 0.0
O133 O 0.50649 0.14163 0.38053 0.0
O134 O 0.50765 0.18071 0.42404 0.0
O135 O 0.53127 0.17189 0.37338 0.0
C136 C 0.56652 0.12897 0.32986 0.0
O137 O 0.57384 0.13463 0.36383 0.0
O138 O 0.54508 0.1285 0.33069 0.0
C139 C 0.54683 0.15655 0.46035 0.0
Tb140 Tb 0.1489 0.2776 0.61455 0.0
C141 C 0.18991 0.25862 0.66012 0.0
Tb142 Tb 0.14177 0.23716 0.66357 0.0
O143 O 0.12783 0.29709 0.65493 0.0
O144 O 0.14678 0.27119 0.67389 0.0
O145 O 0.18289 0.27387 0.63631 0.0
C146 C 0.13193 0.21673 0.72693 0.0
O147 O 0.17673 0.24339 0.67413 0.0
C148 C 0.14564 0.2229 0.59146 0.0
C149 C 0.10319 0.25352 0.61216 0.0
O150 O 0.14911 0.21244 0.7056 0.0
O151 O 0.12002 0.23199 0.71189 0.0
O152 O 0.14319 0.21024 0.62045 0.0
O153 O 0.14703 0.24268 0.60486 0.0
O154 O 0.10815 0.24487 0.64542 0.0
O155 O 0.11776 0.26497 0.59286 0.0
C156 C 0.15676 0.30498 0.55764 0.0
O157 O 0.14605 0.30993 0.58893 0.0
O158 O 0.16389 0.28483 0.55926 0.0
C159 C 0.13237 0.28524 0.68415 0.0
Tb160 Tb 0.92661 0.20069 0.67103 0.0
C161 C 0.95431 0.18903 0.59762 0.0
Tb162 Tb 0.9196 0.22857 0.59495 0.0
O163 O 0.91424 0.16961 0.64401 0.0
O164 O 0.9075 0.19961 0.62051 0.0
O165 O 0.95432 0.1889 0.63564 0.0
C166 C 0.92755 0.24579 0.52551 0.0
O167 O 0.94084 0.20132 0.5774 0.0
C168 C 0.93536 0.25023 0.65537 0.0
C169 C 0.88328 0.23059 0.65926 0.0
O170 O 0.94205 0.24108 0.55141 0.0
O171 O 0.90792 0.24065 0.53871 0.0
O172 O 0.92531 0.25942 0.62738 0.0
O173 O 0.93846 0.23007 0.64646 0.0
O174 O 0.88668 0.23191 0.62145 0.0
O175 O 0.89809 0.22233 0.6834 0.0
C176 C 0.93943 0.18978 0.74283 0.0
O177 O 0.9196 0.18758 0.72834 0.0
O178 O 0.95198 0.19803 0.71667 0.0
C179 C 0.90583 0.17904 0.61428 0.0
Tb180 Tb 0.6437 0.78032 0.11845 0.0
C181 C 0.68114 0.76009 0.17051 0.0
Tb182 Tb 0.63187 0.74082 0.1669 0.0
O183 O 0.62229 0.8014 0.15622 0.0
O184 O 0.63845 0.77445 0.17738 0.0
O185 O 0.67649 0.77473 0.14401 0.0
C186 C 0.61834 0.71814 0.22546 0.0
O187 O 0.66608 0.74646 0.18409 0.0
C188 C 0.63948 0.72545 0.09678 0.0
C189 C 0.59774 0.75722 0.10732 0.0
O190 O 0.63592 0.71377 0.20528 0.0
O191 O 0.60832 0.73537 0.21273 0.0
O192 O 0.63503 0.71341 0.12571 0.0
O193 O 0.64093 0.74539 0.10925 0.0
O194 O 0.59988 0.74957 0.14224 0.0
O195 O 0.61396 0.76802 0.09102 0.0
C196 C 0.65468 0.80636 0.06104 0.0
O197 O 0.64138 0.81153 0.08907 0.0
O198 O 0.66286 0.78694 0.06684 0.0
C199 C 0.62465 0.78932 0.18588 0.0
Tb200 Tb 0.639 0.21926 0.91853 0.0
C201 C 0.67791 0.23851 0.86775 0.0
Tb202 Tb 0.62936 0.25913 0.86798 0.0
O203 O 0.61729 0.19873 0.88073 0.0
O204 O 0.6348 0.22498 0.85925 0.0
O205 O 0.67218 0.22403 0.89391 0.0
C206 C 0.61548 0.27948 0.80682 0.0
O207 O 0.66382 0.25282 0.85319 0.0
C208 C 0.63614 0.27375 0.93936 0.0
C209 C 0.59254 0.24236 0.92326 0.0
O210 O 0.63318 0.28476 0.82626 0.0
O211 O 0.60562 0.26294 0.82201 0.0
O212 O 0.63222 0.28634 0.91075 0.0
O213 O 0.63706 0.2541 0.92563 0.0
O214 O 0.5966 0.25118 0.88979 0.0
O215 O 0.60753 0.23066 0.94133 0.0
C216 C 0.65047 0.19521 0.97819 0.0
O217 O 0.64266 0.1873 0.94586 0.0
O218 O 0.65259 0.21638 0.97597 0.0
C219 C 0.62055 0.21041 0.8507 0.0
Tb220 Tb 0.93103 0.7951 0.36003 0.0
C221 C 0.9587 0.80745 0.43335 0.0
Tb222 Tb 0.92532 0.76656 0.43487 0.0
O223 O 0.91846 0.82542 0.38868 0.0
O224 O 0.91129 0.79484 0.40984 0.0
O225 O 0.95809 0.80798 0.39539 0.0
C226 C 0.93079 0.74783 0.50366 0.0
O227 O 0.94644 0.79395 0.45356 0.0
C228 C 0.943 0.74647 0.37468 0.0
C229 C 0.88958 0.76266 0.36923 0.0
O230 O 0.94559 0.74978 0.47712 0.0
O231 O 0.91235 0.75661 0.49148 0.0
O232 O 0.93271 0.73645 0.40147 0.0
O233 O 0.94494 0.76665 0.38428 0.0
O234 O 0.89302 0.76087 0.40693 0.0
O235 O 0.90387 0.77231 0.34598 0.0
C236 C 0.94288 0.80789 0.28926 0.0
O237 O 0.92339 0.81033 0.30486 0.0
O238 O 0.95561 0.7982 0.3136 0.0
C239 C 0.90987 0.81531 0.41744 0.0
Tb240 Tb 0.52174 0.62539 0.70477 0.0
C241 C 0.54638 0.59495 0.64719 0.0
Tb242 Tb 0.55803 0.64604 0.66243 0.0
O243 O 0.50314 0.62042 0.651 0.0
O244 O 0.52326 0.6479 0.65879 0.0
O245 O 0.53464 0.595 0.67918 0.0
C246 C 0.58075 0.66329 0.60614 0.0
O247 O 0.55474 0.61339 0.63372 0.0
C248 C 0.57194 0.63633 0.72996 0.0
C249 C 0.53807 0.67277 0.7317 0.0
O250 O 0.58656 0.64588 0.62413 0.0
O251 O 0.56232 0.67097 0.62002 0.0
O252 O 0.58141 0.6504 0.70819 0.0
O253 O 0.55726 0.62533 0.71084 0.0
O254 O 0.54864 0.67469 0.69875 0.0
O255 O 0.52776 0.65451 0.74037 0.0
C256 C 0.49028 0.61563 0.75525 0.0
O257 O 0.48869 0.62994 0.72882 0.0
O258 O 0.50962 0.6062 0.75277 0.0
C259 C 0.51106 0.6376 0.63476 0.0
Tb260 Tb 0.04476 0.35051 0.14104 0.0
C261 C 0.02442 0.38983 0.09401 0.0
Tb262 Tb 0.00245 0.34172 0.09244 0.0
O263 O 0.06458 0.33045 0.10034 0.0
O264 O 0.03673 0.34702 0.08169 0.0
O265 O 0.03997 0.38356 0.11853 0.0
C266 C 0.97999 0.32897 0.03041 0.0
O267 O 0.00862 0.37632 0.08055 0.0
C268 C 0.99163 0.34582 0.16653 0.0
C269 C 0.02157 0.30409 0.14144 0.0
O270 O 0.97469 0.34572 0.05291 0.0
O271 O 0.99765 0.31946 0.04318 0.0
O272 O 0.97745 0.34291 0.13866 0.0
O273 O 0.01032 0.348 0.15048 0.0
O274 O 0.00993 0.30846 0.1105 0.0
O275 O 0.03387 0.31897 0.16015 0.0
C276 C 0.07244 0.36094 0.19873 0.0
O277 O 0.07707 0.34825 0.16917 0.0
O278 O 0.0524 0.36841 0.19511 0.0
C279 C 0.05152 0.33325 0.07135 0.0
Tb280 Tb 0.51292 0.38234 0.32781 0.0
C281 C 0.54201 0.406 0.38734 0.0
Tb282 Tb 0.54359 0.35345 0.36916 0.0
O283 O 0.49503 0.38968 0.38203 0.0
O284 O 0.50937 0.35898 0.37181 0.0
O285 O 0.53118 0.40902 0.35505 0.0
C286 C 0.56247 0.33231 0.42577 0.0
O287 O 0.54652 0.38591 0.39942 0.0
C288 C 0.55857 0.36023 0.30116 0.0
C289 C 0.51591 0.33219 0.30223 0.0
O290 O 0.57207 0.34715 0.40575 0.0
O291 O 0.54247 0.32915 0.41338 0.0
O292 O 0.5642 0.3437 0.32162 0.0
O293 O 0.54776 0.37452 0.32173 0.0
O294 O 0.5274 0.32783 0.33348 0.0
O295 O 0.5097 0.35223 0.29426 0.0
C296 C 0.48806 0.39809 0.27118 0.0
O297 O 0.48065 0.38977 0.30232 0.0
O298 O 0.50952 0.39891 0.27343 0.0
C299 C 0.49934 0.37076 0.39677 0.0
Tb300 Tb 0.02724 0.64723 0.88878 0.0
C301 C 0.01423 0.60017 0.92238 0.0
Tb302 Tb 0.98586 0.64276 0.94295 0.0
O303 O 0.05229 0.65517 0.93376 0.0
O304 O 0.01982 0.65001 0.94706 0.0
O305 O 0.02867 0.61184 0.90223 0.0
C306 C 0.96268 0.64153 1.00764 0.0
O307 O 0.99599 0.60863 0.93824 0.0
C308 C 0.97582 0.64624 0.86913 0.0
C309 C 0.9973 0.68698 0.91454 0.0
O310 O 0.97999 0.62961 0.99934 0.0
O311 O 0.9579 0.65343 0.97863 0.0
O312 O 0.96191 0.64956 0.89723 0.0
O313 O 0.9932 0.63801 0.88347 0.0
O314 O 0.99645 0.67654 0.94679 0.0
O315 O 0.00812 0.6779 0.88486 0.0
C316 C 0.05241 0.64907 0.82638 0.0
O317 O 0.05 0.66484 0.85212 0.0
O318 O 0.04061 0.63219 0.83573 0.0
C319 C 0.03829 0.65477 0.96197 0.0
H320 H 0.05497 0.15385 0.02678 0.0
H321 H 0.07275 0.16392 0.96734 0.0
H322 H 0.12873 0.19008 0.03088 0.0
H323 H 0.11086 0.17999 0.09106 0.0
H324 H 0.11069 0.21783 0.97165 0.0
H325 H 0.12793 0.13223 0.91952 0.0
H326 H 0.09995 0.13602 0.93589 0.0
H327 H 0.12251 0.13939 0.96924 0.0
C328 C 0.07109 0.16171 0.02813 0.0
C329 C 0.08171 0.16603 0.06327 0.0
C330 C 0.08123 0.16735 0.99422 0.0
C331 C 0.10216 0.1773 0.99492 0.0
C332 C 0.11264 0.18217 0.03001 0.0
H333 H 0.15993 0.19126 0.76744 0.0
H334 H 0.15685 0.18282 0.83526 0.0
C335 C 0.10247 0.17646 0.06416 0.0
C336 C 0.11253 0.18291 0.95854 0.0
H337 H 0.12605 0.15973 0.87161 0.0
C338 C 0.11455 0.2052 0.94993 0.0
C339 C 0.11788 0.16633 0.9307 0.0
C340 C 0.11719 0.14214 0.93938 0.0
C341 C 0.12024 0.21136 0.91299 0.0
C342 C 0.12354 0.19471 0.88417 0.0
C343 C 0.12318 0.17245 0.89366 0.0
C344 C 0.12562 0.1999 0.84352 0.0
C345 C 0.12209 0.2356 0.90501 0.0
C346 C 0.10872 0.21163 0.82565 0.0
C347 C 0.11043 0.21642 0.78715 0.0
C348 C 0.12891 0.20924 0.76587 0.0
C349 C 0.14545 0.19683 0.78334 0.0
C350 C 0.14381 0.19216 0.822 0.0
H351 H 0.12682 0.24539 0.93122 0.0
H352 H 0.13447 0.23858 0.8823 0.0
H353 H 0.10576 0.24177 0.8954 0.0
H354 H 0.0942 0.21711 0.8415 0.0
H355 H 0.09748 0.22606 0.77424 0.0
H356 H 0.15795 0.79982 0.2524 0.0
H357 H 0.15294 0.8146 0.18924 0.0
H358 H 0.08553 0.83248 0.2182 0.0
H359 H 0.09007 0.81579 0.28048 0.0
H360 H 0.08478 0.81132 0.15666 0.0
H361 H 0.15183 0.87157 0.14108 0.0
H362 H 0.16394 0.84602 0.1543 0.0
H363 H 0.14521 0.86043 0.18679 0.0
C364 C 0.14224 0.80736 0.24547 0.0
C365 C 0.12433 0.80668 0.2708 0.0
C366 C 0.13945 0.81607 0.20953 0.0
C367 C 0.11898 0.82505 0.19908 0.0
C368 C 0.10149 0.82565 0.22563 0.0
H369 H 0.09884 0.87556 0.97284 0.0
H370 H 0.10941 0.87171 0.03951 0.0
C371 C 0.10405 0.81618 0.26109 0.0
C372 C 0.11489 0.83052 0.15885 0.0
H373 H 0.13863 0.85368 0.08154 0.0
C374 C 0.09635 0.821 0.14052 0.0
C375 C 0.12975 0.84337 0.1377 0.0
C376 C 0.14862 0.85611 0.15625 0.0
C377 C 0.09263 0.82334 0.10149 0.0
C378 C 0.10869 0.83429 0.07965 0.0
C379 C 0.12677 0.8446 0.09812 0.0
C380 C 0.10628 0.8361 0.03792 0.0
C381 C 0.07131 0.81437 0.08444 0.0
C382 C 0.10234 0.81725 1.01439 0.0
C383 C 0.09562 0.81947 0.97658 0.0
C384 C 0.09375 0.8405 0.96166 0.0
C385 C 0.10016 0.85914 0.98388 0.0
C386 C 0.10618 0.85698 0.02196 0.0
H387 H 0.05816 0.81322 0.1065 0.0
H388 H 0.06506 0.82488 0.06141 0.0
H389 H 0.07423 0.79748 0.07225 0.0
H390 H 0.10322 0.80092 0.02586 0.0
H391 H 0.09094 0.8049 0.95964 0.0
H392 H 0.40272 0.77134 0.1868 0.0
H393 H 0.40187 0.78929 0.25032 0.0
H394 H 0.46571 0.76125 0.27563 0.0
H395 H 0.46666 0.74317 0.2115 0.0
H396 H 0.43245 0.7593 0.33601 0.0
H397 H 0.44201 0.84301 0.27768 0.0
H398 H 0.41977 0.82651 0.25796 0.0
H399 H 0.44794 0.8181 0.24976 0.0
C400 C 0.41659 0.76899 0.20591 0.0
C401 C 0.43479 0.75587 0.19451 0.0
C402 C 0.41604 0.77922 0.24212 0.0
C403 C 0.43382 0.77677 0.26729 0.0
C404 C 0.45183 0.76327 0.2564 0.0
H405 H 0.49136 0.84052 0.45424 0.0
H406 H 0.47729 0.82753 0.39214 0.0
C407 C 0.45235 0.75291 0.22003 0.0
C408 C 0.43399 0.78905 0.3044 0.0
H409 H 0.43874 0.84095 0.34448 0.0
C410 C 0.43354 0.77716 0.33801 0.0
C411 C 0.43538 0.81235 0.30657 0.0
C412 C 0.43647 0.82581 0.27114 0.0
C413 C 0.43515 0.78799 0.37398 0.0
C414 C 0.43711 0.81124 0.3761 0.0
C415 C 0.43682 0.82316 0.34254 0.0
C416 C 0.44375 0.82282 0.41198 0.0
C417 C 0.43601 0.7745 0.40938 0.0
C418 C 0.42921 0.82536 0.44315 0.0
C419 C 0.4372 0.83313 0.47876 0.0
C420 C 0.45979 0.83803 0.4832 0.0
C421 C 0.47387 0.83679 0.45135 0.0
C422 C 0.46588 0.82939 0.41594 0.0
H423 H 0.43561 0.75648 0.40252 0.0
H424 H 0.45132 0.7784 0.42589 0.0
H425 H 0.42166 0.77879 0.42802 0.0
H426 H 0.41204 0.82039 0.44034 0.0
H427 H 0.42618 0.83381 0.50319 0.0
H428 H 0.44494 0.27101 0.80608 0.0
H429 H 0.44882 0.25355 0.74261 0.0
H430 H 0.46477 0.19198 0.79422 0.0
H431 H 0.46164 0.21001 0.85799 0.0
H432 H 0.4872 0.2281 0.7105 0.0
H433 H 0.40896 0.1802 0.72292 0.0
H434 H 0.41484 0.20436 0.75291 0.0
H435 H 0.42862 0.17879 0.76152 0.0
C436 C 0.4503 0.25421 0.80386 0.0
C437 C 0.45377 0.24224 0.83677 0.0
C438 C 0.45206 0.24402 0.76766 0.0
C439 C 0.45698 0.22149 0.7639 0.0
C440 C 0.4608 0.2094 0.79668 0.0
H441 H 0.46624 0.13592 0.55952 0.0
H442 H 0.46019 0.14994 0.62549 0.0
C443 C 0.45912 0.21971 0.83293 0.0
C444 C 0.45761 0.2107 0.72553 0.0
H445 H 0.42898 0.17553 0.66533 0.0
C446 C 0.47455 0.21655 0.70056 0.0
C447 C 0.44103 0.19566 0.713 0.0
C448 C 0.4222 0.18939 0.73877 0.0
C449 C 0.47536 0.20777 0.66303 0.0
C450 C 0.45848 0.19308 0.65009 0.0
C451 C 0.44177 0.18687 0.67536 0.0
C452 C 0.45804 0.18418 0.61024 0.0
C453 C 0.49438 0.21418 0.63768 0.0
C454 C 0.45743 0.19865 0.57987 0.0
C455 C 0.46129 0.19076 0.54262 0.0
C456 C 0.46496 0.1682 0.5351 0.0
C457 C 0.46325 0.15338 0.56482 0.0
C458 C 0.45994 0.16138 0.60239 0.0
H459 H 0.50847 0.22123 0.65446 0.0
H460 H 0.50037 0.19977 0.62015 0.0
H461 H 0.48873 0.22701 0.61805 0.0
H462 H 0.45521 0.21621 0.58525 0.0
H463 H 0.46246 0.20241 0.51993 0.0
H464 H 0.91967 0.83319 0.23915 0.0
H465 H 0.93086 0.8443 0.175 0.0
H466 H 0.9922 0.80873 0.18608 0.0
H467 H 0.98121 0.79784 0.25033 0.0
H468 H 0.97232 0.8682 0.1533 0.0
H469 H 0.96454 0.78533 0.08154 0.0
H470 H 0.95074 0.79243 0.12612 0.0
H471 H 0.97992 0.78681 0.12564 0.0
C472 C 0.93554 0.82772 0.22792 0.0
C473 C 0.94951 0.81459 0.25002 0.0
C474 C 0.94196 0.83412 0.19118 0.0
C475 C 0.96235 0.82726 0.17526 0.0
C476 C 0.9763 0.81411 0.19732 0.0
H477 H 0.02531 0.83925 0.95065 0.0
H478 H 0.01488 0.82969 1.01566 0.0
C479 C 0.97001 0.80794 0.23421 0.0
C480 C 0.96912 0.834 0.13591 0.0
H481 H 0.97917 0.81373 0.04483 0.0
C482 C 0.97374 0.8563 0.12954 0.0
C483 C 0.97126 0.81854 0.10478 0.0
C484 C 0.96624 0.79443 0.10951 0.0
C485 C 0.98075 0.86345 0.09341 0.0
C486 C 0.9825 0.84805 0.06192 0.0
C487 C 0.97786 0.82571 0.06848 0.0
C488 C 0.98928 0.85458 0.02223 0.0
C489 C 0.98699 0.88738 0.08993 0.0
C490 C 0.97851 0.87178 1.00338 0.0
C491 C 0.98478 0.87752 0.96621 0.0
C492 C 0.00167 0.86592 0.94639 0.0
C493 C 0.01227 0.84859 0.96499 0.0
C494 C 0.00622 0.84305 1.0023 0.0
H495 H 0.99182 0.89502 0.11806 0.0
H496 H 0.00094 0.88932 0.06966 0.0
H497 H 0.97249 0.89663 0.07935 0.0
H498 H 0.96495 0.88061 1.01714 0.0
H499 H 0.97609 0.8908 0.95269 0.0
H500 H 0.97833 0.20112 0.77943 0.0
H501 H 0.98964 0.19392 0.84541 0.0
H502 H 0.92782 0.1606 0.86388 0.0
H503 H 0.91625 0.1681 0.79807 0.0
H504 H 0.96072 0.20501 0.92129 0.0
H505 H 0.98347 0.11711 0.89238 0.0
H506 H 0.9845 0.13724 0.85552 0.0
H507 H 0.95828 0.12739 0.87171 0.0
C508 C 0.96711 0.19224 0.79748 0.0
C509 C 0.94637 0.18512 0.78314 0.0
C510 C 0.9736 0.18818 0.83538 0.0
C511 C 0.95969 0.17662 0.85997 0.0
C512 C 0.93896 0.16949 0.8457 0.0
H513 H 0.97571 0.11856 0.08374 0.0
H514 H 0.96549 0.12873 0.01917 0.0
C515 C 0.93234 0.17379 0.80794 0.0
C516 C 0.96686 0.17187 0.90026 0.0
H517 H 0.98598 0.13055 0.95605 0.0
C518 C 0.9663 0.18874 0.92891 0.0
C519 C 0.97408 0.15067 0.91057 0.0
C520 C 0.97529 0.13196 0.8811 0.0
C521 C 0.97217 0.1849 0.96741 0.0
C522 C 0.97963 0.16364 0.97784 0.0
C523 C 0.98036 0.14687 0.94881 0.0
C524 C 0.98589 0.15806 0.01854 0.0
C525 C 0.96941 0.20356 0.99668 0.0
C526 C 0.00093 0.17094 0.04089 0.0
C527 C 0.00647 0.16532 0.07866 0.0
C528 C 0.99769 0.14628 0.09492 0.0
C529 C 0.98289 0.13334 0.07244 0.0
C530 C 0.97707 0.13913 0.03512 0.0
H531 H 0.95732 0.21602 0.98698 0.0
H532 H 0.96372 0.19745 0.02455 0.0
H533 H 0.98555 0.21203 1.00104 0.0
H534 H 0.00869 0.18525 0.02906 0.0
H535 H 0.01784 0.17579 0.09494 0.0
H536 H 0.63099 0.23017 0.78348 0.0
H537 H 0.61645 0.2218 0.71904 0.0
H538 H 0.57537 0.17068 0.7638 0.0
H539 H 0.58951 0.17938 0.82841 0.0
H540 H 0.61905 0.18252 0.67568 0.0
H541 H 0.53038 0.20287 0.70011 0.0
H542 H 0.55201 0.21272 0.73204 0.0
H543 H 0.54256 0.18466 0.73342 0.0
C544 C 0.61864 0.21733 0.77973 0.0
C545 C 0.6113 0.20561 0.8114 0.0
C546 C 0.61036 0.21247 0.7427 0.0
C547 C 0.59443 0.19579 0.73615 0.0
C548 C 0.58717 0.184 0.7678 0.0
H549 H 0.5279 0.14206 0.52698 0.0
H550 H 0.53899 0.15135 0.59335 0.0
C551 C 0.59543 0.18888 0.80486 0.0
C552 C 0.58627 0.19013 0.69613 0.0
H553 H 0.53973 0.18666 0.63973 0.0
C554 C 0.6017 0.18355 0.66786 0.0
C555 C 0.56358 0.19107 0.68561 0.0
C556 C 0.54613 0.19837 0.7142 0.0
C557 C 0.5952 0.1777 0.63 0.0
C558 C 0.57256 0.17918 0.61905 0.0
C559 C 0.55707 0.18558 0.64749 0.0
C560 C 0.5648 0.17429 0.57841 0.0
C561 C 0.61276 0.16922 0.60252 0.0
C562 C 0.57487 0.1845 0.5473 0.0
C563 C 0.56872 0.17898 0.50934 0.0
C564 C 0.55193 0.16342 0.5011 0.0
C565 C 0.54101 0.15399 0.53214 0.0
C566 C 0.54737 0.15934 0.57025 0.0
H567 H 0.62701 0.16204 0.61792 0.0
H568 H 0.60606 0.15642 0.58218 0.0
H569 H 0.61916 0.18313 0.58599 0.0
H570 H 0.58771 0.19671 0.55228 0.0
H571 H 0.5773 0.18684 0.4863 0.0
H572 H 0.56618 0.79783 0.5433 0.0
H573 H 0.57939 0.79147 0.47754 0.0
H574 H 0.53954 0.84584 0.44097 0.0
H575 H 0.52683 0.85266 0.50694 0.0
H576 H 0.55825 0.78084 0.41066 0.0
H577 H 0.5989 0.86213 0.39728 0.0
H578 H 0.58931 0.85247 0.44255 0.0
H579 H 0.57006 0.86396 0.40937 0.0
C580 C 0.56024 0.80847 0.52126 0.0
C581 C 0.54536 0.82572 0.53055 0.0
C582 C 0.5678 0.80478 0.48353 0.0
C583 C 0.56086 0.81836 0.45395 0.0
C584 C 0.54565 0.83538 0.46309 0.0
H585 H 0.59377 0.82057 0.20823 0.0
H586 H 0.57767 0.82728 0.27215 0.0
C587 C 0.53812 0.8391 0.50089 0.0
C588 C 0.56948 0.81453 0.4138 0.0
H589 H 0.59727 0.83913 0.34116 0.0
C590 C 0.56682 0.79362 0.3956 0.0
C591 C 0.58069 0.8311 0.39365 0.0
C592 C 0.58513 0.85362 0.41176 0.0
C593 C 0.57473 0.78894 0.35815 0.0
C594 C 0.58611 0.80544 0.33815 0.0
C595 C 0.58859 0.82641 0.35618 0.0
C596 C 0.59583 0.80117 0.29889 0.0
C597 C 0.57045 0.76642 0.34002 0.0
C598 C 0.61172 0.78446 0.29223 0.0
C599 C 0.62096 0.78065 0.25568 0.0
C600 C 0.61464 0.79345 0.22466 0.0
C601 C 0.59894 0.81032 0.23135 0.0
C602 C 0.58973 0.81418 0.26799 0.0
H603 H 0.55688 0.75768 0.35464 0.0
H604 H 0.56617 0.76759 0.30928 0.0
H605 H 0.58568 0.75634 0.34212 0.0
H606 H 0.61728 0.7745 0.31547 0.0
H607 H 0.63325 0.76774 0.25181 0.0
H608 H 0.58472 0.72856 0.27428 0.0
H609 H 0.58038 0.71558 0.33946 0.0
H610 H 0.63616 0.6719 0.32245 0.0
H611 H 0.64041 0.68444 0.2571 0.0
H612 H 0.59316 0.65695 0.36726 0.0
H613 H 0.63617 0.73449 0.41446 0.0
H614 H 0.61348 0.73717 0.38157 0.0
H615 H 0.63819 0.72302 0.3662 0.0
C616 C 0.59567 0.71579 0.28417 0.0
C617 C 0.61304 0.70762 0.26117 0.0
C618 C 0.59322 0.7085 0.32121 0.0
C619 C 0.60821 0.69317 0.33541 0.0
C620 C 0.62456 0.68382 0.31164 0.0
H621 H 0.61479 0.64397 0.56663 0.0
H622 H 0.62549 0.65134 0.50064 0.0
C623 C 0.62695 0.69101 0.27453 0.0
C624 C 0.6083 0.68881 0.37622 0.0
H625 H 0.62122 0.71266 0.46298 0.0
C626 C 0.59947 0.66893 0.38832 0.0
C627 C 0.61674 0.70459 0.40306 0.0
C628 C 0.62685 0.72599 0.39083 0.0
C629 C 0.59799 0.66477 0.42732 0.0
C630 C 0.60597 0.6808 0.45426 0.0
C631 C 0.61535 0.70042 0.44198 0.0
C632 C 0.60252 0.67847 0.49533 0.0
C633 C 0.58714 0.64372 0.4395 0.0
C634 C 0.58694 0.69205 0.51417 0.0
C635 C 0.58092 0.68798 0.55158 0.0
C636 C 0.59049 0.67031 0.57043 0.0
C637 C 0.60723 0.65769 0.55247 0.0
C638 C 0.61324 0.66176 0.51492 0.0
H639 H 0.57835 0.63504 0.41545 0.0
H640 H 0.60001 0.63248 0.45041 0.0
H641 H 0.57513 0.64719 0.46297 0.0
H642 H 0.57859 0.70504 0.49925 0.0
H643 H 0.56796 0.69791 0.56497 0.0
H644 H 0.58044 0.26735 0.76263 0.0
H645 H 0.57248 0.27887 0.69777 0.0
H646 H 0.62845 0.32307 0.70334 0.0
H647 H 0.63662 0.31153 0.7684 0.0
H648 H 0.56572 0.32325 0.66801 0.0
H649 H 0.63992 0.27857 0.61049 0.0
H650 H 0.62834 0.27324 0.65682 0.0
H651 H 0.64431 0.29775 0.6502 0.0
C652 C 0.59083 0.27979 0.75024 0.0
C653 C 0.60918 0.28854 0.77018 0.0
C654 C 0.58627 0.28631 0.71331 0.0
C655 C 0.60006 0.30157 0.69594 0.0
C656 C 0.61782 0.31109 0.7164 0.0
H657 H 0.60103 0.34359 0.46152 0.0
H658 H 0.61104 0.33611 0.52772 0.0
C659 C 0.62239 0.30457 0.75343 0.0
C660 C 0.59646 0.30647 0.65563 0.0
H661 H 0.61766 0.29687 0.56632 0.0
C662 C 0.57708 0.31763 0.6457 0.0
C663 C 0.61139 0.29898 0.62693 0.0
C664 C 0.63212 0.28633 0.63639 0.0
C665 C 0.57217 0.32152 0.60743 0.0
C666 C 0.58688 0.31358 0.57863 0.0
C667 C 0.60646 0.3028 0.58864 0.0
C668 C 0.58206 0.31616 0.53784 0.0
C669 C 0.5514 0.3342 0.59823 0.0
C670 C 0.56303 0.30653 0.52148 0.0
C671 C 0.55732 0.31074 0.48387 0.0
C672 C 0.5707 0.32447 0.46219 0.0
C673 C 0.5905 0.33292 0.47779 0.0
C674 C 0.59616 0.32876 0.5155 0.0
H675 H 0.54549 0.34428 0.62332 0.0
H676 H 0.55418 0.34527 0.57408 0.0
H677 H 0.53806 0.3224 0.58988 0.0
H678 H 0.55226 0.29632 0.53818 0.0
H679 H 0.54197 0.30403 0.47234 0.0
H680 H 0.99067 0.29448 0.98309 0.0
H681 H 0.97675 0.28651 0.91855 0.0
H682 H 0.93222 0.34201 0.92932 0.0
H683 H 0.94615 0.35016 0.99454 0.0
H684 H 0.91596 0.29569 0.8928 0.0
H685 H 0.99132 0.33336 0.83132 0.0
H686 H 0.99549 0.31626 0.8717 0.0
H687 H 0.98042 0.34162 0.87784 0.0
C688 C 0.97769 0.30481 0.97199 0.0
C689 C 0.96951 0.32298 0.99358 0.0
C690 C 0.96978 0.30025 0.93519 0.0
C691 C 0.95365 0.3138 0.91935 0.0
C692 C 0.94471 0.33144 0.9413 0.0
H693 H 0.94077 0.29388 0.67097 0.0
H694 H 0.94136 0.31297 0.73397 0.0
C695 C 0.95265 0.33604 0.97836 0.0
C696 C 0.94745 0.30997 0.87897 0.0
H697 H 0.97047 0.30927 0.79012 0.0
C698 C 0.92758 0.29903 0.87009 0.0
C699 C 0.96249 0.31478 0.84956 0.0
C700 C 0.98359 0.32734 0.85781 0.0
C701 C 0.92309 0.29138 0.83255 0.0
C702 C 0.93919 0.29435 0.80375 0.0
C703 C 0.95826 0.30676 0.81229 0.0
C704 C 0.93765 0.28316 0.76562 0.0
C705 C 0.90139 0.2798 0.82432 0.0
C706 C 0.93574 0.26012 0.76258 0.0
C707 C 0.93535 0.24934 0.72674 0.0
C708 C 0.93745 0.26119 0.69341 0.0
C709 C 0.93946 0.28427 0.6964 0.0
C710 C 0.93968 0.29518 0.73226 0.0
H711 H 0.88822 0.28597 0.84412 0.0
H712 H 0.89586 0.28205 0.79442 0.0
H713 H 0.90343 0.26188 0.82875 0.0
H714 H 0.93459 0.25041 0.7879 0.0
H715 H 0.93245 0.23194 0.72516 0.0
H716 H 0.937 0.76309 0.30368 0.0
H717 H 0.93999 0.74314 0.24203 0.0
H718 H 0.9595 0.68453 0.29964 0.0
H719 H 0.95705 0.70478 0.3615 0.0
H720 H 0.98442 0.70569 0.22063 0.0
H721 H 0.89491 0.68296 0.2223 0.0
H722 H 0.90387 0.70974 0.24044 0.0
H723 H 0.91072 0.68564 0.26613 0.0
C724 C 0.94294 0.74639 0.30314 0.0
C725 C 0.94755 0.73577 0.33717 0.0
C726 C 0.9442 0.73484 0.26799 0.0
C727 C 0.94995 0.71245 0.2666 0.0
C728 C 0.95508 0.70186 0.30039 0.0
H729 H 0.9773 0.62327 0.07292 0.0
H730 H 0.97253 0.63864 0.13806 0.0
C731 C 0.95375 0.71343 0.33551 0.0
C732 C 0.94977 0.69988 0.22992 0.0
H733 H 0.91578 0.67086 0.16857 0.0
C734 C 0.96951 0.69794 0.20921 0.0
C735 C 0.93015 0.6901 0.21536 0.0
C736 C 0.90861 0.69209 0.23702 0.0
C737 C 0.97012 0.68651 0.17372 0.0
C738 C 0.95055 0.67639 0.15923 0.0
C739 C 0.93077 0.67841 0.18004 0.0
C740 C 0.95024 0.6646 0.12155 0.0
C741 C 0.9915 0.68604 0.15143 0.0
C742 C 0.93811 0.67325 0.09132 0.0
C743 C 0.94062 0.66437 0.05419 0.0
C744 C 0.95526 0.64671 0.04696 0.0
C745 C 0.96591 0.6369 0.07776 0.0
C746 C 0.96338 0.64578 0.11487 0.0
H747 H 0.00364 0.69835 0.16293 0.0
H748 H -0.00087 0.66944 0.15294 0.0
H749 H 0.9883 0.68936 0.12091 0.0
H750 H 0.92776 0.68769 0.09606 0.0
H751 H 0.93227 0.67226 0.0309 0.0
H752 H 0.49999 0.32946 0.42752 0.0
H753 H 0.49216 0.31947 0.49352 0.0
H754 H 0.4781 0.38759 0.52346 0.0
H755 H 0.48666 0.39769 0.45772 0.0
H756 H 0.50256 0.36884 0.57951 0.0
H757 H 0.4321 0.31353 0.54291 0.0
H758 H 0.4574 0.3059 0.51901 0.0
H759 H 0.44415 0.3316 0.50872 0.0
C760 C 0.49546 0.34237 0.44821 0.0
C761 C 0.49412 0.36444 0.43706 0.0
C762 C 0.49066 0.33658 0.48606 0.0
C763 C 0.48409 0.35263 0.51396 0.0
C764 C 0.48298 0.37474 0.50287 0.0
H765 H 0.41701 0.32772 0.73203 0.0
H766 H 0.42713 0.33714 0.66657 0.0
C767 C 0.4878 0.38052 0.46503 0.0
C768 C 0.47846 0.34654 0.55451 0.0
H769 H 0.44416 0.3143 0.60743 0.0
C770 C 0.48976 0.35692 0.58549 0.0
C771 C 0.4616 0.33113 0.563 0.0
C772 C 0.44794 0.32002 0.53174 0.0
C773 C 0.48485 0.35232 0.62404 0.0
C774 C 0.4683 0.33655 0.63253 0.0
C775 C 0.45692 0.32628 0.60152 0.0
C776 C 0.46221 0.3308 0.67312 0.0
C777 C 0.49707 0.36503 0.65533 0.0
C778 C 0.47828 0.32372 0.69929 0.0
C779 C 0.47249 0.31849 0.73699 0.0
C780 C 0.45037 0.31988 0.74975 0.0
C781 C 0.43421 0.32658 0.72347 0.0
C782 C 0.44003 0.33192 0.6858 0.0
H783 H 0.50419 0.3806 0.64488 0.0
H784 H 0.48601 0.36913 0.6799 0.0
H785 H 0.51097 0.35484 0.66565 0.0
H786 H 0.49539 0.32194 0.69049 0.0
H787 H 0.48538 0.31312 0.75611 0.0
H788 H 0.48647 0.61462 0.58135 0.0
H789 H 0.47622 0.62494 0.51663 0.0
H790 H 0.51197 0.68605 0.53254 0.0
H791 H 0.52187 0.67594 0.59787 0.0
H792 H 0.45195 0.6622 0.49375 0.0
H793 H 0.53585 0.66178 0.42857 0.0
H794 H 0.53011 0.64869 0.47307 0.0
H795 H 0.53271 0.67814 0.4721 0.0
C796 C 0.49224 0.63026 0.57115 0.0
C797 C 0.50529 0.64428 0.59495 0.0
C798 C 0.48636 0.63615 0.53393 0.0
C799 C 0.49351 0.65617 0.519 0.0
C800 C 0.50655 0.67029 0.54273 0.0
H801 H 0.47371 0.71194 0.29077 0.0
H802 H 0.48539 0.70498 0.35654 0.0
C803 C 0.51228 0.66447 0.58024 0.0
C804 C 0.48655 0.66238 0.47928 0.0
H805 H 0.50613 0.67263 0.38954 0.0
C806 C 0.46385 0.66446 0.47101 0.0
C807 C 0.50193 0.66565 0.44935 0.0
C808 C 0.52651 0.66333 0.45589 0.0
C809 C 0.45614 0.66974 0.43423 0.0
C810 C 0.47143 0.6723 0.40383 0.0
C811 C 0.49421 0.67057 0.41231 0.0
C812 C 0.46415 0.67662 0.36326 0.0
C813 C 0.43158 0.67314 0.42882 0.0
C814 C 0.44842 0.663 0.34413 0.0
C815 C 0.44151 0.66717 0.30654 0.0
C816 C 0.45042 0.68481 0.28651 0.0
C817 C 0.46645 0.6982 0.30525 0.0
C818 C 0.4732 0.69418 0.343 0.0
H819 H 0.42337 0.67807 0.45623 0.0
H820 H 0.42818 0.686 0.40778 0.0
H821 H 0.42396 0.65742 0.41833 0.0
H822 H 0.44156 0.64892 0.3581 0.0
H823 H 0.42933 0.65636 0.29298 0.0
H824 H 0.12018 0.74026 0.27568 0.0
H825 H 0.10496 0.72977 0.21223 0.0
H826 H 0.06753 0.6776 0.2621 0.0
H827 H 0.08241 0.68811 0.32527 0.0
H828 H 0.09284 0.66401 0.19598 0.0
H829 H 0.0406 0.73726 0.169 0.0
H830 H 0.06863 0.74303 0.18375 0.0
H831 H 0.04987 0.73053 0.21632 0.0
C832 C 0.10853 0.72671 0.27314 0.0
C833 C 0.10254 0.71505 0.30566 0.0
C834 C 0.09976 0.72075 0.23684 0.0
C835 C 0.08491 0.70292 0.2322 0.0
C836 C 0.07886 0.69142 0.26474 0.0
H837 H 0.00997 0.66103 0.02378 0.0
H838 H 0.02011 0.67175 0.09006 0.0
C839 C 0.0874 0.69749 0.30096 0.0
C840 C 0.0765 0.69547 0.19341 0.0
H841 H 0.045 0.71115 0.11736 0.0
C842 C 0.08236 0.67435 0.17887 0.0
C843 C 0.06248 0.70869 0.17112 0.0
C844 C 0.0548 0.73109 0.18579 0.0
C845 C 0.07519 0.66642 0.14251 0.0
C846 C 0.0618 0.67992 0.11963 0.0
C847 C 0.05536 0.70079 0.13461 0.0
C848 C 0.05535 0.67301 0.07949 0.0
C849 C 0.08194 0.64351 0.12887 0.0
C850 C 0.0717 0.67003 0.05124 0.0
C851 C 0.06596 0.66383 1.01351 0.0
C852 C 0.0437 0.66039 1.00284 0.0
C853 C 0.02726 0.66331 0.03105 0.0
C854 C 0.03305 0.66963 0.06895 0.0
H855 H 0.08725 0.63328 0.15296 0.0
H856 H 0.06812 0.63501 0.11344 0.0
H857 H 0.09608 0.6447 0.10879 0.0
H858 H 0.08898 0.67277 0.05827 0.0
H859 H 0.07906 0.66187 0.99252 0.0
H860 H 0.09964 0.3138 0.7084 0.0
H861 H 0.08526 0.32032 0.77343 0.0
H862 H 0.1297 0.27086 0.81487 0.0
H863 H 0.14459 0.26483 0.75008 0.0
H864 H 0.06426 0.29355 0.82375 0.0
H865 H 0.14368 0.32217 0.88783 0.0
H866 H 0.1398 0.31884 0.8368 0.0
H867 H 0.14505 0.2952 0.86511 0.0
C868 C 0.10642 0.30436 0.73138 0.0
C869 C 0.12332 0.2888 0.72384 0.0
C870 C 0.09812 0.30806 0.76868 0.0
C871 C 0.10654 0.29642 0.79965 0.0
C872 C 0.12317 0.28053 0.79199 0.0
H873 H 0.08283 0.30346 0.04737 0.0
H874 H 0.09476 0.29382 0.98205 0.0
C875 C 0.13155 0.27691 0.7547 0.0
C876 C 0.09794 0.30098 0.83967 0.0
H877 H 0.11379 0.31757 0.93039 0.0
C878 C 0.07513 0.29885 0.84701 0.0
C879 C 0.11195 0.30786 0.87044 0.0
C880 C 0.13645 0.31136 0.86473 0.0
C881 C 0.0661 0.30303 0.8839 0.0
C882 C 0.08006 0.31017 0.9146 0.0
C883 C 0.1029 0.31217 0.90723 0.0
C884 C 0.07156 0.31541 0.95457 0.0
C885 C 0.04168 0.29928 0.88973 0.0
C886 C 0.05433 0.33077 0.96172 0.0
C887 C 0.04722 0.3361 0.99936 0.0
C888 C 0.05744 0.32654 0.03097 0.0
C889 C 0.07455 0.31116 0.0238 0.0
C890 C 0.08147 0.30567 0.98628 0.0
H891 H 0.03453 0.28826 0.86685 0.0
H892 H 0.03839 0.29202 0.91786 0.0
H893 H 0.03301 0.31537 0.88894 0.0
H894 H 0.04669 0.33914 0.93829 0.0
H895 H 0.03415 0.34817 1.00376 0.0
H896 H 0.98154 0.29359 0.17014 0.0
H897 H 0.97904 0.28175 0.23608 0.0
H898 H 0.04752 0.26138 0.23076 0.0
H899 H 0.04996 0.27339 0.16568 0.0
H900 H 0.98187 0.25456 0.28522 0.0
H901 H 0.05338 0.30381 0.31797 0.0
H902 H 0.04299 0.30346 0.26952 0.0
H903 H 0.06529 0.28533 0.2828 0.0
C904 C 0.99566 0.28543 0.18254 0.0
C905 C 0.01617 0.28498 0.16358 0.0
C906 C 0.99443 0.27934 0.22068 0.0
C907 C 0.01368 0.27267 0.23961 0.0
C908 C 0.03283 0.26806 0.21786 0.0
H909 H 0.05668 0.21056 0.22978 0.0
H910 H 0.05799 0.23915 0.27989 0.0
C911 C 0.03405 0.27414 0.18001 0.0
C912 C 0.01424 0.26991 0.28154 0.0
H913 H 0.05527 0.26325 0.34669 0.0
C914 C 0.99793 0.25702 0.29855 0.0
C915 C 0.03342 0.27544 0.30356 0.0
C916 C 0.0495 0.29309 0.29248 0.0
C917 C 0.00364 0.24503 0.33066 0.0
C918 C 0.02651 0.24266 0.33841 0.0
C919 C 0.03885 0.26203 0.33425 0.0
C920 C 0.03627 0.22235 0.31942 0.0
C921 C 0.98645 0.23126 0.34954 0.0
C922 C 0.02707 0.20174 0.32666 0.0
C923 C 0.02632 0.18538 0.29772 0.0
C924 C 0.03557 0.18894 0.26137 0.0
C925 C 0.04819 0.20792 0.25649 0.0
C926 C 0.04902 0.22424 0.28565 0.0
H927 H 0.97127 0.24117 0.35483 0.0
H928 H 0.98185 0.21704 0.33027 0.0
H929 H 0.99256 0.22517 0.37717 0.0
H930 H 0.01846 0.199 0.35318 0.0
H931 H 0.01749 0.17033 0.30351 0.0
H932 H 0.99147 0.83401 0.40682 0.0
H933 H 0.01591 0.85748 0.44419 0.0
H934 H 0.97763 0.84488 0.54589 0.0
H935 H 0.95424 0.82015 0.50836 0.0
H936 H 0.03774 0.87997 0.48999 0.0
H937 H 0.02517 0.83592 0.61125 0.0
H938 H 0.00186 0.82433 0.58633 0.0
H939 H 0.00351 0.85403 0.59509 0.0
C940 C 0.98839 0.83619 0.43723 0.0
C941 C 0.97188 0.82411 0.45502 0.0
C942 C 0.00232 0.84998 0.45908 0.0
C943 C 0.00023 0.85173 0.49952 0.0
C944 C 0.98118 0.8426 0.51578 0.0
H945 H 0.08714 0.75832 0.49453 0.0
H946 H 0.07326 0.78994 0.53228 0.0
C947 C 0.96763 0.82837 0.49409 0.0
C948 C 0.02017 0.85692 0.52421 0.0
H949 H 0.04075 0.80871 0.55386 0.0
C950 C 0.03872 0.86442 0.50427 0.0
C951 C 0.02526 0.84059 0.55071 0.0
C952 C 0.01312 0.83881 0.58793 0.0
C953 C 0.05437 0.84858 0.49156 0.0
C954 C 0.05274 0.8269 0.50557 0.0
C955 C 0.04018 0.82402 0.53884 0.0
C956 C 0.06095 0.80726 0.48344 0.0
C957 C 0.07119 0.85483 0.46204 0.0
C958 C 0.05723 0.80554 0.44376 0.0
C959 C 0.06586 0.78788 0.42201 0.0
C960 C 0.07783 0.77121 0.43969 0.0
C961 C 0.07882 0.77139 0.47989 0.0
C962 C 0.07089 0.7895 0.50157 0.0
H963 H 0.06289 0.85603 0.43385 0.0
H964 H 0.07818 0.87136 0.46958 0.0
H965 H 0.08494 0.84272 0.45945 0.0
H966 H 0.04816 0.8182 0.42928 0.0
H967 H 0.06421 0.78797 0.39117 0.0
H968 H 0.54988 0.71613 0.72405 0.0
H969 H 0.53546 0.74663 0.76276 0.0
H970 H 0.50981 0.70135 0.8443 0.0
H971 H 0.52504 0.67079 0.80629 0.0
H972 H 0.47698 0.71104 0.80101 0.0
H973 H 0.50707 0.79284 0.829 0.0
H974 H 0.53042 0.78038 0.80528 0.0
H975 H 0.5207 0.76943 0.84975 0.0
C976 C 0.54199 0.71272 0.751 0.0
C977 C 0.53697 0.69111 0.76051 0.0
C978 C 0.53391 0.73027 0.77384 0.0
C979 C 0.5197 0.72617 0.80498 0.0
C980 C 0.51972 0.70493 0.81947 0.0
H981 H 0.46092 0.78822 0.63233 0.0
H982 H 0.4497 0.76996 0.69048 0.0
C983 C 0.52797 0.68737 0.79693 0.0
C984 C 0.49881 0.7392 0.80756 0.0
H985 H 0.49664 0.78429 0.75432 0.0
C986 C 0.48051 0.72756 0.79186 0.0
C987 C 0.50017 0.7618 0.80002 0.0
C988 C 0.5155 0.77684 0.82257 0.0
C989 C 0.47178 0.73394 0.75674 0.0
C990 C 0.47953 0.75362 0.74152 0.0
C991 C 0.49148 0.7686 0.76523 0.0
C992 C 0.48197 0.75585 0.70009 0.0
C993 C 0.45723 0.71831 0.73372 0.0
C994 C 0.50306 0.75182 0.68442 0.0
C995 C 0.50973 0.76282 0.65218 0.0
C996 C 0.49509 0.77739 0.6351 0.0
C997 C 0.47261 0.77735 0.6457 0.0
C998 C 0.46615 0.76707 0.67904 0.0
H999 H 0.44855 0.70664 0.75236 0.0
H1000 H 0.44481 0.72758 0.71721 0.0
H1001 H 0.46764 0.70861 0.71308 0.0
H1002 H 0.51533 0.74274 0.70006 0.0
H1003 H 0.52709 0.7625 0.6443 0.0
H1004 H 0.56375 0.27485 0.90406 0.0
H1005 H 0.54395 0.29868 0.94959 0.0
H1006 H 0.55835 0.25421 0.0398 0.0
H1007 H 0.57907 0.23043 0.99459 0.0
H1008 H 0.51725 0.27665 0.04931 0.0
H1009 H 0.58511 0.33382 0.02718 0.0
H1010 H 0.57306 0.32884 0.98088 0.0
H1011 H 0.58541 0.30624 1.00525 0.0
C1012 C 0.5623 0.26972 0.9333 0.0
C1013 C 0.57373 0.25118 0.94598 0.0
C1014 C 0.55115 0.28352 0.95941 0.0
C1015 C 0.55101 0.27885 0.99839 0.0
C1016 C 0.55927 0.25859 1.01011 0.0
H1017 H 0.44893 0.33668 0.99989 0.0
H1018 H 0.47493 0.34768 0.05004 0.0
C1019 C 0.57084 0.24489 0.98407 0.0
C1020 C 0.5436 0.29616 0.02618 0.0
H1021 H 0.54703 0.35202 0.03556 0.0
C1022 C 0.52402 0.29309 0.04659 0.0
C1023 C 0.55352 0.31739 0.02725 0.0
C1024 C 0.57564 0.32162 1.00927 0.0
C1025 C 0.51182 0.31159 0.0594 0.0
C1026 C 0.51817 0.33252 0.04612 0.0
C1027 C 0.54093 0.33555 0.04058 0.0
C1028 C 0.50385 0.34104 1.01508 0.0
C1029 C 0.49036 0.30812 0.08017 0.0
C1030 C 0.51112 0.33803 0.97668 0.0
C1031 C 0.49612 0.33193 0.94786 0.0
C1032 C 0.47383 0.32947 0.95711 0.0
C1033 C 0.46621 0.3376 0.99282 0.0
C1034 C 0.48115 0.34392 0.02155 0.0
H1035 H 0.48551 0.32319 0.0971 0.0
H1036 H 0.47708 0.30382 0.0592 0.0
H1037 H 0.49189 0.29415 0.09972 0.0
H1038 H 0.52854 0.33691 0.96962 0.0
H1039 H 0.50235 0.32635 0.92013 0.0
H1040 H 0.97985 0.82677 0.7859 0.0
H1041 H 0.94403 0.8097 0.79813 0.0
H1042 H 0.97358 0.7732 0.88882 0.0
H1043 H 0.0091 0.79076 0.87796 0.0
H1044 H 0.92675 0.76803 0.79959 0.0
H1045 H 0.92102 0.80099 0.94523 0.0
H1046 H 0.93659 0.81505 0.9091 0.0
H1047 H 0.94987 0.79511 0.93879 0.0
C1048 C 0.97883 0.81482 0.80814 0.0
C1049 C 0.99723 0.81048 0.83176 0.0
C1050 C 0.95823 0.80535 0.81528 0.0
C1051 C 0.95587 0.79132 0.84583 0.0
C1052 C 0.97478 0.78505 0.86645 0.0
H1053 H 0.98968 0.71017 0.85038 0.0
H1054 H 0.95725 0.7317 0.83593 0.0
C1055 C 0.99524 0.79468 0.85972 0.0
C1056 C 0.93424 0.78189 0.85599 0.0
H1057 H 0.92251 0.75779 0.93903 0.0
C1058 C 0.92479 0.76634 0.83015 0.0
C1059 C 0.92875 0.78072 0.89516 0.0
C1060 C 0.93435 0.79917 0.92348 0.0
C1061 C 0.91681 0.74648 0.8443 0.0
C1062 C 0.92193 0.74203 0.88263 0.0
C1063 C 0.9221 0.76027 0.9085 0.0
C1064 C 0.93998 0.72584 0.88935 0.0
C1065 C 0.9079 0.72857 0.81776 0.0
C1066 C 0.94216 0.71619 0.92496 0.0
C1067 C 0.96144 0.70475 0.93397 0.0
C1068 C 0.97886 0.70229 0.90726 0.0
C1069 C 0.97671 0.71187 0.87167 0.0
C1070 C 0.95766 0.72365 0.86298 0.0
H1071 H 0.89065 0.7248 0.8263 0.0
H1072 H 0.90786 0.73349 0.78748 0.0
H1073 H 0.91756 0.71316 0.82054 0.0
H1074 H 0.92919 0.71799 0.94622 0.0
H1075 H 0.96242 0.69748 0.96173 0.0
H1076 H 0.59212 0.76406 0.0309 0.0
H1077 H 0.57694 0.73715 0.98469 0.0
H1078 H 0.55153 0.69941 0.07726 0.0
H1079 H 0.56721 0.72573 0.12361 0.0
H1080 H 0.57977 0.67405 0.02313 0.0
H1081 H 0.52588 0.7335 0.98969 0.0
H1082 H 0.51535 0.72058 0.94614 0.0
H1083 H 0.54382 0.72948 0.94908 0.0
C1084 C 0.58279 0.75031 0.04149 0.0
C1085 C 0.58143 0.74669 0.08109 0.0
C1086 C 0.57435 0.73479 1.01486 0.0
C1087 C 0.56403 0.71576 0.02755 0.0
C1088 C 0.56027 0.71359 0.0669 0.0
H1089 H 0.50199 0.67625 0.12161 0.0
H1090 H 0.53101 0.66418 0.07777 0.0
C1091 C 0.56886 0.7289 0.09347 0.0
C1092 C 0.5567 0.6977 1.00114 0.0
H1093 H 0.50558 0.68533 0.96758 0.0
C1094 C 0.5639 0.67631 1.00931 0.0
C1095 C 0.53706 0.70009 0.97987 0.0
C1096 C 0.53004 0.72209 0.96521 0.0
C1097 C 0.54879 0.6588 1.00783 0.0
C1098 C 0.52648 0.66362 0.99965 0.0
C1099 C 0.52217 0.68237 0.97814 0.0
C1100 C 0.50925 0.6588 0.02852 0.0
C1101 C 0.5555 0.63684 0.02283 0.0
C1102 C 0.48702 0.65793 1.01711 0.0
C1103 C 0.47062 0.66568 0.04209 0.0
C1104 C 0.47594 0.6735 0.0793 0.0
C1105 C 0.49749 0.67068 0.09287 0.0
C1106 C 0.51409 0.66338 0.06761 0.0
H1107 H 0.57065 0.63087 1.00775 0.0
H1108 H 0.55968 0.63871 0.05369 0.0
H1109 H 0.54213 0.62437 0.01888 0.0
H1110 H 0.48267 0.65424 0.9875 0.0
H1111 H 0.45403 0.6673 0.03121 0.0
H1112 H 0.54007 0.21353 0.34651 0.0
H1113 H 0.52375 0.23134 0.29196 0.0
H1114 H 0.45867 0.21095 0.32819 0.0
H1115 H 0.47485 0.19495 0.38404 0.0
H1116 H 0.50471 0.21277 0.23364 0.0
H1117 H 0.43978 0.26807 0.29892 0.0
H1118 H 0.45952 0.25486 0.32907 0.0
H1119 H 0.43753 0.23911 0.30646 0.0
C1120 C 0.52219 0.214 0.34374 0.0
C1121 C 0.5087 0.20328 0.36969 0.0
C1122 C 0.51282 0.22365 0.31205 0.0
C1123 C 0.48986 0.22224 0.30516 0.0
C1124 C 0.47628 0.21263 0.33248 0.0
H1125 H 0.48601 0.33478 0.24415 0.0
H1126 H 0.47322 0.30496 0.20141 0.0
C1127 C 0.48559 0.20368 0.36494 0.0
C1128 C 0.48094 0.23086 0.26908 0.0
H1129 H 0.45233 0.27513 0.2385 0.0
C1130 C 0.49291 0.22622 0.23507 0.0
C1131 C 0.46417 0.24728 0.26865 0.0
C1132 C 0.44948 0.25272 0.3026 0.0
C1133 C 0.49273 0.24131 0.20566 0.0
C1134 C 0.48191 0.26151 0.21305 0.0
C1135 C 0.46337 0.26101 0.2372 0.0
C1136 C 0.49618 0.28088 0.2225 0.0
C1137 C 0.50915 0.23885 0.17356 0.0
C1138 C 0.51458 0.27785 0.24687 0.0
C1139 C 0.52132 0.29458 0.27256 0.0
C1140 C 0.51037 0.31486 0.27336 0.0
C1141 C 0.49427 0.31895 0.24519 0.0
C1142 C 0.48726 0.30209 0.21991 0.0
H1143 H 0.50908 0.22164 0.1617 0.0
H1144 H 0.50542 0.25046 0.15054 0.0
H1145 H 0.52608 0.24235 0.18462 0.0
H1146 H 0.52227 0.26187 0.24941 0.0
H1147 H 0.53444 0.29131 0.29276 0.0
H1148 H 0.07674 0.21908 0.63056 0.0
H1149 H 0.05538 0.19655 0.58518 0.0
H1150 H 0.06545 0.24441 0.49851 0.0
H1151 H 0.08712 0.26712 0.54379 0.0
H1152 H 0.02689 0.22677 0.48914 0.0
H1153 H 0.085 0.15991 0.50046 0.0
H1154 H 0.07513 0.16285 0.54863 0.0
H1155 H 0.08954 0.18546 0.52754 0.0
C1156 C 0.07403 0.22514 0.60218 0.0
C1157 C 0.08418 0.24455 0.59042 0.0
C1158 C 0.06218 0.21201 0.57599 0.0
C1159 C 0.06027 0.21809 0.53776 0.0
C1160 C 0.06775 0.23889 0.52736 0.0
H1161 H 0.94656 0.16957 0.5283 0.0
H1162 H 0.97441 0.15945 0.48097 0.0
C1163 C 0.07983 0.25199 0.55347 0.0
C1164 C 0.04985 0.2026 0.5097 0.0
H1165 H 0.04277 0.14716 0.50091 0.0
C1166 C 0.03076 0.20936 0.4907 0.0
C1167 C 0.05581 0.17998 0.50755 0.0
C1168 C 0.07772 0.17179 0.52185 0.0
C1169 C 0.01502 0.19362 0.47887 0.0
C1170 C 0.01791 0.17168 0.49079 0.0
C1171 C 0.03971 0.16447 0.4961 0.0
C1172 C 0.00186 0.16453 0.5199 0.0
C1173 C 0.9936 0.20147 0.46194 0.0
C1174 C 0.00777 0.16745 0.55896 0.0
C1175 C 0.99171 0.17281 0.5864 0.0
C1176 C 0.96973 0.1752 0.57493 0.0
C1177 C 0.96354 0.16835 0.53759 0.0
C1178 C 0.97949 0.16251 0.51038 0.0
H1179 H 0.99628 0.21659 0.44553 0.0
H1180 H 0.98626 0.1885 0.44266 0.0
H1181 H 0.98168 0.20572 0.48521 0.0
H1182 H 0.02495 0.16865 0.56765 0.0
H1183 H 0.99687 0.17773 0.61513 0.0
H1184 H 0.07516 0.08104 0.10365 0.0
H1185 H 0.07732 0.04917 0.05914 0.0
H1186 H 0.01373 0.02674 0.09811 0.0
H1187 H 0.01175 0.05831 0.14369 0.0
H1188 H 0.04134 0.99266 0.08598 0.0
H1189 H 0.04369 0.04531 0.95997 0.0
H1190 H 0.06601 0.05118 0.99264 0.0
H1191 H 0.03786 0.05625 1.00751 0.0
C1192 C 0.06173 0.06919 0.10313 0.0
C1193 C 0.0432 0.07232 0.12711 0.0
C1194 C 0.0629 0.05107 0.07734 0.0
C1195 C 0.04538 0.03588 0.07434 0.0
C1196 C 0.02736 0.03834 0.09958 0.0
H1197 H 0.02115 0.94508 0.87969 0.0
H1198 H 0.02153 0.97651 0.92561 0.0
C1199 C 0.02629 0.05636 0.12577 0.0
C1200 C 0.04573 0.01769 0.04454 0.0
H1201 H 0.05108 0.00709 0.94828 0.0
C1202 C 0.04341 0.99583 0.05587 0.0
C1203 C 0.04794 0.02179 1.00506 0.0
C1204 C 0.04877 0.04491 0.99048 0.0
C1205 C 0.0437 0.97799 0.02903 0.0
C1206 C 0.04705 0.98204 0.98978 0.0
C1207 C 0.0489 0.00392 0.97836 0.0
C1208 C 0.04814 0.96382 0.96008 0.0
C1209 C 0.03985 0.95504 0.04301 0.0
C1210 C 0.06359 0.94664 0.96311 0.0
C1211 C 0.06332 0.92861 0.93704 0.0
C1212 C 0.04786 0.92753 0.90688 0.0
C1213 C 0.03335 0.94541 0.90243 0.0
C1214 C 0.03346 0.96336 0.92882 0.0
H1215 H 0.03111 0.95543 0.07098 0.0
H1216 H 0.02995 0.94495 0.02212 0.0
H1217 H 0.05605 0.94679 0.04699 0.0
H1218 H 0.07557 0.94693 0.98619 0.0
H1219 H 0.07487 0.91521 0.94115 0.0
H1220 H 0.18822 0.75337 0.28828 0.0
H1221 H 0.22393 0.74979 0.25743 0.0
H1222 H 0.2457 0.70564 0.34376 0.0
H1223 H 0.20933 0.70916 0.37566 0.0
H1224 H 0.26501 0.76155 0.2933 0.0
H1225 H 0.26247 0.67435 0.23792 0.0
H1226 H 0.23769 0.68946 0.25127 0.0
H1227 H 0.2558 0.67965 0.2876 0.0
C1228 C 0.20041 0.74277 0.30103 0.0
C1229 C 0.19582 0.7317 0.33492 0.0
C1230 C 0.22091 0.74074 0.28309 0.0
C1231 C 0.2375 0.7275 0.29819 0.0
C1232 C 0.23301 0.71585 0.33144 0.0
H1233 H 0.37634 0.73564 0.23612 0.0
H1234 H 0.34061 0.73725 0.26849 0.0
C1235 C 0.21227 0.71789 0.34967 0.0
C1236 C 0.25962 0.7271 0.27948 0.0
H1237 H 0.29442 0.69501 0.22412 0.0
C1238 C 0.27154 0.74695 0.27842 0.0
C1239 C 0.26788 0.70816 0.25951 0.0
C1240 C 0.25533 0.68666 0.25873 0.0
C1241 C 0.29144 0.74842 0.25791 0.0
C1242 C 0.29984 0.72944 0.23816 0.0
C1243 C 0.28794 0.70955 0.23919 0.0
C1244 C 0.32136 0.72978 0.21749 0.0
C1245 C 0.30309 0.7704 0.25686 0.0
C1246 C 0.32249 0.7252 0.17782 0.0
C1247 C 0.34304 0.72434 0.15902 0.0
C1248 C 0.36278 0.72772 0.17977 0.0
C1249 C 0.36145 0.73293 0.21925 0.0
C1250 C 0.34101 0.73391 0.23786 0.0
H1251 H 0.29177 0.7843 0.26466 0.0
H1252 H 0.31696 0.77069 0.27772 0.0
H1253 H 0.31006 0.77311 0.22804 0.0
H1254 H 0.30749 0.72194 0.16155 0.0
H1255 H 0.34353 0.72004 0.12871 0.0
H1256 H 0.55074 0.06629 0.42062 0.0
H1257 H 0.55362 0.03059 0.45144 0.0
H1258 H 0.49595 0.04658 0.51946 0.0
H1259 H 0.49289 0.08194 0.48922 0.0
H1260 H 0.53266 0.03035 0.56227 0.0
H1261 H 0.51201 0.97634 0.43519 0.0
H1262 H 0.53384 0.99615 0.42955 0.0
H1263 H 0.50594 0.00552 0.43719 0.0
C1264 C 0.53854 0.06212 0.44185 0.0
C1265 C 0.52155 0.0771 0.4522 0.0
C1266 C 0.54022 0.04169 0.45948 0.0
C1267 C 0.52497 0.03587 0.48778 0.0
C1268 C 0.50796 0.0507 0.49786 0.0
H1269 H 0.4811 0.91566 0.57972 0.0
H1270 H 0.48684 0.95167 0.55279 0.0
C1271 C 0.50621 0.07096 0.48026 0.0
C1272 C 0.52645 0.01445 0.5073 0.0
H1273 H 0.51859 0.95894 0.49311 0.0
C1274 C 0.52986 0.01469 0.5471 0.0
C1275 C 0.52261 0.99404 0.48755 0.0
C1276 C 0.51823 0.99282 0.44505 0.0
C1277 C 0.52909 0.99516 0.56773 0.0
C1278 C 0.52485 0.97483 0.54805 0.0
C1279 C 0.52194 0.97454 0.50815 0.0
C1280 C 0.52143 0.95393 0.56843 0.0
C1281 C 0.53188 0.99647 0.6106 0.0
C1282 C 0.53885 0.94337 0.58733 0.0
C1283 C 0.5356 0.92257 0.60305 0.0
C1284 C 0.5149 0.91197 0.59991 0.0
C1285 C 0.49731 0.92318 0.58257 0.0
C1286 C 0.50056 0.94381 0.56696 0.0
H1287 H 0.53198 0.01378 0.62213 0.0
H1288 H 0.51835 0.98736 0.62459 0.0
H1289 H 0.54779 0.98861 0.61835 0.0
H1290 H 0.55516 0.95078 0.58857 0.0
H1291 H 0.54956 0.91433 0.6158 0.0
H1292 H 0.38781 0.24549 0.79958 0.0
H1293 H 0.35287 0.24308 0.76425 0.0
H1294 H 0.31805 0.26929 0.86348 0.0
H1295 H 0.353 0.27085 0.89947 0.0
H1296 H 0.29312 0.23967 0.82637 0.0
H1297 H 0.32589 0.29694 0.72074 0.0
H1298 H 0.34237 0.27242 0.72272 0.0
H1299 H 0.34061 0.29095 0.76403 0.0
C1300 C 0.37259 0.25018 0.81416 0.0
C1301 C 0.3731 0.25836 0.85227 0.0
C1302 C 0.35266 0.24913 0.79375 0.0
C1303 C 0.33289 0.25682 0.81064 0.0
C1304 C 0.33311 0.26352 0.8496 0.0
H1305 H 0.2162 0.29476 0.6768 0.0
H1306 H 0.25096 0.29516 0.7136 0.0
C1307 C 0.35305 0.26421 0.8703 0.0
C1308 C 0.31226 0.25856 0.7873 0.0
H1309 H 0.29175 0.27908 0.70447 0.0
C1310 C 0.29282 0.24837 0.79982 0.0
C1311 C 0.31157 0.27045 0.75309 0.0
C1312 C 0.33116 0.28352 0.73957 0.0
C1313 C 0.27304 0.24913 0.7786 0.0
C1314 C 0.27277 0.25977 0.74311 0.0
C1315 C 0.29199 0.27057 0.73122 0.0
C1316 C 0.25277 0.25965 0.71792 0.0
C1317 C 0.25251 0.23887 0.79497 0.0
C1318 C 0.24277 0.2396 0.70644 0.0
C1319 C 0.22293 0.23939 0.68583 0.0
C1320 C 0.21286 0.25919 0.67529 0.0
C1321 C 0.22365 0.27924 0.68429 0.0
C1322 C 0.24343 0.27947 0.70556 0.0
H1323 H 0.25351 0.23817 0.82663 0.0
H1324 H 0.23738 0.24819 0.78746 0.0
H1325 H 0.25085 0.22169 0.78331 0.0
H1326 H 0.25001 0.22406 0.71424 0.0
H1327 H 0.21512 0.22365 0.67898 0.0
H1328 H 0.70105 0.27306 0.84095 0.0
H1329 H 0.7358 0.27213 0.80543 0.0
H1330 H 0.74011 0.20181 0.81868 0.0
H1331 H 0.70558 0.20285 0.85589 0.0
H1332 H 0.77972 0.2194 0.82521 0.0
H1333 H 0.74114 0.25257 0.69606 0.0
H1334 H 0.73773 0.27124 0.73647 0.0
H1335 H 0.72502 0.24435 0.7365 0.0
C1336 C 0.70951 0.2574 0.83666 0.0
C1337 C 0.70049 0.23799 0.85102 0.0
C1338 C 0.72928 0.25686 0.81591 0.0
C1339 C 0.74025 0.23679 0.80802 0.0
C1340 C 0.73184 0.21748 0.8239 0.0
H1341 H 0.8421 0.22155 0.62977 0.0
H1342 H 0.80692 0.22295 0.66505 0.0
C1343 C 0.71217 0.21809 0.84536 0.0
C1344 C 0.76043 0.2361 0.78329 0.0
H1345 H 0.78081 0.25266 0.69767 0.0
C1346 C 0.77989 0.22654 0.79722 0.0
C1347 C 0.76065 0.24491 0.74624 0.0
C1348 C 0.73994 0.2536 0.72777 0.0
C1349 C 0.79961 0.22616 0.77581 0.0
C1350 C 0.80022 0.23636 0.73992 0.0
C1351 C 0.78058 0.24527 0.72545 0.0
C1352 C 0.821 0.2377 0.71692 0.0
C1353 C 0.81944 0.21436 0.79169 0.0
C1354 C 0.84041 0.24658 0.73342 0.0
C1355 C 0.86047 0.24554 0.71348 0.0
C1356 C 0.86146 0.23624 0.67613 0.0
C1357 C 0.84175 0.22902 0.65836 0.0
C1358 C 0.82169 0.22966 0.67866 0.0
H1359 H 0.81437 0.20163 0.812 0.0
H1360 H 0.82942 0.20625 0.76855 0.0
H1361 H 0.83009 0.22646 0.80761 0.0
H1362 H 0.84024 0.25368 0.76225 0.0
H1363 H 0.87541 0.25134 0.72781 0.0
H1364 H 0.88218 0.75018 0.29509 0.0
H1365 H 0.84669 0.74803 0.26197 0.0
H1366 H 0.81259 0.75858 0.36936 0.0
H1367 H 0.84839 0.76132 0.40285 0.0
H1368 H 0.81015 0.72256 0.26538 0.0
H1369 H 0.7896 0.80938 0.30711 0.0
H1370 H 0.81668 0.79769 0.31465 0.0
H1371 H 0.79433 0.79189 0.34668 0.0
C1372 C 0.86714 0.75174 0.31185 0.0
C1373 C 0.8681 0.75618 0.3516 0.0
C1374 C 0.84683 0.75051 0.2928 0.0
C1375 C 0.82696 0.75375 0.31295 0.0
C1376 C 0.82775 0.7566 0.35306 0.0
H1377 H 0.69609 0.73046 0.22133 0.0
H1378 H 0.73158 0.72944 0.25365 0.0
C1379 C 0.84818 0.75782 0.37227 0.0
C1380 C 0.80572 0.75498 0.29138 0.0
H1381 H 0.76239 0.78921 0.27182 0.0
C1382 C 0.7997 0.73713 0.26688 0.0
C1383 C 0.79234 0.77421 0.29249 0.0
C1384 C 0.79861 0.79449 0.31633 0.0
C1385 C 0.78054 0.7378 0.24406 0.0
C1386 C 0.76673 0.75669 0.24627 0.0
C1387 C 0.77292 0.77471 0.27023 0.0
C1388 C 0.74522 0.75753 0.22549 0.0
C1389 C 0.77548 0.71837 0.21734 0.0
C1390 C 0.74073 0.77404 0.19928 0.0
C1391 C 0.72011 0.77483 0.18059 0.0
C1392 C 0.70359 0.75922 0.18815 0.0
C1393 C 0.7083 0.74278 0.21448 0.0
C1394 C 0.72875 0.74203 0.23298 0.0
H1395 H 0.79065 0.70869 0.21021 0.0
H1396 H 0.76367 0.70724 0.23144 0.0
H1397 H 0.76784 0.72378 0.19034 0.0
H1398 H 0.75317 0.7863 0.19326 0.0
H1399 H 0.71705 0.78778 0.16072 0.0
H1400 H 0.52878 0.55413 0.66052 0.0
H1401 H 0.53099 0.52074 0.61914 0.0
H1402 H 0.57123 0.55543 0.53919 0.0
H1403 H 0.5694 0.58867 0.58036 0.0
H1404 H 0.516 0.51595 0.54476 0.0
H1405 H 0.60601 0.49843 0.5508 0.0
H1406 H 0.59239 0.51707 0.58465 0.0
H1407 H 0.59982 0.52617 0.53799 0.0
C1408 C 0.53837 0.55458 0.63441 0.0
C1409 C 0.54896 0.57412 0.6239 0.0
C1410 C 0.53957 0.53548 0.61074 0.0
C1411 C 0.55152 0.53548 0.57628 0.0
C1412 C 0.56232 0.55486 0.566 0.0
H1413 H 0.53275 0.44954 0.37562 0.0
H1414 H 0.53596 0.48062 0.42173 0.0
C1415 C 0.56112 0.57394 0.58956 0.0
C1416 C 0.55155 0.5157 0.54987 0.0
H1417 H 0.58554 0.4793 0.50138 0.0
C1418 C 0.5312 0.50785 0.53549 0.0
C1419 C 0.57136 0.50499 0.53803 0.0
C1420 C 0.59363 0.51193 0.55393 0.0
C1421 C 0.53016 0.48996 0.5089 0.0
C1422 C 0.55003 0.47985 0.49584 0.0
C1423 C 0.57035 0.48728 0.51099 0.0
C1424 C 0.54991 0.46137 0.46676 0.0
C1425 C 0.50776 0.4819 0.49527 0.0
C1426 C 0.55758 0.4404 0.47617 0.0
C1427 C 0.5559 0.42257 0.44978 0.0
C1428 C 0.54661 0.4254 0.41332 0.0
C1429 C 0.5399 0.44669 0.40342 0.0
C1430 C 0.54158 0.46448 0.42986 0.0
H1431 H 0.49429 0.48762 0.51484 0.0
H1432 H 0.50435 0.48841 0.4666 0.0
H1433 H 0.50733 0.4636 0.49276 0.0
H1434 H 0.56421 0.43767 0.50441 0.0
H1435 H 0.56126 0.40645 0.45845 0.0
H1436 H 0.98438 0.56888 0.94139 0.0
H1437 H 0.99178 0.53307 0.96814 0.0
H1438 H 0.06179 0.5422 0.95104 0.0
H1439 H 0.05454 0.57858 0.92424 0.0
H1440 H 0.03586 0.49496 0.9307 0.0
H1441 H 0.02915 0.53254 0.07771 0.0
H1442 H 0.00935 0.54127 0.04273 0.0
H1443 H 0.03806 0.54807 0.03731 0.0
C1444 C 0.00139 0.56323 0.94265 0.0
C1445 C 0.0189 0.57674 0.93086 0.0
C1446 C 0.00555 0.54272 0.95804 0.0
C1447 C 0.02731 0.53512 0.96201 0.0
C1448 C 0.04486 0.54785 0.94829 0.0
H1449 H 0.05522 0.42273 0.10881 0.0
H1450 H 0.05876 0.45796 0.07685 0.0
C1451 C 0.04068 0.56854 0.93276 0.0
C1452 C 0.0313 0.51448 0.98262 0.0
H1453 H 0.0282 0.49348 0.0719 0.0
C1454 C 0.03456 0.49463 0.9616 0.0
C1455 C 0.02966 0.51412 0.02294 0.0
C1456 C 0.02649 0.53511 0.04674 0.0
C1457 C 0.03532 0.4743 0.9798 0.0
C1458 C 0.03245 0.47381 0.01999 0.0
C1459 C 0.03027 0.4938 0.04113 0.0
C1460 C 0.03024 0.45269 0.04017 0.0
C1461 C 0.0389 0.45346 0.95576 0.0
C1462 C 0.01266 0.43832 0.03107 0.0
C1463 C 0.01048 0.41832 0.04941 0.0
C1464 C 0.02582 0.41213 0.07748 0.0
C1465 C 0.0431 0.42687 0.08738 0.0
C1466 C 0.0452 0.44701 0.06903 0.0
H1467 H 0.04713 0.45693 0.92822 0.0
H1468 H 0.04911 0.44141 0.97124 0.0
H1469 H 0.02262 0.44574 0.94914 0.0
H1470 H 0.00058 0.44256 1.0096 0.0
H1471 H 0.99688 0.40757 0.041 0.0
H1472 H 0.10847 0.13706 0.25009 0.0
H1473 H 0.12248 0.15032 0.31168 0.0
H1474 H 0.05663 0.14759 0.35876 0.0
H1475 H 0.04234 0.13424 0.29605 0.0
H1476 H 0.07562 0.18714 0.37591 0.0
H1477 H 0.13706 0.12359 0.41015 0.0
H1478 H 0.14212 0.1339 0.36362 0.0
H1479 H 0.11679 0.11925 0.37277 0.0
C1480 C 0.09699 0.13835 0.27386 0.0
C1481 C 0.07423 0.13441 0.26778 0.0
C1482 C 0.1051 0.14609 0.30935 0.0
C1483 C 0.09082 0.14996 0.34051 0.0
C1484 C 0.06815 0.14478 0.33537 0.0
H1485 H 0.14344 0.18036 0.56721 0.0
H1486 H 0.13111 0.16466 0.50648 0.0
C1487 C 0.05996 0.13685 0.29949 0.0
C1488 C 0.09958 0.16094 0.37689 0.0
H1489 H 0.14201 0.15895 0.44171 0.0
C1490 C 0.08992 0.18076 0.39074 0.0
C1491 C 0.11839 0.15294 0.39644 0.0
C1492 C 0.12903 0.13114 0.38518 0.0
C1493 C 0.09846 0.19273 0.42301 0.0
C1494 C 0.11772 0.18508 0.44212 0.0
C1495 C 0.12734 0.16521 0.42787 0.0
C1496 C 0.12708 0.19582 0.47872 0.0
C1497 C 0.08625 0.21323 0.43628 0.0
C1498 C 0.13006 0.2189 0.48448 0.0
C1499 C 0.13691 0.22815 0.52039 0.0
C1500 C 0.14154 0.2145 0.55114 0.0
C1501 C 0.13998 0.19153 0.54446 0.0
C1502 C 0.13297 0.18241 0.50916 0.0
H1503 H 0.06855 0.21268 0.42754 0.0
H1504 H 0.08709 0.21542 0.46769 0.0
H1505 H 0.09391 0.22778 0.42322 0.0
H1506 H 0.12678 0.2299 0.46148 0.0
H1507 H 0.13801 0.24591 0.52429 0.0
H1508 H 0.12872 0.75347 0.49572 0.0
H1509 H 0.11603 0.76874 0.55771 0.0
H1510 H 0.14281 0.83217 0.53028 0.0
H1511 H 0.15279 0.81764 0.4668 0.0
H1512 H 0.12819 0.78601 0.61921 0.0
H1513 H 0.08488 0.85512 0.55193 0.0
H1514 H 0.09849 0.83369 0.52359 0.0
H1515 H 0.11406 0.85644 0.54456 0.0
C1516 C 0.13173 0.77071 0.50279 0.0
C1517 C 0.14078 0.78455 0.47547 0.0
C1518 C 0.12456 0.77951 0.53855 0.0
C1519 C 0.12703 0.80218 0.5483 0.0
C1520 C 0.139 0.81513 0.52289 0.0
H1521 H 0.10379 0.85541 0.78042 0.0
H1522 H 0.11962 0.84361 0.71868 0.0
C1523 C 0.14521 0.80662 0.48668 0.0
C1524 C 0.11678 0.81228 0.58427 0.0
H1525 H 0.08605 0.85626 0.61933 0.0
C1526 C 0.11891 0.80131 0.6189 0.0
C1527 C 0.10435 0.8323 0.58468 0.0
C1528 C 0.10011 0.84493 0.54909 0.0
C1529 C 0.10942 0.80975 0.65329 0.0
C1530 C 0.09769 0.83004 0.65369 0.0
C1531 C 0.09518 0.84085 0.61922 0.0
C1532 C 0.08809 0.8403 0.68967 0.0
C1533 C 0.11175 0.79658 0.68888 0.0
C1534 C 0.06512 0.84403 0.69348 0.0
C1535 C 0.05601 0.8513 0.72885 0.0
C1536 C 0.06976 0.8552 0.76085 0.0
C1537 C 0.0928 0.85294 0.75612 0.0
C1538 C 0.10186 0.84577 0.72096 0.0
H1539 H 0.11556 0.77897 0.68186 0.0
H1540 H 0.12556 0.80346 0.70653 0.0
H1541 H 0.09639 0.79744 0.7063 0.0
H1542 H 0.05411 0.84015 0.66973 0.0
H1543 H 0.03818 0.85228 0.73187 0.0
H1544 H 0.39552 0.74519 0.9662 0.0
H1545 H 0.40268 0.76327 0.90545 0.0
H1546 H 0.47019 0.77548 0.94023 0.0
H1547 H 0.46299 0.758 1.00084 0.0
H1548 H 0.45183 0.81219 0.90922 0.0
H1549 H 0.43463 0.74019 0.81103 0.0
H1550 H 0.41375 0.74675 0.8459 0.0
H1551 H 0.44038 0.73715 0.86126 0.0
C1552 C 0.4119 0.75163 0.96078 0.0
C1553 C 0.42863 0.75004 0.98863 0.0
C1554 C 0.41609 0.76187 0.92577 0.0
C1555 C 0.43718 0.77061 0.91747 0.0
C1556 C 0.4538 0.76898 0.94542 0.0
H1557 H 0.4996 0.84517 0.73105 0.0
H1558 H 0.49051 0.82934 0.79251 0.0
C1559 C 0.44963 0.75886 0.98026 0.0
C1560 C 0.44205 0.78184 0.88038 0.0
H1561 H 0.44304 0.77363 0.78303 0.0
C1562 C 0.45001 0.80369 0.8816 0.0
C1563 C 0.43955 0.77108 0.84399 0.0
C1564 C 0.4318 0.74746 0.84019 0.0
C1565 C 0.45517 0.81506 0.84799 0.0
C1566 C 0.45325 0.80412 0.81144 0.0
C1567 C 0.44497 0.7823 0.81044 0.0
C1568 C 0.45927 0.81472 0.77393 0.0
C1569 C 0.46167 0.83902 0.85242 0.0
C1570 C 0.44556 0.81161 0.74161 0.0
C1571 C 0.45159 0.81956 0.70582 0.0
C1572 C 0.47152 0.83121 0.70058 0.0
C1573 C 0.48475 0.83545 0.73315 0.0
C1574 C 0.47904 0.8269 0.769 0.0
H1575 H 0.45454 0.84678 0.87892 0.0
H1576 H 0.47996 0.84025 0.85482 0.0
H1577 H 0.45604 0.84859 0.82775 0.0
H1578 H 0.43011 0.80267 0.74374 0.0
H1579 H 0.4406 0.81616 0.68184 0.0
H1580 H 0.51695 0.15906 0.30729 0.0
H1581 H 0.50707 0.17486 0.24624 0.0
H1582 H 0.43867 0.15789 0.26462 0.0
H1583 H 0.44839 0.14343 0.3266 0.0
H1584 H 0.49194 0.16561 0.18151 0.0
H1585 H 0.42472 0.21768 0.24312 0.0
H1586 H 0.44113 0.20041 0.27268 0.0
H1587 H 0.41832 0.18897 0.24544 0.0
C1588 C 0.49981 0.15864 0.29847 0.0
C1589 C 0.4835 0.15014 0.32269 0.0
C1590 C 0.49401 0.16792 0.26321 0.0
C1591 C 0.47172 0.16899 0.25074 0.0
C1592 C 0.45578 0.15881 0.27371 0.0
H1593 H 0.40673 0.2284 0.0498 0.0
H1594 H 0.41531 0.20775 0.10734 0.0
C1595 C 0.46147 0.15003 0.30921 0.0
C1596 C 0.46531 0.18058 0.21412 0.0
H1597 H 0.42891 0.21779 0.1762 0.0
C1598 C 0.47817 0.17707 0.18075 0.0
C1599 C 0.44705 0.19548 0.21166 0.0
C1600 C 0.43215 0.201 0.24522 0.0
C1601 C 0.47342 0.18758 0.14602 0.0
C1602 C 0.45564 0.20292 0.1441 0.0
C1603 C 0.44261 0.20624 0.17712 0.0
C1604 C 0.45029 0.21573 0.10852 0.0
C1605 C 0.48722 0.18145 0.1113 0.0
C1606 C 0.46671 0.22781 0.08972 0.0
C1607 C 0.4618 0.23958 0.05668 0.0
C1608 C 0.44019 0.24001 0.04132 0.0
C1609 C 0.42356 0.22849 0.06059 0.0
C1610 C 0.42852 0.2166 0.09366 0.0
H1611 H 0.49461 0.16475 0.11351 0.0
H1612 H 0.47723 0.18174 0.08466 0.0
H1613 H 0.50104 0.19337 0.10903 0.0
H1614 H 0.48348 0.22829 0.10061 0.0
H1615 H 0.47507 0.24837 0.04305 0.0
H1616 H 0.89593 0.79651 0.48322 0.0
H1617 H 0.90066 0.81173 0.54872 0.0
H1618 H 0.92519 0.87242 0.50386 0.0
H1619 H 0.92017 0.85745 0.43896 0.0
H1620 H 0.94007 0.8219 0.57758 0.0
H1621 H 0.88804 0.89674 0.58986 0.0
H1622 H 0.88435 0.87612 0.55187 0.0
H1623 H 0.90522 0.89718 0.54814 0.0
C1624 C 0.90177 0.81328 0.48752 0.0
C1625 C 0.90793 0.82569 0.45615 0.0
C1626 C 0.90444 0.82199 0.52486 0.0
C1627 C 0.91311 0.84333 0.53132 0.0
C1628 C 0.91792 0.85619 0.4998 0.0
H1629 H 0.99775 0.89916 0.70577 0.0
H1630 H 0.97706 0.89019 0.64678 0.0
C1631 C 0.91518 0.84752 0.4626 0.0
C1632 C 0.92017 0.851 0.57027 0.0
H1633 H 0.9192 0.89534 0.63352 0.0
C1634 C 0.9352 0.83781 0.58998 0.0
C1635 C 0.91385 0.87177 0.58664 0.0
C1636 C 0.8968 0.88613 0.56815 0.0
C1637 C 0.94476 0.84522 0.62465 0.0
C1638 C 0.93916 0.86633 0.64003 0.0
C1639 C 0.92362 0.87927 0.62122 0.0
C1640 C 0.94965 0.87501 0.67563 0.0
C1641 C 0.96104 0.83062 0.64458 0.0
C1642 C 0.94068 0.86996 0.71119 0.0
C1643 C 0.95241 0.87508 0.74481 0.0
C1644 C 0.97328 0.88529 0.74329 0.0
C1645 C 0.98162 0.89147 0.70776 0.0
C1646 C 0.96987 0.88633 0.67411 0.0
H1647 H 0.96438 0.81501 0.62801 0.0
H1648 H 0.97693 0.83951 0.64937 0.0
H1649 H 0.95443 0.82655 0.67308 0.0
H1650 H 0.92514 0.86111 0.71277 0.0
H1651 H 0.94567 0.86999 0.7718 0.0
H1652 H 0.90464 0.13472 0.59935 0.0
H1653 H 0.90697 0.11554 0.53679 0.0
H1654 H 0.90311 0.17807 0.48194 0.0
H1655 H 0.89894 0.197 0.54439 0.0
H1656 H 0.88563 0.14809 0.43723 0.0
H1657 H 0.9403 0.09982 0.50706 0.0
H1658 H 0.94718 0.12775 0.52045 0.0
H1659 H 0.96477 0.11216 0.4883 0.0
C1660 C 0.90375 0.1443 0.57385 0.0
C1661 C 0.90244 0.16745 0.5767 0.0
C1662 C 0.90532 0.13333 0.53806 0.0
C1663 C 0.90654 0.14537 0.50455 0.0
C1664 C 0.90275 0.16831 0.50728 0.0
H1665 H 0.95717 0.15266 0.2821 0.0
H1666 H 0.93557 0.15468 0.34058 0.0
C1667 C 0.9005 0.17922 0.54305 0.0
C1668 C 0.91358 0.13486 0.46719 0.0
H1669 H 0.95737 0.10887 0.42296 0.0
C1670 C 0.90124 0.13933 0.43424 0.0
C1671 C 0.93355 0.12254 0.46295 0.0
C1672 C 0.94726 0.1154 0.4965 0.0
C1673 C 0.90889 0.13319 0.39743 0.0
C1674 C 0.92996 0.12309 0.39313 0.0
C1675 C 0.94146 0.11705 0.42604 0.0
C1676 C 0.94146 0.12077 0.3554 0.0
C1677 C 0.89423 0.13774 0.36366 0.0
C1678 C 0.95281 0.10125 0.34434 0.0
C1679 C 0.96594 0.10031 0.3112 0.0
C1680 C 0.96768 0.11878 0.28832 0.0
C1681 C 0.95587 0.13801 0.29881 0.0
C1682 C 0.94323 0.13911 0.33218 0.0
H1683 H 0.87648 0.13599 0.37136 0.0
H1684 H 0.89673 0.15502 0.35516 0.0
H1685 H 0.89784 0.12643 0.33879 0.0
H1686 H 0.95195 0.08689 0.36184 0.0
H1687 H 0.97501 0.08533 0.30387 0.0
H1688 H 0.65307 0.15068 0.98967 0.0
H1689 H 0.6471 0.13222 0.05021 0.0
H1690 H 0.63859 0.19573 0.10821 0.0
H1691 H 0.64644 0.21396 0.049 0.0
H1692 H 0.65707 0.17117 0.15438 0.0
H1693 H 0.5879 0.12192 0.09064 0.0
H1694 H 0.61431 0.11545 0.06981 0.0
H1695 H 0.60229 0.14239 0.06425 0.0
C1696 C 0.65042 0.16058 1.01565 0.0
C1697 C 0.65014 0.1837 1.01469 0.0
C1698 C 0.64667 0.15005 0.05015 0.0
C1699 C 0.64157 0.16248 0.0838 0.0
C1700 C 0.64237 0.18562 0.08288 0.0
H1701 H 0.55107 0.13656 0.25925 0.0
H1702 H 0.57218 0.14148 0.20112 0.0
C1703 C 0.64686 0.19609 0.04888 0.0
C1704 C 0.63423 0.15193 0.11964 0.0
H1705 H 0.59478 0.1181 0.15579 0.0
C1706 C 0.64344 0.15953 0.15465 0.0
C1707 C 0.61643 0.13668 0.12023 0.0
C1708 C 0.60451 0.12877 0.0843 0.0
C1709 C 0.63447 0.15366 0.18995 0.0
C1710 C 0.61656 0.13855 0.19051 0.0
C1711 C 0.60843 0.1297 0.15553 0.0
C1712 C 0.60405 0.13389 0.22619 0.0
C1713 C 0.64336 0.16501 0.22592 0.0
C1714 C 0.61466 0.12753 0.25997 0.0
C1715 C 0.60254 0.12545 0.29392 0.0
C1716 C 0.57952 0.12876 0.29413 0.0
C1717 C 0.5688 0.13377 0.2599 0.0
C1718 C 0.58091 0.13656 0.22652 0.0
H1719 H 0.65292 0.1801 0.2196 0.0
H1720 H 0.62973 0.1698 0.24583 0.0
H1721 H 0.65468 0.15363 0.24057 0.0
H1722 H 0.63232 0.12453 0.26036 0.0
H1723 H 0.61115 0.12142 0.31995 0.0
H1724 H 0.54269 0.83297 0.77511 0.0
H1725 H 0.56563 0.83002 0.83212 0.0
H1726 H 0.62246 0.85225 0.76952 0.0
H1727 H 0.59926 0.85567 0.71211 0.0
H1728 H 0.60121 0.80332 0.84053 0.0
H1729 H 0.62544 0.89092 0.86744 0.0
H1730 H 0.60329 0.88285 0.83519 0.0
H1731 H 0.63163 0.87963 0.82045 0.0
C1732 C 0.56003 0.83748 0.77353 0.0
C1733 C 0.56921 0.84462 0.73921 0.0
C1734 C 0.57314 0.83574 0.80616 0.0
C1735 C 0.59575 0.84107 0.8053 0.0
C1736 C 0.60498 0.84843 0.77111 0.0
H1737 H 0.6755 0.79262 0.99506 0.0
H1738 H 0.66557 0.80282 0.93006 0.0
C1739 C 0.59176 0.85029 0.7383 0.0
C1740 C 0.60952 0.83781 0.83997 0.0
H1741 H 0.64016 0.86488 0.90923 0.0
C1742 C 0.6099 0.81675 0.85537 0.0
C1743 C 0.62069 0.85538 0.85947 0.0
C1744 C 0.62017 0.87853 0.84509 0.0
C1745 C 0.62058 0.81285 0.89015 0.0
C1746 C 0.6318 0.8304 0.90972 0.0
C1747 C 0.63183 0.8514 0.89396 0.0
C1748 C 0.64162 0.82759 0.94827 0.0
C1749 C 0.61878 0.7902 0.90652 0.0
C1750 C 0.63272 0.83928 0.98005 0.0
C1751 C 0.63865 0.83374 1.01718 0.0
C1752 C 0.65354 0.81636 0.02314 0.0
C1753 C 0.66394 0.80604 0.99133 0.0
C1754 C 0.65811 0.8117 0.95417 0.0
H1755 H 0.60559 0.78012 0.89225 0.0
H1756 H 0.63472 0.78133 0.90242 0.0
H1757 H 0.61519 0.7914 0.93766 0.0
H1758 H 0.62008 0.85171 0.97623 0.0
H1759 H 0.63036 0.84199 0.04113 0.0
H1760 H 0.54571 0.63281 0.79539 0.0
H1761 H 0.5569 0.64624 0.85994 0.0
H1762 H 0.62397 0.65399 0.8201 0.0
H1763 H 0.61306 0.6403 0.75698 0.0
H1764 H 0.62595 0.64134 0.888 0.0
H1765 H 0.5653 0.71021 0.88769 0.0
H1766 H 0.55299 0.68328 0.88577 0.0
H1767 H 0.56967 0.69205 0.84647 0.0
C1768 C 0.56294 0.6367 0.80087 0.0
C1769 C 0.57846 0.63567 0.77088 0.0
C1770 C 0.56928 0.64483 0.83764 0.0
C1771 C 0.59121 0.65202 0.84486 0.0
C1772 C 0.60693 0.64891 0.81564 0.0
H1773 H 0.63621 0.74734 0.02757 0.0
H1774 H 0.62547 0.73044 0.96481 0.0
C1775 C 0.60067 0.64083 0.7794 0.0
C1776 C 0.59828 0.66337 0.8818 0.0
H1777 H 0.58875 0.7084 0.94148 0.0
C1778 C 0.61765 0.65594 0.89968 0.0
C1779 C 0.58799 0.68287 0.89687 0.0
C1780 C 0.56797 0.69275 0.87809 0.0
C1781 C 0.62695 0.66725 0.93164 0.0
C1782 C 0.61618 0.68619 0.94774 0.0
C1783 C 0.59695 0.69382 0.92971 0.0
C1784 C 0.62375 0.69704 0.98476 0.0
C1785 C 0.64873 0.65902 0.94696 0.0
C1786 C 0.62646 0.68412 1.01685 0.0
C1787 C 0.63291 0.69359 0.05199 0.0
C1788 C 0.63641 0.71647 0.05684 0.0
C1789 C 0.63396 0.72964 0.02478 0.0
C1790 C 0.62762 0.71998 0.989 0.0
H1791 H 0.65868 0.6507 0.92395 0.0
H1792 H 0.65877 0.67265 0.96004 0.0
H1793 H 0.64547 0.64669 0.96895 0.0
H1794 H 0.62299 0.6666 1.0151 0.0
H1795 H 0.63437 0.68284 0.07595 0.0
H1796 H 0.60189 0.35975 0.28363 0.0
H1797 H 0.61798 0.34714 0.2229 0.0
H1798 H 0.55346 0.34915 0.17012 0.0
H1799 H 0.5372 0.36128 0.23181 0.0
H1800 H 0.57188 0.31044 0.15581 0.0
H1801 H 0.63593 0.37202 0.1247 0.0
H1802 H 0.63956 0.36152 0.17152 0.0
H1803 H 0.61502 0.37709 0.16073 0.0
C1804 C 0.59128 0.35866 0.25862 0.0
C1805 C 0.56834 0.36227 0.26246 0.0
C1806 C 0.60053 0.35125 0.2237 0.0
C1807 C 0.58715 0.34731 0.19126 0.0
C1808 C 0.56432 0.35215 0.19443 0.0
H1809 H 0.63803 0.31616 0.96463 0.0
H1810 H 0.62858 0.33201 0.02693 0.0
C1811 C 0.55502 0.35955 0.22962 0.0
C1812 C 0.59659 0.33592 0.15583 0.0
H1813 H 0.63962 0.33686 0.09219 0.0
C1814 C 0.58653 0.31642 0.14156 0.0
C1815 C 0.61588 0.34338 0.13711 0.0
C1816 C 0.62708 0.36476 0.14909 0.0
C1817 C 0.59493 0.30435 0.10944 0.0
C1818 C 0.61452 0.31153 0.09087 0.0
C1819 C 0.62469 0.33098 0.10568 0.0
C1820 C 0.62342 0.3008 0.05403 0.0
C1821 C 0.58212 0.28434 0.09562 0.0
C1822 C 0.62517 0.27766 0.04761 0.0
C1823 C 0.63027 0.2684 1.01096 0.0
C1824 C 0.6345 0.28207 0.98013 0.0
C1825 C 0.6347 0.30503 0.98749 0.0
C1826 C 0.62938 0.3142 0.02363 0.0
H1827 H 0.56446 0.28527 0.10446 0.0
H1828 H 0.58277 0.28247 0.06416 0.0
H1829 H 0.58939 0.26941 0.10813 0.0
H1830 H 0.62193 0.26663 0.07056 0.0
H1831 H 0.63002 0.25066 1.00653 0.0
H1832 H 0.95099 0.34033 0.19768 0.0
H1833 H 0.94104 0.32578 0.25931 0.0
H1834 H 0.01012 0.32236 0.28953 0.0
H1835 H 0.02016 0.3376 0.22775 0.0
H1836 H 0.9461 0.28865 0.28543 0.0
H1837 H 0.99055 0.34305 0.38974 0.0
H1838 H 0.98863 0.34945 0.33996 0.0
H1839 H 0.00915 0.33016 0.35593 0.0
C1840 C 0.96416 0.33695 0.21769 0.0
C1841 C 0.98644 0.34026 0.2073 0.0
C1842 C 0.9584 0.32838 0.25318 0.0
C1843 C 0.97466 0.32267 0.28001 0.0
C1844 C 0.99701 0.3268 0.27027 0.0
H1845 H 0.96876 0.25146 0.49546 0.0
H1846 H 0.97953 0.26896 0.43639 0.0
C1847 C 0.00282 0.33553 0.23457 0.0
C1848 C 0.968 0.31105 0.31622 0.0
H1849 H 0.9755 0.31003 0.41361 0.0
C1850 C 0.95245 0.29365 0.31341 0.0
C1851 C 0.9762 0.31695 0.35334 0.0
C1852 C 0.99188 0.33605 0.36003 0.0
C1853 C 0.94512 0.28219 0.34567 0.0
C1854 C 0.9533 0.28811 0.38269 0.0
C1855 C 0.96905 0.30528 0.38557 0.0
C1856 C 0.94615 0.27662 0.41861 0.0
C1857 C 0.92895 0.26345 0.33928 0.0
C1858 C 0.92363 0.2747 0.42917 0.0
C1859 C 0.91735 0.26436 0.4632 0.0
C1860 C 0.9334 0.25589 0.488 0.0
C1861 C 0.95584 0.25779 0.47734 0.0
C1862 C 0.96209 0.26794 0.44337 0.0
H1863 H 0.93028 0.25613 0.3098 0.0
H1864 H 0.93159 0.25018 0.35986 0.0
H1865 H 0.91185 0.26986 0.34305 0.0
H1866 H 0.91084 0.28152 0.41141 0.0
H1867 H 0.89995 0.26339 0.47043 0.0
H1868 H 0.00362 0.64449 0.80527 0.0
H1869 H 0.99754 0.66146 0.74302 0.0
H1870 H 0.93403 0.68534 0.78188 0.0
H1871 H 0.94017 0.66906 0.84391 0.0
H1872 H 0.96176 0.65528 0.68756 0.0
H1873 H 0.96465 0.74173 0.74375 0.0
H1874 H 0.97544 0.71894 0.77003 0.0
H1875 H 0.94622 0.72449 0.76951 0.0
C1876 C 0.98845 0.65347 0.80066 0.0
C1877 C 0.97254 0.65546 0.83004 0.0
C1878 C 0.98492 0.66317 0.7649 0.0
C1879 C 0.96544 0.67525 0.7577 0.0
C1880 C 0.94943 0.67677 0.78679 0.0
H1881 H 0.90407 0.74608 0.56827 0.0
H1882 H 0.91249 0.72832 0.62906 0.0
C1883 C 0.95292 0.66714 0.82228 0.0
C1884 C 0.96138 0.68606 0.72 0.0
H1885 H 0.94993 0.73603 0.68097 0.0
C1886 C 0.9594 0.67295 0.68615 0.0
C1887 C 0.95825 0.70919 0.7176 0.0
C1888 C 0.96148 0.7245 0.75203 0.0
C1889 C 0.95378 0.68216 0.65071 0.0
C1890 C 0.95013 0.70523 0.64855 0.0
C1891 C 0.95238 0.71836 0.68231 0.0
C1892 C 0.94472 0.71608 0.6114 0.0
C1893 C 0.95126 0.66698 0.6159 0.0
C1894 C 0.95999 0.71554 0.58106 0.0
C1895 C 0.95527 0.72582 0.54656 0.0
C1896 C 0.93506 0.73695 0.54098 0.0
C1897 C 0.91972 0.73759 0.57133 0.0
C1898 C 0.92458 0.72744 0.6062 0.0
H1899 H 0.94928 0.6495 0.62373 0.0
H1900 H 0.93676 0.67181 0.59851 0.0
H1901 H 0.96629 0.66814 0.59783 0.0
H1902 H 0.97579 0.70733 0.58419 0.0
H1903 H 0.96759 0.72502 0.52405 0.0
H1904 H 0.50458 0.38884 0.20052 0.0
H1905 H 0.48385 0.37892 0.14277 0.0
H1906 H 0.42261 0.39468 0.20125 0.0
H1907 H 0.44347 0.40295 0.26036 0.0
H1908 H 0.41667 0.35891 0.16373 0.0
H1909 H 0.45736 0.41333 0.06282 0.0
H1910 H 0.47798 0.39638 0.08382 0.0
H1911 H 0.46252 0.41594 0.11351 0.0
C1912 C 0.48674 0.39081 0.20081 0.0
C1913 C 0.47565 0.39711 0.23473 0.0
C1914 C 0.47484 0.38517 0.16759 0.0
C1915 C 0.45158 0.38656 0.16698 0.0
C1916 C 0.44051 0.39357 0.2007 0.0
H1917 H 0.40294 0.36124 0.93634 0.0
H1918 H 0.40517 0.37945 0.99949 0.0
C1919 C 0.45243 0.39855 0.23437 0.0
C1920 C 0.43894 0.37921 0.13201 0.0
H1921 H 0.43985 0.3808 0.03475 0.0
C1922 C 0.42144 0.36408 0.13554 0.0
C1923 C 0.44462 0.38617 0.09506 0.0
C1924 C 0.46148 0.40404 0.08871 0.0
C1925 C 0.41026 0.35504 0.10327 0.0
C1926 C 0.41737 0.36048 0.06617 0.0
C1927 C 0.43424 0.37632 0.06287 0.0
C1928 C 0.40891 0.34924 0.03021 0.0
C1929 C 0.39086 0.33995 0.10962 0.0
C1930 C 0.40837 0.32603 0.02623 0.0
C1931 C 0.40626 0.31558 0.98998 0.0
C1932 C 0.40559 0.32811 0.957 0.0
C1933 C 0.40392 0.35115 0.96123 0.0
C1934 C 0.40529 0.36158 0.99745 0.0
H1935 H 0.38196 0.34486 0.13639 0.0
H1936 H 0.37891 0.34005 0.08549 0.0
H1937 H 0.39701 0.32288 0.11294 0.0
H1938 H 0.4116 0.31589 0.05044 0.0
H1939 H 0.40723 0.29778 0.98758 0.0
H1940 H 0.42862 0.63352 0.09314 0.0
H1941 H 0.43269 0.62015 0.027 0.0
H1942 H 0.39275 0.67438 0.98942 0.0
H1943 H 0.38972 0.68846 0.05575 0.0
H1944 H 0.41138 0.60676 0.96818 0.0
H1945 H 0.41742 0.68949 0.94401 0.0
H1946 H 0.44636 0.68844 0.93296 0.0
H1947 H 0.43714 0.68305 0.98043 0.0
C1948 C 0.42036 0.64236 0.07084 0.0
C1949 C 0.40943 0.66237 0.07931 0.0
C1950 C 0.42263 0.63467 0.03292 0.0
C1951 C 0.41389 0.6468 1.00284 0.0
C1952 C 0.40063 0.66534 1.01183 0.0
H1953 H 0.4502 0.63546 0.76166 0.0
H1954 H 0.42784 0.64045 0.81953 0.0
C1955 C 0.3987 0.67327 0.04976 0.0
C1956 C 0.42043 0.6409 0.96269 0.0
H1957 H 0.44631 0.66096 0.88428 0.0
C1958 C 0.41892 0.61868 0.94984 0.0
C1959 C 0.43023 0.65645 0.93836 0.0
C1960 C 0.43307 0.68059 0.94974 0.0
C1961 C 0.42741 0.6115 0.91413 0.0
C1962 C 0.43772 0.62689 0.89062 0.0
C1963 C 0.43844 0.6492 0.90258 0.0
C1964 C 0.44889 0.62034 0.85425 0.0
C1965 C 0.42544 0.58748 0.90193 0.0
C1966 C 0.46786 0.60689 0.85433 0.0
C1967 C 0.48069 0.60398 0.82118 0.0
C1968 C 0.47476 0.61461 0.78766 0.0
C1969 C 0.45512 0.62703 0.78711 0.0
C1970 C 0.44234 0.62993 0.82014 0.0
H1971 H 0.41218 0.5791 0.91796 0.0
H1972 H 0.42191 0.58559 0.87081 0.0
H1973 H 0.44134 0.57903 0.90767 0.0
H1974 H 0.47345 0.59969 0.88054 0.0
H1975 H 0.49588 0.5945 0.82244 0.0
H1976 H 0.1168 0.66116 0.48201 0.0
H1977 H 0.1072 0.64845 0.54564 0.0
H1978 H 0.15237 0.6959 0.59704 0.0
H1979 H 0.16206 0.7087 0.53358 0.0
H1980 H 0.13487 0.63562 0.61764 0.0
H1981 H 0.08541 0.71322 0.62816 0.0
H1982 H 0.0946 0.7013 0.58286 0.0
H1983 H 0.11394 0.71548 0.61396 0.0
C1984 C 0.12522 0.66837 0.5068 0.0
C1985 C 0.14001 0.68604 0.50299 0.0
C1986 C 0.11972 0.6611 0.54307 0.0
C1987 C 0.12892 0.67143 0.57587 0.0
C1988 C 0.14508 0.6878 0.57195 0.0
H1989 H 0.08146 0.68138 0.80921 0.0
H1990 H 0.10216 0.68518 0.74974 0.0
C1991 C 0.15063 0.69505 0.53571 0.0
C1992 C 0.11936 0.66741 0.61385 0.0
H1993 H 0.08474 0.69051 0.68102 0.0
C1994 C 0.12396 0.64758 0.6317 0.0
C1995 C 0.10512 0.68309 0.63184 0.0
C1996 C 0.09927 0.70444 0.61329 0.0
C1997 C 0.11486 0.64315 0.66763 0.0
C1998 C 0.10039 0.65877 0.68548 0.0
C1999 C 0.09587 0.67858 0.66742 0.0
C2000 C 0.08949 0.65507 0.72273 0.0
C2001 C 0.12118 0.62203 0.6864 0.0
C2002 C 0.07555 0.63683 0.72743 0.0
C2003 C 0.06387 0.63452 0.76159 0.0
C2004 C 0.06569 0.65062 0.79129 0.0
C2005 C 0.07976 0.66874 0.78671 0.0
C2006 C 0.0916 0.67091 0.75279 0.0
H2007 H 0.13709 0.61534 0.67504 0.0
H2008 H 0.12269 0.62457 0.71789 0.0
H2009 H 0.10816 0.60946 0.68043 0.0
H2010 H 0.07317 0.62471 0.7043 0.0
H2011 H 0.05296 0.62049 0.76436 0.0
H2012 H 0.10993 0.33812 0.21464 0.0
H2013 H 0.12792 0.33515 0.27693 0.0
H2014 H 0.08292 0.38379 0.32552 0.0
H2015 H 0.06433 0.38621 0.26343 0.0
H2016 H 0.149 0.36255 0.32784 0.0
H2017 H 0.07105 0.33182 0.39086 0.0
H2018 H 0.07383 0.33648 0.34051 0.0
H2019 H 0.06868 0.35924 0.37367 0.0
C2020 C 0.10409 0.34844 0.23847 0.0
C2021 C 0.08562 0.36226 0.23434 0.0
C2022 C 0.11439 0.34672 0.27408 0.0
C2023 C 0.10648 0.35888 0.30616 0.0
C2024 C 0.08897 0.37384 0.30143 0.0
H2025 H 0.13604 0.34432 0.54824 0.0
H2026 H 0.12635 0.36081 0.48754 0.0
C2027 C 0.07848 0.37535 0.26589 0.0
C2028 C 0.11568 0.35473 0.34473 0.0
H2029 H 0.10158 0.3364 0.43267 0.0
C2030 C 0.13861 0.35694 0.35083 0.0
C2031 C 0.10216 0.34727 0.37473 0.0
C2032 C 0.07761 0.34334 0.36961 0.0
C2033 C 0.14835 0.35183 0.386 0.0
C2034 C 0.13484 0.34419 0.41572 0.0
C2035 C 0.11189 0.34242 0.40991 0.0
C2036 C 0.14406 0.33662 0.45238 0.0
C2037 C 0.17301 0.35464 0.3911 0.0
C2038 C 0.15771 0.31787 0.45283 0.0
C2039 C 0.16326 0.3084 0.48751 0.0
C2040 C 0.15518 0.31751 0.52226 0.0
C2041 C 0.1426 0.33701 0.52191 0.0
C2042 C 0.13699 0.34641 0.48725 0.0
H2043 H 0.18002 0.36602 0.37006 0.0
H2044 H 0.17702 0.36104 0.42043 0.0
H2045 H 0.18121 0.33836 0.38674 0.0
H2046 H 0.16303 0.30979 0.42628 0.0
H2047 H 0.17281 0.29327 0.48691 0.0
loop_
_geom_bond_atom_site_label_1
_geom_bond_atom_site_label_2
_geom_bond_distance
_geom_bond_site_symmetry_2
_ccdc_geom_bond_type
Tb0 O3 2.453 . S
Tb0 O4 2.596 . S
Tb0 O5 2.374 . S
Tb0 O13 2.343 . S
Tb0 O15 2.353 . S
Tb0 O17 2.427 . S
Tb0 O18 2.513 . S
C1 O5 1.251 . S
C1 O7 1.263 . S
Tb2 O4 2.343 . S
Tb2 O7 2.353 . S
Tb2 O10 2.427 . S
Tb2 O11 2.513 . S
Tb2 O12 2.453 . S
Tb2 O13 2.596 . S
Tb2 O14 2.374 . S
O3 Tb0 2.453 . S
O3 C19 1.245 . S
O4 Tb0 2.596 . S
O4 Tb2 2.343 . S
O4 C19 1.259 . S
O5 Tb0 2.374 . S
O5 C1 1.251 . S
C6 O10 1.275 . S
C6 O11 1.246 . S
O7 C1 1.263 . S
O7 Tb2 2.353 . S
C8 O12 1.245 . S
C8 O13 1.259 . S
C9 O14 1.250 . S
C9 O15 1.263 . S
O10 Tb2 2.427 . S
O10 C6 1.275 . S
O11 Tb2 2.513 . S
O11 C6 1.246 . S
O12 Tb2 2.453 . S
O12 C8 1.245 . S
O13 Tb0 2.343 . S
O13 Tb2 2.596 . S
O13 C8 1.259 . S
O14 Tb2 2.374 . S
O14 C9 1.250 . S
O15 Tb0 2.353 . S
O15 C9 1.263 . S
C16 O17 1.275 . S
C16 O18 1.246 . S
O17 Tb0 2.427 . S
O17 C16 1.275 . S
O18 Tb0 2.513 . S
O18 C16 1.246 . S
C19 O3 1.245 . S
C19 O4 1.259 . S
Tb20 O23 2.453 . S
Tb20 O24 2.596 . S
Tb20 O25 2.374 . S
Tb20 O33 2.343 . S
Tb20 O35 2.353 . S
Tb20 O37 2.427 . S
Tb20 O38 2.513 . S
C21 O25 1.251 . S
C21 O27 1.263 . S
Tb22 O24 2.343 . S
Tb22 O27 2.353 . S
Tb22 O30 2.427 . S
Tb22 O31 2.513 . S
Tb22 O32 2.453 . S
Tb22 O33 2.596 . S
Tb22 O34 2.374 . S
O23 Tb20 2.453 . S
O23 C39 1.245 . S
O24 Tb20 2.596 . S
O24 Tb22 2.343 . S
O24 C39 1.259 . S
O25 Tb20 2.374 . S
O25 C21 1.251 . S
C26 O30 1.275 . S
C26 O31 1.246 . S
O27 C21 1.263 . S
O27 Tb22 2.353 . S
C28 O32 1.245 . S
C28 O33 1.259 . S
C29 O34 1.250 . S
C29 O35 1.263 . S
O30 Tb22 2.427 . S
O30 C26 1.275 . S
O31 Tb22 2.513 . S
O31 C26 1.246 . S
O32 Tb22 2.453 . S
O32 C28 1.245 . S
O33 Tb20 2.343 . S
O33 Tb22 2.596 . S
O33 C28 1.259 . S
O34 Tb22 2.374 . S
O34 C29 1.250 . S
O35 Tb20 2.353 . S
O35 C29 1.263 . S
C36 O37 1.275 . S
C36 O38 1.246 . S
O37 Tb20 2.427 . S
O37 C36 1.275 . S
O38 Tb20 2.513 . S
O38 C36 1.246 . S
C39 O23 1.245 . S
C39 O24 1.259 . S
Tb40 O43 2.453 . S
Tb40 O44 2.596 . S
Tb40 O45 2.374 . S
Tb40 O53 2.343 . S
Tb40 O55 2.353 . S
Tb40 O57 2.427 . S
Tb40 O58 2.513 . S
C41 O45 1.251 . S
C41 O47 1.263 . S
Tb42 O44 2.343 . S
Tb42 O47 2.353 . S
Tb42 O50 2.427 . S
Tb42 O51 2.513 . S
Tb42 O52 2.453 . S
Tb42 O53 2.596 . S
Tb42 O54 2.374 . S
O43 Tb40 2.453 . S
O43 C59 1.245 . S
O44 Tb40 2.596 . S
O44 Tb42 2.343 . S
O44 C59 1.259 . S
O45 Tb40 2.374 . S
O45 C41 1.251 . S
C46 O50 1.275 . S
C46 O51 1.246 . S
O47 C41 1.263 . S
O47 Tb42 2.353 . S
C48 O52 1.245 . S
C48 O53 1.259 . S
C49 O54 1.250 . S
C49 O55 1.263 . S
O50 Tb42 2.427 . S
O50 C46 1.275 . S
O51 Tb42 2.513 . S
O51 C46 1.246 . S
O52 Tb42 2.453 . S
O52 C48 1.245 . S
O53 Tb40 2.343 . S
O53 Tb42 2.596 . S
O53 C48 1.259 . S
O54 Tb42 2.374 . S
O54 C49 1.250 . S
O55 Tb40 2.353 . S
O55 C49 1.263 . S
C56 O57 1.275 . S
C56 O58 1.246 . S
O57 Tb40 2.427 . S
O57 C56 1.275 . S
O58 Tb40 2.513 . S
O58 C56 1.246 . S
C59 O43 1.245 . S
C59 O44 1.259 . S
Tb60 O63 2.453 . S
Tb60 O64 2.596 . S
Tb60 O65 2.374 . S
Tb60 O73 2.343 . S
Tb60 O75 2.353 . S
Tb60 O77 2.427 . S
Tb60 O78 2.513 . S
C61 O65 1.251 . S
C61 O67 1.263 . S
Tb62 O64 2.343 . S
Tb62 O67 2.353 . S
Tb62 O70 2.427 . S
Tb62 O71 2.513 . S
Tb62 O72 2.453 . S
Tb62 O73 2.596 . S
Tb62 O74 2.374 . S
O63 Tb60 2.453 . S
O63 C79 1.245 . S
O64 Tb60 2.596 . S
O64 Tb62 2.343 . S
O64 C79 1.259 . S
O65 Tb60 2.374 . S
O65 C61 1.251 . S
C66 O70 1.275 . S
C66 O71 1.246 . S
O67 C61 1.263 . S
O67 Tb62 2.353 . S
C68 O72 1.245 . S
C68 O73 1.259 . S
C69 O74 1.250 . S
C69 O75 1.263 . S
O70 Tb62 2.427 . S
O70 C66 1.275 . S
O71 Tb62 2.513 . S
O71 C66 1.246 . S
O72 Tb62 2.453 . S
O72 C68 1.245 . S
O73 Tb60 2.343 . S
O73 Tb62 2.596 . S
O73 C68 1.259 . S
O74 Tb62 2.374 . S
O74 C69 1.250 . S
O75 Tb60 2.353 . S
O75 C69 1.263 . S
C76 O77 1.275 . S
C76 O78 1.246 . S
O77 Tb60 2.427 . S
O77 C76 1.275 . S
O78 Tb60 2.513 . S
O78 C76 1.246 . S
C79 O63 1.245 . S
C79 O64 1.259 . S
Tb80 O83 2.453 . S
Tb80 O84 2.596 . S
Tb80 O85 2.374 . S
Tb80 O93 2.343 . S
Tb80 O95 2.353 . S
Tb80 O97 2.427 . S
Tb80 O98 2.513 . S
C81 O85 1.251 . S
C81 O87 1.263 . S
Tb82 O84 2.343 . S
Tb82 O87 2.353 . S
Tb82 O90 2.427 . S
Tb82 O91 2.513 . S
Tb82 O92 2.453 . S
Tb82 O93 2.596 . S
Tb82 O94 2.374 . S
O83 Tb80 2.453 . S
O83 C99 1.245 . S
O84 Tb80 2.596 . S
O84 Tb82 2.343 . S
O84 C99 1.259 . S
O85 Tb80 2.374 . S
O85 C81 1.251 . S
C86 O90 1.275 . S
C86 O91 1.246 . S
O87 C81 1.263 . S
O87 Tb82 2.353 . S
C88 O92 1.245 . S
C88 O93 1.259 . S
C89 O94 1.250 . S
C89 O95 1.263 . S
O90 Tb82 2.427 . S
O90 C86 1.275 . S
O91 Tb82 2.513 . S
O91 C86 1.246 . S
O92 Tb82 2.453 . S
O92 C88 1.245 . S
O93 Tb80 2.343 . S
O93 Tb82 2.596 . S
O93 C88 1.259 . S
O94 Tb82 2.374 . S
O94 C89 1.250 . S
O95 Tb80 2.353 . S
O95 C89 1.263 . S
C96 O97 1.275 . S
C96 O98 1.246 . S
O97 Tb80 2.427 . S
O97 C96 1.275 . S
O98 Tb80 2.513 . S
O98 C96 1.246 . S
C99 O83 1.245 . S
C99 O84 1.259 . S
Tb100 O103 2.453 . S
Tb100 O104 2.596 . S
Tb100 O105 2.374 . S
Tb100 O113 2.343 . S
Tb100 O115 2.353 . S
Tb100 O117 2.427 . S
Tb100 O118 2.513 . S
C101 O105 1.251 . S
C101 O107 1.263 . S
Tb102 O104 2.343 . S
Tb102 O107 2.353 . S
Tb102 O110 2.427 . S
Tb102 O111 2.513 . S
Tb102 O112 2.453 . S
Tb102 O113 2.596 . S
Tb102 O114 2.374 . S
O103 Tb100 2.453 . S
O103 C119 1.245 . S
O104 Tb100 2.596 . S
O104 Tb102 2.343 . S
O104 C119 1.259 . S
O105 Tb100 2.374 . S
O105 C101 1.251 . S
C106 O110 1.275 . S
C106 O111 1.246 . S
O107 C101 1.263 . S
O107 Tb102 2.353 . S
C108 O112 1.245 . S
C108 O113 1.259 . S
C109 O114 1.250 . S
C109 O115 1.263 . S
O110 Tb102 2.427 . S
O110 C106 1.275 . S
O111 Tb102 2.513 . S
O111 C106 1.246 . S
O112 Tb102 2.453 . S
O112 C108 1.245 . S
O113 Tb100 2.343 . S
O113 Tb102 2.596 . S
O113 C108 1.259 . S
O114 Tb102 2.374 . S
O114 C109 1.250 . S
O115 Tb100 2.353 . S
O115 C109 1.263 . S
C116 O117 1.275 . S
C116 O118 1.246 . S
O117 Tb100 2.427 . S
O117 C116 1.275 . S
O118 Tb100 2.513 . S
O118 C116 1.246 . S
C119 O103 1.245 . S
C119 O104 1.259 . S
Tb120 O123 2.453 . S
Tb120 O124 2.596 . S
Tb120 O125 2.374 . S
Tb120 O133 2.343 . S
Tb120 O135 2.353 . S
Tb120 O137 2.427 . S
Tb120 O138 2.513 . S
C121 O125 1.251 . S
C121 O127 1.263 . S
Tb122 O124 2.343 . S
Tb122 O127 2.353 . S
Tb122 O130 2.427 . S
Tb122 O131 2.513 . S
Tb122 O132 2.453 . S
Tb122 O133 2.596 . S
Tb122 O134 2.374 . S
O123 Tb120 2.453 . S
O123 C139 1.245 . S
O124 Tb120 2.596 . S
O124 Tb122 2.343 . S
O124 C139 1.259 . S
O125 Tb120 2.374 . S
O125 C121 1.251 . S
C126 O130 1.275 . S
C126 O131 1.246 . S
O127 C121 1.263 . S
O127 Tb122 2.353 . S
C128 O132 1.245 . S
C128 O133 1.259 . S
C129 O134 1.250 . S
C129 O135 1.263 . S
O130 Tb122 2.427 . S
O130 C126 1.275 . S
O131 Tb122 2.513 . S
O131 C126 1.246 . S
O132 Tb122 2.453 . S
O132 C128 1.245 . S
O133 Tb120 2.343 . S
O133 Tb122 2.596 . S
O133 C128 1.259 . S
O134 Tb122 2.374 . S
O134 C129 1.250 . S
O135 Tb120 2.353 . S
O135 C129 1.263 . S
C136 O137 1.275 . S
C136 O138 1.246 . S
O137 Tb120 2.427 . S
O137 C136 1.275 . S
O138 Tb120 2.513 . S
O138 C136 1.246 . S
C139 O123 1.245 . S
C139 O124 1.259 . S
Tb140 O143 2.453 . S
Tb140 O144 2.596 . S
Tb140 O145 2.374 . S
Tb140 O153 2.343 . S
Tb140 O155 2.353 . S
Tb140 O157 2.427 . S
Tb140 O158 2.513 . S
C141 O145 1.251 . S
C141 O147 1.263 . S
Tb142 O144 2.343 . S
Tb142 O147 2.353 . S
Tb142 O150 2.427 . S
Tb142 O151 2.513 . S
Tb142 O152 2.453 . S
Tb142 O153 2.596 . S
Tb142 O154 2.374 . S
O143 Tb140 2.453 . S
O143 C159 1.245 . S
O144 Tb140 2.596 . S
O144 Tb142 2.343 . S
O144 C159 1.259 . S
O145 Tb140 2.374 . S
O145 C141 1.251 . S
C146 O150 1.275 . S
C146 O151 1.246 . S
O147 C141 1.263 . S
O147 Tb142 2.353 . S
C148 O152 1.245 . S
C148 O153 1.259 . S
C149 O154 1.250 . S
C149 O155 1.263 . S
O150 Tb142 2.427 . S
O150 C146 1.275 . S
O151 Tb142 2.513 . S
O151 C146 1.246 . S
O152 Tb142 2.453 . S
O152 C148 1.245 . S
O153 Tb140 2.343 . S
O153 Tb142 2.596 . S
O153 C148 1.259 . S
O154 Tb142 2.374 . S
O154 C149 1.250 . S
O155 Tb140 2.353 . S
O155 C149 1.263 . S
C156 O157 1.275 . S
C156 O158 1.246 . S
O157 Tb140 2.427 . S
O157 C156 1.275 . S
O158 Tb140 2.513 . S
O158 C156 1.246 . S
C159 O143 1.245 . S
C159 O144 1.259 . S
Tb160 O163 2.453 . S
Tb160 O164 2.596 . S
Tb160 O165 2.374 . S
Tb160 O173 2.343 . S
Tb160 O175 2.353 . S
Tb160 O177 2.427 . S
Tb160 O178 2.513 . S
C161 O165 1.251 . S
C161 O167 1.263 . S
Tb162 O164 2.343 . S
Tb162 O167 2.353 . S
Tb162 O170 2.427 . S
Tb162 O171 2.513 . S
Tb162 O172 2.453 . S
Tb162 O173 2.596 . S
Tb162 O174 2.374 . S
O163 Tb160 2.453 . S
O163 C179 1.245 . S
O164 Tb160 2.596 . S
O164 Tb162 2.343 . S
O164 C179 1.259 . S
O165 Tb160 2.374 . S
O165 C161 1.251 . S
C166 O170 1.275 . S
C166 O171 1.246 . S
O167 C161 1.263 . S
O167 Tb162 2.353 . S
C168 O172 1.245 . S
C168 O173 1.259 . S
C169 O174 1.250 . S
C169 O175 1.263 . S
O170 Tb162 2.427 . S
O170 C166 1.275 . S
O171 Tb162 2.513 . S
O171 C166 1.246 . S
O172 Tb162 2.453 . S
O172 C168 1.245 . S
O173 Tb160 2.343 . S
O173 Tb162 2.596 . S
O173 C168 1.259 . S
O174 Tb162 2.374 . S
O174 C169 1.250 . S
O175 Tb160 2.353 . S
O175 C169 1.263 . S
C176 O177 1.275 . S
C176 O178 1.246 . S
O177 Tb160 2.427 . S
O177 C176 1.275 . S
O178 Tb160 2.513 . S
O178 C176 1.246 . S
C179 O163 1.245 . S
C179 O164 1.259 . S
Tb180 O183 2.453 . S
Tb180 O184 2.596 . S
Tb180 O185 2.374 . S
Tb180 O193 2.343 . S
Tb180 O195 2.353 . S
Tb180 O197 2.427 . S
Tb180 O198 2.513 . S
C181 O185 1.251 . S
C181 O187 1.263 . S
Tb182 O184 2.343 . S
Tb182 O187 2.353 . S
Tb182 O190 2.427 . S
Tb182 O191 2.513 . S
Tb182 O192 2.453 . S
Tb182 O193 2.596 . S
Tb182 O194 2.374 . S
O183 Tb180 2.453 . S
O183 C199 1.245 . S
O184 Tb180 2.596 . S
O184 Tb182 2.343 . S
O184 C199 1.259 . S
O185 Tb180 2.374 . S
O185 C181 1.251 . S
C186 O190 1.275 . S
C186 O191 1.246 . S
O187 C181 1.263 . S
O187 Tb182 2.353 . S
C188 O192 1.245 . S
C188 O193 1.259 . S
C189 O194 1.250 . S
C189 O195 1.263 . S
O190 Tb182 2.427 . S
O190 C186 1.275 . S
O191 Tb182 2.513 . S
O191 C186 1.246 . S
O192 Tb182 2.453 . S
O192 C188 1.245 . S
O193 Tb180 2.343 . S
O193 Tb182 2.596 . S
O193 C188 1.259 . S
O194 Tb182 2.374 . S
O194 C189 1.250 . S
O195 Tb180 2.353 . S
O195 C189 1.263 . S
C196 O197 1.275 . S
C196 O198 1.246 . S
O197 Tb180 2.427 . S
O197 C196 1.275 . S
O198 Tb180 2.513 . S
O198 C196 1.246 . S
C199 O183 1.245 . S
C199 O184 1.259 . S
Tb200 O203 2.453 . S
Tb200 O204 2.596 . S
Tb200 O205 2.374 . S
Tb200 O213 2.343 . S
Tb200 O215 2.353 . S
Tb200 O217 2.427 . S
Tb200 O218 2.513 . S
C201 O205 1.251 . S
C201 O207 1.263 . S
Tb202 O204 2.343 . S
Tb202 O207 2.353 . S
Tb202 O210 2.427 . S
Tb202 O211 2.513 . S
Tb202 O212 2.453 . S
Tb202 O213 2.596 . S
Tb202 O214 2.374 . S
O203 Tb200 2.453 . S
O203 C219 1.245 . S
O204 Tb200 2.596 . S
O204 Tb202 2.343 . S
O204 C219 1.259 . S
O205 Tb200 2.374 . S
O205 C201 1.251 . S
C206 O210 1.275 . S
C206 O211 1.246 . S
O207 C201 1.263 . S
O207 Tb202 2.353 . S
C208 O212 1.245 . S
C208 O213 1.259 . S
C209 O214 1.250 . S
C209 O215 1.263 . S
O210 Tb202 2.427 . S
O210 C206 1.275 . S
O211 Tb202 2.513 . S
O211 C206 1.246 . S
O212 Tb202 2.453 . S
O212 C208 1.245 . S
O213 Tb200 2.343 . S
O213 Tb202 2.596 . S
O213 C208 1.259 . S
O214 Tb202 2.374 . S
O214 C209 1.250 . S
O215 Tb200 2.353 . S
O215 C209 1.263 . S
C216 O217 1.275 . S
C216 O218 1.246 . S
O217 Tb200 2.427 . S
O217 C216 1.275 . S
O218 Tb200 2.513 . S
O218 C216 1.246 . S
C219 O203 1.245 . S
C219 O204 1.259 . S
Tb220 O223 2.453 . S
Tb220 O224 2.596 . S
Tb220 O225 2.374 . S
Tb220 O233 2.343 . S
Tb220 O235 2.353 . S
Tb220 O237 2.427 . S
Tb220 O238 2.513 . S
C221 O225 1.251 . S
C221 O227 1.263 . S
Tb222 O224 2.343 . S
Tb222 O227 2.353 . S
Tb222 O230 2.427 . S
Tb222 O231 2.513 . S
Tb222 O232 2.453 . S
Tb222 O233 2.596 . S
Tb222 O234 2.374 . S
O223 Tb220 2.453 . S
O223 C239 1.245 . S
O224 Tb220 2.596 . S
O224 Tb222 2.343 . S
O224 C239 1.259 . S
O225 Tb220 2.374 . S
O225 C221 1.251 . S
C226 O230 1.275 . S
C226 O231 1.246 . S
O227 C221 1.263 . S
O227 Tb222 2.353 . S
C228 O232 1.245 . S
C228 O233 1.259 . S
C229 O234 1.250 . S
C229 O235 1.263 . S
O230 Tb222 2.427 . S
O230 C226 1.275 . S
O231 Tb222 2.513 . S
O231 C226 1.246 . S
O232 Tb222 2.453 . S
O232 C228 1.245 . S
O233 Tb220 2.343 . S
O233 Tb222 2.596 . S
O233 C228 1.259 . S
O234 Tb222 2.374 . S
O234 C229 1.250 . S
O235 Tb220 2.353 . S
O235 C229 1.263 . S
C236 O237 1.275 . S
C236 O238 1.246 . S
O237 Tb220 2.427 . S
O237 C236 1.275 . S
O238 Tb220 2.513 . S
O238 C236 1.246 . S
C239 O223 1.245 . S
C239 O224 1.259 . S
Tb240 O243 2.453 . S
Tb240 O244 2.596 . S
Tb240 O245 2.374 . S
Tb240 O253 2.343 . S
Tb240 O255 2.353 . S
Tb240 O257 2.427 . S
Tb240 O258 2.513 . S
C241 O245 1.251 . S
C241 O247 1.263 . S
Tb242 O244 2.343 . S
Tb242 O247 2.353 . S
Tb242 O250 2.427 . S
Tb242 O251 2.513 . S
Tb242 O252 2.453 . S
Tb242 O253 2.596 . S
Tb242 O254 2.374 . S
O243 Tb240 2.453 . S
O243 C259 1.245 . S
O244 Tb240 2.596 . S
O244 Tb242 2.343 . S
O244 C259 1.259 . S
O245 Tb240 2.374 . S
O245 C241 1.251 . S
C246 O250 1.275 . S
C246 O251 1.246 . S
O247 C241 1.263 . S
O247 Tb242 2.353 . S
C248 O252 1.245 . S
C248 O253 1.259 . S
C249 O254 1.250 . S
C249 O255 1.263 . S
O250 Tb242 2.427 . S
O250 C246 1.275 . S
O251 Tb242 2.513 . S
O251 C246 1.246 . S
O252 Tb242 2.453 . S
O252 C248 1.245 . S
O253 Tb240 2.343 . S
O253 Tb242 2.596 . S
O253 C248 1.259 . S
O254 Tb242 2.374 . S
O254 C249 1.250 . S
O255 Tb240 2.353 . S
O255 C249 1.263 . S
C256 O257 1.275 . S
C256 O258 1.246 . S
O257 Tb240 2.427 . S
O257 C256 1.275 . S
O258 Tb240 2.513 . S
O258 C256 1.246 . S
C259 O243 1.245 . S
C259 O244 1.259 . S
Tb260 O263 2.453 . S
Tb260 O264 2.596 . S
Tb260 O265 2.374 . S
Tb260 O273 2.343 . S
Tb260 O275 2.353 . S
Tb260 O277 2.427 . S
Tb260 O278 2.513 . S
C261 O265 1.251 . S
C261 O267 1.263 1_455 S
Tb262 O264 2.343 1_655 S
Tb262 O267 2.353 . S
Tb262 O270 2.427 . S
Tb262 O271 2.513 . S
Tb262 O272 2.453 . S
Tb262 O273 2.596 1_655 S
Tb262 O274 2.374 . S
O263 Tb260 2.453 . S
O263 C279 1.245 . S
O264 Tb260 2.596 . S
O264 Tb262 2.343 1_455 S
O264 C279 1.259 . S
O265 Tb260 2.374 . S
O265 C261 1.251 . S
C266 O270 1.275 . S
C266 O271 1.246 . S
O267 C261 1.263 1_655 S
O267 Tb262 2.353 . S
C268 O272 1.245 . S
C268 O273 1.259 1_655 S
C269 O274 1.250 1_455 S
C269 O275 1.263 . S
O270 Tb262 2.427 . S
O270 C266 1.275 . S
O271 Tb262 2.513 . S
O271 C266 1.246 . S
O272 Tb262 2.453 . S
O272 C268 1.245 . S
O273 Tb260 2.343 . S
O273 Tb262 2.596 1_455 S
O273 C268 1.259 1_455 S
O274 Tb262 2.374 . S
O274 C269 1.250 1_655 S
O275 Tb260 2.353 . S
O275 C269 1.263 . S
C276 O277 1.275 . S
C276 O278 1.246 . S
O277 Tb260 2.427 . S
O277 C276 1.275 . S
O278 Tb260 2.513 . S
O278 C276 1.246 . S
C279 O263 1.245 . S
C279 O264 1.259 . S
Tb280 O283 2.453 . S
Tb280 O284 2.596 . S
Tb280 O285 2.374 . S
Tb280 O293 2.343 . S
Tb280 O295 2.353 . S
Tb280 O297 2.427 . S
Tb280 O298 2.513 . S
C281 O285 1.251 . S
C281 O287 1.263 . S
Tb282 O284 2.343 . S
Tb282 O287 2.353 . S
Tb282 O290 2.427 . S
Tb282 O291 2.513 . S
Tb282 O292 2.453 . S
Tb282 O293 2.596 . S
Tb282 O294 2.374 . S
O283 Tb280 2.453 . S
O283 C299 1.245 . S
O284 Tb280 2.596 . S
O284 Tb282 2.343 . S
O284 C299 1.259 . S
O285 Tb280 2.374 . S
O285 C281 1.251 . S
C286 O290 1.275 . S
C286 O291 1.246 . S
O287 C281 1.263 . S
O287 Tb282 2.353 . S
C288 O292 1.245 . S
C288 O293 1.259 . S
C289 O294 1.250 . S
C289 O295 1.263 . S
O290 Tb282 2.427 . S
O290 C286 1.275 . S
O291 Tb282 2.513 . S
O291 C286 1.246 . S
O292 Tb282 2.453 . S
O292 C288 1.245 . S
O293 Tb280 2.343 . S
O293 Tb282 2.596 . S
O293 C288 1.259 . S
O294 Tb282 2.374 . S
O294 C289 1.250 . S
O295 Tb280 2.353 . S
O295 C289 1.263 . S
C296 O297 1.275 . S
C296 O298 1.246 . S
O297 Tb280 2.427 . S
O297 C296 1.275 . S
O298 Tb280 2.513 . S
O298 C296 1.246 . S
C299 O283 1.245 . S
C299 O284 1.259 . S
Tb300 O303 2.453 . S
Tb300 O304 2.596 . S
Tb300 O305 2.374 . S
Tb300 O313 2.343 . S
Tb300 O315 2.353 . S
Tb300 O317 2.427 . S
Tb300 O318 2.513 . S
C301 O305 1.251 . S
C301 O307 1.263 1_455 S
Tb302 O304 2.343 1_655 S
Tb302 O307 2.353 . S
Tb302 O310 2.427 . S
Tb302 O311 2.513 . S
Tb302 O312 2.453 . S
Tb302 O313 2.596 1_655 S
Tb302 O314 2.374 . S
O303 Tb300 2.453 . S
O303 C319 1.245 . S
O304 Tb300 2.596 . S
O304 Tb302 2.343 1_455 S
O304 C319 1.259 . S
O305 Tb300 2.374 . S
O305 C301 1.251 . S
C306 O310 1.275 . S
C306 O311 1.246 . S
O307 C301 1.263 1_655 S
O307 Tb302 2.353 . S
C308 O312 1.245 . S
C308 O313 1.259 1_655 S
C309 O314 1.250 1_455 S
C309 O315 1.263 . S
O310 Tb302 2.427 . S
O310 C306 1.275 . S
O311 Tb302 2.513 . S
O311 C306 1.246 . S
O312 Tb302 2.453 . S
O312 C308 1.245 . S
O313 Tb300 2.343 . S
O313 Tb302 2.596 1_455 S
O313 C308 1.259 1_455 S
O314 Tb302 2.374 . S
O314 C309 1.250 1_655 S
O315 Tb300 2.353 . S
O315 C309 1.263 . S
C316 O317 1.275 . S
C316 O318 1.246 . S
O317 Tb300 2.427 . S
O317 C316 1.275 . S
O318 Tb300 2.513 . S
O318 C316 1.246 . S
C319 O303 1.245 . S
C319 O304 1.259 . S
H320 C328 0.929 . S
H321 C330 0.930 . S
H322 C332 0.930 . S
H323 C335 0.929 . S
H324 C338 0.930 . S
H325 C340 0.960 . S
H326 C340 0.960 . S
H327 C340 0.960 . S
C328 H320 0.929 . S
C328 C329 1.377 1_556 S
C328 C330 1.384 . S
C329 C328 1.377 1_554 S
C329 C335 1.390 . S
C330 H321 0.930 . S
C330 C328 1.384 . S
C330 C331 1.372 . S
C331 C330 1.372 . S
C331 C332 1.400 . S
C331 C336 1.490 . S
C332 H322 0.930 . S
C332 C331 1.400 . S
C332 C335 1.386 1_556 S
H333 C349 0.930 . S
H334 C350 0.931 . S
C335 H323 0.929 . S
C335 C329 1.390 . S
C335 C332 1.386 1_554 S
C336 C331 1.490 . S
C336 C338 1.395 . S
C336 C339 1.403 . S
H337 C343 0.930 . S
C338 H324 0.930 . S
C338 C336 1.395 . S
C338 C341 1.403 . S
C339 C336 1.403 . S
C339 C340 1.524 . S
C339 C343 1.400 . S
C340 H325 0.960 . S
C340 H326 0.960 . S
C340 H327 0.960 . S
C340 C339 1.524 . S
C341 C338 1.403 . S
C341 C342 1.392 . S
C341 C345 1.495 . S
C342 C341 1.392 . S
C342 C343 1.385 . S
C342 C344 1.478 . S
C343 H337 0.930 . S
C343 C339 1.400 . S
C343 C342 1.385 . S
C344 C342 1.478 . S
C344 C346 1.381 . S
C344 C350 1.383 . S
C345 C341 1.495 . S
C345 H351 0.959 . S
C345 H352 0.961 . S
C345 H353 0.960 . S
C346 C344 1.381 . S
C346 C347 1.394 . S
C346 H354 0.930 . S
C347 C346 1.394 . S
C347 C348 1.383 . S
C347 H355 0.929 . S
C348 C347 1.383 . S
C348 C349 1.377 . S
C349 H333 0.930 . S
C349 C348 1.377 . S
C349 C350 1.379 . S
C350 H334 0.931 . S
C350 C344 1.383 . S
C350 C349 1.379 . S
H351 C345 0.959 . S
H352 C345 0.961 . S
H353 C345 0.960 . S
H354 C346 0.930 . S
H355 C347 0.929 . S
H356 C364 0.929 . S
H357 C366 0.930 . S
H358 C368 0.930 . S
H359 C371 0.929 . S
H360 C374 0.930 . S
H361 C376 0.960 . S
H362 C376 0.960 . S
H363 C376 0.960 . S
C364 H356 0.929 . S
C364 C365 1.377 . S
C364 C366 1.384 . S
C365 C364 1.377 . S
C365 C371 1.390 . S
C366 H357 0.930 . S
C366 C364 1.384 . S
C366 C367 1.372 . S
C367 C366 1.372 . S
C367 C368 1.400 . S
C367 C372 1.490 . S
C368 H358 0.930 . S
C368 C367 1.400 . S
C368 C371 1.386 . S
H369 C385 0.930 . S
H370 C386 0.931 . S
C371 H359 0.929 . S
C371 C365 1.390 . S
C371 C368 1.386 . S
C372 C367 1.490 . S
C372 C374 1.395 . S
C372 C375 1.403 . S
H373 C379 0.930 . S
C374 H360 0.930 . S
C374 C372 1.395 . S
C374 C377 1.403 . S
C375 C372 1.403 . S
C375 C376 1.524 . S
C375 C379 1.400 . S
C376 H361 0.960 . S
C376 H362 0.960 . S
C376 H363 0.960 . S
C376 C375 1.524 . S
C377 C374 1.403 . S
C377 C378 1.392 . S
C377 C381 1.495 . S
C378 C377 1.392 . S
C378 C379 1.385 . S
C378 C380 1.478 . S
C379 H373 0.930 . S
C379 C375 1.400 . S
C379 C378 1.385 . S
C380 C378 1.478 . S
C380 C382 1.381 . S
C380 C386 1.383 . S
C381 C377 1.495 . S
C381 H387 0.959 . S
C381 H388 0.961 . S
C381 H389 0.960 . S
C382 C380 1.381 . S
C382 C383 1.394 1_554 S
C382 H390 0.930 . S
C383 C382 1.394 1_556 S
C383 C384 1.383 . S
C383 H391 0.929 . S
C384 C383 1.383 . S
C384 C385 1.377 1_556 S
C385 H369 0.930 . S
C385 C384 1.377 1_554 S
C385 C386 1.379 . S
C386 H370 0.931 . S
C386 C380 1.383 . S
C386 C385 1.379 . S
H387 C381 0.959 . S
H388 C381 0.961 . S
H389 C381 0.960 . S
H390 C382 0.930 . S
H391 C383 0.929 . S
H392 C400 0.929 . S
H393 C402 0.930 . S
H394 C404 0.930 . S
H395 C407 0.929 . S
H396 C410 0.930 . S
H397 C412 0.960 . S
H398 C412 0.960 . S
H399 C412 0.960 . S
C400 H392 0.929 . S
C400 C401 1.377 . S
C400 C402 1.384 . S
C401 C400 1.377 . S
C401 C407 1.390 . S
C402 H393 0.930 . S
C402 C400 1.384 . S
C402 C403 1.372 . S
C403 C402 1.372 . S
C403 C404 1.400 . S
C403 C408 1.490 . S
C404 H394 0.930 . S
C404 C403 1.400 . S
C404 C407 1.386 . S
H405 C421 0.930 . S
H406 C422 0.931 . S
C407 H395 0.929 . S
C407 C401 1.390 . S
C407 C404 1.386 . S
C408 C403 1.490 . S
C408 C410 1.395 . S
C408 C411 1.403 . S
H409 C415 0.930 . S
C410 H396 0.930 . S
C410 C408 1.395 . S
C410 C413 1.403 . S
C411 C408 1.403 . S
C411 C412 1.524 . S
C411 C415 1.400 . S
C412 H397 0.960 . S
C412 H398 0.960 . S
C412 H399 0.960 . S
C412 C411 1.524 . S
C413 C410 1.403 . S
C413 C414 1.392 . S
C413 C417 1.495 . S
C414 C413 1.392 . S
C414 C415 1.385 . S
C414 C416 1.478 . S
C415 H409 0.930 . S
C415 C411 1.400 . S
C415 C414 1.385 . S
C416 C414 1.478 . S
C416 C418 1.381 . S
C416 C422 1.383 . S
C417 C413 1.495 . S
C417 H423 0.959 . S
C417 H424 0.961 . S
C417 H425 0.960 . S
C418 C416 1.381 . S
C418 C419 1.394 . S
C418 H426 0.930 . S
C419 C418 1.394 . S
C419 C420 1.383 . S
C419 H427 0.929 . S
C420 C419 1.383 . S
C420 C421 1.377 . S
C421 H405 0.930 . S
C421 C420 1.377 . S
C421 C422 1.379 . S
C422 H406 0.931 . S
C422 C416 1.383 . S
C422 C421 1.379 . S
H423 C417 0.959 . S
H424 C417 0.961 . S
H425 C417 0.960 . S
H426 C418 0.930 . S
H427 C419 0.929 . S
H428 C436 0.929 . S
H429 C438 0.930 . S
H430 C440 0.930 . S
H431 C443 0.929 . S
H432 C446 0.930 . S
H433 C448 0.960 . S
H434 C448 0.960 . S
H435 C448 0.960 . S
C436 H428 0.929 . S
C436 C437 1.377 . S
C436 C438 1.384 . S
C437 C436 1.377 . S
C437 C443 1.390 . S
C438 H429 0.930 . S
C438 C436 1.384 . S
C438 C439 1.372 . S
C439 C438 1.372 . S
C439 C440 1.400 . S
C439 C444 1.490 . S
C440 H430 0.930 . S
C440 C439 1.400 . S
C440 C443 1.386 . S
H441 C457 0.930 . S
H442 C458 0.931 . S
C443 H431 0.929 . S
C443 C437 1.390 . S
C443 C440 1.386 . S
C444 C439 1.490 . S
C444 C446 1.395 . S
C444 C447 1.403 . S
H445 C451 0.930 . S
C446 H432 0.930 . S
C446 C444 1.395 . S
C446 C449 1.403 . S
C447 C444 1.403 . S
C447 C448 1.524 . S
C447 C451 1.400 . S
C448 H433 0.960 . S
C448 H434 0.960 . S
C448 H435 0.960 . S
C448 C447 1.524 . S
C449 C446 1.403 . S
C449 C450 1.392 . S
C449 C453 1.495 . S
C450 C449 1.392 . S
C450 C451 1.385 . S
C450 C452 1.478 . S
C451 H445 0.930 . S
C451 C447 1.400 . S
C451 C450 1.385 . S
C452 C450 1.478 . S
C452 C454 1.381 . S
C452 C458 1.383 . S
C453 C449 1.495 . S
C453 H459 0.959 . S
C453 H460 0.961 . S
C453 H461 0.960 . S
C454 C452 1.381 . S
C454 C455 1.394 . S
C454 H462 0.930 . S
C455 C454 1.394 . S
C455 C456 1.383 . S
C455 H463 0.929 . S
C456 C455 1.383 . S
C456 C457 1.377 . S
C457 H441 0.930 . S
C457 C456 1.377 . S
C457 C458 1.379 . S
C458 H442 0.931 . S
C458 C452 1.383 . S
C458 C457 1.379 . S
H459 C453 0.959 . S
H460 C453 0.961 . S
H461 C453 0.960 . S
H462 C454 0.930 . S
H463 C455 0.929 . S
H464 C472 0.929 . S
H465 C474 0.930 . S
H466 C476 0.930 . S
H467 C479 0.929 . S
H468 C482 0.930 . S
H469 C484 0.960 . S
H470 C484 0.960 . S
H471 C484 0.960 . S
C472 H464 0.929 . S
C472 C473 1.377 . S
C472 C474 1.384 . S
C473 C472 1.377 . S
C473 C479 1.390 . S
C474 H465 0.930 . S
C474 C472 1.384 . S
C474 C475 1.372 . S
C475 C474 1.372 . S
C475 C476 1.400 . S
C475 C480 1.490 . S
C476 H466 0.930 . S
C476 C475 1.400 . S
C476 C479 1.386 . S
H477 C493 0.930 . S
H478 C494 0.931 . S
C479 H467 0.929 . S
C479 C473 1.390 . S
C479 C476 1.386 . S
C480 C475 1.490 . S
C480 C482 1.395 . S
C480 C483 1.403 . S
H481 C487 0.930 . S
C482 H468 0.930 . S
C482 C480 1.395 . S
C482 C485 1.403 . S
C483 C480 1.403 . S
C483 C484 1.524 . S
C483 C487 1.400 . S
C484 H469 0.960 . S
C484 H470 0.960 . S
C484 H471 0.960 . S
C484 C483 1.524 . S
C485 C482 1.403 . S
C485 C486 1.392 . S
C485 C489 1.495 . S
C486 C485 1.392 . S
C486 C487 1.385 . S
C486 C488 1.478 . S
C487 H481 0.930 . S
C487 C483 1.400 . S
C487 C486 1.385 . S
C488 C486 1.478 . S
C488 C490 1.381 . S
C488 C494 1.383 1_655 S
C489 C485 1.495 . S
C489 H495 0.959 . S
C489 H496 0.961 1_655 S
C489 H497 0.960 . S
C490 C488 1.381 . S
C490 C491 1.403 1_554 S
C490 H498 0.930 . S
C491 C490 1.403 1_556 S
C491 C492 1.367 1_655 S
C491 H499 0.937 . S
C492 C491 1.367 1_455 S
C492 C493 1.377 . S
C493 H477 0.930 . S
C493 C492 1.377 . S
C493 C494 1.379 1_556 S
C494 H478 0.931 . S
C494 C488 1.383 1_455 S
C494 C493 1.379 1_554 S
H495 C489 0.959 . S
H496 C489 0.961 1_455 S
H497 C489 0.960 . S
H498 C490 0.930 . S
H499 C491 0.937 . S
H500 C508 0.929 . S
H501 C510 0.930 . S
H502 C512 0.930 . S
H503 C515 0.929 . S
H504 C518 0.930 . S
H505 C520 0.960 . S
H506 C520 0.960 . S
H507 C520 0.960 . S
C508 H500 0.929 . S
C508 C509 1.377 . S
C508 C510 1.384 . S
C509 C508 1.377 . S
C509 C515 1.390 . S
C510 H501 0.930 . S
C510 C508 1.384 . S
C510 C511 1.372 . S
C511 C510 1.372 . S
C511 C512 1.400 . S
C511 C516 1.490 . S
C512 H502 0.930 . S
C512 C511 1.400 . S
C512 C515 1.386 . S
H513 C529 0.930 . S
H514 C530 0.931 . S
C515 H503 0.929 . S
C515 C509 1.390 . S
C515 C512 1.386 . S
C516 C511 1.490 . S
C516 C518 1.395 . S
C516 C519 1.403 . S
H517 C523 0.930 . S
C518 H504 0.930 . S
C518 C516 1.395 . S
C518 C521 1.403 . S
C519 C516 1.403 . S
C519 C520 1.524 . S
C519 C523 1.400 . S
C520 H505 0.960 . S
C520 H506 0.960 . S
C520 H507 0.960 . S
C520 C519 1.524 . S
C521 C518 1.403 . S
C521 C522 1.392 . S
C521 C525 1.495 . S
C522 C521 1.392 . S
C522 C523 1.385 . S
C522 C524 1.478 . S
C523 H517 0.930 . S
C523 C519 1.400 . S
C523 C522 1.385 . S
C524 C522 1.478 . S
C524 C526 1.381 1_655 S
C524 C530 1.383 . S
C525 C521 1.495 . S
C525 H531 0.959 . S
C525 H532 0.961 . S
C525 H533 0.960 1_655 S
C526 C524 1.381 1_455 S
C526 C527 1.394 1_556 S
C526 H534 0.930 . S
C527 C526 1.394 1_554 S
C527 C528 1.383 . S
C527 H535 0.929 . S
C528 C527 1.383 . S
C528 C529 1.377 1_455 S
C529 H513 0.930 . S
C529 C528 1.377 1_655 S
C529 C530 1.379 1_554 S
C530 H514 0.931 . S
C530 C524 1.383 . S
C530 C529 1.379 1_556 S
H531 C525 0.959 . S
H532 C525 0.961 . S
H533 C525 0.960 1_455 S
H534 C526 0.930 . S
H535 C527 0.929 . S
H536 C544 0.929 . S
H537 C546 0.930 . S
H538 C548 0.930 . S
H539 C551 0.929 . S
H540 C554 0.930 . S
H541 C556 0.960 . S
H542 C556 0.960 . S
H543 C556 0.960 . S
C544 H536 0.929 . S
C544 C545 1.377 . S
C544 C546 1.384 . S
C545 C544 1.377 . S
C545 C551 1.390 . S
C546 H537 0.930 . S
C546 C544 1.384 . S
C546 C547 1.372 . S
C547 C546 1.372 . S
C547 C548 1.400 . S
C547 C552 1.490 . S
C548 H538 0.930 . S
C548 C547 1.400 . S
C548 C551 1.386 . S
H549 C565 0.930 . S
H550 C566 0.931 . S
C551 H539 0.929 . S
C551 C545 1.390 . S
C551 C548 1.386 . S
C552 C547 1.490 . S
C552 C554 1.395 . S
C552 C555 1.403 . S
H553 C559 0.930 . S
C554 H540 0.930 . S
C554 C552 1.395 . S
C554 C557 1.403 . S
C555 C552 1.403 . S
C555 C556 1.524 . S
C555 C559 1.400 . S
C556 H541 0.960 . S
C556 H542 0.960 . S
C556 H543 0.960 . S
C556 C555 1.524 . S
C557 C554 1.403 . S
C557 C558 1.392 . S
C557 C561 1.495 . S
C558 C557 1.392 . S
C558 C559 1.385 . S
C558 C560 1.478 . S
C559 H553 0.930 . S
C559 C555 1.400 . S
C559 C558 1.385 . S
C560 C558 1.478 . S
C560 C562 1.381 . S
C560 C566 1.383 . S
C561 C557 1.495 . S
C561 H567 0.959 . S
C561 H568 0.961 . S
C561 H569 0.960 . S
C562 C560 1.381 . S
C562 C563 1.394 . S
C562 H570 0.930 . S
C563 C562 1.394 . S
C563 C564 1.383 . S
C563 H571 0.929 . S
C564 C563 1.383 . S
C564 C565 1.377 . S
C565 H549 0.930 . S
C565 C564 1.377 . S
C565 C566 1.379 . S
C566 H550 0.931 . S
C566 C560 1.383 . S
C566 C565 1.379 . S
H567 C561 0.959 . S
H568 C561 0.961 . S
H569 C561 0.960 . S
H570 C562 0.930 . S
H571 C563 0.929 . S
H572 C580 0.929 . S
H573 C582 0.930 . S
H574 C584 0.930 . S
H575 C587 0.929 . S
H576 C590 0.930 . S
H577 C592 0.960 . S
H578 C592 0.960 . S
H579 C592 0.960 . S
C580 H572 0.929 . S
C580 C581 1.377 . S
C580 C582 1.384 . S
C581 C580 1.377 . S
C581 C587 1.390 . S
C582 H573 0.930 . S
C582 C580 1.384 . S
C582 C583 1.372 . S
C583 C582 1.372 . S
C583 C584 1.400 . S
C583 C588 1.490 . S
C584 H574 0.930 . S
C584 C583 1.400 . S
C584 C587 1.386 . S
H585 C601 0.930 . S
H586 C602 0.931 . S
C587 H575 0.929 . S
C587 C581 1.390 . S
C587 C584 1.386 . S
C588 C583 1.490 . S
C588 C590 1.395 . S
C588 C591 1.403 . S
H589 C595 0.930 . S
C590 H576 0.930 . S
C590 C588 1.395 . S
C590 C593 1.403 . S
C591 C588 1.403 . S
C591 C592 1.524 . S
C591 C595 1.400 . S
C592 H577 0.960 . S
C592 H578 0.960 . S
C592 H579 0.960 . S
C592 C591 1.524 . S
C593 C590 1.403 . S
C593 C594 1.392 . S
C593 C597 1.495 . S
C594 C593 1.392 . S
C594 C595 1.385 . S
C594 C596 1.478 . S
C595 H589 0.930 . S
C595 C591 1.400 . S
C595 C594 1.385 . S
C596 C594 1.478 . S
C596 C598 1.381 . S
C596 C602 1.383 . S
C597 C593 1.495 . S
C597 H603 0.959 . S
C597 H604 0.961 . S
C597 H605 0.960 . S
C598 C596 1.381 . S
C598 C599 1.394 . S
C598 H606 0.930 . S
C599 C598 1.394 . S
C599 C600 1.383 . S
C599 H607 0.929 . S
C600 C599 1.383 . S
C600 C601 1.377 . S
C601 H585 0.930 . S
C601 C600 1.377 . S
C601 C602 1.379 . S
C602 H586 0.931 . S
C602 C596 1.383 . S
C602 C601 1.379 . S
H603 C597 0.959 . S
H604 C597 0.961 . S
H605 C597 0.960 . S
H606 C598 0.930 . S
H607 C599 0.929 . S
H608 C616 0.929 . S
H609 C618 0.930 . S
H610 C620 0.930 . S
H611 C623 0.929 . S
H612 C626 0.930 . S
H613 C628 0.960 . S
H614 C628 0.960 . S
H615 C628 0.960 . S
C616 H608 0.929 . S
C616 C617 1.377 . S
C616 C618 1.384 . S
C617 C616 1.377 . S
C617 C623 1.390 . S
C618 H609 0.930 . S
C618 C616 1.384 . S
C618 C619 1.372 . S
C619 C618 1.372 . S
C619 C620 1.400 . S
C619 C624 1.490 . S
C620 H610 0.930 . S
C620 C619 1.400 . S
C620 C623 1.386 . S
H621 C637 0.930 . S
H622 C638 0.931 . S
C623 H611 0.929 . S
C623 C617 1.390 . S
C623 C620 1.386 . S
C624 C619 1.490 . S
C624 C626 1.395 . S
C624 C627 1.403 . S
H625 C631 0.930 . S
C626 H612 0.930 . S
C626 C624 1.395 . S
C626 C629 1.403 . S
C627 C624 1.403 . S
C627 C628 1.524 . S
C627 C631 1.400 . S
C628 H613 0.960 . S
C628 H614 0.960 . S
C628 H615 0.960 . S
C628 C627 1.524 . S
C629 C626 1.403 . S
C629 C630 1.392 . S
C629 C633 1.495 . S
C630 C629 1.392 . S
C630 C631 1.385 . S
C630 C632 1.478 . S
C631 H625 0.930 . S
C631 C627 1.400 . S
C631 C630 1.385 . S
C632 C630 1.478 . S
C632 C634 1.381 . S
C632 C638 1.383 . S
C633 C629 1.495 . S
C633 H639 0.959 . S
C633 H640 0.961 . S
C633 H641 0.960 . S
C634 C632 1.381 . S
C634 C635 1.394 . S
C634 H642 0.930 . S
C635 C634 1.394 . S
C635 C636 1.383 . S
C635 H643 0.929 . S
C636 C635 1.383 . S
C636 C637 1.377 . S
C637 H621 0.930 . S
C637 C636 1.377 . S
C637 C638 1.379 . S
C638 H622 0.931 . S
C638 C632 1.383 . S
C638 C637 1.379 . S
H639 C633 0.959 . S
H640 C633 0.961 . S
H641 C633 0.960 . S
H642 C634 0.930 . S
H643 C635 0.929 . S
H644 C652 0.929 . S
H645 C654 0.930 . S
H646 C656 0.930 . S
H647 C659 0.929 . S
H648 C662 0.930 . S
H649 C664 0.960 . S
H650 C664 0.960 . S
H651 C664 0.960 . S
C652 H644 0.929 . S
C652 C653 1.377 . S
C652 C654 1.384 . S
C653 C652 1.377 . S
C653 C659 1.390 . S
C654 H645 0.930 . S
C654 C652 1.384 . S
C654 C655 1.372 . S
C655 C654 1.372 . S
C655 C656 1.400 . S
C655 C660 1.490 . S
C656 H646 0.930 . S
C656 C655 1.400 . S
C656 C659 1.386 . S
H657 C673 0.930 . S
H658 C674 0.931 . S
C659 H647 0.929 . S
C659 C653 1.390 . S
C659 C656 1.386 . S
C660 C655 1.490 . S
C660 C662 1.395 . S
C660 C663 1.403 . S
H661 C667 0.930 . S
C662 H648 0.930 . S
C662 C660 1.395 . S
C662 C665 1.403 . S
C663 C660 1.403 . S
C663 C664 1.524 . S
C663 C667 1.400 . S
C664 H649 0.960 . S
C664 H650 0.960 . S
C664 H651 0.960 . S
C664 C663 1.524 . S
C665 C662 1.403 . S
C665 C666 1.392 . S
C665 C669 1.495 . S
C666 C665 1.392 . S
C666 C667 1.385 . S
C666 C668 1.478 . S
C667 H661 0.930 . S
C667 C663 1.400 . S
C667 C666 1.385 . S
C668 C666 1.478 . S
C668 C670 1.381 . S
C668 C674 1.383 . S
C669 C665 1.495 . S
C669 H675 0.959 . S
C669 H676 0.961 . S
C669 H677 0.960 . S
C670 C668 1.381 . S
C670 C671 1.394 . S
C670 H678 0.930 . S
C671 C670 1.394 . S
C671 C672 1.383 . S
C671 H679 0.929 . S
C672 C671 1.383 . S
C672 C673 1.377 . S
C673 H657 0.930 . S
C673 C672 1.377 . S
C673 C674 1.379 . S
C674 H658 0.931 . S
C674 C668 1.383 . S
C674 C673 1.379 . S
H675 C669 0.959 . S
H676 C669 0.961 . S
H677 C669 0.960 . S
H678 C670 0.930 . S
H679 C671 0.929 . S
H680 C688 0.929 1_554 S
H681 C690 0.930 . S
H682 C692 0.930 . S
H683 C695 0.929 . S
H684 C698 0.930 . S
H685 C700 0.960 . S
H686 C700 0.960 . S
H687 C700 0.960 . S
C688 H680 0.929 1_556 S
C688 C689 1.377 . S
C688 C690 1.384 . S
C689 C688 1.377 . S
C689 C695 1.390 . S
C690 H681 0.930 . S
C690 C688 1.384 . S
C690 C691 1.372 . S
C691 C690 1.372 . S
C691 C692 1.400 . S
C691 C696 1.490 . S
C692 H682 0.930 . S
C692 C691 1.400 . S
C692 C695 1.386 . S
H693 C709 0.930 . S
H694 C710 0.931 . S
C695 H683 0.929 . S
C695 C689 1.390 . S
C695 C692 1.386 . S
C696 C691 1.490 . S
C696 C698 1.395 . S
C696 C699 1.403 . S
H697 C703 0.930 . S
C698 H684 0.930 . S
C698 C696 1.395 . S
C698 C701 1.403 . S
C699 C696 1.403 . S
C699 C700 1.524 . S
C699 C703 1.400 . S
C700 H685 0.960 . S
C700 H686 0.960 . S
C700 H687 0.960 . S
C700 C699 1.524 . S
C701 C698 1.403 . S
C701 C702 1.392 . S
C701 C705 1.495 . S
C702 C701 1.392 . S
C702 C703 1.385 . S
C702 C704 1.478 . S
C703 H697 0.930 . S
C703 C699 1.400 . S
C703 C702 1.385 . S
C704 C702 1.478 . S
C704 C706 1.381 . S
C704 C710 1.383 . S
C705 C701 1.495 . S
C705 H711 0.959 . S
C705 H712 0.961 . S
C705 H713 0.960 . S
C706 C704 1.381 . S
C706 C707 1.394 . S
C706 H714 0.930 . S
C707 C706 1.394 . S
C707 C708 1.383 . S
C707 H715 0.929 . S
C708 C707 1.383 . S
C708 C709 1.377 . S
C709 H693 0.930 . S
C709 C708 1.377 . S
C709 C710 1.379 . S
C710 H694 0.931 . S
C710 C704 1.383 . S
C710 C709 1.379 . S
H711 C705 0.959 . S
H712 C705 0.961 . S
H713 C705 0.960 . S
H714 C706 0.930 . S
H715 C707 0.929 . S
H716 C724 0.929 . S
H717 C726 0.930 . S
H718 C728 0.930 . S
H719 C731 0.929 . S
H720 C734 0.930 . S
H721 C736 0.960 . S
H722 C736 0.960 . S
H723 C736 0.960 . S
C724 H716 0.929 . S
C724 C725 1.377 . S
C724 C726 1.384 . S
C725 C724 1.377 . S
C725 C731 1.390 . S
C726 H717 0.930 . S
C726 C724 1.384 . S
C726 C727 1.372 . S
C727 C726 1.372 . S
C727 C728 1.400 . S
C727 C732 1.490 . S
C728 H718 0.930 . S
C728 C727 1.400 . S
C728 C731 1.386 . S
H729 C745 0.930 . S
H730 C746 0.931 . S
C731 H719 0.929 . S
C731 C725 1.390 . S
C731 C728 1.386 . S
C732 C727 1.490 . S
C732 C734 1.395 . S
C732 C735 1.403 . S
H733 C739 0.930 . S
C734 H720 0.930 . S
C734 C732 1.395 . S
C734 C737 1.403 . S
C735 C732 1.403 . S
C735 C736 1.524 . S
C735 C739 1.400 . S
C736 H721 0.960 . S
C736 H722 0.960 . S
C736 H723 0.960 . S
C736 C735 1.524 . S
C737 C734 1.403 . S
C737 C738 1.392 . S
C737 C741 1.495 . S
C738 C737 1.392 . S
C738 C739 1.385 . S
C738 C740 1.478 . S
C739 H733 0.930 . S
C739 C735 1.400 . S
C739 C738 1.385 . S
C740 C738 1.478 . S
C740 C742 1.381 . S
C740 C746 1.383 . S
C741 C737 1.495 . S
C741 H747 0.959 . S
C741 H748 0.961 . S
C741 H749 0.960 . S
C742 C740 1.381 . S
C742 C743 1.394 . S
C742 H750 0.930 . S
C743 C742 1.394 . S
C743 C744 1.383 . S
C743 H751 0.929 1_554 S
C744 C743 1.383 . S
C744 C745 1.377 . S
C745 H729 0.930 . S
C745 C744 1.377 . S
C745 C746 1.379 . S
C746 H730 0.931 . S
C746 C740 1.383 . S
C746 C745 1.379 . S
H747 C741 0.959 . S
H748 C741 0.961 . S
H749 C741 0.960 . S
H750 C742 0.930 . S
H751 C743 0.929 1_556 S
H752 C760 0.929 . S
H753 C762 0.930 . S
H754 C764 0.930 . S
H755 C767 0.929 . S
H756 C770 0.930 . S
H757 C772 0.960 . S
H758 C772 0.960 . S
H759 C772 0.960 . S
C760 H752 0.929 . S
C760 C761 1.377 . S
C760 C762 1.384 . S
C761 C760 1.377 . S
C761 C767 1.390 . S
C762 H753 0.930 . S
C762 C760 1.384 . S
C762 C763 1.372 . S
C763 C762 1.372 . S
C763 C764 1.400 . S
C763 C768 1.490 . S
C764 H754 0.930 . S
C764 C763 1.400 . S
C764 C767 1.386 . S
H765 C781 0.930 . S
H766 C782 0.931 . S
C767 H755 0.929 . S
C767 C761 1.390 . S
C767 C764 1.386 . S
C768 C763 1.490 . S
C768 C770 1.395 . S
C768 C771 1.403 . S
H769 C775 0.930 . S
C770 H756 0.930 . S
C770 C768 1.395 . S
C770 C773 1.403 . S
C771 C768 1.403 . S
C771 C772 1.524 . S
C771 C775 1.400 . S
C772 H757 0.960 . S
C772 H758 0.960 . S
C772 H759 0.960 . S
C772 C771 1.524 . S
C773 C770 1.403 . S
C773 C774 1.392 . S
C773 C777 1.495 . S
C774 C773 1.392 . S
C774 C775 1.385 . S
C774 C776 1.478 . S
C775 H769 0.930 . S
C775 C771 1.400 . S
C775 C774 1.385 . S
C776 C774 1.478 . S
C776 C778 1.381 . S
C776 C782 1.383 . S
C777 C773 1.495 . S
C777 H783 0.959 . S
C777 H784 0.961 . S
C777 H785 0.960 . S
C778 C776 1.381 . S
C778 C779 1.394 . S
C778 H786 0.930 . S
C779 C778 1.394 . S
C779 C780 1.383 . S
C779 H787 0.929 . S
C780 C779 1.383 . S
C780 C781 1.377 . S
C781 H765 0.930 . S
C781 C780 1.377 . S
C781 C782 1.379 . S
C782 H766 0.931 . S
C782 C776 1.383 . S
C782 C781 1.379 . S
H783 C777 0.959 . S
H784 C777 0.961 . S
H785 C777 0.960 . S
H786 C778 0.930 . S
H787 C779 0.929 . S
H788 C796 0.929 . S
H789 C798 0.930 . S
H790 C800 0.930 . S
H791 C803 0.929 . S
H792 C806 0.930 . S
H793 C808 0.960 . S
H794 C808 0.960 . S
H795 C808 0.960 . S
C796 H788 0.929 . S
C796 C797 1.377 . S
C796 C798 1.384 . S
C797 C796 1.377 . S
C797 C803 1.390 . S
C798 H789 0.930 . S
C798 C796 1.384 . S
C798 C799 1.372 . S
C799 C798 1.372 . S
C799 C800 1.400 . S
C799 C804 1.490 . S
C800 H790 0.930 . S
C800 C799 1.400 . S
C800 C803 1.386 . S
H801 C817 0.930 . S
H802 C818 0.931 . S
C803 H791 0.929 . S
C803 C797 1.390 . S
C803 C800 1.386 . S
C804 C799 1.490 . S
C804 C806 1.395 . S
C804 C807 1.403 . S
H805 C811 0.930 . S
C806 H792 0.930 . S
C806 C804 1.395 . S
C806 C809 1.403 . S
C807 C804 1.403 . S
C807 C808 1.524 . S
C807 C811 1.400 . S
C808 H793 0.960 . S
C808 H794 0.960 . S
C808 H795 0.960 . S
C808 C807 1.524 . S
C809 C806 1.403 . S
C809 C810 1.392 . S
C809 C813 1.495 . S
C810 C809 1.392 . S
C810 C811 1.385 . S
C810 C812 1.478 . S
C811 H805 0.930 . S
C811 C807 1.400 . S
C811 C810 1.385 . S
C812 C810 1.478 . S
C812 C814 1.381 . S
C812 C818 1.383 . S
C813 C809 1.495 . S
C813 H819 0.959 . S
C813 H820 0.961 . S
C813 H821 0.960 . S
C814 C812 1.381 . S
C814 C815 1.394 . S
C814 H822 0.930 . S
C815 C814 1.394 . S
C815 C816 1.383 . S
C815 H823 0.929 . S
C816 C815 1.383 . S
C816 C817 1.377 . S
C817 H801 0.930 . S
C817 C816 1.377 . S
C817 C818 1.379 . S
C818 H802 0.931 . S
C818 C812 1.383 . S
C818 C817 1.379 . S
H819 C813 0.959 . S
H820 C813 0.961 . S
H821 C813 0.960 . S
H822 C814 0.930 . S
H823 C815 0.929 . S
H824 C832 0.929 . S
H825 C834 0.930 . S
H826 C836 0.930 . S
H827 C839 0.929 . S
H828 C842 0.930 . S
H829 C844 0.960 . S
H830 C844 0.960 . S
H831 C844 0.960 . S
C832 H824 0.929 . S
C832 C833 1.377 . S
C832 C834 1.384 . S
C833 C832 1.377 . S
C833 C839 1.390 . S
C834 H825 0.930 . S
C834 C832 1.384 . S
C834 C835 1.372 . S
C835 C834 1.372 . S
C835 C836 1.400 . S
C835 C840 1.490 . S
C836 H826 0.930 . S
C836 C835 1.400 . S
C836 C839 1.386 . S
H837 C853 0.930 . S
H838 C854 0.931 . S
C839 H827 0.929 . S
C839 C833 1.390 . S
C839 C836 1.386 . S
C840 C835 1.490 . S
C840 C842 1.395 . S
C840 C843 1.403 . S
H841 C847 0.930 . S
C842 H828 0.930 . S
C842 C840 1.395 . S
C842 C845 1.403 . S
C843 C840 1.403 . S
C843 C844 1.524 . S
C843 C847 1.400 . S
C844 H829 0.960 . S
C844 H830 0.960 . S
C844 H831 0.960 . S
C844 C843 1.524 . S
C845 C842 1.403 . S
C845 C846 1.392 . S
C845 C849 1.495 . S
C846 C845 1.392 . S
C846 C847 1.385 . S
C846 C848 1.478 . S
C847 H841 0.930 . S
C847 C843 1.400 . S
C847 C846 1.385 . S
C848 C846 1.478 . S
C848 C850 1.381 . S
C848 C854 1.383 . S
C849 C845 1.495 . S
C849 H855 0.959 . S
C849 H856 0.961 . S
C849 H857 0.960 . S
C850 C848 1.381 . S
C850 C851 1.394 1_554 S
C850 H858 0.930 . S
C851 C850 1.394 1_556 S
C851 C852 1.383 . S
C851 H859 0.929 . S
C852 C851 1.383 . S
C852 C853 1.377 1_556 S
C853 H837 0.930 . S
C853 C852 1.377 1_554 S
C853 C854 1.379 . S
C854 H838 0.931 . S
C854 C848 1.383 . S
C854 C853 1.379 . S
H855 C849 0.959 . S
H856 C849 0.961 . S
H857 C849 0.960 . S
H858 C850 0.930 . S
H859 C851 0.929 . S
H860 C868 0.929 . S
H861 C870 0.930 . S
H862 C872 0.930 . S
H863 C875 0.929 . S
H864 C878 0.930 . S
H865 C880 0.960 . S
H866 C880 0.960 . S
H867 C880 0.960 . S
C868 H860 0.929 . S
C868 C869 1.377 . S
C868 C870 1.384 . S
C869 C868 1.377 . S
C869 C875 1.390 . S
C870 H861 0.930 . S
C870 C868 1.384 . S
C870 C871 1.372 . S
C871 C870 1.372 . S
C871 C872 1.400 . S
C871 C876 1.490 . S
C872 H862 0.930 . S
C872 C871 1.400 . S
C872 C875 1.386 . S
H873 C889 0.930 . S
H874 C890 0.931 . S
C875 H863 0.929 . S
C875 C869 1.390 . S
C875 C872 1.386 . S
C876 C871 1.490 . S
C876 C878 1.395 . S
C876 C879 1.403 . S
H877 C883 0.930 . S
C878 H864 0.930 . S
C878 C876 1.395 . S
C878 C881 1.403 . S
C879 C876 1.403 . S
C879 C880 1.524 . S
C879 C883 1.400 . S
C880 H865 0.960 . S
C880 H866 0.960 . S
C880 H867 0.960 . S
C880 C879 1.524 . S
C881 C878 1.403 . S
C881 C882 1.392 . S
C881 C885 1.495 . S
C882 C881 1.392 . S
C882 C883 1.385 . S
C882 C884 1.478 . S
C883 H877 0.930 . S
C883 C879 1.400 . S
C883 C882 1.385 . S
C884 C882 1.478 . S
C884 C886 1.381 . S
C884 C890 1.383 . S
C885 C881 1.495 . S
C885 H891 0.959 . S
C885 H892 0.961 . S
C885 H893 0.960 . S
C886 C884 1.381 . S
C886 C887 1.394 . S
C886 H894 0.930 . S
C887 C886 1.394 . S
C887 C888 1.383 1_556 S
C887 H895 0.929 . S
C888 C887 1.383 1_554 S
C888 C889 1.377 . S
C889 H873 0.930 . S
C889 C888 1.377 . S
C889 C890 1.379 1_554 S
C890 H874 0.931 . S
C890 C884 1.383 . S
C890 C889 1.379 1_556 S
H891 C885 0.959 . S
H892 C885 0.961 . S
H893 C885 0.960 . S
H894 C886 0.930 . S
H895 C887 0.929 . S
H896 C904 0.929 . S
H897 C906 0.926 1_655 S
H898 C908 0.930 . S
H899 C911 0.929 . S
H900 C914 0.930 1_655 S
H901 C916 0.960 . S
H902 C916 0.960 . S
H903 C916 0.960 . S
C904 H896 0.929 . S
C904 C905 1.377 1_655 S
C904 C906 1.384 1_655 S
C905 C904 1.377 1_455 S
C905 C911 1.390 . S
C906 H897 0.926 1_455 S
C906 C904 1.384 1_455 S
C906 C907 1.372 . S
C907 C906 1.372 . S
C907 C908 1.400 . S
C907 C912 1.490 . S
C908 H898 0.930 . S
C908 C907 1.400 . S
C908 C911 1.386 . S
H909 C925 0.930 . S
H910 C926 0.931 . S
C911 H899 0.929 . S
C911 C905 1.390 . S
C911 C908 1.386 . S
C912 C907 1.490 . S
C912 C914 1.395 . S
C912 C915 1.403 . S
H913 C919 0.930 . S
C914 H900 0.930 1_455 S
C914 C912 1.395 . S
C914 C917 1.403 . S
C915 C912 1.403 . S
C915 C916 1.524 . S
C915 C919 1.400 . S
C916 H901 0.960 . S
C916 H902 0.960 . S
C916 H903 0.960 . S
C916 C915 1.524 . S
C917 C914 1.403 . S
C917 C918 1.392 . S
C917 C921 1.495 1_455 S
C918 C917 1.392 . S
C918 C919 1.385 . S
C918 C920 1.478 . S
C919 H913 0.930 . S
C919 C915 1.400 . S
C919 C918 1.385 . S
C920 C918 1.478 . S
C920 C922 1.381 . S
C920 C926 1.383 . S
C921 C917 1.495 1_655 S
C921 H927 0.959 . S
C921 H928 0.961 . S
C921 H929 0.960 . S
C922 C920 1.381 . S
C922 C923 1.394 . S
C922 H930 0.930 . S
C923 C922 1.394 . S
C923 C924 1.383 . S
C923 H931 0.929 . S
C924 C923 1.383 . S
C924 C925 1.377 . S
C925 H909 0.930 . S
C925 C924 1.377 . S
C925 C926 1.379 . S
C926 H910 0.931 . S
C926 C920 1.383 . S
C926 C925 1.379 . S
H927 C921 0.959 . S
H928 C921 0.961 . S
H929 C921 0.960 . S
H930 C922 0.930 . S
H931 C923 0.929 . S
H932 C940 0.929 . S
H933 C942 0.930 . S
H934 C944 0.930 . S
H935 C947 0.929 . S
H936 C950 0.930 . S
H937 C952 0.960 1_455 S
H938 C952 0.960 . S
H939 C952 0.960 . S
C940 H932 0.929 . S
C940 C941 1.377 . S
C940 C942 1.384 . S
C941 C940 1.377 . S
C941 C947 1.390 . S
C942 H933 0.930 . S
C942 C940 1.384 . S
C942 C943 1.372 . S
C943 C942 1.372 . S
C943 C944 1.400 . S
C943 C948 1.490 1_655 S
C944 H934 0.930 . S
C944 C943 1.400 . S
C944 C947 1.386 . S
H945 C961 0.930 . S
H946 C962 0.931 . S
C947 H935 0.929 . S
C947 C941 1.390 . S
C947 C944 1.386 . S
C948 C943 1.490 1_455 S
C948 C950 1.395 . S
C948 C951 1.403 . S
H949 C955 0.930 . S
C950 H936 0.930 . S
C950 C948 1.395 . S
C950 C953 1.403 . S
C951 C948 1.403 . S
C951 C952 1.524 1_455 S
C951 C955 1.400 . S
C952 H937 0.960 1_655 S
C952 H938 0.960 . S
C952 H939 0.960 . S
C952 C951 1.524 1_655 S
C953 C950 1.403 . S
C953 C954 1.392 . S
C953 C957 1.495 . S
C954 C953 1.392 . S
C954 C955 1.385 . S
C954 C956 1.478 . S
C955 H949 0.930 . S
C955 C951 1.400 . S
C955 C954 1.385 . S
C956 C954 1.478 . S
C956 C958 1.381 . S
C956 C962 1.383 . S
C957 C953 1.495 . S
C957 H963 0.959 . S
C957 H964 0.961 . S
C957 H965 0.960 . S
C958 C956 1.381 . S
C958 C959 1.394 . S
C958 H966 0.930 . S
C959 C958 1.394 . S
C959 C960 1.383 . S
C959 H967 0.929 . S
C960 C959 1.383 . S
C960 C961 1.377 . S
C961 H945 0.930 . S
C961 C960 1.377 . S
C961 C962 1.379 . S
C962 H946 0.931 . S
C962 C956 1.383 . S
C962 C961 1.379 . S
H963 C957 0.959 . S
H964 C957 0.961 . S
H965 C957 0.960 . S
H966 C958 0.930 . S
H967 C959 0.929 . S
H968 C976 0.929 . S
H969 C978 0.930 . S
H970 C980 0.930 . S
H971 C983 0.929 . S
H972 C986 0.930 . S
H973 C988 0.960 . S
H974 C988 0.960 . S
H975 C988 0.960 . S
C976 H968 0.929 . S
C976 C977 1.377 . S
C976 C978 1.384 . S
C977 C976 1.377 . S
C977 C983 1.390 . S
C978 H969 0.930 . S
C978 C976 1.384 . S
C978 C979 1.372 . S
C979 C978 1.372 . S
C979 C980 1.400 . S
C979 C984 1.490 . S
C980 H970 0.930 . S
C980 C979 1.400 . S
C980 C983 1.386 . S
H981 C997 0.930 . S
H982 C998 0.931 . S
C983 H971 0.929 . S
C983 C977 1.390 . S
C983 C980 1.386 . S
C984 C979 1.490 . S
C984 C986 1.395 . S
C984 C987 1.403 . S
H985 C991 0.930 . S
C986 H972 0.930 . S
C986 C984 1.395 . S
C986 C989 1.403 . S
C987 C984 1.403 . S
C987 C988 1.524 . S
C987 C991 1.400 . S
C988 H973 0.960 . S
C988 H974 0.960 . S
C988 H975 0.960 . S
C988 C987 1.524 . S
C989 C986 1.403 . S
C989 C990 1.392 . S
C989 C993 1.495 . S
C990 C989 1.392 . S
C990 C991 1.385 . S
C990 C992 1.478 . S
C991 H985 0.930 . S
C991 C987 1.400 . S
C991 C990 1.385 . S
C992 C990 1.478 . S
C992 C994 1.381 . S
C992 C998 1.383 . S
C993 C989 1.495 . S
C993 H999 0.959 . S
C993 H1000 0.961 . S
C993 H1001 0.960 . S
C994 C992 1.381 . S
C994 C995 1.394 . S
C994 H1002 0.930 . S
C995 C994 1.394 . S
C995 C996 1.383 . S
C995 H1003 0.929 . S
C996 C995 1.383 . S
C996 C997 1.377 . S
C997 H981 0.930 . S
C997 C996 1.377 . S
C997 C998 1.379 . S
C998 H982 0.931 . S
C998 C992 1.383 . S
C998 C997 1.379 . S
H999 C993 0.959 . S
H1000 C993 0.961 . S
H1001 C993 0.960 . S
H1002 C994 0.930 . S
H1003 C995 0.929 . S
H1004 C1012 0.929 . S
H1005 C1014 0.930 . S
H1006 C1016 0.930 . S
H1007 C1019 0.929 . S
H1008 C1022 0.930 . S
H1009 C1024 0.960 . S
H1010 C1024 0.960 . S
H1011 C1024 0.960 . S
C1012 H1004 0.929 . S
C1012 C1013 1.377 . S
C1012 C1014 1.384 . S
C1013 C1012 1.377 . S
C1013 C1019 1.390 . S
C1014 H1005 0.930 . S
C1014 C1012 1.384 . S
C1014 C1015 1.372 . S
C1015 C1014 1.372 . S
C1015 C1016 1.400 . S
C1015 C1020 1.490 . S
C1016 H1006 0.930 . S
C1016 C1015 1.400 . S
C1016 C1019 1.386 . S
H1017 C1033 0.930 . S
H1018 C1034 0.931 . S
C1019 H1007 0.929 . S
C1019 C1013 1.390 . S
C1019 C1016 1.386 . S
C1020 C1015 1.490 . S
C1020 C1022 1.395 . S
C1020 C1023 1.403 . S
H1021 C1027 0.930 . S
C1022 H1008 0.930 . S
C1022 C1020 1.395 . S
C1022 C1025 1.403 . S
C1023 C1020 1.403 . S
C1023 C1024 1.524 . S
C1023 C1027 1.400 . S
C1024 H1009 0.960 . S
C1024 H1010 0.960 . S
C1024 H1011 0.960 . S
C1024 C1023 1.524 . S
C1025 C1022 1.403 . S
C1025 C1026 1.392 . S
C1025 C1029 1.495 . S
C1026 C1025 1.392 . S
C1026 C1027 1.385 . S
C1026 C1028 1.478 . S
C1027 H1021 0.930 . S
C1027 C1023 1.400 . S
C1027 C1026 1.385 . S
C1028 C1026 1.478 . S
C1028 C1030 1.381 . S
C1028 C1034 1.383 . S
C1029 C1025 1.495 . S
C1029 H1035 0.959 . S
C1029 H1036 0.961 . S
C1029 H1037 0.960 . S
C1030 C1028 1.381 . S
C1030 C1031 1.394 . S
C1030 H1038 0.930 . S
C1031 C1030 1.394 . S
C1031 C1032 1.383 . S
C1031 H1039 0.929 . S
C1032 C1031 1.383 . S
C1032 C1033 1.377 . S
C1033 H1017 0.930 . S
C1033 C1032 1.377 . S
C1033 C1034 1.379 . S
C1034 H1018 0.931 . S
C1034 C1028 1.383 . S
C1034 C1033 1.379 . S
H1035 C1029 0.959 . S
H1036 C1029 0.961 . S
H1037 C1029 0.960 . S
H1038 C1030 0.930 . S
H1039 C1031 0.929 . S
H1040 C1048 0.929 . S
H1041 C1050 0.930 . S
H1042 C1052 0.930 . S
H1043 C1055 0.929 . S
H1044 C1058 0.957 . S
H1045 C1060 0.960 . S
H1046 C1060 0.960 . S
H1047 C1060 0.960 . S
C1048 H1040 0.929 . S
C1048 C1049 1.377 . S
C1048 C1050 1.384 . S
C1049 C1048 1.377 . S
C1049 C1055 1.390 . S
C1050 H1041 0.930 . S
C1050 C1048 1.384 . S
C1050 C1051 1.372 . S
C1051 C1050 1.372 . S
C1051 C1052 1.400 . S
C1051 C1056 1.490 . S
C1052 H1042 0.930 . S
C1052 C1051 1.400 . S
C1052 C1055 1.386 . S
H1053 C1069 0.930 . S
H1054 C1070 0.931 . S
C1055 H1043 0.929 . S
C1055 C1049 1.390 . S
C1055 C1052 1.386 . S
C1056 C1051 1.490 . S
C1056 C1058 1.395 . S
C1056 C1059 1.403 . S
H1057 C1063 0.930 . S
C1058 H1044 0.957 . S
C1058 C1056 1.395 . S
C1058 C1061 1.403 . S
C1059 C1056 1.403 . S
C1059 C1060 1.524 . S
C1059 C1063 1.400 . S
C1060 H1045 0.960 . S
C1060 H1046 0.960 . S
C1060 H1047 0.960 . S
C1060 C1059 1.524 . S
C1061 C1058 1.403 . S
C1061 C1062 1.392 . S
C1061 C1065 1.495 1_455 S
C1062 C1061 1.392 . S
C1062 C1063 1.385 . S
C1062 C1064 1.478 . S
C1063 H1057 0.930 . S
C1063 C1059 1.400 . S
C1063 C1062 1.385 . S
C1064 C1062 1.478 . S
C1064 C1066 1.381 1_455 S
C1064 C1070 1.383 . S
C1065 C1061 1.495 1_655 S
C1065 H1071 0.959 . S
C1065 H1072 0.961 . S
C1065 H1073 0.960 . S
C1066 C1064 1.381 1_655 S
C1066 C1067 1.394 . S
C1066 H1074 0.930 . S
C1067 C1066 1.394 . S
C1067 C1068 1.383 1_655 S
C1067 H1075 0.929 . S
C1068 C1067 1.383 1_455 S
C1068 C1069 1.377 . S
C1069 H1053 0.930 . S
C1069 C1068 1.377 . S
C1069 C1070 1.379 . S
C1070 H1054 0.931 . S
C1070 C1064 1.383 . S
C1070 C1069 1.379 . S
H1071 C1065 0.959 . S
H1072 C1065 0.961 . S
H1073 C1065 0.960 . S
H1074 C1066 0.930 . S
H1075 C1067 0.929 . S
H1076 C1084 0.929 . S
H1077 C1086 0.930 . S
H1078 C1088 0.930 . S
H1079 C1091 0.929 . S
H1080 C1094 0.930 . S
H1081 C1096 0.960 . S
H1082 C1096 0.960 . S
H1083 C1096 0.960 . S
C1084 H1076 0.929 . S
C1084 C1085 1.377 . S
C1084 C1086 1.384 . S
C1085 C1084 1.377 . S
C1085 C1091 1.390 . S
C1086 H1077 0.930 . S
C1086 C1084 1.384 . S
C1086 C1087 1.372 . S
C1087 C1086 1.372 . S
C1087 C1088 1.400 . S
C1087 C1092 1.490 . S
C1088 H1078 0.930 . S
C1088 C1087 1.400 . S
C1088 C1091 1.386 . S
H1089 C1105 0.930 . S
H1090 C1106 0.931 . S
C1091 H1079 0.929 . S
C1091 C1085 1.390 . S
C1091 C1088 1.386 . S
C1092 C1087 1.490 . S
C1092 C1094 1.395 . S
C1092 C1095 1.403 . S
H1093 C1099 0.930 . S
C1094 H1080 0.930 . S
C1094 C1092 1.395 . S
C1094 C1097 1.403 . S
C1095 C1092 1.403 . S
C1095 C1096 1.524 . S
C1095 C1099 1.400 . S
C1096 H1081 0.960 . S
C1096 H1082 0.960 . S
C1096 H1083 0.960 . S
C1096 C1095 1.524 . S
C1097 C1094 1.403 . S
C1097 C1098 1.392 . S
C1097 C1101 1.495 . S
C1098 C1097 1.392 . S
C1098 C1099 1.385 . S
C1098 C1100 1.478 . S
C1099 H1093 0.930 . S
C1099 C1095 1.400 . S
C1099 C1098 1.385 . S
C1100 C1098 1.478 . S
C1100 C1102 1.381 . S
C1100 C1106 1.383 . S
C1101 C1097 1.495 . S
C1101 H1107 0.959 . S
C1101 H1108 0.961 . S
C1101 H1109 0.960 . S
C1102 C1100 1.381 . S
C1102 C1103 1.394 . S
C1102 H1110 0.930 . S
C1103 C1102 1.394 . S
C1103 C1104 1.383 . S
C1103 H1111 0.929 . S
C1104 C1103 1.383 . S
C1104 C1105 1.377 . S
C1105 H1089 0.930 . S
C1105 C1104 1.377 . S
C1105 C1106 1.379 . S
C1106 H1090 0.931 . S
C1106 C1100 1.383 . S
C1106 C1105 1.379 . S
H1107 C1101 0.959 . S
H1108 C1101 0.961 . S
H1109 C1101 0.960 . S
H1110 C1102 0.930 . S
H1111 C1103 0.929 . S
H1112 C1120 0.929 . S
H1113 C1122 0.930 . S
H1114 C1124 0.930 . S
H1115 C1127 0.929 . S
H1116 C1130 0.930 . S
H1117 C1132 0.960 . S
H1118 C1132 0.960 . S
H1119 C1132 0.960 . S
C1120 H1112 0.929 . S
C1120 C1121 1.377 . S
C1120 C1122 1.384 . S
C1121 C1120 1.377 . S
C1121 C1127 1.390 . S
C1122 H1113 0.930 . S
C1122 C1120 1.384 . S
C1122 C1123 1.372 . S
C1123 C1122 1.372 . S
C1123 C1124 1.400 . S
C1123 C1128 1.490 . S
C1124 H1114 0.930 . S
C1124 C1123 1.400 . S
C1124 C1127 1.386 . S
H1125 C1141 0.930 . S
H1126 C1142 0.931 . S
C1127 H1115 0.929 . S
C1127 C1121 1.390 . S
C1127 C1124 1.386 . S
C1128 C1123 1.490 . S
C1128 C1130 1.395 . S
C1128 C1131 1.403 . S
H1129 C1135 0.930 . S
C1130 H1116 0.930 . S
C1130 C1128 1.395 . S
C1130 C1133 1.403 . S
C1131 C1128 1.403 . S
C1131 C1132 1.524 . S
C1131 C1135 1.400 . S
C1132 H1117 0.960 . S
C1132 H1118 0.960 . S
C1132 H1119 0.960 . S
C1132 C1131 1.524 . S
C1133 C1130 1.403 . S
C1133 C1134 1.392 . S
C1133 C1137 1.495 . S
C1134 C1133 1.392 . S
C1134 C1135 1.385 . S
C1134 C1136 1.478 . S
C1135 H1129 0.930 . S
C1135 C1131 1.400 . S
C1135 C1134 1.385 . S
C1136 C1134 1.478 . S
C1136 C1138 1.381 . S
C1136 C1142 1.383 . S
C1137 C1133 1.495 . S
C1137 H1143 0.959 . S
C1137 H1144 0.961 . S
C1137 H1145 0.960 . S
C1138 C1136 1.381 . S
C1138 C1139 1.394 . S
C1138 H1146 0.930 . S
C1139 C1138 1.394 . S
C1139 C1140 1.383 . S
C1139 H1147 0.929 . S
C1140 C1139 1.383 . S
C1140 C1141 1.377 . S
C1141 H1125 0.930 . S
C1141 C1140 1.377 . S
C1141 C1142 1.379 . S
C1142 H1126 0.931 . S
C1142 C1136 1.383 . S
C1142 C1141 1.379 . S
H1143 C1137 0.959 . S
H1144 C1137 0.961 . S
H1145 C1137 0.960 . S
H1146 C1138 0.930 . S
H1147 C1139 0.929 . S
H1148 C1156 0.929 . S
H1149 C1158 0.930 . S
H1150 C1160 0.930 . S
H1151 C1163 0.929 . S
H1152 C1166 0.930 . S
H1153 C1168 0.960 . S
H1154 C1168 0.960 . S
H1155 C1168 0.960 . S
C1156 H1148 0.929 . S
C1156 C1157 1.377 . S
C1156 C1158 1.384 . S
C1157 C1156 1.377 . S
C1157 C1163 1.390 . S
C1158 H1149 0.930 . S
C1158 C1156 1.384 . S
C1158 C1159 1.372 . S
C1159 C1158 1.372 . S
C1159 C1160 1.400 . S
C1159 C1164 1.490 . S
C1160 H1150 0.930 . S
C1160 C1159 1.400 . S
C1160 C1163 1.386 . S
H1161 C1177 0.930 . S
H1162 C1178 0.931 . S
C1163 H1151 0.929 . S
C1163 C1157 1.390 . S
C1163 C1160 1.386 . S
C1164 C1159 1.490 . S
C1164 C1166 1.395 . S
C1164 C1167 1.403 . S
H1165 C1171 0.930 . S
C1166 H1152 0.930 . S
C1166 C1164 1.395 . S
C1166 C1169 1.403 . S
C1167 C1164 1.403 . S
C1167 C1168 1.524 . S
C1167 C1171 1.400 . S
C1168 H1153 0.960 . S
C1168 H1154 0.960 . S
C1168 H1155 0.960 . S
C1168 C1167 1.524 . S
C1169 C1166 1.403 . S
C1169 C1170 1.392 . S
C1169 C1173 1.495 1_455 S
C1170 C1169 1.392 . S
C1170 C1171 1.385 . S
C1170 C1172 1.478 1_455 S
C1171 H1165 0.930 . S
C1171 C1167 1.400 . S
C1171 C1170 1.385 . S
C1172 C1170 1.478 1_655 S
C1172 C1174 1.381 . S
C1172 C1178 1.383 . S
C1173 C1169 1.495 1_655 S
C1173 H1179 0.959 1_655 S
C1173 H1180 0.961 . S
C1173 H1181 0.960 . S
C1174 C1172 1.381 . S
C1174 C1175 1.394 . S
C1174 H1182 0.930 . S
C1175 C1174 1.394 . S
C1175 C1176 1.383 . S
C1175 H1183 0.929 . S
C1176 C1175 1.383 . S
C1176 C1177 1.377 . S
C1177 H1161 0.930 . S
C1177 C1176 1.377 . S
C1177 C1178 1.379 . S
C1178 H1162 0.931 . S
C1178 C1172 1.383 . S
C1178 C1177 1.379 . S
H1179 C1173 0.959 1_455 S
H1180 C1173 0.961 . S
H1181 C1173 0.960 . S
H1182 C1174 0.930 . S
H1183 C1175 0.929 . S
H1184 C1192 0.929 . S
H1185 C1194 0.930 . S
H1186 C1196 0.930 . S
H1187 C1199 0.929 . S
H1188 C1202 0.930 . S
H1189 C1204 0.960 . S
H1190 C1204 0.960 . S
H1191 C1204 0.960 . S
C1192 H1184 0.929 . S
C1192 C1193 1.377 . S
C1192 C1194 1.384 . S
C1193 C1192 1.377 . S
C1193 C1199 1.390 . S
C1194 H1185 0.930 . S
C1194 C1192 1.384 . S
C1194 C1195 1.372 . S
C1195 C1194 1.372 . S
C1195 C1196 1.400 . S
C1195 C1200 1.490 . S
C1196 H1186 0.930 . S
C1196 C1195 1.400 . S
C1196 C1199 1.386 . S
H1197 C1213 0.930 . S
H1198 C1214 0.931 . S
C1199 H1187 0.929 . S
C1199 C1193 1.390 . S
C1199 C1196 1.386 . S
C1200 C1195 1.490 . S
C1200 C1202 1.395 1_545 S
C1200 C1203 1.403 1_554 S
H1201 C1207 0.930 . S
C1202 H1188 0.930 . S
C1202 C1200 1.395 1_565 S
C1202 C1205 1.403 . S
C1203 C1200 1.403 1_556 S
C1203 C1204 1.524 . S
C1203 C1207 1.400 1_545 S
C1204 H1189 0.960 . S
C1204 H1190 0.960 . S
C1204 H1191 0.960 . S
C1204 C1203 1.524 . S
C1205 C1202 1.403 . S
C1205 C1206 1.392 1_554 S
C1205 C1209 1.495 . S
C1206 C1205 1.392 1_556 S
C1206 C1207 1.385 . S
C1206 C1208 1.478 . S
C1207 H1201 0.930 . S
C1207 C1203 1.400 1_565 S
C1207 C1206 1.385 . S
C1208 C1206 1.478 . S
C1208 C1210 1.381 . S
C1208 C1214 1.383 . S
C1209 C1205 1.495 . S
C1209 H1215 0.959 . S
C1209 H1216 0.961 . S
C1209 H1217 0.960 . S
C1210 C1208 1.381 . S
C1210 C1211 1.394 . S
C1210 H1218 0.930 . S
C1211 C1210 1.394 . S
C1211 C1212 1.383 . S
C1211 H1219 0.929 . S
C1212 C1211 1.383 . S
C1212 C1213 1.377 . S
C1213 H1197 0.930 . S
C1213 C1212 1.377 . S
C1213 C1214 1.379 . S
C1214 H1198 0.931 . S
C1214 C1208 1.383 . S
C1214 C1213 1.379 . S
H1215 C1209 0.959 . S
H1216 C1209 0.961 . S
H1217 C1209 0.960 . S
H1218 C1210 0.930 . S
H1219 C1211 0.929 . S
H1220 C1228 0.929 . S
H1221 C1230 0.930 . S
H1222 C1232 0.930 . S
H1223 C1235 0.929 . S
H1224 C1238 0.930 . S
H1225 C1240 0.960 . S
H1226 C1240 0.960 . S
H1227 C1240 0.960 . S
C1228 H1220 0.929 . S
C1228 C1229 1.377 . S
C1228 C1230 1.384 . S
C1229 C1228 1.377 . S
C1229 C1235 1.390 . S
C1230 H1221 0.930 . S
C1230 C1228 1.384 . S
C1230 C1231 1.372 . S
C1231 C1230 1.372 . S
C1231 C1232 1.400 . S
C1231 C1236 1.490 . S
C1232 H1222 0.930 . S
C1232 C1231 1.400 . S
C1232 C1235 1.386 . S
H1233 C1249 0.930 . S
H1234 C1250 0.931 . S
C1235 H1223 0.929 . S
C1235 C1229 1.390 . S
C1235 C1232 1.386 . S
C1236 C1231 1.490 . S
C1236 C1238 1.395 . S
C1236 C1239 1.403 . S
H1237 C1243 0.930 . S
C1238 H1224 0.930 . S
C1238 C1236 1.395 . S
C1238 C1241 1.403 . S
C1239 C1236 1.403 . S
C1239 C1240 1.524 . S
C1239 C1243 1.400 . S
C1240 H1225 0.960 . S
C1240 H1226 0.960 . S
C1240 H1227 0.960 . S
C1240 C1239 1.524 . S
C1241 C1238 1.403 . S
C1241 C1242 1.392 . S
C1241 C1245 1.495 . S
C1242 C1241 1.392 . S
C1242 C1243 1.385 . S
C1242 C1244 1.478 . S
C1243 H1237 0.930 . S
C1243 C1239 1.400 . S
C1243 C1242 1.385 . S
C1244 C1242 1.478 . S
C1244 C1246 1.381 . S
C1244 C1250 1.383 . S
C1245 C1241 1.495 . S
C1245 H1251 0.959 . S
C1245 H1252 0.961 . S
C1245 H1253 0.960 . S
C1246 C1244 1.381 . S
C1246 C1247 1.394 . S
C1246 H1254 0.930 . S
C1247 C1246 1.394 . S
C1247 C1248 1.383 . S
C1247 H1255 0.929 . S
C1248 C1247 1.383 . S
C1248 C1249 1.377 . S
C1249 H1233 0.930 . S
C1249 C1248 1.377 . S
C1249 C1250 1.379 . S
C1250 H1234 0.931 . S
C1250 C1244 1.383 . S
C1250 C1249 1.379 . S
H1251 C1245 0.959 . S
H1252 C1245 0.961 . S
H1253 C1245 0.960 . S
H1254 C1246 0.930 . S
H1255 C1247 0.929 . S
H1256 C1264 0.929 . S
H1257 C1266 0.930 . S
H1258 C1268 0.930 . S
H1259 C1271 0.929 . S
H1260 C1274 0.930 . S
H1261 C1276 0.960 . S
H1262 C1276 0.960 . S
H1263 C1276 0.960 . S
C1264 H1256 0.929 . S
C1264 C1265 1.377 . S
C1264 C1266 1.384 . S
C1265 C1264 1.377 . S
C1265 C1271 1.390 . S
C1266 H1257 0.930 . S
C1266 C1264 1.384 . S
C1266 C1267 1.372 . S
C1267 C1266 1.372 . S
C1267 C1268 1.400 . S
C1267 C1272 1.490 . S
C1268 H1258 0.930 . S
C1268 C1267 1.400 . S
C1268 C1271 1.386 . S
H1269 C1285 0.930 . S
H1270 C1286 0.931 . S
C1271 H1259 0.929 . S
C1271 C1265 1.390 . S
C1271 C1268 1.386 . S
C1272 C1267 1.490 . S
C1272 C1274 1.395 . S
C1272 C1275 1.403 . S
H1273 C1279 0.930 . S
C1274 H1260 0.930 . S
C1274 C1272 1.395 . S
C1274 C1277 1.403 1_545 S
C1275 C1272 1.403 . S
C1275 C1276 1.524 . S
C1275 C1279 1.400 1_545 S
C1276 H1261 0.960 . S
C1276 H1262 0.960 . S
C1276 H1263 0.960 . S
C1276 C1275 1.524 . S
C1277 C1274 1.403 1_565 S
C1277 C1278 1.392 . S
C1277 C1281 1.495 . S
C1278 C1277 1.392 . S
C1278 C1279 1.385 . S
C1278 C1280 1.478 . S
C1279 H1273 0.930 . S
C1279 C1275 1.400 1_565 S
C1279 C1278 1.385 . S
C1280 C1278 1.478 . S
C1280 C1282 1.381 . S
C1280 C1286 1.383 . S
C1281 C1277 1.495 . S
C1281 H1287 0.959 . S
C1281 H1288 0.961 . S
C1281 H1289 0.960 . S
C1282 C1280 1.381 . S
C1282 C1283 1.394 . S
C1282 H1290 0.930 . S
C1283 C1282 1.394 . S
C1283 C1284 1.383 . S
C1283 H1291 0.929 . S
C1284 C1283 1.383 . S
C1284 C1285 1.377 . S
C1285 H1269 0.930 . S
C1285 C1284 1.377 . S
C1285 C1286 1.379 . S
C1286 H1270 0.931 . S
C1286 C1280 1.383 . S
C1286 C1285 1.379 . S
H1287 C1281 0.959 . S
H1288 C1281 0.961 . S
H1289 C1281 0.960 . S
H1290 C1282 0.930 . S
H1291 C1283 0.929 . S
H1292 C1300 0.929 . S
H1293 C1302 0.930 . S
H1294 C1304 0.930 . S
H1295 C1307 0.929 . S
H1296 C1310 0.930 . S
H1297 C1312 0.960 . S
H1298 C1312 0.960 . S
H1299 C1312 0.960 . S
C1300 H1292 0.929 . S
C1300 C1301 1.377 . S
C1300 C1302 1.384 . S
C1301 C1300 1.377 . S
C1301 C1307 1.390 . S
C1302 H1293 0.930 . S
C1302 C1300 1.384 . S
C1302 C1303 1.372 . S
C1303 C1302 1.372 . S
C1303 C1304 1.400 . S
C1303 C1308 1.490 . S
C1304 H1294 0.930 . S
C1304 C1303 1.400 . S
C1304 C1307 1.386 . S
H1305 C1321 0.930 . S
H1306 C1322 0.931 . S
C1307 H1295 0.929 . S
C1307 C1301 1.390 . S
C1307 C1304 1.386 . S
C1308 C1303 1.490 . S
C1308 C1310 1.395 . S
C1308 C1311 1.403 . S
H1309 C1315 0.930 . S
C1310 H1296 0.930 . S
C1310 C1308 1.395 . S
C1310 C1313 1.403 . S
C1311 C1308 1.403 . S
C1311 C1312 1.524 . S
C1311 C1315 1.400 . S
C1312 H1297 0.960 . S
C1312 H1298 0.960 . S
C1312 H1299 0.960 . S
C1312 C1311 1.524 . S
C1313 C1310 1.403 . S
C1313 C1314 1.392 . S
C1313 C1317 1.495 . S
C1314 C1313 1.392 . S
C1314 C1315 1.385 . S
C1314 C1316 1.478 . S
C1315 H1309 0.930 . S
C1315 C1311 1.400 . S
C1315 C1314 1.385 . S
C1316 C1314 1.478 . S
C1316 C1318 1.381 . S
C1316 C1322 1.383 . S
C1317 C1313 1.495 . S
C1317 H1323 0.959 . S
C1317 H1324 0.961 . S
C1317 H1325 0.960 . S
C1318 C1316 1.381 . S
C1318 C1319 1.394 . S
C1318 H1326 0.930 . S
C1319 C1318 1.394 . S
C1319 C1320 1.383 . S
C1319 H1327 0.929 . S
C1320 C1319 1.383 . S
C1320 C1321 1.377 . S
C1321 H1305 0.930 . S
C1321 C1320 1.377 . S
C1321 C1322 1.379 . S
C1322 H1306 0.931 . S
C1322 C1316 1.383 . S
C1322 C1321 1.379 . S
H1323 C1317 0.959 . S
H1324 C1317 0.961 . S
H1325 C1317 0.960 . S
H1326 C1318 0.930 . S
H1327 C1319 0.929 . S
H1328 C1336 0.929 . S
H1329 C1338 0.930 . S
H1330 C1340 0.930 . S
H1331 C1343 0.929 . S
H1332 C1346 0.930 . S
H1333 C1348 0.960 . S
H1334 C1348 0.960 . S
H1335 C1348 0.960 . S
C1336 H1328 0.929 . S
C1336 C1337 1.377 . S
C1336 C1338 1.384 . S
C1337 C1336 1.377 . S
C1337 C1343 1.390 . S
C1338 H1329 0.930 . S
C1338 C1336 1.384 . S
C1338 C1339 1.372 . S
C1339 C1338 1.372 . S
C1339 C1340 1.400 . S
C1339 C1344 1.490 . S
C1340 H1330 0.930 . S
C1340 C1339 1.400 . S
C1340 C1343 1.386 . S
H1341 C1357 0.930 . S
H1342 C1358 0.931 . S
C1343 H1331 0.929 . S
C1343 C1337 1.390 . S
C1343 C1340 1.386 . S
C1344 C1339 1.490 . S
C1344 C1346 1.395 . S
C1344 C1347 1.403 . S
H1345 C1351 0.930 . S
C1346 H1332 0.930 . S
C1346 C1344 1.395 . S
C1346 C1349 1.403 . S
C1347 C1344 1.403 . S
C1347 C1348 1.524 . S
C1347 C1351 1.400 . S
C1348 H1333 0.960 . S
C1348 H1334 0.960 . S
C1348 H1335 0.960 . S
C1348 C1347 1.524 . S
C1349 C1346 1.403 . S
C1349 C1350 1.392 . S
C1349 C1353 1.495 . S
C1350 C1349 1.392 . S
C1350 C1351 1.385 . S
C1350 C1352 1.478 . S
C1351 H1345 0.930 . S
C1351 C1347 1.400 . S
C1351 C1350 1.385 . S
C1352 C1350 1.478 . S
C1352 C1354 1.381 . S
C1352 C1358 1.383 . S
C1353 C1349 1.495 . S
C1353 H1359 0.959 . S
C1353 H1360 0.961 . S
C1353 H1361 0.960 . S
C1354 C1352 1.381 . S
C1354 C1355 1.394 . S
C1354 H1362 0.930 . S
C1355 C1354 1.394 . S
C1355 C1356 1.383 . S
C1355 H1363 0.929 . S
C1356 C1355 1.383 . S
C1356 C1357 1.377 . S
C1357 H1341 0.930 . S
C1357 C1356 1.377 . S
C1357 C1358 1.379 . S
C1358 H1342 0.931 . S
C1358 C1352 1.383 . S
C1358 C1357 1.379 . S
H1359 C1353 0.959 . S
H1360 C1353 0.961 . S
H1361 C1353 0.960 . S
H1362 C1354 0.930 . S
H1363 C1355 0.929 . S
H1364 C1372 0.929 . S
H1365 C1374 0.930 . S
H1366 C1376 0.930 . S
H1367 C1379 0.929 . S
H1368 C1382 0.930 . S
H1369 C1384 0.960 . S
H1370 C1384 0.960 . S
H1371 C1384 0.960 . S
C1372 H1364 0.929 . S
C1372 C1373 1.377 . S
C1372 C1374 1.384 . S
C1373 C1372 1.377 . S
C1373 C1379 1.390 . S
C1374 H1365 0.930 . S
C1374 C1372 1.384 . S
C1374 C1375 1.372 . S
C1375 C1374 1.372 . S
C1375 C1376 1.400 . S
C1375 C1380 1.490 . S
C1376 H1366 0.930 . S
C1376 C1375 1.400 . S
C1376 C1379 1.386 . S
H1377 C1393 0.930 . S
H1378 C1394 0.931 . S
C1379 H1367 0.929 . S
C1379 C1373 1.390 . S
C1379 C1376 1.386 . S
C1380 C1375 1.490 . S
C1380 C1382 1.395 . S
C1380 C1383 1.403 . S
H1381 C1387 0.930 . S
C1382 H1368 0.930 . S
C1382 C1380 1.395 . S
C1382 C1385 1.403 . S
C1383 C1380 1.403 . S
C1383 C1384 1.524 . S
C1383 C1387 1.400 . S
C1384 H1369 0.960 . S
C1384 H1370 0.960 . S
C1384 H1371 0.960 . S
C1384 C1383 1.524 . S
C1385 C1382 1.403 . S
C1385 C1386 1.392 . S
C1385 C1389 1.495 . S
C1386 C1385 1.392 . S
C1386 C1387 1.385 . S
C1386 C1388 1.478 . S
C1387 H1381 0.930 . S
C1387 C1383 1.400 . S
C1387 C1386 1.385 . S
C1388 C1386 1.478 . S
C1388 C1390 1.381 . S
C1388 C1394 1.383 . S
C1389 C1385 1.495 . S
C1389 H1395 0.959 . S
C1389 H1396 0.961 . S
C1389 H1397 0.960 . S
C1390 C1388 1.381 . S
C1390 C1391 1.394 . S
C1390 H1398 0.930 . S
C1391 C1390 1.394 . S
C1391 C1392 1.383 . S
C1391 H1399 0.929 . S
C1392 C1391 1.383 . S
C1392 C1393 1.377 . S
C1393 H1377 0.930 . S
C1393 C1392 1.377 . S
C1393 C1394 1.379 . S
C1394 H1378 0.931 . S
C1394 C1388 1.383 . S
C1394 C1393 1.379 . S
H1395 C1389 0.959 . S
H1396 C1389 0.961 . S
H1397 C1389 0.960 . S
H1398 C1390 0.930 . S
H1399 C1391 0.929 . S
H1400 C1408 0.929 . S
H1401 C1410 0.930 . S
H1402 C1412 0.930 . S
H1403 C1415 0.929 . S
H1404 C1418 0.930 . S
H1405 C1420 0.960 . S
H1406 C1420 0.960 . S
H1407 C1420 0.960 . S
C1408 H1400 0.929 . S
C1408 C1409 1.377 . S
C1408 C1410 1.384 . S
C1409 C1408 1.377 . S
C1409 C1415 1.390 . S
C1410 H1401 0.930 . S
C1410 C1408 1.384 . S
C1410 C1411 1.372 . S
C1411 C1410 1.372 . S
C1411 C1412 1.400 . S
C1411 C1416 1.490 . S
C1412 H1402 0.930 . S
C1412 C1411 1.400 . S
C1412 C1415 1.386 . S
H1413 C1429 0.930 . S
H1414 C1430 0.931 . S
C1415 H1403 0.929 . S
C1415 C1409 1.390 . S
C1415 C1412 1.386 . S
C1416 C1411 1.490 . S
C1416 C1418 1.395 . S
C1416 C1419 1.403 . S
H1417 C1423 0.930 . S
C1418 H1404 0.930 . S
C1418 C1416 1.395 . S
C1418 C1421 1.403 . S
C1419 C1416 1.403 . S
C1419 C1420 1.524 . S
C1419 C1423 1.400 . S
C1420 H1405 0.960 . S
C1420 H1406 0.960 . S
C1420 H1407 0.960 . S
C1420 C1419 1.524 . S
C1421 C1418 1.403 . S
C1421 C1422 1.392 . S
C1421 C1425 1.495 . S
C1422 C1421 1.392 . S
C1422 C1423 1.385 . S
C1422 C1424 1.478 . S
C1423 H1417 0.930 . S
C1423 C1419 1.400 . S
C1423 C1422 1.385 . S
C1424 C1422 1.478 . S
C1424 C1426 1.381 . S
C1424 C1430 1.383 . S
C1425 C1421 1.495 . S
C1425 H1431 0.959 . S
C1425 H1432 0.961 . S
C1425 H1433 0.960 . S
C1426 C1424 1.381 . S
C1426 C1427 1.394 . S
C1426 H1434 0.930 . S
C1427 C1426 1.394 . S
C1427 C1428 1.383 . S
C1427 H1435 0.929 . S
C1428 C1427 1.383 . S
C1428 C1429 1.377 . S
C1429 H1413 0.930 . S
C1429 C1428 1.377 . S
C1429 C1430 1.379 . S
C1430 H1414 0.931 . S
C1430 C1424 1.383 . S
C1430 C1429 1.379 . S
H1431 C1425 0.959 . S
H1432 C1425 0.961 . S
H1433 C1425 0.960 . S
H1434 C1426 0.930 . S
H1435 C1427 0.929 . S
H1436 C1444 0.929 . S
H1437 C1446 0.930 . S
H1438 C1448 0.930 . S
H1439 C1451 0.929 . S
H1440 C1454 0.930 . S
H1441 C1456 0.960 . S
H1442 C1456 0.960 . S
H1443 C1456 0.960 1_455 S
C1444 H1436 0.929 . S
C1444 C1445 1.377 1_655 S
C1444 C1446 1.384 . S
C1445 C1444 1.377 1_455 S
C1445 C1451 1.390 . S
C1446 H1437 0.930 . S
C1446 C1444 1.384 . S
C1446 C1447 1.372 1_655 S
C1447 C1446 1.372 1_455 S
C1447 C1448 1.400 . S
C1447 C1452 1.490 . S
C1448 H1438 0.930 . S
C1448 C1447 1.400 . S
C1448 C1451 1.386 . S
H1449 C1465 0.930 . S
H1450 C1466 0.931 . S
C1451 H1439 0.929 . S
C1451 C1445 1.390 . S
C1451 C1448 1.386 . S
C1452 C1447 1.490 . S
C1452 C1454 1.395 . S
C1452 C1455 1.403 1_556 S
H1453 C1459 0.930 . S
C1454 H1440 0.930 . S
C1454 C1452 1.395 . S
C1454 C1457 1.403 . S
C1455 C1452 1.403 1_554 S
C1455 C1456 1.524 1_455 S
C1455 C1459 1.400 . S
C1456 H1441 0.960 . S
C1456 H1442 0.960 . S
C1456 H1443 0.960 1_655 S
C1456 C1455 1.524 1_655 S
C1457 C1454 1.403 . S
C1457 C1458 1.392 1_556 S
C1457 C1461 1.495 . S
C1458 C1457 1.392 1_554 S
C1458 C1459 1.385 . S
C1458 C1460 1.478 . S
C1459 H1453 0.930 . S
C1459 C1455 1.400 . S
C1459 C1458 1.385 . S
C1460 C1458 1.478 . S
C1460 C1462 1.381 1_455 S
C1460 C1466 1.383 . S
C1461 C1457 1.495 . S
C1461 H1467 0.959 . S
C1461 H1468 0.961 . S
C1461 H1469 0.960 1_455 S
C1462 C1460 1.381 1_655 S
C1462 C1463 1.394 . S
C1462 H1470 0.930 . S
C1463 C1462 1.394 . S
C1463 C1464 1.383 1_655 S
C1463 H1471 0.929 . S
C1464 C1463 1.383 1_455 S
C1464 C1465 1.377 . S
C1465 H1449 0.930 . S
C1465 C1464 1.377 . S
C1465 C1466 1.379 . S
C1466 H1450 0.931 . S
C1466 C1460 1.383 . S
C1466 C1465 1.379 . S
H1467 C1461 0.959 . S
H1468 C1461 0.961 . S
H1469 C1461 0.960 1_655 S
H1470 C1462 0.930 . S
H1471 C1463 0.929 . S
H1472 C1480 0.929 . S
H1473 C1482 0.930 . S
H1474 C1484 0.930 . S
H1475 C1487 0.929 . S
H1476 C1490 0.930 . S
H1477 C1492 0.960 . S
H1478 C1492 0.960 . S
H1479 C1492 0.960 . S
C1480 H1472 0.929 . S
C1480 C1481 1.377 . S
C1480 C1482 1.384 . S
C1481 C1480 1.377 . S
C1481 C1487 1.390 . S
C1482 H1473 0.930 . S
C1482 C1480 1.384 . S
C1482 C1483 1.372 . S
C1483 C1482 1.372 . S
C1483 C1484 1.400 . S
C1483 C1488 1.490 . S
C1484 H1474 0.930 . S
C1484 C1483 1.400 . S
C1484 C1487 1.386 . S
H1485 C1501 0.930 . S
H1486 C1502 0.931 . S
C1487 H1475 0.929 . S
C1487 C1481 1.390 . S
C1487 C1484 1.386 . S
C1488 C1483 1.490 . S
C1488 C1490 1.395 . S
C1488 C1491 1.403 . S
H1489 C1495 0.930 . S
C1490 H1476 0.930 . S
C1490 C1488 1.395 . S
C1490 C1493 1.403 . S
C1491 C1488 1.403 . S
C1491 C1492 1.524 . S
C1491 C1495 1.400 . S
C1492 H1477 0.960 . S
C1492 H1478 0.960 . S
C1492 H1479 0.960 . S
C1492 C1491 1.524 . S
C1493 C1490 1.403 . S
C1493 C1494 1.392 . S
C1493 C1497 1.495 . S
C1494 C1493 1.392 . S
C1494 C1495 1.385 . S
C1494 C1496 1.478 . S
C1495 H1489 0.930 . S
C1495 C1491 1.400 . S
C1495 C1494 1.385 . S
C1496 C1494 1.478 . S
C1496 C1498 1.381 . S
C1496 C1502 1.383 . S
C1497 C1493 1.495 . S
C1497 H1503 0.959 . S
C1497 H1504 0.961 . S
C1497 H1505 0.960 . S
C1498 C1496 1.381 . S
C1498 C1499 1.394 . S
C1498 H1506 0.930 . S
C1499 C1498 1.394 . S
C1499 C1500 1.383 . S
C1499 H1507 0.929 . S
C1500 C1499 1.383 . S
C1500 C1501 1.377 . S
C1501 H1485 0.930 . S
C1501 C1500 1.377 . S
C1501 C1502 1.379 . S
C1502 H1486 0.931 . S
C1502 C1496 1.383 . S
C1502 C1501 1.379 . S
H1503 C1497 0.959 . S
H1504 C1497 0.961 . S
H1505 C1497 0.960 . S
H1506 C1498 0.930 . S
H1507 C1499 0.929 . S
H1508 C1516 0.929 . S
H1509 C1518 0.930 . S
H1510 C1520 0.930 . S
H1511 C1523 0.929 . S
H1512 C1526 0.930 . S
H1513 C1528 0.960 . S
H1514 C1528 0.960 . S
H1515 C1528 0.960 . S
C1516 H1508 0.929 . S
C1516 C1517 1.377 . S
C1516 C1518 1.384 . S
C1517 C1516 1.377 . S
C1517 C1523 1.390 . S
C1518 H1509 0.930 . S
C1518 C1516 1.384 . S
C1518 C1519 1.372 . S
C1519 C1518 1.372 . S
C1519 C1520 1.400 . S
C1519 C1524 1.490 . S
C1520 H1510 0.930 . S
C1520 C1519 1.400 . S
C1520 C1523 1.386 . S
H1521 C1537 0.930 . S
H1522 C1538 0.931 . S
C1523 H1511 0.929 . S
C1523 C1517 1.390 . S
C1523 C1520 1.386 . S
C1524 C1519 1.490 . S
C1524 C1526 1.395 . S
C1524 C1527 1.403 . S
H1525 C1531 0.930 . S
C1526 H1512 0.930 . S
C1526 C1524 1.395 . S
C1526 C1529 1.403 . S
C1527 C1524 1.403 . S
C1527 C1528 1.524 . S
C1527 C1531 1.400 . S
C1528 H1513 0.960 . S
C1528 H1514 0.960 . S
C1528 H1515 0.960 . S
C1528 C1527 1.524 . S
C1529 C1526 1.403 . S
C1529 C1530 1.392 . S
C1529 C1533 1.495 . S
C1530 C1529 1.392 . S
C1530 C1531 1.385 . S
C1530 C1532 1.478 . S
C1531 H1525 0.930 . S
C1531 C1527 1.400 . S
C1531 C1530 1.385 . S
C1532 C1530 1.478 . S
C1532 C1534 1.381 . S
C1532 C1538 1.383 . S
C1533 C1529 1.495 . S
C1533 H1539 0.959 . S
C1533 H1540 0.961 . S
C1533 H1541 0.960 . S
C1534 C1532 1.381 . S
C1534 C1535 1.394 . S
C1534 H1542 0.930 . S
C1535 C1534 1.394 . S
C1535 C1536 1.383 . S
C1535 H1543 0.929 . S
C1536 C1535 1.383 . S
C1536 C1537 1.377 . S
C1537 H1521 0.930 . S
C1537 C1536 1.377 . S
C1537 C1538 1.379 . S
C1538 H1522 0.931 . S
C1538 C1532 1.383 . S
C1538 C1537 1.379 . S
H1539 C1533 0.959 . S
H1540 C1533 0.961 . S
H1541 C1533 0.960 . S
H1542 C1534 0.930 . S
H1543 C1535 0.929 . S
H1544 C1552 0.929 . S
H1545 C1554 0.930 . S
H1546 C1556 0.930 . S
H1547 C1559 0.929 . S
H1548 C1562 0.930 . S
H1549 C1564 0.960 . S
H1550 C1564 0.960 . S
H1551 C1564 0.960 . S
C1552 H1544 0.929 . S
C1552 C1553 1.377 . S
C1552 C1554 1.384 . S
C1553 C1552 1.377 . S
C1553 C1559 1.390 . S
C1554 H1545 0.930 . S
C1554 C1552 1.384 . S
C1554 C1555 1.372 . S
C1555 C1554 1.372 . S
C1555 C1556 1.400 . S
C1555 C1560 1.490 . S
C1556 H1546 0.930 . S
C1556 C1555 1.400 . S
C1556 C1559 1.386 . S
H1557 C1573 0.930 . S
H1558 C1574 0.931 . S
C1559 H1547 0.929 . S
C1559 C1553 1.390 . S
C1559 C1556 1.386 . S
C1560 C1555 1.490 . S
C1560 C1562 1.395 . S
C1560 C1563 1.403 . S
H1561 C1567 0.930 . S
C1562 H1548 0.930 . S
C1562 C1560 1.395 . S
C1562 C1565 1.403 . S
C1563 C1560 1.403 . S
C1563 C1564 1.524 . S
C1563 C1567 1.400 . S
C1564 H1549 0.960 . S
C1564 H1550 0.960 . S
C1564 H1551 0.960 . S
C1564 C1563 1.524 . S
C1565 C1562 1.403 . S
C1565 C1566 1.392 . S
C1565 C1569 1.495 . S
C1566 C1565 1.392 . S
C1566 C1567 1.385 . S
C1566 C1568 1.478 . S
C1567 H1561 0.930 . S
C1567 C1563 1.400 . S
C1567 C1566 1.385 . S
C1568 C1566 1.478 . S
C1568 C1570 1.381 . S
C1568 C1574 1.383 . S
C1569 C1565 1.495 . S
C1569 H1575 0.959 . S
C1569 H1576 0.961 . S
C1569 H1577 0.960 . S
C1570 C1568 1.381 . S
C1570 C1571 1.394 . S
C1570 H1578 0.930 . S
C1571 C1570 1.394 . S
C1571 C1572 1.383 . S
C1571 H1579 0.929 . S
C1572 C1571 1.383 . S
C1572 C1573 1.377 . S
C1573 H1557 0.930 . S
C1573 C1572 1.377 . S
C1573 C1574 1.379 . S
C1574 H1558 0.931 . S
C1574 C1568 1.383 . S
C1574 C1573 1.379 . S
H1575 C1569 0.959 . S
H1576 C1569 0.961 . S
H1577 C1569 0.960 . S
H1578 C1570 0.930 . S
H1579 C1571 0.929 . S
H1580 C1588 0.929 . S
H1581 C1590 0.930 . S
H1582 C1592 0.930 . S
H1583 C1595 0.929 . S
H1584 C1598 0.930 . S
H1585 C1600 0.960 . S
H1586 C1600 0.960 . S
H1587 C1600 0.960 . S
C1588 H1580 0.929 . S
C1588 C1589 1.377 . S
C1588 C1590 1.384 . S
C1589 C1588 1.377 . S
C1589 C1595 1.390 . S
C1590 H1581 0.930 . S
C1590 C1588 1.384 . S
C1590 C1591 1.372 . S
C1591 C1590 1.372 . S
C1591 C1592 1.400 . S
C1591 C1596 1.490 . S
C1592 H1582 0.930 . S
C1592 C1591 1.400 . S
C1592 C1595 1.386 . S
H1593 C1609 0.930 . S
H1594 C1610 0.931 . S
C1595 H1583 0.929 . S
C1595 C1589 1.390 . S
C1595 C1592 1.386 . S
C1596 C1591 1.490 . S
C1596 C1598 1.395 . S
C1596 C1599 1.403 . S
H1597 C1603 0.930 . S
C1598 H1584 0.930 . S
C1598 C1596 1.395 . S
C1598 C1601 1.403 . S
C1599 C1596 1.403 . S
C1599 C1600 1.524 . S
C1599 C1603 1.400 . S
C1600 H1585 0.960 . S
C1600 H1586 0.960 . S
C1600 H1587 0.960 . S
C1600 C1599 1.524 . S
C1601 C1598 1.403 . S
C1601 C1602 1.392 . S
C1601 C1605 1.495 . S
C1602 C1601 1.392 . S
C1602 C1603 1.385 . S
C1602 C1604 1.478 . S
C1603 H1597 0.930 . S
C1603 C1599 1.400 . S
C1603 C1602 1.385 . S
C1604 C1602 1.478 . S
C1604 C1606 1.381 . S
C1604 C1610 1.383 . S
C1605 C1601 1.495 . S
C1605 H1611 0.959 . S
C1605 H1612 0.961 . S
C1605 H1613 0.960 . S
C1606 C1604 1.381 . S
C1606 C1607 1.394 . S
C1606 H1614 0.930 . S
C1607 C1606 1.394 . S
C1607 C1608 1.383 . S
C1607 H1615 0.929 . S
C1608 C1607 1.383 . S
C1608 C1609 1.377 . S
C1609 H1593 0.930 . S
C1609 C1608 1.377 . S
C1609 C1610 1.379 . S
C1610 H1594 0.931 . S
C1610 C1604 1.383 . S
C1610 C1609 1.379 . S
H1611 C1605 0.959 . S
H1612 C1605 0.961 . S
H1613 C1605 0.960 . S
H1614 C1606 0.930 . S
H1615 C1607 0.929 . S
H1616 C1624 0.929 . S
H1617 C1626 0.930 . S
H1618 C1628 0.930 . S
H1619 C1631 0.929 . S
H1620 C1634 0.930 . S
H1621 C1636 0.960 . S
H1622 C1636 0.960 . S
H1623 C1636 0.960 . S
C1624 H1616 0.929 . S
C1624 C1625 1.377 . S
C1624 C1626 1.384 . S
C1625 C1624 1.377 . S
C1625 C1631 1.390 . S
C1626 H1617 0.930 . S
C1626 C1624 1.384 . S
C1626 C1627 1.372 . S
C1627 C1626 1.372 . S
C1627 C1628 1.400 . S
C1627 C1632 1.490 . S
C1628 H1618 0.930 . S
C1628 C1627 1.400 . S
C1628 C1631 1.386 . S
H1629 C1645 0.930 . S
H1630 C1646 0.931 . S
C1631 H1619 0.929 . S
C1631 C1625 1.390 . S
C1631 C1628 1.386 . S
C1632 C1627 1.490 . S
C1632 C1634 1.395 . S
C1632 C1635 1.403 . S
H1633 C1639 0.930 . S
C1634 H1620 0.930 . S
C1634 C1632 1.395 . S
C1634 C1637 1.403 . S
C1635 C1632 1.403 . S
C1635 C1636 1.524 . S
C1635 C1639 1.400 . S
C1636 H1621 0.960 . S
C1636 H1622 0.960 . S
C1636 H1623 0.960 . S
C1636 C1635 1.524 . S
C1637 C1634 1.403 . S
C1637 C1638 1.392 . S
C1637 C1641 1.495 . S
C1638 C1637 1.392 . S
C1638 C1639 1.385 . S
C1638 C1640 1.478 . S
C1639 H1633 0.930 . S
C1639 C1635 1.400 . S
C1639 C1638 1.385 . S
C1640 C1638 1.478 . S
C1640 C1642 1.381 . S
C1640 C1646 1.383 1_655 S
C1641 C1637 1.495 . S
C1641 H1647 0.959 . S
C1641 H1648 0.961 . S
C1641 H1649 0.960 . S
C1642 C1640 1.381 . S
C1642 C1643 1.394 . S
C1642 H1650 0.930 . S
C1643 C1642 1.394 . S
C1643 C1644 1.383 1_655 S
C1643 H1651 0.929 . S
C1644 C1643 1.383 1_455 S
C1644 C1645 1.377 . S
C1645 H1629 0.930 . S
C1645 C1644 1.377 . S
C1645 C1646 1.379 . S
C1646 H1630 0.931 . S
C1646 C1640 1.383 1_455 S
C1646 C1645 1.379 . S
H1647 C1641 0.959 . S
H1648 C1641 0.961 . S
H1649 C1641 0.960 . S
H1650 C1642 0.930 . S
H1651 C1643 0.929 . S
H1652 C1660 0.929 . S
H1653 C1662 0.930 . S
H1654 C1664 0.930 . S
H1655 C1667 0.929 . S
H1656 C1670 0.930 . S
H1657 C1672 0.960 1_455 S
H1658 C1672 0.960 . S
H1659 C1672 0.960 . S
C1660 H1652 0.929 . S
C1660 C1661 1.377 . S
C1660 C1662 1.384 . S
C1661 C1660 1.377 . S
C1661 C1667 1.390 . S
C1662 H1653 0.930 . S
C1662 C1660 1.384 . S
C1662 C1663 1.372 . S
C1663 C1662 1.372 . S
C1663 C1664 1.400 . S
C1663 C1668 1.490 . S
C1664 H1654 0.930 . S
C1664 C1663 1.400 . S
C1664 C1667 1.386 . S
H1665 C1681 0.930 . S
H1666 C1682 0.931 . S
C1667 H1655 0.929 . S
C1667 C1661 1.390 . S
C1667 C1664 1.386 . S
C1668 C1663 1.490 . S
C1668 C1670 1.395 . S
C1668 C1671 1.403 . S
H1669 C1675 0.930 1_455 S
C1670 H1656 0.930 . S
C1670 C1668 1.395 . S
C1670 C1673 1.403 . S
C1671 C1668 1.403 . S
C1671 C1672 1.524 . S
C1671 C1675 1.400 . S
C1672 H1657 0.960 1_655 S
C1672 H1658 0.960 . S
C1672 H1659 0.960 . S
C1672 C1671 1.524 . S
C1673 C1670 1.403 . S
C1673 C1674 1.392 . S
C1673 C1677 1.495 . S
C1674 C1673 1.392 . S
C1674 C1675 1.385 . S
C1674 C1676 1.478 . S
C1675 H1669 0.930 1_655 S
C1675 C1671 1.400 . S
C1675 C1674 1.385 . S
C1676 C1674 1.478 . S
C1676 C1678 1.381 . S
C1676 C1682 1.383 . S
C1677 C1673 1.495 . S
C1677 H1683 0.959 . S
C1677 H1684 0.961 . S
C1677 H1685 0.960 . S
C1678 C1676 1.381 . S
C1678 C1679 1.394 . S
C1678 H1686 0.930 . S
C1679 C1678 1.394 . S
C1679 C1680 1.383 1_655 S
C1679 H1687 0.929 . S
C1680 C1679 1.383 1_455 S
C1680 C1681 1.377 . S
C1681 H1665 0.930 . S
C1681 C1680 1.377 . S
C1681 C1682 1.379 1_455 S
C1682 H1666 0.931 . S
C1682 C1676 1.383 . S
C1682 C1681 1.379 1_655 S
H1683 C1677 0.959 . S
H1684 C1677 0.961 . S
H1685 C1677 0.960 . S
H1686 C1678 0.930 . S
H1687 C1679 0.929 . S
H1688 C1696 0.943 . S
H1689 C1698 0.930 . S
H1690 C1700 0.930 . S
H1691 C1703 0.929 . S
H1692 C1706 0.930 . S
H1693 C1708 0.960 . S
H1694 C1708 0.960 . S
H1695 C1708 0.960 . S
C1696 H1688 0.943 . S
C1696 C1697 1.369 1_554 S
C1696 C1698 1.384 . S
C1697 C1696 1.369 1_556 S
C1697 C1703 1.380 1_556 S
C1698 H1689 0.930 . S
C1698 C1696 1.384 . S
C1698 C1699 1.372 . S
C1699 C1698 1.372 . S
C1699 C1700 1.400 . S
C1699 C1704 1.490 . S
C1700 H1690 0.930 . S
C1700 C1699 1.400 . S
C1700 C1703 1.386 . S
H1701 C1717 0.930 . S
H1702 C1718 0.931 . S
C1703 H1691 0.929 . S
C1703 C1697 1.380 1_554 S
C1703 C1700 1.386 . S
C1704 C1699 1.490 . S
C1704 C1706 1.395 . S
C1704 C1707 1.403 . S
H1705 C1711 0.930 . S
C1706 H1692 0.930 . S
C1706 C1704 1.395 . S
C1706 C1709 1.403 . S
C1707 C1704 1.403 . S
C1707 C1708 1.524 . S
C1707 C1711 1.400 . S
C1708 H1693 0.960 . S
C1708 H1694 0.960 . S
C1708 H1695 0.960 . S
C1708 C1707 1.524 . S
C1709 C1706 1.403 . S
C1709 C1710 1.392 . S
C1709 C1713 1.495 . S
C1710 C1709 1.392 . S
C1710 C1711 1.385 . S
C1710 C1712 1.478 . S
C1711 H1705 0.930 . S
C1711 C1707 1.400 . S
C1711 C1710 1.385 . S
C1712 C1710 1.478 . S
C1712 C1714 1.381 . S
C1712 C1718 1.383 . S
C1713 C1709 1.495 . S
C1713 H1719 0.959 . S
C1713 H1720 0.961 . S
C1713 H1721 0.960 . S
C1714 C1712 1.381 . S
C1714 C1715 1.394 . S
C1714 H1722 0.930 . S
C1715 C1714 1.394 . S
C1715 C1716 1.383 . S
C1715 H1723 0.929 . S
C1716 C1715 1.383 . S
C1716 C1717 1.377 . S
C1717 H1701 0.930 . S
C1717 C1716 1.377 . S
C1717 C1718 1.379 . S
C1718 H1702 0.931 . S
C1718 C1712 1.383 . S
C1718 C1717 1.379 . S
H1719 C1713 0.959 . S
H1720 C1713 0.961 . S
H1721 C1713 0.960 . S
H1722 C1714 0.930 . S
H1723 C1715 0.929 . S
H1724 C1732 0.929 . S
H1725 C1734 0.930 . S
H1726 C1736 0.930 . S
H1727 C1739 0.929 . S
H1728 C1742 0.930 . S
H1729 C1744 0.960 . S
H1730 C1744 0.960 . S
H1731 C1744 0.960 . S
C1732 H1724 0.929 . S
C1732 C1733 1.377 . S
C1732 C1734 1.384 . S
C1733 C1732 1.377 . S
C1733 C1739 1.390 . S
C1734 H1725 0.930 . S
C1734 C1732 1.384 . S
C1734 C1735 1.372 . S
C1735 C1734 1.372 . S
C1735 C1736 1.400 . S
C1735 C1740 1.490 . S
C1736 H1726 0.930 . S
C1736 C1735 1.400 . S
C1736 C1739 1.386 . S
H1737 C1753 0.930 . S
H1738 C1754 0.931 . S
C1739 H1727 0.929 . S
C1739 C1733 1.390 . S
C1739 C1736 1.386 . S
C1740 C1735 1.490 . S
C1740 C1742 1.395 . S
C1740 C1743 1.403 . S
H1741 C1747 0.930 . S
C1742 H1728 0.930 . S
C1742 C1740 1.395 . S
C1742 C1745 1.403 . S
C1743 C1740 1.403 . S
C1743 C1744 1.524 . S
C1743 C1747 1.400 . S
C1744 H1729 0.960 . S
C1744 H1730 0.960 . S
C1744 H1731 0.960 . S
C1744 C1743 1.524 . S
C1745 C1742 1.403 . S
C1745 C1746 1.392 . S
C1745 C1749 1.495 . S
C1746 C1745 1.392 . S
C1746 C1747 1.385 . S
C1746 C1748 1.478 . S
C1747 H1741 0.930 . S
C1747 C1743 1.400 . S
C1747 C1746 1.385 . S
C1748 C1746 1.478 . S
C1748 C1750 1.381 . S
C1748 C1754 1.383 . S
C1749 C1745 1.495 . S
C1749 H1755 0.959 . S
C1749 H1756 0.961 . S
C1749 H1757 0.960 . S
C1750 C1748 1.381 . S
C1750 C1751 1.394 . S
C1750 H1758 0.930 . S
C1751 C1750 1.394 . S
C1751 C1752 1.397 . S
C1751 H1759 0.929 . S
C1752 C1751 1.397 . S
C1752 C1753 1.391 . S
C1753 H1737 0.930 . S
C1753 C1752 1.391 . S
C1753 C1754 1.379 . S
C1754 H1738 0.931 . S
C1754 C1748 1.383 . S
C1754 C1753 1.379 . S
H1755 C1749 0.959 . S
H1756 C1749 0.961 . S
H1757 C1749 0.960 . S
H1758 C1750 0.930 . S
H1759 C1751 0.929 . S
H1760 C1768 0.929 . S
H1761 C1770 0.930 . S
H1762 C1772 0.930 . S
H1763 C1775 0.929 . S
H1764 C1778 0.930 . S
H1765 C1780 0.960 . S
H1766 C1780 0.960 . S
H1767 C1780 0.960 . S
C1768 H1760 0.929 . S
C1768 C1769 1.377 . S
C1768 C1770 1.384 . S
C1769 C1768 1.377 . S
C1769 C1775 1.390 . S
C1770 H1761 0.930 . S
C1770 C1768 1.384 . S
C1770 C1771 1.372 . S
C1771 C1770 1.372 . S
C1771 C1772 1.400 . S
C1771 C1776 1.490 . S
C1772 H1762 0.930 . S
C1772 C1771 1.400 . S
C1772 C1775 1.386 . S
H1773 C1789 0.930 . S
H1774 C1790 0.931 . S
C1775 H1763 0.929 . S
C1775 C1769 1.390 . S
C1775 C1772 1.386 . S
C1776 C1771 1.490 . S
C1776 C1778 1.395 . S
C1776 C1779 1.403 . S
H1777 C1783 0.930 . S
C1778 H1764 0.930 . S
C1778 C1776 1.395 . S
C1778 C1781 1.403 . S
C1779 C1776 1.403 . S
C1779 C1780 1.524 . S
C1779 C1783 1.400 . S
C1780 H1765 0.960 . S
C1780 H1766 0.960 . S
C1780 H1767 0.960 . S
C1780 C1779 1.524 . S
C1781 C1778 1.403 . S
C1781 C1782 1.392 . S
C1781 C1785 1.495 . S
C1782 C1781 1.392 . S
C1782 C1783 1.385 . S
C1782 C1784 1.478 . S
C1783 H1777 0.930 . S
C1783 C1779 1.400 . S
C1783 C1782 1.385 . S
C1784 C1782 1.478 . S
C1784 C1786 1.381 . S
C1784 C1790 1.383 . S
C1785 C1781 1.495 . S
C1785 H1791 0.959 . S
C1785 H1792 0.961 . S
C1785 H1793 0.960 . S
C1786 C1784 1.381 . S
C1786 C1787 1.394 1_556 S
C1786 H1794 0.930 . S
C1787 C1786 1.394 1_554 S
C1787 C1788 1.383 . S
C1787 H1795 0.929 . S
C1788 C1787 1.383 . S
C1788 C1789 1.377 1_554 S
C1789 H1773 0.930 . S
C1789 C1788 1.377 1_556 S
C1789 C1790 1.379 . S
C1790 H1774 0.931 . S
C1790 C1784 1.383 . S
C1790 C1789 1.379 . S
H1791 C1785 0.959 . S
H1792 C1785 0.961 . S
H1793 C1785 0.960 . S
H1794 C1786 0.930 . S
H1795 C1787 0.929 . S
H1796 C1804 0.929 . S
H1797 C1806 0.930 . S
H1798 C1808 0.930 . S
H1799 C1811 0.929 . S
H1800 C1814 0.930 . S
H1801 C1816 0.960 . S
H1802 C1816 0.960 . S
H1803 C1816 0.960 . S
C1804 H1796 0.929 . S
C1804 C1805 1.377 . S
C1804 C1806 1.384 . S
C1805 C1804 1.377 . S
C1805 C1811 1.390 . S
C1806 H1797 0.930 . S
C1806 C1804 1.384 . S
C1806 C1807 1.372 . S
C1807 C1806 1.372 . S
C1807 C1808 1.400 . S
C1807 C1812 1.490 . S
C1808 H1798 0.930 . S
C1808 C1807 1.400 . S
C1808 C1811 1.386 . S
H1809 C1825 0.930 . S
H1810 C1826 0.931 . S
C1811 H1799 0.929 . S
C1811 C1805 1.390 . S
C1811 C1808 1.386 . S
C1812 C1807 1.490 . S
C1812 C1814 1.395 . S
C1812 C1815 1.403 . S
H1813 C1819 0.930 . S
C1814 H1800 0.930 . S
C1814 C1812 1.395 . S
C1814 C1817 1.403 . S
C1815 C1812 1.403 . S
C1815 C1816 1.524 . S
C1815 C1819 1.400 . S
C1816 H1801 0.960 . S
C1816 H1802 0.960 . S
C1816 H1803 0.960 . S
C1816 C1815 1.524 . S
C1817 C1814 1.403 . S
C1817 C1818 1.392 . S
C1817 C1821 1.495 . S
C1818 C1817 1.392 . S
C1818 C1819 1.385 . S
C1818 C1820 1.478 . S
C1819 H1813 0.930 . S
C1819 C1815 1.400 . S
C1819 C1818 1.385 . S
C1820 C1818 1.478 . S
C1820 C1822 1.381 . S
C1820 C1826 1.383 . S
C1821 C1817 1.495 . S
C1821 H1827 0.959 . S
C1821 H1828 0.961 . S
C1821 H1829 0.960 . S
C1822 C1820 1.381 . S
C1822 C1823 1.394 . S
C1822 H1830 0.930 . S
C1823 C1822 1.394 . S
C1823 C1824 1.383 1_554 S
C1823 H1831 0.930 . S
C1824 C1823 1.383 1_556 S
C1824 C1825 1.377 . S
C1825 H1809 0.930 . S
C1825 C1824 1.377 . S
C1825 C1826 1.379 1_556 S
C1826 H1810 0.931 . S
C1826 C1820 1.383 . S
C1826 C1825 1.379 1_554 S
H1827 C1821 0.959 . S
H1828 C1821 0.961 . S
H1829 C1821 0.960 . S
H1830 C1822 0.930 . S
H1831 C1823 0.930 . S
H1832 C1840 0.929 . S
H1833 C1842 0.930 . S
H1834 C1844 0.930 . S
H1835 C1847 0.929 . S
H1836 C1850 0.930 . S
H1837 C1852 0.960 . S
H1838 C1852 0.960 . S
H1839 C1852 0.960 . S
C1840 H1832 0.929 . S
C1840 C1841 1.377 . S
C1840 C1842 1.384 . S
C1841 C1840 1.377 . S
C1841 C1847 1.390 . S
C1842 H1833 0.930 . S
C1842 C1840 1.384 . S
C1842 C1843 1.372 . S
C1843 C1842 1.372 . S
C1843 C1844 1.400 . S
C1843 C1848 1.490 . S
C1844 H1834 0.930 . S
C1844 C1843 1.400 . S
C1844 C1847 1.386 . S
H1845 C1861 0.930 . S
H1846 C1862 0.931 . S
C1847 H1835 0.929 . S
C1847 C1841 1.390 . S
C1847 C1844 1.386 . S
C1848 C1843 1.490 . S
C1848 C1850 1.395 . S
C1848 C1851 1.403 . S
H1849 C1855 0.930 . S
C1850 H1836 0.930 . S
C1850 C1848 1.395 . S
C1850 C1853 1.403 . S
C1851 C1848 1.403 . S
C1851 C1852 1.524 . S
C1851 C1855 1.400 . S
C1852 H1837 0.960 . S
C1852 H1838 0.960 . S
C1852 H1839 0.960 . S
C1852 C1851 1.524 . S
C1853 C1850 1.403 . S
C1853 C1854 1.392 . S
C1853 C1857 1.495 . S
C1854 C1853 1.392 . S
C1854 C1855 1.385 . S
C1854 C1856 1.478 . S
C1855 H1849 0.930 . S
C1855 C1851 1.400 . S
C1855 C1854 1.385 . S
C1856 C1854 1.478 . S
C1856 C1858 1.381 . S
C1856 C1862 1.383 . S
C1857 C1853 1.495 . S
C1857 H1863 0.959 . S
C1857 H1864 0.961 . S
C1857 H1865 0.960 . S
C1858 C1856 1.381 . S
C1858 C1859 1.394 . S
C1858 H1866 0.930 . S
C1859 C1858 1.394 . S
C1859 C1860 1.383 . S
C1859 H1867 0.929 . S
C1860 C1859 1.383 . S
C1860 C1861 1.377 . S
C1861 H1845 0.930 . S
C1861 C1860 1.377 . S
C1861 C1862 1.379 . S
C1862 H1846 0.931 . S
C1862 C1856 1.383 . S
C1862 C1861 1.379 . S
H1863 C1857 0.959 . S
H1864 C1857 0.961 . S
H1865 C1857 0.960 . S
H1866 C1858 0.930 . S
H1867 C1859 0.929 . S
H1868 C1876 0.929 1_455 S
H1869 C1878 0.930 . S
H1870 C1880 0.930 . S
H1871 C1883 0.929 . S
H1872 C1886 0.930 . S
H1873 C1888 0.960 . S
H1874 C1888 0.960 . S
H1875 C1888 0.960 . S
C1876 H1868 0.929 1_655 S
C1876 C1877 1.377 . S
C1876 C1878 1.384 . S
C1877 C1876 1.377 . S
C1877 C1883 1.390 . S
C1878 H1869 0.930 . S
C1878 C1876 1.384 . S
C1878 C1879 1.372 . S
C1879 C1878 1.372 . S
C1879 C1880 1.400 . S
C1879 C1884 1.490 . S
C1880 H1870 0.930 . S
C1880 C1879 1.400 . S
C1880 C1883 1.386 . S
H1881 C1897 0.930 . S
H1882 C1898 0.931 . S
C1883 H1871 0.929 . S
C1883 C1877 1.390 . S
C1883 C1880 1.386 . S
C1884 C1879 1.490 . S
C1884 C1886 1.395 . S
C1884 C1887 1.403 . S
H1885 C1891 0.930 . S
C1886 H1872 0.930 . S
C1886 C1884 1.395 . S
C1886 C1889 1.403 . S
C1887 C1884 1.403 . S
C1887 C1888 1.524 . S
C1887 C1891 1.400 . S
C1888 H1873 0.960 . S
C1888 H1874 0.960 . S
C1888 H1875 0.960 . S
C1888 C1887 1.524 . S
C1889 C1886 1.403 . S
C1889 C1890 1.392 . S
C1889 C1893 1.495 . S
C1890 C1889 1.392 . S
C1890 C1891 1.385 . S
C1890 C1892 1.478 . S
C1891 H1885 0.930 . S
C1891 C1887 1.400 . S
C1891 C1890 1.385 . S
C1892 C1890 1.478 . S
C1892 C1894 1.381 . S
C1892 C1898 1.383 . S
C1893 C1889 1.495 . S
C1893 H1899 0.959 . S
C1893 H1900 0.961 . S
C1893 H1901 0.960 . S
C1894 C1892 1.381 . S
C1894 C1895 1.394 . S
C1894 H1902 0.930 . S
C1895 C1894 1.394 . S
C1895 C1896 1.383 . S
C1895 H1903 0.929 . S
C1896 C1895 1.383 . S
C1896 C1897 1.377 . S
C1897 H1881 0.930 . S
C1897 C1896 1.377 . S
C1897 C1898 1.379 . S
C1898 H1882 0.931 . S
C1898 C1892 1.383 . S
C1898 C1897 1.379 . S
H1899 C1893 0.959 . S
H1900 C1893 0.961 . S
H1901 C1893 0.960 . S
H1902 C1894 0.930 . S
H1903 C1895 0.929 . S
H1904 C1912 0.929 . S
H1905 C1914 0.930 . S
H1906 C1916 0.930 . S
H1907 C1919 0.929 . S
H1908 C1922 0.930 . S
H1909 C1924 0.960 . S
H1910 C1924 0.960 . S
H1911 C1924 0.960 . S
C1912 H1904 0.929 . S
C1912 C1913 1.377 . S
C1912 C1914 1.384 . S
C1913 C1912 1.377 . S
C1913 C1919 1.390 . S
C1914 H1905 0.930 . S
C1914 C1912 1.384 . S
C1914 C1915 1.372 . S
C1915 C1914 1.372 . S
C1915 C1916 1.400 . S
C1915 C1920 1.490 . S
C1916 H1906 0.930 . S
C1916 C1915 1.400 . S
C1916 C1919 1.386 . S
H1917 C1933 0.930 . S
H1918 C1934 0.931 . S
C1919 H1907 0.929 . S
C1919 C1913 1.390 . S
C1919 C1916 1.386 . S
C1920 C1915 1.490 . S
C1920 C1922 1.395 . S
C1920 C1923 1.403 . S
H1921 C1927 0.930 . S
C1922 H1908 0.930 . S
C1922 C1920 1.395 . S
C1922 C1925 1.403 . S
C1923 C1920 1.403 . S
C1923 C1924 1.524 . S
C1923 C1927 1.400 . S
C1924 H1909 0.960 . S
C1924 H1910 0.960 . S
C1924 H1911 0.960 . S
C1924 C1923 1.524 . S
C1925 C1922 1.403 . S
C1925 C1926 1.392 . S
C1925 C1929 1.495 . S
C1926 C1925 1.392 . S
C1926 C1927 1.385 . S
C1926 C1928 1.478 . S
C1927 H1921 0.930 . S
C1927 C1923 1.400 . S
C1927 C1926 1.385 . S
C1928 C1926 1.478 . S
C1928 C1930 1.381 . S
C1928 C1934 1.383 . S
C1929 C1925 1.495 . S
C1929 H1935 0.959 . S
C1929 H1936 0.961 . S
C1929 H1937 0.960 . S
C1930 C1928 1.381 . S
C1930 C1931 1.394 1_554 S
C1930 H1938 0.930 . S
C1931 C1930 1.394 1_556 S
C1931 C1932 1.383 . S
C1931 H1939 0.929 . S
C1932 C1931 1.383 . S
C1932 C1933 1.377 . S
C1933 H1917 0.930 . S
C1933 C1932 1.377 . S
C1933 C1934 1.379 1_556 S
C1934 H1918 0.931 . S
C1934 C1928 1.383 . S
C1934 C1933 1.379 1_554 S
H1935 C1929 0.959 . S
H1936 C1929 0.961 . S
H1937 C1929 0.960 . S
H1938 C1930 0.930 . S
H1939 C1931 0.929 . S
H1940 C1948 0.929 . S
H1941 C1950 0.930 . S
H1942 C1952 0.930 . S
H1943 C1955 0.929 . S
H1944 C1958 0.930 . S
H1945 C1960 0.960 . S
H1946 C1960 0.960 . S
H1947 C1960 0.960 . S
C1948 H1940 0.929 . S
C1948 C1949 1.377 . S
C1948 C1950 1.384 1_554 S
C1949 C1948 1.377 . S
C1949 C1955 1.390 . S
C1950 H1941 0.930 . S
C1950 C1948 1.384 1_556 S
C1950 C1951 1.372 . S
C1951 C1950 1.372 . S
C1951 C1952 1.400 . S
C1951 C1956 1.490 . S
C1952 H1942 0.930 . S
C1952 C1951 1.400 . S
C1952 C1955 1.386 1_556 S
H1953 C1969 0.930 . S
H1954 C1970 0.931 . S
C1955 H1943 0.929 . S
C1955 C1949 1.390 . S
C1955 C1952 1.386 1_554 S
C1956 C1951 1.490 . S
C1956 C1958 1.395 . S
C1956 C1959 1.403 . S
H1957 C1963 0.930 . S
C1958 H1944 0.930 . S
C1958 C1956 1.395 . S
C1958 C1961 1.403 . S
C1959 C1956 1.403 . S
C1959 C1960 1.524 . S
C1959 C1963 1.400 . S
C1960 H1945 0.960 . S
C1960 H1946 0.960 . S
C1960 H1947 0.960 . S
C1960 C1959 1.524 . S
C1961 C1958 1.403 . S
C1961 C1962 1.392 . S
C1961 C1965 1.495 . S
C1962 C1961 1.392 . S
C1962 C1963 1.385 . S
C1962 C1964 1.478 . S
C1963 H1957 0.930 . S
C1963 C1959 1.400 . S
C1963 C1962 1.385 . S
C1964 C1962 1.478 . S
C1964 C1966 1.381 . S
C1964 C1970 1.383 . S
C1965 C1961 1.495 . S
C1965 H1971 0.959 . S
C1965 H1972 0.961 . S
C1965 H1973 0.960 . S
C1966 C1964 1.381 . S
C1966 C1967 1.394 . S
C1966 H1974 0.930 . S
C1967 C1966 1.394 . S
C1967 C1968 1.383 . S
C1967 H1975 0.929 . S
C1968 C1967 1.383 . S
C1968 C1969 1.377 . S
C1969 H1953 0.930 . S
C1969 C1968 1.377 . S
C1969 C1970 1.379 . S
C1970 H1954 0.931 . S
C1970 C1964 1.383 . S
C1970 C1969 1.379 . S
H1971 C1965 0.959 . S
H1972 C1965 0.961 . S
H1973 C1965 0.960 . S
H1974 C1966 0.930 . S
H1975 C1967 0.929 . S
H1976 C1984 0.929 . S
H1977 C1986 0.930 . S
H1978 C1988 0.930 . S
H1979 C1991 0.929 . S
H1980 C1994 0.930 . S
H1981 C1996 0.960 . S
H1982 C1996 0.960 . S
H1983 C1996 0.960 . S
C1984 H1976 0.929 . S
C1984 C1985 1.377 . S
C1984 C1986 1.384 . S
C1985 C1984 1.377 . S
C1985 C1991 1.390 . S
C1986 H1977 0.930 . S
C1986 C1984 1.384 . S
C1986 C1987 1.372 . S
C1987 C1986 1.372 . S
C1987 C1988 1.400 . S
C1987 C1992 1.490 . S
C1988 H1978 0.930 . S
C1988 C1987 1.400 . S
C1988 C1991 1.386 . S
H1989 C2005 0.930 . S
H1990 C2006 0.931 . S
C1991 H1979 0.929 . S
C1991 C1985 1.390 . S
C1991 C1988 1.386 . S
C1992 C1987 1.490 . S
C1992 C1994 1.395 . S
C1992 C1995 1.403 . S
H1993 C1999 0.930 . S
C1994 H1980 0.930 . S
C1994 C1992 1.395 . S
C1994 C1997 1.403 . S
C1995 C1992 1.403 . S
C1995 C1996 1.524 . S
C1995 C1999 1.400 . S
C1996 H1981 0.960 . S
C1996 H1982 0.960 . S
C1996 H1983 0.960 . S
C1996 C1995 1.524 . S
C1997 C1994 1.403 . S
C1997 C1998 1.392 . S
C1997 C2001 1.495 . S
C1998 C1997 1.392 . S
C1998 C1999 1.385 . S
C1998 C2000 1.478 . S
C1999 H1993 0.930 . S
C1999 C1995 1.400 . S
C1999 C1998 1.385 . S
C2000 C1998 1.478 . S
C2000 C2002 1.381 . S
C2000 C2006 1.383 . S
C2001 C1997 1.495 . S
C2001 H2007 0.959 . S
C2001 H2008 0.961 . S
C2001 H2009 0.960 . S
C2002 C2000 1.381 . S
C2002 C2003 1.394 . S
C2002 H2010 0.930 . S
C2003 C2002 1.394 . S
C2003 C2004 1.383 . S
C2003 H2011 0.929 . S
C2004 C2003 1.383 . S
C2004 C2005 1.377 . S
C2005 H1989 0.930 . S
C2005 C2004 1.377 . S
C2005 C2006 1.379 . S
C2006 H1990 0.931 . S
C2006 C2000 1.383 . S
C2006 C2005 1.379 . S
H2007 C2001 0.959 . S
H2008 C2001 0.961 . S
H2009 C2001 0.960 . S
H2010 C2002 0.930 . S
H2011 C2003 0.929 . S
H2012 C2020 0.929 . S
H2013 C2022 0.930 . S
H2014 C2024 0.930 . S
H2015 C2027 0.929 . S
H2016 C2030 0.930 . S
H2017 C2032 0.960 . S
H2018 C2032 0.960 . S
H2019 C2032 0.960 . S
C2020 H2012 0.929 . S
C2020 C2021 1.377 . S
C2020 C2022 1.384 . S
C2021 C2020 1.377 . S
C2021 C2027 1.390 . S
C2022 H2013 0.930 . S
C2022 C2020 1.384 . S
C2022 C2023 1.372 . S
C2023 C2022 1.372 . S
C2023 C2024 1.400 . S
C2023 C2028 1.490 . S
C2024 H2014 0.930 . S
C2024 C2023 1.400 . S
C2024 C2027 1.386 . S
H2025 C2041 0.930 . S
H2026 C2042 0.931 . S
C2027 H2015 0.929 . S
C2027 C2021 1.390 . S
C2027 C2024 1.386 . S
C2028 C2023 1.490 . S
C2028 C2030 1.395 . S
C2028 C2031 1.403 . S
H2029 C2035 0.930 . S
C2030 H2016 0.930 . S
C2030 C2028 1.395 . S
C2030 C2033 1.403 . S
C2031 C2028 1.403 . S
C2031 C2032 1.524 . S
C2031 C2035 1.400 . S
C2032 H2017 0.960 . S
C2032 H2018 0.960 . S
C2032 H2019 0.960 . S
C2032 C2031 1.524 . S
C2033 C2030 1.403 . S
C2033 C2034 1.392 . S
C2033 C2037 1.495 . S
C2034 C2033 1.392 . S
C2034 C2035 1.385 . S
C2034 C2036 1.478 . S
C2035 H2029 0.930 . S
C2035 C2031 1.400 . S
C2035 C2034 1.385 . S
C2036 C2034 1.478 . S
C2036 C2038 1.381 . S
C2036 C2042 1.383 . S
C2037 C2033 1.495 . S
C2037 H2043 0.959 . S
C2037 H2044 0.961 . S
C2037 H2045 0.960 . S
C2038 C2036 1.381 . S
C2038 C2039 1.394 . S
C2038 H2046 0.930 . S
C2039 C2038 1.394 . S
C2039 C2040 1.383 . S
C2039 H2047 0.929 . S
C2040 C2039 1.383 . S
C2040 C2041 1.377 . S
C2041 H2025 0.930 . S
C2041 C2040 1.377 . S
C2041 C2042 1.379 . S
C2042 H2026 0.931 . S
C2042 C2036 1.383 . S
C2042 C2041 1.379 . S
H2043 C2037 0.959 . S
H2044 C2037 0.961 . S
H2045 C2037 0.960 . S
H2046 C2038 0.930 . S
H2047 C2039 0.929 . S
C329 C6 0.891 . S
C348 C146 0.874 . S
C365 C26 0.889 . S
C384 C86 0.854 . S
C401 C108 1.265 . S
C420 C46 1.302 . S
C437 C68 1.276 . S
C456 C126 1.309 . S
C473 C236 1.532 . S
C492 C99 1.498 . S
C509 C176 1.524 . S
C528 C19 1.448 . S
C545 C219 1.859 . S
C564 C139 1.847 . S
C581 C59 1.862 . S
C600 C199 1.872 . S
C617 C186 0.892 . S
C636 C246 0.905 . S
C653 C206 0.892 . S
C672 C286 0.886 . S
C689 C266 1.326 1_556 S
C708 C168 1.287 . S
C725 C228 1.279 . S
C744 C306 1.325 1_554 S
C761 C299 1.470 . S
C780 C76 1.510 . S
C797 C259 1.477 . S
C816 C116 1.544 . S
C833 C39 1.860 . S
C852 C319 1.854 . S
C869 C159 1.856 . S
C888 C279 1.872 . S
C905 C269 1.540 . S
C924 C9 1.674 . S
C941 C221 1.590 . S
C960 C29 1.537 . S
C977 C249 1.678 . S
C996 C49 1.540 . S
C1013 C209 1.525 . S
C1032 C61 1.604 . S
C1049 C89 1.671 . S
C1068 C309 1.565 . S
C1085 C189 1.534 . S
C1104 C101 1.600 . S
C1121 C129 1.535 . S
C1140 C289 1.703 . S
C1157 C149 1.527 . S
C1176 C161 1.580 . S
C1193 C1 1.252 . S
C1212 C81 1.240 . S
C1229 C21 1.358 . S
C1248 C109 1.361 . S
C1265 C121 1.443 . S
C1284 C41 1.441 . S
C1301 C69 1.366 . S
C1320 C141 1.348 . S
C1337 C201 1.357 . S
C1356 C169 1.359 . S
C1373 C229 1.367 . S
C1392 C181 1.351 . S
C1409 C241 1.254 . S
C1428 C281 1.245 . S
C1445 C301 1.442 . S
C1464 C261 1.435 . S
C1481 C8 2.124 . S
C1500 C148 2.115 . S
C1517 C28 2.120 . S
C1536 C88 2.120 . S
C1553 C106 2.085 1_556 S
C1572 C48 2.092 . S
C1589 C128 2.086 . S
C1608 C66 2.059 1_554 S
C1625 C239 1.242 . S
C1644 C96 1.211 . S
C1661 C179 1.239 . S
C1680 C16 1.223 . S
C1697 C216 1.202 . S
C1716 C136 1.160 . S
C1733 C56 1.190 . S
C1752 C196 1.181 1_556 S
C1769 C248 2.130 . S
C1788 C188 2.124 . S
C1805 C288 2.124 . S
C1824 C208 2.113 . S
C1841 C268 2.083 . S
C1860 C166 2.078 . S
C1877 C308 2.087 . S
C1896 C226 2.060 . S
C1913 C296 1.246 . S
C1932 C79 1.267 . S
C1949 C119 1.239 . S
C1968 C256 1.232 . S
C1985 C36 1.179 . S
C2004 C316 1.195 . S
C2021 C276 1.188 . S
C2040 C156 1.215 . S
