# Generated by pormake.
# Topology yfm, (5)-cn, num edge types: 1
# Building blocks:
#     Node 0, Type 0, BuildingBlock: BEQFEK_clean_sbu_0, # of connection points: 5
#     Node 1, Type 0, BuildingBlock: BEQFEK_clean_sbu_0, # of connection points: 5
#     Node 2, Type 0, BuildingBlock: BEQFEK_clean_sbu_0, # of connection points: 5
#     Node 3, Type 0, BuildingBlock: BEQFEK_clean_sbu_0, # of connection points: 5
#     Node 4, Type 0, BuildingBlock: BEQFEK_clean_sbu_0, # of connection points: 5
#     Node 5, Type 0, BuildingBlock: BEQFEK_clean_sbu_0, # of connection points: 5
#     Node 6, Type 0, BuildingBlock: BEQFEK_clean_sbu_0, # of connection points: 5
#     Node 7, Type 0, BuildingBlock: BEQFEK_clean_sbu_0, # of connection points: 5
#     Node 8, Type 0, BuildingBlock: BEQFEK_clean_sbu_0, # of connection points: 5
#     Node 9, Type 0, BuildingBlock: BEQFEK_clean_sbu_0, # of connection points: 5
#     Node 10, Type 0, BuildingBlock: BEQFEK_clean_sbu_0, # of connection points: 5
#     Node 11, Type 0, BuildingBlock: BEQFEK_clean_sbu_0, # of connection points: 5
#     Node 12, Type 0, BuildingBlock: BEQFEK_clean_sbu_0, # of connection points: 5
#     Node 13, Type 0, BuildingBlock: BEQFEK_clean_sbu_0, # of connection points: 5
#     Node 14, Type 0, BuildingBlock: BEQFEK_clean_sbu_0, # of connection points: 5
#     Node 15, Type 0, BuildingBlock: BEQFEK_clean_sbu_0, # of connection points: 5
#     Node 16, Type 0, BuildingBlock: BEQFEK_clean_sbu_0, # of connection points: 5
#     Node 17, Type 0, BuildingBlock: BEQFEK_clean_sbu_0, # of connection points: 5
#     Node 18, Type 0, BuildingBlock: BEQFEK_clean_sbu_0, # of connection points: 5
#     Node 19, Type 0, BuildingBlock: BEQFEK_clean_sbu_0, # of connection points: 5
#     Node 20, Type 0, BuildingBlock: BEQFEK_clean_sbu_0, # of connection points: 5
#     Node 21, Type 0, BuildingBlock: BEQFEK_clean_sbu_0, # of connection points: 5
#     Node 22, Type 0, BuildingBlock: BEQFEK_clean_sbu_0, # of connection points: 5
#     Node 23, Type 0, BuildingBlock: BEQFEK_clean_sbu_0, # of connection points: 5
#     Node 24, Type 0, BuildingBlock: BEQFEK_clean_sbu_0, # of connection points: 5
#     Node 25, Type 0, BuildingBlock: BEQFEK_clean_sbu_0, # of connection points: 5
#     Node 26, Type 0, BuildingBlock: BEQFEK_clean_sbu_0, # of connection points: 5
#     Node 27, Type 0, BuildingBlock: BEQFEK_clean_sbu_0, # of connection points: 5
#     Node 28, Type 0, BuildingBlock: BEQFEK_clean_sbu_0, # of connection points: 5
#     Node 29, Type 0, BuildingBlock: BEQFEK_clean_sbu_0, # of connection points: 5
#     Node 30, Type 0, BuildingBlock: BEQFEK_clean_sbu_0, # of connection points: 5
#     Node 31, Type 0, BuildingBlock: BEQFEK_clean_sbu_0, # of connection points: 5
#     Edge 32, Type (0, 0), BuildingBlock: XUDNAN_clean_linker_2, # of connection points: 2
#     Edge 33, Type (0, 0), BuildingBlock: XUDNAN_clean_linker_2, # of connection points: 2
#     Edge 34, Type (0, 0), BuildingBlock: XUDNAN_clean_linker_2, # of connection points: 2
#     Edge 35, Type (0, 0), BuildingBlock: XUDNAN_clean_linker_2, # of connection points: 2
#     Edge 36, Type (0, 0), BuildingBlock: XUDNAN_clean_linker_2, # of connection points: 2
#     Edge 37, Type (0, 0), BuildingBlock: XUDNAN_clean_linker_2, # of connection points: 2
#     Edge 38, Type (0, 0), BuildingBlock: XUDNAN_clean_linker_2, # of connection points: 2
#     Edge 39, Type (0, 0), BuildingBlock: XUDNAN_clean_linker_2, # of connection points: 2
#     Edge 40, Type (0, 0), BuildingBlock: XUDNAN_clean_linker_2, # of connection points: 2
#     Edge 41, Type (0, 0), BuildingBlock: XUDNAN_clean_linker_2, # of connection points: 2
#     Edge 42, Type (0, 0), BuildingBlock: XUDNAN_clean_linker_2, # of connection points: 2
#     Edge 43, Type (0, 0), BuildingBlock: XUDNAN_clean_linker_2, # of connection points: 2
#     Edge 44, Type (0, 0), BuildingBlock: XUDNAN_clean_linker_2, # of connection points: 2
#     Edge 45, Type (0, 0), BuildingBlock: XUDNAN_clean_linker_2, # of connection points: 2
#     Edge 46, Type (0, 0), BuildingBlock: XUDNAN_clean_linker_2, # of connection points: 2
#     Edge 47, Type (0, 0), BuildingBlock: XUDNAN_clean_linker_2, # of connection points: 2
#     Edge 48, Type (0, 0), BuildingBlock: XUDNAN_clean_linker_2, # of connection points: 2
#     Edge 49, Type (0, 0), BuildingBlock: XUDNAN_clean_linker_2, # of connection points: 2
#     Edge 50, Type (0, 0), BuildingBlock: XUDNAN_clean_linker_2, # of connection points: 2
#     Edge 51, Type (0, 0), BuildingBlock: XUDNAN_clean_linker_2, # of connection points: 2
#     Edge 52, Type (0, 0), BuildingBlock: XUDNAN_clean_linker_2, # of connection points: 2
#     Edge 53, Type (0, 0), BuildingBlock: XUDNAN_clean_linker_2, # of connection points: 2
#     Edge 54, Type (0, 0), BuildingBlock: XUDNAN_clean_linker_2, # of connection points: 2
#     Edge 55, Type (0, 0), BuildingBlock: XUDNAN_clean_linker_2, # of connection points: 2
#     Edge 56, Type (0, 0), BuildingBlock: XUDNAN_clean_linker_2, # of connection points: 2
#     Edge 57, Type (0, 0), BuildingBlock: XUDNAN_clean_linker_2, # of connection points: 2
#     Edge 58, Type (0, 0), BuildingBlock: XUDNAN_clean_linker_2, # of connection points: 2
#     Edge 59, Type (0, 0), BuildingBlock: XUDNAN_clean_linker_2, # of connection points: 2
#     Edge 60, Type (0, 0), BuildingBlock: XUDNAN_clean_linker_2, # of connection points: 2
#     Edge 61, Type (0, 0), BuildingBlock: XUDNAN_clean_linker_2, # of connection points: 2
#     Edge 62, Type (0, 0), BuildingBlock: XUDNAN_clean_linker_2, # of connection points: 2
#     Edge 63, Type (0, 0), BuildingBlock: XUDNAN_clean_linker_2, # of connection points: 2
#     Edge 64, Type (0, 0), BuildingBlock: XUDNAN_clean_linker_2, # of connection points: 2
#     Edge 65, Type (0, 0), BuildingBlock: XUDNAN_clean_linker_2, # of connection points: 2
#     Edge 66, Type (0, 0), BuildingBlock: XUDNAN_clean_linker_2, # of connection points: 2
#     Edge 67, Type (0, 0), BuildingBlock: XUDNAN_clean_linker_2, # of connection points: 2
#     Edge 68, Type (0, 0), BuildingBlock: XUDNAN_clean_linker_2, # of connection points: 2
#     Edge 69, Type (0, 0), BuildingBlock: XUDNAN_clean_linker_2, # of connection points: 2
#     Edge 70, Type (0, 0), BuildingBlock: XUDNAN_clean_linker_2, # of connection points: 2
#     Edge 71, Type (0, 0), BuildingBlock: XUDNAN_clean_linker_2, # of connection points: 2
#     Edge 72, Type (0, 0), BuildingBlock: XUDNAN_clean_linker_2, # of connection points: 2
#     Edge 73, Type (0, 0), BuildingBlock: XUDNAN_clean_linker_2, # of connection points: 2
#     Edge 74, Type (0, 0), BuildingBlock: XUDNAN_clean_linker_2, # of connection points: 2
#     Edge 75, Type (0, 0), BuildingBlock: XUDNAN_clean_linker_2, # of connection points: 2
#     Edge 76, Type (0, 0), BuildingBlock: XUDNAN_clean_linker_2, # of connection points: 2
#     Edge 77, Type (0, 0), BuildingBlock: XUDNAN_clean_linker_2, # of connection points: 2
#     Edge 78, Type (0, 0), BuildingBlock: XUDNAN_clean_linker_2, # of connection points: 2
#     Edge 79, Type (0, 0), BuildingBlock: XUDNAN_clean_linker_2, # of connection points: 2
#     Edge 80, Type (0, 0), BuildingBlock: XUDNAN_clean_linker_2, # of connection points: 2
#     Edge 81, Type (0, 0), BuildingBlock: XUDNAN_clean_linker_2, # of connection points: 2
#     Edge 82, Type (0, 0), BuildingBlock: XUDNAN_clean_linker_2, # of connection points: 2
#     Edge 83, Type (0, 0), BuildingBlock: XUDNAN_clean_linker_2, # of connection points: 2
#     Edge 84, Type (0, 0), BuildingBlock: XUDNAN_clean_linker_2, # of connection points: 2
#     Edge 85, Type (0, 0), BuildingBlock: XUDNAN_clean_linker_2, # of connection points: 2
#     Edge 86, Type (0, 0), BuildingBlock: XUDNAN_clean_linker_2, # of connection points: 2
#     Edge 87, Type (0, 0), BuildingBlock: XUDNAN_clean_linker_2, # of connection points: 2
#     Edge 88, Type (0, 0), BuildingBlock: XUDNAN_clean_linker_2, # of connection points: 2
#     Edge 89, Type (0, 0), BuildingBlock: XUDNAN_clean_linker_2, # of connection points: 2
#     Edge 90, Type (0, 0), BuildingBlock: XUDNAN_clean_linker_2, # of connection points: 2
#     Edge 91, Type (0, 0), BuildingBlock: XUDNAN_clean_linker_2, # of connection points: 2
#     Edge 92, Type (0, 0), BuildingBlock: XUDNAN_clean_linker_2, # of connection points: 2
#     Edge 93, Type (0, 0), BuildingBlock: XUDNAN_clean_linker_2, # of connection points: 2
#     Edge 94, Type (0, 0), BuildingBlock: XUDNAN_clean_linker_2, # of connection points: 2
#     Edge 95, Type (0, 0), BuildingBlock: XUDNAN_clean_linker_2, # of connection points: 2
#     Edge 96, Type (0, 0), BuildingBlock: XUDNAN_clean_linker_2, # of connection points: 2
#     Edge 97, Type (0, 0), BuildingBlock: XUDNAN_clean_linker_2, # of connection points: 2
#     Edge 98, Type (0, 0), BuildingBlock: XUDNAN_clean_linker_2, # of connection points: 2
#     Edge 99, Type (0, 0), BuildingBlock: XUDNAN_clean_linker_2, # of connection points: 2
#     Edge 100, Type (0, 0), BuildingBlock: XUDNAN_clean_linker_2, # of connection points: 2
#     Edge 101, Type (0, 0), BuildingBlock: XUDNAN_clean_linker_2, # of connection points: 2
#     Edge 102, Type (0, 0), BuildingBlock: XUDNAN_clean_linker_2, # of connection points: 2
#     Edge 103, Type (0, 0), BuildingBlock: XUDNAN_clean_linker_2, # of connection points: 2
#     Edge 104, Type (0, 0), BuildingBlock: XUDNAN_clean_linker_2, # of connection points: 2
#     Edge 105, Type (0, 0), BuildingBlock: XUDNAN_clean_linker_2, # of connection points: 2
#     Edge 106, Type (0, 0), BuildingBlock: XUDNAN_clean_linker_2, # of connection points: 2
#     Edge 107, Type (0, 0), BuildingBlock: XUDNAN_clean_linker_2, # of connection points: 2
#     Edge 108, Type (0, 0), BuildingBlock: XUDNAN_clean_linker_2, # of connection points: 2
#     Edge 109, Type (0, 0), BuildingBlock: XUDNAN_clean_linker_2, # of connection points: 2
#     Edge 110, Type (0, 0), BuildingBlock: XUDNAN_clean_linker_2, # of connection points: 2
#     Edge 111, Type (0, 0), BuildingBlock: XUDNAN_clean_linker_2, # of connection points: 2
# Relax obj value: 0.527
# Max RMSD: 0.230
# Mean RMSD: 0.230
data_MOF--net-yfm--node1-BEQFEK_clean_sbu_0--edge1-XUDNAN_clean_linker_2
_symmetry_space_group_name_H-M    P1
_symmetry_Int_Tables_number       1
_symmetry_cell_setting            triclinic
loop_
_symmetry_equiv_pos_as_xyz
'x, y, z'
_cell_length_a     64.225305
_cell_length_b     64.235434
_cell_length_c     50.660918
_cell_angle_alpha  89.985568
_cell_angle_beta   90.007849
_cell_angle_gamma 89.999696
loop_
_atom_site_label
_atom_site_type_symbol
_atom_site_fract_x
_atom_site_fract_y
_atom_site_fract_z
_atom_type_partial_charge
Co0 Co 0.2285 0.13395 0.11629 0.0
Co1 Co 0.23319 0.11327 0.06001 0.0
C2 C 0.26901 0.11605 0.09675 0.0
O3 O 0.25751 0.12428 0.11426 0.0
O4 O 0.26196 0.11147 0.07401 0.0
C5 C 0.24126 0.16221 0.15664 0.0
O6 O 0.25571 0.16734 0.13951 0.0
C7 C 0.24898 0.0973 0.00854 0.0
C8 C 0.22088 0.09926 0.98359 0.0
C9 C 0.24191 0.09441 0.98274 0.0
N10 N 0.23304 0.10425 0.02349 0.0
N11 N 0.21623 0.10497 0.00848 0.0
C12 C 0.26982 0.09149 0.01958 0.0
H13 H 0.27962 0.10565 0.0212 0.0
H14 H 0.2778 0.07982 0.00702 0.0
H15 H 0.26791 0.08466 0.03952 0.0
C16 C 0.21639 0.17028 0.08382 0.0
N17 N 0.22125 0.14997 0.08628 0.0
N18 N 0.22403 0.14182 0.06267 0.0
C19 C 0.22189 0.15707 0.04448 0.0
C20 C 0.21687 0.17559 0.05725 0.0
C21 C 0.21398 0.18484 0.10671 0.0
H22 H 0.20768 0.17642 0.12402 0.0
H23 H 0.2294 0.19152 0.11178 0.0
H24 H 0.20338 0.19789 0.10199 0.0
O25 O 0.21081 0.10936 0.11967 0.0
O26 O 0.21545 0.0932 0.08136 0.0
H27 H 0.21241 0.14594 0.00673 0.0
H28 H 0.22733 0.16935 0.0051 0.0
C29 C 0.2258 0.15428 0.01556 0.0
H30 H 0.24006 0.14485 0.01248 0.0
H31 H 0.20159 0.10967 0.01516 0.0
O32 O 0.22734 0.14907 0.15028 0.0
C33 C 0.2077 0.09384 0.10461 0.0
Co34 Co 0.11802 0.97686 0.36523 0.0
Co35 Co 0.13831 0.98121 0.30856 0.0
C36 C 0.13584 0.01727 0.34496 0.0
O37 O 0.12797 0.00584 0.36283 0.0
O38 O 0.14007 0.01009 0.32217 0.0
C39 C 0.09433 0.99094 0.40942 0.0
O40 O 0.09621 0.00902 0.39755 0.0
C41 C 0.15552 0.99673 0.25789 0.0
C42 C 0.14999 0.97019 0.23116 0.0
C43 C 0.15721 0.99053 0.23159 0.0
N44 N 0.14703 0.98107 0.27197 0.0
N45 N 0.14415 0.96512 0.25589 0.0
C46 C 0.16359 0.01638 0.27005 0.0
H47 H 0.16974 0.01314 0.29009 0.0
H48 H 0.15069 0.02778 0.27173 0.0
H49 H 0.17631 0.02324 0.25805 0.0
C50 C 0.08165 0.9654 0.33381 0.0
N51 N 0.10206 0.96973 0.33545 0.0
N52 N 0.10978 0.97222 0.31155 0.0
C53 C 0.09405 0.97018 0.29392 0.0
C54 C 0.07579 0.96567 0.30751 0.0
C55 C 0.06776 0.96241 0.35724 0.0
H56 H 0.07568 0.95251 0.3721 0.0
H57 H 0.06448 0.97777 0.36635 0.0
H58 H 0.0528 0.955 0.35155 0.0
O59 O 0.14247 0.95906 0.36858 0.0
O60 O 0.1585 0.96358 0.33013 0.0
H61 H 0.10103 0.96182 0.25415 0.0
H62 H 0.08024 0.98034 0.25721 0.0
C63 C 0.09561 0.97565 0.26528 0.0
H64 H 0.10688 0.98852 0.26239 0.0
H65 H 0.13782 0.95088 0.26171 0.0
O66 O 0.10181 0.97472 0.39857 0.0
C67 C 0.15793 0.95591 0.35344 0.0
Co68 Co 0.27768 0.86628 0.61385 0.0
Co69 Co 0.27131 0.88765 0.55833 0.0
C70 C 0.23601 0.88263 0.59548 0.0
O71 O 0.24822 0.87414 0.612 0.0
O72 O 0.24254 0.88868 0.57301 0.0
C73 C 0.26536 0.83834 0.65431 0.0
O74 O 0.2508 0.83344 0.63718 0.0
C75 C 0.25493 0.90491 0.50793 0.0
C76 C 0.28163 0.90036 0.48114 0.0
C77 C 0.2611 0.90704 0.48165 0.0
N78 N 0.27083 0.89673 0.52189 0.0
N79 N 0.28684 0.89442 0.50577 0.0
C80 C 0.23506 0.91227 0.52025 0.0
H81 H 0.2382 0.91834 0.54034 0.0
H82 H 0.22407 0.899 0.52188 0.0
H83 H 0.22778 0.92485 0.50842 0.0
C84 C 0.29085 0.83121 0.58111 0.0
N85 N 0.28537 0.85128 0.58369 0.0
N86 N 0.28148 0.85928 0.56024 0.0
C87 C 0.28359 0.84397 0.54204 0.0
C88 C 0.28982 0.82581 0.55473 0.0
C89 C 0.29512 0.81685 0.60374 0.0
H90 H 0.30289 0.8254 0.61999 0.0
H91 H 0.28019 0.8104 0.6111 0.0
H92 H 0.30509 0.80366 0.59737 0.0
O93 O 0.29406 0.89161 0.61763 0.0
O94 O 0.2888 0.90814 0.57969 0.0
H95 H 0.2898 0.85158 0.50182 0.0
H96 H 0.27215 0.83018 0.50596 0.0
C97 C 0.2767 0.84563 0.51391 0.0
H98 H 0.26337 0.8565 0.51219 0.0
H99 H 0.30124 0.8884 0.5115 0.0
O100 O 0.27986 0.85066 0.64734 0.0
C101 C 0.29663 0.90742 0.60291 0.0
Co102 Co 0.38224 0.02366 0.86748 0.0
Co103 Co 0.36298 0.01858 0.8103 0.0
C104 C 0.36291 0.98355 0.84799 0.0
O105 O 0.37068 0.99528 0.8656 0.0
O106 O 0.3598 0.99002 0.82457 0.0
C107 C 0.4052 0.00843 0.91144 0.0
O108 O 0.40329 0.99076 0.89864 0.0
C109 C 0.34658 0.00314 0.759 0.0
C110 C 0.3527 0.02978 0.73261 0.0
C111 C 0.34528 0.0095 0.73271 0.0
N112 N 0.35498 0.01867 0.77341 0.0
N113 N 0.35826 0.03465 0.7575 0.0
C114 C 0.33832 0.98342 0.77078 0.0
H115 H 0.35126 0.97214 0.77317 0.0
H116 H 0.32603 0.97644 0.7582 0.0
H117 H 0.33155 0.98664 0.79049 0.0
C118 C 0.41956 0.03334 0.83692 0.0
N119 N 0.39905 0.0294 0.83803 0.0
N120 N 0.39175 0.02661 0.81399 0.0
C121 C 0.40783 0.02802 0.7968 0.0
C122 C 0.42594 0.0324 0.81082 0.0
C123 C 0.43289 0.03719 0.86067 0.0
H124 H 0.43644 0.02211 0.87036 0.0
H125 H 0.44774 0.04491 0.85519 0.0
H126 H 0.42442 0.04713 0.87497 0.0
O127 O 0.35872 0.04274 0.8695 0.0
O128 O 0.34306 0.0372 0.83097 0.0
H129 H 0.40168 0.03626 0.75675 0.0
H130 H 0.42195 0.01722 0.76059 0.0
C131 C 0.40659 0.02238 0.76819 0.0
H132 H 0.39502 0.0098 0.76516 0.0
H133 H 0.36465 0.0488 0.76357 0.0
O134 O 0.39804 0.02506 0.90124 0.0
C135 C 0.34355 0.04569 0.85383 0.0
Co136 Co 0.22647 0.86667 0.89143 0.0
Co137 Co 0.23014 0.88724 0.94804 0.0
C138 C 0.26671 0.88421 0.91176 0.0
O139 O 0.25564 0.87477 0.89486 0.0
O140 O 0.25899 0.89035 0.93357 0.0
C141 C 0.23466 0.86092 0.83925 0.0
O142 O 0.24181 0.8797 0.84412 0.0
C143 C 0.246 0.90445 0.99857 0.0
C144 C 0.21994 0.89824 0.02582 0.0
C145 C 0.24012 0.9059 0.02501 0.0
N146 N 0.23034 0.89567 0.98477 0.0
N147 N 0.21467 0.89239 1.00116 0.0
C148 C 0.26519 0.91321 0.986 0.0
H149 H 0.26128 0.9198 0.96639 0.0
H150 H 0.27679 0.90059 0.98328 0.0
H151 H 0.27212 0.92576 0.99821 0.0
C152 C 0.21428 0.8305 0.92233 0.0
N153 N 0.21878 0.85087 0.92091 0.0
N154 N 0.22148 0.85844 0.94485 0.0
C155 C 0.21925 0.84263 0.96233 0.0
C156 C 0.21451 0.82449 0.94857 0.0
C157 C 0.21123 0.81685 0.89869 0.0
H158 H 0.22662 0.81339 0.88974 0.0
H159 H 0.20349 0.802 0.90408 0.0
H160 H 0.20167 0.82512 0.88377 0.0
O161 O 0.20963 0.89185 0.88786 0.0
O162 O 0.21121 0.90682 0.92748 0.0
H163 H 0.21061 0.84908 1.00216 0.0
H164 H 0.2294 0.82856 0.99886 0.0
C165 C 0.22457 0.84397 0.99103 0.0
H166 H 0.2373 0.85535 0.99421 0.0
H167 H 0.20047 0.88583 0.99559 0.0
O168 O 0.22547 0.85108 0.85764 0.0
C169 C 0.20486 0.9065 0.90355 0.0
Co170 Co 0.38432 0.97786 0.1397 0.0
Co171 Co 0.36329 0.98299 0.19574 0.0
C172 C 0.3667 0.01879 0.15927 0.0
O173 O 0.37518 0.00695 0.14232 0.0
O174 O 0.36128 0.01192 0.18182 0.0
C175 C 0.41198 0.99256 0.10083 0.0
O176 O 0.41489 0.00698 0.11885 0.0
C177 C 0.34551 0.9981 0.24638 0.0
C178 C 0.35075 0.97123 0.27271 0.0
C179 C 0.34343 0.99154 0.27251 0.0
N180 N 0.35425 0.98264 0.2322 0.0
N181 N 0.35698 0.96652 0.24803 0.0
C182 C 0.33755 0.01786 0.2344 0.0
H183 H 0.33137 0.01471 0.21435 0.0
H184 H 0.35053 0.02919 0.23269 0.0
H185 H 0.32489 0.02476 0.24646 0.0
C186 C 0.42004 0.96545 0.17186 0.0
N187 N 0.39981 0.97047 0.16967 0.0
N188 N 0.39191 0.97374 0.19332 0.0
C189 C 0.40738 0.97158 0.2113 0.0
C190 C 0.42563 0.96614 0.19822 0.0
C191 C 0.43412 0.9612 0.14895 0.0
H192 H 0.4254 0.95324 0.13298 0.0
H193 H 0.44026 0.97615 0.14124 0.0
H194 H 0.44752 0.95139 0.15507 0.0
O195 O 0.35957 0.96048 0.13578 0.0
O196 O 0.34335 0.9652 0.17408 0.0
H197 H 0.40019 0.96391 0.25124 0.0
H198 H 0.421 0.98236 0.2478 0.0
C199 C 0.40566 0.97755 0.23976 0.0
H200 H 0.39437 0.99047 0.2422 0.0
H201 H 0.36345 0.95237 0.24208 0.0
O202 O 0.40046 0.97705 0.10632 0.0
C203 C 0.344 0.95746 0.1508 0.0
Co204 Co 0.27219 0.13375 0.38849 0.0
Co205 Co 0.2657 0.11309 0.44442 0.0
C206 C 0.23057 0.11731 0.40675 0.0
O207 O 0.24266 0.12584 0.3901 0.0
O208 O 0.23717 0.11152 0.42931 0.0
C209 C 0.26215 0.16263 0.34727 0.0
O210 O 0.24792 0.1693 0.36386 0.0
C211 C 0.24933 0.09554 0.49467 0.0
C212 C 0.27535 0.10167 0.52204 0.0
C213 C 0.2552 0.09393 0.52114 0.0
N214 N 0.26501 0.10443 0.48101 0.0
N215 N 0.28063 0.10768 0.49747 0.0
C216 C 0.23011 0.08702 0.48192 0.0
H217 H 0.23378 0.08145 0.46174 0.0
H218 H 0.21825 0.09953 0.48044 0.0
H219 H 0.22363 0.07382 0.4934 0.0
C220 C 0.28508 0.16933 0.42073 0.0
N221 N 0.27962 0.14923 0.41847 0.0
N222 N 0.27544 0.14157 0.44202 0.0
C223 C 0.27718 0.15715 0.4599 0.0
C224 C 0.28346 0.17517 0.44694 0.0
C225 C 0.29094 0.18305 0.39802 0.0
H226 H 0.27677 0.19055 0.38993 0.0
H227 H 0.3017 0.19554 0.40461 0.0
H228 H 0.29846 0.17376 0.38224 0.0
O229 O 0.28875 0.10851 0.3856 0.0
O230 O 0.28367 0.09251 0.42391 0.0
H231 H 0.28291 0.15086 0.50062 0.0
H232 H 0.26441 0.1713 0.49501 0.0
C233 C 0.2698 0.15588 0.48788 0.0
H234 H 0.25691 0.14449 0.48965 0.0
H235 H 0.29481 0.11433 0.492 0.0
O236 O 0.27497 0.14869 0.35456 0.0
C237 C 0.29158 0.09301 0.40074 0.0
Co238 Co 0.1152 0.0168 0.63834 0.0
Co239 Co 0.13632 0.01434 0.69447 0.0
C240 C 0.1358 0.9779 0.65821 0.0
O241 O 0.12664 0.9885 0.64056 0.0
O242 O 0.14011 0.98564 0.68067 0.0
C243 C 0.08843 0.0009 0.59904 0.0
O244 O 0.08668 0.98581 0.6164 0.0
C245 C 0.14292 0.99864 0.74852 0.0
C246 C 0.16376 0.02237 0.7657 0.0
C247 C 0.15413 0.00355 0.77115 0.0
N248 N 0.14569 0.01392 0.73062 0.0
N249 N 0.15802 0.02815 0.74116 0.0
C250 C 0.13173 0.97871 0.74278 0.0
H251 H 0.14335 0.9664 0.73834 0.0
H252 H 0.12124 0.98057 0.72556 0.0
H253 H 0.12252 0.97357 0.76008 0.0
C254 C 0.07879 0.02799 0.67056 0.0
N255 N 0.09913 0.02344 0.66833 0.0
N256 N 0.10756 0.02251 0.69202 0.0
C257 C 0.09257 0.02638 0.71014 0.0
C258 C 0.07382 0.02975 0.69707 0.0
C259 C 0.06425 0.03038 0.64767 0.0
H260 H 0.07224 0.03846 0.6312 0.0
H261 H 0.05933 0.01474 0.64079 0.0
H262 H 0.05016 0.03934 0.65332 0.0
O263 O 0.13879 0.03584 0.63434 0.0
O264 O 0.15529 0.03302 0.67278 0.0
H265 H 0.11022 0.0335 0.74488 0.0
H266 H 0.08239 0.03194 0.75024 0.0
C267 C 0.09574 0.02517 0.73935 0.0
H268 H 0.0974 0.00863 0.74521 0.0
H269 H 0.16307 0.04148 0.73128 0.0
O270 O 0.099 0.01696 0.60506 0.0
C271 C 0.15411 0.04022 0.64926 0.0
Co272 Co 0.7722 0.86304 0.89096 0.0
Co273 Co 0.76904 0.88554 0.94678 0.0
C274 C 0.73258 0.88258 0.90985 0.0
O275 O 0.74342 0.87268 0.89309 0.0
O276 O 0.74038 0.88864 0.93168 0.0
C277 C 0.75828 0.83886 0.84707 0.0
O278 O 0.74033 0.84039 0.85931 0.0
C279 C 0.75288 0.9024 0.99765 0.0
C280 C 0.78054 0.90009 0.02331 0.0
C281 C 0.75957 0.90525 0.02363 0.0
N282 N 0.76892 0.89509 0.98315 0.0
N283 N 0.7855 0.89424 0.99856 0.0
C284 C 0.73249 0.90887 0.98593 0.0
H285 H 0.72239 0.89499 0.98345 0.0
H286 H 0.72445 0.92058 0.99836 0.0
H287 H 0.73521 0.91596 0.96629 0.0
C288 C 0.78266 0.82736 0.92429 0.0
N289 N 0.77892 0.84784 0.92157 0.0
N290 N 0.77713 0.85655 0.94501 0.0
C291 C 0.77948 0.84154 0.96354 0.0
C292 C 0.78324 0.8226 0.95101 0.0
C293 C 0.78246 0.81243 0.90157 0.0
H294 H 0.79438 0.8172 0.88691 0.0
H295 H 0.76703 0.81314 0.8918 0.0
H296 H 0.78534 0.79614 0.90765 0.0
O297 O 0.78984 0.88781 0.88675 0.0
O298 O 0.7883 0.90408 0.92553 0.0
H299 H 0.7914 0.85338 0.99979 0.0
H300 H 0.77627 0.83029 0.00379 0.0
C301 C 0.77739 0.84507 0.99262 0.0
H302 H 0.76349 0.85478 0.99671 0.0
H303 H 0.80017 0.88935 0.99226 0.0
O304 O 0.77455 0.84635 0.85783 0.0
C305 C 0.79481 0.90287 0.90174 0.0
Co306 Co 0.88292 0.02147 0.64014 0.0
Co307 Co 0.86225 0.01722 0.69655 0.0
C308 C 0.86483 0.98125 0.65977 0.0
O309 O 0.87306 0.99257 0.6421 0.0
O310 O 0.86018 0.98853 0.68235 0.0
C311 C 0.90741 0.00711 0.59702 0.0
O312 O 0.90606 0.98942 0.60988 0.0
C313 C 0.85634 0.00022 0.75012 0.0
C314 C 0.83419 0.02249 0.76777 0.0
C315 C 0.84466 0.00403 0.7727 0.0
N316 N 0.853 0.01576 0.73273 0.0
N317 N 0.8399 0.02913 0.74357 0.0
C318 C 0.86846 0.98094 0.74386 0.0
H319 H 0.85746 0.96817 0.73911 0.0
H320 H 0.87889 0.98358 0.72674 0.0
H321 H 0.87791 0.97599 0.76104 0.0
C322 C 0.91905 0.033 0.67224 0.0
N323 N 0.89871 0.02843 0.67021 0.0
N324 N 0.89055 0.02683 0.694 0.0
C325 C 0.90574 0.03034 0.71198 0.0
C326 C 0.92432 0.03415 0.69871 0.0
C327 C 0.93344 0.03506 0.64914 0.0
H328 H 0.92602 0.04477 0.63367 0.0
H329 H 0.93646 0.0194 0.64072 0.0
H330 H 0.94848 0.04223 0.65494 0.0
O331 O 0.85825 0.03928 0.63675 0.0
O332 O 0.84213 0.03501 0.67524 0.0
H333 H 0.88819 0.03513 0.74745 0.0
H334 H 0.91616 0.03528 0.75204 0.0
C335 C 0.90308 0.02796 0.74114 0.0
H336 H 0.90267 0.01117 0.74615 0.0
H337 H 0.83424 0.04238 0.73406 0.0
O338 O 0.89937 0.02345 0.60691 0.0
C339 C 0.84278 0.04258 0.65187 0.0
Co340 Co 0.72899 0.13458 0.391 0.0
Co341 Co 0.73096 0.11272 0.44727 0.0
C342 C 0.76806 0.1151 0.41192 0.0
O343 O 0.75757 0.12409 0.39401 0.0
O344 O 0.75994 0.11015 0.43394 0.0
C345 C 0.74433 0.15766 0.34689 0.0
O346 O 0.76221 0.15497 0.359 0.0
C347 C 0.74631 0.09523 0.49808 0.0
C348 C 0.71918 0.09937 0.52423 0.0
C349 C 0.7398 0.09297 0.52421 0.0
N350 N 0.73056 0.10336 0.48376 0.0
N351 N 0.71426 0.10534 0.49949 0.0
C352 C 0.76633 0.08779 0.48626 0.0
H353 H 0.76346 0.08137 0.46628 0.0
H354 H 0.77728 0.10108 0.48461 0.0
H355 H 0.77354 0.07537 0.49842 0.0
C356 C 0.71811 0.17063 0.42332 0.0
N357 N 0.72164 0.15009 0.42111 0.0
N358 N 0.72312 0.14169 0.44478 0.0
C359 C 0.72121 0.15705 0.46289 0.0
C360 C 0.7177 0.17582 0.44987 0.0
C361 C 0.71845 0.18527 0.40029 0.0
H362 H 0.70737 0.17974 0.38503 0.0
H363 H 0.73427 0.18528 0.39151 0.0
H364 H 0.71439 0.20143 0.40595 0.0
O365 O 0.71092 0.11044 0.38664 0.0
O366 O 0.71249 0.09373 0.425 0.0
H367 H 0.71023 0.1471 0.50054 0.0
H368 H 0.72708 0.16924 0.50214 0.0
C369 C 0.72441 0.15421 0.49194 0.0
H370 H 0.7378 0.14369 0.49555 0.0
H371 H 0.69985 0.11113 0.49344 0.0
O372 O 0.72767 0.15113 0.35771 0.0
C373 C 0.70606 0.09501 0.40112 0.0
Co374 Co 0.61821 0.97587 0.1405 0.0
Co375 Co 0.63831 0.97954 0.19729 0.0
C376 C 0.63791 0.01538 0.16027 0.0
O377 O 0.62946 0.00431 0.14251 0.0
O378 O 0.64178 0.0081 0.1831 0.0
C379 C 0.59471 0.99117 0.09709 0.0
O380 O 0.59638 0.00873 0.11019 0.0
C381 C 0.64651 0.99678 0.25019 0.0
C382 C 0.66123 0.97043 0.27099 0.0
C383 C 0.65564 0.99116 0.27412 0.0
N384 N 0.64701 0.98031 0.23375 0.0
N385 N 0.65574 0.96457 0.24639 0.0
C386 C 0.63645 0.01709 0.2433 0.0
H387 H 0.62399 0.01469 0.22845 0.0
H388 H 0.62973 0.02457 0.26111 0.0
H389 H 0.6483 0.02763 0.23464 0.0
C390 C 0.58131 0.96564 0.17193 0.0
N391 N 0.60179 0.96963 0.17025 0.0
N392 N 0.6097 0.97117 0.19416 0.0
C393 C 0.59422 0.96834 0.21191 0.0
C394 C 0.57567 0.96494 0.19834 0.0
C395 C 0.5673 0.96321 0.14851 0.0
H396 H 0.57506 0.95349 0.13334 0.0
H397 H 0.56419 0.97876 0.13982 0.0
H398 H 0.55228 0.95586 0.15403 0.0
O399 O 0.64207 0.95704 0.13761 0.0
O400 O 0.65799 0.96107 0.17628 0.0
H401 H 0.61011 0.96155 0.24803 0.0
H402 H 0.58251 0.96643 0.25195 0.0
C403 C 0.59676 0.97102 0.24106 0.0
H404 H 0.6002 0.98758 0.24542 0.0
H405 H 0.65821 0.9499 0.23811 0.0
O406 O 0.60213 0.97454 0.10698 0.0
C407 C 0.65731 0.95339 0.15297 0.0
Co408 Co 0.77461 0.13557 0.11841 0.0
Co409 Co 0.77031 0.11416 0.06229 0.0
C410 C 0.73472 0.11558 0.09963 0.0
O411 O 0.74608 0.12493 0.11636 0.0
O412 O 0.74181 0.11038 0.07711 0.0
C413 C 0.75893 0.16273 0.15727 0.0
O414 O 0.74426 0.16485 0.13938 0.0
C415 C 0.75479 0.09669 0.01155 0.0
C416 C 0.78138 0.10237 0.98493 0.0
C417 C 0.76109 0.095 0.98528 0.0
N418 N 0.77037 0.1053 0.0257 0.0
N419 N 0.78633 0.10828 0.00967 0.0
C420 C 0.73517 0.0885 0.02365 0.0
H421 H 0.72398 0.10149 0.02634 0.0
H422 H 0.72797 0.07627 0.01119 0.0
H423 H 0.73864 0.08166 0.04325 0.0
C424 C 0.78491 0.1718 0.08589 0.0
N425 N 0.78079 0.15138 0.08821 0.0
N426 N 0.77789 0.14325 0.0646 0.0
C427 C 0.7794 0.15872 0.04651 0.0
C428 C 0.78399 0.17723 0.05948 0.0
C429 C 0.78888 0.18607 0.10869 0.0
H430 H 0.7973 0.17768 0.12456 0.0
H431 H 0.77379 0.19169 0.11661 0.0
H432 H 0.79815 0.19979 0.1024 0.0
O433 O 0.79333 0.11175 0.12197 0.0
O434 O 0.78989 0.09551 0.08332 0.0
H435 H 0.7877 0.15129 0.00685 0.0
H436 H 0.76873 0.1717 0.00958 0.0
C437 C 0.77381 0.15657 0.01798 0.0
H438 H 0.76118 0.14497 0.0155 0.0
H439 H 0.8005 0.11477 0.01553 0.0
O440 O 0.77491 0.15186 0.15173 0.0
C441 C 0.79757 0.09673 0.10657 0.0
Co442 Co 0.61897 0.02359 0.86928 0.0
Co443 Co 0.63907 0.01855 0.81267 0.0
C444 C 0.63705 0.98308 0.84952 0.0
O445 O 0.62935 0.99479 0.86718 0.0
O446 O 0.64099 0.98985 0.82648 0.0
C447 C 0.59167 0.00823 0.90788 0.0
O448 O 0.58921 0.9939 0.88964 0.0
C449 C 0.65684 0.00251 0.76254 0.0
C450 C 0.65023 0.0281 0.73475 0.0
C451 C 0.65823 0.00806 0.73596 0.0
N452 N 0.64779 0.0182 0.77601 0.0
N453 N 0.64425 0.03359 0.75928 0.0
C454 C 0.66567 0.9835 0.77547 0.0
H455 H 0.67153 0.98742 0.79545 0.0
H456 H 0.65326 0.97158 0.77743 0.0
H457 H 0.67874 0.97695 0.76381 0.0
C458 C 0.58249 0.03499 0.83778 0.0
N459 N 0.60286 0.03044 0.83947 0.0
N460 N 0.61042 0.0273 0.81562 0.0
C461 C 0.59459 0.02884 0.79806 0.0
C462 C 0.57643 0.03386 0.8116 0.0
C463 C 0.56883 0.03958 0.86101 0.0
H464 H 0.5629 0.02477 0.86935 0.0
H465 H 0.55529 0.04923 0.85503 0.0
H466 H 0.57782 0.04787 0.87647 0.0
O467 O 0.64307 0.04173 0.87254 0.0
O468 O 0.65917 0.03653 0.83421 0.0
H469 H 0.60072 0.0361 0.7577 0.0
H470 H 0.58065 0.01699 0.76229 0.0
C471 C 0.59596 0.02247 0.76971 0.0
H472 H 0.60763 0.0099 0.76723 0.0
H473 H 0.63738 0.04772 0.76452 0.0
O474 O 0.60295 0.02401 0.90275 0.0
C475 C 0.65855 0.04462 0.85733 0.0
Co476 Co 0.72975 0.86325 0.61872 0.0
Co477 Co 0.7345 0.88568 0.56335 0.0
C478 C 0.77054 0.88109 0.59932 0.0
O479 O 0.75885 0.87229 0.61615 0.0
O480 O 0.76345 0.88706 0.57711 0.0
C481 C 0.74494 0.83532 0.65722 0.0
O482 O 0.75958 0.83304 0.63934 0.0
C483 C 0.75018 0.90409 0.51322 0.0
C484 C 0.72297 0.90083 0.48698 0.0
C485 C 0.74366 0.90704 0.4872 0.0
N486 N 0.73436 0.89578 0.52723 0.0
N487 N 0.71803 0.89433 0.51148 0.0
C488 C 0.77019 0.91117 0.52543 0.0
H489 H 0.7672 0.91711 0.54562 0.0
H490 H 0.7811 0.89781 0.52674 0.0
H491 H 0.77748 0.92386 0.51381 0.0
C492 C 0.71729 0.82817 0.58505 0.0
N493 N 0.72211 0.84842 0.5881 0.0
N494 N 0.72514 0.85704 0.5648 0.0
C495 C 0.72309 0.8421 0.54615 0.0
C496 C 0.71789 0.82336 0.55834 0.0
C497 C 0.7153 0.81321 0.60759 0.0
H498 H 0.70782 0.82098 0.62465 0.0
H499 H 0.73104 0.80786 0.6135 0.0
H500 H 0.706 0.79934 0.60223 0.0
O501 O 0.71258 0.88818 0.62376 0.0
O502 O 0.71702 0.90517 0.58594 0.0
H503 H 0.71377 0.85299 0.50822 0.0
H504 H 0.72994 0.83044 0.50685 0.0
C505 C 0.72742 0.84533 0.5174 0.0
H506 H 0.74122 0.8555 0.51484 0.0
H507 H 0.70355 0.88859 0.51736 0.0
O508 O 0.72916 0.84653 0.65177 0.0
C509 C 0.70954 0.9041 0.60932 0.0
Co510 Co 0.88636 0.97856 0.36954 0.0
Co511 Co 0.86433 0.98457 0.31427 0.0
C512 C 0.86827 0.01959 0.35221 0.0
O513 O 0.87739 0.0077 0.36853 0.0
O514 O 0.86229 0.01287 0.32984 0.0
C515 C 0.91477 0.99229 0.40792 0.0
O516 O 0.91749 0.00689 0.39007 0.0
C517 C 0.85677 0.00313 0.26191 0.0
C518 C 0.83879 0.97869 0.2414 0.0
C519 C 0.84687 0.99854 0.23818 0.0
N520 N 0.85478 0.98668 0.27824 0.0
N521 N 0.84408 0.9721 0.26578 0.0
C522 C 0.86601 0.02351 0.27022 0.0
H523 H 0.85421 0.03226 0.28174 0.0
H524 H 0.87966 0.0208 0.2832 0.0
H525 H 0.87065 0.03323 0.25318 0.0
C526 C 0.92137 0.96653 0.33574 0.0
N527 N 0.90128 0.97177 0.33882 0.0
N528 N 0.8927 0.97476 0.3155 0.0
C529 C 0.90743 0.97177 0.29677 0.0
C530 C 0.92611 0.96666 0.30908 0.0
C531 C 0.93608 0.96233 0.35803 0.0
H532 H 0.92785 0.95423 0.37429 0.0
H533 H 0.94227 0.9773 0.36559 0.0
H534 H 0.9494 0.95265 0.35134 0.0
O535 O 0.86139 0.96129 0.37337 0.0
O536 O 0.8446 0.96626 0.33545 0.0
H537 H 0.89012 0.96757 0.26107 0.0
H538 H 0.91786 0.97069 0.25616 0.0
C539 C 0.90426 0.97583 0.26798 0.0
H540 H 0.9019 0.99274 0.26483 0.0
H541 H 0.8401 0.95777 0.27406 0.0
O542 O 0.90306 0.9769 0.40243 0.0
C543 C 0.84561 0.95834 0.35862 0.0
Co544 Co 0.72874 0.63393 0.61893 0.0
Co545 Co 0.73112 0.6121 0.563 0.0
C546 C 0.76764 0.61345 0.59939 0.0
O547 O 0.75722 0.62304 0.61682 0.0
O548 O 0.75966 0.60839 0.57734 0.0
C549 C 0.74456 0.66095 0.658 0.0
O550 O 0.75971 0.66246 0.64067 0.0
C551 C 0.74864 0.603 0.51054 0.0
C552 C 0.72262 0.58753 0.49 0.0
C553 C 0.74328 0.59336 0.48687 0.0
N554 N 0.73208 0.60259 0.52687 0.0
N555 N 0.71654 0.59338 0.51438 0.0
C556 C 0.76877 0.6135 0.51721 0.0
H557 H 0.76613 0.62621 0.53165 0.0
H558 H 0.77623 0.61995 0.49922 0.0
H559 H 0.77944 0.60196 0.52627 0.0
C560 C 0.71741 0.66997 0.58567 0.0
N561 N 0.72177 0.6496 0.58851 0.0
N562 N 0.7232 0.64087 0.56503 0.0
C563 C 0.72019 0.65568 0.54649 0.0
C564 C 0.71641 0.6746 0.55892 0.0
C565 C 0.71684 0.68509 0.60816 0.0
H566 H 0.70869 0.67802 0.62523 0.0
H567 H 0.73302 0.68886 0.61413 0.0
H568 H 0.70891 0.6998 0.60277 0.0
O569 O 0.7103 0.60985 0.62327 0.0
O570 O 0.71179 0.59359 0.58442 0.0
H571 H 0.71283 0.63806 0.51185 0.0
H572 H 0.71608 0.66566 0.50606 0.0
C573 C 0.7219 0.65207 0.5174 0.0
H574 H 0.73843 0.64931 0.51219 0.0
H575 H 0.70186 0.59086 0.52261 0.0
O576 O 0.72845 0.65041 0.65206 0.0
C577 C 0.70519 0.59488 0.60819 0.0
Co578 Co 0.61375 0.47523 0.8693 0.0
Co579 Co 0.63667 0.48072 0.81448 0.0
C580 C 0.63374 0.51554 0.85297 0.0
O581 O 0.62396 0.50388 0.86891 0.0
O582 O 0.63972 0.5088 0.83062 0.0
C583 C 0.58567 0.48996 0.90747 0.0
O584 O 0.58349 0.50457 0.88951 0.0
C585 C 0.64436 0.4994 0.76229 0.0
C586 C 0.66462 0.4762 0.74297 0.0
C587 C 0.65543 0.4955 0.73924 0.0
N588 N 0.64677 0.4831 0.77876 0.0
N589 N 0.65881 0.46923 0.76698 0.0
C590 C 0.63357 0.51917 0.76991 0.0
H591 H 0.62143 0.51602 0.78497 0.0
H592 H 0.62641 0.52689 0.7526 0.0
H593 H 0.64518 0.53001 0.77852 0.0
C594 C 0.57863 0.46485 0.83454 0.0
N595 N 0.59883 0.46945 0.83816 0.0
N596 N 0.60792 0.47193 0.81503 0.0
C597 C 0.59347 0.46902 0.79592 0.0
C598 C 0.57444 0.46463 0.80775 0.0
C599 C 0.56329 0.46164 0.8564 0.0
H600 H 0.55765 0.477 0.86339 0.0
H601 H 0.54967 0.4525 0.84947 0.0
H602 H 0.5708 0.45342 0.87312 0.0
O603 O 0.63789 0.45672 0.87311 0.0
O604 O 0.65527 0.46115 0.8354 0.0
H605 H 0.61195 0.46424 0.76125 0.0
H606 H 0.58422 0.46594 0.75509 0.0
C607 C 0.5973 0.47213 0.76708 0.0
H608 H 0.59894 0.48899 0.76297 0.0
H609 H 0.66346 0.45522 0.77558 0.0
O610 O 0.59677 0.47412 0.90205 0.0
C611 C 0.65347 0.45302 0.85835 0.0
Co612 Co 0.77657 0.36734 0.11974 0.0
Co613 Co 0.77055 0.38923 0.06417 0.0
C614 C 0.73606 0.38665 0.10365 0.0
O615 O 0.74769 0.37696 0.11973 0.0
O616 O 0.74282 0.39251 0.08123 0.0
C617 C 0.76373 0.34155 0.16213 0.0
O618 O 0.74626 0.34158 0.14866 0.0
C619 C 0.75038 0.39631 0.01271 0.0
C620 C 0.77435 0.41348 0.99029 0.0
C621 C 0.75428 0.40569 0.98843 0.0
N622 N 0.76741 0.39832 0.02803 0.0
N623 N 0.78171 0.40854 0.01445 0.0
C624 C 0.73018 0.38754 0.02246 0.0
H625 H 0.72206 0.39966 0.03417 0.0
H626 H 0.73316 0.37405 0.03562 0.0
H627 H 0.71974 0.3828 0.00617 0.0
C628 C 0.78633 0.33168 0.08609 0.0
N629 N 0.78213 0.35202 0.08895 0.0
N630 N 0.77926 0.36053 0.06556 0.0
C631 C 0.78143 0.34554 0.04699 0.0
C632 C 0.78577 0.32673 0.05949 0.0
C633 C 0.78982 0.31702 0.10865 0.0
H634 H 0.79979 0.32455 0.12376 0.0
H635 H 0.77463 0.31316 0.11783 0.0
H636 H 0.79738 0.3024 0.10195 0.0
O637 O 0.79441 0.39203 0.12236 0.0
O638 O 0.7905 0.40833 0.08379 0.0
H639 H 0.78584 0.36258 0.0111 0.0
H640 H 0.78201 0.3349 0.00645 0.0
C641 C 0.77729 0.34867 0.01821 0.0
H642 H 0.76041 0.35141 0.0152 0.0
H643 H 0.79639 0.41242 0.02179 0.0
O644 O 0.77965 0.35067 0.15265 0.0
C645 C 0.79834 0.40717 0.10697 0.0
Co646 Co 0.88876 0.52096 0.37065 0.0
Co647 Co 0.86576 0.51801 0.31545 0.0
C648 C 0.8694 0.48137 0.352 0.0
O649 O 0.87965 0.49202 0.36861 0.0
O650 O 0.86285 0.48944 0.3306 0.0
C651 C 0.91421 0.50713 0.41334 0.0
O652 O 0.9134 0.48946 0.40035 0.0
C653 C 0.85925 0.50118 0.26175 0.0
C654 C 0.83673 0.52341 0.24474 0.0
C655 C 0.84742 0.50516 0.23928 0.0
N656 N 0.85578 0.51643 0.27951 0.0
N657 N 0.84242 0.52975 0.26907 0.0
C658 C 0.87192 0.48213 0.26742 0.0
H659 H 0.86157 0.4683 0.26784 0.0
H660 H 0.88017 0.48362 0.28653 0.0
H661 H 0.88366 0.47965 0.25175 0.0
C662 C 0.92366 0.53296 0.33692 0.0
N663 N 0.90344 0.52829 0.33999 0.0
N664 N 0.89439 0.5271 0.31668 0.0
C665 C 0.90888 0.53115 0.29795 0.0
C666 C 0.92791 0.53476 0.31023 0.0
C667 C 0.93886 0.53459 0.35923 0.0
H668 H 0.94201 0.5188 0.36717 0.0
H669 H 0.95376 0.54173 0.35277 0.0
H670 H 0.93207 0.54415 0.37529 0.0
O671 O 0.86377 0.53822 0.37525 0.0
O672 O 0.84685 0.53679 0.33701 0.0
H673 H 0.88993 0.53702 0.26391 0.0
H674 H 0.91768 0.53762 0.25764 0.0
C675 C 0.9051 0.52979 0.26889 0.0
H676 H 0.90466 0.51319 0.26296 0.0
H677 H 0.8367 0.54285 0.27885 0.0
O678 O 0.90575 0.52327 0.40347 0.0
C679 C 0.84821 0.54304 0.36094 0.0
Co680 Co 0.72857 0.36693 0.38911 0.0
Co681 Co 0.73257 0.38782 0.44546 0.0
C682 C 0.76864 0.38545 0.40954 0.0
O683 O 0.75726 0.37752 0.39171 0.0
O684 O 0.76146 0.38962 0.4323 0.0
C685 C 0.7452 0.33981 0.35114 0.0
O686 O 0.75929 0.33788 0.36978 0.0
C687 C 0.74835 0.4052 0.49594 0.0
C688 C 0.72151 0.40092 0.52256 0.0
C689 C 0.74215 0.40731 0.5222 0.0
N690 N 0.73243 0.39714 0.48188 0.0
N691 N 0.7163 0.3951 0.49786 0.0
C692 C 0.76819 0.41277 0.48374 0.0
H693 H 0.76505 0.4191 0.46377 0.0
H694 H 0.77924 0.39957 0.48195 0.0
H695 H 0.7754 0.42529 0.49572 0.0
C696 C 0.7171 0.33057 0.42156 0.0
N697 N 0.7214 0.351 0.41923 0.0
N698 N 0.72394 0.35916 0.44288 0.0
C699 C 0.72222 0.34378 0.46098 0.0
C700 C 0.71766 0.3252 0.44809 0.0
C701 C 0.71535 0.31601 0.39859 0.0
H702 H 0.70802 0.32404 0.38161 0.0
H703 H 0.73115 0.31073 0.39282 0.0
H704 H 0.706 0.30206 0.40353 0.0
O705 O 0.71032 0.39113 0.38497 0.0
O706 O 0.71486 0.40745 0.42327 0.0
H707 H 0.71259 0.35367 0.49923 0.0
H708 H 0.72917 0.33139 0.4999 0.0
C709 C 0.7264 0.34646 0.48986 0.0
H710 H 0.74001 0.35681 0.49285 0.0
H711 H 0.70182 0.38935 0.49202 0.0
O712 O 0.72901 0.35065 0.35574 0.0
C713 C 0.70714 0.4067 0.39997 0.0
Co714 Co 0.88664 0.47648 0.64063 0.0
Co715 Co 0.86411 0.48088 0.69582 0.0
C716 C 0.86779 0.51684 0.65939 0.0
O717 O 0.87723 0.50547 0.64277 0.0
O718 O 0.86177 0.50953 0.68143 0.0
C719 C 0.91488 0.49173 0.60277 0.0
O720 O 0.91692 0.5062 0.62091 0.0
C721 C 0.85453 0.49819 0.74829 0.0
C722 C 0.8387 0.47204 0.76818 0.0
C723 C 0.84476 0.49258 0.77179 0.0
N724 N 0.85402 0.48185 0.73163 0.0
N725 N 0.84456 0.46626 0.7437 0.0
C726 C 0.86533 0.51826 0.74213 0.0
H727 H 0.87831 0.51555 0.7281 0.0
H728 H 0.8715 0.52558 0.76037 0.0
H729 H 0.8541 0.5291 0.73273 0.0
C730 C 0.92154 0.46361 0.67475 0.0
N731 N 0.90146 0.46898 0.67137 0.0
N732 N 0.8925 0.47129 0.69458 0.0
C733 C 0.90687 0.46776 0.71353 0.0
C734 C 0.92576 0.46278 0.70163 0.0
C735 C 0.93687 0.46216 0.65253 0.0
H736 H 0.92944 0.45476 0.63516 0.0
H737 H 0.94193 0.47807 0.64698 0.0
H738 H 0.95088 0.4531 0.65794 0.0
O739 O 0.8617 0.45906 0.63575 0.0
O740 O 0.84482 0.46303 0.67378 0.0
H741 H 0.91611 0.46395 0.75432 0.0
H742 H 0.90052 0.48669 0.74724 0.0
C743 C 0.90289 0.47001 0.74248 0.0
H744 H 0.88854 0.46144 0.74789 0.0
H745 H 0.84199 0.45169 0.73517 0.0
O746 O 0.90359 0.47592 0.60776 0.0
C747 C 0.8459 0.4557 0.65033 0.0
Co748 Co 0.77095 0.63439 0.89174 0.0
Co749 Co 0.77031 0.61175 0.94728 0.0
C750 C 0.73277 0.61359 0.91217 0.0
O751 O 0.74255 0.62356 0.89447 0.0
O752 O 0.74149 0.60824 0.93367 0.0
C753 C 0.75576 0.65759 0.84765 0.0
O754 O 0.73775 0.65433 0.85919 0.0
C755 C 0.75457 0.60555 1.00124 0.0
C756 C 0.77637 0.58232 0.01758 0.0
C757 C 0.75845 0.59343 0.02343 0.0
N758 N 0.76956 0.60188 0.98322 0.0
N759 N 0.78266 0.58811 0.99325 0.0
C760 C 0.73566 0.61852 0.99598 0.0
H761 H 0.73776 0.62804 0.97791 0.0
H762 H 0.73245 0.62898 0.01287 0.0
H763 H 0.72198 0.60815 0.99347 0.0
C764 C 0.78218 0.67003 0.92489 0.0
N765 N 0.77828 0.6496 0.92212 0.0
N766 N 0.77831 0.64055 0.94546 0.0
C767 C 0.78236 0.65519 0.96393 0.0
C768 C 0.78496 0.67432 0.9515 0.0
C769 C 0.78053 0.68532 0.90264 0.0
H770 H 0.79256 0.6817 0.88762 0.0
H771 H 0.76507 0.68365 0.89311 0.0
H772 H 0.78237 0.70165 0.90924 0.0
O773 O 0.7893 0.61033 0.88683 0.0
O774 O 0.78906 0.59329 0.92503 0.0
H775 H 0.79057 0.63597 0.99699 0.0
H776 H 0.79188 0.6637 1.0033 0.0
C777 C 0.78312 0.65122 0.993 0.0
H778 H 0.76703 0.65092 1.00091 0.0
H779 H 0.79546 0.58209 0.98312 0.0
O780 O 0.77238 0.65136 0.85885 0.0
C781 C 0.7949 0.59493 0.90095 0.0
Co782 Co 0.61788 0.52377 0.14024 0.0
Co783 Co 0.63746 0.52123 0.19785 0.0
C784 C 0.63659 0.48453 0.16191 0.0
O785 O 0.62828 0.4952 0.14364 0.0
O786 O 0.64061 0.49241 0.18437 0.0
C787 C 0.59487 0.50808 0.09636 0.0
O788 O 0.59675 0.4905 0.10937 0.0
C789 C 0.65453 0.50572 0.24858 0.0
C790 C 0.64742 0.53142 0.276 0.0
C791 C 0.65546 0.51139 0.27512 0.0
N792 N 0.64562 0.5213 0.23475 0.0
N793 N 0.64182 0.53678 0.25125 0.0
C794 C 0.6638 0.48676 0.23607 0.0
H795 H 0.6702 0.4907 0.21637 0.0
H796 H 0.65151 0.47478 0.23365 0.0
H797 H 0.67658 0.48027 0.24829 0.0
C798 C 0.58084 0.535 0.17057 0.0
N799 N 0.60136 0.53105 0.16961 0.0
N800 N 0.6087 0.5291 0.19379 0.0
C801 C 0.59263 0.53106 0.21092 0.0
C802 C 0.57452 0.53497 0.19672 0.0
C803 C 0.56741 0.53784 0.14668 0.0
H804 H 0.57573 0.54741 0.13182 0.0
H805 H 0.56409 0.52239 0.13783 0.0
H806 H 0.55247 0.54552 0.15175 0.0
O807 O 0.64239 0.54159 0.13707 0.0
O808 O 0.65712 0.53986 0.17688 0.0
H809 H 0.59842 0.54027 0.25071 0.0
H810 H 0.57846 0.52089 0.2474 0.0
C811 C 0.5938 0.52608 0.23974 0.0
H812 H 0.60547 0.51369 0.24332 0.0
H813 H 0.63504 0.55088 0.24571 0.0
O814 O 0.60206 0.52478 0.10637 0.0
C815 C 0.65693 0.54634 0.15299 0.0
Co816 Co 0.27634 0.36586 0.38726 0.0
Co817 Co 0.26898 0.38745 0.44267 0.0
C818 C 0.23452 0.38297 0.40438 0.0
O819 O 0.24697 0.37457 0.38806 0.0
O820 O 0.24062 0.38859 0.42721 0.0
C821 C 0.26388 0.33953 0.3451 0.0
O822 O 0.24633 0.33939 0.35838 0.0
C823 C 0.25178 0.40542 0.49226 0.0
C824 C 0.27745 0.39983 0.5203 0.0
C825 C 0.2572 0.40725 0.51885 0.0
N826 N 0.2678 0.39672 0.47904 0.0
N827 N 0.28321 0.39379 0.49591 0.0
C828 C 0.23255 0.41345 0.47902 0.0
H829 H 0.22099 0.40068 0.47741 0.0
H830 H 0.22563 0.42656 0.49025 0.0
H831 H 0.23637 0.41901 0.45887 0.0
C832 C 0.28773 0.33074 0.42056 0.0
N833 N 0.283 0.35099 0.41793 0.0
N834 N 0.27871 0.35899 0.44124 0.0
C835 C 0.27983 0.34355 0.45941 0.0
C836 C 0.28569 0.32521 0.44684 0.0
C837 C 0.29249 0.31656 0.3979 0.0
H838 H 0.27773 0.31194 0.38816 0.0
H839 H 0.30066 0.3023 0.4047 0.0
H840 H 0.30235 0.32477 0.38324 0.0
O841 O 0.29317 0.39099 0.38375 0.0
O842 O 0.28687 0.40766 0.42136 0.0
H843 H 0.28508 0.35069 0.5 0.0
H844 H 0.26671 0.33004 0.49476 0.0
C845 C 0.27214 0.34533 0.4872 0.0
H846 H 0.2592 0.35672 0.48837 0.0
H847 H 0.29754 0.38724 0.49088 0.0
O848 O 0.27958 0.34905 0.35455 0.0
C849 C 0.29526 0.40689 0.39844 0.0
Co850 Co 0.38423 0.52563 0.13713 0.0
Co851 Co 0.36201 0.52065 0.19271 0.0
C852 C 0.36678 0.48472 0.15595 0.0
O853 O 0.3759 0.49631 0.13926 0.0
O854 O 0.36045 0.4919 0.17798 0.0
C855 C 0.4102 0.51275 0.09453 0.0
O856 O 0.41003 0.49505 0.10749 0.0
C857 C 0.34459 0.50431 0.24313 0.0
C858 C 0.34907 0.53103 0.2699 0.0
C859 C 0.34244 0.51049 0.26941 0.0
N860 N 0.35273 0.52023 0.22914 0.0
N861 N 0.35501 0.53624 0.24526 0.0
C862 C 0.33735 0.48439 0.23089 0.0
H863 H 0.33103 0.4875 0.21091 0.0
H864 H 0.35073 0.47356 0.22901 0.0
H865 H 0.32497 0.47693 0.24287 0.0
C866 C 0.41917 0.53779 0.17015 0.0
N867 N 0.39888 0.53322 0.16759 0.0
N868 N 0.39065 0.52992 0.19104 0.0
C869 C 0.40597 0.53157 0.20931 0.0
C870 C 0.42448 0.53668 0.19659 0.0
C871 C 0.43355 0.54153 0.14738 0.0
H872 H 0.42565 0.55122 0.13228 0.0
H873 H 0.43774 0.52639 0.13828 0.0
H874 H 0.44802 0.54948 0.15386 0.0
O875 O 0.35897 0.54205 0.13287 0.0
O876 O 0.34225 0.53883 0.17104 0.0
H877 H 0.39792 0.53855 0.24918 0.0
H878 H 0.41909 0.52046 0.24599 0.0
C879 C 0.40384 0.52517 0.23758 0.0
H880 H 0.3927 0.51206 0.23938 0.0
H881 H 0.36104 0.55064 0.23954 0.0
O882 O 0.40101 0.52851 0.10428 0.0
C883 C 0.34323 0.54574 0.14735 0.0
Co884 Co 0.21987 0.63222 0.88932 0.0
Co885 Co 0.2236 0.61168 0.94599 0.0
C886 C 0.25917 0.61194 0.90818 0.0
O887 O 0.24822 0.62085 0.89065 0.0
O888 O 0.25188 0.60778 0.93093 0.0
C889 C 0.23456 0.65615 0.84593 0.0
O890 O 0.25228 0.65443 0.85869 0.0
C891 C 0.24176 0.60317 0.99833 0.0
C892 C 0.21563 0.5888 0.01994 0.0
C893 C 0.23648 0.59412 0.02244 0.0
N894 N 0.22496 0.60289 0.9824 0.0
N895 N 0.20936 0.59436 0.99552 0.0
C896 C 0.26205 0.613 0.99083 0.0
H897 H 0.27228 0.60103 0.98183 0.0
H898 H 0.2595 0.6255 0.97607 0.0
H899 H 0.26996 0.61961 0.0084 0.0
C900 C 0.21055 0.66905 0.92134 0.0
N901 N 0.21415 0.64852 0.91939 0.0
N902 N 0.21577 0.64044 0.94321 0.0
C903 C 0.21341 0.65586 0.96115 0.0
C904 C 0.21024 0.67454 0.9478 0.0
C905 C 0.20816 0.68327 0.89811 0.0
H906 H 0.22367 0.68613 0.8892 0.0
H907 H 0.20117 0.69839 0.90392 0.0
H908 H 0.1981 0.67582 0.88303 0.0
O909 O 0.20092 0.6085 0.88665 0.0
O910 O 0.20412 0.5926 0.92557 0.0
H911 H 0.20674 0.63986 0.99722 0.0
H912 H 0.21206 0.66735 1.00132 0.0
C913 C 0.21634 0.6531 0.99023 0.0
H914 H 0.23289 0.6494 0.99431 0.0
H915 H 0.1945 0.59209 0.98771 0.0
O916 O 0.2181 0.64852 0.85601 0.0
C917 C 0.19655 0.59364 0.90225 0.0
Co918 Co 0.11176 0.47629 0.6371 0.0
Co919 Co 0.13484 0.482 0.69167 0.0
C920 C 0.13004 0.51726 0.65403 0.0
O921 O 0.12053 0.50548 0.63796 0.0
O922 O 0.13645 0.5104 0.67615 0.0
C923 C 0.08334 0.48986 0.59845 0.0
O924 O 0.08078 0.5048 0.61586 0.0
C925 C 0.14211 0.50028 0.74412 0.0
C926 C 0.16149 0.47657 0.76395 0.0
C927 C 0.15234 0.4959 0.76769 0.0
N928 N 0.1449 0.48419 0.72743 0.0
N929 N 0.15647 0.47006 0.73946 0.0
C930 C 0.13163 0.52018 0.7363 0.0
H931 H 0.14278 0.5297 0.72471 0.0
H932 H 0.11803 0.5168 0.72347 0.0
H933 H 0.12662 0.52947 0.75355 0.0
C934 C 0.07735 0.46366 0.67212 0.0
N935 N 0.09734 0.46915 0.66824 0.0
N936 N 0.10659 0.47181 0.6912 0.0
C937 C 0.09252 0.46824 0.71051 0.0
C938 C 0.07351 0.46303 0.69911 0.0
C939 C 0.06173 0.46193 0.65025 0.0
H940 H 0.06889 0.45412 0.63299 0.0
H941 H 0.0568 0.47779 0.64427 0.0
H942 H 0.04769 0.45315 0.6562 0.0
O943 O 0.13702 0.45938 0.63244 0.0
O944 O 0.15435 0.46399 0.67002 0.0
H945 H 0.08423 0.46355 0.75144 0.0
H946 H 0.09807 0.48733 0.74431 0.0
C947 C 0.09684 0.47056 0.73938 0.0
H948 H 0.11181 0.46292 0.74435 0.0
H949 H 0.16114 0.45606 0.73084 0.0
O950 O 0.09484 0.47442 0.60441 0.0
C951 C 0.15307 0.45639 0.64671 0.0
Co952 Co 0.26766 0.63577 0.61852 0.0
Co953 Co 0.26777 0.61391 0.56275 0.0
C954 C 0.22972 0.61515 0.59669 0.0
O955 O 0.23935 0.62481 0.61479 0.0
O956 O 0.23867 0.61016 0.57522 0.0
C957 C 0.25067 0.66277 0.65687 0.0
O958 O 0.23613 0.66459 0.63875 0.0
C959 C 0.25302 0.60737 0.50842 0.0
C960 C 0.27541 0.58438 0.49288 0.0
C961 C 0.25738 0.59512 0.48654 0.0
N962 N 0.26786 0.60415 0.52678 0.0
N963 N 0.28133 0.59055 0.51721 0.0
C964 C 0.23375 0.61994 0.51303 0.0
H965 H 0.23562 0.63016 0.53052 0.0
H966 H 0.23017 0.6296 0.49546 0.0
H967 H 0.22042 0.60926 0.51629 0.0
C968 C 0.28025 0.67175 0.5864 0.0
N969 N 0.27562 0.65144 0.58868 0.0
N970 N 0.27571 0.64275 0.56512 0.0
C971 C 0.28033 0.65754 0.54701 0.0
C972 C 0.28309 0.67645 0.55995 0.0
C973 C 0.28183 0.68647 0.60923 0.0
H974 H 0.28929 0.67859 0.62624 0.0
H975 H 0.26597 0.69145 0.61515 0.0
H976 H 0.29104 0.70049 0.60395 0.0
O977 O 0.28617 0.61196 0.6239 0.0
O978 O 0.28623 0.59534 0.58541 0.0
H979 H 0.28817 0.63903 0.51322 0.0
H980 H 0.28842 0.66681 0.50724 0.0
C981 C 0.2804 0.65401 0.51783 0.0
H982 H 0.26412 0.65324 0.51067 0.0
H983 H 0.29407 0.5848 0.5277 0.0
O984 O 0.26687 0.65215 0.65165 0.0
C985 C 0.2919 0.59672 0.60958 0.0
Co986 Co 0.1179 0.52073 0.36674 0.0
Co987 Co 0.13931 0.52058 0.31035 0.0
C988 C 0.13802 0.48266 0.34516 0.0
O989 O 0.12824 0.49231 0.36313 0.0
O990 O 0.14323 0.4916 0.32373 0.0
C991 C 0.09404 0.50477 0.40975 0.0
O992 O 0.09666 0.48712 0.39712 0.0
C993 C 0.14746 0.50398 0.25736 0.0
C994 C 0.16377 0.52977 0.23741 0.0
C995 C 0.15733 0.50934 0.23386 0.0
N996 N 0.14836 0.52027 0.27405 0.0
N997 N 0.15803 0.53571 0.26191 0.0
C998 C 0.13642 0.48407 0.2636 0.0
H999 H 0.12394 0.4868 0.27834 0.0
H1000 H 0.1296 0.47715 0.24548 0.0
H1001 H 0.14773 0.4729 0.2721 0.0
C1002 C 0.0817 0.53256 0.33479 0.0
N1003 N 0.10216 0.52853 0.33689 0.0
N1004 N 0.11061 0.52845 0.3132 0.0
C1005 C 0.09558 0.53246 0.2952 0.0
C1006 C 0.07674 0.535 0.30835 0.0
C1007 C 0.06705 0.53323 0.35777 0.0
H1008 H 0.06463 0.51719 0.36531 0.0
H1009 H 0.05178 0.54001 0.3522 0.0
H1010 H 0.07395 0.54269 0.37385 0.0
O1011 O 0.14253 0.53847 0.37144 0.0
O1012 O 0.15796 0.53952 0.33204 0.0
H1013 H 0.11268 0.54137 0.26074 0.0
H1014 H 0.08502 0.53792 0.25522 0.0
C1015 C 0.09882 0.53193 0.26598 0.0
H1016 H 0.10176 0.51566 0.25971 0.0
H1017 H 0.16105 0.55016 0.27049 0.0
O1018 O 0.1012 0.52152 0.39986 0.0
C1019 C 0.15716 0.54461 0.35643 0.0
Co1020 Co 0.23125 0.36456 0.11855 0.0
Co1021 Co 0.23302 0.38673 0.06289 0.0
C1022 C 0.27003 0.38495 0.09826 0.0
O1023 O 0.25972 0.37542 0.11586 0.0
O1024 O 0.26182 0.3901 0.07638 0.0
C1025 C 0.24799 0.33711 0.15624 0.0
O1026 O 0.26243 0.3357 0.13796 0.0
C1027 C 0.24977 0.39588 0.01013 0.0
C1028 C 0.22365 0.41178 0.99032 0.0
C1029 C 0.24418 0.40568 0.98666 0.0
N1030 N 0.23348 0.39644 0.02686 0.0
N1031 N 0.21788 0.40592 0.01482 0.0
C1032 C 0.26987 0.38509 0.0162 0.0
H1033 H 0.26729 0.37232 0.03057 0.0
H1034 H 0.27698 0.37868 0.99797 0.0
H1035 H 0.28082 0.39645 0.0251 0.0
C1036 C 0.21897 0.32887 0.08531 0.0
N1037 N 0.2237 0.34915 0.08822 0.0
N1038 N 0.22484 0.35802 0.06481 0.0
C1039 C 0.2213 0.34339 0.0462 0.0
C1040 C 0.21744 0.32445 0.05857 0.0
C1041 C 0.21847 0.31362 0.10768 0.0
H1042 H 0.2109 0.32079 0.1251 0.0
H1043 H 0.23467 0.30936 0.11302 0.0
H1044 H 0.21002 0.29919 0.10244 0.0
O1045 O 0.21288 0.38862 0.12351 0.0
O1046 O 0.21434 0.40535 0.0851 0.0
H1047 H 0.21356 0.36131 0.01194 0.0
H1048 H 0.21638 0.3337 0.00581 0.0
C1049 C 0.22256 0.34716 0.01711 0.0
H1050 H 0.23903 0.34975 0.01147 0.0
H1051 H 0.20336 0.40859 0.02342 0.0
O1052 O 0.23171 0.34777 0.15146 0.0
C1053 C 0.20793 0.40403 0.10898 0.0
Co1054 Co 0.38627 0.48123 0.86797 0.0
Co1055 Co 0.36311 0.48243 0.81299 0.0
C1056 C 0.36436 0.51943 0.84875 0.0
O1057 O 0.37524 0.5095 0.86541 0.0
O1058 O 0.35837 0.5109 0.82739 0.0
C1059 C 0.41401 0.49796 0.90549 0.0
O1060 O 0.41534 0.51252 0.88734 0.0
C1061 C 0.3531 0.49945 0.7607 0.0
C1062 C 0.33818 0.47298 0.74042 0.0
C1063 C 0.34354 0.49375 0.73711 0.0
N1064 N 0.35312 0.48296 0.77713 0.0
N1065 N 0.34422 0.46716 0.76483 0.0
C1066 C 0.36326 0.5198 0.76718 0.0
H1067 H 0.37619 0.51739 0.78137 0.0
H1068 H 0.36936 0.5274 0.74909 0.0
H1069 H 0.35164 0.53025 0.77652 0.0
C1070 C 0.42169 0.47015 0.8342 0.0
N1071 N 0.40136 0.47432 0.83741 0.0
N1072 N 0.39221 0.47516 0.81416 0.0
C1073 C 0.40672 0.47168 0.79531 0.0
C1074 C 0.42591 0.46859 0.80747 0.0
C1075 C 0.43697 0.46808 0.85637 0.0
H1076 H 0.44211 0.48381 0.86264 0.0
H1077 H 0.45087 0.45906 0.85015 0.0
H1078 H 0.42954 0.46021 0.87342 0.0
O1079 O 0.3625 0.46247 0.87328 0.0
O1080 O 0.34542 0.46287 0.83509 0.0
H1081 H 0.41643 0.46805 0.75464 0.0
H1082 H 0.39863 0.4892 0.761 0.0
C1083 C 0.40264 0.47294 0.76629 0.0
H1084 H 0.38918 0.46292 0.76118 0.0
H1085 H 0.34211 0.45245 0.77317 0.0
O1086 O 0.40337 0.4817 0.90061 0.0
C1087 C 0.34716 0.45679 0.85906 0.0
H1088 H 0.15393 0.03292 0.22251 0.0
H1089 H 0.17545 0.97547 0.1867 0.0
H1090 H 0.18718 0.99523 0.1475 0.0
H1091 H 0.13717 0.05893 0.16309 0.0
H1092 H 0.14651 0.08404 0.17366 0.0
H1093 H 0.13818 0.06517 0.19776 0.0
H1094 H 0.17396 0.06757 0.22128 0.0
H1095 H 0.18224 0.08668 0.19753 0.0
H1096 H 0.19743 0.06341 0.2025 0.0
H1097 H 0.19823 0.02194 0.11291 0.0
H1098 H 0.20999 0.05304 0.08818 0.0
H1099 H 0.18265 0.09271 0.1482 0.0
C1100 C 0.1615 0.02443 0.20679 0.0
C1101 C 0.16427 0.00263 0.20813 0.0
C1102 C 0.1733 0.99219 0.18629 0.0
C1103 C 0.17997 0.00328 0.16389 0.0
C1104 C 0.17741 0.02484 0.16352 0.0
C1105 C 0.16849 0.03528 0.18452 0.0
C1106 C 0.16859 0.05858 0.18006 0.0
C1107 C 0.14628 0.06718 0.17855 0.0
C1108 C 0.18132 0.06971 0.20161 0.0
C1109 C 0.1793 0.0597 0.15348 0.0
C1110 C 0.18397 0.04009 0.14397 0.0
C1111 C 0.19452 0.03735 0.12012 0.0
C1112 C 0.20103 0.05512 0.10609 0.0
C1113 C 0.19721 0.07534 0.11615 0.0
C1114 C 0.18574 0.0775 0.13984 0.0
H1115 H 0.15906 0.93071 0.39688 0.0
H1116 H 0.1988 0.95867 0.33739 0.0
H1117 H 0.22988 0.94743 0.36258 0.0
H1118 H 0.18725 0.9461 0.45124 0.0
H1119 H 0.18345 0.92267 0.47021 0.0
H1120 H 0.16445 0.93027 0.44596 0.0
H1121 H 0.16819 0.89469 0.42237 0.0
H1122 H 0.18688 0.88675 0.44692 0.0
H1123 H 0.19364 0.88581 0.41241 0.0
H1124 H 0.25642 0.93697 0.39756 0.0
H1125 H 0.27607 0.92568 0.43702 0.0
H1126 H 0.21873 0.9032 0.47223 0.0
C1127 C 0.17429 0.934 0.38872 0.0
C1128 C 0.17647 0.94553 0.36506 0.0
C1129 C 0.19671 0.94964 0.35525 0.0
C1130 C 0.21446 0.94343 0.36954 0.0
C1131 C 0.21169 0.93286 0.39339 0.0
C1132 C 0.19208 0.92781 0.4026 0.0
C1133 C 0.19317 0.91724 0.42931 0.0
C1134 C 0.18138 0.92983 0.45041 0.0
C1135 C 0.18499 0.89478 0.42764 0.0
C1136 C 0.21641 0.91768 0.43416 0.0
C1137 C 0.22687 0.9267 0.41323 0.0
C1138 C 0.24837 0.92968 0.41389 0.0
C1139 C 0.25939 0.92325 0.43644 0.0
C1140 C 0.24896 0.91404 0.45819 0.0
C1141 C 0.2272 0.91092 0.45661 0.0
H1142 H 0.32147 0.90834 0.64663 0.0
H1143 H 0.29368 0.9485 0.58744 0.0
H1144 H 0.30487 0.9794 0.61307 0.0
H1145 H 0.30571 0.93626 0.70123 0.0
H1146 H 0.32904 0.93214 0.72032 0.0
H1147 H 0.3214 0.91338 0.69581 0.0
H1148 H 0.35714 0.91703 0.67254 0.0
H1149 H 0.3651 0.9355 0.69733 0.0
H1150 H 0.36625 0.94247 0.66289 0.0
H1151 H 0.31566 0.00575 0.64834 0.0
H1152 H 0.32709 0.02505 0.68805 0.0
H1153 H 0.34878 0.96726 0.72284 0.0
C1154 C 0.31816 0.92363 0.63863 0.0
C1155 C 0.30673 0.92597 0.61492 0.0
C1156 C 0.30262 0.94628 0.60535 0.0
C1157 C 0.30881 0.96392 0.61989 0.0
C1158 C 0.31932 0.96098 0.64376 0.0
C1159 C 0.32427 0.94129 0.65278 0.0
C1160 C 0.33473 0.94212 0.67957 0.0
C1161 C 0.32195 0.93027 0.70045 0.0
C1162 C 0.35714 0.93379 0.67798 0.0
C1163 C 0.33442 0.96532 0.68464 0.0
C1164 C 0.32553 0.97599 0.66379 0.0
C1165 C 0.32281 0.99752 0.66462 0.0
C1166 C 0.32932 0.00835 0.6873 0.0
C1167 C 0.33833 0.99767 0.70899 0.0
C1168 C 0.34123 0.9759 0.70722 0.0
H1169 H 0.34245 0.07359 0.89448 0.0
H1170 H 0.30266 0.04111 0.8389 0.0
H1171 H 0.27168 0.05247 0.86413 0.0
H1172 H 0.31657 0.05984 0.95055 0.0
H1173 H 0.31954 0.08422 0.96773 0.0
H1174 H 0.3383 0.07664 0.94321 0.0
H1175 H 0.33196 0.11086 0.91736 0.0
H1176 H 0.31351 0.11884 0.94219 0.0
H1177 H 0.30581 0.11792 0.90799 0.0
H1178 H 0.24565 0.06272 0.89965 0.0
H1179 H 0.22665 0.07382 0.93968 0.0
H1180 H 0.2834 0.10136 0.97036 0.0
C1181 C 0.32718 0.06943 0.88708 0.0
C1182 C 0.32498 0.05653 0.86461 0.0
C1183 C 0.30474 0.05123 0.85579 0.0
C1184 C 0.28705 0.0575 0.87014 0.0
C1185 C 0.28987 0.06937 0.89295 0.0
C1186 C 0.30943 0.0757 0.90098 0.0
C1187 C 0.30847 0.08734 0.92698 0.0
C1188 C 0.32149 0.07635 0.94836 0.0
C1189 C 0.31534 0.1101 0.92341 0.0
C1190 C 0.28543 0.08588 0.93291 0.0
C1191 C 0.27492 0.07552 0.91305 0.0
C1192 C 0.25372 0.07113 0.91508 0.0
C1193 C 0.24306 0.07745 0.93796 0.0
C1194 C 0.25357 0.08797 0.95865 0.0
C1195 C 0.27496 0.09263 0.95559 0.0
H1196 H 0.22099 0.93615 0.87199 0.0
H1197 H 0.16329 0.91524 0.90718 0.0
H1198 H 0.14365 0.94015 0.87911 0.0
H1199 H 0.20556 0.9921 0.86306 0.0
H1200 H 0.21933 0.99379 0.83214 0.0
H1201 H 0.22862 0.97667 0.85776 0.0
H1202 H 0.22745 0.94578 0.82493 0.0
H1203 H 0.21782 0.96265 0.79936 0.0
H1204 H 0.20336 0.93967 0.80837 0.0
H1205 H 0.1303 0.96404 0.84273 0.0
H1206 H 0.12452 0.98651 0.80363 0.0
H1207 H 0.1912 0.9919 0.79274 0.0
C1208 C 0.20429 0.9375 0.87449 0.0
C1209 C 0.19359 0.92431 0.89216 0.0
C1210 C 0.17171 0.92572 0.89428 0.0
C1211 C 0.16048 0.93971 0.87829 0.0
C1212 C 0.17146 0.95217 0.86045 0.0
C1213 C 0.19295 0.95143 0.85884 0.0
C1214 C 0.20102 0.96528 0.83689 0.0
C1215 C 0.21442 0.98302 0.84814 0.0
C1216 C 0.21312 0.95258 0.81617 0.0
C1217 C 0.18073 0.97346 0.82577 0.0
C1218 C 0.16383 0.96581 0.83965 0.0
C1219 C 0.14345 0.97027 0.83195 0.0
C1220 C 0.14029 0.98282 0.80955 0.0
C1221 C 0.15741 0.99069 0.79507 0.0
C1222 C 0.17784 0.98618 0.80359 0.0
H1223 H 0.28266 0.90344 0.03325 0.0
H1224 H 0.22523 0.92378 0.07022 0.0
H1225 H 0.24522 0.93582 0.10907 0.0
H1226 H 0.30957 0.88698 0.09214 0.0
H1227 H 0.33442 0.89674 0.08121 0.0
H1228 H 0.31543 0.88819 0.05738 0.0
H1229 H 0.31704 0.92406 0.034 0.0
H1230 H 0.33625 0.93259 0.05749 0.0
H1231 H 0.31269 0.94741 0.05296 0.0
H1232 H 0.2721 0.94723 0.14325 0.0
H1233 H 0.30326 0.95927 0.16766 0.0
H1234 H 0.34277 0.93281 0.10683 0.0
C1235 C 0.27423 0.91082 0.04915 0.0
C1236 C 0.25235 0.91317 0.04824 0.0
C1237 C 0.242 0.92196 0.07031 0.0
C1238 C 0.25322 0.92881 0.09251 0.0
C1239 C 0.27483 0.92666 0.09247 0.0
C1240 C 0.2852 0.91797 0.07125 0.0
C1241 C 0.30855 0.91843 0.07533 0.0
C1242 C 0.31751 0.89626 0.07659 0.0
C1243 C 0.31926 0.9314 0.05367 0.0
C1244 C 0.30976 0.92908 0.10196 0.0
C1245 C 0.29017 0.93342 0.11179 0.0
C1246 C 0.2875 0.9438 0.13578 0.0
C1247 C 0.30531 0.95047 0.14962 0.0
C1248 C 0.3255 0.94697 0.13925 0.0
C1249 C 0.3276 0.93568 0.11541 0.0
H1250 H 0.31763 0.09228 0.35827 0.0
H1251 H 0.28843 0.05193 0.4161 0.0
H1252 H 0.30034 0.02111 0.39083 0.0
H1253 H 0.30328 0.0646 0.30301 0.0
H1254 H 0.32703 0.06877 0.28484 0.0
H1255 H 0.31884 0.08745 0.30916 0.0
H1256 H 0.35401 0.08368 0.33378 0.0
H1257 H 0.36254 0.06531 0.30918 0.0
H1258 H 0.36288 0.0582 0.3436 0.0
H1259 H 0.3119 0.99489 0.35578 0.0
H1260 H 0.32417 0.97578 0.31633 0.0
H1261 H 0.34676 0.0337 0.28284 0.0
C1262 C 0.31418 0.07696 0.36607 0.0
C1263 C 0.30214 0.07453 0.38926 0.0
C1264 C 0.29784 0.0542 0.3986 0.0
C1265 C 0.30443 0.03661 0.38426 0.0
C1266 C 0.31553 0.03964 0.36084 0.0
C1267 C 0.32068 0.05936 0.35212 0.0
C1268 C 0.33176 0.05864 0.32574 0.0
C1269 C 0.31949 0.07057 0.30445 0.0
C1270 C 0.35413 0.06695 0.32824 0.0
C1271 C 0.33156 0.03546 0.32051 0.0
C1272 C 0.3222 0.02471 0.34095 0.0
C1273 C 0.31944 0.00319 0.33983 0.0
C1274 C 0.32643 0.99247 0.3173 0.0
C1275 C 0.33594 0.00325 0.29605 0.0
C1276 C 0.33885 0.02499 0.2981 0.0
H1277 H 0.15388 0.06403 0.60446 0.0
H1278 H 0.19488 0.04093 0.66593 0.0
H1279 H 0.22532 0.05376 0.64077 0.0
H1280 H 0.18402 0.04956 0.55116 0.0
H1281 H 0.17867 0.07217 0.53122 0.0
H1282 H 0.15997 0.06365 0.55536 0.0
H1283 H 0.16056 0.09994 0.57763 0.0
H1284 H 0.17893 0.10877 0.55318 0.0
H1285 H 0.18508 0.11103 0.58778 0.0
H1286 H 0.25141 0.06527 0.60597 0.0
H1287 H 0.27075 0.07727 0.56666 0.0
H1288 H 0.2124 0.09449 0.52933 0.0
C1289 C 0.16922 0.06212 0.61302 0.0
C1290 C 0.17196 0.0515 0.63726 0.0
C1291 C 0.19234 0.04921 0.64759 0.0
C1292 C 0.20974 0.05634 0.63333 0.0
C1293 C 0.20648 0.06599 0.60898 0.0
C1294 C 0.18667 0.06927 0.59918 0.0
C1295 C 0.18733 0.07928 0.57209 0.0
C1296 C 0.17688 0.06533 0.55124 0.0
C1297 C 0.17739 0.10105 0.57272 0.0
C1298 C 0.21061 0.08056 0.56776 0.0
C1299 C 0.22141 0.07285 0.58923 0.0
C1300 C 0.24308 0.07156 0.5892 0.0
C1301 C 0.25393 0.07839 0.56672 0.0
C1302 C 0.24318 0.08636 0.54443 0.0
C1303 C 0.22121 0.08775 0.54536 0.0
H1304 H 0.80774 0.99036 0.79268 0.0
H1305 H 0.87438 0.98702 0.80512 0.0
H1306 H 0.86882 0.963 0.84276 0.0
H1307 H 0.79235 0.98791 0.86236 0.0
H1308 H 0.76987 0.97197 0.85561 0.0
H1309 H 0.77913 0.99008 0.83109 0.0
H1310 H 0.78213 0.96012 0.79703 0.0
H1311 H 0.77276 0.942 0.82136 0.0
H1312 H 0.7973 0.93739 0.80513 0.0
H1313 H 0.85572 0.93772 0.87792 0.0
H1314 H 0.83637 0.91206 0.90527 0.0
H1315 H 0.77858 0.93183 0.86916 0.0
C1316 C 0.82112 0.98474 0.80356 0.0
C1317 C 0.8415 0.99029 0.79587 0.0
C1318 C 0.85867 0.98255 0.81037 0.0
C1319 C 0.85563 0.96911 0.83196 0.0
C1320 C 0.83531 0.96364 0.83883 0.0
C1321 C 0.81835 0.9712 0.82497 0.0
C1322 C 0.79819 0.96199 0.83517 0.0
C1323 C 0.78405 0.979 0.84675 0.0
C1324 C 0.78694 0.94964 0.81338 0.0
C1325 C 0.80643 0.94775 0.8566 0.0
C1326 C 0.82784 0.94912 0.85877 0.0
C1327 C 0.83893 0.93674 0.87659 0.0
C1328 C 0.82787 0.92231 0.89215 0.0
C1329 C 0.80605 0.9204 0.88959 0.0
C1330 C 0.79525 0.93342 0.87184 0.0
H1331 H 0.78203 0.09727 0.53429 0.0
H1332 H 0.72469 0.07391 0.56856 0.0
H1333 H 0.74429 0.06214 0.60787 0.0
H1334 H 0.81314 0.05408 0.55367 0.0
H1335 H 0.83609 0.06958 0.5594 0.0
H1336 H 0.81705 0.07793 0.53559 0.0
H1337 H 0.81378 0.11324 0.56002 0.0
H1338 H 0.83259 0.10484 0.58417 0.0
H1339 H 0.80722 0.11354 0.59461 0.0
H1340 H 0.77084 0.05126 0.64274 0.0
H1341 H 0.8019 0.03962 0.66767 0.0
H1342 H 0.84171 0.06824 0.60877 0.0
C1343 C 0.77354 0.08928 0.54967 0.0
C1344 C 0.75181 0.086 0.54783 0.0
C1345 C 0.74135 0.07646 0.56932 0.0
C1346 C 0.75235 0.06976 0.59179 0.0
C1347 C 0.77385 0.07278 0.59261 0.0
C1348 C 0.78432 0.0822 0.57198 0.0
C1349 C 0.80759 0.08243 0.5768 0.0
C1350 C 0.81914 0.07028 0.55508 0.0
C1351 C 0.81577 0.10485 0.57903 0.0
C1352 C 0.80867 0.07128 0.60312 0.0
C1353 C 0.78904 0.06619 0.61224 0.0
C1354 C 0.78627 0.05529 0.63583 0.0
C1355 C 0.80401 0.04885 0.64998 0.0
C1356 C 0.82427 0.05305 0.64027 0.0
C1357 C 0.82647 0.06486 0.61684 0.0
H1358 H 0.69228 0.09312 0.3502 0.0
H1359 H 0.69473 0.05689 0.42249 0.0
H1360 H 0.67973 0.02672 0.39855 0.0
H1361 H 0.64437 0.07099 0.32314 0.0
H1362 H 0.65426 0.07158 0.28986 0.0
H1363 H 0.66286 0.09069 0.3135 0.0
H1364 H 0.70123 0.08031 0.30465 0.0
H1365 H 0.69278 0.06118 0.28106 0.0
H1366 H 0.709 0.05351 0.30842 0.0
H1367 H 0.66699 0.99952 0.36491 0.0
H1368 H 0.65749 0.97853 0.3257 0.0
H1369 H 0.66559 0.03297 0.27612 0.0
C1370 C 0.68933 0.07902 0.36132 0.0
C1371 C 0.69461 0.07751 0.3884 0.0
C1372 C 0.69067 0.05856 0.40185 0.0
C1373 C 0.68219 0.04132 0.38837 0.0
C1374 C 0.67772 0.04329 0.36147 0.0
C1375 C 0.68112 0.06176 0.34821 0.0
C1376 C 0.67645 0.05971 0.31903 0.0
C1377 C 0.65841 0.0741 0.31092 0.0
C1378 C 0.69603 0.06392 0.30232 0.0
C1379 C 0.67009 0.03709 0.31771 0.0
C1380 C 0.67072 0.02784 0.34235 0.0
C1381 C 0.66621 0.00675 0.34563 0.0
C1382 C 0.66089 0.99493 0.32322 0.0
C1383 C 0.66011 0.00417 0.29781 0.0
C1384 C 0.66497 0.02552 0.29522 0.0
H1385 H 0.71758 0.89955 0.03463 0.0
H1386 H 0.77463 0.92474 0.06762 0.0
H1387 H 0.75531 0.93565 0.10747 0.0
H1388 H 0.68557 0.94185 0.05492 0.0
H1389 H 0.66313 0.92571 0.06107 0.0
H1390 H 0.68205 0.91794 0.03682 0.0
H1391 H 0.68656 0.88267 0.06104 0.0
H1392 H 0.6679 0.89052 0.08566 0.0
H1393 H 0.69364 0.88245 0.09548 0.0
H1394 H 0.72913 0.9455 0.14299 0.0
H1395 H 0.69819 0.95665 0.16843 0.0
H1396 H 0.65819 0.92718 0.11042 0.0
C1397 C 0.72604 0.90779 0.04983 0.0
C1398 C 0.74762 0.9118 0.04748 0.0
C1399 C 0.75808 0.92162 0.06876 0.0
C1400 C 0.74724 0.92782 0.09155 0.0
C1401 C 0.72589 0.92406 0.0929 0.0
C1402 C 0.71539 0.91443 0.07246 0.0
C1403 C 0.6922 0.91359 0.0778 0.0
C1404 C 0.68003 0.92549 0.05639 0.0
C1405 C 0.68464 0.89096 0.08014 0.0
C1406 C 0.69122 0.92463 0.1042 0.0
C1407 C 0.71084 0.93016 0.11291 0.0
C1408 C 0.71371 0.94113 0.13642 0.0
C1409 C 0.69603 0.94727 0.15088 0.0
C1410 C 0.67574 0.94273 0.14151 0.0
C1411 C 0.67347 0.93077 0.11823 0.0
H1412 H 0.78205 0.06331 0.13222 0.0
H1413 H 0.83978 0.09281 0.10907 0.0
H1414 H 0.85944 0.06824 0.1375 0.0
H1415 H 0.79414 0.05827 0.19774 0.0
H1416 H 0.78167 0.03347 0.20294 0.0
H1417 H 0.77255 0.0505 0.17724 0.0
H1418 H 0.77783 0.0214 0.14249 0.0
H1419 H 0.78666 0.0041 0.16818 0.0
H1420 H 0.80283 0.00883 0.13972 0.0
H1421 H 0.87215 0.0433 0.17267 0.0
H1422 H 0.87702 0.01961 0.21076 0.0
H1423 H 0.81072 0.00718 0.21198 0.0
C1424 C 0.79891 0.06389 0.13228 0.0
C1425 C 0.80958 0.07935 0.11783 0.0
C1426 C 0.83151 0.08055 0.11935 0.0
C1427 C 0.84273 0.06675 0.13556 0.0
C1428 C 0.83171 0.05197 0.15019 0.0
C1429 C 0.81027 0.05033 0.14848 0.0
C1430 C 0.80191 0.03458 0.16812 0.0
C1431 C 0.78668 0.04483 0.18766 0.0
C1432 C 0.79171 0.01613 0.15377 0.0
C1433 C 0.82188 0.02804 0.18172 0.0
C1434 C 0.83893 0.03808 0.17094 0.0
C1435 C 0.85891 0.03529 0.18113 0.0
C1436 C 0.8615 0.02203 0.20296 0.0
C1437 C 0.84419 0.01196 0.2146 0.0
C1438 C 0.82422 0.01472 0.20345 0.0
H1439 H 0.65953 0.07029 0.90028 0.0
H1440 H 0.6995 0.04189 0.84138 0.0
H1441 H 0.73049 0.05356 0.86647 0.0
H1442 H 0.69378 0.11545 0.91539 0.0
H1443 H 0.68695 0.11469 0.94989 0.0
H1444 H 0.66837 0.10647 0.92536 0.0
H1445 H 0.66479 0.07102 0.94934 0.0
H1446 H 0.68368 0.0789 0.97357 0.0
H1447 H 0.68768 0.05537 0.95489 0.0
H1448 H 0.75696 0.06463 0.90139 0.0
H1449 H 0.77642 0.07633 0.94084 0.0
H1450 H 0.71881 0.09854 0.97557 0.0
C1451 C 0.67479 0.06698 0.89221 0.0
C1452 C 0.67706 0.05522 0.86875 0.0
C1453 C 0.69734 0.0511 0.85908 0.0
C1454 C 0.71503 0.05756 0.87332 0.0
C1455 C 0.71218 0.06835 0.89698 0.0
C1456 C 0.69252 0.07337 0.90605 0.0
C1457 C 0.69347 0.08412 0.93265 0.0
C1458 C 0.68516 0.10652 0.93069 0.0
C1459 C 0.68171 0.0716 0.95385 0.0
C1460 C 0.7167 0.08386 0.93759 0.0
C1461 C 0.72728 0.07476 0.91681 0.0
C1462 C 0.7488 0.07197 0.91759 0.0
C1463 C 0.75972 0.07863 0.94014 0.0
C1464 C 0.74915 0.08786 0.96174 0.0
C1465 C 0.72738 0.09082 0.96002 0.0
H1466 H 0.65705 0.96525 0.72862 0.0
H1467 H 0.67528 0.02282 0.69019 0.0
H1468 H 0.68732 0.00275 0.65145 0.0
H1469 H 0.7016 0.93602 0.70801 0.0
H1470 H 0.68723 0.9121 0.70423 0.0
H1471 H 0.67874 0.93128 0.72776 0.0
H1472 H 0.64238 0.93191 0.70555 0.0
H1473 H 0.65089 0.91294 0.68168 0.0
H1474 H 0.64035 0.93749 0.67077 0.0
H1475 H 0.69861 0.97591 0.61725 0.0
H1476 H 0.71046 0.94487 0.59251 0.0
H1477 H 0.68636 0.90516 0.65474 0.0
C1478 C 0.66402 0.97373 0.71245 0.0
C1479 C 0.66571 0.99569 0.71292 0.0
C1480 C 0.67395 0.00601 0.69048 0.0
C1481 C 0.68081 0.99474 0.66833 0.0
C1482 C 0.67927 0.97309 0.66878 0.0
C1483 C 0.67119 0.96271 0.69037 0.0
C1484 C 0.6721 0.93934 0.68654 0.0
C1485 C 0.68573 0.92909 0.70789 0.0
C1486 C 0.65012 0.92987 0.68611 0.0
C1487 C 0.68225 0.93815 0.65958 0.0
C1488 C 0.68598 0.95776 0.64943 0.0
C1489 C 0.69568 0.96048 0.625 0.0
C1490 C 0.70225 0.94274 0.61098 0.0
C1491 C 0.69934 0.92252 0.62157 0.0
C1492 C 0.68879 0.92035 0.64597 0.0
H1493 H 0.78598 0.90334 0.47697 0.0
H1494 H 0.7283 0.9265 0.44333 0.0
H1495 H 0.7476 0.93861 0.404 0.0
H1496 H 0.81681 0.94693 0.45736 0.0
H1497 H 0.83978 0.93152 0.45137 0.0
H1498 H 0.82096 0.9231 0.47541 0.0
H1499 H 0.81767 0.88776 0.45104 0.0
H1500 H 0.83624 0.89625 0.42664 0.0
H1501 H 0.81082 0.88742 0.41653 0.0
H1502 H 0.77378 0.9496 0.36888 0.0
H1503 H 0.80457 0.96126 0.34346 0.0
H1504 H 0.84499 0.93272 0.4018 0.0
C1505 C 0.77736 0.91139 0.46176 0.0
C1506 C 0.7556 0.91446 0.46376 0.0
C1507 C 0.74498 0.9241 0.44245 0.0
C1508 C 0.75581 0.93099 0.41997 0.0
C1509 C 0.77731 0.92811 0.41895 0.0
C1510 C 0.78796 0.91868 0.43942 0.0
C1511 C 0.8112 0.91855 0.43432 0.0
C1512 C 0.82287 0.93075 0.45589 0.0
C1513 C 0.81946 0.89616 0.43199 0.0
C1514 C 0.81202 0.92969 0.40797 0.0
C1515 C 0.79231 0.93475 0.39914 0.0
C1516 C 0.78928 0.94562 0.37557 0.0
C1517 C 0.80687 0.95206 0.36114 0.0
C1518 C 0.82722 0.94789 0.37054 0.0
C1519 C 0.82967 0.9361 0.39395 0.0
H1520 H 0.69227 0.50743 0.71716 0.0
H1521 H 0.62549 0.51417 0.70881 0.0
H1522 H 0.63081 0.53793 0.67086 0.0
H1523 H 0.70499 0.55988 0.70378 0.0
H1524 H 0.72859 0.55394 0.68604 0.0
H1525 H 0.71924 0.53637 0.71103 0.0
H1526 H 0.71933 0.50627 0.67694 0.0
H1527 H 0.7285 0.52386 0.65178 0.0
H1528 H 0.70499 0.50911 0.64656 0.0
H1529 H 0.64374 0.56273 0.63524 0.0
H1530 H 0.66322 0.58765 0.60697 0.0
H1531 H 0.72133 0.56455 0.63879 0.0
C1532 C 0.67879 0.51378 0.70712 0.0
C1533 C 0.65848 0.50928 0.71609 0.0
C1534 C 0.64119 0.51787 0.70261 0.0
C1535 C 0.64407 0.53117 0.68086 0.0
C1536 C 0.66436 0.5356 0.67272 0.0
C1537 C 0.68142 0.52717 0.68552 0.0
C1538 C 0.7016 0.53531 0.67398 0.0
C1539 C 0.71434 0.54708 0.69495 0.0
C1540 C 0.71435 0.51758 0.66158 0.0
C1541 C 0.69327 0.54994 0.65302 0.0
C1542 C 0.67174 0.54971 0.6523 0.0
C1543 C 0.66059 0.56279 0.63537 0.0
C1544 C 0.67171 0.57678 0.61927 0.0
C1545 C 0.69368 0.57751 0.62031 0.0
C1546 C 0.70453 0.56377 0.63714 0.0
H1547 H 0.68802 0.46856 0.88172 0.0
H1548 H 0.65604 0.41095 0.86401 0.0
H1549 H 0.68086 0.3917 0.89252 0.0
H1550 H 0.74197 0.44657 0.88824 0.0
H1551 H 0.74798 0.4636 0.91546 0.0
H1552 H 0.73016 0.47199 0.89011 0.0
H1553 H 0.70226 0.47934 0.92582 0.0
H1554 H 0.71982 0.4707 0.95122 0.0
H1555 H 0.69456 0.45875 0.94796 0.0
H1556 H 0.70679 0.37951 0.92671 0.0
H1557 H 0.73167 0.37525 0.96363 0.0
H1558 H 0.74567 0.4412 0.96073 0.0
C1559 C 0.68691 0.45176 0.88299 0.0
C1560 C 0.6707 0.44102 0.87001 0.0
C1561 C 0.66884 0.41924 0.87316 0.0
C1562 C 0.68278 0.40826 0.88941 0.0
C1563 C 0.69835 0.41937 0.90254 0.0
C1564 C 0.70056 0.44065 0.89937 0.0
C1565 C 0.71712 0.44925 0.91774 0.0
C1566 C 0.73539 0.45839 0.90194 0.0
C1567 C 0.70788 0.46546 0.9368 0.0
C1568 C 0.72353 0.42961 0.93222 0.0
C1569 C 0.71269 0.41251 0.92296 0.0
C1570 C 0.71536 0.3928 0.93405 0.0
C1571 C 0.72931 0.39058 0.95523 0.0
C1572 C 0.74015 0.40799 0.96543 0.0
C1573 C 0.73751 0.42764 0.95336 0.0
H1574 H 0.81085 0.49449 0.21543 0.0
H1575 H 0.87766 0.48678 0.2086 0.0
H1576 H 0.87256 0.46347 0.17032 0.0
H1577 H 0.79712 0.44291 0.20073 0.0
H1578 H 0.77409 0.44955 0.18221 0.0
H1579 H 0.78332 0.46673 0.20767 0.0
H1580 H 0.78477 0.497 0.17387 0.0
H1581 H 0.77572 0.4798 0.14821 0.0
H1582 H 0.79971 0.49397 0.14399 0.0
H1583 H 0.8598 0.43857 0.13486 0.0
H1584 H 0.84038 0.41366 0.10658 0.0
H1585 H 0.78215 0.43864 0.13557 0.0
C1586 C 0.82441 0.48808 0.20566 0.0
C1587 C 0.84464 0.49201 0.21542 0.0
C1588 C 0.86199 0.48333 0.20215 0.0
C1589 C 0.85924 0.47035 0.18008 0.0
C1590 C 0.83904 0.46641 0.17127 0.0
C1591 C 0.82192 0.4751 0.18363 0.0
C1592 C 0.80181 0.46753 0.17128 0.0
C1593 C 0.7883 0.45599 0.19168 0.0
C1594 C 0.7898 0.48566 0.15858 0.0
C1595 C 0.81023 0.45281 0.15049 0.0
C1596 C 0.83176 0.45255 0.15051 0.0
C1597 C 0.84296 0.43898 0.13428 0.0
C1598 C 0.83187 0.42501 0.11815 0.0
C1599 C 0.80987 0.42482 0.11834 0.0
C1600 C 0.79899 0.43909 0.13439 0.0
H1601 H 0.78502 0.58318 0.48565 0.0
H1602 H 0.73118 0.59155 0.43513 0.0
H1603 H 0.75255 0.58201 0.39627 0.0
H1604 H 0.82376 0.60401 0.43948 0.0
H1605 H 0.84317 0.58533 0.44948 0.0
H1606 H 0.82377 0.59398 0.47272 0.0
H1607 H 0.81293 0.55568 0.48113 0.0
H1608 H 0.83221 0.54693 0.4579 0.0
H1609 H 0.80534 0.53957 0.45362 0.0
H1610 H 0.78 0.56955 0.36303 0.0
H1611 H 0.81034 0.55469 0.33934 0.0
H1612 H 0.84586 0.55611 0.41224 0.0
C1613 C 0.77781 0.58379 0.46639 0.0
C1614 C 0.7565 0.58876 0.46343 0.0
C1615 C 0.74753 0.58805 0.43787 0.0
C1616 C 0.75957 0.58272 0.41566 0.0
C1617 C 0.7806 0.57808 0.4193 0.0
C1618 C 0.7896 0.57861 0.44409 0.0
C1619 C 0.8122 0.572 0.44309 0.0
C1620 C 0.82657 0.5899 0.4517 0.0
C1621 C 0.81587 0.55238 0.45992 0.0
C1622 C 0.8145 0.56741 0.41393 0.0
C1623 C 0.79619 0.57104 0.40041 0.0
C1624 C 0.79448 0.56687 0.37342 0.0
C1625 C 0.81181 0.55846 0.36009 0.0
C1626 C 0.83062 0.5543 0.37377 0.0
C1627 C 0.83188 0.55924 0.40097 0.0
H1628 H 0.65354 0.46872 0.28252 0.0
H1629 H 0.67238 0.52599 0.32112 0.0
H1630 H 0.68428 0.50567 0.3598 0.0
H1631 H 0.63688 0.44068 0.34047 0.0
H1632 H 0.64724 0.41617 0.32915 0.0
H1633 H 0.63859 0.43535 0.3056 0.0
H1634 H 0.67476 0.43473 0.2829 0.0
H1635 H 0.68339 0.41536 0.30611 0.0
H1636 H 0.69781 0.43925 0.3024 0.0
H1637 H 0.69578 0.4785 0.3936 0.0
H1638 H 0.70804 0.44725 0.41759 0.0
H1639 H 0.68315 0.4081 0.35532 0.0
C1640 C 0.66057 0.47707 0.29875 0.0
C1641 C 0.66256 0.499 0.29833 0.0
C1642 C 0.67086 0.5092 0.32081 0.0
C1643 C 0.67763 0.49778 0.34291 0.0
C1644 C 0.67588 0.47614 0.34235 0.0
C1645 C 0.66764 0.46592 0.32074 0.0
C1646 C 0.6685 0.44253 0.3243 0.0
C1647 C 0.64649 0.43313 0.32492 0.0
C1648 C 0.68192 0.43238 0.30265 0.0
C1649 C 0.67887 0.44112 0.35109 0.0
C1650 C 0.68271 0.46064 0.36145 0.0
C1651 C 0.69273 0.46315 0.3857 0.0
C1652 C 0.69954 0.44528 0.39929 0.0
C1653 C 0.69654 0.42517 0.38843 0.0
C1654 C 0.68562 0.4232 0.36429 0.0
H1655 H 0.84483 0.43153 0.60575 0.0
H1656 H 0.80512 0.45783 0.66649 0.0
H1657 H 0.77403 0.44662 0.64143 0.0
H1658 H 0.81569 0.44683 0.55185 0.0
H1659 H 0.81967 0.42357 0.53262 0.0
H1660 H 0.83882 0.43136 0.55659 0.0
H1661 H 0.83593 0.39557 0.5799 0.0
H1662 H 0.81707 0.38747 0.55563 0.0
H1663 H 0.81075 0.38622 0.59027 0.0
H1664 H 0.74735 0.43644 0.60668 0.0
H1665 H 0.72742 0.42532 0.56739 0.0
H1666 H 0.78463 0.40348 0.53118 0.0
C1667 C 0.82961 0.43449 0.61415 0.0
C1668 C 0.82745 0.44554 0.63816 0.0
C1669 C 0.80722 0.4492 0.64832 0.0
C1670 C 0.78945 0.443 0.63412 0.0
C1671 C 0.79216 0.43282 0.61003 0.0
C1672 C 0.81176 0.42819 0.60042 0.0
C1673 C 0.81051 0.41775 0.57364 0.0
C1674 C 0.82184 0.43065 0.55244 0.0
C1675 C 0.81907 0.39542 0.57495 0.0
C1676 C 0.78719 0.41785 0.56924 0.0
C1677 C 0.77685 0.42659 0.59042 0.0
C1678 C 0.75531 0.42934 0.59016 0.0
C1679 C 0.74412 0.423 0.5677 0.0
C1680 C 0.75442 0.41405 0.54569 0.0
C1681 C 0.77622 0.41106 0.54695 0.0
H1682 H 0.83496 0.53434 0.77427 0.0
H1683 H 0.84324 0.47954 0.82313 0.0
H1684 H 0.83409 0.50023 0.86271 0.0
H1685 H 0.85611 0.57219 0.82149 0.0
H1686 H 0.83742 0.59182 0.81224 0.0
H1687 H 0.84593 0.57287 0.78834 0.0
H1688 H 0.80759 0.56224 0.77985 0.0
H1689 H 0.79896 0.58108 0.80371 0.0
H1690 H 0.79157 0.55416 0.80722 0.0
H1691 H 0.82191 0.52703 0.89682 0.0
H1692 H 0.80696 0.55683 0.92147 0.0
H1693 H 0.80817 0.59376 0.84969 0.0
C1694 C 0.83561 0.52679 0.79332 0.0
C1695 C 0.84044 0.50541 0.79563 0.0
C1696 C 0.83985 0.49597 0.82091 0.0
C1697 C 0.83474 0.50761 0.84352 0.0
C1698 C 0.83021 0.52872 0.84055 0.0
C1699 C 0.83063 0.53818 0.81602 0.0
C1700 C 0.82406 0.56076 0.81775 0.0
C1701 C 0.84195 0.57526 0.80947 0.0
C1702 C 0.80438 0.56478 0.80116 0.0
C1703 C 0.81959 0.5625 0.84701 0.0
C1704 C 0.82329 0.54395 0.85995 0.0
C1705 C 0.81919 0.5417 0.88689 0.0
C1706 C 0.81075 0.55873 0.90078 0.0
C1707 C 0.80645 0.57776 0.88768 0.0
C1708 C 0.81139 0.57959 0.86053 0.0
H1709 H 0.6855 0.52925 0.12079 0.0
H1710 H 0.66797 0.58743 0.15765 0.0
H1711 H 0.69432 0.606 0.13047 0.0
H1712 H 0.74222 0.54107 0.11341 0.0
H1713 H 0.74346 0.52787 0.08206 0.0
H1714 H 0.72535 0.51922 0.10693 0.0
H1715 H 0.69511 0.52318 0.07351 0.0
H1716 H 0.71298 0.53214 0.04866 0.0
H1717 H 0.6909 0.54795 0.05761 0.0
H1718 H 0.71961 0.61846 0.09497 0.0
H1719 H 0.74306 0.62347 0.05665 0.0
H1720 H 0.74409 0.55683 0.04362 0.0
C1721 C 0.68781 0.5458 0.12377 0.0
C1722 C 0.67518 0.55694 0.14164 0.0
C1723 C 0.67795 0.57864 0.14451 0.0
C1724 C 0.69277 0.58926 0.12904 0.0
C1725 C 0.70468 0.57786 0.11101 0.0
C1726 C 0.70256 0.55652 0.10867 0.0
C1727 C 0.71617 0.54796 0.08678 0.0
C1728 C 0.73279 0.53316 0.09797 0.0
C1729 C 0.703 0.53718 0.06538 0.0
C1730 C 0.72587 0.56787 0.07655 0.0
C1731 C 0.71913 0.58496 0.09079 0.0
C1732 C 0.7251 0.60514 0.08389 0.0
C1733 C 0.73822 0.60787 0.06192 0.0
C1734 C 0.74515 0.59055 0.04707 0.0
C1735 C 0.73912 0.57032 0.05479 0.0
H1736 H 0.34685 0.46821 0.27908 0.0
H1737 H 0.32334 0.5253 0.31381 0.0
H1738 H 0.31215 0.50561 0.35329 0.0
H1739 H 0.30447 0.43625 0.29991 0.0
H1740 H 0.32058 0.41369 0.30541 0.0
H1741 H 0.32808 0.43275 0.28118 0.0
H1742 H 0.36375 0.43691 0.30457 0.0
H1743 H 0.35618 0.4181 0.32915 0.0
H1744 H 0.36452 0.44372 0.33908 0.0
H1745 H 0.302 0.47901 0.38842 0.0
H1746 H 0.29143 0.44785 0.41392 0.0
H1747 H 0.32046 0.40839 0.35494 0.0
C1748 C 0.33894 0.4766 0.29461 0.0
C1749 C 0.33549 0.49831 0.29289 0.0
C1750 C 0.32602 0.50866 0.3145 0.0
C1751 C 0.31965 0.49761 0.33707 0.0
C1752 C 0.32296 0.47617 0.33788 0.0
C1753 C 0.33229 0.46579 0.31711 0.0
C1754 C 0.3331 0.44256 0.32216 0.0
C1755 C 0.32082 0.43062 0.30091 0.0
C1756 C 0.35574 0.43488 0.32384 0.0
C1757 C 0.32245 0.44142 0.34881 0.0
C1758 C 0.31699 0.46097 0.35782 0.0
C1759 C 0.30633 0.46364 0.38161 0.0
C1760 C 0.30052 0.44584 0.39609 0.0
C1761 C 0.30515 0.42563 0.38656 0.0
C1762 C 0.31675 0.42359 0.36293 0.0
H1763 H 0.33992 0.55819 0.09601 0.0
H1764 H 0.30523 0.55661 0.16953 0.0
H1765 H 0.27437 0.57083 0.14615 0.0
H1766 H 0.31712 0.60527 0.06851 0.0
H1767 H 0.31701 0.59489 0.03545 0.0
H1768 H 0.33661 0.58662 0.05865 0.0
H1769 H 0.32603 0.54814 0.05109 0.0
H1770 H 0.30642 0.55627 0.02792 0.0
H1771 H 0.2993 0.54046 0.0559 0.0
H1772 H 0.24648 0.58323 0.11308 0.0
H1773 H 0.2248 0.59259 0.0744 0.0
H1774 H 0.27822 0.58374 0.02329 0.0
C1775 C 0.32602 0.56115 0.10751 0.0
C1776 C 0.32515 0.5564 0.1348 0.0
C1777 C 0.3064 0.56026 0.14872 0.0
C1778 C 0.28878 0.56831 0.13556 0.0
C1779 C 0.29016 0.57236 0.10849 0.0
C1780 C 0.30839 0.5689 0.09473 0.0
C1781 C 0.30574 0.57315 0.06553 0.0
C1782 C 0.31997 0.59105 0.05651 0.0
C1783 C 0.30959 0.55333 0.04916 0.0
C1784 C 0.28309 0.5795 0.0648 0.0
C1785 C 0.27432 0.57911 0.08972 0.0
C1786 C 0.25333 0.58378 0.09358 0.0
C1787 C 0.24112 0.58902 0.07146 0.0
C1788 C 0.24988 0.58957 0.04577 0.0
C1789 C 0.27114 0.58452 0.0426 0.0
H1790 H 0.21348 0.56121 0.87636 0.0
H1791 H 0.15446 0.58802 0.89948 0.0
H1792 H 0.13601 0.56309 0.87024 0.0
H1793 H 0.20219 0.55698 0.81077 0.0
H1794 H 0.21569 0.53282 0.80494 0.0
H1795 H 0.22392 0.54964 0.83131 0.0
H1796 H 0.21951 0.51968 0.86505 0.0
H1797 H 0.21162 0.50256 0.83868 0.0
H1798 H 0.19503 0.50603 0.86703 0.0
H1799 H 0.12461 0.53816 0.83426 0.0
H1800 H 0.12107 0.51504 0.79542 0.0
H1801 H 0.18786 0.5056 0.79461 0.0
C1802 C 0.19661 0.56109 0.87615 0.0
C1803 C 0.18523 0.5759 0.89081 0.0
C1804 C 0.16328 0.57624 0.88906 0.0
C1805 C 0.15275 0.56223 0.87239 0.0
C1806 C 0.16448 0.54815 0.85753 0.0
C1807 C 0.18595 0.54735 0.85948 0.0
C1808 C 0.19513 0.53238 0.83948 0.0
C1809 C 0.21011 0.54364 0.82051 0.0
C1810 C 0.20596 0.51407 0.8534 0.0
C1811 C 0.17556 0.52531 0.82538 0.0
C1812 C 0.15802 0.53439 0.83625 0.0
C1813 C 0.13825 0.53094 0.82571 0.0
C1814 C 0.13641 0.51802 0.80344 0.0
C1815 C 0.15424 0.50898 0.79168 0.0
C1816 C 0.17398 0.51237 0.80319 0.0
H1817 H 0.15405 0.43366 0.6009 0.0
H1818 H 0.19385 0.45719 0.66339 0.0
H1819 H 0.22486 0.44594 0.6382 0.0
H1820 H 0.18681 0.38813 0.58367 0.0
H1821 H 0.18093 0.39057 0.54902 0.0
H1822 H 0.16208 0.3986 0.57331 0.0
H1823 H 0.16064 0.43511 0.55165 0.0
H1824 H 0.17979 0.42737 0.52766 0.0
H1825 H 0.18431 0.44992 0.54802 0.0
H1826 H 0.25159 0.43555 0.60369 0.0
H1827 H 0.27171 0.42421 0.56471 0.0
H1828 H 0.21426 0.40581 0.52606 0.0
C1829 C 0.16926 0.43605 0.60963 0.0
C1830 C 0.17146 0.4463 0.63423 0.0
C1831 C 0.19169 0.4492 0.64477 0.0
C1832 C 0.20942 0.44297 0.6305 0.0
C1833 C 0.20667 0.43361 0.60588 0.0
C1834 C 0.18706 0.4298 0.59578 0.0
C1835 C 0.18828 0.42009 0.56853 0.0
C1836 C 0.17898 0.39803 0.56865 0.0
C1837 C 0.17762 0.43395 0.54775 0.0
C1838 C 0.21165 0.41953 0.56453 0.0
C1839 C 0.222 0.42739 0.58627 0.0
C1840 C 0.24362 0.42919 0.58669 0.0
C1841 C 0.25491 0.42272 0.56439 0.0
C1842 C 0.24465 0.41458 0.54184 0.0
C1843 C 0.2227 0.41271 0.54229 0.0
H1844 H 0.33264 0.53528 0.73533 0.0
H1845 H 0.34212 0.48122 0.68554 0.0
H1846 H 0.33244 0.50214 0.64634 0.0
H1847 H 0.28889 0.55474 0.70275 0.0
H1848 H 0.29587 0.58174 0.70672 0.0
H1849 H 0.3048 0.56277 0.73026 0.0
H1850 H 0.34296 0.5741 0.72195 0.0
H1851 H 0.33413 0.59317 0.69838 0.0
H1852 H 0.35313 0.57396 0.68878 0.0
H1853 H 0.31976 0.52911 0.61266 0.0
H1854 H 0.30445 0.55898 0.58848 0.0
H1855 H 0.30492 0.59508 0.66094 0.0
C1856 C 0.33345 0.52794 0.71617 0.0
C1857 C 0.33877 0.50671 0.7135 0.0
C1858 C 0.33834 0.49753 0.68805 0.0
C1859 C 0.33294 0.50931 0.66566 0.0
C1860 C 0.32796 0.53029 0.66899 0.0
C1861 C 0.32821 0.53948 0.69368 0.0
C1862 C 0.32127 0.56196 0.69233 0.0
C1863 C 0.30154 0.5655 0.709 0.0
C1864 C 0.33893 0.57666 0.70086 0.0
C1865 C 0.31677 0.56395 0.66311 0.0
C1866 C 0.32078 0.54561 0.64985 0.0
C1867 C 0.31678 0.54362 0.62285 0.0
C1868 C 0.30812 0.56069 0.60923 0.0
C1869 C 0.30353 0.5795 0.62265 0.0
C1870 C 0.30835 0.58107 0.64986 0.0
H1871 H 0.2412 0.55827 0.46984 0.0
H1872 H 0.24364 0.62391 0.45064 0.0
H1873 H 0.2206 0.61777 0.41207 0.0
H1874 H 0.23928 0.53814 0.40231 0.0
H1875 H 0.22112 0.51779 0.41067 0.0
H1876 H 0.23926 0.52717 0.43507 0.0
H1877 H 0.20868 0.53535 0.46681 0.0
H1878 H 0.19052 0.52588 0.4426 0.0
H1879 H 0.18773 0.55184 0.45566 0.0
H1880 H 0.1962 0.60412 0.37593 0.0
H1881 H 0.17024 0.58493 0.34874 0.0
H1882 H 0.18267 0.52894 0.39365 0.0
C1883 C 0.23708 0.57127 0.45726 0.0
C1884 C 0.24415 0.59154 0.46305 0.0
C1885 C 0.2382 0.60828 0.44653 0.0
C1886 C 0.22528 0.6049 0.42451 0.0
C1887 C 0.21836 0.58469 0.41942 0.0
C1888 C 0.22394 0.5682 0.43553 0.0
C1889 C 0.21321 0.54829 0.42715 0.0
C1890 C 0.22917 0.53188 0.41827 0.0
C1891 C 0.1992 0.53986 0.44938 0.0
C1892 C 0.20048 0.55614 0.40405 0.0
C1893 C 0.20391 0.57708 0.39947 0.0
C1894 C 0.1935 0.5877 0.37929 0.0
C1895 C 0.1789 0.57672 0.36386 0.0
C1896 C 0.17472 0.55552 0.36907 0.0
C1897 C 0.18582 0.54514 0.38918 0.0
H1898 H 0.16696 0.46753 0.23274 0.0
H1899 H 0.15971 0.52147 0.18213 0.0
H1900 H 0.16926 0.49994 0.14339 0.0
H1901 H 0.21051 0.44667 0.20147 0.0
H1902 H 0.20279 0.4199 0.20568 0.0
H1903 H 0.19404 0.43931 0.22873 0.0
H1904 H 0.1557 0.42891 0.21973 0.0
H1905 H 0.16435 0.4094 0.19665 0.0
H1906 H 0.14599 0.42901 0.18634 0.0
H1907 H 0.18168 0.47229 0.11038 0.0
H1908 H 0.19661 0.44184 0.08704 0.0
H1909 H 0.19407 0.40639 0.15995 0.0
C1910 C 0.16656 0.47474 0.21349 0.0
C1911 C 0.1619 0.4961 0.21045 0.0
C1912 C 0.16294 0.50506 0.18491 0.0
C1913 C 0.16828 0.49293 0.16278 0.0
C1914 C 0.17258 0.47184 0.16649 0.0
C1915 C 0.17174 0.46287 0.19128 0.0
C1916 C 0.1781 0.4402 0.19044 0.0
C1917 C 0.19751 0.43631 0.20759 0.0
C1918 C 0.15995 0.42604 0.19878 0.0
C1919 C 0.18295 0.43782 0.16136 0.0
C1920 C 0.17962 0.45615 0.14775 0.0
C1921 C 0.18411 0.4578 0.12084 0.0
C1922 C 0.19255 0.4404 0.1077 0.0
C1923 C 0.19645 0.42159 0.1215 0.0
C1924 C 0.19115 0.42037 0.14859 0.0
H1925 H 0.28586 0.41585 0.98475 0.0
H1926 H 0.23154 0.40726 0.93513 0.0
H1927 H 0.25254 0.41662 0.89586 0.0
H1928 H 0.30569 0.4594 0.95221 0.0
H1929 H 0.33264 0.45218 0.95611 0.0
H1930 H 0.31362 0.44339 0.97966 0.0
H1931 H 0.32461 0.40514 0.97122 0.0
H1932 H 0.34371 0.41385 0.94763 0.0
H1933 H 0.32431 0.39503 0.93803 0.0
H1934 H 0.27957 0.429 0.86217 0.0
H1935 H 0.30943 0.44428 0.83801 0.0
H1936 H 0.34577 0.44329 0.91027 0.0
C1937 C 0.27848 0.41516 0.9656 0.0
C1938 C 0.25715 0.41018 0.96299 0.0
C1939 C 0.24792 0.41077 0.93758 0.0
C1940 C 0.25975 0.41598 0.91515 0.0
C1941 C 0.28081 0.42063 0.91843 0.0
C1942 C 0.29005 0.42024 0.94308 0.0
C1943 C 0.3126 0.42698 0.9417 0.0
C1944 C 0.31634 0.44666 0.9584 0.0
C1945 C 0.32717 0.40919 0.95014 0.0
C1946 C 0.31459 0.43152 0.91248 0.0
C1947 C 0.29618 0.42769 0.89927 0.0
C1948 C 0.29413 0.43183 0.87231 0.0
C1949 C 0.3112 0.44046 0.8587 0.0
C1950 C 0.33007 0.44493 0.87208 0.0
C1951 C 0.33173 0.43993 0.89923 0.0
H1952 H 0.26724 0.13652 0.3059 0.0
H1953 H 0.25234 0.20046 0.32554 0.0
H1954 H 0.24694 0.20822 0.27798 0.0
H1955 H 0.29286 0.14527 0.24275 0.0
H1956 H 0.28116 0.1226 0.2279 0.0
H1957 H 0.28625 0.12307 0.26286 0.0
H1958 H 0.24743 0.11468 0.27203 0.0
H1959 H 0.24219 0.11437 0.23714 0.0
H1960 H 0.2275 0.13133 0.25851 0.0
H1961 H 0.24299 0.20847 0.22771 0.0
H1962 H 0.23788 0.20044 0.18008 0.0
H1963 H 0.25173 0.13558 0.19538 0.0
C1964 C 0.26335 0.15229 0.3001 0.0
C1965 C 0.26065 0.16806 0.31912 0.0
C1966 C 0.25473 0.18829 0.31105 0.0
C1967 C 0.25166 0.1928 0.28416 0.0
C1968 C 0.25416 0.17675 0.26585 0.0
C1969 C 0.25966 0.15684 0.27359 0.0
C1970 C 0.25943 0.14183 0.25062 0.0
C1971 C 0.28122 0.13266 0.24575 0.0
C1972 C 0.24317 0.12454 0.25484 0.0
C1973 C 0.25304 0.15638 0.22865 0.0
C1974 C 0.25038 0.17654 0.23762 0.0
C1975 C 0.24489 0.19272 0.22055 0.0
C1976 C 0.242 0.18808 0.19366 0.0
C1977 C 0.24414 0.16741 0.18453 0.0
C1978 C 0.24972 0.15145 0.20218 0.0
H1979 H 0.0948 0.02198 0.44588 0.0
H1980 H 0.07713 0.95744 0.4347 0.0
H1981 H 0.06789 0.95493 0.48203 0.0
H1982 H 0.12077 0.01398 0.50388 0.0
H1983 H 0.11364 0.0383 0.51914 0.0
H1984 H 0.11463 0.03633 0.48379 0.0
H1985 H 0.07635 0.04889 0.48071 0.0
H1986 H 0.07524 0.05095 0.51618 0.0
H1987 H 0.05637 0.03532 0.49884 0.0
H1988 H 0.06471 0.95824 0.53106 0.0
H1989 H 0.07031 0.96604 0.57817 0.0
H1990 H 0.09166 0.02806 0.55749 0.0
C1991 C 0.0883 0.00754 0.45321 0.0
C1992 C 0.08634 0.98998 0.43666 0.0
C1993 C 0.07855 0.9711 0.4471 0.0
C1994 C 0.07317 0.96959 0.47388 0.0
C1995 C 0.07579 0.98707 0.48988 0.0
C1996 C 0.08324 0.00568 0.47992 0.0
C1997 C 0.0874 0.02124 0.50174 0.0
C1998 C 0.11047 0.02783 0.50216 0.0
C1999 C 0.07297 0.04022 0.49921 0.0
C2000 C 0.08183 0.00824 0.52563 0.0
C2001 C 0.07469 0.98877 0.51835 0.0
C2002 C 0.06999 0.97354 0.537 0.0
C2003 C 0.07324 0.97813 0.56374 0.0
C2004 C 0.08143 0.99766 0.57154 0.0
C2005 C 0.08519 0.01306 0.5522 0.0
H2006 H 0.28314 0.85829 0.69603 0.0
H2007 H 0.23924 0.80936 0.6764 0.0
H2008 H 0.22903 0.80692 0.7234 0.0
H2009 H 0.29748 0.83975 0.76349 0.0
H2010 H 0.29828 0.86604 0.77589 0.0
H2011 H 0.30496 0.86083 0.74198 0.0
H2012 H 0.27725 0.88758 0.72681 0.0
H2013 H 0.2702 0.89263 0.76053 0.0
H2014 H 0.2506 0.88442 0.73729 0.0
H2015 H 0.22074 0.81292 0.77189 0.0
H2016 H 0.21498 0.82714 0.81684 0.0
H2017 H 0.26298 0.87335 0.8028 0.0
C2018 C 0.27194 0.8465 0.70169 0.0
C2019 C 0.26216 0.83383 0.68262 0.0
C2020 C 0.24708 0.81908 0.69077 0.0
C2021 C 0.24119 0.81759 0.71741 0.0
C2022 C 0.25052 0.83098 0.73557 0.0
C2023 C 0.26567 0.84508 0.728 0.0
C2024 C 0.27155 0.85945 0.7504 0.0
C2025 C 0.29443 0.85632 0.75841 0.0
C2026 C 0.26712 0.88236 0.74332 0.0
C2027 C 0.25693 0.85167 0.77156 0.0
C2028 C 0.24517 0.835 0.76292 0.0
C2029 C 0.23003 0.82583 0.77893 0.0
C2030 C 0.22682 0.83402 0.80436 0.0
C2031 C 0.23843 0.85141 0.81317 0.0
C2032 C 0.25377 0.86011 0.79657 0.0
H2033 H 0.4031 0.97658 0.94664 0.0
H2034 H 0.42355 0.04056 0.93827 0.0
H2035 H 0.43298 0.04131 0.98566 0.0
H2036 H 0.37771 0.98411 0.00555 0.0
H2037 H 0.38384 0.95902 0.01946 0.0
H2038 H 0.38261 0.96217 0.98425 0.0
H2039 H 0.42021 0.94791 0.97994 0.0
H2040 H 0.42156 0.9447 0.01525 0.0
H2041 H 0.44098 0.95997 0.99836 0.0
H2042 H 0.43666 0.03625 0.03447 0.0
H2043 H 0.43145 0.02715 0.08126 0.0
H2044 H 0.40681 0.96695 0.05799 0.0
C2045 C 0.4102 0.99052 0.95461 0.0
C2046 C 0.41295 0.00842 0.93882 0.0
C2047 C 0.42151 0.02665 0.95009 0.0
C2048 C 0.42701 0.02716 0.9769 0.0
C2049 C 0.42368 0.00935 0.99211 0.0
C2050 C 0.41536 0.9914 0.98137 0.0
C2051 C 0.41068 0.97538 1.00249 0.0
C2052 C 0.38733 0.96986 1.00296 0.0
C2053 C 0.42417 0.95583 0.99878 0.0
C2054 C 0.41707 0.98734 0.0269 0.0
C2055 C 0.425 0.0067 0.02045 0.0
C2056 C 0.43073 0.02104 0.03975 0.0
C2057 C 0.42771 0.0157 0.06631 0.0
C2058 C 0.41872 0.99632 0.07331 0.0
C2059 C 0.4139 0.98179 0.0533 0.0
H2060 H 0.71863 0.83857 0.69972 0.0
H2061 H 0.78005 0.81689 0.67688 0.0
H2062 H 0.78879 0.81101 0.72364 0.0
H2063 H 0.73389 0.86708 0.75296 0.0
H2064 H 0.712 0.86097 0.77383 0.0
H2065 H 0.70918 0.86009 0.73856 0.0
H2066 H 0.69654 0.82184 0.74136 0.0
H2067 H 0.69914 0.82265 0.77678 0.0
H2068 H 0.71235 0.80276 0.75809 0.0
H2069 H 0.79313 0.81378 0.7727 0.0
H2070 H 0.79144 0.82221 0.82036 0.0
H2071 H 0.72675 0.84018 0.81132 0.0
C2072 C 0.73368 0.83196 0.70448 0.0
C2073 C 0.74863 0.82819 0.68461 0.0
C2074 C 0.76827 0.81982 0.69171 0.0
C2075 C 0.77341 0.81642 0.71826 0.0
C2076 C 0.75861 0.82109 0.73746 0.0
C2077 C 0.73899 0.82831 0.73088 0.0
C2078 C 0.72653 0.83374 0.75528 0.0
C2079 C 0.72003 0.85683 0.75513 0.0
C2080 C 0.70751 0.81938 0.75804 0.0
C2081 C 0.74252 0.82934 0.77652 0.0
C2082 C 0.7609 0.82194 0.76589 0.0
C2083 C 0.77864 0.81899 0.78136 0.0
C2084 C 0.77759 0.8239 0.80834 0.0
C2085 C 0.75889 0.83148 0.81951 0.0
C2086 C 0.74108 0.83382 0.80344 0.0
H2087 H 0.91026 0.96621 0.45044 0.0
H2088 H 0.93408 0.02686 0.42769 0.0
H2089 H 0.93926 0.03574 0.47453 0.0
H2090 H 0.88105 0.98248 0.50226 0.0
H2091 H 0.88609 0.96066 0.5237 0.0
H2092 H 0.88779 0.95748 0.48854 0.0
H2093 H 0.92565 0.94397 0.49305 0.0
H2094 H 0.924 0.94691 0.52838 0.0
H2095 H 0.94468 0.95947 0.51034 0.0
H2096 H 0.93521 0.04062 0.52326 0.0
H2097 H 0.92539 0.03963 0.57053 0.0
H2098 H 0.90621 0.97529 0.56178 0.0
C2099 C 0.91722 0.98109 0.45526 0.0
C2100 C 0.92175 0.99583 0.43538 0.0
C2101 C 0.93056 0.01525 0.44254 0.0
C2102 C 0.93357 0.02046 0.46913 0.0
C2103 C 0.92807 0.00594 0.48831 0.0
C2104 C 0.92049 0.98647 0.48171 0.0
C2105 C 0.91413 0.97436 0.50605 0.0
C2106 C 0.8909 0.96841 0.50506 0.0
C2107 C 0.92795 0.95503 0.50967 0.0
C2108 C 0.91838 0.99042 0.52722 0.0
C2109 C 0.92654 0.00851 0.51664 0.0
C2110 C 0.92943 0.02635 0.53193 0.0
C2111 C 0.92372 0.02571 0.55866 0.0
C2112 C 0.91542 0.00729 0.56978 0.0
C2113 C 0.91312 0.98938 0.55393 0.0
H2114 H 0.77607 0.15619 0.31142 0.0
H2115 H 0.71165 0.17521 0.32011 0.0
H2116 H 0.71037 0.18407 0.27257 0.0
H2117 H 0.79134 0.19397 0.25878 0.0
H2118 H 0.80703 0.17474 0.24216 0.0
H2119 H 0.80408 0.1738 0.27753 0.0
H2120 H 0.79085 0.13577 0.27418 0.0
H2121 H 0.79371 0.1366 0.23891 0.0
H2122 H 0.76889 0.12998 0.25325 0.0
H2123 H 0.71496 0.18705 0.22358 0.0
H2124 H 0.72389 0.1814 0.17681 0.0
H2125 H 0.78491 0.15879 0.19999 0.0
C2126 C 0.7619 0.16287 0.30351 0.0
C2127 C 0.74404 0.16534 0.31944 0.0
C2128 C 0.72555 0.17339 0.30821 0.0
C2129 C 0.72473 0.17856 0.2813 0.0
C2130 C 0.74251 0.17546 0.26596 0.0
C2131 C 0.76073 0.16773 0.27667 0.0
C2132 C 0.77674 0.16321 0.25548 0.0
C2133 C 0.79593 0.17727 0.25868 0.0
C2134 C 0.78289 0.14002 0.25546 0.0
C2135 C 0.76445 0.16893 0.23106 0.0
C2136 C 0.74492 0.17643 0.23755 0.0
C2137 C 0.7303 0.18146 0.21827 0.0
C2138 C 0.73553 0.17819 0.19173 0.0
C2139 C 0.75512 0.16965 0.18471 0.0
C2140 C 0.76991 0.16553 0.20468 0.0
H2141 H 0.59584 0.03361 0.95111 0.0
H2142 H 0.57199 0.97345 0.92646 0.0
H2143 H 0.56573 0.96409 0.97295 0.0
H2144 H 0.62374 0.01636 0.0039 0.0
H2145 H 0.61843 0.03807 0.0254 0.0
H2146 H 0.61768 0.04156 0.99023 0.0
H2147 H 0.57991 0.05555 0.99338 0.0
H2148 H 0.5806 0.05226 0.02871 0.0
H2149 H 0.56025 0.04015 0.00963 0.0
H2150 H 0.56831 0.95876 0.02177 0.0
H2151 H 0.57686 0.95921 0.06944 0.0
H2152 H 0.59714 0.02336 0.06242 0.0
C2153 C 0.58869 0.01873 0.95542 0.0
C2154 C 0.58442 0.00427 0.93513 0.0
C2155 C 0.57533 0.98483 0.94164 0.0
C2156 C 0.57169 0.97936 0.96802 0.0
C2157 C 0.57687 0.99364 0.98763 0.0
C2158 C 0.58482 0.01309 0.98164 0.0
C2159 C 0.59069 0.02489 0.00641 0.0
C2160 C 0.61401 0.03053 0.00647 0.0
C2161 C 0.57704 0.04437 0.00972 0.0
C2162 C 0.58569 0.00869 0.02716 0.0
C2163 C 0.57762 0.9908 0.01598 0.0
C2164 C 0.57405 0.97288 0.03088 0.0
C2165 C 0.57902 0.97322 0.05785 0.0
C2166 C 0.58728 0.99141 0.06958 0.0
C2167 C 0.59024 0.00944 0.05409 0.0
H2168 H 0.71773 0.65758 0.69987 0.0
H2169 H 0.77911 0.6801 0.6782 0.0
H2170 H 0.78703 0.68651 0.7251 0.0
H2171 H 0.70995 0.69344 0.75798 0.0
H2172 H 0.69691 0.67331 0.77644 0.0
H2173 H 0.69473 0.67405 0.74097 0.0
H2174 H 0.70815 0.63604 0.73849 0.0
H2175 H 0.71052 0.63523 0.7738 0.0
H2176 H 0.7328 0.62955 0.75341 0.0
H2177 H 0.79067 0.6842 0.77421 0.0
H2178 H 0.78867 0.6755 0.82175 0.0
H2179 H 0.72453 0.656 0.81144 0.0
C2180 C 0.73258 0.66449 0.7049 0.0
C2181 C 0.74778 0.66834 0.68535 0.0
C2182 C 0.76717 0.67709 0.6928 0.0
C2183 C 0.77182 0.68082 0.71942 0.0
C2184 C 0.75681 0.67605 0.73831 0.0
C2185 C 0.73743 0.6684 0.73136 0.0
C2186 C 0.72477 0.66274 0.75551 0.0
C2187 C 0.70544 0.67673 0.75786 0.0
C2188 C 0.71873 0.63952 0.75528 0.0
C2189 C 0.74039 0.66747 0.77705 0.0
C2190 C 0.75873 0.67531 0.76679 0.0
C2191 C 0.77621 0.67862 0.78259 0.0
C2192 C 0.77498 0.67357 0.8095 0.0
C2193 C 0.75637 0.66539 0.82027 0.0
C2194 C 0.73878 0.66277 0.80389 0.0
H2195 H 0.59074 0.46469 0.9507 0.0
H2196 H 0.56666 0.52492 0.92664 0.0
H2197 H 0.5622 0.5347 0.97331 0.0
H2198 H 0.55726 0.45907 0.01149 0.0
H2199 H 0.57819 0.44687 0.02946 0.0
H2200 H 0.57608 0.44329 0.99427 0.0
H2201 H 0.61385 0.45675 0.98859 0.0
H2202 H 0.61601 0.46059 0.02361 0.0
H2203 H 0.62073 0.48201 1.00142 0.0
H2204 H 0.5667 0.54042 0.0219 0.0
H2205 H 0.57679 0.54018 0.0691 0.0
H2206 H 0.59616 0.47578 0.06172 0.0
C2207 C 0.58387 0.47966 0.95522 0.0
C2208 C 0.57906 0.49402 0.93498 0.0
C2209 C 0.5704 0.5136 0.94176 0.0
C2210 C 0.56779 0.51932 0.96826 0.0
C2211 C 0.57357 0.50516 0.98775 0.0
C2212 C 0.58104 0.48556 0.98157 0.0
C2213 C 0.58773 0.47391 0.00613 0.0
C2214 C 0.57399 0.45465 0.0106 0.0
C2215 C 0.61095 0.46798 0.00484 0.0
C2216 C 0.58373 0.49036 0.02692 0.0
C2217 C 0.57546 0.50825 0.01598 0.0
C2218 C 0.57262 0.52631 0.03085 0.0
C2219 C 0.57848 0.52609 0.05755 0.0
C2220 C 0.58691 0.50788 0.06906 0.0
C2221 C 0.5892 0.48974 0.0536 0.0
H2222 H 0.71998 0.34167 0.30743 0.0
H2223 H 0.78143 0.3224 0.33344 0.0
H2224 H 0.79163 0.31617 0.28725 0.0
H2225 H 0.71654 0.30471 0.24979 0.0
H2226 H 0.70316 0.32381 0.22998 0.0
H2227 H 0.69962 0.32347 0.26528 0.0
H2228 H 0.71082 0.36219 0.26758 0.0
H2229 H 0.71456 0.36261 0.23243 0.0
H2230 H 0.73564 0.36983 0.25405 0.0
H2231 H 0.79727 0.31853 0.23846 0.0
H2232 H 0.79666 0.32639 0.19059 0.0
H2233 H 0.73112 0.3419 0.1962 0.0
C2234 C 0.73536 0.33553 0.30348 0.0
C2235 C 0.74989 0.33254 0.32407 0.0
C2236 C 0.76997 0.32474 0.31803 0.0
C2237 C 0.77594 0.32113 0.29182 0.0
C2238 C 0.76152 0.325 0.27189 0.0
C2239 C 0.7415 0.33164 0.27743 0.0
C2240 C 0.72953 0.33623 0.25235 0.0
C2241 C 0.71112 0.32115 0.24916 0.0
C2242 C 0.72223 0.35906 0.25157 0.0
C2243 C 0.74624 0.33206 0.23194 0.0
C2244 C 0.76456 0.32549 0.24357 0.0
C2245 C 0.78285 0.32305 0.22901 0.0
C2246 C 0.78241 0.32762 0.20191 0.0
C2247 C 0.76377 0.33433 0.18973 0.0
C2248 C 0.74542 0.33615 0.20488 0.0
H2249 H 0.91239 0.46579 0.55979 0.0
H2250 H 0.9337 0.52697 0.58418 0.0
H2251 H 0.94047 0.53613 0.53776 0.0
H2252 H 0.94938 0.46008 0.50238 0.0
H2253 H 0.92986 0.44705 0.48288 0.0
H2254 H 0.93002 0.44409 0.51827 0.0
H2255 H 0.8917 0.45666 0.52013 0.0
H2256 H 0.89147 0.45981 0.48489 0.0
H2257 H 0.88495 0.48149 0.50591 0.0
H2258 H 0.93844 0.541 0.48881 0.0
H2259 H 0.93058 0.5399 0.44096 0.0
H2260 H 0.91274 0.47507 0.44827 0.0
C2261 C 0.9191 0.48087 0.55545 0.0
C2262 C 0.9225 0.49564 0.57565 0.0
C2263 C 0.93103 0.51533 0.56909 0.0
C2264 C 0.93496 0.5207 0.54274 0.0
C2265 C 0.93065 0.50608 0.52319 0.0
C2266 C 0.92329 0.48642 0.52925 0.0
C2267 C 0.91833 0.4742 0.50448 0.0
C2268 C 0.93277 0.45523 0.50185 0.0
C2269 C 0.89525 0.46767 0.50383 0.0
C2270 C 0.9231 0.4904 0.48363 0.0
C2271 C 0.93031 0.50866 0.49478 0.0
C2272 C 0.93341 0.5266 0.47973 0.0
C2273 C 0.92884 0.52589 0.45265 0.0
C2274 C 0.92146 0.50732 0.44094 0.0
C2275 C 0.919 0.48929 0.45658 0.0
H2276 H 0.22199 0.33808 0.1992 0.0
H2277 H 0.28417 0.32002 0.17464 0.0
H2278 H 0.29372 0.31368 0.22104 0.0
H2279 H 0.23624 0.36634 0.25271 0.0
H2280 H 0.21501 0.35876 0.2739 0.0
H2281 H 0.21175 0.35818 0.2387 0.0
H2282 H 0.2013 0.31924 0.24093 0.0
H2283 H 0.20436 0.31974 0.2763 0.0
H2284 H 0.21838 0.30086 0.25689 0.0
H2285 H 0.29863 0.31622 0.26987 0.0
H2286 H 0.29734 0.32455 0.31757 0.0
H2287 H 0.23159 0.33878 0.31054 0.0
C2288 C 0.2374 0.33214 0.2035 0.0
C2289 C 0.25232 0.32957 0.18328 0.0
C2290 C 0.27242 0.32204 0.18976 0.0
C2291 C 0.27801 0.31836 0.21609 0.0
C2292 C 0.26321 0.32188 0.23567 0.0
C2293 C 0.24318 0.3282 0.22967 0.0
C2294 C 0.23078 0.33262 0.25445 0.0
C2295 C 0.22301 0.35531 0.25495 0.0
C2296 C 0.21263 0.31719 0.25731 0.0
C2297 C 0.24728 0.32883 0.27524 0.0
C2298 C 0.26586 0.3225 0.26405 0.0
C2299 C 0.28401 0.32054 0.27899 0.0
C2300 C 0.28319 0.32537 0.30598 0.0
C2301 C 0.2643 0.33189 0.3177 0.0
C2302 C 0.24608 0.33317 0.30221 0.0
H2303 H 0.41299 0.47173 0.94819 0.0
H2304 H 0.43078 0.53415 0.92437 0.0
H2305 H 0.4367 0.5435 0.97093 0.0
H2306 H 0.38416 0.48551 1.00138 0.0
H2307 H 0.39169 0.46422 0.02251 0.0
H2308 H 0.3926 0.46115 0.98729 0.0
H2309 H 0.43159 0.45094 0.98999 0.0
H2310 H 0.43075 0.45379 0.02538 0.0
H2311 H 0.44972 0.46803 0.00636 0.0
H2312 H 0.4338 0.54808 0.01983 0.0
H2313 H 0.42517 0.54644 0.06742 0.0
H2314 H 0.41129 0.48068 0.05959 0.0
C2315 C 0.4188 0.48715 0.95269 0.0
C2316 C 0.42141 0.50219 0.93262 0.0
C2317 C 0.42875 0.52231 0.93936 0.0
C2318 C 0.43218 0.52778 0.96579 0.0
C2319 C 0.42859 0.51285 0.98521 0.0
C2320 C 0.42246 0.49281 0.97896 0.0
C2321 C 0.4179 0.48025 0.00357 0.0
C2322 C 0.39525 0.47233 0.00368 0.0
C2323 C 0.43342 0.46218 0.00649 0.0
C2324 C 0.4214 0.49665 0.02455 0.0
C2325 C 0.42771 0.51533 0.01361 0.0
C2326 C 0.42948 0.53339 0.02875 0.0
C2327 C 0.42447 0.53236 0.05569 0.0
C2328 C 0.41796 0.51338 0.06716 0.0
C2329 C 0.41686 0.49526 0.05147 0.0
H2330 H 0.27641 0.65932 0.6998 0.0
H2331 H 0.21514 0.68079 0.67601 0.0
H2332 H 0.20574 0.68604 0.72271 0.0
H2333 H 0.26057 0.62988 0.75178 0.0
H2334 H 0.28211 0.63571 0.77335 0.0
H2335 H 0.28545 0.63723 0.73819 0.0
H2336 H 0.29784 0.67549 0.74235 0.0
H2337 H 0.29473 0.67403 0.77767 0.0
H2338 H 0.2817 0.69419 0.75922 0.0
H2339 H 0.20078 0.68257 0.77155 0.0
H2340 H 0.20179 0.67322 0.81895 0.0
H2341 H 0.26668 0.65567 0.811 0.0
C2342 C 0.26126 0.66576 0.70435 0.0
C2343 C 0.24652 0.66964 0.68423 0.0
C2344 C 0.22673 0.67778 0.69105 0.0
C2345 C 0.22124 0.68083 0.71755 0.0
C2346 C 0.23583 0.67602 0.73697 0.0
C2347 C 0.25557 0.66901 0.73068 0.0
C2348 C 0.26772 0.6632 0.75521 0.0
C2349 C 0.27433 0.64014 0.75458 0.0
C2350 C 0.28662 0.6776 0.75882 0.0
C2351 C 0.2514 0.66715 0.77617 0.0
C2352 C 0.23315 0.67467 0.76531 0.0
C2353 C 0.21516 0.67725 0.78041 0.0
C2354 C 0.21583 0.67182 0.80724 0.0
C2355 C 0.23439 0.66407 0.81862 0.0
C2356 C 0.25245 0.66213 0.80296 0.0
H2357 H 0.09549 0.47299 0.44509 0.0
H2358 H 0.07436 0.53664 0.43552 0.0
H2359 H 0.06346 0.53732 0.48239 0.0
H2360 H 0.05633 0.45592 0.49527 0.0
H2361 H 0.07553 0.44101 0.51306 0.0
H2362 H 0.07774 0.4441 0.47779 0.0
H2363 H 0.115 0.45892 0.48355 0.0
H2364 H 0.11293 0.45588 0.5187 0.0
H2365 H 0.11903 0.48101 0.5049 0.0
H2366 H 0.05865 0.5324 0.53099 0.0
H2367 H 0.06326 0.52378 0.57801 0.0
H2368 H 0.08923 0.4638 0.5562 0.0
C2369 C 0.08793 0.48683 0.45265 0.0
C2370 C 0.08542 0.50466 0.4367 0.0
C2371 C 0.07622 0.52277 0.44746 0.0
C2372 C 0.06988 0.52323 0.47397 0.0
C2373 C 0.073 0.5055 0.48938 0.0
C2374 C 0.08192 0.48766 0.47913 0.0
C2375 C 0.08629 0.47179 0.50053 0.0
C2376 C 0.07318 0.45203 0.49641 0.0
C2377 C 0.10969 0.46662 0.502 0.0
C2378 C 0.0791 0.48375 0.52459 0.0
C2379 C 0.071 0.50293 0.51767 0.0
C2380 C 0.0647 0.51732 0.53662 0.0
C2381 C 0.06738 0.51225 0.56332 0.0
C2382 C 0.07662 0.4931 0.57082 0.0
C2383 C 0.08192 0.47846 0.55114 0.0
H2384 H 0.33961 0.04571 0.18355 0.0
H2385 H 0.37945 0.03921 0.11488 0.0
H2386 H 0.3628 0.06969 0.09464 0.0
H2387 H 0.29602 0.05432 0.15191 0.0
H2388 H 0.28475 0.07354 0.17355 0.0
H2389 H 0.30349 0.05541 0.1862 0.0
H2390 H 0.32662 0.0858 0.2025 0.0
H2391 H 0.30775 0.10417 0.19011 0.0
H2392 H 0.33453 0.10585 0.17969 0.0
H2393 H 0.33597 0.09315 0.07675 0.0
H2394 H 0.30301 0.11065 0.06481 0.0
H2395 H 0.28159 0.10416 0.14552 0.0
C2396 C 0.3455 0.05131 0.16485 0.0
C2397 C 0.36072 0.04 0.15078 0.0
C2398 C 0.36774 0.04756 0.12604 0.0
C2399 C 0.35844 0.06497 0.11438 0.0
C2400 C 0.34245 0.07496 0.12793 0.0
C2401 C 0.33639 0.06877 0.15296 0.0
C2402 C 0.31696 0.08023 0.16168 0.0
C2403 C 0.29928 0.06496 0.16871 0.0
C2404 C 0.32176 0.09489 0.18487 0.0
C2405 C 0.31213 0.09242 0.13683 0.0
C2406 C 0.32722 0.08948 0.11773 0.0
C2407 C 0.32445 0.09632 0.09181 0.0
C2408 C 0.30566 0.10611 0.08512 0.0
C2409 C 0.29001 0.10906 0.10436 0.0
C2410 C 0.29362 0.10272 0.13066 0.0
H2411 H 0.14651 0.03126 0.39361 0.0
H2412 H 0.14144 0.05057 0.31188 0.0
H2413 H 0.15824 0.08402 0.32301 0.0
H2414 H 0.14327 0.08527 0.4254 0.0
H2415 H 0.16279 0.07808 0.4493 0.0
H2416 H 0.14485 0.05878 0.43696 0.0
H2417 H 0.17593 0.03562 0.42276 0.0
H2418 H 0.19382 0.05475 0.43496 0.0
H2419 H 0.19552 0.04625 0.40111 0.0
H2420 H 0.18115 0.11154 0.34049 0.0
H2421 H 0.21108 0.12893 0.3611 0.0
H2422 H 0.20305 0.09104 0.4313 0.0
C2423 C 0.1481 0.04293 0.3783 0.0
C2424 C 0.14245 0.03853 0.35196 0.0
C2425 C 0.14553 0.05376 0.33221 0.0
C2426 C 0.15488 0.07286 0.33843 0.0
C2427 C 0.16109 0.07641 0.36446 0.0
C2428 C 0.15782 0.06182 0.38411 0.0
C2429 C 0.16944 0.06746 0.40914 0.0
C2430 C 0.15417 0.07272 0.43152 0.0
C2431 C 0.18457 0.05 0.41744 0.0
C2432 C 0.18094 0.0867 0.39991 0.0
C2433 C 0.17524 0.09206 0.37445 0.0
C2434 C 0.18542 0.10776 0.36059 0.0
C2435 C 0.2025 0.11752 0.37248 0.0
C2436 C 0.2095 0.11125 0.39781 0.0
C2437 C 0.19791 0.09637 0.41212 0.0
H2438 H 0.20783 0.90858 0.57147 0.0
H2439 H 0.21681 0.86992 0.64081 0.0
H2440 H 0.18632 0.88606 0.66168 0.0
H2441 H 0.19852 0.95243 0.60254 0.0
H2442 H 0.17859 0.96277 0.58117 0.0
H2443 H 0.19712 0.94446 0.56845 0.0
H2444 H 0.16727 0.92009 0.55346 0.0
H2445 H 0.14849 0.93853 0.56586 0.0
H2446 H 0.14786 0.91187 0.57695 0.0
H2447 H 0.16221 0.91246 0.67961 0.0
H2448 H 0.1434 0.94482 0.69103 0.0
H2449 H 0.148 0.96516 0.60965 0.0
C2450 C 0.2028 0.90283 0.5905 0.0
C2451 C 0.21481 0.88811 0.60451 0.0
C2452 C 0.20793 0.88125 0.62966 0.0
C2453 C 0.19053 0.89027 0.64169 0.0
C2454 C 0.17986 0.90579 0.62812 0.0
C2455 C 0.18537 0.91164 0.60276 0.0
C2456 C 0.17314 0.93054 0.59389 0.0
C2457 C 0.18772 0.9486 0.58609 0.0
C2458 C 0.1583 0.92491 0.5712 0.0
C2459 C 0.1612 0.93533 0.61893 0.0
C2460 C 0.16501 0.92069 0.63834 0.0
C2461 C 0.15839 0.9236 0.66433 0.0
C2462 C 0.14786 0.94206 0.67072 0.0
C2463 C 0.14395 0.95722 0.65111 0.0
C2464 C 0.15018 0.95347 0.62482 0.0
H2465 H 0.34941 0.97208 0.89654 0.0
H2466 H 0.35804 0.94896 0.8169 0.0
H2467 H 0.34084 0.91598 0.82945 0.0
H2468 H 0.35185 0.92025 0.93273 0.0
H2469 H 0.33123 0.92819 0.95466 0.0
H2470 H 0.34922 0.94724 0.94186 0.0
H2471 H 0.31828 0.96881 0.92361 0.0
H2472 H 0.30033 0.94992 0.93634 0.0
H2473 H 0.29982 0.95654 0.90176 0.0
H2474 H 0.31816 0.88862 0.84798 0.0
H2475 H 0.2883 0.87111 0.86847 0.0
H2476 H 0.29222 0.913 0.9355 0.0
C2477 C 0.34843 0.95972 0.88205 0.0
C2478 C 0.35535 0.96283 0.85588 0.0
C2479 C 0.35303 0.94673 0.83711 0.0
C2480 C 0.34345 0.92791 0.84416 0.0
C2481 C 0.33621 0.92556 0.86998 0.0
C2482 C 0.33849 0.94111 0.88861 0.0
C2483 C 0.326 0.93649 0.9133 0.0
C2484 C 0.34044 0.93282 0.93704 0.0
C2485 C 0.31017 0.95397 0.91905 0.0
C2486 C 0.31531 0.91654 0.90504 0.0
C2487 C 0.32207 0.91009 0.88041 0.0
C2488 C 0.31302 0.8933 0.86743 0.0
C2489 C 0.29597 0.88347 0.87927 0.0
C2490 C 0.28782 0.89077 0.90359 0.0
C2491 C 0.29826 0.90687 0.91715 0.0
H2492 H 0.64983 0.97051 0.89789 0.0
H2493 H 0.64092 0.94887 0.81767 0.0
H2494 H 0.65773 0.9155 0.82926 0.0
H2495 H 0.69898 0.95495 0.90249 0.0
H2496 H 0.69874 0.94754 0.93682 0.0
H2497 H 0.68061 0.9666 0.925 0.0
H2498 H 0.64988 0.94445 0.94266 0.0
H2499 H 0.66806 0.92524 0.95465 0.0
H2500 H 0.64736 0.91765 0.93262 0.0
H2501 H 0.6807 0.88805 0.84657 0.0
H2502 H 0.71094 0.8705 0.86601 0.0
H2503 H 0.70705 0.91082 0.93457 0.0
C2504 C 0.6506 0.95836 0.88311 0.0
C2505 C 0.64382 0.96202 0.85702 0.0
C2506 C 0.64586 0.9462 0.83783 0.0
C2507 C 0.65521 0.92716 0.84433 0.0
C2508 C 0.66249 0.92431 0.87004 0.0
C2509 C 0.66033 0.93953 0.88915 0.0
C2510 C 0.673 0.93448 0.91356 0.0
C2511 C 0.68876 0.95191 0.91979 0.0
C2512 C 0.65872 0.93019 0.93728 0.0
C2513 C 0.68374 0.91478 0.90451 0.0
C2514 C 0.67681 0.90875 0.87981 0.0
C2515 C 0.68596 0.89237 0.86611 0.0
C2516 C 0.70325 0.88254 0.87734 0.0
C2517 C 0.7115 0.88938 0.90181 0.0
C2518 C 0.70099 0.90506 0.91604 0.0
H2519 H 0.85417 0.9673 0.61118 0.0
H2520 H 0.85979 0.94788 0.6928 0.0
H2521 H 0.84357 0.91414 0.68159 0.0
H2522 H 0.80547 0.95189 0.60409 0.0
H2523 H 0.80696 0.94348 0.57019 0.0
H2524 H 0.82481 0.9627 0.58223 0.0
H2525 H 0.85593 0.93977 0.56757 0.0
H2526 H 0.83803 0.92037 0.55541 0.0
H2527 H 0.85778 0.91326 0.57903 0.0
H2528 H 0.821 0.88645 0.66426 0.0
H2529 H 0.79079 0.86916 0.64427 0.0
H2530 H 0.79774 0.90734 0.57415 0.0
C2531 C 0.85283 0.95554 0.62642 0.0
C2532 C 0.85846 0.95996 0.65275 0.0
C2533 C 0.85571 0.94464 0.67246 0.0
C2534 C 0.8467 0.92539 0.66619 0.0
C2535 C 0.84049 0.92181 0.64018 0.0
C2536 C 0.8434 0.93652 0.62057 0.0
C2537 C 0.83162 0.93086 0.59568 0.0
C2538 C 0.81631 0.94825 0.58762 0.0
C2539 C 0.84675 0.92575 0.57309 0.0
C2540 C 0.82034 0.91154 0.605 0.0
C2541 C 0.82639 0.90608 0.6303 0.0
C2542 C 0.81644 0.8903 0.64428 0.0
C2543 C 0.79919 0.88062 0.63275 0.0
C2544 C 0.79177 0.88706 0.60769 0.0
C2545 C 0.80317 0.90194 0.59316 0.0
H2546 H 0.84239 0.04724 0.32733 0.0
H2547 H 0.8792 0.03871 0.39836 0.0
H2548 H 0.8617 0.06863 0.41875 0.0
H2549 H 0.83716 0.1073 0.33368 0.0
H2550 H 0.81091 0.10592 0.3212 0.0
H2551 H 0.83039 0.08798 0.30934 0.0
H2552 H 0.80658 0.05711 0.32235 0.0
H2553 H 0.78726 0.07479 0.33455 0.0
H2554 H 0.7976 0.0549 0.35597 0.0
H2555 H 0.83402 0.09154 0.43577 0.0
H2556 H 0.80054 0.10868 0.44606 0.0
H2557 H 0.78275 0.10443 0.36371 0.0
C2558 C 0.84747 0.0523 0.34667 0.0
C2559 C 0.86203 0.04055 0.36127 0.0
C2560 C 0.86801 0.04741 0.38676 0.0
C2561 C 0.85822 0.0645 0.39852 0.0
C2562 C 0.84284 0.07488 0.38433 0.0
C2563 C 0.83789 0.06943 0.35863 0.0
C2564 C 0.81887 0.08113 0.34906 0.0
C2565 C 0.82469 0.0965 0.32702 0.0
C2566 C 0.80157 0.06608 0.33999 0.0
C2567 C 0.81289 0.09251 0.37408 0.0
C2568 C 0.82712 0.08904 0.39408 0.0
C2569 C 0.82317 0.0951 0.42006 0.0
C2570 C 0.80406 0.10464 0.42581 0.0
C2571 C 0.78929 0.10808 0.40561 0.0
C2572 C 0.79409 0.10255 0.37936 0.0
H2573 H 0.65107 0.02806 0.11206 0.0
H2574 H 0.64303 0.04909 0.19271 0.0
H2575 H 0.66071 0.08212 0.18158 0.0
H2576 H 0.70074 0.04289 0.10706 0.0
H2577 H 0.70023 0.05063 0.07286 0.0
H2578 H 0.68197 0.03168 0.08471 0.0
H2579 H 0.65135 0.05438 0.06788 0.0
H2580 H 0.66965 0.07347 0.05587 0.0
H2581 H 0.64929 0.08111 0.07836 0.0
H2582 H 0.68404 0.10941 0.16436 0.0
H2583 H 0.71404 0.1271 0.14437 0.0
H2584 H 0.70885 0.08747 0.07528 0.0
C2585 C 0.65226 0.04001 0.12707 0.0
C2586 C 0.64547 0.03626 0.15313 0.0
C2587 C 0.64803 0.05181 0.17259 0.0
C2588 C 0.65787 0.07066 0.16635 0.0
C2589 C 0.66509 0.0736 0.14063 0.0
C2590 C 0.66245 0.05865 0.12128 0.0
C2591 C 0.67492 0.06379 0.09674 0.0
C2592 C 0.69038 0.04621 0.08998 0.0
C2593 C 0.66043 0.06847 0.07333 0.0
C2594 C 0.68602 0.08326 0.10591 0.0
C2595 C 0.67952 0.08907 0.13089 0.0
C2596 C 0.68899 0.10525 0.14463 0.0
C2597 C 0.70612 0.11515 0.13311 0.0
C2598 C 0.71389 0.10857 0.10827 0.0
C2599 C 0.70312 0.09303 0.09408 0.0
H2600 H 0.78056 0.60047 0.64745 0.0
H2601 H 0.80111 0.6082 0.5666 0.0
H2602 H 0.83431 0.5907 0.57756 0.0
H2603 H 0.83368 0.60246 0.68085 0.0
H2604 H 0.82617 0.5821 0.70343 0.0
H2605 H 0.80697 0.6003 0.69146 0.0
H2606 H 0.78433 0.56959 0.67476 0.0
H2607 H 0.80336 0.55144 0.68664 0.0
H2608 H 0.79557 0.55083 0.65245 0.0
H2609 H 0.86188 0.56765 0.59482 0.0
H2610 H 0.87961 0.53762 0.61478 0.0
H2611 H 0.84015 0.5429 0.68403 0.0
C2612 C 0.79245 0.59925 0.63237 0.0
C2613 C 0.78856 0.60592 0.60631 0.0
C2614 C 0.80398 0.60329 0.58672 0.0
C2615 C 0.82291 0.59357 0.59287 0.0
C2616 C 0.82604 0.58651 0.61863 0.0
C2617 C 0.81116 0.58915 0.63807 0.0
C2618 C 0.8164 0.57675 0.66262 0.0
C2619 C 0.82109 0.59127 0.68597 0.0
C2620 C 0.79889 0.56124 0.66948 0.0
C2621 C 0.83589 0.56572 0.6534 0.0
C2622 C 0.84162 0.57218 0.62836 0.0
C2623 C 0.8578 0.56273 0.61458 0.0
C2624 C 0.86773 0.5456 0.6261 0.0
C2625 C 0.86116 0.53783 0.65094 0.0
C2626 C 0.8457 0.54865 0.66521 0.0
H2627 H 0.71823 0.60228 0.86418 0.0
H2628 H 0.70087 0.60603 0.94669 0.0
H2629 H 0.6679 0.58775 0.93677 0.0
H2630 H 0.6636 0.603 0.83439 0.0
H2631 H 0.67108 0.58383 0.81021 0.0
H2632 H 0.68988 0.60254 0.82191 0.0
H2633 H 0.71462 0.57245 0.83524 0.0
H2634 H 0.69598 0.55376 0.82372 0.0
H2635 H 0.7053 0.55245 0.85725 0.0
H2636 H 0.64064 0.56424 0.91999 0.0
H2637 H 0.62335 0.53421 0.89958 0.0
H2638 H 0.65979 0.54329 0.8283 0.0
C2639 C 0.70703 0.60006 0.87991 0.0
C2640 C 0.71178 0.60585 0.90609 0.0
C2641 C 0.6973 0.60189 0.92646 0.0
C2642 C 0.6785 0.59169 0.92094 0.0
C2643 C 0.6746 0.58545 0.89501 0.0
C2644 C 0.68853 0.58941 0.87481 0.0
C2645 C 0.68284 0.57759 0.84996 0.0
C2646 C 0.67646 0.59264 0.82781 0.0
C2647 C 0.70074 0.56321 0.84106 0.0
C2648 C 0.66432 0.5653 0.85983 0.0
C2649 C 0.65933 0.57071 0.88551 0.0
C2650 C 0.64415 0.56012 0.89977 0.0
C2651 C 0.63448 0.54298 0.88798 0.0
C2652 C 0.64036 0.53629 0.86236 0.0
C2653 C 0.65483 0.54816 0.84777 0.0
H2654 H 0.64893 0.47067 0.11399 0.0
H2655 H 0.64279 0.45181 0.19576 0.0
H2656 H 0.66158 0.41917 0.18583 0.0
H2657 H 0.64909 0.41651 0.08285 0.0
H2658 H 0.66881 0.42447 0.05964 0.0
H2659 H 0.64971 0.44298 0.07106 0.0
H2660 H 0.67934 0.46765 0.08616 0.0
H2661 H 0.69842 0.44929 0.07499 0.0
H2662 H 0.69882 0.4581 0.10877 0.0
H2663 H 0.68617 0.39263 0.16954 0.0
H2664 H 0.71679 0.37587 0.14979 0.0
H2665 H 0.70875 0.41303 0.07892 0.0
C2666 C 0.65072 0.45922 0.12953 0.0
C2667 C 0.64423 0.46354 0.15556 0.0
C2668 C 0.64758 0.44866 0.17567 0.0
C2669 C 0.65805 0.43003 0.17012 0.0
C2670 C 0.66508 0.42662 0.14441 0.0
C2671 C 0.66154 0.44084 0.1244 0.0
C2672 C 0.67399 0.43562 0.09991 0.0
C2673 C 0.65953 0.42953 0.07701 0.0
C2674 C 0.6885 0.45373 0.09203 0.0
C2675 C 0.68614 0.41702 0.10981 0.0
C2676 C 0.68019 0.41163 0.13516 0.0
C2677 C 0.69066 0.39641 0.14952 0.0
C2678 C 0.70814 0.38704 0.13811 0.0
C2679 C 0.71522 0.3932 0.11278 0.0
C2680 C 0.70355 0.40778 0.09812 0.0
H2681 H 0.8418 0.45581 0.32645 0.0
H2682 H 0.88114 0.45965 0.39595 0.0
H2683 H 0.86354 0.4292 0.41479 0.0
H2684 H 0.79773 0.4477 0.35706 0.0
H2685 H 0.78617 0.42926 0.3346 0.0
H2686 H 0.8055 0.44713 0.32286 0.0
H2687 H 0.82803 0.41649 0.30589 0.0
H2688 H 0.80854 0.39839 0.31732 0.0
H2689 H 0.83515 0.39577 0.32813 0.0
H2690 H 0.83593 0.40613 0.43141 0.0
H2691 H 0.8024 0.38929 0.4422 0.0
H2692 H 0.78189 0.39822 0.36148 0.0
C2693 C 0.84734 0.44964 0.34506 0.0
C2694 C 0.86273 0.46021 0.35976 0.0
C2695 C 0.86934 0.45189 0.38429 0.0
C2696 C 0.85949 0.43448 0.39516 0.0
C2697 C 0.84338 0.42525 0.38102 0.0
C2698 C 0.83769 0.43217 0.35615 0.0
C2699 C 0.81807 0.42145 0.34672 0.0
C2700 C 0.80087 0.43733 0.33995 0.0
C2701 C 0.82274 0.40717 0.32312 0.0
C2702 C 0.81267 0.40887 0.37104 0.0
C2703 C 0.82766 0.41095 0.39045 0.0
C2704 C 0.82446 0.40364 0.41608 0.0
C2705 C 0.80534 0.39426 0.42212 0.0
C2706 C 0.7898 0.39221 0.40255 0.0
C2707 C 0.79382 0.399 0.37656 0.0
H2708 H 0.20584 0.40768 0.42926 0.0
H2709 H 0.2165 0.37275 0.35722 0.0
H2710 H 0.18668 0.39019 0.33649 0.0
H2711 H 0.14603 0.41242 0.42132 0.0
H2712 H 0.14688 0.43843 0.43462 0.0
H2713 H 0.16486 0.41895 0.44637 0.0
H2714 H 0.19565 0.44334 0.43495 0.0
H2715 H 0.17795 0.46269 0.42282 0.0
H2716 H 0.19833 0.45299 0.40168 0.0
H2717 H 0.16339 0.41771 0.31978 0.0
H2718 H 0.14566 0.451 0.31016 0.0
H2719 H 0.14856 0.46732 0.39306 0.0
C2720 C 0.2013 0.40298 0.40958 0.0
C2721 C 0.2136 0.38897 0.39487 0.0
C2722 C 0.20737 0.38349 0.36894 0.0
C2723 C 0.19035 0.39326 0.35698 0.0
C2724 C 0.17944 0.40815 0.37136 0.0
C2725 C 0.18431 0.41261 0.39738 0.0
C2726 C 0.17223 0.4313 0.40721 0.0
C2727 C 0.15656 0.42488 0.42864 0.0
C2728 C 0.18692 0.44858 0.41722 0.0
C2729 C 0.1612 0.43762 0.38206 0.0
C2730 C 0.16522 0.42386 0.36172 0.0
C2731 C 0.15945 0.4282 0.33572 0.0
C2732 C 0.14959 0.44721 0.33035 0.0
C2733 C 0.14559 0.46152 0.3509 0.0
C2734 C 0.1509 0.45633 0.37712 0.0
H2735 H 0.28359 0.39724 0.14632 0.0
H2736 H 0.30294 0.39099 0.06479 0.0
H2737 H 0.33577 0.40932 0.07512 0.0
H2738 H 0.29656 0.44692 0.15176 0.0
H2739 H 0.3052 0.4465 0.18562 0.0
H2740 H 0.28682 0.42749 0.1743 0.0
H2741 H 0.31132 0.39781 0.18969 0.0
H2742 H 0.32985 0.41687 0.20117 0.0
H2743 H 0.33784 0.39707 0.17808 0.0
H2744 H 0.3624 0.4336 0.09158 0.0
H2745 H 0.3787 0.4646 0.11087 0.0
H2746 H 0.34115 0.45708 0.18146 0.0
C2747 C 0.2952 0.39891 0.13095 0.0
C2748 C 0.291 0.3925 0.10486 0.0
C2749 C 0.30603 0.3957 0.08492 0.0
C2750 C 0.32477 0.4059 0.09071 0.0
C2751 C 0.32812 0.41285 0.11647 0.0
C2752 C 0.3137 0.40951 0.13631 0.0
C2753 C 0.31888 0.422 0.16081 0.0
C2754 C 0.3008 0.43659 0.16853 0.0
C2755 C 0.32483 0.40757 0.18379 0.0
C2756 C 0.33758 0.43404 0.15101 0.0
C2757 C 0.34317 0.42788 0.12581 0.0
C2758 C 0.35846 0.43827 0.11149 0.0
C2759 C 0.36758 0.45597 0.12264 0.0
C2760 C 0.36108 0.46339 0.14768 0.0
C2761 C 0.34661 0.45168 0.16247 0.0
H2762 H 0.33384 0.54228 0.8243 0.0
H2763 H 0.37567 0.54256 0.89163 0.0
H2764 H 0.35611 0.57163 0.91101 0.0
H2765 H 0.32276 0.60131 0.8248 0.0
H2766 H 0.29607 0.59667 0.81554 0.0
H2767 H 0.31636 0.57966 0.80367 0.0
H2768 H 0.29653 0.548 0.82287 0.0
H2769 H 0.27643 0.56479 0.83516 0.0
H2770 H 0.28998 0.54764 0.85749 0.0
H2771 H 0.32738 0.59312 0.92846 0.0
H2772 H 0.29354 0.60918 0.93988 0.0
H2773 H 0.27127 0.59708 0.86059 0.0
C2774 C 0.33945 0.54909 0.84251 0.0
C2775 C 0.35618 0.54005 0.85649 0.0
C2776 C 0.36283 0.54915 0.88056 0.0
C2777 C 0.35186 0.56575 0.89173 0.0
C2778 C 0.33457 0.57341 0.87834 0.0
C2779 C 0.3287 0.56579 0.85388 0.0
C2780 C 0.3081 0.57497 0.84517 0.0
C2781 C 0.31101 0.58899 0.82085 0.0
C2782 C 0.29182 0.55783 0.83989 0.0
C2783 C 0.30263 0.58767 0.86936 0.0
C2784 C 0.31821 0.58679 0.88815 0.0
C2785 C 0.31538 0.59465 0.91359 0.0
C2786 C 0.2961 0.60354 0.92 0.0
C2787 C 0.28007 0.60461 0.90096 0.0
C2788 C 0.28358 0.59702 0.87521 0.0
H2789 H 0.21437 0.60398 0.64435 0.0
H2790 H 0.19837 0.60736 0.56136 0.0
H2791 H 0.16522 0.58916 0.57055 0.0
H2792 H 0.20114 0.55417 0.65141 0.0
H2793 H 0.19133 0.55577 0.68469 0.0
H2794 H 0.21022 0.57429 0.6734 0.0
H2795 H 0.1854 0.60456 0.6858 0.0
H2796 H 0.16634 0.58601 0.69721 0.0
H2797 H 0.15933 0.60507 0.67264 0.0
H2798 H 0.1375 0.56581 0.58693 0.0
H2799 H 0.1199 0.53588 0.60723 0.0
H2800 H 0.1553 0.54538 0.67924 0.0
C2801 C 0.20344 0.60169 0.62833 0.0
C2802 C 0.20863 0.60736 0.60224 0.0
C2803 C 0.19447 0.60331 0.58152 0.0
C2804 C 0.17557 0.59316 0.58663 0.0
C2805 C 0.17121 0.58706 0.6125 0.0
C2806 C 0.18483 0.59111 0.63302 0.0
C2807 C 0.1787 0.57947 0.65784 0.0
C2808 C 0.19639 0.56508 0.66735 0.0
C2809 C 0.17204 0.59469 0.67966 0.0
C2810 C 0.16028 0.5672 0.64764 0.0
C2811 C 0.1557 0.57246 0.62179 0.0
C2812 C 0.1407 0.56181 0.60729 0.0
C2813 C 0.13082 0.54475 0.61903 0.0
C2814 C 0.13635 0.53817 0.64482 0.0
C2815 C 0.15058 0.55016 0.65965 0.0
H2816 H 0.18714 0.20583 0.06144 0.0
H2817 H 0.24891 0.19386 0.03076 0.0
H2818 H 0.25261 0.23103 0.01919 0.0
H2819 H 0.1726 0.2504 0.01673 0.0
H2820 H 0.16026 0.26426 0.04342 0.0
H2821 H 0.1603 0.23618 0.04316 0.0
H2822 H 0.17725 0.23589 0.08961 0.0
H2823 H 0.17728 0.26386 0.09 0.0
H2824 H 0.20127 0.24982 0.09483 0.0
H2825 H 0.25206 0.26982 0.01777 0.0
H2826 H 0.2482 0.30706 0.02918 0.0
H2827 H 0.1876 0.29443 0.06298 0.0
C2828 C 0.20119 0.21103 0.05163 0.0
C2829 C 0.21759 0.19701 0.04649 0.0
C2830 C 0.23593 0.20429 0.0341 0.0
C2831 C 0.23818 0.22539 0.02755 0.0
C2832 C 0.22198 0.23901 0.0337 0.0
C2833 C 0.20382 0.23212 0.04551 0.0
C2834 C 0.19019 0.25021 0.05383 0.0
C2835 C 0.16962 0.25026 0.03835 0.0
C2836 C 0.18629 0.24992 0.08384 0.0
C2837 C 0.20388 0.26835 0.04585 0.0
C2838 C 0.22192 0.26157 0.03367 0.0
C2839 C 0.23781 0.27534 0.02675 0.0
C2840 C 0.23548 0.29645 0.0332 0.0
C2841 C 0.21755 0.30345 0.04671 0.0
C2842 C 0.20131 0.28937 0.0523 0.0
H2843 H 0.95711 0.99297 0.32215 0.0
H2844 H 0.94304 0.94 0.2725 0.0
H2845 H 0.98052 0.93697 0.26081 0.0
H2846 H 0.00138 0.01459 0.28301 0.0
H2847 H 0.01538 0.02141 0.31261 0.0
H2848 H 0.98731 0.02171 0.31245 0.0
H2849 H 0.98696 0.99656 0.35251 0.0
H2850 H 0.01493 0.99605 0.3527 0.0
H2851 H 0.00052 0.97205 0.35023 0.0
H2852 H 0.02038 0.93692 0.26018 0.0
H2853 H 0.05802 0.93951 0.27121 0.0
H2854 H 0.04504 0.99199 0.32216 0.0
C2855 C 0.96189 0.98111 0.3082 0.0
C2856 C 0.94738 0.9668 0.29799 0.0
C2857 C 0.95404 0.95128 0.28014 0.0
C2858 C 0.97525 0.94946 0.27349 0.0
C2859 C 0.98939 0.9634 0.28478 0.0
C2860 C 0.98286 0.97904 0.30163 0.0
C2861 C 0.00103 0.99052 0.31373 0.0
C2862 C 0.00129 0.01342 0.30491 0.0
C2863 C 0.00084 0.98867 0.34407 0.0
C2864 C 0.01892 0.97854 0.3018 0.0
C2865 C 0.01204 0.96315 0.2848 0.0
C2866 C 0.0259 0.94915 0.27309 0.0
C2867 C 0.04719 0.9507 0.2794 0.0
C2868 C 0.0542 0.96591 0.29749 0.0
C2869 C 0.03997 0.98028 0.30819 0.0
H2870 H 0.25705 0.70867 0.56883 0.0
H2871 H 0.31352 0.69201 0.52727 0.0
H2872 H 0.31865 0.72905 0.51477 0.0
H2873 H 0.2402 0.75259 0.5258 0.0
H2874 H 0.23151 0.76752 0.55383 0.0
H2875 H 0.23033 0.73949 0.55469 0.0
H2876 H 0.25221 0.73937 0.59774 0.0
H2877 H 0.25349 0.7673 0.59699 0.0
H2878 H 0.27715 0.75224 0.59813 0.0
H2879 H 0.31996 0.76875 0.51258 0.0
H2880 H 0.31785 0.80667 0.52207 0.0
H2881 H 0.26117 0.79656 0.56636 0.0
C2882 C 0.27019 0.71279 0.55648 0.0
C2883 C 0.28477 0.69761 0.54867 0.0
C2884 C 0.30197 0.70346 0.53292 0.0
C2885 C 0.305 0.72443 0.52584 0.0
C2886 C 0.29063 0.73922 0.53466 0.0
C2887 C 0.2735 0.73354 0.54957 0.0
C2888 C 0.26169 0.75233 0.55945 0.0
C2889 C 0.23962 0.75302 0.54773 0.0
C2890 C 0.26112 0.75283 0.58987 0.0
C2891 C 0.27511 0.76957 0.54847 0.0
C2892 C 0.29157 0.76182 0.53383 0.0
C2893 C 0.30692 0.77496 0.52356 0.0
C2894 C 0.30561 0.79641 0.52894 0.0
C2895 C 0.28924 0.8043 0.54464 0.0
C2896 C 0.27362 0.7908 0.55392 0.0
H2897 H 0.45736 0.00829 0.82913 0.0
H2898 H 0.44346 0.05634 0.77186 0.0
H2899 H 0.48111 0.05909 0.76102 0.0
H2900 H 0.50081 0.03174 0.85518 0.0
H2901 H 0.51514 0.00802 0.8608 0.0
H2902 H 0.48716 0.00758 0.8605 0.0
H2903 H 0.48764 0.97934 0.82391 0.0
H2904 H 0.5157 0.97962 0.82419 0.0
H2905 H 0.50181 0.98407 0.79378 0.0
H2906 H 0.52106 0.05948 0.76117 0.0
H2907 H 0.55871 0.05747 0.77241 0.0
H2908 H 0.54537 0.00921 0.8296 0.0
C2909 C 0.46224 0.01912 0.81395 0.0
C2910 C 0.44771 0.03219 0.80136 0.0
C2911 C 0.45449 0.04614 0.78156 0.0
C2912 C 0.4758 0.04778 0.77534 0.0
C2913 C 0.48991 0.03515 0.78892 0.0
C2914 C 0.48329 0.02094 0.80765 0.0
C2915 C 0.5014 0.01046 0.82126 0.0
C2916 C 0.5011 0.01472 0.85119 0.0
C2917 C 0.50165 0.98698 0.81542 0.0
C2918 C 0.51934 0.02142 0.80795 0.0
C2919 C 0.51255 0.03543 0.78908 0.0
C2920 C 0.52651 0.04832 0.77561 0.0
C2921 C 0.54781 0.0471 0.78204 0.0
C2922 C 0.55473 0.03329 0.80192 0.0
C2923 C 0.54038 0.01997 0.81441 0.0
H2924 H 0.23958 0.79275 0.93361 0.0
H2925 H 0.18789 0.80768 0.98502 0.0
H2926 H 0.18385 0.77016 0.99592 0.0
H2927 H 0.21786 0.74942 0.90563 0.0
H2928 H 0.24167 0.73472 0.90309 0.0
H2929 H 0.24252 0.76268 0.90316 0.0
H2930 H 0.26783 0.76204 0.94306 0.0
H2931 H 0.26714 0.73399 0.94304 0.0
H2932 H 0.26061 0.74816 0.97261 0.0
H2933 H 0.18232 0.73038 0.99524 0.0
H2934 H 0.18401 0.69279 0.98385 0.0
H2935 H 0.23738 0.70475 0.93393 0.0
C2936 C 0.22774 0.78811 0.94765 0.0
C2937 C 0.21399 0.80288 0.95851 0.0
C2938 C 0.19861 0.79644 0.97671 0.0
C2939 C 0.19624 0.77522 0.98295 0.0
C2940 C 0.20963 0.76084 0.9711 0.0
C2941 C 0.22526 0.76713 0.95408 0.0
C2942 C 0.23645 0.74877 0.94201 0.0
C2943 C 0.23449 0.74891 0.91169 0.0
C2944 C 0.25937 0.74821 0.95071 0.0
C2945 C 0.22425 0.73108 0.9541 0.0
C2946 C 0.20895 0.73821 0.97105 0.0
C2947 C 0.19455 0.72463 0.98251 0.0
C2948 C 0.19562 0.70334 0.97603 0.0
C2949 C 0.21091 0.69602 0.95823 0.0
C2950 C 0.22567 0.71 0.9478 0.0
H2951 H 0.54491 0.99147 0.18451 0.0
H2952 H 0.55782 0.93804 0.23394 0.0
H2953 H 0.52022 0.93546 0.24508 0.0
H2954 H 0.50086 0.01353 0.22315 0.0
H2955 H 0.48706 0.02069 0.19352 0.0
H2956 H 0.51513 0.02048 0.1938 0.0
H2957 H 0.51517 0.99541 0.15366 0.0
H2958 H 0.48719 0.99547 0.15332 0.0
H2959 H 0.50111 0.97118 0.15577 0.0
H2960 H 0.48035 0.93622 0.24566 0.0
H2961 H 0.44276 0.93964 0.23465 0.0
H2962 H 0.45688 0.99189 0.18377 0.0
C2963 C 0.53985 0.97955 0.19821 0.0
C2964 C 0.55411 0.96504 0.20858 0.0
C2965 C 0.54705 0.94948 0.22618 0.0
C2966 C 0.52576 0.94791 0.23252 0.0
C2967 C 0.5119 0.9621 0.22115 0.0
C2968 C 0.51878 0.9777 0.20445 0.0
C2969 C 0.50085 0.98955 0.19232 0.0
C2970 C 0.50099 0.01242 0.20124 0.0
C2971 C 0.5011 0.98778 0.16199 0.0
C2972 C 0.48271 0.97786 0.20413 0.0
C2973 C 0.48925 0.96228 0.22106 0.0
C2974 C 0.47509 0.94858 0.23277 0.0
C2975 C 0.45382 0.95062 0.2265 0.0
C2976 C 0.44715 0.96601 0.20846 0.0
C2977 C 0.4617 0.98006 0.19774 0.0
H2978 H 0.25941 0.20663 0.42898 0.0
H2979 H 0.30716 0.19229 0.48646 0.0
H2980 H 0.3098 0.22988 0.49784 0.0
H2981 H 0.28288 0.2502 0.40366 0.0
H2982 H 0.25917 0.26453 0.39799 0.0
H2983 H 0.25875 0.23656 0.39803 0.0
H2984 H 0.23033 0.23683 0.43443 0.0
H2985 H 0.23061 0.26489 0.43444 0.0
H2986 H 0.23493 0.25081 0.46473 0.0
H2987 H 0.31033 0.26983 0.49789 0.0
H2988 H 0.30873 0.30748 0.48654 0.0
H2989 H 0.26052 0.29454 0.42915 0.0
C2990 C 0.27015 0.2114 0.44431 0.0
C2991 C 0.28317 0.1968 0.45682 0.0
C2992 C 0.297 0.20341 0.47684 0.0
C2993 C 0.29857 0.22466 0.48336 0.0
C2994 C 0.28597 0.23888 0.46988 0.0
C2995 C 0.27187 0.23239 0.45094 0.0
C2996 C 0.26144 0.25057 0.43744 0.0
C2997 C 0.26583 0.25045 0.40753 0.0
C2998 C 0.23793 0.25078 0.44311 0.0
C2999 C 0.27233 0.26842 0.45101 0.0
C3000 C 0.28625 0.26152 0.46994 0.0
C3001 C 0.29922 0.27537 0.48346 0.0
C3002 C 0.29822 0.29667 0.47697 0.0
C3003 C 0.28455 0.30369 0.457 0.0
C3004 C 0.27108 0.28947 0.44453 0.0
H3005 H 0.04215 0.00325 0.68742 0.0
H3006 H 0.05753 0.05965 0.72983 0.0
H3007 H 0.02021 0.0644 0.74129 0.0
H3008 H 0.99867 0.02241 0.65734 0.0
H3009 H 0.98391 0.99857 0.65834 0.0
H3010 H 0.01187 0.99765 0.65818 0.0
H3011 H 0.01154 0.97599 0.7014 0.0
H3012 H 0.98348 0.97675 0.70165 0.0
H3013 H 0.99792 0.98578 0.72993 0.0
H3014 H 0.98043 0.06553 0.74182 0.0
H3015 H 0.94272 0.06295 0.73123 0.0
H3016 H 0.95421 0.00581 0.68842 0.0
C3017 C 0.03768 0.01625 0.69981 0.0
C3018 C 0.05255 0.03099 0.70805 0.0
C3019 C 0.04628 0.04803 0.72379 0.0
C3020 C 0.02516 0.05083 0.73029 0.0
C3021 C 0.01067 0.03632 0.72104 0.0
C3022 C 0.01679 0.01924 0.70631 0.0
C3023 C 0.9983 0.00712 0.69612 0.0
C3024 C 0.99819 0.00641 0.66571 0.0
C3025 C 0.99779 0.98511 0.708 0.0
C3026 C 0.98073 0.02034 0.70665 0.0
C3027 C 0.98804 0.03699 0.72128 0.0
C3028 C 0.97455 0.0523 0.7309 0.0
C3029 C 0.9532 0.05073 0.7249 0.0
C3030 C 0.94574 0.03409 0.7093 0.0
C3031 C 0.9596 0.01851 0.70073 0.0
H3032 H 0.81275 0.79295 0.94295 0.0
H3033 H 0.75433 0.80429 0.98305 0.0
H3034 H 0.75263 0.76725 0.99605 0.0
H3035 H 0.7963 0.74867 0.9131 0.0
H3036 H 0.82081 0.73503 0.9141 0.0
H3037 H 0.82044 0.76298 0.91422 0.0
H3038 H 0.84195 0.7633 0.95754 0.0
H3039 H 0.84241 0.73523 0.95753 0.0
H3040 H 0.83267 0.74909 0.98589 0.0
H3041 H 0.75406 0.72842 0.99795 0.0
H3042 H 0.75722 0.69121 0.98598 0.0
H3043 H 0.81364 0.70463 0.94247 0.0
C3044 C 0.80003 0.78769 0.95532 0.0
C3045 C 0.78396 0.80147 0.96263 0.0
C3046 C 0.76715 0.79407 0.97803 0.0
C3047 C 0.76604 0.77304 0.9854 0.0
C3048 C 0.78179 0.75962 0.97705 0.0
C3049 C 0.79849 0.76668 0.96228 0.0
C3050 C 0.81145 0.74875 0.95197 0.0
C3051 C 0.81228 0.74887 0.92156 0.0
C3052 C 0.83342 0.74912 0.96396 0.0
C3053 C 0.79899 0.73048 0.96228 0.0
C3054 C 0.78224 0.73705 0.97729 0.0
C3055 C 0.76738 0.72307 0.98675 0.0
C3056 C 0.76931 0.70198 0.97997 0.0
C3057 C 0.78578 0.69521 0.96359 0.0
C3058 C 0.80114 0.7095 0.95543 0.0
H3059 H 0.68826 0.20605 0.44565 0.0
H3060 H 0.75009 0.19381 0.47591 0.0
H3061 H 0.75451 0.23123 0.48594 0.0
H3062 H 0.70128 0.24971 0.41164 0.0
H3063 H 0.67756 0.26399 0.41744 0.0
H3064 H 0.67732 0.23602 0.41815 0.0
H3065 H 0.66184 0.23657 0.46539 0.0
H3066 H 0.66184 0.26464 0.46476 0.0
H3067 H 0.67494 0.25097 0.49103 0.0
H3068 H 0.7548 0.27002 0.48459 0.0
H3069 H 0.75054 0.30719 0.47315 0.0
H3070 H 0.68815 0.29474 0.44482 0.0
C3071 C 0.70235 0.21125 0.45539 0.0
C3072 C 0.71866 0.19716 0.46063 0.0
C3073 C 0.73723 0.20439 0.47247 0.0
C3074 C 0.73988 0.2256 0.47811 0.0
C3075 C 0.72376 0.23929 0.47187 0.0
C3076 C 0.70524 0.23238 0.46101 0.0
C3077 C 0.69142 0.25046 0.45313 0.0
C3078 C 0.68663 0.25001 0.42333 0.0
C3079 C 0.67132 0.25067 0.46957 0.0
C3080 C 0.70538 0.2686 0.46023 0.0
C3081 C 0.72387 0.26185 0.47131 0.0
C3082 C 0.74014 0.27556 0.47672 0.0
C3083 C 0.73757 0.29664 0.47028 0.0
C3084 C 0.71886 0.30378 0.45868 0.0
C3085 C 0.70244 0.28966 0.45416 0.0
H3086 H 0.75831 0.20843 0.07425 0.0
H3087 H 0.80965 0.1942 0.02199 0.0
H3088 H 0.81266 0.2317 0.01042 0.0
H3089 H 0.73578 0.25241 0.03524 0.0
H3090 H 0.72942 0.26658 0.06487 0.0
H3091 H 0.72923 0.23852 0.06503 0.0
H3092 H 0.75511 0.2385 0.10436 0.0
H3093 H 0.75545 0.26646 0.10425 0.0
H3094 H 0.77949 0.25219 0.10125 0.0
H3095 H 0.81344 0.27152 0.01076 0.0
H3096 H 0.81145 0.30907 0.02236 0.0
H3097 H 0.75898 0.29633 0.07345 0.0
C3098 C 0.76983 0.2132 0.05985 0.0
C3099 C 0.78377 0.19866 0.04893 0.0
C3100 C 0.79875 0.20526 0.0303 0.0
C3101 C 0.80054 0.22648 0.02369 0.0
C3102 C 0.78698 0.24066 0.03562 0.0
C3103 C 0.77173 0.23416 0.05307 0.0
C3104 C 0.76038 0.25236 0.06528 0.0
C3105 C 0.73734 0.25247 0.0571 0.0
C3106 C 0.76276 0.25237 0.09556 0.0
C3107 C 0.77208 0.27022 0.0528 0.0
C3108 C 0.78724 0.2633 0.03551 0.0
C3109 C 0.80129 0.2771 0.02376 0.0
C3110 C 0.80005 0.29836 0.03034 0.0
C3111 C 0.78496 0.30543 0.04856 0.0
C3112 C 0.7705 0.29126 0.05922 0.0
H3113 H 0.68769 0.79363 0.56149 0.0
H3114 H 0.74995 0.80487 0.53204 0.0
H3115 H 0.75329 0.76769 0.52035 0.0
H3116 H 0.70081 0.7496 0.59496 0.0
H3117 H 0.67674 0.73578 0.5897 0.0
H3118 H 0.67698 0.76374 0.58923 0.0
H3119 H 0.66062 0.7636 0.54244 0.0
H3120 H 0.66026 0.73553 0.5428 0.0
H3121 H 0.67307 0.7492 0.5163 0.0
H3122 H 0.75228 0.72888 0.51896 0.0
H3123 H 0.74782 0.69168 0.53031 0.0
H3124 H 0.68698 0.70507 0.5629 0.0
C3125 C 0.70172 0.78829 0.55176 0.0
C3126 C 0.71838 0.8021 0.54706 0.0
C3127 C 0.73677 0.79462 0.53499 0.0
C3128 C 0.73881 0.77351 0.5284 0.0
C3129 C 0.72237 0.76007 0.53419 0.0
C3130 C 0.70415 0.76718 0.54563 0.0
C3131 C 0.69022 0.74925 0.55374 0.0
C3132 C 0.68595 0.74962 0.58367 0.0
C3133 C 0.66983 0.74941 0.53787 0.0
C3134 C 0.70379 0.73095 0.54609 0.0
C3135 C 0.72205 0.7375 0.53424 0.0
C3136 C 0.73786 0.72353 0.52767 0.0
C3137 C 0.73519 0.70246 0.5341 0.0
C3138 C 0.71701 0.69566 0.54724 0.0
C3139 C 0.70088 0.70995 0.55252 0.0
H3140 H 0.54479 0.49347 0.81612 0.0
H3141 H 0.55673 0.43583 0.77469 0.0
H3142 H 0.51923 0.43338 0.7629 0.0
H3143 H 0.50054 0.47763 0.84615 0.0
H3144 H 0.48714 0.50225 0.8447 0.0
H3145 H 0.51508 0.50161 0.84468 0.0
H3146 H 0.5158 0.52262 0.80096 0.0
H3147 H 0.48774 0.52345 0.80091 0.0
H3148 H 0.5015 0.51323 0.77274 0.0
H3149 H 0.47951 0.4344 0.76287 0.0
H3150 H 0.44217 0.43881 0.77454 0.0
H3151 H 0.45702 0.49598 0.81555 0.0
C3152 C 0.53956 0.48076 0.80372 0.0
C3153 C 0.55345 0.46498 0.79593 0.0
C3154 C 0.54622 0.44824 0.78035 0.0
C3155 C 0.52499 0.44675 0.77365 0.0
C3156 C 0.51143 0.46227 0.78252 0.0
C3157 C 0.51857 0.4791 0.79699 0.0
C3158 C 0.50084 0.49238 0.80702 0.0
C3159 C 0.50091 0.49351 0.83742 0.0
C3160 C 0.50151 0.51421 0.79465 0.0
C3161 C 0.4825 0.48004 0.79688 0.0
C3162 C 0.48878 0.46286 0.78246 0.0
C3163 C 0.47443 0.44808 0.77355 0.0
C3164 C 0.45329 0.45069 0.78015 0.0
C3165 C 0.4469 0.46784 0.79561 0.0
C3166 C 0.46159 0.48293 0.80332 0.0
H3167 H 0.04633 0.50665 0.3157 0.0
H3168 H 0.05926 0.5656 0.27779 0.0
H3169 H 0.02173 0.56942 0.26687 0.0
H3170 H 0.0021 0.4897 0.2722 0.0
H3171 H 0.98835 0.4788 0.29997 0.0
H3172 H 0.01642 0.47892 0.29959 0.0
H3173 H 0.0167 0.49833 0.3445 0.0
H3174 H 0.98874 0.49836 0.34497 0.0
H3175 H 0.00277 0.52257 0.34762 0.0
H3176 H 0.98205 0.56931 0.26723 0.0
H3177 H 0.9447 0.56532 0.27901 0.0
H3178 H 0.95845 0.50647 0.31671 0.0
C3179 C 0.04129 0.52 0.3043 0.0
C3180 C 0.05549 0.53575 0.29728 0.0
C3181 C 0.0485 0.55326 0.2829 0.0
C3182 C 0.02726 0.55552 0.27669 0.0
C3183 C 0.01341 0.54001 0.28483 0.0
C3184 C 0.02027 0.52248 0.29812 0.0
C3185 C 0.00231 0.50928 0.30767 0.0
C3186 C 0.0023 0.48791 0.29403 0.0
C3187 C 0.00266 0.50702 0.33797 0.0
C3188 C 0.98419 0.52244 0.29859 0.0
C3189 C 0.99077 0.53997 0.28509 0.0
C3190 C 0.97673 0.55539 0.2772 0.0
C3191 C 0.95558 0.55302 0.28386 0.0
C3192 C 0.94888 0.53548 0.29839 0.0
C3193 C 0.96325 0.51981 0.30513 0.0
H3194 H 0.04379 0.43278 0.69525 0.0
H3195 H 0.05631 0.49299 0.73016 0.0
H3196 H 0.01942 0.49593 0.74346 0.0
H3197 H 0.99945 0.4472 0.66487 0.0
H3198 H 0.98545 0.42309 0.66892 0.0
H3199 H 0.0134 0.42302 0.6686 0.0
H3200 H 0.01394 0.40478 0.71425 0.0
H3201 H 0.98586 0.40469 0.71466 0.0
H3202 H 1.0001 0.41625 0.74158 0.0
H3203 H 0.98062 0.49585 0.74421 0.0
H3204 H 0.94344 0.49276 0.73224 0.0
H3205 H 0.95543 0.4326 0.69689 0.0
C3206 C 0.0388 0.44623 0.70647 0.0
C3207 C 0.05277 0.46262 0.71184 0.0
C3208 C 0.04585 0.48013 0.72627 0.0
C3209 C 0.02491 0.48193 0.73385 0.0
C3210 C 0.01119 0.46598 0.72701 0.0
C3211 C 0.0179 0.44833 0.71387 0.0
C3212 C 0.99969 0.43493 0.70534 0.0
C3213 C 0.99949 0.4319 0.67516 0.0
C3214 C 0.99992 0.41392 0.71983 0.0
C3215 C 0.98167 0.44832 0.71443 0.0
C3216 C 0.9886 0.46596 0.7274 0.0
C3217 C 0.97497 0.48184 0.73478 0.0
C3218 C 0.95387 0.47995 0.72798 0.0
C3219 C 0.94669 0.4624 0.71381 0.0
C3220 C 0.96061 0.44607 0.70794 0.0
H3221 H 0.45507 0.51067 0.1808 0.0
H3222 H 0.44213 0.56116 0.23489 0.0
H3223 H 0.47978 0.56328 0.24605 0.0
H3224 H 0.4993 0.48672 0.21774 0.0
H3225 H 0.51298 0.48101 0.18753 0.0
H3226 H 0.48491 0.48113 0.18801 0.0
H3227 H 0.4847 0.50801 0.1498 0.0
H3228 H 0.51268 0.50813 0.14934 0.0
H3229 H 0.49863 0.53218 0.15367 0.0
H3230 H 0.51962 0.56294 0.24585 0.0
H3231 H 0.55717 0.56016 0.23444 0.0
H3232 H 0.54305 0.51011 0.1801 0.0
C3233 C 0.46015 0.52181 0.19551 0.0
C3234 C 0.44593 0.53578 0.20705 0.0
C3235 C 0.45293 0.55024 0.22608 0.0
C3236 C 0.47423 0.55153 0.23245 0.0
C3237 C 0.48809 0.53805 0.21978 0.0
C3238 C 0.48121 0.52331 0.20189 0.0
C3239 C 0.49911 0.51211 0.18878 0.0
C3240 C 0.49907 0.48886 0.19596 0.0
C3241 C 0.49875 0.51532 0.15863 0.0
C3242 C 0.51726 0.52328 0.20134 0.0
C3243 C 0.51073 0.538 0.21947 0.0
C3244 C 0.52488 0.55123 0.23203 0.0
C3245 C 0.54611 0.54957 0.22548 0.0
C3246 C 0.5528 0.53502 0.20634 0.0
C3247 C 0.53825 0.52141 0.19475 0.0
loop_
_geom_bond_atom_site_label_1
_geom_bond_atom_site_label_2
_geom_bond_distance
_geom_bond_site_symmetry_2
_ccdc_geom_bond_type
Co0 O3 1.970 . S
Co0 N17 1.989 . S
Co0 O25 1.967 . S
Co0 O32 1.920 . S
Co1 O4 1.966 . S
Co1 N10 2.022 . S
Co1 N18 1.993 . S
Co1 O26 1.941 . S
C2 O3 1.258 . S
C2 O4 1.263 . S
O3 Co0 1.970 . S
O3 C2 1.258 . S
O4 Co1 1.966 . S
O4 C2 1.263 . S
C5 O6 1.235 . S
C5 O32 1.289 . S
O6 C5 1.235 . S
C7 C9 1.400 1_554 S
C7 N10 1.351 . S
C7 C12 1.501 . S
C8 C9 1.387 . S
C8 N11 1.341 1_556 S
C9 C7 1.400 1_556 S
C9 C8 1.387 . S
N10 Co1 2.022 . S
N10 C7 1.351 . S
N10 N11 1.365 . S
N11 C8 1.341 1_554 S
N11 N10 1.365 . S
N11 H31 0.862 . S
C12 C7 1.501 . S
C12 H13 0.961 . S
C12 H14 0.961 . S
C12 H15 0.960 . S
H13 C12 0.961 . S
H14 C12 0.961 . S
H15 C12 0.960 . S
C16 N17 1.342 . S
C16 C20 1.401 . S
C16 C21 1.499 . S
N17 Co0 1.989 . S
N17 C16 1.342 . S
N17 N18 1.388 . S
N18 Co1 1.993 . S
N18 N17 1.388 . S
N18 C19 1.346 . S
C19 N18 1.346 . S
C19 C20 1.396 . S
C19 C29 1.510 . S
C20 C16 1.401 . S
C20 C19 1.396 . S
C21 C16 1.499 . S
C21 H22 0.959 . S
C21 H23 0.960 . S
C21 H24 0.961 . S
H22 C21 0.959 . S
H23 C21 0.960 . S
H24 C21 0.961 . S
O25 Co0 1.967 . S
O25 C33 1.258 . S
O26 Co1 1.941 . S
O26 C33 1.266 . S
H27 C29 0.959 . S
H28 C29 0.961 . S
C29 C19 1.510 . S
C29 H27 0.959 . S
C29 H28 0.961 . S
C29 H30 0.960 . S
H30 C29 0.960 . S
H31 N11 0.862 . S
O32 Co0 1.920 . S
O32 C5 1.289 . S
C33 O25 1.258 . S
C33 O26 1.266 . S
Co34 O37 1.970 1_565 S
Co34 N51 1.989 . S
Co34 O59 1.967 . S
Co34 O66 1.920 . S
Co35 O38 1.966 . S
Co35 N44 2.022 . S
Co35 N52 1.993 . S
Co35 O60 1.941 . S
C36 O37 1.258 . S
C36 O38 1.263 1_545 S
O37 Co34 1.970 1_545 S
O37 C36 1.258 . S
O38 Co35 1.966 . S
O38 C36 1.263 1_565 S
C39 O40 1.235 1_565 S
C39 O66 1.289 . S
O40 C39 1.235 1_545 S
C41 C43 1.400 . S
C41 N44 1.351 . S
C41 C46 1.501 1_565 S
C42 C43 1.387 . S
C42 N45 1.341 . S
C43 C41 1.400 . S
C43 C42 1.387 . S
N44 Co35 2.022 . S
N44 C41 1.351 . S
N44 N45 1.365 . S
N45 C42 1.341 . S
N45 N44 1.365 . S
N45 H65 0.862 . S
C46 C41 1.501 1_545 S
C46 H47 0.961 . S
C46 H48 0.961 . S
C46 H49 0.960 . S
H47 C46 0.961 . S
H48 C46 0.961 . S
H49 C46 0.960 . S
C50 N51 1.342 . S
C50 C54 1.401 . S
C50 C55 1.499 . S
N51 Co34 1.989 . S
N51 C50 1.342 . S
N51 N52 1.388 . S
N52 Co35 1.993 . S
N52 N51 1.388 . S
N52 C53 1.346 . S
C53 N52 1.346 . S
C53 C54 1.396 . S
C53 C63 1.510 . S
C54 C50 1.401 . S
C54 C53 1.396 . S
C55 C50 1.499 . S
C55 H56 0.959 . S
C55 H57 0.960 . S
C55 H58 0.961 . S
H56 C55 0.959 . S
H57 C55 0.960 . S
H58 C55 0.961 . S
O59 Co34 1.967 . S
O59 C67 1.258 . S
O60 Co35 1.941 . S
O60 C67 1.266 . S
H61 C63 0.959 . S
H62 C63 0.961 . S
C63 C53 1.510 . S
C63 H61 0.959 . S
C63 H62 0.961 . S
C63 H64 0.960 . S
H64 C63 0.960 . S
H65 N45 0.862 . S
O66 Co34 1.920 . S
O66 C39 1.289 . S
C67 O59 1.258 . S
C67 O60 1.266 . S
Co68 O71 1.970 . S
Co68 N85 1.989 . S
Co68 O93 1.967 . S
Co68 O100 1.920 . S
Co69 O72 1.966 . S
Co69 N78 2.022 . S
Co69 N86 1.993 . S
Co69 O94 1.941 . S
C70 O71 1.258 . S
C70 O72 1.263 . S
O71 Co68 1.970 . S
O71 C70 1.258 . S
O72 Co69 1.966 . S
O72 C70 1.263 . S
C73 O74 1.235 . S
C73 O100 1.289 . S
O74 C73 1.235 . S
C75 C77 1.400 . S
C75 N78 1.351 . S
C75 C80 1.501 . S
C76 C77 1.387 . S
C76 N79 1.341 . S
C77 C75 1.400 . S
C77 C76 1.387 . S
N78 Co69 2.022 . S
N78 C75 1.351 . S
N78 N79 1.365 . S
N79 C76 1.341 . S
N79 N78 1.365 . S
N79 H99 0.862 . S
C80 C75 1.501 . S
C80 H81 0.961 . S
C80 H82 0.961 . S
C80 H83 0.960 . S
H81 C80 0.961 . S
H82 C80 0.961 . S
H83 C80 0.960 . S
C84 N85 1.342 . S
C84 C88 1.401 . S
C84 C89 1.499 . S
N85 Co68 1.989 . S
N85 C84 1.342 . S
N85 N86 1.388 . S
N86 Co69 1.993 . S
N86 N85 1.388 . S
N86 C87 1.346 . S
C87 N86 1.346 . S
C87 C88 1.396 . S
C87 C97 1.510 . S
C88 C84 1.401 . S
C88 C87 1.396 . S
C89 C84 1.499 . S
C89 H90 0.959 . S
C89 H91 0.960 . S
C89 H92 0.961 . S
H90 C89 0.959 . S
H91 C89 0.960 . S
H92 C89 0.961 . S
O93 Co68 1.967 . S
O93 C101 1.258 . S
O94 Co69 1.941 . S
O94 C101 1.266 . S
H95 C97 0.959 . S
H96 C97 0.961 . S
C97 C87 1.510 . S
C97 H95 0.959 . S
C97 H96 0.961 . S
C97 H98 0.960 . S
H98 C97 0.960 . S
H99 N79 0.862 . S
O100 Co68 1.920 . S
O100 C73 1.289 . S
C101 O93 1.258 . S
C101 O94 1.266 . S
Co102 O105 1.970 1_545 S
Co102 N119 1.989 . S
Co102 O127 1.967 . S
Co102 O134 1.920 . S
Co103 O106 1.966 . S
Co103 N112 2.022 . S
Co103 N120 1.993 . S
Co103 O128 1.941 . S
C104 O105 1.258 . S
C104 O106 1.263 1_565 S
O105 Co102 1.970 1_565 S
O105 C104 1.258 . S
O106 Co103 1.966 . S
O106 C104 1.263 1_545 S
C107 O108 1.235 1_545 S
C107 O134 1.289 . S
O108 C107 1.235 1_565 S
C109 C111 1.400 . S
C109 N112 1.351 . S
C109 C114 1.501 1_545 S
C110 C111 1.387 . S
C110 N113 1.341 . S
C111 C109 1.400 . S
C111 C110 1.387 . S
N112 Co103 2.022 . S
N112 C109 1.351 . S
N112 N113 1.365 . S
N113 C110 1.341 . S
N113 N112 1.365 . S
N113 H133 0.862 . S
C114 C109 1.501 1_565 S
C114 H115 0.961 . S
C114 H116 0.961 . S
C114 H117 0.960 . S
H115 C114 0.961 . S
H116 C114 0.961 . S
H117 C114 0.960 . S
C118 N119 1.342 . S
C118 C122 1.401 . S
C118 C123 1.499 . S
N119 Co102 1.989 . S
N119 C118 1.342 . S
N119 N120 1.388 . S
N120 Co103 1.993 . S
N120 N119 1.388 . S
N120 C121 1.346 . S
C121 N120 1.346 . S
C121 C122 1.396 . S
C121 C131 1.510 . S
C122 C118 1.401 . S
C122 C121 1.396 . S
C123 C118 1.499 . S
C123 H124 0.959 . S
C123 H125 0.960 . S
C123 H126 0.961 . S
H124 C123 0.959 . S
H125 C123 0.960 . S
H126 C123 0.961 . S
O127 Co102 1.967 . S
O127 C135 1.258 . S
O128 Co103 1.941 . S
O128 C135 1.266 . S
H129 C131 0.959 . S
H130 C131 0.961 . S
C131 C121 1.510 . S
C131 H129 0.959 . S
C131 H130 0.961 . S
C131 H132 0.960 . S
H132 C131 0.960 . S
H133 N113 0.862 . S
O134 Co102 1.920 . S
O134 C107 1.289 . S
C135 O127 1.258 . S
C135 O128 1.266 . S
Co136 O139 1.970 . S
Co136 N153 1.989 . S
Co136 O161 1.967 . S
Co136 O168 1.920 . S
Co137 O140 1.966 . S
Co137 N146 2.022 . S
Co137 N154 1.993 . S
Co137 O162 1.941 . S
C138 O139 1.258 . S
C138 O140 1.263 . S
O139 Co136 1.970 . S
O139 C138 1.258 . S
O140 Co137 1.966 . S
O140 C138 1.263 . S
C141 O142 1.235 . S
C141 O168 1.289 . S
O142 C141 1.235 . S
C143 C145 1.400 1_556 S
C143 N146 1.351 . S
C143 C148 1.501 . S
C144 C145 1.387 . S
C144 N147 1.341 1_554 S
C145 C143 1.400 1_554 S
C145 C144 1.387 . S
N146 Co137 2.022 . S
N146 C143 1.351 . S
N146 N147 1.365 . S
N147 C144 1.341 1_556 S
N147 N146 1.365 . S
N147 H167 0.862 . S
C148 C143 1.501 . S
C148 H149 0.961 . S
C148 H150 0.961 . S
C148 H151 0.960 . S
H149 C148 0.961 . S
H150 C148 0.961 . S
H151 C148 0.960 . S
C152 N153 1.342 . S
C152 C156 1.401 . S
C152 C157 1.499 . S
N153 Co136 1.989 . S
N153 C152 1.342 . S
N153 N154 1.388 . S
N154 Co137 1.993 . S
N154 N153 1.388 . S
N154 C155 1.346 . S
C155 N154 1.346 . S
C155 C156 1.396 . S
C155 C165 1.510 . S
C156 C152 1.401 . S
C156 C155 1.396 . S
C157 C152 1.499 . S
C157 H158 0.959 . S
C157 H159 0.960 . S
C157 H160 0.961 . S
H158 C157 0.959 . S
H159 C157 0.960 . S
H160 C157 0.961 . S
O161 Co136 1.967 . S
O161 C169 1.258 . S
O162 Co137 1.941 . S
O162 C169 1.266 . S
H163 C165 0.959 . S
H164 C165 0.961 . S
C165 C155 1.510 . S
C165 H163 0.959 . S
C165 H164 0.961 . S
C165 H166 0.960 . S
H166 C165 0.960 . S
H167 N147 0.862 . S
O168 Co136 1.920 . S
O168 C141 1.289 . S
C169 O161 1.258 . S
C169 O162 1.266 . S
Co170 O173 1.970 1_565 S
Co170 N187 1.989 . S
Co170 O195 1.967 . S
Co170 O202 1.920 . S
Co171 O174 1.966 . S
Co171 N180 2.022 . S
Co171 N188 1.993 . S
Co171 O196 1.941 . S
C172 O173 1.258 . S
C172 O174 1.263 1_545 S
O173 Co170 1.970 1_545 S
O173 C172 1.258 . S
O174 Co171 1.966 . S
O174 C172 1.263 1_565 S
C175 O176 1.235 1_565 S
C175 O202 1.289 . S
O176 C175 1.235 1_545 S
C177 C179 1.400 . S
C177 N180 1.351 . S
C177 C182 1.501 1_565 S
C178 C179 1.387 . S
C178 N181 1.341 . S
C179 C177 1.400 . S
C179 C178 1.387 . S
N180 Co171 2.022 . S
N180 C177 1.351 . S
N180 N181 1.365 . S
N181 C178 1.341 . S
N181 N180 1.365 . S
N181 H201 0.862 . S
C182 C177 1.501 1_545 S
C182 H183 0.961 . S
C182 H184 0.961 . S
C182 H185 0.960 . S
H183 C182 0.961 . S
H184 C182 0.961 . S
H185 C182 0.960 . S
C186 N187 1.342 . S
C186 C190 1.401 . S
C186 C191 1.499 . S
N187 Co170 1.989 . S
N187 C186 1.342 . S
N187 N188 1.388 . S
N188 Co171 1.993 . S
N188 N187 1.388 . S
N188 C189 1.346 . S
C189 N188 1.346 . S
C189 C190 1.396 . S
C189 C199 1.510 . S
C190 C186 1.401 . S
C190 C189 1.396 . S
C191 C186 1.499 . S
C191 H192 0.959 . S
C191 H193 0.960 . S
C191 H194 0.961 . S
H192 C191 0.959 . S
H193 C191 0.960 . S
H194 C191 0.961 . S
O195 Co170 1.967 . S
O195 C203 1.258 . S
O196 Co171 1.941 . S
O196 C203 1.266 . S
H197 C199 0.959 . S
H198 C199 0.961 . S
C199 C189 1.510 . S
C199 H197 0.959 . S
C199 H198 0.961 . S
C199 H200 0.960 . S
H200 C199 0.960 . S
H201 N181 0.862 . S
O202 Co170 1.920 . S
O202 C175 1.289 . S
C203 O195 1.258 . S
C203 O196 1.266 . S
Co204 O207 1.970 . S
Co204 N221 1.989 . S
Co204 O229 1.967 . S
Co204 O236 1.920 . S
Co205 O208 1.966 . S
Co205 N214 2.022 . S
Co205 N222 1.993 . S
Co205 O230 1.941 . S
C206 O207 1.258 . S
C206 O208 1.263 . S
O207 Co204 1.970 . S
O207 C206 1.258 . S
O208 Co205 1.966 . S
O208 C206 1.263 . S
C209 O210 1.235 . S
C209 O236 1.289 . S
O210 C209 1.235 . S
C211 C213 1.400 . S
C211 N214 1.351 . S
C211 C216 1.501 . S
C212 C213 1.387 . S
C212 N215 1.341 . S
C213 C211 1.400 . S
C213 C212 1.387 . S
N214 Co205 2.022 . S
N214 C211 1.351 . S
N214 N215 1.365 . S
N215 C212 1.341 . S
N215 N214 1.365 . S
N215 H235 0.862 . S
C216 C211 1.501 . S
C216 H217 0.961 . S
C216 H218 0.961 . S
C216 H219 0.960 . S
H217 C216 0.961 . S
H218 C216 0.961 . S
H219 C216 0.960 . S
C220 N221 1.342 . S
C220 C224 1.401 . S
C220 C225 1.499 . S
N221 Co204 1.989 . S
N221 C220 1.342 . S
N221 N222 1.388 . S
N222 Co205 1.993 . S
N222 N221 1.388 . S
N222 C223 1.346 . S
C223 N222 1.346 . S
C223 C224 1.396 . S
C223 C233 1.510 . S
C224 C220 1.401 . S
C224 C223 1.396 . S
C225 C220 1.499 . S
C225 H226 0.959 . S
C225 H227 0.960 . S
C225 H228 0.961 . S
H226 C225 0.959 . S
H227 C225 0.960 . S
H228 C225 0.961 . S
O229 Co204 1.967 . S
O229 C237 1.258 . S
O230 Co205 1.941 . S
O230 C237 1.266 . S
H231 C233 0.959 . S
H232 C233 0.961 . S
C233 C223 1.510 . S
C233 H231 0.959 . S
C233 H232 0.961 . S
C233 H234 0.960 . S
H234 C233 0.960 . S
H235 N215 0.862 . S
O236 Co204 1.920 . S
O236 C209 1.289 . S
C237 O229 1.258 . S
C237 O230 1.266 . S
Co238 O241 1.970 1_545 S
Co238 N255 1.989 . S
Co238 O263 1.967 . S
Co238 O270 1.920 . S
Co239 O242 1.966 . S
Co239 N248 2.022 . S
Co239 N256 1.993 . S
Co239 O264 1.941 . S
C240 O241 1.258 . S
C240 O242 1.263 1_565 S
O241 Co238 1.970 1_565 S
O241 C240 1.258 . S
O242 Co239 1.966 . S
O242 C240 1.263 1_545 S
C243 O244 1.235 1_545 S
C243 O270 1.289 . S
O244 C243 1.235 1_565 S
C245 C247 1.400 . S
C245 N248 1.351 . S
C245 C250 1.501 1_545 S
C246 C247 1.387 . S
C246 N249 1.341 . S
C247 C245 1.400 . S
C247 C246 1.387 . S
N248 Co239 2.022 . S
N248 C245 1.351 . S
N248 N249 1.365 . S
N249 C246 1.341 . S
N249 N248 1.365 . S
N249 H269 0.862 . S
C250 C245 1.501 1_565 S
C250 H251 0.961 . S
C250 H252 0.961 . S
C250 H253 0.960 . S
H251 C250 0.961 . S
H252 C250 0.961 . S
H253 C250 0.960 . S
C254 N255 1.342 . S
C254 C258 1.401 . S
C254 C259 1.499 . S
N255 Co238 1.989 . S
N255 C254 1.342 . S
N255 N256 1.388 . S
N256 Co239 1.993 . S
N256 N255 1.388 . S
N256 C257 1.346 . S
C257 N256 1.346 . S
C257 C258 1.396 . S
C257 C267 1.510 . S
C258 C254 1.401 . S
C258 C257 1.396 . S
C259 C254 1.499 . S
C259 H260 0.959 . S
C259 H261 0.960 . S
C259 H262 0.961 . S
H260 C259 0.959 . S
H261 C259 0.960 . S
H262 C259 0.961 . S
O263 Co238 1.967 . S
O263 C271 1.258 . S
O264 Co239 1.941 . S
O264 C271 1.266 . S
H265 C267 0.959 . S
H266 C267 0.961 . S
C267 C257 1.510 . S
C267 H265 0.959 . S
C267 H266 0.961 . S
C267 H268 0.960 . S
H268 C267 0.960 . S
H269 N249 0.862 . S
O270 Co238 1.920 . S
O270 C243 1.289 . S
C271 O263 1.258 . S
C271 O264 1.266 . S
Co272 O275 1.970 . S
Co272 N289 1.989 . S
Co272 O297 1.967 . S
Co272 O304 1.920 . S
Co273 O276 1.966 . S
Co273 N282 2.022 . S
Co273 N290 1.993 . S
Co273 O298 1.941 . S
C274 O275 1.258 . S
C274 O276 1.263 . S
O275 Co272 1.970 . S
O275 C274 1.258 . S
O276 Co273 1.966 . S
O276 C274 1.263 . S
C277 O278 1.235 . S
C277 O304 1.289 . S
O278 C277 1.235 . S
C279 C281 1.400 1_556 S
C279 N282 1.351 . S
C279 C284 1.501 . S
C280 C281 1.387 . S
C280 N283 1.341 1_554 S
C281 C279 1.400 1_554 S
C281 C280 1.387 . S
N282 Co273 2.022 . S
N282 C279 1.351 . S
N282 N283 1.365 . S
N283 C280 1.341 1_556 S
N283 N282 1.365 . S
N283 H303 0.862 . S
C284 C279 1.501 . S
C284 H285 0.961 . S
C284 H286 0.961 . S
C284 H287 0.960 . S
H285 C284 0.961 . S
H286 C284 0.961 . S
H287 C284 0.960 . S
C288 N289 1.342 . S
C288 C292 1.401 . S
C288 C293 1.499 . S
N289 Co272 1.989 . S
N289 C288 1.342 . S
N289 N290 1.388 . S
N290 Co273 1.993 . S
N290 N289 1.388 . S
N290 C291 1.346 . S
C291 N290 1.346 . S
C291 C292 1.396 . S
C291 C301 1.510 . S
C292 C288 1.401 . S
C292 C291 1.396 . S
C293 C288 1.499 . S
C293 H294 0.959 . S
C293 H295 0.960 . S
C293 H296 0.961 . S
H294 C293 0.959 . S
H295 C293 0.960 . S
H296 C293 0.961 . S
O297 Co272 1.967 . S
O297 C305 1.258 . S
O298 Co273 1.941 . S
O298 C305 1.266 . S
H299 C301 0.959 . S
H300 C301 0.961 . S
C301 C291 1.510 . S
C301 H299 0.959 . S
C301 H300 0.961 . S
C301 H302 0.960 . S
H302 C301 0.960 . S
H303 N283 0.862 . S
O304 Co272 1.920 . S
O304 C277 1.289 . S
C305 O297 1.258 . S
C305 O298 1.266 . S
Co306 O309 1.970 1_545 S
Co306 N323 1.989 . S
Co306 O331 1.967 . S
Co306 O338 1.920 . S
Co307 O310 1.966 . S
Co307 N316 2.022 . S
Co307 N324 1.993 . S
Co307 O332 1.941 . S
C308 O309 1.258 . S
C308 O310 1.263 1_565 S
O309 Co306 1.970 1_565 S
O309 C308 1.258 . S
O310 Co307 1.966 . S
O310 C308 1.263 1_545 S
C311 O312 1.235 1_545 S
C311 O338 1.289 . S
O312 C311 1.235 1_565 S
C313 C315 1.400 . S
C313 N316 1.351 . S
C313 C318 1.501 1_545 S
C314 C315 1.387 . S
C314 N317 1.341 . S
C315 C313 1.400 . S
C315 C314 1.387 . S
N316 Co307 2.022 . S
N316 C313 1.351 . S
N316 N317 1.365 . S
N317 C314 1.341 . S
N317 N316 1.365 . S
N317 H337 0.862 . S
C318 C313 1.501 1_565 S
C318 H319 0.961 . S
C318 H320 0.961 . S
C318 H321 0.960 . S
H319 C318 0.961 . S
H320 C318 0.961 . S
H321 C318 0.960 . S
C322 N323 1.342 . S
C322 C326 1.401 . S
C322 C327 1.499 . S
N323 Co306 1.989 . S
N323 C322 1.342 . S
N323 N324 1.388 . S
N324 Co307 1.993 . S
N324 N323 1.388 . S
N324 C325 1.346 . S
C325 N324 1.346 . S
C325 C326 1.396 . S
C325 C335 1.510 . S
C326 C322 1.401 . S
C326 C325 1.396 . S
C327 C322 1.499 . S
C327 H328 0.959 . S
C327 H329 0.960 . S
C327 H330 0.961 . S
H328 C327 0.959 . S
H329 C327 0.960 . S
H330 C327 0.961 . S
O331 Co306 1.967 . S
O331 C339 1.258 . S
O332 Co307 1.941 . S
O332 C339 1.266 . S
H333 C335 0.959 . S
H334 C335 0.961 . S
C335 C325 1.510 . S
C335 H333 0.959 . S
C335 H334 0.961 . S
C335 H336 0.960 . S
H336 C335 0.960 . S
H337 N317 0.862 . S
O338 Co306 1.920 . S
O338 C311 1.289 . S
C339 O331 1.258 . S
C339 O332 1.266 . S
Co340 O343 1.970 . S
Co340 N357 1.989 . S
Co340 O365 1.967 . S
Co340 O372 1.920 . S
Co341 O344 1.966 . S
Co341 N350 2.022 . S
Co341 N358 1.993 . S
Co341 O366 1.941 . S
C342 O343 1.258 . S
C342 O344 1.263 . S
O343 Co340 1.970 . S
O343 C342 1.258 . S
O344 Co341 1.966 . S
O344 C342 1.263 . S
C345 O346 1.235 . S
C345 O372 1.289 . S
O346 C345 1.235 . S
C347 C349 1.400 . S
C347 N350 1.351 . S
C347 C352 1.501 . S
C348 C349 1.387 . S
C348 N351 1.341 . S
C349 C347 1.400 . S
C349 C348 1.387 . S
N350 Co341 2.022 . S
N350 C347 1.351 . S
N350 N351 1.365 . S
N351 C348 1.341 . S
N351 N350 1.365 . S
N351 H371 0.862 . S
C352 C347 1.501 . S
C352 H353 0.961 . S
C352 H354 0.961 . S
C352 H355 0.960 . S
H353 C352 0.961 . S
H354 C352 0.961 . S
H355 C352 0.960 . S
C356 N357 1.342 . S
C356 C360 1.401 . S
C356 C361 1.499 . S
N357 Co340 1.989 . S
N357 C356 1.342 . S
N357 N358 1.388 . S
N358 Co341 1.993 . S
N358 N357 1.388 . S
N358 C359 1.346 . S
C359 N358 1.346 . S
C359 C360 1.396 . S
C359 C369 1.510 . S
C360 C356 1.401 . S
C360 C359 1.396 . S
C361 C356 1.499 . S
C361 H362 0.959 . S
C361 H363 0.960 . S
C361 H364 0.961 . S
H362 C361 0.959 . S
H363 C361 0.960 . S
H364 C361 0.961 . S
O365 Co340 1.967 . S
O365 C373 1.258 . S
O366 Co341 1.941 . S
O366 C373 1.266 . S
H367 C369 0.959 . S
H368 C369 0.961 . S
C369 C359 1.510 . S
C369 H367 0.959 . S
C369 H368 0.961 . S
C369 H370 0.960 . S
H370 C369 0.960 . S
H371 N351 0.862 . S
O372 Co340 1.920 . S
O372 C345 1.289 . S
C373 O365 1.258 . S
C373 O366 1.266 . S
Co374 O377 1.970 1_565 S
Co374 N391 1.989 . S
Co374 O399 1.967 . S
Co374 O406 1.920 . S
Co375 O378 1.966 . S
Co375 N384 2.022 . S
Co375 N392 1.993 . S
Co375 O400 1.941 . S
C376 O377 1.258 . S
C376 O378 1.263 1_545 S
O377 Co374 1.970 1_545 S
O377 C376 1.258 . S
O378 Co375 1.966 . S
O378 C376 1.263 1_565 S
C379 O380 1.235 1_565 S
C379 O406 1.289 . S
O380 C379 1.235 1_545 S
C381 C383 1.400 . S
C381 N384 1.351 . S
C381 C386 1.501 1_565 S
C382 C383 1.387 . S
C382 N385 1.341 . S
C383 C381 1.400 . S
C383 C382 1.387 . S
N384 Co375 2.022 . S
N384 C381 1.351 . S
N384 N385 1.365 . S
N385 C382 1.341 . S
N385 N384 1.365 . S
N385 H405 0.862 . S
C386 C381 1.501 1_545 S
C386 H387 0.961 . S
C386 H388 0.961 . S
C386 H389 0.960 . S
H387 C386 0.961 . S
H388 C386 0.961 . S
H389 C386 0.960 . S
C390 N391 1.342 . S
C390 C394 1.401 . S
C390 C395 1.499 . S
N391 Co374 1.989 . S
N391 C390 1.342 . S
N391 N392 1.388 . S
N392 Co375 1.993 . S
N392 N391 1.388 . S
N392 C393 1.346 . S
C393 N392 1.346 . S
C393 C394 1.396 . S
C393 C403 1.510 . S
C394 C390 1.401 . S
C394 C393 1.396 . S
C395 C390 1.499 . S
C395 H396 0.959 . S
C395 H397 0.960 . S
C395 H398 0.961 . S
H396 C395 0.959 . S
H397 C395 0.960 . S
H398 C395 0.961 . S
O399 Co374 1.967 . S
O399 C407 1.258 . S
O400 Co375 1.941 . S
O400 C407 1.266 . S
H401 C403 0.959 . S
H402 C403 0.961 . S
C403 C393 1.510 . S
C403 H401 0.959 . S
C403 H402 0.961 . S
C403 H404 0.960 . S
H404 C403 0.960 . S
H405 N385 0.862 . S
O406 Co374 1.920 . S
O406 C379 1.289 . S
C407 O399 1.258 . S
C407 O400 1.266 . S
Co408 O411 1.970 . S
Co408 N425 1.989 . S
Co408 O433 1.967 . S
Co408 O440 1.920 . S
Co409 O412 1.966 . S
Co409 N418 2.022 . S
Co409 N426 1.993 . S
Co409 O434 1.941 . S
C410 O411 1.258 . S
C410 O412 1.263 . S
O411 Co408 1.970 . S
O411 C410 1.258 . S
O412 Co409 1.966 . S
O412 C410 1.263 . S
C413 O414 1.235 . S
C413 O440 1.289 . S
O414 C413 1.235 . S
C415 C417 1.400 1_554 S
C415 N418 1.351 . S
C415 C420 1.501 . S
C416 C417 1.387 . S
C416 N419 1.341 1_556 S
C417 C415 1.400 1_556 S
C417 C416 1.387 . S
N418 Co409 2.022 . S
N418 C415 1.351 . S
N418 N419 1.365 . S
N419 C416 1.341 1_554 S
N419 N418 1.365 . S
N419 H439 0.862 . S
C420 C415 1.501 . S
C420 H421 0.961 . S
C420 H422 0.961 . S
C420 H423 0.960 . S
H421 C420 0.961 . S
H422 C420 0.961 . S
H423 C420 0.960 . S
C424 N425 1.342 . S
C424 C428 1.401 . S
C424 C429 1.499 . S
N425 Co408 1.989 . S
N425 C424 1.342 . S
N425 N426 1.388 . S
N426 Co409 1.993 . S
N426 N425 1.388 . S
N426 C427 1.346 . S
C427 N426 1.346 . S
C427 C428 1.396 . S
C427 C437 1.510 . S
C428 C424 1.401 . S
C428 C427 1.396 . S
C429 C424 1.499 . S
C429 H430 0.959 . S
C429 H431 0.960 . S
C429 H432 0.961 . S
H430 C429 0.959 . S
H431 C429 0.960 . S
H432 C429 0.961 . S
O433 Co408 1.967 . S
O433 C441 1.258 . S
O434 Co409 1.941 . S
O434 C441 1.266 . S
H435 C437 0.959 . S
H436 C437 0.961 . S
C437 C427 1.510 . S
C437 H435 0.959 . S
C437 H436 0.961 . S
C437 H438 0.960 . S
H438 C437 0.960 . S
H439 N419 0.862 . S
O440 Co408 1.920 . S
O440 C413 1.289 . S
C441 O433 1.258 . S
C441 O434 1.266 . S
Co442 O445 1.970 1_545 S
Co442 N459 1.989 . S
Co442 O467 1.967 . S
Co442 O474 1.920 . S
Co443 O446 1.966 . S
Co443 N452 2.022 . S
Co443 N460 1.993 . S
Co443 O468 1.941 . S
C444 O445 1.258 . S
C444 O446 1.263 1_565 S
O445 Co442 1.970 1_565 S
O445 C444 1.258 . S
O446 Co443 1.966 . S
O446 C444 1.263 1_545 S
C447 O448 1.235 1_545 S
C447 O474 1.289 . S
O448 C447 1.235 1_565 S
C449 C451 1.400 . S
C449 N452 1.351 . S
C449 C454 1.501 1_545 S
C450 C451 1.387 . S
C450 N453 1.341 . S
C451 C449 1.400 . S
C451 C450 1.387 . S
N452 Co443 2.022 . S
N452 C449 1.351 . S
N452 N453 1.365 . S
N453 C450 1.341 . S
N453 N452 1.365 . S
N453 H473 0.862 . S
C454 C449 1.501 1_565 S
C454 H455 0.961 . S
C454 H456 0.961 . S
C454 H457 0.960 . S
H455 C454 0.961 . S
H456 C454 0.961 . S
H457 C454 0.960 . S
C458 N459 1.342 . S
C458 C462 1.401 . S
C458 C463 1.499 . S
N459 Co442 1.989 . S
N459 C458 1.342 . S
N459 N460 1.388 . S
N460 Co443 1.993 . S
N460 N459 1.388 . S
N460 C461 1.346 . S
C461 N460 1.346 . S
C461 C462 1.396 . S
C461 C471 1.510 . S
C462 C458 1.401 . S
C462 C461 1.396 . S
C463 C458 1.499 . S
C463 H464 0.959 . S
C463 H465 0.960 . S
C463 H466 0.961 . S
H464 C463 0.959 . S
H465 C463 0.960 . S
H466 C463 0.961 . S
O467 Co442 1.967 . S
O467 C475 1.258 . S
O468 Co443 1.941 . S
O468 C475 1.266 . S
H469 C471 0.959 . S
H470 C471 0.961 . S
C471 C461 1.510 . S
C471 H469 0.959 . S
C471 H470 0.961 . S
C471 H472 0.960 . S
H472 C471 0.960 . S
H473 N453 0.862 . S
O474 Co442 1.920 . S
O474 C447 1.289 . S
C475 O467 1.258 . S
C475 O468 1.266 . S
Co476 O479 1.970 . S
Co476 N493 1.989 . S
Co476 O501 1.967 . S
Co476 O508 1.920 . S
Co477 O480 1.966 . S
Co477 N486 2.022 . S
Co477 N494 1.993 . S
Co477 O502 1.941 . S
C478 O479 1.258 . S
C478 O480 1.263 . S
O479 Co476 1.970 . S
O479 C478 1.258 . S
O480 Co477 1.966 . S
O480 C478 1.263 . S
C481 O482 1.235 . S
C481 O508 1.289 . S
O482 C481 1.235 . S
C483 C485 1.400 . S
C483 N486 1.351 . S
C483 C488 1.501 . S
C484 C485 1.387 . S
C484 N487 1.341 . S
C485 C483 1.400 . S
C485 C484 1.387 . S
N486 Co477 2.022 . S
N486 C483 1.351 . S
N486 N487 1.365 . S
N487 C484 1.341 . S
N487 N486 1.365 . S
N487 H507 0.862 . S
C488 C483 1.501 . S
C488 H489 0.961 . S
C488 H490 0.961 . S
C488 H491 0.960 . S
H489 C488 0.961 . S
H490 C488 0.961 . S
H491 C488 0.960 . S
C492 N493 1.342 . S
C492 C496 1.401 . S
C492 C497 1.499 . S
N493 Co476 1.989 . S
N493 C492 1.342 . S
N493 N494 1.388 . S
N494 Co477 1.993 . S
N494 N493 1.388 . S
N494 C495 1.346 . S
C495 N494 1.346 . S
C495 C496 1.396 . S
C495 C505 1.510 . S
C496 C492 1.401 . S
C496 C495 1.396 . S
C497 C492 1.499 . S
C497 H498 0.959 . S
C497 H499 0.960 . S
C497 H500 0.961 . S
H498 C497 0.959 . S
H499 C497 0.960 . S
H500 C497 0.961 . S
O501 Co476 1.967 . S
O501 C509 1.258 . S
O502 Co477 1.941 . S
O502 C509 1.266 . S
H503 C505 0.959 . S
H504 C505 0.961 . S
C505 C495 1.510 . S
C505 H503 0.959 . S
C505 H504 0.961 . S
C505 H506 0.960 . S
H506 C505 0.960 . S
H507 N487 0.862 . S
O508 Co476 1.920 . S
O508 C481 1.289 . S
C509 O501 1.258 . S
C509 O502 1.266 . S
Co510 O513 1.970 1_565 S
Co510 N527 1.989 . S
Co510 O535 1.967 . S
Co510 O542 1.920 . S
Co511 O514 1.966 . S
Co511 N520 2.022 . S
Co511 N528 1.993 . S
Co511 O536 1.941 . S
C512 O513 1.258 . S
C512 O514 1.263 1_545 S
O513 Co510 1.970 1_545 S
O513 C512 1.258 . S
O514 Co511 1.966 . S
O514 C512 1.263 1_565 S
C515 O516 1.235 1_565 S
C515 O542 1.289 . S
O516 C515 1.235 1_545 S
C517 C519 1.400 . S
C517 N520 1.351 . S
C517 C522 1.501 1_565 S
C518 C519 1.387 . S
C518 N521 1.341 . S
C519 C517 1.400 . S
C519 C518 1.387 . S
N520 Co511 2.022 . S
N520 C517 1.351 . S
N520 N521 1.365 . S
N521 C518 1.341 . S
N521 N520 1.365 . S
N521 H541 0.862 . S
C522 C517 1.501 1_545 S
C522 H523 0.961 . S
C522 H524 0.961 . S
C522 H525 0.960 . S
H523 C522 0.961 . S
H524 C522 0.961 . S
H525 C522 0.960 . S
C526 N527 1.342 . S
C526 C530 1.401 . S
C526 C531 1.499 . S
N527 Co510 1.989 . S
N527 C526 1.342 . S
N527 N528 1.388 . S
N528 Co511 1.993 . S
N528 N527 1.388 . S
N528 C529 1.346 . S
C529 N528 1.346 . S
C529 C530 1.396 . S
C529 C539 1.510 . S
C530 C526 1.401 . S
C530 C529 1.396 . S
C531 C526 1.499 . S
C531 H532 0.959 . S
C531 H533 0.960 . S
C531 H534 0.961 . S
H532 C531 0.959 . S
H533 C531 0.960 . S
H534 C531 0.961 . S
O535 Co510 1.967 . S
O535 C543 1.258 . S
O536 Co511 1.941 . S
O536 C543 1.266 . S
H537 C539 0.959 . S
H538 C539 0.961 . S
C539 C529 1.510 . S
C539 H537 0.959 . S
C539 H538 0.961 . S
C539 H540 0.960 . S
H540 C539 0.960 . S
H541 N521 0.862 . S
O542 Co510 1.920 . S
O542 C515 1.289 . S
C543 O535 1.258 . S
C543 O536 1.266 . S
Co544 O547 1.970 . S
Co544 N561 1.989 . S
Co544 O569 1.967 . S
Co544 O576 1.920 . S
Co545 O548 1.966 . S
Co545 N554 2.022 . S
Co545 N562 1.993 . S
Co545 O570 1.941 . S
C546 O547 1.258 . S
C546 O548 1.263 . S
O547 Co544 1.970 . S
O547 C546 1.258 . S
O548 Co545 1.966 . S
O548 C546 1.263 . S
C549 O550 1.235 . S
C549 O576 1.289 . S
O550 C549 1.235 . S
C551 C553 1.400 . S
C551 N554 1.351 . S
C551 C556 1.501 . S
C552 C553 1.387 . S
C552 N555 1.341 . S
C553 C551 1.400 . S
C553 C552 1.387 . S
N554 Co545 2.022 . S
N554 C551 1.351 . S
N554 N555 1.365 . S
N555 C552 1.341 . S
N555 N554 1.365 . S
N555 H575 0.862 . S
C556 C551 1.501 . S
C556 H557 0.961 . S
C556 H558 0.961 . S
C556 H559 0.960 . S
H557 C556 0.961 . S
H558 C556 0.961 . S
H559 C556 0.960 . S
C560 N561 1.342 . S
C560 C564 1.401 . S
C560 C565 1.499 . S
N561 Co544 1.989 . S
N561 C560 1.342 . S
N561 N562 1.388 . S
N562 Co545 1.993 . S
N562 N561 1.388 . S
N562 C563 1.346 . S
C563 N562 1.346 . S
C563 C564 1.396 . S
C563 C573 1.510 . S
C564 C560 1.401 . S
C564 C563 1.396 . S
C565 C560 1.499 . S
C565 H566 0.959 . S
C565 H567 0.960 . S
C565 H568 0.961 . S
H566 C565 0.959 . S
H567 C565 0.960 . S
H568 C565 0.961 . S
O569 Co544 1.967 . S
O569 C577 1.258 . S
O570 Co545 1.941 . S
O570 C577 1.266 . S
H571 C573 0.959 . S
H572 C573 0.961 . S
C573 C563 1.510 . S
C573 H571 0.959 . S
C573 H572 0.961 . S
C573 H574 0.960 . S
H574 C573 0.960 . S
H575 N555 0.862 . S
O576 Co544 1.920 . S
O576 C549 1.289 . S
C577 O569 1.258 . S
C577 O570 1.266 . S
Co578 O581 1.970 . S
Co578 N595 1.989 . S
Co578 O603 1.967 . S
Co578 O610 1.920 . S
Co579 O582 1.966 . S
Co579 N588 2.022 . S
Co579 N596 1.993 . S
Co579 O604 1.941 . S
C580 O581 1.258 . S
C580 O582 1.263 . S
O581 Co578 1.970 . S
O581 C580 1.258 . S
O582 Co579 1.966 . S
O582 C580 1.263 . S
C583 O584 1.235 . S
C583 O610 1.289 . S
O584 C583 1.235 . S
C585 C587 1.400 . S
C585 N588 1.351 . S
C585 C590 1.501 . S
C586 C587 1.387 . S
C586 N589 1.341 . S
C587 C585 1.400 . S
C587 C586 1.387 . S
N588 Co579 2.022 . S
N588 C585 1.351 . S
N588 N589 1.365 . S
N589 C586 1.341 . S
N589 N588 1.365 . S
N589 H609 0.862 . S
C590 C585 1.501 . S
C590 H591 0.961 . S
C590 H592 0.961 . S
C590 H593 0.960 . S
H591 C590 0.961 . S
H592 C590 0.961 . S
H593 C590 0.960 . S
C594 N595 1.342 . S
C594 C598 1.401 . S
C594 C599 1.499 . S
N595 Co578 1.989 . S
N595 C594 1.342 . S
N595 N596 1.388 . S
N596 Co579 1.993 . S
N596 N595 1.388 . S
N596 C597 1.346 . S
C597 N596 1.346 . S
C597 C598 1.396 . S
C597 C607 1.510 . S
C598 C594 1.401 . S
C598 C597 1.396 . S
C599 C594 1.499 . S
C599 H600 0.959 . S
C599 H601 0.960 . S
C599 H602 0.961 . S
H600 C599 0.959 . S
H601 C599 0.960 . S
H602 C599 0.961 . S
O603 Co578 1.967 . S
O603 C611 1.258 . S
O604 Co579 1.941 . S
O604 C611 1.266 . S
H605 C607 0.959 . S
H606 C607 0.961 . S
C607 C597 1.510 . S
C607 H605 0.959 . S
C607 H606 0.961 . S
C607 H608 0.960 . S
H608 C607 0.960 . S
H609 N589 0.862 . S
O610 Co578 1.920 . S
O610 C583 1.289 . S
C611 O603 1.258 . S
C611 O604 1.266 . S
Co612 O615 1.970 . S
Co612 N629 1.989 . S
Co612 O637 1.967 . S
Co612 O644 1.920 . S
Co613 O616 1.966 . S
Co613 N622 2.022 . S
Co613 N630 1.993 . S
Co613 O638 1.941 . S
C614 O615 1.258 . S
C614 O616 1.263 . S
O615 Co612 1.970 . S
O615 C614 1.258 . S
O616 Co613 1.966 . S
O616 C614 1.263 . S
C617 O618 1.235 . S
C617 O644 1.289 . S
O618 C617 1.235 . S
C619 C621 1.400 1_554 S
C619 N622 1.351 . S
C619 C624 1.501 . S
C620 C621 1.387 . S
C620 N623 1.341 1_556 S
C621 C619 1.400 1_556 S
C621 C620 1.387 . S
N622 Co613 2.022 . S
N622 C619 1.351 . S
N622 N623 1.365 . S
N623 C620 1.341 1_554 S
N623 N622 1.365 . S
N623 H643 0.862 . S
C624 C619 1.501 . S
C624 H625 0.961 . S
C624 H626 0.961 . S
C624 H627 0.960 . S
H625 C624 0.961 . S
H626 C624 0.961 . S
H627 C624 0.960 . S
C628 N629 1.342 . S
C628 C632 1.401 . S
C628 C633 1.499 . S
N629 Co612 1.989 . S
N629 C628 1.342 . S
N629 N630 1.388 . S
N630 Co613 1.993 . S
N630 N629 1.388 . S
N630 C631 1.346 . S
C631 N630 1.346 . S
C631 C632 1.396 . S
C631 C641 1.510 . S
C632 C628 1.401 . S
C632 C631 1.396 . S
C633 C628 1.499 . S
C633 H634 0.959 . S
C633 H635 0.960 . S
C633 H636 0.961 . S
H634 C633 0.959 . S
H635 C633 0.960 . S
H636 C633 0.961 . S
O637 Co612 1.967 . S
O637 C645 1.258 . S
O638 Co613 1.941 . S
O638 C645 1.266 . S
H639 C641 0.959 . S
H640 C641 0.961 . S
C641 C631 1.510 . S
C641 H639 0.959 . S
C641 H640 0.961 . S
C641 H642 0.960 . S
H642 C641 0.960 . S
H643 N623 0.862 . S
O644 Co612 1.920 . S
O644 C617 1.289 . S
C645 O637 1.258 . S
C645 O638 1.266 . S
Co646 O649 1.970 . S
Co646 N663 1.989 . S
Co646 O671 1.967 . S
Co646 O678 1.920 . S
Co647 O650 1.966 . S
Co647 N656 2.022 . S
Co647 N664 1.993 . S
Co647 O672 1.941 . S
C648 O649 1.258 . S
C648 O650 1.263 . S
O649 Co646 1.970 . S
O649 C648 1.258 . S
O650 Co647 1.966 . S
O650 C648 1.263 . S
C651 O652 1.235 . S
C651 O678 1.289 . S
O652 C651 1.235 . S
C653 C655 1.400 . S
C653 N656 1.351 . S
C653 C658 1.501 . S
C654 C655 1.387 . S
C654 N657 1.341 . S
C655 C653 1.400 . S
C655 C654 1.387 . S
N656 Co647 2.022 . S
N656 C653 1.351 . S
N656 N657 1.365 . S
N657 C654 1.341 . S
N657 N656 1.365 . S
N657 H677 0.862 . S
C658 C653 1.501 . S
C658 H659 0.961 . S
C658 H660 0.961 . S
C658 H661 0.960 . S
H659 C658 0.961 . S
H660 C658 0.961 . S
H661 C658 0.960 . S
C662 N663 1.342 . S
C662 C666 1.401 . S
C662 C667 1.499 . S
N663 Co646 1.989 . S
N663 C662 1.342 . S
N663 N664 1.388 . S
N664 Co647 1.993 . S
N664 N663 1.388 . S
N664 C665 1.346 . S
C665 N664 1.346 . S
C665 C666 1.396 . S
C665 C675 1.510 . S
C666 C662 1.401 . S
C666 C665 1.396 . S
C667 C662 1.499 . S
C667 H668 0.959 . S
C667 H669 0.960 . S
C667 H670 0.961 . S
H668 C667 0.959 . S
H669 C667 0.960 . S
H670 C667 0.961 . S
O671 Co646 1.967 . S
O671 C679 1.258 . S
O672 Co647 1.941 . S
O672 C679 1.266 . S
H673 C675 0.959 . S
H674 C675 0.961 . S
C675 C665 1.510 . S
C675 H673 0.959 . S
C675 H674 0.961 . S
C675 H676 0.960 . S
H676 C675 0.960 . S
H677 N657 0.862 . S
O678 Co646 1.920 . S
O678 C651 1.289 . S
C679 O671 1.258 . S
C679 O672 1.266 . S
Co680 O683 1.970 . S
Co680 N697 1.989 . S
Co680 O705 1.967 . S
Co680 O712 1.920 . S
Co681 O684 1.966 . S
Co681 N690 2.022 . S
Co681 N698 1.993 . S
Co681 O706 1.941 . S
C682 O683 1.258 . S
C682 O684 1.263 . S
O683 Co680 1.970 . S
O683 C682 1.258 . S
O684 Co681 1.966 . S
O684 C682 1.263 . S
C685 O686 1.235 . S
C685 O712 1.289 . S
O686 C685 1.235 . S
C687 C689 1.400 . S
C687 N690 1.351 . S
C687 C692 1.501 . S
C688 C689 1.387 . S
C688 N691 1.341 . S
C689 C687 1.400 . S
C689 C688 1.387 . S
N690 Co681 2.022 . S
N690 C687 1.351 . S
N690 N691 1.365 . S
N691 C688 1.341 . S
N691 N690 1.365 . S
N691 H711 0.862 . S
C692 C687 1.501 . S
C692 H693 0.961 . S
C692 H694 0.961 . S
C692 H695 0.960 . S
H693 C692 0.961 . S
H694 C692 0.961 . S
H695 C692 0.960 . S
C696 N697 1.342 . S
C696 C700 1.401 . S
C696 C701 1.499 . S
N697 Co680 1.989 . S
N697 C696 1.342 . S
N697 N698 1.388 . S
N698 Co681 1.993 . S
N698 N697 1.388 . S
N698 C699 1.346 . S
C699 N698 1.346 . S
C699 C700 1.396 . S
C699 C709 1.510 . S
C700 C696 1.401 . S
C700 C699 1.396 . S
C701 C696 1.499 . S
C701 H702 0.959 . S
C701 H703 0.960 . S
C701 H704 0.961 . S
H702 C701 0.959 . S
H703 C701 0.960 . S
H704 C701 0.961 . S
O705 Co680 1.967 . S
O705 C713 1.258 . S
O706 Co681 1.941 . S
O706 C713 1.266 . S
H707 C709 0.959 . S
H708 C709 0.961 . S
C709 C699 1.510 . S
C709 H707 0.959 . S
C709 H708 0.961 . S
C709 H710 0.960 . S
H710 C709 0.960 . S
H711 N691 0.862 . S
O712 Co680 1.920 . S
O712 C685 1.289 . S
C713 O705 1.258 . S
C713 O706 1.266 . S
Co714 O717 1.970 . S
Co714 N731 1.989 . S
Co714 O739 1.967 . S
Co714 O746 1.920 . S
Co715 O718 1.966 . S
Co715 N724 2.022 . S
Co715 N732 1.993 . S
Co715 O740 1.941 . S
C716 O717 1.258 . S
C716 O718 1.263 . S
O717 Co714 1.970 . S
O717 C716 1.258 . S
O718 Co715 1.966 . S
O718 C716 1.263 . S
C719 O720 1.235 . S
C719 O746 1.289 . S
O720 C719 1.235 . S
C721 C723 1.400 . S
C721 N724 1.351 . S
C721 C726 1.501 . S
C722 C723 1.387 . S
C722 N725 1.341 . S
C723 C721 1.400 . S
C723 C722 1.387 . S
N724 Co715 2.022 . S
N724 C721 1.351 . S
N724 N725 1.365 . S
N725 C722 1.341 . S
N725 N724 1.365 . S
N725 H745 0.862 . S
C726 C721 1.501 . S
C726 H727 0.961 . S
C726 H728 0.961 . S
C726 H729 0.960 . S
H727 C726 0.961 . S
H728 C726 0.961 . S
H729 C726 0.960 . S
C730 N731 1.342 . S
C730 C734 1.401 . S
C730 C735 1.499 . S
N731 Co714 1.989 . S
N731 C730 1.342 . S
N731 N732 1.388 . S
N732 Co715 1.993 . S
N732 N731 1.388 . S
N732 C733 1.346 . S
C733 N732 1.346 . S
C733 C734 1.396 . S
C733 C743 1.510 . S
C734 C730 1.401 . S
C734 C733 1.396 . S
C735 C730 1.499 . S
C735 H736 0.959 . S
C735 H737 0.960 . S
C735 H738 0.961 . S
H736 C735 0.959 . S
H737 C735 0.960 . S
H738 C735 0.961 . S
O739 Co714 1.967 . S
O739 C747 1.258 . S
O740 Co715 1.941 . S
O740 C747 1.266 . S
H741 C743 0.959 . S
H742 C743 0.961 . S
C743 C733 1.510 . S
C743 H741 0.959 . S
C743 H742 0.961 . S
C743 H744 0.960 . S
H744 C743 0.960 . S
H745 N725 0.862 . S
O746 Co714 1.920 . S
O746 C719 1.289 . S
C747 O739 1.258 . S
C747 O740 1.266 . S
Co748 O751 1.970 . S
Co748 N765 1.989 . S
Co748 O773 1.967 . S
Co748 O780 1.920 . S
Co749 O752 1.966 . S
Co749 N758 2.022 . S
Co749 N766 1.993 . S
Co749 O774 1.941 . S
C750 O751 1.258 . S
C750 O752 1.263 . S
O751 Co748 1.970 . S
O751 C750 1.258 . S
O752 Co749 1.966 . S
O752 C750 1.263 . S
C753 O754 1.235 . S
C753 O780 1.289 . S
O754 C753 1.235 . S
C755 C757 1.400 1_556 S
C755 N758 1.351 . S
C755 C760 1.501 . S
C756 C757 1.387 . S
C756 N759 1.341 1_554 S
C757 C755 1.400 1_554 S
C757 C756 1.387 . S
N758 Co749 2.022 . S
N758 C755 1.351 . S
N758 N759 1.365 . S
N759 C756 1.341 1_556 S
N759 N758 1.365 . S
N759 H779 0.862 . S
C760 C755 1.501 . S
C760 H761 0.961 . S
C760 H762 0.961 . S
C760 H763 0.960 . S
H761 C760 0.961 . S
H762 C760 0.961 . S
H763 C760 0.960 . S
C764 N765 1.342 . S
C764 C768 1.401 . S
C764 C769 1.499 . S
N765 Co748 1.989 . S
N765 C764 1.342 . S
N765 N766 1.388 . S
N766 Co749 1.993 . S
N766 N765 1.388 . S
N766 C767 1.346 . S
C767 N766 1.346 . S
C767 C768 1.396 . S
C767 C777 1.510 . S
C768 C764 1.401 . S
C768 C767 1.396 . S
C769 C764 1.499 . S
C769 H770 0.959 . S
C769 H771 0.960 . S
C769 H772 0.961 . S
H770 C769 0.959 . S
H771 C769 0.960 . S
H772 C769 0.961 . S
O773 Co748 1.967 . S
O773 C781 1.258 . S
O774 Co749 1.941 . S
O774 C781 1.266 . S
H775 C777 0.959 . S
H776 C777 0.961 . S
C777 C767 1.510 . S
C777 H775 0.959 . S
C777 H776 0.961 . S
C777 H778 0.960 . S
H778 C777 0.960 . S
H779 N759 0.862 . S
O780 Co748 1.920 . S
O780 C753 1.289 . S
C781 O773 1.258 . S
C781 O774 1.266 . S
Co782 O785 1.970 . S
Co782 N799 1.989 . S
Co782 O807 1.967 . S
Co782 O814 1.920 . S
Co783 O786 1.966 . S
Co783 N792 2.022 . S
Co783 N800 1.993 . S
Co783 O808 1.941 . S
C784 O785 1.258 . S
C784 O786 1.263 . S
O785 Co782 1.970 . S
O785 C784 1.258 . S
O786 Co783 1.966 . S
O786 C784 1.263 . S
C787 O788 1.235 . S
C787 O814 1.289 . S
O788 C787 1.235 . S
C789 C791 1.400 . S
C789 N792 1.351 . S
C789 C794 1.501 . S
C790 C791 1.387 . S
C790 N793 1.341 . S
C791 C789 1.400 . S
C791 C790 1.387 . S
N792 Co783 2.022 . S
N792 C789 1.351 . S
N792 N793 1.365 . S
N793 C790 1.341 . S
N793 N792 1.365 . S
N793 H813 0.862 . S
C794 C789 1.501 . S
C794 H795 0.961 . S
C794 H796 0.961 . S
C794 H797 0.960 . S
H795 C794 0.961 . S
H796 C794 0.961 . S
H797 C794 0.960 . S
C798 N799 1.342 . S
C798 C802 1.401 . S
C798 C803 1.499 . S
N799 Co782 1.989 . S
N799 C798 1.342 . S
N799 N800 1.388 . S
N800 Co783 1.993 . S
N800 N799 1.388 . S
N800 C801 1.346 . S
C801 N800 1.346 . S
C801 C802 1.396 . S
C801 C811 1.510 . S
C802 C798 1.401 . S
C802 C801 1.396 . S
C803 C798 1.499 . S
C803 H804 0.959 . S
C803 H805 0.960 . S
C803 H806 0.961 . S
H804 C803 0.959 . S
H805 C803 0.960 . S
H806 C803 0.961 . S
O807 Co782 1.967 . S
O807 C815 1.258 . S
O808 Co783 1.941 . S
O808 C815 1.266 . S
H809 C811 0.959 . S
H810 C811 0.961 . S
C811 C801 1.510 . S
C811 H809 0.959 . S
C811 H810 0.961 . S
C811 H812 0.960 . S
H812 C811 0.960 . S
H813 N793 0.862 . S
O814 Co782 1.920 . S
O814 C787 1.289 . S
C815 O807 1.258 . S
C815 O808 1.266 . S
Co816 O819 1.970 . S
Co816 N833 1.989 . S
Co816 O841 1.967 . S
Co816 O848 1.920 . S
Co817 O820 1.966 . S
Co817 N826 2.022 . S
Co817 N834 1.993 . S
Co817 O842 1.941 . S
C818 O819 1.258 . S
C818 O820 1.263 . S
O819 Co816 1.970 . S
O819 C818 1.258 . S
O820 Co817 1.966 . S
O820 C818 1.263 . S
C821 O822 1.235 . S
C821 O848 1.289 . S
O822 C821 1.235 . S
C823 C825 1.400 . S
C823 N826 1.351 . S
C823 C828 1.501 . S
C824 C825 1.387 . S
C824 N827 1.341 . S
C825 C823 1.400 . S
C825 C824 1.387 . S
N826 Co817 2.022 . S
N826 C823 1.351 . S
N826 N827 1.365 . S
N827 C824 1.341 . S
N827 N826 1.365 . S
N827 H847 0.862 . S
C828 C823 1.501 . S
C828 H829 0.961 . S
C828 H830 0.961 . S
C828 H831 0.960 . S
H829 C828 0.961 . S
H830 C828 0.961 . S
H831 C828 0.960 . S
C832 N833 1.342 . S
C832 C836 1.401 . S
C832 C837 1.499 . S
N833 Co816 1.989 . S
N833 C832 1.342 . S
N833 N834 1.388 . S
N834 Co817 1.993 . S
N834 N833 1.388 . S
N834 C835 1.346 . S
C835 N834 1.346 . S
C835 C836 1.396 . S
C835 C845 1.510 . S
C836 C832 1.401 . S
C836 C835 1.396 . S
C837 C832 1.499 . S
C837 H838 0.959 . S
C837 H839 0.960 . S
C837 H840 0.961 . S
H838 C837 0.959 . S
H839 C837 0.960 . S
H840 C837 0.961 . S
O841 Co816 1.967 . S
O841 C849 1.258 . S
O842 Co817 1.941 . S
O842 C849 1.266 . S
H843 C845 0.959 . S
H844 C845 0.961 . S
C845 C835 1.510 . S
C845 H843 0.959 . S
C845 H844 0.961 . S
C845 H846 0.960 . S
H846 C845 0.960 . S
H847 N827 0.862 . S
O848 Co816 1.920 . S
O848 C821 1.289 . S
C849 O841 1.258 . S
C849 O842 1.266 . S
Co850 O853 1.970 . S
Co850 N867 1.989 . S
Co850 O875 1.967 . S
Co850 O882 1.920 . S
Co851 O854 1.966 . S
Co851 N860 2.022 . S
Co851 N868 1.993 . S
Co851 O876 1.941 . S
C852 O853 1.258 . S
C852 O854 1.263 . S
O853 Co850 1.970 . S
O853 C852 1.258 . S
O854 Co851 1.966 . S
O854 C852 1.263 . S
C855 O856 1.235 . S
C855 O882 1.289 . S
O856 C855 1.235 . S
C857 C859 1.400 . S
C857 N860 1.351 . S
C857 C862 1.501 . S
C858 C859 1.387 . S
C858 N861 1.341 . S
C859 C857 1.400 . S
C859 C858 1.387 . S
N860 Co851 2.022 . S
N860 C857 1.351 . S
N860 N861 1.365 . S
N861 C858 1.341 . S
N861 N860 1.365 . S
N861 H881 0.862 . S
C862 C857 1.501 . S
C862 H863 0.961 . S
C862 H864 0.961 . S
C862 H865 0.960 . S
H863 C862 0.961 . S
H864 C862 0.961 . S
H865 C862 0.960 . S
C866 N867 1.342 . S
C866 C870 1.401 . S
C866 C871 1.499 . S
N867 Co850 1.989 . S
N867 C866 1.342 . S
N867 N868 1.388 . S
N868 Co851 1.993 . S
N868 N867 1.388 . S
N868 C869 1.346 . S
C869 N868 1.346 . S
C869 C870 1.396 . S
C869 C879 1.510 . S
C870 C866 1.401 . S
C870 C869 1.396 . S
C871 C866 1.499 . S
C871 H872 0.959 . S
C871 H873 0.960 . S
C871 H874 0.961 . S
H872 C871 0.959 . S
H873 C871 0.960 . S
H874 C871 0.961 . S
O875 Co850 1.967 . S
O875 C883 1.258 . S
O876 Co851 1.941 . S
O876 C883 1.266 . S
H877 C879 0.959 . S
H878 C879 0.961 . S
C879 C869 1.510 . S
C879 H877 0.959 . S
C879 H878 0.961 . S
C879 H880 0.960 . S
H880 C879 0.960 . S
H881 N861 0.862 . S
O882 Co850 1.920 . S
O882 C855 1.289 . S
C883 O875 1.258 . S
C883 O876 1.266 . S
Co884 O887 1.970 . S
Co884 N901 1.989 . S
Co884 O909 1.967 . S
Co884 O916 1.920 . S
Co885 O888 1.966 . S
Co885 N894 2.022 . S
Co885 N902 1.993 . S
Co885 O910 1.941 . S
C886 O887 1.258 . S
C886 O888 1.263 . S
O887 Co884 1.970 . S
O887 C886 1.258 . S
O888 Co885 1.966 . S
O888 C886 1.263 . S
C889 O890 1.235 . S
C889 O916 1.289 . S
O890 C889 1.235 . S
C891 C893 1.400 1_556 S
C891 N894 1.351 . S
C891 C896 1.501 . S
C892 C893 1.387 . S
C892 N895 1.341 1_554 S
C893 C891 1.400 1_554 S
C893 C892 1.387 . S
N894 Co885 2.022 . S
N894 C891 1.351 . S
N894 N895 1.365 . S
N895 C892 1.341 1_556 S
N895 N894 1.365 . S
N895 H915 0.862 . S
C896 C891 1.501 . S
C896 H897 0.961 . S
C896 H898 0.961 . S
C896 H899 0.960 . S
H897 C896 0.961 . S
H898 C896 0.961 . S
H899 C896 0.960 . S
C900 N901 1.342 . S
C900 C904 1.401 . S
C900 C905 1.499 . S
N901 Co884 1.989 . S
N901 C900 1.342 . S
N901 N902 1.388 . S
N902 Co885 1.993 . S
N902 N901 1.388 . S
N902 C903 1.346 . S
C903 N902 1.346 . S
C903 C904 1.396 . S
C903 C913 1.510 . S
C904 C900 1.401 . S
C904 C903 1.396 . S
C905 C900 1.499 . S
C905 H906 0.959 . S
C905 H907 0.960 . S
C905 H908 0.961 . S
H906 C905 0.959 . S
H907 C905 0.960 . S
H908 C905 0.961 . S
O909 Co884 1.967 . S
O909 C917 1.258 . S
O910 Co885 1.941 . S
O910 C917 1.266 . S
H911 C913 0.959 . S
H912 C913 0.961 . S
C913 C903 1.510 . S
C913 H911 0.959 . S
C913 H912 0.961 . S
C913 H914 0.960 . S
H914 C913 0.960 . S
H915 N895 0.862 . S
O916 Co884 1.920 . S
O916 C889 1.289 . S
C917 O909 1.258 . S
C917 O910 1.266 . S
Co918 O921 1.970 . S
Co918 N935 1.989 . S
Co918 O943 1.967 . S
Co918 O950 1.920 . S
Co919 O922 1.966 . S
Co919 N928 2.022 . S
Co919 N936 1.993 . S
Co919 O944 1.941 . S
C920 O921 1.258 . S
C920 O922 1.263 . S
O921 Co918 1.970 . S
O921 C920 1.258 . S
O922 Co919 1.966 . S
O922 C920 1.263 . S
C923 O924 1.235 . S
C923 O950 1.289 . S
O924 C923 1.235 . S
C925 C927 1.400 . S
C925 N928 1.351 . S
C925 C930 1.501 . S
C926 C927 1.387 . S
C926 N929 1.341 . S
C927 C925 1.400 . S
C927 C926 1.387 . S
N928 Co919 2.022 . S
N928 C925 1.351 . S
N928 N929 1.365 . S
N929 C926 1.341 . S
N929 N928 1.365 . S
N929 H949 0.862 . S
C930 C925 1.501 . S
C930 H931 0.961 . S
C930 H932 0.961 . S
C930 H933 0.960 . S
H931 C930 0.961 . S
H932 C930 0.961 . S
H933 C930 0.960 . S
C934 N935 1.342 . S
C934 C938 1.401 . S
C934 C939 1.499 . S
N935 Co918 1.989 . S
N935 C934 1.342 . S
N935 N936 1.388 . S
N936 Co919 1.993 . S
N936 N935 1.388 . S
N936 C937 1.346 . S
C937 N936 1.346 . S
C937 C938 1.396 . S
C937 C947 1.510 . S
C938 C934 1.401 . S
C938 C937 1.396 . S
C939 C934 1.499 . S
C939 H940 0.959 . S
C939 H941 0.960 . S
C939 H942 0.961 . S
H940 C939 0.959 . S
H941 C939 0.960 . S
H942 C939 0.961 . S
O943 Co918 1.967 . S
O943 C951 1.258 . S
O944 Co919 1.941 . S
O944 C951 1.266 . S
H945 C947 0.959 . S
H946 C947 0.961 . S
C947 C937 1.510 . S
C947 H945 0.959 . S
C947 H946 0.961 . S
C947 H948 0.960 . S
H948 C947 0.960 . S
H949 N929 0.862 . S
O950 Co918 1.920 . S
O950 C923 1.289 . S
C951 O943 1.258 . S
C951 O944 1.266 . S
Co952 O955 1.970 . S
Co952 N969 1.989 . S
Co952 O977 1.967 . S
Co952 O984 1.920 . S
Co953 O956 1.966 . S
Co953 N962 2.022 . S
Co953 N970 1.993 . S
Co953 O978 1.941 . S
C954 O955 1.258 . S
C954 O956 1.263 . S
O955 Co952 1.970 . S
O955 C954 1.258 . S
O956 Co953 1.966 . S
O956 C954 1.263 . S
C957 O958 1.235 . S
C957 O984 1.289 . S
O958 C957 1.235 . S
C959 C961 1.400 . S
C959 N962 1.351 . S
C959 C964 1.501 . S
C960 C961 1.387 . S
C960 N963 1.341 . S
C961 C959 1.400 . S
C961 C960 1.387 . S
N962 Co953 2.022 . S
N962 C959 1.351 . S
N962 N963 1.365 . S
N963 C960 1.341 . S
N963 N962 1.365 . S
N963 H983 0.862 . S
C964 C959 1.501 . S
C964 H965 0.961 . S
C964 H966 0.961 . S
C964 H967 0.960 . S
H965 C964 0.961 . S
H966 C964 0.961 . S
H967 C964 0.960 . S
C968 N969 1.342 . S
C968 C972 1.401 . S
C968 C973 1.499 . S
N969 Co952 1.989 . S
N969 C968 1.342 . S
N969 N970 1.388 . S
N970 Co953 1.993 . S
N970 N969 1.388 . S
N970 C971 1.346 . S
C971 N970 1.346 . S
C971 C972 1.396 . S
C971 C981 1.510 . S
C972 C968 1.401 . S
C972 C971 1.396 . S
C973 C968 1.499 . S
C973 H974 0.959 . S
C973 H975 0.960 . S
C973 H976 0.961 . S
H974 C973 0.959 . S
H975 C973 0.960 . S
H976 C973 0.961 . S
O977 Co952 1.967 . S
O977 C985 1.258 . S
O978 Co953 1.941 . S
O978 C985 1.266 . S
H979 C981 0.959 . S
H980 C981 0.961 . S
C981 C971 1.510 . S
C981 H979 0.959 . S
C981 H980 0.961 . S
C981 H982 0.960 . S
H982 C981 0.960 . S
H983 N963 0.862 . S
O984 Co952 1.920 . S
O984 C957 1.289 . S
C985 O977 1.258 . S
C985 O978 1.266 . S
Co986 O989 1.970 . S
Co986 N1003 1.989 . S
Co986 O1011 1.967 . S
Co986 O1018 1.920 . S
Co987 O990 1.966 . S
Co987 N996 2.022 . S
Co987 N1004 1.993 . S
Co987 O1012 1.941 . S
C988 O989 1.258 . S
C988 O990 1.263 . S
O989 Co986 1.970 . S
O989 C988 1.258 . S
O990 Co987 1.966 . S
O990 C988 1.263 . S
C991 O992 1.235 . S
C991 O1018 1.289 . S
O992 C991 1.235 . S
C993 C995 1.400 . S
C993 N996 1.351 . S
C993 C998 1.501 . S
C994 C995 1.387 . S
C994 N997 1.341 . S
C995 C993 1.400 . S
C995 C994 1.387 . S
N996 Co987 2.022 . S
N996 C993 1.351 . S
N996 N997 1.365 . S
N997 C994 1.341 . S
N997 N996 1.365 . S
N997 H1017 0.862 . S
C998 C993 1.501 . S
C998 H999 0.961 . S
C998 H1000 0.961 . S
C998 H1001 0.960 . S
H999 C998 0.961 . S
H1000 C998 0.961 . S
H1001 C998 0.960 . S
C1002 N1003 1.342 . S
C1002 C1006 1.401 . S
C1002 C1007 1.499 . S
N1003 Co986 1.989 . S
N1003 C1002 1.342 . S
N1003 N1004 1.388 . S
N1004 Co987 1.993 . S
N1004 N1003 1.388 . S
N1004 C1005 1.346 . S
C1005 N1004 1.346 . S
C1005 C1006 1.396 . S
C1005 C1015 1.510 . S
C1006 C1002 1.401 . S
C1006 C1005 1.396 . S
C1007 C1002 1.499 . S
C1007 H1008 0.959 . S
C1007 H1009 0.960 . S
C1007 H1010 0.961 . S
H1008 C1007 0.959 . S
H1009 C1007 0.960 . S
H1010 C1007 0.961 . S
O1011 Co986 1.967 . S
O1011 C1019 1.258 . S
O1012 Co987 1.941 . S
O1012 C1019 1.266 . S
H1013 C1015 0.959 . S
H1014 C1015 0.961 . S
C1015 C1005 1.510 . S
C1015 H1013 0.959 . S
C1015 H1014 0.961 . S
C1015 H1016 0.960 . S
H1016 C1015 0.960 . S
H1017 N997 0.862 . S
O1018 Co986 1.920 . S
O1018 C991 1.289 . S
C1019 O1011 1.258 . S
C1019 O1012 1.266 . S
Co1020 O1023 1.970 . S
Co1020 N1037 1.989 . S
Co1020 O1045 1.967 . S
Co1020 O1052 1.920 . S
Co1021 O1024 1.966 . S
Co1021 N1030 2.022 . S
Co1021 N1038 1.993 . S
Co1021 O1046 1.941 . S
C1022 O1023 1.258 . S
C1022 O1024 1.263 . S
O1023 Co1020 1.970 . S
O1023 C1022 1.258 . S
O1024 Co1021 1.966 . S
O1024 C1022 1.263 . S
C1025 O1026 1.235 . S
C1025 O1052 1.289 . S
O1026 C1025 1.235 . S
C1027 C1029 1.400 1_554 S
C1027 N1030 1.351 . S
C1027 C1032 1.501 . S
C1028 C1029 1.387 . S
C1028 N1031 1.341 1_556 S
C1029 C1027 1.400 1_556 S
C1029 C1028 1.387 . S
N1030 Co1021 2.022 . S
N1030 C1027 1.351 . S
N1030 N1031 1.365 . S
N1031 C1028 1.341 1_554 S
N1031 N1030 1.365 . S
N1031 H1051 0.862 . S
C1032 C1027 1.501 . S
C1032 H1033 0.961 . S
C1032 H1034 0.961 . S
C1032 H1035 0.960 . S
H1033 C1032 0.961 . S
H1034 C1032 0.961 . S
H1035 C1032 0.960 . S
C1036 N1037 1.342 . S
C1036 C1040 1.401 . S
C1036 C1041 1.499 . S
N1037 Co1020 1.989 . S
N1037 C1036 1.342 . S
N1037 N1038 1.388 . S
N1038 Co1021 1.993 . S
N1038 N1037 1.388 . S
N1038 C1039 1.346 . S
C1039 N1038 1.346 . S
C1039 C1040 1.396 . S
C1039 C1049 1.510 . S
C1040 C1036 1.401 . S
C1040 C1039 1.396 . S
C1041 C1036 1.499 . S
C1041 H1042 0.959 . S
C1041 H1043 0.960 . S
C1041 H1044 0.961 . S
H1042 C1041 0.959 . S
H1043 C1041 0.960 . S
H1044 C1041 0.961 . S
O1045 Co1020 1.967 . S
O1045 C1053 1.258 . S
O1046 Co1021 1.941 . S
O1046 C1053 1.266 . S
H1047 C1049 0.959 . S
H1048 C1049 0.961 . S
C1049 C1039 1.510 . S
C1049 H1047 0.959 . S
C1049 H1048 0.961 . S
C1049 H1050 0.960 . S
H1050 C1049 0.960 . S
H1051 N1031 0.862 . S
O1052 Co1020 1.920 . S
O1052 C1025 1.289 . S
C1053 O1045 1.258 . S
C1053 O1046 1.266 . S
Co1054 O1057 1.970 . S
Co1054 N1071 1.989 . S
Co1054 O1079 1.967 . S
Co1054 O1086 1.920 . S
Co1055 O1058 1.966 . S
Co1055 N1064 2.022 . S
Co1055 N1072 1.993 . S
Co1055 O1080 1.941 . S
C1056 O1057 1.258 . S
C1056 O1058 1.263 . S
O1057 Co1054 1.970 . S
O1057 C1056 1.258 . S
O1058 Co1055 1.966 . S
O1058 C1056 1.263 . S
C1059 O1060 1.235 . S
C1059 O1086 1.289 . S
O1060 C1059 1.235 . S
C1061 C1063 1.400 . S
C1061 N1064 1.351 . S
C1061 C1066 1.501 . S
C1062 C1063 1.387 . S
C1062 N1065 1.341 . S
C1063 C1061 1.400 . S
C1063 C1062 1.387 . S
N1064 Co1055 2.022 . S
N1064 C1061 1.351 . S
N1064 N1065 1.365 . S
N1065 C1062 1.341 . S
N1065 N1064 1.365 . S
N1065 H1085 0.862 . S
C1066 C1061 1.501 . S
C1066 H1067 0.961 . S
C1066 H1068 0.961 . S
C1066 H1069 0.960 . S
H1067 C1066 0.961 . S
H1068 C1066 0.961 . S
H1069 C1066 0.960 . S
C1070 N1071 1.342 . S
C1070 C1074 1.401 . S
C1070 C1075 1.499 . S
N1071 Co1054 1.989 . S
N1071 C1070 1.342 . S
N1071 N1072 1.388 . S
N1072 Co1055 1.993 . S
N1072 N1071 1.388 . S
N1072 C1073 1.346 . S
C1073 N1072 1.346 . S
C1073 C1074 1.396 . S
C1073 C1083 1.510 . S
C1074 C1070 1.401 . S
C1074 C1073 1.396 . S
C1075 C1070 1.499 . S
C1075 H1076 0.959 . S
C1075 H1077 0.960 . S
C1075 H1078 0.961 . S
H1076 C1075 0.959 . S
H1077 C1075 0.960 . S
H1078 C1075 0.961 . S
O1079 Co1054 1.967 . S
O1079 C1087 1.258 . S
O1080 Co1055 1.941 . S
O1080 C1087 1.266 . S
H1081 C1083 0.959 . S
H1082 C1083 0.961 . S
C1083 C1073 1.510 . S
C1083 H1081 0.959 . S
C1083 H1082 0.961 . S
C1083 H1084 0.960 . S
H1084 C1083 0.960 . S
H1085 N1065 0.862 . S
O1086 Co1054 1.920 . S
O1086 C1059 1.289 . S
C1087 O1079 1.258 . S
C1087 O1080 1.266 . S
H1088 C1100 0.930 . S
H1089 C1102 0.930 . S
H1090 C1103 0.930 1_565 S
H1091 C1107 0.959 . S
H1092 C1107 0.959 . S
H1093 C1107 0.961 . S
H1094 C1108 0.960 . S
H1095 C1108 0.961 . S
H1096 C1108 0.959 . S
H1097 C1111 0.929 . S
H1098 C1112 0.931 . S
H1099 C1114 0.930 . S
C1100 H1088 0.930 . S
C1100 C1101 1.399 1_545 S
C1100 C1105 1.399 . S
C1101 C1100 1.399 1_565 S
C1101 C1102 1.376 . S
C1102 H1089 0.930 . S
C1102 C1101 1.376 . S
C1102 C1103 1.388 1_565 S
C1103 H1090 0.930 1_545 S
C1103 C1102 1.388 1_545 S
C1103 C1104 1.390 . S
C1104 C1103 1.390 . S
C1104 C1105 1.394 . S
C1104 C1110 1.465 . S
C1105 C1100 1.399 . S
C1105 C1104 1.394 . S
C1105 C1106 1.516 . S
C1106 C1105 1.516 . S
C1106 C1107 1.502 . S
C1106 C1108 1.561 . S
C1106 C1109 1.526 . S
C1107 H1091 0.959 . S
C1107 H1092 0.959 . S
C1107 H1093 0.961 . S
C1107 C1106 1.502 . S
C1108 H1094 0.960 . S
C1108 H1095 0.961 . S
C1108 H1096 0.959 . S
C1108 C1106 1.561 . S
C1109 C1106 1.526 . S
C1109 C1110 1.396 . S
C1109 C1114 1.390 . S
C1110 C1104 1.465 . S
C1110 C1109 1.396 . S
C1110 C1111 1.399 . S
C1111 H1097 0.929 . S
C1111 C1110 1.399 . S
C1111 C1112 1.385 . S
C1112 H1098 0.931 . S
C1112 C1111 1.385 . S
C1112 C1113 1.389 . S
C1113 C1112 1.389 . S
C1113 C1114 1.387 . S
C1114 H1099 0.930 . S
C1114 C1109 1.390 . S
C1114 C1113 1.387 . S
H1115 C1127 0.930 . S
H1116 C1129 0.930 . S
H1117 C1130 0.930 . S
H1118 C1134 0.959 . S
H1119 C1134 0.959 . S
H1120 C1134 0.961 . S
H1121 C1135 0.960 . S
H1122 C1135 0.961 . S
H1123 C1135 0.959 . S
H1124 C1138 0.929 . S
H1125 C1139 0.931 . S
H1126 C1141 0.930 . S
C1127 H1115 0.930 . S
C1127 C1128 1.399 . S
C1127 C1132 1.399 . S
C1128 C1127 1.399 . S
C1128 C1129 1.376 . S
C1129 H1116 0.930 . S
C1129 C1128 1.376 . S
C1129 C1130 1.388 . S
C1130 H1117 0.930 . S
C1130 C1129 1.388 . S
C1130 C1131 1.390 . S
C1131 C1130 1.390 . S
C1131 C1132 1.394 . S
C1131 C1137 1.465 . S
C1132 C1127 1.399 . S
C1132 C1131 1.394 . S
C1132 C1133 1.516 . S
C1133 C1132 1.516 . S
C1133 C1134 1.502 . S
C1133 C1135 1.561 . S
C1133 C1136 1.526 . S
C1134 H1118 0.959 . S
C1134 H1119 0.959 . S
C1134 H1120 0.961 . S
C1134 C1133 1.502 . S
C1135 H1121 0.960 . S
C1135 H1122 0.961 . S
C1135 H1123 0.959 . S
C1135 C1133 1.561 . S
C1136 C1133 1.526 . S
C1136 C1137 1.396 . S
C1136 C1141 1.390 . S
C1137 C1131 1.465 . S
C1137 C1136 1.396 . S
C1137 C1138 1.399 . S
C1138 H1124 0.929 . S
C1138 C1137 1.399 . S
C1138 C1139 1.385 . S
C1139 H1125 0.931 . S
C1139 C1138 1.385 . S
C1139 C1140 1.389 . S
C1140 C1139 1.389 . S
C1140 C1141 1.387 . S
C1141 H1126 0.930 . S
C1141 C1136 1.390 . S
C1141 C1140 1.387 . S
H1142 C1154 0.930 . S
H1143 C1156 0.930 . S
H1144 C1157 0.930 . S
H1145 C1161 0.959 . S
H1146 C1161 0.959 . S
H1147 C1161 0.961 . S
H1148 C1162 0.960 . S
H1149 C1162 0.961 . S
H1150 C1162 0.959 . S
H1151 C1165 0.929 . S
H1152 C1166 0.931 . S
H1153 C1168 0.950 . S
C1154 H1142 0.930 . S
C1154 C1155 1.399 . S
C1154 C1159 1.399 . S
C1155 C1154 1.399 . S
C1155 C1156 1.376 . S
C1156 H1143 0.930 . S
C1156 C1155 1.376 . S
C1156 C1157 1.388 . S
C1157 H1144 0.930 . S
C1157 C1156 1.388 . S
C1157 C1158 1.390 . S
C1158 C1157 1.390 . S
C1158 C1159 1.394 . S
C1158 C1164 1.465 . S
C1159 C1154 1.399 . S
C1159 C1158 1.394 . S
C1159 C1160 1.516 . S
C1160 C1159 1.516 . S
C1160 C1161 1.502 . S
C1160 C1162 1.561 . S
C1160 C1163 1.526 . S
C1161 H1145 0.959 . S
C1161 H1146 0.959 . S
C1161 H1147 0.961 . S
C1161 C1160 1.502 . S
C1162 H1148 0.960 . S
C1162 H1149 0.961 . S
C1162 H1150 0.959 . S
C1162 C1160 1.561 . S
C1163 C1160 1.526 . S
C1163 C1164 1.396 . S
C1163 C1168 1.390 . S
C1164 C1158 1.465 . S
C1164 C1163 1.396 . S
C1164 C1165 1.399 . S
C1165 H1151 0.929 . S
C1165 C1164 1.399 . S
C1165 C1166 1.385 . S
C1166 H1152 0.931 . S
C1166 C1165 1.385 . S
C1166 C1167 1.405 . S
C1167 C1166 1.405 . S
C1167 C1168 1.398 . S
C1168 H1153 0.950 . S
C1168 C1163 1.390 . S
C1168 C1167 1.398 . S
H1169 C1181 0.930 . S
H1170 C1183 0.930 . S
H1171 C1184 0.930 . S
H1172 C1188 0.959 . S
H1173 C1188 0.959 . S
H1174 C1188 0.961 . S
H1175 C1189 0.960 . S
H1176 C1189 0.961 . S
H1177 C1189 0.959 . S
H1178 C1192 0.929 . S
H1179 C1193 0.931 . S
H1180 C1195 0.930 . S
C1181 H1169 0.930 . S
C1181 C1182 1.399 . S
C1181 C1186 1.399 . S
C1182 C1181 1.399 . S
C1182 C1183 1.376 . S
C1183 H1170 0.930 . S
C1183 C1182 1.376 . S
C1183 C1184 1.388 . S
C1184 H1171 0.930 . S
C1184 C1183 1.388 . S
C1184 C1185 1.390 . S
C1185 C1184 1.390 . S
C1185 C1186 1.394 . S
C1185 C1191 1.465 . S
C1186 C1181 1.399 . S
C1186 C1185 1.394 . S
C1186 C1187 1.516 . S
C1187 C1186 1.516 . S
C1187 C1188 1.502 . S
C1187 C1189 1.561 . S
C1187 C1190 1.526 . S
C1188 H1172 0.959 . S
C1188 H1173 0.959 . S
C1188 H1174 0.961 . S
C1188 C1187 1.502 . S
C1189 H1175 0.960 . S
C1189 H1176 0.961 . S
C1189 H1177 0.959 . S
C1189 C1187 1.561 . S
C1190 C1187 1.526 . S
C1190 C1191 1.396 . S
C1190 C1195 1.390 . S
C1191 C1185 1.465 . S
C1191 C1190 1.396 . S
C1191 C1192 1.399 . S
C1192 H1178 0.929 . S
C1192 C1191 1.399 . S
C1192 C1193 1.385 . S
C1193 H1179 0.931 . S
C1193 C1192 1.385 . S
C1193 C1194 1.389 . S
C1194 C1193 1.389 . S
C1194 C1195 1.387 . S
C1195 H1180 0.930 . S
C1195 C1190 1.390 . S
C1195 C1194 1.387 . S
H1196 C1208 0.930 . S
H1197 C1210 0.930 . S
H1198 C1211 0.930 . S
H1199 C1215 0.959 . S
H1200 C1215 0.990 . S
H1201 C1215 0.961 . S
H1202 C1216 0.960 . S
H1203 C1216 0.961 1_545 S
H1204 C1216 0.959 . S
H1205 C1219 0.929 . S
H1206 C1220 0.931 . S
H1207 C1222 0.884 1_545 S
C1208 H1196 0.930 . S
C1208 C1209 1.399 . S
C1208 C1213 1.399 . S
C1209 C1208 1.399 . S
C1209 C1210 1.376 . S
C1210 H1197 0.930 . S
C1210 C1209 1.376 . S
C1210 C1211 1.388 . S
C1211 H1198 0.930 . S
C1211 C1210 1.388 . S
C1211 C1212 1.390 . S
C1212 C1211 1.390 . S
C1212 C1213 1.394 . S
C1212 C1218 1.465 . S
C1213 C1208 1.399 . S
C1213 C1212 1.394 . S
C1213 C1214 1.516 . S
C1214 C1213 1.516 . S
C1214 C1215 1.502 . S
C1214 C1216 1.561 . S
C1214 C1217 1.526 . S
C1215 H1199 0.959 . S
C1215 H1200 0.990 . S
C1215 H1201 0.961 . S
C1215 C1214 1.502 . S
C1216 H1202 0.960 . S
C1216 H1203 0.961 1_565 S
C1216 H1204 0.959 . S
C1216 C1214 1.561 . S
C1217 C1214 1.526 . S
C1217 C1218 1.396 . S
C1217 C1222 1.434 . S
C1218 C1212 1.465 . S
C1218 C1217 1.396 . S
C1218 C1219 1.399 . S
C1219 H1205 0.929 . S
C1219 C1218 1.399 . S
C1219 C1220 1.385 . S
C1220 H1206 0.931 . S
C1220 C1219 1.385 . S
C1220 C1221 1.389 . S
C1221 C1220 1.389 . S
C1221 C1222 1.390 . S
C1222 H1207 0.884 1_565 S
C1222 C1217 1.434 . S
C1222 C1221 1.390 . S
H1223 C1235 0.930 . S
H1224 C1237 0.930 . S
H1225 C1238 0.930 . S
H1226 C1242 0.959 . S
H1227 C1242 0.959 . S
H1228 C1242 0.961 . S
H1229 C1243 0.960 . S
H1230 C1243 0.961 . S
H1231 C1243 0.959 . S
H1232 C1246 0.929 . S
H1233 C1247 0.931 . S
H1234 C1249 0.930 . S
C1235 H1223 0.930 . S
C1235 C1236 1.399 . S
C1235 C1240 1.399 . S
C1236 C1235 1.399 . S
C1236 C1237 1.376 . S
C1237 H1224 0.930 . S
C1237 C1236 1.376 . S
C1237 C1238 1.388 . S
C1238 H1225 0.930 . S
C1238 C1237 1.388 . S
C1238 C1239 1.390 . S
C1239 C1238 1.390 . S
C1239 C1240 1.394 . S
C1239 C1245 1.465 . S
C1240 C1235 1.399 . S
C1240 C1239 1.394 . S
C1240 C1241 1.516 . S
C1241 C1240 1.516 . S
C1241 C1242 1.502 . S
C1241 C1243 1.561 . S
C1241 C1244 1.526 . S
C1242 H1226 0.959 . S
C1242 H1227 0.959 . S
C1242 H1228 0.961 . S
C1242 C1241 1.502 . S
C1243 H1229 0.960 . S
C1243 H1230 0.961 . S
C1243 H1231 0.959 . S
C1243 C1241 1.561 . S
C1244 C1241 1.526 . S
C1244 C1245 1.396 . S
C1244 C1249 1.390 . S
C1245 C1239 1.465 . S
C1245 C1244 1.396 . S
C1245 C1246 1.399 . S
C1246 H1232 0.929 . S
C1246 C1245 1.399 . S
C1246 C1247 1.385 . S
C1247 H1233 0.931 . S
C1247 C1246 1.385 . S
C1247 C1248 1.389 . S
C1248 C1247 1.389 . S
C1248 C1249 1.387 . S
C1249 H1234 0.930 . S
C1249 C1244 1.390 . S
C1249 C1248 1.387 . S
H1250 C1262 0.930 . S
H1251 C1264 0.930 . S
H1252 C1265 0.930 . S
H1253 C1269 0.959 . S
H1254 C1269 0.959 . S
H1255 C1269 0.961 . S
H1256 C1270 0.960 . S
H1257 C1270 0.961 . S
H1258 C1270 0.959 . S
H1259 C1273 0.929 . S
H1260 C1274 0.931 . S
H1261 C1276 0.930 . S
C1262 H1250 0.930 . S
C1262 C1263 1.399 . S
C1262 C1267 1.399 . S
C1263 C1262 1.399 . S
C1263 C1264 1.376 . S
C1264 H1251 0.930 . S
C1264 C1263 1.376 . S
C1264 C1265 1.388 . S
C1265 H1252 0.930 . S
C1265 C1264 1.388 . S
C1265 C1266 1.390 . S
C1266 C1265 1.390 . S
C1266 C1267 1.394 . S
C1266 C1272 1.465 . S
C1267 C1262 1.399 . S
C1267 C1266 1.394 . S
C1267 C1268 1.516 . S
C1268 C1267 1.516 . S
C1268 C1269 1.502 . S
C1268 C1270 1.561 . S
C1268 C1271 1.526 . S
C1269 H1253 0.959 . S
C1269 H1254 0.959 . S
C1269 H1255 0.961 . S
C1269 C1268 1.502 . S
C1270 H1256 0.960 . S
C1270 H1257 0.961 . S
C1270 H1258 0.959 . S
C1270 C1268 1.561 . S
C1271 C1268 1.526 . S
C1271 C1272 1.396 . S
C1271 C1276 1.390 . S
C1272 C1266 1.465 . S
C1272 C1271 1.396 . S
C1272 C1273 1.399 . S
C1273 H1259 0.929 . S
C1273 C1272 1.399 . S
C1273 C1274 1.385 1_545 S
C1274 H1260 0.931 . S
C1274 C1273 1.385 1_565 S
C1274 C1275 1.398 . S
C1275 C1274 1.398 . S
C1275 C1276 1.354 1_565 S
C1276 H1261 0.930 . S
C1276 C1271 1.390 . S
C1276 C1275 1.354 1_545 S
H1277 C1289 0.930 . S
H1278 C1291 0.930 . S
H1279 C1292 0.930 . S
H1280 C1296 0.959 . S
H1281 C1296 0.959 . S
H1282 C1296 0.961 . S
H1283 C1297 0.960 . S
H1284 C1297 0.961 . S
H1285 C1297 0.959 . S
H1286 C1300 0.929 . S
H1287 C1301 0.931 . S
H1288 C1303 0.930 . S
C1289 H1277 0.930 . S
C1289 C1290 1.399 . S
C1289 C1294 1.399 . S
C1290 C1289 1.399 . S
C1290 C1291 1.376 . S
C1291 H1278 0.930 . S
C1291 C1290 1.376 . S
C1291 C1292 1.388 . S
C1292 H1279 0.930 . S
C1292 C1291 1.388 . S
C1292 C1293 1.390 . S
C1293 C1292 1.390 . S
C1293 C1294 1.394 . S
C1293 C1299 1.465 . S
C1294 C1289 1.399 . S
C1294 C1293 1.394 . S
C1294 C1295 1.516 . S
C1295 C1294 1.516 . S
C1295 C1296 1.502 . S
C1295 C1297 1.561 . S
C1295 C1298 1.526 . S
C1296 H1280 0.959 . S
C1296 H1281 0.959 . S
C1296 H1282 0.961 . S
C1296 C1295 1.502 . S
C1297 H1283 0.960 . S
C1297 H1284 0.961 . S
C1297 H1285 0.959 . S
C1297 C1295 1.561 . S
C1298 C1295 1.526 . S
C1298 C1299 1.396 . S
C1298 C1303 1.390 . S
C1299 C1293 1.465 . S
C1299 C1298 1.396 . S
C1299 C1300 1.399 . S
C1300 H1286 0.929 . S
C1300 C1299 1.399 . S
C1300 C1301 1.385 . S
C1301 H1287 0.931 . S
C1301 C1300 1.385 . S
C1301 C1302 1.389 . S
C1302 C1301 1.389 . S
C1302 C1303 1.387 . S
C1303 H1288 0.930 . S
C1303 C1298 1.390 . S
C1303 C1302 1.387 . S
H1304 C1316 0.930 1_545 S
H1305 C1318 0.930 . S
H1306 C1319 0.930 . S
H1307 C1323 0.959 . S
H1308 C1323 0.959 . S
H1309 C1323 0.961 . S
H1310 C1324 0.960 . S
H1311 C1324 0.961 . S
H1312 C1324 0.959 . S
H1313 C1327 0.929 . S
H1314 C1328 0.931 . S
H1315 C1330 0.930 . S
C1316 H1304 0.930 1_565 S
C1316 C1317 1.399 . S
C1316 C1321 1.399 . S
C1317 C1316 1.399 . S
C1317 C1318 1.376 . S
C1318 H1305 0.930 . S
C1318 C1317 1.376 . S
C1318 C1319 1.388 . S
C1319 H1306 0.930 . S
C1319 C1318 1.388 . S
C1319 C1320 1.390 . S
C1320 C1319 1.390 . S
C1320 C1321 1.394 . S
C1320 C1326 1.465 . S
C1321 C1316 1.399 . S
C1321 C1320 1.394 . S
C1321 C1322 1.516 . S
C1322 C1321 1.516 . S
C1322 C1323 1.502 . S
C1322 C1324 1.561 . S
C1322 C1325 1.526 . S
C1323 H1307 0.959 . S
C1323 H1308 0.959 . S
C1323 H1309 0.961 . S
C1323 C1322 1.502 . S
C1324 H1310 0.960 . S
C1324 H1311 0.961 . S
C1324 H1312 0.959 . S
C1324 C1322 1.561 . S
C1325 C1322 1.526 . S
C1325 C1326 1.396 . S
C1325 C1330 1.390 . S
C1326 C1320 1.465 . S
C1326 C1325 1.396 . S
C1326 C1327 1.399 . S
C1327 H1313 0.929 . S
C1327 C1326 1.399 . S
C1327 C1328 1.385 . S
C1328 H1314 0.931 . S
C1328 C1327 1.385 . S
C1328 C1329 1.389 . S
C1329 C1328 1.389 . S
C1329 C1330 1.387 . S
C1330 H1315 0.930 . S
C1330 C1325 1.390 . S
C1330 C1329 1.387 . S
H1331 C1343 0.930 . S
H1332 C1345 0.930 . S
H1333 C1346 0.930 . S
H1334 C1350 0.959 . S
H1335 C1350 0.959 . S
H1336 C1350 0.961 . S
H1337 C1351 0.960 . S
H1338 C1351 0.961 . S
H1339 C1351 0.959 . S
H1340 C1354 0.929 . S
H1341 C1355 0.931 . S
H1342 C1357 0.930 . S
C1343 H1331 0.930 . S
C1343 C1344 1.399 . S
C1343 C1348 1.399 . S
C1344 C1343 1.399 . S
C1344 C1345 1.376 . S
C1345 H1332 0.930 . S
C1345 C1344 1.376 . S
C1345 C1346 1.388 . S
C1346 H1333 0.930 . S
C1346 C1345 1.388 . S
C1346 C1347 1.390 . S
C1347 C1346 1.390 . S
C1347 C1348 1.394 . S
C1347 C1353 1.465 . S
C1348 C1343 1.399 . S
C1348 C1347 1.394 . S
C1348 C1349 1.516 . S
C1349 C1348 1.516 . S
C1349 C1350 1.502 . S
C1349 C1351 1.561 . S
C1349 C1352 1.526 . S
C1350 H1334 0.959 . S
C1350 H1335 0.959 . S
C1350 H1336 0.961 . S
C1350 C1349 1.502 . S
C1351 H1337 0.960 . S
C1351 H1338 0.961 . S
C1351 H1339 0.959 . S
C1351 C1349 1.561 . S
C1352 C1349 1.526 . S
C1352 C1353 1.396 . S
C1352 C1357 1.390 . S
C1353 C1347 1.465 . S
C1353 C1352 1.396 . S
C1353 C1354 1.399 . S
C1354 H1340 0.929 . S
C1354 C1353 1.399 . S
C1354 C1355 1.385 . S
C1355 H1341 0.931 . S
C1355 C1354 1.385 . S
C1355 C1356 1.389 . S
C1356 C1355 1.389 . S
C1356 C1357 1.387 . S
C1357 H1342 0.930 . S
C1357 C1352 1.390 . S
C1357 C1356 1.387 . S
H1358 C1370 0.930 . S
H1359 C1372 0.930 . S
H1360 C1373 0.930 . S
H1361 C1377 0.959 . S
H1362 C1377 0.959 . S
H1363 C1377 0.961 . S
H1364 C1378 0.960 . S
H1365 C1378 0.961 . S
H1366 C1378 0.959 . S
H1367 C1381 0.929 . S
H1368 C1382 0.931 . S
H1369 C1384 0.930 . S
C1370 H1358 0.930 . S
C1370 C1371 1.399 . S
C1370 C1375 1.399 . S
C1371 C1370 1.399 . S
C1371 C1372 1.376 . S
C1372 H1359 0.930 . S
C1372 C1371 1.376 . S
C1372 C1373 1.388 . S
C1373 H1360 0.930 . S
C1373 C1372 1.388 . S
C1373 C1374 1.390 . S
C1374 C1373 1.390 . S
C1374 C1375 1.394 . S
C1374 C1380 1.465 . S
C1375 C1370 1.399 . S
C1375 C1374 1.394 . S
C1375 C1376 1.516 . S
C1376 C1375 1.516 . S
C1376 C1377 1.502 . S
C1376 C1378 1.561 . S
C1376 C1379 1.526 . S
C1377 H1361 0.959 . S
C1377 H1362 0.959 . S
C1377 H1363 0.961 . S
C1377 C1376 1.502 . S
C1378 H1364 0.960 . S
C1378 H1365 0.961 . S
C1378 H1366 0.959 . S
C1378 C1376 1.561 . S
C1379 C1376 1.526 . S
C1379 C1380 1.396 . S
C1379 C1384 1.390 . S
C1380 C1374 1.465 . S
C1380 C1379 1.396 . S
C1380 C1381 1.399 . S
C1381 H1367 0.929 . S
C1381 C1380 1.399 . S
C1381 C1382 1.385 1_545 S
C1382 H1368 0.931 . S
C1382 C1381 1.385 1_565 S
C1382 C1383 1.399 . S
C1383 C1382 1.399 . S
C1383 C1384 1.353 1_565 S
C1384 H1369 0.930 . S
C1384 C1379 1.390 . S
C1384 C1383 1.353 1_545 S
H1385 C1397 0.930 . S
H1386 C1399 0.930 . S
H1387 C1400 0.930 . S
H1388 C1404 0.959 . S
H1389 C1404 0.959 . S
H1390 C1404 0.961 . S
H1391 C1405 0.960 . S
H1392 C1405 0.961 . S
H1393 C1405 0.959 . S
H1394 C1408 0.929 . S
H1395 C1409 0.931 . S
H1396 C1411 0.930 . S
C1397 H1385 0.930 . S
C1397 C1398 1.399 . S
C1397 C1402 1.399 . S
C1398 C1397 1.399 . S
C1398 C1399 1.376 . S
C1399 H1386 0.930 . S
C1399 C1398 1.376 . S
C1399 C1400 1.388 . S
C1400 H1387 0.930 . S
C1400 C1399 1.388 . S
C1400 C1401 1.390 . S
C1401 C1400 1.390 . S
C1401 C1402 1.394 . S
C1401 C1407 1.465 . S
C1402 C1397 1.399 . S
C1402 C1401 1.394 . S
C1402 C1403 1.516 . S
C1403 C1402 1.516 . S
C1403 C1404 1.502 . S
C1403 C1405 1.561 . S
C1403 C1406 1.526 . S
C1404 H1388 0.959 . S
C1404 H1389 0.959 . S
C1404 H1390 0.961 . S
C1404 C1403 1.502 . S
C1405 H1391 0.960 . S
C1405 H1392 0.961 . S
C1405 H1393 0.959 . S
C1405 C1403 1.561 . S
C1406 C1403 1.526 . S
C1406 C1407 1.396 . S
C1406 C1411 1.390 . S
C1407 C1401 1.465 . S
C1407 C1406 1.396 . S
C1407 C1408 1.399 . S
C1408 H1394 0.929 . S
C1408 C1407 1.399 . S
C1408 C1409 1.385 . S
C1409 H1395 0.931 . S
C1409 C1408 1.385 . S
C1409 C1410 1.389 . S
C1410 C1409 1.389 . S
C1410 C1411 1.387 . S
C1411 H1396 0.930 . S
C1411 C1406 1.390 . S
C1411 C1410 1.387 . S
H1412 C1424 0.930 . S
H1413 C1426 0.930 . S
H1414 C1427 0.930 . S
H1415 C1431 0.959 . S
H1416 C1431 0.959 1_565 S
H1417 C1431 0.961 . S
H1418 C1432 0.960 . S
H1419 C1432 0.961 . S
H1420 C1432 0.959 . S
H1421 C1435 0.929 . S
H1422 C1436 0.931 . S
H1423 C1438 0.930 1_565 S
C1424 H1412 0.930 . S
C1424 C1425 1.399 . S
C1424 C1429 1.399 . S
C1425 C1424 1.399 . S
C1425 C1426 1.376 . S
C1426 H1413 0.930 . S
C1426 C1425 1.376 . S
C1426 C1427 1.388 . S
C1427 H1414 0.930 . S
C1427 C1426 1.388 . S
C1427 C1428 1.390 . S
C1428 C1427 1.390 . S
C1428 C1429 1.394 . S
C1428 C1434 1.465 . S
C1429 C1424 1.399 . S
C1429 C1428 1.394 . S
C1429 C1430 1.516 . S
C1430 C1429 1.516 . S
C1430 C1431 1.502 . S
C1430 C1432 1.561 . S
C1430 C1433 1.526 . S
C1431 H1415 0.959 . S
C1431 H1416 0.959 1_545 S
C1431 H1417 0.961 . S
C1431 C1430 1.502 . S
C1432 H1418 0.960 . S
C1432 H1419 0.961 . S
C1432 H1420 0.959 . S
C1432 C1430 1.561 . S
C1433 C1430 1.526 . S
C1433 C1434 1.396 . S
C1433 C1438 1.390 . S
C1434 C1428 1.465 . S
C1434 C1433 1.396 . S
C1434 C1435 1.399 . S
C1435 H1421 0.929 . S
C1435 C1434 1.399 . S
C1435 C1436 1.385 . S
C1436 H1422 0.931 . S
C1436 C1435 1.385 . S
C1436 C1437 1.389 . S
C1437 C1436 1.389 . S
C1437 C1438 1.387 . S
C1438 H1423 0.930 1_545 S
C1438 C1433 1.390 . S
C1438 C1437 1.387 . S
H1439 C1451 0.930 . S
H1440 C1453 0.930 . S
H1441 C1454 0.930 . S
H1442 C1458 0.959 . S
H1443 C1458 0.959 . S
H1444 C1458 0.961 . S
H1445 C1459 0.960 . S
H1446 C1459 0.961 . S
H1447 C1459 0.959 . S
H1448 C1462 0.929 . S
H1449 C1463 0.931 . S
H1450 C1465 0.930 . S
C1451 H1439 0.930 . S
C1451 C1452 1.399 . S
C1451 C1456 1.399 . S
C1452 C1451 1.399 . S
C1452 C1453 1.376 . S
C1453 H1440 0.930 . S
C1453 C1452 1.376 . S
C1453 C1454 1.388 . S
C1454 H1441 0.930 . S
C1454 C1453 1.388 . S
C1454 C1455 1.390 . S
C1455 C1454 1.390 . S
C1455 C1456 1.394 . S
C1455 C1461 1.465 . S
C1456 C1451 1.399 . S
C1456 C1455 1.394 . S
C1456 C1457 1.516 . S
C1457 C1456 1.516 . S
C1457 C1458 1.502 . S
C1457 C1459 1.561 . S
C1457 C1460 1.526 . S
C1458 H1442 0.959 . S
C1458 H1443 0.959 . S
C1458 H1444 0.961 . S
C1458 C1457 1.502 . S
C1459 H1445 0.960 . S
C1459 H1446 0.961 . S
C1459 H1447 0.959 . S
C1459 C1457 1.561 . S
C1460 C1457 1.526 . S
C1460 C1461 1.396 . S
C1460 C1465 1.390 . S
C1461 C1455 1.465 . S
C1461 C1460 1.396 . S
C1461 C1462 1.399 . S
C1462 H1448 0.929 . S
C1462 C1461 1.399 . S
C1462 C1463 1.385 . S
C1463 H1449 0.931 . S
C1463 C1462 1.385 . S
C1463 C1464 1.389 . S
C1464 C1463 1.389 . S
C1464 C1465 1.387 . S
C1465 H1450 0.930 . S
C1465 C1460 1.390 . S
C1465 C1464 1.387 . S
H1466 C1478 0.930 . S
H1467 C1480 0.930 . S
H1468 C1481 0.930 1_545 S
H1469 C1485 0.959 . S
H1470 C1485 0.959 . S
H1471 C1485 0.961 . S
H1472 C1486 0.960 . S
H1473 C1486 0.961 . S
H1474 C1486 0.959 . S
H1475 C1489 0.929 . S
H1476 C1490 0.931 . S
H1477 C1492 0.930 . S
C1478 H1466 0.930 . S
C1478 C1479 1.369 1_565 S
C1478 C1483 1.399 . S
C1479 C1478 1.369 1_545 S
C1479 C1480 1.388 . S
C1480 H1467 0.930 . S
C1480 C1479 1.388 . S
C1480 C1481 1.388 1_545 S
C1481 H1468 0.930 1_565 S
C1481 C1480 1.388 1_565 S
C1481 C1482 1.390 . S
C1482 C1481 1.390 . S
C1482 C1483 1.394 . S
C1482 C1488 1.465 . S
C1483 C1478 1.399 . S
C1483 C1482 1.394 . S
C1483 C1484 1.516 . S
C1484 C1483 1.516 . S
C1484 C1485 1.502 . S
C1484 C1486 1.561 . S
C1484 C1487 1.526 . S
C1485 H1469 0.959 . S
C1485 H1470 0.959 . S
C1485 H1471 0.961 . S
C1485 C1484 1.502 . S
C1486 H1472 0.960 . S
C1486 H1473 0.961 . S
C1486 H1474 0.959 . S
C1486 C1484 1.561 . S
C1487 C1484 1.526 . S
C1487 C1488 1.396 . S
C1487 C1492 1.390 . S
C1488 C1482 1.465 . S
C1488 C1487 1.396 . S
C1488 C1489 1.399 . S
C1489 H1475 0.929 . S
C1489 C1488 1.399 . S
C1489 C1490 1.385 . S
C1490 H1476 0.931 . S
C1490 C1489 1.385 . S
C1490 C1491 1.389 . S
C1491 C1490 1.389 . S
C1491 C1492 1.387 . S
C1492 H1477 0.930 . S
C1492 C1487 1.390 . S
C1492 C1491 1.387 . S
H1493 C1505 0.930 . S
H1494 C1507 0.930 . S
H1495 C1508 0.930 . S
H1496 C1512 0.959 . S
H1497 C1512 0.959 . S
H1498 C1512 0.961 . S
H1499 C1513 0.960 . S
H1500 C1513 0.961 . S
H1501 C1513 0.959 . S
H1502 C1516 0.929 . S
H1503 C1517 0.931 . S
H1504 C1519 0.930 . S
C1505 H1493 0.930 . S
C1505 C1506 1.399 . S
C1505 C1510 1.399 . S
C1506 C1505 1.399 . S
C1506 C1507 1.376 . S
C1507 H1494 0.930 . S
C1507 C1506 1.376 . S
C1507 C1508 1.388 . S
C1508 H1495 0.930 . S
C1508 C1507 1.388 . S
C1508 C1509 1.390 . S
C1509 C1508 1.390 . S
C1509 C1510 1.394 . S
C1509 C1515 1.465 . S
C1510 C1505 1.399 . S
C1510 C1509 1.394 . S
C1510 C1511 1.516 . S
C1511 C1510 1.516 . S
C1511 C1512 1.502 . S
C1511 C1513 1.561 . S
C1511 C1514 1.526 . S
C1512 H1496 0.959 . S
C1512 H1497 0.959 . S
C1512 H1498 0.961 . S
C1512 C1511 1.502 . S
C1513 H1499 0.960 . S
C1513 H1500 0.961 . S
C1513 H1501 0.959 . S
C1513 C1511 1.561 . S
C1514 C1511 1.526 . S
C1514 C1515 1.396 . S
C1514 C1519 1.390 . S
C1515 C1509 1.465 . S
C1515 C1514 1.396 . S
C1515 C1516 1.399 . S
C1516 H1502 0.929 . S
C1516 C1515 1.399 . S
C1516 C1517 1.385 . S
C1517 H1503 0.931 . S
C1517 C1516 1.385 . S
C1517 C1518 1.389 . S
C1518 C1517 1.389 . S
C1518 C1519 1.387 . S
C1519 H1504 0.930 . S
C1519 C1514 1.390 . S
C1519 C1518 1.387 . S
H1520 C1532 0.930 . S
H1521 C1534 0.930 . S
H1522 C1535 0.930 . S
H1523 C1539 0.959 . S
H1524 C1539 0.959 . S
H1525 C1539 0.961 . S
H1526 C1540 0.960 . S
H1527 C1540 0.961 . S
H1528 C1540 0.959 . S
H1529 C1543 0.929 . S
H1530 C1544 0.931 . S
H1531 C1546 0.930 . S
C1532 H1520 0.930 . S
C1532 C1533 1.399 . S
C1532 C1537 1.399 . S
C1533 C1532 1.399 . S
C1533 C1534 1.376 . S
C1534 H1521 0.930 . S
C1534 C1533 1.376 . S
C1534 C1535 1.388 . S
C1535 H1522 0.930 . S
C1535 C1534 1.388 . S
C1535 C1536 1.390 . S
C1536 C1535 1.390 . S
C1536 C1537 1.394 . S
C1536 C1542 1.465 . S
C1537 C1532 1.399 . S
C1537 C1536 1.394 . S
C1537 C1538 1.516 . S
C1538 C1537 1.516 . S
C1538 C1539 1.502 . S
C1538 C1540 1.561 . S
C1538 C1541 1.526 . S
C1539 H1523 0.959 . S
C1539 H1524 0.959 . S
C1539 H1525 0.961 . S
C1539 C1538 1.502 . S
C1540 H1526 0.960 . S
C1540 H1527 0.961 . S
C1540 H1528 0.959 . S
C1540 C1538 1.561 . S
C1541 C1538 1.526 . S
C1541 C1542 1.396 . S
C1541 C1546 1.390 . S
C1542 C1536 1.465 . S
C1542 C1541 1.396 . S
C1542 C1543 1.399 . S
C1543 H1529 0.929 . S
C1543 C1542 1.399 . S
C1543 C1544 1.385 . S
C1544 H1530 0.931 . S
C1544 C1543 1.385 . S
C1544 C1545 1.389 . S
C1545 C1544 1.389 . S
C1545 C1546 1.387 . S
C1546 H1531 0.930 . S
C1546 C1541 1.390 . S
C1546 C1545 1.387 . S
H1547 C1559 0.930 . S
H1548 C1561 0.930 . S
H1549 C1562 0.930 . S
H1550 C1566 0.959 . S
H1551 C1566 0.959 . S
H1552 C1566 0.961 . S
H1553 C1567 0.960 . S
H1554 C1567 0.961 . S
H1555 C1567 0.959 . S
H1556 C1570 0.929 . S
H1557 C1571 0.931 . S
H1558 C1573 0.930 . S
C1559 H1547 0.930 . S
C1559 C1560 1.399 . S
C1559 C1564 1.399 . S
C1560 C1559 1.399 . S
C1560 C1561 1.376 . S
C1561 H1548 0.930 . S
C1561 C1560 1.376 . S
C1561 C1562 1.388 . S
C1562 H1549 0.930 . S
C1562 C1561 1.388 . S
C1562 C1563 1.390 . S
C1563 C1562 1.390 . S
C1563 C1564 1.394 . S
C1563 C1569 1.465 . S
C1564 C1559 1.399 . S
C1564 C1563 1.394 . S
C1564 C1565 1.516 . S
C1565 C1564 1.516 . S
C1565 C1566 1.502 . S
C1565 C1567 1.561 . S
C1565 C1568 1.526 . S
C1566 H1550 0.959 . S
C1566 H1551 0.959 . S
C1566 H1552 0.961 . S
C1566 C1565 1.502 . S
C1567 H1553 0.960 . S
C1567 H1554 0.961 . S
C1567 H1555 0.959 . S
C1567 C1565 1.561 . S
C1568 C1565 1.526 . S
C1568 C1569 1.396 . S
C1568 C1573 1.390 . S
C1569 C1563 1.465 . S
C1569 C1568 1.396 . S
C1569 C1570 1.399 . S
C1570 H1556 0.929 . S
C1570 C1569 1.399 . S
C1570 C1571 1.385 . S
C1571 H1557 0.931 . S
C1571 C1570 1.385 . S
C1571 C1572 1.389 . S
C1572 C1571 1.389 . S
C1572 C1573 1.387 . S
C1573 H1558 0.930 . S
C1573 C1568 1.390 . S
C1573 C1572 1.387 . S
H1574 C1586 0.930 . S
H1575 C1588 0.930 . S
H1576 C1589 0.930 . S
H1577 C1593 0.959 . S
H1578 C1593 0.959 . S
H1579 C1593 0.961 . S
H1580 C1594 0.960 . S
H1581 C1594 0.961 . S
H1582 C1594 0.959 . S
H1583 C1597 0.929 . S
H1584 C1598 0.931 . S
H1585 C1600 0.930 . S
C1586 H1574 0.930 . S
C1586 C1587 1.399 . S
C1586 C1591 1.399 . S
C1587 C1586 1.399 . S
C1587 C1588 1.376 . S
C1588 H1575 0.930 . S
C1588 C1587 1.376 . S
C1588 C1589 1.388 . S
C1589 H1576 0.930 . S
C1589 C1588 1.388 . S
C1589 C1590 1.390 . S
C1590 C1589 1.390 . S
C1590 C1591 1.394 . S
C1590 C1596 1.465 . S
C1591 C1586 1.399 . S
C1591 C1590 1.394 . S
C1591 C1592 1.516 . S
C1592 C1591 1.516 . S
C1592 C1593 1.502 . S
C1592 C1594 1.561 . S
C1592 C1595 1.526 . S
C1593 H1577 0.959 . S
C1593 H1578 0.959 . S
C1593 H1579 0.961 . S
C1593 C1592 1.502 . S
C1594 H1580 0.960 . S
C1594 H1581 0.961 . S
C1594 H1582 0.959 . S
C1594 C1592 1.561 . S
C1595 C1592 1.526 . S
C1595 C1596 1.396 . S
C1595 C1600 1.390 . S
C1596 C1590 1.465 . S
C1596 C1595 1.396 . S
C1596 C1597 1.399 . S
C1597 H1583 0.929 . S
C1597 C1596 1.399 . S
C1597 C1598 1.385 . S
C1598 H1584 0.931 . S
C1598 C1597 1.385 . S
C1598 C1599 1.389 . S
C1599 C1598 1.389 . S
C1599 C1600 1.387 . S
C1600 H1585 0.930 . S
C1600 C1595 1.390 . S
C1600 C1599 1.387 . S
H1601 C1613 0.930 . S
H1602 C1615 0.930 . S
H1603 C1616 0.930 . S
H1604 C1620 0.959 . S
H1605 C1620 0.959 . S
H1606 C1620 0.961 . S
H1607 C1621 0.960 . S
H1608 C1621 0.961 . S
H1609 C1621 0.959 . S
H1610 C1624 0.929 . S
H1611 C1625 0.931 . S
H1612 C1627 0.930 . S
C1613 H1601 0.930 . S
C1613 C1614 1.399 . S
C1613 C1618 1.399 . S
C1614 C1613 1.399 . S
C1614 C1615 1.376 . S
C1615 H1602 0.930 . S
C1615 C1614 1.376 . S
C1615 C1616 1.388 . S
C1616 H1603 0.930 . S
C1616 C1615 1.388 . S
C1616 C1617 1.390 . S
C1617 C1616 1.390 . S
C1617 C1618 1.394 . S
C1617 C1623 1.465 . S
C1618 C1613 1.399 . S
C1618 C1617 1.394 . S
C1618 C1619 1.516 . S
C1619 C1618 1.516 . S
C1619 C1620 1.502 . S
C1619 C1621 1.561 . S
C1619 C1622 1.526 . S
C1620 H1604 0.959 . S
C1620 H1605 0.959 . S
C1620 H1606 0.961 . S
C1620 C1619 1.502 . S
C1621 H1607 0.960 . S
C1621 H1608 0.961 . S
C1621 H1609 0.959 . S
C1621 C1619 1.561 . S
C1622 C1619 1.526 . S
C1622 C1623 1.396 . S
C1622 C1627 1.390 . S
C1623 C1617 1.465 . S
C1623 C1622 1.396 . S
C1623 C1624 1.399 . S
C1624 H1610 0.929 . S
C1624 C1623 1.399 . S
C1624 C1625 1.385 . S
C1625 H1611 0.931 . S
C1625 C1624 1.385 . S
C1625 C1626 1.389 . S
C1626 C1625 1.389 . S
C1626 C1627 1.387 . S
C1627 H1612 0.930 . S
C1627 C1622 1.390 . S
C1627 C1626 1.387 . S
H1628 C1640 0.930 . S
H1629 C1642 0.930 . S
H1630 C1643 0.930 . S
H1631 C1647 0.959 . S
H1632 C1647 0.959 . S
H1633 C1647 0.961 . S
H1634 C1648 0.960 . S
H1635 C1648 0.961 . S
H1636 C1648 0.959 . S
H1637 C1651 0.929 . S
H1638 C1652 0.931 . S
H1639 C1654 0.930 . S
C1640 H1628 0.930 . S
C1640 C1641 1.399 . S
C1640 C1645 1.399 . S
C1641 C1640 1.399 . S
C1641 C1642 1.376 . S
C1642 H1629 0.930 . S
C1642 C1641 1.376 . S
C1642 C1643 1.388 . S
C1643 H1630 0.930 . S
C1643 C1642 1.388 . S
C1643 C1644 1.390 . S
C1644 C1643 1.390 . S
C1644 C1645 1.394 . S
C1644 C1650 1.465 . S
C1645 C1640 1.399 . S
C1645 C1644 1.394 . S
C1645 C1646 1.516 . S
C1646 C1645 1.516 . S
C1646 C1647 1.502 . S
C1646 C1648 1.561 . S
C1646 C1649 1.526 . S
C1647 H1631 0.959 . S
C1647 H1632 0.959 . S
C1647 H1633 0.961 . S
C1647 C1646 1.502 . S
C1648 H1634 0.960 . S
C1648 H1635 0.961 . S
C1648 H1636 0.959 . S
C1648 C1646 1.561 . S
C1649 C1646 1.526 . S
C1649 C1650 1.396 . S
C1649 C1654 1.390 . S
C1650 C1644 1.465 . S
C1650 C1649 1.396 . S
C1650 C1651 1.399 . S
C1651 H1637 0.929 . S
C1651 C1650 1.399 . S
C1651 C1652 1.385 . S
C1652 H1638 0.931 . S
C1652 C1651 1.385 . S
C1652 C1653 1.389 . S
C1653 C1652 1.389 . S
C1653 C1654 1.387 . S
C1654 H1639 0.930 . S
C1654 C1649 1.390 . S
C1654 C1653 1.387 . S
H1655 C1667 0.930 . S
H1656 C1669 0.930 . S
H1657 C1670 0.930 . S
H1658 C1674 0.959 . S
H1659 C1674 0.959 . S
H1660 C1674 0.961 . S
H1661 C1675 0.960 . S
H1662 C1675 0.961 . S
H1663 C1675 0.959 . S
H1664 C1678 0.929 . S
H1665 C1679 0.931 . S
H1666 C1681 0.930 . S
C1667 H1655 0.930 . S
C1667 C1668 1.399 . S
C1667 C1672 1.399 . S
C1668 C1667 1.399 . S
C1668 C1669 1.376 . S
C1669 H1656 0.930 . S
C1669 C1668 1.376 . S
C1669 C1670 1.388 . S
C1670 H1657 0.930 . S
C1670 C1669 1.388 . S
C1670 C1671 1.390 . S
C1671 C1670 1.390 . S
C1671 C1672 1.394 . S
C1671 C1677 1.465 . S
C1672 C1667 1.399 . S
C1672 C1671 1.394 . S
C1672 C1673 1.516 . S
C1673 C1672 1.516 . S
C1673 C1674 1.502 . S
C1673 C1675 1.561 . S
C1673 C1676 1.526 . S
C1674 H1658 0.959 . S
C1674 H1659 0.959 . S
C1674 H1660 0.961 . S
C1674 C1673 1.502 . S
C1675 H1661 0.960 . S
C1675 H1662 0.961 . S
C1675 H1663 0.959 . S
C1675 C1673 1.561 . S
C1676 C1673 1.526 . S
C1676 C1677 1.396 . S
C1676 C1681 1.390 . S
C1677 C1671 1.465 . S
C1677 C1676 1.396 . S
C1677 C1678 1.399 . S
C1678 H1664 0.929 . S
C1678 C1677 1.399 . S
C1678 C1679 1.385 . S
C1679 H1665 0.931 . S
C1679 C1678 1.385 . S
C1679 C1680 1.389 . S
C1680 C1679 1.389 . S
C1680 C1681 1.387 . S
C1681 H1666 0.930 . S
C1681 C1676 1.390 . S
C1681 C1680 1.387 . S
H1682 C1694 0.930 . S
H1683 C1696 0.930 . S
H1684 C1697 0.930 . S
H1685 C1701 0.959 . S
H1686 C1701 0.959 . S
H1687 C1701 0.961 . S
H1688 C1702 0.960 . S
H1689 C1702 0.961 . S
H1690 C1702 0.959 . S
H1691 C1705 0.929 . S
H1692 C1706 0.931 . S
H1693 C1708 0.930 . S
C1694 H1682 0.930 . S
C1694 C1695 1.399 . S
C1694 C1699 1.399 . S
C1695 C1694 1.399 . S
C1695 C1696 1.376 . S
C1696 H1683 0.930 . S
C1696 C1695 1.376 . S
C1696 C1697 1.388 . S
C1697 H1684 0.930 . S
C1697 C1696 1.388 . S
C1697 C1698 1.390 . S
C1698 C1697 1.390 . S
C1698 C1699 1.394 . S
C1698 C1704 1.465 . S
C1699 C1694 1.399 . S
C1699 C1698 1.394 . S
C1699 C1700 1.516 . S
C1700 C1699 1.516 . S
C1700 C1701 1.502 . S
C1700 C1702 1.561 . S
C1700 C1703 1.526 . S
C1701 H1685 0.959 . S
C1701 H1686 0.959 . S
C1701 H1687 0.961 . S
C1701 C1700 1.502 . S
C1702 H1688 0.960 . S
C1702 H1689 0.961 . S
C1702 H1690 0.959 . S
C1702 C1700 1.561 . S
C1703 C1700 1.526 . S
C1703 C1704 1.396 . S
C1703 C1708 1.390 . S
C1704 C1698 1.465 . S
C1704 C1703 1.396 . S
C1704 C1705 1.399 . S
C1705 H1691 0.929 . S
C1705 C1704 1.399 . S
C1705 C1706 1.385 . S
C1706 H1692 0.931 . S
C1706 C1705 1.385 . S
C1706 C1707 1.389 . S
C1707 C1706 1.389 . S
C1707 C1708 1.387 . S
C1708 H1693 0.930 . S
C1708 C1703 1.390 . S
C1708 C1707 1.387 . S
H1709 C1721 0.930 . S
H1710 C1723 0.930 . S
H1711 C1724 0.930 . S
H1712 C1728 0.959 . S
H1713 C1728 0.959 . S
H1714 C1728 0.961 . S
H1715 C1729 0.960 . S
H1716 C1729 0.961 . S
H1717 C1729 0.959 . S
H1718 C1732 0.929 . S
H1719 C1733 0.931 . S
H1720 C1735 0.930 . S
C1721 H1709 0.930 . S
C1721 C1722 1.399 . S
C1721 C1726 1.399 . S
C1722 C1721 1.399 . S
C1722 C1723 1.376 . S
C1723 H1710 0.930 . S
C1723 C1722 1.376 . S
C1723 C1724 1.388 . S
C1724 H1711 0.930 . S
C1724 C1723 1.388 . S
C1724 C1725 1.390 . S
C1725 C1724 1.390 . S
C1725 C1726 1.394 . S
C1725 C1731 1.465 . S
C1726 C1721 1.399 . S
C1726 C1725 1.394 . S
C1726 C1727 1.516 . S
C1727 C1726 1.516 . S
C1727 C1728 1.502 . S
C1727 C1729 1.561 . S
C1727 C1730 1.526 . S
C1728 H1712 0.959 . S
C1728 H1713 0.959 . S
C1728 H1714 0.961 . S
C1728 C1727 1.502 . S
C1729 H1715 0.960 . S
C1729 H1716 0.961 . S
C1729 H1717 0.959 . S
C1729 C1727 1.561 . S
C1730 C1727 1.526 . S
C1730 C1731 1.396 . S
C1730 C1735 1.390 . S
C1731 C1725 1.465 . S
C1731 C1730 1.396 . S
C1731 C1732 1.399 . S
C1732 H1718 0.929 . S
C1732 C1731 1.399 . S
C1732 C1733 1.385 . S
C1733 H1719 0.931 . S
C1733 C1732 1.385 . S
C1733 C1734 1.389 . S
C1734 C1733 1.389 . S
C1734 C1735 1.387 . S
C1735 H1720 0.930 . S
C1735 C1730 1.390 . S
C1735 C1734 1.387 . S
H1736 C1748 0.930 . S
H1737 C1750 0.930 . S
H1738 C1751 0.930 . S
H1739 C1755 0.959 . S
H1740 C1755 0.959 . S
H1741 C1755 0.961 . S
H1742 C1756 0.960 . S
H1743 C1756 0.961 . S
H1744 C1756 0.959 . S
H1745 C1759 0.929 . S
H1746 C1760 0.931 . S
H1747 C1762 0.930 . S
C1748 H1736 0.930 . S
C1748 C1749 1.399 . S
C1748 C1753 1.399 . S
C1749 C1748 1.399 . S
C1749 C1750 1.376 . S
C1750 H1737 0.930 . S
C1750 C1749 1.376 . S
C1750 C1751 1.388 . S
C1751 H1738 0.930 . S
C1751 C1750 1.388 . S
C1751 C1752 1.390 . S
C1752 C1751 1.390 . S
C1752 C1753 1.394 . S
C1752 C1758 1.465 . S
C1753 C1748 1.399 . S
C1753 C1752 1.394 . S
C1753 C1754 1.516 . S
C1754 C1753 1.516 . S
C1754 C1755 1.502 . S
C1754 C1756 1.561 . S
C1754 C1757 1.526 . S
C1755 H1739 0.959 . S
C1755 H1740 0.959 . S
C1755 H1741 0.961 . S
C1755 C1754 1.502 . S
C1756 H1742 0.960 . S
C1756 H1743 0.961 . S
C1756 H1744 0.959 . S
C1756 C1754 1.561 . S
C1757 C1754 1.526 . S
C1757 C1758 1.396 . S
C1757 C1762 1.390 . S
C1758 C1752 1.465 . S
C1758 C1757 1.396 . S
C1758 C1759 1.399 . S
C1759 H1745 0.929 . S
C1759 C1758 1.399 . S
C1759 C1760 1.385 . S
C1760 H1746 0.931 . S
C1760 C1759 1.385 . S
C1760 C1761 1.389 . S
C1761 C1760 1.389 . S
C1761 C1762 1.387 . S
C1762 H1747 0.930 . S
C1762 C1757 1.390 . S
C1762 C1761 1.387 . S
H1763 C1775 0.930 . S
H1764 C1777 0.930 . S
H1765 C1778 0.930 . S
H1766 C1782 0.959 . S
H1767 C1782 0.959 . S
H1768 C1782 0.961 . S
H1769 C1783 0.960 . S
H1770 C1783 0.961 . S
H1771 C1783 0.959 . S
H1772 C1786 0.929 . S
H1773 C1787 0.931 . S
H1774 C1789 0.930 . S
C1775 H1763 0.930 . S
C1775 C1776 1.399 . S
C1775 C1780 1.399 . S
C1776 C1775 1.399 . S
C1776 C1777 1.376 . S
C1777 H1764 0.930 . S
C1777 C1776 1.376 . S
C1777 C1778 1.388 . S
C1778 H1765 0.930 . S
C1778 C1777 1.388 . S
C1778 C1779 1.390 . S
C1779 C1778 1.390 . S
C1779 C1780 1.394 . S
C1779 C1785 1.465 . S
C1780 C1775 1.399 . S
C1780 C1779 1.394 . S
C1780 C1781 1.516 . S
C1781 C1780 1.516 . S
C1781 C1782 1.502 . S
C1781 C1783 1.561 . S
C1781 C1784 1.526 . S
C1782 H1766 0.959 . S
C1782 H1767 0.959 . S
C1782 H1768 0.961 . S
C1782 C1781 1.502 . S
C1783 H1769 0.960 . S
C1783 H1770 0.961 . S
C1783 H1771 0.959 . S
C1783 C1781 1.561 . S
C1784 C1781 1.526 . S
C1784 C1785 1.396 . S
C1784 C1789 1.390 . S
C1785 C1779 1.465 . S
C1785 C1784 1.396 . S
C1785 C1786 1.399 . S
C1786 H1772 0.929 . S
C1786 C1785 1.399 . S
C1786 C1787 1.385 . S
C1787 H1773 0.931 . S
C1787 C1786 1.385 . S
C1787 C1788 1.389 . S
C1788 C1787 1.389 . S
C1788 C1789 1.387 . S
C1789 H1774 0.930 . S
C1789 C1784 1.390 . S
C1789 C1788 1.387 . S
H1790 C1802 0.930 . S
H1791 C1804 0.930 . S
H1792 C1805 0.930 . S
H1793 C1809 0.959 . S
H1794 C1809 0.959 . S
H1795 C1809 0.961 . S
H1796 C1810 0.960 . S
H1797 C1810 0.961 . S
H1798 C1810 0.959 . S
H1799 C1813 0.929 . S
H1800 C1814 0.931 . S
H1801 C1816 0.930 . S
C1802 H1790 0.930 . S
C1802 C1803 1.399 . S
C1802 C1807 1.399 . S
C1803 C1802 1.399 . S
C1803 C1804 1.376 . S
C1804 H1791 0.930 . S
C1804 C1803 1.376 . S
C1804 C1805 1.388 . S
C1805 H1792 0.930 . S
C1805 C1804 1.388 . S
C1805 C1806 1.390 . S
C1806 C1805 1.390 . S
C1806 C1807 1.394 . S
C1806 C1812 1.465 . S
C1807 C1802 1.399 . S
C1807 C1806 1.394 . S
C1807 C1808 1.516 . S
C1808 C1807 1.516 . S
C1808 C1809 1.502 . S
C1808 C1810 1.561 . S
C1808 C1811 1.526 . S
C1809 H1793 0.959 . S
C1809 H1794 0.959 . S
C1809 H1795 0.961 . S
C1809 C1808 1.502 . S
C1810 H1796 0.960 . S
C1810 H1797 0.961 . S
C1810 H1798 0.959 . S
C1810 C1808 1.561 . S
C1811 C1808 1.526 . S
C1811 C1812 1.396 . S
C1811 C1816 1.390 . S
C1812 C1806 1.465 . S
C1812 C1811 1.396 . S
C1812 C1813 1.399 . S
C1813 H1799 0.929 . S
C1813 C1812 1.399 . S
C1813 C1814 1.385 . S
C1814 H1800 0.931 . S
C1814 C1813 1.385 . S
C1814 C1815 1.389 . S
C1815 C1814 1.389 . S
C1815 C1816 1.387 . S
C1816 H1801 0.930 . S
C1816 C1811 1.390 . S
C1816 C1815 1.387 . S
H1817 C1829 0.930 . S
H1818 C1831 0.930 . S
H1819 C1832 0.930 . S
H1820 C1836 0.959 . S
H1821 C1836 0.959 . S
H1822 C1836 0.961 . S
H1823 C1837 0.960 . S
H1824 C1837 0.961 . S
H1825 C1837 0.959 . S
H1826 C1840 0.929 . S
H1827 C1841 0.931 . S
H1828 C1843 0.930 . S
C1829 H1817 0.930 . S
C1829 C1830 1.399 . S
C1829 C1834 1.399 . S
C1830 C1829 1.399 . S
C1830 C1831 1.376 . S
C1831 H1818 0.930 . S
C1831 C1830 1.376 . S
C1831 C1832 1.388 . S
C1832 H1819 0.930 . S
C1832 C1831 1.388 . S
C1832 C1833 1.390 . S
C1833 C1832 1.390 . S
C1833 C1834 1.394 . S
C1833 C1839 1.465 . S
C1834 C1829 1.399 . S
C1834 C1833 1.394 . S
C1834 C1835 1.516 . S
C1835 C1834 1.516 . S
C1835 C1836 1.502 . S
C1835 C1837 1.561 . S
C1835 C1838 1.526 . S
C1836 H1820 0.959 . S
C1836 H1821 0.959 . S
C1836 H1822 0.961 . S
C1836 C1835 1.502 . S
C1837 H1823 0.960 . S
C1837 H1824 0.961 . S
C1837 H1825 0.959 . S
C1837 C1835 1.561 . S
C1838 C1835 1.526 . S
C1838 C1839 1.396 . S
C1838 C1843 1.390 . S
C1839 C1833 1.465 . S
C1839 C1838 1.396 . S
C1839 C1840 1.399 . S
C1840 H1826 0.929 . S
C1840 C1839 1.399 . S
C1840 C1841 1.385 . S
C1841 H1827 0.931 . S
C1841 C1840 1.385 . S
C1841 C1842 1.389 . S
C1842 C1841 1.389 . S
C1842 C1843 1.387 . S
C1843 H1828 0.930 . S
C1843 C1838 1.390 . S
C1843 C1842 1.387 . S
H1844 C1856 0.930 . S
H1845 C1858 0.930 . S
H1846 C1859 0.930 . S
H1847 C1863 0.959 . S
H1848 C1863 0.959 . S
H1849 C1863 0.961 . S
H1850 C1864 0.960 . S
H1851 C1864 0.961 . S
H1852 C1864 0.959 . S
H1853 C1867 0.929 . S
H1854 C1868 0.931 . S
H1855 C1870 0.930 . S
C1856 H1844 0.930 . S
C1856 C1857 1.399 . S
C1856 C1861 1.399 . S
C1857 C1856 1.399 . S
C1857 C1858 1.376 . S
C1858 H1845 0.930 . S
C1858 C1857 1.376 . S
C1858 C1859 1.388 . S
C1859 H1846 0.930 . S
C1859 C1858 1.388 . S
C1859 C1860 1.390 . S
C1860 C1859 1.390 . S
C1860 C1861 1.394 . S
C1860 C1866 1.465 . S
C1861 C1856 1.399 . S
C1861 C1860 1.394 . S
C1861 C1862 1.516 . S
C1862 C1861 1.516 . S
C1862 C1863 1.502 . S
C1862 C1864 1.561 . S
C1862 C1865 1.526 . S
C1863 H1847 0.959 . S
C1863 H1848 0.959 . S
C1863 H1849 0.961 . S
C1863 C1862 1.502 . S
C1864 H1850 0.960 . S
C1864 H1851 0.961 . S
C1864 H1852 0.959 . S
C1864 C1862 1.561 . S
C1865 C1862 1.526 . S
C1865 C1866 1.396 . S
C1865 C1870 1.390 . S
C1866 C1860 1.465 . S
C1866 C1865 1.396 . S
C1866 C1867 1.399 . S
C1867 H1853 0.929 . S
C1867 C1866 1.399 . S
C1867 C1868 1.385 . S
C1868 H1854 0.931 . S
C1868 C1867 1.385 . S
C1868 C1869 1.389 . S
C1869 C1868 1.389 . S
C1869 C1870 1.387 . S
C1870 H1855 0.930 . S
C1870 C1865 1.390 . S
C1870 C1869 1.387 . S
H1871 C1883 0.930 . S
H1872 C1885 0.930 . S
H1873 C1886 0.930 . S
H1874 C1890 0.959 . S
H1875 C1890 0.959 . S
H1876 C1890 0.961 . S
H1877 C1891 0.960 . S
H1878 C1891 0.961 . S
H1879 C1891 0.959 . S
H1880 C1894 0.929 . S
H1881 C1895 0.931 . S
H1882 C1897 0.930 . S
C1883 H1871 0.930 . S
C1883 C1884 1.399 . S
C1883 C1888 1.399 . S
C1884 C1883 1.399 . S
C1884 C1885 1.376 . S
C1885 H1872 0.930 . S
C1885 C1884 1.376 . S
C1885 C1886 1.388 . S
C1886 H1873 0.930 . S
C1886 C1885 1.388 . S
C1886 C1887 1.390 . S
C1887 C1886 1.390 . S
C1887 C1888 1.394 . S
C1887 C1893 1.465 . S
C1888 C1883 1.399 . S
C1888 C1887 1.394 . S
C1888 C1889 1.516 . S
C1889 C1888 1.516 . S
C1889 C1890 1.502 . S
C1889 C1891 1.561 . S
C1889 C1892 1.526 . S
C1890 H1874 0.959 . S
C1890 H1875 0.959 . S
C1890 H1876 0.961 . S
C1890 C1889 1.502 . S
C1891 H1877 0.960 . S
C1891 H1878 0.961 . S
C1891 H1879 0.959 . S
C1891 C1889 1.561 . S
C1892 C1889 1.526 . S
C1892 C1893 1.396 . S
C1892 C1897 1.390 . S
C1893 C1887 1.465 . S
C1893 C1892 1.396 . S
C1893 C1894 1.399 . S
C1894 H1880 0.929 . S
C1894 C1893 1.399 . S
C1894 C1895 1.385 . S
C1895 H1881 0.931 . S
C1895 C1894 1.385 . S
C1895 C1896 1.389 . S
C1896 C1895 1.389 . S
C1896 C1897 1.387 . S
C1897 H1882 0.930 . S
C1897 C1892 1.390 . S
C1897 C1896 1.387 . S
H1898 C1910 0.930 . S
H1899 C1912 0.930 . S
H1900 C1913 0.930 . S
H1901 C1917 0.959 . S
H1902 C1917 0.959 . S
H1903 C1917 0.961 . S
H1904 C1918 0.960 . S
H1905 C1918 0.961 . S
H1906 C1918 0.959 . S
H1907 C1921 0.929 . S
H1908 C1922 0.931 . S
H1909 C1924 0.930 . S
C1910 H1898 0.930 . S
C1910 C1911 1.399 . S
C1910 C1915 1.399 . S
C1911 C1910 1.399 . S
C1911 C1912 1.376 . S
C1912 H1899 0.930 . S
C1912 C1911 1.376 . S
C1912 C1913 1.388 . S
C1913 H1900 0.930 . S
C1913 C1912 1.388 . S
C1913 C1914 1.390 . S
C1914 C1913 1.390 . S
C1914 C1915 1.394 . S
C1914 C1920 1.465 . S
C1915 C1910 1.399 . S
C1915 C1914 1.394 . S
C1915 C1916 1.516 . S
C1916 C1915 1.516 . S
C1916 C1917 1.502 . S
C1916 C1918 1.561 . S
C1916 C1919 1.526 . S
C1917 H1901 0.959 . S
C1917 H1902 0.959 . S
C1917 H1903 0.961 . S
C1917 C1916 1.502 . S
C1918 H1904 0.960 . S
C1918 H1905 0.961 . S
C1918 H1906 0.959 . S
C1918 C1916 1.561 . S
C1919 C1916 1.526 . S
C1919 C1920 1.396 . S
C1919 C1924 1.390 . S
C1920 C1914 1.465 . S
C1920 C1919 1.396 . S
C1920 C1921 1.399 . S
C1921 H1907 0.929 . S
C1921 C1920 1.399 . S
C1921 C1922 1.385 . S
C1922 H1908 0.931 . S
C1922 C1921 1.385 . S
C1922 C1923 1.389 . S
C1923 C1922 1.389 . S
C1923 C1924 1.387 . S
C1924 H1909 0.930 . S
C1924 C1919 1.390 . S
C1924 C1923 1.387 . S
H1925 C1937 0.930 . S
H1926 C1939 0.930 . S
H1927 C1940 0.930 . S
H1928 C1944 0.959 . S
H1929 C1944 0.959 . S
H1930 C1944 0.961 . S
H1931 C1945 0.960 . S
H1932 C1945 0.961 . S
H1933 C1945 0.959 . S
H1934 C1948 0.929 . S
H1935 C1949 0.931 . S
H1936 C1951 0.930 . S
C1937 H1925 0.930 . S
C1937 C1938 1.399 . S
C1937 C1942 1.399 . S
C1938 C1937 1.399 . S
C1938 C1939 1.376 . S
C1939 H1926 0.930 . S
C1939 C1938 1.376 . S
C1939 C1940 1.388 . S
C1940 H1927 0.930 . S
C1940 C1939 1.388 . S
C1940 C1941 1.390 . S
C1941 C1940 1.390 . S
C1941 C1942 1.394 . S
C1941 C1947 1.465 . S
C1942 C1937 1.399 . S
C1942 C1941 1.394 . S
C1942 C1943 1.516 . S
C1943 C1942 1.516 . S
C1943 C1944 1.502 . S
C1943 C1945 1.561 . S
C1943 C1946 1.526 . S
C1944 H1928 0.959 . S
C1944 H1929 0.959 . S
C1944 H1930 0.961 . S
C1944 C1943 1.502 . S
C1945 H1931 0.960 . S
C1945 H1932 0.961 . S
C1945 H1933 0.959 . S
C1945 C1943 1.561 . S
C1946 C1943 1.526 . S
C1946 C1947 1.396 . S
C1946 C1951 1.390 . S
C1947 C1941 1.465 . S
C1947 C1946 1.396 . S
C1947 C1948 1.399 . S
C1948 H1934 0.929 . S
C1948 C1947 1.399 . S
C1948 C1949 1.385 . S
C1949 H1935 0.931 . S
C1949 C1948 1.385 . S
C1949 C1950 1.389 . S
C1950 C1949 1.389 . S
C1950 C1951 1.387 . S
C1951 H1936 0.930 . S
C1951 C1946 1.390 . S
C1951 C1950 1.387 . S
H1952 C1964 0.930 . S
H1953 C1966 0.930 . S
H1954 C1967 0.930 . S
H1955 C1971 0.959 . S
H1956 C1971 0.959 . S
H1957 C1971 0.961 . S
H1958 C1972 0.960 . S
H1959 C1972 0.961 . S
H1960 C1972 0.959 . S
H1961 C1975 0.929 . S
H1962 C1976 0.931 . S
H1963 C1978 0.930 . S
C1964 H1952 0.930 . S
C1964 C1965 1.399 . S
C1964 C1969 1.399 . S
C1965 C1964 1.399 . S
C1965 C1966 1.376 . S
C1966 H1953 0.930 . S
C1966 C1965 1.376 . S
C1966 C1967 1.388 . S
C1967 H1954 0.930 . S
C1967 C1966 1.388 . S
C1967 C1968 1.390 . S
C1968 C1967 1.390 . S
C1968 C1969 1.394 . S
C1968 C1974 1.465 . S
C1969 C1964 1.399 . S
C1969 C1968 1.394 . S
C1969 C1970 1.516 . S
C1970 C1969 1.516 . S
C1970 C1971 1.502 . S
C1970 C1972 1.561 . S
C1970 C1973 1.526 . S
C1971 H1955 0.959 . S
C1971 H1956 0.959 . S
C1971 H1957 0.961 . S
C1971 C1970 1.502 . S
C1972 H1958 0.960 . S
C1972 H1959 0.961 . S
C1972 H1960 0.959 . S
C1972 C1970 1.561 . S
C1973 C1970 1.526 . S
C1973 C1974 1.396 . S
C1973 C1978 1.390 . S
C1974 C1968 1.465 . S
C1974 C1973 1.396 . S
C1974 C1975 1.399 . S
C1975 H1961 0.929 . S
C1975 C1974 1.399 . S
C1975 C1976 1.385 . S
C1976 H1962 0.931 . S
C1976 C1975 1.385 . S
C1976 C1977 1.389 . S
C1977 C1976 1.389 . S
C1977 C1978 1.387 . S
C1978 H1963 0.930 . S
C1978 C1973 1.390 . S
C1978 C1977 1.387 . S
H1979 C1991 0.930 . S
H1980 C1993 0.930 . S
H1981 C1994 0.930 . S
H1982 C1998 0.959 . S
H1983 C1998 0.959 . S
H1984 C1998 0.961 . S
H1985 C1999 0.960 . S
H1986 C1999 0.961 . S
H1987 C1999 0.959 . S
H1988 C2002 0.929 . S
H1989 C2003 0.931 . S
H1990 C2005 0.930 . S
C1991 H1979 0.930 . S
C1991 C1992 1.399 1_545 S
C1991 C1996 1.399 . S
C1992 C1991 1.399 1_565 S
C1992 C1993 1.376 . S
C1993 H1980 0.930 . S
C1993 C1992 1.376 . S
C1993 C1994 1.388 . S
C1994 H1981 0.930 . S
C1994 C1993 1.388 . S
C1994 C1995 1.390 . S
C1995 C1994 1.390 . S
C1995 C1996 1.394 1_565 S
C1995 C2001 1.465 . S
C1996 C1991 1.399 . S
C1996 C1995 1.394 1_545 S
C1996 C1997 1.516 . S
C1997 C1996 1.516 . S
C1997 C1998 1.502 . S
C1997 C1999 1.561 . S
C1997 C2000 1.526 . S
C1998 H1982 0.959 . S
C1998 H1983 0.959 . S
C1998 H1984 0.961 . S
C1998 C1997 1.502 . S
C1999 H1985 0.960 . S
C1999 H1986 0.961 . S
C1999 H1987 0.959 . S
C1999 C1997 1.561 . S
C2000 C1997 1.526 . S
C2000 C2001 1.396 1_545 S
C2000 C2005 1.390 . S
C2001 C1995 1.465 . S
C2001 C2000 1.396 1_565 S
C2001 C2002 1.399 . S
C2002 H1988 0.929 . S
C2002 C2001 1.399 . S
C2002 C2003 1.385 . S
C2003 H1989 0.931 . S
C2003 C2002 1.385 . S
C2003 C2004 1.389 1_565 S
C2004 C2003 1.389 1_545 S
C2004 C2005 1.387 . S
C2005 H1990 0.930 . S
C2005 C2000 1.390 . S
C2005 C2004 1.387 . S
H2006 C2018 0.930 . S
H2007 C2020 0.930 . S
H2008 C2021 0.930 . S
H2009 C2025 0.959 . S
H2010 C2025 0.959 . S
H2011 C2025 0.961 . S
H2012 C2026 0.960 . S
H2013 C2026 0.961 . S
H2014 C2026 0.959 . S
H2015 C2029 0.929 . S
H2016 C2030 0.931 . S
H2017 C2032 0.930 . S
C2018 H2006 0.930 . S
C2018 C2019 1.399 . S
C2018 C2023 1.399 . S
C2019 C2018 1.399 . S
C2019 C2020 1.376 . S
C2020 H2007 0.930 . S
C2020 C2019 1.376 . S
C2020 C2021 1.388 . S
C2021 H2008 0.930 . S
C2021 C2020 1.388 . S
C2021 C2022 1.390 . S
C2022 C2021 1.390 . S
C2022 C2023 1.394 . S
C2022 C2028 1.465 . S
C2023 C2018 1.399 . S
C2023 C2022 1.394 . S
C2023 C2024 1.516 . S
C2024 C2023 1.516 . S
C2024 C2025 1.502 . S
C2024 C2026 1.561 . S
C2024 C2027 1.526 . S
C2025 H2009 0.959 . S
C2025 H2010 0.959 . S
C2025 H2011 0.961 . S
C2025 C2024 1.502 . S
C2026 H2012 0.960 . S
C2026 H2013 0.961 . S
C2026 H2014 0.959 . S
C2026 C2024 1.561 . S
C2027 C2024 1.526 . S
C2027 C2028 1.396 . S
C2027 C2032 1.390 . S
C2028 C2022 1.465 . S
C2028 C2027 1.396 . S
C2028 C2029 1.399 . S
C2029 H2015 0.929 . S
C2029 C2028 1.399 . S
C2029 C2030 1.385 . S
C2030 H2016 0.931 . S
C2030 C2029 1.385 . S
C2030 C2031 1.389 . S
C2031 C2030 1.389 . S
C2031 C2032 1.387 . S
C2032 H2017 0.930 . S
C2032 C2027 1.390 . S
C2032 C2031 1.387 . S
H2033 C2045 0.930 . S
H2034 C2047 0.930 . S
H2035 C2048 0.930 . S
H2036 C2052 0.959 . S
H2037 C2052 0.959 1_554 S
H2038 C2052 0.961 . S
H2039 C2053 0.960 . S
H2040 C2053 0.961 1_554 S
H2041 C2053 0.959 . S
H2042 C2056 0.929 . S
H2043 C2057 0.931 . S
H2044 C2059 0.930 . S
C2045 H2033 0.930 . S
C2045 C2046 1.399 1_565 S
C2045 C2050 1.399 . S
C2046 C2045 1.399 1_545 S
C2046 C2047 1.376 . S
C2047 H2034 0.930 . S
C2047 C2046 1.376 . S
C2047 C2048 1.388 . S
C2048 H2035 0.930 . S
C2048 C2047 1.388 . S
C2048 C2049 1.390 . S
C2049 C2048 1.390 . S
C2049 C2050 1.394 1_545 S
C2049 C2055 1.465 1_556 S
C2050 C2045 1.399 . S
C2050 C2049 1.394 1_565 S
C2050 C2051 1.516 . S
C2051 C2050 1.516 . S
C2051 C2052 1.502 . S
C2051 C2053 1.561 . S
C2051 C2054 1.526 1_556 S
C2052 H2036 0.959 . S
C2052 H2037 0.959 1_556 S
C2052 H2038 0.961 . S
C2052 C2051 1.502 . S
C2053 H2039 0.960 . S
C2053 H2040 0.961 1_556 S
C2053 H2041 0.959 . S
C2053 C2051 1.561 . S
C2054 C2051 1.526 1_554 S
C2054 C2055 1.396 1_565 S
C2054 C2059 1.390 . S
C2055 C2049 1.465 1_554 S
C2055 C2054 1.396 1_545 S
C2055 C2056 1.399 . S
C2056 H2042 0.929 . S
C2056 C2055 1.399 . S
C2056 C2057 1.385 . S
C2057 H2043 0.931 . S
C2057 C2056 1.385 . S
C2057 C2058 1.389 1_545 S
C2058 C2057 1.389 1_565 S
C2058 C2059 1.387 . S
C2059 H2044 0.930 . S
C2059 C2054 1.390 . S
C2059 C2058 1.387 . S
H2060 C2072 0.930 . S
H2061 C2074 0.930 . S
H2062 C2075 0.930 . S
H2063 C2079 0.959 . S
H2064 C2079 0.959 . S
H2065 C2079 0.961 . S
H2066 C2080 0.960 . S
H2067 C2080 0.961 . S
H2068 C2080 0.959 . S
H2069 C2083 0.929 . S
H2070 C2084 0.931 . S
H2071 C2086 0.930 . S
C2072 H2060 0.930 . S
C2072 C2073 1.399 . S
C2072 C2077 1.399 . S
C2073 C2072 1.399 . S
C2073 C2074 1.376 . S
C2074 H2061 0.930 . S
C2074 C2073 1.376 . S
C2074 C2075 1.388 . S
C2075 H2062 0.930 . S
C2075 C2074 1.388 . S
C2075 C2076 1.390 . S
C2076 C2075 1.390 . S
C2076 C2077 1.394 . S
C2076 C2082 1.465 . S
C2077 C2072 1.399 . S
C2077 C2076 1.394 . S
C2077 C2078 1.516 . S
C2078 C2077 1.516 . S
C2078 C2079 1.502 . S
C2078 C2080 1.561 . S
C2078 C2081 1.526 . S
C2079 H2063 0.959 . S
C2079 H2064 0.959 . S
C2079 H2065 0.961 . S
C2079 C2078 1.502 . S
C2080 H2066 0.960 . S
C2080 H2067 0.961 . S
C2080 H2068 0.959 . S
C2080 C2078 1.561 . S
C2081 C2078 1.526 . S
C2081 C2082 1.396 . S
C2081 C2086 1.390 . S
C2082 C2076 1.465 . S
C2082 C2081 1.396 . S
C2082 C2083 1.399 . S
C2083 H2069 0.929 . S
C2083 C2082 1.399 . S
C2083 C2084 1.385 . S
C2084 H2070 0.931 . S
C2084 C2083 1.385 . S
C2084 C2085 1.389 . S
C2085 C2084 1.389 . S
C2085 C2086 1.387 . S
C2086 H2071 0.930 . S
C2086 C2081 1.390 . S
C2086 C2085 1.387 . S
H2087 C2099 0.930 . S
H2088 C2101 0.930 . S
H2089 C2102 0.930 . S
H2090 C2106 0.959 . S
H2091 C2106 0.959 . S
H2092 C2106 0.961 . S
H2093 C2107 0.960 . S
H2094 C2107 0.961 . S
H2095 C2107 0.959 . S
H2096 C2110 0.929 . S
H2097 C2111 0.931 . S
H2098 C2113 0.930 . S
C2099 H2087 0.930 . S
C2099 C2100 1.399 . S
C2099 C2104 1.399 . S
C2100 C2099 1.399 . S
C2100 C2101 1.376 1_565 S
C2101 H2088 0.930 . S
C2101 C2100 1.376 1_545 S
C2101 C2102 1.388 . S
C2102 H2089 0.930 . S
C2102 C2101 1.388 . S
C2102 C2103 1.390 . S
C2103 C2102 1.390 . S
C2103 C2104 1.394 1_545 S
C2103 C2109 1.465 . S
C2104 C2099 1.399 . S
C2104 C2103 1.394 1_565 S
C2104 C2105 1.516 . S
C2105 C2104 1.516 . S
C2105 C2106 1.502 . S
C2105 C2107 1.561 . S
C2105 C2108 1.526 . S
C2106 H2090 0.959 . S
C2106 H2091 0.959 . S
C2106 H2092 0.961 . S
C2106 C2105 1.502 . S
C2107 H2093 0.960 . S
C2107 H2094 0.961 . S
C2107 H2095 0.959 . S
C2107 C2105 1.561 . S
C2108 C2105 1.526 . S
C2108 C2109 1.396 1_565 S
C2108 C2113 1.390 . S
C2109 C2103 1.465 . S
C2109 C2108 1.396 1_545 S
C2109 C2110 1.399 . S
C2110 H2096 0.929 . S
C2110 C2109 1.399 . S
C2110 C2111 1.385 . S
C2111 H2097 0.931 . S
C2111 C2110 1.385 . S
C2111 C2112 1.389 . S
C2112 C2111 1.389 . S
C2112 C2113 1.387 1_545 S
C2113 H2098 0.930 . S
C2113 C2108 1.390 . S
C2113 C2112 1.387 1_565 S
H2114 C2126 0.930 . S
H2115 C2128 0.930 . S
H2116 C2129 0.930 . S
H2117 C2133 0.959 . S
H2118 C2133 0.959 . S
H2119 C2133 0.961 . S
H2120 C2134 0.960 . S
H2121 C2134 0.961 . S
H2122 C2134 0.959 . S
H2123 C2137 0.929 . S
H2124 C2138 0.931 . S
H2125 C2140 0.930 . S
C2126 H2114 0.930 . S
C2126 C2127 1.399 . S
C2126 C2131 1.399 . S
C2127 C2126 1.399 . S
C2127 C2128 1.376 . S
C2128 H2115 0.930 . S
C2128 C2127 1.376 . S
C2128 C2129 1.388 . S
C2129 H2116 0.930 . S
C2129 C2128 1.388 . S
C2129 C2130 1.390 . S
C2130 C2129 1.390 . S
C2130 C2131 1.394 . S
C2130 C2136 1.465 . S
C2131 C2126 1.399 . S
C2131 C2130 1.394 . S
C2131 C2132 1.516 . S
C2132 C2131 1.516 . S
C2132 C2133 1.502 . S
C2132 C2134 1.561 . S
C2132 C2135 1.526 . S
C2133 H2117 0.959 . S
C2133 H2118 0.959 . S
C2133 H2119 0.961 . S
C2133 C2132 1.502 . S
C2134 H2120 0.960 . S
C2134 H2121 0.961 . S
C2134 H2122 0.959 . S
C2134 C2132 1.561 . S
C2135 C2132 1.526 . S
C2135 C2136 1.396 . S
C2135 C2140 1.390 . S
C2136 C2130 1.465 . S
C2136 C2135 1.396 . S
C2136 C2137 1.399 . S
C2137 H2123 0.929 . S
C2137 C2136 1.399 . S
C2137 C2138 1.385 . S
C2138 H2124 0.931 . S
C2138 C2137 1.385 . S
C2138 C2139 1.389 . S
C2139 C2138 1.389 . S
C2139 C2140 1.387 . S
C2140 H2125 0.930 . S
C2140 C2135 1.390 . S
C2140 C2139 1.387 . S
H2141 C2153 0.930 . S
H2142 C2155 0.930 . S
H2143 C2156 0.930 . S
H2144 C2160 0.959 . S
H2145 C2160 0.959 . S
H2146 C2160 0.961 1_556 S
H2147 C2161 0.960 1_556 S
H2148 C2161 0.961 . S
H2149 C2161 0.959 . S
H2150 C2164 0.929 . S
H2151 C2165 0.931 . S
H2152 C2167 0.930 . S
C2153 H2141 0.930 . S
C2153 C2154 1.399 . S
C2153 C2158 1.399 . S
C2154 C2153 1.399 . S
C2154 C2155 1.376 1_545 S
C2155 H2142 0.930 . S
C2155 C2154 1.376 1_565 S
C2155 C2156 1.388 . S
C2156 H2143 0.930 . S
C2156 C2155 1.388 . S
C2156 C2157 1.390 . S
C2157 C2156 1.390 . S
C2157 C2158 1.394 1_565 S
C2157 C2163 1.465 1_556 S
C2158 C2153 1.399 . S
C2158 C2157 1.394 1_545 S
C2158 C2159 1.516 1_556 S
C2159 C2158 1.516 1_554 S
C2159 C2160 1.502 . S
C2159 C2161 1.561 . S
C2159 C2162 1.526 . S
C2160 H2144 0.959 . S
C2160 H2145 0.959 . S
C2160 H2146 0.961 1_554 S
C2160 C2159 1.502 . S
C2161 H2147 0.960 1_554 S
C2161 H2148 0.961 . S
C2161 H2149 0.959 . S
C2161 C2159 1.561 . S
C2162 C2159 1.526 . S
C2162 C2163 1.396 1_545 S
C2162 C2167 1.390 . S
C2163 C2157 1.465 1_554 S
C2163 C2162 1.396 1_565 S
C2163 C2164 1.399 . S
C2164 H2150 0.929 . S
C2164 C2163 1.399 . S
C2164 C2165 1.385 . S
C2165 H2151 0.931 . S
C2165 C2164 1.385 . S
C2165 C2166 1.389 . S
C2166 C2165 1.389 . S
C2166 C2167 1.387 1_565 S
C2167 H2152 0.930 . S
C2167 C2162 1.390 . S
C2167 C2166 1.387 1_545 S
H2168 C2180 0.930 . S
H2169 C2182 0.930 . S
H2170 C2183 0.930 . S
H2171 C2187 0.959 . S
H2172 C2187 0.959 . S
H2173 C2187 0.961 . S
H2174 C2188 0.960 . S
H2175 C2188 0.961 . S
H2176 C2188 0.959 . S
H2177 C2191 0.929 . S
H2178 C2192 0.931 . S
H2179 C2194 0.930 . S
C2180 H2168 0.930 . S
C2180 C2181 1.399 . S
C2180 C2185 1.399 . S
C2181 C2180 1.399 . S
C2181 C2182 1.376 . S
C2182 H2169 0.930 . S
C2182 C2181 1.376 . S
C2182 C2183 1.388 . S
C2183 H2170 0.930 . S
C2183 C2182 1.388 . S
C2183 C2184 1.390 . S
C2184 C2183 1.390 . S
C2184 C2185 1.394 . S
C2184 C2190 1.465 . S
C2185 C2180 1.399 . S
C2185 C2184 1.394 . S
C2185 C2186 1.516 . S
C2186 C2185 1.516 . S
C2186 C2187 1.502 . S
C2186 C2188 1.561 . S
C2186 C2189 1.526 . S
C2187 H2171 0.959 . S
C2187 H2172 0.959 . S
C2187 H2173 0.961 . S
C2187 C2186 1.502 . S
C2188 H2174 0.960 . S
C2188 H2175 0.961 . S
C2188 H2176 0.959 . S
C2188 C2186 1.561 . S
C2189 C2186 1.526 . S
C2189 C2190 1.396 . S
C2189 C2194 1.390 . S
C2190 C2184 1.465 . S
C2190 C2189 1.396 . S
C2190 C2191 1.399 . S
C2191 H2177 0.929 . S
C2191 C2190 1.399 . S
C2191 C2192 1.385 . S
C2192 H2178 0.931 . S
C2192 C2191 1.385 . S
C2192 C2193 1.389 . S
C2193 C2192 1.389 . S
C2193 C2194 1.387 . S
C2194 H2179 0.930 . S
C2194 C2189 1.390 . S
C2194 C2193 1.387 . S
H2195 C2207 0.930 . S
H2196 C2209 0.930 . S
H2197 C2210 0.930 . S
H2198 C2214 0.959 . S
H2199 C2214 0.959 . S
H2200 C2214 0.961 1_556 S
H2201 C2215 0.960 1_556 S
H2202 C2215 0.961 . S
H2203 C2215 0.959 . S
H2204 C2218 0.929 . S
H2205 C2219 0.931 . S
H2206 C2221 0.930 . S
C2207 H2195 0.930 . S
C2207 C2208 1.399 . S
C2207 C2212 1.399 . S
C2208 C2207 1.399 . S
C2208 C2209 1.376 . S
C2209 H2196 0.930 . S
C2209 C2208 1.376 . S
C2209 C2210 1.388 . S
C2210 H2197 0.930 . S
C2210 C2209 1.388 . S
C2210 C2211 1.390 . S
C2211 C2210 1.390 . S
C2211 C2212 1.394 . S
C2211 C2217 1.465 1_556 S
C2212 C2207 1.399 . S
C2212 C2211 1.394 . S
C2212 C2213 1.516 1_556 S
C2213 C2212 1.516 1_554 S
C2213 C2214 1.502 . S
C2213 C2215 1.561 . S
C2213 C2216 1.526 . S
C2214 H2198 0.959 . S
C2214 H2199 0.959 . S
C2214 H2200 0.961 1_554 S
C2214 C2213 1.502 . S
C2215 H2201 0.960 1_554 S
C2215 H2202 0.961 . S
C2215 H2203 0.959 . S
C2215 C2213 1.561 . S
C2216 C2213 1.526 . S
C2216 C2217 1.396 . S
C2216 C2221 1.390 . S
C2217 C2211 1.465 1_554 S
C2217 C2216 1.396 . S
C2217 C2218 1.399 . S
C2218 H2204 0.929 . S
C2218 C2217 1.399 . S
C2218 C2219 1.385 . S
C2219 H2205 0.931 . S
C2219 C2218 1.385 . S
C2219 C2220 1.389 . S
C2220 C2219 1.389 . S
C2220 C2221 1.387 . S
C2221 H2206 0.930 . S
C2221 C2216 1.390 . S
C2221 C2220 1.387 . S
H2222 C2234 0.930 . S
H2223 C2236 0.930 . S
H2224 C2237 0.930 . S
H2225 C2241 0.959 . S
H2226 C2241 0.959 . S
H2227 C2241 0.961 . S
H2228 C2242 0.960 . S
H2229 C2242 0.961 . S
H2230 C2242 0.959 . S
H2231 C2245 0.929 . S
H2232 C2246 0.931 . S
H2233 C2248 0.930 . S
C2234 H2222 0.930 . S
C2234 C2235 1.399 . S
C2234 C2239 1.399 . S
C2235 C2234 1.399 . S
C2235 C2236 1.376 . S
C2236 H2223 0.930 . S
C2236 C2235 1.376 . S
C2236 C2237 1.388 . S
C2237 H2224 0.930 . S
C2237 C2236 1.388 . S
C2237 C2238 1.390 . S
C2238 C2237 1.390 . S
C2238 C2239 1.394 . S
C2238 C2244 1.465 . S
C2239 C2234 1.399 . S
C2239 C2238 1.394 . S
C2239 C2240 1.516 . S
C2240 C2239 1.516 . S
C2240 C2241 1.502 . S
C2240 C2242 1.561 . S
C2240 C2243 1.526 . S
C2241 H2225 0.959 . S
C2241 H2226 0.959 . S
C2241 H2227 0.961 . S
C2241 C2240 1.502 . S
C2242 H2228 0.960 . S
C2242 H2229 0.961 . S
C2242 H2230 0.959 . S
C2242 C2240 1.561 . S
C2243 C2240 1.526 . S
C2243 C2244 1.396 . S
C2243 C2248 1.390 . S
C2244 C2238 1.465 . S
C2244 C2243 1.396 . S
C2244 C2245 1.399 . S
C2245 H2231 0.929 . S
C2245 C2244 1.399 . S
C2245 C2246 1.385 . S
C2246 H2232 0.931 . S
C2246 C2245 1.385 . S
C2246 C2247 1.389 . S
C2247 C2246 1.389 . S
C2247 C2248 1.387 . S
C2248 H2233 0.930 . S
C2248 C2243 1.390 . S
C2248 C2247 1.387 . S
H2249 C2261 0.930 . S
H2250 C2263 0.930 . S
H2251 C2264 0.930 . S
H2252 C2268 0.959 . S
H2253 C2268 0.959 . S
H2254 C2268 0.961 . S
H2255 C2269 0.960 . S
H2256 C2269 0.961 . S
H2257 C2269 0.959 . S
H2258 C2272 0.929 . S
H2259 C2273 0.931 . S
H2260 C2275 0.930 . S
C2261 H2249 0.930 . S
C2261 C2262 1.399 . S
C2261 C2266 1.399 . S
C2262 C2261 1.399 . S
C2262 C2263 1.376 . S
C2263 H2250 0.930 . S
C2263 C2262 1.376 . S
C2263 C2264 1.388 . S
C2264 H2251 0.930 . S
C2264 C2263 1.388 . S
C2264 C2265 1.390 . S
C2265 C2264 1.390 . S
C2265 C2266 1.394 . S
C2265 C2271 1.465 . S
C2266 C2261 1.399 . S
C2266 C2265 1.394 . S
C2266 C2267 1.516 . S
C2267 C2266 1.516 . S
C2267 C2268 1.502 . S
C2267 C2269 1.561 . S
C2267 C2270 1.526 . S
C2268 H2252 0.959 . S
C2268 H2253 0.959 . S
C2268 H2254 0.961 . S
C2268 C2267 1.502 . S
C2269 H2255 0.960 . S
C2269 H2256 0.961 . S
C2269 H2257 0.959 . S
C2269 C2267 1.561 . S
C2270 C2267 1.526 . S
C2270 C2271 1.396 . S
C2270 C2275 1.390 . S
C2271 C2265 1.465 . S
C2271 C2270 1.396 . S
C2271 C2272 1.399 . S
C2272 H2258 0.929 . S
C2272 C2271 1.399 . S
C2272 C2273 1.385 . S
C2273 H2259 0.931 . S
C2273 C2272 1.385 . S
C2273 C2274 1.389 . S
C2274 C2273 1.389 . S
C2274 C2275 1.387 . S
C2275 H2260 0.930 . S
C2275 C2270 1.390 . S
C2275 C2274 1.387 . S
H2276 C2288 0.930 . S
H2277 C2290 0.930 . S
H2278 C2291 0.930 . S
H2279 C2295 0.959 . S
H2280 C2295 0.959 . S
H2281 C2295 0.961 . S
H2282 C2296 0.960 . S
H2283 C2296 0.961 . S
H2284 C2296 0.959 . S
H2285 C2299 0.929 . S
H2286 C2300 0.931 . S
H2287 C2302 0.930 . S
C2288 H2276 0.930 . S
C2288 C2289 1.399 . S
C2288 C2293 1.399 . S
C2289 C2288 1.399 . S
C2289 C2290 1.376 . S
C2290 H2277 0.930 . S
C2290 C2289 1.376 . S
C2290 C2291 1.388 . S
C2291 H2278 0.930 . S
C2291 C2290 1.388 . S
C2291 C2292 1.390 . S
C2292 C2291 1.390 . S
C2292 C2293 1.394 . S
C2292 C2298 1.465 . S
C2293 C2288 1.399 . S
C2293 C2292 1.394 . S
C2293 C2294 1.516 . S
C2294 C2293 1.516 . S
C2294 C2295 1.502 . S
C2294 C2296 1.561 . S
C2294 C2297 1.526 . S
C2295 H2279 0.959 . S
C2295 H2280 0.959 . S
C2295 H2281 0.961 . S
C2295 C2294 1.502 . S
C2296 H2282 0.960 . S
C2296 H2283 0.961 . S
C2296 H2284 0.959 . S
C2296 C2294 1.561 . S
C2297 C2294 1.526 . S
C2297 C2298 1.396 . S
C2297 C2302 1.390 . S
C2298 C2292 1.465 . S
C2298 C2297 1.396 . S
C2298 C2299 1.399 . S
C2299 H2285 0.929 . S
C2299 C2298 1.399 . S
C2299 C2300 1.385 . S
C2300 H2286 0.931 . S
C2300 C2299 1.385 . S
C2300 C2301 1.389 . S
C2301 C2300 1.389 . S
C2301 C2302 1.387 . S
C2302 H2287 0.930 . S
C2302 C2297 1.390 . S
C2302 C2301 1.387 . S
H2303 C2315 0.930 . S
H2304 C2317 0.930 . S
H2305 C2318 0.930 . S
H2306 C2322 0.959 . S
H2307 C2322 0.959 . S
H2308 C2322 0.961 1_556 S
H2309 C2323 0.960 1_556 S
H2310 C2323 0.961 . S
H2311 C2323 0.959 . S
H2312 C2326 0.929 . S
H2313 C2327 0.931 . S
H2314 C2329 0.930 . S
C2315 H2303 0.930 . S
C2315 C2316 1.399 . S
C2315 C2320 1.399 . S
C2316 C2315 1.399 . S
C2316 C2317 1.376 . S
C2317 H2304 0.930 . S
C2317 C2316 1.376 . S
C2317 C2318 1.388 . S
C2318 H2305 0.930 . S
C2318 C2317 1.388 . S
C2318 C2319 1.390 . S
C2319 C2318 1.390 . S
C2319 C2320 1.394 . S
C2319 C2325 1.465 1_556 S
C2320 C2315 1.399 . S
C2320 C2319 1.394 . S
C2320 C2321 1.516 1_556 S
C2321 C2320 1.516 1_554 S
C2321 C2322 1.502 . S
C2321 C2323 1.561 . S
C2321 C2324 1.526 . S
C2322 H2306 0.959 . S
C2322 H2307 0.959 . S
C2322 H2308 0.961 1_554 S
C2322 C2321 1.502 . S
C2323 H2309 0.960 1_554 S
C2323 H2310 0.961 . S
C2323 H2311 0.959 . S
C2323 C2321 1.561 . S
C2324 C2321 1.526 . S
C2324 C2325 1.396 . S
C2324 C2329 1.390 . S
C2325 C2319 1.465 1_554 S
C2325 C2324 1.396 . S
C2325 C2326 1.399 . S
C2326 H2312 0.929 . S
C2326 C2325 1.399 . S
C2326 C2327 1.385 . S
C2327 H2313 0.931 . S
C2327 C2326 1.385 . S
C2327 C2328 1.389 . S
C2328 C2327 1.389 . S
C2328 C2329 1.387 . S
C2329 H2314 0.930 . S
C2329 C2324 1.390 . S
C2329 C2328 1.387 . S
H2330 C2342 0.930 . S
H2331 C2344 0.930 . S
H2332 C2345 0.930 . S
H2333 C2349 0.959 . S
H2334 C2349 0.959 . S
H2335 C2349 0.961 . S
H2336 C2350 0.960 . S
H2337 C2350 0.961 . S
H2338 C2350 0.959 . S
H2339 C2353 0.929 . S
H2340 C2354 0.931 . S
H2341 C2356 0.930 . S
C2342 H2330 0.930 . S
C2342 C2343 1.399 . S
C2342 C2347 1.399 . S
C2343 C2342 1.399 . S
C2343 C2344 1.376 . S
C2344 H2331 0.930 . S
C2344 C2343 1.376 . S
C2344 C2345 1.388 . S
C2345 H2332 0.930 . S
C2345 C2344 1.388 . S
C2345 C2346 1.390 . S
C2346 C2345 1.390 . S
C2346 C2347 1.394 . S
C2346 C2352 1.465 . S
C2347 C2342 1.399 . S
C2347 C2346 1.394 . S
C2347 C2348 1.516 . S
C2348 C2347 1.516 . S
C2348 C2349 1.502 . S
C2348 C2350 1.561 . S
C2348 C2351 1.526 . S
C2349 H2333 0.959 . S
C2349 H2334 0.959 . S
C2349 H2335 0.961 . S
C2349 C2348 1.502 . S
C2350 H2336 0.960 . S
C2350 H2337 0.961 . S
C2350 H2338 0.959 . S
C2350 C2348 1.561 . S
C2351 C2348 1.526 . S
C2351 C2352 1.396 . S
C2351 C2356 1.390 . S
C2352 C2346 1.465 . S
C2352 C2351 1.396 . S
C2352 C2353 1.399 . S
C2353 H2339 0.929 . S
C2353 C2352 1.399 . S
C2353 C2354 1.385 . S
C2354 H2340 0.931 . S
C2354 C2353 1.385 . S
C2354 C2355 1.389 . S
C2355 C2354 1.389 . S
C2355 C2356 1.387 . S
C2356 H2341 0.930 . S
C2356 C2351 1.390 . S
C2356 C2355 1.387 . S
H2357 C2369 0.930 . S
H2358 C2371 0.930 . S
H2359 C2372 0.930 . S
H2360 C2376 0.959 . S
H2361 C2376 0.959 . S
H2362 C2376 0.961 . S
H2363 C2377 0.960 . S
H2364 C2377 0.961 . S
H2365 C2377 0.959 . S
H2366 C2380 0.929 . S
H2367 C2381 0.931 . S
H2368 C2383 0.930 . S
C2369 H2357 0.930 . S
C2369 C2370 1.399 . S
C2369 C2374 1.399 . S
C2370 C2369 1.399 . S
C2370 C2371 1.376 . S
C2371 H2358 0.930 . S
C2371 C2370 1.376 . S
C2371 C2372 1.388 . S
C2372 H2359 0.930 . S
C2372 C2371 1.388 . S
C2372 C2373 1.390 . S
C2373 C2372 1.390 . S
C2373 C2374 1.394 . S
C2373 C2379 1.465 . S
C2374 C2369 1.399 . S
C2374 C2373 1.394 . S
C2374 C2375 1.516 . S
C2375 C2374 1.516 . S
C2375 C2376 1.502 . S
C2375 C2377 1.561 . S
C2375 C2378 1.526 . S
C2376 H2360 0.959 . S
C2376 H2361 0.959 . S
C2376 H2362 0.961 . S
C2376 C2375 1.502 . S
C2377 H2363 0.960 . S
C2377 H2364 0.961 . S
C2377 H2365 0.959 . S
C2377 C2375 1.561 . S
C2378 C2375 1.526 . S
C2378 C2379 1.396 . S
C2378 C2383 1.390 . S
C2379 C2373 1.465 . S
C2379 C2378 1.396 . S
C2379 C2380 1.399 . S
C2380 H2366 0.929 . S
C2380 C2379 1.399 . S
C2380 C2381 1.385 . S
C2381 H2367 0.931 . S
C2381 C2380 1.385 . S
C2381 C2382 1.389 . S
C2382 C2381 1.389 . S
C2382 C2383 1.387 . S
C2383 H2368 0.930 . S
C2383 C2378 1.390 . S
C2383 C2382 1.387 . S
H2384 C2396 0.930 . S
H2385 C2398 0.930 . S
H2386 C2399 0.930 . S
H2387 C2403 0.959 . S
H2388 C2403 0.959 . S
H2389 C2403 0.961 . S
H2390 C2404 0.960 . S
H2391 C2404 0.961 . S
H2392 C2404 0.959 . S
H2393 C2407 0.929 . S
H2394 C2408 0.931 . S
H2395 C2410 0.930 . S
C2396 H2384 0.930 . S
C2396 C2397 1.399 . S
C2396 C2401 1.399 . S
C2397 C2396 1.399 . S
C2397 C2398 1.376 . S
C2398 H2385 0.930 . S
C2398 C2397 1.376 . S
C2398 C2399 1.388 . S
C2399 H2386 0.930 . S
C2399 C2398 1.388 . S
C2399 C2400 1.390 . S
C2400 C2399 1.390 . S
C2400 C2401 1.394 . S
C2400 C2406 1.465 . S
C2401 C2396 1.399 . S
C2401 C2400 1.394 . S
C2401 C2402 1.516 . S
C2402 C2401 1.516 . S
C2402 C2403 1.502 . S
C2402 C2404 1.561 . S
C2402 C2405 1.526 . S
C2403 H2387 0.959 . S
C2403 H2388 0.959 . S
C2403 H2389 0.961 . S
C2403 C2402 1.502 . S
C2404 H2390 0.960 . S
C2404 H2391 0.961 . S
C2404 H2392 0.959 . S
C2404 C2402 1.561 . S
C2405 C2402 1.526 . S
C2405 C2406 1.396 . S
C2405 C2410 1.390 . S
C2406 C2400 1.465 . S
C2406 C2405 1.396 . S
C2406 C2407 1.399 . S
C2407 H2393 0.929 . S
C2407 C2406 1.399 . S
C2407 C2408 1.385 . S
C2408 H2394 0.931 . S
C2408 C2407 1.385 . S
C2408 C2409 1.389 . S
C2409 C2408 1.389 . S
C2409 C2410 1.387 . S
C2410 H2395 0.930 . S
C2410 C2405 1.390 . S
C2410 C2409 1.387 . S
H2411 C2423 0.930 . S
H2412 C2425 0.930 . S
H2413 C2426 0.930 . S
H2414 C2430 0.959 . S
H2415 C2430 0.959 . S
H2416 C2430 0.961 . S
H2417 C2431 0.960 . S
H2418 C2431 0.961 . S
H2419 C2431 0.959 . S
H2420 C2434 0.929 . S
H2421 C2435 0.931 . S
H2422 C2437 0.930 . S
C2423 H2411 0.930 . S
C2423 C2424 1.399 . S
C2423 C2428 1.399 . S
C2424 C2423 1.399 . S
C2424 C2425 1.376 . S
C2425 H2412 0.930 . S
C2425 C2424 1.376 . S
C2425 C2426 1.388 . S
C2426 H2413 0.930 . S
C2426 C2425 1.388 . S
C2426 C2427 1.390 . S
C2427 C2426 1.390 . S
C2427 C2428 1.394 . S
C2427 C2433 1.465 . S
C2428 C2423 1.399 . S
C2428 C2427 1.394 . S
C2428 C2429 1.516 . S
C2429 C2428 1.516 . S
C2429 C2430 1.502 . S
C2429 C2431 1.561 . S
C2429 C2432 1.526 . S
C2430 H2414 0.959 . S
C2430 H2415 0.959 . S
C2430 H2416 0.961 . S
C2430 C2429 1.502 . S
C2431 H2417 0.960 . S
C2431 H2418 0.961 . S
C2431 H2419 0.959 . S
C2431 C2429 1.561 . S
C2432 C2429 1.526 . S
C2432 C2433 1.396 . S
C2432 C2437 1.390 . S
C2433 C2427 1.465 . S
C2433 C2432 1.396 . S
C2433 C2434 1.399 . S
C2434 H2420 0.929 . S
C2434 C2433 1.399 . S
C2434 C2435 1.385 . S
C2435 H2421 0.931 . S
C2435 C2434 1.385 . S
C2435 C2436 1.389 . S
C2436 C2435 1.389 . S
C2436 C2437 1.387 . S
C2437 H2422 0.930 . S
C2437 C2432 1.390 . S
C2437 C2436 1.387 . S
H2438 C2450 0.930 . S
H2439 C2452 0.930 . S
H2440 C2453 0.930 . S
H2441 C2457 0.959 . S
H2442 C2457 0.959 . S
H2443 C2457 0.961 . S
H2444 C2458 0.960 . S
H2445 C2458 0.961 . S
H2446 C2458 0.959 . S
H2447 C2461 0.929 . S
H2448 C2462 0.931 . S
H2449 C2464 0.930 . S
C2450 H2438 0.930 . S
C2450 C2451 1.399 . S
C2450 C2455 1.399 . S
C2451 C2450 1.399 . S
C2451 C2452 1.376 . S
C2452 H2439 0.930 . S
C2452 C2451 1.376 . S
C2452 C2453 1.388 . S
C2453 H2440 0.930 . S
C2453 C2452 1.388 . S
C2453 C2454 1.390 . S
C2454 C2453 1.390 . S
C2454 C2455 1.394 . S
C2454 C2460 1.465 . S
C2455 C2450 1.399 . S
C2455 C2454 1.394 . S
C2455 C2456 1.516 . S
C2456 C2455 1.516 . S
C2456 C2457 1.502 . S
C2456 C2458 1.561 . S
C2456 C2459 1.526 . S
C2457 H2441 0.959 . S
C2457 H2442 0.959 . S
C2457 H2443 0.961 . S
C2457 C2456 1.502 . S
C2458 H2444 0.960 . S
C2458 H2445 0.961 . S
C2458 H2446 0.959 . S
C2458 C2456 1.561 . S
C2459 C2456 1.526 . S
C2459 C2460 1.396 . S
C2459 C2464 1.390 . S
C2460 C2454 1.465 . S
C2460 C2459 1.396 . S
C2460 C2461 1.399 . S
C2461 H2447 0.929 . S
C2461 C2460 1.399 . S
C2461 C2462 1.385 . S
C2462 H2448 0.931 . S
C2462 C2461 1.385 . S
C2462 C2463 1.389 . S
C2463 C2462 1.389 . S
C2463 C2464 1.387 . S
C2464 H2449 0.930 . S
C2464 C2459 1.390 . S
C2464 C2463 1.387 . S
H2465 C2477 0.955 . S
H2466 C2479 0.930 . S
H2467 C2480 0.930 . S
H2468 C2484 0.959 . S
H2469 C2484 0.959 . S
H2470 C2484 0.961 . S
H2471 C2485 0.960 . S
H2472 C2485 0.961 . S
H2473 C2485 0.959 . S
H2474 C2488 0.929 . S
H2475 C2489 0.931 . S
H2476 C2491 0.930 . S
C2477 H2465 0.955 . S
C2477 C2478 1.399 . S
C2477 C2482 1.399 . S
C2478 C2477 1.399 . S
C2478 C2479 1.376 . S
C2479 H2466 0.930 . S
C2479 C2478 1.376 . S
C2479 C2480 1.388 . S
C2480 H2467 0.930 . S
C2480 C2479 1.388 . S
C2480 C2481 1.390 . S
C2481 C2480 1.390 . S
C2481 C2482 1.394 . S
C2481 C2487 1.465 . S
C2482 C2477 1.399 . S
C2482 C2481 1.394 . S
C2482 C2483 1.516 . S
C2483 C2482 1.516 . S
C2483 C2484 1.502 . S
C2483 C2485 1.561 . S
C2483 C2486 1.526 . S
C2484 H2468 0.959 . S
C2484 H2469 0.959 . S
C2484 H2470 0.961 . S
C2484 C2483 1.502 . S
C2485 H2471 0.960 . S
C2485 H2472 0.961 . S
C2485 H2473 0.959 . S
C2485 C2483 1.561 . S
C2486 C2483 1.526 . S
C2486 C2487 1.396 . S
C2486 C2491 1.390 . S
C2487 C2481 1.465 . S
C2487 C2486 1.396 . S
C2487 C2488 1.399 . S
C2488 H2474 0.929 . S
C2488 C2487 1.399 . S
C2488 C2489 1.385 . S
C2489 H2475 0.931 . S
C2489 C2488 1.385 . S
C2489 C2490 1.389 . S
C2490 C2489 1.389 . S
C2490 C2491 1.387 . S
C2491 H2476 0.930 . S
C2491 C2486 1.390 . S
C2491 C2490 1.387 . S
H2492 C2504 0.977 . S
H2493 C2506 0.930 . S
H2494 C2507 0.930 . S
H2495 C2511 0.959 . S
H2496 C2511 0.959 . S
H2497 C2511 0.961 . S
H2498 C2512 0.960 . S
H2499 C2512 0.961 . S
H2500 C2512 0.959 . S
H2501 C2515 0.929 . S
H2502 C2516 0.931 . S
H2503 C2518 0.930 . S
C2504 H2492 0.977 . S
C2504 C2505 1.399 . S
C2504 C2509 1.399 . S
C2505 C2504 1.399 . S
C2505 C2506 1.376 . S
C2506 H2493 0.930 . S
C2506 C2505 1.376 . S
C2506 C2507 1.388 . S
C2507 H2494 0.930 . S
C2507 C2506 1.388 . S
C2507 C2508 1.390 . S
C2508 C2507 1.390 . S
C2508 C2509 1.394 . S
C2508 C2514 1.465 . S
C2509 C2504 1.399 . S
C2509 C2508 1.394 . S
C2509 C2510 1.516 . S
C2510 C2509 1.516 . S
C2510 C2511 1.502 . S
C2510 C2512 1.561 . S
C2510 C2513 1.526 . S
C2511 H2495 0.959 . S
C2511 H2496 0.959 . S
C2511 H2497 0.961 . S
C2511 C2510 1.502 . S
C2512 H2498 0.960 . S
C2512 H2499 0.961 . S
C2512 H2500 0.959 . S
C2512 C2510 1.561 . S
C2513 C2510 1.526 . S
C2513 C2514 1.396 . S
C2513 C2518 1.390 . S
C2514 C2508 1.465 . S
C2514 C2513 1.396 . S
C2514 C2515 1.399 . S
C2515 H2501 0.929 . S
C2515 C2514 1.399 . S
C2515 C2516 1.385 . S
C2516 H2502 0.931 . S
C2516 C2515 1.385 . S
C2516 C2517 1.389 . S
C2517 C2516 1.389 . S
C2517 C2518 1.387 . S
C2518 H2503 0.930 . S
C2518 C2513 1.390 . S
C2518 C2517 1.387 . S
H2519 C2531 0.935 1_545 S
H2520 C2533 0.930 . S
H2521 C2534 0.930 . S
H2522 C2538 0.959 . S
H2523 C2538 0.959 . S
H2524 C2538 0.961 . S
H2525 C2539 0.960 . S
H2526 C2539 0.961 . S
H2527 C2539 0.959 . S
H2528 C2542 0.929 . S
H2529 C2543 0.931 . S
H2530 C2545 0.930 . S
C2531 H2519 0.935 1_565 S
C2531 C2532 1.399 . S
C2531 C2536 1.399 . S
C2532 C2531 1.399 . S
C2532 C2533 1.376 . S
C2533 H2520 0.930 . S
C2533 C2532 1.376 . S
C2533 C2534 1.388 . S
C2534 H2521 0.930 . S
C2534 C2533 1.388 . S
C2534 C2535 1.390 . S
C2535 C2534 1.390 . S
C2535 C2536 1.394 . S
C2535 C2541 1.465 . S
C2536 C2531 1.399 . S
C2536 C2535 1.394 . S
C2536 C2537 1.516 . S
C2537 C2536 1.516 . S
C2537 C2538 1.502 . S
C2537 C2539 1.561 . S
C2537 C2540 1.526 . S
C2538 H2522 0.959 . S
C2538 H2523 0.959 . S
C2538 H2524 0.961 . S
C2538 C2537 1.502 . S
C2539 H2525 0.960 . S
C2539 H2526 0.961 . S
C2539 H2527 0.959 . S
C2539 C2537 1.561 . S
C2540 C2537 1.526 . S
C2540 C2541 1.396 . S
C2540 C2545 1.390 . S
C2541 C2535 1.465 . S
C2541 C2540 1.396 . S
C2541 C2542 1.399 . S
C2542 H2528 0.929 . S
C2542 C2541 1.399 . S
C2542 C2543 1.385 . S
C2543 H2529 0.931 . S
C2543 C2542 1.385 . S
C2543 C2544 1.389 . S
C2544 C2543 1.389 . S
C2544 C2545 1.387 . S
C2545 H2530 0.930 . S
C2545 C2540 1.390 . S
C2545 C2544 1.387 . S
H2546 C2558 0.930 . S
H2547 C2560 0.930 . S
H2548 C2561 0.930 . S
H2549 C2565 0.959 . S
H2550 C2565 0.959 . S
H2551 C2565 0.961 . S
H2552 C2566 0.960 . S
H2553 C2566 0.961 . S
H2554 C2566 0.959 . S
H2555 C2569 0.929 . S
H2556 C2570 0.931 . S
H2557 C2572 0.930 . S
C2558 H2546 0.930 . S
C2558 C2559 1.399 . S
C2558 C2563 1.399 . S
C2559 C2558 1.399 . S
C2559 C2560 1.376 . S
C2560 H2547 0.930 . S
C2560 C2559 1.376 . S
C2560 C2561 1.388 . S
C2561 H2548 0.930 . S
C2561 C2560 1.388 . S
C2561 C2562 1.390 . S
C2562 C2561 1.390 . S
C2562 C2563 1.394 . S
C2562 C2568 1.465 . S
C2563 C2558 1.399 . S
C2563 C2562 1.394 . S
C2563 C2564 1.516 . S
C2564 C2563 1.516 . S
C2564 C2565 1.502 . S
C2564 C2566 1.561 . S
C2564 C2567 1.526 . S
C2565 H2549 0.959 . S
C2565 H2550 0.959 . S
C2565 H2551 0.961 . S
C2565 C2564 1.502 . S
C2566 H2552 0.960 . S
C2566 H2553 0.961 . S
C2566 H2554 0.959 . S
C2566 C2564 1.561 . S
C2567 C2564 1.526 . S
C2567 C2568 1.396 . S
C2567 C2572 1.390 . S
C2568 C2562 1.465 . S
C2568 C2567 1.396 . S
C2568 C2569 1.399 . S
C2569 H2555 0.929 . S
C2569 C2568 1.399 . S
C2569 C2570 1.385 . S
C2570 H2556 0.931 . S
C2570 C2569 1.385 . S
C2570 C2571 1.389 . S
C2571 C2570 1.389 . S
C2571 C2572 1.387 . S
C2572 H2557 0.930 . S
C2572 C2567 1.390 . S
C2572 C2571 1.387 . S
H2573 C2585 0.930 . S
H2574 C2587 0.930 1_565 S
H2575 C2588 0.930 . S
H2576 C2592 0.959 . S
H2577 C2592 0.959 . S
H2578 C2592 0.961 . S
H2579 C2593 0.960 . S
H2580 C2593 0.961 . S
H2581 C2593 0.959 . S
H2582 C2596 0.929 . S
H2583 C2597 0.931 . S
H2584 C2599 0.930 . S
C2585 H2573 0.930 . S
C2585 C2586 1.399 . S
C2585 C2590 1.399 . S
C2586 C2585 1.399 . S
C2586 C2587 1.376 . S
C2587 H2574 0.930 1_545 S
C2587 C2586 1.376 . S
C2587 C2588 1.388 . S
C2588 H2575 0.930 . S
C2588 C2587 1.388 . S
C2588 C2589 1.390 . S
C2589 C2588 1.390 . S
C2589 C2590 1.394 . S
C2589 C2595 1.465 . S
C2590 C2585 1.399 . S
C2590 C2589 1.394 . S
C2590 C2591 1.516 . S
C2591 C2590 1.516 . S
C2591 C2592 1.502 . S
C2591 C2593 1.561 . S
C2591 C2594 1.526 . S
C2592 H2576 0.959 . S
C2592 H2577 0.959 . S
C2592 H2578 0.961 . S
C2592 C2591 1.502 . S
C2593 H2579 0.960 . S
C2593 H2580 0.961 . S
C2593 H2581 0.959 . S
C2593 C2591 1.561 . S
C2594 C2591 1.526 . S
C2594 C2595 1.396 . S
C2594 C2599 1.390 . S
C2595 C2589 1.465 . S
C2595 C2594 1.396 . S
C2595 C2596 1.399 . S
C2596 H2582 0.929 . S
C2596 C2595 1.399 . S
C2596 C2597 1.385 . S
C2597 H2583 0.931 . S
C2597 C2596 1.385 . S
C2597 C2598 1.389 . S
C2598 C2597 1.389 . S
C2598 C2599 1.387 . S
C2599 H2584 0.930 . S
C2599 C2594 1.390 . S
C2599 C2598 1.387 . S
H2600 C2612 0.930 . S
H2601 C2614 0.930 . S
H2602 C2615 0.930 . S
H2603 C2619 0.959 . S
H2604 C2619 0.959 . S
H2605 C2619 0.961 . S
H2606 C2620 0.960 . S
H2607 C2620 0.961 . S
H2608 C2620 0.959 . S
H2609 C2623 0.929 . S
H2610 C2624 0.931 . S
H2611 C2626 0.930 . S
C2612 H2600 0.930 . S
C2612 C2613 1.399 . S
C2612 C2617 1.399 . S
C2613 C2612 1.399 . S
C2613 C2614 1.376 . S
C2614 H2601 0.930 . S
C2614 C2613 1.376 . S
C2614 C2615 1.388 . S
C2615 H2602 0.930 . S
C2615 C2614 1.388 . S
C2615 C2616 1.390 . S
C2616 C2615 1.390 . S
C2616 C2617 1.394 . S
C2616 C2622 1.465 . S
C2617 C2612 1.399 . S
C2617 C2616 1.394 . S
C2617 C2618 1.516 . S
C2618 C2617 1.516 . S
C2618 C2619 1.502 . S
C2618 C2620 1.561 . S
C2618 C2621 1.526 . S
C2619 H2603 0.959 . S
C2619 H2604 0.959 . S
C2619 H2605 0.961 . S
C2619 C2618 1.502 . S
C2620 H2606 0.960 . S
C2620 H2607 0.961 . S
C2620 H2608 0.959 . S
C2620 C2618 1.561 . S
C2621 C2618 1.526 . S
C2621 C2622 1.396 . S
C2621 C2626 1.390 . S
C2622 C2616 1.465 . S
C2622 C2621 1.396 . S
C2622 C2623 1.399 . S
C2623 H2609 0.929 . S
C2623 C2622 1.399 . S
C2623 C2624 1.385 . S
C2624 H2610 0.931 . S
C2624 C2623 1.385 . S
C2624 C2625 1.389 . S
C2625 C2624 1.389 . S
C2625 C2626 1.387 . S
C2626 H2611 0.930 . S
C2626 C2621 1.390 . S
C2626 C2625 1.387 . S
H2627 C2639 0.930 . S
H2628 C2641 0.930 . S
H2629 C2642 0.930 . S
H2630 C2646 0.959 . S
H2631 C2646 0.959 . S
H2632 C2646 0.961 . S
H2633 C2647 0.960 . S
H2634 C2647 0.961 . S
H2635 C2647 0.959 . S
H2636 C2650 0.929 . S
H2637 C2651 0.931 . S
H2638 C2653 0.930 . S
C2639 H2627 0.930 . S
C2639 C2640 1.399 . S
C2639 C2644 1.399 . S
C2640 C2639 1.399 . S
C2640 C2641 1.376 . S
C2641 H2628 0.930 . S
C2641 C2640 1.376 . S
C2641 C2642 1.388 . S
C2642 H2629 0.930 . S
C2642 C2641 1.388 . S
C2642 C2643 1.390 . S
C2643 C2642 1.390 . S
C2643 C2644 1.394 . S
C2643 C2649 1.465 . S
C2644 C2639 1.399 . S
C2644 C2643 1.394 . S
C2644 C2645 1.516 . S
C2645 C2644 1.516 . S
C2645 C2646 1.502 . S
C2645 C2647 1.561 . S
C2645 C2648 1.526 . S
C2646 H2630 0.959 . S
C2646 H2631 0.959 . S
C2646 H2632 0.961 . S
C2646 C2645 1.502 . S
C2647 H2633 0.960 . S
C2647 H2634 0.961 . S
C2647 H2635 0.959 . S
C2647 C2645 1.561 . S
C2648 C2645 1.526 . S
C2648 C2649 1.396 . S
C2648 C2653 1.390 . S
C2649 C2643 1.465 . S
C2649 C2648 1.396 . S
C2649 C2650 1.399 . S
C2650 H2636 0.929 . S
C2650 C2649 1.399 . S
C2650 C2651 1.385 . S
C2651 H2637 0.931 . S
C2651 C2650 1.385 . S
C2651 C2652 1.389 . S
C2652 C2651 1.389 . S
C2652 C2653 1.387 . S
C2653 H2638 0.930 . S
C2653 C2648 1.390 . S
C2653 C2652 1.387 . S
H2654 C2666 0.930 . S
H2655 C2668 0.930 . S
H2656 C2669 0.930 . S
H2657 C2673 0.959 . S
H2658 C2673 0.959 . S
H2659 C2673 0.961 . S
H2660 C2674 0.960 . S
H2661 C2674 0.961 . S
H2662 C2674 0.959 . S
H2663 C2677 0.929 . S
H2664 C2678 0.931 . S
H2665 C2680 0.930 . S
C2666 H2654 0.930 . S
C2666 C2667 1.399 . S
C2666 C2671 1.399 . S
C2667 C2666 1.399 . S
C2667 C2668 1.376 . S
C2668 H2655 0.930 . S
C2668 C2667 1.376 . S
C2668 C2669 1.388 . S
C2669 H2656 0.930 . S
C2669 C2668 1.388 . S
C2669 C2670 1.390 . S
C2670 C2669 1.390 . S
C2670 C2671 1.394 . S
C2670 C2676 1.465 . S
C2671 C2666 1.399 . S
C2671 C2670 1.394 . S
C2671 C2672 1.516 . S
C2672 C2671 1.516 . S
C2672 C2673 1.502 . S
C2672 C2674 1.561 . S
C2672 C2675 1.526 . S
C2673 H2657 0.959 . S
C2673 H2658 0.959 . S
C2673 H2659 0.961 . S
C2673 C2672 1.502 . S
C2674 H2660 0.960 . S
C2674 H2661 0.961 . S
C2674 H2662 0.959 . S
C2674 C2672 1.561 . S
C2675 C2672 1.526 . S
C2675 C2676 1.396 . S
C2675 C2680 1.390 . S
C2676 C2670 1.465 . S
C2676 C2675 1.396 . S
C2676 C2677 1.399 . S
C2677 H2663 0.929 . S
C2677 C2676 1.399 . S
C2677 C2678 1.385 . S
C2678 H2664 0.931 . S
C2678 C2677 1.385 . S
C2678 C2679 1.389 . S
C2679 C2678 1.389 . S
C2679 C2680 1.387 . S
C2680 H2665 0.930 . S
C2680 C2675 1.390 . S
C2680 C2679 1.387 . S
H2681 C2693 0.930 . S
H2682 C2695 0.930 . S
H2683 C2696 0.930 . S
H2684 C2700 0.959 . S
H2685 C2700 0.959 . S
H2686 C2700 0.961 . S
H2687 C2701 0.960 . S
H2688 C2701 0.961 . S
H2689 C2701 0.959 . S
H2690 C2704 0.929 . S
H2691 C2705 0.931 . S
H2692 C2707 0.930 . S
C2693 H2681 0.930 . S
C2693 C2694 1.399 . S
C2693 C2698 1.399 . S
C2694 C2693 1.399 . S
C2694 C2695 1.376 . S
C2695 H2682 0.930 . S
C2695 C2694 1.376 . S
C2695 C2696 1.388 . S
C2696 H2683 0.930 . S
C2696 C2695 1.388 . S
C2696 C2697 1.390 . S
C2697 C2696 1.390 . S
C2697 C2698 1.394 . S
C2697 C2703 1.465 . S
C2698 C2693 1.399 . S
C2698 C2697 1.394 . S
C2698 C2699 1.516 . S
C2699 C2698 1.516 . S
C2699 C2700 1.502 . S
C2699 C2701 1.561 . S
C2699 C2702 1.526 . S
C2700 H2684 0.959 . S
C2700 H2685 0.959 . S
C2700 H2686 0.961 . S
C2700 C2699 1.502 . S
C2701 H2687 0.960 . S
C2701 H2688 0.961 . S
C2701 H2689 0.959 . S
C2701 C2699 1.561 . S
C2702 C2699 1.526 . S
C2702 C2703 1.396 . S
C2702 C2707 1.390 . S
C2703 C2697 1.465 . S
C2703 C2702 1.396 . S
C2703 C2704 1.399 . S
C2704 H2690 0.929 . S
C2704 C2703 1.399 . S
C2704 C2705 1.385 . S
C2705 H2691 0.931 . S
C2705 C2704 1.385 . S
C2705 C2706 1.389 . S
C2706 C2705 1.389 . S
C2706 C2707 1.387 . S
C2707 H2692 0.930 . S
C2707 C2702 1.390 . S
C2707 C2706 1.387 . S
H2708 C2720 0.930 . S
H2709 C2722 0.930 . S
H2710 C2723 0.930 . S
H2711 C2727 0.959 . S
H2712 C2727 0.959 . S
H2713 C2727 0.961 . S
H2714 C2728 0.960 . S
H2715 C2728 0.961 . S
H2716 C2728 0.959 . S
H2717 C2731 0.929 . S
H2718 C2732 0.931 . S
H2719 C2734 0.930 . S
C2720 H2708 0.930 . S
C2720 C2721 1.399 . S
C2720 C2725 1.399 . S
C2721 C2720 1.399 . S
C2721 C2722 1.376 . S
C2722 H2709 0.930 . S
C2722 C2721 1.376 . S
C2722 C2723 1.388 . S
C2723 H2710 0.930 . S
C2723 C2722 1.388 . S
C2723 C2724 1.390 . S
C2724 C2723 1.390 . S
C2724 C2725 1.394 . S
C2724 C2730 1.465 . S
C2725 C2720 1.399 . S
C2725 C2724 1.394 . S
C2725 C2726 1.516 . S
C2726 C2725 1.516 . S
C2726 C2727 1.502 . S
C2726 C2728 1.561 . S
C2726 C2729 1.526 . S
C2727 H2711 0.959 . S
C2727 H2712 0.959 . S
C2727 H2713 0.961 . S
C2727 C2726 1.502 . S
C2728 H2714 0.960 . S
C2728 H2715 0.961 . S
C2728 H2716 0.959 . S
C2728 C2726 1.561 . S
C2729 C2726 1.526 . S
C2729 C2730 1.396 . S
C2729 C2734 1.390 . S
C2730 C2724 1.465 . S
C2730 C2729 1.396 . S
C2730 C2731 1.399 . S
C2731 H2717 0.929 . S
C2731 C2730 1.399 . S
C2731 C2732 1.385 . S
C2732 H2718 0.931 . S
C2732 C2731 1.385 . S
C2732 C2733 1.389 . S
C2733 C2732 1.389 . S
C2733 C2734 1.387 . S
C2734 H2719 0.930 . S
C2734 C2729 1.390 . S
C2734 C2733 1.387 . S
H2735 C2747 0.930 . S
H2736 C2749 0.930 . S
H2737 C2750 0.930 . S
H2738 C2754 0.959 . S
H2739 C2754 0.959 . S
H2740 C2754 0.961 . S
H2741 C2755 0.960 . S
H2742 C2755 0.961 . S
H2743 C2755 0.959 . S
H2744 C2758 0.929 . S
H2745 C2759 0.931 . S
H2746 C2761 0.930 . S
C2747 H2735 0.930 . S
C2747 C2748 1.399 . S
C2747 C2752 1.399 . S
C2748 C2747 1.399 . S
C2748 C2749 1.376 . S
C2749 H2736 0.930 . S
C2749 C2748 1.376 . S
C2749 C2750 1.388 . S
C2750 H2737 0.930 . S
C2750 C2749 1.388 . S
C2750 C2751 1.390 . S
C2751 C2750 1.390 . S
C2751 C2752 1.394 . S
C2751 C2757 1.465 . S
C2752 C2747 1.399 . S
C2752 C2751 1.394 . S
C2752 C2753 1.516 . S
C2753 C2752 1.516 . S
C2753 C2754 1.502 . S
C2753 C2755 1.561 . S
C2753 C2756 1.526 . S
C2754 H2738 0.959 . S
C2754 H2739 0.959 . S
C2754 H2740 0.961 . S
C2754 C2753 1.502 . S
C2755 H2741 0.960 . S
C2755 H2742 0.961 . S
C2755 H2743 0.959 . S
C2755 C2753 1.561 . S
C2756 C2753 1.526 . S
C2756 C2757 1.396 . S
C2756 C2761 1.390 . S
C2757 C2751 1.465 . S
C2757 C2756 1.396 . S
C2757 C2758 1.399 . S
C2758 H2744 0.929 . S
C2758 C2757 1.399 . S
C2758 C2759 1.385 . S
C2759 H2745 0.931 . S
C2759 C2758 1.385 . S
C2759 C2760 1.389 . S
C2760 C2759 1.389 . S
C2760 C2761 1.387 . S
C2761 H2746 0.930 . S
C2761 C2756 1.390 . S
C2761 C2760 1.387 . S
H2762 C2774 0.930 . S
H2763 C2776 0.930 . S
H2764 C2777 0.930 . S
H2765 C2781 0.959 . S
H2766 C2781 0.959 . S
H2767 C2781 0.961 . S
H2768 C2782 0.960 . S
H2769 C2782 0.961 . S
H2770 C2782 0.959 . S
H2771 C2785 0.929 . S
H2772 C2786 0.931 . S
H2773 C2788 0.930 . S
C2774 H2762 0.930 . S
C2774 C2775 1.399 . S
C2774 C2779 1.399 . S
C2775 C2774 1.399 . S
C2775 C2776 1.376 . S
C2776 H2763 0.930 . S
C2776 C2775 1.376 . S
C2776 C2777 1.388 . S
C2777 H2764 0.930 . S
C2777 C2776 1.388 . S
C2777 C2778 1.390 . S
C2778 C2777 1.390 . S
C2778 C2779 1.394 . S
C2778 C2784 1.465 . S
C2779 C2774 1.399 . S
C2779 C2778 1.394 . S
C2779 C2780 1.516 . S
C2780 C2779 1.516 . S
C2780 C2781 1.502 . S
C2780 C2782 1.561 . S
C2780 C2783 1.526 . S
C2781 H2765 0.959 . S
C2781 H2766 0.959 . S
C2781 H2767 0.961 . S
C2781 C2780 1.502 . S
C2782 H2768 0.960 . S
C2782 H2769 0.961 . S
C2782 H2770 0.959 . S
C2782 C2780 1.561 . S
C2783 C2780 1.526 . S
C2783 C2784 1.396 . S
C2783 C2788 1.390 . S
C2784 C2778 1.465 . S
C2784 C2783 1.396 . S
C2784 C2785 1.399 . S
C2785 H2771 0.929 . S
C2785 C2784 1.399 . S
C2785 C2786 1.385 . S
C2786 H2772 0.931 . S
C2786 C2785 1.385 . S
C2786 C2787 1.389 . S
C2787 C2786 1.389 . S
C2787 C2788 1.387 . S
C2788 H2773 0.930 . S
C2788 C2783 1.390 . S
C2788 C2787 1.387 . S
H2789 C2801 0.930 . S
H2790 C2803 0.930 . S
H2791 C2804 0.930 . S
H2792 C2808 0.959 . S
H2793 C2808 0.959 . S
H2794 C2808 0.961 . S
H2795 C2809 0.960 . S
H2796 C2809 0.961 . S
H2797 C2809 0.959 . S
H2798 C2812 0.929 . S
H2799 C2813 0.931 . S
H2800 C2815 0.930 . S
C2801 H2789 0.930 . S
C2801 C2802 1.399 . S
C2801 C2806 1.399 . S
C2802 C2801 1.399 . S
C2802 C2803 1.376 . S
C2803 H2790 0.930 . S
C2803 C2802 1.376 . S
C2803 C2804 1.388 . S
C2804 H2791 0.930 . S
C2804 C2803 1.388 . S
C2804 C2805 1.390 . S
C2805 C2804 1.390 . S
C2805 C2806 1.394 . S
C2805 C2811 1.465 . S
C2806 C2801 1.399 . S
C2806 C2805 1.394 . S
C2806 C2807 1.516 . S
C2807 C2806 1.516 . S
C2807 C2808 1.502 . S
C2807 C2809 1.561 . S
C2807 C2810 1.526 . S
C2808 H2792 0.959 . S
C2808 H2793 0.959 . S
C2808 H2794 0.961 . S
C2808 C2807 1.502 . S
C2809 H2795 0.960 . S
C2809 H2796 0.961 . S
C2809 H2797 0.959 . S
C2809 C2807 1.561 . S
C2810 C2807 1.526 . S
C2810 C2811 1.396 . S
C2810 C2815 1.390 . S
C2811 C2805 1.465 . S
C2811 C2810 1.396 . S
C2811 C2812 1.399 . S
C2812 H2798 0.929 . S
C2812 C2811 1.399 . S
C2812 C2813 1.385 . S
C2813 H2799 0.931 . S
C2813 C2812 1.385 . S
C2813 C2814 1.389 . S
C2814 C2813 1.389 . S
C2814 C2815 1.387 . S
C2815 H2800 0.930 . S
C2815 C2810 1.390 . S
C2815 C2814 1.387 . S
H2816 C2828 0.930 . S
H2817 C2830 0.930 . S
H2818 C2831 0.930 . S
H2819 C2835 0.959 . S
H2820 C2835 0.955 1_556 S
H2821 C2835 0.985 . S
H2822 C2836 0.960 . S
H2823 C2836 0.961 . S
H2824 C2836 0.959 . S
H2825 C2839 0.929 . S
H2826 C2840 0.931 . S
H2827 C2842 0.930 . S
C2828 H2816 0.930 . S
C2828 C2829 1.399 . S
C2828 C2833 1.399 . S
C2829 C2828 1.399 . S
C2829 C2830 1.376 . S
C2830 H2817 0.930 . S
C2830 C2829 1.376 . S
C2830 C2831 1.388 . S
C2831 H2818 0.930 . S
C2831 C2830 1.388 . S
C2831 C2832 1.390 . S
C2832 C2831 1.390 . S
C2832 C2833 1.394 . S
C2832 C2838 1.465 . S
C2833 C2828 1.399 . S
C2833 C2832 1.394 . S
C2833 C2834 1.516 . S
C2834 C2833 1.516 . S
C2834 C2835 1.502 . S
C2834 C2836 1.561 . S
C2834 C2837 1.526 . S
C2835 H2819 0.959 . S
C2835 H2820 0.955 1_554 S
C2835 H2821 0.985 . S
C2835 C2834 1.502 . S
C2836 H2822 0.960 . S
C2836 H2823 0.961 . S
C2836 H2824 0.959 . S
C2836 C2834 1.561 . S
C2837 C2834 1.526 . S
C2837 C2838 1.396 . S
C2837 C2842 1.390 . S
C2838 C2832 1.465 . S
C2838 C2837 1.396 . S
C2838 C2839 1.399 . S
C2839 H2825 0.929 . S
C2839 C2838 1.399 . S
C2839 C2840 1.385 . S
C2840 H2826 0.931 . S
C2840 C2839 1.385 . S
C2840 C2841 1.389 . S
C2841 C2840 1.389 . S
C2841 C2842 1.387 . S
C2842 H2827 0.930 . S
C2842 C2837 1.390 . S
C2842 C2841 1.387 . S
H2843 C2855 0.930 . S
H2844 C2857 0.930 . S
H2845 C2858 0.930 . S
H2846 C2862 0.962 . S
H2847 C2862 0.978 . S
H2848 C2862 0.940 1_655 S
H2849 C2863 0.958 1_655 S
H2850 C2863 0.963 . S
H2851 C2863 0.959 . S
H2852 C2866 0.929 . S
H2853 C2867 0.931 . S
H2854 C2869 0.930 . S
C2855 H2843 0.930 . S
C2855 C2856 1.399 . S
C2855 C2860 1.399 . S
C2856 C2855 1.399 . S
C2856 C2857 1.376 . S
C2857 H2844 0.930 . S
C2857 C2856 1.376 . S
C2857 C2858 1.388 . S
C2858 H2845 0.930 . S
C2858 C2857 1.388 . S
C2858 C2859 1.390 . S
C2859 C2858 1.390 . S
C2859 C2860 1.394 . S
C2859 C2865 1.465 1_655 S
C2860 C2855 1.399 . S
C2860 C2859 1.394 . S
C2860 C2861 1.518 1_655 S
C2861 C2860 1.518 1_455 S
C2861 C2862 1.502 1_565 S
C2861 C2863 1.561 . S
C2861 C2864 1.524 . S
C2862 H2846 0.962 . S
C2862 H2847 0.978 . S
C2862 H2848 0.940 1_455 S
C2862 C2861 1.502 1_545 S
C2863 H2849 0.958 1_455 S
C2863 H2850 0.963 . S
C2863 H2851 0.959 . S
C2863 C2861 1.561 . S
C2864 C2861 1.524 . S
C2864 C2865 1.396 . S
C2864 C2869 1.390 . S
C2865 C2859 1.465 1_455 S
C2865 C2864 1.396 . S
C2865 C2866 1.399 . S
C2866 H2852 0.929 . S
C2866 C2865 1.399 . S
C2866 C2867 1.385 . S
C2867 H2853 0.931 . S
C2867 C2866 1.385 . S
C2867 C2868 1.389 . S
C2868 C2867 1.389 . S
C2868 C2869 1.387 . S
C2869 H2854 0.930 . S
C2869 C2864 1.390 . S
C2869 C2868 1.387 . S
H2870 C2882 0.930 . S
H2871 C2884 0.930 . S
H2872 C2885 0.930 . S
H2873 C2889 0.959 . S
H2874 C2889 0.959 . S
H2875 C2889 0.961 . S
H2876 C2890 0.960 . S
H2877 C2890 0.961 . S
H2878 C2890 0.959 . S
H2879 C2893 0.929 . S
H2880 C2894 0.931 . S
H2881 C2896 0.930 . S
C2882 H2870 0.930 . S
C2882 C2883 1.399 . S
C2882 C2887 1.399 . S
C2883 C2882 1.399 . S
C2883 C2884 1.376 . S
C2884 H2871 0.930 . S
C2884 C2883 1.376 . S
C2884 C2885 1.388 . S
C2885 H2872 0.930 . S
C2885 C2884 1.388 . S
C2885 C2886 1.390 . S
C2886 C2885 1.390 . S
C2886 C2887 1.394 . S
C2886 C2892 1.465 . S
C2887 C2882 1.399 . S
C2887 C2886 1.394 . S
C2887 C2888 1.516 . S
C2888 C2887 1.516 . S
C2888 C2889 1.502 . S
C2888 C2890 1.561 . S
C2888 C2891 1.526 . S
C2889 H2873 0.959 . S
C2889 H2874 0.959 . S
C2889 H2875 0.961 . S
C2889 C2888 1.502 . S
C2890 H2876 0.960 . S
C2890 H2877 0.961 . S
C2890 H2878 0.959 . S
C2890 C2888 1.561 . S
C2891 C2888 1.526 . S
C2891 C2892 1.396 . S
C2891 C2896 1.390 . S
C2892 C2886 1.465 . S
C2892 C2891 1.396 . S
C2892 C2893 1.399 . S
C2893 H2879 0.929 . S
C2893 C2892 1.399 . S
C2893 C2894 1.385 . S
C2894 H2880 0.931 . S
C2894 C2893 1.385 . S
C2894 C2895 1.389 . S
C2895 C2894 1.389 . S
C2895 C2896 1.387 . S
C2896 H2881 0.930 . S
C2896 C2891 1.390 . S
C2896 C2895 1.387 . S
H2897 C2909 0.930 . S
H2898 C2911 0.930 . S
H2899 C2912 0.930 . S
H2900 C2916 0.959 . S
H2901 C2916 0.959 . S
H2902 C2916 0.961 . S
H2903 C2917 0.960 . S
H2904 C2917 0.961 . S
H2905 C2917 0.959 . S
H2906 C2920 0.929 . S
H2907 C2921 0.931 . S
H2908 C2923 0.930 . S
C2909 H2897 0.930 . S
C2909 C2910 1.399 . S
C2909 C2914 1.399 . S
C2910 C2909 1.399 . S
C2910 C2911 1.376 . S
C2911 H2898 0.930 . S
C2911 C2910 1.376 . S
C2911 C2912 1.388 . S
C2912 H2899 0.930 . S
C2912 C2911 1.388 . S
C2912 C2913 1.390 . S
C2913 C2912 1.390 . S
C2913 C2914 1.394 . S
C2913 C2919 1.465 . S
C2914 C2909 1.399 . S
C2914 C2913 1.394 . S
C2914 C2915 1.516 . S
C2915 C2914 1.516 . S
C2915 C2916 1.502 1_545 S
C2915 C2917 1.561 . S
C2915 C2918 1.526 . S
C2916 H2900 0.959 . S
C2916 H2901 0.959 . S
C2916 H2902 0.961 . S
C2916 C2915 1.502 1_565 S
C2917 H2903 0.960 . S
C2917 H2904 0.961 . S
C2917 H2905 0.959 . S
C2917 C2915 1.561 . S
C2918 C2915 1.526 . S
C2918 C2919 1.396 . S
C2918 C2923 1.390 . S
C2919 C2913 1.465 . S
C2919 C2918 1.396 . S
C2919 C2920 1.399 . S
C2920 H2906 0.929 . S
C2920 C2919 1.399 . S
C2920 C2921 1.385 . S
C2921 H2907 0.931 . S
C2921 C2920 1.385 . S
C2921 C2922 1.389 . S
C2922 C2921 1.389 . S
C2922 C2923 1.387 . S
C2923 H2908 0.930 . S
C2923 C2918 1.390 . S
C2923 C2922 1.387 . S
H2924 C2936 0.930 . S
H2925 C2938 0.930 . S
H2926 C2939 0.930 . S
H2927 C2943 0.959 . S
H2928 C2943 0.959 . S
H2929 C2943 0.961 . S
H2930 C2944 0.983 . S
H2931 C2944 0.950 1_554 S
H2932 C2944 0.959 . S
H2933 C2947 0.929 . S
H2934 C2948 0.931 . S
H2935 C2950 0.930 . S
C2936 H2924 0.930 . S
C2936 C2937 1.399 . S
C2936 C2941 1.399 . S
C2937 C2936 1.399 . S
C2937 C2938 1.376 . S
C2938 H2925 0.930 . S
C2938 C2937 1.376 . S
C2938 C2939 1.388 . S
C2939 H2926 0.930 . S
C2939 C2938 1.388 . S
C2939 C2940 1.390 . S
C2940 C2939 1.390 . S
C2940 C2941 1.394 . S
C2940 C2946 1.465 . S
C2941 C2936 1.399 . S
C2941 C2940 1.394 . S
C2941 C2942 1.516 . S
C2942 C2941 1.516 . S
C2942 C2943 1.502 . S
C2942 C2944 1.561 . S
C2942 C2945 1.526 . S
C2943 H2927 0.959 . S
C2943 H2928 0.959 . S
C2943 H2929 0.961 . S
C2943 C2942 1.502 . S
C2944 H2930 0.983 . S
C2944 H2931 0.950 1_556 S
C2944 H2932 0.959 . S
C2944 C2942 1.561 . S
C2945 C2942 1.526 . S
C2945 C2946 1.396 . S
C2945 C2950 1.390 . S
C2946 C2940 1.465 . S
C2946 C2945 1.396 . S
C2946 C2947 1.399 . S
C2947 H2933 0.929 . S
C2947 C2946 1.399 . S
C2947 C2948 1.385 . S
C2948 H2934 0.931 . S
C2948 C2947 1.385 . S
C2948 C2949 1.389 . S
C2949 C2948 1.389 . S
C2949 C2950 1.387 . S
C2950 H2935 0.930 . S
C2950 C2945 1.390 . S
C2950 C2949 1.387 . S
H2951 C2963 0.930 . S
H2952 C2965 0.930 . S
H2953 C2966 0.930 . S
H2954 C2970 0.959 . S
H2955 C2970 0.959 . S
H2956 C2970 0.961 . S
H2957 C2971 0.960 . S
H2958 C2971 0.961 . S
H2959 C2971 0.959 . S
H2960 C2974 0.929 . S
H2961 C2975 0.931 . S
H2962 C2977 0.930 . S
C2963 H2951 0.930 . S
C2963 C2964 1.399 . S
C2963 C2968 1.399 . S
C2964 C2963 1.399 . S
C2964 C2965 1.376 . S
C2965 H2952 0.930 . S
C2965 C2964 1.376 . S
C2965 C2966 1.388 . S
C2966 H2953 0.930 . S
C2966 C2965 1.388 . S
C2966 C2967 1.390 . S
C2967 C2966 1.390 . S
C2967 C2968 1.394 . S
C2967 C2973 1.465 . S
C2968 C2963 1.399 . S
C2968 C2967 1.394 . S
C2968 C2969 1.516 . S
C2969 C2968 1.516 . S
C2969 C2970 1.502 1_565 S
C2969 C2971 1.561 . S
C2969 C2972 1.526 . S
C2970 H2954 0.959 . S
C2970 H2955 0.959 . S
C2970 H2956 0.961 . S
C2970 C2969 1.502 1_545 S
C2971 H2957 0.960 . S
C2971 H2958 0.961 . S
C2971 H2959 0.959 . S
C2971 C2969 1.561 . S
C2972 C2969 1.526 . S
C2972 C2973 1.396 . S
C2972 C2977 1.390 . S
C2973 C2967 1.465 . S
C2973 C2972 1.396 . S
C2973 C2974 1.399 . S
C2974 H2960 0.929 . S
C2974 C2973 1.399 . S
C2974 C2975 1.385 . S
C2975 H2961 0.931 . S
C2975 C2974 1.385 . S
C2975 C2976 1.389 . S
C2976 C2975 1.389 . S
C2976 C2977 1.387 . S
C2977 H2962 0.930 . S
C2977 C2972 1.390 . S
C2977 C2976 1.387 . S
H2978 C2990 0.930 . S
H2979 C2992 0.930 . S
H2980 C2993 0.930 . S
H2981 C2997 0.959 . S
H2982 C2997 0.959 . S
H2983 C2997 0.961 . S
H2984 C2998 0.960 . S
H2985 C2998 0.961 . S
H2986 C2998 0.959 . S
H2987 C3001 0.929 . S
H2988 C3002 0.931 . S
H2989 C3004 0.930 . S
C2990 H2978 0.930 . S
C2990 C2991 1.399 . S
C2990 C2995 1.399 . S
C2991 C2990 1.399 . S
C2991 C2992 1.376 . S
C2992 H2979 0.930 . S
C2992 C2991 1.376 . S
C2992 C2993 1.388 . S
C2993 H2980 0.930 . S
C2993 C2992 1.388 . S
C2993 C2994 1.390 . S
C2994 C2993 1.390 . S
C2994 C2995 1.394 . S
C2994 C3000 1.465 . S
C2995 C2990 1.399 . S
C2995 C2994 1.394 . S
C2995 C2996 1.516 . S
C2996 C2995 1.516 . S
C2996 C2997 1.502 . S
C2996 C2998 1.561 . S
C2996 C2999 1.526 . S
C2997 H2981 0.959 . S
C2997 H2982 0.959 . S
C2997 H2983 0.961 . S
C2997 C2996 1.502 . S
C2998 H2984 0.960 . S
C2998 H2985 0.961 . S
C2998 H2986 0.959 . S
C2998 C2996 1.561 . S
C2999 C2996 1.526 . S
C2999 C3000 1.396 . S
C2999 C3004 1.390 . S
C3000 C2994 1.465 . S
C3000 C2999 1.396 . S
C3000 C3001 1.399 . S
C3001 H2987 0.929 . S
C3001 C3000 1.399 . S
C3001 C3002 1.385 . S
C3002 H2988 0.931 . S
C3002 C3001 1.385 . S
C3002 C3003 1.389 . S
C3003 C3002 1.389 . S
C3003 C3004 1.387 . S
C3004 H2989 0.930 . S
C3004 C2999 1.390 . S
C3004 C3003 1.387 . S
H3005 C3017 0.930 . S
H3006 C3019 0.930 . S
H3007 C3020 0.930 . S
H3008 C3024 0.973 . S
H3009 C3024 0.978 . S
H3010 C3024 0.940 1_455 S
H3011 C3025 0.958 1_455 S
H3012 C3025 0.963 . S
H3013 C3025 0.959 1_545 S
H3014 C3028 0.929 . S
H3015 C3029 0.931 . S
H3016 C3031 0.930 . S
C3017 H3005 0.930 . S
C3017 C3018 1.399 . S
C3017 C3022 1.399 . S
C3018 C3017 1.399 . S
C3018 C3019 1.376 . S
C3019 H3006 0.930 . S
C3019 C3018 1.376 . S
C3019 C3020 1.388 . S
C3020 H3007 0.930 . S
C3020 C3019 1.388 . S
C3020 C3021 1.390 . S
C3021 C3020 1.390 . S
C3021 C3022 1.394 . S
C3021 C3027 1.465 1_455 S
C3022 C3017 1.399 . S
C3022 C3021 1.394 . S
C3022 C3023 1.518 1_455 S
C3023 C3022 1.518 1_655 S
C3023 C3024 1.502 1_545 S
C3023 C3025 1.561 1_545 S
C3023 C3026 1.524 . S
C3024 H3008 0.973 . S
C3024 H3009 0.978 . S
C3024 H3010 0.940 1_655 S
C3024 C3023 1.502 1_565 S
C3025 H3011 0.958 1_655 S
C3025 H3012 0.963 . S
C3025 H3013 0.959 1_565 S
C3025 C3023 1.561 1_565 S
C3026 C3023 1.524 . S
C3026 C3027 1.396 . S
C3026 C3031 1.390 . S
C3027 C3021 1.465 1_655 S
C3027 C3026 1.396 . S
C3027 C3028 1.399 . S
C3028 H3014 0.929 . S
C3028 C3027 1.399 . S
C3028 C3029 1.385 . S
C3029 H3015 0.931 . S
C3029 C3028 1.385 . S
C3029 C3030 1.389 . S
C3030 C3029 1.389 . S
C3030 C3031 1.387 . S
C3031 H3016 0.930 . S
C3031 C3026 1.390 . S
C3031 C3030 1.387 . S
H3032 C3044 0.930 . S
H3033 C3046 0.930 . S
H3034 C3047 0.930 . S
H3035 C3051 0.959 . S
H3036 C3051 0.959 . S
H3037 C3051 0.961 . S
H3038 C3052 0.960 . S
H3039 C3052 0.970 . S
H3040 C3052 0.959 . S
H3041 C3055 0.929 . S
H3042 C3056 0.931 . S
H3043 C3058 0.930 . S
C3044 H3032 0.930 . S
C3044 C3045 1.399 . S
C3044 C3049 1.399 . S
C3045 C3044 1.399 . S
C3045 C3046 1.376 . S
C3046 H3033 0.930 . S
C3046 C3045 1.376 . S
C3046 C3047 1.388 . S
C3047 H3034 0.930 . S
C3047 C3046 1.388 . S
C3047 C3048 1.390 . S
C3048 C3047 1.390 . S
C3048 C3049 1.394 . S
C3048 C3054 1.465 . S
C3049 C3044 1.399 . S
C3049 C3048 1.394 . S
C3049 C3050 1.516 . S
C3050 C3049 1.516 . S
C3050 C3051 1.502 . S
C3050 C3052 1.561 . S
C3050 C3053 1.526 . S
C3051 H3035 0.959 . S
C3051 H3036 0.959 . S
C3051 H3037 0.961 . S
C3051 C3050 1.502 . S
C3052 H3038 0.960 . S
C3052 H3039 0.970 . S
C3052 H3040 0.959 . S
C3052 C3050 1.561 . S
C3053 C3050 1.526 . S
C3053 C3054 1.396 . S
C3053 C3058 1.390 . S
C3054 C3048 1.465 . S
C3054 C3053 1.396 . S
C3054 C3055 1.399 . S
C3055 H3041 0.929 . S
C3055 C3054 1.399 . S
C3055 C3056 1.385 . S
C3056 H3042 0.931 . S
C3056 C3055 1.385 . S
C3056 C3057 1.389 . S
C3057 C3056 1.389 . S
C3057 C3058 1.387 . S
C3058 H3043 0.930 . S
C3058 C3053 1.390 . S
C3058 C3057 1.387 . S
H3059 C3071 0.930 . S
H3060 C3073 0.930 . S
H3061 C3074 0.930 . S
H3062 C3078 0.959 . S
H3063 C3078 0.959 . S
H3064 C3078 0.961 . S
H3065 C3079 0.960 . S
H3066 C3079 0.961 . S
H3067 C3079 0.959 . S
H3068 C3082 0.929 . S
H3069 C3083 0.931 . S
H3070 C3085 0.930 . S
C3071 H3059 0.930 . S
C3071 C3072 1.399 . S
C3071 C3076 1.399 . S
C3072 C3071 1.399 . S
C3072 C3073 1.376 . S
C3073 H3060 0.930 . S
C3073 C3072 1.376 . S
C3073 C3074 1.388 . S
C3074 H3061 0.930 . S
C3074 C3073 1.388 . S
C3074 C3075 1.390 . S
C3075 C3074 1.390 . S
C3075 C3076 1.394 . S
C3075 C3081 1.465 . S
C3076 C3071 1.399 . S
C3076 C3075 1.394 . S
C3076 C3077 1.516 . S
C3077 C3076 1.516 . S
C3077 C3078 1.502 . S
C3077 C3079 1.561 . S
C3077 C3080 1.526 . S
C3078 H3062 0.959 . S
C3078 H3063 0.959 . S
C3078 H3064 0.961 . S
C3078 C3077 1.502 . S
C3079 H3065 0.960 . S
C3079 H3066 0.961 . S
C3079 H3067 0.959 . S
C3079 C3077 1.561 . S
C3080 C3077 1.526 . S
C3080 C3081 1.396 . S
C3080 C3085 1.390 . S
C3081 C3075 1.465 . S
C3081 C3080 1.396 . S
C3081 C3082 1.399 . S
C3082 H3068 0.929 . S
C3082 C3081 1.399 . S
C3082 C3083 1.385 . S
C3083 H3069 0.931 . S
C3083 C3082 1.385 . S
C3083 C3084 1.389 . S
C3084 C3083 1.389 . S
C3084 C3085 1.387 . S
C3085 H3070 0.930 . S
C3085 C3080 1.390 . S
C3085 C3084 1.387 . S
H3086 C3098 0.930 . S
H3087 C3100 0.930 . S
H3088 C3101 0.930 . S
H3089 C3105 0.959 . S
H3090 C3105 0.959 . S
H3091 C3105 0.961 . S
H3092 C3106 0.960 . S
H3093 C3106 0.961 . S
H3094 C3106 0.959 . S
H3095 C3109 0.929 . S
H3096 C3110 0.931 . S
H3097 C3112 0.930 . S
C3098 H3086 0.930 . S
C3098 C3099 1.399 . S
C3098 C3103 1.399 . S
C3099 C3098 1.399 . S
C3099 C3100 1.376 . S
C3100 H3087 0.930 . S
C3100 C3099 1.376 . S
C3100 C3101 1.388 . S
C3101 H3088 0.930 . S
C3101 C3100 1.388 . S
C3101 C3102 1.390 . S
C3102 C3101 1.390 . S
C3102 C3103 1.394 . S
C3102 C3108 1.465 . S
C3103 C3098 1.399 . S
C3103 C3102 1.394 . S
C3103 C3104 1.516 . S
C3104 C3103 1.516 . S
C3104 C3105 1.502 . S
C3104 C3106 1.561 . S
C3104 C3107 1.526 . S
C3105 H3089 0.959 . S
C3105 H3090 0.959 . S
C3105 H3091 0.961 . S
C3105 C3104 1.502 . S
C3106 H3092 0.960 . S
C3106 H3093 0.961 . S
C3106 H3094 0.959 . S
C3106 C3104 1.561 . S
C3107 C3104 1.526 . S
C3107 C3108 1.396 . S
C3107 C3112 1.390 . S
C3108 C3102 1.465 . S
C3108 C3107 1.396 . S
C3108 C3109 1.399 . S
C3109 H3095 0.929 . S
C3109 C3108 1.399 . S
C3109 C3110 1.385 . S
C3110 H3096 0.931 . S
C3110 C3109 1.385 . S
C3110 C3111 1.389 . S
C3111 C3110 1.389 . S
C3111 C3112 1.387 . S
C3112 H3097 0.930 . S
C3112 C3107 1.390 . S
C3112 C3111 1.387 . S
H3113 C3125 0.930 . S
H3114 C3127 0.930 . S
H3115 C3128 0.930 . S
H3116 C3132 0.959 . S
H3117 C3132 0.959 . S
H3118 C3132 0.961 . S
H3119 C3133 0.960 . S
H3120 C3133 0.961 . S
H3121 C3133 0.959 . S
H3122 C3136 0.929 . S
H3123 C3137 0.931 . S
H3124 C3139 0.930 . S
C3125 H3113 0.930 . S
C3125 C3126 1.399 . S
C3125 C3130 1.399 . S
C3126 C3125 1.399 . S
C3126 C3127 1.376 . S
C3127 H3114 0.930 . S
C3127 C3126 1.376 . S
C3127 C3128 1.388 . S
C3128 H3115 0.930 . S
C3128 C3127 1.388 . S
C3128 C3129 1.390 . S
C3129 C3128 1.390 . S
C3129 C3130 1.394 . S
C3129 C3135 1.465 . S
C3130 C3125 1.399 . S
C3130 C3129 1.394 . S
C3130 C3131 1.516 . S
C3131 C3130 1.516 . S
C3131 C3132 1.502 . S
C3131 C3133 1.561 . S
C3131 C3134 1.526 . S
C3132 H3116 0.959 . S
C3132 H3117 0.959 . S
C3132 H3118 0.961 . S
C3132 C3131 1.502 . S
C3133 H3119 0.960 . S
C3133 H3120 0.961 . S
C3133 H3121 0.959 . S
C3133 C3131 1.561 . S
C3134 C3131 1.526 . S
C3134 C3135 1.396 . S
C3134 C3139 1.390 . S
C3135 C3129 1.465 . S
C3135 C3134 1.396 . S
C3135 C3136 1.399 . S
C3136 H3122 0.929 . S
C3136 C3135 1.399 . S
C3136 C3137 1.385 . S
C3137 H3123 0.931 . S
C3137 C3136 1.385 . S
C3137 C3138 1.389 . S
C3138 C3137 1.389 . S
C3138 C3139 1.387 . S
C3139 H3124 0.930 . S
C3139 C3134 1.390 . S
C3139 C3138 1.387 . S
H3140 C3152 0.930 . S
H3141 C3154 0.930 . S
H3142 C3155 0.930 . S
H3143 C3159 0.959 . S
H3144 C3159 0.959 . S
H3145 C3159 0.961 . S
H3146 C3160 0.960 . S
H3147 C3160 0.961 . S
H3148 C3160 0.959 . S
H3149 C3163 0.929 . S
H3150 C3164 0.931 . S
H3151 C3166 0.930 . S
C3152 H3140 0.930 . S
C3152 C3153 1.399 . S
C3152 C3157 1.399 . S
C3153 C3152 1.399 . S
C3153 C3154 1.376 . S
C3154 H3141 0.930 . S
C3154 C3153 1.376 . S
C3154 C3155 1.388 . S
C3155 H3142 0.930 . S
C3155 C3154 1.388 . S
C3155 C3156 1.390 . S
C3156 C3155 1.390 . S
C3156 C3157 1.394 . S
C3156 C3162 1.465 . S
C3157 C3152 1.399 . S
C3157 C3156 1.394 . S
C3157 C3158 1.516 . S
C3158 C3157 1.516 . S
C3158 C3159 1.502 . S
C3158 C3160 1.561 . S
C3158 C3161 1.526 . S
C3159 H3143 0.959 . S
C3159 H3144 0.959 . S
C3159 H3145 0.961 . S
C3159 C3158 1.502 . S
C3160 H3146 0.960 . S
C3160 H3147 0.961 . S
C3160 H3148 0.959 . S
C3160 C3158 1.561 . S
C3161 C3158 1.526 . S
C3161 C3162 1.396 . S
C3161 C3166 1.390 . S
C3162 C3156 1.465 . S
C3162 C3161 1.396 . S
C3162 C3163 1.399 . S
C3163 H3149 0.929 . S
C3163 C3162 1.399 . S
C3163 C3164 1.385 . S
C3164 H3150 0.931 . S
C3164 C3163 1.385 . S
C3164 C3165 1.389 . S
C3165 C3164 1.389 . S
C3165 C3166 1.387 . S
C3166 H3151 0.930 . S
C3166 C3161 1.390 . S
C3166 C3165 1.387 . S
H3167 C3179 0.930 . S
H3168 C3181 0.930 . S
H3169 C3182 0.930 . S
H3170 C3186 0.962 . S
H3171 C3186 0.978 . S
H3172 C3186 0.940 1_455 S
H3173 C3187 0.958 1_455 S
H3174 C3187 0.963 . S
H3175 C3187 0.959 . S
H3176 C3190 0.929 . S
H3177 C3191 0.931 . S
H3178 C3193 0.930 . S
C3179 H3167 0.930 . S
C3179 C3180 1.399 . S
C3179 C3184 1.399 . S
C3180 C3179 1.399 . S
C3180 C3181 1.376 . S
C3181 H3168 0.930 . S
C3181 C3180 1.376 . S
C3181 C3182 1.388 . S
C3182 H3169 0.930 . S
C3182 C3181 1.388 . S
C3182 C3183 1.390 . S
C3183 C3182 1.390 . S
C3183 C3184 1.394 . S
C3183 C3189 1.465 1_455 S
C3184 C3179 1.399 . S
C3184 C3183 1.394 . S
C3184 C3185 1.518 1_455 S
C3185 C3184 1.518 1_655 S
C3185 C3186 1.502 . S
C3185 C3187 1.561 . S
C3185 C3188 1.524 . S
C3186 H3170 0.962 . S
C3186 H3171 0.978 . S
C3186 H3172 0.940 1_655 S
C3186 C3185 1.502 . S
C3187 H3173 0.958 1_655 S
C3187 H3174 0.963 . S
C3187 H3175 0.959 . S
C3187 C3185 1.561 . S
C3188 C3185 1.524 . S
C3188 C3189 1.396 . S
C3188 C3193 1.390 . S
C3189 C3183 1.465 1_655 S
C3189 C3188 1.396 . S
C3189 C3190 1.399 . S
C3190 H3176 0.929 . S
C3190 C3189 1.399 . S
C3190 C3191 1.385 . S
C3191 H3177 0.931 . S
C3191 C3190 1.385 . S
C3191 C3192 1.389 . S
C3192 C3191 1.389 . S
C3192 C3193 1.387 . S
C3193 H3178 0.930 . S
C3193 C3188 1.390 . S
C3193 C3192 1.387 . S
H3194 C3206 0.930 . S
H3195 C3208 0.930 . S
H3196 C3209 0.930 . S
H3197 C3213 0.962 . S
H3198 C3213 0.978 . S
H3199 C3213 0.940 1_455 S
H3200 C3214 0.958 1_455 S
H3201 C3214 0.963 . S
H3202 C3214 0.959 . S
H3203 C3217 0.929 . S
H3204 C3218 0.931 . S
H3205 C3220 0.930 . S
C3206 H3194 0.930 . S
C3206 C3207 1.399 . S
C3206 C3211 1.399 . S
C3207 C3206 1.399 . S
C3207 C3208 1.376 . S
C3208 H3195 0.930 . S
C3208 C3207 1.376 . S
C3208 C3209 1.388 . S
C3209 H3196 0.930 . S
C3209 C3208 1.388 . S
C3209 C3210 1.390 . S
C3210 C3209 1.390 . S
C3210 C3211 1.394 . S
C3210 C3216 1.465 1_455 S
C3211 C3206 1.399 . S
C3211 C3210 1.394 . S
C3211 C3212 1.518 1_455 S
C3212 C3211 1.518 1_655 S
C3212 C3213 1.502 . S
C3212 C3214 1.561 . S
C3212 C3215 1.524 . S
C3213 H3197 0.962 . S
C3213 H3198 0.978 . S
C3213 H3199 0.940 1_655 S
C3213 C3212 1.502 . S
C3214 H3200 0.958 1_655 S
C3214 H3201 0.963 . S
C3214 H3202 0.959 . S
C3214 C3212 1.561 . S
C3215 C3212 1.524 . S
C3215 C3216 1.396 . S
C3215 C3220 1.390 . S
C3216 C3210 1.465 1_655 S
C3216 C3215 1.396 . S
C3216 C3217 1.399 . S
C3217 H3203 0.929 . S
C3217 C3216 1.399 . S
C3217 C3218 1.385 . S
C3218 H3204 0.931 . S
C3218 C3217 1.385 . S
C3218 C3219 1.389 . S
C3219 C3218 1.389 . S
C3219 C3220 1.387 . S
C3220 H3205 0.930 . S
C3220 C3215 1.390 . S
C3220 C3219 1.387 . S
H3221 C3233 0.930 . S
H3222 C3235 0.930 . S
H3223 C3236 0.930 . S
H3224 C3240 0.959 . S
H3225 C3240 0.959 . S
H3226 C3240 0.961 . S
H3227 C3241 0.960 . S
H3228 C3241 0.961 . S
H3229 C3241 0.959 . S
H3230 C3244 0.929 . S
H3231 C3245 0.931 . S
H3232 C3247 0.930 . S
C3233 H3221 0.930 . S
C3233 C3234 1.399 . S
C3233 C3238 1.399 . S
C3234 C3233 1.399 . S
C3234 C3235 1.376 . S
C3235 H3222 0.930 . S
C3235 C3234 1.376 . S
C3235 C3236 1.388 . S
C3236 H3223 0.930 . S
C3236 C3235 1.388 . S
C3236 C3237 1.390 . S
C3237 C3236 1.390 . S
C3237 C3238 1.394 . S
C3237 C3243 1.465 . S
C3238 C3233 1.399 . S
C3238 C3237 1.394 . S
C3238 C3239 1.516 . S
C3239 C3238 1.516 . S
C3239 C3240 1.502 . S
C3239 C3241 1.561 . S
C3239 C3242 1.526 . S
C3240 H3224 0.959 . S
C3240 H3225 0.959 . S
C3240 H3226 0.961 . S
C3240 C3239 1.502 . S
C3241 H3227 0.960 . S
C3241 H3228 0.961 . S
C3241 H3229 0.959 . S
C3241 C3239 1.561 . S
C3242 C3239 1.526 . S
C3242 C3243 1.396 . S
C3242 C3247 1.390 . S
C3243 C3237 1.465 . S
C3243 C3242 1.396 . S
C3243 C3244 1.399 . S
C3244 H3230 0.929 . S
C3244 C3243 1.399 . S
C3244 C3245 1.385 . S
C3245 H3231 0.931 . S
C3245 C3244 1.385 . S
C3245 C3246 1.389 . S
C3246 C3245 1.389 . S
C3246 C3247 1.387 . S
C3247 H3232 0.930 . S
C3247 C3242 1.390 . S
C3247 C3246 1.387 . S
C1101 C43 1.755 . S
C1113 C33 1.680 . S
C1128 C67 1.652 . S
C1140 C77 1.742 . S
C1155 C101 1.641 . S
C1167 C111 1.711 1_565 S
C1182 C135 1.650 . S
C1194 C9 1.741 . S
C1209 C169 1.655 . S
C1221 C247 1.739 1_565 S
C1236 C145 1.740 . S
C1248 C203 1.651 . S
C1263 C237 1.660 . S
C1275 C179 1.772 . S
C1290 C271 1.694 . S
C1302 C213 1.762 . S
C1317 C315 1.758 1_565 S
C1329 C305 1.715 . S
C1344 C349 1.756 . S
C1356 C339 1.659 . S
C1371 C373 1.694 . S
C1383 C383 1.797 . S
C1398 C281 1.736 . S
C1410 C407 1.645 . S
C1425 C441 1.684 . S
C1437 C519 1.742 1_545 S
C1452 C475 1.653 . S
C1464 C417 1.735 . S
C1479 C451 1.791 . S
C1491 C509 1.700 . S
C1506 C485 1.770 . S
C1518 C543 1.694 . S
C1533 C587 1.771 . S
C1545 C577 1.719 . S
C1560 C611 1.682 . S
C1572 C621 1.751 . S
C1587 C655 1.770 . S
C1599 C645 1.719 . S
C1614 C553 1.772 . S
C1626 C679 1.719 . S
C1641 C791 1.748 . S
C1653 C713 1.665 . S
C1668 C747 1.663 . S
C1680 C689 1.748 . S
C1695 C723 1.772 . S
C1707 C781 1.718 . S
C1722 C815 1.709 . S
C1734 C757 1.765 . S
C1749 C859 1.770 . S
C1761 C849 1.694 . S
C1776 C883 1.720 . S
C1788 C893 1.770 . S
C1803 C917 1.713 . S
C1815 C927 1.756 . S
C1830 C951 1.646 . S
C1842 C825 1.736 . S
C1857 C1063 1.772 . S
C1869 C985 1.708 . S
C1884 C961 1.760 . S
C1896 C1019 1.717 . S
C1911 C995 1.771 . S
C1923 C1053 1.717 . S
C1938 C1029 1.765 . S
C1950 C1087 1.720 . S
C1965 C209 0.913 . S
C1977 C5 0.940 . S
C1992 C39 0.951 . S
C2004 C243 0.888 . S
C2019 C73 0.904 . S
C2031 C141 0.945 . S
C2046 C107 0.951 . S
C2058 C175 0.886 . S
C2073 C481 0.919 . S
C2085 C277 0.949 . S
C2100 C515 0.902 . S
C2112 C311 0.950 . S
C2127 C345 0.907 . S
C2139 C413 0.866 . S
C2154 C447 0.886 . S
C2166 C379 0.945 . S
C2181 C549 0.897 . S
C2193 C753 0.948 . S
C2208 C583 0.866 . S
C2220 C787 0.926 . S
C2235 C685 0.897 . S
C2247 C617 0.948 . S
C2262 C719 0.865 . S
C2274 C651 0.935 . S
C2289 C1025 0.869 . S
C2301 C821 0.893 . S
C2316 C1059 0.914 . S
C2328 C855 0.950 . S
C2343 C957 0.865 . S
C2355 C889 0.906 . S
C2370 C991 0.901 . S
C2382 C923 0.867 . S
C2397 C172 0.786 . S
C2409 C2 0.782 . S
C2424 C36 0.825 . S
C2436 C206 0.730 . S
C2451 C70 0.740 . S
C2463 C240 0.819 . S
C2478 C104 0.799 . S
C2490 C138 0.769 . S
C2505 C444 0.795 . S
C2517 C274 0.745 . S
C2532 C308 0.789 . S
C2544 C478 0.750 . S
C2559 C512 0.732 . S
C2571 C342 0.809 . S
C2586 C376 0.813 . S
C2598 C410 0.752 . S
C2613 C546 0.818 . S
C2625 C716 0.728 . S
C2640 C750 0.821 . S
C2652 C580 0.727 . S
C2667 C784 0.801 . S
C2679 C614 0.741 . S
C2694 C648 0.731 . S
C2706 C682 0.811 . S
C2721 C818 0.726 . S
C2733 C988 0.822 . S
C2748 C1022 0.822 . S
C2760 C852 0.727 . S
C2775 C1056 0.749 . S
C2787 C886 0.789 . S
C2802 C954 0.824 . S
C2814 C920 0.730 . S
C2829 C20 1.517 . S
C2841 C1040 1.512 . S
C2856 C530 1.556 . S
C2868 C54 1.558 . S
C2883 C972 1.557 . S
C2895 C88 1.556 . S
C2910 C122 1.537 . S
C2922 C462 1.529 . S
C2937 C156 1.533 . S
C2949 C904 1.526 . S
C2964 C394 1.555 . S
C2976 C190 1.557 . S
C2991 C224 1.535 . S
C3003 C836 1.527 . S
C3018 C258 1.557 . S
C3030 C326 1.553 . S
C3045 C292 1.507 . S
C3057 C768 1.508 . S
C3072 C360 1.507 . S
C3084 C700 1.510 . S
C3099 C428 1.557 . S
C3111 C632 1.556 . S
C3126 C496 1.507 . S
C3138 C564 1.509 . S
C3153 C598 1.531 . S
C3165 C1074 1.524 . S
C3180 C1006 1.515 . S
C3192 C666 1.521 . S
C3207 C938 1.555 . S
C3219 C734 1.550 . S
C3234 C870 1.558 . S
C3246 C802 1.557 . S
