# Generated by pormake.
# Topology xff, (7)-cn, num edge types: 1
# Building blocks:
#     Node 0, Type 0, BuildingBlock: NUHQUE_clean_sbu_2, # of connection points: 7
#     Node 1, Type 0, BuildingBlock: NUHQUE_clean_sbu_2, # of connection points: 7
#     Node 2, Type 0, BuildingBlock: NUHQUE_clean_sbu_2, # of connection points: 7
#     Node 3, Type 0, BuildingBlock: NUHQUE_clean_sbu_2, # of connection points: 7
#     Node 4, Type 0, BuildingBlock: NUHQUE_clean_sbu_2, # of connection points: 7
#     Node 5, Type 0, BuildingBlock: NUHQUE_clean_sbu_2, # of connection points: 7
#     Node 6, Type 0, BuildingBlock: NUHQUE_clean_sbu_2, # of connection points: 7
#     Node 7, Type 0, BuildingBlock: NUHQUE_clean_sbu_2, # of connection points: 7
#     Node 8, Type 0, BuildingBlock: NUHQUE_clean_sbu_2, # of connection points: 7
#     Node 9, Type 0, BuildingBlock: NUHQUE_clean_sbu_2, # of connection points: 7
#     Node 10, Type 0, BuildingBlock: NUHQUE_clean_sbu_2, # of connection points: 7
#     Node 11, Type 0, BuildingBlock: NUHQUE_clean_sbu_2, # of connection points: 7
#     Node 12, Type 0, BuildingBlock: NUHQUE_clean_sbu_2, # of connection points: 7
#     Node 13, Type 0, BuildingBlock: NUHQUE_clean_sbu_2, # of connection points: 7
#     Node 14, Type 0, BuildingBlock: NUHQUE_clean_sbu_2, # of connection points: 7
#     Node 15, Type 0, BuildingBlock: NUHQUE_clean_sbu_2, # of connection points: 7
#     Edge 16, Type (0, 0), BuildingBlock: CIFDUS_clean_linker_0, # of connection points: 2
#     Edge 17, Type (0, 0), BuildingBlock: CIFDUS_clean_linker_0, # of connection points: 2
#     Edge 18, Type (0, 0), BuildingBlock: CIFDUS_clean_linker_0, # of connection points: 2
#     Edge 19, Type (0, 0), BuildingBlock: CIFDUS_clean_linker_0, # of connection points: 2
#     Edge 20, Type (0, 0), BuildingBlock: CIFDUS_clean_linker_0, # of connection points: 2
#     Edge 21, Type (0, 0), BuildingBlock: CIFDUS_clean_linker_0, # of connection points: 2
#     Edge 22, Type (0, 0), BuildingBlock: CIFDUS_clean_linker_0, # of connection points: 2
#     Edge 23, Type (0, 0), BuildingBlock: CIFDUS_clean_linker_0, # of connection points: 2
#     Edge 24, Type (0, 0), BuildingBlock: CIFDUS_clean_linker_0, # of connection points: 2
#     Edge 25, Type (0, 0), BuildingBlock: CIFDUS_clean_linker_0, # of connection points: 2
#     Edge 26, Type (0, 0), BuildingBlock: CIFDUS_clean_linker_0, # of connection points: 2
#     Edge 27, Type (0, 0), BuildingBlock: CIFDUS_clean_linker_0, # of connection points: 2
#     Edge 28, Type (0, 0), BuildingBlock: CIFDUS_clean_linker_0, # of connection points: 2
#     Edge 29, Type (0, 0), BuildingBlock: CIFDUS_clean_linker_0, # of connection points: 2
#     Edge 30, Type (0, 0), BuildingBlock: CIFDUS_clean_linker_0, # of connection points: 2
#     Edge 31, Type (0, 0), BuildingBlock: CIFDUS_clean_linker_0, # of connection points: 2
#     Edge 32, Type (0, 0), BuildingBlock: CIFDUS_clean_linker_0, # of connection points: 2
#     Edge 33, Type (0, 0), BuildingBlock: CIFDUS_clean_linker_0, # of connection points: 2
#     Edge 34, Type (0, 0), BuildingBlock: CIFDUS_clean_linker_0, # of connection points: 2
#     Edge 35, Type (0, 0), BuildingBlock: CIFDUS_clean_linker_0, # of connection points: 2
#     Edge 36, Type (0, 0), BuildingBlock: CIFDUS_clean_linker_0, # of connection points: 2
#     Edge 37, Type (0, 0), BuildingBlock: CIFDUS_clean_linker_0, # of connection points: 2
#     Edge 38, Type (0, 0), BuildingBlock: CIFDUS_clean_linker_0, # of connection points: 2
#     Edge 39, Type (0, 0), BuildingBlock: CIFDUS_clean_linker_0, # of connection points: 2
#     Edge 40, Type (0, 0), BuildingBlock: CIFDUS_clean_linker_0, # of connection points: 2
#     Edge 41, Type (0, 0), BuildingBlock: CIFDUS_clean_linker_0, # of connection points: 2
#     Edge 42, Type (0, 0), BuildingBlock: CIFDUS_clean_linker_0, # of connection points: 2
#     Edge 43, Type (0, 0), BuildingBlock: CIFDUS_clean_linker_0, # of connection points: 2
#     Edge 44, Type (0, 0), BuildingBlock: CIFDUS_clean_linker_0, # of connection points: 2
#     Edge 45, Type (0, 0), BuildingBlock: CIFDUS_clean_linker_0, # of connection points: 2
#     Edge 46, Type (0, 0), BuildingBlock: CIFDUS_clean_linker_0, # of connection points: 2
#     Edge 47, Type (0, 0), BuildingBlock: CIFDUS_clean_linker_0, # of connection points: 2
#     Edge 48, Type (0, 0), BuildingBlock: CIFDUS_clean_linker_0, # of connection points: 2
#     Edge 49, Type (0, 0), BuildingBlock: CIFDUS_clean_linker_0, # of connection points: 2
#     Edge 50, Type (0, 0), BuildingBlock: CIFDUS_clean_linker_0, # of connection points: 2
#     Edge 51, Type (0, 0), BuildingBlock: CIFDUS_clean_linker_0, # of connection points: 2
#     Edge 52, Type (0, 0), BuildingBlock: CIFDUS_clean_linker_0, # of connection points: 2
#     Edge 53, Type (0, 0), BuildingBlock: CIFDUS_clean_linker_0, # of connection points: 2
#     Edge 54, Type (0, 0), BuildingBlock: CIFDUS_clean_linker_0, # of connection points: 2
#     Edge 55, Type (0, 0), BuildingBlock: CIFDUS_clean_linker_0, # of connection points: 2
#     Edge 56, Type (0, 0), BuildingBlock: CIFDUS_clean_linker_0, # of connection points: 2
#     Edge 57, Type (0, 0), BuildingBlock: CIFDUS_clean_linker_0, # of connection points: 2
#     Edge 58, Type (0, 0), BuildingBlock: CIFDUS_clean_linker_0, # of connection points: 2
#     Edge 59, Type (0, 0), BuildingBlock: CIFDUS_clean_linker_0, # of connection points: 2
#     Edge 60, Type (0, 0), BuildingBlock: CIFDUS_clean_linker_0, # of connection points: 2
#     Edge 61, Type (0, 0), BuildingBlock: CIFDUS_clean_linker_0, # of connection points: 2
#     Edge 62, Type (0, 0), BuildingBlock: CIFDUS_clean_linker_0, # of connection points: 2
#     Edge 63, Type (0, 0), BuildingBlock: CIFDUS_clean_linker_0, # of connection points: 2
#     Edge 64, Type (0, 0), BuildingBlock: CIFDUS_clean_linker_0, # of connection points: 2
#     Edge 65, Type (0, 0), BuildingBlock: CIFDUS_clean_linker_0, # of connection points: 2
#     Edge 66, Type (0, 0), BuildingBlock: CIFDUS_clean_linker_0, # of connection points: 2
#     Edge 67, Type (0, 0), BuildingBlock: CIFDUS_clean_linker_0, # of connection points: 2
#     Edge 68, Type (0, 0), BuildingBlock: CIFDUS_clean_linker_0, # of connection points: 2
#     Edge 69, Type (0, 0), BuildingBlock: CIFDUS_clean_linker_0, # of connection points: 2
#     Edge 70, Type (0, 0), BuildingBlock: CIFDUS_clean_linker_0, # of connection points: 2
#     Edge 71, Type (0, 0), BuildingBlock: CIFDUS_clean_linker_0, # of connection points: 2
# Relax obj value: 0.138
# Max RMSD: 0.237
# Mean RMSD: 0.237
data_MOF--net-xff--node1-NUHQUE_clean_sbu_2--edge1-CIFDUS_clean_linker_0
_symmetry_space_group_name_H-M    P1
_symmetry_Int_Tables_number       1
_symmetry_cell_setting            triclinic
loop_
_symmetry_equiv_pos_as_xyz
'x, y, z'
_cell_length_a     31.26516
_cell_length_b     31.337341
_cell_length_c     61.29534
_cell_angle_alpha  89.53586
_cell_angle_beta   89.938534
_cell_angle_gamma 89.953392
loop_
_atom_site_label
_atom_site_type_symbol
_atom_site_fract_x
_atom_site_fract_y
_atom_site_fract_z
_atom_type_partial_charge
O0 O 0.28682 0.25192 0.08747 0.0
Tb1 Tb 0.3026 0.24015 0.12153 0.0
Eu2 Eu 0.32965 0.13935 0.10099 0.0
C3 C 0.31579 0.27083 0.07512 0.0
O4 O 0.35546 0.27159 0.08211 0.0
C5 C 0.39977 0.21335 0.11544 0.0
O6 O 0.33862 0.10269 0.13293 0.0
C7 C 0.33857 0.09567 0.06556 0.0
C8 C 0.34606 0.12541 0.1505 0.0
O9 O 0.34993 0.16673 0.14821 0.0
C10 C 0.24533 0.16011 0.12471 0.0
C11 C 0.3161 0.06919 0.04929 0.0
C12 C 0.30212 0.08726 0.02934 0.0
C13 C 0.28561 0.06115 1.01286 0.0
C14 C 0.28285 0.01714 1.01635 0.0
C15 C 0.29829 0.9986 0.03565 0.0
C16 C 0.31446 0.02465 0.05214 0.0
O17 O 0.3719 0.23595 0.12683 0.0
O18 O 0.38831 0.18156 0.10273 0.0
O19 O 0.30514 0.30806 0.12997 0.0
O20 O 0.25424 0.27073 0.14213 0.0
C21 C 0.27027 0.30879 0.14147 0.0
O22 O 0.25885 0.15074 0.10514 0.0
O23 O 0.26817 0.18647 0.1365 0.0
O24 O 0.34496 0.07941 0.08519 0.0
O25 O 0.32998 0.13681 0.06563 0.0
H26 H 0.30585 0.12114 1.02619 0.0
H27 H 0.27228 0.99687 1.00313 0.0
H28 H 0.32767 1.00986 0.0667 0.0
O29 O 0.51587 0.53702 0.32461 0.0
Tb30 Tb 0.53707 0.54124 0.35814 0.0
Eu31 Eu 0.6404 0.5904 0.35927 0.0
C32 C 0.49959 0.57034 0.31451 0.0
O33 O 0.50185 0.60783 0.32383 0.0
C34 C 0.55175 0.64297 0.36388 0.0
O35 O 0.67545 0.61751 0.38811 0.0
C36 C 0.67698 0.58545 0.32141 0.0
C37 C 0.70788 0.5972 0.39707 0.0
O38 O 0.72612 0.56575 0.3865 0.0
C39 C 0.62153 0.49347 0.36752 0.0
C40 C 0.70051 0.55934 0.30526 0.0
C41 C 0.67862 0.54567 0.28637 0.0
C42 C 0.70062 0.52475 0.26963 0.0
C43 C 0.74399 0.51596 0.27221 0.0
C44 C 0.76749 0.53513 0.28894 0.0
C45 C 0.74549 0.55516 0.30608 0.0
O46 O 0.52956 0.60797 0.36793 0.0
O47 O 0.59225 0.64297 0.35824 0.0
O48 O 0.47289 0.51621 0.36386 0.0
O49 O 0.52091 0.50553 0.38789 0.0
C50 C 0.4811 0.49895 0.38275 0.0
O51 O 0.63724 0.5276 0.37648 0.0
O52 O 0.58925 0.49592 0.35397 0.0
O53 O 0.69703 0.59962 0.33887 0.0
O54 O 0.63659 0.57542 0.32495 0.0
H55 H 0.64525 0.55388 0.28399 0.0
H56 H 0.76085 0.50049 0.25893 0.0
H57 H 0.76349 0.57045 0.31893 0.0
O58 O 0.2355 0.76775 0.57785 0.0
Tb59 Tb 0.233 0.78986 0.6113 0.0
Eu60 Eu 0.19135 0.89842 0.60843 0.0
C61 C 0.20053 0.76024 0.56664 0.0
O62 O 0.16381 0.77417 0.5741 0.0
C63 C 0.132 0.8154 0.61331 0.0
O64 O 0.17403 0.93813 0.63768 0.0
C65 C 0.21252 0.93941 0.57341 0.0
C66 C 0.16507 0.9155 0.65526 0.0
O67 O 0.16004 0.87416 0.653 0.0
C68 C 0.28178 0.87076 0.62402 0.0
C69 C 0.22438 0.96378 0.55339 0.0
C70 C 0.24443 0.94367 0.53546 0.0
C71 C 0.25402 0.96716 0.51631 0.0
C72 C 0.24528 1.01101 0.51578 0.0
C73 C 0.22544 0.03128 0.5333 0.0
C74 C 0.21445 1.00758 0.55195 0.0
O75 O 0.16428 0.79139 0.6204 0.0
O76 O 0.13708 0.85306 0.60406 0.0
O77 O 0.25623 0.7242 0.61543 0.0
O78 O 0.2633 0.76705 0.64166 0.0
C79 C 0.27086 0.72832 0.63514 0.0
O80 O 0.2456 0.88561 0.63111 0.0
O81 O 0.28207 0.8399 0.60969 0.0
O82 O 0.18492 0.95464 0.58771 0.0
O83 O 0.22902 0.9017 0.57829 0.0
H84 H 0.25135 0.9098 0.53614 0.0
H85 H 0.25327 0.02965 0.50135 0.0
H86 H 0.19848 0.02345 0.56533 0.0
O87 O 1.00319 0.49665 0.83023 0.0
Tb88 Tb 0.9874 0.48256 0.86422 0.0
Eu89 Eu 0.88386 0.43461 0.85085 0.0
C90 C 1.01397 0.46721 0.816 0.0
O91 O 1.00129 0.42777 0.8191 0.0
C92 C 0.97376 0.38082 0.85964 0.0
O93 O 0.86128 0.42218 0.88563 0.0
C94 C 0.83144 0.41713 0.81946 0.0
C95 C 0.82709 0.44055 0.894 0.0
O96 O 0.80361 0.46552 0.88154 0.0
C97 C 0.90053 0.5252 0.86713 0.0
C98 C 0.80724 0.44028 0.80225 0.0
C99 C 0.82849 0.46345 0.78558 0.0
C100 C 0.8052 0.48275 0.76854 0.0
C101 C 0.76051 0.47932 0.76851 0.0
C102 C 0.73894 0.45613 0.78471 0.0
C103 C 0.76242 0.43652 0.80154 0.0
O104 O 0.99621 0.41391 0.86621 0.0
O105 O 0.93405 0.38274 0.85239 0.0
O106 O 0.02873 0.53663 0.87193 0.0
O107 O 0.03979 0.47716 0.8877 0.0
C108 C 0.05262 0.51641 0.88587 0.0
O109 O 0.89194 0.5055 0.84898 0.0
O110 O 0.93153 0.51072 0.87943 0.0
O111 O 0.81867 0.42172 0.8398 0.0
O112 O 0.87331 0.41632 0.81735 0.0
H113 H 0.86305 0.46598 0.78559 0.0
H114 H 0.74241 0.49236 0.75492 0.0
H115 H 0.74588 0.41754 0.81377 0.0
O116 O 0.72996 0.77547 0.97005 0.0
Tb117 Tb 0.73134 0.7869 0.93507 0.0
Eu118 Eu 0.69223 0.88497 0.95415 0.0
C119 C 0.7031 0.74654 0.97756 0.0
O120 O 0.67275 0.73297 0.96456 0.0
C121 C 0.63346 0.80369 0.93841 0.0
O122 O 0.67449 0.91217 0.92113 0.0
C123 C 0.67924 0.93444 0.98731 0.0
C124 C 0.69414 0.94592 0.91309 0.0
O125 O 0.72256 0.96568 0.92513 0.0
C126 C 0.77927 0.86997 0.93131 0.0
C127 C 0.70423 0.95865 1.00375 0.0
C128 C 0.72393 0.93686 1.02135 0.0
C129 C 0.74424 0.95957 0.03794 0.0
C130 C 0.74628 1.00395 0.03674 0.0
C131 C 0.72784 0.02641 1.01932 0.0
C132 C 0.70606 1.00376 1.00297 0.0
O133 O 0.66438 0.78719 0.92652 0.0
O134 O 0.64016 0.83417 0.95284 0.0
O135 O 0.791 0.75108 0.93438 0.0
O136 O 0.73937 0.73008 0.91469 0.0
C137 C 0.77881 0.72257 0.92048 0.0
O138 O 0.76379 0.88103 0.95029 0.0
O139 O 0.7587 0.84225 0.91955 0.0
O140 O 0.67895 0.94867 0.96705 0.0
O141 O 0.6811 0.89252 0.98871 0.0
H142 H 0.72244 0.90239 1.02264 0.0
H143 H 0.76181 0.02124 0.04981 0.0
H144 H 0.69055 0.02114 0.98982 0.0
O145 O 0.49514 0.48231 0.71879 0.0
Tb146 Tb 0.48291 0.47367 0.68421 0.0
Eu147 Eu 0.3765 0.4402 0.7022 0.0
C148 C 0.51471 0.45064 0.72886 0.0
O149 O 0.51535 0.41355 0.71917 0.0
C150 C 0.4557 0.37591 0.68614 0.0
O151 O 0.34057 0.43181 0.67026 0.0
C152 C 0.33086 0.43024 0.73743 0.0
C153 C 0.36365 0.42687 0.65249 0.0
O154 O 0.4052 0.42407 0.65458 0.0
C155 C 0.40144 0.52699 0.68124 0.0
C156 C 0.31468 0.45759 0.75541 0.0
C157 C 0.34311 0.47188 0.77169 0.0
C158 C 0.32889 0.49985 0.78779 0.0
C159 C 0.28735 0.5156 0.7866 0.0
C160 C 0.25608 0.49289 0.77502 0.0
C161 C 0.27031 0.46569 0.75813 0.0
O162 O 0.47809 0.40615 0.67624 0.0
O163 O 0.42132 0.38301 0.69826 0.0
O164 O 0.54935 0.4687 0.67302 0.0
O165 O 0.51634 0.52692 0.66831 0.0
C166 C 0.55254 0.50749 0.6656 0.0
O167 O 0.39125 0.51083 0.70031 0.0
O168 O 0.42907 0.50653 0.66913 0.0
O169 O 0.31365 0.43523 0.71799 0.0
O170 O 0.37257 0.42482 0.73659 0.0
H171 H 0.37563 0.45999 0.77254 0.0
H172 H 0.27806 0.53969 0.79827 0.0
H173 H 0.24748 0.44922 0.74796 0.0
O174 O 0.79244 0.2517 0.46706 0.0
Tb175 Tb 0.80023 0.23666 0.43274 0.0
Eu176 Eu 0.83513 0.13677 0.45568 0.0
C177 C 0.82144 0.27533 0.47674 0.0
O178 O 0.85843 0.28108 0.46701 0.0
C179 C 0.89919 0.21253 0.43621 0.0
O180 O 0.83152 0.08939 0.42802 0.0
C181 C 0.84477 0.10121 0.49358 0.0
C182 C 0.85339 0.09474 0.40982 0.0
O183 O 0.88054 0.12658 0.40833 0.0
C184 C 0.75114 0.15381 0.43191 0.0
C185 C 0.82229 0.07355 0.50955 0.0
C186 C 0.80664 0.09095 0.52917 0.0
C187 C 0.79003 0.06409 0.5455 0.0
C188 C 0.78828 0.02014 0.54211 0.0
C189 C 0.80395 1.00227 0.52283 0.0
C190 C 0.82072 0.02907 0.50654 0.0
O191 O 0.86892 0.23615 0.4272 0.0
O192 O 0.89234 0.17796 0.44809 0.0
O193 O 0.74375 0.27412 0.42385 0.0
O194 O 0.80431 0.29339 0.41175 0.0
C195 C 0.76368 0.30215 0.41196 0.0
O196 O 0.76521 0.14909 0.45182 0.0
O197 O 0.77057 0.18071 0.41884 0.0
O198 O 0.85786 0.08361 0.47529 0.0
O199 O 0.83024 0.1404 0.49099 0.0
H200 H 0.80892 0.12494 0.5321 0.0
H201 H 0.77683 0.99956 0.55519 0.0
H202 H 0.83391 0.01495 0.49192 0.0
O203 O 1.01037 0.53534 0.22588 0.0
Tb204 Tb 0.03892 0.54495 0.19401 0.0
Eu205 Eu 0.1467 0.58896 0.19852 0.0
C206 C 0.99879 0.56792 0.23781 0.0
O207 O 0.01519 0.60549 0.23329 0.0
C208 C 0.06226 0.64791 0.19014 0.0
O209 O 0.19906 0.59563 0.17348 0.0
C210 C 0.17422 0.5737 0.23782 0.0
C211 C 0.19058 0.61643 0.15526 0.0
O212 O 0.1559 0.64 0.15434 0.0
C213 C 0.12299 0.49697 0.18602 0.0
C214 C 0.20661 0.54987 0.25083 0.0
C215 C 0.19492 0.52978 0.27079 0.0
C216 C 0.22656 0.51156 0.28451 0.0
C217 C 0.26892 0.51066 0.27695 0.0
C218 C 0.28149 0.53571 0.25917 0.0
C219 C 0.25034 0.55388 0.24564 0.0
O220 O 0.0362 0.61483 0.18731 0.0
O221 O 0.10276 0.64474 0.19566 0.0
O222 O 0.97494 0.52333 0.18466 0.0
O223 O 0.02694 0.50949 0.1637 0.0
C224 C 0.98599 0.50463 0.16668 0.0
O225 O 0.13669 0.53243 0.17741 0.0
O226 O 0.09003 0.49809 0.19925 0.0
O227 O 0.1886 0.60487 0.22519 0.0
O228 O 0.14224 0.55228 0.22911 0.0
H229 H 0.16196 0.53107 0.27622 0.0
H230 H 0.29361 0.49595 0.28689 0.0
H231 H 0.26055 0.57378 0.23206 0.0
O232 O 0.78874 0.75289 0.58015 0.0
Tb233 Tb 0.79874 0.73248 0.61345 0.0
Eu234 Eu 0.83754 0.62312 0.61065 0.0
C235 C 0.81841 0.77401 0.56954 0.0
O236 O 0.85744 0.77452 0.57745 0.0
C237 C 0.89932 0.70573 0.6124 0.0
O238 O 0.85455 0.58282 0.63995 0.0
C239 C 0.81641 0.58226 0.57606 0.0
C240 C 0.86203 0.60457 0.65778 0.0
O241 O 0.86612 0.64616 0.65593 0.0
C242 C 0.74691 0.65151 0.62428 0.0
C243 C 0.80426 0.55873 0.55618 0.0
C244 C 0.79104 0.58097 0.53723 0.0
C245 C 0.78139 0.55848 0.51813 0.0
C246 C 0.7837 0.51397 0.51819 0.0
C247 C 0.79779 0.49151 0.53663 0.0
C248 C 0.80836 0.51396 0.55559 0.0
O249 O 0.86846 0.73063 0.62009 0.0
O250 O 0.89224 0.66742 0.60459 0.0
O251 O 0.77892 0.79879 0.61827 0.0
O252 O 0.76754 0.75372 0.64362 0.0
C253 C 0.76239 0.79337 0.63756 0.0
O254 O 0.78214 0.6364 0.6325 0.0
O255 O 0.74873 0.68409 0.61082 0.0
O256 O 0.843 0.56617 0.59068 0.0
O257 O 0.80089 0.62046 0.58043 0.0
H258 H 0.78995 0.61554 0.53703 0.0
H259 H 0.77746 0.49688 0.50318 0.0
H260 H 0.82015 0.49658 0.56972 0.0
O261 O 0.02201 0.03224 0.83268 0.0
Tb262 Tb 0.04316 0.03892 0.86649 0.0
Eu263 Eu 0.1442 0.08329 0.84889 0.0
C264 C 0.01786 0.06503 0.81934 0.0
O265 O 0.04095 0.09914 0.82263 0.0
C266 C 0.05904 0.13975 0.8624 0.0
O267 O 0.16674 0.09557 0.88341 0.0
C268 C 0.19425 0.10081 0.8163 0.0
C269 C 0.20524 0.08679 0.89093 0.0
O270 O 0.23471 0.07216 0.87767 0.0
C271 C 0.12891 0.99124 0.86643 0.0
C272 C 0.218 0.07767 0.79905 0.0
C273 C 0.19626 0.05529 0.78247 0.0
C274 C 0.21919 0.03588 0.7655 0.0
C275 C 0.26387 0.03826 0.7653 0.0
C276 C 0.28573 0.06166 0.78107 0.0
C277 C 0.26281 0.08124 0.79796 0.0
O278 O 0.03896 0.10731 0.87164 0.0
O279 O 0.09514 0.13622 0.85134 0.0
O280 O 0.99599 0.98853 0.87097 0.0
O281 O 0.99672 0.03981 0.89333 0.0
C282 C 0.97791 1.00437 0.88815 0.0
O283 O 0.13784 1.01195 0.84839 0.0
O284 O 0.09824 1.00472 0.87915 0.0
O285 O 0.20836 0.09729 0.83648 0.0
O286 O 0.15224 0.10052 0.8149 0.0
H287 H 0.16165 0.05365 0.78238 0.0
H288 H 0.28153 0.02491 0.75171 0.0
H289 H 0.27974 0.1005 0.80976 0.0
O290 O 0.73579 0.26325 0.07762 0.0
Tb291 Tb 0.73996 0.29256 0.10976 0.0
Eu292 Eu 0.69099 0.3972 0.10779 0.0
C293 C 0.69955 0.25396 0.06784 0.0
O294 O 0.66369 0.26979 0.07535 0.0
C295 C 0.63754 0.31076 0.11459 0.0
O296 O 0.66036 0.43271 0.13574 0.0
C297 C 0.70166 0.43422 0.07017 0.0
C298 C 0.68003 0.46402 0.14579 0.0
O299 O 0.71379 0.48153 0.13668 0.0
C300 C 0.78556 0.37937 0.12004 0.0
C301 C 0.72268 0.4623 0.0537 0.0
C302 C 0.73722 0.44455 0.03383 0.0
C303 C 0.7503 0.47121 1.01646 0.0
C304 C 0.75024 0.5154 1.01934 0.0
C305 C 0.73393 0.53362 0.03837 0.0
C306 C 0.72057 0.50708 0.05562 0.0
O307 O 0.67171 0.28783 0.12016 0.0
O308 O 0.63998 0.34821 0.10501 0.0
O309 O 0.78365 0.23826 0.11137 0.0
O310 O 0.75948 0.26303 0.14101 0.0
C311 C 0.78423 0.23424 0.13242 0.0
O312 O 0.74946 0.39216 0.12833 0.0
O313 O 0.78625 0.34578 0.10729 0.0
O314 O 0.6797 0.45144 0.08629 0.0
O315 O 0.71864 0.39677 0.07501 0.0
H316 H 0.73536 0.4104 0.03131 0.0
H317 H 0.75829 0.53593 1.00557 0.0
H318 H 0.70618 0.52139 0.0699 0.0
O319 O 0.49914 0.98778 0.32822 0.0
Tb320 Tb 0.48994 0.98626 0.36359 0.0
Eu321 Eu 0.3887 0.94423 0.35085 0.0
C322 C 0.51225 0.95377 0.3176 0.0
O323 O 0.50539 0.91603 0.32624 0.0
C324 C 0.47287 0.88613 0.36667 0.0
O325 O 0.34312 0.93893 0.37962 0.0
C326 C 0.35436 0.93406 0.3128 0.0
C327 C 0.35698 0.92785 0.3992 0.0
O328 O 0.39723 0.91672 0.40155 0.0
C329 C 0.40566 0.03219 0.37248 0.0
C330 C 0.32915 0.9586 0.29643 0.0
C331 C 0.35009 0.97962 0.27891 0.0
C332 C 0.32628 1.0015 0.26297 0.0
C333 C 0.28182 1.0022 0.26449 0.0
C334 C 0.26029 0.9785 0.28049 0.0
C335 C 0.28395 0.95773 0.29689 0.0
O336 O 0.49711 0.9192 0.3715 0.0
O337 O 0.43397 0.88926 0.35833 0.0
O338 O 0.52841 0.04412 0.36232 0.0
O339 O 0.54755 0.99383 0.38358 0.0
C340 C 0.55664 0.0321 0.37658 0.0
O341 O 0.39063 0.01533 0.35468 0.0
O342 O 0.43856 0.01478 0.38217 0.0
O343 O 0.33511 0.92278 0.33111 0.0
O344 O 0.39443 0.94584 0.3156 0.0
H345 H 0.38462 0.9785 0.27743 0.0
H346 H 0.26355 0.01854 0.25188 0.0
H347 H 0.26727 0.93906 0.30918 0.0
O348 O 0.22976 0.27754 0.46743 0.0
Tb349 Tb 0.22818 0.29404 0.43292 0.0
Eu350 Eu 0.19651 0.39697 0.45253 0.0
C351 C 0.20088 0.25072 0.47507 0.0
O352 O 0.16734 0.24239 0.46298 0.0
C353 C 0.13065 0.31924 0.43807 0.0
O354 O 0.19229 0.43209 0.41968 0.0
C355 C 0.18456 0.4431 0.48712 0.0
C356 C 0.16806 0.41864 0.40347 0.0
O357 O 0.14362 0.38523 0.40657 0.0
C358 C 0.28445 0.37285 0.4338 0.0
C359 C 0.20781 0.46679 0.50437 0.0
C360 C 0.22356 0.44541 0.52321 0.0
C361 C 0.24356 0.46846 0.53993 0.0
C362 C 0.24717 0.51274 0.53787 0.0
C363 C 0.23179 0.53449 0.51953 0.0
C364 C 0.21158 0.51162 0.50289 0.0
O365 O 0.15963 0.29716 0.42728 0.0
O366 O 0.13951 0.35288 0.45007 0.0
O367 O 0.27982 0.24758 0.43029 0.0
O368 O 0.22692 0.24273 0.4088 0.0
C369 C 0.26342 0.22598 0.4144 0.0
O370 O 0.26667 0.38145 0.45253 0.0
O371 O 0.26398 0.3481 0.42027 0.0
O372 O 0.18415 0.45915 0.46718 0.0
O373 O 0.18764 0.40126 0.48752 0.0
H374 H 0.22043 0.41112 0.52492 0.0
H375 H 0.26121 0.53081 0.5511 0.0
H376 H 0.19866 0.52875 0.48895 0.0
O377 O 1.01019 0.98613 0.22463 0.0
Tb378 Tb 0.98509 0.98236 0.19165 0.0
Eu379 Eu 0.87353 0.94316 0.19972 0.0
C380 C 0.02433 0.95202 0.23488 0.0
O381 O 1.00918 0.91475 0.22925 0.0
C382 C 0.95643 0.88273 0.19425 0.0
O383 O 0.82809 0.92264 0.17344 0.0
C384 C 0.83291 0.96548 0.23441 0.0
C385 C 0.8434 0.91386 0.15401 0.0
O386 O 0.88506 0.91121 0.15148 0.0
C387 C 0.90066 0.03272 0.18347 0.0
C388 C 0.80833 0.97814 0.25397 0.0
C389 C 0.8297 0.98978 0.2733 0.0
C390 C 0.80631 1.00252 0.29182 0.0
C391 C 0.76165 1.00518 0.29032 0.0
C392 C 0.73988 0.99367 0.27135 0.0
C393 C 0.76322 0.97923 0.25328 0.0
O394 O 0.97918 0.91302 0.18418 0.0
O395 O 0.92132 0.89102 0.20534 0.0
O396 O 0.05108 1.00467 0.18732 0.0
O397 O 1.00826 1.01168 0.16091 0.0
C398 C 0.04716 0.01924 0.16753 0.0
O399 O 0.88469 0.99704 0.17652 0.0
O400 O 0.93661 0.03274 0.19452 0.0
O401 O 0.81792 0.9369 0.22076 0.0
O402 O 0.87058 0.98184 0.22935 0.0
H403 H 0.86429 0.98818 0.27401 0.0
H404 H 0.74325 0.01655 0.30411 0.0
H405 H 0.7464 0.97021 0.23857 0.0
O406 O 0.27675 0.75605 0.97791 0.0
Tb407 Tb 0.28886 0.73528 0.94501 0.0
Eu408 Eu 0.34133 0.62988 0.94768 0.0
C409 C 0.30755 0.76962 0.99054 0.0
O410 O 0.34741 0.76265 0.98483 0.0
C411 C 0.39173 0.72082 0.94369 0.0
O412 O 0.37243 0.59596 0.91959 0.0
C413 C 0.33649 0.58979 0.9848 0.0
C414 C 0.35318 0.56388 0.91001 0.0
O415 O 0.31939 0.54667 0.91931 0.0
C416 C 0.24454 0.64877 0.93585 0.0
C417 C 0.31454 0.56218 1.00117 0.0
C418 C 0.29653 0.58145 1.01979 0.0
C419 C 0.2827 0.55674 0.03773 0.0
C420 C 0.28613 0.51221 0.03644 0.0
C421 C 0.30225 0.49207 1.01786 0.0
C422 C 0.31723 0.51721 1.00031 0.0
O423 O 0.35725 0.74289 0.93838 0.0
O424 O 0.39177 0.6804 0.94958 0.0
O425 O 0.26586 0.80013 0.93898 0.0
O426 O 0.25439 0.75279 0.91503 0.0
C427 C 0.24901 0.79276 0.92005 0.0
O428 O 0.27982 0.63071 0.92922 0.0
O429 O 0.245 0.6819 0.94874 0.0
O430 O 0.3541 0.5728 0.96734 0.0
O431 O 0.32192 0.62889 0.98165 0.0
H432 H 0.29472 0.61591 1.02057 0.0
H433 H 0.27856 0.49263 0.05057 0.0
H434 H 0.33197 0.50185 0.98643 0.0
O435 O 0.53021 0.03868 0.71647 0.0
Tb436 Tb 0.54648 0.04727 0.68188 0.0
Eu437 Eu 0.64588 0.07749 0.70448 0.0
C438 C 0.51434 0.07061 0.72781 0.0
O439 O 0.52054 0.10956 0.72076 0.0
C440 C 0.56805 0.14518 0.68878 0.0
O441 O 0.68356 0.08753 0.67324 0.0
C442 C 0.69046 0.08708 0.73985 0.0
C443 C 0.66228 0.09667 0.65528 0.0
O444 O 0.62056 0.09975 0.65644 0.0
C445 C 0.62772 0.99162 0.68184 0.0
C446 C 0.71639 0.06349 0.75632 0.0
C447 C 0.6973 0.0498 0.77612 0.0
C448 C 0.7225 0.03241 0.7929 0.0
C449 C 0.76642 0.02765 0.78978 0.0
C450 C 0.78623 0.04283 0.77085 0.0
C451 C 0.76129 0.06037 0.75398 0.0
O452 O 0.54515 0.11669 0.67806 0.0
O453 O 0.60168 0.13497 0.70093 0.0
O454 O 0.49192 1.00376 0.68249 0.0
O455 O 0.50591 0.03673 0.65309 0.0
C456 C 0.48067 1.00891 0.66231 0.0
O457 O 0.63603 1.00655 0.70122 0.0
O458 O 0.60133 1.01258 0.66916 0.0
O459 O 0.70656 0.09243 0.72015 0.0
O460 O 0.64891 0.08024 0.73982 0.0
H461 H 0.6635 0.05497 0.77902 0.0
H462 H 0.78602 0.01583 0.80315 0.0
H463 H 0.77707 0.07371 0.73974 0.0
H464 H 0.19909 0.48991 0.16555 0.0
H465 H 0.09876 0.41407 0.19477 0.0
H466 H 0.13653 0.34868 0.18423 0.0
H467 H 0.19713 0.31345 0.16544 0.0
H468 H 0.29616 0.39078 0.13612 0.0
H469 H 0.25942 0.45551 0.14779 0.0
C470 C 0.18519 0.45915 0.16958 0.0
C471 C 0.14587 0.4569 0.18076 0.0
C472 C 0.20687 0.42204 0.1634 0.0
C473 C 0.12893 0.41669 0.18616 0.0
C474 C 0.15048 0.37935 0.18008 0.0
C475 C 0.21077 0.34452 0.16181 0.0
C476 C 0.24937 0.34745 0.15002 0.0
C477 C 0.18934 0.38167 0.16855 0.0
C478 C 0.26667 0.38777 0.1453 0.0
C479 C 0.24562 0.42476 0.15191 0.0
H480 H 0.37089 0.36433 0.43525 0.0
H481 H 0.27017 0.44822 0.4143 0.0
H482 H 0.32165 0.49463 0.39568 0.0
H483 H 0.39571 0.50965 0.38448 0.0
H484 H 0.49819 0.43143 0.40948 0.0
H485 H 0.44631 0.38478 0.42792 0.0
C486 C 0.36057 0.39298 0.42671 0.0
C487 C 0.31681 0.40235 0.42515 0.0
C488 C 0.39081 0.42043 0.41699 0.0
C489 C 0.30353 0.43981 0.4146 0.0
C490 C 0.33304 0.46647 0.40427 0.0
C491 C 0.40656 0.48253 0.39411 0.0
C492 C 0.45039 0.47347 0.39551 0.0
C493 C 0.37674 0.45673 0.40508 0.0
C494 C 0.46441 0.4388 0.40825 0.0
C495 C 0.43481 0.4121 0.41869 0.0
H496 H 0.27925 0.64467 0.625 0.0
H497 H 0.31862 0.73807 0.67211 0.0
H498 H 0.36216 0.68414 0.69097 0.0
H499 H 0.38979 0.60974 0.69383 0.0
H500 H 0.35099 0.5179 0.64602 0.0
H501 H 0.30606 0.57112 0.62793 0.0
C502 C 0.29714 0.65314 0.63948 0.0
C503 C 0.29546 0.69522 0.64724 0.0
C504 C 0.32211 0.62199 0.65019 0.0
C505 C 0.31899 0.70575 0.66596 0.0
C506 C 0.34401 0.67494 0.67672 0.0
C507 C 0.37128 0.60157 0.67951 0.0
C508 C 0.37368 0.55994 0.67114 0.0
C509 C 0.34587 0.63287 0.66899 0.0
C510 C 0.3499 0.54973 0.65253 0.0
C511 C 0.32413 0.58021 0.64224 0.0
H512 H 0.22719 0.56589 0.92936 0.0
H513 H 0.17099 0.69143 0.92583 0.0
H514 H 0.10588 0.6614 0.9098 0.0
H515 H 0.06665 0.59941 0.89522 0.0
H516 H 0.12163 0.47363 0.90123 0.0
H517 H 0.18589 0.5037 0.91783 0.0
C518 C 0.20051 0.58657 0.9252 0.0
C519 C 0.2037 0.63069 0.92855 0.0
C520 C 0.16328 0.56905 0.91635 0.0
C521 C 0.16893 0.65727 0.92344 0.0
C522 C 0.13193 0.64017 0.91417 0.0
C523 C 0.09271 0.57873 0.9003 0.0
C524 C 0.08988 0.53455 0.89696 0.0
C525 C 0.12901 0.59615 0.9103 0.0
C526 C 0.12334 0.50777 0.90375 0.0
C527 C 0.16001 0.52492 0.91317 0.0
H528 H 0.91797 0.58375 0.89829 0.0
H529 H 0.82073 0.54562 0.85253 0.0
H530 H 0.77407 0.60292 0.8651 0.0
H531 H 0.76064 0.66399 0.88929 0.0
H532 H 0.85897 0.70333 0.93412 0.0
H533 H 0.9054 0.64576 0.9217 0.0
C534 C 0.88655 0.58799 0.8911 0.0
C535 C 0.8728 0.56044 0.87456 0.0
C536 C 0.86004 0.6213 0.89823 0.0
C537 C 0.83216 0.56654 0.86524 0.0
C538 C 0.80538 0.59923 0.87246 0.0
C539 C 0.7922 0.65981 0.89632 0.0
C540 C 0.80629 0.68759 0.91266 0.0
C541 C 0.81894 0.6268 0.88896 0.0
C542 C 0.84736 0.68217 0.92156 0.0
C543 C 0.87395 0.64927 0.91447 0.0
H544 H 0.56035 0.58195 0.643 0.0
H545 H 0.6336 0.47889 0.67138 0.0
H546 H 0.70011 0.51478 0.66117 0.0
H547 H 0.73719 0.57566 0.64495 0.0
H548 H 0.66507 0.67817 0.61518 0.0
H549 H 0.59814 0.64204 0.62498 0.0
C550 C 0.59095 0.56731 0.64676 0.0
C551 C 0.59226 0.52788 0.65787 0.0
C552 C 0.62907 0.58797 0.64063 0.0
C553 C 0.63191 0.50907 0.66267 0.0
C554 C 0.66989 0.52965 0.65692 0.0
C555 C 0.70688 0.59024 0.64056 0.0
C556 C 0.70611 0.62978 0.62951 0.0
C557 C 0.66881 0.56916 0.64602 0.0
C558 C 0.66652 0.64785 0.62376 0.0
C559 C 0.62829 0.62721 0.62938 0.0
H560 H 0.67933 0.31407 0.40371 0.0
H561 H 0.80315 0.37319 0.39652 0.0
H562 H 0.76978 0.43717 0.38106 0.0
H563 H 0.70532 0.47747 0.37139 0.0
H564 H 0.58148 0.418 0.37658 0.0
H565 H 0.61482 0.35248 0.39084 0.0
C566 C 0.6989 0.34093 0.3986 0.0
C567 C 0.74351 0.3393 0.40136 0.0
C568 C 0.67952 0.37728 0.38938 0.0
C569 C 0.76873 0.37392 0.39454 0.0
C570 C 0.74969 0.41045 0.38575 0.0
C571 C 0.68577 0.4499 0.37542 0.0
C572 C 0.6412 0.45224 0.37308 0.0
C573 C 0.70515 0.41261 0.38334 0.0
C574 C 0.61597 0.4165 0.37812 0.0
C575 C 0.63499 0.37931 0.3864 0.0
H576 H 0.8704 0.35791 0.12791 0.0
H577 H 0.78526 0.46491 0.11916 0.0
H578 H 0.83973 0.51352 0.13233 0.0
H579 H 0.90908 0.52524 0.14988 0.0
H580 H 0.99829 0.42125 0.15587 0.0
H581 H 0.94549 0.37208 0.14023 0.0
C582 C 0.86428 0.39195 0.12842 0.0
C583 C 0.82319 0.40761 0.12326 0.0
C584 C 0.89647 0.42029 0.13575 0.0
C585 C 0.81594 0.45187 0.12387 0.0
C586 C 0.84722 0.47982 0.13128 0.0
C587 C 0.91717 0.49197 0.14732 0.0
C588 C 0.95728 0.47678 0.15397 0.0
C589 C 0.8871 0.4643 0.13792 0.0
C590 C 0.96758 0.43366 0.15063 0.0
C591 C 0.9373 0.40552 0.14181 0.0
H592 H 0.63756 0.9083 0.69371 0.0
H593 H 0.68209 1.00371 0.64812 0.0
H594 H 0.72948 0.95155 0.63104 0.0
H595 H 0.75648 0.87797 0.62822 0.0
H596 H 0.71036 0.7814 0.67283 0.0
H597 H 0.66492 0.83421 0.69086 0.0
C598 C 0.65787 0.91747 0.68011 0.0
C599 C 0.65661 0.95964 0.67217 0.0
C600 C 0.68443 0.88694 0.67007 0.0
C601 C 0.68257 0.97132 0.65441 0.0
C602 C 0.70964 0.94151 0.64465 0.0
C603 C 0.73677 0.86861 0.64202 0.0
C604 C 0.73712 0.82595 0.64935 0.0
C605 C 0.7106 0.89913 0.65222 0.0
C606 C 0.71113 0.81418 0.66711 0.0
C607 C 0.685 0.84434 0.67736 0.0
H608 H 0.94286 0.92829 0.87978 0.0
H609 H 0.93099 0.03738 0.92175 0.0
H610 H 0.86869 1.00478 0.93967 0.0
H611 H 0.81674 0.94533 0.94266 0.0
H612 H 0.82988 0.83728 0.89988 0.0
H613 H 0.89281 0.86926 0.88313 0.0
C614 C 0.92671 0.94487 0.8929 0.0
C615 C 0.94126 0.985 0.8995 0.0
C616 C 0.89124 0.92606 0.903 0.0
C617 C 0.92022 1.00626 0.9165 0.0
C618 C 0.88467 0.98768 0.9267 0.0
C619 C 0.8337 0.92875 0.92982 0.0
C620 C 0.8187 0.88911 0.92248 0.0
C621 C 0.86982 0.94757 0.92003 0.0
C622 C 0.84064 0.86801 0.9057 0.0
C623 C 0.87665 0.88621 0.89611 0.0
H624 H 0.9272 0.10732 0.16505 0.0
H625 H 0.8171 0.04424 0.19257 0.0
H626 H 0.77129 0.10388 0.18146 0.0
H627 H 0.76136 0.17109 0.16071 0.0
H628 H 0.86999 0.22963 0.12938 0.0
H629 H 0.91756 0.17552 0.14519 0.0
C630 C 0.89338 0.10734 0.16903 0.0
C631 C 0.87551 0.07194 0.17981 0.0
C632 C 0.8669 0.14091 0.1617 0.0
C633 C 0.83146 0.0715 0.1844 0.0
C634 C 0.80525 0.10546 0.17797 0.0
C635 C 0.79556 0.17227 0.15778 0.0
C636 C 0.81247 0.20434 0.14421 0.0
C637 C 0.8224 0.13993 0.16616 0.0
C638 C 0.85656 0.20519 0.13995 0.0
C639 C 0.88369 0.17425 0.14893 0.0
H640 H 0.69643 0.16965 0.39868 0.0
H641 H 0.73021 0.07468 0.447 0.0
H642 H 0.67385 0.02764 0.43367 0.0
H643 H 0.61392 0.01408 0.40862 0.0
H644 H 0.57848 0.11047 0.36136 0.0
H645 H 0.63623 0.15646 0.37397 0.0
C646 C 0.69145 0.13859 0.40621 0.0
C647 C 0.7172 0.12561 0.42377 0.0
C648 C 0.65859 0.11205 0.39871 0.0
C649 C 0.71038 0.08548 0.43355 0.0
C650 C 0.67829 0.05852 0.42591 0.0
C651 C 0.61907 0.04507 0.40106 0.0
C652 C 0.59228 0.05887 0.38406 0.0
C653 C 0.65204 0.07156 0.40857 0.0
C654 C 0.59891 0.09917 0.37445 0.0
C655 C 0.63187 0.12548 0.38165 0.0
H656 H 0.32514 0.06137 0.3649 0.0
H657 H 0.43997 0.088 0.40136 0.0
H658 H 0.40598 0.15051 0.41742 0.0
H659 H 0.34354 0.19718 0.42137 0.0
H660 H 0.22849 0.17096 0.38516 0.0
H661 H 0.26251 0.10838 0.36882 0.0
C662 C 0.34274 0.08099 0.37629 0.0
C663 C 0.38498 0.07014 0.38195 0.0
C664 C 0.3229 0.11672 0.38558 0.0
C665 C 0.40731 0.09556 0.39687 0.0
C666 C 0.38795 0.13134 0.40603 0.0
C667 C 0.32595 0.17773 0.40989 0.0
C668 C 0.28369 0.1885 0.4044 0.0
C669 C 0.34574 0.14209 0.40057 0.0
C670 C 0.26118 0.16325 0.38951 0.0
C671 C 0.28059 0.12753 0.3802 0.0
H672 H 0.12777 0.0372 0.18116 0.0
H673 H 0.04043 0.06021 0.12799 0.0
H674 H 0.09382 0.10556 0.10982 0.0
H675 H 0.16602 0.13915 0.10914 0.0
H676 H 0.25066 0.11925 0.16371 0.0
H677 H 0.19839 0.07183 0.18098 0.0
C678 C 0.1205 0.05188 0.16551 0.0
C679 C 0.08027 0.04486 0.15583 0.0
C680 C 0.15112 0.07849 0.15536 0.0
C681 C 0.0713 0.06456 0.13566 0.0
C682 C 0.10181 0.09067 0.1253 0.0
C683 C 0.1728 0.12446 0.12484 0.0
C684 C 0.21217 0.13279 0.13518 0.0
C685 C 0.14189 0.09794 0.13499 0.0
C686 C 0.22051 0.11373 0.15555 0.0
C687 C 0.19063 0.08647 0.1654 0.0
H688 H 0.27308 0.86727 0.9012 0.0
H689 H 0.16387 0.78699 0.91353 0.0
H690 H 0.11618 0.84195 0.89844 0.0
H691 H 0.1056 0.91438 0.88306 0.0
H692 H 0.21556 0.99094 0.86668 0.0
H693 H 0.26313 0.93628 0.88196 0.0
C694 C 0.23889 0.86176 0.90021 0.0
C695 C 0.22172 0.82342 0.9083 0.0
C696 C 0.21196 0.89297 0.89095 0.0
C697 C 0.17753 0.81628 0.9071 0.0
C698 C 0.15035 0.84774 0.89863 0.0
C699 C 0.14002 0.91874 0.88272 0.0
C700 C 0.15724 0.95659 0.87401 0.0
C701 C 0.16716 0.88641 0.89071 0.0
C702 C 0.20178 0.96198 0.87337 0.0
C703 C 0.22892 0.93079 0.88211 0.0
H704 H 0.35153 0.90496 0.60348 0.0
H705 H 0.29736 0.87797 0.66678 0.0
H706 H 0.35435 0.91821 0.68433 0.0
H707 H 0.4174 0.96418 0.68169 0.0
H708 H 0.46964 0.99635 0.61861 0.0
H709 H 0.41592 0.95128 0.60091 0.0
C710 C 0.35313 0.90701 0.62112 0.0
C711 C 0.32106 0.88777 0.63392 0.0
C712 C 0.3852 0.93178 0.63109 0.0
C713 C 0.32232 0.89186 0.6567 0.0
C714 C 0.35463 0.91519 0.66672 0.0
C715 C 0.41696 0.96133 0.66406 0.0
C716 C 0.44714 0.98366 0.65142 0.0
C717 C 0.3858 0.93587 0.65408 0.0
C718 C 0.44628 0.97982 0.62862 0.0
C719 C 0.41578 0.95383 0.61853 0.0
H720 H 0.23843 0.93751 0.0301 0.0
H721 H 0.373 0.95642 0.04155 0.0
H722 H 0.38745 0.8821 0.03229 0.0
H723 H 0.36322 0.81686 1.01433 0.0
H724 H 0.22847 0.79875 1.00206 0.0
H725 H 0.21256 0.8671 1.01878 0.0
C726 C 0.27064 0.92476 0.03125 0.0
C727 C 0.30463 0.95204 0.03635 0.0
C728 C 0.27875 0.88235 1.0255 0.0
C729 C 0.34635 0.93565 0.03781 0.0
C730 C 0.35466 0.89334 0.03231 0.0
C731 C 0.33026 0.82723 1.01591 0.0
C732 C 0.29728 0.80327 1.00644 0.0
C733 C 0.32133 0.86703 1.02516 0.0
C734 C 0.25464 0.8169 1.00888 0.0
C735 C 0.24545 0.85615 1.01835 0.0
H736 H 0.96944 0.54955 0.27918 0.0
H737 H 0.93 0.58208 0.21371 0.0
H738 H 0.85514 0.57717 0.22436 0.0
H739 H 0.80153 0.56357 0.25161 0.0
H740 H 0.83674 0.52656 0.31706 0.0
H741 H 0.91292 0.53559 0.30755 0.0
C742 C 0.94421 0.55591 0.26748 0.0
C743 C 0.9547 0.56663 0.2458 0.0
C744 C 0.90088 0.55277 0.27375 0.0
C745 C 0.92224 0.57431 0.23052 0.0
C746 C 0.87959 0.57148 0.23658 0.0
C747 C 0.82578 0.55668 0.26381 0.0
C748 C 0.81366 0.54297 0.28481 0.0
C749 C 0.86867 0.56063 0.25805 0.0
C750 C 0.84541 0.53646 0.30068 0.0
C751 C 0.88883 0.54142 0.29518 0.0
H752 H 0.14648 0.20017 0.49799 0.0
H753 H 0.28016 0.23202 0.49141 0.0
H754 H 0.29964 0.16851 0.5125 0.0
H755 H 0.27903 0.09772 0.5268 0.0
H756 H 0.14569 0.06524 0.53278 0.0
H757 H 0.12553 0.13542 0.51821 0.0
C758 C 0.17982 0.19387 0.50172 0.0
C759 C 0.21181 0.22047 0.49289 0.0
C760 C 0.19082 0.15688 0.51352 0.0
C761 C 0.25486 0.21212 0.49799 0.0
C762 C 0.26607 0.17554 0.50989 0.0
C763 C 0.24561 0.10676 0.52557 0.0
C764 C 0.21378 0.07669 0.53074 0.0
C765 C 0.23441 0.14679 0.51686 0.0
C766 C 0.17057 0.08823 0.52904 0.0
C767 C 0.15912 0.12812 0.52052 0.0
H768 H 0.67593 0.51486 0.7792 0.0
H769 H 0.69945 0.37941 0.78232 0.0
H770 H 0.62772 0.3655 0.76826 0.0
H771 H 0.56328 0.39214 0.75015 0.0
H772 H 0.54061 0.52778 0.74526 0.0
H773 H 0.60637 0.54137 0.76562 0.0
C774 C 0.66469 0.48233 0.77738 0.0
C775 C 0.69269 0.44814 0.78179 0.0
C776 C 0.62372 0.47467 0.76888 0.0
C777 C 0.67816 0.40612 0.77932 0.0
C778 C 0.63734 0.39822 0.77107 0.0
C779 C 0.57208 0.42471 0.75396 0.0
C780 C 0.54726 0.45892 0.7459 0.0
C781 C 0.61049 0.43228 0.76509 0.0
C782 C 0.55911 0.50085 0.75117 0.0
C783 C 0.59694 0.50865 0.76266 0.0
H784 H 0.76695 0.21018 0.05074 0.0
H785 H 0.62909 0.21742 0.04938 0.0
H786 H 0.62585 0.14974 0.03011 0.0
H787 H 0.66163 0.0827 1.01953 0.0
H788 H 0.79914 0.07512 1.02186 0.0
H789 H 0.80311 0.1487 0.03449 0.0
C790 C 0.73621 0.19751 0.0458 0.0
C791 C 0.69832 0.21859 0.05189 0.0
C792 C 0.73449 0.15814 0.03501 0.0
C793 C 0.65882 0.20177 0.04513 0.0
C794 C 0.65688 0.16287 0.03415 0.0
C795 C 0.69242 0.09784 1.02197 0.0
C796 C 0.73001 0.07363 1.01987 0.0
C797 C 0.6944 0.13992 0.02981 0.0
C798 C 0.7698 0.0933 1.02338 0.0
C799 C 0.77206 0.13522 0.03079 0.0
H800 H 0.08676 0.49808 0.8313 0.0
H801 H 0.03022 0.44921 0.77266 0.0
H802 H 0.0996 0.45564 0.75365 0.0
H803 H 0.17792 0.47319 0.75471 0.0
H804 H 0.23205 0.50551 0.81756 0.0
H805 H 0.16267 0.50873 0.83334 0.0
C806 C 0.08937 0.48964 0.8142 0.0
C807 C 0.05339 0.47445 0.80317 0.0
C808 C 0.12935 0.49091 0.80397 0.0
C809 C 0.05753 0.46184 0.78132 0.0
C810 C 0.09723 0.46529 0.77054 0.0
C811 C 0.17467 0.48107 0.7718 0.0
C812 C 0.21122 0.49229 0.78412 0.0
C813 C 0.13375 0.4794 0.78182 0.0
C814 C 0.20545 0.50056 0.80663 0.0
C815 C 0.1653 0.50141 0.81612 0.0
H816 H 0.74391 0.94232 0.53187 0.0
H817 H 0.87546 0.95774 0.51217 0.0
H818 H 0.88988 0.88311 0.52108 0.0
H819 H 0.86883 0.81917 0.54178 0.0
H820 H 0.73777 0.80485 0.56282 0.0
H821 H 0.71939 0.87299 0.54598 0.0
C822 C 0.77538 0.92886 0.52896 0.0
C823 C 0.80874 0.95544 0.52174 0.0
C824 C 0.78376 0.88637 0.53478 0.0
C825 C 0.84927 0.9378 0.51771 0.0
C826 C 0.85766 0.89526 0.52305 0.0
C827 C 0.83601 0.83039 0.54209 0.0
C828 C 0.80506 0.80749 0.55392 0.0
C829 C 0.82574 0.87002 0.5327 0.0
C830 C 0.76243 0.822 0.55395 0.0
C831 C 0.75185 0.86119 0.54445 0.0
H832 H 0.35796 0.49516 0.25454 0.0
H833 H 0.30028 0.61641 0.26933 0.0
H834 H 0.36681 0.64097 0.28559 0.0
H835 H 0.43647 0.62332 0.30106 0.0
H836 H 0.49393 0.50097 0.28792 0.0
H837 H 0.43332 0.48212 0.26474 0.0
C838 C 0.36089 0.52765 0.26032 0.0
C839 C 0.32474 0.55425 0.2604 0.0
C840 C 0.39905 0.54118 0.27017 0.0
C841 C 0.32818 0.59592 0.26851 0.0
C842 C 0.366 0.60971 0.27815 0.0
C843 C 0.43643 0.59304 0.29261 0.0
C844 C 0.46929 0.56334 0.29643 0.0
C845 C 0.40102 0.58198 0.27985 0.0
C846 C 0.46865 0.52416 0.28543 0.0
C847 C 0.43395 0.5133 0.27224 0.0
H848 H 0.74176 0.42913 0.52628 0.0
H849 H 0.87466 0.45226 0.54029 0.0
H850 H 0.89365 0.38232 0.52566 0.0
H851 H 0.87353 0.32093 0.50316 0.0
H852 H 0.74042 0.29816 0.48883 0.0
H853 H 0.72025 0.36098 0.50975 0.0
C854 C 0.77462 0.41802 0.52682 0.0
C855 C 0.80684 0.4455 0.5343 0.0
C856 C 0.78528 0.37813 0.51806 0.0
C857 C 0.84938 0.43127 0.53482 0.0
C858 C 0.86025 0.39154 0.52623 0.0
C859 C 0.84002 0.32903 0.50513 0.0
C860 C 0.80863 0.30525 0.49417 0.0
C861 C 0.82867 0.36556 0.51695 0.0
C862 C 0.76529 0.31591 0.49703 0.0
C863 C 0.75372 0.35209 0.50886 0.0
H864 H 0.35402 1.00774 0.78151 0.0
H865 H 0.31679 0.13814 0.76923 0.0
H866 H 0.387 0.15341 0.75357 0.0
H867 H 0.45524 0.12809 0.74019 0.0
H868 H 0.49302 0.99687 0.75021 0.0
H869 H 0.42694 0.98379 0.77093 0.0
C870 C 0.36209 0.03974 0.77605 0.0
C871 C 0.33093 0.07211 0.77685 0.0
C872 C 0.40242 0.04806 0.76676 0.0
C873 C 0.34088 0.11325 0.7693 0.0
C874 C 0.38079 0.1218 0.76015 0.0
C875 C 0.44972 0.09671 0.74724 0.0
C876 C 0.47906 0.06339 0.74357 0.0
C877 C 0.41137 0.08923 0.75838 0.0
C878 C 0.47087 0.02297 0.75271 0.0
C879 C 0.43304 0.01549 0.76445 0.0
H880 H 0.65011 0.69708 1.00175 0.0
H881 H 0.78242 0.73391 0.9952 0.0
H882 H 0.80402 0.67334 1.01799 0.0
H883 H 0.78599 0.60216 0.03297 0.0
H884 H 0.65379 0.56534 0.03903 0.0
H885 H 0.63129 0.63381 1.02357 0.0
C886 C 0.68354 0.69265 1.00593 0.0
C887 C 0.71463 0.71955 0.99656 0.0
C888 C 0.69576 0.65738 1.01875 0.0
C889 C 0.75782 0.71368 1.0022 0.0
C890 C 0.77025 0.67875 1.01506 0.0
C891 C 0.75229 0.61012 0.0318 0.0
C892 C 0.72154 0.57906 0.03717 0.0
C893 C 0.73966 0.64927 1.0225 0.0
C894 C 0.67792 0.58913 0.03533 0.0
C895 C 0.66509 0.62803 1.02619 0.0
H896 H 0.05792 0.96794 0.27542 0.0
H897 H 0.09075 0.93925 0.20877 0.0
H898 H 0.16659 0.94289 0.21748 0.0
H899 H 0.22309 0.95414 0.24352 0.0
H900 H 0.19407 0.98489 0.31031 0.0
H901 H 0.11703 0.97844 0.30249 0.0
C902 C 0.08193 0.96228 0.263 0.0
C903 C 0.06927 0.95333 0.24152 0.0
C904 C 0.12581 0.96409 0.26821 0.0
C905 C 0.10017 0.94616 0.22538 0.0
C906 C 0.14339 0.9481 0.23035 0.0
C907 C 0.19992 0.95973 0.25639 0.0
C908 C 0.21399 0.97078 0.27733 0.0
C909 C 0.15647 0.95703 0.25164 0.0
C910 C 0.1838 0.97654 0.29402 0.0
C911 C 0.1399 0.97317 0.28949 0.0
H912 H 0.26965 0.71752 0.55097 0.0
H913 H 0.13241 0.72671 0.54479 0.0
H914 H 0.13094 0.65945 0.52508 0.0
H915 H 0.16701 0.59169 0.51634 0.0
H916 H 0.30364 0.58179 0.52395 0.0
H917 H 0.30711 0.6557 0.53609 0.0
C918 C 0.23951 0.70545 0.54481 0.0
C919 C 0.20112 0.72668 0.54979 0.0
C920 C 0.23875 0.66623 0.53394 0.0
C921 C 0.16244 0.71077 0.54144 0.0
C922 C 0.1615 0.67213 0.53025 0.0
C923 C 0.19764 0.60642 0.51976 0.0
C924 C 0.23497 0.58154 0.51939 0.0
C925 C 0.1992 0.64861 0.52734 0.0
C926 C 0.27453 0.60058 0.52415 0.0
C927 C 0.27647 0.64267 0.53127 0.0
H928 H 0.68259 0.9294 0.26602 0.0
H929 H 0.6919 0.06405 0.27864 0.0
H930 H 0.61763 0.06547 0.29101 0.0
H931 H 0.55531 0.02569 0.30465 0.0
H932 H 0.54651 0.89038 0.29287 0.0
H933 H 0.61446 0.89213 0.27337 0.0
C934 C 0.66769 0.95927 0.27063 0.0
C935 C 0.69256 0.9965 0.27158 0.0
C936 C 0.62517 0.9596 0.27827 0.0
C937 C 0.67319 0.03501 0.27784 0.0
C938 C 0.63085 0.03575 0.28508 0.0
C939 C 0.56749 0.99682 0.29723 0.0
C940 C 0.54605 0.95782 0.30061 0.0
C941 C 0.60719 0.99783 0.28637 0.0
C942 C 0.56249 0.9208 0.29079 0.0
C943 C 0.60157 0.92168 0.27969 0.0
H944 H 0.36689 0.31232 0.04604 0.0
H945 H 0.23535 0.30171 0.06682 0.0
H946 H 0.21768 0.3669 0.0467 0.0
H947 H 0.24247 0.43318 0.02902 0.0
H948 H 0.37474 0.4459 1.01021 0.0
H949 H 0.38901 0.37315 1.02308 0.0
C950 C 0.33409 0.3236 0.04568 0.0
C951 C 0.30266 0.3024 0.0582 0.0
C952 C 0.32437 0.36175 0.0345 0.0
C953 C 0.26025 0.3173 0.05739 0.0
C954 C 0.25016 0.35485 0.04601 0.0
C955 C 0.27412 0.41944 0.02714 0.0
C956 C 0.30764 0.44496 1.01888 0.0
C957 C 0.28236 0.37827 0.03534 0.0
C958 C 0.34841 0.42687 1.0164 0.0
C959 C 0.35667 0.38546 1.02403 0.0
H960 H 0.98189 0.01487 0.78785 0.0
H961 H 0.96035 0.12639 0.82712 0.0
H962 H 0.88766 0.13262 0.81315 0.0
H963 H 0.82839 0.10301 0.79226 0.0
H964 H 0.84762 0.99152 0.75295 0.0
H965 H 0.92354 0.98957 0.76344 0.0
C966 C 0.96141 0.04093 0.79289 0.0
C967 C 0.97639 0.07042 0.80827 0.0
C968 C 0.91954 0.04465 0.78453 0.0
C969 C 0.94964 0.10385 0.81498 0.0
C970 C 0.90804 0.10735 0.80707 0.0
C971 C 0.84972 0.07921 0.78544 0.0
C972 C 0.83306 0.04785 0.77164 0.0
C973 C 0.89253 0.07768 0.79207 0.0
C974 C 0.86027 0.01637 0.76328 0.0
C975 C 0.90339 0.01497 0.76954 0.0
H976 H 0.20969 0.08101 0.99396 0.0
H977 H 0.34502 0.07336 0.98164 0.0
H978 H 0.33265 0.08231 0.94243 0.0
H979 H 0.28264 0.08547 0.91147 0.0
H980 H 0.14706 0.09486 0.92386 0.0
H981 H 0.1601 0.09266 0.96309 0.0
C982 C 0.23638 0.08275 0.98267 0.0
C983 C 0.27819 0.0773 0.99051 0.0
C984 C 0.22892 0.0876 0.96014 0.0
C985 C 0.31267 0.07848 0.97585 0.0
C986 C 0.30554 0.08309 0.95345 0.0
C987 C 0.25598 0.08749 0.92275 0.0
C988 C 0.21392 0.08985 0.91468 0.0
C989 C 0.26371 0.08659 0.94536 0.0
C990 C 0.17978 0.09288 0.92957 0.0
C991 C 0.18717 0.09155 0.95205 0.0
H992 H 0.69656 0.53647 0.16834 0.0
H993 H 0.64323 0.41031 0.17564 0.0
H994 H 0.63936 0.4194 0.21516 0.0
H995 H 0.66 0.46015 0.24813 0.0
H996 H 0.70975 0.58744 0.24028 0.0
H997 H 0.70583 0.58129 0.20066 0.0
C998 C 0.6832 0.51135 0.17854 0.0
C999 C 0.6704 0.47276 0.16904 0.0
C1000 C 0.68056 0.51698 0.20124 0.0
C1001 C 0.65311 0.44049 0.18249 0.0
C1002 C 0.65112 0.44554 0.20515 0.0
C1003 C 0.66816 0.48703 0.23767 0.0
C1004 C 0.68445 0.52443 0.24699 0.0
C1005 C 0.66576 0.48325 0.21479 0.0
C1006 C 0.69614 0.55877 0.23336 0.0
C1007 C 0.69446 0.55505 0.21072 0.0
H1008 H 0.37228 0.89894 0.44068 0.0
H1009 H 0.2791 0.96719 0.40187 0.0
H1010 H 0.23674 0.98102 0.43454 0.0
H1011 H 0.2288 0.97846 0.47432 0.0
H1012 H 0.32249 0.91245 0.51362 0.0
H1013 H 0.3612 0.89167 0.48052 0.0
C1014 C 0.34247 0.91645 0.43932 0.0
C1015 C 0.32909 0.93217 0.41877 0.0
C1016 C 0.31824 0.92447 0.45826 0.0
C1017 C 0.29022 0.9546 0.41737 0.0
C1018 C 0.26598 0.96263 0.43609 0.0
C1019 C 0.25755 0.9592 0.47565 0.0
C1020 C 0.27309 0.94751 0.49646 0.0
C1021 C 0.28007 0.94838 0.45663 0.0
C1022 C 0.30981 0.9218 0.49785 0.0
C1023 C 0.33216 0.91032 0.47892 0.0
H1024 H 0.89366 0.53402 0.67917 0.0
H1025 H 0.80148 0.63596 0.68399 0.0
H1026 H 0.77848 0.6096 0.71961 0.0
H1027 H 0.78325 0.55721 0.74902 0.0
H1028 H 0.87438 0.45426 0.74513 0.0
H1029 H 0.90065 0.48242 0.71017 0.0
C1030 C 0.86869 0.5503 0.68815 0.0
C1031 C 0.84939 0.58691 0.67915 0.0
C1032 C 0.85602 0.53532 0.70895 0.0
C1033 C 0.81707 0.60797 0.69081 0.0
C1034 C 0.8039 0.59296 0.71115 0.0
C1035 C 0.80904 0.54104 0.74058 0.0
C1036 C 0.82654 0.50353 0.74955 0.0
C1037 C 0.82312 0.55674 0.72037 0.0
C1038 C 0.86052 0.48339 0.73864 0.0
C1039 C 0.87517 0.49917 0.71851 0.0
H1040 H 0.71501 0.9631 0.0791 0.0
H1041 H 0.81579 0.91049 0.03965 0.0
H1042 H 0.85446 0.88799 0.07262 0.0
H1043 H 0.86268 0.89051 0.11253 0.0
H1044 H 0.76133 0.94342 0.15186 0.0
H1045 H 0.71941 0.95815 0.11911 0.0
C1046 C 0.74492 0.94568 0.07785 0.0
C1047 C 0.76269 0.93809 0.0572 0.0
C1048 C 0.76691 0.93335 0.0968 0.0
C1049 C 0.80153 0.91603 0.0555 0.0
C1050 C 0.82369 0.90358 0.07431 0.0
C1051 C 0.8311 0.90455 0.11396 0.0
C1052 C 0.8153 0.91602 0.13461 0.0
C1053 C 0.80719 0.9131 0.09504 0.0
C1054 C 0.77425 0.93411 0.1362 0.0
C1055 C 0.75031 0.94278 0.11746 0.0
H1056 H 0.37186 0.56431 0.80799 0.0
H1057 H 0.32368 0.43671 0.81709 0.0
H1058 H 0.32889 0.44388 0.85659 0.0
H1059 H 0.33766 0.49014 0.88844 0.0
H1060 H 0.3899 0.61646 0.87974 0.0
H1061 H 0.39365 0.60587 0.84036 0.0
C1062 C 0.36463 0.53749 0.81866 0.0
C1063 C 0.3482 0.49981 0.80974 0.0
C1064 C 0.36774 0.54185 0.84146 0.0
C1065 C 0.33759 0.46556 0.82367 0.0
C1066 C 0.33987 0.46989 0.84626 0.0
C1067 C 0.35079 0.51493 0.87796 0.0
C1068 C 0.36311 0.55409 0.88697 0.0
C1069 C 0.35347 0.50843 0.85534 0.0
C1070 C 0.38026 0.58592 0.87322 0.0
C1071 C 0.38222 0.58001 0.85066 0.0
H1072 H 0.74617 0.08091 0.64471 0.0
H1073 H 0.62531 0.1204 0.61708 0.0
H1074 H 0.65601 0.11963 0.58067 0.0
H1075 H 0.71495 0.10071 0.55609 0.0
H1076 H 0.83524 0.05945 0.58298 0.0
H1077 H 0.80762 0.06873 0.62009 0.0
C1078 C 0.72681 0.08997 0.63075 0.0
C1079 C 0.68338 0.10027 0.63368 0.0
C1080 C 0.74465 0.08928 0.60964 0.0
C1081 C 0.65872 0.11191 0.61537 0.0
C1082 C 0.67624 0.11158 0.59446 0.0
C1083 C 0.73536 0.09519 0.57014 0.0
C1084 C 0.77706 0.08012 0.56703 0.0
C1085 C 0.71885 0.09948 0.59133 0.0
C1086 C 0.80317 0.07182 0.5852 0.0
C1087 C 0.78724 0.07667 0.60636 0.0
H1088 H 0.23235 0.46632 0.38524 0.0
H1089 H 0.10743 0.41549 0.37154 0.0
H1090 H 0.11256 0.44122 0.33384 0.0
H1091 H 0.15535 0.47357 0.30375 0.0
H1092 H 0.27946 0.52607 0.31916 0.0
H1093 H 0.27259 0.50237 0.35651 0.0
C1094 C 0.20619 0.46089 0.37416 0.0
C1095 C 0.16987 0.43848 0.38131 0.0
C1096 C 0.2097 0.47499 0.35237 0.0
C1097 C 0.13611 0.43223 0.36647 0.0
C1098 C 0.13902 0.44688 0.34484 0.0
C1099 C 0.18066 0.48021 0.31529 0.0
C1100 C 0.21864 0.49999 0.30802 0.0
C1101 C 0.17611 0.46759 0.33741 0.0
C1102 C 0.25067 0.50891 0.32362 0.0
C1103 C 0.24662 0.49597 0.34529 0.0
H1104 H 0.78408 0.59752 0.41835 0.0
H1105 H 0.64793 0.60408 0.42878 0.0
H1106 H 0.65844 0.59784 0.4682 0.0
H1107 H 0.70631 0.58193 0.49935 0.0
H1108 H 0.84247 0.57887 0.48904 0.0
H1109 H 0.83238 0.59351 0.45011 0.0
C1110 C 0.7569 0.59862 0.42934 0.0
C1111 C 0.71539 0.60129 0.42075 0.0
C1112 C 0.76324 0.5958 0.45203 0.0
C1113 C 0.68027 0.60255 0.43508 0.0
C1114 C 0.68622 0.59873 0.45761 0.0
C1115 C 0.73366 0.5862 0.48865 0.0
C1116 C 0.77506 0.57998 0.4969 0.0
C1117 C 0.72752 0.59437 0.46625 0.0
C1118 C 0.8104 0.58439 0.48294 0.0
C1119 C 0.80459 0.59221 0.46068 0.0
H1120 H 0.14431 0.99355 0.67267 0.0
H1121 H 0.20745 0.87413 0.68708 0.0
H1122 H 0.22639 0.8992 0.72323 0.0
H1123 H 0.22852 0.95609 0.75022 0.0
H1124 H 0.16369 0.07489 0.73744 0.0
H1125 H 0.14082 0.04891 0.70162 0.0
C1126 C 0.16189 0.9731 0.68385 0.0
C1127 C 0.1743 0.93203 0.67726 0.0
C1128 C 0.172 0.98742 0.70501 0.0
C1129 C 0.19707 0.9057 0.69187 0.0
C1130 C 0.20804 0.92 0.71255 0.0
C1131 C 0.20857 0.97583 0.73974 0.0
C1132 C 0.19759 0.01712 0.74637 0.0
C1133 C 0.19591 0.9608 0.71926 0.0
C1134 C 0.17197 0.04269 0.73271 0.0
C1135 C 0.15938 0.02804 0.71215 0.0
H1136 H 0.81855 0.43053 0.99737 0.0
H1137 H 0.69269 0.48067 0.98447 0.0
H1138 H 0.70437 0.47412 0.94528 0.0
H1139 H 0.75285 0.46125 0.91462 0.0
H1140 H 0.8784 0.40919 0.92672 0.0
H1141 H 0.86429 0.40872 0.96602 0.0
C1142 C 0.79333 0.43858 0.98593 0.0
C1143 C 0.75469 0.45574 0.99374 0.0
C1144 C 0.80044 0.43503 0.96322 0.0
C1145 C 0.72245 0.46688 0.97878 0.0
C1146 C 0.72928 0.46356 0.95636 0.0
C1147 C 0.77703 0.44937 0.92581 0.0
C1148 C 0.81686 0.43585 0.91766 0.0
C1149 C 0.76858 0.44886 0.94837 0.0
C1150 C 0.84753 0.42006 0.93247 0.0
C1151 C 0.8395 0.41984 0.95501 0.0
H1152 H 0.32494 0.08361 0.25047 0.0
H1153 H 0.3659 0.95913 0.23002 0.0
H1154 H 0.37562 0.9857 0.19252 0.0
H1155 H 0.36535 0.04369 0.16481 0.0
H1156 H 0.32372 0.16761 0.18673 0.0
H1157 H 0.32068 0.14193 0.22408 0.0
C1158 C 0.33748 0.0628 0.23791 0.0
C1159 C 0.34541 0.01983 0.24294 0.0
C1160 C 0.34166 0.07796 0.21646 0.0
C1161 C 0.36064 0.99268 0.22654 0.0
C1162 C 0.3654 1.00769 0.20505 0.0
C1163 C 0.35579 0.06491 0.17782 0.0
C1164 C 0.34474 0.10748 0.17292 0.0
C1165 C 0.35472 0.05006 0.19965 0.0
C1166 C 0.33267 0.13477 0.18998 0.0
C1167 C 0.33093 0.12018 0.21144 0.0
H1168 H 0.32256 0.47867 0.55567 0.0
H1169 H 0.20371 0.41461 0.56942 0.0
H1170 H 0.22969 0.39543 0.60615 0.0
H1171 H 0.28521 0.40268 0.63551 0.0
H1172 H 0.40307 0.46791 0.6198 0.0
H1173 H 0.37781 0.48239 0.58314 0.0
C1174 C 0.30255 0.45994 0.56661 0.0
C1175 C 0.26133 0.44821 0.55996 0.0
C1176 C 0.31715 0.45029 0.58762 0.0
C1177 C 0.23577 0.42372 0.57417 0.0
C1178 C 0.25042 0.41331 0.59525 0.0
C1179 C 0.30522 0.41983 0.62395 0.0
C1180 C 0.34604 0.43405 0.63037 0.0
C1181 C 0.29077 0.42742 0.60239 0.0
C1182 C 0.37181 0.45606 0.61522 0.0
C1183 C 0.35742 0.46447 0.59421 0.0
H1184 H 0.89551 0.09448 0.37077 0.0
H1185 H 0.78969 0.03588 0.40502 0.0
H1186 H 0.76967 0.99771 0.37205 0.0
H1187 H 0.77899 0.98486 0.33309 0.0
H1188 H 0.88069 0.04796 0.29778 0.0
H1189 H 0.90696 0.0785 0.33184 0.0
C1190 C 0.86834 0.073 0.37111 0.0
C1191 C 0.84412 0.06822 0.3904 0.0
C1192 C 0.85654 0.05156 0.35194 0.0
C1193 C 0.80907 0.04012 0.3905 0.0
C1194 C 0.79751 0.0183 0.37161 0.0
C1195 C 0.80686 1.00545 0.33276 0.0
C1196 C 0.82718 0.01487 0.31273 0.0
C1197 C 0.82053 0.02443 0.35218 0.0
C1198 C 0.86429 0.04016 0.31285 0.0
C1199 C 0.87904 0.05806 0.33232 0.0
H1200 H 0.22413 0.52479 0.06665 0.0
H1201 H 0.30674 0.63363 0.05615 0.0
H1202 H 0.28529 0.66226 0.09139 0.0
H1203 H 0.24473 0.65495 0.12619 0.0
H1204 H 0.17103 0.54086 0.13776 0.0
H1205 H 0.1898 0.51428 0.10173 0.0
C1206 C 0.23857 0.55426 0.0721 0.0
C1207 C 0.2675 0.57651 0.05853 0.0
C1208 C 0.22847 0.56915 0.09295 0.0
C1209 C 0.28389 0.61578 0.06584 0.0
C1210 C 0.27215 0.63198 0.08623 0.0
C1211 C 0.2335 0.62403 0.12083 0.0
C1212 C 0.20722 0.59946 0.13463 0.0
C1213 C 0.24486 0.60867 0.10007 0.0
C1214 C 0.19216 0.55974 0.12756 0.0
C1215 C 0.20242 0.5448 0.10687 0.0
H1216 H 0.71505 0.02159 0.89416 0.0
H1217 H 0.65923 0.89905 0.88013 0.0
H1218 H 0.65724 0.91707 0.84123 0.0
H1219 H 0.67948 0.96484 0.81072 0.0
H1220 H 0.73376 0.08753 0.82544 0.0
H1221 H 0.72786 0.07264 0.86448 0.0
C1222 C 0.70192 0.99903 0.88264 0.0
C1223 C 0.68782 0.95887 0.89001 0.0
C1224 C 0.70058 1.00971 0.86036 0.0
C1225 C 0.67045 0.93017 0.87488 0.0
C1226 C 0.66939 0.9404 0.8526 0.0
C1227 C 0.68839 0.98875 0.82257 0.0
C1228 C 0.70652 0.02737 0.81541 0.0
C1229 C 0.68529 0.97972 0.84508 0.0
C1230 C 0.71901 0.05792 0.83076 0.0
C1231 C 0.71612 0.04921 0.85304 0.0
H1232 H 0.60223 0.2311 0.10775 0.0
H1233 H 0.57256 0.35745 0.13058 0.0
H1234 H 0.49719 0.33863 0.13393 0.0
H1235 H 0.43831 0.28767 0.12855 0.0
H1236 H 0.46684 0.16224 0.10397 0.0
H1237 H 0.54294 0.17913 0.10319 0.0
C1238 C 0.57935 0.2541 0.11389 0.0
C1239 C 0.59325 0.29548 0.11917 0.0
C1240 C 0.53536 0.24339 0.11525 0.0
C1241 C 0.56285 0.32527 0.12654 0.0
C1242 C 0.51959 0.31461 0.1284 0.0
C1243 C 0.46118 0.26386 0.12325 0.0
C1244 C 0.44646 0.22374 0.11634 0.0
C1245 C 0.50523 0.27397 0.12252 0.0
C1246 C 0.47687 0.19354 0.10929 0.0
C1247 C 0.52065 0.20312 0.10886 0.0
H1248 H 0.58842 0.72091 0.36872 0.0
H1249 H 0.46572 0.65938 0.36227 0.0
H1250 H 0.43008 0.72888 0.36288 0.0
H1251 H 0.43402 0.80764 0.36445 0.0
H1252 H 0.55742 0.86779 0.37186 0.0
H1253 H 0.59217 0.79849 0.37172 0.0
C1254 C 0.55385 0.72259 0.36754 0.0
C1255 C 0.52984 0.68489 0.36549 0.0
C1256 C 0.53355 0.76256 0.3681 0.0
C1257 C 0.48503 0.68782 0.36406 0.0
C1258 C 0.4646 0.72761 0.36432 0.0
C1259 C 0.46846 0.80557 0.36624 0.0
C1260 C 0.49285 0.84314 0.36833 0.0
C1261 C 0.48855 0.76527 0.36627 0.0
C1262 C 0.53755 0.83965 0.37052 0.0
C1263 C 0.55764 0.79991 0.37031 0.0
H1264 H 0.10041 0.73478 0.60777 0.0
H1265 H 0.06262 0.86284 0.62412 0.0
H1266 H 0.9877 0.84082 0.62606 0.0
H1267 H 0.93199 0.78542 0.62188 0.0
H1268 H 0.97038 0.6581 0.60371 0.0
H1269 H 0.0449 0.67961 0.60352 0.0
C1270 C 0.07579 0.75765 0.61202 0.0
C1271 C 0.08717 0.80029 0.61596 0.0
C1272 C 0.03242 0.74501 0.61256 0.0
C1273 C 0.05473 0.82978 0.62101 0.0
C1274 C 1.01179 0.81723 0.6221 0.0
C1275 C 0.95662 0.76231 0.61801 0.0
C1276 C 0.94499 0.7201 0.61289 0.0
C1277 C 1.00007 0.77496 0.6177 0.0
C1278 C 0.97778 0.69086 0.60773 0.0
C1279 C 0.02077 0.70306 0.60764 0.0
H1280 H 0.09456 0.21888 0.85708 0.0
H1281 H 0.97409 0.15513 0.86824 0.0
H1282 H 0.93689 0.22347 0.8677 0.0
H1283 H 0.93821 0.30175 0.86417 0.0
H1284 H 0.05899 0.36592 0.85495 0.0
H1285 H 0.09615 0.2974 0.85462 0.0
C1286 C 0.0602 0.21998 0.85945 0.0
C1287 C 0.03728 0.18186 0.86281 0.0
C1288 C 0.03891 0.2596 0.85946 0.0
C1289 C 0.99271 0.18393 0.86589 0.0
C1290 C 0.97128 0.22305 0.86547 0.0
C1291 C 0.97264 0.30068 0.86206 0.0
C1292 C 0.99575 0.3389 0.85963 0.0
C1293 C 0.99401 0.26113 0.8623 0.0
C1294 C 0.04043 0.33699 0.85707 0.0
C1295 C 0.06175 0.29778 0.8568 0.0
H1296 H 0.55751 0.83385 0.9545 0.0
H1297 H 0.61226 0.72896 0.91866 0.0
H1298 H 0.54273 0.69436 0.91713 0.0
H1299 H 0.46642 0.69238 0.92681 0.0
H1300 H 0.40999 0.79913 0.96011 0.0
H1301 H 0.47989 0.8341 0.96205 0.0
C1302 C 0.55422 0.80347 0.94632 0.0
C1303 C 0.59032 0.78405 0.93684 0.0
C1304 C 0.51378 0.78383 0.94517 0.0
C1305 C 0.58523 0.74481 0.92612 0.0
C1306 C 0.5454 0.72481 0.92527 0.0
C1307 C 0.46952 0.72342 0.93437 0.0
C1308 C 0.43332 0.74312 0.94339 0.0
C1309 C 0.50953 0.74383 0.93486 0.0
C1310 C 0.43748 0.78346 0.95297 0.0
C1311 C 0.47744 0.8034 0.95413 0.0
H1312 H 0.50398 0.18399 0.66479 0.0
H1313 H 0.59546 0.20788 0.71605 0.0
H1314 H 0.56825 0.28002 0.71998 0.0
H1315 H 0.51866 0.33682 0.70917 0.0
H1316 H 0.42726 0.31529 0.65799 0.0
H1317 H 0.45417 0.24205 0.65368 0.0
C1318 C 0.51814 0.20502 0.67673 0.0
C1319 C 0.5521 0.19013 0.68996 0.0
C1320 C 0.50226 0.24704 0.67897 0.0
C1321 C 0.56974 0.21813 0.70541 0.0
C1322 C 0.55404 0.25957 0.70778 0.0
C1323 C 0.50462 0.3162 0.69707 0.0
C1324 C 0.47097 0.33136 0.68393 0.0
C1325 C 0.52037 0.2744 0.69469 0.0
C1326 C 0.45303 0.30411 0.66836 0.0
C1327 C 0.46852 0.26233 0.66588 0.0
H1328 H 0.09881 0.23982 0.43057 0.0
H1329 H 0.06038 0.36986 0.44243 0.0
H1330 H 0.98524 0.34889 0.44132 0.0
H1331 H 0.93022 0.29314 0.43817 0.0
H1332 H 0.96867 0.16224 0.42958 0.0
H1333 H 0.04382 0.18389 0.428 0.0
C1334 C 0.07396 0.26359 0.43272 0.0
C1335 C 0.0852 0.30634 0.43649 0.0
C1336 C 0.03075 0.25112 0.43261 0.0
C1337 C 0.05262 0.33669 0.43957 0.0
C1338 C 1.0096 0.32476 0.43889 0.0
C1339 C 0.95509 0.26953 0.43567 0.0
C1340 C 0.94407 0.22628 0.43372 0.0
C1341 C 0.99827 0.28204 0.43556 0.0
C1342 C 0.97653 0.19577 0.43102 0.0
C1343 C 0.01945 0.20812 0.43015 0.0
H1344 H 0.98627 0.68227 0.20386 0.0
H1345 H 0.10303 0.714 0.17011 0.0
H1346 H 0.08113 0.78882 0.16766 0.0
H1347 H 0.02965 0.84661 0.17637 0.0
H1348 H 0.91447 0.8142 0.21178 0.0
H1349 H 0.93506 0.73966 0.21248 0.0
C1350 C 1.00652 0.70547 0.19566 0.0
C1351 C 0.04597 0.69231 0.18693 0.0
C1352 C 0.99426 0.74895 0.19484 0.0
C1353 C 0.07235 0.72313 0.17687 0.0
C1354 C 0.05991 0.76608 0.17552 0.0
C1355 C 1.00892 0.82328 0.18412 0.0
C1356 C 0.97035 0.83677 0.19389 0.0
C1357 C 0.02108 0.77963 0.18466 0.0
C1358 C 0.94431 0.80552 0.20401 0.0
C1359 C 0.95599 0.76243 0.20444 0.0
loop_
_geom_bond_atom_site_label_1
_geom_bond_atom_site_label_2
_geom_bond_distance
_geom_bond_site_symmetry_2
_ccdc_geom_bond_type
O0 Tb1 2.292 . S
O0 C3 1.255 . S
Tb1 O0 2.292 . S
Tb1 O17 2.326 . S
Tb1 O19 2.500 . S
Tb1 O20 2.473 . S
Tb1 O23 2.324 . S
Eu2 O6 2.292 . S
Eu2 C7 2.852 . S
Eu2 O18 2.324 . S
Eu2 O22 2.326 . S
Eu2 O24 2.500 . S
Eu2 O25 2.473 . S
C3 O0 1.255 . S
C3 O4 1.247 . S
O4 C3 1.247 . S
C5 O17 1.242 . S
C5 O18 1.258 . S
O6 Eu2 2.292 . S
O6 C8 1.255 . S
C7 Eu2 2.852 . S
C7 C11 1.503 . S
C7 O24 1.273 . S
C7 O25 1.257 . S
C8 O6 1.255 . S
C8 O9 1.247 . S
O9 C8 1.247 . S
C10 O22 1.242 . S
C10 O23 1.258 . S
C11 C7 1.503 . S
C11 C12 1.379 . S
C11 C16 1.392 1_545 S
C12 C11 1.379 . S
C12 C13 1.404 1_554 S
C12 H26 0.929 . S
C13 C12 1.404 1_556 S
C13 C14 1.389 . S
C14 C13 1.389 . S
C14 C15 1.399 1_546 S
C14 H27 0.931 1_545 S
C15 C14 1.399 1_564 S
C15 C16 1.390 . S
C16 C11 1.392 1_565 S
C16 C15 1.390 . S
C16 H28 0.929 . S
O17 Tb1 2.326 . S
O17 C5 1.242 . S
O18 Eu2 2.324 . S
O18 C5 1.258 . S
O19 Tb1 2.500 . S
O19 C21 1.273 . S
O20 Tb1 2.473 . S
O20 C21 1.257 . S
C21 O19 1.273 . S
C21 O20 1.257 . S
O22 Eu2 2.326 . S
O22 C10 1.242 . S
O23 Tb1 2.324 . S
O23 C10 1.258 . S
O24 Eu2 2.500 . S
O24 C7 1.273 . S
O25 Eu2 2.473 . S
O25 C7 1.257 . S
H26 C12 0.929 . S
H27 C14 0.931 1_565 S
H28 C16 0.929 . S
O29 Tb30 2.292 . S
O29 C32 1.255 . S
Tb30 O29 2.292 . S
Tb30 O46 2.326 . S
Tb30 O48 2.500 . S
Tb30 O49 2.473 . S
Tb30 O52 2.324 . S
Eu31 O35 2.292 . S
Eu31 C36 2.852 . S
Eu31 O47 2.324 . S
Eu31 O51 2.326 . S
Eu31 O53 2.500 . S
Eu31 O54 2.473 . S
C32 O29 1.255 . S
C32 O33 1.247 . S
O33 C32 1.247 . S
C34 O46 1.242 . S
C34 O47 1.258 . S
O35 Eu31 2.292 . S
O35 C37 1.255 . S
C36 Eu31 2.852 . S
C36 C40 1.503 . S
C36 O53 1.273 . S
C36 O54 1.257 . S
C37 O35 1.255 . S
C37 O38 1.247 . S
O38 C37 1.247 . S
C39 O51 1.242 . S
C39 O52 1.258 . S
C40 C36 1.503 . S
C40 C41 1.379 . S
C40 C45 1.392 . S
C41 C40 1.379 . S
C41 C42 1.404 . S
C41 H55 0.929 . S
C42 C41 1.404 . S
C42 C43 1.389 . S
C43 C42 1.389 . S
C43 C44 1.399 . S
C43 H56 0.931 . S
C44 C43 1.399 . S
C44 C45 1.390 . S
C45 C40 1.392 . S
C45 C44 1.390 . S
C45 H57 0.929 . S
O46 Tb30 2.326 . S
O46 C34 1.242 . S
O47 Eu31 2.324 . S
O47 C34 1.258 . S
O48 Tb30 2.500 . S
O48 C50 1.273 . S
O49 Tb30 2.473 . S
O49 C50 1.257 . S
C50 O48 1.273 . S
C50 O49 1.257 . S
O51 Eu31 2.326 . S
O51 C39 1.242 . S
O52 Tb30 2.324 . S
O52 C39 1.258 . S
O53 Eu31 2.500 . S
O53 C36 1.273 . S
O54 Eu31 2.473 . S
O54 C36 1.257 . S
H55 C41 0.929 . S
H56 C43 0.931 . S
H57 C45 0.929 . S
O58 Tb59 2.292 . S
O58 C61 1.255 . S
Tb59 O58 2.292 . S
Tb59 O75 2.326 . S
Tb59 O77 2.500 . S
Tb59 O78 2.473 . S
Tb59 O81 2.324 . S
Eu60 O64 2.292 . S
Eu60 C65 2.852 . S
Eu60 O76 2.324 . S
Eu60 O80 2.326 . S
Eu60 O82 2.500 . S
Eu60 O83 2.473 . S
C61 O58 1.255 . S
C61 O62 1.247 . S
O62 C61 1.247 . S
C63 O75 1.242 . S
C63 O76 1.258 . S
O64 Eu60 2.292 . S
O64 C66 1.255 . S
C65 Eu60 2.852 . S
C65 C69 1.503 . S
C65 O82 1.273 . S
C65 O83 1.257 . S
C66 O64 1.255 . S
C66 O67 1.247 . S
O67 C66 1.247 . S
C68 O80 1.242 . S
C68 O81 1.258 . S
C69 C65 1.503 . S
C69 C70 1.379 . S
C69 C74 1.392 1_565 S
C70 C69 1.379 . S
C70 C71 1.404 . S
C70 H84 0.929 . S
C71 C70 1.404 . S
C71 C72 1.389 . S
C72 C71 1.389 . S
C72 C73 1.399 1_565 S
C72 H85 0.931 1_565 S
C73 C72 1.399 1_545 S
C73 C74 1.390 . S
C74 C69 1.392 1_545 S
C74 C73 1.390 . S
C74 H86 0.929 . S
O75 Tb59 2.326 . S
O75 C63 1.242 . S
O76 Eu60 2.324 . S
O76 C63 1.258 . S
O77 Tb59 2.500 . S
O77 C79 1.273 . S
O78 Tb59 2.473 . S
O78 C79 1.257 . S
C79 O77 1.273 . S
C79 O78 1.257 . S
O80 Eu60 2.326 . S
O80 C68 1.242 . S
O81 Tb59 2.324 . S
O81 C68 1.258 . S
O82 Eu60 2.500 . S
O82 C65 1.273 . S
O83 Eu60 2.473 . S
O83 C65 1.257 . S
H84 C70 0.929 . S
H85 C72 0.931 1_545 S
H86 C74 0.929 . S
O87 Tb88 2.292 1_455 S
O87 C90 1.255 . S
Tb88 O87 2.292 1_655 S
Tb88 O104 2.326 . S
Tb88 O106 2.500 1_655 S
Tb88 O107 2.473 . S
Tb88 O110 2.324 . S
Eu89 O93 2.292 . S
Eu89 C94 2.852 . S
Eu89 O105 2.324 . S
Eu89 O109 2.326 . S
Eu89 O111 2.500 . S
Eu89 O112 2.473 . S
C90 O87 1.255 . S
C90 O91 1.247 1_455 S
O91 C90 1.247 1_655 S
C92 O104 1.242 . S
C92 O105 1.258 . S
O93 Eu89 2.292 . S
O93 C95 1.255 . S
C94 Eu89 2.852 . S
C94 C98 1.503 . S
C94 O111 1.273 . S
C94 O112 1.257 . S
C95 O93 1.255 . S
C95 O96 1.247 . S
O96 C95 1.247 . S
C97 O109 1.242 . S
C97 O110 1.258 . S
C98 C94 1.503 . S
C98 C99 1.379 . S
C98 C103 1.392 . S
C99 C98 1.379 . S
C99 C100 1.404 . S
C99 H113 0.929 . S
C100 C99 1.404 . S
C100 C101 1.389 . S
C101 C100 1.389 . S
C101 C102 1.399 . S
C101 H114 0.931 . S
C102 C101 1.399 . S
C102 C103 1.390 . S
C103 C98 1.392 . S
C103 C102 1.390 . S
C103 H115 0.929 . S
O104 Tb88 2.326 . S
O104 C92 1.242 . S
O105 Eu89 2.324 . S
O105 C92 1.258 . S
O106 Tb88 2.500 1_455 S
O106 C108 1.273 . S
O107 Tb88 2.473 . S
O107 C108 1.257 1_655 S
C108 O106 1.273 . S
C108 O107 1.257 1_455 S
O109 Eu89 2.326 . S
O109 C97 1.242 . S
O110 Tb88 2.324 . S
O110 C97 1.258 . S
O111 Eu89 2.500 . S
O111 C94 1.273 . S
O112 Eu89 2.473 . S
O112 C94 1.257 . S
H113 C99 0.929 . S
H114 C101 0.931 . S
H115 C103 0.929 . S
O116 Tb117 2.292 . S
O116 C119 1.255 . S
Tb117 O116 2.292 . S
Tb117 O133 2.326 . S
Tb117 O135 2.500 . S
Tb117 O136 2.473 . S
Tb117 O139 2.324 . S
Eu118 O122 2.292 . S
Eu118 C123 2.852 . S
Eu118 O134 2.324 . S
Eu118 O138 2.326 . S
Eu118 O140 2.500 . S
Eu118 O141 2.473 . S
C119 O116 1.255 . S
C119 O120 1.247 . S
O120 C119 1.247 . S
C121 O133 1.242 . S
C121 O134 1.258 . S
O122 Eu118 2.292 . S
O122 C124 1.255 . S
C123 Eu118 2.852 . S
C123 C127 1.503 . S
C123 O140 1.273 . S
C123 O141 1.257 . S
C124 O122 1.255 . S
C124 O125 1.247 . S
O125 C124 1.247 . S
C126 O138 1.242 . S
C126 O139 1.258 . S
C127 C123 1.503 . S
C127 C128 1.379 . S
C127 C132 1.392 1_565 S
C128 C127 1.379 . S
C128 C129 1.404 1_556 S
C128 H142 0.929 . S
C129 C128 1.404 1_554 S
C129 C130 1.389 . S
C130 C129 1.389 . S
C130 C131 1.399 1_564 S
C130 H143 0.931 1_565 S
C131 C130 1.399 1_546 S
C131 C132 1.390 . S
C132 C127 1.392 1_545 S
C132 C131 1.390 . S
C132 H144 0.929 . S
O133 Tb117 2.326 . S
O133 C121 1.242 . S
O134 Eu118 2.324 . S
O134 C121 1.258 . S
O135 Tb117 2.500 . S
O135 C137 1.273 . S
O136 Tb117 2.473 . S
O136 C137 1.257 . S
C137 O135 1.273 . S
C137 O136 1.257 . S
O138 Eu118 2.326 . S
O138 C126 1.242 . S
O139 Tb117 2.324 . S
O139 C126 1.258 . S
O140 Eu118 2.500 . S
O140 C123 1.273 . S
O141 Eu118 2.473 . S
O141 C123 1.257 . S
H142 C128 0.929 . S
H143 C130 0.931 1_545 S
H144 C132 0.929 . S
O145 Tb146 2.292 . S
O145 C148 1.255 . S
Tb146 O145 2.292 . S
Tb146 O162 2.326 . S
Tb146 O164 2.500 . S
Tb146 O165 2.473 . S
Tb146 O168 2.324 . S
Eu147 O151 2.292 . S
Eu147 C152 2.852 . S
Eu147 O163 2.324 . S
Eu147 O167 2.326 . S
Eu147 O169 2.500 . S
Eu147 O170 2.473 . S
C148 O145 1.255 . S
C148 O149 1.247 . S
O149 C148 1.247 . S
C150 O162 1.242 . S
C150 O163 1.258 . S
O151 Eu147 2.292 . S
O151 C153 1.255 . S
C152 Eu147 2.852 . S
C152 C156 1.503 . S
C152 O169 1.273 . S
C152 O170 1.257 . S
C153 O151 1.255 . S
C153 O154 1.247 . S
O154 C153 1.247 . S
C155 O167 1.242 . S
C155 O168 1.258 . S
C156 C152 1.503 . S
C156 C157 1.379 . S
C156 C161 1.392 . S
C157 C156 1.379 . S
C157 C158 1.404 . S
C157 H171 0.929 . S
C158 C157 1.404 . S
C158 C159 1.389 . S
C159 C158 1.389 . S
C159 C160 1.399 . S
C159 H172 0.931 . S
C160 C159 1.399 . S
C160 C161 1.390 . S
C161 C156 1.392 . S
C161 C160 1.390 . S
C161 H173 0.929 . S
O162 Tb146 2.326 . S
O162 C150 1.242 . S
O163 Eu147 2.324 . S
O163 C150 1.258 . S
O164 Tb146 2.500 . S
O164 C166 1.273 . S
O165 Tb146 2.473 . S
O165 C166 1.257 . S
C166 O164 1.273 . S
C166 O165 1.257 . S
O167 Eu147 2.326 . S
O167 C155 1.242 . S
O168 Tb146 2.324 . S
O168 C155 1.258 . S
O169 Eu147 2.500 . S
O169 C152 1.273 . S
O170 Eu147 2.473 . S
O170 C152 1.257 . S
H171 C157 0.929 . S
H172 C159 0.931 . S
H173 C161 0.929 . S
O174 Tb175 2.292 . S
O174 C177 1.255 . S
Tb175 O174 2.292 . S
Tb175 O191 2.326 . S
Tb175 O193 2.500 . S
Tb175 O194 2.473 . S
Tb175 O197 2.324 . S
Eu176 O180 2.292 . S
Eu176 C181 2.852 . S
Eu176 O192 2.324 . S
Eu176 O196 2.326 . S
Eu176 O198 2.500 . S
Eu176 O199 2.473 . S
C177 O174 1.255 . S
C177 O178 1.247 . S
O178 C177 1.247 . S
C179 O191 1.242 . S
C179 O192 1.258 . S
O180 Eu176 2.292 . S
O180 C182 1.255 . S
C181 Eu176 2.852 . S
C181 C185 1.503 . S
C181 O198 1.273 . S
C181 O199 1.257 . S
C182 O180 1.255 . S
C182 O183 1.247 . S
O183 C182 1.247 . S
C184 O196 1.242 . S
C184 O197 1.258 . S
C185 C181 1.503 . S
C185 C186 1.379 . S
C185 C190 1.392 1_545 S
C186 C185 1.379 . S
C186 C187 1.404 . S
C186 H200 0.929 . S
C187 C186 1.404 . S
C187 C188 1.389 . S
C188 C187 1.389 . S
C188 C189 1.399 1_545 S
C188 H201 0.931 1_545 S
C189 C188 1.399 1_565 S
C189 C190 1.390 . S
C190 C185 1.392 1_565 S
C190 C189 1.390 . S
C190 H202 0.929 . S
O191 Tb175 2.326 . S
O191 C179 1.242 . S
O192 Eu176 2.324 . S
O192 C179 1.258 . S
O193 Tb175 2.500 . S
O193 C195 1.273 . S
O194 Tb175 2.473 . S
O194 C195 1.257 . S
C195 O193 1.273 . S
C195 O194 1.257 . S
O196 Eu176 2.326 . S
O196 C184 1.242 . S
O197 Tb175 2.324 . S
O197 C184 1.258 . S
O198 Eu176 2.500 . S
O198 C181 1.273 . S
O199 Eu176 2.473 . S
O199 C181 1.257 . S
H200 C186 0.929 . S
H201 C188 0.931 1_565 S
H202 C190 0.929 . S
O203 Tb204 2.292 1_655 S
O203 C206 1.255 . S
Tb204 O203 2.292 1_455 S
Tb204 O220 2.326 . S
Tb204 O222 2.500 1_455 S
Tb204 O223 2.473 . S
Tb204 O226 2.324 . S
Eu205 O209 2.292 . S
Eu205 C210 2.852 . S
Eu205 O221 2.324 . S
Eu205 O225 2.326 . S
Eu205 O227 2.500 . S
Eu205 O228 2.473 . S
C206 O203 1.255 . S
C206 O207 1.247 1_655 S
O207 C206 1.247 1_455 S
C208 O220 1.242 . S
C208 O221 1.258 . S
O209 Eu205 2.292 . S
O209 C211 1.255 . S
C210 Eu205 2.852 . S
C210 C214 1.503 . S
C210 O227 1.273 . S
C210 O228 1.257 . S
C211 O209 1.255 . S
C211 O212 1.247 . S
O212 C211 1.247 . S
C213 O225 1.242 . S
C213 O226 1.258 . S
C214 C210 1.503 . S
C214 C215 1.379 . S
C214 C219 1.392 . S
C215 C214 1.379 . S
C215 C216 1.404 . S
C215 H229 0.929 . S
C216 C215 1.404 . S
C216 C217 1.389 . S
C217 C216 1.389 . S
C217 C218 1.399 . S
C217 H230 0.931 . S
C218 C217 1.399 . S
C218 C219 1.390 . S
C219 C214 1.392 . S
C219 C218 1.390 . S
C219 H231 0.929 . S
O220 Tb204 2.326 . S
O220 C208 1.242 . S
O221 Eu205 2.324 . S
O221 C208 1.258 . S
O222 Tb204 2.500 1_655 S
O222 C224 1.273 . S
O223 Tb204 2.473 . S
O223 C224 1.257 1_455 S
C224 O222 1.273 . S
C224 O223 1.257 1_655 S
O225 Eu205 2.326 . S
O225 C213 1.242 . S
O226 Tb204 2.324 . S
O226 C213 1.258 . S
O227 Eu205 2.500 . S
O227 C210 1.273 . S
O228 Eu205 2.473 . S
O228 C210 1.257 . S
H229 C215 0.929 . S
H230 C217 0.931 . S
H231 C219 0.929 . S
O232 Tb233 2.292 . S
O232 C235 1.255 . S
Tb233 O232 2.292 . S
Tb233 O249 2.326 . S
Tb233 O251 2.500 . S
Tb233 O252 2.473 . S
Tb233 O255 2.324 . S
Eu234 O238 2.292 . S
Eu234 C239 2.852 . S
Eu234 O250 2.324 . S
Eu234 O254 2.326 . S
Eu234 O256 2.500 . S
Eu234 O257 2.473 . S
C235 O232 1.255 . S
C235 O236 1.247 . S
O236 C235 1.247 . S
C237 O249 1.242 . S
C237 O250 1.258 . S
O238 Eu234 2.292 . S
O238 C240 1.255 . S
C239 Eu234 2.852 . S
C239 C243 1.503 . S
C239 O256 1.273 . S
C239 O257 1.257 . S
C240 O238 1.255 . S
C240 O241 1.247 . S
O241 C240 1.247 . S
C242 O254 1.242 . S
C242 O255 1.258 . S
C243 C239 1.503 . S
C243 C244 1.379 . S
C243 C248 1.392 . S
C244 C243 1.379 . S
C244 C245 1.404 . S
C244 H258 0.929 . S
C245 C244 1.404 . S
C245 C246 1.389 . S
C246 C245 1.389 . S
C246 C247 1.399 . S
C246 H259 0.931 . S
C247 C246 1.399 . S
C247 C248 1.390 . S
C248 C243 1.392 . S
C248 C247 1.390 . S
C248 H260 0.929 . S
O249 Tb233 2.326 . S
O249 C237 1.242 . S
O250 Eu234 2.324 . S
O250 C237 1.258 . S
O251 Tb233 2.500 . S
O251 C253 1.273 . S
O252 Tb233 2.473 . S
O252 C253 1.257 . S
C253 O251 1.273 . S
C253 O252 1.257 . S
O254 Eu234 2.326 . S
O254 C242 1.242 . S
O255 Tb233 2.324 . S
O255 C242 1.258 . S
O256 Eu234 2.500 . S
O256 C239 1.273 . S
O257 Eu234 2.473 . S
O257 C239 1.257 . S
H258 C244 0.929 . S
H259 C246 0.931 . S
H260 C248 0.929 . S
O261 Tb262 2.292 1_645 S
O261 C264 1.255 . S
Tb262 O261 2.292 1_465 S
Tb262 O278 2.326 1_565 S
Tb262 O280 2.500 1_465 S
Tb262 O281 2.473 1_565 S
Tb262 O284 2.324 . S
Eu263 O267 2.292 . S
Eu263 C268 2.852 . S
Eu263 O279 2.324 . S
Eu263 O283 2.326 . S
Eu263 O285 2.500 . S
Eu263 O286 2.473 . S
C264 O261 1.255 . S
C264 O265 1.247 1_655 S
O265 C264 1.247 1_455 S
C266 O278 1.242 . S
C266 O279 1.258 . S
O267 Eu263 2.292 . S
O267 C269 1.255 . S
C268 Eu263 2.852 . S
C268 C272 1.503 . S
C268 O285 1.273 . S
C268 O286 1.257 . S
C269 O267 1.255 . S
C269 O270 1.247 . S
O270 C269 1.247 . S
C271 O283 1.242 1_565 S
C271 O284 1.258 . S
C272 C268 1.503 . S
C272 C273 1.379 . S
C272 C277 1.392 . S
C273 C272 1.379 . S
C273 C274 1.404 . S
C273 H287 0.929 . S
C274 C273 1.404 . S
C274 C275 1.389 . S
C275 C274 1.389 . S
C275 C276 1.399 . S
C275 H288 0.931 . S
C276 C275 1.399 . S
C276 C277 1.390 . S
C277 C272 1.392 . S
C277 C276 1.390 . S
C277 H289 0.929 . S
O278 Tb262 2.326 1_545 S
O278 C266 1.242 . S
O279 Eu263 2.324 . S
O279 C266 1.258 . S
O280 Tb262 2.500 1_645 S
O280 C282 1.273 . S
O281 Tb262 2.473 1_545 S
O281 C282 1.257 1_455 S
C282 O280 1.273 . S
C282 O281 1.257 1_655 S
O283 Eu263 2.326 . S
O283 C271 1.242 1_545 S
O284 Tb262 2.324 . S
O284 C271 1.258 . S
O285 Eu263 2.500 . S
O285 C268 1.273 . S
O286 Eu263 2.473 . S
O286 C268 1.257 . S
H287 C273 0.929 . S
H288 C275 0.931 . S
H289 C277 0.929 . S
O290 Tb291 2.292 . S
O290 C293 1.255 . S
Tb291 O290 2.292 . S
Tb291 O307 2.326 . S
Tb291 O309 2.500 . S
Tb291 O310 2.473 . S
Tb291 O313 2.324 . S
Eu292 O296 2.292 . S
Eu292 C297 2.852 . S
Eu292 O308 2.324 . S
Eu292 O312 2.326 . S
Eu292 O314 2.500 . S
Eu292 O315 2.473 . S
C293 O290 1.255 . S
C293 O294 1.247 . S
O294 C293 1.247 . S
C295 O307 1.242 . S
C295 O308 1.258 . S
O296 Eu292 2.292 . S
O296 C298 1.255 . S
C297 Eu292 2.852 . S
C297 C301 1.503 . S
C297 O314 1.273 . S
C297 O315 1.257 . S
C298 O296 1.255 . S
C298 O299 1.247 . S
O299 C298 1.247 . S
C300 O312 1.242 . S
C300 O313 1.258 . S
C301 C297 1.503 . S
C301 C302 1.379 . S
C301 C306 1.392 . S
C302 C301 1.379 . S
C302 C303 1.404 1_554 S
C302 H316 0.929 . S
C303 C302 1.404 1_556 S
C303 C304 1.389 . S
C304 C303 1.389 . S
C304 C305 1.399 1_556 S
C304 H317 0.931 . S
C305 C304 1.399 1_554 S
C305 C306 1.390 . S
C306 C301 1.392 . S
C306 C305 1.390 . S
C306 H318 0.929 . S
O307 Tb291 2.326 . S
O307 C295 1.242 . S
O308 Eu292 2.324 . S
O308 C295 1.258 . S
O309 Tb291 2.500 . S
O309 C311 1.273 . S
O310 Tb291 2.473 . S
O310 C311 1.257 . S
C311 O309 1.273 . S
C311 O310 1.257 . S
O312 Eu292 2.326 . S
O312 C300 1.242 . S
O313 Tb291 2.324 . S
O313 C300 1.258 . S
O314 Eu292 2.500 . S
O314 C297 1.273 . S
O315 Eu292 2.473 . S
O315 C297 1.257 . S
H316 C302 0.929 . S
H317 C304 0.931 . S
H318 C306 0.929 . S
O319 Tb320 2.292 1_565 S
O319 C322 1.255 . S
Tb320 O319 2.292 1_545 S
Tb320 O336 2.326 1_545 S
Tb320 O338 2.500 1_545 S
Tb320 O339 2.473 1_545 S
Tb320 O342 2.324 . S
Eu321 O325 2.292 . S
Eu321 C326 2.852 . S
Eu321 O337 2.324 . S
Eu321 O341 2.326 . S
Eu321 O343 2.500 . S
Eu321 O344 2.473 . S
C322 O319 1.255 . S
C322 O323 1.247 . S
O323 C322 1.247 . S
C324 O336 1.242 . S
C324 O337 1.258 . S
O325 Eu321 2.292 . S
O325 C327 1.255 . S
C326 Eu321 2.852 . S
C326 C330 1.503 . S
C326 O343 1.273 . S
C326 O344 1.257 . S
C327 O325 1.255 . S
C327 O328 1.247 . S
O328 C327 1.247 . S
C329 O341 1.242 1_545 S
C329 O342 1.258 . S
C330 C326 1.503 . S
C330 C331 1.379 . S
C330 C335 1.392 . S
C331 C330 1.379 . S
C331 C332 1.404 . S
C331 H345 0.929 . S
C332 C331 1.404 . S
C332 C333 1.389 . S
C333 C332 1.389 . S
C333 C334 1.399 . S
C333 H346 0.931 . S
C334 C333 1.399 . S
C334 C335 1.390 . S
C335 C330 1.392 . S
C335 C334 1.390 . S
C335 H347 0.929 . S
O336 Tb320 2.326 1_565 S
O336 C324 1.242 . S
O337 Eu321 2.324 . S
O337 C324 1.258 . S
O338 Tb320 2.500 1_565 S
O338 C340 1.273 . S
O339 Tb320 2.473 1_565 S
O339 C340 1.257 . S
C340 O338 1.273 . S
C340 O339 1.257 . S
O341 Eu321 2.326 . S
O341 C329 1.242 1_565 S
O342 Tb320 2.324 . S
O342 C329 1.258 . S
O343 Eu321 2.500 . S
O343 C326 1.273 . S
O344 Eu321 2.473 . S
O344 C326 1.257 . S
H345 C331 0.929 . S
H346 C333 0.931 . S
H347 C335 0.929 . S
O348 Tb349 2.292 . S
O348 C351 1.255 . S
Tb349 O348 2.292 . S
Tb349 O365 2.326 . S
Tb349 O367 2.500 . S
Tb349 O368 2.473 . S
Tb349 O371 2.324 . S
Eu350 O354 2.292 . S
Eu350 C355 2.852 . S
Eu350 O366 2.324 . S
Eu350 O370 2.326 . S
Eu350 O372 2.500 . S
Eu350 O373 2.473 . S
C351 O348 1.255 . S
C351 O352 1.247 . S
O352 C351 1.247 . S
C353 O365 1.242 . S
C353 O366 1.258 . S
O354 Eu350 2.292 . S
O354 C356 1.255 . S
C355 Eu350 2.852 . S
C355 C359 1.503 . S
C355 O372 1.273 . S
C355 O373 1.257 . S
C356 O354 1.255 . S
C356 O357 1.247 . S
O357 C356 1.247 . S
C358 O370 1.242 . S
C358 O371 1.258 . S
C359 C355 1.503 . S
C359 C360 1.379 . S
C359 C364 1.392 . S
C360 C359 1.379 . S
C360 C361 1.404 . S
C360 H374 0.929 . S
C361 C360 1.404 . S
C361 C362 1.389 . S
C362 C361 1.389 . S
C362 C363 1.399 . S
C362 H375 0.931 . S
C363 C362 1.399 . S
C363 C364 1.390 . S
C364 C359 1.392 . S
C364 C363 1.390 . S
C364 H376 0.929 . S
O365 Tb349 2.326 . S
O365 C353 1.242 . S
O366 Eu350 2.324 . S
O366 C353 1.258 . S
O367 Tb349 2.500 . S
O367 C369 1.273 . S
O368 Tb349 2.473 . S
O368 C369 1.257 . S
C369 O367 1.273 . S
C369 O368 1.257 . S
O370 Eu350 2.326 . S
O370 C358 1.242 . S
O371 Tb349 2.324 . S
O371 C358 1.258 . S
O372 Eu350 2.500 . S
O372 C355 1.273 . S
O373 Eu350 2.473 . S
O373 C355 1.257 . S
H374 C360 0.929 . S
H375 C362 0.931 . S
H376 C364 0.929 . S
O377 Tb378 2.292 1_465 S
O377 C380 1.255 . S
Tb378 O377 2.292 1_645 S
Tb378 O394 2.326 1_545 S
Tb378 O396 2.500 1_645 S
Tb378 O397 2.473 1_545 S
Tb378 O400 2.324 . S
Eu379 O383 2.292 . S
Eu379 C384 2.852 . S
Eu379 O395 2.324 . S
Eu379 O399 2.326 . S
Eu379 O401 2.500 . S
Eu379 O402 2.473 . S
C380 O377 1.255 . S
C380 O381 1.247 1_455 S
O381 C380 1.247 1_655 S
C382 O394 1.242 . S
C382 O395 1.258 . S
O383 Eu379 2.292 . S
O383 C385 1.255 . S
C384 Eu379 2.852 . S
C384 C388 1.503 . S
C384 O401 1.273 . S
C384 O402 1.257 . S
C385 O383 1.255 . S
C385 O386 1.247 . S
O386 C385 1.247 . S
C387 O399 1.242 1_545 S
C387 O400 1.258 . S
C388 C384 1.503 . S
C388 C389 1.379 . S
C388 C393 1.392 . S
C389 C388 1.379 . S
C389 C390 1.404 . S
C389 H403 0.929 . S
C390 C389 1.404 . S
C390 C391 1.389 . S
C391 C390 1.389 . S
C391 C392 1.399 . S
C391 H404 0.931 . S
C392 C391 1.399 . S
C392 C393 1.390 . S
C393 C388 1.392 . S
C393 C392 1.390 . S
C393 H405 0.929 . S
O394 Tb378 2.326 1_565 S
O394 C382 1.242 . S
O395 Eu379 2.324 . S
O395 C382 1.258 . S
O396 Tb378 2.500 1_465 S
O396 C398 1.273 . S
O397 Tb378 2.473 1_565 S
O397 C398 1.257 1_655 S
C398 O396 1.273 . S
C398 O397 1.257 1_455 S
O399 Eu379 2.326 . S
O399 C387 1.242 1_565 S
O400 Tb378 2.324 . S
O400 C387 1.258 . S
O401 Eu379 2.500 . S
O401 C384 1.273 . S
O402 Eu379 2.473 . S
O402 C384 1.257 . S
H403 C389 0.929 . S
H404 C391 0.931 . S
H405 C393 0.929 . S
O406 Tb407 2.292 . S
O406 C409 1.255 . S
Tb407 O406 2.292 . S
Tb407 O423 2.326 . S
Tb407 O425 2.500 . S
Tb407 O426 2.473 . S
Tb407 O429 2.324 . S
Eu408 O412 2.292 . S
Eu408 C413 2.852 . S
Eu408 O424 2.324 . S
Eu408 O428 2.326 . S
Eu408 O430 2.500 . S
Eu408 O431 2.473 . S
C409 O406 1.255 . S
C409 O410 1.247 . S
O410 C409 1.247 . S
C411 O423 1.242 . S
C411 O424 1.258 . S
O412 Eu408 2.292 . S
O412 C414 1.255 . S
C413 Eu408 2.852 . S
C413 C417 1.503 . S
C413 O430 1.273 . S
C413 O431 1.257 . S
C414 O412 1.255 . S
C414 O415 1.247 . S
O415 C414 1.247 . S
C416 O428 1.242 . S
C416 O429 1.258 . S
C417 C413 1.503 . S
C417 C418 1.379 . S
C417 C422 1.392 . S
C418 C417 1.379 . S
C418 C419 1.404 1_556 S
C418 H432 0.929 . S
C419 C418 1.404 1_554 S
C419 C420 1.389 . S
C420 C419 1.389 . S
C420 C421 1.399 1_554 S
C420 H433 0.931 . S
C421 C420 1.399 1_556 S
C421 C422 1.390 . S
C422 C417 1.392 . S
C422 C421 1.390 . S
C422 H434 0.929 . S
O423 Tb407 2.326 . S
O423 C411 1.242 . S
O424 Eu408 2.324 . S
O424 C411 1.258 . S
O425 Tb407 2.500 . S
O425 C427 1.273 . S
O426 Tb407 2.473 . S
O426 C427 1.257 . S
C427 O425 1.273 . S
C427 O426 1.257 . S
O428 Eu408 2.326 . S
O428 C416 1.242 . S
O429 Tb407 2.324 . S
O429 C416 1.258 . S
O430 Eu408 2.500 . S
O430 C413 1.273 . S
O431 Eu408 2.473 . S
O431 C413 1.257 . S
H432 C418 0.929 . S
H433 C420 0.931 . S
H434 C422 0.929 . S
O435 Tb436 2.292 1_545 S
O435 C438 1.255 . S
Tb436 O435 2.292 1_565 S
Tb436 O452 2.326 1_565 S
Tb436 O454 2.500 1_565 S
Tb436 O455 2.473 1_565 S
Tb436 O458 2.324 . S
Eu437 O441 2.292 . S
Eu437 C442 2.852 . S
Eu437 O453 2.324 . S
Eu437 O457 2.326 . S
Eu437 O459 2.500 . S
Eu437 O460 2.473 . S
C438 O435 1.255 . S
C438 O439 1.247 . S
O439 C438 1.247 . S
C440 O452 1.242 . S
C440 O453 1.258 . S
O441 Eu437 2.292 . S
O441 C443 1.255 . S
C442 Eu437 2.852 . S
C442 C446 1.503 . S
C442 O459 1.273 . S
C442 O460 1.257 . S
C443 O441 1.255 . S
C443 O444 1.247 . S
O444 C443 1.247 . S
C445 O457 1.242 1_565 S
C445 O458 1.258 . S
C446 C442 1.503 . S
C446 C447 1.379 . S
C446 C451 1.392 . S
C447 C446 1.379 . S
C447 C448 1.404 . S
C447 H461 0.929 . S
C448 C447 1.404 . S
C448 C449 1.389 . S
C449 C448 1.389 . S
C449 C450 1.399 . S
C449 H462 0.931 . S
C450 C449 1.399 . S
C450 C451 1.390 . S
C451 C446 1.392 . S
C451 C450 1.390 . S
C451 H463 0.929 . S
O452 Tb436 2.326 1_545 S
O452 C440 1.242 . S
O453 Eu437 2.324 . S
O453 C440 1.258 . S
O454 Tb436 2.500 1_545 S
O454 C456 1.273 . S
O455 Tb436 2.473 1_545 S
O455 C456 1.257 . S
C456 O454 1.273 . S
C456 O455 1.257 . S
O457 Eu437 2.326 . S
O457 C445 1.242 1_545 S
O458 Tb436 2.324 . S
O458 C445 1.258 . S
O459 Eu437 2.500 . S
O459 C442 1.273 . S
O460 Eu437 2.473 . S
O460 C442 1.257 . S
H461 C447 0.929 . S
H462 C449 0.931 . S
H463 C451 0.929 . S
H464 C470 0.930 . S
H465 C473 0.930 . S
H466 C474 0.930 . S
H467 C475 0.930 . S
H468 C478 0.930 . S
H469 C479 0.930 . S
C470 H464 0.930 . S
C470 C471 1.355 . S
C470 C472 1.415 . S
C471 C470 1.355 . S
C471 C473 1.419 . S
C472 C470 1.415 . S
C472 C477 1.425 . S
C472 C479 1.409 . S
C473 H465 0.930 . S
C473 C471 1.419 . S
C473 C474 1.362 . S
C474 H466 0.930 . S
C474 C473 1.362 . S
C474 C477 1.409 . S
C475 H467 0.930 . S
C475 C476 1.355 . S
C475 C477 1.415 . S
C476 C475 1.355 . S
C476 C478 1.419 . S
C477 C472 1.425 . S
C477 C474 1.409 . S
C477 C475 1.415 . S
C478 H468 0.930 . S
C478 C476 1.419 . S
C478 C479 1.362 . S
C479 H469 0.930 . S
C479 C472 1.409 . S
C479 C478 1.362 . S
H480 C486 0.930 . S
H481 C489 0.930 . S
H482 C490 0.930 . S
H483 C491 0.930 . S
H484 C494 0.930 . S
H485 C495 0.930 . S
C486 H480 0.930 . S
C486 C487 1.355 . S
C486 C488 1.415 . S
C487 C486 1.355 . S
C487 C489 1.419 . S
C488 C486 1.415 . S
C488 C493 1.425 . S
C488 C495 1.409 . S
C489 H481 0.930 . S
C489 C487 1.419 . S
C489 C490 1.362 . S
C490 H482 0.930 . S
C490 C489 1.362 . S
C490 C493 1.409 . S
C491 H483 0.930 . S
C491 C492 1.355 . S
C491 C493 1.415 . S
C492 C491 1.355 . S
C492 C494 1.419 . S
C493 C488 1.425 . S
C493 C490 1.409 . S
C493 C491 1.415 . S
C494 H484 0.930 . S
C494 C492 1.419 . S
C494 C495 1.362 . S
C495 H485 0.930 . S
C495 C488 1.409 . S
C495 C494 1.362 . S
H496 C502 0.930 . S
H497 C505 0.930 . S
H498 C506 0.930 . S
H499 C507 0.930 . S
H500 C510 0.930 . S
H501 C511 0.930 . S
C502 H496 0.930 . S
C502 C503 1.355 . S
C502 C504 1.415 . S
C503 C502 1.355 . S
C503 C505 1.419 . S
C504 C502 1.415 . S
C504 C509 1.425 . S
C504 C511 1.409 . S
C505 H497 0.930 . S
C505 C503 1.419 . S
C505 C506 1.362 . S
C506 H498 0.930 . S
C506 C505 1.362 . S
C506 C509 1.409 . S
C507 H499 0.930 . S
C507 C508 1.355 . S
C507 C509 1.415 . S
C508 C507 1.355 . S
C508 C510 1.419 . S
C509 C504 1.425 . S
C509 C506 1.409 . S
C509 C507 1.415 . S
C510 H500 0.930 . S
C510 C508 1.419 . S
C510 C511 1.362 . S
C511 H501 0.930 . S
C511 C504 1.409 . S
C511 C510 1.362 . S
H512 C518 0.930 . S
H513 C521 0.930 . S
H514 C522 0.930 . S
H515 C523 0.930 . S
H516 C526 0.930 . S
H517 C527 0.930 . S
C518 H512 0.930 . S
C518 C519 1.355 . S
C518 C520 1.415 . S
C519 C518 1.355 . S
C519 C521 1.419 . S
C520 C518 1.415 . S
C520 C525 1.425 . S
C520 C527 1.409 . S
C521 H513 0.930 . S
C521 C519 1.419 . S
C521 C522 1.362 . S
C522 H514 0.930 . S
C522 C521 1.362 . S
C522 C525 1.409 . S
C523 H515 0.930 . S
C523 C524 1.355 . S
C523 C525 1.415 . S
C524 C523 1.355 . S
C524 C526 1.419 . S
C525 C520 1.425 . S
C525 C522 1.409 . S
C525 C523 1.415 . S
C526 H516 0.930 . S
C526 C524 1.419 . S
C526 C527 1.362 . S
C527 H517 0.930 . S
C527 C520 1.409 . S
C527 C526 1.362 . S
H528 C534 0.930 . S
H529 C537 0.930 . S
H530 C538 0.930 . S
H531 C539 0.930 . S
H532 C542 0.930 . S
H533 C543 0.930 . S
C534 H528 0.930 . S
C534 C535 1.355 . S
C534 C536 1.415 . S
C535 C534 1.355 . S
C535 C537 1.419 . S
C536 C534 1.415 . S
C536 C541 1.425 . S
C536 C543 1.409 . S
C537 H529 0.930 . S
C537 C535 1.419 . S
C537 C538 1.362 . S
C538 H530 0.930 . S
C538 C537 1.362 . S
C538 C541 1.409 . S
C539 H531 0.930 . S
C539 C540 1.355 . S
C539 C541 1.415 . S
C540 C539 1.355 . S
C540 C542 1.419 . S
C541 C536 1.425 . S
C541 C538 1.409 . S
C541 C539 1.415 . S
C542 H532 0.930 . S
C542 C540 1.419 . S
C542 C543 1.362 . S
C543 H533 0.930 . S
C543 C536 1.409 . S
C543 C542 1.362 . S
H544 C550 0.930 . S
H545 C553 0.930 . S
H546 C554 0.930 . S
H547 C555 0.930 . S
H548 C558 0.930 . S
H549 C559 0.930 . S
C550 H544 0.930 . S
C550 C551 1.355 . S
C550 C552 1.415 . S
C551 C550 1.355 . S
C551 C553 1.419 . S
C552 C550 1.415 . S
C552 C557 1.425 . S
C552 C559 1.409 . S
C553 H545 0.930 . S
C553 C551 1.419 . S
C553 C554 1.362 . S
C554 H546 0.930 . S
C554 C553 1.362 . S
C554 C557 1.409 . S
C555 H547 0.930 . S
C555 C556 1.355 . S
C555 C557 1.415 . S
C556 C555 1.355 . S
C556 C558 1.419 . S
C557 C552 1.425 . S
C557 C554 1.409 . S
C557 C555 1.415 . S
C558 H548 0.930 . S
C558 C556 1.419 . S
C558 C559 1.362 . S
C559 H549 0.930 . S
C559 C552 1.409 . S
C559 C558 1.362 . S
H560 C566 0.930 . S
H561 C569 0.930 . S
H562 C570 0.930 . S
H563 C571 0.930 . S
H564 C574 0.930 . S
H565 C575 0.930 . S
C566 H560 0.930 . S
C566 C567 1.355 . S
C566 C568 1.415 . S
C567 C566 1.355 . S
C567 C569 1.419 . S
C568 C566 1.415 . S
C568 C573 1.425 . S
C568 C575 1.409 . S
C569 H561 0.930 . S
C569 C567 1.419 . S
C569 C570 1.362 . S
C570 H562 0.930 . S
C570 C569 1.362 . S
C570 C573 1.409 . S
C571 H563 0.930 . S
C571 C572 1.355 . S
C571 C573 1.415 . S
C572 C571 1.355 . S
C572 C574 1.419 . S
C573 C568 1.425 . S
C573 C570 1.409 . S
C573 C571 1.415 . S
C574 H564 0.930 . S
C574 C572 1.419 . S
C574 C575 1.362 . S
C575 H565 0.930 . S
C575 C568 1.409 . S
C575 C574 1.362 . S
H576 C582 0.930 . S
H577 C585 0.930 . S
H578 C586 0.930 . S
H579 C587 0.930 . S
H580 C590 0.930 . S
H581 C591 0.930 . S
C582 H576 0.930 . S
C582 C583 1.355 . S
C582 C584 1.415 . S
C583 C582 1.355 . S
C583 C585 1.419 . S
C584 C582 1.415 . S
C584 C589 1.425 . S
C584 C591 1.409 . S
C585 H577 0.930 . S
C585 C583 1.419 . S
C585 C586 1.362 . S
C586 H578 0.930 . S
C586 C585 1.362 . S
C586 C589 1.409 . S
C587 H579 0.930 . S
C587 C588 1.355 . S
C587 C589 1.415 . S
C588 C587 1.355 . S
C588 C590 1.419 . S
C589 C584 1.425 . S
C589 C586 1.409 . S
C589 C587 1.415 . S
C590 H580 0.930 . S
C590 C588 1.419 . S
C590 C591 1.362 . S
C591 H581 0.930 . S
C591 C584 1.409 . S
C591 C590 1.362 . S
H592 C598 0.930 . S
H593 C601 0.930 . S
H594 C602 0.930 . S
H595 C603 0.930 . S
H596 C606 0.930 . S
H597 C607 0.930 . S
C598 H592 0.930 . S
C598 C599 1.355 . S
C598 C600 1.415 . S
C599 C598 1.355 . S
C599 C601 1.419 . S
C600 C598 1.415 . S
C600 C605 1.425 . S
C600 C607 1.409 . S
C601 H593 0.930 . S
C601 C599 1.419 . S
C601 C602 1.362 . S
C602 H594 0.930 . S
C602 C601 1.362 . S
C602 C605 1.409 . S
C603 H595 0.930 . S
C603 C604 1.355 . S
C603 C605 1.415 . S
C604 C603 1.355 . S
C604 C606 1.419 . S
C605 C600 1.425 . S
C605 C602 1.409 . S
C605 C603 1.415 . S
C606 H596 0.930 . S
C606 C604 1.419 . S
C606 C607 1.362 . S
C607 H597 0.930 . S
C607 C600 1.409 . S
C607 C606 1.362 . S
H608 C614 0.930 . S
H609 C617 0.930 . S
H610 C618 0.930 . S
H611 C619 0.930 . S
H612 C622 0.930 . S
H613 C623 0.930 . S
C614 H608 0.930 . S
C614 C615 1.355 1_565 S
C614 C616 1.415 . S
C615 C614 1.355 1_545 S
C615 C617 1.419 . S
C616 C614 1.415 . S
C616 C621 1.425 . S
C616 C623 1.409 . S
C617 H609 0.930 . S
C617 C615 1.419 . S
C617 C618 1.362 . S
C618 H610 0.930 . S
C618 C617 1.362 . S
C618 C621 1.409 1_545 S
C619 H611 0.930 . S
C619 C620 1.355 . S
C619 C621 1.415 . S
C620 C619 1.355 . S
C620 C622 1.419 . S
C621 C616 1.425 . S
C621 C618 1.409 1_565 S
C621 C619 1.415 . S
C622 H612 0.930 . S
C622 C620 1.419 . S
C622 C623 1.362 . S
C623 H613 0.930 . S
C623 C616 1.409 . S
C623 C622 1.362 . S
H624 C630 0.930 . S
H625 C633 0.930 . S
H626 C634 0.930 . S
H627 C635 0.930 . S
H628 C638 0.930 . S
H629 C639 0.930 . S
C630 H624 0.930 . S
C630 C631 1.355 . S
C630 C632 1.415 . S
C631 C630 1.355 . S
C631 C633 1.419 . S
C632 C630 1.415 . S
C632 C637 1.425 . S
C632 C639 1.409 . S
C633 H625 0.930 . S
C633 C631 1.419 . S
C633 C634 1.362 . S
C634 H626 0.930 . S
C634 C633 1.362 . S
C634 C637 1.409 . S
C635 H627 0.930 . S
C635 C636 1.355 . S
C635 C637 1.415 . S
C636 C635 1.355 . S
C636 C638 1.419 . S
C637 C632 1.425 . S
C637 C634 1.409 . S
C637 C635 1.415 . S
C638 H628 0.930 . S
C638 C636 1.419 . S
C638 C639 1.362 . S
C639 H629 0.930 . S
C639 C632 1.409 . S
C639 C638 1.362 . S
H640 C646 0.930 . S
H641 C649 0.930 . S
H642 C650 0.930 1_565 S
H643 C651 0.930 . S
H644 C654 0.930 . S
H645 C655 0.930 . S
C646 H640 0.930 . S
C646 C647 1.355 . S
C646 C648 1.415 . S
C647 C646 1.355 . S
C647 C649 1.419 . S
C648 C646 1.415 . S
C648 C653 1.425 . S
C648 C655 1.409 . S
C649 H641 0.930 . S
C649 C647 1.419 . S
C649 C650 1.362 . S
C650 H642 0.930 1_545 S
C650 C649 1.362 . S
C650 C653 1.409 . S
C651 H643 0.930 . S
C651 C652 1.354 . S
C651 C653 1.415 1_565 S
C652 C651 1.354 . S
C652 C654 1.422 1_565 S
C653 C648 1.425 . S
C653 C650 1.409 . S
C653 C651 1.415 1_545 S
C654 H644 0.930 . S
C654 C652 1.422 1_545 S
C654 C655 1.362 . S
C655 H645 0.930 . S
C655 C648 1.409 . S
C655 C654 1.362 . S
H656 C662 0.930 . S
H657 C665 0.930 . S
H658 C666 0.930 . S
H659 C667 0.930 . S
H660 C670 0.930 . S
H661 C671 0.930 . S
C662 H656 0.930 . S
C662 C663 1.355 . S
C662 C664 1.415 . S
C663 C662 1.355 . S
C663 C665 1.419 . S
C664 C662 1.415 . S
C664 C669 1.425 . S
C664 C671 1.409 . S
C665 H657 0.930 . S
C665 C663 1.419 . S
C665 C666 1.362 . S
C666 H658 0.930 . S
C666 C665 1.362 . S
C666 C669 1.409 . S
C667 H659 0.930 . S
C667 C668 1.355 . S
C667 C669 1.415 . S
C668 C667 1.355 . S
C668 C670 1.419 . S
C669 C664 1.425 . S
C669 C666 1.409 . S
C669 C667 1.415 . S
C670 H660 0.930 . S
C670 C668 1.419 . S
C670 C671 1.362 . S
C671 H661 0.930 . S
C671 C664 1.409 . S
C671 C670 1.362 . S
H672 C678 0.930 . S
H673 C681 0.930 . S
H674 C682 0.930 . S
H675 C683 0.930 . S
H676 C686 0.930 . S
H677 C687 0.930 1_565 S
C678 H672 0.930 . S
C678 C679 1.354 1_565 S
C678 C680 1.415 1_565 S
C679 C678 1.354 1_545 S
C679 C681 1.421 . S
C680 C678 1.415 1_545 S
C680 C685 1.425 . S
C680 C687 1.409 . S
C681 H673 0.930 . S
C681 C679 1.421 . S
C681 C682 1.362 . S
C682 H674 0.930 . S
C682 C681 1.362 . S
C682 C685 1.409 . S
C683 H675 0.930 . S
C683 C684 1.355 . S
C683 C685 1.415 . S
C684 C683 1.355 . S
C684 C686 1.419 . S
C685 C680 1.425 . S
C685 C682 1.409 . S
C685 C683 1.415 . S
C686 H676 0.930 . S
C686 C684 1.419 . S
C686 C687 1.362 . S
C687 H677 0.930 1_545 S
C687 C680 1.409 . S
C687 C686 1.362 . S
H688 C694 0.930 . S
H689 C697 0.930 . S
H690 C698 0.930 . S
H691 C699 0.930 . S
H692 C702 0.930 . S
H693 C703 0.930 . S
C694 H688 0.930 . S
C694 C695 1.355 . S
C694 C696 1.415 . S
C695 C694 1.355 . S
C695 C697 1.419 . S
C696 C694 1.415 . S
C696 C701 1.425 . S
C696 C703 1.409 . S
C697 H689 0.930 . S
C697 C695 1.419 . S
C697 C698 1.362 . S
C698 H690 0.930 . S
C698 C697 1.362 . S
C698 C701 1.409 . S
C699 H691 0.930 . S
C699 C700 1.355 . S
C699 C701 1.415 . S
C700 C699 1.355 . S
C700 C702 1.419 . S
C701 C696 1.425 . S
C701 C698 1.409 . S
C701 C699 1.415 . S
C702 H692 0.930 . S
C702 C700 1.419 . S
C702 C703 1.362 . S
C703 H693 0.930 . S
C703 C696 1.409 . S
C703 C702 1.362 . S
H704 C710 0.930 . S
H705 C713 0.930 . S
H706 C714 0.930 . S
H707 C715 0.930 1_545 S
H708 C718 0.930 . S
H709 C719 0.930 . S
C710 H704 0.930 . S
C710 C711 1.355 . S
C710 C712 1.415 . S
C711 C710 1.355 . S
C711 C713 1.419 . S
C712 C710 1.415 . S
C712 C717 1.425 . S
C712 C719 1.409 . S
C713 H705 0.930 . S
C713 C711 1.419 . S
C713 C714 1.362 . S
C714 H706 0.930 . S
C714 C713 1.362 . S
C714 C717 1.409 . S
C715 H707 0.930 1_565 S
C715 C716 1.355 1_565 S
C715 C717 1.415 . S
C716 C715 1.355 1_545 S
C716 C718 1.419 1_545 S
C717 C712 1.425 . S
C717 C714 1.409 . S
C717 C715 1.415 . S
C718 H708 0.930 . S
C718 C716 1.419 1_565 S
C718 C719 1.362 . S
C719 H709 0.930 . S
C719 C712 1.409 . S
C719 C718 1.362 . S
H720 C726 0.930 . S
H721 C729 0.927 1_556 S
H722 C730 0.930 . S
H723 C731 0.930 . S
H724 C734 0.930 . S
H725 C735 0.930 . S
C726 H720 0.930 . S
C726 C727 1.355 . S
C726 C728 1.415 . S
C727 C726 1.355 . S
C727 C729 1.444 . S
C728 C726 1.415 . S
C728 C733 1.425 1_554 S
C728 C735 1.409 . S
C729 H721 0.927 1_554 S
C729 C727 1.444 . S
C729 C730 1.341 1_554 S
C730 H722 0.930 . S
C730 C729 1.341 1_556 S
C730 C733 1.409 . S
C731 H723 0.930 . S
C731 C732 1.355 . S
C731 C733 1.415 . S
C732 C731 1.355 . S
C732 C734 1.419 . S
C733 C728 1.425 1_556 S
C733 C730 1.409 . S
C733 C731 1.415 . S
C734 H724 0.930 . S
C734 C732 1.419 . S
C734 C735 1.362 1_556 S
C735 H725 0.930 . S
C735 C728 1.409 . S
C735 C734 1.362 1_554 S
H736 C742 0.930 . S
H737 C745 0.930 . S
H738 C746 0.930 . S
H739 C747 0.930 . S
H740 C750 0.930 . S
H741 C751 0.930 . S
C742 H736 0.930 . S
C742 C743 1.355 . S
C742 C744 1.415 . S
C743 C742 1.355 . S
C743 C745 1.419 . S
C744 C742 1.415 . S
C744 C749 1.425 . S
C744 C751 1.409 . S
C745 H737 0.930 . S
C745 C743 1.419 . S
C745 C746 1.362 . S
C746 H738 0.930 . S
C746 C745 1.362 . S
C746 C749 1.409 . S
C747 H739 0.930 . S
C747 C748 1.355 . S
C747 C749 1.415 . S
C748 C747 1.355 . S
C748 C750 1.419 . S
C749 C744 1.425 . S
C749 C746 1.409 . S
C749 C747 1.415 . S
C750 H740 0.930 . S
C750 C748 1.419 . S
C750 C751 1.362 . S
C751 H741 0.930 . S
C751 C744 1.409 . S
C751 C750 1.362 . S
H752 C758 0.930 . S
H753 C761 0.930 . S
H754 C762 0.930 . S
H755 C763 0.930 . S
H756 C766 0.930 . S
H757 C767 0.930 . S
C758 H752 0.930 . S
C758 C759 1.355 . S
C758 C760 1.415 . S
C759 C758 1.355 . S
C759 C761 1.419 . S
C760 C758 1.415 . S
C760 C765 1.425 . S
C760 C767 1.409 . S
C761 H753 0.930 . S
C761 C759 1.419 . S
C761 C762 1.362 . S
C762 H754 0.930 . S
C762 C761 1.362 . S
C762 C765 1.409 . S
C763 H755 0.930 . S
C763 C764 1.355 . S
C763 C765 1.415 . S
C764 C763 1.355 . S
C764 C766 1.419 . S
C765 C760 1.425 . S
C765 C762 1.409 . S
C765 C763 1.415 . S
C766 H756 0.930 . S
C766 C764 1.419 . S
C766 C767 1.362 . S
C767 H757 0.930 . S
C767 C760 1.409 . S
C767 C766 1.362 . S
H768 C774 0.930 . S
H769 C777 0.930 . S
H770 C778 0.930 . S
H771 C779 0.930 . S
H772 C782 0.930 . S
H773 C783 0.930 . S
C774 H768 0.930 . S
C774 C775 1.355 . S
C774 C776 1.415 . S
C775 C774 1.355 . S
C775 C777 1.419 . S
C776 C774 1.415 . S
C776 C781 1.425 . S
C776 C783 1.409 . S
C777 H769 0.930 . S
C777 C775 1.419 . S
C777 C778 1.362 . S
C778 H770 0.930 . S
C778 C777 1.362 . S
C778 C781 1.409 . S
C779 H771 0.930 . S
C779 C780 1.355 . S
C779 C781 1.415 . S
C780 C779 1.355 . S
C780 C782 1.419 . S
C781 C776 1.425 . S
C781 C778 1.409 . S
C781 C779 1.415 . S
C782 H772 0.930 . S
C782 C780 1.419 . S
C782 C783 1.362 . S
C783 H773 0.930 . S
C783 C776 1.409 . S
C783 C782 1.362 . S
H784 C790 0.930 . S
H785 C793 0.930 . S
H786 C794 0.930 . S
H787 C795 0.930 . S
H788 C798 0.930 . S
H789 C799 0.930 . S
C790 H784 0.930 . S
C790 C791 1.355 . S
C790 C792 1.415 . S
C791 C790 1.355 . S
C791 C793 1.419 . S
C792 C790 1.415 . S
C792 C797 1.425 1_554 S
C792 C799 1.409 . S
C793 H785 0.930 . S
C793 C791 1.419 . S
C793 C794 1.362 1_554 S
C794 H786 0.930 . S
C794 C793 1.362 1_556 S
C794 C797 1.409 . S
C795 H787 0.930 . S
C795 C796 1.355 . S
C795 C797 1.415 . S
C796 C795 1.355 . S
C796 C798 1.419 . S
C797 C792 1.425 1_556 S
C797 C794 1.409 . S
C797 C795 1.415 . S
C798 H788 0.930 . S
C798 C796 1.419 . S
C798 C799 1.362 1_556 S
C799 H789 0.930 . S
C799 C792 1.409 . S
C799 C798 1.362 1_554 S
H800 C806 0.930 . S
H801 C809 0.930 . S
H802 C810 0.930 . S
H803 C811 0.930 . S
H804 C814 0.930 . S
H805 C815 0.930 . S
C806 H800 0.930 . S
C806 C807 1.355 . S
C806 C808 1.415 . S
C807 C806 1.355 . S
C807 C809 1.419 . S
C808 C806 1.415 . S
C808 C813 1.425 . S
C808 C815 1.409 . S
C809 H801 0.930 . S
C809 C807 1.419 . S
C809 C810 1.362 . S
C810 H802 0.930 . S
C810 C809 1.362 . S
C810 C813 1.409 . S
C811 H803 0.930 . S
C811 C812 1.355 . S
C811 C813 1.415 . S
C812 C811 1.355 . S
C812 C814 1.419 . S
C813 C808 1.425 . S
C813 C810 1.409 . S
C813 C811 1.415 . S
C814 H804 0.930 . S
C814 C812 1.419 . S
C814 C815 1.362 . S
C815 H805 0.930 . S
C815 C808 1.409 . S
C815 C814 1.362 . S
H816 C822 0.930 . S
H817 C825 0.930 . S
H818 C826 0.930 . S
H819 C827 0.930 . S
H820 C830 0.930 . S
H821 C831 0.930 . S
C822 H816 0.930 . S
C822 C823 1.355 . S
C822 C824 1.415 . S
C823 C822 1.355 . S
C823 C825 1.419 . S
C824 C822 1.415 . S
C824 C829 1.425 . S
C824 C831 1.409 . S
C825 H817 0.930 . S
C825 C823 1.419 . S
C825 C826 1.362 . S
C826 H818 0.930 . S
C826 C825 1.362 . S
C826 C829 1.409 . S
C827 H819 0.930 . S
C827 C828 1.355 . S
C827 C829 1.415 . S
C828 C827 1.355 . S
C828 C830 1.419 . S
C829 C824 1.425 . S
C829 C826 1.409 . S
C829 C827 1.415 . S
C830 H820 0.930 . S
C830 C828 1.419 . S
C830 C831 1.362 . S
C831 H821 0.930 . S
C831 C824 1.409 . S
C831 C830 1.362 . S
H832 C838 0.930 . S
H833 C841 0.930 . S
H834 C842 0.930 . S
H835 C843 0.930 . S
H836 C846 0.930 . S
H837 C847 0.930 . S
C838 H832 0.930 . S
C838 C839 1.355 . S
C838 C840 1.415 . S
C839 C838 1.355 . S
C839 C841 1.419 . S
C840 C838 1.415 . S
C840 C845 1.425 . S
C840 C847 1.409 . S
C841 H833 0.930 . S
C841 C839 1.419 . S
C841 C842 1.362 . S
C842 H834 0.930 . S
C842 C841 1.362 . S
C842 C845 1.409 . S
C843 H835 0.930 . S
C843 C844 1.355 . S
C843 C845 1.415 . S
C844 C843 1.355 . S
C844 C846 1.419 . S
C845 C840 1.425 . S
C845 C842 1.409 . S
C845 C843 1.415 . S
C846 H836 0.930 . S
C846 C844 1.419 . S
C846 C847 1.362 . S
C847 H837 0.930 . S
C847 C840 1.409 . S
C847 C846 1.362 . S
H848 C854 0.930 . S
H849 C857 0.930 . S
H850 C858 0.930 . S
H851 C859 0.930 . S
H852 C862 0.930 . S
H853 C863 0.930 . S
C854 H848 0.930 . S
C854 C855 1.355 . S
C854 C856 1.415 . S
C855 C854 1.355 . S
C855 C857 1.419 . S
C856 C854 1.415 . S
C856 C861 1.425 . S
C856 C863 1.409 . S
C857 H849 0.930 . S
C857 C855 1.419 . S
C857 C858 1.362 . S
C858 H850 0.930 . S
C858 C857 1.362 . S
C858 C861 1.409 . S
C859 H851 0.930 . S
C859 C860 1.355 . S
C859 C861 1.415 . S
C860 C859 1.355 . S
C860 C862 1.419 . S
C861 C856 1.425 . S
C861 C858 1.409 . S
C861 C859 1.415 . S
C862 H852 0.930 . S
C862 C860 1.419 . S
C862 C863 1.362 . S
C863 H853 0.930 . S
C863 C856 1.409 . S
C863 C862 1.362 . S
H864 C870 0.930 . S
H865 C873 0.930 . S
H866 C874 0.930 . S
H867 C875 0.930 . S
H868 C878 0.930 . S
H869 C879 0.930 . S
C870 H864 0.930 . S
C870 C871 1.355 . S
C870 C872 1.415 . S
C871 C870 1.355 . S
C871 C873 1.419 . S
C872 C870 1.415 . S
C872 C877 1.425 . S
C872 C879 1.409 . S
C873 H865 0.930 . S
C873 C871 1.419 . S
C873 C874 1.362 . S
C874 H866 0.930 . S
C874 C873 1.362 . S
C874 C877 1.409 . S
C875 H867 0.930 . S
C875 C876 1.355 . S
C875 C877 1.415 . S
C876 C875 1.355 . S
C876 C878 1.419 . S
C877 C872 1.425 . S
C877 C874 1.409 . S
C877 C875 1.415 . S
C878 H868 0.930 . S
C878 C876 1.419 . S
C878 C879 1.362 . S
C879 H869 0.930 . S
C879 C872 1.409 . S
C879 C878 1.362 . S
H880 C886 0.930 . S
H881 C889 0.930 . S
H882 C890 0.930 . S
H883 C891 0.930 . S
H884 C894 0.930 . S
H885 C895 0.930 . S
C886 H880 0.930 . S
C886 C887 1.355 . S
C886 C888 1.415 . S
C887 C886 1.355 . S
C887 C889 1.419 1_556 S
C888 C886 1.415 . S
C888 C893 1.425 1_556 S
C888 C895 1.409 . S
C889 H881 0.930 . S
C889 C887 1.419 1_554 S
C889 C890 1.362 . S
C890 H882 0.930 . S
C890 C889 1.362 . S
C890 C893 1.409 . S
C891 H883 0.930 . S
C891 C892 1.355 . S
C891 C893 1.415 . S
C892 C891 1.355 . S
C892 C894 1.419 1_554 S
C893 C888 1.425 1_554 S
C893 C890 1.409 . S
C893 C891 1.415 . S
C894 H884 0.930 . S
C894 C892 1.419 1_556 S
C894 C895 1.362 . S
C895 H885 0.930 . S
C895 C888 1.409 . S
C895 C894 1.362 . S
H896 C902 0.930 . S
H897 C905 0.930 . S
H898 C906 0.930 . S
H899 C907 0.930 . S
H900 C910 0.930 . S
H901 C911 0.930 . S
C902 H896 0.930 . S
C902 C903 1.355 . S
C902 C904 1.415 . S
C903 C902 1.355 . S
C903 C905 1.419 . S
C904 C902 1.415 . S
C904 C909 1.425 . S
C904 C911 1.409 . S
C905 H897 0.930 . S
C905 C903 1.419 . S
C905 C906 1.362 . S
C906 H898 0.930 . S
C906 C905 1.362 . S
C906 C909 1.409 . S
C907 H899 0.930 . S
C907 C908 1.355 . S
C907 C909 1.415 . S
C908 C907 1.355 . S
C908 C910 1.419 . S
C909 C904 1.425 . S
C909 C906 1.409 . S
C909 C907 1.415 . S
C910 H900 0.930 . S
C910 C908 1.419 . S
C910 C911 1.362 . S
C911 H901 0.930 . S
C911 C904 1.409 . S
C911 C910 1.362 . S
H912 C918 0.930 . S
H913 C921 0.930 . S
H914 C922 0.930 . S
H915 C923 0.930 . S
H916 C926 0.930 . S
H917 C927 0.930 . S
C918 H912 0.930 . S
C918 C919 1.355 . S
C918 C920 1.415 . S
C919 C918 1.355 . S
C919 C921 1.419 . S
C920 C918 1.415 . S
C920 C925 1.425 . S
C920 C927 1.409 . S
C921 H913 0.930 . S
C921 C919 1.419 . S
C921 C922 1.362 . S
C922 H914 0.930 . S
C922 C921 1.362 . S
C922 C925 1.409 . S
C923 H915 0.930 . S
C923 C924 1.355 . S
C923 C925 1.415 . S
C924 C923 1.355 . S
C924 C926 1.419 . S
C925 C920 1.425 . S
C925 C922 1.409 . S
C925 C923 1.415 . S
C926 H916 0.930 . S
C926 C924 1.419 . S
C926 C927 1.362 . S
C927 H917 0.930 . S
C927 C920 1.409 . S
C927 C926 1.362 . S
H928 C934 0.930 . S
H929 C937 0.930 1_545 S
H930 C938 0.923 1_545 S
H931 C939 0.930 . S
H932 C942 0.930 . S
H933 C943 0.930 . S
C934 H928 0.930 . S
C934 C935 1.355 . S
C934 C936 1.415 . S
C935 C934 1.355 . S
C935 C937 1.419 . S
C936 C934 1.415 . S
C936 C941 1.425 . S
C936 C943 1.409 . S
C937 H929 0.930 1_565 S
C937 C935 1.419 . S
C937 C938 1.362 . S
C938 H930 0.923 1_565 S
C938 C937 1.362 . S
C938 C941 1.417 . S
C939 H931 0.930 . S
C939 C940 1.355 . S
C939 C941 1.415 . S
C940 C939 1.355 . S
C940 C942 1.419 . S
C941 C936 1.425 . S
C941 C938 1.417 . S
C941 C939 1.415 . S
C942 H932 0.930 . S
C942 C940 1.419 . S
C942 C943 1.362 . S
C943 H933 0.930 . S
C943 C936 1.409 . S
C943 C942 1.362 . S
H944 C950 0.930 1_556 S
H945 C953 0.930 . S
H946 C954 0.930 . S
H947 C955 0.930 . S
H948 C958 0.930 . S
H949 C959 0.930 . S
C950 H944 0.930 1_554 S
C950 C951 1.355 . S
C950 C952 1.415 1_554 S
C951 C950 1.355 . S
C951 C953 1.419 . S
C952 C950 1.415 1_556 S
C952 C957 1.425 1_556 S
C952 C959 1.409 . S
C953 H945 0.930 . S
C953 C951 1.419 . S
C953 C954 1.362 . S
C954 H946 0.930 . S
C954 C953 1.362 . S
C954 C957 1.409 . S
C955 H947 0.930 . S
C955 C956 1.355 1_554 S
C955 C957 1.415 . S
C956 C955 1.355 1_556 S
C956 C958 1.419 . S
C957 C952 1.425 1_554 S
C957 C954 1.409 . S
C957 C955 1.415 . S
C958 H948 0.930 . S
C958 C956 1.419 . S
C958 C959 1.362 . S
C959 H949 0.930 . S
C959 C952 1.409 . S
C959 C958 1.362 . S
H960 C966 0.930 . S
H961 C969 0.930 . S
H962 C970 0.930 . S
H963 C971 0.930 . S
H964 C974 0.930 1_565 S
H965 C975 0.930 1_565 S
C966 H960 0.930 . S
C966 C967 1.355 . S
C966 C968 1.415 . S
C967 C966 1.355 . S
C967 C969 1.419 . S
C968 C966 1.415 . S
C968 C973 1.425 . S
C968 C975 1.409 . S
C969 H961 0.930 . S
C969 C967 1.419 . S
C969 C970 1.362 . S
C970 H962 0.930 . S
C970 C969 1.362 . S
C970 C973 1.409 . S
C971 H963 0.930 . S
C971 C972 1.355 . S
C971 C973 1.415 . S
C972 C971 1.355 . S
C972 C974 1.419 . S
C973 C968 1.425 . S
C973 C970 1.409 . S
C973 C971 1.415 . S
C974 H964 0.930 1_545 S
C974 C972 1.419 . S
C974 C975 1.362 . S
C975 H965 0.930 1_545 S
C975 C968 1.409 . S
C975 C974 1.362 . S
H976 C982 0.930 . S
H977 C985 0.930 . S
H978 C986 0.930 . S
H979 C987 0.930 . S
H980 C990 0.930 . S
H981 C991 0.930 . S
C982 H976 0.930 . S
C982 C983 1.355 . S
C982 C984 1.415 . S
C983 C982 1.355 . S
C983 C985 1.419 . S
C984 C982 1.415 . S
C984 C989 1.425 . S
C984 C991 1.409 . S
C985 H977 0.930 . S
C985 C983 1.419 . S
C985 C986 1.362 . S
C986 H978 0.930 . S
C986 C985 1.362 . S
C986 C989 1.409 . S
C987 H979 0.930 . S
C987 C988 1.355 . S
C987 C989 1.415 . S
C988 C987 1.355 . S
C988 C990 1.419 . S
C989 C984 1.425 . S
C989 C986 1.409 . S
C989 C987 1.415 . S
C990 H980 0.930 . S
C990 C988 1.419 . S
C990 C991 1.362 . S
C991 H981 0.930 . S
C991 C984 1.409 . S
C991 C990 1.362 . S
H992 C998 0.930 . S
H993 C1001 0.930 . S
H994 C1002 0.930 . S
H995 C1003 0.930 . S
H996 C1006 0.930 . S
H997 C1007 0.930 . S
C998 H992 0.930 . S
C998 C999 1.355 . S
C998 C1000 1.415 . S
C999 C998 1.355 . S
C999 C1001 1.419 . S
C1000 C998 1.415 . S
C1000 C1005 1.425 . S
C1000 C1007 1.409 . S
C1001 H993 0.930 . S
C1001 C999 1.419 . S
C1001 C1002 1.362 . S
C1002 H994 0.930 . S
C1002 C1001 1.362 . S
C1002 C1005 1.409 . S
C1003 H995 0.930 . S
C1003 C1004 1.355 . S
C1003 C1005 1.415 . S
C1004 C1003 1.355 . S
C1004 C1006 1.419 . S
C1005 C1000 1.425 . S
C1005 C1002 1.409 . S
C1005 C1003 1.415 . S
C1006 H996 0.930 . S
C1006 C1004 1.419 . S
C1006 C1007 1.362 . S
C1007 H997 0.930 . S
C1007 C1000 1.409 . S
C1007 C1006 1.362 . S
H1008 C1014 0.930 . S
H1009 C1017 0.930 . S
H1010 C1018 0.930 . S
H1011 C1019 0.930 . S
H1012 C1022 0.930 . S
H1013 C1023 0.930 . S
C1014 H1008 0.930 . S
C1014 C1015 1.355 . S
C1014 C1016 1.415 . S
C1015 C1014 1.355 . S
C1015 C1017 1.419 . S
C1016 C1014 1.415 . S
C1016 C1021 1.425 . S
C1016 C1023 1.409 . S
C1017 H1009 0.930 . S
C1017 C1015 1.419 . S
C1017 C1018 1.362 . S
C1018 H1010 0.930 . S
C1018 C1017 1.362 . S
C1018 C1021 1.409 . S
C1019 H1011 0.930 . S
C1019 C1020 1.355 . S
C1019 C1021 1.415 . S
C1020 C1019 1.355 . S
C1020 C1022 1.419 . S
C1021 C1016 1.425 . S
C1021 C1018 1.409 . S
C1021 C1019 1.415 . S
C1022 H1012 0.930 . S
C1022 C1020 1.419 . S
C1022 C1023 1.362 . S
C1023 H1013 0.930 . S
C1023 C1016 1.409 . S
C1023 C1022 1.362 . S
H1024 C1030 0.930 . S
H1025 C1033 0.930 . S
H1026 C1034 0.930 . S
H1027 C1035 0.930 . S
H1028 C1038 0.930 . S
H1029 C1039 0.930 . S
C1030 H1024 0.930 . S
C1030 C1031 1.355 . S
C1030 C1032 1.415 . S
C1031 C1030 1.355 . S
C1031 C1033 1.419 . S
C1032 C1030 1.415 . S
C1032 C1037 1.425 . S
C1032 C1039 1.409 . S
C1033 H1025 0.930 . S
C1033 C1031 1.419 . S
C1033 C1034 1.362 . S
C1034 H1026 0.930 . S
C1034 C1033 1.362 . S
C1034 C1037 1.409 . S
C1035 H1027 0.930 . S
C1035 C1036 1.355 . S
C1035 C1037 1.415 . S
C1036 C1035 1.355 . S
C1036 C1038 1.419 . S
C1037 C1032 1.425 . S
C1037 C1034 1.409 . S
C1037 C1035 1.415 . S
C1038 H1028 0.930 . S
C1038 C1036 1.419 . S
C1038 C1039 1.362 . S
C1039 H1029 0.930 . S
C1039 C1032 1.409 . S
C1039 C1038 1.362 . S
H1040 C1046 0.930 . S
H1041 C1049 0.930 . S
H1042 C1050 0.930 . S
H1043 C1051 0.930 . S
H1044 C1054 0.930 . S
H1045 C1055 0.930 . S
C1046 H1040 0.930 . S
C1046 C1047 1.355 . S
C1046 C1048 1.415 . S
C1047 C1046 1.355 . S
C1047 C1049 1.419 . S
C1048 C1046 1.415 . S
C1048 C1053 1.425 . S
C1048 C1055 1.409 . S
C1049 H1041 0.930 . S
C1049 C1047 1.419 . S
C1049 C1050 1.362 . S
C1050 H1042 0.930 . S
C1050 C1049 1.362 . S
C1050 C1053 1.409 . S
C1051 H1043 0.930 . S
C1051 C1052 1.355 . S
C1051 C1053 1.415 . S
C1052 C1051 1.355 . S
C1052 C1054 1.419 . S
C1053 C1048 1.425 . S
C1053 C1050 1.409 . S
C1053 C1051 1.415 . S
C1054 H1044 0.930 . S
C1054 C1052 1.419 . S
C1054 C1055 1.362 . S
C1055 H1045 0.930 . S
C1055 C1048 1.409 . S
C1055 C1054 1.362 . S
H1056 C1062 0.930 . S
H1057 C1065 0.930 . S
H1058 C1066 0.930 . S
H1059 C1067 0.930 . S
H1060 C1070 0.930 . S
H1061 C1071 0.930 . S
C1062 H1056 0.930 . S
C1062 C1063 1.355 . S
C1062 C1064 1.415 . S
C1063 C1062 1.355 . S
C1063 C1065 1.419 . S
C1064 C1062 1.415 . S
C1064 C1069 1.425 . S
C1064 C1071 1.409 . S
C1065 H1057 0.930 . S
C1065 C1063 1.419 . S
C1065 C1066 1.362 . S
C1066 H1058 0.930 . S
C1066 C1065 1.362 . S
C1066 C1069 1.409 . S
C1067 H1059 0.930 . S
C1067 C1068 1.355 . S
C1067 C1069 1.415 . S
C1068 C1067 1.355 . S
C1068 C1070 1.419 . S
C1069 C1064 1.425 . S
C1069 C1066 1.409 . S
C1069 C1067 1.415 . S
C1070 H1060 0.930 . S
C1070 C1068 1.419 . S
C1070 C1071 1.362 . S
C1071 H1061 0.930 . S
C1071 C1064 1.409 . S
C1071 C1070 1.362 . S
H1072 C1078 0.930 . S
H1073 C1081 0.930 . S
H1074 C1082 0.930 . S
H1075 C1083 0.930 . S
H1076 C1086 0.930 . S
H1077 C1087 0.930 . S
C1078 H1072 0.930 . S
C1078 C1079 1.355 . S
C1078 C1080 1.415 . S
C1079 C1078 1.355 . S
C1079 C1081 1.419 . S
C1080 C1078 1.415 . S
C1080 C1085 1.425 . S
C1080 C1087 1.409 . S
C1081 H1073 0.930 . S
C1081 C1079 1.419 . S
C1081 C1082 1.362 . S
C1082 H1074 0.930 . S
C1082 C1081 1.362 . S
C1082 C1085 1.409 . S
C1083 H1075 0.930 . S
C1083 C1084 1.355 . S
C1083 C1085 1.415 . S
C1084 C1083 1.355 . S
C1084 C1086 1.419 . S
C1085 C1080 1.425 . S
C1085 C1082 1.409 . S
C1085 C1083 1.415 . S
C1086 H1076 0.930 . S
C1086 C1084 1.419 . S
C1086 C1087 1.362 . S
C1087 H1077 0.930 . S
C1087 C1080 1.409 . S
C1087 C1086 1.362 . S
H1088 C1094 0.930 . S
H1089 C1097 0.930 . S
H1090 C1098 0.930 . S
H1091 C1099 0.930 . S
H1092 C1102 0.930 . S
H1093 C1103 0.930 . S
C1094 H1088 0.930 . S
C1094 C1095 1.355 . S
C1094 C1096 1.415 . S
C1095 C1094 1.355 . S
C1095 C1097 1.419 . S
C1096 C1094 1.415 . S
C1096 C1101 1.425 . S
C1096 C1103 1.409 . S
C1097 H1089 0.930 . S
C1097 C1095 1.419 . S
C1097 C1098 1.362 . S
C1098 H1090 0.930 . S
C1098 C1097 1.362 . S
C1098 C1101 1.409 . S
C1099 H1091 0.930 . S
C1099 C1100 1.355 . S
C1099 C1101 1.415 . S
C1100 C1099 1.355 . S
C1100 C1102 1.419 . S
C1101 C1096 1.425 . S
C1101 C1098 1.409 . S
C1101 C1099 1.415 . S
C1102 H1092 0.930 . S
C1102 C1100 1.419 . S
C1102 C1103 1.362 . S
C1103 H1093 0.930 . S
C1103 C1096 1.409 . S
C1103 C1102 1.362 . S
H1104 C1110 0.930 . S
H1105 C1113 0.930 . S
H1106 C1114 0.930 . S
H1107 C1115 0.930 . S
H1108 C1118 0.930 . S
H1109 C1119 0.930 . S
C1110 H1104 0.930 . S
C1110 C1111 1.355 . S
C1110 C1112 1.415 . S
C1111 C1110 1.355 . S
C1111 C1113 1.419 . S
C1112 C1110 1.415 . S
C1112 C1117 1.425 . S
C1112 C1119 1.409 . S
C1113 H1105 0.930 . S
C1113 C1111 1.419 . S
C1113 C1114 1.362 . S
C1114 H1106 0.930 . S
C1114 C1113 1.362 . S
C1114 C1117 1.409 . S
C1115 H1107 0.930 . S
C1115 C1116 1.355 . S
C1115 C1117 1.415 . S
C1116 C1115 1.355 . S
C1116 C1118 1.419 . S
C1117 C1112 1.425 . S
C1117 C1114 1.409 . S
C1117 C1115 1.415 . S
C1118 H1108 0.930 . S
C1118 C1116 1.419 . S
C1118 C1119 1.362 . S
C1119 H1109 0.930 . S
C1119 C1112 1.409 . S
C1119 C1118 1.362 . S
H1120 C1126 0.930 . S
H1121 C1129 0.930 . S
H1122 C1130 0.930 . S
H1123 C1131 0.930 . S
H1124 C1134 0.930 . S
H1125 C1135 0.930 . S
C1126 H1120 0.930 . S
C1126 C1127 1.355 1_545 S
C1126 C1128 1.415 . S
C1127 C1126 1.355 1_565 S
C1127 C1129 1.419 . S
C1128 C1126 1.415 . S
C1128 C1133 1.425 1_545 S
C1128 C1135 1.409 . S
C1129 H1121 0.930 . S
C1129 C1127 1.419 . S
C1129 C1130 1.362 . S
C1130 H1122 0.930 . S
C1130 C1129 1.362 . S
C1130 C1133 1.409 . S
C1131 H1123 0.930 . S
C1131 C1132 1.355 1_565 S
C1131 C1133 1.415 . S
C1132 C1131 1.355 1_545 S
C1132 C1134 1.419 . S
C1133 C1128 1.425 1_565 S
C1133 C1130 1.409 . S
C1133 C1131 1.415 . S
C1134 H1124 0.930 . S
C1134 C1132 1.419 . S
C1134 C1135 1.362 . S
C1135 H1125 0.930 . S
C1135 C1128 1.409 . S
C1135 C1134 1.362 . S
H1136 C1142 0.930 . S
H1137 C1145 0.930 . S
H1138 C1146 0.930 . S
H1139 C1147 0.930 . S
H1140 C1150 0.930 . S
H1141 C1151 0.930 . S
C1142 H1136 0.930 . S
C1142 C1143 1.355 . S
C1142 C1144 1.415 . S
C1143 C1142 1.355 . S
C1143 C1145 1.419 . S
C1144 C1142 1.415 . S
C1144 C1149 1.425 . S
C1144 C1151 1.409 . S
C1145 H1137 0.930 . S
C1145 C1143 1.419 . S
C1145 C1146 1.362 . S
C1146 H1138 0.930 . S
C1146 C1145 1.362 . S
C1146 C1149 1.409 . S
C1147 H1139 0.930 . S
C1147 C1148 1.355 . S
C1147 C1149 1.415 . S
C1148 C1147 1.355 . S
C1148 C1150 1.419 . S
C1149 C1144 1.425 . S
C1149 C1146 1.409 . S
C1149 C1147 1.415 . S
C1150 H1140 0.930 . S
C1150 C1148 1.419 . S
C1150 C1151 1.362 . S
C1151 H1141 0.930 . S
C1151 C1144 1.409 . S
C1151 C1150 1.362 . S
H1152 C1158 0.930 . S
H1153 C1161 0.930 . S
H1154 C1162 0.930 . S
H1155 C1163 0.930 . S
H1156 C1166 0.930 . S
H1157 C1167 0.930 . S
C1158 H1152 0.930 . S
C1158 C1159 1.355 1_545 S
C1158 C1160 1.415 . S
C1159 C1158 1.355 1_565 S
C1159 C1161 1.419 . S
C1160 C1158 1.415 . S
C1160 C1165 1.425 1_545 S
C1160 C1167 1.409 . S
C1161 H1153 0.930 . S
C1161 C1159 1.419 . S
C1161 C1162 1.362 . S
C1162 H1154 0.930 . S
C1162 C1161 1.362 . S
C1162 C1165 1.409 . S
C1163 H1155 0.930 . S
C1163 C1164 1.355 1_565 S
C1163 C1165 1.415 . S
C1164 C1163 1.355 1_545 S
C1164 C1166 1.419 . S
C1165 C1160 1.425 1_565 S
C1165 C1162 1.409 . S
C1165 C1163 1.415 . S
C1166 H1156 0.930 . S
C1166 C1164 1.419 . S
C1166 C1167 1.362 . S
C1167 H1157 0.930 . S
C1167 C1160 1.409 . S
C1167 C1166 1.362 . S
H1168 C1174 0.930 . S
H1169 C1177 0.930 . S
H1170 C1178 0.930 . S
H1171 C1179 0.930 . S
H1172 C1182 0.930 . S
H1173 C1183 0.930 . S
C1174 H1168 0.930 . S
C1174 C1175 1.355 . S
C1174 C1176 1.415 . S
C1175 C1174 1.355 . S
C1175 C1177 1.419 . S
C1176 C1174 1.415 . S
C1176 C1181 1.425 . S
C1176 C1183 1.409 . S
C1177 H1169 0.930 . S
C1177 C1175 1.419 . S
C1177 C1178 1.362 . S
C1178 H1170 0.930 . S
C1178 C1177 1.362 . S
C1178 C1181 1.409 . S
C1179 H1171 0.930 . S
C1179 C1180 1.355 . S
C1179 C1181 1.415 . S
C1180 C1179 1.355 . S
C1180 C1182 1.419 . S
C1181 C1176 1.425 . S
C1181 C1178 1.409 . S
C1181 C1179 1.415 . S
C1182 H1172 0.930 . S
C1182 C1180 1.419 . S
C1182 C1183 1.362 . S
C1183 H1173 0.930 . S
C1183 C1176 1.409 . S
C1183 C1182 1.362 . S
H1184 C1190 0.930 . S
H1185 C1193 0.930 . S
H1186 C1194 0.930 . S
H1187 C1195 0.930 . S
H1188 C1198 0.930 . S
H1189 C1199 0.930 . S
C1190 H1184 0.930 . S
C1190 C1191 1.355 . S
C1190 C1192 1.415 . S
C1191 C1190 1.355 . S
C1191 C1193 1.419 . S
C1192 C1190 1.415 . S
C1192 C1197 1.425 . S
C1192 C1199 1.409 . S
C1193 H1185 0.930 . S
C1193 C1191 1.419 . S
C1193 C1194 1.362 . S
C1194 H1186 0.930 . S
C1194 C1193 1.362 . S
C1194 C1197 1.409 . S
C1195 H1187 0.930 . S
C1195 C1196 1.355 . S
C1195 C1197 1.415 1_565 S
C1196 C1195 1.355 . S
C1196 C1198 1.419 . S
C1197 C1192 1.425 . S
C1197 C1194 1.409 . S
C1197 C1195 1.415 1_545 S
C1198 H1188 0.930 . S
C1198 C1196 1.419 . S
C1198 C1199 1.362 1_565 S
C1199 H1189 0.930 . S
C1199 C1192 1.409 . S
C1199 C1198 1.362 1_545 S
H1200 C1206 0.930 . S
H1201 C1209 0.930 . S
H1202 C1210 0.930 . S
H1203 C1211 0.930 . S
H1204 C1214 0.930 . S
H1205 C1215 0.930 . S
C1206 H1200 0.930 . S
C1206 C1207 1.355 . S
C1206 C1208 1.415 . S
C1207 C1206 1.355 . S
C1207 C1209 1.419 . S
C1208 C1206 1.415 . S
C1208 C1213 1.425 . S
C1208 C1215 1.409 . S
C1209 H1201 0.930 . S
C1209 C1207 1.419 . S
C1209 C1210 1.362 . S
C1210 H1202 0.930 . S
C1210 C1209 1.362 . S
C1210 C1213 1.409 . S
C1211 H1203 0.930 . S
C1211 C1212 1.355 . S
C1211 C1213 1.415 . S
C1212 C1211 1.355 . S
C1212 C1214 1.419 . S
C1213 C1208 1.425 . S
C1213 C1210 1.409 . S
C1213 C1211 1.415 . S
C1214 H1204 0.930 . S
C1214 C1212 1.419 . S
C1214 C1215 1.362 . S
C1215 H1205 0.930 . S
C1215 C1208 1.409 . S
C1215 C1214 1.362 . S
H1216 C1222 0.930 1_545 S
H1217 C1225 0.930 . S
H1218 C1226 0.930 . S
H1219 C1227 0.930 . S
H1220 C1230 0.930 . S
H1221 C1231 0.930 . S
C1222 H1216 0.930 1_565 S
C1222 C1223 1.355 . S
C1222 C1224 1.419 . S
C1223 C1222 1.355 . S
C1223 C1225 1.419 . S
C1224 C1222 1.419 . S
C1224 C1229 1.436 . S
C1224 C1231 1.395 1_565 S
C1225 H1217 0.930 . S
C1225 C1223 1.419 . S
C1225 C1226 1.362 . S
C1226 H1218 0.930 . S
C1226 C1225 1.362 . S
C1226 C1229 1.409 . S
C1227 H1219 0.930 . S
C1227 C1228 1.355 1_565 S
C1227 C1229 1.415 . S
C1228 C1227 1.355 1_545 S
C1228 C1230 1.419 . S
C1229 C1224 1.436 . S
C1229 C1226 1.409 . S
C1229 C1227 1.415 . S
C1230 H1220 0.930 . S
C1230 C1228 1.419 . S
C1230 C1231 1.362 . S
C1231 H1221 0.930 . S
C1231 C1224 1.395 1_545 S
C1231 C1230 1.362 . S
H1232 C1238 0.930 . S
H1233 C1241 0.930 . S
H1234 C1242 0.930 . S
H1235 C1243 0.930 . S
H1236 C1246 0.930 . S
H1237 C1247 0.930 . S
C1238 H1232 0.930 . S
C1238 C1239 1.355 . S
C1238 C1240 1.415 . S
C1239 C1238 1.355 . S
C1239 C1241 1.419 . S
C1240 C1238 1.415 . S
C1240 C1245 1.425 . S
C1240 C1247 1.409 . S
C1241 H1233 0.930 . S
C1241 C1239 1.419 . S
C1241 C1242 1.362 . S
C1242 H1234 0.930 . S
C1242 C1241 1.362 . S
C1242 C1245 1.409 . S
C1243 H1235 0.930 . S
C1243 C1244 1.355 . S
C1243 C1245 1.415 . S
C1244 C1243 1.355 . S
C1244 C1246 1.419 . S
C1245 C1240 1.425 . S
C1245 C1242 1.409 . S
C1245 C1243 1.415 . S
C1246 H1236 0.930 . S
C1246 C1244 1.419 . S
C1246 C1247 1.362 . S
C1247 H1237 0.930 . S
C1247 C1240 1.409 . S
C1247 C1246 1.362 . S
H1248 C1254 0.930 . S
H1249 C1257 0.930 . S
H1250 C1258 0.930 . S
H1251 C1259 0.930 . S
H1252 C1262 0.930 . S
H1253 C1263 0.930 . S
C1254 H1248 0.930 . S
C1254 C1255 1.355 . S
C1254 C1256 1.415 . S
C1255 C1254 1.355 . S
C1255 C1257 1.419 . S
C1256 C1254 1.415 . S
C1256 C1261 1.425 . S
C1256 C1263 1.409 . S
C1257 H1249 0.930 . S
C1257 C1255 1.419 . S
C1257 C1258 1.362 . S
C1258 H1250 0.930 . S
C1258 C1257 1.362 . S
C1258 C1261 1.409 . S
C1259 H1251 0.930 . S
C1259 C1260 1.355 . S
C1259 C1261 1.415 . S
C1260 C1259 1.355 . S
C1260 C1262 1.419 . S
C1261 C1256 1.425 . S
C1261 C1258 1.409 . S
C1261 C1259 1.415 . S
C1262 H1252 0.930 . S
C1262 C1260 1.419 . S
C1262 C1263 1.362 . S
C1263 H1253 0.930 . S
C1263 C1256 1.409 . S
C1263 C1262 1.362 . S
H1264 C1270 0.930 . S
H1265 C1273 0.930 . S
H1266 C1274 0.930 1_655 S
H1267 C1275 0.930 . S
H1268 C1278 0.930 . S
H1269 C1279 0.930 1_455 S
C1270 H1264 0.930 . S
C1270 C1271 1.355 . S
C1270 C1272 1.415 . S
C1271 C1270 1.355 . S
C1271 C1273 1.419 . S
C1272 C1270 1.415 . S
C1272 C1277 1.425 1_455 S
C1272 C1279 1.409 1_455 S
C1273 H1265 0.930 . S
C1273 C1271 1.419 . S
C1273 C1274 1.362 . S
C1274 H1266 0.930 1_455 S
C1274 C1273 1.362 . S
C1274 C1277 1.409 1_455 S
C1275 H1267 0.930 . S
C1275 C1276 1.355 . S
C1275 C1277 1.415 . S
C1276 C1275 1.355 . S
C1276 C1278 1.419 . S
C1277 C1272 1.425 1_655 S
C1277 C1274 1.409 1_655 S
C1277 C1275 1.415 . S
C1278 H1268 0.930 . S
C1278 C1276 1.419 . S
C1278 C1279 1.362 . S
C1279 H1269 0.930 1_655 S
C1279 C1272 1.409 1_655 S
C1279 C1278 1.362 . S
H1280 C1286 0.930 . S
H1281 C1289 0.930 . S
H1282 C1290 0.930 . S
H1283 C1291 0.930 . S
H1284 C1294 0.930 . S
H1285 C1295 0.930 . S
C1286 H1280 0.930 . S
C1286 C1287 1.355 . S
C1286 C1288 1.415 . S
C1287 C1286 1.355 . S
C1287 C1289 1.419 1_455 S
C1288 C1286 1.415 . S
C1288 C1293 1.425 1_455 S
C1288 C1295 1.409 . S
C1289 H1281 0.930 . S
C1289 C1287 1.419 1_655 S
C1289 C1290 1.362 . S
C1290 H1282 0.930 . S
C1290 C1289 1.362 . S
C1290 C1293 1.409 . S
C1291 H1283 0.930 . S
C1291 C1292 1.355 . S
C1291 C1293 1.415 . S
C1292 C1291 1.355 . S
C1292 C1294 1.419 1_655 S
C1293 C1288 1.425 1_655 S
C1293 C1290 1.409 . S
C1293 C1291 1.415 . S
C1294 H1284 0.930 . S
C1294 C1292 1.419 1_455 S
C1294 C1295 1.362 . S
C1295 H1285 0.930 . S
C1295 C1288 1.409 . S
C1295 C1294 1.362 . S
H1296 C1302 0.930 . S
H1297 C1305 0.930 . S
H1298 C1306 0.930 . S
H1299 C1307 0.930 . S
H1300 C1310 0.930 . S
H1301 C1311 0.930 . S
C1302 H1296 0.930 . S
C1302 C1303 1.355 . S
C1302 C1304 1.415 . S
C1303 C1302 1.355 . S
C1303 C1305 1.419 . S
C1304 C1302 1.415 . S
C1304 C1309 1.425 . S
C1304 C1311 1.409 . S
C1305 H1297 0.930 . S
C1305 C1303 1.419 . S
C1305 C1306 1.362 . S
C1306 H1298 0.930 . S
C1306 C1305 1.362 . S
C1306 C1309 1.409 . S
C1307 H1299 0.930 . S
C1307 C1308 1.355 . S
C1307 C1309 1.415 . S
C1308 C1307 1.355 . S
C1308 C1310 1.419 . S
C1309 C1304 1.425 . S
C1309 C1306 1.409 . S
C1309 C1307 1.415 . S
C1310 H1300 0.930 . S
C1310 C1308 1.419 . S
C1310 C1311 1.362 . S
C1311 H1301 0.930 . S
C1311 C1304 1.409 . S
C1311 C1310 1.362 . S
H1312 C1318 0.930 . S
H1313 C1321 0.930 . S
H1314 C1322 0.930 . S
H1315 C1323 0.930 . S
H1316 C1326 0.930 . S
H1317 C1327 0.930 . S
C1318 H1312 0.930 . S
C1318 C1319 1.355 . S
C1318 C1320 1.415 . S
C1319 C1318 1.355 . S
C1319 C1321 1.419 . S
C1320 C1318 1.415 . S
C1320 C1325 1.425 . S
C1320 C1327 1.409 . S
C1321 H1313 0.930 . S
C1321 C1319 1.419 . S
C1321 C1322 1.362 . S
C1322 H1314 0.930 . S
C1322 C1321 1.362 . S
C1322 C1325 1.409 . S
C1323 H1315 0.930 . S
C1323 C1324 1.355 . S
C1323 C1325 1.415 . S
C1324 C1323 1.355 . S
C1324 C1326 1.419 . S
C1325 C1320 1.425 . S
C1325 C1322 1.409 . S
C1325 C1323 1.415 . S
C1326 H1316 0.930 . S
C1326 C1324 1.419 . S
C1326 C1327 1.362 . S
C1327 H1317 0.930 . S
C1327 C1320 1.409 . S
C1327 C1326 1.362 . S
H1328 C1334 0.930 . S
H1329 C1337 0.930 . S
H1330 C1338 0.930 1_655 S
H1331 C1339 0.930 . S
H1332 C1342 0.930 . S
H1333 C1343 0.930 1_455 S
C1334 H1328 0.930 . S
C1334 C1335 1.355 . S
C1334 C1336 1.415 . S
C1335 C1334 1.355 . S
C1335 C1337 1.419 . S
C1336 C1334 1.415 . S
C1336 C1341 1.425 1_455 S
C1336 C1343 1.409 1_455 S
C1337 H1329 0.930 . S
C1337 C1335 1.419 . S
C1337 C1338 1.362 . S
C1338 H1330 0.930 1_455 S
C1338 C1337 1.362 . S
C1338 C1341 1.409 1_455 S
C1339 H1331 0.930 . S
C1339 C1340 1.355 . S
C1339 C1341 1.415 . S
C1340 C1339 1.355 . S
C1340 C1342 1.419 . S
C1341 C1336 1.425 1_655 S
C1341 C1338 1.409 1_655 S
C1341 C1339 1.415 . S
C1342 H1332 0.930 . S
C1342 C1340 1.419 . S
C1342 C1343 1.362 . S
C1343 H1333 0.930 1_655 S
C1343 C1336 1.409 1_655 S
C1343 C1342 1.362 . S
H1344 C1350 0.930 . S
H1345 C1353 0.930 . S
H1346 C1354 0.930 . S
H1347 C1355 0.930 . S
H1348 C1358 0.930 . S
H1349 C1359 0.930 . S
C1350 H1344 0.930 . S
C1350 C1351 1.355 1_655 S
C1350 C1352 1.415 . S
C1351 C1350 1.355 1_455 S
C1351 C1353 1.419 . S
C1352 C1350 1.415 . S
C1352 C1357 1.425 1_655 S
C1352 C1359 1.409 . S
C1353 H1345 0.930 . S
C1353 C1351 1.419 . S
C1353 C1354 1.362 . S
C1354 H1346 0.930 . S
C1354 C1353 1.362 . S
C1354 C1357 1.409 . S
C1355 H1347 0.930 . S
C1355 C1356 1.355 1_455 S
C1355 C1357 1.415 . S
C1356 C1355 1.355 1_655 S
C1356 C1358 1.419 . S
C1357 C1352 1.425 1_455 S
C1357 C1354 1.409 . S
C1357 C1355 1.415 . S
C1358 H1348 0.930 . S
C1358 C1356 1.419 . S
C1358 C1359 1.362 . S
C1359 H1349 0.930 . S
C1359 C1352 1.409 . S
C1359 C1358 1.362 . S
C471 C213 2.305 . S
C476 C21 2.052 . S
C487 C358 2.324 . S
C492 C50 2.001 . S
C503 C79 2.034 . S
C508 C155 2.319 . S
C519 C416 2.305 . S
C524 C108 2.059 . S
C535 C97 2.325 . S
C540 C137 1.987 . S
C551 C166 2.056 . S
C556 C242 2.305 . S
C567 C195 2.064 . S
C572 C39 2.305 . S
C583 C300 2.324 . S
C588 C224 2.004 . S
C599 C445 2.325 . S
C604 C253 1.994 . S
C615 C282 2.060 . S
C620 C126 2.305 . S
C631 C387 2.323 . S
C636 C311 1.978 . S
C647 C184 2.323 . S
C652 C340 1.977 . S
C663 C329 2.305 . S
C668 C369 2.056 . S
C679 C398 1.996 1_545 S
C684 C10 2.324 . S
C695 C427 1.981 . S
C700 C271 2.324 . S
C711 C68 2.315 . S
C716 C456 2.052 . S
C727 C15 1.132 . S
C732 C409 1.199 . S
C743 C206 1.206 . S
C748 C44 1.189 . S
C759 C351 1.209 . S
C764 C73 1.122 . S
C775 C102 1.121 . S
C780 C148 1.205 . S
C791 C293 1.229 . S
C796 C131 1.173 . S
C807 C90 1.212 . S
C812 C160 1.125 . S
C823 C189 1.165 . S
C828 C235 1.200 . S
C839 C218 1.152 . S
C844 C32 1.224 . S
C855 C247 1.132 . S
C860 C177 1.199 . S
C871 C276 1.123 . S
C876 C438 1.210 . S
C887 C119 1.215 . S
C892 C305 1.129 . S
C903 C380 1.205 . S
C908 C334 1.187 . S
C919 C61 1.222 . S
C924 C363 1.147 . S
C935 C392 1.165 . S
C940 C322 1.227 . S
C951 C3 1.207 . S
C956 C421 1.194 . S
C967 C264 1.224 . S
C972 C450 1.218 . S
C983 C13 1.559 . S
C988 C269 1.443 . S
C999 C298 1.440 . S
C1004 C42 1.562 . S
C1015 C327 1.540 . S
C1020 C71 1.591 . S
C1031 C240 1.474 . S
C1036 C100 1.608 . S
C1047 C129 1.572 . S
C1052 C385 1.539 . S
C1063 C158 1.549 . S
C1068 C414 1.457 . S
C1079 C443 1.443 . S
C1084 C187 1.559 . S
C1095 C356 1.507 . S
C1100 C216 1.548 . S
C1111 C37 1.446 . S
C1116 C245 1.592 . S
C1127 C66 1.454 . S
C1132 C274 1.598 . S
C1143 C303 1.544 . S
C1148 C95 1.472 . S
C1159 C332 1.577 . S
C1164 C8 1.438 . S
C1175 C361 1.611 . S
C1180 C153 1.488 . S
C1191 C182 1.484 . S
C1196 C390 1.611 . S
C1207 C419 1.611 . S
C1212 C211 1.488 . S
C1223 C124 1.473 . S
C1228 C448 1.544 . S
C1239 C295 2.426 . S
C1244 C5 2.432 . S
C1255 C34 2.470 . S
C1260 C324 2.475 . S
C1271 C63 2.425 . S
C1276 C237 2.435 . S
C1287 C266 2.462 . S
C1292 C92 2.477 . S
C1303 C121 2.453 . S
C1308 C411 2.474 . S
C1319 C440 2.447 . S
C1324 C150 2.426 . S
C1335 C353 2.430 . S
C1340 C179 2.428 . S
C1351 C208 2.433 . S
C1356 C382 2.459 . S
