# Generated by pormake.
# Topology lcy, (6)-cn, num edge types: 1
# Building blocks:
#     Node 0, Type 0, BuildingBlock: OJICUG_clean_sbu_0, # of connection points: 6
#     Node 1, Type 0, BuildingBlock: OJICUG_clean_sbu_0, # of connection points: 6
#     Node 2, Type 0, BuildingBlock: OJICUG_clean_sbu_0, # of connection points: 6
#     Node 3, Type 0, BuildingBlock: OJICUG_clean_sbu_0, # of connection points: 6
#     Edge 4, Type (0, 0), BuildingBlock: MIFKUJ_clean_linker_0, # of connection points: 2
#     Edge 5, Type (0, 0), BuildingBlock: MIFKUJ_clean_linker_0, # of connection points: 2
#     Edge 6, Type (0, 0), BuildingBlock: MIFKUJ_clean_linker_0, # of connection points: 2
#     Edge 7, Type (0, 0), BuildingBlock: MIFKUJ_clean_linker_0, # of connection points: 2
#     Edge 8, Type (0, 0), BuildingBlock: MIFKUJ_clean_linker_0, # of connection points: 2
#     Edge 9, Type (0, 0), BuildingBlock: MIFKUJ_clean_linker_0, # of connection points: 2
#     Edge 10, Type (0, 0), BuildingBlock: MIFKUJ_clean_linker_0, # of connection points: 2
#     Edge 11, Type (0, 0), BuildingBlock: MIFKUJ_clean_linker_0, # of connection points: 2
#     Edge 12, Type (0, 0), BuildingBlock: MIFKUJ_clean_linker_0, # of connection points: 2
#     Edge 13, Type (0, 0), BuildingBlock: MIFKUJ_clean_linker_0, # of connection points: 2
#     Edge 14, Type (0, 0), BuildingBlock: MIFKUJ_clean_linker_0, # of connection points: 2
#     Edge 15, Type (0, 0), BuildingBlock: MIFKUJ_clean_linker_0, # of connection points: 2
# Relax obj value: 0.357
# Max RMSD: 0.279
# Mean RMSD: 0.279
data_MOF--net-lcy--node1-OJICUG_clean_sbu_0--edge1-MIFKUJ_clean_linker_0
_symmetry_space_group_name_H-M    P1
_symmetry_Int_Tables_number       1
_symmetry_cell_setting            triclinic
loop_
_symmetry_equiv_pos_as_xyz
'x, y, z'
_cell_length_a     33.097128
_cell_length_b     32.981444
_cell_length_c     33.195744
_cell_angle_alpha  89.854905
_cell_angle_beta   90.603956
_cell_angle_gamma 89.922702
loop_
_atom_site_label
_atom_site_type_symbol
_atom_site_fract_x
_atom_site_fract_y
_atom_site_fract_z
_atom_type_partial_charge
Sc0 Sc 0.29379 0.38369 0.33929 0.0
Sc1 Sc 0.3567 0.31181 0.38439 0.0
Sc2 Sc 0.39075 0.36937 0.3054 0.0
O3 O 0.34653 0.35454 0.3431 0.0
C4 C 0.3125 0.38529 0.25045 0.0
C5 C 0.26725 0.29242 0.36002 0.0
C6 C 0.3958 0.27731 0.30264 0.0
C7 C 0.30591 0.37784 0.433 0.0
C8 C 0.36055 0.45301 0.33053 0.0
C9 C 0.44171 0.34663 0.38361 0.0
O10 O 0.28859 0.37085 0.27635 0.0
O11 O 0.30283 0.27992 0.36782 0.0
O12 O 0.38996 0.30935 0.28187 0.0
O13 O 0.29552 0.39804 0.40192 0.0
O14 O 0.39057 0.42884 0.33043 0.0
O15 O 0.41057 0.3415 0.40474 0.0
O16 O 0.32391 0.44125 0.32682 0.0
O17 O 0.32512 0.34437 0.43128 0.0
O18 O 0.43954 0.3509 0.34565 0.0
O19 O 0.25926 0.32941 0.35187 0.0
O20 O 0.34977 0.39051 0.25847 0.0
O21 O 0.3899 0.27559 0.3407 0.0
Sc22 Sc 0.90521 0.132 0.67069 0.0
Sc23 Sc 0.82812 0.09083 0.61313 0.0
Sc24 Sc 0.8531 0.19147 0.60032 0.0
O25 O 0.86212 0.13851 0.62863 0.0
C26 C 0.87404 0.21958 0.69065 0.0
C27 C 0.82735 0.08492 0.70558 0.0
C28 C 0.76568 0.16447 0.60237 0.0
C29 C 0.91167 0.04726 0.63177 0.0
C30 C 0.94784 0.18515 0.60262 0.0
C31 C 0.84783 0.12532 0.53015 0.0
O32 O 0.88583 0.18481 0.70236 0.0
O33 O 0.80667 0.08664 0.67307 0.0
O34 O 0.79052 0.19087 0.61492 0.0
O35 O 0.9294 0.07961 0.64195 0.0
O36 O 0.91507 0.19449 0.5846 0.0
O37 O 0.85102 0.09514 0.55378 0.0
O38 O 0.94908 0.16611 0.63612 0.0
O39 O 0.87363 0.04526 0.62701 0.0
O40 O 0.8411 0.16136 0.54256 0.0
O41 O 0.86442 0.09602 0.70799 0.0
O42 O 0.86421 0.22715 0.65416 0.0
O43 O 0.77639 0.12805 0.59559 0.0
Sc44 Sc 0.15103 0.59015 0.87266 0.0
Sc45 Sc 0.13774 0.69342 0.8816 0.0
Sc46 Sc 0.08575 0.64045 0.80648 0.0
O47 O 0.12477 0.64138 0.85296 0.0
C48 C 0.15925 0.58273 0.77908 0.0
C49 C 0.22136 0.65657 0.88361 0.0
C50 C 0.1246 0.7256 0.79149 0.0
C51 C 0.13474 0.62926 0.95375 0.0
C52 C 0.06454 0.55646 0.84545 0.0
C53 C 0.04336 0.69585 0.87336 0.0
O54 O 0.17499 0.57896 0.81412 0.0
O55 O 0.20041 0.68557 0.8693 0.0
O56 O 0.11272 0.69179 0.77779 0.0
O57 O 0.12627 0.59969 0.93088 0.0
O58 O 0.05357 0.5893 0.82885 0.0
O59 O 0.07545 0.7018 0.89395 0.0
O60 O 0.10003 0.55115 0.85944 0.0
O61 O 0.14576 0.66355 0.93992 0.0
O62 O 0.04275 0.67772 0.83932 0.0
O63 O 0.20623 0.62176 0.89081 0.0
O64 O 0.12612 0.60176 0.77224 0.0
O65 O 0.13162 0.73132 0.82872 0.0
Sc66 Sc 0.63208 0.80899 0.099 0.0
Sc67 Sc 0.69005 0.88333 0.14532 0.0
Sc68 Sc 0.59517 0.86173 0.18005 0.0
O69 O 0.63955 0.85096 0.14128 0.0
C70 C 0.54473 0.83773 0.10168 0.0
C71 C 0.67604 0.8811 0.052 0.0
C72 C 0.61894 0.94768 0.15677 0.0
C73 C 0.72294 0.79515 0.12109 0.0
C74 C 0.59614 0.76952 0.18027 0.0
C75 C 0.67362 0.88117 0.2337 0.0
O76 O 0.57598 0.8353 0.08021 0.0
O77 O 0.68512 0.90056 0.08377 0.0
O78 O 0.59058 0.92169 0.1564 0.0
O79 O 0.68817 0.78028 0.1142 0.0
O80 O 0.60063 0.80111 0.20189 0.0
O81 O 0.69713 0.86728 0.20725 0.0
O82 O 0.60182 0.76936 0.14212 0.0
O83 O 0.72834 0.83244 0.12966 0.0
O84 O 0.63588 0.88481 0.22673 0.0
O85 O 0.66068 0.84561 0.05262 0.0
O86 O 0.54701 0.8414 0.13976 0.0
O87 O 0.65624 0.93813 0.16053 0.0
H88 H 0.19358 0.65948 0.00291 0.0
H89 H 0.22147 0.62423 0.06183 0.0
H90 H 0.12105 0.5411 0.0595 0.0
H91 H 0.09374 0.57526 -0.00025 0.0
H92 H 0.15881 0.56067 0.14131 0.0
H93 H 0.18796 0.51393 0.00406 0.0
H94 H 0.21114 0.5255 0.9346 0.0
H95 H 0.3254 0.56813 0.97987 0.0
H96 H 0.30249 0.5576 0.04968 0.0
H97 H 0.23506 0.37988 0.22106 0.0
H98 H 0.20258 0.42633 0.17328 0.0
H99 H 0.3169 0.48525 0.15301 0.0
H100 H 0.34982 0.43847 0.19982 0.0
H101 H 0.27416 0.48313 0.08551 0.0
H102 H 0.25134 0.52292 0.22117 0.0
H103 H 0.23077 0.51376 0.29175 0.0
H104 H 0.10909 0.48919 0.25292 0.0
H105 H 0.1291 0.49752 0.18198 0.0
C106 C 0.17646 0.6349 0.01606 0.0
C107 C 0.14193 0.61953 -0.00353 0.0
C108 C 0.19248 0.61478 0.04966 0.0
C109 C 0.17354 0.5798 0.06436 0.0
C110 C 0.13603 0.56804 0.04839 0.0
C111 C 0.12049 0.58754 0.01429 0.0
C112 C 0.19636 0.5509 0.08975 0.0
C113 C 0.18392 0.54353 0.12925 0.0
C114 C 0.22954 0.52927 0.07395 0.0
C115 C 0.24339 0.53536 0.03203 0.0
C116 C 0.21789 0.5261 -0.00081 0.0
C117 C 0.23101 0.53236 0.95977 0.0
C118 C 0.26979 0.54736 0.95282 0.0
C119 C 0.29545 0.55631 0.9853 0.0
C120 C 0.28238 0.55029 0.02479 0.0
C121 C 0.2535 0.40204 0.20566 0.0
C122 C 0.29492 0.40582 0.21472 0.0
C123 C 0.23483 0.42878 0.17864 0.0
C124 C 0.25715 0.45998 0.16064 0.0
C125 C 0.29906 0.46163 0.16693 0.0
C126 C 0.31784 0.4347 0.19365 0.0
C127 C 0.23651 0.49234 0.13729 0.0
C128 C 0.24932 0.50037 0.09797 0.0
C129 C 0.20413 0.515 0.15358 0.0
C130 C 0.1918 0.51048 0.19622 0.0
C131 C 0.22024 0.5153 0.22765 0.0
C132 C 0.20869 0.51027 0.26773 0.0
C133 C 0.16866 0.50082 0.27681 0.0
C134 C 0.14009 0.49647 0.24582 0.0
C135 C 0.15152 0.50136 0.20567 0.0
H136 H 0.15976 0.49693 0.30786 0.0
H137 H 0.27987 0.55226 0.92229 0.0
H138 H 0.74942 0.87201 0.2657 0.0
H139 H 0.78444 0.91886 0.3111 0.0
H140 H 0.67571 0.99008 0.32143 0.0
H141 H 0.6402 0.94312 0.27652 0.0
H142 H 0.74778 0.03598 0.30123 0.0
H143 H 0.70078 0.93704 0.39777 0.0
H144 H 0.69209 0.86816 0.4254 0.0
H145 H 0.82087 0.85347 0.43315 0.0
H146 H 0.83032 0.92209 0.40502 0.0
H147 H 0.78924 0.15124 0.47858 0.0
H148 H 0.7671 0.1146 0.41835 0.0
H149 H 0.87308 0.03847 0.42656 0.0
H150 H 0.89478 0.07466 0.48715 0.0
H151 H 0.80585 -0.00457 0.43372 0.0
H152 H 0.85582 0.09176 0.341 0.0
H153 H 0.86862 0.16073 0.31547 0.0
H154 H 0.74124 0.18063 0.30092 0.0
H155 H 0.72745 0.11148 0.32629 0.0
C156 C 0.7327 0.89712 0.27835 0.0
C157 C 0.69203 0.90379 0.26757 0.0
C158 C 0.75282 0.924 0.304 0.0
C159 C 0.73271 0.95812 0.31908 0.0
C160 C 0.69176 0.96409 0.30969 0.0
C161 C 0.67142 0.93689 0.28449 0.0
C162 C 0.75465 0.98756 0.34462 0.0
C163 C 0.76016 0.02736 0.33041 0.0
C164 C 0.7719 0.97578 0.38194 0.0
C165 C 0.76625 0.93452 0.39887 0.0
C166 C 0.72724 0.91897 0.40501 0.0
C167 C 0.72218 0.88001 0.42084 0.0
C168 C 0.7559 0.85641 0.43091 0.0
C169 C 0.79477 0.87176 0.42527 0.0
C170 C 0.8 0.91069 0.40941 0.0
C171 C 0.80883 0.1282 0.46616 0.0
C172 C 0.84353 0.11552 0.4873 0.0
C173 C 0.79607 0.10706 0.4319 0.0
C174 C 0.81822 0.07344 0.41837 0.0
C175 C 0.85541 0.06406 0.43678 0.0
C176 C 0.86792 0.08489 0.47115 0.0
C177 C 0.79922 0.044 0.39049 0.0
C178 C 0.79397 0.00412 0.40435 0.0
C179 C 0.78284 0.05563 0.35274 0.0
C180 C 0.79061 0.09649 0.33569 0.0
C181 C 0.83047 0.11079 0.33231 0.0
C182 C 0.83789 0.14986 0.3178 0.0
C183 C 0.80568 0.17494 0.30647 0.0
C184 C 0.76602 0.1609 0.30941 0.0
C185 C 0.7584 0.12173 0.32372 0.0
H186 H 0.81144 0.20527 0.29545 0.0
H187 H 0.75192 0.82626 0.44318 0.0
H188 H 0.22608 0.53378 0.78243 0.0
H189 H 0.25475 0.49379 0.7281 0.0
H190 H 0.16643 0.54332 0.64503 0.0
H191 H 0.13695 0.58302 0.69934 0.0
H192 H 0.17113 0.46161 0.63977 0.0
H193 H 0.26558 0.57397 0.64476 0.0
H194 H 0.31471 0.61943 0.67797 0.0
H195 H 0.3901 0.51744 0.70792 0.0
H196 H 0.34114 0.4713 0.67534 0.0
H197 H 0.24634 0.43226 0.44769 0.0
H198 H 0.22517 0.45878 0.51239 0.0
H199 H 0.31579 0.38614 0.57291 0.0
H200 H 0.33741 0.35899 0.50766 0.0
H201 H 0.31402 0.46935 0.59654 0.0
H202 H 0.22351 0.35715 0.59105 0.0
H203 H 0.17463 0.30937 0.56092 0.0
H204 H 0.09433 0.40801 0.53275 0.0
H205 H 0.14231 0.45632 0.56368 0.0
C206 C 0.2129 0.53658 0.75255 0.0
C207 C 0.17906 0.5616 0.74531 0.0
C208 C 0.22945 0.51369 0.72151 0.0
C209 C 0.21278 0.51571 0.68258 0.0
C210 C 0.17962 0.54127 0.67499 0.0
C211 C 0.16293 0.56407 0.70603 0.0
C212 C 0.2289 0.49016 0.64992 0.0
C213 C 0.2023 0.46356 0.63014 0.0
C214 C 0.27001 0.49137 0.6386 0.0
C215 C 0.29949 0.51915 0.65801 0.0
C216 C 0.29248 0.56121 0.65872 0.0
C217 C 0.32032 0.5871 0.67737 0.0
C218 C 0.35544 0.57132 0.69515 0.0
C219 C 0.36285 0.52961 0.6942 0.0
C220 C 0.33509 0.50359 0.67562 0.0
C221 C 0.26193 0.42187 0.47466 0.0
C222 C 0.29369 0.39366 0.47257 0.0
C223 C 0.24952 0.4368 0.51164 0.0
C224 C 0.26867 0.42405 0.5473 0.0
C225 C 0.30058 0.39609 0.54558 0.0
C226 C 0.31283 0.38069 0.5084 0.0
C227 C 0.25592 0.44188 0.58583 0.0
C228 C 0.28306 0.46698 0.60671 0.0
C229 C 0.21544 0.43907 0.5985 0.0
C230 C 0.18659 0.41035 0.57947 0.0
C231 C 0.1955 0.36867 0.57827 0.0
C232 C 0.16791 0.34148 0.56117 0.0
C233 C 0.13158 0.35567 0.54456 0.0
C234 C 0.12253 0.39706 0.54552 0.0
C235 C 0.14976 0.42433 0.56312 0.0
H236 H 0.11039 0.33457 0.53112 0.0
H237 H 0.37696 0.59141 0.70958 0.0
H238 H 0.66419 0.85138 0.97523 0.0
H239 H 0.68446 0.88364 0.91179 0.0
H240 H 0.72677 0.98805 0.97775 0.0
H241 H 0.70787 0.95621 0.04064 0.0
H242 H 0.68027 0.00778 0.90986 0.0
H243 H 0.79596 0.92342 0.94952 0.0
H244 H 0.83117 0.85938 0.96594 0.0
H245 H 0.79154 0.80845 0.85339 0.0
H246 H 0.75634 0.87238 0.8362 0.0
H247 H 0.86317 0.06183 0.77684 0.0
H248 H 0.83162 0.02575 0.83274 0.0
H249 H 0.71695 0.02867 0.76982 0.0
H250 H 0.74784 0.06507 0.71415 0.0
H251 H 0.79413 0.95138 0.83158 0.0
H252 H 0.64265 0.03655 0.84131 0.0
H253 H 0.61415 0.10429 0.82684 0.0
H254 H 0.73083 0.15809 0.84605 0.0
H255 H 0.75987 0.09077 0.86115 0.0
C256 C 0.67783 0.88118 0.97613 0.0
C257 C 0.68504 0.90083 0.01308 0.0
C258 C 0.68929 0.89952 0.93996 0.0
C259 C 0.70719 0.93806 0.94037 0.0
C260 C 0.71293 0.95828 0.97695 0.0
C261 C 0.70216 0.93986 0.01291 0.0
C262 C 0.72133 0.95757 0.90316 0.0
C263 C 0.70477 -0.00475 0.89231 0.0
C264 C 0.75356 0.94131 0.88081 0.0
C265 C 0.77326 0.90244 0.89178 0.0
C266 C 0.79449 0.89842 0.92846 0.0
C267 C 0.81464 0.86226 0.93777 0.0
C268 C 0.81363 0.8299 0.91069 0.0
C269 C 0.79235 0.83357 0.87429 0.0
C270 C 0.77241 0.86979 0.86469 0.0
C271 C 0.83116 0.05523 0.77508 0.0
C272 C 0.80807 0.06632 0.74102 0.0
C273 C 0.81328 0.03436 0.80687 0.0
C274 C 0.77205 0.02459 0.80523 0.0
C275 C 0.74878 0.03618 0.77167 0.0
C276 C 0.76657 0.05696 0.73989 0.0
C277 C 0.75346 0.00192 0.83858 0.0
C278 C 0.76905 0.96358 0.84853 0.0
C279 C 0.72064 0.01784 0.86044 0.0
C280 C 0.70348 0.05856 0.85187 0.0
C281 C 0.66218 0.06286 0.84254 0.0
C282 C 0.64594 0.10117 0.83423 0.0
C283 C 0.6707 0.13545 0.83537 0.0
C284 C 0.71172 0.1315 0.845 0.0
C285 C 0.72809 0.09326 0.85337 0.0
H286 H 0.65807 0.16507 0.8289 0.0
H287 H 0.82935 0.80198 0.91788 0.0
H288 H 0.95865 0.23831 0.54112 0.0
H289 H 0.01594 0.24182 0.49599 0.0
H290 H 0.07976 0.1533 0.56837 0.0
H291 H 0.02203 0.14925 0.61406 0.0
H292 H 0.12747 0.21997 0.5407 0.0
H293 H 0.0383 0.11964 0.48795 0.0
H294 H 0.97221 0.09149 0.46772 0.0
H295 H 0.95877 0.18436 0.3777 0.0
H296 H 0.02449 0.21356 0.39786 0.0
H297 H 0.27145 0.21579 0.39157 0.0
H298 H 0.21715 0.18103 0.4264 0.0
H299 H 0.132 0.27047 0.38316 0.0
H300 H 0.18618 0.30604 0.34852 0.0
H301 H 0.09886 0.18819 0.39693 0.0
H302 H 0.17631 0.29614 0.46055 0.0
H303 H 0.23937 0.32946 0.48172 0.0
H304 H 0.27229 0.225 0.55229 0.0
H305 H 0.20939 0.19065 0.5308 0.0
C306 C 0.98502 0.21992 0.54788 0.0
C307 C 0.98562 0.19309 0.58087 0.0
C308 C 0.01761 0.22183 0.52191 0.0
C309 C 0.05138 0.19697 0.52836 0.0
C310 C 0.05355 0.17228 0.56278 0.0
C311 C 0.02073 0.17025 0.58893 0.0
C312 C 0.08376 0.19672 0.49825 0.0
C313 C 0.12166 0.21186 0.50951 0.0
C314 C 0.07559 0.18686 0.45745 0.0
C315 C 0.03632 0.16894 0.4446 0.0
C316 C 0.02117 0.13425 0.46401 0.0
C317 C 0.98375 0.11808 0.45254 0.0
C318 C 0.96126 0.13616 0.42148 0.0
C319 C 0.97622 0.17038 0.40176 0.0
C320 C 0.0136 0.18672 0.41316 0.0
C321 C 0.24098 0.22739 0.3881 0.0
C322 C 0.23337 0.26453 0.36837 0.0
C323 C 0.20996 0.20728 0.40797 0.0
C324 C 0.17095 0.22376 0.40792 0.0
C325 C 0.16209 0.25749 0.38359 0.0
C326 C 0.19318 0.27791 0.36401 0.0
C327 C 0.14225 0.21183 0.43944 0.0
C328 C 0.10503 0.19482 0.42838 0.0
C329 C 0.15082 0.22012 0.48048 0.0
C330 C 0.18858 0.24057 0.49349 0.0
C331 C 0.1973 0.28001 0.48006 0.0
C332 C 0.23301 0.29912 0.49217 0.0
C333 C 0.26007 0.2793 0.51814 0.0
C334 C 0.25138 0.24028 0.53207 0.0
C335 C 0.2157 0.22095 0.5199 0.0
H336 H 0.28765 0.29422 0.52763 0.0
H337 H 0.9323 0.12362 0.41265 0.0
H338 H 0.121 0.80563 0.81196 0.0
H339 H 0.09726 0.86066 0.76882 0.0
H340 H 0.10077 0.78143 0.66569 0.0
H341 H 0.12334 0.72564 0.70898 0.0
H342 H 0.11202 0.90373 0.70384 0.0
H343 H 0.01294 0.79176 0.61387 0.0
H344 H 0.98608 0.72222 0.62023 0.0
H345 H 0.98941 0.73239 0.74919 0.0
H346 H 0.01568 0.8021 0.74352 0.0
H347 H 0.98439 0.03629 0.59619 0.0
H348 H 0.03029 0.97864 0.60568 0.0
H349 H 0.94092 0.91926 0.67913 0.0
H350 H 0.89413 0.97536 0.66694 0.0
H351 H 0.9795 0.86467 0.64433 0.0
H352 H 0.02094 0.98499 0.71765 0.0
H353 H 0.04178 0.05658 0.72346 0.0
H354 H 0.14406 0.03333 0.64837 0.0
H355 H 0.12353 0.96168 0.64179 0.0
C356 C 0.118 0.80014 0.77991 0.0
C357 C 0.12297 0.76098 0.76407 0.0
C358 C 0.10448 0.83175 0.7552 0.0
C359 C 0.09612 0.82479 0.71426 0.0
C360 C 0.10612 0.78714 0.69742 0.0
C361 C 0.11908 0.75532 0.72221 0.0
C362 C 0.07119 0.85448 0.6914 0.0
C363 C 0.08332 0.89517 0.69026 0.0
C364 C 0.03326 0.84346 0.67456 0.0
C365 C 0.01678 0.80185 0.67822 0.0
C366 C 0.00782 0.77914 0.64354 0.0
C367 C 0.99269 0.73972 0.64704 0.0
C368 C 0.9862 0.72284 0.68509 0.0
C369 C -0.00542 0.74543 0.71973 0.0
C370 C 0.00958 0.78488 0.71639 0.0
C371 C 0.97433 0.01025 0.61334 0.0
C372 C 0.93599 0.01005 0.63103 0.0
C373 C 0.00062 0.97755 0.61907 0.0
C374 C 0.98964 0.94511 0.64419 0.0
C375 C 0.95026 0.9439 0.65971 0.0
C376 C 0.92349 0.97594 0.6528 0.0
C377 C 0.01979 0.9143 0.65751 0.0
C378 C 0.00868 0.87327 0.65682 0.0
C379 C 0.05778 0.92534 0.67442 0.0
C380 C 0.07048 0.96818 0.67887 0.0
C381 C 0.04778 -0.00477 0.70228 0.0
C382 C 0.05953 0.03579 0.70569 0.0
C383 C 0.09415 0.04952 0.68619 0.0
C384 C 0.1172 0.02267 0.66338 0.0
C385 C 0.10555 0.98209 0.65981 0.0
H386 H 0.10317 0.08094 0.68883 0.0
H387 H 0.97457 0.69231 0.68772 0.0
H388 H 0.25008 0.63206 0.95625 0.0
H389 H 0.30479 0.66324 -0.00505 0.0
H390 H 0.33471 0.73755 0.89223 0.0
H391 H 0.27875 0.70736 0.85398 0.0
H392 H 0.38182 0.6737 -0.00522 0.0
H393 H 0.35745 0.83218 0.92012 0.0
H394 H 0.3027 0.8707 0.88647 0.0
H395 H 0.21413 0.80009 0.94894 0.0
H396 H 0.26831 0.7616 0.98341 0.0
H397 H 0.52277 0.85053 0.02345 0.0
H398 H 0.46459 0.82119 0.98813 0.0
H399 H 0.42128 0.77218 0.10008 0.0
H400 H 0.47925 0.80176 0.13591 0.0
H401 H 0.37807 0.8242 -0.00241 0.0
H402 H 0.39623 0.67374 0.07956 0.0
H403 H 0.44756 0.63504 0.11818 0.0
H404 H 0.54182 0.69021 0.04914 0.0
H405 H 0.49104 0.7289 0.00992 0.0
C406 C 0.26928 0.65397 0.94148 0.0
C407 C 0.26045 0.66722 0.90212 0.0
C408 C 0.30033 0.67208 0.96376 0.0
C409 C 0.32314 0.70357 0.94688 0.0
C410 C 0.3167 0.71415 0.90626 0.0
C411 C 0.28511 0.69661 0.88426 0.0
C412 C 0.35145 0.72727 0.9725 0.0
C413 C 0.3806 0.70656 -0.00431 0.0
C414 C 0.34979 0.77023 0.97407 0.0
C415 C 0.31698 0.79374 0.95401 0.0
C416 C 0.3263 0.82501 0.92681 0.0
C417 C 0.29536 0.84682 0.90757 0.0
C418 C 0.25497 0.83775 0.91546 0.0
C419 C 0.24542 0.80699 0.94275 0.0
C420 C 0.27624 0.78516 0.96213 0.0
C421 C 0.50027 0.83444 0.04072 0.0
C422 C 0.50558 0.82826 0.08235 0.0
C423 C 0.46708 0.81777 0.02053 0.0
C424 C 0.4391 0.79418 0.04157 0.0
C425 C 0.44282 0.7902 0.08352 0.0
C426 C 0.47575 0.80732 0.10388 0.0
C427 C 0.40855 0.77058 0.01898 0.0
C428 C 0.37897 0.79133 -0.0034 0.0
C429 C 0.40911 0.72771 0.01897 0.0
C430 C 0.43988 0.70429 0.04199 0.0
C431 C 0.42791 0.67743 0.07253 0.0
C432 C 0.45689 0.65553 0.09452 0.0
C433 C 0.4979 0.66007 0.08599 0.0
C434 C 0.51004 0.68669 0.05565 0.0
C435 C 0.48119 0.70865 0.03359 0.0
H436 H 0.5203 0.64295 0.10288 0.0
H437 H 0.23107 0.85462 0.90048 0.0
H438 H 0.39578 0.25922 0.22241 0.0
H439 H 0.43648 0.20737 0.18899 0.0
H440 H 0.48256 0.16723 0.30439 0.0
H441 H 0.4418 0.21852 0.3381 0.0
H442 H 0.54265 0.18604 0.24428 0.0
H443 H 0.41829 0.11023 0.26159 0.0
H444 H 0.34505 0.09892 0.25327 0.0
H445 H 0.35696 0.10414 0.12467 0.0
H446 H 0.43025 0.11606 0.13228 0.0
H447 H 0.63595 -0.00292 0.21899 0.0
H448 H 0.60131 0.06011 0.23479 0.0
H449 H 0.54091 0.05713 0.11869 0.0
H450 H 0.57302 0.99174 0.10474 0.0
H451 H 0.48839 0.06755 0.16983 0.0
H452 H 0.61475 0.13488 0.15137 0.0
H453 H 0.68806 0.14603 0.15956 0.0
H454 H 0.67351 0.15877 0.28735 0.0
H455 H 0.60049 0.1473 0.27998 0.0
C456 C 0.41414 0.23892 0.24067 0.0
C457 C 0.4156 0.24282 0.28284 0.0
C458 C 0.43733 0.20947 0.22156 0.0
C459 C 0.46254 0.18389 0.24435 0.0
C460 C 0.4633 0.18697 0.28644 0.0
C461 C 0.43972 0.21598 0.30561 0.0
C462 C 0.4892 0.15458 0.2244 0.0
C463 C 0.53105 0.15995 0.22803 0.0
C464 C 0.47367 0.12172 0.20205 0.0
C465 C 0.42964 0.11456 0.19751 0.0
C466 C 0.40522 0.10938 0.23155 0.0
C467 C 0.36372 0.10277 0.22697 0.0
C468 C 0.34634 0.10095 0.18847 0.0
C469 C 0.37045 0.10564 0.15448 0.0
C470 C 0.41197 0.11231 0.1589 0.0
C471 C 0.61619 0.01065 0.19647 0.0
C472 C 0.60703 0.99008 0.16071 0.0
C473 C 0.59655 0.04689 0.20532 0.0
C474 C 0.56872 0.0639 0.17773 0.0
C475 C 0.5621 0.04463 0.14051 0.0
C476 C 0.5806 0.00757 0.13237 0.0
C477 C 0.54261 0.0982 0.19006 0.0
C478 C 0.50056 0.09397 0.18508 0.0
C479 C 0.55808 0.13241 0.21079 0.0
C480 C 0.6021 0.1401 0.2151 0.0
C481 C 0.62725 0.13994 0.18121 0.0
C482 C 0.66881 0.14633 0.18572 0.0
C483 C 0.68555 0.15308 0.22394 0.0
C484 C 0.66071 0.15361 0.25772 0.0
C485 C 0.61918 0.14727 0.25338 0.0
H486 H 0.71773 0.15792 0.22736 0.0
H487 H 0.3142 0.09581 0.18498 0.0
H488 H 0.71724 0.12904 0.54549 0.0
H489 H 0.66065 0.16084 0.5095 0.0
H490 H 0.66893 0.26484 0.58761 0.0
H491 H 0.72564 0.23339 0.62377 0.0
H492 H 0.58795 0.23992 0.56718 0.0
H493 H 0.71757 0.2675 0.5024 0.0
H494 H 0.78096 0.24648 0.46994 0.0
H495 H 0.7133 0.18092 0.38036 0.0
H496 H 0.6496 0.20115 0.41253 0.0
H497 H 0.47337 0.37663 0.4534 0.0
H498 H 0.53112 0.34891 0.49123 0.0
H499 H 0.55159 0.26252 0.39591 0.0
H500 H 0.49624 0.29253 0.35691 0.0
H501 H 0.6187 0.27755 0.42593 0.0
H502 H 0.49228 0.2423 0.48458 0.0
H503 H 0.42518 0.25485 0.51374 0.0
H504 H 0.48011 0.32123 0.61097 0.0
H505 H 0.54752 0.30955 0.58206 0.0
C506 C 0.70628 0.15813 0.55582 0.0
C507 C 0.72607 0.17889 0.58728 0.0
C508 C 0.67418 0.17637 0.535 0.0
C509 C 0.66127 0.21541 0.54555 0.0
C510 C 0.67875 0.23477 0.57895 0.0
C511 C 0.71109 0.21676 0.59955 0.0
C512 C 0.63185 0.23749 0.51995 0.0
C513 C 0.59467 0.24856 0.53641 0.0
C514 C 0.64037 0.24743 0.47945 0.0
C515 C 0.67883 0.23562 0.46005 0.0
C516 C 0.71624 0.24841 0.47593 0.0
C517 C 0.75223 0.23671 0.4575 0.0
C518 C 0.75117 0.21247 0.42303 0.0
C519 C 0.71412 0.1998 0.40696 0.0
C520 C 0.67807 0.2114 0.42526 0.0
C521 C 0.49123 0.35265 0.44017 0.0
C522 C 0.48073 0.33668 0.40241 0.0
C523 C 0.52379 0.33641 0.46193 0.0
C524 C 0.54485 0.30258 0.44713 0.0
C525 C 0.5358 0.28841 0.40818 0.0
C526 C 0.50424 0.30564 0.38582 0.0
C527 C 0.57431 0.28021 0.47298 0.0
C528 C 0.61167 0.26904 0.45665 0.0
C529 C 0.56531 0.26879 0.51315 0.0
C530 C 0.52489 0.27539 0.53095 0.0
C531 C 0.49002 0.25974 0.51208 0.0
C532 C 0.45194 0.2667 0.52855 0.0
C533 C 0.44838 0.28891 0.56412 0.0
C534 C 0.48291 0.30409 0.58338 0.0
C535 C 0.52107 0.29729 0.56698 0.0
H536 H 0.41887 0.2943 0.57681 0.0
H537 H 0.77905 0.20342 0.40881 0.0
H538 H 0.9926 0.55197 0.80502 0.0
H539 H 0.94953 0.49319 0.79666 0.0
H540 H 0.02649 0.42459 0.87762 0.0
H541 H 0.07109 0.48334 0.8849 0.0
H542 H 0.01554 0.38404 0.81333 0.0
H543 H 0.92478 0.44997 0.90052 0.0
H544 H 0.88463 0.50609 0.92841 0.0
H545 H 0.81623 0.51417 0.81806 0.0
H546 H 0.85636 0.45853 0.78923 0.0
H547 H 0.89574 0.21548 0.77031 0.0
H548 H 0.91526 0.27183 0.81361 0.0
H549 H 0.87853 0.35666 0.72122 0.0
H550 H 0.85903 0.30046 0.67728 0.0
H551 H 0.86569 0.38328 0.80545 0.0
H552 H 0.96879 0.32763 0.7163 0.0
H553 H 0.00882 0.27096 0.68917 0.0
H554 H 0.05362 0.24341 0.80802 0.0
H555 H 0.01326 0.29956 0.8359 0.0
C556 C 0.00015 0.52468 0.8217 0.0
C557 C 0.03561 0.52228 0.84534 0.0
C558 C 0.97511 0.49106 0.81718 0.0
C559 C 0.98436 0.45448 0.8369 0.0
C560 C 0.01868 0.45253 0.86214 0.0
C561 C 0.04417 0.4861 0.86625 0.0
C562 C 0.96115 0.41732 0.82678 0.0
C563 C 0.98276 0.38361 0.81283 0.0
C564 C 0.9183 0.41677 0.82536 0.0
C565 C 0.89377 0.45011 0.84264 0.0
C566 C 0.90135 0.46386 0.88208 0.0
C567 C 0.87856 0.49558 0.89808 0.0
C568 C 0.84793 0.51371 0.87501 0.0
C569 C 0.83996 0.50009 0.83591 0.0
C570 C 0.86267 0.46839 0.81975 0.0
C571 C 0.8908 0.24608 0.7594 0.0
C572 C 0.87672 0.2534 0.71985 0.0
C573 C 0.90181 0.27824 0.78437 0.0
C574 C 0.89879 0.31822 0.77032 0.0
C575 C 0.88104 0.32589 0.73251 0.0
C576 C 0.87015 0.2937 0.70736 0.0
C577 C 0.92032 0.35106 0.79168 0.0
C578 C 0.89842 0.38372 0.80731 0.0
C579 C 0.96293 0.3507 0.79507 0.0
C580 C 0.98767 0.31741 0.77822 0.0
C581 C 0.98694 0.30927 0.73666 0.0
C582 C 0.00971 0.27729 0.72115 0.0
C583 C 0.03366 0.25352 0.74687 0.0
C584 C 0.03499 0.26179 0.78814 0.0
C585 C 0.01218 0.29368 0.80382 0.0
H586 H 0.05126 0.22877 0.73482 0.0
H587 H 0.83034 0.53828 0.88744 0.0
H588 H 0.03128 0.75434 0.92917 0.0
H589 H 0.97398 0.75992 0.97428 0.0
H590 H 0.91197 0.6655 0.90872 0.0
H591 H 0.96954 0.65969 0.86303 0.0
H592 H 0.86128 0.72906 0.93522 0.0
H593 H 0.95906 0.63773 0.98896 0.0
H594 H 0.02766 0.61481 0.00745 0.0
H595 H 0.03864 0.71242 0.09218 0.0
H596 H 0.97029 0.73643 0.07364 0.0
H597 H 0.72345 0.71828 0.09019 0.0
H598 H 0.77887 0.68735 0.05362 0.0
H599 H 0.85844 0.78327 0.0925 0.0
H600 H 0.8031 0.81492 0.12893 0.0
H601 H 0.89768 0.70529 0.079 0.0
H602 H 0.80422 0.8008 0.01782 0.0
H603 H 0.73712 0.82558 -0.00227 0.0
H604 H 0.7191 0.72026 0.92389 0.0
H605 H 0.78593 0.69395 0.94501 0.0
C606 C 0.00509 0.73538 0.92373 0.0
C607 C 0.00503 0.70621 0.89295 0.0
C608 C 0.97253 0.73845 0.94965 0.0
C609 C 0.93948 0.71227 0.94542 0.0
C610 C 0.93758 0.68559 0.9126 0.0
C611 C 0.97028 0.68254 0.88642 0.0
C612 C 0.90838 0.71157 0.97689 0.0
C613 C 0.8689 0.72288 0.96651 0.0
C614 C 0.91874 0.70381 0.01772 0.0
C615 C 0.95958 0.68904 0.0297 0.0
C616 C 0.97617 0.65448 0.01136 0.0
C617 C 0.01504 0.64128 0.02186 0.0
C618 C 0.03756 0.66218 0.05093 0.0
C619 C 0.02117 0.69626 0.06965 0.0
C620 C 0.98233 0.70966 0.05919 0.0
C621 C 0.75303 0.73218 0.09227 0.0
C622 C 0.75851 0.76991 0.11134 0.0
C623 C 0.78471 0.71426 0.07141 0.0
C624 C 0.82229 0.73363 0.06968 0.0
C625 C 0.82945 0.76809 0.09335 0.0
C626 C 0.79767 0.78628 0.11396 0.0
C627 C 0.85078 0.72346 0.03734 0.0
C628 C 0.8898 0.71033 0.04758 0.0
C629 C 0.84 0.72938 -0.00371 0.0
C630 C 0.79973 0.74497 0.98372 0.0
C631 C 0.78566 0.78246 -0.002 0.0
C632 C 0.74764 0.79687 0.98628 0.0
C633 C 0.72365 0.77449 0.95958 0.0
C634 C 0.73765 0.73753 0.94467 0.0
C635 C 0.77556 0.72276 0.95664 0.0
H636 H 0.6943 0.78582 0.9503 0.0
H637 H 0.06766 0.65193 0.059 0.0
H638 H 0.55062 0.71175 0.14307 0.0
H639 H 0.50734 0.66162 0.17562 0.0
H640 H 0.55315 0.69785 0.29202 0.0
H641 H 0.59634 0.74854 0.2599 0.0
H642 H 0.54297 0.60962 0.27788 0.0
H643 H 0.47003 0.73759 0.26802 0.0
H644 H 0.44438 0.79719 0.23064 0.0
H645 H 0.37884 0.71921 0.14985 0.0
H646 H 0.40449 0.65911 0.18651 0.0
H647 H 0.40292 0.50012 0.38249 0.0
H648 H 0.43727 0.56329 0.36477 0.0
H649 H 0.37799 0.56218 0.24824 0.0
H650 H 0.34148 0.50077 0.26722 0.0
H651 H 0.39556 0.63642 0.26613 0.0
H652 H 0.46814 0.51052 0.26629 0.0
H653 H 0.4936 0.44678 0.29625 0.0
H654 H 0.56146 0.51433 0.38422 0.0
H655 H 0.53583 0.57849 0.35514 0.0
C656 C 0.55232 0.70836 0.1755 0.0
C657 C 0.57674 0.73412 0.19901 0.0
C658 C 0.52739 0.67998 0.19396 0.0
C659 C 0.52687 0.67666 0.23602 0.0
C660 C 0.55316 0.7003 0.25946 0.0
C661 C 0.57774 0.72912 0.24109 0.0
C662 C 0.49704 0.65023 0.2555 0.0
C663 C 0.51078 0.61574 0.27605 0.0
C664 C 0.45512 0.65781 0.25169 0.0
C665 C 0.43926 0.6939 0.22994 0.0
C666 C 0.4503 0.73316 0.24217 0.0
C667 C 0.43572 0.76702 0.22116 0.0
C668 C 0.40988 0.76198 0.188 0.0
C669 C 0.3987 0.72306 0.17567 0.0
C670 C 0.41321 0.6891 0.19658 0.0
C671 C 0.39584 0.51467 0.35397 0.0
C672 C 0.36994 0.49597 0.32606 0.0
C673 C 0.41569 0.55041 0.34367 0.0
C674 C 0.41137 0.56646 0.30461 0.0
C675 C 0.38207 0.55012 0.2784 0.0
C676 C 0.36118 0.51512 0.28924 0.0
C677 C 0.44136 0.5956 0.28894 0.0
C678 C 0.42774 0.63049 0.2687 0.0
C679 C 0.48347 0.58771 0.2919 0.0
C680 C 0.49976 0.54926 0.30882 0.0
C681 C 0.48838 0.51175 0.29212 0.0
C682 C 0.50281 0.47556 0.30895 0.0
C683 C 0.52905 0.4765 0.34218 0.0
C684 C 0.54106 0.51365 0.35852 0.0
C685 C 0.52661 0.54994 0.34189 0.0
H686 H 0.54014 0.44845 0.35522 0.0
H687 H 0.39855 0.78826 0.17186 0.0
loop_
_geom_bond_atom_site_label_1
_geom_bond_atom_site_label_2
_geom_bond_distance
_geom_bond_site_symmetry_2
_ccdc_geom_bond_type
Sc0 O3 2.025 . S
Sc0 O10 2.105 . S
Sc0 O13 2.105 . S
Sc0 O16 2.105 . S
Sc0 O19 2.105 . S
Sc1 O3 2.025 . S
Sc1 O11 2.105 . S
Sc1 O15 2.105 . S
Sc1 O17 2.105 . S
Sc1 O21 2.105 . S
Sc2 O3 2.025 . S
Sc2 O12 2.105 . S
Sc2 O14 2.105 . S
Sc2 O18 2.105 . S
Sc2 O20 2.105 . S
O3 Sc0 2.025 . S
O3 Sc1 2.025 . S
O3 Sc2 2.025 . S
C4 O10 1.268 . S
C4 O20 1.268 . S
C5 O11 1.268 . S
C5 O19 1.268 . S
C6 O12 1.268 . S
C6 O21 1.268 . S
C7 O13 1.268 . S
C7 O17 1.268 . S
C8 O14 1.268 . S
C8 O16 1.268 . S
C9 O15 1.268 . S
C9 O18 1.268 . S
O10 Sc0 2.105 . S
O10 C4 1.268 . S
O11 Sc1 2.105 . S
O11 C5 1.268 . S
O12 Sc2 2.105 . S
O12 C6 1.268 . S
O13 Sc0 2.105 . S
O13 C7 1.268 . S
O14 Sc2 2.105 . S
O14 C8 1.268 . S
O15 Sc1 2.105 . S
O15 C9 1.268 . S
O16 Sc0 2.105 . S
O16 C8 1.268 . S
O17 Sc1 2.105 . S
O17 C7 1.268 . S
O18 Sc2 2.105 . S
O18 C9 1.268 . S
O19 Sc0 2.105 . S
O19 C5 1.268 . S
O20 Sc2 2.105 . S
O20 C4 1.268 . S
O21 Sc1 2.105 . S
O21 C6 1.268 . S
Sc22 O25 2.025 . S
Sc22 O32 2.105 . S
Sc22 O35 2.105 . S
Sc22 O38 2.105 . S
Sc22 O41 2.105 . S
Sc23 O25 2.025 . S
Sc23 O33 2.105 . S
Sc23 O37 2.105 . S
Sc23 O39 2.105 . S
Sc23 O43 2.105 . S
Sc24 O25 2.025 . S
Sc24 O34 2.105 . S
Sc24 O36 2.105 . S
Sc24 O40 2.105 . S
Sc24 O42 2.105 . S
O25 Sc22 2.025 . S
O25 Sc23 2.025 . S
O25 Sc24 2.025 . S
C26 O32 1.268 . S
C26 O42 1.268 . S
C27 O33 1.268 . S
C27 O41 1.268 . S
C28 O34 1.268 . S
C28 O43 1.268 . S
C29 O35 1.268 . S
C29 O39 1.268 . S
C30 O36 1.268 . S
C30 O38 1.268 . S
C31 O37 1.268 . S
C31 O40 1.268 . S
O32 Sc22 2.105 . S
O32 C26 1.268 . S
O33 Sc23 2.105 . S
O33 C27 1.268 . S
O34 Sc24 2.105 . S
O34 C28 1.268 . S
O35 Sc22 2.105 . S
O35 C29 1.268 . S
O36 Sc24 2.105 . S
O36 C30 1.268 . S
O37 Sc23 2.105 . S
O37 C31 1.268 . S
O38 Sc22 2.105 . S
O38 C30 1.268 . S
O39 Sc23 2.105 . S
O39 C29 1.268 . S
O40 Sc24 2.105 . S
O40 C31 1.268 . S
O41 Sc22 2.105 . S
O41 C27 1.268 . S
O42 Sc24 2.105 . S
O42 C26 1.268 . S
O43 Sc23 2.105 . S
O43 C28 1.268 . S
Sc44 O47 2.025 . S
Sc44 O54 2.105 . S
Sc44 O57 2.105 . S
Sc44 O60 2.105 . S
Sc44 O63 2.105 . S
Sc45 O47 2.025 . S
Sc45 O55 2.105 . S
Sc45 O59 2.105 . S
Sc45 O61 2.105 . S
Sc45 O65 2.105 . S
Sc46 O47 2.025 . S
Sc46 O56 2.105 . S
Sc46 O58 2.105 . S
Sc46 O62 2.105 . S
Sc46 O64 2.105 . S
O47 Sc44 2.025 . S
O47 Sc45 2.025 . S
O47 Sc46 2.025 . S
C48 O54 1.268 . S
C48 O64 1.268 . S
C49 O55 1.268 . S
C49 O63 1.268 . S
C50 O56 1.268 . S
C50 O65 1.268 . S
C51 O57 1.268 . S
C51 O61 1.268 . S
C52 O58 1.268 . S
C52 O60 1.268 . S
C53 O59 1.268 . S
C53 O62 1.268 . S
O54 Sc44 2.105 . S
O54 C48 1.268 . S
O55 Sc45 2.105 . S
O55 C49 1.268 . S
O56 Sc46 2.105 . S
O56 C50 1.268 . S
O57 Sc44 2.105 . S
O57 C51 1.268 . S
O58 Sc46 2.105 . S
O58 C52 1.268 . S
O59 Sc45 2.105 . S
O59 C53 1.268 . S
O60 Sc44 2.105 . S
O60 C52 1.268 . S
O61 Sc45 2.105 . S
O61 C51 1.268 . S
O62 Sc46 2.105 . S
O62 C53 1.268 . S
O63 Sc44 2.105 . S
O63 C49 1.268 . S
O64 Sc46 2.105 . S
O64 C48 1.268 . S
O65 Sc45 2.105 . S
O65 C50 1.268 . S
Sc66 O69 2.025 . S
Sc66 O76 2.105 . S
Sc66 O79 2.105 . S
Sc66 O82 2.105 . S
Sc66 O85 2.105 . S
Sc67 O69 2.025 . S
Sc67 O77 2.105 . S
Sc67 O81 2.105 . S
Sc67 O83 2.105 . S
Sc67 O87 2.105 . S
Sc68 O69 2.025 . S
Sc68 O78 2.105 . S
Sc68 O80 2.105 . S
Sc68 O84 2.105 . S
Sc68 O86 2.105 . S
O69 Sc66 2.025 . S
O69 Sc67 2.025 . S
O69 Sc68 2.025 . S
C70 O76 1.268 . S
C70 O86 1.268 . S
C71 O77 1.268 . S
C71 O85 1.268 . S
C72 O78 1.268 . S
C72 O87 1.268 . S
C73 O79 1.268 . S
C73 O83 1.268 . S
C74 O80 1.268 . S
C74 O82 1.268 . S
C75 O81 1.268 . S
C75 O84 1.268 . S
O76 Sc66 2.105 . S
O76 C70 1.268 . S
O77 Sc67 2.105 . S
O77 C71 1.268 . S
O78 Sc68 2.105 . S
O78 C72 1.268 . S
O79 Sc66 2.105 . S
O79 C73 1.268 . S
O80 Sc68 2.105 . S
O80 C74 1.268 . S
O81 Sc67 2.105 . S
O81 C75 1.268 . S
O82 Sc66 2.105 . S
O82 C74 1.268 . S
O83 Sc67 2.105 . S
O83 C73 1.268 . S
O84 Sc68 2.105 . S
O84 C75 1.268 . S
O85 Sc66 2.105 . S
O85 C71 1.268 . S
O86 Sc68 2.105 . S
O86 C70 1.268 . S
O87 Sc67 2.105 . S
O87 C72 1.268 . S
H88 C106 0.951 . S
H89 C108 0.951 . S
H90 C110 0.950 . S
H91 C111 0.950 . S
H92 C113 0.950 . S
H93 C116 0.950 . S
H94 C117 0.950 . S
H95 C119 0.950 . S
H96 C120 0.950 . S
H97 C121 0.951 . S
H98 C123 0.951 . S
H99 C125 0.950 . S
H100 C126 0.950 . S
H101 C128 0.950 . S
H102 C131 0.950 . S
H103 C132 0.950 . S
H104 C134 0.950 . S
H105 C135 0.950 . S
C106 H88 0.951 . S
C106 C107 1.366 1_554 S
C106 C108 1.388 . S
C107 C106 1.366 1_556 S
C107 C111 1.385 1_556 S
C108 H89 0.951 . S
C108 C106 1.388 . S
C108 C109 1.366 . S
C109 C108 1.366 . S
C109 C110 1.414 . S
C109 C112 1.499 . S
C110 H90 0.950 . S
C110 C109 1.414 . S
C110 C111 1.374 . S
C111 H91 0.950 . S
C111 C107 1.385 1_554 S
C111 C110 1.374 . S
C112 C109 1.499 . S
C112 C113 1.373 . S
C112 C114 1.389 . S
C113 H92 0.950 . S
C113 C112 1.373 . S
C113 C129 1.377 . S
C114 C112 1.389 . S
C114 C115 1.524 . S
C114 C128 1.377 . S
C115 C114 1.524 . S
C115 C116 1.397 . S
C115 C120 1.363 . S
C116 H93 0.950 . S
C116 C115 1.397 . S
C116 C117 1.334 1_554 S
C117 H94 0.950 . S
C117 C116 1.334 1_556 S
C117 C118 1.287 . S
C118 C117 1.287 . S
C118 C119 1.524 1_556 S
C118 H137 0.913 . S
C119 H95 0.950 . S
C119 C118 1.524 1_554 S
C119 C120 1.415 . S
C120 H96 0.950 . S
C120 C115 1.363 . S
C120 C119 1.415 . S
C121 H97 0.951 . S
C121 C122 1.366 . S
C121 C123 1.388 . S
C122 C121 1.366 . S
C122 C126 1.385 . S
C123 H98 0.951 . S
C123 C121 1.388 . S
C123 C124 1.366 . S
C124 C123 1.366 . S
C124 C125 1.414 . S
C124 C127 1.499 . S
C125 H99 0.950 . S
C125 C124 1.414 . S
C125 C126 1.374 . S
C126 H100 0.950 . S
C126 C122 1.385 . S
C126 C125 1.374 . S
C127 C124 1.499 . S
C127 C128 1.373 . S
C127 C129 1.389 . S
C128 H101 0.950 . S
C128 C114 1.377 . S
C128 C127 1.373 . S
C129 C113 1.377 . S
C129 C127 1.389 . S
C129 C130 1.524 . S
C130 C129 1.524 . S
C130 C131 1.397 . S
C130 C135 1.363 . S
C131 H102 0.950 . S
C131 C130 1.397 . S
C131 C132 1.334 . S
C132 H103 0.950 . S
C132 C131 1.334 . S
C132 C133 1.287 . S
C133 C132 1.287 . S
C133 C134 1.524 . S
C133 H136 0.999 . S
C134 H104 0.950 . S
C134 C133 1.524 . S
C134 C135 1.415 . S
C135 H105 0.950 . S
C135 C130 1.363 . S
C135 C134 1.415 . S
H136 C133 0.999 . S
H137 C118 0.913 . S
H138 C156 0.951 . S
H139 C158 0.951 . S
H140 C160 0.950 . S
H141 C161 0.950 . S
H142 C163 0.950 . S
H143 C166 0.950 . S
H144 C167 0.950 . S
H145 C169 0.950 . S
H146 C170 0.950 . S
H147 C171 0.951 . S
H148 C173 0.951 . S
H149 C175 0.950 . S
H150 C176 0.950 . S
H151 C178 0.950 . S
H152 C181 0.950 . S
H153 C182 0.950 . S
H154 C184 0.950 . S
H155 C185 0.950 . S
C156 H138 0.951 . S
C156 C157 1.366 . S
C156 C158 1.388 . S
C157 C156 1.366 . S
C157 C161 1.385 . S
C158 H139 0.951 . S
C158 C156 1.388 . S
C158 C159 1.366 . S
C159 C158 1.366 . S
C159 C160 1.414 . S
C159 C162 1.499 . S
C160 H140 0.950 . S
C160 C159 1.414 . S
C160 C161 1.374 . S
C161 H141 0.950 . S
C161 C157 1.385 . S
C161 C160 1.374 . S
C162 C159 1.499 . S
C162 C163 1.373 1_565 S
C162 C164 1.389 . S
C163 H142 0.950 . S
C163 C162 1.373 1_545 S
C163 C179 1.377 . S
C164 C162 1.389 . S
C164 C165 1.524 . S
C164 C178 1.377 . S
C165 C164 1.524 . S
C165 C166 1.397 . S
C165 C170 1.363 . S
C166 H143 0.950 . S
C166 C165 1.397 . S
C166 C167 1.334 . S
C167 H144 0.950 . S
C167 C166 1.334 . S
C167 C168 1.287 . S
C168 C167 1.287 . S
C168 C169 1.524 . S
C168 H187 0.913 . S
C169 H145 0.950 . S
C169 C168 1.524 . S
C169 C170 1.415 . S
C170 H146 0.950 . S
C170 C165 1.363 . S
C170 C169 1.415 . S
C171 H147 0.951 . S
C171 C172 1.366 . S
C171 C173 1.388 . S
C172 C171 1.366 . S
C172 C176 1.385 . S
C173 H148 0.951 . S
C173 C171 1.388 . S
C173 C174 1.366 . S
C174 C173 1.366 . S
C174 C175 1.414 . S
C174 C177 1.499 . S
C175 H149 0.950 . S
C175 C174 1.414 . S
C175 C176 1.374 . S
C176 H150 0.950 . S
C176 C172 1.385 . S
C176 C175 1.374 . S
C177 C174 1.499 . S
C177 C178 1.373 1_545 S
C177 C179 1.389 . S
C178 H151 0.950 . S
C178 C164 1.377 . S
C178 C177 1.373 1_565 S
C179 C163 1.377 . S
C179 C177 1.389 . S
C179 C180 1.524 . S
C180 C179 1.524 . S
C180 C181 1.397 . S
C180 C185 1.363 . S
C181 H152 0.950 . S
C181 C180 1.397 . S
C181 C182 1.334 . S
C182 H153 0.950 . S
C182 C181 1.334 . S
C182 C183 1.287 . S
C183 C182 1.287 . S
C183 C184 1.524 . S
C183 H186 0.999 . S
C184 H154 0.950 . S
C184 C183 1.524 . S
C184 C185 1.415 . S
C185 H155 0.950 . S
C185 C180 1.363 . S
C185 C184 1.415 . S
H186 C183 0.999 . S
H187 C168 0.913 . S
H188 C206 0.951 . S
H189 C208 0.951 . S
H190 C210 0.950 . S
H191 C211 0.950 . S
H192 C213 0.950 . S
H193 C216 0.950 . S
H194 C217 0.950 . S
H195 C219 0.950 . S
H196 C220 0.950 . S
H197 C221 0.951 . S
H198 C223 0.951 . S
H199 C225 0.950 . S
H200 C226 0.950 . S
H201 C228 0.950 . S
H202 C231 0.950 . S
H203 C232 0.950 . S
H204 C234 0.950 . S
H205 C235 0.950 . S
C206 H188 0.951 . S
C206 C207 1.366 . S
C206 C208 1.388 . S
C207 C206 1.366 . S
C207 C211 1.385 . S
C208 H189 0.951 . S
C208 C206 1.388 . S
C208 C209 1.366 . S
C209 C208 1.366 . S
C209 C210 1.414 . S
C209 C212 1.499 . S
C210 H190 0.950 . S
C210 C209 1.414 . S
C210 C211 1.374 . S
C211 H191 0.950 . S
C211 C207 1.385 . S
C211 C210 1.374 . S
C212 C209 1.499 . S
C212 C213 1.373 . S
C212 C214 1.389 . S
C213 H192 0.950 . S
C213 C212 1.373 . S
C213 C229 1.377 . S
C214 C212 1.389 . S
C214 C215 1.524 . S
C214 C228 1.377 . S
C215 C214 1.524 . S
C215 C216 1.397 . S
C215 C220 1.363 . S
C216 H193 0.950 . S
C216 C215 1.397 . S
C216 C217 1.334 . S
C217 H194 0.950 . S
C217 C216 1.334 . S
C217 C218 1.287 . S
C218 C217 1.287 . S
C218 C219 1.524 . S
C218 H237 0.913 . S
C219 H195 0.950 . S
C219 C218 1.524 . S
C219 C220 1.415 . S
C220 H196 0.950 . S
C220 C215 1.363 . S
C220 C219 1.415 . S
C221 H197 0.951 . S
C221 C222 1.366 . S
C221 C223 1.388 . S
C222 C221 1.366 . S
C222 C226 1.385 . S
C223 H198 0.951 . S
C223 C221 1.388 . S
C223 C224 1.366 . S
C224 C223 1.366 . S
C224 C225 1.414 . S
C224 C227 1.499 . S
C225 H199 0.950 . S
C225 C224 1.414 . S
C225 C226 1.374 . S
C226 H200 0.950 . S
C226 C222 1.385 . S
C226 C225 1.374 . S
C227 C224 1.499 . S
C227 C228 1.373 . S
C227 C229 1.389 . S
C228 H201 0.950 . S
C228 C214 1.377 . S
C228 C227 1.373 . S
C229 C213 1.377 . S
C229 C227 1.389 . S
C229 C230 1.524 . S
C230 C229 1.524 . S
C230 C231 1.397 . S
C230 C235 1.363 . S
C231 H202 0.950 . S
C231 C230 1.397 . S
C231 C232 1.334 . S
C232 H203 0.950 . S
C232 C231 1.334 . S
C232 C233 1.287 . S
C233 C232 1.287 . S
C233 C234 1.524 . S
C233 H236 0.999 . S
C234 H204 0.950 . S
C234 C233 1.524 . S
C234 C235 1.415 . S
C235 H205 0.950 . S
C235 C230 1.363 . S
C235 C234 1.415 . S
H236 C233 0.999 . S
H237 C218 0.913 . S
H238 C256 0.951 . S
H239 C258 0.951 . S
H240 C260 0.950 1_545 S
H241 C261 0.950 . S
H242 C263 0.950 . S
H243 C266 0.950 . S
H244 C267 0.950 1_554 S
H245 C269 0.950 . S
H246 C270 0.950 . S
H247 C271 0.951 . S
H248 C273 0.951 . S
H249 C275 0.950 . S
H250 C276 0.950 . S
H251 C278 0.950 1_565 S
H252 C281 0.950 . S
H253 C282 0.950 . S
H254 C284 0.950 . S
H255 C285 0.950 . S
C256 H238 0.951 . S
C256 C257 1.366 1_556 S
C256 C258 1.388 . S
C257 C256 1.366 1_554 S
C257 C261 1.385 . S
C258 H239 0.951 . S
C258 C256 1.388 . S
C258 C259 1.366 . S
C259 C258 1.366 . S
C259 C260 1.414 . S
C259 C262 1.499 . S
C260 H240 0.950 1_565 S
C260 C259 1.414 . S
C260 C261 1.374 1_556 S
C261 H241 0.950 . S
C261 C257 1.385 . S
C261 C260 1.374 1_554 S
C262 C259 1.499 . S
C262 C263 1.373 1_565 S
C262 C264 1.389 . S
C263 H242 0.950 . S
C263 C262 1.373 1_545 S
C263 C279 1.377 . S
C264 C262 1.389 . S
C264 C265 1.524 . S
C264 C278 1.377 1_565 S
C265 C264 1.524 . S
C265 C266 1.397 . S
C265 C270 1.363 . S
C266 H243 0.950 . S
C266 C265 1.397 . S
C266 C267 1.334 . S
C267 H244 0.950 1_556 S
C267 C266 1.334 . S
C267 C268 1.287 . S
C268 C267 1.287 . S
C268 C269 1.524 . S
C268 H287 0.913 . S
C269 H245 0.950 . S
C269 C268 1.524 . S
C269 C270 1.415 . S
C270 H246 0.950 . S
C270 C265 1.363 . S
C270 C269 1.415 . S
C271 H247 0.951 . S
C271 C272 1.366 . S
C271 C273 1.388 . S
C272 C271 1.366 . S
C272 C276 1.385 . S
C273 H248 0.951 . S
C273 C271 1.388 . S
C273 C274 1.366 . S
C274 C273 1.366 . S
C274 C275 1.414 . S
C274 C277 1.499 . S
C275 H249 0.950 . S
C275 C274 1.414 . S
C275 C276 1.374 . S
C276 H250 0.950 . S
C276 C272 1.385 . S
C276 C275 1.374 . S
C277 C274 1.499 . S
C277 C278 1.373 . S
C277 C279 1.389 . S
C278 H251 0.950 1_545 S
C278 C264 1.377 1_545 S
C278 C277 1.373 . S
C279 C263 1.377 . S
C279 C277 1.389 . S
C279 C280 1.524 . S
C280 C279 1.524 . S
C280 C281 1.397 . S
C280 C285 1.363 . S
C281 H252 0.950 . S
C281 C280 1.397 . S
C281 C282 1.334 . S
C282 H253 0.950 . S
C282 C281 1.334 . S
C282 C283 1.287 . S
C283 C282 1.287 . S
C283 C284 1.524 . S
C283 H286 0.999 . S
C284 H254 0.950 . S
C284 C283 1.524 . S
C284 C285 1.415 . S
C285 H255 0.950 . S
C285 C280 1.363 . S
C285 C284 1.415 . S
H286 C283 0.999 . S
H287 C268 0.913 . S
H288 C306 0.951 . S
H289 C308 0.951 . S
H290 C310 0.950 . S
H291 C311 0.950 . S
H292 C313 0.950 . S
H293 C316 0.950 . S
H294 C317 0.950 . S
H295 C319 0.950 . S
H296 C320 0.950 . S
H297 C321 0.951 . S
H298 C323 0.951 . S
H299 C325 0.950 . S
H300 C326 0.950 . S
H301 C328 0.950 . S
H302 C331 0.950 . S
H303 C332 0.950 . S
H304 C334 0.950 . S
H305 C335 0.950 . S
C306 H288 0.951 . S
C306 C307 1.366 . S
C306 C308 1.388 1_655 S
C307 C306 1.366 . S
C307 C311 1.385 1_655 S
C308 H289 0.951 . S
C308 C306 1.388 1_455 S
C308 C309 1.366 . S
C309 C308 1.366 . S
C309 C310 1.414 . S
C309 C312 1.499 . S
C310 H290 0.950 . S
C310 C309 1.414 . S
C310 C311 1.374 . S
C311 H291 0.950 . S
C311 C307 1.385 1_455 S
C311 C310 1.374 . S
C312 C309 1.499 . S
C312 C313 1.373 . S
C312 C314 1.389 . S
C313 H292 0.950 . S
C313 C312 1.373 . S
C313 C329 1.377 . S
C314 C312 1.389 . S
C314 C315 1.524 . S
C314 C328 1.377 . S
C315 C314 1.524 . S
C315 C316 1.397 . S
C315 C320 1.363 . S
C316 H293 0.950 . S
C316 C315 1.397 . S
C316 C317 1.334 1_455 S
C317 H294 0.950 . S
C317 C316 1.334 1_655 S
C317 C318 1.287 . S
C318 C317 1.287 . S
C318 C319 1.524 . S
C318 H337 0.913 . S
C319 H295 0.950 . S
C319 C318 1.524 . S
C319 C320 1.415 1_655 S
C320 H296 0.950 . S
C320 C315 1.363 . S
C320 C319 1.415 1_455 S
C321 H297 0.951 . S
C321 C322 1.366 . S
C321 C323 1.388 . S
C322 C321 1.366 . S
C322 C326 1.385 . S
C323 H298 0.951 . S
C323 C321 1.388 . S
C323 C324 1.366 . S
C324 C323 1.366 . S
C324 C325 1.414 . S
C324 C327 1.499 . S
C325 H299 0.950 . S
C325 C324 1.414 . S
C325 C326 1.374 . S
C326 H300 0.950 . S
C326 C322 1.385 . S
C326 C325 1.374 . S
C327 C324 1.499 . S
C327 C328 1.373 . S
C327 C329 1.389 . S
C328 H301 0.950 . S
C328 C314 1.377 . S
C328 C327 1.373 . S
C329 C313 1.377 . S
C329 C327 1.389 . S
C329 C330 1.524 . S
C330 C329 1.524 . S
C330 C331 1.397 . S
C330 C335 1.363 . S
C331 H302 0.950 . S
C331 C330 1.397 . S
C331 C332 1.334 . S
C332 H303 0.950 . S
C332 C331 1.334 . S
C332 C333 1.287 . S
C333 C332 1.287 . S
C333 C334 1.524 . S
C333 H336 0.999 . S
C334 H304 0.950 . S
C334 C333 1.524 . S
C334 C335 1.415 . S
C335 H305 0.950 . S
C335 C330 1.363 . S
C335 C334 1.415 . S
H336 C333 0.999 . S
H337 C318 0.913 . S
H338 C356 0.951 . S
H339 C358 0.951 . S
H340 C360 0.950 . S
H341 C361 0.950 . S
H342 C363 0.950 . S
H343 C366 0.950 . S
H344 C367 0.950 . S
H345 C369 0.950 . S
H346 C370 0.950 . S
H347 C371 0.951 . S
H348 C373 0.951 . S
H349 C375 0.950 . S
H350 C376 0.950 1_545 S
H351 C378 0.950 . S
H352 C381 0.950 . S
H353 C382 0.931 1_545 S
H354 C384 0.950 . S
H355 C385 0.950 . S
C356 H338 0.951 . S
C356 C357 1.366 . S
C356 C358 1.388 . S
C357 C356 1.366 . S
C357 C361 1.385 . S
C358 H339 0.951 . S
C358 C356 1.388 . S
C358 C359 1.366 . S
C359 C358 1.366 . S
C359 C360 1.414 . S
C359 C362 1.499 . S
C360 H340 0.950 . S
C360 C359 1.414 . S
C360 C361 1.374 . S
C361 H341 0.950 . S
C361 C357 1.385 . S
C361 C360 1.374 . S
C362 C359 1.499 . S
C362 C363 1.373 . S
C362 C364 1.389 1_455 S
C363 H342 0.950 . S
C363 C362 1.373 . S
C363 C379 1.377 . S
C364 C362 1.389 1_655 S
C364 C365 1.524 . S
C364 C378 1.377 . S
C365 C364 1.524 . S
C365 C366 1.397 . S
C365 C370 1.363 . S
C366 H343 0.950 . S
C366 C365 1.397 . S
C366 C367 1.334 . S
C367 H344 0.950 . S
C367 C366 1.334 . S
C367 C368 1.287 . S
C368 C367 1.287 . S
C368 C369 1.524 . S
C368 H387 0.913 . S
C369 H345 0.950 . S
C369 C368 1.524 . S
C369 C370 1.415 . S
C370 H346 0.950 . S
C370 C365 1.363 . S
C370 C369 1.415 . S
C371 H347 0.951 . S
C371 C372 1.366 1_565 S
C371 C373 1.388 . S
C372 C371 1.366 1_545 S
C372 C376 1.385 1_545 S
C373 H348 0.951 . S
C373 C371 1.388 . S
C373 C374 1.366 . S
C374 C373 1.366 . S
C374 C375 1.414 . S
C374 C377 1.499 . S
C375 H349 0.950 . S
C375 C374 1.414 . S
C375 C376 1.374 . S
C376 H350 0.950 1_565 S
C376 C372 1.385 1_565 S
C376 C375 1.374 . S
C377 C374 1.499 . S
C377 C378 1.373 . S
C377 C379 1.389 1_655 S
C378 H351 0.950 . S
C378 C364 1.377 . S
C378 C377 1.373 . S
C379 C363 1.377 . S
C379 C377 1.389 1_455 S
C379 C380 1.524 . S
C380 C379 1.524 . S
C380 C381 1.397 . S
C380 C385 1.363 . S
C381 H352 0.950 . S
C381 C380 1.397 . S
C381 C382 1.348 . S
C382 H353 0.931 1_565 S
C382 C381 1.348 . S
C382 C383 1.293 . S
C383 C382 1.293 . S
C383 C384 1.524 . S
C383 H386 0.999 1_565 S
C384 H354 0.950 . S
C384 C383 1.524 . S
C384 C385 1.415 . S
C385 H355 0.950 . S
C385 C380 1.363 . S
C385 C384 1.415 . S
H386 C383 0.999 1_545 S
H387 C368 0.913 . S
H388 C406 0.951 . S
H389 C408 0.951 . S
H390 C410 0.950 . S
H391 C411 0.950 . S
H392 C413 0.950 . S
H393 C416 0.950 . S
H394 C417 0.950 . S
H395 C419 0.950 1_554 S
H396 C420 0.950 1_554 S
H397 C421 0.951 . S
H398 C423 0.951 1_556 S
H399 C425 0.950 . S
H400 C426 0.950 . S
H401 C428 0.955 . S
H402 C431 0.950 . S
H403 C432 0.950 . S
H404 C434 0.950 . S
H405 C435 0.950 . S
C406 H388 0.951 . S
C406 C407 1.366 . S
C406 C408 1.388 . S
C407 C406 1.366 . S
C407 C411 1.385 . S
C408 H389 0.951 . S
C408 C406 1.388 . S
C408 C409 1.366 . S
C409 C408 1.366 . S
C409 C410 1.414 . S
C409 C412 1.499 . S
C410 H390 0.950 . S
C410 C409 1.414 . S
C410 C411 1.374 . S
C411 H391 0.950 . S
C411 C407 1.385 . S
C411 C410 1.374 . S
C412 C409 1.499 . S
C412 C413 1.373 . S
C412 C414 1.389 . S
C413 H392 0.950 . S
C413 C412 1.373 . S
C413 C429 1.377 . S
C414 C412 1.389 . S
C414 C415 1.524 . S
C414 C428 1.369 1_556 S
C415 C414 1.524 . S
C415 C416 1.397 . S
C415 C420 1.363 . S
C416 H393 0.950 . S
C416 C415 1.397 . S
C416 C417 1.334 . S
C417 H394 0.950 . S
C417 C416 1.334 . S
C417 C418 1.287 . S
C418 C417 1.287 . S
C418 C419 1.524 . S
C418 H437 0.913 . S
C419 H395 0.950 1_556 S
C419 C418 1.524 . S
C419 C420 1.415 . S
C420 H396 0.950 1_556 S
C420 C415 1.363 . S
C420 C419 1.415 . S
C421 H397 0.951 . S
C421 C422 1.366 . S
C421 C423 1.388 . S
C422 C421 1.366 . S
C422 C426 1.385 . S
C423 H398 0.951 1_554 S
C423 C421 1.388 . S
C423 C424 1.366 . S
C424 C423 1.366 . S
C424 C425 1.414 . S
C424 C427 1.499 . S
C425 H399 0.950 . S
C425 C424 1.414 . S
C425 C426 1.374 . S
C426 H400 0.950 . S
C426 C422 1.385 . S
C426 C425 1.374 . S
C427 C424 1.499 . S
C427 C428 1.376 . S
C427 C429 1.389 1_554 S
C428 H401 0.955 . S
C428 C414 1.369 1_554 S
C428 C427 1.376 . S
C429 C413 1.377 . S
C429 C427 1.389 1_556 S
C429 C430 1.524 1_556 S
C430 C429 1.524 1_554 S
C430 C431 1.397 . S
C430 C435 1.363 1_554 S
C431 H402 0.950 . S
C431 C430 1.397 . S
C431 C432 1.334 . S
C432 H403 0.950 . S
C432 C431 1.334 . S
C432 C433 1.287 . S
C433 C432 1.287 . S
C433 C434 1.524 1_554 S
C433 H436 0.999 . S
C434 H404 0.950 . S
C434 C433 1.524 1_556 S
C434 C435 1.415 . S
C435 H405 0.950 . S
C435 C430 1.363 1_556 S
C435 C434 1.415 . S
H436 C433 0.999 . S
H437 C418 0.913 . S
H438 C456 0.951 . S
H439 C458 0.951 . S
H440 C460 0.950 . S
H441 C461 0.950 . S
H442 C463 0.950 . S
H443 C466 0.950 . S
H444 C467 0.950 . S
H445 C469 0.950 . S
H446 C470 0.950 . S
H447 C471 0.951 . S
H448 C473 0.951 . S
H449 C475 0.950 . S
H450 C476 0.950 . S
H451 C478 0.950 . S
H452 C481 0.950 . S
H453 C482 0.950 . S
H454 C484 0.950 . S
H455 C485 0.950 . S
C456 H438 0.951 . S
C456 C457 1.366 . S
C456 C458 1.388 . S
C457 C456 1.366 . S
C457 C461 1.385 . S
C458 H439 0.951 . S
C458 C456 1.388 . S
C458 C459 1.366 . S
C459 C458 1.366 . S
C459 C460 1.414 . S
C459 C462 1.499 . S
C460 H440 0.950 . S
C460 C459 1.414 . S
C460 C461 1.374 . S
C461 H441 0.950 . S
C461 C457 1.385 . S
C461 C460 1.374 . S
C462 C459 1.499 . S
C462 C463 1.373 . S
C462 C464 1.389 . S
C463 H442 0.950 . S
C463 C462 1.373 . S
C463 C479 1.377 . S
C464 C462 1.389 . S
C464 C465 1.524 . S
C464 C478 1.377 . S
C465 C464 1.524 . S
C465 C466 1.397 . S
C465 C470 1.363 . S
C466 H443 0.950 . S
C466 C465 1.397 . S
C466 C467 1.334 . S
C467 H444 0.950 . S
C467 C466 1.334 . S
C467 C468 1.287 . S
C468 C467 1.287 . S
C468 C469 1.524 . S
C468 H487 0.913 . S
C469 H445 0.950 . S
C469 C468 1.524 . S
C469 C470 1.415 . S
C470 H446 0.950 . S
C470 C465 1.363 . S
C470 C469 1.415 . S
C471 H447 0.951 . S
C471 C472 1.366 . S
C471 C473 1.388 1_565 S
C472 C471 1.366 . S
C472 C476 1.385 1_565 S
C473 H448 0.951 . S
C473 C471 1.388 1_545 S
C473 C474 1.366 . S
C474 C473 1.366 . S
C474 C475 1.414 . S
C474 C477 1.499 . S
C475 H449 0.950 . S
C475 C474 1.414 . S
C475 C476 1.374 . S
C476 H450 0.950 . S
C476 C472 1.385 1_545 S
C476 C475 1.374 . S
C477 C474 1.499 . S
C477 C478 1.373 . S
C477 C479 1.389 . S
C478 H451 0.950 . S
C478 C464 1.377 . S
C478 C477 1.373 . S
C479 C463 1.377 . S
C479 C477 1.389 . S
C479 C480 1.524 . S
C480 C479 1.524 . S
C480 C481 1.397 . S
C480 C485 1.363 . S
C481 H452 0.950 . S
C481 C480 1.397 . S
C481 C482 1.334 . S
C482 H453 0.950 . S
C482 C481 1.334 . S
C482 C483 1.287 . S
C483 C482 1.287 . S
C483 C484 1.524 . S
C483 H486 0.999 . S
C484 H454 0.950 . S
C484 C483 1.524 . S
C484 C485 1.415 . S
C485 H455 0.950 . S
C485 C480 1.363 . S
C485 C484 1.415 . S
H486 C483 0.999 . S
H487 C468 0.913 . S
H488 C506 0.951 . S
H489 C508 0.951 . S
H490 C510 0.950 . S
H491 C511 0.950 . S
H492 C513 0.950 . S
H493 C516 0.950 . S
H494 C517 0.950 . S
H495 C519 0.950 . S
H496 C520 0.950 . S
H497 C521 0.951 . S
H498 C523 0.951 . S
H499 C525 0.950 . S
H500 C526 0.950 . S
H501 C528 0.950 . S
H502 C531 0.950 . S
H503 C532 0.950 . S
H504 C534 0.950 . S
H505 C535 0.950 . S
C506 H488 0.951 . S
C506 C507 1.366 . S
C506 C508 1.388 . S
C507 C506 1.366 . S
C507 C511 1.385 . S
C508 H489 0.951 . S
C508 C506 1.388 . S
C508 C509 1.366 . S
C509 C508 1.366 . S
C509 C510 1.414 . S
C509 C512 1.499 . S
C510 H490 0.950 . S
C510 C509 1.414 . S
C510 C511 1.374 . S
C511 H491 0.950 . S
C511 C507 1.385 . S
C511 C510 1.374 . S
C512 C509 1.499 . S
C512 C513 1.373 . S
C512 C514 1.389 . S
C513 H492 0.950 . S
C513 C512 1.373 . S
C513 C529 1.377 . S
C514 C512 1.389 . S
C514 C515 1.524 . S
C514 C528 1.377 . S
C515 C514 1.524 . S
C515 C516 1.397 . S
C515 C520 1.363 . S
C516 H493 0.950 . S
C516 C515 1.397 . S
C516 C517 1.334 . S
C517 H494 0.950 . S
C517 C516 1.334 . S
C517 C518 1.287 . S
C518 C517 1.287 . S
C518 C519 1.524 . S
C518 H537 0.913 . S
C519 H495 0.950 . S
C519 C518 1.524 . S
C519 C520 1.415 . S
C520 H496 0.950 . S
C520 C515 1.363 . S
C520 C519 1.415 . S
C521 H497 0.951 . S
C521 C522 1.366 . S
C521 C523 1.388 . S
C522 C521 1.366 . S
C522 C526 1.385 . S
C523 H498 0.951 . S
C523 C521 1.388 . S
C523 C524 1.366 . S
C524 C523 1.366 . S
C524 C525 1.414 . S
C524 C527 1.499 . S
C525 H499 0.950 . S
C525 C524 1.414 . S
C525 C526 1.374 . S
C526 H500 0.950 . S
C526 C522 1.385 . S
C526 C525 1.374 . S
C527 C524 1.499 . S
C527 C528 1.373 . S
C527 C529 1.389 . S
C528 H501 0.950 . S
C528 C514 1.377 . S
C528 C527 1.373 . S
C529 C513 1.377 . S
C529 C527 1.389 . S
C529 C530 1.524 . S
C530 C529 1.524 . S
C530 C531 1.397 . S
C530 C535 1.363 . S
C531 H502 0.950 . S
C531 C530 1.397 . S
C531 C532 1.334 . S
C532 H503 0.950 . S
C532 C531 1.334 . S
C532 C533 1.287 . S
C533 C532 1.287 . S
C533 C534 1.524 . S
C533 H536 0.999 . S
C534 H504 0.950 . S
C534 C533 1.524 . S
C534 C535 1.415 . S
C535 H505 0.950 . S
C535 C530 1.363 . S
C535 C534 1.415 . S
H536 C533 0.999 . S
H537 C518 0.913 . S
H538 C556 0.951 . S
H539 C558 0.951 . S
H540 C560 0.950 . S
H541 C561 0.950 . S
H542 C563 0.950 . S
H543 C566 0.950 . S
H544 C567 0.950 . S
H545 C569 0.950 . S
H546 C570 0.950 . S
H547 C571 0.951 . S
H548 C573 0.951 . S
H549 C575 0.950 . S
H550 C576 0.950 . S
H551 C578 0.950 . S
H552 C581 0.950 . S
H553 C582 0.950 . S
H554 C584 0.950 . S
H555 C585 0.950 . S
C556 H538 0.951 . S
C556 C557 1.366 . S
C556 C558 1.388 . S
C557 C556 1.366 . S
C557 C561 1.385 . S
C558 H539 0.951 . S
C558 C556 1.388 . S
C558 C559 1.366 . S
C559 C558 1.366 . S
C559 C560 1.414 . S
C559 C562 1.499 . S
C560 H540 0.950 . S
C560 C559 1.414 . S
C560 C561 1.374 . S
C561 H541 0.950 . S
C561 C557 1.385 . S
C561 C560 1.374 . S
C562 C559 1.499 . S
C562 C563 1.373 . S
C562 C564 1.389 1_455 S
C563 H542 0.950 . S
C563 C562 1.373 . S
C563 C579 1.377 . S
C564 C562 1.389 1_655 S
C564 C565 1.524 . S
C564 C578 1.377 . S
C565 C564 1.524 . S
C565 C566 1.397 . S
C565 C570 1.363 . S
C566 H543 0.950 . S
C566 C565 1.397 . S
C566 C567 1.334 . S
C567 H544 0.950 . S
C567 C566 1.334 . S
C567 C568 1.287 . S
C568 C567 1.287 . S
C568 C569 1.524 . S
C568 H587 0.913 . S
C569 H545 0.950 . S
C569 C568 1.524 . S
C569 C570 1.415 . S
C570 H546 0.950 . S
C570 C565 1.363 . S
C570 C569 1.415 . S
C571 H547 0.951 . S
C571 C572 1.366 . S
C571 C573 1.388 . S
C572 C571 1.366 . S
C572 C576 1.385 . S
C573 H548 0.951 . S
C573 C571 1.388 . S
C573 C574 1.366 . S
C574 C573 1.366 . S
C574 C575 1.414 . S
C574 C577 1.499 . S
C575 H549 0.950 . S
C575 C574 1.414 . S
C575 C576 1.374 . S
C576 H550 0.950 . S
C576 C572 1.385 . S
C576 C575 1.374 . S
C577 C574 1.499 . S
C577 C578 1.373 . S
C577 C579 1.389 1_655 S
C578 H551 0.950 . S
C578 C564 1.377 . S
C578 C577 1.373 . S
C579 C563 1.377 . S
C579 C577 1.389 1_455 S
C579 C580 1.524 . S
C580 C579 1.524 . S
C580 C581 1.397 . S
C580 C585 1.363 . S
C581 H552 0.950 . S
C581 C580 1.397 . S
C581 C582 1.334 . S
C582 H553 0.950 . S
C582 C581 1.334 . S
C582 C583 1.287 . S
C583 C582 1.287 . S
C583 C584 1.524 . S
C583 H586 0.999 . S
C584 H554 0.950 . S
C584 C583 1.524 . S
C584 C585 1.415 . S
C585 H555 0.950 . S
C585 C580 1.363 . S
C585 C584 1.415 . S
H586 C583 0.999 . S
H587 C568 0.913 . S
H588 C606 0.951 . S
H589 C608 0.951 . S
H590 C610 0.950 . S
H591 C611 0.950 . S
H592 C613 0.950 . S
H593 C616 0.950 . S
H594 C617 0.950 . S
H595 C619 0.950 1_455 S
H596 C620 0.950 . S
H597 C621 0.951 . S
H598 C623 0.951 . S
H599 C625 0.950 . S
H600 C626 0.950 . S
H601 C628 0.950 . S
H602 C631 0.950 . S
H603 C632 0.950 . S
H604 C634 0.950 . S
H605 C635 0.950 . S
C606 H588 0.951 . S
C606 C607 1.366 . S
C606 C608 1.388 1_455 S
C607 C606 1.366 . S
C607 C611 1.385 1_455 S
C608 H589 0.951 . S
C608 C606 1.388 1_655 S
C608 C609 1.366 . S
C609 C608 1.366 . S
C609 C610 1.414 . S
C609 C612 1.499 . S
C610 H590 0.950 . S
C610 C609 1.414 . S
C610 C611 1.374 . S
C611 H591 0.950 . S
C611 C607 1.385 1_655 S
C611 C610 1.374 . S
C612 C609 1.499 . S
C612 C613 1.373 . S
C612 C614 1.389 1_556 S
C613 H592 0.950 . S
C613 C612 1.373 . S
C613 C629 1.377 . S
C614 C612 1.389 1_554 S
C614 C615 1.524 . S
C614 C628 1.377 . S
C615 C614 1.524 . S
C615 C616 1.397 . S
C615 C620 1.363 . S
C616 H593 0.950 . S
C616 C615 1.397 . S
C616 C617 1.334 . S
C617 H594 0.950 . S
C617 C616 1.334 . S
C617 C618 1.287 . S
C618 C617 1.287 . S
C618 C619 1.524 . S
C618 H637 0.913 1_655 S
C619 H595 0.950 1_655 S
C619 C618 1.524 . S
C619 C620 1.415 . S
C620 H596 0.950 . S
C620 C615 1.363 . S
C620 C619 1.415 . S
C621 H597 0.951 . S
C621 C622 1.366 . S
C621 C623 1.388 . S
C622 C621 1.366 . S
C622 C626 1.385 . S
C623 H598 0.951 . S
C623 C621 1.388 . S
C623 C624 1.366 . S
C624 C623 1.366 . S
C624 C625 1.414 . S
C624 C627 1.499 . S
C625 H599 0.950 . S
C625 C624 1.414 . S
C625 C626 1.374 . S
C626 H600 0.950 . S
C626 C622 1.385 . S
C626 C625 1.374 . S
C627 C624 1.499 . S
C627 C628 1.373 . S
C627 C629 1.389 1_554 S
C628 H601 0.950 . S
C628 C614 1.377 . S
C628 C627 1.373 . S
C629 C613 1.377 . S
C629 C627 1.389 1_556 S
C629 C630 1.524 . S
C630 C629 1.524 . S
C630 C631 1.397 . S
C630 C635 1.363 . S
C631 H602 0.950 . S
C631 C630 1.397 . S
C631 C632 1.334 . S
C632 H603 0.950 . S
C632 C631 1.334 . S
C632 C633 1.287 . S
C633 C632 1.287 . S
C633 C634 1.524 . S
C633 H636 0.999 . S
C634 H604 0.950 . S
C634 C633 1.524 . S
C634 C635 1.415 . S
C635 H605 0.950 . S
C635 C630 1.363 . S
C635 C634 1.415 . S
H636 C633 0.999 . S
H637 C618 0.913 1_455 S
H638 C656 0.951 . S
H639 C658 0.951 . S
H640 C660 0.950 . S
H641 C661 0.950 . S
H642 C663 0.950 . S
H643 C666 0.950 . S
H644 C667 0.950 . S
H645 C669 0.950 . S
H646 C670 0.950 . S
H647 C671 0.951 . S
H648 C673 0.951 . S
H649 C675 0.950 . S
H650 C676 0.950 . S
H651 C678 0.950 . S
H652 C681 0.950 . S
H653 C682 0.950 . S
H654 C684 0.950 . S
H655 C685 0.950 . S
C656 H638 0.951 . S
C656 C657 1.366 . S
C656 C658 1.388 . S
C657 C656 1.366 . S
C657 C661 1.385 . S
C658 H639 0.951 . S
C658 C656 1.388 . S
C658 C659 1.366 . S
C659 C658 1.366 . S
C659 C660 1.414 . S
C659 C662 1.499 . S
C660 H640 0.950 . S
C660 C659 1.414 . S
C660 C661 1.374 . S
C661 H641 0.950 . S
C661 C657 1.385 . S
C661 C660 1.374 . S
C662 C659 1.499 . S
C662 C663 1.373 . S
C662 C664 1.389 . S
C663 H642 0.950 . S
C663 C662 1.373 . S
C663 C679 1.377 . S
C664 C662 1.389 . S
C664 C665 1.524 . S
C664 C678 1.377 . S
C665 C664 1.524 . S
C665 C666 1.397 . S
C665 C670 1.363 . S
C666 H643 0.950 . S
C666 C665 1.397 . S
C666 C667 1.334 . S
C667 H644 0.950 . S
C667 C666 1.334 . S
C667 C668 1.287 . S
C668 C667 1.287 . S
C668 C669 1.524 . S
C668 H687 0.913 . S
C669 H645 0.950 . S
C669 C668 1.524 . S
C669 C670 1.415 . S
C670 H646 0.950 . S
C670 C665 1.363 . S
C670 C669 1.415 . S
C671 H647 0.951 . S
C671 C672 1.366 . S
C671 C673 1.388 . S
C672 C671 1.366 . S
C672 C676 1.385 . S
C673 H648 0.951 . S
C673 C671 1.388 . S
C673 C674 1.366 . S
C674 C673 1.366 . S
C674 C675 1.414 . S
C674 C677 1.499 . S
C675 H649 0.950 . S
C675 C674 1.414 . S
C675 C676 1.374 . S
C676 H650 0.950 . S
C676 C672 1.385 . S
C676 C675 1.374 . S
C677 C674 1.499 . S
C677 C678 1.373 . S
C677 C679 1.389 . S
C678 H651 0.950 . S
C678 C664 1.377 . S
C678 C677 1.373 . S
C679 C663 1.377 . S
C679 C677 1.389 . S
C679 C680 1.524 . S
C680 C679 1.524 . S
C680 C681 1.397 . S
C680 C685 1.363 . S
C681 H652 0.950 . S
C681 C680 1.397 . S
C681 C682 1.334 . S
C682 H653 0.950 . S
C682 C681 1.334 . S
C682 C683 1.287 . S
C683 C682 1.287 . S
C683 C684 1.524 . S
C683 H686 0.999 . S
C684 H654 0.950 . S
C684 C683 1.524 . S
C684 C685 1.415 . S
C685 H655 0.950 . S
C685 C680 1.363 . S
C685 C684 1.415 . S
H686 C683 0.999 . S
H687 C668 0.913 . S
C107 C51 1.203 . S
C122 C4 1.203 . S
C157 C75 1.201 . S
C172 C31 1.202 . S
C207 C48 1.202 . S
C222 C7 1.203 . S
C257 C71 1.203 . S
C272 C27 1.202 . S
C307 C30 1.202 . S
C322 C5 1.203 . S
C357 C50 1.203 . S
C372 C29 1.202 . S
C407 C49 1.202 . S
C422 C70 1.203 . S
C457 C6 1.201 . S
C472 C72 1.202 . S
C507 C28 1.203 . S
C522 C9 1.202 . S
C557 C52 1.202 . S
C572 C26 1.203 . S
C607 C53 1.202 . S
C622 C73 1.203 . S
C657 C74 1.203 . S
C672 C8 1.202 . S
