# Generated by pormake.
# Topology bcu-i, (5)-cn, num edge types: 1
# Building blocks:
#     Node 0, Type 0, BuildingBlock: BEQFEK_clean_sbu_0, # of connection points: 5
#     Node 1, Type 0, BuildingBlock: BEQFEK_clean_sbu_0, # of connection points: 5
#     Node 2, Type 0, BuildingBlock: BEQFEK_clean_sbu_0, # of connection points: 5
#     Node 3, Type 0, BuildingBlock: BEQFEK_clean_sbu_0, # of connection points: 5
#     Node 4, Type 0, BuildingBlock: BEQFEK_clean_sbu_0, # of connection points: 5
#     Node 5, Type 0, BuildingBlock: BEQFEK_clean_sbu_0, # of connection points: 5
#     Node 6, Type 0, BuildingBlock: BEQFEK_clean_sbu_0, # of connection points: 5
#     Node 7, Type 0, BuildingBlock: BEQFEK_clean_sbu_0, # of connection points: 5
#     Node 8, Type 0, BuildingBlock: BEQFEK_clean_sbu_0, # of connection points: 5
#     Node 9, Type 0, BuildingBlock: BEQFEK_clean_sbu_0, # of connection points: 5
#     Node 10, Type 0, BuildingBlock: BEQFEK_clean_sbu_0, # of connection points: 5
#     Node 11, Type 0, BuildingBlock: BEQFEK_clean_sbu_0, # of connection points: 5
#     Node 12, Type 0, BuildingBlock: BEQFEK_clean_sbu_0, # of connection points: 5
#     Node 13, Type 0, BuildingBlock: BEQFEK_clean_sbu_0, # of connection points: 5
#     Node 14, Type 0, BuildingBlock: BEQFEK_clean_sbu_0, # of connection points: 5
#     Node 15, Type 0, BuildingBlock: BEQFEK_clean_sbu_0, # of connection points: 5
#     Edge 16, Type (0, 0), BuildingBlock: XUDNAN_clean_linker_2, # of connection points: 2
#     Edge 17, Type (0, 0), BuildingBlock: XUDNAN_clean_linker_2, # of connection points: 2
#     Edge 18, Type (0, 0), BuildingBlock: XUDNAN_clean_linker_2, # of connection points: 2
#     Edge 19, Type (0, 0), BuildingBlock: XUDNAN_clean_linker_2, # of connection points: 2
#     Edge 20, Type (0, 0), BuildingBlock: XUDNAN_clean_linker_2, # of connection points: 2
#     Edge 21, Type (0, 0), BuildingBlock: XUDNAN_clean_linker_2, # of connection points: 2
#     Edge 22, Type (0, 0), BuildingBlock: XUDNAN_clean_linker_2, # of connection points: 2
#     Edge 23, Type (0, 0), BuildingBlock: XUDNAN_clean_linker_2, # of connection points: 2
#     Edge 24, Type (0, 0), BuildingBlock: XUDNAN_clean_linker_2, # of connection points: 2
#     Edge 25, Type (0, 0), BuildingBlock: XUDNAN_clean_linker_2, # of connection points: 2
#     Edge 26, Type (0, 0), BuildingBlock: XUDNAN_clean_linker_2, # of connection points: 2
#     Edge 27, Type (0, 0), BuildingBlock: XUDNAN_clean_linker_2, # of connection points: 2
#     Edge 28, Type (0, 0), BuildingBlock: XUDNAN_clean_linker_2, # of connection points: 2
#     Edge 29, Type (0, 0), BuildingBlock: XUDNAN_clean_linker_2, # of connection points: 2
#     Edge 30, Type (0, 0), BuildingBlock: XUDNAN_clean_linker_2, # of connection points: 2
#     Edge 31, Type (0, 0), BuildingBlock: XUDNAN_clean_linker_2, # of connection points: 2
#     Edge 32, Type (0, 0), BuildingBlock: XUDNAN_clean_linker_2, # of connection points: 2
#     Edge 33, Type (0, 0), BuildingBlock: XUDNAN_clean_linker_2, # of connection points: 2
#     Edge 34, Type (0, 0), BuildingBlock: XUDNAN_clean_linker_2, # of connection points: 2
#     Edge 35, Type (0, 0), BuildingBlock: XUDNAN_clean_linker_2, # of connection points: 2
#     Edge 36, Type (0, 0), BuildingBlock: XUDNAN_clean_linker_2, # of connection points: 2
#     Edge 37, Type (0, 0), BuildingBlock: XUDNAN_clean_linker_2, # of connection points: 2
#     Edge 38, Type (0, 0), BuildingBlock: XUDNAN_clean_linker_2, # of connection points: 2
#     Edge 39, Type (0, 0), BuildingBlock: XUDNAN_clean_linker_2, # of connection points: 2
#     Edge 40, Type (0, 0), BuildingBlock: XUDNAN_clean_linker_2, # of connection points: 2
#     Edge 41, Type (0, 0), BuildingBlock: XUDNAN_clean_linker_2, # of connection points: 2
#     Edge 42, Type (0, 0), BuildingBlock: XUDNAN_clean_linker_2, # of connection points: 2
#     Edge 43, Type (0, 0), BuildingBlock: XUDNAN_clean_linker_2, # of connection points: 2
#     Edge 44, Type (0, 0), BuildingBlock: XUDNAN_clean_linker_2, # of connection points: 2
#     Edge 45, Type (0, 0), BuildingBlock: XUDNAN_clean_linker_2, # of connection points: 2
#     Edge 46, Type (0, 0), BuildingBlock: XUDNAN_clean_linker_2, # of connection points: 2
#     Edge 47, Type (0, 0), BuildingBlock: XUDNAN_clean_linker_2, # of connection points: 2
#     Edge 48, Type (0, 0), BuildingBlock: XUDNAN_clean_linker_2, # of connection points: 2
#     Edge 49, Type (0, 0), BuildingBlock: XUDNAN_clean_linker_2, # of connection points: 2
#     Edge 50, Type (0, 0), BuildingBlock: XUDNAN_clean_linker_2, # of connection points: 2
#     Edge 51, Type (0, 0), BuildingBlock: XUDNAN_clean_linker_2, # of connection points: 2
#     Edge 52, Type (0, 0), BuildingBlock: XUDNAN_clean_linker_2, # of connection points: 2
#     Edge 53, Type (0, 0), BuildingBlock: XUDNAN_clean_linker_2, # of connection points: 2
#     Edge 54, Type (0, 0), BuildingBlock: XUDNAN_clean_linker_2, # of connection points: 2
#     Edge 55, Type (0, 0), BuildingBlock: XUDNAN_clean_linker_2, # of connection points: 2
# Relax obj value: 0.893
# Max RMSD: 0.187
# Mean RMSD: 0.187
data_MOF--net-bcu-i--node1-BEQFEK_clean_sbu_0--edge1-XUDNAN_clean_linker_2
_symmetry_space_group_name_H-M    P1
_symmetry_Int_Tables_number       1
_symmetry_cell_setting            triclinic
loop_
_symmetry_equiv_pos_as_xyz
'x, y, z'
_cell_length_a     48.59598
_cell_length_b     48.53856
_cell_length_c     35.444843
_cell_angle_alpha  90.092309
_cell_angle_beta   89.998961
_cell_angle_gamma 89.99999
loop_
_atom_site_label
_atom_site_type_symbol
_atom_site_fract_x
_atom_site_fract_y
_atom_site_fract_z
_atom_type_partial_charge
Co0 Co 0.20457 0.10124 0.3279 0.0
Co1 Co 0.21316 0.05838 0.26314 0.0
C2 C 0.17163 0.1048 0.25812 0.0
O3 O 0.17868 0.11477 0.28991 0.0
O4 O 0.18288 0.08306 0.24495 0.0
C5 C 0.18685 0.14258 0.38393 0.0
O6 O 0.16847 0.15152 0.35968 0.0
C7 C 0.1974 0.00788 0.22343 0.0
C8 C 0.23546 -0.00214 0.19224 0.0
C9 C 0.20934 0.98794 0.20032 0.0
N10 N 0.21579 0.02816 0.22897 0.0
N11 N 0.23826 0.02236 0.20959 0.0
C12 C 0.17004 0.00686 0.24285 0.0
H13 H 0.16849 0.02319 0.26466 0.0
H14 H 0.16671 0.98636 0.25589 0.0
H15 H 0.15352 0.01038 0.22181 0.0
C16 C 0.1946 0.05165 0.37175 0.0
N17 N 0.19817 0.06391 0.33821 0.0
N18 N 0.20558 0.04545 0.31297 0.0
C19 C 0.2086 0.02094 0.3305 0.0
C20 C 0.20124 0.02407 0.36814 0.0
C21 C 0.18981 0.06693 0.40791 0.0
H22 H 0.20923 0.0771 0.41675 0.0
H23 H 0.17388 0.08298 0.4036 0.0
H24 H 0.18305 0.05291 0.43079 0.0
O25 O 0.24297 0.10529 0.31221 0.0
O26 O 0.24934 0.07726 0.26342 0.0
H27 H 0.23635 0.00252 0.29041 0.0
H28 H 0.23341 0.98416 0.33471 0.0
C29 C 0.22204 -0.00378 0.31319 0.0
H30 H 0.20598 0.98264 0.30104 0.0
H31 H 0.25599 0.0345 0.20963 0.0
O32 O 0.20245 0.12264 0.37507 0.0
C33 C 0.25831 0.09498 0.28686 0.0
Co34 Co 0.87822 0.20537 0.32169 0.0
Co35 Co 0.92727 0.21117 0.26524 0.0
C36 C 0.87797 0.17528 0.24874 0.0
O37 O 0.86608 0.18238 0.27925 0.0
O38 O 0.90166 0.18465 0.23994 0.0
C39 C 0.82699 0.19859 0.36542 0.0
O40 O 0.81308 0.1977 0.33367 0.0
C41 C 0.97618 0.19103 0.2262 0.0
C42 C -0.00103 0.22957 0.21527 0.0
C43 C 0.00088 0.20115 0.21229 0.0
N44 N 0.96057 0.21246 0.23707 0.0
N45 N 0.97403 0.23547 0.22967 0.0
C46 C 0.96882 0.16158 0.23355 0.0
H47 H 0.96233 0.1518 0.20667 0.0
H48 H 0.95159 0.16017 0.25401 0.0
H49 H 0.9869 0.1501 0.24444 0.0
C50 C 0.92187 0.18496 0.3709 0.0
N51 N 0.91342 0.19431 0.33723 0.0
N52 N 0.93484 0.19859 0.31531 0.0
C53 C 0.9579 0.19289 0.33519 0.0
C54 C 0.95028 0.18355 0.37074 0.0
C55 C 0.90324 0.18135 0.40419 0.0
H56 H 0.895 0.20181 0.4123 0.0
H57 H 0.8858 0.16775 0.39639 0.0
H58 H 0.91389 0.17251 0.42898 0.0
O59 O 0.87884 0.24455 0.30954 0.0
O60 O 0.91179 0.24925 0.26654 0.0
H61 H 0.98744 0.21682 0.30434 0.0
H62 H 0.00133 0.19939 0.34529 0.0
C63 C 0.98661 0.19775 0.32146 0.0
H64 H -0.00693 0.18017 0.30357 0.0
H65 H 0.96683 0.25513 0.23641 0.0
O66 O 0.85296 0.20138 0.3647 0.0
C67 C 0.89295 0.25938 0.2873 0.0
Co68 Co 0.78643 0.88021 0.31004 0.0
Co69 Co 0.77908 0.92934 0.25385 0.0
C70 C 0.82218 0.88511 0.24266 0.0
O71 O 0.81444 0.87206 0.2719 0.0
O72 O 0.81056 0.90751 0.23264 0.0
C73 C 0.79045 0.82855 0.35307 0.0
O74 O 0.78899 0.81497 0.32104 0.0
C75 C 0.79742 0.98 0.21798 0.0
C76 C 0.75837 -0.0004 0.20081 0.0
C77 C 0.78661 0.00356 0.20163 0.0
N78 N 0.7766 0.96288 0.22627 0.0
N79 N 0.75331 0.97449 0.21539 0.0
C80 C 0.82656 0.9752 0.22996 0.0
H81 H 0.82759 0.95901 0.25198 0.0
H82 H 0.83583 -0.00545 0.24085 0.0
H83 H 0.83873 0.96833 0.20519 0.0
C84 C 0.79312 0.92555 0.36382 0.0
N85 N 0.79054 0.91643 0.3282 0.0
N86 N 0.78536 0.93734 0.30575 0.0
C87 C 0.78348 0.96045 0.32687 0.0
C88 C 0.78865 0.95368 0.36427 0.0
C89 C 0.79537 0.90707 0.39744 0.0
H90 H 0.81231 0.89211 0.39302 0.0
H91 H 0.79934 0.91868 0.42384 0.0
H92 H 0.77578 0.8956 0.40064 0.0
O93 O 0.74912 0.87556 0.29 0.0
O94 O 0.74351 0.90939 0.2486 0.0
H95 H 0.7697 0.00242 0.33553 0.0
H96 H 0.79103 -0.00321 0.2947 0.0
C97 C 0.77439 0.98786 0.31222 0.0
H98 H 0.75594 0.98523 0.29415 0.0
H99 H 0.7339 0.96578 0.21939 0.0
O100 O 0.7901 0.85471 0.35297 0.0
C101 C 0.73441 0.88836 0.26608 0.0
Co102 Co 0.11002 0.7872 0.32143 0.0
Co103 Co 0.06673 0.78405 0.25628 0.0
C104 C 0.1182 0.81803 0.25012 0.0
O105 O 0.12698 0.80972 0.28193 0.0
O106 O 0.09481 0.81076 0.23722 0.0
C107 C 0.15671 0.78367 0.37364 0.0
O108 O 0.17179 0.77518 0.34515 0.0
C109 C 0.0205 0.80685 0.21456 0.0
C110 C 0.00022 0.76956 0.19213 0.0
C111 C -0.00262 0.7979 0.19513 0.0
N112 N 0.0361 0.78483 0.22282 0.0
N113 N 0.02423 0.76266 0.20855 0.0
C114 C 0.02582 0.83514 0.22977 0.0
H115 H 0.04278 0.83484 0.25071 0.0
H116 H 0.00688 0.84358 0.24296 0.0
H117 H 0.03169 0.84895 0.20618 0.0
C118 C 0.06161 0.80305 0.36487 0.0
N119 N 0.07368 0.79847 0.33135 0.0
N120 N 0.05471 0.79387 0.30569 0.0
C121 C 0.02985 0.79395 0.32272 0.0
C122 C 0.03343 0.79995 0.36079 0.0
C123 C 0.07702 0.80454 0.40139 0.0
H124 H 0.08482 0.78369 0.40846 0.0
H125 H 0.09469 0.81882 0.39845 0.0
H126 H 0.06387 0.81185 0.4249 0.0
O127 O 0.10972 0.74821 0.30688 0.0
O128 O 0.0819 0.74595 0.25708 0.0
H129 H 0.00797 0.76633 0.28609 0.0
H130 H 0.98782 0.7791 0.32548 0.0
C131 C 0.00377 0.78444 0.30433 0.0
H132 H -0.00444 0.80122 0.28642 0.0
H133 H 0.03166 0.74265 0.21202 0.0
O134 O 0.13163 0.7899 0.36836 0.0
C135 C 0.09813 0.7346 0.28063 0.0
Co136 Co 0.21419 0.87742 0.6829 0.0
Co137 Co 0.21334 0.9306 0.73314 0.0
C138 C 0.17386 0.88363 0.74546 0.0
O139 O 0.18482 0.86958 0.71916 0.0
O140 O 0.18265 0.90761 0.75386 0.0
C141 C 0.19351 0.83579 0.63326 0.0
O142 O 0.17003 0.84116 0.65011 0.0
C143 C 0.18816 0.98084 0.76173 0.0
C144 C 0.22404 0.00537 0.78015 0.0
C145 C 0.19562 0.0061 0.77691 0.0
N146 N 0.21106 0.96586 0.75643 0.0
N147 N 0.23243 0.98046 0.76794 0.0
C148 C 0.16025 0.97213 0.74843 0.0
H149 H 0.16198 0.95551 0.72703 0.0
H150 H 0.14894 0.98989 0.73628 0.0
H151 H 0.14832 0.9642 0.77279 0.0
C152 C 0.2068 0.91817 0.62271 0.0
N153 N 0.20822 0.9116 0.65948 0.0
N154 N 0.20946 0.9343 0.67979 0.0
C155 C 0.20948 0.95613 0.65622 0.0
C156 C 0.20742 0.9465 0.61946 0.0
C157 C 0.20818 0.8977 0.59106 0.0
H158 H 0.22666 0.88455 0.59451 0.0
H159 H 0.18966 0.8844 0.59197 0.0
H160 H 0.20913 0.90781 0.56306 0.0
O161 O 0.25033 0.87824 0.70675 0.0
O162 O 0.25024 0.9148 0.74481 0.0
H163 H 0.21722 -0.00089 0.64386 0.0
H164 H 0.19457 0.99258 0.68307 0.0
C165 C 0.21338 0.98541 0.66834 0.0
H166 H 0.23087 0.98679 0.68834 0.0
H167 H 0.2528 0.97376 0.76632 0.0
O168 O 0.2151 0.8482 0.64414 0.0
C169 C 0.26217 0.89395 0.73039 0.0
Co170 Co 0.09797 0.21734 0.67792 0.0
Co171 Co 0.0476 0.21601 0.73298 0.0
C172 C 0.09463 0.17625 0.74007 0.0
O173 O 0.10739 0.18743 0.71277 0.0
O174 O 0.07112 0.18492 0.75066 0.0
C175 C 0.14875 0.20751 0.63732 0.0
O176 O 0.15853 0.19868 0.66968 0.0
C177 C -0.00317 0.19318 0.76499 0.0
C178 C 0.98012 0.229 0.79583 0.0
C179 C 0.97437 0.20176 0.78666 0.0
N180 N 0.01433 0.21449 0.76136 0.0
N181 N 0.00445 0.23568 0.78036 0.0
C182 C 0.00153 0.16597 0.74611 0.0
H183 H 0.01897 0.16727 0.72599 0.0
H184 H 0.98276 0.15925 0.73085 0.0
H185 H 0.00663 0.15031 0.76777 0.0
C186 C 0.05508 0.20732 0.62213 0.0
N187 N 0.06269 0.21183 0.65801 0.0
N188 N 0.04076 0.21243 0.67987 0.0
C189 C 0.01827 0.20882 0.65786 0.0
C190 C 0.02682 0.20539 0.62083 0.0
C191 C 0.07469 0.2035 0.58995 0.0
H192 H 0.08464 0.22354 0.5837 0.0
H193 H 0.09083 0.18846 0.59794 0.0
H194 H 0.06426 0.19598 0.56408 0.0
O195 O 0.09981 0.25311 0.70263 0.0
O196 O 0.0656 0.25217 0.7442 0.0
H197 H 0.98725 0.22225 0.69718 0.0
H198 H 0.97575 0.21889 0.64884 0.0
C199 C 0.98908 0.20985 0.67105 0.0
H200 H 0.98169 0.18861 0.67627 0.0
H201 H 0.01401 0.2549 0.78203 0.0
O202 O 0.12448 0.21709 0.63588 0.0
C203 C 0.08586 0.26441 0.72872 0.0
Co204 Co 0.77187 0.09875 0.67399 0.0
Co205 Co 0.77294 0.04934 0.73072 0.0
C206 C 0.80929 0.09924 0.73995 0.0
O207 O 0.79857 0.11105 0.71154 0.0
O208 O 0.80237 0.07497 0.74998 0.0
C209 C 0.78821 0.14175 0.62178 0.0
O210 O 0.81081 0.14366 0.64196 0.0
C211 C 0.79408 -0.00359 0.75963 0.0
C212 C 0.75909 0.9827 0.79462 0.0
C213 C 0.78471 0.97445 0.78151 0.0
N214 N 0.77462 0.01615 0.75949 0.0
N215 N 0.75404 0.00803 0.78108 0.0
C216 C 0.82006 -0.00175 0.73708 0.0
H217 H 0.81929 0.01594 0.71734 0.0
H218 H 0.82359 0.97887 0.72115 0.0
H219 H 0.83767 0.00143 0.75652 0.0
C220 C 0.78294 0.05495 0.61978 0.0
N221 N 0.78029 0.06345 0.65566 0.0
N222 N 0.77727 0.04197 0.67791 0.0
C223 C 0.77629 0.01905 0.65616 0.0
C224 C 0.78052 0.02664 0.61887 0.0
C225 C 0.78404 0.0738 0.5864 0.0
H226 H 0.76391 0.08433 0.58323 0.0
H227 H 0.80017 0.0896 0.59098 0.0
H228 H 0.78863 0.06248 0.55993 0.0
O229 O 0.73519 0.09854 0.69619 0.0
O230 O 0.7359 0.06575 0.73971 0.0
H231 H 0.75604 0.99268 0.69635 0.0
H232 H 0.75513 0.98052 0.64807 0.0
C233 C 0.76784 0.99112 0.66969 0.0
H234 H 0.78646 0.97839 0.67435 0.0
H235 H 0.73606 0.01935 0.78543 0.0
O236 O 0.76969 0.12477 0.63149 0.0
C237 C 0.72344 0.08495 0.7222 0.0
Co238 Co 0.87788 0.76295 0.66291 0.0
Co239 Co 0.92772 0.76862 0.7185 0.0
C240 C 0.8763 0.80199 0.72799 0.0
O241 O 0.86485 0.78982 0.70033 0.0
O242 O 0.90098 0.79671 0.73778 0.0
C243 C 0.83597 0.77999 0.61091 0.0
O244 O 0.83602 0.80276 0.631 0.0
C245 C 0.97558 0.79566 0.75239 0.0
C246 C -0.00074 0.76018 0.774 0.0
C247 C 0.0 0.7886 0.77031 0.0
N248 N 0.96122 0.77249 0.74582 0.0
N249 N 0.97528 0.7514 0.75932 0.0
C250 C 0.96712 0.82341 0.73816 0.0
H251 H 0.95109 0.82136 0.71603 0.0
H252 H 0.98515 0.83467 0.72671 0.0
H253 H 0.95848 0.83559 0.76188 0.0
C254 C 0.92063 0.77598 0.60753 0.0
N255 N 0.91243 0.77303 0.64349 0.0
N256 N 0.93404 0.77376 0.66587 0.0
C257 C 0.95687 0.77655 0.64442 0.0
C258 C 0.94891 0.77837 0.60692 0.0
C259 C 0.90201 0.77393 0.57396 0.0
H260 H 0.89168 0.75356 0.57385 0.0
H261 H 0.88608 0.7902 0.57583 0.0
H262 H 0.91338 0.77654 0.54704 0.0
O263 O 0.88047 0.7265 0.68559 0.0
O264 O 0.91391 0.73049 0.72793 0.0
H265 H 0.98733 0.75808 0.68008 0.0
H266 H 0.00057 0.77108 0.63572 0.0
C267 C 0.98571 0.77482 0.65895 0.0
H268 H 0.99114 0.79453 0.67291 0.0
H269 H 0.96894 0.73091 0.75733 0.0
O270 O 0.85137 0.76016 0.62083 0.0
C271 C 0.89543 0.71627 0.71143 0.0
Co272 Co 0.71339 0.61592 0.82865 0.0
Co273 Co 0.7103 0.56426 0.77589 0.0
C274 C 0.6772 0.61528 0.76095 0.0
O275 O 0.68845 0.62783 0.78842 0.0
O276 O 0.68275 0.59021 0.75334 0.0
C277 C 0.69486 0.65974 0.87736 0.0
O278 O 0.67215 0.65854 0.8573 0.0
C279 C 0.68464 0.51448 0.74485 0.0
C280 C 0.72074 0.49145 0.72376 0.0
C281 C 0.69241 0.48988 0.72783 0.0
N282 N 0.70733 0.52977 0.75051 0.0
N283 N 0.72879 0.51605 0.73738 0.0
C284 C 0.65674 0.52237 0.75905 0.0
H285 H 0.65833 0.53916 0.78024 0.0
H286 H 0.64625 0.50427 0.77164 0.0
H287 H 0.64411 0.52984 0.73507 0.0
C288 C 0.70013 0.57499 0.88589 0.0
N289 N 0.70218 0.5821 0.84941 0.0
N290 N 0.70358 0.55969 0.82854 0.0
C291 C 0.70349 0.53752 0.85154 0.0
C292 C 0.70127 0.5466 0.88861 0.0
C293 C 0.70116 0.59498 0.9181 0.0
H294 H 0.68508 0.61088 0.91413 0.0
H295 H 0.69756 0.58464 0.94557 0.0
H296 H 0.72159 0.60518 0.91874 0.0
O297 O 0.75103 0.61158 0.81033 0.0
O298 O 0.74884 0.57741 0.76855 0.0
H299 H 0.71453 0.49514 0.8631 0.0
H300 H 0.69174 0.50036 0.82364 0.0
C301 C 0.70981 0.5088 0.83885 0.0
H302 H 0.72748 0.50903 0.81904 0.0
H303 H 0.74904 0.52313 0.73878 0.0
O304 O 0.71486 0.64413 0.86878 0.0
C305 C 0.76237 0.59577 0.78634 0.0
Co306 Co 0.37566 0.70179 0.82084 0.0
Co307 Co 0.42608 0.70673 0.7664 0.0
C308 C 0.38064 0.66467 0.75516 0.0
O309 O 0.36717 0.67349 0.78348 0.0
O310 O 0.40368 0.67527 0.7458 0.0
C311 C 0.33245 0.68246 0.87163 0.0
O312 O 0.33233 0.65943 0.85209 0.0
C313 C 0.48039 0.68962 0.73755 0.0
C314 C 0.49214 0.72604 0.70393 0.0
C315 C 0.50168 0.70052 0.71574 0.0
N316 N 0.45973 0.70805 0.73868 0.0
N317 N 0.46672 0.72956 0.71804 0.0
C318 C 0.47988 0.66307 0.75895 0.0
H319 H 0.46244 0.66269 0.77912 0.0
H320 H 0.49953 0.66003 0.77433 0.0
H321 H 0.47715 0.64575 0.73884 0.0
C322 C 0.41916 0.69483 0.87677 0.0
N323 N 0.41118 0.69678 0.8406 0.0
N324 N 0.43271 0.70192 0.81918 0.0
C325 C 0.45497 0.70487 0.84168 0.0
C326 C 0.44708 0.69989 0.8787 0.0
C327 C 0.39979 0.69209 0.90942 0.0
H328 H 0.38762 0.71132 0.91229 0.0
H329 H 0.38544 0.67476 0.90415 0.0
H330 H 0.41091 0.68833 0.93627 0.0
O331 O 0.37323 0.73872 0.79958 0.0
O332 O 0.40766 0.74291 0.759 0.0
H333 H 0.47991 0.72846 0.80334 0.0
H334 H 0.49224 0.7279 0.85157 0.0
C335 C 0.48229 0.7156 0.82895 0.0
H336 H 0.496 0.69799 0.82239 0.0
H337 H 0.45444 0.74699 0.71443 0.0
O338 O 0.34862 0.70178 0.86223 0.0
C339 C 0.38682 0.75287 0.77595 0.0
Co340 Co 0.28195 0.37204 0.82856 0.0
Co341 Co 0.27629 0.41902 0.76897 0.0
C342 C 0.31405 0.3702 0.75769 0.0
O343 O 0.30654 0.3591 0.78851 0.0
O344 O 0.3043 0.39332 0.7471 0.0
C345 C 0.28701 0.32197 0.87473 0.0
O346 O 0.2876 0.30738 0.8435 0.0
C347 C 0.29839 0.46717 0.73107 0.0
C348 C 0.26107 0.48838 0.71064 0.0
C349 C 0.28945 0.49085 0.71297 0.0
N350 N 0.27638 0.45151 0.73901 0.0
N351 N 0.25414 0.46402 0.72613 0.0
C352 C 0.32681 0.46104 0.74501 0.0
H353 H 0.32642 0.4444 0.76641 0.0
H354 H 0.33627 0.47984 0.7573 0.0
H355 H 0.33974 0.45423 0.72094 0.0
C356 C 0.29547 0.41838 0.87767 0.0
N357 N 0.29111 0.40815 0.84296 0.0
N358 N 0.28563 0.42843 0.8196 0.0
C359 C 0.28496 0.45221 0.83938 0.0
C360 C 0.2914 0.44658 0.8768 0.0
C361 C 0.29809 0.401 0.91235 0.0
H362 H 0.27764 0.39222 0.91927 0.0
H363 H 0.3128 0.38395 0.90713 0.0
H364 H 0.3054 0.41314 0.93691 0.0
O365 O 0.2431 0.3714 0.81344 0.0
O366 O 0.23877 0.40279 0.76815 0.0
H367 H 0.25633 0.47541 0.8061 0.0
H368 H 0.26963 0.49376 0.84688 0.0
C369 C 0.27473 0.47901 0.82397 0.0
H370 H 0.29097 0.4883 0.80608 0.0
H371 H 0.23416 0.45655 0.72948 0.0
O372 O 0.28504 0.34802 0.87302 0.0
C373 C 0.22856 0.38433 0.78948 0.0
Co374 Co 0.60983 0.27717 0.82332 0.0
Co375 Co 0.55972 0.2712 0.7687 0.0
C376 C 0.60332 0.31315 0.75517 0.0
O377 O 0.61663 0.30437 0.78353 0.0
O378 O 0.58036 0.30255 0.74582 0.0
C379 C 0.63802 0.30912 0.87564 0.0
O380 O 0.62167 0.32774 0.86078 0.0
C381 C 0.50909 0.28832 0.73142 0.0
C382 C 0.48895 0.24862 0.71847 0.0
C383 C 0.48538 0.2769 0.71624 0.0
N384 N 0.52587 0.26777 0.74203 0.0
N385 N 0.51396 0.24407 0.73361 0.0
C386 C 0.51435 0.31804 0.74023 0.0
H387 H 0.52208 0.32845 0.71448 0.0
H388 H 0.53003 0.32007 0.76281 0.0
H389 H 0.49507 0.32843 0.74917 0.0
C390 C 0.56554 0.28131 0.87961 0.0
N391 N 0.57413 0.28075 0.84352 0.0
N392 N 0.55271 0.2781 0.82103 0.0
C393 C 0.52968 0.27719 0.84235 0.0
C394 C 0.53714 0.27952 0.88006 0.0
C395 C 0.58415 0.27843 0.91313 0.0
H396 H 0.6021 0.26538 0.90599 0.0
H397 H 0.59139 0.29914 0.92186 0.0
H398 H 0.5734 0.26897 0.93748 0.0
O399 O 0.6137 0.23932 0.80578 0.0
O400 O 0.57967 0.23523 0.76396 0.0
H401 H 0.50112 0.25262 0.81102 0.0
H402 H 0.48582 0.27121 0.85009 0.0
C403 C 0.50137 0.27217 0.82723 0.0
H404 H 0.49569 0.28913 0.80788 0.0
H405 H 0.52241 0.2248 0.73961 0.0
O406 O 0.63734 0.28468 0.86287 0.0
C407 C 0.60009 0.22525 0.78194 0.0
Co408 Co 0.71771 0.39041 0.18881 0.0
Co409 Co 0.71844 0.43826 0.24827 0.0
C410 C 0.67669 0.39333 0.2517 0.0
O411 O 0.68723 0.38216 0.22274 0.0
O412 O 0.68673 0.41526 0.26582 0.0
C413 C 0.69032 0.36338 0.13122 0.0
O414 O 0.67038 0.37828 0.14576 0.0
C415 C 0.69544 0.48653 0.28488 0.0
C416 C 0.73226 0.50949 0.30345 0.0
C417 C 0.7038 0.51094 0.30163 0.0
N418 N 0.71785 0.47134 0.27724 0.0
N419 N 0.7398 0.48489 0.2891 0.0
C420 C 0.66709 0.47933 0.27152 0.0
H421 H 0.65557 0.46966 0.29506 0.0
H422 H 0.66808 0.46451 0.2477 0.0
H423 H 0.65577 0.49806 0.2625 0.0
C424 C 0.71458 0.43683 0.13601 0.0
N425 N 0.71497 0.42673 0.1713 0.0
N426 N 0.7151 0.44726 0.19567 0.0
C427 C 0.7147 0.47123 0.17622 0.0
C428 C 0.71382 0.46517 0.13798 0.0
C429 C 0.71846 0.42005 0.10085 0.0
H430 H 0.73226 0.40236 0.10637 0.0
H431 H 0.69816 0.41246 0.09106 0.0
H432 H 0.72753 0.43255 0.07779 0.0
O433 O 0.75332 0.3858 0.21339 0.0
O434 O 0.7542 0.41882 0.2571 0.0
H435 H 0.73361 0.50009 0.2139 0.0
H436 H 0.71929 0.51548 0.17179 0.0
C437 C 0.71634 0.49931 0.19351 0.0
H438 H 0.69697 0.5037 0.20886 0.0
H439 H 0.75998 0.478 0.28559 0.0
O440 O 0.71404 0.36445 0.14621 0.0
C441 C 0.76543 0.39854 0.24005 0.0
Co442 Co 0.59887 0.71145 0.17987 0.0
Co443 Co 0.55167 0.71535 0.23983 0.0
C444 C 0.59946 0.67583 0.24769 0.0
O445 O 0.61063 0.68432 0.2174 0.0
O446 O 0.57666 0.68573 0.25931 0.0
C447 C 0.64904 0.71091 0.1339 0.0
O448 O 0.66322 0.71346 0.16527 0.0
C449 C 0.50341 0.69219 0.2759 0.0
C450 C 0.48041 0.72906 0.29433 0.0
C451 C 0.47882 0.70059 0.29195 0.0
N452 N 0.51885 0.71458 0.26913 0.0
N453 N 0.50526 0.73655 0.28096 0.0
C454 C 0.51045 0.6639 0.26207 0.0
H455 H 0.52732 0.66472 0.24102 0.0
H456 H 0.49211 0.6539 0.24935 0.0
H457 H 0.51722 0.65116 0.28633 0.0
C458 C 0.55244 0.70102 0.12955 0.0
N459 N 0.56261 0.70464 0.16444 0.0
N460 N 0.54228 0.70867 0.1883 0.0
C461 C 0.51839 0.70876 0.16877 0.0
C462 C 0.52414 0.70355 0.13106 0.0
C463 C 0.56979 0.69948 0.0947 0.0
H464 H 0.5798 0.71975 0.09022 0.0
H465 H 0.58599 0.68363 0.09844 0.0
H466 H 0.55755 0.69435 0.06926 0.0
O467 O 0.60135 0.74898 0.19986 0.0
O468 O 0.56949 0.7522 0.24488 0.0
H469 H 0.49305 0.73402 0.20424 0.0
H470 H 0.47575 0.72088 0.16266 0.0
C471 C 0.49094 0.71608 0.18508 0.0
H472 H 0.48307 0.69839 0.20161 0.0
H473 H 0.51224 0.75675 0.27779 0.0
O474 O 0.62297 0.70952 0.13526 0.0
C475 C 0.58888 0.76259 0.22532 0.0
Co476 Co 0.27105 0.5996 0.17544 0.0
Co477 Co 0.26885 0.55301 0.23626 0.0
C478 C 0.31009 0.59967 0.2397 0.0
O479 O 0.30056 0.61086 0.20999 0.0
O480 O 0.29992 0.57737 0.25265 0.0
C481 C 0.2715 0.64889 0.12714 0.0
O482 O 0.27045 0.66412 0.15777 0.0
C483 C 0.29202 0.50537 0.27376 0.0
C484 C 0.25533 0.48369 0.29542 0.0
C485 C 0.28368 0.48164 0.29214 0.0
N486 N 0.26971 0.52079 0.26663 0.0
N487 N 0.24786 0.50801 0.28025 0.0
C488 C 0.32009 0.51162 0.25861 0.0
H489 H 0.3189 0.52699 0.23554 0.0
H490 H 0.33012 0.49256 0.24803 0.0
H491 H 0.33298 0.52016 0.28166 0.0
C492 C 0.27908 0.55226 0.12547 0.0
N493 N 0.27609 0.56288 0.16022 0.0
N494 N 0.27314 0.54277 0.1847 0.0
C495 C 0.27318 0.51855 0.16578 0.0
C496 C 0.27734 0.52394 0.12777 0.0
C497 C 0.28039 0.56904 0.09014 0.0
H498 H 0.29654 0.58504 0.09303 0.0
H499 H 0.28494 0.55628 0.06492 0.0
H500 H 0.26022 0.57928 0.08594 0.0
O501 O 0.2348 0.60394 0.19909 0.0
O502 O 0.233 0.57194 0.24383 0.0
H503 H 0.25044 0.49276 0.20362 0.0
H504 H 0.26242 0.47545 0.16133 0.0
C505 C 0.26759 0.49105 0.18313 0.0
H506 H 0.2862 0.48404 0.19844 0.0
H507 H 0.22773 0.51522 0.27749 0.0
O508 O 0.2719 0.62282 0.12992 0.0
C509 C 0.22215 0.59188 0.22582 0.0
Co510 Co 0.38134 0.27089 0.18633 0.0
Co511 Co 0.43167 0.27274 0.24134 0.0
C512 C 0.38331 0.31199 0.24763 0.0
O513 O 0.37065 0.30105 0.22002 0.0
O514 O 0.40676 0.30316 0.25821 0.0
C515 C 0.3383 0.28583 0.13388 0.0
O516 O 0.33713 0.30907 0.15286 0.0
C517 C 0.48198 0.29916 0.26644 0.0
C518 C 0.49883 0.26985 0.30809 0.0
C519 C 0.5037 0.295 0.29097 0.0
N520 N 0.46498 0.27746 0.2687 0.0
N521 N 0.47501 0.26006 0.29387 0.0
C522 C 0.47666 0.32409 0.24272 0.0
H523 H 0.45605 0.32298 0.22936 0.0
H524 H 0.49254 0.32581 0.22041 0.0
H525 H 0.47811 0.34289 0.2605 0.0
C526 C 0.42466 0.27712 0.12999 0.0
N527 N 0.41659 0.27677 0.1662 0.0
N528 N 0.43831 0.27485 0.18823 0.0
C529 C 0.46099 0.27284 0.16626 0.0
C530 C 0.45293 0.27451 0.12875 0.0
C531 C 0.40549 0.2775 0.09692 0.0
H532 H 0.39449 0.2575 0.09519 0.0
H533 H 0.39013 0.29415 0.10074 0.0
H534 H 0.41667 0.28101 0.07005 0.0
O535 O 0.38124 0.23557 0.21272 0.0
O536 O 0.41576 0.2362 0.25387 0.0
H537 H 0.48787 0.25474 0.20767 0.0
H538 H 0.50006 0.25247 0.15944 0.0
C539 C 0.48912 0.26562 0.18026 0.0
H540 H 0.50127 0.28475 0.18391 0.0
H541 H 0.46569 0.24145 0.30117 0.0
O542 O 0.35482 0.26713 0.14449 0.0
C543 C 0.3955 0.22404 0.2383 0.0
H544 H 0.15633 0.9684 0.18935 0.0
H545 H 0.24159 0.94235 0.19655 0.0
H546 H 0.22677 0.89395 0.19723 0.0
H547 H 0.13206 0.92441 0.25532 0.0
H548 H 0.09954 0.91694 0.23307 0.0
H549 H 0.11666 0.94898 0.22361 0.0
H550 H 0.11565 0.93843 0.15193 0.0
H551 H 0.0984 0.90624 0.16119 0.0
H552 H 0.13002 0.90658 0.13462 0.0
H553 H 0.20349 0.85036 0.21221 0.0
H554 H 0.17288 0.814 0.23686 0.0
H555 H 0.10224 0.86687 0.21933 0.0
C556 C 0.1719 0.95256 0.19065 0.0
C557 C 0.2001 0.95925 0.1937 0.0
C558 C 0.21984 0.93779 0.19415 0.0
C559 C 0.21163 0.91017 0.19452 0.0
C560 C 0.1836 0.90429 0.19374 0.0
C561 C 0.16399 0.92482 0.19121 0.0
C562 C 0.13521 0.91318 0.19544 0.0
C563 C 0.12 0.92667 0.22884 0.0
C564 C 0.11886 0.91629 0.15859 0.0
C565 C 0.14184 0.88321 0.20321 0.0
C566 C 0.16989 0.87847 0.20139 0.0
C567 C 0.18144 0.85349 0.21248 0.0
C568 C 0.16397 0.83302 0.22656 0.0
C569 C 0.13532 0.8376 0.22907 0.0
C570 C 0.12402 0.86266 0.21628 0.0
H571 H 0.15085 0.15635 0.269 0.0
H572 H 0.13913 0.08196 0.20288 0.0
H573 H 0.09591 0.10118 0.17709 0.0
H574 H 0.08402 0.16435 0.29654 0.0
H575 H 0.08348 0.20143 0.29402 0.0
H576 H 0.11538 0.18375 0.30241 0.0
H577 H 0.1372 0.20777 0.24437 0.0
H578 H 0.10533 0.22573 0.2359 0.0
H579 H 0.1206 0.20519 0.19902 0.0
H580 H 0.0504 0.12546 0.16697 0.0
H581 H 0.00816 0.15402 0.17046 0.0
H582 H 0.05096 0.21274 0.24152 0.0
C583 C 0.13958 0.14435 0.24836 0.0
C584 C 0.14834 0.11768 0.23792 0.0
C585 C 0.13292 0.10256 0.21103 0.0
C586 C 0.10833 0.11329 0.19627 0.0
C587 C 0.0998 0.13933 0.2082 0.0
C588 C 0.11525 0.15483 0.23319 0.0
C589 C 0.10075 0.18126 0.24388 0.0
C590 C 0.0956 0.18276 0.28673 0.0
C591 C 0.11694 0.20648 0.22995 0.0
C592 C 0.07419 0.17776 0.22224 0.0
C593 C 0.07401 0.15356 0.20159 0.0
C594 C 0.05055 0.14474 0.18234 0.0
C595 C 0.02665 0.16094 0.18463 0.0
C596 C 0.02653 0.18559 0.20597 0.0
C597 C 0.05076 0.1943 0.22425 0.0
H598 H 0.77176 0.05444 0.22566 0.0
H599 H 0.83462 0.01103 0.1626 0.0
H600 H 0.86174 0.05408 0.15786 0.0
H601 H 0.77966 0.12363 0.17898 0.0
H602 H 0.77458 0.14136 0.22316 0.0
H603 H 0.75768 0.10888 0.2146 0.0
H604 H 0.77924 0.08906 0.27572 0.0
H605 H 0.79613 0.12135 0.28442 0.0
H606 H 0.81607 0.0901 0.2817 0.0
H607 H 0.8846 0.09996 0.16756 0.0
H608 H 0.90276 0.14315 0.19474 0.0
H609 H 0.82529 0.15602 0.25307 0.0
C610 C 0.79077 0.05432 0.20969 0.0
C611 C 0.8011 0.02967 0.19417 0.0
C612 C 0.82646 0.02985 0.17461 0.0
C613 C 0.84183 0.05422 0.17155 0.0
C614 C 0.83148 0.07814 0.18819 0.0
C615 C 0.80648 0.07834 0.2069 0.0
C616 C 0.80169 0.10548 0.22689 0.0
C617 C 0.77693 0.12074 0.20988 0.0
C618 C 0.79809 0.10123 0.2697 0.0
C619 C 0.82837 0.1201 0.21788 0.0
C620 C 0.845 0.10434 0.19472 0.0
C621 C 0.87156 0.11269 0.18515 0.0
C622 C 0.88169 0.13732 0.20067 0.0
C623 C 0.86543 0.153 0.22599 0.0
C624 C 0.83814 0.14463 0.23356 0.0
H625 H 0.84351 0.83323 0.24418 0.0
H626 H 0.85672 0.91434 0.19622 0.0
H627 H 0.90166 0.8989 0.17108 0.0
H628 H 0.90878 0.82312 0.27646 0.0
H629 H 0.91047 0.7868 0.26603 0.0
H630 H 0.87774 0.80281 0.27471 0.0
H631 H 0.85978 0.78539 0.21005 0.0
H632 H 0.8925 0.7691 0.20124 0.0
H633 H 0.87874 0.79335 0.16772 0.0
H634 H 0.94828 0.87679 0.16087 0.0
H635 H 0.99102 0.84892 0.16291 0.0
H636 H 0.94611 0.78217 0.21561 0.0
C637 C 0.85551 0.84757 0.22754 0.0
C638 C 0.84665 0.87497 0.22212 0.0
C639 C 0.86301 0.89316 0.20041 0.0
C640 C 0.88858 0.88458 0.18608 0.0
C641 C 0.89715 0.85763 0.19312 0.0
C642 C 0.88083 0.83927 0.2128 0.0
C643 C 0.89543 0.81217 0.21917 0.0
C644 C 0.89827 0.80588 0.26159 0.0
C645 C 0.88074 0.78861 0.19829 0.0
C646 C 0.92299 0.81847 0.20145 0.0
C647 C 0.92361 0.84471 0.18631 0.0
C648 C 0.94782 0.856 0.17184 0.0
C649 C 0.972 0.84015 0.17331 0.0
C650 C 0.97165 0.8134 0.18907 0.0
C651 C 0.94672 0.80231 0.2025 0.0
H652 H 0.14756 0.15813 0.73385 0.0
H653 H 0.06893 0.13794 0.78491 0.0
H654 H 0.08802 0.09343 0.80645 0.0
H655 H 0.16125 0.09415 0.69733 0.0
H656 H 0.1978 0.09487 0.70596 0.0
H657 H 0.1793 0.12658 0.69955 0.0
H658 H 0.19703 0.14439 0.76409 0.0
H659 H 0.21582 0.11274 0.77065 0.0
H660 H 0.19154 0.124 0.80589 0.0
H661 H 0.11378 0.04863 0.8143 0.0
H662 H 0.14486 0.00829 0.81056 0.0
H663 H 0.20657 0.05858 0.75545 0.0
C664 C 0.13449 0.14465 0.75029 0.0
C665 C 0.10677 0.1515 0.75771 0.0
C666 C 0.09031 0.13321 0.77914 0.0
C667 C 0.10096 0.10788 0.79146 0.0
C668 C 0.12818 0.10142 0.7826 0.0
C669 C 0.14482 0.1195 0.76295 0.0
C670 C 0.17269 0.10704 0.75464 0.0
C671 C 0.17805 0.10557 0.71184 0.0
C672 C 0.19562 0.12299 0.77505 0.0
C673 C 0.16884 0.07869 0.77139 0.0
C674 C 0.14312 0.07587 0.78766 0.0
C675 C 0.13412 0.05076 0.80222 0.0
C676 C 0.15177 0.02794 0.7997 0.0
C677 C 0.17799 0.03046 0.78272 0.0
C678 C 0.18678 0.05628 0.76916 0.0
H679 H 0.86239 0.08486 0.75667 0.0
H680 H 0.80201 0.14986 0.76919 0.0
H681 H 0.83771 0.18083 0.79462 0.0
H682 H 0.90813 0.10574 0.84029 0.0
H683 H 0.93887 0.09748 0.81415 0.0
H684 H 0.90769 0.07817 0.80614 0.0
H685 H 0.91061 0.08961 0.7349 0.0
H686 H 0.94144 0.10925 0.74269 0.0
H687 H 0.91221 0.12514 0.72025 0.0
H688 H 0.87992 0.20693 0.80669 0.0
H689 H 0.92608 0.22705 0.80406 0.0
H690 H 0.96064 0.14547 0.78588 0.0
C691 C 0.85664 0.1052 0.76651 0.0
C692 C 0.82952 0.11498 0.76188 0.0
C693 C 0.82269 0.14205 0.7732 0.0
C694 C 0.84279 0.1597 0.78776 0.0
C695 C 0.86966 0.14996 0.79066 0.0
C696 C 0.87669 0.12329 0.78067 0.0
C697 C 0.90768 0.11944 0.78136 0.0
C698 C 0.91608 0.099 0.81234 0.0
C699 C 0.91861 0.11034 0.74249 0.0
C700 C 0.91688 0.14847 0.79103 0.0
C701 C 0.89457 0.16551 0.79708 0.0
C702 C 0.89761 0.19369 0.80276 0.0
C703 C 0.92407 0.20494 0.80112 0.0
C704 C 0.94733 0.18814 0.79351 0.0
C705 C 0.94359 0.15931 0.79012 0.0
H706 H 0.89315 0.85368 0.74856 0.0
H707 H 0.82309 0.79846 0.74955 0.0
H708 H 0.79359 0.83599 0.77343 0.0
H709 H 0.87179 0.89796 0.83184 0.0
H710 H 0.88375 0.9289 0.80906 0.0
H711 H 0.90075 0.89651 0.8001 0.0
H712 H 0.89294 0.90311 0.7284 0.0
H713 H 0.87565 0.93525 0.73709 0.0
H714 H 0.85848 0.9084 0.71097 0.0
H715 H 0.77057 0.87983 0.78808 0.0
H716 H 0.75468 0.92779 0.79042 0.0
H717 H 0.83916 0.95602 0.7796 0.0
C718 C 0.87185 0.84938 0.75531 0.0
C719 C 0.86035 0.8232 0.748 0.0
C720 C 0.83219 0.81838 0.75549 0.0
C721 C 0.81535 0.83951 0.76916 0.0
C722 C 0.82698 0.8654 0.77492 0.0
C723 C 0.85458 0.8705 0.76835 0.0
C724 C 0.86092 0.90101 0.77195 0.0
C725 C 0.88046 0.90641 0.80523 0.0
C726 C 0.87268 0.91261 0.7349 0.0
C727 C 0.83239 0.91229 0.77988 0.0
C728 C 0.81331 0.89128 0.78228 0.0
C729 C 0.78536 0.89647 0.78683 0.0
C730 C 0.77655 0.92388 0.78813 0.0
C731 C 0.79553 0.9459 0.78439 0.0
C732 C 0.82394 0.93988 0.78142 0.0
H733 H 0.05334 0.77563 0.75722 0.0
H734 H 0.00123 0.84115 0.79976 0.0
H735 H 0.04208 0.87124 0.80675 0.0
H736 H 0.1149 0.79105 0.81561 0.0
H737 H 0.13798 0.78284 0.7774 0.0
H738 H 0.10532 0.76546 0.7811 0.0
H739 H 0.09297 0.7807 0.71306 0.0
H740 H 0.12553 0.79801 0.70915 0.0
H741 H 0.09407 0.81679 0.70116 0.0
H742 H 0.08827 0.89542 0.80308 0.0
H743 H 0.13443 0.91233 0.78494 0.0
H744 H 0.15547 0.83064 0.74425 0.0
C745 C 0.05063 0.79609 0.76891 0.0
C746 C 0.02421 0.80617 0.77783 0.0
C747 C 0.02131 0.83321 0.79227 0.0
C748 C 0.04442 0.85031 0.79673 0.0
C749 C 0.0702 0.83992 0.7868 0.0
C750 C 0.07336 0.81339 0.77317 0.0
C751 C 0.10261 0.80795 0.76077 0.0
C752 C 0.11599 0.78549 0.78519 0.0
C753 C 0.10385 0.80044 0.71855 0.0
C754 C 0.11531 0.83582 0.76838 0.0
C755 C 0.09653 0.85388 0.78412 0.0
C756 C 0.10324 0.88135 0.79125 0.0
C757 C 0.12954 0.89075 0.78097 0.0
C758 C 0.14855 0.8728 0.76322 0.0
C759 C 0.14147 0.84484 0.75797 0.0
H760 H 0.70702 0.43706 0.74194 0.0
H761 H 0.63996 0.48662 0.69855 0.0
H762 H 0.61142 0.44462 0.69171 0.0
H763 H 0.69422 0.37465 0.68409 0.0
H764 H 0.703 0.35205 0.72255 0.0
H765 H 0.71918 0.38535 0.71877 0.0
H766 H 0.70305 0.39756 0.78654 0.0
H767 H 0.68703 0.36434 0.79056 0.0
H768 H 0.66701 0.39512 0.79811 0.0
H769 H 0.58897 0.39745 0.69532 0.0
H770 H 0.57361 0.35082 0.71409 0.0
H771 H 0.65562 0.33306 0.75579 0.0
C772 C 0.68654 0.43899 0.73016 0.0
C773 C 0.6756 0.46501 0.7209 0.0
C774 C 0.64856 0.46686 0.70632 0.0
C775 C 0.63234 0.44309 0.70193 0.0
C776 C 0.6436 0.41771 0.71208 0.0
C777 C 0.67011 0.4156 0.72598 0.0
C778 C 0.67653 0.3866 0.73866 0.0
C779 C 0.6996 0.37392 0.71456 0.0
C780 C 0.68381 0.38588 0.78096 0.0
C781 C 0.64923 0.37282 0.73088 0.0
C782 C 0.63062 0.39085 0.71478 0.0
C783 C 0.6035 0.38306 0.70743 0.0
C784 C 0.59498 0.3565 0.71802 0.0
C785 C 0.61345 0.33832 0.73631 0.0
C786 C 0.64108 0.34642 0.74162 0.0
H787 H 0.522 0.64666 0.71516 0.0
H788 H 0.54693 0.73224 0.70433 0.0
H789 H 0.59534 0.71791 0.70282 0.0
H790 H 0.57154 0.629 0.78025 0.0
H791 H 0.57756 0.59468 0.76256 0.0
H792 H 0.54475 0.61089 0.75525 0.0
H793 H 0.54954 0.60318 0.68317 0.0
H794 H 0.58257 0.58706 0.69032 0.0
H795 H 0.57948 0.61605 0.65888 0.0
H796 H 0.64034 0.69624 0.71412 0.0
H797 H 0.67917 0.66815 0.73707 0.0
H798 H 0.62639 0.59625 0.74074 0.0
C799 C 0.53749 0.66246 0.71255 0.0
C800 C 0.53043 0.69071 0.71074 0.0
C801 C 0.55163 0.71046 0.70581 0.0
C802 C 0.57929 0.70253 0.70483 0.0
C803 C 0.58556 0.6747 0.70829 0.0
C804 C 0.56531 0.65489 0.71177 0.0
C805 C 0.57775 0.62672 0.71898 0.0
C806 C 0.56729 0.61463 0.75649 0.0
C807 C 0.57199 0.60709 0.68585 0.0
C808 C 0.60804 0.63412 0.72106 0.0
C809 C 0.61206 0.66186 0.71407 0.0
C810 C 0.63764 0.67436 0.71861 0.0
C811 C 0.65955 0.6583 0.73168 0.0
C812 C 0.65577 0.63004 0.7398 0.0
C813 C 0.62994 0.61761 0.73336 0.0
H814 H 0.27485 0.54293 0.73172 0.0
H815 H 0.34029 0.4956 0.67979 0.0
H816 H 0.36907 0.53764 0.67624 0.0
H817 H 0.28765 0.60936 0.68125 0.0
H818 H 0.27997 0.62916 0.72301 0.0
H819 H 0.26304 0.59662 0.71505 0.0
H820 H 0.27995 0.57938 0.78027 0.0
H821 H 0.29695 0.61172 0.78835 0.0
H822 H 0.31624 0.58005 0.79083 0.0
H823 H 0.39247 0.58374 0.68547 0.0
H824 H 0.4091 0.62862 0.70966 0.0
H825 H 0.32825 0.64483 0.75668 0.0
C826 C 0.29489 0.54164 0.71847 0.0
C827 C 0.30541 0.51618 0.70591 0.0
C828 C 0.33201 0.51499 0.68976 0.0
C829 C 0.34836 0.53878 0.68735 0.0
C830 C 0.33769 0.56352 0.70111 0.0
C831 C 0.3115 0.56506 0.71628 0.0
C832 C 0.30595 0.59311 0.73323 0.0
C833 C 0.28278 0.60794 0.71185 0.0
C834 C 0.29941 0.59091 0.77567 0.0
C835 C 0.33342 0.60684 0.72649 0.0
C836 C 0.35131 0.58975 0.7072 0.0
C837 C 0.37849 0.59746 0.70007 0.0
C838 C 0.38775 0.62299 0.71385 0.0
C839 C 0.36997 0.6402 0.73503 0.0
C840 C 0.34232 0.63219 0.74045 0.0
H841 H 0.33338 0.31773 0.76504 0.0
H842 H 0.3467 0.3937 0.70331 0.0
H843 H 0.38979 0.37459 0.67711 0.0
H844 H 0.39865 0.30901 0.79437 0.0
H845 H 0.39971 0.27201 0.79018 0.0
H846 H 0.3674 0.28911 0.79759 0.0
H847 H 0.34757 0.26628 0.73728 0.0
H848 H 0.37987 0.24882 0.72981 0.0
H849 H 0.36549 0.27001 0.69305 0.0
H850 H 0.43532 0.35095 0.668 0.0
H851 H 0.47815 0.32365 0.67411 0.0
H852 H 0.43443 0.26293 0.74053 0.0
C853 C 0.34488 0.33005 0.74505 0.0
C854 C 0.33667 0.35718 0.73618 0.0
C855 C 0.35245 0.37275 0.71024 0.0
C856 C 0.37697 0.36206 0.69522 0.0
C857 C 0.38509 0.33563 0.70589 0.0
C858 C 0.36922 0.31964 0.72972 0.0
C859 C 0.38371 0.29312 0.74005 0.0
C860 C 0.3876 0.29071 0.78308 0.0
C861 C 0.36823 0.26807 0.72408 0.0
C862 C 0.41085 0.29732 0.72005 0.0
C863 C 0.41117 0.32177 0.70004 0.0
C864 C 0.43508 0.33145 0.68277 0.0
C865 C 0.45932 0.31597 0.6866 0.0
C866 C 0.45938 0.29122 0.7076 0.0
C867 C 0.43469 0.28147 0.72357 0.0
H868 H 0.65241 0.65795 0.24056 0.0
H869 H 0.57621 0.64136 0.30021 0.0
H870 H 0.59704 0.59945 0.32775 0.0
H871 H 0.66625 0.59134 0.21436 0.0
H872 H 0.70303 0.59351 0.22013 0.0
H873 H 0.68354 0.62403 0.20974 0.0
H874 H 0.70326 0.64785 0.26942 0.0
H875 H 0.72295 0.61735 0.27997 0.0
H876 H 0.69974 0.63138 0.31471 0.0
H877 H 0.62378 0.55582 0.34046 0.0
H878 H 0.65503 0.51544 0.33961 0.0
H879 H 0.71403 0.56184 0.27379 0.0
C880 C 0.64025 0.64585 0.26007 0.0
C881 C 0.61269 0.6529 0.26826 0.0
C882 C 0.59745 0.63645 0.29377 0.0
C883 C 0.6091 0.61262 0.30953 0.0
C884 C 0.63613 0.60586 0.29999 0.0
C885 C 0.65162 0.62225 0.27624 0.0
C886 C 0.67943 0.60958 0.26814 0.0
C887 C 0.68326 0.6043 0.22559 0.0
C888 C 0.70272 0.62762 0.28402 0.0
C889 C 0.67684 0.58292 0.28983 0.0
C890 C 0.6518 0.58117 0.30826 0.0
C891 C 0.64369 0.55723 0.32693 0.0
C892 C 0.66145 0.53443 0.32624 0.0
C893 C 0.68696 0.53586 0.30713 0.0
C894 C 0.69495 0.56058 0.28951 0.0
H895 H 0.42927 0.71058 0.2598 0.0
H896 H 0.47258 0.6524 0.33075 0.0
H897 H 0.43164 0.62187 0.33075 0.0
H898 H 0.35915 0.69965 0.29753 0.0
H899 H 0.34376 0.70215 0.25139 0.0
H900 H 0.37478 0.721 0.26189 0.0
H901 H 0.39891 0.69809 0.20463 0.0
H902 H 0.36806 0.67911 0.19408 0.0
H903 H 0.40002 0.66104 0.20138 0.0
H904 H 0.38711 0.59631 0.31872 0.0
H905 H 0.34408 0.57661 0.29298 0.0
H906 H 0.33135 0.65102 0.22741 0.0
C907 C 0.42974 0.69181 0.27628 0.0
C908 C 0.45368 0.68392 0.29588 0.0
C909 C 0.45416 0.65878 0.31595 0.0
C910 C 0.43104 0.64143 0.31615 0.0
C911 C 0.40782 0.64952 0.29585 0.0
C912 C 0.40707 0.67411 0.27618 0.0
C913 C 0.38094 0.67674 0.25329 0.0
C914 C 0.36363 0.70134 0.26686 0.0
C915 C 0.38738 0.67886 0.21085 0.0
C916 C 0.36721 0.64967 0.26275 0.0
C917 C 0.38277 0.6344 0.28775 0.0
C918 C 0.37464 0.60819 0.29939 0.0
C919 C 0.35016 0.59719 0.28465 0.0
C920 C 0.33434 0.61226 0.25818 0.0
C921 C 0.34292 0.63897 0.24764 0.0
H922 H 0.27178 0.42988 0.26862 0.0
H923 H 0.3334 0.47781 0.32776 0.0
H924 H 0.36389 0.43694 0.33015 0.0
H925 H 0.28588 0.36203 0.31441 0.0
H926 H 0.28065 0.34368 0.27075 0.0
H927 H 0.262 0.3751 0.27988 0.0
H928 H 0.2805 0.39565 0.21736 0.0
H929 H 0.29931 0.36448 0.20817 0.0
H930 H 0.31712 0.39704 0.20945 0.0
H931 H 0.38936 0.39237 0.31987 0.0
H932 H 0.40858 0.34873 0.29535 0.0
H933 H 0.3306 0.33092 0.24071 0.0
C934 C 0.29131 0.43141 0.28321 0.0
C935 C 0.30026 0.45669 0.29847 0.0
C936 C 0.32628 0.45843 0.31615 0.0
C937 C 0.34361 0.43534 0.31776 0.0
C938 C 0.33453 0.4108 0.30145 0.0
C939 C 0.30895 0.40872 0.28452 0.0
C940 C 0.30533 0.38118 0.26513 0.0
C941 C 0.28209 0.36451 0.28366 0.0
C942 C 0.30028 0.38482 0.22252 0.0
C943 C 0.33312 0.36838 0.27282 0.0
C944 C 0.34951 0.38551 0.29443 0.0
C945 C 0.37659 0.37863 0.30336 0.0
C946 C 0.38733 0.3538 0.28931 0.0
C947 C 0.37109 0.33641 0.26613 0.0
C948 C 0.34352 0.3437 0.25846 0.0
H949 H 0.53838 0.30812 0.23436 0.0
H950 H 0.52611 0.31783 0.35463 0.0
H951 H 0.56894 0.34578 0.35861 0.0
H952 H 0.61094 0.29959 0.23852 0.0
H953 H 0.61714 0.31765 0.19495 0.0
H954 H 0.58507 0.29986 0.20206 0.0
H955 H 0.55827 0.34496 0.18836 0.0
H956 H 0.59029 0.36287 0.18113 0.0
H957 H 0.56591 0.37553 0.21535 0.0
H958 H 0.61312 0.37404 0.34776 0.0
H959 H 0.65615 0.39587 0.32434 0.0
H960 H 0.63903 0.36425 0.21224 0.0
C961 C 0.54451 0.31653 0.2614 0.0
C962 C 0.5289 0.31155 0.29407 0.0
C963 C 0.5379 0.32185 0.3293 0.0
C964 C 0.56205 0.33773 0.33174 0.0
C965 C 0.57696 0.34256 0.29874 0.0
C966 C 0.5686 0.33194 0.26434 0.0
C967 C 0.58865 0.33873 0.23327 0.0
C968 C 0.60119 0.31239 0.21622 0.0
C969 C 0.57496 0.35659 0.20274 0.0
C970 C 0.60971 0.35489 0.2554 0.0
C971 C 0.60262 0.3573 0.29301 0.0
C972 C 0.61895 0.37207 0.31841 0.0
C973 C 0.64325 0.38442 0.30494 0.0
C974 C 0.65104 0.38137 0.26668 0.0
C975 C 0.63388 0.36654 0.24182 0.0
H976 H 0.15258 0.18048 0.41758 0.0
H977 H 0.22553 0.13086 0.43737 0.0
H978 H 0.22735 0.14743 0.50294 0.0
H979 H 0.17254 0.23901 0.48005 0.0
H980 H 0.13771 0.24394 0.49619 0.0
H981 H 0.14408 0.23108 0.44925 0.0
H982 H 0.11359 0.1884 0.46315 0.0
H983 H 0.10707 0.20131 0.50985 0.0
H984 H 0.12122 0.16728 0.50363 0.0
H985 H 0.21831 0.16474 0.56801 0.0
H986 H 0.19816 0.18092 0.62805 0.0
H987 H 0.13222 0.22054 0.5658 0.0
C988 C 0.16927 0.17357 0.43547 0.0
C989 C 0.18893 0.15445 0.42226 0.0
C990 C 0.21021 0.14555 0.44678 0.0
C991 C 0.21154 0.15495 0.48408 0.0
C992 C 0.19159 0.17342 0.49643 0.0
C993 C 0.17091 0.18276 0.47287 0.0
C994 C 0.15073 0.20081 0.49407 0.0
C995 C 0.15132 0.23047 0.47899 0.0
C996 C 0.12144 0.18871 0.49259 0.0
C997 C 0.16275 0.19923 0.53342 0.0
C998 C 0.18652 0.18365 0.53412 0.0
C999 C 0.19998 0.1774 0.56779 0.0
C1000 C 0.1884 0.18669 0.60176 0.0
C1001 C 0.16356 0.20193 0.60169 0.0
C1002 C 0.15121 0.20897 0.5669 0.0
H1003 H 0.84994 0.20453 0.43503 0.0
H1004 H 0.77324 0.18358 0.37931 0.0
H1005 H 0.75263 0.1726 0.44141 0.0
H1006 H 0.84979 0.14991 0.49681 0.0
H1007 H 0.86504 0.16847 0.53561 0.0
H1008 H 0.87197 0.17895 0.48795 0.0
H1009 H 0.85462 0.22818 0.50328 0.0
H1010 H 0.84762 0.21789 0.55116 0.0
H1011 H 0.8207 0.23287 0.52286 0.0
H1012 H 0.74255 0.15875 0.50851 0.0
H1013 H 0.74388 0.14211 0.57416 0.0
H1014 H 0.828 0.17121 0.58486 0.0
C1015 C 0.82871 0.19797 0.43572 0.0
C1016 C 0.81326 0.19476 0.40226 0.0
C1017 C 0.78545 0.18627 0.40461 0.0
C1018 C 0.77358 0.18006 0.43974 0.0
C1019 C 0.78979 0.18266 0.47208 0.0
C1020 C 0.81675 0.19153 0.47029 0.0
C1021 C 0.83076 0.19009 0.50833 0.0
C1022 C 0.85585 0.1707 0.50708 0.0
C1023 C 0.83889 0.21899 0.52222 0.0
C1024 C 0.80772 0.1782 0.5318 0.0
C1025 C 0.78412 0.17446 0.51056 0.0
C1026 C 0.76076 0.16197 0.52552 0.0
C1027 C 0.76176 0.15256 0.56286 0.0
C1028 C 0.78605 0.15546 0.58471 0.0
C1029 C 0.80903 0.16904 0.56912 0.0
H1030 H 0.81118 0.82269 0.57403 0.0
H1031 H 0.83304 0.73645 0.56167 0.0
H1032 H 0.81891 0.73794 0.49481 0.0
H1033 H 0.75188 0.82256 0.50702 0.0
H1034 H 0.76062 0.8564 0.48991 0.0
H1035 H 0.76807 0.84715 0.53807 0.0
H1036 H 0.81924 0.86022 0.52761 0.0
H1037 H 0.81202 0.86916 0.47944 0.0
H1038 H 0.83822 0.84402 0.48991 0.0
H1039 H 0.80812 0.75063 0.42711 0.0
H1040 H 0.80067 0.7734 0.36541 0.0
H1041 H 0.78624 0.85085 0.42336 0.0
C1042 C 0.81219 0.80387 0.55766 0.0
C1043 C 0.82306 0.77944 0.57315 0.0
C1044 C 0.82459 0.75539 0.55046 0.0
C1045 C 0.81661 0.75602 0.51244 0.0
C1046 C 0.80694 0.78076 0.49764 0.0
C1047 C 0.80444 0.80417 0.51971 0.0
C1048 C 0.79593 0.82881 0.49647 0.0
C1049 C 0.76743 0.83934 0.50859 0.0
C1050 C 0.81765 0.85189 0.49848 0.0
C1051 C 0.79494 0.81583 0.45773 0.0
C1052 C 0.801 0.78806 0.45885 0.0
C1053 C 0.80292 0.77229 0.42597 0.0
C1054 C 0.79872 0.78538 0.39107 0.0
C1055 C 0.79298 0.81396 0.3895 0.0
C1056 C 0.79067 0.82906 0.42341 0.0
H1057 H 0.12844 0.79116 0.43919 0.0
H1058 H 0.21117 0.78159 0.39512 0.0
H1059 H 0.22985 0.78835 0.45954 0.0
H1060 H 0.14255 0.84462 0.50092 0.0
H1061 H 0.11917 0.83313 0.5371 0.0
H1062 H 0.1127 0.82445 0.48859 0.0
H1063 H 0.11126 0.77267 0.50614 0.0
H1064 H 0.11788 0.78117 0.55481 0.0
H1065 H 0.14008 0.75735 0.53034 0.0
H1066 H 0.23921 0.80114 0.52764 0.0
H1067 H 0.23867 0.81929 0.59277 0.0
H1068 H 0.14937 0.81932 0.59123 0.0
C1069 C 0.15047 0.79018 0.44292 0.0
C1070 C 0.16834 0.78596 0.41206 0.0
C1071 C 0.19708 0.78474 0.41839 0.0
C1072 C 0.20784 0.78847 0.45487 0.0
C1073 C 0.18952 0.79301 0.48458 0.0
C1074 C 0.16142 0.79369 0.47891 0.0
C1075 C 0.14605 0.80067 0.51474 0.0
C1076 C 0.12915 0.8273 0.51004 0.0
C1077 C 0.12774 0.77652 0.52724 0.0
C1078 C 0.16994 0.80473 0.54142 0.0
C1079 C 0.19486 0.79994 0.52369 0.0
C1080 C 0.21983 0.80448 0.54196 0.0
C1081 C 0.2193 0.81479 0.57896 0.0
C1082 C 0.19396 0.82052 0.59718 0.0
C1083 C 0.16905 0.81469 0.57838 0.0
H1084 H 0.65143 0.68349 0.91415 0.0
H1085 H 0.73899 0.66749 0.92422 0.0
H1086 H 0.738 0.68433 0.98992 0.0
H1087 H 0.6492 0.74549 0.9773 0.0
H1088 H 0.6164 0.73529 0.99649 0.0
H1089 H 0.62506 0.72671 0.94844 0.0
H1090 H 0.61549 0.67521 0.96265 0.0
H1091 H 0.60714 0.68359 0.0107 0.0
H1092 H 0.63363 0.65861 0.00073 0.0
H1093 H 0.72617 0.69674 0.05712 0.0
H1094 H 0.70435 0.7044 0.11941 0.0
H1095 H 0.6249 0.71194 0.06452 0.0
C1096 C 0.67059 0.68439 0.92971 0.0
C1097 C 0.6953 0.67435 0.91397 0.0
C1098 C 0.71981 0.67525 0.93563 0.0
C1099 C 0.71948 0.68482 0.97298 0.0
C1100 C 0.69454 0.69359 0.98814 0.0
C1101 C 0.67058 0.69373 0.96702 0.0
C1102 C 0.64598 0.70152 0.99086 0.0
C1103 C 0.63343 0.72889 0.97748 0.0
C1104 C 0.62431 0.67835 0.99125 0.0
C1105 C 0.65967 0.7047 0.02891 0.0
C1106 C 0.68771 0.70047 0.02681 0.0
C1107 C 0.70427 0.70056 0.059 0.0
C1108 C 0.69172 0.70486 0.09425 0.0
C1109 C 0.6629 0.70868 0.09689 0.0
C1110 C 0.64694 0.70906 0.06361 0.0
H1111 H 0.30516 0.64159 0.90962 0.0
H1112 H 0.32639 0.72835 0.91563 0.0
H1113 H 0.30707 0.73084 0.97981 0.0
H1114 H 0.24066 0.64597 0.9676 0.0
H1115 H 0.24763 0.61329 0.98973 0.0
H1116 H 0.25879 0.61948 0.94199 0.0
H1117 H 0.30876 0.60698 0.96106 0.0
H1118 H 0.29777 0.60095 0.00873 0.0
H1119 H 0.32494 0.62529 -0.0006 0.0
H1120 H 0.29172 0.72236 0.04648 0.0
H1121 H 0.28115 0.7033 0.10959 0.0
H1122 H 0.26918 0.62271 0.05912 0.0
C1123 C 0.30498 0.6613 0.92396 0.0
C1124 C 0.31718 0.68477 0.90755 0.0
C1125 C 0.31707 0.71008 0.9276 0.0
C1126 C 0.30606 0.71175 0.96405 0.0
C1127 C 0.295 0.68801 0.97996 0.0
C1128 C 0.29412 0.66332 0.9604 0.0
C1129 C 0.28358 0.64023 0.98508 0.0
C1130 C 0.25602 0.6291 0.97021 0.0
C1131 C 0.30505 0.61702 0.98878 0.0
C1132 C 0.27982 0.65557 0.02189 0.0
C1133 C 0.2861 0.68317 0.01836 0.0
C1134 C 0.28624 0.70086 0.04946 0.0
C1135 C 0.28025 0.68988 0.08519 0.0
C1136 C 0.27447 0.66147 0.08939 0.0
C1137 C 0.27359 0.64445 0.05705 0.0
H1138 H 0.28116 0.34648 0.9434 0.0
H1139 H 0.29987 0.26794 0.89073 0.0
H1140 H 0.30896 0.24798 0.95378 0.0
H1141 H 0.33414 0.34538 0.00762 0.0
H1142 H 0.31528 0.3619 0.04514 0.0
H1143 H 0.30613 0.36842 0.99686 0.0
H1144 H 0.25607 0.35297 0.0105 0.0
H1145 H 0.26506 0.34635 0.05899 0.0
H1146 H 0.24979 0.3195 0.03071 0.0
H1147 H 0.32128 0.23855 0.02167 0.0
H1148 H 0.3369 0.24048 0.08783 0.0
H1149 H 0.31048 0.32576 0.09503 0.0
C1150 C 0.28679 0.32498 0.94496 0.0
C1151 C 0.28991 0.30881 0.91209 0.0
C1152 C 0.29726 0.2807 0.91556 0.0
C1153 C 0.30238 0.2692 0.95124 0.0
C1154 C 0.29979 0.28605 0.983 0.0
C1155 C 0.29203 0.31333 0.98011 0.0
C1156 C 0.29314 0.32789 0.01782 0.0
C1157 C 0.31338 0.35232 0.01678 0.0
C1158 C 0.26429 0.33722 0.03023 0.0
C1159 C 0.30368 0.30479 0.04239 0.0
C1160 C 0.30698 0.28069 0.02197 0.0
C1161 C 0.31837 0.25715 0.03805 0.0
C1162 C 0.3272 0.25848 0.07567 0.0
C1163 C 0.3248 0.28326 0.09667 0.0
C1164 C 0.31222 0.30642 0.07996 0.0
H1165 H 0.62421 0.34775 0.92782 0.0
H1166 H 0.68279 0.2824 0.90496 0.0
H1167 H 0.70331 0.28924 0.9683 0.0
H1168 H 0.66868 0.39203 0.98405 0.0
H1169 H 0.64134 0.40112 0.01607 0.0
H1170 H 0.63355 0.39269 0.96775 0.0
H1171 H 0.59943 0.35512 0.99079 0.0
H1172 H 0.60752 0.36314 0.03913 0.0
H1173 H 0.6115 0.32841 0.02192 0.0
H1174 H 0.71696 0.30337 0.03467 0.0
H1175 H 0.72167 0.3226 0.09917 0.0
H1176 H 0.65127 0.37555 0.07895 0.0
C1177 C 0.64177 0.3353 0.93577 0.0
C1178 C 0.65227 0.31486 0.91143 0.0
C1179 C 0.67468 0.29836 0.92324 0.0
C1180 C 0.6864 0.30207 0.95908 0.0
C1181 C 0.67512 0.32206 0.98277 0.0
C1182 C 0.65323 0.33831 0.97159 0.0
C1183 C 0.64364 0.35704 0.00303 0.0
C1184 C 0.64702 0.38752 0.99205 0.0
C1185 C 0.61376 0.35052 0.01438 0.0
C1186 C 0.66363 0.34891 0.03366 0.0
C1187 C 0.68183 0.32893 0.02143 0.0
C1188 C 0.70271 0.31889 0.04463 0.0
C1189 C 0.7052 0.32985 0.08115 0.0
C1190 C 0.68662 0.35024 0.0941 0.0
C1191 C 0.66546 0.3596 0.07008 0.0
H1192 H 0.28835 0.10706 0.2243 0.0
H1193 H 0.29181 0.10508 0.3463 0.0
H1194 H 0.33675 0.12859 0.345 0.0
H1195 H 0.36712 0.10567 0.20625 0.0
H1196 H 0.36311 0.12988 0.16814 0.0
H1197 H 0.33654 0.10485 0.17749 0.0
H1198 H 0.30068 0.14419 0.18303 0.0
H1199 H 0.32697 0.16914 0.17383 0.0
H1200 H 0.30661 0.17178 0.2162 0.0
H1201 H 0.37458 0.16089 0.33216 0.0
H1202 H 0.39957 0.20191 0.30911 0.0
H1203 H 0.37085 0.18504 0.19569 0.0
C1204 C 0.29934 0.11046 0.25048 0.0
C1205 C 0.28704 0.10413 0.2853 0.0
C1206 C 0.30119 0.10975 0.31932 0.0
C1207 C 0.32682 0.12283 0.31882 0.0
C1208 C 0.33795 0.1302 0.28407 0.0
C1209 C 0.32469 0.12412 0.25041 0.0
C1210 C 0.33787 0.13909 0.21768 0.0
C1211 C 0.352 0.11865 0.19081 0.0
C1212 C 0.31678 0.15712 0.19651 0.0
C1213 C 0.35886 0.15631 0.23863 0.0
C1214 C 0.35951 0.15001 0.27663 0.0
C1215 C 0.37485 0.16555 0.30231 0.0
C1216 C 0.38896 0.18881 0.28907 0.0
C1217 C 0.38693 0.1965 0.25076 0.0
C1218 C 0.37275 0.17938 0.22512 0.0
H1219 H 0.80217 0.37082 0.19685 0.0
H1220 H 0.78954 0.40271 0.30981 0.0
H1221 H 0.83077 0.37749 0.33154 0.0
H1222 H 0.81546 0.30694 0.21978 0.0
H1223 H 0.8417 0.29978 0.18516 0.0
H1224 H 0.81676 0.32616 0.1763 0.0
H1225 H 0.85575 0.36182 0.16634 0.0
H1226 H 0.88101 0.33535 0.17503 0.0
H1227 H 0.88143 0.36666 0.20244 0.0
H1228 H 0.86366 0.33991 0.34403 0.0
H1229 H 0.88689 0.29472 0.34574 0.0
H1230 H 0.8806 0.2884 0.22431 0.0
C1231 C 0.8087 0.37326 0.22588 0.0
C1232 C 0.79273 0.38852 0.25177 0.0
C1233 C 0.80166 0.39123 0.28952 0.0
C1234 C 0.82511 0.37706 0.30202 0.0
C1235 C 0.83965 0.36095 0.27613 0.0
C1236 C 0.83211 0.35949 0.23857 0.0
C1237 C 0.84849 0.33781 0.21758 0.0
C1238 C 0.82946 0.31642 0.19866 0.0
C1239 C 0.86782 0.35122 0.18864 0.0
C1240 C 0.86458 0.32545 0.24988 0.0
C1241 C 0.85976 0.33958 0.28327 0.0
C1242 C 0.86852 0.32935 0.31795 0.0
C1243 C 0.88159 0.30366 0.31871 0.0
C1244 C 0.88594 0.28868 0.28501 0.0
C1245 C 0.8784 0.30016 0.25012 0.0
H1246 H 0.70532 0.85193 0.30864 0.0
H1247 H 0.70003 0.90162 0.20722 0.0
H1248 H 0.65484 0.88071 0.19277 0.0
H1249 H 0.68203 0.79268 0.27089 0.0
H1250 H 0.66293 0.78123 0.31156 0.0
H1251 H 0.69162 0.80407 0.31753 0.0
H1252 H 0.66022 0.83876 0.35286 0.0
H1253 H 0.63126 0.81596 0.34669 0.0
H1254 H 0.62927 0.8511 0.33051 0.0
H1255 H 0.6161 0.84802 0.18282 0.0
H1256 H 0.58723 0.80622 0.17815 0.0
H1257 H 0.61603 0.77944 0.28753 0.0
C1258 C 0.69439 0.85892 0.28381 0.0
C1259 C 0.70621 0.8783 0.25893 0.0
C1260 C 0.69131 0.88683 0.2267 0.0
C1261 C 0.66557 0.87519 0.21843 0.0
C1262 C 0.65484 0.85555 0.2431 0.0
C1263 C 0.66869 0.84772 0.27539 0.0
C1264 C 0.65449 0.82399 0.295 0.0
C1265 C 0.67392 0.79904 0.29892 0.0
C1266 C 0.64313 0.83301 0.33355 0.0
C1267 C 0.63145 0.81839 0.26738 0.0
C1268 C 0.63164 0.83721 0.238 0.0
C1269 C 0.61503 0.83381 0.20627 0.0
C1270 C 0.59868 0.81011 0.20384 0.0
C1271 C 0.59891 0.7904 0.23311 0.0
C1272 C 0.61466 0.79504 0.26577 0.0
H1273 H 0.11176 0.70785 0.21608 0.0
H1274 H 0.10327 0.69701 0.33668 0.0
H1275 H 0.12541 0.65137 0.33207 0.0
H1276 H 0.10881 0.6309 0.18792 0.0
H1277 H 0.13517 0.63638 0.15295 0.0
H1278 H 0.11074 0.66332 0.16332 0.0
H1279 H 0.15099 0.69685 0.17727 0.0
H1280 H 0.1754 0.67013 0.16731 0.0
H1281 H 0.17631 0.68758 0.21223 0.0
H1282 H 0.1567 0.61278 0.31729 0.0
H1283 H 0.19676 0.58629 0.29444 0.0
H1284 H 0.18743 0.62334 0.18392 0.0
C1285 C 0.11332 0.69511 0.24104 0.0
C1286 C 0.10545 0.70543 0.27655 0.0
C1287 C 0.10891 0.68906 0.30916 0.0
C1288 C 0.12129 0.66309 0.30674 0.0
C1289 C 0.13023 0.65392 0.27153 0.0
C1290 C 0.12631 0.66942 0.23915 0.0
C1291 C 0.14254 0.65778 0.20636 0.0
C1292 C 0.12315 0.64641 0.17583 0.0
C1293 C 0.16249 0.67936 0.18989 0.0
C1294 C 0.15776 0.63473 0.22604 0.0
C1295 C 0.14958 0.63209 0.2632 0.0
C1296 C 0.16283 0.61416 0.288 0.0
C1297 C 0.18561 0.59923 0.27483 0.0
C1298 C 0.19519 0.6029 0.2375 0.0
C1299 C 0.18043 0.62008 0.21257 0.0
H1300 H 0.35205 0.78314 0.81917 0.0
H1301 H 0.40145 0.78712 0.71739 0.0
H1302 H 0.38192 0.83305 0.70348 0.0
H1303 H 0.29394 0.80598 0.78224 0.0
H1304 H 0.28231 0.82559 0.82244 0.0
H1305 H 0.30535 0.79723 0.82913 0.0
H1306 H 0.3397 0.82956 0.8635 0.0
H1307 H 0.31665 0.85824 0.85653 0.0
H1308 H 0.35175 0.86031 0.84032 0.0
H1309 H 0.34978 0.8718 0.69318 0.0
H1310 H 0.30689 0.8985 0.68596 0.0
H1311 H 0.27907 0.87049 0.79515 0.0
C1312 C 0.35933 0.79396 0.79441 0.0
C1313 C 0.37809 0.78154 0.76917 0.0
C1314 C 0.3871 0.79631 0.73711 0.0
C1315 C 0.37628 0.82249 0.7292 0.0
C1316 C 0.35701 0.83374 0.75409 0.0
C1317 C 0.34885 0.81999 0.78631 0.0
C1318 C 0.32496 0.83423 0.80551 0.0
C1319 C 0.3002 0.8146 0.81002 0.0
C1320 C 0.33381 0.84631 0.84373 0.0
C1321 C 0.31926 0.85682 0.7773 0.0
C1322 C 0.33858 0.85681 0.74849 0.0
C1323 C 0.33517 0.87276 0.71617 0.0
C1324 C 0.31083 0.88792 0.71231 0.0
C1325 C 0.29041 0.887 0.74063 0.0
C1326 C 0.29515 0.87236 0.77414 0.0
H1327 H 0.19906 0.37603 0.72535 0.0
H1328 H 0.19344 0.37436 0.84718 0.0
H1329 H 0.14729 0.35346 0.8429 0.0
H1330 H 0.12089 0.3822 0.70464 0.0
H1331 H 0.12438 0.35894 0.66524 0.0
H1332 H 0.15205 0.38218 0.67704 0.0
H1333 H 0.18562 0.34081 0.68145 0.0
H1334 H 0.15823 0.31763 0.6698 0.0
H1335 H 0.17755 0.31263 0.71267 0.0
H1336 H 0.10789 0.32388 0.82672 0.0
H1337 H 0.08125 0.285 0.8004 0.0
H1338 H 0.11316 0.30343 0.68911 0.0
C1339 C 0.18738 0.37246 0.75091 0.0
C1340 C 0.19934 0.37706 0.7865 0.0
C1341 C 0.1843 0.37112 0.81964 0.0
C1342 C 0.158 0.3595 0.81746 0.0
C1343 C 0.14714 0.35382 0.78191 0.0
C1344 C 0.16136 0.36018 0.74912 0.0
C1345 C 0.14806 0.34692 0.71505 0.0
C1346 C 0.1356 0.36887 0.68896 0.0
C1347 C 0.16858 0.3284 0.69355 0.0
C1348 C 0.12575 0.33026 0.73415 0.0
C1349 C 0.12469 0.33548 0.77247 0.0
C1350 C 0.10798 0.32011 0.79662 0.0
C1351 C 0.09291 0.29806 0.78149 0.0
C1352 C 0.09532 0.29131 0.74284 0.0
C1353 C 0.1109 0.30838 0.71876 0.0
H1354 H 0.61239 0.1989 0.71627 0.0
H1355 H 0.60684 0.18767 0.83708 0.0
H1356 H 0.62806 0.14171 0.8312 0.0
H1357 H 0.6075 0.1217 0.6882 0.0
H1358 H 0.63296 0.12677 0.6519 0.0
H1359 H 0.60918 0.15405 0.66341 0.0
H1360 H 0.65014 0.18715 0.67532 0.0
H1361 H 0.67385 0.16014 0.66392 0.0
H1362 H 0.67637 0.1775 0.7088 0.0
H1363 H 0.65864 0.10317 0.81513 0.0
H1364 H 0.69888 0.07757 0.79108 0.0
H1365 H 0.68662 0.11402 0.68076 0.0
C1366 C 0.61449 0.18603 0.74103 0.0
C1367 C 0.60772 0.19629 0.77696 0.0
C1368 C 0.61174 0.17976 0.80927 0.0
C1369 C 0.62353 0.15359 0.80614 0.0
C1370 C 0.63131 0.14434 0.77048 0.0
C1371 C 0.62688 0.16004 0.73837 0.0
C1372 C 0.64205 0.14816 0.70481 0.0
C1373 C 0.6217 0.137 0.67534 0.0
C1374 C 0.66177 0.1695 0.68725 0.0
C1375 C 0.6575 0.12491 0.72377 0.0
C1376 C 0.65013 0.12225 0.76124 0.0
C1377 C 0.6641 0.1045 0.7856 0.0
C1378 C 0.68695 0.09004 0.77174 0.0
C1379 C 0.69584 0.09398 0.73417 0.0
C1380 C 0.68011 0.11057 0.70959 0.0
H1381 H 0.78646 0.60267 0.71812 0.0
H1382 H 0.80296 0.60095 0.83793 0.0
H1383 H 0.84903 0.62052 0.82696 0.0
H1384 H 0.8636 0.59682 0.68424 0.0
H1385 H 0.85642 0.62103 0.64702 0.0
H1386 H 0.83037 0.5968 0.66164 0.0
H1387 H 0.79661 0.63721 0.67331 0.0
H1388 H 0.82237 0.66137 0.6591 0.0
H1389 H 0.80652 0.66467 0.70489 0.0
H1390 H 0.88551 0.6517 0.80681 0.0
H1391 H 0.90741 0.69309 0.77999 0.0
H1392 H 0.86745 0.67689 0.67292 0.0
C1393 C 0.80059 0.60494 0.74154 0.0
C1394 C 0.79168 0.6 0.77865 0.0
C1395 C 0.80982 0.60435 0.80922 0.0
C1396 C 0.83607 0.61528 0.80319 0.0
C1397 C 0.84378 0.62186 0.76641 0.0
C1398 C 0.82664 0.61656 0.73591 0.0
C1399 C 0.83675 0.6311 0.7008 0.0
C1400 C 0.84743 0.61019 0.67171 0.0
C1401 C 0.81424 0.64969 0.6836 0.0
C1402 C 0.8602 0.64775 0.7173 0.0
C1403 C 0.86486 0.6411 0.75467 0.0
C1404 C 0.88269 0.65653 0.77726 0.0
C1405 C 0.89502 0.68008 0.76186 0.0
C1406 C 0.88891 0.6882 0.72451 0.0
C1407 C 0.87251 0.671 0.70154 0.0
H1408 H 0.16651 -0.00425 0.41361 0.0
H1409 H 0.25227 0.01621 0.39633 0.0
H1410 H 0.26342 -0.00121 0.46014 0.0
H1411 H 0.16218 0.01712 0.50556 0.0
H1412 H 0.13998 0.99001 0.52231 0.0
H1413 H 0.13901 1e-05 0.47345 0.0
H1414 H 0.14945 0.94992 0.45235 0.0
H1415 H 0.14942 0.9395 0.50111 0.0
H1416 H 0.17883 0.93224 0.47176 0.0
H1417 H 0.26392 0.98502 0.52831 0.0
H1418 H 0.25506 0.96829 0.59328 0.0
H1419 H 0.16911 0.95627 0.56562 0.0
C1420 C 0.18777 -0.00471 0.42279 0.0
C1421 C 0.20874 0.00654 0.40018 0.0
C1422 C 0.23621 0.00685 0.41321 0.0
C1423 C 0.24261 -0.00266 0.44945 0.0
C1424 C 0.22125 0.98751 0.47191 0.0
C1425 C 0.19449 0.98572 0.45877 0.0
C1426 C 0.17516 0.97549 0.48913 0.0
C1427 C 0.15277 -0.00305 0.49813 0.0
C1428 C 0.16248 0.94763 0.47792 0.0
C1429 C 0.19508 0.97242 0.5216 0.0
C1430 C 0.22154 0.9796 0.51117 0.0
C1431 C 0.24335 0.9791 0.53672 0.0
C1432 C 0.23813 0.96998 0.57353 0.0
C1433 C 0.2114 0.96156 0.58407 0.0
C1434 C 0.18959 0.96311 0.55806 0.0
H1435 H 0.98107 0.22167 0.40753 0.0
H1436 H 0.95513 0.13638 0.41088 0.0
H1437 H 0.97106 0.13286 0.47704 0.0
H1438 H 0.04324 0.21244 0.47033 0.0
H1439 H 0.03809 0.24591 0.49123 0.0
H1440 H 0.0283 0.23988 0.44289 0.0
H1441 H 0.97911 0.25707 0.45883 0.0
H1442 H 0.98836 0.26198 0.50754 0.0
H1443 H 0.95973 0.24008 0.49541 0.0
H1444 H 0.98341 0.14087 0.54504 0.0
H1445 H 0.0005 0.15712 0.60719 0.0
H1446 H 0.01925 0.23674 0.55866 0.0
C1447 C 0.98004 0.20195 0.42173 0.0
C1448 C 0.96732 0.17915 0.40441 0.0
C1449 C 0.96533 0.15384 0.42387 0.0
C1450 C 0.97401 0.15178 0.46144 0.0
C1451 C 0.98497 0.17515 0.47863 0.0
C1452 C 0.98887 0.1995 0.45908 0.0
C1453 C 0.00027 0.22183 0.48445 0.0
C1454 C 0.0292 0.23052 0.47146 0.0
C1455 C 0.98069 0.2467 0.48667 0.0
C1456 C 0.00131 0.20653 0.52152 0.0
C1457 C -0.00772 0.17967 0.51767 0.0
C1458 C 0.99082 0.16176 0.54834 0.0
C1459 C 0.00011 0.17121 0.58352 0.0
C1460 C 0.01068 0.19816 0.58733 0.0
C1461 C 0.01076 0.21618 0.55625 0.0
H1462 H 0.82465 0.97086 0.41779 0.0
H1463 H 0.73819 0.96958 0.38844 0.0
H1464 H 0.72623 0.98555 0.45285 0.0
H1465 H 0.81755 0.94501 0.5091 0.0
H1466 H 0.84372 0.9663 0.53033 0.0
H1467 H 0.84591 0.9574 0.48108 0.0
H1468 H 0.84788 0.00905 0.46254 0.0
H1469 H 0.84676 0.01808 0.51181 0.0
H1470 H 0.8217 0.0322 0.47974 0.0
H1471 H 0.72381 -0.00192 0.52165 0.0
H1472 H 0.73145 0.01365 0.58747 0.0
H1473 H 0.81949 0.00661 0.57163 0.0
C1474 C 0.80332 0.97494 0.42472 0.0
C1475 C 0.78227 0.96962 0.39842 0.0
C1476 C 0.75449 0.97424 0.4083 0.0
C1477 C 0.74756 0.98292 0.44482 0.0
C1478 C 0.76875 0.98687 0.47079 0.0
C1479 C 0.7961 0.98364 0.46097 0.0
C1480 C 0.8149 0.9888 0.49424 0.0
C1481 C 0.83149 0.96283 0.50426 0.0
C1482 C 0.83393 0.01351 0.48663 0.0
C1483 C 0.79387 -0.00467 0.5244 0.0
C1484 C 0.76734 -0.00618 0.51042 0.0
C1485 C 0.74447 -0.00069 0.53293 0.0
C1486 C 0.74892 0.00774 0.57028 0.0
C1487 C 0.77596 0.01053 0.5844 0.0
C1488 C 0.79864 0.00378 0.56151 0.0
H1489 H 0.96973 0.82031 0.56505 0.0
H1490 H 0.96332 0.73147 0.57118 0.0
H1491 H 0.9814 0.72753 0.50606 0.0
H1492 H 0.94825 0.82758 0.47145 0.0
H1493 H 0.97197 0.85468 0.45915 0.0
H1494 H 0.96081 0.85078 0.5073 0.0
H1495 H 0.01141 0.84669 0.52996 0.0
H1496 H 0.02273 0.85159 0.48206 0.0
H1497 H 0.03379 0.82171 0.50808 0.0
H1498 H -0.00309 0.73352 0.43944 0.0
H1499 H 0.01633 0.74858 0.37835 0.0
H1500 H 0.0126 0.8336 0.41527 0.0
C1501 C 0.97311 0.80009 0.55295 0.0
C1502 C 0.96586 0.77611 0.57287 0.0
C1503 C 0.96952 0.74991 0.55623 0.0
C1504 C 0.9794 0.74755 0.51927 0.0
C1505 C 0.98547 0.77164 0.49966 0.0
C1506 C 0.98311 0.79738 0.51614 0.0
C1507 C 0.99092 0.81997 0.48876 0.0
C1508 C 0.96653 0.83939 0.48123 0.0
C1509 C 0.01622 0.83592 0.50306 0.0
C1510 C -0.00228 0.80293 0.45421 0.0
C1511 C -0.00579 0.77511 0.46104 0.0
C1512 C -0.00029 0.75523 0.43369 0.0
C1513 C 0.01033 0.76394 0.39899 0.0
C1514 C 0.01527 0.7922 0.39218 0.0
C1515 C 0.00825 0.81196 0.41969 0.0
H1516 H 0.66997 0.51267 0.93256 0.0
H1517 H 0.75067 0.54984 0.92274 0.0
H1518 H 0.7619 0.53522 0.98774 0.0
H1519 H 0.6572 0.53121 0.02596 0.0
H1520 H 0.6407 0.49954 0.03978 0.0
H1521 H 0.63949 0.51055 0.99132 0.0
H1522 H 0.66105 0.46433 0.96936 0.0
H1523 H 0.66146 0.45286 0.01765 0.0
H1524 H 0.69277 0.45277 0.99044 0.0
H1525 H 0.76271 0.52045 0.05525 0.0
H1526 H 0.75607 0.49881 0.11794 0.0
H1527 H 0.67538 0.47049 0.08347 0.0
C1528 C 0.69026 0.51682 0.94384 0.0
C1529 C 0.70964 0.53203 0.92302 0.0
C1530 C 0.73583 0.53782 0.93853 0.0
C1531 C 0.74224 0.52987 0.97539 0.0
C1532 C 0.72228 0.51593 0.99602 0.0
C1533 C 0.69711 0.50876 0.98056 0.0
C1534 C 0.67934 0.49381 0.00899 0.0
C1535 C 0.6526 0.50974 0.01697 0.0
C1536 C 0.67331 0.46419 0.99582 0.0
C1537 C 0.69828 0.49416 0.04288 0.0
C1538 C 0.72285 0.50724 0.03493 0.0
C1539 C 0.7436 0.51008 0.06186 0.0
C1540 C 0.73956 0.49815 0.09742 0.0
C1541 C 0.71507 0.48363 0.10531 0.0
C1542 C 0.69401 0.48209 0.07807 0.0
H1543 H 0.4692 0.66354 0.92805 0.0
H1544 H 0.45551 0.7505 0.90868 0.0
H1545 H 0.47059 0.76083 0.97402 0.0
H1546 H 0.44481 0.66148 0.02121 0.0
H1547 H 0.4702 0.63749 0.03835 0.0
H1548 H 0.46025 0.63693 0.9894 0.0
H1549 H 0.51104 0.64353 0.96867 0.0
H1550 H 0.52122 0.64312 0.01751 0.0
H1551 H 0.53067 0.67177 0.98793 0.0
H1552 H 0.48462 0.7611 0.04232 0.0
H1553 H 0.50351 0.75207 0.10608 0.0
H1554 H 0.50787 0.66493 0.08054 0.0
C1555 C 0.47028 0.68478 0.93739 0.0
C1556 C 0.46191 0.70638 0.91361 0.0
C1557 C 0.4626 0.7339 0.92662 0.0
C1558 C 0.47076 0.73985 0.96367 0.0
C1559 C 0.47809 0.71797 0.98702 0.0
C1560 C 0.47849 0.69105 0.97417 0.0
C1561 C 0.48723 0.67132 0.0049 0.0
C1562 C 0.46425 0.65059 0.01399 0.0
C1563 C 0.51414 0.65657 0.99411 0.0
C1564 C 0.49157 0.69131 0.03711 0.0
C1565 C 0.48592 0.7181 0.02635 0.0
C1566 C 0.48905 0.74022 0.05111 0.0
C1567 C 0.49941 0.73493 0.08729 0.0
C1568 C 0.50648 0.70781 0.098 0.0
C1569 C 0.50188 0.68571 0.07304 0.0
H1570 H 0.31799 0.50543 0.08221 0.0
H1571 H 0.22973 0.50454 0.09847 0.0
H1572 H 0.22347 0.48653 0.03357 0.0
H1573 H 0.31768 0.52927 0.99078 0.0
H1574 H 0.34584 0.50854 0.97367 0.0
H1575 H 0.34404 0.5177 0.02285 0.0
H1576 H 0.34567 0.46623 0.04239 0.0
H1577 H 0.34873 0.45695 0.99334 0.0
H1578 H 0.32161 0.44233 0.02163 0.0
H1579 H 0.22685 0.47369 0.96507 0.0
H1580 H 0.23997 0.45852 0.90079 0.0
H1581 H 0.32608 0.46786 0.92943 0.0
C1582 C 0.2975 0.50019 0.07252 0.0
C1583 C 0.27432 0.50558 0.09516 0.0
C1584 C 0.24765 0.4997 0.08153 0.0
C1585 C 0.24395 0.48987 0.04466 0.0
C1586 C 0.26719 0.48606 0.02221 0.0
C1587 C 0.2935 0.49031 0.03591 0.0
C1588 C 0.31495 0.48548 0.00567 0.0
C1589 C 0.3316 0.51182 0.9978 0.0
C1590 C 0.33385 0.4613 0.0164 0.0
C1591 C 0.29662 0.47824 0.97267 0.0
C1592 C 0.26912 0.47892 0.9827 0.0
C1593 C 0.24829 0.47299 0.95692 0.0
C1594 C 0.25586 0.46483 0.92043 0.0
C1595 C 0.28393 0.4627 0.91036 0.0
C1596 C 0.3045 0.47007 0.93644 0.0
H1597 H 0.53259 0.3131 0.94098 0.0
H1598 H 0.50594 0.23442 0.89609 0.0
H1599 H 0.48455 0.22303 0.95755 0.0
H1600 H 0.55018 0.28923 0.03268 0.0
H1601 H 0.53802 0.31952 0.057 0.0
H1602 H 0.55022 0.32212 0.00914 0.0
H1603 H 0.50392 0.34381 0.98826 0.0
H1604 H 0.49186 0.34196 0.03621 0.0
H1605 H 0.47216 0.32624 0.99886 0.0
H1606 H 0.4676 0.21975 0.02391 0.0
H1607 H 0.45054 0.22721 0.08888 0.0
H1608 H 0.48857 0.30788 0.09098 0.0
C1609 C 0.52171 0.29375 0.94404 0.0
C1610 C 0.52035 0.27476 0.91397 0.0
C1611 C 0.50652 0.2494 0.91876 0.0
C1612 C 0.49471 0.24265 0.95361 0.0
C1613 C 0.49709 0.26151 0.98315 0.0
C1614 C 0.50985 0.28672 0.97859 0.0
C1615 C 0.50936 0.3034 0.01472 0.0
C1616 C 0.53869 0.30888 0.02923 0.0
C1617 C 0.49336 0.33045 0.00918 0.0
C1618 C 0.49407 0.28371 0.04031 0.0
C1619 C 0.48753 0.25952 0.02162 0.0
C1620 C 0.4727 0.2385 0.0389 0.0
C1621 C 0.46333 0.24278 0.07577 0.0
C1622 C 0.46877 0.26786 0.09468 0.0
C1623 C 0.48484 0.2883 0.07719 0.0
loop_
_geom_bond_atom_site_label_1
_geom_bond_atom_site_label_2
_geom_bond_distance
_geom_bond_site_symmetry_2
_ccdc_geom_bond_type
Co0 O3 1.970 . S
Co0 N17 1.989 . S
Co0 O25 1.967 . S
Co0 O32 1.920 . S
Co1 O4 1.966 . S
Co1 N10 2.022 . S
Co1 N18 1.993 . S
Co1 O26 1.941 . S
C2 O3 1.258 . S
C2 O4 1.263 . S
O3 Co0 1.970 . S
O3 C2 1.258 . S
O4 Co1 1.966 . S
O4 C2 1.263 . S
C5 O6 1.235 . S
C5 O32 1.289 . S
O6 C5 1.235 . S
C7 C9 1.400 1_545 S
C7 N10 1.351 . S
C7 C12 1.501 . S
C8 C9 1.387 . S
C8 N11 1.341 1_565 S
C9 C7 1.400 1_565 S
C9 C8 1.387 . S
N10 Co1 2.022 . S
N10 C7 1.351 . S
N10 N11 1.365 . S
N11 C8 1.341 1_545 S
N11 N10 1.365 . S
N11 H31 0.862 . S
C12 C7 1.501 . S
C12 H13 0.961 . S
C12 H14 0.961 . S
C12 H15 0.960 . S
H13 C12 0.961 . S
H14 C12 0.961 . S
H15 C12 0.960 . S
C16 N17 1.342 . S
C16 C20 1.401 . S
C16 C21 1.499 . S
N17 Co0 1.989 . S
N17 C16 1.342 . S
N17 N18 1.388 . S
N18 Co1 1.993 . S
N18 N17 1.388 . S
N18 C19 1.346 . S
C19 N18 1.346 . S
C19 C20 1.396 . S
C19 C29 1.510 . S
C20 C16 1.401 . S
C20 C19 1.396 . S
C21 C16 1.499 . S
C21 H22 0.959 . S
C21 H23 0.960 . S
C21 H24 0.961 . S
H22 C21 0.959 . S
H23 C21 0.960 . S
H24 C21 0.961 . S
O25 Co0 1.967 . S
O25 C33 1.258 . S
O26 Co1 1.941 . S
O26 C33 1.266 . S
H27 C29 0.959 . S
H28 C29 0.969 . S
C29 C19 1.510 . S
C29 H27 0.959 . S
C29 H28 0.969 . S
C29 H30 0.960 . S
H30 C29 0.960 . S
H31 N11 0.862 . S
O32 Co0 1.920 . S
O32 C5 1.289 . S
C33 O25 1.258 . S
C33 O26 1.266 . S
Co34 O37 1.970 . S
Co34 N51 1.989 . S
Co34 O59 1.967 . S
Co34 O66 1.920 . S
Co35 O38 1.966 . S
Co35 N44 2.022 . S
Co35 N52 1.993 . S
Co35 O60 1.941 . S
C36 O37 1.258 . S
C36 O38 1.263 . S
O37 Co34 1.970 . S
O37 C36 1.258 . S
O38 Co35 1.966 . S
O38 C36 1.263 . S
C39 O40 1.235 . S
C39 O66 1.289 . S
O40 C39 1.235 . S
C41 C43 1.400 1_655 S
C41 N44 1.351 . S
C41 C46 1.501 . S
C42 C43 1.387 . S
C42 N45 1.341 1_455 S
C43 C41 1.400 1_455 S
C43 C42 1.387 . S
N44 Co35 2.022 . S
N44 C41 1.351 . S
N44 N45 1.365 . S
N45 C42 1.341 1_655 S
N45 N44 1.365 . S
N45 H65 0.862 . S
C46 C41 1.501 . S
C46 H47 0.961 . S
C46 H48 0.961 . S
C46 H49 0.960 . S
H47 C46 0.961 . S
H48 C46 0.961 . S
H49 C46 0.960 . S
C50 N51 1.342 . S
C50 C54 1.401 . S
C50 C55 1.499 . S
N51 Co34 1.989 . S
N51 C50 1.342 . S
N51 N52 1.388 . S
N52 Co35 1.993 . S
N52 N51 1.388 . S
N52 C53 1.346 . S
C53 N52 1.346 . S
C53 C54 1.396 . S
C53 C63 1.510 . S
C54 C50 1.401 . S
C54 C53 1.396 . S
C55 C50 1.499 . S
C55 H56 0.959 . S
C55 H57 0.960 . S
C55 H58 0.961 . S
H56 C55 0.959 . S
H57 C55 0.960 . S
H58 C55 0.961 . S
O59 Co34 1.967 . S
O59 C67 1.258 . S
O60 Co35 1.941 . S
O60 C67 1.266 . S
H61 C63 0.959 . S
H62 C63 0.969 . S
C63 C53 1.510 . S
C63 H61 0.959 . S
C63 H62 0.969 . S
C63 H64 0.960 . S
H64 C63 0.960 . S
H65 N45 0.862 . S
O66 Co34 1.920 . S
O66 C39 1.289 . S
C67 O59 1.258 . S
C67 O60 1.266 . S
Co68 O71 1.970 . S
Co68 N85 1.989 . S
Co68 O93 1.967 . S
Co68 O100 1.920 . S
Co69 O72 1.966 . S
Co69 N78 2.022 . S
Co69 N86 1.993 . S
Co69 O94 1.941 . S
C70 O71 1.258 . S
C70 O72 1.263 . S
O71 Co68 1.970 . S
O71 C70 1.258 . S
O72 Co69 1.966 . S
O72 C70 1.263 . S
C73 O74 1.235 . S
C73 O100 1.289 . S
O74 C73 1.235 . S
C75 C77 1.400 1_565 S
C75 N78 1.351 . S
C75 C80 1.501 . S
C76 C77 1.387 . S
C76 N79 1.341 1_545 S
C77 C75 1.400 1_545 S
C77 C76 1.387 . S
N78 Co69 2.022 . S
N78 C75 1.351 . S
N78 N79 1.365 . S
N79 C76 1.341 1_565 S
N79 N78 1.365 . S
N79 H99 0.862 . S
C80 C75 1.501 . S
C80 H81 0.961 . S
C80 H82 0.961 . S
C80 H83 0.960 . S
H81 C80 0.961 . S
H82 C80 0.961 . S
H83 C80 0.960 . S
C84 N85 1.342 . S
C84 C88 1.401 . S
C84 C89 1.499 . S
N85 Co68 1.989 . S
N85 C84 1.342 . S
N85 N86 1.388 . S
N86 Co69 1.993 . S
N86 N85 1.388 . S
N86 C87 1.346 . S
C87 N86 1.346 . S
C87 C88 1.396 . S
C87 C97 1.510 . S
C88 C84 1.401 . S
C88 C87 1.396 . S
C89 C84 1.499 . S
C89 H90 0.959 . S
C89 H91 0.960 . S
C89 H92 0.961 . S
H90 C89 0.959 . S
H91 C89 0.960 . S
H92 C89 0.961 . S
O93 Co68 1.967 . S
O93 C101 1.258 . S
O94 Co69 1.941 . S
O94 C101 1.266 . S
H95 C97 0.959 . S
H96 C97 0.969 . S
C97 C87 1.510 . S
C97 H95 0.959 . S
C97 H96 0.969 . S
C97 H98 0.960 . S
H98 C97 0.960 . S
H99 N79 0.862 . S
O100 Co68 1.920 . S
O100 C73 1.289 . S
C101 O93 1.258 . S
C101 O94 1.266 . S
Co102 O105 1.970 . S
Co102 N119 1.989 . S
Co102 O127 1.967 . S
Co102 O134 1.920 . S
Co103 O106 1.966 . S
Co103 N112 2.022 . S
Co103 N120 1.993 . S
Co103 O128 1.941 . S
C104 O105 1.258 . S
C104 O106 1.263 . S
O105 Co102 1.970 . S
O105 C104 1.258 . S
O106 Co103 1.966 . S
O106 C104 1.263 . S
C107 O108 1.235 . S
C107 O134 1.289 . S
O108 C107 1.235 . S
C109 C111 1.400 1_455 S
C109 N112 1.351 . S
C109 C114 1.501 . S
C110 C111 1.387 . S
C110 N113 1.341 1_655 S
C111 C109 1.400 1_655 S
C111 C110 1.387 . S
N112 Co103 2.022 . S
N112 C109 1.351 . S
N112 N113 1.365 . S
N113 C110 1.341 1_455 S
N113 N112 1.365 . S
N113 H133 0.862 . S
C114 C109 1.501 . S
C114 H115 0.961 . S
C114 H116 0.961 . S
C114 H117 0.960 . S
H115 C114 0.961 . S
H116 C114 0.961 . S
H117 C114 0.960 . S
C118 N119 1.342 . S
C118 C122 1.401 . S
C118 C123 1.499 . S
N119 Co102 1.989 . S
N119 C118 1.342 . S
N119 N120 1.388 . S
N120 Co103 1.993 . S
N120 N119 1.388 . S
N120 C121 1.346 . S
C121 N120 1.346 . S
C121 C122 1.396 . S
C121 C131 1.510 . S
C122 C118 1.401 . S
C122 C121 1.396 . S
C123 C118 1.499 . S
C123 H124 0.959 . S
C123 H125 0.960 . S
C123 H126 0.961 . S
H124 C123 0.959 . S
H125 C123 0.960 . S
H126 C123 0.961 . S
O127 Co102 1.967 . S
O127 C135 1.258 . S
O128 Co103 1.941 . S
O128 C135 1.266 . S
H129 C131 0.959 . S
H130 C131 0.969 . S
C131 C121 1.510 . S
C131 H129 0.959 . S
C131 H130 0.969 . S
C131 H132 0.960 . S
H132 C131 0.960 . S
H133 N113 0.862 . S
O134 Co102 1.920 . S
O134 C107 1.289 . S
C135 O127 1.258 . S
C135 O128 1.266 . S
Co136 O139 1.970 . S
Co136 N153 1.989 . S
Co136 O161 1.967 . S
Co136 O168 1.920 . S
Co137 O140 1.966 . S
Co137 N146 2.022 . S
Co137 N154 1.993 . S
Co137 O162 1.941 . S
C138 O139 1.258 . S
C138 O140 1.263 . S
O139 Co136 1.970 . S
O139 C138 1.258 . S
O140 Co137 1.966 . S
O140 C138 1.263 . S
C141 O142 1.235 . S
C141 O168 1.289 . S
O142 C141 1.235 . S
C143 C145 1.400 1_565 S
C143 N146 1.351 . S
C143 C148 1.501 . S
C144 C145 1.387 . S
C144 N147 1.341 1_545 S
C145 C143 1.400 1_545 S
C145 C144 1.387 . S
N146 Co137 2.022 . S
N146 C143 1.351 . S
N146 N147 1.365 . S
N147 C144 1.341 1_565 S
N147 N146 1.365 . S
N147 H167 0.862 . S
C148 C143 1.501 . S
C148 H149 0.961 . S
C148 H150 0.961 . S
C148 H151 0.960 . S
H149 C148 0.961 . S
H150 C148 0.961 . S
H151 C148 0.960 . S
C152 N153 1.342 . S
C152 C156 1.401 . S
C152 C157 1.499 . S
N153 Co136 1.989 . S
N153 C152 1.342 . S
N153 N154 1.388 . S
N154 Co137 1.993 . S
N154 N153 1.388 . S
N154 C155 1.346 . S
C155 N154 1.346 . S
C155 C156 1.396 . S
C155 C165 1.510 . S
C156 C152 1.401 . S
C156 C155 1.396 . S
C157 C152 1.499 . S
C157 H158 0.959 . S
C157 H159 0.960 . S
C157 H160 0.961 . S
H158 C157 0.959 . S
H159 C157 0.960 . S
H160 C157 0.961 . S
O161 Co136 1.967 . S
O161 C169 1.258 . S
O162 Co137 1.941 . S
O162 C169 1.266 . S
H163 C165 0.959 . S
H164 C165 0.969 . S
C165 C155 1.510 . S
C165 H163 0.959 . S
C165 H164 0.969 . S
C165 H166 0.960 . S
H166 C165 0.960 . S
H167 N147 0.862 . S
O168 Co136 1.920 . S
O168 C141 1.289 . S
C169 O161 1.258 . S
C169 O162 1.266 . S
Co170 O173 1.970 . S
Co170 N187 1.989 . S
Co170 O195 1.967 . S
Co170 O202 1.920 . S
Co171 O174 1.966 . S
Co171 N180 2.022 . S
Co171 N188 1.993 . S
Co171 O196 1.941 . S
C172 O173 1.258 . S
C172 O174 1.263 . S
O173 Co170 1.970 . S
O173 C172 1.258 . S
O174 Co171 1.966 . S
O174 C172 1.263 . S
C175 O176 1.235 . S
C175 O202 1.289 . S
O176 C175 1.235 . S
C177 C179 1.400 1_455 S
C177 N180 1.351 . S
C177 C182 1.501 . S
C178 C179 1.387 . S
C178 N181 1.341 1_655 S
C179 C177 1.400 1_655 S
C179 C178 1.387 . S
N180 Co171 2.022 . S
N180 C177 1.351 . S
N180 N181 1.365 . S
N181 C178 1.341 1_455 S
N181 N180 1.365 . S
N181 H201 0.862 . S
C182 C177 1.501 . S
C182 H183 0.961 . S
C182 H184 0.961 . S
C182 H185 0.960 . S
H183 C182 0.961 . S
H184 C182 0.961 . S
H185 C182 0.960 . S
C186 N187 1.342 . S
C186 C190 1.401 . S
C186 C191 1.499 . S
N187 Co170 1.989 . S
N187 C186 1.342 . S
N187 N188 1.388 . S
N188 Co171 1.993 . S
N188 N187 1.388 . S
N188 C189 1.346 . S
C189 N188 1.346 . S
C189 C190 1.396 . S
C189 C199 1.510 . S
C190 C186 1.401 . S
C190 C189 1.396 . S
C191 C186 1.499 . S
C191 H192 0.959 . S
C191 H193 0.960 . S
C191 H194 0.961 . S
H192 C191 0.959 . S
H193 C191 0.960 . S
H194 C191 0.961 . S
O195 Co170 1.967 . S
O195 C203 1.258 . S
O196 Co171 1.941 . S
O196 C203 1.266 . S
H197 C199 0.959 . S
H198 C199 0.969 . S
C199 C189 1.510 . S
C199 H197 0.959 . S
C199 H198 0.969 . S
C199 H200 0.960 . S
H200 C199 0.960 . S
H201 N181 0.862 . S
O202 Co170 1.920 . S
O202 C175 1.289 . S
C203 O195 1.258 . S
C203 O196 1.266 . S
Co204 O207 1.970 . S
Co204 N221 1.989 . S
Co204 O229 1.967 . S
Co204 O236 1.920 . S
Co205 O208 1.966 . S
Co205 N214 2.022 . S
Co205 N222 1.993 . S
Co205 O230 1.941 . S
C206 O207 1.258 . S
C206 O208 1.263 . S
O207 Co204 1.970 . S
O207 C206 1.258 . S
O208 Co205 1.966 . S
O208 C206 1.263 . S
C209 O210 1.235 . S
C209 O236 1.289 . S
O210 C209 1.235 . S
C211 C213 1.400 1_545 S
C211 N214 1.351 . S
C211 C216 1.501 . S
C212 C213 1.387 . S
C212 N215 1.341 1_565 S
C213 C211 1.400 1_565 S
C213 C212 1.387 . S
N214 Co205 2.022 . S
N214 C211 1.351 . S
N214 N215 1.365 . S
N215 C212 1.341 1_545 S
N215 N214 1.365 . S
N215 H235 0.862 . S
C216 C211 1.501 . S
C216 H217 0.961 . S
C216 H218 0.961 . S
C216 H219 0.960 . S
H217 C216 0.961 . S
H218 C216 0.961 . S
H219 C216 0.960 . S
C220 N221 1.342 . S
C220 C224 1.401 . S
C220 C225 1.499 . S
N221 Co204 1.989 . S
N221 C220 1.342 . S
N221 N222 1.388 . S
N222 Co205 1.993 . S
N222 N221 1.388 . S
N222 C223 1.346 . S
C223 N222 1.346 . S
C223 C224 1.396 . S
C223 C233 1.510 . S
C224 C220 1.401 . S
C224 C223 1.396 . S
C225 C220 1.499 . S
C225 H226 0.959 . S
C225 H227 0.960 . S
C225 H228 0.961 . S
H226 C225 0.959 . S
H227 C225 0.960 . S
H228 C225 0.961 . S
O229 Co204 1.967 . S
O229 C237 1.258 . S
O230 Co205 1.941 . S
O230 C237 1.266 . S
H231 C233 0.959 . S
H232 C233 0.969 . S
C233 C223 1.510 . S
C233 H231 0.959 . S
C233 H232 0.969 . S
C233 H234 0.960 . S
H234 C233 0.960 . S
H235 N215 0.862 . S
O236 Co204 1.920 . S
O236 C209 1.289 . S
C237 O229 1.258 . S
C237 O230 1.266 . S
Co238 O241 1.970 . S
Co238 N255 1.989 . S
Co238 O263 1.967 . S
Co238 O270 1.920 . S
Co239 O242 1.966 . S
Co239 N248 2.022 . S
Co239 N256 1.993 . S
Co239 O264 1.941 . S
C240 O241 1.258 . S
C240 O242 1.263 . S
O241 Co238 1.970 . S
O241 C240 1.258 . S
O242 Co239 1.966 . S
O242 C240 1.263 . S
C243 O244 1.235 . S
C243 O270 1.289 . S
O244 C243 1.235 . S
C245 C247 1.400 1_655 S
C245 N248 1.351 . S
C245 C250 1.501 . S
C246 C247 1.387 . S
C246 N249 1.341 1_455 S
C247 C245 1.400 1_455 S
C247 C246 1.387 . S
N248 Co239 2.022 . S
N248 C245 1.351 . S
N248 N249 1.365 . S
N249 C246 1.341 1_655 S
N249 N248 1.365 . S
N249 H269 0.862 . S
C250 C245 1.501 . S
C250 H251 0.961 . S
C250 H252 0.961 . S
C250 H253 0.960 . S
H251 C250 0.961 . S
H252 C250 0.961 . S
H253 C250 0.960 . S
C254 N255 1.342 . S
C254 C258 1.401 . S
C254 C259 1.499 . S
N255 Co238 1.989 . S
N255 C254 1.342 . S
N255 N256 1.388 . S
N256 Co239 1.993 . S
N256 N255 1.388 . S
N256 C257 1.346 . S
C257 N256 1.346 . S
C257 C258 1.396 . S
C257 C267 1.510 . S
C258 C254 1.401 . S
C258 C257 1.396 . S
C259 C254 1.499 . S
C259 H260 0.959 . S
C259 H261 0.960 . S
C259 H262 0.961 . S
H260 C259 0.959 . S
H261 C259 0.960 . S
H262 C259 0.961 . S
O263 Co238 1.967 . S
O263 C271 1.258 . S
O264 Co239 1.941 . S
O264 C271 1.266 . S
H265 C267 0.959 . S
H266 C267 0.969 . S
C267 C257 1.510 . S
C267 H265 0.959 . S
C267 H266 0.969 . S
C267 H268 0.960 . S
H268 C267 0.960 . S
H269 N249 0.862 . S
O270 Co238 1.920 . S
O270 C243 1.289 . S
C271 O263 1.258 . S
C271 O264 1.266 . S
Co272 O275 1.970 . S
Co272 N289 1.989 . S
Co272 O297 1.967 . S
Co272 O304 1.920 . S
Co273 O276 1.966 . S
Co273 N282 2.022 . S
Co273 N290 1.993 . S
Co273 O298 1.941 . S
C274 O275 1.258 . S
C274 O276 1.263 . S
O275 Co272 1.970 . S
O275 C274 1.258 . S
O276 Co273 1.966 . S
O276 C274 1.263 . S
C277 O278 1.235 . S
C277 O304 1.289 . S
O278 C277 1.235 . S
C279 C281 1.400 . S
C279 N282 1.351 . S
C279 C284 1.501 . S
C280 C281 1.387 . S
C280 N283 1.341 . S
C281 C279 1.400 . S
C281 C280 1.387 . S
N282 Co273 2.022 . S
N282 C279 1.351 . S
N282 N283 1.365 . S
N283 C280 1.341 . S
N283 N282 1.365 . S
N283 H303 0.862 . S
C284 C279 1.501 . S
C284 H285 0.961 . S
C284 H286 0.961 . S
C284 H287 0.960 . S
H285 C284 0.961 . S
H286 C284 0.961 . S
H287 C284 0.960 . S
C288 N289 1.342 . S
C288 C292 1.401 . S
C288 C293 1.499 . S
N289 Co272 1.989 . S
N289 C288 1.342 . S
N289 N290 1.388 . S
N290 Co273 1.993 . S
N290 N289 1.388 . S
N290 C291 1.346 . S
C291 N290 1.346 . S
C291 C292 1.396 . S
C291 C301 1.510 . S
C292 C288 1.401 . S
C292 C291 1.396 . S
C293 C288 1.499 . S
C293 H294 0.959 . S
C293 H295 0.960 . S
C293 H296 0.961 . S
H294 C293 0.959 . S
H295 C293 0.960 . S
H296 C293 0.961 . S
O297 Co272 1.967 . S
O297 C305 1.258 . S
O298 Co273 1.941 . S
O298 C305 1.266 . S
H299 C301 0.959 . S
H300 C301 0.961 . S
C301 C291 1.510 . S
C301 H299 0.959 . S
C301 H300 0.961 . S
C301 H302 0.960 . S
H302 C301 0.960 . S
H303 N283 0.862 . S
O304 Co272 1.920 . S
O304 C277 1.289 . S
C305 O297 1.258 . S
C305 O298 1.266 . S
Co306 O309 1.970 . S
Co306 N323 1.989 . S
Co306 O331 1.967 . S
Co306 O338 1.920 . S
Co307 O310 1.966 . S
Co307 N316 2.022 . S
Co307 N324 1.993 . S
Co307 O332 1.941 . S
C308 O309 1.258 . S
C308 O310 1.263 . S
O309 Co306 1.970 . S
O309 C308 1.258 . S
O310 Co307 1.966 . S
O310 C308 1.263 . S
C311 O312 1.235 . S
C311 O338 1.289 . S
O312 C311 1.235 . S
C313 C315 1.400 . S
C313 N316 1.351 . S
C313 C318 1.501 . S
C314 C315 1.387 . S
C314 N317 1.341 . S
C315 C313 1.400 . S
C315 C314 1.387 . S
N316 Co307 2.022 . S
N316 C313 1.351 . S
N316 N317 1.365 . S
N317 C314 1.341 . S
N317 N316 1.365 . S
N317 H337 0.862 . S
C318 C313 1.501 . S
C318 H319 0.961 . S
C318 H320 0.961 . S
C318 H321 0.960 . S
H319 C318 0.961 . S
H320 C318 0.961 . S
H321 C318 0.960 . S
C322 N323 1.342 . S
C322 C326 1.401 . S
C322 C327 1.499 . S
N323 Co306 1.989 . S
N323 C322 1.342 . S
N323 N324 1.388 . S
N324 Co307 1.993 . S
N324 N323 1.388 . S
N324 C325 1.346 . S
C325 N324 1.346 . S
C325 C326 1.396 . S
C325 C335 1.510 . S
C326 C322 1.401 . S
C326 C325 1.396 . S
C327 C322 1.499 . S
C327 H328 0.959 . S
C327 H329 0.960 . S
C327 H330 0.961 . S
H328 C327 0.959 . S
H329 C327 0.960 . S
H330 C327 0.961 . S
O331 Co306 1.967 . S
O331 C339 1.258 . S
O332 Co307 1.941 . S
O332 C339 1.266 . S
H333 C335 0.959 . S
H334 C335 0.961 . S
C335 C325 1.510 . S
C335 H333 0.959 . S
C335 H334 0.961 . S
C335 H336 0.960 . S
H336 C335 0.960 . S
H337 N317 0.862 . S
O338 Co306 1.920 . S
O338 C311 1.289 . S
C339 O331 1.258 . S
C339 O332 1.266 . S
Co340 O343 1.970 . S
Co340 N357 1.989 . S
Co340 O365 1.967 . S
Co340 O372 1.920 . S
Co341 O344 1.966 . S
Co341 N350 2.022 . S
Co341 N358 1.993 . S
Co341 O366 1.941 . S
C342 O343 1.258 . S
C342 O344 1.263 . S
O343 Co340 1.970 . S
O343 C342 1.258 . S
O344 Co341 1.966 . S
O344 C342 1.263 . S
C345 O346 1.235 . S
C345 O372 1.289 . S
O346 C345 1.235 . S
C347 C349 1.400 . S
C347 N350 1.351 . S
C347 C352 1.501 . S
C348 C349 1.387 . S
C348 N351 1.341 . S
C349 C347 1.400 . S
C349 C348 1.387 . S
N350 Co341 2.022 . S
N350 C347 1.351 . S
N350 N351 1.365 . S
N351 C348 1.341 . S
N351 N350 1.365 . S
N351 H371 0.862 . S
C352 C347 1.501 . S
C352 H353 0.961 . S
C352 H354 0.961 . S
C352 H355 0.960 . S
H353 C352 0.961 . S
H354 C352 0.961 . S
H355 C352 0.960 . S
C356 N357 1.342 . S
C356 C360 1.401 . S
C356 C361 1.499 . S
N357 Co340 1.989 . S
N357 C356 1.342 . S
N357 N358 1.388 . S
N358 Co341 1.993 . S
N358 N357 1.388 . S
N358 C359 1.346 . S
C359 N358 1.346 . S
C359 C360 1.396 . S
C359 C369 1.510 . S
C360 C356 1.401 . S
C360 C359 1.396 . S
C361 C356 1.499 . S
C361 H362 0.959 . S
C361 H363 0.960 . S
C361 H364 0.961 . S
H362 C361 0.959 . S
H363 C361 0.960 . S
H364 C361 0.961 . S
O365 Co340 1.967 . S
O365 C373 1.258 . S
O366 Co341 1.941 . S
O366 C373 1.266 . S
H367 C369 0.959 . S
H368 C369 0.961 . S
C369 C359 1.510 . S
C369 H367 0.959 . S
C369 H368 0.961 . S
C369 H370 0.960 . S
H370 C369 0.960 . S
H371 N351 0.862 . S
O372 Co340 1.920 . S
O372 C345 1.289 . S
C373 O365 1.258 . S
C373 O366 1.266 . S
Co374 O377 1.970 . S
Co374 N391 1.989 . S
Co374 O399 1.967 . S
Co374 O406 1.920 . S
Co375 O378 1.966 . S
Co375 N384 2.022 . S
Co375 N392 1.993 . S
Co375 O400 1.941 . S
C376 O377 1.258 . S
C376 O378 1.263 . S
O377 Co374 1.970 . S
O377 C376 1.258 . S
O378 Co375 1.966 . S
O378 C376 1.263 . S
C379 O380 1.235 . S
C379 O406 1.289 . S
O380 C379 1.235 . S
C381 C383 1.400 . S
C381 N384 1.351 . S
C381 C386 1.501 . S
C382 C383 1.387 . S
C382 N385 1.341 . S
C383 C381 1.400 . S
C383 C382 1.387 . S
N384 Co375 2.022 . S
N384 C381 1.351 . S
N384 N385 1.365 . S
N385 C382 1.341 . S
N385 N384 1.365 . S
N385 H405 0.862 . S
C386 C381 1.501 . S
C386 H387 0.961 . S
C386 H388 0.961 . S
C386 H389 0.960 . S
H387 C386 0.961 . S
H388 C386 0.961 . S
H389 C386 0.960 . S
C390 N391 1.342 . S
C390 C394 1.401 . S
C390 C395 1.499 . S
N391 Co374 1.989 . S
N391 C390 1.342 . S
N391 N392 1.388 . S
N392 Co375 1.993 . S
N392 N391 1.388 . S
N392 C393 1.346 . S
C393 N392 1.346 . S
C393 C394 1.396 . S
C393 C403 1.510 . S
C394 C390 1.401 . S
C394 C393 1.396 . S
C395 C390 1.499 . S
C395 H396 0.959 . S
C395 H397 0.960 . S
C395 H398 0.961 . S
H396 C395 0.959 . S
H397 C395 0.960 . S
H398 C395 0.961 . S
O399 Co374 1.967 . S
O399 C407 1.258 . S
O400 Co375 1.941 . S
O400 C407 1.266 . S
H401 C403 0.959 . S
H402 C403 0.961 . S
C403 C393 1.510 . S
C403 H401 0.959 . S
C403 H402 0.961 . S
C403 H404 0.960 . S
H404 C403 0.960 . S
H405 N385 0.862 . S
O406 Co374 1.920 . S
O406 C379 1.289 . S
C407 O399 1.258 . S
C407 O400 1.266 . S
Co408 O411 1.970 . S
Co408 N425 1.989 . S
Co408 O433 1.967 . S
Co408 O440 1.920 . S
Co409 O412 1.966 . S
Co409 N418 2.022 . S
Co409 N426 1.993 . S
Co409 O434 1.941 . S
C410 O411 1.258 . S
C410 O412 1.263 . S
O411 Co408 1.970 . S
O411 C410 1.258 . S
O412 Co409 1.966 . S
O412 C410 1.263 . S
C413 O414 1.235 . S
C413 O440 1.289 . S
O414 C413 1.235 . S
C415 C417 1.400 . S
C415 N418 1.351 . S
C415 C420 1.501 . S
C416 C417 1.387 . S
C416 N419 1.341 . S
C417 C415 1.400 . S
C417 C416 1.387 . S
N418 Co409 2.022 . S
N418 C415 1.351 . S
N418 N419 1.365 . S
N419 C416 1.341 . S
N419 N418 1.365 . S
N419 H439 0.862 . S
C420 C415 1.501 . S
C420 H421 0.961 . S
C420 H422 0.961 . S
C420 H423 0.960 . S
H421 C420 0.961 . S
H422 C420 0.961 . S
H423 C420 0.960 . S
C424 N425 1.342 . S
C424 C428 1.401 . S
C424 C429 1.499 . S
N425 Co408 1.989 . S
N425 C424 1.342 . S
N425 N426 1.388 . S
N426 Co409 1.993 . S
N426 N425 1.388 . S
N426 C427 1.346 . S
C427 N426 1.346 . S
C427 C428 1.396 . S
C427 C437 1.510 . S
C428 C424 1.401 . S
C428 C427 1.396 . S
C429 C424 1.499 . S
C429 H430 0.959 . S
C429 H431 0.960 . S
C429 H432 0.961 . S
H430 C429 0.959 . S
H431 C429 0.960 . S
H432 C429 0.961 . S
O433 Co408 1.967 . S
O433 C441 1.258 . S
O434 Co409 1.941 . S
O434 C441 1.266 . S
H435 C437 0.959 . S
H436 C437 0.961 . S
C437 C427 1.510 . S
C437 H435 0.959 . S
C437 H436 0.961 . S
C437 H438 0.960 . S
H438 C437 0.960 . S
H439 N419 0.862 . S
O440 Co408 1.920 . S
O440 C413 1.289 . S
C441 O433 1.258 . S
C441 O434 1.266 . S
Co442 O445 1.970 . S
Co442 N459 1.989 . S
Co442 O467 1.967 . S
Co442 O474 1.920 . S
Co443 O446 1.966 . S
Co443 N452 2.022 . S
Co443 N460 1.993 . S
Co443 O468 1.941 . S
C444 O445 1.258 . S
C444 O446 1.263 . S
O445 Co442 1.970 . S
O445 C444 1.258 . S
O446 Co443 1.966 . S
O446 C444 1.263 . S
C447 O448 1.235 . S
C447 O474 1.289 . S
O448 C447 1.235 . S
C449 C451 1.400 . S
C449 N452 1.351 . S
C449 C454 1.501 . S
C450 C451 1.387 . S
C450 N453 1.341 . S
C451 C449 1.400 . S
C451 C450 1.387 . S
N452 Co443 2.022 . S
N452 C449 1.351 . S
N452 N453 1.365 . S
N453 C450 1.341 . S
N453 N452 1.365 . S
N453 H473 0.862 . S
C454 C449 1.501 . S
C454 H455 0.961 . S
C454 H456 0.961 . S
C454 H457 0.960 . S
H455 C454 0.961 . S
H456 C454 0.961 . S
H457 C454 0.960 . S
C458 N459 1.342 . S
C458 C462 1.401 . S
C458 C463 1.499 . S
N459 Co442 1.989 . S
N459 C458 1.342 . S
N459 N460 1.388 . S
N460 Co443 1.993 . S
N460 N459 1.388 . S
N460 C461 1.346 . S
C461 N460 1.346 . S
C461 C462 1.396 . S
C461 C471 1.510 . S
C462 C458 1.401 . S
C462 C461 1.396 . S
C463 C458 1.499 . S
C463 H464 0.959 . S
C463 H465 0.960 . S
C463 H466 0.961 . S
H464 C463 0.959 . S
H465 C463 0.960 . S
H466 C463 0.961 . S
O467 Co442 1.967 . S
O467 C475 1.258 . S
O468 Co443 1.941 . S
O468 C475 1.266 . S
H469 C471 0.959 . S
H470 C471 0.961 . S
C471 C461 1.510 . S
C471 H469 0.959 . S
C471 H470 0.961 . S
C471 H472 0.960 . S
H472 C471 0.960 . S
H473 N453 0.862 . S
O474 Co442 1.920 . S
O474 C447 1.289 . S
C475 O467 1.258 . S
C475 O468 1.266 . S
Co476 O479 1.970 . S
Co476 N493 1.989 . S
Co476 O501 1.967 . S
Co476 O508 1.920 . S
Co477 O480 1.966 . S
Co477 N486 2.022 . S
Co477 N494 1.993 . S
Co477 O502 1.941 . S
C478 O479 1.258 . S
C478 O480 1.263 . S
O479 Co476 1.970 . S
O479 C478 1.258 . S
O480 Co477 1.966 . S
O480 C478 1.263 . S
C481 O482 1.235 . S
C481 O508 1.289 . S
O482 C481 1.235 . S
C483 C485 1.400 . S
C483 N486 1.351 . S
C483 C488 1.501 . S
C484 C485 1.387 . S
C484 N487 1.341 . S
C485 C483 1.400 . S
C485 C484 1.387 . S
N486 Co477 2.022 . S
N486 C483 1.351 . S
N486 N487 1.365 . S
N487 C484 1.341 . S
N487 N486 1.365 . S
N487 H507 0.862 . S
C488 C483 1.501 . S
C488 H489 0.961 . S
C488 H490 0.961 . S
C488 H491 0.960 . S
H489 C488 0.961 . S
H490 C488 0.961 . S
H491 C488 0.960 . S
C492 N493 1.342 . S
C492 C496 1.401 . S
C492 C497 1.499 . S
N493 Co476 1.989 . S
N493 C492 1.342 . S
N493 N494 1.388 . S
N494 Co477 1.993 . S
N494 N493 1.388 . S
N494 C495 1.346 . S
C495 N494 1.346 . S
C495 C496 1.396 . S
C495 C505 1.510 . S
C496 C492 1.401 . S
C496 C495 1.396 . S
C497 C492 1.499 . S
C497 H498 0.959 . S
C497 H499 0.960 . S
C497 H500 0.961 . S
H498 C497 0.959 . S
H499 C497 0.960 . S
H500 C497 0.961 . S
O501 Co476 1.967 . S
O501 C509 1.258 . S
O502 Co477 1.941 . S
O502 C509 1.266 . S
H503 C505 0.959 . S
H504 C505 0.961 . S
C505 C495 1.510 . S
C505 H503 0.959 . S
C505 H504 0.961 . S
C505 H506 0.960 . S
H506 C505 0.960 . S
H507 N487 0.862 . S
O508 Co476 1.920 . S
O508 C481 1.289 . S
C509 O501 1.258 . S
C509 O502 1.266 . S
Co510 O513 1.970 . S
Co510 N527 1.989 . S
Co510 O535 1.967 . S
Co510 O542 1.920 . S
Co511 O514 1.966 . S
Co511 N520 2.022 . S
Co511 N528 1.993 . S
Co511 O536 1.941 . S
C512 O513 1.258 . S
C512 O514 1.263 . S
O513 Co510 1.970 . S
O513 C512 1.258 . S
O514 Co511 1.966 . S
O514 C512 1.263 . S
C515 O516 1.235 . S
C515 O542 1.289 . S
O516 C515 1.235 . S
C517 C519 1.400 . S
C517 N520 1.351 . S
C517 C522 1.501 . S
C518 C519 1.387 . S
C518 N521 1.341 . S
C519 C517 1.400 . S
C519 C518 1.387 . S
N520 Co511 2.022 . S
N520 C517 1.351 . S
N520 N521 1.365 . S
N521 C518 1.341 . S
N521 N520 1.365 . S
N521 H541 0.862 . S
C522 C517 1.501 . S
C522 H523 0.961 . S
C522 H524 0.961 . S
C522 H525 0.960 . S
H523 C522 0.961 . S
H524 C522 0.961 . S
H525 C522 0.960 . S
C526 N527 1.342 . S
C526 C530 1.401 . S
C526 C531 1.499 . S
N527 Co510 1.989 . S
N527 C526 1.342 . S
N527 N528 1.388 . S
N528 Co511 1.993 . S
N528 N527 1.388 . S
N528 C529 1.346 . S
C529 N528 1.346 . S
C529 C530 1.396 . S
C529 C539 1.510 . S
C530 C526 1.401 . S
C530 C529 1.396 . S
C531 C526 1.499 . S
C531 H532 0.959 . S
C531 H533 0.960 . S
C531 H534 0.961 . S
H532 C531 0.959 . S
H533 C531 0.960 . S
H534 C531 0.961 . S
O535 Co510 1.967 . S
O535 C543 1.258 . S
O536 Co511 1.941 . S
O536 C543 1.266 . S
H537 C539 0.959 . S
H538 C539 0.961 . S
C539 C529 1.510 . S
C539 H537 0.959 . S
C539 H538 0.961 . S
C539 H540 0.960 . S
H540 C539 0.960 . S
H541 N521 0.862 . S
O542 Co510 1.920 . S
O542 C515 1.289 . S
C543 O535 1.258 . S
C543 O536 1.266 . S
H544 C556 0.930 . S
H545 C558 0.930 . S
H546 C559 0.930 . S
H547 C563 0.959 . S
H548 C563 0.959 . S
H549 C563 0.961 . S
H550 C564 0.960 . S
H551 C564 0.961 . S
H552 C564 0.959 . S
H553 C567 0.929 . S
H554 C568 0.931 . S
H555 C570 0.930 . S
C556 H544 0.930 . S
C556 C557 1.399 . S
C556 C561 1.399 . S
C557 C556 1.399 . S
C557 C558 1.376 . S
C558 H545 0.930 . S
C558 C557 1.376 . S
C558 C559 1.388 . S
C559 H546 0.930 . S
C559 C558 1.388 . S
C559 C560 1.390 . S
C560 C559 1.390 . S
C560 C561 1.394 . S
C560 C566 1.465 . S
C561 C556 1.399 . S
C561 C560 1.394 . S
C561 C562 1.516 . S
C562 C561 1.516 . S
C562 C563 1.502 . S
C562 C564 1.561 . S
C562 C565 1.526 . S
C563 H547 0.959 . S
C563 H548 0.959 . S
C563 H549 0.961 . S
C563 C562 1.502 . S
C564 H550 0.960 . S
C564 H551 0.961 . S
C564 H552 0.959 . S
C564 C562 1.561 . S
C565 C562 1.526 . S
C565 C566 1.396 . S
C565 C570 1.390 . S
C566 C560 1.465 . S
C566 C565 1.396 . S
C566 C567 1.399 . S
C567 H553 0.929 . S
C567 C566 1.399 . S
C567 C568 1.385 . S
C568 H554 0.931 . S
C568 C567 1.385 . S
C568 C569 1.389 . S
C569 C568 1.389 . S
C569 C570 1.387 . S
C570 H555 0.930 . S
C570 C565 1.390 . S
C570 C569 1.387 . S
H571 C583 0.930 . S
H572 C585 0.930 . S
H573 C586 0.930 . S
H574 C590 0.959 . S
H575 C590 0.959 . S
H576 C590 0.961 . S
H577 C591 0.960 . S
H578 C591 0.961 . S
H579 C591 0.959 . S
H580 C594 0.929 . S
H581 C595 0.931 . S
H582 C597 0.930 . S
C583 H571 0.930 . S
C583 C584 1.399 . S
C583 C588 1.399 . S
C584 C583 1.399 . S
C584 C585 1.376 . S
C585 H572 0.930 . S
C585 C584 1.376 . S
C585 C586 1.388 . S
C586 H573 0.930 . S
C586 C585 1.388 . S
C586 C587 1.390 . S
C587 C586 1.390 . S
C587 C588 1.394 . S
C587 C593 1.465 . S
C588 C583 1.399 . S
C588 C587 1.394 . S
C588 C589 1.516 . S
C589 C588 1.516 . S
C589 C590 1.502 . S
C589 C591 1.561 . S
C589 C592 1.526 . S
C590 H574 0.959 . S
C590 H575 0.959 . S
C590 H576 0.961 . S
C590 C589 1.502 . S
C591 H577 0.960 . S
C591 H578 0.961 . S
C591 H579 0.959 . S
C591 C589 1.561 . S
C592 C589 1.526 . S
C592 C593 1.396 . S
C592 C597 1.390 . S
C593 C587 1.465 . S
C593 C592 1.396 . S
C593 C594 1.399 . S
C594 H580 0.929 . S
C594 C593 1.399 . S
C594 C595 1.385 . S
C595 H581 0.931 . S
C595 C594 1.385 . S
C595 C596 1.389 . S
C596 C595 1.389 . S
C596 C597 1.387 . S
C597 H582 0.930 . S
C597 C592 1.390 . S
C597 C596 1.387 . S
H598 C610 0.930 . S
H599 C612 0.930 . S
H600 C613 0.930 . S
H601 C617 0.959 . S
H602 C617 0.959 . S
H603 C617 0.961 . S
H604 C618 0.960 . S
H605 C618 0.961 . S
H606 C618 0.959 . S
H607 C621 0.929 . S
H608 C622 0.931 . S
H609 C624 0.930 . S
C610 H598 0.930 . S
C610 C611 1.399 . S
C610 C615 1.399 . S
C611 C610 1.399 . S
C611 C612 1.376 . S
C612 H599 0.930 . S
C612 C611 1.376 . S
C612 C613 1.388 . S
C613 H600 0.930 . S
C613 C612 1.388 . S
C613 C614 1.390 . S
C614 C613 1.390 . S
C614 C615 1.394 . S
C614 C620 1.465 . S
C615 C610 1.399 . S
C615 C614 1.394 . S
C615 C616 1.516 . S
C616 C615 1.516 . S
C616 C617 1.502 . S
C616 C618 1.561 . S
C616 C619 1.526 . S
C617 H601 0.959 . S
C617 H602 0.959 . S
C617 H603 0.961 . S
C617 C616 1.502 . S
C618 H604 0.960 . S
C618 H605 0.961 . S
C618 H606 0.959 . S
C618 C616 1.561 . S
C619 C616 1.526 . S
C619 C620 1.396 . S
C619 C624 1.390 . S
C620 C614 1.465 . S
C620 C619 1.396 . S
C620 C621 1.399 . S
C621 H607 0.929 . S
C621 C620 1.399 . S
C621 C622 1.385 . S
C622 H608 0.931 . S
C622 C621 1.385 . S
C622 C623 1.389 . S
C623 C622 1.389 . S
C623 C624 1.387 . S
C624 H609 0.930 . S
C624 C619 1.390 . S
C624 C623 1.387 . S
H625 C637 0.930 . S
H626 C639 0.930 . S
H627 C640 0.930 . S
H628 C644 0.959 . S
H629 C644 0.959 . S
H630 C644 0.961 . S
H631 C645 0.960 . S
H632 C645 0.961 . S
H633 C645 0.959 . S
H634 C648 0.929 . S
H635 C649 0.931 . S
H636 C651 0.930 . S
C637 H625 0.930 . S
C637 C638 1.399 . S
C637 C642 1.399 . S
C638 C637 1.399 . S
C638 C639 1.376 . S
C639 H626 0.930 . S
C639 C638 1.376 . S
C639 C640 1.388 . S
C640 H627 0.930 . S
C640 C639 1.388 . S
C640 C641 1.390 . S
C641 C640 1.390 . S
C641 C642 1.394 . S
C641 C647 1.465 . S
C642 C637 1.399 . S
C642 C641 1.394 . S
C642 C643 1.516 . S
C643 C642 1.516 . S
C643 C644 1.502 . S
C643 C645 1.561 . S
C643 C646 1.526 . S
C644 H628 0.959 . S
C644 H629 0.959 . S
C644 H630 0.961 . S
C644 C643 1.502 . S
C645 H631 0.960 . S
C645 H632 0.961 . S
C645 H633 0.959 . S
C645 C643 1.561 . S
C646 C643 1.526 . S
C646 C647 1.396 . S
C646 C651 1.390 . S
C647 C641 1.465 . S
C647 C646 1.396 . S
C647 C648 1.399 . S
C648 H634 0.929 . S
C648 C647 1.399 . S
C648 C649 1.385 . S
C649 H635 0.931 . S
C649 C648 1.385 . S
C649 C650 1.389 . S
C650 C649 1.389 . S
C650 C651 1.387 . S
C651 H636 0.930 . S
C651 C646 1.390 . S
C651 C650 1.387 . S
H652 C664 0.930 . S
H653 C666 0.930 . S
H654 C667 0.930 . S
H655 C671 0.959 . S
H656 C671 0.959 . S
H657 C671 0.961 . S
H658 C672 0.960 . S
H659 C672 0.961 . S
H660 C672 0.959 . S
H661 C675 0.929 . S
H662 C676 0.931 . S
H663 C678 0.930 . S
C664 H652 0.930 . S
C664 C665 1.399 . S
C664 C669 1.399 . S
C665 C664 1.399 . S
C665 C666 1.376 . S
C666 H653 0.930 . S
C666 C665 1.376 . S
C666 C667 1.388 . S
C667 H654 0.930 . S
C667 C666 1.388 . S
C667 C668 1.390 . S
C668 C667 1.390 . S
C668 C669 1.394 . S
C668 C674 1.465 . S
C669 C664 1.399 . S
C669 C668 1.394 . S
C669 C670 1.516 . S
C670 C669 1.516 . S
C670 C671 1.502 . S
C670 C672 1.561 . S
C670 C673 1.526 . S
C671 H655 0.959 . S
C671 H656 0.959 . S
C671 H657 0.961 . S
C671 C670 1.502 . S
C672 H658 0.960 . S
C672 H659 0.961 . S
C672 H660 0.959 . S
C672 C670 1.561 . S
C673 C670 1.526 . S
C673 C674 1.396 . S
C673 C678 1.390 . S
C674 C668 1.465 . S
C674 C673 1.396 . S
C674 C675 1.399 . S
C675 H661 0.929 . S
C675 C674 1.399 . S
C675 C676 1.385 . S
C676 H662 0.931 . S
C676 C675 1.385 . S
C676 C677 1.389 . S
C677 C676 1.389 . S
C677 C678 1.387 . S
C678 H663 0.930 . S
C678 C673 1.390 . S
C678 C677 1.387 . S
H679 C691 0.930 . S
H680 C693 0.930 . S
H681 C694 0.930 . S
H682 C698 0.959 . S
H683 C698 0.959 . S
H684 C698 0.961 . S
H685 C699 0.960 . S
H686 C699 0.961 . S
H687 C699 0.959 . S
H688 C702 0.929 . S
H689 C703 0.931 . S
H690 C705 0.930 . S
C691 H679 0.930 . S
C691 C692 1.399 . S
C691 C696 1.399 . S
C692 C691 1.399 . S
C692 C693 1.376 . S
C693 H680 0.930 . S
C693 C692 1.376 . S
C693 C694 1.388 . S
C694 H681 0.930 . S
C694 C693 1.388 . S
C694 C695 1.390 . S
C695 C694 1.390 . S
C695 C696 1.394 . S
C695 C701 1.465 . S
C696 C691 1.399 . S
C696 C695 1.394 . S
C696 C697 1.516 . S
C697 C696 1.516 . S
C697 C698 1.502 . S
C697 C699 1.561 . S
C697 C700 1.526 . S
C698 H682 0.959 . S
C698 H683 0.959 . S
C698 H684 0.961 . S
C698 C697 1.502 . S
C699 H685 0.960 . S
C699 H686 0.961 . S
C699 H687 0.959 . S
C699 C697 1.561 . S
C700 C697 1.526 . S
C700 C701 1.396 . S
C700 C705 1.390 . S
C701 C695 1.465 . S
C701 C700 1.396 . S
C701 C702 1.399 . S
C702 H688 0.929 . S
C702 C701 1.399 . S
C702 C703 1.385 . S
C703 H689 0.931 . S
C703 C702 1.385 . S
C703 C704 1.389 . S
C704 C703 1.389 . S
C704 C705 1.387 . S
C705 H690 0.930 . S
C705 C700 1.390 . S
C705 C704 1.387 . S
H706 C718 0.930 . S
H707 C720 0.930 . S
H708 C721 0.930 . S
H709 C725 0.959 . S
H710 C725 0.959 . S
H711 C725 0.961 . S
H712 C726 0.960 . S
H713 C726 0.961 . S
H714 C726 0.959 . S
H715 C729 0.929 . S
H716 C730 0.931 . S
H717 C732 0.930 . S
C718 H706 0.930 . S
C718 C719 1.399 . S
C718 C723 1.399 . S
C719 C718 1.399 . S
C719 C720 1.376 . S
C720 H707 0.930 . S
C720 C719 1.376 . S
C720 C721 1.388 . S
C721 H708 0.930 . S
C721 C720 1.388 . S
C721 C722 1.390 . S
C722 C721 1.390 . S
C722 C723 1.394 . S
C722 C728 1.465 . S
C723 C718 1.399 . S
C723 C722 1.394 . S
C723 C724 1.516 . S
C724 C723 1.516 . S
C724 C725 1.502 . S
C724 C726 1.561 . S
C724 C727 1.526 . S
C725 H709 0.959 . S
C725 H710 0.959 . S
C725 H711 0.961 . S
C725 C724 1.502 . S
C726 H712 0.960 . S
C726 H713 0.961 . S
C726 H714 0.959 . S
C726 C724 1.561 . S
C727 C724 1.526 . S
C727 C728 1.396 . S
C727 C732 1.390 . S
C728 C722 1.465 . S
C728 C727 1.396 . S
C728 C729 1.399 . S
C729 H715 0.929 . S
C729 C728 1.399 . S
C729 C730 1.385 . S
C730 H716 0.931 . S
C730 C729 1.385 . S
C730 C731 1.389 . S
C731 C730 1.389 . S
C731 C732 1.387 . S
C732 H717 0.930 . S
C732 C727 1.390 . S
C732 C731 1.387 . S
H733 C745 0.930 . S
H734 C747 0.930 . S
H735 C748 0.930 . S
H736 C752 0.959 . S
H737 C752 0.959 . S
H738 C752 0.961 . S
H739 C753 0.960 . S
H740 C753 0.961 . S
H741 C753 0.959 . S
H742 C756 0.929 . S
H743 C757 0.931 . S
H744 C759 0.930 . S
C745 H733 0.930 . S
C745 C746 1.399 . S
C745 C750 1.399 . S
C746 C745 1.399 . S
C746 C747 1.376 . S
C747 H734 0.930 . S
C747 C746 1.376 . S
C747 C748 1.388 . S
C748 H735 0.930 . S
C748 C747 1.388 . S
C748 C749 1.390 . S
C749 C748 1.390 . S
C749 C750 1.394 . S
C749 C755 1.465 . S
C750 C745 1.399 . S
C750 C749 1.394 . S
C750 C751 1.516 . S
C751 C750 1.516 . S
C751 C752 1.502 . S
C751 C753 1.561 . S
C751 C754 1.526 . S
C752 H736 0.959 . S
C752 H737 0.959 . S
C752 H738 0.961 . S
C752 C751 1.502 . S
C753 H739 0.960 . S
C753 H740 0.961 . S
C753 H741 0.959 . S
C753 C751 1.561 . S
C754 C751 1.526 . S
C754 C755 1.396 . S
C754 C759 1.390 . S
C755 C749 1.465 . S
C755 C754 1.396 . S
C755 C756 1.399 . S
C756 H742 0.929 . S
C756 C755 1.399 . S
C756 C757 1.385 . S
C757 H743 0.931 . S
C757 C756 1.385 . S
C757 C758 1.389 . S
C758 C757 1.389 . S
C758 C759 1.387 . S
C759 H744 0.930 . S
C759 C754 1.390 . S
C759 C758 1.387 . S
H760 C772 0.930 . S
H761 C774 0.930 . S
H762 C775 0.930 . S
H763 C779 0.959 . S
H764 C779 0.959 . S
H765 C779 0.961 . S
H766 C780 0.960 . S
H767 C780 0.961 . S
H768 C780 0.959 . S
H769 C783 0.929 . S
H770 C784 0.931 . S
H771 C786 0.930 . S
C772 H760 0.930 . S
C772 C773 1.399 . S
C772 C777 1.399 . S
C773 C772 1.399 . S
C773 C774 1.376 . S
C774 H761 0.930 . S
C774 C773 1.376 . S
C774 C775 1.388 . S
C775 H762 0.930 . S
C775 C774 1.388 . S
C775 C776 1.390 . S
C776 C775 1.390 . S
C776 C777 1.394 . S
C776 C782 1.465 . S
C777 C772 1.399 . S
C777 C776 1.394 . S
C777 C778 1.516 . S
C778 C777 1.516 . S
C778 C779 1.502 . S
C778 C780 1.561 . S
C778 C781 1.526 . S
C779 H763 0.959 . S
C779 H764 0.959 . S
C779 H765 0.961 . S
C779 C778 1.502 . S
C780 H766 0.960 . S
C780 H767 0.961 . S
C780 H768 0.959 . S
C780 C778 1.561 . S
C781 C778 1.526 . S
C781 C782 1.396 . S
C781 C786 1.390 . S
C782 C776 1.465 . S
C782 C781 1.396 . S
C782 C783 1.399 . S
C783 H769 0.929 . S
C783 C782 1.399 . S
C783 C784 1.385 . S
C784 H770 0.931 . S
C784 C783 1.385 . S
C784 C785 1.389 . S
C785 C784 1.389 . S
C785 C786 1.387 . S
C786 H771 0.930 . S
C786 C781 1.390 . S
C786 C785 1.387 . S
H787 C799 0.930 . S
H788 C801 0.930 . S
H789 C802 0.930 . S
H790 C806 0.959 . S
H791 C806 0.959 . S
H792 C806 0.961 . S
H793 C807 0.960 . S
H794 C807 0.961 . S
H795 C807 0.959 . S
H796 C810 0.929 . S
H797 C811 0.931 . S
H798 C813 0.930 . S
C799 H787 0.930 . S
C799 C800 1.399 . S
C799 C804 1.399 . S
C800 C799 1.399 . S
C800 C801 1.376 . S
C801 H788 0.930 . S
C801 C800 1.376 . S
C801 C802 1.388 . S
C802 H789 0.930 . S
C802 C801 1.388 . S
C802 C803 1.390 . S
C803 C802 1.390 . S
C803 C804 1.394 . S
C803 C809 1.465 . S
C804 C799 1.399 . S
C804 C803 1.394 . S
C804 C805 1.516 . S
C805 C804 1.516 . S
C805 C806 1.502 . S
C805 C807 1.561 . S
C805 C808 1.526 . S
C806 H790 0.959 . S
C806 H791 0.959 . S
C806 H792 0.961 . S
C806 C805 1.502 . S
C807 H793 0.960 . S
C807 H794 0.961 . S
C807 H795 0.959 . S
C807 C805 1.561 . S
C808 C805 1.526 . S
C808 C809 1.396 . S
C808 C813 1.390 . S
C809 C803 1.465 . S
C809 C808 1.396 . S
C809 C810 1.399 . S
C810 H796 0.929 . S
C810 C809 1.399 . S
C810 C811 1.385 . S
C811 H797 0.931 . S
C811 C810 1.385 . S
C811 C812 1.389 . S
C812 C811 1.389 . S
C812 C813 1.387 . S
C813 H798 0.930 . S
C813 C808 1.390 . S
C813 C812 1.387 . S
H814 C826 0.930 . S
H815 C828 0.930 . S
H816 C829 0.930 . S
H817 C833 0.959 . S
H818 C833 0.959 . S
H819 C833 0.961 . S
H820 C834 0.960 . S
H821 C834 0.961 . S
H822 C834 0.959 . S
H823 C837 0.929 . S
H824 C838 0.931 . S
H825 C840 0.930 . S
C826 H814 0.930 . S
C826 C827 1.399 . S
C826 C831 1.399 . S
C827 C826 1.399 . S
C827 C828 1.376 . S
C828 H815 0.930 . S
C828 C827 1.376 . S
C828 C829 1.388 . S
C829 H816 0.930 . S
C829 C828 1.388 . S
C829 C830 1.390 . S
C830 C829 1.390 . S
C830 C831 1.394 . S
C830 C836 1.465 . S
C831 C826 1.399 . S
C831 C830 1.394 . S
C831 C832 1.516 . S
C832 C831 1.516 . S
C832 C833 1.502 . S
C832 C834 1.561 . S
C832 C835 1.526 . S
C833 H817 0.959 . S
C833 H818 0.959 . S
C833 H819 0.961 . S
C833 C832 1.502 . S
C834 H820 0.960 . S
C834 H821 0.961 . S
C834 H822 0.959 . S
C834 C832 1.561 . S
C835 C832 1.526 . S
C835 C836 1.396 . S
C835 C840 1.390 . S
C836 C830 1.465 . S
C836 C835 1.396 . S
C836 C837 1.399 . S
C837 H823 0.929 . S
C837 C836 1.399 . S
C837 C838 1.385 . S
C838 H824 0.931 . S
C838 C837 1.385 . S
C838 C839 1.389 . S
C839 C838 1.389 . S
C839 C840 1.387 . S
C840 H825 0.930 . S
C840 C835 1.390 . S
C840 C839 1.387 . S
H841 C853 0.930 . S
H842 C855 0.930 . S
H843 C856 0.930 . S
H844 C860 0.959 . S
H845 C860 0.959 . S
H846 C860 0.961 . S
H847 C861 0.960 . S
H848 C861 0.961 . S
H849 C861 0.959 . S
H850 C864 0.929 . S
H851 C865 0.931 . S
H852 C867 0.930 . S
C853 H841 0.930 . S
C853 C854 1.399 . S
C853 C858 1.399 . S
C854 C853 1.399 . S
C854 C855 1.376 . S
C855 H842 0.930 . S
C855 C854 1.376 . S
C855 C856 1.388 . S
C856 H843 0.930 . S
C856 C855 1.388 . S
C856 C857 1.390 . S
C857 C856 1.390 . S
C857 C858 1.394 . S
C857 C863 1.465 . S
C858 C853 1.399 . S
C858 C857 1.394 . S
C858 C859 1.516 . S
C859 C858 1.516 . S
C859 C860 1.502 . S
C859 C861 1.561 . S
C859 C862 1.526 . S
C860 H844 0.959 . S
C860 H845 0.959 . S
C860 H846 0.961 . S
C860 C859 1.502 . S
C861 H847 0.960 . S
C861 H848 0.961 . S
C861 H849 0.959 . S
C861 C859 1.561 . S
C862 C859 1.526 . S
C862 C863 1.396 . S
C862 C867 1.390 . S
C863 C857 1.465 . S
C863 C862 1.396 . S
C863 C864 1.399 . S
C864 H850 0.929 . S
C864 C863 1.399 . S
C864 C865 1.385 . S
C865 H851 0.931 . S
C865 C864 1.385 . S
C865 C866 1.389 . S
C866 C865 1.389 . S
C866 C867 1.387 . S
C867 H852 0.930 . S
C867 C862 1.390 . S
C867 C866 1.387 . S
H868 C880 0.930 . S
H869 C882 0.930 . S
H870 C883 0.930 . S
H871 C887 0.959 . S
H872 C887 0.959 . S
H873 C887 0.961 . S
H874 C888 0.960 . S
H875 C888 0.961 . S
H876 C888 0.959 . S
H877 C891 0.929 . S
H878 C892 0.931 . S
H879 C894 0.930 . S
C880 H868 0.930 . S
C880 C881 1.399 . S
C880 C885 1.399 . S
C881 C880 1.399 . S
C881 C882 1.376 . S
C882 H869 0.930 . S
C882 C881 1.376 . S
C882 C883 1.388 . S
C883 H870 0.930 . S
C883 C882 1.388 . S
C883 C884 1.390 . S
C884 C883 1.390 . S
C884 C885 1.394 . S
C884 C890 1.465 . S
C885 C880 1.399 . S
C885 C884 1.394 . S
C885 C886 1.516 . S
C886 C885 1.516 . S
C886 C887 1.502 . S
C886 C888 1.561 . S
C886 C889 1.526 . S
C887 H871 0.959 . S
C887 H872 0.959 . S
C887 H873 0.961 . S
C887 C886 1.502 . S
C888 H874 0.960 . S
C888 H875 0.961 . S
C888 H876 0.959 . S
C888 C886 1.561 . S
C889 C886 1.526 . S
C889 C890 1.396 . S
C889 C894 1.390 . S
C890 C884 1.465 . S
C890 C889 1.396 . S
C890 C891 1.399 . S
C891 H877 0.929 . S
C891 C890 1.399 . S
C891 C892 1.385 . S
C892 H878 0.931 . S
C892 C891 1.385 . S
C892 C893 1.389 . S
C893 C892 1.389 . S
C893 C894 1.387 . S
C894 H879 0.930 . S
C894 C889 1.390 . S
C894 C893 1.387 . S
H895 C907 0.930 . S
H896 C909 0.930 . S
H897 C910 0.930 . S
H898 C914 0.959 . S
H899 C914 0.959 . S
H900 C914 0.961 . S
H901 C915 0.960 . S
H902 C915 0.961 . S
H903 C915 0.959 . S
H904 C918 0.929 . S
H905 C919 0.931 . S
H906 C921 0.930 . S
C907 H895 0.930 . S
C907 C908 1.399 . S
C907 C912 1.399 . S
C908 C907 1.399 . S
C908 C909 1.376 . S
C909 H896 0.930 . S
C909 C908 1.376 . S
C909 C910 1.388 . S
C910 H897 0.930 . S
C910 C909 1.388 . S
C910 C911 1.390 . S
C911 C910 1.390 . S
C911 C912 1.394 . S
C911 C917 1.465 . S
C912 C907 1.399 . S
C912 C911 1.394 . S
C912 C913 1.516 . S
C913 C912 1.516 . S
C913 C914 1.502 . S
C913 C915 1.561 . S
C913 C916 1.526 . S
C914 H898 0.959 . S
C914 H899 0.959 . S
C914 H900 0.961 . S
C914 C913 1.502 . S
C915 H901 0.960 . S
C915 H902 0.961 . S
C915 H903 0.959 . S
C915 C913 1.561 . S
C916 C913 1.526 . S
C916 C917 1.396 . S
C916 C921 1.390 . S
C917 C911 1.465 . S
C917 C916 1.396 . S
C917 C918 1.399 . S
C918 H904 0.929 . S
C918 C917 1.399 . S
C918 C919 1.385 . S
C919 H905 0.931 . S
C919 C918 1.385 . S
C919 C920 1.389 . S
C920 C919 1.389 . S
C920 C921 1.387 . S
C921 H906 0.930 . S
C921 C916 1.390 . S
C921 C920 1.387 . S
H922 C934 0.930 . S
H923 C936 0.930 . S
H924 C937 0.930 . S
H925 C941 0.959 . S
H926 C941 0.959 . S
H927 C941 0.961 . S
H928 C942 0.960 . S
H929 C942 0.961 . S
H930 C942 0.959 . S
H931 C945 0.929 . S
H932 C946 0.931 . S
H933 C948 0.930 . S
C934 H922 0.930 . S
C934 C935 1.399 . S
C934 C939 1.399 . S
C935 C934 1.399 . S
C935 C936 1.376 . S
C936 H923 0.930 . S
C936 C935 1.376 . S
C936 C937 1.388 . S
C937 H924 0.930 . S
C937 C936 1.388 . S
C937 C938 1.390 . S
C938 C937 1.390 . S
C938 C939 1.394 . S
C938 C944 1.465 . S
C939 C934 1.399 . S
C939 C938 1.394 . S
C939 C940 1.516 . S
C940 C939 1.516 . S
C940 C941 1.502 . S
C940 C942 1.561 . S
C940 C943 1.526 . S
C941 H925 0.959 . S
C941 H926 0.959 . S
C941 H927 0.961 . S
C941 C940 1.502 . S
C942 H928 0.960 . S
C942 H929 0.961 . S
C942 H930 0.959 . S
C942 C940 1.561 . S
C943 C940 1.526 . S
C943 C944 1.396 . S
C943 C948 1.390 . S
C944 C938 1.465 . S
C944 C943 1.396 . S
C944 C945 1.399 . S
C945 H931 0.929 . S
C945 C944 1.399 . S
C945 C946 1.385 . S
C946 H932 0.931 . S
C946 C945 1.385 . S
C946 C947 1.389 . S
C947 C946 1.389 . S
C947 C948 1.387 . S
C948 H933 0.930 . S
C948 C943 1.390 . S
C948 C947 1.387 . S
H949 C961 0.930 . S
H950 C963 0.930 . S
H951 C964 0.930 . S
H952 C968 0.959 . S
H953 C968 0.959 . S
H954 C968 0.961 . S
H955 C969 0.960 . S
H956 C969 0.961 . S
H957 C969 0.959 . S
H958 C972 0.929 . S
H959 C973 0.931 . S
H960 C975 0.930 . S
C961 H949 0.930 . S
C961 C962 1.399 . S
C961 C966 1.399 . S
C962 C961 1.399 . S
C962 C963 1.376 . S
C963 H950 0.930 . S
C963 C962 1.376 . S
C963 C964 1.388 . S
C964 H951 0.930 . S
C964 C963 1.388 . S
C964 C965 1.390 . S
C965 C964 1.390 . S
C965 C966 1.394 . S
C965 C971 1.465 . S
C966 C961 1.399 . S
C966 C965 1.394 . S
C966 C967 1.516 . S
C967 C966 1.516 . S
C967 C968 1.502 . S
C967 C969 1.561 . S
C967 C970 1.526 . S
C968 H952 0.959 . S
C968 H953 0.959 . S
C968 H954 0.961 . S
C968 C967 1.502 . S
C969 H955 0.960 . S
C969 H956 0.961 . S
C969 H957 0.959 . S
C969 C967 1.561 . S
C970 C967 1.526 . S
C970 C971 1.396 . S
C970 C975 1.390 . S
C971 C965 1.465 . S
C971 C970 1.396 . S
C971 C972 1.399 . S
C972 H958 0.929 . S
C972 C971 1.399 . S
C972 C973 1.385 . S
C973 H959 0.931 . S
C973 C972 1.385 . S
C973 C974 1.389 . S
C974 C973 1.389 . S
C974 C975 1.387 . S
C975 H960 0.930 . S
C975 C970 1.390 . S
C975 C974 1.387 . S
H976 C988 0.930 . S
H977 C990 0.930 . S
H978 C991 0.930 . S
H979 C995 0.959 . S
H980 C995 0.959 . S
H981 C995 0.961 . S
H982 C996 0.960 . S
H983 C996 0.961 . S
H984 C996 0.959 . S
H985 C999 0.929 . S
H986 C1000 0.931 . S
H987 C1002 0.930 . S
C988 H976 0.930 . S
C988 C989 1.399 . S
C988 C993 1.399 . S
C989 C988 1.399 . S
C989 C990 1.376 . S
C990 H977 0.930 . S
C990 C989 1.376 . S
C990 C991 1.388 . S
C991 H978 0.930 . S
C991 C990 1.388 . S
C991 C992 1.390 . S
C992 C991 1.390 . S
C992 C993 1.394 . S
C992 C998 1.465 . S
C993 C988 1.399 . S
C993 C992 1.394 . S
C993 C994 1.516 . S
C994 C993 1.516 . S
C994 C995 1.502 . S
C994 C996 1.561 . S
C994 C997 1.526 . S
C995 H979 0.959 . S
C995 H980 0.959 . S
C995 H981 0.961 . S
C995 C994 1.502 . S
C996 H982 0.960 . S
C996 H983 0.961 . S
C996 H984 0.959 . S
C996 C994 1.561 . S
C997 C994 1.526 . S
C997 C998 1.396 . S
C997 C1002 1.390 . S
C998 C992 1.465 . S
C998 C997 1.396 . S
C998 C999 1.399 . S
C999 H985 0.929 . S
C999 C998 1.399 . S
C999 C1000 1.385 . S
C1000 H986 0.931 . S
C1000 C999 1.385 . S
C1000 C1001 1.389 . S
C1001 C1000 1.389 . S
C1001 C1002 1.387 . S
C1002 H987 0.930 . S
C1002 C997 1.390 . S
C1002 C1001 1.387 . S
H1003 C1015 0.930 . S
H1004 C1017 0.930 . S
H1005 C1018 0.930 . S
H1006 C1022 0.959 . S
H1007 C1022 0.959 . S
H1008 C1022 0.961 . S
H1009 C1023 0.960 . S
H1010 C1023 0.961 . S
H1011 C1023 0.959 . S
H1012 C1026 0.929 . S
H1013 C1027 0.931 . S
H1014 C1029 0.930 . S
C1015 H1003 0.930 . S
C1015 C1016 1.399 . S
C1015 C1020 1.399 . S
C1016 C1015 1.399 . S
C1016 C1017 1.376 . S
C1017 H1004 0.930 . S
C1017 C1016 1.376 . S
C1017 C1018 1.388 . S
C1018 H1005 0.930 . S
C1018 C1017 1.388 . S
C1018 C1019 1.390 . S
C1019 C1018 1.390 . S
C1019 C1020 1.394 . S
C1019 C1025 1.465 . S
C1020 C1015 1.399 . S
C1020 C1019 1.394 . S
C1020 C1021 1.516 . S
C1021 C1020 1.516 . S
C1021 C1022 1.502 . S
C1021 C1023 1.561 . S
C1021 C1024 1.526 . S
C1022 H1006 0.959 . S
C1022 H1007 0.959 . S
C1022 H1008 0.961 . S
C1022 C1021 1.502 . S
C1023 H1009 0.960 . S
C1023 H1010 0.961 . S
C1023 H1011 0.959 . S
C1023 C1021 1.561 . S
C1024 C1021 1.526 . S
C1024 C1025 1.396 . S
C1024 C1029 1.390 . S
C1025 C1019 1.465 . S
C1025 C1024 1.396 . S
C1025 C1026 1.399 . S
C1026 H1012 0.929 . S
C1026 C1025 1.399 . S
C1026 C1027 1.385 . S
C1027 H1013 0.931 . S
C1027 C1026 1.385 . S
C1027 C1028 1.389 . S
C1028 C1027 1.389 . S
C1028 C1029 1.387 . S
C1029 H1014 0.930 . S
C1029 C1024 1.390 . S
C1029 C1028 1.387 . S
H1030 C1042 0.930 . S
H1031 C1044 0.930 . S
H1032 C1045 0.930 . S
H1033 C1049 0.959 . S
H1034 C1049 0.959 . S
H1035 C1049 0.961 . S
H1036 C1050 0.960 . S
H1037 C1050 0.961 . S
H1038 C1050 0.959 . S
H1039 C1053 0.929 . S
H1040 C1054 0.931 . S
H1041 C1056 0.930 . S
C1042 H1030 0.930 . S
C1042 C1043 1.399 . S
C1042 C1047 1.399 . S
C1043 C1042 1.399 . S
C1043 C1044 1.376 . S
C1044 H1031 0.930 . S
C1044 C1043 1.376 . S
C1044 C1045 1.388 . S
C1045 H1032 0.930 . S
C1045 C1044 1.388 . S
C1045 C1046 1.390 . S
C1046 C1045 1.390 . S
C1046 C1047 1.394 . S
C1046 C1052 1.465 . S
C1047 C1042 1.399 . S
C1047 C1046 1.394 . S
C1047 C1048 1.516 . S
C1048 C1047 1.516 . S
C1048 C1049 1.502 . S
C1048 C1050 1.561 . S
C1048 C1051 1.526 . S
C1049 H1033 0.959 . S
C1049 H1034 0.959 . S
C1049 H1035 0.961 . S
C1049 C1048 1.502 . S
C1050 H1036 0.960 . S
C1050 H1037 0.961 . S
C1050 H1038 0.959 . S
C1050 C1048 1.561 . S
C1051 C1048 1.526 . S
C1051 C1052 1.396 . S
C1051 C1056 1.390 . S
C1052 C1046 1.465 . S
C1052 C1051 1.396 . S
C1052 C1053 1.399 . S
C1053 H1039 0.929 . S
C1053 C1052 1.399 . S
C1053 C1054 1.385 . S
C1054 H1040 0.931 . S
C1054 C1053 1.385 . S
C1054 C1055 1.389 . S
C1055 C1054 1.389 . S
C1055 C1056 1.387 . S
C1056 H1041 0.930 . S
C1056 C1051 1.390 . S
C1056 C1055 1.387 . S
H1057 C1069 0.930 . S
H1058 C1071 0.930 . S
H1059 C1072 0.930 . S
H1060 C1076 0.959 . S
H1061 C1076 0.959 . S
H1062 C1076 0.961 . S
H1063 C1077 0.960 . S
H1064 C1077 0.961 . S
H1065 C1077 0.959 . S
H1066 C1080 0.929 . S
H1067 C1081 0.931 . S
H1068 C1083 0.930 . S
C1069 H1057 0.930 . S
C1069 C1070 1.399 . S
C1069 C1074 1.399 . S
C1070 C1069 1.399 . S
C1070 C1071 1.376 . S
C1071 H1058 0.930 . S
C1071 C1070 1.376 . S
C1071 C1072 1.388 . S
C1072 H1059 0.930 . S
C1072 C1071 1.388 . S
C1072 C1073 1.390 . S
C1073 C1072 1.390 . S
C1073 C1074 1.394 . S
C1073 C1079 1.465 . S
C1074 C1069 1.399 . S
C1074 C1073 1.394 . S
C1074 C1075 1.516 . S
C1075 C1074 1.516 . S
C1075 C1076 1.502 . S
C1075 C1077 1.561 . S
C1075 C1078 1.526 . S
C1076 H1060 0.959 . S
C1076 H1061 0.959 . S
C1076 H1062 0.961 . S
C1076 C1075 1.502 . S
C1077 H1063 0.960 . S
C1077 H1064 0.961 . S
C1077 H1065 0.959 . S
C1077 C1075 1.561 . S
C1078 C1075 1.526 . S
C1078 C1079 1.396 . S
C1078 C1083 1.390 . S
C1079 C1073 1.465 . S
C1079 C1078 1.396 . S
C1079 C1080 1.399 . S
C1080 H1066 0.929 . S
C1080 C1079 1.399 . S
C1080 C1081 1.385 . S
C1081 H1067 0.931 . S
C1081 C1080 1.385 . S
C1081 C1082 1.389 . S
C1082 C1081 1.389 . S
C1082 C1083 1.387 . S
C1083 H1068 0.930 . S
C1083 C1078 1.390 . S
C1083 C1082 1.387 . S
H1084 C1096 0.930 . S
H1085 C1098 0.930 . S
H1086 C1099 0.930 1_554 S
H1087 C1103 0.959 . S
H1088 C1103 0.959 . S
H1089 C1103 0.961 . S
H1090 C1104 0.960 . S
H1091 C1104 0.961 . S
H1092 C1104 0.959 . S
H1093 C1107 0.929 . S
H1094 C1108 0.931 . S
H1095 C1110 0.930 . S
C1096 H1084 0.930 . S
C1096 C1097 1.399 . S
C1096 C1101 1.399 . S
C1097 C1096 1.399 . S
C1097 C1098 1.376 . S
C1098 H1085 0.930 . S
C1098 C1097 1.376 . S
C1098 C1099 1.388 . S
C1099 H1086 0.930 1_556 S
C1099 C1098 1.388 . S
C1099 C1100 1.390 . S
C1100 C1099 1.390 . S
C1100 C1101 1.394 . S
C1100 C1106 1.465 1_556 S
C1101 C1096 1.399 . S
C1101 C1100 1.394 . S
C1101 C1102 1.516 . S
C1102 C1101 1.516 . S
C1102 C1103 1.502 . S
C1102 C1104 1.561 . S
C1102 C1105 1.526 1_556 S
C1103 H1087 0.959 . S
C1103 H1088 0.959 . S
C1103 H1089 0.961 . S
C1103 C1102 1.502 . S
C1104 H1090 0.960 . S
C1104 H1091 0.961 . S
C1104 H1092 0.959 . S
C1104 C1102 1.561 . S
C1105 C1102 1.526 1_554 S
C1105 C1106 1.396 . S
C1105 C1110 1.390 . S
C1106 C1100 1.465 1_554 S
C1106 C1105 1.396 . S
C1106 C1107 1.399 . S
C1107 H1093 0.929 . S
C1107 C1106 1.399 . S
C1107 C1108 1.385 . S
C1108 H1094 0.931 . S
C1108 C1107 1.385 . S
C1108 C1109 1.389 . S
C1109 C1108 1.389 . S
C1109 C1110 1.387 . S
C1110 H1095 0.930 . S
C1110 C1105 1.390 . S
C1110 C1109 1.387 . S
H1111 C1123 0.930 . S
H1112 C1125 0.930 . S
H1113 C1126 0.930 1_554 S
H1114 C1130 0.959 . S
H1115 C1130 0.959 . S
H1116 C1130 0.961 . S
H1117 C1131 0.960 . S
H1118 C1131 0.961 . S
H1119 C1131 0.959 . S
H1120 C1134 0.929 . S
H1121 C1135 0.931 . S
H1122 C1137 0.930 . S
C1123 H1111 0.930 . S
C1123 C1124 1.399 . S
C1123 C1128 1.399 . S
C1124 C1123 1.399 . S
C1124 C1125 1.376 . S
C1125 H1112 0.930 . S
C1125 C1124 1.376 . S
C1125 C1126 1.388 . S
C1126 H1113 0.930 1_556 S
C1126 C1125 1.388 . S
C1126 C1127 1.390 . S
C1127 C1126 1.390 . S
C1127 C1128 1.394 . S
C1127 C1133 1.465 1_556 S
C1128 C1123 1.399 . S
C1128 C1127 1.394 . S
C1128 C1129 1.516 . S
C1129 C1128 1.516 . S
C1129 C1130 1.502 . S
C1129 C1131 1.561 . S
C1129 C1132 1.526 1_556 S
C1130 H1114 0.959 . S
C1130 H1115 0.959 . S
C1130 H1116 0.961 . S
C1130 C1129 1.502 . S
C1131 H1117 0.960 . S
C1131 H1118 0.961 . S
C1131 H1119 0.959 . S
C1131 C1129 1.561 . S
C1132 C1129 1.526 1_554 S
C1132 C1133 1.396 . S
C1132 C1137 1.390 . S
C1133 C1127 1.465 1_554 S
C1133 C1132 1.396 . S
C1133 C1134 1.399 . S
C1134 H1120 0.929 . S
C1134 C1133 1.399 . S
C1134 C1135 1.385 . S
C1135 H1121 0.931 . S
C1135 C1134 1.385 . S
C1135 C1136 1.389 . S
C1136 C1135 1.389 . S
C1136 C1137 1.387 . S
C1137 H1122 0.930 . S
C1137 C1132 1.390 . S
C1137 C1136 1.387 . S
H1138 C1150 0.930 . S
H1139 C1152 0.930 . S
H1140 C1153 0.930 . S
H1141 C1157 0.959 . S
H1142 C1157 0.959 . S
H1143 C1157 0.961 . S
H1144 C1158 0.960 . S
H1145 C1158 0.961 1_554 S
H1146 C1158 0.959 . S
H1147 C1161 0.929 . S
H1148 C1162 0.931 . S
H1149 C1164 0.930 . S
C1150 H1138 0.930 . S
C1150 C1151 1.399 . S
C1150 C1155 1.399 . S
C1151 C1150 1.399 . S
C1151 C1152 1.376 . S
C1152 H1139 0.930 . S
C1152 C1151 1.376 . S
C1152 C1153 1.388 . S
C1153 H1140 0.930 . S
C1153 C1152 1.388 . S
C1153 C1154 1.390 . S
C1154 C1153 1.390 . S
C1154 C1155 1.394 . S
C1154 C1160 1.465 1_556 S
C1155 C1150 1.399 . S
C1155 C1154 1.394 . S
C1155 C1156 1.516 1_556 S
C1156 C1155 1.516 1_554 S
C1156 C1157 1.502 . S
C1156 C1158 1.561 1_554 S
C1156 C1159 1.526 . S
C1157 H1141 0.959 . S
C1157 H1142 0.959 . S
C1157 H1143 0.961 . S
C1157 C1156 1.502 . S
C1158 H1144 0.960 . S
C1158 H1145 0.961 1_556 S
C1158 H1146 0.959 . S
C1158 C1156 1.561 1_556 S
C1159 C1156 1.526 . S
C1159 C1160 1.396 . S
C1159 C1164 1.390 . S
C1160 C1154 1.465 1_554 S
C1160 C1159 1.396 . S
C1160 C1161 1.399 . S
C1161 H1147 0.929 . S
C1161 C1160 1.399 . S
C1161 C1162 1.385 . S
C1162 H1148 0.931 . S
C1162 C1161 1.385 . S
C1162 C1163 1.389 . S
C1163 C1162 1.389 . S
C1163 C1164 1.387 . S
C1164 H1149 0.930 . S
C1164 C1159 1.390 . S
C1164 C1163 1.387 . S
H1165 C1177 0.930 . S
H1166 C1179 0.930 . S
H1167 C1180 0.930 . S
H1168 C1184 0.959 . S
H1169 C1184 0.959 . S
H1170 C1184 0.961 . S
H1171 C1185 0.960 . S
H1172 C1185 0.961 . S
H1173 C1185 0.959 . S
H1174 C1188 0.929 1_556 S
H1175 C1189 0.931 . S
H1176 C1191 0.930 . S
C1177 H1165 0.930 . S
C1177 C1178 1.399 . S
C1177 C1182 1.399 . S
C1178 C1177 1.399 . S
C1178 C1179 1.376 . S
C1179 H1166 0.930 . S
C1179 C1178 1.376 . S
C1179 C1180 1.388 . S
C1180 H1167 0.930 . S
C1180 C1179 1.388 . S
C1180 C1181 1.390 . S
C1181 C1180 1.390 . S
C1181 C1182 1.394 . S
C1181 C1187 1.465 1_556 S
C1182 C1177 1.399 . S
C1182 C1181 1.394 . S
C1182 C1183 1.516 1_556 S
C1183 C1182 1.516 1_554 S
C1183 C1184 1.502 . S
C1183 C1185 1.561 . S
C1183 C1186 1.526 . S
C1184 H1168 0.959 . S
C1184 H1169 0.959 . S
C1184 H1170 0.961 . S
C1184 C1183 1.502 . S
C1185 H1171 0.960 . S
C1185 H1172 0.961 . S
C1185 H1173 0.959 . S
C1185 C1183 1.561 . S
C1186 C1183 1.526 . S
C1186 C1187 1.396 . S
C1186 C1191 1.390 . S
C1187 C1181 1.465 1_554 S
C1187 C1186 1.396 . S
C1187 C1188 1.399 . S
C1188 H1174 0.929 1_554 S
C1188 C1187 1.399 . S
C1188 C1189 1.385 . S
C1189 H1175 0.931 . S
C1189 C1188 1.385 . S
C1189 C1190 1.389 . S
C1190 C1189 1.389 . S
C1190 C1191 1.387 . S
C1191 H1176 0.930 . S
C1191 C1186 1.390 . S
C1191 C1190 1.387 . S
H1192 C1204 0.930 . S
H1193 C1206 0.930 . S
H1194 C1207 0.930 . S
H1195 C1211 0.959 . S
H1196 C1211 0.959 . S
H1197 C1211 0.961 . S
H1198 C1212 0.960 . S
H1199 C1212 0.961 . S
H1200 C1212 0.959 . S
H1201 C1215 0.929 . S
H1202 C1216 0.931 . S
H1203 C1218 0.930 . S
C1204 H1192 0.930 . S
C1204 C1205 1.399 . S
C1204 C1209 1.399 . S
C1205 C1204 1.399 . S
C1205 C1206 1.376 . S
C1206 H1193 0.930 . S
C1206 C1205 1.376 . S
C1206 C1207 1.388 . S
C1207 H1194 0.930 . S
C1207 C1206 1.388 . S
C1207 C1208 1.390 . S
C1208 C1207 1.390 . S
C1208 C1209 1.394 . S
C1208 C1214 1.465 . S
C1209 C1204 1.399 . S
C1209 C1208 1.394 . S
C1209 C1210 1.516 . S
C1210 C1209 1.516 . S
C1210 C1211 1.502 . S
C1210 C1212 1.561 . S
C1210 C1213 1.526 . S
C1211 H1195 0.959 . S
C1211 H1196 0.959 . S
C1211 H1197 0.961 . S
C1211 C1210 1.502 . S
C1212 H1198 0.960 . S
C1212 H1199 0.961 . S
C1212 H1200 0.959 . S
C1212 C1210 1.561 . S
C1213 C1210 1.526 . S
C1213 C1214 1.396 . S
C1213 C1218 1.390 . S
C1214 C1208 1.465 . S
C1214 C1213 1.396 . S
C1214 C1215 1.399 . S
C1215 H1201 0.929 . S
C1215 C1214 1.399 . S
C1215 C1216 1.385 . S
C1216 H1202 0.931 . S
C1216 C1215 1.385 . S
C1216 C1217 1.389 . S
C1217 C1216 1.389 . S
C1217 C1218 1.387 . S
C1218 H1203 0.930 . S
C1218 C1213 1.390 . S
C1218 C1217 1.387 . S
H1219 C1231 0.930 . S
H1220 C1233 0.930 . S
H1221 C1234 0.930 . S
H1222 C1238 0.959 . S
H1223 C1238 0.959 . S
H1224 C1238 0.961 . S
H1225 C1239 0.960 . S
H1226 C1239 0.961 . S
H1227 C1239 0.959 . S
H1228 C1242 0.929 . S
H1229 C1243 0.931 . S
H1230 C1245 0.930 . S
C1231 H1219 0.930 . S
C1231 C1232 1.399 . S
C1231 C1236 1.399 . S
C1232 C1231 1.399 . S
C1232 C1233 1.376 . S
C1233 H1220 0.930 . S
C1233 C1232 1.376 . S
C1233 C1234 1.388 . S
C1234 H1221 0.930 . S
C1234 C1233 1.388 . S
C1234 C1235 1.390 . S
C1235 C1234 1.390 . S
C1235 C1236 1.394 . S
C1235 C1241 1.465 . S
C1236 C1231 1.399 . S
C1236 C1235 1.394 . S
C1236 C1237 1.516 . S
C1237 C1236 1.516 . S
C1237 C1238 1.502 . S
C1237 C1239 1.561 . S
C1237 C1240 1.526 . S
C1238 H1222 0.959 . S
C1238 H1223 0.959 . S
C1238 H1224 0.961 . S
C1238 C1237 1.502 . S
C1239 H1225 0.960 . S
C1239 H1226 0.961 . S
C1239 H1227 0.959 . S
C1239 C1237 1.561 . S
C1240 C1237 1.526 . S
C1240 C1241 1.396 . S
C1240 C1245 1.390 . S
C1241 C1235 1.465 . S
C1241 C1240 1.396 . S
C1241 C1242 1.399 . S
C1242 H1228 0.929 . S
C1242 C1241 1.399 . S
C1242 C1243 1.385 . S
C1243 H1229 0.931 . S
C1243 C1242 1.385 . S
C1243 C1244 1.389 . S
C1244 C1243 1.389 . S
C1244 C1245 1.387 . S
C1245 H1230 0.930 . S
C1245 C1240 1.390 . S
C1245 C1244 1.387 . S
H1246 C1258 0.930 . S
H1247 C1260 0.930 . S
H1248 C1261 0.930 . S
H1249 C1265 0.959 . S
H1250 C1265 0.959 . S
H1251 C1265 0.961 . S
H1252 C1266 0.960 . S
H1253 C1266 0.961 . S
H1254 C1266 0.959 . S
H1255 C1269 0.929 . S
H1256 C1270 0.931 . S
H1257 C1272 0.930 . S
C1258 H1246 0.930 . S
C1258 C1259 1.399 . S
C1258 C1263 1.399 . S
C1259 C1258 1.399 . S
C1259 C1260 1.376 . S
C1260 H1247 0.930 . S
C1260 C1259 1.376 . S
C1260 C1261 1.388 . S
C1261 H1248 0.930 . S
C1261 C1260 1.388 . S
C1261 C1262 1.390 . S
C1262 C1261 1.390 . S
C1262 C1263 1.394 . S
C1262 C1268 1.465 . S
C1263 C1258 1.399 . S
C1263 C1262 1.394 . S
C1263 C1264 1.516 . S
C1264 C1263 1.516 . S
C1264 C1265 1.502 . S
C1264 C1266 1.561 . S
C1264 C1267 1.526 . S
C1265 H1249 0.959 . S
C1265 H1250 0.959 . S
C1265 H1251 0.961 . S
C1265 C1264 1.502 . S
C1266 H1252 0.960 . S
C1266 H1253 0.961 . S
C1266 H1254 0.959 . S
C1266 C1264 1.561 . S
C1267 C1264 1.526 . S
C1267 C1268 1.396 . S
C1267 C1272 1.390 . S
C1268 C1262 1.465 . S
C1268 C1267 1.396 . S
C1268 C1269 1.399 . S
C1269 H1255 0.929 . S
C1269 C1268 1.399 . S
C1269 C1270 1.385 . S
C1270 H1256 0.931 . S
C1270 C1269 1.385 . S
C1270 C1271 1.389 . S
C1271 C1270 1.389 . S
C1271 C1272 1.387 . S
C1272 H1257 0.930 . S
C1272 C1267 1.390 . S
C1272 C1271 1.387 . S
H1273 C1285 0.930 . S
H1274 C1287 0.930 . S
H1275 C1288 0.930 . S
H1276 C1292 0.959 . S
H1277 C1292 0.959 . S
H1278 C1292 0.961 . S
H1279 C1293 0.960 . S
H1280 C1293 0.961 . S
H1281 C1293 0.959 . S
H1282 C1296 0.929 . S
H1283 C1297 0.931 . S
H1284 C1299 0.930 . S
C1285 H1273 0.930 . S
C1285 C1286 1.399 . S
C1285 C1290 1.399 . S
C1286 C1285 1.399 . S
C1286 C1287 1.376 . S
C1287 H1274 0.930 . S
C1287 C1286 1.376 . S
C1287 C1288 1.388 . S
C1288 H1275 0.930 . S
C1288 C1287 1.388 . S
C1288 C1289 1.390 . S
C1289 C1288 1.390 . S
C1289 C1290 1.394 . S
C1289 C1295 1.465 . S
C1290 C1285 1.399 . S
C1290 C1289 1.394 . S
C1290 C1291 1.516 . S
C1291 C1290 1.516 . S
C1291 C1292 1.502 . S
C1291 C1293 1.561 . S
C1291 C1294 1.526 . S
C1292 H1276 0.959 . S
C1292 H1277 0.959 . S
C1292 H1278 0.961 . S
C1292 C1291 1.502 . S
C1293 H1279 0.960 . S
C1293 H1280 0.961 . S
C1293 H1281 0.959 . S
C1293 C1291 1.561 . S
C1294 C1291 1.526 . S
C1294 C1295 1.396 . S
C1294 C1299 1.390 . S
C1295 C1289 1.465 . S
C1295 C1294 1.396 . S
C1295 C1296 1.399 . S
C1296 H1282 0.929 . S
C1296 C1295 1.399 . S
C1296 C1297 1.385 . S
C1297 H1283 0.931 . S
C1297 C1296 1.385 . S
C1297 C1298 1.389 . S
C1298 C1297 1.389 . S
C1298 C1299 1.387 . S
C1299 H1284 0.930 . S
C1299 C1294 1.390 . S
C1299 C1298 1.387 . S
H1300 C1312 0.930 . S
H1301 C1314 0.930 . S
H1302 C1315 0.930 . S
H1303 C1319 0.959 . S
H1304 C1319 0.959 . S
H1305 C1319 0.961 . S
H1306 C1320 0.960 . S
H1307 C1320 0.961 . S
H1308 C1320 0.959 . S
H1309 C1323 0.929 . S
H1310 C1324 0.931 . S
H1311 C1326 0.930 . S
C1312 H1300 0.930 . S
C1312 C1313 1.399 . S
C1312 C1317 1.399 . S
C1313 C1312 1.399 . S
C1313 C1314 1.376 . S
C1314 H1301 0.930 . S
C1314 C1313 1.376 . S
C1314 C1315 1.388 . S
C1315 H1302 0.930 . S
C1315 C1314 1.388 . S
C1315 C1316 1.390 . S
C1316 C1315 1.390 . S
C1316 C1317 1.394 . S
C1316 C1322 1.465 . S
C1317 C1312 1.399 . S
C1317 C1316 1.394 . S
C1317 C1318 1.516 . S
C1318 C1317 1.516 . S
C1318 C1319 1.502 . S
C1318 C1320 1.561 . S
C1318 C1321 1.526 . S
C1319 H1303 0.959 . S
C1319 H1304 0.959 . S
C1319 H1305 0.961 . S
C1319 C1318 1.502 . S
C1320 H1306 0.960 . S
C1320 H1307 0.961 . S
C1320 H1308 0.959 . S
C1320 C1318 1.561 . S
C1321 C1318 1.526 . S
C1321 C1322 1.396 . S
C1321 C1326 1.390 . S
C1322 C1316 1.465 . S
C1322 C1321 1.396 . S
C1322 C1323 1.399 . S
C1323 H1309 0.929 . S
C1323 C1322 1.399 . S
C1323 C1324 1.385 . S
C1324 H1310 0.931 . S
C1324 C1323 1.385 . S
C1324 C1325 1.389 . S
C1325 C1324 1.389 . S
C1325 C1326 1.387 . S
C1326 H1311 0.930 . S
C1326 C1321 1.390 . S
C1326 C1325 1.387 . S
H1327 C1339 0.930 . S
H1328 C1341 0.930 . S
H1329 C1342 0.930 . S
H1330 C1346 0.959 . S
H1331 C1346 0.959 . S
H1332 C1346 0.961 . S
H1333 C1347 0.960 . S
H1334 C1347 0.961 . S
H1335 C1347 0.959 . S
H1336 C1350 0.929 . S
H1337 C1351 0.931 . S
H1338 C1353 0.930 . S
C1339 H1327 0.930 . S
C1339 C1340 1.399 . S
C1339 C1344 1.399 . S
C1340 C1339 1.399 . S
C1340 C1341 1.376 . S
C1341 H1328 0.930 . S
C1341 C1340 1.376 . S
C1341 C1342 1.388 . S
C1342 H1329 0.930 . S
C1342 C1341 1.388 . S
C1342 C1343 1.390 . S
C1343 C1342 1.390 . S
C1343 C1344 1.394 . S
C1343 C1349 1.465 . S
C1344 C1339 1.399 . S
C1344 C1343 1.394 . S
C1344 C1345 1.516 . S
C1345 C1344 1.516 . S
C1345 C1346 1.502 . S
C1345 C1347 1.561 . S
C1345 C1348 1.526 . S
C1346 H1330 0.959 . S
C1346 H1331 0.959 . S
C1346 H1332 0.961 . S
C1346 C1345 1.502 . S
C1347 H1333 0.960 . S
C1347 H1334 0.961 . S
C1347 H1335 0.959 . S
C1347 C1345 1.561 . S
C1348 C1345 1.526 . S
C1348 C1349 1.396 . S
C1348 C1353 1.390 . S
C1349 C1343 1.465 . S
C1349 C1348 1.396 . S
C1349 C1350 1.399 . S
C1350 H1336 0.929 . S
C1350 C1349 1.399 . S
C1350 C1351 1.385 . S
C1351 H1337 0.931 . S
C1351 C1350 1.385 . S
C1351 C1352 1.389 . S
C1352 C1351 1.389 . S
C1352 C1353 1.387 . S
C1353 H1338 0.930 . S
C1353 C1348 1.390 . S
C1353 C1352 1.387 . S
H1354 C1366 0.930 . S
H1355 C1368 0.930 . S
H1356 C1369 0.930 . S
H1357 C1373 0.959 . S
H1358 C1373 0.959 . S
H1359 C1373 0.961 . S
H1360 C1374 0.960 . S
H1361 C1374 0.961 . S
H1362 C1374 0.959 . S
H1363 C1377 0.929 . S
H1364 C1378 0.931 . S
H1365 C1380 0.930 . S
C1366 H1354 0.930 . S
C1366 C1367 1.399 . S
C1366 C1371 1.399 . S
C1367 C1366 1.399 . S
C1367 C1368 1.376 . S
C1368 H1355 0.930 . S
C1368 C1367 1.376 . S
C1368 C1369 1.388 . S
C1369 H1356 0.930 . S
C1369 C1368 1.388 . S
C1369 C1370 1.390 . S
C1370 C1369 1.390 . S
C1370 C1371 1.394 . S
C1370 C1376 1.465 . S
C1371 C1366 1.399 . S
C1371 C1370 1.394 . S
C1371 C1372 1.516 . S
C1372 C1371 1.516 . S
C1372 C1373 1.502 . S
C1372 C1374 1.561 . S
C1372 C1375 1.526 . S
C1373 H1357 0.959 . S
C1373 H1358 0.959 . S
C1373 H1359 0.961 . S
C1373 C1372 1.502 . S
C1374 H1360 0.960 . S
C1374 H1361 0.961 . S
C1374 H1362 0.959 . S
C1374 C1372 1.561 . S
C1375 C1372 1.526 . S
C1375 C1376 1.396 . S
C1375 C1380 1.390 . S
C1376 C1370 1.465 . S
C1376 C1375 1.396 . S
C1376 C1377 1.399 . S
C1377 H1363 0.929 . S
C1377 C1376 1.399 . S
C1377 C1378 1.385 . S
C1378 H1364 0.931 . S
C1378 C1377 1.385 . S
C1378 C1379 1.389 . S
C1379 C1378 1.389 . S
C1379 C1380 1.387 . S
C1380 H1365 0.930 . S
C1380 C1375 1.390 . S
C1380 C1379 1.387 . S
H1381 C1393 0.930 . S
H1382 C1395 0.930 . S
H1383 C1396 0.930 . S
H1384 C1400 0.959 . S
H1385 C1400 0.959 . S
H1386 C1400 0.961 . S
H1387 C1401 0.960 . S
H1388 C1401 0.961 . S
H1389 C1401 0.959 . S
H1390 C1404 0.929 . S
H1391 C1405 0.931 . S
H1392 C1407 0.930 . S
C1393 H1381 0.930 . S
C1393 C1394 1.399 . S
C1393 C1398 1.399 . S
C1394 C1393 1.399 . S
C1394 C1395 1.376 . S
C1395 H1382 0.930 . S
C1395 C1394 1.376 . S
C1395 C1396 1.388 . S
C1396 H1383 0.930 . S
C1396 C1395 1.388 . S
C1396 C1397 1.390 . S
C1397 C1396 1.390 . S
C1397 C1398 1.394 . S
C1397 C1403 1.465 . S
C1398 C1393 1.399 . S
C1398 C1397 1.394 . S
C1398 C1399 1.516 . S
C1399 C1398 1.516 . S
C1399 C1400 1.502 . S
C1399 C1401 1.561 . S
C1399 C1402 1.526 . S
C1400 H1384 0.959 . S
C1400 H1385 0.959 . S
C1400 H1386 0.961 . S
C1400 C1399 1.502 . S
C1401 H1387 0.960 . S
C1401 H1388 0.961 . S
C1401 H1389 0.959 . S
C1401 C1399 1.561 . S
C1402 C1399 1.526 . S
C1402 C1403 1.396 . S
C1402 C1407 1.390 . S
C1403 C1397 1.465 . S
C1403 C1402 1.396 . S
C1403 C1404 1.399 . S
C1404 H1390 0.929 . S
C1404 C1403 1.399 . S
C1404 C1405 1.385 . S
C1405 H1391 0.931 . S
C1405 C1404 1.385 . S
C1405 C1406 1.389 . S
C1406 C1405 1.389 . S
C1406 C1407 1.387 . S
C1407 H1392 0.930 . S
C1407 C1402 1.390 . S
C1407 C1406 1.387 . S
H1408 C1420 0.930 . S
H1409 C1422 0.930 1_565 S
H1410 C1423 0.930 . S
H1411 C1427 0.959 . S
H1412 C1427 0.959 . S
H1413 C1427 0.961 . S
H1414 C1428 0.960 . S
H1415 C1428 0.961 . S
H1416 C1428 0.959 . S
H1417 C1431 0.929 . S
H1418 C1432 0.931 . S
H1419 C1434 0.930 1_545 S
C1420 H1408 0.930 . S
C1420 C1421 1.399 . S
C1420 C1425 1.399 . S
C1421 C1420 1.399 . S
C1421 C1422 1.376 . S
C1422 H1409 0.930 1_545 S
C1422 C1421 1.376 . S
C1422 C1423 1.388 1_545 S
C1423 H1410 0.930 . S
C1423 C1422 1.388 1_565 S
C1423 C1424 1.390 . S
C1424 C1423 1.390 . S
C1424 C1425 1.394 1_565 S
C1424 C1430 1.465 . S
C1425 C1420 1.399 . S
C1425 C1424 1.394 1_545 S
C1425 C1426 1.516 . S
C1426 C1425 1.516 . S
C1426 C1427 1.502 . S
C1426 C1428 1.561 . S
C1426 C1429 1.526 . S
C1427 H1411 0.959 . S
C1427 H1412 0.959 . S
C1427 H1413 0.961 . S
C1427 C1426 1.502 . S
C1428 H1414 0.960 . S
C1428 H1415 0.961 . S
C1428 H1416 0.959 . S
C1428 C1426 1.561 . S
C1429 C1426 1.526 . S
C1429 C1430 1.396 1_545 S
C1429 C1434 1.389 1_545 S
C1430 C1424 1.465 . S
C1430 C1429 1.396 1_565 S
C1430 C1431 1.399 . S
C1431 H1417 0.929 . S
C1431 C1430 1.399 . S
C1431 C1432 1.385 . S
C1432 H1418 0.931 . S
C1432 C1431 1.385 . S
C1432 C1433 1.389 . S
C1433 C1432 1.389 . S
C1433 C1434 1.387 . S
C1434 H1419 0.930 1_565 S
C1434 C1429 1.389 1_565 S
C1434 C1433 1.387 . S
H1435 C1447 0.930 . S
H1436 C1449 0.930 . S
H1437 C1450 0.930 . S
H1438 C1454 0.959 . S
H1439 C1454 0.959 . S
H1440 C1454 0.961 . S
H1441 C1455 0.960 . S
H1442 C1455 0.961 1_455 S
H1443 C1455 0.959 . S
H1444 C1458 0.929 . S
H1445 C1459 0.931 . S
H1446 C1461 0.930 . S
C1447 H1435 0.930 . S
C1447 C1448 1.399 . S
C1447 C1452 1.399 . S
C1448 C1447 1.399 . S
C1448 C1449 1.376 . S
C1449 H1436 0.930 . S
C1449 C1448 1.376 . S
C1449 C1450 1.388 . S
C1450 H1437 0.930 . S
C1450 C1449 1.388 . S
C1450 C1451 1.390 . S
C1451 C1450 1.390 . S
C1451 C1452 1.394 . S
C1451 C1457 1.465 . S
C1452 C1447 1.399 . S
C1452 C1451 1.394 . S
C1452 C1453 1.516 1_655 S
C1453 C1452 1.516 1_455 S
C1453 C1454 1.502 . S
C1453 C1455 1.561 1_455 S
C1453 C1456 1.526 . S
C1454 H1438 0.959 . S
C1454 H1439 0.959 . S
C1454 H1440 0.961 . S
C1454 C1453 1.502 . S
C1455 H1441 0.960 . S
C1455 H1442 0.961 1_655 S
C1455 H1443 0.959 . S
C1455 C1453 1.561 1_655 S
C1456 C1453 1.526 . S
C1456 C1457 1.396 1_455 S
C1456 C1461 1.390 . S
C1457 C1451 1.465 . S
C1457 C1456 1.396 1_655 S
C1457 C1458 1.399 . S
C1458 H1444 0.929 . S
C1458 C1457 1.399 . S
C1458 C1459 1.385 1_655 S
C1459 H1445 0.931 . S
C1459 C1458 1.385 1_455 S
C1459 C1460 1.389 . S
C1460 C1459 1.389 . S
C1460 C1461 1.387 . S
C1461 H1446 0.930 . S
C1461 C1456 1.390 . S
C1461 C1460 1.387 . S
H1462 C1474 0.930 1_545 S
H1463 C1476 0.930 . S
H1464 C1477 0.930 . S
H1465 C1481 0.959 . S
H1466 C1481 0.959 . S
H1467 C1481 0.961 . S
H1468 C1482 0.960 . S
H1469 C1482 0.961 . S
H1470 C1482 0.959 . S
H1471 C1485 0.929 . S
H1472 C1486 0.931 1_565 S
H1473 C1488 0.930 . S
C1474 H1462 0.930 1_565 S
C1474 C1475 1.399 . S
C1474 C1479 1.389 1_565 S
C1475 C1474 1.399 . S
C1475 C1476 1.376 . S
C1476 H1463 0.930 . S
C1476 C1475 1.376 . S
C1476 C1477 1.388 . S
C1477 H1464 0.930 . S
C1477 C1476 1.388 . S
C1477 C1478 1.390 . S
C1478 C1477 1.390 . S
C1478 C1479 1.370 1_565 S
C1478 C1484 1.465 . S
C1479 C1474 1.389 1_545 S
C1479 C1478 1.370 1_545 S
C1479 C1480 1.549 . S
C1480 C1479 1.549 . S
C1480 C1481 1.502 . S
C1480 C1482 1.561 . S
C1480 C1483 1.526 . S
C1481 H1465 0.959 . S
C1481 H1466 0.959 . S
C1481 H1467 0.961 . S
C1481 C1480 1.502 . S
C1482 H1468 0.960 . S
C1482 H1469 0.961 . S
C1482 H1470 0.959 . S
C1482 C1480 1.561 . S
C1483 C1480 1.526 . S
C1483 C1484 1.396 1_545 S
C1483 C1488 1.390 . S
C1484 C1478 1.465 . S
C1484 C1483 1.396 1_565 S
C1484 C1485 1.399 . S
C1485 H1471 0.929 . S
C1485 C1484 1.399 . S
C1485 C1486 1.385 1_565 S
C1486 H1472 0.931 1_545 S
C1486 C1485 1.385 1_545 S
C1486 C1487 1.389 . S
C1487 C1486 1.389 . S
C1487 C1488 1.387 . S
C1488 H1473 0.930 . S
C1488 C1483 1.390 . S
C1488 C1487 1.387 . S
H1489 C1501 0.930 . S
H1490 C1503 0.930 . S
H1491 C1504 0.930 1_455 S
H1492 C1508 0.959 . S
H1493 C1508 0.959 . S
H1494 C1508 0.961 . S
H1495 C1509 0.960 . S
H1496 C1509 0.961 . S
H1497 C1509 0.959 . S
H1498 C1512 0.929 . S
H1499 C1513 0.931 . S
H1500 C1515 0.930 . S
C1501 H1489 0.930 . S
C1501 C1502 1.399 . S
C1501 C1506 1.399 . S
C1502 C1501 1.399 . S
C1502 C1503 1.376 . S
C1503 H1490 0.930 . S
C1503 C1502 1.376 . S
C1503 C1504 1.388 . S
C1504 H1491 0.930 1_655 S
C1504 C1503 1.388 . S
C1504 C1505 1.390 . S
C1505 C1504 1.390 . S
C1505 C1506 1.397 . S
C1505 C1511 1.462 1_655 S
C1506 C1501 1.399 . S
C1506 C1505 1.397 . S
C1506 C1507 1.516 . S
C1507 C1506 1.516 . S
C1507 C1508 1.502 . S
C1507 C1509 1.561 1_655 S
C1507 C1510 1.526 1_655 S
C1508 H1492 0.959 . S
C1508 H1493 0.959 . S
C1508 H1494 0.961 . S
C1508 C1507 1.502 . S
C1509 H1495 0.960 . S
C1509 H1496 0.961 . S
C1509 H1497 0.959 . S
C1509 C1507 1.561 1_455 S
C1510 C1507 1.526 1_455 S
C1510 C1511 1.396 . S
C1510 C1515 1.390 . S
C1511 C1505 1.462 1_455 S
C1511 C1510 1.396 . S
C1511 C1512 1.399 . S
C1512 H1498 0.929 . S
C1512 C1511 1.399 . S
C1512 C1513 1.385 . S
C1513 H1499 0.931 . S
C1513 C1512 1.385 . S
C1513 C1514 1.389 . S
C1514 C1513 1.389 . S
C1514 C1515 1.387 . S
C1515 H1500 0.930 . S
C1515 C1510 1.390 . S
C1515 C1514 1.387 . S
H1516 C1528 0.930 . S
H1517 C1530 0.930 . S
H1518 C1531 0.930 . S
H1519 C1535 0.959 . S
H1520 C1535 0.959 . S
H1521 C1535 0.961 . S
H1522 C1536 0.960 . S
H1523 C1536 0.961 . S
H1524 C1536 0.959 . S
H1525 C1539 0.929 . S
H1526 C1540 0.931 . S
H1527 C1542 0.930 . S
C1528 H1516 0.930 . S
C1528 C1529 1.399 . S
C1528 C1533 1.399 . S
C1529 C1528 1.399 . S
C1529 C1530 1.376 . S
C1530 H1517 0.930 . S
C1530 C1529 1.376 . S
C1530 C1531 1.388 . S
C1531 H1518 0.930 . S
C1531 C1530 1.388 . S
C1531 C1532 1.390 . S
C1532 C1531 1.390 . S
C1532 C1533 1.394 . S
C1532 C1538 1.465 1_556 S
C1533 C1528 1.399 . S
C1533 C1532 1.394 . S
C1533 C1534 1.516 . S
C1534 C1533 1.516 . S
C1534 C1535 1.502 . S
C1534 C1536 1.561 . S
C1534 C1537 1.526 1_556 S
C1535 H1519 0.959 . S
C1535 H1520 0.959 . S
C1535 H1521 0.961 . S
C1535 C1534 1.502 . S
C1536 H1522 0.960 . S
C1536 H1523 0.961 . S
C1536 H1524 0.959 . S
C1536 C1534 1.561 . S
C1537 C1534 1.526 1_554 S
C1537 C1538 1.396 . S
C1537 C1542 1.390 . S
C1538 C1532 1.465 1_554 S
C1538 C1537 1.396 . S
C1538 C1539 1.399 . S
C1539 H1525 0.929 . S
C1539 C1538 1.399 . S
C1539 C1540 1.385 . S
C1540 H1526 0.931 . S
C1540 C1539 1.385 . S
C1540 C1541 1.389 . S
C1541 C1540 1.389 . S
C1541 C1542 1.387 . S
C1542 H1527 0.930 . S
C1542 C1537 1.390 . S
C1542 C1541 1.387 . S
H1543 C1555 0.930 . S
H1544 C1557 0.930 . S
H1545 C1558 0.930 . S
H1546 C1562 0.959 . S
H1547 C1562 0.959 . S
H1548 C1562 0.961 . S
H1549 C1563 0.960 . S
H1550 C1563 0.961 1_554 S
H1551 C1563 0.959 . S
H1552 C1566 0.929 . S
H1553 C1567 0.931 . S
H1554 C1569 0.930 . S
C1555 H1543 0.930 . S
C1555 C1556 1.399 . S
C1555 C1560 1.399 . S
C1556 C1555 1.399 . S
C1556 C1557 1.376 . S
C1557 H1544 0.930 . S
C1557 C1556 1.376 . S
C1557 C1558 1.388 . S
C1558 H1545 0.930 . S
C1558 C1557 1.388 . S
C1558 C1559 1.390 . S
C1559 C1558 1.390 . S
C1559 C1560 1.394 . S
C1559 C1565 1.465 1_556 S
C1560 C1555 1.399 . S
C1560 C1559 1.394 . S
C1560 C1561 1.516 1_556 S
C1561 C1560 1.516 1_554 S
C1561 C1562 1.502 . S
C1561 C1563 1.561 1_554 S
C1561 C1564 1.526 . S
C1562 H1546 0.959 . S
C1562 H1547 0.959 . S
C1562 H1548 0.961 . S
C1562 C1561 1.502 . S
C1563 H1549 0.960 . S
C1563 H1550 0.961 1_556 S
C1563 H1551 0.959 . S
C1563 C1561 1.561 1_556 S
C1564 C1561 1.526 . S
C1564 C1565 1.396 . S
C1564 C1569 1.390 . S
C1565 C1559 1.465 1_554 S
C1565 C1564 1.396 . S
C1565 C1566 1.399 . S
C1566 H1552 0.929 . S
C1566 C1565 1.399 . S
C1566 C1567 1.385 . S
C1567 H1553 0.931 . S
C1567 C1566 1.385 . S
C1567 C1568 1.389 . S
C1568 C1567 1.389 . S
C1568 C1569 1.387 . S
C1569 H1554 0.930 . S
C1569 C1564 1.390 . S
C1569 C1568 1.387 . S
H1570 C1582 0.930 . S
H1571 C1584 0.930 . S
H1572 C1585 0.930 . S
H1573 C1589 0.959 1_556 S
H1574 C1589 0.959 1_556 S
H1575 C1589 0.961 . S
H1576 C1590 0.960 . S
H1577 C1590 0.961 . S
H1578 C1590 0.959 . S
H1579 C1593 0.929 . S
H1580 C1594 0.931 . S
H1581 C1596 0.930 . S
C1582 H1570 0.930 . S
C1582 C1583 1.399 . S
C1582 C1587 1.399 . S
C1583 C1582 1.399 . S
C1583 C1584 1.376 . S
C1584 H1571 0.930 . S
C1584 C1583 1.376 . S
C1584 C1585 1.388 . S
C1585 H1572 0.930 . S
C1585 C1584 1.388 . S
C1585 C1586 1.390 . S
C1586 C1585 1.390 . S
C1586 C1587 1.394 . S
C1586 C1592 1.465 1_554 S
C1587 C1582 1.399 . S
C1587 C1586 1.394 . S
C1587 C1588 1.516 . S
C1588 C1587 1.516 . S
C1588 C1589 1.502 . S
C1588 C1590 1.561 . S
C1588 C1591 1.526 1_554 S
C1589 H1573 0.959 1_554 S
C1589 H1574 0.959 1_554 S
C1589 H1575 0.961 . S
C1589 C1588 1.502 . S
C1590 H1576 0.960 . S
C1590 H1577 0.961 . S
C1590 H1578 0.959 . S
C1590 C1588 1.561 . S
C1591 C1588 1.526 1_556 S
C1591 C1592 1.396 . S
C1591 C1596 1.390 . S
C1592 C1586 1.465 1_556 S
C1592 C1591 1.396 . S
C1592 C1593 1.399 . S
C1593 H1579 0.929 . S
C1593 C1592 1.399 . S
C1593 C1594 1.385 . S
C1594 H1580 0.931 . S
C1594 C1593 1.385 . S
C1594 C1595 1.389 . S
C1595 C1594 1.389 . S
C1595 C1596 1.387 . S
C1596 H1581 0.930 . S
C1596 C1591 1.390 . S
C1596 C1595 1.387 . S
H1597 C1609 0.930 . S
H1598 C1611 0.930 . S
H1599 C1612 0.930 . S
H1600 C1616 0.959 . S
H1601 C1616 0.959 . S
H1602 C1616 0.961 . S
H1603 C1617 0.960 . S
H1604 C1617 0.961 1_554 S
H1605 C1617 0.959 . S
H1606 C1620 0.929 . S
H1607 C1621 0.931 . S
H1608 C1623 0.930 . S
C1609 H1597 0.930 . S
C1609 C1610 1.399 . S
C1609 C1614 1.399 . S
C1610 C1609 1.399 . S
C1610 C1611 1.376 . S
C1611 H1598 0.930 . S
C1611 C1610 1.376 . S
C1611 C1612 1.388 . S
C1612 H1599 0.930 . S
C1612 C1611 1.388 . S
C1612 C1613 1.390 . S
C1613 C1612 1.390 . S
C1613 C1614 1.394 . S
C1613 C1619 1.465 1_556 S
C1614 C1609 1.399 . S
C1614 C1613 1.394 . S
C1614 C1615 1.516 1_556 S
C1615 C1614 1.516 1_554 S
C1615 C1616 1.502 . S
C1615 C1617 1.561 1_554 S
C1615 C1618 1.526 . S
C1616 H1600 0.959 . S
C1616 H1601 0.959 . S
C1616 H1602 0.961 . S
C1616 C1615 1.502 . S
C1617 H1603 0.960 . S
C1617 H1604 0.961 1_556 S
C1617 H1605 0.959 . S
C1617 C1615 1.561 1_556 S
C1618 C1615 1.526 . S
C1618 C1619 1.396 . S
C1618 C1623 1.390 . S
C1619 C1613 1.465 1_554 S
C1619 C1618 1.396 . S
C1619 C1620 1.399 . S
C1620 H1606 0.929 . S
C1620 C1619 1.399 . S
C1620 C1621 1.385 . S
C1621 H1607 0.931 . S
C1621 C1620 1.385 . S
C1621 C1622 1.389 . S
C1622 C1621 1.389 . S
C1622 C1623 1.387 . S
C1623 H1608 0.930 . S
C1623 C1618 1.390 . S
C1623 C1622 1.387 . S
C557 C9 2.083 . S
C569 C104 2.105 . S
C584 C2 2.100 . S
C596 C43 2.076 . S
C611 C77 2.099 . S
C623 C36 2.119 . S
C638 C70 2.105 . S
C650 C111 2.065 . S
C665 C172 2.098 . S
C677 C145 2.056 . S
C692 C206 2.093 . S
C704 C179 2.052 . S
C719 C240 2.095 . S
C731 C213 2.054 . S
C746 C247 2.092 . S
C758 C138 2.121 . S
C773 C281 2.092 . S
C785 C376 2.121 . S
C800 C315 2.053 . S
C812 C274 2.090 . S
C827 C349 2.092 . S
C839 C308 2.121 . S
C854 C342 2.107 . S
C866 C383 2.086 . S
C881 C444 2.110 . S
C893 C417 2.090 . S
C908 C451 2.098 . S
C920 C478 2.122 . S
C935 C485 2.059 . S
C947 C512 2.102 . S
C962 C519 2.098 . S
C974 C410 2.122 . S
C989 C5 0.992 . S
C1001 C175 1.001 . S
C1016 C39 1.096 . S
C1028 C209 1.067 . S
C1043 C243 0.995 . S
C1055 C73 1.011 . S
C1070 C107 1.072 . S
C1082 C141 1.042 . S
C1097 C277 1.017 . S
C1109 C447 1.044 . S
C1124 C311 1.069 . S
C1136 C481 1.097 . S
C1151 C345 1.023 . S
C1163 C515 1.003 . S
C1178 C379 1.118 . S
C1190 C413 1.094 . S
C1205 C33 0.215 . S
C1217 C543 0.433 . S
C1232 C441 0.409 . S
C1244 C67 0.252 . S
C1259 C101 0.401 . S
C1271 C475 0.339 . S
C1286 C135 0.238 . S
C1298 C509 0.416 . S
C1313 C339 0.457 . S
C1325 C169 0.192 . S
C1340 C373 0.221 . S
C1352 C203 0.428 . S
C1367 C407 0.224 . S
C1379 C237 0.426 . S
C1394 C305 0.192 . S
C1406 C271 0.452 . S
C1421 C20 1.198 . S
C1433 C156 1.166 . S
C1448 C54 1.150 . S
C1460 C190 1.175 . S
C1475 C88 1.193 . S
C1487 C224 1.221 . S
C1502 C258 1.229 . S
C1514 C122 1.210 . S
C1529 C292 1.202 . S
C1541 C428 1.226 . S
C1556 C326 1.227 . S
C1568 C462 1.203 . S
C1583 C496 1.217 . S
C1595 C360 1.229 . S
C1610 C394 1.229 . S
C1622 C530 1.209 . S
