# Generated by pormake.
# Topology fna, (5)-cn, num edge types: 1
# Building blocks:
#     Node 0, Type 0, BuildingBlock: BEQFEK_clean_sbu_0, # of connection points: 5
#     Node 1, Type 0, BuildingBlock: BEQFEK_clean_sbu_0, # of connection points: 5
#     Node 2, Type 0, BuildingBlock: BEQFEK_clean_sbu_0, # of connection points: 5
#     Node 3, Type 0, BuildingBlock: BEQFEK_clean_sbu_0, # of connection points: 5
#     Node 4, Type 0, BuildingBlock: BEQFEK_clean_sbu_0, # of connection points: 5
#     Node 5, Type 0, BuildingBlock: BEQFEK_clean_sbu_0, # of connection points: 5
#     Node 6, Type 0, BuildingBlock: BEQFEK_clean_sbu_0, # of connection points: 5
#     Node 7, Type 0, BuildingBlock: BEQFEK_clean_sbu_0, # of connection points: 5
#     Node 8, Type 0, BuildingBlock: BEQFEK_clean_sbu_0, # of connection points: 5
#     Node 9, Type 0, BuildingBlock: BEQFEK_clean_sbu_0, # of connection points: 5
#     Node 10, Type 0, BuildingBlock: BEQFEK_clean_sbu_0, # of connection points: 5
#     Node 11, Type 0, BuildingBlock: BEQFEK_clean_sbu_0, # of connection points: 5
#     Edge 12, Type (0, 0), BuildingBlock: CIFDUS_clean_linker_0, # of connection points: 2
#     Edge 13, Type (0, 0), BuildingBlock: CIFDUS_clean_linker_0, # of connection points: 2
#     Edge 14, Type (0, 0), BuildingBlock: CIFDUS_clean_linker_0, # of connection points: 2
#     Edge 15, Type (0, 0), BuildingBlock: CIFDUS_clean_linker_0, # of connection points: 2
#     Edge 16, Type (0, 0), BuildingBlock: CIFDUS_clean_linker_0, # of connection points: 2
#     Edge 17, Type (0, 0), BuildingBlock: CIFDUS_clean_linker_0, # of connection points: 2
#     Edge 18, Type (0, 0), BuildingBlock: CIFDUS_clean_linker_0, # of connection points: 2
#     Edge 19, Type (0, 0), BuildingBlock: CIFDUS_clean_linker_0, # of connection points: 2
#     Edge 20, Type (0, 0), BuildingBlock: CIFDUS_clean_linker_0, # of connection points: 2
#     Edge 21, Type (0, 0), BuildingBlock: CIFDUS_clean_linker_0, # of connection points: 2
#     Edge 22, Type (0, 0), BuildingBlock: CIFDUS_clean_linker_0, # of connection points: 2
#     Edge 23, Type (0, 0), BuildingBlock: CIFDUS_clean_linker_0, # of connection points: 2
#     Edge 24, Type (0, 0), BuildingBlock: CIFDUS_clean_linker_0, # of connection points: 2
#     Edge 25, Type (0, 0), BuildingBlock: CIFDUS_clean_linker_0, # of connection points: 2
#     Edge 26, Type (0, 0), BuildingBlock: CIFDUS_clean_linker_0, # of connection points: 2
#     Edge 27, Type (0, 0), BuildingBlock: CIFDUS_clean_linker_0, # of connection points: 2
#     Edge 28, Type (0, 0), BuildingBlock: CIFDUS_clean_linker_0, # of connection points: 2
#     Edge 29, Type (0, 0), BuildingBlock: CIFDUS_clean_linker_0, # of connection points: 2
#     Edge 30, Type (0, 0), BuildingBlock: CIFDUS_clean_linker_0, # of connection points: 2
#     Edge 31, Type (0, 0), BuildingBlock: CIFDUS_clean_linker_0, # of connection points: 2
#     Edge 32, Type (0, 0), BuildingBlock: CIFDUS_clean_linker_0, # of connection points: 2
#     Edge 33, Type (0, 0), BuildingBlock: CIFDUS_clean_linker_0, # of connection points: 2
#     Edge 34, Type (0, 0), BuildingBlock: CIFDUS_clean_linker_0, # of connection points: 2
#     Edge 35, Type (0, 0), BuildingBlock: CIFDUS_clean_linker_0, # of connection points: 2
#     Edge 36, Type (0, 0), BuildingBlock: CIFDUS_clean_linker_0, # of connection points: 2
#     Edge 37, Type (0, 0), BuildingBlock: CIFDUS_clean_linker_0, # of connection points: 2
#     Edge 38, Type (0, 0), BuildingBlock: CIFDUS_clean_linker_0, # of connection points: 2
#     Edge 39, Type (0, 0), BuildingBlock: CIFDUS_clean_linker_0, # of connection points: 2
#     Edge 40, Type (0, 0), BuildingBlock: CIFDUS_clean_linker_0, # of connection points: 2
#     Edge 41, Type (0, 0), BuildingBlock: CIFDUS_clean_linker_0, # of connection points: 2
# Relax obj value: 0.682
# Max RMSD: 0.272
# Mean RMSD: 0.272
data_MOF--net-fna--node1-BEQFEK_clean_sbu_0--edge1-CIFDUS_clean_linker_0
_symmetry_space_group_name_H-M    P1
_symmetry_Int_Tables_number       1
_symmetry_cell_setting            triclinic
loop_
_symmetry_equiv_pos_as_xyz
'x, y, z'
_cell_length_a     39.673663
_cell_length_b     39.578939
_cell_length_c     36.528136
_cell_angle_alpha  90.001133
_cell_angle_beta   90.035826
_cell_angle_gamma 120.01712
loop_
_atom_site_label
_atom_site_type_symbol
_atom_site_fract_x
_atom_site_fract_y
_atom_site_fract_z
_atom_type_partial_charge
Co0 Co 0.35966 0.36672 0.48705 0.0
Co1 Co 0.34065 0.3196 0.4147 0.0
C2 C 0.41465 0.39622 0.42479 0.0
O3 O 0.40444 0.39856 0.45702 0.0
O4 O 0.3926 0.36759 0.40418 0.0
C5 C 0.40746 0.40229 0.54753 0.0
O6 O 0.43151 0.39543 0.52851 0.0
C7 C 0.3532 0.27299 0.3602 0.0
C8 C 0.29754 0.24458 0.33 0.0
C9 C 0.33338 0.24632 0.33206 0.0
N10 N 0.32989 0.28548 0.37389 0.0
N11 N 0.29691 0.2689 0.35536 0.0
C12 C 0.39259 0.28535 0.3759 0.0
H13 H 0.3968 0.30112 0.40213 0.0
H14 H 0.39622 0.2597 0.38073 0.0
H15 H 0.4153 0.3053 0.3564 0.0
C16 C 0.34502 0.2923 0.51901 0.0
N17 N 0.34924 0.31488 0.48988 0.0
N18 N 0.34151 0.29418 0.45965 0.0
C19 C 0.33221 0.25735 0.46884 0.0
C20 C 0.33461 0.25517 0.50684 0.0
C21 C 0.34659 0.30486 0.55798 0.0
H22 H 0.33364 0.32391 0.56034 0.0
H23 H 0.3774 0.32147 0.567 0.0
H24 H 0.33053 0.27946 0.57644 0.0
O25 O 0.31339 0.36696 0.4698 0.0
O26 O 0.29708 0.33182 0.41872 0.0
H27 H 0.30095 0.22528 0.42116 0.0
H28 H 0.30827 0.19608 0.45477 0.0
C29 C 0.32141 0.22513 0.44174 0.0
H30 H 0.34801 0.22987 0.4275 0.0
H31 H 0.27359 0.27337 0.36067 0.0
O32 O 0.37382 0.39175 0.53487 0.0
C33 C 0.29055 0.3513 0.44278 0.0
Co34 Co 0.98358 0.34889 0.6632 0.0
Co35 Co 0.02162 0.33577 0.59394 0.0
C36 C 0.01173 0.40602 0.60212 0.0
O37 O 0.99662 0.39473 0.6335 0.0
O38 O 0.02165 0.38552 0.58291 0.0
C39 C 0.98489 0.39182 0.72474 0.0
O40 O 0.01553 0.41947 0.70784 0.0
C41 C 0.08326 0.35343 0.5397 0.0
C42 C 0.0698 0.29434 0.52302 0.0
C43 C 0.09698 0.33354 0.5186 0.0
N44 N 0.05028 0.32713 0.55649 0.0
N45 N 0.04196 0.2919 0.54574 0.0
C46 C 0.10041 0.39667 0.54338 0.0
H47 H 0.11274 0.406 0.57125 0.0
H48 H 0.12321 0.41284 0.52253 0.0
H49 H 0.07727 0.40426 0.53979 0.0
C50 C 0.04683 0.34203 0.70011 0.0
N51 N 0.02793 0.34315 0.66983 0.0
N52 N 0.04522 0.33923 0.64066 0.0
C53 C 0.0761 0.33613 0.65164 0.0
C54 C 0.07804 0.33787 0.68957 0.0
C55 C 0.03524 0.34464 0.73851 0.0
H56 H 0.04532 0.37561 0.74505 0.0
H57 H 0.04862 0.33367 0.75845 0.0
H58 H 0.00312 0.32762 0.74126 0.0
O59 O 0.94051 0.30113 0.64206 0.0
O60 O 0.96789 0.289 0.59459 0.0
H61 H 0.1242 0.32599 0.64213 0.0
H62 H 0.11793 0.35574 0.60843 0.0
C63 C 0.10243 0.33006 0.62661 0.0
H64 H 0.08489 0.30401 0.60933 0.0
H65 H 0.01815 0.2661 0.55516 0.0
O66 O 0.96612 0.35821 0.7103 0.0
C67 C 0.93865 0.27972 0.61529 0.0
Co68 Co 0.63248 0.01021 0.83306 0.0
Co69 Co 0.67643 0.02868 0.7588 0.0
C70 C 0.60165 0.03016 0.76803 0.0
O71 O 0.60031 0.02129 0.80143 0.0
O72 O 0.62913 0.03348 0.74752 0.0
C73 C 0.60003 0.03015 0.89142 0.0
O74 O 0.60702 0.05947 0.86979 0.0
C75 C 0.72261 0.08401 0.70203 0.0
C76 C 0.74814 0.05377 0.6721 0.0
C77 C 0.74818 0.0889 0.67357 0.0
N78 N 0.70891 0.04826 0.71647 0.0
N79 N 0.72373 0.03003 0.6981 0.0
C80 C 0.71312 0.11322 0.71778 0.0
H81 H 0.69861 0.10331 0.74474 0.0
H82 H 0.73986 0.14205 0.72105 0.0
H83 H 0.69288 0.11648 0.69908 0.0
C84 C 0.70894 0.07284 0.85936 0.0
N85 N 0.68492 0.05057 0.83237 0.0
N86 N 0.70429 0.05878 0.80129 0.0
C87 C 0.7416 0.08675 0.80787 0.0
C88 C 0.74549 0.09667 0.84469 0.0
C89 C 0.69695 0.07167 0.89841 0.0
H90 H 0.67937 0.08624 0.90057 0.0
H91 H 0.72233 0.08698 0.91693 0.0
H92 H 0.67896 0.04098 0.90752 0.0
O93 O 0.62924 0.96065 0.81985 0.0
O94 O 0.6618 0.97262 0.76745 0.0
H95 H 0.80241 0.11191 0.79464 0.0
H96 H 0.77563 0.12663 0.76566 0.0
C97 C 0.77406 0.10155 0.78064 0.0
H98 H 0.76923 0.07831 0.7609 0.0
H99 H 0.71821 1.00193 0.70409 0.0
O100 O 0.60956 0.00532 0.88139 0.0
C101 C 0.64245 0.94951 0.79358 0.0
Co102 Co 0.64945 0.65374 0.9862 0.0
Co103 Co 0.66791 0.69883 0.91212 0.0
C104 C 0.59426 0.62217 0.92363 0.0
O105 O 0.60409 0.62085 0.9564 0.0
O106 O 0.61638 0.65027 0.90244 0.0
C107 C 0.60527 0.62103 0.05067 0.0
O108 O 0.57887 0.62567 0.03329 0.0
C109 C 0.6588 0.74311 0.85133 0.0
C110 C 0.72026 0.78559 0.83907 0.0
C111 C 0.6825 0.77633 0.83071 0.0
N112 N 0.68164 0.73432 0.87174 0.0
N113 N 0.71831 0.75923 0.86349 0.0
C114 C 0.61522 0.71972 0.85164 0.0
H115 H 0.60568 0.68821 0.85029 0.0
H116 H 0.604 0.72483 0.87761 0.0
H117 H 0.60255 0.72724 0.82808 0.0
C118 C 0.66211 0.72882 0.01512 0.0
N119 N 0.65972 0.70562 0.98713 0.0
N120 N 0.6655 0.72456 0.95604 0.0
C121 C 0.67068 0.76037 0.96342 0.0
C122 C 0.66854 0.76413 0.00117 0.0
C123 C 0.66172 0.71863 0.05468 0.0
H124 H 0.63117 0.70179 0.06433 0.0
H125 H 0.67743 0.74525 0.07179 0.0
H126 H 0.67572 0.70065 0.05826 0.0
O127 O 0.69495 0.65211 0.96892 0.0
O128 O 0.71112 0.68613 0.91726 0.0
H129 H 0.70378 0.79977 0.92046 0.0
H130 H 0.67492 0.81502 0.94649 0.0
C131 C 0.67571 0.7896 0.93481 0.0
H132 H 0.65193 0.77565 0.91454 0.0
H133 H 0.7421 0.75956 0.87607 0.0
O134 O 0.63764 0.63118 0.0353 0.0
C135 C 0.71737 0.66667 0.94152 0.0
Co136 Co 1.00226 0.63324 0.1586 0.0
Co137 Co 0.97064 0.64926 0.08636 0.0
C138 C 0.97492 0.5764 0.09699 0.0
O139 O 0.98828 0.58743 0.129 0.0
O140 O 0.96742 0.59771 0.07616 0.0
C141 C 0.04521 0.6232 0.2174 0.0
O142 O 0.07467 0.63603 0.19458 0.0
C143 C 0.91442 0.63867 0.02815 0.0
C144 C 0.93128 0.69985 0.01643 0.0
C145 C 0.9032 0.66168 0.00859 0.0
N146 N 0.94663 0.66225 0.04752 0.0
N147 N 0.95712 0.69877 0.03957 0.0
C148 C 0.89504 0.59506 0.0288 0.0
H149 H 0.91732 0.58614 0.02616 0.0
H150 H 0.88011 0.58393 0.05543 0.0
H151 H 0.8738 0.58172 0.00609 0.0
C152 C 0.9427 0.64704 0.19129 0.0
N153 N 0.96068 0.64291 0.16188 0.0
N154 N 0.94524 0.64752 0.13178 0.0
C155 C 0.91578 0.65365 0.14126 0.0
C156 C 0.91327 0.65367 0.17938 0.0
C157 C 0.95632 0.6485 0.22983 0.0
H158 H 0.98859 0.66459 0.2307 0.0
H159 H 0.94582 0.61832 0.23966 0.0
H160 H 0.9456 0.66318 0.24847 0.0
O161 O 0.04809 0.67933 0.13984 0.0
O162 O 0.02624 0.69312 0.0893 0.0
H163 H 0.90602 0.68666 0.10058 0.0
H164 H 0.86338 0.65531 0.12758 0.0
C165 C 0.8897 0.65791 0.11434 0.0
H166 H 0.88013 0.6348 0.09334 0.0
H167 H 0.98072 0.72301 0.05157 0.0
O168 O 0.01349 0.62075 0.20712 0.0
C169 C 0.05352 0.701 0.11222 0.0
Co170 Co 0.35764 0.01041 0.32296 0.0
Co171 Co 0.30851 0.97332 0.25255 0.0
C172 C 0.38746 0.98233 0.26233 0.0
O173 O 0.39045 0.99725 0.29369 0.0
O174 O 0.35769 0.97257 0.2423 0.0
C175 C 0.39491 0.0038 0.38493 0.0
O176 O 0.39012 0.97291 0.36699 0.0
C177 C 0.26649 0.9142 0.19578 0.0
C178 C 0.21751 0.92396 0.18367 0.0
C179 C 0.23172 0.899 0.17637 0.0
N180 N 0.27167 0.94567 0.21456 0.0
N181 N 0.24282 0.95196 0.20639 0.0
C182 C 0.29446 0.89921 0.19685 0.0
H183 H 0.32423 0.92352 0.19116 0.0
H184 H 0.29456 0.88791 0.22463 0.0
H185 H 0.28723 0.8761 0.17611 0.0
C186 C 0.28579 0.9485 0.35826 0.0
N187 N 0.30708 0.9667 0.32838 0.0
N188 N 0.28705 0.94912 0.29877 0.0
C189 C 0.25267 0.91826 0.309 0.0
C190 C 0.25063 0.91694 0.34711 0.0
C191 C 0.29739 0.96323 0.39659 0.0
H192 H 0.31487 0.99553 0.39675 0.0
H193 H 0.3152 0.95137 0.40818 0.0
H194 H 0.27147 0.95387 0.41426 0.0
O195 O 0.35468 0.05448 0.3022 0.0
O196 O 0.31666 0.02764 0.25362 0.0
H197 H 0.20833 0.90331 0.26867 0.0
H198 H 0.20127 0.86266 0.29679 0.0
C199 C 0.22322 0.8896 0.2828 0.0
H200 H 0.23806 0.88133 0.26203 0.0
H201 H 0.23929 0.97412 0.21793 0.0
O202 O 0.38318 0.02534 0.37066 0.0
C203 C 0.33618 0.05674 0.27474 0.0
Co204 Co 0.65149 0.64326 0.32637 0.0
Co205 Co 0.69386 0.66409 0.40186 0.0
C206 C 0.61605 0.59119 0.39005 0.0
O207 O 0.61606 0.60002 0.35669 0.0
O208 O 0.64379 0.61346 0.41155 0.0
C209 C 0.60073 0.6288 0.26554 0.0
O210 O 0.5802 0.6368 0.28851 0.0
C211 C 0.73798 0.65594 0.46281 0.0
C212 C 0.77477 0.71736 0.47984 0.0
C213 C 0.76896 0.68019 0.48563 0.0
N214 N 0.72722 0.67808 0.44373 0.0
N215 N 0.74868 0.71461 0.45475 0.0
C216 C 0.71811 0.61243 0.45942 0.0
H217 H 0.72772 0.60442 0.43402 0.0
H218 H 0.72442 0.59926 0.48339 0.0
H219 H 0.68621 0.60019 0.45732 0.0
C220 C 0.72349 0.64681 0.30234 0.0
N221 N 0.70149 0.64968 0.32874 0.0
N222 N 0.72053 0.65889 0.36003 0.0
C223 C 0.75594 0.66265 0.35411 0.0
C224 C 0.75875 0.65503 0.31743 0.0
C225 C 0.70991 0.63437 0.26386 0.0
H226 H 0.68169 0.6066 0.26431 0.0
H227 H 0.73107 0.63008 0.24762 0.0
H228 H 0.70516 0.65679 0.25041 0.0
O229 O 0.65269 0.69165 0.33985 0.0
O230 O 0.68367 0.70833 0.3931 0.0
H231 H 0.81634 0.68624 0.3689 0.0
H232 H 0.78173 0.65054 0.39991 0.0
C233 C 0.78756 0.67552 0.38211 0.0
H234 H 0.78854 0.69907 0.39925 0.0
H235 H 0.74698 0.73801 0.44367 0.0
O236 O 0.63183 0.63028 0.2764 0.0
C237 C 0.66671 0.71501 0.36676 0.0
Co238 Co 0.01137 0.64229 0.49178 0.0
Co239 Co 0.02578 0.68593 0.56635 0.0
C240 C 0.02625 0.6101 0.55898 0.0
O241 O 0.0205 0.6097 0.52483 0.0
O242 O 0.02814 0.63728 0.57931 0.0
C243 C 0.02812 0.6078 0.43062 0.0
O244 O 0.05676 0.6104 0.45077 0.0
C245 C 0.07426 0.73291 0.62817 0.0
C246 C 0.04756 0.76881 0.64113 0.0
C247 C 0.0794 0.76456 0.64926 0.0
N248 N 0.04194 0.72042 0.60773 0.0
N249 N 0.02556 0.74132 0.61638 0.0
C250 C 0.09905 0.71421 0.62741 0.0
H251 H 0.0803 0.68208 0.62572 0.0
H252 H 0.11781 0.72388 0.60272 0.0
H253 H 0.11744 0.72159 0.65232 0.0
C254 C 0.0764 0.71816 0.468 0.0
N255 N 0.05198 0.69437 0.49396 0.0
N256 N 0.05911 0.7134 0.5252 0.0
C257 C 0.08883 0.75026 0.51982 0.0
C258 C 0.10066 0.75425 0.48352 0.0
C259 C 0.07708 0.70611 0.42927 0.0
H260 H 0.0471 0.69076 0.41802 0.0
H261 H 0.08869 0.68582 0.42883 0.0
H262 H 0.0958 0.73127 0.41147 0.0
O263 O 0.96171 0.63909 0.50248 0.0
O264 O 0.97057 0.67166 0.55434 0.0
H265 H 0.07962 0.78207 0.56231 0.0
H266 H 0.12256 0.81112 0.53505 0.0
C267 C 0.10414 0.7821 0.54783 0.0
H268 H 0.12206 0.77715 0.56801 0.0
H269 H 1.00062 0.73838 0.60376 0.0
O270 O 0.00642 0.62027 0.4429 0.0
C271 C 0.94899 0.65208 0.5275 0.0
Co272 Co 0.35626 0.01033 0.65614 0.0
Co273 Co 0.32804 0.02715 0.72994 0.0
C274 C 0.40491 0.029 0.72236 0.0
O275 O 0.39876 0.02138 0.68854 0.0
O276 O 0.37979 0.03119 0.74257 0.0
C277 C 0.38223 0.98116 0.59741 0.0
O278 O 0.37754 0.95347 0.62022 0.0
C279 C 0.33237 0.07763 0.79091 0.0
C280 C 0.27026 0.05572 0.80257 0.0
C281 C 0.30738 0.08575 0.81101 0.0
N282 N 0.31089 0.04543 0.77064 0.0
N283 N 0.27381 0.03188 0.77853 0.0
C284 C 0.37598 0.09964 0.79083 0.0
H285 H 0.38692 0.07883 0.79225 0.0
H286 H 0.38672 0.11626 0.76492 0.0
H287 H 0.38785 0.11976 0.81455 0.0
C288 C 0.34677 0.07497 0.63053 0.0
N289 N 0.34471 0.0506 0.65717 0.0
N290 N 0.33339 0.05913 0.68794 0.0
C291 C 0.32803 0.08985 0.68152 0.0
C292 C 0.33623 0.10057 0.64497 0.0
C293 C 0.36057 0.07489 0.59242 0.0
H294 H 0.34181 0.04585 0.5798 0.0
H295 H 0.39073 0.08006 0.59354 0.0
H296 H 0.3601 0.09765 0.57507 0.0
O297 O 0.31042 0.96063 0.66794 0.0
O298 O 0.28701 0.97099 0.71929 0.0
H299 H 0.28905 0.08583 0.72397 0.0
H300 H 0.30765 0.12945 0.69638 0.0
C301 C 0.31496 0.10855 0.70935 0.0
H302 H 0.33858 0.12454 0.7295 0.0
H303 H 0.25081 0.00776 0.76578 0.0
O304 O 0.374 0.00685 0.60748 0.0
C305 C 0.28498 0.94854 0.69317 0.0
Co306 Co 0.36597 0.37383 0.81733 0.0
Co307 Co 0.32097 0.34847 0.89081 0.0
C308 C 0.39868 0.42271 0.88296 0.0
O309 O 0.39967 0.41585 0.84927 0.0
O310 O 0.37068 0.39875 0.90327 0.0
C311 C 0.42085 0.39512 0.75925 0.0
O312 O 0.4414 0.38716 0.78225 0.0
C313 C 0.2792 0.35812 0.9521 0.0
C314 C 0.2343 0.2973 0.964 0.0
C315 C 0.2455 0.3357 0.97239 0.0
N316 N 0.2864 0.33414 0.93174 0.0
N317 N 0.26014 0.29777 0.93982 0.0
C318 C 0.30428 0.40165 0.95153 0.0
H319 H 0.33515 0.4097 0.95502 0.0
H320 H 0.30151 0.41302 0.92461 0.0
H321 H 0.29666 0.41556 0.97392 0.0
C322 C 0.29444 0.37043 0.79156 0.0
N323 N 0.31562 0.36649 0.81817 0.0
N324 N 0.29557 0.35582 0.84882 0.0
C325 C 0.26034 0.35238 0.84232 0.0
C326 C 0.25873 0.36188 0.80587 0.0
C327 C 0.30783 0.3806 0.75272 0.0
H328 H 0.31882 0.36141 0.74281 0.0
H329 H 0.33217 0.4112 0.75155 0.0
H330 H 0.28409 0.37722 0.73431 0.0
O331 O 0.36537 0.32549 0.82905 0.0
O332 O 0.33137 0.30422 0.88048 0.0
H333 H 0.22307 0.31394 0.88403 0.0
H334 H 0.20214 0.33818 0.85857 0.0
C335 C 0.22934 0.34158 0.87058 0.0
H336 H 0.23987 0.36478 0.89163 0.0
H337 H 0.2583 0.27334 0.92699 0.0
O338 O 0.3881 0.39047 0.76896 0.0
C339 C 0.35029 0.30009 0.85425 0.0
Co340 Co 0.00533 0.35277 -0.00198 0.0
Co341 Co 0.97704 0.30455 0.07028 0.0
C342 C 0.97883 0.38039 0.06216 0.0
O343 O 0.99137 0.38312 0.02978 0.0
O344 O 0.9726 0.35174 0.08266 0.0
C345 C 0.99064 0.38688 0.93775 0.0
O346 O 0.95848 0.37662 0.95613 0.0
C347 C 0.92651 0.25876 0.13221 0.0
C348 C 0.94247 0.21294 0.13744 0.0
C349 C 0.91673 0.22414 0.15051 0.0
N350 N 0.95566 0.26664 0.10871 0.0
N351 N 0.96565 0.23962 0.11268 0.0
C352 C 0.90901 0.28436 0.13698 0.0
H353 H 0.93245 0.3153 0.13824 0.0
H354 H 0.89034 0.28098 0.11305 0.0
H355 H 0.89164 0.27726 0.16252 0.0
C356 C 0.94406 0.27882 0.96608 0.0
N357 N 0.96415 0.30091 -0.0051 0.0
N358 N 0.94979 0.28111 0.02536 0.0
C359 C 0.91878 0.24604 0.0168 0.0
C360 C 0.91415 0.24338 0.97883 0.0
C361 C 0.95548 0.29022 0.92699 0.0
H362 H 0.98743 0.30957 0.92478 0.0
H363 H 0.94096 0.30606 0.91664 0.0
H364 H 0.9465 0.26409 0.90957 0.0
O365 O 0.05233 0.35385 0.01464 0.0
O366 O 0.03307 0.31799 0.06517 0.0
H367 H 0.90724 0.2014 0.05592 0.0
H368 H 0.8643 0.19524 0.03259 0.0
C369 C 0.89272 0.21686 0.04457 0.0
H370 H 0.88728 0.23206 0.06724 0.0
H371 H 0.98708 0.23838 0.09716 0.0
O372 O 0.01554 0.3788 0.9505 0.0
C373 C 0.05935 0.33808 0.04164 0.0
Co374 Co 0.63281 0.00335 0.15664 0.0
Co375 Co 0.65739 0.97801 0.22804 0.0
C376 C 0.58294 0.98004 0.22271 0.0
O377 O 0.59046 0.99072 0.18969 0.0
O378 O 0.60672 0.97503 0.24221 0.0
C379 C 0.5801 0.98882 0.09975 0.0
O380 O 0.55757 0.95879 0.12053 0.0
C381 C 0.64733 0.91921 0.28172 0.0
C382 C 0.70764 0.93872 0.29898 0.0
C383 C 0.66977 0.90781 0.30183 0.0
N384 N 0.671 0.95426 0.26664 0.0
N385 N 0.70691 0.96631 0.27792 0.0
C386 C 0.60408 0.89729 0.27635 0.0
H387 H 0.59717 0.88765 0.24744 0.0
H388 H 0.5895 0.87182 0.29495 0.0
H389 H 0.59231 0.91692 0.28203 0.0
C390 C 0.64323 0.94082 0.12427 0.0
N391 N 0.64309 0.96199 0.1531 0.0
N392 N 0.65263 0.95016 0.18304 0.0
C393 C 0.65889 0.92061 0.17386 0.0
C394 C 0.6529 0.91374 0.13653 0.0
C395 C 0.63338 0.94577 0.0858 0.0
H396 H 0.64675 0.97721 0.07917 0.0
H397 H 0.60133 0.93193 0.08319 0.0
H398 H 0.6435 0.93175 0.06576 0.0
O399 O 0.67974 0.05084 0.17196 0.0
O400 O 0.70021 0.03389 0.22169 0.0
H401 H 0.69647 0.92236 0.21684 0.0
H402 H 0.68334 0.88346 0.18428 0.0
C403 C 0.67265 0.90056 0.19944 0.0
H404 H 0.64818 0.88031 0.2171 0.0
H405 H 0.73122 0.99218 0.26935 0.0
O406 O 0.6148 0.01234 0.10982 0.0
C407 C 0.7043 0.0592 0.19771 0.0
H408 H 0.28571 0.09947 0.59475 0.0
H409 H 0.39221 0.17617 0.65158 0.0
H410 H 0.40182 0.23085 0.61274 0.0
H411 H 0.38163 0.25553 0.56036 0.0
H412 H 0.27188 0.18072 0.50728 0.0
H413 H 0.2621 0.12612 0.5461 0.0
C414 C 0.31054 0.12842 0.59891 0.0
C415 C 0.33816 0.13426 0.62588 0.0
C416 C 0.3157 0.15956 0.57657 0.0
C417 C 0.37049 0.17149 0.63113 0.0
C418 C 0.37611 0.20251 0.60876 0.0
C419 C 0.35548 0.22729 0.55745 0.0
C420 C 0.32818 0.22175 0.53014 0.0
C421 C 0.34923 0.1967 0.58102 0.0
C422 C 0.29421 0.18521 0.52691 0.0
C423 C 0.28829 0.15419 0.54953 0.0
H424 H 0.1506 0.39611 0.70434 0.0
H425 H 0.06943 0.27571 0.72859 0.0
H426 H 0.1175 0.27261 0.76876 0.0
H427 H 0.1838 0.30412 0.7954 0.0
H428 H 0.26427 0.42498 0.77157 0.0
H429 H 0.21551 0.42835 0.73312 0.0
C430 C 0.14367 0.36932 0.71852 0.0
C431 C 0.107 0.33609 0.71358 0.0
C432 C 0.17125 0.368 0.74171 0.0
C433 C 0.09779 0.30148 0.73207 0.0
C434 C 0.12516 0.29979 0.75502 0.0
C435 C 0.19024 0.33126 0.78222 0.0
C436 C 0.22736 0.3643 0.78624 0.0
C437 C 0.16208 0.33285 0.75996 0.0
C438 C 0.23577 0.39924 0.76874 0.0
C439 C 0.208 0.40113 0.7467 0.0
H440 H 0.78739 0.08935 0.89965 0.0
H441 H 0.77902 0.17411 0.83221 0.0
H442 H 0.83026 0.22728 0.86824 0.0
H443 H 0.87424 0.24912 0.92116 0.0
H444 H 0.88652 0.16495 0.98614 0.0
H445 H 0.83596 0.1118 0.94971 0.0
C446 C 0.79725 0.11955 0.89277 0.0
C447 C 0.77961 0.12814 0.86367 0.0
C448 C 0.82669 0.14982 0.91358 0.0
C449 C 0.79245 0.16712 0.85457 0.0
C450 C 0.82146 0.19738 0.87527 0.0
C451 C 0.8664 0.21922 0.92697 0.0
C452 C 0.88388 0.21099 0.95653 0.0
C453 C 0.83835 0.18903 0.90516 0.0
C454 C 0.87285 0.172 0.96407 0.0
C455 C 0.84425 0.14164 0.94301 0.0
H456 H 0.62036 0.76029 0.0552 0.0
H457 H 0.7227 0.84187 -0.0046 0.0
H458 H 0.72683 0.89585 0.03179 0.0
H459 H 0.70145 0.91954 0.08155 0.0
H460 H 0.60241 0.83674 0.14422 0.0
H461 H 0.59746 0.78312 0.10668 0.0
C462 C 0.64379 0.78985 0.05037 0.0
C463 C 0.67095 0.7972 0.02244 0.0
C464 C 0.64675 0.82033 0.07223 0.0
C465 C 0.70092 0.83565 0.01621 0.0
C466 C 0.70352 0.86641 0.03726 0.0
C467 C 0.67899 0.88965 0.0869 0.0
C468 C 0.65218 0.88174 0.11526 0.0
C469 C 0.67663 0.85907 0.06542 0.0
C470 C 0.62329 0.84316 0.12243 0.0
C471 C 0.62038 0.81267 0.10093 0.0
H472 H 0.87439 0.61312 0.23982 0.0
H473 H 0.89252 0.70953 0.17132 0.0
H474 H 0.84704 0.71933 0.20879 0.0
H475 H 0.80087 0.69932 0.26041 0.0
H476 H 0.78698 0.6066 0.33175 0.0
H477 H 0.83339 0.59741 0.29478 0.0
C478 C 0.8688 0.63663 0.23341 0.0
C479 C 0.88627 0.66016 0.2025 0.0
C480 C 0.84382 0.643 0.25588 0.0
C481 C 0.87856 0.69032 0.19437 0.0
C482 C 0.85293 0.69622 0.21602 0.0
C483 C 0.80858 0.67753 0.26799 0.0
C484 C 0.79075 0.65353 0.29845 0.0
C485 C 0.83524 0.6726 0.2467 0.0
C486 C 0.80069 0.62542 0.30839 0.0
C487 C 0.8269 0.62001 0.28713 0.0
H488 H 0.25539 0.88068 0.40842 0.0
H489 H 0.1731 0.89127 0.33919 0.0
H490 H 0.11925 0.84317 0.37651 0.0
H491 H 0.09548 0.79608 0.42757 0.0
H492 H 0.17773 0.78775 0.49849 0.0
H493 H 0.23196 0.83812 0.46273 0.0
C494 C 0.22571 0.87286 0.40184 0.0
C495 C 0.21815 0.88898 0.37073 0.0
C496 C 0.19502 0.8459 0.42394 0.0
C497 C 0.17955 0.87845 0.36243 0.0
C498 C 0.1488 0.85125 0.38395 0.0
C499 C 0.12537 0.80581 0.43532 0.0
C500 C 0.13293 0.78836 0.46526 0.0
C501 C 0.15617 0.83449 0.41453 0.0
C502 C 0.17152 0.80103 0.47546 0.0
C503 C 0.20239 0.82953 0.4549 0.0
H504 H 0.2833 0.17883 0.2974 0.0
H505 H 0.40599 0.25313 0.31926 0.0
H506 H 0.41815 0.20136 0.30066 0.0
H507 H 0.39241 0.13178 0.28597 0.0
H508 H 0.27117 0.05988 0.2579 0.0
H509 H 0.26033 0.11454 0.26969 0.0
C510 C 0.3129 0.18416 0.2977 0.0
C511 C 0.34314 0.21905 0.31277 0.0
C512 C 0.32001 0.15467 0.28547 0.0
C513 C 0.38141 0.22564 0.31116 0.0
C514 C 0.38863 0.19617 0.29967 0.0
C515 C 0.36388 0.1285 0.28148 0.0
C516 C 0.33251 0.09188 0.27157 0.0
C517 C 0.35787 0.16001 0.28827 0.0
C518 C 0.29576 0.0879 0.26542 0.0
C519 C 0.28948 0.11902 0.27254 0.0
H520 H 0.27317 0.39709 0.48401 0.0
H521 H 0.22341 0.30452 0.40398 0.0
H522 H 0.15843 0.29427 0.41738 0.0
H523 H 0.11522 0.30525 0.45862 0.0
H524 H 0.16673 0.3928 0.54323 0.0
H525 H 0.23127 0.41153 0.52106 0.0
C526 C 0.24825 0.37507 0.46894 0.0
C527 C 0.25313 0.35121 0.44343 0.0
C528 C 0.21107 0.36827 0.47787 0.0
C529 C 0.22053 0.32326 0.42382 0.0
C530 C 0.18331 0.31713 0.43176 0.0
C531 C 0.14063 0.32896 0.47166 0.0
C532 C 0.13589 0.3484 0.50182 0.0
C533 C 0.17811 0.33843 0.4598 0.0
C534 C 0.1691 0.37855 0.51891 0.0
C535 C 0.20626 0.38888 0.50663 0.0
H536 H 0.81653 0.10508 0.64169 0.0
H537 H 0.7418 0.15413 0.65716 0.0
H538 H 0.79383 0.21758 0.63755 0.0
H539 H 0.8635 0.26103 0.62386 0.0
H540 H 0.93618 0.21099 0.60227 0.0
H541 H 0.88151 0.14574 0.615 0.0
C542 C 0.81122 0.12939 0.64028 0.0
C543 C 0.77603 0.12523 0.65373 0.0
C544 C 0.84093 0.16568 0.62757 0.0
C545 C 0.76945 0.15687 0.65011 0.0
C546 C 0.79907 0.19321 0.63812 0.0
C547 C 0.86697 0.23565 0.62096 0.0
C548 C 0.90376 0.24068 0.61257 0.0
C549 C 0.83545 0.19829 0.62826 0.0
C550 C 0.90801 0.20772 0.60855 0.0
C551 C 0.87688 0.17048 0.61621 0.0
H552 H 0.68459 0.92152 0.75844 0.0
H553 H 0.59101 0.88911 0.83574 0.0
H554 H 0.59193 0.82977 0.85081 0.0
H555 H 0.62572 0.79276 0.84924 0.0
H556 H 0.71935 0.82371 0.77264 0.0
H557 H 0.71222 0.87815 0.75037 0.0
C558 C 0.66378 0.901 0.77789 0.0
C559 C 0.63821 0.91017 0.79632 0.0
C560 C 0.66482 0.86692 0.787 0.0
C561 C 0.61143 0.88317 0.82149 0.0
C562 C 0.61194 0.84917 0.83023 0.0
C563 C 0.64337 0.81004 0.82646 0.0
C564 C 0.67253 0.80356 0.81217 0.0
C565 C 0.63939 0.84145 0.81413 0.0
C566 C 0.69646 0.8279 0.78394 0.0
C567 C 0.6925 0.85913 0.77129 0.0
H568 H 0.73 0.61488 0.97814 0.0
H569 H 0.7857 0.71283 0.90437 0.0
H570 H 0.84842 0.71635 0.91497 0.0
H571 H 0.88847 0.69737 0.95233 0.0
H572 H 0.83146 0.60319 0.03005 0.0
H573 H 0.76843 0.59207 0.01034 0.0
C574 C 0.75572 0.63667 0.96386 0.0
C575 C 0.75329 0.66395 0.94095 0.0
C576 C 0.79161 0.63922 0.97092 0.0
C577 C 0.78678 0.69154 0.92222 0.0
C578 C 0.8227 0.69375 0.92853 0.0
C579 C 0.86214 0.67383 0.96428 0.0
C580 C 0.8649 0.65049 0.99193 0.0
C581 C 0.82566 0.66863 0.9539 0.0
C582 C 0.83054 0.62053 0.00762 0.0
C583 C 0.79427 0.61456 -0.00318 0.0
H584 H 0.18178 0.87772 0.11891 0.0
H585 H 0.22558 0.83098 0.20096 0.0
H586 H 0.17894 0.7651 0.18212 0.0
H587 H 0.11965 0.7209 0.14952 0.0
H588 H 0.07022 0.76617 0.0718 0.0
H589 H 0.12526 0.83212 0.0812 0.0
C590 C 0.18163 0.85303 0.13198 0.0
C591 C 0.20802 0.85948 0.16056 0.0
C592 C 0.15329 0.81483 0.12211 0.0
C593 C 0.20704 0.82724 0.17779 0.0
C594 C 0.17977 0.78933 0.16746 0.0
C595 C 0.12118 0.74504 0.13406 0.0
C596 C 0.09052 0.73869 0.11048 0.0
C597 C 0.152 0.78284 0.14058 0.0
C598 C 0.09334 0.77024 0.09026 0.0
C599 C 0.12465 0.80802 0.09587 0.0
H600 H 0.91628 0.6906 0.56173 0.0
H601 H 0.89246 0.60069 0.48203 0.0
H602 H 0.8322 0.59833 0.46497 0.0
H603 H 0.7916 0.62802 0.46614 0.0
H604 H 0.81306 0.71723 0.54555 0.0
H605 H 0.86914 0.71388 0.56896 0.0
C606 C 0.89747 0.66993 0.54123 0.0
C607 C 0.90935 0.64639 0.52279 0.0
C608 C 0.86266 0.66889 0.53109 0.0
C609 C 0.88449 0.61967 0.4963 0.0
C610 C 0.84991 0.61824 0.48644 0.0
C611 C 0.80711 0.64544 0.48971 0.0
C612 C 0.79747 0.67229 0.50447 0.0
C613 C 0.83936 0.64355 0.50279 0.0
C614 C 0.81969 0.69608 0.53381 0.0
C615 C 0.85185 0.69428 0.54714 0.0
H616 H 0.21217 0.91689 0.72421 0.0
H617 H 0.2823 0.88985 0.65288 0.0
H618 H 0.22543 0.82856 0.63585 0.0
H619 H 0.15534 0.7878 0.63401 0.0
H620 H 0.08339 0.81175 0.70555 0.0
H621 H 0.1414 0.86943 0.7292 0.0
C622 C 0.2151 0.89713 0.70564 0.0
C623 C 0.25141 0.90839 0.68942 0.0
C624 C 0.18191 0.86166 0.69549 0.0
C625 C 0.25465 0.88235 0.66538 0.0
C626 C 0.2221 0.84719 0.65552 0.0
C627 C 0.15209 0.80415 0.65607 0.0
C628 C 0.11485 0.79467 0.66846 0.0
C629 C 0.18543 0.83716 0.66945 0.0
C630 C 0.11172 0.81817 0.69565 0.0
C631 C 0.14489 0.85124 0.70914 0.0
H632 H 0.30394 0.22803 0.88556 0.0
H633 H 0.40174 0.29095 0.81282 0.0
H634 H 0.3991 0.2305 0.7954 0.0
H635 H 0.36383 0.1599 0.79401 0.0
H636 H 0.26726 0.09493 0.86717 0.0
H637 H 0.27408 0.15607 0.89059 0.0
C638 C 0.32521 0.22855 0.86659 0.0
C639 C 0.3526 0.264 0.85015 0.0
C640 C 0.32338 0.19331 0.85623 0.0
C641 C 0.37995 0.2641 0.82554 0.0
C642 C 0.37847 0.22949 0.81544 0.0
C643 C 0.34545 0.15876 0.81639 0.0
C644 C 0.31575 0.12265 0.82946 0.0
C645 C 0.34961 0.19386 0.82973 0.0
C646 C 0.29067 0.12234 0.85686 0.0
C647 C 0.29451 0.1573 0.87022 0.0
H648 H 0.12433 0.38886 0.00543 0.0
H649 H 0.07954 0.29005 0.0784 0.0
H650 H 0.13722 0.28404 0.0671 0.0
H651 H 0.19534 0.30103 0.02904 0.0
H652 H 0.234 0.39556 0.95143 0.0
H653 H 0.18442 0.40935 0.97238 0.0
C654 C 0.1274 0.36635 0.01941 0.0
C655 C 0.09738 0.33956 0.04224 0.0
C656 C 0.15972 0.36225 0.0118 0.0
C657 C 0.10217 0.31101 0.06059 0.0
C658 C 0.135 0.30736 0.05387 0.0
C659 C 0.19339 0.32521 0.01739 0.0
C660 C 0.21942 0.34796 0.98951 0.0
C661 C 0.16321 0.33189 0.02837 0.0
C662 C 0.216 0.37869 0.97413 0.0
C663 C 0.18696 0.38621 0.98563 0.0
H664 H 0.77603 0.08074 0.22648 0.0
H665 H 0.7131 0.12443 0.16464 0.0
H666 H 0.77385 0.18252 0.14827 0.0
H667 H 0.84411 0.21442 0.14234 0.0
H668 H 0.90869 0.17261 0.20389 0.0
H669 H 0.84791 0.11985 0.22911 0.0
C670 C 0.7756 0.10353 0.21035 0.0
C671 C 0.74013 0.09789 0.19626 0.0
C672 C 0.81091 0.13679 0.20034 0.0
C673 C 0.74005 0.12771 0.17535 0.0
C674 C 0.77481 0.16095 0.16585 0.0
C675 C 0.84538 0.19526 0.16273 0.0
C676 C 0.88113 0.19806 0.17168 0.0
C677 C 0.81042 0.16498 0.1769 0.0
C678 C 0.88153 0.17122 0.19667 0.0
C679 C 0.84678 0.14098 0.21104 0.0
H680 H 0.69902 0.88817 0.36031 0.0
H681 H 0.61932 0.83817 0.26951 0.0
H682 H 0.6077 0.77385 0.28518 0.0
H683 H 0.62467 0.73248 0.32028 0.0
H684 H 0.70748 0.7811 0.40886 0.0
H685 H 0.71301 0.8449 0.39873 0.0
C686 C 0.67858 0.86302 0.34444 0.0
C687 C 0.65921 0.86809 0.31445 0.0
C688 C 0.67286 0.82579 0.35295 0.0
C689 C 0.6334 0.8353 0.29368 0.0
C690 C 0.62713 0.79834 0.30227 0.0
C691 C 0.64367 0.75686 0.33774 0.0
C692 C 0.66595 0.75206 0.36502 0.0
C693 C 0.64727 0.79339 0.33131 0.0
C694 C 0.69002 0.78395 0.38759 0.0
C695 C 0.69337 0.82051 0.38167 0.0
H696 H 0.47305 0.44991 0.46687 0.0
H697 H 0.44229 0.414 0.35435 0.0
H698 H 0.50344 0.47046 0.33414 0.0
H699 H 0.56305 0.53165 0.3484 0.0
H700 H 0.59364 0.56756 0.46094 0.0
H701 H 0.53468 0.50877 0.48133 0.0
C702 C 0.47965 0.45426 0.43785 0.0
C703 C 0.45283 0.42804 0.41204 0.0
C704 C 0.5146 0.48669 0.42655 0.0
C705 C 0.46228 0.4338 0.3747 0.0
C706 C 0.49716 0.46611 0.36318 0.0
C707 C 0.55698 0.52668 0.37746 0.0
C708 C 0.58247 0.5543 0.40316 0.0
C709 C 0.52312 0.49304 0.38886 0.0
C710 C 0.57445 0.54693 0.44064 0.0
C711 C 0.54072 0.5134 0.45226 0.0
H712 H 0.00963 0.46296 0.64183 0.0
H713 H 0.03023 0.43553 0.53258 0.0
H714 H 0.0397 0.49803 0.51062 0.0
H715 H 0.03875 0.55836 0.5218 0.0
H716 H 0.01795 0.58619 0.63076 0.0
H717 H 0.01268 0.52554 0.65375 0.0
C718 C 0.01616 0.47057 0.61317 0.0
C719 C 0.01868 0.4443 0.58873 0.0
C720 C 0.02173 0.50657 0.60081 0.0
C721 C 0.02788 0.45502 0.55188 0.0
C722 C 0.03331 0.49076 0.53934 0.0
C723 C 0.03328 0.55139 0.55069 0.0
C724 C 0.02826 0.57659 0.5745 0.0
C725 C 0.02983 0.51646 0.56349 0.0
C726 C 0.02186 0.56733 0.61188 0.0
C727 C 0.0186 0.53255 0.62494 0.0
H728 H 0.54546 0.03375 0.80716 0.0
H729 H 0.5858 0.03827 0.69644 0.0
H730 H 0.52939 0.04101 0.67309 0.0
H731 H 0.46713 0.03778 0.68403 0.0
H732 H 0.42597 0.03205 0.79459 0.0
H733 H 0.48495 0.03449 0.81826 0.0
C734 C 0.54213 0.03549 0.77786 0.0
C735 C 0.56965 0.03529 0.75349 0.0
C736 C 0.50958 0.03673 0.76471 0.0
C737 C 0.56503 0.03815 0.71574 0.0
C738 C 0.53275 0.03963 0.70241 0.0
C739 C 0.47096 0.03719 0.71339 0.0
C740 C 0.44183 0.03418 0.73755 0.0
C741 C 0.50457 0.03822 0.72665 0.0
C742 C 0.44776 0.03415 0.77543 0.0
C743 C 0.4814 0.03542 0.78892 0.0
H744 H 0.53712 0.56482 0.96453 0.0
H745 H 0.56713 0.60563 0.85311 0.0
H746 H 0.50787 0.54818 0.83139 0.0
H747 H 0.45021 0.48512 0.84369 0.0
H748 H 0.41983 0.44364 0.95482 0.0
H749 H 0.47693 0.50325 0.97717 0.0
C750 C 0.53072 0.56132 0.93545 0.0
C751 C 0.55686 0.58934 0.91038 0.0
C752 C 0.49676 0.52818 0.92319 0.0
C753 C 0.54769 0.58452 0.87294 0.0
C754 C 0.51387 0.55163 0.86052 0.0
C755 C 0.45592 0.48898 0.87288 0.0
C756 C 0.43107 0.45964 0.89758 0.0
C757 C 0.48864 0.52305 0.88537 0.0
C758 C 0.43857 0.46562 0.93527 0.0
C759 C 0.47124 0.49963 0.94799 0.0
H760 H 0.96904 0.43124 0.02052 0.0
H761 H 0.97341 0.40023 0.13306 0.0
H762 H 0.96967 0.45721 0.15358 0.0
H763 H 0.97051 0.51813 0.13921 0.0
H764 H 0.96639 0.54914 0.0266 0.0
H765 H 0.96436 0.48919 0.0063 0.0
C766 C 0.96901 0.43678 0.04961 0.0
C767 C 0.97218 0.41191 0.0753 0.0
C768 C 0.96706 0.46951 0.06107 0.0
C769 C 0.97123 0.41903 0.1128 0.0
C770 C 0.96924 0.45165 0.12448 0.0
C771 C 0.96898 0.51176 0.11018 0.0
C772 C 0.96926 0.5384 0.08436 0.0
C773 C 0.96802 0.47748 0.09881 0.0
C774 C 0.96644 0.52927 0.04696 0.0
C775 C 0.96542 0.49509 0.03538 0.0
H776 H 0.44509 0.98386 0.30365 0.0
H777 H 0.40134 0.96652 0.19283 0.0
H778 H 0.45664 0.96065 0.1718 0.0
H779 H 0.51913 0.96511 0.1842 0.0
H780 H 0.56381 0.98296 0.29456 0.0
H781 H 0.50557 0.98324 0.31677 0.0
C782 C 0.44755 0.97872 0.27487 0.0
C783 C 0.41942 0.97625 0.24969 0.0
C784 C 0.47937 0.97539 0.26302 0.0
C785 C 0.42267 0.9688 0.21268 0.0
C786 C 0.45428 0.96547 0.20067 0.0
C787 C 0.51612 0.96884 0.21321 0.0
C788 C 0.54601 0.97466 0.2377 0.0
C789 C 0.48306 0.96943 0.22551 0.0
C790 C 0.54126 0.97858 0.27522 0.0
C791 C 0.50813 0.97898 0.28782 0.0
H792 H 0.39593 0.43043 0.71289 0.0
H793 H 0.4725 0.38267 0.71998 0.0
H794 H 0.48083 0.38751 0.65338 0.0
H795 H 0.45706 0.39473 0.59325 0.0
H796 H 0.37611 0.43739 0.58737 0.0
H797 H 0.37903 0.44555 0.65366 0.0
C798 C 0.4149 0.42158 0.69991 0.0
C799 C 0.43284 0.40535 0.72096 0.0
C800 C 0.41844 0.42325 0.6619 0.0
C801 C 0.45812 0.39492 0.70412 0.0
C802 C 0.46268 0.39747 0.6661 0.0
C803 C 0.4409 0.40677 0.60646 0.0
C804 C 0.41596 0.41493 0.58578 0.0
C805 C 0.44162 0.41002 0.64467 0.0
C806 C 0.39507 0.43045 0.603 0.0
C807 C 0.39667 0.43504 0.64081 0.0
H808 H 0.0385 0.43543 0.77528 0.0
H809 H 0.91548 0.35709 0.76031 0.0
H810 H 0.90545 0.35445 0.82658 0.0
H811 H 0.93326 0.36644 0.88835 0.0
H812 H 0.05746 0.43716 0.90273 0.0
H813 H 0.06566 0.45132 0.83712 0.0
C814 C 0.00939 0.41865 0.78655 0.0
C815 C 0.97774 0.39646 0.76329 0.0
C816 C 0.00426 0.41559 0.82454 0.0
C817 C 0.94021 0.37429 0.77799 0.0
C818 C 0.93453 0.37266 0.81577 0.0
C819 C 0.96195 0.38572 0.87714 0.0
C820 C 0.99475 0.40077 0.89996 0.0
C821 C 0.96656 0.392 0.8393 0.0
C822 C 0.0319 0.42521 0.88534 0.0
C823 C 0.03658 0.4332 0.84794 0.0
H824 H 0.55379 0.96718 0.93208 0.0
H825 H 0.62182 0.09276 0.93575 0.0
H826 H 0.61654 0.09137 0.0025 0.0
H827 H 0.60233 0.05355 0.05943 0.0
H828 H 0.53333 0.92797 0.05561 0.0
H829 H 0.52839 0.93011 0.98909 0.0
C830 C 0.56656 0.9942 0.94757 0.0
C831 C 0.58873 0.02992 0.92955 0.0
C832 C 0.56349 0.9931 0.98572 0.0
C833 C 0.60473 0.06493 0.94938 0.0
C834 C 0.60196 0.06413 0.98746 0.0
C835 C 0.58543 0.0268 0.044 0.0
C836 C 0.5689 0.99067 0.06193 0.0
C837 C 0.58291 0.02828 0.00591 0.0
C838 C 0.54645 0.9561 0.04212 0.0
C839 C 0.54386 0.95729 0.00414 0.0
H840 H 0.55836 0.62889 0.09991 0.0
H841 H 0.64344 0.5919 0.08906 0.0
H842 H 0.64586 0.58667 0.15537 0.0
H843 H 0.62994 0.60014 0.21583 0.0
H844 H 0.54765 0.64051 0.22784 0.0
H845 H 0.53748 0.63632 0.16149 0.0
C846 C 0.57673 0.61885 0.11209 0.0
C847 C 0.60097 0.61114 0.08981 0.0
C848 C 0.5788 0.61696 0.15031 0.0
C849 C 0.62481 0.59835 0.10581 0.0
C850 C 0.62628 0.59543 0.14366 0.0
C851 C 0.6095 0.60772 0.20403 0.0
C852 C 0.59011 0.62129 0.22654 0.0
C853 C 0.60444 0.60596 0.16611 0.0
C854 C 0.56315 0.63025 0.21096 0.0
C855 C 0.55743 0.62798 0.17307 0.0
H856 H 0.98694 0.58411 0.26522 0.0
H857 H 0.11208 0.643 0.25585 0.0
H858 H 0.11761 0.6373 0.32211 0.0
H859 H 0.08685 0.62397 0.38324 0.0
H860 H 0.96195 0.56972 0.3913 0.0
H861 H 0.9562 0.56467 0.32478 0.0
C862 C 0.01547 0.59536 0.27756 0.0
C863 C 0.04909 0.61464 0.2559 0.0
C864 C 0.01838 0.59286 0.31542 0.0
C865 C 0.08578 0.62832 0.2721 0.0
C866 C 0.08894 0.62519 0.30995 0.0
C867 C 0.05841 0.61008 0.37032 0.0
C868 C 0.02485 0.59736 0.39179 0.0
C869 C 0.05547 0.60869 0.332 0.0
C870 C 0.98811 0.57984 0.37504 0.0
C871 C 0.98483 0.5771 0.33712 0.0
H872 H 0.41139 0.04201 0.55118 0.0
H873 H 0.37865 0.92053 0.55795 0.0
H874 H 0.38643 0.91874 0.49158 0.0
H875 H 0.39252 0.94925 0.43142 0.0
H876 H 0.42074 0.06958 0.42558 0.0
H877 H 0.42519 0.07446 0.49213 0.0
C878 C 0.40636 0.01522 0.53821 0.0
C879 C 0.39359 0.98122 0.55911 0.0
C880 C 0.40986 0.01421 0.50029 0.0
C881 C 0.38816 0.94698 0.54223 0.0
C882 C 0.39242 0.94592 0.50434 0.0
C883 C 0.40058 0.97678 0.4447 0.0
C884 C 0.40574 0.00886 0.42382 0.0
C885 C 0.4018 0.97899 0.483 0.0
C886 C 0.41617 0.04438 0.44124 0.0
C887 C 0.41862 0.04717 0.47923 0.0
loop_
_geom_bond_atom_site_label_1
_geom_bond_atom_site_label_2
_geom_bond_distance
_geom_bond_site_symmetry_2
_ccdc_geom_bond_type
Co0 O3 1.970 . S
Co0 N17 1.989 . S
Co0 O25 1.967 . S
Co0 O32 1.920 . S
Co1 O4 1.966 . S
Co1 N10 2.022 . S
Co1 N18 1.993 . S
Co1 O26 1.941 . S
C2 O3 1.258 . S
C2 O4 1.263 . S
O3 Co0 1.970 . S
O3 C2 1.258 . S
O4 Co1 1.966 . S
O4 C2 1.263 . S
C5 O6 1.235 . S
C5 O32 1.289 . S
O6 C5 1.235 . S
C7 C9 1.400 . S
C7 N10 1.351 . S
C7 C12 1.501 . S
C8 C9 1.387 . S
C8 N11 1.341 . S
C9 C7 1.400 . S
C9 C8 1.387 . S
N10 Co1 2.022 . S
N10 C7 1.351 . S
N10 N11 1.365 . S
N11 C8 1.341 . S
N11 N10 1.365 . S
N11 H31 0.862 . S
C12 C7 1.501 . S
C12 H13 0.961 . S
C12 H14 0.961 . S
C12 H15 0.960 . S
H13 C12 0.961 . S
H14 C12 0.961 . S
H15 C12 0.960 . S
C16 N17 1.342 . S
C16 C20 1.401 . S
C16 C21 1.499 . S
N17 Co0 1.989 . S
N17 C16 1.342 . S
N17 N18 1.388 . S
N18 Co1 1.993 . S
N18 N17 1.388 . S
N18 C19 1.346 . S
C19 N18 1.346 . S
C19 C20 1.396 . S
C19 C29 1.510 . S
C20 C16 1.401 . S
C20 C19 1.396 . S
C21 C16 1.499 . S
C21 H22 0.959 . S
C21 H23 0.960 . S
C21 H24 0.961 . S
H22 C21 0.959 . S
H23 C21 0.960 . S
H24 C21 0.961 . S
O25 Co0 1.967 . S
O25 C33 1.258 . S
O26 Co1 1.941 . S
O26 C33 1.266 . S
H27 C29 0.959 . S
H28 C29 0.961 . S
C29 C19 1.510 . S
C29 H27 0.959 . S
C29 H28 0.961 . S
C29 H30 0.960 . S
H30 C29 0.960 . S
H31 N11 0.862 . S
O32 Co0 1.920 . S
O32 C5 1.289 . S
C33 O25 1.258 . S
C33 O26 1.266 . S
Co34 O37 1.970 . S
Co34 N51 1.989 . S
Co34 O59 1.967 1_455 S
Co34 O66 1.920 . S
Co35 O38 1.966 . S
Co35 N44 2.022 . S
Co35 N52 1.993 . S
Co35 O60 1.941 . S
C36 O37 1.258 . S
C36 O38 1.263 . S
O37 Co34 1.970 . S
O37 C36 1.258 . S
O38 Co35 1.966 . S
O38 C36 1.263 . S
C39 O40 1.235 . S
C39 O66 1.289 . S
O40 C39 1.235 . S
C41 C43 1.400 . S
C41 N44 1.351 . S
C41 C46 1.501 . S
C42 C43 1.387 . S
C42 N45 1.341 . S
C43 C41 1.400 . S
C43 C42 1.387 . S
N44 Co35 2.022 . S
N44 C41 1.351 . S
N44 N45 1.365 . S
N45 C42 1.341 . S
N45 N44 1.365 . S
N45 H65 0.862 . S
C46 C41 1.501 . S
C46 H47 0.961 . S
C46 H48 0.961 . S
C46 H49 0.960 . S
H47 C46 0.961 . S
H48 C46 0.961 . S
H49 C46 0.960 . S
C50 N51 1.342 . S
C50 C54 1.401 . S
C50 C55 1.499 . S
N51 Co34 1.989 . S
N51 C50 1.342 . S
N51 N52 1.388 . S
N52 Co35 1.993 . S
N52 N51 1.388 . S
N52 C53 1.346 . S
C53 N52 1.346 . S
C53 C54 1.396 . S
C53 C63 1.510 . S
C54 C50 1.401 . S
C54 C53 1.396 . S
C55 C50 1.499 . S
C55 H56 0.959 . S
C55 H57 0.960 . S
C55 H58 0.961 . S
H56 C55 0.959 . S
H57 C55 0.960 . S
H58 C55 0.961 . S
O59 Co34 1.967 1_655 S
O59 C67 1.258 . S
O60 Co35 1.941 . S
O60 C67 1.266 1_455 S
H61 C63 0.959 . S
H62 C63 0.961 . S
C63 C53 1.510 . S
C63 H61 0.959 . S
C63 H62 0.961 . S
C63 H64 0.960 . S
H64 C63 0.960 . S
H65 N45 0.862 . S
O66 Co34 1.920 . S
O66 C39 1.289 . S
C67 O59 1.258 . S
C67 O60 1.266 1_655 S
Co68 O71 1.970 . S
Co68 N85 1.989 . S
Co68 O93 1.967 1_545 S
Co68 O100 1.920 . S
Co69 O72 1.966 . S
Co69 N78 2.022 . S
Co69 N86 1.993 . S
Co69 O94 1.941 . S
C70 O71 1.258 . S
C70 O72 1.263 . S
O71 Co68 1.970 . S
O71 C70 1.258 . S
O72 Co69 1.966 . S
O72 C70 1.263 . S
C73 O74 1.235 . S
C73 O100 1.289 . S
O74 C73 1.235 . S
C75 C77 1.400 . S
C75 N78 1.351 . S
C75 C80 1.501 . S
C76 C77 1.387 . S
C76 N79 1.341 . S
C77 C75 1.400 . S
C77 C76 1.387 . S
N78 Co69 2.022 . S
N78 C75 1.351 . S
N78 N79 1.365 . S
N79 C76 1.341 . S
N79 N78 1.365 . S
N79 H99 0.862 . S
C80 C75 1.501 . S
C80 H81 0.961 . S
C80 H82 0.961 . S
C80 H83 0.960 . S
H81 C80 0.961 . S
H82 C80 0.961 . S
H83 C80 0.960 . S
C84 N85 1.342 . S
C84 C88 1.401 . S
C84 C89 1.499 . S
N85 Co68 1.989 . S
N85 C84 1.342 . S
N85 N86 1.388 . S
N86 Co69 1.993 . S
N86 N85 1.388 . S
N86 C87 1.346 . S
C87 N86 1.346 . S
C87 C88 1.396 . S
C87 C97 1.510 . S
C88 C84 1.401 . S
C88 C87 1.396 . S
C89 C84 1.499 . S
C89 H90 0.959 . S
C89 H91 0.960 . S
C89 H92 0.961 . S
H90 C89 0.959 . S
H91 C89 0.960 . S
H92 C89 0.961 . S
O93 Co68 1.967 1_565 S
O93 C101 1.258 . S
O94 Co69 1.941 . S
O94 C101 1.266 1_545 S
H95 C97 0.959 . S
H96 C97 0.961 . S
C97 C87 1.510 . S
C97 H95 0.959 . S
C97 H96 0.961 . S
C97 H98 0.960 . S
H98 C97 0.960 . S
H99 N79 0.862 . S
O100 Co68 1.920 . S
O100 C73 1.289 . S
C101 O93 1.258 . S
C101 O94 1.266 1_565 S
Co102 O105 1.970 . S
Co102 N119 1.989 . S
Co102 O127 1.967 . S
Co102 O134 1.920 1_556 S
Co103 O106 1.966 . S
Co103 N112 2.022 . S
Co103 N120 1.993 . S
Co103 O128 1.941 . S
C104 O105 1.258 . S
C104 O106 1.263 . S
O105 Co102 1.970 . S
O105 C104 1.258 . S
O106 Co103 1.966 . S
O106 C104 1.263 . S
C107 O108 1.235 . S
C107 O134 1.289 . S
O108 C107 1.235 . S
C109 C111 1.400 . S
C109 N112 1.351 . S
C109 C114 1.501 . S
C110 C111 1.387 . S
C110 N113 1.341 . S
C111 C109 1.400 . S
C111 C110 1.387 . S
N112 Co103 2.022 . S
N112 C109 1.351 . S
N112 N113 1.365 . S
N113 C110 1.341 . S
N113 N112 1.365 . S
N113 H133 0.862 . S
C114 C109 1.501 . S
C114 H115 0.961 . S
C114 H116 0.961 . S
C114 H117 0.960 . S
H115 C114 0.961 . S
H116 C114 0.961 . S
H117 C114 0.960 . S
C118 N119 1.339 1_554 S
C118 C122 1.401 . S
C118 C123 1.499 . S
N119 Co102 1.989 . S
N119 C118 1.339 1_556 S
N119 N120 1.391 . S
N120 Co103 1.993 . S
N120 N119 1.391 . S
N120 C121 1.346 . S
C121 N120 1.346 . S
C121 C122 1.396 1_556 S
C121 C131 1.510 . S
C122 C118 1.401 . S
C122 C121 1.396 1_554 S
C123 C118 1.499 . S
C123 H124 0.959 . S
C123 H125 0.960 . S
C123 H126 0.961 . S
H124 C123 0.959 . S
H125 C123 0.960 . S
H126 C123 0.961 . S
O127 Co102 1.967 . S
O127 C135 1.258 . S
O128 Co103 1.941 . S
O128 C135 1.266 . S
H129 C131 0.959 . S
H130 C131 0.961 . S
C131 C121 1.510 . S
C131 H129 0.959 . S
C131 H130 0.961 . S
C131 H132 0.960 . S
H132 C131 0.960 . S
H133 N113 0.862 . S
O134 Co102 1.920 1_554 S
O134 C107 1.289 . S
C135 O127 1.258 . S
C135 O128 1.266 . S
Co136 O139 1.970 . S
Co136 N153 1.989 . S
Co136 O161 1.967 1_655 S
Co136 O168 1.920 . S
Co137 O140 1.966 . S
Co137 N146 2.022 . S
Co137 N154 1.993 . S
Co137 O162 1.941 . S
C138 O139 1.258 . S
C138 O140 1.263 . S
O139 Co136 1.970 . S
O139 C138 1.258 . S
O140 Co137 1.966 . S
O140 C138 1.263 . S
C141 O142 1.235 . S
C141 O168 1.289 . S
O142 C141 1.235 . S
C143 C145 1.400 . S
C143 N146 1.351 . S
C143 C148 1.501 . S
C144 C145 1.387 . S
C144 N147 1.341 . S
C145 C143 1.400 . S
C145 C144 1.387 . S
N146 Co137 2.022 . S
N146 C143 1.351 . S
N146 N147 1.365 . S
N147 C144 1.341 . S
N147 N146 1.365 . S
N147 H167 0.862 . S
C148 C143 1.501 . S
C148 H149 0.961 . S
C148 H150 0.961 . S
C148 H151 0.960 1_554 S
H149 C148 0.961 . S
H150 C148 0.961 . S
H151 C148 0.960 1_556 S
C152 N153 1.342 . S
C152 C156 1.401 . S
C152 C157 1.499 . S
N153 Co136 1.989 . S
N153 C152 1.342 . S
N153 N154 1.388 . S
N154 Co137 1.993 . S
N154 N153 1.388 . S
N154 C155 1.346 . S
C155 N154 1.346 . S
C155 C156 1.396 . S
C155 C165 1.510 . S
C156 C152 1.401 . S
C156 C155 1.396 . S
C157 C152 1.499 . S
C157 H158 0.959 . S
C157 H159 0.960 . S
C157 H160 0.961 . S
H158 C157 0.959 . S
H159 C157 0.960 . S
H160 C157 0.961 . S
O161 Co136 1.967 1_455 S
O161 C169 1.258 . S
O162 Co137 1.941 . S
O162 C169 1.266 1_655 S
H163 C165 0.959 . S
H164 C165 0.961 . S
C165 C155 1.510 . S
C165 H163 0.959 . S
C165 H164 0.961 . S
C165 H166 0.960 . S
H166 C165 0.960 . S
H167 N147 0.862 . S
O168 Co136 1.920 . S
O168 C141 1.289 . S
C169 O161 1.258 . S
C169 O162 1.266 1_455 S
Co170 O173 1.970 . S
Co170 N187 1.989 . S
Co170 O195 1.967 1_565 S
Co170 O202 1.920 . S
Co171 O174 1.966 . S
Co171 N180 2.022 . S
Co171 N188 1.993 . S
Co171 O196 1.941 . S
C172 O173 1.258 . S
C172 O174 1.263 . S
O173 Co170 1.970 . S
O173 C172 1.258 . S
O174 Co171 1.966 . S
O174 C172 1.263 . S
C175 O176 1.235 . S
C175 O202 1.289 . S
O176 C175 1.235 . S
C177 C179 1.400 . S
C177 N180 1.351 . S
C177 C182 1.501 . S
C178 C179 1.387 . S
C178 N181 1.341 . S
C179 C177 1.400 . S
C179 C178 1.387 . S
N180 Co171 2.022 . S
N180 C177 1.351 . S
N180 N181 1.365 . S
N181 C178 1.341 . S
N181 N180 1.365 . S
N181 H201 0.862 . S
C182 C177 1.501 . S
C182 H183 0.961 . S
C182 H184 0.961 . S
C182 H185 0.960 . S
H183 C182 0.961 . S
H184 C182 0.961 . S
H185 C182 0.960 . S
C186 N187 1.342 . S
C186 C190 1.401 . S
C186 C191 1.499 . S
N187 Co170 1.989 . S
N187 C186 1.342 . S
N187 N188 1.388 . S
N188 Co171 1.993 . S
N188 N187 1.388 . S
N188 C189 1.346 . S
C189 N188 1.346 . S
C189 C190 1.396 . S
C189 C199 1.510 . S
C190 C186 1.401 . S
C190 C189 1.396 . S
C191 C186 1.499 . S
C191 H192 0.959 . S
C191 H193 0.960 . S
C191 H194 0.961 . S
H192 C191 0.959 . S
H193 C191 0.960 . S
H194 C191 0.961 . S
O195 Co170 1.967 1_545 S
O195 C203 1.258 . S
O196 Co171 1.941 . S
O196 C203 1.266 1_565 S
H197 C199 0.959 . S
H198 C199 0.961 . S
C199 C189 1.510 . S
C199 H197 0.959 . S
C199 H198 0.961 . S
C199 H200 0.960 . S
H200 C199 0.960 . S
H201 N181 0.862 . S
O202 Co170 1.920 . S
O202 C175 1.289 . S
C203 O195 1.258 . S
C203 O196 1.266 1_545 S
Co204 O207 1.970 . S
Co204 N221 1.989 . S
Co204 O229 1.967 . S
Co204 O236 1.920 . S
Co205 O208 1.966 . S
Co205 N214 2.022 . S
Co205 N222 1.993 . S
Co205 O230 1.941 . S
C206 O207 1.258 . S
C206 O208 1.263 . S
O207 Co204 1.970 . S
O207 C206 1.258 . S
O208 Co205 1.966 . S
O208 C206 1.263 . S
C209 O210 1.235 . S
C209 O236 1.289 . S
O210 C209 1.235 . S
C211 C213 1.400 . S
C211 N214 1.351 . S
C211 C216 1.501 . S
C212 C213 1.387 . S
C212 N215 1.341 . S
C213 C211 1.400 . S
C213 C212 1.387 . S
N214 Co205 2.022 . S
N214 C211 1.351 . S
N214 N215 1.365 . S
N215 C212 1.341 . S
N215 N214 1.365 . S
N215 H235 0.862 . S
C216 C211 1.501 . S
C216 H217 0.961 . S
C216 H218 0.961 . S
C216 H219 0.960 . S
H217 C216 0.961 . S
H218 C216 0.961 . S
H219 C216 0.960 . S
C220 N221 1.342 . S
C220 C224 1.401 . S
C220 C225 1.499 . S
N221 Co204 1.989 . S
N221 C220 1.342 . S
N221 N222 1.388 . S
N222 Co205 1.993 . S
N222 N221 1.388 . S
N222 C223 1.346 . S
C223 N222 1.346 . S
C223 C224 1.396 . S
C223 C233 1.510 . S
C224 C220 1.401 . S
C224 C223 1.396 . S
C225 C220 1.499 . S
C225 H226 0.959 . S
C225 H227 0.960 . S
C225 H228 0.961 . S
H226 C225 0.959 . S
H227 C225 0.960 . S
H228 C225 0.961 . S
O229 Co204 1.967 . S
O229 C237 1.258 . S
O230 Co205 1.941 . S
O230 C237 1.266 . S
H231 C233 0.959 . S
H232 C233 0.961 . S
C233 C223 1.510 . S
C233 H231 0.959 . S
C233 H232 0.961 . S
C233 H234 0.960 . S
H234 C233 0.960 . S
H235 N215 0.862 . S
O236 Co204 1.920 . S
O236 C209 1.289 . S
C237 O229 1.258 . S
C237 O230 1.266 . S
Co238 O241 1.970 . S
Co238 N255 1.989 . S
Co238 O263 1.967 1_455 S
Co238 O270 1.920 . S
Co239 O242 1.966 . S
Co239 N248 2.022 . S
Co239 N256 1.993 . S
Co239 O264 1.941 . S
C240 O241 1.258 . S
C240 O242 1.263 . S
O241 Co238 1.970 . S
O241 C240 1.258 . S
O242 Co239 1.966 . S
O242 C240 1.263 . S
C243 O244 1.235 . S
C243 O270 1.289 . S
O244 C243 1.235 . S
C245 C247 1.400 . S
C245 N248 1.351 . S
C245 C250 1.501 . S
C246 C247 1.387 . S
C246 N249 1.341 . S
C247 C245 1.400 . S
C247 C246 1.387 . S
N248 Co239 2.022 . S
N248 C245 1.351 . S
N248 N249 1.365 . S
N249 C246 1.341 . S
N249 N248 1.365 . S
N249 H269 0.862 . S
C250 C245 1.501 . S
C250 H251 0.961 . S
C250 H252 0.961 . S
C250 H253 0.960 . S
H251 C250 0.961 . S
H252 C250 0.961 . S
H253 C250 0.960 . S
C254 N255 1.342 . S
C254 C258 1.401 . S
C254 C259 1.499 . S
N255 Co238 1.989 . S
N255 C254 1.342 . S
N255 N256 1.388 . S
N256 Co239 1.993 . S
N256 N255 1.388 . S
N256 C257 1.346 . S
C257 N256 1.346 . S
C257 C258 1.396 . S
C257 C267 1.510 . S
C258 C254 1.401 . S
C258 C257 1.396 . S
C259 C254 1.499 . S
C259 H260 0.959 . S
C259 H261 0.960 . S
C259 H262 0.961 . S
H260 C259 0.959 . S
H261 C259 0.960 . S
H262 C259 0.961 . S
O263 Co238 1.967 1_655 S
O263 C271 1.258 . S
O264 Co239 1.941 . S
O264 C271 1.266 1_455 S
H265 C267 0.959 . S
H266 C267 0.961 . S
C267 C257 1.510 . S
C267 H265 0.959 . S
C267 H266 0.961 . S
C267 H268 0.960 . S
H268 C267 0.960 . S
H269 N249 0.862 . S
O270 Co238 1.920 . S
O270 C243 1.289 . S
C271 O263 1.258 . S
C271 O264 1.266 1_655 S
Co272 O275 1.970 . S
Co272 N289 1.989 . S
Co272 O297 1.967 1_545 S
Co272 O304 1.920 . S
Co273 O276 1.966 . S
Co273 N282 2.022 . S
Co273 N290 1.993 . S
Co273 O298 1.941 . S
C274 O275 1.258 . S
C274 O276 1.263 . S
O275 Co272 1.970 . S
O275 C274 1.258 . S
O276 Co273 1.966 . S
O276 C274 1.263 . S
C277 O278 1.235 . S
C277 O304 1.289 . S
O278 C277 1.235 . S
C279 C281 1.400 . S
C279 N282 1.351 . S
C279 C284 1.501 . S
C280 C281 1.387 . S
C280 N283 1.341 . S
C281 C279 1.400 . S
C281 C280 1.387 . S
N282 Co273 2.022 . S
N282 C279 1.351 . S
N282 N283 1.365 . S
N283 C280 1.341 . S
N283 N282 1.365 . S
N283 H303 0.862 . S
C284 C279 1.501 . S
C284 H285 0.961 . S
C284 H286 0.961 . S
C284 H287 0.960 . S
H285 C284 0.961 . S
H286 C284 0.961 . S
H287 C284 0.960 . S
C288 N289 1.342 . S
C288 C292 1.401 . S
C288 C293 1.499 . S
N289 Co272 1.989 . S
N289 C288 1.342 . S
N289 N290 1.388 . S
N290 Co273 1.993 . S
N290 N289 1.388 . S
N290 C291 1.346 . S
C291 N290 1.346 . S
C291 C292 1.396 . S
C291 C301 1.510 . S
C292 C288 1.401 . S
C292 C291 1.396 . S
C293 C288 1.499 . S
C293 H294 0.959 . S
C293 H295 0.960 . S
C293 H296 0.961 . S
H294 C293 0.959 . S
H295 C293 0.960 . S
H296 C293 0.961 . S
O297 Co272 1.967 1_565 S
O297 C305 1.258 . S
O298 Co273 1.941 . S
O298 C305 1.266 1_545 S
H299 C301 0.959 . S
H300 C301 0.961 . S
C301 C291 1.510 . S
C301 H299 0.959 . S
C301 H300 0.961 . S
C301 H302 0.960 . S
H302 C301 0.960 . S
H303 N283 0.862 . S
O304 Co272 1.920 . S
O304 C277 1.289 . S
C305 O297 1.258 . S
C305 O298 1.266 1_565 S
Co306 O309 1.970 . S
Co306 N323 1.989 . S
Co306 O331 1.967 . S
Co306 O338 1.920 . S
Co307 O310 1.966 . S
Co307 N316 2.022 . S
Co307 N324 1.993 . S
Co307 O332 1.941 . S
C308 O309 1.258 . S
C308 O310 1.263 . S
O309 Co306 1.970 . S
O309 C308 1.258 . S
O310 Co307 1.966 . S
O310 C308 1.263 . S
C311 O312 1.235 . S
C311 O338 1.289 . S
O312 C311 1.235 . S
C313 C315 1.400 . S
C313 N316 1.351 . S
C313 C318 1.501 . S
C314 C315 1.387 . S
C314 N317 1.341 . S
C315 C313 1.400 . S
C315 C314 1.387 . S
N316 Co307 2.022 . S
N316 C313 1.351 . S
N316 N317 1.365 . S
N317 C314 1.341 . S
N317 N316 1.365 . S
N317 H337 0.862 . S
C318 C313 1.501 . S
C318 H319 0.961 . S
C318 H320 0.961 . S
C318 H321 0.960 1_556 S
H319 C318 0.961 . S
H320 C318 0.961 . S
H321 C318 0.960 1_554 S
C322 N323 1.342 . S
C322 C326 1.401 . S
C322 C327 1.499 . S
N323 Co306 1.989 . S
N323 C322 1.342 . S
N323 N324 1.388 . S
N324 Co307 1.993 . S
N324 N323 1.388 . S
N324 C325 1.346 . S
C325 N324 1.346 . S
C325 C326 1.396 . S
C325 C335 1.510 . S
C326 C322 1.401 . S
C326 C325 1.396 . S
C327 C322 1.499 . S
C327 H328 0.959 . S
C327 H329 0.960 . S
C327 H330 0.961 . S
H328 C327 0.959 . S
H329 C327 0.960 . S
H330 C327 0.961 . S
O331 Co306 1.967 . S
O331 C339 1.258 . S
O332 Co307 1.941 . S
O332 C339 1.266 . S
H333 C335 0.959 . S
H334 C335 0.961 . S
C335 C325 1.510 . S
C335 H333 0.959 . S
C335 H334 0.961 . S
C335 H336 0.960 . S
H336 C335 0.960 . S
H337 N317 0.862 . S
O338 Co306 1.920 . S
O338 C311 1.289 . S
C339 O331 1.258 . S
C339 O332 1.266 . S
Co340 O343 1.970 . S
Co340 N357 1.989 . S
Co340 O365 1.967 1_655 S
Co340 O372 1.920 1_554 S
Co341 O344 1.966 . S
Co341 N350 2.022 . S
Co341 N358 1.993 . S
Co341 O366 1.941 . S
C342 O343 1.258 . S
C342 O344 1.263 . S
O343 Co340 1.970 . S
O343 C342 1.258 . S
O344 Co341 1.966 . S
O344 C342 1.263 . S
C345 O346 1.235 . S
C345 O372 1.289 . S
O346 C345 1.235 . S
C347 C349 1.400 . S
C347 N350 1.351 . S
C347 C352 1.501 . S
C348 C349 1.387 . S
C348 N351 1.341 . S
C349 C347 1.400 . S
C349 C348 1.387 . S
N350 Co341 2.022 . S
N350 C347 1.351 . S
N350 N351 1.365 . S
N351 C348 1.341 . S
N351 N350 1.365 . S
N351 H371 0.862 . S
C352 C347 1.501 . S
C352 H353 0.961 . S
C352 H354 0.961 . S
C352 H355 0.960 . S
H353 C352 0.961 . S
H354 C352 0.961 . S
H355 C352 0.960 . S
C356 N357 1.339 1_556 S
C356 C360 1.401 . S
C356 C361 1.499 . S
N357 Co340 1.989 . S
N357 C356 1.339 1_554 S
N357 N358 1.391 . S
N358 Co341 1.993 . S
N358 N357 1.391 . S
N358 C359 1.346 . S
C359 N358 1.346 . S
C359 C360 1.396 1_554 S
C359 C369 1.510 . S
C360 C356 1.401 . S
C360 C359 1.396 1_556 S
C361 C356 1.499 . S
C361 H362 0.959 . S
C361 H363 0.960 . S
C361 H364 0.961 . S
H362 C361 0.959 . S
H363 C361 0.960 . S
H364 C361 0.961 . S
O365 Co340 1.967 1_455 S
O365 C373 1.258 . S
O366 Co341 1.941 . S
O366 C373 1.266 1_655 S
H367 C369 0.959 . S
H368 C369 0.961 . S
C369 C359 1.510 . S
C369 H367 0.959 . S
C369 H368 0.961 . S
C369 H370 0.960 . S
H370 C369 0.960 . S
H371 N351 0.862 . S
O372 Co340 1.920 1_556 S
O372 C345 1.289 . S
C373 O365 1.258 . S
C373 O366 1.266 1_455 S
Co374 O377 1.970 . S
Co374 N391 1.989 . S
Co374 O399 1.967 1_565 S
Co374 O406 1.920 . S
Co375 O378 1.966 . S
Co375 N384 2.022 . S
Co375 N392 1.993 . S
Co375 O400 1.941 . S
C376 O377 1.258 . S
C376 O378 1.263 . S
O377 Co374 1.970 . S
O377 C376 1.258 . S
O378 Co375 1.966 . S
O378 C376 1.263 . S
C379 O380 1.235 . S
C379 O406 1.289 . S
O380 C379 1.235 . S
C381 C383 1.400 . S
C381 N384 1.351 . S
C381 C386 1.501 . S
C382 C383 1.387 . S
C382 N385 1.341 . S
C383 C381 1.400 . S
C383 C382 1.387 . S
N384 Co375 2.022 . S
N384 C381 1.351 . S
N384 N385 1.365 . S
N385 C382 1.341 . S
N385 N384 1.365 . S
N385 H405 0.862 . S
C386 C381 1.501 . S
C386 H387 0.961 . S
C386 H388 0.961 . S
C386 H389 0.960 . S
H387 C386 0.961 . S
H388 C386 0.961 . S
H389 C386 0.960 . S
C390 N391 1.342 . S
C390 C394 1.401 . S
C390 C395 1.499 . S
N391 Co374 1.989 . S
N391 C390 1.342 . S
N391 N392 1.388 . S
N392 Co375 1.993 . S
N392 N391 1.388 . S
N392 C393 1.346 . S
C393 N392 1.346 . S
C393 C394 1.396 . S
C393 C403 1.510 . S
C394 C390 1.401 . S
C394 C393 1.396 . S
C395 C390 1.499 . S
C395 H396 0.959 . S
C395 H397 0.960 . S
C395 H398 0.961 . S
H396 C395 0.959 . S
H397 C395 0.960 . S
H398 C395 0.961 . S
O399 Co374 1.967 1_545 S
O399 C407 1.258 . S
O400 Co375 1.941 . S
O400 C407 1.266 1_565 S
H401 C403 0.959 . S
H402 C403 0.961 . S
C403 C393 1.510 . S
C403 H401 0.959 . S
C403 H402 0.961 . S
C403 H404 0.960 . S
H404 C403 0.960 . S
H405 N385 0.862 . S
O406 Co374 1.920 . S
O406 C379 1.289 . S
C407 O399 1.258 . S
C407 O400 1.266 1_545 S
H408 C414 0.930 . S
H409 C417 0.930 . S
H410 C418 0.930 . S
H411 C419 0.930 . S
H412 C422 0.930 . S
H413 C423 0.930 . S
C414 H408 0.930 . S
C414 C415 1.355 . S
C414 C416 1.415 . S
C415 C414 1.355 . S
C415 C417 1.419 . S
C416 C414 1.415 . S
C416 C421 1.425 . S
C416 C423 1.409 . S
C417 H409 0.930 . S
C417 C415 1.419 . S
C417 C418 1.362 . S
C418 H410 0.930 . S
C418 C417 1.362 . S
C418 C421 1.409 . S
C419 H411 0.930 . S
C419 C420 1.355 . S
C419 C421 1.415 . S
C420 C419 1.355 . S
C420 C422 1.419 . S
C421 C416 1.425 . S
C421 C418 1.409 . S
C421 C419 1.415 . S
C422 H412 0.930 . S
C422 C420 1.419 . S
C422 C423 1.362 . S
C423 H413 0.930 . S
C423 C416 1.409 . S
C423 C422 1.362 . S
H424 C430 0.930 . S
H425 C433 0.930 . S
H426 C434 0.930 . S
H427 C435 0.930 . S
H428 C438 0.930 . S
H429 C439 0.930 . S
C430 H424 0.930 . S
C430 C431 1.355 . S
C430 C432 1.415 . S
C431 C430 1.355 . S
C431 C433 1.419 . S
C432 C430 1.415 . S
C432 C437 1.425 . S
C432 C439 1.409 . S
C433 H425 0.930 . S
C433 C431 1.419 . S
C433 C434 1.362 . S
C434 H426 0.930 . S
C434 C433 1.362 . S
C434 C437 1.409 . S
C435 H427 0.930 . S
C435 C436 1.355 . S
C435 C437 1.415 . S
C436 C435 1.355 . S
C436 C438 1.419 . S
C437 C432 1.425 . S
C437 C434 1.409 . S
C437 C435 1.415 . S
C438 H428 0.930 . S
C438 C436 1.419 . S
C438 C439 1.362 . S
C439 H429 0.930 . S
C439 C432 1.409 . S
C439 C438 1.362 . S
H440 C446 0.930 . S
H441 C449 0.930 . S
H442 C450 0.930 . S
H443 C451 0.930 . S
H444 C454 0.930 1_554 S
H445 C455 0.930 . S
C446 H440 0.930 . S
C446 C447 1.355 . S
C446 C448 1.415 . S
C447 C446 1.355 . S
C447 C449 1.419 . S
C448 C446 1.415 . S
C448 C453 1.425 . S
C448 C455 1.409 . S
C449 H441 0.930 . S
C449 C447 1.419 . S
C449 C450 1.362 . S
C450 H442 0.930 . S
C450 C449 1.362 . S
C450 C453 1.409 . S
C451 H443 0.930 . S
C451 C452 1.355 . S
C451 C453 1.415 . S
C452 C451 1.355 . S
C452 C454 1.419 . S
C453 C448 1.425 . S
C453 C450 1.409 . S
C453 C451 1.415 . S
C454 H444 0.930 1_556 S
C454 C452 1.419 . S
C454 C455 1.362 . S
C455 H445 0.930 . S
C455 C448 1.409 . S
C455 C454 1.362 . S
H456 C462 0.930 . S
H457 C465 0.930 . S
H458 C466 0.930 . S
H459 C467 0.930 . S
H460 C470 0.930 . S
H461 C471 0.930 . S
C462 H456 0.930 . S
C462 C463 1.355 . S
C462 C464 1.415 . S
C463 C462 1.355 . S
C463 C465 1.419 . S
C464 C462 1.415 . S
C464 C469 1.425 . S
C464 C471 1.409 . S
C465 H457 0.930 . S
C465 C463 1.419 . S
C465 C466 1.362 . S
C466 H458 0.930 . S
C466 C465 1.362 . S
C466 C469 1.409 . S
C467 H459 0.930 . S
C467 C468 1.355 . S
C467 C469 1.415 . S
C468 C467 1.355 . S
C468 C470 1.419 . S
C469 C464 1.425 . S
C469 C466 1.409 . S
C469 C467 1.415 . S
C470 H460 0.930 . S
C470 C468 1.419 . S
C470 C471 1.362 . S
C471 H461 0.930 . S
C471 C464 1.409 . S
C471 C470 1.362 . S
H472 C478 0.930 . S
H473 C481 0.930 . S
H474 C482 0.930 . S
H475 C483 0.930 . S
H476 C486 0.930 . S
H477 C487 0.930 . S
C478 H472 0.930 . S
C478 C479 1.355 . S
C478 C480 1.415 . S
C479 C478 1.355 . S
C479 C481 1.419 . S
C480 C478 1.415 . S
C480 C485 1.425 . S
C480 C487 1.409 . S
C481 H473 0.930 . S
C481 C479 1.419 . S
C481 C482 1.362 . S
C482 H474 0.930 . S
C482 C481 1.362 . S
C482 C485 1.409 . S
C483 H475 0.930 . S
C483 C484 1.355 . S
C483 C485 1.415 . S
C484 C483 1.355 . S
C484 C486 1.419 . S
C485 C480 1.425 . S
C485 C482 1.409 . S
C485 C483 1.415 . S
C486 H476 0.930 . S
C486 C484 1.419 . S
C486 C487 1.362 . S
C487 H477 0.930 . S
C487 C480 1.409 . S
C487 C486 1.362 . S
H488 C494 0.930 . S
H489 C497 0.930 . S
H490 C498 0.930 . S
H491 C499 0.930 . S
H492 C502 0.930 . S
H493 C503 0.930 . S
C494 H488 0.930 . S
C494 C495 1.355 . S
C494 C496 1.415 . S
C495 C494 1.355 . S
C495 C497 1.419 . S
C496 C494 1.415 . S
C496 C501 1.425 . S
C496 C503 1.409 . S
C497 H489 0.930 . S
C497 C495 1.419 . S
C497 C498 1.362 . S
C498 H490 0.930 . S
C498 C497 1.362 . S
C498 C501 1.409 . S
C499 H491 0.930 . S
C499 C500 1.355 . S
C499 C501 1.415 . S
C500 C499 1.355 . S
C500 C502 1.419 . S
C501 C496 1.425 . S
C501 C498 1.409 . S
C501 C499 1.415 . S
C502 H492 0.930 . S
C502 C500 1.419 . S
C502 C503 1.362 . S
C503 H493 0.930 . S
C503 C496 1.409 . S
C503 C502 1.362 . S
H504 C510 0.930 . S
H505 C513 0.930 . S
H506 C514 0.930 . S
H507 C515 0.930 . S
H508 C518 0.930 . S
H509 C519 0.930 . S
C510 H504 0.930 . S
C510 C511 1.355 . S
C510 C512 1.415 . S
C511 C510 1.355 . S
C511 C513 1.419 . S
C512 C510 1.415 . S
C512 C517 1.425 . S
C512 C519 1.409 . S
C513 H505 0.930 . S
C513 C511 1.419 . S
C513 C514 1.362 . S
C514 H506 0.930 . S
C514 C513 1.362 . S
C514 C517 1.409 . S
C515 H507 0.930 . S
C515 C516 1.355 . S
C515 C517 1.415 . S
C516 C515 1.355 . S
C516 C518 1.419 . S
C517 C512 1.425 . S
C517 C514 1.409 . S
C517 C515 1.415 . S
C518 H508 0.930 . S
C518 C516 1.419 . S
C518 C519 1.362 . S
C519 H509 0.930 . S
C519 C512 1.409 . S
C519 C518 1.362 . S
H520 C526 0.930 . S
H521 C529 0.930 . S
H522 C530 0.930 . S
H523 C531 0.930 . S
H524 C534 0.930 . S
H525 C535 0.930 . S
C526 H520 0.930 . S
C526 C527 1.355 . S
C526 C528 1.415 . S
C527 C526 1.355 . S
C527 C529 1.419 . S
C528 C526 1.415 . S
C528 C533 1.425 . S
C528 C535 1.409 . S
C529 H521 0.930 . S
C529 C527 1.419 . S
C529 C530 1.362 . S
C530 H522 0.930 . S
C530 C529 1.362 . S
C530 C533 1.409 . S
C531 H523 0.930 . S
C531 C532 1.355 . S
C531 C533 1.415 . S
C532 C531 1.355 . S
C532 C534 1.419 . S
C533 C528 1.425 . S
C533 C530 1.409 . S
C533 C531 1.415 . S
C534 H524 0.930 . S
C534 C532 1.419 . S
C534 C535 1.362 . S
C535 H525 0.930 . S
C535 C528 1.409 . S
C535 C534 1.362 . S
H536 C542 0.930 . S
H537 C545 0.930 . S
H538 C546 0.930 . S
H539 C547 0.930 . S
H540 C550 0.930 . S
H541 C551 0.930 . S
C542 H536 0.930 . S
C542 C543 1.355 . S
C542 C544 1.415 . S
C543 C542 1.355 . S
C543 C545 1.419 . S
C544 C542 1.415 . S
C544 C549 1.425 . S
C544 C551 1.409 . S
C545 H537 0.930 . S
C545 C543 1.419 . S
C545 C546 1.362 . S
C546 H538 0.930 . S
C546 C545 1.362 . S
C546 C549 1.409 . S
C547 H539 0.930 . S
C547 C548 1.355 . S
C547 C549 1.415 . S
C548 C547 1.355 . S
C548 C550 1.419 . S
C549 C544 1.425 . S
C549 C546 1.409 . S
C549 C547 1.415 . S
C550 H540 0.930 . S
C550 C548 1.419 . S
C550 C551 1.362 . S
C551 H541 0.930 . S
C551 C544 1.409 . S
C551 C550 1.362 . S
H552 C558 0.930 . S
H553 C561 0.930 . S
H554 C562 0.930 . S
H555 C563 0.930 . S
H556 C566 0.930 . S
H557 C567 0.930 . S
C558 H552 0.930 . S
C558 C559 1.355 . S
C558 C560 1.415 . S
C559 C558 1.355 . S
C559 C561 1.419 . S
C560 C558 1.415 . S
C560 C565 1.425 . S
C560 C567 1.409 . S
C561 H553 0.930 . S
C561 C559 1.419 . S
C561 C562 1.362 . S
C562 H554 0.930 . S
C562 C561 1.362 . S
C562 C565 1.409 . S
C563 H555 0.930 . S
C563 C564 1.355 . S
C563 C565 1.415 . S
C564 C563 1.355 . S
C564 C566 1.419 . S
C565 C560 1.425 . S
C565 C562 1.409 . S
C565 C563 1.415 . S
C566 H556 0.930 . S
C566 C564 1.419 . S
C566 C567 1.362 . S
C567 H557 0.930 . S
C567 C560 1.409 . S
C567 C566 1.362 . S
H568 C574 0.930 . S
H569 C577 0.930 . S
H570 C578 0.930 . S
H571 C579 0.930 . S
H572 C582 0.930 1_554 S
H573 C583 0.930 1_554 S
C574 H568 0.930 . S
C574 C575 1.355 . S
C574 C576 1.415 . S
C575 C574 1.355 . S
C575 C577 1.419 . S
C576 C574 1.415 . S
C576 C581 1.425 . S
C576 C583 1.409 . S
C577 H569 0.930 . S
C577 C575 1.419 . S
C577 C578 1.362 . S
C578 H570 0.930 . S
C578 C577 1.362 . S
C578 C581 1.409 . S
C579 H571 0.930 . S
C579 C580 1.355 . S
C579 C581 1.415 . S
C580 C579 1.355 . S
C580 C582 1.419 . S
C581 C576 1.425 . S
C581 C578 1.409 . S
C581 C579 1.415 . S
C582 H572 0.930 1_556 S
C582 C580 1.419 . S
C582 C583 1.362 . S
C583 H573 0.930 1_556 S
C583 C576 1.409 . S
C583 C582 1.362 . S
H584 C590 0.930 . S
H585 C593 0.930 . S
H586 C594 0.930 . S
H587 C595 0.930 . S
H588 C598 0.930 . S
H589 C599 0.930 . S
C590 H584 0.930 . S
C590 C591 1.355 . S
C590 C592 1.415 . S
C591 C590 1.355 . S
C591 C593 1.419 . S
C592 C590 1.415 . S
C592 C597 1.425 . S
C592 C599 1.409 . S
C593 H585 0.930 . S
C593 C591 1.419 . S
C593 C594 1.362 . S
C594 H586 0.930 . S
C594 C593 1.362 . S
C594 C597 1.409 . S
C595 H587 0.930 . S
C595 C596 1.355 . S
C595 C597 1.415 . S
C596 C595 1.355 . S
C596 C598 1.419 . S
C597 C592 1.425 . S
C597 C594 1.409 . S
C597 C595 1.415 . S
C598 H588 0.930 . S
C598 C596 1.419 . S
C598 C599 1.362 . S
C599 H589 0.930 . S
C599 C592 1.409 . S
C599 C598 1.362 . S
H600 C606 0.930 . S
H601 C609 0.930 . S
H602 C610 0.930 . S
H603 C611 0.930 . S
H604 C614 0.930 . S
H605 C615 0.930 . S
C606 H600 0.930 . S
C606 C607 1.355 . S
C606 C608 1.415 . S
C607 C606 1.355 . S
C607 C609 1.419 . S
C608 C606 1.415 . S
C608 C613 1.425 . S
C608 C615 1.409 . S
C609 H601 0.930 . S
C609 C607 1.419 . S
C609 C610 1.362 . S
C610 H602 0.930 . S
C610 C609 1.362 . S
C610 C613 1.409 . S
C611 H603 0.930 . S
C611 C612 1.355 . S
C611 C613 1.415 . S
C612 C611 1.355 . S
C612 C614 1.419 . S
C613 C608 1.425 . S
C613 C610 1.409 . S
C613 C611 1.415 . S
C614 H604 0.930 . S
C614 C612 1.419 . S
C614 C615 1.362 . S
C615 H605 0.930 . S
C615 C608 1.409 . S
C615 C614 1.362 . S
H616 C622 0.930 . S
H617 C625 0.930 . S
H618 C626 0.930 . S
H619 C627 0.930 . S
H620 C630 0.930 . S
H621 C631 0.930 . S
C622 H616 0.930 . S
C622 C623 1.355 . S
C622 C624 1.415 . S
C623 C622 1.355 . S
C623 C625 1.419 . S
C624 C622 1.415 . S
C624 C629 1.425 . S
C624 C631 1.409 . S
C625 H617 0.930 . S
C625 C623 1.419 . S
C625 C626 1.362 . S
C626 H618 0.930 . S
C626 C625 1.362 . S
C626 C629 1.409 . S
C627 H619 0.930 . S
C627 C628 1.355 . S
C627 C629 1.415 . S
C628 C627 1.355 . S
C628 C630 1.419 . S
C629 C624 1.425 . S
C629 C626 1.409 . S
C629 C627 1.415 . S
C630 H620 0.930 . S
C630 C628 1.419 . S
C630 C631 1.362 . S
C631 H621 0.930 . S
C631 C624 1.409 . S
C631 C630 1.362 . S
H632 C638 0.930 . S
H633 C641 0.930 . S
H634 C642 0.930 . S
H635 C643 0.930 . S
H636 C646 0.930 . S
H637 C647 0.930 . S
C638 H632 0.930 . S
C638 C639 1.355 . S
C638 C640 1.415 . S
C639 C638 1.355 . S
C639 C641 1.419 . S
C640 C638 1.415 . S
C640 C645 1.425 . S
C640 C647 1.409 . S
C641 H633 0.930 . S
C641 C639 1.419 . S
C641 C642 1.362 . S
C642 H634 0.930 . S
C642 C641 1.362 . S
C642 C645 1.409 . S
C643 H635 0.930 . S
C643 C644 1.355 . S
C643 C645 1.415 . S
C644 C643 1.355 . S
C644 C646 1.419 . S
C645 C640 1.425 . S
C645 C642 1.409 . S
C645 C643 1.415 . S
C646 H636 0.930 . S
C646 C644 1.419 . S
C646 C647 1.362 . S
C647 H637 0.930 . S
C647 C640 1.409 . S
C647 C646 1.362 . S
H648 C654 0.930 . S
H649 C657 0.930 . S
H650 C658 0.930 . S
H651 C659 0.930 . S
H652 C662 0.930 . S
H653 C663 0.930 . S
C654 H648 0.930 . S
C654 C655 1.355 . S
C654 C656 1.415 . S
C655 C654 1.355 . S
C655 C657 1.419 . S
C656 C654 1.415 . S
C656 C661 1.425 . S
C656 C663 1.409 . S
C657 H649 0.930 . S
C657 C655 1.419 . S
C657 C658 1.362 . S
C658 H650 0.930 . S
C658 C657 1.362 . S
C658 C661 1.409 . S
C659 H651 0.930 . S
C659 C660 1.355 . S
C659 C661 1.415 . S
C660 C659 1.355 . S
C660 C662 1.419 . S
C661 C656 1.425 . S
C661 C658 1.409 . S
C661 C659 1.415 . S
C662 H652 0.930 . S
C662 C660 1.419 . S
C662 C663 1.362 . S
C663 H653 0.930 . S
C663 C656 1.409 . S
C663 C662 1.362 . S
H664 C670 0.930 . S
H665 C673 0.930 . S
H666 C674 0.930 . S
H667 C675 0.930 . S
H668 C678 0.930 . S
H669 C679 0.930 . S
C670 H664 0.930 . S
C670 C671 1.355 . S
C670 C672 1.415 . S
C671 C670 1.355 . S
C671 C673 1.419 . S
C672 C670 1.415 . S
C672 C677 1.425 . S
C672 C679 1.409 . S
C673 H665 0.930 . S
C673 C671 1.419 . S
C673 C674 1.362 . S
C674 H666 0.930 . S
C674 C673 1.362 . S
C674 C677 1.409 . S
C675 H667 0.930 . S
C675 C676 1.355 . S
C675 C677 1.415 . S
C676 C675 1.355 . S
C676 C678 1.419 . S
C677 C672 1.425 . S
C677 C674 1.409 . S
C677 C675 1.415 . S
C678 H668 0.930 . S
C678 C676 1.419 . S
C678 C679 1.362 . S
C679 H669 0.930 . S
C679 C672 1.409 . S
C679 C678 1.362 . S
H680 C686 0.930 . S
H681 C689 0.930 . S
H682 C690 0.930 . S
H683 C691 0.930 . S
H684 C694 0.930 . S
H685 C695 0.930 . S
C686 H680 0.930 . S
C686 C687 1.355 . S
C686 C688 1.415 . S
C687 C686 1.355 . S
C687 C689 1.419 . S
C688 C686 1.415 . S
C688 C693 1.425 . S
C688 C695 1.409 . S
C689 H681 0.930 . S
C689 C687 1.419 . S
C689 C690 1.362 . S
C690 H682 0.930 . S
C690 C689 1.362 . S
C690 C693 1.409 . S
C691 H683 0.930 . S
C691 C692 1.355 . S
C691 C693 1.415 . S
C692 C691 1.355 . S
C692 C694 1.419 . S
C693 C688 1.425 . S
C693 C690 1.409 . S
C693 C691 1.415 . S
C694 H684 0.930 . S
C694 C692 1.419 . S
C694 C695 1.362 . S
C695 H685 0.930 . S
C695 C688 1.409 . S
C695 C694 1.362 . S
H696 C702 0.930 . S
H697 C705 0.930 . S
H698 C706 0.930 . S
H699 C707 0.930 . S
H700 C710 0.930 . S
H701 C711 0.930 . S
C702 H696 0.930 . S
C702 C703 1.355 . S
C702 C704 1.415 . S
C703 C702 1.355 . S
C703 C705 1.419 . S
C704 C702 1.415 . S
C704 C709 1.425 . S
C704 C711 1.409 . S
C705 H697 0.930 . S
C705 C703 1.419 . S
C705 C706 1.362 . S
C706 H698 0.930 . S
C706 C705 1.362 . S
C706 C709 1.409 . S
C707 H699 0.930 . S
C707 C708 1.355 . S
C707 C709 1.415 . S
C708 C707 1.355 . S
C708 C710 1.419 . S
C709 C704 1.425 . S
C709 C706 1.409 . S
C709 C707 1.415 . S
C710 H700 0.930 . S
C710 C708 1.419 . S
C710 C711 1.362 . S
C711 H701 0.930 . S
C711 C704 1.409 . S
C711 C710 1.362 . S
H712 C718 0.930 . S
H713 C721 0.930 . S
H714 C722 0.930 . S
H715 C723 0.930 1_655 S
H716 C726 0.930 . S
H717 C727 0.930 . S
C718 H712 0.930 . S
C718 C719 1.355 . S
C718 C720 1.415 . S
C719 C718 1.355 . S
C719 C721 1.419 1_455 S
C720 C718 1.415 . S
C720 C725 1.425 . S
C720 C727 1.409 . S
C721 H713 0.930 . S
C721 C719 1.419 1_655 S
C721 C722 1.362 . S
C722 H714 0.930 . S
C722 C721 1.362 . S
C722 C725 1.409 1_655 S
C723 H715 0.930 1_455 S
C723 C724 1.355 . S
C723 C725 1.415 . S
C724 C723 1.355 . S
C724 C726 1.419 . S
C725 C720 1.425 . S
C725 C722 1.409 1_455 S
C725 C723 1.415 . S
C726 H716 0.930 . S
C726 C724 1.419 . S
C726 C727 1.362 . S
C727 H717 0.930 . S
C727 C720 1.409 . S
C727 C726 1.362 . S
H728 C734 0.930 1_565 S
H729 C737 0.930 . S
H730 C738 0.930 . S
H731 C739 0.930 . S
H732 C742 0.930 1_565 S
H733 C743 0.930 1_565 S
C734 H728 0.930 1_545 S
C734 C735 1.355 . S
C734 C736 1.415 . S
C735 C734 1.355 . S
C735 C737 1.419 . S
C736 C734 1.415 . S
C736 C741 1.425 . S
C736 C743 1.409 . S
C737 H729 0.930 . S
C737 C735 1.419 . S
C737 C738 1.362 . S
C738 H730 0.930 . S
C738 C737 1.362 . S
C738 C741 1.409 . S
C739 H731 0.930 . S
C739 C740 1.355 . S
C739 C741 1.415 . S
C740 C739 1.355 . S
C740 C742 1.419 . S
C741 C736 1.425 . S
C741 C738 1.409 . S
C741 C739 1.415 . S
C742 H732 0.930 1_545 S
C742 C740 1.419 . S
C742 C743 1.362 . S
C743 H733 0.930 1_545 S
C743 C736 1.409 . S
C743 C742 1.362 . S
H744 C750 0.930 . S
H745 C753 0.930 . S
H746 C754 0.930 . S
H747 C755 0.930 . S
H748 C758 0.930 . S
H749 C759 0.930 . S
C750 H744 0.930 . S
C750 C751 1.355 . S
C750 C752 1.415 . S
C751 C750 1.355 . S
C751 C753 1.419 . S
C752 C750 1.415 . S
C752 C757 1.425 . S
C752 C759 1.409 . S
C753 H745 0.930 . S
C753 C751 1.419 . S
C753 C754 1.362 . S
C754 H746 0.930 . S
C754 C753 1.362 . S
C754 C757 1.409 . S
C755 H747 0.930 . S
C755 C756 1.355 . S
C755 C757 1.415 . S
C756 C755 1.355 . S
C756 C758 1.419 . S
C757 C752 1.425 . S
C757 C754 1.409 . S
C757 C755 1.415 . S
C758 H748 0.930 . S
C758 C756 1.419 . S
C758 C759 1.362 . S
C759 H749 0.930 . S
C759 C752 1.409 . S
C759 C758 1.362 . S
H760 C766 0.930 . S
H761 C769 0.930 . S
H762 C770 0.930 . S
H763 C771 0.930 1_455 S
H764 C774 0.930 . S
H765 C775 0.930 . S
C766 H760 0.930 . S
C766 C767 1.355 . S
C766 C768 1.415 . S
C767 C766 1.355 . S
C767 C769 1.419 1_655 S
C768 C766 1.415 . S
C768 C773 1.425 . S
C768 C775 1.409 . S
C769 H761 0.930 . S
C769 C767 1.419 1_455 S
C769 C770 1.362 . S
C770 H762 0.930 . S
C770 C769 1.362 . S
C770 C773 1.409 1_455 S
C771 H763 0.930 1_655 S
C771 C772 1.355 . S
C771 C773 1.415 . S
C772 C771 1.355 . S
C772 C774 1.419 . S
C773 C768 1.425 . S
C773 C770 1.409 1_655 S
C773 C771 1.415 . S
C774 H764 0.930 . S
C774 C772 1.419 . S
C774 C775 1.362 . S
C775 H765 0.930 . S
C775 C768 1.409 . S
C775 C774 1.362 . S
H776 C782 0.930 1_545 S
H777 C785 0.930 . S
H778 C786 0.930 . S
H779 C787 0.930 . S
H780 C790 0.930 . S
H781 C791 0.930 . S
C782 H776 0.930 1_565 S
C782 C783 1.355 . S
C782 C784 1.415 . S
C783 C782 1.355 . S
C783 C785 1.419 . S
C784 C782 1.415 . S
C784 C789 1.425 . S
C784 C791 1.409 1_565 S
C785 H777 0.930 . S
C785 C783 1.419 . S
C785 C786 1.362 . S
C786 H778 0.930 . S
C786 C785 1.362 . S
C786 C789 1.409 . S
C787 H779 0.930 . S
C787 C788 1.355 . S
C787 C789 1.415 . S
C788 C787 1.355 . S
C788 C790 1.419 1_565 S
C789 C784 1.425 . S
C789 C786 1.409 . S
C789 C787 1.415 . S
C790 H780 0.930 . S
C790 C788 1.419 1_545 S
C790 C791 1.362 . S
C791 H781 0.930 . S
C791 C784 1.409 1_545 S
C791 C790 1.362 . S
H792 C798 0.930 . S
H793 C801 0.930 . S
H794 C802 0.930 . S
H795 C803 0.930 . S
H796 C806 0.930 . S
H797 C807 0.930 . S
C798 H792 0.930 . S
C798 C799 1.355 . S
C798 C800 1.415 . S
C799 C798 1.355 . S
C799 C801 1.419 . S
C800 C798 1.415 . S
C800 C805 1.425 . S
C800 C807 1.409 . S
C801 H793 0.930 . S
C801 C799 1.419 . S
C801 C802 1.362 . S
C802 H794 0.930 . S
C802 C801 1.362 . S
C802 C805 1.409 . S
C803 H795 0.930 . S
C803 C804 1.355 . S
C803 C805 1.415 . S
C804 C803 1.355 . S
C804 C806 1.419 . S
C805 C800 1.425 . S
C805 C802 1.409 . S
C805 C803 1.415 . S
C806 H796 0.930 . S
C806 C804 1.419 . S
C806 C807 1.362 . S
C807 H797 0.930 . S
C807 C800 1.409 . S
C807 C806 1.362 . S
H808 C814 0.930 . S
H809 C817 0.930 . S
H810 C818 0.930 . S
H811 C819 0.930 . S
H812 C822 0.930 . S
H813 C823 0.930 . S
C814 H808 0.930 . S
C814 C815 1.355 . S
C814 C816 1.415 . S
C815 C814 1.355 . S
C815 C817 1.419 1_455 S
C816 C814 1.415 . S
C816 C821 1.425 1_455 S
C816 C823 1.409 . S
C817 H809 0.930 . S
C817 C815 1.419 1_655 S
C817 C818 1.362 . S
C818 H810 0.930 . S
C818 C817 1.362 . S
C818 C821 1.409 . S
C819 H811 0.930 . S
C819 C820 1.355 . S
C819 C821 1.415 . S
C820 C819 1.355 . S
C820 C822 1.419 1_655 S
C821 C816 1.425 1_655 S
C821 C818 1.409 . S
C821 C819 1.415 . S
C822 H812 0.930 . S
C822 C820 1.419 1_455 S
C822 C823 1.362 . S
C823 H813 0.930 . S
C823 C816 1.409 . S
C823 C822 1.362 . S
H824 C830 0.930 . S
H825 C833 0.930 . S
H826 C834 0.927 1_554 S
H827 C835 0.930 . S
H828 C838 0.930 . S
H829 C839 0.927 1_556 S
C830 H824 0.930 . S
C830 C831 1.355 1_565 S
C830 C832 1.415 . S
C831 C830 1.355 1_545 S
C831 C833 1.419 . S
C832 C830 1.415 . S
C832 C837 1.425 1_566 S
C832 C839 1.409 1_556 S
C833 H825 0.930 . S
C833 C831 1.419 . S
C833 C834 1.362 . S
C834 H826 0.927 1_556 S
C834 C833 1.362 . S
C834 C837 1.409 1_556 S
C835 H827 0.930 . S
C835 C836 1.355 1_545 S
C835 C837 1.415 . S
C836 C835 1.355 1_565 S
C836 C838 1.419 . S
C837 C832 1.425 1_544 S
C837 C834 1.409 1_554 S
C837 C835 1.415 . S
C838 H828 0.930 . S
C838 C836 1.419 . S
C838 C839 1.362 . S
C839 H829 0.927 1_554 S
C839 C832 1.409 1_554 S
C839 C838 1.362 . S
H840 C846 0.930 . S
H841 C849 0.930 . S
H842 C850 0.930 . S
H843 C851 0.930 . S
H844 C854 0.930 . S
H845 C855 0.930 . S
C846 H840 0.930 . S
C846 C847 1.355 . S
C846 C848 1.415 . S
C847 C846 1.355 . S
C847 C849 1.419 . S
C848 C846 1.415 . S
C848 C853 1.425 . S
C848 C855 1.409 . S
C849 H841 0.930 . S
C849 C847 1.419 . S
C849 C850 1.362 . S
C850 H842 0.930 . S
C850 C849 1.362 . S
C850 C853 1.409 . S
C851 H843 0.930 . S
C851 C852 1.355 . S
C851 C853 1.415 . S
C852 C851 1.355 . S
C852 C854 1.419 . S
C853 C848 1.425 . S
C853 C850 1.409 . S
C853 C851 1.415 . S
C854 H844 0.930 . S
C854 C852 1.419 . S
C854 C855 1.362 . S
C855 H845 0.930 . S
C855 C848 1.409 . S
C855 C854 1.362 . S
H856 C862 0.930 . S
H857 C865 0.930 . S
H858 C866 0.930 . S
H859 C867 0.930 . S
H860 C870 0.930 . S
H861 C871 0.930 . S
C862 H856 0.930 . S
C862 C863 1.355 . S
C862 C864 1.415 . S
C863 C862 1.355 . S
C863 C865 1.419 1_655 S
C864 C862 1.415 . S
C864 C869 1.425 1_655 S
C864 C871 1.409 . S
C865 H857 0.930 . S
C865 C863 1.419 1_455 S
C865 C866 1.362 . S
C866 H858 0.930 . S
C866 C865 1.362 . S
C866 C869 1.409 . S
C867 H859 0.930 . S
C867 C868 1.355 . S
C867 C869 1.415 . S
C868 C867 1.355 . S
C868 C870 1.419 1_455 S
C869 C864 1.425 1_455 S
C869 C866 1.409 . S
C869 C867 1.415 . S
C870 H860 0.930 . S
C870 C868 1.419 1_655 S
C870 C871 1.362 . S
C871 H861 0.930 . S
C871 C864 1.409 . S
C871 C870 1.362 . S
H872 C878 0.930 . S
H873 C881 0.930 . S
H874 C882 0.930 . S
H875 C883 0.930 . S
H876 C886 0.930 . S
H877 C887 0.930 . S
C878 H872 0.930 . S
C878 C879 1.355 . S
C878 C880 1.415 . S
C879 C878 1.355 . S
C879 C881 1.419 . S
C880 C878 1.415 . S
C880 C885 1.425 1_545 S
C880 C887 1.409 . S
C881 H873 0.930 . S
C881 C879 1.419 . S
C881 C882 1.362 1_545 S
C882 H874 0.930 . S
C882 C881 1.362 1_565 S
C882 C885 1.409 . S
C883 H875 0.930 . S
C883 C884 1.355 . S
C883 C885 1.415 . S
C884 C883 1.355 . S
C884 C886 1.419 . S
C885 C880 1.425 1_565 S
C885 C882 1.409 . S
C885 C883 1.415 . S
C886 H876 0.930 . S
C886 C884 1.419 . S
C886 C887 1.362 1_565 S
C887 H877 0.930 . S
C887 C880 1.409 . S
C887 C886 1.362 1_545 S
C415 C292 0.950 . S
C420 C20 0.977 . S
C431 C54 0.965 . S
C436 C326 0.948 . S
C447 C88 1.003 . S
C452 C360 1.025 . S
C463 C122 0.981 . S
C468 C394 0.952 . S
C479 C156 1.022 . S
C484 C224 1.023 . S
C495 C190 1.011 . S
C500 C258 0.976 . S
C511 C9 1.701 . S
C516 C203 1.841 . S
C527 C33 1.856 . S
C532 C43 1.603 . S
C543 C77 1.694 . S
C548 C67 1.847 . S
C559 C101 1.841 . S
C564 C111 1.607 . S
C575 C135 1.853 . S
C580 C145 1.682 1_556 S
C591 C179 1.666 . S
C596 C169 1.857 . S
C607 C271 1.829 . S
C612 C213 1.668 . S
C623 C305 1.847 . S
C628 C247 1.599 . S
C639 C339 1.848 . S
C644 C281 1.599 . S
C655 C373 1.847 . S
C660 C315 1.695 1_554 S
C671 C407 1.843 . S
C676 C349 1.604 . S
C687 C383 1.605 . S
C692 C237 1.842 . S
C703 C2 1.102 . S
C708 C206 1.117 . S
C719 C36 1.173 . S
C724 C240 1.147 . S
C735 C70 1.184 . S
C740 C274 1.195 . S
C751 C104 1.154 . S
C756 C308 1.178 . S
C767 C342 1.148 . S
C772 C138 1.122 . S
C783 C172 1.147 . S
C788 C376 1.172 . S
C799 C311 1.390 . S
C804 C5 1.366 . S
C815 C39 1.362 . S
C820 C345 1.390 . S
C831 C73 1.349 . S
C836 C379 1.327 . S
C847 C107 1.363 . S
C852 C209 1.390 . S
C863 C141 1.390 . S
C868 C243 1.370 . S
C879 C277 1.388 . S
C884 C175 1.354 . S
