# Generated by pormake.
# Topology wjo, (5)-cn, num edge types: 1
# Building blocks:
#     Node 0, Type 0, BuildingBlock: XOMCOT_clean_sbu_0, # of connection points: 5
#     Node 1, Type 0, BuildingBlock: XOMCOT_clean_sbu_0, # of connection points: 5
#     Node 2, Type 0, BuildingBlock: XOMCOT_clean_sbu_0, # of connection points: 5
#     Node 3, Type 0, BuildingBlock: XOMCOT_clean_sbu_0, # of connection points: 5
#     Node 4, Type 0, BuildingBlock: XOMCOT_clean_sbu_0, # of connection points: 5
#     Node 5, Type 0, BuildingBlock: XOMCOT_clean_sbu_0, # of connection points: 5
#     Node 6, Type 0, BuildingBlock: XOMCOT_clean_sbu_0, # of connection points: 5
#     Node 7, Type 0, BuildingBlock: XOMCOT_clean_sbu_0, # of connection points: 5
#     Node 8, Type 0, BuildingBlock: XOMCOT_clean_sbu_0, # of connection points: 5
#     Node 9, Type 0, BuildingBlock: XOMCOT_clean_sbu_0, # of connection points: 5
#     Node 10, Type 0, BuildingBlock: XOMCOT_clean_sbu_0, # of connection points: 5
#     Node 11, Type 0, BuildingBlock: XOMCOT_clean_sbu_0, # of connection points: 5
#     Edge 12, Type (0, 0), None
#     Edge 13, Type (0, 0), None
#     Edge 14, Type (0, 0), None
#     Edge 15, Type (0, 0), None
#     Edge 16, Type (0, 0), None
#     Edge 17, Type (0, 0), None
#     Edge 18, Type (0, 0), None
#     Edge 19, Type (0, 0), None
#     Edge 20, Type (0, 0), None
#     Edge 21, Type (0, 0), None
#     Edge 22, Type (0, 0), None
#     Edge 23, Type (0, 0), None
#     Edge 24, Type (0, 0), None
#     Edge 25, Type (0, 0), None
#     Edge 26, Type (0, 0), None
#     Edge 27, Type (0, 0), None
#     Edge 28, Type (0, 0), None
#     Edge 29, Type (0, 0), None
#     Edge 30, Type (0, 0), None
#     Edge 31, Type (0, 0), None
#     Edge 32, Type (0, 0), None
#     Edge 33, Type (0, 0), None
#     Edge 34, Type (0, 0), None
#     Edge 35, Type (0, 0), None
#     Edge 36, Type (0, 0), None
#     Edge 37, Type (0, 0), None
#     Edge 38, Type (0, 0), None
#     Edge 39, Type (0, 0), None
#     Edge 40, Type (0, 0), None
#     Edge 41, Type (0, 0), None
# Relax obj value: 0.372
# Max RMSD: 0.218
# Mean RMSD: 0.217
data_MOF--net-wjo--node1-XOMCOT_clean_sbu_0--edge1-none
_symmetry_space_group_name_H-M    P1
_symmetry_Int_Tables_number       1
_symmetry_cell_setting            triclinic
loop_
_symmetry_equiv_pos_as_xyz
'x, y, z'
_cell_length_a     24.190248
_cell_length_b     24.147945
_cell_length_c     15.831139
_cell_angle_alpha  90.76991
_cell_angle_beta   90.005852
_cell_angle_gamma 120.05473
loop_
_atom_site_label
_atom_site_type_symbol
_atom_site_fract_x
_atom_site_fract_y
_atom_site_fract_z
_atom_type_partial_charge
Co0 Co 0.29044 0.35164 0.03937 0.0
C1 C 0.35008 0.29144 0.93156 0.0
C2 C 0.24798 0.23952 0.92429 0.0
C3 C 0.27111 0.20894 0.87288 0.0
N4 N 0.2974 0.29156 0.96108 0.0
N5 N 0.3354 0.24182 0.8773 0.0
H6 H 0.39835 0.32601 0.94996 0.0
H7 H 0.19825 0.22456 0.93408 0.0
C8 C 0.17668 0.36078 0.00098 0.0
O9 O 0.19753 0.42258 0.0051 0.0
N10 N 0.28375 0.41064 0.11774 0.0
C11 C 0.32354 0.47436 0.12947 0.0
C12 C 0.30208 0.49533 0.19631 0.0
C13 C 0.23981 0.39365 0.17912 0.0
N14 N 0.25005 0.44419 0.22665 0.0
C15 C 0.41635 0.44232 -0.00283 0.0
C16 C 0.39379 0.52528 0.90532 0.0
C17 C 0.4564 0.54442 0.93211 0.0
C18 C 0.46669 0.50182 0.97836 0.0
C19 C 0.343 0.46465 0.92877 0.0
N20 N 0.35476 0.42447 0.97604 0.0
H21 H 0.42825 0.41205 0.03243 0.0
H22 H 0.29481 0.45129 0.9111 0.0
H23 H 0.36652 0.50393 0.09468 0.0
H24 H 0.20116 0.34547 0.18929 0.0
O25 O 0.34791 0.34782 0.11785 0.0
O26 O 0.24319 0.28243 0.11896 0.0
O27 O 0.21418 0.34161 0.973 0.0
C28 C 0.29859 0.30368 0.15543 0.0
H29 H 0.24279 0.16603 0.8352 0.0
H30 H 0.32423 0.54331 0.22285 0.0
H31 H 0.38444 0.55629 0.86647 0.0
H32 H 0.51442 0.51386 -0.00184 0.0
Co33 Co 0.96141 0.27601 0.18843 0.0
C34 C 0.0813 0.33473 0.08228 0.0
C35 C 0.03898 0.23336 0.09423 0.0
C36 C 0.09373 0.25551 0.04644 0.0
N37 N 0.03087 0.2829 0.11696 0.0
N38 N 0.12023 0.31931 0.03892 0.0
H39 H 0.0911 0.38319 0.08992 0.0
H40 H 1.00771 0.18434 0.11242 0.0
C41 C 0.84101 0.15982 0.14197 0.0
O42 O 0.80312 0.18389 0.15099 0.0
N43 N 0.89328 0.26889 0.2611 0.0
C44 C 0.87244 0.311 0.27358 0.0
C45 C 0.83035 0.2909 0.34012 0.0
C46 C 0.86467 0.22474 0.32154 0.0
N47 N 0.82643 0.23719 0.36961 0.0
C48 C 0.99619 0.40009 0.13863 0.0
C49 C 0.88896 0.37421 0.04664 0.0
C50 C 0.93241 0.43763 0.07184 0.0
C51 C 0.98632 0.44962 0.11783 0.0
C52 C 0.89978 0.32435 0.07177 0.0
N53 N 0.95249 0.33774 0.11936 0.0
H54 H 0.03878 0.4133 0.17452 0.0
H55 H 0.86514 0.27564 0.05505 0.0
H56 H 0.88871 0.35515 0.24036 0.0
H57 H 0.87271 0.1851 0.33157 0.0
O58 O 1.01982 0.3366 0.26792 0.0
O59 O 0.98309 0.23234 0.27454 0.0
O60 O 0.8993 0.19681 0.1212 0.0
C61 C 1.01523 0.28902 0.30937 0.0
H62 H 0.11301 0.22701 0.02071 0.0
H63 H 0.8076 0.31558 0.36777 0.0
H64 H 0.84774 0.36349 0.008 0.0
H65 H 1.02194 0.49797 0.13665 0.0
Co66 Co 0.70574 0.95062 0.32924 0.0
C67 C 0.76792 0.06344 0.21571 0.0
C68 C 0.82074 1.01421 0.22181 0.0
C69 C 0.85521 0.06912 0.17499 0.0
N70 N 0.76599 1.01076 0.24781 0.0
N71 N 0.82171 0.09995 0.17154 0.0
H72 H 0.73346 0.07803 0.22884 0.0
H73 H 0.83615 0.98087 0.23925 0.0
C74 C 0.68707 0.82211 0.29758 0.0
O75 O 0.62769 0.79088 0.32381 0.0
N76 N 0.64581 0.89284 0.41293 0.0
C77 C 0.58507 0.87916 0.42817 0.0
C78 C 0.56246 0.84166 0.4986 0.0
C79 C 0.65981 0.86516 0.47669 0.0
N80 N 0.60979 0.83366 0.52839 0.0
C81 C 0.62102 0.9935 0.28332 0.0
C82 C 0.52607 0.8831 0.20759 0.0
C83 C 0.51339 0.93248 0.22925 0.0
C84 C 0.56248 0.98804 0.26664 0.0
C85 C 0.58676 0.89038 0.22642 0.0
N86 N 0.63307 0.94489 0.26601 0.0
H87 H 0.65475 0.03628 0.31662 0.0
H88 H 0.59481 0.85097 0.21369 0.0
H89 H 0.55883 0.89668 0.39347 0.0
H90 H 0.70544 0.86779 0.48511 0.0
O91 O 0.71982 1.0194 0.40248 0.0
O92 O 0.77582 0.97005 0.40794 0.0
O93 O 0.70888 0.87801 0.26696 0.0
C94 C 0.76199 1.01104 0.44133 0.0
H95 H 0.90231 0.08631 0.14895 0.0
H96 H 0.51623 0.82403 0.52763 0.0
H97 H 0.48958 0.83944 0.1775 0.0
H98 H 0.55529 0.02721 0.28588 0.0
Co99 Co 0.76961 0.68576 0.46788 0.0
C100 C 0.71575 0.75466 0.37513 0.0
C101 C 0.80942 0.78317 0.33007 0.0
C102 C 0.78672 0.81859 0.28915 0.0
N103 N 0.76443 0.74244 0.38386 0.0
N104 N 0.72707 0.79919 0.3166 0.0
H105 H 0.67447 0.73535 0.41566 0.0
H106 H 0.85628 0.78854 0.32267 0.0
C107 C 0.8898 0.68206 0.44994 0.0
O108 O 0.86673 0.62277 0.47439 0.0
N109 N 0.77002 0.62964 0.55502 0.0
C110 C 0.71861 0.57387 0.57894 0.0
C111 C 0.73344 0.55195 0.64999 0.0
C112 C 0.81355 0.64372 0.61704 0.0
N113 N 0.7929 0.59607 0.67293 0.0
C114 C 0.65022 0.59797 0.39102 0.0
C115 C 0.66849 0.49416 0.39386 0.0
C116 C 0.60565 0.48329 0.40006 0.0
C117 C 0.59764 0.53636 0.38918 0.0
C118 C 0.72067 0.55769 0.39168 0.0
N119 N 0.71097 0.60881 0.40043 0.0
H120 H 0.6399 0.6359 0.39669 0.0
H121 H 0.76818 0.56484 0.39537 0.0
H122 H 0.67172 0.55242 0.55049 0.0
H123 H 0.8588 0.68795 0.62181 0.0
O124 O 0.70729 0.69091 0.53536 0.0
O125 O 0.81219 0.75736 0.54633 0.0
O126 O 0.85223 0.69839 0.41504 0.0
C127 C 0.75535 0.73749 0.57578 0.0
H128 H 0.81223 0.85578 0.24349 0.0
H129 H 0.70211 0.50945 0.68501 0.0
H130 H 0.67796 0.45499 0.39792 0.0
H131 H 0.55059 0.53125 0.38622 0.0
Co132 Co 0.11 0.77978 0.62721 0.0
C133 C 0.98702 0.7184 0.53128 0.0
C134 C 0.04541 0.81496 0.49165 0.0
C135 C 0.98688 0.78819 0.44937 0.0
N136 N 0.0459 0.77064 0.54244 0.0
N137 N 0.95096 0.72682 0.47321 0.0
H138 H 0.97043 0.67445 0.56565 0.0
H139 H 0.08397 0.86384 0.48684 0.0
C140 C 0.22997 0.90614 0.61205 0.0
O141 O 0.27091 0.88572 0.61697 0.0
N142 N 0.16791 0.78474 0.71663 0.0
C143 C 0.16958 0.73325 0.7469 0.0
C144 C 0.20627 0.75031 0.81876 0.0
C145 C 0.19854 0.83086 0.77615 0.0
N146 N 0.22404 0.81136 0.8361 0.0
C147 C 0.09474 0.67795 0.5119 0.0
C148 C 0.20158 0.67852 0.57282 0.0
C149 C 0.14814 0.61936 0.5508 0.0
C150 C 0.09766 0.62162 0.51022 0.0
C151 C 0.19716 0.73467 0.57025 0.0
N152 N 0.13969 0.73142 0.55426 0.0
H153 H 0.05357 0.67557 0.4837 0.0
H154 H 0.23654 0.77722 0.59688 0.0
H155 H 0.14254 0.68514 0.72122 0.0
H156 H 0.19921 0.87592 0.77852 0.0
O157 O 0.04577 0.70917 0.68746 0.0
O158 O 0.07181 0.8109 0.70846 0.0
O159 O 0.1736 0.86826 0.58296 0.0
C160 C 0.04006 0.75179 0.73215 0.0
H161 H 0.97213 0.81204 0.40484 0.0
H162 H 0.21538 0.71955 0.85845 0.0
H163 H 0.24406 0.68114 0.59938 0.0
H164 H 0.05833 0.57925 0.48142 0.0
Co165 Co 0.34601 0.09434 0.84326 0.0
C166 C 0.29571 0.99773 0.70275 0.0
C167 C 0.23553 0.03795 0.72289 0.0
C168 C 0.20611 0.9878 0.66455 0.0
N169 N 0.29172 0.04392 0.74748 0.0
N170 N 0.24409 0.96234 0.65258 0.0
H171 H 0.33293 0.98622 0.71113 0.0
H172 H 0.2153 0.06534 0.74932 0.0
C173 C 0.3774 0.22811 0.837 0.0
O174 O 0.43915 0.26594 0.84875 0.0
N175 N 0.40031 0.14235 0.93953 0.0
C176 C 0.46035 0.15502 0.95829 0.0
C177 C 0.47968 0.18784 0.03385 0.0
C178 C 0.38359 0.16644 0.00589 0.0
N179 N 0.43094 0.19366 0.06315 0.0
C180 C 0.43074 0.04874 0.80615 0.0
C181 C 0.53051 0.15857 0.74011 0.0
C182 C 0.54057 0.10782 0.76145 0.0
C183 C 0.48923 0.0527 0.79444 0.0
C184 C 0.47015 0.15313 0.75451 0.0
N185 N 0.42129 0.09881 0.78903 0.0
H186 H 0.39384 1.00517 0.83297 0.0
H187 H 0.46408 0.19351 0.74155 0.0
H188 H 0.48917 0.14152 0.92143 0.0
H189 H 0.33848 0.16524 0.01196 0.0
O190 O 0.319 1.01763 0.90366 0.0
O191 O 0.27126 0.07467 0.91257 0.0
O192 O 0.35807 0.17636 0.79322 0.0
C193 C 0.27759 0.02795 0.94144 0.0
H194 H 0.15891 0.96921 0.63729 0.0
H195 H 0.52534 0.20555 0.06527 0.0
H196 H 0.56862 0.20173 0.71284 0.0
H197 H 0.49419 1.01221 0.81227 0.0
Co198 Co 0.70471 0.76274 0.78349 0.0
C199 C 0.76589 0.70396 0.88952 0.0
C200 C 0.82478 0.8054 0.87811 0.0
C201 C 0.85737 0.78323 0.92587 0.0
N202 N 0.76723 0.75584 0.85507 0.0
N203 N 0.82017 0.71938 0.93307 0.0
H204 H 0.72736 0.65548 0.88153 0.0
H205 H 0.84247 0.85445 0.86013 0.0
C206 C 0.70048 0.87894 0.82982 0.0
O207 O 0.63854 0.85488 0.82071 0.0
N208 N 0.64374 0.76986 0.71073 0.0
C209 C 0.58076 0.7278 0.69829 0.0
C210 C 0.5588 0.74789 0.63169 0.0
C211 C 0.65931 0.81397 0.65022 0.0
N212 N 0.60864 0.80151 0.60209 0.0
C213 C 0.61537 0.63866 0.83327 0.0
C214 C 0.53407 0.6646 0.92528 0.0
C215 C 0.51409 0.60117 0.90011 0.0
C216 C 0.55598 0.58915 0.8541 0.0
C217 C 0.59474 0.71444 0.90011 0.0
N218 N 0.63404 0.70102 0.85253 0.0
H219 H 0.64472 0.62544 0.79736 0.0
H220 H 0.60883 0.76316 0.91682 0.0
H221 H 0.55285 0.68371 0.73161 0.0
H222 H 0.707 0.85359 0.64017 0.0
O223 O 0.70257 0.70214 0.70404 0.0
O224 O 0.77011 0.8064 0.69745 0.0
O225 O 0.72178 0.84195 0.85067 0.0
C226 C 0.74557 0.74972 0.66262 0.0
H227 H 0.9051 0.81173 0.95177 0.0
H228 H 0.51135 0.72326 0.6041 0.0
H229 H 0.5036 0.67535 0.96393 0.0
H230 H 0.54322 0.54079 0.83531 0.0
Co231 Co 0.95823 0.68715 0.93257 0.0
C232 C 0.07811 0.74748 0.0403 0.0
C233 C 1.02762 0.79908 0.04804 0.0
C234 C 0.08133 0.8297 0.09943 0.0
N235 N 1.02519 0.74722 0.01096 0.0
N236 N 0.11293 0.79702 0.09473 0.0
H237 H 0.09198 0.71309 0.02161 0.0
H238 H 0.99272 0.81391 0.03842 0.0
C239 C 0.83525 0.67789 0.97074 0.0
O240 O 0.79444 0.61607 0.96624 0.0
N241 N 0.89264 0.62814 0.85411 0.0
C242 C 0.86878 0.56443 0.84234 0.0
C243 C 0.82639 0.54345 0.77544 0.0
C244 C 0.86569 0.64511 0.79269 0.0
N245 N 0.82549 0.59458 0.74508 0.0
C246 C 0.99353 0.59653 0.97491 0.0
C247 C 0.88794 0.51347 0.06654 0.0
C248 C 0.93149 0.49441 0.03987 0.0
C249 C 0.9844 0.53705 -0.00628 0.0
C250 C 0.89775 0.57409 0.04309 0.0
N251 N 0.94973 0.61433 -0.00407 0.0
H252 H 0.03571 0.62683 0.9397 0.0
H253 H 0.86287 0.58741 0.06066 0.0
H254 H 0.8822 0.53488 0.87717 0.0
H255 H 0.87516 0.69328 0.78256 0.0
O256 O 1.0196 0.69104 0.85418 0.0
O257 O 0.98019 0.75637 0.853 0.0
O258 O 0.89192 0.69713 -0.00121 0.0
C259 C 1.0144 0.73516 0.81658 0.0
H260 H 0.09583 0.87253 0.13725 0.0
H261 H 0.8006 0.49547 0.74888 0.0
H262 H 0.84754 0.48242 0.10529 0.0
H263 H 1.02013 0.52505 0.97399 0.0
Co264 Co 0.27114 0.94468 0.12863 0.0
C265 C 0.31738 0.04117 0.2693 0.0
C266 C 0.21704 1.00115 0.24885 0.0
C267 C 0.23775 0.05125 0.30726 0.0
N268 N 0.26724 0.99509 0.2244 0.0
N269 N 0.30115 0.07657 0.31947 0.0
H270 H 0.36609 0.0526 0.26107 0.0
H271 H 0.16946 0.97387 0.22224 0.0
C272 C 0.16879 0.81091 0.13479 0.0
O273 O 0.19306 0.77345 0.12245 0.0
N274 N 0.27749 0.89671 0.03237 0.0
C275 C 0.32493 0.88415 0.0136 0.0
C276 C 0.31144 0.85126 0.93809 0.0
C277 C 0.23664 0.8725 0.96604 0.0
N278 N 0.25679 0.84527 0.90885 0.0
C279 C 0.40143 0.99026 0.16594 0.0
C280 C 0.39135 0.88035 0.23174 0.0
C281 C 0.45217 0.93114 0.21053 0.0
C282 C 0.45596 0.9863 0.17764 0.0
C283 C 0.33644 0.88581 0.21734 0.0
N284 N 0.34191 0.94017 0.18294 0.0
H285 H 0.40811 0.03387 0.13921 0.0
H286 H 0.28998 0.84541 0.23021 0.0
H287 H 0.3673 0.89778 0.0504 0.0
H288 H 0.1927 0.87364 0.95997 0.0
O289 O 0.32089 0.02141 0.06827 0.0
O290 O 0.21607 0.96436 0.05927 0.0
O291 O 0.20111 0.86267 0.17858 0.0
C292 C 0.26914 1.01106 0.03048 0.0
H293 H 0.20917 0.06992 0.33439 0.0
H294 H 0.33947 0.83366 0.90665 0.0
H295 H 0.3863 0.83716 0.25891 0.0
H296 H 0.50141 0.02681 0.15987 0.0
Co297 Co 0.34964 0.25914 0.3448 0.0
C298 C 0.28804 0.32051 0.4407 0.0
C299 C 0.24993 0.22398 0.48041 0.0
C300 C 0.21817 0.25074 0.52267 0.0
N301 N 0.2947 0.26828 0.42957 0.0
N302 N 0.2436 0.31211 0.4988 0.0
H303 H 0.31535 0.36444 0.40627 0.0
H304 H 0.23963 0.1751 0.48525 0.0
C305 C 0.34326 0.13278 0.35996 0.0
O306 O 0.40461 0.15315 0.35507 0.0
N307 N 0.40258 0.25418 0.25537 0.0
C308 C 0.45573 0.30567 0.22511 0.0
C309 C 0.47535 0.28864 0.15322 0.0
C310 C 0.38708 0.20807 0.19583 0.0
N311 N 0.43204 0.2276 0.13583 0.0
C312 C 0.43624 0.36103 0.45998 0.0
C313 C 0.54249 0.36036 0.39917 0.0
C314 C 0.54823 0.41954 0.4211 0.0
C315 C 0.4955 0.41734 0.46164 0.0
C316 C 0.48191 0.30423 0.40177 0.0
N317 N 0.42771 0.30753 0.41771 0.0
H318 H 0.39747 0.36346 0.48811 0.0
H319 H 0.4787 0.26165 0.37518 0.0
H320 H 0.4768 0.35377 0.25082 0.0
H321 H 0.34271 0.16299 0.19347 0.0
O322 O 0.35598 0.32973 0.28453 0.0
O323 O 0.2803 0.22797 0.26358 0.0
O324 O 0.32479 0.17067 0.38907 0.0
C325 C 0.30765 0.28708 0.23987 0.0
H326 H 0.17958 0.2269 0.5672 0.0
H327 H 0.51522 0.3194 0.11355 0.0
H328 H 0.58234 0.3577 0.37265 0.0
H329 H 0.49857 0.45974 0.49036 0.0
Co330 Co 0.10322 0.35307 0.50406 0.0
C331 C 0.98053 0.28424 0.5969 0.0
C332 C 0.04566 0.25566 0.64185 0.0
C333 C 0.98756 0.22024 0.68278 0.0
N334 N 0.04141 0.29643 0.58813 0.0
N335 N 0.94732 0.23969 0.65542 0.0
H336 H 0.95854 0.30354 0.55638 0.0
H337 H 0.08713 0.25024 0.64918 0.0
C338 C 0.22714 0.35685 0.52196 0.0
O339 O 0.2633 0.41612 0.4974 0.0
N340 N 0.15969 0.40917 0.41685 0.0
C341 C 0.16403 0.46493 0.39295 0.0
C342 C 0.20071 0.48683 0.32183 0.0
C343 C 0.18908 0.39506 0.35478 0.0
N344 N 0.216 0.44269 0.29882 0.0
C345 C 0.07162 0.44091 0.58076 0.0
C346 C 0.19372 0.54469 0.57807 0.0
C347 C 0.14178 0.5556 0.5718 0.0
C348 C 0.08068 0.50253 0.58261 0.0
C349 C 0.18234 0.48115 0.58025 0.0
N350 N 0.12153 0.43005 0.57144 0.0
H351 H 1.02337 0.403 0.57501 0.0
H352 H 0.22269 0.47397 0.57662 0.0
H353 H 0.13864 0.48641 0.42145 0.0
H354 H 0.19011 0.35084 0.35 0.0
O355 O 0.03571 0.34786 0.43659 0.0
O356 O 0.07421 0.28143 0.42568 0.0
O357 O 0.17326 0.34051 0.55689 0.0
C358 C 0.03721 0.30127 0.39622 0.0
H359 H 0.97586 0.18299 0.72836 0.0
H360 H 0.21184 0.52933 0.28682 0.0
H361 H 0.24237 0.58385 0.57408 0.0
H362 H 0.03875 0.50767 0.5855 0.0
Co363 Co 0.77454 0.08819 0.6426 0.0
C364 C 0.72384 0.97533 0.75605 0.0
C365 C 0.82589 0.02458 0.75015 0.0
C366 C 0.80541 0.96966 0.79696 0.0
N367 N 0.77461 0.02803 0.72404 0.0
N368 N 0.74109 0.93882 0.80029 0.0
H369 H 0.6748 0.96074 0.74281 0.0
H370 H 0.87466 0.05793 0.7328 0.0
C371 C 0.88437 0.2167 0.6743 0.0
O372 O 0.8562 0.2479 0.64804 0.0
N373 N 0.77241 0.14599 0.5589 0.0
C374 C 0.72537 0.15972 0.5437 0.0
C375 C 0.74022 0.19717 0.47324 0.0
C376 C 0.81403 0.17361 0.49509 0.0
N377 N 0.7955 0.2051 0.44337 0.0
C378 C 0.64696 0.04539 0.68851 0.0
C379 C 0.66249 0.15578 0.76434 0.0
C380 C 0.60042 0.10644 0.74268 0.0
C381 C 0.59391 0.05088 0.70525 0.0
C382 C 0.71587 0.14847 0.74548 0.0
N383 N 0.70762 0.09396 0.70583 0.0
H384 H 0.63787 1.00261 0.65517 0.0
H385 H 0.76333 0.18785 0.75822 0.0
H386 H 0.68165 0.14226 0.57846 0.0
H387 H 0.85702 0.17094 0.48663 0.0
O388 O 0.71981 1.01942 0.56936 0.0
O389 O 0.82519 0.06874 0.56393 0.0
O390 O 0.85031 0.16078 0.70488 0.0
C391 C 0.77035 0.02778 0.53055 0.0
H392 H 0.83531 0.95247 0.82309 0.0
H393 H 0.71163 0.21482 0.44423 0.0
H394 H 0.66969 0.19945 0.79447 0.0
H395 H 0.54752 1.01173 0.68602 0.0
loop_
_geom_bond_atom_site_label_1
_geom_bond_atom_site_label_2
_geom_bond_distance
_geom_bond_site_symmetry_2
_ccdc_geom_bond_type
Co0 N4 2.148 1_554 S
Co0 N10 2.128 . S
Co0 N20 2.194 1_554 S
Co0 O25 2.351 . S
Co0 O26 2.155 . S
Co0 O27 2.096 . S
C1 N4 1.301 . S
C1 N5 1.328 . S
C1 H6 0.930 . S
C2 C3 1.333 . S
C2 N4 1.317 . S
C2 H7 0.930 . S
C3 C2 1.333 . S
C3 N5 1.350 . S
C3 H29 0.931 . S
N4 Co0 2.148 1_556 S
N4 C1 1.301 . S
N4 C2 1.317 . S
N5 C1 1.328 . S
N5 C3 1.350 . S
H6 C1 0.930 . S
H7 C2 0.930 . S
C8 O9 1.224 . S
C8 O27 1.247 1_556 S
O9 C8 1.224 . S
N10 Co0 2.128 . S
N10 C11 1.355 . S
N10 C13 1.311 . S
C11 N10 1.355 . S
C11 C12 1.363 . S
C11 H23 0.929 . S
C12 C11 1.363 . S
C12 N14 1.375 . S
C12 H30 0.931 . S
C13 N10 1.311 . S
C13 N14 1.347 . S
C13 H24 0.929 . S
N14 C12 1.375 . S
N14 C13 1.347 . S
C15 C18 1.365 . S
C15 N20 1.328 . S
C15 H21 0.929 . S
C16 C17 1.362 . S
C16 C19 1.378 . S
C16 H31 0.929 . S
C17 C16 1.362 . S
C17 C18 1.366 . S
C18 C15 1.365 . S
C18 C17 1.366 . S
C18 H32 0.930 . S
C19 C16 1.378 . S
C19 N20 1.315 . S
C19 H22 0.930 . S
N20 Co0 2.194 1_556 S
N20 C15 1.328 . S
N20 C19 1.315 . S
H21 C15 0.929 . S
H22 C19 0.930 . S
H23 C11 0.929 . S
H24 C13 0.929 . S
O25 Co0 2.351 . S
O25 C28 1.244 . S
O26 Co0 2.155 . S
O26 C28 1.240 . S
O27 Co0 2.096 . S
O27 C8 1.247 1_554 S
C28 O25 1.244 . S
C28 O26 1.240 . S
H29 C3 0.931 . S
H30 C12 0.931 . S
H31 C16 0.929 . S
H32 C18 0.930 . S
Co33 N37 2.148 . S
Co33 N43 2.128 . S
Co33 N53 2.194 . S
Co33 O58 2.351 . S
Co33 O59 2.155 . S
Co33 O60 2.096 . S
C34 N37 1.301 1_455 S
C34 N38 1.328 1_554 S
C34 H39 0.930 . S
C35 C36 1.333 1_554 S
C35 N37 1.317 . S
C35 H40 0.930 . S
C36 C35 1.333 1_556 S
C36 N38 1.350 1_655 S
C36 H62 0.925 1_655 S
N37 Co33 2.148 . S
N37 C34 1.301 1_655 S
N37 C35 1.317 . S
N38 C34 1.328 1_556 S
N38 C36 1.350 1_455 S
H39 C34 0.930 . S
H40 C35 0.930 . S
C41 O42 1.224 . S
C41 O60 1.247 . S
O42 C41 1.224 . S
N43 Co33 2.128 . S
N43 C44 1.355 . S
N43 C46 1.311 . S
C44 N43 1.355 . S
C44 C45 1.363 . S
C44 H56 0.929 . S
C45 C44 1.363 . S
C45 N47 1.375 . S
C45 H63 0.931 . S
C46 N43 1.311 . S
C46 N47 1.347 . S
C46 H57 0.929 . S
N47 C45 1.375 . S
N47 C46 1.347 . S
C48 C51 1.365 . S
C48 N53 1.328 . S
C48 H54 0.929 . S
C49 C50 1.362 . S
C49 C52 1.378 . S
C49 H64 0.929 1_554 S
C50 C49 1.362 . S
C50 C51 1.366 . S
C51 C48 1.365 . S
C51 C50 1.366 . S
C51 H65 0.930 . S
C52 C49 1.378 . S
C52 N53 1.315 . S
C52 H55 0.930 . S
N53 Co33 2.194 . S
N53 C48 1.328 . S
N53 C52 1.315 . S
H54 C48 0.929 . S
H55 C52 0.930 . S
H56 C44 0.929 . S
H57 C46 0.929 . S
O58 Co33 2.351 . S
O58 C61 1.244 1_655 S
O59 Co33 2.155 . S
O59 C61 1.240 1_655 S
O60 Co33 2.096 . S
O60 C41 1.247 . S
C61 O58 1.244 1_455 S
C61 O59 1.240 1_455 S
H62 C36 0.925 1_455 S
H63 C45 0.931 . S
H64 C49 0.929 1_556 S
H65 C51 0.930 . S
Co66 N70 2.148 . S
Co66 N76 2.128 . S
Co66 N86 2.194 . S
Co66 O91 2.351 . S
Co66 O92 2.155 . S
Co66 O93 2.096 . S
C67 N70 1.301 1_545 S
C67 N71 1.328 . S
C67 H72 0.930 . S
C68 C69 1.333 . S
C68 N70 1.317 . S
C68 H73 0.930 . S
C69 C68 1.333 . S
C69 N71 1.350 1_565 S
C69 H95 0.932 . S
N70 Co66 2.148 . S
N70 C67 1.301 1_565 S
N70 C68 1.317 . S
N71 C67 1.328 . S
N71 C69 1.350 1_545 S
H72 C67 0.930 . S
H73 C68 0.930 . S
C74 O75 1.224 . S
C74 O93 1.247 . S
O75 C74 1.224 . S
N76 Co66 2.128 . S
N76 C77 1.355 . S
N76 C79 1.311 . S
C77 N76 1.355 . S
C77 C78 1.363 . S
C77 H89 0.929 . S
C78 C77 1.363 . S
C78 N80 1.375 . S
C78 H96 0.931 . S
C79 N76 1.311 . S
C79 N80 1.347 . S
C79 H90 0.929 . S
N80 C78 1.375 . S
N80 C79 1.347 . S
C81 C84 1.365 . S
C81 N86 1.328 . S
C81 H87 0.929 . S
C82 C83 1.362 . S
C82 C85 1.378 . S
C82 H97 0.929 . S
C83 C82 1.362 . S
C83 C84 1.366 . S
C84 C81 1.365 . S
C84 C83 1.366 . S
C84 H98 0.930 . S
C85 C82 1.378 . S
C85 N86 1.315 . S
C85 H88 0.930 . S
N86 Co66 2.194 . S
N86 C81 1.328 . S
N86 C85 1.315 . S
H87 C81 0.929 . S
H88 C85 0.930 . S
H89 C77 0.929 . S
H90 C79 0.929 . S
O91 Co66 2.351 . S
O91 C94 1.244 1_565 S
O92 Co66 2.155 . S
O92 C94 1.240 1_565 S
O93 Co66 2.096 . S
O93 C74 1.247 . S
C94 O91 1.244 1_545 S
C94 O92 1.240 1_545 S
H95 C69 0.932 . S
H96 C78 0.931 . S
H97 C82 0.929 . S
H98 C84 0.930 . S
Co99 N103 2.148 . S
Co99 N109 2.128 . S
Co99 N119 2.194 . S
Co99 O124 2.351 . S
Co99 O125 2.155 . S
Co99 O126 2.096 . S
C100 N103 1.301 . S
C100 N104 1.328 . S
C100 H105 0.930 . S
C101 C102 1.333 . S
C101 N103 1.317 . S
C101 H106 0.930 . S
C102 C101 1.333 . S
C102 N104 1.350 . S
C102 H128 0.931 . S
N103 Co99 2.148 . S
N103 C100 1.301 . S
N103 C101 1.317 . S
N104 C100 1.328 . S
N104 C102 1.350 . S
H105 C100 0.930 . S
H106 C101 0.930 . S
C107 O108 1.224 . S
C107 O126 1.247 . S
O108 C107 1.224 . S
N109 Co99 2.128 . S
N109 C110 1.355 . S
N109 C112 1.311 . S
C110 N109 1.355 . S
C110 C111 1.363 . S
C110 H122 0.929 . S
C111 C110 1.363 . S
C111 N113 1.375 . S
C111 H129 0.931 . S
C112 N109 1.311 . S
C112 N113 1.347 . S
C112 H123 0.929 . S
N113 C111 1.375 . S
N113 C112 1.347 . S
C114 C117 1.365 . S
C114 N119 1.328 . S
C114 H120 0.929 . S
C115 C116 1.362 . S
C115 C118 1.378 . S
C115 H130 0.929 . S
C116 C115 1.362 . S
C116 C117 1.366 . S
C117 C114 1.365 . S
C117 C116 1.366 . S
C117 H131 0.930 . S
C118 C115 1.378 . S
C118 N119 1.315 . S
C118 H121 0.930 . S
N119 Co99 2.194 . S
N119 C114 1.328 . S
N119 C118 1.315 . S
H120 C114 0.929 . S
H121 C118 0.930 . S
H122 C110 0.929 . S
H123 C112 0.929 . S
O124 Co99 2.351 . S
O124 C127 1.244 . S
O125 Co99 2.155 . S
O125 C127 1.240 . S
O126 Co99 2.096 . S
O126 C107 1.247 . S
C127 O124 1.244 . S
C127 O125 1.240 . S
H128 C102 0.931 . S
H129 C111 0.931 . S
H130 C115 0.929 . S
H131 C117 0.930 . S
Co132 N136 2.148 . S
Co132 N142 2.128 . S
Co132 N152 2.194 . S
Co132 O157 2.351 . S
Co132 O158 2.155 . S
Co132 O159 2.096 . S
C133 N136 1.301 1_655 S
C133 N137 1.328 . S
C133 H138 0.930 . S
C134 C135 1.333 . S
C134 N136 1.317 . S
C134 H139 0.930 . S
C135 C134 1.333 . S
C135 N137 1.350 1_455 S
C135 H161 0.931 . S
N136 Co132 2.148 . S
N136 C133 1.301 1_455 S
N136 C134 1.317 . S
N137 C133 1.328 . S
N137 C135 1.350 1_655 S
H138 C133 0.930 . S
H139 C134 0.930 . S
C140 O141 1.224 . S
C140 O159 1.247 . S
O141 C140 1.224 . S
N142 Co132 2.128 . S
N142 C143 1.355 . S
N142 C145 1.311 . S
C143 N142 1.355 . S
C143 C144 1.363 . S
C143 H155 0.929 . S
C144 C143 1.363 . S
C144 N146 1.375 . S
C144 H162 0.931 . S
C145 N142 1.311 . S
C145 N146 1.347 . S
C145 H156 0.929 . S
N146 C144 1.375 . S
N146 C145 1.347 . S
C147 C150 1.365 . S
C147 N152 1.328 . S
C147 H153 0.929 . S
C148 C149 1.362 . S
C148 C151 1.378 . S
C148 H163 0.929 . S
C149 C148 1.362 . S
C149 C150 1.366 . S
C150 C147 1.365 . S
C150 C149 1.366 . S
C150 H164 0.930 . S
C151 C148 1.378 . S
C151 N152 1.315 . S
C151 H154 0.930 . S
N152 Co132 2.194 . S
N152 C147 1.328 . S
N152 C151 1.315 . S
H153 C147 0.929 . S
H154 C151 0.930 . S
H155 C143 0.929 . S
H156 C145 0.929 . S
O157 Co132 2.351 . S
O157 C160 1.244 1_455 S
O158 Co132 2.155 . S
O158 C160 1.240 1_455 S
O159 Co132 2.096 . S
O159 C140 1.247 . S
C160 O157 1.244 1_655 S
C160 O158 1.240 1_655 S
H161 C135 0.931 . S
H162 C144 0.931 . S
H163 C148 0.929 . S
H164 C150 0.930 . S
Co165 N169 2.148 . S
Co165 N175 2.128 . S
Co165 N185 2.194 . S
Co165 O190 2.351 . S
Co165 O191 2.155 . S
Co165 O192 2.096 . S
C166 N169 1.301 1_565 S
C166 N170 1.328 . S
C166 H171 0.930 . S
C167 C168 1.333 . S
C167 N169 1.317 . S
C167 H172 0.930 . S
C168 C167 1.333 . S
C168 N170 1.350 1_545 S
C168 H194 0.931 . S
N169 Co165 2.148 . S
N169 C166 1.301 1_545 S
N169 C167 1.317 . S
N170 C166 1.328 . S
N170 C168 1.350 1_565 S
H171 C166 0.930 . S
H172 C167 0.930 . S
C173 O174 1.224 . S
C173 O192 1.247 . S
O174 C173 1.224 . S
N175 Co165 2.128 . S
N175 C176 1.355 . S
N175 C178 1.311 . S
C176 N175 1.355 . S
C176 C177 1.363 1_556 S
C176 H188 0.929 . S
C177 C176 1.363 1_554 S
C177 N179 1.375 . S
C177 H195 0.931 . S
C178 N175 1.311 . S
C178 N179 1.347 1_556 S
C178 H189 0.929 . S
N179 C177 1.375 . S
N179 C178 1.347 1_554 S
C180 C183 1.365 . S
C180 N185 1.328 . S
C180 H186 0.929 . S
C181 C182 1.362 . S
C181 C184 1.378 . S
C181 H196 0.929 . S
C182 C181 1.362 . S
C182 C183 1.366 . S
C183 C180 1.365 . S
C183 C182 1.366 . S
C183 H197 0.930 . S
C184 C181 1.378 . S
C184 N185 1.315 . S
C184 H187 0.930 . S
N185 Co165 2.194 . S
N185 C180 1.328 . S
N185 C184 1.315 . S
H186 C180 0.929 . S
H187 C184 0.930 . S
H188 C176 0.929 . S
H189 C178 0.929 . S
O190 Co165 2.351 . S
O190 C193 1.244 1_545 S
O191 Co165 2.155 . S
O191 C193 1.240 1_545 S
O192 Co165 2.096 . S
O192 C173 1.247 . S
C193 O190 1.244 1_565 S
C193 O191 1.240 1_565 S
H194 C168 0.931 . S
H195 C177 0.931 . S
H196 C181 0.929 . S
H197 C183 0.930 . S
Co198 N202 2.148 . S
Co198 N208 2.128 . S
Co198 N218 2.194 . S
Co198 O223 2.351 . S
Co198 O224 2.155 . S
Co198 O225 2.096 . S
C199 N202 1.301 . S
C199 N203 1.328 1_556 S
C199 H204 0.930 . S
C200 C201 1.333 1_556 S
C200 N202 1.317 . S
C200 H205 0.930 . S
C201 C200 1.333 1_554 S
C201 N203 1.350 . S
C201 H227 0.931 . S
N202 Co198 2.148 . S
N202 C199 1.301 . S
N202 C200 1.317 . S
N203 C199 1.328 1_554 S
N203 C201 1.350 . S
H204 C199 0.930 . S
H205 C200 0.930 . S
C206 O207 1.224 . S
C206 O225 1.247 . S
O207 C206 1.224 . S
N208 Co198 2.128 . S
N208 C209 1.355 . S
N208 C211 1.311 . S
C209 N208 1.355 . S
C209 C210 1.363 . S
C209 H221 0.929 . S
C210 C209 1.363 . S
C210 N212 1.375 . S
C210 H228 0.931 . S
C211 N208 1.311 . S
C211 N212 1.347 . S
C211 H222 0.929 . S
N212 C210 1.375 . S
N212 C211 1.347 . S
C213 C216 1.365 . S
C213 N218 1.328 . S
C213 H219 0.929 . S
C214 C215 1.362 . S
C214 C217 1.378 . S
C214 H229 0.929 1_556 S
C215 C214 1.362 . S
C215 C216 1.366 . S
C216 C213 1.365 . S
C216 C215 1.366 . S
C216 H230 0.930 . S
C217 C214 1.378 . S
C217 N218 1.315 . S
C217 H220 0.930 . S
N218 Co198 2.194 . S
N218 C213 1.328 . S
N218 C217 1.315 . S
H219 C213 0.929 . S
H220 C217 0.930 . S
H221 C209 0.929 . S
H222 C211 0.929 . S
O223 Co198 2.351 . S
O223 C226 1.244 . S
O224 Co198 2.155 . S
O224 C226 1.240 . S
O225 Co198 2.096 . S
O225 C206 1.247 . S
C226 O223 1.244 . S
C226 O224 1.240 . S
H227 C201 0.931 . S
H228 C210 0.931 . S
H229 C214 0.929 1_554 S
H230 C216 0.930 . S
Co231 N235 2.148 1_556 S
Co231 N241 2.128 . S
Co231 N251 2.194 1_556 S
Co231 O256 2.351 . S
Co231 O257 2.155 . S
Co231 O258 2.096 . S
C232 N235 1.301 1_455 S
C232 N236 1.328 . S
C232 H237 0.930 . S
C233 C234 1.333 . S
C233 N235 1.317 . S
C233 H238 0.930 . S
C234 C233 1.333 . S
C234 N236 1.350 1_655 S
C234 H260 0.933 1_655 S
N235 Co231 2.148 1_554 S
N235 C232 1.301 1_655 S
N235 C233 1.317 . S
N236 C232 1.328 . S
N236 C234 1.350 1_455 S
H237 C232 0.930 . S
H238 C233 0.930 . S
C239 O240 1.224 . S
C239 O258 1.247 1_554 S
O240 C239 1.224 . S
N241 Co231 2.128 . S
N241 C242 1.355 . S
N241 C244 1.311 . S
C242 N241 1.355 . S
C242 C243 1.363 . S
C242 H254 0.929 . S
C243 C242 1.363 . S
C243 N245 1.375 . S
C243 H261 0.931 . S
C244 N241 1.311 . S
C244 N245 1.347 . S
C244 H255 0.929 . S
N245 C243 1.375 . S
N245 C244 1.347 . S
C246 C249 1.365 . S
C246 N251 1.328 . S
C246 H252 0.929 . S
C247 C248 1.362 . S
C247 C250 1.378 . S
C247 H262 0.929 . S
C248 C247 1.362 . S
C248 C249 1.366 . S
C249 C246 1.365 . S
C249 C248 1.366 . S
C249 H263 0.930 . S
C250 C247 1.378 . S
C250 N251 1.315 . S
C250 H253 0.930 . S
N251 Co231 2.194 1_554 S
N251 C246 1.328 . S
N251 C250 1.315 . S
H252 C246 0.929 . S
H253 C250 0.930 . S
H254 C242 0.929 . S
H255 C244 0.929 . S
O256 Co231 2.351 . S
O256 C259 1.244 1_655 S
O257 Co231 2.155 . S
O257 C259 1.240 1_655 S
O258 Co231 2.096 . S
O258 C239 1.247 1_556 S
C259 O256 1.244 1_455 S
C259 O257 1.240 1_455 S
H260 C234 0.933 1_455 S
H261 C243 0.931 . S
H262 C247 0.929 . S
H263 C249 0.930 . S
Co264 N268 2.148 . S
Co264 N274 2.128 . S
Co264 N284 2.194 . S
Co264 O289 2.351 . S
Co264 O290 2.155 . S
Co264 O291 2.096 . S
C265 N268 1.301 1_545 S
C265 N269 1.328 . S
C265 H270 0.930 . S
C266 C267 1.333 . S
C266 N268 1.317 . S
C266 H271 0.930 . S
C267 C266 1.333 . S
C267 N269 1.350 1_565 S
C267 H293 0.931 . S
N268 Co264 2.148 . S
N268 C265 1.301 1_565 S
N268 C266 1.317 . S
N269 C265 1.328 . S
N269 C267 1.350 1_545 S
H270 C265 0.930 . S
H271 C266 0.930 . S
C272 O273 1.224 . S
C272 O291 1.247 . S
O273 C272 1.224 . S
N274 Co264 2.128 . S
N274 C275 1.355 . S
N274 C277 1.311 . S
C275 N274 1.355 . S
C275 C276 1.363 1_554 S
C275 H287 0.929 . S
C276 C275 1.363 1_556 S
C276 N278 1.375 . S
C276 H294 0.931 . S
C277 N274 1.311 . S
C277 N278 1.347 1_554 S
C277 H288 0.929 . S
N278 C276 1.375 . S
N278 C277 1.347 1_556 S
C279 C282 1.365 . S
C279 N284 1.328 . S
C279 H285 0.929 . S
C280 C281 1.362 . S
C280 C283 1.378 . S
C280 H295 0.929 . S
C281 C280 1.362 . S
C281 C282 1.366 . S
C282 C279 1.365 . S
C282 C281 1.366 . S
C282 H296 0.930 . S
C283 C280 1.378 . S
C283 N284 1.315 . S
C283 H286 0.930 . S
N284 Co264 2.194 . S
N284 C279 1.328 . S
N284 C283 1.315 . S
H285 C279 0.929 . S
H286 C283 0.930 . S
H287 C275 0.929 . S
H288 C277 0.929 . S
O289 Co264 2.351 . S
O289 C292 1.244 1_565 S
O290 Co264 2.155 . S
O290 C292 1.240 1_565 S
O291 Co264 2.096 . S
O291 C272 1.247 . S
C292 O289 1.244 1_545 S
C292 O290 1.240 1_545 S
H293 C267 0.931 . S
H294 C276 0.931 . S
H295 C280 0.929 . S
H296 C282 0.930 . S
Co297 N301 2.148 . S
Co297 N307 2.128 . S
Co297 N317 2.194 . S
Co297 O322 2.351 . S
Co297 O323 2.155 . S
Co297 O324 2.096 . S
C298 N301 1.301 . S
C298 N302 1.328 . S
C298 H303 0.930 . S
C299 C300 1.333 . S
C299 N301 1.317 . S
C299 H304 0.930 . S
C300 C299 1.333 . S
C300 N302 1.350 . S
C300 H326 0.931 . S
N301 Co297 2.148 . S
N301 C298 1.301 . S
N301 C299 1.317 . S
N302 C298 1.328 . S
N302 C300 1.350 . S
H303 C298 0.930 . S
H304 C299 0.930 . S
C305 O306 1.224 . S
C305 O324 1.247 . S
O306 C305 1.224 . S
N307 Co297 2.128 . S
N307 C308 1.355 . S
N307 C310 1.311 . S
C308 N307 1.355 . S
C308 C309 1.363 . S
C308 H320 0.929 . S
C309 C308 1.363 . S
C309 N311 1.375 . S
C309 H327 0.931 . S
C310 N307 1.311 . S
C310 N311 1.347 . S
C310 H321 0.929 . S
N311 C309 1.375 . S
N311 C310 1.347 . S
C312 C315 1.365 . S
C312 N317 1.328 . S
C312 H318 0.929 . S
C313 C314 1.362 . S
C313 C316 1.378 . S
C313 H328 0.929 . S
C314 C313 1.362 . S
C314 C315 1.366 . S
C315 C312 1.365 . S
C315 C314 1.366 . S
C315 H329 0.930 . S
C316 C313 1.378 . S
C316 N317 1.315 . S
C316 H319 0.930 . S
N317 Co297 2.194 . S
N317 C312 1.328 . S
N317 C316 1.315 . S
H318 C312 0.929 . S
H319 C316 0.930 . S
H320 C308 0.929 . S
H321 C310 0.929 . S
O322 Co297 2.351 . S
O322 C325 1.244 . S
O323 Co297 2.155 . S
O323 C325 1.240 . S
O324 Co297 2.096 . S
O324 C305 1.247 . S
C325 O322 1.244 . S
C325 O323 1.240 . S
H326 C300 0.931 . S
H327 C309 0.931 . S
H328 C313 0.929 . S
H329 C315 0.930 . S
Co330 N334 2.148 . S
Co330 N340 2.128 . S
Co330 N350 2.194 . S
Co330 O355 2.351 . S
Co330 O356 2.155 . S
Co330 O357 2.096 . S
C331 N334 1.301 1_655 S
C331 N335 1.328 . S
C331 H336 0.930 . S
C332 C333 1.333 . S
C332 N334 1.317 . S
C332 H337 0.930 . S
C333 C332 1.333 . S
C333 N335 1.350 1_455 S
C333 H359 0.935 1_455 S
N334 Co330 2.148 . S
N334 C331 1.301 1_455 S
N334 C332 1.317 . S
N335 C331 1.328 . S
N335 C333 1.350 1_655 S
H336 C331 0.930 . S
H337 C332 0.930 . S
C338 O339 1.224 . S
C338 O357 1.247 . S
O339 C338 1.224 . S
N340 Co330 2.128 . S
N340 C341 1.355 . S
N340 C343 1.311 . S
C341 N340 1.355 . S
C341 C342 1.363 . S
C341 H353 0.929 . S
C342 C341 1.363 . S
C342 N344 1.375 . S
C342 H360 0.931 . S
C343 N340 1.311 . S
C343 N344 1.347 . S
C343 H354 0.929 . S
N344 C342 1.375 . S
N344 C343 1.347 . S
C345 C348 1.365 . S
C345 N350 1.328 . S
C345 H351 0.929 . S
C346 C347 1.362 . S
C346 C349 1.378 . S
C346 H361 0.929 . S
C347 C346 1.362 . S
C347 C348 1.366 . S
C348 C345 1.365 . S
C348 C347 1.366 . S
C348 H362 0.930 . S
C349 C346 1.378 . S
C349 N350 1.315 . S
C349 H352 0.930 . S
N350 Co330 2.194 . S
N350 C345 1.328 . S
N350 C349 1.315 . S
H351 C345 0.929 . S
H352 C349 0.930 . S
H353 C341 0.929 . S
H354 C343 0.929 . S
O355 Co330 2.351 . S
O355 C358 1.244 1_455 S
O356 Co330 2.155 . S
O356 C358 1.240 1_455 S
O357 Co330 2.096 . S
O357 C338 1.247 . S
C358 O355 1.244 1_655 S
C358 O356 1.240 1_655 S
H359 C333 0.935 1_655 S
H360 C342 0.931 . S
H361 C346 0.929 . S
H362 C348 0.930 . S
Co363 N367 2.148 . S
Co363 N373 2.128 . S
Co363 N383 2.194 . S
Co363 O388 2.351 . S
Co363 O389 2.155 . S
Co363 O390 2.096 . S
C364 N367 1.301 1_565 S
C364 N368 1.328 . S
C364 H369 0.930 . S
C365 C366 1.333 . S
C365 N367 1.317 . S
C365 H370 0.930 . S
C366 C365 1.333 . S
C366 N368 1.350 1_545 S
C366 H392 0.931 . S
N367 Co363 2.148 . S
N367 C364 1.301 1_545 S
N367 C365 1.317 . S
N368 C364 1.328 . S
N368 C366 1.350 1_565 S
H369 C364 0.930 . S
H370 C365 0.930 . S
C371 O372 1.224 . S
C371 O390 1.247 . S
O372 C371 1.224 . S
N373 Co363 2.128 . S
N373 C374 1.355 . S
N373 C376 1.311 . S
C374 N373 1.355 . S
C374 C375 1.363 . S
C374 H386 0.929 . S
C375 C374 1.363 . S
C375 N377 1.375 . S
C375 H393 0.931 . S
C376 N373 1.311 . S
C376 N377 1.347 . S
C376 H387 0.929 . S
N377 C375 1.375 . S
N377 C376 1.347 . S
C378 C381 1.365 . S
C378 N383 1.328 . S
C378 H384 0.929 . S
C379 C380 1.362 . S
C379 C382 1.378 . S
C379 H394 0.929 . S
C380 C379 1.362 . S
C380 C381 1.366 . S
C381 C378 1.365 . S
C381 C380 1.366 . S
C381 H395 0.930 . S
C382 C379 1.378 . S
C382 N383 1.315 . S
C382 H385 0.930 . S
N383 Co363 2.194 . S
N383 C378 1.328 . S
N383 C382 1.315 . S
H384 C378 0.929 . S
H385 C382 0.930 . S
H386 C374 0.929 . S
H387 C376 0.929 . S
O388 Co363 2.351 . S
O388 C391 1.244 1_545 S
O389 Co363 2.155 . S
O389 C391 1.240 1_545 S
O390 Co363 2.096 . S
O390 C371 1.247 . S
C391 O388 1.244 1_565 S
C391 O389 1.240 1_565 S
H392 C366 0.931 . S
H393 C375 0.931 . S
H394 C379 0.929 . S
H395 C381 0.930 . S
N344 N14 1.426 . S
N47 N377 1.493 . S
N80 N212 1.493 . S
N113 N245 1.426 . S
N146 N278 1.475 . S
N179 N311 1.475 . S
N5 C173 2.000 . S
C8 N38 2.036 . S
C41 N71 2.033 . S
N104 C74 2.036 . S
N137 C107 2.071 . S
N170 C140 2.036 . S
C239 N203 2.036 . S
N236 C272 2.001 . S
N269 C305 2.036 . S
N302 C338 2.072 . S
N335 C371 2.036 . S
N368 C206 2.033 . S
C28 C325 1.630 . S
C61 C358 1.682 1_455 S
C94 C391 1.669 1_545 S
C127 C226 1.682 . S
C160 C259 1.631 1_655 S
C292 C193 1.671 1_544 S
C215 C17 2.321 . S
C50 C248 2.321 . S
C83 C281 2.375 . S
C314 C116 2.444 . S
C149 C347 2.444 . S
C380 C182 2.374 . S
