# Generated by pormake.
# Topology fni, (5)-cn, num edge types: 1
# Building blocks:
#     Node 0, Type 0, BuildingBlock: XOMCOT_clean_sbu_1, # of connection points: 5
#     Node 1, Type 0, BuildingBlock: XOMCOT_clean_sbu_1, # of connection points: 5
#     Node 2, Type 0, BuildingBlock: XOMCOT_clean_sbu_1, # of connection points: 5
#     Node 3, Type 0, BuildingBlock: XOMCOT_clean_sbu_1, # of connection points: 5
#     Node 4, Type 0, BuildingBlock: XOMCOT_clean_sbu_1, # of connection points: 5
#     Node 5, Type 0, BuildingBlock: XOMCOT_clean_sbu_1, # of connection points: 5
#     Node 6, Type 0, BuildingBlock: XOMCOT_clean_sbu_1, # of connection points: 5
#     Node 7, Type 0, BuildingBlock: XOMCOT_clean_sbu_1, # of connection points: 5
#     Edge 8, Type (0, 0), BuildingBlock: XIVTED_clean_linker_0, # of connection points: 2
#     Edge 9, Type (0, 0), BuildingBlock: XIVTED_clean_linker_0, # of connection points: 2
#     Edge 10, Type (0, 0), BuildingBlock: XIVTED_clean_linker_0, # of connection points: 2
#     Edge 11, Type (0, 0), BuildingBlock: XIVTED_clean_linker_0, # of connection points: 2
#     Edge 12, Type (0, 0), BuildingBlock: XIVTED_clean_linker_0, # of connection points: 2
#     Edge 13, Type (0, 0), BuildingBlock: XIVTED_clean_linker_0, # of connection points: 2
#     Edge 14, Type (0, 0), BuildingBlock: XIVTED_clean_linker_0, # of connection points: 2
#     Edge 15, Type (0, 0), BuildingBlock: XIVTED_clean_linker_0, # of connection points: 2
#     Edge 16, Type (0, 0), BuildingBlock: XIVTED_clean_linker_0, # of connection points: 2
#     Edge 17, Type (0, 0), BuildingBlock: XIVTED_clean_linker_0, # of connection points: 2
#     Edge 18, Type (0, 0), BuildingBlock: XIVTED_clean_linker_0, # of connection points: 2
#     Edge 19, Type (0, 0), BuildingBlock: XIVTED_clean_linker_0, # of connection points: 2
#     Edge 20, Type (0, 0), BuildingBlock: XIVTED_clean_linker_0, # of connection points: 2
#     Edge 21, Type (0, 0), BuildingBlock: XIVTED_clean_linker_0, # of connection points: 2
#     Edge 22, Type (0, 0), BuildingBlock: XIVTED_clean_linker_0, # of connection points: 2
#     Edge 23, Type (0, 0), BuildingBlock: XIVTED_clean_linker_0, # of connection points: 2
#     Edge 24, Type (0, 0), BuildingBlock: XIVTED_clean_linker_0, # of connection points: 2
#     Edge 25, Type (0, 0), BuildingBlock: XIVTED_clean_linker_0, # of connection points: 2
#     Edge 26, Type (0, 0), BuildingBlock: XIVTED_clean_linker_0, # of connection points: 2
#     Edge 27, Type (0, 0), BuildingBlock: XIVTED_clean_linker_0, # of connection points: 2
# Relax obj value: 0.165
# Max RMSD: 0.169
# Mean RMSD: 0.163
data_MOF--net-fni--node1-XOMCOT_clean_sbu_1--edge1-XIVTED_clean_linker_0
_symmetry_space_group_name_H-M    P1
_symmetry_Int_Tables_number       1
_symmetry_cell_setting            triclinic
loop_
_symmetry_equiv_pos_as_xyz
'x, y, z'
_cell_length_a     54.68296
_cell_length_b     52.574933
_cell_length_c     17.680883
_cell_angle_alpha  93.243666
_cell_angle_beta   93.602037
_cell_angle_gamma 90.405073
loop_
_atom_site_label
_atom_site_type_symbol
_atom_site_fract_x
_atom_site_fract_y
_atom_site_fract_z
_atom_type_partial_charge
C0 C 0.42697 0.41042 0.14317 0.0
C1 C 0.42607 0.41331 0.22086 0.0
N2 N 0.43613 0.39262 0.2515 0.0
N3 N 0.4373 0.3879 0.12493 0.0
C4 C 0.44293 0.37761 0.19206 0.0
H5 H 0.42028 0.42372 0.1024 0.0
Co6 Co 0.44181 0.37459 0.02737 0.0
C7 C 0.43286 0.31925 0.03378 0.0
O8 O 0.42022 0.32011 0.96827 0.0
N9 N 0.44725 0.36129 0.92751 0.0
C10 C 0.46583 0.34025 0.83468 0.0
C11 C 0.46406 0.34335 0.9118 0.0
C12 C 0.43959 0.36924 0.85842 0.0
N13 N 0.45047 0.35666 0.80095 0.0
O14 O 0.47649 0.38008 0.04637 0.0
H15 H 0.475 0.33364 0.95412 0.0
H16 H 0.4276 0.38509 0.84993 0.0
O17 O 0.44324 0.33959 0.06447 0.0
C18 C 0.48304 0.39934 0.01131 0.0
O19 O 0.46672 0.41004 0.96589 0.0
N20 N 0.40746 0.37267 0.0098 0.0
C21 C 0.3568 0.37943 0.99261 0.0
C22 C 0.36676 0.36161 0.04163 0.0
C23 C 0.39216 0.35907 0.05114 0.0
C24 C 0.39807 0.39116 0.96587 0.0
C25 C 0.37286 0.3944 0.9547 0.0
H26 H 0.39941 0.34723 0.0949 0.0
H27 H 0.41024 0.40458 0.94292 0.0
H28 H 0.45139 0.35921 0.19727 0.0
H29 H 0.41871 0.42947 0.25229 0.0
H30 H 0.47795 0.32725 0.80611 0.0
H31 H 0.35511 0.35065 0.0753 0.0
H32 H 0.3661 0.40898 0.91811 0.0
C33 C 0.62747 0.94388 0.2345 0.0
C34 C 0.62972 0.94334 0.15747 0.0
N35 N 0.61029 0.93056 0.12299 0.0
N36 N 0.60689 0.93118 0.24856 0.0
C37 C 0.5967 0.92343 0.17953 0.0
H38 H 0.63973 0.95352 0.27736 0.0
Co39 Co 0.59454 0.92803 0.34279 0.0
C40 C 0.57976 0.87421 0.34963 0.0
O41 O 0.58764 0.87555 0.4215 0.0
N42 N 0.58127 0.92569 0.43879 0.0
C43 C 0.55359 0.91995 0.52394 0.0
C44 C 0.55729 0.92112 0.44805 0.0
C45 C 0.59159 0.92767 0.51058 0.0
N46 N 0.57527 0.92395 0.56324 0.0
O47 O 0.5648 0.9433 0.30674 0.0
H48 H 0.54337 0.91801 0.40221 0.0
H49 H 0.61065 0.93173 0.52502 0.0
O50 O 0.58149 0.89378 0.31019 0.0
C51 C 0.56547 0.96754 0.30922 0.0
O52 O 0.58605 0.9793 0.33305 0.0
N53 N 0.62499 0.91488 0.37718 0.0
C54 C 0.67391 0.90346 0.41573 0.0
C55 C 0.65898 0.88629 0.36963 0.0
C56 C 0.63473 0.89257 0.34977 0.0
C57 C 0.63956 0.93218 0.41931 0.0
C58 C 0.66378 0.92662 0.44105 0.0
H59 H 0.62447 0.88009 0.30868 0.0
H60 H 0.63241 0.95076 0.43475 0.0
H61 H 0.57945 0.91314 0.17096 0.0
H62 H 0.64402 0.95255 0.12897 0.0
H63 H 0.5364 0.91573 0.54789 0.0
H64 H 0.6663 0.86875 0.34565 0.0
H65 H 0.67458 0.94065 0.47604 0.0
C66 C 0.04947 0.11805 0.47037 0.0
C67 C 0.04636 0.11866 0.39262 0.0
N68 N 0.06723 0.11069 0.3626 0.0
N69 N 0.07223 0.10995 0.48923 0.0
C70 C 0.08255 0.10538 0.42246 0.0
H71 H 0.03612 0.12345 0.5108 0.0
Co72 Co 0.08539 0.10714 0.58742 0.0
C73 C 0.1379 0.12063 0.58181 0.0
O74 O 0.13627 0.13446 0.6456 0.0
N75 N 0.09841 0.10335 0.68806 0.0
C76 C 0.1203 0.08668 0.78333 0.0
C77 C 0.11752 0.08819 0.70609 0.0
C78 C 0.08939 0.11008 0.7559 0.0
N79 N 0.10248 0.10038 0.81486 0.0
O80 O 0.08439 0.07057 0.5717 0.0
H81 H 0.12829 0.07798 0.66529 0.0
H82 H 0.07257 0.12027 0.76219 0.0
O83 O 0.119 0.10838 0.552 0.0
C84 C 0.06811 0.05958 0.6073 0.0
O85 O 0.05414 0.07365 0.65035 0.0
N86 N 0.0842 0.14316 0.60189 0.0
C87 C 0.0794 0.19574 0.62732 0.0
C88 C 0.09548 0.18582 0.57485 0.0
C89 C 0.09694 0.15949 0.56088 0.0
C90 C 0.06654 0.15259 0.64657 0.0
C91 C 0.06411 0.17884 0.66129 0.0
H92 H 0.10826 0.15239 0.5167 0.0
H93 H 0.05393 0.13973 0.66988 0.0
H94 H 0.10113 0.09884 0.41781 0.0
H95 H 0.02998 0.1244 0.36074 0.0
H96 H 0.13406 0.07577 0.81346 0.0
H97 H 0.10671 0.19833 0.54448 0.0
H98 H 0.05076 0.18579 0.70001 0.0
C99 C 0.84767 0.58345 0.67194 0.0
C100 C 0.84581 0.58192 0.59398 0.0
N101 N 0.86396 0.5961 0.56899 0.0
N102 N 0.86672 0.5988 0.69652 0.0
C103 C 0.87639 0.60605 0.6325 0.0
H104 H 0.83615 0.57341 0.70802 0.0
Co105 Co 0.87862 0.60587 0.7968 0.0
C106 C 0.892 0.66162 0.80487 0.0
O107 O 0.88557 0.66487 0.87511 0.0
N108 N 0.89121 0.61237 0.89804 0.0
C109 C 0.91748 0.622 0.99732 0.0
C110 C 0.91417 0.62077 0.91938 0.0
C111 C 0.88119 0.60804 0.96428 0.0
N112 N 0.89668 0.61388 0.02541 0.0
O113 O 0.90953 0.59211 0.77244 0.0
H114 H 0.92777 0.62559 0.88056 0.0
H115 H 0.86295 0.60061 0.96846 0.0
O116 O 0.88934 0.63975 0.76961 0.0
C117 C 0.90963 0.56791 0.77342 0.0
O118 O 0.88927 0.55609 0.78722 0.0
N119 N 0.84726 0.61677 0.8213 0.0
C120 C 0.79863 0.6223 0.85847 0.0
C121 C 0.81137 0.64265 0.8301 0.0
C122 C 0.83565 0.63931 0.81008 0.0
C123 C 0.83483 0.59679 0.84704 0.0
C124 C 0.81067 0.59913 0.86627 0.0
H125 H 0.84462 0.65461 0.78428 0.0
H126 H 0.84396 0.57874 0.85273 0.0
H127 H 0.89284 0.61758 0.63268 0.0
H128 H 0.83215 0.57102 0.55871 0.0
H129 H 0.9341 0.62775 0.03052 0.0
H130 H 0.80245 0.6607 0.82179 0.0
H131 H 0.80159 0.58295 0.88806 0.0
C132 C 0.35252 0.08398 0.16965 0.0
C133 C 0.35008 0.08304 0.09168 0.0
N134 N 0.36663 0.0992 0.06687 0.0
N135 N 0.37032 0.10089 0.19412 0.0
C136 C 0.37875 0.10969 0.13015 0.0
H137 H 0.34228 0.07261 0.206 0.0
Co138 Co 0.38155 0.10839 0.29461 0.0
C139 C 0.39021 0.16456 0.30477 0.0
O140 O 0.3805 0.16654 0.37096 0.0
N141 N 0.39354 0.11553 0.39633 0.0
C142 C 0.41921 0.12781 0.49472 0.0
C143 C 0.41583 0.12585 0.41692 0.0
C144 C 0.38399 0.11088 0.46311 0.0
N145 N 0.39911 0.11838 0.52389 0.0
O146 O 0.41312 0.09598 0.27176 0.0
H147 H 0.42886 0.13175 0.37761 0.0
H148 H 0.36661 0.10156 0.4678 0.0
O149 O 0.3911 0.14283 0.26874 0.0
C150 C 0.41369 0.07182 0.27401 0.0
O151 O 0.39353 0.05974 0.28851 0.0
N152 N 0.34951 0.11773 0.31711 0.0
C153 C 0.30028 0.12101 0.34995 0.0
C154 C 0.31183 0.14104 0.31611 0.0
C155 C 0.33638 0.13871 0.29801 0.0
C156 C 0.33812 0.09777 0.34663 0.0
C157 C 0.31372 0.09907 0.36425 0.0
H158 H 0.34436 0.15342 0.26703 0.0
H159 H 0.34822 0.0805 0.3563 0.0
H160 H 0.39358 0.12341 0.13001 0.0
H161 H 0.3376 0.0708 0.056 0.0
H162 H 0.43519 0.13578 0.52701 0.0
H163 H 0.30178 0.15799 0.30194 0.0
H164 H 0.30552 0.08307 0.38967 0.0
C165 C 0.92252 0.90742 0.64529 0.0
C166 C 0.92139 0.9103 0.72288 0.0
N167 N 0.93156 0.88971 0.754 0.0
N168 N 0.93318 0.88507 0.62746 0.0
C169 C 0.93869 0.87485 0.69465 0.0
H170 H 0.91611 0.92081 0.60443 0.0
Co171 Co 0.9394 0.87254 0.53061 0.0
C172 C 0.93666 0.81614 0.53409 0.0
O173 O 0.92669 0.81533 0.4644 0.0
N174 N 0.94655 0.86035 0.43146 0.0
C175 C 0.96829 0.8438 0.3386 0.0
C176 C 0.96641 0.84633 0.41578 0.0
C177 C 0.93684 0.8663 0.36242 0.0
N178 N 0.9497 0.85652 0.30493 0.0
O179 O 0.97354 0.8808 0.55279 0.0
H180 H 0.9793 0.83917 0.45818 0.0
H181 H 0.92115 0.87825 0.35388 0.0
O182 O 0.94311 0.8377 0.56725 0.0
C183 C 0.97881 0.90069 0.51861 0.0
O184 O 0.96185 0.91043 0.4732 0.0
N185 N 0.9055 0.86792 0.50975 0.0
C186 C 0.85468 0.87318 0.49171 0.0
C187 C 0.86499 0.85358 0.5336 0.0
C188 C 0.89049 0.85162 0.54345 0.0
C189 C 0.8957 0.88749 0.47117 0.0
C190 C 0.87046 0.89009 0.45968 0.0
H191 H 0.89786 0.83811 0.58221 0.0
H192 H 0.90764 0.90196 0.45203 0.0
H193 H 0.94779 0.85684 0.69984 0.0
H194 H 0.91398 0.92654 0.75369 0.0
H195 H 0.98294 0.83439 0.31003 0.0
H196 H 0.85351 0.84079 0.56212 0.0
H197 H 0.86343 0.90572 0.42771 0.0
C198 C 0.12631 0.45084 0.7333 0.0
C199 C 0.12888 0.45097 0.65654 0.0
N200 N 0.11098 0.43624 0.6207 0.0
N201 N 0.10708 0.43582 0.7459 0.0
C202 C 0.09795 0.42735 0.67623 0.0
H203 H 0.13746 0.46143 0.77711 0.0
Co204 Co 0.09536 0.43066 0.84005 0.0
C205 C 0.08711 0.37557 0.84426 0.0
O206 O 0.09627 0.37769 0.91489 0.0
N207 N 0.08263 0.42618 0.93586 0.0
C208 C 0.05565 0.41644 0.01953 0.0
C209 C 0.05949 0.41798 0.94389 0.0
C210 C 0.09225 0.42997 0.00816 0.0
N211 N 0.07636 0.42391 0.06001 0.0
O212 O 0.06438 0.44376 0.80582 0.0
H213 H 0.04629 0.41282 0.8973 0.0
H214 H 0.11041 0.43724 0.02356 0.0
O215 O 0.08504 0.39547 0.80575 0.0
C216 C 0.06422 0.46802 0.81034 0.0
O217 O 0.08445 0.48028 0.83505 0.0
N218 N 0.12702 0.41992 0.87275 0.0
C219 C 0.17647 0.41115 0.91157 0.0
C220 C 0.16294 0.3943 0.8605 0.0
C221 C 0.13847 0.39938 0.84028 0.0
C222 C 0.14037 0.43732 0.91851 0.0
C223 C 0.16489 0.43302 0.94035 0.0
H224 H 0.12929 0.38745 0.79546 0.0
H225 H 0.13209 0.45511 0.93643 0.0
H226 H 0.08194 0.41511 0.6665 0.0
H227 H 0.14236 0.4618 0.62914 0.0
H228 H 0.03906 0.40975 0.04259 0.0
H229 H 0.17148 0.37796 0.83335 0.0
H230 H 0.17475 0.44696 0.97834 0.0
C231 C 0.54915 0.61467 0.98498 0.0
C232 C 0.54618 0.61523 0.90721 0.0
N233 N 0.56759 0.6088 0.87768 0.0
N234 N 0.57234 0.60806 0.00445 0.0
C235 C 0.58306 0.60437 0.93807 0.0
H236 H 0.53543 0.61919 0.02498 0.0
Co237 Co 0.58551 0.60565 0.10269 0.0
C238 C 0.63759 0.62139 0.09769 0.0
O239 O 0.63584 0.63486 0.16204 0.0
N240 N 0.59863 0.60235 0.20334 0.0
C241 C 0.62094 0.58696 0.3 0.0
C242 C 0.61817 0.58789 0.22245 0.0
C243 C 0.5894 0.60926 0.27067 0.0
N244 N 0.60271 0.60033 0.33023 0.0
O245 O 0.58631 0.56912 0.08626 0.0
H246 H 0.62921 0.57775 0.18224 0.0
H247 H 0.57271 0.61972 0.27658 0.0
O248 O 0.61894 0.60877 0.06786 0.0
C249 C 0.57044 0.55739 0.12159 0.0
O250 O 0.55599 0.57077 0.16481 0.0
N251 N 0.58238 0.64139 0.11806 0.0
C252 C 0.57309 0.69318 0.14703 0.0
C253 C 0.59084 0.68529 0.09693 0.0
C254 C 0.59468 0.65928 0.08144 0.0
C255 C 0.56324 0.64869 0.15971 0.0
C256 C 0.55859 0.6744 0.17632 0.0
H257 H 0.60739 0.65373 0.03943 0.0
H258 H 0.55121 0.63441 0.17929 0.0
H259 H 0.60183 0.59839 0.93411 0.0
H260 H 0.52966 0.62055 0.8753 0.0
H261 H 0.63452 0.57616 0.33135 0.0
H262 H 0.60196 0.69899 0.07064 0.0
H263 H 0.54363 0.67947 0.21135 0.0
H264 H 0.55335 0.52631 0.22425 0.0
H265 H 0.51231 0.42042 0.91355 0.0
H266 H 0.57887 0.52501 0.99829 0.0
H267 H 0.50518 0.41157 0.15188 0.0
H268 H 0.54194 0.45497 0.94519 0.0
H269 H 0.54055 0.48182 0.2026 0.0
C270 C 0.5566 0.51648 0.17033 0.0
C271 C 0.56689 0.52944 0.11257 0.0
C272 C 0.53452 0.44505 0.99078 0.0
C273 C 0.55187 0.47847 0.08682 0.0
C274 C 0.51772 0.4252 0.9727 0.0
C275 C 0.50635 0.41318 0.03025 0.0
C276 C 0.53945 0.45346 0.06704 0.0
C277 C 0.51372 0.42023 0.1059 0.0
C278 C 0.54936 0.49101 0.15809 0.0
C279 C 0.57092 0.51573 0.04419 0.0
N280 N 0.52938 0.44036 0.12216 0.0
N281 N 0.56292 0.49111 0.03259 0.0
H282 H 0.461 0.09 0.272 0.0
H283 H 0.51858 0.95005 0.27231 0.0
H284 H 0.41826 0.02035 0.2574 0.0
H285 H 0.56182 0.01926 0.30501 0.0
H286 H 0.48183 0.97567 0.25223 0.0
H287 H 0.49845 0.06458 0.26965 0.0
C288 C 0.45949 0.06941 0.2675 0.0
C289 C 0.4365 0.05728 0.26556 0.0
C290 C 0.49939 0.98526 0.26335 0.0
C291 C 0.47913 0.02813 0.26312 0.0
C292 C 0.52038 0.97061 0.27467 0.0
C293 C 0.54328 0.98252 0.29097 0.0
C294 C 0.5013 0.01201 0.26837 0.0
C295 C 0.54451 0.00926 0.29318 0.0
C296 C 0.48084 0.0549 0.26641 0.0
C297 C 0.4356 0.03054 0.25979 0.0
N298 N 0.52381 0.0231 0.28247 0.0
N299 N 0.45656 0.0169 0.25917 0.0
H300 H 0.00201 0.91343 0.6575 0.0
H301 H 0.07666 0.02628 0.48629 0.0
H302 H 0.00625 0.92294 0.41823 0.0
H303 H 0.04927 0.02962 0.71005 0.0
H304 H 0.06262 0.98166 0.46831 0.0
H305 H 0.03157 0.94877 0.68443 0.0
C306 C 0.00994 0.92228 0.61071 0.0
C307 C 0.00173 0.91542 0.53562 0.0
C308 C 0.06012 0.99207 0.52183 0.0
C309 C 0.03502 0.9559 0.56567 0.0
C310 C 0.06819 0.01746 0.53215 0.0
C311 C 0.06375 0.03172 0.59925 0.0
C312 C 0.04789 0.98087 0.57948 0.0
C313 C 0.05267 0.0194 0.65691 0.0
C314 C 0.02654 0.94261 0.626 0.0
C315 C 0.01214 0.9278 0.47694 0.0
N316 N 0.04496 0.99478 0.64553 0.0
N317 N 0.02803 0.94763 0.49314 0.0
H318 H 0.06009 0.51941 0.80108 0.0
H319 H 0.91391 0.51628 0.7584 0.0
H320 H 0.01714 0.44988 0.77906 0.0
H321 H 0.95699 0.58567 0.77046 0.0
H322 H 0.95148 0.49165 0.75672 0.0
H323 H 0.02273 0.54377 0.78108 0.0
C324 C 0.04279 0.50922 0.79161 0.0
C325 C 0.04173 0.48254 0.79234 0.0
C326 C 0.95276 0.51225 0.75915 0.0
C327 C 0.99875 0.51045 0.76961 0.0
C328 C 0.93129 0.52637 0.76016 0.0
C329 C 0.93231 0.55311 0.76516 0.0
C330 C 0.97552 0.52491 0.76366 0.0
C331 C 0.95535 0.56509 0.76673 0.0
C332 C 0.02144 0.52319 0.78008 0.0
C333 C 0.0188 0.47042 0.77916 0.0
N334 N 0.97607 0.5509 0.76663 0.0
N335 N 0.99818 0.48449 0.76892 0.0
H336 H 0.47052 0.36353 0.32171 0.0
H337 H 0.41224 0.3794 0.72572 0.0
H338 H 0.40701 0.40928 0.36265 0.0
H339 H 0.48246 0.34487 0.69219 0.0
H340 H 0.40869 0.38837 0.59159 0.0
H341 H 0.47373 0.35411 0.45574 0.0
C342 C 0.45718 0.37151 0.35878 0.0
C343 C 0.43846 0.38723 0.33075 0.0
C344 C 0.42488 0.37883 0.61369 0.0
C345 C 0.44208 0.3766 0.48461 0.0
C346 C 0.42699 0.37378 0.69055 0.0
C347 C 0.44776 0.36142 0.72107 0.0
C348 C 0.44358 0.37136 0.5665 0.0
C349 C 0.46599 0.35417 0.67167 0.0
C350 C 0.4591 0.36624 0.43545 0.0
C351 C 0.4219 0.39733 0.38184 0.0
N352 N 0.46347 0.35925 0.59706 0.0
N353 N 0.42405 0.39178 0.45616 0.0
H354 H 0.56513 0.92763 0.04952 0.0
H355 H 0.61884 0.91441 0.63887 0.0
H356 H 0.64233 0.92587 0.01264 0.0
H357 H 0.54316 0.93181 0.6737 0.0
H358 H 0.6271 0.91436 0.77567 0.0
H359 H 0.55601 0.92435 0.91192 0.0
C360 C 0.58014 0.92628 0.0125 0.0
C361 C 0.60454 0.92713 0.04249 0.0
C362 C 0.60868 0.91821 0.75339 0.0
C363 C 0.59428 0.92357 0.88527 0.0
C364 C 0.60395 0.91843 0.67506 0.0
C365 C 0.58028 0.92341 0.64426 0.0
C366 C 0.5896 0.92285 0.80169 0.0
C367 C 0.56164 0.92773 0.69457 0.0
C368 C 0.57494 0.92461 0.934 0.0
C369 C 0.62329 0.92563 0.99187 0.0
N370 N 0.56671 0.9274 0.77078 0.0
N371 N 0.61778 0.92394 0.9158 0.0
H372 H 0.07573 0.13677 0.8871 0.0
H373 H 0.09889 0.07869 0.29401 0.0
H374 H 0.11721 0.06855 0.92501 0.0
H375 H 0.04746 0.13877 0.25019 0.0
H376 H 0.10777 0.07645 0.16014 0.0
H377 H 0.06676 0.13933 0.02092 0.0
C378 C 0.08288 0.12225 0.92317 0.0
C379 C 0.09727 0.10239 0.89411 0.0
C380 C 0.0945 0.0901 0.17974 0.0
C381 C 0.08731 0.10544 0.04804 0.0
C382 C 0.08953 0.09149 0.25633 0.0
C383 C 0.07239 0.10894 0.28348 0.0
C384 C 0.08239 0.10641 0.1298 0.0
C385 C 0.06058 0.12482 0.23165 0.0
C386 C 0.07782 0.1238 0.99979 0.0
C387 C 0.10635 0.08441 0.94445 0.0
N388 N 0.06585 0.12323 0.1574 0.0
N389 N 0.10123 0.08639 0.01873 0.0
H390 H 0.86619 0.57984 0.08227 0.0
H391 H 0.89076 0.63392 0.51286 0.0
H392 H 0.91681 0.64159 0.14855 0.0
H393 H 0.84976 0.56494 0.44559 0.0
H394 H 0.89941 0.63836 0.38019 0.0
H395 H 0.85839 0.57573 0.21527 0.0
C396 C 0.87557 0.59266 0.12474 0.0
C397 C 0.89213 0.61116 0.10405 0.0
C398 C 0.88853 0.62225 0.39468 0.0
C399 C 0.88342 0.60641 0.25712 0.0
C400 C 0.88366 0.61963 0.47058 0.0
C401 C 0.86941 0.59903 0.49099 0.0
C402 C 0.87902 0.60423 0.33858 0.0
C403 C 0.86046 0.58135 0.43303 0.0
C404 C 0.87123 0.59019 0.20088 0.0
C405 C 0.90407 0.62693 0.16197 0.0
N406 N 0.86538 0.5844 0.35975 0.0
N407 N 0.89943 0.62426 0.23584 0.0
H408 H 0.33353 0.09539 0.94601 0.0
H409 H 0.43301 0.1187 0.64389 0.0
H410 H 0.40956 0.11258 0.00929 0.0
H411 H 0.3551 0.1139 0.58656 0.0
H412 H 0.42509 0.11547 0.77726 0.0
H413 H 0.34139 0.10078 0.81341 0.0
C414 C 0.3519 0.10025 0.93198 0.0
C415 C 0.37093 0.10343 0.98889 0.0
C416 C 0.40973 0.11517 0.73543 0.0
C417 C 0.38009 0.10973 0.83691 0.0
C418 C 0.41423 0.11712 0.65905 0.0
C419 C 0.39472 0.11651 0.60321 0.0
C420 C 0.38556 0.11248 0.75648 0.0
C421 C 0.37079 0.11403 0.62691 0.0
C422 C 0.35636 0.10347 0.85626 0.0
C423 C 0.39431 0.11015 0.96745 0.0
N424 N 0.36693 0.11205 0.70155 0.0
N425 N 0.39826 0.11293 0.89313 0.0
H426 H 0.92397 0.8949 0.24013 0.0
H427 H 0.96211 0.85564 0.82166 0.0
H428 H 0.96681 0.82837 0.18579 0.0
H429 H 0.90699 0.91174 0.86987 0.0
H430 H 0.9656 0.84677 0.9554 0.0
H431 H 0.91891 0.90251 0.10566 0.0
C432 C 0.93214 0.88168 0.20026 0.0
C433 C 0.94587 0.86087 0.22507 0.0
C434 C 0.95271 0.86099 0.9366 0.0
C435 C 0.94047 0.86991 0.07016 0.0
C436 C 0.9506 0.86605 0.85985 0.0
C437 C 0.93415 0.88451 0.83355 0.0
C438 C 0.93843 0.87457 0.98799 0.0
C439 C 0.92014 0.8976 0.88699 0.0
C440 C 0.92935 0.88618 0.12319 0.0
C441 C 0.95637 0.84483 0.1699 0.0
N442 N 0.92264 0.89241 0.96152 0.0
N443 N 0.95352 0.84974 0.09521 0.0
H444 H 0.14417 0.43559 0.51341 0.0
H445 H 0.04268 0.42707 0.16723 0.0
H446 H 0.06684 0.42807 0.54331 0.0
H447 H 0.12045 0.42205 0.13996 0.0
H448 H 0.05089 0.42815 0.30474 0.0
H449 H 0.13564 0.43153 0.37608 0.0
C450 C 0.12538 0.43308 0.49099 0.0
C451 C 0.10618 0.43229 0.53985 0.0
C452 C 0.06614 0.42677 0.26855 0.0
C453 C 0.09622 0.4276 0.3825 0.0
C454 C 0.06146 0.42607 0.18988 0.0
C455 C 0.08089 0.4246 0.14145 0.0
C456 C 0.09042 0.4261 0.29924 0.0
C457 C 0.10488 0.42369 0.17459 0.0
C458 C 0.12052 0.43064 0.41257 0.0
C459 C 0.0822 0.42859 0.50772 0.0
N460 N 0.10894 0.42452 0.25126 0.0
N461 N 0.07787 0.42656 0.431 0.0
H462 H 0.61249 0.61153 0.81947 0.0
H463 H 0.55798 0.60513 0.38819 0.0
H464 H 0.53524 0.60373 0.75404 0.0
H465 H 0.63514 0.60026 0.45263 0.0
H466 H 0.54935 0.60771 0.52224 0.0
H467 H 0.62115 0.60981 0.68582 0.0
C468 C 0.59731 0.60927 0.77731 0.0
C469 C 0.57304 0.60769 0.79865 0.0
C470 C 0.56818 0.60611 0.5071 0.0
C471 C 0.58292 0.60615 0.64479 0.0
C472 C 0.57314 0.60484 0.4305 0.0
C473 C 0.59735 0.60252 0.4091 0.0
C474 C 0.58756 0.60519 0.56287 0.0
C475 C 0.61621 0.60178 0.46657 0.0
C476 C 0.60231 0.60844 0.70077 0.0
C477 C 0.55419 0.60531 0.74076 0.0
N478 N 0.61092 0.60315 0.54078 0.0
N479 N 0.55954 0.60463 0.66664 0.0
H480 H 0.21388 0.44645 0.92614 0.0
H481 H 0.31974 0.34365 0.98228 0.0
H482 H 0.19952 0.36594 0.93764 0.0
H483 H 0.33266 0.42483 0.98648 0.0
H484 H 0.27562 0.35121 0.96808 0.0
H485 H 0.25744 0.43875 0.95084 0.0
C486 C 0.21983 0.42717 0.9348 0.0
C487 C 0.20294 0.40682 0.92994 0.0
C488 C 0.28813 0.36736 0.97216 0.0
C489 C 0.25302 0.39778 0.95684 0.0
C490 C 0.31331 0.36306 0.98053 0.0
C491 C 0.32996 0.38361 0.98487 0.0
C492 C 0.27954 0.3924 0.96818 0.0
C493 C 0.32058 0.40835 0.98174 0.0
C494 C 0.24478 0.42275 0.94834 0.0
C495 C 0.21189 0.38217 0.94002 0.0
N496 N 0.29604 0.41203 0.97343 0.0
N497 N 0.23632 0.37833 0.95279 0.0
H498 H 0.5637 0.83315 0.41906 0.0
H499 H 0.5766 0.7353 0.06103 0.0
H500 H 0.58063 0.85746 0.1991 0.0
H501 H 0.56287 0.71383 0.28682 0.0
H502 H 0.57417 0.78022 0.105 0.0
H503 H 0.55835 0.78971 0.36541 0.0
C504 C 0.56604 0.82936 0.35908 0.0
C505 C 0.57284 0.8489 0.31364 0.0
C506 C 0.57149 0.76562 0.14459 0.0
C507 C 0.56709 0.7989 0.25167 0.0
C508 C 0.57304 0.73995 0.11972 0.0
C509 C 0.57005 0.72061 0.1703 0.0
C510 C 0.56694 0.77201 0.22061 0.0
C511 C 0.565 0.72791 0.24532 0.0
C512 C 0.56302 0.80449 0.32842 0.0
C513 C 0.57538 0.84292 0.23612 0.0
N514 N 0.56375 0.75293 0.26809 0.0
N515 N 0.57281 0.81833 0.20767 0.0
H516 H 0.26368 0.08528 0.32231 0.0
H517 H 0.17636 0.15365 0.61208 0.0
H518 H 0.27845 0.16023 0.42787 0.0
H519 H 0.15173 0.09023 0.45994 0.0
H520 H 0.21428 0.15544 0.54729 0.0
H521 H 0.22292 0.08605 0.37241 0.0
C522 C 0.25823 0.102 0.35554 0.0
C523 C 0.27451 0.12268 0.37145 0.0
C524 C 0.20057 0.14119 0.52774 0.0
C525 C 0.22803 0.12356 0.42952 0.0
C526 C 0.17892 0.14002 0.56506 0.0
C527 C 0.16086 0.12161 0.54181 0.0
C528 C 0.20446 0.12362 0.46709 0.0
C529 C 0.16519 0.10467 0.47994 0.0
C530 C 0.23496 0.10244 0.38392 0.0
C531 C 0.26644 0.14394 0.41406 0.0
N532 N 0.18666 0.10593 0.44509 0.0
N533 N 0.24389 0.14371 0.44242 0.0
H534 H 0.9029 0.66349 0.65567 0.0
H535 H 0.93949 0.81196 0.68935 0.0
H536 H 0.90271 0.71003 0.86471 0.0
H537 H 0.93029 0.76707 0.47738 0.0
H538 H 0.93116 0.77377 0.75714 0.0
H539 H 0.91741 0.70022 0.59202 0.0
C540 C 0.90597 0.68138 0.68836 0.0
C541 C 0.9014 0.68363 0.7657 0.0
C542 C 0.9312 0.77225 0.69582 0.0
C543 C 0.91816 0.72593 0.69292 0.0
C544 C 0.93615 0.79404 0.65707 0.0
C545 C 0.93547 0.79281 0.57741 0.0
C546 C 0.92564 0.74903 0.65466 0.0
C547 C 0.93084 0.76901 0.53875 0.0
C548 C 0.91428 0.70241 0.65189 0.0
C549 C 0.90581 0.7074 0.80493 0.0
N550 N 0.92598 0.74816 0.5776 0.0
N551 N 0.91388 0.7276 0.76814 0.0
H552 H 0.8305 0.91847 0.50145 0.0
H553 H 0.69575 0.85766 0.44527 0.0
H554 H 0.8175 0.83733 0.47045 0.0
H555 H 0.71257 0.93715 0.42248 0.0
H556 H 0.73962 0.84957 0.4674 0.0
H557 H 0.7866 0.92538 0.48671 0.0
C558 C 0.81842 0.90206 0.49089 0.0
C559 C 0.82779 0.87727 0.48582 0.0
C560 C 0.73361 0.86877 0.45783 0.0
C561 C 0.77722 0.88511 0.4703 0.0
C562 C 0.7086 0.87341 0.44491 0.0
C563 C 0.70034 0.89817 0.43227 0.0
C564 C 0.75047 0.88906 0.45846 0.0
C565 C 0.71788 0.91786 0.43346 0.0
C566 C 0.79329 0.90604 0.48295 0.0
C567 C 0.81109 0.85676 0.47473 0.0
N568 N 0.74203 0.91286 0.4463 0.0
N569 N 0.78658 0.86113 0.46703 0.0
H570 H 0.04014 0.22813 0.63576 0.0
H571 H 0.11543 0.33524 0.87586 0.0
H572 H 0.11889 0.22603 0.66921 0.0
H573 H 0.05489 0.35743 0.7263 0.0
H574 H 0.11314 0.29247 0.81526 0.0
H575 H 0.04137 0.2734 0.68115 0.0
C576 C 0.05764 0.23725 0.65221 0.0
C577 C 0.07947 0.2234 0.64892 0.0
C578 C 0.10036 0.30667 0.79555 0.0
C579 C 0.0809 0.27458 0.7015 0.0
C580 C 0.1015 0.33103 0.83045 0.0
C581 C 0.08519 0.34983 0.8063 0.0
C582 C 0.08244 0.30074 0.73701 0.0
C583 C 0.06776 0.3434 0.74644 0.0
C584 C 0.05832 0.26299 0.67752 0.0
C585 C 0.10168 0.23606 0.67047 0.0
N586 N 0.0666 0.31916 0.71421 0.0
N587 N 0.10179 0.2608 0.69685 0.0
H588 H 0.67681 0.65329 0.13242 0.0
H589 H 0.76001 0.58977 0.82118 0.0
H590 H 0.65038 0.59335 0.97021 0.0
H591 H 0.77931 0.66007 0.9491 0.0
H592 H 0.71965 0.59083 0.87355 0.0
H593 H 0.71446 0.65581 0.06624 0.0
C594 C 0.67891 0.6406 0.08288 0.0
C595 C 0.66042 0.62293 0.0572 0.0
C596 C 0.73258 0.60619 0.88958 0.0
C597 C 0.70366 0.6258 0.98089 0.0
C598 C 0.75562 0.60558 0.8598 0.0
C599 C 0.77307 0.62479 0.8813 0.0
C600 C 0.72701 0.62599 0.94213 0.0
C601 C 0.76636 0.64494 0.93087 0.0
C602 C 0.7004 0.64218 0.04483 0.0
C603 C 0.66416 0.60718 0.99222 0.0
N604 N 0.74397 0.64486 0.96037 0.0
N605 N 0.68544 0.60886 0.95662 0.0
H606 H 0.46703 0.28905 0.10592 0.0
H607 H 0.37157 0.21222 0.32273 0.0
H608 H 0.38931 0.29933 0.06447 0.0
H609 H 0.42681 0.16994 0.20706 0.0
H610 H 0.38374 0.25057 0.2611 0.0
H611 H 0.45829 0.25074 0.17561 0.0
C612 C 0.44822 0.28338 0.11224 0.0
C613 C 0.42883 0.29718 0.07959 0.0
C614 C 0.3933 0.23291 0.2499 0.0
C615 C 0.41884 0.25435 0.15968 0.0
C616 C 0.38643 0.21108 0.28498 0.0
C617 C 0.39812 0.18787 0.26954 0.0
C618 C 0.41246 0.23174 0.20077 0.0
C619 C 0.41722 0.18745 0.21987 0.0
C620 C 0.44328 0.26159 0.15136 0.0
C621 C 0.40475 0.28911 0.08875 0.0
N622 N 0.42396 0.20915 0.18747 0.0
N623 N 0.40042 0.2684 0.1286 0.0
loop_
_geom_bond_atom_site_label_1
_geom_bond_atom_site_label_2
_geom_bond_distance
_geom_bond_site_symmetry_2
_ccdc_geom_bond_type
C0 C1 1.351 . S
C0 N3 1.368 . S
C0 H5 0.931 . S
C1 C0 1.351 . S
C1 N2 1.373 . S
C1 H29 0.930 . S
N2 C1 1.373 . S
N2 C4 1.340 . S
N3 C0 1.368 . S
N3 C4 1.321 . S
N3 Co6 2.135 . S
C4 N2 1.340 . S
C4 N3 1.321 . S
C4 H28 0.930 . S
H5 C0 0.931 . S
Co6 N3 2.135 . S
Co6 N9 2.121 1_554 S
Co6 O14 2.055 . S
Co6 O17 2.039 . S
Co6 N20 2.140 . S
C7 O8 1.227 . S
C7 O17 1.265 . S
O8 C7 1.227 . S
N9 Co6 2.121 1_556 S
N9 C11 1.375 . S
N9 C12 1.313 . S
C10 C11 1.338 . S
C10 N13 1.377 . S
C10 H30 0.930 . S
C11 N9 1.375 . S
C11 C10 1.338 . S
C11 H15 0.931 . S
C12 N9 1.313 . S
C12 N13 1.344 . S
C12 H16 0.930 . S
N13 C10 1.377 . S
N13 C12 1.344 . S
O14 Co6 2.055 . S
O14 C18 1.253 . S
H15 C11 0.931 . S
H16 C12 0.930 . S
O17 Co6 2.039 . S
O17 C7 1.265 . S
C18 O14 1.253 . S
C18 O19 1.227 . S
O19 C18 1.227 . S
N20 Co6 2.140 . S
N20 C23 1.346 . S
N20 C24 1.345 . S
C21 C22 1.387 . S
C21 C25 1.391 . S
C22 C21 1.387 . S
C22 C23 1.369 . S
C22 H31 0.929 . S
C23 N20 1.346 . S
C23 C22 1.369 . S
C23 H26 0.928 . S
C24 N20 1.345 . S
C24 C25 1.371 . S
C24 H27 0.931 1_554 S
C25 C21 1.391 . S
C25 C24 1.371 . S
C25 H32 0.930 1_554 S
H26 C23 0.928 . S
H27 C24 0.931 1_556 S
H28 C4 0.930 . S
H29 C1 0.930 . S
H30 C10 0.930 . S
H31 C22 0.929 . S
H32 C25 0.930 1_556 S
C33 C34 1.351 . S
C33 N36 1.368 . S
C33 H38 0.931 . S
C34 C33 1.351 . S
C34 N35 1.373 . S
C34 H62 0.930 . S
N35 C34 1.373 . S
N35 C37 1.340 . S
N36 C33 1.368 . S
N36 C37 1.321 . S
N36 Co39 2.135 . S
C37 N35 1.340 . S
C37 N36 1.321 . S
C37 H61 0.930 . S
H38 C33 0.931 . S
Co39 N36 2.135 . S
Co39 N42 2.121 . S
Co39 O47 2.055 . S
Co39 O50 2.039 . S
Co39 N53 2.140 . S
C40 O41 1.227 . S
C40 O50 1.265 . S
O41 C40 1.227 . S
N42 Co39 2.121 . S
N42 C44 1.375 . S
N42 C45 1.313 . S
C43 C44 1.338 . S
C43 N46 1.377 . S
C43 H63 0.930 . S
C44 N42 1.375 . S
C44 C43 1.338 . S
C44 H48 0.931 . S
C45 N42 1.313 . S
C45 N46 1.344 . S
C45 H49 0.930 . S
N46 C43 1.377 . S
N46 C45 1.344 . S
O47 Co39 2.055 . S
O47 C51 1.253 . S
H48 C44 0.931 . S
H49 C45 0.930 . S
O50 Co39 2.039 . S
O50 C40 1.265 . S
C51 O47 1.253 . S
C51 O52 1.227 . S
O52 C51 1.227 . S
N53 Co39 2.140 . S
N53 C56 1.346 . S
N53 C57 1.345 . S
C54 C55 1.387 . S
C54 C58 1.391 . S
C55 C54 1.387 . S
C55 C56 1.369 . S
C55 H64 0.929 . S
C56 N53 1.346 . S
C56 C55 1.369 . S
C56 H59 0.928 . S
C57 N53 1.345 . S
C57 C58 1.371 . S
C57 H60 0.931 . S
C58 C54 1.391 . S
C58 C57 1.371 . S
C58 H65 0.930 . S
H59 C56 0.928 . S
H60 C57 0.931 . S
H61 C37 0.930 . S
H62 C34 0.930 . S
H63 C43 0.930 . S
H64 C55 0.929 . S
H65 C58 0.930 . S
C66 C67 1.351 . S
C66 N69 1.368 . S
C66 H71 0.931 . S
C67 C66 1.351 . S
C67 N68 1.373 . S
C67 H95 0.930 . S
N68 C67 1.373 . S
N68 C70 1.340 . S
N69 C66 1.368 . S
N69 C70 1.321 . S
N69 Co72 2.135 . S
C70 N68 1.340 . S
C70 N69 1.321 . S
C70 H94 0.930 . S
H71 C66 0.931 . S
Co72 N69 2.135 . S
Co72 N75 2.121 . S
Co72 O80 2.055 . S
Co72 O83 2.039 . S
Co72 N86 2.140 . S
C73 O74 1.227 . S
C73 O83 1.265 . S
O74 C73 1.227 . S
N75 Co72 2.121 . S
N75 C77 1.375 . S
N75 C78 1.313 . S
C76 C77 1.338 . S
C76 N79 1.377 . S
C76 H96 0.930 . S
C77 N75 1.375 . S
C77 C76 1.338 . S
C77 H81 0.931 . S
C78 N75 1.313 . S
C78 N79 1.344 . S
C78 H82 0.930 . S
N79 C76 1.377 . S
N79 C78 1.344 . S
O80 Co72 2.055 . S
O80 C84 1.253 . S
H81 C77 0.931 . S
H82 C78 0.930 . S
O83 Co72 2.039 . S
O83 C73 1.265 . S
C84 O80 1.253 . S
C84 O85 1.227 . S
O85 C84 1.227 . S
N86 Co72 2.140 . S
N86 C89 1.346 . S
N86 C90 1.345 . S
C87 C88 1.387 . S
C87 C91 1.391 . S
C88 C87 1.387 . S
C88 C89 1.369 . S
C88 H97 0.929 . S
C89 N86 1.346 . S
C89 C88 1.369 . S
C89 H92 0.928 . S
C90 N86 1.345 . S
C90 C91 1.371 . S
C90 H93 0.931 . S
C91 C87 1.391 . S
C91 C90 1.371 . S
C91 H98 0.930 . S
H92 C89 0.928 . S
H93 C90 0.931 . S
H94 C70 0.930 . S
H95 C67 0.930 . S
H96 C76 0.930 . S
H97 C88 0.929 . S
H98 C91 0.930 . S
C99 C100 1.351 . S
C99 N102 1.368 . S
C99 H104 0.931 . S
C100 C99 1.351 . S
C100 N101 1.373 . S
C100 H128 0.930 . S
N101 C100 1.373 . S
N101 C103 1.340 . S
N102 C99 1.368 . S
N102 C103 1.321 . S
N102 Co105 2.135 . S
C103 N101 1.340 . S
C103 N102 1.321 . S
C103 H127 0.930 . S
H104 C99 0.931 . S
Co105 N102 2.135 . S
Co105 N108 2.121 . S
Co105 O113 2.055 . S
Co105 O116 2.039 . S
Co105 N119 2.140 . S
C106 O107 1.227 . S
C106 O116 1.265 . S
O107 C106 1.227 . S
N108 Co105 2.121 . S
N108 C110 1.375 . S
N108 C111 1.313 1_556 S
C109 C110 1.338 1_554 S
C109 N112 1.377 . S
C109 H129 0.930 . S
C110 N108 1.375 . S
C110 C109 1.338 1_556 S
C110 H114 0.931 . S
C111 N108 1.313 1_554 S
C111 N112 1.344 . S
C111 H115 0.930 . S
N112 C109 1.377 . S
N112 C111 1.344 . S
O113 Co105 2.055 . S
O113 C117 1.253 . S
H114 C110 0.931 . S
H115 C111 0.930 . S
O116 Co105 2.039 . S
O116 C106 1.265 . S
C117 O113 1.253 . S
C117 O118 1.227 . S
O118 C117 1.227 . S
N119 Co105 2.140 . S
N119 C122 1.346 . S
N119 C123 1.345 . S
C120 C121 1.387 . S
C120 C124 1.391 . S
C121 C120 1.387 . S
C121 C122 1.369 . S
C121 H130 0.929 . S
C122 N119 1.346 . S
C122 C121 1.369 . S
C122 H125 0.928 . S
C123 N119 1.345 . S
C123 C124 1.371 . S
C123 H126 0.931 . S
C124 C120 1.391 . S
C124 C123 1.371 . S
C124 H131 0.930 . S
H125 C122 0.928 . S
H126 C123 0.931 . S
H127 C103 0.930 . S
H128 C100 0.930 . S
H129 C109 0.930 . S
H130 C121 0.929 . S
H131 C124 0.930 . S
C132 C133 1.351 . S
C132 N135 1.368 . S
C132 H137 0.931 . S
C133 C132 1.351 . S
C133 N134 1.373 . S
C133 H161 0.930 . S
N134 C133 1.373 . S
N134 C136 1.340 . S
N135 C132 1.368 . S
N135 C136 1.321 . S
N135 Co138 2.135 . S
C136 N134 1.340 . S
C136 N135 1.321 . S
C136 H160 0.930 . S
H137 C132 0.931 . S
Co138 N135 2.135 . S
Co138 N141 2.121 . S
Co138 O146 2.055 . S
Co138 O149 2.039 . S
Co138 N152 2.140 . S
C139 O140 1.227 . S
C139 O149 1.265 . S
O140 C139 1.227 . S
N141 Co138 2.121 . S
N141 C143 1.375 . S
N141 C144 1.313 . S
C142 C143 1.338 . S
C142 N145 1.377 . S
C142 H162 0.930 . S
C143 N141 1.375 . S
C143 C142 1.338 . S
C143 H147 0.931 . S
C144 N141 1.313 . S
C144 N145 1.344 . S
C144 H148 0.930 . S
N145 C142 1.377 . S
N145 C144 1.344 . S
O146 Co138 2.055 . S
O146 C150 1.253 . S
H147 C143 0.931 . S
H148 C144 0.930 . S
O149 Co138 2.039 . S
O149 C139 1.265 . S
C150 O146 1.253 . S
C150 O151 1.227 . S
O151 C150 1.227 . S
N152 Co138 2.140 . S
N152 C155 1.346 . S
N152 C156 1.345 . S
C153 C154 1.387 . S
C153 C157 1.391 . S
C154 C153 1.387 . S
C154 C155 1.369 . S
C154 H163 0.929 . S
C155 N152 1.346 . S
C155 C154 1.369 . S
C155 H158 0.928 . S
C156 N152 1.345 . S
C156 C157 1.371 . S
C156 H159 0.931 . S
C157 C153 1.391 . S
C157 C156 1.371 . S
C157 H164 0.930 . S
H158 C155 0.928 . S
H159 C156 0.931 . S
H160 C136 0.930 . S
H161 C133 0.930 . S
H162 C142 0.930 . S
H163 C154 0.929 . S
H164 C157 0.930 . S
C165 C166 1.351 . S
C165 N168 1.368 . S
C165 H170 0.931 . S
C166 C165 1.351 . S
C166 N167 1.373 . S
C166 H194 0.930 . S
N167 C166 1.373 . S
N167 C169 1.340 . S
N168 C165 1.368 . S
N168 C169 1.321 . S
N168 Co171 2.135 . S
C169 N167 1.340 . S
C169 N168 1.321 . S
C169 H193 0.930 . S
H170 C165 0.931 . S
Co171 N168 2.135 . S
Co171 N174 2.121 . S
Co171 O179 2.055 . S
Co171 O182 2.039 . S
Co171 N185 2.140 . S
C172 O173 1.227 . S
C172 O182 1.265 . S
O173 C172 1.227 . S
N174 Co171 2.121 . S
N174 C176 1.375 . S
N174 C177 1.313 . S
C175 C176 1.338 . S
C175 N178 1.377 . S
C175 H195 0.930 . S
C176 N174 1.375 . S
C176 C175 1.338 . S
C176 H180 0.931 . S
C177 N174 1.313 . S
C177 N178 1.344 . S
C177 H181 0.930 . S
N178 C175 1.377 . S
N178 C177 1.344 . S
O179 Co171 2.055 . S
O179 C183 1.253 . S
H180 C176 0.931 . S
H181 C177 0.930 . S
O182 Co171 2.039 . S
O182 C172 1.265 . S
C183 O179 1.253 . S
C183 O184 1.227 . S
O184 C183 1.227 . S
N185 Co171 2.140 . S
N185 C188 1.346 . S
N185 C189 1.345 . S
C186 C187 1.387 . S
C186 C190 1.391 . S
C187 C186 1.387 . S
C187 C188 1.369 . S
C187 H196 0.929 . S
C188 N185 1.346 . S
C188 C187 1.369 . S
C188 H191 0.928 . S
C189 N185 1.345 . S
C189 C190 1.371 . S
C189 H192 0.931 . S
C190 C186 1.391 . S
C190 C189 1.371 . S
C190 H197 0.930 . S
H191 C188 0.928 . S
H192 C189 0.931 . S
H193 C169 0.930 . S
H194 C166 0.930 . S
H195 C175 0.930 . S
H196 C187 0.929 . S
H197 C190 0.930 . S
C198 C199 1.351 . S
C198 N201 1.368 . S
C198 H203 0.931 . S
C199 C198 1.351 . S
C199 N200 1.373 . S
C199 H227 0.930 . S
N200 C199 1.373 . S
N200 C202 1.340 . S
N201 C198 1.368 . S
N201 C202 1.321 . S
N201 Co204 2.135 . S
C202 N200 1.340 . S
C202 N201 1.321 . S
C202 H226 0.930 . S
H203 C198 0.931 . S
Co204 N201 2.135 . S
Co204 N207 2.121 . S
Co204 O212 2.055 . S
Co204 O215 2.039 . S
Co204 N218 2.140 . S
C205 O206 1.227 . S
C205 O215 1.265 . S
O206 C205 1.227 . S
N207 Co204 2.121 . S
N207 C209 1.375 . S
N207 C210 1.313 . S
C208 C209 1.338 1_554 S
C208 N211 1.377 . S
C208 H228 0.930 . S
C209 N207 1.375 . S
C209 C208 1.338 1_556 S
C209 H213 0.931 . S
C210 N207 1.313 . S
C210 N211 1.344 1_556 S
C210 H214 0.930 . S
N211 C208 1.377 . S
N211 C210 1.344 1_554 S
O212 Co204 2.055 . S
O212 C216 1.253 . S
H213 C209 0.931 . S
H214 C210 0.930 . S
O215 Co204 2.039 . S
O215 C205 1.265 . S
C216 O212 1.253 . S
C216 O217 1.227 . S
O217 C216 1.227 . S
N218 Co204 2.140 . S
N218 C221 1.346 . S
N218 C222 1.345 . S
C219 C220 1.387 . S
C219 C223 1.391 . S
C220 C219 1.387 . S
C220 C221 1.369 . S
C220 H229 0.929 . S
C221 N218 1.346 . S
C221 C220 1.369 . S
C221 H224 0.928 . S
C222 N218 1.345 . S
C222 C223 1.371 . S
C222 H225 0.931 . S
C223 C219 1.391 . S
C223 C222 1.371 . S
C223 H230 0.930 . S
H224 C221 0.928 . S
H225 C222 0.931 . S
H226 C202 0.930 . S
H227 C199 0.930 . S
H228 C208 0.930 . S
H229 C220 0.929 . S
H230 C223 0.930 . S
C231 C232 1.351 . S
C231 N234 1.368 . S
C231 H236 0.931 . S
C232 C231 1.351 . S
C232 N233 1.373 . S
C232 H260 0.930 . S
N233 C232 1.373 . S
N233 C235 1.340 . S
N234 C231 1.368 . S
N234 C235 1.321 . S
N234 Co237 2.135 1_556 S
C235 N233 1.340 . S
C235 N234 1.321 . S
C235 H259 0.930 . S
H236 C231 0.931 . S
Co237 N234 2.135 1_554 S
Co237 N240 2.121 . S
Co237 O245 2.055 . S
Co237 O248 2.039 1_554 S
Co237 N251 2.140 . S
C238 O239 1.227 . S
C238 O248 1.265 . S
O239 C238 1.227 . S
N240 Co237 2.121 . S
N240 C242 1.375 . S
N240 C243 1.313 . S
C241 C242 1.338 . S
C241 N244 1.377 . S
C241 H261 0.930 . S
C242 N240 1.375 . S
C242 C241 1.338 . S
C242 H246 0.931 . S
C243 N240 1.313 . S
C243 N244 1.344 . S
C243 H247 0.930 . S
N244 C241 1.377 . S
N244 C243 1.344 . S
O245 Co237 2.055 . S
O245 C249 1.253 . S
H246 C242 0.931 . S
H247 C243 0.930 . S
O248 Co237 2.039 1_556 S
O248 C238 1.265 . S
C249 O245 1.253 . S
C249 O250 1.227 . S
O250 C249 1.227 . S
N251 Co237 2.140 . S
N251 C254 1.346 1_554 S
N251 C255 1.345 . S
C252 C253 1.387 1_554 S
C252 C256 1.391 . S
C253 C252 1.387 1_556 S
C253 C254 1.369 . S
C253 H262 0.929 . S
C254 N251 1.346 1_556 S
C254 C253 1.369 . S
C254 H257 0.928 . S
C255 N251 1.345 . S
C255 C256 1.371 . S
C255 H258 0.931 . S
C256 C252 1.391 . S
C256 C255 1.371 . S
C256 H263 0.930 . S
H257 C254 0.928 . S
H258 C255 0.931 . S
H259 C235 0.930 . S
H260 C232 0.930 . S
H261 C241 0.930 . S
H262 C253 0.929 . S
H263 C256 0.930 . S
H264 C270 0.930 . S
H265 C274 0.930 . S
H266 C279 0.929 . S
H267 C277 0.929 . S
H268 C272 0.929 . S
H269 C278 0.929 . S
C270 H264 0.930 . S
C270 C271 1.367 . S
C270 C278 1.378 . S
C271 C270 1.367 . S
C271 C279 1.433 1_554 S
C272 H268 0.929 . S
C272 C274 1.378 . S
C272 C276 1.350 1_556 S
C273 C276 1.463 . S
C273 C278 1.350 . S
C273 N281 1.427 1_554 S
C274 H265 0.930 . S
C274 C272 1.378 . S
C274 C275 1.367 1_556 S
C275 C274 1.367 1_554 S
C275 C277 1.433 . S
C276 C272 1.350 1_554 S
C276 C273 1.463 . S
C276 N280 1.427 . S
C277 H267 0.929 . S
C277 C275 1.433 . S
C277 N280 1.384 . S
C278 H269 0.929 . S
C278 C270 1.378 . S
C278 C273 1.350 . S
C279 H266 0.929 . S
C279 C271 1.433 1_556 S
C279 N281 1.384 . S
N280 C276 1.427 . S
N280 C277 1.384 . S
N281 C273 1.427 1_556 S
N281 C279 1.384 . S
H282 C288 0.930 . S
H283 C292 0.930 . S
H284 C297 0.929 . S
H285 C295 0.929 . S
H286 C290 0.929 . S
H287 C296 0.929 . S
C288 H282 0.930 . S
C288 C289 1.367 . S
C288 C296 1.378 . S
C289 C288 1.367 . S
C289 C297 1.433 . S
C290 H286 0.929 . S
C290 C292 1.378 . S
C290 C294 1.350 . S
C291 C294 1.463 1_545 S
C291 C296 1.350 . S
C291 N299 1.427 . S
C292 H283 0.930 . S
C292 C290 1.378 . S
C292 C293 1.367 . S
C293 C292 1.367 . S
C293 C295 1.433 . S
C294 C290 1.350 . S
C294 C291 1.463 1_565 S
C294 N298 1.436 . S
C295 H285 0.929 . S
C295 C293 1.433 . S
C295 N298 1.417 . S
C296 H287 0.929 . S
C296 C288 1.378 . S
C296 C291 1.350 . S
C297 H284 0.929 . S
C297 C289 1.433 . S
C297 N299 1.384 . S
N298 C294 1.436 . S
N298 C295 1.417 . S
N299 C291 1.427 . S
N299 C297 1.384 . S
H300 C306 0.930 . S
H301 C310 0.930 . S
H302 C315 0.929 . S
H303 C313 0.929 . S
H304 C308 0.945 . S
H305 C314 0.929 . S
C306 H300 0.930 . S
C306 C307 1.367 . S
C306 C314 1.378 . S
C307 C306 1.367 . S
C307 C315 1.433 . S
C308 H304 0.945 . S
C308 C310 1.378 . S
C308 C312 1.350 . S
C309 C312 1.463 1_665 S
C309 C314 1.350 . S
C309 N317 1.427 . S
C310 H301 0.930 . S
C310 C308 1.378 . S
C310 C311 1.367 . S
C311 C310 1.367 . S
C311 C313 1.433 . S
C312 C308 1.350 . S
C312 C309 1.463 1_445 S
C312 N316 1.427 . S
C313 H303 0.929 . S
C313 C311 1.433 . S
C313 N316 1.384 . S
C314 H305 0.929 . S
C314 C306 1.378 . S
C314 C309 1.350 . S
C315 H302 0.929 . S
C315 C307 1.433 . S
C315 N317 1.384 . S
N316 C312 1.427 . S
N316 C313 1.384 . S
N317 C309 1.427 . S
N317 C315 1.384 . S
H318 C324 0.930 . S
H319 C328 0.930 . S
H320 C333 0.929 . S
H321 C331 0.929 . S
H322 C326 0.929 . S
H323 C332 0.929 . S
C324 H318 0.930 . S
C324 C325 1.367 . S
C324 C332 1.378 . S
C325 C324 1.367 . S
C325 C333 1.433 . S
C326 H322 0.929 . S
C326 C328 1.378 . S
C326 C330 1.350 . S
C327 C330 1.463 1_455 S
C327 C332 1.350 . S
C327 N335 1.427 1_455 S
C328 H319 0.930 . S
C328 C326 1.378 . S
C328 C329 1.367 . S
C329 C328 1.367 . S
C329 C331 1.433 . S
C330 C326 1.350 . S
C330 C327 1.463 1_655 S
C330 N334 1.427 . S
C331 H321 0.929 . S
C331 C329 1.433 . S
C331 N334 1.384 . S
C332 H323 0.929 . S
C332 C324 1.378 . S
C332 C327 1.350 . S
C333 H320 0.929 . S
C333 C325 1.433 . S
C333 N335 1.384 1_455 S
N334 C330 1.427 . S
N334 C331 1.384 . S
N335 C327 1.427 1_655 S
N335 C333 1.384 1_655 S
H336 C342 0.930 . S
H337 C346 0.930 . S
H338 C351 0.929 . S
H339 C349 0.929 . S
H340 C344 0.929 . S
H341 C350 0.929 . S
C342 H336 0.930 . S
C342 C343 1.367 . S
C342 C350 1.378 . S
C343 C342 1.367 . S
C343 C351 1.433 . S
C344 H340 0.929 . S
C344 C346 1.378 . S
C344 C348 1.350 . S
C345 C348 1.463 . S
C345 C350 1.350 . S
C345 N353 1.427 . S
C346 H337 0.930 . S
C346 C344 1.378 . S
C346 C347 1.367 . S
C347 C346 1.367 . S
C347 C349 1.433 . S
C348 C344 1.350 . S
C348 C345 1.463 . S
C348 N352 1.427 . S
C349 H339 0.929 . S
C349 C347 1.433 . S
C349 N352 1.384 . S
C350 H341 0.929 . S
C350 C342 1.378 . S
C350 C345 1.350 . S
C351 H338 0.929 . S
C351 C343 1.433 . S
C351 N353 1.384 . S
N352 C348 1.427 . S
N352 C349 1.384 . S
N353 C345 1.427 . S
N353 C351 1.384 . S
H354 C360 0.930 1_554 S
H355 C364 0.930 . S
H356 C369 0.929 1_554 S
H357 C367 0.929 . S
H358 C362 0.929 . S
H359 C368 0.929 . S
C360 H354 0.930 1_556 S
C360 C361 1.367 1_556 S
C360 C368 1.378 . S
C361 C360 1.367 1_554 S
C361 C369 1.433 1_554 S
C362 H358 0.929 . S
C362 C364 1.378 . S
C362 C366 1.350 . S
C363 C366 1.463 . S
C363 C368 1.350 . S
C363 N371 1.427 . S
C364 H355 0.930 . S
C364 C362 1.378 . S
C364 C365 1.367 . S
C365 C364 1.367 . S
C365 C367 1.433 . S
C366 C362 1.350 . S
C366 C363 1.463 . S
C366 N370 1.427 . S
C367 H357 0.929 . S
C367 C365 1.433 . S
C367 N370 1.384 . S
C368 H359 0.929 . S
C368 C360 1.378 . S
C368 C363 1.350 . S
C369 H356 0.929 1_556 S
C369 C361 1.433 1_556 S
C369 N371 1.384 . S
N370 C366 1.427 . S
N370 C367 1.384 . S
N371 C363 1.427 . S
N371 C369 1.384 . S
H372 C378 0.930 . S
H373 C382 0.930 . S
H374 C387 0.929 . S
H375 C385 0.929 . S
H376 C380 0.929 . S
H377 C386 0.929 . S
C378 H372 0.930 . S
C378 C379 1.367 . S
C378 C386 1.378 . S
C379 C378 1.367 . S
C379 C387 1.433 . S
C380 H376 0.929 . S
C380 C382 1.378 . S
C380 C384 1.350 . S
C381 C384 1.463 1_556 S
C381 C386 1.350 . S
C381 N389 1.427 . S
C382 H373 0.930 . S
C382 C380 1.378 . S
C382 C383 1.367 . S
C383 C382 1.367 . S
C383 C385 1.433 . S
C384 C380 1.350 . S
C384 C381 1.463 1_554 S
C384 N388 1.427 . S
C385 H375 0.929 . S
C385 C383 1.433 . S
C385 N388 1.384 . S
C386 H377 0.929 . S
C386 C378 1.378 . S
C386 C381 1.350 . S
C387 H374 0.929 . S
C387 C379 1.433 . S
C387 N389 1.384 . S
N388 C384 1.427 . S
N388 C385 1.384 . S
N389 C381 1.427 . S
N389 C387 1.384 . S
H390 C396 0.930 . S
H391 C400 0.930 . S
H392 C405 0.929 . S
H393 C403 0.929 . S
H394 C398 0.929 . S
H395 C404 0.929 . S
C396 H390 0.930 . S
C396 C397 1.367 . S
C396 C404 1.378 . S
C397 C396 1.367 . S
C397 C405 1.433 . S
C398 H394 0.929 . S
C398 C400 1.378 . S
C398 C402 1.350 . S
C399 C402 1.463 . S
C399 C404 1.350 . S
C399 N407 1.427 . S
C400 H391 0.930 . S
C400 C398 1.378 . S
C400 C401 1.367 . S
C401 C400 1.367 . S
C401 C403 1.433 . S
C402 C398 1.350 . S
C402 C399 1.463 . S
C402 N406 1.427 . S
C403 H393 0.929 . S
C403 C401 1.433 . S
C403 N406 1.384 . S
C404 H395 0.929 . S
C404 C396 1.378 . S
C404 C399 1.350 . S
C405 H392 0.929 . S
C405 C397 1.433 . S
C405 N407 1.384 . S
N406 C402 1.427 . S
N406 C403 1.384 . S
N407 C399 1.427 . S
N407 C405 1.384 . S
H408 C414 0.930 . S
H409 C418 0.930 . S
H410 C423 0.929 . S
H411 C421 0.929 . S
H412 C416 0.929 . S
H413 C422 0.929 . S
C414 H408 0.930 . S
C414 C415 1.367 1_556 S
C414 C422 1.378 . S
C415 C414 1.367 1_554 S
C415 C423 1.433 . S
C416 H412 0.929 . S
C416 C418 1.378 . S
C416 C420 1.350 . S
C417 C420 1.463 . S
C417 C422 1.350 . S
C417 N425 1.427 . S
C418 H409 0.930 . S
C418 C416 1.378 . S
C418 C419 1.367 . S
C419 C418 1.367 . S
C419 C421 1.433 . S
C420 C416 1.350 . S
C420 C417 1.463 . S
C420 N424 1.427 . S
C421 H411 0.929 . S
C421 C419 1.433 . S
C421 N424 1.384 . S
C422 H413 0.929 . S
C422 C414 1.378 . S
C422 C417 1.350 . S
C423 H410 0.929 . S
C423 C415 1.433 . S
C423 N425 1.384 1_554 S
N424 C420 1.427 . S
N424 C421 1.384 . S
N425 C417 1.427 . S
N425 C423 1.384 1_556 S
H426 C432 0.930 . S
H427 C436 0.930 . S
H428 C441 0.929 . S
H429 C439 0.929 . S
H430 C434 0.929 . S
H431 C440 0.929 . S
C432 H426 0.930 . S
C432 C433 1.367 . S
C432 C440 1.378 . S
C433 C432 1.367 . S
C433 C441 1.433 . S
C434 H430 0.929 . S
C434 C436 1.378 1_554 S
C434 C438 1.350 . S
C435 C438 1.463 . S
C435 C440 1.350 . S
C435 N443 1.427 . S
C436 H427 0.930 . S
C436 C434 1.378 1_556 S
C436 C437 1.367 . S
C437 C436 1.367 . S
C437 C439 1.433 . S
C438 C434 1.350 . S
C438 C435 1.463 . S
C438 N442 1.427 . S
C439 H429 0.929 . S
C439 C437 1.433 . S
C439 N442 1.384 1_556 S
C440 H431 0.929 . S
C440 C432 1.378 . S
C440 C435 1.350 . S
C441 H428 0.929 . S
C441 C433 1.433 . S
C441 N443 1.384 . S
N442 C438 1.427 . S
N442 C439 1.384 1_554 S
N443 C435 1.427 . S
N443 C441 1.384 . S
H444 C450 0.930 . S
H445 C454 0.930 . S
H446 C459 0.929 . S
H447 C457 0.929 . S
H448 C452 0.929 . S
H449 C458 0.929 . S
C450 H444 0.930 . S
C450 C451 1.367 . S
C450 C458 1.378 . S
C451 C450 1.367 . S
C451 C459 1.433 . S
C452 H448 0.929 . S
C452 C454 1.378 . S
C452 C456 1.350 . S
C453 C456 1.463 . S
C453 C458 1.350 . S
C453 N461 1.427 . S
C454 H445 0.930 . S
C454 C452 1.378 . S
C454 C455 1.367 . S
C455 C454 1.367 . S
C455 C457 1.433 . S
C456 C452 1.350 . S
C456 C453 1.463 . S
C456 N460 1.427 . S
C457 H447 0.929 . S
C457 C455 1.433 . S
C457 N460 1.384 . S
C458 H449 0.929 . S
C458 C450 1.378 . S
C458 C453 1.350 . S
C459 H446 0.929 . S
C459 C451 1.433 . S
C459 N461 1.384 . S
N460 C456 1.427 . S
N460 C457 1.384 . S
N461 C453 1.427 . S
N461 C459 1.384 . S
H462 C468 0.930 . S
H463 C472 0.930 . S
H464 C477 0.929 . S
H465 C475 0.929 . S
H466 C470 0.929 . S
H467 C476 0.929 . S
C468 H462 0.930 . S
C468 C469 1.367 . S
C468 C476 1.378 . S
C469 C468 1.367 . S
C469 C477 1.433 . S
C470 H466 0.929 . S
C470 C472 1.378 . S
C470 C474 1.350 . S
C471 C474 1.463 . S
C471 C476 1.350 . S
C471 N479 1.427 . S
C472 H463 0.930 . S
C472 C470 1.378 . S
C472 C473 1.367 . S
C473 C472 1.367 . S
C473 C475 1.433 . S
C474 C470 1.350 . S
C474 C471 1.463 . S
C474 N478 1.427 . S
C475 H465 0.929 . S
C475 C473 1.433 . S
C475 N478 1.384 . S
C476 H467 0.929 . S
C476 C468 1.378 . S
C476 C471 1.350 . S
C477 H464 0.929 . S
C477 C469 1.433 . S
C477 N479 1.384 . S
N478 C474 1.427 . S
N478 C475 1.384 . S
N479 C471 1.427 . S
N479 C477 1.384 . S
H480 C486 0.930 . S
H481 C490 0.930 . S
H482 C495 0.929 . S
H483 C493 0.929 . S
H484 C488 0.929 . S
H485 C494 0.929 1_554 S
C486 H480 0.930 . S
C486 C487 1.367 . S
C486 C494 1.378 . S
C487 C486 1.367 . S
C487 C495 1.433 . S
C488 H484 0.929 . S
C488 C490 1.378 . S
C488 C492 1.350 . S
C489 C492 1.463 . S
C489 C494 1.350 . S
C489 N497 1.427 . S
C490 H481 0.930 . S
C490 C488 1.378 . S
C490 C491 1.367 1_556 S
C491 C490 1.367 1_554 S
C491 C493 1.433 . S
C492 C488 1.350 . S
C492 C489 1.463 . S
C492 N496 1.427 1_556 S
C493 H483 0.929 . S
C493 C491 1.433 . S
C493 N496 1.384 . S
C494 H485 0.929 1_556 S
C494 C486 1.378 . S
C494 C489 1.350 . S
C495 H482 0.929 . S
C495 C487 1.433 . S
C495 N497 1.384 . S
N496 C492 1.427 1_554 S
N496 C493 1.384 . S
N497 C489 1.427 . S
N497 C495 1.384 . S
H498 C504 0.930 . S
H499 C508 0.930 1_556 S
H500 C513 0.929 . S
H501 C511 0.929 . S
H502 C506 0.929 . S
H503 C512 0.929 . S
C504 H498 0.930 . S
C504 C505 1.367 . S
C504 C512 1.378 . S
C505 C504 1.367 . S
C505 C513 1.433 . S
C506 H502 0.929 . S
C506 C508 1.378 . S
C506 C510 1.350 . S
C507 C510 1.463 . S
C507 C512 1.350 . S
C507 N515 1.427 . S
C508 H499 0.930 1_554 S
C508 C506 1.378 . S
C508 C509 1.367 . S
C509 C508 1.367 . S
C509 C511 1.433 . S
C510 C506 1.350 . S
C510 C507 1.463 . S
C510 N514 1.427 . S
C511 H501 0.929 . S
C511 C509 1.433 . S
C511 N514 1.384 . S
C512 H503 0.929 . S
C512 C504 1.378 . S
C512 C507 1.350 . S
C513 H500 0.929 . S
C513 C505 1.433 . S
C513 N515 1.384 . S
N514 C510 1.427 . S
N514 C511 1.384 . S
N515 C507 1.427 . S
N515 C513 1.384 . S
H516 C522 0.930 . S
H517 C526 0.930 . S
H518 C531 0.929 . S
H519 C529 0.929 . S
H520 C524 0.929 . S
H521 C530 0.929 . S
C522 H516 0.930 . S
C522 C523 1.367 . S
C522 C530 1.378 . S
C523 C522 1.367 . S
C523 C531 1.433 . S
C524 H520 0.929 . S
C524 C526 1.378 . S
C524 C528 1.350 . S
C525 C528 1.463 . S
C525 C530 1.350 . S
C525 N533 1.427 . S
C526 H517 0.930 . S
C526 C524 1.378 . S
C526 C527 1.367 . S
C527 C526 1.367 . S
C527 C529 1.433 . S
C528 C524 1.350 . S
C528 C525 1.463 . S
C528 N532 1.427 . S
C529 H519 0.929 . S
C529 C527 1.433 . S
C529 N532 1.384 . S
C530 H521 0.929 . S
C530 C522 1.378 . S
C530 C525 1.350 . S
C531 H518 0.929 . S
C531 C523 1.433 . S
C531 N533 1.384 . S
N532 C528 1.427 . S
N532 C529 1.384 . S
N533 C525 1.427 . S
N533 C531 1.384 . S
H534 C540 0.930 . S
H535 C544 0.930 . S
H536 C549 0.929 . S
H537 C547 0.929 . S
H538 C542 0.929 . S
H539 C548 0.929 . S
C540 H534 0.930 . S
C540 C541 1.367 . S
C540 C548 1.378 . S
C541 C540 1.367 . S
C541 C549 1.433 . S
C542 H538 0.929 . S
C542 C544 1.378 . S
C542 C546 1.350 . S
C543 C546 1.463 . S
C543 C548 1.350 . S
C543 N551 1.427 . S
C544 H535 0.930 . S
C544 C542 1.378 . S
C544 C545 1.367 . S
C545 C544 1.367 . S
C545 C547 1.433 . S
C546 C542 1.350 . S
C546 C543 1.463 . S
C546 N550 1.427 . S
C547 H537 0.929 . S
C547 C545 1.433 . S
C547 N550 1.384 . S
C548 H539 0.929 . S
C548 C540 1.378 . S
C548 C543 1.350 . S
C549 H536 0.929 . S
C549 C541 1.433 . S
C549 N551 1.384 . S
N550 C546 1.427 . S
N550 C547 1.384 . S
N551 C543 1.427 . S
N551 C549 1.384 . S
H552 C558 0.930 . S
H553 C562 0.930 . S
H554 C567 0.929 . S
H555 C565 0.929 . S
H556 C560 0.929 . S
H557 C566 0.929 . S
C558 H552 0.930 . S
C558 C559 1.367 . S
C558 C566 1.378 . S
C559 C558 1.367 . S
C559 C567 1.433 . S
C560 H556 0.929 . S
C560 C562 1.378 . S
C560 C564 1.350 . S
C561 C564 1.463 . S
C561 C566 1.350 . S
C561 N569 1.427 . S
C562 H553 0.930 . S
C562 C560 1.378 . S
C562 C563 1.367 . S
C563 C562 1.367 . S
C563 C565 1.433 . S
C564 C560 1.350 . S
C564 C561 1.463 . S
C564 N568 1.427 . S
C565 H555 0.929 . S
C565 C563 1.433 . S
C565 N568 1.384 . S
C566 H557 0.929 . S
C566 C558 1.378 . S
C566 C561 1.350 . S
C567 H554 0.929 . S
C567 C559 1.433 . S
C567 N569 1.384 . S
N568 C564 1.427 . S
N568 C565 1.384 . S
N569 C561 1.427 . S
N569 C567 1.384 . S
H570 C576 0.930 . S
H571 C580 0.930 . S
H572 C585 0.929 . S
H573 C583 0.929 . S
H574 C578 0.929 . S
H575 C584 0.929 . S
C576 H570 0.930 . S
C576 C577 1.367 . S
C576 C584 1.378 . S
C577 C576 1.367 . S
C577 C585 1.433 . S
C578 H574 0.929 . S
C578 C580 1.378 . S
C578 C582 1.350 . S
C579 C582 1.463 . S
C579 C584 1.350 . S
C579 N587 1.427 . S
C580 H571 0.930 . S
C580 C578 1.378 . S
C580 C581 1.367 . S
C581 C580 1.367 . S
C581 C583 1.433 . S
C582 C578 1.350 . S
C582 C579 1.463 . S
C582 N586 1.427 . S
C583 H573 0.929 . S
C583 C581 1.433 . S
C583 N586 1.384 . S
C584 H575 0.929 . S
C584 C576 1.378 . S
C584 C579 1.350 . S
C585 H572 0.929 . S
C585 C577 1.433 . S
C585 N587 1.384 . S
N586 C582 1.427 . S
N586 C583 1.384 . S
N587 C579 1.427 . S
N587 C585 1.384 . S
H588 C594 0.930 . S
H589 C598 0.930 . S
H590 C603 0.929 . S
H591 C601 0.929 . S
H592 C596 0.929 . S
H593 C602 0.922 1_554 S
C594 H588 0.930 . S
C594 C595 1.367 1_554 S
C594 C602 1.374 1_554 S
C595 C594 1.367 1_556 S
C595 C603 1.433 . S
C596 H592 0.929 . S
C596 C598 1.378 . S
C596 C600 1.350 . S
C597 C600 1.463 . S
C597 C602 1.361 . S
C597 N605 1.427 . S
C598 H589 0.930 . S
C598 C596 1.378 . S
C598 C599 1.367 . S
C599 C598 1.367 . S
C599 C601 1.433 . S
C600 C596 1.350 . S
C600 C597 1.463 . S
C600 N604 1.427 . S
C601 H591 0.929 . S
C601 C599 1.433 . S
C601 N604 1.384 . S
C602 H593 0.922 1_556 S
C602 C594 1.374 1_556 S
C602 C597 1.361 . S
C603 H590 0.929 . S
C603 C595 1.433 . S
C603 N605 1.384 . S
N604 C600 1.427 . S
N604 C601 1.384 . S
N605 C597 1.427 . S
N605 C603 1.384 . S
H606 C612 0.930 . S
H607 C616 0.930 . S
H608 C621 0.929 . S
H609 C619 0.929 . S
H610 C614 0.929 . S
H611 C620 0.929 . S
C612 H606 0.930 . S
C612 C613 1.367 . S
C612 C620 1.378 . S
C613 C612 1.367 . S
C613 C621 1.433 . S
C614 H610 0.929 . S
C614 C616 1.378 . S
C614 C618 1.350 . S
C615 C618 1.463 . S
C615 C620 1.350 . S
C615 N623 1.427 . S
C616 H607 0.930 . S
C616 C614 1.378 . S
C616 C617 1.367 . S
C617 C616 1.367 . S
C617 C619 1.433 . S
C618 C614 1.350 . S
C618 C615 1.463 . S
C618 N622 1.427 . S
C619 H609 0.929 . S
C619 C617 1.433 . S
C619 N622 1.384 . S
C620 H611 0.929 . S
C620 C612 1.378 . S
C620 C615 1.350 . S
C621 H608 0.929 . S
C621 C613 1.433 . S
C621 N623 1.384 . S
N622 C618 1.427 . S
N622 C619 1.384 . S
N623 C615 1.427 . S
N623 C621 1.384 . S
C271 C249 1.170 . S
C275 C18 1.171 . S
C289 C150 1.183 . S
C293 C51 1.182 . S
C307 C183 1.174 . S
C311 C84 1.174 . S
C325 C216 1.180 . S
C329 C117 1.181 . S
C343 N2 1.286 . S
C347 N13 1.288 . S
C361 N35 1.265 . S
C365 N46 1.267 . S
C379 N79 1.289 . S
C383 N68 1.287 . S
C397 N112 1.315 . S
C401 N101 1.313 . S
C415 N134 1.307 . S
C419 N145 1.310 . S
C433 N178 1.289 . S
C437 N167 1.287 . S
C451 N200 1.278 . S
C455 N211 1.280 . S
C469 N233 1.293 . S
C473 N244 1.295 . S
C487 C219 1.378 . S
C491 C21 1.378 . S
C505 C40 1.362 . S
C509 C252 1.380 . S
C523 C153 1.646 . S
C527 C73 1.623 . S
C541 C106 1.582 . S
C545 C172 1.577 . S
C559 C186 1.383 . S
C563 C54 1.374 . S
C577 C87 1.377 . S
C581 C205 1.349 . S
C595 C238 1.631 . S
C599 C120 1.650 . S
C613 C7 1.584 . S
C617 C139 1.584 . S
