# Generated by pormake.
# Topology wkj, (6)-cn, num edge types: 1
# Building blocks:
#     Node 0, Type 0, BuildingBlock: BETDAH_clean_sbu_0, # of connection points: 6
#     Node 1, Type 0, BuildingBlock: BETDAH_clean_sbu_0, # of connection points: 6
#     Node 2, Type 0, BuildingBlock: BETDAH_clean_sbu_0, # of connection points: 6
#     Node 3, Type 0, BuildingBlock: BETDAH_clean_sbu_0, # of connection points: 6
#     Node 4, Type 0, BuildingBlock: BETDAH_clean_sbu_0, # of connection points: 6
#     Node 5, Type 0, BuildingBlock: BETDAH_clean_sbu_0, # of connection points: 6
#     Node 6, Type 0, BuildingBlock: BETDAH_clean_sbu_0, # of connection points: 6
#     Node 7, Type 0, BuildingBlock: BETDAH_clean_sbu_0, # of connection points: 6
#     Node 8, Type 0, BuildingBlock: BETDAH_clean_sbu_0, # of connection points: 6
#     Node 9, Type 0, BuildingBlock: BETDAH_clean_sbu_0, # of connection points: 6
#     Node 10, Type 0, BuildingBlock: BETDAH_clean_sbu_0, # of connection points: 6
#     Node 11, Type 0, BuildingBlock: BETDAH_clean_sbu_0, # of connection points: 6
#     Edge 12, Type (0, 0), BuildingBlock: OJICUG_clean_linker_0, # of connection points: 2
#     Edge 13, Type (0, 0), BuildingBlock: OJICUG_clean_linker_0, # of connection points: 2
#     Edge 14, Type (0, 0), BuildingBlock: OJICUG_clean_linker_0, # of connection points: 2
#     Edge 15, Type (0, 0), BuildingBlock: OJICUG_clean_linker_0, # of connection points: 2
#     Edge 16, Type (0, 0), BuildingBlock: OJICUG_clean_linker_0, # of connection points: 2
#     Edge 17, Type (0, 0), BuildingBlock: OJICUG_clean_linker_0, # of connection points: 2
#     Edge 18, Type (0, 0), BuildingBlock: OJICUG_clean_linker_0, # of connection points: 2
#     Edge 19, Type (0, 0), BuildingBlock: OJICUG_clean_linker_0, # of connection points: 2
#     Edge 20, Type (0, 0), BuildingBlock: OJICUG_clean_linker_0, # of connection points: 2
#     Edge 21, Type (0, 0), BuildingBlock: OJICUG_clean_linker_0, # of connection points: 2
#     Edge 22, Type (0, 0), BuildingBlock: OJICUG_clean_linker_0, # of connection points: 2
#     Edge 23, Type (0, 0), BuildingBlock: OJICUG_clean_linker_0, # of connection points: 2
#     Edge 24, Type (0, 0), BuildingBlock: OJICUG_clean_linker_0, # of connection points: 2
#     Edge 25, Type (0, 0), BuildingBlock: OJICUG_clean_linker_0, # of connection points: 2
#     Edge 26, Type (0, 0), BuildingBlock: OJICUG_clean_linker_0, # of connection points: 2
#     Edge 27, Type (0, 0), BuildingBlock: OJICUG_clean_linker_0, # of connection points: 2
#     Edge 28, Type (0, 0), BuildingBlock: OJICUG_clean_linker_0, # of connection points: 2
#     Edge 29, Type (0, 0), BuildingBlock: OJICUG_clean_linker_0, # of connection points: 2
#     Edge 30, Type (0, 0), BuildingBlock: OJICUG_clean_linker_0, # of connection points: 2
#     Edge 31, Type (0, 0), BuildingBlock: OJICUG_clean_linker_0, # of connection points: 2
#     Edge 32, Type (0, 0), BuildingBlock: OJICUG_clean_linker_0, # of connection points: 2
#     Edge 33, Type (0, 0), BuildingBlock: OJICUG_clean_linker_0, # of connection points: 2
#     Edge 34, Type (0, 0), BuildingBlock: OJICUG_clean_linker_0, # of connection points: 2
#     Edge 35, Type (0, 0), BuildingBlock: OJICUG_clean_linker_0, # of connection points: 2
#     Edge 36, Type (0, 0), BuildingBlock: OJICUG_clean_linker_0, # of connection points: 2
#     Edge 37, Type (0, 0), BuildingBlock: OJICUG_clean_linker_0, # of connection points: 2
#     Edge 38, Type (0, 0), BuildingBlock: OJICUG_clean_linker_0, # of connection points: 2
#     Edge 39, Type (0, 0), BuildingBlock: OJICUG_clean_linker_0, # of connection points: 2
#     Edge 40, Type (0, 0), BuildingBlock: OJICUG_clean_linker_0, # of connection points: 2
#     Edge 41, Type (0, 0), BuildingBlock: OJICUG_clean_linker_0, # of connection points: 2
#     Edge 42, Type (0, 0), BuildingBlock: OJICUG_clean_linker_0, # of connection points: 2
#     Edge 43, Type (0, 0), BuildingBlock: OJICUG_clean_linker_0, # of connection points: 2
#     Edge 44, Type (0, 0), BuildingBlock: OJICUG_clean_linker_0, # of connection points: 2
#     Edge 45, Type (0, 0), BuildingBlock: OJICUG_clean_linker_0, # of connection points: 2
#     Edge 46, Type (0, 0), BuildingBlock: OJICUG_clean_linker_0, # of connection points: 2
#     Edge 47, Type (0, 0), BuildingBlock: OJICUG_clean_linker_0, # of connection points: 2
# Relax obj value: 1.106
# Max RMSD: 0.172
# Mean RMSD: 0.172
data_MOF--net-wkj--node1-BETDAH_clean_sbu_0--edge1-OJICUG_clean_linker_0
_symmetry_space_group_name_H-M    P1
_symmetry_Int_Tables_number       1
_symmetry_cell_setting            triclinic
loop_
_symmetry_equiv_pos_as_xyz
'x, y, z'
_cell_length_a     37.448997
_cell_length_b     37.609372
_cell_length_c     21.92259
_cell_angle_alpha  89.269961
_cell_angle_beta   90.796761
_cell_angle_gamma 120.46968
loop_
_atom_site_label
_atom_site_type_symbol
_atom_site_fract_x
_atom_site_fract_y
_atom_site_fract_z
_atom_type_partial_charge
Ho0 Ho 0.43603 0.0868 0.44458 0.0
Ho1 Ho 0.51959 0.11708 0.41828 0.0
C2 C 0.50179 0.1137 0.56796 0.0
C3 C 0.36101 0.06478 0.47596 0.0
C4 C 0.32029 0.03004 0.49137 0.0
C5 C 0.28777 0.03752 0.50083 0.0
C6 C 0.25089 0.00706 0.52681 0.0
C7 C 0.24659 0.96908 0.54481 0.0
C8 C 0.27757 0.96027 0.52831 0.0
C9 C 0.31415 -0.0094 0.50158 0.0
C10 C 0.4742 0.16506 0.39123 0.0
C11 C 0.44702 0.04301 0.32036 0.0
C12 C 0.58988 0.16588 0.36661 0.0
C13 C 0.60874 0.20982 0.35069 0.0
C14 C 0.63524 0.22581 0.30083 0.0
C15 C 0.64421 0.26356 0.27492 0.0
C16 C 0.62657 0.28614 0.29825 0.0
C17 C 0.60405 0.27194 0.35289 0.0
C18 C 0.59461 0.23385 0.37813 0.0
C19 C 0.48889 0.04732 0.47666 0.0
O20 O 0.46215 0.09532 0.54737 0.0
O21 O 0.53109 0.12894 0.52453 0.0
O22 O 0.3911 0.07419 0.51506 0.0
O23 O 0.37268 0.0672 0.41974 0.0
O24 O 0.44077 0.13318 0.37263 0.0
O25 O 0.48787 0.15276 0.43473 0.0
O26 O 0.48685 0.074 0.32922 0.0
O27 O 0.42123 0.03848 0.36581 0.0
O28 O 0.55592 0.14183 0.33643 0.0
O29 O 0.58636 0.15676 0.42458 0.0
O30 O 0.5285 0.07337 0.47708 0.0
O31 O 0.47015 0.05527 0.43576 0.0
H32 H 0.29186 0.06776 0.49171 0.0
H33 H 0.22732 0.01452 0.53771 0.0
H34 H 0.2756 0.93148 0.54141 0.0
H35 H 0.3385 -0.01599 0.49262 0.0
H36 H 0.64628 0.20759 0.27882 0.0
H37 H 0.66162 0.27245 0.23302 0.0
H38 H 0.59076 0.28842 0.37377 0.0
H39 H 0.57382 0.22183 0.4166 0.0
Ho40 Ho 0.34837 0.43922 0.78532 0.0
Ho41 Ho 0.34308 0.50482 0.74996 0.0
C42 C 0.35741 0.50015 0.90119 0.0
C43 C 0.3432 0.37222 0.82627 0.0
C44 C 0.30784 0.33427 0.85025 0.0
C45 C 0.27993 0.33631 0.88981 0.0
C46 C 0.24928 0.30072 0.91804 0.0
C47 C 0.24569 0.2621 0.90705 0.0
C48 C 0.26999 0.25973 0.86045 0.0
C49 C 0.30133 0.29568 0.83306 0.0
C50 C 0.26855 0.42209 0.75133 0.0
C51 C 0.38203 0.45994 0.64922 0.0
C52 C 0.30605 0.54125 0.70205 0.0
C53 C 0.29027 0.54095 0.64061 0.0
C54 C 0.28503 0.57405 0.62339 0.0
C55 C 0.30735 0.59837 0.57351 0.0
C56 C 0.33772 0.59125 0.54841 0.0
C57 C 0.32901 0.54988 0.55114 0.0
C58 C 0.30319 0.52375 0.59637 0.0
C59 C 0.41792 0.53445 0.7928 0.0
O60 O 0.36172 0.46872 0.88286 0.0
O61 O 0.3459 0.51781 0.85709 0.0
O62 O 0.3407 0.37916 0.76857 0.0
O63 O 0.35651 0.40536 0.8593 0.0
O64 O 0.28925 0.40822 0.7242 0.0
O65 O 0.29357 0.44774 0.78895 0.0
O66 O 0.36138 0.48137 0.65541 0.0
O67 O 0.38741 0.44546 0.70161 0.0
O68 O 0.34641 0.55826 0.70627 0.0
O69 O 0.28692 0.50635 0.73116 0.0
O70 O 0.39782 0.55396 0.79798 0.0
O71 O 0.3994 0.50189 0.76027 0.0
H72 H 0.28319 0.36571 0.90168 0.0
H73 H 0.23138 0.30468 0.95273 0.0
H74 H 0.26708 0.23054 0.84848 0.0
H75 H 0.32154 0.29345 0.80037 0.0
H76 H 0.27169 0.58616 0.65437 0.0
H77 H 0.30989 0.62823 0.56785 0.0
H78 H 0.34556 0.53848 0.52608 0.0
H79 H 0.30307 0.49532 0.6056 0.0
Ho80 Ho 0.86554 0.33798 1.12396 0.0
Ho81 Ho 0.83872 0.39451 1.09317 0.0
C82 C 0.83693 0.37697 0.24385 0.0
C83 C 0.88395 0.28212 1.15394 0.0
C84 C 0.89197 0.26123 1.20418 0.0
C85 C 0.88037 0.26347 0.26365 0.0
C86 C 0.88537 0.24074 0.3101 0.0
C87 C 0.90206 0.21534 0.29786 0.0
C88 C 0.91354 0.21316 0.23798 0.0
C89 C 0.9083 0.23585 1.19137 0.0
C90 C 0.79156 0.30198 1.05904 0.0
C91 C 0.91157 0.39426 0.99756 0.0
C92 C 0.79237 0.41807 1.03866 0.0
C93 C 0.74924 0.39203 1.01749 0.0
C94 C 0.72287 0.35497 1.04833 0.0
C95 C 0.68692 0.3244 1.01998 0.0
C96 C 0.67673 0.33011 0.96017 0.0
C97 C 0.70079 0.36905 0.93218 0.0
C98 C 0.73693 0.3997 0.96055 0.0
C99 C 0.90589 0.42956 1.16012 0.0
O100 O 0.85396 0.35433 0.22572 0.0
O101 O 0.82393 0.39238 1.19846 0.0
O102 O 0.84638 0.27564 1.15038 0.0
O103 O 0.91187 0.32031 1.14182 0.0
O104 O 0.82485 0.30239 1.04324 0.0
O105 O 0.80128 0.32608 1.10419 0.0
O106 O 0.88416 0.40716 1.0076 0.0
O107 O 0.91141 0.36794 1.04004 0.0
O108 O 0.81911 0.41193 1.01019 0.0
O109 O 0.79839 0.42017 1.09752 0.0
O110 O 0.88153 0.44472 1.15582 0.0
O111 O 0.89866 0.40405 1.11849 0.0
H112 H 0.86749 0.28278 0.27411 0.0
H113 H 0.8775 0.24427 0.3561 0.0
H114 H 0.9269 0.19432 0.2274 0.0
H115 H 0.91689 0.23351 1.14523 0.0
H116 H 0.73163 0.34824 1.09238 0.0
H117 H 0.66872 0.29503 1.04308 0.0
H118 H 0.69429 0.37444 0.88578 0.0
H119 H 0.75699 0.42794 0.9358 0.0
Ho120 Ho 0.48415 0.88296 0.46322 0.0
Ho121 Ho 0.39933 0.83458 0.42225 0.0
C122 C 0.41153 0.84085 0.57601 0.0
C123 C 0.5546 0.92787 0.5178 0.0
C124 C 0.59968 0.94412 0.5224 0.0
C125 C 0.6144 0.92674 0.5657 0.0
C126 C 0.65428 0.95012 0.59001 0.0
C127 C 0.68006 -0.00847 0.57182 0.0
C128 C 0.66791 0.00596 0.52058 0.0
C129 C 0.62774 -0.01732 0.49665 0.0
C130 C 0.47061 0.81406 0.39791 0.0
C131 C 0.46876 0.91319 0.32643 0.0
C132 C 0.33133 0.77511 0.37559 0.0
C133 C 0.31774 0.73843 0.33672 0.0
C134 C 0.31379 0.70172 0.36115 0.0
C135 C 0.30359 0.66808 0.32355 0.0
C136 C 0.29669 0.67024 0.26097 0.0
C137 C 0.29761 0.70583 0.23759 0.0
C138 C 0.30796 0.73948 0.27507 0.0
C139 C 0.41174 0.89982 0.48319 0.0
O140 O 0.45153 0.86438 0.56048 0.0
O141 O 0.38473 0.82284 0.52908 0.0
O142 O 0.54037 0.94199 0.47502 0.0
O143 O 0.52918 0.88912 0.53127 0.0
O144 O 0.5033 0.85042 0.39622 0.0
O145 O 0.44637 0.81542 0.43699 0.0
O146 O 0.43138 0.87754 0.33236 0.0
O147 O 0.49401 0.9235 0.37532 0.0
O148 O 0.35217 0.81178 0.3504 0.0
O149 O 0.34636 0.7736 0.42887 0.0
O150 O 0.37526 0.86739 0.47869 0.0
O151 O 0.43655 0.89838 0.44683 0.0
H152 H 0.59368 0.89694 0.58613 0.0
H153 H 0.66226 0.93731 0.62875 0.0
H154 H 0.68752 0.03714 0.50379 0.0
H155 H 0.61752 -0.00325 0.46254 0.0
H156 H 0.31992 0.69935 0.409 0.0
H157 H 0.30285 0.64106 0.34279 0.0
H158 H 0.29316 0.70897 1.18933 0.0
H159 H 0.30976 0.76688 0.25525 0.0
Ho160 Ho 0.59928 0.51003 0.76443 0.0
Ho161 Ho 0.53442 0.42847 0.74334 0.0
C162 C 0.55283 0.44568 0.8899 0.0
C163 C 0.65552 0.58483 0.79363 0.0
C164 C 0.68012 0.6094 0.84564 0.0
C165 C 0.67151 0.59305 0.90478 0.0
C166 C 0.69195 0.61843 0.95442 0.0
C167 C 0.72138 0.66063 0.9457 0.0
C168 C 0.73181 0.67602 0.88585 0.0
C169 C 0.71123 0.65053 0.83617 0.0
C170 C 0.62936 0.46347 0.71448 0.0
C171 C 0.5444 0.49944 0.63395 0.0
C172 C 0.49882 0.35457 0.70072 0.0
C173 C 0.51534 0.32663 0.70154 0.0
C174 C 0.55048 0.33689 0.73765 0.0
C175 C 0.57814 0.32439 0.72036 0.0
C176 C 0.57122 0.30189 0.66628 0.0
C177 C 0.53202 0.28541 0.63736 0.0
C178 C 0.50455 0.29824 0.65443 0.0
C179 C 0.50984 0.47737 0.78817 0.0
O180 O 0.57964 0.48432 0.86828 0.0
O181 O 0.53378 0.41652 0.84769 0.0
O182 O 0.66381 0.55731 0.77408 0.0
O183 O 0.61577 0.57091 0.79548 0.0
O184 O 0.63471 0.49804 0.69317 0.0
O185 O 0.60312 0.45227 0.75794 0.0
O186 O 0.52452 0.45932 0.65215 0.0
O187 O 0.57481 0.52566 0.6722 0.0
O188 O 0.52068 0.38751 0.66734 0.0
O189 O 0.48942 0.36323 0.75344 0.0
O190 O 0.49008 0.43816 0.80068 0.0
O191 O 0.53556 0.48554 0.74772 0.0
H192 H 0.64768 0.56125 0.91271 0.0
H193 H 0.68238 0.60551 0.99974 0.0
H194 H 0.7544 0.70819 0.87754 0.0
H195 H 0.71844 0.66339 0.79044 0.0
H196 H 0.55931 0.35882 0.77449 0.0
H197 H 0.60735 0.33708 0.74475 0.0
H198 H 0.52473 0.2676 0.59594 0.0
H199 H 0.47752 0.28997 0.62612 0.0
Ho200 Ho 0.05531 0.58723 1.14418 0.0
Ho201 Ho 0.10744 0.55771 1.09321 0.0
C202 C 0.10021 0.5515 0.24612 0.0
C203 C 0.00793 0.60727 1.20074 0.0
C204 C 0.00277 0.64259 0.21546 0.0
C205 C 0.01989 0.66455 0.26949 0.0
C206 C 0.00471 0.6882 0.29412 0.0
C207 C -0.02837 0.69001 0.26556 0.0
C208 C 0.95936 0.67341 0.20667 0.0
C209 C -0.02565 0.64937 1.18221 0.0
C210 C 0.13026 0.65071 1.09964 0.0
C211 C 0.02371 0.54572 1.00591 0.0
C212 C 0.16425 0.56932 1.01842 0.0
C213 C 0.17351 0.59655 0.96492 0.0
C214 C 0.22436 0.64497 0.96104 0.0
C215 C 0.23376 0.68712 0.90779 0.0
C216 C 0.18677 0.68008 0.85628 0.0
C217 C 0.13377 0.62622 0.85838 0.0
C218 C 0.12967 0.58744 0.91385 0.0
C219 C 0.04229 0.49838 1.14494 0.0
O220 O 0.07361 0.56498 0.23504 0.0
O221 O 0.12089 0.54888 1.19753 0.0
O222 O 0.00195 0.59495 1.14423 0.0
O223 O 0.03817 0.60499 0.22737 0.0
O224 O 0.09485 0.64861 1.09381 0.0
O225 O 0.12366 0.61892 1.12919 0.0
O226 O 0.06121 0.54832 1.00844 0.0
O227 O 0.01276 0.5564 1.0575 0.0
O228 O 0.12794 0.53549 1.01818 0.0
O229 O 0.17262 0.58853 1.07046 0.0
O230 O 0.07618 0.49654 1.14061 0.0
O231 O 0.04368 0.52766 1.1142 0.0
H232 H 0.04219 0.66041 0.29593 0.0
H233 H 0.01566 0.70058 0.33924 0.0
H234 H 0.93505 0.67531 1.18224 0.0
H235 H 0.96099 0.63328 1.13985 0.0
H236 H 0.24829 0.64998 0.9936 0.0
H237 H 0.26203 0.71674 0.91121 0.0
H238 H 0.10666 0.62178 0.8335 0.0
H239 H 0.10059 0.55887 0.91728 0.0
Ho240 Ho 0.86098 0.49379 0.64347 0.0
Ho241 Ho 0.83584 0.41059 0.66957 0.0
C242 C 0.83757 0.42718 0.52083 0.0
C243 C 0.88821 0.5691 0.60706 0.0
C244 C 0.88014 0.59217 0.55986 0.0
C245 C 0.86525 0.57519 0.50221 0.0
C246 C 0.86569 0.60017 0.45436 0.0
C247 C 0.88096 0.64265 0.46336 0.0
C248 C 0.89133 0.65819 0.52305 0.0
C249 C 0.89122 0.63316 0.57084 0.0
C250 C 0.78122 0.45222 0.69057 0.0
C251 C 0.90125 0.48162 0.77669 0.0
C252 C 0.79454 0.33669 0.71492 0.0
C253 C 0.75022 0.30563 0.71619 0.0
C254 C 0.72108 0.31759 0.7035 0.0
C255 C 0.68098 0.2942 0.72593 0.0
C256 C 0.66962 0.25879 0.7624 0.0
C257 C 0.6962 0.24231 0.76165 0.0
C258 C 0.73685 0.26636 0.74062 0.0
C259 C 0.91135 0.45432 0.62541 0.0
O260 O 0.85169 0.46631 0.54083 0.0
O261 O 0.82535 0.39826 0.56459 0.0
O262 O 0.86 0.55081 0.64857 0.0
O263 O 0.90308 0.54631 0.5887 0.0
O264 O 0.8117 0.48715 0.70852 0.0
O265 O 0.79582 0.439 0.64973 0.0
O266 O 0.87588 0.4412 0.76216 0.0
O267 O 0.90233 0.50839 0.73408 0.0
O268 O 0.80465 0.37012 0.74555 0.0
O269 O 0.81256 0.34482 0.66205 0.0
O270 O 0.8885 0.41535 0.6136 0.0
O271 O 0.89533 0.46489 0.66472 0.0
H272 H 0.85597 0.54338 0.49311 0.0
H273 H 0.85767 0.58672 0.40933 0.0
H274 H 0.90237 0.69039 0.53206 0.0
H275 H 0.90212 0.6465 0.61559 0.0
H276 H 0.73055 0.34734 0.68265 0.0
H277 H 0.66165 0.30774 0.72194 0.0
H278 H 0.68783 0.21344 0.78432 0.0
H279 H 0.75867 0.25587 0.74854 0.0
Ho280 Ho 0.32761 0.87336 0.96948 0.0
Ho281 Ho 0.38302 0.84588 1.00041 0.0
C282 C 0.36033 0.83828 0.85141 0.0
C283 C 0.27218 0.89106 0.93276 0.0
C284 C 0.25263 0.89325 0.87597 0.0
C285 C 0.26241 0.8821 0.82077 0.0
C286 C 0.24297 0.88352 0.76699 0.0
C287 C 0.21343 0.89615 0.76757 0.0
C288 C 0.20259 0.90577 0.82355 0.0
C289 C 0.22207 0.90423 0.87747 0.0
C290 C 0.29058 0.80216 1.03949 0.0
C291 C 0.38472 0.92013 1.09383 0.0
C292 C 0.41344 0.80478 1.05299 0.0
C293 C 0.40456 0.76215 1.05013 0.0
C294 C 0.37265 0.73323 1.0126 0.0
C295 C 0.35535 0.69102 1.02445 0.0
C296 C 0.36823 0.67751 1.07622 0.0
C297 C 0.40574 0.7067 1.10508 0.0
C298 C 0.4232 0.74873 1.09283 0.0
C299 C 0.41801 0.9094 0.92695 0.0
O300 O 0.34068 0.85829 0.86884 0.0
O301 O 0.37437 0.82425 0.89736 0.0
O302 O 0.26426 0.85419 0.94753 0.0
O303 O 0.31108 0.91889 0.94137 0.0
O304 O 0.29331 0.83683 1.05266 0.0
O305 O 0.31369 0.80902 0.99324 0.0
O306 O 0.39761 0.89286 1.08385 0.0
O307 O 0.35807 0.91993 1.05182 0.0
O308 O 0.38382 0.80897 1.07602 0.0
O309 O 0.42939 0.82757 1.0046 0.0
O310 O 0.43025 0.88287 0.93099 0.0
O311 O 0.39444 0.90575 0.97038 0.0
H312 H 0.28553 0.87301 0.81906 0.0
H313 H 0.25285 0.87689 0.72456 0.0
H314 H 0.18009 0.91573 0.8253 0.0
H315 H 0.21371 0.91215 0.92021 0.0
H316 H 0.35866 0.74322 0.97793 0.0
H317 H 0.32862 0.66966 0.99775 0.0
H318 H 0.41882 0.69842 1.14309 0.0
H319 H 0.4487 0.77077 1.12104 0.0
Ho320 Ho 0.43619 0.35685 0.28763 0.0
Ho321 Ho 0.5219 0.41324 0.31707 0.0
C322 C 0.50381 0.39658 1.16668 0.0
C323 C 0.36045 0.30187 0.26034 0.0
C324 C 0.32602 0.28014 0.21692 0.0
C325 C 0.30892 0.23744 0.20979 0.0
C326 C 0.27657 0.21554 1.16846 0.0
C327 C 0.26051 0.23597 1.13398 0.0
C328 C 0.27598 0.27829 1.14403 0.0
C329 C 0.30854 0.30025 1.18516 0.0
C330 C 0.47417 0.32061 0.35176 0.0
C331 C 0.44873 0.4109 0.41525 0.0
C332 C 0.59466 0.43713 0.3635 0.0
C333 C 0.60834 0.41325 0.40028 0.0
C334 C 0.65046 0.42697 0.41026 0.0
C335 C 0.66222 0.40267 0.4445 0.0
C336 C 0.63192 0.36405 0.46782 0.0
C337 C 0.58995 0.35008 0.45508 0.0
C338 C 0.57841 0.3745 0.42219 0.0
C339 C 0.4902 0.44888 0.25049 0.0
O340 O 0.46383 0.37367 1.18555 0.0
O341 O 0.53288 0.41254 0.21109 0.0
O342 O 0.39169 0.29588 0.25586 0.0
O343 O 0.37157 0.33934 0.27707 0.0
O344 O 0.44044 0.31938 0.36716 0.0
O345 O 0.48822 0.34509 0.30671 0.0
O346 O 0.489 0.42174 0.40625 0.0
O347 O 0.42214 0.38714 0.37131 0.0
O348 O 0.56771 0.44461 0.38876 0.0
O349 O 0.58382 0.42356 0.30813 0.0
O350 O 0.52993 0.46344 0.25334 0.0
O351 O 0.47172 0.42305 0.2923 0.0
H352 H 0.32136 0.22116 0.23518 0.0
H353 H 0.26546 0.18312 1.16122 0.0
H354 H 0.26489 0.29514 1.11707 0.0
H355 H 0.32072 0.33302 1.19066 0.0
H356 H 0.67406 0.45666 0.39274 0.0
H357 H 0.69472 0.41461 0.45467 0.0
H358 H 0.56562 0.32135 0.47411 0.0
H359 H 0.54588 0.36357 0.41518 0.0
Ho360 Ho 0.04583 0.4236 0.63036 0.0
Ho361 Ho 0.11459 0.49555 0.66396 0.0
C362 C 0.09629 0.4866 0.51276 0.0
C363 C -0.01379 0.35378 0.5917 0.0
C364 C -0.01618 0.31615 0.56848 0.0
C365 C 0.00904 0.31808 0.52053 0.0
C366 C 0.0016 0.28206 0.49207 0.0
C367 C -0.0314 0.24326 0.51093 0.0
C368 C 0.94795 0.24138 0.56518 0.0
C369 C 0.95497 0.27763 0.59304 0.0
C370 C 0.11351 0.41606 0.66805 0.0
C371 C 0.03018 0.4461 0.76469 0.0
C372 C 0.18823 0.53822 0.71119 0.0
C373 C 0.20394 0.53999 0.77307 0.0
C374 C 0.24163 0.57481 0.78963 0.0
C375 C 0.2422 0.598 0.83937 0.0
C376 C 0.20375 0.58817 0.86479 0.0
C377 C 0.17205 0.54607 0.86199 0.0
C378 C 0.1735 0.5211 0.81734 0.0
C379 C 0.06324 0.51516 0.61492 0.0
O380 O 0.06239 0.45196 0.53137 0.0
O381 O 0.12454 0.50797 0.5567 0.0
O382 O -0.00381 0.36147 0.64907 0.0
O383 O 0.00475 0.38685 0.5574 0.0
O384 O 0.07769 0.39771 0.69343 0.0
O385 O 0.11206 0.44016 0.62935 0.0
O386 O 0.07239 0.47128 0.75843 0.0
O387 O 0.01099 0.42821 0.7131 0.0
O388 O 0.16234 0.55191 0.70527 0.0
O389 O 0.17492 0.50328 0.6837 0.0
O390 O 0.10312 0.53955 0.61194 0.0
O391 O 0.05203 0.48398 0.65012 0.0
H392 H 0.03273 0.34748 0.50224 0.0
H393 H 0.01907 0.28561 0.45129 0.0
H394 H 0.92367 0.21216 0.58294 0.0
H395 H 0.93628 0.27556 0.6317 0.0
H396 H 0.2674 0.5885 0.75851 0.0
H397 H 0.26886 0.62867 0.84492 0.0
H398 H 0.14346 0.53298 0.8866 0.0
H399 H 0.14588 0.49162 0.80845 0.0
Ho400 Ho 0.57862 0.07128 0.96194 0.0
Ho401 Ho 0.53584 0.11184 0.99958 0.0
C402 C 0.54692 0.11073 0.84712 0.0
C403 C 0.61458 0.0346 0.91469 0.0
C404 C 0.65376 0.0439 0.88673 0.0
C405 C 0.68122 0.08328 0.86316 0.0
C406 C 0.71048 0.08829 0.81965 0.0
C407 C 0.71184 0.05378 0.7983 0.0
C408 C 0.68822 0.01576 0.829 0.0
C409 C 0.65933 0.01091 0.87266 0.0
C410 C 0.63131 0.14846 1.01346 0.0
C411 C 0.52818 0.03287 1.093 0.0
C412 C 0.51939 0.16073 1.0596 0.0
C413 C 0.52748 0.20312 1.06367 0.0
C414 C 0.56116 0.23626 1.03443 0.0
C415 C 0.57556 0.27666 1.05417 0.0
C416 C 0.55813 0.28403 1.10584 0.0
C417 C 0.51976 0.25114 1.12655 0.0
C418 C 0.50496 0.21108 1.10607 0.0
C419 C 0.4861 0.046 0.93971 0.0
O420 O 0.56339 0.08747 0.86358 0.0
O421 O 0.53807 0.12851 0.89344 0.0
O422 O 0.61453 0.04072 0.97303 0.0
O423 O 0.59293 0.04692 0.88362 0.0
O424 O 0.63206 0.11503 1.02328 0.0
O425 O 0.60224 0.13937 0.97512 0.0
O426 O 0.52397 0.06662 1.08682 0.0
O427 O 0.5452 0.02558 1.04473 0.0
O428 O 0.55061 0.15543 1.07214 0.0
O429 O 0.49658 0.13799 1.01448 0.0
O430 O 0.47999 0.07686 0.94249 0.0
O431 O 0.51316 0.04822 0.97747 0.0
H432 H 0.67759 0.10928 0.87419 0.0
H433 H 0.72898 0.11828 0.79837 0.0
H434 H 0.68809 -0.0117 0.81446 0.0
H435 H 0.63852 -0.01965 0.89078 0.0
H436 H 0.57817 0.2307 0.99996 0.0
H437 H 0.60294 0.30136 1.03313 0.0
H438 H 0.5034 0.25465 1.16405 0.0
H439 H 0.47814 0.18585 1.12798 0.0
Ho440 Ho 0.49461 0.60719 0.2708 0.0
Ho441 Ho 0.41204 0.57324 0.32003 0.0
C442 C 0.41481 0.56821 1.16713 0.0
C443 C 0.56332 0.63149 0.21399 0.0
C444 C 0.60347 0.66789 1.19776 0.0
C445 C 0.60727 0.68878 1.14266 0.0
C446 C 0.64589 0.71206 1.1155 0.0
C447 C 0.68142 0.71441 1.14264 0.0
C448 C 0.67841 0.69981 1.20287 0.0
C449 C 0.63959 0.67609 0.22984 0.0
C450 C 0.48117 0.66796 0.31816 0.0
C451 C 0.48514 0.56408 0.40763 0.0
C452 C 0.36294 0.57853 0.3944 0.0
C453 C 0.37881 0.60417 0.44924 0.0
C454 C 0.37447 0.65094 0.45401 0.0
C455 C 0.4056 0.69245 0.50869 0.0
C456 C 0.44594 0.68659 0.5609 0.0
C457 C 0.44702 0.63426 0.55778 0.0
C458 C 0.41384 0.59598 0.50081 0.0
C459 C 0.42045 0.51637 0.26845 0.0
O460 O 0.45528 0.58356 1.17922 0.0
O461 O 0.39049 0.56433 0.21518 0.0
O462 O 0.55752 0.61933 0.27084 0.0
O463 O 0.52985 0.62712 1.18747 0.0
O464 O 0.51494 0.66677 0.32346 0.0
O465 O 0.45631 0.63669 0.28711 0.0
O466 O 0.44931 0.56487 0.4051 0.0
O467 O 0.50731 0.57635 0.35625 0.0
O468 O 0.36753 0.54632 0.39337 0.0
O469 O 0.3743 0.59956 0.34346 0.0
O470 O 0.384 0.51305 0.27167 0.0
O471 O 0.44778 0.54583 0.29965 0.0
H472 H 0.58009 0.68365 1.11716 0.0
H473 H 0.64643 0.72321 1.06959 0.0
H474 H 0.70529 0.70243 0.22625 0.0
H475 H 0.63768 0.66095 0.27305 0.0
H476 H 0.35542 0.65542 0.42104 0.0
H477 H 0.40599 0.72139 0.50586 0.0
H478 H 0.47003 0.63061 0.58298 0.0
H479 H 0.41559 0.56842 0.49647 0.0
C480 C 0.48411 0.23341 0.43091 0.0
C481 C 0.48094 0.20809 0.38169 0.0
H482 H 0.48342 0.2877 0.46045 0.0
C483 C 0.47836 0.22191 0.32248 0.0
H484 H 0.48549 0.22378 0.47723 0.0
C485 C 0.47832 0.25919 0.31277 0.0
C486 C 0.47977 0.28368 0.36197 0.0
H487 H 0.47538 0.20325 0.28337 0.0
H488 H 0.47522 0.26789 0.2666 0.0
C489 C 0.48271 0.27011 0.42125 0.0
C490 C 0.21818 0.41818 0.6673 0.0
C491 C 0.22789 0.41856 0.72989 0.0
H492 H 0.17614 0.41861 0.59907 0.0
C493 C 0.19907 0.41761 0.77181 0.0
H494 H 0.23953 0.41946 0.63334 0.0
C495 C 0.1617 0.41541 0.75205 0.0
C496 C 0.15242 0.41593 0.68947 0.0
H497 H 0.20531 0.41826 0.82029 0.0
H498 H 0.14054 0.41455 0.786 0.0
C499 C 0.18168 0.41781 0.64754 0.0
C500 C 0.74331 0.23881 0.99557 0.0
C501 C 0.74868 0.26524 1.04458 0.0
H502 H 0.70303 0.18245 0.94726 0.0
C503 C 0.71363 0.2537 1.08128 0.0
H504 H 0.7692 0.24598 0.96629 0.0
C505 C 0.67515 0.21692 1.06989 0.0
C506 C 0.67022 0.1904 1.02124 0.0
H507 H 0.71616 0.27254 1.11988 0.0
H508 H 0.64945 0.20876 1.10012 0.0
C509 C 0.70509 0.20215 0.9844 0.0
C510 C 0.51259 0.74272 0.35324 0.0
C511 C 0.47739 0.70574 0.33379 0.0
H512 H 0.53812 0.80436 0.38758 0.0
C513 C 0.43918 0.70511 0.33452 0.0
H514 H 0.54269 0.74519 0.3537 0.0
C515 C 0.43621 0.7391 0.35674 0.0
C516 C 0.47162 0.77581 0.37689 0.0
H517 H 0.41121 0.67781 0.31976 0.0
H518 H 0.40621 0.73678 0.35733 0.0
C519 C 0.50986 0.77693 0.37338 0.0
C520 C 0.67641 0.4348 0.75195 0.0
C521 C 0.66363 0.45287 0.706 0.0
H522 H 0.72259 0.41999 0.78323 0.0
C523 C 0.68807 0.46629 0.65259 0.0
H524 H 0.65941 0.42458 0.79425 0.0
C525 C 0.72406 0.46316 0.64595 0.0
C526 C 0.73759 0.4462 0.69221 0.0
H527 H 0.68011 0.48078 0.6161 0.0
H528 H 0.74244 0.47576 0.60516 0.0
C529 C 0.71288 0.43202 0.74544 0.0
C530 C 0.24865 0.72546 1.07323 0.0
C531 C 0.25029 0.76211 1.05321 0.0
H532 H 0.21087 0.66292 1.10637 0.0
C533 C 0.21232 0.7617 1.05147 0.0
H534 H 0.27696 0.72435 1.07646 0.0
C535 C 0.17435 0.72625 1.06744 0.0
C536 C 0.17234 0.68948 1.0873 0.0
H537 H 0.21181 0.78909 1.03705 0.0
H538 H 0.14623 0.72766 1.06367 0.0
C539 C 0.2105 0.69007 1.09087 0.0
C540 C 0.56797 0.32142 1.2043 0.0
C541 C 0.58498 0.31862 1.14893 0.0
H542 H 0.56778 0.31183 0.30006 0.0
C543 C 0.62787 0.33318 1.15011 0.0
H544 H 0.53718 0.31721 0.20547 0.0
C545 C 0.64671 0.33179 0.20489 0.0
C546 C 0.62252 0.31649 0.25782 0.0
H547 H 0.64497 0.33822 1.10869 0.0
H548 H 0.67758 0.33618 1.20327 0.0
C549 C 0.58594 0.31859 0.25918 0.0
C550 C 0.47731 0.70251 0.50347 0.0
C551 C 0.47558 0.71471 0.57165 0.0
H552 H 0.44511 0.65625 0.42347 0.0
C553 C 0.43466 0.68681 0.61706 0.0
H554 H 0.50555 0.72173 0.47827 0.0
C555 C 0.38884 0.64459 0.61405 0.0
C556 C 0.38318 0.62814 0.54859 0.0
H557 H 0.43958 0.70005 0.66356 0.0
H558 H 0.36782 0.63256 0.6522 0.0
C559 C 0.44065 0.66321 0.46961 0.0
C560 C 0.65657 0.26025 0.92341 0.0
C561 C 0.64983 0.29371 0.9216 0.0
H562 H 0.6624 0.21618 0.87229 0.0
C563 C 0.62698 0.29639 0.87223 0.0
H564 H 0.67261 0.25609 0.96145 0.0
C565 C 0.6204 0.27235 0.82034 0.0
C566 C 0.64112 0.24996 0.81554 0.0
H567 H 0.61865 0.32008 0.8708 0.0
H568 H 0.6063 0.2775 0.78059 0.0
C569 C 0.65092 0.23737 0.87096 0.0
C570 C 0.29543 0.63101 1.10893 0.0
C571 C 0.33704 0.64053 1.1121 0.0
H572 H 0.24834 0.63438 1.15838 0.0
C573 C 0.3498 0.6315 1.16808 0.0
H574 H 0.28105 0.63123 1.0661 0.0
C575 C 0.33121 0.63366 0.2217 0.0
C576 C 0.29783 0.64078 0.2178 0.0
H577 H 0.37913 0.63245 1.17189 0.0
H578 H 0.34716 0.63684 0.26454 0.0
C579 C 0.27623 0.63258 1.16215 0.0
C580 C 0.65952 0.36551 0.57043 0.0
C581 C 0.64151 0.34282 0.51733 0.0
H582 H 0.65106 0.36877 0.66502 0.0
C583 C 0.61705 0.29965 0.5229 0.0
H584 H 0.68037 0.39847 0.56777 0.0
C585 C 0.60018 0.28202 0.57949 0.0
C586 C 0.60718 0.30806 0.62927 0.0
H587 H 0.60431 0.28086 0.48281 0.0
H588 H 0.57566 0.24997 0.58093 0.0
C589 C 0.64221 0.34813 0.62677 0.0
C590 C 0.19868 0.68212 0.79987 0.0
C591 C 0.1842 0.70753 0.84668 0.0
H592 H 0.21339 0.63063 0.76227 0.0
C593 C 0.17008 0.69337 0.91465 0.0
H594 H 0.20684 0.69644 0.7537 0.0
C595 C 0.16865 0.65427 0.94697 0.0
C596 C 0.19322 0.62324 0.86619 0.0
H597 H 0.16016 0.71106 0.94087 0.0
H598 H 0.15728 0.646 0.99314 0.0
C599 C 0.20379 0.64117 0.8011 0.0
C600 C 0.39392 0.93906 0.21493 0.0
C601 C 0.40061 0.95176 1.15195 0.0
H602 H 0.40046 0.95402 0.31219 0.0
C603 C 0.42267 -0.00393 1.14683 0.0
H604 H 0.3773 0.9063 0.22478 0.0
C605 C 0.43789 0.02446 1.19885 0.0
C606 C 0.43124 0.01172 0.26186 0.0
H607 H 0.42939 0.00944 1.10146 0.0
H608 H 0.45492 0.05722 1.18903 0.0
C609 C 0.40769 0.96743 0.26686 0.0
C610 C 0.44461 0.42443 0.53653 0.0
C611 C 0.43252 0.42538 0.4744 0.0
H612 H 0.43957 0.43223 0.63394 0.0
C613 C 0.40296 0.43938 0.47151 0.0
H614 H 0.46651 0.41419 0.54514 0.0
C615 C 0.38784 0.45163 0.52457 0.0
C616 C 0.39956 0.44995 0.58693 0.0
H617 H 0.3913 0.4414 0.42693 0.0
H618 H 0.36587 0.46182 0.51615 0.0
C619 C 0.42849 0.43525 0.58944 0.0
C620 C 0.01511 0.4378 0.88912 0.0
C621 C 0.0019 0.43588 0.82658 0.0
H622 H 0.00071 0.42698 0.9868 0.0
C623 C 0.95786 0.42023 0.82372 0.0
H624 H 0.04756 0.44869 0.89776 0.0
C625 C 0.93032 0.40846 0.87648 0.0
C626 C 0.94311 0.40948 0.9388 0.0
H627 H 0.94388 0.41709 0.77908 0.0
H628 H 0.89787 0.39748 0.86765 0.0
C629 C -0.01286 0.42468 0.94207 0.0
C630 C 0.50614 -0.01226 0.26856 0.0
C631 C 0.48328 0.94333 0.2658 0.0
H632 H 0.53546 0.04834 0.22363 0.0
C633 C 0.47669 0.92983 1.2034 0.0
H634 H 0.51335 0.00178 0.31322 0.0
C635 C 0.49147 0.95765 1.15008 0.0
C636 C 0.51277 0.00205 1.1529 0.0
H637 H 0.46026 0.89696 1.19509 0.0
H638 H 0.48504 0.9437 1.1054 0.0
C639 C 0.51932 0.01548 0.21528 0.0
C640 C 0.54131 0.51643 0.51394 0.0
C641 C 0.52908 0.51586 0.57584 0.0
H642 H 0.53924 0.53077 0.41747 0.0
C643 C 0.5017 0.53198 0.58029 0.0
H644 H 0.56202 0.50496 0.50498 0.0
C645 C 0.48743 0.54644 0.52825 0.0
C646 C 0.49993 0.54739 0.4663 0.0
H647 H 0.4904 0.53305 0.62502 0.0
H648 H 0.46662 0.55762 0.53751 0.0
C649 C 0.52779 0.53176 0.46211 0.0
C650 C 0.94803 0.5074 0.95067 0.0
C651 C -0.00749 0.52883 0.94665 0.0
H652 H 0.88666 0.47575 0.90717 0.0
C653 C 0.00536 0.53356 0.88413 0.0
H654 H 0.93454 0.50182 0.99562 0.0
C655 C -0.02306 0.51925 0.83158 0.0
C656 C 0.9325 0.49725 0.83573 0.0
H657 H 0.03816 0.54946 0.87492 0.0
H658 H -0.00962 0.52519 0.78654 0.0
C659 C 0.91958 0.49187 0.89821 0.0
C660 C 0.48794 -0.00487 0.54354 0.0
C661 C 0.46764 0.01487 0.52082 0.0
H662 H 0.48292 0.9371 0.55141 0.0
C663 C 0.4243 -0.00482 0.52259 0.0
H664 H 0.52148 0.01076 0.54561 0.0
C665 C 0.40175 0.95254 0.52687 0.0
C666 C 0.42387 0.9319 0.52789 0.0
H667 H 0.40854 0.01138 0.50864 0.0
H668 H 0.36907 0.93658 0.5151 0.0
C669 C 0.4655 0.95263 0.54716 0.0
C670 C 0.4582 0.5243 0.86871 0.0
C671 C 0.45823 0.54867 0.81985 0.0
H672 H 0.47099 0.4764 0.89289 0.0
C673 C 0.49018 0.56358 0.77772 0.0
H674 H 0.437 0.51649 0.90579 0.0
C675 C 0.51144 0.54262 0.77175 0.0
C676 C 0.50055 0.5079 0.80898 0.0
H677 H 0.49231 0.58445 0.7415 0.0
H678 H 0.53157 0.54992 0.73293 0.0
C679 C 0.47726 0.50125 0.86128 0.0
C680 C 0.95139 0.47405 0.23521 0.0
C681 C 0.93054 0.43382 0.21468 0.0
H682 H 0.00338 0.52958 0.20925 0.0
C683 C 0.9521 0.41233 0.21404 0.0
H684 H 0.93461 0.48992 0.24424 0.0
C685 C -0.00619 0.4347 1.19881 0.0
C686 C 0.01149 0.47726 1.19116 0.0
H687 H 0.93561 0.37928 0.20931 0.0
H688 H 0.00922 0.4187 1.1833 0.0
C689 C -0.00836 0.49722 0.21549 0.0
C690 C 0.01785 0.54189 0.61994 0.0
C691 C 0.03403 0.52342 0.58378 0.0
H692 H -0.03659 0.53222 0.66319 0.0
C693 C 0.00838 0.49385 0.54079 0.0
H694 H 0.03757 0.56634 0.65127 0.0
C695 C -0.03392 0.4719 0.55043 0.0
C696 C 0.95057 0.48332 0.59891 0.0
H697 H 0.02072 0.4823 0.50761 0.0
H698 H 0.94661 0.4441 0.52463 0.0
C699 C -0.02457 0.52138 0.62801 0.0
C700 C 0.4658 0.95521 0.85481 0.0
C701 C 0.42453 0.93424 0.87224 0.0
H702 H 0.52103 0.01011 0.87654 0.0
C703 C 0.40262 0.95528 0.86914 0.0
H704 H 0.48237 0.9388 0.8488 0.0
C705 C 0.42441 -0.00308 0.88319 0.0
C706 C 0.46702 0.01504 0.89356 0.0
H707 H 0.36932 0.93872 0.87221 0.0
H708 H 0.40763 0.01208 0.89624 0.0
C709 C 0.48824 -0.00382 0.87144 0.0
C710 C 0.47187 0.51765 1.19958 0.0
C711 C 0.43135 0.49644 0.22294 0.0
H712 H 0.52247 0.51231 1.17055 0.0
C713 C 0.40643 0.45397 0.21433 0.0
H714 H 0.49226 0.55016 0.20612 0.0
C715 C 0.42613 0.43248 1.19893 0.0
C716 C 0.4696 0.45473 1.19781 0.0
H717 H 0.37457 0.4372 0.22947 0.0
H718 H 0.40941 0.39934 1.20418 0.0
C719 C 0.48942 0.49556 1.17912 0.0
C720 C 0.20642 0.9465 0.70219 0.0
C721 C 0.201 0.90692 0.70911 0.0
H722 H 0.22458 -0.00238 0.64262 0.0
C723 C 0.19514 0.88327 0.6568 0.0
H724 H 0.21048 0.96537 0.74154 0.0
C725 C 0.20312 0.90188 0.59923 0.0
C726 C 0.21735 0.94428 0.5939 0.0
H727 H 0.18946 0.85209 0.66093 0.0
H728 H 0.20341 0.88459 0.56029 0.0
C729 C 0.2145 0.96509 0.64483 0.0
C730 C 0.25313 0.20314 1.03448 0.0
C731 C 0.23597 0.21699 1.07809 0.0
H732 H 0.26814 0.20502 0.94144 0.0
C733 C 0.20508 0.22556 1.05949 0.0
H734 H 0.27595 0.19478 1.04755 0.0
C735 C 0.19948 0.23028 0.99742 0.0
C736 C 0.22684 0.22923 0.95495 0.0
H737 H 0.18988 0.23447 1.09258 0.0
H738 H 0.17942 0.24211 0.98442 0.0
C739 C 0.24847 0.20912 0.97275 0.0
C740 C 0.95395 0.20536 0.35587 0.0
C741 C 0.91302 0.19698 0.34967 0.0
H742 H 0.00444 0.22224 0.41783 0.0
C743 C 0.88735 0.18295 0.40096 0.0
H744 H -0.02579 0.21444 0.31682 0.0
C745 C 0.9051 0.18904 0.45894 0.0
C746 C 0.94858 0.20944 0.46516 0.0
H747 H 0.85495 0.17387 0.39694 0.0
H748 H 0.8854 0.18485 0.49722 0.0
C749 C -0.02861 0.21018 0.4141 0.0
C750 C 0.73772 0.02433 0.71935 0.0
C751 C 0.72674 0.05364 0.73554 0.0
H752 H 0.73308 -0.01813 0.6512 0.0
C753 C 0.71723 0.07327 0.68834 0.0
H754 H 0.74732 0.01004 0.75399 0.0
C755 C 0.70919 0.05723 0.62952 0.0
C756 C 0.71039 0.02123 0.61703 0.0
H757 H 0.70957 0.09676 0.698 0.0
H758 H 0.69578 0.06932 0.5973 0.0
C759 C 0.72958 0.00818 0.66028 0.0
C760 C 0.72234 0.74001 1.0462 0.0
C761 C 0.71504 0.71867 1.10205 0.0
H762 H 0.72929 0.73725 0.95032 0.0
C763 C 0.72824 0.68972 1.10827 0.0
H764 H 0.71495 0.76423 1.04057 0.0
C765 C 0.73786 0.67506 1.05664 0.0
C766 C 0.73407 0.68896 0.99854 0.0
H767 H 0.72492 0.67347 1.15082 0.0
H768 H 0.74241 0.64892 1.06158 0.0
C769 C 0.73097 0.72466 0.99424 0.0
C770 C 0.95857 0.72014 0.358 0.0
C771 C 0.94328 0.69704 0.30418 0.0
H772 H 0.95036 0.72017 0.45379 0.0
C773 C 0.9003 0.66911 0.29978 0.0
H774 H -0.00914 0.74403 0.36186 0.0
C775 C 0.87624 0.65653 0.35238 0.0
C776 C 0.89524 0.67101 0.40956 0.0
H777 H 0.88632 0.65189 0.2585 0.0
H778 H 0.84469 0.63093 0.34919 0.0
C779 C 0.93495 0.70659 0.41103 0.0
C780 C 0.4894 0.11497 0.68986 0.0
C781 C 0.5137 0.11462 0.63995 0.0
H782 H 0.47978 0.11567 0.7881 0.0
C783 C 0.5498 0.11405 0.66145 0.0
H784 H 0.46123 0.11522 0.67918 0.0
C785 C 0.56005 0.11298 0.7258 0.0
C786 C 0.53624 0.11408 0.77574 0.0
H787 H 0.57034 0.11337 0.62784 0.0
H788 H 0.58758 0.11149 0.7364 0.0
C789 C 0.50049 0.11543 0.75438 0.0
C790 C 0.36181 0.54704 0.99782 0.0
C791 C 0.36964 0.51723 0.97025 0.0
H792 H 0.36714 0.58483 1.07646 0.0
C793 C 0.39132 0.50448 1.01091 0.0
H794 H 0.34559 0.55893 0.97107 0.0
C795 C 0.4052 0.52078 1.07175 0.0
C796 C 0.39719 0.55012 1.0999 0.0
H797 H 0.39866 0.48178 0.99519 0.0
H798 H 0.42246 0.50964 1.09725 0.0
C799 C 0.37444 0.56229 1.06013 0.0
C800 C 0.83788 0.36669 0.36725 0.0
C801 C 0.83626 0.3893 0.31506 0.0
H802 H 0.83844 0.35853 0.46613 0.0
C803 C 0.83526 0.42543 0.33357 0.0
H804 H 0.83902 0.33895 0.35928 0.0
C805 C 0.8362 0.43781 0.39711 0.0
C806 C 0.83698 0.41472 0.44932 0.0
H807 H 0.83444 0.44529 0.2981 0.0
H808 H 0.83583 0.46596 0.40513 0.0
C809 C 0.83755 0.37839 0.43072 0.0
C810 C 0.35906 0.83544 0.66495 0.0
C811 C 0.39694 0.83787 0.64655 0.0
H812 H 0.31864 0.83479 0.73685 0.0
C813 C 0.42164 0.83984 0.6985 0.0
H814 H 0.33817 0.8345 0.62953 0.0
C815 C 0.40938 0.83849 0.76195 0.0
C816 C 0.37185 0.83668 0.78044 0.0
H817 H 0.45121 0.84223 0.69026 0.0
H818 H 0.43061 0.84007 0.79728 0.0
C819 C 0.34751 0.83568 0.72852 0.0
C820 C 0.50346 0.3978 0.98076 0.0
C821 C 0.54117 0.43382 0.96143 0.0
H822 H 0.46202 0.35867 1.05318 0.0
C823 C 0.56599 0.45689 1.01267 0.0
H824 H 0.48208 0.37806 0.94588 0.0
C825 C 0.55454 0.44466 1.07637 0.0
C826 C 0.5166 0.4088 1.09557 0.0
H827 H 0.59518 0.48479 1.00376 0.0
H828 H 0.57585 0.46435 1.11134 0.0
C829 C 0.4915 0.38624 1.04434 0.0
C830 C 0.0656 0.48419 0.40115 0.0
C831 C 0.0996 0.50294 0.44336 0.0
H832 H 0.03838 0.48341 0.31277 0.0
C833 C 0.13507 0.53811 0.41728 0.0
H834 H 0.03715 0.45731 0.41593 0.0
C835 C 0.13622 0.55284 0.35485 0.0
C836 C 0.10168 0.5343 0.31332 0.0
H837 H 0.16254 0.55483 0.44546 0.0
H838 H 0.16443 0.57985 0.33966 0.0
C839 C 0.06638 0.49952 0.33983 0.0
loop_
_geom_bond_atom_site_label_1
_geom_bond_atom_site_label_2
_geom_bond_distance
_geom_bond_site_symmetry_2
_ccdc_geom_bond_type
Ho0 C3 2.811 . S
Ho0 O20 2.322 . S
Ho0 O22 2.378 . S
Ho0 O23 2.524 . S
Ho0 O24 2.381 . S
Ho0 O25 2.669 . S
Ho0 O27 2.346 . S
Ho0 O31 2.305 . S
Ho1 C12 2.811 . S
Ho1 O21 2.346 . S
Ho1 O25 2.305 . S
Ho1 O26 2.322 . S
Ho1 O28 2.378 . S
Ho1 O29 2.524 . S
Ho1 O30 2.381 . S
Ho1 O31 2.669 . S
C2 O20 1.259 . S
C2 O21 1.268 . S
C3 Ho0 2.811 . S
C3 C4 1.488 . S
C3 O22 1.215 . S
C3 O23 1.289 . S
C4 C3 1.488 . S
C4 C5 1.348 . S
C4 C9 1.413 . S
C5 C4 1.348 . S
C5 C6 1.442 . S
C5 H32 0.930 . S
C6 C5 1.442 . S
C6 C7 1.381 . S
C6 H33 0.931 . S
C7 C6 1.381 . S
C7 C8 1.321 . S
C8 C7 1.321 . S
C8 C9 1.403 . S
C8 H34 0.934 . S
C9 C4 1.413 . S
C9 C8 1.403 . S
C9 H35 0.930 . S
C10 O24 1.275 . S
C10 O25 1.256 . S
C11 O26 1.259 . S
C11 O27 1.268 . S
C12 Ho1 2.811 . S
C12 C13 1.488 . S
C12 O28 1.215 . S
C12 O29 1.289 . S
C13 C12 1.488 . S
C13 C14 1.348 . S
C13 C18 1.413 . S
C14 C13 1.348 . S
C14 C15 1.442 . S
C14 H36 0.930 . S
C15 C14 1.442 . S
C15 C16 1.381 1_554 S
C15 H37 0.931 1_554 S
C16 C15 1.381 1_556 S
C16 C17 1.321 1_556 S
C17 C16 1.321 1_554 S
C17 C18 1.403 . S
C17 H38 0.934 . S
C18 C13 1.413 . S
C18 C17 1.403 . S
C18 H39 0.930 . S
C19 O30 1.275 . S
C19 O31 1.256 . S
O20 Ho0 2.322 . S
O20 C2 1.259 . S
O21 Ho1 2.346 . S
O21 C2 1.268 . S
O22 Ho0 2.378 . S
O22 C3 1.215 . S
O23 Ho0 2.524 . S
O23 C3 1.289 . S
O24 Ho0 2.381 . S
O24 C10 1.275 . S
O25 Ho0 2.669 . S
O25 Ho1 2.305 . S
O25 C10 1.256 . S
O26 Ho1 2.322 . S
O26 C11 1.259 . S
O27 Ho0 2.346 . S
O27 C11 1.268 . S
O28 Ho1 2.378 . S
O28 C12 1.215 . S
O29 Ho1 2.524 . S
O29 C12 1.289 . S
O30 Ho1 2.381 . S
O30 C19 1.275 . S
O31 Ho0 2.305 . S
O31 Ho1 2.669 . S
O31 C19 1.256 . S
H32 C5 0.930 . S
H33 C6 0.931 . S
H34 C8 0.934 . S
H35 C9 0.930 . S
H36 C14 0.930 . S
H37 C15 0.931 1_556 S
H38 C17 0.934 . S
H39 C18 0.930 . S
Ho40 C43 2.811 . S
Ho40 O60 2.322 . S
Ho40 O62 2.378 . S
Ho40 O63 2.524 . S
Ho40 O64 2.381 . S
Ho40 O65 2.669 . S
Ho40 O67 2.346 . S
Ho40 O71 2.305 . S
Ho41 C52 2.811 . S
Ho41 O61 2.346 . S
Ho41 O65 2.305 . S
Ho41 O66 2.322 . S
Ho41 O68 2.378 . S
Ho41 O69 2.524 . S
Ho41 O70 2.381 . S
Ho41 O71 2.669 . S
C42 O60 1.259 . S
C42 O61 1.268 . S
C43 Ho40 2.811 . S
C43 C44 1.488 . S
C43 O62 1.215 . S
C43 O63 1.289 . S
C44 C43 1.488 . S
C44 C45 1.348 . S
C44 C49 1.413 . S
C45 C44 1.348 . S
C45 C46 1.442 . S
C45 H72 0.930 . S
C46 C45 1.442 . S
C46 C47 1.381 . S
C46 H73 0.931 . S
C47 C46 1.381 . S
C47 C48 1.321 . S
C48 C47 1.321 . S
C48 C49 1.403 . S
C48 H74 0.934 . S
C49 C44 1.413 . S
C49 C48 1.403 . S
C49 H75 0.930 . S
C50 O64 1.275 . S
C50 O65 1.256 . S
C51 O66 1.259 . S
C51 O67 1.268 . S
C52 Ho41 2.811 . S
C52 C53 1.488 . S
C52 O68 1.215 . S
C52 O69 1.289 . S
C53 C52 1.488 . S
C53 C54 1.348 . S
C53 C58 1.413 . S
C54 C53 1.348 . S
C54 C55 1.442 . S
C54 H76 0.930 . S
C55 C54 1.442 . S
C55 C56 1.381 . S
C55 H77 0.931 . S
C56 C55 1.381 . S
C56 C57 1.321 . S
C57 C56 1.321 . S
C57 C58 1.403 . S
C57 H78 0.934 . S
C58 C53 1.413 . S
C58 C57 1.403 . S
C58 H79 0.930 . S
C59 O70 1.275 . S
C59 O71 1.256 . S
O60 Ho40 2.322 . S
O60 C42 1.259 . S
O61 Ho41 2.346 . S
O61 C42 1.268 . S
O62 Ho40 2.378 . S
O62 C43 1.215 . S
O63 Ho40 2.524 . S
O63 C43 1.289 . S
O64 Ho40 2.381 . S
O64 C50 1.275 . S
O65 Ho40 2.669 . S
O65 Ho41 2.305 . S
O65 C50 1.256 . S
O66 Ho41 2.322 . S
O66 C51 1.259 . S
O67 Ho40 2.346 . S
O67 C51 1.268 . S
O68 Ho41 2.378 . S
O68 C52 1.215 . S
O69 Ho41 2.524 . S
O69 C52 1.289 . S
O70 Ho41 2.381 . S
O70 C59 1.275 . S
O71 Ho40 2.305 . S
O71 Ho41 2.669 . S
O71 C59 1.256 . S
H72 C45 0.930 . S
H73 C46 0.931 . S
H74 C48 0.934 . S
H75 C49 0.930 . S
H76 C54 0.930 . S
H77 C55 0.931 . S
H78 C57 0.934 . S
H79 C58 0.930 . S
Ho80 C83 2.811 1_556 S
Ho80 O100 2.322 . S
Ho80 O102 2.378 1_556 S
Ho80 O103 2.524 1_556 S
Ho80 O104 2.381 . S
Ho80 O105 2.669 . S
Ho80 O107 2.346 . S
Ho80 O111 2.305 . S
Ho81 C92 2.811 . S
Ho81 O101 2.346 . S
Ho81 O105 2.305 . S
Ho81 O106 2.322 . S
Ho81 O108 2.378 . S
Ho81 O109 2.524 . S
Ho81 O110 2.381 . S
Ho81 O111 2.669 . S
C82 O100 1.259 . S
C82 O101 1.268 . S
C83 Ho80 2.811 1_554 S
C83 C84 1.488 . S
C83 O102 1.215 . S
C83 O103 1.289 . S
C84 C83 1.488 . S
C84 C85 1.348 . S
C84 C89 1.413 . S
C85 C84 1.348 . S
C85 C86 1.442 . S
C85 H112 0.930 . S
C86 C85 1.442 . S
C86 C87 1.381 . S
C86 H113 0.931 . S
C87 C86 1.381 . S
C87 C88 1.321 . S
C88 C87 1.321 . S
C88 C89 1.403 . S
C88 H114 0.934 . S
C89 C84 1.413 . S
C89 C88 1.403 . S
C89 H115 0.930 . S
C90 O104 1.275 . S
C90 O105 1.256 . S
C91 O106 1.259 . S
C91 O107 1.268 . S
C92 Ho81 2.811 . S
C92 C93 1.488 . S
C92 O108 1.215 . S
C92 O109 1.289 . S
C93 C92 1.488 . S
C93 C94 1.348 . S
C93 C98 1.413 . S
C94 C93 1.348 . S
C94 C95 1.442 . S
C94 H116 0.930 . S
C95 C94 1.442 . S
C95 C96 1.381 . S
C95 H117 0.931 . S
C96 C95 1.381 . S
C96 C97 1.321 . S
C97 C96 1.321 . S
C97 C98 1.403 . S
C97 H118 0.934 . S
C98 C93 1.413 . S
C98 C97 1.403 . S
C98 H119 0.930 . S
C99 O110 1.275 . S
C99 O111 1.256 . S
O100 Ho80 2.322 . S
O100 C82 1.259 . S
O101 Ho81 2.346 . S
O101 C82 1.268 . S
O102 Ho80 2.378 1_554 S
O102 C83 1.215 . S
O103 Ho80 2.524 1_554 S
O103 C83 1.289 . S
O104 Ho80 2.381 . S
O104 C90 1.275 . S
O105 Ho80 2.669 . S
O105 Ho81 2.305 . S
O105 C90 1.256 . S
O106 Ho81 2.322 . S
O106 C91 1.259 . S
O107 Ho80 2.346 . S
O107 C91 1.268 . S
O108 Ho81 2.378 . S
O108 C92 1.215 . S
O109 Ho81 2.524 . S
O109 C92 1.289 . S
O110 Ho81 2.381 . S
O110 C99 1.275 . S
O111 Ho80 2.305 . S
O111 Ho81 2.669 . S
O111 C99 1.256 . S
H112 C85 0.930 . S
H113 C86 0.931 . S
H114 C88 0.934 . S
H115 C89 0.930 . S
H116 C94 0.930 . S
H117 C95 0.931 . S
H118 C97 0.934 . S
H119 C98 0.930 . S
Ho120 C123 2.811 . S
Ho120 O140 2.322 . S
Ho120 O142 2.378 . S
Ho120 O143 2.524 . S
Ho120 O144 2.381 . S
Ho120 O145 2.669 . S
Ho120 O147 2.346 . S
Ho120 O151 2.305 . S
Ho121 C132 2.811 . S
Ho121 O141 2.346 . S
Ho121 O145 2.305 . S
Ho121 O146 2.322 . S
Ho121 O148 2.378 . S
Ho121 O149 2.524 . S
Ho121 O150 2.381 . S
Ho121 O151 2.669 . S
C122 O140 1.259 . S
C122 O141 1.268 . S
C123 Ho120 2.811 . S
C123 C124 1.488 . S
C123 O142 1.215 . S
C123 O143 1.289 . S
C124 C123 1.488 . S
C124 C125 1.348 . S
C124 C129 1.413 . S
C125 C124 1.348 . S
C125 C126 1.442 . S
C125 H152 0.930 . S
C126 C125 1.442 . S
C126 C127 1.381 . S
C126 H153 0.931 . S
C127 C126 1.381 . S
C127 C128 1.321 . S
C128 C127 1.321 . S
C128 C129 1.403 . S
C128 H154 0.934 . S
C129 C124 1.413 . S
C129 C128 1.403 . S
C129 H155 0.930 . S
C130 O144 1.275 . S
C130 O145 1.256 . S
C131 O146 1.259 . S
C131 O147 1.268 . S
C132 Ho121 2.811 . S
C132 C133 1.488 . S
C132 O148 1.215 . S
C132 O149 1.289 . S
C133 C132 1.488 . S
C133 C134 1.348 . S
C133 C138 1.413 . S
C134 C133 1.348 . S
C134 C135 1.442 . S
C134 H156 0.930 . S
C135 C134 1.442 . S
C135 C136 1.381 1_554 S
C135 H157 0.931 1_554 S
C136 C135 1.381 1_556 S
C136 C137 1.321 1_556 S
C137 C136 1.321 1_554 S
C137 C138 1.403 . S
C137 H158 0.934 . S
C138 C133 1.413 . S
C138 C137 1.403 . S
C138 H159 0.930 . S
C139 O150 1.275 . S
C139 O151 1.256 . S
O140 Ho120 2.322 . S
O140 C122 1.259 . S
O141 Ho121 2.346 . S
O141 C122 1.268 . S
O142 Ho120 2.378 . S
O142 C123 1.215 . S
O143 Ho120 2.524 . S
O143 C123 1.289 . S
O144 Ho120 2.381 . S
O144 C130 1.275 . S
O145 Ho120 2.669 . S
O145 Ho121 2.305 . S
O145 C130 1.256 . S
O146 Ho121 2.322 . S
O146 C131 1.259 . S
O147 Ho120 2.346 . S
O147 C131 1.268 . S
O148 Ho121 2.378 . S
O148 C132 1.215 . S
O149 Ho121 2.524 . S
O149 C132 1.289 . S
O150 Ho121 2.381 . S
O150 C139 1.275 . S
O151 Ho120 2.305 . S
O151 Ho121 2.669 . S
O151 C139 1.256 . S
H152 C125 0.930 . S
H153 C126 0.931 . S
H154 C128 0.934 . S
H155 C129 0.930 . S
H156 C134 0.930 . S
H157 C135 0.931 1_556 S
H158 C137 0.934 . S
H159 C138 0.930 . S
Ho160 C163 2.811 . S
Ho160 O180 2.322 . S
Ho160 O182 2.378 . S
Ho160 O183 2.524 . S
Ho160 O184 2.381 . S
Ho160 O185 2.669 . S
Ho160 O187 2.346 . S
Ho160 O191 2.305 . S
Ho161 C172 2.811 . S
Ho161 O181 2.346 . S
Ho161 O185 2.305 . S
Ho161 O186 2.322 . S
Ho161 O188 2.378 . S
Ho161 O189 2.524 . S
Ho161 O190 2.381 . S
Ho161 O191 2.669 . S
C162 O180 1.259 . S
C162 O181 1.268 . S
C163 Ho160 2.811 . S
C163 C164 1.488 . S
C163 O182 1.215 . S
C163 O183 1.289 . S
C164 C163 1.488 . S
C164 C165 1.348 . S
C164 C169 1.413 . S
C165 C164 1.348 . S
C165 C166 1.442 . S
C165 H192 0.930 . S
C166 C165 1.442 . S
C166 C167 1.381 . S
C166 H193 0.931 . S
C167 C166 1.381 . S
C167 C168 1.321 . S
C168 C167 1.321 . S
C168 C169 1.403 . S
C168 H194 0.934 . S
C169 C164 1.413 . S
C169 C168 1.403 . S
C169 H195 0.930 . S
C170 O184 1.275 . S
C170 O185 1.256 . S
C171 O186 1.259 . S
C171 O187 1.268 . S
C172 Ho161 2.811 . S
C172 C173 1.488 . S
C172 O188 1.215 . S
C172 O189 1.289 . S
C173 C172 1.488 . S
C173 C174 1.348 . S
C173 C178 1.413 . S
C174 C173 1.348 . S
C174 C175 1.442 . S
C174 H196 0.930 . S
C175 C174 1.442 . S
C175 C176 1.381 . S
C175 H197 0.931 . S
C176 C175 1.381 . S
C176 C177 1.321 . S
C177 C176 1.321 . S
C177 C178 1.403 . S
C177 H198 0.934 . S
C178 C173 1.413 . S
C178 C177 1.403 . S
C178 H199 0.930 . S
C179 O190 1.275 . S
C179 O191 1.256 . S
O180 Ho160 2.322 . S
O180 C162 1.259 . S
O181 Ho161 2.346 . S
O181 C162 1.268 . S
O182 Ho160 2.378 . S
O182 C163 1.215 . S
O183 Ho160 2.524 . S
O183 C163 1.289 . S
O184 Ho160 2.381 . S
O184 C170 1.275 . S
O185 Ho160 2.669 . S
O185 Ho161 2.305 . S
O185 C170 1.256 . S
O186 Ho161 2.322 . S
O186 C171 1.259 . S
O187 Ho160 2.346 . S
O187 C171 1.268 . S
O188 Ho161 2.378 . S
O188 C172 1.215 . S
O189 Ho161 2.524 . S
O189 C172 1.289 . S
O190 Ho161 2.381 . S
O190 C179 1.275 . S
O191 Ho160 2.305 . S
O191 Ho161 2.669 . S
O191 C179 1.256 . S
H192 C165 0.930 . S
H193 C166 0.931 . S
H194 C168 0.934 . S
H195 C169 0.930 . S
H196 C174 0.930 . S
H197 C175 0.931 . S
H198 C177 0.934 . S
H199 C178 0.930 . S
Ho200 C203 2.811 1_556 S
Ho200 O220 2.322 . S
Ho200 O222 2.378 1_556 S
Ho200 O223 2.524 1_556 S
Ho200 O224 2.381 . S
Ho200 O225 2.669 . S
Ho200 O227 2.346 . S
Ho200 O231 2.305 . S
Ho201 C212 2.811 . S
Ho201 O221 2.346 . S
Ho201 O225 2.305 . S
Ho201 O226 2.322 . S
Ho201 O228 2.378 . S
Ho201 O229 2.524 . S
Ho201 O230 2.381 . S
Ho201 O231 2.669 . S
C202 O220 1.259 . S
C202 O221 1.268 . S
C203 Ho200 2.811 1_554 S
C203 C204 1.488 . S
C203 O222 1.215 . S
C203 O223 1.289 . S
C204 C203 1.488 . S
C204 C205 1.348 . S
C204 C209 1.413 . S
C205 C204 1.348 . S
C205 C206 1.442 . S
C205 H232 0.930 . S
C206 C205 1.442 . S
C206 C207 1.381 . S
C206 H233 0.931 . S
C207 C206 1.381 . S
C207 C208 1.321 . S
C208 C207 1.321 . S
C208 C209 1.403 . S
C208 H234 0.934 . S
C209 C204 1.413 . S
C209 C208 1.403 . S
C209 H235 0.930 . S
C210 O224 1.275 . S
C210 O225 1.256 . S
C211 O226 1.259 . S
C211 O227 1.268 . S
C212 Ho201 2.811 . S
C212 C213 1.488 . S
C212 O228 1.215 . S
C212 O229 1.289 . S
C213 C212 1.488 . S
C213 C214 1.348 . S
C213 C218 1.413 . S
C214 C213 1.348 . S
C214 C215 1.442 . S
C214 H236 0.930 . S
C215 C214 1.442 . S
C215 C216 1.381 . S
C215 H237 0.931 . S
C216 C215 1.381 . S
C216 C217 1.321 . S
C217 C216 1.321 . S
C217 C218 1.403 . S
C217 H238 0.934 . S
C218 C213 1.413 . S
C218 C217 1.403 . S
C218 H239 0.930 . S
C219 O230 1.275 . S
C219 O231 1.256 . S
O220 Ho200 2.322 . S
O220 C202 1.259 . S
O221 Ho201 2.346 . S
O221 C202 1.268 . S
O222 Ho200 2.378 1_554 S
O222 C203 1.215 . S
O223 Ho200 2.524 1_554 S
O223 C203 1.289 . S
O224 Ho200 2.381 . S
O224 C210 1.275 . S
O225 Ho200 2.669 . S
O225 Ho201 2.305 . S
O225 C210 1.256 . S
O226 Ho201 2.322 . S
O226 C211 1.259 . S
O227 Ho200 2.346 . S
O227 C211 1.268 . S
O228 Ho201 2.378 . S
O228 C212 1.215 . S
O229 Ho201 2.524 . S
O229 C212 1.289 . S
O230 Ho201 2.381 . S
O230 C219 1.275 . S
O231 Ho200 2.305 . S
O231 Ho201 2.669 . S
O231 C219 1.256 . S
H232 C205 0.930 . S
H233 C206 0.931 . S
H234 C208 0.934 . S
H235 C209 0.930 . S
H236 C214 0.930 . S
H237 C215 0.931 . S
H238 C217 0.934 . S
H239 C218 0.930 . S
Ho240 C243 2.811 . S
Ho240 O260 2.322 . S
Ho240 O262 2.378 . S
Ho240 O263 2.524 . S
Ho240 O264 2.381 . S
Ho240 O265 2.669 . S
Ho240 O267 2.346 . S
Ho240 O271 2.305 . S
Ho241 C252 2.811 . S
Ho241 O261 2.346 . S
Ho241 O265 2.305 . S
Ho241 O266 2.322 . S
Ho241 O268 2.378 . S
Ho241 O269 2.524 . S
Ho241 O270 2.381 . S
Ho241 O271 2.669 . S
C242 O260 1.259 . S
C242 O261 1.268 . S
C243 Ho240 2.811 . S
C243 C244 1.488 . S
C243 O262 1.215 . S
C243 O263 1.289 . S
C244 C243 1.488 . S
C244 C245 1.348 . S
C244 C249 1.413 . S
C245 C244 1.348 . S
C245 C246 1.442 . S
C245 H272 0.930 . S
C246 C245 1.442 . S
C246 C247 1.381 . S
C246 H273 0.931 . S
C247 C246 1.381 . S
C247 C248 1.321 . S
C248 C247 1.321 . S
C248 C249 1.403 . S
C248 H274 0.934 . S
C249 C244 1.413 . S
C249 C248 1.403 . S
C249 H275 0.930 . S
C250 O264 1.275 . S
C250 O265 1.256 . S
C251 O266 1.259 . S
C251 O267 1.268 . S
C252 Ho241 2.811 . S
C252 C253 1.488 . S
C252 O268 1.215 . S
C252 O269 1.289 . S
C253 C252 1.488 . S
C253 C254 1.348 . S
C253 C258 1.413 . S
C254 C253 1.348 . S
C254 C255 1.442 . S
C254 H276 0.930 . S
C255 C254 1.442 . S
C255 C256 1.381 . S
C255 H277 0.931 . S
C256 C255 1.381 . S
C256 C257 1.321 . S
C257 C256 1.321 . S
C257 C258 1.403 . S
C257 H278 0.934 . S
C258 C253 1.413 . S
C258 C257 1.403 . S
C258 H279 0.930 . S
C259 O270 1.275 . S
C259 O271 1.256 . S
O260 Ho240 2.322 . S
O260 C242 1.259 . S
O261 Ho241 2.346 . S
O261 C242 1.268 . S
O262 Ho240 2.378 . S
O262 C243 1.215 . S
O263 Ho240 2.524 . S
O263 C243 1.289 . S
O264 Ho240 2.381 . S
O264 C250 1.275 . S
O265 Ho240 2.669 . S
O265 Ho241 2.305 . S
O265 C250 1.256 . S
O266 Ho241 2.322 . S
O266 C251 1.259 . S
O267 Ho240 2.346 . S
O267 C251 1.268 . S
O268 Ho241 2.378 . S
O268 C252 1.215 . S
O269 Ho241 2.524 . S
O269 C252 1.289 . S
O270 Ho241 2.381 . S
O270 C259 1.275 . S
O271 Ho240 2.305 . S
O271 Ho241 2.669 . S
O271 C259 1.256 . S
H272 C245 0.930 . S
H273 C246 0.931 . S
H274 C248 0.934 . S
H275 C249 0.930 . S
H276 C254 0.930 . S
H277 C255 0.931 . S
H278 C257 0.934 . S
H279 C258 0.930 . S
Ho280 C283 2.811 . S
Ho280 O300 2.322 . S
Ho280 O302 2.378 . S
Ho280 O303 2.524 . S
Ho280 O304 2.381 . S
Ho280 O305 2.669 . S
Ho280 O307 2.346 . S
Ho280 O311 2.305 . S
Ho281 C292 2.811 . S
Ho281 O301 2.346 . S
Ho281 O305 2.305 . S
Ho281 O306 2.322 . S
Ho281 O308 2.378 . S
Ho281 O309 2.524 . S
Ho281 O310 2.381 . S
Ho281 O311 2.669 . S
C282 O300 1.259 . S
C282 O301 1.268 . S
C283 Ho280 2.811 . S
C283 C284 1.488 . S
C283 O302 1.215 . S
C283 O303 1.289 . S
C284 C283 1.488 . S
C284 C285 1.348 . S
C284 C289 1.413 . S
C285 C284 1.348 . S
C285 C286 1.442 . S
C285 H312 0.930 . S
C286 C285 1.442 . S
C286 C287 1.381 . S
C286 H313 0.931 . S
C287 C286 1.381 . S
C287 C288 1.321 . S
C288 C287 1.321 . S
C288 C289 1.403 . S
C288 H314 0.934 . S
C289 C284 1.413 . S
C289 C288 1.403 . S
C289 H315 0.930 . S
C290 O304 1.275 . S
C290 O305 1.256 . S
C291 O306 1.259 . S
C291 O307 1.268 . S
C292 Ho281 2.811 . S
C292 C293 1.488 . S
C292 O308 1.215 . S
C292 O309 1.289 . S
C293 C292 1.488 . S
C293 C294 1.348 . S
C293 C298 1.413 . S
C294 C293 1.348 . S
C294 C295 1.442 . S
C294 H316 0.930 . S
C295 C294 1.442 . S
C295 C296 1.381 1_556 S
C295 H317 0.931 1_556 S
C296 C295 1.381 1_554 S
C296 C297 1.321 1_554 S
C297 C296 1.321 1_556 S
C297 C298 1.403 . S
C297 H318 0.934 . S
C298 C293 1.413 . S
C298 C297 1.403 . S
C298 H319 0.930 . S
C299 O310 1.275 . S
C299 O311 1.256 . S
O300 Ho280 2.322 . S
O300 C282 1.259 . S
O301 Ho281 2.346 . S
O301 C282 1.268 . S
O302 Ho280 2.378 . S
O302 C283 1.215 . S
O303 Ho280 2.524 . S
O303 C283 1.289 . S
O304 Ho280 2.381 . S
O304 C290 1.275 . S
O305 Ho280 2.669 . S
O305 Ho281 2.305 . S
O305 C290 1.256 . S
O306 Ho281 2.322 . S
O306 C291 1.259 . S
O307 Ho280 2.346 . S
O307 C291 1.268 . S
O308 Ho281 2.378 . S
O308 C292 1.215 . S
O309 Ho281 2.524 . S
O309 C292 1.289 . S
O310 Ho281 2.381 . S
O310 C299 1.275 . S
O311 Ho280 2.305 . S
O311 Ho281 2.669 . S
O311 C299 1.256 . S
H312 C285 0.930 . S
H313 C286 0.931 . S
H314 C288 0.934 . S
H315 C289 0.930 . S
H316 C294 0.930 . S
H317 C295 0.931 1_554 S
H318 C297 0.934 . S
H319 C298 0.930 . S
Ho320 C323 2.811 1_554 S
Ho320 O340 2.322 . S
Ho320 O342 2.378 1_554 S
Ho320 O343 2.524 1_554 S
Ho320 O344 2.381 . S
Ho320 O345 2.669 . S
Ho320 O347 2.346 . S
Ho320 O351 2.305 . S
Ho321 C332 2.811 . S
Ho321 O341 2.346 . S
Ho321 O345 2.305 . S
Ho321 O346 2.322 . S
Ho321 O348 2.378 . S
Ho321 O349 2.524 . S
Ho321 O350 2.381 . S
Ho321 O351 2.669 . S
C322 O340 1.259 . S
C322 O341 1.268 . S
C323 Ho320 2.811 1_556 S
C323 C324 1.488 . S
C323 O342 1.215 . S
C323 O343 1.289 . S
C324 C323 1.488 . S
C324 C325 1.348 . S
C324 C329 1.413 . S
C325 C324 1.348 . S
C325 C326 1.442 . S
C325 H352 0.930 . S
C326 C325 1.442 . S
C326 C327 1.381 . S
C326 H353 0.931 . S
C327 C326 1.381 . S
C327 C328 1.321 . S
C328 C327 1.321 . S
C328 C329 1.403 . S
C328 H354 0.934 . S
C329 C324 1.413 . S
C329 C328 1.403 . S
C329 H355 0.930 . S
C330 O344 1.275 . S
C330 O345 1.256 . S
C331 O346 1.259 . S
C331 O347 1.268 . S
C332 Ho321 2.811 . S
C332 C333 1.488 . S
C332 O348 1.215 . S
C332 O349 1.289 . S
C333 C332 1.488 . S
C333 C334 1.348 . S
C333 C338 1.413 . S
C334 C333 1.348 . S
C334 C335 1.442 . S
C334 H356 0.930 . S
C335 C334 1.442 . S
C335 C336 1.381 . S
C335 H357 0.931 . S
C336 C335 1.381 . S
C336 C337 1.321 . S
C337 C336 1.321 . S
C337 C338 1.403 . S
C337 H358 0.934 . S
C338 C333 1.413 . S
C338 C337 1.403 . S
C338 H359 0.930 . S
C339 O350 1.275 . S
C339 O351 1.256 . S
O340 Ho320 2.322 . S
O340 C322 1.259 . S
O341 Ho321 2.346 . S
O341 C322 1.268 . S
O342 Ho320 2.378 1_556 S
O342 C323 1.215 . S
O343 Ho320 2.524 1_556 S
O343 C323 1.289 . S
O344 Ho320 2.381 . S
O344 C330 1.275 . S
O345 Ho320 2.669 . S
O345 Ho321 2.305 . S
O345 C330 1.256 . S
O346 Ho321 2.322 . S
O346 C331 1.259 . S
O347 Ho320 2.346 . S
O347 C331 1.268 . S
O348 Ho321 2.378 . S
O348 C332 1.215 . S
O349 Ho321 2.524 . S
O349 C332 1.289 . S
O350 Ho321 2.381 . S
O350 C339 1.275 . S
O351 Ho320 2.305 . S
O351 Ho321 2.669 . S
O351 C339 1.256 . S
H352 C325 0.930 . S
H353 C326 0.931 . S
H354 C328 0.934 . S
H355 C329 0.930 . S
H356 C334 0.930 . S
H357 C335 0.931 . S
H358 C337 0.934 . S
H359 C338 0.930 . S
Ho360 C363 2.811 . S
Ho360 O380 2.322 . S
Ho360 O382 2.378 . S
Ho360 O383 2.524 . S
Ho360 O384 2.381 . S
Ho360 O385 2.669 . S
Ho360 O387 2.346 . S
Ho360 O391 2.305 . S
Ho361 C372 2.811 . S
Ho361 O381 2.346 . S
Ho361 O385 2.305 . S
Ho361 O386 2.322 . S
Ho361 O388 2.378 . S
Ho361 O389 2.524 . S
Ho361 O390 2.381 . S
Ho361 O391 2.669 . S
C362 O380 1.259 . S
C362 O381 1.268 . S
C363 Ho360 2.811 . S
C363 C364 1.488 . S
C363 O382 1.215 . S
C363 O383 1.289 . S
C364 C363 1.488 . S
C364 C365 1.348 . S
C364 C369 1.413 . S
C365 C364 1.348 . S
C365 C366 1.442 . S
C365 H392 0.930 . S
C366 C365 1.442 . S
C366 C367 1.381 . S
C366 H393 0.931 . S
C367 C366 1.381 . S
C367 C368 1.321 . S
C368 C367 1.321 . S
C368 C369 1.403 . S
C368 H394 0.934 . S
C369 C364 1.413 . S
C369 C368 1.403 . S
C369 H395 0.930 . S
C370 O384 1.275 . S
C370 O385 1.256 . S
C371 O386 1.259 . S
C371 O387 1.268 . S
C372 Ho361 2.811 . S
C372 C373 1.488 . S
C372 O388 1.215 . S
C372 O389 1.289 . S
C373 C372 1.488 . S
C373 C374 1.348 . S
C373 C378 1.413 . S
C374 C373 1.348 . S
C374 C375 1.442 . S
C374 H396 0.930 . S
C375 C374 1.442 . S
C375 C376 1.381 . S
C375 H397 0.931 . S
C376 C375 1.381 . S
C376 C377 1.321 . S
C377 C376 1.321 . S
C377 C378 1.403 . S
C377 H398 0.934 . S
C378 C373 1.413 . S
C378 C377 1.403 . S
C378 H399 0.930 . S
C379 O390 1.275 . S
C379 O391 1.256 . S
O380 Ho360 2.322 . S
O380 C362 1.259 . S
O381 Ho361 2.346 . S
O381 C362 1.268 . S
O382 Ho360 2.378 . S
O382 C363 1.215 . S
O383 Ho360 2.524 . S
O383 C363 1.289 . S
O384 Ho360 2.381 . S
O384 C370 1.275 . S
O385 Ho360 2.669 . S
O385 Ho361 2.305 . S
O385 C370 1.256 . S
O386 Ho361 2.322 . S
O386 C371 1.259 . S
O387 Ho360 2.346 . S
O387 C371 1.268 . S
O388 Ho361 2.378 . S
O388 C372 1.215 . S
O389 Ho361 2.524 . S
O389 C372 1.289 . S
O390 Ho361 2.381 . S
O390 C379 1.275 . S
O391 Ho360 2.305 . S
O391 Ho361 2.669 . S
O391 C379 1.256 . S
H392 C365 0.930 . S
H393 C366 0.931 . S
H394 C368 0.934 . S
H395 C369 0.930 . S
H396 C374 0.930 . S
H397 C375 0.931 . S
H398 C377 0.934 . S
H399 C378 0.930 . S
Ho400 C403 2.811 . S
Ho400 O420 2.322 . S
Ho400 O422 2.378 . S
Ho400 O423 2.524 . S
Ho400 O424 2.381 . S
Ho400 O425 2.669 . S
Ho400 O427 2.346 . S
Ho400 O431 2.305 . S
Ho401 C412 2.811 . S
Ho401 O421 2.346 . S
Ho401 O425 2.305 . S
Ho401 O426 2.322 . S
Ho401 O428 2.378 . S
Ho401 O429 2.524 . S
Ho401 O430 2.381 . S
Ho401 O431 2.669 . S
C402 O420 1.259 . S
C402 O421 1.268 . S
C403 Ho400 2.811 . S
C403 C404 1.488 . S
C403 O422 1.215 . S
C403 O423 1.289 . S
C404 C403 1.488 . S
C404 C405 1.348 . S
C404 C409 1.413 . S
C405 C404 1.348 . S
C405 C406 1.442 . S
C405 H432 0.930 . S
C406 C405 1.442 . S
C406 C407 1.381 . S
C406 H433 0.931 . S
C407 C406 1.381 . S
C407 C408 1.321 . S
C408 C407 1.321 . S
C408 C409 1.403 . S
C408 H434 0.934 . S
C409 C404 1.413 . S
C409 C408 1.403 . S
C409 H435 0.930 . S
C410 O424 1.275 . S
C410 O425 1.256 . S
C411 O426 1.259 . S
C411 O427 1.268 . S
C412 Ho401 2.811 . S
C412 C413 1.488 . S
C412 O428 1.215 . S
C412 O429 1.289 . S
C413 C412 1.488 . S
C413 C414 1.348 . S
C413 C418 1.413 . S
C414 C413 1.348 . S
C414 C415 1.442 . S
C414 H436 0.930 . S
C415 C414 1.442 . S
C415 C416 1.381 1_556 S
C415 H437 0.931 1_556 S
C416 C415 1.381 1_554 S
C416 C417 1.321 1_554 S
C417 C416 1.321 1_556 S
C417 C418 1.403 . S
C417 H438 0.934 . S
C418 C413 1.413 . S
C418 C417 1.403 . S
C418 H439 0.930 . S
C419 O430 1.275 . S
C419 O431 1.256 . S
O420 Ho400 2.322 . S
O420 C402 1.259 . S
O421 Ho401 2.346 . S
O421 C402 1.268 . S
O422 Ho400 2.378 . S
O422 C403 1.215 . S
O423 Ho400 2.524 . S
O423 C403 1.289 . S
O424 Ho400 2.381 . S
O424 C410 1.275 . S
O425 Ho400 2.669 . S
O425 Ho401 2.305 . S
O425 C410 1.256 . S
O426 Ho401 2.322 . S
O426 C411 1.259 . S
O427 Ho400 2.346 . S
O427 C411 1.268 . S
O428 Ho401 2.378 . S
O428 C412 1.215 . S
O429 Ho401 2.524 . S
O429 C412 1.289 . S
O430 Ho401 2.381 . S
O430 C419 1.275 . S
O431 Ho400 2.305 . S
O431 Ho401 2.669 . S
O431 C419 1.256 . S
H432 C405 0.930 . S
H433 C406 0.931 . S
H434 C408 0.934 . S
H435 C409 0.930 . S
H436 C414 0.930 . S
H437 C415 0.931 1_554 S
H438 C417 0.934 . S
H439 C418 0.930 . S
Ho440 C443 2.811 1_554 S
Ho440 O460 2.322 . S
Ho440 O462 2.378 1_554 S
Ho440 O463 2.524 1_554 S
Ho440 O464 2.381 . S
Ho440 O465 2.669 . S
Ho440 O467 2.346 . S
Ho440 O471 2.305 . S
Ho441 C452 2.811 . S
Ho441 O461 2.346 . S
Ho441 O465 2.305 . S
Ho441 O466 2.322 . S
Ho441 O468 2.378 . S
Ho441 O469 2.524 . S
Ho441 O470 2.381 . S
Ho441 O471 2.669 . S
C442 O460 1.259 . S
C442 O461 1.268 . S
C443 Ho440 2.811 1_556 S
C443 C444 1.488 . S
C443 O462 1.215 . S
C443 O463 1.289 . S
C444 C443 1.488 . S
C444 C445 1.348 . S
C444 C449 1.413 . S
C445 C444 1.348 . S
C445 C446 1.442 . S
C445 H472 0.930 . S
C446 C445 1.442 . S
C446 C447 1.381 . S
C446 H473 0.931 . S
C447 C446 1.381 . S
C447 C448 1.321 . S
C448 C447 1.321 . S
C448 C449 1.403 . S
C448 H474 0.934 . S
C449 C444 1.413 . S
C449 C448 1.403 . S
C449 H475 0.930 . S
C450 O464 1.275 . S
C450 O465 1.256 . S
C451 O466 1.259 . S
C451 O467 1.268 . S
C452 Ho441 2.811 . S
C452 C453 1.488 . S
C452 O468 1.215 . S
C452 O469 1.289 . S
C453 C452 1.488 . S
C453 C454 1.348 . S
C453 C458 1.413 . S
C454 C453 1.348 . S
C454 C455 1.442 . S
C454 H476 0.930 . S
C455 C454 1.442 . S
C455 C456 1.381 . S
C455 H477 0.931 . S
C456 C455 1.381 . S
C456 C457 1.321 . S
C457 C456 1.321 . S
C457 C458 1.403 . S
C457 H478 0.934 . S
C458 C453 1.413 . S
C458 C457 1.403 . S
C458 H479 0.930 . S
C459 O470 1.275 . S
C459 O471 1.256 . S
O460 Ho440 2.322 . S
O460 C442 1.259 . S
O461 Ho441 2.346 . S
O461 C442 1.268 . S
O462 Ho440 2.378 1_556 S
O462 C443 1.215 . S
O463 Ho440 2.524 1_556 S
O463 C443 1.289 . S
O464 Ho440 2.381 . S
O464 C450 1.275 . S
O465 Ho440 2.669 . S
O465 Ho441 2.305 . S
O465 C450 1.256 . S
O466 Ho441 2.322 . S
O466 C451 1.259 . S
O467 Ho440 2.346 . S
O467 C451 1.268 . S
O468 Ho441 2.378 . S
O468 C452 1.215 . S
O469 Ho441 2.524 . S
O469 C452 1.289 . S
O470 Ho441 2.381 . S
O470 C459 1.275 . S
O471 Ho440 2.305 . S
O471 Ho441 2.669 . S
O471 C459 1.256 . S
H472 C445 0.930 . S
H473 C446 0.931 . S
H474 C448 0.934 . S
H475 C449 0.930 . S
H476 C454 0.930 . S
H477 C455 0.931 . S
H478 C457 0.934 . S
H479 C458 0.930 . S
C480 C481 1.387 . S
C480 H484 0.950 . S
C480 C489 1.390 . S
C481 C480 1.387 . S
C481 C483 1.387 . S
H482 C489 0.950 . S
C483 C481 1.387 . S
C483 C485 1.390 . S
C483 H487 0.950 . S
H484 C480 0.950 . S
C485 C483 1.390 . S
C485 C486 1.387 . S
C485 H488 0.950 . S
C486 C485 1.387 . S
C486 C489 1.387 . S
H487 C483 0.950 . S
H488 C485 0.950 . S
C489 C480 1.390 . S
C489 H482 0.950 . S
C489 C486 1.387 . S
C490 C491 1.387 . S
C490 H494 0.950 . S
C490 C499 1.390 . S
C491 C490 1.387 . S
C491 C493 1.387 . S
H492 C499 0.950 . S
C493 C491 1.387 . S
C493 C495 1.390 . S
C493 H497 0.950 . S
H494 C490 0.950 . S
C495 C493 1.390 . S
C495 C496 1.387 . S
C495 H498 0.950 . S
C496 C495 1.387 . S
C496 C499 1.387 . S
H497 C493 0.950 . S
H498 C495 0.950 . S
C499 C490 1.390 . S
C499 H492 0.950 . S
C499 C496 1.387 . S
C500 C501 1.387 . S
C500 H504 0.950 . S
C500 C509 1.390 . S
C501 C500 1.387 . S
C501 C503 1.387 . S
H502 C509 0.950 . S
C503 C501 1.387 . S
C503 C505 1.390 . S
C503 H507 0.950 . S
H504 C500 0.950 . S
C505 C503 1.390 . S
C505 C506 1.387 . S
C505 H508 0.950 . S
C506 C505 1.387 . S
C506 C509 1.387 . S
H507 C503 0.950 . S
H508 C505 0.950 . S
C509 C500 1.390 . S
C509 H502 0.950 . S
C509 C506 1.387 . S
C510 C511 1.387 . S
C510 H514 0.950 . S
C510 C519 1.390 . S
C511 C510 1.387 . S
C511 C513 1.387 . S
H512 C519 0.950 . S
C513 C511 1.387 . S
C513 C515 1.390 . S
C513 H517 0.950 . S
H514 C510 0.950 . S
C515 C513 1.390 . S
C515 C516 1.387 . S
C515 H518 0.950 . S
C516 C515 1.387 . S
C516 C519 1.387 . S
H517 C513 0.950 . S
H518 C515 0.950 . S
C519 C510 1.390 . S
C519 H512 0.950 . S
C519 C516 1.387 . S
C520 C521 1.387 . S
C520 H524 0.950 . S
C520 C529 1.390 . S
C521 C520 1.387 . S
C521 C523 1.387 . S
H522 C529 0.950 . S
C523 C521 1.387 . S
C523 C525 1.390 . S
C523 H527 0.950 . S
H524 C520 0.950 . S
C525 C523 1.390 . S
C525 C526 1.387 . S
C525 H528 0.950 . S
C526 C525 1.387 . S
C526 C529 1.387 . S
H527 C523 0.950 . S
H528 C525 0.950 . S
C529 C520 1.390 . S
C529 H522 0.950 . S
C529 C526 1.387 . S
C530 C531 1.387 . S
C530 H534 0.950 . S
C530 C539 1.390 . S
C531 C530 1.387 . S
C531 C533 1.387 . S
H532 C539 0.950 . S
C533 C531 1.387 . S
C533 C535 1.390 . S
C533 H537 0.950 . S
H534 C530 0.950 . S
C535 C533 1.390 . S
C535 C536 1.387 . S
C535 H538 0.950 . S
C536 C535 1.387 . S
C536 C539 1.387 . S
H537 C533 0.950 . S
H538 C535 0.950 . S
C539 C530 1.390 . S
C539 H532 0.950 . S
C539 C536 1.387 . S
C540 C541 1.387 . S
C540 H544 0.950 . S
C540 C549 1.390 1_554 S
C541 C540 1.387 . S
C541 C543 1.387 . S
H542 C549 0.950 . S
C543 C541 1.387 . S
C543 C545 1.390 1_554 S
C543 H547 0.950 . S
H544 C540 0.950 . S
C545 C543 1.390 1_556 S
C545 C546 1.387 . S
C545 H548 0.950 . S
C546 C545 1.387 . S
C546 C549 1.387 . S
H547 C543 0.950 . S
H548 C545 0.950 . S
C549 C540 1.390 1_556 S
C549 H542 0.950 . S
C549 C546 1.387 . S
C550 C551 1.387 . S
C550 H554 0.950 . S
C550 C559 1.390 . S
C551 C550 1.387 . S
C551 C553 1.387 . S
H552 C559 0.950 . S
C553 C551 1.387 . S
C553 C555 1.390 . S
C553 H557 0.950 . S
H554 C550 0.950 . S
C555 C553 1.390 . S
C555 C556 1.387 . S
C555 H558 0.950 . S
C556 C555 1.387 . S
C556 C559 1.387 . S
H557 C553 0.950 . S
H558 C555 0.950 . S
C559 C550 1.390 . S
C559 H552 0.950 . S
C559 C556 1.387 . S
C560 C561 1.387 . S
C560 H564 0.950 . S
C560 C569 1.390 . S
C561 C560 1.387 . S
C561 C563 1.387 . S
H562 C569 0.950 . S
C563 C561 1.387 . S
C563 C565 1.390 . S
C563 H567 0.950 . S
H564 C560 0.950 . S
C565 C563 1.390 . S
C565 C566 1.387 . S
C565 H568 0.950 . S
C566 C565 1.387 . S
C566 C569 1.387 . S
H567 C563 0.950 . S
H568 C565 0.950 . S
C569 C560 1.390 . S
C569 H562 0.950 . S
C569 C566 1.387 . S
C570 C571 1.387 . S
C570 H574 0.950 . S
C570 C579 1.390 1_554 S
C571 C570 1.387 . S
C571 C573 1.387 . S
H572 C579 0.950 . S
C573 C571 1.387 . S
C573 C575 1.390 1_554 S
C573 H577 0.950 . S
H574 C570 0.950 . S
C575 C573 1.390 1_556 S
C575 C576 1.387 . S
C575 H578 0.950 . S
C576 C575 1.387 . S
C576 C579 1.387 . S
H577 C573 0.950 . S
H578 C575 0.950 . S
C579 C570 1.390 1_556 S
C579 H572 0.950 . S
C579 C576 1.387 . S
C580 C581 1.387 . S
C580 H584 0.950 . S
C580 C589 1.390 . S
C581 C580 1.387 . S
C581 C583 1.387 . S
H582 C589 0.950 . S
C583 C581 1.387 . S
C583 C585 1.390 . S
C583 H587 0.950 . S
H584 C580 0.950 . S
C585 C583 1.390 . S
C585 C586 1.387 . S
C585 H588 0.950 . S
C586 C585 1.387 . S
C586 C589 1.387 . S
H587 C583 0.950 . S
H588 C585 0.950 . S
C589 C580 1.390 . S
C589 H582 0.950 . S
C589 C586 1.387 . S
C590 C591 1.387 . S
C590 H594 0.950 . S
C590 C599 1.390 . S
C591 C590 1.387 . S
C591 C593 1.387 . S
H592 C599 0.950 . S
C593 C591 1.387 . S
C593 C595 1.390 . S
C593 H597 0.950 . S
H594 C590 0.950 . S
C595 C593 1.390 . S
C595 C596 1.387 . S
C595 H598 0.950 . S
C596 C595 1.387 . S
C596 C599 1.387 . S
H597 C593 0.950 . S
H598 C595 0.950 . S
C599 C590 1.390 . S
C599 H592 0.950 . S
C599 C596 1.387 . S
C600 C601 1.387 . S
C600 H604 0.950 . S
C600 C609 1.390 1_566 S
C601 C600 1.387 . S
C601 C603 1.387 . S
H602 C609 0.950 . S
C603 C601 1.387 . S
C603 C605 1.390 1_566 S
C603 H607 0.950 . S
H604 C600 0.950 . S
C605 C603 1.390 1_544 S
C605 C606 1.387 . S
C605 H608 0.950 . S
C606 C605 1.387 . S
C606 C609 1.387 . S
H607 C603 0.950 . S
H608 C605 0.950 . S
C609 C600 1.390 1_544 S
C609 H602 0.950 . S
C609 C606 1.387 . S
C610 C611 1.387 . S
C610 H614 0.950 . S
C610 C619 1.390 . S
C611 C610 1.387 . S
C611 C613 1.387 . S
H612 C619 0.950 . S
C613 C611 1.387 . S
C613 C615 1.390 . S
C613 H617 0.950 . S
H614 C610 0.950 . S
C615 C613 1.390 . S
C615 C616 1.387 . S
C615 H618 0.950 . S
C616 C615 1.387 . S
C616 C619 1.387 . S
H617 C613 0.950 . S
H618 C615 0.950 . S
C619 C610 1.390 . S
C619 H612 0.950 . S
C619 C616 1.387 . S
C620 C621 1.387 . S
C620 H624 0.950 . S
C620 C629 1.390 . S
C621 C620 1.387 . S
C621 C623 1.387 1_455 S
H622 C629 0.950 . S
C623 C621 1.387 1_655 S
C623 C625 1.390 . S
C623 H627 0.950 . S
H624 C620 0.950 . S
C625 C623 1.390 . S
C625 C626 1.387 . S
C625 H628 0.950 . S
C626 C625 1.387 . S
C626 C629 1.387 1_655 S
H627 C623 0.950 . S
H628 C625 0.950 . S
C629 C620 1.390 . S
C629 H622 0.950 . S
C629 C626 1.387 1_455 S
C630 C631 1.387 . S
C630 H634 0.950 . S
C630 C639 1.390 1_564 S
C631 C630 1.387 . S
C631 C633 1.387 . S
H632 C639 0.950 . S
C633 C631 1.387 . S
C633 C635 1.390 1_564 S
C633 H637 0.950 . S
H634 C630 0.950 . S
C635 C633 1.390 1_546 S
C635 C636 1.387 . S
C635 H638 0.950 . S
C636 C635 1.387 . S
C636 C639 1.387 . S
H637 C633 0.950 . S
H638 C635 0.950 . S
C639 C630 1.390 1_546 S
C639 H632 0.950 . S
C639 C636 1.387 . S
C640 C641 1.387 . S
C640 H644 0.950 . S
C640 C649 1.390 . S
C641 C640 1.387 . S
C641 C643 1.387 . S
H642 C649 0.950 . S
C643 C641 1.387 . S
C643 C645 1.390 . S
C643 H647 0.950 . S
H644 C640 0.950 . S
C645 C643 1.390 . S
C645 C646 1.387 . S
C645 H648 0.950 . S
C646 C645 1.387 . S
C646 C649 1.387 . S
H647 C643 0.950 . S
H648 C645 0.950 . S
C649 C640 1.390 . S
C649 H642 0.950 . S
C649 C646 1.387 . S
C650 C651 1.387 . S
C650 H654 0.950 . S
C650 C659 1.390 . S
C651 C650 1.387 . S
C651 C653 1.387 1_455 S
H652 C659 0.950 . S
C653 C651 1.387 1_655 S
C653 C655 1.390 . S
C653 H657 0.950 . S
H654 C650 0.950 . S
C655 C653 1.390 . S
C655 C656 1.387 . S
C655 H658 0.950 . S
C656 C655 1.387 . S
C656 C659 1.387 1_655 S
H657 C653 0.950 . S
H658 C655 0.950 . S
C659 C650 1.390 . S
C659 H652 0.950 . S
C659 C656 1.387 1_455 S
C660 C661 1.387 . S
C660 H664 0.950 . S
C660 C669 1.390 1_545 S
C661 C660 1.387 . S
C661 C663 1.387 . S
H662 C669 0.950 . S
C663 C661 1.387 . S
C663 C665 1.390 1_545 S
C663 H667 0.950 . S
H664 C660 0.950 . S
C665 C663 1.390 1_565 S
C665 C666 1.387 . S
C665 H668 0.950 . S
C666 C665 1.387 . S
C666 C669 1.387 . S
H667 C663 0.950 . S
H668 C665 0.950 . S
C669 C660 1.390 1_565 S
C669 H662 0.950 . S
C669 C666 1.387 . S
C670 C671 1.387 . S
C670 H674 0.950 . S
C670 C679 1.390 . S
C671 C670 1.387 . S
C671 C673 1.387 . S
H672 C679 0.950 . S
C673 C671 1.387 . S
C673 C675 1.390 . S
C673 H677 0.950 . S
H674 C670 0.950 . S
C675 C673 1.390 . S
C675 C676 1.387 . S
C675 H678 0.950 . S
C676 C675 1.387 . S
C676 C679 1.387 . S
H677 C673 0.950 . S
H678 C675 0.950 . S
C679 C670 1.390 . S
C679 H672 0.950 . S
C679 C676 1.387 . S
C680 C681 1.387 . S
C680 H684 0.950 . S
C680 C689 1.390 1_655 S
C681 C680 1.387 . S
C681 C683 1.387 . S
H682 C689 0.950 . S
C683 C681 1.387 . S
C683 C685 1.390 1_655 S
C683 H687 0.950 . S
H684 C680 0.950 . S
C685 C683 1.390 1_455 S
C685 C686 1.387 . S
C685 H688 0.950 . S
C686 C685 1.387 . S
C686 C689 1.387 . S
H687 C683 0.950 . S
H688 C685 0.950 . S
C689 C680 1.390 1_455 S
C689 H682 0.950 . S
C689 C686 1.387 . S
C690 C691 1.387 . S
C690 H694 0.950 . S
C690 C699 1.390 1_455 S
C691 C690 1.387 . S
C691 C693 1.387 . S
H692 C699 0.950 . S
C693 C691 1.387 . S
C693 C695 1.390 1_455 S
C693 H697 0.950 . S
H694 C690 0.950 . S
C695 C693 1.390 1_655 S
C695 C696 1.387 . S
C695 H698 0.950 . S
C696 C695 1.387 . S
C696 C699 1.387 . S
H697 C693 0.950 . S
H698 C695 0.950 . S
C699 C690 1.390 1_655 S
C699 H692 0.950 . S
C699 C696 1.387 . S
C700 C701 1.387 . S
C700 H704 0.950 . S
C700 C709 1.390 1_565 S
C701 C700 1.387 . S
C701 C703 1.387 . S
H702 C709 0.950 . S
C703 C701 1.387 . S
C703 C705 1.390 1_565 S
C703 H707 0.950 . S
H704 C700 0.950 . S
C705 C703 1.390 1_545 S
C705 C706 1.387 . S
C705 H708 0.950 . S
C706 C705 1.387 . S
C706 C709 1.387 . S
H707 C703 0.950 . S
H708 C705 0.950 . S
C709 C700 1.390 1_545 S
C709 H702 0.950 . S
C709 C706 1.387 . S
C710 C711 1.387 . S
C710 H714 0.950 . S
C710 C719 1.390 . S
C711 C710 1.387 . S
C711 C713 1.387 . S
H712 C719 0.950 . S
C713 C711 1.387 . S
C713 C715 1.390 . S
C713 H717 0.950 . S
H714 C710 0.950 . S
C715 C713 1.390 . S
C715 C716 1.387 . S
C715 H718 0.950 . S
C716 C715 1.387 . S
C716 C719 1.387 . S
H717 C713 0.950 . S
H718 C715 0.950 . S
C719 C710 1.390 . S
C719 H712 0.950 . S
C719 C716 1.387 . S
C720 C721 1.387 . S
C720 H724 0.950 . S
C720 C729 1.390 1_565 S
C721 C720 1.387 . S
C721 C723 1.387 . S
H722 C729 0.950 . S
C723 C721 1.387 . S
C723 C725 1.390 1_565 S
C723 H727 0.950 . S
H724 C720 0.950 . S
C725 C723 1.390 1_545 S
C725 C726 1.387 . S
C725 H728 0.950 . S
C726 C725 1.387 . S
C726 C729 1.387 . S
H727 C723 0.950 . S
H728 C725 0.950 . S
C729 C720 1.390 1_545 S
C729 H722 0.950 . S
C729 C726 1.387 . S
C730 C731 1.387 . S
C730 H734 0.950 . S
C730 C739 1.390 . S
C731 C730 1.387 . S
C731 C733 1.387 . S
H732 C739 0.950 . S
C733 C731 1.387 . S
C733 C735 1.390 . S
C733 H737 0.950 . S
H734 C730 0.950 . S
C735 C733 1.390 . S
C735 C736 1.387 . S
C735 H738 0.950 . S
C736 C735 1.387 . S
C736 C739 1.387 . S
H737 C733 0.950 . S
H738 C735 0.950 . S
C739 C730 1.390 . S
C739 H732 0.950 . S
C739 C736 1.387 . S
C740 C741 1.387 . S
C740 H744 0.950 . S
C740 C749 1.390 1_655 S
C741 C740 1.387 . S
C741 C743 1.387 . S
H742 C749 0.950 . S
C743 C741 1.387 . S
C743 C745 1.390 1_655 S
C743 H747 0.950 . S
H744 C740 0.950 . S
C745 C743 1.390 1_455 S
C745 C746 1.387 . S
C745 H748 0.950 . S
C746 C745 1.387 . S
C746 C749 1.387 . S
H747 C743 0.950 . S
H748 C745 0.950 . S
C749 C740 1.390 1_455 S
C749 H742 0.950 . S
C749 C746 1.387 . S
C750 C751 1.387 . S
C750 H754 0.950 . S
C750 C759 1.390 1_545 S
C751 C750 1.387 . S
C751 C753 1.387 . S
H752 C759 0.950 . S
C753 C751 1.387 . S
C753 C755 1.390 1_545 S
C753 H757 0.950 . S
H754 C750 0.950 . S
C755 C753 1.390 1_565 S
C755 C756 1.387 . S
C755 H758 0.950 . S
C756 C755 1.387 . S
C756 C759 1.387 . S
H757 C753 0.950 . S
H758 C755 0.950 . S
C759 C750 1.390 1_565 S
C759 H752 0.950 . S
C759 C756 1.387 . S
C760 C761 1.387 . S
C760 H764 0.950 . S
C760 C769 1.390 . S
C761 C760 1.387 . S
C761 C763 1.387 . S
H762 C769 0.950 . S
C763 C761 1.387 . S
C763 C765 1.390 . S
C763 H767 0.950 . S
H764 C760 0.950 . S
C765 C763 1.390 . S
C765 C766 1.387 . S
C765 H768 0.950 . S
C766 C765 1.387 . S
C766 C769 1.387 . S
H767 C763 0.950 . S
H768 C765 0.950 . S
C769 C760 1.390 . S
C769 H762 0.950 . S
C769 C766 1.387 . S
C770 C771 1.387 . S
C770 H774 0.950 . S
C770 C779 1.390 1_455 S
C771 C770 1.387 . S
C771 C773 1.387 . S
H772 C779 0.950 . S
C773 C771 1.387 . S
C773 C775 1.390 1_455 S
C773 H777 0.950 . S
H774 C770 0.950 . S
C775 C773 1.390 1_655 S
C775 C776 1.387 . S
C775 H778 0.950 . S
C776 C775 1.387 . S
C776 C779 1.387 . S
H777 C773 0.950 . S
H778 C775 0.950 . S
C779 C770 1.390 1_655 S
C779 H772 0.950 . S
C779 C776 1.387 . S
C780 C781 1.387 . S
C780 H784 0.950 . S
C780 C789 1.390 . S
C781 C780 1.387 . S
C781 C783 1.387 . S
H782 C789 0.950 . S
C783 C781 1.387 . S
C783 C785 1.390 . S
C783 H787 0.950 . S
H784 C780 0.950 . S
C785 C783 1.390 . S
C785 C786 1.387 . S
C785 H788 0.950 . S
C786 C785 1.387 . S
C786 C789 1.387 . S
H787 C783 0.950 . S
H788 C785 0.950 . S
C789 C780 1.390 . S
C789 H782 0.950 . S
C789 C786 1.387 . S
C790 C791 1.387 . S
C790 H794 0.950 . S
C790 C799 1.390 . S
C791 C790 1.387 . S
C791 C793 1.387 . S
H792 C799 0.950 . S
C793 C791 1.387 . S
C793 C795 1.390 . S
C793 H797 0.950 . S
H794 C790 0.950 . S
C795 C793 1.390 . S
C795 C796 1.387 . S
C795 H798 0.950 . S
C796 C795 1.387 . S
C796 C799 1.387 . S
H797 C793 0.950 . S
H798 C795 0.950 . S
C799 C790 1.390 . S
C799 H792 0.950 . S
C799 C796 1.387 . S
C800 C801 1.387 . S
C800 H804 0.950 . S
C800 C809 1.390 . S
C801 C800 1.387 . S
C801 C803 1.387 . S
H802 C809 0.950 . S
C803 C801 1.387 . S
C803 C805 1.390 . S
C803 H807 0.950 . S
H804 C800 0.950 . S
C805 C803 1.390 . S
C805 C806 1.387 . S
C805 H808 0.950 . S
C806 C805 1.387 . S
C806 C809 1.387 . S
H807 C803 0.950 . S
H808 C805 0.950 . S
C809 C800 1.390 . S
C809 H802 0.950 . S
C809 C806 1.387 . S
C810 C811 1.387 . S
C810 H814 0.950 . S
C810 C819 1.390 . S
C811 C810 1.387 . S
C811 C813 1.387 . S
H812 C819 0.950 . S
C813 C811 1.387 . S
C813 C815 1.390 . S
C813 H817 0.950 . S
H814 C810 0.950 . S
C815 C813 1.390 . S
C815 C816 1.387 . S
C815 H818 0.950 . S
C816 C815 1.387 . S
C816 C819 1.387 . S
H817 C813 0.950 . S
H818 C815 0.950 . S
C819 C810 1.390 . S
C819 H812 0.950 . S
C819 C816 1.387 . S
C820 C821 1.387 . S
C820 H824 0.950 . S
C820 C829 1.390 . S
C821 C820 1.387 . S
C821 C823 1.387 . S
H822 C829 0.950 . S
C823 C821 1.387 . S
C823 C825 1.390 . S
C823 H827 0.950 . S
H824 C820 0.950 . S
C825 C823 1.390 . S
C825 C826 1.387 . S
C825 H828 0.950 . S
C826 C825 1.387 . S
C826 C829 1.387 . S
H827 C823 0.950 . S
H828 C825 0.950 . S
C829 C820 1.390 . S
C829 H822 0.950 . S
C829 C826 1.387 . S
C830 C831 1.387 . S
C830 H834 0.950 . S
C830 C839 1.390 . S
C831 C830 1.387 . S
C831 C833 1.387 . S
H832 C839 0.950 . S
C833 C831 1.387 . S
C833 C835 1.390 . S
C833 H837 0.950 . S
H834 C830 0.950 . S
C835 C833 1.390 . S
C835 C836 1.387 . S
C835 H838 0.950 . S
C836 C835 1.387 . S
C836 C839 1.387 . S
H837 C833 0.950 . S
H838 C835 0.950 . S
C839 C830 1.390 . S
C839 H832 0.950 . S
C839 C836 1.387 . S
C481 C10 1.321 . S
C486 C330 1.321 . S
C491 C50 1.325 . S
C496 C370 1.325 . S
C501 C90 1.324 . S
C506 C410 1.323 . S
C511 C450 1.321 . S
C516 C130 1.323 . S
C521 C170 1.325 . S
C526 C250 1.325 . S
C531 C290 1.325 . S
C536 C210 1.323 . S
C541 C416 1.271 . S
C546 C16 1.271 . S
C551 C456 1.270 . S
C556 C56 1.268 . S
C561 C96 1.268 . S
C566 C256 1.268 . S
C571 C296 1.268 . S
C576 C136 1.268 . S
C581 C336 1.270 . S
C586 C176 1.269 . S
C591 C216 1.270 . S
C596 C376 1.271 . S
C601 C291 4.401 . S
C606 C11 4.401 . S
C611 C331 4.402 . S
C616 C51 4.402 . S
C621 C371 4.402 . S
C626 C91 4.401 . S
C631 C131 4.401 . S
C636 C411 4.401 . S
C641 C171 4.402 . S
C646 C451 4.401 . S
C651 C211 4.401 . S
C656 C251 4.401 . S
C661 C19 1.185 . S
C666 C139 1.185 . S
C671 C59 1.186 . S
C676 C179 1.186 . S
C681 C99 1.190 . S
C686 C219 1.190 . S
C691 C379 1.189 . S
C696 C259 1.189 . S
C701 C299 1.186 . S
C706 C419 1.186 . S
C711 C459 1.190 . S
C716 C339 1.190 . S
C721 C287 0.781 . S
C726 C7 0.781 . S
C731 C327 0.782 . S
C736 C47 0.784 . S
C741 C87 0.789 . S
C746 C367 0.786 . S
C751 C407 0.792 . S
C756 C127 0.792 . S
C761 C447 0.784 . S
C766 C167 0.787 . S
C771 C207 0.785 . S
C776 C247 0.788 . S
C781 C2 4.814 . S
C786 C402 4.814 . S
C791 C42 4.814 . S
C796 C442 4.814 1_556 S
C801 C82 4.814 1_554 S
C806 C242 4.814 . S
C811 C122 4.814 . S
C816 C282 4.814 . S
C821 C162 4.814 . S
C826 C322 4.814 1_556 S
C831 C362 4.814 . S
C836 C202 4.814 1_554 S
