# Generated by pormake.
# Topology ske, (6)-cn, num edge types: 1
# Building blocks:
#     Node 0, Type 0, BuildingBlock: MIDCAF_clean_sbu_0, # of connection points: 6
#     Node 1, Type 0, BuildingBlock: MIDCAF_clean_sbu_0, # of connection points: 6
#     Node 2, Type 0, BuildingBlock: MIDCAF_clean_sbu_0, # of connection points: 6
#     Node 3, Type 0, BuildingBlock: MIDCAF_clean_sbu_0, # of connection points: 6
#     Node 4, Type 0, BuildingBlock: MIDCAF_clean_sbu_0, # of connection points: 6
#     Node 5, Type 0, BuildingBlock: MIDCAF_clean_sbu_0, # of connection points: 6
#     Node 6, Type 0, BuildingBlock: MIDCAF_clean_sbu_0, # of connection points: 6
#     Node 7, Type 0, BuildingBlock: MIDCAF_clean_sbu_0, # of connection points: 6
#     Edge 8, Type (0, 0), BuildingBlock: MIFKUJ_clean_linker_0, # of connection points: 2
#     Edge 9, Type (0, 0), BuildingBlock: MIFKUJ_clean_linker_0, # of connection points: 2
#     Edge 10, Type (0, 0), BuildingBlock: MIFKUJ_clean_linker_0, # of connection points: 2
#     Edge 11, Type (0, 0), BuildingBlock: MIFKUJ_clean_linker_0, # of connection points: 2
#     Edge 12, Type (0, 0), BuildingBlock: MIFKUJ_clean_linker_0, # of connection points: 2
#     Edge 13, Type (0, 0), BuildingBlock: MIFKUJ_clean_linker_0, # of connection points: 2
#     Edge 14, Type (0, 0), BuildingBlock: MIFKUJ_clean_linker_0, # of connection points: 2
#     Edge 15, Type (0, 0), BuildingBlock: MIFKUJ_clean_linker_0, # of connection points: 2
#     Edge 16, Type (0, 0), BuildingBlock: MIFKUJ_clean_linker_0, # of connection points: 2
#     Edge 17, Type (0, 0), BuildingBlock: MIFKUJ_clean_linker_0, # of connection points: 2
#     Edge 18, Type (0, 0), BuildingBlock: MIFKUJ_clean_linker_0, # of connection points: 2
#     Edge 19, Type (0, 0), BuildingBlock: MIFKUJ_clean_linker_0, # of connection points: 2
#     Edge 20, Type (0, 0), BuildingBlock: MIFKUJ_clean_linker_0, # of connection points: 2
#     Edge 21, Type (0, 0), BuildingBlock: MIFKUJ_clean_linker_0, # of connection points: 2
#     Edge 22, Type (0, 0), BuildingBlock: MIFKUJ_clean_linker_0, # of connection points: 2
#     Edge 23, Type (0, 0), BuildingBlock: MIFKUJ_clean_linker_0, # of connection points: 2
#     Edge 24, Type (0, 0), BuildingBlock: MIFKUJ_clean_linker_0, # of connection points: 2
#     Edge 25, Type (0, 0), BuildingBlock: MIFKUJ_clean_linker_0, # of connection points: 2
#     Edge 26, Type (0, 0), BuildingBlock: MIFKUJ_clean_linker_0, # of connection points: 2
#     Edge 27, Type (0, 0), BuildingBlock: MIFKUJ_clean_linker_0, # of connection points: 2
#     Edge 28, Type (0, 0), BuildingBlock: MIFKUJ_clean_linker_0, # of connection points: 2
#     Edge 29, Type (0, 0), BuildingBlock: MIFKUJ_clean_linker_0, # of connection points: 2
#     Edge 30, Type (0, 0), BuildingBlock: MIFKUJ_clean_linker_0, # of connection points: 2
#     Edge 31, Type (0, 0), BuildingBlock: MIFKUJ_clean_linker_0, # of connection points: 2
# Relax obj value: 0.101
# Max RMSD: 0.160
# Mean RMSD: 0.160
data_MOF--net-ske--node1-MIDCAF_clean_sbu_0--edge1-MIFKUJ_clean_linker_0
_symmetry_space_group_name_H-M    P1
_symmetry_Int_Tables_number       1
_symmetry_cell_setting            triclinic
loop_
_symmetry_equiv_pos_as_xyz
'x, y, z'
_cell_length_a     77.719979
_cell_length_b     38.895829
_cell_length_c     19.532764
_cell_angle_alpha  89.919312
_cell_angle_beta   90.026715
_cell_angle_gamma 89.951722
loop_
_atom_site_label
_atom_site_type_symbol
_atom_site_fract_x
_atom_site_fract_y
_atom_site_fract_z
_atom_type_partial_charge
Zn0 Zn 0.15555 0.21882 0.53704 0.0
Zn1 Zn 0.10943 0.29943 0.63387 0.0
Zn2 Zn 0.13215 0.26022 0.57987 0.0
C3 C 0.09093 0.24621 0.57855 0.0
C4 C 0.12598 0.33862 0.53334 0.0
O5 O 0.15306 0.2555 0.65851 0.0
O6 O 0.17271 0.22247 0.60998 0.0
C7 C 0.12555 0.1796 0.54458 0.0
O8 O 0.10628 0.23567 0.5643 0.0
O9 O 0.08869 0.27374 0.61125 0.0
O10 O 0.11437 0.3405 0.57831 0.0
O11 O 0.13385 0.30988 0.52297 0.0
O12 O 0.14157 0.17678 0.53582 0.0
O13 O 0.11893 0.20949 0.55678 0.0
O14 O 0.1427 0.28404 0.48643 0.0
O15 O 0.16053 0.24355 0.45061 0.0
C16 C 0.15342 0.27242 0.44179 0.0
O17 O 0.13884 0.27097 0.68896 0.0
O18 O 0.11715 0.30166 0.72934 0.0
C19 C 0.16801 0.24102 0.6594 0.0
C20 C 0.13143 0.28702 0.73869 0.0
Zn21 Zn 0.85421 0.28792 0.52288 0.0
Zn22 Zn 0.89768 0.22421 0.65392 0.0
Zn23 Zn 0.87632 0.2513 0.58557 0.0
C24 C 0.91714 0.26236 0.57181 0.0
C25 C 0.88132 0.17185 0.58292 0.0
O26 O 0.85439 0.26143 0.65686 0.0
O27 O 0.83684 0.29372 0.59494 0.0
C28 C 0.88374 0.32686 0.51644 0.0
O29 O 0.90209 0.27599 0.56471 0.0
O30 O 0.9189 0.23542 0.60678 0.0
O31 O 0.88947 0.17696 0.63787 0.0
O32 O 0.87626 0.19776 0.54697 0.0
O33 O 0.86823 0.32809 0.49751 0.0
O34 O 0.88938 0.30012 0.54903 0.0
O35 O 0.86796 0.21892 0.49775 0.0
O36 O 0.84917 0.25428 0.45004 0.0
C37 C 0.85716 0.226 0.44961 0.0
O38 O 0.86833 0.24877 0.69671 0.0
O39 O 0.8938 0.24389 0.74534 0.0
C40 C 0.84011 0.27803 0.64992 0.0
C41 C 0.8778 0.24827 0.75111 0.0
Zn42 Zn 0.10805 0.71192 0.40542 0.0
Zn43 Zn 0.15143 0.80271 0.48294 0.0
Zn44 Zn 0.1295 0.75762 0.43991 0.0
C45 C 0.14926 0.75472 0.58639 0.0
C46 C 0.12107 0.83915 0.45994 0.0
O47 O 0.13707 0.74008 0.3354 0.0
O48 O 0.11448 0.70842 0.30801 0.0
C49 C 0.12574 0.68145 0.50894 0.0
O50 O 0.13944 0.74091 0.54084 0.0
O51 O 0.15622 0.78348 0.57512 0.0
O52 O 0.13679 0.84369 0.47328 0.0
O53 O 0.11527 0.80841 0.44972 0.0
O54 O 0.11446 0.67367 0.46532 0.0
O55 O 0.13212 0.71208 0.50991 0.0
O56 O 0.10311 0.78194 0.44013 0.0
O57 O 0.08683 0.73572 0.42724 0.0
C58 C 0.08815 0.7675 0.43788 0.0
O59 O 0.15091 0.75955 0.36326 0.0
O60 O 0.16901 0.79585 0.41265 0.0
C61 C 0.12863 0.72193 0.2914 0.0
C62 C 0.1655 0.77543 0.36463 0.0
Zn63 Zn 0.88933 0.79299 0.37563 0.0
Zn64 Zn 0.85645 0.69854 0.46993 0.0
Zn65 Zn 0.87156 0.74562 0.42535 0.0
C66 C 0.86048 0.73986 0.57954 0.0
C67 C 0.88375 0.6661 0.4243 0.0
O68 O 0.85987 0.759 0.32438 0.0
O69 O 0.87631 0.80247 0.29203 0.0
C70 C 0.87682 0.82069 0.49379 0.0
O71 O 0.86318 0.76068 0.52929 0.0
O72 O 0.86015 0.70792 0.56825 0.0
O73 O 0.86801 0.65872 0.42829 0.0
O74 O 0.88849 0.69784 0.42999 0.0
O75 O 0.88754 0.82776 0.44757 0.0
O76 O 0.8695 0.79093 0.49522 0.0
O77 O 0.89897 0.7269 0.41554 0.0
O78 O 0.9116 0.77087 0.3643 0.0
C79 C 0.91253 0.74118 0.38983 0.0
O80 O 0.84748 0.74011 0.36182 0.0
O81 O 0.83329 0.71026 0.439 0.0
C82 C 0.86385 0.78258 0.28055 0.0
C83 C 0.83315 0.7282 0.38532 0.0
Zn84 Zn 0.60591 0.79855 0.11041 0.0
Zn85 Zn 0.64807 0.7127 0.00803 0.0
Zn86 Zn 0.62732 0.75724 0.05829 0.0
C87 C 0.64903 0.76974 0.92009 0.0
C88 C 0.61682 0.67974 0.00528 0.0
O89 O 0.636 0.76758 0.16593 0.0
O90 O 0.61643 0.80475 0.2009 0.0
C91 C 0.62103 0.83592 0.00805 0.0
O92 O 0.63787 0.7812 0.96332 0.0
O93 O 0.65584 0.74065 0.9296 0.0
O94 O 0.63222 0.67481 0.98763 0.0
O95 O 0.61237 0.70872 0.03255 0.0
O96 O 0.60836 0.83798 0.04811 0.0
O97 O 0.62952 0.80748 0.00324 0.0
O98 O 0.60059 0.73443 0.05252 0.0
O99 O 0.58455 0.77268 0.10667 0.0
C100 C 0.58579 0.74466 0.07486 0.0
O101 O 0.6486 0.74739 0.13275 0.0
O102 O 0.66435 0.70679 0.08428 0.0
C103 C 0.62988 0.78759 0.21266 0.0
C104 C 0.66181 0.72726 0.1332 0.0
Zn105 Zn 0.35198 0.78993 0.99802 0.0
Zn106 Zn 0.39457 0.72581 0.14655 0.0
Zn107 Zn 0.37335 0.75447 0.06648 0.0
C108 C 0.41415 0.77419 0.0854 0.0
C109 C 0.38361 0.67612 0.04998 0.0
O110 O 0.34942 0.76287 0.12918 0.0
O111 O 0.33205 0.79084 0.0588 0.0
C112 C 0.38008 0.83291 0.01423 0.0
O113 O 0.39922 0.78087 0.05922 0.0
O114 O 0.41579 0.75042 0.1287 0.0
O115 O 0.39234 0.67986 0.10401 0.0
O116 O 0.37581 0.70214 0.02331 0.0
O117 O 0.36486 0.83313 0.99178 0.0
O118 O 0.38636 0.80498 0.04012 0.0
O119 O 0.36717 0.72293 0.97475 0.0
O120 O 0.35041 0.75923 0.91834 0.0
C121 C 0.358 0.7306 0.92191 0.0
O122 O 0.36204 0.74917 0.17205 0.0
O123 O 0.38391 0.73205 0.23621 0.0
C124 C 0.33465 0.77663 0.11586 0.0
C125 C 0.36844 0.74126 0.23104 0.0
Zn126 Zn 0.61378 0.21453 0.87532 0.0
Zn127 Zn 0.64849 0.31184 0.97105 0.0
Zn128 Zn 0.63181 0.26116 0.92747 0.0
C129 C 0.6482 0.26266 0.07675 0.0
C130 C 0.61733 0.34018 0.94824 0.0
O131 O 0.64299 0.24795 0.82465 0.0
O132 O 0.62696 0.20405 0.7922 0.0
C133 C 0.62661 0.18533 0.99253 0.0
O134 O 0.64136 0.244 0.02953 0.0
O135 O 0.6517 0.29375 0.06446 0.0
O136 O 0.63246 0.35007 0.95991 0.0
O137 O 0.61419 0.30787 0.9384 0.0
O138 O 0.61519 0.17985 0.94809 0.0
O139 O 0.63449 0.21454 0.99409 0.0
O140 O 0.60419 0.27902 0.92019 0.0
O141 O 0.59162 0.23701 0.86275 0.0
C142 C 0.59067 0.26573 0.89215 0.0
O143 O 0.65443 0.27019 0.85811 0.0
O144 O 0.66858 0.31153 0.91106 0.0
C145 C 0.63933 0.22418 0.78084 0.0
C146 C 0.6677 0.29 0.86306 0.0
Zn147 Zn 0.39354 0.29927 0.8446 0.0
Zn148 Zn 0.3538 0.20194 0.91338 0.0
Zn149 Zn 0.37352 0.25119 0.89002 0.0
C150 C 0.35567 0.24408 0.03102 0.0
C151 C 0.38414 0.16991 0.89199 0.0
O152 O 0.36532 0.26668 0.78636 0.0
O153 O 0.3832 0.30796 0.75419 0.0
C154 C 0.37861 0.32477 0.96374 0.0
O155 O 0.36302 0.26485 0.98901 0.0
O156 O 0.35188 0.21393 0.0123 0.0
O157 O 0.36834 0.16293 0.8878 0.0
O158 O 0.38894 0.20155 0.89903 0.0
O159 O 0.38925 0.33275 0.9177 0.0
O160 O 0.37138 0.29492 0.96366 0.0
O161 O 0.40024 0.22981 0.88818 0.0
O162 O 0.41522 0.2737 0.84738 0.0
C163 C 0.4147 0.24337 0.87007 0.0
O164 O 0.35071 0.2518 0.8183 0.0
O165 O 0.33347 0.21122 0.8572 0.0
C166 C 0.37067 0.28844 0.74128 0.0
C167 C 0.33604 0.23618 0.8174 0.0
H168 H 0.1909 0.19806 0.71864 0.0
H169 H 0.21903 0.21481 0.76225 0.0
H170 H 0.20423 0.32147 0.75219 0.0
H171 H 0.17577 0.30468 0.70901 0.0
H172 H 0.23307 0.28697 0.65652 0.0
H173 H 0.24002 0.32662 0.92377 0.0
H174 H 0.22586 0.32312 0.03669 0.0
H175 H 0.21052 0.21925 0.99471 0.0
H176 H 0.22503 0.22185 0.88264 0.0
H177 H 0.32597 0.30327 0.80882 0.0
H178 H 0.29627 0.3229 0.78885 0.0
H179 H 0.28189 0.22024 0.72932 0.0
H180 H 0.31126 0.20044 0.75081 0.0
H181 H 0.26721 0.2756 0.86982 0.0
H182 H 0.25376 0.25326 0.57844 0.0
H183 H 0.2657 0.26897 0.46568 0.0
H184 H 0.2932 0.35297 0.55682 0.0
H185 H 0.28125 0.33805 0.66994 0.0
C186 C 0.19327 0.22495 0.72955 0.0
C187 C 0.18119 0.25006 0.7106 0.0
C188 C 0.20936 0.23453 0.75468 0.0
C189 C 0.21363 0.26935 0.76181 0.0
C190 C 0.20102 0.29444 0.74894 0.0
C191 C 0.18476 0.2848 0.72439 0.0
C192 C 0.23208 0.27863 0.7653 0.0
C193 C 0.24058 0.28477 0.70318 0.0
C194 C 0.2417 0.27723 0.82651 0.0
C195 C 0.23325 0.27473 0.8942 0.0
C196 C 0.23367 0.30301 0.93881 0.0
C197 C 0.22566 0.30113 0.00281 0.0
C198 C 0.21721 0.27104 0.02273 0.0
C199 C 0.21694 0.24264 0.979 0.0
C200 C 0.22504 0.24433 0.91514 0.0
C201 C 0.31665 0.28531 0.78835 0.0
C202 C 0.32093 0.25035 0.78098 0.0
C203 C 0.29966 0.29648 0.7777 0.0
C204 C 0.2869 0.273 0.75763 0.0
C205 C 0.29155 0.2388 0.74449 0.0
C206 C 0.30838 0.22756 0.75619 0.0
C207 C 0.26834 0.2819 0.76013 0.0
C208 C 0.25976 0.27878 0.82325 0.0
C209 C 0.2586 0.28676 0.69982 0.0
C210 C 0.26677 0.29425 0.63289 0.0
C211 C 0.26238 0.27503 0.57447 0.0
C212 C 0.26908 0.28391 0.5104 0.0
C213 C 0.28013 0.31205 0.50404 0.0
C214 C 0.28461 0.33121 0.56182 0.0
C215 C 0.27796 0.32243 0.62601 0.0
H216 H 0.28532 0.31885 0.45444 0.0
H217 H 0.2109 0.26973 0.07204 0.0
H218 H 0.68056 0.23075 0.80552 0.0
H219 H 0.71008 0.22268 0.7633 0.0
H220 H 0.71948 0.33138 0.78658 0.0
H221 H 0.69012 0.33959 0.826 0.0
H222 H 0.73629 0.30903 0.68112 0.0
H223 H 0.72855 0.2704 0.91614 0.0
H224 H 0.71545 0.23388 0.00538 0.0
H225 H 0.73394 0.14341 0.90325 0.0
H226 H 0.74697 0.17943 0.81293 0.0
H227 H 0.82295 0.32934 0.71377 0.0
H228 H 0.79324 0.32568 0.75416 0.0
H229 H 0.79429 0.21565 0.72691 0.0
H230 H 0.82438 0.21923 0.68976 0.0
H231 H 0.77193 0.23197 0.82612 0.0
H232 H 0.7815 0.26776 0.59615 0.0
H233 H 0.7943 0.30219 0.50313 0.0
H234 H 0.77152 0.3937 0.58615 0.0
H235 H 0.75883 0.35988 0.68036 0.0
C236 C 0.68874 0.25303 0.79891 0.0
C237 C 0.6831 0.28577 0.81949 0.0
C238 C 0.70569 0.24834 0.77588 0.0
C239 C 0.71719 0.27629 0.77385 0.0
C240 C 0.71098 0.30934 0.78833 0.0
C241 C 0.69414 0.31402 0.81085 0.0
C242 C 0.73598 0.27155 0.76218 0.0
C243 C 0.74405 0.29211 0.71276 0.0
C244 C 0.74615 0.2491 0.80273 0.0
C245 C 0.73857 0.22755 0.85752 0.0
C246 C 0.72974 0.24271 0.9126 0.0
C247 C 0.72234 0.22211 0.96335 0.0
C248 C 0.72382 0.18635 0.95989 0.0
C249 C 0.73277 0.17111 0.9058 0.0
C250 C 0.74018 0.1916 0.85484 0.0
C251 C 0.81712 0.30423 0.72003 0.0
C252 C 0.82591 0.27456 0.69915 0.0
C253 C 0.80005 0.30216 0.74203 0.0
C254 C 0.79132 0.27053 0.74102 0.0
C255 C 0.80068 0.24038 0.72743 0.0
C256 C 0.81793 0.2424 0.70683 0.0
C257 C 0.77219 0.26973 0.74537 0.0
C258 C 0.76412 0.24834 0.79354 0.0
C259 C 0.76189 0.2909 0.70262 0.0
C260 C 0.76934 0.31132 0.64565 0.0
C261 C 0.77931 0.29526 0.5948 0.0
C262 C 0.78654 0.31466 0.54185 0.0
C263 C 0.78375 0.35012 0.5388 0.0
C264 C 0.77369 0.36624 0.58862 0.0
C265 C 0.76646 0.34696 0.64179 0.0
H266 H 0.78936 0.36511 0.49778 0.0
H267 H 0.71807 0.17044 -0.00082 0.0
H268 H 0.31155 0.82623 0.14407 0.0
H269 H 0.2831 0.81863 0.19394 0.0
H270 H 0.29501 0.71259 0.23884 0.0
H271 H 0.32375 0.72025 0.18788 0.0
H272 H 0.26459 0.71877 0.16945 0.0
H273 H 0.28848 0.76707 0.36905 0.0
H274 H 0.30558 0.80701 0.43936 0.0
H275 H 0.27302 0.89079 0.37787 0.0
H276 H 0.25586 0.85145 0.30632 0.0
H277 H 0.18253 0.71493 0.35373 0.0
H278 H 0.21196 0.70806 0.31033 0.0
H279 H 0.21084 0.81217 0.23419 0.0
H280 H 0.18145 0.81896 0.27743 0.0
H281 H 0.23663 0.79906 0.33212 0.0
H282 H 0.21464 0.74774 0.12266 0.0
H283 H 0.19801 0.70507 0.05658 0.0
H284 H 0.22712 0.62322 0.14798 0.0
H285 H 0.24394 0.66532 0.21454 0.0
C286 C 0.30832 0.8016 0.16668 0.0
C287 C 0.31988 0.77393 0.1629 0.0
C288 C 0.29203 0.79723 0.19505 0.0
C289 C 0.28687 0.76503 0.22021 0.0
C290 C 0.29872 0.73766 0.21976 0.0
C291 C 0.3152 0.74217 0.1917 0.0
C292 C 0.26866 0.76002 0.24131 0.0
C293 C 0.25854 0.73582 0.20617 0.0
C294 C 0.2607 0.78241 0.28873 0.0
C295 C 0.27092 0.80629 0.33195 0.0
C296 C 0.28503 0.79405 0.3701 0.0
C297 C 0.29472 0.81658 0.41026 0.0
C298 C 0.2904 0.85143 0.41301 0.0
C299 C 0.27635 0.86379 0.3757 0.0
C300 C 0.26661 0.84137 0.33541 0.0
C301 C 0.18829 0.73567 0.32459 0.0
C302 C 0.17966 0.76724 0.31753 0.0
C303 C 0.20514 0.73184 0.30034 0.0
C304 C 0.21363 0.75971 0.26954 0.0
C305 C 0.20453 0.79039 0.25797 0.0
C306 C 0.1877 0.79414 0.28194 0.0
C307 C 0.23252 0.75877 0.25841 0.0
C308 C 0.24274 0.7818 0.29593 0.0
C309 C 0.24054 0.7349 0.21422 0.0
C310 C 0.23043 0.70966 0.17407 0.0
C311 C 0.21741 0.72064 0.12904 0.0
C312 C 0.20798 0.69658 0.09139 0.0
C313 C 0.21144 0.6615 0.09841 0.0
C314 C 0.22442 0.6504 0.14271 0.0
C315 C 0.23395 0.67434 0.18022 0.0
H316 H 0.20409 0.64294 0.06932 0.0
H317 H 0.29792 0.86884 0.44412 0.0
H318 H 0.67907 0.67746 0.20229 0.0
H319 H 0.7074 0.6832 0.25545 0.0
H320 H 0.70602 0.79264 0.21767 0.0
H321 H 0.67715 0.78702 0.16952 0.0
H322 H 0.73438 0.69686 0.19688 0.0
H323 H 0.73526 0.83622 0.30779 0.0
H324 H 0.71624 0.8751 0.37287 0.0
H325 H 0.68841 0.78836 0.45175 0.0
H326 H 0.70727 0.749 0.38751 0.0
H327 H 0.82273 0.73467 0.24975 0.0
H328 H 0.79302 0.74214 0.20877 0.0
H329 H 0.77536 0.74725 0.41802 0.0
H330 H 0.80472 0.74145 0.4581 0.0
H331 H 0.75682 0.78777 0.3502 0.0
H332 H 0.77682 0.67341 0.32223 0.0
H333 H 0.79508 0.62621 0.28 0.0
H334 H 0.7788 0.64692 0.07399 0.0
H335 H 0.76056 0.6945 0.11487 0.0
C336 C 0.68455 0.70288 0.20836 0.0
C337 C 0.67593 0.73184 0.18257 0.0
C338 C 0.70085 0.70615 0.23777 0.0
C339 C 0.70909 0.73831 0.24009 0.0
C340 C 0.69998 0.76758 0.21785 0.0
C341 C 0.68342 0.76441 0.19038 0.0
C342 C 0.72767 0.74055 0.25935 0.0
C343 C 0.73923 0.71674 0.23061 0.0
C344 C 0.73413 0.76614 0.30395 0.0
C345 C 0.72259 0.7897 0.34221 0.0
C346 C 0.72508 0.82546 0.33903 0.0
C347 C 0.71431 0.84758 0.37571 0.0
C348 C 0.70107 0.83423 0.41615 0.0
C349 C 0.69857 0.79871 0.42002 0.0
C350 C 0.70928 0.77648 0.38335 0.0
C351 C 0.81257 0.73861 0.2865 0.0
C352 C 0.81608 0.73743 0.35695 0.0
C353 C 0.79554 0.74246 0.26326 0.0
C354 C 0.78183 0.74484 0.31032 0.0
C355 C 0.78558 0.74555 0.38046 0.0
C356 C 0.80243 0.74191 0.40336 0.0
C357 C 0.76345 0.74383 0.28841 0.0
C358 C 0.75194 0.76803 0.31616 0.0
C359 C 0.75688 0.71728 0.24622 0.0
C360 C 0.76776 0.68842 0.22141 0.0
C361 C 0.77734 0.66832 0.26777 0.0
C362 C 0.78763 0.64135 0.24411 0.0
C363 C 0.78824 0.6338 0.17426 0.0
C364 C 0.77844 0.65302 0.12802 0.0
C365 C 0.76815 0.68005 0.15142 0.0
H366 H 0.79621 0.6129 0.15603 0.0
H367 H 0.69282 0.85142 0.44472 0.0
H368 H 0.09064 0.85564 0.5257 0.0
H369 H 0.07861 0.91411 0.53723 0.0
H370 H 0.1168 0.95205 0.39573 0.0
H371 H 0.12837 0.89446 0.38365 0.0
H372 H 0.09353 0.96588 0.5922 0.0
H373 H 0.1077 0.02352 0.319 0.0
H374 H 0.10311 0.00704 0.19862 0.0
H375 H 0.06283 0.93794 0.25924 0.0
H376 H 0.06696 0.95438 0.37992 0.0
H377 H 0.13586 0.11936 0.59707 0.0
H378 H 0.12307 0.06309 0.58357 0.0
H379 H 0.07973 0.10834 0.47862 0.0
H380 H 0.09295 0.16585 0.49142 0.0
H381 H 0.09118 0.05424 0.40901 0.0
H382 H 0.07392 0.06814 0.63597 0.0
H383 H 0.07557 0.08487 0.75745 0.0
H384 H 0.11588 0.01116 0.79059 0.0
H385 H 0.11469 0.99433 0.66911 0.0
C386 C 0.09589 0.87633 0.49498 0.0
C387 C 0.11035 0.87052 0.45339 0.0
C388 C 0.08915 0.90983 0.50205 0.0
C389 C 0.09666 0.93784 0.46702 0.0
C390 C 0.11039 0.93121 0.42221 0.0
C391 C 0.11709 0.8981 0.41545 0.0
C392 C 0.09217 0.97445 0.48341 0.0
C393 C 0.09272 0.9851 0.55208 0.0
C394 C 0.09035 0.99984 0.4316 0.0
C395 C 0.08767 0.99019 0.35876 0.0
C396 C 0.09775 1.00504 0.30671 0.0
C397 C 0.09526 0.99563 0.23837 0.0
C398 C 0.0827 0.97144 0.2213 0.0
C399 C 0.07258 0.95663 0.27254 0.0
C400 C 0.07501 0.96596 0.34095 0.0
C401 C 0.12343 0.11761 0.57213 0.0
C402 C 0.11544 0.14714 0.54525 0.0
C403 C 0.11603 0.08524 0.56489 0.0
C404 C 0.10027 0.08115 0.53084 0.0
C405 C 0.09185 0.11075 0.50556 0.0
C406 C 0.09931 0.14363 0.51331 0.0
C407 C 0.09394 0.04542 0.51719 0.0
C408 C 0.09142 0.03496 0.44914 0.0
C409 C 0.09344 0.02019 0.5697 0.0
C410 C 0.0942 0.02995 0.6432 0.0
C411 C 0.0832 0.05559 0.66904 0.0
C412 C 0.08405 0.06509 0.73795 0.0
C413 C 0.09582 0.04908 0.78171 0.0
C414 C 0.10675 0.02349 0.75666 0.0
C415 C 0.10596 0.0139 0.68777 0.0
H416 H 0.09646 0.05649 0.83504 0.0
H417 H 0.0808 0.96417 0.16836 0.0
H418 H 0.88324 0.3661 0.40243 0.0
H419 H 0.89513 0.4235 0.38797 0.0
H420 H 0.91985 0.41572 0.58519 0.0
H421 H 0.90785 0.3575 0.59972 0.0
H422 H 0.90017 0.47326 0.57531 0.0
H423 H 0.94433 0.42445 0.4426 0.0
H424 H 0.95744 0.38631 0.3565 0.0
H425 H 0.92939 0.43775 0.19698 0.0
H426 H 0.91584 0.47581 0.28217 0.0
H427 H 0.9106 0.65053 0.50986 0.0
H428 H 0.92272 0.5926 0.52617 0.0
H429 H 0.89522 0.55732 0.3478 0.0
H430 H 0.88311 0.61467 0.33208 0.0
H431 H 0.92583 0.52204 0.3639 0.0
H432 H 0.87613 0.55601 0.50262 0.0
H433 H 0.86174 0.59291 0.58784 0.0
H434 H 0.90058 0.56773 0.73617 0.0
H435 H 0.91534 0.53105 0.65133 0.0
C436 C 0.89165 0.37615 0.44187 0.0
C437 C 0.89462 0.35732 0.5022 0.0
C438 C 0.89851 0.40903 0.43347 0.0
C439 C 0.90847 0.42411 0.48533 0.0
C440 C 0.91226 0.40463 0.54432 0.0
C441 C 0.90553 0.37128 0.55238 0.0
C442 C 0.91289 0.46141 0.48025 0.0
C443 C 0.90634 0.48384 0.53014 0.0
C444 C 0.92072 0.47546 0.42093 0.0
C445 C 0.92902 0.453 0.36899 0.0
C446 C 0.94087 0.42755 0.38921 0.0
C447 C 0.94839 0.40592 0.34054 0.0
C448 C 0.94425 0.40961 0.27132 0.0
C449 C 0.9326 0.43496 0.25062 0.0
C450 C 0.92502 0.45662 0.2991 0.0
C451 C 0.90786 0.63078 0.47237 0.0
C452 C 0.89597 0.63703 0.41958 0.0
C453 C 0.91463 0.59757 0.48207 0.0
C454 C 0.90965 0.57034 0.43886 0.0
C455 C 0.89928 0.57773 0.38187 0.0
C456 C 0.89239 0.61061 0.37273 0.0
C457 C 0.91264 0.53359 0.45792 0.0
C458 C 0.92038 0.51134 0.41035 0.0
C459 C 0.90591 0.51958 0.51937 0.0
C460 C 0.89694 0.5412 0.57051 0.0
C461 C 0.88165 0.55853 0.5533 0.0
C462 C 0.87343 0.57938 0.6015 0.0
C463 C 0.88027 0.58275 0.66732 0.0
C464 C 0.89532 0.56517 0.68512 0.0
C465 C 0.90362 0.54436 0.63701 0.0
H466 H 0.87389 0.59891 0.70458 0.0
H467 H 0.95008 0.39282 0.23372 0.0
H468 H 0.89523 0.86181 0.57836 0.0
H469 H 0.88789 0.92146 0.6056 0.0
H470 H 0.83755 0.90718 0.5172 0.0
H471 H 0.8447 0.847 0.49222 0.0
H472 H 0.85825 0.95885 0.45262 0.0
H473 H 0.83749 0.92984 0.67162 0.0
H474 H 0.83639 0.90339 0.78622 0.0
H475 H 0.88183 0.95861 0.84511 0.0
H476 H 0.88344 0.98492 0.73038 0.0
H477 H 0.85378 0.14556 0.50977 0.0
H478 H 0.84581 0.08428 0.50094 0.0
H479 H 0.89242 0.05629 0.60747 0.0
H480 H 0.90029 0.11645 0.61644 0.0
H481 H 0.8643 0.02676 0.66582 0.0
H482 H 0.88813 0.04422 0.43738 0.0
H483 H 0.88891 0.07222 0.32405 0.0
H484 H 0.83725 0.03864 0.28423 0.0
H485 H 0.83609 0.01085 0.39789 0.0
C486 C 0.88228 0.8709 0.56838 0.0
C487 C 0.87044 0.84985 0.53415 0.0
C488 C 0.87813 0.90503 0.58331 0.0
C489 C 0.86223 0.9188 0.56276 0.0
C490 C 0.84987 0.89702 0.53348 0.0
C491 C 0.85388 0.86257 0.52009 0.0
C492 C 0.8598 0.95664 0.56278 0.0
C493 C 0.85909 0.97378 0.49938 0.0
C494 C 0.8611 0.976 0.62363 0.0
C495 C 0.8606 0.95934 0.69212 0.0
C496 C 0.84738 0.93607 0.70866 0.0
C497 C 0.84663 0.92116 0.77374 0.0
C498 C 0.85897 0.92949 0.82299 0.0
C499 C 0.87223 0.95234 0.80697 0.0
C500 C 0.87306 0.96727 0.7419 0.0
C501 C 0.86243 0.12617 0.52985 0.0
C502 C 0.87757 0.13577 0.56431 0.0
C503 C 0.85783 0.09126 0.5253 0.0
C504 C 0.8684 0.06576 0.55474 0.0
C505 C 0.88391 0.07547 0.58559 0.0
C506 C 0.88844 0.10994 0.59024 0.0
C507 C 0.86357 0.0288 0.55563 0.0
C508 C 0.86296 0.01185 0.61922 0.0
C509 C 0.86114 0.00962 0.49501 0.0
C510 C 0.86194 0.02587 0.42642 0.0
C511 C 0.87689 0.04304 0.40466 0.0
C512 C 0.87741 0.05884 0.34036 0.0
C513 C 0.86311 0.05733 0.29707 0.0
C514 C 0.8483 0.03987 0.3179 0.0
C515 C 0.8477 0.02409 0.38224 0.0
H516 H 0.86353 0.0696 0.24733 0.0
H517 H 0.8582 0.91838 0.87369 0.0
H518 H 0.15939 0.66295 0.51444 0.0
H519 H 0.16909 0.60334 0.52855 0.0
H520 H 0.11859 0.57496 0.60022 0.0
H521 H 0.10887 0.63415 0.58516 0.0
H522 H 0.14429 0.53255 0.65416 0.0
H523 H 0.12515 0.57893 0.43351 0.0
H524 H 0.12751 0.62084 0.33903 0.0
H525 H 0.17945 0.58827 0.30124 0.0
H526 H 0.17747 0.54655 0.39642 0.0
H527 H 0.10638 0.39308 0.49731 0.0
H528 H 0.1159 0.45279 0.4958 0.0
H529 H 0.16873 0.41955 0.50712 0.0
H530 H 0.15919 0.3592 0.50949 0.0
H531 H 0.15113 0.49134 0.41512 0.0
H532 H 0.16763 0.43754 0.63444 0.0
H533 H 0.16252 0.39719 0.72993 0.0
H534 H 0.1136 0.44467 0.76894 0.0
H535 H 0.11832 0.48488 0.67286 0.0
C536 C 0.15069 0.64438 0.53707 0.0
C537 C 0.13336 0.65295 0.54828 0.0
C538 C 0.15619 0.61023 0.54439 0.0
C539 C 0.14443 0.58455 0.5637 0.0
C540 C 0.12786 0.59425 0.58475 0.0
C541 C 0.12232 0.62817 0.57655 0.0
C542 C 0.14783 0.54765 0.54909 0.0
C543 C 0.1462 0.52358 0.60215 0.0
C544 C 0.15025 0.5358 0.48107 0.0
C545 C 0.15123 0.55993 0.4224 0.0
C546 C 0.13709 0.58081 0.40516 0.0
C547 C 0.13836 0.60454 0.35156 0.0
C548 C 0.15363 0.60728 0.31425 0.0
C549 C 0.16764 0.58616 0.33028 0.0
C550 C 0.16646 0.56249 0.38405 0.0
C551 C 0.12006 0.39836 0.49639 0.0
C552 C 0.13203 0.3715 0.50392 0.0
C553 C 0.12548 0.43253 0.49594 0.0
C554 C 0.14297 0.44053 0.50266 0.0
C555 C 0.15515 0.41381 0.50227 0.0
C556 C 0.1497 0.37935 0.50281 0.0
C557 C 0.14773 0.47636 0.52033 0.0
C558 C 0.15032 0.50028 0.4676 0.0
C559 C 0.14616 0.48812 0.58861 0.0
C560 C 0.14325 0.46392 0.64609 0.0
C561 C 0.1557 0.43908 0.66289 0.0
C562 C 0.1529 0.4163 0.71719 0.0
C563 C 0.13773 0.41834 0.75538 0.0
C564 C 0.12533 0.4431 0.73925 0.0
C565 C 0.12807 0.46588 0.68491 0.0
H566 H 0.13563 0.40089 0.79771 0.0
H567 H 0.15461 0.62572 0.27286 0.0
H568 H 0.6125 0.64124 0.89203 0.0
H569 H 0.60086 0.58318 0.88671 0.0
H570 H 0.58389 0.59169 0.09624 0.0
H571 H 0.59557 0.65051 0.10131 0.0
H572 H 0.6044 0.53662 0.07845 0.0
H573 H 0.55457 0.57826 0.96719 0.0
H574 H 0.53762 0.61244 0.88497 0.0
H575 H 0.56128 0.55887 0.71758 0.0
H576 H 0.57861 0.52472 0.79869 0.0
H577 H 0.59475 0.35852 0.0484 0.0
H578 H 0.58282 0.41658 0.06231 0.0
H579 H 0.60028 0.44305 0.85942 0.0
H580 H 0.61187 0.38509 0.84546 0.0
H581 H 0.572 0.48021 0.8908 0.0
H582 H 0.62652 0.45188 2e-05 0.0
H583 H 0.64492 0.4188 0.07926 0.0
H584 H 0.61306 0.44918 0.24832 0.0
H585 H 0.59432 0.48205 0.16977 0.0
C586 C 0.60562 0.6313 0.93605 0.0
C587 C 0.60482 0.65048 0.99689 0.0
C588 C 0.59896 0.59798 0.93304 0.0
C589 C 0.59144 0.5828 0.99102 0.0
C590 C 0.58957 0.6028 0.0507 0.0
C591 C 0.59608 0.63654 0.05341 0.0
C592 C 0.58797 0.54495 0.99116 0.0
C593 C 0.59683 0.52437 0.03867 0.0
C594 C 0.57844 0.52869 0.93841 0.0
C595 C 0.56795 0.54897 0.88918 0.0
C596 C 0.55625 0.57389 0.91284 0.0
C597 C 0.54656 0.59325 0.86641 0.0
C598 C 0.54838 0.58784 0.79609 0.0
C599 C 0.55988 0.56301 0.77207 0.0
C600 C 0.56962 0.54359 0.81829 0.0
C601 C 0.59512 0.37615 0.00545 0.0
C602 C 0.60399 0.36718 0.94544 0.0
C603 C 0.58853 0.40955 0.01374 0.0
C604 C 0.59099 0.43461 0.96252 0.0
C605 C 0.59821 0.42439 0.89982 0.0
C606 C 0.60473 0.39108 0.89157 0.0
C607 C 0.58874 0.47214 0.9771 0.0
C608 C 0.57901 0.49257 0.93198 0.0
C609 C 0.59756 0.48842 0.03176 0.0
C610 C 0.60892 0.46902 0.07902 0.0
C611 C 0.62339 0.45132 0.05405 0.0
C612 C 0.63388 0.43263 0.09881 0.0
C613 C 0.63013 0.4318 0.16876 0.0
C614 C 0.61592 0.44977 0.19411 0.0
C615 C 0.60536 0.46842 0.14951 0.0
H616 H 0.63827 0.41732 0.20335 0.0
H617 H 0.54087 0.60287 0.76022 0.0
H618 H 0.36587 0.8942 0.04051 0.0
H619 H 0.37829 0.9509 0.02822 0.0
H620 H 0.42745 0.90565 0.97863 0.0
H621 H 0.41466 0.84775 0.98983 0.0
H622 H 0.40223 0.98742 0.08561 0.0
H623 H 0.44654 0.96208 0.86073 0.0
H624 H 0.45166 0.91895 0.77027 0.0
H625 H 0.39787 0.89374 0.76843 0.0
H626 H 0.39244 0.93694 0.85833 0.0
H627 H 0.41201 0.15856 0.97674 0.0
H628 H 0.42445 0.10173 0.00246 0.0
H629 H 0.39441 0.0574 0.83899 0.0
H630 H 0.38258 0.11361 0.81249 0.0
H631 H 0.4216 0.02017 0.85272 0.0
H632 H 0.37861 0.06823 0.01094 0.0
H633 H 0.36863 0.11121 0.09495 0.0
H634 H 0.41254 0.08996 0.22182 0.0
H635 H 0.42285 0.04711 0.13804 0.0
C636 C 0.3794 0.89612 0.0277 0.0
C637 C 0.38925 0.8664 0.01567 0.0
C638 C 0.38656 0.92874 0.0212 0.0
C639 C 0.40382 0.93289 0.00213 0.0
C640 C 0.41405 0.90322 0.99303 0.0
C641 C 0.40681 0.87013 -5e-05 0.0
C642 C 0.41004 0.96847 0.9868 0.0
C643 C 0.4069 0.99448 0.03516 0.0
C644 C 0.4161 0.97805 0.92111 0.0
C645 C 0.41916 0.95233 0.86672 0.0
C646 C 0.43583 0.94732 0.84089 0.0
C647 C 0.43877 0.92289 0.78975 0.0
C648 C 0.42511 0.90352 0.76382 0.0
C649 C 0.40845 0.90866 0.78873 0.0
C650 C 0.40544 0.93309 0.83977 0.0
C651 C 0.40876 0.13691 0.94443 0.0
C652 C 0.39619 0.14038 0.89311 0.0
C653 C 0.4157 0.10431 0.9596 0.0
C654 C 0.41002 0.07486 0.92399 0.0
C655 C 0.39901 0.07937 0.86771 0.0
C656 C 0.39218 0.11167 0.85256 0.0
C657 C 0.41288 0.03912 0.9504 0.0
C658 C 0.41776 0.01311 0.90425 0.0
C659 C 0.40784 0.02946 0.01748 0.0
C660 C 0.40159 0.05487 0.06803 0.0
C661 C 0.38615 0.07286 0.05668 0.0
C662 C 0.38044 0.09718 0.10418 0.0
C663 C 0.38997 0.10339 0.16358 0.0
C664 C 0.4052 0.08519 0.1757 0.0
C665 C 0.41098 0.06091 0.12823 0.0
H666 H 0.38554 0.12223 0.2003 0.0
H667 H 0.42742 0.8846 0.72431 0.0
H668 H 0.39746 0.36269 0.05233 0.0
H669 H 0.39156 0.42282 0.07973 0.0
H670 H 0.341 0.41345 0.99052 0.0
H671 H 0.34684 0.35292 0.96435 0.0
H672 H 0.35996 0.46155 0.92545 0.0
H673 H 0.34474 0.43795 0.1532 0.0
H674 H 0.3455 0.41519 0.27092 0.0
H675 H 0.39265 0.46928 0.30902 0.0
H676 H 0.39246 0.4917 0.19099 0.0
H677 H 0.35528 0.64835 0.98586 0.0
H678 H 0.34879 0.58657 0.97634 0.0
H679 H 0.39951 0.56231 0.05201 0.0
H680 H 0.40604 0.62336 0.06119 0.0
H681 H 0.37302 0.53274 0.12911 0.0
H682 H 0.38969 0.547 0.89064 0.0
H683 H 0.38697 0.57327 0.77616 0.0
H684 H 0.33472 0.5381 0.76252 0.0
H685 H 0.33706 0.51205 0.87747 0.0
C686 C 0.38472 0.37293 0.04245 0.0
C687 C 0.37252 0.35316 0.00706 0.0
C688 C 0.38138 0.40742 0.05751 0.0
C689 C 0.36589 0.42283 0.03642 0.0
C690 C 0.35305 0.40215 0.0071 0.0
C691 C 0.35629 0.36743 0.99307 0.0
C692 C 0.36453 0.461 0.03448 0.0
C693 C 0.36239 0.47713 0.97043 0.0
C694 C 0.36788 0.48143 0.09282 0.0
C695 C 0.3686 0.46647 0.16286 0.0
C696 C 0.35541 0.44464 0.18626 0.0
C697 C 0.3557 0.43191 0.25322 0.0
C698 C 0.36904 0.44101 0.29756 0.0
C699 C 0.38226 0.46245 0.27474 0.0
C700 C 0.38208 0.47513 0.20775 0.0
C701 C 0.36521 0.62977 0.99811 0.0
C702 C 0.38111 0.64062 0.02484 0.0
C703 C 0.36144 0.59452 0.99331 0.0
C704 C 0.37357 0.56989 0.01484 0.0
C705 C 0.38988 0.58086 0.03623 0.0
C706 C 0.39363 0.61578 0.04094 0.0
C707 C 0.36923 0.53279 0.02001 0.0
C708 C 0.37028 0.51701 0.08462 0.0
C709 C 0.36478 0.51275 0.96243 0.0
C710 C 0.36348 0.52796 0.89298 0.0
C711 C 0.37757 0.54512 0.86347 0.0
C712 C 0.37611 0.55993 0.79846 0.0
C713 C 0.36066 0.55747 0.76219 0.0
C714 C 0.34667 0.54005 0.79074 0.0
C715 C 0.34806 0.52525 0.8558 0.0
H716 H 0.35955 0.56898 0.71189 0.0
H717 H 0.36919 0.43131 0.34951 0.0
H718 H 0.60864 0.13987 0.06996 0.0
H719 H 0.61589 0.07886 0.08093 0.0
H720 H 0.66599 0.09869 0.99501 0.0
H721 H 0.65894 0.16 0.98611 0.0
H722 H 0.64411 0.05291 0.91713 0.0
H723 H 0.66582 0.06683 0.144 0.0
H724 H 0.6649 0.08733 0.26331 0.0
H725 H 0.62028 0.02523 0.30153 0.0
H726 H 0.6207 1.00487 0.18203 0.0
H727 H 0.65385 0.85868 0.0199 0.0
H728 H 0.6624 0.91945 0.02297 0.0
H729 H 0.61226 0.94869 0.94845 0.0
H730 H 0.60349 0.88821 0.94771 0.0
H731 H 0.64183 0.96904 0.10845 0.0
H732 H 0.62132 0.02245 0.84372 0.0
H733 H 0.61914 1.00131 0.72508 0.0
H734 H 0.65942 0.92826 0.76423 0.0
H735 H 0.66251 0.95016 0.88146 0.0
C736 C 0.62156 0.13151 0.05736 0.0
C737 C 0.63329 0.15464 0.02789 0.0
C738 C 0.62564 0.09659 0.06287 0.0
C739 C 0.6414 0.08418 0.03789 0.0
C740 C 0.65375 0.10774 0.01445 0.0
C741 C 0.64981 0.14284 0.0104 0.0
C742 C 0.64371 0.04667 0.02674 0.0
C743 C 0.64389 0.03455 0.95897 0.0
C744 C 0.64336 0.0228 0.08137 0.0
C745 C 0.64326 0.0344 0.15381 0.0
C746 C 0.65574 0.05768 0.17768 0.0
C747 C 0.65532 0.06927 0.24538 0.0
C748 C 0.64255 0.05755 0.28997 0.0
C749 C 0.63018 0.03423 0.26694 0.0
C750 C 0.63052 0.02262 0.19922 0.0
C751 C 0.64494 0.87797 0.00121 0.0
C752 C 0.62807 0.86876 0.98275 0.0
C753 C 0.64972 0.91269 0.00425 0.0
C754 C 0.63788 0.93854 0.98683 0.0
C755 C 0.62158 0.92913 0.96227 0.0
C756 C 0.61666 0.89457 0.96085 0.0
C757 C 0.64186 0.97541 -0.00111 0.0
C758 C 0.64257 0.98739 0.0667 0.0
C759 C 0.64284 0.99923 0.94431 0.0
C760 C 0.64201 0.98775 0.87186 0.0
C761 C 0.62992 1.00227 0.82667 0.0
C762 C 0.62856 0.99021 0.75947 0.0
C763 C 0.63917 0.96351 0.73692 0.0
C764 C 0.6513 0.94912 0.7813 0.0
C765 C 0.65289 0.96142 0.84813 0.0
H766 H 0.63795 0.95393 0.68515 0.0
H767 H 0.64224 0.06655 0.34236 0.0
H768 H 0.13016 0.30994 0.36841 0.0
H769 H 0.13183 0.32131 0.24511 0.0
H770 H 0.1842 0.28471 0.24249 0.0
H771 H 0.18252 0.27272 0.36519 0.0
H772 H 0.17529 0.34068 0.14122 0.0
H773 H 0.15901 0.22632 0.22124 0.0
H774 H 0.14183 0.18778 0.29467 0.0
H775 H 0.09528 0.22717 0.20553 0.0
H776 H 0.11221 0.2664 0.13246 0.0
H777 H 0.15125 0.2391 0.80543 0.0
H778 H 0.16155 0.24223 0.9244 0.0
H779 H 0.13989 0.34392 0.94315 0.0
H780 H 0.12941 0.3407 0.82556 0.0
H781 H 0.13778 0.25211 0.03539 0.0
H782 H 0.16776 0.38892 0.05594 0.0
H783 H 0.18477 0.4287 0.98473 0.0
H784 H 0.20463 0.34369 0.86936 0.0
H785 H 0.18786 0.30332 0.93986 0.0
C786 C 0.14225 0.30574 0.34211 0.0
C787 C 0.15612 0.28996 0.3758 0.0
C788 C 0.14318 0.31218 0.27174 0.0
C789 C 0.15807 0.30338 0.23489 0.0
C790 C 0.17263 0.29165 0.27014 0.0
C791 C 0.17161 0.28469 0.34012 0.0
C792 C 0.15732 0.29966 0.15968 0.0
C793 C 0.16709 0.32147 0.11777 0.0
C794 C 0.14702 0.2738 0.12967 0.0
C795 C 0.13686 0.24946 0.17188 0.0
C796 C 0.14511 0.22688 0.21762 0.0
C797 C 0.13542 0.20492 0.25915 0.0
C798 C 0.11747 0.20508 0.25488 0.0
C799 C 0.10918 0.2271 0.20884 0.0
C800 C 0.11882 0.24919 0.16734 0.0
C801 C 0.14905 0.26234 0.83462 0.0
C802 C 0.13955 0.28966 0.80661 0.0
C803 C 0.15486 0.26405 0.9024 0.0
C804 C 0.15152 0.29339 0.94217 0.0
C805 C 0.14274 0.32125 0.91304 0.0
C806 C 0.1367 0.31929 0.84605 0.0
C807 C 0.15537 0.29383 0.01622 0.0
C808 C 0.14614 0.27125 0.05835 0.0
C809 C 0.16618 0.31899 0.04598 0.0
C810 C 0.17644 0.34305 0.00321 0.0
C811 C 0.1758 0.37865 0.01556 0.0
C812 C 0.18537 0.40133 0.97512 0.0
C813 C 0.19571 0.38872 0.92231 0.0
C814 C 0.19649 0.35342 0.90982 0.0
C815 C 0.18692 0.33063 0.94995 0.0
H816 H 0.20314 0.40631 0.89116 0.0
H817 H 0.10999 0.18809 0.28714 0.0
H818 H 0.88288 0.19243 0.38131 0.0
H819 H 0.88295 0.18388 0.25687 0.0
H820 H 0.82877 0.20717 0.24973 0.0
H821 H 0.8286 0.21547 0.37338 0.0
H822 H 0.8586 0.15262 0.1357 0.0
H823 H 0.831 0.28512 0.17292 0.0
H824 H 0.82932 0.32993 0.26222 0.0
H825 H 0.87962 0.30191 0.33443 0.0
H826 H 0.88168 0.25743 0.24479 0.0
H827 H 0.84774 0.21904 0.79637 0.0
H828 H 0.84016 0.20727 0.91647 0.0
H829 H 0.88464 0.26455 0.98281 0.0
H830 H 0.89213 0.27633 0.86392 0.0
H831 H 0.85805 0.27569 0.06705 0.0
H832 H 0.88655 0.17822 0.96279 0.0
H833 H 0.8897 0.1321 0.87717 0.0
H834 H 0.84137 0.08888 0.93985 0.0
H835 H 0.83783 0.13509 0.02522 0.0
C836 C 0.87079 0.19355 0.3538 0.0
C837 C 0.8558 0.20519 0.38666 0.0
C838 C 0.87084 0.18878 0.28257 0.0
C839 C 0.85591 0.19551 0.24414 0.0
C840 C 0.84042 0.20195 0.27844 0.0
C841 C 0.84035 0.20667 0.34922 0.0
C842 C 0.85728 0.20494 0.17079 0.0
C843 C 0.85839 0.17943 0.1204 0.0
C844 C 0.85716 0.23996 0.1511 0.0
C845 C 0.85641 0.26783 0.20268 0.0
C846 C 0.84173 0.28875 0.20757 0.0
C847 C 0.84071 0.31404 0.25825 0.0
C848 C 0.85433 0.3187 0.30409 0.0
C849 C 0.86906 0.29824 0.299 0.0
C850 C 0.87016 0.27301 0.24828 0.0
C851 C 0.8555 0.23009 0.83678 0.0
C852 C 0.8705 0.24862 0.82096 0.0
C853 C 0.85131 0.22298 0.90529 0.0
C854 C 0.86202 0.23451 0.95867 0.0
C855 C 0.87622 0.25524 0.94269 0.0
C856 C 0.88047 0.26203 0.87466 0.0
C857 C 0.85941 0.22341 0.03087 0.0
C858 C 0.85805 0.24876 0.08163 0.0
C859 C 0.85963 0.18825 0.05058 0.0
C860 C 0.86183 0.16031 -0.0002 0.0
C861 C 0.87654 0.15902 0.95795 0.0
C862 C 0.8784 0.13285 0.90952 0.0
C863 C 0.86572 0.10763 0.90293 0.0
C864 C 0.85117 0.10848 0.94492 0.0
C865 C 0.84923 0.13464 0.99334 0.0
H866 H 0.86718 0.08739 0.8654 0.0
H867 H 0.85348 0.33817 0.34347 0.0
H868 H 0.1618 0.72019 0.24365 0.0
H869 H 0.17135 0.71378 0.12481 0.0
H870 H 0.11848 0.70361 0.06069 0.0
H871 H 0.10905 0.71055 0.17885 0.0
H872 H 0.13988 0.65833 0.99254 0.0
H873 H 0.13952 0.78093 0.05762 0.0
H874 H 0.1499 0.82817 0.13099 0.0
H875 H 0.20189 0.80772 0.06876 0.0
H876 H 0.19181 0.76025 0.99529 0.0
H877 H 0.1257 0.71856 0.65993 0.0
H878 H 0.12785 0.7019 0.78001 0.0
H879 H 0.18064 0.73661 0.78455 0.0
H880 H 0.17801 0.75558 0.6656 0.0
H881 H 0.16658 0.76117 0.88652 0.0
H882 H 0.16733 0.648 0.80102 0.0
H883 H 0.15843 0.59908 0.72909 0.0
H884 H 0.10928 0.59692 0.82911 0.0
H885 H 0.11769 0.64632 0.90056 0.0
C886 C 0.15231 0.71724 0.20406 0.0
C887 C 0.13475 0.71708 0.22037 0.0
C888 C 0.15774 0.71292 0.1363 0.0
C889 C 0.14561 0.70843 0.0837 0.0
C890 C 0.12808 0.70689 0.10038 0.0
C891 C 0.12271 0.71114 0.16794 0.0
C892 C 0.15072 0.70841 0.01056 0.0
C893 C 0.14576 0.68068 0.96899 0.0
C894 C 0.15906 0.73698 0.98056 0.0
C895 C 0.16495 0.76672 0.02183 0.0
C896 C 0.15317 0.78649 0.05971 0.0
C897 C 0.15899 0.8133 0.10128 0.0
C898 C 0.17655 0.82085 0.10474 0.0
C899 C 0.1883 0.8018 0.06615 0.0
C900 C 0.18254 0.77496 0.0245 0.0
C901 C 0.13786 0.7219 0.68623 0.0
C902 C 0.15166 0.73845 0.65386 0.0
C903 C 0.13916 0.71216 0.75493 0.0
C904 C 0.1545 0.71761 0.79175 0.0
C905 C 0.16864 0.73227 0.75773 0.0
C906 C 0.16716 0.74295 0.68969 0.0
C907 C 0.15512 0.71152 0.86705 0.0
C908 C 0.16116 0.73817 0.90935 0.0
C909 C 0.14813 0.68155 0.89763 0.0
C910 C 0.14315 0.65104 0.85617 0.0
C911 C 0.1546 0.6372 0.80758 0.0
C912 C 0.14963 0.6094 0.76679 0.0
C913 C 0.13331 0.59491 0.77456 0.0
C914 C 0.12193 0.60816 0.82321 0.0
C915 C 0.1268 0.63605 0.86395 0.0
H916 H 0.12948 0.57341 0.74293 0.0
H917 H 0.18104 0.84152 0.13719 0.0
H918 H 0.85728 0.8065 0.62609 0.0
H919 H 0.85149 0.82532 0.74352 0.0
H920 H 0.84875 0.71945 0.80842 0.0
H921 H 0.85492 0.7006 0.69251 0.0
H922 H 0.82217 0.76287 0.86389 0.0
H923 H 0.88488 0.76094 0.8237 0.0
H924 H 0.91051 0.78128 0.76119 0.0
H925 H 0.89941 0.88516 0.82107 0.0
H926 H 0.87369 0.86527 0.88378 0.0
H927 H 0.85135 0.73106 0.2001 0.0
H928 H 0.84339 0.73587 0.07904 0.0
H929 H 0.85064 0.84572 0.08796 0.0
H930 H 0.85809 0.84113 0.20925 0.0
H931 H 0.87073 0.81548 0.99105 0.0
H932 H 0.81296 0.82004 0.05005 0.0
H933 H 0.78562 0.80644 0.10754 0.0
H934 H 0.78479 0.70739 0.01097 0.0
H935 H 0.81241 0.71997 0.95416 0.0
C936 C 0.85563 0.78733 0.66534 0.0
C937 C 0.85694 0.75215 0.64986 0.0
C938 C 0.85209 0.79808 0.73224 0.0
C939 C 0.84964 0.77369 0.78436 0.0
C940 C 0.85045 0.73863 0.76871 0.0
C941 C 0.85416 0.72796 0.70237 0.0
C942 C 0.84772 0.78398 0.85665 0.0
C943 C 0.83273 0.77438 0.89199 0.0
C944 C 0.86125 0.80036 0.89223 0.0
C945 C 0.87718 0.81179 0.8572 0.0
C946 C 0.88786 0.78813 0.82318 0.0
C947 C 0.90242 0.79954 0.78785 0.0
C948 C 0.90654 0.83451 0.78679 0.0
C949 C 0.89618 0.85809 0.82164 0.0
C950 C 0.88162 0.84677 0.85709 0.0
C951 C 0.85045 0.75633 0.17697 0.0
C952 C 0.85514 0.78572 0.21396 0.0
C953 C 0.84603 0.75908 0.10779 0.0
C954 C 0.8465 0.79118 0.07468 0.0
C955 C 0.85022 0.82076 0.11263 0.0
C956 C 0.85443 0.81807 0.1818 0.0
C957 C 0.84544 0.79298 -0.00081 0.0
C958 C 0.85992 0.80474 0.96316 0.0
C959 C 0.8313 0.77927 0.96296 0.0
C960 C 0.81487 0.7709 0.9981 0.0
C961 C 0.80709 0.79515 0.0417 0.0
C962 C 0.79152 0.78766 0.07409 0.0
C963 C 0.78347 0.75611 0.06288 0.0
C964 C 0.79105 0.73184 0.01964 0.0
C965 C 0.80668 0.73914 0.98728 0.0
H966 H 0.77134 0.75062 0.08763 0.0
H967 H 0.91778 0.84331 0.75921 0.0
H968 H 0.65035 0.74136 0.28302 0.0
H969 H 0.65993 0.74602 0.40244 0.0
H970 H 0.63583 0.84574 0.41705 0.0
H971 H 0.62718 0.84205 0.29783 0.0
H972 H 0.66337 0.84631 0.49124 0.0
H973 H 0.6149 0.76958 0.46566 0.0
H974 H 0.59966 0.71892 0.42008 0.0
H975 H 0.6382 0.65244 0.50595 0.0
H976 H 0.65378 0.70279 0.55133 0.0
H977 H 0.62916 0.81702 0.85015 0.0
H978 H 0.63179 0.83088 0.72769 0.0
H979 H 0.67924 0.77378 0.71814 0.0
H980 H 0.67706 0.76078 0.83966 0.0
H981 H 0.64231 0.75285 0.64218 0.0
H982 H 0.68975 0.83174 0.67542 0.0
H983 H 0.70471 0.88359 0.71619 0.0
H984 H 0.66776 0.94737 0.61303 0.0
H985 H 0.65215 0.89583 0.57389 0.0
C986 C 0.64764 0.76469 0.31105 0.0
C987 C 0.63795 0.79122 0.281 0.0
C988 C 0.65289 0.76718 0.37962 0.0
C989 C 0.64824 0.79594 0.41935 0.0
C990 C 0.63952 0.82324 0.38788 0.0
C991 C 0.63445 0.82092 0.31964 0.0
C992 C 0.65099 0.79681 0.49475 0.0
C993 C 0.65877 0.82586 0.52427 0.0
C994 C 0.64499 0.77019 0.53804 0.0
C995 C 0.63558 0.73993 0.51121 0.0
C996 C 0.62017 0.74416 0.47444 0.0
C997 C 0.61147 0.71551 0.44869 0.0
C998 C 0.61798 0.68249 0.45994 0.0
C999 C 0.63319 0.67804 0.49716 0.0
C1000 C 0.64195 0.70661 0.52293 0.0
C1001 C 0.64055 0.80884 0.8227 0.0
C1002 C 0.65276 0.78739 0.8544 0.0
C1003 C 0.64203 0.81672 0.75271 0.0
C1004 C 0.65577 0.80344 0.71407 0.0
C1005 C 0.66869 0.78466 0.74716 0.0
C1006 C 0.66732 0.7771 0.81671 0.0
C1007 C 0.65476 0.80224 0.63843 0.0
C1008 C 0.64712 0.77311 0.60906 0.0
C1009 C 0.66085 0.82886 0.59558 0.0
C1010 C 0.66954 0.85984 0.62305 0.0
C1011 C 0.68451 0.85676 0.66302 0.0
C1012 C 0.69319 0.88614 0.68546 0.0
C1013 C 0.68717 0.91876 0.66738 0.0
C1014 C 0.6724 0.92208 0.62709 0.0
C1015 C 0.66357 0.89279 0.60514 0.0
H1016 H 0.69394 0.94147 0.68455 0.0
H1017 H 0.61123 0.66034 0.43996 0.0
H1018 H 0.38424 0.71001 0.83987 0.0
H1019 H 0.3809 0.69916 0.71696 0.0
H1020 H 0.32588 0.69322 0.7426 0.0
H1021 H 0.3292 0.7049 0.86476 0.0
H1022 H 0.36533 0.65769 0.61715 0.0
H1023 H 0.30845 0.75163 0.63269 0.0
H1024 H 0.29617 0.7942 0.71265 0.0
H1025 H 0.3464 0.81322 0.79609 0.0
H1026 H 0.35898 0.77121 0.71593 0.0
H1027 H 0.34584 0.69236 0.27161 0.0
H1028 H 0.33783 0.68068 0.39098 0.0
H1029 H 0.36179 0.77577 0.45257 0.0
H1030 H 0.36966 0.78737 0.33359 0.0
H1031 H 0.33445 0.76137 0.53298 0.0
H1032 H 0.38487 0.70278 0.44502 0.0
H1033 H 0.40007 0.66405 0.36551 0.0
H1034 H 0.36767 0.58026 0.42766 0.0
H1035 H 0.35209 0.6187 0.50682 0.0
C1036 C 0.37155 0.70438 0.81982 0.0
C1037 C 0.35697 0.7084 0.8613 0.0
C1038 C 0.36962 0.69841 0.74949 0.0
C1039 C 0.35309 0.69634 0.72045 0.0
C1040 C 0.33872 0.69526 0.76381 0.0
C1041 C 0.34063 0.70162 0.8337 0.0
C1042 C 0.35076 0.70246 0.64594 0.0
C1043 C 0.35835 0.68002 0.59866 0.0
C1044 C 0.34195 0.73204 0.62173 0.0
C1045 C 0.33459 0.75797 0.66899 0.0
C1046 C 0.31686 0.76501 0.66796 0.0
C1047 C 0.30985 0.78903 0.7133 0.0
C1048 C 0.32048 0.80629 0.75961 0.0
C1049 C 0.33816 0.79975 0.76037 0.0
C1050 C 0.34524 0.77583 0.71502 0.0
C1051 C 0.34855 0.71154 0.31032 0.0
C1052 C 0.35809 0.74101 0.29376 0.0
C1053 C 0.34419 0.70465 0.37853 0.0
C1054 C 0.34951 0.72704 0.43083 0.0
C1055 C 0.35756 0.75811 0.41315 0.0
C1056 C 0.36196 0.76489 0.34516 0.0
C1057 C 0.34891 0.71649 0.50392 0.0
C1058 C 0.34092 0.73836 0.55117 0.0
C1059 C 0.3577 0.68686 0.52801 0.0
C1060 C 0.36719 0.66368 0.48113 0.0
C1061 C 0.38091 0.67615 0.44135 0.0
C1062 C 0.3896 0.65426 0.3964 0.0
C1063 C 0.3848 0.61973 0.39137 0.0
C1064 C 0.37134 0.60702 0.43148 0.0
C1065 C 0.36258 0.62885 0.47638 0.0
H1066 H 0.39154 0.60281 0.35654 0.0
H1067 H 0.31503 0.82481 0.79478 0.0
H1068 H 0.64899 0.19541 0.12477 0.0
H1069 H 0.65424 0.17647 0.2431 0.0
H1070 H 0.66032 0.28222 0.30503 0.0
H1071 H 0.65543 0.30095 0.18863 0.0
H1072 H 0.68388 0.24323 0.36628 0.0
H1073 H 0.62091 0.23533 0.32349 0.0
H1074 H 0.59641 0.21046 0.26011 0.0
H1075 H 0.61283 0.1088 0.31619 0.0
H1076 H 0.63751 0.13312 0.37941 0.0
H1077 H 0.65433 0.27477 0.70288 0.0
H1078 H 0.66296 0.26971 0.58258 0.0
H1079 H 0.65334 0.16049 0.58984 0.0
H1080 H 0.64445 0.1656 0.70906 0.0
H1081 H 0.63625 0.18577 0.49009 0.0
H1082 H 0.69375 0.19307 0.55975 0.0
H1083 H 0.72061 0.21244 0.61448 0.0
H1084 H 0.7177 0.30811 0.50532 0.0
H1085 H 0.69058 0.28978 0.45114 0.0
C1086 C 0.65142 0.21448 0.16365 0.0
C1087 C 0.65161 0.24965 0.14699 0.0
C1088 C 0.65449 0.20367 0.23126 0.0
C1089 C 0.6576 0.22798 0.28321 0.0
C1090 C 0.65811 0.26292 0.26604 0.0
C1091 C 0.65519 0.27359 0.19908 0.0
C1092 C 0.65931 0.21827 0.35656 0.0
C1093 C 0.67348 0.23073 0.39369 0.0
C1094 C 0.64618 0.2004 0.39172 0.0
C1095 C 0.63106 0.18598 0.35568 0.0
C1096 C 0.61927 0.20768 0.32221 0.0
C1097 C 0.60539 0.19369 0.28628 0.0
C1098 C 0.6031 0.15807 0.28397 0.0
C1099 C 0.61464 0.13637 0.31792 0.0
C1100 C 0.62856 0.15023 0.35387 0.0
C1101 C 0.65459 0.24958 0.67931 0.0
C1102 C 0.64853 0.22068 0.71496 0.0
C1103 C 0.65953 0.24664 0.61051 0.0
C1104 C 0.65867 0.21468 0.57675 0.0
C1105 C 0.65394 0.18544 0.61431 0.0
C1106 C 0.64889 0.18842 0.68255 0.0
C1107 C 0.66045 0.21254 0.50096 0.0
C1108 C 0.64691 0.19773 0.46329 0.0
C1109 C 0.67434 0.2278 0.4654 0.0
C1110 C 0.69005 0.24001 0.50135 0.0
C1111 C 0.69866 0.21847 0.54817 0.0
C1112 C 0.71397 0.22923 0.57897 0.0
C1113 C 0.7209 0.26135 0.56294 0.0
C1114 C 0.71234 0.28315 0.51737 0.0
C1115 C 0.69699 0.27259 0.48663 0.0
H1116 H 0.73299 0.2692 0.58517 0.0
H1117 H 0.59237 0.14728 0.25599 0.0
H1118 H 0.35208 0.30893 0.0842 0.0
H1119 H 0.34868 0.32434 0.20505 0.0
H1120 H 0.3482 0.21666 0.259 0.0
H1121 H 0.35137 0.20132 0.13911 0.0
H1122 H 0.32588 0.25101 0.33539 0.0
H1123 H 0.38548 0.26348 0.26474 0.0
H1124 H 0.40793 0.28739 0.18913 0.0
H1125 H 0.39404 0.38965 0.25004 0.0
H1126 H 0.37134 0.36625 0.32576 0.0
H1127 H 0.36039 0.23343 0.66733 0.0
H1128 H 0.35366 0.23246 0.54528 0.0
H1129 H 0.35758 0.34318 0.53762 0.0
H1130 H 0.36561 0.34384 0.6589 0.0
H1131 H 0.37425 0.31705 0.43599 0.0
H1132 H 0.31945 0.29472 0.53766 0.0
H1133 H 0.30041 0.26325 0.61556 0.0
H1134 H 0.30612 0.1719 0.49495 0.0
H1135 H 0.32633 0.20211 0.41868 0.0
C1136 C 0.35127 0.28869 0.12193 0.0
C1137 C 0.35237 0.25404 0.10249 0.0
C1138 C 0.34917 0.29746 0.19076 0.0
C1139 C 0.34839 0.2716 0.24094 0.0
C1140 C 0.3487 0.23701 0.22109 0.0
C1141 C 0.35063 0.2283 0.15252 0.0
C1142 C 0.34887 0.27996 0.31464 0.0
C1143 C 0.3364 0.26548 0.35775 0.0
C1144 C 0.36251 0.29923 0.34312 0.0
C1145 C 0.37663 0.31322 0.30029 0.0
C1146 C 0.38721 0.29108 0.26195 0.0
C1147 C 0.39994 0.30452 0.21907 0.0
C1148 C 0.40235 0.34005 0.21467 0.0
C1149 C 0.3921 0.36218 0.2535 0.0
C1150 C 0.37932 0.34886 0.29643 0.0
C1151 C 0.35946 0.25756 0.63976 0.0
C1152 C 0.36337 0.28872 0.67211 0.0
C1153 C 0.35563 0.25703 0.57005 0.0
C1154 C 0.35486 0.28783 0.53238 0.0
C1155 C 0.35811 0.31913 0.5656 0.0
C1156 C 0.36252 0.31953 0.63481 0.0
C1157 C 0.35148 0.28719 0.45772 0.0
C1158 C 0.36343 0.30325 0.4142 0.0
C1159 C 0.33757 0.26849 0.42911 0.0
C1160 C 0.32454 0.25079 0.47242 0.0
C1161 C 0.31679 0.26785 0.52783 0.0
C1162 C 0.30586 0.25011 0.57212 0.0
C1163 C 0.30191 0.21564 0.56016 0.0
C1164 C 0.30912 0.19867 0.50413 0.0
C1165 C 0.32045 0.21604 0.46058 0.0
H1166 H 0.2933 0.2021 0.59435 0.0
H1167 H 0.41218 0.35042 0.18128 0.0
H1168 H 0.0792 0.26251 0.45404 0.0
H1169 H 0.04866 0.26783 0.42797 0.0
H1170 H 0.03661 0.20495 0.60376 0.0
H1171 H 0.06724 0.2023 0.63297 0.0
H1172 H 0.02006 0.2424 0.40298 0.0
H1173 H 0.00481 0.23669 0.69528 0.0
H1174 H 0.01998 0.24545 0.80489 0.0
H1175 H 0.05689 0.31035 0.70456 0.0
H1176 H 0.04178 0.30242 0.59466 0.0
H1177 H 0.93216 0.2297 0.46808 0.0
H1178 H 0.96266 0.23124 0.44301 0.0
H1179 H 0.96804 0.3218 0.56901 0.0
H1180 H 0.93732 0.31857 0.59775 0.0
H1181 H 0.98924 0.28065 0.61171 0.0
H1182 H 0.97941 0.31737 0.38785 0.0
H1183 H 0.96601 0.32159 0.27381 0.0
H1184 H 0.98183 0.21833 0.22827 0.0
H1185 H 0.99511 0.21324 0.3425 0.0
C1186 C 0.07007 0.24833 0.48508 0.0
C1187 C 0.07553 0.23202 0.54552 0.0
C1188 C 0.05253 0.2517 0.47054 0.0
C1189 C 0.04019 0.23813 0.51558 0.0
C1190 C 0.04583 0.21689 0.56966 0.0
C1191 C 0.06338 0.21459 0.58557 0.0
C1192 C 0.02193 0.25021 0.51189 0.0
C1193 C 0.01328 0.25064 0.44861 0.0
C1194 C 0.0133 0.26321 0.57042 0.0
C1195 C 0.02225 0.26866 0.63667 0.0
C1196 C 0.0161 0.25297 0.69673 0.0
C1197 C 0.0247 0.25777 0.75888 0.0
C1198 C 0.03942 0.27836 0.76164 0.0
C1199 C 0.04551 0.29434 0.70233 0.0
C1200 C 0.03693 0.28972 0.64012 0.0
C1201 C 0.93969 0.251 0.48758 0.0
C1202 C 0.93241 0.2742 0.53428 0.0
C1203 C 0.95725 0.25189 0.47324 0.0
C1204 C 0.96791 0.27657 0.50411 0.0
C1205 C 0.96021 0.30225 0.54489 0.0
C1206 C 0.94258 0.30088 0.56041 0.0
C1207 C 0.98701 0.27167 0.5031 0.0
C1208 C 0.99592 0.27268 0.56566 0.0
C1209 C 0.99611 0.26205 0.44312 0.0
C1210 C 0.98819 0.26486 0.37407 0.0
C1211 C 0.97994 0.29545 0.35375 0.0
C1212 C 0.97237 0.29801 0.28901 0.0
C1213 C 0.97305 0.27022 0.24385 0.0
C1214 C 0.98132 0.23983 0.26332 0.0
C1215 C 0.9889 0.23712 0.32804 0.0
H1216 H 0.96718 0.27225 0.19375 0.0
H1217 H 0.04608 0.28197 0.80978 0.0
H1218 H 0.92807 0.71941 0.5072 0.0
H1219 H 0.95925 0.72249 0.52709 0.0
H1220 H 0.96747 0.73796 0.31082 0.0
H1221 H 0.93654 0.73468 0.29117 0.0
H1222 H 0.99426 0.70476 0.36581 0.0
H1223 H 0.96017 0.80577 0.41824 0.0
H1224 H 0.93697 0.83649 0.47887 0.0
H1225 H 0.96095 0.81368 0.67178 0.0
H1226 H 0.98417 0.78233 0.61224 0.0
H1227 H 0.06886 0.79655 0.33867 0.0
H1228 H 0.03744 0.79368 0.34024 0.0
H1229 H 0.03862 0.7716 0.55647 0.0
H1230 H 0.07006 0.7747 0.55484 0.0
H1231 H 0.00748 0.80564 0.51232 0.0
H1232 H 0.04223 0.70627 0.45794 0.0
H1233 H 0.06523 0.67574 0.39571 0.0
H1234 H 0.03975 0.6963 0.20487 0.0
H1235 H 0.01667 0.72724 0.26601 0.0
C1236 C 0.93664 0.72149 0.46364 0.0
C1237 C 0.92995 0.7268 0.39765 0.0
C1238 C 0.95443 0.72388 0.47512 0.0
C1239 C 0.96566 0.73155 0.42067 0.0
C1240 C 0.9591 0.73237 0.35376 0.0
C1241 C 0.9414 0.73016 0.34242 0.0
C1242 C 0.98367 0.74314 0.43303 0.0
C1243 C 0.9971 0.72684 0.39773 0.0
C1244 C 0.9875 0.77186 0.47518 0.0
C1245 C 0.9738 0.79141 0.51088 0.0
C1246 C 0.96045 0.80718 0.47361 0.0
C1247 C 0.94729 0.82469 0.50776 0.0
C1248 C 0.94746 0.82696 0.57915 0.0
C1249 C 0.96082 0.81184 0.6165 0.0
C1250 C 0.97398 0.7942 0.58258 0.0
C1251 C 0.06237 0.79357 0.3874 0.0
C1252 C 0.07187 0.78612 0.44672 0.0
C1253 C 0.0444 0.7913 0.38808 0.0
C1254 C 0.03573 0.78145 0.44812 0.0
C1255 C 0.04504 0.77904 0.50952 0.0
C1256 C 0.06303 0.78131 0.50875 0.0
C1257 C 0.01792 0.76756 0.44411 0.0
C1258 C 0.00461 0.78337 0.48097 0.0
C1259 C 0.01414 0.73844 0.40323 0.0
C1260 C 0.02781 0.7193 0.36646 0.0
C1261 C 0.04158 0.70442 0.40267 0.0
C1262 C 0.05462 0.68703 0.36762 0.0
C1263 C 0.05398 0.68419 0.29636 0.0
C1264 C 0.04024 0.69857 0.26006 0.0
C1265 C 0.02716 0.71598 0.29488 0.0
H1266 H 0.06411 0.67079 0.2693 0.0
H1267 H 0.93725 0.84048 0.60552 0.0
H1268 H 0.57385 0.72959 0.9473 0.0
H1269 H 0.54314 0.73125 0.91747 0.0
H1270 H 0.53004 0.72754 0.13164 0.0
H1271 H 0.56051 0.72591 0.16137 0.0
H1272 H 0.50568 0.69502 0.9883 0.0
H1273 H 0.51935 0.81371 0.13916 0.0
H1274 H 0.54385 0.85148 0.16779 0.0
H1275 H 0.56468 0.83702 0.96628 0.0
H1276 H 0.54014 0.79968 0.93623 0.0
H1277 H 0.44009 0.80314 0.15709 0.0
H1278 H 0.4703 0.79912 0.12431 0.0
H1279 H 0.45534 0.76903 0.92038 0.0
H1280 H 0.42496 0.77328 0.95336 0.0
H1281 H 0.49441 0.81897 0.03063 0.0
H1282 H 0.47876 0.69485 0.88532 0.0
H1283 H 0.45473 0.65383 0.87246 0.0
H1284 H 0.43783 0.67624 0.07688 0.0
H1285 H 0.46192 0.71684 0.0913 0.0
C1286 C 0.56439 0.72676 0.98763 0.0
C1287 C 0.5695 0.72768 0.05664 0.0
C1288 C 0.54684 0.72803 0.97056 0.0
C1289 C 0.53437 0.73005 0.02248 0.0
C1290 C 0.53946 0.726 0.09087 0.0
C1291 C 0.5569 0.72483 0.10782 0.0
C1292 C 0.51703 0.74438 0.00848 0.0
C1293 C 0.50322 0.72225 0.99513 0.0
C1294 C 0.5138 0.77976 0.01954 0.0
C1295 C 0.528 0.80382 0.03567 0.0
C1296 C 0.52909 0.81889 0.10083 0.0
C1297 C 0.54298 0.84015 0.11732 0.0
C1298 C 0.55583 0.84658 0.06893 0.0
C1299 C 0.55474 0.83198 0.00375 0.0
C1300 C 0.54084 0.81079 0.98697 0.0
C1301 C 0.44324 0.7977 0.10416 0.0
C1302 C 0.43023 0.78857 0.05775 0.0
C1303 C 0.46054 0.79509 0.08552 0.0
C1304 C 0.4651 0.78286 0.02042 0.0
C1305 C 0.45211 0.77808 0.9712 0.0
C1306 C 0.43474 0.78102 0.98976 0.0
C1307 C 0.48289 0.76978 0.00923 0.0
C1308 C 0.49682 0.79203 0.01989 0.0
C1309 C 0.48616 0.73444 0.99612 0.0
C1310 C 0.472 0.70919 0.98894 0.0
C1311 C 0.46996 0.69086 0.92757 0.0
C1312 C 0.45633 0.66769 0.92004 0.0
C1313 C 0.44472 0.66253 0.97372 0.0
C1314 C 0.4468 0.68032 0.03527 0.0
C1315 C 0.46044 0.70339 0.04315 0.0
H1316 H 0.43415 0.6447 0.96769 0.0
H1317 H 0.56663 0.86289 0.0819 0.0
H1318 H 0.42866 0.22603 0.99258 0.0
H1319 H 0.45974 0.22574 0.01513 0.0
H1320 H 0.46958 0.227 0.79784 0.0
H1321 H 0.43867 0.22759 0.7756 0.0
H1322 H 0.49506 0.19247 0.86937 0.0
H1323 H 0.46349 0.30093 0.88081 0.0
H1324 H 0.44063 0.33792 0.92827 0.0
H1325 H 0.46267 0.32802 0.12899 0.0
H1326 H 0.48551 0.29047 0.08277 0.0
H1327 H 0.56778 0.27984 0.79238 0.0
H1328 H 0.53665 0.27566 0.80627 0.0
H1329 H 0.54278 0.27485 0.02562 0.0
H1330 H 0.57411 0.2797 0.01164 0.0
H1331 H 0.50997 0.30469 0.97513 0.0
H1332 H 0.54408 0.20231 0.95975 0.0
H1333 H 0.56686 0.16581 0.91046 0.0
H1334 H 0.53995 0.16344 0.71847 0.0
H1335 H 0.51718 0.20056 0.76624 0.0
C1336 C 0.43749 0.22418 0.94982 0.0
C1337 C 0.43135 0.2266 0.88236 0.0
C1338 C 0.45524 0.22455 0.9627 0.0
C1339 C 0.46697 0.22719 0.90813 0.0
C1340 C 0.46079 0.22512 0.84074 0.0
C1341 C 0.44312 0.22511 0.82797 0.0
C1342 C 0.48516 0.23749 0.91969 0.0
C1343 C 0.49831 0.21689 0.89278 0.0
C1344 C 0.48947 0.26921 0.95118 0.0
C1345 C 0.47608 0.29264 0.97852 0.0
C1346 C 0.46341 0.30655 0.93511 0.0
C1347 C 0.45046 0.32759 0.96177 0.0
C1348 C 0.45017 0.33524 0.03164 0.0
C1349 C 0.46289 0.32201 0.07491 0.0
C1350 C 0.47584 0.30085 0.04852 0.0
C1351 C 0.56242 0.28087 0.84355 0.0
C1352 C 0.5733 0.28013 0.90092 0.0
C1353 C 0.54464 0.27807 0.85149 0.0
C1354 C 0.53747 0.274 0.91693 0.0
C1355 C 0.54808 0.27779 0.97468 0.0
C1356 C 0.56597 0.28091 0.96667 0.0
C1357 C 0.51976 0.25996 0.92338 0.0
C1358 C 0.50676 0.27988 0.95332 0.0
C1359 C 0.51555 0.22751 0.89491 0.0
C1360 C 0.52898 0.20442 0.86645 0.0
C1361 C 0.54307 0.19418 0.90689 0.0
C1362 C 0.55598 0.17338 0.87923 0.0
C1363 C 0.55486 0.16235 0.81134 0.0
C1364 C 0.5408 0.17203 0.77104 0.0
C1365 C 0.52788 0.19293 0.7984 0.0
H1366 H 0.56488 0.14626 0.78999 0.0
H1367 H 0.44011 0.35148 0.05223 0.0
loop_
_geom_bond_atom_site_label_1
_geom_bond_atom_site_label_2
_geom_bond_distance
_geom_bond_site_symmetry_2
_ccdc_geom_bond_type
Zn0 O6 1.920 . S
Zn0 O12 1.898 . S
Zn0 O15 1.905 . S
Zn1 O9 1.905 . S
Zn1 O10 1.898 . S
Zn1 O18 1.920 . S
Zn2 O5 2.080 . S
Zn2 O8 2.114 . S
Zn2 O11 2.120 . S
Zn2 O13 2.120 . S
Zn2 O14 2.114 . S
Zn2 O17 2.080 . S
C3 O8 1.166 . S
C3 O9 1.182 . S
C4 O10 1.167 . S
C4 O11 1.299 . S
O5 Zn2 2.080 . S
O5 C19 1.305 . S
O6 Zn0 1.920 . S
O6 C19 1.234 . S
C7 O12 1.167 . S
C7 O13 1.299 . S
O8 Zn2 2.114 . S
O8 C3 1.166 . S
O9 Zn1 1.905 . S
O9 C3 1.182 . S
O10 Zn1 1.898 . S
O10 C4 1.167 . S
O11 Zn2 2.120 . S
O11 C4 1.299 . S
O12 Zn0 1.898 . S
O12 C7 1.167 . S
O13 Zn2 2.120 . S
O13 C7 1.299 . S
O14 Zn2 2.114 . S
O14 C16 1.166 . S
O15 Zn0 1.905 . S
O15 C16 1.182 . S
C16 O14 1.166 . S
C16 O15 1.182 . S
O17 Zn2 2.080 . S
O17 C20 1.305 . S
O18 Zn1 1.920 . S
O18 C20 1.234 . S
C19 O5 1.305 . S
C19 O6 1.234 . S
C20 O17 1.305 . S
C20 O18 1.234 . S
Zn21 O27 1.920 . S
Zn21 O33 1.898 . S
Zn21 O36 1.905 . S
Zn22 O30 1.905 . S
Zn22 O31 1.898 . S
Zn22 O39 1.920 . S
Zn23 O26 2.080 . S
Zn23 O29 2.114 . S
Zn23 O32 2.120 . S
Zn23 O34 2.120 . S
Zn23 O35 2.114 . S
Zn23 O38 2.080 . S
C24 O29 1.166 . S
C24 O30 1.182 . S
C25 O31 1.167 . S
C25 O32 1.299 . S
O26 Zn23 2.080 . S
O26 C40 1.305 . S
O27 Zn21 1.920 . S
O27 C40 1.234 . S
C28 O33 1.167 . S
C28 O34 1.299 . S
O29 Zn23 2.114 . S
O29 C24 1.166 . S
O30 Zn22 1.905 . S
O30 C24 1.182 . S
O31 Zn22 1.898 . S
O31 C25 1.167 . S
O32 Zn23 2.120 . S
O32 C25 1.299 . S
O33 Zn21 1.898 . S
O33 C28 1.167 . S
O34 Zn23 2.120 . S
O34 C28 1.299 . S
O35 Zn23 2.114 . S
O35 C37 1.166 . S
O36 Zn21 1.905 . S
O36 C37 1.182 . S
C37 O35 1.166 . S
C37 O36 1.182 . S
O38 Zn23 2.080 . S
O38 C41 1.305 . S
O39 Zn22 1.920 . S
O39 C41 1.234 . S
C40 O26 1.305 . S
C40 O27 1.234 . S
C41 O38 1.305 . S
C41 O39 1.234 . S
Zn42 O48 1.920 . S
Zn42 O54 1.898 . S
Zn42 O57 1.905 . S
Zn43 O51 1.905 . S
Zn43 O52 1.898 . S
Zn43 O60 1.920 . S
Zn44 O47 2.080 . S
Zn44 O50 2.114 . S
Zn44 O53 2.120 . S
Zn44 O55 2.120 . S
Zn44 O56 2.114 . S
Zn44 O59 2.080 . S
C45 O50 1.166 . S
C45 O51 1.182 . S
C46 O52 1.167 . S
C46 O53 1.299 . S
O47 Zn44 2.080 . S
O47 C61 1.305 . S
O48 Zn42 1.920 . S
O48 C61 1.234 . S
C49 O54 1.167 . S
C49 O55 1.299 . S
O50 Zn44 2.114 . S
O50 C45 1.166 . S
O51 Zn43 1.905 . S
O51 C45 1.182 . S
O52 Zn43 1.898 . S
O52 C46 1.167 . S
O53 Zn44 2.120 . S
O53 C46 1.299 . S
O54 Zn42 1.898 . S
O54 C49 1.167 . S
O55 Zn44 2.120 . S
O55 C49 1.299 . S
O56 Zn44 2.114 . S
O56 C58 1.166 . S
O57 Zn42 1.905 . S
O57 C58 1.182 . S
C58 O56 1.166 . S
C58 O57 1.182 . S
O59 Zn44 2.080 . S
O59 C62 1.305 . S
O60 Zn43 1.920 . S
O60 C62 1.234 . S
C61 O47 1.305 . S
C61 O48 1.234 . S
C62 O59 1.305 . S
C62 O60 1.234 . S
Zn63 O69 1.920 . S
Zn63 O75 1.898 . S
Zn63 O78 1.905 . S
Zn64 O72 1.905 . S
Zn64 O73 1.898 . S
Zn64 O81 1.920 . S
Zn65 O68 2.080 . S
Zn65 O71 2.114 . S
Zn65 O74 2.120 . S
Zn65 O76 2.120 . S
Zn65 O77 2.114 . S
Zn65 O80 2.080 . S
C66 O71 1.166 . S
C66 O72 1.182 . S
C67 O73 1.167 . S
C67 O74 1.299 . S
O68 Zn65 2.080 . S
O68 C82 1.305 . S
O69 Zn63 1.920 . S
O69 C82 1.234 . S
C70 O75 1.167 . S
C70 O76 1.299 . S
O71 Zn65 2.114 . S
O71 C66 1.166 . S
O72 Zn64 1.905 . S
O72 C66 1.182 . S
O73 Zn64 1.898 . S
O73 C67 1.167 . S
O74 Zn65 2.120 . S
O74 C67 1.299 . S
O75 Zn63 1.898 . S
O75 C70 1.167 . S
O76 Zn65 2.120 . S
O76 C70 1.299 . S
O77 Zn65 2.114 . S
O77 C79 1.166 . S
O78 Zn63 1.905 . S
O78 C79 1.182 . S
C79 O77 1.166 . S
C79 O78 1.182 . S
O80 Zn65 2.080 . S
O80 C83 1.305 . S
O81 Zn64 1.920 . S
O81 C83 1.234 . S
C82 O68 1.305 . S
C82 O69 1.234 . S
C83 O80 1.305 . S
C83 O81 1.234 . S
Zn84 O90 1.920 . S
Zn84 O96 1.898 . S
Zn84 O99 1.905 . S
Zn85 O93 1.905 1_554 S
Zn85 O94 1.898 . S
Zn85 O102 1.920 . S
Zn86 O89 2.080 . S
Zn86 O92 2.114 1_554 S
Zn86 O95 2.120 . S
Zn86 O97 2.120 . S
Zn86 O98 2.114 . S
Zn86 O101 2.080 . S
C87 O92 1.166 . S
C87 O93 1.182 . S
C88 O94 1.167 . S
C88 O95 1.299 . S
O89 Zn86 2.080 . S
O89 C103 1.305 . S
O90 Zn84 1.920 . S
O90 C103 1.234 . S
C91 O96 1.167 . S
C91 O97 1.299 . S
O92 Zn86 2.114 1_556 S
O92 C87 1.166 . S
O93 Zn85 1.905 1_556 S
O93 C87 1.182 . S
O94 Zn85 1.898 . S
O94 C88 1.167 . S
O95 Zn86 2.120 . S
O95 C88 1.299 . S
O96 Zn84 1.898 . S
O96 C91 1.167 . S
O97 Zn86 2.120 . S
O97 C91 1.299 . S
O98 Zn86 2.114 . S
O98 C100 1.166 . S
O99 Zn84 1.905 . S
O99 C100 1.182 . S
C100 O98 1.166 . S
C100 O99 1.182 . S
O101 Zn86 2.080 . S
O101 C104 1.305 . S
O102 Zn85 1.920 . S
O102 C104 1.234 . S
C103 O89 1.305 . S
C103 O90 1.234 . S
C104 O101 1.305 . S
C104 O102 1.234 . S
Zn105 O111 1.920 . S
Zn105 O117 1.898 . S
Zn105 O120 1.905 1_554 S
Zn106 O114 1.905 . S
Zn106 O115 1.898 . S
Zn106 O123 1.920 . S
Zn107 O110 2.080 . S
Zn107 O113 2.114 . S
Zn107 O116 2.120 . S
Zn107 O118 2.120 . S
Zn107 O119 2.114 1_554 S
Zn107 O122 2.080 . S
C108 O113 1.166 . S
C108 O114 1.182 . S
C109 O115 1.167 . S
C109 O116 1.299 . S
O110 Zn107 2.080 . S
O110 C124 1.305 . S
O111 Zn105 1.920 . S
O111 C124 1.234 . S
C112 O117 1.167 . S
C112 O118 1.299 . S
O113 Zn107 2.114 . S
O113 C108 1.166 . S
O114 Zn106 1.905 . S
O114 C108 1.182 . S
O115 Zn106 1.898 . S
O115 C109 1.167 . S
O116 Zn107 2.120 . S
O116 C109 1.299 . S
O117 Zn105 1.898 . S
O117 C112 1.167 . S
O118 Zn107 2.120 . S
O118 C112 1.299 . S
O119 Zn107 2.114 1_556 S
O119 C121 1.166 . S
O120 Zn105 1.905 1_556 S
O120 C121 1.182 . S
C121 O119 1.166 . S
C121 O120 1.182 . S
O122 Zn107 2.080 . S
O122 C125 1.305 . S
O123 Zn106 1.920 . S
O123 C125 1.234 . S
C124 O110 1.305 . S
C124 O111 1.234 . S
C125 O122 1.305 . S
C125 O123 1.234 . S
Zn126 O132 1.920 . S
Zn126 O138 1.898 . S
Zn126 O141 1.905 . S
Zn127 O135 1.905 1_556 S
Zn127 O136 1.898 . S
Zn127 O144 1.920 . S
Zn128 O131 2.080 . S
Zn128 O134 2.114 1_556 S
Zn128 O137 2.120 . S
Zn128 O139 2.120 . S
Zn128 O140 2.114 . S
Zn128 O143 2.080 . S
C129 O134 1.166 . S
C129 O135 1.182 . S
C130 O136 1.167 . S
C130 O137 1.299 . S
O131 Zn128 2.080 . S
O131 C145 1.305 . S
O132 Zn126 1.920 . S
O132 C145 1.234 . S
C133 O138 1.167 . S
C133 O139 1.299 . S
O134 Zn128 2.114 1_554 S
O134 C129 1.166 . S
O135 Zn127 1.905 1_554 S
O135 C129 1.182 . S
O136 Zn127 1.898 . S
O136 C130 1.167 . S
O137 Zn128 2.120 . S
O137 C130 1.299 . S
O138 Zn126 1.898 . S
O138 C133 1.167 . S
O139 Zn128 2.120 . S
O139 C133 1.299 . S
O140 Zn128 2.114 . S
O140 C142 1.166 . S
O141 Zn126 1.905 . S
O141 C142 1.182 . S
C142 O140 1.166 . S
C142 O141 1.182 . S
O143 Zn128 2.080 . S
O143 C146 1.305 . S
O144 Zn127 1.920 . S
O144 C146 1.234 . S
C145 O131 1.305 . S
C145 O132 1.234 . S
C146 O143 1.305 . S
C146 O144 1.234 . S
Zn147 O153 1.920 . S
Zn147 O159 1.898 . S
Zn147 O162 1.905 . S
Zn148 O156 1.905 1_556 S
Zn148 O157 1.898 . S
Zn148 O165 1.920 . S
Zn149 O152 2.080 . S
Zn149 O155 2.114 1_556 S
Zn149 O158 2.120 . S
Zn149 O160 2.120 . S
Zn149 O161 2.114 . S
Zn149 O164 2.080 . S
C150 O155 1.166 . S
C150 O156 1.182 . S
C151 O157 1.167 . S
C151 O158 1.299 . S
O152 Zn149 2.080 . S
O152 C166 1.305 . S
O153 Zn147 1.920 . S
O153 C166 1.234 . S
C154 O159 1.167 . S
C154 O160 1.299 . S
O155 Zn149 2.114 1_554 S
O155 C150 1.166 . S
O156 Zn148 1.905 1_554 S
O156 C150 1.182 . S
O157 Zn148 1.898 . S
O157 C151 1.167 . S
O158 Zn149 2.120 . S
O158 C151 1.299 . S
O159 Zn147 1.898 . S
O159 C154 1.167 . S
O160 Zn149 2.120 . S
O160 C154 1.299 . S
O161 Zn149 2.114 . S
O161 C163 1.166 . S
O162 Zn147 1.905 . S
O162 C163 1.182 . S
C163 O161 1.166 . S
C163 O162 1.182 . S
O164 Zn149 2.080 . S
O164 C167 1.305 . S
O165 Zn148 1.920 . S
O165 C167 1.234 . S
C166 O152 1.305 . S
C166 O153 1.234 . S
C167 O164 1.305 . S
C167 O165 1.234 . S
H168 C186 0.951 . S
H169 C188 0.951 . S
H170 C190 0.950 . S
H171 C191 0.950 . S
H172 C193 0.950 . S
H173 C196 0.950 . S
H174 C197 0.950 . S
H175 C199 0.950 1_554 S
H176 C200 0.950 . S
H177 C201 0.951 . S
H178 C203 0.951 . S
H179 C205 0.950 . S
H180 C206 0.950 . S
H181 C208 0.950 . S
H182 C211 0.950 . S
H183 C212 0.950 . S
H184 C214 0.950 . S
H185 C215 0.950 . S
C186 H168 0.951 . S
C186 C187 1.366 . S
C186 C188 1.388 . S
C187 C186 1.366 . S
C187 C191 1.385 . S
C188 H169 0.951 . S
C188 C186 1.388 . S
C188 C189 1.366 . S
C189 C188 1.366 . S
C189 C190 1.414 . S
C189 C192 1.499 . S
C190 H170 0.950 . S
C190 C189 1.414 . S
C190 C191 1.374 . S
C191 H171 0.950 . S
C191 C187 1.385 . S
C191 C190 1.374 . S
C192 C189 1.499 . S
C192 C193 1.373 . S
C192 C194 1.389 . S
C193 H172 0.950 . S
C193 C192 1.373 . S
C193 C209 1.377 . S
C194 C192 1.389 . S
C194 C195 1.524 . S
C194 C208 1.377 . S
C195 C194 1.524 . S
C195 C196 1.397 . S
C195 C200 1.363 . S
C196 H173 0.950 . S
C196 C195 1.397 . S
C196 C197 1.334 . S
C197 H174 0.950 . S
C197 C196 1.334 . S
C197 C198 1.287 . S
C198 C197 1.287 . S
C198 C199 1.524 . S
C198 H217 0.913 . S
C199 H175 0.950 1_556 S
C199 C198 1.524 . S
C199 C200 1.415 . S
C200 H176 0.950 . S
C200 C195 1.363 . S
C200 C199 1.415 . S
C201 H177 0.951 . S
C201 C202 1.366 . S
C201 C203 1.388 . S
C202 C201 1.366 . S
C202 C206 1.385 . S
C203 H178 0.951 . S
C203 C201 1.388 . S
C203 C204 1.366 . S
C204 C203 1.366 . S
C204 C205 1.414 . S
C204 C207 1.499 . S
C205 H179 0.950 . S
C205 C204 1.414 . S
C205 C206 1.374 . S
C206 H180 0.950 . S
C206 C202 1.385 . S
C206 C205 1.374 . S
C207 C204 1.499 . S
C207 C208 1.373 . S
C207 C209 1.389 . S
C208 H181 0.950 . S
C208 C194 1.377 . S
C208 C207 1.373 . S
C209 C193 1.377 . S
C209 C207 1.389 . S
C209 C210 1.524 . S
C210 C209 1.524 . S
C210 C211 1.397 . S
C210 C215 1.363 . S
C211 H182 0.950 . S
C211 C210 1.397 . S
C211 C212 1.334 . S
C212 H183 0.950 . S
C212 C211 1.334 . S
C212 C213 1.287 . S
C213 C212 1.287 . S
C213 C214 1.524 . S
C213 H216 0.999 . S
C214 H184 0.950 . S
C214 C213 1.524 . S
C214 C215 1.415 . S
C215 H185 0.950 . S
C215 C210 1.363 . S
C215 C214 1.415 . S
H216 C213 0.999 . S
H217 C198 0.913 . S
H218 C236 0.951 . S
H219 C238 0.951 . S
H220 C240 0.950 . S
H221 C241 0.950 . S
H222 C243 0.950 . S
H223 C246 0.950 . S
H224 C247 0.950 . S
H225 C249 0.950 . S
H226 C250 0.950 . S
H227 C251 0.951 . S
H228 C253 0.951 . S
H229 C255 0.950 . S
H230 C256 0.950 . S
H231 C258 0.950 . S
H232 C261 0.950 . S
H233 C262 0.950 . S
H234 C264 0.950 . S
H235 C265 0.950 . S
C236 H218 0.951 . S
C236 C237 1.366 . S
C236 C238 1.388 . S
C237 C236 1.366 . S
C237 C241 1.385 . S
C238 H219 0.951 . S
C238 C236 1.388 . S
C238 C239 1.366 . S
C239 C238 1.366 . S
C239 C240 1.414 . S
C239 C242 1.499 . S
C240 H220 0.950 . S
C240 C239 1.414 . S
C240 C241 1.374 . S
C241 H221 0.950 . S
C241 C237 1.385 . S
C241 C240 1.374 . S
C242 C239 1.499 . S
C242 C243 1.373 . S
C242 C244 1.389 . S
C243 H222 0.950 . S
C243 C242 1.373 . S
C243 C259 1.377 . S
C244 C242 1.389 . S
C244 C245 1.524 . S
C244 C258 1.377 . S
C245 C244 1.524 . S
C245 C246 1.397 . S
C245 C250 1.363 . S
C246 H223 0.950 . S
C246 C245 1.397 . S
C246 C247 1.334 . S
C247 H224 0.950 . S
C247 C246 1.334 . S
C247 C248 1.287 . S
C248 C247 1.287 . S
C248 C249 1.524 . S
C248 H267 0.913 . S
C249 H225 0.950 . S
C249 C248 1.524 . S
C249 C250 1.415 . S
C250 H226 0.950 . S
C250 C245 1.363 . S
C250 C249 1.415 . S
C251 H227 0.951 . S
C251 C252 1.366 . S
C251 C253 1.388 . S
C252 C251 1.366 . S
C252 C256 1.385 . S
C253 H228 0.951 . S
C253 C251 1.388 . S
C253 C254 1.366 . S
C254 C253 1.366 . S
C254 C255 1.414 . S
C254 C257 1.499 . S
C255 H229 0.950 . S
C255 C254 1.414 . S
C255 C256 1.374 . S
C256 H230 0.950 . S
C256 C252 1.385 . S
C256 C255 1.374 . S
C257 C254 1.499 . S
C257 C258 1.373 . S
C257 C259 1.389 . S
C258 H231 0.950 . S
C258 C244 1.377 . S
C258 C257 1.373 . S
C259 C243 1.377 . S
C259 C257 1.389 . S
C259 C260 1.524 . S
C260 C259 1.524 . S
C260 C261 1.397 . S
C260 C265 1.363 . S
C261 H232 0.950 . S
C261 C260 1.397 . S
C261 C262 1.334 . S
C262 H233 0.950 . S
C262 C261 1.334 . S
C262 C263 1.287 . S
C263 C262 1.287 . S
C263 C264 1.524 . S
C263 H266 0.999 . S
C264 H234 0.950 . S
C264 C263 1.524 . S
C264 C265 1.415 . S
C265 H235 0.950 . S
C265 C260 1.363 . S
C265 C264 1.415 . S
H266 C263 0.999 . S
H267 C248 0.913 . S
H268 C286 0.951 . S
H269 C288 0.951 . S
H270 C290 0.950 . S
H271 C291 0.950 . S
H272 C293 0.950 . S
H273 C296 0.950 . S
H274 C297 0.950 . S
H275 C299 0.950 . S
H276 C300 0.950 . S
H277 C301 0.951 . S
H278 C303 0.951 . S
H279 C305 0.950 . S
H280 C306 0.950 . S
H281 C308 0.950 . S
H282 C311 0.950 . S
H283 C312 0.950 . S
H284 C314 0.950 . S
H285 C315 0.950 . S
C286 H268 0.951 . S
C286 C287 1.366 . S
C286 C288 1.388 . S
C287 C286 1.366 . S
C287 C291 1.385 . S
C288 H269 0.951 . S
C288 C286 1.388 . S
C288 C289 1.366 . S
C289 C288 1.366 . S
C289 C290 1.414 . S
C289 C292 1.499 . S
C290 H270 0.950 . S
C290 C289 1.414 . S
C290 C291 1.374 . S
C291 H271 0.950 . S
C291 C287 1.385 . S
C291 C290 1.374 . S
C292 C289 1.499 . S
C292 C293 1.373 . S
C292 C294 1.389 . S
C293 H272 0.950 . S
C293 C292 1.373 . S
C293 C309 1.377 . S
C294 C292 1.389 . S
C294 C295 1.524 . S
C294 C308 1.377 . S
C295 C294 1.524 . S
C295 C296 1.397 . S
C295 C300 1.363 . S
C296 H273 0.950 . S
C296 C295 1.397 . S
C296 C297 1.334 . S
C297 H274 0.950 . S
C297 C296 1.334 . S
C297 C298 1.287 . S
C298 C297 1.287 . S
C298 C299 1.524 . S
C298 H317 0.913 . S
C299 H275 0.950 . S
C299 C298 1.524 . S
C299 C300 1.415 . S
C300 H276 0.950 . S
C300 C295 1.363 . S
C300 C299 1.415 . S
C301 H277 0.951 . S
C301 C302 1.366 . S
C301 C303 1.388 . S
C302 C301 1.366 . S
C302 C306 1.385 . S
C303 H278 0.951 . S
C303 C301 1.388 . S
C303 C304 1.366 . S
C304 C303 1.366 . S
C304 C305 1.414 . S
C304 C307 1.499 . S
C305 H279 0.950 . S
C305 C304 1.414 . S
C305 C306 1.374 . S
C306 H280 0.950 . S
C306 C302 1.385 . S
C306 C305 1.374 . S
C307 C304 1.499 . S
C307 C308 1.373 . S
C307 C309 1.389 . S
C308 H281 0.950 . S
C308 C294 1.377 . S
C308 C307 1.373 . S
C309 C293 1.377 . S
C309 C307 1.389 . S
C309 C310 1.524 . S
C310 C309 1.524 . S
C310 C311 1.397 . S
C310 C315 1.363 . S
C311 H282 0.950 . S
C311 C310 1.397 . S
C311 C312 1.334 . S
C312 H283 0.950 . S
C312 C311 1.334 . S
C312 C313 1.287 . S
C313 C312 1.287 . S
C313 C314 1.524 . S
C313 H316 0.999 . S
C314 H284 0.950 . S
C314 C313 1.524 . S
C314 C315 1.415 . S
C315 H285 0.950 . S
C315 C310 1.363 . S
C315 C314 1.415 . S
H316 C313 0.999 . S
H317 C298 0.913 . S
H318 C336 0.951 . S
H319 C338 0.951 . S
H320 C340 0.950 . S
H321 C341 0.950 . S
H322 C343 0.950 . S
H323 C346 0.950 . S
H324 C347 0.950 . S
H325 C349 0.950 . S
H326 C350 0.950 . S
H327 C351 0.951 . S
H328 C353 0.951 . S
H329 C355 0.950 . S
H330 C356 0.950 . S
H331 C358 0.950 . S
H332 C361 0.950 . S
H333 C362 0.950 . S
H334 C364 0.950 . S
H335 C365 0.950 . S
C336 H318 0.951 . S
C336 C337 1.366 . S
C336 C338 1.388 . S
C337 C336 1.366 . S
C337 C341 1.385 . S
C338 H319 0.951 . S
C338 C336 1.388 . S
C338 C339 1.366 . S
C339 C338 1.366 . S
C339 C340 1.414 . S
C339 C342 1.499 . S
C340 H320 0.950 . S
C340 C339 1.414 . S
C340 C341 1.374 . S
C341 H321 0.950 . S
C341 C337 1.385 . S
C341 C340 1.374 . S
C342 C339 1.499 . S
C342 C343 1.373 . S
C342 C344 1.389 . S
C343 H322 0.950 . S
C343 C342 1.373 . S
C343 C359 1.377 . S
C344 C342 1.389 . S
C344 C345 1.524 . S
C344 C358 1.377 . S
C345 C344 1.524 . S
C345 C346 1.397 . S
C345 C350 1.363 . S
C346 H323 0.950 . S
C346 C345 1.397 . S
C346 C347 1.334 . S
C347 H324 0.950 . S
C347 C346 1.334 . S
C347 C348 1.287 . S
C348 C347 1.287 . S
C348 C349 1.524 . S
C348 H367 0.913 . S
C349 H325 0.950 . S
C349 C348 1.524 . S
C349 C350 1.415 . S
C350 H326 0.950 . S
C350 C345 1.363 . S
C350 C349 1.415 . S
C351 H327 0.951 . S
C351 C352 1.366 . S
C351 C353 1.388 . S
C352 C351 1.366 . S
C352 C356 1.385 . S
C353 H328 0.951 . S
C353 C351 1.388 . S
C353 C354 1.366 . S
C354 C353 1.366 . S
C354 C355 1.414 . S
C354 C357 1.499 . S
C355 H329 0.950 . S
C355 C354 1.414 . S
C355 C356 1.374 . S
C356 H330 0.950 . S
C356 C352 1.385 . S
C356 C355 1.374 . S
C357 C354 1.499 . S
C357 C358 1.373 . S
C357 C359 1.389 . S
C358 H331 0.950 . S
C358 C344 1.377 . S
C358 C357 1.373 . S
C359 C343 1.377 . S
C359 C357 1.389 . S
C359 C360 1.524 . S
C360 C359 1.524 . S
C360 C361 1.397 . S
C360 C365 1.363 . S
C361 H332 0.950 . S
C361 C360 1.397 . S
C361 C362 1.334 . S
C362 H333 0.950 . S
C362 C361 1.334 . S
C362 C363 1.287 . S
C363 C362 1.287 . S
C363 C364 1.524 . S
C363 H366 0.999 . S
C364 H334 0.950 . S
C364 C363 1.524 . S
C364 C365 1.415 . S
C365 H335 0.950 . S
C365 C360 1.363 . S
C365 C364 1.415 . S
H366 C363 0.999 . S
H367 C348 0.913 . S
H368 C386 0.951 . S
H369 C388 0.951 . S
H370 C390 0.950 . S
H371 C391 0.950 . S
H372 C393 0.950 . S
H373 C396 0.950 . S
H374 C397 0.950 . S
H375 C399 0.950 . S
H376 C400 0.950 1_545 S
H377 C401 0.951 . S
H378 C403 0.951 . S
H379 C405 0.950 . S
H380 C406 0.950 . S
H381 C408 0.950 . S
H382 C411 0.950 . S
H383 C412 0.950 . S
H384 C414 0.950 . S
H385 C415 0.950 1_565 S
C386 H368 0.951 . S
C386 C387 1.366 . S
C386 C388 1.388 . S
C387 C386 1.366 . S
C387 C391 1.385 . S
C388 H369 0.951 . S
C388 C386 1.388 . S
C388 C389 1.366 . S
C389 C388 1.366 . S
C389 C390 1.414 . S
C389 C392 1.499 . S
C390 H370 0.950 . S
C390 C389 1.414 . S
C390 C391 1.374 . S
C391 H371 0.950 . S
C391 C387 1.385 . S
C391 C390 1.374 . S
C392 C389 1.499 . S
C392 C393 1.373 . S
C392 C394 1.389 . S
C393 H372 0.950 . S
C393 C392 1.373 . S
C393 C409 1.377 1_565 S
C394 C392 1.389 . S
C394 C395 1.524 . S
C394 C408 1.377 1_565 S
C395 C394 1.524 . S
C395 C396 1.397 . S
C395 C400 1.363 . S
C396 H373 0.950 . S
C396 C395 1.397 . S
C396 C397 1.334 . S
C397 H374 0.950 . S
C397 C396 1.334 . S
C397 C398 1.287 . S
C398 C397 1.287 . S
C398 C399 1.524 . S
C398 H417 0.913 . S
C399 H375 0.950 . S
C399 C398 1.524 . S
C399 C400 1.415 . S
C400 H376 0.950 1_565 S
C400 C395 1.363 . S
C400 C399 1.415 . S
C401 H377 0.951 . S
C401 C402 1.366 . S
C401 C403 1.388 . S
C402 C401 1.366 . S
C402 C406 1.385 . S
C403 H378 0.951 . S
C403 C401 1.388 . S
C403 C404 1.366 . S
C404 C403 1.366 . S
C404 C405 1.414 . S
C404 C407 1.499 . S
C405 H379 0.950 . S
C405 C404 1.414 . S
C405 C406 1.374 . S
C406 H380 0.950 . S
C406 C402 1.385 . S
C406 C405 1.374 . S
C407 C404 1.499 . S
C407 C408 1.373 . S
C407 C409 1.389 . S
C408 H381 0.950 . S
C408 C394 1.377 1_545 S
C408 C407 1.373 . S
C409 C393 1.377 1_545 S
C409 C407 1.389 . S
C409 C410 1.524 . S
C410 C409 1.524 . S
C410 C411 1.397 . S
C410 C415 1.363 . S
C411 H382 0.950 . S
C411 C410 1.397 . S
C411 C412 1.334 . S
C412 H383 0.950 . S
C412 C411 1.334 . S
C412 C413 1.287 . S
C413 C412 1.287 . S
C413 C414 1.524 . S
C413 H416 0.999 . S
C414 H384 0.950 . S
C414 C413 1.524 . S
C414 C415 1.415 . S
C415 H385 0.950 1_545 S
C415 C410 1.363 . S
C415 C414 1.415 . S
H416 C413 0.999 . S
H417 C398 0.913 . S
H418 C436 0.951 . S
H419 C438 0.951 . S
H420 C440 0.950 . S
H421 C441 0.950 . S
H422 C443 0.950 . S
H423 C446 0.950 . S
H424 C447 0.950 . S
H425 C449 0.950 . S
H426 C450 0.950 . S
H427 C451 0.951 . S
H428 C453 0.951 . S
H429 C455 0.950 . S
H430 C456 0.950 . S
H431 C458 0.950 . S
H432 C461 0.950 . S
H433 C462 0.950 . S
H434 C464 0.950 . S
H435 C465 0.950 . S
C436 H418 0.951 . S
C436 C437 1.366 . S
C436 C438 1.388 . S
C437 C436 1.366 . S
C437 C441 1.385 . S
C438 H419 0.951 . S
C438 C436 1.388 . S
C438 C439 1.366 . S
C439 C438 1.366 . S
C439 C440 1.414 . S
C439 C442 1.499 . S
C440 H420 0.950 . S
C440 C439 1.414 . S
C440 C441 1.374 . S
C441 H421 0.950 . S
C441 C437 1.385 . S
C441 C440 1.374 . S
C442 C439 1.499 . S
C442 C443 1.373 . S
C442 C444 1.389 . S
C443 H422 0.950 . S
C443 C442 1.373 . S
C443 C459 1.377 . S
C444 C442 1.389 . S
C444 C445 1.524 . S
C444 C458 1.377 . S
C445 C444 1.524 . S
C445 C446 1.397 . S
C445 C450 1.363 . S
C446 H423 0.950 . S
C446 C445 1.397 . S
C446 C447 1.334 . S
C447 H424 0.950 . S
C447 C446 1.334 . S
C447 C448 1.287 . S
C448 C447 1.287 . S
C448 C449 1.524 . S
C448 H467 0.913 . S
C449 H425 0.950 . S
C449 C448 1.524 . S
C449 C450 1.415 . S
C450 H426 0.950 . S
C450 C445 1.363 . S
C450 C449 1.415 . S
C451 H427 0.951 . S
C451 C452 1.366 . S
C451 C453 1.388 . S
C452 C451 1.366 . S
C452 C456 1.385 . S
C453 H428 0.951 . S
C453 C451 1.388 . S
C453 C454 1.366 . S
C454 C453 1.366 . S
C454 C455 1.414 . S
C454 C457 1.499 . S
C455 H429 0.950 . S
C455 C454 1.414 . S
C455 C456 1.374 . S
C456 H430 0.950 . S
C456 C452 1.385 . S
C456 C455 1.374 . S
C457 C454 1.499 . S
C457 C458 1.373 . S
C457 C459 1.389 . S
C458 H431 0.950 . S
C458 C444 1.377 . S
C458 C457 1.373 . S
C459 C443 1.377 . S
C459 C457 1.389 . S
C459 C460 1.524 . S
C460 C459 1.524 . S
C460 C461 1.397 . S
C460 C465 1.363 . S
C461 H432 0.950 . S
C461 C460 1.397 . S
C461 C462 1.334 . S
C462 H433 0.950 . S
C462 C461 1.334 . S
C462 C463 1.287 . S
C463 C462 1.287 . S
C463 C464 1.524 . S
C463 H466 0.999 . S
C464 H434 0.950 . S
C464 C463 1.524 . S
C464 C465 1.415 . S
C465 H435 0.950 . S
C465 C460 1.363 . S
C465 C464 1.415 . S
H466 C463 0.999 . S
H467 C448 0.913 . S
H468 C486 0.951 . S
H469 C488 0.951 . S
H470 C490 0.950 . S
H471 C491 0.950 . S
H472 C493 0.950 . S
H473 C496 0.950 . S
H474 C497 0.950 . S
H475 C499 0.950 . S
H476 C500 0.950 . S
H477 C501 0.951 . S
H478 C503 0.951 . S
H479 C505 0.950 . S
H480 C506 0.950 . S
H481 C508 0.950 . S
H482 C511 0.950 . S
H483 C512 0.950 . S
H484 C514 0.950 . S
H485 C515 0.950 . S
C486 H468 0.951 . S
C486 C487 1.366 . S
C486 C488 1.388 . S
C487 C486 1.366 . S
C487 C491 1.385 . S
C488 H469 0.951 . S
C488 C486 1.388 . S
C488 C489 1.366 . S
C489 C488 1.366 . S
C489 C490 1.414 . S
C489 C492 1.499 . S
C490 H470 0.950 . S
C490 C489 1.414 . S
C490 C491 1.374 . S
C491 H471 0.950 . S
C491 C487 1.385 . S
C491 C490 1.374 . S
C492 C489 1.499 . S
C492 C493 1.373 . S
C492 C494 1.389 . S
C493 H472 0.950 . S
C493 C492 1.373 . S
C493 C509 1.377 1_565 S
C494 C492 1.389 . S
C494 C495 1.524 . S
C494 C508 1.377 1_565 S
C495 C494 1.524 . S
C495 C496 1.397 . S
C495 C500 1.363 . S
C496 H473 0.950 . S
C496 C495 1.397 . S
C496 C497 1.334 . S
C497 H474 0.950 . S
C497 C496 1.334 . S
C497 C498 1.287 . S
C498 C497 1.287 . S
C498 C499 1.524 . S
C498 H517 0.913 . S
C499 H475 0.950 . S
C499 C498 1.524 . S
C499 C500 1.415 . S
C500 H476 0.950 . S
C500 C495 1.363 . S
C500 C499 1.415 . S
C501 H477 0.951 . S
C501 C502 1.366 . S
C501 C503 1.388 . S
C502 C501 1.366 . S
C502 C506 1.385 . S
C503 H478 0.951 . S
C503 C501 1.388 . S
C503 C504 1.366 . S
C504 C503 1.366 . S
C504 C505 1.414 . S
C504 C507 1.499 . S
C505 H479 0.950 . S
C505 C504 1.414 . S
C505 C506 1.374 . S
C506 H480 0.950 . S
C506 C502 1.385 . S
C506 C505 1.374 . S
C507 C504 1.499 . S
C507 C508 1.373 . S
C507 C509 1.389 . S
C508 H481 0.950 . S
C508 C494 1.377 1_545 S
C508 C507 1.373 . S
C509 C493 1.377 1_545 S
C509 C507 1.389 . S
C509 C510 1.524 . S
C510 C509 1.524 . S
C510 C511 1.397 . S
C510 C515 1.363 . S
C511 H482 0.950 . S
C511 C510 1.397 . S
C511 C512 1.334 . S
C512 H483 0.950 . S
C512 C511 1.334 . S
C512 C513 1.287 . S
C513 C512 1.287 . S
C513 C514 1.524 . S
C513 H516 0.999 . S
C514 H484 0.950 . S
C514 C513 1.524 . S
C514 C515 1.415 . S
C515 H485 0.950 . S
C515 C510 1.363 . S
C515 C514 1.415 . S
H516 C513 0.999 . S
H517 C498 0.913 . S
H518 C536 0.951 . S
H519 C538 0.951 . S
H520 C540 0.950 . S
H521 C541 0.950 . S
H522 C543 0.950 . S
H523 C546 0.950 . S
H524 C547 0.950 . S
H525 C549 0.950 . S
H526 C550 0.950 . S
H527 C551 0.951 . S
H528 C553 0.951 . S
H529 C555 0.950 . S
H530 C556 0.950 . S
H531 C558 0.950 . S
H532 C561 0.950 . S
H533 C562 0.950 . S
H534 C564 0.950 . S
H535 C565 0.950 . S
C536 H518 0.951 . S
C536 C537 1.366 . S
C536 C538 1.388 . S
C537 C536 1.366 . S
C537 C541 1.385 . S
C538 H519 0.951 . S
C538 C536 1.388 . S
C538 C539 1.366 . S
C539 C538 1.366 . S
C539 C540 1.414 . S
C539 C542 1.499 . S
C540 H520 0.950 . S
C540 C539 1.414 . S
C540 C541 1.374 . S
C541 H521 0.950 . S
C541 C537 1.385 . S
C541 C540 1.374 . S
C542 C539 1.499 . S
C542 C543 1.373 . S
C542 C544 1.389 . S
C543 H522 0.950 . S
C543 C542 1.373 . S
C543 C559 1.377 . S
C544 C542 1.389 . S
C544 C545 1.524 . S
C544 C558 1.377 . S
C545 C544 1.524 . S
C545 C546 1.397 . S
C545 C550 1.363 . S
C546 H523 0.950 . S
C546 C545 1.397 . S
C546 C547 1.334 . S
C547 H524 0.950 . S
C547 C546 1.334 . S
C547 C548 1.287 . S
C548 C547 1.287 . S
C548 C549 1.524 . S
C548 H567 0.913 . S
C549 H525 0.950 . S
C549 C548 1.524 . S
C549 C550 1.415 . S
C550 H526 0.950 . S
C550 C545 1.363 . S
C550 C549 1.415 . S
C551 H527 0.951 . S
C551 C552 1.366 . S
C551 C553 1.388 . S
C552 C551 1.366 . S
C552 C556 1.385 . S
C553 H528 0.951 . S
C553 C551 1.388 . S
C553 C554 1.366 . S
C554 C553 1.366 . S
C554 C555 1.414 . S
C554 C557 1.499 . S
C555 H529 0.950 . S
C555 C554 1.414 . S
C555 C556 1.374 . S
C556 H530 0.950 . S
C556 C552 1.385 . S
C556 C555 1.374 . S
C557 C554 1.499 . S
C557 C558 1.373 . S
C557 C559 1.389 . S
C558 H531 0.950 . S
C558 C544 1.377 . S
C558 C557 1.373 . S
C559 C543 1.377 . S
C559 C557 1.389 . S
C559 C560 1.524 . S
C560 C559 1.524 . S
C560 C561 1.397 . S
C560 C565 1.363 . S
C561 H532 0.950 . S
C561 C560 1.397 . S
C561 C562 1.334 . S
C562 H533 0.950 . S
C562 C561 1.334 . S
C562 C563 1.287 . S
C563 C562 1.287 . S
C563 C564 1.524 . S
C563 H566 0.999 . S
C564 H534 0.950 . S
C564 C563 1.524 . S
C564 C565 1.415 . S
C565 H535 0.950 . S
C565 C560 1.363 . S
C565 C564 1.415 . S
H566 C563 0.999 . S
H567 C548 0.913 . S
H568 C586 0.951 1_556 S
H569 C588 0.951 1_556 S
H570 C590 0.950 . S
H571 C591 0.950 . S
H572 C593 0.950 . S
H573 C596 0.950 . S
H574 C597 0.950 . S
H575 C599 0.950 . S
H576 C600 0.950 . S
H577 C601 0.951 1_554 S
H578 C603 0.951 1_554 S
H579 C605 0.950 . S
H580 C606 0.950 . S
H581 C608 0.950 . S
H582 C611 0.950 . S
H583 C612 0.950 . S
H584 C614 0.950 . S
H585 C615 0.950 . S
C586 H568 0.951 1_554 S
C586 C587 1.366 . S
C586 C588 1.388 . S
C587 C586 1.366 . S
C587 C591 1.385 . S
C588 H569 0.951 1_554 S
C588 C586 1.388 . S
C588 C589 1.366 . S
C589 C588 1.366 . S
C589 C590 1.414 . S
C589 C592 1.499 . S
C590 H570 0.950 . S
C590 C589 1.414 . S
C590 C591 1.374 . S
C591 H571 0.950 . S
C591 C587 1.385 . S
C591 C590 1.374 . S
C592 C589 1.499 . S
C592 C593 1.373 . S
C592 C594 1.389 1_554 S
C593 H572 0.950 . S
C593 C592 1.373 . S
C593 C609 1.377 . S
C594 C592 1.389 1_556 S
C594 C595 1.524 . S
C594 C608 1.377 . S
C595 C594 1.524 . S
C595 C596 1.397 . S
C595 C600 1.363 . S
C596 H573 0.950 . S
C596 C595 1.397 . S
C596 C597 1.334 . S
C597 H574 0.950 . S
C597 C596 1.334 . S
C597 C598 1.287 . S
C598 C597 1.287 . S
C598 C599 1.524 . S
C598 H617 0.913 . S
C599 H575 0.950 . S
C599 C598 1.524 . S
C599 C600 1.415 . S
C600 H576 0.950 . S
C600 C595 1.363 . S
C600 C599 1.415 . S
C601 H577 0.951 1_556 S
C601 C602 1.366 . S
C601 C603 1.388 . S
C602 C601 1.366 . S
C602 C606 1.385 . S
C603 H578 0.951 1_556 S
C603 C601 1.388 . S
C603 C604 1.366 . S
C604 C603 1.366 . S
C604 C605 1.414 . S
C604 C607 1.499 . S
C605 H579 0.950 . S
C605 C604 1.414 . S
C605 C606 1.374 . S
C606 H580 0.950 . S
C606 C602 1.385 . S
C606 C605 1.374 . S
C607 C604 1.499 . S
C607 C608 1.373 . S
C607 C609 1.389 1_556 S
C608 H581 0.950 . S
C608 C594 1.377 . S
C608 C607 1.373 . S
C609 C593 1.377 . S
C609 C607 1.389 1_554 S
C609 C610 1.524 . S
C610 C609 1.524 . S
C610 C611 1.397 . S
C610 C615 1.363 . S
C611 H582 0.950 . S
C611 C610 1.397 . S
C611 C612 1.334 . S
C612 H583 0.950 . S
C612 C611 1.334 . S
C612 C613 1.287 . S
C613 C612 1.287 . S
C613 C614 1.524 . S
C613 H616 0.999 . S
C614 H584 0.950 . S
C614 C613 1.524 . S
C614 C615 1.415 . S
C615 H585 0.950 . S
C615 C610 1.363 . S
C615 C614 1.415 . S
H616 C613 0.999 . S
H617 C598 0.913 . S
H618 C636 0.951 . S
H619 C638 0.951 . S
H620 C640 0.950 . S
H621 C641 0.950 . S
H622 C643 0.950 . S
H623 C646 0.950 . S
H624 C647 0.950 . S
H625 C649 0.950 . S
H626 C650 0.950 . S
H627 C651 0.951 . S
H628 C653 0.951 . S
H629 C655 0.950 . S
H630 C656 0.950 . S
H631 C658 0.950 . S
H632 C661 0.950 . S
H633 C662 0.950 . S
H634 C664 0.950 . S
H635 C665 0.950 . S
C636 H618 0.951 . S
C636 C637 1.366 . S
C636 C638 1.388 . S
C637 C636 1.366 . S
C637 C641 1.385 . S
C638 H619 0.951 . S
C638 C636 1.388 . S
C638 C639 1.366 . S
C639 C638 1.366 . S
C639 C640 1.414 . S
C639 C642 1.499 . S
C640 H620 0.950 . S
C640 C639 1.414 . S
C640 C641 1.374 . S
C641 H621 0.950 . S
C641 C637 1.385 . S
C641 C640 1.374 . S
C642 C639 1.499 . S
C642 C643 1.373 . S
C642 C644 1.389 1_554 S
C643 H622 0.950 . S
C643 C642 1.373 . S
C643 C659 1.377 1_565 S
C644 C642 1.389 1_556 S
C644 C645 1.524 . S
C644 C658 1.377 1_565 S
C645 C644 1.524 . S
C645 C646 1.397 . S
C645 C650 1.363 . S
C646 H623 0.950 . S
C646 C645 1.397 . S
C646 C647 1.334 . S
C647 H624 0.950 . S
C647 C646 1.334 . S
C647 C648 1.287 . S
C648 C647 1.287 . S
C648 C649 1.524 . S
C648 H667 0.913 . S
C649 H625 0.950 . S
C649 C648 1.524 . S
C649 C650 1.415 . S
C650 H626 0.950 . S
C650 C645 1.363 . S
C650 C649 1.415 . S
C651 H627 0.951 . S
C651 C652 1.366 . S
C651 C653 1.388 . S
C652 C651 1.366 . S
C652 C656 1.385 . S
C653 H628 0.951 . S
C653 C651 1.388 . S
C653 C654 1.366 . S
C654 C653 1.366 . S
C654 C655 1.414 . S
C654 C657 1.499 . S
C655 H629 0.950 . S
C655 C654 1.414 . S
C655 C656 1.374 . S
C656 H630 0.950 . S
C656 C652 1.385 . S
C656 C655 1.374 . S
C657 C654 1.499 . S
C657 C658 1.373 . S
C657 C659 1.389 1_556 S
C658 H631 0.950 . S
C658 C644 1.377 1_545 S
C658 C657 1.373 . S
C659 C643 1.377 1_545 S
C659 C657 1.389 1_554 S
C659 C660 1.524 . S
C660 C659 1.524 . S
C660 C661 1.397 . S
C660 C665 1.363 . S
C661 H632 0.950 . S
C661 C660 1.397 . S
C661 C662 1.334 . S
C662 H633 0.950 . S
C662 C661 1.334 . S
C662 C663 1.287 . S
C663 C662 1.287 . S
C663 C664 1.524 . S
C663 H666 0.999 . S
C664 H634 0.950 . S
C664 C663 1.524 . S
C664 C665 1.415 . S
C665 H635 0.950 . S
C665 C660 1.363 . S
C665 C664 1.415 . S
H666 C663 0.999 . S
H667 C648 0.913 . S
H668 C686 0.951 1_554 S
H669 C688 0.951 . S
H670 C690 0.950 . S
H671 C691 0.950 . S
H672 C693 0.950 . S
H673 C696 0.950 . S
H674 C697 0.950 . S
H675 C699 0.950 . S
H676 C700 0.950 . S
H677 C701 0.951 1_556 S
H678 C703 0.951 . S
H679 C705 0.950 . S
H680 C706 0.950 . S
H681 C708 0.950 . S
H682 C711 0.950 . S
H683 C712 0.950 . S
H684 C714 0.950 . S
H685 C715 0.950 . S
C686 H668 0.951 1_556 S
C686 C687 1.366 . S
C686 C688 1.388 1_556 S
C687 C686 1.366 . S
C687 C691 1.385 . S
C688 H669 0.951 . S
C688 C686 1.388 1_554 S
C688 C689 1.366 1_554 S
C689 C688 1.366 1_556 S
C689 C690 1.414 . S
C689 C692 1.499 . S
C690 H670 0.950 . S
C690 C689 1.414 . S
C690 C691 1.374 . S
C691 H671 0.950 . S
C691 C687 1.385 . S
C691 C690 1.374 . S
C692 C689 1.499 . S
C692 C693 1.373 . S
C692 C694 1.389 1_556 S
C693 H672 0.950 . S
C693 C692 1.373 . S
C693 C709 1.377 . S
C694 C692 1.389 1_554 S
C694 C695 1.524 . S
C694 C708 1.377 . S
C695 C694 1.524 . S
C695 C696 1.397 . S
C695 C700 1.363 . S
C696 H673 0.950 . S
C696 C695 1.397 . S
C696 C697 1.334 . S
C697 H674 0.950 . S
C697 C696 1.334 . S
C697 C698 1.287 . S
C698 C697 1.287 . S
C698 C699 1.524 . S
C698 H717 0.913 . S
C699 H675 0.950 . S
C699 C698 1.524 . S
C699 C700 1.415 . S
C700 H676 0.950 . S
C700 C695 1.363 . S
C700 C699 1.415 . S
C701 H677 0.951 1_554 S
C701 C702 1.366 . S
C701 C703 1.388 1_554 S
C702 C701 1.366 . S
C702 C706 1.385 . S
C703 H678 0.951 . S
C703 C701 1.388 1_556 S
C703 C704 1.366 1_556 S
C704 C703 1.366 1_554 S
C704 C705 1.414 . S
C704 C707 1.499 . S
C705 H679 0.950 . S
C705 C704 1.414 . S
C705 C706 1.374 . S
C706 H680 0.950 . S
C706 C702 1.385 . S
C706 C705 1.374 . S
C707 C704 1.499 . S
C707 C708 1.373 . S
C707 C709 1.389 1_554 S
C708 H681 0.950 . S
C708 C694 1.377 . S
C708 C707 1.373 . S
C709 C693 1.377 . S
C709 C707 1.389 1_556 S
C709 C710 1.524 . S
C710 C709 1.524 . S
C710 C711 1.397 . S
C710 C715 1.363 . S
C711 H682 0.950 . S
C711 C710 1.397 . S
C711 C712 1.334 . S
C712 H683 0.950 . S
C712 C711 1.334 . S
C712 C713 1.287 . S
C713 C712 1.287 . S
C713 C714 1.524 . S
C713 H716 0.999 . S
C714 H684 0.950 . S
C714 C713 1.524 . S
C714 C715 1.415 . S
C715 H685 0.950 . S
C715 C710 1.363 . S
C715 C714 1.415 . S
H716 C713 0.999 . S
H717 C698 0.913 . S
H718 C736 0.951 1_554 S
H719 C738 0.950 1_554 S
H720 C740 0.950 . S
H721 C741 0.950 . S
H722 C743 0.950 . S
H723 C746 0.950 . S
H724 C747 0.950 . S
H725 C749 0.950 . S
H726 C750 0.950 . S
H727 C751 0.951 1_556 S
H728 C753 0.950 1_556 S
H729 C755 0.950 . S
H730 C756 0.950 . S
H731 C758 0.950 . S
H732 C761 0.950 . S
H733 C762 0.950 . S
H734 C764 0.950 . S
H735 C765 0.950 . S
C736 H718 0.951 1_556 S
C736 C737 1.366 . S
C736 C738 1.388 . S
C737 C736 1.366 . S
C737 C741 1.385 . S
C738 H719 0.950 1_556 S
C738 C736 1.388 . S
C738 C739 1.366 . S
C739 C738 1.366 . S
C739 C740 1.414 . S
C739 C742 1.499 . S
C740 H720 0.950 . S
C740 C739 1.414 . S
C740 C741 1.374 . S
C741 H721 0.950 . S
C741 C737 1.385 . S
C741 C740 1.374 . S
C742 C739 1.499 . S
C742 C743 1.373 . S
C742 C744 1.389 1_556 S
C743 H722 0.950 . S
C743 C742 1.373 . S
C743 C759 1.377 1_545 S
C744 C742 1.389 1_554 S
C744 C745 1.524 . S
C744 C758 1.377 1_545 S
C745 C744 1.524 . S
C745 C746 1.397 . S
C745 C750 1.363 . S
C746 H723 0.950 . S
C746 C745 1.397 . S
C746 C747 1.334 . S
C747 H724 0.950 . S
C747 C746 1.334 . S
C747 C748 1.287 . S
C748 C747 1.287 . S
C748 C749 1.524 . S
C748 H767 0.913 . S
C749 H725 0.950 . S
C749 C748 1.524 . S
C749 C750 1.415 . S
C750 H726 0.950 . S
C750 C745 1.363 . S
C750 C749 1.415 . S
C751 H727 0.951 1_554 S
C751 C752 1.366 . S
C751 C753 1.388 . S
C752 C751 1.366 . S
C752 C756 1.385 . S
C753 H728 0.950 1_554 S
C753 C751 1.388 . S
C753 C754 1.366 . S
C754 C753 1.366 . S
C754 C755 1.414 . S
C754 C757 1.499 . S
C755 H729 0.950 . S
C755 C754 1.414 . S
C755 C756 1.374 . S
C756 H730 0.950 . S
C756 C752 1.385 . S
C756 C755 1.374 . S
C757 C754 1.499 . S
C757 C758 1.373 . S
C757 C759 1.389 1_554 S
C758 H731 0.950 . S
C758 C744 1.377 1_565 S
C758 C757 1.373 . S
C759 C743 1.377 1_565 S
C759 C757 1.389 1_556 S
C759 C760 1.524 . S
C760 C759 1.524 . S
C760 C761 1.397 . S
C760 C765 1.363 . S
C761 H732 0.950 . S
C761 C760 1.397 . S
C761 C762 1.334 . S
C762 H733 0.950 . S
C762 C761 1.334 . S
C762 C763 1.287 . S
C763 C762 1.287 . S
C763 C764 1.524 . S
C763 H766 0.999 . S
C764 H734 0.950 . S
C764 C763 1.524 . S
C764 C765 1.415 . S
C765 H735 0.950 . S
C765 C760 1.363 . S
C765 C764 1.415 . S
H766 C763 0.999 . S
H767 C748 0.913 . S
H768 C786 0.951 . S
H769 C788 0.951 . S
H770 C790 0.950 . S
H771 C791 0.950 . S
H772 C793 0.950 . S
H773 C796 0.950 . S
H774 C797 0.950 . S
H775 C799 0.950 . S
H776 C800 0.950 . S
H777 C801 0.951 . S
H778 C803 0.951 . S
H779 C805 0.950 . S
H780 C806 0.950 . S
H781 C808 0.950 . S
H782 C811 0.949 1_556 S
H783 C812 0.950 . S
H784 C814 0.950 . S
H785 C815 0.950 . S
C786 H768 0.951 . S
C786 C787 1.366 . S
C786 C788 1.388 . S
C787 C786 1.366 . S
C787 C791 1.385 . S
C788 H769 0.951 . S
C788 C786 1.388 . S
C788 C789 1.366 . S
C789 C788 1.366 . S
C789 C790 1.414 . S
C789 C792 1.499 . S
C790 H770 0.950 . S
C790 C789 1.414 . S
C790 C791 1.374 . S
C791 H771 0.950 . S
C791 C787 1.385 . S
C791 C790 1.374 . S
C792 C789 1.499 . S
C792 C793 1.373 . S
C792 C794 1.389 . S
C793 H772 0.950 . S
C793 C792 1.373 . S
C793 C809 1.377 . S
C794 C792 1.389 . S
C794 C795 1.524 . S
C794 C808 1.377 . S
C795 C794 1.524 . S
C795 C796 1.397 . S
C795 C800 1.363 . S
C796 H773 0.950 . S
C796 C795 1.397 . S
C796 C797 1.334 . S
C797 H774 0.950 . S
C797 C796 1.334 . S
C797 C798 1.287 . S
C798 C797 1.287 . S
C798 C799 1.524 . S
C798 H817 0.913 . S
C799 H775 0.950 . S
C799 C798 1.524 . S
C799 C800 1.415 . S
C800 H776 0.950 . S
C800 C795 1.363 . S
C800 C799 1.415 . S
C801 H777 0.951 . S
C801 C802 1.366 . S
C801 C803 1.388 . S
C802 C801 1.366 . S
C802 C806 1.385 . S
C803 H778 0.951 . S
C803 C801 1.388 . S
C803 C804 1.366 . S
C804 C803 1.366 . S
C804 C805 1.414 . S
C804 C807 1.499 1_556 S
C805 H779 0.950 . S
C805 C804 1.414 . S
C805 C806 1.374 . S
C806 H780 0.950 . S
C806 C802 1.385 . S
C806 C805 1.374 . S
C807 C804 1.499 1_554 S
C807 C808 1.373 . S
C807 C809 1.389 . S
C808 H781 0.950 . S
C808 C794 1.377 . S
C808 C807 1.373 . S
C809 C793 1.377 . S
C809 C807 1.389 . S
C809 C810 1.524 . S
C810 C809 1.524 . S
C810 C811 1.401 . S
C810 C815 1.363 . S
C811 H782 0.949 1_554 S
C811 C810 1.401 . S
C811 C812 1.331 1_554 S
C812 H783 0.950 . S
C812 C811 1.331 1_556 S
C812 C813 1.287 . S
C813 C812 1.287 . S
C813 C814 1.524 1_556 S
C813 H816 0.999 . S
C814 H784 0.950 . S
C814 C813 1.524 1_554 S
C814 C815 1.415 . S
C815 H785 0.950 . S
C815 C810 1.363 . S
C815 C814 1.415 . S
H816 C813 0.999 . S
H817 C798 0.913 . S
H818 C836 0.951 . S
H819 C838 0.951 . S
H820 C840 0.950 . S
H821 C841 0.950 . S
H822 C843 0.950 . S
H823 C846 0.950 . S
H824 C847 0.950 . S
H825 C849 0.950 . S
H826 C850 0.950 . S
H827 C851 0.951 . S
H828 C853 0.951 . S
H829 C855 0.950 . S
H830 C856 0.950 . S
H831 C858 0.950 . S
H832 C861 0.950 1_556 S
H833 C862 0.950 . S
H834 C864 0.950 . S
H835 C865 0.950 . S
C836 H818 0.951 . S
C836 C837 1.366 . S
C836 C838 1.388 . S
C837 C836 1.366 . S
C837 C841 1.385 . S
C838 H819 0.951 . S
C838 C836 1.388 . S
C838 C839 1.366 . S
C839 C838 1.366 . S
C839 C840 1.414 . S
C839 C842 1.499 . S
C840 H820 0.950 . S
C840 C839 1.414 . S
C840 C841 1.374 . S
C841 H821 0.950 . S
C841 C837 1.385 . S
C841 C840 1.374 . S
C842 C839 1.499 . S
C842 C843 1.373 . S
C842 C844 1.389 . S
C843 H822 0.950 . S
C843 C842 1.373 . S
C843 C859 1.377 . S
C844 C842 1.389 . S
C844 C845 1.524 . S
C844 C858 1.377 . S
C845 C844 1.524 . S
C845 C846 1.397 . S
C845 C850 1.363 . S
C846 H823 0.950 . S
C846 C845 1.397 . S
C846 C847 1.334 . S
C847 H824 0.950 . S
C847 C846 1.334 . S
C847 C848 1.287 . S
C848 C847 1.287 . S
C848 C849 1.524 . S
C848 H867 0.913 . S
C849 H825 0.950 . S
C849 C848 1.524 . S
C849 C850 1.415 . S
C850 H826 0.950 . S
C850 C845 1.363 . S
C850 C849 1.415 . S
C851 H827 0.951 . S
C851 C852 1.366 . S
C851 C853 1.388 . S
C852 C851 1.366 . S
C852 C856 1.385 . S
C853 H828 0.951 . S
C853 C851 1.388 . S
C853 C854 1.366 . S
C854 C853 1.366 . S
C854 C855 1.414 . S
C854 C857 1.499 1_556 S
C855 H829 0.950 . S
C855 C854 1.414 . S
C855 C856 1.374 . S
C856 H830 0.950 . S
C856 C852 1.385 . S
C856 C855 1.374 . S
C857 C854 1.499 1_554 S
C857 C858 1.373 . S
C857 C859 1.389 . S
C858 H831 0.950 . S
C858 C844 1.377 . S
C858 C857 1.373 . S
C859 C843 1.377 . S
C859 C857 1.389 . S
C859 C860 1.524 . S
C860 C859 1.524 . S
C860 C861 1.397 . S
C860 C865 1.363 . S
C861 H832 0.950 1_554 S
C861 C860 1.397 . S
C861 C862 1.334 1_554 S
C862 H833 0.950 . S
C862 C861 1.334 1_556 S
C862 C863 1.287 . S
C863 C862 1.287 . S
C863 C864 1.524 1_556 S
C863 H866 0.999 . S
C864 H834 0.950 . S
C864 C863 1.524 1_554 S
C864 C865 1.415 . S
C865 H835 0.950 . S
C865 C860 1.363 . S
C865 C864 1.415 . S
H866 C863 0.999 . S
H867 C848 0.913 . S
H868 C886 0.951 . S
H869 C888 0.951 . S
H870 C890 0.950 . S
H871 C891 0.950 . S
H872 C893 0.950 . S
H873 C896 0.950 1_554 S
H874 C897 0.950 . S
H875 C899 0.950 . S
H876 C900 0.950 . S
H877 C901 0.951 . S
H878 C903 0.951 . S
H879 C905 0.950 . S
H880 C906 0.950 . S
H881 C908 0.950 . S
H882 C911 0.950 . S
H883 C912 0.950 . S
H884 C914 0.950 . S
H885 C915 0.950 . S
C886 H868 0.951 . S
C886 C887 1.366 . S
C886 C888 1.388 . S
C887 C886 1.366 . S
C887 C891 1.385 . S
C888 H869 0.951 . S
C888 C886 1.388 . S
C888 C889 1.366 . S
C889 C888 1.366 . S
C889 C890 1.414 . S
C889 C892 1.499 1_554 S
C890 H870 0.950 . S
C890 C889 1.414 . S
C890 C891 1.374 . S
C891 H871 0.950 . S
C891 C887 1.385 . S
C891 C890 1.374 . S
C892 C889 1.499 1_556 S
C892 C893 1.373 . S
C892 C894 1.389 . S
C893 H872 0.950 . S
C893 C892 1.373 . S
C893 C909 1.377 . S
C894 C892 1.389 . S
C894 C895 1.524 . S
C894 C908 1.377 . S
C895 C894 1.524 . S
C895 C896 1.397 . S
C895 C900 1.363 . S
C896 H873 0.950 1_556 S
C896 C895 1.397 . S
C896 C897 1.334 1_556 S
C897 H874 0.950 . S
C897 C896 1.334 1_554 S
C897 C898 1.287 . S
C898 C897 1.287 . S
C898 C899 1.524 1_554 S
C898 H917 0.913 . S
C899 H875 0.950 . S
C899 C898 1.524 1_556 S
C899 C900 1.415 . S
C900 H876 0.950 . S
C900 C895 1.363 . S
C900 C899 1.415 . S
C901 H877 0.951 . S
C901 C902 1.366 . S
C901 C903 1.388 . S
C902 C901 1.366 . S
C902 C906 1.385 . S
C903 H878 0.951 . S
C903 C901 1.388 . S
C903 C904 1.366 . S
C904 C903 1.366 . S
C904 C905 1.414 . S
C904 C907 1.499 . S
C905 H879 0.950 . S
C905 C904 1.414 . S
C905 C906 1.374 . S
C906 H880 0.950 . S
C906 C902 1.385 . S
C906 C905 1.374 . S
C907 C904 1.499 . S
C907 C908 1.373 . S
C907 C909 1.389 . S
C908 H881 0.950 . S
C908 C894 1.377 . S
C908 C907 1.373 . S
C909 C893 1.377 . S
C909 C907 1.389 . S
C909 C910 1.524 . S
C910 C909 1.524 . S
C910 C911 1.397 . S
C910 C915 1.363 . S
C911 H882 0.950 . S
C911 C910 1.397 . S
C911 C912 1.334 . S
C912 H883 0.950 . S
C912 C911 1.334 . S
C912 C913 1.287 . S
C913 C912 1.287 . S
C913 C914 1.524 . S
C913 H916 0.999 . S
C914 H884 0.950 . S
C914 C913 1.524 . S
C914 C915 1.415 . S
C915 H885 0.950 . S
C915 C910 1.363 . S
C915 C914 1.415 . S
H916 C913 0.999 . S
H917 C898 0.913 . S
H918 C936 0.951 . S
H919 C938 0.951 . S
H920 C940 0.950 . S
H921 C941 0.950 . S
H922 C943 0.950 . S
H923 C946 0.950 . S
H924 C947 0.950 . S
H925 C949 0.950 . S
H926 C950 0.950 . S
H927 C951 0.951 . S
H928 C953 0.951 . S
H929 C955 0.950 . S
H930 C956 0.950 . S
H931 C958 0.950 . S
H932 C961 0.950 . S
H933 C962 0.950 . S
H934 C964 0.950 . S
H935 C965 0.950 . S
C936 H918 0.951 . S
C936 C937 1.366 . S
C936 C938 1.388 . S
C937 C936 1.366 . S
C937 C941 1.385 . S
C938 H919 0.951 . S
C938 C936 1.388 . S
C938 C939 1.366 . S
C939 C938 1.366 . S
C939 C940 1.414 . S
C939 C942 1.499 . S
C940 H920 0.950 . S
C940 C939 1.414 . S
C940 C941 1.374 . S
C941 H921 0.950 . S
C941 C937 1.385 . S
C941 C940 1.374 . S
C942 C939 1.499 . S
C942 C943 1.373 . S
C942 C944 1.389 . S
C943 H922 0.950 . S
C943 C942 1.373 . S
C943 C959 1.377 . S
C944 C942 1.389 . S
C944 C945 1.524 . S
C944 C958 1.377 . S
C945 C944 1.524 . S
C945 C946 1.397 . S
C945 C950 1.363 . S
C946 H923 0.950 . S
C946 C945 1.397 . S
C946 C947 1.334 . S
C947 H924 0.950 . S
C947 C946 1.334 . S
C947 C948 1.287 . S
C948 C947 1.287 . S
C948 C949 1.524 . S
C948 H967 0.913 . S
C949 H925 0.950 . S
C949 C948 1.524 . S
C949 C950 1.415 . S
C950 H926 0.950 . S
C950 C945 1.363 . S
C950 C949 1.415 . S
C951 H927 0.951 . S
C951 C952 1.366 . S
C951 C953 1.388 . S
C952 C951 1.366 . S
C952 C956 1.385 . S
C953 H928 0.951 . S
C953 C951 1.388 . S
C953 C954 1.366 . S
C954 C953 1.366 . S
C954 C955 1.414 . S
C954 C957 1.499 1_554 S
C955 H929 0.950 . S
C955 C954 1.414 . S
C955 C956 1.374 . S
C956 H930 0.950 . S
C956 C952 1.385 . S
C956 C955 1.374 . S
C957 C954 1.499 1_556 S
C957 C958 1.373 . S
C957 C959 1.389 . S
C958 H931 0.950 . S
C958 C944 1.377 . S
C958 C957 1.373 . S
C959 C943 1.377 . S
C959 C957 1.389 . S
C959 C960 1.524 . S
C960 C959 1.524 . S
C960 C961 1.397 1_556 S
C960 C965 1.363 . S
C961 H932 0.950 . S
C961 C960 1.397 1_554 S
C961 C962 1.334 . S
C962 H933 0.950 . S
C962 C961 1.334 . S
C962 C963 1.287 . S
C963 C962 1.287 . S
C963 C964 1.524 1_554 S
C963 H966 0.999 . S
C964 H934 0.950 . S
C964 C963 1.524 1_556 S
C964 C965 1.415 . S
C965 H935 0.950 . S
C965 C960 1.363 . S
C965 C964 1.415 . S
H966 C963 0.999 . S
H967 C948 0.913 . S
H968 C986 0.951 . S
H969 C988 0.951 . S
H970 C990 0.950 . S
H971 C991 0.950 . S
H972 C993 0.950 . S
H973 C996 0.950 . S
H974 C997 0.950 . S
H975 C999 0.950 . S
H976 C1000 0.950 . S
H977 C1001 0.951 . S
H978 C1003 0.951 . S
H979 C1005 0.950 . S
H980 C1006 0.950 . S
H981 C1008 0.950 . S
H982 C1011 0.950 . S
H983 C1012 0.950 . S
H984 C1014 0.950 . S
H985 C1015 0.950 . S
C986 H968 0.951 . S
C986 C987 1.366 . S
C986 C988 1.388 . S
C987 C986 1.366 . S
C987 C991 1.385 . S
C988 H969 0.951 . S
C988 C986 1.388 . S
C988 C989 1.366 . S
C989 C988 1.366 . S
C989 C990 1.414 . S
C989 C992 1.499 . S
C990 H970 0.950 . S
C990 C989 1.414 . S
C990 C991 1.374 . S
C991 H971 0.950 . S
C991 C987 1.385 . S
C991 C990 1.374 . S
C992 C989 1.499 . S
C992 C993 1.373 . S
C992 C994 1.389 . S
C993 H972 0.950 . S
C993 C992 1.373 . S
C993 C1009 1.377 . S
C994 C992 1.389 . S
C994 C995 1.524 . S
C994 C1008 1.377 . S
C995 C994 1.524 . S
C995 C996 1.397 . S
C995 C1000 1.363 . S
C996 H973 0.950 . S
C996 C995 1.397 . S
C996 C997 1.334 . S
C997 H974 0.950 . S
C997 C996 1.334 . S
C997 C998 1.287 . S
C998 C997 1.287 . S
C998 C999 1.524 . S
C998 H1017 0.913 . S
C999 H975 0.950 . S
C999 C998 1.524 . S
C999 C1000 1.415 . S
C1000 H976 0.950 . S
C1000 C995 1.363 . S
C1000 C999 1.415 . S
C1001 H977 0.951 . S
C1001 C1002 1.366 . S
C1001 C1003 1.388 . S
C1002 C1001 1.366 . S
C1002 C1006 1.385 . S
C1003 H978 0.951 . S
C1003 C1001 1.388 . S
C1003 C1004 1.366 . S
C1004 C1003 1.366 . S
C1004 C1005 1.414 . S
C1004 C1007 1.499 . S
C1005 H979 0.950 . S
C1005 C1004 1.414 . S
C1005 C1006 1.374 . S
C1006 H980 0.950 . S
C1006 C1002 1.385 . S
C1006 C1005 1.374 . S
C1007 C1004 1.499 . S
C1007 C1008 1.373 . S
C1007 C1009 1.389 . S
C1008 H981 0.950 . S
C1008 C994 1.377 . S
C1008 C1007 1.373 . S
C1009 C993 1.377 . S
C1009 C1007 1.389 . S
C1009 C1010 1.524 . S
C1010 C1009 1.524 . S
C1010 C1011 1.397 . S
C1010 C1015 1.363 . S
C1011 H982 0.950 . S
C1011 C1010 1.397 . S
C1011 C1012 1.334 . S
C1012 H983 0.950 . S
C1012 C1011 1.334 . S
C1012 C1013 1.287 . S
C1013 C1012 1.287 . S
C1013 C1014 1.524 . S
C1013 H1016 0.999 . S
C1014 H984 0.950 . S
C1014 C1013 1.524 . S
C1014 C1015 1.415 . S
C1015 H985 0.950 . S
C1015 C1010 1.363 . S
C1015 C1014 1.415 . S
H1016 C1013 0.999 . S
H1017 C998 0.913 . S
H1018 C1036 0.951 . S
H1019 C1038 0.951 . S
H1020 C1040 0.950 . S
H1021 C1041 0.950 . S
H1022 C1043 0.950 . S
H1023 C1046 0.950 . S
H1024 C1047 0.950 . S
H1025 C1049 0.950 . S
H1026 C1050 0.950 . S
H1027 C1051 0.951 . S
H1028 C1053 0.951 . S
H1029 C1055 0.950 . S
H1030 C1056 0.950 . S
H1031 C1058 0.950 . S
H1032 C1061 0.950 . S
H1033 C1062 0.950 . S
H1034 C1064 0.950 . S
H1035 C1065 0.950 . S
C1036 H1018 0.951 . S
C1036 C1037 1.366 . S
C1036 C1038 1.388 . S
C1037 C1036 1.366 . S
C1037 C1041 1.385 . S
C1038 H1019 0.951 . S
C1038 C1036 1.388 . S
C1038 C1039 1.366 . S
C1039 C1038 1.366 . S
C1039 C1040 1.414 . S
C1039 C1042 1.499 . S
C1040 H1020 0.950 . S
C1040 C1039 1.414 . S
C1040 C1041 1.374 . S
C1041 H1021 0.950 . S
C1041 C1037 1.385 . S
C1041 C1040 1.374 . S
C1042 C1039 1.499 . S
C1042 C1043 1.373 . S
C1042 C1044 1.389 . S
C1043 H1022 0.950 . S
C1043 C1042 1.373 . S
C1043 C1059 1.377 . S
C1044 C1042 1.389 . S
C1044 C1045 1.524 . S
C1044 C1058 1.377 . S
C1045 C1044 1.524 . S
C1045 C1046 1.397 . S
C1045 C1050 1.363 . S
C1046 H1023 0.950 . S
C1046 C1045 1.397 . S
C1046 C1047 1.334 . S
C1047 H1024 0.950 . S
C1047 C1046 1.334 . S
C1047 C1048 1.287 . S
C1048 C1047 1.287 . S
C1048 C1049 1.524 . S
C1048 H1067 0.913 . S
C1049 H1025 0.950 . S
C1049 C1048 1.524 . S
C1049 C1050 1.415 . S
C1050 H1026 0.950 . S
C1050 C1045 1.363 . S
C1050 C1049 1.415 . S
C1051 H1027 0.951 . S
C1051 C1052 1.366 . S
C1051 C1053 1.388 . S
C1052 C1051 1.366 . S
C1052 C1056 1.385 . S
C1053 H1028 0.951 . S
C1053 C1051 1.388 . S
C1053 C1054 1.366 . S
C1054 C1053 1.366 . S
C1054 C1055 1.414 . S
C1054 C1057 1.499 . S
C1055 H1029 0.950 . S
C1055 C1054 1.414 . S
C1055 C1056 1.374 . S
C1056 H1030 0.950 . S
C1056 C1052 1.385 . S
C1056 C1055 1.374 . S
C1057 C1054 1.499 . S
C1057 C1058 1.373 . S
C1057 C1059 1.389 . S
C1058 H1031 0.950 . S
C1058 C1044 1.377 . S
C1058 C1057 1.373 . S
C1059 C1043 1.377 . S
C1059 C1057 1.389 . S
C1059 C1060 1.524 . S
C1060 C1059 1.524 . S
C1060 C1061 1.397 . S
C1060 C1065 1.363 . S
C1061 H1032 0.950 . S
C1061 C1060 1.397 . S
C1061 C1062 1.334 . S
C1062 H1033 0.950 . S
C1062 C1061 1.334 . S
C1062 C1063 1.287 . S
C1063 C1062 1.287 . S
C1063 C1064 1.524 . S
C1063 H1066 0.999 . S
C1064 H1034 0.950 . S
C1064 C1063 1.524 . S
C1064 C1065 1.415 . S
C1065 H1035 0.950 . S
C1065 C1060 1.363 . S
C1065 C1064 1.415 . S
H1066 C1063 0.999 . S
H1067 C1048 0.913 . S
H1068 C1086 0.951 . S
H1069 C1088 0.951 . S
H1070 C1090 0.950 . S
H1071 C1091 0.950 . S
H1072 C1093 0.950 . S
H1073 C1096 0.950 . S
H1074 C1097 0.950 . S
H1075 C1099 0.950 . S
H1076 C1100 0.950 . S
H1077 C1101 0.951 . S
H1078 C1103 0.951 . S
H1079 C1105 0.950 . S
H1080 C1106 0.950 . S
H1081 C1108 0.950 . S
H1082 C1111 0.950 . S
H1083 C1112 0.950 . S
H1084 C1114 0.950 . S
H1085 C1115 0.950 . S
C1086 H1068 0.951 . S
C1086 C1087 1.366 . S
C1086 C1088 1.388 . S
C1087 C1086 1.366 . S
C1087 C1091 1.385 . S
C1088 H1069 0.951 . S
C1088 C1086 1.388 . S
C1088 C1089 1.366 . S
C1089 C1088 1.366 . S
C1089 C1090 1.414 . S
C1089 C1092 1.499 . S
C1090 H1070 0.950 . S
C1090 C1089 1.414 . S
C1090 C1091 1.374 . S
C1091 H1071 0.950 . S
C1091 C1087 1.385 . S
C1091 C1090 1.374 . S
C1092 C1089 1.499 . S
C1092 C1093 1.373 . S
C1092 C1094 1.389 . S
C1093 H1072 0.950 . S
C1093 C1092 1.373 . S
C1093 C1109 1.377 . S
C1094 C1092 1.389 . S
C1094 C1095 1.524 . S
C1094 C1108 1.377 . S
C1095 C1094 1.524 . S
C1095 C1096 1.397 . S
C1095 C1100 1.363 . S
C1096 H1073 0.950 . S
C1096 C1095 1.397 . S
C1096 C1097 1.334 . S
C1097 H1074 0.950 . S
C1097 C1096 1.334 . S
C1097 C1098 1.287 . S
C1098 C1097 1.287 . S
C1098 C1099 1.524 . S
C1098 H1117 0.913 . S
C1099 H1075 0.950 . S
C1099 C1098 1.524 . S
C1099 C1100 1.415 . S
C1100 H1076 0.950 . S
C1100 C1095 1.363 . S
C1100 C1099 1.415 . S
C1101 H1077 0.951 . S
C1101 C1102 1.366 . S
C1101 C1103 1.388 . S
C1102 C1101 1.366 . S
C1102 C1106 1.385 . S
C1103 H1078 0.951 . S
C1103 C1101 1.388 . S
C1103 C1104 1.366 . S
C1104 C1103 1.366 . S
C1104 C1105 1.414 . S
C1104 C1107 1.499 . S
C1105 H1079 0.950 . S
C1105 C1104 1.414 . S
C1105 C1106 1.374 . S
C1106 H1080 0.950 . S
C1106 C1102 1.385 . S
C1106 C1105 1.374 . S
C1107 C1104 1.499 . S
C1107 C1108 1.373 . S
C1107 C1109 1.389 . S
C1108 H1081 0.950 . S
C1108 C1094 1.377 . S
C1108 C1107 1.373 . S
C1109 C1093 1.377 . S
C1109 C1107 1.389 . S
C1109 C1110 1.524 . S
C1110 C1109 1.524 . S
C1110 C1111 1.397 . S
C1110 C1115 1.363 . S
C1111 H1082 0.950 . S
C1111 C1110 1.397 . S
C1111 C1112 1.334 . S
C1112 H1083 0.950 . S
C1112 C1111 1.334 . S
C1112 C1113 1.287 . S
C1113 C1112 1.287 . S
C1113 C1114 1.524 . S
C1113 H1116 0.999 . S
C1114 H1084 0.950 . S
C1114 C1113 1.524 . S
C1114 C1115 1.415 . S
C1115 H1085 0.950 . S
C1115 C1110 1.363 . S
C1115 C1114 1.415 . S
H1116 C1113 0.999 . S
H1117 C1098 0.913 . S
H1118 C1136 0.951 . S
H1119 C1138 0.951 . S
H1120 C1140 0.950 . S
H1121 C1141 0.950 . S
H1122 C1143 0.950 . S
H1123 C1146 0.950 . S
H1124 C1147 0.950 . S
H1125 C1149 0.950 . S
H1126 C1150 0.950 . S
H1127 C1151 0.951 . S
H1128 C1153 0.951 . S
H1129 C1155 0.950 . S
H1130 C1156 0.950 . S
H1131 C1158 0.950 . S
H1132 C1161 0.950 . S
H1133 C1162 0.950 . S
H1134 C1164 0.950 . S
H1135 C1165 0.950 . S
C1136 H1118 0.951 . S
C1136 C1137 1.366 . S
C1136 C1138 1.388 . S
C1137 C1136 1.366 . S
C1137 C1141 1.385 . S
C1138 H1119 0.951 . S
C1138 C1136 1.388 . S
C1138 C1139 1.366 . S
C1139 C1138 1.366 . S
C1139 C1140 1.414 . S
C1139 C1142 1.499 . S
C1140 H1120 0.950 . S
C1140 C1139 1.414 . S
C1140 C1141 1.374 . S
C1141 H1121 0.950 . S
C1141 C1137 1.385 . S
C1141 C1140 1.374 . S
C1142 C1139 1.499 . S
C1142 C1143 1.373 . S
C1142 C1144 1.389 . S
C1143 H1122 0.950 . S
C1143 C1142 1.373 . S
C1143 C1159 1.377 . S
C1144 C1142 1.389 . S
C1144 C1145 1.524 . S
C1144 C1158 1.377 . S
C1145 C1144 1.524 . S
C1145 C1146 1.397 . S
C1145 C1150 1.363 . S
C1146 H1123 0.950 . S
C1146 C1145 1.397 . S
C1146 C1147 1.334 . S
C1147 H1124 0.950 . S
C1147 C1146 1.334 . S
C1147 C1148 1.287 . S
C1148 C1147 1.287 . S
C1148 C1149 1.524 . S
C1148 H1167 0.913 . S
C1149 H1125 0.950 . S
C1149 C1148 1.524 . S
C1149 C1150 1.415 . S
C1150 H1126 0.950 . S
C1150 C1145 1.363 . S
C1150 C1149 1.415 . S
C1151 H1127 0.951 . S
C1151 C1152 1.366 . S
C1151 C1153 1.388 . S
C1152 C1151 1.366 . S
C1152 C1156 1.385 . S
C1153 H1128 0.951 . S
C1153 C1151 1.388 . S
C1153 C1154 1.366 . S
C1154 C1153 1.366 . S
C1154 C1155 1.414 . S
C1154 C1157 1.499 . S
C1155 H1129 0.950 . S
C1155 C1154 1.414 . S
C1155 C1156 1.374 . S
C1156 H1130 0.950 . S
C1156 C1152 1.385 . S
C1156 C1155 1.374 . S
C1157 C1154 1.499 . S
C1157 C1158 1.373 . S
C1157 C1159 1.389 . S
C1158 H1131 0.950 . S
C1158 C1144 1.377 . S
C1158 C1157 1.373 . S
C1159 C1143 1.377 . S
C1159 C1157 1.389 . S
C1159 C1160 1.524 . S
C1160 C1159 1.524 . S
C1160 C1161 1.397 . S
C1160 C1165 1.363 . S
C1161 H1132 0.950 . S
C1161 C1160 1.397 . S
C1161 C1162 1.334 . S
C1162 H1133 0.950 . S
C1162 C1161 1.334 . S
C1162 C1163 1.287 . S
C1163 C1162 1.287 . S
C1163 C1164 1.524 . S
C1163 H1166 0.999 . S
C1164 H1134 0.950 . S
C1164 C1163 1.524 . S
C1164 C1165 1.415 . S
C1165 H1135 0.950 . S
C1165 C1160 1.363 . S
C1165 C1164 1.415 . S
H1166 C1163 0.999 . S
H1167 C1148 0.913 . S
H1168 C1186 0.951 . S
H1169 C1188 0.951 . S
H1170 C1190 0.950 . S
H1171 C1191 0.950 . S
H1172 C1193 0.950 . S
H1173 C1196 0.950 . S
H1174 C1197 0.950 . S
H1175 C1199 0.950 . S
H1176 C1200 0.950 . S
H1177 C1201 0.951 . S
H1178 C1203 0.951 . S
H1179 C1205 0.950 . S
H1180 C1206 0.950 . S
H1181 C1208 0.950 . S
H1182 C1211 0.950 . S
H1183 C1212 0.950 . S
H1184 C1214 0.950 . S
H1185 C1215 0.950 . S
C1186 H1168 0.951 . S
C1186 C1187 1.366 . S
C1186 C1188 1.388 . S
C1187 C1186 1.366 . S
C1187 C1191 1.385 . S
C1188 H1169 0.951 . S
C1188 C1186 1.388 . S
C1188 C1189 1.366 . S
C1189 C1188 1.366 . S
C1189 C1190 1.414 . S
C1189 C1192 1.499 . S
C1190 H1170 0.950 . S
C1190 C1189 1.414 . S
C1190 C1191 1.374 . S
C1191 H1171 0.950 . S
C1191 C1187 1.385 . S
C1191 C1190 1.374 . S
C1192 C1189 1.499 . S
C1192 C1193 1.373 . S
C1192 C1194 1.389 . S
C1193 H1172 0.950 . S
C1193 C1192 1.373 . S
C1193 C1209 1.377 1_455 S
C1194 C1192 1.389 . S
C1194 C1195 1.524 . S
C1194 C1208 1.377 1_455 S
C1195 C1194 1.524 . S
C1195 C1196 1.397 . S
C1195 C1200 1.363 . S
C1196 H1173 0.950 . S
C1196 C1195 1.397 . S
C1196 C1197 1.334 . S
C1197 H1174 0.950 . S
C1197 C1196 1.334 . S
C1197 C1198 1.287 . S
C1198 C1197 1.287 . S
C1198 C1199 1.524 . S
C1198 H1217 0.913 . S
C1199 H1175 0.950 . S
C1199 C1198 1.524 . S
C1199 C1200 1.415 . S
C1200 H1176 0.950 . S
C1200 C1195 1.363 . S
C1200 C1199 1.415 . S
C1201 H1177 0.951 . S
C1201 C1202 1.366 . S
C1201 C1203 1.388 . S
C1202 C1201 1.366 . S
C1202 C1206 1.385 . S
C1203 H1178 0.951 . S
C1203 C1201 1.388 . S
C1203 C1204 1.366 . S
C1204 C1203 1.366 . S
C1204 C1205 1.414 . S
C1204 C1207 1.499 . S
C1205 H1179 0.950 . S
C1205 C1204 1.414 . S
C1205 C1206 1.374 . S
C1206 H1180 0.950 . S
C1206 C1202 1.385 . S
C1206 C1205 1.374 . S
C1207 C1204 1.499 . S
C1207 C1208 1.373 . S
C1207 C1209 1.389 . S
C1208 H1181 0.950 . S
C1208 C1194 1.377 1_655 S
C1208 C1207 1.373 . S
C1209 C1193 1.377 1_655 S
C1209 C1207 1.389 . S
C1209 C1210 1.524 . S
C1210 C1209 1.524 . S
C1210 C1211 1.397 . S
C1210 C1215 1.363 . S
C1211 H1182 0.950 . S
C1211 C1210 1.397 . S
C1211 C1212 1.334 . S
C1212 H1183 0.950 . S
C1212 C1211 1.334 . S
C1212 C1213 1.287 . S
C1213 C1212 1.287 . S
C1213 C1214 1.524 . S
C1213 H1216 0.999 . S
C1214 H1184 0.950 . S
C1214 C1213 1.524 . S
C1214 C1215 1.415 . S
C1215 H1185 0.950 . S
C1215 C1210 1.363 . S
C1215 C1214 1.415 . S
H1216 C1213 0.999 . S
H1217 C1198 0.913 . S
H1218 C1236 0.951 . S
H1219 C1238 0.951 . S
H1220 C1240 0.950 . S
H1221 C1241 0.950 . S
H1222 C1243 0.950 . S
H1223 C1246 0.950 . S
H1224 C1247 0.950 . S
H1225 C1249 0.950 . S
H1226 C1250 0.950 . S
H1227 C1251 0.951 . S
H1228 C1253 0.951 . S
H1229 C1255 0.950 . S
H1230 C1256 0.950 . S
H1231 C1258 0.950 . S
H1232 C1261 0.950 . S
H1233 C1262 0.950 . S
H1234 C1264 0.950 . S
H1235 C1265 0.950 . S
C1236 H1218 0.951 . S
C1236 C1237 1.366 . S
C1236 C1238 1.388 . S
C1237 C1236 1.366 . S
C1237 C1241 1.385 . S
C1238 H1219 0.951 . S
C1238 C1236 1.388 . S
C1238 C1239 1.366 . S
C1239 C1238 1.366 . S
C1239 C1240 1.414 . S
C1239 C1242 1.499 . S
C1240 H1220 0.950 . S
C1240 C1239 1.414 . S
C1240 C1241 1.374 . S
C1241 H1221 0.950 . S
C1241 C1237 1.385 . S
C1241 C1240 1.374 . S
C1242 C1239 1.499 . S
C1242 C1243 1.373 . S
C1242 C1244 1.389 . S
C1243 H1222 0.950 . S
C1243 C1242 1.373 . S
C1243 C1259 1.377 1_655 S
C1244 C1242 1.389 . S
C1244 C1245 1.524 . S
C1244 C1258 1.377 1_655 S
C1245 C1244 1.524 . S
C1245 C1246 1.397 . S
C1245 C1250 1.363 . S
C1246 H1223 0.950 . S
C1246 C1245 1.397 . S
C1246 C1247 1.334 . S
C1247 H1224 0.950 . S
C1247 C1246 1.334 . S
C1247 C1248 1.287 . S
C1248 C1247 1.287 . S
C1248 C1249 1.524 . S
C1248 H1267 0.913 . S
C1249 H1225 0.950 . S
C1249 C1248 1.524 . S
C1249 C1250 1.415 . S
C1250 H1226 0.950 . S
C1250 C1245 1.363 . S
C1250 C1249 1.415 . S
C1251 H1227 0.951 . S
C1251 C1252 1.366 . S
C1251 C1253 1.388 . S
C1252 C1251 1.366 . S
C1252 C1256 1.385 . S
C1253 H1228 0.951 . S
C1253 C1251 1.388 . S
C1253 C1254 1.366 . S
C1254 C1253 1.366 . S
C1254 C1255 1.414 . S
C1254 C1257 1.499 . S
C1255 H1229 0.950 . S
C1255 C1254 1.414 . S
C1255 C1256 1.374 . S
C1256 H1230 0.950 . S
C1256 C1252 1.385 . S
C1256 C1255 1.374 . S
C1257 C1254 1.499 . S
C1257 C1258 1.373 . S
C1257 C1259 1.389 . S
C1258 H1231 0.950 . S
C1258 C1244 1.377 1_455 S
C1258 C1257 1.373 . S
C1259 C1243 1.377 1_455 S
C1259 C1257 1.389 . S
C1259 C1260 1.524 . S
C1260 C1259 1.524 . S
C1260 C1261 1.397 . S
C1260 C1265 1.363 . S
C1261 H1232 0.950 . S
C1261 C1260 1.397 . S
C1261 C1262 1.334 . S
C1262 H1233 0.950 . S
C1262 C1261 1.334 . S
C1262 C1263 1.287 . S
C1263 C1262 1.287 . S
C1263 C1264 1.524 . S
C1263 H1266 0.999 . S
C1264 H1234 0.950 . S
C1264 C1263 1.524 . S
C1264 C1265 1.415 . S
C1265 H1235 0.950 . S
C1265 C1260 1.363 . S
C1265 C1264 1.415 . S
H1266 C1263 0.999 . S
H1267 C1248 0.913 . S
H1268 C1286 0.951 . S
H1269 C1288 0.951 . S
H1270 C1290 0.950 . S
H1271 C1291 0.950 . S
H1272 C1293 0.950 . S
H1273 C1296 0.950 . S
H1274 C1297 0.950 . S
H1275 C1299 0.950 . S
H1276 C1300 0.950 . S
H1277 C1301 0.951 . S
H1278 C1303 0.951 . S
H1279 C1305 0.950 . S
H1280 C1306 0.950 . S
H1281 C1308 0.950 . S
H1282 C1311 0.950 . S
H1283 C1312 0.950 . S
H1284 C1314 0.950 . S
H1285 C1315 0.950 . S
C1286 H1268 0.951 . S
C1286 C1287 1.366 . S
C1286 C1288 1.388 . S
C1287 C1286 1.366 . S
C1287 C1291 1.385 . S
C1288 H1269 0.951 . S
C1288 C1286 1.388 . S
C1288 C1289 1.366 . S
C1289 C1288 1.366 . S
C1289 C1290 1.414 . S
C1289 C1292 1.499 . S
C1290 H1270 0.950 . S
C1290 C1289 1.414 . S
C1290 C1291 1.374 . S
C1291 H1271 0.950 . S
C1291 C1287 1.385 . S
C1291 C1290 1.374 . S
C1292 C1289 1.499 . S
C1292 C1293 1.373 . S
C1292 C1294 1.389 . S
C1293 H1272 0.950 . S
C1293 C1292 1.373 . S
C1293 C1309 1.377 . S
C1294 C1292 1.389 . S
C1294 C1295 1.524 . S
C1294 C1308 1.377 . S
C1295 C1294 1.524 . S
C1295 C1296 1.397 . S
C1295 C1300 1.363 . S
C1296 H1273 0.950 . S
C1296 C1295 1.397 . S
C1296 C1297 1.334 . S
C1297 H1274 0.950 . S
C1297 C1296 1.334 . S
C1297 C1298 1.287 . S
C1298 C1297 1.287 . S
C1298 C1299 1.524 . S
C1298 H1317 0.913 . S
C1299 H1275 0.950 . S
C1299 C1298 1.524 . S
C1299 C1300 1.415 . S
C1300 H1276 0.950 . S
C1300 C1295 1.363 . S
C1300 C1299 1.415 . S
C1301 H1277 0.951 . S
C1301 C1302 1.366 . S
C1301 C1303 1.388 . S
C1302 C1301 1.366 . S
C1302 C1306 1.385 . S
C1303 H1278 0.951 . S
C1303 C1301 1.388 . S
C1303 C1304 1.366 . S
C1304 C1303 1.366 . S
C1304 C1305 1.414 . S
C1304 C1307 1.499 . S
C1305 H1279 0.950 . S
C1305 C1304 1.414 . S
C1305 C1306 1.374 . S
C1306 H1280 0.950 . S
C1306 C1302 1.385 . S
C1306 C1305 1.374 . S
C1307 C1304 1.499 . S
C1307 C1308 1.373 . S
C1307 C1309 1.389 . S
C1308 H1281 0.950 . S
C1308 C1294 1.377 . S
C1308 C1307 1.373 . S
C1309 C1293 1.377 . S
C1309 C1307 1.389 . S
C1309 C1310 1.524 . S
C1310 C1309 1.524 . S
C1310 C1311 1.397 1_554 S
C1310 C1315 1.363 . S
C1311 H1282 0.950 . S
C1311 C1310 1.397 1_556 S
C1311 C1312 1.334 . S
C1312 H1283 0.950 . S
C1312 C1311 1.334 . S
C1312 C1313 1.287 . S
C1313 C1312 1.287 . S
C1313 C1314 1.524 . S
C1313 H1316 0.999 . S
C1314 H1284 0.950 . S
C1314 C1313 1.524 . S
C1314 C1315 1.415 1_556 S
C1315 H1285 0.950 . S
C1315 C1310 1.363 . S
C1315 C1314 1.415 1_554 S
H1316 C1313 0.999 . S
H1317 C1298 0.913 . S
H1318 C1336 0.951 . S
H1319 C1338 0.951 . S
H1320 C1340 0.950 . S
H1321 C1341 0.950 . S
H1322 C1343 0.950 . S
H1323 C1346 0.950 . S
H1324 C1347 0.950 . S
H1325 C1349 0.950 . S
H1326 C1350 0.950 1_554 S
H1327 C1351 0.951 . S
H1328 C1353 0.951 . S
H1329 C1355 0.950 . S
H1330 C1356 0.950 . S
H1331 C1358 0.950 . S
H1332 C1361 0.950 . S
H1333 C1362 0.950 . S
H1334 C1364 0.950 . S
H1335 C1365 0.950 . S
C1336 H1318 0.951 . S
C1336 C1337 1.366 . S
C1336 C1338 1.388 . S
C1337 C1336 1.366 . S
C1337 C1341 1.385 . S
C1338 H1319 0.951 . S
C1338 C1336 1.388 . S
C1338 C1339 1.366 . S
C1339 C1338 1.366 . S
C1339 C1340 1.414 . S
C1339 C1342 1.499 . S
C1340 H1320 0.950 . S
C1340 C1339 1.414 . S
C1340 C1341 1.374 . S
C1341 H1321 0.950 . S
C1341 C1337 1.385 . S
C1341 C1340 1.374 . S
C1342 C1339 1.499 . S
C1342 C1343 1.373 . S
C1342 C1344 1.389 . S
C1343 H1322 0.950 . S
C1343 C1342 1.373 . S
C1343 C1359 1.377 . S
C1344 C1342 1.389 . S
C1344 C1345 1.524 . S
C1344 C1358 1.377 . S
C1345 C1344 1.524 . S
C1345 C1346 1.397 . S
C1345 C1350 1.363 . S
C1346 H1323 0.950 . S
C1346 C1345 1.397 . S
C1346 C1347 1.334 . S
C1347 H1324 0.950 . S
C1347 C1346 1.334 . S
C1347 C1348 1.287 . S
C1348 C1347 1.287 . S
C1348 C1349 1.524 1_556 S
C1348 H1367 0.913 . S
C1349 H1325 0.950 . S
C1349 C1348 1.524 1_554 S
C1349 C1350 1.415 1_554 S
C1350 H1326 0.950 1_556 S
C1350 C1345 1.363 . S
C1350 C1349 1.415 1_556 S
C1351 H1327 0.951 . S
C1351 C1352 1.366 . S
C1351 C1353 1.388 . S
C1352 C1351 1.366 . S
C1352 C1356 1.385 . S
C1353 H1328 0.951 . S
C1353 C1351 1.388 . S
C1353 C1354 1.366 . S
C1354 C1353 1.366 . S
C1354 C1355 1.414 . S
C1354 C1357 1.499 . S
C1355 H1329 0.950 . S
C1355 C1354 1.414 . S
C1355 C1356 1.374 . S
C1356 H1330 0.950 . S
C1356 C1352 1.385 . S
C1356 C1355 1.374 . S
C1357 C1354 1.499 . S
C1357 C1358 1.373 . S
C1357 C1359 1.389 . S
C1358 H1331 0.950 . S
C1358 C1344 1.377 . S
C1358 C1357 1.373 . S
C1359 C1343 1.377 . S
C1359 C1357 1.389 . S
C1359 C1360 1.524 . S
C1360 C1359 1.524 . S
C1360 C1361 1.397 . S
C1360 C1365 1.363 . S
C1361 H1332 0.950 . S
C1361 C1360 1.397 . S
C1361 C1362 1.334 . S
C1362 H1333 0.950 . S
C1362 C1361 1.334 . S
C1362 C1363 1.287 . S
C1363 C1362 1.287 . S
C1363 C1364 1.524 . S
C1363 H1366 0.999 . S
C1364 H1334 0.950 . S
C1364 C1363 1.524 . S
C1364 C1365 1.415 . S
C1365 H1335 0.950 . S
C1365 C1360 1.363 . S
C1365 C1364 1.415 . S
H1366 C1363 0.999 . S
H1367 C1348 0.913 . S
C187 C19 1.374 . S
C202 C167 1.374 . S
C237 C146 1.374 . S
C252 C40 1.375 . S
C287 C124 1.374 . S
C302 C62 1.374 . S
C337 C104 1.374 . S
C352 C83 1.375 . S
C387 C46 1.640 . S
C402 C7 1.640 . S
C437 C28 1.640 . S
C452 C67 1.641 . S
C487 C70 1.121 . S
C502 C25 1.122 . S
C537 C49 1.123 . S
C552 C4 1.123 . S
C587 C88 1.640 . S
C602 C130 1.641 . S
C637 C112 1.641 . S
C652 C151 1.641 . S
C687 C154 1.121 . S
C702 C109 1.122 . S
C737 C133 1.121 . S
C752 C91 1.122 . S
C787 C16 1.195 . S
C802 C20 1.206 . S
C837 C37 1.195 . S
C852 C41 1.207 . S
C887 C61 1.206 . S
C902 C45 1.193 . S
C937 C66 1.194 . S
C952 C82 1.205 . S
C987 C103 1.206 . S
C1002 C87 1.194 . S
C1037 C121 1.195 . S
C1052 C125 1.207 . S
C1087 C129 1.193 . S
C1102 C145 1.205 . S
C1137 C150 1.194 . S
C1152 C166 1.205 . S
C1187 C3 1.316 . S
C1202 C24 1.315 . S
C1237 C79 1.315 . S
C1252 C58 1.316 . S
C1287 C100 1.316 . S
C1302 C108 1.315 . S
C1337 C163 1.317 . S
C1352 C142 1.316 . S
