# Generated by pormake.
# Topology som, (6)-cn, num edge types: 1
# Building blocks:
#     Node 0, Type 0, BuildingBlock: KUMBOL_clean_sbu_1, # of connection points: 6
#     Node 1, Type 0, BuildingBlock: KUMBOL_clean_sbu_1, # of connection points: 6
#     Node 2, Type 0, BuildingBlock: KUMBOL_clean_sbu_1, # of connection points: 6
#     Node 3, Type 0, BuildingBlock: KUMBOL_clean_sbu_1, # of connection points: 6
#     Node 4, Type 0, BuildingBlock: KUMBOL_clean_sbu_1, # of connection points: 6
#     Node 5, Type 0, BuildingBlock: KUMBOL_clean_sbu_1, # of connection points: 6
#     Node 6, Type 0, BuildingBlock: KUMBOL_clean_sbu_1, # of connection points: 6
#     Node 7, Type 0, BuildingBlock: KUMBOL_clean_sbu_1, # of connection points: 6
#     Node 8, Type 0, BuildingBlock: KUMBOL_clean_sbu_1, # of connection points: 6
#     Node 9, Type 0, BuildingBlock: KUMBOL_clean_sbu_1, # of connection points: 6
#     Node 10, Type 0, BuildingBlock: KUMBOL_clean_sbu_1, # of connection points: 6
#     Node 11, Type 0, BuildingBlock: KUMBOL_clean_sbu_1, # of connection points: 6
#     Node 12, Type 0, BuildingBlock: KUMBOL_clean_sbu_1, # of connection points: 6
#     Node 13, Type 0, BuildingBlock: KUMBOL_clean_sbu_1, # of connection points: 6
#     Node 14, Type 0, BuildingBlock: KUMBOL_clean_sbu_1, # of connection points: 6
#     Node 15, Type 0, BuildingBlock: KUMBOL_clean_sbu_1, # of connection points: 6
#     Node 16, Type 0, BuildingBlock: KUMBOL_clean_sbu_1, # of connection points: 6
#     Node 17, Type 0, BuildingBlock: KUMBOL_clean_sbu_1, # of connection points: 6
#     Node 18, Type 0, BuildingBlock: KUMBOL_clean_sbu_1, # of connection points: 6
#     Node 19, Type 0, BuildingBlock: KUMBOL_clean_sbu_1, # of connection points: 6
#     Node 20, Type 0, BuildingBlock: KUMBOL_clean_sbu_1, # of connection points: 6
#     Node 21, Type 0, BuildingBlock: KUMBOL_clean_sbu_1, # of connection points: 6
#     Node 22, Type 0, BuildingBlock: KUMBOL_clean_sbu_1, # of connection points: 6
#     Node 23, Type 0, BuildingBlock: KUMBOL_clean_sbu_1, # of connection points: 6
#     Node 24, Type 0, BuildingBlock: KUMBOL_clean_sbu_1, # of connection points: 6
#     Node 25, Type 0, BuildingBlock: KUMBOL_clean_sbu_1, # of connection points: 6
#     Node 26, Type 0, BuildingBlock: KUMBOL_clean_sbu_1, # of connection points: 6
#     Node 27, Type 0, BuildingBlock: KUMBOL_clean_sbu_1, # of connection points: 6
#     Node 28, Type 0, BuildingBlock: KUMBOL_clean_sbu_1, # of connection points: 6
#     Node 29, Type 0, BuildingBlock: KUMBOL_clean_sbu_1, # of connection points: 6
#     Node 30, Type 0, BuildingBlock: KUMBOL_clean_sbu_1, # of connection points: 6
#     Node 31, Type 0, BuildingBlock: KUMBOL_clean_sbu_1, # of connection points: 6
#     Edge 32, Type (0, 0), None
#     Edge 33, Type (0, 0), None
#     Edge 34, Type (0, 0), None
#     Edge 35, Type (0, 0), None
#     Edge 36, Type (0, 0), None
#     Edge 37, Type (0, 0), None
#     Edge 38, Type (0, 0), None
#     Edge 39, Type (0, 0), None
#     Edge 40, Type (0, 0), None
#     Edge 41, Type (0, 0), None
#     Edge 42, Type (0, 0), None
#     Edge 43, Type (0, 0), None
#     Edge 44, Type (0, 0), None
#     Edge 45, Type (0, 0), None
#     Edge 46, Type (0, 0), None
#     Edge 47, Type (0, 0), None
#     Edge 48, Type (0, 0), None
#     Edge 49, Type (0, 0), None
#     Edge 50, Type (0, 0), None
#     Edge 51, Type (0, 0), None
#     Edge 52, Type (0, 0), None
#     Edge 53, Type (0, 0), None
#     Edge 54, Type (0, 0), None
#     Edge 55, Type (0, 0), None
#     Edge 56, Type (0, 0), None
#     Edge 57, Type (0, 0), None
#     Edge 58, Type (0, 0), None
#     Edge 59, Type (0, 0), None
#     Edge 60, Type (0, 0), None
#     Edge 61, Type (0, 0), None
#     Edge 62, Type (0, 0), None
#     Edge 63, Type (0, 0), None
#     Edge 64, Type (0, 0), None
#     Edge 65, Type (0, 0), None
#     Edge 66, Type (0, 0), None
#     Edge 67, Type (0, 0), None
#     Edge 68, Type (0, 0), None
#     Edge 69, Type (0, 0), None
#     Edge 70, Type (0, 0), None
#     Edge 71, Type (0, 0), None
#     Edge 72, Type (0, 0), None
#     Edge 73, Type (0, 0), None
#     Edge 74, Type (0, 0), None
#     Edge 75, Type (0, 0), None
#     Edge 76, Type (0, 0), None
#     Edge 77, Type (0, 0), None
#     Edge 78, Type (0, 0), None
#     Edge 79, Type (0, 0), None
#     Edge 80, Type (0, 0), None
#     Edge 81, Type (0, 0), None
#     Edge 82, Type (0, 0), None
#     Edge 83, Type (0, 0), None
#     Edge 84, Type (0, 0), None
#     Edge 85, Type (0, 0), None
#     Edge 86, Type (0, 0), None
#     Edge 87, Type (0, 0), None
#     Edge 88, Type (0, 0), None
#     Edge 89, Type (0, 0), None
#     Edge 90, Type (0, 0), None
#     Edge 91, Type (0, 0), None
#     Edge 92, Type (0, 0), None
#     Edge 93, Type (0, 0), None
#     Edge 94, Type (0, 0), None
#     Edge 95, Type (0, 0), None
#     Edge 96, Type (0, 0), None
#     Edge 97, Type (0, 0), None
#     Edge 98, Type (0, 0), None
#     Edge 99, Type (0, 0), None
#     Edge 100, Type (0, 0), None
#     Edge 101, Type (0, 0), None
#     Edge 102, Type (0, 0), None
#     Edge 103, Type (0, 0), None
#     Edge 104, Type (0, 0), None
#     Edge 105, Type (0, 0), None
#     Edge 106, Type (0, 0), None
#     Edge 107, Type (0, 0), None
#     Edge 108, Type (0, 0), None
#     Edge 109, Type (0, 0), None
#     Edge 110, Type (0, 0), None
#     Edge 111, Type (0, 0), None
#     Edge 112, Type (0, 0), None
#     Edge 113, Type (0, 0), None
#     Edge 114, Type (0, 0), None
#     Edge 115, Type (0, 0), None
#     Edge 116, Type (0, 0), None
#     Edge 117, Type (0, 0), None
#     Edge 118, Type (0, 0), None
#     Edge 119, Type (0, 0), None
#     Edge 120, Type (0, 0), None
#     Edge 121, Type (0, 0), None
#     Edge 122, Type (0, 0), None
#     Edge 123, Type (0, 0), None
#     Edge 124, Type (0, 0), None
#     Edge 125, Type (0, 0), None
#     Edge 126, Type (0, 0), None
#     Edge 127, Type (0, 0), None
# Relax obj value: 0.067
# Max RMSD: 0.166
# Mean RMSD: 0.166
data_MOF--net-som--node1-KUMBOL_clean_sbu_1--edge1-none
_symmetry_space_group_name_H-M    P1
_symmetry_Int_Tables_number       1
_symmetry_cell_setting            triclinic
loop_
_symmetry_equiv_pos_as_xyz
'x, y, z'
_cell_length_a     17.053467
_cell_length_b     25.714936
_cell_length_c     56.80755
_cell_angle_alpha  90.350436
_cell_angle_beta   90.095518
_cell_angle_gamma 90.004209
loop_
_atom_site_label
_atom_site_type_symbol
_atom_site_fract_x
_atom_site_fract_y
_atom_site_fract_z
_atom_type_partial_charge
C0 C 0.89729 0.55766 0.03829 0.0
C1 C 0.87207 0.58632 -0.00148 0.0
C2 C 0.87138 0.5474 0.01547 0.0
C3 C 0.91496 0.63107 0.00138 0.0
C4 C 0.92978 0.6206 0.04226 0.0
C5 C 0.9263 0.65201 0.02354 0.0
N6 N 0.93303 0.51047 0.05434 0.0
C7 C 0.02945 0.52889 0.08303 0.0
C8 C 0.00029 0.64131 0.06188 0.0
C9 C 0.05349 0.60087 0.08243 0.0
Gd10 Gd 0.11 0.36609 -0.00525 0.0
Gd11 Gd 0.94524 0.4355 0.0208 0.0
N12 N 0.86134 0.49844 0.00734 0.0
C13 C 0.82564 0.58033 -0.02129 0.0
C14 C 0.81762 0.48992 -0.0121 0.0
C15 C 0.79196 0.53253 -0.02556 0.0
H16 H 0.81452 0.45087 -0.01864 0.0
H17 H 0.76397 0.52817 -0.04232 0.0
H18 H 0.16969 0.28839 0.0423 0.0
H19 H 0.05539 0.49672 0.09628 0.0
H20 H 0.17609 0.18798 0.05465 0.0
H21 H 0.82122 0.61115 -0.03409 0.0
H22 H 0.93163 0.65094 -0.01419 0.0
H23 H 0.04448 0.34355 0.93245 0.0
H24 H 0.0372 0.62746 0.07495 0.0
H25 H 0.05393 0.56161 0.08635 0.0
H26 H 0.05873 0.11612 -0.04024 0.0
H27 H 0.94172 0.69099 0.02686 0.0
H28 H 0.87511 0.24282 0.9344 0.0
H29 H 0.89833 0.33313 0.9261 0.0
N30 N 0.03827 0.31652 -0.03393 0.0
C31 C 0.04094 0.26481 -0.03315 0.0
C32 C 0.0047 0.33344 -0.05387 0.0
C33 C 0.92411 0.26173 -0.05759 0.0
C34 C 0.93449 0.31326 0.93848 0.0
C35 C 0.98453 0.23557 -0.04623 0.0
H36 H 0.9658 0.16738 0.93474 0.0
N37 N 0.1183 0.27615 0.00451 0.0
C38 C 0.08922 0.24214 -0.01723 0.0
C39 C 0.10155 0.13993 0.00388 0.0
C40 C 0.08194 0.17718 -0.01888 0.0
C41 C 0.14517 0.26043 0.03029 0.0
C42 C 0.14517 0.19684 0.03888 0.0
O43 O 0.02339 0.50607 0.00562 0.0
O44 O 0.13675 0.46328 -0.00352 0.0
O45 O 0.22504 0.33517 0.00612 0.0
O46 O 0.20296 0.34846 -0.02993 0.0
O47 O 0.96324 0.42994 -0.0261 0.0
O48 O 0.09048 0.41673 -0.03838 0.0
O49 O 0.98263 0.31617 0.00248 0.0
O50 O 0.87648 0.36769 0.00073 0.0
O51 O 0.85847 0.38125 0.03498 0.0
O52 O 0.84874 0.46178 0.04323 0.0
O53 O 0.14803 0.38364 0.03338 0.0
O54 O 0.02643 0.37104 0.04409 0.0
C55 C 0.09846 0.51079 -0.00091 0.0
C56 C 0.01919 0.42998 -0.04529 0.0
C57 C 0.34233 0.34206 -0.01959 0.0
C58 C 0.48499 0.36094 -0.01155 0.0
C59 C 0.43375 0.35462 -0.05152 0.0
C60 C 0.36026 0.3427 -0.04324 0.0
C61 C 0.4939 0.36598 -0.03612 0.0
C62 C 0.40717 0.34805 -0.00332 0.0
C63 C 0.255 0.334 -0.01461 0.0
C64 C 0.04633 0.15569 -0.03717 0.0
C65 C 0.99394 0.18399 -0.05018 0.0
H66 H 0.09795 0.09777 0.00114 0.0
C67 C 0.90127 0.31841 0.0002 0.0
C68 C 0.10297 0.37294 0.05137 0.0
C69 C 0.73011 0.41886 0.03561 0.0
C70 C 0.54803 0.38423 0.00499 0.0
C71 C 0.57204 0.47569 0.03693 0.0
C72 C 0.66863 0.46669 0.04372 0.0
C73 C 0.51429 0.4385 0.01956 0.0
C74 C 0.70122 0.37207 0.01764 0.0
C75 C 0.81326 0.41785 0.04322 0.0
H76 H 0.44321 0.3561 0.92977 0.0
H77 H 0.31653 0.32947 -0.05532 0.0
H78 H 0.54593 0.38016 -0.04433 0.0
H79 H 0.39755 0.34424 0.01538 0.0
H80 H 0.54315 0.50878 0.04481 0.0
H81 H 0.69653 0.49788 0.05283 0.0
H82 H 0.45485 0.44233 0.02247 0.0
H83 H 0.74486 0.34461 0.01313 0.0
C84 C 0.34438 0.52444 0.03828 0.0
C85 C 0.37275 0.49478 -0.00124 0.0
C86 C 0.3703 0.53425 0.01566 0.0
C87 C 0.329 0.45047 0.00099 0.0
C88 C 0.31094 0.46177 0.04205 0.0
C89 C 0.31205 0.43057 0.0229 0.0
N90 N 0.30901 0.57221 0.05424 0.0
C91 C 0.21218 0.555 0.08269 0.0
C92 C 0.24024 0.44196 0.06157 0.0
C93 C 0.18745 0.48313 0.08203 0.0
Gd94 Gd 0.12711 0.71573 -0.00495 0.0
Gd95 Gd 0.29615 0.64735 0.02099 0.0
N96 N 0.37966 0.58301 0.00773 0.0
C97 C 0.42167 0.5006 -0.02041 0.0
C98 C 0.42703 0.59121 -0.01076 0.0
C99 C 0.45599 0.54833 -0.02387 0.0
H100 H 0.43147 0.63044 -0.01632 0.0
H101 H 0.49089 0.55112 -0.0394 0.0
H102 H 0.06924 0.7915 0.04406 0.0
H103 H 0.1865 0.58772 0.09581 0.0
H104 H 0.0694 0.88968 0.05874 0.0
H105 H 0.4301 0.46937 -0.03299 0.0
H106 H 0.31287 0.43093 -0.01486 0.0
H107 H 0.12942 0.71696 0.93512 0.0
H108 H 0.20343 0.45622 0.07463 0.0
H109 H 0.18731 0.52249 0.08599 0.0
H110 H 0.17409 -0.03206 -0.03551 0.0
H111 H 0.29176 0.39249 0.02552 0.0
H112 H 0.27879 0.83905 0.91541 0.0
H113 H 0.21911 0.75537 0.90768 0.0
N114 N 0.16649 0.7656 -0.03714 0.0
C115 C 0.17856 0.81669 -0.0342 0.0
C116 C 0.16574 0.74902 -0.05957 0.0
C117 C 0.24678 0.81939 0.9289 0.0
C118 C 0.21579 0.77149 0.92442 0.0
C119 C 0.21758 0.84562 -0.05187 0.0
H120 H 0.23991 -0.0816 0.93272 0.0
N121 N 0.12275 0.80483 0.00682 0.0
C122 C 0.14987 0.83987 -0.01454 0.0
C123 C 0.14487 -0.05927 0.00857 0.0
C124 C 0.16057 0.90458 -0.01507 0.0
C125 C 0.09777 0.81906 0.03292 0.0
C126 C 0.10116 0.88158 0.04292 0.0
O127 O 0.21673 0.57683 0.00512 0.0
O128 O 0.1016 0.61878 -0.00311 0.0
O129 O 0.01102 0.74493 0.00703 0.0
O130 O 0.03295 0.73222 -0.029 0.0
O131 O 0.29156 0.66051 -0.02539 0.0
O132 O 0.16346 0.66174 -0.03644 0.0
O133 O 0.25627 0.7661 -0.00011 0.0
O134 O 0.3647 0.71579 0.00215 0.0
O135 O 0.38246 0.70177 0.03537 0.0
O136 O 0.38853 0.62149 0.04461 0.0
O137 O 0.09106 0.6984 0.0335 0.0
O138 O 0.21351 0.71181 0.04381 0.0
C139 C 0.14099 0.57163 -0.00094 0.0
C140 C 0.23666 0.66062 -0.04446 0.0
C141 C 0.89425 0.73849 -0.01959 0.0
C142 C 0.75002 0.72362 -0.0136 0.0
C143 C 0.80603 0.72791 -0.05259 0.0
C144 C 0.87883 0.7381 -0.04335 0.0
C145 C 0.74259 0.71987 -0.03813 0.0
C146 C 0.82772 0.73324 -0.00423 0.0
C147 C 0.98097 0.74644 -0.01374 0.0
C148 C 0.18156 -0.07246 -0.03512 0.0
C149 C 0.21686 0.89913 -0.05243 0.0
H150 H 0.14853 -0.01696 0.00655 0.0
C151 C 0.33821 0.76439 -0.00013 0.0
C152 C 0.13736 0.70926 0.05124 0.0
C153 C 0.51204 0.65922 0.03442 0.0
C154 C 0.68727 0.69785 0.00131 0.0
C155 C 0.67344 0.60366 0.03108 0.0
C156 C 0.57977 0.60897 0.0404 0.0
C157 C 0.72464 0.64311 0.01363 0.0
C158 C 0.53744 0.70879 0.01657 0.0
C159 C 0.42598 0.66461 0.04375 0.0
H160 H 0.80031 0.72572 0.92867 0.0
H161 H 0.92366 0.7516 -0.05472 0.0
H162 H 0.68926 0.70812 -0.04668 0.0
H163 H 0.8354 0.73576 0.01462 0.0
H164 H 0.70776 0.57299 0.03851 0.0
H165 H 0.54095 0.63457 0.03791 0.0
H166 H 0.78393 0.64316 0.01663 0.0
H167 H 0.49487 0.73842 0.0145 0.0
C168 C 0.89698 0.52677 0.09146 0.0
C169 C 0.86835 0.49999 0.13087 0.0
C170 C 0.86807 0.53778 0.1135 0.0
C171 C 0.91523 0.45649 0.12935 0.0
C172 C 0.93151 0.46418 0.08799 0.0
C173 C 0.93295 0.43478 0.10771 0.0
N174 N 0.93227 0.57407 0.07567 0.0
C175 C 0.02928 0.55673 0.04731 0.0
C176 C 0.00255 0.44414 0.06853 0.0
C177 C 0.05489 0.4849 0.04799 0.0
Gd178 Gd 0.11494 0.7147 0.13519 0.0
Gd179 Gd 0.94531 0.64955 0.1094 0.0
N180 N 0.85362 0.58707 0.12042 0.0
C181 C 0.81779 0.50598 0.14958 0.0
C182 C 0.80364 0.59547 0.1385 0.0
C183 C 0.77953 0.55289 0.15233 0.0
H184 H 0.79901 0.63453 0.14488 0.0
H185 H 0.7502 0.55717 0.16861 0.0
H186 H 0.16842 0.7983 0.08946 0.0
H187 H 0.05415 0.58915 0.03407 0.0
H188 H 0.17368 0.90068 0.08035 0.0
H189 H 0.81275 0.47577 0.16251 0.0
H190 H 0.93124 0.43787 0.14538 0.0
H191 H 0.1419 0.7114 0.19582 0.0
H192 H 0.03925 0.458 0.05537 0.0
H193 H 0.0547 0.52418 0.04403 0.0
H194 H 0.00778 -0.04726 0.17506 0.0
H195 H 0.95589 0.39695 0.10599 0.0
H196 H 0.97569 0.81767 0.22136 0.0
H197 H 0.05986 0.74726 0.22712 0.0
N198 N 0.08703 0.75896 0.17014 0.0
C199 C 0.05811 0.80689 0.16806 0.0
C200 C 0.10273 0.74326 0.19232 0.0
C201 C 0.00552 0.80162 0.20667 0.0
C202 C 0.05551 0.76186 0.21024 0.0
C203 C 0.01483 0.82913 0.1866 0.0
H204 H 0.96056 0.89411 0.20204 0.0
N205 N 0.11354 0.80497 0.12698 0.0
C206 C 0.08118 0.83497 0.14936 0.0
C207 C 0.08727 -0.05966 0.13119 0.0
C208 C 0.06626 0.89897 0.15286 0.0
C209 C 0.14259 0.82453 0.10206 0.0
C210 C 0.1402 0.889 0.09521 0.0
O211 O 0.02507 0.57816 0.12506 0.0
O212 O 0.14192 0.61844 0.13311 0.0
O213 O 0.22823 0.74787 0.12253 0.0
O214 O 0.21281 0.72588 0.15801 0.0
O215 O 0.95457 0.66786 0.15609 0.0
O216 O 0.08224 0.66129 0.1664 0.0
O217 O 0.98364 0.765 0.13073 0.0
O218 O 0.87443 0.71578 0.12899 0.0
O219 O 0.86172 0.70479 0.09392 0.0
O220 O 0.85503 0.62423 0.085 0.0
O221 O 0.1516 0.6985 0.09673 0.0
O222 O 0.02948 0.71337 0.08672 0.0
C223 C 0.1015 0.57194 0.13072 0.0
C224 C 0.01057 0.66382 0.175 0.0
C225 C 0.34762 0.73931 0.14774 0.0
C226 C 0.48821 0.72072 0.13974 0.0
C227 C 0.43873 0.72543 0.17967 0.0
C228 C 0.36557 0.73773 0.17144 0.0
C229 C 0.49739 0.71384 0.16419 0.0
C230 C 0.41122 0.73411 0.13146 0.0
C231 C 0.26085 0.74529 0.14295 0.0
C232 C 0.02536 -0.08538 0.17238 0.0
C233 C 0.99403 0.8801 0.18748 0.0
H234 H 0.08293 -0.01814 0.13502 0.0
C235 C 0.90117 0.76422 0.13119 0.0
C236 C 0.1057 0.71031 0.07916 0.0
C237 C 0.73002 0.66339 0.09122 0.0
C238 C 0.54917 0.69776 0.12309 0.0
C239 C 0.56749 0.60763 0.09007 0.0
C240 C 0.66311 0.61429 0.08229 0.0
C241 C 0.51312 0.64471 0.10822 0.0
C242 C 0.70156 0.71018 0.11037 0.0
C243 C 0.81915 0.66793 0.08453 0.0
H244 H 0.44926 0.72291 0.19827 0.0
H245 H 0.32161 0.74923 0.18368 0.0
H246 H 0.54775 0.69765 0.17238 0.0
H247 H 0.40102 0.73795 0.11276 0.0
H248 H 0.53611 0.57557 0.08208 0.0
H249 H 0.70173 0.63929 0.08635 0.0
H250 H 0.4535 0.64019 0.10653 0.0
H251 H 0.74499 0.73823 0.11486 0.0
C252 C 0.34424 0.55706 0.09159 0.0
C253 C 0.37405 0.5869 0.13113 0.0
C254 C 0.37105 0.54739 0.11422 0.0
C255 C 0.33014 0.63107 0.12886 0.0
C256 C 0.31069 0.61953 0.08779 0.0
C257 C 0.3123 0.65069 0.10691 0.0
N258 N 0.30907 0.50921 0.07556 0.0
C259 C 0.21234 0.52626 0.04696 0.0
C260 C 0.24007 0.63932 0.06816 0.0
C261 C 0.18742 0.59816 0.04762 0.0
Gd262 Gd 0.12645 0.36679 0.13678 0.0
Gd263 Gd 0.29811 0.43399 0.10866 0.0
N264 N 0.37961 0.49865 0.12219 0.0
C265 C 0.42041 0.58032 0.15089 0.0
C266 C 0.42462 0.4899 0.14107 0.0
C267 C 0.45125 0.53187 0.15498 0.0
H268 H 0.42704 0.45071 0.14646 0.0
H269 H 0.47771 0.52703 0.17191 0.0
H270 H 0.06911 0.29038 0.08799 0.0
H271 H 0.18716 0.49361 0.03364 0.0
H272 H 0.0661 0.19104 0.0743 0.0
H273 H 0.42778 0.61108 0.16381 0.0
H274 H 0.31407 0.65041 0.14475 0.0
H275 H 0.12954 0.36678 0.19721 0.0
H276 H 0.20323 0.62514 0.05502 0.0
H277 H 0.18742 0.55878 0.04365 0.0
H278 H 0.16924 0.11471 0.16817 0.0
H279 H 0.29332 0.68885 0.10408 0.0
H280 H 0.27633 0.24254 0.21729 0.0
H281 H 0.21684 0.32502 0.22506 0.0
N282 N 0.16409 0.31695 0.16961 0.0
C283 C 0.1759 0.26589 0.16671 0.0
C284 C 0.16234 0.33304 0.19218 0.0
C285 C 0.24362 0.26216 0.20376 0.0
C286 C 0.21117 0.30933 0.20839 0.0
C287 C 0.21556 0.23661 0.18428 0.0
H288 H 0.24301 0.16353 0.19888 0.0
N289 N 0.11963 0.2776 0.1257 0.0
C290 C 0.14497 0.24287 0.14743 0.0
C291 C 0.13562 0.14151 0.12502 0.0
C292 C 0.15259 0.17795 0.14841 0.0
C293 C 0.09513 0.26263 0.09959 0.0
C294 C 0.09612 0.19934 0.09031 0.0
O295 O 0.21869 0.50468 0.12448 0.0
O296 O 0.10319 0.46377 0.13379 0.0
O297 O 0.00853 0.33611 0.1277 0.0
O298 O 0.03301 0.35955 0.16267 0.0
O299 O 0.29844 0.418 0.15512 0.0
O300 O 0.17271 0.418 0.16752 0.0
O301 O 0.25502 0.31565 0.13185 0.0
O302 O 0.36474 0.36483 0.12688 0.0
O303 O 0.38644 0.38128 0.09391 0.0
O304 O 0.38982 0.46133 0.08503 0.0
O305 O 0.091 0.3829 0.09758 0.0
O306 O 0.21309 0.37017 0.08631 0.0
C307 C 0.14317 0.51053 0.13084 0.0
C308 C 0.24606 0.4165 0.1748 0.0
C309 C 0.89409 0.35017 0.1539 0.0
C310 C 0.75211 0.36322 0.14411 0.0
C311 C 0.79702 0.35777 0.18486 0.0
C312 C 0.8731 0.35078 0.17761 0.0
C313 C 0.73786 0.36419 0.16856 0.0
C314 C 0.83195 0.35479 0.13697 0.0
C315 C 0.98038 0.34105 0.14865 0.0
C316 C 0.17736 0.15499 0.16792 0.0
C317 C 0.21642 0.1831 0.18457 0.0
H318 H 0.13826 0.09925 0.12735 0.0
C319 C 0.33697 0.31704 0.13031 0.0
C320 C 0.13636 0.373 0.07937 0.0
C321 C 0.51643 0.42449 0.09323 0.0
C322 C 0.69236 0.38631 0.12676 0.0
C323 C 0.68018 0.47889 0.09549 0.0
C324 C 0.58539 0.47368 0.08625 0.0
C325 C 0.73134 0.43961 0.11336 0.0
C326 C 0.54148 0.37634 0.11166 0.0
C327 C 0.4285 0.4188 0.08514 0.0
H328 H 0.7839 0.35749 0.20349 0.0
H329 H 0.91331 0.33811 0.19069 0.0
H330 H 0.68217 0.37245 0.17614 0.0
H331 H 0.845 0.35198 0.11841 0.0
H332 H 0.71302 0.51197 0.08934 0.0
H333 H 0.54514 0.44884 0.08911 0.0
H334 H 0.79074 0.43875 0.11034 0.0
H335 H 0.49745 0.34782 0.11503 0.0
C336 C 0.93208 0.57102 0.91316 0.0
C337 C 0.9105 0.65757 0.8935 0.0
C338 C 0.90322 0.59231 0.89345 0.0
C339 C 0.93591 0.68244 0.91252 0.0
C340 C 0.97143 0.6016 0.93033 0.0
C341 C 0.97572 0.65512 0.92931 0.0
N342 N 0.91659 0.52086 0.91706 0.0
C343 C 0.91006 0.50799 0.93995 0.0
C344 C 0.99503 0.57803 -0.04934 0.0
C345 C 0.95795 0.53285 -0.04377 0.0
Gd346 Gd 0.05628 0.39873 0.85887 0.0
Gd347 Gd 0.88421 0.46762 0.88445 0.0
N348 N 0.87768 0.55551 0.87226 0.0
C349 C 0.8923 0.69158 0.86964 0.0
C350 C 0.85247 0.56796 0.84602 0.0
C351 C 0.85252 0.63007 0.83596 0.0
H352 H 0.8263 0.53919 0.83481 0.0
H353 H 0.82177 0.63638 0.81988 0.0
H354 H 0.17108 0.38443 0.90171 0.0
H355 H 0.87566 0.47491 -0.05484 0.0
H356 H 0.18385 0.31425 0.93103 0.0
H357 H 0.89548 0.73405 0.87124 0.0
H358 H 0.93051 0.72352 0.91191 0.0
H359 H 0.95291 0.33553 0.78438 0.0
H360 H 0.02672 0.59899 -0.03608 0.0
H361 H 0.95826 0.52047 -0.02643 0.0
H362 H 0.04857 0.18186 0.89315 0.0
H363 H 0.00704 0.67572 -0.05754 0.0
H364 H 0.96663 0.20454 0.80627 0.0
H365 H 0.9526 0.27052 0.79432 0.0
N366 N 0.07369 0.32102 0.82648 0.0
C367 C 0.10771 0.27433 0.84314 0.0
C368 C 0.97777 0.30324 0.79776 0.0
C369 C 0.00343 0.19071 0.81947 0.0
C370 C 0.95168 0.23145 0.79857 0.0
C371 C 0.07521 0.21143 0.83904 0.0
H372 H 0.07363 0.13971 0.85289 0.0
N373 N 0.13267 0.33535 0.87502 0.0
C374 C 0.12483 0.28577 0.86706 0.0
C375 C 0.13145 0.25893 0.90783 0.0
C376 C 0.11078 0.24842 0.88455 0.0
C377 C 0.16093 0.34522 0.89673 0.0
C378 C 0.16492 0.30616 0.91336 0.0
O379 O 0.01317 0.5175 0.87952 0.0
O380 O 0.12288 0.46686 0.87769 0.0
O381 O 0.14042 0.45117 0.84171 0.0
O382 O 0.14933 0.36952 0.83667 0.0
O383 O 0.85129 0.44745 0.84593 0.0
O384 O 0.97332 0.46124 0.83569 0.0
O385 O 0.97887 0.32872 0.87658 0.0
O386 O 0.86114 0.3697 0.88298 0.0
O387 O 0.76945 0.50076 0.87332 0.0
O388 O 0.78719 0.47575 0.90834 0.0
O389 O 0.05366 0.42201 0.90466 0.0
O390 O 0.92791 0.42324 0.91674 0.0
C391 C 0.09506 0.51501 0.87963 0.0
C392 C 0.89769 0.45737 0.82819 0.0
C393 C 0.27255 0.4111 0.83888 0.0
C394 C 0.44957 0.44735 0.8721 0.0
C395 C 0.43812 0.35897 0.83852 0.0
C396 C 0.34263 0.36356 0.82985 0.0
C397 C 0.48894 0.39612 0.85724 0.0
C398 C 0.29785 0.45782 0.85842 0.0
C399 C 0.18289 0.41313 0.83332 0.0
C400 C 0.07884 0.20086 0.87928 0.0
C401 C 0.08437 0.17927 0.85705 0.0
H402 H 0.12399 0.23009 0.92133 0.0
C403 C 0.90195 0.32262 0.88147 0.0
C404 C 0.00119 0.42738 0.92394 0.0
C405 C 0.65084 0.48803 0.89803 0.0
C406 C 0.50991 0.46964 0.88932 0.0
C407 C 0.55823 0.4745 0.92955 0.0
C408 C 0.63152 0.48738 0.92155 0.0
C409 C 0.49927 0.46329 0.91378 0.0
C410 C 0.58799 0.48201 0.88145 0.0
C411 C 0.73776 0.49566 0.89371 0.0
H412 H 0.47467 0.32986 0.83093 0.0
H413 H 0.30209 0.38737 0.83384 0.0
H414 H 0.54918 0.39324 0.85587 0.0
H415 H 0.25314 0.48516 0.8631 0.0
H416 H 0.54809 0.47249 -0.05176 0.0
H417 H 0.6734 0.50267 0.93354 0.0
H418 H 0.44709 0.4482 0.92156 0.0
H419 H 0.59954 0.48525 0.8628 0.0
C420 C 0.81155 0.02334 0.91859 0.0
C421 C 0.82184 -0.06811 0.90323 0.0
C422 C 0.8375 -0.00451 0.9001 0.0
C423 C 0.77914 -0.08407 0.92219 0.0
C424 C 0.7632 0.00128 0.93608 0.0
C425 C 0.74198 -0.04957 0.93626 0.0
N426 N 0.84071 0.07102 0.92144 0.0
C427 C 0.85121 0.08573 -0.0559 0.0
C428 C 0.74993 0.02832 -0.04378 0.0
C429 C 0.80139 0.06653 -0.03885 0.0
Gd430 Gd 0.70388 0.18261 0.85966 0.0
Gd431 Gd 0.87306 0.11591 0.88659 0.0
N432 N 0.86964 0.02565 0.87794 0.0
C433 C 0.84025 0.89089 0.88141 0.0
C434 C 0.89724 0.0065 0.85277 0.0
C435 C 0.89268 -0.05776 0.84519 0.0
H436 H 0.9247 0.03262 0.84062 0.0
H437 H 0.92636 -0.06944 0.83037 0.0
H438 H 0.56404 0.19987 0.89391 0.0
H439 H 0.88778 0.1169 -0.05107 0.0
H440 H 0.49683 0.27731 0.91585 0.0
H441 H 0.83819 0.84948 0.88533 0.0
H442 H 0.7625 0.87754 0.92424 0.0
H443 H 0.81806 0.24099 0.78486 0.0
H444 H 0.71485 0.01281 -0.02996 0.0
H445 H 0.8031 0.08091 -0.02188 0.0
H446 H 0.68319 0.39914 0.8952 0.0
H447 H 0.7031 -0.06329 -0.05039 0.0
H448 H 0.80121 0.37325 0.80528 0.0
H449 H 0.81746 0.30664 0.79422 0.0
N450 N 0.69576 0.25779 0.82636 0.0
C451 C 0.66041 0.3059 0.84197 0.0
C452 C 0.79231 0.27411 0.79771 0.0
C453 C 0.76425 0.38777 0.81829 0.0
C454 C 0.81726 0.34609 0.79799 0.0
C455 C 0.69383 0.36825 0.83805 0.0
H456 H 0.71383 0.43672 0.85518 0.0
N457 N 0.62038 0.24785 0.87165 0.0
C458 C 0.63095 0.29653 0.86402 0.0
C459 C 0.57228 0.32966 0.89912 0.0
C460 C 0.62418 0.33608 0.88063 0.0
C461 C 0.5695 0.23928 0.88907 0.0
C462 C 0.5376 0.28157 0.90179 0.0
O463 O 0.74153 0.06597 0.88109 0.0
O464 O 0.63232 0.11458 0.87802 0.0
O465 O 0.61766 0.12918 0.84417 0.0
O466 O 0.60838 0.21002 0.83715 0.0
O467 O 0.90925 0.13216 0.84805 0.0
O468 O 0.7872 0.11776 0.83728 0.0
O469 O 0.78494 0.2543 0.87504 0.0
O470 O 0.89937 0.21375 0.88569 0.0
O471 O 0.98829 0.09318 0.87154 0.0
O472 O 0.97214 0.0941 0.90831 0.0
O473 O 0.70729 0.16585 0.90608 0.0
O474 O 0.83423 0.16639 0.91802 0.0
C475 C 0.65883 0.06612 0.88057 0.0
C476 C 0.86394 0.11997 0.83028 0.0
C477 C 0.49083 0.16882 0.84696 0.0
C478 C 0.31847 0.13332 0.88095 0.0
C479 C 0.33677 0.22937 0.85247 0.0
C480 C 0.42982 0.21934 0.84262 0.0
C481 C 0.28348 0.191 0.87039 0.0
C482 C 0.46481 0.11986 0.86377 0.0
C483 C 0.57161 0.16668 0.83731 0.0
C484 C 0.66936 0.37991 0.87908 0.0
C485 C 0.69183 0.39917 0.8574 0.0
H486 H 0.56098 0.36079 0.91151 0.0
C487 C 0.86023 0.26066 0.88189 0.0
C488 C 0.76109 0.1664 0.92556 0.0
C489 C 0.11052 0.09748 0.8968 0.0
C490 C 0.256 0.10413 0.89354 0.0
C491 C 0.19395 0.11267 0.93087 0.0
C492 C 0.12349 0.11357 0.91925 0.0
C493 C 0.2609 0.10738 0.91804 0.0
C494 C 0.17992 0.09555 0.88266 0.0
C495 C 0.02271 0.08632 0.89153 0.0
H496 H 0.30941 0.26556 0.84753 0.0
H497 H 0.45644 0.25182 0.83473 0.0
H498 H 0.22786 0.20294 0.87555 0.0
H499 H 0.50418 0.08803 0.86348 0.0
H500 H 0.19657 0.12145 -0.05061 0.0
H501 H 0.07917 0.13599 0.92515 0.0
H502 H 0.31471 0.11572 0.92717 0.0
H503 H 0.17602 0.08925 0.86385 0.0
C504 C 0.93534 0.0078 0.7173 0.0
C505 C 0.9115 -0.07903 0.73623 0.0
C506 C 0.90399 -0.01387 0.73663 0.0
C507 C 0.93512 0.89636 0.717 0.0
C508 C 0.9749 -0.02292 0.7002 0.0
C509 C 0.9754 -0.07652 0.70042 0.0
N510 N 0.92301 0.05857 0.71371 0.0
C511 C 0.9194 0.07227 0.69089 0.0
C512 C 0.00121 0.00074 0.6803 0.0
C513 C 0.9655 0.04611 0.67464 0.0
Gd514 Gd 0.05619 0.1795 0.77288 0.0
Gd515 Gd 0.88517 0.11084 0.74598 0.0
N516 N 0.87723 0.02231 0.7579 0.0
C517 C 0.89286 0.8862 0.75968 0.0
C518 C 0.85065 0.00885 0.78396 0.0
C519 C 0.85061 -0.05398 0.79363 0.0
H520 H 0.82495 0.03754 0.79533 0.0
H521 H 0.8185 -0.06145 0.80936 0.0
H522 H 0.17734 0.18939 0.73299 0.0
H523 H 0.88476 0.10504 0.68543 0.0
H524 H 0.17537 0.25489 0.70112 0.0
H525 H 0.89649 0.8438 0.7577 0.0
H526 H 0.92832 0.85542 0.71734 0.0
H527 H 0.95075 0.2441 0.84712 0.0
H528 H 0.03154 -0.02078 0.66699 0.0
H529 H 0.9624 0.0559 0.65706 0.0
H530 H 0.05414 0.39403 0.73844 0.0
H531 H 0.00398 0.90282 0.68677 0.0
H532 H 0.96908 0.3745 0.82493 0.0
H533 H 0.95175 0.30893 0.83689 0.0
N534 N 0.07339 0.25686 0.80553 0.0
C535 C 0.10999 0.30294 0.78915 0.0
C536 C 0.97626 0.27587 0.8336 0.0
C537 C 0.00686 0.38806 0.81198 0.0
C538 C 0.95242 0.34801 0.83261 0.0
C539 C 0.07897 0.36629 0.79285 0.0
H540 H 0.07629 0.43763 0.77789 0.0
N541 N 0.13811 0.24077 0.75835 0.0
C542 C 0.12851 0.2906 0.76555 0.0
C543 C 0.13023 0.31323 0.72434 0.0
C544 C 0.11346 0.32655 0.74764 0.0
C545 C 0.16571 0.22913 0.73686 0.0
C546 C 0.16102 0.26516 0.719 0.0
O547 O 0.01292 0.0605 0.75122 0.0
O548 O 0.12207 0.11114 0.75368 0.0
O549 O 0.1406 0.12549 0.78868 0.0
O550 O 0.14829 0.20655 0.79622 0.0
O551 O 0.85107 0.13027 0.78457 0.0
O552 O 0.97284 0.11697 0.79563 0.0
O553 O 0.97933 0.24934 0.75485 0.0
O554 O 0.86155 0.20845 0.7478 0.0
O555 O 0.77007 0.07936 0.75726 0.0
O556 O 0.78874 0.09964 0.72172 0.0
O557 O 0.05473 0.16094 0.72674 0.0
O558 O 0.92953 0.15796 0.71394 0.0
C559 C 0.09454 0.06303 0.75113 0.0
C560 C 0.8967 0.12033 0.80258 0.0
C561 C 0.27215 0.16612 0.791 0.0
C562 C 0.44904 0.12964 0.75788 0.0
C563 C 0.43762 0.21809 0.79141 0.0
C564 C 0.34225 0.21362 0.79996 0.0
C565 C 0.48836 0.1808 0.77283 0.0
C566 C 0.29724 0.11934 0.77141 0.0
C567 C 0.18333 0.16279 0.79764 0.0
C568 C 0.08385 0.37521 0.75241 0.0
C569 C 0.08867 0.39781 0.77448 0.0
H570 H 0.12246 0.34062 0.71058 0.0
C571 C 0.90239 0.25533 0.74981 0.0
C572 C 0.00378 0.15723 0.70705 0.0
C573 C 0.65108 0.08856 0.73225 0.0
C574 C 0.50968 0.10702 0.74084 0.0
C575 C 0.55771 0.10142 0.70069 0.0
C576 C 0.63127 0.08865 0.70876 0.0
C577 C 0.49908 0.11327 0.71638 0.0
C578 C 0.58792 0.09452 0.74877 0.0
C579 C 0.7386 0.08186 0.73673 0.0
H580 H 0.47424 0.2471 0.79909 0.0
H581 H 0.3018 0.18971 0.79599 0.0
H582 H 0.54828 0.18223 0.77512 0.0
H583 H 0.25272 0.09186 0.76685 0.0
H584 H 0.54699 0.10328 0.68202 0.0
H585 H 0.67341 0.07373 0.69681 0.0
H586 H 0.44722 0.12891 0.70854 0.0
H587 H 0.59938 0.09137 0.76743 0.0
C588 C 0.81616 0.55326 0.71127 0.0
C589 C 0.82488 0.6453 0.72665 0.0
C590 C 0.83996 0.58142 0.73 0.0
C591 C 0.78086 0.66082 0.70783 0.0
C592 C 0.76921 0.57519 0.69344 0.0
C593 C 0.7461 0.62587 0.69331 0.0
N594 N 0.84553 0.50537 0.70873 0.0
C595 C 0.85669 0.48924 0.68627 0.0
C596 C 0.75665 0.54765 0.67341 0.0
C597 C 0.80688 0.50824 0.66905 0.0
Gd598 Gd 0.70482 0.39483 0.77106 0.0
Gd599 Gd 0.87623 0.46121 0.74371 0.0
N600 N 0.87215 0.55165 0.75235 0.0
C601 C 0.84523 0.68687 0.74837 0.0
C602 C 0.90068 0.57159 0.77737 0.0
C603 C 0.89748 0.63647 0.78445 0.0
H604 H 0.92788 0.54557 0.78967 0.0
H605 H 0.93133 0.64816 0.79919 0.0
H606 H 0.56758 0.37761 0.73619 0.0
H607 H 0.89355 0.45686 0.68215 0.0
H608 H 0.49924 0.30033 0.71444 0.0
H609 H 0.84297 0.72821 0.74434 0.0
H610 H 0.76263 0.6991 0.70602 0.0
H611 H 0.8189 0.33698 0.84603 0.0
H612 H 0.72168 0.56283 0.65939 0.0
H613 H 0.80593 0.49272 0.65236 0.0
H614 H 0.67856 0.17709 0.7364 0.0
H615 H 0.70695 0.6392 0.67986 0.0
H616 H 0.80137 0.20471 0.82573 0.0
H617 H 0.81773 0.27132 0.83675 0.0
N618 N 0.69567 0.32024 0.80468 0.0
C619 C 0.65996 0.27202 0.7891 0.0
C620 C 0.79264 0.30386 0.83326 0.0
C621 C 0.76417 0.19029 0.81272 0.0
C622 C 0.81744 0.23188 0.83298 0.0
C623 C 0.69336 0.20964 0.79308 0.0
H624 H 0.71023 0.14001 0.77654 0.0
N625 N 0.62137 0.32966 0.75903 0.0
C626 C 0.63035 0.28111 0.76703 0.0
C627 C 0.56996 0.24744 0.73222 0.0
C628 C 0.62195 0.24105 0.75074 0.0
C629 C 0.57138 0.33831 0.74136 0.0
C630 C 0.53825 0.29606 0.72889 0.0
O631 O 0.74434 0.51164 0.74897 0.0
O632 O 0.63454 0.46323 0.75256 0.0
O633 O 0.61845 0.44864 0.78602 0.0
O634 O 0.60946 0.36812 0.79374 0.0
O635 O 0.91242 0.44685 0.78261 0.0
O636 O 0.78925 0.45935 0.79319 0.0
O637 O 0.78439 0.32308 0.75569 0.0
O638 O 0.90045 0.36393 0.74702 0.0
O639 O 0.99394 0.48411 0.75719 0.0
O640 O 0.9744 0.47959 0.7206 0.0
O641 O 0.70822 0.41075 0.72449 0.0
O642 O 0.83496 0.40902 0.71257 0.0
C643 C 0.66146 0.51152 0.74969 0.0
C644 C 0.86595 0.45742 0.80034 0.0
C645 C 0.49189 0.40878 0.78328 0.0
C646 C 0.32075 0.44357 0.74838 0.0
C647 C 0.33868 0.34744 0.77689 0.0
C648 C 0.4312 0.3579 0.78727 0.0
C649 C 0.28594 0.38564 0.75865 0.0
C650 C 0.4661 0.45767 0.76639 0.0
C651 C 0.57248 0.41136 0.79311 0.0
C652 C 0.6664 0.19688 0.75241 0.0
C653 C 0.6899 0.17804 0.77404 0.0
H654 H 0.55701 0.21606 0.72007 0.0
C655 C 0.86062 0.31701 0.75008 0.0
C656 C 0.76177 0.40972 0.70497 0.0
C657 C 0.11341 0.4782 0.73107 0.0
C658 C 0.25855 0.47227 0.73527 0.0
C659 C 0.1984 0.46731 0.69729 0.0
C660 C 0.12772 0.46234 0.70846 0.0
C661 C 0.26483 0.47041 0.71077 0.0
C662 C 0.18187 0.47991 0.74566 0.0
C663 C 0.02626 0.48861 0.73675 0.0
H664 H 0.31179 0.31089 0.78147 0.0
H665 H 0.45795 0.32545 0.7952 0.0
H666 H 0.2323 0.37264 0.75219 0.0
H667 H 0.50522 0.4897 0.76684 0.0
H668 H 0.20206 0.45752 0.67885 0.0
H669 H 0.10704 0.42447 0.70658 0.0
H670 H 0.31908 0.46186 0.702 0.0
H671 H 0.1769 0.48579 0.76445 0.0
C672 C 0.89046 0.04964 0.53915 0.0
C673 C 0.8564 0.07663 0.50028 0.0
C674 C 0.85852 0.03872 0.51753 0.0
C675 C 0.90544 0.11914 0.50091 0.0
C676 C 0.92736 0.1118 0.54207 0.0
C677 C 0.92855 0.14049 0.52212 0.0
N678 N 0.92545 0.00226 0.55498 0.0
C679 C 0.0245 0.01895 0.58279 0.0
C680 C 9e-05 0.13132 0.56113 0.0
C681 C 0.05206 0.09044 0.58166 0.0
Gd682 Gd 0.10463 0.85926 0.49454 0.0
Gd683 Gd 0.93847 -0.07209 0.52092 0.0
N684 N 0.84366 -0.0106 0.51069 0.0
C685 C 0.8036 0.0708 0.48215 0.0
C686 C 0.79137 -0.01898 0.49307 0.0
C687 C 0.76522 0.02388 0.47965 0.0
H688 H 0.78551 -0.05803 0.48673 0.0
H689 H 0.73344 0.02055 0.46376 0.0
H690 H 0.16615 0.78211 0.54194 0.0
H691 H 0.04939 -0.01351 0.59601 0.0
H692 H 0.17558 0.68186 0.55415 0.0
H693 H 0.7983 0.10091 0.46924 0.0
H694 H 0.91975 0.13724 0.48461 0.0
H695 H 0.03872 0.83636 0.43188 0.0
H696 H 0.03706 0.1175 0.57429 0.0
H697 H 0.05094 0.05125 0.58576 0.0
H698 H 0.05665 0.60774 0.4597 0.0
H699 H 0.95409 0.17755 0.52321 0.0
H700 H 0.87056 0.73473 0.43477 0.0
H701 H 0.89244 0.82538 0.42639 0.0
N702 N 0.03455 0.80905 0.46554 0.0
C703 C 0.0376 0.75725 0.46638 0.0
C704 C -0.00012 0.82603 0.44576 0.0
C705 C 0.92041 0.75353 0.44223 0.0
C706 C 0.92991 0.80524 0.43833 0.0
C707 C 0.98132 0.72748 0.45343 0.0
H708 H 0.95834 0.65653 0.43636 0.0
N709 N 0.11414 0.76942 0.50421 0.0
C710 C 0.0854 0.73498 0.48252 0.0
C711 C 0.09973 0.63312 0.50375 0.0
C712 C 0.07925 0.66984 0.48097 0.0
C713 C 0.14166 0.75403 0.53 0.0
C714 C 0.14302 0.69059 0.5386 0.0
O715 O 0.01637 -0.00116 0.50479 0.0
O716 O 0.13149 -0.04354 0.49679 0.0
O717 O 0.21878 0.82675 0.5056 0.0
O718 O 0.1975 0.84391 0.46979 0.0
O719 O 0.95901 -0.08165 0.47411 0.0
O720 O 0.08696 0.9111 0.46201 0.0
O721 O 0.97763 0.80914 0.50176 0.0
O722 O 0.87068 0.86057 0.50053 0.0
O723 O 0.8522 0.87257 0.5346 0.0
O724 O 0.84658 -0.04793 0.54531 0.0
O725 O 0.14255 0.87716 0.53298 0.0
O726 O 0.02132 0.8632 0.5436 0.0
C727 C 0.09277 0.00391 0.4991 0.0
C728 C 0.0154 -0.07745 0.45511 0.0
C729 C 0.33546 0.83478 0.48031 0.0
C730 C 0.47672 0.85355 0.48936 0.0
C731 C 0.4284 0.8475 0.44894 0.0
C732 C 0.35471 0.83503 0.45676 0.0
C733 C 0.48669 0.85966 0.46479 0.0
C734 C 0.39865 0.84043 0.49701 0.0
C735 C 0.24861 0.82721 0.48488 0.0
C736 C 0.04384 0.64755 0.46282 0.0
C737 C 0.98943 0.67515 0.45024 0.0
H738 H 0.09553 0.5909 0.50116 0.0
C739 C 0.89637 0.81151 0.49965 0.0
C740 C 0.09779 0.86587 0.55088 0.0
C741 C 0.72024 -0.08691 0.53787 0.0
C742 C 0.53812 0.87562 0.50681 0.0
C743 C 0.55555 -0.03389 0.53991 0.0
C744 C 0.65214 -0.03892 0.54716 0.0
C745 C 0.50117 -0.07196 0.52201 0.0
C746 C 0.6922 0.86591 0.51885 0.0
C747 C 0.80975 0.90861 0.54457 0.0
H748 H 0.43949 0.84925 0.43029 0.0
H749 H 0.31161 0.82205 0.44439 0.0
H750 H 0.53761 0.8752 0.45668 0.0
H751 H 0.38723 0.83666 0.51564 0.0
H752 H 0.52376 -0.00204 0.54792 0.0
H753 H 0.69167 -0.06331 0.54293 0.0
H754 H 0.44161 -0.06814 0.5238 0.0
H755 H 0.73706 0.83953 0.51352 0.0
C756 C 0.33681 0.01815 0.53765 0.0
C757 C 0.36716 -0.01182 0.4982 0.0
C758 C 0.36382 0.02774 0.5151 0.0
C759 C 0.32199 -0.05569 0.5002 0.0
C760 C 0.30283 -0.04421 0.54147 0.0
C761 C 0.30173 -0.07487 0.52203 0.0
N762 N 0.30272 0.06612 0.55381 0.0
C763 C 0.20726 0.04918 0.58274 0.0
C764 C 0.23349 -0.06385 0.5614 0.0
C765 C 0.18218 -0.02266 0.58218 0.0
Gd766 Gd 0.12161 0.20941 0.49338 0.0
Gd767 Gd 0.29241 0.14157 0.52092 0.0
N768 N 0.37307 0.07655 0.50727 0.0
C769 C 0.41372 -0.00502 0.47852 0.0
C770 C 0.41897 0.08534 0.48865 0.0
C771 C 0.44502 0.0435 0.47462 0.0
H772 H 0.42282 0.12467 0.48355 0.0
H773 H 0.47159 0.04892 0.45776 0.0
H774 H 0.06461 0.28369 0.54333 0.0
H775 H 0.18326 0.08176 0.5963 0.0
H776 H 0.06842 0.38086 0.55911 0.0
H777 H 0.42084 -0.03562 0.46552 0.0
H778 H 0.30657 -0.07548 0.48431 0.0
H779 H 0.12499 0.21063 0.43293 0.0
H780 H 0.19757 -0.04959 0.5747 0.0
H781 H 0.1825 0.01672 0.58615 0.0
H782 H 0.15701 0.46343 0.46392 0.0
H783 H 0.2804 0.88737 0.52444 0.0
H784 H 0.26502 0.33839 0.41378 0.0
H785 H 0.21255 0.25375 0.4057 0.0
N786 N 0.15633 0.2607 0.46094 0.0
C787 C 0.16663 0.31188 0.46433 0.0
C788 C 0.15644 0.24469 0.4383 0.0
C789 C 0.23304 0.31774 0.42717 0.0
C790 C 0.20486 0.26936 0.42241 0.0
C791 C 0.20387 0.34225 0.44682 0.0
H792 H 0.22511 0.41611 0.43266 0.0
N793 N 0.11507 0.29799 0.50582 0.0
C794 C 0.13862 0.33396 0.48439 0.0
C795 C 0.13369 0.43388 0.5082 0.0
C796 C 0.14725 0.39894 0.48423 0.0
C797 C 0.09315 0.31125 0.53226 0.0
C798 C 0.09654 0.37352 0.54258 0.0
O799 O 0.21147 0.0708 0.50541 0.0
O800 O 0.09672 0.11238 0.49608 0.0
O801 O 0.00439 0.24088 0.50256 0.0
O802 O 0.02804 0.21669 0.46762 0.0
O803 O 0.29353 0.15816 0.47469 0.0
O804 O 0.16776 0.15903 0.46239 0.0
O805 O 0.25015 0.26067 0.49806 0.0
O806 O 0.35938 0.2114 0.50323 0.0
O807 O 0.38084 0.19418 0.53574 0.0
O808 O 0.38446 0.11383 0.54433 0.0
O809 O 0.08716 0.1923 0.53227 0.0
O810 O 0.20921 0.20571 0.54337 0.0
C811 C 0.13587 0.06522 0.49895 0.0
C812 C 0.24096 0.16035 0.4551 0.0
C813 C 0.89002 0.22626 0.47648 0.0
C814 C 0.74868 0.21239 0.48643 0.0
C815 C 0.79279 0.21841 0.44556 0.0
C816 C 0.86877 0.22589 0.45277 0.0
C817 C 0.73425 0.21133 0.46191 0.0
C818 C 0.82843 0.22127 0.49349 0.0
C819 C 0.97596 0.23568 0.48162 0.0
C820 C 0.16703 0.42312 0.46444 0.0
C821 C 0.20269 0.39571 0.44703 0.0
H822 H 0.13642 0.47629 0.50642 0.0
C823 C 0.33202 0.25938 0.49989 0.0
C824 C 0.13273 0.20287 0.55033 0.0
C825 C 0.51071 0.151 0.53617 0.0
C826 C 0.68898 0.19038 0.50415 0.0
C827 C 0.67557 0.09834 0.53605 0.0
C828 C 0.57964 0.10263 0.54397 0.0
C829 C 0.72798 0.13783 0.51847 0.0
C830 C 0.53641 0.19897 0.51769 0.0
C831 C 0.42296 0.15648 0.5443 0.0
H832 H 0.77901 0.21891 0.42695 0.0
H833 H 0.90876 0.23892 0.4397 0.0
H834 H 0.67897 0.20301 0.45413 0.0
H835 H 0.84194 0.22432 0.51203 0.0
H836 H 0.70864 0.06738 0.54418 0.0
H837 H 0.53972 0.12716 0.54058 0.0
H838 H 0.78684 0.14047 0.52287 0.0
H839 H 0.49172 0.22637 0.51349 0.0
C840 C 0.89306 0.01995 0.59251 0.0
C841 C 0.87017 -0.00707 0.63283 0.0
C842 C 0.86833 0.03126 0.61556 0.0
C843 C 0.91131 -0.05249 0.62984 0.0
C844 C 0.9233 -0.04337 0.58868 0.0
C845 C 0.92069 -0.07395 0.60768 0.0
N846 N 0.92919 0.06627 0.57597 0.0
C847 C 0.02343 0.04594 0.54694 0.0
C848 C 0.99195 -0.0656 0.56882 0.0
C849 C 0.04532 -0.02629 0.54776 0.0
Gd850 Gd 0.10176 0.20949 0.63447 0.0
Gd851 Gd 0.94436 0.14103 0.60879 0.0
N852 N 0.86013 0.08062 0.62357 0.0
C853 C 0.82759 0.0004 0.65328 0.0
C854 C 0.81991 0.09053 0.64355 0.0
C855 C 0.79647 0.04887 0.65779 0.0
H856 H 0.81715 0.13 0.64983 0.0
H857 H 0.77211 0.05486 0.67495 0.0
H858 H 0.16309 0.28944 0.59 0.0
H859 H 0.04932 0.07742 0.53338 0.0
H860 H 0.17424 0.39069 0.57992 0.0
H861 H 0.8251 -0.0297 0.66645 0.0
H862 H 0.92894 -0.07228 0.6454 0.0
H863 H 0.90425 0.20768 0.66436 0.0
H864 H 0.02833 -0.05226 0.55559 0.0
H865 H 0.04678 0.01283 0.54364 0.0
H866 H 0.03188 0.45406 0.67559 0.0
H867 H 0.93555 0.88705 0.60448 0.0
H868 H 0.90327 0.32581 0.70979 0.0
H869 H 0.86669 0.23925 0.69993 0.0
N870 N 0.01236 0.25379 0.6611 0.0
C871 C 0.03584 0.30277 0.66667 0.0
C872 C 0.94195 0.2373 0.67089 0.0
C873 C 0.93849 0.30526 0.69767 0.0
C874 C 0.91259 0.25835 0.69088 0.0
C875 C 0.99467 0.33001 0.68458 0.0
H876 H 0.97009 0.39961 0.70259 0.0
N877 N 0.11289 0.29869 0.62806 0.0
C878 C 0.08312 0.32942 0.65068 0.0
C879 C 0.09674 0.43493 0.63135 0.0
C880 C 0.0747 0.3948 0.65362 0.0
C881 C 0.14126 0.31667 0.6028 0.0
C882 C 0.14287 0.38052 0.59555 0.0
O883 O 0.01984 0.06963 0.62391 0.0
O884 O 0.1315 0.1129 0.63349 0.0
O885 O 0.21726 0.2393 0.62318 0.0
O886 O 0.1948 0.22842 0.65937 0.0
O887 O 0.97517 0.14301 0.656 0.0
O888 O 0.09263 0.17274 0.67062 0.0
O889 O 0.97773 0.26182 0.62512 0.0
O890 O 0.87121 0.21052 0.62513 0.0
O891 O 0.85388 0.19352 0.59531 0.0
O892 O 0.84912 0.11403 0.58572 0.0
O893 O 0.14338 0.19214 0.59625 0.0
O894 O 0.02315 0.20531 0.58513 0.0
C895 C 0.09451 0.06522 0.63068 0.0
C896 C 0.02559 0.1526 0.67668 0.0
C897 C 0.3349 0.23466 0.64912 0.0
C898 C 0.47859 0.21757 0.64139 0.0
C899 C 0.42713 0.22411 0.68123 0.0
C900 C 0.353 0.23482 0.67278 0.0
C901 C 0.48755 0.21294 0.66597 0.0
C902 C 0.4002 0.2294 0.63302 0.0
C903 C 0.2471 0.24178 0.64391 0.0
C904 C 0.03502 0.41392 0.67227 0.0
C905 C -0.00139 0.38234 0.68775 0.0
H906 H 0.09594 0.47668 0.63482 0.0
C907 C 0.89588 0.25968 0.62597 0.0
C908 C 0.09949 0.20356 0.57814 0.0
C909 C 0.72211 0.1535 0.59403 0.0
C910 C 0.54128 0.1935 0.62504 0.0
C911 C 0.55746 0.10082 0.59337 0.0
C912 C 0.65353 0.10523 0.58584 0.0
C913 C 0.504 0.14022 0.61072 0.0
C914 C 0.69488 0.20248 0.61237 0.0
C915 C 0.81102 0.15695 0.58636 0.0
H916 H 0.43738 0.22357 0.69996 0.0
H917 H 0.30858 0.24757 0.68472 0.0
H918 H 0.53967 0.19895 0.6743 0.0
H919 H 0.39043 0.23259 0.61429 0.0
H920 H 0.52468 0.0696 0.58521 0.0
H921 H 0.69307 0.12989 0.58956 0.0
H922 H 0.44501 0.14004 0.6071 0.0
H923 H 0.73932 0.22931 0.61693 0.0
C924 C 0.33959 0.05118 0.59096 0.0
C925 C 0.36894 0.08126 0.6304 0.0
C926 C 0.36578 0.04174 0.61354 0.0
C927 C 0.32377 0.12507 0.62848 0.0
C928 C 0.30579 0.11382 0.58728 0.0
C929 C 0.30537 0.14473 0.6066 0.0
N930 N 0.30346 0.00317 0.57511 0.0
C931 C 0.2052 0.02053 0.54702 0.0
C932 C 0.23447 0.13341 0.56798 0.0
C933 C 0.18086 0.09235 0.54772 0.0
Gd934 Gd 0.12448 0.86167 0.63503 0.0
Gd935 Gd 0.29164 -0.07127 0.60865 0.0
N936 N 0.37533 -0.00681 0.62152 0.0
C937 C 0.42015 0.0758 0.64915 0.0
C938 C 0.42468 -0.01481 0.63956 0.0
C939 C 0.45579 0.02827 0.65215 0.0
H940 H 0.43066 -0.05411 0.64474 0.0
H941 H 0.4961 0.02599 0.66652 0.0
H942 H 0.06927 0.78221 0.58727 0.0
H943 H 0.17812 -0.01222 0.53407 0.0
H944 H 0.0688 0.68229 0.57468 0.0
H945 H 0.43059 0.10733 0.66146 0.0
H946 H 0.30967 0.14509 0.64436 0.0
H947 H 0.12057 0.86379 0.69541 0.0
H948 H 0.19719 0.11924 0.55501 0.0
H949 H 0.18047 0.05298 0.54383 0.0
H950 H 0.19439 0.61514 0.66926 0.0
H951 H 0.28602 0.18301 0.60397 0.0
H952 H 0.28314 0.74953 0.71611 0.0
H953 H 0.21048 0.82748 0.72383 0.0
N954 N 0.16241 0.81505 0.66829 0.0
C955 C 0.17979 0.76471 0.66576 0.0
C956 C 0.1582 0.832 0.69064 0.0
C957 C 0.24864 0.76686 0.70252 0.0
C958 C 0.20956 0.81179 0.70703 0.0
C959 C 0.22316 0.73878 0.68347 0.0
H960 H 0.25939 0.6686 0.69893 0.0
N961 N 0.12269 0.77206 0.62476 0.0
C962 C 0.15133 0.73935 0.64667 0.0
C963 C 0.1474 0.63652 0.62563 0.0
C964 C 0.16378 0.67512 0.64848 0.0
C965 C 0.09716 0.75547 0.59899 0.0
C966 C 0.10108 0.69217 0.59018 0.0
O967 O 0.21334 -0.00042 0.62472 0.0
O968 O 0.09825 -0.04209 0.63295 0.0
O969 O 0.00855 0.8324 0.62256 0.0
O970 O 0.02989 0.84495 0.65867 0.0
O971 O 0.28797 -0.08287 0.65517 0.0
O972 O 0.16021 -0.08333 0.66622 0.0
O973 O 0.25466 0.81152 0.63033 0.0
O974 O 0.36275 0.86146 0.62763 0.0
O975 O 0.37843 0.87422 0.5947 0.0
O976 O 0.38301 -0.04599 0.58457 0.0
O977 O 0.08575 0.87785 0.59663 0.0
O978 O 0.20759 0.86413 0.58603 0.0
C979 C 0.13765 0.00484 0.63079 0.0
C980 C 0.23336 -0.08202 0.67428 0.0
C981 C 0.89116 0.83958 0.64912 0.0
C982 C 0.74688 0.85522 0.6435 0.0
C983 C 0.80414 0.85076 0.68235 0.0
C984 C 0.87655 0.84046 0.67292 0.0
C985 C 0.7403 0.85902 0.66803 0.0
C986 C 0.82394 0.84489 0.63392 0.0
C987 C 0.97796 0.83119 0.64327 0.0
C988 C 0.19278 0.65507 0.6684 0.0
C989 C 0.22961 0.68578 0.68448 0.0
H990 H 0.15147 0.59449 0.62848 0.0
C991 C 0.33684 0.8129 0.63028 0.0
C992 C 0.13103 0.86676 0.57875 0.0
C993 C 0.50734 -0.08227 0.59553 0.0
C994 C 0.68352 0.88126 0.62885 0.0
C995 C 0.66684 -0.02444 0.59899 0.0
C996 C 0.57342 -0.03109 0.58964 0.0
C997 C 0.71928 -0.06321 0.61661 0.0
C998 C 0.53426 0.86843 0.61344 0.0
C999 C 0.42139 0.91128 0.58604 0.0
H1000 H 0.79904 0.85281 0.70109 0.0
H1001 H 0.92178 0.82705 0.68422 0.0
H1002 H 0.6872 0.87084 0.67666 0.0
H1003 H 0.83043 0.84184 0.61505 0.0
H1004 H 0.69918 0.0076 0.59163 0.0
H1005 H 0.5354 -0.05721 0.59217 0.0
H1006 H 0.77866 -0.06083 0.61467 0.0
H1007 H 0.49283 0.83808 0.61518 0.0
C1008 C 0.94182 0.05096 0.41775 0.0
C1009 C 0.9398 0.14326 0.40319 0.0
C1010 C 0.92325 0.07985 0.39892 0.0
C1011 C 0.98202 0.15767 0.42265 0.0
C1012 C 0.98372 0.07211 0.43682 0.0
C1013 C 0.01148 0.12168 0.43743 0.0
N1014 N 0.90407 0.00583 0.41995 0.0
C1015 C 0.88134 -0.00785 0.442 0.0
C1016 C 0.98096 0.04755 0.4577 0.0
C1017 C 0.9242 0.01185 0.46063 0.0
Gd1018 Gd 0.0553 0.89631 0.35942 0.0
Gd1019 Gd 0.8853 -0.03882 0.38444 0.0
N1020 N 0.8869 0.05163 0.37653 0.0
C1021 C 0.91572 0.18627 0.38275 0.0
C1022 C 0.85356 0.07356 0.35228 0.0
C1023 C 0.85506 0.13937 0.34673 0.0
H1024 H 0.82692 0.04809 0.33941 0.0
H1025 H 0.81803 0.1522 0.33295 0.0
H1026 H 0.17084 0.88306 0.40197 0.0
H1027 H 0.84195 -0.03996 0.44507 0.0
H1028 H 0.18176 0.81308 0.43133 0.0
H1029 H 0.91922 0.22721 0.3876 0.0
H1030 H -0.00124 0.19612 0.42589 0.0
H1031 H 0.94667 0.82996 0.28585 0.0
H1032 H 0.00856 0.06348 0.47293 0.0
H1033 H 0.91821 -0.00171 0.47748 0.0
H1034 H 0.05254 0.67934 0.39261 0.0
H1035 H 0.04396 0.13439 0.45239 0.0
H1036 H 0.97234 0.69985 0.30722 0.0
H1037 H 0.95071 0.76522 0.29595 0.0
N1038 N 0.07072 0.81897 0.32739 0.0
C1039 C 0.11 0.77281 0.34337 0.0
C1040 C 0.97368 0.79851 0.29927 0.0
C1041 C 0.01099 0.68629 0.31984 0.0
C1042 C 0.95368 0.72596 0.29975 0.0
C1043 C 0.08222 0.70888 0.33903 0.0
H1044 H 0.08157 0.63706 0.35308 0.0
N1045 N 0.13414 0.83376 0.37518 0.0
C1046 C 0.12788 0.78415 0.36716 0.0
C1047 C 0.13256 0.75735 0.40792 0.0
C1048 C 0.11458 0.74643 0.38453 0.0
C1049 C 0.16143 0.84378 0.39695 0.0
C1050 C 0.16459 0.80484 0.41361 0.0
O1051 O 0.01628 0.01166 0.37931 0.0
O1052 O 0.1263 -0.03715 0.37797 0.0
O1053 O 0.13917 -0.0509 0.34228 0.0
O1054 O 0.14626 0.86798 0.3361 0.0
O1055 O 0.84963 -0.05504 0.34619 0.0
O1056 O 0.97183 -0.04038 0.33635 0.0
O1057 O 0.98177 0.82467 0.37776 0.0
O1058 O 0.86273 0.86374 0.38299 0.0
O1059 O 0.77204 -0.00418 0.37198 0.0
O1060 O 0.78381 -0.03554 0.4061 0.0
O1061 O 0.05201 -0.08173 0.4053 0.0
O1062 O 0.92654 -0.08339 0.4169 0.0
C1063 C 0.09874 0.01095 0.3797 0.0
C1064 C 0.89579 -0.04321 0.32879 0.0
C1065 C 0.27088 0.90854 0.33879 0.0
C1066 C 0.44882 -0.0573 0.37208 0.0
C1067 C 0.43518 0.85494 0.33828 0.0
C1068 C 0.33988 0.86059 0.32965 0.0
C1069 C 0.48688 0.89116 0.35713 0.0
C1070 C 0.29738 -0.04524 0.35838 0.0
C1071 C 0.1809 0.91139 0.33334 0.0
C1072 C 0.08459 0.69841 0.37912 0.0
C1073 C 0.09275 0.67676 0.35702 0.0
H1074 H 0.124 0.72869 0.4214 0.0
C1075 C 0.90459 0.81729 0.38204 0.0
C1076 C -0.00107 -0.07852 0.42447 0.0
C1077 C 0.64977 -0.01291 0.39653 0.0
C1078 C 0.50941 -0.0332 0.38856 0.0
C1079 C 0.55635 -0.01958 0.42833 0.0
C1080 C 0.63013 -0.00753 0.42004 0.0
C1081 C 0.49934 -0.03673 0.41307 0.0
C1082 C 0.58658 -0.02072 0.38022 0.0
C1083 C 0.73743 -0.01237 0.39179 0.0
H1084 H 0.47142 0.82649 0.33027 0.0
H1085 H 0.29974 0.88468 0.3337 0.0
H1086 H 0.54661 0.88785 0.35534 0.0
H1087 H 0.25374 -0.01714 0.36272 0.0
H1088 H 0.54465 -0.01923 0.44691 0.0
H1089 H 0.67445 0.00526 0.432 0.0
H1090 H 0.44897 -0.0538 0.42122 0.0
H1091 H 0.59719 -0.01964 0.36148 0.0
C1092 C 0.82304 0.5064 0.41422 0.0
C1093 C 0.83867 0.41915 0.39412 0.0
C1094 C 0.85005 0.48409 0.39428 0.0
C1095 C 0.80869 0.39477 0.41289 0.0
C1096 C 0.78129 0.47705 0.43133 0.0
C1097 C 0.77322 0.42359 0.43022 0.0
N1098 N 0.83919 0.55694 0.41785 0.0
C1099 C 0.83783 0.57237 0.4405 0.0
C1100 C 0.75419 0.50224 0.4511 0.0
C1101 C 0.78747 0.54906 0.45626 0.0
Gd1102 Gd 0.70727 0.67951 0.35882 0.0
Gd1103 Gd 0.87777 0.60958 0.38552 0.0
N1104 N 0.87859 0.52033 0.37338 0.0
C1105 C 0.85554 0.38453 0.37032 0.0
C1106 C 0.90458 0.50728 0.34719 0.0
C1107 C 0.90129 0.44496 0.33658 0.0
H1108 H 0.93349 0.53544 0.33646 0.0
H1109 H 0.93378 0.43732 0.3209 0.0
H1110 H 0.57247 0.69399 0.39499 0.0
H1111 H 0.87109 0.60474 0.44633 0.0
H1112 H 0.50364 0.77005 0.41763 0.0
H1113 H 0.84974 0.34226 0.37187 0.0
H1114 H 0.80396 0.35316 0.41193 0.0
H1115 H 0.82127 0.7425 0.285 0.0
H1116 H 0.71956 0.48271 0.4642 0.0
H1117 H 0.78267 0.56473 0.47311 0.0
H1118 H 0.67285 0.89681 0.3954 0.0
H1119 H 0.74018 0.40386 0.44342 0.0
H1120 H 0.79754 0.87349 0.30616 0.0
H1121 H 0.81653 0.80783 0.29456 0.0
N1122 N 0.69584 0.75573 0.32592 0.0
C1123 C 0.6583 0.80268 0.34188 0.0
C1124 C 0.79286 0.77485 0.29774 0.0
C1125 C 0.75982 0.88719 0.31906 0.0
C1126 C 0.81495 0.84711 0.29864 0.0
C1127 C 0.68955 0.86575 0.33841 0.0
H1128 H 0.70686 -0.06611 0.35532 0.0
N1129 N 0.62433 0.74341 0.37217 0.0
C1130 C 0.63063 0.79226 0.36423 0.0
C1131 C 0.57136 0.82409 0.39961 0.0
C1132 C 0.62148 0.83171 0.38082 0.0
C1133 C 0.57605 0.73356 0.39016 0.0
C1134 C 0.54213 0.77497 0.40302 0.0
O1135 O 0.74842 0.55975 0.37996 0.0
O1136 O 0.63969 0.61013 0.37728 0.0
O1137 O 0.62037 0.62598 0.34405 0.0
O1138 O 0.61194 0.70657 0.33617 0.0
O1139 O 0.91269 0.62907 0.34716 0.0
O1140 O 0.79042 0.61628 0.33592 0.0
O1141 O 0.78829 0.74971 0.37493 0.0
O1142 O 0.90217 0.708 0.38553 0.0
O1143 O 0.99486 0.58927 0.37135 0.0
O1144 O 0.97598 0.58924 0.40812 0.0
O1145 O 0.70905 0.66216 0.40494 0.0
O1146 O 0.83582 0.659 0.41702 0.0
C1147 C 0.66638 0.56164 0.37969 0.0
C1148 C 0.86715 0.61883 0.32917 0.0
C1149 C 0.49525 0.66674 0.34784 0.0
C1150 C 0.32361 0.63016 0.38193 0.0
C1151 C 0.34207 0.72772 0.35447 0.0
C1152 C 0.43477 0.71771 0.34427 0.0
C1153 C 0.2889 0.68864 0.37215 0.0
C1154 C 0.46951 0.61717 0.36419 0.0
C1155 C 0.57443 0.66359 0.33729 0.0
C1156 C 0.66376 0.87656 0.37932 0.0
C1157 C 0.68699 0.89598 0.35779 0.0
H1158 H 0.55792 0.8552 0.41186 0.0
C1159 C 0.86339 0.75528 0.38194 0.0
C1160 C 0.76233 0.66004 0.42439 0.0
C1161 C 0.11468 0.59536 0.39709 0.0
C1162 C 0.26058 0.60066 0.39431 0.0
C1163 C 0.19611 0.60907 0.43137 0.0
C1164 C 0.12648 0.61221 0.41945 0.0
C1165 C 0.26414 0.60295 0.41886 0.0
C1166 C 0.18476 0.59298 0.3832 0.0
C1167 C 0.02787 0.58267 0.39157 0.0
H1168 H 0.31504 0.76431 0.35004 0.0
H1169 H 0.46226 0.75009 0.33678 0.0
H1170 H 0.23433 0.70115 0.37818 0.0
H1171 H 0.50844 0.58501 0.36346 0.0
H1172 H 0.19683 0.61756 0.44984 0.0
H1173 H 0.08377 0.6374 0.42488 0.0
H1174 H 0.31798 0.61005 0.42824 0.0
H1175 H 0.18165 0.5863 0.36441 0.0
C1176 C 0.94712 0.52607 0.21237 0.0
C1177 C 0.94588 0.43426 0.22727 0.0
C1178 C 0.92738 0.49724 0.23126 0.0
C1179 C 0.98636 0.41953 0.2076 0.0
C1180 C 0.98983 0.50495 0.19346 0.0
C1181 C 0.01539 0.45498 0.19261 0.0
N1182 N 0.91344 0.57257 0.21031 0.0
C1183 C 0.89422 0.58797 0.18826 0.0
C1184 C 0.9922 0.53116 0.17295 0.0
C1185 C 0.93889 0.56904 0.16984 0.0
Gd1186 Gd 0.06061 0.68043 0.27208 0.0
Gd1187 Gd 0.88999 0.61563 0.24569 0.0
N1188 N 0.89163 0.52551 0.25366 0.0
C1189 C 0.92554 0.39166 0.24794 0.0
C1190 C 0.86065 0.50412 0.27822 0.0
C1191 C 0.86522 0.43891 0.28437 0.0
H1192 H 0.83345 0.52949 0.29097 0.0
H1193 H 0.82961 0.42549 0.29846 0.0
H1194 H 0.19946 0.69711 0.23564 0.0
H1195 H 0.85499 0.6202 0.18518 0.0
H1196 H 0.24329 0.77336 0.21099 0.0
H1197 H 0.92914 0.35068 0.24312 0.0
H1198 H 0.0027 0.38114 0.20438 0.0
H1199 H 0.95424 0.73648 0.3478 0.0
H1200 H 0.02046 0.51517 0.1579 0.0
H1201 H 0.93448 0.58379 0.15309 0.0
H1202 H 0.06555 0.89522 0.23753 0.0
H1203 H 0.04787 0.44199 0.1777 0.0
H1204 H 0.96085 0.86912 0.32724 0.0
H1205 H 0.95118 0.80207 0.33854 0.0
N1206 N 0.07374 0.75563 0.30595 0.0
C1207 C 0.10528 0.80374 0.28999 0.0
C1208 C 0.97786 0.77 0.33489 0.0
C1209 C 0.99644 0.8836 0.31382 0.0
C1210 C 0.94805 0.84128 0.33458 0.0
C1211 C 0.06824 0.86549 0.29393 0.0
H1212 H 0.05277 -0.06412 0.27802 0.0
N1213 N 0.14661 0.74438 0.26031 0.0
C1214 C 0.13167 0.79341 0.26754 0.0
C1215 C 0.1734 0.82478 0.23043 0.0
C1216 C 0.12685 0.83096 0.25017 0.0
C1217 C 0.19413 0.7363 0.24175 0.0
C1218 C 0.21439 0.77863 0.22745 0.0
O1219 O 0.02205 0.56608 0.25015 0.0
O1220 O 0.13198 0.61433 0.25295 0.0
O1221 O 0.14408 0.62641 0.28876 0.0
O1222 O 0.15321 0.70772 0.29527 0.0
O1223 O 0.85442 0.63121 0.28403 0.0
O1224 O 0.97635 0.61605 0.29428 0.0
O1225 O 0.97905 0.75192 0.25706 0.0
O1226 O 0.86332 0.71175 0.2475 0.0
O1227 O 0.77805 0.58027 0.25806 0.0
O1228 O 0.79017 0.60729 0.2232 0.0
O1229 O 0.05337 0.66132 0.22526 0.0
O1230 O 0.92593 0.66722 0.21442 0.0
C1231 C 0.10454 0.56624 0.2505 0.0
C1232 C 0.90001 0.61885 0.30155 0.0
C1233 C 0.27745 0.66617 0.29176 0.0
C1234 C 0.45645 0.6296 0.25946 0.0
C1235 C 0.4435 0.71771 0.29325 0.0
C1236 C 0.34743 0.7133 0.30128 0.0
C1237 C 0.49527 0.68059 0.27474 0.0
C1238 C 0.30361 0.61963 0.27224 0.0
C1239 C 0.18734 0.66381 0.29751 0.0
C1240 C 0.08417 0.876 0.25309 0.0
C1241 C 0.07205 0.89727 0.2752 0.0
H1242 H 0.17426 0.85471 0.21727 0.0
C1243 C 0.90345 0.75815 0.2505 0.0
C1244 C -0.00228 0.66352 0.2061 0.0
C1245 C 0.65642 0.58697 0.2336 0.0
C1246 C 0.5165 0.6065 0.24234 0.0
C1247 C 0.56221 0.595 0.20213 0.0
C1248 C 0.6358 0.58226 0.21012 0.0
C1249 C 0.50566 0.61089 0.21777 0.0
C1250 C 0.5943 0.59421 0.25024 0.0
C1251 C 0.74391 0.58552 0.23798 0.0
H1252 H 0.47952 0.74692 0.30107 0.0
H1253 H 0.30679 0.6896 0.297 0.0
H1254 H 0.55519 0.68352 0.27654 0.0
H1255 H 0.25897 0.59265 0.26743 0.0
H1256 H 0.5505 0.59597 0.18351 0.0
H1257 H 0.67903 0.56941 0.19794 0.0
H1258 H 0.45547 0.62795 0.20967 0.0
H1259 H 0.60637 0.59279 0.26891 0.0
C1260 C 0.82526 0.06592 0.21591 0.0
C1261 C 0.83803 0.15299 0.23654 0.0
C1262 C 0.85034 0.08819 0.23625 0.0
C1263 C 0.80959 0.17721 0.21753 0.0
C1264 C 0.78448 0.09514 0.19862 0.0
C1265 C 0.77548 0.14853 0.19987 0.0
N1266 N 0.84127 0.0154 0.2122 0.0
C1267 C 0.84338 -0.00017 0.18952 0.0
C1268 C 0.75896 0.06978 0.17868 0.0
C1269 C 0.79361 0.02324 0.17356 0.0
Gd1270 Gd 0.70444 0.8947 0.27152 0.0
Gd1271 Gd 0.87621 -0.0365 0.24453 0.0
N1272 N 0.87805 0.05199 0.25726 0.0
C1273 C 0.85333 0.1876 0.26054 0.0
C1274 C 0.90256 0.06482 0.28361 0.0
C1275 C 0.89774 0.1268 0.2944 0.0
H1276 H 0.93309 0.03724 0.29425 0.0
H1277 H 0.92692 0.13401 0.3107 0.0
H1278 H 0.56434 0.87821 0.23655 0.0
H1279 H 0.8768 -0.03361 0.18423 0.0
H1280 H 0.49651 0.80042 0.21473 0.0
H1281 H 0.84686 0.22985 0.25914 0.0
H1282 H 0.80623 0.21857 0.21858 0.0
H1283 H 0.81421 0.83588 0.34691 0.0
H1284 H 0.72387 0.08893 0.16554 0.0
H1285 H 0.78786 0.00738 0.15684 0.0
H1286 H 0.67923 0.6775 0.23512 0.0
H1287 H 0.74354 0.16819 0.18644 0.0
H1288 H 0.80358 0.70424 0.3252 0.0
H1289 H 0.81696 0.77077 0.33682 0.0
N1290 N 0.69421 0.81906 0.30477 0.0
C1291 C 0.66089 0.77126 0.28861 0.0
C1292 C 0.79069 0.80308 0.33352 0.0
C1293 C 0.76718 0.68998 0.31191 0.0
C1294 C 0.81825 0.73151 0.33268 0.0
C1295 C 0.69645 0.70937 0.29211 0.0
H1296 H 0.71534 0.64148 0.27527 0.0
N1297 N 0.62216 0.82976 0.25864 0.0
C1298 C 0.63188 0.78103 0.2664 0.0
C1299 C 0.57245 0.74817 0.23129 0.0
C1300 C 0.62438 0.74154 0.24979 0.0
C1301 C 0.5712 0.83862 0.24116 0.0
C1302 C 0.53857 0.7964 0.22852 0.0
O1303 O 0.7459 0.01325 0.24912 0.0
O1304 O 0.63699 -0.03661 0.25277 0.0
O1305 O 0.61747 -0.05184 0.28621 0.0
O1306 O 0.6092 0.86729 0.29391 0.0
O1307 O 0.91069 -0.05432 0.28325 0.0
O1308 O 0.78776 -0.04134 0.29394 0.0
O1309 O 0.78517 0.82456 0.2559 0.0
O1310 O 0.90059 0.86655 0.24769 0.0
O1311 O 0.99461 -0.00831 0.25501 0.0
O1312 O 0.97003 -0.02508 0.2193 0.0
O1313 O 0.70581 0.91256 0.22539 0.0
O1314 O 0.83245 0.91272 0.21335 0.0
C1315 C 0.66378 0.01169 0.24999 0.0
C1316 C 0.86419 -0.04403 0.30103 0.0
C1317 C 0.49272 0.90698 0.28238 0.0
C1318 C 0.31716 -0.05712 0.24959 0.0
C1319 C 0.33786 0.84766 0.27859 0.0
C1320 C 0.43198 0.85702 0.28729 0.0
C1321 C 0.28272 0.88645 0.2615 0.0
C1322 C 0.46638 -0.04458 0.26538 0.0
C1323 C 0.5718 0.91035 0.29287 0.0
C1324 C 0.66941 0.69772 0.25118 0.0
C1325 C 0.69502 0.67912 0.27269 0.0
H1326 H 0.56022 0.71687 0.21905 0.0
C1327 C 0.86122 0.81939 0.2502 0.0
C1328 C 0.75915 -0.08601 0.20598 0.0
C1329 C 0.10909 -0.01944 0.22801 0.0
C1330 C 0.25349 -0.03236 0.23454 0.0
C1331 C 0.19814 -0.02794 0.19526 0.0
C1332 C 0.12541 -0.01835 0.20421 0.0
C1333 C 0.26177 -0.03481 0.20999 0.0
C1334 C 0.17502 -0.02526 0.2436 0.0
C1335 C 0.0231 -0.00981 0.23401 0.0
H1336 H 0.309 0.81326 0.28512 0.0
H1337 H 0.45948 0.82431 0.29471 0.0
H1338 H 0.22316 0.88545 0.26462 0.0
H1339 H 0.50763 -0.01424 0.26398 0.0
H1340 H 0.20267 -0.03026 0.17645 0.0
H1341 H 0.08387 -0.00212 0.19245 0.0
H1342 H 0.31603 -0.04507 0.20171 0.0
H1343 H 0.1663 -0.02404 0.26243 0.0
C1344 C 0.39433 0.55079 0.53846 0.0
C1345 C 0.35986 0.57698 0.49958 0.0
C1346 C 0.36204 0.53946 0.51698 0.0
C1347 C 0.40868 0.61966 0.50017 0.0
C1348 C 0.4288 0.61356 0.54154 0.0
C1349 C 0.43062 0.64171 0.52141 0.0
N1350 N 0.43082 0.50387 0.55418 0.0
C1351 C 0.52875 0.522 0.58229 0.0
C1352 C 0.50012 0.63433 0.56089 0.0
C1353 C 0.55364 0.59394 0.58139 0.0
Gd1354 Gd 0.60593 0.35797 0.49469 0.0
Gd1355 Gd 0.4403 0.42797 0.52083 0.0
N1356 N 0.34601 0.49002 0.51055 0.0
C1357 C 0.30692 0.57081 0.48149 0.0
C1358 C 0.29327 0.48148 0.49307 0.0
C1359 C 0.26791 0.524 0.4793 0.0
H1360 H 0.2871 0.44229 0.48693 0.0
H1361 H 0.23642 0.52005 0.46336 0.0
H1362 H 0.66318 0.28076 0.5424 0.0
H1363 H 0.55403 0.48994 0.59561 0.0
H1364 H 0.67081 0.18103 0.55493 0.0
H1365 H 0.3017 0.6006 0.46842 0.0
H1366 H 0.42314 0.63743 0.48381 0.0
H1367 H 0.53987 0.33451 0.43186 0.0
H1368 H 0.5373 0.62063 0.57396 0.0
H1369 H 0.55398 0.55472 0.58543 0.0
H1370 H 0.55185 0.10545 0.4605 0.0
H1371 H 0.45611 0.67879 0.52245 0.0
H1372 H 0.36868 0.23434 0.43589 0.0
H1373 H 0.39376 0.32392 0.42616 0.0
N1374 N 0.53566 0.30764 0.46562 0.0
C1375 C 0.53765 0.2558 0.46665 0.0
C1376 C 0.50105 0.32451 0.44578 0.0
C1377 C 0.41949 0.25279 0.44294 0.0
C1378 C 0.43062 0.30411 0.43843 0.0
C1379 C 0.48007 0.22635 0.45412 0.0
H1380 H 0.45313 0.15522 0.43792 0.0
N1381 N 0.61322 0.26794 0.50448 0.0
C1382 C 0.58534 0.23339 0.48273 0.0
C1383 C 0.59834 0.13153 0.50425 0.0
C1384 C 0.57903 0.16803 0.48125 0.0
C1385 C 0.63897 0.25271 0.53041 0.0
C1386 C 0.63944 0.18944 0.53915 0.0
O1387 O 0.51884 0.49845 0.50461 0.0
O1388 O 0.63347 0.45543 0.49663 0.0
O1389 O 0.71949 0.32533 0.50629 0.0
O1390 O 0.69973 0.34207 0.47023 0.0
O1391 O 0.46253 0.41682 0.47402 0.0
O1392 O 0.59043 0.40941 0.46202 0.0
O1393 O 0.47791 0.30858 0.50189 0.0
O1394 O 0.37173 0.3607 0.50049 0.0
O1395 O 0.35514 0.37295 0.53557 0.0
O1396 O 0.34539 0.45339 0.54412 0.0
O1397 O 0.64382 0.37615 0.53313 0.0
O1398 O 0.5222 0.36345 0.54398 0.0
C1399 C 0.59527 0.50319 0.49888 0.0
C1400 C 0.51915 0.42102 0.45503 0.0
C1401 C 0.83734 0.33445 0.48147 0.0
C1402 C 0.9781 0.3553 0.49091 0.0
C1403 C 0.93016 0.34978 0.45035 0.0
C1404 C 0.85687 0.33604 0.45792 0.0
C1405 C 0.98749 0.36259 0.46637 0.0
C1406 C 0.90044 0.34024 0.49837 0.0
C1407 C 0.75035 0.32594 0.48567 0.0
C1408 C 0.54112 0.14567 0.46353 0.0
C1409 C 0.48635 0.17379 0.45129 0.0
H1410 H 0.59396 0.08928 0.50178 0.0
C1411 C 0.39657 0.31138 0.49979 0.0
C1412 C 0.59899 0.36552 0.55111 0.0
C1413 C 0.22547 0.41002 0.53816 0.0
C1414 C 0.04065 0.37668 0.50845 0.0
C1415 C 0.06605 0.46537 0.54216 0.0
C1416 C 0.16375 0.45668 0.54791 0.0
C1417 C 0.00707 0.42931 0.52448 0.0
C1418 C 0.19539 0.3649 0.51944 0.0
C1419 C 0.31041 0.40923 0.54449 0.0
H1420 H 0.9416 0.35233 0.43174 0.0
H1421 H 0.81429 0.32347 0.44527 0.0
H1422 H 0.03723 0.37962 0.45833 0.0
H1423 H 0.88894 0.33553 0.51695 0.0
H1424 H 0.03806 0.49861 0.55029 0.0
H1425 H 0.19185 0.48773 0.55733 0.0
H1426 H 0.94758 0.43535 0.52654 0.0
H1427 H 0.23959 0.3389 0.5135 0.0
C1428 C 0.84142 0.51824 0.53749 0.0
C1429 C 0.87648 0.48855 0.49846 0.0
C1430 C 0.87036 0.52816 0.51524 0.0
C1431 C 0.83105 0.44479 0.49988 0.0
C1432 C 0.8068 0.45582 0.54095 0.0
C1433 C 0.80665 0.42576 0.52131 0.0
N1434 N 0.80703 0.56601 0.55372 0.0
C1435 C 0.71103 0.54879 0.5824 0.0
C1436 C 0.73662 0.43594 0.56066 0.0
C1437 C 0.68541 0.477 0.58155 0.0
Gd1438 Gd 0.62331 0.70878 0.49331 0.0
Gd1439 Gd 0.79595 0.64117 0.52087 0.0
N1440 N 0.87905 0.57709 0.50749 0.0
C1441 C 0.92382 0.49587 0.47907 0.0
C1442 C 0.92565 0.58639 0.48905 0.0
C1443 C 0.95359 0.54472 0.47521 0.0
H1444 H 0.9283 0.62575 0.48383 0.0
H1445 H 0.97987 0.54996 0.45833 0.0
H1446 H 0.56392 0.78386 0.54287 0.0
H1447 H 0.68605 0.58141 0.59566 0.0
H1448 H 0.56216 0.88239 0.55759 0.0
H1449 H 0.93142 0.46553 0.46601 0.0
H1450 H 0.81694 0.42545 0.48375 0.0
H1451 H 0.62849 0.70885 0.43322 0.0
H1452 H 0.70062 0.45011 0.57395 0.0
H1453 H 0.68603 0.51627 0.58567 0.0
H1454 H 0.65737 -0.03765 0.46299 0.0
H1455 H 0.78141 0.389 0.523 0.0
H1456 H 0.76536 0.8371 0.4132 0.0
H1457 H 0.71512 0.75169 0.40583 0.0
N1458 N 0.65958 0.75956 0.46096 0.0
C1459 C 0.66843 0.81095 0.46402 0.0
C1460 C 0.65998 0.743 0.43845 0.0
C1461 C 0.73461 0.81645 0.42682 0.0
C1462 C 0.70772 0.76765 0.42242 0.0
C1463 C 0.70533 0.84119 0.44639 0.0
H1464 H 0.72658 -0.0852 0.43197 0.0
N1465 N 0.61434 0.79776 0.50526 0.0
C1466 C 0.63854 0.83333 0.48372 0.0
C1467 C 0.62946 -0.06588 0.50704 0.0
C1468 C 0.64566 0.89851 0.48324 0.0
C1469 C 0.59051 0.81182 0.53153 0.0
C1470 C 0.59157 0.8748 0.54134 0.0
O1471 O 0.71447 0.57042 0.50504 0.0
O1472 O 0.59906 0.61167 0.49597 0.0
O1473 O 0.50615 0.74166 0.50161 0.0
O1474 O 0.52981 0.71344 0.46733 0.0
O1475 O 0.79716 0.65712 0.47469 0.0
O1476 O 0.67105 0.65762 0.46263 0.0
O1477 O 0.75091 0.76062 0.49818 0.0
O1478 O 0.86084 0.71153 0.50297 0.0
O1479 O 0.88373 0.6942 0.53576 0.0
O1480 O 0.88849 0.61393 0.54432 0.0
O1481 O 0.59016 0.69283 0.53246 0.0
O1482 O 0.71289 0.70548 0.54336 0.0
C1483 C 0.63859 0.5646 0.49873 0.0
C1484 C 0.74426 0.65877 0.45522 0.0
C1485 C 0.39157 0.7262 0.47564 0.0
C1486 C 0.24982 0.71415 0.48569 0.0
C1487 C 0.29383 0.71814 0.44482 0.0
C1488 C 0.37016 0.72493 0.45193 0.0
C1489 C 0.23517 0.7124 0.46126 0.0
C1490 C 0.32989 0.72236 0.49267 0.0
C1491 C 0.47794 0.73455 0.48076 0.0
C1492 C 0.66687 -0.07782 0.46351 0.0
C1493 C 0.70359 0.89462 0.44635 0.0
H1494 H 0.63158 -0.02353 0.50504 0.0
C1495 C 0.83271 0.75938 0.49983 0.0
C1496 C 0.63642 0.70327 0.55043 0.0
C1497 C 0.01441 0.65198 0.53628 0.0
C1498 C 0.19034 0.69207 0.50334 0.0
C1499 C 0.17959 0.59962 0.53472 0.0
C1500 C 0.08445 0.60369 0.54361 0.0
C1501 C 0.23031 0.63951 0.51709 0.0
C1502 C 0.03863 0.70028 0.51775 0.0
C1503 C 0.92646 0.65679 0.54436 0.0
H1504 H 0.27999 0.71799 0.42621 0.0
H1505 H 0.41038 0.73647 0.43869 0.0
H1506 H 0.1796 0.7039 0.45378 0.0
H1507 H 0.34361 0.72562 0.5112 0.0
H1508 H 0.21325 0.56699 0.54083 0.0
H1509 H 0.04376 0.62808 0.54053 0.0
H1510 H 0.28934 0.64196 0.52092 0.0
H1511 H 0.9935 0.72758 0.51382 0.0
C1512 C 0.39709 0.52033 0.59142 0.0
C1513 C 0.37527 0.49338 0.63118 0.0
C1514 C 0.37189 0.53098 0.61374 0.0
C1515 C 0.41921 0.44881 0.62882 0.0
C1516 C 0.43028 0.45741 0.58767 0.0
C1517 C 0.42965 0.42659 0.60688 0.0
N1518 N 0.43181 0.56777 0.57536 0.0
C1519 C 0.52726 0.54941 0.54651 0.0
C1520 C 0.50021 0.4372 0.56801 0.0
C1521 C 0.55191 0.47749 0.5472 0.0
Gd1522 Gd 0.61562 0.71058 0.63516 0.0
Gd1523 Gd 0.4433 0.64425 0.60866 0.0
N1524 N 0.35655 0.57993 0.62064 0.0
C1525 C 0.32583 0.49888 0.6502 0.0
C1526 C 0.3065 0.58743 0.63864 0.0
C1527 C 0.28373 0.54438 0.65243 0.0
H1528 H 0.29998 0.62654 0.64444 0.0
H1529 H 0.24945 0.54683 0.66784 0.0
H1530 H 0.66775 0.79256 0.5885 0.0
H1531 H 0.55301 0.58163 0.53331 0.0
H1532 H 0.66996 0.89467 0.57808 0.0
H1533 H 0.32057 0.46809 0.66287 0.0
H1534 H 0.43542 0.42928 0.64453 0.0
H1535 H 0.63917 0.70872 0.69624 0.0
H1536 H 0.53645 0.45077 0.55469 0.0
H1537 H 0.55178 0.51669 0.54317 0.0
H1538 H 0.5131 -0.04903 0.67306 0.0
H1539 H 0.44834 0.38764 0.60452 0.0
H1540 H 0.47461 0.81805 0.72032 0.0
H1541 H 0.55906 0.74773 0.72679 0.0
N1542 N 0.58932 0.75687 0.66996 0.0
C1543 C 0.56061 0.80476 0.66737 0.0
C1544 C 0.60384 0.74196 0.69237 0.0
C1545 C 0.50703 0.80189 0.70598 0.0
C1546 C 0.55771 0.76263 0.71007 0.0
C1547 C 0.51602 0.82786 0.68549 0.0
H1548 H 0.45521 0.89281 0.69897 0.0
N1549 N 0.61464 0.80081 0.62611 0.0
C1550 C 0.58349 0.83186 0.64837 0.0
C1551 C 0.58781 -0.06357 0.62923 0.0
C1552 C 0.56873 0.896 0.65136 0.0
C1553 C 0.642 0.81935 0.60086 0.0
C1554 C 0.63855 0.88369 0.59339 0.0
O1555 O 0.52413 0.57328 0.624 0.0
O1556 O 0.6405 0.6137 0.63271 0.0
O1557 O 0.73113 0.7437 0.62421 0.0
O1558 O 0.71363 0.71613 0.6589 0.0
O1559 O 0.44764 0.66626 0.65502 0.0
O1560 O 0.57435 0.66078 0.66645 0.0
O1561 O 0.48428 0.76093 0.63062 0.0
O1562 O 0.37452 0.71195 0.6278 0.0
O1563 O 0.35877 0.69806 0.59282 0.0
O1564 O 0.3495 0.61684 0.5857 0.0
O1565 O 0.65049 0.69463 0.59623 0.0
O1566 O 0.52745 0.70699 0.58558 0.0
C1567 C 0.60015 0.56705 0.62992 0.0
C1568 C 0.50215 0.66512 0.67434 0.0
C1569 C 0.84919 0.73077 0.6498 0.0
C1570 C 0.99054 0.71394 0.64184 0.0
C1571 C 0.94061 0.71845 0.68192 0.0
C1572 C 0.86755 0.73062 0.67358 0.0
C1573 C 0.00041 0.70813 0.66638 0.0
C1574 C 0.91272 0.725 0.63355 0.0
C1575 C 0.76262 0.73734 0.64469 0.0
C1576 C 0.52837 0.91255 0.67074 0.0
C1577 C 0.49325 0.87856 0.68542 0.0
H1578 H 0.58181 -0.02187 0.63261 0.0
C1579 C 0.40168 0.76026 0.63023 0.0
C1580 C 0.60407 0.70448 0.57838 0.0
C1581 C 0.23162 0.65835 0.59353 0.0
C1582 C 0.052 0.69172 0.62513 0.0
C1583 C 0.07499 0.59997 0.59343 0.0
C1584 C 0.17071 0.60954 0.5861 0.0
C1585 C 0.01799 0.637 0.61098 0.0
C1586 C 0.20339 0.70499 0.61158 0.0
C1587 C 0.31363 0.66049 0.58525 0.0
H1588 H 0.95005 0.71659 0.7007 0.0
H1589 H 0.82625 0.74599 0.68573 0.0
H1590 H 0.05264 0.69404 0.67444 0.0
H1591 H 0.90217 0.72787 0.61483 0.0
H1592 H 0.04609 0.56669 0.58569 0.0
H1593 H 0.19849 0.57763 0.57739 0.0
H1594 H 0.95818 0.63345 0.6082 0.0
H1595 H 0.24609 0.73368 0.61529 0.0
C1596 C 0.84338 0.54999 0.59075 0.0
C1597 C 0.87575 0.57798 0.63008 0.0
C1598 C 0.87162 0.53963 0.61282 0.0
C1599 C 0.8317 0.62231 0.62874 0.0
C1600 C 0.8103 0.61281 0.5875 0.0
C1601 C 0.81225 0.6431 0.6071 0.0
N1602 N 0.80696 0.50251 0.57473 0.0
C1603 C 0.70951 0.52077 0.54657 0.0
C1604 C 0.73934 0.63337 0.56815 0.0
C1605 C 0.68559 0.59282 0.54757 0.0
Gd1606 Gd 0.62221 0.36125 0.63623 0.0
Gd1607 Gd 0.79611 0.42765 0.60811 0.0
N1608 N 0.88482 0.49078 0.61973 0.0
C1609 C 0.93029 0.57202 0.64789 0.0
C1610 C 0.93885 0.48252 0.63659 0.0
C1611 C 0.97025 0.5254 0.64904 0.0
H1612 H 0.94737 0.44328 0.64165 0.0
H1613 H 0.01709 0.52295 0.66131 0.0
H1614 H 0.56656 0.28324 0.58756 0.0
H1615 H 0.68358 0.48862 0.53318 0.0
H1616 H 0.5621 0.18317 0.57458 0.0
H1617 H 0.94249 0.60346 0.66001 0.0
H1618 H 0.81834 0.64132 0.64496 0.0
H1619 H 0.62243 0.36484 0.69663 0.0
H1620 H 0.70211 0.61951 0.55507 0.0
H1621 H 0.68484 0.55352 0.54349 0.0
H1622 H 0.68769 0.10983 0.66617 0.0
H1623 H 0.79002 0.68093 0.6053 0.0
H1624 H 0.75807 0.23917 0.71953 0.0
H1625 H 0.70617 0.32304 0.72535 0.0
N1626 N 0.65623 0.31253 0.66961 0.0
C1627 C 0.67008 0.26154 0.66683 0.0
C1628 C 0.65291 0.32985 0.69208 0.0
C1629 C 0.7281 0.25825 0.70528 0.0
C1630 C 0.69896 0.30635 0.70889 0.0
C1631 C 0.70792 0.23302 0.68489 0.0
H1632 H 0.75464 0.16199 0.69692 0.0
N1633 N 0.61703 0.27152 0.62531 0.0
C1634 C 0.64232 0.23753 0.64723 0.0
C1635 C 0.6329 0.13527 0.62552 0.0
C1636 C 0.65061 0.17254 0.64859 0.0
C1637 C 0.5925 0.25573 0.5993 0.0
C1638 C 0.59323 0.19205 0.59039 0.0
O1639 O 0.71727 0.49875 0.62435 0.0
O1640 O 0.60031 0.45849 0.63279 0.0
O1641 O 0.503 0.33054 0.62822 0.0
O1642 O 0.53027 0.35607 0.66263 0.0
O1643 O 0.7968 0.40778 0.65442 0.0
O1644 O 0.67121 0.41305 0.66649 0.0
O1645 O 0.74928 0.30952 0.62938 0.0
O1646 O 0.85922 0.35882 0.62655 0.0
O1647 O 0.88539 0.37402 0.5946 0.0
O1648 O 0.88972 0.45336 0.5845 0.0
O1649 O 0.58705 0.37631 0.59711 0.0
O1650 O 0.71015 0.36437 0.58564 0.0
C1651 C 0.64116 0.5051 0.63007 0.0
C1652 C 0.74409 0.40943 0.67404 0.0
C1653 C 0.39123 0.34381 0.65584 0.0
C1654 C 0.24807 0.35372 0.64773 0.0
C1655 C 0.29703 0.35089 0.68787 0.0
C1656 C 0.37241 0.344 0.67974 0.0
C1657 C 0.23613 0.35629 0.67212 0.0
C1658 C 0.32739 0.34719 0.6397 0.0
C1659 C 0.47701 0.33578 0.64945 0.0
C1660 C 0.68446 0.1505 0.66704 0.0
C1661 C 0.72012 0.18021 0.68381 0.0
H1662 H 0.63731 0.09308 0.62799 0.0
C1663 C 0.83133 0.31086 0.62796 0.0
C1664 C 0.63293 0.36667 0.57895 0.0
C1665 C 0.01447 0.41814 0.5975 0.0
C1666 C 0.1875 0.37632 0.6311 0.0
C1667 C 0.17839 0.47104 0.6012 0.0
C1668 C 0.08422 0.46734 0.59169 0.0
C1669 C 0.22784 0.43026 0.61867 0.0
C1670 C 0.03763 0.36885 0.61579 0.0
C1671 C 0.92937 0.41142 0.58679 0.0
H1672 H 0.28563 0.35088 0.70661 0.0
H1673 H 0.41372 0.33098 0.69222 0.0
H1674 H 0.18103 0.36547 0.67968 0.0
H1675 H 0.33869 0.3448 0.62101 0.0
H1676 H 0.21285 0.50316 0.59508 0.0
H1677 H 0.04378 0.44233 0.59396 0.0
H1678 H 0.28746 0.43041 0.61701 0.0
H1679 H 0.99105 0.34405 0.62012 0.0
C1680 C 0.44317 0.5486 0.41788 0.0
C1681 C 0.44266 0.64055 0.40334 0.0
C1682 C 0.4249 0.57754 0.39904 0.0
C1683 C 0.48501 0.65474 0.42279 0.0
C1684 C 0.48582 0.56941 0.43686 0.0
C1685 C 0.51484 0.6186 0.43737 0.0
N1686 N 0.40556 0.50349 0.42005 0.0
C1687 C 0.3832 0.48948 0.44206 0.0
C1688 C 0.48269 0.54514 0.45776 0.0
C1689 C 0.42598 0.50941 0.46068 0.0
Gd1690 Gd 0.55993 0.39434 0.3593 0.0
Gd1691 Gd 0.38782 0.45952 0.3845 0.0
N1692 N 0.38972 0.54948 0.37651 0.0
C1693 C 0.42158 0.6834 0.38284 0.0
C1694 C 0.35891 0.57104 0.35197 0.0
C1695 C 0.36251 0.63632 0.34612 0.0
H1696 H 0.33246 0.54558 0.33907 0.0
H1697 H 0.32714 0.64951 0.33201 0.0
H1698 H 0.67393 0.37825 0.40201 0.0
H1699 H 0.34424 0.45712 0.44509 0.0
H1700 H 0.68146 0.30781 0.43121 0.0
H1701 H 0.42471 0.72432 0.38777 0.0
H1702 H 0.50201 0.69307 0.42608 0.0
H1703 H 0.45418 0.33452 0.28486 0.0
H1704 H 0.51015 0.56137 0.47296 0.0
H1705 H 0.42026 0.49593 0.4775 0.0
H1706 H 0.54367 0.17779 0.39193 0.0
H1707 H 0.54851 0.631 0.45215 0.0
H1708 H 0.46767 0.20246 0.30547 0.0
H1709 H 0.45343 0.26907 0.29429 0.0
N1710 N 0.57523 0.31764 0.32669 0.0
C1711 C 0.60927 0.27017 0.34283 0.0
C1712 C 0.47887 0.30154 0.29795 0.0
C1713 C 0.50461 0.18791 0.31848 0.0
C1714 C 0.4525 0.22972 0.2981 0.0
C1715 C 0.57652 0.20751 0.33818 0.0
H1716 H 0.57061 0.13555 0.35212 0.0
N1717 N 0.63561 0.33013 0.37496 0.0
C1718 C 0.62592 0.28083 0.36683 0.0
C1719 C 0.62693 0.25406 0.40764 0.0
C1720 C 0.6081 0.24384 0.38412 0.0
C1721 C 0.66318 0.33926 0.39681 0.0
C1722 C 0.66348 0.30018 0.41341 0.0
O1723 O 0.51983 0.50928 0.37989 0.0
O1724 O 0.63046 0.46112 0.37787 0.0
O1725 O 0.6419 0.44653 0.34092 0.0
O1726 O 0.65567 0.36481 0.33808 0.0
O1727 O 0.3538 0.44334 0.34624 0.0
O1728 O 0.47613 0.45849 0.33675 0.0
O1729 O 0.48218 0.32336 0.37677 0.0
O1730 O 0.36366 0.36286 0.38285 0.0
O1731 O 0.2755 0.4959 0.37235 0.0
O1732 O 0.28532 0.46163 0.4059 0.0
O1733 O 0.55657 0.41633 0.40523 0.0
O1734 O 0.43074 0.41502 0.41678 0.0
C1735 C 0.60245 0.5091 0.37978 0.0
C1736 C 0.40041 0.45527 0.32898 0.0
C1737 C 0.77118 0.40998 0.33901 0.0
C1738 C 0.9502 0.44051 0.37156 0.0
C1739 C 0.92895 0.35264 0.3376 0.0
C1740 C 0.83326 0.36253 0.33002 0.0
C1741 C 0.98524 0.38775 0.35618 0.0
C1742 C 0.79894 0.4547 0.35819 0.0
C1743 C 0.68696 0.40864 0.33363 0.0
C1744 C 0.57604 0.19654 0.37843 0.0
C1745 C 0.58355 0.17495 0.35623 0.0
H1746 H 0.61666 0.22572 0.42115 0.0
C1747 C 0.40505 0.31649 0.38142 0.0
C1748 C 0.50317 0.41998 0.42434 0.0
C1749 C 0.15176 0.48673 0.39618 0.0
C1750 C 0.0117 0.46472 0.38796 0.0
C1751 C 0.05798 0.47938 0.42777 0.0
C1752 C 0.13154 0.49212 0.41966 0.0
C1753 C 0.00169 0.46139 0.41248 0.0
C1754 C 0.08871 0.47821 0.37971 0.0
C1755 C 0.23998 0.4867 0.3919 0.0
H1756 H 0.95748 0.3185 0.3309 0.0
H1757 H 0.80648 0.33209 0.31969 0.0
H1758 H 0.04518 0.38251 0.35419 0.0
H1759 H 0.75606 0.48314 0.36251 0.0
H1760 H 0.04619 0.47967 0.44631 0.0
H1761 H 0.17537 0.50482 0.43184 0.0
H1762 H 0.95172 0.44386 0.42062 0.0
H1763 H 0.09944 0.47924 0.36098 0.0
C1764 C 0.31855 0.00686 0.41411 0.0
C1765 C 0.33766 -0.08042 0.39423 0.0
C1766 C 0.34718 -0.01519 0.39443 0.0
C1767 C 0.30763 0.89503 0.41286 0.0
C1768 C 0.2767 -0.02283 0.43103 0.0
C1769 C 0.27104 -0.07639 0.43008 0.0
N1770 N 0.33299 0.05758 0.41766 0.0
C1771 C 0.32995 0.07297 0.44026 0.0
C1772 C 0.24696 0.00237 0.45047 0.0
C1773 C 0.27853 0.04971 0.45567 0.0
Gd1774 Gd 0.20504 0.18025 0.35869 0.0
Gd1775 Gd 0.37476 0.11005 0.38565 0.0
N1776 N 0.37526 0.02129 0.37353 0.0
C1777 C 0.35627 0.88517 0.37035 0.0
C1778 C 0.40186 0.00835 0.34739 0.0
C1779 C 0.40051 -0.05397 0.33694 0.0
H1780 H 0.43109 0.0364 0.3367 0.0
H1781 H 0.43342 -0.06107 0.3212 0.0
H1782 H 0.06733 0.19555 0.39399 0.0
H1783 H 0.36345 0.10492 0.44632 0.0
H1784 H -0.00177 0.27245 0.41616 0.0
H1785 H 0.35156 0.84282 0.37176 0.0
H1786 H 0.3035 0.8535 0.41163 0.0
H1787 H 0.31831 0.24022 0.28465 0.0
H1788 H 0.21193 -0.01742 0.46337 0.0
H1789 H 0.27249 0.0657 0.47239 0.0
H1790 H 0.17496 0.39685 0.39529 0.0
H1791 H 0.23776 0.90375 0.44309 0.0
H1792 H 0.30273 0.3718 0.30601 0.0
H1793 H 0.31866 0.30563 0.29436 0.0
N1794 N 0.19551 0.25631 0.32585 0.0
C1795 C 0.16044 0.30364 0.34183 0.0
C1796 C 0.29273 0.27309 0.29755 0.0
C1797 C 0.2655 0.3861 0.31898 0.0
C1798 C 0.31876 0.34493 0.29849 0.0
C1799 C 0.19428 0.3659 0.33841 0.0
H1800 H 0.21105 0.43411 0.35515 0.0
N1801 N 0.12296 0.24458 0.37182 0.0
C1802 C 0.13143 0.29336 0.36403 0.0
C1803 C 0.07099 0.32554 0.39914 0.0
C1804 C 0.12274 0.33263 0.38065 0.0
C1805 C 0.0729 0.23515 0.38942 0.0
C1806 C 0.03929 0.27689 0.40212 0.0
O1807 O 0.24509 0.06059 0.3799 0.0
O1808 O 0.13663 0.11143 0.37705 0.0
O1809 O 0.11593 0.12784 0.34421 0.0
O1810 O 0.11187 0.20799 0.33541 0.0
O1811 O 0.40995 0.12948 0.34725 0.0
O1812 O 0.28774 0.11598 0.33627 0.0
O1813 O 0.28716 0.24988 0.37486 0.0
O1814 O 0.40105 0.20776 0.38495 0.0
O1815 O 0.4916 0.08644 0.37234 0.0
O1816 O 0.47207 0.09147 0.40897 0.0
O1817 O 0.20607 0.16385 0.40482 0.0
O1818 O 0.33286 0.16016 0.41696 0.0
C1819 C 0.16308 0.06295 0.37952 0.0
C1820 C 0.36424 0.11873 0.32935 0.0
C1821 C 0.9874 0.17198 0.34705 0.0
C1822 C 0.81952 0.13135 0.38283 0.0
C1823 C 0.82923 0.23015 0.35597 0.0
C1824 C 0.92013 0.22423 0.34405 0.0
C1825 C 0.78137 0.18912 0.37392 0.0
C1826 C 0.96402 0.12038 0.36387 0.0
C1827 C 0.07234 0.16582 0.33656 0.0
C1828 C 0.16528 0.37725 0.37909 0.0
C1829 C 0.18981 0.39648 0.35759 0.0
H1830 H 0.05743 0.3567 0.41134 0.0
C1831 C 0.36273 0.25504 0.38152 0.0
C1832 C 0.25928 0.16175 0.42428 0.0
C1833 C 0.61108 0.0959 0.39793 0.0
C1834 C 0.75717 0.10065 0.39496 0.0
C1835 C 0.69302 0.10896 0.43206 0.0
C1836 C 0.62335 0.11306 0.4202 0.0
C1837 C 0.76095 0.10234 0.41951 0.0
C1838 C 0.68087 0.0936 0.38391 0.0
C1839 C 0.52423 0.08265 0.39274 0.0
H1840 H 0.79822 0.26562 0.35201 0.0
H1841 H 0.95936 0.19782 0.34478 0.0
H1842 H 0.72748 0.19957 0.38095 0.0
H1843 H 0.00375 0.08845 0.36292 0.0
H1844 H 0.69392 0.11706 0.45055 0.0
H1845 H 0.58199 0.13972 0.42541 0.0
H1846 H 0.81506 0.10898 0.42884 0.0
H1847 H 0.67706 0.08772 0.36507 0.0
C1848 C 0.43896 0.02229 0.21227 0.0
C1849 C 0.43315 -0.06979 0.22702 0.0
C1850 C 0.41731 -0.00616 0.23085 0.0
C1851 C 0.4762 -0.08492 0.20786 0.0
C1852 C 0.48216 0.00065 0.19359 0.0
C1853 C 0.50615 -0.04977 0.1928 0.0
N1854 N 0.407 0.06935 0.21028 0.0
C1855 C 0.38907 0.08467 0.18814 0.0
C1856 C 0.48781 0.02759 0.17335 0.0
C1857 C 0.43547 0.06602 0.17006 0.0
Gd1858 Gd 0.5571 0.17873 0.27186 0.0
Gd1859 Gd 0.38577 0.11338 0.2459 0.0
N1860 N 0.38589 0.02331 0.25341 0.0
C1861 C 0.41369 0.88865 0.24838 0.0
C1862 C 0.35831 0.0036 0.27835 0.0
C1863 C 0.36166 -0.06049 0.28504 0.0
H1864 H 0.33385 0.02977 0.29123 0.0
H1865 H 0.32768 -0.0721 0.29968 0.0
H1866 H 0.67493 0.19295 0.23013 0.0
H1867 H 0.35029 0.11696 0.18485 0.0
H1868 H 0.70036 0.26558 0.2026 0.0
H1869 H 0.41678 0.84726 0.24417 0.0
H1870 H 0.4952 0.87696 0.20536 0.0
H1871 H 0.45137 0.23981 0.34647 0.0
H1872 H 0.51691 0.01183 0.15843 0.0
H1873 H 0.43059 0.08002 0.15321 0.0
H1874 H 0.55656 0.39517 0.23947 0.0
H1875 H 0.54016 -0.06308 0.17823 0.0
H1876 H 0.47069 0.3715 0.32591 0.0
H1877 H 0.45334 0.30526 0.33711 0.0
N1878 N 0.57442 0.25461 0.30508 0.0
C1879 C 0.6109 0.30163 0.28916 0.0
C1880 C 0.47767 0.27236 0.33349 0.0
C1881 C 0.50852 0.38553 0.31306 0.0
C1882 C 0.45411 0.34457 0.33327 0.0
C1883 C 0.58023 0.36486 0.29365 0.0
H1884 H 0.57729 0.43739 0.27956 0.0
N1885 N 0.63694 0.24163 0.25714 0.0
C1886 C 0.62996 0.29094 0.26545 0.0
C1887 C 0.64408 0.31962 0.2253 0.0
C1888 C 0.61883 0.32905 0.24823 0.0
C1889 C 0.66844 0.23228 0.23583 0.0
C1890 C 0.67902 0.27275 0.2201 0.0
O1891 O 0.51707 0.06352 0.25005 0.0
O1892 O 0.62718 0.1122 0.25268 0.0
O1893 O 0.63915 0.12432 0.28868 0.0
O1894 O 0.65127 0.20563 0.29451 0.0
O1895 O 0.3502 0.13025 0.28414 0.0
O1896 O 0.47227 0.11545 0.29425 0.0
O1897 O 0.48185 0.25043 0.25491 0.0
O1898 O 0.36322 0.21071 0.24831 0.0
O1899 O 0.27294 0.08107 0.2597 0.0
O1900 O 0.28519 0.103 0.22416 0.0
O1901 O 0.55002 0.16093 0.22539 0.0
O1902 O 0.42317 0.1609 0.21398 0.0
C1903 C 0.59959 0.06418 0.25012 0.0
C1904 C 0.39634 0.11892 0.30168 0.0
C1905 C 0.7676 0.16142 0.29128 0.0
C1906 C 0.94859 0.13212 0.25973 0.0
C1907 C 0.92497 0.21883 0.29395 0.0
C1908 C 0.82873 0.20899 0.30069 0.0
C1909 C 0.98236 0.18476 0.27539 0.0
C1910 C 0.79677 0.117 0.27212 0.0
C1911 C 0.68375 0.16133 0.29709 0.0
C1912 C 0.58681 0.37652 0.25344 0.0
C1913 C 0.59023 0.39776 0.27575 0.0
H1914 H 0.63956 0.34897 0.21191 0.0
C1915 C 0.40465 0.25722 0.25059 0.0
C1916 C 0.49572 0.15829 0.20618 0.0
C1917 C 0.15069 0.08851 0.23513 0.0
C1918 C 0.01044 0.10958 0.24315 0.0
C1919 C 0.05953 0.1039 0.20325 0.0
C1920 C 0.13246 0.09037 0.21146 0.0
C1921 C 0.00151 0.11703 0.21876 0.0
C1922 C 0.08689 0.09443 0.25145 0.0
C1923 C 0.23833 0.08357 0.23957 0.0
H1924 H 0.95485 0.24936 0.30299 0.0
H1925 H 0.80146 0.23868 0.31132 0.0
H1926 H 0.04205 0.19279 0.27634 0.0
H1927 H 0.7543 0.08862 0.26741 0.0
H1928 H 0.04885 0.10632 0.18464 0.0
H1929 H 0.1765 0.07808 0.19934 0.0
H1930 H 0.95119 0.13436 0.2108 0.0
H1931 H 0.09666 0.09018 0.27015 0.0
C1932 C 0.32619 0.56714 0.21663 0.0
C1933 C 0.34746 0.65394 0.23665 0.0
C1934 C 0.35459 0.5887 0.23655 0.0
C1935 C 0.32421 0.67854 0.21725 0.0
C1936 C 0.28568 0.59755 0.19965 0.0
C1937 C 0.28447 0.65118 0.20029 0.0
N1938 N 0.34028 0.51651 0.2128 0.0
C1939 C 0.33837 0.50196 0.19002 0.0
C1940 C 0.25588 0.57312 0.18001 0.0
C1941 C 0.28733 0.52592 0.17455 0.0
Gd1942 Gd 0.20881 0.3956 0.2715 0.0
Gd1943 Gd 0.37982 0.46361 0.24496 0.0
N1944 N 0.38052 0.55201 0.25759 0.0
C1945 C 0.36557 0.68834 0.26069 0.0
C1946 C 0.406 0.56473 0.28386 0.0
C1947 C 0.40574 0.62704 0.29429 0.0
H1948 H 0.43499 0.53672 0.29462 0.0
H1949 H 0.43637 0.63366 0.3104 0.0
H1950 H 0.07542 0.38046 0.23505 0.0
H1951 H 0.37148 0.46983 0.18391 0.0
H1952 H 0.00813 0.30428 0.21209 0.0
H1953 H 0.36258 0.73079 0.25922 0.0
H1954 H 0.33095 0.71959 0.21743 0.0
H1955 H 0.31948 0.33399 0.34629 0.0
H1956 H 0.22177 0.59364 0.16707 0.0
H1957 H 0.28124 0.51079 0.15761 0.0
H1958 H 0.17662 0.17787 0.23567 0.0
H1959 H 0.25607 0.67164 0.18654 0.0
H1960 H 0.30013 0.20266 0.32491 0.0
H1961 H 0.31755 0.26861 0.33661 0.0
N1962 N 0.19661 0.31958 0.30464 0.0
C1963 C 0.16055 0.27242 0.28859 0.0
C1964 C 0.29285 0.30148 0.33332 0.0
C1965 C 0.26278 0.1888 0.31183 0.0
C1966 C 0.31668 0.22934 0.33247 0.0
C1967 C 0.19247 0.2097 0.29223 0.0
H1968 H 0.20304 0.13988 0.27643 0.0
N1969 N 0.1258 0.33137 0.25829 0.0
C1970 C 0.13231 0.28254 0.26629 0.0
C1971 C 0.07515 0.25051 0.23056 0.0
C1972 C 0.12344 0.24281 0.24977 0.0
C1973 C 0.07832 0.34098 0.24007 0.0
C1974 C 0.04547 0.29945 0.22702 0.0
O1975 O 0.25073 0.5147 0.25056 0.0
O1976 O 0.14135 0.46492 0.25283 0.0
O1977 O 0.12357 0.44978 0.2866 0.0
O1978 O 0.11412 0.36901 0.29421 0.0
O1979 O 0.41484 0.44389 0.28343 0.0
O1980 O 0.29273 0.45832 0.29421 0.0
O1981 O 0.28882 0.32481 0.25617 0.0
O1982 O 0.40387 0.36569 0.24635 0.0
O1983 O 0.49758 0.48537 0.25847 0.0
O1984 O 0.47746 0.48219 0.22181 0.0
O1985 O 0.2113 0.41371 0.22525 0.0
O1986 O 0.33799 0.41427 0.21315 0.0
C1987 C 0.16848 0.51338 0.2506 0.0
C1988 C 0.36902 0.45482 0.30125 0.0
C1989 C -0.00169 0.40946 0.28307 0.0
C1990 C 0.82667 0.44421 0.24844 0.0
C1991 C 0.84669 0.34713 0.27623 0.0
C1992 C 0.93892 0.35809 0.28676 0.0
C1993 C 0.79294 0.38567 0.25838 0.0
C1994 C 0.97209 0.45859 0.26642 0.0
C1995 C 0.07747 0.41236 0.29344 0.0
C1996 C 0.16433 0.19752 0.25174 0.0
C1997 C 0.18568 0.17821 0.27347 0.0
H1998 H 0.06327 0.21952 0.21813 0.0
C1999 C 0.36419 0.31889 0.24985 0.0
C2000 C 0.2645 0.41468 0.20572 0.0
C2001 C 0.61671 0.47781 0.23263 0.0
C2002 C 0.76265 0.47289 0.23595 0.0
C2003 C 0.69922 0.46611 0.19851 0.0
C2004 C 0.62918 0.46149 0.21016 0.0
C2005 C 0.76683 0.47165 0.2114 0.0
C2006 C 0.68629 0.47966 0.24685 0.0
C2007 C 0.52985 0.49014 0.23809 0.0
H2008 H 0.82082 0.30995 0.28022 0.0
H2009 H 0.96813 0.32608 0.29445 0.0
H2010 H 0.73847 0.37326 0.25252 0.0
H2011 H 0.0106 0.49098 0.26715 0.0
H2012 H 0.70112 0.45901 0.17988 0.0
H2013 H 0.58875 0.43414 0.20474 0.0
H2014 H 0.82102 0.46524 0.20218 0.0
H2015 H 0.68227 0.48512 0.26569 0.0
C2016 C 0.39777 0.05689 0.03811 0.0
C2017 C 0.3693 0.08373 -0.00132 0.0
C2018 C 0.36911 0.04595 0.01608 0.0
C2019 C 0.41621 0.12709 0.00025 0.0
C2020 C 0.43261 0.11936 0.04168 0.0
C2021 C 0.43454 0.14864 0.02191 0.0
N2022 N 0.43121 0.00955 0.05431 0.0
C2023 C 0.52593 0.02694 0.08354 0.0
C2024 C 0.50219 0.13946 0.06175 0.0
C2025 C 0.55218 0.09876 0.08289 0.0
Gd2026 Gd 0.61496 0.86713 -0.00503 0.0
Gd2027 Gd 0.44208 -0.06705 0.02135 0.0
N2028 N 0.3541 -0.00332 0.00932 0.0
C2029 C 0.31929 0.07761 -0.02018 0.0
C2030 C 0.30502 -0.01175 -0.0089 0.0
C2031 C 0.28136 0.03067 -0.02293 0.0
H2032 H 0.30125 -0.05094 -0.01504 0.0
H2033 H 0.25257 0.02615 -0.0393 0.0
H2034 H 0.66939 0.78613 0.04159 0.0
H2035 H 0.54996 -0.00539 0.09701 0.0
H2036 H 0.67502 0.6844 0.05186 0.0
H2037 H 0.31365 0.10783 -0.03313 0.0
H2038 H 0.4325 0.14538 -0.01581 0.0
H2039 H 0.63687 0.86862 0.9338 0.0
H2040 H 0.53758 0.12567 0.07529 0.0
H2041 H 0.55112 0.05952 0.08695 0.0
H2042 H 0.52266 0.62507 -0.04238 0.0
H2043 H 0.45777 0.18631 0.02363 0.0
H2044 H 0.47417 0.75761 0.90991 0.0
H2045 H 0.55641 0.829 0.90337 0.0
N2046 N 0.58763 0.82075 -0.0398 0.0
C2047 C 0.56076 0.77244 -0.03719 0.0
C2048 C 0.60167 0.83543 0.93775 0.0
C2049 C 0.5062 0.77427 0.92424 0.0
C2050 C 0.55556 0.81422 0.9201 0.0
C2051 C 0.51688 0.74837 -0.0553 0.0
H2052 H 0.46041 0.68175 0.93105 0.0
N2053 N 0.61598 0.77726 0.00397 0.0
C2054 C 0.58564 0.74582 -0.01829 0.0
C2055 C 0.59307 0.64151 0.00085 0.0
C2056 C 0.57303 0.68154 -0.02125 0.0
C2057 C 0.64382 0.75918 0.02925 0.0
C2058 C 0.64221 0.695 0.03672 0.0
O2059 O 0.52366 0.00392 0.00612 0.0
O2060 O 0.64027 -0.0364 -0.00225 0.0
O2061 O 0.72992 0.83397 0.00606 0.0
O2062 O 0.71332 0.86151 -0.02867 0.0
O2063 O 0.4461 0.91105 -0.02502 0.0
O2064 O 0.57284 -0.08323 -0.03634 0.0
O2065 O 0.4846 0.81641 -0.00032 0.0
O2066 O 0.37418 0.86515 0.00218 0.0
O2067 O 0.36024 0.8791 0.03857 0.0
O2068 O 0.3482 -0.03933 0.04398 0.0
O2069 O 0.64884 0.88308 0.034 0.0
O2070 O 0.52603 0.86968 0.04429 0.0
C2071 C 0.59991 0.01017 0.0004 0.0
C2072 C 0.50063 0.9123 -0.04429 0.0
C2073 C 0.84862 0.84707 -0.01874 0.0
C2074 C 0.98932 0.86405 -0.00952 0.0
C2075 C 0.94179 0.86034 -0.05009 0.0
C2076 C 0.8683 0.84803 -0.04239 0.0
C2077 C 0.00017 0.87068 -0.03405 0.0
C2078 C 0.9111 0.85211 -0.00196 0.0
C2079 C 0.7619 0.84022 -0.01428 0.0
C2080 C 0.5344 0.66397 -0.04057 0.0
C2081 C 0.49738 0.69698 -0.05534 0.0
H2082 H 0.58753 0.59971 -0.0025 0.0
C2083 C 0.40212 0.81702 -3e-05 0.0
C2084 C 0.60243 0.87234 0.0517 0.0
C2085 C 0.23111 -0.08341 0.03982 0.0
C2086 C 0.05042 0.88464 0.00812 0.0
C2087 C 0.07313 -0.02622 0.04156 0.0
C2088 C 0.16942 -0.03576 0.04857 0.0
C2089 C 0.01596 -0.06208 0.02337 0.0
C2090 C 0.20273 0.87131 0.021 0.0
C2091 C 0.31499 -0.08352 0.04634 0.0
H2092 H 0.9528 0.86227 0.93121 0.0
H2093 H 0.82796 0.83299 -0.05494 0.0
H2094 H 0.05198 0.88497 -0.04198 0.0
H2095 H 0.89928 0.84815 0.01664 0.0
H2096 H 0.04454 0.00708 0.0494 0.0
H2097 H 0.19686 -0.00511 0.05843 0.0
H2098 H 0.956 -0.05694 0.02523 0.0
H2099 H 0.24631 0.84374 0.01618 0.0
C2100 C 0.84355 0.02643 0.04033 0.0
C2101 C 0.87717 -0.00217 0.00128 0.0
C2102 C 0.87366 0.0366 0.01843 0.0
C2103 C 0.83132 -0.04573 0.0025 0.0
C2104 C 0.8091 -0.03622 0.04349 0.0
C2105 C 0.81099 -0.06648 0.02398 0.0
N2106 N 0.80731 0.07407 0.05617 0.0
C2107 C 0.70876 0.05651 0.08403 0.0
C2108 C 0.7371 -0.05626 0.06259 0.0
C2109 C 0.6836 -0.01534 0.08298 0.0
Gd2110 Gd 0.6253 0.21535 -0.00589 0.0
Gd2111 Gd 0.79763 0.1492 0.02257 0.0
N2112 N 0.88604 0.08558 0.0113 0.0
C2113 C 0.92716 0.00422 -0.01747 0.0
C2114 C 0.93609 0.09422 -0.00649 0.0
C2115 C 0.96237 0.05187 -0.0203 0.0
H2116 H 0.9401 0.13353 -0.01199 0.0
H2117 H 0.9907 0.05604 -0.03674 0.0
H2118 H 0.56961 0.29338 0.04225 0.0
H2119 H 0.68313 0.08891 0.09728 0.0
H2120 H 0.57005 0.39291 0.05548 0.0
H2121 H 0.93421 -0.02614 -0.03052 0.0
H2122 H 0.81553 -0.06383 -0.01378 0.0
H2123 H 0.62045 0.21265 0.93342 0.0
H2124 H 0.69969 -0.04229 0.07559 0.0
H2125 H 0.68347 0.02392 0.08708 0.0
H2126 H 0.69553 0.46418 -0.03706 0.0
H2127 H 0.78747 0.89605 0.02567 0.0
H2128 H 0.77135 0.33315 0.91198 0.0
H2129 H 0.70575 0.25328 0.90477 0.0
N2130 N 0.65832 0.26336 -0.03948 0.0
C2131 C 0.67487 0.31382 -0.03665 0.0
C2132 C 0.65323 0.24678 0.93801 0.0
C2133 C 0.73866 0.31487 0.92582 0.0
C2134 C 0.70147 0.26928 0.92139 0.0
C2135 C 0.71732 0.34096 -0.05419 0.0
H2136 H 0.76686 0.41128 0.93378 0.0
N2137 N 0.6205 0.30473 0.00461 0.0
C2138 C 0.64696 0.33826 -0.01728 0.0
C2139 C 0.64251 0.44028 0.00426 0.0
C2140 C 0.65803 0.40272 -0.01873 0.0
C2141 C 0.59669 0.32052 0.03058 0.0
C2142 C 0.60023 0.38366 0.03962 0.0
O2143 O 0.71754 0.07813 0.00646 0.0
O2144 O 0.60129 0.11854 -0.00264 0.0
O2145 O 0.5086 0.24898 0.00268 0.0
O2146 O 0.531 0.2194 -0.0315 0.0
O2147 O 0.79683 0.1675 -0.02391 0.0
O2148 O 0.67093 0.16368 -0.03626 0.0
O2149 O 0.75476 0.26648 -0.00153 0.0
O2150 O 0.86457 0.21851 0.00452 0.0
O2151 O 0.88595 0.20308 0.03638 0.0
O2152 O 0.88921 0.12372 0.04689 0.0
O2153 O 0.59073 0.20029 0.03331 0.0
O2154 O 0.71302 0.21295 0.04492 0.0
C2155 C 0.64158 0.07192 0.00034 0.0
C2156 C 0.74384 0.16666 -0.0436 0.0
C2157 C 0.3938 0.23336 -0.02328 0.0
C2158 C 0.25255 0.22007 -0.01375 0.0
C2159 C 0.29745 0.22437 -0.05447 0.0
C2160 C 0.37302 0.23264 -0.047 0.0
C2161 C 0.23864 0.21747 -0.03824 0.0
C2162 C 0.33199 0.2288 -0.00644 0.0
C2163 C 0.48 0.24154 -0.01812 0.0
C2164 C 0.69166 0.42388 -0.0375 0.0
C2165 C 0.73007 0.39364 -0.05344 0.0
H2166 H 0.64844 0.48238 0.0018 0.0
C2167 C 0.83678 0.26609 0.00058 0.0
C2168 C 0.63597 0.21064 0.05153 0.0
C2169 C 0.01565 0.15935 0.0363 0.0
C2170 C 0.19316 0.19807 0.00372 0.0
C2171 C 0.17977 0.10562 0.03522 0.0
C2172 C 0.08418 0.11034 0.04351 0.0
C2173 C 0.2319 0.14479 0.01749 0.0
C2174 C 0.04134 0.20746 0.01789 0.0
C2175 C 0.9286 0.16599 0.04527 0.0
H2176 H 0.28428 0.22423 0.92687 0.0
H2177 H 0.41316 0.24606 0.94017 0.0
H2178 H 0.18354 0.20826 -0.04589 0.0
H2179 H 0.34503 0.23177 0.01214 0.0
H2180 H 0.21304 0.07448 0.04297 0.0
H2181 H 0.0443 0.13525 0.04047 0.0
H2182 H 0.2917 0.14425 0.02005 0.0
H2183 H 0.99693 0.23508 0.01406 0.0
C2184 C 0.39305 0.02664 0.09113 0.0
C2185 C 0.36656 0.00036 0.13064 0.0
C2186 C 0.36482 0.03782 0.11318 0.0
C2187 C 0.41061 -0.0444 0.12878 0.0
C2188 C 0.42572 -0.03663 0.08781 0.0
C2189 C 0.4228 -0.06699 0.10704 0.0
N2190 N 0.43087 0.07351 0.07547 0.0
C2191 C 0.5294 0.05433 0.04776 0.0
C2192 C 0.4977 -0.05775 0.06891 0.0
C2193 C 0.55278 -0.01773 0.04873 0.0
Gd2194 Gd 0.61066 0.21793 0.13603 0.0
Gd2195 Gd 0.44296 0.1489 0.10929 0.0
N2196 N 0.35057 0.08708 0.12014 0.0
C2197 C 0.31729 0.00671 0.14959 0.0
C2198 C 0.30014 0.09551 0.13814 0.0
C2199 C 0.27665 0.05293 0.15206 0.0
H2200 H 0.29399 0.13469 0.14425 0.0
H2201 H 0.2466 0.05692 0.16833 0.0
H2202 H 0.67151 0.29569 0.08808 0.0
H2203 H 0.55601 0.08614 0.03457 0.0
H2204 H 0.67815 0.3967 0.07569 0.0
H2205 H 0.31617 -0.02272 0.16293 0.0
H2206 H 0.42571 -0.0639 0.14465 0.0
H2207 H 0.57768 0.22839 0.1972 0.0
H2208 H 0.53568 -0.04422 0.05609 0.0
H2209 H 0.55393 0.02147 0.04474 0.0
H2210 H 0.55459 0.4689 0.17029 0.0
H2211 H 0.44195 0.89424 0.10486 0.0
H2212 H 0.38935 0.33436 0.20028 0.0
H2213 H 0.43904 0.25 0.21113 0.0
N2214 N 0.55413 0.26871 0.16668 0.0
C2215 C 0.54506 0.31952 0.16371 0.0
C2216 C 0.53953 0.25493 0.18891 0.0
C2217 C 0.44097 0.31886 0.19204 0.0
C2218 C 0.46992 0.27199 0.19895 0.0
C2219 C 0.48882 0.34718 0.17735 0.0
H2220 H 0.45909 0.41795 0.19334 0.0
N2221 N 0.61806 0.30802 0.12557 0.0
C2222 C 0.58791 0.34242 0.14704 0.0
C2223 C 0.60014 0.44416 0.12607 0.0
C2224 C 0.57971 0.4073 0.14866 0.0
C2225 C 0.64633 0.32373 0.09992 0.0
C2226 C 0.64636 0.38747 0.09131 0.0
O2227 O 0.52145 0.07804 0.12544 0.0
O2228 O 0.63647 0.12022 0.13419 0.0
O2229 O 0.72492 0.25081 0.12546 0.0
O2230 O 0.70371 0.23159 0.16117 0.0
O2231 O 0.45579 0.16287 0.15609 0.0
O2232 O 0.58425 0.16453 0.16778 0.0
O2233 O 0.48253 0.26754 0.12906 0.0
O2234 O 0.3753 0.21619 0.12949 0.0
O2235 O 0.35602 0.20371 0.09562 0.0
O2236 O 0.35163 0.12432 0.08469 0.0
O2237 O 0.64734 0.20095 0.0974 0.0
O2238 O 0.5252 0.21282 0.08628 0.0
C2239 C 0.59737 0.07275 0.13161 0.0
C2240 C 0.51137 0.15894 0.17521 0.0
C2241 C 0.84156 0.24129 0.15085 0.0
C2242 C 0.98281 0.22258 0.14208 0.0
C2243 C 0.93409 0.22806 0.18237 0.0
C2244 C 0.86059 0.24049 0.17444 0.0
C2245 C 0.99297 0.21677 0.16664 0.0
C2246 C 0.90475 0.23546 0.13425 0.0
C2247 C 0.75478 0.24886 0.14622 0.0
C2248 C 0.5432 0.429 0.16682 0.0
C2249 C 0.49028 0.40011 0.17936 0.0
H2250 H 0.59452 0.4863 0.12868 0.0
C2251 C 0.4011 0.26513 0.1307 0.0
C2252 C 0.60202 0.21099 0.07935 0.0
C2253 C 0.22518 0.16158 0.09375 0.0
C2254 C 0.04386 0.19966 0.12493 0.0
C2255 C 0.06083 0.10798 0.09259 0.0
C2256 C 0.1573 0.11298 0.08521 0.0
C2257 C 0.00672 0.14665 0.11021 0.0
C2258 C 0.19761 0.20931 0.11244 0.0
C2259 C 0.31353 0.16722 0.08601 0.0
H2260 H 0.94431 0.22588 0.20105 0.0
H2261 H 0.81773 0.25331 0.18679 0.0
H2262 H 0.04452 0.20184 0.17475 0.0
H2263 H 0.89334 0.23891 0.1156 0.0
H2264 H 0.02872 0.07639 0.08448 0.0
H2265 H 0.19669 0.13771 0.08903 0.0
H2266 H 0.94709 0.14416 0.1077 0.0
H2267 H 0.24217 0.23632 0.11724 0.0
C2268 C 0.84031 0.05802 0.09351 0.0
C2269 C 0.87304 0.08681 0.13274 0.0
C2270 C 0.86695 0.04775 0.11579 0.0
C2271 C 0.82873 0.1311 0.13134 0.0
C2272 C 0.80708 0.1207 0.09 0.0
C2273 C 0.8065 0.15068 0.1097 0.0
N2274 N 0.8057 0.01052 0.07721 0.0
C2275 C 0.71083 0.02845 0.04821 0.0
C2276 C 0.73792 0.14114 0.07003 0.0
C2277 C 0.68639 0.10047 0.04899 0.0
Gd2278 Gd 0.62409 0.86614 0.13663 0.0
Gd2279 Gd 0.79418 -0.06576 0.10987 0.0
N2280 N 0.87677 -0.00115 0.12317 0.0
C2281 C 0.92572 0.08005 0.15101 0.0
C2282 C 0.92852 -0.01012 0.14036 0.0
C2283 C 0.96139 0.03218 0.15305 0.0
H2284 H 0.9362 -0.04983 0.14442 0.0
H2285 H 0.00561 0.02878 0.16622 0.0
H2286 H 0.56853 0.79019 0.08707 0.0
H2287 H 0.68554 -0.00395 0.03487 0.0
H2288 H 0.56797 0.69146 0.07256 0.0
H2289 H 0.93831 0.11115 0.16333 0.0
H2290 H 0.81665 0.15101 0.14742 0.0
H2291 H 0.62273 0.86489 0.19715 0.0
H2292 H 0.70201 0.12719 0.05665 0.0
H2293 H 0.6864 0.06117 0.0449 0.0
H2294 H 0.6681 0.61314 0.16718 0.0
H2295 H 0.78466 0.18829 0.10763 0.0
H2296 H 0.77124 0.74138 0.21709 0.0
H2297 H 0.71002 0.82345 0.22507 0.0
N2298 N 0.65887 0.81539 0.16939 0.0
C2299 C 0.67418 0.76471 0.166 0.0
C2300 C 0.65581 0.83123 0.19207 0.0
C2301 C 0.73813 0.76085 0.20359 0.0
C2302 C 0.70453 0.80772 0.20833 0.0
C2303 C 0.71191 0.73536 0.18382 0.0
H2304 H 0.73399 0.66216 0.1988 0.0
N2305 N 0.62209 0.77706 0.1244 0.0
C2306 C 0.64888 0.74181 0.14583 0.0
C2307 C 0.64267 0.64085 0.12255 0.0
C2308 C 0.65886 0.67682 0.14629 0.0
C2309 C 0.59719 0.76266 0.09821 0.0
C2310 C 0.59994 0.69959 0.08833 0.0
O2311 O 0.7152 0.00541 0.12556 0.0
O2312 O 0.6004 -0.03626 0.1343 0.0
O2313 O 0.50564 0.83789 0.12614 0.0
O2314 O 0.52978 0.85511 0.16183 0.0
O2315 O 0.79458 -0.08283 0.15593 0.0
O2316 O 0.66806 -0.08284 0.1678 0.0
O2317 O 0.75416 0.81536 0.13201 0.0
O2318 O 0.86301 0.86522 0.12822 0.0
O2319 O 0.88011 0.8803 0.09494 0.0
O2320 O 0.88615 -0.03904 0.08644 0.0
O2321 O 0.58808 0.88285 0.0977 0.0
O2322 O 0.71084 0.87086 0.08689 0.0
C2323 C 0.63966 0.01108 0.13171 0.0
C2324 C 0.74127 -0.08404 0.17529 0.0
C2325 C 0.39041 0.84809 0.15312 0.0
C2326 C 0.2457 0.85993 0.14619 0.0
C2327 C 0.29974 0.85592 0.18564 0.0
C2328 C 0.37334 0.84719 0.17694 0.0
C2329 C 0.23665 0.86251 0.17068 0.0
C2330 C 0.3246 0.85283 0.13739 0.0
C2331 C 0.47686 0.83972 0.14712 0.0
C2332 C 0.67808 0.65346 0.16644 0.0
C2333 C 0.71242 0.68176 0.18394 0.0
H2334 H 0.64575 0.59855 0.12462 0.0
C2335 C 0.83643 0.8168 0.13112 0.0
C2336 C 0.63442 0.87331 0.07971 0.0
C2337 C 0.00933 -0.0767 0.09675 0.0
C2338 C 0.18267 0.88495 0.13094 0.0
C2339 C 0.1688 -0.01941 0.10198 0.0
C2340 C 0.07632 -0.02544 0.09173 0.0
C2341 C 0.21964 -0.0595 0.11935 0.0
C2342 C 0.03439 0.87322 0.11447 0.0
C2343 C 0.92372 -0.08213 0.087 0.0
H2344 H 0.29356 0.85795 0.20444 0.0
H2345 H 0.41516 0.83222 0.18897 0.0
H2346 H 0.18202 0.87273 0.17873 0.0
H2347 H 0.33366 0.85091 0.1186 0.0
H2348 H 0.20117 0.0141 0.09612 0.0
H2349 H 0.03796 -0.05158 0.09373 0.0
H2350 H 0.27872 -0.06084 0.11603 0.0
H2351 H 0.99247 0.84297 0.11585 0.0
C2352 C 0.44176 0.05384 0.91778 0.0
C2353 C 0.43659 0.14534 0.9026 0.0
C2354 C 0.41976 0.08194 0.89896 0.0
C2355 C 0.47794 0.16107 0.92203 0.0
C2356 C 0.48703 0.07561 0.9361 0.0
C2357 C 0.51099 0.12604 0.93658 0.0
N2358 N 0.40986 0.00683 0.92019 0.0
C2359 C 0.39418 -0.00803 -0.05751 0.0
C2360 C 0.49423 0.04918 -0.04351 0.0
C2361 C 0.44169 0.01106 -0.03964 0.0
Gd2362 Gd 0.54873 0.89645 0.85918 0.0
Gd2363 Gd 0.37967 -0.03756 0.8853 0.0
N2364 N 0.3851 0.0524 0.87667 0.0
C2365 C 0.41591 0.18698 0.88153 0.0
C2366 C 0.35459 0.07253 0.8519 0.0
C2367 C 0.35836 0.13759 0.84517 0.0
H2368 H 0.3261 0.04667 0.83963 0.0
H2369 H 0.32321 0.14984 0.83087 0.0
H2370 H 0.69327 0.88033 0.89279 0.0
H2371 H 0.35443 -0.03954 -0.0539 0.0
H2372 H 0.7619 0.80233 0.91401 0.0
H2373 H 0.41924 0.22823 0.88596 0.0
H2374 H 0.49405 0.19978 0.92482 0.0
H2375 H 0.43631 0.83525 0.7841 0.0
H2376 H 0.5256 0.06527 -0.029 0.0
H2377 H 0.43873 -0.00343 -0.02281 0.0
H2378 H 0.56632 0.68367 0.89518 0.0
H2379 H 0.54692 0.13944 -0.04926 0.0
H2380 H 0.45321 0.70391 0.80494 0.0
H2381 H 0.43744 0.77007 0.79368 0.0
N2382 N 0.55894 0.82043 0.82569 0.0
C2383 C 0.59446 0.7729 0.84141 0.0
C2384 C 0.46221 0.80274 0.7971 0.0
C2385 C 0.48999 0.69011 0.81812 0.0
C2386 C 0.43744 0.73081 0.79758 0.0
C2387 C 0.56053 0.7103 0.83778 0.0
H2388 H 0.53756 0.64323 0.85544 0.0
N2389 N 0.63568 0.83214 0.87048 0.0
C2390 C 0.62383 0.78316 0.86326 0.0
C2391 C 0.68082 0.75119 0.8985 0.0
C2392 C 0.62877 0.74457 0.88016 0.0
C2393 C 0.68752 0.84085 0.88778 0.0
C2394 C 0.71851 0.79853 0.90057 0.0
O2395 O 0.51127 0.01265 0.88019 0.0
O2396 O 0.61999 -0.03605 0.87847 0.0
O2397 O 0.63486 -0.04929 0.84471 0.0
O2398 O 0.6439 0.87002 0.83635 0.0
O2399 O 0.34217 -0.05285 0.84671 0.0
O2400 O 0.46493 -0.03987 0.83628 0.0
O2401 O 0.47042 0.82492 0.87479 0.0
O2402 O 0.35456 0.86572 0.88321 0.0
O2403 O 0.26305 -0.01066 0.87216 0.0
O2404 O 0.2836 -0.02056 0.90846 0.0
O2405 O 0.54087 -0.08558 0.90571 0.0
O2406 O 0.41342 0.90943 0.91655 0.0
C2407 C 0.59382 0.01262 0.88056 0.0
C2408 C 0.38823 -0.04218 0.829 0.0
C2409 C 0.76088 0.9103 0.84774 0.0
C2410 C 0.93734 -0.05539 0.88064 0.0
C2411 C 0.91485 0.85003 0.85072 0.0
C2412 C 0.82076 0.86021 0.84221 0.0
C2413 C 0.9707 0.8879 0.86824 0.0
C2414 C 0.78841 -0.04166 0.86509 0.0
C2415 C 0.68089 -0.08667 0.83763 0.0
C2416 C 0.58213 0.70136 0.87893 0.0
C2417 C 0.56069 0.68065 0.85737 0.0
H2418 H 0.68971 0.72052 0.91102 0.0
C2419 C 0.39458 0.81897 0.88075 0.0
C2420 C 0.48573 0.91146 0.92478 0.0
C2421 C 0.14494 -0.01194 0.89937 0.0
C2422 C 0.00122 -0.02869 0.89466 0.0
C2423 C 0.05771 -0.01398 0.93301 0.0
C2424 C 0.12979 -0.0043 0.92302 0.0
C2425 C 0.99484 -0.02809 0.91921 0.0
C2426 C 0.0777 -0.0205 0.88461 0.0
C2427 C 0.23209 -0.00856 0.89287 0.0
H2428 H 0.94303 0.81543 0.844 0.0
H2429 H 0.79248 0.8282 0.83408 0.0
H2430 H 0.0298 0.8836 0.86641 0.0
H2431 H 0.748 -0.01092 0.86627 0.0
H2432 H 0.05233 -0.01325 -0.04819 0.0
H2433 H 0.17566 0.01024 0.93377 0.0
H2434 H 0.9426 -0.04019 0.92821 0.0
H2435 H 0.08325 -0.02103 0.86571 0.0
C2436 C 0.31901 0.51143 0.91417 0.0
C2437 C 0.33868 0.42365 0.89435 0.0
C2438 C 0.34725 0.48903 0.89437 0.0
C2439 C 0.30646 0.39955 0.91278 0.0
C2440 C 0.27888 0.48195 0.93138 0.0
C2441 C 0.2703 0.42853 0.93001 0.0
N2442 N 0.33375 0.56211 0.91778 0.0
C2443 C 0.33805 0.57713 -0.0595 0.0
C2444 C 0.25438 0.50702 -0.04849 0.0
C2445 C 0.2895 0.55348 -0.04332 0.0
Gd2446 Gd 0.19759 0.68123 0.85842 0.0
Gd2447 Gd 0.36874 0.61386 0.88543 0.0
N2448 N 0.37441 0.52525 0.87329 0.0
C2449 C 0.3583 0.3889 0.8705 0.0
C2450 C 0.40112 0.51207 0.84715 0.0
C2451 C 0.40102 0.44965 0.83694 0.0
H2452 H 0.42916 0.54024 0.83623 0.0
H2453 H 0.43118 0.44262 0.82076 0.0
H2454 H 0.06896 0.69585 0.898 0.0
H2455 H 0.37297 0.61008 -0.05426 0.0
H2456 H 0.02278 0.77153 0.92333 0.0
H2457 H 0.35347 0.34653 0.87191 0.0
H2458 H 0.30142 0.35804 0.91159 0.0
H2459 H 0.30543 0.74297 0.78358 0.0
H2460 H 0.22106 0.48734 -0.03522 0.0
H2461 H 0.28683 0.56841 -0.02633 0.0
H2462 H 0.17961 0.89919 0.89449 0.0
H2463 H 0.23649 0.40897 -0.05702 0.0
H2464 H 0.28784 0.8737 0.80578 0.0
H2465 H 0.30481 0.8078 0.79405 0.0
N2466 N 0.18342 0.75671 0.82541 0.0
C2467 C 0.14762 0.80377 0.84176 0.0
C2468 C 0.28023 0.77503 0.7971 0.0
C2469 C 0.25051 0.88757 0.81879 0.0
C2470 C 0.30421 0.84712 0.7982 0.0
C2471 C 0.17957 0.86665 0.8381 0.0
H2472 H 0.18649 -0.06227 0.85314 0.0
N2473 N 0.11516 0.74409 0.87261 0.0
C2474 C 0.12444 0.79314 0.86484 0.0
C2475 C 0.08285 0.82495 0.90252 0.0
C2476 C 0.12687 0.83172 0.88224 0.0
C2477 C 0.07322 0.73513 0.8922 0.0
C2478 C 0.04992 0.77705 0.90652 0.0
O2479 O 0.2401 0.56383 0.8802 0.0
O2480 O 0.13073 0.61426 0.8775 0.0
O2481 O 0.11274 0.6276 0.84209 0.0
O2482 O 0.10683 0.7083 0.83464 0.0
O2483 O 0.40219 0.63167 0.84665 0.0
O2484 O 0.28038 0.61752 0.83574 0.0
O2485 O 0.2775 0.7519 0.87422 0.0
O2486 O 0.39287 0.71082 0.88342 0.0
O2487 O 0.48333 0.58092 0.87488 0.0
O2488 O 0.46535 0.60586 0.91006 0.0
O2489 O 0.20015 0.66418 0.90499 0.0
O2490 O 0.32685 0.66367 0.91713 0.0
C2491 C 0.15834 0.56626 0.87981 0.0
C2492 C 0.35663 0.62038 0.82872 0.0
C2493 C 0.9813 0.66878 0.83873 0.0
C2494 C 0.80127 0.63294 0.87074 0.0
C2495 C 0.81544 0.7208 0.83696 0.0
C2496 C 0.91201 0.71593 0.8293 0.0
C2497 C 0.76272 0.68401 0.85545 0.0
C2498 C 0.95469 0.62276 0.85799 0.0
C2499 C 0.07104 0.6649 0.83289 0.0
C2500 C 0.16515 0.87798 0.87899 0.0
C2501 C 0.17371 0.89849 0.85671 0.0
H2502 H 0.0771 0.85574 0.91549 0.0
C2503 C 0.35293 0.75764 0.88069 0.0
C2504 C 0.25356 0.66228 0.92456 0.0
C2505 C 0.60152 0.59516 0.8992 0.0
C2506 C 0.74159 0.61286 0.88897 0.0
C2507 C 0.69644 0.61097 0.92978 0.0
C2508 C 0.62291 0.59738 0.92264 0.0
C2509 C 0.75403 0.62041 0.91343 0.0
C2510 C 0.66276 0.60011 0.88198 0.0
C2511 C 0.51489 0.5861 0.89533 0.0
H2512 H 0.78058 0.74899 0.82788 0.0
H2513 H 0.9524 0.69223 0.83351 0.0
H2514 H 0.70246 0.68768 0.85419 0.0
H2515 H -0.00037 0.59625 0.86326 0.0
H2516 H 0.70763 0.61439 -0.05163 0.0
H2517 H 0.58447 0.58163 0.93547 0.0
H2518 H 0.80653 0.63482 0.92111 0.0
H2519 H 0.64954 0.59502 0.86349 0.0
C2520 C 0.44434 0.5237 0.71226 0.0
C2521 C 0.44005 0.43218 0.7274 0.0
C2522 C 0.42234 0.49546 0.73099 0.0
C2523 C 0.48163 0.41664 0.70804 0.0
C2524 C 0.48955 0.5021 0.69395 0.0
C2525 C 0.51348 0.45166 0.69333 0.0
N2526 N 0.41174 0.57048 0.7098 0.0
C2527 C 0.39551 0.58511 0.6875 0.0
C2528 C 0.49632 0.52864 0.67362 0.0
C2529 C 0.44347 0.56655 0.66974 0.0
Gd2530 Gd 0.5494 0.68062 0.77088 0.0
Gd2531 Gd 0.38145 0.61473 0.74464 0.0
N2532 N 0.38634 0.52473 0.75313 0.0
C2533 C 0.4188 0.39039 0.74831 0.0
C2534 C 0.35484 0.50431 0.77773 0.0
C2535 C 0.35893 0.43924 0.78438 0.0
H2536 H 0.32619 0.53005 0.78999 0.0
H2537 H 0.32361 0.42671 0.79862 0.0
H2538 H 0.69777 0.69666 0.73819 0.0
H2539 H 0.35536 0.61625 0.68377 0.0
H2540 H 0.76532 0.77485 0.71707 0.0
H2541 H 0.42192 0.34923 0.7438 0.0
H2542 H 0.49806 0.37801 0.70523 0.0
H2543 H 0.43688 0.74233 0.84592 0.0
H2544 H 0.52706 0.51246 0.65909 0.0
H2545 H 0.4401 0.58102 0.65294 0.0
H2546 H 0.56548 0.89269 0.73451 0.0
H2547 H 0.54805 0.43812 0.67892 0.0
H2548 H 0.45355 0.87348 0.82485 0.0
H2549 H 0.43728 0.8074 0.83615 0.0
N2550 N 0.55891 0.7569 0.80427 0.0
C2551 C 0.59456 0.80429 0.78859 0.0
C2552 C 0.46216 0.77469 0.83276 0.0
C2553 C 0.49038 0.88733 0.81174 0.0
C2554 C 0.43751 0.84666 0.83224 0.0
C2555 C 0.56081 0.86694 0.79212 0.0
H2556 H 0.53626 -0.06654 0.77404 0.0
N2557 N 0.63703 0.74473 0.75987 0.0
C2558 C 0.62391 0.79372 0.7668 0.0
C2559 C 0.6813 0.8255 0.73168 0.0
C2560 C 0.62793 0.83185 0.74969 0.0
C2561 C 0.69011 0.73617 0.74291 0.0
C2562 C 0.72063 0.77856 0.73009 0.0
O2563 O 0.5136 0.56476 0.74982 0.0
O2564 O 0.62205 0.61359 0.75177 0.0
O2565 O 0.63683 0.62657 0.78487 0.0
O2566 O 0.64212 0.70668 0.7947 0.0
O2567 O 0.34343 0.62997 0.78314 0.0
O2568 O 0.46597 0.61679 0.79373 0.0
O2569 O 0.47127 0.75223 0.75506 0.0
O2570 O 0.35532 0.71131 0.74688 0.0
O2571 O 0.26565 0.58583 0.7575 0.0
O2572 O 0.28503 0.59917 0.72133 0.0
O2573 O 0.54218 0.6627 0.72435 0.0
O2574 O 0.41489 0.66772 0.71338 0.0
C2575 C 0.59619 0.56488 0.74951 0.0
C2576 C 0.38924 0.61902 0.8009 0.0
C2577 C 0.76604 0.67033 0.78249 0.0
C2578 C 0.94088 0.63186 0.7489 0.0
C2579 C 0.92523 0.72815 0.77804 0.0
C2580 C 0.8321 0.72206 0.78757 0.0
C2581 C 0.97707 0.68813 0.76065 0.0
C2582 C 0.79228 0.61996 0.76487 0.0
C2583 C 0.68084 0.66408 0.79285 0.0
C2584 C 0.58113 0.87505 0.7508 0.0
C2585 C 0.56016 0.89617 0.77234 0.0
H2586 H 0.69027 0.85623 0.71921 0.0
C2587 C 0.39517 0.75818 0.74926 0.0
C2588 C 0.48718 0.66579 0.70523 0.0
C2589 C 0.14749 0.58839 0.73042 0.0
C2590 C 0.00388 0.60429 0.73502 0.0
C2591 C 0.06121 0.59204 0.69661 0.0
C2592 C 0.13259 0.58137 0.70676 0.0
C2593 C -0.00224 0.6048 0.71043 0.0
C2594 C 0.08047 0.59627 0.74516 0.0
C2595 C 0.23441 0.58525 0.7368 0.0
H2596 H 0.9572 0.76123 0.78487 0.0
H2597 H 0.79409 0.69556 0.78552 0.0
H2598 H 0.03619 0.68914 0.76319 0.0
H2599 H 0.75129 0.58928 0.76391 0.0
H2600 H 0.0575 0.59342 0.67778 0.0
H2601 H 0.17819 0.56622 0.69617 0.0
H2602 H 0.94554 0.61735 0.70148 0.0
H2603 H 0.08665 0.59719 0.76407 0.0
C2604 C 0.31855 0.06568 0.7156 0.0
C2605 C 0.33824 0.15336 0.73548 0.0
C2606 C 0.34659 0.08804 0.73549 0.0
C2607 C 0.30645 0.17748 0.71692 0.0
C2608 C 0.278 0.09513 0.69842 0.0
C2609 C 0.26924 0.14855 0.69982 0.0
N2610 N 0.33417 0.01516 0.71184 0.0
C2611 C 0.33873 0.00043 0.68904 0.0
C2612 C 0.25359 0.07013 0.67824 0.0
C2613 C 0.28963 0.02406 0.67291 0.0
Gd2614 Gd 0.19619 0.89594 0.77141 0.0
Gd2615 Gd 0.36806 -0.03669 0.74438 0.0
N2616 N 0.37368 0.05182 0.75658 0.0
C2617 C 0.35785 0.18813 0.75934 0.0
C2618 C 0.40038 0.06492 0.78275 0.0
C2619 C 0.40044 0.12733 0.79299 0.0
H2620 H 0.42858 0.03672 0.79365 0.0
H2621 H 0.43123 0.13438 0.80911 0.0
H2622 H 0.06435 0.88036 0.73281 0.0
H2623 H 0.3729 -0.03283 0.68378 0.0
H2624 H 0.01701 0.80413 0.70759 0.0
H2625 H 0.35329 0.2305 0.75789 0.0
H2626 H 0.30193 0.21903 0.71805 0.0
H2627 H 0.30438 0.83543 0.84637 0.0
H2628 H 0.21925 0.08962 0.66508 0.0
H2629 H 0.286 0.00913 0.6559 0.0
H2630 H 0.1823 0.67817 0.7349 0.0
H2631 H 0.23584 0.16826 0.68672 0.0
H2632 H 0.28984 0.70423 0.82433 0.0
H2633 H 0.30477 0.77042 0.83607 0.0
N2634 N 0.18286 0.82019 0.80441 0.0
C2635 C 0.14846 0.77278 0.78801 0.0
C2636 C 0.27953 0.80296 0.83296 0.0
C2637 C 0.25307 0.69015 0.81115 0.0
C2638 C 0.30523 0.73109 0.83191 0.0
C2639 C 0.18202 0.71029 0.79163 0.0
H2640 H 0.19216 0.6398 0.77611 0.0
N2641 N 0.11327 0.83244 0.75764 0.0
C2642 C 0.12491 0.78339 0.76505 0.0
C2643 C 0.08239 0.75174 0.72753 0.0
C2644 C 0.12838 0.74531 0.74748 0.0
C2645 C 0.06866 0.84107 0.73855 0.0
C2646 C 0.04572 0.7989 0.7242 0.0
O2647 O 0.23949 0.01355 0.74989 0.0
O2648 O 0.12951 -0.03641 0.75272 0.0
O2649 O 0.11191 -0.0509 0.78836 0.0
O2650 O 0.10505 0.86807 0.79476 0.0
O2651 O 0.40137 -0.05453 0.78323 0.0
O2652 O 0.27947 -0.04036 0.79405 0.0
O2653 O 0.27769 0.82532 0.75581 0.0
O2654 O 0.39277 0.86642 0.74644 0.0
O2655 O 0.48312 -0.00347 0.75456 0.0
O2656 O 0.46445 -0.03041 0.71967 0.0
O2657 O 0.19726 -0.08446 0.72492 0.0
O2658 O 0.32376 -0.08543 0.71266 0.0
C2659 C 0.1576 0.01154 0.75059 0.0
C2660 C 0.35573 -0.04336 0.80114 0.0
C2661 C 0.9799 0.90817 0.79131 0.0
C2662 C 0.8012 -0.05551 0.75857 0.0
C2663 C 0.81492 0.85467 0.79142 0.0
C2664 C 0.9107 0.86011 0.79993 0.0
C2665 C 0.7626 0.89247 0.77317 0.0
C2666 C 0.95379 -0.04513 0.77224 0.0
C2667 C 0.06982 0.9115 0.79714 0.0
C2668 C 0.16883 0.69958 0.75045 0.0
C2669 C 0.17858 0.67891 0.77271 0.0
H2670 H 0.07748 0.72123 0.71441 0.0
C2671 C 0.35311 0.81956 0.74932 0.0
C2672 C 0.25046 -0.08285 0.70528 0.0
C2673 C 0.60087 -0.01876 0.73016 0.0
C2674 C 0.74159 -0.03487 0.74043 0.0
C2675 C 0.69617 -0.03311 0.6996 0.0
C2676 C 0.622 -0.02109 0.70669 0.0
C2677 C 0.75438 -0.04151 0.71597 0.0
C2678 C 0.66238 -0.02326 0.74738 0.0
C2679 C 0.51425 -0.00983 0.73412 0.0
H2680 H 0.78255 0.82154 0.79762 0.0
H2681 H 0.95103 0.88428 0.79617 0.0
H2682 H 0.70252 0.88898 0.77432 0.0
H2683 H -0.00131 -0.01813 0.7675 0.0
H2684 H 0.70738 -0.03591 0.681 0.0
H2685 H 0.58302 -0.00628 0.69372 0.0
H2686 H 0.80765 -0.05459 0.70834 0.0
H2687 H 0.64912 -0.01858 0.76588 0.0
loop_
_geom_bond_atom_site_label_1
_geom_bond_atom_site_label_2
_geom_bond_distance
_geom_bond_site_symmetry_2
_ccdc_geom_bond_type
C0 C2 1.422 . S
C0 C4 1.415 . S
C0 N6 1.369 . S
C1 C2 1.421 . S
C1 C3 1.417 . S
C1 C13 1.422 . S
C2 C0 1.422 . S
C2 C1 1.421 . S
C2 N12 1.359 . S
C3 C1 1.417 . S
C3 C5 1.329 . S
C3 H22 0.930 . S
C4 C0 1.415 . S
C4 C5 1.437 . S
C4 C8 1.413 . S
C5 C3 1.329 . S
C5 C4 1.437 . S
C5 H27 0.929 . S
N6 C0 1.369 . S
N6 C7 1.338 . S
N6 Gd11 2.622 . S
C7 N6 1.338 . S
C7 C9 1.378 . S
C7 H19 0.929 . S
C8 C4 1.413 . S
C8 C9 1.348 . S
C8 H24 0.931 . S
C9 C7 1.378 . S
C9 C8 1.348 . S
C9 H25 0.930 . S
Gd10 N30 2.622 . S
Gd10 N37 2.570 . S
Gd10 O44 2.353 . S
Gd10 O45 2.468 . S
Gd10 O46 2.427 . S
Gd10 O48 2.388 . S
Gd10 O49 2.386 . S
Gd10 O53 2.307 . S
Gd10 C63 2.805 . S
Gd11 N6 2.622 . S
Gd11 N12 2.570 . S
Gd11 O43 2.386 1_655 S
Gd11 O47 2.307 . S
Gd11 O50 2.353 . S
Gd11 O51 2.468 . S
Gd11 O52 2.427 . S
Gd11 O54 2.388 1_655 S
Gd11 C75 2.805 . S
N12 C2 1.359 . S
N12 Gd11 2.570 . S
N12 C14 1.343 . S
C13 C1 1.422 . S
C13 C15 1.321 . S
C13 H21 0.931 . S
C14 N12 1.343 . S
C14 C15 1.390 . S
C14 H16 0.931 . S
C15 C13 1.321 . S
C15 C14 1.390 . S
C15 H17 0.930 . S
H16 C14 0.931 . S
H17 C15 0.930 . S
H18 C41 0.931 . S
H19 C7 0.929 . S
H20 C42 0.930 . S
H21 C13 0.931 . S
H22 C3 0.930 . S
H23 C32 0.929 . S
H24 C8 0.931 . S
H25 C9 0.930 . S
H26 C64 0.930 . S
H27 C5 0.929 . S
H28 C33 0.931 . S
H29 C34 0.930 . S
N30 Gd10 2.622 . S
N30 C31 1.369 . S
N30 C32 1.338 1_554 S
C31 N30 1.369 . S
C31 C35 1.393 1_554 S
C31 C38 1.422 . S
C32 H23 0.929 . S
C32 N30 1.338 1_556 S
C32 C34 1.378 . S
C33 H28 0.931 . S
C33 C34 1.348 . S
C33 C35 1.444 . S
C34 H29 0.930 . S
C34 C32 1.378 . S
C34 C33 1.348 . S
C35 C31 1.393 1_556 S
C35 C33 1.444 . S
C35 C65 1.428 1_556 S
H36 C65 0.929 1_556 S
N37 Gd10 2.570 . S
N37 C38 1.359 . S
N37 C41 1.343 . S
C38 C31 1.422 . S
C38 N37 1.359 . S
C38 C40 1.421 . S
C39 C40 1.422 . S
C39 C42 1.321 . S
C39 H66 0.931 . S
C40 C38 1.421 . S
C40 C39 1.422 . S
C40 C64 1.417 . S
C41 H18 0.931 . S
C41 N37 1.343 . S
C41 C42 1.390 . S
C42 H20 0.930 . S
C42 C39 1.321 . S
C42 C41 1.390 . S
O43 Gd11 2.386 1_455 S
O43 C55 1.265 . S
O44 Gd10 2.353 . S
O44 C55 1.242 . S
O45 Gd10 2.468 . S
O45 C63 1.263 . S
O46 Gd10 2.427 . S
O46 C63 1.252 . S
O47 Gd11 2.307 . S
O47 C56 1.261 . S
O48 Gd10 2.388 . S
O48 C56 1.252 1_455 S
O49 Gd10 2.386 . S
O49 C67 1.265 1_455 S
O50 Gd11 2.353 . S
O50 C67 1.242 . S
O51 Gd11 2.468 . S
O51 C75 1.263 . S
O52 Gd11 2.427 . S
O52 C75 1.252 . S
O53 Gd10 2.307 . S
O53 C68 1.261 . S
O54 Gd11 2.388 1_455 S
O54 C68 1.252 . S
C55 O43 1.265 . S
C55 O44 1.242 . S
C56 O47 1.261 . S
C56 O48 1.252 1_655 S
C57 C60 1.394 . S
C57 C62 1.370 . S
C57 C63 1.500 . S
C58 C61 1.383 . S
C58 C62 1.395 . S
C59 C60 1.396 . S
C59 C61 1.365 . S
C59 H76 0.970 . S
C60 C57 1.394 . S
C60 C59 1.396 . S
C60 H77 0.930 . S
C61 C58 1.383 . S
C61 C59 1.365 . S
C61 H78 0.931 . S
C62 C57 1.370 . S
C62 C58 1.395 . S
C62 H79 0.930 . S
C63 Gd10 2.805 . S
C63 O45 1.263 . S
C63 O46 1.252 . S
C63 C57 1.500 . S
C64 H26 0.930 . S
C64 C40 1.417 . S
C64 C65 1.329 . S
C65 C35 1.428 1_554 S
C65 H36 0.929 1_554 S
C65 C64 1.329 . S
H66 C39 0.931 . S
C67 O49 1.265 1_655 S
C67 O50 1.242 . S
C68 O53 1.261 . S
C68 O54 1.252 . S
C69 C72 1.394 . S
C69 C74 1.370 . S
C69 C75 1.500 . S
C70 C73 1.383 . S
C70 C74 1.395 . S
C71 C72 1.396 . S
C71 C73 1.365 . S
C71 H80 0.929 . S
C72 C69 1.394 . S
C72 C71 1.396 . S
C72 H81 0.930 . S
C73 C70 1.383 . S
C73 C71 1.365 . S
C73 H82 0.931 . S
C74 C69 1.370 . S
C74 C70 1.395 . S
C74 H83 0.930 . S
C75 Gd11 2.805 . S
C75 O51 1.263 . S
C75 O52 1.252 . S
C75 C69 1.500 . S
H76 C59 0.970 . S
H77 C60 0.930 . S
H78 C61 0.931 . S
H79 C62 0.930 . S
H80 C71 0.929 . S
H81 C72 0.930 . S
H82 C73 0.931 . S
H83 C74 0.930 . S
C84 C86 1.422 . S
C84 C88 1.415 . S
C84 N90 1.369 . S
C85 C86 1.421 . S
C85 C87 1.417 . S
C85 C97 1.422 . S
C86 C84 1.422 . S
C86 C85 1.421 . S
C86 N96 1.359 . S
C87 C85 1.417 . S
C87 C89 1.329 . S
C87 H106 0.930 . S
C88 C84 1.415 . S
C88 C89 1.437 . S
C88 C92 1.413 . S
C89 C87 1.329 . S
C89 C88 1.437 . S
C89 H111 0.929 . S
N90 C84 1.369 . S
N90 C91 1.338 . S
N90 Gd95 2.622 . S
C91 N90 1.338 . S
C91 C93 1.378 . S
C91 H103 0.929 . S
C92 C88 1.413 . S
C92 C93 1.348 . S
C92 H108 0.931 . S
C93 C91 1.378 . S
C93 C92 1.348 . S
C93 H109 0.930 . S
Gd94 N114 2.622 . S
Gd94 N121 2.570 . S
Gd94 O128 2.353 . S
Gd94 O129 2.468 1_455 S
Gd94 O130 2.427 1_455 S
Gd94 O132 2.388 . S
Gd94 O133 2.386 . S
Gd94 O137 2.307 . S
Gd94 C147 2.805 1_455 S
Gd95 N90 2.622 . S
Gd95 N96 2.570 . S
Gd95 O127 2.386 . S
Gd95 O131 2.307 . S
Gd95 O134 2.353 . S
Gd95 O135 2.468 . S
Gd95 O136 2.427 . S
Gd95 O138 2.388 . S
Gd95 C159 2.805 . S
N96 C86 1.359 . S
N96 Gd95 2.570 . S
N96 C98 1.343 . S
C97 C85 1.422 . S
C97 C99 1.321 . S
C97 H105 0.931 . S
C98 N96 1.343 . S
C98 C99 1.390 . S
C98 H100 0.931 . S
C99 C97 1.321 . S
C99 C98 1.390 . S
C99 H101 0.930 . S
H100 C98 0.931 . S
H101 C99 0.930 . S
H102 C125 0.931 . S
H103 C91 0.929 . S
H104 C126 0.930 . S
H105 C97 0.931 . S
H106 C87 0.930 . S
H107 C116 0.929 . S
H108 C92 0.931 . S
H109 C93 0.930 . S
H110 C148 0.930 . S
H111 C89 0.929 . S
H112 C117 0.931 1_545 S
H113 C118 0.930 . S
N114 Gd94 2.622 . S
N114 C115 1.369 . S
N114 C116 1.338 1_554 S
C115 N114 1.369 . S
C115 C119 1.393 1_564 S
C115 C122 1.422 . S
C116 H107 0.929 . S
C116 N114 1.338 1_556 S
C116 C118 1.378 . S
C117 H112 0.931 1_565 S
C117 C118 1.348 . S
C117 C119 1.444 1_565 S
C118 H113 0.930 . S
C118 C116 1.378 . S
C118 C117 1.348 . S
C119 C115 1.393 1_546 S
C119 C117 1.444 1_545 S
C119 C149 1.428 1_556 S
H120 C149 0.929 1_556 S
N121 Gd94 2.570 . S
N121 C122 1.359 . S
N121 C125 1.343 . S
C122 C115 1.422 . S
C122 N121 1.359 . S
C122 C124 1.421 1_565 S
C123 C124 1.422 . S
C123 C126 1.321 . S
C123 H150 0.931 . S
C124 C122 1.421 1_545 S
C124 C123 1.422 . S
C124 C148 1.417 . S
C125 H102 0.931 . S
C125 N121 1.343 . S
C125 C126 1.390 1_565 S
C126 H104 0.930 . S
C126 C123 1.321 . S
C126 C125 1.390 1_545 S
O127 Gd95 2.386 . S
O127 C139 1.265 . S
O128 Gd94 2.353 . S
O128 C139 1.242 . S
O129 Gd94 2.468 1_655 S
O129 C147 1.263 . S
O130 Gd94 2.427 1_655 S
O130 C147 1.252 . S
O131 Gd95 2.307 . S
O131 C140 1.261 . S
O132 Gd94 2.388 . S
O132 C140 1.252 . S
O133 Gd94 2.386 . S
O133 C151 1.265 . S
O134 Gd95 2.353 . S
O134 C151 1.242 . S
O135 Gd95 2.468 . S
O135 C159 1.263 . S
O136 Gd95 2.427 . S
O136 C159 1.252 . S
O137 Gd94 2.307 . S
O137 C152 1.261 . S
O138 Gd95 2.388 . S
O138 C152 1.252 . S
C139 O127 1.265 . S
C139 O128 1.242 . S
C140 O131 1.261 . S
C140 O132 1.252 . S
C141 C144 1.394 . S
C141 C146 1.370 . S
C141 C147 1.500 . S
C142 C145 1.383 . S
C142 C146 1.395 . S
C143 C144 1.396 . S
C143 C145 1.365 . S
C143 H160 0.970 . S
C144 C141 1.394 . S
C144 C143 1.396 . S
C144 H161 0.930 . S
C145 C142 1.383 . S
C145 C143 1.365 . S
C145 H162 0.931 . S
C146 C141 1.370 . S
C146 C142 1.395 . S
C146 H163 0.930 . S
C147 Gd94 2.805 1_655 S
C147 O129 1.263 . S
C147 O130 1.252 . S
C147 C141 1.500 . S
C148 H110 0.930 . S
C148 C124 1.417 . S
C148 C149 1.329 . S
C149 C119 1.428 1_554 S
C149 H120 0.929 1_554 S
C149 C148 1.329 . S
H150 C123 0.931 . S
C151 O133 1.265 . S
C151 O134 1.242 . S
C152 O137 1.261 . S
C152 O138 1.252 . S
C153 C156 1.394 . S
C153 C158 1.370 . S
C153 C159 1.500 . S
C154 C157 1.383 . S
C154 C158 1.395 . S
C155 C156 1.396 . S
C155 C157 1.365 . S
C155 H164 0.929 . S
C156 C153 1.394 . S
C156 C155 1.396 . S
C156 H165 0.930 . S
C157 C154 1.383 . S
C157 C155 1.365 . S
C157 H166 0.931 . S
C158 C153 1.370 . S
C158 C154 1.395 . S
C158 H167 0.930 . S
C159 Gd95 2.805 . S
C159 O135 1.263 . S
C159 O136 1.252 . S
C159 C153 1.500 . S
H160 C143 0.970 . S
H161 C144 0.930 . S
H162 C145 0.931 . S
H163 C146 0.930 . S
H164 C155 0.929 . S
H165 C156 0.930 . S
H166 C157 0.931 . S
H167 C158 0.930 . S
C168 C170 1.422 . S
C168 C172 1.415 . S
C168 N174 1.369 . S
C169 C170 1.421 . S
C169 C171 1.417 . S
C169 C181 1.422 . S
C170 C168 1.422 . S
C170 C169 1.421 . S
C170 N180 1.359 . S
C171 C169 1.417 . S
C171 C173 1.329 . S
C171 H190 0.930 . S
C172 C168 1.415 . S
C172 C173 1.437 . S
C172 C176 1.413 . S
C173 C171 1.329 . S
C173 C172 1.437 . S
C173 H195 0.929 . S
N174 C168 1.369 . S
N174 C175 1.338 . S
N174 Gd179 2.622 . S
C175 N174 1.338 . S
C175 C177 1.378 . S
C175 H187 0.929 . S
C176 C172 1.413 . S
C176 C177 1.348 . S
C176 H192 0.931 . S
C177 C175 1.378 . S
C177 C176 1.348 . S
C177 H193 0.930 . S
Gd178 N198 2.622 . S
Gd178 N205 2.570 . S
Gd178 O212 2.353 . S
Gd178 O213 2.468 . S
Gd178 O214 2.427 . S
Gd178 O216 2.388 . S
Gd178 O217 2.386 . S
Gd178 O221 2.307 . S
Gd178 C231 2.805 . S
Gd179 N174 2.622 . S
Gd179 N180 2.570 . S
Gd179 O211 2.386 1_655 S
Gd179 O215 2.307 . S
Gd179 O218 2.353 . S
Gd179 O219 2.468 . S
Gd179 O220 2.427 . S
Gd179 O222 2.388 1_655 S
Gd179 C243 2.805 . S
N180 C170 1.359 . S
N180 Gd179 2.570 . S
N180 C182 1.343 . S
C181 C169 1.422 . S
C181 C183 1.321 . S
C181 H189 0.931 . S
C182 N180 1.343 . S
C182 C183 1.390 . S
C182 H184 0.931 . S
C183 C181 1.321 . S
C183 C182 1.390 . S
C183 H185 0.930 . S
H184 C182 0.931 . S
H185 C183 0.930 . S
H186 C209 0.931 . S
H187 C175 0.929 . S
H188 C210 0.930 . S
H189 C181 0.931 . S
H190 C171 0.930 . S
H191 C200 0.929 . S
H192 C176 0.931 . S
H193 C177 0.930 . S
H194 C232 0.930 . S
H195 C173 0.929 . S
H196 C201 0.931 1_545 S
H197 C202 0.930 . S
N198 Gd178 2.622 . S
N198 C199 1.369 . S
N198 C200 1.338 . S
C199 N198 1.369 . S
C199 C203 1.415 1_565 S
C199 C206 1.422 . S
C200 H191 0.929 . S
C200 N198 1.338 . S
C200 C202 1.378 . S
C201 H196 0.931 1_565 S
C201 C202 1.348 . S
C201 C203 1.413 1_565 S
C202 H197 0.930 . S
C202 C200 1.378 . S
C202 C201 1.348 . S
C203 C199 1.415 1_545 S
C203 C201 1.413 1_545 S
C203 C233 1.437 . S
H204 C233 0.929 . S
N205 Gd178 2.570 . S
N205 C206 1.359 . S
N205 C209 1.343 . S
C206 C199 1.422 . S
C206 N205 1.359 . S
C206 C208 1.421 1_565 S
C207 C208 1.422 . S
C207 C210 1.321 . S
C207 H234 0.931 . S
C208 C206 1.421 1_545 S
C208 C207 1.422 . S
C208 C232 1.417 . S
C209 H186 0.931 . S
C209 N205 1.343 . S
C209 C210 1.390 1_565 S
C210 H188 0.930 . S
C210 C207 1.321 . S
C210 C209 1.390 1_545 S
O211 Gd179 2.386 1_455 S
O211 C223 1.265 . S
O212 Gd178 2.353 . S
O212 C223 1.242 . S
O213 Gd178 2.468 . S
O213 C231 1.263 . S
O214 Gd178 2.427 . S
O214 C231 1.252 . S
O215 Gd179 2.307 . S
O215 C224 1.261 . S
O216 Gd178 2.388 . S
O216 C224 1.252 1_455 S
O217 Gd178 2.386 . S
O217 C235 1.265 1_455 S
O218 Gd179 2.353 . S
O218 C235 1.242 . S
O219 Gd179 2.468 . S
O219 C243 1.263 . S
O220 Gd179 2.427 . S
O220 C243 1.252 . S
O221 Gd178 2.307 . S
O221 C236 1.261 . S
O222 Gd179 2.388 1_455 S
O222 C236 1.252 . S
C223 O211 1.265 . S
C223 O212 1.242 . S
C224 O215 1.261 . S
C224 O216 1.252 1_655 S
C225 C228 1.394 . S
C225 C230 1.370 . S
C225 C231 1.500 . S
C226 C229 1.383 . S
C226 C230 1.395 . S
C227 C228 1.396 . S
C227 C229 1.365 . S
C227 H244 0.929 . S
C228 C225 1.394 . S
C228 C227 1.396 . S
C228 H245 0.930 . S
C229 C226 1.383 . S
C229 C227 1.365 . S
C229 H246 0.931 . S
C230 C225 1.370 . S
C230 C226 1.395 . S
C230 H247 0.930 . S
C231 Gd178 2.805 . S
C231 O213 1.263 . S
C231 O214 1.252 . S
C231 C225 1.500 . S
C232 H194 0.930 . S
C232 C208 1.417 . S
C232 C233 1.329 . S
C233 C203 1.437 . S
C233 H204 0.929 . S
C233 C232 1.329 . S
H234 C207 0.931 . S
C235 O217 1.265 1_655 S
C235 O218 1.242 . S
C236 O221 1.261 . S
C236 O222 1.252 . S
C237 C240 1.394 . S
C237 C242 1.370 . S
C237 C243 1.500 . S
C238 C241 1.383 . S
C238 C242 1.395 . S
C239 C240 1.396 . S
C239 C241 1.365 . S
C239 H248 0.929 . S
C240 C237 1.394 . S
C240 C239 1.396 . S
C240 H249 0.930 . S
C241 C238 1.383 . S
C241 C239 1.365 . S
C241 H250 0.931 . S
C242 C237 1.370 . S
C242 C238 1.395 . S
C242 H251 0.930 . S
C243 Gd179 2.805 . S
C243 O219 1.263 . S
C243 O220 1.252 . S
C243 C237 1.500 . S
H244 C227 0.929 . S
H245 C228 0.930 . S
H246 C229 0.931 . S
H247 C230 0.930 . S
H248 C239 0.929 . S
H249 C240 0.930 . S
H250 C241 0.931 . S
H251 C242 0.930 . S
C252 C254 1.422 . S
C252 C256 1.415 . S
C252 N258 1.369 . S
C253 C254 1.421 . S
C253 C255 1.417 . S
C253 C265 1.422 . S
C254 C252 1.422 . S
C254 C253 1.421 . S
C254 N264 1.359 . S
C255 C253 1.417 . S
C255 C257 1.329 . S
C255 H274 0.930 . S
C256 C252 1.415 . S
C256 C257 1.437 . S
C256 C260 1.413 . S
C257 C255 1.329 . S
C257 C256 1.437 . S
C257 H279 0.929 . S
N258 C252 1.369 . S
N258 C259 1.338 . S
N258 Gd263 2.622 . S
C259 N258 1.338 . S
C259 C261 1.378 . S
C259 H271 0.929 . S
C260 C256 1.413 . S
C260 C261 1.348 . S
C260 H276 0.931 . S
C261 C259 1.378 . S
C261 C260 1.348 . S
C261 H277 0.930 . S
Gd262 N282 2.622 . S
Gd262 N289 2.570 . S
Gd262 O296 2.353 . S
Gd262 O297 2.468 1_455 S
Gd262 O298 2.427 1_455 S
Gd262 O300 2.388 . S
Gd262 O301 2.386 . S
Gd262 O305 2.307 . S
Gd262 C315 2.805 1_455 S
Gd263 N258 2.622 . S
Gd263 N264 2.570 . S
Gd263 O295 2.386 . S
Gd263 O299 2.307 . S
Gd263 O302 2.353 . S
Gd263 O303 2.468 . S
Gd263 O304 2.427 . S
Gd263 O306 2.388 . S
Gd263 C327 2.805 . S
N264 C254 1.359 . S
N264 Gd263 2.570 . S
N264 C266 1.343 . S
C265 C253 1.422 . S
C265 C267 1.321 . S
C265 H273 0.931 . S
C266 N264 1.343 . S
C266 C267 1.390 . S
C266 H268 0.931 . S
C267 C265 1.321 . S
C267 C266 1.390 . S
C267 H269 0.930 . S
H268 C266 0.931 . S
H269 C267 0.930 . S
H270 C293 0.931 . S
H271 C259 0.929 . S
H272 C294 0.930 . S
H273 C265 0.931 . S
H274 C255 0.930 . S
H275 C284 0.929 . S
H276 C260 0.931 . S
H277 C261 0.930 . S
H278 C316 0.930 . S
H279 C257 0.929 . S
H280 C285 0.931 . S
H281 C286 0.930 . S
N282 Gd262 2.622 . S
N282 C283 1.369 . S
N282 C284 1.338 . S
C283 N282 1.369 . S
C283 C287 1.415 . S
C283 C290 1.422 . S
C284 H275 0.929 . S
C284 N282 1.338 . S
C284 C286 1.378 . S
C285 H280 0.931 . S
C285 C286 1.348 . S
C285 C287 1.413 . S
C286 H281 0.930 . S
C286 C284 1.378 . S
C286 C285 1.348 . S
C287 C283 1.415 . S
C287 C285 1.413 . S
C287 C317 1.437 . S
H288 C317 0.929 . S
N289 Gd262 2.570 . S
N289 C290 1.359 . S
N289 C293 1.343 . S
C290 C283 1.422 . S
C290 N289 1.359 . S
C290 C292 1.421 . S
C291 C292 1.422 . S
C291 C294 1.321 . S
C291 H318 0.931 . S
C292 C290 1.421 . S
C292 C291 1.422 . S
C292 C316 1.417 . S
C293 H270 0.931 . S
C293 N289 1.343 . S
C293 C294 1.390 . S
C294 H272 0.930 . S
C294 C291 1.321 . S
C294 C293 1.390 . S
O295 Gd263 2.386 . S
O295 C307 1.265 . S
O296 Gd262 2.353 . S
O296 C307 1.242 . S
O297 Gd262 2.468 1_655 S
O297 C315 1.263 . S
O298 Gd262 2.427 1_655 S
O298 C315 1.252 . S
O299 Gd263 2.307 . S
O299 C308 1.261 . S
O300 Gd262 2.388 . S
O300 C308 1.252 . S
O301 Gd262 2.386 . S
O301 C319 1.265 . S
O302 Gd263 2.353 . S
O302 C319 1.242 . S
O303 Gd263 2.468 . S
O303 C327 1.263 . S
O304 Gd263 2.427 . S
O304 C327 1.252 . S
O305 Gd262 2.307 . S
O305 C320 1.261 . S
O306 Gd263 2.388 . S
O306 C320 1.252 . S
C307 O295 1.265 . S
C307 O296 1.242 . S
C308 O299 1.261 . S
C308 O300 1.252 . S
C309 C312 1.394 . S
C309 C314 1.370 . S
C309 C315 1.500 . S
C310 C313 1.383 . S
C310 C314 1.395 . S
C311 C312 1.396 . S
C311 C313 1.365 . S
C311 H328 0.929 . S
C312 C309 1.394 . S
C312 C311 1.396 . S
C312 H329 0.930 . S
C313 C310 1.383 . S
C313 C311 1.365 . S
C313 H330 0.931 . S
C314 C309 1.370 . S
C314 C310 1.395 . S
C314 H331 0.930 . S
C315 Gd262 2.805 1_655 S
C315 O297 1.263 . S
C315 O298 1.252 . S
C315 C309 1.500 . S
C316 H278 0.930 . S
C316 C292 1.417 . S
C316 C317 1.329 . S
C317 C287 1.437 . S
C317 H288 0.929 . S
C317 C316 1.329 . S
H318 C291 0.931 . S
C319 O301 1.265 . S
C319 O302 1.242 . S
C320 O305 1.261 . S
C320 O306 1.252 . S
C321 C324 1.394 . S
C321 C326 1.370 . S
C321 C327 1.500 . S
C322 C325 1.383 . S
C322 C326 1.395 . S
C323 C324 1.396 . S
C323 C325 1.365 . S
C323 H332 0.929 . S
C324 C321 1.394 . S
C324 C323 1.396 . S
C324 H333 0.930 . S
C325 C322 1.383 . S
C325 C323 1.365 . S
C325 H334 0.931 . S
C326 C321 1.370 . S
C326 C322 1.395 . S
C326 H335 0.930 . S
C327 Gd263 2.805 . S
C327 O303 1.263 . S
C327 O304 1.252 . S
C327 C321 1.500 . S
H328 C311 0.929 . S
H329 C312 0.930 . S
H330 C313 0.931 . S
H331 C314 0.930 . S
H332 C323 0.929 . S
H333 C324 0.930 . S
H334 C325 0.931 . S
H335 C326 0.930 . S
C336 C338 1.422 . S
C336 C340 1.393 1_556 S
C336 N342 1.369 . S
C337 C338 1.421 . S
C337 C339 1.417 . S
C337 C349 1.422 . S
C338 C336 1.422 . S
C338 C337 1.421 . S
C338 N348 1.359 . S
C339 C337 1.417 . S
C339 C341 1.329 . S
C339 H358 0.930 . S
C340 C336 1.393 1_554 S
C340 C341 1.428 1_554 S
C340 C344 1.444 . S
C341 C339 1.329 . S
C341 C340 1.428 1_556 S
C341 H363 0.929 1_556 S
N342 C336 1.369 . S
N342 C343 1.338 1_556 S
N342 Gd347 2.622 . S
C343 N342 1.338 1_554 S
C343 C345 1.378 . S
C343 H355 0.929 . S
C344 C340 1.444 . S
C344 C345 1.348 . S
C344 H360 0.931 . S
C345 C343 1.378 . S
C345 C344 1.348 . S
C345 H361 0.930 . S
Gd346 N366 2.622 . S
Gd346 N373 2.570 . S
Gd346 O380 2.353 . S
Gd346 O381 2.468 . S
Gd346 O382 2.427 . S
Gd346 O384 2.388 1_455 S
Gd346 O385 2.386 1_455 S
Gd346 O389 2.307 . S
Gd346 C399 2.805 . S
Gd347 N342 2.622 . S
Gd347 N348 2.570 . S
Gd347 O379 2.386 . S
Gd347 O383 2.307 . S
Gd347 O386 2.353 . S
Gd347 O387 2.468 . S
Gd347 O388 2.427 . S
Gd347 O390 2.388 . S
Gd347 C411 2.805 . S
N348 C338 1.359 . S
N348 Gd347 2.570 . S
N348 C350 1.343 . S
C349 C337 1.422 . S
C349 C351 1.321 . S
C349 H357 0.931 . S
C350 N348 1.343 . S
C350 C351 1.390 . S
C350 H352 0.931 . S
C351 C349 1.321 . S
C351 C350 1.390 . S
C351 H353 0.930 . S
H352 C350 0.931 . S
H353 C351 0.930 . S
H354 C377 0.931 . S
H355 C343 0.929 . S
H356 C378 0.930 . S
H357 C349 0.931 . S
H358 C339 0.930 . S
H359 C368 0.929 . S
H360 C344 0.931 . S
H361 C345 0.930 . S
H362 C400 0.930 . S
H363 C341 0.929 1_554 S
H364 C369 0.931 . S
H365 C370 0.930 . S
N366 Gd346 2.622 . S
N366 C367 1.369 . S
N366 C368 1.338 . S
C367 N366 1.369 . S
C367 C371 1.415 . S
C367 C374 1.422 . S
C368 H359 0.929 . S
C368 N366 1.338 . S
C368 C370 1.378 . S
C369 H364 0.931 . S
C369 C370 1.348 . S
C369 C371 1.413 . S
C370 H365 0.930 . S
C370 C368 1.378 . S
C370 C369 1.348 . S
C371 C367 1.415 . S
C371 C369 1.413 . S
C371 C401 1.437 . S
H372 C401 0.929 . S
N373 Gd346 2.570 . S
N373 C374 1.359 . S
N373 C377 1.343 . S
C374 C367 1.422 . S
C374 N373 1.359 . S
C374 C376 1.421 . S
C375 C376 1.422 . S
C375 C378 1.321 . S
C375 H402 0.931 . S
C376 C374 1.421 . S
C376 C375 1.422 . S
C376 C400 1.417 . S
C377 H354 0.931 . S
C377 N373 1.343 . S
C377 C378 1.390 . S
C378 H356 0.930 . S
C378 C375 1.321 . S
C378 C377 1.390 . S
O379 Gd347 2.386 . S
O379 C391 1.265 1_655 S
O380 Gd346 2.353 . S
O380 C391 1.242 . S
O381 Gd346 2.468 . S
O381 C399 1.263 . S
O382 Gd346 2.427 . S
O382 C399 1.252 . S
O383 Gd347 2.307 . S
O383 C392 1.261 . S
O384 Gd346 2.388 1_655 S
O384 C392 1.252 . S
O385 Gd346 2.386 1_655 S
O385 C403 1.265 . S
O386 Gd347 2.353 . S
O386 C403 1.242 . S
O387 Gd347 2.468 . S
O387 C411 1.263 . S
O388 Gd347 2.427 . S
O388 C411 1.252 . S
O389 Gd346 2.307 . S
O389 C404 1.261 . S
O390 Gd347 2.388 . S
O390 C404 1.252 1_655 S
C391 O379 1.265 1_455 S
C391 O380 1.242 . S
C392 O383 1.261 . S
C392 O384 1.252 . S
C393 C396 1.394 . S
C393 C398 1.370 . S
C393 C399 1.500 . S
C394 C397 1.383 . S
C394 C398 1.395 . S
C395 C396 1.396 . S
C395 C397 1.365 . S
C395 H412 0.929 . S
C396 C393 1.394 . S
C396 C395 1.396 . S
C396 H413 0.930 . S
C397 C394 1.383 . S
C397 C395 1.365 . S
C397 H414 0.931 . S
C398 C393 1.370 . S
C398 C394 1.395 . S
C398 H415 0.930 . S
C399 Gd346 2.805 . S
C399 O381 1.263 . S
C399 O382 1.252 . S
C399 C393 1.500 . S
C400 H362 0.930 . S
C400 C376 1.417 . S
C400 C401 1.329 . S
C401 C371 1.437 . S
C401 H372 0.929 . S
C401 C400 1.329 . S
H402 C375 0.931 . S
C403 O385 1.265 . S
C403 O386 1.242 . S
C404 O389 1.261 . S
C404 O390 1.252 1_455 S
C405 C408 1.394 . S
C405 C410 1.370 . S
C405 C411 1.500 . S
C406 C409 1.383 . S
C406 C410 1.395 . S
C407 C408 1.396 . S
C407 C409 1.365 . S
C407 H416 0.970 . S
C408 C405 1.394 . S
C408 C407 1.396 . S
C408 H417 0.930 . S
C409 C406 1.383 . S
C409 C407 1.365 . S
C409 H418 0.931 . S
C410 C405 1.370 . S
C410 C406 1.395 . S
C410 H419 0.930 . S
C411 Gd347 2.805 . S
C411 O387 1.263 . S
C411 O388 1.252 . S
C411 C405 1.500 . S
H412 C395 0.929 . S
H413 C396 0.930 . S
H414 C397 0.931 . S
H415 C398 0.930 . S
H416 C407 0.970 . S
H417 C408 0.930 . S
H418 C409 0.931 . S
H419 C410 0.930 . S
C420 C422 1.422 . S
C420 C424 1.393 1_546 S
C420 N426 1.369 . S
C421 C422 1.421 1_565 S
C421 C423 1.417 . S
C421 C433 1.422 . S
C422 C420 1.422 . S
C422 C421 1.421 1_545 S
C422 N432 1.359 . S
C423 C421 1.417 . S
C423 C425 1.329 . S
C423 H442 0.930 . S
C424 C420 1.393 1_564 S
C424 C425 1.428 1_554 S
C424 C428 1.444 1_565 S
C425 C423 1.329 . S
C425 C424 1.428 1_556 S
C425 H447 0.929 1_556 S
N426 C420 1.369 . S
N426 C427 1.338 1_556 S
N426 Gd431 2.622 . S
C427 N426 1.338 1_554 S
C427 C429 1.378 . S
C427 H439 0.929 . S
C428 C424 1.444 1_545 S
C428 C429 1.348 . S
C428 H444 0.931 1_545 S
C429 C427 1.378 . S
C429 C428 1.348 . S
C429 H445 0.930 . S
Gd430 N450 2.622 . S
Gd430 N457 2.570 . S
Gd430 O464 2.353 . S
Gd430 O465 2.468 . S
Gd430 O466 2.427 . S
Gd430 O468 2.388 . S
Gd430 O469 2.386 . S
Gd430 O473 2.307 . S
Gd430 C483 2.805 . S
Gd431 N426 2.622 . S
Gd431 N432 2.570 . S
Gd431 O463 2.386 . S
Gd431 O467 2.307 . S
Gd431 O470 2.353 . S
Gd431 O471 2.468 1_655 S
Gd431 O472 2.427 1_655 S
Gd431 O474 2.388 . S
Gd431 C495 2.805 1_655 S
N432 C422 1.359 . S
N432 Gd431 2.570 . S
N432 C434 1.343 . S
C433 C421 1.422 . S
C433 C435 1.321 . S
C433 H441 0.931 . S
C434 N432 1.343 . S
C434 C435 1.390 1_545 S
C434 H436 0.931 . S
C435 C433 1.321 . S
C435 C434 1.390 1_565 S
C435 H437 0.930 . S
H436 C434 0.931 . S
H437 C435 0.930 . S
H438 C461 0.931 . S
H439 C427 0.929 . S
H440 C462 0.930 . S
H441 C433 0.931 . S
H442 C423 0.930 . S
H443 C452 0.929 . S
H444 C428 0.931 1_565 S
H445 C429 0.930 . S
H446 C484 0.930 . S
H447 C425 0.929 1_554 S
H448 C453 0.931 . S
H449 C454 0.930 . S
N450 Gd430 2.622 . S
N450 C451 1.369 . S
N450 C452 1.338 . S
C451 N450 1.369 . S
C451 C455 1.415 . S
C451 C458 1.422 . S
C452 H443 0.929 . S
C452 N450 1.338 . S
C452 C454 1.378 . S
C453 H448 0.931 . S
C453 C454 1.348 . S
C453 C455 1.413 . S
C454 H449 0.930 . S
C454 C452 1.378 . S
C454 C453 1.348 . S
C455 C451 1.415 . S
C455 C453 1.413 . S
C455 C485 1.437 . S
H456 C485 0.929 . S
N457 Gd430 2.570 . S
N457 C458 1.359 . S
N457 C461 1.343 . S
C458 C451 1.422 . S
C458 N457 1.359 . S
C458 C460 1.421 . S
C459 C460 1.422 . S
C459 C462 1.321 . S
C459 H486 0.931 . S
C460 C458 1.421 . S
C460 C459 1.422 . S
C460 C484 1.417 . S
C461 H438 0.931 . S
C461 N457 1.343 . S
C461 C462 1.390 . S
C462 H440 0.930 . S
C462 C459 1.321 . S
C462 C461 1.390 . S
O463 Gd431 2.386 . S
O463 C475 1.265 . S
O464 Gd430 2.353 . S
O464 C475 1.242 . S
O465 Gd430 2.468 . S
O465 C483 1.263 . S
O466 Gd430 2.427 . S
O466 C483 1.252 . S
O467 Gd431 2.307 . S
O467 C476 1.261 . S
O468 Gd430 2.388 . S
O468 C476 1.252 . S
O469 Gd430 2.386 . S
O469 C487 1.265 . S
O470 Gd431 2.353 . S
O470 C487 1.242 . S
O471 Gd431 2.468 1_455 S
O471 C495 1.263 . S
O472 Gd431 2.427 1_455 S
O472 C495 1.252 . S
O473 Gd430 2.307 . S
O473 C488 1.261 . S
O474 Gd431 2.388 . S
O474 C488 1.252 . S
C475 O463 1.265 . S
C475 O464 1.242 . S
C476 O467 1.261 . S
C476 O468 1.252 . S
C477 C480 1.394 . S
C477 C482 1.370 . S
C477 C483 1.500 . S
C478 C481 1.383 . S
C478 C482 1.395 . S
C479 C480 1.396 . S
C479 C481 1.365 . S
C479 H496 0.929 . S
C480 C477 1.394 . S
C480 C479 1.396 . S
C480 H497 0.930 . S
C481 C478 1.383 . S
C481 C479 1.365 . S
C481 H498 0.931 . S
C482 C477 1.370 . S
C482 C478 1.395 . S
C482 H499 0.930 . S
C483 Gd430 2.805 . S
C483 O465 1.263 . S
C483 O466 1.252 . S
C483 C477 1.500 . S
C484 H446 0.930 . S
C484 C460 1.417 . S
C484 C485 1.329 . S
C485 C455 1.437 . S
C485 H456 0.929 . S
C485 C484 1.329 . S
H486 C459 0.931 . S
C487 O469 1.265 . S
C487 O470 1.242 . S
C488 O473 1.261 . S
C488 O474 1.252 . S
C489 C492 1.394 . S
C489 C494 1.370 . S
C489 C495 1.500 . S
C490 C493 1.383 . S
C490 C494 1.395 . S
C491 C492 1.396 . S
C491 C493 1.365 . S
C491 H500 0.970 . S
C492 C489 1.394 . S
C492 C491 1.396 . S
C492 H501 0.930 . S
C493 C490 1.383 . S
C493 C491 1.365 . S
C493 H502 0.931 . S
C494 C489 1.370 . S
C494 C490 1.395 . S
C494 H503 0.930 . S
C495 Gd431 2.805 1_455 S
C495 O471 1.263 . S
C495 O472 1.252 . S
C495 C489 1.500 . S
H496 C479 0.929 . S
H497 C480 0.930 . S
H498 C481 0.931 . S
H499 C482 0.930 . S
H500 C491 0.970 . S
H501 C492 0.930 . S
H502 C493 0.931 . S
H503 C494 0.930 . S
C504 C506 1.422 . S
C504 C508 1.415 1_545 S
C504 N510 1.369 . S
C505 C506 1.421 1_565 S
C505 C507 1.417 . S
C505 C517 1.422 . S
C506 C504 1.422 . S
C506 C505 1.421 1_545 S
C506 N516 1.359 . S
C507 C505 1.417 . S
C507 C509 1.329 . S
C507 H526 0.930 . S
C508 C504 1.415 1_565 S
C508 C509 1.437 . S
C508 C512 1.413 1_565 S
C509 C507 1.329 . S
C509 C508 1.437 . S
C509 H531 0.929 . S
N510 C504 1.369 . S
N510 C511 1.338 . S
N510 Gd515 2.622 . S
C511 N510 1.338 . S
C511 C513 1.378 . S
C511 H523 0.929 . S
C512 C508 1.413 1_545 S
C512 C513 1.348 . S
C512 H528 0.931 1_545 S
C513 C511 1.378 . S
C513 C512 1.348 . S
C513 H529 0.930 . S
Gd514 N534 2.622 . S
Gd514 N541 2.570 . S
Gd514 O548 2.353 . S
Gd514 O549 2.468 . S
Gd514 O550 2.427 . S
Gd514 O552 2.388 1_455 S
Gd514 O553 2.386 1_455 S
Gd514 O557 2.307 . S
Gd514 C567 2.805 . S
Gd515 N510 2.622 . S
Gd515 N516 2.570 . S
Gd515 O547 2.386 . S
Gd515 O551 2.307 . S
Gd515 O554 2.353 . S
Gd515 O555 2.468 . S
Gd515 O556 2.427 . S
Gd515 O558 2.388 . S
Gd515 C579 2.805 . S
N516 C506 1.359 . S
N516 Gd515 2.570 . S
N516 C518 1.343 . S
C517 C505 1.422 . S
C517 C519 1.321 . S
C517 H525 0.931 . S
C518 N516 1.343 . S
C518 C519 1.390 1_545 S
C518 H520 0.931 . S
C519 C517 1.321 . S
C519 C518 1.390 1_565 S
C519 H521 0.930 . S
H520 C518 0.931 . S
H521 C519 0.930 . S
H522 C545 0.931 . S
H523 C511 0.929 . S
H524 C546 0.930 . S
H525 C517 0.931 . S
H526 C507 0.930 . S
H527 C536 0.929 . S
H528 C512 0.931 1_565 S
H529 C513 0.930 . S
H530 C568 0.930 . S
H531 C509 0.929 . S
H532 C537 0.931 . S
H533 C538 0.930 . S
N534 Gd514 2.622 . S
N534 C535 1.369 . S
N534 C536 1.338 . S
C535 N534 1.369 . S
C535 C539 1.415 . S
C535 C542 1.422 . S
C536 H527 0.929 . S
C536 N534 1.338 . S
C536 C538 1.378 . S
C537 H532 0.931 . S
C537 C538 1.348 . S
C537 C539 1.413 . S
C538 H533 0.930 . S
C538 C536 1.378 . S
C538 C537 1.348 . S
C539 C535 1.415 . S
C539 C537 1.413 . S
C539 C569 1.437 . S
H540 C569 0.929 . S
N541 Gd514 2.570 . S
N541 C542 1.359 . S
N541 C545 1.343 . S
C542 C535 1.422 . S
C542 N541 1.359 . S
C542 C544 1.421 . S
C543 C544 1.422 . S
C543 C546 1.321 . S
C543 H570 0.931 . S
C544 C542 1.421 . S
C544 C543 1.422 . S
C544 C568 1.417 . S
C545 H522 0.931 . S
C545 N541 1.343 . S
C545 C546 1.390 . S
C546 H524 0.930 . S
C546 C543 1.321 . S
C546 C545 1.390 . S
O547 Gd515 2.386 . S
O547 C559 1.265 1_655 S
O548 Gd514 2.353 . S
O548 C559 1.242 . S
O549 Gd514 2.468 . S
O549 C567 1.263 . S
O550 Gd514 2.427 . S
O550 C567 1.252 . S
O551 Gd515 2.307 . S
O551 C560 1.261 . S
O552 Gd514 2.388 1_655 S
O552 C560 1.252 . S
O553 Gd514 2.386 1_655 S
O553 C571 1.265 . S
O554 Gd515 2.353 . S
O554 C571 1.242 . S
O555 Gd515 2.468 . S
O555 C579 1.263 . S
O556 Gd515 2.427 . S
O556 C579 1.252 . S
O557 Gd514 2.307 . S
O557 C572 1.261 . S
O558 Gd515 2.388 . S
O558 C572 1.252 1_655 S
C559 O547 1.265 1_455 S
C559 O548 1.242 . S
C560 O551 1.261 . S
C560 O552 1.252 . S
C561 C564 1.394 . S
C561 C566 1.370 . S
C561 C567 1.500 . S
C562 C565 1.383 . S
C562 C566 1.395 . S
C563 C564 1.396 . S
C563 C565 1.365 . S
C563 H580 0.929 . S
C564 C561 1.394 . S
C564 C563 1.396 . S
C564 H581 0.930 . S
C565 C562 1.383 . S
C565 C563 1.365 . S
C565 H582 0.931 . S
C566 C561 1.370 . S
C566 C562 1.395 . S
C566 H583 0.930 . S
C567 Gd514 2.805 . S
C567 O549 1.263 . S
C567 O550 1.252 . S
C567 C561 1.500 . S
C568 H530 0.930 . S
C568 C544 1.417 . S
C568 C569 1.329 . S
C569 C539 1.437 . S
C569 H540 0.929 . S
C569 C568 1.329 . S
H570 C543 0.931 . S
C571 O553 1.265 . S
C571 O554 1.242 . S
C572 O557 1.261 . S
C572 O558 1.252 1_455 S
C573 C576 1.394 . S
C573 C578 1.370 . S
C573 C579 1.500 . S
C574 C577 1.383 . S
C574 C578 1.395 . S
C575 C576 1.396 . S
C575 C577 1.365 . S
C575 H584 0.929 . S
C576 C573 1.394 . S
C576 C575 1.396 . S
C576 H585 0.930 . S
C577 C574 1.383 . S
C577 C575 1.365 . S
C577 H586 0.931 . S
C578 C573 1.370 . S
C578 C574 1.395 . S
C578 H587 0.930 . S
C579 Gd515 2.805 . S
C579 O555 1.263 . S
C579 O556 1.252 . S
C579 C573 1.500 . S
H580 C563 0.929 . S
H581 C564 0.930 . S
H582 C565 0.931 . S
H583 C566 0.930 . S
H584 C575 0.929 . S
H585 C576 0.930 . S
H586 C577 0.931 . S
H587 C578 0.930 . S
C588 C590 1.422 . S
C588 C592 1.415 . S
C588 N594 1.369 . S
C589 C590 1.421 . S
C589 C591 1.417 . S
C589 C601 1.422 . S
C590 C588 1.422 . S
C590 C589 1.421 . S
C590 N600 1.359 . S
C591 C589 1.417 . S
C591 C593 1.329 . S
C591 H610 0.930 . S
C592 C588 1.415 . S
C592 C593 1.437 . S
C592 C596 1.413 . S
C593 C591 1.329 . S
C593 C592 1.437 . S
C593 H615 0.929 . S
N594 C588 1.369 . S
N594 C595 1.338 . S
N594 Gd599 2.622 . S
C595 N594 1.338 . S
C595 C597 1.378 . S
C595 H607 0.929 . S
C596 C592 1.413 . S
C596 C597 1.348 . S
C596 H612 0.931 . S
C597 C595 1.378 . S
C597 C596 1.348 . S
C597 H613 0.930 . S
Gd598 N618 2.622 . S
Gd598 N625 2.570 . S
Gd598 O632 2.353 . S
Gd598 O633 2.468 . S
Gd598 O634 2.427 . S
Gd598 O636 2.388 . S
Gd598 O637 2.386 . S
Gd598 O641 2.307 . S
Gd598 C651 2.805 . S
Gd599 N594 2.622 . S
Gd599 N600 2.570 . S
Gd599 O631 2.386 . S
Gd599 O635 2.307 . S
Gd599 O638 2.353 . S
Gd599 O639 2.468 1_655 S
Gd599 O640 2.427 1_655 S
Gd599 O642 2.388 . S
Gd599 C663 2.805 1_655 S
N600 C590 1.359 . S
N600 Gd599 2.570 . S
N600 C602 1.343 . S
C601 C589 1.422 . S
C601 C603 1.321 . S
C601 H609 0.931 . S
C602 N600 1.343 . S
C602 C603 1.390 . S
C602 H604 0.931 . S
C603 C601 1.321 . S
C603 C602 1.390 . S
C603 H605 0.930 . S
H604 C602 0.931 . S
H605 C603 0.930 . S
H606 C629 0.931 . S
H607 C595 0.929 . S
H608 C630 0.930 . S
H609 C601 0.931 . S
H610 C591 0.930 . S
H611 C620 0.929 . S
H612 C596 0.931 . S
H613 C597 0.930 . S
H614 C652 0.930 . S
H615 C593 0.929 . S
H616 C621 0.931 . S
H617 C622 0.930 . S
N618 Gd598 2.622 . S
N618 C619 1.369 . S
N618 C620 1.338 . S
C619 N618 1.369 . S
C619 C623 1.415 . S
C619 C626 1.422 . S
C620 H611 0.929 . S
C620 N618 1.338 . S
C620 C622 1.378 . S
C621 H616 0.931 . S
C621 C622 1.348 . S
C621 C623 1.413 . S
C622 H617 0.930 . S
C622 C620 1.378 . S
C622 C621 1.348 . S
C623 C619 1.415 . S
C623 C621 1.413 . S
C623 C653 1.437 . S
H624 C653 0.929 . S
N625 Gd598 2.570 . S
N625 C626 1.359 . S
N625 C629 1.343 . S
C626 C619 1.422 . S
C626 N625 1.359 . S
C626 C628 1.421 . S
C627 C628 1.422 . S
C627 C630 1.321 . S
C627 H654 0.931 . S
C628 C626 1.421 . S
C628 C627 1.422 . S
C628 C652 1.417 . S
C629 H606 0.931 . S
C629 N625 1.343 . S
C629 C630 1.390 . S
C630 H608 0.930 . S
C630 C627 1.321 . S
C630 C629 1.390 . S
O631 Gd599 2.386 . S
O631 C643 1.265 . S
O632 Gd598 2.353 . S
O632 C643 1.242 . S
O633 Gd598 2.468 . S
O633 C651 1.263 . S
O634 Gd598 2.427 . S
O634 C651 1.252 . S
O635 Gd599 2.307 . S
O635 C644 1.261 . S
O636 Gd598 2.388 . S
O636 C644 1.252 . S
O637 Gd598 2.386 . S
O637 C655 1.265 . S
O638 Gd599 2.353 . S
O638 C655 1.242 . S
O639 Gd599 2.468 1_455 S
O639 C663 1.263 . S
O640 Gd599 2.427 1_455 S
O640 C663 1.252 . S
O641 Gd598 2.307 . S
O641 C656 1.261 . S
O642 Gd599 2.388 . S
O642 C656 1.252 . S
C643 O631 1.265 . S
C643 O632 1.242 . S
C644 O635 1.261 . S
C644 O636 1.252 . S
C645 C648 1.394 . S
C645 C650 1.370 . S
C645 C651 1.500 . S
C646 C649 1.383 . S
C646 C650 1.395 . S
C647 C648 1.396 . S
C647 C649 1.365 . S
C647 H664 0.929 . S
C648 C645 1.394 . S
C648 C647 1.396 . S
C648 H665 0.930 . S
C649 C646 1.383 . S
C649 C647 1.365 . S
C649 H666 0.931 . S
C650 C645 1.370 . S
C650 C646 1.395 . S
C650 H667 0.930 . S
C651 Gd598 2.805 . S
C651 O633 1.263 . S
C651 O634 1.252 . S
C651 C645 1.500 . S
C652 H614 0.930 . S
C652 C628 1.417 . S
C652 C653 1.329 . S
C653 C623 1.437 . S
C653 H624 0.929 . S
C653 C652 1.329 . S
H654 C627 0.931 . S
C655 O637 1.265 . S
C655 O638 1.242 . S
C656 O641 1.261 . S
C656 O642 1.252 . S
C657 C660 1.394 . S
C657 C662 1.370 . S
C657 C663 1.500 . S
C658 C661 1.383 . S
C658 C662 1.395 . S
C659 C660 1.396 . S
C659 C661 1.365 . S
C659 H668 0.929 . S
C660 C657 1.394 . S
C660 C659 1.396 . S
C660 H669 0.930 . S
C661 C658 1.383 . S
C661 C659 1.365 . S
C661 H670 0.931 . S
C662 C657 1.370 . S
C662 C658 1.395 . S
C662 H671 0.930 . S
C663 Gd599 2.805 1_455 S
C663 O639 1.263 . S
C663 O640 1.252 . S
C663 C657 1.500 . S
H664 C647 0.929 . S
H665 C648 0.930 . S
H666 C649 0.931 . S
H667 C650 0.930 . S
H668 C659 0.929 . S
H669 C660 0.930 . S
H670 C661 0.931 . S
H671 C662 0.930 . S
C672 C674 1.422 . S
C672 C676 1.415 . S
C672 N678 1.369 . S
C673 C674 1.421 . S
C673 C675 1.417 . S
C673 C685 1.422 . S
C674 C672 1.422 . S
C674 C673 1.421 . S
C674 N684 1.359 . S
C675 C673 1.417 . S
C675 C677 1.329 . S
C675 H694 0.930 . S
C676 C672 1.415 . S
C676 C677 1.437 . S
C676 C680 1.413 . S
C677 C675 1.329 . S
C677 C676 1.437 . S
C677 H699 0.929 . S
N678 C672 1.369 . S
N678 C679 1.338 . S
N678 Gd683 2.622 . S
C679 N678 1.338 . S
C679 C681 1.378 . S
C679 H691 0.929 . S
C680 C676 1.413 . S
C680 C681 1.348 . S
C680 H696 0.931 . S
C681 C679 1.378 . S
C681 C680 1.348 . S
C681 H697 0.930 . S
Gd682 N702 2.622 . S
Gd682 N709 2.570 . S
Gd682 O716 2.353 1_565 S
Gd682 O717 2.468 . S
Gd682 O718 2.427 . S
Gd682 O720 2.388 . S
Gd682 O721 2.386 . S
Gd682 O725 2.307 . S
Gd682 C735 2.805 . S
Gd683 N678 2.622 . S
Gd683 N684 2.570 . S
Gd683 O715 2.386 1_655 S
Gd683 O719 2.307 . S
Gd683 O722 2.353 1_545 S
Gd683 O723 2.468 . S
Gd683 O724 2.427 . S
Gd683 O726 2.388 1_645 S
Gd683 C747 2.805 . S
N684 C674 1.359 . S
N684 Gd683 2.570 . S
N684 C686 1.343 . S
C685 C673 1.422 . S
C685 C687 1.321 . S
C685 H693 0.931 . S
C686 N684 1.343 . S
C686 C687 1.390 . S
C686 H688 0.931 . S
C687 C685 1.321 . S
C687 C686 1.390 . S
C687 H689 0.930 . S
H688 C686 0.931 . S
H689 C687 0.930 . S
H690 C713 0.931 . S
H691 C679 0.929 . S
H692 C714 0.930 . S
H693 C685 0.931 . S
H694 C675 0.930 . S
H695 C704 0.929 . S
H696 C680 0.931 . S
H697 C681 0.930 . S
H698 C736 0.930 . S
H699 C677 0.929 . S
H700 C705 0.931 . S
H701 C706 0.930 . S
N702 Gd682 2.622 . S
N702 C703 1.369 . S
N702 C704 1.338 . S
C703 N702 1.369 . S
C703 C707 1.415 . S
C703 C710 1.422 . S
C704 H695 0.929 . S
C704 N702 1.338 . S
C704 C706 1.378 . S
C705 H700 0.931 . S
C705 C706 1.348 . S
C705 C707 1.413 . S
C706 H701 0.930 . S
C706 C704 1.378 . S
C706 C705 1.348 . S
C707 C703 1.415 . S
C707 C705 1.413 . S
C707 C737 1.437 . S
H708 C737 0.929 . S
N709 Gd682 2.570 . S
N709 C710 1.359 . S
N709 C713 1.343 . S
C710 C703 1.422 . S
C710 N709 1.359 . S
C710 C712 1.421 . S
C711 C712 1.422 . S
C711 C714 1.321 . S
C711 H738 0.931 . S
C712 C710 1.421 . S
C712 C711 1.422 . S
C712 C736 1.417 . S
C713 H690 0.931 . S
C713 N709 1.343 . S
C713 C714 1.390 . S
C714 H692 0.930 . S
C714 C711 1.321 . S
C714 C713 1.390 . S
O715 Gd683 2.386 1_455 S
O715 C727 1.265 . S
O716 Gd682 2.353 1_545 S
O716 C727 1.242 . S
O717 Gd682 2.468 . S
O717 C735 1.263 . S
O718 Gd682 2.427 . S
O718 C735 1.252 . S
O719 Gd683 2.307 . S
O719 C728 1.261 1_545 S
O720 Gd682 2.388 . S
O720 C728 1.252 1_455 S
O721 Gd682 2.386 . S
O721 C739 1.265 1_455 S
O722 Gd683 2.353 1_565 S
O722 C739 1.242 . S
O723 Gd683 2.468 . S
O723 C747 1.263 . S
O724 Gd683 2.427 . S
O724 C747 1.252 . S
O725 Gd682 2.307 . S
O725 C740 1.261 . S
O726 Gd683 2.388 1_465 S
O726 C740 1.252 . S
C727 O715 1.265 . S
C727 O716 1.242 . S
C728 O719 1.261 1_565 S
C728 O720 1.252 1_655 S
C729 C732 1.394 . S
C729 C734 1.370 . S
C729 C735 1.500 . S
C730 C733 1.383 . S
C730 C734 1.395 . S
C731 C732 1.396 . S
C731 C733 1.365 . S
C731 H748 0.929 . S
C732 C729 1.394 . S
C732 C731 1.396 . S
C732 H749 0.930 . S
C733 C730 1.383 . S
C733 C731 1.365 . S
C733 H750 0.931 . S
C734 C729 1.370 . S
C734 C730 1.395 . S
C734 H751 0.930 . S
C735 Gd682 2.805 . S
C735 O717 1.263 . S
C735 O718 1.252 . S
C735 C729 1.500 . S
C736 H698 0.930 . S
C736 C712 1.417 . S
C736 C737 1.329 . S
C737 C707 1.437 . S
C737 H708 0.929 . S
C737 C736 1.329 . S
H738 C711 0.931 . S
C739 O721 1.265 1_655 S
C739 O722 1.242 . S
C740 O725 1.261 . S
C740 O726 1.252 . S
C741 C744 1.394 . S
C741 C746 1.370 . S
C741 C747 1.500 . S
C742 C745 1.383 . S
C742 C746 1.395 . S
C743 C744 1.396 . S
C743 C745 1.365 . S
C743 H752 0.929 . S
C744 C741 1.394 . S
C744 C743 1.396 . S
C744 H753 0.930 . S
C745 C742 1.383 . S
C745 C743 1.365 . S
C745 H754 0.931 . S
C746 C741 1.370 . S
C746 C742 1.395 . S
C746 H755 0.930 . S
C747 Gd683 2.805 . S
C747 O723 1.263 . S
C747 O724 1.252 . S
C747 C741 1.500 . S
H748 C731 0.929 . S
H749 C732 0.930 . S
H750 C733 0.931 . S
H751 C734 0.930 . S
H752 C743 0.929 . S
H753 C744 0.930 . S
H754 C745 0.931 . S
H755 C746 0.930 . S
C756 C758 1.422 . S
C756 C760 1.415 . S
C756 N762 1.369 . S
C757 C758 1.421 1_565 S
C757 C759 1.417 . S
C757 C769 1.422 . S
C758 C756 1.422 . S
C758 C757 1.421 1_545 S
C758 N768 1.359 . S
C759 C757 1.417 . S
C759 C761 1.329 . S
C759 H778 0.930 . S
C760 C756 1.415 . S
C760 C761 1.437 1_545 S
C760 C764 1.413 . S
C761 C759 1.329 . S
C761 C760 1.437 1_565 S
C761 H783 0.929 . S
N762 C756 1.369 . S
N762 C763 1.338 . S
N762 Gd767 2.622 . S
C763 N762 1.338 . S
C763 C765 1.378 . S
C763 H775 0.929 . S
C764 C760 1.413 . S
C764 C765 1.348 . S
C764 H780 0.931 . S
C765 C763 1.378 . S
C765 C764 1.348 . S
C765 H781 0.930 . S
Gd766 N786 2.622 . S
Gd766 N793 2.570 . S
Gd766 O800 2.353 . S
Gd766 O801 2.468 1_455 S
Gd766 O802 2.427 1_455 S
Gd766 O804 2.388 . S
Gd766 O805 2.386 . S
Gd766 O809 2.307 . S
Gd766 C819 2.805 1_455 S
Gd767 N762 2.622 . S
Gd767 N768 2.570 . S
Gd767 O799 2.386 . S
Gd767 O803 2.307 . S
Gd767 O806 2.353 . S
Gd767 O807 2.468 . S
Gd767 O808 2.427 . S
Gd767 O810 2.388 . S
Gd767 C831 2.805 . S
N768 C758 1.359 . S
N768 Gd767 2.570 . S
N768 C770 1.343 . S
C769 C757 1.422 . S
C769 C771 1.321 1_565 S
C769 H777 0.931 . S
C770 N768 1.343 . S
C770 C771 1.390 . S
C770 H772 0.931 . S
C771 C769 1.321 1_545 S
C771 C770 1.390 . S
C771 H773 0.930 . S
H772 C770 0.931 . S
H773 C771 0.930 . S
H774 C797 0.931 . S
H775 C763 0.929 . S
H776 C798 0.930 . S
H777 C769 0.931 . S
H778 C759 0.930 . S
H779 C788 0.929 . S
H780 C764 0.931 . S
H781 C765 0.930 . S
H782 C820 0.930 . S
H783 C761 0.929 . S
H784 C789 0.931 . S
H785 C790 0.930 . S
N786 Gd766 2.622 . S
N786 C787 1.369 . S
N786 C788 1.338 . S
C787 N786 1.369 . S
C787 C791 1.415 . S
C787 C794 1.422 . S
C788 H779 0.929 . S
C788 N786 1.338 . S
C788 C790 1.378 . S
C789 H784 0.931 . S
C789 C790 1.348 . S
C789 C791 1.413 . S
C790 H785 0.930 . S
C790 C788 1.378 . S
C790 C789 1.348 . S
C791 C787 1.415 . S
C791 C789 1.413 . S
C791 C821 1.437 . S
H792 C821 0.929 . S
N793 Gd766 2.570 . S
N793 C794 1.359 . S
N793 C797 1.343 . S
C794 C787 1.422 . S
C794 N793 1.359 . S
C794 C796 1.421 . S
C795 C796 1.422 . S
C795 C798 1.321 . S
C795 H822 0.931 . S
C796 C794 1.421 . S
C796 C795 1.422 . S
C796 C820 1.417 . S
C797 H774 0.931 . S
C797 N793 1.343 . S
C797 C798 1.390 . S
C798 H776 0.930 . S
C798 C795 1.321 . S
C798 C797 1.390 . S
O799 Gd767 2.386 . S
O799 C811 1.265 . S
O800 Gd766 2.353 . S
O800 C811 1.242 . S
O801 Gd766 2.468 1_655 S
O801 C819 1.263 . S
O802 Gd766 2.427 1_655 S
O802 C819 1.252 . S
O803 Gd767 2.307 . S
O803 C812 1.261 . S
O804 Gd766 2.388 . S
O804 C812 1.252 . S
O805 Gd766 2.386 . S
O805 C823 1.265 . S
O806 Gd767 2.353 . S
O806 C823 1.242 . S
O807 Gd767 2.468 . S
O807 C831 1.263 . S
O808 Gd767 2.427 . S
O808 C831 1.252 . S
O809 Gd766 2.307 . S
O809 C824 1.261 . S
O810 Gd767 2.388 . S
O810 C824 1.252 . S
C811 O799 1.265 . S
C811 O800 1.242 . S
C812 O803 1.261 . S
C812 O804 1.252 . S
C813 C816 1.394 . S
C813 C818 1.370 . S
C813 C819 1.500 . S
C814 C817 1.383 . S
C814 C818 1.395 . S
C815 C816 1.396 . S
C815 C817 1.365 . S
C815 H832 0.929 . S
C816 C813 1.394 . S
C816 C815 1.396 . S
C816 H833 0.930 . S
C817 C814 1.383 . S
C817 C815 1.365 . S
C817 H834 0.931 . S
C818 C813 1.370 . S
C818 C814 1.395 . S
C818 H835 0.930 . S
C819 Gd766 2.805 1_655 S
C819 O801 1.263 . S
C819 O802 1.252 . S
C819 C813 1.500 . S
C820 H782 0.930 . S
C820 C796 1.417 . S
C820 C821 1.329 . S
C821 C791 1.437 . S
C821 H792 0.929 . S
C821 C820 1.329 . S
H822 C795 0.931 . S
C823 O805 1.265 . S
C823 O806 1.242 . S
C824 O809 1.261 . S
C824 O810 1.252 . S
C825 C828 1.394 . S
C825 C830 1.370 . S
C825 C831 1.500 . S
C826 C829 1.383 . S
C826 C830 1.395 . S
C827 C828 1.396 . S
C827 C829 1.365 . S
C827 H836 0.929 . S
C828 C825 1.394 . S
C828 C827 1.396 . S
C828 H837 0.930 . S
C829 C826 1.383 . S
C829 C827 1.365 . S
C829 H838 0.931 . S
C830 C825 1.370 . S
C830 C826 1.395 . S
C830 H839 0.930 . S
C831 Gd767 2.805 . S
C831 O807 1.263 . S
C831 O808 1.252 . S
C831 C825 1.500 . S
H832 C815 0.929 . S
H833 C816 0.930 . S
H834 C817 0.931 . S
H835 C818 0.930 . S
H836 C827 0.929 . S
H837 C828 0.930 . S
H838 C829 0.931 . S
H839 C830 0.930 . S
C840 C842 1.422 . S
C840 C844 1.415 . S
C840 N846 1.369 . S
C841 C842 1.421 1_565 S
C841 C843 1.417 . S
C841 C853 1.422 . S
C842 C840 1.422 . S
C842 C841 1.421 1_545 S
C842 N852 1.359 . S
C843 C841 1.417 . S
C843 C845 1.329 . S
C843 H862 0.930 . S
C844 C840 1.415 . S
C844 C845 1.437 1_545 S
C844 C848 1.413 . S
C845 C843 1.329 . S
C845 C844 1.437 1_565 S
C845 H867 0.929 . S
N846 C840 1.369 . S
N846 C847 1.338 . S
N846 Gd851 2.622 . S
C847 N846 1.338 . S
C847 C849 1.378 . S
C847 H859 0.929 . S
C848 C844 1.413 . S
C848 C849 1.348 . S
C848 H864 0.931 . S
C849 C847 1.378 . S
C849 C848 1.348 . S
C849 H865 0.930 . S
Gd850 N870 2.622 . S
Gd850 N877 2.570 . S
Gd850 O884 2.353 . S
Gd850 O885 2.468 . S
Gd850 O886 2.427 . S
Gd850 O888 2.388 . S
Gd850 O889 2.386 . S
Gd850 O893 2.307 . S
Gd850 C903 2.805 . S
Gd851 N846 2.622 . S
Gd851 N852 2.570 . S
Gd851 O883 2.386 1_655 S
Gd851 O887 2.307 . S
Gd851 O890 2.353 . S
Gd851 O891 2.468 . S
Gd851 O892 2.427 . S
Gd851 O894 2.388 1_655 S
Gd851 C915 2.805 . S
N852 C842 1.359 . S
N852 Gd851 2.570 . S
N852 C854 1.343 . S
C853 C841 1.422 . S
C853 C855 1.321 1_565 S
C853 H861 0.931 . S
C854 N852 1.343 . S
C854 C855 1.390 . S
C854 H856 0.931 . S
C855 C853 1.321 1_545 S
C855 C854 1.390 . S
C855 H857 0.930 . S
H856 C854 0.931 . S
H857 C855 0.930 . S
H858 C881 0.931 . S
H859 C847 0.929 . S
H860 C882 0.930 . S
H861 C853 0.931 . S
H862 C843 0.930 . S
H863 C872 0.929 . S
H864 C848 0.931 . S
H865 C849 0.930 . S
H866 C904 0.930 . S
H867 C845 0.929 . S
H868 C873 0.931 . S
H869 C874 0.930 . S
N870 Gd850 2.622 . S
N870 C871 1.369 . S
N870 C872 1.338 . S
C871 N870 1.369 . S
C871 C875 1.415 . S
C871 C878 1.422 . S
C872 H863 0.929 . S
C872 N870 1.338 . S
C872 C874 1.378 . S
C873 H868 0.931 . S
C873 C874 1.348 . S
C873 C875 1.413 . S
C874 H869 0.930 . S
C874 C872 1.378 . S
C874 C873 1.348 . S
C875 C871 1.415 . S
C875 C873 1.413 . S
C875 C905 1.437 . S
H876 C905 0.929 . S
N877 Gd850 2.570 . S
N877 C878 1.359 . S
N877 C881 1.343 . S
C878 C871 1.422 . S
C878 N877 1.359 . S
C878 C880 1.421 . S
C879 C880 1.422 . S
C879 C882 1.321 . S
C879 H906 0.931 . S
C880 C878 1.421 . S
C880 C879 1.422 . S
C880 C904 1.417 . S
C881 H858 0.931 . S
C881 N877 1.343 . S
C881 C882 1.390 . S
C882 H860 0.930 . S
C882 C879 1.321 . S
C882 C881 1.390 . S
O883 Gd851 2.386 1_455 S
O883 C895 1.265 . S
O884 Gd850 2.353 . S
O884 C895 1.242 . S
O885 Gd850 2.468 . S
O885 C903 1.263 . S
O886 Gd850 2.427 . S
O886 C903 1.252 . S
O887 Gd851 2.307 . S
O887 C896 1.261 . S
O888 Gd850 2.388 . S
O888 C896 1.252 1_455 S
O889 Gd850 2.386 . S
O889 C907 1.265 1_455 S
O890 Gd851 2.353 . S
O890 C907 1.242 . S
O891 Gd851 2.468 . S
O891 C915 1.263 . S
O892 Gd851 2.427 . S
O892 C915 1.252 . S
O893 Gd850 2.307 . S
O893 C908 1.261 . S
O894 Gd851 2.388 1_455 S
O894 C908 1.252 . S
C895 O883 1.265 . S
C895 O884 1.242 . S
C896 O887 1.261 . S
C896 O888 1.252 1_655 S
C897 C900 1.394 . S
C897 C902 1.370 . S
C897 C903 1.500 . S
C898 C901 1.383 . S
C898 C902 1.395 . S
C899 C900 1.396 . S
C899 C901 1.365 . S
C899 H916 0.929 . S
C900 C897 1.394 . S
C900 C899 1.396 . S
C900 H917 0.930 . S
C901 C898 1.383 . S
C901 C899 1.365 . S
C901 H918 0.931 . S
C902 C897 1.370 . S
C902 C898 1.395 . S
C902 H919 0.930 . S
C903 Gd850 2.805 . S
C903 O885 1.263 . S
C903 O886 1.252 . S
C903 C897 1.500 . S
C904 H866 0.930 . S
C904 C880 1.417 . S
C904 C905 1.329 . S
C905 C875 1.437 . S
C905 H876 0.929 . S
C905 C904 1.329 . S
H906 C879 0.931 . S
C907 O889 1.265 1_655 S
C907 O890 1.242 . S
C908 O893 1.261 . S
C908 O894 1.252 . S
C909 C912 1.394 . S
C909 C914 1.370 . S
C909 C915 1.500 . S
C910 C913 1.383 . S
C910 C914 1.395 . S
C911 C912 1.396 . S
C911 C913 1.365 . S
C911 H920 0.929 . S
C912 C909 1.394 . S
C912 C911 1.396 . S
C912 H921 0.930 . S
C913 C910 1.383 . S
C913 C911 1.365 . S
C913 H922 0.931 . S
C914 C909 1.370 . S
C914 C910 1.395 . S
C914 H923 0.930 . S
C915 Gd851 2.805 . S
C915 O891 1.263 . S
C915 O892 1.252 . S
C915 C909 1.500 . S
H916 C899 0.929 . S
H917 C900 0.930 . S
H918 C901 0.931 . S
H919 C902 0.930 . S
H920 C911 0.929 . S
H921 C912 0.930 . S
H922 C913 0.931 . S
H923 C914 0.930 . S
C924 C926 1.422 . S
C924 C928 1.415 . S
C924 N930 1.369 . S
C925 C926 1.421 . S
C925 C927 1.417 . S
C925 C937 1.422 . S
C926 C924 1.422 . S
C926 C925 1.421 . S
C926 N936 1.359 . S
C927 C925 1.417 . S
C927 C929 1.329 . S
C927 H946 0.930 . S
C928 C924 1.415 . S
C928 C929 1.437 . S
C928 C932 1.413 . S
C929 C927 1.329 . S
C929 C928 1.437 . S
C929 H951 0.929 . S
N930 C924 1.369 . S
N930 C931 1.338 . S
N930 Gd935 2.622 . S
C931 N930 1.338 . S
C931 C933 1.378 . S
C931 H943 0.929 . S
C932 C928 1.413 . S
C932 C933 1.348 . S
C932 H948 0.931 . S
C933 C931 1.378 . S
C933 C932 1.348 . S
C933 H949 0.930 . S
Gd934 N954 2.622 . S
Gd934 N961 2.570 . S
Gd934 O968 2.353 1_565 S
Gd934 O969 2.468 1_455 S
Gd934 O970 2.427 1_455 S
Gd934 O972 2.388 . S
Gd934 O973 2.386 . S
Gd934 O977 2.307 . S
Gd934 C987 2.805 1_455 S
Gd935 N930 2.622 . S
Gd935 N936 2.570 . S
Gd935 O967 2.386 . S
Gd935 O971 2.307 . S
Gd935 O974 2.353 1_545 S
Gd935 O975 2.468 . S
Gd935 O976 2.427 . S
Gd935 O978 2.388 1_545 S
Gd935 C999 2.805 . S
N936 C926 1.359 . S
N936 Gd935 2.570 . S
N936 C938 1.343 . S
C937 C925 1.422 . S
C937 C939 1.321 . S
C937 H945 0.931 . S
C938 N936 1.343 . S
C938 C939 1.390 . S
C938 H940 0.931 . S
C939 C937 1.321 . S
C939 C938 1.390 . S
C939 H941 0.930 . S
H940 C938 0.931 . S
H941 C939 0.930 . S
H942 C965 0.931 . S
H943 C931 0.929 . S
H944 C966 0.930 . S
H945 C937 0.931 . S
H946 C927 0.930 . S
H947 C956 0.929 . S
H948 C932 0.931 . S
H949 C933 0.930 . S
H950 C988 0.930 . S
H951 C929 0.929 . S
H952 C957 0.931 . S
H953 C958 0.930 . S
N954 Gd934 2.622 . S
N954 C955 1.369 . S
N954 C956 1.338 . S
C955 N954 1.369 . S
C955 C959 1.415 . S
C955 C962 1.422 . S
C956 H947 0.929 . S
C956 N954 1.338 . S
C956 C958 1.378 . S
C957 H952 0.931 . S
C957 C958 1.348 . S
C957 C959 1.413 . S
C958 H953 0.930 . S
C958 C956 1.378 . S
C958 C957 1.348 . S
C959 C955 1.415 . S
C959 C957 1.413 . S
C959 C989 1.437 . S
H960 C989 0.929 . S
N961 Gd934 2.570 . S
N961 C962 1.359 . S
N961 C965 1.343 . S
C962 C955 1.422 . S
C962 N961 1.359 . S
C962 C964 1.421 . S
C963 C964 1.422 . S
C963 C966 1.321 . S
C963 H990 0.931 . S
C964 C962 1.421 . S
C964 C963 1.422 . S
C964 C988 1.417 . S
C965 H942 0.931 . S
C965 N961 1.343 . S
C965 C966 1.390 . S
C966 H944 0.930 . S
C966 C963 1.321 . S
C966 C965 1.390 . S
O967 Gd935 2.386 . S
O967 C979 1.265 . S
O968 Gd934 2.353 1_545 S
O968 C979 1.242 . S
O969 Gd934 2.468 1_655 S
O969 C987 1.263 . S
O970 Gd934 2.427 1_655 S
O970 C987 1.252 . S
O971 Gd935 2.307 . S
O971 C980 1.261 1_545 S
O972 Gd934 2.388 . S
O972 C980 1.252 . S
O973 Gd934 2.386 . S
O973 C991 1.265 . S
O974 Gd935 2.353 1_565 S
O974 C991 1.242 . S
O975 Gd935 2.468 . S
O975 C999 1.263 . S
O976 Gd935 2.427 . S
O976 C999 1.252 . S
O977 Gd934 2.307 . S
O977 C992 1.261 . S
O978 Gd935 2.388 1_565 S
O978 C992 1.252 . S
C979 O967 1.265 . S
C979 O968 1.242 . S
C980 O971 1.261 1_565 S
C980 O972 1.252 . S
C981 C984 1.394 . S
C981 C986 1.370 . S
C981 C987 1.500 . S
C982 C985 1.383 . S
C982 C986 1.395 . S
C983 C984 1.396 . S
C983 C985 1.365 . S
C983 H1000 0.929 . S
C984 C981 1.394 . S
C984 C983 1.396 . S
C984 H1001 0.930 . S
C985 C982 1.383 . S
C985 C983 1.365 . S
C985 H1002 0.931 . S
C986 C981 1.370 . S
C986 C982 1.395 . S
C986 H1003 0.930 . S
C987 Gd934 2.805 1_655 S
C987 O969 1.263 . S
C987 O970 1.252 . S
C987 C981 1.500 . S
C988 H950 0.930 . S
C988 C964 1.417 . S
C988 C989 1.329 . S
C989 C959 1.437 . S
C989 H960 0.929 . S
C989 C988 1.329 . S
H990 C963 0.931 . S
C991 O973 1.265 . S
C991 O974 1.242 . S
C992 O977 1.261 . S
C992 O978 1.252 . S
C993 C996 1.394 . S
C993 C998 1.370 . S
C993 C999 1.500 . S
C994 C997 1.383 . S
C994 C998 1.395 . S
C995 C996 1.396 . S
C995 C997 1.365 . S
C995 H1004 0.929 . S
C996 C993 1.394 . S
C996 C995 1.396 . S
C996 H1005 0.930 . S
C997 C994 1.383 . S
C997 C995 1.365 . S
C997 H1006 0.931 . S
C998 C993 1.370 . S
C998 C994 1.395 . S
C998 H1007 0.930 . S
C999 Gd935 2.805 . S
C999 O975 1.263 . S
C999 O976 1.252 . S
C999 C993 1.500 . S
H1000 C983 0.929 . S
H1001 C984 0.930 . S
H1002 C985 0.931 . S
H1003 C986 0.930 . S
H1004 C995 0.929 . S
H1005 C996 0.930 . S
H1006 C997 0.931 . S
H1007 C998 0.930 . S
C1008 C1010 1.422 . S
C1008 C1012 1.415 . S
C1008 N1014 1.369 . S
C1009 C1010 1.421 . S
C1009 C1011 1.417 . S
C1009 C1021 1.422 . S
C1010 C1008 1.422 . S
C1010 C1009 1.421 . S
C1010 N1020 1.359 . S
C1011 C1009 1.417 . S
C1011 C1013 1.329 . S
C1011 H1030 0.930 . S
C1012 C1008 1.415 . S
C1012 C1013 1.437 . S
C1012 C1016 1.413 . S
C1013 C1011 1.329 . S
C1013 C1012 1.437 . S
C1013 H1035 0.929 . S
N1014 C1008 1.369 . S
N1014 C1015 1.338 . S
N1014 Gd1019 2.622 . S
C1015 N1014 1.338 . S
C1015 C1017 1.378 . S
C1015 H1027 0.929 . S
C1016 C1012 1.413 . S
C1016 C1017 1.348 . S
C1016 H1032 0.931 . S
C1017 C1015 1.378 . S
C1017 C1016 1.348 . S
C1017 H1033 0.930 . S
Gd1018 N1038 2.622 . S
Gd1018 N1045 2.570 . S
Gd1018 O1052 2.353 1_565 S
Gd1018 O1053 2.468 . S
Gd1018 O1054 2.427 . S
Gd1018 O1056 2.388 1_465 S
Gd1018 O1057 2.386 1_455 S
Gd1018 O1061 2.307 . S
Gd1018 C1071 2.805 . S
Gd1019 N1014 2.622 . S
Gd1019 N1020 2.570 . S
Gd1019 O1051 2.386 . S
Gd1019 O1055 2.307 . S
Gd1019 O1058 2.353 1_545 S
Gd1019 O1059 2.468 . S
Gd1019 O1060 2.427 . S
Gd1019 O1062 2.388 . S
Gd1019 C1083 2.805 . S
N1020 C1010 1.359 . S
N1020 Gd1019 2.570 . S
N1020 C1022 1.343 . S
C1021 C1009 1.422 . S
C1021 C1023 1.321 . S
C1021 H1029 0.931 . S
C1022 N1020 1.343 . S
C1022 C1023 1.390 . S
C1022 H1024 0.931 . S
C1023 C1021 1.321 . S
C1023 C1022 1.390 . S
C1023 H1025 0.930 . S
H1024 C1022 0.931 . S
H1025 C1023 0.930 . S
H1026 C1049 0.931 . S
H1027 C1015 0.929 . S
H1028 C1050 0.930 . S
H1029 C1021 0.931 . S
H1030 C1011 0.930 . S
H1031 C1040 0.929 . S
H1032 C1016 0.931 . S
H1033 C1017 0.930 . S
H1034 C1072 0.930 . S
H1035 C1013 0.929 . S
H1036 C1041 0.931 . S
H1037 C1042 0.930 . S
N1038 Gd1018 2.622 . S
N1038 C1039 1.369 . S
N1038 C1040 1.338 . S
C1039 N1038 1.369 . S
C1039 C1043 1.415 . S
C1039 C1046 1.422 . S
C1040 H1031 0.929 . S
C1040 N1038 1.338 . S
C1040 C1042 1.378 . S
C1041 H1036 0.931 . S
C1041 C1042 1.348 . S
C1041 C1043 1.413 . S
C1042 H1037 0.930 . S
C1042 C1040 1.378 . S
C1042 C1041 1.348 . S
C1043 C1039 1.415 . S
C1043 C1041 1.413 . S
C1043 C1073 1.437 . S
H1044 C1073 0.929 . S
N1045 Gd1018 2.570 . S
N1045 C1046 1.359 . S
N1045 C1049 1.343 . S
C1046 C1039 1.422 . S
C1046 N1045 1.359 . S
C1046 C1048 1.421 . S
C1047 C1048 1.422 . S
C1047 C1050 1.321 . S
C1047 H1074 0.931 . S
C1048 C1046 1.421 . S
C1048 C1047 1.422 . S
C1048 C1072 1.417 . S
C1049 H1026 0.931 . S
C1049 N1045 1.343 . S
C1049 C1050 1.390 . S
C1050 H1028 0.930 . S
C1050 C1047 1.321 . S
C1050 C1049 1.390 . S
O1051 Gd1019 2.386 . S
O1051 C1063 1.265 1_655 S
O1052 Gd1018 2.353 1_545 S
O1052 C1063 1.242 . S
O1053 Gd1018 2.468 . S
O1053 C1071 1.263 . S
O1054 Gd1018 2.427 . S
O1054 C1071 1.252 . S
O1055 Gd1019 2.307 . S
O1055 C1064 1.261 . S
O1056 Gd1018 2.388 1_645 S
O1056 C1064 1.252 . S
O1057 Gd1018 2.386 1_655 S
O1057 C1075 1.265 . S
O1058 Gd1019 2.353 1_565 S
O1058 C1075 1.242 . S
O1059 Gd1019 2.468 . S
O1059 C1083 1.263 . S
O1060 Gd1019 2.427 . S
O1060 C1083 1.252 . S
O1061 Gd1018 2.307 . S
O1061 C1076 1.261 1_565 S
O1062 Gd1019 2.388 . S
O1062 C1076 1.252 1_655 S
C1063 O1051 1.265 1_455 S
C1063 O1052 1.242 . S
C1064 O1055 1.261 . S
C1064 O1056 1.252 . S
C1065 C1068 1.394 . S
C1065 C1070 1.370 . S
C1065 C1071 1.500 . S
C1066 C1069 1.383 . S
C1066 C1070 1.395 . S
C1067 C1068 1.396 . S
C1067 C1069 1.365 . S
C1067 H1084 0.929 . S
C1068 C1065 1.394 . S
C1068 C1067 1.396 . S
C1068 H1085 0.930 . S
C1069 C1066 1.383 . S
C1069 C1067 1.365 . S
C1069 H1086 0.931 . S
C1070 C1065 1.370 . S
C1070 C1066 1.395 . S
C1070 H1087 0.930 . S
C1071 Gd1018 2.805 . S
C1071 O1053 1.263 . S
C1071 O1054 1.252 . S
C1071 C1065 1.500 . S
C1072 H1034 0.930 . S
C1072 C1048 1.417 . S
C1072 C1073 1.329 . S
C1073 C1043 1.437 . S
C1073 H1044 0.929 . S
C1073 C1072 1.329 . S
H1074 C1047 0.931 . S
C1075 O1057 1.265 . S
C1075 O1058 1.242 . S
C1076 O1061 1.261 1_545 S
C1076 O1062 1.252 1_455 S
C1077 C1080 1.394 . S
C1077 C1082 1.370 . S
C1077 C1083 1.500 . S
C1078 C1081 1.383 . S
C1078 C1082 1.395 . S
C1079 C1080 1.396 . S
C1079 C1081 1.365 . S
C1079 H1088 0.929 . S
C1080 C1077 1.394 . S
C1080 C1079 1.396 . S
C1080 H1089 0.930 . S
C1081 C1078 1.383 . S
C1081 C1079 1.365 . S
C1081 H1090 0.931 . S
C1082 C1077 1.370 . S
C1082 C1078 1.395 . S
C1082 H1091 0.930 . S
C1083 Gd1019 2.805 . S
C1083 O1059 1.263 . S
C1083 O1060 1.252 . S
C1083 C1077 1.500 . S
H1084 C1067 0.929 . S
H1085 C1068 0.930 . S
H1086 C1069 0.931 . S
H1087 C1070 0.930 . S
H1088 C1079 0.929 . S
H1089 C1080 0.930 . S
H1090 C1081 0.931 . S
H1091 C1082 0.930 . S
C1092 C1094 1.422 . S
C1092 C1096 1.415 . S
C1092 N1098 1.369 . S
C1093 C1094 1.421 . S
C1093 C1095 1.417 . S
C1093 C1105 1.422 . S
C1094 C1092 1.422 . S
C1094 C1093 1.421 . S
C1094 N1104 1.359 . S
C1095 C1093 1.417 . S
C1095 C1097 1.329 . S
C1095 H1114 0.930 . S
C1096 C1092 1.415 . S
C1096 C1097 1.437 . S
C1096 C1100 1.413 . S
C1097 C1095 1.329 . S
C1097 C1096 1.437 . S
C1097 H1119 0.929 . S
N1098 C1092 1.369 . S
N1098 C1099 1.338 . S
N1098 Gd1103 2.622 . S
C1099 N1098 1.338 . S
C1099 C1101 1.378 . S
C1099 H1111 0.929 . S
C1100 C1096 1.413 . S
C1100 C1101 1.348 . S
C1100 H1116 0.931 . S
C1101 C1099 1.378 . S
C1101 C1100 1.348 . S
C1101 H1117 0.930 . S
Gd1102 N1122 2.622 . S
Gd1102 N1129 2.570 . S
Gd1102 O1136 2.353 . S
Gd1102 O1137 2.468 . S
Gd1102 O1138 2.427 . S
Gd1102 O1140 2.388 . S
Gd1102 O1141 2.386 . S
Gd1102 O1145 2.307 . S
Gd1102 C1155 2.805 . S
Gd1103 N1098 2.622 . S
Gd1103 N1104 2.570 . S
Gd1103 O1135 2.386 . S
Gd1103 O1139 2.307 . S
Gd1103 O1142 2.353 . S
Gd1103 O1143 2.468 1_655 S
Gd1103 O1144 2.427 1_655 S
Gd1103 O1146 2.388 . S
Gd1103 C1167 2.805 1_655 S
N1104 C1094 1.359 . S
N1104 Gd1103 2.570 . S
N1104 C1106 1.343 . S
C1105 C1093 1.422 . S
C1105 C1107 1.321 . S
C1105 H1113 0.931 . S
C1106 N1104 1.343 . S
C1106 C1107 1.390 . S
C1106 H1108 0.931 . S
C1107 C1105 1.321 . S
C1107 C1106 1.390 . S
C1107 H1109 0.930 . S
H1108 C1106 0.931 . S
H1109 C1107 0.930 . S
H1110 C1133 0.931 . S
H1111 C1099 0.929 . S
H1112 C1134 0.930 . S
H1113 C1105 0.931 . S
H1114 C1095 0.930 . S
H1115 C1124 0.929 . S
H1116 C1100 0.931 . S
H1117 C1101 0.930 . S
H1118 C1156 0.930 . S
H1119 C1097 0.929 . S
H1120 C1125 0.931 . S
H1121 C1126 0.930 . S
N1122 Gd1102 2.622 . S
N1122 C1123 1.369 . S
N1122 C1124 1.338 . S
C1123 N1122 1.369 . S
C1123 C1127 1.415 . S
C1123 C1130 1.422 . S
C1124 H1115 0.929 . S
C1124 N1122 1.338 . S
C1124 C1126 1.378 . S
C1125 H1120 0.931 . S
C1125 C1126 1.348 . S
C1125 C1127 1.413 . S
C1126 H1121 0.930 . S
C1126 C1124 1.378 . S
C1126 C1125 1.348 . S
C1127 C1123 1.415 . S
C1127 C1125 1.413 . S
C1127 C1157 1.437 1_565 S
H1128 C1157 0.929 . S
N1129 Gd1102 2.570 . S
N1129 C1130 1.359 . S
N1129 C1133 1.343 . S
C1130 C1123 1.422 . S
C1130 N1129 1.359 . S
C1130 C1132 1.421 1_565 S
C1131 C1132 1.422 . S
C1131 C1134 1.321 1_545 S
C1131 H1158 0.931 . S
C1132 C1130 1.421 1_545 S
C1132 C1131 1.422 . S
C1132 C1156 1.417 . S
C1133 H1110 0.931 . S
C1133 N1129 1.343 . S
C1133 C1134 1.390 . S
C1134 H1112 0.930 . S
C1134 C1131 1.321 1_565 S
C1134 C1133 1.390 . S
O1135 Gd1103 2.386 . S
O1135 C1147 1.265 . S
O1136 Gd1102 2.353 . S
O1136 C1147 1.242 . S
O1137 Gd1102 2.468 . S
O1137 C1155 1.263 . S
O1138 Gd1102 2.427 . S
O1138 C1155 1.252 . S
O1139 Gd1103 2.307 . S
O1139 C1148 1.261 . S
O1140 Gd1102 2.388 . S
O1140 C1148 1.252 . S
O1141 Gd1102 2.386 . S
O1141 C1159 1.265 . S
O1142 Gd1103 2.353 . S
O1142 C1159 1.242 . S
O1143 Gd1103 2.468 1_455 S
O1143 C1167 1.263 . S
O1144 Gd1103 2.427 1_455 S
O1144 C1167 1.252 . S
O1145 Gd1102 2.307 . S
O1145 C1160 1.261 . S
O1146 Gd1103 2.388 . S
O1146 C1160 1.252 . S
C1147 O1135 1.265 . S
C1147 O1136 1.242 . S
C1148 O1139 1.261 . S
C1148 O1140 1.252 . S
C1149 C1152 1.394 . S
C1149 C1154 1.370 . S
C1149 C1155 1.500 . S
C1150 C1153 1.383 . S
C1150 C1154 1.395 . S
C1151 C1152 1.396 . S
C1151 C1153 1.365 . S
C1151 H1168 0.929 . S
C1152 C1149 1.394 . S
C1152 C1151 1.396 . S
C1152 H1169 0.930 . S
C1153 C1150 1.383 . S
C1153 C1151 1.365 . S
C1153 H1170 0.931 . S
C1154 C1149 1.370 . S
C1154 C1150 1.395 . S
C1154 H1171 0.930 . S
C1155 Gd1102 2.805 . S
C1155 O1137 1.263 . S
C1155 O1138 1.252 . S
C1155 C1149 1.500 . S
C1156 H1118 0.930 . S
C1156 C1132 1.417 . S
C1156 C1157 1.329 . S
C1157 C1127 1.437 1_545 S
C1157 H1128 0.929 . S
C1157 C1156 1.329 . S
H1158 C1131 0.931 . S
C1159 O1141 1.265 . S
C1159 O1142 1.242 . S
C1160 O1145 1.261 . S
C1160 O1146 1.252 . S
C1161 C1164 1.394 . S
C1161 C1166 1.370 . S
C1161 C1167 1.500 . S
C1162 C1165 1.383 . S
C1162 C1166 1.395 . S
C1163 C1164 1.396 . S
C1163 C1165 1.365 . S
C1163 H1172 0.929 . S
C1164 C1161 1.394 . S
C1164 C1163 1.396 . S
C1164 H1173 0.930 . S
C1165 C1162 1.383 . S
C1165 C1163 1.365 . S
C1165 H1174 0.931 . S
C1166 C1161 1.370 . S
C1166 C1162 1.395 . S
C1166 H1175 0.930 . S
C1167 Gd1103 2.805 1_455 S
C1167 O1143 1.263 . S
C1167 O1144 1.252 . S
C1167 C1161 1.500 . S
H1168 C1151 0.929 . S
H1169 C1152 0.930 . S
H1170 C1153 0.931 . S
H1171 C1154 0.930 . S
H1172 C1163 0.929 . S
H1173 C1164 0.930 . S
H1174 C1165 0.931 . S
H1175 C1166 0.930 . S
C1176 C1178 1.422 . S
C1176 C1180 1.415 . S
C1176 N1182 1.369 . S
C1177 C1178 1.421 . S
C1177 C1179 1.417 . S
C1177 C1189 1.422 . S
C1178 C1176 1.422 . S
C1178 C1177 1.421 . S
C1178 N1188 1.359 . S
C1179 C1177 1.417 . S
C1179 C1181 1.329 . S
C1179 H1198 0.930 . S
C1180 C1176 1.415 . S
C1180 C1181 1.437 . S
C1180 C1184 1.413 . S
C1181 C1179 1.329 . S
C1181 C1180 1.437 . S
C1181 H1203 0.929 . S
N1182 C1176 1.369 . S
N1182 C1183 1.338 . S
N1182 Gd1187 2.622 . S
C1183 N1182 1.338 . S
C1183 C1185 1.378 . S
C1183 H1195 0.929 . S
C1184 C1180 1.413 . S
C1184 C1185 1.348 . S
C1184 H1200 0.931 . S
C1185 C1183 1.378 . S
C1185 C1184 1.348 . S
C1185 H1201 0.930 . S
Gd1186 N1206 2.622 . S
Gd1186 N1213 2.570 . S
Gd1186 O1220 2.353 . S
Gd1186 O1221 2.468 . S
Gd1186 O1222 2.427 . S
Gd1186 O1224 2.388 1_455 S
Gd1186 O1225 2.386 1_455 S
Gd1186 O1229 2.307 . S
Gd1186 C1239 2.805 . S
Gd1187 N1182 2.622 . S
Gd1187 N1188 2.570 . S
Gd1187 O1219 2.386 . S
Gd1187 O1223 2.307 . S
Gd1187 O1226 2.353 . S
Gd1187 O1227 2.468 . S
Gd1187 O1228 2.427 . S
Gd1187 O1230 2.388 . S
Gd1187 C1251 2.805 . S
N1188 C1178 1.359 . S
N1188 Gd1187 2.570 . S
N1188 C1190 1.343 . S
C1189 C1177 1.422 . S
C1189 C1191 1.321 . S
C1189 H1197 0.931 . S
C1190 N1188 1.343 . S
C1190 C1191 1.390 . S
C1190 H1192 0.931 . S
C1191 C1189 1.321 . S
C1191 C1190 1.390 . S
C1191 H1193 0.930 . S
H1192 C1190 0.931 . S
H1193 C1191 0.930 . S
H1194 C1217 0.931 . S
H1195 C1183 0.929 . S
H1196 C1218 0.930 . S
H1197 C1189 0.931 . S
H1198 C1179 0.930 . S
H1199 C1208 0.929 . S
H1200 C1184 0.931 . S
H1201 C1185 0.930 . S
H1202 C1240 0.930 . S
H1203 C1181 0.929 . S
H1204 C1209 0.931 . S
H1205 C1210 0.930 . S
N1206 Gd1186 2.622 . S
N1206 C1207 1.369 . S
N1206 C1208 1.338 . S
C1207 N1206 1.369 . S
C1207 C1211 1.415 . S
C1207 C1214 1.422 . S
C1208 H1199 0.929 . S
C1208 N1206 1.338 . S
C1208 C1210 1.378 . S
C1209 H1204 0.931 . S
C1209 C1210 1.348 . S
C1209 C1211 1.413 . S
C1210 H1205 0.930 . S
C1210 C1208 1.378 . S
C1210 C1209 1.348 . S
C1211 C1207 1.415 . S
C1211 C1209 1.413 . S
C1211 C1241 1.437 1_565 S
H1212 C1241 0.929 . S
N1213 Gd1186 2.570 . S
N1213 C1214 1.359 . S
N1213 C1217 1.343 . S
C1214 C1207 1.422 . S
C1214 N1213 1.359 . S
C1214 C1216 1.421 1_565 S
C1215 C1216 1.422 . S
C1215 C1218 1.321 1_545 S
C1215 H1242 0.931 . S
C1216 C1214 1.421 1_545 S
C1216 C1215 1.422 . S
C1216 C1240 1.417 . S
C1217 H1194 0.931 . S
C1217 N1213 1.343 . S
C1217 C1218 1.390 . S
C1218 H1196 0.930 . S
C1218 C1215 1.321 1_565 S
C1218 C1217 1.390 . S
O1219 Gd1187 2.386 . S
O1219 C1231 1.265 1_655 S
O1220 Gd1186 2.353 . S
O1220 C1231 1.242 . S
O1221 Gd1186 2.468 . S
O1221 C1239 1.263 . S
O1222 Gd1186 2.427 . S
O1222 C1239 1.252 . S
O1223 Gd1187 2.307 . S
O1223 C1232 1.261 . S
O1224 Gd1186 2.388 1_655 S
O1224 C1232 1.252 . S
O1225 Gd1186 2.386 1_655 S
O1225 C1243 1.265 . S
O1226 Gd1187 2.353 . S
O1226 C1243 1.242 . S
O1227 Gd1187 2.468 . S
O1227 C1251 1.263 . S
O1228 Gd1187 2.427 . S
O1228 C1251 1.252 . S
O1229 Gd1186 2.307 . S
O1229 C1244 1.261 . S
O1230 Gd1187 2.388 . S
O1230 C1244 1.252 1_655 S
C1231 O1219 1.265 1_455 S
C1231 O1220 1.242 . S
C1232 O1223 1.261 . S
C1232 O1224 1.252 . S
C1233 C1236 1.394 . S
C1233 C1238 1.370 . S
C1233 C1239 1.500 . S
C1234 C1237 1.383 . S
C1234 C1238 1.395 . S
C1235 C1236 1.396 . S
C1235 C1237 1.365 . S
C1235 H1252 0.929 . S
C1236 C1233 1.394 . S
C1236 C1235 1.396 . S
C1236 H1253 0.930 . S
C1237 C1234 1.383 . S
C1237 C1235 1.365 . S
C1237 H1254 0.931 . S
C1238 C1233 1.370 . S
C1238 C1234 1.395 . S
C1238 H1255 0.930 . S
C1239 Gd1186 2.805 . S
C1239 O1221 1.263 . S
C1239 O1222 1.252 . S
C1239 C1233 1.500 . S
C1240 H1202 0.930 . S
C1240 C1216 1.417 . S
C1240 C1241 1.329 . S
C1241 C1211 1.437 1_545 S
C1241 H1212 0.929 . S
C1241 C1240 1.329 . S
H1242 C1215 0.931 . S
C1243 O1225 1.265 . S
C1243 O1226 1.242 . S
C1244 O1229 1.261 . S
C1244 O1230 1.252 1_455 S
C1245 C1248 1.394 . S
C1245 C1250 1.370 . S
C1245 C1251 1.500 . S
C1246 C1249 1.383 . S
C1246 C1250 1.395 . S
C1247 C1248 1.396 . S
C1247 C1249 1.365 . S
C1247 H1256 0.929 . S
C1248 C1245 1.394 . S
C1248 C1247 1.396 . S
C1248 H1257 0.930 . S
C1249 C1246 1.383 . S
C1249 C1247 1.365 . S
C1249 H1258 0.931 . S
C1250 C1245 1.370 . S
C1250 C1246 1.395 . S
C1250 H1259 0.930 . S
C1251 Gd1187 2.805 . S
C1251 O1227 1.263 . S
C1251 O1228 1.252 . S
C1251 C1245 1.500 . S
H1252 C1235 0.929 . S
H1253 C1236 0.930 . S
H1254 C1237 0.931 . S
H1255 C1238 0.930 . S
H1256 C1247 0.929 . S
H1257 C1248 0.930 . S
H1258 C1249 0.931 . S
H1259 C1250 0.930 . S
C1260 C1262 1.422 . S
C1260 C1264 1.415 . S
C1260 N1266 1.369 . S
C1261 C1262 1.421 . S
C1261 C1263 1.417 . S
C1261 C1273 1.422 . S
C1262 C1260 1.422 . S
C1262 C1261 1.421 . S
C1262 N1272 1.359 . S
C1263 C1261 1.417 . S
C1263 C1265 1.329 . S
C1263 H1282 0.930 . S
C1264 C1260 1.415 . S
C1264 C1265 1.437 . S
C1264 C1268 1.413 . S
C1265 C1263 1.329 . S
C1265 C1264 1.437 . S
C1265 H1287 0.929 . S
N1266 C1260 1.369 . S
N1266 C1267 1.338 . S
N1266 Gd1271 2.622 . S
C1267 N1266 1.338 . S
C1267 C1269 1.378 . S
C1267 H1279 0.929 . S
C1268 C1264 1.413 . S
C1268 C1269 1.348 . S
C1268 H1284 0.931 . S
C1269 C1267 1.378 . S
C1269 C1268 1.348 . S
C1269 H1285 0.930 . S
Gd1270 N1290 2.622 . S
Gd1270 N1297 2.570 . S
Gd1270 O1304 2.353 1_565 S
Gd1270 O1305 2.468 . S
Gd1270 O1306 2.427 . S
Gd1270 O1308 2.388 1_565 S
Gd1270 O1309 2.386 . S
Gd1270 O1313 2.307 . S
Gd1270 C1323 2.805 . S
Gd1271 N1266 2.622 . S
Gd1271 N1272 2.570 . S
Gd1271 O1303 2.386 . S
Gd1271 O1307 2.307 . S
Gd1271 O1310 2.353 1_545 S
Gd1271 O1311 2.468 1_655 S
Gd1271 O1312 2.427 1_655 S
Gd1271 O1314 2.388 . S
Gd1271 C1335 2.805 1_655 S
N1272 C1262 1.359 . S
N1272 Gd1271 2.570 . S
N1272 C1274 1.343 . S
C1273 C1261 1.422 . S
C1273 C1275 1.321 . S
C1273 H1281 0.931 . S
C1274 N1272 1.343 . S
C1274 C1275 1.390 . S
C1274 H1276 0.931 . S
C1275 C1273 1.321 . S
C1275 C1274 1.390 . S
C1275 H1277 0.930 . S
H1276 C1274 0.931 . S
H1277 C1275 0.930 . S
H1278 C1301 0.931 . S
H1279 C1267 0.929 . S
H1280 C1302 0.930 . S
H1281 C1273 0.931 . S
H1282 C1263 0.930 . S
H1283 C1292 0.929 . S
H1284 C1268 0.931 . S
H1285 C1269 0.930 . S
H1286 C1324 0.930 . S
H1287 C1265 0.929 . S
H1288 C1293 0.931 . S
H1289 C1294 0.930 . S
N1290 Gd1270 2.622 . S
N1290 C1291 1.369 . S
N1290 C1292 1.338 . S
C1291 N1290 1.369 . S
C1291 C1295 1.415 . S
C1291 C1298 1.422 . S
C1292 H1283 0.929 . S
C1292 N1290 1.338 . S
C1292 C1294 1.378 . S
C1293 H1288 0.931 . S
C1293 C1294 1.348 . S
C1293 C1295 1.413 . S
C1294 H1289 0.930 . S
C1294 C1292 1.378 . S
C1294 C1293 1.348 . S
C1295 C1291 1.415 . S
C1295 C1293 1.413 . S
C1295 C1325 1.437 . S
H1296 C1325 0.929 . S
N1297 Gd1270 2.570 . S
N1297 C1298 1.359 . S
N1297 C1301 1.343 . S
C1298 C1291 1.422 . S
C1298 N1297 1.359 . S
C1298 C1300 1.421 . S
C1299 C1300 1.422 . S
C1299 C1302 1.321 . S
C1299 H1326 0.931 . S
C1300 C1298 1.421 . S
C1300 C1299 1.422 . S
C1300 C1324 1.417 . S
C1301 H1278 0.931 . S
C1301 N1297 1.343 . S
C1301 C1302 1.390 . S
C1302 H1280 0.930 . S
C1302 C1299 1.321 . S
C1302 C1301 1.390 . S
O1303 Gd1271 2.386 . S
O1303 C1315 1.265 . S
O1304 Gd1270 2.353 1_545 S
O1304 C1315 1.242 . S
O1305 Gd1270 2.468 . S
O1305 C1323 1.263 . S
O1306 Gd1270 2.427 . S
O1306 C1323 1.252 . S
O1307 Gd1271 2.307 . S
O1307 C1316 1.261 . S
O1308 Gd1270 2.388 1_545 S
O1308 C1316 1.252 . S
O1309 Gd1270 2.386 . S
O1309 C1327 1.265 . S
O1310 Gd1271 2.353 1_565 S
O1310 C1327 1.242 . S
O1311 Gd1271 2.468 1_455 S
O1311 C1335 1.263 . S
O1312 Gd1271 2.427 1_455 S
O1312 C1335 1.252 . S
O1313 Gd1270 2.307 . S
O1313 C1328 1.261 1_565 S
O1314 Gd1271 2.388 . S
O1314 C1328 1.252 . S
C1315 O1303 1.265 . S
C1315 O1304 1.242 . S
C1316 O1307 1.261 . S
C1316 O1308 1.252 . S
C1317 C1320 1.394 . S
C1317 C1322 1.370 . S
C1317 C1323 1.500 . S
C1318 C1321 1.383 . S
C1318 C1322 1.395 . S
C1319 C1320 1.396 . S
C1319 C1321 1.365 . S
C1319 H1336 0.929 . S
C1320 C1317 1.394 . S
C1320 C1319 1.396 . S
C1320 H1337 0.930 . S
C1321 C1318 1.383 . S
C1321 C1319 1.365 . S
C1321 H1338 0.931 . S
C1322 C1317 1.370 . S
C1322 C1318 1.395 . S
C1322 H1339 0.930 . S
C1323 Gd1270 2.805 . S
C1323 O1305 1.263 . S
C1323 O1306 1.252 . S
C1323 C1317 1.500 . S
C1324 H1286 0.930 . S
C1324 C1300 1.417 . S
C1324 C1325 1.329 . S
C1325 C1295 1.437 . S
C1325 H1296 0.929 . S
C1325 C1324 1.329 . S
H1326 C1299 0.931 . S
C1327 O1309 1.265 . S
C1327 O1310 1.242 . S
C1328 O1313 1.261 1_545 S
C1328 O1314 1.252 . S
C1329 C1332 1.394 . S
C1329 C1334 1.370 . S
C1329 C1335 1.500 . S
C1330 C1333 1.383 . S
C1330 C1334 1.395 . S
C1331 C1332 1.396 . S
C1331 C1333 1.365 . S
C1331 H1340 0.929 . S
C1332 C1329 1.394 . S
C1332 C1331 1.396 . S
C1332 H1341 0.930 . S
C1333 C1330 1.383 . S
C1333 C1331 1.365 . S
C1333 H1342 0.931 . S
C1334 C1329 1.370 . S
C1334 C1330 1.395 . S
C1334 H1343 0.930 . S
C1335 Gd1271 2.805 1_455 S
C1335 O1311 1.263 . S
C1335 O1312 1.252 . S
C1335 C1329 1.500 . S
H1336 C1319 0.929 . S
H1337 C1320 0.930 . S
H1338 C1321 0.931 . S
H1339 C1322 0.930 . S
H1340 C1331 0.929 . S
H1341 C1332 0.930 . S
H1342 C1333 0.931 . S
H1343 C1334 0.930 . S
C1344 C1346 1.422 . S
C1344 C1348 1.415 . S
C1344 N1350 1.369 . S
C1345 C1346 1.421 . S
C1345 C1347 1.417 . S
C1345 C1357 1.422 . S
C1346 C1344 1.422 . S
C1346 C1345 1.421 . S
C1346 N1356 1.359 . S
C1347 C1345 1.417 . S
C1347 C1349 1.329 . S
C1347 H1366 0.930 . S
C1348 C1344 1.415 . S
C1348 C1349 1.437 . S
C1348 C1352 1.413 . S
C1349 C1347 1.329 . S
C1349 C1348 1.437 . S
C1349 H1371 0.929 . S
N1350 C1344 1.369 . S
N1350 C1351 1.338 . S
N1350 Gd1355 2.622 . S
C1351 N1350 1.338 . S
C1351 C1353 1.378 . S
C1351 H1363 0.929 . S
C1352 C1348 1.413 . S
C1352 C1353 1.348 . S
C1352 H1368 0.931 . S
C1353 C1351 1.378 . S
C1353 C1352 1.348 . S
C1353 H1369 0.930 . S
Gd1354 N1374 2.622 . S
Gd1354 N1381 2.570 . S
Gd1354 O1388 2.353 . S
Gd1354 O1389 2.468 . S
Gd1354 O1390 2.427 . S
Gd1354 O1392 2.388 . S
Gd1354 O1393 2.386 . S
Gd1354 O1397 2.307 . S
Gd1354 C1407 2.805 . S
Gd1355 N1350 2.622 . S
Gd1355 N1356 2.570 . S
Gd1355 O1387 2.386 . S
Gd1355 O1391 2.307 . S
Gd1355 O1394 2.353 . S
Gd1355 O1395 2.468 . S
Gd1355 O1396 2.427 . S
Gd1355 O1398 2.388 . S
Gd1355 C1419 2.805 . S
N1356 C1346 1.359 . S
N1356 Gd1355 2.570 . S
N1356 C1358 1.343 . S
C1357 C1345 1.422 . S
C1357 C1359 1.321 . S
C1357 H1365 0.931 . S
C1358 N1356 1.343 . S
C1358 C1359 1.390 . S
C1358 H1360 0.931 . S
C1359 C1357 1.321 . S
C1359 C1358 1.390 . S
C1359 H1361 0.930 . S
H1360 C1358 0.931 . S
H1361 C1359 0.930 . S
H1362 C1385 0.931 . S
H1363 C1351 0.929 . S
H1364 C1386 0.930 . S
H1365 C1357 0.931 . S
H1366 C1347 0.930 . S
H1367 C1376 0.929 . S
H1368 C1352 0.931 . S
H1369 C1353 0.930 . S
H1370 C1408 0.930 . S
H1371 C1349 0.929 . S
H1372 C1377 0.931 . S
H1373 C1378 0.930 . S
N1374 Gd1354 2.622 . S
N1374 C1375 1.369 . S
N1374 C1376 1.338 . S
C1375 N1374 1.369 . S
C1375 C1379 1.415 . S
C1375 C1382 1.422 . S
C1376 H1367 0.929 . S
C1376 N1374 1.338 . S
C1376 C1378 1.378 . S
C1377 H1372 0.931 . S
C1377 C1378 1.348 . S
C1377 C1379 1.413 . S
C1378 H1373 0.930 . S
C1378 C1376 1.378 . S
C1378 C1377 1.348 . S
C1379 C1375 1.415 . S
C1379 C1377 1.413 . S
C1379 C1409 1.437 . S
H1380 C1409 0.929 . S
N1381 Gd1354 2.570 . S
N1381 C1382 1.359 . S
N1381 C1385 1.343 . S
C1382 C1375 1.422 . S
C1382 N1381 1.359 . S
C1382 C1384 1.421 . S
C1383 C1384 1.422 . S
C1383 C1386 1.321 . S
C1383 H1410 0.931 . S
C1384 C1382 1.421 . S
C1384 C1383 1.422 . S
C1384 C1408 1.417 . S
C1385 H1362 0.931 . S
C1385 N1381 1.343 . S
C1385 C1386 1.390 . S
C1386 H1364 0.930 . S
C1386 C1383 1.321 . S
C1386 C1385 1.390 . S
O1387 Gd1355 2.386 . S
O1387 C1399 1.265 . S
O1388 Gd1354 2.353 . S
O1388 C1399 1.242 . S
O1389 Gd1354 2.468 . S
O1389 C1407 1.263 . S
O1390 Gd1354 2.427 . S
O1390 C1407 1.252 . S
O1391 Gd1355 2.307 . S
O1391 C1400 1.261 . S
O1392 Gd1354 2.388 . S
O1392 C1400 1.252 . S
O1393 Gd1354 2.386 . S
O1393 C1411 1.265 . S
O1394 Gd1355 2.353 . S
O1394 C1411 1.242 . S
O1395 Gd1355 2.468 . S
O1395 C1419 1.263 . S
O1396 Gd1355 2.427 . S
O1396 C1419 1.252 . S
O1397 Gd1354 2.307 . S
O1397 C1412 1.261 . S
O1398 Gd1355 2.388 . S
O1398 C1412 1.252 . S
C1399 O1387 1.265 . S
C1399 O1388 1.242 . S
C1400 O1391 1.261 . S
C1400 O1392 1.252 . S
C1401 C1404 1.394 . S
C1401 C1406 1.370 . S
C1401 C1407 1.500 . S
C1402 C1405 1.383 . S
C1402 C1406 1.395 1_455 S
C1403 C1404 1.407 . S
C1403 C1405 1.359 1_655 S
C1403 H1420 0.924 1_655 S
C1404 C1401 1.394 . S
C1404 C1403 1.407 . S
C1404 H1421 0.930 . S
C1405 C1402 1.383 . S
C1405 C1403 1.359 1_455 S
C1405 H1422 0.931 . S
C1406 C1401 1.370 . S
C1406 C1402 1.395 1_655 S
C1406 H1423 0.930 . S
C1407 Gd1354 2.805 . S
C1407 O1389 1.263 . S
C1407 O1390 1.252 . S
C1407 C1401 1.500 . S
C1408 H1370 0.930 . S
C1408 C1384 1.417 . S
C1408 C1409 1.329 . S
C1409 C1379 1.437 . S
C1409 H1380 0.929 . S
C1409 C1408 1.329 . S
H1410 C1383 0.931 . S
C1411 O1393 1.265 . S
C1411 O1394 1.242 . S
C1412 O1397 1.261 . S
C1412 O1398 1.252 . S
C1413 C1416 1.394 . S
C1413 C1418 1.370 . S
C1413 C1419 1.500 . S
C1414 C1417 1.383 . S
C1414 C1418 1.395 . S
C1415 C1416 1.396 . S
C1415 C1417 1.365 . S
C1415 H1424 0.929 . S
C1416 C1413 1.394 . S
C1416 C1415 1.396 . S
C1416 H1425 0.930 . S
C1417 C1414 1.383 . S
C1417 C1415 1.365 . S
C1417 H1426 0.931 1_455 S
C1418 C1413 1.370 . S
C1418 C1414 1.395 . S
C1418 H1427 0.930 . S
C1419 Gd1355 2.805 . S
C1419 O1395 1.263 . S
C1419 O1396 1.252 . S
C1419 C1413 1.500 . S
H1420 C1403 0.924 1_455 S
H1421 C1404 0.930 . S
H1422 C1405 0.931 . S
H1423 C1406 0.930 . S
H1424 C1415 0.929 . S
H1425 C1416 0.930 . S
H1426 C1417 0.931 1_655 S
H1427 C1418 0.930 . S
C1428 C1430 1.422 . S
C1428 C1432 1.415 . S
C1428 N1434 1.369 . S
C1429 C1430 1.421 . S
C1429 C1431 1.417 . S
C1429 C1441 1.422 . S
C1430 C1428 1.422 . S
C1430 C1429 1.421 . S
C1430 N1440 1.359 . S
C1431 C1429 1.417 . S
C1431 C1433 1.329 . S
C1431 H1450 0.930 . S
C1432 C1428 1.415 . S
C1432 C1433 1.437 . S
C1432 C1436 1.413 . S
C1433 C1431 1.329 . S
C1433 C1432 1.437 . S
C1433 H1455 0.929 . S
N1434 C1428 1.369 . S
N1434 C1435 1.338 . S
N1434 Gd1439 2.622 . S
C1435 N1434 1.338 . S
C1435 C1437 1.378 . S
C1435 H1447 0.929 . S
C1436 C1432 1.413 . S
C1436 C1437 1.348 . S
C1436 H1452 0.931 . S
C1437 C1435 1.378 . S
C1437 C1436 1.348 . S
C1437 H1453 0.930 . S
Gd1438 N1458 2.622 . S
Gd1438 N1465 2.570 . S
Gd1438 O1472 2.353 . S
Gd1438 O1473 2.468 . S
Gd1438 O1474 2.427 . S
Gd1438 O1476 2.388 . S
Gd1438 O1477 2.386 . S
Gd1438 O1481 2.307 . S
Gd1438 C1491 2.805 . S
Gd1439 N1434 2.622 . S
Gd1439 N1440 2.570 . S
Gd1439 O1471 2.386 . S
Gd1439 O1475 2.307 . S
Gd1439 O1478 2.353 . S
Gd1439 O1479 2.468 . S
Gd1439 O1480 2.427 . S
Gd1439 O1482 2.388 . S
Gd1439 C1503 2.805 . S
N1440 C1430 1.359 . S
N1440 Gd1439 2.570 . S
N1440 C1442 1.343 . S
C1441 C1429 1.422 . S
C1441 C1443 1.321 . S
C1441 H1449 0.931 . S
C1442 N1440 1.343 . S
C1442 C1443 1.390 . S
C1442 H1444 0.931 . S
C1443 C1441 1.321 . S
C1443 C1442 1.390 . S
C1443 H1445 0.930 . S
H1444 C1442 0.931 . S
H1445 C1443 0.930 . S
H1446 C1469 0.931 . S
H1447 C1435 0.929 . S
H1448 C1470 0.930 . S
H1449 C1441 0.931 . S
H1450 C1431 0.930 . S
H1451 C1460 0.929 . S
H1452 C1436 0.931 . S
H1453 C1437 0.930 . S
H1454 C1492 0.930 . S
H1455 C1433 0.929 . S
H1456 C1461 0.931 1_545 S
H1457 C1462 0.930 . S
N1458 Gd1438 2.622 . S
N1458 C1459 1.369 . S
N1458 C1460 1.338 . S
C1459 N1458 1.369 . S
C1459 C1463 1.415 1_565 S
C1459 C1466 1.422 . S
C1460 H1451 0.929 . S
C1460 N1458 1.338 . S
C1460 C1462 1.378 . S
C1461 H1456 0.931 1_565 S
C1461 C1462 1.348 . S
C1461 C1463 1.413 1_565 S
C1462 H1457 0.930 . S
C1462 C1460 1.378 . S
C1462 C1461 1.348 . S
C1463 C1459 1.415 1_545 S
C1463 C1461 1.413 1_545 S
C1463 C1493 1.437 . S
H1464 C1493 0.929 . S
N1465 Gd1438 2.570 . S
N1465 C1466 1.359 . S
N1465 C1469 1.343 . S
C1466 C1459 1.422 . S
C1466 N1465 1.359 . S
C1466 C1468 1.421 1_565 S
C1467 C1468 1.422 . S
C1467 C1470 1.321 . S
C1467 H1494 0.931 . S
C1468 C1466 1.421 1_545 S
C1468 C1467 1.422 . S
C1468 C1492 1.417 . S
C1469 H1446 0.931 . S
C1469 N1465 1.343 . S
C1469 C1470 1.390 1_565 S
C1470 H1448 0.930 . S
C1470 C1467 1.321 . S
C1470 C1469 1.390 1_545 S
O1471 Gd1439 2.386 . S
O1471 C1483 1.265 . S
O1472 Gd1438 2.353 . S
O1472 C1483 1.242 . S
O1473 Gd1438 2.468 . S
O1473 C1491 1.263 . S
O1474 Gd1438 2.427 . S
O1474 C1491 1.252 . S
O1475 Gd1439 2.307 . S
O1475 C1484 1.261 . S
O1476 Gd1438 2.388 . S
O1476 C1484 1.252 . S
O1477 Gd1438 2.386 . S
O1477 C1495 1.265 . S
O1478 Gd1439 2.353 . S
O1478 C1495 1.242 . S
O1479 Gd1439 2.468 . S
O1479 C1503 1.263 . S
O1480 Gd1439 2.427 . S
O1480 C1503 1.252 . S
O1481 Gd1438 2.307 . S
O1481 C1496 1.261 . S
O1482 Gd1439 2.388 . S
O1482 C1496 1.252 . S
C1483 O1471 1.265 . S
C1483 O1472 1.242 . S
C1484 O1475 1.261 . S
C1484 O1476 1.252 . S
C1485 C1488 1.394 . S
C1485 C1490 1.370 . S
C1485 C1491 1.500 . S
C1486 C1489 1.383 . S
C1486 C1490 1.395 . S
C1487 C1488 1.396 . S
C1487 C1489 1.365 . S
C1487 H1504 0.929 . S
C1488 C1485 1.394 . S
C1488 C1487 1.396 . S
C1488 H1505 0.930 . S
C1489 C1486 1.383 . S
C1489 C1487 1.365 . S
C1489 H1506 0.931 . S
C1490 C1485 1.370 . S
C1490 C1486 1.395 . S
C1490 H1507 0.930 . S
C1491 Gd1438 2.805 . S
C1491 O1473 1.263 . S
C1491 O1474 1.252 . S
C1491 C1485 1.500 . S
C1492 H1454 0.930 . S
C1492 C1468 1.417 . S
C1492 C1493 1.329 . S
C1493 C1463 1.437 . S
C1493 H1464 0.929 . S
C1493 C1492 1.329 . S
H1494 C1467 0.931 . S
C1495 O1477 1.265 . S
C1495 O1478 1.242 . S
C1496 O1481 1.261 . S
C1496 O1482 1.252 . S
C1497 C1500 1.394 . S
C1497 C1502 1.370 . S
C1497 C1503 1.500 1_455 S
C1498 C1501 1.383 . S
C1498 C1502 1.395 . S
C1499 C1500 1.396 . S
C1499 C1501 1.365 . S
C1499 H1508 0.929 . S
C1500 C1497 1.394 . S
C1500 C1499 1.396 . S
C1500 H1509 0.930 . S
C1501 C1498 1.383 . S
C1501 C1499 1.365 . S
C1501 H1510 0.931 . S
C1502 C1497 1.370 . S
C1502 C1498 1.395 . S
C1502 H1511 0.930 . S
C1503 Gd1439 2.805 . S
C1503 O1479 1.263 . S
C1503 O1480 1.252 . S
C1503 C1497 1.500 1_655 S
H1504 C1487 0.929 . S
H1505 C1488 0.930 . S
H1506 C1489 0.931 . S
H1507 C1490 0.930 . S
H1508 C1499 0.929 . S
H1509 C1500 0.930 . S
H1510 C1501 0.931 . S
H1511 C1502 0.930 . S
C1512 C1514 1.422 . S
C1512 C1516 1.415 . S
C1512 N1518 1.369 . S
C1513 C1514 1.421 . S
C1513 C1515 1.417 . S
C1513 C1525 1.422 . S
C1514 C1512 1.422 . S
C1514 C1513 1.421 . S
C1514 N1524 1.359 . S
C1515 C1513 1.417 . S
C1515 C1517 1.329 . S
C1515 H1534 0.930 . S
C1516 C1512 1.415 . S
C1516 C1517 1.437 . S
C1516 C1520 1.413 . S
C1517 C1515 1.329 . S
C1517 C1516 1.437 . S
C1517 H1539 0.929 . S
N1518 C1512 1.369 . S
N1518 C1519 1.338 . S
N1518 Gd1523 2.622 . S
C1519 N1518 1.338 . S
C1519 C1521 1.378 . S
C1519 H1531 0.929 . S
C1520 C1516 1.413 . S
C1520 C1521 1.348 . S
C1520 H1536 0.931 . S
C1521 C1519 1.378 . S
C1521 C1520 1.348 . S
C1521 H1537 0.930 . S
Gd1522 N1542 2.622 . S
Gd1522 N1549 2.570 . S
Gd1522 O1556 2.353 . S
Gd1522 O1557 2.468 . S
Gd1522 O1558 2.427 . S
Gd1522 O1560 2.388 . S
Gd1522 O1561 2.386 . S
Gd1522 O1565 2.307 . S
Gd1522 C1575 2.805 . S
Gd1523 N1518 2.622 . S
Gd1523 N1524 2.570 . S
Gd1523 O1555 2.386 . S
Gd1523 O1559 2.307 . S
Gd1523 O1562 2.353 . S
Gd1523 O1563 2.468 . S
Gd1523 O1564 2.427 . S
Gd1523 O1566 2.388 . S
Gd1523 C1587 2.805 . S
N1524 C1514 1.359 . S
N1524 Gd1523 2.570 . S
N1524 C1526 1.343 . S
C1525 C1513 1.422 . S
C1525 C1527 1.321 . S
C1525 H1533 0.931 . S
C1526 N1524 1.343 . S
C1526 C1527 1.390 . S
C1526 H1528 0.931 . S
C1527 C1525 1.321 . S
C1527 C1526 1.390 . S
C1527 H1529 0.930 . S
H1528 C1526 0.931 . S
H1529 C1527 0.930 . S
H1530 C1553 0.931 . S
H1531 C1519 0.929 . S
H1532 C1554 0.930 . S
H1533 C1525 0.931 . S
H1534 C1515 0.930 . S
H1535 C1544 0.929 . S
H1536 C1520 0.931 . S
H1537 C1521 0.930 . S
H1538 C1576 0.930 . S
H1539 C1517 0.929 . S
H1540 C1545 0.931 1_545 S
H1541 C1546 0.930 . S
N1542 Gd1522 2.622 . S
N1542 C1543 1.369 . S
N1542 C1544 1.338 . S
C1543 N1542 1.369 . S
C1543 C1547 1.415 1_565 S
C1543 C1550 1.422 . S
C1544 H1535 0.929 . S
C1544 N1542 1.338 . S
C1544 C1546 1.378 . S
C1545 H1540 0.931 1_565 S
C1545 C1546 1.348 . S
C1545 C1547 1.413 1_565 S
C1546 H1541 0.930 . S
C1546 C1544 1.378 . S
C1546 C1545 1.348 . S
C1547 C1543 1.415 1_545 S
C1547 C1545 1.413 1_545 S
C1547 C1577 1.437 . S
H1548 C1577 0.929 . S
N1549 Gd1522 2.570 . S
N1549 C1550 1.359 . S
N1549 C1553 1.343 . S
C1550 C1543 1.422 . S
C1550 N1549 1.359 . S
C1550 C1552 1.421 1_565 S
C1551 C1552 1.422 . S
C1551 C1554 1.321 . S
C1551 H1578 0.931 . S
C1552 C1550 1.421 1_545 S
C1552 C1551 1.422 . S
C1552 C1576 1.417 . S
C1553 H1530 0.931 . S
C1553 N1549 1.343 . S
C1553 C1554 1.390 1_565 S
C1554 H1532 0.930 . S
C1554 C1551 1.321 . S
C1554 C1553 1.390 1_545 S
O1555 Gd1523 2.386 . S
O1555 C1567 1.265 . S
O1556 Gd1522 2.353 . S
O1556 C1567 1.242 . S
O1557 Gd1522 2.468 . S
O1557 C1575 1.263 . S
O1558 Gd1522 2.427 . S
O1558 C1575 1.252 . S
O1559 Gd1523 2.307 . S
O1559 C1568 1.261 . S
O1560 Gd1522 2.388 . S
O1560 C1568 1.252 . S
O1561 Gd1522 2.386 . S
O1561 C1579 1.265 . S
O1562 Gd1523 2.353 . S
O1562 C1579 1.242 . S
O1563 Gd1523 2.468 . S
O1563 C1587 1.263 . S
O1564 Gd1523 2.427 . S
O1564 C1587 1.252 . S
O1565 Gd1522 2.307 . S
O1565 C1580 1.261 . S
O1566 Gd1523 2.388 . S
O1566 C1580 1.252 . S
C1567 O1555 1.265 . S
C1567 O1556 1.242 . S
C1568 O1559 1.261 . S
C1568 O1560 1.252 . S
C1569 C1572 1.394 . S
C1569 C1574 1.370 . S
C1569 C1575 1.500 . S
C1570 C1573 1.383 . S
C1570 C1574 1.395 1_455 S
C1571 C1572 1.407 . S
C1571 C1573 1.359 1_655 S
C1571 H1588 0.924 1_655 S
C1572 C1569 1.394 . S
C1572 C1571 1.407 . S
C1572 H1589 0.930 . S
C1573 C1570 1.383 . S
C1573 C1571 1.359 1_455 S
C1573 H1590 0.931 . S
C1574 C1569 1.370 . S
C1574 C1570 1.395 1_655 S
C1574 H1591 0.930 . S
C1575 Gd1522 2.805 . S
C1575 O1557 1.263 . S
C1575 O1558 1.252 . S
C1575 C1569 1.500 . S
C1576 H1538 0.930 . S
C1576 C1552 1.417 . S
C1576 C1577 1.329 . S
C1577 C1547 1.437 . S
C1577 H1548 0.929 . S
C1577 C1576 1.329 . S
H1578 C1551 0.931 . S
C1579 O1561 1.265 . S
C1579 O1562 1.242 . S
C1580 O1565 1.261 . S
C1580 O1566 1.252 . S
C1581 C1584 1.394 . S
C1581 C1586 1.370 . S
C1581 C1587 1.500 . S
C1582 C1585 1.383 . S
C1582 C1586 1.395 . S
C1583 C1584 1.396 . S
C1583 C1585 1.365 . S
C1583 H1592 0.929 . S
C1584 C1581 1.394 . S
C1584 C1583 1.396 . S
C1584 H1593 0.930 . S
C1585 C1582 1.383 . S
C1585 C1583 1.365 . S
C1585 H1594 0.931 1_455 S
C1586 C1581 1.370 . S
C1586 C1582 1.395 . S
C1586 H1595 0.930 . S
C1587 Gd1523 2.805 . S
C1587 O1563 1.263 . S
C1587 O1564 1.252 . S
C1587 C1581 1.500 . S
H1588 C1571 0.924 1_455 S
H1589 C1572 0.930 . S
H1590 C1573 0.931 . S
H1591 C1574 0.930 . S
H1592 C1583 0.929 . S
H1593 C1584 0.930 . S
H1594 C1585 0.931 1_655 S
H1595 C1586 0.930 . S
C1596 C1598 1.422 . S
C1596 C1600 1.415 . S
C1596 N1602 1.369 . S
C1597 C1598 1.421 . S
C1597 C1599 1.417 . S
C1597 C1609 1.422 . S
C1598 C1596 1.422 . S
C1598 C1597 1.421 . S
C1598 N1608 1.359 . S
C1599 C1597 1.417 . S
C1599 C1601 1.329 . S
C1599 H1618 0.930 . S
C1600 C1596 1.415 . S
C1600 C1601 1.437 . S
C1600 C1604 1.413 . S
C1601 C1599 1.329 . S
C1601 C1600 1.437 . S
C1601 H1623 0.929 . S
N1602 C1596 1.369 . S
N1602 C1603 1.338 . S
N1602 Gd1607 2.622 . S
C1603 N1602 1.338 . S
C1603 C1605 1.378 . S
C1603 H1615 0.929 . S
C1604 C1600 1.413 . S
C1604 C1605 1.348 . S
C1604 H1620 0.931 . S
C1605 C1603 1.378 . S
C1605 C1604 1.348 . S
C1605 H1621 0.930 . S
Gd1606 N1626 2.622 . S
Gd1606 N1633 2.570 . S
Gd1606 O1640 2.353 . S
Gd1606 O1641 2.468 . S
Gd1606 O1642 2.427 . S
Gd1606 O1644 2.388 . S
Gd1606 O1645 2.386 . S
Gd1606 O1649 2.307 . S
Gd1606 C1659 2.805 . S
Gd1607 N1602 2.622 . S
Gd1607 N1608 2.570 . S
Gd1607 O1639 2.386 . S
Gd1607 O1643 2.307 . S
Gd1607 O1646 2.353 . S
Gd1607 O1647 2.468 . S
Gd1607 O1648 2.427 . S
Gd1607 O1650 2.388 . S
Gd1607 C1671 2.805 . S
N1608 C1598 1.359 . S
N1608 Gd1607 2.570 . S
N1608 C1610 1.343 . S
C1609 C1597 1.422 . S
C1609 C1611 1.321 . S
C1609 H1617 0.931 . S
C1610 N1608 1.343 . S
C1610 C1611 1.390 . S
C1610 H1612 0.931 . S
C1611 C1609 1.321 . S
C1611 C1610 1.390 . S
C1611 H1613 0.930 . S
H1612 C1610 0.931 . S
H1613 C1611 0.930 . S
H1614 C1637 0.931 . S
H1615 C1603 0.929 . S
H1616 C1638 0.930 . S
H1617 C1609 0.931 . S
H1618 C1599 0.930 . S
H1619 C1628 0.929 . S
H1620 C1604 0.931 . S
H1621 C1605 0.930 . S
H1622 C1660 0.930 . S
H1623 C1601 0.929 . S
H1624 C1629 0.931 . S
H1625 C1630 0.930 . S
N1626 Gd1606 2.622 . S
N1626 C1627 1.369 . S
N1626 C1628 1.338 . S
C1627 N1626 1.369 . S
C1627 C1631 1.415 . S
C1627 C1634 1.422 . S
C1628 H1619 0.929 . S
C1628 N1626 1.338 . S
C1628 C1630 1.378 . S
C1629 H1624 0.931 . S
C1629 C1630 1.348 . S
C1629 C1631 1.413 . S
C1630 H1625 0.930 . S
C1630 C1628 1.378 . S
C1630 C1629 1.348 . S
C1631 C1627 1.415 . S
C1631 C1629 1.413 . S
C1631 C1661 1.437 . S
H1632 C1661 0.929 . S
N1633 Gd1606 2.570 . S
N1633 C1634 1.359 . S
N1633 C1637 1.343 . S
C1634 C1627 1.422 . S
C1634 N1633 1.359 . S
C1634 C1636 1.421 . S
C1635 C1636 1.422 . S
C1635 C1638 1.321 . S
C1635 H1662 0.931 . S
C1636 C1634 1.421 . S
C1636 C1635 1.422 . S
C1636 C1660 1.417 . S
C1637 H1614 0.931 . S
C1637 N1633 1.343 . S
C1637 C1638 1.390 . S
C1638 H1616 0.930 . S
C1638 C1635 1.321 . S
C1638 C1637 1.390 . S
O1639 Gd1607 2.386 . S
O1639 C1651 1.265 . S
O1640 Gd1606 2.353 . S
O1640 C1651 1.242 . S
O1641 Gd1606 2.468 . S
O1641 C1659 1.263 . S
O1642 Gd1606 2.427 . S
O1642 C1659 1.252 . S
O1643 Gd1607 2.307 . S
O1643 C1652 1.261 . S
O1644 Gd1606 2.388 . S
O1644 C1652 1.252 . S
O1645 Gd1606 2.386 . S
O1645 C1663 1.265 . S
O1646 Gd1607 2.353 . S
O1646 C1663 1.242 . S
O1647 Gd1607 2.468 . S
O1647 C1671 1.263 . S
O1648 Gd1607 2.427 . S
O1648 C1671 1.252 . S
O1649 Gd1606 2.307 . S
O1649 C1664 1.261 . S
O1650 Gd1607 2.388 . S
O1650 C1664 1.252 . S
C1651 O1639 1.265 . S
C1651 O1640 1.242 . S
C1652 O1643 1.261 . S
C1652 O1644 1.252 . S
C1653 C1656 1.394 . S
C1653 C1658 1.370 . S
C1653 C1659 1.500 . S
C1654 C1657 1.383 . S
C1654 C1658 1.395 . S
C1655 C1656 1.396 . S
C1655 C1657 1.365 . S
C1655 H1672 0.929 . S
C1656 C1653 1.394 . S
C1656 C1655 1.396 . S
C1656 H1673 0.930 . S
C1657 C1654 1.383 . S
C1657 C1655 1.365 . S
C1657 H1674 0.931 . S
C1658 C1653 1.370 . S
C1658 C1654 1.395 . S
C1658 H1675 0.930 . S
C1659 Gd1606 2.805 . S
C1659 O1641 1.263 . S
C1659 O1642 1.252 . S
C1659 C1653 1.500 . S
C1660 H1622 0.930 . S
C1660 C1636 1.417 . S
C1660 C1661 1.329 . S
C1661 C1631 1.437 . S
C1661 H1632 0.929 . S
C1661 C1660 1.329 . S
H1662 C1635 0.931 . S
C1663 O1645 1.265 . S
C1663 O1646 1.242 . S
C1664 O1649 1.261 . S
C1664 O1650 1.252 . S
C1665 C1668 1.394 . S
C1665 C1670 1.370 . S
C1665 C1671 1.500 1_455 S
C1666 C1669 1.383 . S
C1666 C1670 1.395 . S
C1667 C1668 1.396 . S
C1667 C1669 1.365 . S
C1667 H1676 0.929 . S
C1668 C1665 1.394 . S
C1668 C1667 1.396 . S
C1668 H1677 0.930 . S
C1669 C1666 1.383 . S
C1669 C1667 1.365 . S
C1669 H1678 0.931 . S
C1670 C1665 1.370 . S
C1670 C1666 1.395 . S
C1670 H1679 0.930 . S
C1671 Gd1607 2.805 . S
C1671 O1647 1.263 . S
C1671 O1648 1.252 . S
C1671 C1665 1.500 1_655 S
H1672 C1655 0.929 . S
H1673 C1656 0.930 . S
H1674 C1657 0.931 . S
H1675 C1658 0.930 . S
H1676 C1667 0.929 . S
H1677 C1668 0.930 . S
H1678 C1669 0.931 . S
H1679 C1670 0.930 . S
C1680 C1682 1.422 . S
C1680 C1684 1.415 . S
C1680 N1686 1.369 . S
C1681 C1682 1.421 . S
C1681 C1683 1.417 . S
C1681 C1693 1.422 . S
C1682 C1680 1.422 . S
C1682 C1681 1.421 . S
C1682 N1692 1.359 . S
C1683 C1681 1.417 . S
C1683 C1685 1.329 . S
C1683 H1702 0.930 . S
C1684 C1680 1.415 . S
C1684 C1685 1.437 . S
C1684 C1688 1.413 . S
C1685 C1683 1.329 . S
C1685 C1684 1.437 . S
C1685 H1707 0.929 . S
N1686 C1680 1.369 . S
N1686 C1687 1.338 . S
N1686 Gd1691 2.622 . S
C1687 N1686 1.338 . S
C1687 C1689 1.378 . S
C1687 H1699 0.929 . S
C1688 C1684 1.413 . S
C1688 C1689 1.348 . S
C1688 H1704 0.931 . S
C1689 C1687 1.378 . S
C1689 C1688 1.348 . S
C1689 H1705 0.930 . S
Gd1690 N1710 2.622 . S
Gd1690 N1717 2.570 . S
Gd1690 O1724 2.353 . S
Gd1690 O1725 2.468 . S
Gd1690 O1726 2.427 . S
Gd1690 O1728 2.388 . S
Gd1690 O1729 2.386 . S
Gd1690 O1733 2.307 . S
Gd1690 C1743 2.805 . S
Gd1691 N1686 2.622 . S
Gd1691 N1692 2.570 . S
Gd1691 O1723 2.386 . S
Gd1691 O1727 2.307 . S
Gd1691 O1730 2.353 . S
Gd1691 O1731 2.468 . S
Gd1691 O1732 2.427 . S
Gd1691 O1734 2.388 . S
Gd1691 C1755 2.805 . S
N1692 C1682 1.359 . S
N1692 Gd1691 2.570 . S
N1692 C1694 1.343 . S
C1693 C1681 1.422 . S
C1693 C1695 1.321 . S
C1693 H1701 0.931 . S
C1694 N1692 1.343 . S
C1694 C1695 1.390 . S
C1694 H1696 0.931 . S
C1695 C1693 1.321 . S
C1695 C1694 1.390 . S
C1695 H1697 0.930 . S
H1696 C1694 0.931 . S
H1697 C1695 0.930 . S
H1698 C1721 0.931 . S
H1699 C1687 0.929 . S
H1700 C1722 0.930 . S
H1701 C1693 0.931 . S
H1702 C1683 0.930 . S
H1703 C1712 0.929 . S
H1704 C1688 0.931 . S
H1705 C1689 0.930 . S
H1706 C1744 0.930 . S
H1707 C1685 0.929 . S
H1708 C1713 0.931 . S
H1709 C1714 0.930 . S
N1710 Gd1690 2.622 . S
N1710 C1711 1.369 . S
N1710 C1712 1.338 . S
C1711 N1710 1.369 . S
C1711 C1715 1.415 . S
C1711 C1718 1.422 . S
C1712 H1703 0.929 . S
C1712 N1710 1.338 . S
C1712 C1714 1.378 . S
C1713 H1708 0.931 . S
C1713 C1714 1.348 . S
C1713 C1715 1.413 . S
C1714 H1709 0.930 . S
C1714 C1712 1.378 . S
C1714 C1713 1.348 . S
C1715 C1711 1.415 . S
C1715 C1713 1.413 . S
C1715 C1745 1.437 . S
H1716 C1745 0.929 . S
N1717 Gd1690 2.570 . S
N1717 C1718 1.359 . S
N1717 C1721 1.343 . S
C1718 C1711 1.422 . S
C1718 N1717 1.359 . S
C1718 C1720 1.421 . S
C1719 C1720 1.422 . S
C1719 C1722 1.321 . S
C1719 H1746 0.931 . S
C1720 C1718 1.421 . S
C1720 C1719 1.422 . S
C1720 C1744 1.417 . S
C1721 H1698 0.931 . S
C1721 N1717 1.343 . S
C1721 C1722 1.390 . S
C1722 H1700 0.930 . S
C1722 C1719 1.321 . S
C1722 C1721 1.390 . S
O1723 Gd1691 2.386 . S
O1723 C1735 1.265 . S
O1724 Gd1690 2.353 . S
O1724 C1735 1.242 . S
O1725 Gd1690 2.468 . S
O1725 C1743 1.263 . S
O1726 Gd1690 2.427 . S
O1726 C1743 1.252 . S
O1727 Gd1691 2.307 . S
O1727 C1736 1.261 . S
O1728 Gd1690 2.388 . S
O1728 C1736 1.252 . S
O1729 Gd1690 2.386 . S
O1729 C1747 1.265 . S
O1730 Gd1691 2.353 . S
O1730 C1747 1.242 . S
O1731 Gd1691 2.468 . S
O1731 C1755 1.263 . S
O1732 Gd1691 2.427 . S
O1732 C1755 1.252 . S
O1733 Gd1690 2.307 . S
O1733 C1748 1.261 . S
O1734 Gd1691 2.388 . S
O1734 C1748 1.252 . S
C1735 O1723 1.265 . S
C1735 O1724 1.242 . S
C1736 O1727 1.261 . S
C1736 O1728 1.252 . S
C1737 C1740 1.394 . S
C1737 C1742 1.370 . S
C1737 C1743 1.500 . S
C1738 C1741 1.383 . S
C1738 C1742 1.395 . S
C1739 C1740 1.396 . S
C1739 C1741 1.365 . S
C1739 H1756 0.929 . S
C1740 C1737 1.394 . S
C1740 C1739 1.396 . S
C1740 H1757 0.930 . S
C1741 C1738 1.383 . S
C1741 C1739 1.365 . S
C1741 H1758 0.931 1_655 S
C1742 C1737 1.370 . S
C1742 C1738 1.395 . S
C1742 H1759 0.930 . S
C1743 Gd1690 2.805 . S
C1743 O1725 1.263 . S
C1743 O1726 1.252 . S
C1743 C1737 1.500 . S
C1744 H1706 0.930 . S
C1744 C1720 1.417 . S
C1744 C1745 1.329 . S
C1745 C1715 1.437 . S
C1745 H1716 0.929 . S
C1745 C1744 1.329 . S
H1746 C1719 0.931 . S
C1747 O1729 1.265 . S
C1747 O1730 1.242 . S
C1748 O1733 1.261 . S
C1748 O1734 1.252 . S
C1749 C1752 1.394 . S
C1749 C1754 1.370 . S
C1749 C1755 1.500 . S
C1750 C1753 1.383 . S
C1750 C1754 1.395 1_655 S
C1751 C1752 1.407 . S
C1751 C1753 1.359 1_455 S
C1751 H1760 0.924 1_455 S
C1752 C1749 1.394 . S
C1752 C1751 1.407 . S
C1752 H1761 0.930 . S
C1753 C1750 1.383 . S
C1753 C1751 1.359 1_655 S
C1753 H1762 0.931 . S
C1754 C1749 1.370 . S
C1754 C1750 1.395 1_455 S
C1754 H1763 0.930 . S
C1755 Gd1691 2.805 . S
C1755 O1731 1.263 . S
C1755 O1732 1.252 . S
C1755 C1749 1.500 . S
H1756 C1739 0.929 . S
H1757 C1740 0.930 . S
H1758 C1741 0.931 1_455 S
H1759 C1742 0.930 . S
H1760 C1751 0.924 1_655 S
H1761 C1752 0.930 . S
H1762 C1753 0.931 . S
H1763 C1754 0.930 . S
C1764 C1766 1.422 . S
C1764 C1768 1.415 1_545 S
C1764 N1770 1.369 . S
C1765 C1766 1.421 1_565 S
C1765 C1767 1.417 . S
C1765 C1777 1.422 . S
C1766 C1764 1.422 . S
C1766 C1765 1.421 1_545 S
C1766 N1776 1.359 . S
C1767 C1765 1.417 . S
C1767 C1769 1.329 . S
C1767 H1786 0.930 . S
C1768 C1764 1.415 1_565 S
C1768 C1769 1.437 . S
C1768 C1772 1.413 1_565 S
C1769 C1767 1.329 . S
C1769 C1768 1.437 . S
C1769 H1791 0.929 . S
N1770 C1764 1.369 . S
N1770 C1771 1.338 . S
N1770 Gd1775 2.622 . S
C1771 N1770 1.338 . S
C1771 C1773 1.378 . S
C1771 H1783 0.929 . S
C1772 C1768 1.413 1_545 S
C1772 C1773 1.348 . S
C1772 H1788 0.931 1_545 S
C1773 C1771 1.378 . S
C1773 C1772 1.348 . S
C1773 H1789 0.930 . S
Gd1774 N1794 2.622 . S
Gd1774 N1801 2.570 . S
Gd1774 O1808 2.353 . S
Gd1774 O1809 2.468 . S
Gd1774 O1810 2.427 . S
Gd1774 O1812 2.388 . S
Gd1774 O1813 2.386 . S
Gd1774 O1817 2.307 . S
Gd1774 C1827 2.805 . S
Gd1775 N1770 2.622 . S
Gd1775 N1776 2.570 . S
Gd1775 O1807 2.386 . S
Gd1775 O1811 2.307 . S
Gd1775 O1814 2.353 . S
Gd1775 O1815 2.468 . S
Gd1775 O1816 2.427 . S
Gd1775 O1818 2.388 . S
Gd1775 C1839 2.805 . S
N1776 C1766 1.359 . S
N1776 Gd1775 2.570 . S
N1776 C1778 1.343 . S
C1777 C1765 1.422 . S
C1777 C1779 1.321 . S
C1777 H1785 0.931 . S
C1778 N1776 1.343 . S
C1778 C1779 1.390 1_545 S
C1778 H1780 0.931 . S
C1779 C1777 1.321 . S
C1779 C1778 1.390 1_565 S
C1779 H1781 0.930 . S
H1780 C1778 0.931 . S
H1781 C1779 0.930 . S
H1782 C1805 0.931 . S
H1783 C1771 0.929 . S
H1784 C1806 0.930 . S
H1785 C1777 0.931 . S
H1786 C1767 0.930 . S
H1787 C1796 0.929 . S
H1788 C1772 0.931 1_565 S
H1789 C1773 0.930 . S
H1790 C1828 0.930 . S
H1791 C1769 0.929 . S
H1792 C1797 0.931 . S
H1793 C1798 0.930 . S
N1794 Gd1774 2.622 . S
N1794 C1795 1.369 . S
N1794 C1796 1.338 . S
C1795 N1794 1.369 . S
C1795 C1799 1.415 . S
C1795 C1802 1.422 . S
C1796 H1787 0.929 . S
C1796 N1794 1.338 . S
C1796 C1798 1.378 . S
C1797 H1792 0.931 . S
C1797 C1798 1.348 . S
C1797 C1799 1.413 . S
C1798 H1793 0.930 . S
C1798 C1796 1.378 . S
C1798 C1797 1.348 . S
C1799 C1795 1.415 . S
C1799 C1797 1.413 . S
C1799 C1829 1.437 . S
H1800 C1829 0.929 . S
N1801 Gd1774 2.570 . S
N1801 C1802 1.359 . S
N1801 C1805 1.343 . S
C1802 C1795 1.422 . S
C1802 N1801 1.359 . S
C1802 C1804 1.421 . S
C1803 C1804 1.422 . S
C1803 C1806 1.321 . S
C1803 H1830 0.931 . S
C1804 C1802 1.421 . S
C1804 C1803 1.422 . S
C1804 C1828 1.417 . S
C1805 H1782 0.931 . S
C1805 N1801 1.343 . S
C1805 C1806 1.390 . S
C1806 H1784 0.930 . S
C1806 C1803 1.321 . S
C1806 C1805 1.390 . S
O1807 Gd1775 2.386 . S
O1807 C1819 1.265 . S
O1808 Gd1774 2.353 . S
O1808 C1819 1.242 . S
O1809 Gd1774 2.468 . S
O1809 C1827 1.263 . S
O1810 Gd1774 2.427 . S
O1810 C1827 1.252 . S
O1811 Gd1775 2.307 . S
O1811 C1820 1.261 . S
O1812 Gd1774 2.388 . S
O1812 C1820 1.252 . S
O1813 Gd1774 2.386 . S
O1813 C1831 1.265 . S
O1814 Gd1775 2.353 . S
O1814 C1831 1.242 . S
O1815 Gd1775 2.468 . S
O1815 C1839 1.263 . S
O1816 Gd1775 2.427 . S
O1816 C1839 1.252 . S
O1817 Gd1774 2.307 . S
O1817 C1832 1.261 . S
O1818 Gd1775 2.388 . S
O1818 C1832 1.252 . S
C1819 O1807 1.265 . S
C1819 O1808 1.242 . S
C1820 O1811 1.261 . S
C1820 O1812 1.252 . S
C1821 C1824 1.394 . S
C1821 C1826 1.370 . S
C1821 C1827 1.500 1_655 S
C1822 C1825 1.383 . S
C1822 C1826 1.395 . S
C1823 C1824 1.396 . S
C1823 C1825 1.365 . S
C1823 H1840 0.929 . S
C1824 C1821 1.394 . S
C1824 C1823 1.396 . S
C1824 H1841 0.930 . S
C1825 C1822 1.383 . S
C1825 C1823 1.365 . S
C1825 H1842 0.931 . S
C1826 C1821 1.370 . S
C1826 C1822 1.395 . S
C1826 H1843 0.930 . S
C1827 Gd1774 2.805 . S
C1827 O1809 1.263 . S
C1827 O1810 1.252 . S
C1827 C1821 1.500 1_455 S
C1828 H1790 0.930 . S
C1828 C1804 1.417 . S
C1828 C1829 1.329 . S
C1829 C1799 1.437 . S
C1829 H1800 0.929 . S
C1829 C1828 1.329 . S
H1830 C1803 0.931 . S
C1831 O1813 1.265 . S
C1831 O1814 1.242 . S
C1832 O1817 1.261 . S
C1832 O1818 1.252 . S
C1833 C1836 1.394 . S
C1833 C1838 1.370 . S
C1833 C1839 1.500 . S
C1834 C1837 1.383 . S
C1834 C1838 1.395 . S
C1835 C1836 1.396 . S
C1835 C1837 1.365 . S
C1835 H1844 0.929 . S
C1836 C1833 1.394 . S
C1836 C1835 1.396 . S
C1836 H1845 0.930 . S
C1837 C1834 1.383 . S
C1837 C1835 1.365 . S
C1837 H1846 0.931 . S
C1838 C1833 1.370 . S
C1838 C1834 1.395 . S
C1838 H1847 0.930 . S
C1839 Gd1775 2.805 . S
C1839 O1815 1.263 . S
C1839 O1816 1.252 . S
C1839 C1833 1.500 . S
H1840 C1823 0.929 . S
H1841 C1824 0.930 . S
H1842 C1825 0.931 . S
H1843 C1826 0.930 . S
H1844 C1835 0.929 . S
H1845 C1836 0.930 . S
H1846 C1837 0.931 . S
H1847 C1838 0.930 . S
C1848 C1850 1.422 . S
C1848 C1852 1.415 1_545 S
C1848 N1854 1.369 . S
C1849 C1850 1.421 1_565 S
C1849 C1851 1.417 . S
C1849 C1861 1.422 . S
C1850 C1848 1.422 . S
C1850 C1849 1.421 1_545 S
C1850 N1860 1.359 . S
C1851 C1849 1.417 . S
C1851 C1853 1.329 . S
C1851 H1870 0.930 . S
C1852 C1848 1.415 1_565 S
C1852 C1853 1.437 . S
C1852 C1856 1.413 1_565 S
C1853 C1851 1.329 . S
C1853 C1852 1.437 . S
C1853 H1875 0.929 . S
N1854 C1848 1.369 . S
N1854 C1855 1.338 . S
N1854 Gd1859 2.622 . S
C1855 N1854 1.338 . S
C1855 C1857 1.378 . S
C1855 H1867 0.929 . S
C1856 C1852 1.413 1_545 S
C1856 C1857 1.348 . S
C1856 H1872 0.931 1_545 S
C1857 C1855 1.378 . S
C1857 C1856 1.348 . S
C1857 H1873 0.930 . S
Gd1858 N1878 2.622 . S
Gd1858 N1885 2.570 . S
Gd1858 O1892 2.353 . S
Gd1858 O1893 2.468 . S
Gd1858 O1894 2.427 . S
Gd1858 O1896 2.388 . S
Gd1858 O1897 2.386 . S
Gd1858 O1901 2.307 . S
Gd1858 C1911 2.805 . S
Gd1859 N1854 2.622 . S
Gd1859 N1860 2.570 . S
Gd1859 O1891 2.386 . S
Gd1859 O1895 2.307 . S
Gd1859 O1898 2.353 . S
Gd1859 O1899 2.468 . S
Gd1859 O1900 2.427 . S
Gd1859 O1902 2.388 . S
Gd1859 C1923 2.805 . S
N1860 C1850 1.359 . S
N1860 Gd1859 2.570 . S
N1860 C1862 1.343 . S
C1861 C1849 1.422 . S
C1861 C1863 1.321 . S
C1861 H1869 0.931 . S
C1862 N1860 1.343 . S
C1862 C1863 1.390 1_545 S
C1862 H1864 0.931 . S
C1863 C1861 1.321 . S
C1863 C1862 1.390 1_565 S
C1863 H1865 0.930 . S
H1864 C1862 0.931 . S
H1865 C1863 0.930 . S
H1866 C1889 0.931 . S
H1867 C1855 0.929 . S
H1868 C1890 0.930 . S
H1869 C1861 0.931 . S
H1870 C1851 0.930 . S
H1871 C1880 0.929 . S
H1872 C1856 0.931 1_565 S
H1873 C1857 0.930 . S
H1874 C1912 0.930 . S
H1875 C1853 0.929 . S
H1876 C1881 0.931 . S
H1877 C1882 0.930 . S
N1878 Gd1858 2.622 . S
N1878 C1879 1.369 . S
N1878 C1880 1.338 . S
C1879 N1878 1.369 . S
C1879 C1883 1.415 . S
C1879 C1886 1.422 . S
C1880 H1871 0.929 . S
C1880 N1878 1.338 . S
C1880 C1882 1.378 . S
C1881 H1876 0.931 . S
C1881 C1882 1.348 . S
C1881 C1883 1.413 . S
C1882 H1877 0.930 . S
C1882 C1880 1.378 . S
C1882 C1881 1.348 . S
C1883 C1879 1.415 . S
C1883 C1881 1.413 . S
C1883 C1913 1.437 . S
H1884 C1913 0.929 . S
N1885 Gd1858 2.570 . S
N1885 C1886 1.359 . S
N1885 C1889 1.343 . S
C1886 C1879 1.422 . S
C1886 N1885 1.359 . S
C1886 C1888 1.421 . S
C1887 C1888 1.422 . S
C1887 C1890 1.321 . S
C1887 H1914 0.931 . S
C1888 C1886 1.421 . S
C1888 C1887 1.422 . S
C1888 C1912 1.417 . S
C1889 H1866 0.931 . S
C1889 N1885 1.343 . S
C1889 C1890 1.390 . S
C1890 H1868 0.930 . S
C1890 C1887 1.321 . S
C1890 C1889 1.390 . S
O1891 Gd1859 2.386 . S
O1891 C1903 1.265 . S
O1892 Gd1858 2.353 . S
O1892 C1903 1.242 . S
O1893 Gd1858 2.468 . S
O1893 C1911 1.263 . S
O1894 Gd1858 2.427 . S
O1894 C1911 1.252 . S
O1895 Gd1859 2.307 . S
O1895 C1904 1.261 . S
O1896 Gd1858 2.388 . S
O1896 C1904 1.252 . S
O1897 Gd1858 2.386 . S
O1897 C1915 1.265 . S
O1898 Gd1859 2.353 . S
O1898 C1915 1.242 . S
O1899 Gd1859 2.468 . S
O1899 C1923 1.263 . S
O1900 Gd1859 2.427 . S
O1900 C1923 1.252 . S
O1901 Gd1858 2.307 . S
O1901 C1916 1.261 . S
O1902 Gd1859 2.388 . S
O1902 C1916 1.252 . S
C1903 O1891 1.265 . S
C1903 O1892 1.242 . S
C1904 O1895 1.261 . S
C1904 O1896 1.252 . S
C1905 C1908 1.394 . S
C1905 C1910 1.370 . S
C1905 C1911 1.500 . S
C1906 C1909 1.383 . S
C1906 C1910 1.395 . S
C1907 C1908 1.396 . S
C1907 C1909 1.365 . S
C1907 H1924 0.929 . S
C1908 C1905 1.394 . S
C1908 C1907 1.396 . S
C1908 H1925 0.930 . S
C1909 C1906 1.383 . S
C1909 C1907 1.365 . S
C1909 H1926 0.931 1_655 S
C1910 C1905 1.370 . S
C1910 C1906 1.395 . S
C1910 H1927 0.930 . S
C1911 Gd1858 2.805 . S
C1911 O1893 1.263 . S
C1911 O1894 1.252 . S
C1911 C1905 1.500 . S
C1912 H1874 0.930 . S
C1912 C1888 1.417 . S
C1912 C1913 1.329 . S
C1913 C1883 1.437 . S
C1913 H1884 0.929 . S
C1913 C1912 1.329 . S
H1914 C1887 0.931 . S
C1915 O1897 1.265 . S
C1915 O1898 1.242 . S
C1916 O1901 1.261 . S
C1916 O1902 1.252 . S
C1917 C1920 1.394 . S
C1917 C1922 1.370 . S
C1917 C1923 1.500 . S
C1918 C1921 1.383 . S
C1918 C1922 1.395 1_655 S
C1919 C1920 1.407 . S
C1919 C1921 1.359 1_455 S
C1919 H1928 0.924 1_455 S
C1920 C1917 1.394 . S
C1920 C1919 1.407 . S
C1920 H1929 0.930 . S
C1921 C1918 1.383 . S
C1921 C1919 1.359 1_655 S
C1921 H1930 0.931 . S
C1922 C1917 1.370 . S
C1922 C1918 1.395 1_455 S
C1922 H1931 0.930 . S
C1923 Gd1859 2.805 . S
C1923 O1899 1.263 . S
C1923 O1900 1.252 . S
C1923 C1917 1.500 . S
H1924 C1907 0.929 . S
H1925 C1908 0.930 . S
H1926 C1909 0.931 1_455 S
H1927 C1910 0.930 . S
H1928 C1919 0.924 1_655 S
H1929 C1920 0.930 . S
H1930 C1921 0.931 . S
H1931 C1922 0.930 . S
C1932 C1934 1.422 . S
C1932 C1936 1.415 . S
C1932 N1938 1.369 . S
C1933 C1934 1.421 . S
C1933 C1935 1.417 . S
C1933 C1945 1.422 . S
C1934 C1932 1.422 . S
C1934 C1933 1.421 . S
C1934 N1944 1.359 . S
C1935 C1933 1.417 . S
C1935 C1937 1.329 . S
C1935 H1954 0.930 . S
C1936 C1932 1.415 . S
C1936 C1937 1.437 . S
C1936 C1940 1.413 . S
C1937 C1935 1.329 . S
C1937 C1936 1.437 . S
C1937 H1959 0.929 . S
N1938 C1932 1.369 . S
N1938 C1939 1.338 . S
N1938 Gd1943 2.622 . S
C1939 N1938 1.338 . S
C1939 C1941 1.378 . S
C1939 H1951 0.929 . S
C1940 C1936 1.413 . S
C1940 C1941 1.348 . S
C1940 H1956 0.931 . S
C1941 C1939 1.378 . S
C1941 C1940 1.348 . S
C1941 H1957 0.930 . S
Gd1942 N1962 2.622 . S
Gd1942 N1969 2.570 . S
Gd1942 O1976 2.353 . S
Gd1942 O1977 2.468 . S
Gd1942 O1978 2.427 . S
Gd1942 O1980 2.388 . S
Gd1942 O1981 2.386 . S
Gd1942 O1985 2.307 . S
Gd1942 C1995 2.805 . S
Gd1943 N1938 2.622 . S
Gd1943 N1944 2.570 . S
Gd1943 O1975 2.386 . S
Gd1943 O1979 2.307 . S
Gd1943 O1982 2.353 . S
Gd1943 O1983 2.468 . S
Gd1943 O1984 2.427 . S
Gd1943 O1986 2.388 . S
Gd1943 C2007 2.805 . S
N1944 C1934 1.359 . S
N1944 Gd1943 2.570 . S
N1944 C1946 1.343 . S
C1945 C1933 1.422 . S
C1945 C1947 1.321 . S
C1945 H1953 0.931 . S
C1946 N1944 1.343 . S
C1946 C1947 1.390 . S
C1946 H1948 0.931 . S
C1947 C1945 1.321 . S
C1947 C1946 1.390 . S
C1947 H1949 0.930 . S
H1948 C1946 0.931 . S
H1949 C1947 0.930 . S
H1950 C1973 0.931 . S
H1951 C1939 0.929 . S
H1952 C1974 0.930 . S
H1953 C1945 0.931 . S
H1954 C1935 0.930 . S
H1955 C1964 0.929 . S
H1956 C1940 0.931 . S
H1957 C1941 0.930 . S
H1958 C1996 0.930 . S
H1959 C1937 0.929 . S
H1960 C1965 0.931 . S
H1961 C1966 0.930 . S
N1962 Gd1942 2.622 . S
N1962 C1963 1.369 . S
N1962 C1964 1.338 . S
C1963 N1962 1.369 . S
C1963 C1967 1.415 . S
C1963 C1970 1.422 . S
C1964 H1955 0.929 . S
C1964 N1962 1.338 . S
C1964 C1966 1.378 . S
C1965 H1960 0.931 . S
C1965 C1966 1.348 . S
C1965 C1967 1.413 . S
C1966 H1961 0.930 . S
C1966 C1964 1.378 . S
C1966 C1965 1.348 . S
C1967 C1963 1.415 . S
C1967 C1965 1.413 . S
C1967 C1997 1.437 . S
H1968 C1997 0.929 . S
N1969 Gd1942 2.570 . S
N1969 C1970 1.359 . S
N1969 C1973 1.343 . S
C1970 C1963 1.422 . S
C1970 N1969 1.359 . S
C1970 C1972 1.421 . S
C1971 C1972 1.422 . S
C1971 C1974 1.321 . S
C1971 H1998 0.931 . S
C1972 C1970 1.421 . S
C1972 C1971 1.422 . S
C1972 C1996 1.417 . S
C1973 H1950 0.931 . S
C1973 N1969 1.343 . S
C1973 C1974 1.390 . S
C1974 H1952 0.930 . S
C1974 C1971 1.321 . S
C1974 C1973 1.390 . S
O1975 Gd1943 2.386 . S
O1975 C1987 1.265 . S
O1976 Gd1942 2.353 . S
O1976 C1987 1.242 . S
O1977 Gd1942 2.468 . S
O1977 C1995 1.263 . S
O1978 Gd1942 2.427 . S
O1978 C1995 1.252 . S
O1979 Gd1943 2.307 . S
O1979 C1988 1.261 . S
O1980 Gd1942 2.388 . S
O1980 C1988 1.252 . S
O1981 Gd1942 2.386 . S
O1981 C1999 1.265 . S
O1982 Gd1943 2.353 . S
O1982 C1999 1.242 . S
O1983 Gd1943 2.468 . S
O1983 C2007 1.263 . S
O1984 Gd1943 2.427 . S
O1984 C2007 1.252 . S
O1985 Gd1942 2.307 . S
O1985 C2000 1.261 . S
O1986 Gd1943 2.388 . S
O1986 C2000 1.252 . S
C1987 O1975 1.265 . S
C1987 O1976 1.242 . S
C1988 O1979 1.261 . S
C1988 O1980 1.252 . S
C1989 C1992 1.394 . S
C1989 C1994 1.370 . S
C1989 C1995 1.500 1_655 S
C1990 C1993 1.383 . S
C1990 C1994 1.395 . S
C1991 C1992 1.396 . S
C1991 C1993 1.365 . S
C1991 H2008 0.929 . S
C1992 C1989 1.394 . S
C1992 C1991 1.396 . S
C1992 H2009 0.930 . S
C1993 C1990 1.383 . S
C1993 C1991 1.365 . S
C1993 H2010 0.931 . S
C1994 C1989 1.370 . S
C1994 C1990 1.395 . S
C1994 H2011 0.930 . S
C1995 Gd1942 2.805 . S
C1995 O1977 1.263 . S
C1995 O1978 1.252 . S
C1995 C1989 1.500 1_455 S
C1996 H1958 0.930 . S
C1996 C1972 1.417 . S
C1996 C1997 1.329 . S
C1997 C1967 1.437 . S
C1997 H1968 0.929 . S
C1997 C1996 1.329 . S
H1998 C1971 0.931 . S
C1999 O1981 1.265 . S
C1999 O1982 1.242 . S
C2000 O1985 1.261 . S
C2000 O1986 1.252 . S
C2001 C2004 1.394 . S
C2001 C2006 1.370 . S
C2001 C2007 1.500 . S
C2002 C2005 1.383 . S
C2002 C2006 1.395 . S
C2003 C2004 1.396 . S
C2003 C2005 1.365 . S
C2003 H2012 0.929 . S
C2004 C2001 1.394 . S
C2004 C2003 1.396 . S
C2004 H2013 0.930 . S
C2005 C2002 1.383 . S
C2005 C2003 1.365 . S
C2005 H2014 0.931 . S
C2006 C2001 1.370 . S
C2006 C2002 1.395 . S
C2006 H2015 0.930 . S
C2007 Gd1943 2.805 . S
C2007 O1983 1.263 . S
C2007 O1984 1.252 . S
C2007 C2001 1.500 . S
H2008 C1991 0.929 . S
H2009 C1992 0.930 . S
H2010 C1993 0.931 . S
H2011 C1994 0.930 . S
H2012 C2003 0.929 . S
H2013 C2004 0.930 . S
H2014 C2005 0.931 . S
H2015 C2006 0.930 . S
C2016 C2018 1.422 . S
C2016 C2020 1.415 . S
C2016 N2022 1.369 . S
C2017 C2018 1.421 . S
C2017 C2019 1.417 . S
C2017 C2029 1.422 . S
C2018 C2016 1.422 . S
C2018 C2017 1.421 . S
C2018 N2028 1.359 . S
C2019 C2017 1.417 . S
C2019 C2021 1.329 . S
C2019 H2038 0.930 . S
C2020 C2016 1.415 . S
C2020 C2021 1.437 . S
C2020 C2024 1.413 . S
C2021 C2019 1.329 . S
C2021 C2020 1.437 . S
C2021 H2043 0.929 . S
N2022 C2016 1.369 . S
N2022 C2023 1.338 . S
N2022 Gd2027 2.622 . S
C2023 N2022 1.338 . S
C2023 C2025 1.378 . S
C2023 H2035 0.929 . S
C2024 C2020 1.413 . S
C2024 C2025 1.348 . S
C2024 H2040 0.931 . S
C2025 C2023 1.378 . S
C2025 C2024 1.348 . S
C2025 H2041 0.930 . S
Gd2026 N2046 2.622 . S
Gd2026 N2053 2.570 . S
Gd2026 O2060 2.353 1_565 S
Gd2026 O2061 2.468 . S
Gd2026 O2062 2.427 . S
Gd2026 O2064 2.388 . S
Gd2026 O2065 2.386 . S
Gd2026 O2069 2.307 . S
Gd2026 C2079 2.805 . S
Gd2027 N2022 2.622 . S
Gd2027 N2028 2.570 . S
Gd2027 O2059 2.386 . S
Gd2027 O2063 2.307 . S
Gd2027 O2066 2.353 1_545 S
Gd2027 O2067 2.468 . S
Gd2027 O2068 2.427 . S
Gd2027 O2070 2.388 1_545 S
Gd2027 C2091 2.805 . S
N2028 C2018 1.359 . S
N2028 Gd2027 2.570 . S
N2028 C2030 1.343 . S
C2029 C2017 1.422 . S
C2029 C2031 1.321 . S
C2029 H2037 0.931 . S
C2030 N2028 1.343 . S
C2030 C2031 1.390 . S
C2030 H2032 0.931 . S
C2031 C2029 1.321 . S
C2031 C2030 1.390 . S
C2031 H2033 0.930 . S
H2032 C2030 0.931 . S
H2033 C2031 0.930 . S
H2034 C2057 0.931 . S
H2035 C2023 0.929 . S
H2036 C2058 0.930 . S
H2037 C2029 0.931 . S
H2038 C2019 0.930 . S
H2039 C2048 0.929 . S
H2040 C2024 0.931 . S
H2041 C2025 0.930 . S
H2042 C2080 0.930 . S
H2043 C2021 0.929 . S
H2044 C2049 0.931 . S
H2045 C2050 0.930 . S
N2046 Gd2026 2.622 . S
N2046 C2047 1.369 . S
N2046 C2048 1.338 1_554 S
C2047 N2046 1.369 . S
C2047 C2051 1.393 1_554 S
C2047 C2054 1.422 . S
C2048 H2039 0.929 . S
C2048 N2046 1.338 1_556 S
C2048 C2050 1.378 . S
C2049 H2044 0.931 . S
C2049 C2050 1.348 . S
C2049 C2051 1.444 . S
C2050 H2045 0.930 . S
C2050 C2048 1.378 . S
C2050 C2049 1.348 . S
C2051 C2047 1.393 1_556 S
C2051 C2049 1.444 . S
C2051 C2081 1.428 1_556 S
H2052 C2081 0.929 1_556 S
N2053 Gd2026 2.570 . S
N2053 C2054 1.359 . S
N2053 C2057 1.343 . S
C2054 C2047 1.422 . S
C2054 N2053 1.359 . S
C2054 C2056 1.421 . S
C2055 C2056 1.422 . S
C2055 C2058 1.321 . S
C2055 H2082 0.931 . S
C2056 C2054 1.421 . S
C2056 C2055 1.422 . S
C2056 C2080 1.417 . S
C2057 H2034 0.931 . S
C2057 N2053 1.343 . S
C2057 C2058 1.390 . S
C2058 H2036 0.930 . S
C2058 C2055 1.321 . S
C2058 C2057 1.390 . S
O2059 Gd2027 2.386 . S
O2059 C2071 1.265 . S
O2060 Gd2026 2.353 1_545 S
O2060 C2071 1.242 . S
O2061 Gd2026 2.468 . S
O2061 C2079 1.263 . S
O2062 Gd2026 2.427 . S
O2062 C2079 1.252 . S
O2063 Gd2027 2.307 . S
O2063 C2072 1.261 1_545 S
O2064 Gd2026 2.388 . S
O2064 C2072 1.252 . S
O2065 Gd2026 2.386 . S
O2065 C2083 1.265 . S
O2066 Gd2027 2.353 1_565 S
O2066 C2083 1.242 . S
O2067 Gd2027 2.468 . S
O2067 C2091 1.263 . S
O2068 Gd2027 2.427 . S
O2068 C2091 1.252 . S
O2069 Gd2026 2.307 . S
O2069 C2084 1.261 . S
O2070 Gd2027 2.388 1_565 S
O2070 C2084 1.252 . S
C2071 O2059 1.265 . S
C2071 O2060 1.242 . S
C2072 O2063 1.261 1_565 S
C2072 O2064 1.252 . S
C2073 C2076 1.394 . S
C2073 C2078 1.370 . S
C2073 C2079 1.500 . S
C2074 C2077 1.383 . S
C2074 C2078 1.395 1_455 S
C2075 C2076 1.407 . S
C2075 C2077 1.359 1_655 S
C2075 H2092 0.965 1_655 S
C2076 C2073 1.394 . S
C2076 C2075 1.407 . S
C2076 H2093 0.930 . S
C2077 C2074 1.383 . S
C2077 C2075 1.359 1_455 S
C2077 H2094 0.931 . S
C2078 C2073 1.370 . S
C2078 C2074 1.395 1_655 S
C2078 H2095 0.930 . S
C2079 Gd2026 2.805 . S
C2079 O2061 1.263 . S
C2079 O2062 1.252 . S
C2079 C2073 1.500 . S
C2080 H2042 0.930 . S
C2080 C2056 1.417 . S
C2080 C2081 1.329 . S
C2081 C2051 1.428 1_554 S
C2081 H2052 0.929 1_554 S
C2081 C2080 1.329 . S
H2082 C2055 0.931 . S
C2083 O2065 1.265 . S
C2083 O2066 1.242 . S
C2084 O2069 1.261 . S
C2084 O2070 1.252 . S
C2085 C2088 1.394 . S
C2085 C2090 1.370 . S
C2085 C2091 1.500 . S
C2086 C2089 1.383 . S
C2086 C2090 1.395 . S
C2087 C2088 1.396 . S
C2087 C2089 1.365 . S
C2087 H2096 0.929 . S
C2088 C2085 1.394 . S
C2088 C2087 1.396 . S
C2088 H2097 0.930 . S
C2089 C2086 1.383 . S
C2089 C2087 1.365 . S
C2089 H2098 0.931 1_455 S
C2090 C2085 1.370 . S
C2090 C2086 1.395 . S
C2090 H2099 0.930 . S
C2091 Gd2027 2.805 . S
C2091 O2067 1.263 . S
C2091 O2068 1.252 . S
C2091 C2085 1.500 . S
H2092 C2075 0.965 1_455 S
H2093 C2076 0.930 . S
H2094 C2077 0.931 . S
H2095 C2078 0.930 . S
H2096 C2087 0.929 . S
H2097 C2088 0.930 . S
H2098 C2089 0.931 1_655 S
H2099 C2090 0.930 . S
C2100 C2102 1.422 . S
C2100 C2104 1.415 . S
C2100 N2106 1.369 . S
C2101 C2102 1.421 1_565 S
C2101 C2103 1.417 . S
C2101 C2113 1.422 . S
C2102 C2100 1.422 . S
C2102 C2101 1.421 1_545 S
C2102 N2112 1.359 . S
C2103 C2101 1.417 . S
C2103 C2105 1.329 . S
C2103 H2122 0.930 . S
C2104 C2100 1.415 . S
C2104 C2105 1.437 1_545 S
C2104 C2108 1.413 . S
C2105 C2103 1.329 . S
C2105 C2104 1.437 1_565 S
C2105 H2127 0.929 . S
N2106 C2100 1.369 . S
N2106 C2107 1.338 . S
N2106 Gd2111 2.622 . S
C2107 N2106 1.338 . S
C2107 C2109 1.378 . S
C2107 H2119 0.929 . S
C2108 C2104 1.413 . S
C2108 C2109 1.348 . S
C2108 H2124 0.931 . S
C2109 C2107 1.378 . S
C2109 C2108 1.348 . S
C2109 H2125 0.930 . S
Gd2110 N2130 2.622 . S
Gd2110 N2137 2.570 . S
Gd2110 O2144 2.353 . S
Gd2110 O2145 2.468 . S
Gd2110 O2146 2.427 . S
Gd2110 O2148 2.388 . S
Gd2110 O2149 2.386 . S
Gd2110 O2153 2.307 . S
Gd2110 C2163 2.805 . S
Gd2111 N2106 2.622 . S
Gd2111 N2112 2.570 . S
Gd2111 O2143 2.386 . S
Gd2111 O2147 2.307 . S
Gd2111 O2150 2.353 . S
Gd2111 O2151 2.468 . S
Gd2111 O2152 2.427 . S
Gd2111 O2154 2.388 . S
Gd2111 C2175 2.805 . S
N2112 C2102 1.359 . S
N2112 Gd2111 2.570 . S
N2112 C2114 1.343 . S
C2113 C2101 1.422 . S
C2113 C2115 1.321 1_565 S
C2113 H2121 0.931 . S
C2114 N2112 1.343 . S
C2114 C2115 1.390 . S
C2114 H2116 0.931 . S
C2115 C2113 1.321 1_545 S
C2115 C2114 1.390 . S
C2115 H2117 0.930 . S
H2116 C2114 0.931 . S
H2117 C2115 0.930 . S
H2118 C2141 0.931 . S
H2119 C2107 0.929 . S
H2120 C2142 0.930 . S
H2121 C2113 0.931 . S
H2122 C2103 0.930 . S
H2123 C2132 0.929 . S
H2124 C2108 0.931 . S
H2125 C2109 0.930 . S
H2126 C2164 0.930 . S
H2127 C2105 0.929 . S
H2128 C2133 0.931 . S
H2129 C2134 0.930 . S
N2130 Gd2110 2.622 . S
N2130 C2131 1.369 . S
N2130 C2132 1.338 1_554 S
C2131 N2130 1.369 . S
C2131 C2135 1.393 1_554 S
C2131 C2138 1.422 . S
C2132 H2123 0.929 . S
C2132 N2130 1.338 1_556 S
C2132 C2134 1.378 . S
C2133 H2128 0.931 . S
C2133 C2134 1.348 . S
C2133 C2135 1.444 . S
C2134 H2129 0.930 . S
C2134 C2132 1.378 . S
C2134 C2133 1.348 . S
C2135 C2131 1.393 1_556 S
C2135 C2133 1.444 . S
C2135 C2165 1.428 1_556 S
H2136 C2165 0.929 1_556 S
N2137 Gd2110 2.570 . S
N2137 C2138 1.359 . S
N2137 C2141 1.343 . S
C2138 C2131 1.422 . S
C2138 N2137 1.359 . S
C2138 C2140 1.421 . S
C2139 C2140 1.422 . S
C2139 C2142 1.321 . S
C2139 H2166 0.931 . S
C2140 C2138 1.421 . S
C2140 C2139 1.422 . S
C2140 C2164 1.417 . S
C2141 H2118 0.931 . S
C2141 N2137 1.343 . S
C2141 C2142 1.390 . S
C2142 H2120 0.930 . S
C2142 C2139 1.321 . S
C2142 C2141 1.390 . S
O2143 Gd2111 2.386 . S
O2143 C2155 1.265 . S
O2144 Gd2110 2.353 . S
O2144 C2155 1.242 . S
O2145 Gd2110 2.468 . S
O2145 C2163 1.263 . S
O2146 Gd2110 2.427 . S
O2146 C2163 1.252 . S
O2147 Gd2111 2.307 . S
O2147 C2156 1.261 . S
O2148 Gd2110 2.388 . S
O2148 C2156 1.252 . S
O2149 Gd2110 2.386 . S
O2149 C2167 1.265 . S
O2150 Gd2111 2.353 . S
O2150 C2167 1.242 . S
O2151 Gd2111 2.468 . S
O2151 C2175 1.263 . S
O2152 Gd2111 2.427 . S
O2152 C2175 1.252 . S
O2153 Gd2110 2.307 . S
O2153 C2168 1.261 . S
O2154 Gd2111 2.388 . S
O2154 C2168 1.252 . S
C2155 O2143 1.265 . S
C2155 O2144 1.242 . S
C2156 O2147 1.261 . S
C2156 O2148 1.252 . S
C2157 C2160 1.394 . S
C2157 C2162 1.370 . S
C2157 C2163 1.500 . S
C2158 C2161 1.383 . S
C2158 C2162 1.395 . S
C2159 C2160 1.396 . S
C2159 C2161 1.365 . S
C2159 H2176 0.970 . S
C2160 C2157 1.394 . S
C2160 C2159 1.396 . S
C2160 H2177 0.930 . S
C2161 C2158 1.383 . S
C2161 C2159 1.365 . S
C2161 H2178 0.931 . S
C2162 C2157 1.370 . S
C2162 C2158 1.395 . S
C2162 H2179 0.930 . S
C2163 Gd2110 2.805 . S
C2163 O2145 1.263 . S
C2163 O2146 1.252 . S
C2163 C2157 1.500 . S
C2164 H2126 0.930 . S
C2164 C2140 1.417 . S
C2164 C2165 1.329 . S
C2165 C2135 1.428 1_554 S
C2165 H2136 0.929 1_554 S
C2165 C2164 1.329 . S
H2166 C2139 0.931 . S
C2167 O2149 1.265 . S
C2167 O2150 1.242 . S
C2168 O2153 1.261 . S
C2168 O2154 1.252 . S
C2169 C2172 1.394 . S
C2169 C2174 1.370 . S
C2169 C2175 1.500 1_455 S
C2170 C2173 1.383 . S
C2170 C2174 1.395 . S
C2171 C2172 1.396 . S
C2171 C2173 1.365 . S
C2171 H2180 0.929 . S
C2172 C2169 1.394 . S
C2172 C2171 1.396 . S
C2172 H2181 0.930 . S
C2173 C2170 1.383 . S
C2173 C2171 1.365 . S
C2173 H2182 0.931 . S
C2174 C2169 1.370 . S
C2174 C2170 1.395 . S
C2174 H2183 0.930 . S
C2175 Gd2111 2.805 . S
C2175 O2151 1.263 . S
C2175 O2152 1.252 . S
C2175 C2169 1.500 1_655 S
H2176 C2159 0.970 . S
H2177 C2160 0.930 . S
H2178 C2161 0.931 . S
H2179 C2162 0.930 . S
H2180 C2171 0.929 . S
H2181 C2172 0.930 . S
H2182 C2173 0.931 . S
H2183 C2174 0.930 . S
C2184 C2186 1.422 . S
C2184 C2188 1.415 . S
C2184 N2190 1.369 . S
C2185 C2186 1.421 1_565 S
C2185 C2187 1.417 . S
C2185 C2197 1.422 . S
C2186 C2184 1.422 . S
C2186 C2185 1.421 1_545 S
C2186 N2196 1.359 . S
C2187 C2185 1.417 . S
C2187 C2189 1.329 . S
C2187 H2206 0.930 . S
C2188 C2184 1.415 . S
C2188 C2189 1.437 1_545 S
C2188 C2192 1.413 . S
C2189 C2187 1.329 . S
C2189 C2188 1.437 1_565 S
C2189 H2211 0.929 . S
N2190 C2184 1.369 . S
N2190 C2191 1.338 . S
N2190 Gd2195 2.622 . S
C2191 N2190 1.338 . S
C2191 C2193 1.378 . S
C2191 H2203 0.929 . S
C2192 C2188 1.413 . S
C2192 C2193 1.348 . S
C2192 H2208 0.931 . S
C2193 C2191 1.378 . S
C2193 C2192 1.348 . S
C2193 H2209 0.930 . S
Gd2194 N2214 2.622 . S
Gd2194 N2221 2.570 . S
Gd2194 O2228 2.353 . S
Gd2194 O2229 2.468 . S
Gd2194 O2230 2.427 . S
Gd2194 O2232 2.388 . S
Gd2194 O2233 2.386 . S
Gd2194 O2237 2.307 . S
Gd2194 C2247 2.805 . S
Gd2195 N2190 2.622 . S
Gd2195 N2196 2.570 . S
Gd2195 O2227 2.386 . S
Gd2195 O2231 2.307 . S
Gd2195 O2234 2.353 . S
Gd2195 O2235 2.468 . S
Gd2195 O2236 2.427 . S
Gd2195 O2238 2.388 . S
Gd2195 C2259 2.805 . S
N2196 C2186 1.359 . S
N2196 Gd2195 2.570 . S
N2196 C2198 1.343 . S
C2197 C2185 1.422 . S
C2197 C2199 1.321 1_565 S
C2197 H2205 0.931 . S
C2198 N2196 1.343 . S
C2198 C2199 1.390 . S
C2198 H2200 0.931 . S
C2199 C2197 1.321 1_545 S
C2199 C2198 1.390 . S
C2199 H2201 0.930 . S
H2200 C2198 0.931 . S
H2201 C2199 0.930 . S
H2202 C2225 0.931 . S
H2203 C2191 0.929 . S
H2204 C2226 0.930 . S
H2205 C2197 0.931 . S
H2206 C2187 0.930 . S
H2207 C2216 0.929 . S
H2208 C2192 0.931 . S
H2209 C2193 0.930 . S
H2210 C2248 0.930 . S
H2211 C2189 0.929 . S
H2212 C2217 0.931 . S
H2213 C2218 0.930 . S
N2214 Gd2194 2.622 . S
N2214 C2215 1.369 . S
N2214 C2216 1.338 . S
C2215 N2214 1.369 . S
C2215 C2219 1.415 . S
C2215 C2222 1.422 . S
C2216 H2207 0.929 . S
C2216 N2214 1.338 . S
C2216 C2218 1.378 . S
C2217 H2212 0.931 . S
C2217 C2218 1.348 . S
C2217 C2219 1.413 . S
C2218 H2213 0.930 . S
C2218 C2216 1.378 . S
C2218 C2217 1.348 . S
C2219 C2215 1.415 . S
C2219 C2217 1.413 . S
C2219 C2249 1.437 . S
H2220 C2249 0.929 . S
N2221 Gd2194 2.570 . S
N2221 C2222 1.359 . S
N2221 C2225 1.343 . S
C2222 C2215 1.422 . S
C2222 N2221 1.359 . S
C2222 C2224 1.421 . S
C2223 C2224 1.422 . S
C2223 C2226 1.321 . S
C2223 H2250 0.931 . S
C2224 C2222 1.421 . S
C2224 C2223 1.422 . S
C2224 C2248 1.417 . S
C2225 H2202 0.931 . S
C2225 N2221 1.343 . S
C2225 C2226 1.390 . S
C2226 H2204 0.930 . S
C2226 C2223 1.321 . S
C2226 C2225 1.390 . S
O2227 Gd2195 2.386 . S
O2227 C2239 1.265 . S
O2228 Gd2194 2.353 . S
O2228 C2239 1.242 . S
O2229 Gd2194 2.468 . S
O2229 C2247 1.263 . S
O2230 Gd2194 2.427 . S
O2230 C2247 1.252 . S
O2231 Gd2195 2.307 . S
O2231 C2240 1.261 . S
O2232 Gd2194 2.388 . S
O2232 C2240 1.252 . S
O2233 Gd2194 2.386 . S
O2233 C2251 1.265 . S
O2234 Gd2195 2.353 . S
O2234 C2251 1.242 . S
O2235 Gd2195 2.468 . S
O2235 C2259 1.263 . S
O2236 Gd2195 2.427 . S
O2236 C2259 1.252 . S
O2237 Gd2194 2.307 . S
O2237 C2252 1.261 . S
O2238 Gd2195 2.388 . S
O2238 C2252 1.252 . S
C2239 O2227 1.265 . S
C2239 O2228 1.242 . S
C2240 O2231 1.261 . S
C2240 O2232 1.252 . S
C2241 C2244 1.394 . S
C2241 C2246 1.370 . S
C2241 C2247 1.500 . S
C2242 C2245 1.383 . S
C2242 C2246 1.395 1_455 S
C2243 C2244 1.407 . S
C2243 C2245 1.359 1_655 S
C2243 H2260 0.924 1_655 S
C2244 C2241 1.394 . S
C2244 C2243 1.407 . S
C2244 H2261 0.930 . S
C2245 C2242 1.383 . S
C2245 C2243 1.359 1_455 S
C2245 H2262 0.931 . S
C2246 C2241 1.370 . S
C2246 C2242 1.395 1_655 S
C2246 H2263 0.930 . S
C2247 Gd2194 2.805 . S
C2247 O2229 1.263 . S
C2247 O2230 1.252 . S
C2247 C2241 1.500 . S
C2248 H2210 0.930 . S
C2248 C2224 1.417 . S
C2248 C2249 1.329 . S
C2249 C2219 1.437 . S
C2249 H2220 0.929 . S
C2249 C2248 1.329 . S
H2250 C2223 0.931 . S
C2251 O2233 1.265 . S
C2251 O2234 1.242 . S
C2252 O2237 1.261 . S
C2252 O2238 1.252 . S
C2253 C2256 1.394 . S
C2253 C2258 1.370 . S
C2253 C2259 1.500 . S
C2254 C2257 1.383 . S
C2254 C2258 1.395 . S
C2255 C2256 1.396 . S
C2255 C2257 1.365 . S
C2255 H2264 0.929 . S
C2256 C2253 1.394 . S
C2256 C2255 1.396 . S
C2256 H2265 0.930 . S
C2257 C2254 1.383 . S
C2257 C2255 1.365 . S
C2257 H2266 0.931 1_455 S
C2258 C2253 1.370 . S
C2258 C2254 1.395 . S
C2258 H2267 0.930 . S
C2259 Gd2195 2.805 . S
C2259 O2235 1.263 . S
C2259 O2236 1.252 . S
C2259 C2253 1.500 . S
H2260 C2243 0.924 1_455 S
H2261 C2244 0.930 . S
H2262 C2245 0.931 . S
H2263 C2246 0.930 . S
H2264 C2255 0.929 . S
H2265 C2256 0.930 . S
H2266 C2257 0.931 1_655 S
H2267 C2258 0.930 . S
C2268 C2270 1.422 . S
C2268 C2272 1.415 . S
C2268 N2274 1.369 . S
C2269 C2270 1.421 . S
C2269 C2271 1.417 . S
C2269 C2281 1.422 . S
C2270 C2268 1.422 . S
C2270 C2269 1.421 . S
C2270 N2280 1.359 . S
C2271 C2269 1.417 . S
C2271 C2273 1.329 . S
C2271 H2290 0.930 . S
C2272 C2268 1.415 . S
C2272 C2273 1.437 . S
C2272 C2276 1.413 . S
C2273 C2271 1.329 . S
C2273 C2272 1.437 . S
C2273 H2295 0.929 . S
N2274 C2268 1.369 . S
N2274 C2275 1.338 . S
N2274 Gd2279 2.622 . S
C2275 N2274 1.338 . S
C2275 C2277 1.378 . S
C2275 H2287 0.929 . S
C2276 C2272 1.413 . S
C2276 C2277 1.348 . S
C2276 H2292 0.931 . S
C2277 C2275 1.378 . S
C2277 C2276 1.348 . S
C2277 H2293 0.930 . S
Gd2278 N2298 2.622 . S
Gd2278 N2305 2.570 . S
Gd2278 O2312 2.353 1_565 S
Gd2278 O2313 2.468 . S
Gd2278 O2314 2.427 . S
Gd2278 O2316 2.388 . S
Gd2278 O2317 2.386 . S
Gd2278 O2321 2.307 . S
Gd2278 C2331 2.805 . S
Gd2279 N2274 2.622 . S
Gd2279 N2280 2.570 . S
Gd2279 O2311 2.386 . S
Gd2279 O2315 2.307 . S
Gd2279 O2318 2.353 1_545 S
Gd2279 O2319 2.468 . S
Gd2279 O2320 2.427 . S
Gd2279 O2322 2.388 1_545 S
Gd2279 C2343 2.805 . S
N2280 C2270 1.359 . S
N2280 Gd2279 2.570 . S
N2280 C2282 1.343 . S
C2281 C2269 1.422 . S
C2281 C2283 1.321 . S
C2281 H2289 0.931 . S
C2282 N2280 1.343 . S
C2282 C2283 1.390 . S
C2282 H2284 0.931 . S
C2283 C2281 1.321 . S
C2283 C2282 1.390 . S
C2283 H2285 0.930 . S
H2284 C2282 0.931 . S
H2285 C2283 0.930 . S
H2286 C2309 0.931 . S
H2287 C2275 0.929 . S
H2288 C2310 0.930 . S
H2289 C2281 0.931 . S
H2290 C2271 0.930 . S
H2291 C2300 0.929 . S
H2292 C2276 0.931 . S
H2293 C2277 0.930 . S
H2294 C2332 0.930 . S
H2295 C2273 0.929 . S
H2296 C2301 0.931 . S
H2297 C2302 0.930 . S
N2298 Gd2278 2.622 . S
N2298 C2299 1.369 . S
N2298 C2300 1.338 . S
C2299 N2298 1.369 . S
C2299 C2303 1.415 . S
C2299 C2306 1.422 . S
C2300 H2291 0.929 . S
C2300 N2298 1.338 . S
C2300 C2302 1.378 . S
C2301 H2296 0.931 . S
C2301 C2302 1.348 . S
C2301 C2303 1.413 . S
C2302 H2297 0.930 . S
C2302 C2300 1.378 . S
C2302 C2301 1.348 . S
C2303 C2299 1.415 . S
C2303 C2301 1.413 . S
C2303 C2333 1.437 . S
H2304 C2333 0.929 . S
N2305 Gd2278 2.570 . S
N2305 C2306 1.359 . S
N2305 C2309 1.343 . S
C2306 C2299 1.422 . S
C2306 N2305 1.359 . S
C2306 C2308 1.421 . S
C2307 C2308 1.422 . S
C2307 C2310 1.321 . S
C2307 H2334 0.931 . S
C2308 C2306 1.421 . S
C2308 C2307 1.422 . S
C2308 C2332 1.417 . S
C2309 H2286 0.931 . S
C2309 N2305 1.343 . S
C2309 C2310 1.390 . S
C2310 H2288 0.930 . S
C2310 C2307 1.321 . S
C2310 C2309 1.390 . S
O2311 Gd2279 2.386 . S
O2311 C2323 1.265 . S
O2312 Gd2278 2.353 1_545 S
O2312 C2323 1.242 . S
O2313 Gd2278 2.468 . S
O2313 C2331 1.263 . S
O2314 Gd2278 2.427 . S
O2314 C2331 1.252 . S
O2315 Gd2279 2.307 . S
O2315 C2324 1.261 1_545 S
O2316 Gd2278 2.388 . S
O2316 C2324 1.252 . S
O2317 Gd2278 2.386 . S
O2317 C2335 1.265 . S
O2318 Gd2279 2.353 1_565 S
O2318 C2335 1.242 . S
O2319 Gd2279 2.468 . S
O2319 C2343 1.263 . S
O2320 Gd2279 2.427 . S
O2320 C2343 1.252 . S
O2321 Gd2278 2.307 . S
O2321 C2336 1.261 . S
O2322 Gd2279 2.388 1_565 S
O2322 C2336 1.252 . S
C2323 O2311 1.265 . S
C2323 O2312 1.242 . S
C2324 O2315 1.261 1_565 S
C2324 O2316 1.252 . S
C2325 C2328 1.394 . S
C2325 C2330 1.370 . S
C2325 C2331 1.500 . S
C2326 C2329 1.383 . S
C2326 C2330 1.395 . S
C2327 C2328 1.396 . S
C2327 C2329 1.365 . S
C2327 H2344 0.929 . S
C2328 C2325 1.394 . S
C2328 C2327 1.396 . S
C2328 H2345 0.930 . S
C2329 C2326 1.383 . S
C2329 C2327 1.365 . S
C2329 H2346 0.931 . S
C2330 C2325 1.370 . S
C2330 C2326 1.395 . S
C2330 H2347 0.930 . S
C2331 Gd2278 2.805 . S
C2331 O2313 1.263 . S
C2331 O2314 1.252 . S
C2331 C2325 1.500 . S
C2332 H2294 0.930 . S
C2332 C2308 1.417 . S
C2332 C2333 1.329 . S
C2333 C2303 1.437 . S
C2333 H2304 0.929 . S
C2333 C2332 1.329 . S
H2334 C2307 0.931 . S
C2335 O2317 1.265 . S
C2335 O2318 1.242 . S
C2336 O2321 1.261 . S
C2336 O2322 1.252 . S
C2337 C2340 1.394 . S
C2337 C2342 1.370 . S
C2337 C2343 1.500 1_455 S
C2338 C2341 1.383 . S
C2338 C2342 1.395 . S
C2339 C2340 1.396 . S
C2339 C2341 1.365 . S
C2339 H2348 0.929 . S
C2340 C2337 1.394 . S
C2340 C2339 1.396 . S
C2340 H2349 0.930 . S
C2341 C2338 1.383 . S
C2341 C2339 1.365 . S
C2341 H2350 0.931 . S
C2342 C2337 1.370 . S
C2342 C2338 1.395 . S
C2342 H2351 0.930 . S
C2343 Gd2279 2.805 . S
C2343 O2319 1.263 . S
C2343 O2320 1.252 . S
C2343 C2337 1.500 1_655 S
H2344 C2327 0.929 . S
H2345 C2328 0.930 . S
H2346 C2329 0.931 . S
H2347 C2330 0.930 . S
H2348 C2339 0.929 . S
H2349 C2340 0.930 . S
H2350 C2341 0.931 . S
H2351 C2342 0.930 . S
C2352 C2354 1.422 . S
C2352 C2356 1.393 1_556 S
C2352 N2358 1.369 . S
C2353 C2354 1.421 . S
C2353 C2355 1.417 . S
C2353 C2365 1.422 . S
C2354 C2352 1.422 . S
C2354 C2353 1.421 . S
C2354 N2364 1.359 . S
C2355 C2353 1.417 . S
C2355 C2357 1.329 . S
C2355 H2374 0.930 . S
C2356 C2352 1.393 1_554 S
C2356 C2357 1.428 1_554 S
C2356 C2360 1.444 . S
C2357 C2355 1.329 . S
C2357 C2356 1.428 1_556 S
C2357 H2379 0.929 1_556 S
N2358 C2352 1.369 . S
N2358 C2359 1.338 1_556 S
N2358 Gd2363 2.622 . S
C2359 N2358 1.338 1_554 S
C2359 C2361 1.378 . S
C2359 H2371 0.929 . S
C2360 C2356 1.444 . S
C2360 C2361 1.348 . S
C2360 H2376 0.931 . S
C2361 C2359 1.378 . S
C2361 C2360 1.348 . S
C2361 H2377 0.930 . S
Gd2362 N2382 2.622 . S
Gd2362 N2389 2.570 . S
Gd2362 O2396 2.353 1_565 S
Gd2362 O2397 2.468 . S
Gd2362 O2398 2.427 . S
Gd2362 O2400 2.388 1_565 S
Gd2362 O2401 2.386 . S
Gd2362 O2405 2.307 . S
Gd2362 C2415 2.805 . S
Gd2363 N2358 2.622 . S
Gd2363 N2364 2.570 . S
Gd2363 O2395 2.386 . S
Gd2363 O2399 2.307 . S
Gd2363 O2402 2.353 1_545 S
Gd2363 O2403 2.468 . S
Gd2363 O2404 2.427 . S
Gd2363 O2406 2.388 . S
Gd2363 C2427 2.805 . S
N2364 C2354 1.359 . S
N2364 Gd2363 2.570 . S
N2364 C2366 1.343 . S
C2365 C2353 1.422 . S
C2365 C2367 1.321 . S
C2365 H2373 0.931 . S
C2366 N2364 1.343 . S
C2366 C2367 1.390 . S
C2366 H2368 0.931 . S
C2367 C2365 1.321 . S
C2367 C2366 1.390 . S
C2367 H2369 0.930 . S
H2368 C2366 0.931 . S
H2369 C2367 0.930 . S
H2370 C2393 0.931 . S
H2371 C2359 0.929 . S
H2372 C2394 0.930 . S
H2373 C2365 0.931 . S
H2374 C2355 0.930 . S
H2375 C2384 0.929 . S
H2376 C2360 0.931 . S
H2377 C2361 0.930 . S
H2378 C2416 0.930 . S
H2379 C2357 0.929 1_554 S
H2380 C2385 0.931 . S
H2381 C2386 0.930 . S
N2382 Gd2362 2.622 . S
N2382 C2383 1.369 . S
N2382 C2384 1.338 . S
C2383 N2382 1.369 . S
C2383 C2387 1.415 . S
C2383 C2390 1.422 . S
C2384 H2375 0.929 . S
C2384 N2382 1.338 . S
C2384 C2386 1.378 . S
C2385 H2380 0.931 . S
C2385 C2386 1.348 . S
C2385 C2387 1.413 . S
C2386 H2381 0.930 . S
C2386 C2384 1.378 . S
C2386 C2385 1.348 . S
C2387 C2383 1.415 . S
C2387 C2385 1.413 . S
C2387 C2417 1.437 . S
H2388 C2417 0.929 . S
N2389 Gd2362 2.570 . S
N2389 C2390 1.359 . S
N2389 C2393 1.343 . S
C2390 C2383 1.422 . S
C2390 N2389 1.359 . S
C2390 C2392 1.421 . S
C2391 C2392 1.422 . S
C2391 C2394 1.321 . S
C2391 H2418 0.931 . S
C2392 C2390 1.421 . S
C2392 C2391 1.422 . S
C2392 C2416 1.417 . S
C2393 H2370 0.931 . S
C2393 N2389 1.343 . S
C2393 C2394 1.390 . S
C2394 H2372 0.930 . S
C2394 C2391 1.321 . S
C2394 C2393 1.390 . S
O2395 Gd2363 2.386 . S
O2395 C2407 1.265 . S
O2396 Gd2362 2.353 1_545 S
O2396 C2407 1.242 . S
O2397 Gd2362 2.468 . S
O2397 C2415 1.263 . S
O2398 Gd2362 2.427 . S
O2398 C2415 1.252 . S
O2399 Gd2363 2.307 . S
O2399 C2408 1.261 . S
O2400 Gd2362 2.388 1_545 S
O2400 C2408 1.252 . S
O2401 Gd2362 2.386 . S
O2401 C2419 1.265 . S
O2402 Gd2363 2.353 1_565 S
O2402 C2419 1.242 . S
O2403 Gd2363 2.468 . S
O2403 C2427 1.263 . S
O2404 Gd2363 2.427 . S
O2404 C2427 1.252 . S
O2405 Gd2362 2.307 . S
O2405 C2420 1.261 1_565 S
O2406 Gd2363 2.388 . S
O2406 C2420 1.252 . S
C2407 O2395 1.265 . S
C2407 O2396 1.242 . S
C2408 O2399 1.261 . S
C2408 O2400 1.252 . S
C2409 C2412 1.394 . S
C2409 C2414 1.370 . S
C2409 C2415 1.500 . S
C2410 C2413 1.383 . S
C2410 C2414 1.395 . S
C2411 C2412 1.396 . S
C2411 C2413 1.365 . S
C2411 H2428 0.929 . S
C2412 C2409 1.394 . S
C2412 C2411 1.396 . S
C2412 H2429 0.930 . S
C2413 C2410 1.383 . S
C2413 C2411 1.365 . S
C2413 H2430 0.931 1_655 S
C2414 C2409 1.370 . S
C2414 C2410 1.395 . S
C2414 H2431 0.930 . S
C2415 Gd2362 2.805 . S
C2415 O2397 1.263 . S
C2415 O2398 1.252 . S
C2415 C2409 1.500 . S
C2416 H2378 0.930 . S
C2416 C2392 1.417 . S
C2416 C2417 1.329 . S
C2417 C2387 1.437 . S
C2417 H2388 0.929 . S
C2417 C2416 1.329 . S
H2418 C2391 0.931 . S
C2419 O2401 1.265 . S
C2419 O2402 1.242 . S
C2420 O2405 1.261 1_545 S
C2420 O2406 1.252 . S
C2421 C2424 1.394 . S
C2421 C2426 1.370 . S
C2421 C2427 1.500 . S
C2422 C2425 1.383 . S
C2422 C2426 1.395 1_655 S
C2423 C2424 1.407 . S
C2423 C2425 1.359 1_455 S
C2423 H2432 0.965 1_455 S
C2424 C2421 1.394 . S
C2424 C2423 1.407 . S
C2424 H2433 0.930 . S
C2425 C2422 1.383 . S
C2425 C2423 1.359 1_655 S
C2425 H2434 0.931 . S
C2426 C2421 1.370 . S
C2426 C2422 1.395 1_455 S
C2426 H2435 0.930 . S
C2427 Gd2363 2.805 . S
C2427 O2403 1.263 . S
C2427 O2404 1.252 . S
C2427 C2421 1.500 . S
H2428 C2411 0.929 . S
H2429 C2412 0.930 . S
H2430 C2413 0.931 1_455 S
H2431 C2414 0.930 . S
H2432 C2423 0.965 1_655 S
H2433 C2424 0.930 . S
H2434 C2425 0.931 . S
H2435 C2426 0.930 . S
C2436 C2438 1.422 . S
C2436 C2440 1.393 1_556 S
C2436 N2442 1.369 . S
C2437 C2438 1.421 . S
C2437 C2439 1.417 . S
C2437 C2449 1.422 . S
C2438 C2436 1.422 . S
C2438 C2437 1.421 . S
C2438 N2448 1.359 . S
C2439 C2437 1.417 . S
C2439 C2441 1.329 . S
C2439 H2458 0.930 . S
C2440 C2436 1.393 1_554 S
C2440 C2441 1.428 1_554 S
C2440 C2444 1.444 . S
C2441 C2439 1.329 . S
C2441 C2440 1.428 1_556 S
C2441 H2463 0.929 1_556 S
N2442 C2436 1.369 . S
N2442 C2443 1.338 1_556 S
N2442 Gd2447 2.622 . S
C2443 N2442 1.338 1_554 S
C2443 C2445 1.378 . S
C2443 H2455 0.929 . S
C2444 C2440 1.444 . S
C2444 C2445 1.348 . S
C2444 H2460 0.931 . S
C2445 C2443 1.378 . S
C2445 C2444 1.348 . S
C2445 H2461 0.930 . S
Gd2446 N2466 2.622 . S
Gd2446 N2473 2.570 . S
Gd2446 O2480 2.353 . S
Gd2446 O2481 2.468 . S
Gd2446 O2482 2.427 . S
Gd2446 O2484 2.388 . S
Gd2446 O2485 2.386 . S
Gd2446 O2489 2.307 . S
Gd2446 C2499 2.805 . S
Gd2447 N2442 2.622 . S
Gd2447 N2448 2.570 . S
Gd2447 O2479 2.386 . S
Gd2447 O2483 2.307 . S
Gd2447 O2486 2.353 . S
Gd2447 O2487 2.468 . S
Gd2447 O2488 2.427 . S
Gd2447 O2490 2.388 . S
Gd2447 C2511 2.805 . S
N2448 C2438 1.359 . S
N2448 Gd2447 2.570 . S
N2448 C2450 1.343 . S
C2449 C2437 1.422 . S
C2449 C2451 1.321 . S
C2449 H2457 0.931 . S
C2450 N2448 1.343 . S
C2450 C2451 1.390 . S
C2450 H2452 0.931 . S
C2451 C2449 1.321 . S
C2451 C2450 1.390 . S
C2451 H2453 0.930 . S
H2452 C2450 0.931 . S
H2453 C2451 0.930 . S
H2454 C2477 0.931 . S
H2455 C2443 0.929 . S
H2456 C2478 0.930 . S
H2457 C2449 0.931 . S
H2458 C2439 0.930 . S
H2459 C2468 0.929 . S
H2460 C2444 0.931 . S
H2461 C2445 0.930 . S
H2462 C2500 0.930 . S
H2463 C2441 0.929 1_554 S
H2464 C2469 0.931 . S
H2465 C2470 0.930 . S
N2466 Gd2446 2.622 . S
N2466 C2467 1.369 . S
N2466 C2468 1.338 . S
C2467 N2466 1.369 . S
C2467 C2471 1.415 . S
C2467 C2474 1.422 . S
C2468 H2459 0.929 . S
C2468 N2466 1.338 . S
C2468 C2470 1.378 . S
C2469 H2464 0.931 . S
C2469 C2470 1.348 . S
C2469 C2471 1.413 . S
C2470 H2465 0.930 . S
C2470 C2468 1.378 . S
C2470 C2469 1.348 . S
C2471 C2467 1.415 . S
C2471 C2469 1.413 . S
C2471 C2501 1.437 1_565 S
H2472 C2501 0.929 . S
N2473 Gd2446 2.570 . S
N2473 C2474 1.359 . S
N2473 C2477 1.343 . S
C2474 C2467 1.422 . S
C2474 N2473 1.359 . S
C2474 C2476 1.421 1_565 S
C2475 C2476 1.422 . S
C2475 C2478 1.321 1_545 S
C2475 H2502 0.931 . S
C2476 C2474 1.421 1_545 S
C2476 C2475 1.422 . S
C2476 C2500 1.417 . S
C2477 H2454 0.931 . S
C2477 N2473 1.343 . S
C2477 C2478 1.390 . S
C2478 H2456 0.930 . S
C2478 C2475 1.321 1_565 S
C2478 C2477 1.390 . S
O2479 Gd2447 2.386 . S
O2479 C2491 1.265 . S
O2480 Gd2446 2.353 . S
O2480 C2491 1.242 . S
O2481 Gd2446 2.468 . S
O2481 C2499 1.263 . S
O2482 Gd2446 2.427 . S
O2482 C2499 1.252 . S
O2483 Gd2447 2.307 . S
O2483 C2492 1.261 . S
O2484 Gd2446 2.388 . S
O2484 C2492 1.252 . S
O2485 Gd2446 2.386 . S
O2485 C2503 1.265 . S
O2486 Gd2447 2.353 . S
O2486 C2503 1.242 . S
O2487 Gd2447 2.468 . S
O2487 C2511 1.263 . S
O2488 Gd2447 2.427 . S
O2488 C2511 1.252 . S
O2489 Gd2446 2.307 . S
O2489 C2504 1.261 . S
O2490 Gd2447 2.388 . S
O2490 C2504 1.252 . S
C2491 O2479 1.265 . S
C2491 O2480 1.242 . S
C2492 O2483 1.261 . S
C2492 O2484 1.252 . S
C2493 C2496 1.394 . S
C2493 C2498 1.370 . S
C2493 C2499 1.500 1_655 S
C2494 C2497 1.383 . S
C2494 C2498 1.395 . S
C2495 C2496 1.396 . S
C2495 C2497 1.365 . S
C2495 H2512 0.929 . S
C2496 C2493 1.394 . S
C2496 C2495 1.396 . S
C2496 H2513 0.930 . S
C2497 C2494 1.383 . S
C2497 C2495 1.365 . S
C2497 H2514 0.931 . S
C2498 C2493 1.370 . S
C2498 C2494 1.395 . S
C2498 H2515 0.930 . S
C2499 Gd2446 2.805 . S
C2499 O2481 1.263 . S
C2499 O2482 1.252 . S
C2499 C2493 1.500 1_455 S
C2500 H2462 0.930 . S
C2500 C2476 1.417 . S
C2500 C2501 1.329 . S
C2501 C2471 1.437 1_545 S
C2501 H2472 0.929 . S
C2501 C2500 1.329 . S
H2502 C2475 0.931 . S
C2503 O2485 1.265 . S
C2503 O2486 1.242 . S
C2504 O2489 1.261 . S
C2504 O2490 1.252 . S
C2505 C2508 1.394 . S
C2505 C2510 1.370 . S
C2505 C2511 1.500 . S
C2506 C2509 1.383 . S
C2506 C2510 1.395 . S
C2507 C2508 1.396 . S
C2507 C2509 1.365 . S
C2507 H2516 0.970 . S
C2508 C2505 1.394 . S
C2508 C2507 1.396 . S
C2508 H2517 0.930 . S
C2509 C2506 1.383 . S
C2509 C2507 1.365 . S
C2509 H2518 0.931 . S
C2510 C2505 1.370 . S
C2510 C2506 1.395 . S
C2510 H2519 0.930 . S
C2511 Gd2447 2.805 . S
C2511 O2487 1.263 . S
C2511 O2488 1.252 . S
C2511 C2505 1.500 . S
H2512 C2495 0.929 . S
H2513 C2496 0.930 . S
H2514 C2497 0.931 . S
H2515 C2498 0.930 . S
H2516 C2507 0.970 . S
H2517 C2508 0.930 . S
H2518 C2509 0.931 . S
H2519 C2510 0.930 . S
C2520 C2522 1.422 . S
C2520 C2524 1.415 . S
C2520 N2526 1.369 . S
C2521 C2522 1.421 . S
C2521 C2523 1.417 . S
C2521 C2533 1.422 . S
C2522 C2520 1.422 . S
C2522 C2521 1.421 . S
C2522 N2532 1.359 . S
C2523 C2521 1.417 . S
C2523 C2525 1.329 . S
C2523 H2542 0.930 . S
C2524 C2520 1.415 . S
C2524 C2525 1.437 . S
C2524 C2528 1.413 . S
C2525 C2523 1.329 . S
C2525 C2524 1.437 . S
C2525 H2547 0.929 . S
N2526 C2520 1.369 . S
N2526 C2527 1.338 . S
N2526 Gd2531 2.622 . S
C2527 N2526 1.338 . S
C2527 C2529 1.378 . S
C2527 H2539 0.929 . S
C2528 C2524 1.413 . S
C2528 C2529 1.348 . S
C2528 H2544 0.931 . S
C2529 C2527 1.378 . S
C2529 C2528 1.348 . S
C2529 H2545 0.930 . S
Gd2530 N2550 2.622 . S
Gd2530 N2557 2.570 . S
Gd2530 O2564 2.353 . S
Gd2530 O2565 2.468 . S
Gd2530 O2566 2.427 . S
Gd2530 O2568 2.388 . S
Gd2530 O2569 2.386 . S
Gd2530 O2573 2.307 . S
Gd2530 C2583 2.805 . S
Gd2531 N2526 2.622 . S
Gd2531 N2532 2.570 . S
Gd2531 O2563 2.386 . S
Gd2531 O2567 2.307 . S
Gd2531 O2570 2.353 . S
Gd2531 O2571 2.468 . S
Gd2531 O2572 2.427 . S
Gd2531 O2574 2.388 . S
Gd2531 C2595 2.805 . S
N2532 C2522 1.359 . S
N2532 Gd2531 2.570 . S
N2532 C2534 1.343 . S
C2533 C2521 1.422 . S
C2533 C2535 1.321 . S
C2533 H2541 0.931 . S
C2534 N2532 1.343 . S
C2534 C2535 1.390 . S
C2534 H2536 0.931 . S
C2535 C2533 1.321 . S
C2535 C2534 1.390 . S
C2535 H2537 0.930 . S
H2536 C2534 0.931 . S
H2537 C2535 0.930 . S
H2538 C2561 0.931 . S
H2539 C2527 0.929 . S
H2540 C2562 0.930 . S
H2541 C2533 0.931 . S
H2542 C2523 0.930 . S
H2543 C2552 0.929 . S
H2544 C2528 0.931 . S
H2545 C2529 0.930 . S
H2546 C2584 0.930 . S
H2547 C2525 0.929 . S
H2548 C2553 0.931 . S
H2549 C2554 0.930 . S
N2550 Gd2530 2.622 . S
N2550 C2551 1.369 . S
N2550 C2552 1.338 . S
C2551 N2550 1.369 . S
C2551 C2555 1.415 . S
C2551 C2558 1.422 . S
C2552 H2543 0.929 . S
C2552 N2550 1.338 . S
C2552 C2554 1.378 . S
C2553 H2548 0.931 . S
C2553 C2554 1.348 . S
C2553 C2555 1.413 . S
C2554 H2549 0.930 . S
C2554 C2552 1.378 . S
C2554 C2553 1.348 . S
C2555 C2551 1.415 . S
C2555 C2553 1.413 . S
C2555 C2585 1.437 1_565 S
H2556 C2585 0.929 . S
N2557 Gd2530 2.570 . S
N2557 C2558 1.359 . S
N2557 C2561 1.343 . S
C2558 C2551 1.422 . S
C2558 N2557 1.359 . S
C2558 C2560 1.421 1_565 S
C2559 C2560 1.422 . S
C2559 C2562 1.321 1_545 S
C2559 H2586 0.931 . S
C2560 C2558 1.421 1_545 S
C2560 C2559 1.422 . S
C2560 C2584 1.417 . S
C2561 H2538 0.931 . S
C2561 N2557 1.343 . S
C2561 C2562 1.390 . S
C2562 H2540 0.930 . S
C2562 C2559 1.321 1_565 S
C2562 C2561 1.390 . S
O2563 Gd2531 2.386 . S
O2563 C2575 1.265 . S
O2564 Gd2530 2.353 . S
O2564 C2575 1.242 . S
O2565 Gd2530 2.468 . S
O2565 C2583 1.263 . S
O2566 Gd2530 2.427 . S
O2566 C2583 1.252 . S
O2567 Gd2531 2.307 . S
O2567 C2576 1.261 . S
O2568 Gd2530 2.388 . S
O2568 C2576 1.252 . S
O2569 Gd2530 2.386 . S
O2569 C2587 1.265 . S
O2570 Gd2531 2.353 . S
O2570 C2587 1.242 . S
O2571 Gd2531 2.468 . S
O2571 C2595 1.263 . S
O2572 Gd2531 2.427 . S
O2572 C2595 1.252 . S
O2573 Gd2530 2.307 . S
O2573 C2588 1.261 . S
O2574 Gd2531 2.388 . S
O2574 C2588 1.252 . S
C2575 O2563 1.265 . S
C2575 O2564 1.242 . S
C2576 O2567 1.261 . S
C2576 O2568 1.252 . S
C2577 C2580 1.394 . S
C2577 C2582 1.370 . S
C2577 C2583 1.500 . S
C2578 C2581 1.383 . S
C2578 C2582 1.395 . S
C2579 C2580 1.396 . S
C2579 C2581 1.365 . S
C2579 H2596 0.929 . S
C2580 C2577 1.394 . S
C2580 C2579 1.396 . S
C2580 H2597 0.930 . S
C2581 C2578 1.383 . S
C2581 C2579 1.365 . S
C2581 H2598 0.931 1_655 S
C2582 C2577 1.370 . S
C2582 C2578 1.395 . S
C2582 H2599 0.930 . S
C2583 Gd2530 2.805 . S
C2583 O2565 1.263 . S
C2583 O2566 1.252 . S
C2583 C2577 1.500 . S
C2584 H2546 0.930 . S
C2584 C2560 1.417 . S
C2584 C2585 1.329 . S
C2585 C2555 1.437 1_545 S
C2585 H2556 0.929 . S
C2585 C2584 1.329 . S
H2586 C2559 0.931 . S
C2587 O2569 1.265 . S
C2587 O2570 1.242 . S
C2588 O2573 1.261 . S
C2588 O2574 1.252 . S
C2589 C2592 1.394 . S
C2589 C2594 1.370 . S
C2589 C2595 1.500 . S
C2590 C2593 1.383 . S
C2590 C2594 1.395 1_655 S
C2591 C2592 1.407 . S
C2591 C2593 1.359 1_455 S
C2591 H2600 0.924 1_455 S
C2592 C2589 1.394 . S
C2592 C2591 1.407 . S
C2592 H2601 0.930 . S
C2593 C2590 1.383 . S
C2593 C2591 1.359 1_655 S
C2593 H2602 0.931 . S
C2594 C2589 1.370 . S
C2594 C2590 1.395 1_455 S
C2594 H2603 0.930 . S
C2595 Gd2531 2.805 . S
C2595 O2571 1.263 . S
C2595 O2572 1.252 . S
C2595 C2589 1.500 . S
H2596 C2579 0.929 . S
H2597 C2580 0.930 . S
H2598 C2581 0.931 1_455 S
H2599 C2582 0.930 . S
H2600 C2591 0.924 1_655 S
H2601 C2592 0.930 . S
H2602 C2593 0.931 . S
H2603 C2594 0.930 . S
C2604 C2606 1.422 . S
C2604 C2608 1.415 . S
C2604 N2610 1.369 . S
C2605 C2606 1.421 . S
C2605 C2607 1.417 . S
C2605 C2617 1.422 . S
C2606 C2604 1.422 . S
C2606 C2605 1.421 . S
C2606 N2616 1.359 . S
C2607 C2605 1.417 . S
C2607 C2609 1.329 . S
C2607 H2626 0.930 . S
C2608 C2604 1.415 . S
C2608 C2609 1.437 . S
C2608 C2612 1.413 . S
C2609 C2607 1.329 . S
C2609 C2608 1.437 . S
C2609 H2631 0.929 . S
N2610 C2604 1.369 . S
N2610 C2611 1.338 . S
N2610 Gd2615 2.622 . S
C2611 N2610 1.338 . S
C2611 C2613 1.378 . S
C2611 H2623 0.929 . S
C2612 C2608 1.413 . S
C2612 C2613 1.348 . S
C2612 H2628 0.931 . S
C2613 C2611 1.378 . S
C2613 C2612 1.348 . S
C2613 H2629 0.930 . S
Gd2614 N2634 2.622 . S
Gd2614 N2641 2.570 . S
Gd2614 O2648 2.353 1_565 S
Gd2614 O2649 2.468 . S
Gd2614 O2650 2.427 . S
Gd2614 O2652 2.388 1_565 S
Gd2614 O2653 2.386 . S
Gd2614 O2657 2.307 . S
Gd2614 C2667 2.805 . S
Gd2615 N2610 2.622 . S
Gd2615 N2616 2.570 . S
Gd2615 O2647 2.386 . S
Gd2615 O2651 2.307 . S
Gd2615 O2654 2.353 1_545 S
Gd2615 O2655 2.468 . S
Gd2615 O2656 2.427 . S
Gd2615 O2658 2.388 . S
Gd2615 C2679 2.805 . S
N2616 C2606 1.359 . S
N2616 Gd2615 2.570 . S
N2616 C2618 1.343 . S
C2617 C2605 1.422 . S
C2617 C2619 1.321 . S
C2617 H2625 0.931 . S
C2618 N2616 1.343 . S
C2618 C2619 1.390 . S
C2618 H2620 0.931 . S
C2619 C2617 1.321 . S
C2619 C2618 1.390 . S
C2619 H2621 0.930 . S
H2620 C2618 0.931 . S
H2621 C2619 0.930 . S
H2622 C2645 0.931 . S
H2623 C2611 0.929 . S
H2624 C2646 0.930 . S
H2625 C2617 0.931 . S
H2626 C2607 0.930 . S
H2627 C2636 0.929 . S
H2628 C2612 0.931 . S
H2629 C2613 0.930 . S
H2630 C2668 0.930 . S
H2631 C2609 0.929 . S
H2632 C2637 0.931 . S
H2633 C2638 0.930 . S
N2634 Gd2614 2.622 . S
N2634 C2635 1.369 . S
N2634 C2636 1.338 . S
C2635 N2634 1.369 . S
C2635 C2639 1.415 . S
C2635 C2642 1.422 . S
C2636 H2627 0.929 . S
C2636 N2634 1.338 . S
C2636 C2638 1.378 . S
C2637 H2632 0.931 . S
C2637 C2638 1.348 . S
C2637 C2639 1.413 . S
C2638 H2633 0.930 . S
C2638 C2636 1.378 . S
C2638 C2637 1.348 . S
C2639 C2635 1.415 . S
C2639 C2637 1.413 . S
C2639 C2669 1.437 . S
H2640 C2669 0.929 . S
N2641 Gd2614 2.570 . S
N2641 C2642 1.359 . S
N2641 C2645 1.343 . S
C2642 C2635 1.422 . S
C2642 N2641 1.359 . S
C2642 C2644 1.421 . S
C2643 C2644 1.422 . S
C2643 C2646 1.321 . S
C2643 H2670 0.931 . S
C2644 C2642 1.421 . S
C2644 C2643 1.422 . S
C2644 C2668 1.417 . S
C2645 H2622 0.931 . S
C2645 N2641 1.343 . S
C2645 C2646 1.390 . S
C2646 H2624 0.930 . S
C2646 C2643 1.321 . S
C2646 C2645 1.390 . S
O2647 Gd2615 2.386 . S
O2647 C2659 1.265 . S
O2648 Gd2614 2.353 1_545 S
O2648 C2659 1.242 . S
O2649 Gd2614 2.468 . S
O2649 C2667 1.263 . S
O2650 Gd2614 2.427 . S
O2650 C2667 1.252 . S
O2651 Gd2615 2.307 . S
O2651 C2660 1.261 . S
O2652 Gd2614 2.388 1_545 S
O2652 C2660 1.252 . S
O2653 Gd2614 2.386 . S
O2653 C2671 1.265 . S
O2654 Gd2615 2.353 1_565 S
O2654 C2671 1.242 . S
O2655 Gd2615 2.468 . S
O2655 C2679 1.263 . S
O2656 Gd2615 2.427 . S
O2656 C2679 1.252 . S
O2657 Gd2614 2.307 . S
O2657 C2672 1.261 1_565 S
O2658 Gd2615 2.388 . S
O2658 C2672 1.252 . S
C2659 O2647 1.265 . S
C2659 O2648 1.242 . S
C2660 O2651 1.261 . S
C2660 O2652 1.252 . S
C2661 C2664 1.394 . S
C2661 C2666 1.370 . S
C2661 C2667 1.500 1_655 S
C2662 C2665 1.383 . S
C2662 C2666 1.395 . S
C2663 C2664 1.396 . S
C2663 C2665 1.365 . S
C2663 H2680 0.929 . S
C2664 C2661 1.394 . S
C2664 C2663 1.396 . S
C2664 H2681 0.930 . S
C2665 C2662 1.383 . S
C2665 C2663 1.365 . S
C2665 H2682 0.931 . S
C2666 C2661 1.370 . S
C2666 C2662 1.395 . S
C2666 H2683 0.930 . S
C2667 Gd2614 2.805 . S
C2667 O2649 1.263 . S
C2667 O2650 1.252 . S
C2667 C2661 1.500 1_455 S
C2668 H2630 0.930 . S
C2668 C2644 1.417 . S
C2668 C2669 1.329 . S
C2669 C2639 1.437 . S
C2669 H2640 0.929 . S
C2669 C2668 1.329 . S
H2670 C2643 0.931 . S
C2671 O2653 1.265 . S
C2671 O2654 1.242 . S
C2672 O2657 1.261 1_545 S
C2672 O2658 1.252 . S
C2673 C2676 1.394 . S
C2673 C2678 1.370 . S
C2673 C2679 1.500 . S
C2674 C2677 1.383 . S
C2674 C2678 1.395 . S
C2675 C2676 1.396 . S
C2675 C2677 1.365 . S
C2675 H2684 0.929 . S
C2676 C2673 1.394 . S
C2676 C2675 1.396 . S
C2676 H2685 0.930 . S
C2677 C2674 1.383 . S
C2677 C2675 1.365 . S
C2677 H2686 0.931 . S
C2678 C2673 1.370 . S
C2678 C2674 1.395 . S
C2678 H2687 0.930 . S
C2679 Gd2615 2.805 . S
C2679 O2655 1.263 . S
C2679 O2656 1.252 . S
C2679 C2673 1.500 . S
H2680 C2663 0.929 . S
H2681 C2664 0.930 . S
H2682 C2665 0.931 . S
H2683 C2666 0.930 . S
H2684 C2675 0.929 . S
H2685 C2676 0.930 . S
H2686 C2677 0.931 . S
H2687 C2678 0.930 . S
C67 C2167 2.405 . S
C2083 C151 2.405 . S
C2335 C235 2.405 . S
C319 C2251 2.405 . S
C391 C2491 2.405 . S
C475 C2407 2.405 . S
C559 C2659 2.405 . S
C2575 C643 2.405 . S
C739 C1495 2.405 . S
C823 C1411 2.405 . S
C907 C1663 2.405 . S
C1579 C991 2.405 . S
C1063 C1819 2.405 . S
C1147 C1735 2.405 . S
C1987 C1231 2.405 . S
C1315 C1903 2.405 . S
C68 C320 2.012 . S
C152 C236 2.012 . S
C644 C392 2.012 . S
C560 C476 2.012 . S
C740 C992 2.012 . S
C824 C908 2.012 . S
C1064 C1316 2.012 . S
C1232 C1148 2.012 . S
C1412 C1664 2.012 . S
C1496 C1580 2.012 . S
C1988 C1736 2.012 . S
C1820 C1904 2.012 . S
C2336 C2084 2.012 . S
C2168 C2252 2.012 . S
C2660 C2408 2.012 . S
C2576 C2492 2.012 . S
C139 C55 1.616 . S
C223 C307 1.616 . S
C487 C403 1.616 . S
C655 C571 1.616 . S
C727 C811 1.616 . S
C895 C979 1.616 . S
C1159 C1075 1.616 . S
C1243 C1327 1.616 . S
C1399 C1483 1.616 . S
C1651 C1567 1.616 . S
C1747 C1831 1.616 . S
C1915 C1999 1.616 . S
C2071 C2155 1.616 . S
C2239 C2323 1.616 . S
C2503 C2419 1.616 . S
C2587 C2671 1.616 . S
C70 C58 1.691 . S
C154 C142 1.691 . S
C238 C226 1.691 . S
C310 C322 1.691 . S
C406 C394 1.691 . S
C478 C490 1.691 . S
C574 C562 1.691 . S
C658 C646 1.691 . S
C730 C742 1.691 1_565 S
C826 C814 1.691 . S
C910 C898 1.691 . S
C982 C994 1.691 1_565 S
C1078 C1066 1.691 1_545 S
C1150 C1162 1.691 . S
C1234 C1246 1.691 . S
C1330 C1318 1.691 1_545 S
C1414 C1402 1.691 . S
C1486 C1498 1.691 . S
C1570 C1582 1.691 . S
C1666 C1654 1.691 . S
C1738 C1750 1.691 . S
C1822 C1834 1.691 . S
C1918 C1906 1.691 . S
C1990 C2002 1.691 . S
C2074 C2086 1.691 1_565 S
C2170 C2158 1.691 . S
C2242 C2254 1.691 . S
C2326 C2338 1.691 1_565 S
C2410 C2422 1.691 1_565 S
C2494 C2506 1.691 . S
C2590 C2578 1.691 . S
C2674 C2662 1.691 1_545 S
C56 C404 1.580 1_654 S
C2504 C140 1.580 1_556 S
C1244 C224 1.580 1_455 S
C308 C2000 1.580 . S
C488 C2156 1.580 1_556 S
C572 C896 1.580 1_455 S
C656 C1652 1.580 . S
C728 C1076 1.580 1_665 S
C1832 C812 1.580 . S
C2672 C980 1.580 1_545 S
C1160 C1484 1.580 . S
C2324 C1328 1.580 1_565 S
C1400 C1748 1.580 . S
C2588 C1568 1.580 . S
C1916 C2240 1.580 . S
C2072 C2420 1.580 1_564 S
