# Generated by pormake.
# Topology wnd, (6)-cn, num edge types: 1
# Building blocks:
#     Node 0, Type 0, BuildingBlock: BETDEL_clean_sbu_0, # of connection points: 6
#     Node 1, Type 0, BuildingBlock: BETDEL_clean_sbu_0, # of connection points: 6
#     Node 2, Type 0, BuildingBlock: BETDEL_clean_sbu_0, # of connection points: 6
#     Node 3, Type 0, BuildingBlock: BETDEL_clean_sbu_0, # of connection points: 6
#     Node 4, Type 0, BuildingBlock: BETDEL_clean_sbu_0, # of connection points: 6
#     Node 5, Type 0, BuildingBlock: BETDEL_clean_sbu_0, # of connection points: 6
#     Node 6, Type 0, BuildingBlock: BETDEL_clean_sbu_0, # of connection points: 6
#     Node 7, Type 0, BuildingBlock: BETDEL_clean_sbu_0, # of connection points: 6
#     Node 8, Type 0, BuildingBlock: BETDEL_clean_sbu_0, # of connection points: 6
#     Node 9, Type 0, BuildingBlock: BETDEL_clean_sbu_0, # of connection points: 6
#     Node 10, Type 0, BuildingBlock: BETDEL_clean_sbu_0, # of connection points: 6
#     Node 11, Type 0, BuildingBlock: BETDEL_clean_sbu_0, # of connection points: 6
#     Node 12, Type 0, BuildingBlock: BETDEL_clean_sbu_0, # of connection points: 6
#     Node 13, Type 0, BuildingBlock: BETDEL_clean_sbu_0, # of connection points: 6
#     Node 14, Type 0, BuildingBlock: BETDEL_clean_sbu_0, # of connection points: 6
#     Node 15, Type 0, BuildingBlock: BETDEL_clean_sbu_0, # of connection points: 6
#     Node 16, Type 0, BuildingBlock: BETDEL_clean_sbu_0, # of connection points: 6
#     Node 17, Type 0, BuildingBlock: BETDEL_clean_sbu_0, # of connection points: 6
#     Node 18, Type 0, BuildingBlock: BETDEL_clean_sbu_0, # of connection points: 6
#     Node 19, Type 0, BuildingBlock: BETDEL_clean_sbu_0, # of connection points: 6
#     Node 20, Type 0, BuildingBlock: BETDEL_clean_sbu_0, # of connection points: 6
#     Node 21, Type 0, BuildingBlock: BETDEL_clean_sbu_0, # of connection points: 6
#     Node 22, Type 0, BuildingBlock: BETDEL_clean_sbu_0, # of connection points: 6
#     Node 23, Type 0, BuildingBlock: BETDEL_clean_sbu_0, # of connection points: 6
#     Node 24, Type 0, BuildingBlock: BETDEL_clean_sbu_0, # of connection points: 6
#     Node 25, Type 0, BuildingBlock: BETDEL_clean_sbu_0, # of connection points: 6
#     Node 26, Type 0, BuildingBlock: BETDEL_clean_sbu_0, # of connection points: 6
#     Node 27, Type 0, BuildingBlock: BETDEL_clean_sbu_0, # of connection points: 6
#     Node 28, Type 0, BuildingBlock: BETDEL_clean_sbu_0, # of connection points: 6
#     Node 29, Type 0, BuildingBlock: BETDEL_clean_sbu_0, # of connection points: 6
#     Node 30, Type 0, BuildingBlock: BETDEL_clean_sbu_0, # of connection points: 6
#     Node 31, Type 0, BuildingBlock: BETDEL_clean_sbu_0, # of connection points: 6
#     Node 32, Type 0, BuildingBlock: BETDEL_clean_sbu_0, # of connection points: 6
#     Node 33, Type 0, BuildingBlock: BETDEL_clean_sbu_0, # of connection points: 6
#     Node 34, Type 0, BuildingBlock: BETDEL_clean_sbu_0, # of connection points: 6
#     Node 35, Type 0, BuildingBlock: BETDEL_clean_sbu_0, # of connection points: 6
#     Edge 36, Type (0, 0), None
#     Edge 37, Type (0, 0), None
#     Edge 38, Type (0, 0), None
#     Edge 39, Type (0, 0), None
#     Edge 40, Type (0, 0), None
#     Edge 41, Type (0, 0), None
#     Edge 42, Type (0, 0), None
#     Edge 43, Type (0, 0), None
#     Edge 44, Type (0, 0), None
#     Edge 45, Type (0, 0), None
#     Edge 46, Type (0, 0), None
#     Edge 47, Type (0, 0), None
#     Edge 48, Type (0, 0), None
#     Edge 49, Type (0, 0), None
#     Edge 50, Type (0, 0), None
#     Edge 51, Type (0, 0), None
#     Edge 52, Type (0, 0), None
#     Edge 53, Type (0, 0), None
#     Edge 54, Type (0, 0), None
#     Edge 55, Type (0, 0), None
#     Edge 56, Type (0, 0), None
#     Edge 57, Type (0, 0), None
#     Edge 58, Type (0, 0), None
#     Edge 59, Type (0, 0), None
#     Edge 60, Type (0, 0), None
#     Edge 61, Type (0, 0), None
#     Edge 62, Type (0, 0), None
#     Edge 63, Type (0, 0), None
#     Edge 64, Type (0, 0), None
#     Edge 65, Type (0, 0), None
#     Edge 66, Type (0, 0), None
#     Edge 67, Type (0, 0), None
#     Edge 68, Type (0, 0), None
#     Edge 69, Type (0, 0), None
#     Edge 70, Type (0, 0), None
#     Edge 71, Type (0, 0), None
#     Edge 72, Type (0, 0), None
#     Edge 73, Type (0, 0), None
#     Edge 74, Type (0, 0), None
#     Edge 75, Type (0, 0), None
#     Edge 76, Type (0, 0), None
#     Edge 77, Type (0, 0), None
#     Edge 78, Type (0, 0), None
#     Edge 79, Type (0, 0), None
#     Edge 80, Type (0, 0), None
#     Edge 81, Type (0, 0), None
#     Edge 82, Type (0, 0), None
#     Edge 83, Type (0, 0), None
#     Edge 84, Type (0, 0), None
#     Edge 85, Type (0, 0), None
#     Edge 86, Type (0, 0), None
#     Edge 87, Type (0, 0), None
#     Edge 88, Type (0, 0), None
#     Edge 89, Type (0, 0), None
#     Edge 90, Type (0, 0), None
#     Edge 91, Type (0, 0), None
#     Edge 92, Type (0, 0), None
#     Edge 93, Type (0, 0), None
#     Edge 94, Type (0, 0), None
#     Edge 95, Type (0, 0), None
#     Edge 96, Type (0, 0), None
#     Edge 97, Type (0, 0), None
#     Edge 98, Type (0, 0), None
#     Edge 99, Type (0, 0), None
#     Edge 100, Type (0, 0), None
#     Edge 101, Type (0, 0), None
#     Edge 102, Type (0, 0), None
#     Edge 103, Type (0, 0), None
#     Edge 104, Type (0, 0), None
#     Edge 105, Type (0, 0), None
#     Edge 106, Type (0, 0), None
#     Edge 107, Type (0, 0), None
#     Edge 108, Type (0, 0), None
#     Edge 109, Type (0, 0), None
#     Edge 110, Type (0, 0), None
#     Edge 111, Type (0, 0), None
#     Edge 112, Type (0, 0), None
#     Edge 113, Type (0, 0), None
#     Edge 114, Type (0, 0), None
#     Edge 115, Type (0, 0), None
#     Edge 116, Type (0, 0), None
#     Edge 117, Type (0, 0), None
#     Edge 118, Type (0, 0), None
#     Edge 119, Type (0, 0), None
#     Edge 120, Type (0, 0), None
#     Edge 121, Type (0, 0), None
#     Edge 122, Type (0, 0), None
#     Edge 123, Type (0, 0), None
#     Edge 124, Type (0, 0), None
#     Edge 125, Type (0, 0), None
#     Edge 126, Type (0, 0), None
#     Edge 127, Type (0, 0), None
#     Edge 128, Type (0, 0), None
#     Edge 129, Type (0, 0), None
#     Edge 130, Type (0, 0), None
#     Edge 131, Type (0, 0), None
#     Edge 132, Type (0, 0), None
#     Edge 133, Type (0, 0), None
#     Edge 134, Type (0, 0), None
#     Edge 135, Type (0, 0), None
#     Edge 136, Type (0, 0), None
#     Edge 137, Type (0, 0), None
#     Edge 138, Type (0, 0), None
#     Edge 139, Type (0, 0), None
#     Edge 140, Type (0, 0), None
#     Edge 141, Type (0, 0), None
#     Edge 142, Type (0, 0), None
#     Edge 143, Type (0, 0), None
# Relax obj value: 0.101
# Max RMSD: 0.193
# Mean RMSD: 0.193
data_MOF--net-wnd--node1-BETDEL_clean_sbu_0--edge1-none
_symmetry_space_group_name_H-M    P1
_symmetry_Int_Tables_number       1
_symmetry_cell_setting            triclinic
loop_
_symmetry_equiv_pos_as_xyz
'x, y, z'
_cell_length_a     15.949806
_cell_length_b     15.950198
_cell_length_c     69.523829
_cell_angle_alpha  89.999887
_cell_angle_beta   89.999297
_cell_angle_gamma 120.00228
loop_
_atom_site_label
_atom_site_type_symbol
_atom_site_fract_x
_atom_site_fract_y
_atom_site_fract_z
_atom_type_partial_charge
Dy0 Dy 0.48032 0.11666 0.04051 0.0
C1 C 0.63135 0.8743 0.05802 0.0
C2 C 0.52142 0.29886 0.04476 0.0
Dy3 Dy 0.559 0.9991 0.06029 0.0
O4 O 0.44004 0.23156 0.03706 0.0
O5 O 0.5738 0.26478 0.05138 0.0
O6 O 0.48468 0.09802 0.00951 0.0
O7 O 0.54394 0.03741 0.02993 0.0
C8 C 0.53787 0.05796 0.01228 0.0
C9 C 0.50326 0.11019 0.08215 0.0
O10 O 0.7032 0.11495 0.05723 0.0
O11 O 0.64756 0.20464 0.04114 0.0
O12 O 0.5902 0.88765 0.0732 0.0
O13 O 0.62883 0.92707 0.0441 0.0
O14 O 0.57104 0.09109 0.08749 0.0
O15 O 0.46557 0.05927 0.06772 0.0
O16 O 0.34059 0.97009 0.04783 0.0
O17 O 0.41027 0.87974 0.059 0.0
C18 C 0.7182 0.18999 0.04748 0.0
C19 C 0.33426 0.88715 0.05449 0.0
Dy20 Dy 0.99992 0.40355 0.04051 0.0
C21 C 0.2424 0.79675 0.05804 0.0
C22 C 0.81772 0.26247 0.04476 0.0
Dy23 Dy 0.11747 0.59971 0.0603 0.0
O24 O 0.88501 0.24839 0.03706 0.0
O25 O 0.8518 0.34894 0.05138 0.0
O26 O 1.01861 0.42655 0.00951 0.0
O27 O 0.07923 0.54644 0.02994 0.0
C28 C 0.0587 0.51981 0.01229 0.0
C29 C 1.00635 0.43284 0.08216 0.0
O30 O 1.00162 0.62808 0.05726 0.0
O31 O 0.912 0.48285 0.04113 0.0
O32 O 0.22911 0.74225 0.07322 0.0
O33 O 0.18936 0.74164 0.04412 0.0
O34 O 1.02545 0.51972 0.0875 0.0
O35 O 0.05729 0.4461 0.06773 0.0
O36 O 0.14647 0.41035 0.04783 0.0
O37 O 0.23683 0.57037 0.05899 0.0
C38 C 0.92663 0.5681 0.0475 0.0
C39 C 0.22941 0.48696 0.05449 0.0
Dy40 Dy 0.7131 0.63624 0.04052 0.0
C41 C 0.31981 0.48551 0.05802 0.0
C42 C 0.85417 0.59514 0.04478 0.0
Dy43 Dy 0.51684 0.55764 0.06029 0.0
O44 O 0.86826 0.6765 0.03707 0.0
O45 O 0.76769 0.54275 0.0514 0.0
O46 O 0.69015 0.63193 0.00951 0.0
O47 O 0.57024 0.57271 0.02993 0.0
C48 C 0.59688 0.57878 0.01229 0.0
C49 C 0.68364 0.61332 0.08216 0.0
O50 O 0.48844 0.41341 0.05722 0.0
O51 O 0.63379 0.469 0.04114 0.0
O52 O 0.37431 0.52671 0.07321 0.0
O53 O 0.37492 0.48761 0.04411 0.0
O54 O 0.59674 0.54556 0.08749 0.0
O55 O 0.67044 0.65101 0.06772 0.0
O56 O 0.70637 0.776 0.04784 0.0
O57 O 0.54627 0.70639 0.05896 0.0
C58 C 0.54847 0.39839 0.04748 0.0
C59 C 0.62975 0.78238 0.05447 0.0
Dy60 Dy 0.12902 0.46795 0.46839 0.0
C61 C 0.88667 0.61898 0.45088 0.0
C62 C 0.31124 0.50908 0.46415 0.0
Dy63 Dy 1.01147 0.54662 0.44861 0.0
O64 O 0.24394 0.4277 0.47185 0.0
O65 O 0.27714 0.56145 0.45752 0.0
O66 O 0.11036 0.47231 0.4994 0.0
O67 O 0.04976 0.53158 0.47897 0.0
C68 C 0.07031 0.52551 0.49662 0.0
C69 C 0.12256 0.49086 0.42676 0.0
O70 O 0.12733 0.69082 0.45167 0.0
O71 O 0.21699 0.63518 0.46777 0.0
O72 O 0.90001 0.5778 0.4357 0.0
O73 O 0.93947 0.6165 0.4648 0.0
O74 O 0.10346 0.55863 0.42142 0.0
O75 O 0.07163 0.45319 0.44119 0.0
O76 O 0.98244 0.32823 0.46108 0.0
O77 O 0.8921 0.39791 0.44991 0.0
C78 C 0.20235 0.70581 0.46142 0.0
C79 C 0.89951 0.32191 0.45441 0.0
Dy80 Dy 0.64862 0.70076 0.46838 0.0
C81 C 0.49762 0.30732 0.45089 0.0
C82 C 0.60752 0.84183 0.46413 0.0
Dy83 Dy 0.57 0.50447 0.44862 0.0
O84 O 0.68889 0.85592 0.47184 0.0
O85 O 0.55514 0.75537 0.45751 0.0
O86 O 0.64429 0.67779 0.49939 0.0
O87 O 0.58508 0.5579 0.47897 0.0
C88 C 0.59114 0.58453 0.49662 0.0
C89 C 0.62568 0.67126 0.42675 0.0
O90 O 0.42578 0.47609 0.45169 0.0
O91 O 0.48139 0.62147 0.46776 0.0
O92 O 0.53883 0.36184 0.43571 0.0
O93 O 0.5001 0.3626 0.46481 0.0
O94 O 0.55793 0.58436 0.42141 0.0
O95 O 0.66337 0.65806 0.44118 0.0
O96 O 0.78837 0.694 0.46106 0.0
O97 O 0.71877 0.53391 0.44993 0.0
C98 C 0.41076 0.53614 0.46143 0.0
C99 C 0.79475 0.61739 0.45442 0.0
Dy100 Dy 0.41586 0.98751 0.4684 0.0
C101 C 0.8091 0.23006 0.45087 0.0
C102 C 0.27481 0.80532 0.46414 0.0
Dy103 Dy 0.61207 0.10515 0.44861 0.0
O104 O 0.26072 0.87258 0.47186 0.0
O105 O 0.36128 0.83943 0.45752 0.0
O106 O 0.43889 1.00619 0.4994 0.0
O107 O 0.55875 0.06686 0.47897 0.0
C108 C 0.53215 0.04632 0.49662 0.0
C109 C 0.44522 0.99403 0.42675 0.0
O110 O 0.64045 0.98931 0.45165 0.0
O111 O 0.49519 0.89962 0.46777 0.0
O112 O 0.75459 0.21681 0.43569 0.0
O113 O 0.75401 0.17699 0.46479 0.0
O114 O 0.53211 1.01319 0.42141 0.0
O115 O 0.45845 0.04492 0.44119 0.0
O116 O 0.42259 0.134 0.46108 0.0
O117 O 0.58267 0.22448 0.44994 0.0
C118 C 0.58046 0.91429 0.46141 0.0
C119 C 0.49921 0.217 0.45444 0.0
Dy120 Dy 0.5701 0.10519 0.94866 0.0
C121 C 0.60754 0.80556 0.96417 0.0
C122 C 0.49776 0.23005 0.95097 0.0
Dy123 Dy 0.64867 0.98777 0.96846 0.0
O124 O 0.5389 0.21672 0.93578 0.0
O125 O 0.50027 0.17721 0.96488 0.0
O126 O 0.55846 1.01378 0.92142 0.0
O127 O 0.66381 0.04515 0.94125 0.0
C128 C 0.62621 0.99463 0.92676 0.0
C129 C 0.59092 0.04627 0.99669 0.0
O130 O 0.78844 0.13446 0.96119 0.0
O131 O 0.71876 0.22467 0.94996 0.0
O132 O 0.68874 0.87272 0.97195 0.0
O133 O 0.55539 0.83981 0.95749 0.0
O134 O 0.64414 1.00624 0.99947 0.0
O135 O 0.58487 0.06685 0.97904 0.0
O136 O 0.42587 0.98918 0.95161 0.0
O137 O 0.48141 0.89982 0.96785 0.0
C138 C 0.79477 0.21737 0.9545 0.0
C139 C 0.4108 0.9143 0.96143 0.0
Dy140 Dy 1.01162 0.50488 0.94866 0.0
C141 C 0.31125 0.84187 0.96417 0.0
C142 C 0.88663 0.30781 0.95096 0.0
Dy143 Dy 0.12903 0.70082 0.96847 0.0
O144 O 0.89991 0.36227 0.93577 0.0
O145 O 0.93973 0.36297 0.96486 0.0
O146 O 0.10306 0.58468 0.92142 0.0
O147 O 0.07167 0.65864 0.94125 0.0
C148 C 0.12221 0.67157 0.92676 0.0
C149 C 0.07046 0.58456 0.99669 0.0
O150 O 0.98237 0.69393 0.9612 0.0
O151 O 0.89215 0.53404 0.94997 0.0
O152 O 0.2441 0.85592 0.97195 0.0
O153 O 0.27699 0.75546 0.9575 0.0
O154 O 0.11052 0.67782 0.99947 0.0
O155 O 0.0499 0.55792 0.97904 0.0
O156 O 0.12762 0.47665 0.95159 0.0
O157 O 0.21693 0.62147 0.96786 0.0
C158 C 0.89946 0.61735 0.95451 0.0
C159 C 0.20246 0.5364 0.96142 0.0
Dy160 Dy 0.61195 0.54665 0.94867 0.0
C161 C 0.27488 0.50928 0.96415 0.0
C162 C 0.80902 0.61876 0.95097 0.0
Dy163 Dy 0.41593 0.46815 0.96846 0.0
O164 O 0.75456 0.57758 0.93578 0.0
O165 O 0.75385 0.61666 0.96488 0.0
O166 O 0.53223 0.55833 0.92143 0.0
O167 O 0.4582 0.453 0.94125 0.0
C168 C 0.44532 0.49061 0.92676 0.0
C169 C 0.53215 0.5258 0.99669 0.0
O170 O 0.42274 0.32836 0.96118 0.0
O171 O 0.58271 0.39797 0.95 0.0
O172 O 0.26082 0.4281 0.97195 0.0
O173 O 0.36129 0.56144 0.95749 0.0
O174 O 0.43888 0.47263 0.99947 0.0
O175 O 0.5588 0.53187 0.97904 0.0
O176 O 0.64022 0.69091 0.95163 0.0
O177 O 0.49528 0.63541 0.96785 0.0
C178 C 0.49932 0.32197 0.95452 0.0
C179 C 0.58042 0.706 0.96144 0.0
Dy180 Dy 0.11753 0.55775 0.56025 0.0
C181 C 0.81789 0.59516 0.54472 0.0
C182 C 0.24239 0.48541 0.55794 0.0
Dy183 Dy 1.00012 0.63633 0.54044 0.0
O184 O 0.22907 0.52658 0.57313 0.0
O185 O 0.18953 0.48788 0.54403 0.0
O186 O 1.02608 0.5461 0.58748 0.0
O187 O 0.05748 0.65146 0.56766 0.0
C188 C 1.00694 0.61384 0.58214 0.0
C189 C 0.05865 0.57858 0.51222 0.0
O190 O 0.14681 0.77608 0.54771 0.0
O191 O 0.23701 0.70639 0.55895 0.0
O192 O 0.88506 0.67637 0.53695 0.0
O193 O 0.85215 0.54302 0.5514 0.0
O194 O 1.01863 0.63181 0.50943 0.0
O195 O 0.07921 0.57252 0.52987 0.0
O196 O 1.00151 0.41353 0.55729 0.0
O197 O 0.91218 0.46907 0.54104 0.0
C198 C 0.22971 0.78241 0.5544 0.0
C199 C 0.92666 0.39846 0.54747 0.0
Dy200 Dy 0.55901 0.59961 0.56023 0.0
C201 C 0.52161 0.2625 0.54474 0.0
C202 C 0.63137 0.7968 0.55793 0.0
Dy203 Dy 0.48047 0.40355 0.54044 0.0
O204 O 0.59018 0.74232 0.57312 0.0
O205 O 0.62889 0.74146 0.54402 0.0
O206 O 0.57071 0.5199 0.58748 0.0
O207 O 0.46537 0.44586 0.56766 0.0
C208 C 0.503 0.43298 0.58214 0.0
C209 C 0.53814 0.51979 0.51222 0.0
O210 O 0.34069 0.41039 0.54773 0.0
O211 O 0.41031 0.57035 0.55892 0.0
O212 O 0.4404 0.24844 0.53696 0.0
O213 O 0.57377 0.3489 0.55141 0.0
O214 O 0.48497 0.42653 0.50944 0.0
O215 O 0.5442 0.54642 0.52986 0.0
O216 O 0.70325 0.62786 0.55726 0.0
O217 O 0.64773 0.48289 0.54105 0.0
C218 C 0.33431 0.48697 0.55439 0.0
C219 C 0.71834 0.56804 0.54746 0.0
Dy220 Dy 0.51723 0.99923 0.56024 0.0
C221 C 0.85424 0.29892 0.54473 0.0
C222 C 0.32016 0.87426 0.55795 0.0
Dy223 Dy 0.71321 0.11672 0.54043 0.0
O224 O 0.37464 0.8875 0.57313 0.0
O225 O 0.37531 0.92737 0.54404 0.0
O226 O 0.597 0.09064 0.58748 0.0
O227 O 0.671 0.05934 0.56765 0.0
C228 C 0.68391 0.10985 0.58214 0.0
C229 C 0.59692 0.05811 0.51221 0.0
O230 O 0.7064 0.97012 0.54771 0.0
O231 O 0.54645 0.87978 0.55891 0.0
O232 O 0.8683 0.2318 0.53694 0.0
O233 O 0.76783 0.26466 0.5514 0.0
O234 O 0.69018 0.09821 0.50943 0.0
O235 O 0.57031 0.03755 0.52986 0.0
O236 O 0.48898 0.11522 0.5573 0.0
O237 O 0.63384 0.2046 0.54104 0.0
C238 C 0.62982 0.88716 0.55438 0.0
C239 C 0.54873 0.19008 0.54747 0.0
Dy240 Dy 0.14704 0.44989 0.37388 0.0
C241 C 0.29799 0.2075 0.39134 0.0
C242 C 0.1881 0.63205 0.37813 0.0
Dy243 Dy 0.22566 0.33231 0.39362 0.0
O244 O 0.10675 0.56476 0.37042 0.0
O245 O 0.24047 0.59797 0.38476 0.0
O246 O 0.15139 0.43136 0.34286 0.0
O247 O 0.21065 0.37067 0.36327 0.0
C248 C 0.20456 0.39126 0.34562 0.0
C249 C 0.16984 0.44319 0.41552 0.0
O250 O 0.3699 0.4481 0.39056 0.0
O251 O 0.31428 0.53789 0.37451 0.0
O252 O 0.25685 0.22085 0.40653 0.0
O253 O 0.29547 0.26028 0.37742 0.0
O254 O 0.23792 0.42444 0.42081 0.0
O255 O 0.13213 0.39235 0.40108 0.0
O256 O 1.00728 0.3033 0.38117 0.0
O257 O 0.07695 0.21294 0.39233 0.0
C258 C 0.38491 0.5232 0.38084 0.0
C259 C 1.00095 0.22034 0.38782 0.0
Dy260 Dy 0.6666 0.73678 0.37386 0.0
C261 C 0.90909 0.12995 0.39135 0.0
C262 C 0.48443 0.59568 0.37813 0.0
Dy263 Dy 0.78415 0.93293 0.39362 0.0
O264 O 0.5517 0.58162 0.37041 0.0
O265 O 0.51853 0.68214 0.38476 0.0
O266 O 0.68514 0.75967 0.34285 0.0
O267 O 0.74581 0.87962 0.36326 0.0
C268 C 0.72521 0.85293 0.34562 0.0
C269 C 0.67329 0.7662 0.41551 0.0
O270 O 0.66837 0.96138 0.39058 0.0
O271 O 0.57862 0.81602 0.37451 0.0
O272 O 0.89575 0.07546 0.40654 0.0
O273 O 0.85612 0.07484 0.37743 0.0
O274 O 0.69204 0.85303 0.4208 0.0
O275 O 0.72414 0.77935 0.40107 0.0
O276 O 0.81318 0.74359 0.38116 0.0
O277 O 0.90355 0.90364 0.39231 0.0
C278 C 0.59329 0.90131 0.38085 0.0
C279 C 0.89614 0.82023 0.3878 0.0
Dy280 Dy 0.37974 0.96942 0.37387 0.0
C281 C 0.98653 0.81877 0.39134 0.0
C282 C 0.52082 0.92836 0.37813 0.0
Dy283 Dy 0.18355 0.89087 0.39362 0.0
O284 O 0.53488 1.00967 0.3704 0.0
O285 O 0.43437 0.876 0.38477 0.0
O286 O 0.35681 0.96502 0.34285 0.0
O287 O 0.23689 0.90584 0.36327 0.0
C288 C 0.26353 0.91188 0.34562 0.0
C289 C 0.35026 0.94672 0.41551 0.0
O290 O 0.15508 0.74662 0.39057 0.0
O291 O 0.30047 0.80219 0.37451 0.0
O292 O 0.041 0.85994 0.40653 0.0
O293 O 0.04166 0.8209 0.37743 0.0
O294 O 0.26342 0.87868 0.42081 0.0
O295 O 0.33714 0.98439 0.40107 0.0
O296 O 0.37301 0.1092 0.38116 0.0
O297 O 0.21293 0.03961 0.39229 0.0
C298 C 0.21514 0.73158 0.38085 0.0
C299 C 0.29639 0.11559 0.38779 0.0
Dy300 Dy 0.79583 0.80152 0.80173 0.0
C301 C 0.55349 0.95252 0.7842 0.0
C302 C 0.97806 0.84264 0.79749 0.0
Dy303 Dy 0.6783 0.88018 0.78193 0.0
O304 O 0.91074 0.76125 0.80519 0.0
O305 O 0.94398 0.89502 0.79087 0.0
O306 O 0.7771 0.80583 0.83273 0.0
O307 O 0.71651 0.8651 0.8123 0.0
C308 C 0.73702 0.859 0.82995 0.0
C309 C 0.78945 0.82446 0.76009 0.0
O310 O 0.79417 1.02438 0.78499 0.0
O311 O 0.88379 0.96875 0.80111 0.0
O312 O 0.5668 0.91131 0.76902 0.0
O313 O 0.60633 0.9501 0.79812 0.0
O314 O 0.77034 0.89223 0.75474 0.0
O315 O 0.7385 0.78677 0.77451 0.0
O316 O 0.64928 0.66179 0.7944 0.0
O317 O 0.55895 0.73146 0.78322 0.0
C318 C 0.86917 0.03938 0.79475 0.0
C319 C 0.56635 0.65546 0.78773 0.0
Dy320 Dy 0.31544 0.03427 0.80173 0.0
C321 C 0.16446 0.64086 0.78421 0.0
C322 C 0.27435 0.17536 0.79748 0.0
Dy323 Dy 0.23681 0.83801 0.78195 0.0
O324 O 0.35572 0.18944 0.80519 0.0
O325 O 0.22197 0.0889 0.79086 0.0
O326 O 0.31109 1.01123 0.83274 0.0
O327 O 0.25189 0.89138 0.81231 0.0
C328 C 0.25795 0.91797 0.82996 0.0
C329 C 0.29249 1.00483 0.76009 0.0
O330 O 0.09259 0.80964 0.78503 0.0
O331 O 0.14821 0.95499 0.80111 0.0
O332 O 0.20567 0.69539 0.76903 0.0
O333 O 0.16691 0.69611 0.79813 0.0
O334 O 0.22474 0.91794 0.75475 0.0
O335 O 0.33018 0.99161 0.77452 0.0
O336 O 0.45519 0.02753 0.7944 0.0
O337 O 0.38558 0.86745 0.78326 0.0
C338 C 0.07758 0.86968 0.79477 0.0
C339 C 0.46157 0.95092 0.78775 0.0
Dy340 Dy 0.08272 0.32107 0.80172 0.0
C341 C 0.47595 0.56361 0.78419 0.0
C342 C 0.94164 0.13889 0.79747 0.0
Dy343 Dy 0.27892 0.43868 0.78194 0.0
O344 O 0.92756 0.20616 0.80518 0.0
O345 O 1.02811 0.17297 0.79085 0.0
O346 O 0.10571 0.33979 0.83272 0.0
O347 O 0.2256 0.40044 0.8123 0.0
C348 C 0.19898 0.37991 0.82995 0.0
C349 C 0.11208 0.32755 0.76008 0.0
O350 O 0.30731 0.32285 0.785 0.0
O351 O 0.16203 0.23316 0.80111 0.0
O352 O 0.42144 0.55033 0.76901 0.0
O353 O 0.42087 0.51056 0.79811 0.0
O354 O 0.19897 0.34669 0.75474 0.0
O355 O 0.12531 0.37846 0.77451 0.0
O356 O 0.08944 0.46755 0.7944 0.0
O357 O 0.24951 0.55802 0.78326 0.0
C358 C 0.24731 0.24784 0.79476 0.0
C359 C 0.16605 0.55054 0.78776 0.0
Dy360 Dy 0.23658 0.43831 0.28199 0.0
C361 C 0.27405 0.13869 0.29751 0.0
C362 C 0.16426 0.56318 0.2843 0.0
Dy363 Dy 0.31516 0.3209 0.3018 0.0
O364 O 0.20541 0.54985 0.26911 0.0
O365 O 0.16675 0.51032 0.29821 0.0
O366 O 0.22488 0.34684 0.25476 0.0
O367 O 0.33026 0.37824 0.27458 0.0
C368 C 0.29262 0.32769 0.26009 0.0
C369 C 0.25751 0.37949 0.33002 0.0
O370 O 0.45493 0.46756 0.29451 0.0
O371 O 0.38525 0.55777 0.28327 0.0
O372 O 0.35526 0.20587 0.30528 0.0
O373 O 0.22187 0.17291 0.29084 0.0
O374 O 0.3107 0.33943 0.3328 0.0
O375 O 0.25141 0.40003 0.31237 0.0
O376 O 0.09235 0.3223 0.28495 0.0
O377 O 0.1479 0.23295 0.30119 0.0
C378 C 0.46127 0.55046 0.28782 0.0
C379 C 0.07728 0.24743 0.29477 0.0
Dy380 Dy 0.67814 0.83797 0.28198 0.0
C381 C 0.97773 0.17498 0.2975 0.0
C382 C 0.55314 0.6409 0.28428 0.0
Dy383 Dy 0.79551 0.0339 0.3018 0.0
O384 O 0.56644 0.69536 0.26909 0.0
O385 O 0.60622 0.69606 0.29818 0.0
O386 O 0.76961 0.91779 0.25475 0.0
O387 O 0.73819 0.99173 0.27457 0.0
C388 C 0.78874 1.00467 0.26009 0.0
C389 C 0.73692 0.91764 0.33002 0.0
O390 O 0.64886 0.02702 0.29452 0.0
O391 O 0.55866 0.86713 0.28328 0.0
O392 O 0.91057 0.18901 0.30529 0.0
O393 O 0.94349 0.08858 0.29083 0.0
O394 O 0.77696 1.0109 0.3328 0.0
O395 O 0.71638 0.891 0.31236 0.0
O396 O 0.79415 0.80975 0.28493 0.0
O397 O 0.88344 0.95458 0.3012 0.0
C398 C 0.56596 0.95044 0.28783 0.0
C399 C 0.86897 0.8695 0.29476 0.0
Dy400 Dy 0.27846 0.87979 0.282 0.0
C401 C 0.94141 0.84241 0.2975 0.0
C402 C 0.47552 0.95185 0.28429 0.0
Dy403 Dy 0.08247 0.80129 0.30181 0.0
O404 O 0.42104 0.91065 0.2691 0.0
O405 O 0.42038 0.94982 0.29819 0.0
O406 O 0.1987 0.89146 0.25476 0.0
O407 O 0.12469 0.78613 0.27458 0.0
C408 C 0.11179 0.82375 0.2601 0.0
C409 C 0.19877 0.85893 0.33002 0.0
O410 O 0.08926 0.66149 0.29452 0.0
O411 O 0.24921 0.73109 0.28332 0.0
O412 O 0.92737 0.76123 0.30529 0.0
O413 O 1.02782 0.89458 0.29083 0.0
O414 O 0.10551 0.80578 0.33281 0.0
O415 O 0.22538 0.86499 0.31237 0.0
O416 O 0.30672 1.02404 0.28496 0.0
O417 O 0.16182 0.96854 0.3012 0.0
C418 C 0.16583 0.6551 0.28785 0.0
C419 C 0.24694 0.03914 0.29478 0.0
Dy420 Dy 0.78421 0.89118 0.89357 0.0
C421 C 0.48459 0.92858 0.87809 0.0
C422 C 0.90908 0.81887 0.89126 0.0
Dy423 Dy 0.6668 0.96971 0.87379 0.0
O424 O 0.89576 0.86002 0.90645 0.0
O425 O 0.85622 0.82135 0.87735 0.0
O426 O 0.69264 0.87933 0.92079 0.0
O427 O 0.72428 0.985 0.90101 0.0
C428 C 0.67383 0.94736 0.9155 0.0
C429 C 0.72524 0.91196 0.84555 0.0
O430 O 0.8135 0.10948 0.88104 0.0
O431 O 0.9037 0.03981 0.89228 0.0
O432 O 0.55174 1.00976 0.8703 0.0
O433 O 0.51885 0.87645 0.88478 0.0
O434 O 0.68519 0.96517 0.84278 0.0
O435 O 0.74585 0.9059 0.8632 0.0
O436 O 0.66825 0.74694 0.89063 0.0
O437 O 0.57883 0.80245 0.87441 0.0
C438 C 0.89641 0.11582 0.88772 0.0
C439 C 0.59334 0.73185 0.88083 0.0
Dy440 Dy 0.22567 0.933 0.89356 0.0
C441 C 0.18829 0.59594 0.8781 0.0
C442 C 0.298 0.13018 0.89125 0.0
Dy443 Dy 0.14718 0.737 0.87379 0.0
O444 O 0.25685 0.07571 0.90644 0.0
O445 O 0.29549 0.07483 0.87734 0.0
O446 O 0.23749 0.85332 0.92079 0.0
O447 O 0.13189 0.77926 0.901 0.0
C448 C 0.16949 0.76646 0.9155 0.0
C449 C 0.20495 0.85321 0.84555 0.0
O450 O 1.00738 0.74385 0.88105 0.0
O451 O 0.07699 0.90379 0.89225 0.0
O452 O 0.10713 0.58191 0.8703 0.0
O453 O 0.2404 0.68231 0.88479 0.0
O454 O 0.15177 0.75995 0.84278 0.0
O455 O 0.21097 0.87986 0.8632 0.0
O456 O 0.36994 0.96131 0.89061 0.0
O457 O 0.31444 0.81629 0.87442 0.0
C458 C 1.001 0.82043 0.88771 0.0
C459 C 0.38504 0.90146 0.88082 0.0
Dy460 Dy 0.18391 0.33264 0.89356 0.0
C461 C 0.52092 0.63231 0.8781 0.0
C462 C 0.98685 0.20767 0.89126 0.0
Dy463 Dy 0.37987 0.45014 0.87379 0.0
O464 O 0.04131 0.22095 0.90645 0.0
O465 O 0.04201 0.26073 0.87736 0.0
O466 O 0.26358 0.42416 0.92079 0.0
O467 O 0.33765 0.39259 0.901 0.0
C468 C 0.35044 0.44301 0.9155 0.0
C469 C 0.26371 0.39167 0.84555 0.0
O470 O 0.37304 0.30351 0.88104 0.0
O471 O 0.21308 0.21316 0.89223 0.0
O472 O 0.53496 0.56519 0.8703 0.0
O473 O 0.43452 0.59804 0.88478 0.0
O474 O 0.35697 0.43176 0.84278 0.0
O475 O 0.23702 0.37104 0.86319 0.0
O476 O 0.15557 0.44857 0.89062 0.0
O477 O 0.30055 0.53807 0.87441 0.0
C478 C 0.29645 0.22053 0.8877 0.0
C479 C 0.2154 0.52351 0.88082 0.0
Dy480 Dy 0.81394 0.78344 0.70721 0.0
C481 C 0.96488 0.54107 0.72468 0.0
C482 C 0.85498 0.96562 0.71145 0.0
Dy483 Dy 0.89257 0.66589 0.72696 0.0
O484 O 0.77363 0.89831 0.70375 0.0
O485 O 0.90736 0.93155 0.71808 0.0
O486 O 0.81827 0.76486 0.67619 0.0
O487 O 0.87754 0.70419 0.6966 0.0
C488 C 0.87144 0.72476 0.67896 0.0
C489 C 0.83675 0.7768 0.74885 0.0
O490 O 1.0368 0.78169 0.7239 0.0
O491 O 0.98117 0.87145 0.70784 0.0
O492 O 0.92375 0.55443 0.73987 0.0
O493 O 0.96237 0.59385 0.71076 0.0
O494 O 0.90483 0.75805 0.75414 0.0
O495 O 0.79904 0.72595 0.73441 0.0
O496 O 0.67418 0.63687 0.71451 0.0
O497 O 0.74384 0.54653 0.72568 0.0
C498 C 0.05181 0.85678 0.71417 0.0
C499 C 0.66784 0.55393 0.72116 0.0
Dy500 Dy 0.33351 0.07039 0.70721 0.0
C501 C 0.57598 0.46354 0.7247 0.0
C502 C 0.15133 0.92927 0.71146 0.0
Dy503 Dy 0.45102 0.26652 0.72697 0.0
O504 O 0.21862 0.91523 0.70375 0.0
O505 O 0.18541 1.01573 0.71809 0.0
O506 O 0.35211 0.09329 0.6762 0.0
O507 O 0.41276 0.21325 0.6966 0.0
C508 C 0.39219 0.18656 0.67896 0.0
C509 C 0.34012 0.09978 0.74885 0.0
O510 O 0.33524 0.29497 0.72391 0.0
O511 O 0.24552 0.14963 0.70783 0.0
O512 O 0.56264 0.40905 0.73989 0.0
O513 O 0.52298 0.40843 0.71078 0.0
O514 O 0.35886 0.1866 0.75414 0.0
O515 O 0.39099 0.11294 0.73442 0.0
O516 O 0.48006 0.07719 0.7145 0.0
O517 O 0.57041 0.23721 0.72566 0.0
C518 C 0.26018 0.23492 0.71418 0.0
C519 C 0.56301 0.15381 0.72115 0.0
Dy520 Dy 0.04659 0.30298 0.70719 0.0
C521 C 0.6534 0.15236 0.72469 0.0
C522 C 0.1877 0.26195 0.71146 0.0
Dy523 Dy 0.85041 0.22443 0.72695 0.0
O524 O 0.20175 0.34326 0.70373 0.0
O525 O 0.10124 0.20957 0.71809 0.0
O526 O 1.02365 0.29862 0.67618 0.0
O527 O 0.90374 0.23942 0.6966 0.0
C528 C 0.93038 0.24549 0.67895 0.0
C529 C 1.01713 0.28024 0.74884 0.0
O530 O 0.82194 0.08017 0.72389 0.0
O531 O 0.96734 0.13576 0.70783 0.0
O532 O 0.7079 0.19354 0.73987 0.0
O533 O 0.7085 0.15445 0.71077 0.0
O534 O 0.93029 0.21219 0.75414 0.0
O535 O 1.00401 0.31793 0.7344 0.0
O536 O 0.03988 0.44277 0.7145 0.0
O537 O 0.87981 0.37317 0.72563 0.0
C538 C 0.88201 0.06514 0.71416 0.0
C539 C 0.96327 0.44915 0.72113 0.0
Dy540 Dy 0.46223 0.13469 0.13503 0.0
C541 C 0.21987 0.28562 0.11755 0.0
C542 C 0.64442 0.17576 0.13079 0.0
Dy543 Dy 0.3447 0.21331 0.11527 0.0
O544 O 0.57711 0.09441 0.13849 0.0
O545 O 0.61033 0.22813 0.12415 0.0
O546 O 0.44363 0.139 0.16604 0.0
O547 O 0.38297 0.19829 0.14564 0.0
C548 C 0.40354 0.19218 0.16328 0.0
C549 C 0.45561 0.15749 0.09339 0.0
O550 O 0.46049 0.35754 0.11833 0.0
O551 O 0.55022 0.30191 0.13441 0.0
O552 O 0.23321 0.24445 0.10236 0.0
O553 O 0.27268 0.28317 0.13147 0.0
O554 O 0.43686 0.22557 0.0881 0.0
O555 O 0.40474 0.11978 0.10782 0.0
O556 O 0.31566 0.99494 0.12774 0.0
O557 O 0.22532 0.06461 0.11657 0.0
C558 C 0.53556 0.37254 0.12807 0.0
C559 C 0.23271 0.98861 0.12108 0.0
Dy560 Dy 0.98179 0.36737 0.13504 0.0
C561 C 0.83088 0.97403 0.11756 0.0
C562 C 0.94074 0.50848 0.13079 0.0
Dy563 Dy 0.90321 0.17116 0.11528 0.0
O564 O 1.02207 0.52252 0.1385 0.0
O565 O 0.88839 0.42204 0.12415 0.0
O566 O 0.9774 0.3444 0.16605 0.0
O567 O 0.91822 0.22451 0.14564 0.0
C568 C 0.92427 0.25113 0.16328 0.0
C569 C 0.95904 0.33788 0.09339 0.0
O570 O 0.75897 0.14272 0.11835 0.0
O571 O 0.81456 0.28812 0.1344 0.0
O572 O 0.87206 0.02853 0.10238 0.0
O573 O 0.83336 0.02931 0.13148 0.0
O574 O 0.891 0.25104 0.0881 0.0
O575 O 0.99671 0.32475 0.10783 0.0
O576 O 0.12156 0.36062 0.12773 0.0
O577 O 0.05197 0.20057 0.11659 0.0
C578 C 0.74394 0.2028 0.12807 0.0
C579 C 0.12795 0.28402 0.12109 0.0
Dy580 Dy 0.74913 0.65421 0.13504 0.0
C581 C 0.14231 0.89676 0.11754 0.0
C582 C 0.60803 0.47205 0.13078 0.0
Dy583 Dy 0.9453 0.77183 0.11529 0.0
O584 O 0.59398 0.53931 0.13851 0.0
O585 O 0.69449 0.50615 0.12415 0.0
O586 O 0.77206 0.67279 0.16606 0.0
O587 O 0.89198 0.7335 0.14564 0.0
C588 C 0.86533 0.71291 0.16329 0.0
C589 C 0.77858 0.66093 0.0934 0.0
O590 O 0.97377 0.65605 0.11834 0.0
O591 O 0.82838 0.56625 0.13441 0.0
O592 O 0.08781 0.88345 0.10236 0.0
O593 O 0.08723 0.84375 0.13146 0.0
O594 O 0.86542 0.67973 0.0881 0.0
O595 O 0.79171 0.71175 0.10784 0.0
O596 O 0.75585 0.80071 0.12774 0.0
O597 O 0.91594 0.89119 0.11662 0.0
C598 C 0.9137 0.58096 0.12807 0.0
C599 C 0.83248 0.88371 0.12111 0.0
Dy600 Dy 0.9035 0.77185 0.61533 0.0
C601 C 0.94096 0.47226 0.63081 0.0
C602 C 0.83122 0.89674 0.61764 0.0
Dy603 Dy 0.98204 0.65445 0.63511 0.0
O604 O 0.87234 0.8834 0.60245 0.0
O605 O 0.83371 0.84389 0.63155 0.0
O606 O 0.89163 0.68027 0.58811 0.0
O607 O 0.99731 0.71193 0.60789 0.0
C608 C 0.95966 0.66146 0.5934 0.0
C609 C 0.92435 0.71294 0.66335 0.0
O610 O 0.12183 0.80113 0.62785 0.0
O611 O 0.05216 0.89134 0.61662 0.0
O612 O 1.02214 0.53943 0.6386 0.0
O613 O 0.88881 0.5065 0.62413 0.0
O614 O 0.97754 0.67286 0.66612 0.0
O615 O 0.91826 0.73353 0.6457 0.0
O616 O 0.75924 0.6559 0.61828 0.0
O617 O 0.81478 0.56646 0.63449 0.0
C618 C 0.12817 0.88404 0.62117 0.0
C619 C 0.74416 0.58097 0.62808 0.0
Dy620 Dy 0.34504 0.17153 0.61533 0.0
C621 C 0.64461 0.50852 0.63081 0.0
C622 C 0.22003 0.97448 0.61763 0.0
Dy623 Dy 0.46242 0.36743 0.63511 0.0
O624 O 0.23336 0.02893 0.60244 0.0
O625 O 0.27308 0.02964 0.63154 0.0
O626 O 0.43663 0.25126 0.58811 0.0
O627 O 0.40495 0.32527 0.60789 0.0
C628 C 0.45542 0.3381 0.5934 0.0
C629 C 0.40395 0.25126 0.66335 0.0
O630 O 0.31575 0.36055 0.62786 0.0
O631 O 0.22554 0.20065 0.61663 0.0
O632 O 0.57746 0.52254 0.6386 0.0
O633 O 0.61037 0.42213 0.62413 0.0
O634 O 0.444 0.34453 0.66612 0.0
O635 O 0.38335 0.22456 0.64571 0.0
O636 O 0.46099 0.14322 0.61827 0.0
O637 O 0.55039 0.28815 0.6345 0.0
C638 C 0.23283 0.28396 0.62118 0.0
C639 C 0.53589 0.20304 0.62808 0.0
Dy640 Dy 0.94536 0.21333 0.61533 0.0
C641 C 0.60833 0.17594 0.6308 0.0
C642 C 0.1424 0.28538 0.61764 0.0
Dy643 Dy 0.74941 0.13487 0.63512 0.0
O644 O 0.08796 0.24423 0.60244 0.0
O645 O 0.08724 0.28329 0.63154 0.0
O646 O 0.86565 0.22514 0.5881 0.0
O647 O 0.79161 0.11954 0.6079 0.0
C648 C 0.7788 0.15714 0.5934 0.0
C649 C 0.86563 0.19256 0.66335 0.0
O650 O 0.75621 0.99505 0.62786 0.0
O651 O 0.91615 0.06465 0.61665 0.0
O652 O 0.59431 0.0948 0.63861 0.0
O653 O 0.69472 0.22808 0.62412 0.0
O654 O 0.77236 0.1394 0.66612 0.0
O655 O 0.89228 0.19861 0.6457 0.0
O656 O 0.97368 0.3576 0.61828 0.0
O657 O 0.82872 0.30211 0.63449 0.0
C658 C 0.83279 0.98866 0.62119 0.0
C659 C 0.91386 0.37271 0.62808 0.0
Dy660 Dy 0.45064 0.22425 0.22691 0.0
C661 C 0.15105 0.26168 0.21142 0.0
C662 C 0.57552 0.15195 0.2246 0.0
Dy663 Dy 0.33325 0.30279 0.20712 0.0
O664 O 0.56219 0.19309 0.23979 0.0
O665 O 0.52267 0.15443 0.21069 0.0
O666 O 0.35904 0.21237 0.25413 0.0
O667 O 0.39071 0.31806 0.23435 0.0
C668 C 0.34023 0.2804 0.24884 0.0
C669 C 0.39175 0.2451 0.17889 0.0
O670 O 0.47994 0.44257 0.21439 0.0
O671 O 0.57014 0.37289 0.22562 0.0
O672 O 0.21822 0.34287 0.20363 0.0
O673 O 0.18529 0.20954 0.2181 0.0
O674 O 0.35169 0.29831 0.17612 0.0
O675 O 0.41233 0.23901 0.19653 0.0
O676 O 0.33469 0.08 0.22396 0.0
O677 O 0.24527 0.13554 0.20774 0.0
C678 C 0.56285 0.4489 0.22107 0.0
C679 C 0.25978 0.06493 0.21416 0.0
Dy680 Dy 0.89213 0.26611 0.2269 0.0
C681 C 0.85472 0.92905 0.21142 0.0
C682 C 0.96442 0.46328 0.2246 0.0
Dy683 Dy 0.81364 0.07013 0.20712 0.0
O684 O 0.92325 0.40879 0.23978 0.0
O685 O 0.96198 0.40796 0.21069 0.0
O686 O 0.904 0.18642 0.25412 0.0
O687 O 0.79837 0.11236 0.23434 0.0
C688 C 0.83601 0.09956 0.24883 0.0
C689 C 0.87134 0.18637 0.17888 0.0
O690 O 0.67383 0.07695 0.21438 0.0
O691 O 0.74344 0.23688 0.22559 0.0
O692 O 0.77356 0.91502 0.20363 0.0
O693 O 0.90686 1.01543 0.2181 0.0
O694 O 0.81818 0.0931 0.17611 0.0
O695 O 0.87738 0.213 0.19653 0.0
O696 O 1.0364 0.29443 0.22393 0.0
O697 O 0.98089 0.14942 0.20774 0.0
C698 C 0.66744 0.15352 0.22105 0.0
C699 C 0.05149 0.23458 0.21414 0.0
Dy700 Dy 0.85034 0.66575 0.22691 0.0
C701 C 0.18734 0.96539 0.21143 0.0
C702 C 0.65328 0.54076 0.22461 0.0
Dy703 Dy 0.04626 0.78321 0.20712 0.0
O704 O 0.70774 0.55405 0.2398 0.0
O705 O 0.70843 0.59383 0.21071 0.0
O706 O 0.93005 0.7573 0.25413 0.0
O707 O 1.00408 0.72571 0.23434 0.0
C708 C 1.0169 0.77615 0.24884 0.0
C709 C 0.93006 0.72468 0.17889 0.0
O710 O 0.03945 0.6366 0.21438 0.0
O711 O 0.87952 0.54627 0.22559 0.0
O712 O 0.20136 0.89826 0.20363 0.0
O713 O 0.10095 0.93113 0.21811 0.0
O714 O 1.02332 0.76477 0.17612 0.0
O715 O 0.90339 0.70409 0.19654 0.0
O716 O 0.82201 0.7817 0.22396 0.0
O717 O 0.96696 0.87114 0.20774 0.0
C718 C 0.96287 0.55363 0.22105 0.0
C719 C 0.88182 0.8566 0.21415 0.0
loop_
_geom_bond_atom_site_label_1
_geom_bond_atom_site_label_2
_geom_bond_distance
_geom_bond_site_symmetry_2
_ccdc_geom_bond_type
Dy0 O4 2.398 . S
Dy0 O5 2.491 . S
Dy0 O6 2.403 . S
Dy0 O7 2.664 . S
Dy0 O11 2.326 . S
Dy0 O15 2.310 . S
Dy0 O16 2.351 1_545 S
C1 O12 1.185 . S
C1 O13 1.355 . S
C2 O4 1.185 . S
C2 O5 1.355 . S
Dy3 O7 2.310 1_565 S
Dy3 O10 2.351 1_565 S
Dy3 O12 2.398 . S
Dy3 O13 2.491 . S
Dy3 O14 2.403 . S
Dy3 O15 2.664 1_565 S
Dy3 O17 2.326 . S
O4 Dy0 2.398 . S
O4 C2 1.185 . S
O5 Dy0 2.491 . S
O5 C2 1.355 . S
O6 Dy0 2.403 . S
O6 C8 1.254 . S
O7 Dy0 2.664 . S
O7 Dy3 2.310 1_545 S
O7 C8 1.268 . S
C8 O6 1.254 . S
C8 O7 1.268 . S
C9 O14 1.254 1_545 S
C9 O15 1.268 . S
O10 Dy3 2.351 1_545 S
O10 C18 1.249 . S
O11 Dy0 2.326 . S
O11 C18 1.267 . S
O12 C1 1.185 . S
O12 Dy3 2.398 . S
O13 C1 1.355 . S
O13 Dy3 2.491 . S
O14 Dy3 2.403 . S
O14 C9 1.254 1_565 S
O15 Dy0 2.310 . S
O15 Dy3 2.664 1_545 S
O15 C9 1.268 . S
O16 Dy0 2.351 1_565 S
O16 C19 1.249 . S
O17 Dy3 2.326 . S
O17 C19 1.267 . S
C18 O10 1.249 . S
C18 O11 1.267 . S
C19 O16 1.249 . S
C19 O17 1.267 . S
Dy20 O24 2.398 . S
Dy20 O25 2.491 . S
Dy20 O26 2.403 . S
Dy20 O27 2.664 1_655 S
Dy20 O31 2.326 . S
Dy20 O35 2.310 . S
Dy20 O36 2.351 1_655 S
C21 O32 1.185 . S
C21 O33 1.355 . S
C22 O24 1.185 . S
C22 O25 1.355 . S
Dy23 O27 2.310 . S
Dy23 O30 2.351 1_455 S
Dy23 O32 2.398 . S
Dy23 O33 2.491 . S
Dy23 O34 2.403 . S
Dy23 O35 2.664 1_455 S
Dy23 O37 2.326 . S
O24 Dy20 2.398 . S
O24 C22 1.185 . S
O25 Dy20 2.491 . S
O25 C22 1.355 . S
O26 Dy20 2.403 . S
O26 C28 1.254 1_655 S
O27 Dy20 2.664 1_455 S
O27 Dy23 2.310 . S
O27 C28 1.268 . S
C28 O26 1.254 1_455 S
C28 O27 1.268 . S
C29 O34 1.254 . S
C29 O35 1.268 1_455 S
O30 Dy23 2.351 1_655 S
O30 C38 1.249 . S
O31 Dy20 2.326 . S
O31 C38 1.267 . S
O32 C21 1.185 . S
O32 Dy23 2.398 . S
O33 C21 1.355 . S
O33 Dy23 2.491 . S
O34 Dy23 2.403 . S
O34 C29 1.254 . S
O35 Dy20 2.310 . S
O35 Dy23 2.664 1_655 S
O35 C29 1.268 1_655 S
O36 Dy20 2.351 1_455 S
O36 C39 1.249 . S
O37 Dy23 2.326 . S
O37 C39 1.267 . S
C38 O30 1.249 . S
C38 O31 1.267 . S
C39 O36 1.249 . S
C39 O37 1.267 . S
Dy40 O44 2.398 . S
Dy40 O45 2.491 . S
Dy40 O46 2.403 . S
Dy40 O47 2.664 . S
Dy40 O51 2.326 . S
Dy40 O55 2.310 . S
Dy40 O56 2.351 . S
C41 O52 1.185 . S
C41 O53 1.355 . S
C42 O44 1.185 . S
C42 O45 1.355 . S
Dy43 O47 2.310 . S
Dy43 O50 2.351 . S
Dy43 O52 2.398 . S
Dy43 O53 2.491 . S
Dy43 O54 2.403 . S
Dy43 O55 2.664 . S
Dy43 O57 2.326 . S
O44 Dy40 2.398 . S
O44 C42 1.185 . S
O45 Dy40 2.491 . S
O45 C42 1.355 . S
O46 Dy40 2.403 . S
O46 C48 1.254 . S
O47 Dy40 2.664 . S
O47 Dy43 2.310 . S
O47 C48 1.268 . S
C48 O46 1.254 . S
C48 O47 1.268 . S
C49 O54 1.254 . S
C49 O55 1.268 . S
O50 Dy43 2.351 . S
O50 C58 1.249 . S
O51 Dy40 2.326 . S
O51 C58 1.267 . S
O52 C41 1.185 . S
O52 Dy43 2.398 . S
O53 C41 1.355 . S
O53 Dy43 2.491 . S
O54 Dy43 2.403 . S
O54 C49 1.254 . S
O55 Dy40 2.310 . S
O55 Dy43 2.664 . S
O55 C49 1.268 . S
O56 Dy40 2.351 . S
O56 C59 1.249 . S
O57 Dy43 2.326 . S
O57 C59 1.267 . S
C58 O50 1.249 . S
C58 O51 1.267 . S
C59 O56 1.249 . S
C59 O57 1.267 . S
Dy60 O64 2.398 . S
Dy60 O65 2.491 . S
Dy60 O66 2.403 . S
Dy60 O67 2.664 . S
Dy60 O71 2.326 . S
Dy60 O75 2.310 . S
Dy60 O76 2.351 1_455 S
C61 O72 1.185 . S
C61 O73 1.355 . S
C62 O64 1.185 . S
C62 O65 1.355 . S
Dy63 O67 2.310 1_655 S
Dy63 O70 2.351 1_655 S
Dy63 O72 2.398 . S
Dy63 O73 2.491 . S
Dy63 O74 2.403 . S
Dy63 O75 2.664 1_655 S
Dy63 O77 2.326 . S
O64 Dy60 2.398 . S
O64 C62 1.185 . S
O65 Dy60 2.491 . S
O65 C62 1.355 . S
O66 Dy60 2.403 . S
O66 C68 1.254 . S
O67 Dy60 2.664 . S
O67 Dy63 2.310 1_455 S
O67 C68 1.268 . S
C68 O66 1.254 . S
C68 O67 1.268 . S
C69 O74 1.254 1_455 S
C69 O75 1.268 . S
O70 Dy63 2.351 1_455 S
O70 C78 1.249 . S
O71 Dy60 2.326 . S
O71 C78 1.267 . S
O72 C61 1.185 . S
O72 Dy63 2.398 . S
O73 C61 1.355 . S
O73 Dy63 2.491 . S
O74 Dy63 2.403 . S
O74 C69 1.254 1_655 S
O75 Dy60 2.310 . S
O75 Dy63 2.664 1_455 S
O75 C69 1.268 . S
O76 Dy60 2.351 1_655 S
O76 C79 1.249 . S
O77 Dy63 2.326 . S
O77 C79 1.267 . S
C78 O70 1.249 . S
C78 O71 1.267 . S
C79 O76 1.249 . S
C79 O77 1.267 . S
Dy80 O84 2.398 . S
Dy80 O85 2.491 . S
Dy80 O86 2.403 . S
Dy80 O87 2.664 . S
Dy80 O91 2.326 . S
Dy80 O95 2.310 . S
Dy80 O96 2.351 . S
C81 O92 1.185 . S
C81 O93 1.355 . S
C82 O84 1.185 . S
C82 O85 1.355 . S
Dy83 O87 2.310 . S
Dy83 O90 2.351 . S
Dy83 O92 2.398 . S
Dy83 O93 2.491 . S
Dy83 O94 2.403 . S
Dy83 O95 2.664 . S
Dy83 O97 2.326 . S
O84 Dy80 2.398 . S
O84 C82 1.185 . S
O85 Dy80 2.491 . S
O85 C82 1.355 . S
O86 Dy80 2.403 . S
O86 C88 1.254 . S
O87 Dy80 2.664 . S
O87 Dy83 2.310 . S
O87 C88 1.268 . S
C88 O86 1.254 . S
C88 O87 1.268 . S
C89 O94 1.254 . S
C89 O95 1.268 . S
O90 Dy83 2.351 . S
O90 C98 1.249 . S
O91 Dy80 2.326 . S
O91 C98 1.267 . S
O92 C81 1.185 . S
O92 Dy83 2.398 . S
O93 C81 1.355 . S
O93 Dy83 2.491 . S
O94 Dy83 2.403 . S
O94 C89 1.254 . S
O95 Dy80 2.310 . S
O95 Dy83 2.664 . S
O95 C89 1.268 . S
O96 Dy80 2.351 . S
O96 C99 1.249 . S
O97 Dy83 2.326 . S
O97 C99 1.267 . S
C98 O90 1.249 . S
C98 O91 1.267 . S
C99 O96 1.249 . S
C99 O97 1.267 . S
Dy100 O104 2.398 . S
Dy100 O105 2.491 . S
Dy100 O106 2.403 . S
Dy100 O107 2.664 1_565 S
Dy100 O111 2.326 . S
Dy100 O115 2.310 . S
Dy100 O116 2.351 1_565 S
C101 O112 1.185 . S
C101 O113 1.355 . S
C102 O104 1.185 . S
C102 O105 1.355 . S
Dy103 O107 2.310 . S
Dy103 O110 2.351 1_545 S
Dy103 O112 2.398 . S
Dy103 O113 2.491 . S
Dy103 O114 2.403 . S
Dy103 O115 2.664 1_545 S
Dy103 O117 2.326 . S
O104 Dy100 2.398 . S
O104 C102 1.185 . S
O105 Dy100 2.491 . S
O105 C102 1.355 . S
O106 Dy100 2.403 . S
O106 C108 1.254 1_565 S
O107 Dy100 2.664 1_545 S
O107 Dy103 2.310 . S
O107 C108 1.268 . S
C108 O106 1.254 1_545 S
C108 O107 1.268 . S
C109 O114 1.254 . S
C109 O115 1.268 1_545 S
O110 Dy103 2.351 1_565 S
O110 C118 1.249 . S
O111 Dy100 2.326 . S
O111 C118 1.267 . S
O112 C101 1.185 . S
O112 Dy103 2.398 . S
O113 C101 1.355 . S
O113 Dy103 2.491 . S
O114 Dy103 2.403 . S
O114 C109 1.254 . S
O115 Dy100 2.310 . S
O115 Dy103 2.664 1_565 S
O115 C109 1.268 1_565 S
O116 Dy100 2.351 1_545 S
O116 C119 1.249 . S
O117 Dy103 2.326 . S
O117 C119 1.267 . S
C118 O110 1.249 . S
C118 O111 1.267 . S
C119 O116 1.249 . S
C119 O117 1.267 . S
Dy120 O124 2.398 . S
Dy120 O125 2.491 . S
Dy120 O126 2.403 . S
Dy120 O127 2.664 1_545 S
Dy120 O131 2.326 . S
Dy120 O135 2.310 . S
Dy120 O136 2.351 1_545 S
C121 O132 1.185 . S
C121 O133 1.355 . S
C122 O124 1.185 . S
C122 O125 1.355 . S
Dy123 O127 2.310 . S
Dy123 O130 2.351 1_565 S
Dy123 O132 2.398 . S
Dy123 O133 2.491 . S
Dy123 O134 2.403 . S
Dy123 O135 2.664 1_565 S
Dy123 O137 2.326 . S
O124 Dy120 2.398 . S
O124 C122 1.185 . S
O125 Dy120 2.491 . S
O125 C122 1.355 . S
O126 Dy120 2.403 . S
O126 C128 1.254 . S
O127 Dy120 2.664 1_565 S
O127 Dy123 2.310 . S
O127 C128 1.268 1_565 S
C128 O126 1.254 . S
C128 O127 1.268 1_545 S
C129 O134 1.254 1_545 S
C129 O135 1.268 . S
O130 Dy123 2.351 1_545 S
O130 C138 1.249 . S
O131 Dy120 2.326 . S
O131 C138 1.267 . S
O132 C121 1.185 . S
O132 Dy123 2.398 . S
O133 C121 1.355 . S
O133 Dy123 2.491 . S
O134 Dy123 2.403 . S
O134 C129 1.254 1_565 S
O135 Dy120 2.310 . S
O135 Dy123 2.664 1_545 S
O135 C129 1.268 . S
O136 Dy120 2.351 1_565 S
O136 C139 1.249 . S
O137 Dy123 2.326 . S
O137 C139 1.267 . S
C138 O130 1.249 . S
C138 O131 1.267 . S
C139 O136 1.249 . S
C139 O137 1.267 . S
Dy140 O144 2.398 . S
Dy140 O145 2.491 . S
Dy140 O146 2.403 . S
Dy140 O147 2.664 1_655 S
Dy140 O151 2.326 . S
Dy140 O155 2.310 1_655 S
Dy140 O156 2.351 1_655 S
C141 O152 1.185 . S
C141 O153 1.355 . S
C142 O144 1.185 . S
C142 O145 1.355 . S
Dy143 O147 2.310 . S
Dy143 O150 2.351 1_455 S
Dy143 O152 2.398 . S
Dy143 O153 2.491 . S
Dy143 O154 2.403 . S
Dy143 O155 2.664 . S
Dy143 O157 2.326 . S
O144 Dy140 2.398 . S
O144 C142 1.185 . S
O145 Dy140 2.491 . S
O145 C142 1.355 . S
O146 Dy140 2.403 . S
O146 C148 1.254 1_655 S
O147 Dy140 2.664 1_455 S
O147 Dy143 2.310 . S
O147 C148 1.268 . S
C148 O146 1.254 1_455 S
C148 O147 1.268 . S
C149 O154 1.254 . S
C149 O155 1.268 . S
O150 Dy143 2.351 1_655 S
O150 C158 1.249 . S
O151 Dy140 2.326 . S
O151 C158 1.267 . S
O152 C141 1.185 . S
O152 Dy143 2.398 . S
O153 C141 1.355 . S
O153 Dy143 2.491 . S
O154 Dy143 2.403 . S
O154 C149 1.254 . S
O155 Dy140 2.310 1_455 S
O155 Dy143 2.664 . S
O155 C149 1.268 . S
O156 Dy140 2.351 1_455 S
O156 C159 1.249 . S
O157 Dy143 2.326 . S
O157 C159 1.267 . S
C158 O150 1.249 . S
C158 O151 1.267 . S
C159 O156 1.249 . S
C159 O157 1.267 . S
Dy160 O164 2.398 . S
Dy160 O165 2.491 . S
Dy160 O166 2.403 . S
Dy160 O167 2.664 . S
Dy160 O171 2.326 . S
Dy160 O175 2.310 . S
Dy160 O176 2.351 . S
C161 O172 1.185 . S
C161 O173 1.355 . S
C162 O164 1.185 . S
C162 O165 1.355 . S
Dy163 O167 2.310 . S
Dy163 O170 2.351 . S
Dy163 O172 2.398 . S
Dy163 O173 2.491 . S
Dy163 O174 2.403 . S
Dy163 O175 2.664 . S
Dy163 O177 2.326 . S
O164 Dy160 2.398 . S
O164 C162 1.185 . S
O165 Dy160 2.491 . S
O165 C162 1.355 . S
O166 Dy160 2.403 . S
O166 C168 1.254 . S
O167 Dy160 2.664 . S
O167 Dy163 2.310 . S
O167 C168 1.268 . S
C168 O166 1.254 . S
C168 O167 1.268 . S
C169 O174 1.254 . S
C169 O175 1.268 . S
O170 Dy163 2.351 . S
O170 C178 1.249 . S
O171 Dy160 2.326 . S
O171 C178 1.267 . S
O172 C161 1.185 . S
O172 Dy163 2.398 . S
O173 C161 1.355 . S
O173 Dy163 2.491 . S
O174 Dy163 2.403 . S
O174 C169 1.254 . S
O175 Dy160 2.310 . S
O175 Dy163 2.664 . S
O175 C169 1.268 . S
O176 Dy160 2.351 . S
O176 C179 1.249 . S
O177 Dy163 2.326 . S
O177 C179 1.267 . S
C178 O170 1.249 . S
C178 O171 1.267 . S
C179 O176 1.249 . S
C179 O177 1.267 . S
Dy180 O184 2.398 . S
Dy180 O185 2.491 . S
Dy180 O186 2.403 . S
Dy180 O187 2.664 1_455 S
Dy180 O191 2.326 . S
Dy180 O195 2.310 . S
Dy180 O196 2.351 1_455 S
C181 O192 1.185 . S
C181 O193 1.355 . S
C182 O184 1.185 . S
C182 O185 1.355 . S
Dy183 O187 2.310 . S
Dy183 O190 2.351 1_655 S
Dy183 O192 2.398 . S
Dy183 O193 2.491 . S
Dy183 O194 2.403 . S
Dy183 O195 2.664 1_655 S
Dy183 O197 2.326 . S
O184 Dy180 2.398 . S
O184 C182 1.185 . S
O185 Dy180 2.491 . S
O185 C182 1.355 . S
O186 Dy180 2.403 . S
O186 C188 1.254 . S
O187 Dy180 2.664 1_655 S
O187 Dy183 2.310 . S
O187 C188 1.268 1_655 S
C188 O186 1.254 . S
C188 O187 1.268 1_455 S
C189 O194 1.254 1_455 S
C189 O195 1.268 . S
O190 Dy183 2.351 1_455 S
O190 C198 1.249 . S
O191 Dy180 2.326 . S
O191 C198 1.267 . S
O192 C181 1.185 . S
O192 Dy183 2.398 . S
O193 C181 1.355 . S
O193 Dy183 2.491 . S
O194 Dy183 2.403 . S
O194 C189 1.254 1_655 S
O195 Dy180 2.310 . S
O195 Dy183 2.664 1_455 S
O195 C189 1.268 . S
O196 Dy180 2.351 1_655 S
O196 C199 1.249 . S
O197 Dy183 2.326 . S
O197 C199 1.267 . S
C198 O190 1.249 . S
C198 O191 1.267 . S
C199 O196 1.249 . S
C199 O197 1.267 . S
Dy200 O204 2.398 . S
Dy200 O205 2.491 . S
Dy200 O206 2.403 . S
Dy200 O207 2.664 . S
Dy200 O211 2.326 . S
Dy200 O215 2.310 . S
Dy200 O216 2.351 . S
C201 O212 1.185 . S
C201 O213 1.355 . S
C202 O204 1.185 . S
C202 O205 1.355 . S
Dy203 O207 2.310 . S
Dy203 O210 2.351 . S
Dy203 O212 2.398 . S
Dy203 O213 2.491 . S
Dy203 O214 2.403 . S
Dy203 O215 2.664 . S
Dy203 O217 2.326 . S
O204 Dy200 2.398 . S
O204 C202 1.185 . S
O205 Dy200 2.491 . S
O205 C202 1.355 . S
O206 Dy200 2.403 . S
O206 C208 1.254 . S
O207 Dy200 2.664 . S
O207 Dy203 2.310 . S
O207 C208 1.268 . S
C208 O206 1.254 . S
C208 O207 1.268 . S
C209 O214 1.254 . S
C209 O215 1.268 . S
O210 Dy203 2.351 . S
O210 C218 1.249 . S
O211 Dy200 2.326 . S
O211 C218 1.267 . S
O212 C201 1.185 . S
O212 Dy203 2.398 . S
O213 C201 1.355 . S
O213 Dy203 2.491 . S
O214 Dy203 2.403 . S
O214 C209 1.254 . S
O215 Dy200 2.310 . S
O215 Dy203 2.664 . S
O215 C209 1.268 . S
O216 Dy200 2.351 . S
O216 C219 1.249 . S
O217 Dy203 2.326 . S
O217 C219 1.267 . S
C218 O210 1.249 . S
C218 O211 1.267 . S
C219 O216 1.249 . S
C219 O217 1.267 . S
Dy220 O224 2.398 . S
Dy220 O225 2.491 . S
Dy220 O226 2.403 . S
Dy220 O227 2.664 1_565 S
Dy220 O231 2.326 . S
Dy220 O235 2.310 1_565 S
Dy220 O236 2.351 1_565 S
C221 O232 1.185 . S
C221 O233 1.355 . S
C222 O224 1.185 . S
C222 O225 1.355 . S
Dy223 O227 2.310 . S
Dy223 O230 2.351 1_545 S
Dy223 O232 2.398 . S
Dy223 O233 2.491 . S
Dy223 O234 2.403 . S
Dy223 O235 2.664 . S
Dy223 O237 2.326 . S
O224 Dy220 2.398 . S
O224 C222 1.185 . S
O225 Dy220 2.491 . S
O225 C222 1.355 . S
O226 Dy220 2.403 . S
O226 C228 1.254 1_565 S
O227 Dy220 2.664 1_545 S
O227 Dy223 2.310 . S
O227 C228 1.268 . S
C228 O226 1.254 1_545 S
C228 O227 1.268 . S
C229 O234 1.254 . S
C229 O235 1.268 . S
O230 Dy223 2.351 1_565 S
O230 C238 1.249 . S
O231 Dy220 2.326 . S
O231 C238 1.267 . S
O232 C221 1.185 . S
O232 Dy223 2.398 . S
O233 C221 1.355 . S
O233 Dy223 2.491 . S
O234 Dy223 2.403 . S
O234 C229 1.254 . S
O235 Dy220 2.310 1_545 S
O235 Dy223 2.664 . S
O235 C229 1.268 . S
O236 Dy220 2.351 1_545 S
O236 C239 1.249 . S
O237 Dy223 2.326 . S
O237 C239 1.267 . S
C238 O230 1.249 . S
C238 O231 1.267 . S
C239 O236 1.249 . S
C239 O237 1.267 . S
Dy240 O244 2.398 . S
Dy240 O245 2.491 . S
Dy240 O246 2.403 . S
Dy240 O247 2.664 . S
Dy240 O251 2.326 . S
Dy240 O255 2.310 . S
Dy240 O256 2.351 . S
C241 O252 1.185 . S
C241 O253 1.355 . S
C242 O244 1.185 . S
C242 O245 1.355 . S
Dy243 O247 2.310 . S
Dy243 O250 2.351 . S
Dy243 O252 2.398 . S
Dy243 O253 2.491 . S
Dy243 O254 2.403 . S
Dy243 O255 2.664 . S
Dy243 O257 2.326 . S
O244 Dy240 2.398 . S
O244 C242 1.185 . S
O245 Dy240 2.491 . S
O245 C242 1.355 . S
O246 Dy240 2.403 . S
O246 C248 1.254 . S
O247 Dy240 2.664 . S
O247 Dy243 2.310 . S
O247 C248 1.268 . S
C248 O246 1.254 . S
C248 O247 1.268 . S
C249 O254 1.254 . S
C249 O255 1.268 . S
O250 Dy243 2.351 . S
O250 C258 1.249 . S
O251 Dy240 2.326 . S
O251 C258 1.267 . S
O252 C241 1.185 . S
O252 Dy243 2.398 . S
O253 C241 1.355 . S
O253 Dy243 2.491 . S
O254 Dy243 2.403 . S
O254 C249 1.254 . S
O255 Dy240 2.310 . S
O255 Dy243 2.664 . S
O255 C249 1.268 . S
O256 Dy240 2.351 . S
O256 C259 1.249 . S
O257 Dy243 2.326 . S
O257 C259 1.267 . S
C258 O250 1.249 . S
C258 O251 1.267 . S
C259 O256 1.249 . S
C259 O257 1.267 . S
Dy260 O264 2.398 . S
Dy260 O265 2.491 . S
Dy260 O266 2.403 . S
Dy260 O267 2.664 . S
Dy260 O271 2.326 . S
Dy260 O275 2.310 . S
Dy260 O276 2.351 . S
C261 O272 1.185 . S
C261 O273 1.355 . S
C262 O264 1.185 . S
C262 O265 1.355 . S
Dy263 O267 2.310 . S
Dy263 O270 2.351 . S
Dy263 O272 2.398 1_565 S
Dy263 O273 2.491 1_565 S
Dy263 O274 2.403 . S
Dy263 O275 2.664 . S
Dy263 O277 2.326 . S
O264 Dy260 2.398 . S
O264 C262 1.185 . S
O265 Dy260 2.491 . S
O265 C262 1.355 . S
O266 Dy260 2.403 . S
O266 C268 1.254 . S
O267 Dy260 2.664 . S
O267 Dy263 2.310 . S
O267 C268 1.268 . S
C268 O266 1.254 . S
C268 O267 1.268 . S
C269 O274 1.254 . S
C269 O275 1.268 . S
O270 Dy263 2.351 . S
O270 C278 1.249 . S
O271 Dy260 2.326 . S
O271 C278 1.267 . S
O272 C261 1.185 . S
O272 Dy263 2.398 1_545 S
O273 C261 1.355 . S
O273 Dy263 2.491 1_545 S
O274 Dy263 2.403 . S
O274 C269 1.254 . S
O275 Dy260 2.310 . S
O275 Dy263 2.664 . S
O275 C269 1.268 . S
O276 Dy260 2.351 . S
O276 C279 1.249 . S
O277 Dy263 2.326 . S
O277 C279 1.267 . S
C278 O270 1.249 . S
C278 O271 1.267 . S
C279 O276 1.249 . S
C279 O277 1.267 . S
Dy280 O284 2.398 . S
Dy280 O285 2.491 . S
Dy280 O286 2.403 . S
Dy280 O287 2.664 . S
Dy280 O291 2.326 . S
Dy280 O295 2.310 . S
Dy280 O296 2.351 1_565 S
C281 O292 1.185 . S
C281 O293 1.355 . S
C282 O284 1.185 . S
C282 O285 1.355 . S
Dy283 O287 2.310 . S
Dy283 O290 2.351 . S
Dy283 O292 2.398 1_455 S
Dy283 O293 2.491 1_455 S
Dy283 O294 2.403 . S
Dy283 O295 2.664 . S
Dy283 O297 2.326 . S
O284 Dy280 2.398 . S
O284 C282 1.185 . S
O285 Dy280 2.491 . S
O285 C282 1.355 . S
O286 Dy280 2.403 . S
O286 C288 1.254 . S
O287 Dy280 2.664 . S
O287 Dy283 2.310 . S
O287 C288 1.268 . S
C288 O286 1.254 . S
C288 O287 1.268 . S
C289 O294 1.254 . S
C289 O295 1.268 . S
O290 Dy283 2.351 . S
O290 C298 1.249 . S
O291 Dy280 2.326 . S
O291 C298 1.267 . S
O292 C281 1.185 . S
O292 Dy283 2.398 1_655 S
O293 C281 1.355 . S
O293 Dy283 2.491 1_655 S
O294 Dy283 2.403 . S
O294 C289 1.254 . S
O295 Dy280 2.310 . S
O295 Dy283 2.664 . S
O295 C289 1.268 . S
O296 Dy280 2.351 1_545 S
O296 C299 1.249 . S
O297 Dy283 2.326 . S
O297 C299 1.267 1_565 S
C298 O290 1.249 . S
C298 O291 1.267 . S
C299 O296 1.249 . S
C299 O297 1.267 1_545 S
Dy300 O304 2.398 . S
Dy300 O305 2.491 . S
Dy300 O306 2.403 . S
Dy300 O307 2.664 . S
Dy300 O311 2.326 . S
Dy300 O315 2.310 . S
Dy300 O316 2.351 . S
C301 O312 1.185 . S
C301 O313 1.355 . S
C302 O304 1.185 . S
C302 O305 1.355 . S
Dy303 O307 2.310 . S
Dy303 O310 2.351 1_565 S
Dy303 O312 2.398 . S
Dy303 O313 2.491 . S
Dy303 O314 2.403 . S
Dy303 O315 2.664 . S
Dy303 O317 2.326 . S
O304 Dy300 2.398 . S
O304 C302 1.185 . S
O305 Dy300 2.491 . S
O305 C302 1.355 . S
O306 Dy300 2.403 . S
O306 C308 1.254 . S
O307 Dy300 2.664 . S
O307 Dy303 2.310 . S
O307 C308 1.268 . S
C308 O306 1.254 . S
C308 O307 1.268 . S
C309 O314 1.254 . S
C309 O315 1.268 . S
O310 Dy303 2.351 1_545 S
O310 C318 1.249 . S
O311 Dy300 2.326 . S
O311 C318 1.267 1_565 S
O312 C301 1.185 . S
O312 Dy303 2.398 . S
O313 C301 1.355 . S
O313 Dy303 2.491 . S
O314 Dy303 2.403 . S
O314 C309 1.254 . S
O315 Dy300 2.310 . S
O315 Dy303 2.664 . S
O315 C309 1.268 . S
O316 Dy300 2.351 . S
O316 C319 1.249 . S
O317 Dy303 2.326 . S
O317 C319 1.267 . S
C318 O310 1.249 . S
C318 O311 1.267 1_545 S
C319 O316 1.249 . S
C319 O317 1.267 . S
Dy320 O324 2.398 . S
Dy320 O325 2.491 . S
Dy320 O326 2.403 1_545 S
Dy320 O327 2.664 1_545 S
Dy320 O331 2.326 1_545 S
Dy320 O335 2.310 1_545 S
Dy320 O336 2.351 1_545 S
C321 O332 1.185 . S
C321 O333 1.355 . S
C322 O324 1.185 . S
C322 O325 1.355 . S
Dy323 O327 2.310 . S
Dy323 O330 2.351 . S
Dy323 O332 2.398 . S
Dy323 O333 2.491 . S
Dy323 O334 2.403 . S
Dy323 O335 2.664 . S
Dy323 O337 2.326 . S
O324 Dy320 2.398 . S
O324 C322 1.185 . S
O325 Dy320 2.491 . S
O325 C322 1.355 . S
O326 Dy320 2.403 1_565 S
O326 C328 1.254 . S
O327 Dy320 2.664 1_565 S
O327 Dy323 2.310 . S
O327 C328 1.268 . S
C328 O326 1.254 . S
C328 O327 1.268 . S
C329 O334 1.254 . S
C329 O335 1.268 . S
O330 Dy323 2.351 . S
O330 C338 1.249 . S
O331 Dy320 2.326 1_565 S
O331 C338 1.267 . S
O332 C321 1.185 . S
O332 Dy323 2.398 . S
O333 C321 1.355 . S
O333 Dy323 2.491 . S
O334 Dy323 2.403 . S
O334 C329 1.254 . S
O335 Dy320 2.310 1_565 S
O335 Dy323 2.664 . S
O335 C329 1.268 . S
O336 Dy320 2.351 1_565 S
O336 C339 1.249 . S
O337 Dy323 2.326 . S
O337 C339 1.267 . S
C338 O330 1.249 . S
C338 O331 1.267 . S
C339 O336 1.249 . S
C339 O337 1.267 . S
Dy340 O344 2.398 1_455 S
Dy340 O345 2.491 1_455 S
Dy340 O346 2.403 . S
Dy340 O347 2.664 . S
Dy340 O351 2.326 . S
Dy340 O355 2.310 . S
Dy340 O356 2.351 . S
C341 O352 1.185 . S
C341 O353 1.355 . S
C342 O344 1.185 . S
C342 O345 1.355 . S
Dy343 O347 2.310 . S
Dy343 O350 2.351 . S
Dy343 O352 2.398 . S
Dy343 O353 2.491 . S
Dy343 O354 2.403 . S
Dy343 O355 2.664 . S
Dy343 O357 2.326 . S
O344 Dy340 2.398 1_655 S
O344 C342 1.185 . S
O345 Dy340 2.491 1_655 S
O345 C342 1.355 . S
O346 Dy340 2.403 . S
O346 C348 1.254 . S
O347 Dy340 2.664 . S
O347 Dy343 2.310 . S
O347 C348 1.268 . S
C348 O346 1.254 . S
C348 O347 1.268 . S
C349 O354 1.254 . S
C349 O355 1.268 . S
O350 Dy343 2.351 . S
O350 C358 1.249 . S
O351 Dy340 2.326 . S
O351 C358 1.267 . S
O352 C341 1.185 . S
O352 Dy343 2.398 . S
O353 C341 1.355 . S
O353 Dy343 2.491 . S
O354 Dy343 2.403 . S
O354 C349 1.254 . S
O355 Dy340 2.310 . S
O355 Dy343 2.664 . S
O355 C349 1.268 . S
O356 Dy340 2.351 . S
O356 C359 1.249 . S
O357 Dy343 2.326 . S
O357 C359 1.267 . S
C358 O350 1.249 . S
C358 O351 1.267 . S
C359 O356 1.249 . S
C359 O357 1.267 . S
Dy360 O364 2.398 . S
Dy360 O365 2.491 . S
Dy360 O366 2.403 . S
Dy360 O367 2.664 . S
Dy360 O371 2.326 . S
Dy360 O375 2.310 . S
Dy360 O376 2.351 . S
C361 O372 1.185 . S
C361 O373 1.355 . S
C362 O364 1.185 . S
C362 O365 1.355 . S
Dy363 O367 2.310 . S
Dy363 O370 2.351 . S
Dy363 O372 2.398 . S
Dy363 O373 2.491 . S
Dy363 O374 2.403 . S
Dy363 O375 2.664 . S
Dy363 O377 2.326 . S
O364 Dy360 2.398 . S
O364 C362 1.185 . S
O365 Dy360 2.491 . S
O365 C362 1.355 . S
O366 Dy360 2.403 . S
O366 C368 1.254 . S
O367 Dy360 2.664 . S
O367 Dy363 2.310 . S
O367 C368 1.268 . S
C368 O366 1.254 . S
C368 O367 1.268 . S
C369 O374 1.254 . S
C369 O375 1.268 . S
O370 Dy363 2.351 . S
O370 C378 1.249 . S
O371 Dy360 2.326 . S
O371 C378 1.267 . S
O372 C361 1.185 . S
O372 Dy363 2.398 . S
O373 C361 1.355 . S
O373 Dy363 2.491 . S
O374 Dy363 2.403 . S
O374 C369 1.254 . S
O375 Dy360 2.310 . S
O375 Dy363 2.664 . S
O375 C369 1.268 . S
O376 Dy360 2.351 . S
O376 C379 1.249 . S
O377 Dy363 2.326 . S
O377 C379 1.267 . S
C378 O370 1.249 . S
C378 O371 1.267 . S
C379 O376 1.249 . S
C379 O377 1.267 . S
Dy380 O384 2.398 . S
Dy380 O385 2.491 . S
Dy380 O386 2.403 . S
Dy380 O387 2.664 . S
Dy380 O391 2.326 . S
Dy380 O395 2.310 . S
Dy380 O396 2.351 . S
C381 O392 1.185 . S
C381 O393 1.355 . S
C382 O384 1.185 . S
C382 O385 1.355 . S
Dy383 O387 2.310 1_545 S
Dy383 O390 2.351 1_545 S
Dy383 O392 2.398 . S
Dy383 O393 2.491 . S
Dy383 O394 2.403 1_545 S
Dy383 O395 2.664 1_545 S
Dy383 O397 2.326 1_545 S
O384 Dy380 2.398 . S
O384 C382 1.185 . S
O385 Dy380 2.491 . S
O385 C382 1.355 . S
O386 Dy380 2.403 . S
O386 C388 1.254 . S
O387 Dy380 2.664 . S
O387 Dy383 2.310 1_565 S
O387 C388 1.268 . S
C388 O386 1.254 . S
C388 O387 1.268 . S
C389 O394 1.254 . S
C389 O395 1.268 . S
O390 Dy383 2.351 1_565 S
O390 C398 1.249 . S
O391 Dy380 2.326 . S
O391 C398 1.267 . S
O392 C381 1.185 . S
O392 Dy383 2.398 . S
O393 C381 1.355 . S
O393 Dy383 2.491 . S
O394 Dy383 2.403 1_565 S
O394 C389 1.254 . S
O395 Dy380 2.310 . S
O395 Dy383 2.664 1_565 S
O395 C389 1.268 . S
O396 Dy380 2.351 . S
O396 C399 1.249 . S
O397 Dy383 2.326 1_565 S
O397 C399 1.267 . S
C398 O390 1.249 . S
C398 O391 1.267 . S
C399 O396 1.249 . S
C399 O397 1.267 . S
Dy400 O404 2.398 . S
Dy400 O405 2.491 . S
Dy400 O406 2.403 . S
Dy400 O407 2.664 . S
Dy400 O411 2.326 . S
Dy400 O415 2.310 . S
Dy400 O416 2.351 1_565 S
C401 O412 1.185 . S
C401 O413 1.355 . S
C402 O404 1.185 . S
C402 O405 1.355 . S
Dy403 O407 2.310 . S
Dy403 O410 2.351 . S
Dy403 O412 2.398 1_455 S
Dy403 O413 2.491 1_455 S
Dy403 O414 2.403 . S
Dy403 O415 2.664 . S
Dy403 O417 2.326 . S
O404 Dy400 2.398 . S
O404 C402 1.185 . S
O405 Dy400 2.491 . S
O405 C402 1.355 . S
O406 Dy400 2.403 . S
O406 C408 1.254 . S
O407 Dy400 2.664 . S
O407 Dy403 2.310 . S
O407 C408 1.268 . S
C408 O406 1.254 . S
C408 O407 1.268 . S
C409 O414 1.254 . S
C409 O415 1.268 . S
O410 Dy403 2.351 . S
O410 C418 1.249 . S
O411 Dy400 2.326 . S
O411 C418 1.267 . S
O412 C401 1.185 . S
O412 Dy403 2.398 1_655 S
O413 C401 1.355 . S
O413 Dy403 2.491 1_655 S
O414 Dy403 2.403 . S
O414 C409 1.254 . S
O415 Dy400 2.310 . S
O415 Dy403 2.664 . S
O415 C409 1.268 . S
O416 Dy400 2.351 1_545 S
O416 C419 1.249 . S
O417 Dy403 2.326 . S
O417 C419 1.267 1_565 S
C418 O410 1.249 . S
C418 O411 1.267 . S
C419 O416 1.249 . S
C419 O417 1.267 1_545 S
Dy420 O424 2.398 . S
Dy420 O425 2.491 . S
Dy420 O426 2.403 . S
Dy420 O427 2.664 . S
Dy420 O431 2.326 . S
Dy420 O435 2.310 . S
Dy420 O436 2.351 . S
C421 O432 1.185 . S
C421 O433 1.355 . S
C422 O424 1.185 . S
C422 O425 1.355 . S
Dy423 O427 2.310 . S
Dy423 O430 2.351 1_565 S
Dy423 O432 2.398 . S
Dy423 O433 2.491 . S
Dy423 O434 2.403 . S
Dy423 O435 2.664 . S
Dy423 O437 2.326 . S
O424 Dy420 2.398 . S
O424 C422 1.185 . S
O425 Dy420 2.491 . S
O425 C422 1.355 . S
O426 Dy420 2.403 . S
O426 C428 1.254 . S
O427 Dy420 2.664 . S
O427 Dy423 2.310 . S
O427 C428 1.268 . S
C428 O426 1.254 . S
C428 O427 1.268 . S
C429 O434 1.254 . S
C429 O435 1.268 . S
O430 Dy423 2.351 1_545 S
O430 C438 1.249 . S
O431 Dy420 2.326 . S
O431 C438 1.267 1_565 S
O432 C421 1.185 . S
O432 Dy423 2.398 . S
O433 C421 1.355 . S
O433 Dy423 2.491 . S
O434 Dy423 2.403 . S
O434 C429 1.254 . S
O435 Dy420 2.310 . S
O435 Dy423 2.664 . S
O435 C429 1.268 . S
O436 Dy420 2.351 . S
O436 C439 1.249 . S
O437 Dy423 2.326 . S
O437 C439 1.267 . S
C438 O430 1.249 . S
C438 O431 1.267 1_545 S
C439 O436 1.249 . S
C439 O437 1.267 . S
Dy440 O444 2.398 1_565 S
Dy440 O445 2.491 1_565 S
Dy440 O446 2.403 . S
Dy440 O447 2.664 . S
Dy440 O451 2.326 . S
Dy440 O455 2.310 . S
Dy440 O456 2.351 . S
C441 O452 1.185 . S
C441 O453 1.355 . S
C442 O444 1.185 . S
C442 O445 1.355 . S
Dy443 O447 2.310 . S
Dy443 O450 2.351 . S
Dy443 O452 2.398 . S
Dy443 O453 2.491 . S
Dy443 O454 2.403 . S
Dy443 O455 2.664 . S
Dy443 O457 2.326 . S
O444 Dy440 2.398 1_545 S
O444 C442 1.185 . S
O445 Dy440 2.491 1_545 S
O445 C442 1.355 . S
O446 Dy440 2.403 . S
O446 C448 1.254 . S
O447 Dy440 2.664 . S
O447 Dy443 2.310 . S
O447 C448 1.268 . S
C448 O446 1.254 . S
C448 O447 1.268 . S
C449 O454 1.254 . S
C449 O455 1.268 . S
O450 Dy443 2.351 . S
O450 C458 1.249 . S
O451 Dy440 2.326 . S
O451 C458 1.267 . S
O452 C441 1.185 . S
O452 Dy443 2.398 . S
O453 C441 1.355 . S
O453 Dy443 2.491 . S
O454 Dy443 2.403 . S
O454 C449 1.254 . S
O455 Dy440 2.310 . S
O455 Dy443 2.664 . S
O455 C449 1.268 . S
O456 Dy440 2.351 . S
O456 C459 1.249 . S
O457 Dy443 2.326 . S
O457 C459 1.267 . S
C458 O450 1.249 . S
C458 O451 1.267 . S
C459 O456 1.249 . S
C459 O457 1.267 . S
Dy460 O464 2.398 1_455 S
Dy460 O465 2.491 1_455 S
Dy460 O466 2.403 . S
Dy460 O467 2.664 . S
Dy460 O471 2.326 . S
Dy460 O475 2.310 . S
Dy460 O476 2.351 . S
C461 O472 1.185 . S
C461 O473 1.355 . S
C462 O464 1.185 . S
C462 O465 1.355 . S
Dy463 O467 2.310 . S
Dy463 O470 2.351 . S
Dy463 O472 2.398 . S
Dy463 O473 2.491 . S
Dy463 O474 2.403 . S
Dy463 O475 2.664 . S
Dy463 O477 2.326 . S
O464 Dy460 2.398 1_655 S
O464 C462 1.185 . S
O465 Dy460 2.491 1_655 S
O465 C462 1.355 . S
O466 Dy460 2.403 . S
O466 C468 1.254 . S
O467 Dy460 2.664 . S
O467 Dy463 2.310 . S
O467 C468 1.268 . S
C468 O466 1.254 . S
C468 O467 1.268 . S
C469 O474 1.254 . S
C469 O475 1.268 . S
O470 Dy463 2.351 . S
O470 C478 1.249 . S
O471 Dy460 2.326 . S
O471 C478 1.267 . S
O472 C461 1.185 . S
O472 Dy463 2.398 . S
O473 C461 1.355 . S
O473 Dy463 2.491 . S
O474 Dy463 2.403 . S
O474 C469 1.254 . S
O475 Dy460 2.310 . S
O475 Dy463 2.664 . S
O475 C469 1.268 . S
O476 Dy460 2.351 . S
O476 C479 1.249 . S
O477 Dy463 2.326 . S
O477 C479 1.267 . S
C478 O470 1.249 . S
C478 O471 1.267 . S
C479 O476 1.249 . S
C479 O477 1.267 . S
Dy480 O484 2.398 . S
Dy480 O485 2.491 . S
Dy480 O486 2.403 . S
Dy480 O487 2.664 . S
Dy480 O491 2.326 . S
Dy480 O495 2.310 . S
Dy480 O496 2.351 . S
C481 O492 1.185 . S
C481 O493 1.355 . S
C482 O484 1.185 . S
C482 O485 1.355 . S
Dy483 O487 2.310 . S
Dy483 O490 2.351 1_655 S
Dy483 O492 2.398 . S
Dy483 O493 2.491 . S
Dy483 O494 2.403 . S
Dy483 O495 2.664 . S
Dy483 O497 2.326 . S
O484 Dy480 2.398 . S
O484 C482 1.185 . S
O485 Dy480 2.491 . S
O485 C482 1.355 . S
O486 Dy480 2.403 . S
O486 C488 1.254 . S
O487 Dy480 2.664 . S
O487 Dy483 2.310 . S
O487 C488 1.268 . S
C488 O486 1.254 . S
C488 O487 1.268 . S
C489 O494 1.254 . S
C489 O495 1.268 . S
O490 Dy483 2.351 1_455 S
O490 C498 1.249 . S
O491 Dy480 2.326 . S
O491 C498 1.267 1_655 S
O492 C481 1.185 . S
O492 Dy483 2.398 . S
O493 C481 1.355 . S
O493 Dy483 2.491 . S
O494 Dy483 2.403 . S
O494 C489 1.254 . S
O495 Dy480 2.310 . S
O495 Dy483 2.664 . S
O495 C489 1.268 . S
O496 Dy480 2.351 . S
O496 C499 1.249 . S
O497 Dy483 2.326 . S
O497 C499 1.267 . S
C498 O490 1.249 . S
C498 O491 1.267 1_455 S
C499 O496 1.249 . S
C499 O497 1.267 . S
Dy500 O504 2.398 1_545 S
Dy500 O505 2.491 1_545 S
Dy500 O506 2.403 . S
Dy500 O507 2.664 . S
Dy500 O511 2.326 . S
Dy500 O515 2.310 . S
Dy500 O516 2.351 . S
C501 O512 1.185 . S
C501 O513 1.355 . S
C502 O504 1.185 . S
C502 O505 1.355 . S
Dy503 O507 2.310 . S
Dy503 O510 2.351 . S
Dy503 O512 2.398 . S
Dy503 O513 2.491 . S
Dy503 O514 2.403 . S
Dy503 O515 2.664 . S
Dy503 O517 2.326 . S
O504 Dy500 2.398 1_565 S
O504 C502 1.185 . S
O505 Dy500 2.491 1_565 S
O505 C502 1.355 . S
O506 Dy500 2.403 . S
O506 C508 1.254 . S
O507 Dy500 2.664 . S
O507 Dy503 2.310 . S
O507 C508 1.268 . S
C508 O506 1.254 . S
C508 O507 1.268 . S
C509 O514 1.254 . S
C509 O515 1.268 . S
O510 Dy503 2.351 . S
O510 C518 1.249 . S
O511 Dy500 2.326 . S
O511 C518 1.267 . S
O512 C501 1.185 . S
O512 Dy503 2.398 . S
O513 C501 1.355 . S
O513 Dy503 2.491 . S
O514 Dy503 2.403 . S
O514 C509 1.254 . S
O515 Dy500 2.310 . S
O515 Dy503 2.664 . S
O515 C509 1.268 . S
O516 Dy500 2.351 . S
O516 C519 1.249 . S
O517 Dy503 2.326 . S
O517 C519 1.267 . S
C518 O510 1.249 . S
C518 O511 1.267 . S
C519 O516 1.249 . S
C519 O517 1.267 . S
Dy520 O524 2.398 . S
Dy520 O525 2.491 . S
Dy520 O526 2.403 1_455 S
Dy520 O527 2.664 1_455 S
Dy520 O531 2.326 1_455 S
Dy520 O535 2.310 1_455 S
Dy520 O536 2.351 1_455 S
C521 O532 1.185 . S
C521 O533 1.355 . S
C522 O524 1.185 . S
C522 O525 1.355 . S
Dy523 O527 2.310 . S
Dy523 O530 2.351 . S
Dy523 O532 2.398 . S
Dy523 O533 2.491 . S
Dy523 O534 2.403 . S
Dy523 O535 2.664 . S
Dy523 O537 2.326 . S
O524 Dy520 2.398 . S
O524 C522 1.185 . S
O525 Dy520 2.491 . S
O525 C522 1.355 . S
O526 Dy520 2.403 1_655 S
O526 C528 1.254 . S
O527 Dy520 2.664 1_655 S
O527 Dy523 2.310 . S
O527 C528 1.268 . S
C528 O526 1.254 . S
C528 O527 1.268 . S
C529 O534 1.254 . S
C529 O535 1.268 . S
O530 Dy523 2.351 . S
O530 C538 1.249 . S
O531 Dy520 2.326 1_655 S
O531 C538 1.267 . S
O532 C521 1.185 . S
O532 Dy523 2.398 . S
O533 C521 1.355 . S
O533 Dy523 2.491 . S
O534 Dy523 2.403 . S
O534 C529 1.254 . S
O535 Dy520 2.310 1_655 S
O535 Dy523 2.664 . S
O535 C529 1.268 . S
O536 Dy520 2.351 1_655 S
O536 C539 1.249 . S
O537 Dy523 2.326 . S
O537 C539 1.267 . S
C538 O530 1.249 . S
C538 O531 1.267 . S
C539 O536 1.249 . S
C539 O537 1.267 . S
Dy540 O544 2.398 . S
Dy540 O545 2.491 . S
Dy540 O546 2.403 . S
Dy540 O547 2.664 . S
Dy540 O551 2.326 . S
Dy540 O555 2.310 . S
Dy540 O556 2.351 . S
C541 O552 1.185 . S
C541 O553 1.355 . S
C542 O544 1.185 . S
C542 O545 1.355 . S
Dy543 O547 2.310 . S
Dy543 O550 2.351 . S
Dy543 O552 2.398 . S
Dy543 O553 2.491 . S
Dy543 O554 2.403 . S
Dy543 O555 2.664 . S
Dy543 O557 2.326 . S
O544 Dy540 2.398 . S
O544 C542 1.185 . S
O545 Dy540 2.491 . S
O545 C542 1.355 . S
O546 Dy540 2.403 . S
O546 C548 1.254 . S
O547 Dy540 2.664 . S
O547 Dy543 2.310 . S
O547 C548 1.268 . S
C548 O546 1.254 . S
C548 O547 1.268 . S
C549 O554 1.254 . S
C549 O555 1.268 . S
O550 Dy543 2.351 . S
O550 C558 1.249 . S
O551 Dy540 2.326 . S
O551 C558 1.267 . S
O552 C541 1.185 . S
O552 Dy543 2.398 . S
O553 C541 1.355 . S
O553 Dy543 2.491 . S
O554 Dy543 2.403 . S
O554 C549 1.254 . S
O555 Dy540 2.310 . S
O555 Dy543 2.664 . S
O555 C549 1.268 . S
O556 Dy540 2.351 . S
O556 C559 1.249 . S
O557 Dy543 2.326 . S
O557 C559 1.267 . S
C558 O550 1.249 . S
C558 O551 1.267 . S
C559 O556 1.249 . S
C559 O557 1.267 . S
Dy560 O564 2.398 . S
Dy560 O565 2.491 . S
Dy560 O566 2.403 . S
Dy560 O567 2.664 . S
Dy560 O571 2.326 . S
Dy560 O575 2.310 . S
Dy560 O576 2.351 1_655 S
C561 O572 1.185 . S
C561 O573 1.355 . S
C562 O564 1.185 . S
C562 O565 1.355 . S
Dy563 O567 2.310 . S
Dy563 O570 2.351 . S
Dy563 O572 2.398 1_545 S
Dy563 O573 2.491 1_545 S
Dy563 O574 2.403 . S
Dy563 O575 2.664 . S
Dy563 O577 2.326 . S
O564 Dy560 2.398 . S
O564 C562 1.185 . S
O565 Dy560 2.491 . S
O565 C562 1.355 . S
O566 Dy560 2.403 . S
O566 C568 1.254 . S
O567 Dy560 2.664 . S
O567 Dy563 2.310 . S
O567 C568 1.268 . S
C568 O566 1.254 . S
C568 O567 1.268 . S
C569 O574 1.254 . S
C569 O575 1.268 . S
O570 Dy563 2.351 . S
O570 C578 1.249 . S
O571 Dy560 2.326 . S
O571 C578 1.267 . S
O572 C561 1.185 . S
O572 Dy563 2.398 1_565 S
O573 C561 1.355 . S
O573 Dy563 2.491 1_565 S
O574 Dy563 2.403 . S
O574 C569 1.254 . S
O575 Dy560 2.310 . S
O575 Dy563 2.664 . S
O575 C569 1.268 . S
O576 Dy560 2.351 1_455 S
O576 C579 1.249 . S
O577 Dy563 2.326 . S
O577 C579 1.267 1_655 S
C578 O570 1.249 . S
C578 O571 1.267 . S
C579 O576 1.249 . S
C579 O577 1.267 1_455 S
Dy580 O584 2.398 . S
Dy580 O585 2.491 . S
Dy580 O586 2.403 . S
Dy580 O587 2.664 . S
Dy580 O591 2.326 . S
Dy580 O595 2.310 . S
Dy580 O596 2.351 . S
C581 O592 1.185 . S
C581 O593 1.355 . S
C582 O584 1.185 . S
C582 O585 1.355 . S
Dy583 O587 2.310 . S
Dy583 O590 2.351 . S
Dy583 O592 2.398 1_655 S
Dy583 O593 2.491 1_655 S
Dy583 O594 2.403 . S
Dy583 O595 2.664 . S
Dy583 O597 2.326 . S
O584 Dy580 2.398 . S
O584 C582 1.185 . S
O585 Dy580 2.491 . S
O585 C582 1.355 . S
O586 Dy580 2.403 . S
O586 C588 1.254 . S
O587 Dy580 2.664 . S
O587 Dy583 2.310 . S
O587 C588 1.268 . S
C588 O586 1.254 . S
C588 O587 1.268 . S
C589 O594 1.254 . S
C589 O595 1.268 . S
O590 Dy583 2.351 . S
O590 C598 1.249 . S
O591 Dy580 2.326 . S
O591 C598 1.267 . S
O592 C581 1.185 . S
O592 Dy583 2.398 1_455 S
O593 C581 1.355 . S
O593 Dy583 2.491 1_455 S
O594 Dy583 2.403 . S
O594 C589 1.254 . S
O595 Dy580 2.310 . S
O595 Dy583 2.664 . S
O595 C589 1.268 . S
O596 Dy580 2.351 . S
O596 C599 1.249 . S
O597 Dy583 2.326 . S
O597 C599 1.267 . S
C598 O590 1.249 . S
C598 O591 1.267 . S
C599 O596 1.249 . S
C599 O597 1.267 . S
Dy600 O604 2.398 . S
Dy600 O605 2.491 . S
Dy600 O606 2.403 . S
Dy600 O607 2.664 . S
Dy600 O611 2.326 . S
Dy600 O615 2.310 . S
Dy600 O616 2.351 . S
C601 O612 1.185 . S
C601 O613 1.355 . S
C602 O604 1.185 . S
C602 O605 1.355 . S
Dy603 O607 2.310 . S
Dy603 O610 2.351 1_655 S
Dy603 O612 2.398 . S
Dy603 O613 2.491 . S
Dy603 O614 2.403 . S
Dy603 O615 2.664 . S
Dy603 O617 2.326 . S
O604 Dy600 2.398 . S
O604 C602 1.185 . S
O605 Dy600 2.491 . S
O605 C602 1.355 . S
O606 Dy600 2.403 . S
O606 C608 1.254 . S
O607 Dy600 2.664 . S
O607 Dy603 2.310 . S
O607 C608 1.268 . S
C608 O606 1.254 . S
C608 O607 1.268 . S
C609 O614 1.254 . S
C609 O615 1.268 . S
O610 Dy603 2.351 1_455 S
O610 C618 1.249 . S
O611 Dy600 2.326 . S
O611 C618 1.267 1_655 S
O612 C601 1.185 . S
O612 Dy603 2.398 . S
O613 C601 1.355 . S
O613 Dy603 2.491 . S
O614 Dy603 2.403 . S
O614 C609 1.254 . S
O615 Dy600 2.310 . S
O615 Dy603 2.664 . S
O615 C609 1.268 . S
O616 Dy600 2.351 . S
O616 C619 1.249 . S
O617 Dy603 2.326 . S
O617 C619 1.267 . S
C618 O610 1.249 . S
C618 O611 1.267 1_455 S
C619 O616 1.249 . S
C619 O617 1.267 . S
Dy620 O624 2.398 1_545 S
Dy620 O625 2.491 1_545 S
Dy620 O626 2.403 . S
Dy620 O627 2.664 . S
Dy620 O631 2.326 . S
Dy620 O635 2.310 . S
Dy620 O636 2.351 . S
C621 O632 1.185 . S
C621 O633 1.355 . S
C622 O624 1.185 . S
C622 O625 1.355 . S
Dy623 O627 2.310 . S
Dy623 O630 2.351 . S
Dy623 O632 2.398 . S
Dy623 O633 2.491 . S
Dy623 O634 2.403 . S
Dy623 O635 2.664 . S
Dy623 O637 2.326 . S
O624 Dy620 2.398 1_565 S
O624 C622 1.185 . S
O625 Dy620 2.491 1_565 S
O625 C622 1.355 . S
O626 Dy620 2.403 . S
O626 C628 1.254 . S
O627 Dy620 2.664 . S
O627 Dy623 2.310 . S
O627 C628 1.268 . S
C628 O626 1.254 . S
C628 O627 1.268 . S
C629 O634 1.254 . S
C629 O635 1.268 . S
O630 Dy623 2.351 . S
O630 C638 1.249 . S
O631 Dy620 2.326 . S
O631 C638 1.267 . S
O632 C621 1.185 . S
O632 Dy623 2.398 . S
O633 C621 1.355 . S
O633 Dy623 2.491 . S
O634 Dy623 2.403 . S
O634 C629 1.254 . S
O635 Dy620 2.310 . S
O635 Dy623 2.664 . S
O635 C629 1.268 . S
O636 Dy620 2.351 . S
O636 C639 1.249 . S
O637 Dy623 2.326 . S
O637 C639 1.267 . S
C638 O630 1.249 . S
C638 O631 1.267 . S
C639 O636 1.249 . S
C639 O637 1.267 . S
Dy640 O644 2.398 1_655 S
Dy640 O645 2.491 1_655 S
Dy640 O646 2.403 . S
Dy640 O647 2.664 . S
Dy640 O651 2.326 . S
Dy640 O655 2.310 . S
Dy640 O656 2.351 . S
C641 O652 1.185 . S
C641 O653 1.355 . S
C642 O644 1.185 . S
C642 O645 1.355 . S
Dy643 O647 2.310 . S
Dy643 O650 2.351 . S
Dy643 O652 2.398 . S
Dy643 O653 2.491 . S
Dy643 O654 2.403 . S
Dy643 O655 2.664 . S
Dy643 O657 2.326 . S
O644 Dy640 2.398 1_455 S
O644 C642 1.185 . S
O645 Dy640 2.491 1_455 S
O645 C642 1.355 . S
O646 Dy640 2.403 . S
O646 C648 1.254 . S
O647 Dy640 2.664 . S
O647 Dy643 2.310 . S
O647 C648 1.268 . S
C648 O646 1.254 . S
C648 O647 1.268 . S
C649 O654 1.254 . S
C649 O655 1.268 . S
O650 Dy643 2.351 . S
O650 C658 1.249 . S
O651 Dy640 2.326 . S
O651 C658 1.267 . S
O652 C641 1.185 . S
O652 Dy643 2.398 . S
O653 C641 1.355 . S
O653 Dy643 2.491 . S
O654 Dy643 2.403 . S
O654 C649 1.254 . S
O655 Dy640 2.310 . S
O655 Dy643 2.664 . S
O655 C649 1.268 . S
O656 Dy640 2.351 . S
O656 C659 1.249 . S
O657 Dy643 2.326 . S
O657 C659 1.267 . S
C658 O650 1.249 . S
C658 O651 1.267 . S
C659 O656 1.249 . S
C659 O657 1.267 . S
Dy660 O664 2.398 . S
Dy660 O665 2.491 . S
Dy660 O666 2.403 . S
Dy660 O667 2.664 . S
Dy660 O671 2.326 . S
Dy660 O675 2.310 . S
Dy660 O676 2.351 . S
C661 O672 1.185 . S
C661 O673 1.355 . S
C662 O664 1.185 . S
C662 O665 1.355 . S
Dy663 O667 2.310 . S
Dy663 O670 2.351 . S
Dy663 O672 2.398 . S
Dy663 O673 2.491 . S
Dy663 O674 2.403 . S
Dy663 O675 2.664 . S
Dy663 O677 2.326 . S
O664 Dy660 2.398 . S
O664 C662 1.185 . S
O665 Dy660 2.491 . S
O665 C662 1.355 . S
O666 Dy660 2.403 . S
O666 C668 1.254 . S
O667 Dy660 2.664 . S
O667 Dy663 2.310 . S
O667 C668 1.268 . S
C668 O666 1.254 . S
C668 O667 1.268 . S
C669 O674 1.254 . S
C669 O675 1.268 . S
O670 Dy663 2.351 . S
O670 C678 1.249 . S
O671 Dy660 2.326 . S
O671 C678 1.267 . S
O672 C661 1.185 . S
O672 Dy663 2.398 . S
O673 C661 1.355 . S
O673 Dy663 2.491 . S
O674 Dy663 2.403 . S
O674 C669 1.254 . S
O675 Dy660 2.310 . S
O675 Dy663 2.664 . S
O675 C669 1.268 . S
O676 Dy660 2.351 . S
O676 C679 1.249 . S
O677 Dy663 2.326 . S
O677 C679 1.267 . S
C678 O670 1.249 . S
C678 O671 1.267 . S
C679 O676 1.249 . S
C679 O677 1.267 . S
Dy680 O684 2.398 . S
Dy680 O685 2.491 . S
Dy680 O686 2.403 . S
Dy680 O687 2.664 . S
Dy680 O691 2.326 . S
Dy680 O695 2.310 . S
Dy680 O696 2.351 1_655 S
C681 O692 1.185 . S
C681 O693 1.355 . S
C682 O684 1.185 . S
C682 O685 1.355 . S
Dy683 O687 2.310 . S
Dy683 O690 2.351 . S
Dy683 O692 2.398 1_545 S
Dy683 O693 2.491 1_545 S
Dy683 O694 2.403 . S
Dy683 O695 2.664 . S
Dy683 O697 2.326 . S
O684 Dy680 2.398 . S
O684 C682 1.185 . S
O685 Dy680 2.491 . S
O685 C682 1.355 . S
O686 Dy680 2.403 . S
O686 C688 1.254 . S
O687 Dy680 2.664 . S
O687 Dy683 2.310 . S
O687 C688 1.268 . S
C688 O686 1.254 . S
C688 O687 1.268 . S
C689 O694 1.254 . S
C689 O695 1.268 . S
O690 Dy683 2.351 . S
O690 C698 1.249 . S
O691 Dy680 2.326 . S
O691 C698 1.267 . S
O692 C681 1.185 . S
O692 Dy683 2.398 1_565 S
O693 C681 1.355 . S
O693 Dy683 2.491 1_565 S
O694 Dy683 2.403 . S
O694 C689 1.254 . S
O695 Dy680 2.310 . S
O695 Dy683 2.664 . S
O695 C689 1.268 . S
O696 Dy680 2.351 1_455 S
O696 C699 1.249 . S
O697 Dy683 2.326 . S
O697 C699 1.267 1_655 S
C698 O690 1.249 . S
C698 O691 1.267 . S
C699 O696 1.249 . S
C699 O697 1.267 1_455 S
Dy700 O704 2.398 . S
Dy700 O705 2.491 . S
Dy700 O706 2.403 . S
Dy700 O707 2.664 . S
Dy700 O711 2.326 . S
Dy700 O715 2.310 . S
Dy700 O716 2.351 . S
C701 O712 1.185 . S
C701 O713 1.355 . S
C702 O704 1.185 . S
C702 O705 1.355 . S
Dy703 O707 2.310 1_455 S
Dy703 O710 2.351 1_455 S
Dy703 O712 2.398 . S
Dy703 O713 2.491 . S
Dy703 O714 2.403 1_455 S
Dy703 O715 2.664 1_455 S
Dy703 O717 2.326 1_455 S
O704 Dy700 2.398 . S
O704 C702 1.185 . S
O705 Dy700 2.491 . S
O705 C702 1.355 . S
O706 Dy700 2.403 . S
O706 C708 1.254 . S
O707 Dy700 2.664 . S
O707 Dy703 2.310 1_655 S
O707 C708 1.268 . S
C708 O706 1.254 . S
C708 O707 1.268 . S
C709 O714 1.254 . S
C709 O715 1.268 . S
O710 Dy703 2.351 1_655 S
O710 C718 1.249 . S
O711 Dy700 2.326 . S
O711 C718 1.267 . S
O712 C701 1.185 . S
O712 Dy703 2.398 . S
O713 C701 1.355 . S
O713 Dy703 2.491 . S
O714 Dy703 2.403 1_655 S
O714 C709 1.254 . S
O715 Dy700 2.310 . S
O715 Dy703 2.664 1_655 S
O715 C709 1.268 . S
O716 Dy700 2.351 . S
O716 C719 1.249 . S
O717 Dy703 2.326 1_655 S
O717 C719 1.267 . S
C718 O710 1.249 . S
C718 O711 1.267 . S
C719 O716 1.249 . S
C719 O717 1.267 . S
C549 C9 3.347 . S
C569 C29 3.348 1_655 S
C49 C589 3.346 . S
C69 C249 3.347 . S
C89 C269 3.346 . S
C289 C109 3.348 1_565 S
C128 C428 3.347 1_545 S
C448 C148 3.347 . S
C168 C468 3.347 . S
C608 C188 3.347 1_655 S
C208 C628 3.347 . S
C648 C228 3.347 . S
C489 C309 3.348 . S
C329 C509 3.347 1_565 S
C529 C349 3.347 1_655 S
C368 C668 3.347 . S
C388 C688 3.347 1_565 S
C708 C408 3.347 1_655 S
C8 C129 1.408 1_554 S
C149 C28 1.408 1_556 S
C48 C169 1.408 1_554 S
C189 C68 1.408 . S
C88 C209 1.408 . S
C229 C108 1.408 . S
C369 C248 1.408 . S
C268 C389 1.408 . S
C409 C288 1.408 . S
C308 C429 1.408 . S
C449 C328 1.408 . S
C348 C469 1.408 . S
C488 C609 1.408 . S
C629 C508 1.408 . S
C649 C528 1.408 . S
C669 C548 1.408 . S
C568 C689 1.408 . S
C588 C709 1.408 . S
C1 C59 1.804 . S
C21 C19 1.805 . S
C39 C41 1.804 . S
C61 C99 1.804 . S
C119 C81 1.804 . S
C79 C101 1.805 . S
C178 C122 1.804 . S
C142 C138 1.805 . S
C162 C158 1.804 . S
C218 C182 1.804 . S
C202 C238 1.804 . S
C222 C198 1.805 . S
C299 C241 1.804 . S
C259 C261 1.804 1_455 S
C279 C281 1.805 . S
C339 C301 1.805 . S
C321 C359 1.804 . S
C319 C341 1.804 . S
C362 C418 1.804 . S
C378 C382 1.804 . S
C402 C398 1.805 . S
C458 C422 1.805 1_455 S
C478 C442 1.805 . S
C438 C462 1.804 . S
C539 C481 1.805 . S
C501 C499 1.804 . S
C519 C521 1.804 . S
C541 C579 1.804 . S
C561 C599 1.805 . S
C559 C581 1.804 1_545 S
C602 C658 1.805 1_565 S
C622 C618 1.804 . S
C638 C642 1.805 . S
C662 C698 1.804 . S
C718 C682 1.805 . S
C678 C702 1.804 . S
C58 C2 1.533 . S
C22 C18 1.533 . S
C38 C42 1.533 . S
C98 C62 1.533 . S
C82 C118 1.533 . S
C102 C78 1.533 . S
C179 C121 1.533 . S
C141 C139 1.533 . S
C159 C161 1.533 . S
C219 C181 1.533 . S
C239 C201 1.533 . S
C199 C221 1.533 . S
C242 C298 1.533 . S
C262 C258 1.533 . S
C282 C278 1.533 . S
C338 C302 1.533 1_455 S
C322 C358 1.533 . S
C342 C318 1.533 . S
C419 C361 1.533 . S
C379 C381 1.533 1_455 S
C401 C399 1.534 . S
C459 C421 1.534 . S
C441 C479 1.533 . S
C461 C439 1.533 . S
C482 C538 1.533 1_565 S
C498 C502 1.533 . S
C518 C522 1.533 . S
C578 C542 1.533 . S
C562 C598 1.533 . S
C582 C558 1.533 . S
C659 C601 1.534 . S
C619 C621 1.533 . S
C641 C639 1.533 . S
C699 C661 1.533 . S
C681 C719 1.534 . S
C701 C679 1.533 1_565 S
