# Generated by pormake.
# Topology hcp, (12)-cn, num edge types: 1
# Building blocks:
#     Node 0, Type 0, BuildingBlock: ZALLEG_clean_sbu_0, # of connection points: 12
#     Node 1, Type 0, BuildingBlock: ZALLEG_clean_sbu_0, # of connection points: 12
#     Edge 2, Type (0, 0), BuildingBlock: TEMPAE_clean_linker_10, # of connection points: 2
#     Edge 3, Type (0, 0), BuildingBlock: TEMPAE_clean_linker_10, # of connection points: 2
#     Edge 4, Type (0, 0), BuildingBlock: TEMPAE_clean_linker_10, # of connection points: 2
#     Edge 5, Type (0, 0), BuildingBlock: TEMPAE_clean_linker_10, # of connection points: 2
#     Edge 6, Type (0, 0), BuildingBlock: TEMPAE_clean_linker_10, # of connection points: 2
#     Edge 7, Type (0, 0), BuildingBlock: TEMPAE_clean_linker_10, # of connection points: 2
#     Edge 8, Type (0, 0), BuildingBlock: TEMPAE_clean_linker_10, # of connection points: 2
#     Edge 9, Type (0, 0), BuildingBlock: TEMPAE_clean_linker_10, # of connection points: 2
#     Edge 10, Type (0, 0), BuildingBlock: TEMPAE_clean_linker_10, # of connection points: 2
#     Edge 11, Type (0, 0), BuildingBlock: TEMPAE_clean_linker_10, # of connection points: 2
#     Edge 12, Type (0, 0), BuildingBlock: TEMPAE_clean_linker_10, # of connection points: 2
#     Edge 13, Type (0, 0), BuildingBlock: TEMPAE_clean_linker_10, # of connection points: 2
# Relax obj value: 0.186
# Max RMSD: 0.270
# Mean RMSD: 0.270
data_MOF--net-hcp--node1-ZALLEG_clean_sbu_0--edge1-TEMPAE_clean_linker_10
_symmetry_space_group_name_H-M    P1
_symmetry_Int_Tables_number       1
_symmetry_cell_setting            triclinic
loop_
_symmetry_equiv_pos_as_xyz
'x, y, z'
_cell_length_a     18.894476
_cell_length_b     18.882561
_cell_length_c     28.575594
_cell_angle_alpha  90.141268
_cell_angle_beta   89.975531
_cell_angle_gamma 119.97954
loop_
_atom_site_label
_atom_site_type_symbol
_atom_site_fract_x
_atom_site_fract_y
_atom_site_fract_z
_atom_type_partial_charge
H0 H 0.55805 0.14372 0.26376 0.0
O1 O 0.5864 0.20099 0.27469 0.0
Tb2 Tb 0.52873 0.26572 0.25013 0.0
Tb3 Tb 0.59263 0.20286 0.34811 0.0
Tb4 Tb 0.70548 0.26058 0.25016 0.0
O5 O 0.52576 0.25877 0.32406 0.0
O6 O 0.64845 0.32327 0.22313 0.0
O7 O 0.58827 0.38429 0.27575 0.0
O8 O 0.64761 0.32179 0.37484 0.0
O9 O 0.76951 0.38258 0.27569 0.0
O10 O 0.71185 0.26374 0.32411 0.0
H11 H 0.46924 0.2304 0.33613 0.0
H12 H 0.64871 0.32362 0.1885 0.0
Tb13 Tb 0.58364 0.37744 0.34929 0.0
Tb14 Tb 0.71053 0.44252 0.25117 0.0
H15 H 0.55942 0.41263 0.26486 0.0
H16 H 0.64712 0.32106 0.40935 0.0
Tb17 Tb 0.76718 0.38606 0.34918 0.0
H18 H 0.82674 0.41197 0.26492 0.0
H19 H 0.74034 0.23566 0.33615 0.0
O20 O 0.70637 0.44458 0.32519 0.0
H21 H 0.73423 0.50089 0.33778 0.0
O22 O 0.42533 0.14345 0.26603 0.0
O23 O 0.86986 0.50885 0.33639 0.0
O24 O 0.78835 0.33001 0.40784 0.0
O25 O 0.52061 0.34138 0.19112 0.0
O26 O 0.61311 0.10061 0.33454 0.0
O27 O 0.69187 0.54561 0.26788 0.0
O28 O 0.79523 0.45213 0.19222 0.0
O29 O 0.51596 0.17974 0.40704 0.0
O30 O 0.63078 0.17709 0.19074 0.0
O31 O 0.63855 0.45369 0.40886 0.0
O32 O 0.46108 0.35743 0.33585 0.0
O33 O 0.8275 0.27938 0.26637 0.0
O34 O 0.46999 0.09951 0.33254 0.0
O35 O 0.83071 0.54795 0.26624 0.0
O36 O 0.6521 0.46109 0.19158 0.0
O37 O 0.66338 0.20329 0.41284 0.0
O38 O 0.42435 0.28292 0.26426 0.0
O39 O 0.87212 0.36955 0.33268 0.0
O40 O 0.76464 0.45418 0.41467 0.0
O41 O 0.51102 0.18888 0.19028 0.0
O42 O 0.51255 0.30386 0.41342 0.0
O43 O 0.78269 0.32023 0.19082 0.0
O44 O 0.68925 0.13934 0.26377 0.0
O45 O 0.60086 0.49942 0.3336 0.0
C46 C 0.41491 0.0891 0.29949 0.0
C47 C 0.88202 0.56065 0.30154 0.0
C48 C 0.73911 0.25933 0.42829 0.0
C49 C 0.57615 0.41683 0.17547 0.0
C50 C 0.65159 0.08783 0.29915 0.0
C51 C 0.64632 0.55462 0.30086 0.0
C52 C 0.81493 0.3968 0.17573 0.0
C53 C 0.49339 0.22773 0.42802 0.0
C54 C 0.55571 0.15733 0.17452 0.0
C55 C 0.70843 0.47381 0.43003 0.0
C56 C 0.41043 0.32025 0.29998 0.0
C57 C 0.88218 0.32491 0.29937 0.0
H58 H 0.13303 0.56213 0.76644 0.0
O59 O 0.1904 0.59046 0.77704 0.0
Tb60 Tb 0.1935 0.5976 0.85053 0.0
Tb61 Tb 0.25499 0.5327 0.75217 0.0
Tb62 Tb 0.24861 0.70885 0.75158 0.0
O63 O 0.2496 0.53097 0.82606 0.0
O64 O 0.25311 0.71628 0.82554 0.0
O65 O 0.31322 0.65414 0.87612 0.0
O66 O 0.3744 0.59364 0.77637 0.0
O67 O 0.37109 0.77416 0.776 0.0
O68 O 0.31129 0.65181 0.72428 0.0
H69 H 0.22159 0.47456 0.83833 0.0
H70 H 0.225 0.74472 0.83771 0.0
Tb71 Tb 0.36914 0.59075 0.84982 0.0
Tb72 Tb 0.37588 0.77302 0.84959 0.0
H73 H 0.3138 0.65467 0.91063 0.0
H74 H 0.40294 0.56476 0.76575 0.0
Tb75 Tb 0.43132 0.71552 0.75088 0.0
H76 H 0.3997 0.8312 0.76487 0.0
H77 H 0.31085 0.65105 0.68965 0.0
O78 O 0.43473 0.71297 0.82491 0.0
H79 H 0.4913 0.74189 0.83696 0.0
O80 O 0.09003 0.47475 0.83605 0.0
O81 O 0.53634 0.83679 0.76531 0.0
O82 O 0.44894 0.65496 0.69156 0.0
O83 O 0.19539 0.66967 0.91512 0.0
O84 O 0.17919 0.51404 0.69214 0.0
O85 O 0.44738 0.77273 0.91403 0.0
O86 O 0.35561 0.87565 0.83479 0.0
O87 O 0.26988 0.42738 0.76751 0.0
O88 O 0.12878 0.69462 0.76699 0.0
O89 O 0.49209 0.61109 0.83438 0.0
O90 O 0.29883 0.52125 0.91489 0.0
O91 O 0.30472 0.78259 0.69084 0.0
O92 O 0.13161 0.43069 0.76781 0.0
O93 O 0.49704 0.87679 0.83504 0.0
O94 O 0.32111 0.79536 0.90875 0.0
O95 O 0.32989 0.52285 0.69321 0.0
O96 O 0.17305 0.52144 0.90969 0.0
O97 O 0.43779 0.79845 0.69136 0.0
O98 O 0.53532 0.69766 0.76703 0.0
O99 O 0.08995 0.61625 0.8371 0.0
O100 O 0.35145 0.469 0.83627 0.0
O101 O 0.27012 0.83279 0.76653 0.0
O102 O 0.16317 0.63124 0.69315 0.0
O103 O 0.44688 0.64658 0.90838 0.0
C104 C 0.07875 0.42095 0.80205 0.0
C105 C 0.54909 0.88952 0.80007 0.0
C106 C 0.4046 0.57813 0.67651 0.0
C107 C 0.25116 0.74608 0.92989 0.0
C108 C 0.1449 0.55635 0.6769 0.0
C109 C 0.46808 0.71713 0.92905 0.0
C110 C 0.313 0.88623 0.8007 0.0
C111 C 0.31064 0.41563 0.80205 0.0
C112 C 0.07758 0.65585 0.80227 0.0
C113 C 0.54658 0.65505 0.80099 0.0
C114 C 0.2229 0.50096 0.93032 0.0
C115 C 0.38092 0.8162 0.67503 0.0
C116 C 0.28522 0.76053 1.01328 0.0
C117 C 0.24866 0.77944 0.97638 0.0
C118 C 0.33358 0.81942 1.04723 0.0
C119 C 0.34351 0.89869 1.04533 0.0
C120 C 0.29867 0.91517 1.01162 0.0
C121 C 0.25237 0.85569 0.97742 0.0
C122 C 0.37936 0.79956 0.0833 0.0
C123 C 0.30424 -0.00241 1.00958 0.0
C124 C 0.42711 0.03105 0.15459 0.0
C125 C 0.50877 0.08635 0.1426 0.0
C126 C 0.37328 0.97026 0.12361 0.0
C127 C 0.40106 0.96369 0.07877 0.0
C128 C 0.48461 0.01697 0.06692 0.0
C129 C 0.53766 0.07796 0.09899 0.0
C130 C 0.28584 0.91554 0.13886 0.0
C131 C 0.5175 0.01013 1.02006 0.0
H132 H 0.28425 0.70307 1.01212 0.0
H133 H 0.22629 0.87209 0.94849 0.0
H134 H 0.44615 0.8392 0.07804 0.0
H135 H 0.36486 0.8116 0.11904 0.0
H136 H 0.36465 0.73539 0.08153 0.0
H137 H 0.26036 -0.00142 0.9841 0.0
H138 H 0.29217 0.01462 1.04467 0.0
H139 H 0.367 0.04474 0.99928 0.0
H140 H 0.40427 0.03664 0.1884 0.0
H141 H 0.6003 0.12062 0.08931 0.0
H142 H 0.25849 0.85327 0.12367 0.0
H143 H 0.24872 0.94285 0.12722 0.0
H144 H 0.28139 0.90974 0.17753 0.0
H145 H 0.50695 0.94724 1.01512 0.0
H146 H 0.5839 0.05422 1.01645 0.0
H147 H 0.48439 0.0214 0.99163 0.0
C148 C 0.53338 0.58046 0.65663 0.0
C149 C 0.45149 0.55355 0.64483 0.0
C150 C 0.58686 0.5726 0.62578 0.0
C151 C 0.55862 0.53702 0.58119 0.0
C152 C 0.47484 0.50616 0.56959 0.0
C153 C 0.4221 0.51483 0.60155 0.0
C154 C 0.67441 0.60542 0.64087 0.0
C155 C 0.44145 0.46537 0.52299 0.0
C156 C 0.70619 0.58014 0.479 0.0
C157 C 0.71049 0.50796 0.47705 0.0
C158 C 0.6601 0.59228 0.51376 0.0
C159 C 0.61637 0.53049 0.54739 0.0
C160 C 0.62737 0.46169 0.54854 0.0
C161 C 0.67476 0.45162 0.51367 0.0
C162 C 0.65346 0.66859 0.51243 0.0
C163 C 0.58331 0.39566 0.58456 0.0
H164 H 0.55664 0.60993 0.69018 0.0
H165 H 0.35928 0.49437 0.59197 0.0
H166 H 0.70062 0.56877 0.62669 0.0
H167 H 0.71197 0.66894 0.62788 0.0
H168 H 0.67961 0.60652 0.67957 0.0
H169 H 0.3749 0.4425 0.51959 0.0
H170 H 0.4739 0.5093 0.49429 0.0
H171 H 0.45246 0.41328 0.51833 0.0
H172 H 0.7315 0.62315 0.45028 0.0
H173 H 0.67582 0.39498 0.51179 0.0
H174 H 0.66685 0.69782 0.54752 0.0
H175 H 0.59005 0.65227 0.50314 0.0
H176 H 0.69589 0.71365 0.48655 0.0
H177 H 0.60732 0.35328 0.58617 0.0
H178 H 0.51734 0.36021 0.57566 0.0
H179 H 0.58882 0.4222 0.61995 0.0
C180 C 0.93926 0.39112 0.15512 0.0
C181 C 0.88602 0.42058 0.14401 0.0
C182 C -0.00093 0.39698 0.12378 0.0
C183 C 0.00781 0.43468 0.07988 0.0
C184 C 0.95678 0.46808 0.06899 0.0
C185 C 0.89616 0.46046 0.10118 0.0
C186 C 0.0514 0.36059 0.13735 0.0
C187 C 0.9652 0.51028 1.02289 0.0
C188 C 0.21038 0.51966 1.0142 0.0
C189 C 0.19023 0.46471 0.97677 0.0
C190 C 0.15223 0.50963 1.0485 0.0
C191 C 0.0723 0.44136 1.0463 0.0
C192 C 0.0543 0.38063 1.01175 0.0
C193 C 0.1133 0.39308 0.9775 0.0
C194 C 0.17348 0.57535 0.0849 0.0
C195 C 0.97052 0.30578 1.00848 0.0
H196 H 0.93253 0.36085 0.18839 0.0
H197 H 0.85504 0.48272 0.09213 0.0
H198 H 0.04114 0.31119 0.11243 0.0
H199 H 0.11703 0.40766 0.13537 0.0
H200 H 0.03787 0.3348 0.17328 0.0
H201 H 0.92296 0.53502 1.02008 0.0
H202 H 0.02883 0.56123 1.01842 0.0
H203 H 0.95237 0.46662 0.9937 0.0
H204 H 0.26829 0.57565 1.01322 0.0
H205 H 0.09584 0.35122 0.94808 0.0
H206 H 0.16221 0.54879 0.12054 0.0
H207 H 0.1341 0.60299 0.08037 0.0
H208 H 0.23767 0.6246 0.08276 0.0
H209 H 0.95097 0.27599 1.04318 0.0
H210 H 0.96858 0.26049 0.98285 0.0
H211 H 0.92564 0.3241 0.9975 0.0
C212 C 0.45519 0.90454 0.60365 0.0
C213 C 0.40114 0.88464 0.6414 0.0
C214 C 0.46435 0.96468 0.5706 0.0
C215 C 0.41958 0.00663 0.5759 0.0
C216 C 0.36775 0.98871 0.61493 0.0
C217 C 0.35875 0.92813 0.64652 0.0
C218 C 0.52175 0.98346 0.52987 0.0
C219 C 0.32073 0.03296 0.62321 0.0
C220 C 0.50192 0.21208 0.51308 0.0
C221 C 0.45269 0.19059 0.47294 0.0
C222 C 0.49033 0.15359 0.54753 0.0
C223 C 0.42818 0.071 0.54166 0.0
C224 C 0.37358 0.05043 0.5034 0.0
C225 C 0.38553 0.11062 0.47021 0.0
C226 C 0.54664 0.17983 0.58936 0.0
C227 C 0.30672 0.96332 0.49519 0.0
H228 H 0.48816 0.87172 0.59915 0.0
H229 H 0.31708 0.91436 0.67559 0.0
H230 H 0.48821 0.97433 0.49648 0.0
H231 H 0.5707 0.0486 0.53135 0.0
H232 H 0.55044 0.94449 0.52966 0.0
H233 H 0.28776 0.01637 0.65719 0.0
H234 H 0.36276 0.10007 0.62256 0.0
H235 H 0.27545 0.01805 0.59478 0.0
H236 H 0.55505 0.27233 0.51494 0.0
H237 H 0.34854 0.09231 0.43867 0.0
H238 H 0.55832 0.13112 0.60195 0.0
H239 H 0.51841 0.19618 0.61841 0.0
H240 H 0.60621 0.23387 0.58122 0.0
H241 H 0.33446 0.92462 0.48805 0.0
H242 H 0.2669 0.95779 0.46516 0.0
H243 H 0.26823 0.93858 0.52689 0.0
C244 C 0.51202 0.43293 0.10058 0.0
C245 C 0.5535 0.46407 0.14295 0.0
C246 C 0.5044 0.48517 0.06786 0.0
C247 C 0.53921 0.57019 0.07779 0.0
C248 C 0.57877 0.60069 0.12117 0.0
C249 C 0.58471 0.54755 0.15302 0.0
C250 C 0.46033 0.44981 1.02231 0.0
C251 C 0.61652 0.69011 0.13375 0.0
C252 C 0.57705 0.71484 0.97486 0.0
C253 C 0.5058 0.7209 0.9751 0.0
C254 C 0.59041 0.66842 1.00875 0.0
C255 C 0.53122 0.62693 1.04407 0.0
C256 C 0.46335 0.63912 1.04711 0.0
C257 C 0.45218 0.68671 1.01301 0.0
C258 C 0.66446 0.65833 1.00436 0.0
C259 C 0.39933 0.59596 0.08438 0.0
H260 H 0.4883 0.36893 0.09233 0.0
H261 H 0.61604 0.57223 0.18597 0.0
H262 H 0.40929 0.4625 1.01827 0.0
H263 H 0.50272 0.47952 0.99257 0.0
H264 H 0.43541 0.38272 1.02003 0.0
H265 H 0.64575 0.7041 0.16886 0.0
H266 H 0.66336 0.72802 0.10741 0.0
H267 H 0.5693 0.7086 0.1333 0.0
H268 H 0.61767 0.7384 0.94497 0.0
H269 H 0.39619 0.6886 1.0126 0.0
H270 H 0.64491 0.59442 0.99411 0.0
H271 H 0.69635 0.67002 1.03852 0.0
H272 H 0.7083 0.70003 0.97775 0.0
H273 H 0.37311 0.52884 0.08135 0.0
H274 H 0.34883 0.60904 0.08196 0.0
H275 H 0.42722 0.61447 0.11964 0.0
C276 C 0.85366 0.26699 0.47244 0.0
C277 C 0.77371 0.25419 0.47376 0.0
C278 C 0.91174 0.31378 0.50695 0.0
C279 C 0.88887 0.34628 0.54502 0.0
C280 C 0.80573 0.32461 0.54974 0.0
C281 C 0.74933 0.2793 0.5139 0.0
C282 C -0.00077 0.3342 0.50046 0.0
C283 C 0.7762 0.35174 0.59149 0.0
C284 C 0.03087 0.42198 0.65034 0.0
C285 C 0.075 0.50758 0.64428 0.0
C286 C 0.9698 0.36971 0.61909 0.0
C287 C 0.95199 0.40271 0.57963 0.0
C288 C -0.00634 0.48925 0.57385 0.0
C289 C 0.05457 0.54093 0.6064 0.0
C290 C 0.92492 0.27872 0.62813 0.0
C291 C 0.97394 0.52685 0.53303 0.0
H292 H 0.87378 0.2496 0.4411 0.0
H293 H 0.68858 0.27143 0.51483 0.0
H294 H 0.03828 0.40084 0.49424 0.0
H295 H 0.02211 0.31943 0.5326 0.0
H296 H 0.00646 0.30075 0.47048 0.0
H297 H 0.74041 0.29838 0.61461 0.0
H298 H 0.82585 0.40041 0.61267 0.0
H299 H 0.73568 0.37477 0.57991 0.0
H300 H 0.04478 0.39489 0.67975 0.0
H301 H 0.08768 0.60657 0.60137 0.0
H302 H 0.93876 0.24701 0.59993 0.0
H303 H 0.85797 0.25452 0.62768 0.0
H304 H 0.94181 0.26313 0.66225 0.0
H305 H 0.98398 0.50284 0.4997 0.0
H306 H 0.0117 0.59462 0.53293 0.0
H307 H 0.90842 0.5093 0.53427 0.0
C308 C 0.65712 0.9761 0.3415 0.0
C309 C 0.65197 0.01038 0.29915 0.0
C310 C 0.65702 0.90193 0.34214 0.0
C311 C 0.64927 0.86041 0.29948 0.0
C312 C 0.64293 0.89438 0.25666 0.0
C313 C 0.64564 0.96986 0.25696 0.0
C314 C 0.66585 0.86835 0.38834 0.0
C315 C 0.63261 0.85076 0.21066 0.0
C316 C 0.72018 0.70539 0.29372 0.0
C317 C 0.64684 0.63236 0.30102 0.0
C318 C 0.72207 0.78042 0.29374 0.0
C319 C 0.64829 0.78158 0.29971 0.0
C320 C 0.57375 0.70759 0.30632 0.0
C321 C 0.57416 0.63364 0.30766 0.0
C322 C 0.80297 0.85832 0.28787 0.0
C323 C 0.49365 0.70649 0.31149 0.0
H324 H 0.6626 0.00805 0.37408 0.0
H325 H 0.6408 -0.00374 0.22429 0.0
H326 H 0.61127 0.80774 0.39491 0.0
H327 H 0.71953 0.85932 0.3872 0.0
H328 H 0.67345 0.90941 0.41818 0.0
H329 H 0.6226 0.88262 0.18096 0.0
H330 H 0.68785 0.84626 0.20325 0.0
H331 H 0.57997 0.78753 0.21264 0.0
H332 H 0.77637 0.70387 0.28891 0.0
H333 H 0.51744 0.57662 0.31275 0.0
H334 H 0.81355 0.90025 0.31769 0.0
H335 H 0.80206 0.89028 0.25556 0.0
H336 H 0.8551 0.84679 0.28576 0.0
H337 H 0.49553 0.7421 0.34286 0.0
H338 H 0.44087 0.64344 0.3148 0.0
H339 H 0.48347 0.73605 0.28072 0.0
C340 C 0.93195 0.59405 0.78146 0.0
C341 C 0.00124 0.65714 0.80292 0.0
C342 C 0.85809 0.59455 0.7816 0.0
C343 C 0.85432 0.65962 0.804 0.0
C344 C 0.9247 0.72342 0.82587 0.0
C345 C -0.00218 0.72145 0.82494 0.0
C346 C 0.78439 0.52591 0.7576 0.0
C347 C 0.92271 0.79349 0.85021 0.0
C348 C 0.68431 0.69829 0.76703 0.0
C349 C 0.62607 0.65764 0.80221 0.0
C350 C 0.75938 0.70022 0.7675 0.0
C351 C 0.7767 0.66101 0.80416 0.0
C352 C 0.71917 0.62146 0.84034 0.0
C353 C 0.64439 0.62003 0.83887 0.0
C354 C 0.81978 0.74342 0.72849 0.0
C355 C 0.73635 0.58021 0.88043 0.0
H356 H 0.93578 0.54461 0.76448 0.0
H357 H 0.05232 0.76996 0.84143 0.0
H358 H 0.7334 0.49502 0.7829 0.0
H359 H 0.76318 0.55096 0.72927 0.0
H360 H 0.79756 0.47959 0.74226 0.0
H361 H 0.98287 0.83805 0.86554 0.0
H362 H 0.90437 0.82618 0.82514 0.0
H363 H 0.87644 0.76975 0.87856 0.0
H364 H 0.6712 0.72811 0.73873 0.0
H365 H 0.6004 0.58932 0.86659 0.0
H366 H 0.83319 0.69969 0.71001 0.0
H367 H 0.8783 0.79247 0.7431 0.0
H368 H 0.79686 0.77096 0.70256 0.0
H369 H 0.74516 0.53004 0.86687 0.0
H370 H 0.68613 0.55442 0.90657 0.0
H371 H 0.79372 0.62452 0.89841 0.0
C372 C 0.27691 -0.00521 0.26567 0.0
C373 C 0.33567 0.01189 0.30053 0.0
C374 C 0.2018 0.92172 0.2661 0.0
C375 C 0.18499 0.86463 0.30235 0.0
C376 C 0.24326 0.88183 0.33804 0.0
C377 C 0.318 0.95526 0.33669 0.0
C378 C 0.14071 0.90525 0.22755 0.0
C379 C 0.22668 0.82267 0.37763 0.0
C380 C 0.96372 0.70585 0.32437 0.0
C381 C 0.95877 0.63786 0.30182 0.0
C382 C 0.03743 0.78041 0.32506 0.0
C383 C 0.10682 0.78616 0.30243 0.0
C384 C 0.10147 0.71705 0.27946 0.0
C385 C 0.02708 0.64325 0.27957 0.0
C386 C 0.04108 0.85279 0.34998 0.0
C387 C 0.17406 0.72121 0.25464 0.0
H388 H 0.28955 0.03818 0.23771 0.0
H389 H 0.3624 0.96814 0.36415 0.0
H390 H 0.12686 0.84839 0.20858 0.0
H391 H 0.08249 0.89566 0.24266 0.0
H392 H 0.16324 0.95614 0.20194 0.0
H393 H 0.27886 0.84496 0.40239 0.0
H394 H 0.17178 0.81251 0.39733 0.0
H395 H 0.21369 0.76257 0.36347 0.0
H396 H 0.90997 0.7005 0.34145 0.0
H397 H 0.02206 0.58974 0.26222 0.0
H398 H 0.05944 0.90412 0.32514 0.0
H399 H 0.08801 0.87455 0.378 0.0
H400 H 0.98151 0.83786 0.36583 0.0
H401 H 0.19515 0.76778 0.2265 0.0
H402 H 0.15967 0.6616 0.2389 0.0
H403 H 0.22558 0.74039 0.27951 0.0
C404 C 0.25033 0.26942 0.77853 0.0
C405 C 0.311 0.3378 0.80242 0.0
C406 C 0.25014 0.19515 0.77865 0.0
C407 C 0.31261 0.18973 0.80279 0.0
C408 C 0.37422 0.25859 0.8268 0.0
C409 C 0.37241 0.33181 0.82654 0.0
C410 C 0.18306 0.12246 0.75307 0.0
C411 C 0.44244 0.25515 0.85234 0.0
C412 C 0.27415 0.98012 0.83753 0.0
C413 C 0.31305 0.96336 0.80118 0.0
C414 C 0.2733 0.05382 0.83849 0.0
C415 C 0.31372 0.11197 0.80262 0.0
C416 C 0.35477 0.09562 0.76639 0.0
C417 C 0.35342 0.02083 0.76598 0.0
C418 C 0.22898 0.06928 0.87766 0.0
C419 C 0.40001 0.15699 0.72817 0.0
H420 H 0.20237 0.27359 0.76014 0.0
H421 H 0.41993 0.38476 0.84469 0.0
H422 H 0.20981 0.10204 0.72521 0.0
H423 H 0.15032 0.07058 0.77761 0.0
H424 H 0.138 0.13643 0.73685 0.0
H425 H 0.48597 0.31446 0.869 0.0
H426 H 0.41677 0.20743 0.87983 0.0
H427 H 0.47674 0.238 0.82764 0.0
H428 H 0.24357 0.93505 0.8648 0.0
H429 H 0.38525 0.00786 0.73874 0.0
H430 H 0.18205 0.08195 0.86302 0.0
H431 H 0.27262 0.12404 0.89794 0.0
H432 H 0.19866 0.01659 0.90198 0.0
H433 H 0.35603 0.16562 0.70668 0.0
H434 H 0.43418 0.13739 0.70486 0.0
H435 H 0.4438 0.21729 0.74357 0.0
C436 C 0.30201 0.33083 0.25695 0.0
C437 C 0.33365 0.32192 0.29939 0.0
C438 C 0.23004 0.3349 0.25593 0.0
C439 C 0.18774 0.32722 0.2982 0.0
C440 C 0.21929 0.3176 0.34115 0.0
C441 C 0.29274 0.31625 0.34128 0.0
C442 C 0.19945 0.34756 0.20968 0.0
C443 C 0.17486 0.30751 0.38679 0.0
C444 C 0.03341 0.39913 0.30628 0.0
C445 C 0.96021 0.32594 0.29876 0.0
C446 C 0.10844 0.40095 0.30496 0.0
C447 C 0.10941 0.32727 0.29748 0.0
C448 C 0.03532 0.25312 0.29015 0.0
C449 C 0.96149 0.25364 0.29014 0.0
C450 C 0.18651 0.48157 0.31137 0.0
C451 C 0.03388 0.1731 0.28311 0.0
H452 H 0.33454 0.33637 0.22465 0.0
H453 H 0.31736 0.30906 0.37406 0.0
H454 H 0.14073 0.29228 0.20062 0.0
H455 H 0.18788 0.39955 0.2123 0.0
H456 H 0.2434 0.35991 0.18075 0.0
H457 H 0.20728 0.2997 0.41702 0.0
H458 H 0.16787 0.36159 0.39342 0.0
H459 H 0.11251 0.2534 0.38473 0.0
H460 H 0.03199 0.45516 0.31226 0.0
H461 H 0.90445 0.19709 0.28452 0.0
H462 H 0.22837 0.49253 0.28154 0.0
H463 H 0.21835 0.47983 0.34357 0.0
H464 H 0.17527 0.53385 0.31403 0.0
H465 H 0.06964 0.17652 0.25156 0.0
H466 H 0.97081 0.12065 0.27901 0.0
H467 H 0.06301 0.16106 0.31343 0.0
C468 C -0.01387 0.2851 0.83557 0.0
C469 C 0.00098 0.34465 0.8021 0.0
C470 C 0.91216 0.21083 0.83555 0.0
C471 C 0.8521 0.19712 0.80151 0.0
C472 C 0.86663 0.2584 0.76824 0.0
C473 C 0.94146 0.33175 0.7689 0.0
C474 C 0.89857 0.14694 0.87163 0.0
C475 C 0.80321 0.2466 0.73216 0.0
C476 C 0.69292 0.97835 0.77304 0.0
C477 C 0.6265 0.96829 0.79998 0.0
C478 C 0.76689 0.05273 0.7732 0.0
C479 C 0.7741 0.1185 0.80065 0.0
C480 C 0.7071 0.10906 0.82753 0.0
C481 C 0.63413 0.0339 0.82701 0.0
C482 C 0.83748 0.06084 0.74426 0.0
C483 C 0.71248 0.17829 0.85686 0.0
H484 H 0.0328 0.29637 0.86132 0.0
H485 H 0.95315 0.37946 0.74391 0.0
H486 H 0.84317 0.1313 0.89252 0.0
H487 H 0.88803 0.0901 0.85393 0.0
H488 H 0.95129 0.16774 0.89588 0.0
H489 H 0.82391 0.3009 0.70925 0.0
H490 H 0.78856 0.19271 0.70995 0.0
H491 H 0.7458 0.23422 0.74975 0.0
H492 H 0.68758 0.92779 0.75225 0.0
H493 H 0.58279 0.0269 0.84756 0.0
H494 H 0.89088 0.07705 0.76717 0.0
H495 H 0.85632 0.11102 0.71852 0.0
H496 H 0.82201 0.00364 0.72506 0.0
H497 H 0.76148 0.19718 0.88345 0.0
H498 H 0.65421 0.16125 0.87512 0.0
H499 H 0.72884 0.23224 0.83448 0.0
loop_
_geom_bond_atom_site_label_1
_geom_bond_atom_site_label_2
_geom_bond_distance
_geom_bond_site_symmetry_2
_ccdc_geom_bond_type
H0 O1 0.850 . S
O1 H0 0.850 . S
O1 Tb2 2.341 . S
O1 Tb3 2.341 . S
O1 Tb4 2.341 . S
Tb2 O1 2.341 . S
Tb2 O5 2.341 . S
Tb2 O6 2.341 . S
Tb2 O7 2.341 . S
Tb2 O22 2.344 . S
Tb2 O25 2.344 . S
Tb2 O38 2.344 . S
Tb2 O41 2.344 . S
Tb3 O1 2.341 . S
Tb3 O5 2.341 . S
Tb3 O8 2.341 . S
Tb3 O10 2.341 . S
Tb3 O26 2.344 . S
Tb3 O29 2.344 . S
Tb3 O34 2.344 . S
Tb3 O37 2.344 . S
Tb4 O1 2.341 . S
Tb4 O6 2.341 . S
Tb4 O9 2.341 . S
Tb4 O10 2.341 . S
Tb4 O30 2.344 . S
Tb4 O33 2.344 . S
Tb4 O43 2.344 . S
Tb4 O44 2.344 . S
O5 Tb2 2.341 . S
O5 Tb3 2.341 . S
O5 H11 0.850 . S
O5 Tb13 2.341 . S
O6 Tb2 2.341 . S
O6 Tb4 2.341 . S
O6 H12 0.850 . S
O6 Tb14 2.341 . S
O7 Tb2 2.341 . S
O7 Tb13 2.341 . S
O7 Tb14 2.341 . S
O7 H15 0.850 . S
O8 Tb3 2.341 . S
O8 Tb13 2.341 . S
O8 H16 0.850 . S
O8 Tb17 2.341 . S
O9 Tb4 2.341 . S
O9 Tb14 2.341 . S
O9 Tb17 2.341 . S
O9 H18 0.850 . S
O10 Tb3 2.341 . S
O10 Tb4 2.341 . S
O10 Tb17 2.341 . S
O10 H19 0.850 . S
H11 O5 0.850 . S
H12 O6 0.850 . S
Tb13 O5 2.341 . S
Tb13 O7 2.341 . S
Tb13 O8 2.341 . S
Tb13 O20 2.341 . S
Tb13 O31 2.344 . S
Tb13 O32 2.344 . S
Tb13 O42 2.344 . S
Tb13 O45 2.344 . S
Tb14 O6 2.341 . S
Tb14 O7 2.341 . S
Tb14 O9 2.341 . S
Tb14 O20 2.341 . S
Tb14 O27 2.344 . S
Tb14 O28 2.344 . S
Tb14 O35 2.344 . S
Tb14 O36 2.344 . S
H15 O7 0.850 . S
H16 O8 0.850 . S
Tb17 O8 2.341 . S
Tb17 O9 2.341 . S
Tb17 O10 2.341 . S
Tb17 O20 2.341 . S
Tb17 O23 2.344 . S
Tb17 O24 2.344 . S
Tb17 O39 2.344 . S
Tb17 O40 2.344 . S
H18 O9 0.850 . S
H19 O10 0.850 . S
O20 Tb13 2.341 . S
O20 Tb14 2.341 . S
O20 Tb17 2.341 . S
O20 H21 0.850 . S
H21 O20 0.850 . S
O22 Tb2 2.344 . S
O22 C46 1.272 . S
O23 Tb17 2.344 . S
O23 C47 1.272 . S
O24 Tb17 2.344 . S
O24 C48 1.272 . S
O25 Tb2 2.344 . S
O25 C49 1.272 . S
O26 Tb3 2.344 . S
O26 C50 1.272 . S
O27 Tb14 2.344 . S
O27 C51 1.272 . S
O28 Tb14 2.344 . S
O28 C52 1.272 . S
O29 Tb3 2.344 . S
O29 C53 1.272 . S
O30 Tb4 2.344 . S
O30 C54 1.272 . S
O31 Tb13 2.344 . S
O31 C55 1.272 . S
O32 Tb13 2.344 . S
O32 C56 1.272 . S
O33 Tb4 2.344 . S
O33 C57 1.272 . S
O34 Tb3 2.344 . S
O34 C46 1.272 . S
O35 Tb14 2.344 . S
O35 C47 1.272 . S
O36 Tb14 2.344 . S
O36 C49 1.272 . S
O37 Tb3 2.344 . S
O37 C48 1.272 . S
O38 Tb2 2.344 . S
O38 C56 1.272 . S
O39 Tb17 2.344 . S
O39 C57 1.272 . S
O40 Tb17 2.344 . S
O40 C55 1.272 . S
O41 Tb2 2.344 . S
O41 C54 1.272 . S
O42 Tb13 2.344 . S
O42 C53 1.272 . S
O43 Tb4 2.344 . S
O43 C52 1.272 . S
O44 Tb4 2.344 . S
O44 C50 1.272 . S
O45 Tb13 2.344 . S
O45 C51 1.272 . S
C46 O22 1.272 . S
C46 O34 1.272 . S
C47 O23 1.272 . S
C47 O35 1.272 . S
C48 O24 1.272 . S
C48 O37 1.272 . S
C49 O25 1.272 . S
C49 O36 1.272 . S
C50 O26 1.272 . S
C50 O44 1.272 . S
C51 O27 1.272 . S
C51 O45 1.272 . S
C52 O28 1.272 . S
C52 O43 1.272 . S
C53 O29 1.272 . S
C53 O42 1.272 . S
C54 O30 1.272 . S
C54 O41 1.272 . S
C55 O31 1.272 . S
C55 O40 1.272 . S
C56 O32 1.272 . S
C56 O38 1.272 . S
C57 O33 1.272 . S
C57 O39 1.272 . S
H58 O59 0.850 . S
O59 H58 0.850 . S
O59 Tb60 2.341 . S
O59 Tb61 2.341 . S
O59 Tb62 2.341 . S
Tb60 O59 2.341 . S
Tb60 O63 2.341 . S
Tb60 O64 2.341 . S
Tb60 O65 2.341 . S
Tb60 O80 2.344 . S
Tb60 O83 2.344 . S
Tb60 O96 2.344 . S
Tb60 O99 2.344 . S
Tb61 O59 2.341 . S
Tb61 O63 2.341 . S
Tb61 O66 2.341 . S
Tb61 O68 2.341 . S
Tb61 O84 2.344 . S
Tb61 O87 2.344 . S
Tb61 O92 2.344 . S
Tb61 O95 2.344 . S
Tb62 O59 2.341 . S
Tb62 O64 2.341 . S
Tb62 O67 2.341 . S
Tb62 O68 2.341 . S
Tb62 O88 2.344 . S
Tb62 O91 2.344 . S
Tb62 O101 2.344 . S
Tb62 O102 2.344 . S
O63 Tb60 2.341 . S
O63 Tb61 2.341 . S
O63 H69 0.850 . S
O63 Tb71 2.341 . S
O64 Tb60 2.341 . S
O64 Tb62 2.341 . S
O64 H70 0.850 . S
O64 Tb72 2.341 . S
O65 Tb60 2.341 . S
O65 Tb71 2.341 . S
O65 Tb72 2.341 . S
O65 H73 0.850 . S
O66 Tb61 2.341 . S
O66 Tb71 2.341 . S
O66 H74 0.850 . S
O66 Tb75 2.341 . S
O67 Tb62 2.341 . S
O67 Tb72 2.341 . S
O67 Tb75 2.341 . S
O67 H76 0.850 . S
O68 Tb61 2.341 . S
O68 Tb62 2.341 . S
O68 Tb75 2.341 . S
O68 H77 0.850 . S
H69 O63 0.850 . S
H70 O64 0.850 . S
Tb71 O63 2.341 . S
Tb71 O65 2.341 . S
Tb71 O66 2.341 . S
Tb71 O78 2.341 . S
Tb71 O89 2.344 . S
Tb71 O90 2.344 . S
Tb71 O100 2.344 . S
Tb71 O103 2.344 . S
Tb72 O64 2.341 . S
Tb72 O65 2.341 . S
Tb72 O67 2.341 . S
Tb72 O78 2.341 . S
Tb72 O85 2.344 . S
Tb72 O86 2.344 . S
Tb72 O93 2.344 . S
Tb72 O94 2.344 . S
H73 O65 0.850 . S
H74 O66 0.850 . S
Tb75 O66 2.341 . S
Tb75 O67 2.341 . S
Tb75 O68 2.341 . S
Tb75 O78 2.341 . S
Tb75 O81 2.344 . S
Tb75 O82 2.344 . S
Tb75 O97 2.344 . S
Tb75 O98 2.344 . S
H76 O67 0.850 . S
H77 O68 0.850 . S
O78 Tb71 2.341 . S
O78 Tb72 2.341 . S
O78 Tb75 2.341 . S
O78 H79 0.850 . S
H79 O78 0.850 . S
O80 Tb60 2.344 . S
O80 C104 1.272 . S
O81 Tb75 2.344 . S
O81 C105 1.272 . S
O82 Tb75 2.344 . S
O82 C106 1.272 . S
O83 Tb60 2.344 . S
O83 C107 1.272 . S
O84 Tb61 2.344 . S
O84 C108 1.272 . S
O85 Tb72 2.344 . S
O85 C109 1.272 . S
O86 Tb72 2.344 . S
O86 C110 1.272 . S
O87 Tb61 2.344 . S
O87 C111 1.272 . S
O88 Tb62 2.344 . S
O88 C112 1.272 . S
O89 Tb71 2.344 . S
O89 C113 1.272 . S
O90 Tb71 2.344 . S
O90 C114 1.272 . S
O91 Tb62 2.344 . S
O91 C115 1.272 . S
O92 Tb61 2.344 . S
O92 C104 1.272 . S
O93 Tb72 2.344 . S
O93 C105 1.272 . S
O94 Tb72 2.344 . S
O94 C107 1.272 . S
O95 Tb61 2.344 . S
O95 C106 1.272 . S
O96 Tb60 2.344 . S
O96 C114 1.272 . S
O97 Tb75 2.344 . S
O97 C115 1.272 . S
O98 Tb75 2.344 . S
O98 C113 1.272 . S
O99 Tb60 2.344 . S
O99 C112 1.272 . S
O100 Tb71 2.344 . S
O100 C111 1.272 . S
O101 Tb62 2.344 . S
O101 C110 1.272 . S
O102 Tb62 2.344 . S
O102 C108 1.272 . S
O103 Tb71 2.344 . S
O103 C109 1.272 . S
C104 O80 1.272 . S
C104 O92 1.272 . S
C105 O81 1.272 . S
C105 O93 1.272 . S
C106 O82 1.272 . S
C106 O95 1.272 . S
C107 O83 1.272 . S
C107 O94 1.272 . S
C108 O84 1.272 . S
C108 O102 1.272 . S
C109 O85 1.272 . S
C109 O103 1.272 . S
C110 O86 1.272 . S
C110 O101 1.272 . S
C111 O87 1.272 . S
C111 O100 1.272 . S
C112 O88 1.272 . S
C112 O99 1.272 . S
C113 O89 1.272 . S
C113 O98 1.272 . S
C114 O90 1.272 . S
C114 O96 1.272 . S
C115 O91 1.272 . S
C115 O97 1.272 . S
C116 C117 1.391 . S
C116 C118 1.394 . S
C116 H132 0.931 . S
C117 C116 1.391 . S
C117 C121 1.376 . S
C118 C116 1.394 . S
C118 C119 1.369 . S
C118 C122 1.531 . S
C119 C118 1.369 . S
C119 C120 1.410 . S
C119 C127 1.503 1_556 S
C120 C119 1.410 . S
C120 C121 1.392 . S
C120 C123 1.511 1_565 S
C121 C117 1.376 . S
C121 C120 1.392 . S
C121 H133 0.929 . S
C122 C118 1.531 . S
C122 H134 0.960 . S
C122 H135 0.962 1_556 S
C122 H136 0.960 . S
C123 C120 1.511 1_545 S
C123 H137 0.961 . S
C123 H138 0.961 . S
C123 H139 0.961 . S
C124 C125 1.370 . S
C124 C126 1.363 1_545 S
C124 H140 0.931 . S
C125 C124 1.370 . S
C125 C129 1.408 . S
C126 C124 1.363 1_565 S
C126 C127 1.370 . S
C126 C130 1.524 . S
C127 C119 1.503 1_554 S
C127 C126 1.370 . S
C127 C128 1.403 1_565 S
C128 C127 1.403 1_545 S
C128 C129 1.404 . S
C128 C131 1.539 1_554 S
C129 C125 1.408 . S
C129 C128 1.404 . S
C129 H141 0.930 . S
C130 C126 1.524 . S
C130 H142 0.956 . S
C130 H143 0.961 . S
C130 H144 0.961 . S
C131 C128 1.539 1_556 S
C131 H145 0.958 . S
C131 H146 0.961 . S
C131 H147 0.960 . S
H132 C116 0.931 . S
H133 C121 0.929 . S
H134 C122 0.960 . S
H135 C122 0.962 1_554 S
H136 C122 0.960 . S
H137 C123 0.961 . S
H138 C123 0.961 . S
H139 C123 0.961 . S
H140 C124 0.931 . S
H141 C129 0.930 . S
H142 C130 0.956 . S
H143 C130 0.961 . S
H144 C130 0.961 . S
H145 C131 0.958 . S
H146 C131 0.961 . S
H147 C131 0.960 . S
C148 C149 1.391 . S
C148 C150 1.394 . S
C148 H164 0.931 . S
C149 C148 1.391 . S
C149 C153 1.376 . S
C150 C148 1.394 . S
C150 C151 1.369 . S
C150 C154 1.531 . S
C151 C150 1.369 . S
C151 C152 1.410 . S
C151 C159 1.503 . S
C152 C151 1.410 . S
C152 C153 1.392 . S
C152 C155 1.511 . S
C153 C149 1.376 . S
C153 C152 1.392 . S
C153 H165 0.929 . S
C154 C150 1.531 . S
C154 H166 0.960 . S
C154 H167 0.962 . S
C154 H168 0.960 . S
C155 C152 1.511 . S
C155 H169 0.961 . S
C155 H170 0.961 . S
C155 H171 0.961 . S
C156 C157 1.370 . S
C156 C158 1.363 . S
C156 H172 0.931 . S
C157 C156 1.370 . S
C157 C161 1.408 . S
C158 C156 1.363 . S
C158 C159 1.370 . S
C158 C162 1.524 . S
C159 C151 1.503 . S
C159 C158 1.370 . S
C159 C160 1.403 . S
C160 C159 1.403 . S
C160 C161 1.404 . S
C160 C163 1.539 . S
C161 C157 1.408 . S
C161 C160 1.404 . S
C161 H173 0.930 . S
C162 C158 1.524 . S
C162 H174 0.956 . S
C162 H175 0.961 . S
C162 H176 0.961 . S
C163 C160 1.539 . S
C163 H177 0.958 . S
C163 H178 0.961 . S
C163 H179 0.960 . S
H164 C148 0.931 . S
H165 C153 0.929 . S
H166 C154 0.960 . S
H167 C154 0.962 . S
H168 C154 0.960 . S
H169 C155 0.961 . S
H170 C155 0.961 . S
H171 C155 0.961 . S
H172 C156 0.931 . S
H173 C161 0.930 . S
H174 C162 0.956 . S
H175 C162 0.961 . S
H176 C162 0.961 . S
H177 C163 0.958 . S
H178 C163 0.961 . S
H179 C163 0.960 . S
C180 C181 1.391 . S
C180 C182 1.394 . S
C180 H196 0.931 . S
C181 C180 1.391 . S
C181 C185 1.376 . S
C182 C180 1.394 . S
C182 C183 1.369 . S
C182 C186 1.531 . S
C183 C182 1.369 . S
C183 C184 1.410 1_655 S
C183 C191 1.503 1_654 S
C184 C183 1.410 1_455 S
C184 C185 1.392 1_455 S
C184 C187 1.511 . S
C185 C181 1.376 . S
C185 C184 1.392 1_655 S
C185 H197 0.929 . S
C186 C182 1.531 . S
C186 H198 0.960 1_554 S
C186 H199 0.962 . S
C186 H200 0.960 . S
C187 C184 1.511 . S
C187 H201 0.961 . S
C187 H202 0.963 . S
C187 H203 0.961 1_554 S
C188 C189 1.370 . S
C188 C190 1.363 . S
C188 H204 0.931 . S
C189 C188 1.370 . S
C189 C193 1.408 . S
C190 C188 1.363 . S
C190 C191 1.370 . S
C190 C194 1.524 1_556 S
C191 C183 1.503 1_456 S
C191 C190 1.370 . S
C191 C192 1.403 . S
C192 C191 1.403 . S
C192 C193 1.404 . S
C192 C195 1.539 1_455 S
C193 C189 1.408 . S
C193 C192 1.404 . S
C193 H205 0.930 . S
C194 C190 1.524 1_554 S
C194 H206 0.956 . S
C194 H207 0.961 . S
C194 H208 0.961 . S
C195 C192 1.539 1_655 S
C195 H209 0.958 . S
C195 H210 0.961 . S
C195 H211 0.960 . S
H196 C180 0.931 . S
H197 C185 0.929 . S
H198 C186 0.960 1_556 S
H199 C186 0.962 . S
H200 C186 0.960 . S
H201 C187 0.961 . S
H202 C187 0.963 . S
H203 C187 0.961 1_556 S
H204 C188 0.931 . S
H205 C193 0.930 . S
H206 C194 0.956 . S
H207 C194 0.961 . S
H208 C194 0.961 . S
H209 C195 0.958 . S
H210 C195 0.961 . S
H211 C195 0.960 . S
C212 C213 1.391 . S
C212 C214 1.394 . S
C212 H228 0.931 . S
C213 C212 1.391 . S
C213 C217 1.376 . S
C214 C212 1.394 . S
C214 C215 1.369 . S
C214 C218 1.531 . S
C215 C214 1.369 . S
C215 C216 1.410 1_565 S
C215 C223 1.503 1_565 S
C216 C215 1.410 1_545 S
C216 C217 1.392 1_545 S
C216 C219 1.511 . S
C217 C213 1.376 . S
C217 C216 1.392 1_565 S
C217 H229 0.929 . S
C218 C214 1.531 . S
C218 H230 0.960 . S
C218 H231 0.962 . S
C218 H232 0.960 . S
C219 C216 1.511 . S
C219 H233 0.961 . S
C219 H234 0.961 . S
C219 H235 0.961 . S
C220 C221 1.370 . S
C220 C222 1.363 . S
C220 H236 0.931 . S
C221 C220 1.370 . S
C221 C225 1.408 . S
C222 C220 1.363 . S
C222 C223 1.370 . S
C222 C226 1.524 . S
C223 C215 1.503 1_545 S
C223 C222 1.370 . S
C223 C224 1.403 . S
C224 C223 1.403 . S
C224 C225 1.404 . S
C224 C227 1.539 1_545 S
C225 C221 1.408 . S
C225 C224 1.404 . S
C225 H237 0.930 . S
C226 C222 1.524 . S
C226 H238 0.956 . S
C226 H239 0.961 . S
C226 H240 0.961 . S
C227 C224 1.539 1_565 S
C227 H241 0.958 . S
C227 H242 0.961 . S
C227 H243 0.960 . S
H228 C212 0.931 . S
H229 C217 0.929 . S
H230 C218 0.960 . S
H231 C218 0.962 . S
H232 C218 0.960 . S
H233 C219 0.961 . S
H234 C219 0.961 . S
H235 C219 0.961 . S
H236 C220 0.931 . S
H237 C225 0.930 . S
H238 C226 0.956 . S
H239 C226 0.961 . S
H240 C226 0.961 . S
H241 C227 0.958 . S
H242 C227 0.961 . S
H243 C227 0.960 . S
C244 C245 1.391 . S
C244 C246 1.394 . S
C244 H260 0.931 . S
C245 C244 1.391 . S
C245 C249 1.376 . S
C246 C244 1.394 . S
C246 C247 1.369 . S
C246 C250 1.531 1_554 S
C247 C246 1.369 . S
C247 C248 1.410 . S
C247 C255 1.503 1_554 S
C248 C247 1.410 . S
C248 C249 1.392 . S
C248 C251 1.511 . S
C249 C245 1.376 . S
C249 C248 1.392 . S
C249 H261 0.929 . S
C250 C246 1.531 1_556 S
C250 H262 0.960 . S
C250 H263 0.962 . S
C250 H264 0.960 . S
C251 C248 1.511 . S
C251 H265 0.961 . S
C251 H266 0.961 . S
C251 H267 0.961 . S
C252 C253 1.370 . S
C252 C254 1.363 . S
C252 H268 0.931 . S
C253 C252 1.370 . S
C253 C257 1.408 . S
C254 C252 1.363 . S
C254 C255 1.370 . S
C254 C258 1.524 1_556 S
C255 C247 1.503 1_556 S
C255 C254 1.370 . S
C255 C256 1.403 . S
C256 C255 1.403 . S
C256 C257 1.404 . S
C256 C259 1.539 . S
C257 C253 1.408 . S
C257 C256 1.404 . S
C257 H269 0.930 . S
C258 C254 1.524 1_554 S
C258 H270 0.956 1_554 S
C258 H271 0.961 . S
C258 H272 0.961 1_554 S
C259 C256 1.539 . S
C259 H273 0.958 . S
C259 H274 0.961 . S
C259 H275 0.960 . S
H260 C244 0.931 . S
H261 C249 0.929 . S
H262 C250 0.960 . S
H263 C250 0.962 . S
H264 C250 0.960 . S
H265 C251 0.961 . S
H266 C251 0.961 . S
H267 C251 0.961 . S
H268 C252 0.931 . S
H269 C257 0.930 . S
H270 C258 0.956 1_556 S
H271 C258 0.961 . S
H272 C258 0.961 1_556 S
H273 C259 0.958 . S
H274 C259 0.961 . S
H275 C259 0.960 . S
C276 C277 1.391 . S
C276 C278 1.394 . S
C276 H292 0.931 . S
C277 C276 1.391 . S
C277 C281 1.376 . S
C278 C276 1.394 . S
C278 C279 1.369 . S
C278 C282 1.531 1_655 S
C279 C278 1.369 . S
C279 C280 1.410 . S
C279 C287 1.503 . S
C280 C279 1.410 . S
C280 C281 1.392 . S
C280 C283 1.511 . S
C281 C277 1.376 . S
C281 C280 1.392 . S
C281 H293 0.929 . S
C282 C278 1.531 1_455 S
C282 H294 0.960 . S
C282 H295 0.962 . S
C282 H296 0.960 . S
C283 C280 1.511 . S
C283 H297 0.961 . S
C283 H298 0.961 . S
C283 H299 0.961 . S
C284 C285 1.370 . S
C284 C286 1.363 . S
C284 H300 0.931 . S
C285 C284 1.370 . S
C285 C289 1.408 . S
C286 C284 1.363 . S
C286 C287 1.370 1_455 S
C286 C290 1.524 1_455 S
C287 C279 1.503 . S
C287 C286 1.370 1_655 S
C287 C288 1.403 1_655 S
C288 C287 1.403 1_455 S
C288 C289 1.404 . S
C288 C291 1.539 1_455 S
C289 C285 1.408 . S
C289 C288 1.404 . S
C289 H301 0.930 . S
C290 C286 1.524 1_655 S
C290 H302 0.956 1_655 S
C290 H303 0.961 . S
C290 H304 0.961 1_655 S
C291 C288 1.539 1_655 S
C291 H305 0.958 1_655 S
C291 H306 0.961 . S
C291 H307 0.960 . S
H292 C276 0.931 . S
H293 C281 0.929 . S
H294 C282 0.960 . S
H295 C282 0.962 . S
H296 C282 0.960 . S
H297 C283 0.961 . S
H298 C283 0.961 . S
H299 C283 0.961 . S
H300 C284 0.931 . S
H301 C289 0.930 . S
H302 C290 0.956 1_455 S
H303 C290 0.961 . S
H304 C290 0.961 1_455 S
H305 C291 0.958 1_455 S
H306 C291 0.961 . S
H307 C291 0.960 . S
C308 C309 1.391 1_565 S
C308 C310 1.394 . S
C308 H324 0.931 1_565 S
C309 C308 1.391 1_545 S
C309 C313 1.376 1_545 S
C310 C308 1.394 . S
C310 C311 1.369 . S
C310 C314 1.531 . S
C311 C310 1.369 . S
C311 C312 1.410 . S
C311 C319 1.503 . S
C312 C311 1.410 . S
C312 C313 1.392 . S
C312 C315 1.511 . S
C313 C309 1.376 1_565 S
C313 C312 1.392 . S
C313 H325 0.929 1_565 S
C314 C310 1.531 . S
C314 H326 0.960 . S
C314 H327 0.962 . S
C314 H328 0.960 . S
C315 C312 1.511 . S
C315 H329 0.961 . S
C315 H330 0.961 . S
C315 H331 0.961 . S
C316 C317 1.370 . S
C316 C318 1.363 . S
C316 H332 0.931 . S
C317 C316 1.370 . S
C317 C321 1.408 . S
C318 C316 1.363 . S
C318 C319 1.370 . S
C318 C322 1.524 . S
C319 C311 1.503 . S
C319 C318 1.370 . S
C319 C320 1.403 . S
C320 C319 1.403 . S
C320 C321 1.404 . S
C320 C323 1.539 . S
C321 C317 1.408 . S
C321 C320 1.404 . S
C321 H333 0.930 . S
C322 C318 1.524 . S
C322 H334 0.956 . S
C322 H335 0.961 . S
C322 H336 0.961 . S
C323 C320 1.539 . S
C323 H337 0.958 . S
C323 H338 0.961 . S
C323 H339 0.960 . S
H324 C308 0.931 1_545 S
H325 C313 0.929 1_545 S
H326 C314 0.960 . S
H327 C314 0.962 . S
H328 C314 0.960 . S
H329 C315 0.961 . S
H330 C315 0.961 . S
H331 C315 0.961 . S
H332 C316 0.931 . S
H333 C321 0.930 . S
H334 C322 0.956 . S
H335 C322 0.961 . S
H336 C322 0.961 . S
H337 C323 0.958 . S
H338 C323 0.961 . S
H339 C323 0.960 . S
C340 C341 1.391 1_655 S
C340 C342 1.394 . S
C340 H356 0.931 . S
C341 C340 1.391 1_455 S
C341 C345 1.376 . S
C342 C340 1.394 . S
C342 C343 1.369 . S
C342 C346 1.531 . S
C343 C342 1.369 . S
C343 C344 1.410 . S
C343 C351 1.503 . S
C344 C343 1.410 . S
C344 C345 1.392 1_655 S
C344 C347 1.511 . S
C345 C341 1.376 . S
C345 C344 1.392 1_455 S
C345 H357 0.929 . S
C346 C342 1.531 . S
C346 H358 0.960 . S
C346 H359 0.962 . S
C346 H360 0.960 . S
C347 C344 1.511 . S
C347 H361 0.961 . S
C347 H362 0.961 . S
C347 H363 0.961 . S
C348 C349 1.370 . S
C348 C350 1.363 . S
C348 H364 0.931 . S
C349 C348 1.370 . S
C349 C353 1.408 . S
C350 C348 1.363 . S
C350 C351 1.370 . S
C350 C354 1.524 . S
C351 C343 1.503 . S
C351 C350 1.370 . S
C351 C352 1.403 . S
C352 C351 1.403 . S
C352 C353 1.404 . S
C352 C355 1.539 . S
C353 C349 1.408 . S
C353 C352 1.404 . S
C353 H365 0.930 . S
C354 C350 1.524 . S
C354 H366 0.956 . S
C354 H367 0.961 . S
C354 H368 0.961 . S
C355 C352 1.539 . S
C355 H369 0.958 . S
C355 H370 0.961 . S
C355 H371 0.960 . S
H356 C340 0.931 . S
H357 C345 0.929 . S
H358 C346 0.960 . S
H359 C346 0.962 . S
H360 C346 0.960 . S
H361 C347 0.961 . S
H362 C347 0.961 . S
H363 C347 0.961 . S
H364 C348 0.931 . S
H365 C353 0.930 . S
H366 C354 0.956 . S
H367 C354 0.961 . S
H368 C354 0.961 . S
H369 C355 0.958 . S
H370 C355 0.961 . S
H371 C355 0.960 . S
C372 C373 1.392 1_565 S
C372 C374 1.394 . S
C372 H388 0.931 1_565 S
C373 C372 1.392 1_545 S
C373 C377 1.374 1_545 S
C374 C372 1.394 . S
C374 C375 1.369 . S
C374 C378 1.531 . S
C375 C374 1.369 . S
C375 C376 1.410 . S
C375 C383 1.503 . S
C376 C375 1.410 . S
C376 C377 1.392 . S
C376 C379 1.511 . S
C377 C373 1.374 1_565 S
C377 C376 1.392 . S
C377 H389 0.929 . S
C378 C374 1.531 . S
C378 H390 0.960 . S
C378 H391 0.962 . S
C378 H392 0.960 . S
C379 C376 1.511 . S
C379 H393 0.961 . S
C379 H394 0.961 . S
C379 H395 0.961 . S
C380 C381 1.370 . S
C380 C382 1.363 1_655 S
C380 H396 0.931 . S
C381 C380 1.370 . S
C381 C385 1.408 1_655 S
C382 C380 1.363 1_455 S
C382 C383 1.370 . S
C382 C386 1.524 . S
C383 C375 1.503 . S
C383 C382 1.370 . S
C383 C384 1.403 . S
C384 C383 1.403 . S
C384 C385 1.404 . S
C384 C387 1.539 . S
C385 C381 1.408 1_455 S
C385 C384 1.404 . S
C385 H397 0.930 . S
C386 C382 1.524 . S
C386 H398 0.956 . S
C386 H399 0.961 . S
C386 H400 0.961 . S
C387 C384 1.539 . S
C387 H401 0.958 . S
C387 H402 0.961 . S
C387 H403 0.960 . S
H388 C372 0.931 1_545 S
H389 C377 0.929 . S
H390 C378 0.960 . S
H391 C378 0.962 . S
H392 C378 0.960 . S
H393 C379 0.961 . S
H394 C379 0.961 . S
H395 C379 0.961 . S
H396 C380 0.931 . S
H397 C385 0.930 . S
H398 C386 0.956 . S
H399 C386 0.961 . S
H400 C386 0.961 . S
H401 C387 0.958 . S
H402 C387 0.961 . S
H403 C387 0.960 . S
C404 C405 1.391 . S
C404 C406 1.394 . S
C404 H420 0.931 . S
C405 C404 1.391 . S
C405 C409 1.376 . S
C406 C404 1.394 . S
C406 C407 1.369 . S
C406 C410 1.531 . S
C407 C406 1.369 . S
C407 C408 1.410 . S
C407 C415 1.503 . S
C408 C407 1.410 . S
C408 C409 1.392 . S
C408 C411 1.511 . S
C409 C405 1.376 . S
C409 C408 1.392 . S
C409 H421 0.929 . S
C410 C406 1.531 . S
C410 H422 0.960 . S
C410 H423 0.962 . S
C410 H424 0.960 . S
C411 C408 1.511 . S
C411 H425 0.961 . S
C411 H426 0.961 . S
C411 H427 0.961 . S
C412 C413 1.370 1_545 S
C412 C414 1.363 . S
C412 H428 0.931 1_545 S
C413 C412 1.370 1_565 S
C413 C417 1.408 1_565 S
C414 C412 1.363 . S
C414 C415 1.370 . S
C414 C418 1.524 . S
C415 C407 1.503 . S
C415 C414 1.370 . S
C415 C416 1.403 . S
C416 C415 1.403 . S
C416 C417 1.404 . S
C416 C419 1.539 . S
C417 C413 1.408 1_545 S
C417 C416 1.404 . S
C417 H429 0.930 . S
C418 C414 1.524 . S
C418 H430 0.956 . S
C418 H431 0.961 . S
C418 H432 0.961 . S
C419 C416 1.539 . S
C419 H433 0.958 . S
C419 H434 0.961 . S
C419 H435 0.960 . S
H420 C404 0.931 . S
H421 C409 0.929 . S
H422 C410 0.960 . S
H423 C410 0.962 . S
H424 C410 0.960 . S
H425 C411 0.961 . S
H426 C411 0.961 . S
H427 C411 0.961 . S
H428 C412 0.931 1_565 S
H429 C417 0.930 . S
H430 C418 0.956 . S
H431 C418 0.961 . S
H432 C418 0.961 . S
H433 C419 0.958 . S
H434 C419 0.961 . S
H435 C419 0.960 . S
C436 C437 1.391 . S
C436 C438 1.394 . S
C436 H452 0.931 . S
C437 C436 1.391 . S
C437 C441 1.376 . S
C438 C436 1.394 . S
C438 C439 1.369 . S
C438 C442 1.531 . S
C439 C438 1.369 . S
C439 C440 1.410 . S
C439 C447 1.503 . S
C440 C439 1.410 . S
C440 C441 1.392 . S
C440 C443 1.511 . S
C441 C437 1.376 . S
C441 C440 1.392 . S
C441 H453 0.929 . S
C442 C438 1.531 . S
C442 H454 0.960 . S
C442 H455 0.962 . S
C442 H456 0.960 . S
C443 C440 1.511 . S
C443 H457 0.961 . S
C443 H458 0.961 . S
C443 H459 0.961 . S
C444 C445 1.370 1_455 S
C444 C446 1.363 . S
C444 H460 0.931 . S
C445 C444 1.370 1_655 S
C445 C449 1.408 . S
C446 C444 1.363 . S
C446 C447 1.370 . S
C446 C450 1.524 . S
C447 C439 1.503 . S
C447 C446 1.370 . S
C447 C448 1.403 . S
C448 C447 1.403 . S
C448 C449 1.404 1_455 S
C448 C451 1.539 . S
C449 C445 1.408 . S
C449 C448 1.404 1_655 S
C449 H461 0.930 . S
C450 C446 1.524 . S
C450 H462 0.956 . S
C450 H463 0.961 . S
C450 H464 0.961 . S
C451 C448 1.539 . S
C451 H465 0.958 . S
C451 H466 0.961 1_455 S
C451 H467 0.960 . S
H452 C436 0.931 . S
H453 C441 0.929 . S
H454 C442 0.960 . S
H455 C442 0.962 . S
H456 C442 0.960 . S
H457 C443 0.961 . S
H458 C443 0.961 . S
H459 C443 0.961 . S
H460 C444 0.931 . S
H461 C449 0.930 . S
H462 C450 0.956 . S
H463 C450 0.961 . S
H464 C450 0.961 . S
H465 C451 0.958 . S
H466 C451 0.961 1_655 S
H467 C451 0.960 . S
C468 C469 1.393 1_655 S
C468 C470 1.394 . S
C468 H484 0.931 1_655 S
C469 C468 1.393 1_455 S
C469 C473 1.370 1_455 S
C470 C468 1.394 . S
C470 C471 1.369 . S
C470 C474 1.531 . S
C471 C470 1.369 . S
C471 C472 1.410 . S
C471 C479 1.503 . S
C472 C471 1.410 . S
C472 C473 1.392 . S
C472 C475 1.511 . S
C473 C469 1.370 1_655 S
C473 C472 1.392 . S
C473 H485 0.929 . S
C474 C470 1.531 . S
C474 H486 0.960 . S
C474 H487 0.962 . S
C474 H488 0.960 . S
C475 C472 1.511 . S
C475 H489 0.961 . S
C475 H490 0.961 . S
C475 H491 0.961 . S
C476 C477 1.370 . S
C476 C478 1.363 1_565 S
C476 H492 0.931 . S
C477 C476 1.370 . S
C477 C481 1.408 1_565 S
C478 C476 1.363 1_545 S
C478 C479 1.370 . S
C478 C482 1.524 . S
C479 C471 1.503 . S
C479 C478 1.370 . S
C479 C480 1.403 . S
C480 C479 1.403 . S
C480 C481 1.404 . S
C480 C483 1.539 . S
C481 C477 1.408 1_545 S
C481 C480 1.404 . S
C481 H493 0.928 . S
C482 C478 1.524 . S
C482 H494 0.956 . S
C482 H495 0.961 . S
C482 H496 0.961 . S
C483 C480 1.539 . S
C483 H497 0.958 . S
C483 H498 0.961 . S
C483 H499 0.960 . S
H484 C468 0.931 1_455 S
H485 C473 0.929 . S
H486 C474 0.960 . S
H487 C474 0.962 . S
H488 C474 0.960 . S
H489 C475 0.961 . S
H490 C475 0.961 . S
H491 C475 0.961 . S
H492 C476 0.931 . S
H493 C481 0.928 . S
H494 C482 0.956 . S
H495 C482 0.961 . S
H496 C482 0.961 . S
H497 C483 0.958 . S
H498 C483 0.961 . S
H499 C483 0.960 . S
C117 C107 1.783 . S
C125 C54 1.949 . S
C149 C106 1.957 . S
C157 C55 1.802 . S
C181 C52 1.950 . S
C189 C114 1.805 . S
C213 C115 1.930 . S
C221 C53 1.827 . S
C245 C49 1.956 . S
C253 C109 1.804 . S
C277 C48 1.777 . S
C285 C108 1.952 . S
C309 C50 1.098 . S
C317 C51 1.130 . S
C341 C112 1.121 . S
C349 C113 1.120 . S
C373 C46 1.137 . S
C381 C47 1.114 . S
C405 C111 1.110 . S
C413 C110 1.127 . S
C437 C56 1.139 . S
C445 C57 1.114 . S
C469 C104 1.139 . S
C477 C105 1.114 . S
