# Generated by pormake.
# Topology fcj, (5)-cn, num edge types: 1
# Building blocks:
#     Node 0, Type 0, BuildingBlock: XOMCOT_clean_sbu_1, # of connection points: 5
#     Node 1, Type 0, BuildingBlock: XOMCOT_clean_sbu_1, # of connection points: 5
#     Node 2, Type 0, BuildingBlock: XOMCOT_clean_sbu_1, # of connection points: 5
#     Node 3, Type 0, BuildingBlock: XOMCOT_clean_sbu_1, # of connection points: 5
#     Node 4, Type 0, BuildingBlock: XOMCOT_clean_sbu_1, # of connection points: 5
#     Node 5, Type 0, BuildingBlock: XOMCOT_clean_sbu_1, # of connection points: 5
#     Node 6, Type 0, BuildingBlock: XOMCOT_clean_sbu_1, # of connection points: 5
#     Node 7, Type 0, BuildingBlock: XOMCOT_clean_sbu_1, # of connection points: 5
#     Node 8, Type 0, BuildingBlock: XOMCOT_clean_sbu_1, # of connection points: 5
#     Node 9, Type 0, BuildingBlock: XOMCOT_clean_sbu_1, # of connection points: 5
#     Node 10, Type 0, BuildingBlock: XOMCOT_clean_sbu_1, # of connection points: 5
#     Node 11, Type 0, BuildingBlock: XOMCOT_clean_sbu_1, # of connection points: 5
#     Node 12, Type 0, BuildingBlock: XOMCOT_clean_sbu_1, # of connection points: 5
#     Node 13, Type 0, BuildingBlock: XOMCOT_clean_sbu_1, # of connection points: 5
#     Node 14, Type 0, BuildingBlock: XOMCOT_clean_sbu_1, # of connection points: 5
#     Node 15, Type 0, BuildingBlock: XOMCOT_clean_sbu_1, # of connection points: 5
#     Node 16, Type 0, BuildingBlock: XOMCOT_clean_sbu_1, # of connection points: 5
#     Node 17, Type 0, BuildingBlock: XOMCOT_clean_sbu_1, # of connection points: 5
#     Node 18, Type 0, BuildingBlock: XOMCOT_clean_sbu_1, # of connection points: 5
#     Node 19, Type 0, BuildingBlock: XOMCOT_clean_sbu_1, # of connection points: 5
#     Node 20, Type 0, BuildingBlock: XOMCOT_clean_sbu_1, # of connection points: 5
#     Node 21, Type 0, BuildingBlock: XOMCOT_clean_sbu_1, # of connection points: 5
#     Node 22, Type 0, BuildingBlock: XOMCOT_clean_sbu_1, # of connection points: 5
#     Node 23, Type 0, BuildingBlock: XOMCOT_clean_sbu_1, # of connection points: 5
#     Edge 24, Type (0, 0), BuildingBlock: XIVTED_clean_linker_0, # of connection points: 2
#     Edge 25, Type (0, 0), BuildingBlock: XIVTED_clean_linker_0, # of connection points: 2
#     Edge 26, Type (0, 0), BuildingBlock: XIVTED_clean_linker_0, # of connection points: 2
#     Edge 27, Type (0, 0), BuildingBlock: XIVTED_clean_linker_0, # of connection points: 2
#     Edge 28, Type (0, 0), BuildingBlock: XIVTED_clean_linker_0, # of connection points: 2
#     Edge 29, Type (0, 0), BuildingBlock: XIVTED_clean_linker_0, # of connection points: 2
#     Edge 30, Type (0, 0), BuildingBlock: XIVTED_clean_linker_0, # of connection points: 2
#     Edge 31, Type (0, 0), BuildingBlock: XIVTED_clean_linker_0, # of connection points: 2
#     Edge 32, Type (0, 0), BuildingBlock: XIVTED_clean_linker_0, # of connection points: 2
#     Edge 33, Type (0, 0), BuildingBlock: XIVTED_clean_linker_0, # of connection points: 2
#     Edge 34, Type (0, 0), BuildingBlock: XIVTED_clean_linker_0, # of connection points: 2
#     Edge 35, Type (0, 0), BuildingBlock: XIVTED_clean_linker_0, # of connection points: 2
#     Edge 36, Type (0, 0), BuildingBlock: XIVTED_clean_linker_0, # of connection points: 2
#     Edge 37, Type (0, 0), BuildingBlock: XIVTED_clean_linker_0, # of connection points: 2
#     Edge 38, Type (0, 0), BuildingBlock: XIVTED_clean_linker_0, # of connection points: 2
#     Edge 39, Type (0, 0), BuildingBlock: XIVTED_clean_linker_0, # of connection points: 2
#     Edge 40, Type (0, 0), BuildingBlock: XIVTED_clean_linker_0, # of connection points: 2
#     Edge 41, Type (0, 0), BuildingBlock: XIVTED_clean_linker_0, # of connection points: 2
#     Edge 42, Type (0, 0), BuildingBlock: XIVTED_clean_linker_0, # of connection points: 2
#     Edge 43, Type (0, 0), BuildingBlock: XIVTED_clean_linker_0, # of connection points: 2
#     Edge 44, Type (0, 0), BuildingBlock: XIVTED_clean_linker_0, # of connection points: 2
#     Edge 45, Type (0, 0), BuildingBlock: XIVTED_clean_linker_0, # of connection points: 2
#     Edge 46, Type (0, 0), BuildingBlock: XIVTED_clean_linker_0, # of connection points: 2
#     Edge 47, Type (0, 0), BuildingBlock: XIVTED_clean_linker_0, # of connection points: 2
#     Edge 48, Type (0, 0), BuildingBlock: XIVTED_clean_linker_0, # of connection points: 2
#     Edge 49, Type (0, 0), BuildingBlock: XIVTED_clean_linker_0, # of connection points: 2
#     Edge 50, Type (0, 0), BuildingBlock: XIVTED_clean_linker_0, # of connection points: 2
#     Edge 51, Type (0, 0), BuildingBlock: XIVTED_clean_linker_0, # of connection points: 2
#     Edge 52, Type (0, 0), BuildingBlock: XIVTED_clean_linker_0, # of connection points: 2
#     Edge 53, Type (0, 0), BuildingBlock: XIVTED_clean_linker_0, # of connection points: 2
#     Edge 54, Type (0, 0), BuildingBlock: XIVTED_clean_linker_0, # of connection points: 2
#     Edge 55, Type (0, 0), BuildingBlock: XIVTED_clean_linker_0, # of connection points: 2
#     Edge 56, Type (0, 0), BuildingBlock: XIVTED_clean_linker_0, # of connection points: 2
#     Edge 57, Type (0, 0), BuildingBlock: XIVTED_clean_linker_0, # of connection points: 2
#     Edge 58, Type (0, 0), BuildingBlock: XIVTED_clean_linker_0, # of connection points: 2
#     Edge 59, Type (0, 0), BuildingBlock: XIVTED_clean_linker_0, # of connection points: 2
#     Edge 60, Type (0, 0), BuildingBlock: XIVTED_clean_linker_0, # of connection points: 2
#     Edge 61, Type (0, 0), BuildingBlock: XIVTED_clean_linker_0, # of connection points: 2
#     Edge 62, Type (0, 0), BuildingBlock: XIVTED_clean_linker_0, # of connection points: 2
#     Edge 63, Type (0, 0), BuildingBlock: XIVTED_clean_linker_0, # of connection points: 2
#     Edge 64, Type (0, 0), BuildingBlock: XIVTED_clean_linker_0, # of connection points: 2
#     Edge 65, Type (0, 0), BuildingBlock: XIVTED_clean_linker_0, # of connection points: 2
#     Edge 66, Type (0, 0), BuildingBlock: XIVTED_clean_linker_0, # of connection points: 2
#     Edge 67, Type (0, 0), BuildingBlock: XIVTED_clean_linker_0, # of connection points: 2
#     Edge 68, Type (0, 0), BuildingBlock: XIVTED_clean_linker_0, # of connection points: 2
#     Edge 69, Type (0, 0), BuildingBlock: XIVTED_clean_linker_0, # of connection points: 2
#     Edge 70, Type (0, 0), BuildingBlock: XIVTED_clean_linker_0, # of connection points: 2
#     Edge 71, Type (0, 0), BuildingBlock: XIVTED_clean_linker_0, # of connection points: 2
#     Edge 72, Type (0, 0), BuildingBlock: XIVTED_clean_linker_0, # of connection points: 2
#     Edge 73, Type (0, 0), BuildingBlock: XIVTED_clean_linker_0, # of connection points: 2
#     Edge 74, Type (0, 0), BuildingBlock: XIVTED_clean_linker_0, # of connection points: 2
#     Edge 75, Type (0, 0), BuildingBlock: XIVTED_clean_linker_0, # of connection points: 2
#     Edge 76, Type (0, 0), BuildingBlock: XIVTED_clean_linker_0, # of connection points: 2
#     Edge 77, Type (0, 0), BuildingBlock: XIVTED_clean_linker_0, # of connection points: 2
#     Edge 78, Type (0, 0), BuildingBlock: XIVTED_clean_linker_0, # of connection points: 2
#     Edge 79, Type (0, 0), BuildingBlock: XIVTED_clean_linker_0, # of connection points: 2
#     Edge 80, Type (0, 0), BuildingBlock: XIVTED_clean_linker_0, # of connection points: 2
#     Edge 81, Type (0, 0), BuildingBlock: XIVTED_clean_linker_0, # of connection points: 2
#     Edge 82, Type (0, 0), BuildingBlock: XIVTED_clean_linker_0, # of connection points: 2
#     Edge 83, Type (0, 0), BuildingBlock: XIVTED_clean_linker_0, # of connection points: 2
# Relax obj value: 0.372
# Max RMSD: 0.198
# Mean RMSD: 0.198
data_MOF--net-fcj--node1-XOMCOT_clean_sbu_1--edge1-XIVTED_clean_linker_0
_symmetry_space_group_name_H-M    P1
_symmetry_Int_Tables_number       1
_symmetry_cell_setting            triclinic
loop_
_symmetry_equiv_pos_as_xyz
'x, y, z'
_cell_length_a     50.787413
_cell_length_b     50.818892
_cell_length_c     50.817843
_cell_angle_alpha  90.003927
_cell_angle_beta   90.015168
_cell_angle_gamma 90.017881
loop_
_atom_site_label
_atom_site_type_symbol
_atom_site_fract_x
_atom_site_fract_y
_atom_site_fract_z
_atom_type_partial_charge
C0 C 0.08352 0.1918 0.41355 0.0
C1 C 0.06575 0.20444 0.42957 0.0
N2 N 0.0703 0.23055 0.42824 0.0
N3 N 0.09911 0.20978 0.40186 0.0
C4 C 0.09126 0.23307 0.41196 0.0
H5 H 0.08381 0.17098 0.40914 0.0
Co6 Co 0.12187 0.20171 0.37416 0.0
C7 C 0.11076 0.25949 0.35292 0.0
O8 O 0.0886 0.26821 0.36295 0.0
N9 N 0.14472 0.19342 0.34616 0.0
C10 C 0.16139 0.19263 0.30569 0.0
C11 C 0.13989 0.19915 0.32065 0.0
C12 C 0.16925 0.18298 0.34609 0.0
N13 N 0.17993 0.18258 0.32172 0.0
O14 O 0.15127 0.21294 0.39488 0.0
H15 H 0.12205 0.20824 0.3134 0.0
H16 H 0.17955 0.17662 0.36355 0.0
O17 O 0.11905 0.23649 0.35866 0.0
C18 C 0.15993 0.19429 0.40918 0.0
O19 O 0.14732 0.1717 0.40884 0.0
N20 N 0.09321 0.18908 0.35458 0.0
C21 C 0.05306 0.16614 0.32493 0.0
C22 C 0.05141 0.19255 0.33284 0.0
C23 C 0.07164 0.20361 0.34786 0.0
C24 C 0.09453 0.16307 0.34823 0.0
C25 C 0.07481 0.15125 0.33323 0.0
H26 H 0.06979 0.2237 0.35422 0.0
H27 H 0.11125 0.15152 0.35459 0.0
H28 H 0.10014 0.25163 0.40679 0.0
H29 H 0.04933 0.19522 0.43952 0.0
H30 H 0.1633 0.19531 0.28465 0.0
H31 H 0.0349 0.20474 0.32707 0.0
H32 H 0.07657 0.13061 0.32823 0.0
C33 C 0.54463 0.35082 0.17747 0.0
C34 C 0.52861 0.33217 0.18878 0.0
N35 N 0.51087 0.32433 0.17074 0.0
N36 N 0.53698 0.35507 0.15241 0.0
C37 C 0.51621 0.33871 0.14898 0.0
H38 H 0.56183 0.3593 0.18659 0.0
Co39 Co 0.5558 0.37479 0.12744 0.0
C40 C 0.50321 0.38919 0.10562 0.0
O41 O 0.49531 0.40134 0.12702 0.0
N42 N 0.57472 0.39461 0.10186 0.0
C43 C 0.59148 0.40706 0.06324 0.0
C44 C 0.58036 0.38674 0.07704 0.0
C45 C 0.58243 0.4202 0.10229 0.0
N46 N 0.59264 0.4282 0.07907 0.0
O47 O 0.54686 0.40657 0.14564 0.0
H48 H 0.57558 0.36781 0.06867 0.0
H49 H 0.57996 0.43316 0.11889 0.0
O50 O 0.5257 0.3782 0.10496 0.0
C51 C 0.5631 0.41288 0.16366 0.0
O52 O 0.58405 0.39818 0.1674 0.0
N53 N 0.56583 0.34332 0.111 0.0
C54 C 0.58718 0.30022 0.08466 0.0
C55 C 0.56054 0.30681 0.08159 0.0
C56 C 0.55018 0.32837 0.09501 0.0
C57 C 0.59132 0.33634 0.11548 0.0
C58 C 0.60248 0.31492 0.10237 0.0
H59 H 0.52985 0.33341 0.09163 0.0
H60 H 0.6033 0.34815 0.12854 0.0
H61 H 0.5059 0.33647 0.13053 0.0
H62 H 0.53114 0.32363 0.20813 0.0
H63 H 0.59679 0.40674 0.04261 0.0
H64 H 0.54801 0.29616 0.06802 0.0
H65 H 0.62301 0.31024 0.10572 0.0
C66 C 0.41328 0.80795 0.91855 0.0
C67 C 0.4318 0.79279 0.93125 0.0
N68 N 0.43397 0.76976 0.91834 0.0
N69 N 0.40351 0.79446 0.89789 0.0
C70 C 0.41645 0.77122 0.89838 0.0
H71 H 0.40869 0.82822 0.92303 0.0
Co72 Co 0.38178 0.80843 0.8717 0.0
C73 C 0.36766 0.75452 0.85294 0.0
O74 O 0.35027 0.75066 0.87167 0.0
N75 N 0.36014 0.8221 0.84498 0.0
C76 C 0.34367 0.82727 0.80475 0.0
C77 C 0.36533 0.81982 0.81899 0.0
C78 C 0.33514 0.83134 0.84595 0.0
N79 N 0.3246 0.83427 0.82171 0.0
O80 O 0.35117 0.79885 0.89152 0.0
H81 H 0.38319 0.81169 0.81077 0.0
H82 H 0.32421 0.8342 0.86396 0.0
O83 O 0.38123 0.77562 0.85244 0.0
C84 C 0.34519 0.81467 0.91 0.0
O85 O 0.35998 0.83547 0.91403 0.0
N86 N 0.41179 0.81959 0.85351 0.0
C87 C 0.45334 0.84155 0.82517 0.0
C88 C 0.45072 0.81412 0.82734 0.0
C89 C 0.42983 0.80349 0.84177 0.0
C90 C 0.41477 0.84619 0.85278 0.0
C91 C 0.43532 0.85761 0.83862 0.0
H92 H 0.42801 0.78236 0.84306 0.0
H93 H 0.40065 0.8586 0.86277 0.0
H94 H 0.41427 0.7562 0.8835 0.0
H95 H 0.44421 0.79911 0.94739 0.0
H96 H 0.34175 0.82658 0.78354 0.0
H97 H 0.46417 0.80097 0.81733 0.0
H98 H 0.43693 0.87885 0.83806 0.0
C99 C 0.96123 0.65389 0.68131 0.0
C100 C 0.97855 0.67213 0.6911 0.0
N101 N 0.99332 0.68118 0.67108 0.0
N102 N 0.96506 0.65107 0.65521 0.0
C103 C 0.98488 0.66797 0.64952 0.0
H104 H 0.94589 0.64432 0.69245 0.0
Co105 Co 0.94276 0.63057 0.6344 0.0
C106 C 0.97052 0.61834 0.58494 0.0
O107 O 0.94847 0.62243 0.57207 0.0
N108 N 0.91936 0.60918 0.61464 0.0
C109 C 0.88476 0.59109 0.59467 0.0
C110 C 0.89449 0.61354 0.60624 0.0
C111 C 0.92396 0.58372 0.6082 0.0
N112 N 0.90332 0.57222 0.59597 0.0
O113 O 0.95197 0.60025 0.65462 0.0
H114 H 0.8835 0.63148 0.60867 0.0
H115 H 0.94214 0.57372 0.61292 0.0
O116 O 0.97167 0.62197 0.60987 0.0
C117 C 0.93619 0.59331 0.67278 0.0
O118 O 0.91501 0.60746 0.67721 0.0
N119 N 0.93279 0.6612 0.61572 0.0
C120 C 0.91158 0.70461 0.5896 0.0
C121 C 0.93683 0.69539 0.58337 0.0
C122 C 0.94729 0.67401 0.59701 0.0
C123 C 0.90962 0.67181 0.62408 0.0
C124 C 0.8983 0.69313 0.6109 0.0
H125 H 0.96696 0.66787 0.59211 0.0
H126 H 0.89927 0.66284 0.64038 0.0
H127 H 0.99247 0.67117 0.62992 0.0
H128 H 0.97901 0.67942 0.71111 0.0
H129 H 0.86539 0.58897 0.58606 0.0
H130 H 0.94815 0.70399 0.56749 0.0
H131 H 0.87919 0.70027 0.61708 0.0
C132 C 0.58142 0.31584 0.59128 0.0
C133 C 0.56451 0.30372 0.57404 0.0
N134 N 0.57053 0.27792 0.57317 0.0
N135 N 0.59794 0.29782 0.60156 0.0
C136 C 0.59142 0.27506 0.58948 0.0
H137 H 0.58083 0.33631 0.5971 0.0
Co138 Co 0.62157 0.30604 0.62848 0.0
C139 C 0.61233 0.24752 0.64807 0.0
O140 O 0.59117 0.23871 0.63614 0.0
N141 N 0.6452 0.31462 0.65537 0.0
C142 C 0.66403 0.31555 0.69482 0.0
C143 C 0.64139 0.3099 0.68125 0.0
C144 C 0.67026 0.32345 0.65375 0.0
N145 N 0.68226 0.32387 0.67748 0.0
O146 O 0.65053 0.29582 0.60658 0.0
H147 H 0.62362 0.3017 0.68965 0.0
H148 H 0.68 0.32814 0.63542 0.0
O149 O 0.62049 0.27092 0.64382 0.0
C150 C 0.65557 0.31091 0.58722 0.0
O151 O 0.6401 0.33112 0.58269 0.0
N152 N 0.59329 0.31746 0.64938 0.0
C153 C 0.55309 0.33785 0.68062 0.0
C154 C 0.55271 0.31143 0.67271 0.0
C155 C 0.57283 0.3017 0.65678 0.0
C156 C 0.59348 0.34345 0.656 0.0
C157 C 0.5736 0.35406 0.67174 0.0
H158 H 0.57166 0.28166 0.65013 0.0
H159 H 0.60939 0.35592 0.64929 0.0
H160 H 0.60135 0.25662 0.59294 0.0
H161 H 0.54774 0.31284 0.56459 0.0
H162 H 0.66703 0.31306 0.71576 0.0
H163 H 0.5368 0.29847 0.67851 0.0
H164 H 0.57458 0.3746 0.67733 0.0
C165 C 0.44206 0.83724 0.3367 0.0
C166 C 0.45531 0.81942 0.32128 0.0
N167 N 0.4813 0.82465 0.32274 0.0
N168 N 0.45952 0.85352 0.34821 0.0
C169 C 0.48311 0.84611 0.33844 0.0
H170 H 0.4212 0.83703 0.34099 0.0
Co171 Co 0.45022 0.87633 0.37546 0.0
C172 C 0.50818 0.86793 0.39736 0.0
O173 O 0.51759 0.84614 0.38722 0.0
N174 N 0.44057 0.89925 0.40291 0.0
C175 C 0.43759 0.91638 0.4431 0.0
C176 C 0.44461 0.8946 0.4288 0.0
C177 C 0.43066 0.92394 0.4021 0.0
N178 N 0.42897 0.93489 0.42626 0.0
O179 O 0.46056 0.90572 0.35428 0.0
H180 H 0.45313 0.8768 0.43676 0.0
H181 H 0.42576 0.93425 0.38419 0.0
O182 O 0.48491 0.87551 0.39163 0.0
C183 C 0.44204 0.91353 0.33933 0.0
O184 O 0.41962 0.90059 0.33966 0.0
N185 N 0.43862 0.84743 0.39539 0.0
C186 C 0.41764 0.80621 0.42513 0.0
C187 C 0.44386 0.80545 0.41634 0.0
C188 C 0.45395 0.82624 0.40145 0.0
C189 C 0.41277 0.84793 0.40254 0.0
C190 C 0.40201 0.82781 0.4178 0.0
H191 H 0.47387 0.825 0.39436 0.0
H192 H 0.40056 0.8644 0.39681 0.0
H193 H 0.50138 0.85564 0.34348 0.0
H194 H 0.44659 0.80243 0.31184 0.0
H195 H 0.43916 0.91857 0.46423 0.0
H196 H 0.45647 0.78882 0.42061 0.0
H197 H 0.38175 0.82954 0.42414 0.0
C198 C 0.91859 0.68187 0.08966 0.0
C199 C 0.93555 0.69521 0.07341 0.0
N200 N 0.92908 0.72093 0.07381 0.0
N201 N 0.90162 0.69902 0.10063 0.0
C202 C 0.90779 0.72246 0.08977 0.0
H203 H 0.91966 0.66119 0.09459 0.0
Co204 Co 0.87862 0.68912 0.12747 0.0
C205 C 0.88578 0.74728 0.14872 0.0
O206 O 0.90705 0.75666 0.13749 0.0
N207 N 0.85558 0.67875 0.15443 0.0
C208 C 0.83944 0.67239 0.19464 0.0
C209 C 0.86036 0.68181 0.18045 0.0
C210 C 0.83128 0.66783 0.15335 0.0
N211 N 0.82121 0.66377 0.17755 0.0
O212 O 0.84928 0.69818 0.10575 0.0
H213 H 0.87788 0.69068 0.18868 0.0
H214 H 0.8211 0.66281 0.13535 0.0
O215 O 0.8781 0.72384 0.14381 0.0
C216 C 0.8441 0.67933 0.09006 0.0
O217 O 0.8594 0.65847 0.09059 0.0
N218 N 0.90754 0.67831 0.14784 0.0
C219 C 0.94798 0.6578 0.17868 0.0
C220 C 0.94741 0.68463 0.1723 0.0
C221 C 0.92718 0.69444 0.15651 0.0
C222 C 0.90846 0.65196 0.15279 0.0
C223 C 0.92846 0.64128 0.1683 0.0
H224 H 0.92755 0.71487 0.15117 0.0
H225 H 0.89321 0.63926 0.14505 0.0
H226 H 0.8974 0.74048 0.09398 0.0
H227 H 0.95277 0.68692 0.06401 0.0
H228 H 0.83744 0.67239 0.21585 0.0
H229 H 0.96256 0.6979 0.17933 0.0
H230 H 0.92823 0.62042 0.17269 0.0
C231 C 0.06228 0.16536 0.84041 0.0
C232 C 0.0497 0.18237 0.82359 0.0
N233 N 0.02393 0.176 0.82281 0.0
N234 N 0.04459 0.14849 0.85067 0.0
C235 C 0.02167 0.15466 0.83866 0.0
H236 H 0.08275 0.16637 0.84622 0.0
Co237 Co 0.05266 0.12544 0.87821 0.0
C238 C 0.99532 0.13845 0.89793 0.0
O239 O 0.98863 0.15968 0.88486 0.0
N240 N 0.06093 0.10229 0.906 0.0
C241 C 0.06251 0.0864 0.94673 0.0
C242 C 0.05723 0.10809 0.93168 0.0
C243 C 0.06851 0.07672 0.90607 0.0
N244 N 0.06935 0.06651 0.93063 0.0
O245 O 0.04127 0.09632 0.85705 0.0
H246 H 0.05015 0.12674 0.93909 0.0
H247 H 0.0722 0.06537 0.88851 0.0
O248 O 0.0179 0.12797 0.89442 0.0
C249 C 0.06018 0.08774 0.84301 0.0
O250 O 0.08303 0.09981 0.84443 0.0
N251 N 0.06564 0.15399 0.89808 0.0
C252 C 0.08834 0.19339 0.92885 0.0
C253 C 0.0618 0.19482 0.92145 0.0
C254 C 0.05093 0.17512 0.90571 0.0
C255 C 0.09182 0.15293 0.90398 0.0
C256 C 0.10359 0.17241 0.91944 0.0
H257 H 0.03083 0.1771 0.89959 0.0
H258 H 0.10349 0.13652 0.89707 0.0
H259 H 0.00347 0.14425 0.84211 0.0
H260 H 0.05853 0.1995 0.81452 0.0
H261 H 0.06095 0.08536 0.96794 0.0
H262 H 0.04957 0.21115 0.92765 0.0
H263 H 0.12421 0.17066 0.92459 0.0
C264 C 0.40974 0.08162 0.18675 0.0
C265 C 0.42566 0.0642 0.19996 0.0
N266 N 0.42452 0.06975 0.22587 0.0
N267 N 0.39829 0.098 0.20417 0.0
C268 C 0.4084 0.09089 0.22771 0.0
H269 H 0.40537 0.08129 0.16592 0.0
Co270 Co 0.37153 0.12143 0.19473 0.0
C271 C 0.3492 0.11249 0.25238 0.0
O272 O 0.35917 0.09037 0.26123 0.0
N273 N 0.34463 0.14495 0.18512 0.0
C274 C 0.30496 0.16337 0.18332 0.0
C275 C 0.31873 0.14111 0.18988 0.0
C276 C 0.34601 0.16966 0.17529 0.0
N277 N 0.32215 0.18138 0.1743 0.0
O278 O 0.39333 0.15056 0.20481 0.0
H279 H 0.31044 0.12356 0.19861 0.0
H280 H 0.36419 0.17943 0.17013 0.0
O281 O 0.35502 0.12069 0.22934 0.0
C282 C 0.40929 0.15635 0.18633 0.0
O283 O 0.40952 0.14127 0.16531 0.0
N284 N 0.35109 0.09299 0.18286 0.0
C285 C 0.32093 0.05282 0.16078 0.0
C286 C 0.32907 0.05141 0.18711 0.0
C287 C 0.34427 0.07172 0.19778 0.0
C288 C 0.34457 0.09394 0.15686 0.0
C289 C 0.32917 0.07427 0.14551 0.0
H290 H 0.35082 0.07011 0.21784 0.0
H291 H 0.35109 0.11033 0.14495 0.0
H292 H 0.40353 0.10052 0.24599 0.0
H293 H 0.43551 0.04739 0.19134 0.0
H294 H 0.28396 0.16625 0.18552 0.0
H295 H 0.32336 0.03502 0.19948 0.0
H296 H 0.32383 0.07578 0.12493 0.0
C297 C 0.65887 0.66895 0.94225 0.0
C298 C 0.67775 0.68048 0.95788 0.0
N299 N 0.68353 0.66379 0.97761 0.0
N300 N 0.65252 0.64516 0.95218 0.0
C301 C 0.66783 0.64265 0.97379 0.0
H302 H 0.65128 0.67698 0.9241 0.0
Co303 Co 0.63027 0.62058 0.93628 0.0
C304 C 0.61533 0.5999 0.98932 0.0
O305 O 0.59916 0.61944 0.9943 0.0
N306 N 0.60781 0.59536 0.92039 0.0
C307 C 0.59132 0.55657 0.9081 0.0
C308 C 0.61279 0.56927 0.91853 0.0
C309 C 0.58288 0.59781 0.91118 0.0
N310 N 0.57247 0.57457 0.90366 0.0
O311 O 0.60031 0.64132 0.94627 0.0
H312 H 0.6305 0.55969 0.92539 0.0
H313 H 0.57199 0.61598 0.91054 0.0
O314 O 0.62845 0.59955 0.96794 0.0
C315 C 0.59461 0.6575 0.92797 0.0
O316 O 0.60917 0.65728 0.90658 0.0
N317 N 0.65981 0.60197 0.92446 0.0
C318 C 0.69988 0.57311 0.90048 0.0
C319 C 0.69656 0.57254 0.92792 0.0
C320 C 0.67646 0.58725 0.93959 0.0
C321 C 0.66359 0.6039 0.89802 0.0
C322 C 0.68341 0.58954 0.88558 0.0
H323 H 0.67403 0.58623 0.96064 0.0
H324 H 0.65054 0.6161 0.88643 0.0
H325 H 0.66817 0.62529 0.98607 0.0
H326 H 0.6876 0.69898 0.95406 0.0
H327 H 0.58919 0.53554 0.90543 0.0
H328 H 0.70878 0.56015 0.94022 0.0
H329 H 0.68561 0.59111 0.86445 0.0
C330 C 0.09514 0.92473 0.68585 0.0
C331 C 0.07873 0.94205 0.69857 0.0
N332 N 0.07803 0.93563 0.72429 0.0
N333 N 0.10514 0.90755 0.70339 0.0
C334 C 0.09358 0.91407 0.72645 0.0
H335 H 0.10073 0.9256 0.66533 0.0
Co336 Co 0.13195 0.88376 0.69472 0.0
C337 C 0.15136 0.89219 0.75333 0.0
O338 O 0.14029 0.91398 0.76168 0.0
N339 N 0.15898 0.86003 0.68585 0.0
C340 C 0.19884 0.84194 0.68497 0.0
C341 C 0.18472 0.86402 0.6913 0.0
C342 C 0.15806 0.83532 0.67589 0.0
N343 N 0.18206 0.8238 0.67544 0.0
O344 O 0.10955 0.85489 0.70366 0.0
H345 H 0.19269 0.88158 0.7003 0.0
H346 H 0.14009 0.82546 0.67016 0.0
O347 O 0.14709 0.88396 0.72996 0.0
C348 C 0.09418 0.84953 0.68456 0.0
O349 O 0.09475 0.86489 0.66375 0.0
N350 N 0.15308 0.91189 0.68375 0.0
C351 C 0.18428 0.95123 0.6615 0.0
C352 C 0.17866 0.95127 0.68856 0.0
C353 C 0.16271 0.93158 0.69926 0.0
C354 C 0.15754 0.91201 0.65733 0.0
C355 C 0.17308 0.93144 0.64579 0.0
H356 H 0.15815 0.93235 0.71987 0.0
H357 H 0.149 0.89675 0.64518 0.0
H358 H 0.09691 0.90363 0.74463 0.0
H359 H 0.06977 0.9593 0.68986 0.0
H360 H 0.21983 0.83932 0.6876 0.0
H361 H 0.18675 0.96612 0.70151 0.0
H362 H 0.17612 0.93097 0.62471 0.0
C363 C 0.84573 0.33375 0.44786 0.0
C364 C 0.8253 0.31922 0.45796 0.0
N365 N 0.81894 0.32917 0.48168 0.0
N366 N 0.85231 0.3528 0.46509 0.0
C367 C 0.83576 0.3494 0.48566 0.0
H368 H 0.85417 0.33154 0.42847 0.0
Co369 Co 0.87537 0.37992 0.45682 0.0
C370 C 0.8943 0.39811 0.50783 0.0
O371 O 0.91754 0.38866 0.50159 0.0
N372 N 0.89847 0.40767 0.44824 0.0
C373 C 0.91652 0.44761 0.44797 0.0
C374 C 0.89484 0.43314 0.45506 0.0
C375 C 0.92241 0.40735 0.43659 0.0
N376 N 0.9339 0.43132 0.43644 0.0
O377 O 0.90458 0.35713 0.46463 0.0
H378 H 0.87781 0.44063 0.46539 0.0
H379 H 0.93186 0.38986 0.42921 0.0
O380 O 0.87465 0.39369 0.49273 0.0
C381 C 0.91356 0.34443 0.44499 0.0
O382 O 0.9022 0.34762 0.42197 0.0
N383 N 0.84671 0.40079 0.44704 0.0
C384 C 0.80554 0.43055 0.42619 0.0
C385 C 0.80745 0.42625 0.45344 0.0
C386 C 0.82819 0.41118 0.46351 0.0
C387 C 0.84482 0.40416 0.42055 0.0
C388 C 0.82448 0.41903 0.4097 0.0
H389 H 0.82922 0.40788 0.48445 0.0
H390 H 0.85935 0.39524 0.40779 0.0
H391 H 0.83466 0.36264 0.5023 0.0
H392 H 0.81511 0.30331 0.44809 0.0
H393 H 0.91938 0.46845 0.45131 0.0
H394 H 0.7933 0.43478 0.4669 0.0
H395 H 0.82351 0.42129 0.38853 0.0
C396 C 0.92604 0.39624 0.80317 0.0
C397 C 0.9411 0.41689 0.7941 0.0
N398 N 0.92943 0.42658 0.77241 0.0
N399 N 0.90495 0.39309 0.78732 0.0
C400 C 0.90758 0.412 0.76884 0.0
H401 H 0.92949 0.38529 0.82105 0.0
Co402 Co 0.87614 0.37154 0.79416 0.0
C403 C 0.86326 0.37333 0.73287 0.0
O404 O 0.88178 0.38454 0.71875 0.0
N405 N 0.84676 0.35014 0.80124 0.0
C406 C 0.80575 0.33462 0.80045 0.0
C407 C 0.82184 0.3551 0.79331 0.0
C408 C 0.84511 0.32661 0.81359 0.0
N409 N 0.82047 0.31664 0.81313 0.0
O410 O 0.89735 0.34102 0.78734 0.0
H411 H 0.81575 0.37216 0.78218 0.0
H412 H 0.86165 0.31643 0.82211 0.0
O413 O 0.86571 0.3713 0.75774 0.0
C414 C 0.9088 0.33065 0.80706 0.0
O415 O 0.90544 0.34124 0.83042 0.0
N416 N 0.85612 0.40136 0.8022 0.0
C417 C 0.82624 0.44327 0.82133 0.0
C418 C 0.82905 0.43919 0.79413 0.0
C419 C 0.84419 0.41813 0.78491 0.0
C420 C 0.85412 0.40533 0.82861 0.0
C421 C 0.83924 0.4261 0.83862 0.0
H422 H 0.84591 0.41524 0.76396 0.0
H423 H 0.86383 0.3919 0.84197 0.0
H424 H 0.89272 0.41665 0.75441 0.0
H425 H 0.95862 0.42485 0.80326 0.0
H426 H 0.7849 0.33301 0.79638 0.0
H427 H 0.81967 0.45216 0.78006 0.0
H428 H 0.83741 0.42824 0.85974 0.0
C429 C 0.33765 0.1726 0.5542 0.0
C430 C 0.31933 0.188 0.5416 0.0
N431 N 0.32286 0.1855 0.51544 0.0
N432 N 0.35259 0.16015 0.53618 0.0
C433 C 0.34376 0.16918 0.51279 0.0
H434 H 0.33879 0.16914 0.57517 0.0
Co435 Co 0.3757 0.13314 0.54557 0.0
C436 C 0.36665 0.10954 0.48826 0.0
O437 O 0.34527 0.1198 0.47802 0.0
N438 N 0.39888 0.10596 0.55558 0.0
C439 C 0.41464 0.06567 0.56258 0.0
C440 C 0.39384 0.07995 0.55293 0.0
C441 C 0.42315 0.10691 0.56663 0.0
N442 N 0.43303 0.08268 0.57102 0.0
O443 O 0.40487 0.15392 0.53423 0.0
H444 H 0.37612 0.07179 0.5444 0.0
H445 H 0.43335 0.1248 0.57186 0.0
O446 O 0.374 0.11609 0.51138 0.0
C447 C 0.41269 0.16892 0.55269 0.0
O448 O 0.39945 0.16899 0.57491 0.0
N449 N 0.34712 0.11355 0.55824 0.0
C450 C 0.3079 0.08241 0.58048 0.0
C451 C 0.30709 0.089 0.5537 0.0
C452 C 0.32673 0.10495 0.54302 0.0
C453 C 0.34742 0.10862 0.58461 0.0
C454 C 0.32804 0.09293 0.59615 0.0
H455 H 0.32547 0.11031 0.52259 0.0
H456 H 0.36328 0.1163 0.59657 0.0
H457 H 0.35191 0.16343 0.49411 0.0
H458 H 0.30319 0.19829 0.55096 0.0
H459 H 0.41632 0.04444 0.5631 0.0
H460 H 0.2914 0.08189 0.54113 0.0
H461 H 0.32931 0.0884 0.61694 0.0
C462 C 0.57307 0.60056 0.30704 0.0
C463 C 0.55958 0.58263 0.29205 0.0
N464 N 0.57564 0.57426 0.27274 0.0
N465 N 0.5976 0.60342 0.29742 0.0
C466 C 0.59854 0.58738 0.27618 0.0
H467 H 0.56599 0.60988 0.32482 0.0
Co468 Co 0.62209 0.62238 0.31656 0.0
C469 C 0.67045 0.62666 0.28562 0.0
O470 O 0.68329 0.62241 0.30766 0.0
N471 N 0.64568 0.64266 0.33738 0.0
C472 C 0.66525 0.66163 0.37174 0.0
C473 C 0.65232 0.63962 0.36299 0.0
C474 C 0.65488 0.66697 0.3312 0.0
N475 N 0.66669 0.67888 0.35178 0.0
O476 O 0.60402 0.65424 0.30729 0.0
H477 H 0.64665 0.62361 0.37558 0.0
H478 H 0.65131 0.67652 0.31249 0.0
O479 O 0.6452 0.62677 0.2855 0.0
C480 C 0.59155 0.6659 0.32561 0.0
O481 O 0.59125 0.6554 0.34925 0.0
N482 N 0.63865 0.5901 0.32635 0.0
C483 C 0.66716 0.54741 0.3459 0.0
C484 C 0.66782 0.55365 0.31905 0.0
C485 C 0.65299 0.57468 0.30957 0.0
C486 C 0.63405 0.58131 0.35128 0.0
C487 C 0.64877 0.56052 0.36183 0.0
H488 H 0.65398 0.57887 0.28884 0.0
H489 H 0.61984 0.59136 0.36351 0.0
H490 H 0.61606 0.58393 0.2646 0.0
H491 H 0.53994 0.57525 0.29584 0.0
H492 H 0.67194 0.66519 0.39165 0.0
H493 H 0.68029 0.54288 0.30553 0.0
H494 H 0.64662 0.55572 0.38247 0.0
C495 C 0.14803 0.819 0.04115 0.0
C496 C 0.16781 0.80789 0.02652 0.0
N497 N 0.17913 0.82699 0.01214 0.0
N498 N 0.1469 0.84502 0.03611 0.0
C499 C 0.1662 0.84939 0.0183 0.0
H500 H 0.1361 0.80896 0.05564 0.0
Co501 Co 0.1261 0.86746 0.05596 0.0
C502 C 0.11361 0.88851 0.00102 0.0
O503 O 0.11814 0.86737 0.98687 0.0
N504 N 0.10532 0.88926 0.07669 0.0
C505 C 0.08847 0.90968 0.11143 0.0
C506 C 0.1097 0.89571 0.10205 0.0
C507 C 0.08139 0.89935 0.07106 0.0
N508 N 0.0707 0.9119 0.09187 0.0
O509 O 0.09613 0.84551 0.04956 0.0
H510 H 0.12688 0.88998 0.11323 0.0
H511 H 0.07149 0.89651 0.05242 0.0
O512 O 0.11666 0.88811 0.02587 0.0
C513 C 0.08593 0.83353 0.06901 0.0
O514 O 0.09722 0.83531 0.09221 0.0
N515 N 0.15538 0.88903 0.06299 0.0
C516 C 0.19533 0.92183 0.08188 0.0
C517 C 0.17818 0.93034 0.06199 0.0
C518 C 0.15814 0.9139 0.05314 0.0
C519 C 0.17272 0.87974 0.08123 0.0
C520 C 0.19284 0.89586 0.09106 0.0
H521 H 0.14437 0.92191 0.03915 0.0
H522 H 0.17009 0.86016 0.08914 0.0
H523 H 0.17177 0.86873 0.01131 0.0
H524 H 0.1741 0.78754 0.0271 0.0
H525 H 0.08625 0.91753 0.1311 0.0
H526 H 0.17966 0.94995 0.05377 0.0
H527 H 0.20545 0.88841 0.10653 0.0
C528 C 0.18992 0.4137 0.08374 0.0
C529 C 0.20255 0.43009 0.06633 0.0
N530 N 0.2285 0.43 0.07195 0.0
N531 N 0.20778 0.40297 0.10014 0.0
C532 C 0.23091 0.41401 0.09313 0.0
H533 H 0.16926 0.40857 0.08341 0.0
Co534 Co 0.1998 0.37602 0.12365 0.0
C535 C 0.25808 0.35555 0.11392 0.0
O536 O 0.26721 0.36632 0.09229 0.0
N537 N 0.19153 0.34879 0.14719 0.0
C538 C 0.19078 0.30886 0.16509 0.0
C539 C 0.19724 0.32313 0.14313 0.0
C540 C 0.18116 0.3495 0.1717 0.0
N541 N 0.18079 0.32549 0.1831 0.0
O542 O 0.21051 0.39796 0.15246 0.0
H543 H 0.20636 0.31533 0.12556 0.0
H544 H 0.17488 0.3673 0.18148 0.0
O545 O 0.23478 0.36074 0.12175 0.0
C546 C 0.19167 0.41263 0.16005 0.0
O547 O 0.16929 0.41156 0.14707 0.0
N548 N 0.18761 0.35531 0.09559 0.0
C549 C 0.16487 0.32316 0.05719 0.0
C550 C 0.19179 0.32952 0.05627 0.0
C551 C 0.2027 0.34594 0.07546 0.0
C552 C 0.16126 0.35037 0.09622 0.0
C553 C 0.14949 0.33436 0.07726 0.0
H554 H 0.22322 0.35095 0.07407 0.0
H555 H 0.14939 0.35867 0.11182 0.0
H556 H 0.24931 0.40985 0.10288 0.0
H557 H 0.19354 0.43954 0.0495 0.0
H558 H 0.1935 0.2879 0.16769 0.0
H559 H 0.20455 0.32151 0.04122 0.0
H560 H 0.1285 0.33084 0.0784 0.0
C561 C 0.68458 0.08759 0.91834 0.0
C562 C 0.69858 0.07218 0.93558 0.0
N563 N 0.72437 0.07409 0.92958 0.0
N564 N 0.70136 0.09947 0.9016 0.0
C565 C 0.72531 0.09006 0.90827 0.0
H566 H 0.66367 0.09155 0.91923 0.0
Co567 Co 0.69099 0.1268 0.87919 0.0
C568 C 0.74866 0.14977 0.88665 0.0
O569 O 0.7589 0.13979 0.90815 0.0
N570 N 0.68054 0.15423 0.85683 0.0
C571 C 0.67848 0.19441 0.8397 0.0
C572 C 0.68464 0.18006 0.86167 0.0
C573 C 0.67154 0.15344 0.83177 0.0
N574 N 0.67046 0.17766 0.82082 0.0
O575 O 0.70114 0.10647 0.84916 0.0
H576 H 0.69295 0.18792 0.87962 0.0
H577 H 0.66734 0.13543 0.82124 0.0
O578 O 0.72537 0.14351 0.8796 0.0
C579 C 0.68733 0.08623 0.84388 0.0
O580 O 0.66813 0.07953 0.85984 0.0
N581 N 0.67979 0.14616 0.90864 0.0
C582 C 0.66051 0.17548 0.9508 0.0
C583 C 0.6868 0.16709 0.95033 0.0
C584 C 0.69597 0.15223 0.92919 0.0
C585 C 0.65384 0.15296 0.90934 0.0
C586 C 0.64381 0.16786 0.93015 0.0
H587 H 0.71593 0.14524 0.92965 0.0
H588 H 0.64097 0.14722 0.89337 0.0
H589 H 0.74325 0.09559 0.89837 0.0
H590 H 0.69056 0.0624 0.95271 0.0
H591 H 0.68054 0.2155 0.83751 0.0
H592 H 0.70014 0.17173 0.96631 0.0
H593 H 0.62335 0.17383 0.92975 0.0
C594 C 0.68026 0.95375 0.64824 0.0
C595 C 0.6938 0.96755 0.66711 0.0
N596 N 0.67839 0.98738 0.67553 0.0
N597 N 0.65635 0.96467 0.64483 0.0
C598 C 0.65589 0.98547 0.66144 0.0
H599 H 0.68674 0.93583 0.63876 0.0
Co600 Co 0.63088 0.94734 0.62535 0.0
C601 C 0.58418 0.98084 0.62172 0.0
O602 O 0.57035 0.95951 0.62643 0.0
N603 N 0.60573 0.92861 0.60465 0.0
C604 C 0.57627 0.90048 0.58805 0.0
C605 C 0.591 0.90693 0.6098 0.0
C606 C 0.59955 0.93461 0.57938 0.0
N607 N 0.58186 0.91786 0.56903 0.0
O608 O 0.64988 0.95613 0.59375 0.0
H609 H 0.59076 0.8959 0.62784 0.0
H610 H 0.6079 0.95094 0.56857 0.0
O611 O 0.60943 0.9798 0.62143 0.0
C612 C 0.6616 0.93719 0.58226 0.0
O613 O 0.66013 0.9135 0.59254 0.0
N614 N 0.61403 0.93769 0.65736 0.0
C615 C 0.58751 0.91819 0.70136 0.0
C616 C 0.58691 0.9451 0.69532 0.0
C617 C 0.6007 0.95453 0.67357 0.0
C618 C 0.61823 0.91241 0.66533 0.0
C619 C 0.60454 0.90196 0.68684 0.0
H620 H 0.59989 0.97532 0.66963 0.0
H621 H 0.63083 0.89974 0.65375 0.0
H622 H 0.63881 0.99773 0.66468 0.0
H623 H 0.71291 0.96252 0.6751 0.0
H624 H 0.56324 0.88374 0.58599 0.0
H625 H 0.57541 0.95875 0.70697 0.0
H626 H 0.6063 0.88118 0.69114 0.0
C627 C 0.81481 0.90774 0.41867 0.0
C628 C 0.80203 0.92473 0.43534 0.0
N629 N 0.77656 0.92627 0.428 0.0
N630 N 0.79754 0.8981 0.401 0.0
C631 C 0.77474 0.91073 0.40638 0.0
H632 H 0.83501 0.90127 0.42052 0.0
Co633 Co 0.80611 0.87006 0.37852 0.0
C634 C 0.74722 0.85265 0.38736 0.0
O635 O 0.73967 0.86587 0.40819 0.0
N636 N 0.81485 0.84195 0.35609 0.0
C637 C 0.81498 0.80146 0.33949 0.0
C638 C 0.80917 0.81646 0.36112 0.0
C639 C 0.82434 0.84185 0.33119 0.0
N640 N 0.82433 0.81745 0.32058 0.0
O641 O 0.79815 0.89151 0.34859 0.0
H642 H 0.80024 0.80929 0.37906 0.0
H643 H 0.82989 0.85937 0.3205 0.0
O644 O 0.77058 0.85527 0.37845 0.0
C645 C 0.81763 0.90641 0.34324 0.0
O646 O 0.8382 0.90574 0.35893 0.0
N647 N 0.81602 0.84989 0.40792 0.0
C648 C 0.83585 0.82217 0.45098 0.0
C649 C 0.80944 0.83023 0.45032 0.0
C650 C 0.79998 0.84428 0.4287 0.0
C651 C 0.8419 0.84284 0.40849 0.0
C652 C 0.85218 0.82875 0.42971 0.0
H653 H 0.78008 0.8513 0.42921 0.0
H654 H 0.85465 0.8482 0.3923 0.0
H655 H 0.75688 0.90795 0.39521 0.0
H656 H 0.81041 0.93329 0.45296 0.0
H657 H 0.81199 0.78045 0.33765 0.0
H658 H 0.79633 0.82628 0.46665 0.0
H659 H 0.87268 0.82291 0.4293 0.0
C660 C 0.82505 0.04043 0.14772 0.0
C661 C 0.81454 0.02319 0.16565 0.0
N662 N 0.83426 0.00878 0.17591 0.0
N663 N 0.85132 0.03694 0.14638 0.0
C664 C 0.85637 0.01734 0.1637 0.0
H665 H 0.81434 0.05551 0.1372 0.0
Co666 Co 0.87236 0.05971 0.12682 0.0
C667 C 0.92118 0.03212 0.11184 0.0
O668 O 0.93415 0.05422 0.11528 0.0
N669 N 0.89211 0.08398 0.10638 0.0
C670 C 0.90918 0.12076 0.08965 0.0
C671 C 0.89801 0.10942 0.11151 0.0
C672 C 0.89952 0.08064 0.08094 0.0
N673 N 0.91013 0.10259 0.07046 0.0
O674 O 0.85166 0.05193 0.09612 0.0
H675 H 0.89353 0.11987 0.12937 0.0
H676 H 0.89636 0.06262 0.07002 0.0
O677 O 0.89651 0.03079 0.11702 0.0
C678 C 0.83732 0.07014 0.08662 0.0
O679 O 0.83649 0.09303 0.09862 0.0
N680 N 0.89182 0.06796 0.15773 0.0
C681 C 0.92155 0.0864 0.20018 0.0
C682 C 0.92598 0.06128 0.18971 0.0
C683 C 0.91074 0.05231 0.16877 0.0
C684 C 0.88484 0.09077 0.17001 0.0
C685 C 0.89985 0.10076 0.19088 0.0
H686 H 0.91458 0.03278 0.1616 0.0
H687 H 0.86829 0.10198 0.16267 0.0
H688 H 0.87586 0.00998 0.16791 0.0
H689 H 0.79416 0.02252 0.17186 0.0
H690 H 0.91571 0.14096 0.08789 0.0
H691 H 0.94144 0.04874 0.19733 0.0
H692 H 0.89514 0.11996 0.19879 0.0
C693 C 0.3134 0.58729 0.58337 0.0
C694 C 0.29983 0.5715 0.56614 0.0
N695 N 0.2739 0.57399 0.57114 0.0
N696 N 0.29622 0.59996 0.59911 0.0
C697 C 0.27235 0.59079 0.59176 0.0
H698 H 0.33445 0.59058 0.58344 0.0
Co699 Co 0.30717 0.62631 0.62237 0.0
C700 C 0.25128 0.65201 0.61208 0.0
O701 O 0.24237 0.6419 0.59004 0.0
N702 N 0.31851 0.65246 0.64565 0.0
C703 C 0.32635 0.69184 0.66296 0.0
C704 C 0.31637 0.67866 0.64164 0.0
C705 C 0.32954 0.6502 0.66977 0.0
N706 N 0.33455 0.67393 0.68064 0.0
O707 O 0.29496 0.60595 0.6517 0.0
H708 H 0.30776 0.68765 0.62437 0.0
H709 H 0.33381 0.6316 0.67921 0.0
O710 O 0.27375 0.64516 0.62109 0.0
C711 C 0.30831 0.58541 0.65701 0.0
O712 O 0.32799 0.57887 0.64158 0.0
N713 N 0.32064 0.64565 0.59372 0.0
C714 C 0.34316 0.6754 0.55328 0.0
C715 C 0.31691 0.66682 0.55169 0.0
C716 C 0.30606 0.65197 0.57209 0.0
C717 C 0.34664 0.65222 0.59484 0.0
C718 C 0.35816 0.66752 0.57514 0.0
H719 H 0.28612 0.64514 0.57018 0.0
H720 H 0.35837 0.64617 0.61156 0.0
H721 H 0.2541 0.59675 0.60083 0.0
H722 H 0.3083 0.56075 0.54982 0.0
H723 H 0.32682 0.71297 0.66565 0.0
H724 H 0.30479 0.67132 0.53476 0.0
H725 H 0.37847 0.67355 0.57745 0.0
C726 C 0.16725 0.56102 0.33832 0.0
C727 C 0.18241 0.54987 0.31877 0.0
N728 N 0.18081 0.5235 0.32098 0.0
N729 N 0.15598 0.5418 0.35272 0.0
C730 C 0.16542 0.51928 0.34226 0.0
H731 H 0.16275 0.58172 0.34036 0.0
Co732 Co 0.12744 0.54687 0.37549 0.0
C733 C 0.10962 0.48642 0.36893 0.0
O734 O 0.12248 0.47146 0.35225 0.0
N735 N 0.09849 0.55231 0.39802 0.0
C736 C 0.0576 0.55049 0.41367 0.0
C737 C 0.07343 0.54528 0.39243 0.0
C738 C 0.09716 0.56252 0.42262 0.0
N739 N 0.07257 0.56127 0.43263 0.0
O740 O 0.14896 0.53765 0.40492 0.0
H741 H 0.06713 0.53604 0.37433 0.0
H742 H 0.11387 0.57005 0.43342 0.0
O743 O 0.11638 0.51046 0.37178 0.0
C744 C 0.16113 0.55769 0.41373 0.0
O745 O 0.15829 0.58022 0.40134 0.0
N746 N 0.10711 0.55763 0.3469 0.0
C747 C 0.07597 0.57955 0.30738 0.0
C748 C 0.08243 0.55263 0.307 0.0
C749 C 0.09833 0.54207 0.32684 0.0
C750 C 0.10194 0.58388 0.34709 0.0
C751 C 0.08646 0.59527 0.32754 0.0
H752 H 0.10333 0.52144 0.32613 0.0
H753 H 0.10975 0.596 0.36276 0.0
H754 H 0.16004 0.50003 0.34911 0.0
H755 H 0.19164 0.56032 0.30266 0.0
H756 H 0.03673 0.5464 0.41521 0.0
H757 H 0.07487 0.53969 0.29186 0.0
H758 H 0.08281 0.61624 0.32829 0.0
C759 C 0.3247 0.44574 0.84736 0.0
C760 C 0.31013 0.45695 0.82752 0.0
N761 N 0.32178 0.47969 0.82046 0.0
N762 N 0.34548 0.46128 0.85283 0.0
C763 C 0.34307 0.48198 0.83626 0.0
H764 H 0.3212 0.4267 0.85615 0.0
Co765 Co 0.37297 0.45109 0.87472 0.0
C766 C 0.39308 0.50429 0.88774 0.0
O767 O 0.3799 0.50489 0.90995 0.0
N768 N 0.40108 0.44073 0.89668 0.0
C769 C 0.44209 0.43532 0.91121 0.0
C770 C 0.42681 0.44436 0.89088 0.0
C771 C 0.40134 0.42954 0.92088 0.0
N772 N 0.42603 0.4261 0.9301 0.0
O773 O 0.35293 0.46188 0.90474 0.0
H774 H 0.43411 0.45348 0.87311 0.0
H775 H 0.38399 0.42394 0.93174 0.0
O776 O 0.38999 0.48512 0.87184 0.0
C777 C 0.33928 0.44344 0.91476 0.0
O778 O 0.34003 0.42006 0.90372 0.0
N779 N 0.39132 0.4386 0.84537 0.0
C780 C 0.42101 0.41514 0.80559 0.0
C781 C 0.41751 0.44255 0.80632 0.0
C782 C 0.40233 0.4539 0.82622 0.0
C783 C 0.39336 0.41192 0.84431 0.0
C784 C 0.40813 0.39975 0.82461 0.0
H785 H 0.39995 0.47498 0.8264 0.0
H786 H 0.38395 0.40008 0.85929 0.0
H787 H 0.35759 0.49745 0.83442 0.0
H788 H 0.29292 0.44847 0.81824 0.0
H789 H 0.46336 0.43624 0.91237 0.0
H790 H 0.42703 0.45531 0.79217 0.0
H791 H 0.40959 0.3785 0.82448 0.0
H792 H 0.2889 0.22695 0.51525 0.0
H793 H 0.19395 0.15422 0.41721 0.0
H794 H 0.31199 0.15861 0.47056 0.0
H795 H 0.1852 0.23764 0.43021 0.0
H796 H 0.23648 0.15555 0.43918 0.0
H797 H 0.25059 0.23223 0.48616 0.0
C798 C 0.28619 0.21334 0.49909 0.0
C799 C 0.3036 0.1921 0.49559 0.0
C800 C 0.22541 0.17365 0.43713 0.0
C801 C 0.25977 0.19784 0.46258 0.0
C802 C 0.20099 0.17286 0.4248 0.0
C803 C 0.18593 0.19582 0.42213 0.0
C804 C 0.23477 0.19746 0.44749 0.0
C805 C 0.19623 0.2195 0.43197 0.0
C806 C 0.26439 0.21641 0.48249 0.0
C807 C 0.29928 0.17524 0.47413 0.0
N808 N 0.21994 0.21968 0.44463 0.0
N809 N 0.2776 0.17819 0.45879 0.0
H810 H 0.54929 0.4621 0.14622 0.0
H811 H 0.55385 0.52827 0.28728 0.0
H812 H 0.5713 0.41878 0.21578 0.0
H813 H 0.58744 0.56896 0.22091 0.0
H814 H 0.54742 0.48929 0.25971 0.0
H815 H 0.55075 0.50319 0.17213 0.0
C816 C 0.55392 0.46124 0.16701 0.0
C817 C 0.56019 0.4372 0.17903 0.0
C818 C 0.55598 0.50684 0.25115 0.0
C819 C 0.5615 0.48351 0.20845 0.0
C820 C 0.55954 0.52904 0.26677 0.0
C821 C 0.57115 0.55175 0.25623 0.0
C822 C 0.56357 0.50749 0.22466 0.0
C823 C 0.57854 0.55169 0.22964 0.0
C824 C 0.55497 0.48458 0.18162 0.0
C825 C 0.56639 0.43701 0.20588 0.0
N826 N 0.57449 0.52985 0.2146 0.0
N827 N 0.56671 0.45981 0.21976 0.0
H828 H 0.33953 0.8203 0.96256 0.0
H829 H 0.18745 0.84424 0.96248 0.0
H830 H 0.29558 0.80389 0.89186 0.0
H831 H 0.22409 0.8035 0.02712 0.0
H832 H 0.22797 0.83783 0.93629 0.0
H833 H 0.29816 0.82166 0.9874 0.0
C834 C 0.32113 0.81667 0.95239 0.0
C835 C 0.32081 0.81176 0.92528 0.0
C836 C 0.22696 0.83024 0.95618 0.0
C837 C 0.27366 0.81436 0.95319 0.0
C838 C 0.20411 0.83408 0.97108 0.0
C839 C 0.20268 0.82432 0.99681 0.0
C840 C 0.24859 0.81729 0.96755 0.0
C841 C 0.22456 0.81114 0.00725 0.0
C842 C 0.29764 0.8175 0.9665 0.0
C843 C 0.29653 0.80743 0.91284 0.0
N844 N 0.24678 0.80828 0.9927 0.0
N845 N 0.27375 0.8093 0.92685 0.0
H846 H 0.94449 0.47314 0.79318 0.0
H847 H 0.95765 0.54709 0.65554 0.0
H848 H 0.92858 0.43369 0.71985 0.0
H849 H 0.92422 0.58436 0.72407 0.0
H850 H 0.96032 0.50548 0.68021 0.0
H851 H 0.95063 0.51461 0.76898 0.0
C852 C 0.94285 0.47319 0.77193 0.0
C853 C 0.93602 0.45017 0.75836 0.0
C854 C 0.95272 0.52292 0.68983 0.0
C855 C 0.94318 0.49705 0.73076 0.0
C856 C 0.95132 0.54658 0.67589 0.0
C857 C 0.94059 0.569 0.68786 0.0
C858 C 0.94399 0.52203 0.71602 0.0
C859 C 0.93244 0.56738 0.71416 0.0
C860 C 0.94616 0.49675 0.75822 0.0
C861 C 0.93372 0.45117 0.73088 0.0
N862 N 0.93439 0.54428 0.72744 0.0
N863 N 0.93735 0.47427 0.7179 0.0
H864 H 0.77122 0.31468 0.46315 0.0
H865 H 0.70425 0.29412 0.60357 0.0
H866 H 0.81407 0.32936 0.53491 0.0
H867 H 0.66194 0.32193 0.53545 0.0
H868 H 0.74542 0.29577 0.57793 0.0
H869 H 0.7316 0.30595 0.48898 0.0
C870 C 0.77237 0.31569 0.48439 0.0
C871 C 0.79594 0.32273 0.49695 0.0
C872 C 0.72702 0.30119 0.56863 0.0
C873 C 0.75068 0.31271 0.5266 0.0
C874 C 0.70358 0.30003 0.5831 0.0
C875 C 0.67977 0.30792 0.57151 0.0
C876 C 0.72635 0.30966 0.54233 0.0
C877 C 0.67993 0.31577 0.54508 0.0
C878 C 0.74973 0.31087 0.49909 0.0
C879 C 0.7962 0.32416 0.52454 0.0
N880 N 0.70284 0.31636 0.53135 0.0
N881 N 0.77387 0.31912 0.53853 0.0
H882 H 0.40131 0.06351 0.27367 0.0
H883 H 0.48489 0.93718 0.31581 0.0
H884 H 0.46572 0.03544 0.22601 0.0
H885 H 0.40224 0.94803 0.33198 0.0
H886 H 0.48484 0.97911 0.29117 0.0
H887 H 0.40925 0.02789 0.30466 0.0
C888 C 0.41749 0.05027 0.26993 0.0
C889 C 0.43252 0.05228 0.24683 0.0
C890 C 0.46685 0.97227 0.30034 0.0
C891 C 0.44163 0.01119 0.28237 0.0
C892 C 0.46687 0.94848 0.31435 0.0
C893 C 0.44345 0.93905 0.32555 0.0
C894 C 0.44343 0.98687 0.29832 0.0
C895 C 0.42062 0.95439 0.32324 0.0
C896 C 0.42188 0.02976 0.28758 0.0
C897 C 0.4533 0.03431 0.24326 0.0
N898 N 0.4212 0.97753 0.30998 0.0
N899 N 0.45711 0.01432 0.2607 0.0
H900 H 0.8074 0.71875 0.08217 0.0
H901 H 0.71266 0.62441 0.99873 0.0
H902 H 0.82546 0.63841 0.0612 0.0
H903 H 0.70364 0.70882 0.99837 0.0
H904 H 0.75088 0.62905 0.02728 0.0
H905 H 0.76665 0.71558 0.05606 0.0
C906 C 0.80287 0.70054 0.07205 0.0
C907 C 0.81991 0.67885 0.07382 0.0
C908 C 0.74051 0.6466 0.02107 0.0
C909 C 0.77341 0.675 0.04443 0.0
C910 C 0.71848 0.64393 0.00496 0.0
C911 C 0.70491 0.66627 0.99611 0.0
C912 C 0.74908 0.67179 0.02859 0.0
C913 C 0.71373 0.69112 0.00452 0.0
C914 C 0.77966 0.69874 0.05721 0.0
C915 C 0.81304 0.65569 0.0604 0.0
N916 N 0.7353 0.69324 0.0203 0.0
N917 N 0.79035 0.65438 0.04642 0.0
H918 H 0.03806 0.97135 0.72246 0.0
H919 H 0.09793 0.05049 0.84082 0.0
H920 H 0.09728 0.93928 0.77416 0.0
H921 H 0.01917 0.0671 0.81388 0.0
H922 H 0.09766 0.00973 0.81562 0.0
H923 H 0.02952 0.00613 0.75483 0.0
C924 C 0.04901 0.97135 0.74073 0.0
C925 C 0.06886 0.95257 0.74525 0.0
C926 C 0.08028 0.02207 0.81535 0.0
C927 C 0.05928 0.9924 0.78223 0.0
C928 C 0.08049 0.04545 0.82959 0.0
C929 C 0.05862 0.06224 0.82919 0.0
C930 C 0.05826 0.01561 0.79996 0.0
C931 C 0.03642 0.05462 0.81461 0.0
C932 C 0.04403 0.99115 0.75923 0.0
C933 C 0.08202 0.95331 0.76954 0.0
N934 N 0.03696 0.032 0.80012 0.0
N935 N 0.07736 0.97315 0.78683 0.0
H936 H 0.41267 0.19485 0.22475 0.0
H937 H 0.49534 0.29153 0.13149 0.0
H938 H 0.43995 0.17513 0.14675 0.0
H939 H 0.48754 0.30514 0.21493 0.0
H940 H 0.46974 0.25126 0.13611 0.0
H941 H 0.43596 0.23723 0.22134 0.0
C942 C 0.42364 0.19932 0.20704 0.0
C943 C 0.42438 0.18134 0.18605 0.0
C944 C 0.47351 0.26308 0.15344 0.0
C945 C 0.45055 0.22978 0.18184 0.0
C946 C 0.48791 0.2863 0.15074 0.0
C947 C 0.49366 0.3018 0.17286 0.0
C948 C 0.46459 0.25522 0.17842 0.0
C949 C 0.4838 0.29363 0.19741 0.0
C950 C 0.43684 0.2235 0.20507 0.0
C951 C 0.43879 0.18825 0.16348 0.0
N952 N 0.46978 0.27088 0.19956 0.0
N953 N 0.45113 0.21187 0.16196 0.0
H954 H 0.57081 0.67983 0.88587 0.0
H955 H 0.45894 0.75601 0.96369 0.0
H956 H 0.56181 0.6698 0.96975 0.0
H957 H 0.45665 0.73994 0.88034 0.0
H958 H 0.49724 0.72666 0.96766 0.0
H959 H 0.53011 0.70462 0.8847 0.0
C960 C 0.56031 0.68294 0.90416 0.0
C961 C 0.56986 0.67282 0.92801 0.0
C962 C 0.48806 0.72936 0.94862 0.0
C963 C 0.52283 0.70142 0.92673 0.0
C964 C 0.46632 0.74615 0.94631 0.0
C965 C 0.45456 0.7505 0.92164 0.0
C966 C 0.49828 0.71721 0.92602 0.0
C967 C 0.46477 0.73705 0.8998 0.0
C968 C 0.53688 0.69699 0.90342 0.0
C969 C 0.55513 0.67732 0.95097 0.0
N970 N 0.48614 0.72129 0.90248 0.0
N971 N 0.53236 0.69153 0.94983 0.0
H972 H 0.06121 0.83342 0.64555 0.0
H973 H 0.02367 0.69612 0.71232 0.0
H974 H 0.09251 0.80891 0.72064 0.0
H975 H 0.0024 0.71761 0.63303 0.0
H976 H 0.04875 0.73708 0.71627 0.0
H977 H 0.03859 0.79146 0.64161 0.0
C978 C 0.06323 0.81926 0.66135 0.0
C979 C 0.07882 0.82476 0.6835 0.0
C980 C 0.03878 0.73274 0.69794 0.0
C981 C 0.0529 0.7763 0.67896 0.0
C982 C 0.02445 0.70939 0.69567 0.0
C983 C 0.01083 0.70348 0.67234 0.0
C984 C 0.03934 0.75047 0.67678 0.0
C985 C 0.01276 0.72121 0.65128 0.0
C986 C 0.05036 0.79518 0.65898 0.0
C987 C 0.08062 0.80555 0.70327 0.0
N988 N 0.02653 0.74399 0.65409 0.0
N989 N 0.06781 0.78214 0.70053 0.0
H990 H 0.06437 0.27926 0.40661 0.0
H991 H 0.93495 0.3177 0.48713 0.0
H992 H 0.0342 0.22892 0.46802 0.0
H993 H 0.94959 0.33875 0.40621 0.0
H994 H 0.97651 0.29242 0.48731 0.0
H995 H 0.02831 0.30961 0.41435 0.0
C996 C 0.05052 0.27468 0.42204 0.0
C997 C 0.05216 0.25101 0.43623 0.0
C998 C 0.97056 0.30276 0.46965 0.0
C999 C 0.01048 0.28599 0.44513 0.0
C1000 C 0.94698 0.31714 0.46954 0.0
C1001 C 0.93873 0.32998 0.44652 0.0
C1002 C 0.98614 0.30197 0.44681 0.0
C1003 C 0.955 0.32878 0.42426 0.0
C1004 C 0.02975 0.29204 0.42633 0.0
C1005 C 0.03341 0.24656 0.45615 0.0
N1006 N 0.97791 0.31511 0.42499 0.0
N1007 N 0.01317 0.26375 0.45987 0.0
H1008 H 0.97318 0.17811 0.84041 0.0
H1009 H 0.93741 0.3115 0.76527 0.0
H1010 H 0.02635 0.21333 0.78428 0.0
H1011 H 0.91159 0.29208 0.84375 0.0
H1012 H 0.96254 0.26995 0.76398 0.0
H1013 H 0.94204 0.21355 0.83251 0.0
C1014 C 0.97828 0.19296 0.82611 0.0
C1015 C 0.003 0.19306 0.81371 0.0
C1016 C 0.95114 0.2748 0.78132 0.0
C1017 C 0.96705 0.23381 0.80443 0.0
C1018 C 0.93684 0.29837 0.78206 0.0
C1019 C 0.92276 0.30529 0.80478 0.0
C1020 C 0.95065 0.25787 0.80319 0.0
C1021 C 0.92254 0.28766 0.82601 0.0
C1022 C 0.96043 0.21333 0.8217 0.0
C1023 C 0.00793 0.21283 0.79493 0.0
N1024 N 0.93623 0.26478 0.82468 0.0
N1025 N 0.99026 0.23261 0.79108 0.0
H1026 H 0.44707 0.17312 0.59288 0.0
H1027 H 0.53735 0.28048 0.53122 0.0
H1028 H 0.43777 0.19281 0.51085 0.0
H1029 H 0.5639 0.22875 0.59304 0.0
H1030 H 0.50114 0.24985 0.52194 0.0
H1031 H 0.48965 0.19507 0.59306 0.0
C1032 C 0.45406 0.18214 0.57486 0.0
C1033 C 0.43883 0.18146 0.55188 0.0
C1034 C 0.5153 0.245 0.53712 0.0
C1035 C 0.48758 0.20683 0.55199 0.0
C1036 C 0.53589 0.26247 0.5425 0.0
C1037 C 0.55342 0.25749 0.56333 0.0
C1038 C 0.51203 0.22266 0.553 0.0
C1039 C 0.55086 0.23362 0.57699 0.0
C1040 C 0.47849 0.19444 0.57491 0.0
C1041 C 0.44898 0.19306 0.52897 0.0
N1042 N 0.53022 0.21741 0.57198 0.0
N1043 N 0.47263 0.20578 0.5297 0.0
H1044 H 0.58828 0.70577 0.36075 0.0
H1045 H 0.48093 0.78649 0.28496 0.0
H1046 H 0.56762 0.68515 0.28106 0.0
H1047 H 0.52972 0.82049 0.34562 0.0
H1048 H 0.51185 0.74961 0.28176 0.0
H1049 H 0.56594 0.74789 0.35527 0.0
C1050 C 0.57904 0.7102 0.34204 0.0
C1051 C 0.5795 0.69194 0.32141 0.0
C1052 C 0.51593 0.76544 0.29544 0.0
C1053 C 0.55368 0.74005 0.31503 0.0
C1054 C 0.49825 0.78646 0.29737 0.0
C1055 C 0.50216 0.8064 0.31619 0.0
C1056 C 0.53749 0.7642 0.31266 0.0
C1057 C 0.5254 0.80555 0.3312 0.0
C1058 C 0.56648 0.73433 0.33884 0.0
C1059 C 0.56758 0.69877 0.29744 0.0
N1060 N 0.54182 0.78456 0.32951 0.0
N1061 N 0.55469 0.72217 0.29502 0.0
H1062 H 0.96492 0.72118 0.034 0.0
H1063 H 0.04882 0.82761 0.10684 0.0
H1064 H 0.93336 0.76932 0.09637 0.0
H1065 H 0.06466 0.80963 0.02541 0.0
H1066 H 0.00674 0.80478 0.10332 0.0
H1067 H 0.00132 0.75251 0.02911 0.0
C1068 C 0.96535 0.73852 0.04636 0.0
C1069 C 0.94635 0.74216 0.06615 0.0
C1070 C 0.01928 0.80599 0.08612 0.0
C1071 C 0.98797 0.77781 0.06082 0.0
C1072 C 0.04341 0.81878 0.0882 0.0
C1073 C 0.0603 0.82019 0.06646 0.0
C1074 C 0.01218 0.79397 0.06228 0.0
C1075 C 0.05216 0.8088 0.04265 0.0
C1076 C 0.98608 0.7564 0.04351 0.0
C1077 C 0.94761 0.76532 0.08118 0.0
N1078 N 0.02878 0.79573 0.04127 0.0
N1079 N 0.96838 0.78192 0.07862 0.0
H1080 H 0.22126 0.52491 0.2857 0.0
H1081 H 0.151 0.42221 0.19286 0.0
H1082 H 0.15347 0.47929 0.30886 0.0
H1083 H 0.23443 0.43581 0.18465 0.0
H1084 H 0.15133 0.44673 0.23393 0.0
H1085 H 0.22692 0.49566 0.24741 0.0
C1086 C 0.20785 0.50857 0.28299 0.0
C1087 C 0.18688 0.50459 0.30062 0.0
C1088 C 0.16965 0.44432 0.22329 0.0
C1089 C 0.19299 0.47149 0.25688 0.0
C1090 C 0.16944 0.43047 0.1997 0.0
C1091 C 0.1927 0.42714 0.18524 0.0
C1092 C 0.19319 0.45551 0.23242 0.0
C1093 C 0.21609 0.43799 0.19527 0.0
C1094 C 0.21114 0.49189 0.26124 0.0
C1095 C 0.17011 0.48305 0.29618 0.0
N1096 N 0.21572 0.45206 0.21817 0.0
N1097 N 0.17333 0.46762 0.27465 0.0
H1098 H 0.68168 0.03377 0.83626 0.0
H1099 H 0.6665 0.03891 0.68275 0.0
H1100 H 0.69968 0.10578 0.79514 0.0
H1101 H 0.69932 0.97096 0.72143 0.0
H1102 H 0.67236 0.06428 0.72378 0.0
H1103 H 0.6822 0.01017 0.79424 0.0
C1104 C 0.686 0.04452 0.81836 0.0
C1105 C 0.69077 0.07165 0.81907 0.0
C1106 C 0.67851 0.04389 0.72306 0.0
C1107 C 0.69058 0.04505 0.77104 0.0
C1108 C 0.67505 0.02947 0.69983 0.0
C1109 C 0.68262 0.00296 0.69877 0.0
C1110 C 0.68887 0.03137 0.74543 0.0
C1111 C 0.69357 0.99146 0.72137 0.0
C1112 C 0.6863 0.03109 0.79447 0.0
C1113 C 0.69615 0.08477 0.79536 0.0
N1114 N 0.69605 0.00562 0.74387 0.0
N1115 N 0.69548 0.0714 0.77213 0.0
H1116 H 0.68918 0.9801 0.56411 0.0
H1117 H 0.72547 0.90942 0.42837 0.0
H1118 H 0.66349 0.90229 0.54201 0.0
H1119 H 0.77844 0.96412 0.46606 0.0
H1120 H 0.69377 0.91656 0.4635 0.0
H1121 H 0.71386 0.9831 0.52237 0.0
C1122 C 0.68846 0.96386 0.55032 0.0
C1123 C 0.67463 0.94078 0.55655 0.0
C1124 C 0.71222 0.92725 0.46386 0.0
C1125 C 0.70205 0.9443 0.50894 0.0
C1126 C 0.73041 0.92326 0.44369 0.0
C1127 C 0.75526 0.93538 0.4446 0.0
C1128 C 0.71864 0.94385 0.48496 0.0
C1129 C 0.75993 0.95365 0.46492 0.0
C1130 C 0.70252 0.96556 0.52664 0.0
C1131 C 0.67425 0.92027 0.5381 0.0
N1132 N 0.74196 0.95708 0.4845 0.0
N1133 N 0.68773 0.92252 0.51515 0.0
H1134 H 0.79212 0.97916 0.19027 0.0
H1135 H 0.85751 0.9384 0.3274 0.0
H1136 H 0.87148 0.99904 0.2131 0.0
H1137 H 0.78168 0.90921 0.30245 0.0
H1138 H 0.86195 0.96156 0.28585 0.0
H1139 H 0.78728 0.95374 0.23091 0.0
C1140 C 0.80858 0.97807 0.20375 0.0
C1141 C 0.83222 0.99138 0.19826 0.0
C1142 C 0.8443 0.95013 0.28936 0.0
C1143 C 0.82677 0.96237 0.24488 0.0
C1144 C 0.84166 0.93693 0.31321 0.0
C1145 C 0.81914 0.92179 0.3185 0.0
C1146 C 0.82424 0.94838 0.27046 0.0
C1147 C 0.79933 0.92071 0.29925 0.0
C1148 C 0.80581 0.96351 0.22692 0.0
C1149 C 0.853 0.98896 0.2163 0.0
N1150 N 0.80233 0.93385 0.27605 0.0
N1151 N 0.84971 0.97494 0.23884 0.0
H1152 H 0.81574 0.02529 0.06545 0.0
H1153 H 0.77194 0.09858 0.93368 0.0
H1154 H 0.82908 0.1076 0.04963 0.0
H1155 H 0.72612 0.03484 0.96611 0.0
H1156 H 0.80304 0.0941 0.96974 0.0
H1157 H 0.79174 0.02174 0.02336 0.0
C1158 C 0.8138 0.04249 0.05301 0.0
C1159 C 0.824 0.06685 0.06106 0.0
C1160 C 0.78634 0.08086 0.96874 0.0
C1161 C 0.79748 0.06279 0.01306 0.0
C1162 C 0.76857 0.08328 0.948 0.0
C1163 C 0.74583 0.06756 0.9471 0.0
C1164 C 0.78165 0.06234 0.98863 0.0
C1165 C 0.74298 0.04786 0.96636 0.0
C1166 C 0.80016 0.04046 0.02913 0.0
C1167 C 0.82111 0.08856 0.04431 0.0
N1168 N 0.76052 0.04598 0.98654 0.0
N1169 N 0.80818 0.086 0.02109 0.0
H1170 H 0.30261 0.46258 0.77385 0.0
H1171 H 0.29559 0.60409 0.70604 0.0
H1172 H 0.32726 0.5326 0.81497 0.0
H1173 H 0.31269 0.53271 0.6635 0.0
H1174 H 0.29579 0.57875 0.74742 0.0
H1175 H 0.29471 0.48896 0.73443 0.0
C1176 C 0.30597 0.48359 0.7747 0.0
C1177 C 0.31561 0.49545 0.79771 0.0
C1178 C 0.29913 0.56869 0.72894 0.0
C1179 C 0.30657 0.52573 0.75264 0.0
C1180 C 0.29877 0.58302 0.70539 0.0
C1181 C 0.30409 0.57036 0.68144 0.0
C1182 C 0.30422 0.54152 0.72826 0.0
C1183 C 0.30854 0.54315 0.68161 0.0
C1184 C 0.30163 0.49859 0.75216 0.0
C1185 C 0.32002 0.52273 0.79754 0.0
N1186 N 0.30843 0.52962 0.70463 0.0
N1187 N 0.31542 0.53703 0.77532 0.0
H1188 H 0.16746 0.59854 0.44728 0.0
H1189 H 0.27226 0.53108 0.53922 0.0
H1190 H 0.18535 0.51599 0.43878 0.0
H1191 H 0.2281 0.59992 0.56182 0.0
H1192 H 0.24136 0.52395 0.50276 0.0
H1193 H 0.1908 0.59901 0.48907 0.0
C1194 C 0.17638 0.58046 0.45423 0.0
C1195 C 0.17474 0.55724 0.43942 0.0
C1196 C 0.2382 0.54031 0.51605 0.0
C1197 C 0.20165 0.55767 0.48742 0.0
C1198 C 0.25584 0.54443 0.5368 0.0
C1199 C 0.25303 0.56637 0.55342 0.0
C1200 C 0.21789 0.5585 0.51168 0.0
C1201 C 0.23117 0.58282 0.54959 0.0
C1202 C 0.18951 0.5807 0.47824 0.0
C1203 C 0.1863 0.53432 0.44961 0.0
N1204 N 0.21476 0.57883 0.52888 0.0
N1205 N 0.19967 0.53517 0.47288 0.0
H1206 H 0.27832 0.41049 0.0681 0.0
H1207 H 0.31366 0.48661 0.93521 0.0
H1208 H 0.22647 0.46936 0.0355 0.0
H1209 H 0.33642 0.40686 0.95317 0.0
H1210 H 0.29 0.48867 0.97766 0.0
H1211 H 0.30913 0.41848 0.03246 0.0
C1212 C 0.27352 0.42547 0.05384 0.0
C1213 C 0.24926 0.43872 0.05455 0.0
C1214 C 0.30046 0.47089 0.97228 0.0
C1215 C 0.28471 0.44788 0.01342 0.0
C1216 C 0.3139 0.46973 0.94821 0.0
C1217 C 0.32657 0.4464 0.94065 0.0
C1218 C 0.30048 0.44883 0.98897 0.0
C1219 C 0.32648 0.42506 0.9581 0.0
C1220 C 0.29115 0.4299 0.03333 0.0
C1221 C 0.24455 0.45814 0.03536 0.0
N1222 N 0.31367 0.42679 0.98142 0.0
N1223 N 0.26196 0.46192 0.01534 0.0
H1224 H 0.20164 0.28767 0.21414 0.0
H1225 H 0.09124 0.30107 0.32449 0.0
H1226 H 0.14243 0.34845 0.21244 0.0
H1227 H 0.15951 0.25102 0.33176 0.0
H1228 H 0.1103 0.32033 0.28468 0.0
H1229 H 0.18681 0.27492 0.25791 0.0
C1230 C 0.18545 0.29831 0.22301 0.0
C1231 C 0.173 0.31892 0.20952 0.0
C1232 C 0.12119 0.30529 0.29513 0.0
C1233 C 0.15597 0.30455 0.25982 0.0
C1234 C 0.11037 0.29433 0.31791 0.0
C1235 C 0.12355 0.27398 0.33116 0.0
C1236 C 0.1453 0.29575 0.28553 0.0
C1237 C 0.14833 0.26616 0.3218 0.0
C1238 C 0.17712 0.29117 0.24811 0.0
C1239 C 0.15253 0.33244 0.2222 0.0
N1240 N 0.15824 0.27683 0.29941 0.0
N1241 N 0.14444 0.32484 0.24657 0.0
H1242 H 0.46929 0.39742 0.94105 0.0
H1243 H 0.45603 0.41456 0.09639 0.0
H1244 H 0.40108 0.43283 0.97694 0.0
H1245 H 0.51535 0.36709 0.05826 0.0
H1246 H 0.43406 0.42014 0.05369 0.0
H1247 H 0.48521 0.38479 0.98452 0.0
C1248 C 0.45763 0.4024 0.95817 0.0
C1249 C 0.434 0.41635 0.95546 0.0
C1250 C 0.45171 0.40825 0.05483 0.0
C1251 C 0.45211 0.40215 0.00546 0.0
C1252 C 0.46425 0.40505 0.07918 0.0
C1253 C 0.4877 0.39051 0.08094 0.0
C1254 C 0.46283 0.39695 0.03215 0.0
C1255 C 0.49742 0.37859 0.05797 0.0
C1256 C 0.46663 0.39512 0.983 0.0
C1257 C 0.41938 0.42201 0.97823 0.0
N1258 N 0.4851 0.38228 0.03459 0.0
N1259 N 0.42884 0.41519 0.00237 0.0
H1260 H 0.39994 0.75812 0.81008 0.0
H1261 H 0.32311 0.64901 0.72647 0.0
H1262 H 0.33744 0.71064 0.84277 0.0
H1263 H 0.36871 0.71232 0.6933 0.0
H1264 H 0.33583 0.66384 0.77085 0.0
H1265 H 0.39662 0.73353 0.76916 0.0
C1266 C 0.38576 0.74225 0.80886 0.0
C1267 C 0.36867 0.73673 0.82986 0.0
C1268 C 0.34333 0.67422 0.75381 0.0
C1269 C 0.36464 0.70856 0.78272 0.0
C1270 C 0.33623 0.66568 0.72858 0.0
C1271 C 0.34474 0.67969 0.70637 0.0
C1272 C 0.3593 0.69665 0.75663 0.0
C1273 C 0.36151 0.70126 0.71002 0.0
C1274 C 0.38382 0.72826 0.78538 0.0
C1275 C 0.35084 0.71576 0.82702 0.0
N1276 N 0.36815 0.70915 0.73464 0.0
N1277 N 0.34906 0.70261 0.80373 0.0
H1278 H 0.08498 0.60542 0.45989 0.0
H1279 H 0.98717 0.56833 0.578 0.0
H1280 H 0.04029 0.53351 0.46416 0.0
H1281 H 0.00398 0.64843 0.55606 0.0
H1282 H 0.01779 0.55303 0.54389 0.0
H1283 H 0.0658 0.6192 0.50231 0.0
C1284 C 0.07147 0.59242 0.47003 0.0
C1285 C 0.06388 0.5685 0.45855 0.0
C1286 C 0.01527 0.57397 0.54695 0.0
C1287 C 0.04232 0.58375 0.50682 0.0
C1288 C 0.99808 0.58265 0.56655 0.0
C1289 C 0.99351 0.60959 0.56989 0.0
C1290 C 0.02786 0.59242 0.53063 0.0
C1291 C 0.00741 0.62748 0.55417 0.0
C1292 C 0.0605 0.60027 0.49406 0.0
C1293 C 0.04627 0.55228 0.47227 0.0
N1294 N 0.02391 0.61858 0.53504 0.0
N1295 N 0.03605 0.56021 0.49565 0.0
H1296 H 0.69367 0.21578 0.79199 0.0
H1297 H 0.59198 0.20414 0.67317 0.0
H1298 H 0.63484 0.15475 0.7881 0.0
H1299 H 0.6589 0.25653 0.67357 0.0
H1300 H 0.60847 0.1837 0.71356 0.0
H1301 H 0.68212 0.22936 0.74752 0.0
C1302 C 0.67824 0.20526 0.78173 0.0
C1303 C 0.66486 0.1844 0.79388 0.0
C1304 C 0.61964 0.19951 0.70467 0.0
C1305 C 0.65154 0.19975 0.74272 0.0
C1306 C 0.61029 0.21116 0.68155 0.0
C1307 C 0.6238 0.23248 0.67024 0.0
C1308 C 0.64261 0.2093 0.71657 0.0
C1309 C 0.64747 0.24062 0.68193 0.0
C1310 C 0.67177 0.21289 0.75622 0.0
C1311 C 0.64553 0.17099 0.77941 0.0
N1312 N 0.65594 0.22923 0.70457 0.0
N1313 N 0.63919 0.1791 0.75465 0.0
H1314 H 0.61249 0.91127 0.5264 0.0
H1315 H 0.49452 0.91293 0.42393 0.0
H1316 H 0.53205 0.9204 0.55135 0.0
H1317 H 0.55515 0.85356 0.41992 0.0
H1318 H 0.51391 0.92922 0.46489 0.0
H1319 H 0.59701 0.90327 0.48104 0.0
C1320 C 0.59163 0.9121 0.52206 0.0
C1321 C 0.57337 0.91641 0.54225 0.0
C1322 C 0.52301 0.91279 0.4548 0.0
C1323 C 0.55576 0.9079 0.49109 0.0
C1324 C 0.51185 0.90329 0.43161 0.0
C1325 C 0.5225 0.88106 0.41909 0.0
C1326 C 0.54555 0.90062 0.46497 0.0
C1327 C 0.54592 0.87037 0.42919 0.0
C1328 C 0.58286 0.90746 0.49643 0.0
C1329 C 0.54653 0.91708 0.53609 0.0
N1330 N 0.55663 0.88017 0.45168 0.0
N1331 N 0.53846 0.91295 0.51094 0.0
H1332 H 0.8023 0.77818 0.29214 0.0
H1333 H 0.90354 0.79224 0.1729 0.0
H1334 H 0.86046 0.8399 0.28807 0.0
H1335 H 0.84053 0.73524 0.17545 0.0
H1336 H 0.88642 0.81217 0.21322 0.0
H1337 H 0.81473 0.76398 0.24813 0.0
C1338 C 0.81779 0.78871 0.28199 0.0
C1339 C 0.83066 0.81001 0.29397 0.0
C1340 C 0.87624 0.79543 0.20483 0.0
C1341 C 0.84491 0.79396 0.24326 0.0
C1342 C 0.88595 0.78406 0.18175 0.0
C1343 C 0.87373 0.7617 0.17099 0.0
C1344 C 0.85418 0.78433 0.21727 0.0
C1345 C 0.85093 0.7521 0.18329 0.0
C1346 C 0.82475 0.78071 0.25673 0.0
C1347 C 0.85009 0.82336 0.27955 0.0
N1348 N 0.84207 0.7633 0.20587 0.0
N1349 N 0.85682 0.81495 0.25502 0.0
H1350 H 1.00041 0.09357 0.92761 0.0
H1351 H 0.90673 0.14682 0.04112 0.0
H1352 H 0.95371 0.16419 0.92043 0.0
H1353 H 0.9349 0.06684 0.03952 0.0
H1354 H 0.92471 0.15364 0.99707 0.0
H1355 H 0.97724 0.08308 0.96853 0.0
C1356 C 0.98514 0.10675 0.93449 0.0
C1357 C 0.97922 0.12997 0.92069 0.0
C1358 C 0.92683 0.13451 0.00623 0.0
C1359 C 0.95276 0.11813 0.96755 0.0
C1360 C 0.91674 0.1307 0.03144 0.0
C1361 C 0.91953 0.1063 0.04401 0.0
C1362 C 0.94017 0.11389 0.99356 0.0
C1363 C 0.93229 0.08591 0.03043 0.0
C1364 C 0.97189 0.10071 0.95782 0.0
C1365 C 0.95904 0.14615 0.93041 0.0
N1366 N 0.94241 0.09023 0.00601 0.0
N1367 N 0.94678 0.14008 0.95338 0.0
H1368 H 0.32203 0.09391 0.29528 0.0
H1369 H 0.2096 0.20267 0.28233 0.0
H1370 H 0.32633 0.16028 0.24245 0.0
H1371 H 0.21026 0.14462 0.34422 0.0
H1372 H 0.25294 0.18769 0.26827 0.0
H1373 H 0.28228 0.11277 0.31487 0.0
C1374 C 0.3148 0.11257 0.28795 0.0
C1375 C 0.32729 0.12527 0.2668 0.0
C1376 C 0.24374 0.17827 0.28503 0.0
C1377 C 0.28164 0.14681 0.28901 0.0
C1378 C 0.21886 0.18669 0.29293 0.0
C1379 C 0.20614 0.17464 0.31427 0.0
C1380 C 0.25604 0.15744 0.29839 0.0
C1381 C 0.21939 0.15444 0.32768 0.0
C1382 C 0.29204 0.12328 0.29912 0.0
C1383 C 0.31705 0.14946 0.25826 0.0
N1384 N 0.24353 0.14628 0.31935 0.0
N1385 N 0.2947 0.15928 0.26919 0.0
H1386 H 0.64602 0.55601 0.9841 0.0
H1387 H 0.5725 0.4746 0.09689 0.0
H1388 H 0.58633 0.59003 0.0341 0.0
H1389 H 0.62913 0.44181 0.04286 0.0
H1390 H 0.58135 0.51844 0.07871 0.0
H1391 H 0.64412 0.5158 0.0098 0.0
C1392 C 0.63271 0.55522 0.0007 0.0
C1393 C 0.61621 0.57652 0.0068 0.0
C1394 C 0.59202 0.50167 0.07103 0.0
C1395 C 0.61363 0.52998 0.03629 0.0
C1396 C 0.58711 0.47667 0.08153 0.0
C1397 C 0.5999 0.45446 0.07115 0.0
C1398 C 0.60992 0.50445 0.05011 0.0
C1399 C 0.61849 0.4583 0.0511 0.0
C1400 C 0.63157 0.53209 0.01538 0.0
C1401 C 0.59934 0.57409 0.02859 0.0
N1402 N 0.62278 0.48271 0.04115 0.0
N1403 N 0.5983 0.55114 0.04241 0.0
H1404 H 0.17642 0.91206 0.79698 0.0
H1405 H 0.29637 0.81275 0.78217 0.0
H1406 H 0.17639 0.84539 0.74434 0.0
H1407 H 0.29119 0.86808 0.84625 0.0
H1408 H 0.25162 0.82397 0.76918 0.0
H1409 H 0.21695 0.89548 0.81709 0.0
C1410 C 0.18471 0.89376 0.78986 0.0
C1411 C 0.17327 0.8804 0.76852 0.0
C1412 C 0.2601 0.83361 0.7862 0.0
C1413 C 0.21977 0.86151 0.79129 0.0
C1414 C 0.28577 0.82737 0.79347 0.0
C1415 C 0.29763 0.83986 0.81505 0.0
C1416 C 0.24614 0.85276 0.80039 0.0
C1417 C 0.28273 0.85812 0.82943 0.0
C1418 C 0.2079 0.88436 0.80133 0.0
C1419 C 0.18484 0.85672 0.76027 0.0
N1420 N 0.25782 0.8643 0.82164 0.0
N1421 N 0.20759 0.84824 0.77143 0.0
H1422 H 0.85186 0.42937 0.52067 0.0
H1423 H 0.94351 0.53773 0.58694 0.0
H1424 H 0.93401 0.41711 0.53877 0.0
H1425 H 0.85878 0.54471 0.58357 0.0
H1426 H 0.93991 0.49296 0.57054 0.0
H1427 H 0.85317 0.47059 0.54545 0.0
C1428 C 0.87004 0.43503 0.53023 0.0
C1429 C 0.89294 0.41983 0.52729 0.0
C1430 C 0.92207 0.50423 0.57356 0.0
C1431 C 0.89468 0.46725 0.55535 0.0
C1432 C 0.9241 0.52992 0.58304 0.0
C1433 C 0.90143 0.54536 0.58668 0.0
C1434 C 0.89723 0.49378 0.56738 0.0
C1435 C 0.87689 0.53393 0.58075 0.0
C1436 C 0.8708 0.45867 0.5443 0.0
C1437 C 0.9159 0.42824 0.54024 0.0
N1438 N 0.87547 0.50894 0.57125 0.0
N1439 N 0.91627 0.45151 0.55337 0.0
H1440 H 0.83631 0.39483 0.69136 0.0
H1441 H 0.71218 0.30138 0.71527 0.0
H1442 H 0.83513 0.32988 0.74586 0.0
H1443 H 0.71478 0.35807 0.65218 0.0
H1444 H 0.75775 0.31151 0.72585 0.0
H1445 H 0.79281 0.38118 0.67501 0.0
C1446 C 0.82697 0.37756 0.69966 0.0
C1447 C 0.83888 0.36379 0.7204 0.0
C1448 C 0.74849 0.32173 0.70961 0.0
C1449 C 0.7894 0.34822 0.70208 0.0
C1450 C 0.72234 0.3161 0.70371 0.0
C1451 C 0.70955 0.32919 0.68305 0.0
C1452 C 0.76208 0.34076 0.69488 0.0
C1453 C 0.72394 0.34758 0.66828 0.0
C1454 C 0.80217 0.36984 0.69044 0.0
C1455 C 0.82614 0.34152 0.73045 0.0
N1456 N 0.74943 0.35302 0.67463 0.0
N1457 N 0.80201 0.33458 0.72138 0.0
H1458 H 0.39396 0.96597 0.40046 0.0
H1459 H 0.41339 0.08586 0.5009 0.0
H1460 H 0.44745 0.96467 0.4664 0.0
H1461 H 0.34846 0.08087 0.44629 0.0
H1462 H 0.43035 0.04433 0.48378 0.0
H1463 H 0.38108 0.01088 0.41253 0.0
C1464 C 0.40308 0.97519 0.41737 0.0
C1465 C 0.42156 0.96147 0.43264 0.0
C1466 C 0.41245 0.05238 0.47545 0.0
C1467 C 0.40705 0.01272 0.44649 0.0
C1468 C 0.40271 0.07607 0.48527 0.0
C1469 C 0.37911 0.08655 0.47548 0.0
C1470 C 0.39864 0.03915 0.45549 0.0
C1471 C 0.36658 0.0734 0.45463 0.0
C1472 C 0.39567 0.00075 0.4243 0.0
C1473 C 0.43273 0.9743 0.45441 0.0
N1474 N 0.37639 0.05026 0.44547 0.0
N1475 N 0.42528 0.99916 0.46069 0.0
H1476 H 0.77331 0.68206 0.16321 0.0
H1477 H 0.70555 0.58999 0.271 0.0
H1478 H 0.81235 0.6223 0.2087 0.0
H1479 H 0.67097 0.66312 0.24563 0.0
H1480 H 0.73902 0.59424 0.23691 0.0
H1481 H 0.73087 0.66863 0.18283 0.0
C1482 C 0.7727 0.66563 0.17676 0.0
C1483 C 0.79605 0.65318 0.18456 0.0
C1484 C 0.72388 0.60918 0.23839 0.0
C1485 C 0.74824 0.63781 0.20682 0.0
C1486 C 0.70473 0.60668 0.25774 0.0
C1487 C 0.68576 0.62637 0.26112 0.0
C1488 C 0.72445 0.63184 0.22262 0.0
C1489 C 0.68537 0.64756 0.24349 0.0
C1490 C 0.74866 0.65811 0.18803 0.0
C1491 C 0.79463 0.63229 0.20237 0.0
N1492 N 0.70486 0.65006 0.2252 0.0
N1493 N 0.77117 0.62534 0.213 0.0
H1494 H 0.09292 0.93113 0.02567 0.0
H1495 H 0.09724 0.02898 0.90393 0.0
H1496 H 0.11572 0.90352 0.94863 0.0
H1497 H 0.05208 0.04199 0.97472 0.0
H1498 H 0.10652 0.98393 0.91902 0.0
H1499 H 0.08074 0.97301 0.00685 0.0
C1500 C 0.09522 0.93375 0.00468 0.0
C1501 C 0.10526 0.91359 0.98872 0.0
C1502 C 0.0945 0.99674 0.93108 0.0
C1503 C 0.09154 0.96223 0.96686 0.0
C1504 C 0.08917 0.02242 0.92251 0.0
C1505 C 0.07425 0.03959 0.9383 0.0
C1506 C 0.08494 0.98834 0.95562 0.0
C1507 C 0.06432 0.02994 0.96219 0.0
C1508 C 0.0882 0.95783 0.99389 0.0
C1509 C 0.10791 0.91847 0.96162 0.0
N1510 N 0.06999 0.00515 0.97013 0.0
N1511 N 0.10128 0.94246 0.95151 0.0
H1512 H 0.34698 0.21186 0.13804 0.0
H1513 H 0.24929 0.33326 0.16206 0.0
H1514 H 0.2842 0.21233 0.19516 0.0
H1515 H 0.29913 0.32685 0.09358 0.0
H1516 H 0.26763 0.29215 0.1787 0.0
H1517 H 0.33513 0.25704 0.12553 0.0
C1518 C 0.33085 0.22154 0.14805 0.0
C1519 C 0.31631 0.20823 0.16739 0.0
C1520 C 0.27471 0.2998 0.16011 0.0
C1521 C 0.30277 0.25973 0.15338 0.0
C1522 C 0.26419 0.32326 0.15056 0.0
C1523 C 0.2722 0.33318 0.12608 0.0
C1524 C 0.29358 0.2862 0.14519 0.0
C1525 C 0.29219 0.31979 0.11244 0.0
C1526 C 0.32404 0.24723 0.14087 0.0
C1527 C 0.29556 0.22163 0.17975 0.0
N1528 N 0.30202 0.29682 0.12206 0.0
N1529 N 0.2894 0.24658 0.1725 0.0
H1530 H 0.84155 0.28843 0.85337 0.0
H1531 H 0.73617 0.1721 0.83924 0.0
H1532 H 0.78014 0.28687 0.79468 0.0
H1533 H 0.79181 0.17759 0.90325 0.0
H1534 H 0.75505 0.21186 0.82007 0.0
H1535 H 0.8265 0.24566 0.86946 0.0
C1536 C 0.825 0.27905 0.84378 0.0
C1537 C 0.81197 0.29137 0.82276 0.0
C1538 C 0.76322 0.20432 0.83825 0.0
C1539 C 0.79458 0.24246 0.84112 0.0
C1540 C 0.75239 0.18163 0.84925 0.0
C1541 C 0.76206 0.17179 0.87317 0.0
C1542 C 0.78401 0.21719 0.85116 0.0
C1543 C 0.78359 0.18458 0.88488 0.0
C1544 C 0.81635 0.25467 0.85303 0.0
C1545 C 0.79047 0.27837 0.81123 0.0
N1546 N 0.79372 0.20674 0.87386 0.0
N1547 N 0.78244 0.25466 0.82058 0.0
H1548 H 0.48148 0.09858 0.55546 0.0
H1549 H 0.54922 0.99922 0.65679 0.0
H1550 H 0.44076 0.05061 0.61213 0.0
H1551 H 0.58461 0.0175 0.58197 0.0
H1552 H 0.51483 0.03161 0.64816 0.0
H1553 H 0.52387 0.081 0.57176 0.0
C1554 C 0.48163 0.08481 0.57172 0.0
C1555 C 0.45787 0.07579 0.58252 0.0
C1556 C 0.53044 0.02906 0.63386 0.0
C1557 C 0.50564 0.05612 0.60131 0.0
C1558 C 0.55017 0.01077 0.63888 0.0
C1559 C 0.5696 0.00575 0.62 0.0
C1560 C 0.52989 0.04217 0.60959 0.0
C1561 C 0.56997 0.02104 0.59704 0.0
C1562 C 0.50565 0.07475 0.58089 0.0
C1563 C 0.45877 0.05782 0.60331 0.0
N1564 N 0.55 0.03833 0.59218 0.0
N1565 N 0.48224 0.04854 0.61202 0.0
H1566 H 0.693 0.70726 0.31497 0.0
H1567 H 0.70227 0.83306 0.40953 0.0
H1568 H 0.65939 0.71185 0.39268 0.0
H1569 H 0.75476 0.82145 0.34371 0.0
H1570 H 0.67946 0.79254 0.39787 0.0
H1571 H 0.70953 0.75261 0.3201 0.0
C1572 C 0.68896 0.71793 0.33297 0.0
C1573 C 0.67523 0.70579 0.3536 0.0
C1574 C 0.69587 0.79894 0.38586 0.0
C1575 C 0.6936 0.75733 0.3595 0.0
C1576 C 0.70885 0.82219 0.39242 0.0
C1577 C 0.73085 0.83044 0.37791 0.0
C1578 C 0.70481 0.78379 0.36455 0.0
C1579 C 0.73825 0.81554 0.3558 0.0
C1580 C 0.69841 0.74366 0.33593 0.0
C1581 C 0.67039 0.72033 0.37654 0.0
N1582 N 0.72541 0.79277 0.34991 0.0
N1583 N 0.67957 0.74528 0.37888 0.0
H1584 H 0.95173 0.02667 0.06895 0.0
H1585 H 0.03836 0.91611 0.13411 0.0
H1586 H 0.92661 0.98598 0.13893 0.0
H1587 H 0.04555 0.93708 0.0522 0.0
H1588 H 0.99699 0.94076 0.13632 0.0
H1589 H 0.98513 0.99284 0.06158 0.0
C1590 C 0.95289 0.01012 0.08236 0.0
C1591 C 0.93643 0.00881 0.10439 0.0
C1592 C 0.00744 0.93967 0.11778 0.0
C1593 C 0.97516 0.97069 0.09682 0.0
C1594 C 0.03116 0.92584 0.11658 0.0
C1595 C 0.04551 0.9248 0.093 0.0
C1596 C 0.99824 0.95291 0.09534 0.0
C1597 C 0.03508 0.93735 0.07074 0.0
C1598 C 0.97198 0.9909 0.07825 0.0
C1599 C 0.93882 0.98735 0.12151 0.0
N1600 N 0.01226 0.95118 0.07254 0.0
N1601 N 0.95826 0.96931 0.11765 0.0
H1602 H 0.26198 0.67591 0.65918 0.0
H1603 H 0.15861 0.79328 0.6382 0.0
H1604 H 0.20885 0.6796 0.59295 0.0
H1605 H 0.22035 0.79338 0.69647 0.0
H1606 H 0.17233 0.74892 0.62464 0.0
H1607 H 0.24246 0.71615 0.67647 0.0
C1608 C 0.24614 0.68511 0.64829 0.0
C1609 C 0.2374 0.67457 0.6243 0.0
C1610 C 0.18278 0.75866 0.64047 0.0
C1611 C 0.21476 0.72074 0.64414 0.0
C1612 C 0.17488 0.78389 0.64826 0.0
C1613 C 0.18861 0.79717 0.66821 0.0
C1614 C 0.20437 0.74661 0.65293 0.0
C1615 C 0.20959 0.78413 0.68059 0.0
C1616 C 0.23495 0.70812 0.65821 0.0
C1617 C 0.21638 0.68712 0.6114 0.0
N1618 N 0.21685 0.75968 0.67271 0.0
N1619 N 0.20591 0.70967 0.62137 0.0
H1620 H 0.08898 0.49835 0.41728 0.0
H1621 H 0.96147 0.40773 0.39728 0.0
H1622 H 0.07548 0.45073 0.34839 0.0
H1623 H 0.96615 0.46942 0.45544 0.0
H1624 H 0.0058 0.41918 0.38237 0.0
H1625 H 0.04632 0.48406 0.43487 0.0
C1626 C 0.0769 0.48505 0.40581 0.0
C1627 C 0.08525 0.47637 0.38102 0.0
C1628 C 0.99711 0.43021 0.3984 0.0
C1629 C 0.0371 0.45919 0.40127 0.0
C1630 C 0.97187 0.4236 0.40698 0.0
C1631 C 0.96002 0.43777 0.4275 0.0
C1632 C 0.01071 0.45099 0.41057 0.0
C1633 C 0.97434 0.45829 0.43926 0.0
C1634 C 0.05271 0.47674 0.4159 0.0
C1635 C 0.06957 0.45814 0.36747 0.0
N1636 N 0.99894 0.46427 0.43064 0.0
N1637 N 0.04617 0.45026 0.37769 0.0
H1638 H 0.55543 0.53749 0.8696 0.0
H1639 H 0.40785 0.54662 0.91793 0.0
H1640 H 0.52839 0.59932 0.92098 0.0
H1641 H 0.43188 0.50105 0.85037 0.0
H1642 H 0.45078 0.56847 0.91766 0.0
H1643 H 0.50966 0.52537 0.86082 0.0
C1644 C 0.53979 0.54864 0.87882 0.0
C1645 C 0.54566 0.56929 0.89614 0.0
C1646 C 0.44644 0.55402 0.90262 0.0
C1647 C 0.49325 0.5555 0.88643 0.0
C1648 C 0.4219 0.54156 0.90272 0.0
C1649 C 0.4163 0.52166 0.88439 0.0
C1650 C 0.46561 0.54626 0.88426 0.0
C1651 C 0.43528 0.51606 0.86506 0.0
C1652 C 0.51368 0.54185 0.87373 0.0
C1653 C 0.5247 0.58334 0.9074 0.0
N1654 N 0.45921 0.52794 0.8658 0.0
N1655 N 0.4994 0.57594 0.90267 0.0
H1656 H 0.97502 0.08145 0.20042 0.0
H1657 H 0.9992 0.17274 0.32648 0.0
H1658 H 0.91143 0.1178 0.24352 0.0
H1659 H 0.06059 0.13272 0.28349 0.0
H1660 H 0.9665 0.15336 0.29672 0.0
H1661 H 0.00626 0.10017 0.23133 0.0
C1662 C 0.96754 0.09315 0.21659 0.0
C1663 C 0.94043 0.09778 0.21946 0.0
C1664 C 0.98713 0.14879 0.29389 0.0
C1665 C 0.97646 0.11993 0.25487 0.0
C1666 C 0.00582 0.15994 0.31077 0.0
C1667 C 0.03272 0.1543 0.30754 0.0
C1668 C 0.99542 0.13198 0.27358 0.0
C1669 C 0.04009 0.13734 0.28704 0.0
C1670 C 0.98548 0.10404 0.23417 0.0
C1671 C 0.93213 0.1138 0.24043 0.0
N1672 N 0.02159 0.12686 0.27088 0.0
N1673 N 0.95008 0.12429 0.25737 0.0
H1674 H 0.56611 0.25252 0.07016 0.0
H1675 H 0.68578 0.21692 0.97409 0.0
H1676 H 0.63553 0.30069 0.06083 0.0
H1677 H 0.61317 0.17283 0.97683 0.0
H1678 H 0.6693 0.24538 0.00904 0.0
H1679 H 0.58463 0.22078 0.0391 0.0
C1680 C 0.58529 0.25638 0.06167 0.0
C1681 C 0.59921 0.2794 0.06804 0.0
C1682 C 0.65698 0.22943 0.00208 0.0
C1683 C 0.62057 0.24308 0.03258 0.0
C1684 C 0.66644 0.21307 0.98221 0.0
C1685 C 0.65081 0.19246 0.97248 0.0
C1686 C 0.63168 0.2252 0.01238 0.0
C1687 C 0.62574 0.18869 0.9835 0.0
C1688 C 0.59587 0.23822 0.044 0.0
C1689 C 0.62419 0.28312 0.05677 0.0
N1690 N 0.61694 0.20493 0.00284 0.0
N1691 N 0.63397 0.26524 0.0395 0.0
H1692 H 0.59613 0.87816 0.7373 0.0
H1693 H 0.44843 0.88391 0.79243 0.0
H1694 H 0.53658 0.93261 0.71058 0.0
H1695 H 0.50502 0.82615 0.81852 0.0
H1696 H 0.48173 0.90303 0.76388 0.0
H1697 H 0.56416 0.85952 0.76833 0.0
C1698 C 0.57642 0.88624 0.73795 0.0
C1699 C 0.56916 0.90714 0.72136 0.0
C1700 C 0.48698 0.88621 0.77587 0.0
C1701 C 0.53257 0.88598 0.75686 0.0
C1702 C 0.46797 0.87538 0.79238 0.0
C1703 C 0.47392 0.85345 0.80806 0.0
C1704 C 0.51227 0.87508 0.77486 0.0
C1705 C 0.49948 0.84292 0.80661 0.0
C1706 C 0.55821 0.87565 0.75574 0.0
C1707 C 0.54335 0.91691 0.72328 0.0
N1708 N 0.51773 0.85384 0.7903 0.0
N1709 N 0.52608 0.90625 0.74062 0.0
H1710 H 0.86034 0.70625 0.57302 0.0
H1711 H 0.88382 0.82746 0.47533 0.0
H1712 H 0.93363 0.74897 0.56777 0.0
H1713 H 0.81169 0.7826 0.47862 0.0
H1714 H 0.90123 0.8012 0.51163 0.0
H1715 H 0.84075 0.7369 0.54167 0.0
C1716 C 0.87221 0.72233 0.56561 0.0
C1717 C 0.89874 0.72492 0.57294 0.0
C1718 C 0.88155 0.79718 0.50449 0.0
C1719 C 0.87654 0.75983 0.53659 0.0
C1720 C 0.87165 0.81204 0.48363 0.0
C1721 C 0.84631 0.8071 0.47374 0.0
C1722 C 0.86604 0.77715 0.51556 0.0
C1723 C 0.83124 0.78725 0.4857 0.0
C1724 C 0.86107 0.7397 0.54752 0.0
C1725 C 0.91324 0.74594 0.56235 0.0
N1726 N 0.84139 0.77292 0.50587 0.0
N1727 N 0.902 0.76248 0.5446 0.0
H1728 H 0.42909 0.42946 0.75387 0.0
H1729 H 0.53303 0.31499 0.72495 0.0
H1730 H 0.45383 0.3727 0.81214 0.0
H1731 H 0.52609 0.3844 0.67655 0.0
H1732 H 0.49945 0.33279 0.75448 0.0
H1733 H 0.46039 0.41029 0.7228 0.0
C1734 C 0.44107 0.41303 0.76021 0.0
C1735 C 0.43878 0.4028 0.78581 0.0
C1736 C 0.50525 0.34411 0.73738 0.0
C1737 C 0.47434 0.38049 0.75007 0.0
C1738 C 0.52429 0.33391 0.72045 0.0
C1739 C 0.53237 0.34828 0.69831 0.0
C1740 C 0.49402 0.36878 0.73203 0.0
C1741 C 0.52061 0.37282 0.69357 0.0
C1742 C 0.45886 0.40203 0.74238 0.0
C1743 C 0.45451 0.38106 0.79258 0.0
N1744 N 0.50196 0.38229 0.71027 0.0
N1745 N 0.47159 0.37067 0.77484 0.0
H1746 H 0.39435 0.67726 0.53497 0.0
H1747 H 0.36707 0.78649 0.42609 0.0
H1748 H 0.31816 0.71362 0.52417 0.0
H1749 H 0.44317 0.77693 0.46298 0.0
H1750 H 0.34906 0.75358 0.45605 0.0
H1751 H 0.41278 0.70777 0.50271 0.0
C1752 C 0.38144 0.69161 0.52597 0.0
C1753 C 0.35458 0.69282 0.5326 0.0
C1754 C 0.36971 0.7587 0.45747 0.0
C1755 C 0.37558 0.7273 0.49504 0.0
C1756 C 0.38004 0.77763 0.44048 0.0
C1757 C 0.40671 0.78488 0.44207 0.0
C1758 C 0.3862 0.74655 0.47596 0.0
C1759 C 0.4226 0.77191 0.46069 0.0
C1760 C 0.39201 0.70891 0.50742 0.0
C1761 C 0.33884 0.71151 0.51956 0.0
N1762 N 0.4121 0.75339 0.4769 0.0
N1763 N 0.34956 0.72795 0.50141 0.0
H1764 H 0.96487 0.6789 0.22509 0.0
H1765 H 0.07166 0.56734 0.2546 0.0
H1766 H 0.9772 0.61267 0.17342 0.0
H1767 H 0.03906 0.61836 0.31431 0.0
H1768 H 0.04142 0.5867 0.22249 0.0
H1769 H 0.99708 0.66044 0.25569 0.0
C1770 C 0.97456 0.66058 0.22009 0.0
C1771 C 0.96834 0.64726 0.19673 0.0
C1772 C 0.04099 0.59362 0.24264 0.0
C1773 C 0.00509 0.62595 0.2317 0.0
C1774 C 0.05814 0.58249 0.26105 0.0
C1775 C 0.05804 0.5912 0.28731 0.0
C1776 C 0.02378 0.61377 0.25046 0.0
C1777 C 0.04033 0.61129 0.29426 0.0
C1778 C 0.99278 0.64996 0.23764 0.0
C1779 C 0.98125 0.62342 0.19136 0.0
N1780 N 0.02401 0.6219 0.27597 0.0
N1781 N 0.99907 0.61352 0.20871 0.0
H1782 H 0.12542 0.28702 0.06536 0.0
H1783 H 0.13537 0.21963 0.92425 0.0
H1784 H 0.17728 0.3164 0.00467 0.0
H1785 H 0.06729 0.21229 0.97446 0.0
H1786 H 0.15393 0.25196 0.95502 0.0
H1787 H 0.10642 0.25653 0.03366 0.0
C1788 C 0.1327 0.28734 0.04534 0.0
C1789 C 0.15299 0.30458 0.03779 0.0
C1790 C 0.13488 0.24333 0.9592 0.0
C1791 C 0.13164 0.26895 0.00147 0.0
C1792 C 0.12438 0.22481 0.94176 0.0
C1793 C 0.09976 0.21333 0.94684 0.0
C1794 C 0.12085 0.25004 0.98205 0.0
C1795 C 0.08622 0.22087 0.96969 0.0
C1796 C 0.1219 0.26974 0.02728 0.0
C1797 C 0.16198 0.30332 0.01163 0.0
N1798 N 0.09701 0.2386 0.98653 0.0
N1799 N 0.15133 0.28575 0.99445 0.0
H1800 H 0.18798 0.97429 0.09157 0.0
H1801 H 0.32447 0.99895 0.16494 0.0
H1802 H 0.2457 0.91251 0.10058 0.0
H1803 H 0.27714 0.06065 0.13085 0.0
H1804 H 0.29433 0.96617 0.14596 0.0
H1805 H 0.21895 0.0054 0.11036 0.0
C1806 C 0.20729 0.96723 0.09718 0.0
C1807 C 0.2143 0.94067 0.09396 0.0
C1808 C 0.29067 0.98689 0.1426 0.0
C1809 C 0.24981 0.97643 0.11638 0.0
C1810 C 0.30772 0.00557 0.15352 0.0
C1811 C 0.3033 0.03253 0.14938 0.0
C1812 C 0.26886 0.99533 0.12784 0.0
C1813 C 0.28145 0.04007 0.13428 0.0
C1814 C 0.22494 0.98507 0.10813 0.0
C1815 C 0.23935 0.93272 0.1027 0.0
N1816 N 0.26501 0.0216 0.1242 0.0
N1817 N 0.25623 0.95054 0.11353 0.0
H1818 H 0.83515 0.47553 0.86382 0.0
H1819 H 0.69432 0.54564 0.85443 0.0
H1820 H 0.77826 0.45967 0.80271 0.0
H1821 H 0.75017 0.56088 0.91666 0.0
H1822 H 0.72601 0.5161 0.83385 0.0
H1823 H 0.80538 0.50851 0.88225 0.0
C1824 C 0.8164 0.47897 0.85426 0.0
C1825 C 0.80917 0.46466 0.83173 0.0
C1826 C 0.73142 0.52597 0.85195 0.0
C1827 C 0.77503 0.50258 0.85267 0.0
C1828 C 0.71337 0.54302 0.86365 0.0
C1829 C 0.71955 0.55585 0.88735 0.0
C1830 C 0.7559 0.52157 0.864 0.0
C1831 C 0.74439 0.5512 0.89858 0.0
C1832 C 0.79946 0.49791 0.86474 0.0
C1833 C 0.78482 0.47036 0.81993 0.0
N1834 N 0.76162 0.53441 0.88684 0.0
N1835 N 0.7686 0.48875 0.83061 0.0
H1836 H 0.2912 0.03584 0.55968 0.0
H1837 H 0.18889 0.00373 0.67448 0.0
H1838 H 0.28069 0.08654 0.62696 0.0
H1839 H 0.22002 0.94497 0.62149 0.0
H1840 H 0.21842 0.03623 0.65478 0.0
H1841 H 0.2604 0.00442 0.57909 0.0
C1842 C 0.2822 0.04045 0.57845 0.0
C1843 C 0.28847 0.06382 0.59175 0.0
C1844 C 0.21872 0.0162 0.64752 0.0
C1845 C 0.25334 0.0279 0.61414 0.0
C1846 C 0.20197 0.99756 0.65884 0.0
C1847 C 0.20186 0.97146 0.64967 0.0
C1848 C 0.23529 0.00879 0.62671 0.0
C1849 C 0.21896 0.96489 0.62894 0.0
C1850 C 0.2648 0.02243 0.5896 0.0
C1851 C 0.27652 0.06865 0.61618 0.0
N1852 N 0.23489 0.98342 0.61815 0.0
N1853 N 0.25945 0.05085 0.62659 0.0
H1854 H 0.71889 0.5423 0.33238 0.0
H1855 H 0.7532 0.43287 0.44041 0.0
H1856 H 0.66072 0.51066 0.38567 0.0
H1857 H 0.80941 0.4664 0.38623 0.0
H1858 H 0.71878 0.46054 0.42093 0.0
H1859 H 0.75171 0.51341 0.35156 0.0
C1860 C 0.71286 0.52901 0.34791 0.0
C1861 C 0.68681 0.52883 0.3572 0.0
C1862 C 0.73865 0.46177 0.41331 0.0
C1863 C 0.72482 0.49587 0.37987 0.0
C1864 C 0.75835 0.44611 0.42452 0.0
C1865 C 0.78427 0.44721 0.4149 0.0
C1866 C 0.74494 0.47871 0.39239 0.0
C1867 C 0.78968 0.46451 0.39404 0.0
C1868 C 0.73177 0.51264 0.35907 0.0
C1869 C 0.68055 0.51163 0.37796 0.0
N1870 N 0.77024 0.47952 0.38355 0.0
N1871 N 0.69943 0.49583 0.3886 0.0
loop_
_geom_bond_atom_site_label_1
_geom_bond_atom_site_label_2
_geom_bond_distance
_geom_bond_site_symmetry_2
_ccdc_geom_bond_type
C0 C1 1.351 . S
C0 N3 1.368 . S
C0 H5 0.931 . S
C1 C0 1.351 . S
C1 N2 1.373 . S
C1 H29 0.930 . S
N2 C1 1.373 . S
N2 C4 1.340 . S
N3 C0 1.368 . S
N3 C4 1.321 . S
N3 Co6 2.135 . S
C4 N2 1.340 . S
C4 N3 1.321 . S
C4 H28 0.930 . S
H5 C0 0.931 . S
Co6 N3 2.135 . S
Co6 N9 2.121 . S
Co6 O14 2.055 . S
Co6 O17 2.039 . S
Co6 N20 2.140 . S
C7 O8 1.227 . S
C7 O17 1.265 . S
O8 C7 1.227 . S
N9 Co6 2.121 . S
N9 C11 1.375 . S
N9 C12 1.313 . S
C10 C11 1.338 . S
C10 N13 1.377 . S
C10 H30 0.930 . S
C11 N9 1.375 . S
C11 C10 1.338 . S
C11 H15 0.931 . S
C12 N9 1.313 . S
C12 N13 1.344 . S
C12 H16 0.930 . S
N13 C10 1.377 . S
N13 C12 1.344 . S
O14 Co6 2.055 . S
O14 C18 1.253 . S
H15 C11 0.931 . S
H16 C12 0.930 . S
O17 Co6 2.039 . S
O17 C7 1.265 . S
C18 O14 1.253 . S
C18 O19 1.227 . S
O19 C18 1.227 . S
N20 Co6 2.140 . S
N20 C23 1.346 . S
N20 C24 1.345 . S
C21 C22 1.387 . S
C21 C25 1.391 . S
C22 C21 1.387 . S
C22 C23 1.369 . S
C22 H31 0.929 . S
C23 N20 1.346 . S
C23 C22 1.369 . S
C23 H26 0.928 . S
C24 N20 1.345 . S
C24 C25 1.371 . S
C24 H27 0.931 . S
C25 C21 1.391 . S
C25 C24 1.371 . S
C25 H32 0.930 . S
H26 C23 0.928 . S
H27 C24 0.931 . S
H28 C4 0.930 . S
H29 C1 0.930 . S
H30 C10 0.930 . S
H31 C22 0.929 . S
H32 C25 0.930 . S
C33 C34 1.351 . S
C33 N36 1.368 . S
C33 H38 0.931 . S
C34 C33 1.351 . S
C34 N35 1.373 . S
C34 H62 0.930 . S
N35 C34 1.373 . S
N35 C37 1.340 . S
N36 C33 1.368 . S
N36 C37 1.321 . S
N36 Co39 2.135 . S
C37 N35 1.340 . S
C37 N36 1.321 . S
C37 H61 0.930 . S
H38 C33 0.931 . S
Co39 N36 2.135 . S
Co39 N42 2.121 . S
Co39 O47 2.055 . S
Co39 O50 2.039 . S
Co39 N53 2.140 . S
C40 O41 1.227 . S
C40 O50 1.265 . S
O41 C40 1.227 . S
N42 Co39 2.121 . S
N42 C44 1.375 . S
N42 C45 1.313 . S
C43 C44 1.338 . S
C43 N46 1.377 . S
C43 H63 0.930 . S
C44 N42 1.375 . S
C44 C43 1.338 . S
C44 H48 0.931 . S
C45 N42 1.313 . S
C45 N46 1.344 . S
C45 H49 0.930 . S
N46 C43 1.377 . S
N46 C45 1.344 . S
O47 Co39 2.055 . S
O47 C51 1.253 . S
H48 C44 0.931 . S
H49 C45 0.930 . S
O50 Co39 2.039 . S
O50 C40 1.265 . S
C51 O47 1.253 . S
C51 O52 1.227 . S
O52 C51 1.227 . S
N53 Co39 2.140 . S
N53 C56 1.346 . S
N53 C57 1.345 . S
C54 C55 1.387 . S
C54 C58 1.391 . S
C55 C54 1.387 . S
C55 C56 1.369 . S
C55 H64 0.929 . S
C56 N53 1.346 . S
C56 C55 1.369 . S
C56 H59 0.928 . S
C57 N53 1.345 . S
C57 C58 1.371 . S
C57 H60 0.931 . S
C58 C54 1.391 . S
C58 C57 1.371 . S
C58 H65 0.930 . S
H59 C56 0.928 . S
H60 C57 0.931 . S
H61 C37 0.930 . S
H62 C34 0.930 . S
H63 C43 0.930 . S
H64 C55 0.929 . S
H65 C58 0.930 . S
C66 C67 1.351 . S
C66 N69 1.368 . S
C66 H71 0.931 . S
C67 C66 1.351 . S
C67 N68 1.373 . S
C67 H95 0.930 . S
N68 C67 1.373 . S
N68 C70 1.340 . S
N69 C66 1.368 . S
N69 C70 1.321 . S
N69 Co72 2.135 . S
C70 N68 1.340 . S
C70 N69 1.321 . S
C70 H94 0.930 . S
H71 C66 0.931 . S
Co72 N69 2.135 . S
Co72 N75 2.121 . S
Co72 O80 2.055 . S
Co72 O83 2.039 . S
Co72 N86 2.140 . S
C73 O74 1.227 . S
C73 O83 1.265 . S
O74 C73 1.227 . S
N75 Co72 2.121 . S
N75 C77 1.375 . S
N75 C78 1.313 . S
C76 C77 1.338 . S
C76 N79 1.377 . S
C76 H96 0.930 . S
C77 N75 1.375 . S
C77 C76 1.338 . S
C77 H81 0.931 . S
C78 N75 1.313 . S
C78 N79 1.344 . S
C78 H82 0.930 . S
N79 C76 1.377 . S
N79 C78 1.344 . S
O80 Co72 2.055 . S
O80 C84 1.253 . S
H81 C77 0.931 . S
H82 C78 0.930 . S
O83 Co72 2.039 . S
O83 C73 1.265 . S
C84 O80 1.253 . S
C84 O85 1.227 . S
O85 C84 1.227 . S
N86 Co72 2.140 . S
N86 C89 1.346 . S
N86 C90 1.345 . S
C87 C88 1.387 . S
C87 C91 1.391 . S
C88 C87 1.387 . S
C88 C89 1.369 . S
C88 H97 0.929 . S
C89 N86 1.346 . S
C89 C88 1.369 . S
C89 H92 0.928 . S
C90 N86 1.345 . S
C90 C91 1.371 . S
C90 H93 0.931 . S
C91 C87 1.391 . S
C91 C90 1.371 . S
C91 H98 0.930 . S
H92 C89 0.928 . S
H93 C90 0.931 . S
H94 C70 0.930 . S
H95 C67 0.930 . S
H96 C76 0.930 . S
H97 C88 0.929 . S
H98 C91 0.930 . S
C99 C100 1.351 . S
C99 N102 1.368 . S
C99 H104 0.931 . S
C100 C99 1.351 . S
C100 N101 1.373 1_655 S
C100 H128 0.930 . S
N101 C100 1.373 1_455 S
N101 C103 1.340 1_455 S
N102 C99 1.368 . S
N102 C103 1.321 . S
N102 Co105 2.135 . S
C103 N101 1.340 1_655 S
C103 N102 1.321 . S
C103 H127 0.930 1_655 S
H104 C99 0.931 . S
Co105 N102 2.135 . S
Co105 N108 2.121 . S
Co105 O113 2.055 . S
Co105 O116 2.039 . S
Co105 N119 2.140 . S
C106 O107 1.227 . S
C106 O116 1.265 . S
O107 C106 1.227 . S
N108 Co105 2.121 . S
N108 C110 1.375 . S
N108 C111 1.313 . S
C109 C110 1.338 . S
C109 N112 1.377 . S
C109 H129 0.930 . S
C110 N108 1.375 . S
C110 C109 1.338 . S
C110 H114 0.931 . S
C111 N108 1.313 . S
C111 N112 1.344 . S
C111 H115 0.930 . S
N112 C109 1.377 . S
N112 C111 1.344 . S
O113 Co105 2.055 . S
O113 C117 1.253 . S
H114 C110 0.931 . S
H115 C111 0.930 . S
O116 Co105 2.039 . S
O116 C106 1.265 . S
C117 O113 1.253 . S
C117 O118 1.227 . S
O118 C117 1.227 . S
N119 Co105 2.140 . S
N119 C122 1.346 . S
N119 C123 1.345 . S
C120 C121 1.387 . S
C120 C124 1.391 . S
C121 C120 1.387 . S
C121 C122 1.369 . S
C121 H130 0.929 . S
C122 N119 1.346 . S
C122 C121 1.369 . S
C122 H125 0.928 . S
C123 N119 1.345 . S
C123 C124 1.371 . S
C123 H126 0.931 . S
C124 C120 1.391 . S
C124 C123 1.371 . S
C124 H131 0.930 . S
H125 C122 0.928 . S
H126 C123 0.931 . S
H127 C103 0.930 1_455 S
H128 C100 0.930 . S
H129 C109 0.930 . S
H130 C121 0.929 . S
H131 C124 0.930 . S
C132 C133 1.351 . S
C132 N135 1.368 . S
C132 H137 0.931 . S
C133 C132 1.351 . S
C133 N134 1.373 . S
C133 H161 0.930 . S
N134 C133 1.373 . S
N134 C136 1.340 . S
N135 C132 1.368 . S
N135 C136 1.321 . S
N135 Co138 2.135 . S
C136 N134 1.340 . S
C136 N135 1.321 . S
C136 H160 0.930 . S
H137 C132 0.931 . S
Co138 N135 2.135 . S
Co138 N141 2.121 . S
Co138 O146 2.055 . S
Co138 O149 2.039 . S
Co138 N152 2.140 . S
C139 O140 1.227 . S
C139 O149 1.265 . S
O140 C139 1.227 . S
N141 Co138 2.121 . S
N141 C143 1.375 . S
N141 C144 1.313 . S
C142 C143 1.338 . S
C142 N145 1.377 . S
C142 H162 0.930 . S
C143 N141 1.375 . S
C143 C142 1.338 . S
C143 H147 0.931 . S
C144 N141 1.313 . S
C144 N145 1.344 . S
C144 H148 0.930 . S
N145 C142 1.377 . S
N145 C144 1.344 . S
O146 Co138 2.055 . S
O146 C150 1.253 . S
H147 C143 0.931 . S
H148 C144 0.930 . S
O149 Co138 2.039 . S
O149 C139 1.265 . S
C150 O146 1.253 . S
C150 O151 1.227 . S
O151 C150 1.227 . S
N152 Co138 2.140 . S
N152 C155 1.346 . S
N152 C156 1.345 . S
C153 C154 1.387 . S
C153 C157 1.391 . S
C154 C153 1.387 . S
C154 C155 1.369 . S
C154 H163 0.929 . S
C155 N152 1.346 . S
C155 C154 1.369 . S
C155 H158 0.928 . S
C156 N152 1.345 . S
C156 C157 1.371 . S
C156 H159 0.931 . S
C157 C153 1.391 . S
C157 C156 1.371 . S
C157 H164 0.930 . S
H158 C155 0.928 . S
H159 C156 0.931 . S
H160 C136 0.930 . S
H161 C133 0.930 . S
H162 C142 0.930 . S
H163 C154 0.929 . S
H164 C157 0.930 . S
C165 C166 1.351 . S
C165 N168 1.368 . S
C165 H170 0.931 . S
C166 C165 1.351 . S
C166 N167 1.373 . S
C166 H194 0.930 . S
N167 C166 1.373 . S
N167 C169 1.340 . S
N168 C165 1.368 . S
N168 C169 1.321 . S
N168 Co171 2.135 . S
C169 N167 1.340 . S
C169 N168 1.321 . S
C169 H193 0.930 . S
H170 C165 0.931 . S
Co171 N168 2.135 . S
Co171 N174 2.121 . S
Co171 O179 2.055 . S
Co171 O182 2.039 . S
Co171 N185 2.140 . S
C172 O173 1.227 . S
C172 O182 1.265 . S
O173 C172 1.227 . S
N174 Co171 2.121 . S
N174 C176 1.375 . S
N174 C177 1.313 . S
C175 C176 1.338 . S
C175 N178 1.377 . S
C175 H195 0.930 . S
C176 N174 1.375 . S
C176 C175 1.338 . S
C176 H180 0.931 . S
C177 N174 1.313 . S
C177 N178 1.344 . S
C177 H181 0.930 . S
N178 C175 1.377 . S
N178 C177 1.344 . S
O179 Co171 2.055 . S
O179 C183 1.253 . S
H180 C176 0.931 . S
H181 C177 0.930 . S
O182 Co171 2.039 . S
O182 C172 1.265 . S
C183 O179 1.253 . S
C183 O184 1.227 . S
O184 C183 1.227 . S
N185 Co171 2.140 . S
N185 C188 1.346 . S
N185 C189 1.345 . S
C186 C187 1.387 . S
C186 C190 1.391 . S
C187 C186 1.387 . S
C187 C188 1.369 . S
C187 H196 0.929 . S
C188 N185 1.346 . S
C188 C187 1.369 . S
C188 H191 0.928 . S
C189 N185 1.345 . S
C189 C190 1.371 . S
C189 H192 0.931 . S
C190 C186 1.391 . S
C190 C189 1.371 . S
C190 H197 0.930 . S
H191 C188 0.928 . S
H192 C189 0.931 . S
H193 C169 0.930 . S
H194 C166 0.930 . S
H195 C175 0.930 . S
H196 C187 0.929 . S
H197 C190 0.930 . S
C198 C199 1.351 . S
C198 N201 1.368 . S
C198 H203 0.931 . S
C199 C198 1.351 . S
C199 N200 1.373 . S
C199 H227 0.930 . S
N200 C199 1.373 . S
N200 C202 1.340 . S
N201 C198 1.368 . S
N201 C202 1.321 . S
N201 Co204 2.135 . S
C202 N200 1.340 . S
C202 N201 1.321 . S
C202 H226 0.930 . S
H203 C198 0.931 . S
Co204 N201 2.135 . S
Co204 N207 2.121 . S
Co204 O212 2.055 . S
Co204 O215 2.039 . S
Co204 N218 2.140 . S
C205 O206 1.227 . S
C205 O215 1.265 . S
O206 C205 1.227 . S
N207 Co204 2.121 . S
N207 C209 1.375 . S
N207 C210 1.313 . S
C208 C209 1.338 . S
C208 N211 1.377 . S
C208 H228 0.930 . S
C209 N207 1.375 . S
C209 C208 1.338 . S
C209 H213 0.931 . S
C210 N207 1.313 . S
C210 N211 1.344 . S
C210 H214 0.930 . S
N211 C208 1.377 . S
N211 C210 1.344 . S
O212 Co204 2.055 . S
O212 C216 1.253 . S
H213 C209 0.931 . S
H214 C210 0.930 . S
O215 Co204 2.039 . S
O215 C205 1.265 . S
C216 O212 1.253 . S
C216 O217 1.227 . S
O217 C216 1.227 . S
N218 Co204 2.140 . S
N218 C221 1.346 . S
N218 C222 1.345 . S
C219 C220 1.387 . S
C219 C223 1.391 . S
C220 C219 1.387 . S
C220 C221 1.369 . S
C220 H229 0.929 . S
C221 N218 1.346 . S
C221 C220 1.369 . S
C221 H224 0.928 . S
C222 N218 1.345 . S
C222 C223 1.371 . S
C222 H225 0.931 . S
C223 C219 1.391 . S
C223 C222 1.371 . S
C223 H230 0.930 . S
H224 C221 0.928 . S
H225 C222 0.931 . S
H226 C202 0.930 . S
H227 C199 0.930 . S
H228 C208 0.930 . S
H229 C220 0.929 . S
H230 C223 0.930 . S
C231 C232 1.351 . S
C231 N234 1.368 . S
C231 H236 0.931 . S
C232 C231 1.351 . S
C232 N233 1.373 1_455 S
C232 H260 0.930 . S
N233 C232 1.373 1_655 S
N233 C235 1.340 1_655 S
N234 C231 1.368 . S
N234 C235 1.321 . S
N234 Co237 2.135 . S
C235 N233 1.340 1_455 S
C235 N234 1.321 . S
C235 H259 0.930 1_455 S
H236 C231 0.931 . S
Co237 N234 2.135 . S
Co237 N240 2.121 . S
Co237 O245 2.055 . S
Co237 O248 2.039 . S
Co237 N251 2.140 . S
C238 O239 1.227 . S
C238 O248 1.265 . S
O239 C238 1.227 . S
N240 Co237 2.121 . S
N240 C242 1.375 . S
N240 C243 1.313 . S
C241 C242 1.338 . S
C241 N244 1.377 . S
C241 H261 0.930 . S
C242 N240 1.375 . S
C242 C241 1.338 . S
C242 H246 0.931 . S
C243 N240 1.313 . S
C243 N244 1.344 . S
C243 H247 0.930 . S
N244 C241 1.377 . S
N244 C243 1.344 . S
O245 Co237 2.055 . S
O245 C249 1.253 . S
H246 C242 0.931 . S
H247 C243 0.930 . S
O248 Co237 2.039 . S
O248 C238 1.265 . S
C249 O245 1.253 . S
C249 O250 1.227 . S
O250 C249 1.227 . S
N251 Co237 2.140 . S
N251 C254 1.346 . S
N251 C255 1.345 . S
C252 C253 1.387 . S
C252 C256 1.391 . S
C253 C252 1.387 . S
C253 C254 1.369 . S
C253 H262 0.929 . S
C254 N251 1.346 . S
C254 C253 1.369 . S
C254 H257 0.928 . S
C255 N251 1.345 . S
C255 C256 1.371 . S
C255 H258 0.931 . S
C256 C252 1.391 . S
C256 C255 1.371 . S
C256 H263 0.930 . S
H257 C254 0.928 . S
H258 C255 0.931 . S
H259 C235 0.930 1_655 S
H260 C232 0.930 . S
H261 C241 0.930 . S
H262 C253 0.929 . S
H263 C256 0.930 . S
C264 C265 1.351 . S
C264 N267 1.368 . S
C264 H269 0.931 . S
C265 C264 1.351 . S
C265 N266 1.373 . S
C265 H293 0.930 . S
N266 C265 1.373 . S
N266 C268 1.340 . S
N267 C264 1.368 . S
N267 C268 1.321 . S
N267 Co270 2.135 . S
C268 N266 1.340 . S
C268 N267 1.321 . S
C268 H292 0.930 . S
H269 C264 0.931 . S
Co270 N267 2.135 . S
Co270 N273 2.121 . S
Co270 O278 2.055 . S
Co270 O281 2.039 . S
Co270 N284 2.140 . S
C271 O272 1.227 . S
C271 O281 1.265 . S
O272 C271 1.227 . S
N273 Co270 2.121 . S
N273 C275 1.375 . S
N273 C276 1.313 . S
C274 C275 1.338 . S
C274 N277 1.377 . S
C274 H294 0.930 . S
C275 N273 1.375 . S
C275 C274 1.338 . S
C275 H279 0.931 . S
C276 N273 1.313 . S
C276 N277 1.344 . S
C276 H280 0.930 . S
N277 C274 1.377 . S
N277 C276 1.344 . S
O278 Co270 2.055 . S
O278 C282 1.253 . S
H279 C275 0.931 . S
H280 C276 0.930 . S
O281 Co270 2.039 . S
O281 C271 1.265 . S
C282 O278 1.253 . S
C282 O283 1.227 . S
O283 C282 1.227 . S
N284 Co270 2.140 . S
N284 C287 1.346 . S
N284 C288 1.345 . S
C285 C286 1.387 . S
C285 C289 1.391 . S
C286 C285 1.387 . S
C286 C287 1.369 . S
C286 H295 0.929 . S
C287 N284 1.346 . S
C287 C286 1.369 . S
C287 H290 0.928 . S
C288 N284 1.345 . S
C288 C289 1.371 . S
C288 H291 0.931 . S
C289 C285 1.391 . S
C289 C288 1.371 . S
C289 H296 0.930 . S
H290 C287 0.928 . S
H291 C288 0.931 . S
H292 C268 0.930 . S
H293 C265 0.930 . S
H294 C274 0.930 . S
H295 C286 0.929 . S
H296 C289 0.930 . S
C297 C298 1.351 . S
C297 N300 1.368 . S
C297 H302 0.931 . S
C298 C297 1.351 . S
C298 N299 1.373 1_556 S
C298 H326 0.930 . S
N299 C298 1.373 1_554 S
N299 C301 1.340 1_554 S
N300 C297 1.368 . S
N300 C301 1.321 . S
N300 Co303 2.135 . S
C301 N299 1.340 1_556 S
C301 N300 1.321 . S
C301 H325 0.930 1_556 S
H302 C297 0.931 . S
Co303 N300 2.135 . S
Co303 N306 2.121 . S
Co303 O311 2.055 . S
Co303 O314 2.039 . S
Co303 N317 2.140 . S
C304 O305 1.227 . S
C304 O314 1.265 . S
O305 C304 1.227 . S
N306 Co303 2.121 . S
N306 C308 1.375 . S
N306 C309 1.313 . S
C307 C308 1.338 . S
C307 N310 1.377 . S
C307 H327 0.930 . S
C308 N306 1.375 . S
C308 C307 1.338 . S
C308 H312 0.931 . S
C309 N306 1.313 . S
C309 N310 1.344 . S
C309 H313 0.930 . S
N310 C307 1.377 . S
N310 C309 1.344 . S
O311 Co303 2.055 . S
O311 C315 1.253 . S
H312 C308 0.931 . S
H313 C309 0.930 . S
O314 Co303 2.039 . S
O314 C304 1.265 . S
C315 O311 1.253 . S
C315 O316 1.227 . S
O316 C315 1.227 . S
N317 Co303 2.140 . S
N317 C320 1.346 . S
N317 C321 1.345 . S
C318 C319 1.387 . S
C318 C322 1.391 . S
C319 C318 1.387 . S
C319 C320 1.369 . S
C319 H328 0.929 . S
C320 N317 1.346 . S
C320 C319 1.369 . S
C320 H323 0.928 . S
C321 N317 1.345 . S
C321 C322 1.371 . S
C321 H324 0.931 . S
C322 C318 1.391 . S
C322 C321 1.371 . S
C322 H329 0.930 . S
H323 C320 0.928 . S
H324 C321 0.931 . S
H325 C301 0.930 1_554 S
H326 C298 0.930 . S
H327 C307 0.930 . S
H328 C319 0.929 . S
H329 C322 0.930 . S
C330 C331 1.351 . S
C330 N333 1.368 . S
C330 H335 0.931 . S
C331 C330 1.351 . S
C331 N332 1.373 . S
C331 H359 0.930 . S
N332 C331 1.373 . S
N332 C334 1.340 . S
N333 C330 1.368 . S
N333 C334 1.321 . S
N333 Co336 2.135 . S
C334 N332 1.340 . S
C334 N333 1.321 . S
C334 H358 0.930 . S
H335 C330 0.931 . S
Co336 N333 2.135 . S
Co336 N339 2.121 . S
Co336 O344 2.055 . S
Co336 O347 2.039 . S
Co336 N350 2.140 . S
C337 O338 1.227 . S
C337 O347 1.265 . S
O338 C337 1.227 . S
N339 Co336 2.121 . S
N339 C341 1.375 . S
N339 C342 1.313 . S
C340 C341 1.338 . S
C340 N343 1.377 . S
C340 H360 0.930 . S
C341 N339 1.375 . S
C341 C340 1.338 . S
C341 H345 0.931 . S
C342 N339 1.313 . S
C342 N343 1.344 . S
C342 H346 0.930 . S
N343 C340 1.377 . S
N343 C342 1.344 . S
O344 Co336 2.055 . S
O344 C348 1.253 . S
H345 C341 0.931 . S
H346 C342 0.930 . S
O347 Co336 2.039 . S
O347 C337 1.265 . S
C348 O344 1.253 . S
C348 O349 1.227 . S
O349 C348 1.227 . S
N350 Co336 2.140 . S
N350 C353 1.346 . S
N350 C354 1.345 . S
C351 C352 1.387 . S
C351 C355 1.391 . S
C352 C351 1.387 . S
C352 C353 1.369 . S
C352 H361 0.929 . S
C353 N350 1.346 . S
C353 C352 1.369 . S
C353 H356 0.928 . S
C354 N350 1.345 . S
C354 C355 1.371 . S
C354 H357 0.931 . S
C355 C351 1.391 . S
C355 C354 1.371 . S
C355 H362 0.930 . S
H356 C353 0.928 . S
H357 C354 0.931 . S
H358 C334 0.930 . S
H359 C331 0.930 . S
H360 C340 0.930 . S
H361 C352 0.929 . S
H362 C355 0.930 . S
C363 C364 1.351 . S
C363 N366 1.368 . S
C363 H368 0.931 . S
C364 C363 1.351 . S
C364 N365 1.373 . S
C364 H392 0.930 . S
N365 C364 1.373 . S
N365 C367 1.340 . S
N366 C363 1.368 . S
N366 C367 1.321 . S
N366 Co369 2.135 . S
C367 N365 1.340 . S
C367 N366 1.321 . S
C367 H391 0.930 . S
H368 C363 0.931 . S
Co369 N366 2.135 . S
Co369 N372 2.121 . S
Co369 O377 2.055 . S
Co369 O380 2.039 . S
Co369 N383 2.140 . S
C370 O371 1.227 . S
C370 O380 1.265 . S
O371 C370 1.227 . S
N372 Co369 2.121 . S
N372 C374 1.375 . S
N372 C375 1.313 . S
C373 C374 1.338 . S
C373 N376 1.377 . S
C373 H393 0.930 . S
C374 N372 1.375 . S
C374 C373 1.338 . S
C374 H378 0.931 . S
C375 N372 1.313 . S
C375 N376 1.344 . S
C375 H379 0.930 . S
N376 C373 1.377 . S
N376 C375 1.344 . S
O377 Co369 2.055 . S
O377 C381 1.253 . S
H378 C374 0.931 . S
H379 C375 0.930 . S
O380 Co369 2.039 . S
O380 C370 1.265 . S
C381 O377 1.253 . S
C381 O382 1.227 . S
O382 C381 1.227 . S
N383 Co369 2.140 . S
N383 C386 1.346 . S
N383 C387 1.345 . S
C384 C385 1.387 . S
C384 C388 1.391 . S
C385 C384 1.387 . S
C385 C386 1.369 . S
C385 H394 0.929 . S
C386 N383 1.346 . S
C386 C385 1.369 . S
C386 H389 0.928 . S
C387 N383 1.345 . S
C387 C388 1.371 . S
C387 H390 0.931 . S
C388 C384 1.391 . S
C388 C387 1.371 . S
C388 H395 0.930 . S
H389 C386 0.928 . S
H390 C387 0.931 . S
H391 C367 0.930 . S
H392 C364 0.930 . S
H393 C373 0.930 . S
H394 C385 0.929 . S
H395 C388 0.930 . S
C396 C397 1.351 . S
C396 N399 1.368 . S
C396 H401 0.931 . S
C397 C396 1.351 . S
C397 N398 1.373 . S
C397 H425 0.930 . S
N398 C397 1.373 . S
N398 C400 1.340 . S
N399 C396 1.368 . S
N399 C400 1.321 . S
N399 Co402 2.135 . S
C400 N398 1.340 . S
C400 N399 1.321 . S
C400 H424 0.930 . S
H401 C396 0.931 . S
Co402 N399 2.135 . S
Co402 N405 2.121 . S
Co402 O410 2.055 . S
Co402 O413 2.039 . S
Co402 N416 2.140 . S
C403 O404 1.227 . S
C403 O413 1.265 . S
O404 C403 1.227 . S
N405 Co402 2.121 . S
N405 C407 1.375 . S
N405 C408 1.313 . S
C406 C407 1.338 . S
C406 N409 1.377 . S
C406 H426 0.930 . S
C407 N405 1.375 . S
C407 C406 1.338 . S
C407 H411 0.931 . S
C408 N405 1.313 . S
C408 N409 1.344 . S
C408 H412 0.930 . S
N409 C406 1.377 . S
N409 C408 1.344 . S
O410 Co402 2.055 . S
O410 C414 1.253 . S
H411 C407 0.931 . S
H412 C408 0.930 . S
O413 Co402 2.039 . S
O413 C403 1.265 . S
C414 O410 1.253 . S
C414 O415 1.227 . S
O415 C414 1.227 . S
N416 Co402 2.140 . S
N416 C419 1.346 . S
N416 C420 1.345 . S
C417 C418 1.387 . S
C417 C421 1.391 . S
C418 C417 1.387 . S
C418 C419 1.369 . S
C418 H427 0.929 . S
C419 N416 1.346 . S
C419 C418 1.369 . S
C419 H422 0.928 . S
C420 N416 1.345 . S
C420 C421 1.371 . S
C420 H423 0.931 . S
C421 C417 1.391 . S
C421 C420 1.371 . S
C421 H428 0.930 . S
H422 C419 0.928 . S
H423 C420 0.931 . S
H424 C400 0.930 . S
H425 C397 0.930 . S
H426 C406 0.930 . S
H427 C418 0.929 . S
H428 C421 0.930 . S
C429 C430 1.351 . S
C429 N432 1.368 . S
C429 H434 0.931 . S
C430 C429 1.351 . S
C430 N431 1.373 . S
C430 H458 0.930 . S
N431 C430 1.373 . S
N431 C433 1.340 . S
N432 C429 1.368 . S
N432 C433 1.321 . S
N432 Co435 2.135 . S
C433 N431 1.340 . S
C433 N432 1.321 . S
C433 H457 0.930 . S
H434 C429 0.931 . S
Co435 N432 2.135 . S
Co435 N438 2.121 . S
Co435 O443 2.055 . S
Co435 O446 2.039 . S
Co435 N449 2.140 . S
C436 O437 1.227 . S
C436 O446 1.265 . S
O437 C436 1.227 . S
N438 Co435 2.121 . S
N438 C440 1.375 . S
N438 C441 1.313 . S
C439 C440 1.338 . S
C439 N442 1.377 . S
C439 H459 0.930 . S
C440 N438 1.375 . S
C440 C439 1.338 . S
C440 H444 0.931 . S
C441 N438 1.313 . S
C441 N442 1.344 . S
C441 H445 0.930 . S
N442 C439 1.377 . S
N442 C441 1.344 . S
O443 Co435 2.055 . S
O443 C447 1.253 . S
H444 C440 0.931 . S
H445 C441 0.930 . S
O446 Co435 2.039 . S
O446 C436 1.265 . S
C447 O443 1.253 . S
C447 O448 1.227 . S
O448 C447 1.227 . S
N449 Co435 2.140 . S
N449 C452 1.346 . S
N449 C453 1.345 . S
C450 C451 1.387 . S
C450 C454 1.391 . S
C451 C450 1.387 . S
C451 C452 1.369 . S
C451 H460 0.929 . S
C452 N449 1.346 . S
C452 C451 1.369 . S
C452 H455 0.928 . S
C453 N449 1.345 . S
C453 C454 1.371 . S
C453 H456 0.931 . S
C454 C450 1.391 . S
C454 C453 1.371 . S
C454 H461 0.930 . S
H455 C452 0.928 . S
H456 C453 0.931 . S
H457 C433 0.930 . S
H458 C430 0.930 . S
H459 C439 0.930 . S
H460 C451 0.929 . S
H461 C454 0.930 . S
C462 C463 1.351 . S
C462 N465 1.368 . S
C462 H467 0.931 . S
C463 C462 1.351 . S
C463 N464 1.373 . S
C463 H491 0.930 . S
N464 C463 1.373 . S
N464 C466 1.340 . S
N465 C462 1.368 . S
N465 C466 1.321 . S
N465 Co468 2.135 . S
C466 N464 1.340 . S
C466 N465 1.321 . S
C466 H490 0.930 . S
H467 C462 0.931 . S
Co468 N465 2.135 . S
Co468 N471 2.121 . S
Co468 O476 2.055 . S
Co468 O479 2.039 . S
Co468 N482 2.140 . S
C469 O470 1.227 . S
C469 O479 1.265 . S
O470 C469 1.227 . S
N471 Co468 2.121 . S
N471 C473 1.375 . S
N471 C474 1.313 . S
C472 C473 1.338 . S
C472 N475 1.377 . S
C472 H492 0.930 . S
C473 N471 1.375 . S
C473 C472 1.338 . S
C473 H477 0.931 . S
C474 N471 1.313 . S
C474 N475 1.344 . S
C474 H478 0.930 . S
N475 C472 1.377 . S
N475 C474 1.344 . S
O476 Co468 2.055 . S
O476 C480 1.253 . S
H477 C473 0.931 . S
H478 C474 0.930 . S
O479 Co468 2.039 . S
O479 C469 1.265 . S
C480 O476 1.253 . S
C480 O481 1.227 . S
O481 C480 1.227 . S
N482 Co468 2.140 . S
N482 C485 1.346 . S
N482 C486 1.345 . S
C483 C484 1.387 . S
C483 C487 1.391 . S
C484 C483 1.387 . S
C484 C485 1.369 . S
C484 H493 0.929 . S
C485 N482 1.346 . S
C485 C484 1.369 . S
C485 H488 0.928 . S
C486 N482 1.345 . S
C486 C487 1.371 . S
C486 H489 0.931 . S
C487 C483 1.391 . S
C487 C486 1.371 . S
C487 H494 0.930 . S
H488 C485 0.928 . S
H489 C486 0.931 . S
H490 C466 0.930 . S
H491 C463 0.930 . S
H492 C472 0.930 . S
H493 C484 0.929 . S
H494 C487 0.930 . S
C495 C496 1.351 . S
C495 N498 1.368 . S
C495 H500 0.931 . S
C496 C495 1.351 . S
C496 N497 1.373 1_554 S
C496 H524 0.930 . S
N497 C496 1.373 1_556 S
N497 C499 1.340 1_556 S
N498 C495 1.368 . S
N498 C499 1.321 . S
N498 Co501 2.135 . S
C499 N497 1.340 1_554 S
C499 N498 1.321 . S
C499 H523 0.930 1_554 S
H500 C495 0.931 . S
Co501 N498 2.135 . S
Co501 N504 2.121 . S
Co501 O509 2.055 . S
Co501 O512 2.039 . S
Co501 N515 2.140 . S
C502 O503 1.227 . S
C502 O512 1.265 . S
O503 C502 1.227 . S
N504 Co501 2.121 . S
N504 C506 1.375 . S
N504 C507 1.313 . S
C505 C506 1.338 . S
C505 N508 1.377 . S
C505 H525 0.930 . S
C506 N504 1.375 . S
C506 C505 1.338 . S
C506 H510 0.931 . S
C507 N504 1.313 . S
C507 N508 1.344 . S
C507 H511 0.930 . S
N508 C505 1.377 . S
N508 C507 1.344 . S
O509 Co501 2.055 . S
O509 C513 1.253 . S
H510 C506 0.931 . S
H511 C507 0.930 . S
O512 Co501 2.039 . S
O512 C502 1.265 . S
C513 O509 1.253 . S
C513 O514 1.227 . S
O514 C513 1.227 . S
N515 Co501 2.140 . S
N515 C518 1.346 . S
N515 C519 1.345 . S
C516 C517 1.387 . S
C516 C520 1.391 . S
C517 C516 1.387 . S
C517 C518 1.369 . S
C517 H526 0.929 . S
C518 N515 1.346 . S
C518 C517 1.369 . S
C518 H521 0.928 . S
C519 N515 1.345 . S
C519 C520 1.371 . S
C519 H522 0.931 . S
C520 C516 1.391 . S
C520 C519 1.371 . S
C520 H527 0.930 . S
H521 C518 0.928 . S
H522 C519 0.931 . S
H523 C499 0.930 1_556 S
H524 C496 0.930 . S
H525 C505 0.930 . S
H526 C517 0.929 . S
H527 C520 0.930 . S
C528 C529 1.351 . S
C528 N531 1.368 . S
C528 H533 0.931 . S
C529 C528 1.351 . S
C529 N530 1.373 . S
C529 H557 0.930 . S
N530 C529 1.373 . S
N530 C532 1.340 . S
N531 C528 1.368 . S
N531 C532 1.321 . S
N531 Co534 2.135 . S
C532 N530 1.340 . S
C532 N531 1.321 . S
C532 H556 0.930 . S
H533 C528 0.931 . S
Co534 N531 2.135 . S
Co534 N537 2.121 . S
Co534 O542 2.055 . S
Co534 O545 2.039 . S
Co534 N548 2.140 . S
C535 O536 1.227 . S
C535 O545 1.265 . S
O536 C535 1.227 . S
N537 Co534 2.121 . S
N537 C539 1.375 . S
N537 C540 1.313 . S
C538 C539 1.338 . S
C538 N541 1.377 . S
C538 H558 0.930 . S
C539 N537 1.375 . S
C539 C538 1.338 . S
C539 H543 0.931 . S
C540 N537 1.313 . S
C540 N541 1.344 . S
C540 H544 0.930 . S
N541 C538 1.377 . S
N541 C540 1.344 . S
O542 Co534 2.055 . S
O542 C546 1.253 . S
H543 C539 0.931 . S
H544 C540 0.930 . S
O545 Co534 2.039 . S
O545 C535 1.265 . S
C546 O542 1.253 . S
C546 O547 1.227 . S
O547 C546 1.227 . S
N548 Co534 2.140 . S
N548 C551 1.346 . S
N548 C552 1.345 . S
C549 C550 1.387 . S
C549 C553 1.391 . S
C550 C549 1.387 . S
C550 C551 1.369 . S
C550 H559 0.929 . S
C551 N548 1.346 . S
C551 C550 1.369 . S
C551 H554 0.928 . S
C552 N548 1.345 . S
C552 C553 1.371 . S
C552 H555 0.931 . S
C553 C549 1.391 . S
C553 C552 1.371 . S
C553 H560 0.930 . S
H554 C551 0.928 . S
H555 C552 0.931 . S
H556 C532 0.930 . S
H557 C529 0.930 . S
H558 C538 0.930 . S
H559 C550 0.929 . S
H560 C553 0.930 . S
C561 C562 1.351 . S
C561 N564 1.368 . S
C561 H566 0.931 . S
C562 C561 1.351 . S
C562 N563 1.373 . S
C562 H590 0.930 . S
N563 C562 1.373 . S
N563 C565 1.340 . S
N564 C561 1.368 . S
N564 C565 1.321 . S
N564 Co567 2.135 . S
C565 N563 1.340 . S
C565 N564 1.321 . S
C565 H589 0.930 . S
H566 C561 0.931 . S
Co567 N564 2.135 . S
Co567 N570 2.121 . S
Co567 O575 2.055 . S
Co567 O578 2.039 . S
Co567 N581 2.140 . S
C568 O569 1.227 . S
C568 O578 1.265 . S
O569 C568 1.227 . S
N570 Co567 2.121 . S
N570 C572 1.375 . S
N570 C573 1.313 . S
C571 C572 1.338 . S
C571 N574 1.377 . S
C571 H591 0.930 . S
C572 N570 1.375 . S
C572 C571 1.338 . S
C572 H576 0.931 . S
C573 N570 1.313 . S
C573 N574 1.344 . S
C573 H577 0.930 . S
N574 C571 1.377 . S
N574 C573 1.344 . S
O575 Co567 2.055 . S
O575 C579 1.253 . S
H576 C572 0.931 . S
H577 C573 0.930 . S
O578 Co567 2.039 . S
O578 C568 1.265 . S
C579 O575 1.253 . S
C579 O580 1.227 . S
O580 C579 1.227 . S
N581 Co567 2.140 . S
N581 C584 1.346 . S
N581 C585 1.345 . S
C582 C583 1.387 . S
C582 C586 1.391 . S
C583 C582 1.387 . S
C583 C584 1.369 . S
C583 H592 0.929 . S
C584 N581 1.346 . S
C584 C583 1.369 . S
C584 H587 0.928 . S
C585 N581 1.345 . S
C585 C586 1.371 . S
C585 H588 0.931 . S
C586 C582 1.391 . S
C586 C585 1.371 . S
C586 H593 0.930 . S
H587 C584 0.928 . S
H588 C585 0.931 . S
H589 C565 0.930 . S
H590 C562 0.930 . S
H591 C571 0.930 . S
H592 C583 0.929 . S
H593 C586 0.930 . S
C594 C595 1.351 . S
C594 N597 1.368 . S
C594 H599 0.931 . S
C595 C594 1.351 . S
C595 N596 1.373 1_565 S
C595 H623 0.930 . S
N596 C595 1.373 1_545 S
N596 C598 1.340 1_545 S
N597 C594 1.368 . S
N597 C598 1.321 . S
N597 Co600 2.135 . S
C598 N596 1.340 1_565 S
C598 N597 1.321 . S
C598 H622 0.930 1_565 S
H599 C594 0.931 . S
Co600 N597 2.135 . S
Co600 N603 2.121 . S
Co600 O608 2.055 . S
Co600 O611 2.039 . S
Co600 N614 2.140 . S
C601 O602 1.227 . S
C601 O611 1.265 . S
O602 C601 1.227 . S
N603 Co600 2.121 . S
N603 C605 1.375 . S
N603 C606 1.313 . S
C604 C605 1.338 . S
C604 N607 1.377 . S
C604 H624 0.930 . S
C605 N603 1.375 . S
C605 C604 1.338 . S
C605 H609 0.931 . S
C606 N603 1.313 . S
C606 N607 1.344 . S
C606 H610 0.930 . S
N607 C604 1.377 . S
N607 C606 1.344 . S
O608 Co600 2.055 . S
O608 C612 1.253 . S
H609 C605 0.931 . S
H610 C606 0.930 . S
O611 Co600 2.039 . S
O611 C601 1.265 . S
C612 O608 1.253 . S
C612 O613 1.227 . S
O613 C612 1.227 . S
N614 Co600 2.140 . S
N614 C617 1.346 . S
N614 C618 1.345 . S
C615 C616 1.387 . S
C615 C619 1.391 . S
C616 C615 1.387 . S
C616 C617 1.369 . S
C616 H625 0.929 . S
C617 N614 1.346 . S
C617 C616 1.369 . S
C617 H620 0.928 . S
C618 N614 1.345 . S
C618 C619 1.371 . S
C618 H621 0.931 . S
C619 C615 1.391 . S
C619 C618 1.371 . S
C619 H626 0.930 . S
H620 C617 0.928 . S
H621 C618 0.931 . S
H622 C598 0.930 1_545 S
H623 C595 0.930 . S
H624 C604 0.930 . S
H625 C616 0.929 . S
H626 C619 0.930 . S
C627 C628 1.351 . S
C627 N630 1.368 . S
C627 H632 0.931 . S
C628 C627 1.351 . S
C628 N629 1.373 . S
C628 H656 0.930 . S
N629 C628 1.373 . S
N629 C631 1.340 . S
N630 C627 1.368 . S
N630 C631 1.321 . S
N630 Co633 2.135 . S
C631 N629 1.340 . S
C631 N630 1.321 . S
C631 H655 0.930 . S
H632 C627 0.931 . S
Co633 N630 2.135 . S
Co633 N636 2.121 . S
Co633 O641 2.055 . S
Co633 O644 2.039 . S
Co633 N647 2.140 . S
C634 O635 1.227 . S
C634 O644 1.265 . S
O635 C634 1.227 . S
N636 Co633 2.121 . S
N636 C638 1.375 . S
N636 C639 1.313 . S
C637 C638 1.338 . S
C637 N640 1.377 . S
C637 H657 0.930 . S
C638 N636 1.375 . S
C638 C637 1.338 . S
C638 H642 0.931 . S
C639 N636 1.313 . S
C639 N640 1.344 . S
C639 H643 0.930 . S
N640 C637 1.377 . S
N640 C639 1.344 . S
O641 Co633 2.055 . S
O641 C645 1.253 . S
H642 C638 0.931 . S
H643 C639 0.930 . S
O644 Co633 2.039 . S
O644 C634 1.265 . S
C645 O641 1.253 . S
C645 O646 1.227 . S
O646 C645 1.227 . S
N647 Co633 2.140 . S
N647 C650 1.346 . S
N647 C651 1.345 . S
C648 C649 1.387 . S
C648 C652 1.391 . S
C649 C648 1.387 . S
C649 C650 1.369 . S
C649 H658 0.929 . S
C650 N647 1.346 . S
C650 C649 1.369 . S
C650 H653 0.928 . S
C651 N647 1.345 . S
C651 C652 1.371 . S
C651 H654 0.931 . S
C652 C648 1.391 . S
C652 C651 1.371 . S
C652 H659 0.930 . S
H653 C650 0.928 . S
H654 C651 0.931 . S
H655 C631 0.930 . S
H656 C628 0.930 . S
H657 C637 0.930 . S
H658 C649 0.929 . S
H659 C652 0.930 . S
C660 C661 1.351 . S
C660 N663 1.368 . S
C660 H665 0.931 . S
C661 C660 1.351 . S
C661 N662 1.373 1_545 S
C661 H689 0.930 . S
N662 C661 1.373 1_565 S
N662 C664 1.340 1_565 S
N663 C660 1.368 . S
N663 C664 1.321 . S
N663 Co666 2.135 . S
C664 N662 1.340 1_545 S
C664 N663 1.321 . S
C664 H688 0.930 1_545 S
H665 C660 0.931 . S
Co666 N663 2.135 . S
Co666 N669 2.121 . S
Co666 O674 2.055 . S
Co666 O677 2.039 . S
Co666 N680 2.140 . S
C667 O668 1.227 . S
C667 O677 1.265 . S
O668 C667 1.227 . S
N669 Co666 2.121 . S
N669 C671 1.375 . S
N669 C672 1.313 . S
C670 C671 1.338 . S
C670 N673 1.377 . S
C670 H690 0.930 . S
C671 N669 1.375 . S
C671 C670 1.338 . S
C671 H675 0.931 . S
C672 N669 1.313 . S
C672 N673 1.344 . S
C672 H676 0.930 . S
N673 C670 1.377 . S
N673 C672 1.344 . S
O674 Co666 2.055 . S
O674 C678 1.253 . S
H675 C671 0.931 . S
H676 C672 0.930 . S
O677 Co666 2.039 . S
O677 C667 1.265 . S
C678 O674 1.253 . S
C678 O679 1.227 . S
O679 C678 1.227 . S
N680 Co666 2.140 . S
N680 C683 1.346 . S
N680 C684 1.345 . S
C681 C682 1.387 . S
C681 C685 1.391 . S
C682 C681 1.387 . S
C682 C683 1.369 . S
C682 H691 0.929 . S
C683 N680 1.346 . S
C683 C682 1.369 . S
C683 H686 0.928 . S
C684 N680 1.345 . S
C684 C685 1.371 . S
C684 H687 0.931 . S
C685 C681 1.391 . S
C685 C684 1.371 . S
C685 H692 0.930 . S
H686 C683 0.928 . S
H687 C684 0.931 . S
H688 C664 0.930 1_565 S
H689 C661 0.930 . S
H690 C670 0.930 . S
H691 C682 0.929 . S
H692 C685 0.930 . S
C693 C694 1.351 . S
C693 N696 1.368 . S
C693 H698 0.931 . S
C694 C693 1.351 . S
C694 N695 1.373 . S
C694 H722 0.930 . S
N695 C694 1.373 . S
N695 C697 1.340 . S
N696 C693 1.368 . S
N696 C697 1.321 . S
N696 Co699 2.135 . S
C697 N695 1.340 . S
C697 N696 1.321 . S
C697 H721 0.930 . S
H698 C693 0.931 . S
Co699 N696 2.135 . S
Co699 N702 2.121 . S
Co699 O707 2.055 . S
Co699 O710 2.039 . S
Co699 N713 2.140 . S
C700 O701 1.227 . S
C700 O710 1.265 . S
O701 C700 1.227 . S
N702 Co699 2.121 . S
N702 C704 1.375 . S
N702 C705 1.313 . S
C703 C704 1.338 . S
C703 N706 1.377 . S
C703 H723 0.930 . S
C704 N702 1.375 . S
C704 C703 1.338 . S
C704 H708 0.931 . S
C705 N702 1.313 . S
C705 N706 1.344 . S
C705 H709 0.930 . S
N706 C703 1.377 . S
N706 C705 1.344 . S
O707 Co699 2.055 . S
O707 C711 1.253 . S
H708 C704 0.931 . S
H709 C705 0.930 . S
O710 Co699 2.039 . S
O710 C700 1.265 . S
C711 O707 1.253 . S
C711 O712 1.227 . S
O712 C711 1.227 . S
N713 Co699 2.140 . S
N713 C716 1.346 . S
N713 C717 1.345 . S
C714 C715 1.387 . S
C714 C718 1.391 . S
C715 C714 1.387 . S
C715 C716 1.369 . S
C715 H724 0.929 . S
C716 N713 1.346 . S
C716 C715 1.369 . S
C716 H719 0.928 . S
C717 N713 1.345 . S
C717 C718 1.371 . S
C717 H720 0.931 . S
C718 C714 1.391 . S
C718 C717 1.371 . S
C718 H725 0.930 . S
H719 C716 0.928 . S
H720 C717 0.931 . S
H721 C697 0.930 . S
H722 C694 0.930 . S
H723 C703 0.930 . S
H724 C715 0.929 . S
H725 C718 0.930 . S
C726 C727 1.351 . S
C726 N729 1.368 . S
C726 H731 0.931 . S
C727 C726 1.351 . S
C727 N728 1.373 . S
C727 H755 0.930 . S
N728 C727 1.373 . S
N728 C730 1.340 . S
N729 C726 1.368 . S
N729 C730 1.321 . S
N729 Co732 2.135 . S
C730 N728 1.340 . S
C730 N729 1.321 . S
C730 H754 0.930 . S
H731 C726 0.931 . S
Co732 N729 2.135 . S
Co732 N735 2.121 . S
Co732 O740 2.055 . S
Co732 O743 2.039 . S
Co732 N746 2.140 . S
C733 O734 1.227 . S
C733 O743 1.265 . S
O734 C733 1.227 . S
N735 Co732 2.121 . S
N735 C737 1.375 . S
N735 C738 1.313 . S
C736 C737 1.338 . S
C736 N739 1.377 . S
C736 H756 0.930 . S
C737 N735 1.375 . S
C737 C736 1.338 . S
C737 H741 0.931 . S
C738 N735 1.313 . S
C738 N739 1.344 . S
C738 H742 0.930 . S
N739 C736 1.377 . S
N739 C738 1.344 . S
O740 Co732 2.055 . S
O740 C744 1.253 . S
H741 C737 0.931 . S
H742 C738 0.930 . S
O743 Co732 2.039 . S
O743 C733 1.265 . S
C744 O740 1.253 . S
C744 O745 1.227 . S
O745 C744 1.227 . S
N746 Co732 2.140 . S
N746 C749 1.346 . S
N746 C750 1.345 . S
C747 C748 1.387 . S
C747 C751 1.391 . S
C748 C747 1.387 . S
C748 C749 1.369 . S
C748 H757 0.929 . S
C749 N746 1.346 . S
C749 C748 1.369 . S
C749 H752 0.928 . S
C750 N746 1.345 . S
C750 C751 1.371 . S
C750 H753 0.931 . S
C751 C747 1.391 . S
C751 C750 1.371 . S
C751 H758 0.930 . S
H752 C749 0.928 . S
H753 C750 0.931 . S
H754 C730 0.930 . S
H755 C727 0.930 . S
H756 C736 0.930 . S
H757 C748 0.929 . S
H758 C751 0.930 . S
C759 C760 1.351 . S
C759 N762 1.368 . S
C759 H764 0.931 . S
C760 C759 1.351 . S
C760 N761 1.373 . S
C760 H788 0.930 . S
N761 C760 1.373 . S
N761 C763 1.340 . S
N762 C759 1.368 . S
N762 C763 1.321 . S
N762 Co765 2.135 . S
C763 N761 1.340 . S
C763 N762 1.321 . S
C763 H787 0.930 . S
H764 C759 0.931 . S
Co765 N762 2.135 . S
Co765 N768 2.121 . S
Co765 O773 2.055 . S
Co765 O776 2.039 . S
Co765 N779 2.140 . S
C766 O767 1.227 . S
C766 O776 1.265 . S
O767 C766 1.227 . S
N768 Co765 2.121 . S
N768 C770 1.375 . S
N768 C771 1.313 . S
C769 C770 1.338 . S
C769 N772 1.377 . S
C769 H789 0.930 . S
C770 N768 1.375 . S
C770 C769 1.338 . S
C770 H774 0.931 . S
C771 N768 1.313 . S
C771 N772 1.344 . S
C771 H775 0.930 . S
N772 C769 1.377 . S
N772 C771 1.344 . S
O773 Co765 2.055 . S
O773 C777 1.253 . S
H774 C770 0.931 . S
H775 C771 0.930 . S
O776 Co765 2.039 . S
O776 C766 1.265 . S
C777 O773 1.253 . S
C777 O778 1.227 . S
O778 C777 1.227 . S
N779 Co765 2.140 . S
N779 C782 1.346 . S
N779 C783 1.345 . S
C780 C781 1.387 . S
C780 C784 1.391 . S
C781 C780 1.387 . S
C781 C782 1.369 . S
C781 H790 0.929 . S
C782 N779 1.346 . S
C782 C781 1.369 . S
C782 H785 0.928 . S
C783 N779 1.345 . S
C783 C784 1.371 . S
C783 H786 0.931 . S
C784 C780 1.391 . S
C784 C783 1.371 . S
C784 H791 0.930 . S
H785 C782 0.928 . S
H786 C783 0.931 . S
H787 C763 0.930 . S
H788 C760 0.930 . S
H789 C769 0.930 . S
H790 C781 0.929 . S
H791 C784 0.930 . S
H792 C798 0.930 . S
H793 C802 0.930 . S
H794 C807 0.929 . S
H795 C805 0.929 . S
H796 C800 0.929 . S
H797 C806 0.929 . S
C798 H792 0.930 . S
C798 C799 1.367 . S
C798 C806 1.378 . S
C799 C798 1.367 . S
C799 C807 1.433 . S
C800 H796 0.929 . S
C800 C802 1.378 . S
C800 C804 1.350 . S
C801 C804 1.463 . S
C801 C806 1.350 . S
C801 N809 1.427 . S
C802 H793 0.930 . S
C802 C800 1.378 . S
C802 C803 1.367 . S
C803 C802 1.367 . S
C803 C805 1.433 . S
C804 C800 1.350 . S
C804 C801 1.463 . S
C804 N808 1.427 . S
C805 H795 0.929 . S
C805 C803 1.433 . S
C805 N808 1.384 . S
C806 H797 0.929 . S
C806 C798 1.378 . S
C806 C801 1.350 . S
C807 H794 0.929 . S
C807 C799 1.433 . S
C807 N809 1.384 . S
N808 C804 1.427 . S
N808 C805 1.384 . S
N809 C801 1.427 . S
N809 C807 1.384 . S
H810 C816 0.930 . S
H811 C820 0.930 . S
H812 C825 0.929 . S
H813 C823 0.929 . S
H814 C818 0.929 . S
H815 C824 0.929 . S
C816 H810 0.930 . S
C816 C817 1.367 . S
C816 C824 1.378 . S
C817 C816 1.367 . S
C817 C825 1.433 . S
C818 H814 0.929 . S
C818 C820 1.378 . S
C818 C822 1.350 . S
C819 C822 1.463 . S
C819 C824 1.350 . S
C819 N827 1.427 . S
C820 H811 0.930 . S
C820 C818 1.378 . S
C820 C821 1.367 . S
C821 C820 1.367 . S
C821 C823 1.433 . S
C822 C818 1.350 . S
C822 C819 1.463 . S
C822 N826 1.427 . S
C823 H813 0.929 . S
C823 C821 1.433 . S
C823 N826 1.384 . S
C824 H815 0.929 . S
C824 C816 1.378 . S
C824 C819 1.350 . S
C825 H812 0.929 . S
C825 C817 1.433 . S
C825 N827 1.384 . S
N826 C822 1.427 . S
N826 C823 1.384 . S
N827 C819 1.427 . S
N827 C825 1.384 . S
H828 C834 0.930 . S
H829 C838 0.930 . S
H830 C843 0.929 . S
H831 C841 0.929 1_554 S
H832 C836 0.929 . S
H833 C842 0.929 . S
C834 H828 0.930 . S
C834 C835 1.367 . S
C834 C842 1.378 . S
C835 C834 1.367 . S
C835 C843 1.433 . S
C836 H832 0.929 . S
C836 C838 1.378 . S
C836 C840 1.350 . S
C837 C840 1.463 . S
C837 C842 1.350 . S
C837 N845 1.427 . S
C838 H829 0.930 . S
C838 C836 1.378 . S
C838 C839 1.367 . S
C839 C838 1.367 . S
C839 C841 1.433 . S
C840 C836 1.350 . S
C840 C837 1.463 . S
C840 N844 1.427 . S
C841 H831 0.929 1_556 S
C841 C839 1.433 . S
C841 N844 1.384 . S
C842 H833 0.929 . S
C842 C834 1.378 . S
C842 C837 1.350 . S
C843 H830 0.929 . S
C843 C835 1.433 . S
C843 N845 1.384 . S
N844 C840 1.427 . S
N844 C841 1.384 . S
N845 C837 1.427 . S
N845 C843 1.384 . S
H846 C852 0.930 . S
H847 C856 0.930 . S
H848 C861 0.929 . S
H849 C859 0.929 . S
H850 C854 0.929 . S
H851 C860 0.929 . S
C852 H846 0.930 . S
C852 C853 1.367 . S
C852 C860 1.378 . S
C853 C852 1.367 . S
C853 C861 1.433 . S
C854 H850 0.929 . S
C854 C856 1.378 . S
C854 C858 1.350 . S
C855 C858 1.463 . S
C855 C860 1.350 . S
C855 N863 1.427 . S
C856 H847 0.930 . S
C856 C854 1.378 . S
C856 C857 1.367 . S
C857 C856 1.367 . S
C857 C859 1.433 . S
C858 C854 1.350 . S
C858 C855 1.463 . S
C858 N862 1.427 . S
C859 H849 0.929 . S
C859 C857 1.433 . S
C859 N862 1.384 . S
C860 H851 0.929 . S
C860 C852 1.378 . S
C860 C855 1.350 . S
C861 H848 0.929 . S
C861 C853 1.433 . S
C861 N863 1.384 . S
N862 C858 1.427 . S
N862 C859 1.384 . S
N863 C855 1.427 . S
N863 C861 1.384 . S
H864 C870 0.930 . S
H865 C874 0.930 . S
H866 C879 0.929 . S
H867 C877 0.929 . S
H868 C872 0.929 . S
H869 C878 0.929 . S
C870 H864 0.930 . S
C870 C871 1.367 . S
C870 C878 1.378 . S
C871 C870 1.367 . S
C871 C879 1.433 . S
C872 H868 0.929 . S
C872 C874 1.378 . S
C872 C876 1.350 . S
C873 C876 1.463 . S
C873 C878 1.350 . S
C873 N881 1.427 . S
C874 H865 0.930 . S
C874 C872 1.378 . S
C874 C875 1.367 . S
C875 C874 1.367 . S
C875 C877 1.433 . S
C876 C872 1.350 . S
C876 C873 1.463 . S
C876 N880 1.427 . S
C877 H867 0.929 . S
C877 C875 1.433 . S
C877 N880 1.384 . S
C878 H869 0.929 . S
C878 C870 1.378 . S
C878 C873 1.350 . S
C879 H866 0.929 . S
C879 C871 1.433 . S
C879 N881 1.384 . S
N880 C876 1.427 . S
N880 C877 1.384 . S
N881 C873 1.427 . S
N881 C879 1.384 . S
H882 C888 0.930 . S
H883 C892 0.930 . S
H884 C897 0.929 . S
H885 C895 0.929 . S
H886 C890 0.929 . S
H887 C896 0.929 . S
C888 H882 0.930 . S
C888 C889 1.367 . S
C888 C896 1.378 1_545 S
C889 C888 1.367 . S
C889 C897 1.433 . S
C890 H886 0.929 . S
C890 C892 1.378 . S
C890 C894 1.350 . S
C891 C894 1.463 . S
C891 C896 1.350 . S
C891 N899 1.427 1_565 S
C892 H883 0.930 . S
C892 C890 1.378 . S
C892 C893 1.367 . S
C893 C892 1.367 . S
C893 C895 1.433 . S
C894 C890 1.350 . S
C894 C891 1.463 . S
C894 N898 1.427 . S
C895 H885 0.929 . S
C895 C893 1.433 . S
C895 N898 1.384 . S
C896 H887 0.929 . S
C896 C888 1.378 1_565 S
C896 C891 1.350 . S
C897 H884 0.929 . S
C897 C889 1.433 . S
C897 N899 1.384 . S
N898 C894 1.427 . S
N898 C895 1.384 . S
N899 C891 1.427 1_545 S
N899 C897 1.384 . S
H900 C906 0.930 . S
H901 C910 0.930 . S
H902 C915 0.929 . S
H903 C913 0.929 . S
H904 C908 0.929 . S
H905 C914 0.929 . S
C906 H900 0.930 . S
C906 C907 1.367 . S
C906 C914 1.378 . S
C907 C906 1.367 . S
C907 C915 1.433 . S
C908 H904 0.929 . S
C908 C910 1.378 . S
C908 C912 1.350 . S
C909 C912 1.463 . S
C909 C914 1.350 . S
C909 N917 1.427 . S
C910 H901 0.930 . S
C910 C908 1.378 . S
C910 C911 1.367 . S
C911 C910 1.367 . S
C911 C913 1.433 . S
C912 C908 1.350 . S
C912 C909 1.463 . S
C912 N916 1.427 . S
C913 H903 0.929 . S
C913 C911 1.433 . S
C913 N916 1.384 . S
C914 H905 0.929 . S
C914 C906 1.378 . S
C914 C909 1.350 . S
C915 H902 0.929 . S
C915 C907 1.433 . S
C915 N917 1.384 . S
N916 C912 1.427 . S
N916 C913 1.384 . S
N917 C909 1.427 . S
N917 C915 1.384 . S
H918 C924 0.930 . S
H919 C928 0.930 . S
H920 C933 0.929 . S
H921 C931 0.929 . S
H922 C926 0.929 . S
H923 C932 0.929 . S
C924 H918 0.930 . S
C924 C925 1.367 . S
C924 C932 1.378 1_565 S
C925 C924 1.367 . S
C925 C933 1.433 . S
C926 H922 0.929 . S
C926 C928 1.378 . S
C926 C930 1.350 . S
C927 C930 1.463 . S
C927 C932 1.350 . S
C927 N935 1.427 . S
C928 H919 0.930 . S
C928 C926 1.378 . S
C928 C929 1.367 . S
C929 C928 1.367 . S
C929 C931 1.433 . S
C930 C926 1.350 . S
C930 C927 1.463 . S
C930 N934 1.427 . S
C931 H921 0.929 . S
C931 C929 1.433 . S
C931 N934 1.384 . S
C932 H923 0.929 . S
C932 C924 1.378 1_545 S
C932 C927 1.350 . S
C933 H920 0.929 . S
C933 C925 1.433 . S
C933 N935 1.384 1_565 S
N934 C930 1.427 . S
N934 C931 1.384 . S
N935 C927 1.427 . S
N935 C933 1.384 1_545 S
H936 C942 0.930 . S
H937 C946 0.930 . S
H938 C951 0.929 . S
H939 C949 0.929 . S
H940 C944 0.929 . S
H941 C950 0.929 . S
C942 H936 0.930 . S
C942 C943 1.367 . S
C942 C950 1.378 . S
C943 C942 1.367 . S
C943 C951 1.433 . S
C944 H940 0.929 . S
C944 C946 1.378 . S
C944 C948 1.350 . S
C945 C948 1.463 . S
C945 C950 1.350 . S
C945 N953 1.427 . S
C946 H937 0.930 . S
C946 C944 1.378 . S
C946 C947 1.367 . S
C947 C946 1.367 . S
C947 C949 1.433 . S
C948 C944 1.350 . S
C948 C945 1.463 . S
C948 N952 1.427 . S
C949 H939 0.929 . S
C949 C947 1.433 . S
C949 N952 1.384 . S
C950 H941 0.929 . S
C950 C942 1.378 . S
C950 C945 1.350 . S
C951 H938 0.929 . S
C951 C943 1.433 . S
C951 N953 1.384 . S
N952 C948 1.427 . S
N952 C949 1.384 . S
N953 C945 1.427 . S
N953 C951 1.384 . S
H954 C960 0.930 . S
H955 C964 0.930 . S
H956 C969 0.929 . S
H957 C967 0.929 . S
H958 C962 0.929 . S
H959 C968 0.929 . S
C960 H954 0.930 . S
C960 C961 1.367 . S
C960 C968 1.378 . S
C961 C960 1.367 . S
C961 C969 1.433 . S
C962 H958 0.929 . S
C962 C964 1.378 . S
C962 C966 1.350 . S
C963 C966 1.463 . S
C963 C968 1.350 . S
C963 N971 1.427 . S
C964 H955 0.930 . S
C964 C962 1.378 . S
C964 C965 1.367 . S
C965 C964 1.367 . S
C965 C967 1.433 . S
C966 C962 1.350 . S
C966 C963 1.463 . S
C966 N970 1.427 . S
C967 H957 0.929 . S
C967 C965 1.433 . S
C967 N970 1.384 . S
C968 H959 0.929 . S
C968 C960 1.378 . S
C968 C963 1.350 . S
C969 H956 0.929 . S
C969 C961 1.433 . S
C969 N971 1.384 . S
N970 C966 1.427 . S
N970 C967 1.384 . S
N971 C963 1.427 . S
N971 C969 1.384 . S
H972 C978 0.930 . S
H973 C982 0.930 . S
H974 C987 0.929 . S
H975 C985 0.929 1_655 S
H976 C980 0.929 . S
H977 C986 0.929 . S
C978 H972 0.930 . S
C978 C979 1.367 . S
C978 C986 1.378 . S
C979 C978 1.367 . S
C979 C987 1.433 . S
C980 H976 0.929 . S
C980 C982 1.378 . S
C980 C984 1.350 . S
C981 C984 1.463 . S
C981 C986 1.350 . S
C981 N989 1.427 . S
C982 H973 0.930 . S
C982 C980 1.378 . S
C982 C983 1.367 . S
C983 C982 1.367 . S
C983 C985 1.433 . S
C984 C980 1.350 . S
C984 C981 1.463 . S
C984 N988 1.427 . S
C985 H975 0.929 1_455 S
C985 C983 1.433 . S
C985 N988 1.384 . S
C986 H977 0.929 . S
C986 C978 1.378 . S
C986 C981 1.350 . S
C987 H974 0.929 . S
C987 C979 1.433 . S
C987 N989 1.384 . S
N988 C984 1.427 . S
N988 C985 1.384 . S
N989 C981 1.427 . S
N989 C987 1.384 . S
H990 C996 0.930 . S
H991 C1000 0.930 . S
H992 C1005 0.929 . S
H993 C1003 0.929 . S
H994 C998 0.929 . S
H995 C1004 0.929 . S
C996 H990 0.930 . S
C996 C997 1.367 . S
C996 C1004 1.378 1_455 S
C997 C996 1.367 . S
C997 C1005 1.433 . S
C998 H994 0.929 . S
C998 C1000 1.378 . S
C998 C1002 1.350 . S
C999 C1002 1.463 . S
C999 C1004 1.350 . S
C999 N1007 1.427 . S
C1000 H991 0.930 . S
C1000 C998 1.378 . S
C1000 C1001 1.367 . S
C1001 C1000 1.367 . S
C1001 C1003 1.433 . S
C1002 C998 1.350 . S
C1002 C999 1.463 . S
C1002 N1006 1.427 . S
C1003 H993 0.929 . S
C1003 C1001 1.433 . S
C1003 N1006 1.384 . S
C1004 H995 0.929 . S
C1004 C996 1.378 1_655 S
C1004 C999 1.350 . S
C1005 H992 0.929 . S
C1005 C997 1.433 . S
C1005 N1007 1.384 1_455 S
N1006 C1002 1.427 . S
N1006 C1003 1.384 . S
N1007 C999 1.427 . S
N1007 C1005 1.384 1_655 S
H1008 C1014 0.930 . S
H1009 C1018 0.930 . S
H1010 C1023 0.929 . S
H1011 C1021 0.929 . S
H1012 C1016 0.929 . S
H1013 C1022 0.929 . S
C1014 H1008 0.930 . S
C1014 C1015 1.367 . S
C1014 C1022 1.378 . S
C1015 C1014 1.367 . S
C1015 C1023 1.433 . S
C1016 H1012 0.929 . S
C1016 C1018 1.378 . S
C1016 C1020 1.350 . S
C1017 C1020 1.463 . S
C1017 C1022 1.350 . S
C1017 N1025 1.427 . S
C1018 H1009 0.930 . S
C1018 C1016 1.378 . S
C1018 C1019 1.367 . S
C1019 C1018 1.367 . S
C1019 C1021 1.433 . S
C1020 C1016 1.350 . S
C1020 C1017 1.463 . S
C1020 N1024 1.427 . S
C1021 H1011 0.929 . S
C1021 C1019 1.433 . S
C1021 N1024 1.384 . S
C1022 H1013 0.929 . S
C1022 C1014 1.378 . S
C1022 C1017 1.350 . S
C1023 H1010 0.929 . S
C1023 C1015 1.433 . S
C1023 N1025 1.384 . S
N1024 C1020 1.427 . S
N1024 C1021 1.384 . S
N1025 C1017 1.427 . S
N1025 C1023 1.384 . S
H1026 C1032 0.930 . S
H1027 C1036 0.930 . S
H1028 C1041 0.929 . S
H1029 C1039 0.929 . S
H1030 C1034 0.929 . S
H1031 C1040 0.929 . S
C1032 H1026 0.930 . S
C1032 C1033 1.367 . S
C1032 C1040 1.378 . S
C1033 C1032 1.367 . S
C1033 C1041 1.433 . S
C1034 H1030 0.929 . S
C1034 C1036 1.378 . S
C1034 C1038 1.350 . S
C1035 C1038 1.463 . S
C1035 C1040 1.350 . S
C1035 N1043 1.427 . S
C1036 H1027 0.930 . S
C1036 C1034 1.378 . S
C1036 C1037 1.367 . S
C1037 C1036 1.367 . S
C1037 C1039 1.433 . S
C1038 C1034 1.350 . S
C1038 C1035 1.463 . S
C1038 N1042 1.427 . S
C1039 H1029 0.929 . S
C1039 C1037 1.433 . S
C1039 N1042 1.384 . S
C1040 H1031 0.929 . S
C1040 C1032 1.378 . S
C1040 C1035 1.350 . S
C1041 H1028 0.929 . S
C1041 C1033 1.433 . S
C1041 N1043 1.384 . S
N1042 C1038 1.427 . S
N1042 C1039 1.384 . S
N1043 C1035 1.427 . S
N1043 C1041 1.384 . S
H1044 C1050 0.930 . S
H1045 C1054 0.930 . S
H1046 C1059 0.929 . S
H1047 C1057 0.929 . S
H1048 C1052 0.929 . S
H1049 C1058 0.929 . S
C1050 H1044 0.930 . S
C1050 C1051 1.367 . S
C1050 C1058 1.378 . S
C1051 C1050 1.367 . S
C1051 C1059 1.433 . S
C1052 H1048 0.929 . S
C1052 C1054 1.378 . S
C1052 C1056 1.350 . S
C1053 C1056 1.463 . S
C1053 C1058 1.350 . S
C1053 N1061 1.427 . S
C1054 H1045 0.930 . S
C1054 C1052 1.378 . S
C1054 C1055 1.367 . S
C1055 C1054 1.367 . S
C1055 C1057 1.433 . S
C1056 C1052 1.350 . S
C1056 C1053 1.463 . S
C1056 N1060 1.427 . S
C1057 H1047 0.929 . S
C1057 C1055 1.433 . S
C1057 N1060 1.384 . S
C1058 H1049 0.929 . S
C1058 C1050 1.378 . S
C1058 C1053 1.350 . S
C1059 H1046 0.929 . S
C1059 C1051 1.433 . S
C1059 N1061 1.384 . S
N1060 C1056 1.427 . S
N1060 C1057 1.384 . S
N1061 C1053 1.427 . S
N1061 C1059 1.384 . S
H1062 C1068 0.930 . S
H1063 C1072 0.930 . S
H1064 C1077 0.929 . S
H1065 C1075 0.929 . S
H1066 C1070 0.929 . S
H1067 C1076 0.937 . S
C1068 H1062 0.930 . S
C1068 C1069 1.367 . S
C1068 C1076 1.351 1_655 S
C1069 C1068 1.367 . S
C1069 C1077 1.433 . S
C1070 H1066 0.929 . S
C1070 C1072 1.378 . S
C1070 C1074 1.350 . S
C1071 C1074 1.463 . S
C1071 C1076 1.369 . S
C1071 N1079 1.427 . S
C1072 H1063 0.930 . S
C1072 C1070 1.378 . S
C1072 C1073 1.367 . S
C1073 C1072 1.367 . S
C1073 C1075 1.433 . S
C1074 C1070 1.350 . S
C1074 C1071 1.463 . S
C1074 N1078 1.427 . S
C1075 H1065 0.929 . S
C1075 C1073 1.433 . S
C1075 N1078 1.384 . S
C1076 H1067 0.937 . S
C1076 C1068 1.351 1_455 S
C1076 C1071 1.369 . S
C1077 H1064 0.929 . S
C1077 C1069 1.433 . S
C1077 N1079 1.384 1_655 S
N1078 C1074 1.427 . S
N1078 C1075 1.384 . S
N1079 C1071 1.427 . S
N1079 C1077 1.384 1_455 S
H1080 C1086 0.930 . S
H1081 C1090 0.930 . S
H1082 C1095 0.929 . S
H1083 C1093 0.929 . S
H1084 C1088 0.929 . S
H1085 C1094 0.929 . S
C1086 H1080 0.930 . S
C1086 C1087 1.367 . S
C1086 C1094 1.378 . S
C1087 C1086 1.367 . S
C1087 C1095 1.433 . S
C1088 H1084 0.929 . S
C1088 C1090 1.378 . S
C1088 C1092 1.350 . S
C1089 C1092 1.463 . S
C1089 C1094 1.350 . S
C1089 N1097 1.427 . S
C1090 H1081 0.930 . S
C1090 C1088 1.378 . S
C1090 C1091 1.367 . S
C1091 C1090 1.367 . S
C1091 C1093 1.433 . S
C1092 C1088 1.350 . S
C1092 C1089 1.463 . S
C1092 N1096 1.427 . S
C1093 H1083 0.929 . S
C1093 C1091 1.433 . S
C1093 N1096 1.384 . S
C1094 H1085 0.929 . S
C1094 C1086 1.378 . S
C1094 C1089 1.350 . S
C1095 H1082 0.929 . S
C1095 C1087 1.433 . S
C1095 N1097 1.384 . S
N1096 C1092 1.427 . S
N1096 C1093 1.384 . S
N1097 C1089 1.427 . S
N1097 C1095 1.384 . S
H1098 C1104 0.930 . S
H1099 C1108 0.930 . S
H1100 C1113 0.929 . S
H1101 C1111 0.929 1_565 S
H1102 C1106 0.929 . S
H1103 C1112 0.929 . S
C1104 H1098 0.930 . S
C1104 C1105 1.367 . S
C1104 C1112 1.378 . S
C1105 C1104 1.367 . S
C1105 C1113 1.433 . S
C1106 H1102 0.929 . S
C1106 C1108 1.378 . S
C1106 C1110 1.350 . S
C1107 C1110 1.463 . S
C1107 C1112 1.350 . S
C1107 N1115 1.427 . S
C1108 H1099 0.930 . S
C1108 C1106 1.378 . S
C1108 C1109 1.367 . S
C1109 C1108 1.367 . S
C1109 C1111 1.433 . S
C1110 C1106 1.350 . S
C1110 C1107 1.463 . S
C1110 N1114 1.427 . S
C1111 H1101 0.929 1_545 S
C1111 C1109 1.433 . S
C1111 N1114 1.384 . S
C1112 H1103 0.929 . S
C1112 C1104 1.378 . S
C1112 C1107 1.350 . S
C1113 H1100 0.929 . S
C1113 C1105 1.433 . S
C1113 N1115 1.384 . S
N1114 C1110 1.427 . S
N1114 C1111 1.384 . S
N1115 C1107 1.427 . S
N1115 C1113 1.384 . S
H1116 C1122 0.930 . S
H1117 C1126 0.930 . S
H1118 C1131 0.929 . S
H1119 C1129 0.929 . S
H1120 C1124 0.929 . S
H1121 C1130 0.929 . S
C1122 H1116 0.930 . S
C1122 C1123 1.367 . S
C1122 C1130 1.378 . S
C1123 C1122 1.367 . S
C1123 C1131 1.433 . S
C1124 H1120 0.929 . S
C1124 C1126 1.378 . S
C1124 C1128 1.350 . S
C1125 C1128 1.463 . S
C1125 C1130 1.350 . S
C1125 N1133 1.427 . S
C1126 H1117 0.930 . S
C1126 C1124 1.378 . S
C1126 C1127 1.367 . S
C1127 C1126 1.367 . S
C1127 C1129 1.433 . S
C1128 C1124 1.350 . S
C1128 C1125 1.463 . S
C1128 N1132 1.427 . S
C1129 H1119 0.929 . S
C1129 C1127 1.433 . S
C1129 N1132 1.384 . S
C1130 H1121 0.929 . S
C1130 C1122 1.378 . S
C1130 C1125 1.350 . S
C1131 H1118 0.929 . S
C1131 C1123 1.433 . S
C1131 N1133 1.384 . S
N1132 C1128 1.427 . S
N1132 C1129 1.384 . S
N1133 C1125 1.427 . S
N1133 C1131 1.384 . S
H1134 C1140 0.930 1_545 S
H1135 C1144 0.930 . S
H1136 C1149 0.929 . S
H1137 C1147 0.929 . S
H1138 C1142 0.929 . S
H1139 C1148 0.929 . S
C1140 H1134 0.930 1_565 S
C1140 C1141 1.367 . S
C1140 C1148 1.378 . S
C1141 C1140 1.367 . S
C1141 C1149 1.433 . S
C1142 H1138 0.929 . S
C1142 C1144 1.378 . S
C1142 C1146 1.350 . S
C1143 C1146 1.463 . S
C1143 C1148 1.350 . S
C1143 N1151 1.427 . S
C1144 H1135 0.930 . S
C1144 C1142 1.378 . S
C1144 C1145 1.367 . S
C1145 C1144 1.367 . S
C1145 C1147 1.433 . S
C1146 C1142 1.350 . S
C1146 C1143 1.463 . S
C1146 N1150 1.427 . S
C1147 H1137 0.929 . S
C1147 C1145 1.433 . S
C1147 N1150 1.384 . S
C1148 H1139 0.929 . S
C1148 C1140 1.378 . S
C1148 C1143 1.350 . S
C1149 H1136 0.929 . S
C1149 C1141 1.433 . S
C1149 N1151 1.384 . S
N1150 C1146 1.427 . S
N1150 C1147 1.384 . S
N1151 C1143 1.427 . S
N1151 C1149 1.384 . S
H1152 C1158 0.930 . S
H1153 C1162 0.930 . S
H1154 C1167 0.929 . S
H1155 C1165 0.929 . S
H1156 C1160 0.930 . S
H1157 C1166 0.929 . S
C1158 H1152 0.930 . S
C1158 C1159 1.367 . S
C1158 C1166 1.378 . S
C1159 C1158 1.367 . S
C1159 C1167 1.433 . S
C1160 H1156 0.930 . S
C1160 C1162 1.372 1_554 S
C1160 C1164 1.354 . S
C1161 C1164 1.463 . S
C1161 C1166 1.350 . S
C1161 N1169 1.427 . S
C1162 H1153 0.930 . S
C1162 C1160 1.372 1_556 S
C1162 C1163 1.367 . S
C1163 C1162 1.367 . S
C1163 C1165 1.433 . S
C1164 C1160 1.354 . S
C1164 C1161 1.463 . S
C1164 N1168 1.427 . S
C1165 H1155 0.929 . S
C1165 C1163 1.433 . S
C1165 N1168 1.384 1_556 S
C1166 H1157 0.929 . S
C1166 C1158 1.378 . S
C1166 C1161 1.350 . S
C1167 H1154 0.929 . S
C1167 C1159 1.433 . S
C1167 N1169 1.384 . S
N1168 C1164 1.427 . S
N1168 C1165 1.384 1_554 S
N1169 C1161 1.427 . S
N1169 C1167 1.384 . S
H1170 C1176 0.930 . S
H1171 C1180 0.930 . S
H1172 C1185 0.929 . S
H1173 C1183 0.929 . S
H1174 C1178 0.929 . S
H1175 C1184 0.929 . S
C1176 H1170 0.930 . S
C1176 C1177 1.367 . S
C1176 C1184 1.378 . S
C1177 C1176 1.367 . S
C1177 C1185 1.433 . S
C1178 H1174 0.929 . S
C1178 C1180 1.378 . S
C1178 C1182 1.350 . S
C1179 C1182 1.463 . S
C1179 C1184 1.350 . S
C1179 N1187 1.427 . S
C1180 H1171 0.930 . S
C1180 C1178 1.378 . S
C1180 C1181 1.367 . S
C1181 C1180 1.367 . S
C1181 C1183 1.433 . S
C1182 C1178 1.350 . S
C1182 C1179 1.463 . S
C1182 N1186 1.427 . S
C1183 H1173 0.929 . S
C1183 C1181 1.433 . S
C1183 N1186 1.384 . S
C1184 H1175 0.929 . S
C1184 C1176 1.378 . S
C1184 C1179 1.350 . S
C1185 H1172 0.929 . S
C1185 C1177 1.433 . S
C1185 N1187 1.384 . S
N1186 C1182 1.427 . S
N1186 C1183 1.384 . S
N1187 C1179 1.427 . S
N1187 C1185 1.384 . S
H1188 C1194 0.930 . S
H1189 C1198 0.930 . S
H1190 C1203 0.929 . S
H1191 C1201 0.929 . S
H1192 C1196 0.929 . S
H1193 C1202 0.929 . S
C1194 H1188 0.930 . S
C1194 C1195 1.367 . S
C1194 C1202 1.378 . S
C1195 C1194 1.367 . S
C1195 C1203 1.433 . S
C1196 H1192 0.929 . S
C1196 C1198 1.378 . S
C1196 C1200 1.350 . S
C1197 C1200 1.463 . S
C1197 C1202 1.350 . S
C1197 N1205 1.427 . S
C1198 H1189 0.930 . S
C1198 C1196 1.378 . S
C1198 C1199 1.367 . S
C1199 C1198 1.367 . S
C1199 C1201 1.433 . S
C1200 C1196 1.350 . S
C1200 C1197 1.463 . S
C1200 N1204 1.427 . S
C1201 H1191 0.929 . S
C1201 C1199 1.433 . S
C1201 N1204 1.384 . S
C1202 H1193 0.929 . S
C1202 C1194 1.378 . S
C1202 C1197 1.350 . S
C1203 H1190 0.929 . S
C1203 C1195 1.433 . S
C1203 N1205 1.384 . S
N1204 C1200 1.427 . S
N1204 C1201 1.384 . S
N1205 C1197 1.427 . S
N1205 C1203 1.384 . S
H1206 C1212 0.930 . S
H1207 C1216 0.930 . S
H1208 C1221 0.929 . S
H1209 C1219 0.929 . S
H1210 C1214 0.929 . S
H1211 C1220 0.929 . S
C1212 H1206 0.930 . S
C1212 C1213 1.367 . S
C1212 C1220 1.378 1_554 S
C1213 C1212 1.367 . S
C1213 C1221 1.433 . S
C1214 H1210 0.929 . S
C1214 C1216 1.378 . S
C1214 C1218 1.350 . S
C1215 C1218 1.463 . S
C1215 C1220 1.350 . S
C1215 N1223 1.427 1_556 S
C1216 H1207 0.930 . S
C1216 C1214 1.378 . S
C1216 C1217 1.367 . S
C1217 C1216 1.367 . S
C1217 C1219 1.433 . S
C1218 C1214 1.350 . S
C1218 C1215 1.463 . S
C1218 N1222 1.427 . S
C1219 H1209 0.929 . S
C1219 C1217 1.433 . S
C1219 N1222 1.384 . S
C1220 H1211 0.929 . S
C1220 C1212 1.378 1_556 S
C1220 C1215 1.350 . S
C1221 H1208 0.929 . S
C1221 C1213 1.433 . S
C1221 N1223 1.384 . S
N1222 C1218 1.427 . S
N1222 C1219 1.384 . S
N1223 C1215 1.427 1_554 S
N1223 C1221 1.384 . S
H1224 C1230 0.930 . S
H1225 C1234 0.930 . S
H1226 C1239 0.929 . S
H1227 C1237 0.929 . S
H1228 C1232 0.929 . S
H1229 C1238 0.929 . S
C1230 H1224 0.930 . S
C1230 C1231 1.367 . S
C1230 C1238 1.378 . S
C1231 C1230 1.367 . S
C1231 C1239 1.433 . S
C1232 H1228 0.929 . S
C1232 C1234 1.378 . S
C1232 C1236 1.350 . S
C1233 C1236 1.463 . S
C1233 C1238 1.350 . S
C1233 N1241 1.427 . S
C1234 H1225 0.930 . S
C1234 C1232 1.378 . S
C1234 C1235 1.367 . S
C1235 C1234 1.367 . S
C1235 C1237 1.433 . S
C1236 C1232 1.350 . S
C1236 C1233 1.463 . S
C1236 N1240 1.427 . S
C1237 H1227 0.929 . S
C1237 C1235 1.433 . S
C1237 N1240 1.384 . S
C1238 H1229 0.929 . S
C1238 C1230 1.378 . S
C1238 C1233 1.350 . S
C1239 H1226 0.929 . S
C1239 C1231 1.433 . S
C1239 N1241 1.384 . S
N1240 C1236 1.427 . S
N1240 C1237 1.384 . S
N1241 C1233 1.427 . S
N1241 C1239 1.384 . S
H1242 C1248 0.930 . S
H1243 C1252 0.930 . S
H1244 C1257 0.929 . S
H1245 C1255 0.929 . S
H1246 C1250 0.929 . S
H1247 C1256 0.929 . S
C1248 H1242 0.930 . S
C1248 C1249 1.367 . S
C1248 C1256 1.378 . S
C1249 C1248 1.367 . S
C1249 C1257 1.433 . S
C1250 H1246 0.929 . S
C1250 C1252 1.378 . S
C1250 C1254 1.350 . S
C1251 C1254 1.463 1_556 S
C1251 C1256 1.350 . S
C1251 N1259 1.427 . S
C1252 H1243 0.930 . S
C1252 C1250 1.378 . S
C1252 C1253 1.367 . S
C1253 C1252 1.367 . S
C1253 C1255 1.433 . S
C1254 C1250 1.350 . S
C1254 C1251 1.463 1_554 S
C1254 N1258 1.427 . S
C1255 H1245 0.929 . S
C1255 C1253 1.433 . S
C1255 N1258 1.384 . S
C1256 H1247 0.929 . S
C1256 C1248 1.378 . S
C1256 C1251 1.350 . S
C1257 H1244 0.929 . S
C1257 C1249 1.433 . S
C1257 N1259 1.384 . S
N1258 C1254 1.427 . S
N1258 C1255 1.384 . S
N1259 C1251 1.427 . S
N1259 C1257 1.384 . S
H1260 C1266 0.930 . S
H1261 C1270 0.930 . S
H1262 C1275 0.929 . S
H1263 C1273 0.929 . S
H1264 C1268 0.929 . S
H1265 C1274 0.929 . S
C1266 H1260 0.930 . S
C1266 C1267 1.367 . S
C1266 C1274 1.378 . S
C1267 C1266 1.367 . S
C1267 C1275 1.433 . S
C1268 H1264 0.929 . S
C1268 C1270 1.378 . S
C1268 C1272 1.350 . S
C1269 C1272 1.463 . S
C1269 C1274 1.350 . S
C1269 N1277 1.427 . S
C1270 H1261 0.930 . S
C1270 C1268 1.378 . S
C1270 C1271 1.367 . S
C1271 C1270 1.367 . S
C1271 C1273 1.433 . S
C1272 C1268 1.350 . S
C1272 C1269 1.463 . S
C1272 N1276 1.427 . S
C1273 H1263 0.929 . S
C1273 C1271 1.433 . S
C1273 N1276 1.384 . S
C1274 H1265 0.929 . S
C1274 C1266 1.378 . S
C1274 C1269 1.350 . S
C1275 H1262 0.929 . S
C1275 C1267 1.433 . S
C1275 N1277 1.384 . S
N1276 C1272 1.427 . S
N1276 C1273 1.384 . S
N1277 C1269 1.427 . S
N1277 C1275 1.384 . S
H1278 C1284 0.930 . S
H1279 C1288 0.930 1_655 S
H1280 C1293 0.929 . S
H1281 C1291 0.929 . S
H1282 C1286 0.929 . S
H1283 C1292 0.929 . S
C1284 H1278 0.930 . S
C1284 C1285 1.367 . S
C1284 C1292 1.378 . S
C1285 C1284 1.367 . S
C1285 C1293 1.433 . S
C1286 H1282 0.929 . S
C1286 C1288 1.378 . S
C1286 C1290 1.350 . S
C1287 C1290 1.463 . S
C1287 C1292 1.350 . S
C1287 N1295 1.427 . S
C1288 H1279 0.930 1_455 S
C1288 C1286 1.378 . S
C1288 C1289 1.367 . S
C1289 C1288 1.367 . S
C1289 C1291 1.433 . S
C1290 C1286 1.350 . S
C1290 C1287 1.463 . S
C1290 N1294 1.427 . S
C1291 H1281 0.929 . S
C1291 C1289 1.433 . S
C1291 N1294 1.384 . S
C1292 H1283 0.929 . S
C1292 C1284 1.378 . S
C1292 C1287 1.350 . S
C1293 H1280 0.929 . S
C1293 C1285 1.433 . S
C1293 N1295 1.384 . S
N1294 C1290 1.427 . S
N1294 C1291 1.384 . S
N1295 C1287 1.427 . S
N1295 C1293 1.384 . S
H1296 C1302 0.930 . S
H1297 C1306 0.930 . S
H1298 C1311 0.929 . S
H1299 C1309 0.929 . S
H1300 C1304 0.929 . S
H1301 C1310 0.929 . S
C1302 H1296 0.930 . S
C1302 C1303 1.367 . S
C1302 C1310 1.378 . S
C1303 C1302 1.367 . S
C1303 C1311 1.433 . S
C1304 H1300 0.929 . S
C1304 C1306 1.378 . S
C1304 C1308 1.350 . S
C1305 C1308 1.463 . S
C1305 C1310 1.350 . S
C1305 N1313 1.427 . S
C1306 H1297 0.930 . S
C1306 C1304 1.378 . S
C1306 C1307 1.367 . S
C1307 C1306 1.367 . S
C1307 C1309 1.433 . S
C1308 C1304 1.350 . S
C1308 C1305 1.463 . S
C1308 N1312 1.427 . S
C1309 H1299 0.929 . S
C1309 C1307 1.433 . S
C1309 N1312 1.384 . S
C1310 H1301 0.929 . S
C1310 C1302 1.378 . S
C1310 C1305 1.350 . S
C1311 H1298 0.929 . S
C1311 C1303 1.433 . S
C1311 N1313 1.384 . S
N1312 C1308 1.427 . S
N1312 C1309 1.384 . S
N1313 C1305 1.427 . S
N1313 C1311 1.384 . S
H1314 C1320 0.930 . S
H1315 C1324 0.930 . S
H1316 C1329 0.929 . S
H1317 C1327 0.929 . S
H1318 C1322 0.929 . S
H1319 C1328 0.929 . S
C1320 H1314 0.930 . S
C1320 C1321 1.367 . S
C1320 C1328 1.378 . S
C1321 C1320 1.367 . S
C1321 C1329 1.433 . S
C1322 H1318 0.929 . S
C1322 C1324 1.378 . S
C1322 C1326 1.350 . S
C1323 C1326 1.463 . S
C1323 C1328 1.350 . S
C1323 N1331 1.427 . S
C1324 H1315 0.930 . S
C1324 C1322 1.378 . S
C1324 C1325 1.367 . S
C1325 C1324 1.367 . S
C1325 C1327 1.433 . S
C1326 C1322 1.350 . S
C1326 C1323 1.463 . S
C1326 N1330 1.427 . S
C1327 H1317 0.929 . S
C1327 C1325 1.433 . S
C1327 N1330 1.384 . S
C1328 H1319 0.929 . S
C1328 C1320 1.378 . S
C1328 C1323 1.350 . S
C1329 H1316 0.929 . S
C1329 C1321 1.433 . S
C1329 N1331 1.384 . S
N1330 C1326 1.427 . S
N1330 C1327 1.384 . S
N1331 C1323 1.427 . S
N1331 C1329 1.384 . S
H1332 C1338 0.930 . S
H1333 C1342 0.930 . S
H1334 C1347 0.929 . S
H1335 C1345 0.929 . S
H1336 C1340 0.929 . S
H1337 C1346 0.929 . S
C1338 H1332 0.930 . S
C1338 C1339 1.367 . S
C1338 C1346 1.378 . S
C1339 C1338 1.367 . S
C1339 C1347 1.433 . S
C1340 H1336 0.929 . S
C1340 C1342 1.378 . S
C1340 C1344 1.350 . S
C1341 C1344 1.463 . S
C1341 C1346 1.350 . S
C1341 N1349 1.427 . S
C1342 H1333 0.930 . S
C1342 C1340 1.378 . S
C1342 C1343 1.367 . S
C1343 C1342 1.367 . S
C1343 C1345 1.433 . S
C1344 C1340 1.350 . S
C1344 C1341 1.463 . S
C1344 N1348 1.427 . S
C1345 H1335 0.929 . S
C1345 C1343 1.433 . S
C1345 N1348 1.384 . S
C1346 H1337 0.929 . S
C1346 C1338 1.378 . S
C1346 C1341 1.350 . S
C1347 H1334 0.929 . S
C1347 C1339 1.433 . S
C1347 N1349 1.384 . S
N1348 C1344 1.427 . S
N1348 C1345 1.384 . S
N1349 C1341 1.427 . S
N1349 C1347 1.384 . S
H1350 C1356 0.930 . S
H1351 C1360 0.930 . S
H1352 C1365 0.929 1_455 S
H1353 C1363 0.929 . S
H1354 C1358 0.929 . S
H1355 C1364 0.929 . S
C1356 H1350 0.930 . S
C1356 C1357 1.367 . S
C1356 C1364 1.378 . S
C1357 C1356 1.367 . S
C1357 C1365 1.433 . S
C1358 H1354 0.929 . S
C1358 C1360 1.378 . S
C1358 C1362 1.350 . S
C1359 C1362 1.463 1_556 S
C1359 C1364 1.350 . S
C1359 N1367 1.427 . S
C1360 H1351 0.930 . S
C1360 C1358 1.378 . S
C1360 C1361 1.367 . S
C1361 C1360 1.367 . S
C1361 C1363 1.433 . S
C1362 C1358 1.350 . S
C1362 C1359 1.463 1_554 S
C1362 N1366 1.427 . S
C1363 H1353 0.929 . S
C1363 C1361 1.433 . S
C1363 N1366 1.384 . S
C1364 H1355 0.929 . S
C1364 C1356 1.378 . S
C1364 C1359 1.350 . S
C1365 H1352 0.929 1_655 S
C1365 C1357 1.433 . S
C1365 N1367 1.384 . S
N1366 C1362 1.427 . S
N1366 C1363 1.384 . S
N1367 C1359 1.427 . S
N1367 C1365 1.384 . S
H1368 C1374 0.930 . S
H1369 C1378 0.930 . S
H1370 C1383 0.929 . S
H1371 C1381 0.929 . S
H1372 C1376 0.929 . S
H1373 C1382 0.929 . S
C1374 H1368 0.930 . S
C1374 C1375 1.367 . S
C1374 C1382 1.378 . S
C1375 C1374 1.367 . S
C1375 C1383 1.433 . S
C1376 H1372 0.929 . S
C1376 C1378 1.378 . S
C1376 C1380 1.350 . S
C1377 C1380 1.463 . S
C1377 C1382 1.350 . S
C1377 N1385 1.427 . S
C1378 H1369 0.930 . S
C1378 C1376 1.378 . S
C1378 C1379 1.367 . S
C1379 C1378 1.367 . S
C1379 C1381 1.433 . S
C1380 C1376 1.350 . S
C1380 C1377 1.463 . S
C1380 N1384 1.427 . S
C1381 H1371 0.929 . S
C1381 C1379 1.433 . S
C1381 N1384 1.384 . S
C1382 H1373 0.929 . S
C1382 C1374 1.378 . S
C1382 C1377 1.350 . S
C1383 H1370 0.929 . S
C1383 C1375 1.433 . S
C1383 N1385 1.384 . S
N1384 C1380 1.427 . S
N1384 C1381 1.384 . S
N1385 C1377 1.427 . S
N1385 C1383 1.384 . S
H1386 C1392 0.927 1_556 S
H1387 C1396 0.930 . S
H1388 C1401 0.929 . S
H1389 C1399 0.929 . S
H1390 C1394 0.929 . S
H1391 C1400 0.929 . S
C1392 H1386 0.927 1_554 S
C1392 C1393 1.368 . S
C1392 C1400 1.379 . S
C1393 C1392 1.368 . S
C1393 C1401 1.433 . S
C1394 H1390 0.929 . S
C1394 C1396 1.378 . S
C1394 C1398 1.350 . S
C1395 C1398 1.463 . S
C1395 C1400 1.350 . S
C1395 N1403 1.427 . S
C1396 H1387 0.930 . S
C1396 C1394 1.378 . S
C1396 C1397 1.367 . S
C1397 C1396 1.367 . S
C1397 C1399 1.433 . S
C1398 C1394 1.350 . S
C1398 C1395 1.463 . S
C1398 N1402 1.427 . S
C1399 H1389 0.929 . S
C1399 C1397 1.433 . S
C1399 N1402 1.384 . S
C1400 H1391 0.929 . S
C1400 C1392 1.379 . S
C1400 C1395 1.350 . S
C1401 H1388 0.929 . S
C1401 C1393 1.433 . S
C1401 N1403 1.384 . S
N1402 C1398 1.427 . S
N1402 C1399 1.384 . S
N1403 C1395 1.427 . S
N1403 C1401 1.384 . S
H1404 C1410 0.930 . S
H1405 C1414 0.930 . S
H1406 C1419 0.929 . S
H1407 C1417 0.929 . S
H1408 C1412 0.929 . S
H1409 C1418 0.929 . S
C1410 H1404 0.930 . S
C1410 C1411 1.367 . S
C1410 C1418 1.378 . S
C1411 C1410 1.367 . S
C1411 C1419 1.433 . S
C1412 H1408 0.929 . S
C1412 C1414 1.378 . S
C1412 C1416 1.350 . S
C1413 C1416 1.463 . S
C1413 C1418 1.350 . S
C1413 N1421 1.427 . S
C1414 H1405 0.930 . S
C1414 C1412 1.378 . S
C1414 C1415 1.367 . S
C1415 C1414 1.367 . S
C1415 C1417 1.433 . S
C1416 C1412 1.350 . S
C1416 C1413 1.463 . S
C1416 N1420 1.427 . S
C1417 H1407 0.929 . S
C1417 C1415 1.433 . S
C1417 N1420 1.384 . S
C1418 H1409 0.929 . S
C1418 C1410 1.378 . S
C1418 C1413 1.350 . S
C1419 H1406 0.929 . S
C1419 C1411 1.433 . S
C1419 N1421 1.384 . S
N1420 C1416 1.427 . S
N1420 C1417 1.384 . S
N1421 C1413 1.427 . S
N1421 C1419 1.384 . S
H1422 C1428 0.930 . S
H1423 C1432 0.930 . S
H1424 C1437 0.929 . S
H1425 C1435 0.929 . S
H1426 C1430 0.929 . S
H1427 C1436 0.929 . S
C1428 H1422 0.930 . S
C1428 C1429 1.367 . S
C1428 C1436 1.378 . S
C1429 C1428 1.367 . S
C1429 C1437 1.433 . S
C1430 H1426 0.929 . S
C1430 C1432 1.378 . S
C1430 C1434 1.350 . S
C1431 C1434 1.463 . S
C1431 C1436 1.350 . S
C1431 N1439 1.427 . S
C1432 H1423 0.930 . S
C1432 C1430 1.378 . S
C1432 C1433 1.367 . S
C1433 C1432 1.367 . S
C1433 C1435 1.433 . S
C1434 C1430 1.350 . S
C1434 C1431 1.463 . S
C1434 N1438 1.427 . S
C1435 H1425 0.929 . S
C1435 C1433 1.433 . S
C1435 N1438 1.384 . S
C1436 H1427 0.929 . S
C1436 C1428 1.378 . S
C1436 C1431 1.350 . S
C1437 H1424 0.929 . S
C1437 C1429 1.433 . S
C1437 N1439 1.384 . S
N1438 C1434 1.427 . S
N1438 C1435 1.384 . S
N1439 C1431 1.427 . S
N1439 C1437 1.384 . S
H1440 C1446 0.930 . S
H1441 C1450 0.930 . S
H1442 C1455 0.929 . S
H1443 C1453 0.929 . S
H1444 C1448 0.929 . S
H1445 C1454 0.929 . S
C1446 H1440 0.930 . S
C1446 C1447 1.367 . S
C1446 C1454 1.378 . S
C1447 C1446 1.367 . S
C1447 C1455 1.433 . S
C1448 H1444 0.929 . S
C1448 C1450 1.378 . S
C1448 C1452 1.350 . S
C1449 C1452 1.463 . S
C1449 C1454 1.350 . S
C1449 N1457 1.427 . S
C1450 H1441 0.930 . S
C1450 C1448 1.378 . S
C1450 C1451 1.367 . S
C1451 C1450 1.367 . S
C1451 C1453 1.433 . S
C1452 C1448 1.350 . S
C1452 C1449 1.463 . S
C1452 N1456 1.427 . S
C1453 H1443 0.929 . S
C1453 C1451 1.433 . S
C1453 N1456 1.384 . S
C1454 H1445 0.929 . S
C1454 C1446 1.378 . S
C1454 C1449 1.350 . S
C1455 H1442 0.929 . S
C1455 C1447 1.433 . S
C1455 N1457 1.384 . S
N1456 C1452 1.427 . S
N1456 C1453 1.384 . S
N1457 C1449 1.427 . S
N1457 C1455 1.384 . S
H1458 C1464 0.930 . S
H1459 C1468 0.930 . S
H1460 C1473 0.929 . S
H1461 C1471 0.929 . S
H1462 C1466 0.929 . S
H1463 C1472 0.929 . S
C1464 H1458 0.930 . S
C1464 C1465 1.367 . S
C1464 C1472 1.378 . S
C1465 C1464 1.367 . S
C1465 C1473 1.433 . S
C1466 H1462 0.929 . S
C1466 C1468 1.378 . S
C1466 C1470 1.350 . S
C1467 C1470 1.463 1_565 S
C1467 C1472 1.350 . S
C1467 N1475 1.427 . S
C1468 H1459 0.930 . S
C1468 C1466 1.378 . S
C1468 C1469 1.367 . S
C1469 C1468 1.367 . S
C1469 C1471 1.433 . S
C1470 C1466 1.350 . S
C1470 C1467 1.463 1_545 S
C1470 N1474 1.427 . S
C1471 H1461 0.929 . S
C1471 C1469 1.433 . S
C1471 N1474 1.384 . S
C1472 H1463 0.929 . S
C1472 C1464 1.378 . S
C1472 C1467 1.350 . S
C1473 H1460 0.929 . S
C1473 C1465 1.433 . S
C1473 N1475 1.384 . S
N1474 C1470 1.427 . S
N1474 C1471 1.384 . S
N1475 C1467 1.427 . S
N1475 C1473 1.384 . S
H1476 C1482 0.930 . S
H1477 C1486 0.930 . S
H1478 C1491 0.929 . S
H1479 C1489 0.929 . S
H1480 C1484 0.929 . S
H1481 C1490 0.929 . S
C1482 H1476 0.930 . S
C1482 C1483 1.367 . S
C1482 C1490 1.378 . S
C1483 C1482 1.367 . S
C1483 C1491 1.433 . S
C1484 H1480 0.929 . S
C1484 C1486 1.378 . S
C1484 C1488 1.350 . S
C1485 C1488 1.463 . S
C1485 C1490 1.350 . S
C1485 N1493 1.427 . S
C1486 H1477 0.930 . S
C1486 C1484 1.378 . S
C1486 C1487 1.367 . S
C1487 C1486 1.367 . S
C1487 C1489 1.433 . S
C1488 C1484 1.350 . S
C1488 C1485 1.463 . S
C1488 N1492 1.427 . S
C1489 H1479 0.929 . S
C1489 C1487 1.433 . S
C1489 N1492 1.384 . S
C1490 H1481 0.929 . S
C1490 C1482 1.378 . S
C1490 C1485 1.350 . S
C1491 H1478 0.929 . S
C1491 C1483 1.433 . S
C1491 N1493 1.384 . S
N1492 C1488 1.427 . S
N1492 C1489 1.384 . S
N1493 C1485 1.427 . S
N1493 C1491 1.384 . S
H1494 C1500 0.930 . S
H1495 C1504 0.930 . S
H1496 C1509 0.929 . S
H1497 C1507 0.929 . S
H1498 C1502 0.916 1_565 S
H1499 C1508 0.960 1_554 S
C1500 H1494 0.930 . S
C1500 C1501 1.367 1_554 S
C1500 C1508 1.378 1_554 S
C1501 C1500 1.367 1_556 S
C1501 C1509 1.433 . S
C1502 H1498 0.916 1_545 S
C1502 C1504 1.378 . S
C1502 C1506 1.350 . S
C1503 C1506 1.463 1_565 S
C1503 C1508 1.350 . S
C1503 N1511 1.427 . S
C1504 H1495 0.930 . S
C1504 C1502 1.378 . S
C1504 C1505 1.367 . S
C1505 C1504 1.367 . S
C1505 C1507 1.433 . S
C1506 C1502 1.350 . S
C1506 C1503 1.463 1_545 S
C1506 N1510 1.427 . S
C1507 H1497 0.929 . S
C1507 C1505 1.433 . S
C1507 N1510 1.384 . S
C1508 H1499 0.960 1_556 S
C1508 C1500 1.378 1_556 S
C1508 C1503 1.350 . S
C1509 H1496 0.929 . S
C1509 C1501 1.433 . S
C1509 N1511 1.384 . S
N1510 C1506 1.427 . S
N1510 C1507 1.384 . S
N1511 C1503 1.427 . S
N1511 C1509 1.384 . S
H1512 C1518 0.930 . S
H1513 C1522 0.930 . S
H1514 C1527 0.929 . S
H1515 C1525 0.929 . S
H1516 C1520 0.929 . S
H1517 C1526 0.929 . S
C1518 H1512 0.930 . S
C1518 C1519 1.367 . S
C1518 C1526 1.378 . S
C1519 C1518 1.367 . S
C1519 C1527 1.433 . S
C1520 H1516 0.929 . S
C1520 C1522 1.378 . S
C1520 C1524 1.350 . S
C1521 C1524 1.463 . S
C1521 C1526 1.350 . S
C1521 N1529 1.427 . S
C1522 H1513 0.930 . S
C1522 C1520 1.378 . S
C1522 C1523 1.367 . S
C1523 C1522 1.367 . S
C1523 C1525 1.433 . S
C1524 C1520 1.350 . S
C1524 C1521 1.463 . S
C1524 N1528 1.427 . S
C1525 H1515 0.929 . S
C1525 C1523 1.433 . S
C1525 N1528 1.384 . S
C1526 H1517 0.929 . S
C1526 C1518 1.378 . S
C1526 C1521 1.350 . S
C1527 H1514 0.929 . S
C1527 C1519 1.433 . S
C1527 N1529 1.384 . S
N1528 C1524 1.427 . S
N1528 C1525 1.384 . S
N1529 C1521 1.427 . S
N1529 C1527 1.384 . S
H1530 C1536 0.930 . S
H1531 C1540 0.930 . S
H1532 C1545 0.929 . S
H1533 C1543 0.929 . S
H1534 C1538 0.929 . S
H1535 C1544 0.929 . S
C1536 H1530 0.930 . S
C1536 C1537 1.367 . S
C1536 C1544 1.378 . S
C1537 C1536 1.367 . S
C1537 C1545 1.433 . S
C1538 H1534 0.929 . S
C1538 C1540 1.378 . S
C1538 C1542 1.350 . S
C1539 C1542 1.463 . S
C1539 C1544 1.350 . S
C1539 N1547 1.427 . S
C1540 H1531 0.930 . S
C1540 C1538 1.378 . S
C1540 C1541 1.367 . S
C1541 C1540 1.367 . S
C1541 C1543 1.433 . S
C1542 C1538 1.350 . S
C1542 C1539 1.463 . S
C1542 N1546 1.427 . S
C1543 H1533 0.929 . S
C1543 C1541 1.433 . S
C1543 N1546 1.384 . S
C1544 H1535 0.929 . S
C1544 C1536 1.378 . S
C1544 C1539 1.350 . S
C1545 H1532 0.929 . S
C1545 C1537 1.433 . S
C1545 N1547 1.384 . S
N1546 C1542 1.427 . S
N1546 C1543 1.384 . S
N1547 C1539 1.427 . S
N1547 C1545 1.384 . S
H1548 C1554 0.930 . S
H1549 C1558 0.930 . S
H1550 C1563 0.929 . S
H1551 C1561 0.929 . S
H1552 C1556 0.929 . S
H1553 C1562 0.929 . S
C1554 H1548 0.930 . S
C1554 C1555 1.367 . S
C1554 C1562 1.378 . S
C1555 C1554 1.367 . S
C1555 C1563 1.433 . S
C1556 H1552 0.929 . S
C1556 C1558 1.378 . S
C1556 C1560 1.350 . S
C1557 C1560 1.463 . S
C1557 C1562 1.350 . S
C1557 N1565 1.427 . S
C1558 H1549 0.930 . S
C1558 C1556 1.378 . S
C1558 C1559 1.367 . S
C1559 C1558 1.367 . S
C1559 C1561 1.433 . S
C1560 C1556 1.350 . S
C1560 C1557 1.463 . S
C1560 N1564 1.427 . S
C1561 H1551 0.929 . S
C1561 C1559 1.433 . S
C1561 N1564 1.384 . S
C1562 H1553 0.929 . S
C1562 C1554 1.378 . S
C1562 C1557 1.350 . S
C1563 H1550 0.929 . S
C1563 C1555 1.433 . S
C1563 N1565 1.384 . S
N1564 C1560 1.427 . S
N1564 C1561 1.384 . S
N1565 C1557 1.427 . S
N1565 C1563 1.384 . S
H1566 C1572 0.930 . S
H1567 C1576 0.930 . S
H1568 C1581 0.929 . S
H1569 C1579 0.929 . S
H1570 C1574 0.929 . S
H1571 C1580 0.929 . S
C1572 H1566 0.930 . S
C1572 C1573 1.367 . S
C1572 C1580 1.378 . S
C1573 C1572 1.367 . S
C1573 C1581 1.433 . S
C1574 H1570 0.929 . S
C1574 C1576 1.378 . S
C1574 C1578 1.350 . S
C1575 C1578 1.463 . S
C1575 C1580 1.350 . S
C1575 N1583 1.427 . S
C1576 H1567 0.930 . S
C1576 C1574 1.378 . S
C1576 C1577 1.367 . S
C1577 C1576 1.367 . S
C1577 C1579 1.433 . S
C1578 C1574 1.350 . S
C1578 C1575 1.463 . S
C1578 N1582 1.427 . S
C1579 H1569 0.929 . S
C1579 C1577 1.433 . S
C1579 N1582 1.384 . S
C1580 H1571 0.929 . S
C1580 C1572 1.378 . S
C1580 C1575 1.350 . S
C1581 H1568 0.929 . S
C1581 C1573 1.433 . S
C1581 N1583 1.384 . S
N1582 C1578 1.427 . S
N1582 C1579 1.384 . S
N1583 C1575 1.427 . S
N1583 C1581 1.384 . S
H1584 C1590 0.930 . S
H1585 C1594 0.930 . S
H1586 C1599 0.929 . S
H1587 C1597 0.929 . S
H1588 C1592 0.929 . S
H1589 C1598 0.929 . S
C1590 H1584 0.930 . S
C1590 C1591 1.367 . S
C1590 C1598 1.378 . S
C1591 C1590 1.367 . S
C1591 C1599 1.433 . S
C1592 H1588 0.929 . S
C1592 C1594 1.378 . S
C1592 C1596 1.350 . S
C1593 C1596 1.463 1_655 S
C1593 C1598 1.350 . S
C1593 N1601 1.427 . S
C1594 H1585 0.930 . S
C1594 C1592 1.378 . S
C1594 C1595 1.367 . S
C1595 C1594 1.367 . S
C1595 C1597 1.433 . S
C1596 C1592 1.350 . S
C1596 C1593 1.463 1_455 S
C1596 N1600 1.427 . S
C1597 H1587 0.929 . S
C1597 C1595 1.433 . S
C1597 N1600 1.384 . S
C1598 H1589 0.929 . S
C1598 C1590 1.378 . S
C1598 C1593 1.350 . S
C1599 H1586 0.929 . S
C1599 C1591 1.433 . S
C1599 N1601 1.384 . S
N1600 C1596 1.427 . S
N1600 C1597 1.384 . S
N1601 C1593 1.427 . S
N1601 C1599 1.384 . S
H1602 C1608 0.930 . S
H1603 C1612 0.930 . S
H1604 C1617 0.929 . S
H1605 C1615 0.929 . S
H1606 C1610 0.929 . S
H1607 C1616 0.929 . S
C1608 H1602 0.930 . S
C1608 C1609 1.367 . S
C1608 C1616 1.378 . S
C1609 C1608 1.367 . S
C1609 C1617 1.433 . S
C1610 H1606 0.929 . S
C1610 C1612 1.378 . S
C1610 C1614 1.350 . S
C1611 C1614 1.463 . S
C1611 C1616 1.350 . S
C1611 N1619 1.427 . S
C1612 H1603 0.930 . S
C1612 C1610 1.378 . S
C1612 C1613 1.367 . S
C1613 C1612 1.367 . S
C1613 C1615 1.433 . S
C1614 C1610 1.350 . S
C1614 C1611 1.463 . S
C1614 N1618 1.427 . S
C1615 H1605 0.929 . S
C1615 C1613 1.433 . S
C1615 N1618 1.384 . S
C1616 H1607 0.929 . S
C1616 C1608 1.378 . S
C1616 C1611 1.350 . S
C1617 H1604 0.929 . S
C1617 C1609 1.433 . S
C1617 N1619 1.384 . S
N1618 C1614 1.427 . S
N1618 C1615 1.384 . S
N1619 C1611 1.427 . S
N1619 C1617 1.384 . S
H1620 C1626 0.930 . S
H1621 C1630 0.930 . S
H1622 C1635 0.929 . S
H1623 C1633 0.929 . S
H1624 C1628 0.929 . S
H1625 C1634 0.929 . S
C1626 H1620 0.930 . S
C1626 C1627 1.367 . S
C1626 C1634 1.378 . S
C1627 C1626 1.367 . S
C1627 C1635 1.433 . S
C1628 H1624 0.929 . S
C1628 C1630 1.378 . S
C1628 C1632 1.350 . S
C1629 C1632 1.463 1_455 S
C1629 C1634 1.350 . S
C1629 N1637 1.427 . S
C1630 H1621 0.930 . S
C1630 C1628 1.378 . S
C1630 C1631 1.367 . S
C1631 C1630 1.367 . S
C1631 C1633 1.433 . S
C1632 C1628 1.350 . S
C1632 C1629 1.463 1_655 S
C1632 N1636 1.427 . S
C1633 H1623 0.929 . S
C1633 C1631 1.433 . S
C1633 N1636 1.384 . S
C1634 H1625 0.929 . S
C1634 C1626 1.378 . S
C1634 C1629 1.350 . S
C1635 H1622 0.929 . S
C1635 C1627 1.433 . S
C1635 N1637 1.384 . S
N1636 C1632 1.427 . S
N1636 C1633 1.384 . S
N1637 C1629 1.427 . S
N1637 C1635 1.384 . S
H1638 C1644 0.930 . S
H1639 C1648 0.930 . S
H1640 C1653 0.929 . S
H1641 C1651 0.929 . S
H1642 C1646 0.929 . S
H1643 C1652 0.929 . S
C1644 H1638 0.930 . S
C1644 C1645 1.367 . S
C1644 C1652 1.378 . S
C1645 C1644 1.367 . S
C1645 C1653 1.433 . S
C1646 H1642 0.929 . S
C1646 C1648 1.378 . S
C1646 C1650 1.350 . S
C1647 C1650 1.463 . S
C1647 C1652 1.350 . S
C1647 N1655 1.427 . S
C1648 H1639 0.930 . S
C1648 C1646 1.378 . S
C1648 C1649 1.367 . S
C1649 C1648 1.367 . S
C1649 C1651 1.433 . S
C1650 C1646 1.350 . S
C1650 C1647 1.463 . S
C1650 N1654 1.427 . S
C1651 H1641 0.929 . S
C1651 C1649 1.433 . S
C1651 N1654 1.384 . S
C1652 H1643 0.929 . S
C1652 C1644 1.378 . S
C1652 C1647 1.350 . S
C1653 H1640 0.929 . S
C1653 C1645 1.433 . S
C1653 N1655 1.384 . S
N1654 C1650 1.427 . S
N1654 C1651 1.384 . S
N1655 C1647 1.427 . S
N1655 C1653 1.384 . S
H1656 C1662 0.930 . S
H1657 C1666 0.930 . S
H1658 C1671 0.929 . S
H1659 C1669 0.929 . S
H1660 C1664 0.929 . S
H1661 C1670 0.929 . S
C1662 H1656 0.930 . S
C1662 C1663 1.367 . S
C1662 C1670 1.378 . S
C1663 C1662 1.367 . S
C1663 C1671 1.433 . S
C1664 H1660 0.929 . S
C1664 C1666 1.378 1_655 S
C1664 C1668 1.350 . S
C1665 C1668 1.463 . S
C1665 C1670 1.350 . S
C1665 N1673 1.427 . S
C1666 H1657 0.930 . S
C1666 C1664 1.378 1_455 S
C1666 C1667 1.367 . S
C1667 C1666 1.367 . S
C1667 C1669 1.433 . S
C1668 C1664 1.350 . S
C1668 C1665 1.463 . S
C1668 N1672 1.427 1_655 S
C1669 H1659 0.929 . S
C1669 C1667 1.433 . S
C1669 N1672 1.384 . S
C1670 H1661 0.929 . S
C1670 C1662 1.378 . S
C1670 C1665 1.350 . S
C1671 H1658 0.929 . S
C1671 C1663 1.433 . S
C1671 N1673 1.384 . S
N1672 C1668 1.427 1_455 S
N1672 C1669 1.384 . S
N1673 C1665 1.427 . S
N1673 C1671 1.384 . S
H1674 C1680 0.930 . S
H1675 C1684 0.930 . S
H1676 C1689 0.929 . S
H1677 C1687 0.929 . S
H1678 C1682 0.929 . S
H1679 C1688 0.929 . S
C1680 H1674 0.930 . S
C1680 C1681 1.367 . S
C1680 C1688 1.378 . S
C1681 C1680 1.367 . S
C1681 C1689 1.433 . S
C1682 H1678 0.929 . S
C1682 C1684 1.378 . S
C1682 C1686 1.350 1_556 S
C1683 C1686 1.463 . S
C1683 C1688 1.350 . S
C1683 N1691 1.427 . S
C1684 H1675 0.930 . S
C1684 C1682 1.378 . S
C1684 C1685 1.367 . S
C1685 C1684 1.367 . S
C1685 C1687 1.433 . S
C1686 C1682 1.350 1_554 S
C1686 C1683 1.463 . S
C1686 N1690 1.430 . S
C1687 H1677 0.929 . S
C1687 C1685 1.433 . S
C1687 N1690 1.374 1_556 S
C1688 H1679 0.929 . S
C1688 C1680 1.378 . S
C1688 C1683 1.350 . S
C1689 H1676 0.929 . S
C1689 C1681 1.433 . S
C1689 N1691 1.384 . S
N1690 C1686 1.430 . S
N1690 C1687 1.374 1_554 S
N1691 C1683 1.427 . S
N1691 C1689 1.384 . S
H1692 C1698 0.930 . S
H1693 C1702 0.930 . S
H1694 C1707 0.929 . S
H1695 C1705 0.929 . S
H1696 C1700 0.929 . S
H1697 C1706 0.929 . S
C1698 H1692 0.930 . S
C1698 C1699 1.367 . S
C1698 C1706 1.378 . S
C1699 C1698 1.367 . S
C1699 C1707 1.433 . S
C1700 H1696 0.929 . S
C1700 C1702 1.378 . S
C1700 C1704 1.350 . S
C1701 C1704 1.463 . S
C1701 C1706 1.350 . S
C1701 N1709 1.427 . S
C1702 H1693 0.930 . S
C1702 C1700 1.378 . S
C1702 C1703 1.367 . S
C1703 C1702 1.367 . S
C1703 C1705 1.433 . S
C1704 C1700 1.350 . S
C1704 C1701 1.463 . S
C1704 N1708 1.427 . S
C1705 H1695 0.929 . S
C1705 C1703 1.433 . S
C1705 N1708 1.384 . S
C1706 H1697 0.929 . S
C1706 C1698 1.378 . S
C1706 C1701 1.350 . S
C1707 H1694 0.929 . S
C1707 C1699 1.433 . S
C1707 N1709 1.384 . S
N1708 C1704 1.427 . S
N1708 C1705 1.384 . S
N1709 C1701 1.427 . S
N1709 C1707 1.384 . S
H1710 C1716 0.930 . S
H1711 C1720 0.930 . S
H1712 C1725 0.929 . S
H1713 C1723 0.929 . S
H1714 C1718 0.929 . S
H1715 C1724 0.929 . S
C1716 H1710 0.930 . S
C1716 C1717 1.367 . S
C1716 C1724 1.378 . S
C1717 C1716 1.367 . S
C1717 C1725 1.433 . S
C1718 H1714 0.929 . S
C1718 C1720 1.378 . S
C1718 C1722 1.350 . S
C1719 C1722 1.463 . S
C1719 C1724 1.350 . S
C1719 N1727 1.427 . S
C1720 H1711 0.930 . S
C1720 C1718 1.378 . S
C1720 C1721 1.367 . S
C1721 C1720 1.367 . S
C1721 C1723 1.433 . S
C1722 C1718 1.350 . S
C1722 C1719 1.463 . S
C1722 N1726 1.427 . S
C1723 H1713 0.929 . S
C1723 C1721 1.433 . S
C1723 N1726 1.384 . S
C1724 H1715 0.929 . S
C1724 C1716 1.378 . S
C1724 C1719 1.350 . S
C1725 H1712 0.929 . S
C1725 C1717 1.433 . S
C1725 N1727 1.384 . S
N1726 C1722 1.427 . S
N1726 C1723 1.384 . S
N1727 C1719 1.427 . S
N1727 C1725 1.384 . S
H1728 C1734 0.930 . S
H1729 C1738 0.930 . S
H1730 C1743 0.929 . S
H1731 C1741 0.929 . S
H1732 C1736 0.929 . S
H1733 C1742 0.929 . S
C1734 H1728 0.930 . S
C1734 C1735 1.367 . S
C1734 C1742 1.378 . S
C1735 C1734 1.367 . S
C1735 C1743 1.433 . S
C1736 H1732 0.929 . S
C1736 C1738 1.378 . S
C1736 C1740 1.350 . S
C1737 C1740 1.463 . S
C1737 C1742 1.350 . S
C1737 N1745 1.427 . S
C1738 H1729 0.930 . S
C1738 C1736 1.378 . S
C1738 C1739 1.367 . S
C1739 C1738 1.367 . S
C1739 C1741 1.433 . S
C1740 C1736 1.350 . S
C1740 C1737 1.463 . S
C1740 N1744 1.427 . S
C1741 H1731 0.929 . S
C1741 C1739 1.433 . S
C1741 N1744 1.384 . S
C1742 H1733 0.929 . S
C1742 C1734 1.378 . S
C1742 C1737 1.350 . S
C1743 H1730 0.929 . S
C1743 C1735 1.433 . S
C1743 N1745 1.384 . S
N1744 C1740 1.427 . S
N1744 C1741 1.384 . S
N1745 C1737 1.427 . S
N1745 C1743 1.384 . S
H1746 C1752 0.930 . S
H1747 C1756 0.930 . S
H1748 C1761 0.929 . S
H1749 C1759 0.929 . S
H1750 C1754 0.929 . S
H1751 C1760 0.929 . S
C1752 H1746 0.930 . S
C1752 C1753 1.367 . S
C1752 C1760 1.378 . S
C1753 C1752 1.367 . S
C1753 C1761 1.433 . S
C1754 H1750 0.929 . S
C1754 C1756 1.378 . S
C1754 C1758 1.350 . S
C1755 C1758 1.463 . S
C1755 C1760 1.350 . S
C1755 N1763 1.427 . S
C1756 H1747 0.930 . S
C1756 C1754 1.378 . S
C1756 C1757 1.367 . S
C1757 C1756 1.367 . S
C1757 C1759 1.433 . S
C1758 C1754 1.350 . S
C1758 C1755 1.463 . S
C1758 N1762 1.427 . S
C1759 H1749 0.929 . S
C1759 C1757 1.433 . S
C1759 N1762 1.384 . S
C1760 H1751 0.929 . S
C1760 C1752 1.378 . S
C1760 C1755 1.350 . S
C1761 H1748 0.929 . S
C1761 C1753 1.433 . S
C1761 N1763 1.384 . S
N1762 C1758 1.427 . S
N1762 C1759 1.384 . S
N1763 C1755 1.427 . S
N1763 C1761 1.384 . S
H1764 C1770 0.930 . S
H1765 C1774 0.930 . S
H1766 C1779 0.929 . S
H1767 C1777 0.929 . S
H1768 C1772 0.929 . S
H1769 C1778 0.929 . S
C1770 H1764 0.930 . S
C1770 C1771 1.367 . S
C1770 C1778 1.378 . S
C1771 C1770 1.367 . S
C1771 C1779 1.433 . S
C1772 H1768 0.929 . S
C1772 C1774 1.378 . S
C1772 C1776 1.350 . S
C1773 C1776 1.463 . S
C1773 C1778 1.350 1_455 S
C1773 N1781 1.427 . S
C1774 H1765 0.930 . S
C1774 C1772 1.378 . S
C1774 C1775 1.367 . S
C1775 C1774 1.367 . S
C1775 C1777 1.433 . S
C1776 C1772 1.350 . S
C1776 C1773 1.463 . S
C1776 N1780 1.427 . S
C1777 H1767 0.929 . S
C1777 C1775 1.433 . S
C1777 N1780 1.384 . S
C1778 H1769 0.929 . S
C1778 C1770 1.378 . S
C1778 C1773 1.350 1_655 S
C1779 H1766 0.929 . S
C1779 C1771 1.433 . S
C1779 N1781 1.384 1_655 S
N1780 C1776 1.427 . S
N1780 C1777 1.384 . S
N1781 C1773 1.427 . S
N1781 C1779 1.384 1_455 S
H1782 C1788 0.930 . S
H1783 C1792 0.930 . S
H1784 C1797 0.929 . S
H1785 C1795 0.929 . S
H1786 C1790 0.929 . S
H1787 C1796 0.929 . S
C1788 H1782 0.930 . S
C1788 C1789 1.367 . S
C1788 C1796 1.378 . S
C1789 C1788 1.367 . S
C1789 C1797 1.433 . S
C1790 H1786 0.929 . S
C1790 C1792 1.378 . S
C1790 C1794 1.350 . S
C1791 C1794 1.463 . S
C1791 C1796 1.350 1_556 S
C1791 N1799 1.427 . S
C1792 H1783 0.930 . S
C1792 C1790 1.378 . S
C1792 C1793 1.367 . S
C1793 C1792 1.367 . S
C1793 C1795 1.433 . S
C1794 C1790 1.350 . S
C1794 C1791 1.463 . S
C1794 N1798 1.427 . S
C1795 H1785 0.929 . S
C1795 C1793 1.433 . S
C1795 N1798 1.384 . S
C1796 H1787 0.929 . S
C1796 C1788 1.378 . S
C1796 C1791 1.350 1_554 S
C1797 H1784 0.929 . S
C1797 C1789 1.433 . S
C1797 N1799 1.384 1_554 S
N1798 C1794 1.427 . S
N1798 C1795 1.384 . S
N1799 C1791 1.427 . S
N1799 C1797 1.384 1_556 S
H1800 C1806 0.930 . S
H1801 C1810 0.936 . S
H1802 C1815 0.929 . S
H1803 C1813 0.929 . S
H1804 C1808 0.929 . S
H1805 C1814 0.935 . S
C1806 H1800 0.930 . S
C1806 C1807 1.367 . S
C1806 C1814 1.378 . S
C1807 C1806 1.367 . S
C1807 C1815 1.433 . S
C1808 H1804 0.929 . S
C1808 C1810 1.378 1_565 S
C1808 C1812 1.350 . S
C1809 C1812 1.463 . S
C1809 C1814 1.350 . S
C1809 N1817 1.427 . S
C1810 H1801 0.936 . S
C1810 C1808 1.378 1_545 S
C1810 C1811 1.367 . S
C1811 C1810 1.367 . S
C1811 C1813 1.433 . S
C1812 C1808 1.350 . S
C1812 C1809 1.463 . S
C1812 N1816 1.427 1_565 S
C1813 H1803 0.929 . S
C1813 C1811 1.433 . S
C1813 N1816 1.384 . S
C1814 H1805 0.935 . S
C1814 C1806 1.378 . S
C1814 C1809 1.350 . S
C1815 H1802 0.929 . S
C1815 C1807 1.433 . S
C1815 N1817 1.384 . S
N1816 C1812 1.427 1_545 S
N1816 C1813 1.384 . S
N1817 C1809 1.427 . S
N1817 C1815 1.384 . S
H1818 C1824 0.930 . S
H1819 C1828 0.930 . S
H1820 C1833 0.929 . S
H1821 C1831 0.929 . S
H1822 C1826 0.929 . S
H1823 C1832 0.929 . S
C1824 H1818 0.930 . S
C1824 C1825 1.367 . S
C1824 C1832 1.378 . S
C1825 C1824 1.367 . S
C1825 C1833 1.433 . S
C1826 H1822 0.929 . S
C1826 C1828 1.378 . S
C1826 C1830 1.350 . S
C1827 C1830 1.463 . S
C1827 C1832 1.350 . S
C1827 N1835 1.427 . S
C1828 H1819 0.930 . S
C1828 C1826 1.378 . S
C1828 C1829 1.367 . S
C1829 C1828 1.367 . S
C1829 C1831 1.433 . S
C1830 C1826 1.350 . S
C1830 C1827 1.463 . S
C1830 N1834 1.427 . S
C1831 H1821 0.929 . S
C1831 C1829 1.433 . S
C1831 N1834 1.384 . S
C1832 H1823 0.929 . S
C1832 C1824 1.378 . S
C1832 C1827 1.350 . S
C1833 H1820 0.929 . S
C1833 C1825 1.433 . S
C1833 N1835 1.384 . S
N1834 C1830 1.427 . S
N1834 C1831 1.384 . S
N1835 C1827 1.427 . S
N1835 C1833 1.384 . S
H1836 C1842 0.930 . S
H1837 C1846 0.930 . S
H1838 C1851 0.929 . S
H1839 C1849 0.929 . S
H1840 C1844 0.929 . S
H1841 C1850 0.929 . S
C1842 H1836 0.930 . S
C1842 C1843 1.367 . S
C1842 C1850 1.378 . S
C1843 C1842 1.367 . S
C1843 C1851 1.433 . S
C1844 H1840 0.929 . S
C1844 C1846 1.378 1_545 S
C1844 C1848 1.350 . S
C1845 C1848 1.463 . S
C1845 C1850 1.350 . S
C1845 N1853 1.427 . S
C1846 H1837 0.930 . S
C1846 C1844 1.378 1_565 S
C1846 C1847 1.367 . S
C1847 C1846 1.367 . S
C1847 C1849 1.433 . S
C1848 C1844 1.350 . S
C1848 C1845 1.463 . S
C1848 N1852 1.427 1_545 S
C1849 H1839 0.929 . S
C1849 C1847 1.433 . S
C1849 N1852 1.384 . S
C1850 H1841 0.929 . S
C1850 C1842 1.378 . S
C1850 C1845 1.350 . S
C1851 H1838 0.929 . S
C1851 C1843 1.433 . S
C1851 N1853 1.384 . S
N1852 C1848 1.427 1_565 S
N1852 C1849 1.384 . S
N1853 C1845 1.427 . S
N1853 C1851 1.384 . S
H1854 C1860 0.930 . S
H1855 C1864 0.930 . S
H1856 C1869 0.929 . S
H1857 C1867 0.929 . S
H1858 C1862 0.929 . S
H1859 C1868 0.929 . S
C1860 H1854 0.930 . S
C1860 C1861 1.367 . S
C1860 C1868 1.378 . S
C1861 C1860 1.367 . S
C1861 C1869 1.433 . S
C1862 H1858 0.929 . S
C1862 C1864 1.378 . S
C1862 C1866 1.350 . S
C1863 C1866 1.463 . S
C1863 C1868 1.350 . S
C1863 N1871 1.427 . S
C1864 H1855 0.930 . S
C1864 C1862 1.378 . S
C1864 C1865 1.367 . S
C1865 C1864 1.367 . S
C1865 C1867 1.433 . S
C1866 C1862 1.350 . S
C1866 C1863 1.463 . S
C1866 N1870 1.427 . S
C1867 H1857 0.929 . S
C1867 C1865 1.433 . S
C1867 N1870 1.384 . S
C1868 H1859 0.929 . S
C1868 C1860 1.378 . S
C1868 C1863 1.350 . S
C1869 H1856 0.929 . S
C1869 C1861 1.433 . S
C1869 N1871 1.384 . S
N1870 C1866 1.427 . S
N1870 C1867 1.384 . S
N1871 C1863 1.427 . S
N1871 C1869 1.384 . S
C799 N431 1.601 . S
C803 C18 1.562 . S
C817 C51 1.557 . S
C821 N464 1.600 . S
C835 C84 1.571 . S
C839 N497 1.610 . S
C853 N398 1.603 . S
C857 C117 1.557 . S
C871 N365 1.602 . S
C875 C150 1.557 . S
C889 N266 1.606 . S
C893 C183 1.561 . S
C907 C216 1.564 . S
C911 N299 1.608 . S
C925 N332 1.600 . S
C929 C249 1.560 . S
C943 C282 1.570 . S
C947 N35 1.610 . S
C961 C315 1.560 . S
C965 N68 1.600 . S
C979 C348 1.570 . S
C983 N101 1.606 . S
C997 N2 1.610 . S
C1001 C381 1.569 . S
C1015 N233 1.607 . S
C1019 C414 1.562 . S
C1033 C447 1.561 . S
C1037 N134 1.601 . S
C1051 C480 1.568 . S
C1055 N167 1.605 . S
C1069 N200 1.602 . S
C1073 C513 1.564 . S
C1087 N728 1.602 . S
C1091 C546 1.563 . S
C1105 C579 1.571 . S
C1109 N596 1.608 . S
C1123 C612 1.559 . S
C1127 N629 1.605 . S
C1141 N662 1.600 . S
C1145 C645 1.557 . S
C1159 C678 1.570 . S
C1163 N563 1.610 . S
C1177 N761 1.601 . S
C1181 C711 1.557 . S
C1195 C744 1.566 . S
C1199 N695 1.603 . S
C1213 N530 1.605 . S
C1217 C777 1.560 . S
C1231 N541 0.941 . S
C1235 C7 0.973 . S
C1249 N772 0.955 . S
C1253 C40 0.981 . S
C1267 C73 0.963 . S
C1271 N706 0.951 . S
C1285 N739 0.967 . S
C1289 C106 0.967 1_455 S
C1303 N574 0.948 . S
C1307 C139 0.964 . S
C1321 N607 0.967 . S
C1325 C172 0.971 . S
C1339 N640 0.944 . S
C1343 C205 0.980 . S
C1357 C238 0.979 1_655 S
C1361 N673 0.960 . S
C1375 C271 0.975 . S
C1379 N13 0.940 . S
C1393 C304 0.962 1_554 S
C1397 N46 0.954 . S
C1411 C337 0.973 . S
C1415 N79 0.941 . S
C1429 C370 0.962 . S
C1433 N112 0.954 . S
C1447 C403 0.980 . S
C1451 N145 0.944 . S
C1465 N178 0.965 . S
C1469 C436 0.964 . S
C1483 N211 0.946 . S
C1487 C469 0.966 . S
C1501 C502 0.963 1_556 S
C1505 N244 0.963 . S
C1519 N277 0.961 . S
C1523 C535 0.962 . S
C1537 N409 0.963 . S
C1541 C568 0.962 . S
C1555 N442 0.944 . S
C1559 C601 0.967 1_545 S
C1573 N475 0.947 . S
C1577 C634 0.965 . S
C1591 C667 0.976 1_565 S
C1595 N508 0.964 . S
C1609 C700 0.968 . S
C1613 N343 0.967 . S
C1627 C733 0.970 . S
C1631 N376 0.967 . S
C1645 N310 0.955 . S
C1649 C766 0.981 . S
C1663 C681 1.201 . S
C1667 C21 1.208 . S
C1681 C54 1.203 . S
C1685 C582 1.200 . S
C1699 C615 1.217 . S
C1703 C87 1.211 . S
C1717 C120 1.215 . S
C1721 C648 1.218 . S
C1735 C780 1.203 . S
C1739 C153 1.200 . S
C1753 C714 1.216 . S
C1757 C186 1.218 . S
C1771 C219 1.201 . S
C1775 C747 1.208 . S
C1789 C549 1.212 . S
C1793 C252 1.218 . S
C1807 C516 1.202 . S
C1811 C285 1.210 . S
C1825 C417 1.218 . S
C1829 C318 1.214 . S
C1843 C450 1.201 . S
C1847 C351 1.208 . S
C1861 C483 1.204 . S
C1865 C384 1.212 . S
