# Generated by pormake.
# Topology ukx, (4)-cn, num edge types: 1
# Building blocks:
#     Node 0, Type 0, BuildingBlock: TATPOV_clean_sbu_0, # of connection points: 4
#     Node 1, Type 0, BuildingBlock: TATPOV_clean_sbu_0, # of connection points: 4
#     Node 2, Type 0, BuildingBlock: TATPOV_clean_sbu_0, # of connection points: 4
#     Node 3, Type 0, BuildingBlock: TATPOV_clean_sbu_0, # of connection points: 4
#     Node 4, Type 0, BuildingBlock: TATPOV_clean_sbu_0, # of connection points: 4
#     Node 5, Type 0, BuildingBlock: TATPOV_clean_sbu_0, # of connection points: 4
#     Node 6, Type 0, BuildingBlock: TATPOV_clean_sbu_0, # of connection points: 4
#     Node 7, Type 0, BuildingBlock: TATPOV_clean_sbu_0, # of connection points: 4
#     Node 8, Type 0, BuildingBlock: TATPOV_clean_sbu_0, # of connection points: 4
#     Node 9, Type 0, BuildingBlock: TATPOV_clean_sbu_0, # of connection points: 4
#     Node 10, Type 0, BuildingBlock: TATPOV_clean_sbu_0, # of connection points: 4
#     Node 11, Type 0, BuildingBlock: TATPOV_clean_sbu_0, # of connection points: 4
#     Node 12, Type 0, BuildingBlock: TATPOV_clean_sbu_0, # of connection points: 4
#     Node 13, Type 0, BuildingBlock: TATPOV_clean_sbu_0, # of connection points: 4
#     Node 14, Type 0, BuildingBlock: TATPOV_clean_sbu_0, # of connection points: 4
#     Node 15, Type 0, BuildingBlock: TATPOV_clean_sbu_0, # of connection points: 4
#     Node 16, Type 0, BuildingBlock: TATPOV_clean_sbu_0, # of connection points: 4
#     Node 17, Type 0, BuildingBlock: TATPOV_clean_sbu_0, # of connection points: 4
#     Node 18, Type 0, BuildingBlock: TATPOV_clean_sbu_0, # of connection points: 4
#     Node 19, Type 0, BuildingBlock: TATPOV_clean_sbu_0, # of connection points: 4
#     Node 20, Type 0, BuildingBlock: TATPOV_clean_sbu_0, # of connection points: 4
#     Node 21, Type 0, BuildingBlock: TATPOV_clean_sbu_0, # of connection points: 4
#     Node 22, Type 0, BuildingBlock: TATPOV_clean_sbu_0, # of connection points: 4
#     Node 23, Type 0, BuildingBlock: TATPOV_clean_sbu_0, # of connection points: 4
#     Node 24, Type 0, BuildingBlock: TATPOV_clean_sbu_0, # of connection points: 4
#     Node 25, Type 0, BuildingBlock: TATPOV_clean_sbu_0, # of connection points: 4
#     Node 26, Type 0, BuildingBlock: TATPOV_clean_sbu_0, # of connection points: 4
#     Node 27, Type 0, BuildingBlock: TATPOV_clean_sbu_0, # of connection points: 4
#     Node 28, Type 0, BuildingBlock: TATPOV_clean_sbu_0, # of connection points: 4
#     Node 29, Type 0, BuildingBlock: TATPOV_clean_sbu_0, # of connection points: 4
#     Node 30, Type 0, BuildingBlock: TATPOV_clean_sbu_0, # of connection points: 4
#     Node 31, Type 0, BuildingBlock: TATPOV_clean_sbu_0, # of connection points: 4
#     Node 32, Type 0, BuildingBlock: TATPOV_clean_sbu_0, # of connection points: 4
#     Node 33, Type 0, BuildingBlock: TATPOV_clean_sbu_0, # of connection points: 4
#     Node 34, Type 0, BuildingBlock: TATPOV_clean_sbu_0, # of connection points: 4
#     Node 35, Type 0, BuildingBlock: TATPOV_clean_sbu_0, # of connection points: 4
#     Node 36, Type 0, BuildingBlock: TATPOV_clean_sbu_0, # of connection points: 4
#     Node 37, Type 0, BuildingBlock: TATPOV_clean_sbu_0, # of connection points: 4
#     Node 38, Type 0, BuildingBlock: TATPOV_clean_sbu_0, # of connection points: 4
#     Node 39, Type 0, BuildingBlock: TATPOV_clean_sbu_0, # of connection points: 4
#     Node 40, Type 0, BuildingBlock: TATPOV_clean_sbu_0, # of connection points: 4
#     Node 41, Type 0, BuildingBlock: TATPOV_clean_sbu_0, # of connection points: 4
#     Node 42, Type 0, BuildingBlock: TATPOV_clean_sbu_0, # of connection points: 4
#     Node 43, Type 0, BuildingBlock: TATPOV_clean_sbu_0, # of connection points: 4
#     Node 44, Type 0, BuildingBlock: TATPOV_clean_sbu_0, # of connection points: 4
#     Node 45, Type 0, BuildingBlock: TATPOV_clean_sbu_0, # of connection points: 4
#     Node 46, Type 0, BuildingBlock: TATPOV_clean_sbu_0, # of connection points: 4
#     Node 47, Type 0, BuildingBlock: TATPOV_clean_sbu_0, # of connection points: 4
#     Node 48, Type 0, BuildingBlock: TATPOV_clean_sbu_0, # of connection points: 4
#     Node 49, Type 0, BuildingBlock: TATPOV_clean_sbu_0, # of connection points: 4
#     Node 50, Type 0, BuildingBlock: TATPOV_clean_sbu_0, # of connection points: 4
#     Node 51, Type 0, BuildingBlock: TATPOV_clean_sbu_0, # of connection points: 4
#     Node 52, Type 0, BuildingBlock: TATPOV_clean_sbu_0, # of connection points: 4
#     Node 53, Type 0, BuildingBlock: TATPOV_clean_sbu_0, # of connection points: 4
#     Node 54, Type 0, BuildingBlock: TATPOV_clean_sbu_0, # of connection points: 4
#     Node 55, Type 0, BuildingBlock: TATPOV_clean_sbu_0, # of connection points: 4
#     Node 56, Type 0, BuildingBlock: TATPOV_clean_sbu_0, # of connection points: 4
#     Node 57, Type 0, BuildingBlock: TATPOV_clean_sbu_0, # of connection points: 4
#     Node 58, Type 0, BuildingBlock: TATPOV_clean_sbu_0, # of connection points: 4
#     Node 59, Type 0, BuildingBlock: TATPOV_clean_sbu_0, # of connection points: 4
#     Node 60, Type 0, BuildingBlock: TATPOV_clean_sbu_0, # of connection points: 4
#     Node 61, Type 0, BuildingBlock: TATPOV_clean_sbu_0, # of connection points: 4
#     Node 62, Type 0, BuildingBlock: TATPOV_clean_sbu_0, # of connection points: 4
#     Node 63, Type 0, BuildingBlock: TATPOV_clean_sbu_0, # of connection points: 4
#     Node 64, Type 0, BuildingBlock: TATPOV_clean_sbu_0, # of connection points: 4
#     Node 65, Type 0, BuildingBlock: TATPOV_clean_sbu_0, # of connection points: 4
#     Node 66, Type 0, BuildingBlock: TATPOV_clean_sbu_0, # of connection points: 4
#     Node 67, Type 0, BuildingBlock: TATPOV_clean_sbu_0, # of connection points: 4
#     Node 68, Type 0, BuildingBlock: TATPOV_clean_sbu_0, # of connection points: 4
#     Node 69, Type 0, BuildingBlock: TATPOV_clean_sbu_0, # of connection points: 4
#     Node 70, Type 0, BuildingBlock: TATPOV_clean_sbu_0, # of connection points: 4
#     Node 71, Type 0, BuildingBlock: TATPOV_clean_sbu_0, # of connection points: 4
#     Node 72, Type 0, BuildingBlock: TATPOV_clean_sbu_0, # of connection points: 4
#     Node 73, Type 0, BuildingBlock: TATPOV_clean_sbu_0, # of connection points: 4
#     Node 74, Type 0, BuildingBlock: TATPOV_clean_sbu_0, # of connection points: 4
#     Node 75, Type 0, BuildingBlock: TATPOV_clean_sbu_0, # of connection points: 4
#     Node 76, Type 0, BuildingBlock: TATPOV_clean_sbu_0, # of connection points: 4
#     Node 77, Type 0, BuildingBlock: TATPOV_clean_sbu_0, # of connection points: 4
#     Node 78, Type 0, BuildingBlock: TATPOV_clean_sbu_0, # of connection points: 4
#     Node 79, Type 0, BuildingBlock: TATPOV_clean_sbu_0, # of connection points: 4
#     Node 80, Type 0, BuildingBlock: TATPOV_clean_sbu_0, # of connection points: 4
#     Node 81, Type 0, BuildingBlock: TATPOV_clean_sbu_0, # of connection points: 4
#     Node 82, Type 0, BuildingBlock: TATPOV_clean_sbu_0, # of connection points: 4
#     Node 83, Type 0, BuildingBlock: TATPOV_clean_sbu_0, # of connection points: 4
#     Node 84, Type 0, BuildingBlock: TATPOV_clean_sbu_0, # of connection points: 4
#     Node 85, Type 0, BuildingBlock: TATPOV_clean_sbu_0, # of connection points: 4
#     Node 86, Type 0, BuildingBlock: TATPOV_clean_sbu_0, # of connection points: 4
#     Node 87, Type 0, BuildingBlock: TATPOV_clean_sbu_0, # of connection points: 4
#     Node 88, Type 0, BuildingBlock: TATPOV_clean_sbu_0, # of connection points: 4
#     Node 89, Type 0, BuildingBlock: TATPOV_clean_sbu_0, # of connection points: 4
#     Node 90, Type 0, BuildingBlock: TATPOV_clean_sbu_0, # of connection points: 4
#     Node 91, Type 0, BuildingBlock: TATPOV_clean_sbu_0, # of connection points: 4
#     Node 92, Type 0, BuildingBlock: TATPOV_clean_sbu_0, # of connection points: 4
#     Node 93, Type 0, BuildingBlock: TATPOV_clean_sbu_0, # of connection points: 4
#     Node 94, Type 0, BuildingBlock: TATPOV_clean_sbu_0, # of connection points: 4
#     Node 95, Type 0, BuildingBlock: TATPOV_clean_sbu_0, # of connection points: 4
#     Edge 96, Type (0, 0), BuildingBlock: XIVTED_clean_linker_0, # of connection points: 2
#     Edge 97, Type (0, 0), BuildingBlock: XIVTED_clean_linker_0, # of connection points: 2
#     Edge 98, Type (0, 0), BuildingBlock: XIVTED_clean_linker_0, # of connection points: 2
#     Edge 99, Type (0, 0), BuildingBlock: XIVTED_clean_linker_0, # of connection points: 2
#     Edge 100, Type (0, 0), BuildingBlock: XIVTED_clean_linker_0, # of connection points: 2
#     Edge 101, Type (0, 0), BuildingBlock: XIVTED_clean_linker_0, # of connection points: 2
#     Edge 102, Type (0, 0), BuildingBlock: XIVTED_clean_linker_0, # of connection points: 2
#     Edge 103, Type (0, 0), BuildingBlock: XIVTED_clean_linker_0, # of connection points: 2
#     Edge 104, Type (0, 0), BuildingBlock: XIVTED_clean_linker_0, # of connection points: 2
#     Edge 105, Type (0, 0), BuildingBlock: XIVTED_clean_linker_0, # of connection points: 2
#     Edge 106, Type (0, 0), BuildingBlock: XIVTED_clean_linker_0, # of connection points: 2
#     Edge 107, Type (0, 0), BuildingBlock: XIVTED_clean_linker_0, # of connection points: 2
#     Edge 108, Type (0, 0), BuildingBlock: XIVTED_clean_linker_0, # of connection points: 2
#     Edge 109, Type (0, 0), BuildingBlock: XIVTED_clean_linker_0, # of connection points: 2
#     Edge 110, Type (0, 0), BuildingBlock: XIVTED_clean_linker_0, # of connection points: 2
#     Edge 111, Type (0, 0), BuildingBlock: XIVTED_clean_linker_0, # of connection points: 2
#     Edge 112, Type (0, 0), BuildingBlock: XIVTED_clean_linker_0, # of connection points: 2
#     Edge 113, Type (0, 0), BuildingBlock: XIVTED_clean_linker_0, # of connection points: 2
#     Edge 114, Type (0, 0), BuildingBlock: XIVTED_clean_linker_0, # of connection points: 2
#     Edge 115, Type (0, 0), BuildingBlock: XIVTED_clean_linker_0, # of connection points: 2
#     Edge 116, Type (0, 0), BuildingBlock: XIVTED_clean_linker_0, # of connection points: 2
#     Edge 117, Type (0, 0), BuildingBlock: XIVTED_clean_linker_0, # of connection points: 2
#     Edge 118, Type (0, 0), BuildingBlock: XIVTED_clean_linker_0, # of connection points: 2
#     Edge 119, Type (0, 0), BuildingBlock: XIVTED_clean_linker_0, # of connection points: 2
#     Edge 120, Type (0, 0), BuildingBlock: XIVTED_clean_linker_0, # of connection points: 2
#     Edge 121, Type (0, 0), BuildingBlock: XIVTED_clean_linker_0, # of connection points: 2
#     Edge 122, Type (0, 0), BuildingBlock: XIVTED_clean_linker_0, # of connection points: 2
#     Edge 123, Type (0, 0), BuildingBlock: XIVTED_clean_linker_0, # of connection points: 2
#     Edge 124, Type (0, 0), BuildingBlock: XIVTED_clean_linker_0, # of connection points: 2
#     Edge 125, Type (0, 0), BuildingBlock: XIVTED_clean_linker_0, # of connection points: 2
#     Edge 126, Type (0, 0), BuildingBlock: XIVTED_clean_linker_0, # of connection points: 2
#     Edge 127, Type (0, 0), BuildingBlock: XIVTED_clean_linker_0, # of connection points: 2
#     Edge 128, Type (0, 0), BuildingBlock: XIVTED_clean_linker_0, # of connection points: 2
#     Edge 129, Type (0, 0), BuildingBlock: XIVTED_clean_linker_0, # of connection points: 2
#     Edge 130, Type (0, 0), BuildingBlock: XIVTED_clean_linker_0, # of connection points: 2
#     Edge 131, Type (0, 0), BuildingBlock: XIVTED_clean_linker_0, # of connection points: 2
#     Edge 132, Type (0, 0), BuildingBlock: XIVTED_clean_linker_0, # of connection points: 2
#     Edge 133, Type (0, 0), BuildingBlock: XIVTED_clean_linker_0, # of connection points: 2
#     Edge 134, Type (0, 0), BuildingBlock: XIVTED_clean_linker_0, # of connection points: 2
#     Edge 135, Type (0, 0), BuildingBlock: XIVTED_clean_linker_0, # of connection points: 2
#     Edge 136, Type (0, 0), BuildingBlock: XIVTED_clean_linker_0, # of connection points: 2
#     Edge 137, Type (0, 0), BuildingBlock: XIVTED_clean_linker_0, # of connection points: 2
#     Edge 138, Type (0, 0), BuildingBlock: XIVTED_clean_linker_0, # of connection points: 2
#     Edge 139, Type (0, 0), BuildingBlock: XIVTED_clean_linker_0, # of connection points: 2
#     Edge 140, Type (0, 0), BuildingBlock: XIVTED_clean_linker_0, # of connection points: 2
#     Edge 141, Type (0, 0), BuildingBlock: XIVTED_clean_linker_0, # of connection points: 2
#     Edge 142, Type (0, 0), BuildingBlock: XIVTED_clean_linker_0, # of connection points: 2
#     Edge 143, Type (0, 0), BuildingBlock: XIVTED_clean_linker_0, # of connection points: 2
#     Edge 144, Type (0, 0), BuildingBlock: XIVTED_clean_linker_0, # of connection points: 2
#     Edge 145, Type (0, 0), BuildingBlock: XIVTED_clean_linker_0, # of connection points: 2
#     Edge 146, Type (0, 0), BuildingBlock: XIVTED_clean_linker_0, # of connection points: 2
#     Edge 147, Type (0, 0), BuildingBlock: XIVTED_clean_linker_0, # of connection points: 2
#     Edge 148, Type (0, 0), BuildingBlock: XIVTED_clean_linker_0, # of connection points: 2
#     Edge 149, Type (0, 0), BuildingBlock: XIVTED_clean_linker_0, # of connection points: 2
#     Edge 150, Type (0, 0), BuildingBlock: XIVTED_clean_linker_0, # of connection points: 2
#     Edge 151, Type (0, 0), BuildingBlock: XIVTED_clean_linker_0, # of connection points: 2
#     Edge 152, Type (0, 0), BuildingBlock: XIVTED_clean_linker_0, # of connection points: 2
#     Edge 153, Type (0, 0), BuildingBlock: XIVTED_clean_linker_0, # of connection points: 2
#     Edge 154, Type (0, 0), BuildingBlock: XIVTED_clean_linker_0, # of connection points: 2
#     Edge 155, Type (0, 0), BuildingBlock: XIVTED_clean_linker_0, # of connection points: 2
#     Edge 156, Type (0, 0), BuildingBlock: XIVTED_clean_linker_0, # of connection points: 2
#     Edge 157, Type (0, 0), BuildingBlock: XIVTED_clean_linker_0, # of connection points: 2
#     Edge 158, Type (0, 0), BuildingBlock: XIVTED_clean_linker_0, # of connection points: 2
#     Edge 159, Type (0, 0), BuildingBlock: XIVTED_clean_linker_0, # of connection points: 2
#     Edge 160, Type (0, 0), BuildingBlock: XIVTED_clean_linker_0, # of connection points: 2
#     Edge 161, Type (0, 0), BuildingBlock: XIVTED_clean_linker_0, # of connection points: 2
#     Edge 162, Type (0, 0), BuildingBlock: XIVTED_clean_linker_0, # of connection points: 2
#     Edge 163, Type (0, 0), BuildingBlock: XIVTED_clean_linker_0, # of connection points: 2
#     Edge 164, Type (0, 0), BuildingBlock: XIVTED_clean_linker_0, # of connection points: 2
#     Edge 165, Type (0, 0), BuildingBlock: XIVTED_clean_linker_0, # of connection points: 2
#     Edge 166, Type (0, 0), BuildingBlock: XIVTED_clean_linker_0, # of connection points: 2
#     Edge 167, Type (0, 0), BuildingBlock: XIVTED_clean_linker_0, # of connection points: 2
#     Edge 168, Type (0, 0), BuildingBlock: XIVTED_clean_linker_0, # of connection points: 2
#     Edge 169, Type (0, 0), BuildingBlock: XIVTED_clean_linker_0, # of connection points: 2
#     Edge 170, Type (0, 0), BuildingBlock: XIVTED_clean_linker_0, # of connection points: 2
#     Edge 171, Type (0, 0), BuildingBlock: XIVTED_clean_linker_0, # of connection points: 2
#     Edge 172, Type (0, 0), BuildingBlock: XIVTED_clean_linker_0, # of connection points: 2
#     Edge 173, Type (0, 0), BuildingBlock: XIVTED_clean_linker_0, # of connection points: 2
#     Edge 174, Type (0, 0), BuildingBlock: XIVTED_clean_linker_0, # of connection points: 2
#     Edge 175, Type (0, 0), BuildingBlock: XIVTED_clean_linker_0, # of connection points: 2
#     Edge 176, Type (0, 0), BuildingBlock: XIVTED_clean_linker_0, # of connection points: 2
#     Edge 177, Type (0, 0), BuildingBlock: XIVTED_clean_linker_0, # of connection points: 2
#     Edge 178, Type (0, 0), BuildingBlock: XIVTED_clean_linker_0, # of connection points: 2
#     Edge 179, Type (0, 0), BuildingBlock: XIVTED_clean_linker_0, # of connection points: 2
#     Edge 180, Type (0, 0), BuildingBlock: XIVTED_clean_linker_0, # of connection points: 2
#     Edge 181, Type (0, 0), BuildingBlock: XIVTED_clean_linker_0, # of connection points: 2
#     Edge 182, Type (0, 0), BuildingBlock: XIVTED_clean_linker_0, # of connection points: 2
#     Edge 183, Type (0, 0), BuildingBlock: XIVTED_clean_linker_0, # of connection points: 2
#     Edge 184, Type (0, 0), BuildingBlock: XIVTED_clean_linker_0, # of connection points: 2
#     Edge 185, Type (0, 0), BuildingBlock: XIVTED_clean_linker_0, # of connection points: 2
#     Edge 186, Type (0, 0), BuildingBlock: XIVTED_clean_linker_0, # of connection points: 2
#     Edge 187, Type (0, 0), BuildingBlock: XIVTED_clean_linker_0, # of connection points: 2
#     Edge 188, Type (0, 0), BuildingBlock: XIVTED_clean_linker_0, # of connection points: 2
#     Edge 189, Type (0, 0), BuildingBlock: XIVTED_clean_linker_0, # of connection points: 2
#     Edge 190, Type (0, 0), BuildingBlock: XIVTED_clean_linker_0, # of connection points: 2
#     Edge 191, Type (0, 0), BuildingBlock: XIVTED_clean_linker_0, # of connection points: 2
#     Edge 192, Type (0, 0), BuildingBlock: XIVTED_clean_linker_0, # of connection points: 2
#     Edge 193, Type (0, 0), BuildingBlock: XIVTED_clean_linker_0, # of connection points: 2
#     Edge 194, Type (0, 0), BuildingBlock: XIVTED_clean_linker_0, # of connection points: 2
#     Edge 195, Type (0, 0), BuildingBlock: XIVTED_clean_linker_0, # of connection points: 2
#     Edge 196, Type (0, 0), BuildingBlock: XIVTED_clean_linker_0, # of connection points: 2
#     Edge 197, Type (0, 0), BuildingBlock: XIVTED_clean_linker_0, # of connection points: 2
#     Edge 198, Type (0, 0), BuildingBlock: XIVTED_clean_linker_0, # of connection points: 2
#     Edge 199, Type (0, 0), BuildingBlock: XIVTED_clean_linker_0, # of connection points: 2
#     Edge 200, Type (0, 0), BuildingBlock: XIVTED_clean_linker_0, # of connection points: 2
#     Edge 201, Type (0, 0), BuildingBlock: XIVTED_clean_linker_0, # of connection points: 2
#     Edge 202, Type (0, 0), BuildingBlock: XIVTED_clean_linker_0, # of connection points: 2
#     Edge 203, Type (0, 0), BuildingBlock: XIVTED_clean_linker_0, # of connection points: 2
#     Edge 204, Type (0, 0), BuildingBlock: XIVTED_clean_linker_0, # of connection points: 2
#     Edge 205, Type (0, 0), BuildingBlock: XIVTED_clean_linker_0, # of connection points: 2
#     Edge 206, Type (0, 0), BuildingBlock: XIVTED_clean_linker_0, # of connection points: 2
#     Edge 207, Type (0, 0), BuildingBlock: XIVTED_clean_linker_0, # of connection points: 2
#     Edge 208, Type (0, 0), BuildingBlock: XIVTED_clean_linker_0, # of connection points: 2
#     Edge 209, Type (0, 0), BuildingBlock: XIVTED_clean_linker_0, # of connection points: 2
#     Edge 210, Type (0, 0), BuildingBlock: XIVTED_clean_linker_0, # of connection points: 2
#     Edge 211, Type (0, 0), BuildingBlock: XIVTED_clean_linker_0, # of connection points: 2
#     Edge 212, Type (0, 0), BuildingBlock: XIVTED_clean_linker_0, # of connection points: 2
#     Edge 213, Type (0, 0), BuildingBlock: XIVTED_clean_linker_0, # of connection points: 2
#     Edge 214, Type (0, 0), BuildingBlock: XIVTED_clean_linker_0, # of connection points: 2
#     Edge 215, Type (0, 0), BuildingBlock: XIVTED_clean_linker_0, # of connection points: 2
#     Edge 216, Type (0, 0), BuildingBlock: XIVTED_clean_linker_0, # of connection points: 2
#     Edge 217, Type (0, 0), BuildingBlock: XIVTED_clean_linker_0, # of connection points: 2
#     Edge 218, Type (0, 0), BuildingBlock: XIVTED_clean_linker_0, # of connection points: 2
#     Edge 219, Type (0, 0), BuildingBlock: XIVTED_clean_linker_0, # of connection points: 2
#     Edge 220, Type (0, 0), BuildingBlock: XIVTED_clean_linker_0, # of connection points: 2
#     Edge 221, Type (0, 0), BuildingBlock: XIVTED_clean_linker_0, # of connection points: 2
#     Edge 222, Type (0, 0), BuildingBlock: XIVTED_clean_linker_0, # of connection points: 2
#     Edge 223, Type (0, 0), BuildingBlock: XIVTED_clean_linker_0, # of connection points: 2
#     Edge 224, Type (0, 0), BuildingBlock: XIVTED_clean_linker_0, # of connection points: 2
#     Edge 225, Type (0, 0), BuildingBlock: XIVTED_clean_linker_0, # of connection points: 2
#     Edge 226, Type (0, 0), BuildingBlock: XIVTED_clean_linker_0, # of connection points: 2
#     Edge 227, Type (0, 0), BuildingBlock: XIVTED_clean_linker_0, # of connection points: 2
#     Edge 228, Type (0, 0), BuildingBlock: XIVTED_clean_linker_0, # of connection points: 2
#     Edge 229, Type (0, 0), BuildingBlock: XIVTED_clean_linker_0, # of connection points: 2
#     Edge 230, Type (0, 0), BuildingBlock: XIVTED_clean_linker_0, # of connection points: 2
#     Edge 231, Type (0, 0), BuildingBlock: XIVTED_clean_linker_0, # of connection points: 2
#     Edge 232, Type (0, 0), BuildingBlock: XIVTED_clean_linker_0, # of connection points: 2
#     Edge 233, Type (0, 0), BuildingBlock: XIVTED_clean_linker_0, # of connection points: 2
#     Edge 234, Type (0, 0), BuildingBlock: XIVTED_clean_linker_0, # of connection points: 2
#     Edge 235, Type (0, 0), BuildingBlock: XIVTED_clean_linker_0, # of connection points: 2
#     Edge 236, Type (0, 0), BuildingBlock: XIVTED_clean_linker_0, # of connection points: 2
#     Edge 237, Type (0, 0), BuildingBlock: XIVTED_clean_linker_0, # of connection points: 2
#     Edge 238, Type (0, 0), BuildingBlock: XIVTED_clean_linker_0, # of connection points: 2
#     Edge 239, Type (0, 0), BuildingBlock: XIVTED_clean_linker_0, # of connection points: 2
#     Edge 240, Type (0, 0), BuildingBlock: XIVTED_clean_linker_0, # of connection points: 2
#     Edge 241, Type (0, 0), BuildingBlock: XIVTED_clean_linker_0, # of connection points: 2
#     Edge 242, Type (0, 0), BuildingBlock: XIVTED_clean_linker_0, # of connection points: 2
#     Edge 243, Type (0, 0), BuildingBlock: XIVTED_clean_linker_0, # of connection points: 2
#     Edge 244, Type (0, 0), BuildingBlock: XIVTED_clean_linker_0, # of connection points: 2
#     Edge 245, Type (0, 0), BuildingBlock: XIVTED_clean_linker_0, # of connection points: 2
#     Edge 246, Type (0, 0), BuildingBlock: XIVTED_clean_linker_0, # of connection points: 2
#     Edge 247, Type (0, 0), BuildingBlock: XIVTED_clean_linker_0, # of connection points: 2
#     Edge 248, Type (0, 0), BuildingBlock: XIVTED_clean_linker_0, # of connection points: 2
#     Edge 249, Type (0, 0), BuildingBlock: XIVTED_clean_linker_0, # of connection points: 2
#     Edge 250, Type (0, 0), BuildingBlock: XIVTED_clean_linker_0, # of connection points: 2
#     Edge 251, Type (0, 0), BuildingBlock: XIVTED_clean_linker_0, # of connection points: 2
#     Edge 252, Type (0, 0), BuildingBlock: XIVTED_clean_linker_0, # of connection points: 2
#     Edge 253, Type (0, 0), BuildingBlock: XIVTED_clean_linker_0, # of connection points: 2
#     Edge 254, Type (0, 0), BuildingBlock: XIVTED_clean_linker_0, # of connection points: 2
#     Edge 255, Type (0, 0), BuildingBlock: XIVTED_clean_linker_0, # of connection points: 2
#     Edge 256, Type (0, 0), BuildingBlock: XIVTED_clean_linker_0, # of connection points: 2
#     Edge 257, Type (0, 0), BuildingBlock: XIVTED_clean_linker_0, # of connection points: 2
#     Edge 258, Type (0, 0), BuildingBlock: XIVTED_clean_linker_0, # of connection points: 2
#     Edge 259, Type (0, 0), BuildingBlock: XIVTED_clean_linker_0, # of connection points: 2
#     Edge 260, Type (0, 0), BuildingBlock: XIVTED_clean_linker_0, # of connection points: 2
#     Edge 261, Type (0, 0), BuildingBlock: XIVTED_clean_linker_0, # of connection points: 2
#     Edge 262, Type (0, 0), BuildingBlock: XIVTED_clean_linker_0, # of connection points: 2
#     Edge 263, Type (0, 0), BuildingBlock: XIVTED_clean_linker_0, # of connection points: 2
#     Edge 264, Type (0, 0), BuildingBlock: XIVTED_clean_linker_0, # of connection points: 2
#     Edge 265, Type (0, 0), BuildingBlock: XIVTED_clean_linker_0, # of connection points: 2
#     Edge 266, Type (0, 0), BuildingBlock: XIVTED_clean_linker_0, # of connection points: 2
#     Edge 267, Type (0, 0), BuildingBlock: XIVTED_clean_linker_0, # of connection points: 2
#     Edge 268, Type (0, 0), BuildingBlock: XIVTED_clean_linker_0, # of connection points: 2
#     Edge 269, Type (0, 0), BuildingBlock: XIVTED_clean_linker_0, # of connection points: 2
#     Edge 270, Type (0, 0), BuildingBlock: XIVTED_clean_linker_0, # of connection points: 2
#     Edge 271, Type (0, 0), BuildingBlock: XIVTED_clean_linker_0, # of connection points: 2
#     Edge 272, Type (0, 0), BuildingBlock: XIVTED_clean_linker_0, # of connection points: 2
#     Edge 273, Type (0, 0), BuildingBlock: XIVTED_clean_linker_0, # of connection points: 2
#     Edge 274, Type (0, 0), BuildingBlock: XIVTED_clean_linker_0, # of connection points: 2
#     Edge 275, Type (0, 0), BuildingBlock: XIVTED_clean_linker_0, # of connection points: 2
#     Edge 276, Type (0, 0), BuildingBlock: XIVTED_clean_linker_0, # of connection points: 2
#     Edge 277, Type (0, 0), BuildingBlock: XIVTED_clean_linker_0, # of connection points: 2
#     Edge 278, Type (0, 0), BuildingBlock: XIVTED_clean_linker_0, # of connection points: 2
#     Edge 279, Type (0, 0), BuildingBlock: XIVTED_clean_linker_0, # of connection points: 2
#     Edge 280, Type (0, 0), BuildingBlock: XIVTED_clean_linker_0, # of connection points: 2
#     Edge 281, Type (0, 0), BuildingBlock: XIVTED_clean_linker_0, # of connection points: 2
#     Edge 282, Type (0, 0), BuildingBlock: XIVTED_clean_linker_0, # of connection points: 2
#     Edge 283, Type (0, 0), BuildingBlock: XIVTED_clean_linker_0, # of connection points: 2
#     Edge 284, Type (0, 0), BuildingBlock: XIVTED_clean_linker_0, # of connection points: 2
#     Edge 285, Type (0, 0), BuildingBlock: XIVTED_clean_linker_0, # of connection points: 2
#     Edge 286, Type (0, 0), BuildingBlock: XIVTED_clean_linker_0, # of connection points: 2
#     Edge 287, Type (0, 0), BuildingBlock: XIVTED_clean_linker_0, # of connection points: 2
# Relax obj value: 0.323
# Max RMSD: 0.251
# Mean RMSD: 0.251
data_MOF--net-ukx--node1-TATPOV_clean_sbu_0--edge1-XIVTED_clean_linker_0
_symmetry_space_group_name_H-M    P1
_symmetry_Int_Tables_number       1
_symmetry_cell_setting            triclinic
loop_
_symmetry_equiv_pos_as_xyz
'x, y, z'
_cell_length_a     77.102043
_cell_length_b     77.111533
_cell_length_c     77.085974
_cell_angle_alpha  89.998197
_cell_angle_beta   90.001829
_cell_angle_gamma 89.982497
loop_
_atom_site_label
_atom_site_type_symbol
_atom_site_fract_x
_atom_site_fract_y
_atom_site_fract_z
_atom_type_partial_charge
Zn0 Zn 0.03592 0.17932 0.30247 0.0
Zn1 Zn 0.05884 0.15472 0.31208 0.0
O2 O 0.05194 0.14825 0.28724 0.0
O3 O 0.03496 0.16931 0.2782 0.0
O4 O 0.07722 0.1374 0.31798 0.0
O5 O 0.05317 0.19809 0.30939 0.0
O6 O 0.07126 0.17743 0.31704 0.0
C7 C 0.04274 0.15513 0.27536 0.0
C8 C 0.02519 0.15793 0.332 0.0
O9 O 0.04007 0.15102 0.33025 0.0
O10 O 0.02009 0.16951 0.32147 0.0
C11 C 0.07399 0.12253 0.32427 0.0
O12 O 0.0578 0.11778 0.32666 0.0
C13 C 0.06753 0.19345 0.31591 0.0
Zn14 Zn 0.07446 0.78011 0.55308 0.0
Zn15 Zn 0.10008 0.80107 0.5646 0.0
O16 O 0.10684 0.79556 0.53951 0.0
O17 O 0.08541 0.77987 0.52912 0.0
O18 O 0.11857 0.81723 0.57267 0.0
O19 O 0.05676 0.79841 0.56039 0.0
O20 O 0.07819 0.81482 0.56959 0.0
C21 C 0.0999 0.78731 0.527 0.0
C22 C 0.09411 0.76667 0.58259 0.0
O23 O 0.10199 0.78111 0.58158 0.0
O24 O 0.08249 0.76274 0.57161 0.0
C25 C 0.12197 0.83112 0.56451 0.0
O26 O 0.11366 0.83454 0.55004 0.0
C27 C 0.06202 0.81214 0.56775 0.0
Zn28 Zn 0.47348 0.81949 0.80798 0.0
Zn29 Zn 0.44808 0.84226 0.81567 0.0
O30 O 0.45426 0.847 0.79028 0.0
O31 O 0.47359 0.82739 0.78287 0.0
O32 O 0.42804 0.85819 0.81978 0.0
O33 O 0.45824 0.79963 0.81659 0.0
O34 O 0.4382 0.81889 0.823 0.0
C35 C 0.46422 0.8403 0.77893 0.0
C36 C 0.48194 0.84493 0.83513 0.0
O37 O 0.4664 0.85002 0.83296 0.0
O38 O 0.48809 0.8328 0.82584 0.0
C39 C 0.42997 0.87418 0.82317 0.0
O40 O 0.44566 0.88076 0.8239 0.0
C41 C 0.44355 0.80327 0.823 0.0
Zn42 Zn 0.43498 0.2144 0.05575 0.0
Zn43 Zn 0.41055 0.19148 0.06542 0.0
O44 O 0.40431 0.19854 0.04062 0.0
O45 O 0.42533 0.21534 0.03127 0.0
O46 O 0.39316 0.17298 0.07046 0.0
O47 O 0.45388 0.19738 0.0631 0.0
O48 O 0.43329 0.17926 0.07082 0.0
C49 C 0.41108 0.20762 0.02861 0.0
C50 C 0.41282 0.22519 0.08495 0.0
O51 O 0.40615 0.21019 0.08344 0.0
O52 O 0.42451 0.23021 0.07448 0.0
C53 C 0.37762 0.17612 0.07491 0.0
O54 O 0.37242 0.19227 0.07647 0.0
C55 C 0.44931 0.18308 0.06978 0.0
Zn56 Zn 0.03135 0.82019 0.19531 0.0
Zn57 Zn 0.05351 0.84532 0.18522 0.0
O58 O 0.04743 0.8511 0.21042 0.0
O59 O 0.03106 0.82973 0.21981 0.0
O60 O 0.0717 0.86285 0.17942 0.0
O61 O 0.04855 0.80169 0.18739 0.0
O62 O 0.06582 0.82281 0.17912 0.0
C63 C 0.03877 0.84397 0.22254 0.0
C64 C 0.01916 0.84237 0.16675 0.0
O65 O 0.03399 0.84947 0.16799 0.0
O66 O 0.01478 0.83036 0.17713 0.0
C67 C 0.06867 0.87746 0.17246 0.0
O68 O 0.05261 0.88194 0.16893 0.0
C69 C 0.06246 0.8067 0.18021 0.0
Zn70 Zn 0.43483 0.78631 0.44439 0.0
Zn71 Zn 0.40978 0.80861 0.43456 0.0
O72 O 0.40342 0.80134 0.4593 0.0
O73 O 0.42477 0.78494 0.46868 0.0
O74 O 0.39197 0.82663 0.42912 0.0
O75 O 0.45325 0.80401 0.43744 0.0
O76 O 0.43219 0.82158 0.42969 0.0
C77 C 0.41033 0.79233 0.47129 0.0
C78 C 0.41365 0.77509 0.41474 0.0
O79 O 0.40644 0.78985 0.41631 0.0
O80 O 0.42529 0.77031 0.42537 0.0
C81 C 0.37687 0.8232 0.42354 0.0
O82 O 0.37227 0.80696 0.42118 0.0
C83 C 0.4483 0.81825 0.43088 0.0
Zn84 Zn 0.46326 0.18458 0.69263 0.0
Zn85 Zn 0.43936 0.16104 0.68328 0.0
O86 O 0.44665 0.15435 0.70792 0.0
O87 O 0.4644 0.1747 0.717 0.0
O88 O 0.42057 0.14397 0.67824 0.0
O89 O 0.44662 0.20397 0.68574 0.0
O90 O 0.42757 0.18411 0.67832 0.0
C91 C 0.45623 0.16073 0.71975 0.0
C92 C 0.47276 0.16263 0.66299 0.0
O93 O 0.45759 0.15644 0.66481 0.0
O94 O 0.47845 0.17397 0.67349 0.0
C95 C 0.42384 0.12825 0.67461 0.0
O96 O 0.44003 0.12294 0.67409 0.0
C97 C 0.43201 0.19997 0.67935 0.0
Zn98 Zn 0.05867 0.21068 0.94758 0.0
Zn99 Zn 0.08428 0.1887 0.93821 0.0
O100 O 0.08978 0.1955 0.96324 0.0
O101 O 0.06815 0.2118 0.97215 0.0
O102 O 0.10282 0.17156 0.9325 0.0
O103 O 0.04089 0.19266 0.9398 0.0
O104 O 0.06233 0.17534 0.93247 0.0
C105 C 0.08249 0.20435 0.97512 0.0
C106 C 0.08031 0.22246 0.91866 0.0
O107 O 0.08762 0.20779 0.92043 0.0
O108 O 0.06835 0.22712 0.92897 0.0
C109 C 0.118 0.17594 0.92785 0.0
O110 O 0.12209 0.19246 0.92703 0.0
C111 C 0.04617 0.17855 0.93319 0.0
Zn112 Zn 0.30259 0.03314 0.18268 0.0
Zn113 Zn 0.31099 0.05769 0.15941 0.0
O114 O 0.2867 0.04955 0.15251 0.0
O115 O 0.27824 0.03139 0.17278 0.0
O116 O 0.31551 0.07706 0.14286 0.0
O117 O 0.30915 0.04963 0.20234 0.0
O118 O 0.31542 0.06927 0.18267 0.0
C119 C 0.27521 0.03952 0.15882 0.0
C120 C 0.33251 0.02504 0.16057 0.0
O121 O 0.33017 0.04025 0.15464 0.0
O122 O 0.32218 0.01878 0.17176 0.0
C123 C 0.31987 0.07452 0.12719 0.0
O124 O 0.32132 0.05857 0.12137 0.0
C125 C 0.31483 0.06457 0.19847 0.0
Zn126 Zn 0.21023 0.04827 0.44355 0.0
Zn127 Zn 0.18869 0.06024 0.41981 0.0
O128 O 0.19649 0.03637 0.41086 0.0
O129 O 0.2143 0.02592 0.43048 0.0
O130 O 0.17004 0.06658 0.403 0.0
O131 O 0.19263 0.05036 0.46275 0.0
O132 O 0.17654 0.06356 0.44333 0.0
C133 C 0.20653 0.02436 0.41611 0.0
C134 C 0.22032 0.0813 0.42682 0.0
O135 O 0.20706 0.07906 0.41727 0.0
O136 O 0.22415 0.07027 0.43844 0.0
C137 C 0.17326 0.07065 0.38737 0.0
O138 O 0.18942 0.07103 0.38197 0.0
C139 C 0.17932 0.05925 0.45904 0.0
Zn140 Zn 0.19132 0.97305 0.68095 0.0
Zn141 Zn 0.18256 0.94514 0.66281 0.0
O142 O 0.20738 0.95123 0.65515 0.0
O143 O 0.21597 0.97239 0.67219 0.0
O144 O 0.17744 0.92427 0.64839 0.0
O145 O 0.18374 0.9605 0.70278 0.0
O146 O 0.17752 0.93716 0.68763 0.0
C147 C 0.21908 0.96182 0.66002 0.0
C148 C 0.16207 0.97839 0.65796 0.0
O149 O 0.16392 0.96224 0.65521 0.0
O150 O 0.17274 0.98641 0.66758 0.0
C151 C 0.17719 0.92585 0.63199 0.0
O152 O 0.1804 0.94107 0.62504 0.0
C153 C 0.17794 0.94514 0.70209 0.0
Zn154 Zn 0.28797 0.94401 0.93646 0.0
Zn155 Zn 0.31215 0.93653 0.91259 0.0
O156 O 0.30338 0.96087 0.90645 0.0
O157 O 0.28553 0.9685 0.92732 0.0
O158 O 0.33121 0.93274 0.89543 0.0
O159 O 0.30488 0.93747 0.95568 0.0
O160 O 0.32421 0.93156 0.93557 0.0
C161 C 0.29327 0.97201 0.91326 0.0
C162 C 0.27985 0.91452 0.91387 0.0
O163 O 0.2949 0.91722 0.90771 0.0
O164 O 0.27366 0.92447 0.92544 0.0
C165 C 0.32834 0.92778 0.87998 0.0
O166 O 0.3123 0.92521 0.87484 0.0
C167 C 0.31977 0.9319 0.95147 0.0
Zn168 Zn 0.30288 0.96408 0.31123 0.0
Zn169 Zn 0.31161 0.94017 0.3351 0.0
O170 O 0.28706 0.94797 0.34154 0.0
O171 O 0.27853 0.9659 0.32108 0.0
O172 O 0.31624 0.92102 0.35192 0.0
O173 O 0.30947 0.9473 0.29184 0.0
O174 O 0.31669 0.92849 0.312 0.0
C175 C 0.27551 0.95784 0.33508 0.0
C176 C 0.3325 0.97312 0.33357 0.0
O177 O 0.33026 0.95811 0.34002 0.0
O178 O 0.32234 0.97877 0.3219 0.0
C179 C 0.32025 0.92373 0.36766 0.0
O180 O 0.3213 0.93973 0.3734 0.0
C181 C 0.31577 0.93272 0.29607 0.0
Zn182 Zn 0.2857 0.05314 0.56108 0.0
Zn183 Zn 0.30959 0.06142 0.58518 0.0
O184 O 0.30216 0.03664 0.59091 0.0
O185 O 0.28435 0.02847 0.57022 0.0
O186 O 0.32834 0.06593 0.60245 0.0
O187 O 0.30258 0.06059 0.54206 0.0
O188 O 0.32155 0.06703 0.56234 0.0
C189 C 0.29246 0.02514 0.58411 0.0
C190 C 0.27618 0.08182 0.58429 0.0
O191 O 0.29132 0.07969 0.59045 0.0
O192 O 0.27055 0.07191 0.5724 0.0
C193 C 0.3251 0.06977 0.61813 0.0
O194 O 0.30892 0.07067 0.62338 0.0
C195 C 0.31726 0.06659 0.54642 0.0
Zn196 Zn 0.18606 0.02712 0.82103 0.0
Zn197 Zn 0.17715 0.05086 0.84506 0.0
O198 O 0.20271 0.04556 0.84991 0.0
O199 O 0.21098 0.02745 0.8295 0.0
O200 O 0.17151 0.06877 0.86282 0.0
O201 O 0.17736 0.04353 0.80216 0.0
O202 O 0.16989 0.06229 0.82232 0.0
C203 C 0.21446 0.03634 0.84287 0.0
C204 C 0.15879 0.01618 0.84508 0.0
O205 O 0.16054 0.03142 0.85112 0.0
O206 O 0.16841 0.01098 0.83277 0.0
C207 C 0.17885 0.08351 0.86306 0.0
O208 O 0.19063 0.08718 0.85131 0.0
C209 C 0.17044 0.05782 0.80644 0.0
Zn210 Zn 0.21221 0.94357 0.05686 0.0
Zn211 Zn 0.1873 0.93516 0.07959 0.0
O212 O 0.1956 0.95938 0.0867 0.0
O213 O 0.21408 0.96788 0.06673 0.0
O214 O 0.16753 0.93107 0.09579 0.0
O215 O 0.19614 0.93736 0.03679 0.0
O216 O 0.17621 0.93071 0.05604 0.0
C217 C 0.20579 0.97085 0.08061 0.0
C218 C 0.21978 0.91355 0.07916 0.0
O219 O 0.20447 0.91587 0.08484 0.0
O220 O 0.22621 0.92386 0.06805 0.0
C221 C 0.16978 0.92809 0.11183 0.0
O222 O 0.18561 0.92754 0.11811 0.0
C223 C 0.18118 0.93154 0.04033 0.0
Zn224 Zn 0.17698 0.30532 0.02543 0.0
Zn225 Zn 0.16045 0.31399 0.05422 0.0
O226 O 0.15306 0.28881 0.04903 0.0
O227 O 0.16935 0.28043 0.0272 0.0
O228 O 0.14728 0.31946 0.07588 0.0
O229 O 0.19932 0.31383 0.03615 0.0
O230 O 0.18565 0.31982 0.06046 0.0
C231 C 0.15785 0.27709 0.03842 0.0
C232 C 0.15289 0.33366 0.0209 0.0
O233 O 0.15128 0.33207 0.03724 0.0
O234 O 0.16222 0.32306 0.01246 0.0
C235 C 0.13084 0.31845 0.07556 0.0
O236 O 0.12311 0.31347 0.06121 0.0
C237 C 0.19952 0.31977 0.05147 0.0
Zn238 Zn 0.68163 0.193 0.96347 0.0
Zn239 Zn 0.65745 0.18483 0.93975 0.0
O240 O 0.65191 0.20968 0.94728 0.0
O241 O 0.67285 0.21773 0.96486 0.0
O242 O 0.64013 0.18058 0.92099 0.0
O243 O 0.70058 0.18546 0.94666 0.0
O244 O 0.68021 0.17883 0.92785 0.0
C245 C 0.65892 0.22115 0.95686 0.0
C246 C 0.65861 0.16417 0.97293 0.0
O247 O 0.65229 0.16643 0.95786 0.0
O248 O 0.67043 0.17414 0.97859 0.0
C249 C 0.62448 0.17654 0.92415 0.0
O250 O 0.61926 0.17521 0.94032 0.0
C251 C 0.69614 0.17919 0.93213 0.0
Zn252 Zn 0.04934 0.43634 0.20775 0.0
Zn253 Zn 0.06352 0.40849 0.1916 0.0
O254 O 0.03902 0.40072 0.19814 0.0
O255 O 0.02632 0.42361 0.20948 0.0
O256 O 0.07326 0.3883 0.17857 0.0
O257 O 0.05581 0.45123 0.18679 0.0
O258 O 0.06663 0.42804 0.17425 0.0
C259 C 0.02571 0.40787 0.20482 0.0
C260 C 0.07979 0.42148 0.22494 0.0
O261 O 0.08007 0.41138 0.2119 0.0
O262 O 0.06777 0.4326 0.22662 0.0
C263 C 0.06474 0.38157 0.16619 0.0
O264 O 0.04917 0.3875 0.16262 0.0
C265 C 0.06353 0.44424 0.17406 0.0
Zn266 Zn 0.804 0.79645 0.45102 0.0
Zn267 Zn 0.83214 0.80999 0.4355 0.0
O268 O 0.8397 0.78562 0.44246 0.0
O269 O 0.81714 0.7739 0.45536 0.0
O270 O 0.8515 0.81824 0.42043 0.0
O271 O 0.7887 0.80049 0.42993 0.0
O272 O 0.81146 0.81402 0.41952 0.0
C273 C 0.83275 0.77288 0.4503 0.0
C274 C 0.81896 0.82828 0.46693 0.0
O275 O 0.83095 0.82693 0.45566 0.0
O276 O 0.80667 0.81732 0.46736 0.0
C277 C 0.86612 0.82375 0.42561 0.0
O278 O 0.86952 0.82422 0.4423 0.0
C279 C 0.7955 0.80999 0.41837 0.0
Zn280 Zn 0.94719 0.05782 0.20516 0.0
Zn281 Zn 0.93644 0.08468 0.18534 0.0
O282 O 0.96114 0.09091 0.19272 0.0
O283 O 0.9712 0.0684 0.20704 0.0
O284 O 0.93022 0.10383 0.16896 0.0
O285 O 0.94046 0.04104 0.18581 0.0
O286 O 0.93217 0.06348 0.17031 0.0
C287 C 0.97341 0.08348 0.20091 0.0
C288 C 0.91738 0.07725 0.21881 0.0
O289 O 0.91849 0.08578 0.20473 0.0
O290 O 0.92831 0.06544 0.22231 0.0
C291 C 0.92249 0.11775 0.17317 0.0
O292 O 0.91823 0.12042 0.18945 0.0
C293 C 0.93382 0.04716 0.17206 0.0
Zn294 Zn 0.31399 0.69345 0.53516 0.0
Zn295 Zn 0.33746 0.685 0.55952 0.0
O296 O 0.34375 0.70977 0.55224 0.0
O297 O 0.32345 0.71794 0.53396 0.0
O298 O 0.35462 0.67978 0.57818 0.0
O299 O 0.29462 0.68639 0.55174 0.0
O300 O 0.31437 0.67967 0.5712 0.0
C301 C 0.33718 0.72125 0.54234 0.0
C302 C 0.33662 0.66435 0.52619 0.0
O303 O 0.34256 0.66662 0.54139 0.0
O304 O 0.32505 0.67441 0.52019 0.0
C305 C 0.37056 0.67745 0.57472 0.0
O306 O 0.37592 0.67896 0.55861 0.0
C307 C 0.29855 0.68031 0.56651 0.0
Zn308 Zn 0.04978 0.55436 0.30326 0.0
Zn309 Zn 0.06374 0.58463 0.31417 0.0
O310 O 0.03889 0.59059 0.30753 0.0
O311 O 0.02687 0.56652 0.29813 0.0
O312 O 0.07196 0.60638 0.32577 0.0
O313 O 0.05509 0.54262 0.3263 0.0
O314 O 0.06869 0.56673 0.33293 0.0
C315 C 0.02588 0.58261 0.30128 0.0
C316 C 0.08053 0.56704 0.28384 0.0
O317 O 0.07966 0.58038 0.29353 0.0
O318 O 0.06967 0.55478 0.28558 0.0
C319 C 0.08343 0.61679 0.32019 0.0
O320 O 0.09079 0.61391 0.3051 0.0
C321 C 0.06484 0.55108 0.33647 0.0
Zn322 Zn 0.44436 0.42926 0.78245 0.0
Zn323 Zn 0.43457 0.40359 0.80414 0.0
O324 O 0.45942 0.39771 0.79694 0.0
O325 O 0.46877 0.41942 0.78102 0.0
O326 O 0.42939 0.38546 0.82193 0.0
O327 O 0.43709 0.44723 0.80053 0.0
O328 O 0.42924 0.42568 0.81745 0.0
C329 C 0.47143 0.40486 0.78817 0.0
C330 C 0.41494 0.40799 0.77063 0.0
O331 O 0.41652 0.40043 0.78521 0.0
O332 O 0.42546 0.41985 0.76619 0.0
C333 C 0.42182 0.37116 0.81887 0.0
O334 O 0.41699 0.36741 0.80297 0.0
C335 C 0.43034 0.44187 0.81454 0.0
Zn336 Zn 0.9653 0.81403 0.68913 0.0
Zn337 Zn 0.94526 0.84016 0.67725 0.0
O338 O 0.95072 0.84672 0.70242 0.0
O339 O 0.96527 0.82467 0.71318 0.0
O340 O 0.92959 0.85915 0.66922 0.0
O341 O 0.94685 0.79674 0.68141 0.0
O342 O 0.93104 0.81854 0.67201 0.0
C343 C 0.9584 0.83947 0.71512 0.0
C344 C 0.97998 0.83374 0.66019 0.0
O345 O 0.96562 0.84182 0.66071 0.0
O346 O 0.98333 0.82197 0.67121 0.0
C347 C 0.91678 0.86411 0.67831 0.0
O348 O 0.91408 0.85695 0.69354 0.0
C349 C 0.93331 0.80231 0.6739 0.0
Zn350 Zn 0.94057 0.21016 0.44605 0.0
Zn351 Zn 0.91533 0.18734 0.43814 0.0
O352 O 0.91022 0.19533 0.46293 0.0
O353 O 0.93185 0.21211 0.47084 0.0
O354 O 0.89704 0.16946 0.43388 0.0
O355 O 0.95863 0.1924 0.43827 0.0
O356 O 0.93747 0.17424 0.43235 0.0
C357 C 0.91758 0.20474 0.47432 0.0
C358 C 0.91786 0.22047 0.41737 0.0
O359 O 0.91106 0.20563 0.41965 0.0
O360 O 0.92988 0.22575 0.4273 0.0
C361 C 0.88184 0.17332 0.42886 0.0
O362 O 0.87764 0.18968 0.42658 0.0
C363 C 0.95356 0.1779 0.43239 0.0
Zn364 Zn 0.53696 0.18627 0.1961 0.0
Zn365 Zn 0.55959 0.16137 0.18694 0.0
O366 O 0.55179 0.15507 0.21156 0.0
O367 O 0.53511 0.17643 0.22041 0.0
O368 O 0.57769 0.14355 0.18176 0.0
O369 O 0.55461 0.20477 0.18933 0.0
O370 O 0.5725 0.18383 0.18203 0.0
C371 C 0.54245 0.16201 0.22328 0.0
C372 C 0.52641 0.16482 0.16648 0.0
O373 O 0.5412 0.15776 0.16839 0.0
O374 O 0.52134 0.17651 0.17691 0.0
C375 C 0.57401 0.12819 0.17713 0.0
O376 O 0.55768 0.12349 0.17587 0.0
C377 C 0.56899 0.19991 0.183 0.0
Zn378 Zn 0.55701 0.80204 0.95053 0.0
Zn379 Zn 0.58642 0.81506 0.93651 0.0
O380 O 0.59307 0.80854 0.96129 0.0
O381 O 0.56965 0.7976 0.97331 0.0
O382 O 0.60732 0.828 0.9279 0.0
O383 O 0.54361 0.82416 0.94544 0.0
O384 O 0.56707 0.83244 0.9316 0.0
C385 C 0.58554 0.80165 0.97427 0.0
C386 C 0.57069 0.78381 0.91957 0.0
O387 O 0.58338 0.79429 0.9206 0.0
O388 O 0.55835 0.7846 0.93046 0.0
C389 C 0.61623 0.82388 0.91466 0.0
O390 O 0.61231 0.80978 0.90595 0.0
C391 C 0.5512 0.83482 0.93551 0.0
Zn392 Zn 0.96197 0.1829 0.80465 0.0
Zn393 Zn 0.93864 0.15862 0.81411 0.0
O394 O 0.94537 0.15229 0.78925 0.0
O395 O 0.96293 0.17289 0.78032 0.0
O396 O 0.92078 0.14086 0.82 0.0
O397 O 0.94465 0.20165 0.81167 0.0
O398 O 0.92616 0.18129 0.81917 0.0
C399 C 0.95477 0.15894 0.77741 0.0
C400 C 0.97234 0.16131 0.83408 0.0
O401 O 0.95737 0.15469 0.83218 0.0
O402 O 0.9777 0.17288 0.82367 0.0
C403 C 0.92482 0.12517 0.82292 0.0
O404 O 0.94113 0.12036 0.82175 0.0
C405 C 0.93016 0.19725 0.81809 0.0
Zn406 Zn 0.56226 0.20964 0.55211 0.0
Zn407 Zn 0.58561 0.18496 0.55941 0.0
O408 O 0.59205 0.1938 0.53516 0.0
O409 O 0.57153 0.2121 0.52763 0.0
O410 O 0.60263 0.16585 0.56336 0.0
O411 O 0.54282 0.19298 0.55865 0.0
O412 O 0.5625 0.17308 0.56407 0.0
C413 C 0.58546 0.20414 0.52409 0.0
C414 C 0.58475 0.21711 0.58176 0.0
O415 O 0.5906 0.20196 0.57894 0.0
O416 O 0.57343 0.22367 0.57177 0.0
C417 C 0.61853 0.16903 0.56621 0.0
O418 O 0.62394 0.18519 0.56622 0.0
C419 C 0.54672 0.1779 0.56392 0.0
Zn420 Zn 0.53354 0.81497 0.30415 0.0
Zn421 Zn 0.55701 0.83916 0.31325 0.0
O422 O 0.5496 0.84543 0.28855 0.0
O423 O 0.53217 0.82468 0.27973 0.0
O424 O 0.57562 0.85649 0.31814 0.0
O425 O 0.5506 0.79597 0.31115 0.0
O426 O 0.56916 0.81634 0.31845 0.0
C427 C 0.54011 0.83876 0.2768 0.0
C428 C 0.52371 0.83697 0.33366 0.0
O429 O 0.53872 0.84351 0.3317 0.0
O430 O 0.51824 0.82541 0.32329 0.0
C431 C 0.5725 0.87176 0.32345 0.0
O432 O 0.55636 0.87669 0.32586 0.0
C433 C 0.5651 0.80038 0.31754 0.0
Zn434 Zn 0.93374 0.7884 0.0547 0.0
Zn435 Zn 0.90668 0.80656 0.06771 0.0
O436 O 0.89976 0.80087 0.04273 0.0
O437 O 0.92226 0.78787 0.03099 0.0
O438 O 0.88701 0.82093 0.07648 0.0
O439 O 0.95 0.80787 0.06229 0.0
O440 O 0.92746 0.82202 0.07254 0.0
C441 C 0.90698 0.79376 0.02969 0.0
C442 C 0.91594 0.77219 0.08412 0.0
O443 O 0.9069 0.78598 0.08403 0.0
O444 O 0.92754 0.76974 0.07269 0.0
C445 C 0.88106 0.83351 0.06767 0.0
O446 O 0.8876 0.83671 0.05226 0.0
C447 C 0.94376 0.82086 0.07023 0.0
Zn448 Zn 0.696 0.96821 0.80932 0.0
Zn449 Zn 0.68651 0.9405 0.82715 0.0
O450 O 0.71081 0.94693 0.83635 0.0
O451 O 0.72015 0.96774 0.81924 0.0
O452 O 0.68077 0.91902 0.84044 0.0
O453 O 0.6898 0.95602 0.78695 0.0
O454 O 0.68278 0.93285 0.80197 0.0
C455 C 0.72267 0.95752 0.83183 0.0
C456 C 0.66562 0.97353 0.83103 0.0
O457 O 0.66733 0.95739 0.83403 0.0
O458 O 0.67671 0.98145 0.8218 0.0
C459 C 0.68026 0.91916 0.8569 0.0
O460 O 0.68376 0.93362 0.86521 0.0
C461 C 0.68394 0.94068 0.78748 0.0
Zn462 Zn 0.77133 0.93806 0.57058 0.0
Zn463 Zn 0.8003 0.93001 0.58725 0.0
O464 O 0.79426 0.9548 0.59514 0.0
O465 O 0.77217 0.96279 0.57899 0.0
O466 O 0.82205 0.92509 0.60038 0.0
O467 O 0.78264 0.93049 0.54812 0.0
O468 O 0.80693 0.92491 0.56199 0.0
C469 C 0.78323 0.96624 0.59061 0.0
C470 C 0.76767 0.90911 0.59421 0.0
O471 O 0.78392 0.91124 0.59603 0.0
O472 O 0.75897 0.91951 0.58488 0.0
C473 C 0.8216 0.92513 0.61685 0.0
O474 O 0.80694 0.92874 0.62476 0.0
C475 C 0.79815 0.92504 0.54799 0.0
Zn476 Zn 0.80851 0.03093 0.31903 0.0
Zn477 Zn 0.8166 0.05628 0.34141 0.0
O478 O 0.79139 0.04978 0.34688 0.0
O479 O 0.78353 0.03082 0.32711 0.0
O480 O 0.82093 0.07627 0.35732 0.0
O481 O 0.81688 0.04578 0.29885 0.0
O482 O 0.82371 0.06598 0.31779 0.0
C483 C 0.77991 0.03988 0.34032 0.0
C484 C 0.83597 0.02248 0.34413 0.0
O485 O 0.83402 0.03809 0.34906 0.0
O486 O 0.82644 0.01628 0.33221 0.0
C487 C 0.82322 0.07403 0.37347 0.0
O488 O 0.82256 0.05827 0.37992 0.0
C489 C 0.82348 0.06044 0.30223 0.0
Zn490 Zn 0.70701 0.0503 0.05804 0.0
Zn491 Zn 0.68469 0.06014 0.08301 0.0
O492 O 0.69226 0.03554 0.08946 0.0
O493 O 0.70867 0.02605 0.06818 0.0
O494 O 0.6668 0.06554 0.10096 0.0
O495 O 0.68928 0.05721 0.0396 0.0
O496 O 0.67169 0.06501 0.06063 0.0
C497 C 0.70139 0.02356 0.0827 0.0
C498 C 0.7181 0.08005 0.07914 0.0
O499 O 0.70334 0.07846 0.08633 0.0
O500 O 0.72293 0.06941 0.06754 0.0
C501 C 0.67063 0.06998 0.11635 0.0
O502 O 0.687 0.07105 0.12094 0.0
C503 C 0.67506 0.06384 0.04452 0.0
Zn504 Zn 0.69378 0.04142 0.69003 0.0
Zn505 Zn 0.68532 0.06135 0.66276 0.0
O506 O 0.70993 0.05317 0.65762 0.0
O507 O 0.71735 0.03623 0.6793 0.0
O508 O 0.68078 0.07834 0.64373 0.0
O509 O 0.68974 0.06118 0.70695 0.0
O510 O 0.67964 0.07549 0.68448 0.0
C511 C 0.72092 0.04321 0.66486 0.0
C512 C 0.66311 0.03033 0.66973 0.0
O513 O 0.66702 0.04267 0.65952 0.0
O514 O 0.67212 0.02749 0.68323 0.0
C515 C 0.6762 0.07375 0.62859 0.0
O516 O 0.67448 0.05718 0.62501 0.0
C517 C 0.68194 0.07427 0.70079 0.0
Zn518 Zn 0.71931 0.93801 0.43202 0.0
Zn519 Zn 0.69349 0.93092 0.40981 0.0
O520 O 0.70045 0.95605 0.40471 0.0
O521 O 0.71986 0.96315 0.42432 0.0
O522 O 0.67327 0.92739 0.39404 0.0
O523 O 0.70437 0.92955 0.45214 0.0
O524 O 0.68368 0.92393 0.43334 0.0
C525 C 0.71064 0.96721 0.41135 0.0
C526 C 0.72672 0.91052 0.4067 0.0
O527 O 0.71111 0.91295 0.40196 0.0
O528 O 0.73337 0.91987 0.41851 0.0
C529 C 0.67519 0.92519 0.37783 0.0
O530 O 0.69087 0.92529 0.37116 0.0
C531 C 0.68941 0.92359 0.44882 0.0
Zn532 Zn 0.80606 0.97612 0.17779 0.0
Zn533 Zn 0.81406 0.94697 0.16144 0.0
O534 O 0.78898 0.95256 0.1541 0.0
O535 O 0.78113 0.97489 0.16998 0.0
O536 O 0.81904 0.92521 0.1483 0.0
O537 O 0.81444 0.9652 0.20017 0.0
O538 O 0.81986 0.94069 0.18663 0.0
C539 C 0.77752 0.96355 0.15867 0.0
C540 C 0.83446 0.97979 0.15363 0.0
O541 O 0.83245 0.96349 0.15213 0.0
O542 O 0.82412 0.98855 0.16294 0.0
C543 C 0.81837 0.92566 0.13184 0.0
O544 O 0.81404 0.94022 0.1241 0.0
C545 C 0.82008 0.94976 0.20044 0.0
Zn546 Zn 0.78417 0.05069 0.93609 0.0
Zn547 Zn 0.8054 0.06106 0.91021 0.0
O548 O 0.799 0.03604 0.90424 0.0
O549 O 0.78306 0.02641 0.92583 0.0
O550 O 0.8214 0.0678 0.89105 0.0
O551 O 0.80276 0.05821 0.95347 0.0
O552 O 0.81946 0.0664 0.93184 0.0
C553 C 0.79037 0.02388 0.91133 0.0
C554 C 0.77138 0.07992 0.91557 0.0
O555 O 0.78586 0.07847 0.90783 0.0
O556 O 0.76719 0.06933 0.92746 0.0
C557 C 0.83589 0.0603 0.88885 0.0
O558 O 0.84036 0.04754 0.89924 0.0
C559 C 0.81668 0.06512 0.94806 0.0
Zn560 Zn 0.81144 0.69339 0.96804 0.0
Zn561 Zn 0.83435 0.68592 0.94297 0.0
O562 O 0.83992 0.71087 0.95041 0.0
O563 O 0.81974 0.71824 0.96915 0.0
O564 O 0.85034 0.68205 0.92295 0.0
O565 O 0.79154 0.6858 0.95247 0.0
O566 O 0.81093 0.67956 0.93252 0.0
C567 C 0.83314 0.72208 0.96048 0.0
C568 C 0.83566 0.66504 0.97598 0.0
O569 O 0.8411 0.66751 0.9606 0.0
O570 O 0.8239 0.67468 0.98231 0.0
C571 C 0.86636 0.67872 0.92486 0.0
O572 O 0.87295 0.67798 0.94056 0.0
C573 C 0.79525 0.67971 0.93767 0.0
Zn574 Zn 0.31165 0.80351 0.03346 0.0
Zn575 Zn 0.33464 0.81183 0.05834 0.0
O576 O 0.34131 0.78733 0.05061 0.0
O577 O 0.3214 0.77912 0.03193 0.0
O578 O 0.35121 0.81639 0.0777 0.0
O579 O 0.29189 0.81012 0.0498 0.0
O580 O 0.31129 0.81661 0.06966 0.0
C581 C 0.33507 0.7759 0.04045 0.0
C582 C 0.3341 0.83314 0.02546 0.0
O583 O 0.33983 0.83077 0.04075 0.0
O584 O 0.32282 0.82296 0.01912 0.0
C585 C 0.36702 0.82002 0.07489 0.0
O586 O 0.37274 0.82065 0.05885 0.0
C587 C 0.29556 0.81592 0.06475 0.0
Zn588 Zn 0.94151 0.56102 0.78952 0.0
Zn589 Zn 0.93221 0.58718 0.81069 0.0
O590 O 0.95704 0.59272 0.80307 0.0
O591 O 0.966 0.57039 0.78777 0.0
O592 O 0.92726 0.60578 0.82808 0.0
O593 O 0.93415 0.54346 0.80791 0.0
O594 O 0.9269 0.56538 0.82461 0.0
C595 C 0.96888 0.58514 0.7944 0.0
C596 C 0.91257 0.5826 0.7772 0.0
O597 O 0.91412 0.59029 0.79171 0.0
O598 O 0.92291 0.57049 0.77302 0.0
C599 C 0.92066 0.62042 0.82448 0.0
O600 O 0.91677 0.62416 0.80831 0.0
C601 C 0.92779 0.54912 0.82197 0.0
Zn602 Zn 0.1903 0.19256 0.54165 0.0
Zn603 Zn 0.16379 0.18348 0.56202 0.0
O604 O 0.1576 0.20786 0.55366 0.0
O605 O 0.17897 0.2158 0.53656 0.0
O606 O 0.14599 0.17876 0.58024 0.0
O607 O 0.20816 0.18925 0.56064 0.0
O608 O 0.18627 0.17828 0.57516 0.0
C609 C 0.16446 0.21898 0.54359 0.0
C610 C 0.17039 0.16118 0.53126 0.0
O611 O 0.16018 0.16491 0.54366 0.0
O612 O 0.18361 0.17054 0.52824 0.0
C613 C 0.13047 0.17434 0.577 0.0
O614 O 0.12538 0.17284 0.56081 0.0
C615 C 0.20249 0.18103 0.57369 0.0
Zn616 Zn 0.04782 0.93872 0.79652 0.0
Zn617 Zn 0.05965 0.9089 0.81033 0.0
O618 O 0.03503 0.90338 0.80236 0.0
O619 O 0.02483 0.92724 0.79056 0.0
O620 O 0.06628 0.88795 0.8242 0.0
O621 O 0.05185 0.95211 0.81882 0.0
O622 O 0.06447 0.92821 0.82776 0.0
C623 C 0.02287 0.91145 0.79466 0.0
C624 C 0.07932 0.92349 0.78033 0.0
O625 O 0.07707 0.91077 0.7906 0.0
O626 O 0.06899 0.93633 0.78057 0.0
C627 C 0.07669 0.87609 0.81949 0.0
O628 O 0.08371 0.87673 0.80398 0.0
C629 C 0.06098 0.94419 0.82996 0.0
Zn630 Zn 0.67957 0.309 0.46765 0.0
Zn631 Zn 0.65746 0.31734 0.44209 0.0
O632 O 0.65157 0.29219 0.44847 0.0
O633 O 0.67105 0.28415 0.46768 0.0
O634 O 0.64208 0.32194 0.42175 0.0
O635 O 0.70001 0.31701 0.45292 0.0
O636 O 0.68126 0.32389 0.43257 0.0
C637 C 0.65793 0.28065 0.45843 0.0
C638 C 0.65495 0.337 0.47578 0.0
O639 O 0.65002 0.33505 0.46016 0.0
O640 O 0.66662 0.32724 0.4821 0.0
C641 C 0.62591 0.3246 0.42338 0.0
O642 O 0.61888 0.32416 0.4389 0.0
C643 C 0.69678 0.32351 0.43817 0.0
Zn644 Zn 0.94711 0.43952 0.70787 0.0
Zn645 Zn 0.93251 0.4117 0.69264 0.0
O646 O 0.95709 0.40379 0.69855 0.0
O647 O 0.96962 0.42607 0.71115 0.0
O648 O 0.92285 0.392 0.67887 0.0
O649 O 0.94237 0.45471 0.68687 0.0
O650 O 0.92815 0.4323 0.67658 0.0
C651 C 0.97025 0.41051 0.70589 0.0
C652 C 0.91568 0.42533 0.7248 0.0
O653 O 0.91648 0.41349 0.71335 0.0
O654 O 0.92693 0.43735 0.7251 0.0
C655 C 0.93104 0.3865 0.66568 0.0
O656 O 0.94608 0.39347 0.66175 0.0
C657 C 0.9324 0.44821 0.67554 0.0
Zn658 Zn 0.54784 0.55558 0.20182 0.0
Zn659 Zn 0.56002 0.58392 0.18564 0.0
O660 O 0.5357 0.59051 0.19361 0.0
O661 O 0.52507 0.56786 0.20722 0.0
O662 O 0.56638 0.60376 0.17022 0.0
O663 O 0.55146 0.54036 0.1806 0.0
O664 O 0.56429 0.56327 0.16965 0.0
C665 C 0.52344 0.58336 0.20202 0.0
C666 C 0.57994 0.57145 0.2163 0.0
O667 O 0.57782 0.58338 0.2051 0.0
O668 O 0.56932 0.55889 0.21721 0.0
C669 C 0.57517 0.61699 0.17454 0.0
O670 O 0.58095 0.61844 0.1905 0.0
C671 C 0.56056 0.54722 0.16877 0.0
Zn672 Zn 0.5237 0.68096 0.80851 0.0
Zn673 Zn 0.55273 0.66432 0.81607 0.0
O674 O 0.54639 0.65672 0.79123 0.0
O675 O 0.52429 0.67304 0.78363 0.0
O676 O 0.57452 0.65105 0.82058 0.0
O677 O 0.53498 0.70328 0.81642 0.0
O678 O 0.55946 0.68948 0.82134 0.0
C679 C 0.53529 0.66144 0.77993 0.0
C680 C 0.52029 0.65725 0.83732 0.0
O681 O 0.53654 0.65556 0.83507 0.0
O682 O 0.51144 0.66645 0.82694 0.0
C683 C 0.57367 0.63461 0.82114 0.0
O684 O 0.55868 0.62698 0.8184 0.0
C685 C 0.55056 0.7034 0.82165 0.0
Zn686 Zn 0.56306 0.28492 0.05646 0.0
Zn687 Zn 0.58741 0.30842 0.06496 0.0
O688 O 0.59307 0.30099 0.04011 0.0
O689 O 0.57208 0.28361 0.03179 0.0
O690 O 0.6048 0.32711 0.06934 0.0
O691 O 0.5442 0.30193 0.06384 0.0
O692 O 0.56469 0.32054 0.07068 0.0
C693 C 0.58608 0.29154 0.02851 0.0
C694 C 0.58579 0.27515 0.08544 0.0
O695 O 0.59224 0.29017 0.08333 0.0
O696 O 0.574 0.26964 0.07534 0.0
C697 C 0.62011 0.32415 0.07464 0.0
O698 O 0.6251 0.3081 0.07741 0.0
C699 C 0.54872 0.31644 0.0701 0.0
Zn700 Zn 0.96342 0.31021 0.30527 0.0
Zn701 Zn 0.94045 0.33479 0.31426 0.0
O702 O 0.9476 0.34061 0.28928 0.0
O703 O 0.96447 0.31929 0.28068 0.0
O704 O 0.92164 0.35196 0.31923 0.0
O705 O 0.94657 0.29132 0.31275 0.0
O706 O 0.92841 0.31203 0.32004 0.0
C707 C 0.95679 0.33346 0.27755 0.0
C708 C 0.97409 0.3328 0.33408 0.0
O709 O 0.95911 0.33951 0.33234 0.0
O710 O 0.97915 0.32091 0.32386 0.0
C711 C 0.92438 0.36743 0.32415 0.0
O712 O 0.9404 0.37293 0.32595 0.0
C713 C 0.93225 0.296 0.3193 0.0
Zn714 Zn 0.9341 0.71207 0.55025 0.0
Zn715 Zn 0.90891 0.69021 0.56039 0.0
O716 O 0.90278 0.69704 0.53547 0.0
O717 O 0.92438 0.7129 0.52578 0.0
O718 O 0.8915 0.67182 0.56576 0.0
O719 O 0.95269 0.69483 0.55795 0.0
O720 O 0.93143 0.67774 0.56614 0.0
C721 C 0.90982 0.70569 0.52331 0.0
C722 C 0.91204 0.72417 0.57914 0.0
O723 O 0.90481 0.70939 0.578 0.0
O724 O 0.92398 0.72847 0.56864 0.0
C725 C 0.8762 0.67461 0.57113 0.0
O726 O 0.87088 0.69063 0.57345 0.0
C727 C 0.94758 0.68091 0.56504 0.0
Zn728 Zn 0.53901 0.30597 0.69325 0.0
Zn729 Zn 0.56364 0.32913 0.68523 0.0
O730 O 0.5552 0.33609 0.70947 0.0
O731 O 0.53705 0.31567 0.71761 0.0
O732 O 0.58338 0.34529 0.68091 0.0
O733 O 0.55525 0.28609 0.68693 0.0
O734 O 0.57492 0.30572 0.68069 0.0
C735 C 0.54504 0.32966 0.7208 0.0
C736 C 0.53123 0.32845 0.66345 0.0
O737 O 0.54643 0.33435 0.66593 0.0
O738 O 0.52492 0.31713 0.67361 0.0
C739 C 0.5813 0.36143 0.67847 0.0
O740 O 0.56559 0.36802 0.67901 0.0
C741 C 0.5702 0.28993 0.68127 0.0
Zn742 Zn 0.9326 0.28628 0.9442 0.0
Zn743 Zn 0.90751 0.30836 0.93402 0.0
O744 O 0.90101 0.30108 0.95877 0.0
O745 O 0.92254 0.28509 0.96845 0.0
O746 O 0.88959 0.32628 0.92827 0.0
O747 O 0.95101 0.30388 0.93716 0.0
O748 O 0.92998 0.32133 0.92905 0.0
C749 C 0.90795 0.29224 0.97088 0.0
C750 C 0.91159 0.2746 0.91466 0.0
O751 O 0.90439 0.28938 0.916 0.0
O752 O 0.92319 0.26997 0.92539 0.0
C753 C 0.87548 0.32304 0.92041 0.0
O754 O 0.8719 0.30703 0.91582 0.0
C755 C 0.94609 0.31802 0.93036 0.0
Zn756 Zn 0.97086 0.6771 0.19335 0.0
Zn757 Zn 0.9484 0.65243 0.18303 0.0
O758 O 0.95403 0.64639 0.20828 0.0
O759 O 0.97073 0.66745 0.21779 0.0
O760 O 0.93014 0.63519 0.17686 0.0
O761 O 0.95399 0.69589 0.18551 0.0
O762 O 0.9364 0.67513 0.17704 0.0
C763 C 0.96268 0.65339 0.22048 0.0
C764 C 0.98282 0.65502 0.16466 0.0
O765 O 0.9679 0.6481 0.16585 0.0
O766 O 0.98737 0.66687 0.17515 0.0
C767 C 0.93315 0.61964 0.17237 0.0
O768 O 0.94923 0.61402 0.17177 0.0
C769 C 0.94001 0.69117 0.17827 0.0
Zn770 Zn 0.56446 0.71083 0.44422 0.0
Zn771 Zn 0.59029 0.68953 0.43372 0.0
O772 O 0.59647 0.69617 0.45872 0.0
O773 O 0.57462 0.71172 0.46843 0.0
O774 O 0.60886 0.67248 0.42733 0.0
O775 O 0.54678 0.69256 0.43694 0.0
O776 O 0.56833 0.6758 0.4287 0.0
C777 C 0.58923 0.70464 0.47092 0.0
C778 C 0.58485 0.72354 0.41483 0.0
O779 O 0.59252 0.709 0.41609 0.0
O780 O 0.57315 0.72776 0.42562 0.0
C781 C 0.6224 0.6763 0.41875 0.0
O782 O 0.62502 0.69242 0.41392 0.0
C783 C 0.55213 0.67861 0.43009 0.0
Zn784 Zn 0.80453 0.53267 0.68375 0.0
Zn785 Zn 0.81357 0.55591 0.65935 0.0
O786 O 0.7889 0.54843 0.65301 0.0
O787 O 0.78026 0.53088 0.67374 0.0
O788 O 0.81835 0.57477 0.64225 0.0
O789 O 0.81083 0.54986 0.70281 0.0
O790 O 0.81877 0.56797 0.68228 0.0
C791 C 0.77728 0.53877 0.65964 0.0
C792 C 0.83406 0.52273 0.66155 0.0
O793 O 0.83186 0.53754 0.65462 0.0
O794 O 0.82401 0.51761 0.67356 0.0
C795 C 0.82325 0.57199 0.62677 0.0
O796 O 0.82534 0.55596 0.62137 0.0
C797 C 0.81744 0.56422 0.6983 0.0
Zn798 Zn 0.70392 0.55278 0.94089 0.0
Zn799 Zn 0.6831 0.56366 0.91476 0.0
O800 O 0.68975 0.53873 0.90858 0.0
O801 O 0.70501 0.52864 0.93045 0.0
O802 O 0.66679 0.5703 0.89565 0.0
O803 O 0.68526 0.56024 0.95816 0.0
O804 O 0.66889 0.5687 0.93639 0.0
C805 C 0.69812 0.5264 0.9157 0.0
C806 C 0.7172 0.58219 0.92097 0.0
O807 O 0.70276 0.5811 0.91309 0.0
O808 O 0.72118 0.5713 0.93265 0.0
C809 C 0.67154 0.5781 0.88193 0.0
O810 O 0.68799 0.58191 0.87968 0.0
C811 C 0.67145 0.56726 0.95263 0.0
Zn812 Zn 0.68866 0.47069 0.1826 0.0
Zn813 Zn 0.68137 0.44497 0.16031 0.0
O814 O 0.70646 0.45193 0.15507 0.0
O815 O 0.71372 0.47129 0.17468 0.0
O816 O 0.67778 0.42464 0.1447 0.0
O817 O 0.68049 0.45569 0.2028 0.0
O818 O 0.67442 0.43523 0.18389 0.0
C819 C 0.71767 0.4621 0.16165 0.0
C820 C 0.661 0.47817 0.15737 0.0
O821 O 0.66341 0.4626 0.15249 0.0
O822 O 0.67036 0.48472 0.16923 0.0
C823 C 0.67516 0.42633 0.12854 0.0
O824 O 0.67482 0.44193 0.12168 0.0
C825 C 0.67435 0.44083 0.19942 0.0
Zn826 Zn 0.79036 0.44895 0.44096 0.0
Zn827 Zn 0.81161 0.43833 0.41525 0.0
O828 O 0.80356 0.46262 0.40821 0.0
O829 O 0.7882 0.47279 0.42997 0.0
O830 O 0.82911 0.43238 0.39704 0.0
O831 O 0.80894 0.44286 0.45884 0.0
O832 O 0.82562 0.43464 0.43725 0.0
C833 C 0.79473 0.4748 0.41503 0.0
C834 C 0.77848 0.41844 0.42134 0.0
O835 O 0.79292 0.41976 0.41346 0.0
O836 O 0.77415 0.42948 0.43277 0.0
C837 C 0.82557 0.42526 0.38262 0.0
O838 O 0.80937 0.42156 0.37884 0.0
C839 C 0.82306 0.43637 0.45345 0.0
Zn840 Zn 0.79986 0.47356 0.8202 0.0
Zn841 Zn 0.80845 0.44569 0.83835 0.0
O842 O 0.78356 0.45171 0.84599 0.0
O843 O 0.77513 0.47265 0.82858 0.0
O844 O 0.81364 0.42426 0.85199 0.0
O845 O 0.80786 0.46151 0.79831 0.0
O846 O 0.81363 0.43807 0.81348 0.0
C847 C 0.77189 0.46221 0.84082 0.0
C848 C 0.82892 0.47896 0.84337 0.0
O849 O 0.82713 0.46278 0.84609 0.0
O850 O 0.81819 0.48696 0.83381 0.0
C851 C 0.81672 0.42506 0.86815 0.0
O852 O 0.81621 0.44017 0.876 0.0
C853 C 0.8136 0.44613 0.79907 0.0
Zn854 Zn 0.78724 0.55361 0.06122 0.0
Zn855 Zn 0.80798 0.56449 0.08711 0.0
O856 O 0.80061 0.53993 0.09384 0.0
O857 O 0.78553 0.52961 0.07198 0.0
O858 O 0.8245 0.57085 0.10597 0.0
O859 O 0.80596 0.56027 0.04369 0.0
O860 O 0.82229 0.56886 0.06541 0.0
C861 C 0.79212 0.5276 0.08689 0.0
C862 C 0.77458 0.58376 0.08078 0.0
O863 O 0.78892 0.58253 0.08884 0.0
O864 O 0.77052 0.57275 0.06922 0.0
C865 C 0.83817 0.56189 0.10806 0.0
O866 O 0.84091 0.54842 0.09798 0.0
C867 C 0.81984 0.56716 0.04918 0.0
Zn868 Zn 0.69099 0.52437 0.31683 0.0
Zn869 Zn 0.68326 0.55312 0.33394 0.0
O870 O 0.70794 0.54646 0.34185 0.0
O871 O 0.71568 0.52454 0.32534 0.0
O872 O 0.67884 0.57492 0.34725 0.0
O873 O 0.68383 0.53613 0.29448 0.0
O874 O 0.67842 0.56021 0.30876 0.0
C875 C 0.71924 0.53534 0.33717 0.0
C876 C 0.66169 0.52077 0.3401 0.0
O877 O 0.66403 0.53696 0.34226 0.0
O878 O 0.67209 0.5121 0.33075 0.0
C879 C 0.67772 0.57423 0.36367 0.0
O880 O 0.67968 0.55923 0.37152 0.0
C881 C 0.67855 0.55169 0.29461 0.0
Zn882 Zn 0.70227 0.44883 0.55459 0.0
Zn883 Zn 0.68669 0.43591 0.583 0.0
O884 O 0.69444 0.46018 0.59 0.0
O885 O 0.7074 0.47145 0.56726 0.0
O886 O 0.67181 0.42871 0.60298 0.0
O887 O 0.68085 0.44512 0.53968 0.0
O888 O 0.6703 0.43193 0.56259 0.0
C889 C 0.70252 0.47269 0.58291 0.0
C890 C 0.71759 0.41679 0.56967 0.0
O891 O 0.70643 0.41847 0.5817 0.0
O892 O 0.71819 0.42765 0.55729 0.0
C893 C 0.67671 0.41977 0.61592 0.0
O894 O 0.69291 0.41458 0.61693 0.0
C895 C 0.66914 0.43591 0.54661 0.0
Zn896 Zn 0.68941 0.79682 0.54274 0.0
Zn897 Zn 0.66259 0.80826 0.56219 0.0
O898 O 0.65562 0.7838 0.55461 0.0
O899 O 0.67817 0.77313 0.54077 0.0
O900 O 0.64336 0.8154 0.57812 0.0
O901 O 0.7061 0.80317 0.56228 0.0
O902 O 0.68368 0.81187 0.57756 0.0
C903 C 0.66289 0.77135 0.54654 0.0
C904 C 0.67108 0.8271 0.52882 0.0
O905 O 0.66239 0.82621 0.54281 0.0
O906 O 0.6826 0.81584 0.52541 0.0
C907 C 0.62968 0.82312 0.57318 0.0
O908 O 0.6274 0.8264 0.55661 0.0
C909 C 0.69998 0.80989 0.57598 0.0
Zn910 Zn 0.19542 0.69349 0.45868 0.0
Zn911 Zn 0.17284 0.68563 0.4336 0.0
O912 O 0.16641 0.71031 0.44136 0.0
O913 O 0.18655 0.7181 0.45997 0.0
O914 O 0.15735 0.68135 0.41329 0.0
O915 O 0.21572 0.68636 0.44343 0.0
O916 O 0.19652 0.67991 0.42339 0.0
C917 C 0.17291 0.7216 0.45151 0.0
C918 C 0.17176 0.66461 0.46644 0.0
O919 O 0.16632 0.66693 0.45103 0.0
O920 O 0.18327 0.67451 0.4728 0.0
C921 C 0.14091 0.68157 0.4142 0.0
O922 O 0.13341 0.68494 0.42913 0.0
C923 C 0.21218 0.68026 0.42858 0.0
Zn924 Zn 0.54923 0.94329 0.70471 0.0
Zn925 Zn 0.56063 0.91964 0.68296 0.0
O926 O 0.53677 0.91076 0.69096 0.0
O927 O 0.52698 0.93031 0.70923 0.0
O928 O 0.56692 0.90304 0.66408 0.0
O929 O 0.55094 0.96268 0.68737 0.0
O930 O 0.56431 0.94339 0.67129 0.0
C931 C 0.52508 0.91603 0.70137 0.0
C932 C 0.58217 0.92615 0.7143 0.0
O933 O 0.57949 0.91653 0.70117 0.0
O934 O 0.5715 0.93808 0.71819 0.0
C935 C 0.56987 0.88716 0.66727 0.0
O936 O 0.56876 0.88152 0.68332 0.0
C937 C 0.56004 0.95909 0.67419 0.0
Zn938 Zn 0.31482 0.30779 0.96905 0.0
Zn939 Zn 0.33646 0.31482 0.94278 0.0
O940 O 0.34214 0.28993 0.95016 0.0
O941 O 0.3229 0.28281 0.96995 0.0
O942 O 0.35139 0.318 0.92188 0.0
O943 O 0.29415 0.31551 0.95449 0.0
O944 O 0.31257 0.32139 0.93353 0.0
C945 C 0.33584 0.27883 0.96064 0.0
C946 C 0.34014 0.33572 0.97549 0.0
O947 O 0.34469 0.33313 0.95984 0.0
O948 O 0.32846 0.32639 0.9824 0.0
C949 C 0.36773 0.31968 0.92289 0.0
O950 O 0.37527 0.31939 0.93818 0.0
C951 C 0.29716 0.32141 0.93944 0.0
Zn952 Zn 0.44363 0.56173 0.71428 0.0
Zn953 Zn 0.43271 0.58795 0.69373 0.0
O954 O 0.45789 0.59377 0.69957 0.0
O955 O 0.46792 0.57196 0.71494 0.0
O956 O 0.42566 0.60733 0.67812 0.0
O957 O 0.43573 0.54464 0.69561 0.0
O958 O 0.42701 0.56652 0.67951 0.0
C959 C 0.47027 0.58655 0.70778 0.0
C960 C 0.41477 0.58214 0.72815 0.0
O961 O 0.41585 0.59012 0.71376 0.0
O962 O 0.42542 0.57014 0.73184 0.0
C963 C 0.43367 0.61037 0.66406 0.0
O964 O 0.44704 0.6007 0.6598 0.0
C965 C 0.42845 0.55027 0.68197 0.0
Zn966 Zn 0.81059 0.19165 0.03165 0.0
Zn967 Zn 0.83385 0.18313 0.05607 0.0
O968 O 0.84004 0.20799 0.04883 0.0
O969 O 0.81966 0.21626 0.03068 0.0
O970 O 0.8501 0.17851 0.07572 0.0
O971 O 0.7908 0.18438 0.04757 0.0
O972 O 0.81047 0.17742 0.06698 0.0
C973 C 0.8334 0.21955 0.03907 0.0
C974 C 0.83379 0.16271 0.02276 0.0
O975 O 0.83967 0.16478 0.03804 0.0
O976 O 0.82217 0.17278 0.01686 0.0
C977 C 0.8662 0.17579 0.07359 0.0
O978 O 0.87273 0.1761 0.05784 0.0
C979 C 0.79468 0.17804 0.06223 0.0
Zn980 Zn 0.55465 0.06337 0.78292 0.0
Zn981 Zn 0.56261 0.08678 0.8075 0.0
O982 O 0.5379 0.09271 0.7999 0.0
O983 O 0.52998 0.07246 0.78148 0.0
O984 O 0.5667 0.10362 0.82672 0.0
O985 O 0.56183 0.0439 0.79938 0.0
O986 O 0.56809 0.06363 0.81898 0.0
C987 C 0.52652 0.08613 0.78991 0.0
C988 C 0.58348 0.08677 0.77438 0.0
O989 O 0.58115 0.09255 0.78965 0.0
O990 O 0.57362 0.07505 0.76832 0.0
C991 C 0.56969 0.11955 0.82384 0.0
O992 O 0.57013 0.12523 0.80778 0.0
C993 C 0.56766 0.04783 0.81425 0.0
Zn994 Zn 0.94903 0.94548 0.29933 0.0
Zn995 Zn 0.93528 0.91663 0.31329 0.0
O996 O 0.95991 0.90966 0.30662 0.0
O997 O 0.97172 0.93275 0.2948 0.0
O998 O 0.9268 0.89618 0.32676 0.0
O999 O 0.94458 0.95951 0.32119 0.0
O1000 O 0.93085 0.93633 0.33037 0.0
C1001 C 0.97277 0.91699 0.29934 0.0
C1002 C 0.91765 0.93133 0.28203 0.0
O1003 O 0.91879 0.91889 0.29282 0.0
O1004 O 0.9286 0.94364 0.28236 0.0
C1005 C 0.93421 0.89295 0.34113 0.0
O1006 O 0.94737 0.90262 0.34601 0.0
C1007 C 0.93495 0.9522 0.33231 0.0
Zn1008 Zn 0.45954 0.3156 0.19699 0.0
Zn1009 Zn 0.4377 0.34048 0.18585 0.0
O1010 O 0.4438 0.34734 0.21079 0.0
O1011 O 0.45994 0.3262 0.22107 0.0
O1012 O 0.42066 0.35861 0.17868 0.0
O1013 O 0.44202 0.29716 0.18971 0.0
O1014 O 0.42483 0.31802 0.18067 0.0
C1015 C 0.45241 0.34064 0.2232 0.0
C1016 C 0.47206 0.33609 0.16753 0.0
O1017 O 0.45732 0.34341 0.16857 0.0
O1018 O 0.47641 0.32454 0.17843 0.0
C1019 C 0.40509 0.35825 0.18404 0.0
O1020 O 0.40026 0.34598 0.19484 0.0
C1021 C 0.42811 0.30194 0.18236 0.0
Zn1022 Zn 0.43936 0.70866 0.94864 0.0
Zn1023 Zn 0.4136 0.68836 0.93641 0.0
O1024 O 0.40568 0.6957 0.96059 0.0
O1025 O 0.42724 0.71044 0.97201 0.0
O1026 O 0.3951 0.6718 0.92913 0.0
O1027 O 0.45689 0.6896 0.94282 0.0
O1028 O 0.43522 0.67366 0.93345 0.0
C1029 C 0.41215 0.70405 0.97327 0.0
C1030 C 0.42147 0.72174 0.91759 0.0
O1031 O 0.41314 0.70753 0.9183 0.0
O1032 O 0.43253 0.72554 0.92919 0.0
C1033 C 0.37999 0.67618 0.92429 0.0
O1034 O 0.37575 0.69268 0.9238 0.0
C1035 C 0.45139 0.67573 0.93591 0.0
Zn1036 Zn 0.03537 0.67907 0.69203 0.0
Zn1037 Zn 0.05658 0.65282 0.68266 0.0
O1038 O 0.049 0.64709 0.70745 0.0
O1039 O 0.03343 0.66925 0.71638 0.0
O1040 O 0.07408 0.6344 0.67748 0.0
O1041 O 0.05398 0.69657 0.68509 0.0
O1042 O 0.0705 0.67457 0.67765 0.0
C1043 C 0.04022 0.65457 0.71928 0.0
C1044 C 0.0235 0.65819 0.66242 0.0
O1045 O 0.03783 0.65023 0.66428 0.0
O1046 O 0.01917 0.67015 0.67288 0.0
C1047 C 0.07081 0.62016 0.66989 0.0
O1048 O 0.05482 0.6166 0.66521 0.0
C1049 C 0.06798 0.69084 0.67865 0.0
Zn1050 Zn 0.06472 0.28137 0.44315 0.0
Zn1051 Zn 0.09016 0.30301 0.43295 0.0
O1052 O 0.09645 0.29605 0.45777 0.0
O1053 O 0.07488 0.28011 0.46742 0.0
O1054 O 0.10877 0.31982 0.42674 0.0
O1055 O 0.04682 0.29955 0.43602 0.0
O1056 O 0.06813 0.31665 0.4279 0.0
C1057 C 0.08945 0.2873 0.46989 0.0
C1058 C 0.08556 0.2693 0.4137 0.0
O1059 O 0.09303 0.28391 0.41517 0.0
O1060 O 0.07379 0.26484 0.42431 0.0
C1061 C 0.11181 0.33293 0.43624 0.0
O1062 O 0.10271 0.33521 0.45047 0.0
C1063 C 0.05197 0.31362 0.42925 0.0
Zn1064 Zn 0.46416 0.68226 0.30503 0.0
Zn1065 Zn 0.44117 0.65786 0.31471 0.0
O1066 O 0.44807 0.65158 0.28988 0.0
O1067 O 0.46513 0.67243 0.28061 0.0
O1068 O 0.42311 0.64014 0.32009 0.0
O1069 O 0.44697 0.70105 0.31237 0.0
O1070 O 0.42876 0.68052 0.32007 0.0
C1071 C 0.45727 0.65826 0.27792 0.0
C1072 C 0.47496 0.66037 0.33425 0.0
O1073 O 0.45997 0.65371 0.33267 0.0
O1074 O 0.48005 0.67202 0.32378 0.0
C1075 C 0.42702 0.62455 0.32364 0.0
O1076 O 0.4434 0.61984 0.3238 0.0
C1077 C 0.43263 0.69652 0.31902 0.0
Zn1078 Zn 0.06955 0.71223 0.05519 0.0
Zn1079 Zn 0.09665 0.69367 0.06756 0.0
O1080 O 0.10338 0.69956 0.04255 0.0
O1081 O 0.08086 0.71307 0.0314 0.0
O1082 O 0.11601 0.6786 0.07587 0.0
O1083 O 0.05314 0.69273 0.06249 0.0
O1084 O 0.07575 0.67836 0.07224 0.0
C1085 C 0.09604 0.70697 0.02974 0.0
C1086 C 0.08779 0.72776 0.08475 0.0
O1087 O 0.09682 0.71397 0.08429 0.0
O1088 O 0.07606 0.73043 0.0735 0.0
C1089 C 0.12052 0.66545 0.06705 0.0
O1090 O 0.11296 0.66252 0.05205 0.0
C1091 C 0.05944 0.67958 0.07009 0.0
Zn1092 Zn 0.03238 0.31068 0.80486 0.0
Zn1093 Zn 0.05593 0.33494 0.81326 0.0
O1094 O 0.04844 0.34065 0.7884 0.0
O1095 O 0.03099 0.31966 0.7802 0.0
O1096 O 0.0749 0.35197 0.81777 0.0
O1097 O 0.04913 0.29162 0.81235 0.0
O1098 O 0.06772 0.31211 0.81919 0.0
C1099 C 0.03888 0.33368 0.77688 0.0
C1100 C 0.02264 0.33375 0.83365 0.0
O1101 O 0.03768 0.34017 0.83155 0.0
O1102 O 0.01718 0.32184 0.82366 0.0
C1103 C 0.07208 0.36784 0.82112 0.0
O1104 O 0.05604 0.3736 0.82147 0.0
C1105 C 0.06359 0.29615 0.81872 0.0
Zn1106 Zn 0.44043 0.28406 0.5514 0.0
Zn1107 Zn 0.41712 0.30834 0.56041 0.0
O1108 O 0.41058 0.30093 0.53574 0.0
O1109 O 0.4308 0.28288 0.52693 0.0
O1110 O 0.40044 0.32758 0.56522 0.0
O1111 O 0.46007 0.30034 0.55848 0.0
O1112 O 0.44036 0.31965 0.56562 0.0
C1113 C 0.41692 0.29118 0.52401 0.0
C1114 C 0.41791 0.27501 0.5808 0.0
O1115 O 0.41196 0.29027 0.5789 0.0
O1116 O 0.42931 0.26916 0.57046 0.0
C1117 C 0.38457 0.32482 0.56862 0.0
O1118 O 0.37874 0.30882 0.56896 0.0
C1119 C 0.45617 0.315 0.56481 0.0
Zn1120 Zn 0.19013 0.47365 0.3256 0.0
Zn1121 Zn 0.18154 0.44797 0.34772 0.0
O1122 O 0.2072 0.45267 0.35245 0.0
O1123 O 0.21526 0.47219 0.3333 0.0
O1124 O 0.17645 0.42787 0.36316 0.0
O1125 O 0.18078 0.45937 0.30538 0.0
O1126 O 0.17351 0.43915 0.32415 0.0
C1127 C 0.21892 0.46224 0.34585 0.0
C1128 C 0.16352 0.48249 0.35148 0.0
O1129 O 0.16524 0.46678 0.35617 0.0
O1130 O 0.17288 0.48861 0.33939 0.0
C1131 C 0.17447 0.42948 0.37943 0.0
O1132 O 0.17598 0.44487 0.38659 0.0
C1133 C 0.17368 0.44492 0.30868 0.0
Zn1134 Zn 0.29568 0.45031 0.05097 0.0
Zn1135 Zn 0.31092 0.43711 0.07953 0.0
O1136 O 0.30379 0.46156 0.08649 0.0
O1137 O 0.29101 0.47303 0.06373 0.0
O1138 O 0.32499 0.42909 0.09976 0.0
O1139 O 0.3172 0.44594 0.03633 0.0
O1140 O 0.32751 0.4328 0.05939 0.0
C1141 C 0.29593 0.47421 0.07937 0.0
C1142 C 0.27954 0.41879 0.06598 0.0
O1143 O 0.29078 0.42026 0.07796 0.0
O1144 O 0.27915 0.4296 0.05355 0.0
C1145 C 0.31881 0.42244 0.1135 0.0
O1146 O 0.30194 0.4206 0.11511 0.0
C1147 C 0.32877 0.43663 0.04338 0.0
Zn1148 Zn 0.3042 0.5308 0.81911 0.0
Zn1149 Zn 0.31506 0.55152 0.84511 0.0
O1150 O 0.28981 0.54576 0.85102 0.0
O1151 O 0.2799 0.53032 0.82919 0.0
O1152 O 0.32188 0.56809 0.86378 0.0
O1153 O 0.31196 0.54901 0.80155 0.0
O1154 O 0.32085 0.56514 0.82331 0.0
C1155 C 0.27746 0.53759 0.84373 0.0
C1156 C 0.33322 0.51724 0.83966 0.0
O1157 O 0.33213 0.53163 0.84765 0.0
O1158 O 0.32251 0.5135 0.82773 0.0
C1159 C 0.31481 0.58296 0.86437 0.0
O1160 O 0.3027 0.58686 0.85303 0.0
C1161 C 0.31938 0.56259 0.80708 0.0
Zn1162 Zn 0.21531 0.55247 0.55701 0.0
Zn1163 Zn 0.19065 0.56104 0.57992 0.0
O1164 O 0.19826 0.53641 0.58646 0.0
O1165 O 0.21654 0.52792 0.56631 0.0
O1166 O 0.17078 0.56522 0.59598 0.0
O1167 O 0.19951 0.55943 0.537 0.0
O1168 O 0.17983 0.56637 0.55641 0.0
C1169 C 0.20815 0.52482 0.58008 0.0
C1170 C 0.22369 0.58174 0.58008 0.0
O1171 O 0.20834 0.5797 0.58577 0.0
O1172 O 0.22978 0.57155 0.56866 0.0
C1173 C 0.17267 0.56803 0.61209 0.0
O1174 O 0.18835 0.56839 0.61877 0.0
C1175 C 0.18473 0.56564 0.54067 0.0
Zn1176 Zn 0.18878 0.51761 0.17661 0.0
Zn1177 Zn 0.1802 0.54624 0.15969 0.0
O1178 O 0.20531 0.54085 0.15234 0.0
O1179 O 0.21369 0.51912 0.16877 0.0
O1180 O 0.17516 0.56796 0.1465 0.0
O1181 O 0.18033 0.52866 0.19889 0.0
O1182 O 0.17449 0.55279 0.18484 0.0
C1183 C 0.21701 0.53022 0.15715 0.0
C1184 C 0.16043 0.51303 0.15237 0.0
O1185 O 0.16204 0.52934 0.15054 0.0
O1186 O 0.17095 0.50471 0.16191 0.0
C1187 C 0.17576 0.56771 0.13004 0.0
O1188 O 0.17979 0.55319 0.12208 0.0
C1189 C 0.17452 0.54404 0.19886 0.0
Zn1190 Zn 0.20317 0.44624 0.94119 0.0
Zn1191 Zn 0.18247 0.43603 0.91503 0.0
O1192 O 0.19065 0.46043 0.90846 0.0
O1193 O 0.2056 0.47021 0.93068 0.0
O1194 O 0.16559 0.43037 0.89618 0.0
O1195 O 0.18424 0.44002 0.95858 0.0
O1196 O 0.1679 0.43202 0.93665 0.0
C1197 C 0.19936 0.47248 0.91565 0.0
C1198 C 0.21545 0.41601 0.92154 0.0
O1199 O 0.20117 0.41745 0.91341 0.0
O1200 O 0.21959 0.42691 0.93316 0.0
C1201 C 0.16987 0.42427 0.8815 0.0
O1202 O 0.18631 0.42145 0.87803 0.0
C1203 C 0.17021 0.4336 0.95291 0.0
Zn1204 Zn 0.30319 0.4608 0.68175 0.0
Zn1205 Zn 0.31365 0.43878 0.65668 0.0
O1206 O 0.28892 0.44576 0.65004 0.0
O1207 O 0.279 0.46185 0.67138 0.0
O1208 O 0.31963 0.4209 0.63889 0.0
O1209 O 0.31027 0.44316 0.70021 0.0
O1210 O 0.31861 0.42588 0.67914 0.0
C1211 C 0.27671 0.45456 0.65683 0.0
C1212 C 0.33281 0.47261 0.66081 0.0
O1213 O 0.33153 0.45787 0.65352 0.0
O1214 O 0.32205 0.47714 0.67243 0.0
C1215 C 0.32574 0.42447 0.62403 0.0
O1216 O 0.32821 0.44075 0.61965 0.0
C1217 C 0.3172 0.4291 0.69526 0.0
Zn1218 Zn 0.29303 0.54983 0.44116 0.0
Zn1219 Zn 0.31697 0.55737 0.41709 0.0
O1220 O 0.30853 0.53291 0.41129 0.0
O1221 O 0.291 0.52514 0.43237 0.0
O1222 O 0.33549 0.56136 0.39947 0.0
O1223 O 0.31003 0.55715 0.46003 0.0
O1224 O 0.3293 0.56273 0.43977 0.0
C1225 C 0.29868 0.52165 0.41827 0.0
C1226 C 0.28428 0.57887 0.41831 0.0
O1227 O 0.29938 0.57634 0.41219 0.0
O1228 O 0.27823 0.56893 0.42995 0.0
C1229 C 0.33176 0.56445 0.38373 0.0
O1230 O 0.31542 0.56478 0.3789 0.0
C1231 C 0.32487 0.56274 0.45567 0.0
Zn1232 Zn 0.31356 0.19645 0.4688 0.0
Zn1233 Zn 0.33193 0.18719 0.4413 0.0
O1234 O 0.34084 0.21146 0.44812 0.0
O1235 O 0.32346 0.22065 0.46875 0.0
O1236 O 0.34603 0.1817 0.42026 0.0
O1237 O 0.29157 0.19009 0.45593 0.0
O1238 O 0.30701 0.18338 0.43293 0.0
C1239 C 0.33619 0.22324 0.45873 0.0
C1240 C 0.33506 0.16603 0.4743 0.0
O1241 O 0.33831 0.1679 0.45823 0.0
O1242 O 0.32577 0.17708 0.4822 0.0
C1243 C 0.36214 0.17864 0.42174 0.0
O1244 O 0.36937 0.17933 0.43716 0.0
C1245 C 0.29239 0.18431 0.44056 0.0
Zn1246 Zn 0.82063 0.30631 0.52566 0.0
Zn1247 Zn 0.83781 0.31521 0.55404 0.0
O1248 O 0.84618 0.29046 0.54821 0.0
O1249 O 0.82957 0.28179 0.52672 0.0
O1250 O 0.85146 0.32108 0.57527 0.0
O1251 O 0.79834 0.31358 0.53741 0.0
O1252 O 0.81262 0.31979 0.5613 0.0
C1253 C 0.84156 0.27875 0.53751 0.0
C1254 C 0.84321 0.33581 0.52085 0.0
O1255 O 0.84549 0.33397 0.53708 0.0
O1256 O 0.83406 0.32498 0.51252 0.0
C1257 C 0.86791 0.3211 0.57435 0.0
O1258 O 0.8754 0.31675 0.55966 0.0
C1259 C 0.79844 0.31926 0.55283 0.0
Zn1260 Zn 0.4428 0.06306 0.28521 0.0
Zn1261 Zn 0.43229 0.08749 0.30791 0.0
O1262 O 0.45695 0.09459 0.3009 0.0
O1263 O 0.46679 0.07372 0.28415 0.0
O1264 O 0.42604 0.10514 0.3259 0.0
O1265 O 0.43634 0.04431 0.30269 0.0
O1266 O 0.42798 0.0648 0.32068 0.0
C1267 C 0.4691 0.08807 0.29181 0.0
C1268 C 0.41268 0.08341 0.27417 0.0
O1269 O 0.41408 0.09038 0.28905 0.0
O1270 O 0.42363 0.07218 0.26916 0.0
C1271 C 0.41882 0.11951 0.32233 0.0
O1272 O 0.4154 0.1234 0.3061 0.0
C1273 C 0.42965 0.04879 0.31703 0.0
Zn1274 Zn 0.68075 0.69564 0.03158 0.0
Zn1275 Zn 0.65806 0.68789 0.05678 0.0
O1276 O 0.65217 0.71286 0.04969 0.0
O1277 O 0.67222 0.72045 0.03088 0.0
O1278 O 0.64265 0.68361 0.07714 0.0
O1279 O 0.70094 0.68796 0.04679 0.0
O1280 O 0.68167 0.6816 0.0668 0.0
C1281 C 0.65884 0.72417 0.03967 0.0
C1282 C 0.65644 0.66733 0.02362 0.0
O1283 O 0.6511 0.66965 0.03906 0.0
O1284 O 0.66817 0.67701 0.01732 0.0
C1285 C 0.62653 0.6806 0.07582 0.0
O1286 O 0.61925 0.68058 0.06041 0.0
C1287 C 0.69732 0.68178 0.06158 0.0
Zn1288 Zn 0.54649 0.44269 0.28969 0.0
Zn1289 Zn 0.55701 0.41685 0.3108 0.0
O1290 O 0.53246 0.41023 0.3032 0.0
O1291 O 0.52244 0.43211 0.28792 0.0
O1292 O 0.56292 0.39828 0.32794 0.0
O1293 O 0.55318 0.46036 0.30827 0.0
O1294 O 0.56125 0.4387 0.32493 0.0
C1295 C 0.52026 0.41724 0.29456 0.0
C1296 C 0.57658 0.42284 0.2774 0.0
O1297 O 0.57529 0.41498 0.29185 0.0
O1298 O 0.56561 0.43436 0.27315 0.0
C1299 C 0.57034 0.3841 0.32407 0.0
O1300 O 0.57445 0.3809 0.30784 0.0
C1301 C 0.55977 0.45492 0.32232 0.0
Zn1302 Zn 0.19046 0.80325 0.95934 0.0
Zn1303 Zn 0.16717 0.81037 0.93466 0.0
O1304 O 0.16094 0.78595 0.94337 0.0
O1305 O 0.18158 0.77871 0.96166 0.0
O1306 O 0.15111 0.81396 0.91464 0.0
O1307 O 0.2103 0.80981 0.94325 0.0
O1308 O 0.19056 0.81558 0.92353 0.0
C1309 C 0.16772 0.77496 0.95369 0.0
C1310 C 0.16707 0.83243 0.96683 0.0
O1311 O 0.16123 0.82968 0.95165 0.0
O1312 O 0.17871 0.82267 0.9732 0.0
C1313 C 0.13484 0.81582 0.91629 0.0
O1314 O 0.12787 0.81516 0.93183 0.0
C1315 C 0.20636 0.81535 0.92829 0.0
Zn1316 Zn 0.44339 0.93713 0.21043 0.0
Zn1317 Zn 0.43445 0.91269 0.18717 0.0
O1318 O 0.45889 0.90617 0.19514 0.0
O1319 O 0.46768 0.92712 0.21235 0.0
O1320 O 0.42958 0.89504 0.16886 0.0
O1321 O 0.43685 0.95588 0.1929 0.0
O1322 O 0.42994 0.93531 0.17442 0.0
C1323 C 0.47055 0.91286 0.20472 0.0
C1324 C 0.41348 0.91571 0.2201 0.0
O1325 O 0.41557 0.90897 0.20519 0.0
O1326 O 0.42393 0.92716 0.22562 0.0
C1327 C 0.4248 0.87969 0.1724 0.0
O1328 O 0.42303 0.875 0.18869 0.0
C1329 C 0.43085 0.95132 0.17828 0.0
Zn1330 Zn 0.04767 0.0584 0.70967 0.0
Zn1331 Zn 0.05918 0.08435 0.68921 0.0
O1332 O 0.03453 0.09127 0.69605 0.0
O1333 O 0.02376 0.0694 0.71082 0.0
O1334 O 0.06572 0.10266 0.67209 0.0
O1335 O 0.05449 0.04072 0.69115 0.0
O1336 O 0.06347 0.06251 0.67516 0.0
C1337 C 0.02198 0.08435 0.70424 0.0
C1338 C 0.07756 0.07801 0.72314 0.0
O1339 O 0.07685 0.08611 0.70878 0.0
O1340 O 0.06642 0.06645 0.72678 0.0
C1341 C 0.07201 0.11739 0.6759 0.0
O1342 O 0.07458 0.12147 0.69224 0.0
C1343 C 0.06156 0.04629 0.67739 0.0
H1344 H 0.06576 0.22906 0.31519 0.0
H1345 H 0.08505 0.23397 0.41195 0.0
H1346 H 0.09221 0.18657 0.34034 0.0
H1347 H 0.09391 0.27969 0.38096 0.0
H1348 H 0.08715 0.21621 0.38568 0.0
H1349 H 0.07606 0.24847 0.33815 0.0
C1350 C 0.07414 0.22391 0.32522 0.0
C1351 C 0.07784 0.2061 0.32601 0.0
C1352 C 0.089 0.2301 0.3847 0.0
C1353 C 0.08916 0.22806 0.35244 0.0
C1354 C 0.0877 0.24021 0.39964 0.0
C1355 C 0.08926 0.25827 0.39855 0.0
C1356 C 0.09127 0.23819 0.36854 0.0
C1357 C 0.09269 0.26577 0.38231 0.0
C1358 C 0.07999 0.23498 0.33832 0.0
C1359 C 0.08884 0.20016 0.33929 0.0
N1360 N 0.09317 0.25573 0.36782 0.0
N1361 N 0.09368 0.21101 0.35228 0.0
H1362 H 0.97187 0.84262 0.62693 0.0
H1363 H 0.06932 0.83521 0.5936 0.0
H1364 H 0.01531 0.83129 0.66034 0.0
H1365 H 0.02645 0.81305 0.56515 0.0
H1366 H 0.04893 0.84584 0.61538 0.0
H1367 H 0.99166 0.84313 0.60194 0.0
C1368 C 0.98563 0.84067 0.62905 0.0
C1369 C 0.99202 0.83676 0.64565 0.0
C1370 C 0.04401 0.83904 0.60411 0.0
C1371 C 0.01453 0.8377 0.61735 0.0
C1372 C 0.05558 0.83305 0.59159 0.0
C1373 C 0.0496 0.8229 0.57768 0.0
C1374 C 0.02634 0.83517 0.60253 0.0
C1375 C 0.03163 0.8206 0.57579 0.0
C1376 C 0.99683 0.84091 0.61482 0.0
C1377 C 0.00989 0.83419 0.64771 0.0
N1378 N 0.02061 0.8265 0.58824 0.0
N1379 N 0.02055 0.83468 0.63369 0.0
H1380 H 0.41624 0.71238 0.88386 0.0
H1381 H 0.41913 0.80909 0.84794 0.0
H1382 H 0.42267 0.75707 0.91689 0.0
H1383 H 0.44727 0.76779 0.82264 0.0
H1384 H 0.4094 0.7885 0.86999 0.0
H1385 H 0.41719 0.73154 0.85834 0.0
C1386 C 0.41745 0.72625 0.88574 0.0
C1387 C 0.41948 0.73322 0.90244 0.0
C1388 C 0.41738 0.78393 0.85936 0.0
C1389 C 0.4202 0.755 0.87354 0.0
C1390 C 0.42286 0.7956 0.84669 0.0
C1391 C 0.43425 0.79019 0.83353 0.0
C1392 C 0.423 0.76668 0.85866 0.0
C1393 C 0.43866 0.77254 0.83266 0.0
C1394 C 0.41806 0.7371 0.87122 0.0
C1395 C 0.42118 0.75123 0.9042 0.0
N1396 N 0.43313 0.76139 0.84518 0.0
N1397 N 0.42147 0.76153 0.88991 0.0
H1398 H 0.53778 0.15779 0.13372 0.0
H1399 H 0.44253 0.1579 0.09376 0.0
H1400 H 0.49116 0.16342 0.16413 0.0
H1401 H 0.48493 0.18531 0.06951 0.0
H1402 H 0.46237 0.14779 0.11627 0.0
H1403 H 0.51996 0.1564 0.10729 0.0
C1404 C 0.52378 0.15825 0.13486 0.0
C1405 C 0.51586 0.16086 0.15105 0.0
C1406 C 0.46737 0.15563 0.10573 0.0
C1407 C 0.49561 0.15894 0.12113 0.0
C1408 C 0.45611 0.16135 0.09279 0.0
C1409 C 0.462 0.17281 0.0799 0.0
C1410 C 0.48468 0.16113 0.10559 0.0
C1411 C 0.47979 0.17673 0.07935 0.0
C1412 C 0.51369 0.15753 0.11982 0.0
C1413 C 0.49773 0.16155 0.15185 0.0
N1414 N 0.49049 0.17108 0.0922 0.0
N1415 N 0.48819 0.16063 0.13707 0.0
H1416 H 0.06234 0.77105 0.18161 0.0
H1417 H 0.08346 0.76288 0.08469 0.0
H1418 H 0.08546 0.8142 0.15441 0.0
H1419 H 0.09572 0.71984 0.11828 0.0
H1420 H 0.08276 0.78201 0.11009 0.0
H1421 H 0.0736 0.75148 0.15917 0.0
C1422 C 0.07014 0.77636 0.17119 0.0
C1423 C 0.07277 0.79431 0.16978 0.0
C1424 C 0.08592 0.76843 0.11183 0.0
C1425 C 0.08517 0.77215 0.14397 0.0
C1426 C 0.08624 0.75754 0.0974 0.0
C1427 C 0.08964 0.73982 0.09946 0.0
C1428 C 0.08843 0.76142 0.12845 0.0
C1429 C 0.09314 0.73349 0.11618 0.0
C1430 C 0.07654 0.7652 0.15842 0.0
C1431 C 0.083 0.80047 0.156 0.0
N1432 N 0.09206 0.74422 0.13014 0.0
N1433 N 0.08843 0.78947 0.14337 0.0
H1434 H 0.44095 0.84379 0.40745 0.0
H1435 H 0.53562 0.84422 0.36616 0.0
H1436 H 0.48397 0.81667 0.43097 0.0
H1437 H 0.48849 0.83885 0.33649 0.0
H1438 H 0.51823 0.84586 0.39285 0.0
H1439 H 0.46041 0.85436 0.38483 0.0
C1440 C 0.45459 0.84051 0.40824 0.0
C1441 C 0.46076 0.82895 0.42093 0.0
C1442 C 0.51176 0.84475 0.38042 0.0
C1443 C 0.48299 0.84116 0.39512 0.0
C1444 C 0.5216 0.84389 0.36523 0.0
C1445 C 0.51342 0.84125 0.34918 0.0
C1446 C 0.49366 0.84344 0.37941 0.0
C1447 C 0.49526 0.84073 0.34866 0.0
C1448 C 0.46563 0.84649 0.39524 0.0
C1449 C 0.4786 0.8253 0.42128 0.0
N1450 N 0.48597 0.84176 0.36359 0.0
N1451 N 0.48909 0.83117 0.40836 0.0
H1452 H 0.41457 0.23991 0.58314 0.0
H1453 H 0.4357 0.23544 0.67964 0.0
H1454 H 0.41092 0.28679 0.61343 0.0
H1455 H 0.40646 0.19424 0.65549 0.0
H1456 H 0.42607 0.25515 0.65665 0.0
H1457 H 0.41133 0.22287 0.60974 0.0
C1458 C 0.41278 0.24658 0.59538 0.0
C1459 C 0.41308 0.26472 0.59617 0.0
C1460 C 0.42138 0.24191 0.65671 0.0
C1461 C 0.40982 0.24541 0.62659 0.0
C1462 C 0.42685 0.23066 0.66983 0.0
C1463 C 0.42218 0.21307 0.66931 0.0
C1464 C 0.41157 0.23538 0.64283 0.0
C1465 C 0.4106 0.20763 0.65631 0.0
C1466 C 0.41084 0.23689 0.61052 0.0
C1467 C 0.4107 0.27279 0.61233 0.0
N1468 N 0.40611 0.21861 0.64329 0.0
N1469 N 0.40961 0.26307 0.62701 0.0
H1470 H 0.0545 0.15424 0.90881 0.0
H1471 H 0.96042 0.15277 0.86626 0.0
H1472 H 0.01049 0.17932 0.93275 0.0
H1473 H 0.00762 0.16074 0.83729 0.0
H1474 H 0.97758 0.15081 0.89305 0.0
H1475 H 0.03565 0.14426 0.8854 0.0
C1476 C 0.04077 0.15717 0.90951 0.0
C1477 C 0.03413 0.16799 0.9226 0.0
C1478 C 0.98413 0.15258 0.88074 0.0
C1479 C 0.01261 0.15646 0.89589 0.0
C1480 C 0.97442 0.15364 0.86548 0.0
C1481 C 0.98266 0.15708 0.84961 0.0
C1482 C 0.00219 0.15451 0.87997 0.0
C1483 C 0.0008 0.15825 0.84931 0.0
C1484 C 0.03009 0.15154 0.89606 0.0
C1485 C 0.01621 0.17125 0.92278 0.0
N1486 N 0.00997 0.15701 0.8643 0.0
N1487 N 0.00607 0.16571 0.90945 0.0
H1488 H 0.3353 0.09302 0.19297 0.0
H1489 H 0.4108 0.08474 0.23889 0.0
H1490 H 0.31742 0.05887 0.23363 0.0
H1491 H 0.37958 0.0894 0.28507 0.0
H1492 H 0.3844 0.08642 0.22129 0.0
H1493 H 0.35835 0.1032 0.21215 0.0
C1494 C 0.33585 0.08801 0.20608 0.0
C1495 C 0.32466 0.07468 0.21153 0.0
C1496 C 0.38338 0.08755 0.23526 0.0
C1497 C 0.35109 0.08626 0.23338 0.0
C1498 C 0.3984 0.08646 0.24527 0.0
C1499 C 0.3973 0.08697 0.2634 0.0
C1500 C 0.36715 0.08866 0.24347 0.0
C1501 C 0.38093 0.08909 0.2711 0.0
C1502 C 0.34913 0.09375 0.21693 0.0
C1503 C 0.32596 0.0689 0.22877 0.0
N1504 N 0.36639 0.0894 0.26109 0.0
N1505 N 0.33915 0.07454 0.23903 0.0
H1506 H 0.19609 0.13979 0.52098 0.0
H1507 H 0.15177 0.08184 0.45641 0.0
H1508 H 0.14035 0.14475 0.52088 0.0
H1509 H 0.18713 0.05944 0.49365 0.0
H1510 H 0.14584 0.10545 0.4769 0.0
H1511 H 0.19334 0.11159 0.50688 0.0
C1512 C 0.18326 0.13499 0.51783 0.0
C1513 C 0.16842 0.14462 0.52194 0.0
C1514 C 0.15441 0.095 0.48074 0.0
C1515 C 0.16523 0.11242 0.50581 0.0
C1516 C 0.15779 0.08148 0.4691 0.0
C1517 C 0.17039 0.06889 0.47309 0.0
C1518 C 0.16393 0.09596 0.49619 0.0
C1519 C 0.17763 0.06905 0.48981 0.0
C1520 C 0.18171 0.11882 0.51002 0.0
C1521 C 0.15208 0.13766 0.51783 0.0
N1522 N 0.17478 0.08273 0.5005 0.0
N1523 N 0.15089 0.12202 0.50964 0.0
H1524 H 0.17259 0.96066 0.73349 0.0
H1525 H 0.09902 0.89664 0.76729 0.0
H1526 H 0.16047 0.91408 0.70483 0.0
H1527 H 0.09588 0.95249 0.76938 0.0
H1528 H 0.12618 0.89926 0.75052 0.0
H1529 H 0.14994 0.95335 0.75429 0.0
C1530 C 0.16551 0.94865 0.73178 0.0
C1531 C 0.1682 0.93817 0.71713 0.0
C1532 C 0.11947 0.91086 0.75474 0.0
C1533 C 0.14221 0.92984 0.74092 0.0
C1534 C 0.10402 0.9094 0.7642 0.0
C1535 C 0.09511 0.92439 0.76952 0.0
C1536 C 0.12621 0.92738 0.75115 0.0
C1537 C 0.10218 0.94061 0.76532 0.0
C1538 C 0.15249 0.94458 0.7436 0.0
C1539 C 0.15868 0.92267 0.71579 0.0
N1540 N 0.11735 0.94166 0.75652 0.0
N1541 N 0.14588 0.91906 0.72742 0.0
H1542 H 0.34579 0.90877 0.94492 0.0
H1543 H 0.34096 0.86529 0.03851 0.0
H1544 H 0.31655 0.93141 0.987 0.0
H1545 H 0.33783 0.83681 0.99046 0.0
H1546 H 0.34378 0.89235 0.02188 0.0
H1547 H 0.35529 0.88568 0.9644 0.0
C1548 C 0.34185 0.90928 0.9584 0.0
C1549 C 0.33 0.92185 0.96424 0.0
C1550 C 0.3429 0.8801 0.01506 0.0
C1551 C 0.34097 0.8955 0.9865 0.0
C1552 C 0.34136 0.86469 0.02448 0.0
C1553 C 0.339 0.84887 0.01578 0.0
C1554 C 0.34256 0.87952 0.99688 0.0
C1555 C 0.33946 0.84878 0.99761 0.0
C1556 C 0.34721 0.89601 0.96944 0.0
C1557 C 0.32544 0.92182 0.98188 0.0
N1558 N 0.34113 0.86391 0.98874 0.0
N1559 N 0.33073 0.90865 0.99236 0.0
H1560 H 0.3391 0.90681 0.30237 0.0
H1561 H 0.3809 0.90926 0.20795 0.0
H1562 H 0.31603 0.93606 0.26052 0.0
H1563 H 0.41043 0.91351 0.25528 0.0
H1564 H 0.35412 0.90761 0.22523 0.0
H1565 H 0.36184 0.8971 0.28259 0.0
C1566 C 0.33843 0.91075 0.28889 0.0
C1567 C 0.32582 0.92261 0.28319 0.0
C1568 C 0.36653 0.90849 0.23176 0.0
C1569 C 0.35177 0.91138 0.26058 0.0
C1570 C 0.38177 0.90937 0.22198 0.0
C1571 C 0.39782 0.91166 0.23027 0.0
C1572 C 0.3675 0.90941 0.24989 0.0
C1573 C 0.39827 0.9119 0.24844 0.0
C1574 C 0.3515 0.90526 0.27768 0.0
C1575 C 0.32565 0.92714 0.26553 0.0
N1576 N 0.3833 0.91082 0.25766 0.0
N1577 N 0.33862 0.92171 0.25487 0.0
H1578 H 0.34435 0.0885 0.55299 0.0
H1579 H 0.33858 0.13375 0.46022 0.0
H1580 H 0.31337 0.06817 0.51097 0.0
H1581 H 0.34198 0.16143 0.50873 0.0
H1582 H 0.34043 0.10625 0.47619 0.0
H1583 H 0.35494 0.11126 0.5337 0.0
C1584 C 0.34017 0.08844 0.53957 0.0
C1585 C 0.3276 0.07662 0.5337 0.0
C1586 C 0.34121 0.11838 0.48323 0.0
C1587 C 0.33979 0.10262 0.51165 0.0
C1588 C 0.34024 0.13405 0.47417 0.0
C1589 C 0.33994 0.14984 0.48324 0.0
C1590 C 0.34227 0.1186 0.50139 0.0
C1591 C 0.34198 0.14951 0.5013 0.0
C1592 C 0.34618 0.10152 0.52863 0.0
C1593 C 0.32282 0.07719 0.51613 0.0
N1594 N 0.34296 0.13412 0.50981 0.0
N1595 N 0.32872 0.09018 0.50576 0.0
H1596 H 0.14425 0.0808 0.81269 0.0
H1597 H 0.11123 0.08519 0.71479 0.0
H1598 H 0.17232 0.05632 0.77086 0.0
H1599 H 0.07729 0.07686 0.75848 0.0
H1600 H 0.13619 0.08531 0.73468 0.0
H1601 H 0.12245 0.09063 0.79184 0.0
C1602 C 0.14614 0.07793 0.79906 0.0
C1603 C 0.16001 0.06748 0.79353 0.0
C1604 C 0.12322 0.08381 0.73987 0.0
C1605 C 0.13517 0.07882 0.76972 0.0
C1606 C 0.10901 0.08381 0.7286 0.0
C1607 C 0.09224 0.08088 0.73506 0.0
C1608 C 0.12051 0.08135 0.75769 0.0
C1609 C 0.09005 0.07901 0.75301 0.0
C1610 C 0.13363 0.08346 0.78723 0.0
C1611 C 0.16173 0.06416 0.7757 0.0
N1612 N 0.10403 0.07927 0.76372 0.0
N1613 N 0.14933 0.06968 0.76441 0.0
H1614 H 0.18639 0.93105 0.00502 0.0
H1615 H 0.1618 0.83565 0.00159 0.0
H1616 H 0.15418 0.90913 0.04525 0.0
H1617 H 0.16135 0.86484 0.95389 0.0
H1618 H 0.15849 0.86273 0.01783 0.0
H1619 H 0.17658 0.90818 0.98529 0.0
C1620 C 0.17686 0.92178 0.00956 0.0
C1621 C 0.17141 0.92181 0.02694 0.0
C1622 C 0.1587 0.86318 0.00379 0.0
C1623 C 0.16055 0.89545 0.00461 0.0
C1624 C 0.16065 0.84776 0.99456 0.0
C1625 C 0.16188 0.8481 0.97644 0.0
C1626 C 0.15862 0.87906 0.99486 0.0
C1627 C 0.16038 0.8641 0.96788 0.0
C1628 C 0.17129 0.90872 0.99829 0.0
C1629 C 0.15896 0.9095 0.03206 0.0
N1630 N 0.15928 0.87905 0.9772 0.0
N1631 N 0.15436 0.8965 0.02111 0.0
H1632 H 0.26482 0.4042 0.03752 0.0
H1633 H 0.20425 0.33713 0.08239 0.0
H1634 H 0.26887 0.39805 0.09304 0.0
H1635 H 0.22912 0.32656 0.0333 0.0
H1636 H 0.22545 0.36031 0.08762 0.0
H1637 H 0.24801 0.37747 0.03608 0.0
C1638 C 0.26201 0.39732 0.04945 0.0
C1639 C 0.26818 0.40338 0.06543 0.0
C1640 C 0.22641 0.35261 0.07592 0.0
C1641 C 0.24897 0.37274 0.06384 0.0
C1642 C 0.21439 0.33934 0.07293 0.0
C1643 C 0.21469 0.33006 0.05722 0.0
C1644 C 0.23849 0.35675 0.06296 0.0
C1645 C 0.22819 0.33349 0.04548 0.0
C1646 C 0.2526 0.38196 0.04858 0.0
C1647 C 0.26431 0.39379 0.08046 0.0
N1648 N 0.23927 0.34682 0.04839 0.0
N1649 N 0.25475 0.37898 0.07934 0.0
H1650 H 0.73174 0.17933 0.93412 0.0
H1651 H 0.73605 0.08191 0.91721 0.0
H1652 H 0.68894 0.15393 0.90844 0.0
H1653 H 0.78165 0.11248 0.90651 0.0
H1654 H 0.71835 0.10825 0.9151 0.0
H1655 H 0.75086 0.15578 0.92457 0.0
C1656 C 0.72647 0.1691 0.92606 0.0
C1657 C 0.70866 0.16848 0.9223 0.0
C1658 C 0.7322 0.10911 0.91288 0.0
C1659 C 0.73028 0.14138 0.91189 0.0
C1660 C 0.74227 0.09413 0.91417 0.0
C1661 C 0.76028 0.09509 0.91206 0.0
C1662 C 0.74029 0.12517 0.91005 0.0
C1663 C 0.76776 0.11124 0.90815 0.0
C1664 C 0.73737 0.15567 0.92065 0.0
C1665 C 0.70254 0.1549 0.91178 0.0
N1666 N 0.75777 0.12576 0.90767 0.0
N1667 N 0.71322 0.14161 0.90738 0.0
H1668 H 0.08537 0.43384 0.14806 0.0
H1669 H 0.12867 0.5272 0.14549 0.0
H1670 H 0.0627 0.47975 0.17078 0.0
H1671 H 0.15642 0.47861 0.14496 0.0
H1672 H 0.10135 0.51126 0.14242 0.0
H1673 H 0.10737 0.45191 0.13429 0.0
C1674 C 0.08464 0.44777 0.14973 0.0
C1675 C 0.07251 0.45523 0.16112 0.0
C1676 C 0.11348 0.50416 0.14247 0.0
C1677 C 0.09769 0.47589 0.14536 0.0
C1678 C 0.12908 0.51323 0.14414 0.0
C1679 C 0.14478 0.50415 0.14584 0.0
C1680 C 0.11369 0.48597 0.14223 0.0
C1681 C 0.14456 0.48606 0.14402 0.0
C1682 C 0.09727 0.45805 0.14188 0.0
C1683 C 0.07206 0.47339 0.16246 0.0
N1684 N 0.12922 0.47754 0.14255 0.0
N1685 N 0.08476 0.48309 0.15501 0.0
H1686 H 0.76176 0.90732 0.40306 0.0
H1687 H 0.75993 0.80918 0.4153 0.0
H1688 H 0.71387 0.87937 0.39578 0.0
H1689 H 0.80539 0.83491 0.39513 0.0
H1690 H 0.74217 0.83325 0.40486 0.0
H1691 H 0.77785 0.88059 0.39748 0.0
C1692 C 0.75466 0.8956 0.39995 0.0
C1693 C 0.7365 0.89547 0.40006 0.0
C1694 C 0.75597 0.83336 0.40225 0.0
C1695 C 0.75475 0.86478 0.39407 0.0
C1696 C 0.76614 0.81956 0.40815 0.0
C1697 C 0.78428 0.82028 0.40663 0.0
C1698 C 0.76407 0.84801 0.39507 0.0
C1699 C 0.79151 0.834 0.39704 0.0
C1700 C 0.76383 0.88036 0.39668 0.0
C1701 C 0.72789 0.87998 0.39586 0.0
N1702 N 0.78147 0.84759 0.39213 0.0
N1703 N 0.73709 0.8651 0.39348 0.0
H1704 H 0.9125 0.05639 0.14522 0.0
H1705 H 0.86582 0.96454 0.14741 0.0
H1706 H 0.93292 0.0115 0.17179 0.0
H1707 H 0.83955 0.01392 0.14547 0.0
H1708 H 0.89362 0.97956 0.14403 0.0
H1709 H 0.88978 0.03826 0.13272 0.0
C1710 C 0.9126 0.04262 0.148 0.0
C1711 C 0.92432 0.03556 0.16005 0.0
C1712 C 0.88171 0.98701 0.14384 0.0
C1713 C 0.89836 0.01484 0.14571 0.0
C1714 C 0.86584 0.97848 0.14569 0.0
C1715 C 0.85041 0.98807 0.14704 0.0
C1716 C 0.88204 0.00518 0.14303 0.0
C1717 C 0.85119 0.00609 0.14477 0.0
C1718 C 0.89955 0.03232 0.14089 0.0
C1719 C 0.92391 0.01758 0.1629 0.0
N1720 N 0.86679 0.01409 0.14308 0.0
N1721 N 0.91087 0.00787 0.15607 0.0
H1722 H 0.2587 0.58408 0.58418 0.0
H1723 H 0.2631 0.68056 0.56277 0.0
H1724 H 0.21175 0.61434 0.58693 0.0
H1725 H 0.30431 0.6564 0.59201 0.0
H1726 H 0.24338 0.65759 0.57239 0.0
H1727 H 0.27567 0.61068 0.58761 0.0
C1728 C 0.25199 0.59631 0.58583 0.0
C1729 C 0.23386 0.59709 0.5852 0.0
C1730 C 0.25662 0.65764 0.57709 0.0
C1731 C 0.2531 0.62753 0.58866 0.0
C1732 C 0.26788 0.67074 0.57162 0.0
C1733 C 0.28547 0.67023 0.57631 0.0
C1734 C 0.26315 0.64376 0.58691 0.0
C1735 C 0.29091 0.65723 0.58788 0.0
C1736 C 0.26165 0.61146 0.58787 0.0
C1737 C 0.22574 0.61325 0.5874 0.0
N1738 N 0.27993 0.64422 0.59237 0.0
N1739 N 0.23544 0.62794 0.58859 0.0
H1740 H 0.09059 0.56424 0.35706 0.0
H1741 H 0.13321 0.47082 0.36569 0.0
H1742 H 0.06386 0.51648 0.34518 0.0
H1743 H 0.16064 0.51782 0.35264 0.0
H1744 H 0.10695 0.48799 0.37086 0.0
H1745 H 0.11462 0.54744 0.36895 0.0
C1746 C 0.08945 0.55024 0.35749 0.0
C1747 C 0.07544 0.54173 0.34949 0.0
C1748 C 0.11887 0.49454 0.36733 0.0
C1749 C 0.10293 0.52255 0.3631 0.0
C1750 C 0.13386 0.4848 0.36441 0.0
C1751 C 0.14902 0.49292 0.3584 0.0
C1752 C 0.11918 0.5125 0.36451 0.0
C1753 C 0.14913 0.51104 0.35696 0.0
C1754 C 0.10324 0.54068 0.36421 0.0
C1755 C 0.07459 0.52358 0.35079 0.0
N1756 N 0.13437 0.52021 0.35981 0.0
N1757 N 0.08838 0.51454 0.35705 0.0
H1758 H 0.33449 0.48193 0.83765 0.0
H1759 H 0.43075 0.47756 0.81442 0.0
H1760 H 0.36629 0.52686 0.84755 0.0
H1761 H 0.40608 0.43369 0.83899 0.0
H1762 H 0.4081 0.49641 0.82638 0.0
H1763 H 0.36064 0.46387 0.83764 0.0
C1764 C 0.34696 0.48791 0.84014 0.0
C1765 C 0.34829 0.50586 0.84259 0.0
C1766 C 0.40796 0.48272 0.8295 0.0
C1767 C 0.37818 0.48546 0.8421 0.0
C1768 C 0.42088 0.47196 0.8227 0.0
C1769 C 0.42017 0.45397 0.82545 0.0
C1770 C 0.39408 0.47534 0.83869 0.0
C1771 C 0.40708 0.44745 0.83635 0.0
C1772 C 0.36184 0.47763 0.84019 0.0
C1773 C 0.36475 0.51303 0.8457 0.0
N1774 N 0.39427 0.45804 0.84216 0.0
N1775 N 0.37915 0.50286 0.84494 0.0
H1776 H 0.91182 0.75948 0.57932 0.0
H1777 H 0.93219 0.76676 0.67618 0.0
H1778 H 0.9036 0.71506 0.6123 0.0
H1779 H 0.90976 0.81001 0.64857 0.0
H1780 H 0.92051 0.74715 0.65411 0.0
H1781 H 0.91016 0.77831 0.60481 0.0
C1782 C 0.90935 0.75375 0.59192 0.0
C1783 C 0.90795 0.73574 0.59379 0.0
C1784 C 0.91775 0.76089 0.65318 0.0
C1785 C 0.90647 0.75707 0.62298 0.0
C1786 C 0.92441 0.77209 0.66577 0.0
C1787 C 0.92227 0.79009 0.66404 0.0
C1788 C 0.90929 0.76781 0.63861 0.0
C1789 C 0.91195 0.79626 0.65033 0.0
C1790 C 0.90832 0.76448 0.60644 0.0
C1791 C 0.90472 0.72892 0.61036 0.0
N1792 N 0.90627 0.78519 0.63787 0.0
N1793 N 0.90453 0.73957 0.62443 0.0
H1794 H 0.98992 0.15756 0.33463 0.0
H1795 H 0.94542 0.15068 0.41111 0.0
H1796 H 0.03659 0.15028 0.3646 0.0
H1797 H 0.98893 0.18112 0.42895 0.0
H1798 H 0.96321 0.13986 0.38725 0.0
H1799 H 0.9729 0.1559 0.36138 0.0
C1800 C 0.99652 0.15523 0.34682 0.0
C1801 C 0.01463 0.15403 0.34746 0.0
C1802 C 0.96891 0.14864 0.39661 0.0
C1803 C 0.99536 0.15234 0.37805 0.0
C1804 C 0.95885 0.15473 0.41036 0.0
C1805 C 0.96555 0.16723 0.42182 0.0
C1806 C 0.98582 0.15496 0.39444 0.0
C1807 C 0.98312 0.17177 0.42023 0.0
C1808 C 0.98682 0.15415 0.36205 0.0
C1809 C 0.02261 0.15114 0.36359 0.0
N1810 N 0.99261 0.16583 0.40659 0.0
N1811 N 0.01294 0.15086 0.37835 0.0
H1812 H 0.59427 0.19257 0.1593 0.0
H1813 H 0.59378 0.28712 0.11775 0.0
H1814 H 0.56738 0.23556 0.1831 0.0
H1815 H 0.58776 0.23993 0.08831 0.0
H1816 H 0.59599 0.26979 0.14443 0.0
H1817 H 0.60443 0.212 0.13646 0.0
C1818 C 0.59098 0.2062 0.16011 0.0
C1819 C 0.57959 0.21237 0.17295 0.0
C1820 C 0.59462 0.26329 0.13205 0.0
C1821 C 0.59133 0.23457 0.14689 0.0
C1822 C 0.59342 0.2731 0.11685 0.0
C1823 C 0.59043 0.26488 0.10088 0.0
C1824 C 0.59329 0.24519 0.1311 0.0
C1825 C 0.58991 0.24673 0.10041 0.0
C1826 C 0.59672 0.21722 0.14698 0.0
C1827 C 0.57589 0.2302 0.1733 0.0
N1828 N 0.59126 0.23746 0.11534 0.0
N1829 N 0.58153 0.24067 0.16027 0.0
H1830 H 0.51604 0.84082 0.9367 0.0
H1831 H 0.51718 0.84699 0.83765 0.0
H1832 H 0.56238 0.85552 0.90891 0.0
H1833 H 0.47018 0.85793 0.86596 0.0
H1834 H 0.53398 0.85315 0.86378 0.0
H1835 H 0.49864 0.85091 0.91222 0.0
C1836 C 0.52256 0.84671 0.92574 0.0
C1837 C 0.54075 0.84675 0.92464 0.0
C1838 C 0.52002 0.85461 0.86421 0.0
C1839 C 0.52092 0.8579 0.89645 0.0
C1840 C 0.51043 0.851 0.84931 0.0
C1841 C 0.49228 0.85174 0.84973 0.0
C1842 C 0.51136 0.85846 0.87979 0.0
C1843 C 0.48417 0.85713 0.86513 0.0
C1844 C 0.51259 0.85242 0.91171 0.0
C1845 C 0.54842 0.85478 0.91017 0.0
N1846 N 0.49374 0.85986 0.8797 0.0
N1847 N 0.5385 0.85951 0.89641 0.0
H1848 H 0.93235 0.23282 0.81699 0.0
H1849 H 0.91106 0.23929 0.91341 0.0
H1850 H 0.90522 0.19095 0.84241 0.0
H1851 H 0.90414 0.28479 0.88161 0.0
H1852 H 0.90916 0.22122 0.88736 0.0
H1853 H 0.92188 0.25268 0.8395 0.0
C1854 C 0.9238 0.2279 0.82699 0.0
C1855 C 0.91993 0.21013 0.82798 0.0
C1856 C 0.90769 0.23514 0.88614 0.0
C1857 C 0.90838 0.23262 0.8539 0.0
C1858 C 0.90886 0.24542 0.90096 0.0
C1859 C 0.90781 0.2635 0.89958 0.0
C1860 C 0.90606 0.24304 0.8698 0.0
C1861 C 0.90496 0.27086 0.88316 0.0
C1862 C 0.91785 0.23923 0.83982 0.0
C1863 C 0.90871 0.20449 0.84121 0.0
N1864 N 0.90461 0.26061 0.8688 0.0
N1865 N 0.90376 0.21559 0.85394 0.0
H1866 H 0.50793 0.15993 0.66061 0.0
H1867 H 0.55255 0.14974 0.58474 0.0
H1868 H 0.46109 0.15577 0.63031 0.0
H1869 H 0.51156 0.18334 0.56658 0.0
H1870 H 0.53366 0.13998 0.60823 0.0
H1871 H 0.525 0.15692 0.634 0.0
C1872 C 0.50128 0.15801 0.64837 0.0
C1873 C 0.48313 0.15807 0.64759 0.0
C1874 C 0.52873 0.14921 0.59885 0.0
C1875 C 0.50247 0.15484 0.61717 0.0
C1876 C 0.53941 0.1547 0.58532 0.0
C1877 C 0.5338 0.16779 0.57393 0.0
C1878 C 0.5123 0.15674 0.60087 0.0
C1879 C 0.51655 0.17351 0.57527 0.0
C1880 C 0.51099 0.15615 0.63323 0.0
C1881 C 0.47509 0.15566 0.63142 0.0
N1882 N 0.50647 0.16815 0.58872 0.0
N1883 N 0.48483 0.15462 0.61674 0.0
H1884 H 0.56287 0.76478 0.3169 0.0
H1885 H 0.58404 0.75888 0.41344 0.0
H1886 H 0.58985 0.80698 0.34196 0.0
H1887 H 0.59255 0.71353 0.3818 0.0
H1888 H 0.58534 0.77691 0.38729 0.0
H1889 H 0.57332 0.74518 0.33967 0.0
C1890 C 0.57138 0.76983 0.32688 0.0
C1891 C 0.57524 0.78761 0.32767 0.0
C1892 C 0.58727 0.76304 0.38613 0.0
C1893 C 0.58675 0.76543 0.35388 0.0
C1894 C 0.58645 0.75278 0.401 0.0
C1895 C 0.58815 0.73475 0.39971 0.0
C1896 C 0.58921 0.75513 0.36984 0.0
C1897 C 0.59124 0.72743 0.38331 0.0
C1898 C 0.57732 0.75865 0.33986 0.0
C1899 C 0.58638 0.79342 0.34089 0.0
N1900 N 0.59125 0.73762 0.3689 0.0
N1901 N 0.59132 0.78246 0.35377 0.0
H1902 H 0.9793 0.82335 0.06847 0.0
H1903 H 0.98382 0.84171 0.16579 0.0
H1904 H 0.93482 0.84402 0.09553 0.0
H1905 H 0.02873 0.85195 0.13404 0.0
H1906 H 0.96553 0.84355 0.13993 0.0
H1907 H 0.99808 0.83523 0.09114 0.0
C1908 C 0.97351 0.83081 0.07888 0.0
C1909 C 0.95542 0.83233 0.08029 0.0
C1910 C 0.97934 0.8458 0.13867 0.0
C1911 C 0.97676 0.84553 0.1064 0.0
C1912 C 0.98976 0.84467 0.1534 0.0
C1913 C 0.00777 0.84657 0.15198 0.0
C1914 C 0.98706 0.84826 0.12235 0.0
C1915 C 0.01486 0.85041 0.13565 0.0
C1916 C 0.98424 0.83758 0.09182 0.0
C1917 C 0.94867 0.84226 0.09402 0.0
N1918 N 0.00453 0.8507 0.12134 0.0
N1919 N 0.9593 0.84804 0.10681 0.0
H1920 H 0.67991 0.95599 0.75576 0.0
H1921 H 0.60221 0.89748 0.72191 0.0
H1922 H 0.66597 0.90994 0.78446 0.0
H1923 H 0.6004 0.95318 0.72694 0.0
H1924 H 0.63077 0.89757 0.73659 0.0
H1925 H 0.65677 0.94971 0.73515 0.0
C1926 C 0.67239 0.94425 0.75746 0.0
C1927 C 0.67458 0.93375 0.77218 0.0
C1928 C 0.62404 0.90969 0.73432 0.0
C1929 C 0.64814 0.92657 0.74857 0.0
C1930 C 0.60783 0.90966 0.72608 0.0
C1931 C 0.59889 0.92532 0.72351 0.0
C1932 C 0.63148 0.92554 0.73928 0.0
C1933 C 0.60672 0.94079 0.72896 0.0
C1934 C 0.65913 0.94076 0.74573 0.0
C1935 C 0.66452 0.91857 0.77348 0.0
N1936 N 0.6226 0.94052 0.73645 0.0
N1937 N 0.65145 0.91558 0.76199 0.0
H1938 H 0.84572 0.8489 0.47864 0.0
H1939 H 0.78104 0.91922 0.51752 0.0
H1940 H 0.79006 0.84319 0.48028 0.0
H1941 H 0.82952 0.90847 0.54349 0.0
H1942 H 0.78797 0.89701 0.49613 0.0
H1943 H 0.84302 0.87555 0.49619 0.0
C1944 C 0.83299 0.85323 0.48271 0.0
C1945 C 0.8181 0.84375 0.4782 0.0
C1946 C 0.79722 0.89977 0.50635 0.0
C1947 C 0.81496 0.87428 0.49746 0.0
C1948 C 0.79336 0.91253 0.51852 0.0
C1949 C 0.80454 0.91548 0.53258 0.0
C1950 C 0.81246 0.89001 0.50809 0.0
C1951 C 0.82041 0.90646 0.533 0.0
C1952 C 0.83149 0.86838 0.49263 0.0
C1953 C 0.8019 0.84994 0.48367 0.0
N1954 N 0.82382 0.89392 0.52103 0.0
N1955 N 0.80076 0.86487 0.49288 0.0
H1956 H 0.84962 0.08367 0.30749 0.0
H1957 H 0.88385 0.0845 0.21007 0.0
H1958 H 0.82208 0.05683 0.26678 0.0
H1959 H 0.91723 0.07593 0.25414 0.0
H1960 H 0.85867 0.08506 0.22972 0.0
H1961 H 0.87175 0.09219 0.28642 0.0
C1962 C 0.84791 0.08002 0.29403 0.0
C1963 C 0.83407 0.06932 0.28892 0.0
C1964 C 0.87157 0.08338 0.23503 0.0
C1965 C 0.85929 0.07916 0.26486 0.0
C1966 C 0.88589 0.08314 0.22391 0.0
C1967 C 0.90256 0.08006 0.23056 0.0
C1968 C 0.87409 0.08107 0.25289 0.0
C1969 C 0.90455 0.07821 0.24853 0.0
C1970 C 0.86062 0.08479 0.28208 0.0
C1971 C 0.83262 0.06493 0.27129 0.0
N1972 N 0.89047 0.07877 0.2591 0.0
N1973 N 0.84519 0.06976 0.25987 0.0
H1974 H 0.65668 0.16091 0.0081 0.0
H1975 H 0.67714 0.06441 0.00889 0.0
H1976 H 0.65042 0.13208 0.96057 0.0
H1977 H 0.64962 0.08736 0.05194 0.0
H1978 H 0.66672 0.08793 0.99025 0.0
H1979 H 0.6538 0.13386 0.0245 0.0
C1980 C 0.65437 0.14891 0.00117 0.0
C1981 C 0.65385 0.14866 0.98301 0.0
C1982 C 0.66257 0.08749 0.00367 0.0
C1983 C 0.65102 0.11773 0.00156 0.0
C1984 C 0.66849 0.07406 0.01431 0.0
C1985 C 0.66458 0.0741 0.0321 0.0
C1986 C 0.65307 0.10118 0.01101 0.0
C1987 C 0.65321 0.08691 0.03837 0.0
C1988 C 0.65265 0.13352 0.0105 0.0
C1989 C 0.65085 0.13278 0.9746 0.0
N1990 N 0.6483 0.10024 0.02797 0.0
N1991 N 0.64999 0.11783 0.98392 0.0
H1992 H 0.6566 0.09746 0.69191 0.0
H1993 H 0.61519 0.09677 0.78661 0.0
H1994 H 0.6829 0.07589 0.73644 0.0
H1995 H 0.58648 0.0891 0.73919 0.0
H1996 H 0.64172 0.10095 0.76944 0.0
H1997 H 0.63316 0.1071 0.71086 0.0
C1998 C 0.6578 0.09527 0.70574 0.0
C1999 C 0.67154 0.08538 0.71252 0.0
C2000 C 0.62951 0.09877 0.76285 0.0
C2001 C 0.64472 0.09645 0.73418 0.0
C2002 C 0.61439 0.09642 0.77258 0.0
C2003 C 0.59871 0.09237 0.76426 0.0
C2004 C 0.62877 0.09746 0.74472 0.0
C2005 C 0.59838 0.09198 0.74609 0.0
C2006 C 0.64432 0.1007 0.71651 0.0
C2007 C 0.67239 0.08315 0.7306 0.0
N2008 N 0.61322 0.09441 0.73691 0.0
N2009 N 0.65896 0.08835 0.74079 0.0
H2010 H 0.66305 0.90051 0.4435 0.0
H2011 H 0.67306 0.82725 0.49355 0.0
H2012 H 0.69551 0.92173 0.48393 0.0
H2013 H 0.66432 0.86074 0.53749 0.0
H2014 H 0.67222 0.85265 0.47445 0.0
H2015 H 0.65406 0.87747 0.46332 0.0
C2016 C 0.66793 0.90065 0.45668 0.0
C2017 C 0.68035 0.9129 0.46196 0.0
C2018 C 0.67011 0.85437 0.48823 0.0
C2019 C 0.67012 0.88653 0.48454 0.0
C2020 C 0.67072 0.83994 0.49911 0.0
C2021 C 0.6687 0.84197 0.51705 0.0
C2022 C 0.66795 0.87096 0.49543 0.0
C2023 C 0.66579 0.85868 0.52367 0.0
C2024 C 0.66289 0.88739 0.46789 0.0
C2025 C 0.68613 0.9124 0.47924 0.0
N2026 N 0.66591 0.87265 0.51288 0.0
N2027 N 0.68108 0.89928 0.48991 0.0
H2028 H 0.83625 0.91826 0.2055 0.0
H2029 H 0.90418 0.96052 0.26761 0.0
H2030 H 0.82781 0.96805 0.22976 0.0
H2031 H 0.89628 0.90516 0.27033 0.0
H2032 H 0.87792 0.96313 0.25023 0.0
H2033 H 0.85907 0.91221 0.2269 0.0
C2034 C 0.83886 0.92773 0.21554 0.0
C2035 C 0.83025 0.94382 0.21564 0.0
C2036 C 0.88191 0.95041 0.25465 0.0
C2037 C 0.85655 0.93713 0.23969 0.0
C2038 C 0.89702 0.94887 0.2644 0.0
C2039 C 0.90247 0.93258 0.27037 0.0
C2040 C 0.87231 0.93554 0.25049 0.0
C2041 C 0.89251 0.91796 0.26596 0.0
C2042 C 0.85192 0.92428 0.22768 0.0
C2043 C 0.83418 0.95556 0.229 0.0
N2044 N 0.87794 0.91974 0.25609 0.0
N2045 N 0.84729 0.95215 0.24022 0.0
H2046 H 0.8418 0.13041 0.03482 0.0
H2047 H 0.8414 0.08922 0.94001 0.0
H2048 H 0.83656 0.15993 0.98759 0.0
H2049 H 0.81627 0.06485 0.98375 0.0
H2050 H 0.85196 0.11204 0.95925 0.0
H2051 H 0.84421 0.10377 0.01748 0.0
C2052 C 0.84168 0.13133 0.0208 0.0
C2053 C 0.83881 0.14732 0.01257 0.0
C2054 C 0.84454 0.10141 0.96467 0.0
C2055 C 0.84182 0.11712 0.99285 0.0
C2056 C 0.83856 0.0883 0.95375 0.0
C2057 C 0.82754 0.07529 0.96021 0.0
C2058 C 0.83972 0.10136 0.98219 0.0
C2059 C 0.82446 0.07479 0.97816 0.0
C2060 C 0.84297 0.11616 0.01098 0.0
C2061 C 0.83859 0.14782 0.9944 0.0
N2062 N 0.83029 0.08782 0.98852 0.0
N2063 N 0.83998 0.13291 0.98513 0.0
H2064 H 0.75255 0.58327 0.9224 0.0
H2065 H 0.75977 0.68032 0.94094 0.0
H2066 H 0.70763 0.61521 0.91277 0.0
H2067 H 0.80131 0.65434 0.9138 0.0
H2068 H 0.73988 0.6573 0.93162 0.0
H2069 H 0.77089 0.60919 0.92069 0.0
C2070 C 0.74661 0.59572 0.9197 0.0
C2071 C 0.72861 0.59718 0.91776 0.0
C2072 C 0.75327 0.65695 0.92735 0.0
C2073 C 0.74933 0.62677 0.91621 0.0
C2074 C 0.7646 0.67006 0.93264 0.0
C2075 C 0.78226 0.66914 0.92832 0.0
C2076 C 0.7598 0.64266 0.91816 0.0
C2077 C 0.78782 0.65554 0.91752 0.0
C2078 C 0.75705 0.61045 0.91863 0.0
C2079 C 0.7215 0.61359 0.91428 0.0
N2080 N 0.77674 0.64256 0.91323 0.0
N2081 N 0.73185 0.62786 0.91401 0.0
H2082 H 0.20689 0.88106 0.08457 0.0
H2083 H 0.30083 0.83859 0.09147 0.0
H2084 H 0.25463 0.91018 0.08398 0.0
H2085 H 0.26018 0.81625 0.06006 0.0
H2086 H 0.2807 0.86117 0.10084 0.0
H2087 H 0.22378 0.8541 0.08708 0.0
C2088 C 0.22089 0.8818 0.08547 0.0
C2089 C 0.22946 0.89778 0.08393 0.0
C2090 C 0.27611 0.85101 0.09229 0.0
C2091 C 0.24862 0.86726 0.08713 0.0
C2092 C 0.28752 0.83803 0.08699 0.0
C2093 C 0.28229 0.82571 0.07461 0.0
C2094 C 0.25929 0.85147 0.08544 0.0
C2095 C 0.26484 0.82566 0.06938 0.0
C2096 C 0.23046 0.86646 0.08683 0.0
C2097 C 0.24759 0.89807 0.08499 0.0
N2098 N 0.25399 0.83855 0.07463 0.0
N2099 N 0.2566 0.88301 0.08648 0.0
H2100 H 0.86101 0.46479 0.84822 0.0
H2101 H 0.90591 0.5578 0.84852 0.0
H2102 H 0.83343 0.51344 0.85012 0.0
H2103 H 0.92663 0.51348 0.82125 0.0
H2104 H 0.88339 0.53928 0.86084 0.0
H2105 H 0.88851 0.4807 0.84984 0.0
C2106 C 0.86072 0.47877 0.84956 0.0
C2107 C 0.84496 0.48787 0.8488 0.0
C2108 C 0.89317 0.53356 0.85253 0.0
C2109 C 0.87623 0.50599 0.85079 0.0
C2110 C 0.9061 0.54407 0.84553 0.0
C2111 C 0.91794 0.53727 0.83344 0.0
C2112 C 0.8922 0.51609 0.84759 0.0
C2113 C 0.91758 0.51934 0.83023 0.0
C2114 C 0.8764 0.48781 0.85039 0.0
C2115 C 0.84532 0.50597 0.85046 0.0
N2116 N 0.90469 0.5094 0.83704 0.0
N2117 N 0.86073 0.51447 0.85122 0.0
H2118 H 0.23815 0.18239 0.57423 0.0
H2119 H 0.24093 0.08411 0.58595 0.0
H2120 H 0.19464 0.15521 0.59669 0.0
H2121 H 0.28759 0.11372 0.59464 0.0
H2122 H 0.22376 0.11034 0.59083 0.0
H2123 H 0.25714 0.15866 0.58334 0.0
C2124 C 0.23266 0.17174 0.58156 0.0
C2125 C 0.21468 0.1706 0.58427 0.0
C2126 C 0.23774 0.11103 0.59204 0.0
C2127 C 0.23624 0.14329 0.59428 0.0
C2128 C 0.24752 0.0961 0.58916 0.0
C2129 C 0.26566 0.09683 0.58978 0.0
C2130 C 0.24619 0.1269 0.59501 0.0
C2131 C 0.2736 0.11266 0.59404 0.0
C2132 C 0.24352 0.15817 0.58672 0.0
C2133 C 0.20835 0.15653 0.594 0.0
N2134 N 0.26382 0.12721 0.59608 0.0
N2135 N 0.21903 0.14316 0.59816 0.0
H2136 H 0.0872 0.9324 0.85077 0.0
H2137 H 0.12789 0.02687 0.85872 0.0
H2138 H 0.05945 0.97912 0.83715 0.0
H2139 H 0.15632 0.98081 0.84447 0.0
H2140 H 0.10191 0.00906 0.86317 0.0
H2141 H 0.11099 0.95011 0.86175 0.0
C2142 C 0.08577 0.94637 0.85064 0.0
C2143 C 0.07153 0.95428 0.84245 0.0
C2144 C 0.11398 0.00286 0.8595 0.0
C2145 C 0.09873 0.97451 0.85506 0.0
C2146 C 0.1288 0.01295 0.85699 0.0
C2147 C 0.14419 0.00529 0.85097 0.0
C2148 C 0.11471 0.98497 0.85631 0.0
C2149 C 0.14464 0.98724 0.84887 0.0
C2150 C 0.09945 0.95644 0.85683 0.0
C2151 C 0.07036 0.97246 0.84297 0.0
N2152 N 0.13006 0.97769 0.85142 0.0
N2153 N 0.084 0.982 0.8488 0.0
H2154 H 0.69191 0.34845 0.41353 0.0
H2155 H 0.78846 0.38497 0.41559 0.0
H2156 H 0.73214 0.32284 0.44293 0.0
H2157 H 0.74318 0.4174 0.42075 0.0
H2158 H 0.76952 0.35926 0.41492 0.0
H2159 H 0.71284 0.37059 0.40483 0.0
C2160 C 0.70526 0.34714 0.41774 0.0
C2161 C 0.71023 0.33389 0.42922 0.0
C2162 C 0.76381 0.37206 0.41585 0.0
C2163 C 0.73414 0.35914 0.41915 0.0
C2164 C 0.77453 0.38668 0.41616 0.0
C2165 C 0.7673 0.40325 0.41833 0.0
C2166 C 0.7458 0.37417 0.4172 0.0
C2167 C 0.74921 0.40482 0.41919 0.0
C2168 C 0.71712 0.35987 0.41283 0.0
C2169 C 0.72772 0.33294 0.43423 0.0
N2170 N 0.73905 0.39044 0.4186 0.0
N2171 N 0.73906 0.34554 0.42929 0.0
H2172 H 0.86462 0.53344 0.64688 0.0
H2173 H 0.93559 0.48348 0.67117 0.0
H2174 H 0.83814 0.48779 0.66549 0.0
H2175 H 0.90481 0.43958 0.65501 0.0
H2176 H 0.91241 0.50279 0.66152 0.0
H2177 H 0.8911 0.51614 0.64318 0.0
C2178 C 0.8643 0.51973 0.64991 0.0
C2179 C 0.84925 0.51207 0.65677 0.0
C2180 C 0.91101 0.48897 0.65948 0.0
C2181 C 0.87936 0.49233 0.65257 0.0
C2182 C 0.92427 0.47791 0.66501 0.0
C2183 C 0.92201 0.45984 0.66429 0.0
C2184 C 0.89537 0.48185 0.65341 0.0
C2185 C 0.90704 0.4534 0.65611 0.0
C2186 C 0.87943 0.50993 0.6479 0.0
C2187 C 0.84952 0.49426 0.66043 0.0
N2188 N 0.89405 0.46437 0.65153 0.0
N2189 N 0.86436 0.48501 0.65833 0.0
H2190 H 0.55965 0.51169 0.16552 0.0
H2191 H 0.65789 0.51325 0.15403 0.0
H2192 H 0.58564 0.55715 0.1457 0.0
H2193 H 0.62985 0.46549 0.14621 0.0
H2194 H 0.63124 0.52945 0.14838 0.0
H2195 H 0.58376 0.49389 0.1552 0.0
C2196 C 0.5701 0.51788 0.15848 0.0
C2197 C 0.57087 0.53603 0.15701 0.0
C2198 C 0.63098 0.51543 0.14747 0.0
C2199 C 0.59864 0.51579 0.14559 0.0
C2200 C 0.64617 0.5062 0.15079 0.0
C2201 C 0.64599 0.48804 0.15076 0.0
C2202 C 0.61539 0.50642 0.14468 0.0
C2203 C 0.6305 0.47952 0.1464 0.0
C2204 C 0.58392 0.5077 0.15263 0.0
C2205 C 0.58467 0.54326 0.14755 0.0
N2206 N 0.61567 0.48877 0.14398 0.0
N2207 N 0.59829 0.5332 0.1427 0.0
H2208 H 0.54125 0.76968 0.90632 0.0
H2209 H 0.58233 0.70798 0.8374 0.0
H2210 H 0.5966 0.77185 0.89808 0.0
H2211 H 0.53284 0.73304 0.82948 0.0
H2212 H 0.58882 0.72906 0.86037 0.0
H2213 H 0.53828 0.75267 0.87985 0.0
C2214 C 0.55282 0.7664 0.89905 0.0
C2215 C 0.56921 0.77212 0.90446 0.0
C2216 C 0.57673 0.73009 0.85329 0.0
C2217 C 0.56585 0.75271 0.87406 0.0
C2218 C 0.57303 0.71814 0.84014 0.0
C2219 C 0.55687 0.71853 0.83167 0.0
C2220 C 0.56405 0.7422 0.85815 0.0
C2221 C 0.54536 0.73204 0.83577 0.0
C2222 C 0.55108 0.75688 0.88383 0.0
C2223 C 0.58373 0.76765 0.89436 0.0
N2224 N 0.549 0.74307 0.84898 0.0
N2225 N 0.58174 0.75802 0.87967 0.0
H2226 H 0.50743 0.33542 0.16626 0.0
H2227 H 0.51312 0.31467 0.06951 0.0
H2228 H 0.46216 0.34395 0.13451 0.0
H2229 H 0.5557 0.34076 0.09484 0.0
H2230 H 0.49366 0.32518 0.09236 0.0
H2231 H 0.52553 0.33679 0.14017 0.0
C2232 C 0.50136 0.33786 0.15382 0.0
C2233 C 0.48333 0.33953 0.15248 0.0
C2234 C 0.50719 0.32896 0.0926 0.0
C2235 C 0.50379 0.34067 0.12266 0.0
C2236 C 0.51828 0.323 0.07957 0.0
C2237 C 0.53611 0.32661 0.0804 0.0
C2238 C 0.5141 0.33817 0.10671 0.0
C2239 C 0.54209 0.33751 0.09374 0.0
C2240 C 0.51167 0.33872 0.13898 0.0
C2241 C 0.47605 0.34266 0.13607 0.0
N2242 N 0.5312 0.34249 0.10665 0.0
N2243 N 0.48628 0.34272 0.12169 0.0
H2244 H 0.90773 0.30324 0.34382 0.0
H2245 H 0.90913 0.20865 0.38521 0.0
H2246 H 0.93415 0.26038 0.31926 0.0
H2247 H 0.91641 0.25571 0.41457 0.0
H2248 H 0.90641 0.22607 0.35862 0.0
H2249 H 0.89833 0.28376 0.36695 0.0
C2250 C 0.91107 0.28962 0.34292 0.0
C2251 C 0.9221 0.2835 0.32975 0.0
C2252 C 0.90819 0.23252 0.37097 0.0
C2253 C 0.91123 0.26126 0.35613 0.0
C2254 C 0.90968 0.22266 0.38611 0.0
C2255 C 0.91315 0.23082 0.40202 0.0
C2256 C 0.9097 0.25061 0.37193 0.0
C2257 C 0.9139 0.24896 0.40251 0.0
C2258 C 0.90577 0.27858 0.35621 0.0
C2259 C 0.92591 0.26569 0.32931 0.0
N2260 N 0.91223 0.25827 0.38765 0.0
N2261 N 0.92068 0.2552 0.34249 0.0
H2262 H 0.03455 0.65105 0.62959 0.0
H2263 H 0.9397 0.65611 0.58907 0.0
H2264 H 0.98822 0.65886 0.65995 0.0
H2265 H 0.98329 0.68214 0.56539 0.0
H2266 H 0.95893 0.64523 0.61174 0.0
H2267 H 0.01679 0.65118 0.60308 0.0
C2268 C 0.0206 0.65231 0.63069 0.0
C2269 C 0.01278 0.65506 0.64691 0.0
C2270 C 0.96431 0.65296 0.60131 0.0
C2271 C 0.99258 0.65488 0.61688 0.0
C2272 C 0.9534 0.65912 0.58828 0.0
C2273 C 0.95982 0.67038 0.57546 0.0
C2274 C 0.98181 0.65779 0.60134 0.0
C2275 C 0.97774 0.67371 0.57515 0.0
C2276 C 0.01055 0.65246 0.61561 0.0
C2277 C 0.99471 0.65682 0.64766 0.0
N2278 N 0.98811 0.66761 0.58807 0.0
N2279 N 0.9852 0.65672 0.63284 0.0
H2280 H 0.59731 0.2957 0.65921 0.0
H2281 H 0.59056 0.20325 0.61376 0.0
H2282 H 0.56553 0.25456 0.68006 0.0
H2283 H 0.58923 0.25191 0.5862 0.0
H2284 H 0.59314 0.21927 0.64124 0.0
H2285 H 0.60677 0.27623 0.6361 0.0
C2286 C 0.59277 0.28241 0.65934 0.0
C2287 C 0.58024 0.27688 0.67137 0.0
C2288 C 0.59272 0.22634 0.6291 0.0
C2289 C 0.59119 0.25463 0.64502 0.0
C2290 C 0.59132 0.21727 0.61347 0.0
C2291 C 0.58955 0.22635 0.59778 0.0
C2292 C 0.59285 0.24451 0.62889 0.0
C2293 C 0.59042 0.24448 0.59807 0.0
C2294 C 0.59813 0.27137 0.64606 0.0
C2295 C 0.57496 0.25945 0.67088 0.0
N2296 N 0.59197 0.253 0.61341 0.0
N2297 N 0.58026 0.24898 0.6577 0.0
H2298 H 0.03421 0.3419 0.86607 0.0
H2299 H 0.93892 0.34277 0.90603 0.0
H2300 H 0.98743 0.33607 0.83597 0.0
H2301 H 0.98175 0.31674 0.93107 0.0
H2302 H 0.95867 0.35275 0.88338 0.0
H2303 H 0.01649 0.34445 0.89248 0.0
C2304 C 0.02021 0.34166 0.86498 0.0
C2305 C 0.01221 0.33862 0.8489 0.0
C2306 C 0.96378 0.34526 0.89412 0.0
C2307 C 0.99207 0.34184 0.8788 0.0
C2308 C 0.95257 0.33963 0.90714 0.0
C2309 C 0.95862 0.32853 0.92029 0.0
C2310 C 0.98118 0.34004 0.89443 0.0
C2311 C 0.97648 0.32501 0.92102 0.0
C2312 C 0.01017 0.34305 0.88001 0.0
C2313 C 0.99406 0.33825 0.84816 0.0
N2314 N 0.98713 0.33053 0.90808 0.0
N2315 N 0.98457 0.33977 0.86293 0.0
H2316 H 0.94034 0.72676 0.18038 0.0
H2317 H 0.92056 0.73711 0.08338 0.0
H2318 H 0.91736 0.68429 0.15201 0.0
H2319 H 0.90779 0.77937 0.11775 0.0
H2320 H 0.92101 0.71743 0.10837 0.0
H2321 H 0.92951 0.74684 0.15818 0.0
C2322 C 0.93266 0.72171 0.16975 0.0
C2323 C 0.92993 0.7038 0.16794 0.0
C2324 C 0.91781 0.73096 0.11036 0.0
C2325 C 0.91805 0.72654 0.14241 0.0
C2326 C 0.91764 0.74216 0.09616 0.0
C2327 C 0.91416 0.75983 0.09857 0.0
C2328 C 0.91504 0.73761 0.1271 0.0
C2329 C 0.91045 0.76579 0.11539 0.0
C2330 C 0.92651 0.73316 0.15711 0.0
C2331 C 0.91987 0.69797 0.1539 0.0
N2332 N 0.91137 0.75476 0.12912 0.0
N2333 N 0.91469 0.70926 0.14142 0.0
H2334 H 0.46413 0.65195 0.36687 0.0
H2335 H 0.55992 0.6543 0.40551 0.0
H2336 H 0.51028 0.65934 0.33612 0.0
H2337 H 0.51648 0.67855 0.43127 0.0
H2338 H 0.54027 0.6437 0.38306 0.0
H2339 H 0.48229 0.64994 0.39301 0.0
C2340 C 0.47811 0.65267 0.36557 0.0
C2341 C 0.48578 0.656 0.34939 0.0
C2342 C 0.53502 0.65094 0.39391 0.0
C2343 C 0.50642 0.65337 0.37899 0.0
C2344 C 0.54618 0.65692 0.40681 0.0
C2345 C 0.53989 0.66771 0.4201 0.0
C2346 C 0.51744 0.6555 0.39448 0.0
C2347 C 0.52192 0.67054 0.42109 0.0
C2348 C 0.48839 0.65158 0.38046 0.0
C2349 C 0.50389 0.65696 0.3484 0.0
N2350 N 0.51132 0.6647 0.40827 0.0
N2351 N 0.51362 0.65572 0.36303 0.0
H2352 H 0.91199 0.58265 0.74189 0.0
H2353 H 0.81551 0.56288 0.7339 0.0
H2354 H 0.8795 0.59103 0.78665 0.0
H2355 H 0.84223 0.58867 0.69198 0.0
H2356 H 0.83768 0.57355 0.75403 0.0
H2357 H 0.88636 0.58481 0.72328 0.0
C2358 C 0.89948 0.58523 0.74774 0.0
C2359 C 0.89778 0.58659 0.76578 0.0
C2360 C 0.83837 0.57726 0.7405 0.0
C2361 C 0.86845 0.58864 0.7447 0.0
C2362 C 0.82573 0.57119 0.729 0.0
C2363 C 0.82719 0.5746 0.71117 0.0
C2364 C 0.85272 0.58637 0.73399 0.0
C2365 C 0.84067 0.58552 0.70558 0.0
C2366 C 0.88489 0.58655 0.73714 0.0
C2367 C 0.8813 0.58994 0.77276 0.0
N2368 N 0.85321 0.59058 0.71686 0.0
N2369 N 0.86714 0.59042 0.76223 0.0
H2370 H 0.67193 0.56729 0.9883 0.0
H2371 H 0.65289 0.66429 0.98857 0.0
H2372 H 0.64673 0.59133 0.94443 0.0
H2373 H 0.64774 0.63541 0.0362 0.0
H2374 H 0.6491 0.63738 0.97221 0.0
H2375 H 0.66127 0.59079 0.00677 0.0
C2376 C 0.66372 0.57719 0.98264 0.0
C2377 C 0.66059 0.57754 0.9647 0.0
C2378 C 0.64837 0.63698 0.98624 0.0
C2379 C 0.64878 0.60462 0.98565 0.0
C2380 C 0.6506 0.65231 0.99555 0.0
C2381 C 0.65074 0.652 0.01372 0.0
C2382 C 0.64687 0.62117 0.99517 0.0
C2383 C 0.6477 0.63616 0.02218 0.0
C2384 C 0.65765 0.59062 0.9932 0.0
C2385 C 0.64974 0.59065 0.95813 0.0
N2386 N 0.64635 0.62126 0.01283 0.0
N2387 N 0.64467 0.60395 0.96849 0.0
H2388 H 0.57786 0.42302 0.24208 0.0
H2389 H 0.67436 0.44533 0.2348 0.0
H2390 H 0.60989 0.41644 0.28747 0.0
H2391 H 0.64949 0.4163 0.19388 0.0
H2392 H 0.65151 0.43585 0.25482 0.0
H2393 H 0.60394 0.42195 0.22393 0.0
C2394 C 0.59038 0.4211 0.24817 0.0
C2395 C 0.5918 0.41983 0.26623 0.0
C2396 C 0.65136 0.43123 0.24156 0.0
C2397 C 0.62158 0.41905 0.24571 0.0
C2398 C 0.66438 0.43662 0.23014 0.0
C2399 C 0.66373 0.43177 0.21259 0.0
C2400 C 0.63743 0.42138 0.23522 0.0
C2401 C 0.65048 0.42044 0.20726 0.0
C2402 C 0.60521 0.42041 0.23784 0.0
C2403 C 0.6083 0.41739 0.27354 0.0
N2404 N 0.63759 0.41602 0.21841 0.0
N2405 N 0.62265 0.41748 0.26327 0.0
H2406 H 0.82134 0.43523 0.48908 0.0
H2407 H 0.8506 0.34071 0.48654 0.0
H2408 H 0.85058 0.41538 0.44562 0.0
H2409 H 0.8478 0.36772 0.53547 0.0
H2410 H 0.85324 0.36858 0.47168 0.0
H2411 H 0.83363 0.41234 0.50727 0.0
C2412 C 0.83074 0.42642 0.48347 0.0
C2413 C 0.83453 0.42694 0.46566 0.0
C2414 C 0.8525 0.36841 0.48571 0.0
C2415 C 0.84827 0.40053 0.48628 0.0
C2416 C 0.85095 0.35251 0.49417 0.0
C2417 C 0.84878 0.35195 0.51221 0.0
C2418 C 0.85133 0.38386 0.49531 0.0
C2419 C 0.84938 0.3676 0.52151 0.0
C2420 C 0.83774 0.41333 0.49387 0.0
C2421 C 0.84696 0.41528 0.45919 0.0
N2422 N 0.85011 0.38298 0.51291 0.0
N2423 N 0.85298 0.40222 0.46936 0.0
H2424 H 0.90279 0.45426 0.74021 0.0
H2425 H 0.82914 0.41411 0.79584 0.0
H2426 H 0.89304 0.39943 0.73438 0.0
H2427 H 0.82288 0.46313 0.76943 0.0
H2428 H 0.8534 0.40723 0.77637 0.0
H2429 H 0.87531 0.4572 0.75558 0.0
C2430 C 0.895 0.44278 0.74239 0.0
C2431 C 0.90023 0.42656 0.73604 0.0
C2432 C 0.84639 0.41929 0.77467 0.0
C2433 C 0.86872 0.42992 0.75354 0.0
C2434 C 0.83251 0.42321 0.78568 0.0
C2435 C 0.82414 0.43938 0.7845 0.0
C2436 C 0.85205 0.43178 0.76274 0.0
C2437 C 0.82905 0.45062 0.77102 0.0
C2438 C 0.87922 0.44452 0.75095 0.0
C2439 C 0.88946 0.41217 0.73909 0.0
N2440 N 0.84297 0.4468 0.76097 0.0
N2441 N 0.8742 0.41414 0.74779 0.0
H2442 H 0.84527 0.59052 0.05722 0.0
H2443 H 0.844 0.63315 0.96312 0.0
H2444 H 0.81941 0.56693 0.01349 0.0
H2445 H 0.83947 0.66173 0.01101 0.0
H2446 H 0.84717 0.60623 0.9799 0.0
H2447 H 0.85594 0.61339 0.03813 0.0
C2448 C 0.84231 0.58976 0.04351 0.0
C2449 C 0.83099 0.57702 0.03704 0.0
C2450 C 0.84595 0.61849 0.98667 0.0
C2451 C 0.8433 0.60313 0.01521 0.0
C2452 C 0.84421 0.63382 0.97716 0.0
C2453 C 0.84129 0.6496 0.98575 0.0
C2454 C 0.84518 0.6191 0.00483 0.0
C2455 C 0.84152 0.64977 0.00393 0.0
C2456 C 0.84835 0.6029 0.03267 0.0
C2457 C 0.8278 0.57668 0.0191 0.0
N2458 N 0.84332 0.63471 0.01288 0.0
N2459 N 0.83367 0.58977 0.00882 0.0
H2460 H 0.60008 0.59872 0.2277 0.0
H2461 H 0.67339 0.53551 0.26351 0.0
H2462 H 0.59641 0.54287 0.22834 0.0
H2463 H 0.66143 0.58287 0.29096 0.0
H2464 H 0.65088 0.54246 0.24244 0.0
H2465 H 0.62743 0.59662 0.24428 0.0
C2466 C 0.60501 0.58607 0.23133 0.0
C2467 C 0.59589 0.57094 0.22688 0.0
C2468 C 0.65346 0.55148 0.2529 0.0
C2469 C 0.62719 0.56851 0.24498 0.0
C2470 C 0.66639 0.54761 0.26489 0.0
C2471 C 0.66905 0.55841 0.2793 0.0
C2472 C 0.64324 0.56634 0.25518 0.0
C2473 C 0.65965 0.57403 0.28019 0.0
C2474 C 0.62056 0.58491 0.24068 0.0
C2475 C 0.60287 0.55487 0.23174 0.0
N2476 N 0.64692 0.57744 0.26842 0.0
N2477 N 0.61814 0.55408 0.2404 0.0
H2478 H 0.6518 0.33935 0.51094 0.0
H2479 H 0.66514 0.43755 0.51117 0.0
H2480 H 0.64436 0.36866 0.46387 0.0
H2481 H 0.64618 0.41073 0.55653 0.0
H2482 H 0.65409 0.41399 0.49309 0.0
H2483 H 0.64688 0.36572 0.52779 0.0
C2484 C 0.64879 0.3513 0.50418 0.0
C2485 C 0.64868 0.3519 0.48602 0.0
C2486 C 0.65188 0.41353 0.50696 0.0
C2487 C 0.64344 0.38221 0.50515 0.0
C2488 C 0.65814 0.42703 0.51731 0.0
C2489 C 0.65711 0.42587 0.53546 0.0
C2490 C 0.64485 0.39871 0.51489 0.0
C2491 C 0.6477 0.412 0.54263 0.0
C2492 C 0.6459 0.36634 0.51379 0.0
C2493 C 0.64462 0.36769 0.47788 0.0
N2494 N 0.64242 0.39869 0.53238 0.0
N2495 N 0.64261 0.38234 0.4875 0.0
H2496 H 0.78288 0.87768 0.60018 0.0
H2497 H 0.6909 0.83122 0.60287 0.0
H2498 H 0.73353 0.904 0.60222 0.0
H2499 H 0.73565 0.81048 0.57631 0.0
H2500 H 0.70916 0.85392 0.61521 0.0
H2501 H 0.76782 0.84989 0.60363 0.0
C2502 C 0.76894 0.87767 0.60192 0.0
C2503 C 0.75936 0.89311 0.60061 0.0
C2504 C 0.71504 0.84407 0.60708 0.0
C2505 C 0.74222 0.8615 0.60471 0.0
C2506 C 0.70467 0.83104 0.60007 0.0
C2507 C 0.71165 0.81924 0.58804 0.0
C2508 C 0.73251 0.84519 0.60219 0.0
C2509 C 0.72964 0.81955 0.58518 0.0
C2510 C 0.76039 0.86181 0.60382 0.0
C2511 C 0.74134 0.89235 0.60289 0.0
N2512 N 0.73941 0.83259 0.5919 0.0
N2513 N 0.73332 0.87677 0.60464 0.0
H2514 H 0.24922 0.58244 0.41528 0.0
H2515 H 0.24747 0.67929 0.43367 0.0
H2516 H 0.29716 0.61085 0.41054 0.0
H2517 H 0.20651 0.65627 0.40317 0.0
H2518 H 0.26661 0.65536 0.42522 0.0
H2519 H 0.23315 0.60955 0.41124 0.0
C2520 C 0.25633 0.59436 0.41311 0.0
C2521 C 0.27448 0.59449 0.41329 0.0
C2522 C 0.25357 0.65587 0.42 0.0
C2523 C 0.2563 0.62547 0.40911 0.0
C2524 C 0.24265 0.66953 0.42478 0.0
C2525 C 0.22526 0.66963 0.4194 0.0
C2526 C 0.24686 0.6421 0.41018 0.0
C2527 C 0.21976 0.65665 0.40783 0.0
C2528 C 0.24719 0.60978 0.41071 0.0
C2529 C 0.28313 0.61026 0.41042 0.0
N2530 N 0.23035 0.64311 0.40404 0.0
N2531 N 0.27395 0.62525 0.40888 0.0
H2532 H 0.58323 0.95669 0.64711 0.0
H2533 H 0.64162 0.01842 0.69474 0.0
H2534 H 0.56068 0.99347 0.68285 0.0
H2535 H 0.64714 0.02113 0.6391 0.0
H2536 H 0.61341 0.00452 0.69096 0.0
H2537 H 0.60749 0.97675 0.64246 0.0
C2538 C 0.58299 0.96921 0.65347 0.0
C2539 C 0.57012 0.97316 0.66581 0.0
C2540 C 0.6208 0.00821 0.67959 0.0
C2541 C 0.59793 0.99572 0.66084 0.0
C2542 C 0.63696 0.0159 0.68172 0.0
C2543 C 0.64673 0.0208 0.6672 0.0
C2544 C 0.61454 0.00493 0.66284 0.0
C2545 C 0.63995 0.01747 0.65059 0.0
C2546 C 0.59688 0.98059 0.65084 0.0
C2547 C 0.57046 0.98966 0.67353 0.0
N2548 N 0.6243 0.00943 0.64882 0.0
N2549 N 0.58449 6e-05 0.67141 0.0
H2550 H 0.30186 0.34573 0.91418 0.0
H2551 H 0.20546 0.38255 0.9159 0.0
H2552 H 0.26186 0.32097 0.94456 0.0
H2553 H 0.25075 0.41494 0.92103 0.0
H2554 H 0.22437 0.35681 0.9155 0.0
H2555 H 0.28091 0.36773 0.90515 0.0
C2556 C 0.28855 0.34456 0.91853 0.0
C2557 C 0.28366 0.33162 0.93039 0.0
C2558 C 0.23009 0.3696 0.91635 0.0
C2559 C 0.25972 0.35668 0.91992 0.0
C2560 C 0.21939 0.38424 0.91651 0.0
C2561 C 0.22663 0.40081 0.91861 0.0
C2562 C 0.2481 0.3717 0.91776 0.0
C2563 C 0.24471 0.40236 0.91952 0.0
C2564 C 0.27668 0.3572 0.91344 0.0
C2565 C 0.26621 0.33084 0.93558 0.0
N2566 N 0.25486 0.38796 0.91907 0.0
N2567 N 0.25486 0.34334 0.93044 0.0
H2568 H 0.3657 0.46249 0.65254 0.0
H2569 H 0.40334 0.55855 0.65838 0.0
H2570 H 0.3343 0.50795 0.66133 0.0
H2571 H 0.42962 0.51462 0.68113 0.0
H2572 H 0.38092 0.53905 0.64743 0.0
H2573 H 0.39164 0.48101 0.65166 0.0
C2574 C 0.36423 0.47641 0.65382 0.0
C2575 C 0.34791 0.48375 0.65718 0.0
C2576 C 0.39186 0.53368 0.65444 0.0
C2577 C 0.37729 0.50482 0.65585 0.0
C2578 C 0.40474 0.54475 0.66061 0.0
C2579 C 0.41821 0.53825 0.67104 0.0
C2580 C 0.39262 0.51597 0.65843 0.0
C2581 C 0.41932 0.52022 0.6734 0.0
C2582 C 0.379 0.48689 0.65338 0.0
C2583 C 0.34669 0.5018 0.65888 0.0
N2584 N 0.40652 0.5097 0.66735 0.0
N2585 N 0.36121 0.51174 0.65825 0.0
H2586 H 0.75338 0.08179 0.08014 0.0
H2587 H 0.7592 0.1783 0.05857 0.0
H2588 H 0.70736 0.11303 0.08607 0.0
H2589 H 0.80056 0.15365 0.0872 0.0
H2590 H 0.73941 0.15541 0.06833 0.0
H2591 H 0.77108 0.1081 0.08209 0.0
C2592 C 0.74706 0.09418 0.08213 0.0
C2593 C 0.72895 0.09531 0.08292 0.0
C2594 C 0.75272 0.15533 0.07283 0.0
C2595 C 0.74898 0.12537 0.0847 0.0
C2596 C 0.76401 0.16838 0.06729 0.0
C2597 C 0.78163 0.16775 0.07184 0.0
C2598 C 0.75924 0.1414 0.08256 0.0
C2599 C 0.78713 0.1546 0.08322 0.0
C2600 C 0.75713 0.10914 0.08332 0.0
C2601 C 0.72133 0.11166 0.08548 0.0
N2602 N 0.7761 0.14166 0.08778 0.0
N2603 N 0.73137 0.12616 0.08586 0.0
H2604 H 0.63306 0.95997 0.83409 0.0
H2605 H 0.58963 0.0535 0.8415 0.0
H2606 H 0.66164 0.00781 0.8389 0.0
H2607 H 0.5686 0.01246 0.80972 0.0
H2608 H 0.61194 0.03357 0.85189 0.0
H2609 H 0.60586 0.97643 0.83617 0.0
C2610 C 0.63361 0.97386 0.83612 0.0
C2611 C 0.64958 0.98262 0.83613 0.0
C2612 C 0.60214 0.02885 0.84299 0.0
C2613 C 0.61868 0.00132 0.83871 0.0
C2614 C 0.58932 0.04017 0.8371 0.0
C2615 C 0.57744 0.03476 0.82438 0.0
C2616 C 0.60293 0.01196 0.83633 0.0
C2617 C 0.57768 0.01727 0.81929 0.0
C2618 C 0.61812 0.9832 0.83721 0.0
C2619 C 0.64959 0.00062 0.83864 0.0
N2620 N 0.59042 0.00653 0.82509 0.0
N2621 N 0.63435 0.00941 0.83973 0.0
H2622 H 0.83817 0.98726 0.34666 0.0
H2623 H 0.93669 0.98742 0.33773 0.0
H2624 H 0.86709 0.03413 0.35645 0.0
H2625 H 0.90913 0.94155 0.35422 0.0
H2626 H 0.91278 0.00518 0.34848 0.0
H2627 H 0.86426 0.9703 0.35259 0.0
C2628 C 0.84996 0.99394 0.35038 0.0
C2629 C 0.85057 0.01209 0.35084 0.0
C2630 C 0.91221 0.99125 0.35024 0.0
C2631 C 0.88055 0.99284 0.35729 0.0
C2632 C 0.92592 0.98108 0.34414 0.0
C2633 C 0.92465 0.96292 0.34449 0.0
C2634 C 0.89711 0.98314 0.35641 0.0
C2635 C 0.91047 0.95549 0.35321 0.0
C2636 C 0.86484 0.98427 0.35386 0.0
C2637 C 0.86612 0.02013 0.35586 0.0
N2638 N 0.89698 0.9656 0.35831 0.0
N2639 N 0.88065 0.01047 0.35845 0.0
H2640 H 0.4295 0.26633 0.18365 0.0
H2641 H 0.41161 0.26049 0.08629 0.0
H2642 H 0.4042 0.30866 0.15709 0.0
H2643 H 0.40443 0.2148 0.11773 0.0
H2644 H 0.40867 0.27845 0.11231 0.0
H2645 H 0.41967 0.24665 0.16074 0.0
C2646 C 0.42146 0.2714 0.1733 0.0
C2647 C 0.41798 0.28924 0.17213 0.0
C2648 C 0.40736 0.26451 0.11346 0.0
C2649 C 0.40716 0.26692 0.14574 0.0
C2650 C 0.40913 0.25429 0.09865 0.0
C2651 C 0.40833 0.23619 0.09993 0.0
C2652 C 0.40538 0.25653 0.12972 0.0
C2653 C 0.40508 0.22874 0.11624 0.0
C2654 C 0.41588 0.26016 0.16023 0.0
C2655 C 0.40741 0.29506 0.15844 0.0
N2656 N 0.40414 0.23893 0.13062 0.0
N2657 N 0.40281 0.28402 0.14551 0.0
H2658 H 0.44366 0.64781 0.91541 0.0
H2659 H 0.5356 0.65269 0.86893 0.0
H2660 H 0.48706 0.67711 0.93528 0.0
H2661 H 0.48642 0.64827 0.84259 0.0
H2662 H 0.52057 0.64966 0.89681 0.0
H2663 H 0.4625 0.63565 0.89309 0.0
C2664 C 0.45727 0.65128 0.91549 0.0
C2665 C 0.46365 0.66398 0.92691 0.0
C2666 C 0.51319 0.64885 0.88488 0.0
C2667 C 0.4852 0.65001 0.9014 0.0
C2668 C 0.52172 0.6505 0.86898 0.0
C2669 C 0.51216 0.651 0.85348 0.0
C2670 C 0.49506 0.64737 0.88518 0.0
C2671 C 0.49422 0.64819 0.85428 0.0
C2672 C 0.46798 0.64436 0.90267 0.0
C2673 C 0.48149 0.66768 0.9265 0.0
N2674 N 0.48621 0.64667 0.86989 0.0
N2675 N 0.49159 0.66101 0.91367 0.0
H2676 H 0.09262 0.68189 0.65485 0.0
H2677 H 0.10211 0.77678 0.61548 0.0
H2678 H 0.06881 0.72652 0.67895 0.0
H2679 H 0.09172 0.73135 0.58451 0.0
H2680 H 0.1015 0.75867 0.64169 0.0
H2681 H 0.10451 0.70077 0.63239 0.0
C2682 C 0.09034 0.69572 0.65579 0.0
C2683 C 0.07937 0.7026 0.66864 0.0
C2684 C 0.09976 0.75268 0.62909 0.0
C2685 C 0.09311 0.72414 0.64303 0.0
C2686 C 0.10018 0.76293 0.61416 0.0
C2687 C 0.09683 0.75551 0.59786 0.0
C2688 C 0.09646 0.73489 0.62758 0.0
C2689 C 0.09422 0.73756 0.59686 0.0
C2690 C 0.09707 0.70642 0.64288 0.0
C2691 C 0.07698 0.72064 0.66916 0.0
N2692 N 0.09405 0.72783 0.61156 0.0
N2693 N 0.08362 0.73081 0.65636 0.0
H2694 H 0.0594 0.33834 0.40496 0.0
H2695 H 0.96332 0.34063 0.36687 0.0
H2696 H 0.01631 0.3132 0.43044 0.0
H2697 H 0.00936 0.33449 0.33571 0.0
H2698 H 0.98162 0.34225 0.39296 0.0
H2699 H 0.03953 0.34919 0.3828 0.0
C2700 C 0.04569 0.33556 0.40626 0.0
C2701 C 0.03956 0.32449 0.41939 0.0
C2702 C 0.98766 0.34099 0.38033 0.0
C2703 C 0.01686 0.337 0.3941 0.0
C2704 C 0.97729 0.34014 0.36548 0.0
C2705 C 0.9849 0.33727 0.34919 0.0
C2706 C 0.00571 0.33941 0.37873 0.0
C2707 C 0.00303 0.33655 0.34807 0.0
C2708 C 0.0344 0.3417 0.39353 0.0
C2709 C 0.02163 0.32145 0.42039 0.0
N2710 N 0.01283 0.33755 0.36267 0.0
N2711 N 0.0109 0.32746 0.40773 0.0
H2712 H 0.40669 0.78579 0.38173 0.0
H2713 H 0.40774 0.68989 0.34334 0.0
H2714 H 0.41272 0.73979 0.41299 0.0
H2715 H 0.43468 0.73214 0.31832 0.0
H2716 H 0.39763 0.70997 0.36564 0.0
H2717 H 0.40565 0.76749 0.35561 0.0
C2718 C 0.40732 0.77182 0.38312 0.0
C2719 C 0.40992 0.76422 0.39947 0.0
C2720 C 0.40537 0.71488 0.35498 0.0
C2721 C 0.4084 0.74342 0.36989 0.0
C2722 C 0.41108 0.70348 0.34216 0.0
C2723 C 0.42239 0.70927 0.32909 0.0
C2724 C 0.41071 0.73223 0.35455 0.0
C2725 C 0.4262 0.72707 0.32829 0.0
C2726 C 0.4068 0.76146 0.36825 0.0
C2727 C 0.41084 0.74611 0.40059 0.0
N2728 N 0.42054 0.73792 0.34102 0.0
N2729 N 0.41011 0.7363 0.38597 0.0
H2730 H 0.97279 0.64635 0.13185 0.0
H2731 H 0.06866 0.65553 0.09445 0.0
H2732 H 0.01819 0.65523 0.16332 0.0
H2733 H 0.02386 0.67708 0.06861 0.0
H2734 H 0.04959 0.64308 0.11643 0.0
H2735 H 0.99129 0.64582 0.1059 0.0
C2736 C 0.9867 0.64767 0.13334 0.0
C2737 C 0.99401 0.65102 0.14968 0.0
C2738 C 0.04395 0.65014 0.10567 0.0
C2739 C 0.01507 0.65015 0.12027 0.0
C2740 C 0.05479 0.6572 0.09304 0.0
C2741 C 0.04788 0.66776 0.07987 0.0
C2742 C 0.02609 0.65341 0.10496 0.0
C2743 C 0.02977 0.6693 0.0787 0.0
C2744 C 0.99718 0.64743 0.11856 0.0
C2745 C 0.01206 0.65279 0.15092 0.0
N2746 N 0.01948 0.66243 0.09128 0.0
N2747 N 0.02199 0.65242 0.13637 0.0
H2748 H 0.07977 0.25777 0.91615 0.0
H2749 H 0.06128 0.26056 0.81914 0.0
H2750 H 0.08921 0.21141 0.8863 0.0
H2751 H 0.08799 0.30344 0.8433 0.0
H2752 H 0.07119 0.24169 0.84275 0.0
H2753 H 0.08204 0.27495 0.88949 0.0
C2754 C 0.0826 0.25127 0.90401 0.0
C2755 C 0.08427 0.2332 0.90335 0.0
C2756 C 0.07526 0.25513 0.84256 0.0
C2757 C 0.08642 0.2526 0.8729 0.0
C2758 C 0.06963 0.26589 0.8291 0.0
C2759 C 0.07356 0.28367 0.82938 0.0
C2760 C 0.08442 0.26235 0.85654 0.0
C2761 C 0.08448 0.28987 0.84261 0.0
C2762 C 0.08397 0.26104 0.88885 0.0
C2763 C 0.08791 0.22535 0.88731 0.0
N2764 N 0.08909 0.27934 0.85595 0.0
N2765 N 0.08844 0.23507 0.8726 0.0
H2766 H 0.54419 0.3345 0.63109 0.0
H2767 H 0.45044 0.34104 0.58816 0.0
H2768 H 0.49631 0.33272 0.65995 0.0
H2769 H 0.4916 0.31063 0.56536 0.0
H2770 H 0.47027 0.35005 0.61113 0.0
H2771 H 0.52741 0.33717 0.60408 0.0
C2772 C 0.53017 0.33517 0.63177 0.0
C2773 C 0.52155 0.33326 0.64769 0.0
C2774 C 0.47504 0.3418 0.6008 0.0
C2775 C 0.5025 0.33664 0.6171 0.0
C2776 C 0.46379 0.3367 0.5876 0.0
C2777 C 0.46926 0.32471 0.575 0.0
C2778 C 0.49193 0.33513 0.60122 0.0
C2779 C 0.48677 0.31965 0.57497 0.0
C2780 C 0.52067 0.33662 0.61639 0.0
C2781 C 0.5034 0.33402 0.64789 0.0
N2782 N 0.49746 0.32469 0.58808 0.0
N2783 N 0.49445 0.33561 0.6328 0.0
H2784 H 0.17543 0.44813 0.27321 0.0
H2785 H 0.07832 0.42754 0.25977 0.0
H2786 H 0.14638 0.4232 0.31408 0.0
H2787 H 0.11396 0.41506 0.21848 0.0
H2788 H 0.10288 0.42923 0.27996 0.0
H2789 H 0.15321 0.43881 0.25233 0.0
C2790 C 0.1646 0.44041 0.27772 0.0
C2791 C 0.16272 0.43649 0.2954 0.0
C2792 C 0.10526 0.42591 0.26651 0.0
C2793 C 0.13717 0.42637 0.27182 0.0
C2794 C 0.09131 0.42503 0.25502 0.0
C2795 C 0.09418 0.42113 0.23751 0.0
C2796 C 0.12219 0.42344 0.26029 0.0
C2797 C 0.11124 0.41799 0.23195 0.0
C2798 C 0.15196 0.43512 0.26584 0.0
C2799 C 0.14839 0.42649 0.30057 0.0
N2800 N 0.1247 0.41954 0.24325 0.0
N2801 N 0.13594 0.42212 0.2889 0.0
H2802 H 0.34428 0.33908 0.01045 0.0
H2803 H 0.33242 0.43739 0.00787 0.0
H2804 H 0.35093 0.3668 0.96232 0.0
H2805 H 0.35176 0.41161 0.05368 0.0
H2806 H 0.34289 0.4132 0.99031 0.0
H2807 H 0.35009 0.36585 0.02634 0.0
C2808 C 0.3473 0.35076 0.00325 0.0
C2809 C 0.34693 0.35081 0.98508 0.0
C2810 C 0.34533 0.4131 0.00414 0.0
C2811 C 0.3532 0.38158 0.00312 0.0
C2812 C 0.3394 0.42697 0.0142 0.0
C2813 C 0.34066 0.42628 0.03237 0.0
C2814 C 0.35227 0.3984 0.01238 0.0
C2815 C 0.35005 0.41251 0.03977 0.0
C2816 C 0.35071 0.36603 0.01231 0.0
C2817 C 0.35104 0.36626 0.97636 0.0
N2818 N 0.35499 0.39885 0.02982 0.0
N2819 N 0.35355 0.38117 0.98546 0.0
H2820 H 0.34534 0.58522 0.81528 0.0
H2821 H 0.38206 0.59195 0.71902 0.0
H2822 H 0.31793 0.56364 0.77144 0.0
H2823 H 0.41373 0.57964 0.76349 0.0
H2824 H 0.35647 0.59309 0.73798 0.0
H2825 H 0.368 0.59541 0.79565 0.0
C2826 C 0.34375 0.58311 0.80148 0.0
C2827 C 0.32986 0.57322 0.79502 0.0
C2828 C 0.36911 0.59052 0.74356 0.0
C2829 C 0.35571 0.585 0.77262 0.0
C2830 C 0.38368 0.58991 0.73283 0.0
C2831 C 0.39996 0.58555 0.73974 0.0
C2832 C 0.37098 0.58719 0.76133 0.0
C2833 C 0.40137 0.58289 0.75767 0.0
C2834 C 0.35677 0.58885 0.79034 0.0
C2835 C 0.32853 0.57098 0.77699 0.0
N2836 N 0.38702 0.58373 0.76787 0.0
N2837 N 0.34145 0.57663 0.76639 0.0
H2838 H 0.18944 0.56588 0.50531 0.0
H2839 H 0.16666 0.66194 0.5013 0.0
H2840 H 0.15867 0.58905 0.54598 0.0
H2841 H 0.16533 0.63214 0.45398 0.0
H2842 H 0.1631 0.63513 0.51792 0.0
H2843 H 0.17988 0.58886 0.48557 0.0
C2844 C 0.18029 0.57548 0.50996 0.0
C2845 C 0.17514 0.57572 0.52743 0.0
C2846 C 0.16317 0.63449 0.50388 0.0
C2847 C 0.16458 0.6022 0.50509 0.0
C2848 C 0.16527 0.64976 0.49443 0.0
C2849 C 0.16634 0.64917 0.4763 0.0
C2850 C 0.16278 0.6185 0.49516 0.0
C2851 C 0.1645 0.63309 0.46797 0.0
C2852 C 0.17485 0.58859 0.49868 0.0
C2853 C 0.16318 0.58844 0.53269 0.0
N2854 N 0.16326 0.61828 0.47749 0.0
N2855 N 0.15871 0.60147 0.52172 0.0
H2856 H 0.09319 0.53689 0.27069 0.0
H2857 H 0.15896 0.57586 0.2037 0.0
H2858 H 0.10159 0.59223 0.26972 0.0
H2859 H 0.167 0.52632 0.22859 0.0
H2860 H 0.13709 0.5829 0.22577 0.0
H2861 H 0.11852 0.533 0.2522 0.0
C2862 C 0.10028 0.54826 0.26645 0.0
C2863 C 0.09522 0.56492 0.27169 0.0
C2864 C 0.14393 0.57065 0.22652 0.0
C2865 C 0.12432 0.56051 0.25053 0.0
C2866 C 0.15645 0.56663 0.21399 0.0
C2867 C 0.16469 0.55036 0.21413 0.0
C2868 C 0.13946 0.55817 0.23899 0.0
C2869 C 0.1609 0.53894 0.22781 0.0
C2870 C 0.11485 0.546 0.25606 0.0
C2871 C 0.10506 0.57916 0.26594 0.0
N2872 N 0.14833 0.54292 0.23945 0.0
N2873 N 0.11909 0.57665 0.25549 0.0
H2874 H 0.1448 0.33777 0.98663 0.0
H2875 H 0.17071 0.43327 0.98857 0.0
H2876 H 0.14682 0.36549 0.03519 0.0
H2877 H 0.14366 0.41158 0.94459 0.0
H2878 H 0.15865 0.41035 0.00681 0.0
H2879 H 0.141 0.36531 0.97143 0.0
C2880 C 0.14402 0.34963 0.99412 0.0
C2881 C 0.14637 0.34939 0.01214 0.0
C2882 C 0.15494 0.41091 0.99327 0.0
C2883 C 0.14249 0.38097 0.99485 0.0
C2884 C 0.16181 0.42403 0.98284 0.0
C2885 C 0.15862 0.42407 0.96491 0.0
C2886 C 0.14513 0.3976 0.98561 0.0
C2887 C 0.14681 0.41187 0.95827 0.0
C2888 C 0.1418 0.36536 0.98546 0.0
C2889 C 0.14516 0.36512 0.02125 0.0
N2890 N 0.14092 0.39881 0.96851 0.0
N2891 N 0.14379 0.38035 0.01246 0.0
H2892 H 0.31676 0.43047 0.73094 0.0
H2893 H 0.41316 0.40823 0.73532 0.0
H2894 H 0.34132 0.4042 0.68798 0.0
H2895 H 0.38203 0.40043 0.78114 0.0
H2896 H 0.3868 0.40704 0.71762 0.0
H2897 H 0.33953 0.41939 0.75016 0.0
C2898 C 0.32662 0.42199 0.72563 0.0
C2899 C 0.32729 0.41855 0.70775 0.0
C2900 C 0.38578 0.40521 0.73151 0.0
C2901 C 0.35352 0.4063 0.72953 0.0
C2902 C 0.40078 0.40596 0.74159 0.0
C2903 C 0.3997 0.40446 0.75966 0.0
C2904 C 0.36957 0.40356 0.73964 0.0
C2905 C 0.38337 0.40157 0.7672 0.0
C2906 C 0.33961 0.41569 0.7366 0.0
C2907 C 0.34036 0.4074 0.70163 0.0
N2908 N 0.36884 0.40164 0.75719 0.0
N2909 N 0.35324 0.40209 0.7124 0.0
H2910 H 0.33892 0.66096 0.49103 0.0
H2911 H 0.35213 0.58437 0.4487 0.0
H2912 H 0.3453 0.63247 0.53876 0.0
H2913 H 0.32017 0.566 0.49088 0.0
H2914 H 0.36118 0.60882 0.46668 0.0
H2915 H 0.34312 0.63401 0.47479 0.0
C2916 C 0.34156 0.64908 0.49805 0.0
C2917 C 0.34177 0.64888 0.51621 0.0
C2918 C 0.35249 0.59919 0.47208 0.0
C2919 C 0.34639 0.61807 0.49782 0.0
C2920 C 0.34742 0.58511 0.46192 0.0
C2921 C 0.33493 0.57337 0.46811 0.0
C2922 C 0.34516 0.60138 0.48857 0.0
C2923 C 0.32951 0.57495 0.48544 0.0
C2924 C 0.34411 0.63375 0.4888 0.0
C2925 C 0.34515 0.63314 0.52473 0.0
N2926 N 0.33444 0.58892 0.495 0.0
N2927 N 0.34686 0.61823 0.51546 0.0
H2928 H 0.28992 0.16676 0.4095 0.0
H2929 H 0.23564 0.09749 0.45384 0.0
H2930 H 0.26089 0.17892 0.45586 0.0
H2931 H 0.22602 0.10312 0.39897 0.0
H2932 H 0.24942 0.12592 0.45408 0.0
H2933 H 0.26957 0.14301 0.40352 0.0
C2934 C 0.27898 0.16486 0.41811 0.0
C2935 C 0.2774 0.17459 0.43347 0.0
C2936 C 0.24427 0.12094 0.44199 0.0
C2937 C 0.25454 0.14733 0.42686 0.0
C2938 C 0.23662 0.10463 0.44178 0.0
C2939 C 0.2298 0.09791 0.42633 0.0
C2940 C 0.24555 0.13047 0.42658 0.0
C2941 C 0.23119 0.10789 0.41113 0.0
C2942 C 0.26744 0.15128 0.41468 0.0
C2943 C 0.26288 0.17157 0.44406 0.0
N2944 N 0.23919 0.12366 0.41154 0.0
N2945 N 0.25234 0.15787 0.44085 0.0
H2946 H 0.79437 0.33649 0.58392 0.0
H2947 H 0.73094 0.40158 0.54092 0.0
H2948 H 0.76766 0.32456 0.53613 0.0
H2949 H 0.72891 0.39617 0.59661 0.0
H2950 H 0.7477 0.37484 0.5392 0.0
H2951 H 0.7726 0.35893 0.58996 0.0
C2952 C 0.78371 0.33822 0.57494 0.0
C2953 C 0.78307 0.32884 0.5593 0.0
C2954 C 0.74354 0.37947 0.5518 0.0
C2955 C 0.75857 0.35468 0.56596 0.0
C2956 C 0.73417 0.39484 0.55282 0.0
C2957 C 0.72863 0.40115 0.56894 0.0
C2958 C 0.7478 0.37049 0.56704 0.0
C2959 C 0.73299 0.39172 0.58393 0.0
C2960 C 0.77135 0.35107 0.57838 0.0
C2961 C 0.7689 0.33162 0.5482 0.0
N2962 N 0.74256 0.37691 0.58266 0.0
N2963 N 0.75747 0.34458 0.55153 0.0
H2964 H 0.36415 0.96101 0.34408 0.0
H2965 H 0.43168 0.01325 0.31535 0.0
H2966 H 0.33625 0.00829 0.33318 0.0
H2967 H 0.40498 0.05483 0.34171 0.0
H2968 H 0.4095 0.99305 0.32564 0.0
H2969 H 0.39109 0.97786 0.34642 0.0
C2970 C 0.36364 0.97497 0.34256 0.0
C2971 C 0.34803 0.98329 0.33817 0.0
C2972 C 0.40886 0.00647 0.32969 0.0
C2973 C 0.37861 0.00247 0.34086 0.0
C2974 C 0.42151 0.01803 0.32378 0.0
C2975 C 0.42005 0.03581 0.32742 0.0
C2976 C 0.39455 0.01286 0.33899 0.0
C2977 C 0.40657 0.04127 0.33842 0.0
C2978 C 0.37901 0.98451 0.34377 0.0
C2979 C 0.34806 0.00137 0.33632 0.0
N2980 N 0.39403 0.02994 0.34334 0.0
N2981 N 0.36315 0.01036 0.33762 0.0
H2982 H 0.73276 0.68168 0.05749 0.0
H2983 H 0.73925 0.58523 0.07983 0.0
H2984 H 0.69145 0.65719 0.0863 0.0
H2985 H 0.78468 0.61698 0.08737 0.0
H2986 H 0.72124 0.61143 0.08064 0.0
H2987 H 0.75255 0.65873 0.06724 0.0
C2988 C 0.72796 0.67177 0.06622 0.0
C2989 C 0.71038 0.67124 0.07091 0.0
C2990 C 0.73513 0.6126 0.08244 0.0
C2991 C 0.73272 0.64483 0.08158 0.0
C2992 C 0.74537 0.59771 0.0819 0.0
C2993 C 0.76341 0.59902 0.08354 0.0
C2994 C 0.74306 0.62891 0.08402 0.0
C2995 C 0.77077 0.61547 0.08616 0.0
C2996 C 0.73924 0.6587 0.07175 0.0
C2997 C 0.70487 0.65808 0.08226 0.0
N2998 N 0.76059 0.62988 0.08592 0.0
N2999 N 0.71588 0.64513 0.08682 0.0
H3000 H 0.65636 0.48676 0.34833 0.0
H3001 H 0.56128 0.49051 0.32052 0.0
H3002 H 0.63007 0.53602 0.34481 0.0
H3003 H 0.58124 0.44689 0.34943 0.0
H3004 H 0.58462 0.50845 0.33226 0.0
H3005 H 0.62831 0.4724 0.35163 0.0
C3006 C 0.64468 0.49458 0.34866 0.0
C3007 C 0.64549 0.51255 0.3461 0.0
C3008 C 0.58358 0.49507 0.33643 0.0
C3009 C 0.61335 0.49621 0.34939 0.0
C3010 C 0.57021 0.48482 0.32974 0.0
C3011 C 0.56956 0.46703 0.33358 0.0
C3012 C 0.5965 0.48737 0.34671 0.0
C3013 C 0.58142 0.46045 0.34578 0.0
C3014 C 0.62867 0.4864 0.35059 0.0
C3015 C 0.62999 0.5221 0.3467 0.0
N3016 N 0.59471 0.47048 0.3515 0.0
N3017 N 0.61449 0.51376 0.3478 0.0
H3018 H 0.20015 0.83808 0.90185 0.0
H3019 H 0.2932 0.88247 0.9072 0.0
H3020 H 0.2418 0.81631 0.93234 0.0
H3021 H 0.2449 0.91054 0.91026 0.0
H3022 H 0.2768 0.85523 0.90457 0.0
H3023 H 0.21959 0.86122 0.89243 0.0
C3024 C 0.21353 0.83776 0.9061 0.0
C3025 C 0.21925 0.82543 0.91826 0.0
C3026 C 0.26988 0.86743 0.90538 0.0
C3027 C 0.24146 0.85181 0.90735 0.0
C3028 C 0.27916 0.88293 0.90682 0.0
C3029 C 0.27032 0.89868 0.90909 0.0
C3030 C 0.25171 0.86786 0.90573 0.0
C3031 C 0.25216 0.89861 0.90868 0.0
C3032 C 0.22455 0.85106 0.90077 0.0
C3033 C 0.23678 0.82571 0.9232 0.0
N3034 N 0.24342 0.8834 0.90709 0.0
N3035 N 0.24724 0.8389 0.91793 0.0
H3036 H 0.40842 0.94453 0.1517 0.0
H3037 H 0.3648 0.03813 0.15452 0.0
H3038 H 0.43028 0.98689 0.18111 0.0
H3039 H 0.33632 0.99006 0.15699 0.0
H3040 H 0.39197 0.02152 0.15259 0.0
H3041 H 0.38565 0.96393 0.14132 0.0
C3042 C 0.40883 0.95804 0.15553 0.0
C3043 C 0.42106 0.96399 0.16767 0.0
C3044 C 0.37971 0.01469 0.15312 0.0
C3045 C 0.39508 0.98616 0.15568 0.0
C3046 C 0.36424 0.02409 0.15415 0.0
C3047 C 0.34837 0.01538 0.15607 0.0
C3048 C 0.37915 0.99653 0.15354 0.0
C3049 C 0.34832 0.99722 0.15569 0.0
C3050 C 0.39575 0.96905 0.14965 0.0
C3051 C 0.42094 0.98169 0.17202 0.0
N3052 N 0.36351 0.98837 0.15452 0.0
N3053 N 0.40794 0.99212 0.16624 0.0
H3054 H 0.06251 0.01065 0.67862 0.0
H3055 H 0.15759 0.01285 0.65115 0.0
H3056 H 0.08328 0.05443 0.65054 0.0
H3057 H 0.13013 0.96415 0.65257 0.0
H3058 H 0.1299 0.02801 0.6483 0.0
H3059 H 0.08549 0.99249 0.66648 0.0
C3060 C 0.07155 0.01634 0.66951 0.0
C3061 C 0.07124 0.03421 0.66601 0.0
C3062 C 0.12993 0.01397 0.64878 0.0
C3063 C 0.09775 0.01361 0.65243 0.0
C3064 C 0.14574 0.00534 0.65046 0.0
C3065 C 0.1461 0.98727 0.6523 0.0
C3066 C 0.11438 0.00449 0.6495 0.0
C3067 C 0.13038 0.97812 0.65125 0.0
C3068 C 0.0847 0.00596 0.66258 0.0
C3069 C 0.08321 0.0408 0.65394 0.0
N3070 N 0.11509 0.98687 0.65041 0.0
N3071 N 0.09629 0.03063 0.64799 0.0
H3072 H 0.07224 0.09409 0.34547 0.0
H3073 H 0.17525 0.0866 0.35566 0.0
H3074 H 0.10859 0.12637 0.31768 0.0
H3075 H 0.13858 0.06583 0.39254 0.0
H3076 H 0.15099 0.09653 0.33772 0.0
H3077 H 0.09661 0.07873 0.35876 0.0
C3078 C 0.08533 0.09779 0.34198 0.0
C3079 C 0.0884 0.11167 0.33064 0.0
C3080 C 0.1483 0.08968 0.34968 0.0
C3081 C 0.11627 0.09421 0.34578 0.0
C3082 C 0.16212 0.08399 0.3599 0.0
C3083 C 0.15891 0.07558 0.37571 0.0
C3084 C 0.1312 0.08678 0.35526 0.0
C3085 C 0.14164 0.07247 0.38055 0.0
C3086 C 0.09922 0.08907 0.34962 0.0
C3087 C 0.10564 0.11588 0.32653 0.0
N3088 N 0.12843 0.07814 0.3704 0.0
N3089 N 0.11894 0.10726 0.3342 0.0
H3090 H 0.1304 0.86342 0.55221 0.0
H3091 H 0.17326 0.89203 0.64174 0.0
H3092 H 0.13985 0.82851 0.59498 0.0
H3093 H 0.16985 0.92585 0.59722 0.0
H3094 H 0.16287 0.86808 0.62394 0.0
H3095 H 0.14676 0.88591 0.56745 0.0
C3096 C 0.13607 0.86041 0.5647 0.0
C3097 C 0.13356 0.84414 0.57243 0.0
C3098 C 0.16452 0.8807 0.618 0.0
C3099 C 0.15216 0.8698 0.58997 0.0
C3100 C 0.17042 0.8944 0.62818 0.0
C3101 C 0.17224 0.911 0.62099 0.0
C3102 C 0.16025 0.88364 0.60053 0.0
C3103 C 0.16853 0.91327 0.60331 0.0
C3104 C 0.1454 0.87326 0.5734 0.0
C3105 C 0.14129 0.84093 0.5886 0.0
N3106 N 0.16253 0.89977 0.59372 0.0
N3107 N 0.15008 0.8537 0.5969 0.0
H3108 H 0.36231 0.93689 0.88399 0.0
H3109 H 0.39585 0.86672 0.81738 0.0
H3110 H 0.3279 0.90841 0.85023 0.0
H3111 H 0.42938 0.90554 0.83981 0.0
H3112 H 0.37071 0.88257 0.82827 0.0
H3113 H 0.38699 0.92651 0.8671 0.0
C3114 C 0.35994 0.92858 0.87291 0.0
C3115 C 0.34306 0.92332 0.86862 0.0
C3116 C 0.38355 0.88776 0.83062 0.0
C3117 C 0.37124 0.91128 0.84935 0.0
C3118 C 0.39791 0.87868 0.82446 0.0
C3119 C 0.41473 0.88473 0.82789 0.0
C3120 C 0.38603 0.90283 0.84051 0.0
C3121 C 0.41664 0.90038 0.83696 0.0
C3122 C 0.37403 0.92271 0.86324 0.0
C3123 C 0.34072 0.9127 0.85404 0.0
N3124 N 0.40245 0.90877 0.84319 0.0
N3125 N 0.35469 0.9068 0.84507 0.0
H3126 H 0.34696 0.17735 0.09283 0.0
H3127 H 0.33766 0.07409 0.09644 0.0
H3128 H 0.38194 0.14186 0.06728 0.0
H3129 H 0.31362 0.10884 0.13321 0.0
H3130 H 0.34897 0.09921 0.08068 0.0
H3131 H 0.32973 0.15259 0.10278 0.0
C3132 C 0.35089 0.16438 0.08913 0.0
C3133 C 0.36603 0.16161 0.07944 0.0
C3134 C 0.34106 0.1013 0.0921 0.0
C3135 C 0.34642 0.13336 0.09069 0.0
C3136 C 0.33456 0.087 0.10106 0.0
C3137 C 0.32492 0.0894 0.11629 0.0
C3138 C 0.33777 0.11809 0.09836 0.0
C3139 C 0.32123 0.1064 0.12166 0.0
C3140 C 0.34109 0.15028 0.09485 0.0
C3141 C 0.3705 0.14455 0.07496 0.0
N3142 N 0.32776 0.12011 0.11277 0.0
N3143 N 0.36079 0.13105 0.08071 0.0
H3144 H 0.13557 0.93348 0.10452 0.0
H3145 H 0.10265 0.87478 0.18204 0.0
H3146 H 0.16965 0.91369 0.14431 0.0
H3147 H 0.06812 0.90463 0.14958 0.0
H3148 H 0.12728 0.89019 0.16951 0.0
H3149 H 0.11065 0.92432 0.12171 0.0
C3150 C 0.1378 0.92731 0.11695 0.0
C3151 C 0.1547 0.92413 0.12291 0.0
C3152 C 0.11431 0.89354 0.16528 0.0
C3153 C 0.12623 0.91354 0.1426 0.0
C3154 C 0.10024 0.88472 0.17239 0.0
C3155 C 0.08333 0.88828 0.16666 0.0
C3156 C 0.11148 0.90584 0.15217 0.0
C3157 C 0.08095 0.9014 0.15429 0.0
C3158 C 0.12356 0.92216 0.12679 0.0
C3159 C 0.15684 0.91629 0.13918 0.0
N3160 N 0.09491 0.90954 0.14726 0.0
N3161 N 0.14275 0.91104 0.14838 0.0
H3162 H 0.34736 0.82149 0.40379 0.0
H3163 H 0.33684 0.9246 0.39907 0.0
H3164 H 0.38005 0.85753 0.4315 0.0
H3165 H 0.31491 0.88926 0.36158 0.0
H3166 H 0.34777 0.89976 0.41553 0.0
H3167 H 0.33042 0.84596 0.39272 0.0
C3168 C 0.35084 0.83452 0.40772 0.0
C3169 C 0.36528 0.83752 0.41837 0.0
C3170 C 0.34041 0.89747 0.40379 0.0
C3171 C 0.34599 0.86547 0.40581 0.0
C3172 C 0.33413 0.91163 0.39442 0.0
C3173 C 0.32518 0.90898 0.37881 0.0
C3174 C 0.33759 0.88059 0.39754 0.0
C3175 C 0.32197 0.89189 0.37342 0.0
C3176 C 0.3412 0.84846 0.40136 0.0
C3177 C 0.36916 0.85466 0.42311 0.0
N3178 N 0.32828 0.87834 0.38272 0.0
N3179 N 0.35964 0.868 0.4167 0.0
H3180 H 0.42598 0.09711 0.65766 0.0
H3181 H 0.32309 0.08739 0.6489 0.0
H3182 H 0.38922 0.13278 0.68031 0.0
H3183 H 0.35971 0.06383 0.61367 0.0
H3184 H 0.34736 0.09888 0.66584 0.0
H3185 H 0.40176 0.07967 0.64678 0.0
C3186 C 0.41283 0.10115 0.66054 0.0
C3187 C 0.40957 0.11654 0.66967 0.0
C3188 C 0.35004 0.09102 0.65451 0.0
C3189 C 0.38194 0.09668 0.65738 0.0
C3190 C 0.33622 0.08442 0.64488 0.0
C3191 C 0.33942 0.07488 0.62972 0.0
C3192 C 0.36712 0.0879 0.64901 0.0
C3193 C 0.35668 0.07136 0.62513 0.0
C3194 C 0.39905 0.09123 0.6543 0.0
C3195 C 0.39229 0.12113 0.6731 0.0
N3196 N 0.3699 0.07797 0.63468 0.0
N3197 N 0.37911 0.11129 0.66686 0.0
H3198 H 0.15701 0.07905 0.89052 0.0
H3199 H 0.14847 0.18039 0.90998 0.0
H3200 H 0.18745 0.11804 0.86426 0.0
H3201 H 0.11515 0.14092 0.93159 0.0
H3202 H 0.16628 0.15761 0.8968 0.0
H3203 H 0.14506 0.10141 0.9093 0.0
C3204 C 0.16128 0.09232 0.88877 0.0
C3205 C 0.17304 0.09673 0.87562 0.0
C3206 C 0.15517 0.15396 0.90459 0.0
C3207 C 0.1593 0.12247 0.89707 0.0
C3208 C 0.14504 0.16694 0.91215 0.0
C3209 C 0.13017 0.16253 0.92167 0.0
C3210 C 0.1504 0.13651 0.90666 0.0
C3211 C 0.12636 0.14492 0.92413 0.0
C3212 C 0.15445 0.1051 0.89953 0.0
C3213 C 0.17829 0.1141 0.87414 0.0
N3214 N 0.13632 0.13257 0.91656 0.0
N3215 N 0.17122 0.1264 0.88461 0.0
H3216 H 0.05105 0.36561 0.13753 0.0
H3217 H 0.14263 0.32804 0.10762 0.0
H3218 H 0.09759 0.36837 0.16858 0.0
H3219 H 0.0956 0.32223 0.07778 0.0
H3220 H 0.12568 0.34031 0.13135 0.0
H3221 H 0.06638 0.34716 0.11683 0.0
C3222 C 0.06443 0.36219 0.1401 0.0
C3223 C 0.07312 0.36873 0.15469 0.0
C3224 C 0.11903 0.33621 0.11968 0.0
C3225 C 0.09076 0.34772 0.13101 0.0
C3226 C 0.12871 0.32922 0.10611 0.0
C3227 C 0.12054 0.32429 0.09061 0.0
C3228 C 0.10105 0.33843 0.1177 0.0
C3229 C 0.10245 0.32597 0.08944 0.0
C3230 C 0.07318 0.35165 0.12827 0.0
C3231 C 0.09042 0.36377 0.15742 0.0
N3232 N 0.09333 0.33308 0.10274 0.0
N3233 N 0.09872 0.35371 0.14559 0.0
H3234 H 0.59402 0.15838 0.92569 0.0
H3235 H 0.58555 0.15128 0.82256 0.0
H3236 H 0.62872 0.18366 0.88974 0.0
H3237 H 0.56387 0.11403 0.85831 0.0
H3238 H 0.5958 0.16842 0.84726 0.0
H3239 H 0.57724 0.14731 0.9011 0.0
C3240 C 0.59795 0.16182 0.91265 0.0
C3241 C 0.61292 0.17171 0.90971 0.0
C3242 C 0.58862 0.15659 0.84965 0.0
C3243 C 0.59383 0.15918 0.88166 0.0
C3244 C 0.58274 0.14684 0.83559 0.0
C3245 C 0.5741 0.13109 0.83842 0.0
C3246 C 0.58567 0.15061 0.8666 0.0
C3247 C 0.57073 0.12597 0.85556 0.0
C3248 C 0.58842 0.15545 0.89865 0.0
C3249 C 0.6174 0.17584 0.89256 0.0
N3250 N 0.57663 0.13565 0.86902 0.0
N3251 N 0.60796 0.16945 0.87915 0.0
H3252 H 0.944 0.88583 0.37454 0.0
H3253 H 0.86381 0.82228 0.39034 0.0
H3254 H 0.90775 0.87022 0.3348 0.0
H3255 H 0.89657 0.84129 0.4316 0.0
H3256 H 0.88258 0.83637 0.36927 0.0
H3257 H 0.92958 0.86628 0.39492 0.0
C3258 C 0.93314 0.87815 0.37004 0.0
C3259 C 0.92693 0.87981 0.353 0.0
C3260 C 0.88576 0.83738 0.38291 0.0
C3261 C 0.91038 0.85748 0.37625 0.0
C3262 C 0.87503 0.82933 0.39499 0.0
C3263 C 0.87849 0.83081 0.4128 0.0
C3264 C 0.90005 0.84708 0.38865 0.0
C3265 C 0.89335 0.83994 0.418 0.0
C3266 C 0.9249 0.86702 0.3817 0.0
C3267 C 0.91286 0.8695 0.34786 0.0
N3268 N 0.90351 0.84789 0.40598 0.0
N3269 N 0.90499 0.85888 0.35948 0.0
H3270 H 0.89925 0.14454 0.1757 0.0
H3271 H 0.89909 0.1623 0.07342 0.0
H3272 H 0.93299 0.11851 0.13935 0.0
H3273 H 0.85789 0.17803 0.10795 0.0
H3274 H 0.9153 0.1513 0.0984 0.0
H3275 H 0.88769 0.16202 0.15184 0.0
C3276 C 0.90439 0.14266 0.16276 0.0
C3277 C 0.91691 0.12988 0.15945 0.0
C3278 C 0.90278 0.15732 0.1005 0.0
C3279 C 0.90378 0.14979 0.13218 0.0
C3280 C 0.89354 0.16363 0.08626 0.0
C3281 C 0.87701 0.17085 0.0886 0.0
C3282 C 0.89546 0.15834 0.11716 0.0
C3283 C 0.87049 0.17233 0.10554 0.0
C3284 C 0.89775 0.1526 0.14915 0.0
C3285 C 0.92316 0.12805 0.14244 0.0
N3286 N 0.87968 0.16601 0.11916 0.0
N3287 N 0.91644 0.1378 0.12942 0.0
H3288 H 0.40753 0.63354 0.6698 0.0
H3289 H 0.40362 0.66481 0.57113 0.0
H3290 H 0.44442 0.6174 0.63086 0.0
H3291 H 0.3644 0.67596 0.60953 0.0
H3292 H 0.42143 0.65141 0.59376 0.0
H3293 H 0.3944 0.65315 0.64883 0.0
C3294 C 0.41296 0.63421 0.65686 0.0
C3295 C 0.42693 0.62362 0.65199 0.0
C3296 C 0.409 0.65696 0.59724 0.0
C3297 C 0.41187 0.64602 0.62785 0.0
C3298 C 0.39885 0.66464 0.58435 0.0
C3299 C 0.3824 0.67128 0.58842 0.0
C3300 C 0.40264 0.65599 0.61428 0.0
C3301 C 0.3769 0.67079 0.60576 0.0
C3302 C 0.40545 0.64543 0.64488 0.0
C3303 C 0.43356 0.62522 0.63511 0.0
N3304 N 0.38694 0.66314 0.61801 0.0
N3305 N 0.42584 0.63607 0.62356 0.0
H3306 H 0.11224 0.63725 0.31608 0.0
H3307 H 0.10606 0.67463 0.41262 0.0
H3308 H 0.06925 0.62783 0.35072 0.0
H3309 H 0.15224 0.6767 0.38099 0.0
H3310 H 0.09015 0.66269 0.3879 0.0
H3311 H 0.12468 0.65701 0.33755 0.0
C3312 C 0.10529 0.63952 0.32808 0.0
C3313 C 0.08984 0.63065 0.33175 0.0
C3314 C 0.10372 0.66593 0.38634 0.0
C3315 C 0.10401 0.65315 0.35635 0.0
C3316 C 0.1128 0.67278 0.40043 0.0
C3317 C 0.13056 0.67639 0.39894 0.0
C3318 C 0.11248 0.66274 0.37067 0.0
C3319 C 0.13861 0.67385 0.3828 0.0
C3320 C 0.11242 0.65076 0.34035 0.0
C3321 C 0.08133 0.63418 0.34746 0.0
N3322 N 0.12955 0.66703 0.36934 0.0
N3323 N 0.08862 0.64502 0.35926 0.0
H3324 H 0.43446 0.37195 0.85192 0.0
H3325 H 0.35747 0.31552 0.88927 0.0
H3326 H 0.39798 0.34483 0.81922 0.0
H3327 H 0.40092 0.33211 0.92045 0.0
H3328 H 0.37304 0.32455 0.86326 0.0
H3329 H 0.42355 0.35593 0.87692 0.0
C3330 C 0.42426 0.36247 0.84997 0.0
C3331 C 0.41693 0.35988 0.83352 0.0
C3332 C 0.37927 0.32602 0.87576 0.0
C3333 C 0.40429 0.34163 0.8621 0.0
C3334 C 0.37036 0.32093 0.89063 0.0
C3335 C 0.37783 0.3233 0.90706 0.0
C3336 C 0.39567 0.33376 0.87734 0.0
C3337 C 0.39464 0.33017 0.90805 0.0
C3338 C 0.41808 0.3533 0.86425 0.0
C3339 C 0.40392 0.34731 0.83171 0.0
N3340 N 0.4029 0.3354 0.89339 0.0
N3341 N 0.39781 0.33883 0.84589 0.0
H3342 H 0.88666 0.87605 0.69301 0.0
H3343 H 0.8544 0.91927 0.60479 0.0
H3344 H 0.91809 0.88032 0.64683 0.0
H3345 H 0.82378 0.91848 0.65168 0.0
H3346 H 0.87888 0.90749 0.62095 0.0
H3347 H 0.86452 0.89403 0.67915 0.0
C3348 C 0.88899 0.88091 0.68003 0.0
C3349 C 0.90415 0.87649 0.67098 0.0
C3350 C 0.86687 0.91003 0.62777 0.0
C3351 C 0.87886 0.89697 0.65504 0.0
C3352 C 0.85287 0.91674 0.61853 0.0
C3353 C 0.83696 0.91966 0.62686 0.0
C3354 C 0.86493 0.90606 0.64544 0.0
C3355 C 0.83577 0.91631 0.64472 0.0
C3356 C 0.87634 0.89117 0.67213 0.0
C3357 C 0.90652 0.88324 0.65424 0.0
N3358 N 0.84952 0.90949 0.65339 0.0
N3359 N 0.89394 0.893 0.64676 0.0
H3360 H 0.83769 0.07329 0.40589 0.0
H3361 H 0.85249 0.17587 0.40904 0.0
H3362 H 0.82007 0.10851 0.36607 0.0
H3363 H 0.8837 0.13902 0.43739 0.0
H3364 H 0.83482 0.15189 0.39804 0.0
H3365 H 0.84891 0.09804 0.42231 0.0
C3366 C 0.83596 0.08624 0.40072 0.0
C3367 C 0.82817 0.08886 0.38449 0.0
C3368 C 0.84543 0.14911 0.40683 0.0
C3369 C 0.84087 0.11712 0.40318 0.0
C3370 C 0.85546 0.16277 0.41315 0.0
C3371 C 0.86972 0.15938 0.42393 0.0
C3372 C 0.8496 0.13201 0.41148 0.0
C3373 C 0.87297 0.14217 0.4289 0.0
C3374 C 0.84241 0.10033 0.41006 0.0
C3375 C 0.82623 0.10591 0.37842 0.0
N3376 N 0.86305 0.1291 0.42254 0.0
N3377 N 0.83264 0.1194 0.38773 0.0
H3378 H 0.67372 0.08767 0.14701 0.0
H3379 H 0.57116 0.0978 0.15895 0.0
H3380 H 0.63584 0.06435 0.113 0.0
H3381 H 0.60882 0.13185 0.18257 0.0
H3382 H 0.5949 0.08056 0.14685 0.0
H3383 H 0.65009 0.09907 0.1649 0.0
C3384 C 0.66046 0.08476 0.14343 0.0
C3385 C 0.65672 0.07527 0.12837 0.0
C3386 C 0.59793 0.09171 0.15484 0.0
C3387 C 0.62971 0.0882 0.14874 0.0
C3388 C 0.5844 0.10151 0.16179 0.0
C3389 C 0.58803 0.11642 0.17156 0.0
C3390 C 0.61517 0.09679 0.1578 0.0
C3391 C 0.60544 0.12059 0.17489 0.0
C3392 C 0.64699 0.0913 0.15361 0.0
C3393 C 0.63929 0.07182 0.12437 0.0
N3394 N 0.61837 0.1109 0.16792 0.0
N3395 N 0.62643 0.07838 0.13444 0.0
H3396 H 0.62836 0.85343 0.9301 0.0
H3397 H 0.67439 0.8867 0.84391 0.0
H3398 H 0.63394 0.82226 0.8839 0.0
H3399 H 0.67282 0.91616 0.89152 0.0
H3400 H 0.66209 0.8619 0.8592 0.0
H3401 H 0.64716 0.87535 0.91721 0.0
C3402 C 0.63369 0.8511 0.91731 0.0
C3403 C 0.62938 0.83609 0.90796 0.0
C3404 C 0.66459 0.87373 0.86636 0.0
C3405 C 0.65082 0.86121 0.89307 0.0
C3406 C 0.67158 0.88792 0.85762 0.0
C3407 C 0.67443 0.9036 0.86641 0.0
C3408 C 0.66026 0.87526 0.88398 0.0
C3409 C 0.67071 0.90436 0.8842 0.0
C3410 C 0.64444 0.86363 0.90995 0.0
C3411 C 0.6368 0.8337 0.89151 0.0
N3412 N 0.66363 0.89044 0.89237 0.0
N3413 N 0.64699 0.84624 0.88451 0.0
H3414 H 0.82987 0.08517 0.8644 0.0
H3415 H 0.92943 0.09273 0.83682 0.0
H3416 H 0.86983 0.05092 0.88359 0.0
H3417 H 0.88978 0.12989 0.82325 0.0
H3418 H 0.90714 0.07435 0.85001 0.0
H3419 H 0.85101 0.09861 0.8452 0.0
C3420 C 0.84308 0.08037 0.86448 0.0
C3421 C 0.84816 0.06707 0.87582 0.0
C3422 C 0.90333 0.08645 0.84399 0.0
C3423 C 0.87249 0.08251 0.8539 0.0
C3424 C 0.91602 0.09693 0.83643 0.0
C3425 C 0.91147 0.11297 0.82915 0.0
C3426 C 0.886 0.09207 0.84418 0.0
C3427 C 0.89391 0.11773 0.82893 0.0
C3428 C 0.85515 0.08807 0.8535 0.0
C3429 C 0.86539 0.06125 0.87518 0.0
N3430 N 0.88185 0.10739 0.83645 0.0
N3431 N 0.87702 0.06914 0.86453 0.0
H3432 H 0.65054 0.17151 0.58137 0.0
H3433 H 0.65728 0.06952 0.59882 0.0
H3434 H 0.61311 0.13418 0.5629 0.0
H3435 H 0.6837 0.10832 0.62935 0.0
H3436 H 0.64605 0.09252 0.58 0.0
H3437 H 0.6678 0.14772 0.59335 0.0
C3438 C 0.64608 0.15831 0.5796 0.0
C3439 C 0.63024 0.15481 0.57138 0.0
C3440 C 0.65448 0.09594 0.59071 0.0
C3441 C 0.64988 0.12764 0.585 0.0
C3442 C 0.66093 0.08284 0.60141 0.0
C3443 C 0.6712 0.08707 0.61581 0.0
C3444 C 0.65849 0.11332 0.59438 0.0
C3445 C 0.67559 0.10452 0.61853 0.0
C3446 C 0.6559 0.14476 0.58649 0.0
C3447 C 0.62512 0.13746 0.56939 0.0
N3448 N 0.6691 0.11703 0.60799 0.0
N3449 N 0.63486 0.12451 0.57628 0.0
H3450 H 0.67477 0.91102 0.34528 0.0
H3451 H 0.57157 0.9009 0.34372 0.0
H3452 H 0.64102 0.92988 0.38579 0.0
H3453 H 0.60653 0.86847 0.31436 0.0
H3454 H 0.5965 0.91737 0.35449 0.0
H3455 H 0.64927 0.90114 0.32915 0.0
C3456 C 0.662 0.9133 0.35067 0.0
C3457 C 0.65999 0.92104 0.367 0.0
C3458 C 0.59865 0.90676 0.34554 0.0
C3459 C 0.63088 0.90986 0.34865 0.0
C3460 C 0.58445 0.89741 0.33935 0.0
C3461 C 0.58704 0.88316 0.32835 0.0
C3462 C 0.61548 0.90191 0.34053 0.0
C3463 C 0.604 0.87922 0.32304 0.0
C3464 C 0.64748 0.90761 0.34149 0.0
C3465 C 0.64314 0.92373 0.37335 0.0
N3466 N 0.6176 0.88848 0.32927 0.0
N3467 N 0.62922 0.91805 0.3642 0.0
H3468 H 0.867 0.86296 0.05355 0.0
H3469 H 0.8261 0.89312 0.14358 0.0
H3470 H 0.86615 0.83129 0.09975 0.0
H3471 H 0.82353 0.92373 0.09675 0.0
H3472 H 0.83822 0.86916 0.12688 0.0
H3473 H 0.84853 0.88417 0.0682 0.0
C3474 C 0.86279 0.86037 0.0667 0.0
C3475 C 0.86832 0.84545 0.07552 0.0
C3476 C 0.83487 0.88106 0.12021 0.0
C3477 C 0.84729 0.86967 0.09237 0.0
C3478 C 0.82796 0.89476 0.12975 0.0
C3479 C 0.824 0.91052 0.12158 0.0
C3480 C 0.83799 0.88317 0.10238 0.0
C3481 C 0.82652 0.91185 0.1036 0.0
C3482 C 0.85224 0.87249 0.07506 0.0
C3483 C 0.86236 0.84271 0.0925 0.0
N3484 N 0.83354 0.89841 0.09462 0.0
N3485 N 0.85232 0.85479 0.10043 0.0
H3486 H 0.93156 0.61933 0.85813 0.0
H3487 H 0.85831 0.68347 0.89069 0.0
H3488 H 0.89886 0.64847 0.82324 0.0
H3489 H 0.89829 0.66317 0.92424 0.0
H3490 H 0.87415 0.67243 0.86561 0.0
H3491 H 0.92089 0.63678 0.88226 0.0
C3492 C 0.92224 0.62953 0.85552 0.0
C3493 C 0.9159 0.63231 0.83869 0.0
C3494 C 0.87958 0.67058 0.87844 0.0
C3495 C 0.90353 0.65224 0.86629 0.0
C3496 C 0.87052 0.67683 0.89277 0.0
C3497 C 0.87688 0.67401 0.90959 0.0
C3498 C 0.895 0.66124 0.88095 0.0
C3499 C 0.89285 0.66551 0.91151 0.0
C3500 C 0.9162 0.63952 0.86931 0.0
C3501 C 0.904 0.64582 0.83603 0.0
N3502 N 0.90125 0.6592 0.89736 0.0
N3503 N 0.89801 0.65513 0.84974 0.0
H3504 H 0.36135 0.8148 0.10945 0.0
H3505 H 0.43242 0.88276 0.13797 0.0
H3506 H 0.39819 0.83694 0.07357 0.0
H3507 H 0.40563 0.84989 0.17454 0.0
H3508 H 0.4211 0.86513 0.11426 0.0
H3509 H 0.37829 0.82637 0.13355 0.0
C3510 C 0.37311 0.82196 0.10665 0.0
C3511 C 0.37826 0.82512 0.08949 0.0
C3512 C 0.41788 0.86162 0.12747 0.0
C3513 C 0.39762 0.8385 0.11699 0.0
C3514 C 0.42428 0.87172 0.14102 0.0
C3515 C 0.41976 0.8679 0.15822 0.0
C3516 C 0.40665 0.84778 0.13115 0.0
C3517 C 0.40934 0.85335 0.16144 0.0
C3518 C 0.38281 0.8285 0.12042 0.0
C3519 C 0.3937 0.8343 0.08661 0.0
N3520 N 0.40291 0.84395 0.14799 0.0
N3521 N 0.4027 0.8409 0.10024 0.0
H3522 H 0.09921 0.15751 0.5753 0.0
H3523 H 0.09252 0.14635 0.67829 0.0
H3524 H 0.13547 0.17993 0.61162 0.0
H3525 H 0.0643 0.11501 0.64143 0.0
H3526 H 0.10421 0.16341 0.6542 0.0
H3527 H 0.08215 0.14655 0.59971 0.0
C3528 C 0.10346 0.16032 0.58839 0.0
C3529 C 0.11891 0.16942 0.59144 0.0
C3530 C 0.09532 0.1529 0.65143 0.0
C3531 C 0.09951 0.15694 0.61936 0.0
C3532 C 0.08862 0.14319 0.66516 0.0
C3533 C 0.07764 0.12908 0.66183 0.0
C3534 C 0.09092 0.1485 0.63429 0.0
C3535 C 0.07294 0.12562 0.64458 0.0
C3536 C 0.09376 0.15402 0.60231 0.0
C3537 C 0.12377 0.17275 0.60867 0.0
N3538 N 0.0797 0.13518 0.63145 0.0
N3539 N 0.11417 0.1664 0.62199 0.0
H3540 H 0.14458 0.81507 0.88223 0.0
H3541 H 0.06263 0.86931 0.8513 0.0
H3542 H 0.10111 0.82708 0.91543 0.0
H3543 H 0.10394 0.85337 0.81701 0.0
H3544 H 0.07474 0.85092 0.87399 0.0
H3545 H 0.1283 0.82599 0.85742 0.0
C3546 C 0.13153 0.81986 0.88428 0.0
C3547 C 0.12428 0.82041 0.90098 0.0
C3548 C 0.08105 0.85126 0.86145 0.0
C3549 C 0.1056 0.83304 0.8726 0.0
C3550 C 0.07415 0.86178 0.84847 0.0
C3551 C 0.08245 0.86309 0.83232 0.0
C3552 C 0.09647 0.8421 0.85832 0.0
C3553 C 0.0972 0.85287 0.82932 0.0
C3554 C 0.12223 0.82606 0.87009 0.0
C3555 C 0.10726 0.82655 0.90282 0.0
N3556 N 0.10389 0.84298 0.8423 0.0
N3557 N 0.09857 0.83284 0.88883 0.0
H3558 H 0.55932 0.3839 0.35771 0.0
H3559 H 0.635 0.32206 0.38923 0.0
H3560 H 0.59354 0.35723 0.32231 0.0
H3561 H 0.59338 0.33884 0.42273 0.0
H3562 H 0.61919 0.33352 0.36432 0.0
H3563 H 0.57063 0.36632 0.38145 0.0
C3564 C 0.56911 0.37422 0.3549 0.0
C3565 C 0.57566 0.37216 0.33805 0.0
C3566 C 0.61341 0.33451 0.37709 0.0
C3567 C 0.58876 0.35208 0.3652 0.0
C3568 C 0.62245 0.32802 0.39133 0.0
C3569 C 0.61558 0.3297 0.4081 0.0
C3570 C 0.59749 0.34296 0.37966 0.0
C3571 C 0.5992 0.33738 0.41003 0.0
C3572 C 0.57553 0.36415 0.36846 0.0
C3573 C 0.5882 0.35931 0.33513 0.0
N3574 N 0.59081 0.34394 0.396 0.0
N3575 N 0.59453 0.34991 0.34863 0.0
H3576 H 0.90299 0.32651 0.57552 0.0
H3577 H 0.89929 0.37106 0.66908 0.0
H3578 H 0.85661 0.33029 0.6067 0.0
H3579 H 0.94414 0.37291 0.63557 0.0
H3580 H 0.88481 0.35231 0.64813 0.0
H3581 H 0.91951 0.33972 0.59913 0.0
C3582 C 0.89631 0.32996 0.58739 0.0
C3583 C 0.87836 0.32747 0.58907 0.0
C3584 C 0.89787 0.35671 0.64541 0.0
C3585 C 0.89717 0.34261 0.61609 0.0
C3586 C 0.90617 0.3674 0.65739 0.0
C3587 C 0.92288 0.37373 0.65398 0.0
C3588 C 0.90633 0.35231 0.62989 0.0
C3589 C 0.93119 0.36846 0.63866 0.0
C3590 C 0.90574 0.33753 0.60085 0.0
C3591 C 0.8704 0.33212 0.60477 0.0
N3592 N 0.92277 0.35816 0.62711 0.0
N3593 N 0.87984 0.33957 0.61762 0.0
H3594 H 0.63667 0.68266 0.10971 0.0
H3595 H 0.56136 0.62052 0.14215 0.0
H3596 H 0.59401 0.66635 0.07731 0.0
H3597 H 0.59984 0.64255 0.17635 0.0
H3598 H 0.57154 0.63939 0.11894 0.0
H3599 H 0.62191 0.67042 0.13486 0.0
C3600 C 0.6241 0.67665 0.10791 0.0
C3601 C 0.61667 0.67529 0.09134 0.0
C3602 C 0.57765 0.64026 0.13156 0.0
C3603 C 0.59975 0.66114 0.12008 0.0
C3604 C 0.57188 0.62945 0.14482 0.0
C3605 C 0.57994 0.62979 0.16114 0.0
C3606 C 0.59174 0.65138 0.13456 0.0
C3607 C 0.59334 0.64177 0.16393 0.0
C3608 C 0.61566 0.66969 0.1223 0.0
C3609 C 0.60028 0.66756 0.08982 0.0
N3610 N 0.59898 0.65194 0.15068 0.0
N3611 N 0.59247 0.66056 0.10398 0.0
H3612 H 0.67505 0.60294 0.8568 0.0
H3613 H 0.5747 0.60052 0.83081 0.0
H3614 H 0.638 0.56724 0.87887 0.0
H3615 H 0.60738 0.64541 0.82358 0.0
H3616 H 0.59958 0.58474 0.84255 0.0
H3617 H 0.65196 0.61511 0.83868 0.0
C3618 C 0.66213 0.5975 0.85766 0.0
C3619 C 0.65836 0.58422 0.8695 0.0
C3620 C 0.60131 0.59799 0.83824 0.0
C3621 C 0.63203 0.59799 0.84884 0.0
C3622 C 0.58715 0.60699 0.8315 0.0
C3623 C 0.58894 0.62437 0.82644 0.0
C3624 C 0.61738 0.60639 0.83978 0.0
C3625 C 0.60539 0.63209 0.82754 0.0
C3626 C 0.64897 0.6045 0.84738 0.0
C3627 C 0.64141 0.57764 0.87007 0.0
N3628 N 0.61898 0.62306 0.83419 0.0
N3629 N 0.62884 0.58465 0.85994 0.0
H3630 H 0.68065 0.39235 0.13675 0.0
H3631 H 0.61674 0.35792 0.06467 0.0
H3632 H 0.65994 0.42529 0.09647 0.0
H3633 H 0.64919 0.32384 0.09501 0.0
H3634 H 0.63344 0.38267 0.07514 0.0
H3635 H 0.67043 0.36698 0.12084 0.0
C3636 C 0.67409 0.39423 0.12446 0.0
C3637 C 0.67092 0.41095 0.11802 0.0
C3638 C 0.63707 0.36976 0.07932 0.0
C3639 C 0.65908 0.38199 0.09984 0.0
C3640 C 0.6275 0.35564 0.07341 0.0
C3641 C 0.63146 0.33884 0.07918 0.0
C3642 C 0.65051 0.3671 0.09131 0.0
C3643 C 0.64565 0.33659 0.09033 0.0
C3644 C 0.66833 0.37973 0.11535 0.0
C3645 C 0.66255 0.41263 0.10195 0.0
N3646 N 0.65451 0.35061 0.09626 0.0
N3647 N 0.65667 0.39832 0.09353 0.0
H3648 H 0.85971 0.43449 0.3845 0.0
H3649 H 0.88992 0.36157 0.31835 0.0
H3650 H 0.82397 0.4035 0.35454 0.0
H3651 H 0.92511 0.39824 0.34185 0.0
H3652 H 0.8655 0.3781 0.3298 0.0
H3653 H 0.88366 0.42284 0.36745 0.0
C3654 C 0.85688 0.42534 0.37422 0.0
C3655 C 0.83983 0.41978 0.37107 0.0
C3656 C 0.87855 0.38266 0.3323 0.0
C3657 C 0.86724 0.40631 0.35157 0.0
C3658 C 0.89252 0.3732 0.3258 0.0
C3659 C 0.90959 0.37843 0.32934 0.0
C3660 C 0.88167 0.39735 0.34258 0.0
C3661 C 0.91216 0.39369 0.3389 0.0
C3662 C 0.87057 0.41872 0.36446 0.0
C3663 C 0.83692 0.40805 0.35748 0.0
N3664 N 0.89834 0.4025 0.34538 0.0
N3665 N 0.85052 0.40153 0.34836 0.0
H3666 H 0.84613 0.675 0.59012 0.0
H3667 H 0.84138 0.57152 0.59621 0.0
H3668 H 0.8813 0.64043 0.56356 0.0
H3669 H 0.8156 0.60616 0.63187 0.0
H3670 H 0.8515 0.59666 0.57969 0.0
H3671 H 0.83021 0.64979 0.60102 0.0
C3672 C 0.85037 0.66213 0.5864 0.0
C3673 C 0.8652 0.65979 0.57615 0.0
C3674 C 0.84348 0.59872 0.59104 0.0
C3675 C 0.8471 0.63099 0.58853 0.0
C3676 C 0.83767 0.58439 0.60044 0.0
C3677 C 0.82785 0.58678 0.61556 0.0
C3678 C 0.83933 0.61552 0.59677 0.0
C3679 C 0.82336 0.60375 0.62042 0.0
C3680 C 0.84132 0.64776 0.59267 0.0
C3681 C 0.87007 0.64282 0.57166 0.0
N3682 N 0.82923 0.61748 0.61111 0.0
N3683 N 0.86112 0.62906 0.57798 0.0
H3684 H 0.61563 0.35276 0.67963 0.0
H3685 H 0.64377 0.43194 0.62029 0.0
H3686 H 0.58109 0.39451 0.66549 0.0
H3687 H 0.68001 0.3944 0.64063 0.0
H3688 H 0.62128 0.41996 0.63897 0.0
H3689 H 0.6399 0.36919 0.66777 0.0
C3690 C 0.61317 0.36547 0.67417 0.0
C3691 C 0.59627 0.37218 0.67331 0.0
C3692 C 0.63419 0.41445 0.63952 0.0
C3693 C 0.624 0.39101 0.65961 0.0
C3694 C 0.64704 0.42126 0.62882 0.0
C3695 C 0.66373 0.41398 0.62873 0.0
C3696 C 0.63797 0.40011 0.65008 0.0
C3697 C 0.66728 0.40032 0.64019 0.0
C3698 C 0.62706 0.37487 0.66744 0.0
C3699 C 0.59389 0.38879 0.6663 0.0
N3700 N 0.65443 0.39366 0.65025 0.0
N3701 N 0.60758 0.39755 0.6595 0.0
H3702 H 0.87609 0.35645 0.9321 0.0
H3703 H 0.81485 0.39138 0.85724 0.0
H3704 H 0.84898 0.32253 0.89675 0.0
H3705 H 0.83119 0.42296 0.90049 0.0
H3706 H 0.82656 0.36585 0.87187 0.0
H3707 H 0.85913 0.38085 0.92121 0.0
C3708 C 0.86646 0.35411 0.92214 0.0
C3709 C 0.86405 0.33747 0.91519 0.0
C3710 C 0.82741 0.37833 0.87825 0.0
C3711 C 0.8447 0.36537 0.90257 0.0
C3712 C 0.82079 0.39292 0.86988 0.0
C3713 C 0.82222 0.40934 0.87759 0.0
C3714 C 0.83573 0.38021 0.89434 0.0
C3715 C 0.82989 0.41056 0.89405 0.0
C3716 C 0.85674 0.36805 0.91596 0.0
C3717 C 0.8513 0.33516 0.90242 0.0
N3718 N 0.83656 0.39621 0.90178 0.0
N3719 N 0.84224 0.34901 0.89635 0.0
H3720 H 0.89855 0.62606 0.1756 0.0
H3721 H 0.87078 0.54855 0.11293 0.0
H3722 H 0.93472 0.58828 0.15556 0.0
H3723 H 0.83593 0.5882 0.13165 0.0
H3724 H 0.89359 0.56029 0.1316 0.0
H3725 H 0.87478 0.60967 0.16288 0.0
C3726 C 0.90149 0.61422 0.16862 0.0
C3727 C 0.91867 0.60866 0.16641 0.0
C3728 C 0.8809 0.5663 0.13173 0.0
C3729 C 0.89146 0.58986 0.15168 0.0
C3730 C 0.86787 0.5596 0.1211 0.0
C3731 C 0.8515 0.56756 0.12056 0.0
C3732 C 0.8775 0.58104 0.14188 0.0
C3733 C 0.84841 0.58178 0.13149 0.0
C3734 C 0.88789 0.60485 0.16136 0.0
C3735 C 0.92167 0.5931 0.15745 0.0
N3736 N 0.86133 0.58813 0.14158 0.0
N3737 N 0.90819 0.58433 0.15022 0.0
H3738 H 0.64718 0.67781 0.39334 0.0
H3739 H 0.66754 0.5762 0.39761 0.0
H3740 H 0.624 0.64294 0.43053 0.0
H3741 H 0.67703 0.60785 0.35239 0.0
H3742 H 0.65708 0.6019 0.41297 0.0
H3743 H 0.66379 0.6535 0.38145 0.0
C3744 C 0.64576 0.6651 0.39916 0.0
C3745 C 0.63404 0.66233 0.4128 0.0
C3746 C 0.6616 0.60322 0.39973 0.0
C3747 C 0.65297 0.63457 0.39931 0.0
C3748 C 0.6676 0.58857 0.39097 0.0
C3749 C 0.67295 0.58986 0.37363 0.0
C3750 C 0.66109 0.61925 0.39113 0.0
C3751 C 0.67282 0.60624 0.36569 0.0
C3752 C 0.65518 0.65124 0.39233 0.0
C3753 C 0.63274 0.64561 0.41986 0.0
N3754 N 0.66689 0.6203 0.37448 0.0
N3755 N 0.64201 0.63233 0.41297 0.0
H3756 H 0.58332 0.85439 0.67005 0.0
H3757 H 0.60345 0.84665 0.56851 0.0
H3758 H 0.56937 0.89344 0.63239 0.0
H3759 H 0.62828 0.81528 0.60771 0.0
H3760 H 0.58592 0.86037 0.59114 0.0
H3761 H 0.595 0.83649 0.64659 0.0
C3762 C 0.58256 0.85913 0.65684 0.0
C3763 C 0.57557 0.87552 0.65318 0.0
C3764 C 0.5951 0.85036 0.59474 0.0
C3765 C 0.58884 0.85512 0.62635 0.0
C3766 C 0.60506 0.84248 0.58183 0.0
C3767 C 0.6175 0.82998 0.58627 0.0
C3768 C 0.59754 0.8456 0.61215 0.0
C3769 C 0.61899 0.82503 0.60374 0.0
C3770 C 0.58926 0.84893 0.64348 0.0
C3771 C 0.57485 0.88097 0.63582 0.0
N3772 N 0.60922 0.83294 0.61606 0.0
N3773 N 0.58149 0.87083 0.62305 0.0
H3774 H 0.31117 0.402 0.14168 0.0
H3775 H 0.41126 0.38638 0.16348 0.0
H3776 H 0.35372 0.42745 0.11565 0.0
H3777 H 0.36972 0.35794 0.18799 0.0
H3778 H 0.38989 0.40451 0.14894 0.0
H3779 H 0.33193 0.38864 0.16171 0.0
C3780 C 0.32484 0.40493 0.14029 0.0
C3781 C 0.33076 0.41566 0.12684 0.0
C3782 C 0.38541 0.3944 0.1576 0.0
C3783 C 0.3545 0.40047 0.14962 0.0
C3784 C 0.39763 0.38403 0.16591 0.0
C3785 C 0.39226 0.37047 0.17678 0.0
C3786 C 0.36766 0.39114 0.16005 0.0
C3787 C 0.37442 0.36817 0.1796 0.0
C3788 C 0.33667 0.39728 0.1517 0.0
C3789 C 0.34859 0.41907 0.12568 0.0
N3790 N 0.36273 0.37828 0.17112 0.0
N3791 N 0.35982 0.41141 0.13683 0.0
H3792 H 0.34881 0.68043 0.90755 0.0
H3793 H 0.33879 0.57876 0.8901 0.0
H3794 H 0.38342 0.64117 0.92749 0.0
H3795 H 0.3063 0.61746 0.86591 0.0
H3796 H 0.35235 0.60141 0.90743 0.0
H3797 H 0.33033 0.6575 0.89559 0.0
C3798 C 0.35243 0.66701 0.90956 0.0
C3799 C 0.36778 0.6627 0.91832 0.0
C3800 C 0.34216 0.60496 0.89844 0.0
C3801 C 0.34678 0.6365 0.90474 0.0
C3802 C 0.33439 0.59202 0.88854 0.0
C3803 C 0.32156 0.59626 0.87636 0.0
C3804 C 0.33715 0.62231 0.8961 0.0
C3805 C 0.31626 0.61363 0.87504 0.0
C3806 C 0.3419 0.65394 0.90272 0.0
C3807 C 0.37182 0.64511 0.92063 0.0
N3808 N 0.32421 0.62607 0.88466 0.0
N3809 N 0.36145 0.63268 0.91378 0.0
H3810 H 0.13862 0.56309 0.60381 0.0
H3811 H 0.10433 0.6212 0.68127 0.0
H3812 H 0.17178 0.58206 0.64475 0.0
H3813 H 0.07039 0.59354 0.64636 0.0
H3814 H 0.12898 0.60525 0.66949 0.0
H3815 H 0.11334 0.5724 0.62036 0.0
C3816 C 0.14058 0.56911 0.61636 0.0
C3817 C 0.15734 0.57203 0.62282 0.0
C3818 C 0.11612 0.60249 0.66456 0.0
C3819 C 0.12843 0.5828 0.64179 0.0
C3820 C 0.10204 0.61162 0.67125 0.0
C3821 C 0.08532 0.60886 0.66459 0.0
C3822 C 0.11351 0.59068 0.65096 0.0
C3823 C 0.08308 0.59616 0.65177 0.0
C3824 C 0.12612 0.57436 0.62583 0.0
C3825 C 0.1591 0.57967 0.63924 0.0
N3826 N 0.09707 0.58771 0.64518 0.0
N3827 N 0.14481 0.58501 0.64807 0.0
H3828 H 0.17455 0.39552 0.36966 0.0
H3829 H 0.1189 0.36449 0.45106 0.0
H3830 H 0.16185 0.42903 0.4127 0.0
H3831 H 0.1332 0.33153 0.40808 0.0
H3832 H 0.13741 0.38736 0.43918 0.0
H3833 H 0.16244 0.37106 0.38549 0.0
C3834 C 0.16932 0.39771 0.38252 0.0
C3835 C 0.16897 0.41438 0.38978 0.0
C3836 C 0.13663 0.37505 0.43247 0.0
C3837 C 0.15494 0.3864 0.40796 0.0
C3838 C 0.12607 0.36199 0.43924 0.0
C3839 C 0.12431 0.34618 0.43041 0.0
C3840 C 0.14543 0.37224 0.41676 0.0
C3841 C 0.13399 0.3436 0.41521 0.0
C3842 C 0.16242 0.38371 0.39157 0.0
C3843 C 0.16225 0.4164 0.40658 0.0
N3844 N 0.14399 0.35655 0.4088 0.0
N3845 N 0.15528 0.40259 0.41503 0.0
H3846 H 0.32843 0.58083 0.35241 0.0
H3847 H 0.43066 0.59375 0.34091 0.0
H3848 H 0.36663 0.55961 0.38744 0.0
H3849 H 0.39216 0.62769 0.31851 0.0
H3850 H 0.40733 0.57565 0.35262 0.0
H3851 H 0.35189 0.59248 0.33448 0.0
C3852 C 0.34174 0.5784 0.35619 0.0
C3853 C 0.34562 0.56949 0.37157 0.0
C3854 C 0.40404 0.58696 0.34497 0.0
C3855 C 0.3724 0.58269 0.35115 0.0
C3856 C 0.41732 0.59725 0.33825 0.0
C3857 C 0.4133 0.61237 0.32897 0.0
C3858 C 0.38669 0.59176 0.3422 0.0
C3859 C 0.39581 0.61628 0.32584 0.0
C3860 C 0.3551 0.58509 0.34599 0.0
C3861 C 0.36309 0.56664 0.37581 0.0
N3862 N 0.38313 0.60609 0.33254 0.0
N3863 N 0.37585 0.57334 0.36572 0.0
H3864 H 0.16984 0.60043 0.14229 0.0
H3865 H 0.13169 0.63492 0.05268 0.0
H3866 H 0.17064 0.57046 0.09498 0.0
H3867 H 0.13615 0.66629 0.09887 0.0
H3868 H 0.14817 0.612 0.0671 0.0
H3869 H 0.1596 0.62545 0.1259 0.0
C3870 C 0.16796 0.59914 0.12842 0.0
C3871 C 0.17092 0.58328 0.12002 0.0
C3872 C 0.14571 0.62397 0.074 0.0
C3873 C 0.1591 0.61187 0.10116 0.0
C3874 C 0.13631 0.63707 0.06577 0.0
C3875 C 0.13234 0.65245 0.07466 0.0
C3876 C 0.15108 0.62625 0.09127 0.0
C3877 C 0.13875 0.65458 0.09157 0.0
C3878 C 0.16215 0.61345 0.11906 0.0
C3879 C 0.16842 0.58241 0.102 0.0
N3880 N 0.14763 0.64155 0.09938 0.0
N3881 N 0.16248 0.59647 0.09319 0.0
H3882 H 0.17306 0.40365 0.85271 0.0
H3883 H 0.07063 0.3998 0.83658 0.0
H3884 H 0.13555 0.4329 0.88227 0.0
H3885 H 0.10673 0.36147 0.81747 0.0
H3886 H 0.09503 0.4164 0.84823 0.0
H3887 H 0.14949 0.39246 0.83461 0.0
C3888 C 0.15991 0.40789 0.85525 0.0
C3889 C 0.15621 0.41901 0.86917 0.0
C3890 C 0.09759 0.40444 0.84133 0.0
C3891 C 0.12928 0.40632 0.84856 0.0
C3892 C 0.08369 0.39499 0.83463 0.0
C3893 C 0.08665 0.37911 0.82629 0.0
C3894 C 0.11454 0.39799 0.83955 0.0
C3895 C 0.10384 0.37354 0.82405 0.0
C3896 C 0.14647 0.40147 0.84496 0.0
C3897 C 0.13895 0.42415 0.87183 0.0
N3898 N 0.11714 0.3829 0.83077 0.0
N3899 N 0.1261 0.41766 0.8617 0.0
H3900 H 0.34667 0.42657 0.59539 0.0
H3901 H 0.35255 0.32361 0.58397 0.0
H3902 H 0.31795 0.39004 0.62663 0.0
H3903 H 0.39087 0.3594 0.56432 0.0
H3904 H 0.33555 0.34823 0.59459 0.0
H3905 H 0.35871 0.40232 0.57879 0.0
C3906 C 0.34272 0.41348 0.59861 0.0
C3907 C 0.33149 0.41028 0.61256 0.0
C3908 C 0.34761 0.35066 0.5878 0.0
C3909 C 0.34515 0.38259 0.59366 0.0
C3910 C 0.35729 0.33664 0.58171 0.0
C3911 C 0.37325 0.33947 0.57347 0.0
C3912 C 0.35389 0.3676 0.5855 0.0
C3913 C 0.37874 0.35662 0.57082 0.0
C3914 C 0.34963 0.39966 0.58917 0.0
C3915 C 0.32676 0.39307 0.61613 0.0
N3916 N 0.36912 0.37005 0.57691 0.0
N3917 N 0.3337 0.37985 0.60681 0.0
H3918 H 0.4286 0.11848 0.35635 0.0
H3919 H 0.35274 0.18033 0.38759 0.0
H3920 H 0.39572 0.14643 0.32067 0.0
H3921 H 0.39448 0.16405 0.4212 0.0
H3922 H 0.36851 0.1685 0.36279 0.0
H3923 H 0.41665 0.13549 0.38023 0.0
C3924 C 0.41896 0.1283 0.35353 0.0
C3925 C 0.41301 0.13094 0.33653 0.0
C3926 C 0.37431 0.16769 0.37556 0.0
C3927 C 0.39918 0.15034 0.3638 0.0
C3928 C 0.36529 0.17438 0.38974 0.0
C3929 C 0.37224 0.17301 0.4065 0.0
C3930 C 0.39028 0.15936 0.37822 0.0
C3931 C 0.38861 0.16531 0.40851 0.0
C3932 C 0.41218 0.13805 0.36715 0.0
C3933 C 0.40062 0.14394 0.33359 0.0
N3934 N 0.39698 0.15858 0.39455 0.0
N3935 N 0.39393 0.15301 0.34714 0.0
H3936 H 0.05212 0.12178 0.26732 0.0
H3937 H 0.98104 0.11724 0.19285 0.0
H3938 H 0.0247 0.16608 0.24676 0.0
H3939 H 0.00157 0.07261 0.21977 0.0
H3940 H 0.00341 0.13517 0.20624 0.0
H3941 H 0.04025 0.10402 0.24392 0.0
C3942 C 0.04392 0.12788 0.25768 0.0
C3943 C 0.03905 0.14536 0.25925 0.0
C3944 C 0.00322 0.12139 0.20896 0.0
C3945 C 0.02535 0.12507 0.23253 0.0
C3946 C 0.99047 0.11111 0.20128 0.0
C3947 C 0.98914 0.09345 0.20554 0.0
C3948 C 0.01469 0.11398 0.22101 0.0
C3949 C 0.00188 0.08623 0.21637 0.0
C3950 C 0.0371 0.11771 0.24434 0.0
C3951 C 0.02853 0.15258 0.24626 0.0
N3952 N 0.01394 0.09658 0.22398 0.0
N3953 N 0.0218 0.14234 0.23361 0.0
H3954 H 0.13956 0.72977 0.44225 0.0
H3955 H 0.13311 0.79759 0.51954 0.0
H3956 H 0.18336 0.74931 0.47115 0.0
H3957 H 0.08948 0.77017 0.49762 0.0
H3958 H 0.1512 0.78712 0.49574 0.0
H3959 H 0.12118 0.75161 0.45601 0.0
C3960 C 0.14543 0.73894 0.45114 0.0
C3961 C 0.16295 0.73742 0.4559 0.0
C3962 C 0.13759 0.78366 0.49597 0.0
C3963 C 0.14194 0.7623 0.47179 0.0
C3964 C 0.12722 0.78966 0.50954 0.0
C3965 C 0.10984 0.78438 0.51083 0.0
C3966 C 0.13053 0.77229 0.48362 0.0
C3967 C 0.1029 0.77429 0.49735 0.0
C3968 C 0.13489 0.75135 0.45906 0.0
C3969 C 0.16985 0.74977 0.46737 0.0
N3970 N 0.11334 0.76833 0.48447 0.0
N3971 N 0.15926 0.76149 0.47516 0.0
H3972 H 0.52153 0.88137 0.69432 0.0
H3973 H 0.45014 0.87109 0.76811 0.0
H3974 H 0.49599 0.924 0.72011 0.0
H3975 H 0.48466 0.83018 0.7516 0.0
H3976 H 0.46011 0.88882 0.74385 0.0
H3977 H 0.50146 0.86128 0.70842 0.0
C3978 C 0.51144 0.88657 0.7026 0.0
C3979 C 0.51068 0.90437 0.70636 0.0
C3980 C 0.46524 0.87583 0.74535 0.0
C3981 C 0.48777 0.88144 0.72256 0.0
C3982 C 0.45952 0.86565 0.75918 0.0
C3983 C 0.4669 0.84927 0.76216 0.0
C3984 C 0.47842 0.86958 0.73444 0.0
C3985 C 0.47886 0.84287 0.75 0.0
C3986 C 0.50004 0.87507 0.7107 0.0
C3987 C 0.49726 0.91035 0.71711 0.0
N3988 N 0.48447 0.85316 0.73684 0.0
N3989 N 0.4865 0.89888 0.72504 0.0
H3990 H 0.3251 0.25081 0.9797 0.0
H3991 H 0.42134 0.22576 -0.00025 0.0
H3992 H 0.36847 0.26988 0.94986 0.0
H3993 H 0.37745 0.19868 0.02154 0.0
H3994 H 0.40235 0.23799 0.97758 0.0
H3995 H 0.34354 0.22779 0.99116 0.0
C3996 C 0.33841 0.24994 0.97526 0.0
C3997 C 0.34535 0.26254 0.96412 0.0
C3998 C 0.39692 0.22907 0.98697 0.0
C3999 C 0.36665 0.23641 0.97745 0.0
C4000 C 0.40779 0.22207 -0.00034 0.0
C4001 C 0.40091 0.21152 0.0128 0.0
C4002 C 0.37902 0.22571 0.98762 0.0
C4003 C 0.38329 0.207 0.01186 0.0
C4004 C 0.34896 0.23677 0.98182 0.0
C4005 C 0.36262 0.2606 0.95863 0.0
N4006 N 0.37287 0.21444 -0.00025 0.0
N4007 N 0.37279 0.24805 0.96567 0.0
H4008 H 0.97877 0.88263 0.30603 0.0
H4009 H 0.04912 0.87693 0.23096 0.0
H4010 H 0.00114 0.92706 0.28031 0.0
H4011 H 0.02067 0.83313 0.25117 0.0
H4012 H 0.03792 0.8947 0.25466 0.0
H4013 H 0.00016 0.86409 0.29191 0.0
C4014 C 0.98838 0.88856 0.29767 0.0
C4015 C 0.98788 0.9064 0.29402 0.0
C4016 C 0.03439 0.88112 0.25409 0.0
C4017 C 0.01233 0.88517 0.2777 0.0
C4018 C 0.04082 0.87092 0.24058 0.0
C4019 C 0.03549 0.8536 0.23883 0.0
C4020 C 0.02253 0.87394 0.2659 0.0
C4021 C 0.02487 0.84651 0.25181 0.0
C4022 C 0.00058 0.87794 0.28959 0.0
C4023 C 0.00084 0.91335 0.28328 0.0
N4024 N 0.01851 0.85679 0.26463 0.0
N4025 N 0.01235 0.90267 0.27526 0.0
H4026 H 0.37694 0.80177 0.479 0.0
H4027 H 0.37029 0.72952 0.5523 0.0
H4028 H 0.42063 0.77344 0.49965 0.0
H4029 H 0.32677 0.74928 0.5231 0.0
H4030 H 0.38852 0.75223 0.53983 0.0
H4031 H 0.35864 0.78942 0.5017 0.0
C4032 C 0.3828 0.79326 0.48852 0.0
C4033 C 0.40028 0.7883 0.48715 0.0
C4034 C 0.37489 0.7518 0.53644 0.0
C4035 C 0.37934 0.77405 0.51309 0.0
C4036 C 0.36444 0.73887 0.5436 0.0
C4037 C 0.34705 0.73723 0.53841 0.0
C4038 C 0.3679 0.76316 0.52404 0.0
C4039 C 0.34018 0.74984 0.52721 0.0
C4040 C 0.37231 0.78617 0.50146 0.0
C4041 C 0.40716 0.77737 0.5 0.0
N4042 N 0.35069 0.7621 0.52018 0.0
N4043 N 0.3966 0.77038 0.51226 0.0
H4044 H 0.44621 0.12742 0.72698 0.0
H4045 H 0.51773 0.11878 0.80083 0.0
H4046 H 0.47515 0.17035 0.74832 0.0
H4047 H 0.49895 0.07616 0.76974 0.0
H4048 H 0.49511 0.13725 0.78857 0.0
H4049 H 0.45831 0.10858 0.74939 0.0
C4050 C 0.45478 0.133 0.73661 0.0
C4051 C 0.46001 0.15042 0.73551 0.0
C4052 C 0.49573 0.12376 0.78471 0.0
C4053 C 0.47392 0.12887 0.76112 0.0
C4054 C 0.50861 0.11316 0.79174 0.0
C4055 C 0.51052 0.09598 0.78598 0.0
C4056 C 0.48467 0.11712 0.77187 0.0
C4057 C 0.49818 0.08941 0.77431 0.0
C4058 C 0.46172 0.1222 0.74937 0.0
C4059 C 0.47102 0.15693 0.74846 0.0
N4060 N 0.48595 0.10007 0.76742 0.0
N4061 N 0.47783 0.14609 0.76057 0.0
H4062 H 0.07185 0.22383 0.00298 0.0
H4063 H 0.16822 0.2468 0.02325 0.0
H4064 H 0.11541 0.19428 0.98387 0.0
H4065 H 0.12498 0.27026 0.04994 0.0
H4066 H 0.14934 0.2232 0.01399 0.0
H4067 H 0.09057 0.23643 0.02518 0.0
C4068 C 0.08525 0.21967 0.00369 0.0
C4069 C 0.09218 0.20837 0.99121 0.0
C4070 C 0.14402 0.23327 0.02221 0.0
C4071 C 0.11375 0.22294 0.01643 0.0
C4072 C 0.15483 0.24676 0.02751 0.0
C4073 C 0.14805 0.2607 0.03702 0.0
C4074 C 0.12623 0.23396 0.0261 0.0
C4075 C 0.13068 0.25986 0.04241 0.0
C4076 C 0.09596 0.22688 0.01639 0.0
C4077 C 0.10957 0.20324 0.99297 0.0
N4078 N 0.12024 0.24696 0.03648 0.0
N4079 N 0.11985 0.21087 0.00506 0.0
H4080 H 0.24716 0.01984 0.16844 0.0
H4081 H 0.22514 -0.00084 0.07115 0.0
H4082 H 0.26784 0.04914 0.12543 0.0
H4083 H 0.19657 0.97764 0.11423 0.0
H4084 H 0.23742 0.02088 0.09061 0.0
H4085 H 0.2252 0.0077 0.14914 0.0
C4086 C 0.24688 0.024 0.15502 0.0
C4087 C 0.2596 0.03525 0.14848 0.0
C4088 C 0.22819 0.01164 0.09576 0.0
C4089 C 0.23466 0.02118 0.12623 0.0
C4090 C 0.22116 -0.00079 0.08463 0.0
C4091 C 0.21008 0.98633 0.09113 0.0
C4092 C 0.22433 0.01099 0.11357 0.0
C4093 C 0.20524 0.98717 0.10868 0.0
C4094 C 0.23432 0.01705 0.14399 0.0
C4095 C 0.25845 0.04032 0.13101 0.0
N4096 N 0.21269 -0.00095 0.11936 0.0
N4097 N 0.24644 0.03297 0.12042 0.0
H4098 H 0.22446 0.99472 0.424 0.0
H4099 H 0.24811 0.97865 0.32587 0.0
H4100 H 0.19893 0.02086 0.38156 0.0
H4101 H 0.26736 0.94706 0.36793 0.0
H4102 H 0.22631 0.99073 0.34539 0.0
H4103 H 0.23649 0.97386 0.40348 0.0
C4104 C 0.22114 0.9959 0.4104 0.0
C4105 C 0.21094 0.00976 0.40446 0.0
C4106 C 0.23508 0.9809 0.35027 0.0
C4107 C 0.2249 0.98605 0.38082 0.0
C4108 C 0.24754 0.97397 0.33911 0.0
C4109 C 0.25985 0.9621 0.34535 0.0
C4110 C 0.23507 0.97609 0.36786 0.0
C4111 C 0.25832 0.95638 0.36259 0.0
C4112 C 0.22801 0.98396 0.39866 0.0
C4113 C 0.20689 0.0105 0.38671 0.0
N4114 N 0.24641 0.96369 0.37332 0.0
N4115 N 0.21417 -0.00098 0.37547 0.0
H4116 H 0.22586 0.94946 0.6274 0.0
H4117 H 0.30371 0.01607 0.61658 0.0
H4118 H 0.24878 0.97901 0.66907 0.0
H4119 H 0.27134 0.99811 0.57454 0.0
H4120 H 0.29062 0.99435 0.63551 0.0
H4121 H 0.24921 0.95908 0.60819 0.0
C4122 C 0.23605 0.95758 0.63265 0.0
C4123 C 0.23516 0.96378 0.64976 0.0
C4124 C 0.28667 0.99492 0.62203 0.0
C4125 C 0.26181 0.97483 0.62785 0.0
C4126 C 0.29417 0.00729 0.61118 0.0
C4127 C 0.28826 0.00926 0.59405 0.0
C4128 C 0.27318 0.98445 0.61573 0.0
C4129 C 0.27604 0.99732 0.58775 0.0
C4130 C 0.24933 0.96311 0.62165 0.0
C4131 C 0.24877 0.9742 0.65587 0.0
N4132 N 0.26865 0.98563 0.59869 0.0
N4133 N 0.26139 0.97962 0.64485 0.0
H4134 H 0.22406 0.04815 0.875 0.0
H4135 H 0.30141 0.98013 0.87962 0.0
H4136 H 0.24307 0.01858 0.83139 0.0
H4137 H 0.27331 -0.00061 0.92408 0.0
H4138 H 0.2869 0.00172 0.86153 0.0
H4139 H 0.24865 0.03796 0.89219 0.0
C4140 C 0.23361 0.03985 0.86889 0.0
C4141 C 0.23125 0.03384 0.85185 0.0
C4142 C 0.2842 0.00145 0.87532 0.0
C4143 C 0.25936 0.02212 0.8715 0.0
C4144 C 0.29253 0.98917 0.88569 0.0
C4145 C 0.28823 0.98765 0.90334 0.0
C4146 C 0.27154 0.01229 0.88265 0.0
C4147 C 0.27675 -0.00015 0.91048 0.0
C4148 C 0.24762 0.034 0.87875 0.0
C4149 C 0.24417 0.02325 0.84459 0.0
N4150 N 0.26858 0.01147 0.90005 0.0
N4151 N 0.25752 0.01749 0.85455 0.0
H4152 H 0.57474 0.27347 5e-05 0.0
H4153 H 0.67029 0.24939 0.97525 0.0
H4154 H 0.61945 0.30044 0.02025 0.0
H4155 H 0.62556 0.22956 0.94803 0.0
H4156 H 0.65219 0.27215 0.98772 0.0
H4157 H 0.59282 0.26144 0.97703 0.0
C4158 C 0.58828 0.27715 -0.00055 0.0
C4159 C 0.59567 0.28764 0.01235 0.0
C4160 C 0.64638 0.26305 0.97873 0.0
C4161 C 0.61653 0.27368 0.98619 0.0
C4162 C 0.65674 0.25003 0.97159 0.0
C4163 C 0.64935 0.23728 0.96092 0.0
C4164 C 0.62846 0.26313 0.97539 0.0
C4165 C 0.63177 0.23893 0.95644 0.0
C4166 C 0.59862 0.27027 0.98628 0.0
C4167 C 0.61324 0.29218 0.01075 0.0
N4168 N 0.62184 0.25137 0.96401 0.0
N4169 N 0.62316 0.28486 0.99816 0.0
H4170 H 0.99551 0.41818 0.22059 0.0
H4171 H 0.97495 0.32195 0.24923 0.0
H4172 H 0.02113 0.37303 0.19957 0.0
H4173 H 0.94804 0.36687 0.26908 0.0
H4174 H 0.98715 0.33984 0.22618 0.0
H4175 H 0.97356 0.39933 0.23342 0.0
C4176 C 0.99636 0.40433 0.21838 0.0
C4177 C 0.01044 0.39715 0.20934 0.0
C4178 C 0.97832 0.34574 0.23538 0.0
C4179 C 0.98544 0.37548 0.22418 0.0
C4180 C 0.97131 0.3355 0.24855 0.0
C4181 C 0.96078 0.343 0.26137 0.0
C4182 C 0.97494 0.36364 0.23514 0.0
C4183 C 0.95633 0.36058 0.25966 0.0
C4184 C 0.9838 0.39356 0.22574 0.0
C4185 C 0.01069 0.37913 0.20671 0.0
N4186 N 0.96371 0.37038 0.24701 0.0
N4187 N 0.99858 0.3689 0.21437 0.0
H4188 H 0.82306 0.74385 0.46854 0.0
H4189 H 0.92027 0.72404 0.49465 0.0
H4190 H 0.8674 0.76793 0.44426 0.0
H4191 H 0.87621 0.69682 0.51594 0.0
H4192 H 0.90154 0.73603 0.47214 0.0
H4193 H 0.84237 0.72262 0.48191 0.0
C4194 C 0.83681 0.7445 0.46575 0.0
C4195 C 0.84364 0.75794 0.45554 0.0
C4196 C 0.89601 0.72719 0.48154 0.0
C4197 C 0.86587 0.73377 0.47099 0.0
C4198 C 0.90673 0.72029 0.4944 0.0
C4199 C 0.89975 0.7097 0.50745 0.0
C4200 C 0.87814 0.72362 0.48184 0.0
C4201 C 0.88214 0.70515 0.50632 0.0
C4202 C 0.84786 0.73236 0.47342 0.0
C4203 C 0.86156 0.75798 0.45225 0.0
N4204 N 0.87188 0.7124 0.49396 0.0
N4205 N 0.87208 0.74629 0.4602 0.0
H4206 H 0.95253 0.6203 0.22864 0.0
H4207 H 0.01891 0.61688 0.30728 0.0
H4208 H 0.97917 0.66477 0.24982 0.0
H4209 H 0.99836 0.5716 0.28152 0.0
H4210 H 0.99787 0.63479 0.29192 0.0
H4211 H 0.96262 0.603 0.25319 0.0
C4212 C 0.96018 0.62654 0.23863 0.0
C4213 C 0.96536 0.64392 0.23695 0.0
C4214 C 0.99774 0.6209 0.28985 0.0
C4215 C 0.97702 0.62414 0.26501 0.0
C4216 C 0.00975 0.61063 0.29864 0.0
C4217 C 0.0107 0.59275 0.29535 0.0
C4218 C 0.98669 0.61326 0.27757 0.0
C4219 C 0.99829 0.58537 0.28425 0.0
C4220 C 0.96598 0.61662 0.25263 0.0
C4221 C 0.97514 0.65133 0.2504 0.0
N4222 N 0.98701 0.59571 0.27549 0.0
N4223 N 0.98088 0.64133 0.26371 0.0
H4224 H 0.49997 0.41567 0.76982 0.0
H4225 H 0.52608 0.31927 0.74902 0.0
H4226 H 0.47932 0.37146 0.79728 0.0
H4227 H 0.55284 0.36361 0.72777 0.0
H4228 H 0.51269 0.33812 0.77062 0.0
H4229 H 0.523 0.39727 0.75824 0.0
C4230 C 0.50046 0.40217 0.77369 0.0
C4231 C 0.48745 0.39502 0.78423 0.0
C4232 C 0.52175 0.34369 0.76146 0.0
C4233 C 0.51365 0.37382 0.77081 0.0
C4234 C 0.52943 0.33291 0.74911 0.0
C4235 C 0.54031 0.33992 0.73632 0.0
C4236 C 0.52476 0.36166 0.76083 0.0
C4237 C 0.54435 0.35766 0.73723 0.0
C4238 C 0.51363 0.39166 0.76706 0.0
C4239 C 0.4889 0.37749 0.78897 0.0
N4240 N 0.53628 0.36798 0.74902 0.0
N4241 N 0.50154 0.36742 0.78196 0.0
H4242 H 0.97281 0.82778 0.74543 0.0
H4243 H 0.99578 0.92329 0.77478 0.0
H4244 H 0.9512 0.87366 0.72168 0.0
H4245 H 0.01526 0.87718 0.79989 0.0
H4246 H 0.97454 0.90553 0.75941 0.0
H4247 H 0.98336 0.84553 0.76938 0.0
C4248 C 0.97001 0.84154 0.74539 0.0
C4249 C 0.96146 0.8493 0.73132 0.0
C4250 C 0.98325 0.89933 0.76852 0.0
C4251 C 0.97374 0.86977 0.7586 0.0
C4252 C 0.99538 0.90949 0.77734 0.0
C4253 C 0.00761 0.90167 0.78833 0.0
C4254 C 0.98346 0.88123 0.77062 0.0
C4255 C 0.00632 0.88374 0.79128 0.0
C4256 C 0.97605 0.8517 0.75909 0.0
C4257 C 0.95797 0.86716 0.73212 0.0
N4258 N 0.99469 0.8741 0.78224 0.0
N4259 N 0.96443 0.87685 0.74535 0.0
H4260 H 0.83173 0.24827 0.5224 0.0
H4261 H 0.92827 0.22579 0.50101 0.0
H4262 H 0.87502 0.2729 0.54788 0.0
H4263 H 0.88484 0.19487 0.4839 0.0
H4264 H 0.90964 0.2393 0.52275 0.0
H4265 H 0.85092 0.22499 0.51292 0.0
C4266 C 0.84522 0.24857 0.52632 0.0
C4267 C 0.85187 0.2627 0.53564 0.0
C4268 C 0.90427 0.22928 0.51451 0.0
C4269 C 0.87404 0.2363 0.52448 0.0
C4270 C 0.91493 0.22153 0.50208 0.0
C4271 C 0.90801 0.20951 0.49028 0.0
C4272 C 0.88653 0.22513 0.51498 0.0
C4273 C 0.89068 0.20434 0.49247 0.0
C4274 C 0.8562 0.23526 0.52091 0.0
C4275 C 0.86939 0.26233 0.54056 0.0
N4276 N 0.88045 0.21246 0.50429 0.0
N4277 N 0.87998 0.24956 0.53455 0.0
H4278 H 0.47598 0.12168 0.30113 0.0
H4279 H 0.55165 0.12864 0.23137 0.0
H4280 H 0.4981 0.07807 0.27382 0.0
H4281 H 0.52249 0.17229 0.2509 0.0
H4282 H 0.53829 0.11029 0.25344 0.0
H4283 H 0.4989 0.14016 0.28946 0.0
C4284 C 0.48586 0.11589 0.29298 0.0
C4285 C 0.48488 0.09837 0.28812 0.0
C4286 C 0.53507 0.12396 0.2531 0.0
C4287 C 0.51108 0.1195 0.27465 0.0
C4288 C 0.54274 0.13448 0.24053 0.0
C4289 C 0.53786 0.15196 0.239 0.0
C4290 C 0.52243 0.13096 0.2642 0.0
C4291 C 0.5264 0.15882 0.25138 0.0
C4292 C 0.49892 0.12648 0.28629 0.0
C4293 C 0.49815 0.09158 0.27766 0.0
N4294 N 0.51884 0.14823 0.26327 0.0
N4295 N 0.51054 0.10222 0.27106 0.0
H4296 H 0.67054 0.75257 0.02183 0.0
H4297 H 0.57484 0.78379 0.00319 0.0
H4298 H 0.62578 0.73307 0.04924 0.0
H4299 H 0.62029 0.80652 0.97967 0.0
H4300 H 0.59347 0.76932 0.02433 0.0
H4301 H 0.65294 0.77637 0.01069 0.0
C4302 C 0.65709 0.75347 0.02578 0.0
C4303 C 0.64954 0.7406 0.03619 0.0
C4304 C 0.59935 0.77773 0.01475 0.0
C4305 C 0.62921 0.76768 0.02322 0.0
C4306 C 0.5887 0.78604 0.00267 0.0
C4307 C 0.59603 0.79608 0.98936 0.0
C4308 C 0.61746 0.77936 0.01341 0.0
C4309 C 0.61407 0.79866 0.98949 0.0
C4310 C 0.64702 0.76708 0.0194 0.0
C4311 C 0.6321 0.74258 0.04107 0.0
N4312 N 0.62417 0.79009 0.00109 0.0
N4313 N 0.62243 0.75565 0.03425 0.0
H4314 H 0.94385 0.12615 0.76912 0.0
H4315 H 0.0155 0.11818 0.6955 0.0
H4316 H 0.97377 0.16904 0.7491 0.0
H4317 H 0.99323 0.07469 0.72287 0.0
H4318 H 0.99367 0.13708 0.70846 0.0
H4319 H 0.95517 0.10786 0.74587 0.0
C4320 C 0.9525 0.13185 0.75962 0.0
C4321 C 0.95821 0.14906 0.76132 0.0
C4322 C 0.99336 0.12334 0.71136 0.0
C4323 C 0.97126 0.12813 0.73476 0.0
C4324 C 0.0058 0.11251 0.70393 0.0
C4325 C 0.00649 0.09488 0.70846 0.0
C4326 C 0.98156 0.11651 0.72342 0.0
C4327 C 0.99341 0.08826 0.71927 0.0
C4328 C 0.95899 0.12136 0.74638 0.0
C4329 C 0.96927 0.15576 0.7485 0.0
N4330 N 0.98167 0.09914 0.72663 0.0
N4331 N 0.97567 0.1452 0.73593 0.0
H4332 H 0.6189 0.19529 0.51592 0.0
H4333 H 0.6254 0.27192 0.44709 0.0
H4334 H 0.57514 0.2246 0.49687 0.0
H4335 H 0.66858 0.25208 0.47673 0.0
H4336 H 0.6075 0.24809 0.45787 0.0
H4337 H 0.63728 0.20933 0.49427 0.0
C4338 C 0.61303 0.20435 0.50692 0.0
C4339 C 0.59551 0.20909 0.50849 0.0
C4340 C 0.621 0.24877 0.46172 0.0
C4341 C 0.61654 0.22525 0.48378 0.0
C4342 C 0.63126 0.26233 0.45552 0.0
C4343 C 0.64842 0.26423 0.46134 0.0
C4344 C 0.62796 0.23701 0.47376 0.0
C4345 C 0.65532 0.25131 0.47216 0.0
C4346 C 0.62358 0.21241 0.49461 0.0
C4347 C 0.58864 0.2208 0.49635 0.0
N4348 N 0.64499 0.2384 0.47824 0.0
N4349 N 0.59923 0.22869 0.48469 0.0
H4350 H 0.55023 0.87187 0.26883 0.0
H4351 H 0.47831 0.87951 0.19522 0.0
H4352 H 0.52083 0.82869 0.24863 0.0
H4353 H 0.49843 0.92282 0.22447 0.0
H4354 H 0.50054 0.86096 0.20804 0.0
H4355 H 0.53814 0.89029 0.24608 0.0
C4356 C 0.54154 0.86614 0.25939 0.0
C4357 C 0.53621 0.84878 0.2609 0.0
C4358 C 0.50029 0.8746 0.21139 0.0
C4359 C 0.52229 0.86987 0.2349 0.0
C4360 C 0.48764 0.88524 0.20403 0.0
C4361 C 0.48624 0.90268 0.2091 0.0
C4362 C 0.51164 0.88145 0.22386 0.0
C4363 C 0.49881 0.90938 0.22044 0.0
C4364 C 0.5346 0.87671 0.24643 0.0
C4365 C 0.52506 0.84207 0.24817 0.0
N4366 N 0.51082 0.89869 0.22766 0.0
N4367 N 0.51825 0.8527 0.23587 0.0
H4368 H 0.91754 0.77793 -0.0004 0.0
H4369 H 0.82158 0.75005 0.9791 0.0
H4370 H 0.87257 0.80061 0.02409 0.0
H4371 H 0.86607 0.73125 0.95076 0.0
H4372 H 0.83941 0.77327 0.99105 0.0
H4373 H 0.89877 0.76566 0.97727 0.0
C4374 C 0.90376 0.78064 0.0001 0.0
C4375 C 0.89657 0.78993 0.01401 0.0
C4376 C 0.84521 0.76429 0.98194 0.0
C4377 C 0.87496 0.7757 0.9886 0.0
C4378 C 0.83502 0.75101 0.97509 0.0
C4379 C 0.84244 0.73843 0.96424 0.0
C4380 C 0.86303 0.76483 0.97813 0.0
C4381 C 0.85985 0.7405 0.9593 0.0
C4382 C 0.89303 0.77361 0.98733 0.0
C4383 C 0.87866 0.79324 0.0138 0.0
N4384 N 0.86965 0.7532 0.96658 0.0
N4385 N 0.86843 0.78583 0.00153 0.0
H4386 H 0.75315 0.97346 0.8233 0.0
H4387 H 0.77043 0.99599 0.92101 0.0
H4388 H 0.72716 0.94784 0.86573 0.0
H4389 H 0.80139 0.0155 0.87861 0.0
H4390 H 0.75872 0.97376 0.90175 0.0
H4391 H 0.775 0.98412 0.84351 0.0
C4392 C 0.75226 0.96976 0.83683 0.0
C4393 C 0.73812 0.96006 0.8429 0.0
C4394 C 0.76835 0.98266 0.89674 0.0
C4395 C 0.76288 0.97256 0.86622 0.0
C4396 C 0.77507 0.99538 0.90776 0.0
C4397 C 0.78657 0.00794 0.90131 0.0
C4398 C 0.77302 0.98265 0.87912 0.0
C4399 C 0.79228 0.00632 0.88408 0.0
C4400 C 0.76475 0.97586 0.84839 0.0
C4401 C 0.73775 0.95545 0.86052 0.0
N4402 N 0.78517 0.99417 0.8735 0.0
N4403 N 0.74971 0.96209 0.87164 0.0
H4404 H 0.79519 0.97304 0.62337 0.0
H4405 H 0.7308 0.05319 0.63224 0.0
H4406 H 0.76669 0.99608 0.58104 0.0
H4407 H 0.74647 0.0205 0.67496 0.0
H4408 H 0.75218 0.03884 0.61385 0.0
H4409 H 0.78563 0.99673 0.64224 0.0
C4410 C 0.78734 0.98333 0.6179 0.0
C4411 C 0.78141 0.98242 0.60071 0.0
C4412 C 0.75118 0.03506 0.62734 0.0
C4413 C 0.77045 0.00943 0.6222 0.0
C4414 C 0.73899 0.04326 0.63789 0.0
C4415 C 0.73651 0.03772 0.65507 0.0
C4416 C 0.76095 0.02123 0.63401 0.0
C4417 C 0.7477 0.02497 0.6617 0.0
C4418 C 0.78182 0.99679 0.62871 0.0
C4419 C 0.77129 0.99612 0.59431 0.0
N4420 N 0.75924 0.01692 0.65106 0.0
N4421 N 0.76593 0.00894 0.60513 0.0
H4422 H 0.69905 0.97709 0.37923 0.0
H4423 H 0.77141 0.05018 0.37326 0.0
H4424 H 0.7299 0.99499 0.42241 0.0
H4425 H 0.7515 0.02144 0.32952 0.0
H4426 H 0.74862 0.03773 0.3914 0.0
H4427 H 0.71052 0.0008 0.36163 0.0
C4428 C 0.70789 0.98625 0.38517 0.0
C4429 C 0.71388 0.98378 0.40221 0.0
C4430 C 0.74901 0.03448 0.37773 0.0
C4431 C 0.72706 0.01087 0.38208 0.0
C4432 C 0.76197 0.04164 0.36733 0.0
C4433 C 0.76365 0.03648 0.34993 0.0
C4434 C 0.73763 0.02215 0.37067 0.0
C4435 C 0.75092 0.02549 0.34295 0.0
C4436 C 0.71447 -0.00025 0.37507 0.0
C4437 C 0.72521 0.99618 0.40923 0.0
N4438 N 0.73863 0.01844 0.35342 0.0
N4439 N 0.73166 0.00903 0.39904 0.0
H4440 H 0.69144 0.016 0.11596 0.0
H4441 H 0.76972 0.94983 0.12683 0.0
H4442 H 0.72212 0.99607 0.07354 0.0
H4443 H 0.74806 0.98096 0.16802 0.0
H4444 H 0.74571 0.95865 0.10802 0.0
H4445 H 0.70522 0.9951 0.13532 0.0
C4446 C 0.70076 0.00695 0.11059 0.0
C4447 C 0.70599 0.00813 0.09318 0.0
C4448 C 0.74602 0.96321 0.12131 0.0
C4449 C 0.72188 0.98426 0.11535 0.0
C4450 C 0.75967 0.95812 0.13209 0.0
C4451 C 0.76109 0.965 0.14889 0.0
C4452 C 0.7337 0.97515 0.12744 0.0
C4453 C 0.74765 0.97563 0.15503 0.0
C4454 C 0.70866 0.99505 0.12169 0.0
C4455 C 0.71795 0.99588 0.08695 0.0
N4456 N 0.73466 0.98059 0.14422 0.0
N4457 N 0.72575 0.98467 0.0981 0.0
H4458 H 0.37806 0.69558 0.97852 0.0
H4459 H 0.36772 0.76753 0.05176 0.0
H4460 H 0.42082 0.72288 0.00223 0.0
H4461 H 0.32574 0.7483 0.02006 0.0
H4462 H 0.38652 0.74492 0.03999 0.0
H4463 H 0.35849 0.70836 -0.00013 0.0
C4464 C 0.38342 0.70398 0.98842 0.0
C4465 C 0.40107 0.70848 0.98832 0.0
C4466 C 0.3731 0.74545 0.03586 0.0
C4467 C 0.37867 0.72323 0.01272 0.0
C4468 C 0.36232 0.75833 0.04262 0.0
C4469 C 0.34521 0.76007 0.03659 0.0
C4470 C 0.36674 0.73424 0.02301 0.0
C4471 C 0.33893 0.74765 0.02485 0.0
C4472 C 0.37221 0.71131 0.00059 0.0
C4473 C 0.40727 0.71927 0.00162 0.0
N4474 N 0.34976 0.73543 0.01824 0.0
N4475 N 0.39603 0.72651 0.01312 0.0
H4476 H 0.97725 0.61879 0.8022 0.0
H4477 H 0.04872 0.62115 0.7279 0.0
H4478 H 0.99676 0.57355 0.77556 0.0
H4479 H 0.02171 0.66619 0.74736 0.0
H4480 H 0.03625 0.60395 0.75137 0.0
H4481 H -0.00012 0.63618 0.7885 0.0
C4482 C 0.98652 0.61241 0.79379 0.0
C4483 C 0.98483 0.59474 0.7897 0.0
C4484 C 0.0333 0.61767 0.75068 0.0
C4485 C 0.01066 0.61464 0.77388 0.0
C4486 C 0.04046 0.62753 0.7373 0.0
C4487 C 0.03593 0.64507 0.7354 0.0
C4488 C 0.02154 0.6254 0.76224 0.0
C4489 C 0.02531 0.65264 0.74811 0.0
C4490 C -0.0006 0.62238 0.78592 0.0
C4491 C 0.99735 0.58718 0.77884 0.0
N4492 N 0.01825 0.6427 0.76083 0.0
N4493 N 0.00956 0.59723 0.77108 0.0
H4494 H 0.07875 0.26959 0.49885 0.0
H4495 H 0.17512 0.24622 0.52332 0.0
H4496 H 0.12326 0.29557 0.47695 0.0
H4497 H 0.13066 0.22675 0.55124 0.0
H4498 H 0.15659 0.26798 0.50971 0.0
H4499 H 0.09733 0.25761 0.5215 0.0
C4500 C 0.09236 0.27306 0.49899 0.0
C4501 C 0.09952 0.28329 0.48574 0.0
C4502 C 0.15094 0.25917 0.51906 0.0
C4503 C 0.12093 0.26938 0.5115 0.0
C4504 C 0.16153 0.24671 0.52684 0.0
C4505 C 0.15437 0.23439 0.53817 0.0
C4506 C 0.13302 0.25913 0.52243 0.0
C4507 C 0.1367 0.23581 0.5424 0.0
C4508 C 0.10299 0.26619 0.51194 0.0
C4509 C 0.11721 0.28752 0.48673 0.0
N4510 N 0.12657 0.24772 0.53426 0.0
N4511 N 0.12737 0.28026 0.49917 0.0
H4512 H 0.00042 0.41993 0.72229 0.0
H4513 H 0.01922 0.32297 0.74922 0.0
H4514 H 0.97434 0.37575 0.69986 0.0
H4515 H 0.04864 0.3667 0.76811 0.0
H4516 H 0.00685 0.34144 0.72672 0.0
H4517 H 0.02206 0.40041 0.73468 0.0
C4518 C -0.0006 0.40616 0.7197 0.0
C4519 C 0.9853 0.39944 0.71035 0.0
C4520 C 0.01626 0.34694 0.73557 0.0
C4521 C 0.00993 0.37699 0.72468 0.0
C4522 C 0.02337 0.33636 0.74843 0.0
C4523 C 0.03469 0.34338 0.76084 0.0
C4524 C 0.02033 0.3647 0.73525 0.0
C4525 C 0.03975 0.36078 0.759 0.0
C4526 C 0.01178 0.395 0.72679 0.0
C4527 C 0.98481 0.3815 0.70723 0.0
N4528 N 0.03226 0.37093 0.74669 0.0
N4529 N 0.99674 0.37088 0.71465 0.0
H4530 H 0.44711 0.62508 0.27027 0.0
H4531 H 0.51685 0.61743 0.19452 0.0
H4532 H 0.47607 0.66823 0.2494 0.0
H4533 H 0.49606 0.57371 0.22269 0.0
H4534 H 0.49576 0.63623 0.20876 0.0
H4535 H 0.45864 0.60665 0.24723 0.0
C4536 C 0.45559 0.6308 0.26064 0.0
C4537 C 0.46093 0.64817 0.262 0.0
C4538 C 0.49562 0.62247 0.21161 0.0
C4539 C 0.47423 0.62707 0.23568 0.0
C4540 C 0.50765 0.6117 0.20346 0.0
C4541 C 0.50849 0.594 0.2077 0.0
C4542 C 0.48437 0.61553 0.22412 0.0
C4543 C 0.49607 0.58731 0.21921 0.0
C4544 C 0.46222 0.62023 0.24752 0.0
C4545 C 0.47183 0.65486 0.24904 0.0
N4546 N 0.48469 0.59814 0.22723 0.0
N4547 N 0.47832 0.64423 0.23657 0.0
H4548 H 0.54784 0.62908 0.77228 0.0
H4549 H 0.47848 0.61934 0.69684 0.0
H4550 H 0.51771 0.67103 0.75067 0.0
H4551 H 0.49843 0.57675 0.72727 0.0
H4552 H 0.50073 0.63813 0.70919 0.0
H4553 H 0.53776 0.61023 0.74882 0.0
C4554 C 0.53952 0.63448 0.76233 0.0
C4555 C 0.53325 0.65153 0.76365 0.0
C4556 C 0.50046 0.62458 0.71288 0.0
C4557 C 0.52165 0.63004 0.7369 0.0
C4558 C 0.48778 0.61381 0.7058 0.0
C4559 C 0.48625 0.59655 0.71142 0.0
C4560 C 0.51165 0.61807 0.72569 0.0
C4561 C 0.49887 0.59007 0.72285 0.0
C4562 C 0.53371 0.62368 0.749 0.0
C4563 C 0.52256 0.65785 0.75035 0.0
N4564 N 0.51084 0.60093 0.72988 0.0
N4565 N 0.51687 0.64702 0.73769 0.0
H4566 H 0.91859 0.27441 -0.00022 0.0
H4567 H 0.82236 0.24811 0.021 0.0
H4568 H 0.8739 0.29988 0.97763 0.0
H4569 H 0.86673 0.22764 0.04836 0.0
H4570 H 0.84059 0.27118 0.00935 0.0
H4571 H 0.8999 0.26149 0.0218 0.0
C4572 C 0.90491 0.27759 -0.00024 0.0
C4573 C 0.89775 0.28792 0.98657 0.0
C4574 C 0.84629 0.26186 0.01817 0.0
C4575 C 0.87621 0.27293 0.0116 0.0
C4576 C 0.83586 0.24866 0.02485 0.0
C4577 C 0.84311 0.23568 0.03536 0.0
C4578 C 0.86415 0.26193 0.02182 0.0
C4579 C 0.86063 0.23722 0.04009 0.0
C4580 C 0.89421 0.27018 0.01235 0.0
C4581 C 0.87996 0.29177 0.98736 0.0
N4582 N 0.87064 0.24987 0.03299 0.0
N4583 N 0.86975 0.28397 -0.00058 0.0
H4584 H 0.57773 0.72146 0.50007 0.0
H4585 H 0.67376 0.74241 0.52892 0.0
H4586 H 0.62297 0.69641 0.47855 0.0
H4587 H 0.62836 0.76532 0.55238 0.0
H4588 H 0.65527 0.72084 0.515 0.0
H4589 H 0.59561 0.73278 0.52359 0.0
C4590 C 0.59136 0.71806 0.50045 0.0
C4591 C 0.59893 0.7083 0.48708 0.0
C4592 C 0.64937 0.73038 0.52345 0.0
C4593 C 0.61954 0.72143 0.51388 0.0
C4594 C 0.65994 0.74271 0.53144 0.0
C4595 C 0.65256 0.75596 0.54151 0.0
C4596 C 0.63128 0.73144 0.52539 0.0
C4597 C 0.6346 0.75553 0.54449 0.0
C4598 C 0.60158 0.72455 0.51391 0.0
C4599 C 0.61661 0.70411 0.48842 0.0
N4600 N 0.62454 0.74369 0.53618 0.0
N4601 N 0.62638 0.71099 0.50137 0.0
H4602 H 0.72178 0.50101 0.57306 0.0
H4603 H 0.74892 0.52001 0.67006 0.0
H4604 H 0.69657 0.47805 0.61749 0.0
H4605 H 0.76966 0.54791 0.62616 0.0
H4606 H 0.72621 0.50828 0.65141 0.0
H4607 H 0.73584 0.52186 0.59231 0.0
C4608 C 0.71893 0.50054 0.58682 0.0
C4609 C 0.70825 0.48752 0.5937 0.0
C4610 C 0.73553 0.51721 0.64591 0.0
C4611 C 0.72448 0.51122 0.61584 0.0
C4612 C 0.74852 0.52394 0.65657 0.0
C4613 C 0.76143 0.53469 0.6496 0.0
C4614 C 0.7356 0.52108 0.62808 0.0
C4615 C 0.76011 0.53949 0.63206 0.0
C4616 C 0.727 0.51246 0.59782 0.0
C4617 C 0.70492 0.48767 0.61161 0.0
N4618 N 0.74764 0.53238 0.62184 0.0
N4619 N 0.71325 0.49913 0.62208 0.0
H4620 H 0.68813 0.51861 0.88249 0.0
H4621 H 0.76448 0.45014 0.87344 0.0
H4622 H 0.71778 0.49837 0.92549 0.0
H4623 H 0.74239 0.47933 0.83107 0.0
H4624 H 0.74088 0.46011 0.89215 0.0
H4625 H 0.7011 0.49672 0.86368 0.0
C4626 C 0.69706 0.50932 0.8881 0.0
C4627 C 0.70225 0.51065 0.90551 0.0
C4628 C 0.741 0.464 0.87865 0.0
C4629 C 0.71724 0.48567 0.88396 0.0
C4630 C 0.75442 0.45826 0.86793 0.0
C4631 C 0.75563 0.46427 0.85078 0.0
C4632 C 0.72871 0.47578 0.87213 0.0
C4633 C 0.74217 0.47468 0.84432 0.0
C4634 C 0.7045 0.49685 0.87731 0.0
C4635 C 0.71367 0.49807 0.91207 0.0
N4636 N 0.72942 0.48033 0.85508 0.0
N4637 N 0.72106 0.48631 0.90121 0.0
H4638 H 0.7741 0.49863 0.07674 0.0
H4639 H 0.74573 0.48089 0.17279 0.0
H4640 H 0.79949 0.5215 0.1211 0.0
H4641 H 0.72711 0.451 0.12925 0.0
H4642 H 0.76934 0.49178 0.15476 0.0
H4643 H 0.76087 0.47715 0.09585 0.0
C4644 C 0.7772 0.49893 0.09044 0.0
C4645 C 0.78757 0.51217 0.09738 0.0
C4646 C 0.76031 0.48256 0.14923 0.0
C4647 C 0.77224 0.48777 0.11938 0.0
C4648 C 0.74681 0.47632 0.15954 0.0
C4649 C 0.73418 0.46533 0.15241 0.0
C4650 C 0.76102 0.478 0.13159 0.0
C4651 C 0.73639 0.45967 0.13523 0.0
C4652 C 0.76962 0.48664 0.10137 0.0
C4653 C 0.79132 0.51173 0.11521 0.0
N4654 N 0.74931 0.46637 0.12529 0.0
N4655 N 0.78335 0.49999 0.12564 0.0
H4656 H 0.7748 0.50278 0.42449 0.0
H4657 H 0.74875 0.51833 0.32737 0.0
H4658 H 0.80284 0.48123 0.38105 0.0
H4659 H 0.72647 0.54705 0.36993 0.0
H4660 H 0.77229 0.50905 0.34634 0.0
H4661 H 0.76089 0.52335 0.40485 0.0
C4662 C 0.77834 0.50261 0.41089 0.0
C4663 C 0.78968 0.48995 0.40435 0.0
C4664 C 0.76247 0.51767 0.35149 0.0
C4665 C 0.77359 0.51331 0.38175 0.0
C4666 C 0.74901 0.52297 0.34063 0.0
C4667 C 0.73545 0.53319 0.34718 0.0
C4668 C 0.76218 0.52231 0.36911 0.0
C4669 C 0.73656 0.53902 0.3644 0.0
C4670 C 0.77036 0.51437 0.39966 0.0
C4671 C 0.79393 0.49053 0.38664 0.0
N4672 N 0.74948 0.53317 0.37489 0.0
N4673 N 0.78561 0.50175 0.37591 0.0
H4674 H 0.49174 0.42749 0.27587 0.0
H4675 H 0.46945 0.33045 0.25272 0.0
H4676 H 0.5134 0.38334 0.30265 0.0
H4677 H 0.44383 0.37454 0.22958 0.0
H4678 H 0.48108 0.34942 0.2752 0.0
H4679 H 0.46981 0.40857 0.26312 0.0
C4680 C 0.49169 0.41389 0.27936 0.0
C4681 C 0.5047 0.40694 0.29003 0.0
C4682 C 0.47265 0.35491 0.26541 0.0
C4683 C 0.47975 0.38513 0.27527 0.0
C4684 C 0.46597 0.34406 0.25255 0.0
C4685 C 0.45598 0.35097 0.23899 0.0
C4686 C 0.4695 0.37285 0.26456 0.0
C4687 C 0.45171 0.36867 0.23961 0.0
C4688 C 0.47915 0.40306 0.27205 0.0
C4689 C 0.50382 0.38924 0.29426 0.0
N4690 N 0.4588 0.37906 0.25196 0.0
N4691 N 0.49179 0.37889 0.28659 0.0
H4692 H 0.12987 0.69852 0.02282 0.0
H4693 H 0.13432 0.7662 0.94514 0.0
H4694 H 0.08525 0.72378 0.00028 0.0
H4695 H 0.17876 0.74791 0.97391 0.0
H4696 H 0.11651 0.74418 0.95933 0.0
H4697 H 0.14776 0.7099 -0.00069 0.0
C4698 C 0.12374 0.70618 0.01276 0.0
C4699 C 0.10609 0.71056 0.01377 0.0
C4700 C 0.13024 0.74476 0.96227 0.0
C4701 C 0.12656 0.7237 0.98687 0.0
C4702 C 0.14045 0.75729 0.95412 0.0
C4703 C 0.15799 0.75918 0.95865 0.0
C4704 C 0.13762 0.73406 0.97504 0.0
C4705 C 0.16522 0.74716 0.97027 0.0
C4706 C 0.13399 0.7127 -0.00066 0.0
C4707 C 0.09886 0.72034 0.00021 0.0
N4708 N 0.15494 0.7353 0.97828 0.0
N4709 N 0.10918 0.72683 0.98748 0.0
H4710 H 0.42594 0.27085 0.49619 0.0
H4711 H 0.32793 0.25325 0.47576 0.0
H4712 H 0.38411 0.30229 0.51614 0.0
H4713 H 0.36982 0.22816 0.4484 0.0
H4714 H 0.34827 0.27504 0.48631 0.0
H4715 H 0.4062 0.25899 0.47447 0.0
C4716 C 0.41271 0.27556 0.49578 0.0
C4717 C 0.40658 0.28727 0.5083 0.0
C4718 C 0.35299 0.265 0.4777 0.0
C4719 C 0.38383 0.27353 0.48362 0.0
C4720 C 0.34135 0.25254 0.47166 0.0
C4721 C 0.34725 0.23867 0.46148 0.0
C4722 C 0.37072 0.26338 0.47382 0.0
C4723 C 0.36474 0.23853 0.45639 0.0
C4724 C 0.40142 0.26876 0.48336 0.0
C4725 C 0.38936 0.29306 0.50695 0.0
N4726 N 0.37595 0.25046 0.46295 0.0
N4727 N 0.3785 0.28585 0.49511 0.0
H4728 H 0.27898 0.4941 0.42915 0.0
H4729 H 0.24813 0.47875 0.33412 0.0
H4730 H 0.30645 0.51382 0.38452 0.0
H4731 H 0.22839 0.44961 0.37767 0.0
H4732 H 0.27315 0.48718 0.35155 0.0
H4733 H 0.26429 0.47323 0.41045 0.0
C4734 C 0.28225 0.49377 0.41549 0.0
C4735 C 0.29361 0.50605 0.40832 0.0
C4736 C 0.26355 0.47863 0.3572 0.0
C4737 C 0.27658 0.48243 0.38677 0.0
C4738 C 0.24924 0.47382 0.34723 0.0
C4739 C 0.23593 0.46382 0.35458 0.0
C4740 C 0.26439 0.47368 0.37473 0.0
C4741 C 0.23819 0.45758 0.37155 0.0
C4742 C 0.27384 0.48184 0.40478 0.0
C4743 C 0.29754 0.50482 0.39057 0.0
N4744 N 0.25193 0.46296 0.38119 0.0
N4745 N 0.28871 0.49353 0.38033 0.0
H4746 H 0.247 0.51417 0.16712 0.0
H4747 H 0.27531 0.50179 0.07011 0.0
H4748 H 0.22432 0.54292 0.12478 0.0
H4749 H 0.30307 0.48006 0.11364 0.0
H4750 H 0.26033 0.52143 0.08994 0.0
H4751 H 0.27118 0.5062 0.14836 0.0
C4752 C 0.2473 0.5191 0.15396 0.0
C4753 C 0.23346 0.52892 0.1474 0.0
C4754 C 0.26997 0.51263 0.09512 0.0
C4755 C 0.26092 0.51953 0.12569 0.0
C4756 C 0.27856 0.50141 0.08377 0.0
C4757 C 0.29014 0.48893 0.09026 0.0
C4758 C 0.27285 0.51122 0.11307 0.0
C4759 C 0.29397 0.4892 0.10807 0.0
C4760 C 0.26112 0.51454 0.14323 0.0
C4761 C 0.23463 0.53515 0.13032 0.0
N4762 N 0.28509 0.49989 0.11888 0.0
N4763 N 0.24791 0.53001 0.11992 0.0
H4764 H 0.26922 0.54773 0.8768 0.0
H4765 H 0.19217 0.47951 0.88155 0.0
H4766 H 0.24848 0.52018 0.83266 0.0
H4767 H 0.2188 0.50034 0.9262 0.0
H4768 H 0.20673 0.50088 0.8633 0.0
H4769 H 0.24512 0.53707 0.89436 0.0
C4770 C 0.25942 0.53973 0.87069 0.0
C4771 C 0.26112 0.53449 0.85332 0.0
C4772 C 0.20913 0.50099 0.87714 0.0
C4773 C 0.23356 0.52217 0.8734 0.0
C4774 C 0.20077 0.48882 0.8876 0.0
C4775 C 0.2046 0.48784 0.90539 0.0
C4776 C 0.22143 0.51222 0.88451 0.0
C4777 C 0.21571 0.50039 0.9125 0.0
C4778 C 0.24567 0.53362 0.88075 0.0
C4779 C 0.24789 0.52429 0.84608 0.0
N4780 N 0.22397 0.51186 0.90199 0.0
N4781 N 0.23483 0.51822 0.85623 0.0
H4782 H 0.22682 0.49632 0.56989 0.0
H4783 H 0.24781 0.47279 0.66686 0.0
H4784 H 0.19863 0.51732 0.61349 0.0
H4785 H 0.27003 0.44593 0.62302 0.0
H4786 H 0.2258 0.48509 0.64773 0.0
H4787 H 0.23867 0.47388 0.5888 0.0
C4788 C 0.22284 0.49601 0.58337 0.0
C4789 C 0.21202 0.50896 0.59019 0.0
C4790 C 0.23527 0.47623 0.64234 0.0
C4791 C 0.22578 0.48346 0.612 0.0
C4792 C 0.24786 0.46918 0.65328 0.0
C4793 C 0.26105 0.45863 0.64648 0.0
C4794 C 0.23603 0.4729 0.62442 0.0
C4795 C 0.26029 0.45423 0.62881 0.0
C4796 C 0.22962 0.48317 0.59418 0.0
C4797 C 0.20713 0.50775 0.6077 0.0
N4798 N 0.24824 0.46168 0.61834 0.0
N4799 N 0.21434 0.49547 0.61809 0.0
loop_
_geom_bond_atom_site_label_1
_geom_bond_atom_site_label_2
_geom_bond_distance
_geom_bond_site_symmetry_2
_ccdc_geom_bond_type
Zn0 O3 2.031 . S
Zn0 O5 2.049 . S
Zn0 O10 2.067 . S
Zn1 O2 1.962 . S
Zn1 O4 1.986 . S
Zn1 O6 1.996 . S
Zn1 O9 1.943 . S
O2 Zn1 1.962 . S
O2 C7 1.254 . S
O3 Zn0 2.031 . S
O3 C7 1.269 . S
O4 Zn1 1.986 . S
O4 C11 1.262 . S
O5 Zn0 2.049 . S
O5 C13 1.260 . S
O6 Zn1 1.996 . S
O6 C13 1.257 . S
C7 O2 1.254 . S
C7 O3 1.269 . S
C8 O9 1.249 . S
C8 O10 1.270 . S
O9 Zn1 1.943 . S
O9 C8 1.249 . S
O10 Zn0 2.067 . S
O10 C8 1.270 . S
C11 O4 1.262 . S
C11 O12 1.232 . S
O12 C11 1.232 . S
C13 O5 1.260 . S
C13 O6 1.257 . S
Zn14 O17 2.031 . S
Zn14 O19 2.049 . S
Zn14 O24 2.067 . S
Zn15 O16 1.962 . S
Zn15 O18 1.986 . S
Zn15 O20 1.996 . S
Zn15 O23 1.943 . S
O16 Zn15 1.962 . S
O16 C21 1.254 . S
O17 Zn14 2.031 . S
O17 C21 1.269 . S
O18 Zn15 1.986 . S
O18 C25 1.262 . S
O19 Zn14 2.049 . S
O19 C27 1.260 . S
O20 Zn15 1.996 . S
O20 C27 1.257 . S
C21 O16 1.254 . S
C21 O17 1.269 . S
C22 O23 1.249 . S
C22 O24 1.270 . S
O23 Zn15 1.943 . S
O23 C22 1.249 . S
O24 Zn14 2.067 . S
O24 C22 1.270 . S
C25 O18 1.262 . S
C25 O26 1.232 . S
O26 C25 1.232 . S
C27 O19 1.260 . S
C27 O20 1.257 . S
Zn28 O31 2.031 . S
Zn28 O33 2.049 . S
Zn28 O38 2.067 . S
Zn29 O30 1.962 . S
Zn29 O32 1.986 . S
Zn29 O34 1.996 . S
Zn29 O37 1.943 . S
O30 Zn29 1.962 . S
O30 C35 1.254 . S
O31 Zn28 2.031 . S
O31 C35 1.269 . S
O32 Zn29 1.986 . S
O32 C39 1.262 . S
O33 Zn28 2.049 . S
O33 C41 1.260 . S
O34 Zn29 1.996 . S
O34 C41 1.257 . S
C35 O30 1.254 . S
C35 O31 1.269 . S
C36 O37 1.249 . S
C36 O38 1.270 . S
O37 Zn29 1.943 . S
O37 C36 1.249 . S
O38 Zn28 2.067 . S
O38 C36 1.270 . S
C39 O32 1.262 . S
C39 O40 1.232 . S
O40 C39 1.232 . S
C41 O33 1.260 . S
C41 O34 1.257 . S
Zn42 O45 2.031 . S
Zn42 O47 2.049 . S
Zn42 O52 2.067 . S
Zn43 O44 1.962 . S
Zn43 O46 1.986 . S
Zn43 O48 1.996 . S
Zn43 O51 1.943 . S
O44 Zn43 1.962 . S
O44 C49 1.254 . S
O45 Zn42 2.031 . S
O45 C49 1.269 . S
O46 Zn43 1.986 . S
O46 C53 1.262 . S
O47 Zn42 2.049 . S
O47 C55 1.260 . S
O48 Zn43 1.996 . S
O48 C55 1.257 . S
C49 O44 1.254 . S
C49 O45 1.269 . S
C50 O51 1.249 . S
C50 O52 1.270 . S
O51 Zn43 1.943 . S
O51 C50 1.249 . S
O52 Zn42 2.067 . S
O52 C50 1.270 . S
C53 O46 1.262 . S
C53 O54 1.232 . S
O54 C53 1.232 . S
C55 O47 1.260 . S
C55 O48 1.257 . S
Zn56 O59 2.031 . S
Zn56 O61 2.049 . S
Zn56 O66 2.067 . S
Zn57 O58 1.962 . S
Zn57 O60 1.986 . S
Zn57 O62 1.996 . S
Zn57 O65 1.943 . S
O58 Zn57 1.962 . S
O58 C63 1.254 . S
O59 Zn56 2.031 . S
O59 C63 1.269 . S
O60 Zn57 1.986 . S
O60 C67 1.262 . S
O61 Zn56 2.049 . S
O61 C69 1.260 . S
O62 Zn57 1.996 . S
O62 C69 1.257 . S
C63 O58 1.254 . S
C63 O59 1.269 . S
C64 O65 1.249 . S
C64 O66 1.270 . S
O65 Zn57 1.943 . S
O65 C64 1.249 . S
O66 Zn56 2.067 . S
O66 C64 1.270 . S
C67 O60 1.262 . S
C67 O68 1.232 . S
O68 C67 1.232 . S
C69 O61 1.260 . S
C69 O62 1.257 . S
Zn70 O73 2.031 . S
Zn70 O75 2.049 . S
Zn70 O80 2.067 . S
Zn71 O72 1.962 . S
Zn71 O74 1.986 . S
Zn71 O76 1.996 . S
Zn71 O79 1.943 . S
O72 Zn71 1.962 . S
O72 C77 1.254 . S
O73 Zn70 2.031 . S
O73 C77 1.269 . S
O74 Zn71 1.986 . S
O74 C81 1.262 . S
O75 Zn70 2.049 . S
O75 C83 1.260 . S
O76 Zn71 1.996 . S
O76 C83 1.257 . S
C77 O72 1.254 . S
C77 O73 1.269 . S
C78 O79 1.249 . S
C78 O80 1.270 . S
O79 Zn71 1.943 . S
O79 C78 1.249 . S
O80 Zn70 2.067 . S
O80 C78 1.270 . S
C81 O74 1.262 . S
C81 O82 1.232 . S
O82 C81 1.232 . S
C83 O75 1.260 . S
C83 O76 1.257 . S
Zn84 O87 2.031 . S
Zn84 O89 2.049 . S
Zn84 O94 2.067 . S
Zn85 O86 1.962 . S
Zn85 O88 1.986 . S
Zn85 O90 1.996 . S
Zn85 O93 1.943 . S
O86 Zn85 1.962 . S
O86 C91 1.254 . S
O87 Zn84 2.031 . S
O87 C91 1.269 . S
O88 Zn85 1.986 . S
O88 C95 1.262 . S
O89 Zn84 2.049 . S
O89 C97 1.260 . S
O90 Zn85 1.996 . S
O90 C97 1.257 . S
C91 O86 1.254 . S
C91 O87 1.269 . S
C92 O93 1.249 . S
C92 O94 1.270 . S
O93 Zn85 1.943 . S
O93 C92 1.249 . S
O94 Zn84 2.067 . S
O94 C92 1.270 . S
C95 O88 1.262 . S
C95 O96 1.232 . S
O96 C95 1.232 . S
C97 O89 1.260 . S
C97 O90 1.257 . S
Zn98 O101 2.031 . S
Zn98 O103 2.049 . S
Zn98 O108 2.067 . S
Zn99 O100 1.962 . S
Zn99 O102 1.986 . S
Zn99 O104 1.996 . S
Zn99 O107 1.943 . S
O100 Zn99 1.962 . S
O100 C105 1.254 . S
O101 Zn98 2.031 . S
O101 C105 1.269 . S
O102 Zn99 1.986 . S
O102 C109 1.262 . S
O103 Zn98 2.049 . S
O103 C111 1.260 . S
O104 Zn99 1.996 . S
O104 C111 1.257 . S
C105 O100 1.254 . S
C105 O101 1.269 . S
C106 O107 1.249 . S
C106 O108 1.270 . S
O107 Zn99 1.943 . S
O107 C106 1.249 . S
O108 Zn98 2.067 . S
O108 C106 1.270 . S
C109 O102 1.262 . S
C109 O110 1.232 . S
O110 C109 1.232 . S
C111 O103 1.260 . S
C111 O104 1.257 . S
Zn112 O115 2.031 . S
Zn112 O117 2.049 . S
Zn112 O122 2.067 . S
Zn113 O114 1.962 . S
Zn113 O116 1.986 . S
Zn113 O118 1.996 . S
Zn113 O121 1.943 . S
O114 Zn113 1.962 . S
O114 C119 1.254 . S
O115 Zn112 2.031 . S
O115 C119 1.269 . S
O116 Zn113 1.986 . S
O116 C123 1.262 . S
O117 Zn112 2.049 . S
O117 C125 1.260 . S
O118 Zn113 1.996 . S
O118 C125 1.257 . S
C119 O114 1.254 . S
C119 O115 1.269 . S
C120 O121 1.249 . S
C120 O122 1.270 . S
O121 Zn113 1.943 . S
O121 C120 1.249 . S
O122 Zn112 2.067 . S
O122 C120 1.270 . S
C123 O116 1.262 . S
C123 O124 1.232 . S
O124 C123 1.232 . S
C125 O117 1.260 . S
C125 O118 1.257 . S
Zn126 O129 2.031 . S
Zn126 O131 2.049 . S
Zn126 O136 2.067 . S
Zn127 O128 1.962 . S
Zn127 O130 1.986 . S
Zn127 O132 1.996 . S
Zn127 O135 1.943 . S
O128 Zn127 1.962 . S
O128 C133 1.254 . S
O129 Zn126 2.031 . S
O129 C133 1.269 . S
O130 Zn127 1.986 . S
O130 C137 1.262 . S
O131 Zn126 2.049 . S
O131 C139 1.260 . S
O132 Zn127 1.996 . S
O132 C139 1.257 . S
C133 O128 1.254 . S
C133 O129 1.269 . S
C134 O135 1.249 . S
C134 O136 1.270 . S
O135 Zn127 1.943 . S
O135 C134 1.249 . S
O136 Zn126 2.067 . S
O136 C134 1.270 . S
C137 O130 1.262 . S
C137 O138 1.232 . S
O138 C137 1.232 . S
C139 O131 1.260 . S
C139 O132 1.257 . S
Zn140 O143 2.031 . S
Zn140 O145 2.049 . S
Zn140 O150 2.067 . S
Zn141 O142 1.962 . S
Zn141 O144 1.986 . S
Zn141 O146 1.996 . S
Zn141 O149 1.943 . S
O142 Zn141 1.962 . S
O142 C147 1.254 . S
O143 Zn140 2.031 . S
O143 C147 1.269 . S
O144 Zn141 1.986 . S
O144 C151 1.262 . S
O145 Zn140 2.049 . S
O145 C153 1.260 . S
O146 Zn141 1.996 . S
O146 C153 1.257 . S
C147 O142 1.254 . S
C147 O143 1.269 . S
C148 O149 1.249 . S
C148 O150 1.270 . S
O149 Zn141 1.943 . S
O149 C148 1.249 . S
O150 Zn140 2.067 . S
O150 C148 1.270 . S
C151 O144 1.262 . S
C151 O152 1.232 . S
O152 C151 1.232 . S
C153 O145 1.260 . S
C153 O146 1.257 . S
Zn154 O157 2.031 . S
Zn154 O159 2.049 . S
Zn154 O164 2.067 . S
Zn155 O156 1.962 . S
Zn155 O158 1.986 . S
Zn155 O160 1.996 . S
Zn155 O163 1.943 . S
O156 Zn155 1.962 . S
O156 C161 1.254 . S
O157 Zn154 2.031 . S
O157 C161 1.269 . S
O158 Zn155 1.986 . S
O158 C165 1.262 . S
O159 Zn154 2.049 . S
O159 C167 1.260 . S
O160 Zn155 1.996 . S
O160 C167 1.257 . S
C161 O156 1.254 . S
C161 O157 1.269 . S
C162 O163 1.249 . S
C162 O164 1.270 . S
O163 Zn155 1.943 . S
O163 C162 1.249 . S
O164 Zn154 2.067 . S
O164 C162 1.270 . S
C165 O158 1.262 . S
C165 O166 1.232 . S
O166 C165 1.232 . S
C167 O159 1.260 . S
C167 O160 1.257 . S
Zn168 O171 2.031 . S
Zn168 O173 2.049 . S
Zn168 O178 2.067 . S
Zn169 O170 1.962 . S
Zn169 O172 1.986 . S
Zn169 O174 1.996 . S
Zn169 O177 1.943 . S
O170 Zn169 1.962 . S
O170 C175 1.254 . S
O171 Zn168 2.031 . S
O171 C175 1.269 . S
O172 Zn169 1.986 . S
O172 C179 1.262 . S
O173 Zn168 2.049 . S
O173 C181 1.260 . S
O174 Zn169 1.996 . S
O174 C181 1.257 . S
C175 O170 1.254 . S
C175 O171 1.269 . S
C176 O177 1.249 . S
C176 O178 1.270 . S
O177 Zn169 1.943 . S
O177 C176 1.249 . S
O178 Zn168 2.067 . S
O178 C176 1.270 . S
C179 O172 1.262 . S
C179 O180 1.232 . S
O180 C179 1.232 . S
C181 O173 1.260 . S
C181 O174 1.257 . S
Zn182 O185 2.031 . S
Zn182 O187 2.049 . S
Zn182 O192 2.067 . S
Zn183 O184 1.962 . S
Zn183 O186 1.986 . S
Zn183 O188 1.996 . S
Zn183 O191 1.943 . S
O184 Zn183 1.962 . S
O184 C189 1.254 . S
O185 Zn182 2.031 . S
O185 C189 1.269 . S
O186 Zn183 1.986 . S
O186 C193 1.262 . S
O187 Zn182 2.049 . S
O187 C195 1.260 . S
O188 Zn183 1.996 . S
O188 C195 1.257 . S
C189 O184 1.254 . S
C189 O185 1.269 . S
C190 O191 1.249 . S
C190 O192 1.270 . S
O191 Zn183 1.943 . S
O191 C190 1.249 . S
O192 Zn182 2.067 . S
O192 C190 1.270 . S
C193 O186 1.262 . S
C193 O194 1.232 . S
O194 C193 1.232 . S
C195 O187 1.260 . S
C195 O188 1.257 . S
Zn196 O199 2.031 . S
Zn196 O201 2.049 . S
Zn196 O206 2.067 . S
Zn197 O198 1.962 . S
Zn197 O200 1.986 . S
Zn197 O202 1.996 . S
Zn197 O205 1.943 . S
O198 Zn197 1.962 . S
O198 C203 1.254 . S
O199 Zn196 2.031 . S
O199 C203 1.269 . S
O200 Zn197 1.986 . S
O200 C207 1.262 . S
O201 Zn196 2.049 . S
O201 C209 1.260 . S
O202 Zn197 1.996 . S
O202 C209 1.257 . S
C203 O198 1.254 . S
C203 O199 1.269 . S
C204 O205 1.249 . S
C204 O206 1.270 . S
O205 Zn197 1.943 . S
O205 C204 1.249 . S
O206 Zn196 2.067 . S
O206 C204 1.270 . S
C207 O200 1.262 . S
C207 O208 1.232 . S
O208 C207 1.232 . S
C209 O201 1.260 . S
C209 O202 1.257 . S
Zn210 O213 2.031 . S
Zn210 O215 2.049 . S
Zn210 O220 2.067 . S
Zn211 O212 1.962 . S
Zn211 O214 1.986 . S
Zn211 O216 1.996 . S
Zn211 O219 1.943 . S
O212 Zn211 1.962 . S
O212 C217 1.254 . S
O213 Zn210 2.031 . S
O213 C217 1.269 . S
O214 Zn211 1.986 . S
O214 C221 1.262 . S
O215 Zn210 2.049 . S
O215 C223 1.260 . S
O216 Zn211 1.996 . S
O216 C223 1.257 . S
C217 O212 1.254 . S
C217 O213 1.269 . S
C218 O219 1.249 . S
C218 O220 1.270 . S
O219 Zn211 1.943 . S
O219 C218 1.249 . S
O220 Zn210 2.067 . S
O220 C218 1.270 . S
C221 O214 1.262 . S
C221 O222 1.232 . S
O222 C221 1.232 . S
C223 O215 1.260 . S
C223 O216 1.257 . S
Zn224 O227 2.031 . S
Zn224 O229 2.049 . S
Zn224 O234 2.067 . S
Zn225 O226 1.962 . S
Zn225 O228 1.986 . S
Zn225 O230 1.996 . S
Zn225 O233 1.943 . S
O226 Zn225 1.962 . S
O226 C231 1.254 . S
O227 Zn224 2.031 . S
O227 C231 1.269 . S
O228 Zn225 1.986 . S
O228 C235 1.262 . S
O229 Zn224 2.049 . S
O229 C237 1.260 . S
O230 Zn225 1.996 . S
O230 C237 1.257 . S
C231 O226 1.254 . S
C231 O227 1.269 . S
C232 O233 1.249 . S
C232 O234 1.270 . S
O233 Zn225 1.943 . S
O233 C232 1.249 . S
O234 Zn224 2.067 . S
O234 C232 1.270 . S
C235 O228 1.262 . S
C235 O236 1.232 . S
O236 C235 1.232 . S
C237 O229 1.260 . S
C237 O230 1.257 . S
Zn238 O241 2.031 . S
Zn238 O243 2.049 . S
Zn238 O248 2.067 . S
Zn239 O240 1.962 . S
Zn239 O242 1.986 . S
Zn239 O244 1.996 . S
Zn239 O247 1.943 . S
O240 Zn239 1.962 . S
O240 C245 1.254 . S
O241 Zn238 2.031 . S
O241 C245 1.269 . S
O242 Zn239 1.986 . S
O242 C249 1.262 . S
O243 Zn238 2.049 . S
O243 C251 1.260 . S
O244 Zn239 1.996 . S
O244 C251 1.257 . S
C245 O240 1.254 . S
C245 O241 1.269 . S
C246 O247 1.249 . S
C246 O248 1.270 . S
O247 Zn239 1.943 . S
O247 C246 1.249 . S
O248 Zn238 2.067 . S
O248 C246 1.270 . S
C249 O242 1.262 . S
C249 O250 1.232 . S
O250 C249 1.232 . S
C251 O243 1.260 . S
C251 O244 1.257 . S
Zn252 O255 2.031 . S
Zn252 O257 2.049 . S
Zn252 O262 2.067 . S
Zn253 O254 1.962 . S
Zn253 O256 1.986 . S
Zn253 O258 1.996 . S
Zn253 O261 1.943 . S
O254 Zn253 1.962 . S
O254 C259 1.254 . S
O255 Zn252 2.031 . S
O255 C259 1.269 . S
O256 Zn253 1.986 . S
O256 C263 1.262 . S
O257 Zn252 2.049 . S
O257 C265 1.260 . S
O258 Zn253 1.996 . S
O258 C265 1.257 . S
C259 O254 1.254 . S
C259 O255 1.269 . S
C260 O261 1.249 . S
C260 O262 1.270 . S
O261 Zn253 1.943 . S
O261 C260 1.249 . S
O262 Zn252 2.067 . S
O262 C260 1.270 . S
C263 O256 1.262 . S
C263 O264 1.232 . S
O264 C263 1.232 . S
C265 O257 1.260 . S
C265 O258 1.257 . S
Zn266 O269 2.031 . S
Zn266 O271 2.049 . S
Zn266 O276 2.067 . S
Zn267 O268 1.962 . S
Zn267 O270 1.986 . S
Zn267 O272 1.996 . S
Zn267 O275 1.943 . S
O268 Zn267 1.962 . S
O268 C273 1.254 . S
O269 Zn266 2.031 . S
O269 C273 1.269 . S
O270 Zn267 1.986 . S
O270 C277 1.262 . S
O271 Zn266 2.049 . S
O271 C279 1.260 . S
O272 Zn267 1.996 . S
O272 C279 1.257 . S
C273 O268 1.254 . S
C273 O269 1.269 . S
C274 O275 1.249 . S
C274 O276 1.270 . S
O275 Zn267 1.943 . S
O275 C274 1.249 . S
O276 Zn266 2.067 . S
O276 C274 1.270 . S
C277 O270 1.262 . S
C277 O278 1.232 . S
O278 C277 1.232 . S
C279 O271 1.260 . S
C279 O272 1.257 . S
Zn280 O283 2.031 . S
Zn280 O285 2.049 . S
Zn280 O290 2.067 . S
Zn281 O282 1.962 . S
Zn281 O284 1.986 . S
Zn281 O286 1.996 . S
Zn281 O289 1.943 . S
O282 Zn281 1.962 . S
O282 C287 1.254 . S
O283 Zn280 2.031 . S
O283 C287 1.269 . S
O284 Zn281 1.986 . S
O284 C291 1.262 . S
O285 Zn280 2.049 . S
O285 C293 1.260 . S
O286 Zn281 1.996 . S
O286 C293 1.257 . S
C287 O282 1.254 . S
C287 O283 1.269 . S
C288 O289 1.249 . S
C288 O290 1.270 . S
O289 Zn281 1.943 . S
O289 C288 1.249 . S
O290 Zn280 2.067 . S
O290 C288 1.270 . S
C291 O284 1.262 . S
C291 O292 1.232 . S
O292 C291 1.232 . S
C293 O285 1.260 . S
C293 O286 1.257 . S
Zn294 O297 2.031 . S
Zn294 O299 2.049 . S
Zn294 O304 2.067 . S
Zn295 O296 1.962 . S
Zn295 O298 1.986 . S
Zn295 O300 1.996 . S
Zn295 O303 1.943 . S
O296 Zn295 1.962 . S
O296 C301 1.254 . S
O297 Zn294 2.031 . S
O297 C301 1.269 . S
O298 Zn295 1.986 . S
O298 C305 1.262 . S
O299 Zn294 2.049 . S
O299 C307 1.260 . S
O300 Zn295 1.996 . S
O300 C307 1.257 . S
C301 O296 1.254 . S
C301 O297 1.269 . S
C302 O303 1.249 . S
C302 O304 1.270 . S
O303 Zn295 1.943 . S
O303 C302 1.249 . S
O304 Zn294 2.067 . S
O304 C302 1.270 . S
C305 O298 1.262 . S
C305 O306 1.232 . S
O306 C305 1.232 . S
C307 O299 1.260 . S
C307 O300 1.257 . S
Zn308 O311 2.031 . S
Zn308 O313 2.049 . S
Zn308 O318 2.067 . S
Zn309 O310 1.962 . S
Zn309 O312 1.986 . S
Zn309 O314 1.996 . S
Zn309 O317 1.943 . S
O310 Zn309 1.962 . S
O310 C315 1.254 . S
O311 Zn308 2.031 . S
O311 C315 1.269 . S
O312 Zn309 1.986 . S
O312 C319 1.262 . S
O313 Zn308 2.049 . S
O313 C321 1.260 . S
O314 Zn309 1.996 . S
O314 C321 1.257 . S
C315 O310 1.254 . S
C315 O311 1.269 . S
C316 O317 1.249 . S
C316 O318 1.270 . S
O317 Zn309 1.943 . S
O317 C316 1.249 . S
O318 Zn308 2.067 . S
O318 C316 1.270 . S
C319 O312 1.262 . S
C319 O320 1.232 . S
O320 C319 1.232 . S
C321 O313 1.260 . S
C321 O314 1.257 . S
Zn322 O325 2.031 . S
Zn322 O327 2.049 . S
Zn322 O332 2.067 . S
Zn323 O324 1.962 . S
Zn323 O326 1.986 . S
Zn323 O328 1.996 . S
Zn323 O331 1.943 . S
O324 Zn323 1.962 . S
O324 C329 1.254 . S
O325 Zn322 2.031 . S
O325 C329 1.269 . S
O326 Zn323 1.986 . S
O326 C333 1.262 . S
O327 Zn322 2.049 . S
O327 C335 1.260 . S
O328 Zn323 1.996 . S
O328 C335 1.257 . S
C329 O324 1.254 . S
C329 O325 1.269 . S
C330 O331 1.249 . S
C330 O332 1.270 . S
O331 Zn323 1.943 . S
O331 C330 1.249 . S
O332 Zn322 2.067 . S
O332 C330 1.270 . S
C333 O326 1.262 . S
C333 O334 1.232 . S
O334 C333 1.232 . S
C335 O327 1.260 . S
C335 O328 1.257 . S
Zn336 O339 2.031 . S
Zn336 O341 2.049 . S
Zn336 O346 2.067 . S
Zn337 O338 1.962 . S
Zn337 O340 1.986 . S
Zn337 O342 1.996 . S
Zn337 O345 1.943 . S
O338 Zn337 1.962 . S
O338 C343 1.254 . S
O339 Zn336 2.031 . S
O339 C343 1.269 . S
O340 Zn337 1.986 . S
O340 C347 1.262 . S
O341 Zn336 2.049 . S
O341 C349 1.260 . S
O342 Zn337 1.996 . S
O342 C349 1.257 . S
C343 O338 1.254 . S
C343 O339 1.269 . S
C344 O345 1.249 . S
C344 O346 1.270 . S
O345 Zn337 1.943 . S
O345 C344 1.249 . S
O346 Zn336 2.067 . S
O346 C344 1.270 . S
C347 O340 1.262 . S
C347 O348 1.232 . S
O348 C347 1.232 . S
C349 O341 1.260 . S
C349 O342 1.257 . S
Zn350 O353 2.031 . S
Zn350 O355 2.049 . S
Zn350 O360 2.067 . S
Zn351 O352 1.962 . S
Zn351 O354 1.986 . S
Zn351 O356 1.996 . S
Zn351 O359 1.943 . S
O352 Zn351 1.962 . S
O352 C357 1.254 . S
O353 Zn350 2.031 . S
O353 C357 1.269 . S
O354 Zn351 1.986 . S
O354 C361 1.262 . S
O355 Zn350 2.049 . S
O355 C363 1.260 . S
O356 Zn351 1.996 . S
O356 C363 1.257 . S
C357 O352 1.254 . S
C357 O353 1.269 . S
C358 O359 1.249 . S
C358 O360 1.270 . S
O359 Zn351 1.943 . S
O359 C358 1.249 . S
O360 Zn350 2.067 . S
O360 C358 1.270 . S
C361 O354 1.262 . S
C361 O362 1.232 . S
O362 C361 1.232 . S
C363 O355 1.260 . S
C363 O356 1.257 . S
Zn364 O367 2.031 . S
Zn364 O369 2.049 . S
Zn364 O374 2.067 . S
Zn365 O366 1.962 . S
Zn365 O368 1.986 . S
Zn365 O370 1.996 . S
Zn365 O373 1.943 . S
O366 Zn365 1.962 . S
O366 C371 1.254 . S
O367 Zn364 2.031 . S
O367 C371 1.269 . S
O368 Zn365 1.986 . S
O368 C375 1.262 . S
O369 Zn364 2.049 . S
O369 C377 1.260 . S
O370 Zn365 1.996 . S
O370 C377 1.257 . S
C371 O366 1.254 . S
C371 O367 1.269 . S
C372 O373 1.249 . S
C372 O374 1.270 . S
O373 Zn365 1.943 . S
O373 C372 1.249 . S
O374 Zn364 2.067 . S
O374 C372 1.270 . S
C375 O368 1.262 . S
C375 O376 1.232 . S
O376 C375 1.232 . S
C377 O369 1.260 . S
C377 O370 1.257 . S
Zn378 O381 2.031 . S
Zn378 O383 2.049 . S
Zn378 O388 2.067 . S
Zn379 O380 1.962 . S
Zn379 O382 1.986 . S
Zn379 O384 1.996 . S
Zn379 O387 1.943 . S
O380 Zn379 1.962 . S
O380 C385 1.254 . S
O381 Zn378 2.031 . S
O381 C385 1.269 . S
O382 Zn379 1.986 . S
O382 C389 1.262 . S
O383 Zn378 2.049 . S
O383 C391 1.260 . S
O384 Zn379 1.996 . S
O384 C391 1.257 . S
C385 O380 1.254 . S
C385 O381 1.269 . S
C386 O387 1.249 . S
C386 O388 1.270 . S
O387 Zn379 1.943 . S
O387 C386 1.249 . S
O388 Zn378 2.067 . S
O388 C386 1.270 . S
C389 O382 1.262 . S
C389 O390 1.232 . S
O390 C389 1.232 . S
C391 O383 1.260 . S
C391 O384 1.257 . S
Zn392 O395 2.031 . S
Zn392 O397 2.049 . S
Zn392 O402 2.067 . S
Zn393 O394 1.962 . S
Zn393 O396 1.986 . S
Zn393 O398 1.996 . S
Zn393 O401 1.943 . S
O394 Zn393 1.962 . S
O394 C399 1.254 . S
O395 Zn392 2.031 . S
O395 C399 1.269 . S
O396 Zn393 1.986 . S
O396 C403 1.262 . S
O397 Zn392 2.049 . S
O397 C405 1.260 . S
O398 Zn393 1.996 . S
O398 C405 1.257 . S
C399 O394 1.254 . S
C399 O395 1.269 . S
C400 O401 1.249 . S
C400 O402 1.270 . S
O401 Zn393 1.943 . S
O401 C400 1.249 . S
O402 Zn392 2.067 . S
O402 C400 1.270 . S
C403 O396 1.262 . S
C403 O404 1.232 . S
O404 C403 1.232 . S
C405 O397 1.260 . S
C405 O398 1.257 . S
Zn406 O409 2.031 . S
Zn406 O411 2.049 . S
Zn406 O416 2.067 . S
Zn407 O408 1.962 . S
Zn407 O410 1.986 . S
Zn407 O412 1.996 . S
Zn407 O415 1.943 . S
O408 Zn407 1.962 . S
O408 C413 1.254 . S
O409 Zn406 2.031 . S
O409 C413 1.269 . S
O410 Zn407 1.986 . S
O410 C417 1.262 . S
O411 Zn406 2.049 . S
O411 C419 1.260 . S
O412 Zn407 1.996 . S
O412 C419 1.257 . S
C413 O408 1.254 . S
C413 O409 1.269 . S
C414 O415 1.249 . S
C414 O416 1.270 . S
O415 Zn407 1.943 . S
O415 C414 1.249 . S
O416 Zn406 2.067 . S
O416 C414 1.270 . S
C417 O410 1.262 . S
C417 O418 1.232 . S
O418 C417 1.232 . S
C419 O411 1.260 . S
C419 O412 1.257 . S
Zn420 O423 2.031 . S
Zn420 O425 2.049 . S
Zn420 O430 2.067 . S
Zn421 O422 1.962 . S
Zn421 O424 1.986 . S
Zn421 O426 1.996 . S
Zn421 O429 1.943 . S
O422 Zn421 1.962 . S
O422 C427 1.254 . S
O423 Zn420 2.031 . S
O423 C427 1.269 . S
O424 Zn421 1.986 . S
O424 C431 1.262 . S
O425 Zn420 2.049 . S
O425 C433 1.260 . S
O426 Zn421 1.996 . S
O426 C433 1.257 . S
C427 O422 1.254 . S
C427 O423 1.269 . S
C428 O429 1.249 . S
C428 O430 1.270 . S
O429 Zn421 1.943 . S
O429 C428 1.249 . S
O430 Zn420 2.067 . S
O430 C428 1.270 . S
C431 O424 1.262 . S
C431 O432 1.232 . S
O432 C431 1.232 . S
C433 O425 1.260 . S
C433 O426 1.257 . S
Zn434 O437 2.031 . S
Zn434 O439 2.049 . S
Zn434 O444 2.067 . S
Zn435 O436 1.962 . S
Zn435 O438 1.986 . S
Zn435 O440 1.996 . S
Zn435 O443 1.943 . S
O436 Zn435 1.962 . S
O436 C441 1.254 . S
O437 Zn434 2.031 . S
O437 C441 1.269 . S
O438 Zn435 1.986 . S
O438 C445 1.262 . S
O439 Zn434 2.049 . S
O439 C447 1.260 . S
O440 Zn435 1.996 . S
O440 C447 1.257 . S
C441 O436 1.254 . S
C441 O437 1.269 . S
C442 O443 1.249 . S
C442 O444 1.270 . S
O443 Zn435 1.943 . S
O443 C442 1.249 . S
O444 Zn434 2.067 . S
O444 C442 1.270 . S
C445 O438 1.262 . S
C445 O446 1.232 . S
O446 C445 1.232 . S
C447 O439 1.260 . S
C447 O440 1.257 . S
Zn448 O451 2.031 . S
Zn448 O453 2.049 . S
Zn448 O458 2.067 . S
Zn449 O450 1.962 . S
Zn449 O452 1.986 . S
Zn449 O454 1.996 . S
Zn449 O457 1.943 . S
O450 Zn449 1.962 . S
O450 C455 1.254 . S
O451 Zn448 2.031 . S
O451 C455 1.269 . S
O452 Zn449 1.986 . S
O452 C459 1.262 . S
O453 Zn448 2.049 . S
O453 C461 1.260 . S
O454 Zn449 1.996 . S
O454 C461 1.257 . S
C455 O450 1.254 . S
C455 O451 1.269 . S
C456 O457 1.249 . S
C456 O458 1.270 . S
O457 Zn449 1.943 . S
O457 C456 1.249 . S
O458 Zn448 2.067 . S
O458 C456 1.270 . S
C459 O452 1.262 . S
C459 O460 1.232 . S
O460 C459 1.232 . S
C461 O453 1.260 . S
C461 O454 1.257 . S
Zn462 O465 2.031 . S
Zn462 O467 2.049 . S
Zn462 O472 2.067 . S
Zn463 O464 1.962 . S
Zn463 O466 1.986 . S
Zn463 O468 1.996 . S
Zn463 O471 1.943 . S
O464 Zn463 1.962 . S
O464 C469 1.254 . S
O465 Zn462 2.031 . S
O465 C469 1.269 . S
O466 Zn463 1.986 . S
O466 C473 1.262 . S
O467 Zn462 2.049 . S
O467 C475 1.260 . S
O468 Zn463 1.996 . S
O468 C475 1.257 . S
C469 O464 1.254 . S
C469 O465 1.269 . S
C470 O471 1.249 . S
C470 O472 1.270 . S
O471 Zn463 1.943 . S
O471 C470 1.249 . S
O472 Zn462 2.067 . S
O472 C470 1.270 . S
C473 O466 1.262 . S
C473 O474 1.232 . S
O474 C473 1.232 . S
C475 O467 1.260 . S
C475 O468 1.257 . S
Zn476 O479 2.031 . S
Zn476 O481 2.049 . S
Zn476 O486 2.067 . S
Zn477 O478 1.962 . S
Zn477 O480 1.986 . S
Zn477 O482 1.996 . S
Zn477 O485 1.943 . S
O478 Zn477 1.962 . S
O478 C483 1.254 . S
O479 Zn476 2.031 . S
O479 C483 1.269 . S
O480 Zn477 1.986 . S
O480 C487 1.262 . S
O481 Zn476 2.049 . S
O481 C489 1.260 . S
O482 Zn477 1.996 . S
O482 C489 1.257 . S
C483 O478 1.254 . S
C483 O479 1.269 . S
C484 O485 1.249 . S
C484 O486 1.270 . S
O485 Zn477 1.943 . S
O485 C484 1.249 . S
O486 Zn476 2.067 . S
O486 C484 1.270 . S
C487 O480 1.262 . S
C487 O488 1.232 . S
O488 C487 1.232 . S
C489 O481 1.260 . S
C489 O482 1.257 . S
Zn490 O493 2.031 . S
Zn490 O495 2.049 . S
Zn490 O500 2.067 . S
Zn491 O492 1.962 . S
Zn491 O494 1.986 . S
Zn491 O496 1.996 . S
Zn491 O499 1.943 . S
O492 Zn491 1.962 . S
O492 C497 1.254 . S
O493 Zn490 2.031 . S
O493 C497 1.269 . S
O494 Zn491 1.986 . S
O494 C501 1.262 . S
O495 Zn490 2.049 . S
O495 C503 1.260 . S
O496 Zn491 1.996 . S
O496 C503 1.257 . S
C497 O492 1.254 . S
C497 O493 1.269 . S
C498 O499 1.249 . S
C498 O500 1.270 . S
O499 Zn491 1.943 . S
O499 C498 1.249 . S
O500 Zn490 2.067 . S
O500 C498 1.270 . S
C501 O494 1.262 . S
C501 O502 1.232 . S
O502 C501 1.232 . S
C503 O495 1.260 . S
C503 O496 1.257 . S
Zn504 O507 2.031 . S
Zn504 O509 2.049 . S
Zn504 O514 2.067 . S
Zn505 O506 1.962 . S
Zn505 O508 1.986 . S
Zn505 O510 1.996 . S
Zn505 O513 1.943 . S
O506 Zn505 1.962 . S
O506 C511 1.254 . S
O507 Zn504 2.031 . S
O507 C511 1.269 . S
O508 Zn505 1.986 . S
O508 C515 1.262 . S
O509 Zn504 2.049 . S
O509 C517 1.260 . S
O510 Zn505 1.996 . S
O510 C517 1.257 . S
C511 O506 1.254 . S
C511 O507 1.269 . S
C512 O513 1.249 . S
C512 O514 1.270 . S
O513 Zn505 1.943 . S
O513 C512 1.249 . S
O514 Zn504 2.067 . S
O514 C512 1.270 . S
C515 O508 1.262 . S
C515 O516 1.232 . S
O516 C515 1.232 . S
C517 O509 1.260 . S
C517 O510 1.257 . S
Zn518 O521 2.031 . S
Zn518 O523 2.049 . S
Zn518 O528 2.067 . S
Zn519 O520 1.962 . S
Zn519 O522 1.986 . S
Zn519 O524 1.996 . S
Zn519 O527 1.943 . S
O520 Zn519 1.962 . S
O520 C525 1.254 . S
O521 Zn518 2.031 . S
O521 C525 1.269 . S
O522 Zn519 1.986 . S
O522 C529 1.262 . S
O523 Zn518 2.049 . S
O523 C531 1.260 . S
O524 Zn519 1.996 . S
O524 C531 1.257 . S
C525 O520 1.254 . S
C525 O521 1.269 . S
C526 O527 1.249 . S
C526 O528 1.270 . S
O527 Zn519 1.943 . S
O527 C526 1.249 . S
O528 Zn518 2.067 . S
O528 C526 1.270 . S
C529 O522 1.262 . S
C529 O530 1.232 . S
O530 C529 1.232 . S
C531 O523 1.260 . S
C531 O524 1.257 . S
Zn532 O535 2.031 . S
Zn532 O537 2.049 . S
Zn532 O542 2.067 . S
Zn533 O534 1.962 . S
Zn533 O536 1.986 . S
Zn533 O538 1.996 . S
Zn533 O541 1.943 . S
O534 Zn533 1.962 . S
O534 C539 1.254 . S
O535 Zn532 2.031 . S
O535 C539 1.269 . S
O536 Zn533 1.986 . S
O536 C543 1.262 . S
O537 Zn532 2.049 . S
O537 C545 1.260 . S
O538 Zn533 1.996 . S
O538 C545 1.257 . S
C539 O534 1.254 . S
C539 O535 1.269 . S
C540 O541 1.249 . S
C540 O542 1.270 . S
O541 Zn533 1.943 . S
O541 C540 1.249 . S
O542 Zn532 2.067 . S
O542 C540 1.270 . S
C543 O536 1.262 . S
C543 O544 1.232 . S
O544 C543 1.232 . S
C545 O537 1.260 . S
C545 O538 1.257 . S
Zn546 O549 2.031 . S
Zn546 O551 2.049 . S
Zn546 O556 2.067 . S
Zn547 O548 1.962 . S
Zn547 O550 1.986 . S
Zn547 O552 1.996 . S
Zn547 O555 1.943 . S
O548 Zn547 1.962 . S
O548 C553 1.254 . S
O549 Zn546 2.031 . S
O549 C553 1.269 . S
O550 Zn547 1.986 . S
O550 C557 1.262 . S
O551 Zn546 2.049 . S
O551 C559 1.260 . S
O552 Zn547 1.996 . S
O552 C559 1.257 . S
C553 O548 1.254 . S
C553 O549 1.269 . S
C554 O555 1.249 . S
C554 O556 1.270 . S
O555 Zn547 1.943 . S
O555 C554 1.249 . S
O556 Zn546 2.067 . S
O556 C554 1.270 . S
C557 O550 1.262 . S
C557 O558 1.232 . S
O558 C557 1.232 . S
C559 O551 1.260 . S
C559 O552 1.257 . S
Zn560 O563 2.031 . S
Zn560 O565 2.049 . S
Zn560 O570 2.067 . S
Zn561 O562 1.962 . S
Zn561 O564 1.986 . S
Zn561 O566 1.996 . S
Zn561 O569 1.943 . S
O562 Zn561 1.962 . S
O562 C567 1.254 . S
O563 Zn560 2.031 . S
O563 C567 1.269 . S
O564 Zn561 1.986 . S
O564 C571 1.262 . S
O565 Zn560 2.049 . S
O565 C573 1.260 . S
O566 Zn561 1.996 . S
O566 C573 1.257 . S
C567 O562 1.254 . S
C567 O563 1.269 . S
C568 O569 1.249 . S
C568 O570 1.270 . S
O569 Zn561 1.943 . S
O569 C568 1.249 . S
O570 Zn560 2.067 . S
O570 C568 1.270 . S
C571 O564 1.262 . S
C571 O572 1.232 . S
O572 C571 1.232 . S
C573 O565 1.260 . S
C573 O566 1.257 . S
Zn574 O577 2.031 . S
Zn574 O579 2.049 . S
Zn574 O584 2.067 . S
Zn575 O576 1.962 . S
Zn575 O578 1.986 . S
Zn575 O580 1.996 . S
Zn575 O583 1.943 . S
O576 Zn575 1.962 . S
O576 C581 1.254 . S
O577 Zn574 2.031 . S
O577 C581 1.269 . S
O578 Zn575 1.986 . S
O578 C585 1.262 . S
O579 Zn574 2.049 . S
O579 C587 1.260 . S
O580 Zn575 1.996 . S
O580 C587 1.257 . S
C581 O576 1.254 . S
C581 O577 1.269 . S
C582 O583 1.249 . S
C582 O584 1.270 . S
O583 Zn575 1.943 . S
O583 C582 1.249 . S
O584 Zn574 2.067 . S
O584 C582 1.270 . S
C585 O578 1.262 . S
C585 O586 1.232 . S
O586 C585 1.232 . S
C587 O579 1.260 . S
C587 O580 1.257 . S
Zn588 O591 2.031 . S
Zn588 O593 2.049 . S
Zn588 O598 2.067 . S
Zn589 O590 1.962 . S
Zn589 O592 1.986 . S
Zn589 O594 1.996 . S
Zn589 O597 1.943 . S
O590 Zn589 1.962 . S
O590 C595 1.254 . S
O591 Zn588 2.031 . S
O591 C595 1.269 . S
O592 Zn589 1.986 . S
O592 C599 1.262 . S
O593 Zn588 2.049 . S
O593 C601 1.260 . S
O594 Zn589 1.996 . S
O594 C601 1.257 . S
C595 O590 1.254 . S
C595 O591 1.269 . S
C596 O597 1.249 . S
C596 O598 1.270 . S
O597 Zn589 1.943 . S
O597 C596 1.249 . S
O598 Zn588 2.067 . S
O598 C596 1.270 . S
C599 O592 1.262 . S
C599 O600 1.232 . S
O600 C599 1.232 . S
C601 O593 1.260 . S
C601 O594 1.257 . S
Zn602 O605 2.031 . S
Zn602 O607 2.049 . S
Zn602 O612 2.067 . S
Zn603 O604 1.962 . S
Zn603 O606 1.986 . S
Zn603 O608 1.996 . S
Zn603 O611 1.943 . S
O604 Zn603 1.962 . S
O604 C609 1.254 . S
O605 Zn602 2.031 . S
O605 C609 1.269 . S
O606 Zn603 1.986 . S
O606 C613 1.262 . S
O607 Zn602 2.049 . S
O607 C615 1.260 . S
O608 Zn603 1.996 . S
O608 C615 1.257 . S
C609 O604 1.254 . S
C609 O605 1.269 . S
C610 O611 1.249 . S
C610 O612 1.270 . S
O611 Zn603 1.943 . S
O611 C610 1.249 . S
O612 Zn602 2.067 . S
O612 C610 1.270 . S
C613 O606 1.262 . S
C613 O614 1.232 . S
O614 C613 1.232 . S
C615 O607 1.260 . S
C615 O608 1.257 . S
Zn616 O619 2.031 . S
Zn616 O621 2.049 . S
Zn616 O626 2.067 . S
Zn617 O618 1.962 . S
Zn617 O620 1.986 . S
Zn617 O622 1.996 . S
Zn617 O625 1.943 . S
O618 Zn617 1.962 . S
O618 C623 1.254 . S
O619 Zn616 2.031 . S
O619 C623 1.269 . S
O620 Zn617 1.986 . S
O620 C627 1.262 . S
O621 Zn616 2.049 . S
O621 C629 1.260 . S
O622 Zn617 1.996 . S
O622 C629 1.257 . S
C623 O618 1.254 . S
C623 O619 1.269 . S
C624 O625 1.249 . S
C624 O626 1.270 . S
O625 Zn617 1.943 . S
O625 C624 1.249 . S
O626 Zn616 2.067 . S
O626 C624 1.270 . S
C627 O620 1.262 . S
C627 O628 1.232 . S
O628 C627 1.232 . S
C629 O621 1.260 . S
C629 O622 1.257 . S
Zn630 O633 2.031 . S
Zn630 O635 2.049 . S
Zn630 O640 2.067 . S
Zn631 O632 1.962 . S
Zn631 O634 1.986 . S
Zn631 O636 1.996 . S
Zn631 O639 1.943 . S
O632 Zn631 1.962 . S
O632 C637 1.254 . S
O633 Zn630 2.031 . S
O633 C637 1.269 . S
O634 Zn631 1.986 . S
O634 C641 1.262 . S
O635 Zn630 2.049 . S
O635 C643 1.260 . S
O636 Zn631 1.996 . S
O636 C643 1.257 . S
C637 O632 1.254 . S
C637 O633 1.269 . S
C638 O639 1.249 . S
C638 O640 1.270 . S
O639 Zn631 1.943 . S
O639 C638 1.249 . S
O640 Zn630 2.067 . S
O640 C638 1.270 . S
C641 O634 1.262 . S
C641 O642 1.232 . S
O642 C641 1.232 . S
C643 O635 1.260 . S
C643 O636 1.257 . S
Zn644 O647 2.031 . S
Zn644 O649 2.049 . S
Zn644 O654 2.067 . S
Zn645 O646 1.962 . S
Zn645 O648 1.986 . S
Zn645 O650 1.996 . S
Zn645 O653 1.943 . S
O646 Zn645 1.962 . S
O646 C651 1.254 . S
O647 Zn644 2.031 . S
O647 C651 1.269 . S
O648 Zn645 1.986 . S
O648 C655 1.262 . S
O649 Zn644 2.049 . S
O649 C657 1.260 . S
O650 Zn645 1.996 . S
O650 C657 1.257 . S
C651 O646 1.254 . S
C651 O647 1.269 . S
C652 O653 1.249 . S
C652 O654 1.270 . S
O653 Zn645 1.943 . S
O653 C652 1.249 . S
O654 Zn644 2.067 . S
O654 C652 1.270 . S
C655 O648 1.262 . S
C655 O656 1.232 . S
O656 C655 1.232 . S
C657 O649 1.260 . S
C657 O650 1.257 . S
Zn658 O661 2.031 . S
Zn658 O663 2.049 . S
Zn658 O668 2.067 . S
Zn659 O660 1.962 . S
Zn659 O662 1.986 . S
Zn659 O664 1.996 . S
Zn659 O667 1.943 . S
O660 Zn659 1.962 . S
O660 C665 1.254 . S
O661 Zn658 2.031 . S
O661 C665 1.269 . S
O662 Zn659 1.986 . S
O662 C669 1.262 . S
O663 Zn658 2.049 . S
O663 C671 1.260 . S
O664 Zn659 1.996 . S
O664 C671 1.257 . S
C665 O660 1.254 . S
C665 O661 1.269 . S
C666 O667 1.249 . S
C666 O668 1.270 . S
O667 Zn659 1.943 . S
O667 C666 1.249 . S
O668 Zn658 2.067 . S
O668 C666 1.270 . S
C669 O662 1.262 . S
C669 O670 1.232 . S
O670 C669 1.232 . S
C671 O663 1.260 . S
C671 O664 1.257 . S
Zn672 O675 2.031 . S
Zn672 O677 2.049 . S
Zn672 O682 2.067 . S
Zn673 O674 1.962 . S
Zn673 O676 1.986 . S
Zn673 O678 1.996 . S
Zn673 O681 1.943 . S
O674 Zn673 1.962 . S
O674 C679 1.254 . S
O675 Zn672 2.031 . S
O675 C679 1.269 . S
O676 Zn673 1.986 . S
O676 C683 1.262 . S
O677 Zn672 2.049 . S
O677 C685 1.260 . S
O678 Zn673 1.996 . S
O678 C685 1.257 . S
C679 O674 1.254 . S
C679 O675 1.269 . S
C680 O681 1.249 . S
C680 O682 1.270 . S
O681 Zn673 1.943 . S
O681 C680 1.249 . S
O682 Zn672 2.067 . S
O682 C680 1.270 . S
C683 O676 1.262 . S
C683 O684 1.232 . S
O684 C683 1.232 . S
C685 O677 1.260 . S
C685 O678 1.257 . S
Zn686 O689 2.031 . S
Zn686 O691 2.049 . S
Zn686 O696 2.067 . S
Zn687 O688 1.962 . S
Zn687 O690 1.986 . S
Zn687 O692 1.996 . S
Zn687 O695 1.943 . S
O688 Zn687 1.962 . S
O688 C693 1.254 . S
O689 Zn686 2.031 . S
O689 C693 1.269 . S
O690 Zn687 1.986 . S
O690 C697 1.262 . S
O691 Zn686 2.049 . S
O691 C699 1.260 . S
O692 Zn687 1.996 . S
O692 C699 1.257 . S
C693 O688 1.254 . S
C693 O689 1.269 . S
C694 O695 1.249 . S
C694 O696 1.270 . S
O695 Zn687 1.943 . S
O695 C694 1.249 . S
O696 Zn686 2.067 . S
O696 C694 1.270 . S
C697 O690 1.262 . S
C697 O698 1.232 . S
O698 C697 1.232 . S
C699 O691 1.260 . S
C699 O692 1.257 . S
Zn700 O703 2.031 . S
Zn700 O705 2.049 . S
Zn700 O710 2.067 . S
Zn701 O702 1.962 . S
Zn701 O704 1.986 . S
Zn701 O706 1.996 . S
Zn701 O709 1.943 . S
O702 Zn701 1.962 . S
O702 C707 1.254 . S
O703 Zn700 2.031 . S
O703 C707 1.269 . S
O704 Zn701 1.986 . S
O704 C711 1.262 . S
O705 Zn700 2.049 . S
O705 C713 1.260 . S
O706 Zn701 1.996 . S
O706 C713 1.257 . S
C707 O702 1.254 . S
C707 O703 1.269 . S
C708 O709 1.249 . S
C708 O710 1.270 . S
O709 Zn701 1.943 . S
O709 C708 1.249 . S
O710 Zn700 2.067 . S
O710 C708 1.270 . S
C711 O704 1.262 . S
C711 O712 1.232 . S
O712 C711 1.232 . S
C713 O705 1.260 . S
C713 O706 1.257 . S
Zn714 O717 2.031 . S
Zn714 O719 2.049 . S
Zn714 O724 2.067 . S
Zn715 O716 1.962 . S
Zn715 O718 1.986 . S
Zn715 O720 1.996 . S
Zn715 O723 1.943 . S
O716 Zn715 1.962 . S
O716 C721 1.254 . S
O717 Zn714 2.031 . S
O717 C721 1.269 . S
O718 Zn715 1.986 . S
O718 C725 1.262 . S
O719 Zn714 2.049 . S
O719 C727 1.260 . S
O720 Zn715 1.996 . S
O720 C727 1.257 . S
C721 O716 1.254 . S
C721 O717 1.269 . S
C722 O723 1.249 . S
C722 O724 1.270 . S
O723 Zn715 1.943 . S
O723 C722 1.249 . S
O724 Zn714 2.067 . S
O724 C722 1.270 . S
C725 O718 1.262 . S
C725 O726 1.232 . S
O726 C725 1.232 . S
C727 O719 1.260 . S
C727 O720 1.257 . S
Zn728 O731 2.031 . S
Zn728 O733 2.049 . S
Zn728 O738 2.067 . S
Zn729 O730 1.962 . S
Zn729 O732 1.986 . S
Zn729 O734 1.996 . S
Zn729 O737 1.943 . S
O730 Zn729 1.962 . S
O730 C735 1.254 . S
O731 Zn728 2.031 . S
O731 C735 1.269 . S
O732 Zn729 1.986 . S
O732 C739 1.262 . S
O733 Zn728 2.049 . S
O733 C741 1.260 . S
O734 Zn729 1.996 . S
O734 C741 1.257 . S
C735 O730 1.254 . S
C735 O731 1.269 . S
C736 O737 1.249 . S
C736 O738 1.270 . S
O737 Zn729 1.943 . S
O737 C736 1.249 . S
O738 Zn728 2.067 . S
O738 C736 1.270 . S
C739 O732 1.262 . S
C739 O740 1.232 . S
O740 C739 1.232 . S
C741 O733 1.260 . S
C741 O734 1.257 . S
Zn742 O745 2.031 . S
Zn742 O747 2.049 . S
Zn742 O752 2.067 . S
Zn743 O744 1.962 . S
Zn743 O746 1.986 . S
Zn743 O748 1.996 . S
Zn743 O751 1.943 . S
O744 Zn743 1.962 . S
O744 C749 1.254 . S
O745 Zn742 2.031 . S
O745 C749 1.269 . S
O746 Zn743 1.986 . S
O746 C753 1.262 . S
O747 Zn742 2.049 . S
O747 C755 1.260 . S
O748 Zn743 1.996 . S
O748 C755 1.257 . S
C749 O744 1.254 . S
C749 O745 1.269 . S
C750 O751 1.249 . S
C750 O752 1.270 . S
O751 Zn743 1.943 . S
O751 C750 1.249 . S
O752 Zn742 2.067 . S
O752 C750 1.270 . S
C753 O746 1.262 . S
C753 O754 1.232 . S
O754 C753 1.232 . S
C755 O747 1.260 . S
C755 O748 1.257 . S
Zn756 O759 2.031 . S
Zn756 O761 2.049 . S
Zn756 O766 2.067 . S
Zn757 O758 1.962 . S
Zn757 O760 1.986 . S
Zn757 O762 1.996 . S
Zn757 O765 1.943 . S
O758 Zn757 1.962 . S
O758 C763 1.254 . S
O759 Zn756 2.031 . S
O759 C763 1.269 . S
O760 Zn757 1.986 . S
O760 C767 1.262 . S
O761 Zn756 2.049 . S
O761 C769 1.260 . S
O762 Zn757 1.996 . S
O762 C769 1.257 . S
C763 O758 1.254 . S
C763 O759 1.269 . S
C764 O765 1.249 . S
C764 O766 1.270 . S
O765 Zn757 1.943 . S
O765 C764 1.249 . S
O766 Zn756 2.067 . S
O766 C764 1.270 . S
C767 O760 1.262 . S
C767 O768 1.232 . S
O768 C767 1.232 . S
C769 O761 1.260 . S
C769 O762 1.257 . S
Zn770 O773 2.031 . S
Zn770 O775 2.049 . S
Zn770 O780 2.067 . S
Zn771 O772 1.962 . S
Zn771 O774 1.986 . S
Zn771 O776 1.996 . S
Zn771 O779 1.943 . S
O772 Zn771 1.962 . S
O772 C777 1.254 . S
O773 Zn770 2.031 . S
O773 C777 1.269 . S
O774 Zn771 1.986 . S
O774 C781 1.262 . S
O775 Zn770 2.049 . S
O775 C783 1.260 . S
O776 Zn771 1.996 . S
O776 C783 1.257 . S
C777 O772 1.254 . S
C777 O773 1.269 . S
C778 O779 1.249 . S
C778 O780 1.270 . S
O779 Zn771 1.943 . S
O779 C778 1.249 . S
O780 Zn770 2.067 . S
O780 C778 1.270 . S
C781 O774 1.262 . S
C781 O782 1.232 . S
O782 C781 1.232 . S
C783 O775 1.260 . S
C783 O776 1.257 . S
Zn784 O787 2.031 . S
Zn784 O789 2.049 . S
Zn784 O794 2.067 . S
Zn785 O786 1.962 . S
Zn785 O788 1.986 . S
Zn785 O790 1.996 . S
Zn785 O793 1.943 . S
O786 Zn785 1.962 . S
O786 C791 1.254 . S
O787 Zn784 2.031 . S
O787 C791 1.269 . S
O788 Zn785 1.986 . S
O788 C795 1.262 . S
O789 Zn784 2.049 . S
O789 C797 1.260 . S
O790 Zn785 1.996 . S
O790 C797 1.257 . S
C791 O786 1.254 . S
C791 O787 1.269 . S
C792 O793 1.249 . S
C792 O794 1.270 . S
O793 Zn785 1.943 . S
O793 C792 1.249 . S
O794 Zn784 2.067 . S
O794 C792 1.270 . S
C795 O788 1.262 . S
C795 O796 1.232 . S
O796 C795 1.232 . S
C797 O789 1.260 . S
C797 O790 1.257 . S
Zn798 O801 2.031 . S
Zn798 O803 2.049 . S
Zn798 O808 2.067 . S
Zn799 O800 1.962 . S
Zn799 O802 1.986 . S
Zn799 O804 1.996 . S
Zn799 O807 1.943 . S
O800 Zn799 1.962 . S
O800 C805 1.254 . S
O801 Zn798 2.031 . S
O801 C805 1.269 . S
O802 Zn799 1.986 . S
O802 C809 1.262 . S
O803 Zn798 2.049 . S
O803 C811 1.260 . S
O804 Zn799 1.996 . S
O804 C811 1.257 . S
C805 O800 1.254 . S
C805 O801 1.269 . S
C806 O807 1.249 . S
C806 O808 1.270 . S
O807 Zn799 1.943 . S
O807 C806 1.249 . S
O808 Zn798 2.067 . S
O808 C806 1.270 . S
C809 O802 1.262 . S
C809 O810 1.232 . S
O810 C809 1.232 . S
C811 O803 1.260 . S
C811 O804 1.257 . S
Zn812 O815 2.031 . S
Zn812 O817 2.049 . S
Zn812 O822 2.067 . S
Zn813 O814 1.962 . S
Zn813 O816 1.986 . S
Zn813 O818 1.996 . S
Zn813 O821 1.943 . S
O814 Zn813 1.962 . S
O814 C819 1.254 . S
O815 Zn812 2.031 . S
O815 C819 1.269 . S
O816 Zn813 1.986 . S
O816 C823 1.262 . S
O817 Zn812 2.049 . S
O817 C825 1.260 . S
O818 Zn813 1.996 . S
O818 C825 1.257 . S
C819 O814 1.254 . S
C819 O815 1.269 . S
C820 O821 1.249 . S
C820 O822 1.270 . S
O821 Zn813 1.943 . S
O821 C820 1.249 . S
O822 Zn812 2.067 . S
O822 C820 1.270 . S
C823 O816 1.262 . S
C823 O824 1.232 . S
O824 C823 1.232 . S
C825 O817 1.260 . S
C825 O818 1.257 . S
Zn826 O829 2.031 . S
Zn826 O831 2.049 . S
Zn826 O836 2.067 . S
Zn827 O828 1.962 . S
Zn827 O830 1.986 . S
Zn827 O832 1.996 . S
Zn827 O835 1.943 . S
O828 Zn827 1.962 . S
O828 C833 1.254 . S
O829 Zn826 2.031 . S
O829 C833 1.269 . S
O830 Zn827 1.986 . S
O830 C837 1.262 . S
O831 Zn826 2.049 . S
O831 C839 1.260 . S
O832 Zn827 1.996 . S
O832 C839 1.257 . S
C833 O828 1.254 . S
C833 O829 1.269 . S
C834 O835 1.249 . S
C834 O836 1.270 . S
O835 Zn827 1.943 . S
O835 C834 1.249 . S
O836 Zn826 2.067 . S
O836 C834 1.270 . S
C837 O830 1.262 . S
C837 O838 1.232 . S
O838 C837 1.232 . S
C839 O831 1.260 . S
C839 O832 1.257 . S
Zn840 O843 2.031 . S
Zn840 O845 2.049 . S
Zn840 O850 2.067 . S
Zn841 O842 1.962 . S
Zn841 O844 1.986 . S
Zn841 O846 1.996 . S
Zn841 O849 1.943 . S
O842 Zn841 1.962 . S
O842 C847 1.254 . S
O843 Zn840 2.031 . S
O843 C847 1.269 . S
O844 Zn841 1.986 . S
O844 C851 1.262 . S
O845 Zn840 2.049 . S
O845 C853 1.260 . S
O846 Zn841 1.996 . S
O846 C853 1.257 . S
C847 O842 1.254 . S
C847 O843 1.269 . S
C848 O849 1.249 . S
C848 O850 1.270 . S
O849 Zn841 1.943 . S
O849 C848 1.249 . S
O850 Zn840 2.067 . S
O850 C848 1.270 . S
C851 O844 1.262 . S
C851 O852 1.232 . S
O852 C851 1.232 . S
C853 O845 1.260 . S
C853 O846 1.257 . S
Zn854 O857 2.031 . S
Zn854 O859 2.049 . S
Zn854 O864 2.067 . S
Zn855 O856 1.962 . S
Zn855 O858 1.986 . S
Zn855 O860 1.996 . S
Zn855 O863 1.943 . S
O856 Zn855 1.962 . S
O856 C861 1.254 . S
O857 Zn854 2.031 . S
O857 C861 1.269 . S
O858 Zn855 1.986 . S
O858 C865 1.262 . S
O859 Zn854 2.049 . S
O859 C867 1.260 . S
O860 Zn855 1.996 . S
O860 C867 1.257 . S
C861 O856 1.254 . S
C861 O857 1.269 . S
C862 O863 1.249 . S
C862 O864 1.270 . S
O863 Zn855 1.943 . S
O863 C862 1.249 . S
O864 Zn854 2.067 . S
O864 C862 1.270 . S
C865 O858 1.262 . S
C865 O866 1.232 . S
O866 C865 1.232 . S
C867 O859 1.260 . S
C867 O860 1.257 . S
Zn868 O871 2.031 . S
Zn868 O873 2.049 . S
Zn868 O878 2.067 . S
Zn869 O870 1.962 . S
Zn869 O872 1.986 . S
Zn869 O874 1.996 . S
Zn869 O877 1.943 . S
O870 Zn869 1.962 . S
O870 C875 1.254 . S
O871 Zn868 2.031 . S
O871 C875 1.269 . S
O872 Zn869 1.986 . S
O872 C879 1.262 . S
O873 Zn868 2.049 . S
O873 C881 1.260 . S
O874 Zn869 1.996 . S
O874 C881 1.257 . S
C875 O870 1.254 . S
C875 O871 1.269 . S
C876 O877 1.249 . S
C876 O878 1.270 . S
O877 Zn869 1.943 . S
O877 C876 1.249 . S
O878 Zn868 2.067 . S
O878 C876 1.270 . S
C879 O872 1.262 . S
C879 O880 1.232 . S
O880 C879 1.232 . S
C881 O873 1.260 . S
C881 O874 1.257 . S
Zn882 O885 2.031 . S
Zn882 O887 2.049 . S
Zn882 O892 2.067 . S
Zn883 O884 1.962 . S
Zn883 O886 1.986 . S
Zn883 O888 1.996 . S
Zn883 O891 1.943 . S
O884 Zn883 1.962 . S
O884 C889 1.254 . S
O885 Zn882 2.031 . S
O885 C889 1.269 . S
O886 Zn883 1.986 . S
O886 C893 1.262 . S
O887 Zn882 2.049 . S
O887 C895 1.260 . S
O888 Zn883 1.996 . S
O888 C895 1.257 . S
C889 O884 1.254 . S
C889 O885 1.269 . S
C890 O891 1.249 . S
C890 O892 1.270 . S
O891 Zn883 1.943 . S
O891 C890 1.249 . S
O892 Zn882 2.067 . S
O892 C890 1.270 . S
C893 O886 1.262 . S
C893 O894 1.232 . S
O894 C893 1.232 . S
C895 O887 1.260 . S
C895 O888 1.257 . S
Zn896 O899 2.031 . S
Zn896 O901 2.049 . S
Zn896 O906 2.067 . S
Zn897 O898 1.962 . S
Zn897 O900 1.986 . S
Zn897 O902 1.996 . S
Zn897 O905 1.943 . S
O898 Zn897 1.962 . S
O898 C903 1.254 . S
O899 Zn896 2.031 . S
O899 C903 1.269 . S
O900 Zn897 1.986 . S
O900 C907 1.262 . S
O901 Zn896 2.049 . S
O901 C909 1.260 . S
O902 Zn897 1.996 . S
O902 C909 1.257 . S
C903 O898 1.254 . S
C903 O899 1.269 . S
C904 O905 1.249 . S
C904 O906 1.270 . S
O905 Zn897 1.943 . S
O905 C904 1.249 . S
O906 Zn896 2.067 . S
O906 C904 1.270 . S
C907 O900 1.262 . S
C907 O908 1.232 . S
O908 C907 1.232 . S
C909 O901 1.260 . S
C909 O902 1.257 . S
Zn910 O913 2.031 . S
Zn910 O915 2.049 . S
Zn910 O920 2.067 . S
Zn911 O912 1.962 . S
Zn911 O914 1.986 . S
Zn911 O916 1.996 . S
Zn911 O919 1.943 . S
O912 Zn911 1.962 . S
O912 C917 1.254 . S
O913 Zn910 2.031 . S
O913 C917 1.269 . S
O914 Zn911 1.986 . S
O914 C921 1.262 . S
O915 Zn910 2.049 . S
O915 C923 1.260 . S
O916 Zn911 1.996 . S
O916 C923 1.257 . S
C917 O912 1.254 . S
C917 O913 1.269 . S
C918 O919 1.249 . S
C918 O920 1.270 . S
O919 Zn911 1.943 . S
O919 C918 1.249 . S
O920 Zn910 2.067 . S
O920 C918 1.270 . S
C921 O914 1.262 . S
C921 O922 1.232 . S
O922 C921 1.232 . S
C923 O915 1.260 . S
C923 O916 1.257 . S
Zn924 O927 2.031 . S
Zn924 O929 2.049 . S
Zn924 O934 2.067 . S
Zn925 O926 1.962 . S
Zn925 O928 1.986 . S
Zn925 O930 1.996 . S
Zn925 O933 1.943 . S
O926 Zn925 1.962 . S
O926 C931 1.254 . S
O927 Zn924 2.031 . S
O927 C931 1.269 . S
O928 Zn925 1.986 . S
O928 C935 1.262 . S
O929 Zn924 2.049 . S
O929 C937 1.260 . S
O930 Zn925 1.996 . S
O930 C937 1.257 . S
C931 O926 1.254 . S
C931 O927 1.269 . S
C932 O933 1.249 . S
C932 O934 1.270 . S
O933 Zn925 1.943 . S
O933 C932 1.249 . S
O934 Zn924 2.067 . S
O934 C932 1.270 . S
C935 O928 1.262 . S
C935 O936 1.232 . S
O936 C935 1.232 . S
C937 O929 1.260 . S
C937 O930 1.257 . S
Zn938 O941 2.031 . S
Zn938 O943 2.049 . S
Zn938 O948 2.067 . S
Zn939 O940 1.962 . S
Zn939 O942 1.986 . S
Zn939 O944 1.996 . S
Zn939 O947 1.943 . S
O940 Zn939 1.962 . S
O940 C945 1.254 . S
O941 Zn938 2.031 . S
O941 C945 1.269 . S
O942 Zn939 1.986 . S
O942 C949 1.262 . S
O943 Zn938 2.049 . S
O943 C951 1.260 . S
O944 Zn939 1.996 . S
O944 C951 1.257 . S
C945 O940 1.254 . S
C945 O941 1.269 . S
C946 O947 1.249 . S
C946 O948 1.270 . S
O947 Zn939 1.943 . S
O947 C946 1.249 . S
O948 Zn938 2.067 . S
O948 C946 1.270 . S
C949 O942 1.262 . S
C949 O950 1.232 . S
O950 C949 1.232 . S
C951 O943 1.260 . S
C951 O944 1.257 . S
Zn952 O955 2.031 . S
Zn952 O957 2.049 . S
Zn952 O962 2.067 . S
Zn953 O954 1.962 . S
Zn953 O956 1.986 . S
Zn953 O958 1.996 . S
Zn953 O961 1.943 . S
O954 Zn953 1.962 . S
O954 C959 1.254 . S
O955 Zn952 2.031 . S
O955 C959 1.269 . S
O956 Zn953 1.986 . S
O956 C963 1.262 . S
O957 Zn952 2.049 . S
O957 C965 1.260 . S
O958 Zn953 1.996 . S
O958 C965 1.257 . S
C959 O954 1.254 . S
C959 O955 1.269 . S
C960 O961 1.249 . S
C960 O962 1.270 . S
O961 Zn953 1.943 . S
O961 C960 1.249 . S
O962 Zn952 2.067 . S
O962 C960 1.270 . S
C963 O956 1.262 . S
C963 O964 1.232 . S
O964 C963 1.232 . S
C965 O957 1.260 . S
C965 O958 1.257 . S
Zn966 O969 2.031 . S
Zn966 O971 2.049 . S
Zn966 O976 2.067 . S
Zn967 O968 1.962 . S
Zn967 O970 1.986 . S
Zn967 O972 1.996 . S
Zn967 O975 1.943 . S
O968 Zn967 1.962 . S
O968 C973 1.254 . S
O969 Zn966 2.031 . S
O969 C973 1.269 . S
O970 Zn967 1.986 . S
O970 C977 1.262 . S
O971 Zn966 2.049 . S
O971 C979 1.260 . S
O972 Zn967 1.996 . S
O972 C979 1.257 . S
C973 O968 1.254 . S
C973 O969 1.269 . S
C974 O975 1.249 . S
C974 O976 1.270 . S
O975 Zn967 1.943 . S
O975 C974 1.249 . S
O976 Zn966 2.067 . S
O976 C974 1.270 . S
C977 O970 1.262 . S
C977 O978 1.232 . S
O978 C977 1.232 . S
C979 O971 1.260 . S
C979 O972 1.257 . S
Zn980 O983 2.031 . S
Zn980 O985 2.049 . S
Zn980 O990 2.067 . S
Zn981 O982 1.962 . S
Zn981 O984 1.986 . S
Zn981 O986 1.996 . S
Zn981 O989 1.943 . S
O982 Zn981 1.962 . S
O982 C987 1.254 . S
O983 Zn980 2.031 . S
O983 C987 1.269 . S
O984 Zn981 1.986 . S
O984 C991 1.262 . S
O985 Zn980 2.049 . S
O985 C993 1.260 . S
O986 Zn981 1.996 . S
O986 C993 1.257 . S
C987 O982 1.254 . S
C987 O983 1.269 . S
C988 O989 1.249 . S
C988 O990 1.270 . S
O989 Zn981 1.943 . S
O989 C988 1.249 . S
O990 Zn980 2.067 . S
O990 C988 1.270 . S
C991 O984 1.262 . S
C991 O992 1.232 . S
O992 C991 1.232 . S
C993 O985 1.260 . S
C993 O986 1.257 . S
Zn994 O997 2.031 . S
Zn994 O999 2.049 . S
Zn994 O1004 2.067 . S
Zn995 O996 1.962 . S
Zn995 O998 1.986 . S
Zn995 O1000 1.996 . S
Zn995 O1003 1.943 . S
O996 Zn995 1.962 . S
O996 C1001 1.254 . S
O997 Zn994 2.031 . S
O997 C1001 1.269 . S
O998 Zn995 1.986 . S
O998 C1005 1.262 . S
O999 Zn994 2.049 . S
O999 C1007 1.260 . S
O1000 Zn995 1.996 . S
O1000 C1007 1.257 . S
C1001 O996 1.254 . S
C1001 O997 1.269 . S
C1002 O1003 1.249 . S
C1002 O1004 1.270 . S
O1003 Zn995 1.943 . S
O1003 C1002 1.249 . S
O1004 Zn994 2.067 . S
O1004 C1002 1.270 . S
C1005 O998 1.262 . S
C1005 O1006 1.232 . S
O1006 C1005 1.232 . S
C1007 O999 1.260 . S
C1007 O1000 1.257 . S
Zn1008 O1011 2.031 . S
Zn1008 O1013 2.049 . S
Zn1008 O1018 2.067 . S
Zn1009 O1010 1.962 . S
Zn1009 O1012 1.986 . S
Zn1009 O1014 1.996 . S
Zn1009 O1017 1.943 . S
O1010 Zn1009 1.962 . S
O1010 C1015 1.254 . S
O1011 Zn1008 2.031 . S
O1011 C1015 1.269 . S
O1012 Zn1009 1.986 . S
O1012 C1019 1.262 . S
O1013 Zn1008 2.049 . S
O1013 C1021 1.260 . S
O1014 Zn1009 1.996 . S
O1014 C1021 1.257 . S
C1015 O1010 1.254 . S
C1015 O1011 1.269 . S
C1016 O1017 1.249 . S
C1016 O1018 1.270 . S
O1017 Zn1009 1.943 . S
O1017 C1016 1.249 . S
O1018 Zn1008 2.067 . S
O1018 C1016 1.270 . S
C1019 O1012 1.262 . S
C1019 O1020 1.232 . S
O1020 C1019 1.232 . S
C1021 O1013 1.260 . S
C1021 O1014 1.257 . S
Zn1022 O1025 2.031 . S
Zn1022 O1027 2.049 . S
Zn1022 O1032 2.067 . S
Zn1023 O1024 1.962 . S
Zn1023 O1026 1.986 . S
Zn1023 O1028 1.996 . S
Zn1023 O1031 1.943 . S
O1024 Zn1023 1.962 . S
O1024 C1029 1.254 . S
O1025 Zn1022 2.031 . S
O1025 C1029 1.269 . S
O1026 Zn1023 1.986 . S
O1026 C1033 1.262 . S
O1027 Zn1022 2.049 . S
O1027 C1035 1.260 . S
O1028 Zn1023 1.996 . S
O1028 C1035 1.257 . S
C1029 O1024 1.254 . S
C1029 O1025 1.269 . S
C1030 O1031 1.249 . S
C1030 O1032 1.270 . S
O1031 Zn1023 1.943 . S
O1031 C1030 1.249 . S
O1032 Zn1022 2.067 . S
O1032 C1030 1.270 . S
C1033 O1026 1.262 . S
C1033 O1034 1.232 . S
O1034 C1033 1.232 . S
C1035 O1027 1.260 . S
C1035 O1028 1.257 . S
Zn1036 O1039 2.031 . S
Zn1036 O1041 2.049 . S
Zn1036 O1046 2.067 . S
Zn1037 O1038 1.962 . S
Zn1037 O1040 1.986 . S
Zn1037 O1042 1.996 . S
Zn1037 O1045 1.943 . S
O1038 Zn1037 1.962 . S
O1038 C1043 1.254 . S
O1039 Zn1036 2.031 . S
O1039 C1043 1.269 . S
O1040 Zn1037 1.986 . S
O1040 C1047 1.262 . S
O1041 Zn1036 2.049 . S
O1041 C1049 1.260 . S
O1042 Zn1037 1.996 . S
O1042 C1049 1.257 . S
C1043 O1038 1.254 . S
C1043 O1039 1.269 . S
C1044 O1045 1.249 . S
C1044 O1046 1.270 . S
O1045 Zn1037 1.943 . S
O1045 C1044 1.249 . S
O1046 Zn1036 2.067 . S
O1046 C1044 1.270 . S
C1047 O1040 1.262 . S
C1047 O1048 1.232 . S
O1048 C1047 1.232 . S
C1049 O1041 1.260 . S
C1049 O1042 1.257 . S
Zn1050 O1053 2.031 . S
Zn1050 O1055 2.049 . S
Zn1050 O1060 2.067 . S
Zn1051 O1052 1.962 . S
Zn1051 O1054 1.986 . S
Zn1051 O1056 1.996 . S
Zn1051 O1059 1.943 . S
O1052 Zn1051 1.962 . S
O1052 C1057 1.254 . S
O1053 Zn1050 2.031 . S
O1053 C1057 1.269 . S
O1054 Zn1051 1.986 . S
O1054 C1061 1.262 . S
O1055 Zn1050 2.049 . S
O1055 C1063 1.260 . S
O1056 Zn1051 1.996 . S
O1056 C1063 1.257 . S
C1057 O1052 1.254 . S
C1057 O1053 1.269 . S
C1058 O1059 1.249 . S
C1058 O1060 1.270 . S
O1059 Zn1051 1.943 . S
O1059 C1058 1.249 . S
O1060 Zn1050 2.067 . S
O1060 C1058 1.270 . S
C1061 O1054 1.262 . S
C1061 O1062 1.232 . S
O1062 C1061 1.232 . S
C1063 O1055 1.260 . S
C1063 O1056 1.257 . S
Zn1064 O1067 2.031 . S
Zn1064 O1069 2.049 . S
Zn1064 O1074 2.067 . S
Zn1065 O1066 1.962 . S
Zn1065 O1068 1.986 . S
Zn1065 O1070 1.996 . S
Zn1065 O1073 1.943 . S
O1066 Zn1065 1.962 . S
O1066 C1071 1.254 . S
O1067 Zn1064 2.031 . S
O1067 C1071 1.269 . S
O1068 Zn1065 1.986 . S
O1068 C1075 1.262 . S
O1069 Zn1064 2.049 . S
O1069 C1077 1.260 . S
O1070 Zn1065 1.996 . S
O1070 C1077 1.257 . S
C1071 O1066 1.254 . S
C1071 O1067 1.269 . S
C1072 O1073 1.249 . S
C1072 O1074 1.270 . S
O1073 Zn1065 1.943 . S
O1073 C1072 1.249 . S
O1074 Zn1064 2.067 . S
O1074 C1072 1.270 . S
C1075 O1068 1.262 . S
C1075 O1076 1.232 . S
O1076 C1075 1.232 . S
C1077 O1069 1.260 . S
C1077 O1070 1.257 . S
Zn1078 O1081 2.031 . S
Zn1078 O1083 2.049 . S
Zn1078 O1088 2.067 . S
Zn1079 O1080 1.962 . S
Zn1079 O1082 1.986 . S
Zn1079 O1084 1.996 . S
Zn1079 O1087 1.943 . S
O1080 Zn1079 1.962 . S
O1080 C1085 1.254 . S
O1081 Zn1078 2.031 . S
O1081 C1085 1.269 . S
O1082 Zn1079 1.986 . S
O1082 C1089 1.262 . S
O1083 Zn1078 2.049 . S
O1083 C1091 1.260 . S
O1084 Zn1079 1.996 . S
O1084 C1091 1.257 . S
C1085 O1080 1.254 . S
C1085 O1081 1.269 . S
C1086 O1087 1.249 . S
C1086 O1088 1.270 . S
O1087 Zn1079 1.943 . S
O1087 C1086 1.249 . S
O1088 Zn1078 2.067 . S
O1088 C1086 1.270 . S
C1089 O1082 1.262 . S
C1089 O1090 1.232 . S
O1090 C1089 1.232 . S
C1091 O1083 1.260 . S
C1091 O1084 1.257 . S
Zn1092 O1095 2.031 . S
Zn1092 O1097 2.049 . S
Zn1092 O1102 2.067 . S
Zn1093 O1094 1.962 . S
Zn1093 O1096 1.986 . S
Zn1093 O1098 1.996 . S
Zn1093 O1101 1.943 . S
O1094 Zn1093 1.962 . S
O1094 C1099 1.254 . S
O1095 Zn1092 2.031 . S
O1095 C1099 1.269 . S
O1096 Zn1093 1.986 . S
O1096 C1103 1.262 . S
O1097 Zn1092 2.049 . S
O1097 C1105 1.260 . S
O1098 Zn1093 1.996 . S
O1098 C1105 1.257 . S
C1099 O1094 1.254 . S
C1099 O1095 1.269 . S
C1100 O1101 1.249 . S
C1100 O1102 1.270 . S
O1101 Zn1093 1.943 . S
O1101 C1100 1.249 . S
O1102 Zn1092 2.067 . S
O1102 C1100 1.270 . S
C1103 O1096 1.262 . S
C1103 O1104 1.232 . S
O1104 C1103 1.232 . S
C1105 O1097 1.260 . S
C1105 O1098 1.257 . S
Zn1106 O1109 2.031 . S
Zn1106 O1111 2.049 . S
Zn1106 O1116 2.067 . S
Zn1107 O1108 1.962 . S
Zn1107 O1110 1.986 . S
Zn1107 O1112 1.996 . S
Zn1107 O1115 1.943 . S
O1108 Zn1107 1.962 . S
O1108 C1113 1.254 . S
O1109 Zn1106 2.031 . S
O1109 C1113 1.269 . S
O1110 Zn1107 1.986 . S
O1110 C1117 1.262 . S
O1111 Zn1106 2.049 . S
O1111 C1119 1.260 . S
O1112 Zn1107 1.996 . S
O1112 C1119 1.257 . S
C1113 O1108 1.254 . S
C1113 O1109 1.269 . S
C1114 O1115 1.249 . S
C1114 O1116 1.270 . S
O1115 Zn1107 1.943 . S
O1115 C1114 1.249 . S
O1116 Zn1106 2.067 . S
O1116 C1114 1.270 . S
C1117 O1110 1.262 . S
C1117 O1118 1.232 . S
O1118 C1117 1.232 . S
C1119 O1111 1.260 . S
C1119 O1112 1.257 . S
Zn1120 O1123 2.031 . S
Zn1120 O1125 2.049 . S
Zn1120 O1130 2.067 . S
Zn1121 O1122 1.962 . S
Zn1121 O1124 1.986 . S
Zn1121 O1126 1.996 . S
Zn1121 O1129 1.943 . S
O1122 Zn1121 1.962 . S
O1122 C1127 1.254 . S
O1123 Zn1120 2.031 . S
O1123 C1127 1.269 . S
O1124 Zn1121 1.986 . S
O1124 C1131 1.262 . S
O1125 Zn1120 2.049 . S
O1125 C1133 1.260 . S
O1126 Zn1121 1.996 . S
O1126 C1133 1.257 . S
C1127 O1122 1.254 . S
C1127 O1123 1.269 . S
C1128 O1129 1.249 . S
C1128 O1130 1.270 . S
O1129 Zn1121 1.943 . S
O1129 C1128 1.249 . S
O1130 Zn1120 2.067 . S
O1130 C1128 1.270 . S
C1131 O1124 1.262 . S
C1131 O1132 1.232 . S
O1132 C1131 1.232 . S
C1133 O1125 1.260 . S
C1133 O1126 1.257 . S
Zn1134 O1137 2.031 . S
Zn1134 O1139 2.049 . S
Zn1134 O1144 2.067 . S
Zn1135 O1136 1.962 . S
Zn1135 O1138 1.986 . S
Zn1135 O1140 1.996 . S
Zn1135 O1143 1.943 . S
O1136 Zn1135 1.962 . S
O1136 C1141 1.254 . S
O1137 Zn1134 2.031 . S
O1137 C1141 1.269 . S
O1138 Zn1135 1.986 . S
O1138 C1145 1.262 . S
O1139 Zn1134 2.049 . S
O1139 C1147 1.260 . S
O1140 Zn1135 1.996 . S
O1140 C1147 1.257 . S
C1141 O1136 1.254 . S
C1141 O1137 1.269 . S
C1142 O1143 1.249 . S
C1142 O1144 1.270 . S
O1143 Zn1135 1.943 . S
O1143 C1142 1.249 . S
O1144 Zn1134 2.067 . S
O1144 C1142 1.270 . S
C1145 O1138 1.262 . S
C1145 O1146 1.232 . S
O1146 C1145 1.232 . S
C1147 O1139 1.260 . S
C1147 O1140 1.257 . S
Zn1148 O1151 2.031 . S
Zn1148 O1153 2.049 . S
Zn1148 O1158 2.067 . S
Zn1149 O1150 1.962 . S
Zn1149 O1152 1.986 . S
Zn1149 O1154 1.996 . S
Zn1149 O1157 1.943 . S
O1150 Zn1149 1.962 . S
O1150 C1155 1.254 . S
O1151 Zn1148 2.031 . S
O1151 C1155 1.269 . S
O1152 Zn1149 1.986 . S
O1152 C1159 1.262 . S
O1153 Zn1148 2.049 . S
O1153 C1161 1.260 . S
O1154 Zn1149 1.996 . S
O1154 C1161 1.257 . S
C1155 O1150 1.254 . S
C1155 O1151 1.269 . S
C1156 O1157 1.249 . S
C1156 O1158 1.270 . S
O1157 Zn1149 1.943 . S
O1157 C1156 1.249 . S
O1158 Zn1148 2.067 . S
O1158 C1156 1.270 . S
C1159 O1152 1.262 . S
C1159 O1160 1.232 . S
O1160 C1159 1.232 . S
C1161 O1153 1.260 . S
C1161 O1154 1.257 . S
Zn1162 O1165 2.031 . S
Zn1162 O1167 2.049 . S
Zn1162 O1172 2.067 . S
Zn1163 O1164 1.962 . S
Zn1163 O1166 1.986 . S
Zn1163 O1168 1.996 . S
Zn1163 O1171 1.943 . S
O1164 Zn1163 1.962 . S
O1164 C1169 1.254 . S
O1165 Zn1162 2.031 . S
O1165 C1169 1.269 . S
O1166 Zn1163 1.986 . S
O1166 C1173 1.262 . S
O1167 Zn1162 2.049 . S
O1167 C1175 1.260 . S
O1168 Zn1163 1.996 . S
O1168 C1175 1.257 . S
C1169 O1164 1.254 . S
C1169 O1165 1.269 . S
C1170 O1171 1.249 . S
C1170 O1172 1.270 . S
O1171 Zn1163 1.943 . S
O1171 C1170 1.249 . S
O1172 Zn1162 2.067 . S
O1172 C1170 1.270 . S
C1173 O1166 1.262 . S
C1173 O1174 1.232 . S
O1174 C1173 1.232 . S
C1175 O1167 1.260 . S
C1175 O1168 1.257 . S
Zn1176 O1179 2.031 . S
Zn1176 O1181 2.049 . S
Zn1176 O1186 2.067 . S
Zn1177 O1178 1.962 . S
Zn1177 O1180 1.986 . S
Zn1177 O1182 1.996 . S
Zn1177 O1185 1.943 . S
O1178 Zn1177 1.962 . S
O1178 C1183 1.254 . S
O1179 Zn1176 2.031 . S
O1179 C1183 1.269 . S
O1180 Zn1177 1.986 . S
O1180 C1187 1.262 . S
O1181 Zn1176 2.049 . S
O1181 C1189 1.260 . S
O1182 Zn1177 1.996 . S
O1182 C1189 1.257 . S
C1183 O1178 1.254 . S
C1183 O1179 1.269 . S
C1184 O1185 1.249 . S
C1184 O1186 1.270 . S
O1185 Zn1177 1.943 . S
O1185 C1184 1.249 . S
O1186 Zn1176 2.067 . S
O1186 C1184 1.270 . S
C1187 O1180 1.262 . S
C1187 O1188 1.232 . S
O1188 C1187 1.232 . S
C1189 O1181 1.260 . S
C1189 O1182 1.257 . S
Zn1190 O1193 2.031 . S
Zn1190 O1195 2.049 . S
Zn1190 O1200 2.067 . S
Zn1191 O1192 1.962 . S
Zn1191 O1194 1.986 . S
Zn1191 O1196 1.996 . S
Zn1191 O1199 1.943 . S
O1192 Zn1191 1.962 . S
O1192 C1197 1.254 . S
O1193 Zn1190 2.031 . S
O1193 C1197 1.269 . S
O1194 Zn1191 1.986 . S
O1194 C1201 1.262 . S
O1195 Zn1190 2.049 . S
O1195 C1203 1.260 . S
O1196 Zn1191 1.996 . S
O1196 C1203 1.257 . S
C1197 O1192 1.254 . S
C1197 O1193 1.269 . S
C1198 O1199 1.249 . S
C1198 O1200 1.270 . S
O1199 Zn1191 1.943 . S
O1199 C1198 1.249 . S
O1200 Zn1190 2.067 . S
O1200 C1198 1.270 . S
C1201 O1194 1.262 . S
C1201 O1202 1.232 . S
O1202 C1201 1.232 . S
C1203 O1195 1.260 . S
C1203 O1196 1.257 . S
Zn1204 O1207 2.031 . S
Zn1204 O1209 2.049 . S
Zn1204 O1214 2.067 . S
Zn1205 O1206 1.962 . S
Zn1205 O1208 1.986 . S
Zn1205 O1210 1.996 . S
Zn1205 O1213 1.943 . S
O1206 Zn1205 1.962 . S
O1206 C1211 1.254 . S
O1207 Zn1204 2.031 . S
O1207 C1211 1.269 . S
O1208 Zn1205 1.986 . S
O1208 C1215 1.262 . S
O1209 Zn1204 2.049 . S
O1209 C1217 1.260 . S
O1210 Zn1205 1.996 . S
O1210 C1217 1.257 . S
C1211 O1206 1.254 . S
C1211 O1207 1.269 . S
C1212 O1213 1.249 . S
C1212 O1214 1.270 . S
O1213 Zn1205 1.943 . S
O1213 C1212 1.249 . S
O1214 Zn1204 2.067 . S
O1214 C1212 1.270 . S
C1215 O1208 1.262 . S
C1215 O1216 1.232 . S
O1216 C1215 1.232 . S
C1217 O1209 1.260 . S
C1217 O1210 1.257 . S
Zn1218 O1221 2.031 . S
Zn1218 O1223 2.049 . S
Zn1218 O1228 2.067 . S
Zn1219 O1220 1.962 . S
Zn1219 O1222 1.986 . S
Zn1219 O1224 1.996 . S
Zn1219 O1227 1.943 . S
O1220 Zn1219 1.962 . S
O1220 C1225 1.254 . S
O1221 Zn1218 2.031 . S
O1221 C1225 1.269 . S
O1222 Zn1219 1.986 . S
O1222 C1229 1.262 . S
O1223 Zn1218 2.049 . S
O1223 C1231 1.260 . S
O1224 Zn1219 1.996 . S
O1224 C1231 1.257 . S
C1225 O1220 1.254 . S
C1225 O1221 1.269 . S
C1226 O1227 1.249 . S
C1226 O1228 1.270 . S
O1227 Zn1219 1.943 . S
O1227 C1226 1.249 . S
O1228 Zn1218 2.067 . S
O1228 C1226 1.270 . S
C1229 O1222 1.262 . S
C1229 O1230 1.232 . S
O1230 C1229 1.232 . S
C1231 O1223 1.260 . S
C1231 O1224 1.257 . S
Zn1232 O1235 2.031 . S
Zn1232 O1237 2.049 . S
Zn1232 O1242 2.067 . S
Zn1233 O1234 1.962 . S
Zn1233 O1236 1.986 . S
Zn1233 O1238 1.996 . S
Zn1233 O1241 1.943 . S
O1234 Zn1233 1.962 . S
O1234 C1239 1.254 . S
O1235 Zn1232 2.031 . S
O1235 C1239 1.269 . S
O1236 Zn1233 1.986 . S
O1236 C1243 1.262 . S
O1237 Zn1232 2.049 . S
O1237 C1245 1.260 . S
O1238 Zn1233 1.996 . S
O1238 C1245 1.257 . S
C1239 O1234 1.254 . S
C1239 O1235 1.269 . S
C1240 O1241 1.249 . S
C1240 O1242 1.270 . S
O1241 Zn1233 1.943 . S
O1241 C1240 1.249 . S
O1242 Zn1232 2.067 . S
O1242 C1240 1.270 . S
C1243 O1236 1.262 . S
C1243 O1244 1.232 . S
O1244 C1243 1.232 . S
C1245 O1237 1.260 . S
C1245 O1238 1.257 . S
Zn1246 O1249 2.031 . S
Zn1246 O1251 2.049 . S
Zn1246 O1256 2.067 . S
Zn1247 O1248 1.962 . S
Zn1247 O1250 1.986 . S
Zn1247 O1252 1.996 . S
Zn1247 O1255 1.943 . S
O1248 Zn1247 1.962 . S
O1248 C1253 1.254 . S
O1249 Zn1246 2.031 . S
O1249 C1253 1.269 . S
O1250 Zn1247 1.986 . S
O1250 C1257 1.262 . S
O1251 Zn1246 2.049 . S
O1251 C1259 1.260 . S
O1252 Zn1247 1.996 . S
O1252 C1259 1.257 . S
C1253 O1248 1.254 . S
C1253 O1249 1.269 . S
C1254 O1255 1.249 . S
C1254 O1256 1.270 . S
O1255 Zn1247 1.943 . S
O1255 C1254 1.249 . S
O1256 Zn1246 2.067 . S
O1256 C1254 1.270 . S
C1257 O1250 1.262 . S
C1257 O1258 1.232 . S
O1258 C1257 1.232 . S
C1259 O1251 1.260 . S
C1259 O1252 1.257 . S
Zn1260 O1263 2.031 . S
Zn1260 O1265 2.049 . S
Zn1260 O1270 2.067 . S
Zn1261 O1262 1.962 . S
Zn1261 O1264 1.986 . S
Zn1261 O1266 1.996 . S
Zn1261 O1269 1.943 . S
O1262 Zn1261 1.962 . S
O1262 C1267 1.254 . S
O1263 Zn1260 2.031 . S
O1263 C1267 1.269 . S
O1264 Zn1261 1.986 . S
O1264 C1271 1.262 . S
O1265 Zn1260 2.049 . S
O1265 C1273 1.260 . S
O1266 Zn1261 1.996 . S
O1266 C1273 1.257 . S
C1267 O1262 1.254 . S
C1267 O1263 1.269 . S
C1268 O1269 1.249 . S
C1268 O1270 1.270 . S
O1269 Zn1261 1.943 . S
O1269 C1268 1.249 . S
O1270 Zn1260 2.067 . S
O1270 C1268 1.270 . S
C1271 O1264 1.262 . S
C1271 O1272 1.232 . S
O1272 C1271 1.232 . S
C1273 O1265 1.260 . S
C1273 O1266 1.257 . S
Zn1274 O1277 2.031 . S
Zn1274 O1279 2.049 . S
Zn1274 O1284 2.067 . S
Zn1275 O1276 1.962 . S
Zn1275 O1278 1.986 . S
Zn1275 O1280 1.996 . S
Zn1275 O1283 1.943 . S
O1276 Zn1275 1.962 . S
O1276 C1281 1.254 . S
O1277 Zn1274 2.031 . S
O1277 C1281 1.269 . S
O1278 Zn1275 1.986 . S
O1278 C1285 1.262 . S
O1279 Zn1274 2.049 . S
O1279 C1287 1.260 . S
O1280 Zn1275 1.996 . S
O1280 C1287 1.257 . S
C1281 O1276 1.254 . S
C1281 O1277 1.269 . S
C1282 O1283 1.249 . S
C1282 O1284 1.270 . S
O1283 Zn1275 1.943 . S
O1283 C1282 1.249 . S
O1284 Zn1274 2.067 . S
O1284 C1282 1.270 . S
C1285 O1278 1.262 . S
C1285 O1286 1.232 . S
O1286 C1285 1.232 . S
C1287 O1279 1.260 . S
C1287 O1280 1.257 . S
Zn1288 O1291 2.031 . S
Zn1288 O1293 2.049 . S
Zn1288 O1298 2.067 . S
Zn1289 O1290 1.962 . S
Zn1289 O1292 1.986 . S
Zn1289 O1294 1.996 . S
Zn1289 O1297 1.943 . S
O1290 Zn1289 1.962 . S
O1290 C1295 1.254 . S
O1291 Zn1288 2.031 . S
O1291 C1295 1.269 . S
O1292 Zn1289 1.986 . S
O1292 C1299 1.262 . S
O1293 Zn1288 2.049 . S
O1293 C1301 1.260 . S
O1294 Zn1289 1.996 . S
O1294 C1301 1.257 . S
C1295 O1290 1.254 . S
C1295 O1291 1.269 . S
C1296 O1297 1.249 . S
C1296 O1298 1.270 . S
O1297 Zn1289 1.943 . S
O1297 C1296 1.249 . S
O1298 Zn1288 2.067 . S
O1298 C1296 1.270 . S
C1299 O1292 1.262 . S
C1299 O1300 1.232 . S
O1300 C1299 1.232 . S
C1301 O1293 1.260 . S
C1301 O1294 1.257 . S
Zn1302 O1305 2.031 . S
Zn1302 O1307 2.049 . S
Zn1302 O1312 2.067 . S
Zn1303 O1304 1.962 . S
Zn1303 O1306 1.986 . S
Zn1303 O1308 1.996 . S
Zn1303 O1311 1.943 . S
O1304 Zn1303 1.962 . S
O1304 C1309 1.254 . S
O1305 Zn1302 2.031 . S
O1305 C1309 1.269 . S
O1306 Zn1303 1.986 . S
O1306 C1313 1.262 . S
O1307 Zn1302 2.049 . S
O1307 C1315 1.260 . S
O1308 Zn1303 1.996 . S
O1308 C1315 1.257 . S
C1309 O1304 1.254 . S
C1309 O1305 1.269 . S
C1310 O1311 1.249 . S
C1310 O1312 1.270 . S
O1311 Zn1303 1.943 . S
O1311 C1310 1.249 . S
O1312 Zn1302 2.067 . S
O1312 C1310 1.270 . S
C1313 O1306 1.262 . S
C1313 O1314 1.232 . S
O1314 C1313 1.232 . S
C1315 O1307 1.260 . S
C1315 O1308 1.257 . S
Zn1316 O1319 2.031 . S
Zn1316 O1321 2.049 . S
Zn1316 O1326 2.067 . S
Zn1317 O1318 1.962 . S
Zn1317 O1320 1.986 . S
Zn1317 O1322 1.996 . S
Zn1317 O1325 1.943 . S
O1318 Zn1317 1.962 . S
O1318 C1323 1.254 . S
O1319 Zn1316 2.031 . S
O1319 C1323 1.269 . S
O1320 Zn1317 1.986 . S
O1320 C1327 1.262 . S
O1321 Zn1316 2.049 . S
O1321 C1329 1.260 . S
O1322 Zn1317 1.996 . S
O1322 C1329 1.257 . S
C1323 O1318 1.254 . S
C1323 O1319 1.269 . S
C1324 O1325 1.249 . S
C1324 O1326 1.270 . S
O1325 Zn1317 1.943 . S
O1325 C1324 1.249 . S
O1326 Zn1316 2.067 . S
O1326 C1324 1.270 . S
C1327 O1320 1.262 . S
C1327 O1328 1.232 . S
O1328 C1327 1.232 . S
C1329 O1321 1.260 . S
C1329 O1322 1.257 . S
Zn1330 O1333 2.031 . S
Zn1330 O1335 2.049 . S
Zn1330 O1340 2.067 . S
Zn1331 O1332 1.962 . S
Zn1331 O1334 1.986 . S
Zn1331 O1336 1.996 . S
Zn1331 O1339 1.943 . S
O1332 Zn1331 1.962 . S
O1332 C1337 1.254 . S
O1333 Zn1330 2.031 . S
O1333 C1337 1.269 . S
O1334 Zn1331 1.986 . S
O1334 C1341 1.262 . S
O1335 Zn1330 2.049 . S
O1335 C1343 1.260 . S
O1336 Zn1331 1.996 . S
O1336 C1343 1.257 . S
C1337 O1332 1.254 . S
C1337 O1333 1.269 . S
C1338 O1339 1.249 . S
C1338 O1340 1.270 . S
O1339 Zn1331 1.943 . S
O1339 C1338 1.249 . S
O1340 Zn1330 2.067 . S
O1340 C1338 1.270 . S
C1341 O1334 1.262 . S
C1341 O1342 1.232 . S
O1342 C1341 1.232 . S
C1343 O1335 1.260 . S
C1343 O1336 1.257 . S
H1344 C1350 0.930 . S
H1345 C1354 0.930 . S
H1346 C1359 0.929 . S
H1347 C1357 0.929 . S
H1348 C1352 0.929 . S
H1349 C1358 0.929 . S
C1350 H1344 0.930 . S
C1350 C1351 1.367 . S
C1350 C1358 1.378 . S
C1351 C1350 1.367 . S
C1351 C1359 1.433 . S
C1352 H1348 0.929 . S
C1352 C1354 1.378 . S
C1352 C1356 1.350 . S
C1353 C1356 1.463 . S
C1353 C1358 1.350 . S
C1353 N1361 1.427 . S
C1354 H1345 0.930 . S
C1354 C1352 1.378 . S
C1354 C1355 1.367 . S
C1355 C1354 1.367 . S
C1355 C1357 1.433 . S
C1356 C1352 1.350 . S
C1356 C1353 1.463 . S
C1356 N1360 1.427 . S
C1357 H1347 0.929 . S
C1357 C1355 1.433 . S
C1357 N1360 1.384 . S
C1358 H1349 0.929 . S
C1358 C1350 1.378 . S
C1358 C1353 1.350 . S
C1359 H1346 0.929 . S
C1359 C1351 1.433 . S
C1359 N1361 1.384 . S
N1360 C1356 1.427 . S
N1360 C1357 1.384 . S
N1361 C1353 1.427 . S
N1361 C1359 1.384 . S
H1362 C1368 0.930 . S
H1363 C1372 0.930 . S
H1364 C1377 0.929 . S
H1365 C1375 0.929 . S
H1366 C1370 0.929 . S
H1367 C1376 0.929 . S
C1368 H1362 0.930 . S
C1368 C1369 1.367 . S
C1368 C1376 1.378 . S
C1369 C1368 1.367 . S
C1369 C1377 1.433 1_655 S
C1370 H1366 0.929 . S
C1370 C1372 1.378 . S
C1370 C1374 1.350 . S
C1371 C1374 1.463 . S
C1371 C1376 1.350 1_455 S
C1371 N1379 1.427 . S
C1372 H1363 0.930 . S
C1372 C1370 1.378 . S
C1372 C1373 1.367 . S
C1373 C1372 1.367 . S
C1373 C1375 1.433 . S
C1374 C1370 1.350 . S
C1374 C1371 1.463 . S
C1374 N1378 1.427 . S
C1375 H1365 0.929 . S
C1375 C1373 1.433 . S
C1375 N1378 1.384 . S
C1376 H1367 0.929 . S
C1376 C1368 1.378 . S
C1376 C1371 1.350 1_655 S
C1377 H1364 0.929 . S
C1377 C1369 1.433 1_455 S
C1377 N1379 1.384 . S
N1378 C1374 1.427 . S
N1378 C1375 1.384 . S
N1379 C1371 1.427 . S
N1379 C1377 1.384 . S
H1380 C1386 0.930 . S
H1381 C1390 0.930 . S
H1382 C1395 0.929 . S
H1383 C1393 0.929 . S
H1384 C1388 0.929 . S
H1385 C1394 0.929 . S
C1386 H1380 0.930 . S
C1386 C1387 1.367 . S
C1386 C1394 1.378 . S
C1387 C1386 1.367 . S
C1387 C1395 1.433 . S
C1388 H1384 0.929 . S
C1388 C1390 1.378 . S
C1388 C1392 1.350 . S
C1389 C1392 1.463 . S
C1389 C1394 1.350 . S
C1389 N1397 1.427 . S
C1390 H1381 0.930 . S
C1390 C1388 1.378 . S
C1390 C1391 1.367 . S
C1391 C1390 1.367 . S
C1391 C1393 1.433 . S
C1392 C1388 1.350 . S
C1392 C1389 1.463 . S
C1392 N1396 1.427 . S
C1393 H1383 0.929 . S
C1393 C1391 1.433 . S
C1393 N1396 1.384 . S
C1394 H1385 0.929 . S
C1394 C1386 1.378 . S
C1394 C1389 1.350 . S
C1395 H1382 0.929 . S
C1395 C1387 1.433 . S
C1395 N1397 1.384 . S
N1396 C1392 1.427 . S
N1396 C1393 1.384 . S
N1397 C1389 1.427 . S
N1397 C1395 1.384 . S
H1398 C1404 0.930 . S
H1399 C1408 0.930 . S
H1400 C1413 0.929 . S
H1401 C1411 0.929 . S
H1402 C1406 0.929 . S
H1403 C1412 0.929 . S
C1404 H1398 0.930 . S
C1404 C1405 1.367 . S
C1404 C1412 1.378 . S
C1405 C1404 1.367 . S
C1405 C1413 1.433 . S
C1406 H1402 0.929 . S
C1406 C1408 1.378 . S
C1406 C1410 1.350 . S
C1407 C1410 1.463 . S
C1407 C1412 1.350 . S
C1407 N1415 1.427 . S
C1408 H1399 0.930 . S
C1408 C1406 1.378 . S
C1408 C1409 1.367 . S
C1409 C1408 1.367 . S
C1409 C1411 1.433 . S
C1410 C1406 1.350 . S
C1410 C1407 1.463 . S
C1410 N1414 1.427 . S
C1411 H1401 0.929 . S
C1411 C1409 1.433 . S
C1411 N1414 1.384 . S
C1412 H1403 0.929 . S
C1412 C1404 1.378 . S
C1412 C1407 1.350 . S
C1413 H1400 0.929 . S
C1413 C1405 1.433 . S
C1413 N1415 1.384 . S
N1414 C1410 1.427 . S
N1414 C1411 1.384 . S
N1415 C1407 1.427 . S
N1415 C1413 1.384 . S
H1416 C1422 0.930 . S
H1417 C1426 0.930 . S
H1418 C1431 0.929 . S
H1419 C1429 0.929 . S
H1420 C1424 0.929 . S
H1421 C1430 0.929 . S
C1422 H1416 0.930 . S
C1422 C1423 1.367 . S
C1422 C1430 1.378 . S
C1423 C1422 1.367 . S
C1423 C1431 1.433 . S
C1424 H1420 0.929 . S
C1424 C1426 1.378 . S
C1424 C1428 1.350 . S
C1425 C1428 1.463 . S
C1425 C1430 1.350 . S
C1425 N1433 1.427 . S
C1426 H1417 0.930 . S
C1426 C1424 1.378 . S
C1426 C1427 1.367 . S
C1427 C1426 1.367 . S
C1427 C1429 1.433 . S
C1428 C1424 1.350 . S
C1428 C1425 1.463 . S
C1428 N1432 1.427 . S
C1429 H1419 0.929 . S
C1429 C1427 1.433 . S
C1429 N1432 1.384 . S
C1430 H1421 0.929 . S
C1430 C1422 1.378 . S
C1430 C1425 1.350 . S
C1431 H1418 0.929 . S
C1431 C1423 1.433 . S
C1431 N1433 1.384 . S
N1432 C1428 1.427 . S
N1432 C1429 1.384 . S
N1433 C1425 1.427 . S
N1433 C1431 1.384 . S
H1434 C1440 0.930 . S
H1435 C1444 0.930 . S
H1436 C1449 0.929 . S
H1437 C1447 0.929 . S
H1438 C1442 0.929 . S
H1439 C1448 0.929 . S
C1440 H1434 0.930 . S
C1440 C1441 1.367 . S
C1440 C1448 1.378 . S
C1441 C1440 1.367 . S
C1441 C1449 1.433 . S
C1442 H1438 0.929 . S
C1442 C1444 1.378 . S
C1442 C1446 1.350 . S
C1443 C1446 1.463 . S
C1443 C1448 1.350 . S
C1443 N1451 1.427 . S
C1444 H1435 0.930 . S
C1444 C1442 1.378 . S
C1444 C1445 1.367 . S
C1445 C1444 1.367 . S
C1445 C1447 1.433 . S
C1446 C1442 1.350 . S
C1446 C1443 1.463 . S
C1446 N1450 1.427 . S
C1447 H1437 0.929 . S
C1447 C1445 1.433 . S
C1447 N1450 1.384 . S
C1448 H1439 0.929 . S
C1448 C1440 1.378 . S
C1448 C1443 1.350 . S
C1449 H1436 0.929 . S
C1449 C1441 1.433 . S
C1449 N1451 1.384 . S
N1450 C1446 1.427 . S
N1450 C1447 1.384 . S
N1451 C1443 1.427 . S
N1451 C1449 1.384 . S
H1452 C1458 0.930 . S
H1453 C1462 0.930 . S
H1454 C1467 0.929 . S
H1455 C1465 0.929 . S
H1456 C1460 0.929 . S
H1457 C1466 0.929 . S
C1458 H1452 0.930 . S
C1458 C1459 1.367 . S
C1458 C1466 1.378 . S
C1459 C1458 1.367 . S
C1459 C1467 1.433 . S
C1460 H1456 0.929 . S
C1460 C1462 1.378 . S
C1460 C1464 1.350 . S
C1461 C1464 1.463 . S
C1461 C1466 1.350 . S
C1461 N1469 1.427 . S
C1462 H1453 0.930 . S
C1462 C1460 1.378 . S
C1462 C1463 1.367 . S
C1463 C1462 1.367 . S
C1463 C1465 1.433 . S
C1464 C1460 1.350 . S
C1464 C1461 1.463 . S
C1464 N1468 1.427 . S
C1465 H1455 0.929 . S
C1465 C1463 1.433 . S
C1465 N1468 1.384 . S
C1466 H1457 0.929 . S
C1466 C1458 1.378 . S
C1466 C1461 1.350 . S
C1467 H1454 0.929 . S
C1467 C1459 1.433 . S
C1467 N1469 1.384 . S
N1468 C1464 1.427 . S
N1468 C1465 1.384 . S
N1469 C1461 1.427 . S
N1469 C1467 1.384 . S
H1470 C1476 0.930 . S
H1471 C1480 0.930 . S
H1472 C1485 0.929 . S
H1473 C1483 0.929 . S
H1474 C1478 0.929 . S
H1475 C1484 0.929 . S
C1476 H1470 0.930 . S
C1476 C1477 1.367 . S
C1476 C1484 1.378 . S
C1477 C1476 1.367 . S
C1477 C1485 1.433 . S
C1478 H1474 0.929 . S
C1478 C1480 1.378 . S
C1478 C1482 1.350 1_655 S
C1479 C1482 1.463 . S
C1479 C1484 1.350 . S
C1479 N1487 1.427 . S
C1480 H1471 0.930 . S
C1480 C1478 1.378 . S
C1480 C1481 1.367 . S
C1481 C1480 1.367 . S
C1481 C1483 1.433 1_655 S
C1482 C1478 1.350 1_455 S
C1482 C1479 1.463 . S
C1482 N1486 1.427 . S
C1483 H1473 0.929 . S
C1483 C1481 1.433 1_455 S
C1483 N1486 1.384 . S
C1484 H1475 0.929 . S
C1484 C1476 1.378 . S
C1484 C1479 1.350 . S
C1485 H1472 0.929 . S
C1485 C1477 1.433 . S
C1485 N1487 1.384 . S
N1486 C1482 1.427 . S
N1486 C1483 1.384 . S
N1487 C1479 1.427 . S
N1487 C1485 1.384 . S
H1488 C1494 0.930 . S
H1489 C1498 0.930 . S
H1490 C1503 0.929 . S
H1491 C1501 0.929 . S
H1492 C1496 0.929 . S
H1493 C1502 0.929 . S
C1494 H1488 0.930 . S
C1494 C1495 1.367 . S
C1494 C1502 1.378 . S
C1495 C1494 1.367 . S
C1495 C1503 1.433 . S
C1496 H1492 0.929 . S
C1496 C1498 1.378 . S
C1496 C1500 1.350 . S
C1497 C1500 1.463 . S
C1497 C1502 1.350 . S
C1497 N1505 1.427 . S
C1498 H1489 0.930 . S
C1498 C1496 1.378 . S
C1498 C1499 1.367 . S
C1499 C1498 1.367 . S
C1499 C1501 1.433 . S
C1500 C1496 1.350 . S
C1500 C1497 1.463 . S
C1500 N1504 1.427 . S
C1501 H1491 0.929 . S
C1501 C1499 1.433 . S
C1501 N1504 1.384 . S
C1502 H1493 0.929 . S
C1502 C1494 1.378 . S
C1502 C1497 1.350 . S
C1503 H1490 0.929 . S
C1503 C1495 1.433 . S
C1503 N1505 1.384 . S
N1504 C1500 1.427 . S
N1504 C1501 1.384 . S
N1505 C1497 1.427 . S
N1505 C1503 1.384 . S
H1506 C1512 0.930 . S
H1507 C1516 0.930 . S
H1508 C1521 0.929 . S
H1509 C1519 0.929 . S
H1510 C1514 0.929 . S
H1511 C1520 0.929 . S
C1512 H1506 0.930 . S
C1512 C1513 1.367 . S
C1512 C1520 1.378 . S
C1513 C1512 1.367 . S
C1513 C1521 1.433 . S
C1514 H1510 0.929 . S
C1514 C1516 1.378 . S
C1514 C1518 1.350 . S
C1515 C1518 1.463 . S
C1515 C1520 1.350 . S
C1515 N1523 1.427 . S
C1516 H1507 0.930 . S
C1516 C1514 1.378 . S
C1516 C1517 1.367 . S
C1517 C1516 1.367 . S
C1517 C1519 1.433 . S
C1518 C1514 1.350 . S
C1518 C1515 1.463 . S
C1518 N1522 1.427 . S
C1519 H1509 0.929 . S
C1519 C1517 1.433 . S
C1519 N1522 1.384 . S
C1520 H1511 0.929 . S
C1520 C1512 1.378 . S
C1520 C1515 1.350 . S
C1521 H1508 0.929 . S
C1521 C1513 1.433 . S
C1521 N1523 1.384 . S
N1522 C1518 1.427 . S
N1522 C1519 1.384 . S
N1523 C1515 1.427 . S
N1523 C1521 1.384 . S
H1524 C1530 0.930 . S
H1525 C1534 0.930 . S
H1526 C1539 0.929 . S
H1527 C1537 0.929 . S
H1528 C1532 0.929 . S
H1529 C1538 0.929 . S
C1530 H1524 0.930 . S
C1530 C1531 1.367 . S
C1530 C1538 1.378 . S
C1531 C1530 1.367 . S
C1531 C1539 1.433 . S
C1532 H1528 0.929 . S
C1532 C1534 1.378 . S
C1532 C1536 1.350 . S
C1533 C1536 1.463 . S
C1533 C1538 1.350 . S
C1533 N1541 1.427 . S
C1534 H1525 0.930 . S
C1534 C1532 1.378 . S
C1534 C1535 1.367 . S
C1535 C1534 1.367 . S
C1535 C1537 1.433 . S
C1536 C1532 1.350 . S
C1536 C1533 1.463 . S
C1536 N1540 1.427 . S
C1537 H1527 0.929 . S
C1537 C1535 1.433 . S
C1537 N1540 1.384 . S
C1538 H1529 0.929 . S
C1538 C1530 1.378 . S
C1538 C1533 1.350 . S
C1539 H1526 0.929 . S
C1539 C1531 1.433 . S
C1539 N1541 1.384 . S
N1540 C1536 1.427 . S
N1540 C1537 1.384 . S
N1541 C1533 1.427 . S
N1541 C1539 1.384 . S
H1542 C1548 0.930 . S
H1543 C1552 0.930 . S
H1544 C1557 0.929 . S
H1545 C1555 0.929 . S
H1546 C1550 0.929 . S
H1547 C1556 0.929 . S
C1548 H1542 0.930 . S
C1548 C1549 1.367 . S
C1548 C1556 1.378 . S
C1549 C1548 1.367 . S
C1549 C1557 1.433 . S
C1550 H1546 0.929 . S
C1550 C1552 1.378 . S
C1550 C1554 1.350 1_554 S
C1551 C1554 1.463 . S
C1551 C1556 1.350 . S
C1551 N1559 1.427 . S
C1552 H1543 0.930 . S
C1552 C1550 1.378 . S
C1552 C1553 1.367 . S
C1553 C1552 1.367 . S
C1553 C1555 1.433 1_554 S
C1554 C1550 1.350 1_556 S
C1554 C1551 1.463 . S
C1554 N1558 1.427 . S
C1555 H1545 0.929 . S
C1555 C1553 1.433 1_556 S
C1555 N1558 1.384 . S
C1556 H1547 0.929 . S
C1556 C1548 1.378 . S
C1556 C1551 1.350 . S
C1557 H1544 0.929 . S
C1557 C1549 1.433 . S
C1557 N1559 1.384 . S
N1558 C1554 1.427 . S
N1558 C1555 1.384 . S
N1559 C1551 1.427 . S
N1559 C1557 1.384 . S
H1560 C1566 0.930 . S
H1561 C1570 0.930 . S
H1562 C1575 0.929 . S
H1563 C1573 0.929 . S
H1564 C1568 0.929 . S
H1565 C1574 0.929 . S
C1566 H1560 0.930 . S
C1566 C1567 1.367 . S
C1566 C1574 1.378 . S
C1567 C1566 1.367 . S
C1567 C1575 1.433 . S
C1568 H1564 0.929 . S
C1568 C1570 1.378 . S
C1568 C1572 1.350 . S
C1569 C1572 1.463 . S
C1569 C1574 1.350 . S
C1569 N1577 1.427 . S
C1570 H1561 0.930 . S
C1570 C1568 1.378 . S
C1570 C1571 1.367 . S
C1571 C1570 1.367 . S
C1571 C1573 1.433 . S
C1572 C1568 1.350 . S
C1572 C1569 1.463 . S
C1572 N1576 1.427 . S
C1573 H1563 0.929 . S
C1573 C1571 1.433 . S
C1573 N1576 1.384 . S
C1574 H1565 0.929 . S
C1574 C1566 1.378 . S
C1574 C1569 1.350 . S
C1575 H1562 0.929 . S
C1575 C1567 1.433 . S
C1575 N1577 1.384 . S
N1576 C1572 1.427 . S
N1576 C1573 1.384 . S
N1577 C1569 1.427 . S
N1577 C1575 1.384 . S
H1578 C1584 0.930 . S
H1579 C1588 0.930 . S
H1580 C1593 0.929 . S
H1581 C1591 0.929 . S
H1582 C1586 0.929 . S
H1583 C1592 0.929 . S
C1584 H1578 0.930 . S
C1584 C1585 1.367 . S
C1584 C1592 1.378 . S
C1585 C1584 1.367 . S
C1585 C1593 1.433 . S
C1586 H1582 0.929 . S
C1586 C1588 1.378 . S
C1586 C1590 1.350 . S
C1587 C1590 1.463 . S
C1587 C1592 1.350 . S
C1587 N1595 1.427 . S
C1588 H1579 0.930 . S
C1588 C1586 1.378 . S
C1588 C1589 1.367 . S
C1589 C1588 1.367 . S
C1589 C1591 1.433 . S
C1590 C1586 1.350 . S
C1590 C1587 1.463 . S
C1590 N1594 1.427 . S
C1591 H1581 0.929 . S
C1591 C1589 1.433 . S
C1591 N1594 1.384 . S
C1592 H1583 0.929 . S
C1592 C1584 1.378 . S
C1592 C1587 1.350 . S
C1593 H1580 0.929 . S
C1593 C1585 1.433 . S
C1593 N1595 1.384 . S
N1594 C1590 1.427 . S
N1594 C1591 1.384 . S
N1595 C1587 1.427 . S
N1595 C1593 1.384 . S
H1596 C1602 0.930 . S
H1597 C1606 0.930 . S
H1598 C1611 0.929 . S
H1599 C1609 0.929 . S
H1600 C1604 0.929 . S
H1601 C1610 0.929 . S
C1602 H1596 0.930 . S
C1602 C1603 1.367 . S
C1602 C1610 1.378 . S
C1603 C1602 1.367 . S
C1603 C1611 1.433 . S
C1604 H1600 0.929 . S
C1604 C1606 1.378 . S
C1604 C1608 1.350 . S
C1605 C1608 1.463 . S
C1605 C1610 1.350 . S
C1605 N1613 1.427 . S
C1606 H1597 0.930 . S
C1606 C1604 1.378 . S
C1606 C1607 1.367 . S
C1607 C1606 1.367 . S
C1607 C1609 1.433 . S
C1608 C1604 1.350 . S
C1608 C1605 1.463 . S
C1608 N1612 1.427 . S
C1609 H1599 0.929 . S
C1609 C1607 1.433 . S
C1609 N1612 1.384 . S
C1610 H1601 0.929 . S
C1610 C1602 1.378 . S
C1610 C1605 1.350 . S
C1611 H1598 0.929 . S
C1611 C1603 1.433 . S
C1611 N1613 1.384 . S
N1612 C1608 1.427 . S
N1612 C1609 1.384 . S
N1613 C1605 1.427 . S
N1613 C1611 1.384 . S
H1614 C1620 0.930 . S
H1615 C1624 0.930 . S
H1616 C1629 0.929 . S
H1617 C1627 0.929 . S
H1618 C1622 0.929 . S
H1619 C1628 0.929 . S
C1620 H1614 0.930 . S
C1620 C1621 1.367 . S
C1620 C1628 1.378 . S
C1621 C1620 1.367 . S
C1621 C1629 1.433 . S
C1622 H1618 0.929 . S
C1622 C1624 1.378 . S
C1622 C1626 1.350 . S
C1623 C1626 1.463 . S
C1623 C1628 1.350 . S
C1623 N1631 1.427 . S
C1624 H1615 0.930 . S
C1624 C1622 1.378 . S
C1624 C1625 1.367 1_554 S
C1625 C1624 1.367 1_556 S
C1625 C1627 1.433 . S
C1626 C1622 1.350 . S
C1626 C1623 1.463 . S
C1626 N1630 1.427 1_554 S
C1627 H1617 0.929 . S
C1627 C1625 1.433 . S
C1627 N1630 1.384 . S
C1628 H1619 0.929 . S
C1628 C1620 1.378 . S
C1628 C1623 1.350 . S
C1629 H1616 0.929 . S
C1629 C1621 1.433 . S
C1629 N1631 1.384 . S
N1630 C1626 1.427 1_556 S
N1630 C1627 1.384 . S
N1631 C1623 1.427 . S
N1631 C1629 1.384 . S
H1632 C1638 0.930 . S
H1633 C1642 0.930 . S
H1634 C1647 0.929 . S
H1635 C1645 0.929 . S
H1636 C1640 0.929 . S
H1637 C1646 0.929 . S
C1638 H1632 0.930 . S
C1638 C1639 1.367 . S
C1638 C1646 1.378 . S
C1639 C1638 1.367 . S
C1639 C1647 1.433 . S
C1640 H1636 0.929 . S
C1640 C1642 1.378 . S
C1640 C1644 1.350 . S
C1641 C1644 1.463 . S
C1641 C1646 1.350 . S
C1641 N1649 1.427 . S
C1642 H1633 0.930 . S
C1642 C1640 1.378 . S
C1642 C1643 1.367 . S
C1643 C1642 1.367 . S
C1643 C1645 1.433 . S
C1644 C1640 1.350 . S
C1644 C1641 1.463 . S
C1644 N1648 1.427 . S
C1645 H1635 0.929 . S
C1645 C1643 1.433 . S
C1645 N1648 1.384 . S
C1646 H1637 0.929 . S
C1646 C1638 1.378 . S
C1646 C1641 1.350 . S
C1647 H1634 0.929 . S
C1647 C1639 1.433 . S
C1647 N1649 1.384 . S
N1648 C1644 1.427 . S
N1648 C1645 1.384 . S
N1649 C1641 1.427 . S
N1649 C1647 1.384 . S
H1650 C1656 0.930 . S
H1651 C1660 0.930 . S
H1652 C1665 0.929 . S
H1653 C1663 0.929 . S
H1654 C1658 0.929 . S
H1655 C1664 0.929 . S
C1656 H1650 0.930 . S
C1656 C1657 1.367 . S
C1656 C1664 1.378 . S
C1657 C1656 1.367 . S
C1657 C1665 1.433 . S
C1658 H1654 0.929 . S
C1658 C1660 1.378 . S
C1658 C1662 1.350 . S
C1659 C1662 1.463 . S
C1659 C1664 1.350 . S
C1659 N1667 1.427 . S
C1660 H1651 0.930 . S
C1660 C1658 1.378 . S
C1660 C1661 1.367 . S
C1661 C1660 1.367 . S
C1661 C1663 1.433 . S
C1662 C1658 1.350 . S
C1662 C1659 1.463 . S
C1662 N1666 1.427 . S
C1663 H1653 0.929 . S
C1663 C1661 1.433 . S
C1663 N1666 1.384 . S
C1664 H1655 0.929 . S
C1664 C1656 1.378 . S
C1664 C1659 1.350 . S
C1665 H1652 0.929 . S
C1665 C1657 1.433 . S
C1665 N1667 1.384 . S
N1666 C1662 1.427 . S
N1666 C1663 1.384 . S
N1667 C1659 1.427 . S
N1667 C1665 1.384 . S
H1668 C1674 0.930 . S
H1669 C1678 0.930 . S
H1670 C1683 0.929 . S
H1671 C1681 0.929 . S
H1672 C1676 0.929 . S
H1673 C1682 0.929 . S
C1674 H1668 0.930 . S
C1674 C1675 1.367 . S
C1674 C1682 1.378 . S
C1675 C1674 1.367 . S
C1675 C1683 1.433 . S
C1676 H1672 0.929 . S
C1676 C1678 1.378 . S
C1676 C1680 1.350 . S
C1677 C1680 1.463 . S
C1677 C1682 1.350 . S
C1677 N1685 1.427 . S
C1678 H1669 0.930 . S
C1678 C1676 1.378 . S
C1678 C1679 1.367 . S
C1679 C1678 1.367 . S
C1679 C1681 1.433 . S
C1680 C1676 1.350 . S
C1680 C1677 1.463 . S
C1680 N1684 1.427 . S
C1681 H1671 0.929 . S
C1681 C1679 1.433 . S
C1681 N1684 1.384 . S
C1682 H1673 0.929 . S
C1682 C1674 1.378 . S
C1682 C1677 1.350 . S
C1683 H1670 0.929 . S
C1683 C1675 1.433 . S
C1683 N1685 1.384 . S
N1684 C1680 1.427 . S
N1684 C1681 1.384 . S
N1685 C1677 1.427 . S
N1685 C1683 1.384 . S
H1686 C1692 0.930 . S
H1687 C1696 0.930 . S
H1688 C1701 0.929 . S
H1689 C1699 0.929 . S
H1690 C1694 0.929 . S
H1691 C1700 0.929 . S
C1692 H1686 0.930 . S
C1692 C1693 1.367 . S
C1692 C1700 1.378 . S
C1693 C1692 1.367 . S
C1693 C1701 1.433 . S
C1694 H1690 0.929 . S
C1694 C1696 1.378 . S
C1694 C1698 1.350 . S
C1695 C1698 1.463 . S
C1695 C1700 1.350 . S
C1695 N1703 1.427 . S
C1696 H1687 0.930 . S
C1696 C1694 1.378 . S
C1696 C1697 1.367 . S
C1697 C1696 1.367 . S
C1697 C1699 1.433 . S
C1698 C1694 1.350 . S
C1698 C1695 1.463 . S
C1698 N1702 1.427 . S
C1699 H1689 0.929 . S
C1699 C1697 1.433 . S
C1699 N1702 1.384 . S
C1700 H1691 0.929 . S
C1700 C1692 1.378 . S
C1700 C1695 1.350 . S
C1701 H1688 0.929 . S
C1701 C1693 1.433 . S
C1701 N1703 1.384 . S
N1702 C1698 1.427 . S
N1702 C1699 1.384 . S
N1703 C1695 1.427 . S
N1703 C1701 1.384 . S
H1704 C1710 0.930 . S
H1705 C1714 0.930 . S
H1706 C1719 0.929 . S
H1707 C1717 0.929 . S
H1708 C1712 0.929 . S
H1709 C1718 0.929 . S
C1710 H1704 0.930 . S
C1710 C1711 1.367 . S
C1710 C1718 1.378 . S
C1711 C1710 1.367 . S
C1711 C1719 1.433 . S
C1712 H1708 0.929 . S
C1712 C1714 1.378 . S
C1712 C1716 1.350 1_565 S
C1713 C1716 1.463 . S
C1713 C1718 1.350 . S
C1713 N1721 1.427 . S
C1714 H1705 0.930 . S
C1714 C1712 1.378 . S
C1714 C1715 1.367 . S
C1715 C1714 1.367 . S
C1715 C1717 1.433 1_565 S
C1716 C1712 1.350 1_545 S
C1716 C1713 1.463 . S
C1716 N1720 1.427 . S
C1717 H1707 0.929 . S
C1717 C1715 1.433 1_545 S
C1717 N1720 1.384 . S
C1718 H1709 0.929 . S
C1718 C1710 1.378 . S
C1718 C1713 1.350 . S
C1719 H1706 0.929 . S
C1719 C1711 1.433 . S
C1719 N1721 1.384 . S
N1720 C1716 1.427 . S
N1720 C1717 1.384 . S
N1721 C1713 1.427 . S
N1721 C1719 1.384 . S
H1722 C1728 0.930 . S
H1723 C1732 0.930 . S
H1724 C1737 0.929 . S
H1725 C1735 0.929 . S
H1726 C1730 0.929 . S
H1727 C1736 0.929 . S
C1728 H1722 0.930 . S
C1728 C1729 1.367 . S
C1728 C1736 1.378 . S
C1729 C1728 1.367 . S
C1729 C1737 1.433 . S
C1730 H1726 0.929 . S
C1730 C1732 1.378 . S
C1730 C1734 1.350 . S
C1731 C1734 1.463 . S
C1731 C1736 1.350 . S
C1731 N1739 1.427 . S
C1732 H1723 0.930 . S
C1732 C1730 1.378 . S
C1732 C1733 1.367 . S
C1733 C1732 1.367 . S
C1733 C1735 1.433 . S
C1734 C1730 1.350 . S
C1734 C1731 1.463 . S
C1734 N1738 1.427 . S
C1735 H1725 0.929 . S
C1735 C1733 1.433 . S
C1735 N1738 1.384 . S
C1736 H1727 0.929 . S
C1736 C1728 1.378 . S
C1736 C1731 1.350 . S
C1737 H1724 0.929 . S
C1737 C1729 1.433 . S
C1737 N1739 1.384 . S
N1738 C1734 1.427 . S
N1738 C1735 1.384 . S
N1739 C1731 1.427 . S
N1739 C1737 1.384 . S
H1740 C1746 0.930 . S
H1741 C1750 0.930 . S
H1742 C1755 0.929 . S
H1743 C1753 0.929 . S
H1744 C1748 0.929 . S
H1745 C1754 0.929 . S
C1746 H1740 0.930 . S
C1746 C1747 1.367 . S
C1746 C1754 1.378 . S
C1747 C1746 1.367 . S
C1747 C1755 1.433 . S
C1748 H1744 0.929 . S
C1748 C1750 1.378 . S
C1748 C1752 1.350 . S
C1749 C1752 1.463 . S
C1749 C1754 1.350 . S
C1749 N1757 1.427 . S
C1750 H1741 0.930 . S
C1750 C1748 1.378 . S
C1750 C1751 1.367 . S
C1751 C1750 1.367 . S
C1751 C1753 1.433 . S
C1752 C1748 1.350 . S
C1752 C1749 1.463 . S
C1752 N1756 1.427 . S
C1753 H1743 0.929 . S
C1753 C1751 1.433 . S
C1753 N1756 1.384 . S
C1754 H1745 0.929 . S
C1754 C1746 1.378 . S
C1754 C1749 1.350 . S
C1755 H1742 0.929 . S
C1755 C1747 1.433 . S
C1755 N1757 1.384 . S
N1756 C1752 1.427 . S
N1756 C1753 1.384 . S
N1757 C1749 1.427 . S
N1757 C1755 1.384 . S
H1758 C1764 0.930 . S
H1759 C1768 0.930 . S
H1760 C1773 0.929 . S
H1761 C1771 0.929 . S
H1762 C1766 0.929 . S
H1763 C1772 0.929 . S
C1764 H1758 0.930 . S
C1764 C1765 1.367 . S
C1764 C1772 1.378 . S
C1765 C1764 1.367 . S
C1765 C1773 1.433 . S
C1766 H1762 0.929 . S
C1766 C1768 1.378 . S
C1766 C1770 1.350 . S
C1767 C1770 1.463 . S
C1767 C1772 1.350 . S
C1767 N1775 1.427 . S
C1768 H1759 0.930 . S
C1768 C1766 1.378 . S
C1768 C1769 1.367 . S
C1769 C1768 1.367 . S
C1769 C1771 1.433 . S
C1770 C1766 1.350 . S
C1770 C1767 1.463 . S
C1770 N1774 1.427 . S
C1771 H1761 0.929 . S
C1771 C1769 1.433 . S
C1771 N1774 1.384 . S
C1772 H1763 0.929 . S
C1772 C1764 1.378 . S
C1772 C1767 1.350 . S
C1773 H1760 0.929 . S
C1773 C1765 1.433 . S
C1773 N1775 1.384 . S
N1774 C1770 1.427 . S
N1774 C1771 1.384 . S
N1775 C1767 1.427 . S
N1775 C1773 1.384 . S
H1776 C1782 0.930 . S
H1777 C1786 0.930 . S
H1778 C1791 0.929 . S
H1779 C1789 0.929 . S
H1780 C1784 0.929 . S
H1781 C1790 0.929 . S
C1782 H1776 0.930 . S
C1782 C1783 1.367 . S
C1782 C1790 1.378 . S
C1783 C1782 1.367 . S
C1783 C1791 1.433 . S
C1784 H1780 0.929 . S
C1784 C1786 1.378 . S
C1784 C1788 1.350 . S
C1785 C1788 1.463 . S
C1785 C1790 1.350 . S
C1785 N1793 1.427 . S
C1786 H1777 0.930 . S
C1786 C1784 1.378 . S
C1786 C1787 1.367 . S
C1787 C1786 1.367 . S
C1787 C1789 1.433 . S
C1788 C1784 1.350 . S
C1788 C1785 1.463 . S
C1788 N1792 1.427 . S
C1789 H1779 0.929 . S
C1789 C1787 1.433 . S
C1789 N1792 1.384 . S
C1790 H1781 0.929 . S
C1790 C1782 1.378 . S
C1790 C1785 1.350 . S
C1791 H1778 0.929 . S
C1791 C1783 1.433 . S
C1791 N1793 1.384 . S
N1792 C1788 1.427 . S
N1792 C1789 1.384 . S
N1793 C1785 1.427 . S
N1793 C1791 1.384 . S
H1794 C1800 0.930 . S
H1795 C1804 0.930 . S
H1796 C1809 0.929 . S
H1797 C1807 0.929 . S
H1798 C1802 0.929 . S
H1799 C1808 0.929 . S
C1800 H1794 0.930 . S
C1800 C1801 1.367 . S
C1800 C1808 1.378 1_455 S
C1801 C1800 1.367 . S
C1801 C1809 1.433 . S
C1802 H1798 0.929 . S
C1802 C1804 1.378 . S
C1802 C1806 1.350 . S
C1803 C1806 1.463 . S
C1803 C1808 1.350 . S
C1803 N1811 1.427 1_655 S
C1804 H1795 0.930 . S
C1804 C1802 1.378 . S
C1804 C1805 1.367 . S
C1805 C1804 1.367 . S
C1805 C1807 1.433 . S
C1806 C1802 1.350 . S
C1806 C1803 1.463 . S
C1806 N1810 1.427 . S
C1807 H1797 0.929 . S
C1807 C1805 1.433 . S
C1807 N1810 1.384 . S
C1808 H1799 0.929 . S
C1808 C1800 1.378 1_655 S
C1808 C1803 1.350 . S
C1809 H1796 0.929 . S
C1809 C1801 1.433 . S
C1809 N1811 1.384 . S
N1810 C1806 1.427 . S
N1810 C1807 1.384 . S
N1811 C1803 1.427 1_455 S
N1811 C1809 1.384 . S
H1812 C1818 0.930 . S
H1813 C1822 0.930 . S
H1814 C1827 0.929 . S
H1815 C1825 0.929 . S
H1816 C1820 0.929 . S
H1817 C1826 0.929 . S
C1818 H1812 0.930 . S
C1818 C1819 1.367 . S
C1818 C1826 1.378 . S
C1819 C1818 1.367 . S
C1819 C1827 1.433 . S
C1820 H1816 0.929 . S
C1820 C1822 1.378 . S
C1820 C1824 1.350 . S
C1821 C1824 1.463 . S
C1821 C1826 1.350 . S
C1821 N1829 1.427 . S
C1822 H1813 0.930 . S
C1822 C1820 1.378 . S
C1822 C1823 1.367 . S
C1823 C1822 1.367 . S
C1823 C1825 1.433 . S
C1824 C1820 1.350 . S
C1824 C1821 1.463 . S
C1824 N1828 1.427 . S
C1825 H1815 0.929 . S
C1825 C1823 1.433 . S
C1825 N1828 1.384 . S
C1826 H1817 0.929 . S
C1826 C1818 1.378 . S
C1826 C1821 1.350 . S
C1827 H1814 0.929 . S
C1827 C1819 1.433 . S
C1827 N1829 1.384 . S
N1828 C1824 1.427 . S
N1828 C1825 1.384 . S
N1829 C1821 1.427 . S
N1829 C1827 1.384 . S
H1830 C1836 0.930 . S
H1831 C1840 0.930 . S
H1832 C1845 0.929 . S
H1833 C1843 0.929 . S
H1834 C1838 0.929 . S
H1835 C1844 0.929 . S
C1836 H1830 0.930 . S
C1836 C1837 1.367 . S
C1836 C1844 1.378 . S
C1837 C1836 1.367 . S
C1837 C1845 1.433 . S
C1838 H1834 0.929 . S
C1838 C1840 1.378 . S
C1838 C1842 1.350 . S
C1839 C1842 1.463 . S
C1839 C1844 1.350 . S
C1839 N1847 1.427 . S
C1840 H1831 0.930 . S
C1840 C1838 1.378 . S
C1840 C1841 1.367 . S
C1841 C1840 1.367 . S
C1841 C1843 1.433 . S
C1842 C1838 1.350 . S
C1842 C1839 1.463 . S
C1842 N1846 1.427 . S
C1843 H1833 0.929 . S
C1843 C1841 1.433 . S
C1843 N1846 1.384 . S
C1844 H1835 0.929 . S
C1844 C1836 1.378 . S
C1844 C1839 1.350 . S
C1845 H1832 0.929 . S
C1845 C1837 1.433 . S
C1845 N1847 1.384 . S
N1846 C1842 1.427 . S
N1846 C1843 1.384 . S
N1847 C1839 1.427 . S
N1847 C1845 1.384 . S
H1848 C1854 0.930 . S
H1849 C1858 0.930 . S
H1850 C1863 0.929 . S
H1851 C1861 0.929 . S
H1852 C1856 0.929 . S
H1853 C1862 0.929 . S
C1854 H1848 0.930 . S
C1854 C1855 1.367 . S
C1854 C1862 1.378 . S
C1855 C1854 1.367 . S
C1855 C1863 1.433 . S
C1856 H1852 0.929 . S
C1856 C1858 1.378 . S
C1856 C1860 1.350 . S
C1857 C1860 1.463 . S
C1857 C1862 1.350 . S
C1857 N1865 1.427 . S
C1858 H1849 0.930 . S
C1858 C1856 1.378 . S
C1858 C1859 1.367 . S
C1859 C1858 1.367 . S
C1859 C1861 1.433 . S
C1860 C1856 1.350 . S
C1860 C1857 1.463 . S
C1860 N1864 1.427 . S
C1861 H1851 0.929 . S
C1861 C1859 1.433 . S
C1861 N1864 1.384 . S
C1862 H1853 0.929 . S
C1862 C1854 1.378 . S
C1862 C1857 1.350 . S
C1863 H1850 0.929 . S
C1863 C1855 1.433 . S
C1863 N1865 1.384 . S
N1864 C1860 1.427 . S
N1864 C1861 1.384 . S
N1865 C1857 1.427 . S
N1865 C1863 1.384 . S
H1866 C1872 0.930 . S
H1867 C1876 0.930 . S
H1868 C1881 0.929 . S
H1869 C1879 0.929 . S
H1870 C1874 0.929 . S
H1871 C1880 0.929 . S
C1872 H1866 0.930 . S
C1872 C1873 1.367 . S
C1872 C1880 1.378 . S
C1873 C1872 1.367 . S
C1873 C1881 1.433 . S
C1874 H1870 0.929 . S
C1874 C1876 1.378 . S
C1874 C1878 1.350 . S
C1875 C1878 1.463 . S
C1875 C1880 1.350 . S
C1875 N1883 1.427 . S
C1876 H1867 0.930 . S
C1876 C1874 1.378 . S
C1876 C1877 1.367 . S
C1877 C1876 1.367 . S
C1877 C1879 1.433 . S
C1878 C1874 1.350 . S
C1878 C1875 1.463 . S
C1878 N1882 1.427 . S
C1879 H1869 0.929 . S
C1879 C1877 1.433 . S
C1879 N1882 1.384 . S
C1880 H1871 0.929 . S
C1880 C1872 1.378 . S
C1880 C1875 1.350 . S
C1881 H1868 0.929 . S
C1881 C1873 1.433 . S
C1881 N1883 1.384 . S
N1882 C1878 1.427 . S
N1882 C1879 1.384 . S
N1883 C1875 1.427 . S
N1883 C1881 1.384 . S
H1884 C1890 0.930 . S
H1885 C1894 0.930 . S
H1886 C1899 0.929 . S
H1887 C1897 0.929 . S
H1888 C1892 0.929 . S
H1889 C1898 0.929 . S
C1890 H1884 0.930 . S
C1890 C1891 1.367 . S
C1890 C1898 1.378 . S
C1891 C1890 1.367 . S
C1891 C1899 1.433 . S
C1892 H1888 0.929 . S
C1892 C1894 1.378 . S
C1892 C1896 1.350 . S
C1893 C1896 1.463 . S
C1893 C1898 1.350 . S
C1893 N1901 1.427 . S
C1894 H1885 0.930 . S
C1894 C1892 1.378 . S
C1894 C1895 1.367 . S
C1895 C1894 1.367 . S
C1895 C1897 1.433 . S
C1896 C1892 1.350 . S
C1896 C1893 1.463 . S
C1896 N1900 1.427 . S
C1897 H1887 0.929 . S
C1897 C1895 1.433 . S
C1897 N1900 1.384 . S
C1898 H1889 0.929 . S
C1898 C1890 1.378 . S
C1898 C1893 1.350 . S
C1899 H1886 0.929 . S
C1899 C1891 1.433 . S
C1899 N1901 1.384 . S
N1900 C1896 1.427 . S
N1900 C1897 1.384 . S
N1901 C1893 1.427 . S
N1901 C1899 1.384 . S
H1902 C1908 0.930 . S
H1903 C1912 0.930 . S
H1904 C1917 0.929 . S
H1905 C1915 0.929 . S
H1906 C1910 0.929 . S
H1907 C1916 0.929 . S
C1908 H1902 0.930 . S
C1908 C1909 1.367 . S
C1908 C1916 1.378 . S
C1909 C1908 1.367 . S
C1909 C1917 1.433 . S
C1910 H1906 0.929 . S
C1910 C1912 1.378 1_655 S
C1910 C1914 1.350 . S
C1911 C1914 1.463 . S
C1911 C1916 1.350 . S
C1911 N1919 1.427 . S
C1912 H1903 0.930 . S
C1912 C1910 1.378 1_455 S
C1912 C1913 1.367 . S
C1913 C1912 1.367 . S
C1913 C1915 1.433 . S
C1914 C1910 1.350 . S
C1914 C1911 1.463 . S
C1914 N1918 1.427 1_655 S
C1915 H1905 0.929 . S
C1915 C1913 1.433 . S
C1915 N1918 1.384 . S
C1916 H1907 0.929 . S
C1916 C1908 1.378 . S
C1916 C1911 1.350 . S
C1917 H1904 0.929 . S
C1917 C1909 1.433 . S
C1917 N1919 1.384 . S
N1918 C1914 1.427 1_455 S
N1918 C1915 1.384 . S
N1919 C1911 1.427 . S
N1919 C1917 1.384 . S
H1920 C1926 0.930 . S
H1921 C1930 0.930 . S
H1922 C1935 0.929 . S
H1923 C1933 0.929 . S
H1924 C1928 0.929 . S
H1925 C1934 0.929 . S
C1926 H1920 0.930 . S
C1926 C1927 1.367 . S
C1926 C1934 1.378 . S
C1927 C1926 1.367 . S
C1927 C1935 1.433 . S
C1928 H1924 0.929 . S
C1928 C1930 1.378 . S
C1928 C1932 1.350 . S
C1929 C1932 1.463 . S
C1929 C1934 1.350 . S
C1929 N1937 1.427 . S
C1930 H1921 0.930 . S
C1930 C1928 1.378 . S
C1930 C1931 1.367 . S
C1931 C1930 1.367 . S
C1931 C1933 1.433 . S
C1932 C1928 1.350 . S
C1932 C1929 1.463 . S
C1932 N1936 1.427 . S
C1933 H1923 0.929 . S
C1933 C1931 1.433 . S
C1933 N1936 1.384 . S
C1934 H1925 0.929 . S
C1934 C1926 1.378 . S
C1934 C1929 1.350 . S
C1935 H1922 0.929 . S
C1935 C1927 1.433 . S
C1935 N1937 1.384 . S
N1936 C1932 1.427 . S
N1936 C1933 1.384 . S
N1937 C1929 1.427 . S
N1937 C1935 1.384 . S
H1938 C1944 0.930 . S
H1939 C1948 0.930 . S
H1940 C1953 0.929 . S
H1941 C1951 0.929 . S
H1942 C1946 0.929 . S
H1943 C1952 0.929 . S
C1944 H1938 0.930 . S
C1944 C1945 1.367 . S
C1944 C1952 1.378 . S
C1945 C1944 1.367 . S
C1945 C1953 1.433 . S
C1946 H1942 0.929 . S
C1946 C1948 1.378 . S
C1946 C1950 1.350 . S
C1947 C1950 1.463 . S
C1947 C1952 1.350 . S
C1947 N1955 1.427 . S
C1948 H1939 0.930 . S
C1948 C1946 1.378 . S
C1948 C1949 1.367 . S
C1949 C1948 1.367 . S
C1949 C1951 1.433 . S
C1950 C1946 1.350 . S
C1950 C1947 1.463 . S
C1950 N1954 1.427 . S
C1951 H1941 0.929 . S
C1951 C1949 1.433 . S
C1951 N1954 1.384 . S
C1952 H1943 0.929 . S
C1952 C1944 1.378 . S
C1952 C1947 1.350 . S
C1953 H1940 0.929 . S
C1953 C1945 1.433 . S
C1953 N1955 1.384 . S
N1954 C1950 1.427 . S
N1954 C1951 1.384 . S
N1955 C1947 1.427 . S
N1955 C1953 1.384 . S
H1956 C1962 0.930 . S
H1957 C1966 0.930 . S
H1958 C1971 0.929 . S
H1959 C1969 0.929 . S
H1960 C1964 0.929 . S
H1961 C1970 0.929 . S
C1962 H1956 0.930 . S
C1962 C1963 1.367 . S
C1962 C1970 1.378 . S
C1963 C1962 1.367 . S
C1963 C1971 1.433 . S
C1964 H1960 0.929 . S
C1964 C1966 1.378 . S
C1964 C1968 1.350 . S
C1965 C1968 1.463 . S
C1965 C1970 1.350 . S
C1965 N1973 1.427 . S
C1966 H1957 0.930 . S
C1966 C1964 1.378 . S
C1966 C1967 1.367 . S
C1967 C1966 1.367 . S
C1967 C1969 1.433 . S
C1968 C1964 1.350 . S
C1968 C1965 1.463 . S
C1968 N1972 1.427 . S
C1969 H1959 0.929 . S
C1969 C1967 1.433 . S
C1969 N1972 1.384 . S
C1970 H1961 0.929 . S
C1970 C1962 1.378 . S
C1970 C1965 1.350 . S
C1971 H1958 0.929 . S
C1971 C1963 1.433 . S
C1971 N1973 1.384 . S
N1972 C1968 1.427 . S
N1972 C1969 1.384 . S
N1973 C1965 1.427 . S
N1973 C1971 1.384 . S
H1974 C1980 0.930 . S
H1975 C1984 0.930 . S
H1976 C1989 0.929 . S
H1977 C1987 0.929 . S
H1978 C1982 0.929 . S
H1979 C1988 0.929 . S
C1980 H1974 0.930 . S
C1980 C1981 1.367 1_554 S
C1980 C1988 1.378 . S
C1981 C1980 1.367 1_556 S
C1981 C1989 1.433 . S
C1982 H1978 0.929 . S
C1982 C1984 1.378 . S
C1982 C1986 1.350 . S
C1983 C1986 1.463 . S
C1983 C1988 1.350 . S
C1983 N1991 1.427 1_554 S
C1984 H1975 0.930 . S
C1984 C1982 1.378 . S
C1984 C1985 1.367 . S
C1985 C1984 1.367 . S
C1985 C1987 1.433 . S
C1986 C1982 1.350 . S
C1986 C1983 1.463 . S
C1986 N1990 1.427 . S
C1987 H1977 0.929 . S
C1987 C1985 1.433 . S
C1987 N1990 1.384 . S
C1988 H1979 0.929 . S
C1988 C1980 1.378 . S
C1988 C1983 1.350 . S
C1989 H1976 0.929 . S
C1989 C1981 1.433 . S
C1989 N1991 1.384 . S
N1990 C1986 1.427 . S
N1990 C1987 1.384 . S
N1991 C1983 1.427 1_556 S
N1991 C1989 1.384 . S
H1992 C1998 0.930 . S
H1993 C2002 0.930 . S
H1994 C2007 0.929 . S
H1995 C2005 0.929 . S
H1996 C2000 0.929 . S
H1997 C2006 0.929 . S
C1998 H1992 0.930 . S
C1998 C1999 1.367 . S
C1998 C2006 1.378 . S
C1999 C1998 1.367 . S
C1999 C2007 1.433 . S
C2000 H1996 0.929 . S
C2000 C2002 1.378 . S
C2000 C2004 1.350 . S
C2001 C2004 1.463 . S
C2001 C2006 1.350 . S
C2001 N2009 1.427 . S
C2002 H1993 0.930 . S
C2002 C2000 1.378 . S
C2002 C2003 1.367 . S
C2003 C2002 1.367 . S
C2003 C2005 1.433 . S
C2004 C2000 1.350 . S
C2004 C2001 1.463 . S
C2004 N2008 1.427 . S
C2005 H1995 0.929 . S
C2005 C2003 1.433 . S
C2005 N2008 1.384 . S
C2006 H1997 0.929 . S
C2006 C1998 1.378 . S
C2006 C2001 1.350 . S
C2007 H1994 0.929 . S
C2007 C1999 1.433 . S
C2007 N2009 1.384 . S
N2008 C2004 1.427 . S
N2008 C2005 1.384 . S
N2009 C2001 1.427 . S
N2009 C2007 1.384 . S
H2010 C2016 0.930 . S
H2011 C2020 0.930 . S
H2012 C2025 0.929 . S
H2013 C2023 0.929 . S
H2014 C2018 0.929 . S
H2015 C2024 0.929 . S
C2016 H2010 0.930 . S
C2016 C2017 1.367 . S
C2016 C2024 1.378 . S
C2017 C2016 1.367 . S
C2017 C2025 1.433 . S
C2018 H2014 0.929 . S
C2018 C2020 1.378 . S
C2018 C2022 1.350 . S
C2019 C2022 1.463 . S
C2019 C2024 1.350 . S
C2019 N2027 1.427 . S
C2020 H2011 0.930 . S
C2020 C2018 1.378 . S
C2020 C2021 1.367 . S
C2021 C2020 1.367 . S
C2021 C2023 1.433 . S
C2022 C2018 1.350 . S
C2022 C2019 1.463 . S
C2022 N2026 1.427 . S
C2023 H2013 0.929 . S
C2023 C2021 1.433 . S
C2023 N2026 1.384 . S
C2024 H2015 0.929 . S
C2024 C2016 1.378 . S
C2024 C2019 1.350 . S
C2025 H2012 0.929 . S
C2025 C2017 1.433 . S
C2025 N2027 1.384 . S
N2026 C2022 1.427 . S
N2026 C2023 1.384 . S
N2027 C2019 1.427 . S
N2027 C2025 1.384 . S
H2028 C2034 0.930 . S
H2029 C2038 0.930 . S
H2030 C2043 0.929 . S
H2031 C2041 0.929 . S
H2032 C2036 0.929 . S
H2033 C2042 0.929 . S
C2034 H2028 0.930 . S
C2034 C2035 1.367 . S
C2034 C2042 1.378 . S
C2035 C2034 1.367 . S
C2035 C2043 1.433 . S
C2036 H2032 0.929 . S
C2036 C2038 1.378 . S
C2036 C2040 1.350 . S
C2037 C2040 1.463 . S
C2037 C2042 1.350 . S
C2037 N2045 1.427 . S
C2038 H2029 0.930 . S
C2038 C2036 1.378 . S
C2038 C2039 1.367 . S
C2039 C2038 1.367 . S
C2039 C2041 1.433 . S
C2040 C2036 1.350 . S
C2040 C2037 1.463 . S
C2040 N2044 1.427 . S
C2041 H2031 0.929 . S
C2041 C2039 1.433 . S
C2041 N2044 1.384 . S
C2042 H2033 0.929 . S
C2042 C2034 1.378 . S
C2042 C2037 1.350 . S
C2043 H2030 0.929 . S
C2043 C2035 1.433 . S
C2043 N2045 1.384 . S
N2044 C2040 1.427 . S
N2044 C2041 1.384 . S
N2045 C2037 1.427 . S
N2045 C2043 1.384 . S
H2046 C2052 0.930 . S
H2047 C2056 0.930 . S
H2048 C2061 0.929 . S
H2049 C2059 0.929 . S
H2050 C2054 0.929 . S
H2051 C2060 0.929 . S
C2052 H2046 0.930 . S
C2052 C2053 1.367 . S
C2052 C2060 1.378 . S
C2053 C2052 1.367 . S
C2053 C2061 1.433 1_554 S
C2054 H2050 0.929 . S
C2054 C2056 1.378 . S
C2054 C2058 1.350 . S
C2055 C2058 1.463 . S
C2055 C2060 1.350 1_556 S
C2055 N2063 1.427 . S
C2056 H2047 0.930 . S
C2056 C2054 1.378 . S
C2056 C2057 1.367 . S
C2057 C2056 1.367 . S
C2057 C2059 1.433 . S
C2058 C2054 1.350 . S
C2058 C2055 1.463 . S
C2058 N2062 1.427 . S
C2059 H2049 0.929 . S
C2059 C2057 1.433 . S
C2059 N2062 1.384 . S
C2060 H2051 0.929 . S
C2060 C2052 1.378 . S
C2060 C2055 1.350 1_554 S
C2061 H2048 0.929 . S
C2061 C2053 1.433 1_556 S
C2061 N2063 1.384 . S
N2062 C2058 1.427 . S
N2062 C2059 1.384 . S
N2063 C2055 1.427 . S
N2063 C2061 1.384 . S
H2064 C2070 0.930 . S
H2065 C2074 0.930 . S
H2066 C2079 0.929 . S
H2067 C2077 0.929 . S
H2068 C2072 0.929 . S
H2069 C2078 0.929 . S
C2070 H2064 0.930 . S
C2070 C2071 1.367 . S
C2070 C2078 1.378 . S
C2071 C2070 1.367 . S
C2071 C2079 1.433 . S
C2072 H2068 0.929 . S
C2072 C2074 1.378 . S
C2072 C2076 1.350 . S
C2073 C2076 1.463 . S
C2073 C2078 1.350 . S
C2073 N2081 1.427 . S
C2074 H2065 0.930 . S
C2074 C2072 1.378 . S
C2074 C2075 1.367 . S
C2075 C2074 1.367 . S
C2075 C2077 1.433 . S
C2076 C2072 1.350 . S
C2076 C2073 1.463 . S
C2076 N2080 1.427 . S
C2077 H2067 0.929 . S
C2077 C2075 1.433 . S
C2077 N2080 1.384 . S
C2078 H2069 0.929 . S
C2078 C2070 1.378 . S
C2078 C2073 1.350 . S
C2079 H2066 0.929 . S
C2079 C2071 1.433 . S
C2079 N2081 1.384 . S
N2080 C2076 1.427 . S
N2080 C2077 1.384 . S
N2081 C2073 1.427 . S
N2081 C2079 1.384 . S
H2082 C2088 0.930 . S
H2083 C2092 0.930 . S
H2084 C2097 0.929 . S
H2085 C2095 0.929 . S
H2086 C2090 0.929 . S
H2087 C2096 0.929 . S
C2088 H2082 0.930 . S
C2088 C2089 1.367 . S
C2088 C2096 1.378 . S
C2089 C2088 1.367 . S
C2089 C2097 1.433 . S
C2090 H2086 0.929 . S
C2090 C2092 1.378 . S
C2090 C2094 1.350 . S
C2091 C2094 1.463 . S
C2091 C2096 1.350 . S
C2091 N2099 1.427 . S
C2092 H2083 0.930 . S
C2092 C2090 1.378 . S
C2092 C2093 1.367 . S
C2093 C2092 1.367 . S
C2093 C2095 1.433 . S
C2094 C2090 1.350 . S
C2094 C2091 1.463 . S
C2094 N2098 1.427 . S
C2095 H2085 0.929 . S
C2095 C2093 1.433 . S
C2095 N2098 1.384 . S
C2096 H2087 0.929 . S
C2096 C2088 1.378 . S
C2096 C2091 1.350 . S
C2097 H2084 0.929 . S
C2097 C2089 1.433 . S
C2097 N2099 1.384 . S
N2098 C2094 1.427 . S
N2098 C2095 1.384 . S
N2099 C2091 1.427 . S
N2099 C2097 1.384 . S
H2100 C2106 0.930 . S
H2101 C2110 0.930 . S
H2102 C2115 0.929 . S
H2103 C2113 0.929 . S
H2104 C2108 0.929 . S
H2105 C2114 0.929 . S
C2106 H2100 0.930 . S
C2106 C2107 1.367 . S
C2106 C2114 1.378 . S
C2107 C2106 1.367 . S
C2107 C2115 1.433 . S
C2108 H2104 0.929 . S
C2108 C2110 1.378 . S
C2108 C2112 1.350 . S
C2109 C2112 1.463 . S
C2109 C2114 1.350 . S
C2109 N2117 1.427 . S
C2110 H2101 0.930 . S
C2110 C2108 1.378 . S
C2110 C2111 1.367 . S
C2111 C2110 1.367 . S
C2111 C2113 1.433 . S
C2112 C2108 1.350 . S
C2112 C2109 1.463 . S
C2112 N2116 1.427 . S
C2113 H2103 0.929 . S
C2113 C2111 1.433 . S
C2113 N2116 1.384 . S
C2114 H2105 0.929 . S
C2114 C2106 1.378 . S
C2114 C2109 1.350 . S
C2115 H2102 0.929 . S
C2115 C2107 1.433 . S
C2115 N2117 1.384 . S
N2116 C2112 1.427 . S
N2116 C2113 1.384 . S
N2117 C2109 1.427 . S
N2117 C2115 1.384 . S
H2118 C2124 0.930 . S
H2119 C2128 0.930 . S
H2120 C2133 0.929 . S
H2121 C2131 0.929 . S
H2122 C2126 0.929 . S
H2123 C2132 0.929 . S
C2124 H2118 0.930 . S
C2124 C2125 1.367 . S
C2124 C2132 1.378 . S
C2125 C2124 1.367 . S
C2125 C2133 1.433 . S
C2126 H2122 0.929 . S
C2126 C2128 1.378 . S
C2126 C2130 1.350 . S
C2127 C2130 1.463 . S
C2127 C2132 1.350 . S
C2127 N2135 1.427 . S
C2128 H2119 0.930 . S
C2128 C2126 1.378 . S
C2128 C2129 1.367 . S
C2129 C2128 1.367 . S
C2129 C2131 1.433 . S
C2130 C2126 1.350 . S
C2130 C2127 1.463 . S
C2130 N2134 1.427 . S
C2131 H2121 0.929 . S
C2131 C2129 1.433 . S
C2131 N2134 1.384 . S
C2132 H2123 0.929 . S
C2132 C2124 1.378 . S
C2132 C2127 1.350 . S
C2133 H2120 0.929 . S
C2133 C2125 1.433 . S
C2133 N2135 1.384 . S
N2134 C2130 1.427 . S
N2134 C2131 1.384 . S
N2135 C2127 1.427 . S
N2135 C2133 1.384 . S
H2136 C2142 0.930 . S
H2137 C2146 0.930 . S
H2138 C2151 0.929 . S
H2139 C2149 0.929 . S
H2140 C2144 0.929 . S
H2141 C2150 0.929 . S
C2142 H2136 0.930 . S
C2142 C2143 1.367 . S
C2142 C2150 1.378 . S
C2143 C2142 1.367 . S
C2143 C2151 1.433 . S
C2144 H2140 0.929 . S
C2144 C2146 1.378 . S
C2144 C2148 1.350 1_545 S
C2145 C2148 1.463 . S
C2145 C2150 1.350 . S
C2145 N2153 1.427 . S
C2146 H2137 0.930 . S
C2146 C2144 1.378 . S
C2146 C2147 1.367 . S
C2147 C2146 1.367 . S
C2147 C2149 1.433 1_545 S
C2148 C2144 1.350 1_565 S
C2148 C2145 1.463 . S
C2148 N2152 1.427 . S
C2149 H2139 0.929 . S
C2149 C2147 1.433 1_565 S
C2149 N2152 1.384 . S
C2150 H2141 0.929 . S
C2150 C2142 1.378 . S
C2150 C2145 1.350 . S
C2151 H2138 0.929 . S
C2151 C2143 1.433 . S
C2151 N2153 1.384 . S
N2152 C2148 1.427 . S
N2152 C2149 1.384 . S
N2153 C2145 1.427 . S
N2153 C2151 1.384 . S
H2154 C2160 0.930 . S
H2155 C2164 0.930 . S
H2156 C2169 0.929 . S
H2157 C2167 0.929 . S
H2158 C2162 0.929 . S
H2159 C2168 0.929 . S
C2160 H2154 0.930 . S
C2160 C2161 1.367 . S
C2160 C2168 1.378 . S
C2161 C2160 1.367 . S
C2161 C2169 1.433 . S
C2162 H2158 0.929 . S
C2162 C2164 1.378 . S
C2162 C2166 1.350 . S
C2163 C2166 1.463 . S
C2163 C2168 1.350 . S
C2163 N2171 1.427 . S
C2164 H2155 0.930 . S
C2164 C2162 1.378 . S
C2164 C2165 1.367 . S
C2165 C2164 1.367 . S
C2165 C2167 1.433 . S
C2166 C2162 1.350 . S
C2166 C2163 1.463 . S
C2166 N2170 1.427 . S
C2167 H2157 0.929 . S
C2167 C2165 1.433 . S
C2167 N2170 1.384 . S
C2168 H2159 0.929 . S
C2168 C2160 1.378 . S
C2168 C2163 1.350 . S
C2169 H2156 0.929 . S
C2169 C2161 1.433 . S
C2169 N2171 1.384 . S
N2170 C2166 1.427 . S
N2170 C2167 1.384 . S
N2171 C2163 1.427 . S
N2171 C2169 1.384 . S
H2172 C2178 0.930 . S
H2173 C2182 0.930 . S
H2174 C2187 0.929 . S
H2175 C2185 0.929 . S
H2176 C2180 0.929 . S
H2177 C2186 0.929 . S
C2178 H2172 0.930 . S
C2178 C2179 1.367 . S
C2178 C2186 1.378 . S
C2179 C2178 1.367 . S
C2179 C2187 1.433 . S
C2180 H2176 0.929 . S
C2180 C2182 1.378 . S
C2180 C2184 1.350 . S
C2181 C2184 1.463 . S
C2181 C2186 1.350 . S
C2181 N2189 1.427 . S
C2182 H2173 0.930 . S
C2182 C2180 1.378 . S
C2182 C2183 1.367 . S
C2183 C2182 1.367 . S
C2183 C2185 1.433 . S
C2184 C2180 1.350 . S
C2184 C2181 1.463 . S
C2184 N2188 1.427 . S
C2185 H2175 0.929 . S
C2185 C2183 1.433 . S
C2185 N2188 1.384 . S
C2186 H2177 0.929 . S
C2186 C2178 1.378 . S
C2186 C2181 1.350 . S
C2187 H2174 0.929 . S
C2187 C2179 1.433 . S
C2187 N2189 1.384 . S
N2188 C2184 1.427 . S
N2188 C2185 1.384 . S
N2189 C2181 1.427 . S
N2189 C2187 1.384 . S
H2190 C2196 0.930 . S
H2191 C2200 0.930 . S
H2192 C2205 0.929 . S
H2193 C2203 0.929 . S
H2194 C2198 0.929 . S
H2195 C2204 0.929 . S
C2196 H2190 0.930 . S
C2196 C2197 1.367 . S
C2196 C2204 1.378 . S
C2197 C2196 1.367 . S
C2197 C2205 1.433 . S
C2198 H2194 0.929 . S
C2198 C2200 1.378 . S
C2198 C2202 1.350 . S
C2199 C2202 1.463 . S
C2199 C2204 1.350 . S
C2199 N2207 1.427 . S
C2200 H2191 0.930 . S
C2200 C2198 1.378 . S
C2200 C2201 1.367 . S
C2201 C2200 1.367 . S
C2201 C2203 1.433 . S
C2202 C2198 1.350 . S
C2202 C2199 1.463 . S
C2202 N2206 1.427 . S
C2203 H2193 0.929 . S
C2203 C2201 1.433 . S
C2203 N2206 1.384 . S
C2204 H2195 0.929 . S
C2204 C2196 1.378 . S
C2204 C2199 1.350 . S
C2205 H2192 0.929 . S
C2205 C2197 1.433 . S
C2205 N2207 1.384 . S
N2206 C2202 1.427 . S
N2206 C2203 1.384 . S
N2207 C2199 1.427 . S
N2207 C2205 1.384 . S
H2208 C2214 0.930 . S
H2209 C2218 0.930 . S
H2210 C2223 0.929 . S
H2211 C2221 0.929 . S
H2212 C2216 0.929 . S
H2213 C2222 0.929 . S
C2214 H2208 0.930 . S
C2214 C2215 1.367 . S
C2214 C2222 1.378 . S
C2215 C2214 1.367 . S
C2215 C2223 1.433 . S
C2216 H2212 0.929 . S
C2216 C2218 1.378 . S
C2216 C2220 1.350 . S
C2217 C2220 1.463 . S
C2217 C2222 1.350 . S
C2217 N2225 1.427 . S
C2218 H2209 0.930 . S
C2218 C2216 1.378 . S
C2218 C2219 1.367 . S
C2219 C2218 1.367 . S
C2219 C2221 1.433 . S
C2220 C2216 1.350 . S
C2220 C2217 1.463 . S
C2220 N2224 1.427 . S
C2221 H2211 0.929 . S
C2221 C2219 1.433 . S
C2221 N2224 1.384 . S
C2222 H2213 0.929 . S
C2222 C2214 1.378 . S
C2222 C2217 1.350 . S
C2223 H2210 0.929 . S
C2223 C2215 1.433 . S
C2223 N2225 1.384 . S
N2224 C2220 1.427 . S
N2224 C2221 1.384 . S
N2225 C2217 1.427 . S
N2225 C2223 1.384 . S
H2226 C2232 0.930 . S
H2227 C2236 0.930 . S
H2228 C2241 0.929 . S
H2229 C2239 0.929 . S
H2230 C2234 0.929 . S
H2231 C2240 0.929 . S
C2232 H2226 0.930 . S
C2232 C2233 1.367 . S
C2232 C2240 1.378 . S
C2233 C2232 1.367 . S
C2233 C2241 1.433 . S
C2234 H2230 0.929 . S
C2234 C2236 1.378 . S
C2234 C2238 1.350 . S
C2235 C2238 1.463 . S
C2235 C2240 1.350 . S
C2235 N2243 1.427 . S
C2236 H2227 0.930 . S
C2236 C2234 1.378 . S
C2236 C2237 1.367 . S
C2237 C2236 1.367 . S
C2237 C2239 1.433 . S
C2238 C2234 1.350 . S
C2238 C2235 1.463 . S
C2238 N2242 1.427 . S
C2239 H2229 0.929 . S
C2239 C2237 1.433 . S
C2239 N2242 1.384 . S
C2240 H2231 0.929 . S
C2240 C2232 1.378 . S
C2240 C2235 1.350 . S
C2241 H2228 0.929 . S
C2241 C2233 1.433 . S
C2241 N2243 1.384 . S
N2242 C2238 1.427 . S
N2242 C2239 1.384 . S
N2243 C2235 1.427 . S
N2243 C2241 1.384 . S
H2244 C2250 0.930 . S
H2245 C2254 0.930 . S
H2246 C2259 0.929 . S
H2247 C2257 0.929 . S
H2248 C2252 0.929 . S
H2249 C2258 0.929 . S
C2250 H2244 0.930 . S
C2250 C2251 1.367 . S
C2250 C2258 1.378 . S
C2251 C2250 1.367 . S
C2251 C2259 1.433 . S
C2252 H2248 0.929 . S
C2252 C2254 1.378 . S
C2252 C2256 1.350 . S
C2253 C2256 1.463 . S
C2253 C2258 1.350 . S
C2253 N2261 1.427 . S
C2254 H2245 0.930 . S
C2254 C2252 1.378 . S
C2254 C2255 1.367 . S
C2255 C2254 1.367 . S
C2255 C2257 1.433 . S
C2256 C2252 1.350 . S
C2256 C2253 1.463 . S
C2256 N2260 1.427 . S
C2257 H2247 0.929 . S
C2257 C2255 1.433 . S
C2257 N2260 1.384 . S
C2258 H2249 0.929 . S
C2258 C2250 1.378 . S
C2258 C2253 1.350 . S
C2259 H2246 0.929 . S
C2259 C2251 1.433 . S
C2259 N2261 1.384 . S
N2260 C2256 1.427 . S
N2260 C2257 1.384 . S
N2261 C2253 1.427 . S
N2261 C2259 1.384 . S
H2262 C2268 0.930 . S
H2263 C2272 0.930 . S
H2264 C2277 0.929 . S
H2265 C2275 0.929 . S
H2266 C2270 0.929 . S
H2267 C2276 0.929 . S
C2268 H2262 0.930 . S
C2268 C2269 1.367 . S
C2268 C2276 1.378 . S
C2269 C2268 1.367 . S
C2269 C2277 1.433 . S
C2270 H2266 0.929 . S
C2270 C2272 1.378 . S
C2270 C2274 1.350 . S
C2271 C2274 1.463 . S
C2271 C2276 1.350 1_655 S
C2271 N2279 1.427 . S
C2272 H2263 0.930 . S
C2272 C2270 1.378 . S
C2272 C2273 1.367 . S
C2273 C2272 1.367 . S
C2273 C2275 1.433 . S
C2274 C2270 1.350 . S
C2274 C2271 1.463 . S
C2274 N2278 1.427 . S
C2275 H2265 0.929 . S
C2275 C2273 1.433 . S
C2275 N2278 1.384 . S
C2276 H2267 0.929 . S
C2276 C2268 1.378 . S
C2276 C2271 1.350 1_455 S
C2277 H2264 0.929 . S
C2277 C2269 1.433 . S
C2277 N2279 1.384 1_455 S
N2278 C2274 1.427 . S
N2278 C2275 1.384 . S
N2279 C2271 1.427 . S
N2279 C2277 1.384 1_655 S
H2280 C2286 0.930 . S
H2281 C2290 0.930 . S
H2282 C2295 0.929 . S
H2283 C2293 0.929 . S
H2284 C2288 0.929 . S
H2285 C2294 0.929 . S
C2286 H2280 0.930 . S
C2286 C2287 1.367 . S
C2286 C2294 1.378 . S
C2287 C2286 1.367 . S
C2287 C2295 1.433 . S
C2288 H2284 0.929 . S
C2288 C2290 1.378 . S
C2288 C2292 1.350 . S
C2289 C2292 1.463 . S
C2289 C2294 1.350 . S
C2289 N2297 1.427 . S
C2290 H2281 0.930 . S
C2290 C2288 1.378 . S
C2290 C2291 1.367 . S
C2291 C2290 1.367 . S
C2291 C2293 1.433 . S
C2292 C2288 1.350 . S
C2292 C2289 1.463 . S
C2292 N2296 1.427 . S
C2293 H2283 0.929 . S
C2293 C2291 1.433 . S
C2293 N2296 1.384 . S
C2294 H2285 0.929 . S
C2294 C2286 1.378 . S
C2294 C2289 1.350 . S
C2295 H2282 0.929 . S
C2295 C2287 1.433 . S
C2295 N2297 1.384 . S
N2296 C2292 1.427 . S
N2296 C2293 1.384 . S
N2297 C2289 1.427 . S
N2297 C2295 1.384 . S
H2298 C2304 0.930 . S
H2299 C2308 0.930 . S
H2300 C2313 0.935 . S
H2301 C2311 0.929 . S
H2302 C2306 0.929 . S
H2303 C2312 0.929 . S
C2304 H2298 0.930 . S
C2304 C2305 1.367 . S
C2304 C2312 1.378 . S
C2305 C2304 1.367 . S
C2305 C2313 1.433 . S
C2306 H2302 0.929 . S
C2306 C2308 1.378 . S
C2306 C2310 1.350 . S
C2307 C2310 1.463 . S
C2307 C2312 1.350 1_655 S
C2307 N2315 1.427 . S
C2308 H2299 0.930 . S
C2308 C2306 1.378 . S
C2308 C2309 1.367 . S
C2309 C2308 1.367 . S
C2309 C2311 1.433 . S
C2310 C2306 1.350 . S
C2310 C2307 1.463 . S
C2310 N2314 1.427 . S
C2311 H2301 0.929 . S
C2311 C2309 1.433 . S
C2311 N2314 1.384 . S
C2312 H2303 0.929 . S
C2312 C2304 1.378 . S
C2312 C2307 1.350 1_455 S
C2313 H2300 0.935 . S
C2313 C2305 1.433 . S
C2313 N2315 1.384 1_455 S
N2314 C2310 1.427 . S
N2314 C2311 1.384 . S
N2315 C2307 1.427 . S
N2315 C2313 1.384 1_655 S
H2316 C2322 0.930 . S
H2317 C2326 0.930 . S
H2318 C2331 0.929 . S
H2319 C2329 0.929 . S
H2320 C2324 0.929 . S
H2321 C2330 0.929 . S
C2322 H2316 0.930 . S
C2322 C2323 1.367 . S
C2322 C2330 1.378 . S
C2323 C2322 1.367 . S
C2323 C2331 1.433 . S
C2324 H2320 0.929 . S
C2324 C2326 1.378 . S
C2324 C2328 1.350 . S
C2325 C2328 1.463 . S
C2325 C2330 1.350 . S
C2325 N2333 1.427 . S
C2326 H2317 0.930 . S
C2326 C2324 1.378 . S
C2326 C2327 1.367 . S
C2327 C2326 1.367 . S
C2327 C2329 1.433 . S
C2328 C2324 1.350 . S
C2328 C2325 1.463 . S
C2328 N2332 1.427 . S
C2329 H2319 0.929 . S
C2329 C2327 1.433 . S
C2329 N2332 1.384 . S
C2330 H2321 0.929 . S
C2330 C2322 1.378 . S
C2330 C2325 1.350 . S
C2331 H2318 0.929 . S
C2331 C2323 1.433 . S
C2331 N2333 1.384 . S
N2332 C2328 1.427 . S
N2332 C2329 1.384 . S
N2333 C2325 1.427 . S
N2333 C2331 1.384 . S
H2334 C2340 0.930 . S
H2335 C2344 0.930 . S
H2336 C2349 0.929 . S
H2337 C2347 0.929 . S
H2338 C2342 0.929 . S
H2339 C2348 0.929 . S
C2340 H2334 0.930 . S
C2340 C2341 1.367 . S
C2340 C2348 1.378 . S
C2341 C2340 1.367 . S
C2341 C2349 1.433 . S
C2342 H2338 0.929 . S
C2342 C2344 1.378 . S
C2342 C2346 1.350 . S
C2343 C2346 1.463 . S
C2343 C2348 1.350 . S
C2343 N2351 1.427 . S
C2344 H2335 0.930 . S
C2344 C2342 1.378 . S
C2344 C2345 1.367 . S
C2345 C2344 1.367 . S
C2345 C2347 1.433 . S
C2346 C2342 1.350 . S
C2346 C2343 1.463 . S
C2346 N2350 1.427 . S
C2347 H2337 0.929 . S
C2347 C2345 1.433 . S
C2347 N2350 1.384 . S
C2348 H2339 0.929 . S
C2348 C2340 1.378 . S
C2348 C2343 1.350 . S
C2349 H2336 0.929 . S
C2349 C2341 1.433 . S
C2349 N2351 1.384 . S
N2350 C2346 1.427 . S
N2350 C2347 1.384 . S
N2351 C2343 1.427 . S
N2351 C2349 1.384 . S
H2352 C2358 0.930 . S
H2353 C2362 0.930 . S
H2354 C2367 0.929 . S
H2355 C2365 0.929 . S
H2356 C2360 0.929 . S
H2357 C2366 0.929 . S
C2358 H2352 0.930 . S
C2358 C2359 1.367 . S
C2358 C2366 1.378 . S
C2359 C2358 1.367 . S
C2359 C2367 1.433 . S
C2360 H2356 0.929 . S
C2360 C2362 1.378 . S
C2360 C2364 1.350 . S
C2361 C2364 1.463 . S
C2361 C2366 1.350 . S
C2361 N2369 1.427 . S
C2362 H2353 0.930 . S
C2362 C2360 1.378 . S
C2362 C2363 1.367 . S
C2363 C2362 1.367 . S
C2363 C2365 1.433 . S
C2364 C2360 1.350 . S
C2364 C2361 1.463 . S
C2364 N2368 1.427 . S
C2365 H2355 0.929 . S
C2365 C2363 1.433 . S
C2365 N2368 1.384 . S
C2366 H2357 0.929 . S
C2366 C2358 1.378 . S
C2366 C2361 1.350 . S
C2367 H2354 0.929 . S
C2367 C2359 1.433 . S
C2367 N2369 1.384 . S
N2368 C2364 1.427 . S
N2368 C2365 1.384 . S
N2369 C2361 1.427 . S
N2369 C2367 1.384 . S
H2370 C2376 0.930 . S
H2371 C2380 0.935 . S
H2372 C2385 0.929 . S
H2373 C2383 0.929 . S
H2374 C2378 0.929 . S
H2375 C2384 0.929 . S
C2376 H2370 0.930 . S
C2376 C2377 1.367 . S
C2376 C2384 1.378 . S
C2377 C2376 1.367 . S
C2377 C2385 1.433 . S
C2378 H2374 0.929 . S
C2378 C2380 1.391 . S
C2378 C2382 1.350 . S
C2379 C2382 1.463 . S
C2379 C2384 1.350 . S
C2379 N2387 1.427 . S
C2380 H2371 0.935 . S
C2380 C2378 1.391 . S
C2380 C2381 1.349 1_556 S
C2381 C2380 1.349 1_554 S
C2381 C2383 1.433 . S
C2382 C2378 1.350 . S
C2382 C2379 1.463 . S
C2382 N2386 1.427 1_556 S
C2383 H2373 0.929 . S
C2383 C2381 1.433 . S
C2383 N2386 1.384 . S
C2384 H2375 0.929 . S
C2384 C2376 1.378 . S
C2384 C2379 1.350 . S
C2385 H2372 0.929 . S
C2385 C2377 1.433 . S
C2385 N2387 1.384 . S
N2386 C2382 1.427 1_554 S
N2386 C2383 1.384 . S
N2387 C2379 1.427 . S
N2387 C2385 1.384 . S
H2388 C2394 0.930 . S
H2389 C2398 0.930 . S
H2390 C2403 0.929 . S
H2391 C2401 0.929 . S
H2392 C2396 0.929 . S
H2393 C2402 0.929 . S
C2394 H2388 0.930 . S
C2394 C2395 1.367 . S
C2394 C2402 1.378 . S
C2395 C2394 1.367 . S
C2395 C2403 1.433 . S
C2396 H2392 0.929 . S
C2396 C2398 1.378 . S
C2396 C2400 1.350 . S
C2397 C2400 1.463 . S
C2397 C2402 1.350 . S
C2397 N2405 1.427 . S
C2398 H2389 0.930 . S
C2398 C2396 1.378 . S
C2398 C2399 1.367 . S
C2399 C2398 1.367 . S
C2399 C2401 1.433 . S
C2400 C2396 1.350 . S
C2400 C2397 1.463 . S
C2400 N2404 1.427 . S
C2401 H2391 0.929 . S
C2401 C2399 1.433 . S
C2401 N2404 1.384 . S
C2402 H2393 0.929 . S
C2402 C2394 1.378 . S
C2402 C2397 1.350 . S
C2403 H2390 0.929 . S
C2403 C2395 1.433 . S
C2403 N2405 1.384 . S
N2404 C2400 1.427 . S
N2404 C2401 1.384 . S
N2405 C2397 1.427 . S
N2405 C2403 1.384 . S
H2406 C2412 0.930 . S
H2407 C2416 0.930 . S
H2408 C2421 0.929 . S
H2409 C2419 0.929 . S
H2410 C2414 0.929 . S
H2411 C2420 0.929 . S
C2412 H2406 0.930 . S
C2412 C2413 1.367 . S
C2412 C2420 1.378 . S
C2413 C2412 1.367 . S
C2413 C2421 1.433 . S
C2414 H2410 0.929 . S
C2414 C2416 1.378 . S
C2414 C2418 1.350 . S
C2415 C2418 1.463 . S
C2415 C2420 1.350 . S
C2415 N2423 1.427 . S
C2416 H2407 0.930 . S
C2416 C2414 1.378 . S
C2416 C2417 1.367 . S
C2417 C2416 1.367 . S
C2417 C2419 1.433 . S
C2418 C2414 1.350 . S
C2418 C2415 1.463 . S
C2418 N2422 1.427 . S
C2419 H2409 0.929 . S
C2419 C2417 1.433 . S
C2419 N2422 1.384 . S
C2420 H2411 0.929 . S
C2420 C2412 1.378 . S
C2420 C2415 1.350 . S
C2421 H2408 0.929 . S
C2421 C2413 1.433 . S
C2421 N2423 1.384 . S
N2422 C2418 1.427 . S
N2422 C2419 1.384 . S
N2423 C2415 1.427 . S
N2423 C2421 1.384 . S
H2424 C2430 0.930 . S
H2425 C2434 0.930 . S
H2426 C2439 0.929 . S
H2427 C2437 0.929 . S
H2428 C2432 0.929 . S
H2429 C2438 0.929 . S
C2430 H2424 0.930 . S
C2430 C2431 1.367 . S
C2430 C2438 1.378 . S
C2431 C2430 1.367 . S
C2431 C2439 1.433 . S
C2432 H2428 0.929 . S
C2432 C2434 1.378 . S
C2432 C2436 1.350 . S
C2433 C2436 1.463 . S
C2433 C2438 1.350 . S
C2433 N2441 1.427 . S
C2434 H2425 0.930 . S
C2434 C2432 1.378 . S
C2434 C2435 1.367 . S
C2435 C2434 1.367 . S
C2435 C2437 1.433 . S
C2436 C2432 1.350 . S
C2436 C2433 1.463 . S
C2436 N2440 1.427 . S
C2437 H2427 0.929 . S
C2437 C2435 1.433 . S
C2437 N2440 1.384 . S
C2438 H2429 0.929 . S
C2438 C2430 1.378 . S
C2438 C2433 1.350 . S
C2439 H2426 0.929 . S
C2439 C2431 1.433 . S
C2439 N2441 1.384 . S
N2440 C2436 1.427 . S
N2440 C2437 1.384 . S
N2441 C2433 1.427 . S
N2441 C2439 1.384 . S
H2442 C2448 0.930 . S
H2443 C2452 0.930 . S
H2444 C2457 0.929 . S
H2445 C2455 0.929 . S
H2446 C2450 0.929 . S
H2447 C2456 0.929 . S
C2448 H2442 0.930 . S
C2448 C2449 1.367 . S
C2448 C2456 1.378 . S
C2449 C2448 1.367 . S
C2449 C2457 1.433 . S
C2450 H2446 0.929 . S
C2450 C2452 1.378 . S
C2450 C2454 1.350 1_556 S
C2451 C2454 1.463 . S
C2451 C2456 1.350 . S
C2451 N2459 1.427 . S
C2452 H2443 0.930 . S
C2452 C2450 1.378 . S
C2452 C2453 1.367 . S
C2453 C2452 1.367 . S
C2453 C2455 1.433 1_556 S
C2454 C2450 1.350 1_554 S
C2454 C2451 1.463 . S
C2454 N2458 1.427 . S
C2455 H2445 0.929 . S
C2455 C2453 1.433 1_554 S
C2455 N2458 1.384 . S
C2456 H2447 0.929 . S
C2456 C2448 1.378 . S
C2456 C2451 1.350 . S
C2457 H2444 0.929 . S
C2457 C2449 1.433 . S
C2457 N2459 1.384 . S
N2458 C2454 1.427 . S
N2458 C2455 1.384 . S
N2459 C2451 1.427 . S
N2459 C2457 1.384 . S
H2460 C2466 0.930 . S
H2461 C2470 0.930 . S
H2462 C2475 0.929 . S
H2463 C2473 0.929 . S
H2464 C2468 0.929 . S
H2465 C2474 0.929 . S
C2466 H2460 0.930 . S
C2466 C2467 1.367 . S
C2466 C2474 1.378 . S
C2467 C2466 1.367 . S
C2467 C2475 1.433 . S
C2468 H2464 0.929 . S
C2468 C2470 1.378 . S
C2468 C2472 1.350 . S
C2469 C2472 1.463 . S
C2469 C2474 1.350 . S
C2469 N2477 1.427 . S
C2470 H2461 0.930 . S
C2470 C2468 1.378 . S
C2470 C2471 1.367 . S
C2471 C2470 1.367 . S
C2471 C2473 1.433 . S
C2472 C2468 1.350 . S
C2472 C2469 1.463 . S
C2472 N2476 1.427 . S
C2473 H2463 0.929 . S
C2473 C2471 1.433 . S
C2473 N2476 1.384 . S
C2474 H2465 0.929 . S
C2474 C2466 1.378 . S
C2474 C2469 1.350 . S
C2475 H2462 0.929 . S
C2475 C2467 1.433 . S
C2475 N2477 1.384 . S
N2476 C2472 1.427 . S
N2476 C2473 1.384 . S
N2477 C2469 1.427 . S
N2477 C2475 1.384 . S
H2478 C2484 0.930 . S
H2479 C2488 0.930 . S
H2480 C2493 0.929 . S
H2481 C2491 0.929 . S
H2482 C2486 0.929 . S
H2483 C2492 0.929 . S
C2484 H2478 0.930 . S
C2484 C2485 1.367 . S
C2484 C2492 1.378 . S
C2485 C2484 1.367 . S
C2485 C2493 1.433 . S
C2486 H2482 0.929 . S
C2486 C2488 1.378 . S
C2486 C2490 1.350 . S
C2487 C2490 1.463 . S
C2487 C2492 1.350 . S
C2487 N2495 1.427 . S
C2488 H2479 0.930 . S
C2488 C2486 1.378 . S
C2488 C2489 1.367 . S
C2489 C2488 1.367 . S
C2489 C2491 1.433 . S
C2490 C2486 1.350 . S
C2490 C2487 1.463 . S
C2490 N2494 1.427 . S
C2491 H2481 0.929 . S
C2491 C2489 1.433 . S
C2491 N2494 1.384 . S
C2492 H2483 0.929 . S
C2492 C2484 1.378 . S
C2492 C2487 1.350 . S
C2493 H2480 0.929 . S
C2493 C2485 1.433 . S
C2493 N2495 1.384 . S
N2494 C2490 1.427 . S
N2494 C2491 1.384 . S
N2495 C2487 1.427 . S
N2495 C2493 1.384 . S
H2496 C2502 0.930 . S
H2497 C2506 0.930 . S
H2498 C2511 0.929 . S
H2499 C2509 0.929 . S
H2500 C2504 0.929 . S
H2501 C2510 0.929 . S
C2502 H2496 0.930 . S
C2502 C2503 1.367 . S
C2502 C2510 1.378 . S
C2503 C2502 1.367 . S
C2503 C2511 1.433 . S
C2504 H2500 0.929 . S
C2504 C2506 1.378 . S
C2504 C2508 1.350 . S
C2505 C2508 1.463 . S
C2505 C2510 1.350 . S
C2505 N2513 1.427 . S
C2506 H2497 0.930 . S
C2506 C2504 1.378 . S
C2506 C2507 1.367 . S
C2507 C2506 1.367 . S
C2507 C2509 1.433 . S
C2508 C2504 1.350 . S
C2508 C2505 1.463 . S
C2508 N2512 1.427 . S
C2509 H2499 0.929 . S
C2509 C2507 1.433 . S
C2509 N2512 1.384 . S
C2510 H2501 0.929 . S
C2510 C2502 1.378 . S
C2510 C2505 1.350 . S
C2511 H2498 0.929 . S
C2511 C2503 1.433 . S
C2511 N2513 1.384 . S
N2512 C2508 1.427 . S
N2512 C2509 1.384 . S
N2513 C2505 1.427 . S
N2513 C2511 1.384 . S
H2514 C2520 0.930 . S
H2515 C2524 0.930 . S
H2516 C2529 0.929 . S
H2517 C2527 0.929 . S
H2518 C2522 0.929 . S
H2519 C2528 0.929 . S
C2520 H2514 0.930 . S
C2520 C2521 1.367 . S
C2520 C2528 1.378 . S
C2521 C2520 1.367 . S
C2521 C2529 1.433 . S
C2522 H2518 0.929 . S
C2522 C2524 1.378 . S
C2522 C2526 1.350 . S
C2523 C2526 1.463 . S
C2523 C2528 1.350 . S
C2523 N2531 1.427 . S
C2524 H2515 0.930 . S
C2524 C2522 1.378 . S
C2524 C2525 1.367 . S
C2525 C2524 1.367 . S
C2525 C2527 1.433 . S
C2526 C2522 1.350 . S
C2526 C2523 1.463 . S
C2526 N2530 1.427 . S
C2527 H2517 0.929 . S
C2527 C2525 1.433 . S
C2527 N2530 1.384 . S
C2528 H2519 0.929 . S
C2528 C2520 1.378 . S
C2528 C2523 1.350 . S
C2529 H2516 0.929 . S
C2529 C2521 1.433 . S
C2529 N2531 1.384 . S
N2530 C2526 1.427 . S
N2530 C2527 1.384 . S
N2531 C2523 1.427 . S
N2531 C2529 1.384 . S
H2532 C2538 0.930 . S
H2533 C2542 0.930 . S
H2534 C2547 0.929 . S
H2535 C2545 0.929 . S
H2536 C2540 0.927 1_565 S
H2537 C2546 0.929 . S
C2538 H2532 0.930 . S
C2538 C2539 1.367 . S
C2538 C2546 1.378 . S
C2539 C2538 1.367 . S
C2539 C2547 1.433 . S
C2540 H2536 0.927 1_545 S
C2540 C2542 1.378 . S
C2540 C2544 1.350 1_545 S
C2541 C2544 1.463 . S
C2541 C2546 1.350 . S
C2541 N2549 1.427 . S
C2542 H2533 0.930 . S
C2542 C2540 1.378 . S
C2542 C2543 1.367 . S
C2543 C2542 1.367 . S
C2543 C2545 1.433 . S
C2544 C2540 1.350 1_565 S
C2544 C2541 1.463 . S
C2544 N2548 1.427 . S
C2545 H2535 0.929 . S
C2545 C2543 1.433 . S
C2545 N2548 1.384 1_545 S
C2546 H2537 0.929 . S
C2546 C2538 1.378 . S
C2546 C2541 1.350 . S
C2547 H2534 0.929 . S
C2547 C2539 1.433 . S
C2547 N2549 1.384 . S
N2548 C2544 1.427 . S
N2548 C2545 1.384 1_565 S
N2549 C2541 1.427 . S
N2549 C2547 1.384 . S
H2550 C2556 0.930 . S
H2551 C2560 0.930 . S
H2552 C2565 0.929 . S
H2553 C2563 0.929 . S
H2554 C2558 0.929 . S
H2555 C2564 0.929 . S
C2556 H2550 0.930 . S
C2556 C2557 1.367 . S
C2556 C2564 1.378 . S
C2557 C2556 1.367 . S
C2557 C2565 1.433 . S
C2558 H2554 0.929 . S
C2558 C2560 1.378 . S
C2558 C2562 1.350 . S
C2559 C2562 1.463 . S
C2559 C2564 1.350 . S
C2559 N2567 1.427 . S
C2560 H2551 0.930 . S
C2560 C2558 1.378 . S
C2560 C2561 1.367 . S
C2561 C2560 1.367 . S
C2561 C2563 1.433 . S
C2562 C2558 1.350 . S
C2562 C2559 1.463 . S
C2562 N2566 1.427 . S
C2563 H2553 0.929 . S
C2563 C2561 1.433 . S
C2563 N2566 1.384 . S
C2564 H2555 0.929 . S
C2564 C2556 1.378 . S
C2564 C2559 1.350 . S
C2565 H2552 0.929 . S
C2565 C2557 1.433 . S
C2565 N2567 1.384 . S
N2566 C2562 1.427 . S
N2566 C2563 1.384 . S
N2567 C2559 1.427 . S
N2567 C2565 1.384 . S
H2568 C2574 0.930 . S
H2569 C2578 0.930 . S
H2570 C2583 0.929 . S
H2571 C2581 0.929 . S
H2572 C2576 0.929 . S
H2573 C2582 0.929 . S
C2574 H2568 0.930 . S
C2574 C2575 1.367 . S
C2574 C2582 1.378 . S
C2575 C2574 1.367 . S
C2575 C2583 1.433 . S
C2576 H2572 0.929 . S
C2576 C2578 1.378 . S
C2576 C2580 1.350 . S
C2577 C2580 1.463 . S
C2577 C2582 1.350 . S
C2577 N2585 1.427 . S
C2578 H2569 0.930 . S
C2578 C2576 1.378 . S
C2578 C2579 1.367 . S
C2579 C2578 1.367 . S
C2579 C2581 1.433 . S
C2580 C2576 1.350 . S
C2580 C2577 1.463 . S
C2580 N2584 1.427 . S
C2581 H2571 0.929 . S
C2581 C2579 1.433 . S
C2581 N2584 1.384 . S
C2582 H2573 0.929 . S
C2582 C2574 1.378 . S
C2582 C2577 1.350 . S
C2583 H2570 0.929 . S
C2583 C2575 1.433 . S
C2583 N2585 1.384 . S
N2584 C2580 1.427 . S
N2584 C2581 1.384 . S
N2585 C2577 1.427 . S
N2585 C2583 1.384 . S
H2586 C2592 0.930 . S
H2587 C2596 0.930 . S
H2588 C2601 0.929 . S
H2589 C2599 0.929 . S
H2590 C2594 0.929 . S
H2591 C2600 0.929 . S
C2592 H2586 0.930 . S
C2592 C2593 1.367 . S
C2592 C2600 1.378 . S
C2593 C2592 1.367 . S
C2593 C2601 1.433 . S
C2594 H2590 0.929 . S
C2594 C2596 1.378 . S
C2594 C2598 1.350 . S
C2595 C2598 1.463 . S
C2595 C2600 1.350 . S
C2595 N2603 1.427 . S
C2596 H2587 0.930 . S
C2596 C2594 1.378 . S
C2596 C2597 1.367 . S
C2597 C2596 1.367 . S
C2597 C2599 1.433 . S
C2598 C2594 1.350 . S
C2598 C2595 1.463 . S
C2598 N2602 1.427 . S
C2599 H2589 0.929 . S
C2599 C2597 1.433 . S
C2599 N2602 1.384 . S
C2600 H2591 0.929 . S
C2600 C2592 1.378 . S
C2600 C2595 1.350 . S
C2601 H2588 0.929 . S
C2601 C2593 1.433 . S
C2601 N2603 1.384 . S
N2602 C2598 1.427 . S
N2602 C2599 1.384 . S
N2603 C2595 1.427 . S
N2603 C2601 1.384 . S
H2604 C2610 0.930 . S
H2605 C2614 0.930 . S
H2606 C2619 0.933 . S
H2607 C2617 0.929 . S
H2608 C2612 0.929 . S
H2609 C2618 0.929 . S
C2610 H2604 0.930 . S
C2610 C2611 1.367 . S
C2610 C2618 1.378 . S
C2611 C2610 1.367 . S
C2611 C2619 1.433 . S
C2612 H2608 0.929 . S
C2612 C2614 1.378 . S
C2612 C2616 1.350 . S
C2613 C2616 1.463 . S
C2613 C2618 1.350 1_545 S
C2613 N2621 1.427 . S
C2614 H2605 0.930 . S
C2614 C2612 1.378 . S
C2614 C2615 1.367 . S
C2615 C2614 1.367 . S
C2615 C2617 1.433 . S
C2616 C2612 1.350 . S
C2616 C2613 1.463 . S
C2616 N2620 1.427 . S
C2617 H2607 0.929 . S
C2617 C2615 1.433 . S
C2617 N2620 1.384 . S
C2618 H2609 0.929 . S
C2618 C2610 1.378 . S
C2618 C2613 1.350 1_565 S
C2619 H2606 0.933 . S
C2619 C2611 1.433 . S
C2619 N2621 1.384 1_565 S
N2620 C2616 1.427 . S
N2620 C2617 1.384 . S
N2621 C2613 1.427 . S
N2621 C2619 1.384 1_545 S
H2622 C2628 0.930 . S
H2623 C2632 0.930 . S
H2624 C2637 0.929 . S
H2625 C2635 0.929 . S
H2626 C2630 0.929 . S
H2627 C2636 0.929 . S
C2628 H2622 0.930 . S
C2628 C2629 1.367 1_565 S
C2628 C2636 1.378 . S
C2629 C2628 1.367 1_545 S
C2629 C2637 1.433 . S
C2630 H2626 0.929 . S
C2630 C2632 1.378 . S
C2630 C2634 1.350 . S
C2631 C2634 1.463 . S
C2631 C2636 1.350 . S
C2631 N2639 1.427 1_565 S
C2632 H2623 0.930 . S
C2632 C2630 1.378 . S
C2632 C2633 1.367 . S
C2633 C2632 1.367 . S
C2633 C2635 1.433 . S
C2634 C2630 1.350 . S
C2634 C2631 1.463 . S
C2634 N2638 1.427 . S
C2635 H2625 0.929 . S
C2635 C2633 1.433 . S
C2635 N2638 1.384 . S
C2636 H2627 0.929 . S
C2636 C2628 1.378 . S
C2636 C2631 1.350 . S
C2637 H2624 0.929 . S
C2637 C2629 1.433 . S
C2637 N2639 1.384 . S
N2638 C2634 1.427 . S
N2638 C2635 1.384 . S
N2639 C2631 1.427 1_545 S
N2639 C2637 1.384 . S
H2640 C2646 0.930 . S
H2641 C2650 0.930 . S
H2642 C2655 0.929 . S
H2643 C2653 0.929 . S
H2644 C2648 0.929 . S
H2645 C2654 0.929 . S
C2646 H2640 0.930 . S
C2646 C2647 1.367 . S
C2646 C2654 1.378 . S
C2647 C2646 1.367 . S
C2647 C2655 1.433 . S
C2648 H2644 0.929 . S
C2648 C2650 1.378 . S
C2648 C2652 1.350 . S
C2649 C2652 1.463 . S
C2649 C2654 1.350 . S
C2649 N2657 1.427 . S
C2650 H2641 0.930 . S
C2650 C2648 1.378 . S
C2650 C2651 1.367 . S
C2651 C2650 1.367 . S
C2651 C2653 1.433 . S
C2652 C2648 1.350 . S
C2652 C2649 1.463 . S
C2652 N2656 1.427 . S
C2653 H2643 0.929 . S
C2653 C2651 1.433 . S
C2653 N2656 1.384 . S
C2654 H2645 0.929 . S
C2654 C2646 1.378 . S
C2654 C2649 1.350 . S
C2655 H2642 0.929 . S
C2655 C2647 1.433 . S
C2655 N2657 1.384 . S
N2656 C2652 1.427 . S
N2656 C2653 1.384 . S
N2657 C2649 1.427 . S
N2657 C2655 1.384 . S
H2658 C2664 0.930 . S
H2659 C2668 0.930 . S
H2660 C2673 0.929 . S
H2661 C2671 0.929 . S
H2662 C2666 0.929 . S
H2663 C2672 0.929 . S
C2664 H2658 0.930 . S
C2664 C2665 1.367 . S
C2664 C2672 1.378 . S
C2665 C2664 1.367 . S
C2665 C2673 1.433 . S
C2666 H2662 0.929 . S
C2666 C2668 1.378 . S
C2666 C2670 1.350 . S
C2667 C2670 1.463 . S
C2667 C2672 1.350 . S
C2667 N2675 1.427 . S
C2668 H2659 0.930 . S
C2668 C2666 1.378 . S
C2668 C2669 1.367 . S
C2669 C2668 1.367 . S
C2669 C2671 1.433 . S
C2670 C2666 1.350 . S
C2670 C2667 1.463 . S
C2670 N2674 1.427 . S
C2671 H2661 0.929 . S
C2671 C2669 1.433 . S
C2671 N2674 1.384 . S
C2672 H2663 0.929 . S
C2672 C2664 1.378 . S
C2672 C2667 1.350 . S
C2673 H2660 0.929 . S
C2673 C2665 1.433 . S
C2673 N2675 1.384 . S
N2674 C2670 1.427 . S
N2674 C2671 1.384 . S
N2675 C2667 1.427 . S
N2675 C2673 1.384 . S
H2676 C2682 0.930 . S
H2677 C2686 0.930 . S
H2678 C2691 0.929 . S
H2679 C2689 0.929 . S
H2680 C2684 0.929 . S
H2681 C2690 0.929 . S
C2682 H2676 0.930 . S
C2682 C2683 1.367 . S
C2682 C2690 1.378 . S
C2683 C2682 1.367 . S
C2683 C2691 1.433 . S
C2684 H2680 0.929 . S
C2684 C2686 1.378 . S
C2684 C2688 1.350 . S
C2685 C2688 1.463 . S
C2685 C2690 1.350 . S
C2685 N2693 1.427 . S
C2686 H2677 0.930 . S
C2686 C2684 1.378 . S
C2686 C2687 1.367 . S
C2687 C2686 1.367 . S
C2687 C2689 1.433 . S
C2688 C2684 1.350 . S
C2688 C2685 1.463 . S
C2688 N2692 1.427 . S
C2689 H2679 0.929 . S
C2689 C2687 1.433 . S
C2689 N2692 1.384 . S
C2690 H2681 0.929 . S
C2690 C2682 1.378 . S
C2690 C2685 1.350 . S
C2691 H2678 0.929 . S
C2691 C2683 1.433 . S
C2691 N2693 1.384 . S
N2692 C2688 1.427 . S
N2692 C2689 1.384 . S
N2693 C2685 1.427 . S
N2693 C2691 1.384 . S
H2694 C2700 0.930 . S
H2695 C2704 0.930 . S
H2696 C2709 0.929 . S
H2697 C2707 0.929 . S
H2698 C2702 0.929 . S
H2699 C2708 0.929 . S
C2700 H2694 0.930 . S
C2700 C2701 1.367 . S
C2700 C2708 1.378 . S
C2701 C2700 1.367 . S
C2701 C2709 1.433 . S
C2702 H2698 0.929 . S
C2702 C2704 1.378 . S
C2702 C2706 1.350 1_655 S
C2703 C2706 1.463 . S
C2703 C2708 1.350 . S
C2703 N2711 1.427 . S
C2704 H2695 0.930 . S
C2704 C2702 1.378 . S
C2704 C2705 1.367 . S
C2705 C2704 1.367 . S
C2705 C2707 1.433 . S
C2706 C2702 1.350 1_455 S
C2706 C2703 1.463 . S
C2706 N2710 1.427 . S
C2707 H2697 0.929 . S
C2707 C2705 1.433 . S
C2707 N2710 1.384 1_655 S
C2708 H2699 0.929 . S
C2708 C2700 1.378 . S
C2708 C2703 1.350 . S
C2709 H2696 0.929 . S
C2709 C2701 1.433 . S
C2709 N2711 1.384 . S
N2710 C2706 1.427 . S
N2710 C2707 1.384 1_455 S
N2711 C2703 1.427 . S
N2711 C2709 1.384 . S
H2712 C2718 0.930 . S
H2713 C2722 0.930 . S
H2714 C2727 0.929 . S
H2715 C2725 0.929 . S
H2716 C2720 0.929 . S
H2717 C2726 0.929 . S
C2718 H2712 0.930 . S
C2718 C2719 1.367 . S
C2718 C2726 1.378 . S
C2719 C2718 1.367 . S
C2719 C2727 1.433 . S
C2720 H2716 0.929 . S
C2720 C2722 1.378 . S
C2720 C2724 1.350 . S
C2721 C2724 1.463 . S
C2721 C2726 1.350 . S
C2721 N2729 1.427 . S
C2722 H2713 0.930 . S
C2722 C2720 1.378 . S
C2722 C2723 1.367 . S
C2723 C2722 1.367 . S
C2723 C2725 1.433 . S
C2724 C2720 1.350 . S
C2724 C2721 1.463 . S
C2724 N2728 1.427 . S
C2725 H2715 0.929 . S
C2725 C2723 1.433 . S
C2725 N2728 1.384 . S
C2726 H2717 0.929 . S
C2726 C2718 1.378 . S
C2726 C2721 1.350 . S
C2727 H2714 0.929 . S
C2727 C2719 1.433 . S
C2727 N2729 1.384 . S
N2728 C2724 1.427 . S
N2728 C2725 1.384 . S
N2729 C2721 1.427 . S
N2729 C2727 1.384 . S
H2730 C2736 0.930 . S
H2731 C2740 0.930 . S
H2732 C2745 0.929 . S
H2733 C2743 0.929 . S
H2734 C2738 0.929 . S
H2735 C2744 0.929 . S
C2736 H2730 0.930 . S
C2736 C2737 1.367 . S
C2736 C2744 1.378 . S
C2737 C2736 1.367 . S
C2737 C2745 1.433 1_655 S
C2738 H2734 0.929 . S
C2738 C2740 1.378 . S
C2738 C2742 1.350 . S
C2739 C2742 1.463 . S
C2739 C2744 1.350 1_455 S
C2739 N2747 1.427 . S
C2740 H2731 0.930 . S
C2740 C2738 1.378 . S
C2740 C2741 1.367 . S
C2741 C2740 1.367 . S
C2741 C2743 1.433 . S
C2742 C2738 1.350 . S
C2742 C2739 1.463 . S
C2742 N2746 1.427 . S
C2743 H2733 0.929 . S
C2743 C2741 1.433 . S
C2743 N2746 1.384 . S
C2744 H2735 0.929 . S
C2744 C2736 1.378 . S
C2744 C2739 1.350 1_655 S
C2745 H2732 0.929 . S
C2745 C2737 1.433 1_455 S
C2745 N2747 1.384 . S
N2746 C2742 1.427 . S
N2746 C2743 1.384 . S
N2747 C2739 1.427 . S
N2747 C2745 1.384 . S
H2748 C2754 0.930 . S
H2749 C2758 0.930 . S
H2750 C2763 0.929 . S
H2751 C2761 0.929 . S
H2752 C2756 0.929 . S
H2753 C2762 0.929 . S
C2754 H2748 0.930 . S
C2754 C2755 1.367 . S
C2754 C2762 1.378 . S
C2755 C2754 1.367 . S
C2755 C2763 1.433 . S
C2756 H2752 0.929 . S
C2756 C2758 1.378 . S
C2756 C2760 1.350 . S
C2757 C2760 1.463 . S
C2757 C2762 1.350 . S
C2757 N2765 1.427 . S
C2758 H2749 0.930 . S
C2758 C2756 1.378 . S
C2758 C2759 1.367 . S
C2759 C2758 1.367 . S
C2759 C2761 1.433 . S
C2760 C2756 1.350 . S
C2760 C2757 1.463 . S
C2760 N2764 1.427 . S
C2761 H2751 0.929 . S
C2761 C2759 1.433 . S
C2761 N2764 1.384 . S
C2762 H2753 0.929 . S
C2762 C2754 1.378 . S
C2762 C2757 1.350 . S
C2763 H2750 0.929 . S
C2763 C2755 1.433 . S
C2763 N2765 1.384 . S
N2764 C2760 1.427 . S
N2764 C2761 1.384 . S
N2765 C2757 1.427 . S
N2765 C2763 1.384 . S
H2766 C2772 0.930 . S
H2767 C2776 0.930 . S
H2768 C2781 0.929 . S
H2769 C2779 0.929 . S
H2770 C2774 0.929 . S
H2771 C2780 0.929 . S
C2772 H2766 0.930 . S
C2772 C2773 1.367 . S
C2772 C2780 1.378 . S
C2773 C2772 1.367 . S
C2773 C2781 1.433 . S
C2774 H2770 0.929 . S
C2774 C2776 1.378 . S
C2774 C2778 1.350 . S
C2775 C2778 1.463 . S
C2775 C2780 1.350 . S
C2775 N2783 1.427 . S
C2776 H2767 0.930 . S
C2776 C2774 1.378 . S
C2776 C2777 1.367 . S
C2777 C2776 1.367 . S
C2777 C2779 1.433 . S
C2778 C2774 1.350 . S
C2778 C2775 1.463 . S
C2778 N2782 1.427 . S
C2779 H2769 0.929 . S
C2779 C2777 1.433 . S
C2779 N2782 1.384 . S
C2780 H2771 0.929 . S
C2780 C2772 1.378 . S
C2780 C2775 1.350 . S
C2781 H2768 0.929 . S
C2781 C2773 1.433 . S
C2781 N2783 1.384 . S
N2782 C2778 1.427 . S
N2782 C2779 1.384 . S
N2783 C2775 1.427 . S
N2783 C2781 1.384 . S
H2784 C2790 0.930 . S
H2785 C2794 0.930 . S
H2786 C2799 0.929 . S
H2787 C2797 0.929 . S
H2788 C2792 0.929 . S
H2789 C2798 0.929 . S
C2790 H2784 0.930 . S
C2790 C2791 1.367 . S
C2790 C2798 1.378 . S
C2791 C2790 1.367 . S
C2791 C2799 1.433 . S
C2792 H2788 0.929 . S
C2792 C2794 1.378 . S
C2792 C2796 1.350 . S
C2793 C2796 1.463 . S
C2793 C2798 1.350 . S
C2793 N2801 1.427 . S
C2794 H2785 0.930 . S
C2794 C2792 1.378 . S
C2794 C2795 1.367 . S
C2795 C2794 1.367 . S
C2795 C2797 1.433 . S
C2796 C2792 1.350 . S
C2796 C2793 1.463 . S
C2796 N2800 1.427 . S
C2797 H2787 0.929 . S
C2797 C2795 1.433 . S
C2797 N2800 1.384 . S
C2798 H2789 0.929 . S
C2798 C2790 1.378 . S
C2798 C2793 1.350 . S
C2799 H2786 0.929 . S
C2799 C2791 1.433 . S
C2799 N2801 1.384 . S
N2800 C2796 1.427 . S
N2800 C2797 1.384 . S
N2801 C2793 1.427 . S
N2801 C2799 1.384 . S
H2802 C2808 0.930 . S
H2803 C2812 0.930 . S
H2804 C2817 0.929 . S
H2805 C2815 0.929 . S
H2806 C2810 0.929 . S
H2807 C2816 0.929 . S
C2808 H2802 0.930 . S
C2808 C2809 1.367 1_554 S
C2808 C2816 1.378 . S
C2809 C2808 1.367 1_556 S
C2809 C2817 1.433 . S
C2810 H2806 0.929 . S
C2810 C2812 1.378 . S
C2810 C2814 1.350 . S
C2811 C2814 1.463 . S
C2811 C2816 1.350 . S
C2811 N2819 1.427 1_554 S
C2812 H2803 0.930 . S
C2812 C2810 1.378 . S
C2812 C2813 1.367 . S
C2813 C2812 1.367 . S
C2813 C2815 1.433 . S
C2814 C2810 1.350 . S
C2814 C2811 1.463 . S
C2814 N2818 1.427 . S
C2815 H2805 0.929 . S
C2815 C2813 1.433 . S
C2815 N2818 1.384 . S
C2816 H2807 0.929 . S
C2816 C2808 1.378 . S
C2816 C2811 1.350 . S
C2817 H2804 0.929 . S
C2817 C2809 1.433 . S
C2817 N2819 1.384 . S
N2818 C2814 1.427 . S
N2818 C2815 1.384 . S
N2819 C2811 1.427 1_556 S
N2819 C2817 1.384 . S
H2820 C2826 0.930 . S
H2821 C2830 0.930 . S
H2822 C2835 0.929 . S
H2823 C2833 0.929 . S
H2824 C2828 0.929 . S
H2825 C2834 0.929 . S
C2826 H2820 0.930 . S
C2826 C2827 1.367 . S
C2826 C2834 1.378 . S
C2827 C2826 1.367 . S
C2827 C2835 1.433 . S
C2828 H2824 0.929 . S
C2828 C2830 1.378 . S
C2828 C2832 1.350 . S
C2829 C2832 1.463 . S
C2829 C2834 1.350 . S
C2829 N2837 1.427 . S
C2830 H2821 0.930 . S
C2830 C2828 1.378 . S
C2830 C2831 1.367 . S
C2831 C2830 1.367 . S
C2831 C2833 1.433 . S
C2832 C2828 1.350 . S
C2832 C2829 1.463 . S
C2832 N2836 1.427 . S
C2833 H2823 0.929 . S
C2833 C2831 1.433 . S
C2833 N2836 1.384 . S
C2834 H2825 0.929 . S
C2834 C2826 1.378 . S
C2834 C2829 1.350 . S
C2835 H2822 0.929 . S
C2835 C2827 1.433 . S
C2835 N2837 1.384 . S
N2836 C2832 1.427 . S
N2836 C2833 1.384 . S
N2837 C2829 1.427 . S
N2837 C2835 1.384 . S
H2838 C2844 0.930 . S
H2839 C2848 0.930 . S
H2840 C2853 0.929 . S
H2841 C2851 0.929 . S
H2842 C2846 0.929 . S
H2843 C2852 0.929 . S
C2844 H2838 0.930 . S
C2844 C2845 1.367 . S
C2844 C2852 1.378 . S
C2845 C2844 1.367 . S
C2845 C2853 1.433 . S
C2846 H2842 0.929 . S
C2846 C2848 1.378 . S
C2846 C2850 1.350 . S
C2847 C2850 1.463 . S
C2847 C2852 1.350 . S
C2847 N2855 1.427 . S
C2848 H2839 0.930 . S
C2848 C2846 1.378 . S
C2848 C2849 1.367 . S
C2849 C2848 1.367 . S
C2849 C2851 1.433 . S
C2850 C2846 1.350 . S
C2850 C2847 1.463 . S
C2850 N2854 1.427 . S
C2851 H2841 0.929 . S
C2851 C2849 1.433 . S
C2851 N2854 1.384 . S
C2852 H2843 0.929 . S
C2852 C2844 1.378 . S
C2852 C2847 1.350 . S
C2853 H2840 0.929 . S
C2853 C2845 1.433 . S
C2853 N2855 1.384 . S
N2854 C2850 1.427 . S
N2854 C2851 1.384 . S
N2855 C2847 1.427 . S
N2855 C2853 1.384 . S
H2856 C2862 0.930 . S
H2857 C2866 0.930 . S
H2858 C2871 0.929 . S
H2859 C2869 0.929 . S
H2860 C2864 0.929 . S
H2861 C2870 0.929 . S
C2862 H2856 0.930 . S
C2862 C2863 1.367 . S
C2862 C2870 1.378 . S
C2863 C2862 1.367 . S
C2863 C2871 1.433 . S
C2864 H2860 0.929 . S
C2864 C2866 1.378 . S
C2864 C2868 1.350 . S
C2865 C2868 1.463 . S
C2865 C2870 1.350 . S
C2865 N2873 1.427 . S
C2866 H2857 0.930 . S
C2866 C2864 1.378 . S
C2866 C2867 1.367 . S
C2867 C2866 1.367 . S
C2867 C2869 1.433 . S
C2868 C2864 1.350 . S
C2868 C2865 1.463 . S
C2868 N2872 1.427 . S
C2869 H2859 0.929 . S
C2869 C2867 1.433 . S
C2869 N2872 1.384 . S
C2870 H2861 0.929 . S
C2870 C2862 1.378 . S
C2870 C2865 1.350 . S
C2871 H2858 0.929 . S
C2871 C2863 1.433 . S
C2871 N2873 1.384 . S
N2872 C2868 1.427 . S
N2872 C2869 1.384 . S
N2873 C2865 1.427 . S
N2873 C2871 1.384 . S
H2874 C2880 0.932 . S
H2875 C2884 0.930 . S
H2876 C2889 0.929 . S
H2877 C2887 0.929 . S
H2878 C2882 0.929 . S
H2879 C2888 0.929 . S
C2880 H2874 0.932 . S
C2880 C2881 1.367 . S
C2880 C2888 1.378 1_554 S
C2881 C2880 1.367 . S
C2881 C2889 1.433 . S
C2882 H2878 0.929 . S
C2882 C2884 1.378 . S
C2882 C2886 1.350 . S
C2883 C2886 1.463 . S
C2883 C2888 1.350 . S
C2883 N2891 1.427 1_556 S
C2884 H2875 0.930 . S
C2884 C2882 1.378 . S
C2884 C2885 1.367 . S
C2885 C2884 1.367 . S
C2885 C2887 1.433 . S
C2886 C2882 1.350 . S
C2886 C2883 1.463 . S
C2886 N2890 1.427 . S
C2887 H2877 0.929 . S
C2887 C2885 1.433 . S
C2887 N2890 1.384 . S
C2888 H2879 0.929 . S
C2888 C2880 1.378 1_556 S
C2888 C2883 1.350 . S
C2889 H2876 0.929 . S
C2889 C2881 1.433 . S
C2889 N2891 1.384 . S
N2890 C2886 1.427 . S
N2890 C2887 1.384 . S
N2891 C2883 1.427 1_554 S
N2891 C2889 1.384 . S
H2892 C2898 0.930 . S
H2893 C2902 0.930 . S
H2894 C2907 0.929 . S
H2895 C2905 0.929 . S
H2896 C2900 0.929 . S
H2897 C2906 0.929 . S
C2898 H2892 0.930 . S
C2898 C2899 1.367 . S
C2898 C2906 1.378 . S
C2899 C2898 1.367 . S
C2899 C2907 1.433 . S
C2900 H2896 0.929 . S
C2900 C2902 1.378 . S
C2900 C2904 1.350 . S
C2901 C2904 1.463 . S
C2901 C2906 1.350 . S
C2901 N2909 1.427 . S
C2902 H2893 0.930 . S
C2902 C2900 1.378 . S
C2902 C2903 1.367 . S
C2903 C2902 1.367 . S
C2903 C2905 1.433 . S
C2904 C2900 1.350 . S
C2904 C2901 1.463 . S
C2904 N2908 1.427 . S
C2905 H2895 0.929 . S
C2905 C2903 1.433 . S
C2905 N2908 1.384 . S
C2906 H2897 0.929 . S
C2906 C2898 1.378 . S
C2906 C2901 1.350 . S
C2907 H2894 0.929 . S
C2907 C2899 1.433 . S
C2907 N2909 1.384 . S
N2908 C2904 1.427 . S
N2908 C2905 1.384 . S
N2909 C2901 1.427 . S
N2909 C2907 1.384 . S
H2910 C2916 0.930 . S
H2911 C2920 0.930 . S
H2912 C2925 0.929 . S
H2913 C2923 0.929 . S
H2914 C2918 0.929 . S
H2915 C2924 0.929 . S
C2916 H2910 0.930 . S
C2916 C2917 1.367 . S
C2916 C2924 1.378 . S
C2917 C2916 1.367 . S
C2917 C2925 1.433 . S
C2918 H2914 0.929 . S
C2918 C2920 1.378 . S
C2918 C2922 1.350 . S
C2919 C2922 1.463 . S
C2919 C2924 1.350 . S
C2919 N2927 1.427 . S
C2920 H2911 0.930 . S
C2920 C2918 1.378 . S
C2920 C2921 1.367 . S
C2921 C2920 1.367 . S
C2921 C2923 1.433 . S
C2922 C2918 1.350 . S
C2922 C2919 1.463 . S
C2922 N2926 1.427 . S
C2923 H2913 0.929 . S
C2923 C2921 1.433 . S
C2923 N2926 1.384 . S
C2924 H2915 0.929 . S
C2924 C2916 1.378 . S
C2924 C2919 1.350 . S
C2925 H2912 0.929 . S
C2925 C2917 1.433 . S
C2925 N2927 1.384 . S
N2926 C2922 1.427 . S
N2926 C2923 1.384 . S
N2927 C2919 1.427 . S
N2927 C2925 1.384 . S
H2928 C2934 0.930 . S
H2929 C2938 0.930 . S
H2930 C2943 0.929 . S
H2931 C2941 0.929 . S
H2932 C2936 0.929 . S
H2933 C2942 0.929 . S
C2934 H2928 0.930 . S
C2934 C2935 1.367 . S
C2934 C2942 1.378 . S
C2935 C2934 1.367 . S
C2935 C2943 1.433 . S
C2936 H2932 0.929 . S
C2936 C2938 1.378 . S
C2936 C2940 1.350 . S
C2937 C2940 1.463 . S
C2937 C2942 1.350 . S
C2937 N2945 1.427 . S
C2938 H2929 0.930 . S
C2938 C2936 1.378 . S
C2938 C2939 1.367 . S
C2939 C2938 1.367 . S
C2939 C2941 1.433 . S
C2940 C2936 1.350 . S
C2940 C2937 1.463 . S
C2940 N2944 1.427 . S
C2941 H2931 0.929 . S
C2941 C2939 1.433 . S
C2941 N2944 1.384 . S
C2942 H2933 0.929 . S
C2942 C2934 1.378 . S
C2942 C2937 1.350 . S
C2943 H2930 0.929 . S
C2943 C2935 1.433 . S
C2943 N2945 1.384 . S
N2944 C2940 1.427 . S
N2944 C2941 1.384 . S
N2945 C2937 1.427 . S
N2945 C2943 1.384 . S
H2946 C2952 0.930 . S
H2947 C2956 0.930 . S
H2948 C2961 0.929 . S
H2949 C2959 0.929 . S
H2950 C2954 0.929 . S
H2951 C2960 0.929 . S
C2952 H2946 0.930 . S
C2952 C2953 1.367 . S
C2952 C2960 1.378 . S
C2953 C2952 1.367 . S
C2953 C2961 1.433 . S
C2954 H2950 0.929 . S
C2954 C2956 1.378 . S
C2954 C2958 1.350 . S
C2955 C2958 1.463 . S
C2955 C2960 1.350 . S
C2955 N2963 1.427 . S
C2956 H2947 0.930 . S
C2956 C2954 1.378 . S
C2956 C2957 1.367 . S
C2957 C2956 1.367 . S
C2957 C2959 1.433 . S
C2958 C2954 1.350 . S
C2958 C2955 1.463 . S
C2958 N2962 1.427 . S
C2959 H2949 0.929 . S
C2959 C2957 1.433 . S
C2959 N2962 1.384 . S
C2960 H2951 0.929 . S
C2960 C2952 1.378 . S
C2960 C2955 1.350 . S
C2961 H2948 0.929 . S
C2961 C2953 1.433 . S
C2961 N2963 1.384 . S
N2962 C2958 1.427 . S
N2962 C2959 1.384 . S
N2963 C2955 1.427 . S
N2963 C2961 1.384 . S
H2964 C2970 0.930 . S
H2965 C2974 0.930 . S
H2966 C2979 0.929 . S
H2967 C2977 0.929 . S
H2968 C2972 0.929 . S
H2969 C2978 0.922 1_545 S
C2970 H2964 0.930 . S
C2970 C2971 1.367 . S
C2970 C2978 1.407 . S
C2971 C2970 1.367 . S
C2971 C2979 1.433 . S
C2972 H2968 0.929 . S
C2972 C2974 1.378 . S
C2972 C2976 1.350 . S
C2973 C2976 1.463 . S
C2973 C2978 1.329 1_545 S
C2973 N2981 1.427 . S
C2974 H2965 0.930 . S
C2974 C2972 1.378 . S
C2974 C2975 1.367 . S
C2975 C2974 1.367 . S
C2975 C2977 1.433 . S
C2976 C2972 1.350 . S
C2976 C2973 1.463 . S
C2976 N2980 1.427 . S
C2977 H2967 0.929 . S
C2977 C2975 1.433 . S
C2977 N2980 1.384 . S
C2978 H2969 0.922 1_565 S
C2978 C2970 1.407 . S
C2978 C2973 1.329 1_565 S
C2979 H2966 0.929 . S
C2979 C2971 1.433 . S
C2979 N2981 1.384 1_565 S
N2980 C2976 1.427 . S
N2980 C2977 1.384 . S
N2981 C2973 1.427 . S
N2981 C2979 1.384 1_545 S
H2982 C2988 0.930 . S
H2983 C2992 0.930 . S
H2984 C2997 0.929 . S
H2985 C2995 0.929 . S
H2986 C2990 0.929 . S
H2987 C2996 0.929 . S
C2988 H2982 0.930 . S
C2988 C2989 1.367 . S
C2988 C2996 1.378 . S
C2989 C2988 1.367 . S
C2989 C2997 1.433 . S
C2990 H2986 0.929 . S
C2990 C2992 1.378 . S
C2990 C2994 1.350 . S
C2991 C2994 1.463 . S
C2991 C2996 1.350 . S
C2991 N2999 1.427 . S
C2992 H2983 0.930 . S
C2992 C2990 1.378 . S
C2992 C2993 1.367 . S
C2993 C2992 1.367 . S
C2993 C2995 1.433 . S
C2994 C2990 1.350 . S
C2994 C2991 1.463 . S
C2994 N2998 1.427 . S
C2995 H2985 0.929 . S
C2995 C2993 1.433 . S
C2995 N2998 1.384 . S
C2996 H2987 0.929 . S
C2996 C2988 1.378 . S
C2996 C2991 1.350 . S
C2997 H2984 0.929 . S
C2997 C2989 1.433 . S
C2997 N2999 1.384 . S
N2998 C2994 1.427 . S
N2998 C2995 1.384 . S
N2999 C2991 1.427 . S
N2999 C2997 1.384 . S
H3000 C3006 0.930 . S
H3001 C3010 0.930 . S
H3002 C3015 0.929 . S
H3003 C3013 0.929 . S
H3004 C3008 0.929 . S
H3005 C3014 0.929 . S
C3006 H3000 0.930 . S
C3006 C3007 1.367 . S
C3006 C3014 1.378 . S
C3007 C3006 1.367 . S
C3007 C3015 1.433 . S
C3008 H3004 0.929 . S
C3008 C3010 1.378 . S
C3008 C3012 1.350 . S
C3009 C3012 1.463 . S
C3009 C3014 1.350 . S
C3009 N3017 1.427 . S
C3010 H3001 0.930 . S
C3010 C3008 1.378 . S
C3010 C3011 1.367 . S
C3011 C3010 1.367 . S
C3011 C3013 1.433 . S
C3012 C3008 1.350 . S
C3012 C3009 1.463 . S
C3012 N3016 1.427 . S
C3013 H3003 0.929 . S
C3013 C3011 1.433 . S
C3013 N3016 1.384 . S
C3014 H3005 0.929 . S
C3014 C3006 1.378 . S
C3014 C3009 1.350 . S
C3015 H3002 0.929 . S
C3015 C3007 1.433 . S
C3015 N3017 1.384 . S
N3016 C3012 1.427 . S
N3016 C3013 1.384 . S
N3017 C3009 1.427 . S
N3017 C3015 1.384 . S
H3018 C3024 0.930 . S
H3019 C3028 0.930 . S
H3020 C3033 0.929 . S
H3021 C3031 0.929 . S
H3022 C3026 0.929 . S
H3023 C3032 0.929 . S
C3024 H3018 0.930 . S
C3024 C3025 1.367 . S
C3024 C3032 1.378 . S
C3025 C3024 1.367 . S
C3025 C3033 1.433 . S
C3026 H3022 0.929 . S
C3026 C3028 1.378 . S
C3026 C3030 1.350 . S
C3027 C3030 1.463 . S
C3027 C3032 1.350 . S
C3027 N3035 1.427 . S
C3028 H3019 0.930 . S
C3028 C3026 1.378 . S
C3028 C3029 1.367 . S
C3029 C3028 1.367 . S
C3029 C3031 1.433 . S
C3030 C3026 1.350 . S
C3030 C3027 1.463 . S
C3030 N3034 1.427 . S
C3031 H3021 0.929 . S
C3031 C3029 1.433 . S
C3031 N3034 1.384 . S
C3032 H3023 0.929 . S
C3032 C3024 1.378 . S
C3032 C3027 1.350 . S
C3033 H3020 0.929 . S
C3033 C3025 1.433 . S
C3033 N3035 1.384 . S
N3034 C3030 1.427 . S
N3034 C3031 1.384 . S
N3035 C3027 1.427 . S
N3035 C3033 1.384 . S
H3036 C3042 0.930 . S
H3037 C3046 0.930 . S
H3038 C3051 0.929 . S
H3039 C3049 0.934 . S
H3040 C3044 0.929 . S
H3041 C3050 0.929 . S
C3042 H3036 0.930 . S
C3042 C3043 1.367 . S
C3042 C3050 1.378 . S
C3043 C3042 1.367 . S
C3043 C3051 1.433 . S
C3044 H3040 0.929 . S
C3044 C3046 1.378 . S
C3044 C3048 1.350 1_545 S
C3045 C3048 1.463 . S
C3045 C3050 1.350 . S
C3045 N3053 1.427 . S
C3046 H3037 0.930 . S
C3046 C3044 1.378 . S
C3046 C3047 1.367 . S
C3047 C3046 1.367 . S
C3047 C3049 1.433 . S
C3048 C3044 1.350 1_565 S
C3048 C3045 1.463 . S
C3048 N3052 1.427 . S
C3049 H3039 0.934 . S
C3049 C3047 1.433 . S
C3049 N3052 1.384 1_545 S
C3050 H3041 0.929 . S
C3050 C3042 1.378 . S
C3050 C3045 1.350 . S
C3051 H3038 0.929 . S
C3051 C3043 1.433 . S
C3051 N3053 1.384 . S
N3052 C3048 1.427 . S
N3052 C3049 1.384 1_565 S
N3053 C3045 1.427 . S
N3053 C3051 1.384 . S
H3054 C3060 0.930 . S
H3055 C3064 0.930 . S
H3056 C3069 0.929 . S
H3057 C3067 0.929 . S
H3058 C3062 0.929 . S
H3059 C3068 0.929 . S
C3060 H3054 0.930 . S
C3060 C3061 1.367 . S
C3060 C3068 1.378 . S
C3061 C3060 1.367 . S
C3061 C3069 1.433 . S
C3062 H3058 0.929 . S
C3062 C3064 1.378 1_545 S
C3062 C3066 1.350 . S
C3063 C3066 1.463 . S
C3063 C3068 1.350 . S
C3063 N3071 1.427 . S
C3064 H3055 0.930 . S
C3064 C3062 1.378 1_565 S
C3064 C3065 1.367 . S
C3065 C3064 1.367 . S
C3065 C3067 1.433 . S
C3066 C3062 1.350 . S
C3066 C3063 1.463 . S
C3066 N3070 1.427 1_545 S
C3067 H3057 0.929 . S
C3067 C3065 1.433 . S
C3067 N3070 1.384 . S
C3068 H3059 0.929 . S
C3068 C3060 1.378 . S
C3068 C3063 1.350 . S
C3069 H3056 0.929 . S
C3069 C3061 1.433 . S
C3069 N3071 1.384 . S
N3070 C3066 1.427 1_565 S
N3070 C3067 1.384 . S
N3071 C3063 1.427 . S
N3071 C3069 1.384 . S
H3072 C3078 0.930 . S
H3073 C3082 0.930 . S
H3074 C3087 0.929 . S
H3075 C3085 0.929 . S
H3076 C3080 0.929 . S
H3077 C3086 0.929 . S
C3078 H3072 0.930 . S
C3078 C3079 1.367 . S
C3078 C3086 1.378 . S
C3079 C3078 1.367 . S
C3079 C3087 1.433 . S
C3080 H3076 0.929 . S
C3080 C3082 1.378 . S
C3080 C3084 1.350 . S
C3081 C3084 1.463 . S
C3081 C3086 1.350 . S
C3081 N3089 1.427 . S
C3082 H3073 0.930 . S
C3082 C3080 1.378 . S
C3082 C3083 1.367 . S
C3083 C3082 1.367 . S
C3083 C3085 1.433 . S
C3084 C3080 1.350 . S
C3084 C3081 1.463 . S
C3084 N3088 1.427 . S
C3085 H3075 0.929 . S
C3085 C3083 1.433 . S
C3085 N3088 1.384 . S
C3086 H3077 0.929 . S
C3086 C3078 1.378 . S
C3086 C3081 1.350 . S
C3087 H3074 0.929 . S
C3087 C3079 1.433 . S
C3087 N3089 1.384 . S
N3088 C3084 1.427 . S
N3088 C3085 1.384 . S
N3089 C3081 1.427 . S
N3089 C3087 1.384 . S
H3090 C3096 0.930 . S
H3091 C3100 0.930 . S
H3092 C3105 0.929 . S
H3093 C3103 0.929 . S
H3094 C3098 0.929 . S
H3095 C3104 0.929 . S
C3096 H3090 0.930 . S
C3096 C3097 1.367 . S
C3096 C3104 1.378 . S
C3097 C3096 1.367 . S
C3097 C3105 1.433 . S
C3098 H3094 0.929 . S
C3098 C3100 1.378 . S
C3098 C3102 1.350 . S
C3099 C3102 1.463 . S
C3099 C3104 1.350 . S
C3099 N3107 1.427 . S
C3100 H3091 0.930 . S
C3100 C3098 1.378 . S
C3100 C3101 1.367 . S
C3101 C3100 1.367 . S
C3101 C3103 1.433 . S
C3102 C3098 1.350 . S
C3102 C3099 1.463 . S
C3102 N3106 1.427 . S
C3103 H3093 0.929 . S
C3103 C3101 1.433 . S
C3103 N3106 1.384 . S
C3104 H3095 0.929 . S
C3104 C3096 1.378 . S
C3104 C3099 1.350 . S
C3105 H3092 0.929 . S
C3105 C3097 1.433 . S
C3105 N3107 1.384 . S
N3106 C3102 1.427 . S
N3106 C3103 1.384 . S
N3107 C3099 1.427 . S
N3107 C3105 1.384 . S
H3108 C3114 0.930 . S
H3109 C3118 0.930 . S
H3110 C3123 0.929 . S
H3111 C3121 0.929 . S
H3112 C3116 0.929 . S
H3113 C3122 0.929 . S
C3114 H3108 0.930 . S
C3114 C3115 1.367 . S
C3114 C3122 1.378 . S
C3115 C3114 1.367 . S
C3115 C3123 1.433 . S
C3116 H3112 0.929 . S
C3116 C3118 1.378 . S
C3116 C3120 1.350 . S
C3117 C3120 1.463 . S
C3117 C3122 1.350 . S
C3117 N3125 1.427 . S
C3118 H3109 0.930 . S
C3118 C3116 1.378 . S
C3118 C3119 1.367 . S
C3119 C3118 1.367 . S
C3119 C3121 1.433 . S
C3120 C3116 1.350 . S
C3120 C3117 1.463 . S
C3120 N3124 1.427 . S
C3121 H3111 0.929 . S
C3121 C3119 1.433 . S
C3121 N3124 1.384 . S
C3122 H3113 0.929 . S
C3122 C3114 1.378 . S
C3122 C3117 1.350 . S
C3123 H3110 0.929 . S
C3123 C3115 1.433 . S
C3123 N3125 1.384 . S
N3124 C3120 1.427 . S
N3124 C3121 1.384 . S
N3125 C3117 1.427 . S
N3125 C3123 1.384 . S
H3126 C3132 0.930 . S
H3127 C3136 0.930 . S
H3128 C3141 0.929 . S
H3129 C3139 0.929 . S
H3130 C3134 0.929 . S
H3131 C3140 0.929 . S
C3132 H3126 0.930 . S
C3132 C3133 1.367 . S
C3132 C3140 1.378 . S
C3133 C3132 1.367 . S
C3133 C3141 1.433 . S
C3134 H3130 0.929 . S
C3134 C3136 1.378 . S
C3134 C3138 1.350 . S
C3135 C3138 1.463 . S
C3135 C3140 1.350 . S
C3135 N3143 1.427 . S
C3136 H3127 0.930 . S
C3136 C3134 1.378 . S
C3136 C3137 1.367 . S
C3137 C3136 1.367 . S
C3137 C3139 1.433 . S
C3138 C3134 1.350 . S
C3138 C3135 1.463 . S
C3138 N3142 1.427 . S
C3139 H3129 0.929 . S
C3139 C3137 1.433 . S
C3139 N3142 1.384 . S
C3140 H3131 0.929 . S
C3140 C3132 1.378 . S
C3140 C3135 1.350 . S
C3141 H3128 0.929 . S
C3141 C3133 1.433 . S
C3141 N3143 1.384 . S
N3142 C3138 1.427 . S
N3142 C3139 1.384 . S
N3143 C3135 1.427 . S
N3143 C3141 1.384 . S
H3144 C3150 0.930 . S
H3145 C3154 0.930 . S
H3146 C3159 0.929 . S
H3147 C3157 0.929 . S
H3148 C3152 0.929 . S
H3149 C3158 0.929 . S
C3150 H3144 0.930 . S
C3150 C3151 1.367 . S
C3150 C3158 1.378 . S
C3151 C3150 1.367 . S
C3151 C3159 1.433 . S
C3152 H3148 0.929 . S
C3152 C3154 1.378 . S
C3152 C3156 1.350 . S
C3153 C3156 1.463 . S
C3153 C3158 1.350 . S
C3153 N3161 1.427 . S
C3154 H3145 0.930 . S
C3154 C3152 1.378 . S
C3154 C3155 1.367 . S
C3155 C3154 1.367 . S
C3155 C3157 1.433 . S
C3156 C3152 1.350 . S
C3156 C3153 1.463 . S
C3156 N3160 1.427 . S
C3157 H3147 0.929 . S
C3157 C3155 1.433 . S
C3157 N3160 1.384 . S
C3158 H3149 0.929 . S
C3158 C3150 1.378 . S
C3158 C3153 1.350 . S
C3159 H3146 0.929 . S
C3159 C3151 1.433 . S
C3159 N3161 1.384 . S
N3160 C3156 1.427 . S
N3160 C3157 1.384 . S
N3161 C3153 1.427 . S
N3161 C3159 1.384 . S
H3162 C3168 0.930 . S
H3163 C3172 0.930 . S
H3164 C3177 0.929 . S
H3165 C3175 0.929 . S
H3166 C3170 0.929 . S
H3167 C3176 0.929 . S
C3168 H3162 0.930 . S
C3168 C3169 1.367 . S
C3168 C3176 1.378 . S
C3169 C3168 1.367 . S
C3169 C3177 1.433 . S
C3170 H3166 0.929 . S
C3170 C3172 1.378 . S
C3170 C3174 1.350 . S
C3171 C3174 1.463 . S
C3171 C3176 1.350 . S
C3171 N3179 1.427 . S
C3172 H3163 0.930 . S
C3172 C3170 1.378 . S
C3172 C3173 1.367 . S
C3173 C3172 1.367 . S
C3173 C3175 1.433 . S
C3174 C3170 1.350 . S
C3174 C3171 1.463 . S
C3174 N3178 1.427 . S
C3175 H3165 0.929 . S
C3175 C3173 1.433 . S
C3175 N3178 1.384 . S
C3176 H3167 0.929 . S
C3176 C3168 1.378 . S
C3176 C3171 1.350 . S
C3177 H3164 0.929 . S
C3177 C3169 1.433 . S
C3177 N3179 1.384 . S
N3178 C3174 1.427 . S
N3178 C3175 1.384 . S
N3179 C3171 1.427 . S
N3179 C3177 1.384 . S
H3180 C3186 0.930 . S
H3181 C3190 0.930 . S
H3182 C3195 0.929 . S
H3183 C3193 0.929 . S
H3184 C3188 0.929 . S
H3185 C3194 0.929 . S
C3186 H3180 0.930 . S
C3186 C3187 1.367 . S
C3186 C3194 1.378 . S
C3187 C3186 1.367 . S
C3187 C3195 1.433 . S
C3188 H3184 0.929 . S
C3188 C3190 1.378 . S
C3188 C3192 1.350 . S
C3189 C3192 1.463 . S
C3189 C3194 1.350 . S
C3189 N3197 1.427 . S
C3190 H3181 0.930 . S
C3190 C3188 1.378 . S
C3190 C3191 1.367 . S
C3191 C3190 1.367 . S
C3191 C3193 1.433 . S
C3192 C3188 1.350 . S
C3192 C3189 1.463 . S
C3192 N3196 1.427 . S
C3193 H3183 0.929 . S
C3193 C3191 1.433 . S
C3193 N3196 1.384 . S
C3194 H3185 0.929 . S
C3194 C3186 1.378 . S
C3194 C3189 1.350 . S
C3195 H3182 0.929 . S
C3195 C3187 1.433 . S
C3195 N3197 1.384 . S
N3196 C3192 1.427 . S
N3196 C3193 1.384 . S
N3197 C3189 1.427 . S
N3197 C3195 1.384 . S
H3198 C3204 0.930 . S
H3199 C3208 0.930 . S
H3200 C3213 0.929 . S
H3201 C3211 0.929 . S
H3202 C3206 0.929 . S
H3203 C3212 0.929 . S
C3204 H3198 0.930 . S
C3204 C3205 1.367 . S
C3204 C3212 1.378 . S
C3205 C3204 1.367 . S
C3205 C3213 1.433 . S
C3206 H3202 0.929 . S
C3206 C3208 1.378 . S
C3206 C3210 1.350 . S
C3207 C3210 1.463 . S
C3207 C3212 1.350 . S
C3207 N3215 1.427 . S
C3208 H3199 0.930 . S
C3208 C3206 1.378 . S
C3208 C3209 1.367 . S
C3209 C3208 1.367 . S
C3209 C3211 1.433 . S
C3210 C3206 1.350 . S
C3210 C3207 1.463 . S
C3210 N3214 1.427 . S
C3211 H3201 0.929 . S
C3211 C3209 1.433 . S
C3211 N3214 1.384 . S
C3212 H3203 0.929 . S
C3212 C3204 1.378 . S
C3212 C3207 1.350 . S
C3213 H3200 0.929 . S
C3213 C3205 1.433 . S
C3213 N3215 1.384 . S
N3214 C3210 1.427 . S
N3214 C3211 1.384 . S
N3215 C3207 1.427 . S
N3215 C3213 1.384 . S
H3216 C3222 0.930 . S
H3217 C3226 0.930 . S
H3218 C3231 0.929 . S
H3219 C3229 0.929 . S
H3220 C3224 0.929 . S
H3221 C3230 0.929 . S
C3222 H3216 0.930 . S
C3222 C3223 1.367 . S
C3222 C3230 1.378 . S
C3223 C3222 1.367 . S
C3223 C3231 1.433 . S
C3224 H3220 0.929 . S
C3224 C3226 1.378 . S
C3224 C3228 1.350 . S
C3225 C3228 1.463 . S
C3225 C3230 1.350 . S
C3225 N3233 1.427 . S
C3226 H3217 0.930 . S
C3226 C3224 1.378 . S
C3226 C3227 1.367 . S
C3227 C3226 1.367 . S
C3227 C3229 1.433 . S
C3228 C3224 1.350 . S
C3228 C3225 1.463 . S
C3228 N3232 1.427 . S
C3229 H3219 0.929 . S
C3229 C3227 1.433 . S
C3229 N3232 1.384 . S
C3230 H3221 0.929 . S
C3230 C3222 1.378 . S
C3230 C3225 1.350 . S
C3231 H3218 0.929 . S
C3231 C3223 1.433 . S
C3231 N3233 1.384 . S
N3232 C3228 1.427 . S
N3232 C3229 1.384 . S
N3233 C3225 1.427 . S
N3233 C3231 1.384 . S
H3234 C3240 0.930 . S
H3235 C3244 0.930 . S
H3236 C3249 0.929 . S
H3237 C3247 0.929 . S
H3238 C3242 0.929 . S
H3239 C3248 0.929 . S
C3240 H3234 0.930 . S
C3240 C3241 1.367 . S
C3240 C3248 1.378 . S
C3241 C3240 1.367 . S
C3241 C3249 1.433 . S
C3242 H3238 0.929 . S
C3242 C3244 1.378 . S
C3242 C3246 1.350 . S
C3243 C3246 1.463 . S
C3243 C3248 1.350 . S
C3243 N3251 1.427 . S
C3244 H3235 0.930 . S
C3244 C3242 1.378 . S
C3244 C3245 1.367 . S
C3245 C3244 1.367 . S
C3245 C3247 1.433 . S
C3246 C3242 1.350 . S
C3246 C3243 1.463 . S
C3246 N3250 1.427 . S
C3247 H3237 0.929 . S
C3247 C3245 1.433 . S
C3247 N3250 1.384 . S
C3248 H3239 0.929 . S
C3248 C3240 1.378 . S
C3248 C3243 1.350 . S
C3249 H3236 0.929 . S
C3249 C3241 1.433 . S
C3249 N3251 1.384 . S
N3250 C3246 1.427 . S
N3250 C3247 1.384 . S
N3251 C3243 1.427 . S
N3251 C3249 1.384 . S
H3252 C3258 0.930 . S
H3253 C3262 0.930 . S
H3254 C3267 0.929 . S
H3255 C3265 0.929 . S
H3256 C3260 0.929 . S
H3257 C3266 0.929 . S
C3258 H3252 0.930 . S
C3258 C3259 1.367 . S
C3258 C3266 1.378 . S
C3259 C3258 1.367 . S
C3259 C3267 1.433 . S
C3260 H3256 0.929 . S
C3260 C3262 1.378 . S
C3260 C3264 1.350 . S
C3261 C3264 1.463 . S
C3261 C3266 1.350 . S
C3261 N3269 1.427 . S
C3262 H3253 0.930 . S
C3262 C3260 1.378 . S
C3262 C3263 1.367 . S
C3263 C3262 1.367 . S
C3263 C3265 1.433 . S
C3264 C3260 1.350 . S
C3264 C3261 1.463 . S
C3264 N3268 1.427 . S
C3265 H3255 0.929 . S
C3265 C3263 1.433 . S
C3265 N3268 1.384 . S
C3266 H3257 0.929 . S
C3266 C3258 1.378 . S
C3266 C3261 1.350 . S
C3267 H3254 0.929 . S
C3267 C3259 1.433 . S
C3267 N3269 1.384 . S
N3268 C3264 1.427 . S
N3268 C3265 1.384 . S
N3269 C3261 1.427 . S
N3269 C3267 1.384 . S
H3270 C3276 0.930 . S
H3271 C3280 0.930 . S
H3272 C3285 0.929 . S
H3273 C3283 0.929 . S
H3274 C3278 0.929 . S
H3275 C3284 0.929 . S
C3276 H3270 0.930 . S
C3276 C3277 1.367 . S
C3276 C3284 1.378 . S
C3277 C3276 1.367 . S
C3277 C3285 1.433 . S
C3278 H3274 0.929 . S
C3278 C3280 1.378 . S
C3278 C3282 1.350 . S
C3279 C3282 1.463 . S
C3279 C3284 1.350 . S
C3279 N3287 1.427 . S
C3280 H3271 0.930 . S
C3280 C3278 1.378 . S
C3280 C3281 1.367 . S
C3281 C3280 1.367 . S
C3281 C3283 1.433 . S
C3282 C3278 1.350 . S
C3282 C3279 1.463 . S
C3282 N3286 1.427 . S
C3283 H3273 0.929 . S
C3283 C3281 1.433 . S
C3283 N3286 1.384 . S
C3284 H3275 0.929 . S
C3284 C3276 1.378 . S
C3284 C3279 1.350 . S
C3285 H3272 0.929 . S
C3285 C3277 1.433 . S
C3285 N3287 1.384 . S
N3286 C3282 1.427 . S
N3286 C3283 1.384 . S
N3287 C3279 1.427 . S
N3287 C3285 1.384 . S
H3288 C3294 0.930 . S
H3289 C3298 0.930 . S
H3290 C3303 0.929 . S
H3291 C3301 0.929 . S
H3292 C3296 0.929 . S
H3293 C3302 0.929 . S
C3294 H3288 0.930 . S
C3294 C3295 1.367 . S
C3294 C3302 1.378 . S
C3295 C3294 1.367 . S
C3295 C3303 1.433 . S
C3296 H3292 0.929 . S
C3296 C3298 1.378 . S
C3296 C3300 1.350 . S
C3297 C3300 1.463 . S
C3297 C3302 1.350 . S
C3297 N3305 1.427 . S
C3298 H3289 0.930 . S
C3298 C3296 1.378 . S
C3298 C3299 1.367 . S
C3299 C3298 1.367 . S
C3299 C3301 1.433 . S
C3300 C3296 1.350 . S
C3300 C3297 1.463 . S
C3300 N3304 1.427 . S
C3301 H3291 0.929 . S
C3301 C3299 1.433 . S
C3301 N3304 1.384 . S
C3302 H3293 0.929 . S
C3302 C3294 1.378 . S
C3302 C3297 1.350 . S
C3303 H3290 0.929 . S
C3303 C3295 1.433 . S
C3303 N3305 1.384 . S
N3304 C3300 1.427 . S
N3304 C3301 1.384 . S
N3305 C3297 1.427 . S
N3305 C3303 1.384 . S
H3306 C3312 0.930 . S
H3307 C3316 0.930 . S
H3308 C3321 0.929 . S
H3309 C3319 0.929 . S
H3310 C3314 0.929 . S
H3311 C3320 0.929 . S
C3312 H3306 0.930 . S
C3312 C3313 1.367 . S
C3312 C3320 1.378 . S
C3313 C3312 1.367 . S
C3313 C3321 1.433 . S
C3314 H3310 0.929 . S
C3314 C3316 1.378 . S
C3314 C3318 1.350 . S
C3315 C3318 1.463 . S
C3315 C3320 1.350 . S
C3315 N3323 1.427 . S
C3316 H3307 0.930 . S
C3316 C3314 1.378 . S
C3316 C3317 1.367 . S
C3317 C3316 1.367 . S
C3317 C3319 1.433 . S
C3318 C3314 1.350 . S
C3318 C3315 1.463 . S
C3318 N3322 1.427 . S
C3319 H3309 0.929 . S
C3319 C3317 1.433 . S
C3319 N3322 1.384 . S
C3320 H3311 0.929 . S
C3320 C3312 1.378 . S
C3320 C3315 1.350 . S
C3321 H3308 0.929 . S
C3321 C3313 1.433 . S
C3321 N3323 1.384 . S
N3322 C3318 1.427 . S
N3322 C3319 1.384 . S
N3323 C3315 1.427 . S
N3323 C3321 1.384 . S
H3324 C3330 0.930 . S
H3325 C3334 0.930 . S
H3326 C3339 0.929 . S
H3327 C3337 0.929 . S
H3328 C3332 0.929 . S
H3329 C3338 0.929 . S
C3330 H3324 0.930 . S
C3330 C3331 1.367 . S
C3330 C3338 1.378 . S
C3331 C3330 1.367 . S
C3331 C3339 1.433 . S
C3332 H3328 0.929 . S
C3332 C3334 1.378 . S
C3332 C3336 1.350 . S
C3333 C3336 1.463 . S
C3333 C3338 1.350 . S
C3333 N3341 1.427 . S
C3334 H3325 0.930 . S
C3334 C3332 1.378 . S
C3334 C3335 1.367 . S
C3335 C3334 1.367 . S
C3335 C3337 1.433 . S
C3336 C3332 1.350 . S
C3336 C3333 1.463 . S
C3336 N3340 1.427 . S
C3337 H3327 0.929 . S
C3337 C3335 1.433 . S
C3337 N3340 1.384 . S
C3338 H3329 0.929 . S
C3338 C3330 1.378 . S
C3338 C3333 1.350 . S
C3339 H3326 0.929 . S
C3339 C3331 1.433 . S
C3339 N3341 1.384 . S
N3340 C3336 1.427 . S
N3340 C3337 1.384 . S
N3341 C3333 1.427 . S
N3341 C3339 1.384 . S
H3342 C3348 0.930 . S
H3343 C3352 0.930 . S
H3344 C3357 0.929 . S
H3345 C3355 0.929 . S
H3346 C3350 0.929 . S
H3347 C3356 0.929 . S
C3348 H3342 0.930 . S
C3348 C3349 1.367 . S
C3348 C3356 1.378 . S
C3349 C3348 1.367 . S
C3349 C3357 1.433 . S
C3350 H3346 0.929 . S
C3350 C3352 1.378 . S
C3350 C3354 1.350 . S
C3351 C3354 1.463 . S
C3351 C3356 1.350 . S
C3351 N3359 1.427 . S
C3352 H3343 0.930 . S
C3352 C3350 1.378 . S
C3352 C3353 1.367 . S
C3353 C3352 1.367 . S
C3353 C3355 1.433 . S
C3354 C3350 1.350 . S
C3354 C3351 1.463 . S
C3354 N3358 1.427 . S
C3355 H3345 0.929 . S
C3355 C3353 1.433 . S
C3355 N3358 1.384 . S
C3356 H3347 0.929 . S
C3356 C3348 1.378 . S
C3356 C3351 1.350 . S
C3357 H3344 0.929 . S
C3357 C3349 1.433 . S
C3357 N3359 1.384 . S
N3358 C3354 1.427 . S
N3358 C3355 1.384 . S
N3359 C3351 1.427 . S
N3359 C3357 1.384 . S
H3360 C3366 0.930 . S
H3361 C3370 0.930 . S
H3362 C3375 0.929 . S
H3363 C3373 0.929 . S
H3364 C3368 0.929 . S
H3365 C3374 0.929 . S
C3366 H3360 0.930 . S
C3366 C3367 1.367 . S
C3366 C3374 1.378 . S
C3367 C3366 1.367 . S
C3367 C3375 1.433 . S
C3368 H3364 0.929 . S
C3368 C3370 1.378 . S
C3368 C3372 1.350 . S
C3369 C3372 1.463 . S
C3369 C3374 1.350 . S
C3369 N3377 1.427 . S
C3370 H3361 0.930 . S
C3370 C3368 1.378 . S
C3370 C3371 1.367 . S
C3371 C3370 1.367 . S
C3371 C3373 1.433 . S
C3372 C3368 1.350 . S
C3372 C3369 1.463 . S
C3372 N3376 1.427 . S
C3373 H3363 0.929 . S
C3373 C3371 1.433 . S
C3373 N3376 1.384 . S
C3374 H3365 0.929 . S
C3374 C3366 1.378 . S
C3374 C3369 1.350 . S
C3375 H3362 0.929 . S
C3375 C3367 1.433 . S
C3375 N3377 1.384 . S
N3376 C3372 1.427 . S
N3376 C3373 1.384 . S
N3377 C3369 1.427 . S
N3377 C3375 1.384 . S
H3378 C3384 0.930 . S
H3379 C3388 0.930 . S
H3380 C3393 0.929 . S
H3381 C3391 0.929 . S
H3382 C3386 0.929 . S
H3383 C3392 0.929 . S
C3384 H3378 0.930 . S
C3384 C3385 1.367 . S
C3384 C3392 1.378 . S
C3385 C3384 1.367 . S
C3385 C3393 1.433 . S
C3386 H3382 0.929 . S
C3386 C3388 1.378 . S
C3386 C3390 1.350 . S
C3387 C3390 1.463 . S
C3387 C3392 1.350 . S
C3387 N3395 1.427 . S
C3388 H3379 0.930 . S
C3388 C3386 1.378 . S
C3388 C3389 1.367 . S
C3389 C3388 1.367 . S
C3389 C3391 1.433 . S
C3390 C3386 1.350 . S
C3390 C3387 1.463 . S
C3390 N3394 1.427 . S
C3391 H3381 0.929 . S
C3391 C3389 1.433 . S
C3391 N3394 1.384 . S
C3392 H3383 0.929 . S
C3392 C3384 1.378 . S
C3392 C3387 1.350 . S
C3393 H3380 0.929 . S
C3393 C3385 1.433 . S
C3393 N3395 1.384 . S
N3394 C3390 1.427 . S
N3394 C3391 1.384 . S
N3395 C3387 1.427 . S
N3395 C3393 1.384 . S
H3396 C3402 0.930 . S
H3397 C3406 0.930 . S
H3398 C3411 0.929 . S
H3399 C3409 0.929 . S
H3400 C3404 0.929 . S
H3401 C3410 0.929 . S
C3402 H3396 0.930 . S
C3402 C3403 1.367 . S
C3402 C3410 1.378 . S
C3403 C3402 1.367 . S
C3403 C3411 1.433 . S
C3404 H3400 0.929 . S
C3404 C3406 1.378 . S
C3404 C3408 1.350 . S
C3405 C3408 1.463 . S
C3405 C3410 1.350 . S
C3405 N3413 1.427 . S
C3406 H3397 0.930 . S
C3406 C3404 1.378 . S
C3406 C3407 1.367 . S
C3407 C3406 1.367 . S
C3407 C3409 1.433 . S
C3408 C3404 1.350 . S
C3408 C3405 1.463 . S
C3408 N3412 1.427 . S
C3409 H3399 0.929 . S
C3409 C3407 1.433 . S
C3409 N3412 1.384 . S
C3410 H3401 0.929 . S
C3410 C3402 1.378 . S
C3410 C3405 1.350 . S
C3411 H3398 0.929 . S
C3411 C3403 1.433 . S
C3411 N3413 1.384 . S
N3412 C3408 1.427 . S
N3412 C3409 1.384 . S
N3413 C3405 1.427 . S
N3413 C3411 1.384 . S
H3414 C3420 0.930 . S
H3415 C3424 0.930 . S
H3416 C3429 0.929 . S
H3417 C3427 0.929 . S
H3418 C3422 0.929 . S
H3419 C3428 0.929 . S
C3420 H3414 0.930 . S
C3420 C3421 1.367 . S
C3420 C3428 1.378 . S
C3421 C3420 1.367 . S
C3421 C3429 1.433 . S
C3422 H3418 0.929 . S
C3422 C3424 1.378 . S
C3422 C3426 1.350 . S
C3423 C3426 1.463 . S
C3423 C3428 1.350 . S
C3423 N3431 1.427 . S
C3424 H3415 0.930 . S
C3424 C3422 1.378 . S
C3424 C3425 1.367 . S
C3425 C3424 1.367 . S
C3425 C3427 1.433 . S
C3426 C3422 1.350 . S
C3426 C3423 1.463 . S
C3426 N3430 1.427 . S
C3427 H3417 0.929 . S
C3427 C3425 1.433 . S
C3427 N3430 1.384 . S
C3428 H3419 0.929 . S
C3428 C3420 1.378 . S
C3428 C3423 1.350 . S
C3429 H3416 0.929 . S
C3429 C3421 1.433 . S
C3429 N3431 1.384 . S
N3430 C3426 1.427 . S
N3430 C3427 1.384 . S
N3431 C3423 1.427 . S
N3431 C3429 1.384 . S
H3432 C3438 0.930 . S
H3433 C3442 0.930 . S
H3434 C3447 0.929 . S
H3435 C3445 0.929 . S
H3436 C3440 0.929 . S
H3437 C3446 0.929 . S
C3438 H3432 0.930 . S
C3438 C3439 1.367 . S
C3438 C3446 1.378 . S
C3439 C3438 1.367 . S
C3439 C3447 1.433 . S
C3440 H3436 0.929 . S
C3440 C3442 1.378 . S
C3440 C3444 1.350 . S
C3441 C3444 1.463 . S
C3441 C3446 1.350 . S
C3441 N3449 1.427 . S
C3442 H3433 0.930 . S
C3442 C3440 1.378 . S
C3442 C3443 1.367 . S
C3443 C3442 1.367 . S
C3443 C3445 1.433 . S
C3444 C3440 1.350 . S
C3444 C3441 1.463 . S
C3444 N3448 1.427 . S
C3445 H3435 0.929 . S
C3445 C3443 1.433 . S
C3445 N3448 1.384 . S
C3446 H3437 0.929 . S
C3446 C3438 1.378 . S
C3446 C3441 1.350 . S
C3447 H3434 0.929 . S
C3447 C3439 1.433 . S
C3447 N3449 1.384 . S
N3448 C3444 1.427 . S
N3448 C3445 1.384 . S
N3449 C3441 1.427 . S
N3449 C3447 1.384 . S
H3450 C3456 0.930 . S
H3451 C3460 0.930 . S
H3452 C3465 0.929 . S
H3453 C3463 0.929 . S
H3454 C3458 0.929 . S
H3455 C3464 0.929 . S
C3456 H3450 0.930 . S
C3456 C3457 1.367 . S
C3456 C3464 1.378 . S
C3457 C3456 1.367 . S
C3457 C3465 1.433 . S
C3458 H3454 0.929 . S
C3458 C3460 1.378 . S
C3458 C3462 1.350 . S
C3459 C3462 1.463 . S
C3459 C3464 1.350 . S
C3459 N3467 1.427 . S
C3460 H3451 0.930 . S
C3460 C3458 1.378 . S
C3460 C3461 1.367 . S
C3461 C3460 1.367 . S
C3461 C3463 1.433 . S
C3462 C3458 1.350 . S
C3462 C3459 1.463 . S
C3462 N3466 1.427 . S
C3463 H3453 0.929 . S
C3463 C3461 1.433 . S
C3463 N3466 1.384 . S
C3464 H3455 0.929 . S
C3464 C3456 1.378 . S
C3464 C3459 1.350 . S
C3465 H3452 0.929 . S
C3465 C3457 1.433 . S
C3465 N3467 1.384 . S
N3466 C3462 1.427 . S
N3466 C3463 1.384 . S
N3467 C3459 1.427 . S
N3467 C3465 1.384 . S
H3468 C3474 0.930 . S
H3469 C3478 0.930 . S
H3470 C3483 0.929 . S
H3471 C3481 0.929 . S
H3472 C3476 0.929 . S
H3473 C3482 0.929 . S
C3474 H3468 0.930 . S
C3474 C3475 1.367 . S
C3474 C3482 1.378 . S
C3475 C3474 1.367 . S
C3475 C3483 1.433 . S
C3476 H3472 0.929 . S
C3476 C3478 1.378 . S
C3476 C3480 1.350 . S
C3477 C3480 1.463 . S
C3477 C3482 1.350 . S
C3477 N3485 1.427 . S
C3478 H3469 0.930 . S
C3478 C3476 1.378 . S
C3478 C3479 1.367 . S
C3479 C3478 1.367 . S
C3479 C3481 1.433 . S
C3480 C3476 1.350 . S
C3480 C3477 1.463 . S
C3480 N3484 1.427 . S
C3481 H3471 0.929 . S
C3481 C3479 1.433 . S
C3481 N3484 1.384 . S
C3482 H3473 0.929 . S
C3482 C3474 1.378 . S
C3482 C3477 1.350 . S
C3483 H3470 0.929 . S
C3483 C3475 1.433 . S
C3483 N3485 1.384 . S
N3484 C3480 1.427 . S
N3484 C3481 1.384 . S
N3485 C3477 1.427 . S
N3485 C3483 1.384 . S
H3486 C3492 0.930 . S
H3487 C3496 0.930 . S
H3488 C3501 0.929 . S
H3489 C3499 0.929 . S
H3490 C3494 0.929 . S
H3491 C3500 0.929 . S
C3492 H3486 0.930 . S
C3492 C3493 1.367 . S
C3492 C3500 1.378 . S
C3493 C3492 1.367 . S
C3493 C3501 1.433 . S
C3494 H3490 0.929 . S
C3494 C3496 1.378 . S
C3494 C3498 1.350 . S
C3495 C3498 1.463 . S
C3495 C3500 1.350 . S
C3495 N3503 1.427 . S
C3496 H3487 0.930 . S
C3496 C3494 1.378 . S
C3496 C3497 1.367 . S
C3497 C3496 1.367 . S
C3497 C3499 1.433 . S
C3498 C3494 1.350 . S
C3498 C3495 1.463 . S
C3498 N3502 1.427 . S
C3499 H3489 0.929 . S
C3499 C3497 1.433 . S
C3499 N3502 1.384 . S
C3500 H3491 0.929 . S
C3500 C3492 1.378 . S
C3500 C3495 1.350 . S
C3501 H3488 0.929 . S
C3501 C3493 1.433 . S
C3501 N3503 1.384 . S
N3502 C3498 1.427 . S
N3502 C3499 1.384 . S
N3503 C3495 1.427 . S
N3503 C3501 1.384 . S
H3504 C3510 0.930 . S
H3505 C3514 0.930 . S
H3506 C3519 0.929 . S
H3507 C3517 0.929 . S
H3508 C3512 0.929 . S
H3509 C3518 0.929 . S
C3510 H3504 0.930 . S
C3510 C3511 1.367 . S
C3510 C3518 1.378 . S
C3511 C3510 1.367 . S
C3511 C3519 1.433 . S
C3512 H3508 0.929 . S
C3512 C3514 1.378 . S
C3512 C3516 1.350 . S
C3513 C3516 1.463 . S
C3513 C3518 1.350 . S
C3513 N3521 1.427 . S
C3514 H3505 0.930 . S
C3514 C3512 1.378 . S
C3514 C3515 1.367 . S
C3515 C3514 1.367 . S
C3515 C3517 1.433 . S
C3516 C3512 1.350 . S
C3516 C3513 1.463 . S
C3516 N3520 1.427 . S
C3517 H3507 0.929 . S
C3517 C3515 1.433 . S
C3517 N3520 1.384 . S
C3518 H3509 0.929 . S
C3518 C3510 1.378 . S
C3518 C3513 1.350 . S
C3519 H3506 0.929 . S
C3519 C3511 1.433 . S
C3519 N3521 1.384 . S
N3520 C3516 1.427 . S
N3520 C3517 1.384 . S
N3521 C3513 1.427 . S
N3521 C3519 1.384 . S
H3522 C3528 0.930 . S
H3523 C3532 0.930 . S
H3524 C3537 0.929 . S
H3525 C3535 0.929 . S
H3526 C3530 0.929 . S
H3527 C3536 0.929 . S
C3528 H3522 0.930 . S
C3528 C3529 1.367 . S
C3528 C3536 1.378 . S
C3529 C3528 1.367 . S
C3529 C3537 1.433 . S
C3530 H3526 0.929 . S
C3530 C3532 1.378 . S
C3530 C3534 1.350 . S
C3531 C3534 1.463 . S
C3531 C3536 1.350 . S
C3531 N3539 1.427 . S
C3532 H3523 0.930 . S
C3532 C3530 1.378 . S
C3532 C3533 1.367 . S
C3533 C3532 1.367 . S
C3533 C3535 1.433 . S
C3534 C3530 1.350 . S
C3534 C3531 1.463 . S
C3534 N3538 1.427 . S
C3535 H3525 0.929 . S
C3535 C3533 1.433 . S
C3535 N3538 1.384 . S
C3536 H3527 0.929 . S
C3536 C3528 1.378 . S
C3536 C3531 1.350 . S
C3537 H3524 0.929 . S
C3537 C3529 1.433 . S
C3537 N3539 1.384 . S
N3538 C3534 1.427 . S
N3538 C3535 1.384 . S
N3539 C3531 1.427 . S
N3539 C3537 1.384 . S
H3540 C3546 0.930 . S
H3541 C3550 0.930 . S
H3542 C3555 0.929 . S
H3543 C3553 0.929 . S
H3544 C3548 0.929 . S
H3545 C3554 0.929 . S
C3546 H3540 0.930 . S
C3546 C3547 1.367 . S
C3546 C3554 1.378 . S
C3547 C3546 1.367 . S
C3547 C3555 1.433 . S
C3548 H3544 0.929 . S
C3548 C3550 1.378 . S
C3548 C3552 1.350 . S
C3549 C3552 1.463 . S
C3549 C3554 1.350 . S
C3549 N3557 1.427 . S
C3550 H3541 0.930 . S
C3550 C3548 1.378 . S
C3550 C3551 1.367 . S
C3551 C3550 1.367 . S
C3551 C3553 1.433 . S
C3552 C3548 1.350 . S
C3552 C3549 1.463 . S
C3552 N3556 1.427 . S
C3553 H3543 0.929 . S
C3553 C3551 1.433 . S
C3553 N3556 1.384 . S
C3554 H3545 0.929 . S
C3554 C3546 1.378 . S
C3554 C3549 1.350 . S
C3555 H3542 0.929 . S
C3555 C3547 1.433 . S
C3555 N3557 1.384 . S
N3556 C3552 1.427 . S
N3556 C3553 1.384 . S
N3557 C3549 1.427 . S
N3557 C3555 1.384 . S
H3558 C3564 0.930 . S
H3559 C3568 0.930 . S
H3560 C3573 0.929 . S
H3561 C3571 0.929 . S
H3562 C3566 0.929 . S
H3563 C3572 0.929 . S
C3564 H3558 0.930 . S
C3564 C3565 1.367 . S
C3564 C3572 1.378 . S
C3565 C3564 1.367 . S
C3565 C3573 1.433 . S
C3566 H3562 0.929 . S
C3566 C3568 1.378 . S
C3566 C3570 1.350 . S
C3567 C3570 1.463 . S
C3567 C3572 1.350 . S
C3567 N3575 1.427 . S
C3568 H3559 0.930 . S
C3568 C3566 1.378 . S
C3568 C3569 1.367 . S
C3569 C3568 1.367 . S
C3569 C3571 1.433 . S
C3570 C3566 1.350 . S
C3570 C3567 1.463 . S
C3570 N3574 1.427 . S
C3571 H3561 0.929 . S
C3571 C3569 1.433 . S
C3571 N3574 1.384 . S
C3572 H3563 0.929 . S
C3572 C3564 1.378 . S
C3572 C3567 1.350 . S
C3573 H3560 0.929 . S
C3573 C3565 1.433 . S
C3573 N3575 1.384 . S
N3574 C3570 1.427 . S
N3574 C3571 1.384 . S
N3575 C3567 1.427 . S
N3575 C3573 1.384 . S
H3576 C3582 0.930 . S
H3577 C3586 0.930 . S
H3578 C3591 0.929 . S
H3579 C3589 0.929 . S
H3580 C3584 0.929 . S
H3581 C3590 0.929 . S
C3582 H3576 0.930 . S
C3582 C3583 1.367 . S
C3582 C3590 1.378 . S
C3583 C3582 1.367 . S
C3583 C3591 1.433 . S
C3584 H3580 0.929 . S
C3584 C3586 1.378 . S
C3584 C3588 1.350 . S
C3585 C3588 1.463 . S
C3585 C3590 1.350 . S
C3585 N3593 1.427 . S
C3586 H3577 0.930 . S
C3586 C3584 1.378 . S
C3586 C3587 1.367 . S
C3587 C3586 1.367 . S
C3587 C3589 1.433 . S
C3588 C3584 1.350 . S
C3588 C3585 1.463 . S
C3588 N3592 1.427 . S
C3589 H3579 0.929 . S
C3589 C3587 1.433 . S
C3589 N3592 1.384 . S
C3590 H3581 0.929 . S
C3590 C3582 1.378 . S
C3590 C3585 1.350 . S
C3591 H3578 0.929 . S
C3591 C3583 1.433 . S
C3591 N3593 1.384 . S
N3592 C3588 1.427 . S
N3592 C3589 1.384 . S
N3593 C3585 1.427 . S
N3593 C3591 1.384 . S
H3594 C3600 0.930 . S
H3595 C3604 0.930 . S
H3596 C3609 0.929 . S
H3597 C3607 0.929 . S
H3598 C3602 0.929 . S
H3599 C3608 0.929 . S
C3600 H3594 0.930 . S
C3600 C3601 1.367 . S
C3600 C3608 1.378 . S
C3601 C3600 1.367 . S
C3601 C3609 1.433 . S
C3602 H3598 0.929 . S
C3602 C3604 1.378 . S
C3602 C3606 1.350 . S
C3603 C3606 1.463 . S
C3603 C3608 1.350 . S
C3603 N3611 1.427 . S
C3604 H3595 0.930 . S
C3604 C3602 1.378 . S
C3604 C3605 1.367 . S
C3605 C3604 1.367 . S
C3605 C3607 1.433 . S
C3606 C3602 1.350 . S
C3606 C3603 1.463 . S
C3606 N3610 1.427 . S
C3607 H3597 0.929 . S
C3607 C3605 1.433 . S
C3607 N3610 1.384 . S
C3608 H3599 0.929 . S
C3608 C3600 1.378 . S
C3608 C3603 1.350 . S
C3609 H3596 0.929 . S
C3609 C3601 1.433 . S
C3609 N3611 1.384 . S
N3610 C3606 1.427 . S
N3610 C3607 1.384 . S
N3611 C3603 1.427 . S
N3611 C3609 1.384 . S
H3612 C3618 0.930 . S
H3613 C3622 0.930 . S
H3614 C3627 0.929 . S
H3615 C3625 0.929 . S
H3616 C3620 0.929 . S
H3617 C3626 0.929 . S
C3618 H3612 0.930 . S
C3618 C3619 1.367 . S
C3618 C3626 1.378 . S
C3619 C3618 1.367 . S
C3619 C3627 1.433 . S
C3620 H3616 0.929 . S
C3620 C3622 1.378 . S
C3620 C3624 1.350 . S
C3621 C3624 1.463 . S
C3621 C3626 1.350 . S
C3621 N3629 1.427 . S
C3622 H3613 0.930 . S
C3622 C3620 1.378 . S
C3622 C3623 1.367 . S
C3623 C3622 1.367 . S
C3623 C3625 1.433 . S
C3624 C3620 1.350 . S
C3624 C3621 1.463 . S
C3624 N3628 1.427 . S
C3625 H3615 0.929 . S
C3625 C3623 1.433 . S
C3625 N3628 1.384 . S
C3626 H3617 0.929 . S
C3626 C3618 1.378 . S
C3626 C3621 1.350 . S
C3627 H3614 0.929 . S
C3627 C3619 1.433 . S
C3627 N3629 1.384 . S
N3628 C3624 1.427 . S
N3628 C3625 1.384 . S
N3629 C3621 1.427 . S
N3629 C3627 1.384 . S
H3630 C3636 0.930 . S
H3631 C3640 0.930 . S
H3632 C3645 0.929 . S
H3633 C3643 0.929 . S
H3634 C3638 0.929 . S
H3635 C3644 0.929 . S
C3636 H3630 0.930 . S
C3636 C3637 1.367 . S
C3636 C3644 1.378 . S
C3637 C3636 1.367 . S
C3637 C3645 1.433 . S
C3638 H3634 0.929 . S
C3638 C3640 1.378 . S
C3638 C3642 1.350 . S
C3639 C3642 1.463 . S
C3639 C3644 1.350 . S
C3639 N3647 1.427 . S
C3640 H3631 0.930 . S
C3640 C3638 1.378 . S
C3640 C3641 1.367 . S
C3641 C3640 1.367 . S
C3641 C3643 1.433 . S
C3642 C3638 1.350 . S
C3642 C3639 1.463 . S
C3642 N3646 1.427 . S
C3643 H3633 0.929 . S
C3643 C3641 1.433 . S
C3643 N3646 1.384 . S
C3644 H3635 0.929 . S
C3644 C3636 1.378 . S
C3644 C3639 1.350 . S
C3645 H3632 0.929 . S
C3645 C3637 1.433 . S
C3645 N3647 1.384 . S
N3646 C3642 1.427 . S
N3646 C3643 1.384 . S
N3647 C3639 1.427 . S
N3647 C3645 1.384 . S
H3648 C3654 0.930 . S
H3649 C3658 0.930 . S
H3650 C3663 0.929 . S
H3651 C3661 0.929 . S
H3652 C3656 0.929 . S
H3653 C3662 0.929 . S
C3654 H3648 0.930 . S
C3654 C3655 1.367 . S
C3654 C3662 1.378 . S
C3655 C3654 1.367 . S
C3655 C3663 1.433 . S
C3656 H3652 0.929 . S
C3656 C3658 1.378 . S
C3656 C3660 1.350 . S
C3657 C3660 1.463 . S
C3657 C3662 1.350 . S
C3657 N3665 1.427 . S
C3658 H3649 0.930 . S
C3658 C3656 1.378 . S
C3658 C3659 1.367 . S
C3659 C3658 1.367 . S
C3659 C3661 1.433 . S
C3660 C3656 1.350 . S
C3660 C3657 1.463 . S
C3660 N3664 1.427 . S
C3661 H3651 0.929 . S
C3661 C3659 1.433 . S
C3661 N3664 1.384 . S
C3662 H3653 0.929 . S
C3662 C3654 1.378 . S
C3662 C3657 1.350 . S
C3663 H3650 0.929 . S
C3663 C3655 1.433 . S
C3663 N3665 1.384 . S
N3664 C3660 1.427 . S
N3664 C3661 1.384 . S
N3665 C3657 1.427 . S
N3665 C3663 1.384 . S
H3666 C3672 0.930 . S
H3667 C3676 0.930 . S
H3668 C3681 0.929 . S
H3669 C3679 0.929 . S
H3670 C3674 0.929 . S
H3671 C3680 0.929 . S
C3672 H3666 0.930 . S
C3672 C3673 1.367 . S
C3672 C3680 1.378 . S
C3673 C3672 1.367 . S
C3673 C3681 1.433 . S
C3674 H3670 0.929 . S
C3674 C3676 1.378 . S
C3674 C3678 1.350 . S
C3675 C3678 1.463 . S
C3675 C3680 1.350 . S
C3675 N3683 1.427 . S
C3676 H3667 0.930 . S
C3676 C3674 1.378 . S
C3676 C3677 1.367 . S
C3677 C3676 1.367 . S
C3677 C3679 1.433 . S
C3678 C3674 1.350 . S
C3678 C3675 1.463 . S
C3678 N3682 1.427 . S
C3679 H3669 0.929 . S
C3679 C3677 1.433 . S
C3679 N3682 1.384 . S
C3680 H3671 0.929 . S
C3680 C3672 1.378 . S
C3680 C3675 1.350 . S
C3681 H3668 0.929 . S
C3681 C3673 1.433 . S
C3681 N3683 1.384 . S
N3682 C3678 1.427 . S
N3682 C3679 1.384 . S
N3683 C3675 1.427 . S
N3683 C3681 1.384 . S
H3684 C3690 0.930 . S
H3685 C3694 0.930 . S
H3686 C3699 0.929 . S
H3687 C3697 0.929 . S
H3688 C3692 0.929 . S
H3689 C3698 0.929 . S
C3690 H3684 0.930 . S
C3690 C3691 1.367 . S
C3690 C3698 1.378 . S
C3691 C3690 1.367 . S
C3691 C3699 1.433 . S
C3692 H3688 0.929 . S
C3692 C3694 1.378 . S
C3692 C3696 1.350 . S
C3693 C3696 1.463 . S
C3693 C3698 1.350 . S
C3693 N3701 1.427 . S
C3694 H3685 0.930 . S
C3694 C3692 1.378 . S
C3694 C3695 1.367 . S
C3695 C3694 1.367 . S
C3695 C3697 1.433 . S
C3696 C3692 1.350 . S
C3696 C3693 1.463 . S
C3696 N3700 1.427 . S
C3697 H3687 0.929 . S
C3697 C3695 1.433 . S
C3697 N3700 1.384 . S
C3698 H3689 0.929 . S
C3698 C3690 1.378 . S
C3698 C3693 1.350 . S
C3699 H3686 0.929 . S
C3699 C3691 1.433 . S
C3699 N3701 1.384 . S
N3700 C3696 1.427 . S
N3700 C3697 1.384 . S
N3701 C3693 1.427 . S
N3701 C3699 1.384 . S
H3702 C3708 0.930 . S
H3703 C3712 0.930 . S
H3704 C3717 0.929 . S
H3705 C3715 0.929 . S
H3706 C3710 0.929 . S
H3707 C3716 0.929 . S
C3708 H3702 0.930 . S
C3708 C3709 1.367 . S
C3708 C3716 1.378 . S
C3709 C3708 1.367 . S
C3709 C3717 1.433 . S
C3710 H3706 0.929 . S
C3710 C3712 1.378 . S
C3710 C3714 1.350 . S
C3711 C3714 1.463 . S
C3711 C3716 1.350 . S
C3711 N3719 1.427 . S
C3712 H3703 0.930 . S
C3712 C3710 1.378 . S
C3712 C3713 1.367 . S
C3713 C3712 1.367 . S
C3713 C3715 1.433 . S
C3714 C3710 1.350 . S
C3714 C3711 1.463 . S
C3714 N3718 1.427 . S
C3715 H3705 0.929 . S
C3715 C3713 1.433 . S
C3715 N3718 1.384 . S
C3716 H3707 0.929 . S
C3716 C3708 1.378 . S
C3716 C3711 1.350 . S
C3717 H3704 0.929 . S
C3717 C3709 1.433 . S
C3717 N3719 1.384 . S
N3718 C3714 1.427 . S
N3718 C3715 1.384 . S
N3719 C3711 1.427 . S
N3719 C3717 1.384 . S
H3720 C3726 0.930 . S
H3721 C3730 0.930 . S
H3722 C3735 0.929 . S
H3723 C3733 0.929 . S
H3724 C3728 0.929 . S
H3725 C3734 0.929 . S
C3726 H3720 0.930 . S
C3726 C3727 1.367 . S
C3726 C3734 1.378 . S
C3727 C3726 1.367 . S
C3727 C3735 1.433 . S
C3728 H3724 0.929 . S
C3728 C3730 1.378 . S
C3728 C3732 1.350 . S
C3729 C3732 1.463 . S
C3729 C3734 1.350 . S
C3729 N3737 1.427 . S
C3730 H3721 0.930 . S
C3730 C3728 1.378 . S
C3730 C3731 1.367 . S
C3731 C3730 1.367 . S
C3731 C3733 1.433 . S
C3732 C3728 1.350 . S
C3732 C3729 1.463 . S
C3732 N3736 1.427 . S
C3733 H3723 0.929 . S
C3733 C3731 1.433 . S
C3733 N3736 1.384 . S
C3734 H3725 0.929 . S
C3734 C3726 1.378 . S
C3734 C3729 1.350 . S
C3735 H3722 0.929 . S
C3735 C3727 1.433 . S
C3735 N3737 1.384 . S
N3736 C3732 1.427 . S
N3736 C3733 1.384 . S
N3737 C3729 1.427 . S
N3737 C3735 1.384 . S
H3738 C3744 0.930 . S
H3739 C3748 0.930 . S
H3740 C3753 0.929 . S
H3741 C3751 0.929 . S
H3742 C3746 0.929 . S
H3743 C3752 0.929 . S
C3744 H3738 0.930 . S
C3744 C3745 1.367 . S
C3744 C3752 1.378 . S
C3745 C3744 1.367 . S
C3745 C3753 1.433 . S
C3746 H3742 0.929 . S
C3746 C3748 1.378 . S
C3746 C3750 1.350 . S
C3747 C3750 1.463 . S
C3747 C3752 1.350 . S
C3747 N3755 1.427 . S
C3748 H3739 0.930 . S
C3748 C3746 1.378 . S
C3748 C3749 1.367 . S
C3749 C3748 1.367 . S
C3749 C3751 1.433 . S
C3750 C3746 1.350 . S
C3750 C3747 1.463 . S
C3750 N3754 1.427 . S
C3751 H3741 0.929 . S
C3751 C3749 1.433 . S
C3751 N3754 1.384 . S
C3752 H3743 0.929 . S
C3752 C3744 1.378 . S
C3752 C3747 1.350 . S
C3753 H3740 0.929 . S
C3753 C3745 1.433 . S
C3753 N3755 1.384 . S
N3754 C3750 1.427 . S
N3754 C3751 1.384 . S
N3755 C3747 1.427 . S
N3755 C3753 1.384 . S
H3756 C3762 0.930 . S
H3757 C3766 0.930 . S
H3758 C3771 0.929 . S
H3759 C3769 0.929 . S
H3760 C3764 0.929 . S
H3761 C3770 0.929 . S
C3762 H3756 0.930 . S
C3762 C3763 1.367 . S
C3762 C3770 1.378 . S
C3763 C3762 1.367 . S
C3763 C3771 1.433 . S
C3764 H3760 0.929 . S
C3764 C3766 1.378 . S
C3764 C3768 1.350 . S
C3765 C3768 1.463 . S
C3765 C3770 1.350 . S
C3765 N3773 1.427 . S
C3766 H3757 0.930 . S
C3766 C3764 1.378 . S
C3766 C3767 1.367 . S
C3767 C3766 1.367 . S
C3767 C3769 1.433 . S
C3768 C3764 1.350 . S
C3768 C3765 1.463 . S
C3768 N3772 1.427 . S
C3769 H3759 0.929 . S
C3769 C3767 1.433 . S
C3769 N3772 1.384 . S
C3770 H3761 0.929 . S
C3770 C3762 1.378 . S
C3770 C3765 1.350 . S
C3771 H3758 0.929 . S
C3771 C3763 1.433 . S
C3771 N3773 1.384 . S
N3772 C3768 1.427 . S
N3772 C3769 1.384 . S
N3773 C3765 1.427 . S
N3773 C3771 1.384 . S
H3774 C3780 0.930 . S
H3775 C3784 0.930 . S
H3776 C3789 0.929 . S
H3777 C3787 0.929 . S
H3778 C3782 0.929 . S
H3779 C3788 0.929 . S
C3780 H3774 0.930 . S
C3780 C3781 1.367 . S
C3780 C3788 1.378 . S
C3781 C3780 1.367 . S
C3781 C3789 1.433 . S
C3782 H3778 0.929 . S
C3782 C3784 1.378 . S
C3782 C3786 1.350 . S
C3783 C3786 1.463 . S
C3783 C3788 1.350 . S
C3783 N3791 1.427 . S
C3784 H3775 0.930 . S
C3784 C3782 1.378 . S
C3784 C3785 1.367 . S
C3785 C3784 1.367 . S
C3785 C3787 1.433 . S
C3786 C3782 1.350 . S
C3786 C3783 1.463 . S
C3786 N3790 1.427 . S
C3787 H3777 0.929 . S
C3787 C3785 1.433 . S
C3787 N3790 1.384 . S
C3788 H3779 0.929 . S
C3788 C3780 1.378 . S
C3788 C3783 1.350 . S
C3789 H3776 0.929 . S
C3789 C3781 1.433 . S
C3789 N3791 1.384 . S
N3790 C3786 1.427 . S
N3790 C3787 1.384 . S
N3791 C3783 1.427 . S
N3791 C3789 1.384 . S
H3792 C3798 0.930 . S
H3793 C3802 0.930 . S
H3794 C3807 0.929 . S
H3795 C3805 0.929 . S
H3796 C3800 0.929 . S
H3797 C3806 0.929 . S
C3798 H3792 0.930 . S
C3798 C3799 1.367 . S
C3798 C3806 1.378 . S
C3799 C3798 1.367 . S
C3799 C3807 1.433 . S
C3800 H3796 0.929 . S
C3800 C3802 1.378 . S
C3800 C3804 1.350 . S
C3801 C3804 1.463 . S
C3801 C3806 1.350 . S
C3801 N3809 1.427 . S
C3802 H3793 0.930 . S
C3802 C3800 1.378 . S
C3802 C3803 1.367 . S
C3803 C3802 1.367 . S
C3803 C3805 1.433 . S
C3804 C3800 1.350 . S
C3804 C3801 1.463 . S
C3804 N3808 1.427 . S
C3805 H3795 0.929 . S
C3805 C3803 1.433 . S
C3805 N3808 1.384 . S
C3806 H3797 0.929 . S
C3806 C3798 1.378 . S
C3806 C3801 1.350 . S
C3807 H3794 0.929 . S
C3807 C3799 1.433 . S
C3807 N3809 1.384 . S
N3808 C3804 1.427 . S
N3808 C3805 1.384 . S
N3809 C3801 1.427 . S
N3809 C3807 1.384 . S
H3810 C3816 0.930 . S
H3811 C3820 0.930 . S
H3812 C3825 0.929 . S
H3813 C3823 0.929 . S
H3814 C3818 0.929 . S
H3815 C3824 0.929 . S
C3816 H3810 0.930 . S
C3816 C3817 1.367 . S
C3816 C3824 1.378 . S
C3817 C3816 1.367 . S
C3817 C3825 1.433 . S
C3818 H3814 0.929 . S
C3818 C3820 1.378 . S
C3818 C3822 1.350 . S
C3819 C3822 1.463 . S
C3819 C3824 1.350 . S
C3819 N3827 1.427 . S
C3820 H3811 0.930 . S
C3820 C3818 1.378 . S
C3820 C3821 1.367 . S
C3821 C3820 1.367 . S
C3821 C3823 1.433 . S
C3822 C3818 1.350 . S
C3822 C3819 1.463 . S
C3822 N3826 1.427 . S
C3823 H3813 0.929 . S
C3823 C3821 1.433 . S
C3823 N3826 1.384 . S
C3824 H3815 0.929 . S
C3824 C3816 1.378 . S
C3824 C3819 1.350 . S
C3825 H3812 0.929 . S
C3825 C3817 1.433 . S
C3825 N3827 1.384 . S
N3826 C3822 1.427 . S
N3826 C3823 1.384 . S
N3827 C3819 1.427 . S
N3827 C3825 1.384 . S
H3828 C3834 0.930 . S
H3829 C3838 0.930 . S
H3830 C3843 0.929 . S
H3831 C3841 0.929 . S
H3832 C3836 0.929 . S
H3833 C3842 0.929 . S
C3834 H3828 0.930 . S
C3834 C3835 1.367 . S
C3834 C3842 1.378 . S
C3835 C3834 1.367 . S
C3835 C3843 1.433 . S
C3836 H3832 0.929 . S
C3836 C3838 1.378 . S
C3836 C3840 1.350 . S
C3837 C3840 1.463 . S
C3837 C3842 1.350 . S
C3837 N3845 1.427 . S
C3838 H3829 0.930 . S
C3838 C3836 1.378 . S
C3838 C3839 1.367 . S
C3839 C3838 1.367 . S
C3839 C3841 1.433 . S
C3840 C3836 1.350 . S
C3840 C3837 1.463 . S
C3840 N3844 1.427 . S
C3841 H3831 0.929 . S
C3841 C3839 1.433 . S
C3841 N3844 1.384 . S
C3842 H3833 0.929 . S
C3842 C3834 1.378 . S
C3842 C3837 1.350 . S
C3843 H3830 0.929 . S
C3843 C3835 1.433 . S
C3843 N3845 1.384 . S
N3844 C3840 1.427 . S
N3844 C3841 1.384 . S
N3845 C3837 1.427 . S
N3845 C3843 1.384 . S
H3846 C3852 0.930 . S
H3847 C3856 0.930 . S
H3848 C3861 0.929 . S
H3849 C3859 0.929 . S
H3850 C3854 0.929 . S
H3851 C3860 0.929 . S
C3852 H3846 0.930 . S
C3852 C3853 1.367 . S
C3852 C3860 1.378 . S
C3853 C3852 1.367 . S
C3853 C3861 1.433 . S
C3854 H3850 0.929 . S
C3854 C3856 1.378 . S
C3854 C3858 1.350 . S
C3855 C3858 1.463 . S
C3855 C3860 1.350 . S
C3855 N3863 1.427 . S
C3856 H3847 0.930 . S
C3856 C3854 1.378 . S
C3856 C3857 1.367 . S
C3857 C3856 1.367 . S
C3857 C3859 1.433 . S
C3858 C3854 1.350 . S
C3858 C3855 1.463 . S
C3858 N3862 1.427 . S
C3859 H3849 0.929 . S
C3859 C3857 1.433 . S
C3859 N3862 1.384 . S
C3860 H3851 0.929 . S
C3860 C3852 1.378 . S
C3860 C3855 1.350 . S
C3861 H3848 0.929 . S
C3861 C3853 1.433 . S
C3861 N3863 1.384 . S
N3862 C3858 1.427 . S
N3862 C3859 1.384 . S
N3863 C3855 1.427 . S
N3863 C3861 1.384 . S
H3864 C3870 0.930 . S
H3865 C3874 0.930 . S
H3866 C3879 0.929 . S
H3867 C3877 0.929 . S
H3868 C3872 0.929 . S
H3869 C3878 0.929 . S
C3870 H3864 0.930 . S
C3870 C3871 1.367 . S
C3870 C3878 1.378 . S
C3871 C3870 1.367 . S
C3871 C3879 1.433 . S
C3872 H3868 0.929 . S
C3872 C3874 1.378 . S
C3872 C3876 1.350 . S
C3873 C3876 1.463 . S
C3873 C3878 1.350 . S
C3873 N3881 1.427 . S
C3874 H3865 0.930 . S
C3874 C3872 1.378 . S
C3874 C3875 1.367 . S
C3875 C3874 1.367 . S
C3875 C3877 1.433 . S
C3876 C3872 1.350 . S
C3876 C3873 1.463 . S
C3876 N3880 1.427 . S
C3877 H3867 0.929 . S
C3877 C3875 1.433 . S
C3877 N3880 1.384 . S
C3878 H3869 0.929 . S
C3878 C3870 1.378 . S
C3878 C3873 1.350 . S
C3879 H3866 0.929 . S
C3879 C3871 1.433 . S
C3879 N3881 1.384 . S
N3880 C3876 1.427 . S
N3880 C3877 1.384 . S
N3881 C3873 1.427 . S
N3881 C3879 1.384 . S
H3882 C3888 0.930 . S
H3883 C3892 0.930 . S
H3884 C3897 0.929 . S
H3885 C3895 0.929 . S
H3886 C3890 0.929 . S
H3887 C3896 0.929 . S
C3888 H3882 0.930 . S
C3888 C3889 1.367 . S
C3888 C3896 1.378 . S
C3889 C3888 1.367 . S
C3889 C3897 1.433 . S
C3890 H3886 0.929 . S
C3890 C3892 1.378 . S
C3890 C3894 1.350 . S
C3891 C3894 1.463 . S
C3891 C3896 1.350 . S
C3891 N3899 1.427 . S
C3892 H3883 0.930 . S
C3892 C3890 1.378 . S
C3892 C3893 1.367 . S
C3893 C3892 1.367 . S
C3893 C3895 1.433 . S
C3894 C3890 1.350 . S
C3894 C3891 1.463 . S
C3894 N3898 1.427 . S
C3895 H3885 0.929 . S
C3895 C3893 1.433 . S
C3895 N3898 1.384 . S
C3896 H3887 0.929 . S
C3896 C3888 1.378 . S
C3896 C3891 1.350 . S
C3897 H3884 0.929 . S
C3897 C3889 1.433 . S
C3897 N3899 1.384 . S
N3898 C3894 1.427 . S
N3898 C3895 1.384 . S
N3899 C3891 1.427 . S
N3899 C3897 1.384 . S
H3900 C3906 0.930 . S
H3901 C3910 0.930 . S
H3902 C3915 0.929 . S
H3903 C3913 0.929 . S
H3904 C3908 0.929 . S
H3905 C3914 0.929 . S
C3906 H3900 0.930 . S
C3906 C3907 1.367 . S
C3906 C3914 1.378 . S
C3907 C3906 1.367 . S
C3907 C3915 1.433 . S
C3908 H3904 0.929 . S
C3908 C3910 1.378 . S
C3908 C3912 1.350 . S
C3909 C3912 1.463 . S
C3909 C3914 1.350 . S
C3909 N3917 1.427 . S
C3910 H3901 0.930 . S
C3910 C3908 1.378 . S
C3910 C3911 1.367 . S
C3911 C3910 1.367 . S
C3911 C3913 1.433 . S
C3912 C3908 1.350 . S
C3912 C3909 1.463 . S
C3912 N3916 1.427 . S
C3913 H3903 0.929 . S
C3913 C3911 1.433 . S
C3913 N3916 1.384 . S
C3914 H3905 0.929 . S
C3914 C3906 1.378 . S
C3914 C3909 1.350 . S
C3915 H3902 0.929 . S
C3915 C3907 1.433 . S
C3915 N3917 1.384 . S
N3916 C3912 1.427 . S
N3916 C3913 1.384 . S
N3917 C3909 1.427 . S
N3917 C3915 1.384 . S
H3918 C3924 0.930 . S
H3919 C3928 0.930 . S
H3920 C3933 0.929 . S
H3921 C3931 0.929 . S
H3922 C3926 0.929 . S
H3923 C3932 0.929 . S
C3924 H3918 0.930 . S
C3924 C3925 1.367 . S
C3924 C3932 1.378 . S
C3925 C3924 1.367 . S
C3925 C3933 1.433 . S
C3926 H3922 0.929 . S
C3926 C3928 1.378 . S
C3926 C3930 1.350 . S
C3927 C3930 1.463 . S
C3927 C3932 1.350 . S
C3927 N3935 1.427 . S
C3928 H3919 0.930 . S
C3928 C3926 1.378 . S
C3928 C3929 1.367 . S
C3929 C3928 1.367 . S
C3929 C3931 1.433 . S
C3930 C3926 1.350 . S
C3930 C3927 1.463 . S
C3930 N3934 1.427 . S
C3931 H3921 0.929 . S
C3931 C3929 1.433 . S
C3931 N3934 1.384 . S
C3932 H3923 0.929 . S
C3932 C3924 1.378 . S
C3932 C3927 1.350 . S
C3933 H3920 0.929 . S
C3933 C3925 1.433 . S
C3933 N3935 1.384 . S
N3934 C3930 1.427 . S
N3934 C3931 1.384 . S
N3935 C3927 1.427 . S
N3935 C3933 1.384 . S
H3936 C3942 0.930 . S
H3937 C3946 0.930 . S
H3938 C3951 0.929 . S
H3939 C3949 0.929 . S
H3940 C3944 0.929 . S
H3941 C3950 0.929 . S
C3942 H3936 0.930 . S
C3942 C3943 1.367 . S
C3942 C3950 1.378 . S
C3943 C3942 1.367 . S
C3943 C3951 1.433 . S
C3944 H3940 0.929 . S
C3944 C3946 1.378 . S
C3944 C3948 1.350 . S
C3945 C3948 1.463 1_455 S
C3945 C3950 1.350 . S
C3945 N3953 1.427 . S
C3946 H3937 0.930 . S
C3946 C3944 1.378 . S
C3946 C3947 1.367 . S
C3947 C3946 1.367 . S
C3947 C3949 1.433 . S
C3948 C3944 1.350 . S
C3948 C3945 1.463 1_655 S
C3948 N3952 1.427 . S
C3949 H3939 0.929 . S
C3949 C3947 1.433 . S
C3949 N3952 1.384 . S
C3950 H3941 0.929 . S
C3950 C3942 1.378 . S
C3950 C3945 1.350 . S
C3951 H3938 0.929 . S
C3951 C3943 1.433 . S
C3951 N3953 1.384 . S
N3952 C3948 1.427 . S
N3952 C3949 1.384 . S
N3953 C3945 1.427 . S
N3953 C3951 1.384 . S
H3954 C3960 0.930 . S
H3955 C3964 0.930 . S
H3956 C3969 0.929 . S
H3957 C3967 0.929 . S
H3958 C3962 0.929 . S
H3959 C3968 0.929 . S
C3960 H3954 0.930 . S
C3960 C3961 1.367 . S
C3960 C3968 1.378 . S
C3961 C3960 1.367 . S
C3961 C3969 1.433 . S
C3962 H3958 0.929 . S
C3962 C3964 1.378 . S
C3962 C3966 1.350 . S
C3963 C3966 1.463 . S
C3963 C3968 1.350 . S
C3963 N3971 1.427 . S
C3964 H3955 0.930 . S
C3964 C3962 1.378 . S
C3964 C3965 1.367 . S
C3965 C3964 1.367 . S
C3965 C3967 1.433 . S
C3966 C3962 1.350 . S
C3966 C3963 1.463 . S
C3966 N3970 1.427 . S
C3967 H3957 0.929 . S
C3967 C3965 1.433 . S
C3967 N3970 1.384 . S
C3968 H3959 0.929 . S
C3968 C3960 1.378 . S
C3968 C3963 1.350 . S
C3969 H3956 0.929 . S
C3969 C3961 1.433 . S
C3969 N3971 1.384 . S
N3970 C3966 1.427 . S
N3970 C3967 1.384 . S
N3971 C3963 1.427 . S
N3971 C3969 1.384 . S
H3972 C3978 0.930 . S
H3973 C3982 0.930 . S
H3974 C3987 0.929 . S
H3975 C3985 0.929 . S
H3976 C3980 0.929 . S
H3977 C3986 0.929 . S
C3978 H3972 0.930 . S
C3978 C3979 1.367 . S
C3978 C3986 1.378 . S
C3979 C3978 1.367 . S
C3979 C3987 1.433 . S
C3980 H3976 0.929 . S
C3980 C3982 1.378 . S
C3980 C3984 1.350 . S
C3981 C3984 1.463 . S
C3981 C3986 1.350 . S
C3981 N3989 1.427 . S
C3982 H3973 0.930 . S
C3982 C3980 1.378 . S
C3982 C3983 1.367 . S
C3983 C3982 1.367 . S
C3983 C3985 1.433 . S
C3984 C3980 1.350 . S
C3984 C3981 1.463 . S
C3984 N3988 1.427 . S
C3985 H3975 0.929 . S
C3985 C3983 1.433 . S
C3985 N3988 1.384 . S
C3986 H3977 0.929 . S
C3986 C3978 1.378 . S
C3986 C3981 1.350 . S
C3987 H3974 0.929 . S
C3987 C3979 1.433 . S
C3987 N3989 1.384 . S
N3988 C3984 1.427 . S
N3988 C3985 1.384 . S
N3989 C3981 1.427 . S
N3989 C3987 1.384 . S
H3990 C3996 0.930 . S
H3991 C4000 0.930 . S
H3992 C4005 0.929 . S
H3993 C4003 0.929 . S
H3994 C3998 0.906 1_556 S
H3995 C4004 0.929 . S
C3996 H3990 0.930 . S
C3996 C3997 1.367 . S
C3996 C4004 1.378 1_556 S
C3997 C3996 1.367 . S
C3997 C4005 1.433 . S
C3998 H3994 0.906 1_554 S
C3998 C4000 1.392 . S
C3998 C4002 1.358 . S
C3999 C4002 1.463 1_556 S
C3999 C4004 1.350 1_556 S
C3999 N4007 1.427 . S
C4000 H3991 0.930 . S
C4000 C3998 1.392 . S
C4000 C4001 1.367 . S
C4001 C4000 1.367 . S
C4001 C4003 1.433 . S
C4002 C3998 1.358 . S
C4002 C3999 1.463 1_554 S
C4002 N4006 1.427 . S
C4003 H3993 0.929 . S
C4003 C4001 1.433 . S
C4003 N4006 1.384 . S
C4004 H3995 0.929 . S
C4004 C3996 1.378 1_554 S
C4004 C3999 1.350 1_554 S
C4005 H3992 0.929 . S
C4005 C3997 1.433 . S
C4005 N4007 1.384 . S
N4006 C4002 1.427 . S
N4006 C4003 1.384 . S
N4007 C3999 1.427 . S
N4007 C4005 1.384 . S
H4008 C4014 0.930 . S
H4009 C4018 0.930 . S
H4010 C4023 0.929 . S
H4011 C4021 0.929 . S
H4012 C4016 0.929 . S
H4013 C4022 0.929 . S
C4014 H4008 0.930 . S
C4014 C4015 1.367 . S
C4014 C4022 1.378 . S
C4015 C4014 1.367 . S
C4015 C4023 1.433 . S
C4016 H4012 0.929 . S
C4016 C4018 1.378 . S
C4016 C4020 1.350 . S
C4017 C4020 1.463 1_655 S
C4017 C4022 1.350 . S
C4017 N4025 1.435 . S
C4018 H4009 0.930 . S
C4018 C4016 1.378 . S
C4018 C4019 1.367 . S
C4019 C4018 1.367 . S
C4019 C4021 1.433 . S
C4020 C4016 1.350 . S
C4020 C4017 1.463 1_455 S
C4020 N4024 1.427 1_455 S
C4021 H4011 0.929 . S
C4021 C4019 1.433 . S
C4021 N4024 1.384 1_455 S
C4022 H4013 0.929 . S
C4022 C4014 1.378 . S
C4022 C4017 1.350 . S
C4023 H4010 0.929 . S
C4023 C4015 1.433 . S
C4023 N4025 1.396 . S
N4024 C4020 1.427 1_655 S
N4024 C4021 1.384 1_655 S
N4025 C4017 1.435 . S
N4025 C4023 1.396 . S
H4026 C4032 0.930 . S
H4027 C4036 0.930 . S
H4028 C4041 0.929 . S
H4029 C4039 0.929 . S
H4030 C4034 0.929 . S
H4031 C4040 0.929 . S
C4032 H4026 0.930 . S
C4032 C4033 1.367 . S
C4032 C4040 1.378 . S
C4033 C4032 1.367 . S
C4033 C4041 1.433 . S
C4034 H4030 0.929 . S
C4034 C4036 1.378 . S
C4034 C4038 1.350 . S
C4035 C4038 1.463 . S
C4035 C4040 1.350 . S
C4035 N4043 1.427 . S
C4036 H4027 0.930 . S
C4036 C4034 1.378 . S
C4036 C4037 1.367 . S
C4037 C4036 1.367 . S
C4037 C4039 1.433 . S
C4038 C4034 1.350 . S
C4038 C4035 1.463 . S
C4038 N4042 1.427 . S
C4039 H4029 0.929 . S
C4039 C4037 1.433 . S
C4039 N4042 1.384 . S
C4040 H4031 0.929 . S
C4040 C4032 1.378 . S
C4040 C4035 1.350 . S
C4041 H4028 0.929 . S
C4041 C4033 1.433 . S
C4041 N4043 1.384 . S
N4042 C4038 1.427 . S
N4042 C4039 1.384 . S
N4043 C4035 1.427 . S
N4043 C4041 1.384 . S
H4044 C4050 0.930 . S
H4045 C4054 0.930 . S
H4046 C4059 0.929 . S
H4047 C4057 0.929 . S
H4048 C4052 0.929 . S
H4049 C4058 0.929 . S
C4050 H4044 0.930 . S
C4050 C4051 1.367 . S
C4050 C4058 1.378 . S
C4051 C4050 1.367 . S
C4051 C4059 1.433 . S
C4052 H4048 0.929 . S
C4052 C4054 1.378 . S
C4052 C4056 1.350 . S
C4053 C4056 1.463 . S
C4053 C4058 1.350 . S
C4053 N4061 1.427 . S
C4054 H4045 0.930 . S
C4054 C4052 1.378 . S
C4054 C4055 1.367 . S
C4055 C4054 1.367 . S
C4055 C4057 1.433 . S
C4056 C4052 1.350 . S
C4056 C4053 1.463 . S
C4056 N4060 1.427 . S
C4057 H4047 0.929 . S
C4057 C4055 1.433 . S
C4057 N4060 1.384 . S
C4058 H4049 0.929 . S
C4058 C4050 1.378 . S
C4058 C4053 1.350 . S
C4059 H4046 0.929 . S
C4059 C4051 1.433 . S
C4059 N4061 1.384 . S
N4060 C4056 1.427 . S
N4060 C4057 1.384 . S
N4061 C4053 1.427 . S
N4061 C4059 1.384 . S
H4062 C4068 0.930 . S
H4063 C4072 0.930 . S
H4064 C4077 0.929 . S
H4065 C4075 0.929 . S
H4066 C4070 0.929 . S
H4067 C4076 0.929 . S
C4068 H4062 0.930 . S
C4068 C4069 1.367 . S
C4068 C4076 1.378 . S
C4069 C4068 1.367 . S
C4069 C4077 1.433 . S
C4070 H4066 0.929 . S
C4070 C4072 1.378 . S
C4070 C4074 1.350 . S
C4071 C4074 1.463 1_556 S
C4071 C4076 1.350 . S
C4071 N4079 1.427 . S
C4072 H4063 0.930 . S
C4072 C4070 1.378 . S
C4072 C4073 1.367 . S
C4073 C4072 1.367 . S
C4073 C4075 1.433 . S
C4074 C4070 1.350 . S
C4074 C4071 1.463 1_554 S
C4074 N4078 1.427 . S
C4075 H4065 0.929 . S
C4075 C4073 1.433 . S
C4075 N4078 1.384 . S
C4076 H4067 0.929 . S
C4076 C4068 1.378 . S
C4076 C4071 1.350 . S
C4077 H4064 0.929 . S
C4077 C4069 1.433 . S
C4077 N4079 1.384 . S
N4078 C4074 1.427 . S
N4078 C4075 1.384 . S
N4079 C4071 1.427 . S
N4079 C4077 1.384 . S
H4080 C4086 0.930 . S
H4081 C4090 0.930 . S
H4082 C4095 0.929 . S
H4083 C4093 0.929 . S
H4084 C4088 0.929 . S
H4085 C4094 0.898 1_565 S
C4086 H4080 0.930 . S
C4086 C4087 1.367 . S
C4086 C4094 1.378 . S
C4087 C4086 1.367 . S
C4087 C4095 1.433 . S
C4088 H4084 0.929 . S
C4088 C4090 1.378 . S
C4088 C4092 1.350 . S
C4089 C4092 1.463 1_545 S
C4089 C4094 1.350 . S
C4089 N4097 1.427 . S
C4090 H4081 0.930 . S
C4090 C4088 1.378 . S
C4090 C4091 1.367 . S
C4091 C4090 1.367 . S
C4091 C4093 1.433 . S
C4092 C4088 1.350 . S
C4092 C4089 1.463 1_565 S
C4092 N4096 1.427 . S
C4093 H4083 0.929 . S
C4093 C4091 1.433 . S
C4093 N4096 1.384 . S
C4094 H4085 0.898 1_545 S
C4094 C4086 1.378 . S
C4094 C4089 1.350 . S
C4095 H4082 0.929 . S
C4095 C4087 1.433 . S
C4095 N4097 1.384 . S
N4096 C4092 1.427 . S
N4096 C4093 1.384 . S
N4097 C4089 1.427 . S
N4097 C4095 1.384 . S
H4098 C4104 0.930 . S
H4099 C4108 0.930 . S
H4100 C4113 0.929 . S
H4101 C4111 0.929 . S
H4102 C4106 0.929 1_545 S
H4103 C4112 0.929 1_565 S
C4104 H4098 0.930 . S
C4104 C4105 1.367 . S
C4104 C4112 1.378 . S
C4105 C4104 1.367 . S
C4105 C4113 1.433 . S
C4106 H4102 0.929 1_565 S
C4106 C4108 1.378 . S
C4106 C4110 1.350 . S
C4107 C4110 1.463 1_545 S
C4107 C4112 1.350 . S
C4107 N4115 1.427 . S
C4108 H4099 0.930 . S
C4108 C4106 1.378 . S
C4108 C4109 1.367 . S
C4109 C4108 1.367 . S
C4109 C4111 1.433 . S
C4110 C4106 1.350 . S
C4110 C4107 1.463 1_565 S
C4110 N4114 1.427 . S
C4111 H4101 0.929 . S
C4111 C4109 1.433 . S
C4111 N4114 1.384 . S
C4112 H4103 0.929 1_545 S
C4112 C4104 1.378 . S
C4112 C4107 1.350 . S
C4113 H4100 0.929 . S
C4113 C4105 1.433 . S
C4113 N4115 1.384 . S
N4114 C4110 1.427 . S
N4114 C4111 1.384 . S
N4115 C4107 1.427 . S
N4115 C4113 1.384 . S
H4116 C4122 0.930 . S
H4117 C4126 0.930 . S
H4118 C4131 0.929 . S
H4119 C4129 0.929 . S
H4120 C4124 0.929 . S
H4121 C4130 0.929 . S
C4122 H4116 0.930 . S
C4122 C4123 1.367 . S
C4122 C4130 1.378 . S
C4123 C4122 1.367 . S
C4123 C4131 1.433 . S
C4124 H4120 0.929 . S
C4124 C4126 1.378 . S
C4124 C4128 1.350 . S
C4125 C4128 1.463 1_565 S
C4125 C4130 1.350 . S
C4125 N4133 1.427 . S
C4126 H4117 0.930 . S
C4126 C4124 1.378 . S
C4126 C4127 1.367 . S
C4127 C4126 1.367 . S
C4127 C4129 1.433 . S
C4128 C4124 1.350 . S
C4128 C4125 1.463 1_545 S
C4128 N4132 1.427 . S
C4129 H4119 0.929 . S
C4129 C4127 1.433 . S
C4129 N4132 1.384 . S
C4130 H4121 0.929 . S
C4130 C4122 1.378 . S
C4130 C4125 1.350 . S
C4131 H4118 0.929 . S
C4131 C4123 1.433 . S
C4131 N4133 1.384 . S
N4132 C4128 1.427 . S
N4132 C4129 1.384 . S
N4133 C4125 1.427 . S
N4133 C4131 1.384 . S
H4134 C4140 0.930 . S
H4135 C4144 0.930 . S
H4136 C4149 0.929 . S
H4137 C4147 0.929 . S
H4138 C4142 0.929 1_545 S
H4139 C4148 0.929 1_565 S
C4140 H4134 0.930 . S
C4140 C4141 1.367 . S
C4140 C4148 1.378 . S
C4141 C4140 1.367 . S
C4141 C4149 1.433 . S
C4142 H4138 0.929 1_565 S
C4142 C4144 1.378 . S
C4142 C4146 1.350 . S
C4143 C4146 1.463 1_545 S
C4143 C4148 1.350 . S
C4143 N4151 1.427 . S
C4144 H4135 0.930 . S
C4144 C4142 1.378 . S
C4144 C4145 1.367 . S
C4145 C4144 1.367 . S
C4145 C4147 1.433 . S
C4146 C4142 1.350 . S
C4146 C4143 1.463 1_565 S
C4146 N4150 1.427 . S
C4147 H4137 0.929 . S
C4147 C4145 1.433 . S
C4147 N4150 1.384 . S
C4148 H4139 0.929 1_545 S
C4148 C4140 1.378 . S
C4148 C4143 1.350 . S
C4149 H4136 0.929 . S
C4149 C4141 1.433 . S
C4149 N4151 1.384 . S
N4150 C4146 1.427 . S
N4150 C4147 1.384 . S
N4151 C4143 1.427 . S
N4151 C4149 1.384 . S
H4152 C4158 0.930 . S
H4153 C4162 0.930 . S
H4154 C4167 0.929 . S
H4155 C4165 0.929 . S
H4156 C4160 0.929 . S
H4157 C4166 0.929 . S
C4158 H4152 0.930 . S
C4158 C4159 1.367 . S
C4158 C4166 1.378 . S
C4159 C4158 1.367 . S
C4159 C4167 1.433 . S
C4160 H4156 0.929 . S
C4160 C4162 1.378 . S
C4160 C4164 1.350 . S
C4161 C4164 1.463 1_554 S
C4161 C4166 1.350 . S
C4161 N4169 1.427 . S
C4162 H4153 0.930 . S
C4162 C4160 1.378 . S
C4162 C4163 1.367 . S
C4163 C4162 1.367 . S
C4163 C4165 1.433 . S
C4164 C4160 1.350 . S
C4164 C4161 1.463 1_556 S
C4164 N4168 1.427 . S
C4165 H4155 0.929 . S
C4165 C4163 1.433 . S
C4165 N4168 1.384 . S
C4166 H4157 0.929 . S
C4166 C4158 1.378 . S
C4166 C4161 1.350 . S
C4167 H4154 0.929 . S
C4167 C4159 1.433 . S
C4167 N4169 1.384 . S
N4168 C4164 1.427 . S
N4168 C4165 1.384 . S
N4169 C4161 1.427 . S
N4169 C4167 1.384 . S
H4170 C4176 0.930 . S
H4171 C4180 0.930 . S
H4172 C4185 0.929 . S
H4173 C4183 0.929 . S
H4174 C4178 0.929 . S
H4175 C4184 0.929 . S
C4176 H4170 0.930 . S
C4176 C4177 1.367 . S
C4176 C4184 1.378 . S
C4177 C4176 1.367 . S
C4177 C4185 1.433 . S
C4178 H4174 0.929 . S
C4178 C4180 1.378 . S
C4178 C4182 1.350 . S
C4179 C4182 1.463 1_455 S
C4179 C4184 1.350 . S
C4179 N4187 1.427 . S
C4180 H4171 0.930 . S
C4180 C4178 1.378 . S
C4180 C4181 1.367 . S
C4181 C4180 1.367 . S
C4181 C4183 1.433 . S
C4182 C4178 1.350 . S
C4182 C4179 1.463 1_655 S
C4182 N4186 1.427 . S
C4183 H4173 0.929 . S
C4183 C4181 1.433 . S
C4183 N4186 1.384 . S
C4184 H4175 0.929 . S
C4184 C4176 1.378 . S
C4184 C4179 1.350 . S
C4185 H4172 0.929 . S
C4185 C4177 1.433 . S
C4185 N4187 1.384 . S
N4186 C4182 1.427 . S
N4186 C4183 1.384 . S
N4187 C4179 1.427 . S
N4187 C4185 1.384 . S
H4188 C4194 0.930 . S
H4189 C4198 0.930 . S
H4190 C4203 0.929 . S
H4191 C4201 0.929 . S
H4192 C4196 0.929 . S
H4193 C4202 0.929 . S
C4194 H4188 0.930 . S
C4194 C4195 1.367 . S
C4194 C4202 1.378 . S
C4195 C4194 1.367 . S
C4195 C4203 1.433 . S
C4196 H4192 0.929 . S
C4196 C4198 1.378 . S
C4196 C4200 1.350 . S
C4197 C4200 1.463 . S
C4197 C4202 1.350 . S
C4197 N4205 1.427 . S
C4198 H4189 0.930 . S
C4198 C4196 1.378 . S
C4198 C4199 1.367 . S
C4199 C4198 1.367 . S
C4199 C4201 1.433 . S
C4200 C4196 1.350 . S
C4200 C4197 1.463 . S
C4200 N4204 1.427 . S
C4201 H4191 0.929 . S
C4201 C4199 1.433 . S
C4201 N4204 1.384 . S
C4202 H4193 0.929 . S
C4202 C4194 1.378 . S
C4202 C4197 1.350 . S
C4203 H4190 0.929 . S
C4203 C4195 1.433 . S
C4203 N4205 1.384 . S
N4204 C4200 1.427 . S
N4204 C4201 1.384 . S
N4205 C4197 1.427 . S
N4205 C4203 1.384 . S
H4206 C4212 0.930 . S
H4207 C4216 0.930 . S
H4208 C4221 0.929 . S
H4209 C4219 0.929 . S
H4210 C4214 0.929 . S
H4211 C4220 0.929 . S
C4212 H4206 0.930 . S
C4212 C4213 1.367 . S
C4212 C4220 1.378 . S
C4213 C4212 1.367 . S
C4213 C4221 1.433 . S
C4214 H4210 0.929 . S
C4214 C4216 1.378 . S
C4214 C4218 1.350 . S
C4215 C4218 1.463 1_655 S
C4215 C4220 1.350 . S
C4215 N4223 1.427 . S
C4216 H4207 0.930 . S
C4216 C4214 1.378 . S
C4216 C4217 1.367 . S
C4217 C4216 1.367 . S
C4217 C4219 1.433 . S
C4218 C4214 1.350 . S
C4218 C4215 1.463 1_455 S
C4218 N4222 1.427 . S
C4219 H4209 0.929 . S
C4219 C4217 1.433 . S
C4219 N4222 1.384 . S
C4220 H4211 0.929 . S
C4220 C4212 1.378 . S
C4220 C4215 1.350 . S
C4221 H4208 0.929 . S
C4221 C4213 1.433 . S
C4221 N4223 1.384 . S
N4222 C4218 1.427 . S
N4222 C4219 1.384 . S
N4223 C4215 1.427 . S
N4223 C4221 1.384 . S
H4224 C4230 0.930 . S
H4225 C4234 0.930 . S
H4226 C4239 0.929 . S
H4227 C4237 0.929 . S
H4228 C4232 0.929 . S
H4229 C4238 0.929 . S
C4230 H4224 0.930 . S
C4230 C4231 1.367 . S
C4230 C4238 1.378 . S
C4231 C4230 1.367 . S
C4231 C4239 1.433 . S
C4232 H4228 0.929 . S
C4232 C4234 1.378 . S
C4232 C4236 1.350 . S
C4233 C4236 1.463 . S
C4233 C4238 1.350 . S
C4233 N4241 1.427 . S
C4234 H4225 0.930 . S
C4234 C4232 1.378 . S
C4234 C4235 1.367 . S
C4235 C4234 1.367 . S
C4235 C4237 1.433 . S
C4236 C4232 1.350 . S
C4236 C4233 1.463 . S
C4236 N4240 1.427 . S
C4237 H4227 0.929 . S
C4237 C4235 1.433 . S
C4237 N4240 1.384 . S
C4238 H4229 0.929 . S
C4238 C4230 1.378 . S
C4238 C4233 1.350 . S
C4239 H4226 0.929 . S
C4239 C4231 1.433 . S
C4239 N4241 1.384 . S
N4240 C4236 1.427 . S
N4240 C4237 1.384 . S
N4241 C4233 1.427 . S
N4241 C4239 1.384 . S
H4242 C4248 0.930 . S
H4243 C4252 0.930 . S
H4244 C4257 0.929 . S
H4245 C4255 0.929 . S
H4246 C4250 0.865 1_655 S
H4247 C4256 0.929 . S
C4248 H4242 0.930 . S
C4248 C4249 1.367 . S
C4248 C4256 1.378 1_655 S
C4249 C4248 1.367 . S
C4249 C4257 1.433 . S
C4250 H4246 0.865 1_455 S
C4250 C4252 1.422 . S
C4250 C4254 1.373 . S
C4251 C4254 1.463 1_655 S
C4251 C4256 1.350 1_655 S
C4251 N4259 1.427 . S
C4252 H4243 0.930 . S
C4252 C4250 1.422 . S
C4252 C4253 1.367 . S
C4253 C4252 1.367 . S
C4253 C4255 1.433 . S
C4254 C4250 1.373 . S
C4254 C4251 1.463 1_455 S
C4254 N4258 1.427 . S
C4255 H4245 0.929 . S
C4255 C4253 1.433 . S
C4255 N4258 1.384 . S
C4256 H4247 0.929 . S
C4256 C4248 1.378 1_455 S
C4256 C4251 1.350 1_455 S
C4257 H4244 0.929 . S
C4257 C4249 1.433 . S
C4257 N4259 1.384 . S
N4258 C4254 1.427 . S
N4258 C4255 1.384 . S
N4259 C4251 1.427 . S
N4259 C4257 1.384 . S
H4260 C4266 0.930 . S
H4261 C4270 0.930 . S
H4262 C4275 0.929 . S
H4263 C4273 0.929 . S
H4264 C4268 0.929 . S
H4265 C4274 0.929 . S
C4266 H4260 0.930 . S
C4266 C4267 1.367 . S
C4266 C4274 1.378 . S
C4267 C4266 1.367 . S
C4267 C4275 1.433 . S
C4268 H4264 0.929 . S
C4268 C4270 1.378 . S
C4268 C4272 1.350 . S
C4269 C4272 1.463 . S
C4269 C4274 1.350 . S
C4269 N4277 1.427 . S
C4270 H4261 0.930 . S
C4270 C4268 1.378 . S
C4270 C4271 1.367 . S
C4271 C4270 1.367 . S
C4271 C4273 1.433 . S
C4272 C4268 1.350 . S
C4272 C4269 1.463 . S
C4272 N4276 1.427 . S
C4273 H4263 0.929 . S
C4273 C4271 1.433 . S
C4273 N4276 1.384 . S
C4274 H4265 0.929 . S
C4274 C4266 1.378 . S
C4274 C4269 1.350 . S
C4275 H4262 0.929 . S
C4275 C4267 1.433 . S
C4275 N4277 1.384 . S
N4276 C4272 1.427 . S
N4276 C4273 1.384 . S
N4277 C4269 1.427 . S
N4277 C4275 1.384 . S
H4278 C4284 0.930 . S
H4279 C4288 0.930 . S
H4280 C4293 0.929 . S
H4281 C4291 0.929 . S
H4282 C4286 0.929 . S
H4283 C4292 0.929 . S
C4284 H4278 0.930 . S
C4284 C4285 1.367 . S
C4284 C4292 1.378 . S
C4285 C4284 1.367 . S
C4285 C4293 1.433 . S
C4286 H4282 0.929 . S
C4286 C4288 1.378 . S
C4286 C4290 1.350 . S
C4287 C4290 1.463 . S
C4287 C4292 1.350 . S
C4287 N4295 1.427 . S
C4288 H4279 0.930 . S
C4288 C4286 1.378 . S
C4288 C4289 1.367 . S
C4289 C4288 1.367 . S
C4289 C4291 1.433 . S
C4290 C4286 1.350 . S
C4290 C4287 1.463 . S
C4290 N4294 1.427 . S
C4291 H4281 0.929 . S
C4291 C4289 1.433 . S
C4291 N4294 1.384 . S
C4292 H4283 0.929 . S
C4292 C4284 1.378 . S
C4292 C4287 1.350 . S
C4293 H4280 0.929 . S
C4293 C4285 1.433 . S
C4293 N4295 1.384 . S
N4294 C4290 1.427 . S
N4294 C4291 1.384 . S
N4295 C4287 1.427 . S
N4295 C4293 1.384 . S
H4296 C4302 0.930 . S
H4297 C4306 0.930 . S
H4298 C4311 0.929 . S
H4299 C4309 0.929 . S
H4300 C4304 0.929 1_554 S
H4301 C4310 0.946 . S
C4302 H4296 0.930 . S
C4302 C4303 1.367 . S
C4302 C4310 1.366 1_554 S
C4303 C4302 1.367 . S
C4303 C4311 1.433 . S
C4304 H4300 0.929 1_556 S
C4304 C4306 1.378 . S
C4304 C4308 1.350 . S
C4305 C4308 1.463 1_554 S
C4305 C4310 1.345 1_554 S
C4305 N4313 1.427 . S
C4306 H4297 0.930 . S
C4306 C4304 1.378 . S
C4306 C4307 1.367 . S
C4307 C4306 1.367 . S
C4307 C4309 1.433 . S
C4308 C4304 1.350 . S
C4308 C4305 1.463 1_556 S
C4308 N4312 1.427 . S
C4309 H4299 0.929 . S
C4309 C4307 1.433 . S
C4309 N4312 1.384 . S
C4310 H4301 0.946 . S
C4310 C4302 1.366 1_556 S
C4310 C4305 1.345 1_556 S
C4311 H4298 0.929 . S
C4311 C4303 1.433 . S
C4311 N4313 1.384 . S
N4312 C4308 1.427 . S
N4312 C4309 1.384 . S
N4313 C4305 1.427 . S
N4313 C4311 1.384 . S
H4314 C4320 0.930 . S
H4315 C4324 0.930 . S
H4316 C4329 0.929 . S
H4317 C4327 0.929 . S
H4318 C4322 0.929 . S
H4319 C4328 0.929 . S
C4320 H4314 0.930 . S
C4320 C4321 1.367 . S
C4320 C4328 1.378 . S
C4321 C4320 1.367 . S
C4321 C4329 1.433 . S
C4322 H4318 0.929 . S
C4322 C4324 1.378 . S
C4322 C4326 1.350 . S
C4323 C4326 1.463 1_655 S
C4323 C4328 1.350 . S
C4323 N4331 1.427 1_655 S
C4324 H4315 0.930 . S
C4324 C4322 1.378 . S
C4324 C4325 1.367 . S
C4325 C4324 1.367 . S
C4325 C4327 1.433 . S
C4326 C4322 1.350 . S
C4326 C4323 1.463 1_455 S
C4326 N4330 1.442 . S
C4327 H4317 0.929 . S
C4327 C4325 1.433 . S
C4327 N4330 1.408 . S
C4328 H4319 0.929 . S
C4328 C4320 1.378 . S
C4328 C4323 1.350 . S
C4329 H4316 0.929 . S
C4329 C4321 1.433 . S
C4329 N4331 1.384 1_655 S
N4330 C4326 1.442 . S
N4330 C4327 1.408 . S
N4331 C4323 1.427 1_455 S
N4331 C4329 1.384 1_455 S
H4332 C4338 0.930 . S
H4333 C4342 0.930 . S
H4334 C4347 0.929 . S
H4335 C4345 0.929 . S
H4336 C4340 0.929 . S
H4337 C4346 0.929 . S
C4338 H4332 0.930 . S
C4338 C4339 1.367 . S
C4338 C4346 1.378 . S
C4339 C4338 1.367 . S
C4339 C4347 1.433 . S
C4340 H4336 0.929 . S
C4340 C4342 1.378 . S
C4340 C4344 1.350 . S
C4341 C4344 1.463 . S
C4341 C4346 1.350 . S
C4341 N4349 1.427 . S
C4342 H4333 0.930 . S
C4342 C4340 1.378 . S
C4342 C4343 1.367 . S
C4343 C4342 1.367 . S
C4343 C4345 1.433 . S
C4344 C4340 1.350 . S
C4344 C4341 1.463 . S
C4344 N4348 1.427 . S
C4345 H4335 0.929 . S
C4345 C4343 1.433 . S
C4345 N4348 1.384 . S
C4346 H4337 0.929 . S
C4346 C4338 1.378 . S
C4346 C4341 1.350 . S
C4347 H4334 0.929 . S
C4347 C4339 1.433 . S
C4347 N4349 1.384 . S
N4348 C4344 1.427 . S
N4348 C4345 1.384 . S
N4349 C4341 1.427 . S
N4349 C4347 1.384 . S
H4350 C4356 0.930 . S
H4351 C4360 0.930 . S
H4352 C4365 0.929 . S
H4353 C4363 0.929 . S
H4354 C4358 0.929 . S
H4355 C4364 0.929 . S
C4356 H4350 0.930 . S
C4356 C4357 1.367 . S
C4356 C4364 1.378 . S
C4357 C4356 1.367 . S
C4357 C4365 1.433 . S
C4358 H4354 0.929 . S
C4358 C4360 1.378 . S
C4358 C4362 1.350 . S
C4359 C4362 1.463 . S
C4359 C4364 1.350 . S
C4359 N4367 1.427 . S
C4360 H4351 0.930 . S
C4360 C4358 1.378 . S
C4360 C4361 1.367 . S
C4361 C4360 1.367 . S
C4361 C4363 1.433 . S
C4362 C4358 1.350 . S
C4362 C4359 1.463 . S
C4362 N4366 1.427 . S
C4363 H4353 0.929 . S
C4363 C4361 1.433 . S
C4363 N4366 1.384 . S
C4364 H4355 0.929 . S
C4364 C4356 1.378 . S
C4364 C4359 1.350 . S
C4365 H4352 0.929 . S
C4365 C4357 1.433 . S
C4365 N4367 1.384 . S
N4366 C4362 1.427 . S
N4366 C4363 1.384 . S
N4367 C4359 1.427 . S
N4367 C4365 1.384 . S
H4368 C4374 0.930 . S
H4369 C4378 0.930 . S
H4370 C4383 0.929 . S
H4371 C4381 0.929 . S
H4372 C4376 0.929 1_554 S
H4373 C4382 0.889 1_556 S
C4374 H4368 0.930 . S
C4374 C4375 1.367 . S
C4374 C4382 1.378 . S
C4375 C4374 1.367 . S
C4375 C4383 1.433 . S
C4376 H4372 0.929 1_556 S
C4376 C4378 1.378 . S
C4376 C4380 1.350 . S
C4377 C4380 1.463 1_554 S
C4377 C4382 1.350 . S
C4377 N4385 1.427 . S
C4378 H4369 0.930 . S
C4378 C4376 1.378 . S
C4378 C4379 1.367 . S
C4379 C4378 1.367 . S
C4379 C4381 1.433 . S
C4380 C4376 1.350 . S
C4380 C4377 1.463 1_556 S
C4380 N4384 1.427 . S
C4381 H4371 0.929 . S
C4381 C4379 1.433 . S
C4381 N4384 1.384 . S
C4382 H4373 0.889 1_554 S
C4382 C4374 1.378 . S
C4382 C4377 1.350 . S
C4383 H4370 0.929 . S
C4383 C4375 1.433 . S
C4383 N4385 1.384 . S
N4384 C4380 1.427 . S
N4384 C4381 1.384 . S
N4385 C4377 1.427 . S
N4385 C4383 1.384 . S
H4386 C4392 0.930 . S
H4387 C4396 0.930 . S
H4388 C4401 0.929 . S
H4389 C4399 0.929 . S
H4390 C4394 0.929 1_565 S
H4391 C4400 0.991 . S
C4392 H4386 0.930 . S
C4392 C4393 1.367 . S
C4392 C4400 1.337 1_565 S
C4393 C4392 1.367 . S
C4393 C4401 1.433 . S
C4394 H4390 0.929 1_545 S
C4394 C4396 1.378 . S
C4394 C4398 1.350 . S
C4395 C4398 1.463 1_565 S
C4395 C4400 1.330 1_565 S
C4395 N4403 1.427 . S
C4396 H4387 0.930 . S
C4396 C4394 1.378 . S
C4396 C4397 1.367 . S
C4397 C4396 1.367 . S
C4397 C4399 1.433 . S
C4398 C4394 1.350 . S
C4398 C4395 1.463 1_545 S
C4398 N4402 1.427 . S
C4399 H4389 0.929 . S
C4399 C4397 1.433 . S
C4399 N4402 1.384 . S
C4400 H4391 0.991 . S
C4400 C4392 1.337 1_545 S
C4400 C4395 1.330 1_545 S
C4401 H4388 0.929 . S
C4401 C4393 1.433 . S
C4401 N4403 1.384 . S
N4402 C4398 1.427 . S
N4402 C4399 1.384 . S
N4403 C4395 1.427 . S
N4403 C4401 1.384 . S
H4404 C4410 0.930 . S
H4405 C4414 0.930 . S
H4406 C4419 0.929 . S
H4407 C4417 0.929 . S
H4408 C4412 0.929 . S
H4409 C4418 0.929 . S
C4410 H4404 0.930 . S
C4410 C4411 1.367 . S
C4410 C4418 1.378 . S
C4411 C4410 1.367 . S
C4411 C4419 1.433 . S
C4412 H4408 0.929 . S
C4412 C4414 1.378 . S
C4412 C4416 1.350 . S
C4413 C4416 1.463 1_565 S
C4413 C4418 1.350 . S
C4413 N4421 1.427 . S
C4414 H4405 0.930 . S
C4414 C4412 1.378 . S
C4414 C4415 1.367 . S
C4415 C4414 1.367 . S
C4415 C4417 1.433 . S
C4416 C4412 1.350 . S
C4416 C4413 1.463 1_545 S
C4416 N4420 1.427 . S
C4417 H4407 0.929 . S
C4417 C4415 1.433 . S
C4417 N4420 1.384 . S
C4418 H4409 0.929 . S
C4418 C4410 1.378 . S
C4418 C4413 1.350 . S
C4419 H4406 0.929 . S
C4419 C4411 1.433 . S
C4419 N4421 1.384 . S
N4420 C4416 1.427 . S
N4420 C4417 1.384 . S
N4421 C4413 1.427 . S
N4421 C4419 1.384 . S
H4422 C4428 0.930 . S
H4423 C4432 0.930 . S
H4424 C4437 0.929 . S
H4425 C4435 0.929 . S
H4426 C4430 0.929 . S
H4427 C4436 0.929 . S
C4428 H4422 0.930 . S
C4428 C4429 1.367 . S
C4428 C4436 1.378 . S
C4429 C4428 1.367 . S
C4429 C4437 1.433 . S
C4430 H4426 0.929 . S
C4430 C4432 1.378 . S
C4430 C4434 1.350 . S
C4431 C4434 1.463 1_565 S
C4431 C4436 1.350 . S
C4431 N4439 1.427 . S
C4432 H4423 0.930 . S
C4432 C4430 1.378 . S
C4432 C4433 1.367 . S
C4433 C4432 1.367 . S
C4433 C4435 1.433 . S
C4434 C4430 1.350 . S
C4434 C4431 1.463 1_545 S
C4434 N4438 1.434 . S
C4435 H4425 0.929 . S
C4435 C4433 1.433 . S
C4435 N4438 1.399 . S
C4436 H4427 0.929 . S
C4436 C4428 1.378 . S
C4436 C4431 1.350 . S
C4437 H4424 0.929 . S
C4437 C4429 1.433 . S
C4437 N4439 1.384 . S
N4438 C4434 1.434 . S
N4438 C4435 1.399 . S
N4439 C4431 1.427 . S
N4439 C4437 1.384 . S
H4440 C4446 0.930 . S
H4441 C4450 0.930 . S
H4442 C4455 0.929 . S
H4443 C4453 0.929 . S
H4444 C4448 0.929 . S
H4445 C4454 0.929 . S
C4446 H4440 0.930 . S
C4446 C4447 1.367 . S
C4446 C4454 1.378 . S
C4447 C4446 1.367 . S
C4447 C4455 1.433 . S
C4448 H4444 0.929 . S
C4448 C4450 1.378 . S
C4448 C4452 1.350 . S
C4449 C4452 1.463 1_545 S
C4449 C4454 1.350 . S
C4449 N4457 1.427 . S
C4450 H4441 0.930 . S
C4450 C4448 1.378 . S
C4450 C4451 1.367 . S
C4451 C4450 1.367 . S
C4451 C4453 1.433 . S
C4452 C4448 1.350 . S
C4452 C4449 1.463 1_565 S
C4452 N4456 1.427 . S
C4453 H4443 0.929 . S
C4453 C4451 1.433 . S
C4453 N4456 1.384 . S
C4454 H4445 0.929 . S
C4454 C4446 1.378 . S
C4454 C4449 1.350 . S
C4455 H4442 0.929 . S
C4455 C4447 1.433 . S
C4455 N4457 1.384 . S
N4456 C4452 1.427 . S
N4456 C4453 1.384 . S
N4457 C4449 1.427 . S
N4457 C4455 1.384 . S
H4458 C4464 0.930 . S
H4459 C4468 0.930 . S
H4460 C4473 0.929 . S
H4461 C4471 0.929 . S
H4462 C4466 0.929 . S
H4463 C4472 0.929 . S
C4464 H4458 0.930 . S
C4464 C4465 1.367 . S
C4464 C4472 1.378 . S
C4465 C4464 1.367 . S
C4465 C4473 1.433 . S
C4466 H4462 0.929 . S
C4466 C4468 1.378 . S
C4466 C4470 1.350 . S
C4467 C4470 1.463 1_556 S
C4467 C4472 1.350 . S
C4467 N4475 1.427 . S
C4468 H4459 0.930 . S
C4468 C4466 1.378 . S
C4468 C4469 1.367 . S
C4469 C4468 1.367 . S
C4469 C4471 1.433 . S
C4470 C4466 1.350 . S
C4470 C4467 1.463 1_554 S
C4470 N4474 1.424 1_554 S
C4471 H4461 0.929 . S
C4471 C4469 1.433 . S
C4471 N4474 1.377 1_554 S
C4472 H4463 0.929 . S
C4472 C4464 1.378 . S
C4472 C4467 1.350 . S
C4473 H4460 0.929 . S
C4473 C4465 1.433 . S
C4473 N4475 1.384 . S
N4474 C4470 1.424 1_556 S
N4474 C4471 1.377 1_556 S
N4475 C4467 1.427 . S
N4475 C4473 1.384 . S
H4476 C4482 0.930 . S
H4477 C4486 0.930 . S
H4478 C4491 0.929 . S
H4479 C4489 0.929 . S
H4480 C4484 0.929 . S
H4481 C4490 0.929 . S
C4482 H4476 0.930 . S
C4482 C4483 1.367 . S
C4482 C4490 1.378 . S
C4483 C4482 1.367 . S
C4483 C4491 1.433 . S
C4484 H4480 0.929 . S
C4484 C4486 1.378 . S
C4484 C4488 1.350 . S
C4485 C4488 1.463 1_655 S
C4485 C4490 1.350 . S
C4485 N4493 1.427 . S
C4486 H4477 0.930 . S
C4486 C4484 1.378 . S
C4486 C4487 1.367 . S
C4487 C4486 1.367 . S
C4487 C4489 1.433 . S
C4488 C4484 1.350 . S
C4488 C4485 1.463 1_455 S
C4488 N4492 1.413 1_455 S
C4489 H4479 0.929 . S
C4489 C4487 1.433 . S
C4489 N4492 1.355 1_455 S
C4490 H4481 0.929 . S
C4490 C4482 1.378 . S
C4490 C4485 1.350 . S
C4491 H4478 0.929 . S
C4491 C4483 1.433 . S
C4491 N4493 1.384 . S
N4492 C4488 1.413 1_655 S
N4492 C4489 1.355 1_655 S
N4493 C4485 1.427 . S
N4493 C4491 1.384 . S
H4494 C4500 0.930 . S
H4495 C4504 0.930 . S
H4496 C4509 0.929 . S
H4497 C4507 0.929 . S
H4498 C4502 0.929 . S
H4499 C4508 0.929 . S
C4500 H4494 0.930 . S
C4500 C4501 1.367 . S
C4500 C4508 1.378 . S
C4501 C4500 1.367 . S
C4501 C4509 1.433 . S
C4502 H4498 0.929 . S
C4502 C4504 1.378 . S
C4502 C4506 1.350 . S
C4503 C4506 1.463 . S
C4503 C4508 1.350 . S
C4503 N4511 1.427 . S
C4504 H4495 0.930 . S
C4504 C4502 1.378 . S
C4504 C4505 1.367 . S
C4505 C4504 1.367 . S
C4505 C4507 1.433 . S
C4506 C4502 1.350 . S
C4506 C4503 1.463 . S
C4506 N4510 1.427 . S
C4507 H4497 0.929 . S
C4507 C4505 1.433 . S
C4507 N4510 1.384 . S
C4508 H4499 0.929 . S
C4508 C4500 1.378 . S
C4508 C4503 1.350 . S
C4509 H4496 0.929 . S
C4509 C4501 1.433 . S
C4509 N4511 1.384 . S
N4510 C4506 1.427 . S
N4510 C4507 1.384 . S
N4511 C4503 1.427 . S
N4511 C4509 1.384 . S
H4512 C4518 0.930 . S
H4513 C4522 0.930 . S
H4514 C4527 0.929 . S
H4515 C4525 0.929 . S
H4516 C4520 0.929 1_655 S
H4517 C4526 0.929 . S
C4518 H4512 0.930 . S
C4518 C4519 1.367 . S
C4518 C4526 1.378 . S
C4519 C4518 1.367 . S
C4519 C4527 1.433 . S
C4520 H4516 0.929 1_455 S
C4520 C4522 1.378 . S
C4520 C4524 1.350 . S
C4521 C4524 1.463 1_655 S
C4521 C4526 1.350 . S
C4521 N4529 1.427 . S
C4522 H4513 0.930 . S
C4522 C4520 1.378 . S
C4522 C4523 1.367 . S
C4523 C4522 1.367 . S
C4523 C4525 1.433 . S
C4524 C4520 1.350 . S
C4524 C4521 1.463 1_455 S
C4524 N4528 1.427 . S
C4525 H4515 0.929 . S
C4525 C4523 1.433 . S
C4525 N4528 1.384 . S
C4526 H4517 0.929 . S
C4526 C4518 1.378 . S
C4526 C4521 1.350 . S
C4527 H4514 0.929 . S
C4527 C4519 1.433 . S
C4527 N4529 1.384 . S
N4528 C4524 1.427 . S
N4528 C4525 1.384 . S
N4529 C4521 1.427 . S
N4529 C4527 1.384 . S
H4530 C4536 0.930 . S
H4531 C4540 0.930 . S
H4532 C4545 0.929 . S
H4533 C4543 0.929 . S
H4534 C4538 0.929 . S
H4535 C4544 0.929 . S
C4536 H4530 0.930 . S
C4536 C4537 1.367 . S
C4536 C4544 1.378 . S
C4537 C4536 1.367 . S
C4537 C4545 1.433 . S
C4538 H4534 0.929 . S
C4538 C4540 1.378 . S
C4538 C4542 1.350 . S
C4539 C4542 1.463 . S
C4539 C4544 1.350 . S
C4539 N4547 1.427 . S
C4540 H4531 0.930 . S
C4540 C4538 1.378 . S
C4540 C4541 1.367 . S
C4541 C4540 1.367 . S
C4541 C4543 1.433 . S
C4542 C4538 1.350 . S
C4542 C4539 1.463 . S
C4542 N4546 1.427 . S
C4543 H4533 0.929 . S
C4543 C4541 1.433 . S
C4543 N4546 1.384 . S
C4544 H4535 0.929 . S
C4544 C4536 1.378 . S
C4544 C4539 1.350 . S
C4545 H4532 0.929 . S
C4545 C4537 1.433 . S
C4545 N4547 1.384 . S
N4546 C4542 1.427 . S
N4546 C4543 1.384 . S
N4547 C4539 1.427 . S
N4547 C4545 1.384 . S
H4548 C4554 0.930 . S
H4549 C4558 0.930 . S
H4550 C4563 0.929 . S
H4551 C4561 0.929 . S
H4552 C4556 0.929 . S
H4553 C4562 0.929 . S
C4554 H4548 0.930 . S
C4554 C4555 1.367 . S
C4554 C4562 1.378 . S
C4555 C4554 1.367 . S
C4555 C4563 1.433 . S
C4556 H4552 0.929 . S
C4556 C4558 1.378 . S
C4556 C4560 1.350 . S
C4557 C4560 1.463 . S
C4557 C4562 1.350 . S
C4557 N4565 1.427 . S
C4558 H4549 0.930 . S
C4558 C4556 1.378 . S
C4558 C4559 1.367 . S
C4559 C4558 1.367 . S
C4559 C4561 1.433 . S
C4560 C4556 1.350 . S
C4560 C4557 1.463 . S
C4560 N4564 1.427 . S
C4561 H4551 0.929 . S
C4561 C4559 1.433 . S
C4561 N4564 1.384 . S
C4562 H4553 0.929 . S
C4562 C4554 1.378 . S
C4562 C4557 1.350 . S
C4563 H4550 0.929 . S
C4563 C4555 1.433 . S
C4563 N4565 1.384 . S
N4564 C4560 1.427 . S
N4564 C4561 1.384 . S
N4565 C4557 1.427 . S
N4565 C4563 1.384 . S
H4566 C4572 0.930 . S
H4567 C4576 0.930 . S
H4568 C4581 0.929 . S
H4569 C4579 0.929 . S
H4570 C4574 0.929 . S
H4571 C4580 0.905 1_554 S
C4572 H4566 0.930 . S
C4572 C4573 1.367 . S
C4572 C4580 1.393 . S
C4573 C4572 1.367 . S
C4573 C4581 1.433 . S
C4574 H4570 0.929 . S
C4574 C4576 1.378 1_556 S
C4574 C4578 1.350 1_556 S
C4575 C4578 1.463 1_556 S
C4575 C4580 1.359 . S
C4575 N4583 1.427 . S
C4576 H4567 0.930 . S
C4576 C4574 1.378 1_554 S
C4576 C4577 1.367 . S
C4577 C4576 1.367 . S
C4577 C4579 1.433 . S
C4578 C4574 1.350 1_554 S
C4578 C4575 1.463 1_554 S
C4578 N4582 1.427 . S
C4579 H4569 0.929 . S
C4579 C4577 1.433 . S
C4579 N4582 1.384 . S
C4580 H4571 0.905 1_556 S
C4580 C4572 1.393 . S
C4580 C4575 1.359 . S
C4581 H4568 0.929 . S
C4581 C4573 1.433 . S
C4581 N4583 1.384 . S
N4582 C4578 1.427 . S
N4582 C4579 1.384 . S
N4583 C4575 1.427 . S
N4583 C4581 1.384 . S
H4584 C4590 0.930 . S
H4585 C4594 0.930 . S
H4586 C4599 0.929 . S
H4587 C4597 0.929 . S
H4588 C4592 0.929 . S
H4589 C4598 0.929 . S
C4590 H4584 0.930 . S
C4590 C4591 1.367 . S
C4590 C4598 1.378 . S
C4591 C4590 1.367 . S
C4591 C4599 1.433 . S
C4592 H4588 0.929 . S
C4592 C4594 1.378 . S
C4592 C4596 1.350 . S
C4593 C4596 1.463 . S
C4593 C4598 1.350 . S
C4593 N4601 1.427 . S
C4594 H4585 0.930 . S
C4594 C4592 1.378 . S
C4594 C4595 1.367 . S
C4595 C4594 1.367 . S
C4595 C4597 1.433 . S
C4596 C4592 1.350 . S
C4596 C4593 1.463 . S
C4596 N4600 1.427 . S
C4597 H4587 0.929 . S
C4597 C4595 1.433 . S
C4597 N4600 1.384 . S
C4598 H4589 0.929 . S
C4598 C4590 1.378 . S
C4598 C4593 1.350 . S
C4599 H4586 0.929 . S
C4599 C4591 1.433 . S
C4599 N4601 1.384 . S
N4600 C4596 1.427 . S
N4600 C4597 1.384 . S
N4601 C4593 1.427 . S
N4601 C4599 1.384 . S
H4602 C4608 0.930 . S
H4603 C4612 0.930 . S
H4604 C4617 0.929 . S
H4605 C4615 0.929 . S
H4606 C4610 0.929 . S
H4607 C4616 0.929 . S
C4608 H4602 0.930 . S
C4608 C4609 1.367 . S
C4608 C4616 1.378 . S
C4609 C4608 1.367 . S
C4609 C4617 1.433 . S
C4610 H4606 0.929 . S
C4610 C4612 1.378 . S
C4610 C4614 1.350 . S
C4611 C4614 1.463 . S
C4611 C4616 1.350 . S
C4611 N4619 1.427 . S
C4612 H4603 0.930 . S
C4612 C4610 1.378 . S
C4612 C4613 1.367 . S
C4613 C4612 1.367 . S
C4613 C4615 1.433 . S
C4614 C4610 1.350 . S
C4614 C4611 1.463 . S
C4614 N4618 1.427 . S
C4615 H4605 0.929 . S
C4615 C4613 1.433 . S
C4615 N4618 1.384 . S
C4616 H4607 0.929 . S
C4616 C4608 1.378 . S
C4616 C4611 1.350 . S
C4617 H4604 0.929 . S
C4617 C4609 1.433 . S
C4617 N4619 1.384 . S
N4618 C4614 1.427 . S
N4618 C4615 1.384 . S
N4619 C4611 1.427 . S
N4619 C4617 1.384 . S
H4620 C4626 0.930 . S
H4621 C4630 0.930 . S
H4622 C4635 0.929 . S
H4623 C4633 0.929 . S
H4624 C4628 0.929 . S
H4625 C4634 0.929 . S
C4626 H4620 0.930 . S
C4626 C4627 1.367 . S
C4626 C4634 1.378 . S
C4627 C4626 1.367 . S
C4627 C4635 1.433 . S
C4628 H4624 0.929 . S
C4628 C4630 1.378 . S
C4628 C4632 1.350 . S
C4629 C4632 1.463 . S
C4629 C4634 1.350 . S
C4629 N4637 1.427 . S
C4630 H4621 0.930 . S
C4630 C4628 1.378 . S
C4630 C4631 1.367 . S
C4631 C4630 1.367 . S
C4631 C4633 1.433 . S
C4632 C4628 1.350 . S
C4632 C4629 1.463 . S
C4632 N4636 1.427 . S
C4633 H4623 0.929 . S
C4633 C4631 1.433 . S
C4633 N4636 1.384 . S
C4634 H4625 0.929 . S
C4634 C4626 1.378 . S
C4634 C4629 1.350 . S
C4635 H4622 0.929 . S
C4635 C4627 1.433 . S
C4635 N4637 1.384 . S
N4636 C4632 1.427 . S
N4636 C4633 1.384 . S
N4637 C4629 1.427 . S
N4637 C4635 1.384 . S
H4638 C4644 0.930 . S
H4639 C4648 0.930 . S
H4640 C4653 0.929 . S
H4641 C4651 0.929 . S
H4642 C4646 0.929 . S
H4643 C4652 0.929 . S
C4644 H4638 0.930 . S
C4644 C4645 1.367 . S
C4644 C4652 1.378 . S
C4645 C4644 1.367 . S
C4645 C4653 1.433 . S
C4646 H4642 0.929 . S
C4646 C4648 1.378 . S
C4646 C4650 1.350 . S
C4647 C4650 1.463 . S
C4647 C4652 1.350 . S
C4647 N4655 1.427 . S
C4648 H4639 0.930 . S
C4648 C4646 1.378 . S
C4648 C4649 1.367 . S
C4649 C4648 1.367 . S
C4649 C4651 1.433 . S
C4650 C4646 1.350 . S
C4650 C4647 1.463 . S
C4650 N4654 1.427 . S
C4651 H4641 0.929 . S
C4651 C4649 1.433 . S
C4651 N4654 1.384 . S
C4652 H4643 0.929 . S
C4652 C4644 1.378 . S
C4652 C4647 1.350 . S
C4653 H4640 0.929 . S
C4653 C4645 1.433 . S
C4653 N4655 1.384 . S
N4654 C4650 1.427 . S
N4654 C4651 1.384 . S
N4655 C4647 1.427 . S
N4655 C4653 1.384 . S
H4656 C4662 0.930 . S
H4657 C4666 0.930 . S
H4658 C4671 0.929 . S
H4659 C4669 0.929 . S
H4660 C4664 0.929 . S
H4661 C4670 0.929 . S
C4662 H4656 0.930 . S
C4662 C4663 1.367 . S
C4662 C4670 1.378 . S
C4663 C4662 1.367 . S
C4663 C4671 1.433 . S
C4664 H4660 0.929 . S
C4664 C4666 1.378 . S
C4664 C4668 1.350 . S
C4665 C4668 1.463 . S
C4665 C4670 1.350 . S
C4665 N4673 1.427 . S
C4666 H4657 0.930 . S
C4666 C4664 1.378 . S
C4666 C4667 1.367 . S
C4667 C4666 1.367 . S
C4667 C4669 1.433 . S
C4668 C4664 1.350 . S
C4668 C4665 1.463 . S
C4668 N4672 1.427 . S
C4669 H4659 0.929 . S
C4669 C4667 1.433 . S
C4669 N4672 1.384 . S
C4670 H4661 0.929 . S
C4670 C4662 1.378 . S
C4670 C4665 1.350 . S
C4671 H4658 0.929 . S
C4671 C4663 1.433 . S
C4671 N4673 1.384 . S
N4672 C4668 1.427 . S
N4672 C4669 1.384 . S
N4673 C4665 1.427 . S
N4673 C4671 1.384 . S
H4674 C4680 0.930 . S
H4675 C4684 0.930 . S
H4676 C4689 0.929 . S
H4677 C4687 0.929 . S
H4678 C4682 0.929 . S
H4679 C4688 0.929 . S
C4680 H4674 0.930 . S
C4680 C4681 1.367 . S
C4680 C4688 1.378 . S
C4681 C4680 1.367 . S
C4681 C4689 1.433 . S
C4682 H4678 0.929 . S
C4682 C4684 1.378 . S
C4682 C4686 1.350 . S
C4683 C4686 1.463 . S
C4683 C4688 1.350 . S
C4683 N4691 1.427 . S
C4684 H4675 0.930 . S
C4684 C4682 1.378 . S
C4684 C4685 1.367 . S
C4685 C4684 1.367 . S
C4685 C4687 1.433 . S
C4686 C4682 1.350 . S
C4686 C4683 1.463 . S
C4686 N4690 1.427 . S
C4687 H4677 0.929 . S
C4687 C4685 1.433 . S
C4687 N4690 1.384 . S
C4688 H4679 0.929 . S
C4688 C4680 1.378 . S
C4688 C4683 1.350 . S
C4689 H4676 0.929 . S
C4689 C4681 1.433 . S
C4689 N4691 1.384 . S
N4690 C4686 1.427 . S
N4690 C4687 1.384 . S
N4691 C4683 1.427 . S
N4691 C4689 1.384 . S
H4692 C4698 0.930 . S
H4693 C4702 0.930 . S
H4694 C4707 0.929 . S
H4695 C4705 0.929 . S
H4696 C4700 0.929 . S
H4697 C4706 0.929 . S
C4698 H4692 0.930 . S
C4698 C4699 1.367 . S
C4698 C4706 1.378 . S
C4699 C4698 1.367 . S
C4699 C4707 1.433 . S
C4700 H4696 0.929 . S
C4700 C4702 1.378 . S
C4700 C4704 1.350 . S
C4701 C4704 1.463 1_554 S
C4701 C4706 1.350 . S
C4701 N4709 1.440 . S
C4702 H4693 0.930 . S
C4702 C4700 1.378 . S
C4702 C4703 1.367 . S
C4703 C4702 1.367 . S
C4703 C4705 1.433 . S
C4704 C4700 1.350 . S
C4704 C4701 1.463 1_556 S
C4704 N4708 1.427 1_556 S
C4705 H4695 0.929 . S
C4705 C4703 1.433 . S
C4705 N4708 1.384 1_556 S
C4706 H4697 0.929 . S
C4706 C4698 1.378 . S
C4706 C4701 1.350 . S
C4707 H4694 0.929 . S
C4707 C4699 1.433 . S
C4707 N4709 1.405 . S
N4708 C4704 1.427 1_554 S
N4708 C4705 1.384 1_554 S
N4709 C4701 1.440 . S
N4709 C4707 1.405 . S
H4710 C4716 0.930 . S
H4711 C4720 0.930 . S
H4712 C4725 0.929 . S
H4713 C4723 0.929 . S
H4714 C4718 0.929 . S
H4715 C4724 0.929 . S
C4716 H4710 0.930 . S
C4716 C4717 1.367 . S
C4716 C4724 1.378 . S
C4717 C4716 1.367 . S
C4717 C4725 1.433 . S
C4718 H4714 0.929 . S
C4718 C4720 1.378 . S
C4718 C4722 1.350 . S
C4719 C4722 1.463 . S
C4719 C4724 1.350 . S
C4719 N4727 1.427 . S
C4720 H4711 0.930 . S
C4720 C4718 1.378 . S
C4720 C4721 1.367 . S
C4721 C4720 1.367 . S
C4721 C4723 1.433 . S
C4722 C4718 1.350 . S
C4722 C4719 1.463 . S
C4722 N4726 1.427 . S
C4723 H4713 0.929 . S
C4723 C4721 1.433 . S
C4723 N4726 1.384 . S
C4724 H4715 0.929 . S
C4724 C4716 1.378 . S
C4724 C4719 1.350 . S
C4725 H4712 0.929 . S
C4725 C4717 1.433 . S
C4725 N4727 1.384 . S
N4726 C4722 1.427 . S
N4726 C4723 1.384 . S
N4727 C4719 1.427 . S
N4727 C4725 1.384 . S
H4728 C4734 0.930 . S
H4729 C4738 0.930 . S
H4730 C4743 0.929 . S
H4731 C4741 0.929 . S
H4732 C4736 0.929 . S
H4733 C4742 0.929 . S
C4734 H4728 0.930 . S
C4734 C4735 1.367 . S
C4734 C4742 1.378 . S
C4735 C4734 1.367 . S
C4735 C4743 1.433 . S
C4736 H4732 0.929 . S
C4736 C4738 1.378 . S
C4736 C4740 1.350 . S
C4737 C4740 1.463 . S
C4737 C4742 1.350 . S
C4737 N4745 1.427 . S
C4738 H4729 0.930 . S
C4738 C4736 1.378 . S
C4738 C4739 1.367 . S
C4739 C4738 1.367 . S
C4739 C4741 1.433 . S
C4740 C4736 1.350 . S
C4740 C4737 1.463 . S
C4740 N4744 1.427 . S
C4741 H4731 0.929 . S
C4741 C4739 1.433 . S
C4741 N4744 1.384 . S
C4742 H4733 0.929 . S
C4742 C4734 1.378 . S
C4742 C4737 1.350 . S
C4743 H4730 0.929 . S
C4743 C4735 1.433 . S
C4743 N4745 1.384 . S
N4744 C4740 1.427 . S
N4744 C4741 1.384 . S
N4745 C4737 1.427 . S
N4745 C4743 1.384 . S
H4746 C4752 0.930 . S
H4747 C4756 0.930 . S
H4748 C4761 0.929 . S
H4749 C4759 0.929 . S
H4750 C4754 0.929 . S
H4751 C4760 0.929 . S
C4752 H4746 0.930 . S
C4752 C4753 1.367 . S
C4752 C4760 1.378 . S
C4753 C4752 1.367 . S
C4753 C4761 1.433 . S
C4754 H4750 0.929 . S
C4754 C4756 1.378 . S
C4754 C4758 1.350 . S
C4755 C4758 1.463 . S
C4755 C4760 1.350 . S
C4755 N4763 1.427 . S
C4756 H4747 0.930 . S
C4756 C4754 1.378 . S
C4756 C4757 1.367 . S
C4757 C4756 1.367 . S
C4757 C4759 1.433 . S
C4758 C4754 1.350 . S
C4758 C4755 1.463 . S
C4758 N4762 1.427 . S
C4759 H4749 0.929 . S
C4759 C4757 1.433 . S
C4759 N4762 1.384 . S
C4760 H4751 0.929 . S
C4760 C4752 1.378 . S
C4760 C4755 1.350 . S
C4761 H4748 0.929 . S
C4761 C4753 1.433 . S
C4761 N4763 1.384 . S
N4762 C4758 1.427 . S
N4762 C4759 1.384 . S
N4763 C4755 1.427 . S
N4763 C4761 1.384 . S
H4764 C4770 0.930 . S
H4765 C4774 0.930 . S
H4766 C4779 0.929 . S
H4767 C4777 0.929 . S
H4768 C4772 0.929 . S
H4769 C4778 0.929 . S
C4770 H4764 0.930 . S
C4770 C4771 1.367 . S
C4770 C4778 1.378 . S
C4771 C4770 1.367 . S
C4771 C4779 1.433 . S
C4772 H4768 0.929 . S
C4772 C4774 1.378 . S
C4772 C4776 1.350 . S
C4773 C4776 1.463 . S
C4773 C4778 1.350 . S
C4773 N4781 1.427 . S
C4774 H4765 0.930 . S
C4774 C4772 1.378 . S
C4774 C4775 1.367 . S
C4775 C4774 1.367 . S
C4775 C4777 1.433 . S
C4776 C4772 1.350 . S
C4776 C4773 1.463 . S
C4776 N4780 1.427 . S
C4777 H4767 0.929 . S
C4777 C4775 1.433 . S
C4777 N4780 1.384 . S
C4778 H4769 0.929 . S
C4778 C4770 1.378 . S
C4778 C4773 1.350 . S
C4779 H4766 0.929 . S
C4779 C4771 1.433 . S
C4779 N4781 1.384 . S
N4780 C4776 1.427 . S
N4780 C4777 1.384 . S
N4781 C4773 1.427 . S
N4781 C4779 1.384 . S
H4782 C4788 0.930 . S
H4783 C4792 0.930 . S
H4784 C4797 0.929 . S
H4785 C4795 0.929 . S
H4786 C4790 0.929 . S
H4787 C4796 0.929 . S
C4788 H4782 0.930 . S
C4788 C4789 1.367 . S
C4788 C4796 1.378 . S
C4789 C4788 1.367 . S
C4789 C4797 1.433 . S
C4790 H4786 0.929 . S
C4790 C4792 1.378 . S
C4790 C4794 1.350 . S
C4791 C4794 1.463 . S
C4791 C4796 1.350 . S
C4791 N4799 1.427 . S
C4792 H4783 0.930 . S
C4792 C4790 1.378 . S
C4792 C4793 1.367 . S
C4793 C4792 1.367 . S
C4793 C4795 1.433 . S
C4794 C4790 1.350 . S
C4794 C4791 1.463 . S
C4794 N4798 1.427 . S
C4795 H4785 0.929 . S
C4795 C4793 1.433 . S
C4795 N4798 1.384 . S
C4796 H4787 0.929 . S
C4796 C4788 1.378 . S
C4796 C4791 1.350 . S
C4797 H4784 0.929 . S
C4797 C4789 1.433 . S
C4797 N4799 1.384 . S
N4798 C4794 1.427 . S
N4798 C4795 1.384 . S
N4799 C4791 1.427 . S
N4799 C4797 1.384 . S
C1351 C13 1.103 . S
C1355 C1058 1.127 . S
C1369 C344 1.112 . S
C1373 C27 1.112 . S
C1387 C1030 1.116 . S
C1391 C41 1.108 . S
C1405 C372 1.103 . S
C1409 C55 1.122 . S
C1423 C69 1.118 . S
C1427 C1086 1.115 . S
C1441 C83 1.111 . S
C1445 C428 1.112 . S
C1459 C1114 1.122 . S
C1463 C97 1.110 . S
C1477 C111 1.119 . S
C1481 C400 1.106 . S
C1495 C125 1.125 . S
C1499 C1268 1.104 . S
C1513 C610 1.103 . S
C1517 C139 1.125 . S
C1531 C153 1.101 . S
C1535 C624 1.125 . S
C1549 C167 1.110 . S
C1553 C582 1.114 . S
C1567 C181 1.114 . S
C1571 C1324 1.109 . S
C1585 C195 1.115 . S
C1589 C1240 1.109 . S
C1603 C209 1.103 . S
C1607 C1338 1.122 . S
C1621 C223 1.112 . S
C1625 C1310 1.121 . S
C1639 C1142 1.103 . S
C1643 C237 1.125 . S
C1657 C251 1.119 . S
C1661 C554 1.114 . S
C1675 C265 1.117 . S
C1679 C1184 1.107 . S
C1693 C526 1.118 . S
C1697 C279 1.114 . S
C1711 C293 1.109 . S
C1715 C540 1.115 . S
C1729 C1170 1.124 . S
C1733 C307 1.108 . S
C1747 C321 1.102 . S
C1751 C1128 1.123 . S
C1765 C1156 1.126 . S
C1769 C335 1.105 . S
C1783 C722 1.118 . S
C1787 C349 1.115 . S
C1801 C8 1.106 . S
C1805 C363 1.124 . S
C1819 C377 1.114 . S
C1823 C694 1.109 . S
C1837 C391 1.105 . S
C1841 C36 1.126 . S
C1855 C405 1.115 . S
C1859 C750 1.118 . S
C1873 C92 1.107 . S
C1877 C419 1.124 . S
C1891 C433 1.123 . S
C1895 C778 1.109 . S
C1909 C447 1.123 . S
C1913 C64 1.109 . S
C1927 C461 1.101 . S
C1931 C932 1.127 . S
C1945 C274 1.127 . S
C1949 C475 1.101 . S
C1963 C489 1.115 . S
C1967 C288 1.108 . S
C1981 C246 1.120 . S
C1985 C503 1.113 . S
C1999 C517 1.122 . S
C2003 C988 1.103 . S
C2017 C531 1.125 . S
C2021 C904 1.106 . S
C2035 C545 1.125 . S
C2039 C1002 1.105 . S
C2053 C974 1.105 . S
C2057 C559 1.119 . S
C2071 C806 1.122 . S
C2075 C573 1.110 . S
C2089 C218 1.106 . S
C2093 C587 1.118 . S
C2107 C848 1.122 . S
C2111 C601 1.103 . S
C2125 C615 1.102 . S
C2129 C190 1.127 . S
C2143 C629 1.116 . S
C2147 C204 1.108 . S
C2161 C643 1.117 . S
C2165 C834 1.107 . S
C2179 C792 1.126 . S
C2183 C657 1.101 . S
C2197 C671 1.109 . S
C2201 C820 1.123 . S
C2215 C386 1.103 . S
C2219 C685 1.125 . S
C2233 C1016 1.122 . S
C2237 C699 1.110 . S
C2251 C713 1.103 . S
C2255 C358 1.122 . S
C2269 C1044 1.103 . S
C2273 C727 1.124 . S
C2287 C741 1.108 . S
C2291 C414 1.115 . S
C2305 C1100 1.103 . S
C2309 C755 1.123 . S
C2323 C769 1.112 . S
C2327 C442 1.121 . S
C2341 C1072 1.106 . S
C2345 C783 1.119 . S
C2359 C596 1.127 . S
C2363 C797 1.103 . S
C2377 C811 1.119 . S
C2381 C1282 1.114 . S
C2395 C1296 1.124 . S
C2399 C825 1.108 . S
C2413 C839 1.104 . S
C2417 C1254 1.126 . S
C2431 C652 1.103 . S
C2435 C853 1.125 . S
C2449 C867 1.118 . S
C2453 C568 1.106 . S
C2467 C666 1.127 . S
C2471 C881 1.101 . S
C2485 C638 1.108 . S
C2489 C895 1.123 . S
C2503 C470 1.106 . S
C2507 C909 1.118 . S
C2521 C1226 1.127 . S
C2525 C923 1.103 . S
C2539 C937 1.125 . S
C2543 C512 1.103 . S
C2557 C951 1.103 . S
C2561 C1198 1.122 . S
C2575 C1212 1.103 . S
C2579 C965 1.124 . S
C2593 C498 1.125 . S
C2597 C979 1.106 . S
C2611 C456 1.103 . S
C2615 C993 1.123 . S
C2629 C484 1.123 . S
C2633 C1007 1.109 . S
C2647 C1021 1.106 . S
C2651 C50 1.125 . S
C2665 C1035 1.121 . S
C2669 C680 1.104 . S
C2683 C1049 1.120 . S
C2687 C22 1.105 . S
C2701 C1063 1.124 . S
C2705 C708 1.103 . S
C2719 C78 1.120 . S
C2723 C1077 1.104 . S
C2737 C764 1.115 . S
C2741 C1091 1.109 . S
C2755 C106 1.125 . S
C2759 C1105 1.107 . S
C2773 C736 1.121 . S
C2777 C1119 1.103 . S
C2791 C1133 1.108 . S
C2795 C260 1.124 . S
C2809 C946 1.120 . S
C2813 C1147 1.112 . S
C2827 C1161 1.123 . S
C2831 C960 1.103 . S
C2845 C1175 1.112 . S
C2849 C918 1.120 . S
C2863 C316 1.104 . S
C2867 C1189 1.125 . S
C2881 C232 1.127 . S
C2885 C1203 1.103 . S
C2899 C1217 1.105 . S
C2903 C330 1.126 . S
C2917 C302 1.106 . S
C2921 C1231 1.125 . S
C2935 C1245 1.125 . S
C2939 C134 1.104 . S
C2953 C1259 1.125 . S
C2957 C890 1.103 . S
C2971 C176 1.124 . S
C2975 C1273 1.102 . S
C2989 C1287 1.104 . S
C2993 C862 1.126 . S
C3007 C876 1.127 . S
C3011 C1301 1.102 . S
C3025 C1315 1.104 . S
C3029 C162 1.120 . S
C3043 C1329 1.123 . S
C3047 C120 1.103 . S
C3061 C1343 1.103 . S
C3065 C148 1.127 . S
C3079 C11 0.907 . S
C3083 C137 0.910 . S
C3097 C25 0.909 . S
C3101 C151 0.905 . S
C3115 C165 0.907 . S
C3119 C39 0.904 . S
C3133 C53 0.910 . S
C3137 C123 0.910 . S
C3151 C221 0.904 . S
C3155 C67 0.907 . S
C3169 C81 0.908 . S
C3173 C179 0.910 . S
C3187 C95 0.910 . S
C3191 C193 0.910 . S
C3205 C207 0.905 . S
C3209 C109 0.909 . S
C3223 C263 0.909 . S
C3227 C235 0.905 . S
C3241 C249 0.910 . S
C3245 C991 0.909 . S
C3259 C1005 0.908 . S
C3263 C277 0.905 . S
C3277 C291 0.907 . S
C3281 C977 0.910 . S
C3295 C963 0.906 . S
C3299 C305 0.909 . S
C3313 C319 0.907 . S
C3317 C921 0.910 . S
C3331 C333 0.904 . S
C3335 C949 0.908 . S
C3349 C347 0.909 . S
C3353 C473 0.906 . S
C3367 C487 0.909 . S
C3371 C361 0.910 . S
C3385 C501 0.910 . S
C3389 C375 0.907 . S
C3403 C389 0.907 . S
C3407 C459 0.904 . S
C3421 C557 0.905 . S
C3425 C403 0.909 . S
C3439 C417 0.910 . S
C3443 C515 0.908 . S
C3457 C529 0.907 . S
C3461 C431 0.910 . S
C3475 C445 0.909 . S
C3479 C543 0.905 . S
C3493 C599 0.904 . S
C3497 C571 0.905 . S
C3511 C585 0.907 . S
C3515 C1327 0.904 . S
C3529 C613 0.907 . S
C3533 C1341 0.910 . S
C3547 C1313 0.904 . S
C3551 C627 0.905 . S
C3565 C1299 0.908 . S
C3569 C641 0.904 . S
C3583 C1257 0.908 . S
C3587 C655 0.905 . S
C3601 C1285 0.904 . S
C3605 C669 0.908 . S
C3619 C809 0.909 . S
C3623 C683 0.910 . S
C3637 C823 0.904 . S
C3641 C697 0.905 . S
C3655 C837 0.904 . S
C3659 C711 0.906 . S
C3673 C725 0.909 . S
C3677 C795 0.910 . S
C3691 C739 0.904 . S
C3695 C893 0.906 . S
C3709 C753 0.905 . S
C3713 C851 0.904 . S
C3727 C767 0.905 . S
C3731 C865 0.908 . S
C3745 C781 0.908 . S
C3749 C879 0.910 . S
C3763 C935 0.910 . S
C3767 C907 0.906 . S
C3781 C1145 0.910 . S
C3785 C1019 0.906 . S
C3799 C1033 0.909 . S
C3803 C1159 0.906 . S
C3817 C1173 0.904 . S
C3821 C1047 0.907 . S
C3835 C1131 0.905 . S
C3839 C1061 0.908 . S
C3853 C1229 0.910 . S
C3857 C1075 0.909 . S
C3871 C1187 0.905 . S
C3875 C1089 0.909 . S
C3889 C1201 0.910 . S
C3893 C1103 0.910 . S
C3907 C1215 0.908 . S
C3911 C1117 0.910 . S
C3925 C1271 0.904 . S
C3929 C1243 0.905 . S
C3943 C7 1.648 . S
C3947 C287 1.653 . S
C3961 C917 1.654 . S
C3965 C21 1.647 . S
C3979 C931 1.650 . S
C3983 C35 1.651 . S
C3997 C945 1.646 . S
C4001 C49 1.654 . S
C4015 C1001 1.646 . S
C4019 C63 1.655 . S
C4033 C77 1.648 . S
C4037 C301 1.653 . S
C4051 C91 1.649 . S
C4055 C987 1.652 . S
C4069 C105 1.645 . S
C4073 C231 1.654 . S
C4087 C119 1.650 . S
C4091 C217 1.649 . S
C4105 C133 1.651 . S
C4109 C175 1.648 . S
C4123 C147 1.653 . S
C4127 C189 1.649 . S
C4141 C203 1.647 . S
C4145 C161 1.654 . S
C4159 C693 1.646 . S
C4163 C245 1.653 . S
C4177 C259 1.647 . S
C4181 C707 1.652 . S
C4195 C273 1.647 . S
C4199 C721 1.652 . S
C4213 C763 1.652 . S
C4217 C315 1.650 . S
C4231 C329 1.651 . S
C4235 C735 1.648 . S
C4249 C343 1.646 . S
C4253 C623 1.653 . S
C4267 C1253 1.652 . S
C4271 C357 1.647 . S
C4285 C1267 1.652 . S
C4289 C371 1.649 . S
C4303 C1281 1.647 . S
C4307 C385 1.653 . S
C4321 C399 1.654 . S
C4325 C1337 1.647 . S
C4339 C413 1.647 . S
C4343 C637 1.654 . S
C4357 C427 1.655 . S
C4361 C1323 1.646 . S
C4375 C441 1.650 . S
C4379 C567 1.649 . S
C4393 C455 1.645 . S
C4397 C553 1.655 . S
C4411 C469 1.648 . S
C4415 C511 1.653 . S
C4429 C525 1.648 . S
C4433 C483 1.653 . S
C4447 C497 1.652 . S
C4451 C539 1.649 . S
C4465 C1029 1.648 . S
C4469 C581 1.653 . S
C4483 C595 1.647 . S
C4487 C1043 1.654 . S
C4501 C1057 1.653 . S
C4505 C609 1.646 . S
C4519 C651 1.650 . S
C4523 C1099 1.649 . S
C4537 C1071 1.647 . S
C4541 C665 1.654 . S
C4555 C679 1.655 . S
C4559 C959 1.646 . S
C4573 C749 1.654 . S
C4577 C973 1.645 . S
C4591 C777 1.645 . S
C4595 C903 1.655 . S
C4609 C889 1.651 . S
C4613 C791 1.648 . S
C4627 C805 1.646 . S
C4631 C847 1.655 . S
C4645 C861 1.653 . S
C4649 C819 1.646 . S
C4663 C833 1.653 . S
C4667 C875 1.646 . S
C4681 C1295 1.647 . S
C4685 C1015 1.652 . S
C4699 C1085 1.646 . S
C4703 C1309 1.655 . S
C4717 C1113 1.648 . S
C4721 C1239 1.651 . S
C4735 C1225 1.645 . S
C4739 C1127 1.655 . S
C4753 C1183 1.650 . S
C4757 C1141 1.648 . S
C4771 C1155 1.649 . S
C4775 C1197 1.652 . S
C4789 C1169 1.645 . S
C4793 C1211 1.654 . S
