# Generated by pormake.
# Topology zfh, (5)-cn, num edge types: 1
# Building blocks:
#     Node 0, Type 0, BuildingBlock: XOMCOT_clean_sbu_1, # of connection points: 5
#     Node 1, Type 0, BuildingBlock: XOMCOT_clean_sbu_1, # of connection points: 5
#     Node 2, Type 0, BuildingBlock: XOMCOT_clean_sbu_1, # of connection points: 5
#     Node 3, Type 0, BuildingBlock: XOMCOT_clean_sbu_1, # of connection points: 5
#     Node 4, Type 0, BuildingBlock: XOMCOT_clean_sbu_1, # of connection points: 5
#     Node 5, Type 0, BuildingBlock: XOMCOT_clean_sbu_1, # of connection points: 5
#     Node 6, Type 0, BuildingBlock: XOMCOT_clean_sbu_1, # of connection points: 5
#     Node 7, Type 0, BuildingBlock: XOMCOT_clean_sbu_1, # of connection points: 5
#     Node 8, Type 0, BuildingBlock: XOMCOT_clean_sbu_1, # of connection points: 5
#     Node 9, Type 0, BuildingBlock: XOMCOT_clean_sbu_1, # of connection points: 5
#     Node 10, Type 0, BuildingBlock: XOMCOT_clean_sbu_1, # of connection points: 5
#     Node 11, Type 0, BuildingBlock: XOMCOT_clean_sbu_1, # of connection points: 5
#     Node 12, Type 0, BuildingBlock: XOMCOT_clean_sbu_1, # of connection points: 5
#     Node 13, Type 0, BuildingBlock: XOMCOT_clean_sbu_1, # of connection points: 5
#     Node 14, Type 0, BuildingBlock: XOMCOT_clean_sbu_1, # of connection points: 5
#     Node 15, Type 0, BuildingBlock: XOMCOT_clean_sbu_1, # of connection points: 5
#     Edge 16, Type (0, 0), BuildingBlock: KIFKEQ_clean_linker_1, # of connection points: 2
#     Edge 17, Type (0, 0), BuildingBlock: KIFKEQ_clean_linker_1, # of connection points: 2
#     Edge 18, Type (0, 0), BuildingBlock: KIFKEQ_clean_linker_1, # of connection points: 2
#     Edge 19, Type (0, 0), BuildingBlock: KIFKEQ_clean_linker_1, # of connection points: 2
#     Edge 20, Type (0, 0), BuildingBlock: KIFKEQ_clean_linker_1, # of connection points: 2
#     Edge 21, Type (0, 0), BuildingBlock: KIFKEQ_clean_linker_1, # of connection points: 2
#     Edge 22, Type (0, 0), BuildingBlock: KIFKEQ_clean_linker_1, # of connection points: 2
#     Edge 23, Type (0, 0), BuildingBlock: KIFKEQ_clean_linker_1, # of connection points: 2
#     Edge 24, Type (0, 0), BuildingBlock: KIFKEQ_clean_linker_1, # of connection points: 2
#     Edge 25, Type (0, 0), BuildingBlock: KIFKEQ_clean_linker_1, # of connection points: 2
#     Edge 26, Type (0, 0), BuildingBlock: KIFKEQ_clean_linker_1, # of connection points: 2
#     Edge 27, Type (0, 0), BuildingBlock: KIFKEQ_clean_linker_1, # of connection points: 2
#     Edge 28, Type (0, 0), BuildingBlock: KIFKEQ_clean_linker_1, # of connection points: 2
#     Edge 29, Type (0, 0), BuildingBlock: KIFKEQ_clean_linker_1, # of connection points: 2
#     Edge 30, Type (0, 0), BuildingBlock: KIFKEQ_clean_linker_1, # of connection points: 2
#     Edge 31, Type (0, 0), BuildingBlock: KIFKEQ_clean_linker_1, # of connection points: 2
#     Edge 32, Type (0, 0), BuildingBlock: KIFKEQ_clean_linker_1, # of connection points: 2
#     Edge 33, Type (0, 0), BuildingBlock: KIFKEQ_clean_linker_1, # of connection points: 2
#     Edge 34, Type (0, 0), BuildingBlock: KIFKEQ_clean_linker_1, # of connection points: 2
#     Edge 35, Type (0, 0), BuildingBlock: KIFKEQ_clean_linker_1, # of connection points: 2
#     Edge 36, Type (0, 0), BuildingBlock: KIFKEQ_clean_linker_1, # of connection points: 2
#     Edge 37, Type (0, 0), BuildingBlock: KIFKEQ_clean_linker_1, # of connection points: 2
#     Edge 38, Type (0, 0), BuildingBlock: KIFKEQ_clean_linker_1, # of connection points: 2
#     Edge 39, Type (0, 0), BuildingBlock: KIFKEQ_clean_linker_1, # of connection points: 2
#     Edge 40, Type (0, 0), BuildingBlock: KIFKEQ_clean_linker_1, # of connection points: 2
#     Edge 41, Type (0, 0), BuildingBlock: KIFKEQ_clean_linker_1, # of connection points: 2
#     Edge 42, Type (0, 0), BuildingBlock: KIFKEQ_clean_linker_1, # of connection points: 2
#     Edge 43, Type (0, 0), BuildingBlock: KIFKEQ_clean_linker_1, # of connection points: 2
#     Edge 44, Type (0, 0), BuildingBlock: KIFKEQ_clean_linker_1, # of connection points: 2
#     Edge 45, Type (0, 0), BuildingBlock: KIFKEQ_clean_linker_1, # of connection points: 2
#     Edge 46, Type (0, 0), BuildingBlock: KIFKEQ_clean_linker_1, # of connection points: 2
#     Edge 47, Type (0, 0), BuildingBlock: KIFKEQ_clean_linker_1, # of connection points: 2
#     Edge 48, Type (0, 0), BuildingBlock: KIFKEQ_clean_linker_1, # of connection points: 2
#     Edge 49, Type (0, 0), BuildingBlock: KIFKEQ_clean_linker_1, # of connection points: 2
#     Edge 50, Type (0, 0), BuildingBlock: KIFKEQ_clean_linker_1, # of connection points: 2
#     Edge 51, Type (0, 0), BuildingBlock: KIFKEQ_clean_linker_1, # of connection points: 2
#     Edge 52, Type (0, 0), BuildingBlock: KIFKEQ_clean_linker_1, # of connection points: 2
#     Edge 53, Type (0, 0), BuildingBlock: KIFKEQ_clean_linker_1, # of connection points: 2
#     Edge 54, Type (0, 0), BuildingBlock: KIFKEQ_clean_linker_1, # of connection points: 2
#     Edge 55, Type (0, 0), BuildingBlock: KIFKEQ_clean_linker_1, # of connection points: 2
# Relax obj value: 0.227
# Max RMSD: 0.218
# Mean RMSD: 0.218
data_MOF--net-zfh--node1-XOMCOT_clean_sbu_1--edge1-KIFKEQ_clean_linker_1
_symmetry_space_group_name_H-M    P1
_symmetry_Int_Tables_number       1
_symmetry_cell_setting            triclinic
loop_
_symmetry_equiv_pos_as_xyz
'x, y, z'
_cell_length_a     40.457659
_cell_length_b     40.529837
_cell_length_c     53.143097
_cell_angle_alpha  90.038566
_cell_angle_beta   89.980707
_cell_angle_gamma 89.833545
loop_
_atom_site_label
_atom_site_type_symbol
_atom_site_fract_x
_atom_site_fract_y
_atom_site_fract_z
_atom_type_partial_charge
C0 C 0.53021 0.22843 0.3717 0.0
C1 C 0.51341 0.25704 0.36626 0.0
N2 N 0.49068 0.26236 0.38439 0.0
N3 N 0.51793 0.21527 0.39302 0.0
C4 C 0.49375 0.23644 0.40026 0.0
H5 H 0.55105 0.21874 0.36131 0.0
Co6 Co 0.53581 0.17999 0.41117 0.0
C7 C 0.48243 0.1312 0.41562 0.0
O8 O 0.50471 0.10793 0.41232 0.0
N9 N 0.55461 0.14532 0.43073 0.0
C10 C 0.56406 0.11441 0.4647 0.0
C11 C 0.54209 0.13525 0.45302 0.0
C12 C 0.58478 0.1307 0.42976 0.0
N13 N 0.59114 0.11164 0.45011 0.0
O14 O 0.53187 0.20556 0.44126 0.0
H15 H 0.51905 0.14395 0.46098 0.0
H16 H 0.60273 0.13527 0.41529 0.0
O17 O 0.49112 0.16158 0.41561 0.0
C18 C 0.55961 0.21844 0.44678 0.0
O19 O 0.58514 0.21187 0.43229 0.0
N20 N 0.54208 0.15652 0.38073 0.0
C21 C 0.55768 0.12918 0.33399 0.0
C22 C 0.52465 0.13298 0.34135 0.0
C23 C 0.51732 0.1471 0.36473 0.0
C24 C 0.57412 0.15522 0.37284 0.0
C25 C 0.58259 0.14064 0.34995 0.0
H26 H 0.49175 0.1518 0.36928 0.0
H27 H 0.59312 0.16725 0.38371 0.0
H28 H 0.48019 0.23398 0.41771 0.0
H29 H 0.51839 0.27323 0.35053 0.0
H30 H 0.56116 0.10412 0.48334 0.0
H31 H 0.50471 0.12568 0.32896 0.0
H32 H 0.60829 0.13985 0.34423 0.0
C33 C 0.27827 0.53793 0.37359 0.0
C34 C 0.24877 0.52262 0.36846 0.0
N35 N 0.24505 0.49714 0.38456 0.0
N36 N 0.29351 0.52186 0.39251 0.0
C37 C 0.27275 0.49715 0.39878 0.0
H38 H 0.28738 0.56021 0.36484 0.0
Co39 Co 0.33057 0.53597 0.41015 0.0
C40 C 0.37606 0.47961 0.40413 0.0
O41 O 0.39851 0.50102 0.39698 0.0
N42 N 0.36694 0.55145 0.42944 0.0
C43 C 0.40825 0.55705 0.45701 0.0
C44 C 0.38882 0.53494 0.44409 0.0
C45 C 0.37223 0.5835 0.43538 0.0
N46 N 0.39764 0.58761 0.45148 0.0
O47 O 0.306 0.5306 0.44086 0.0
H48 H 0.3896 0.50855 0.4467 0.0
H49 H 0.35694 0.60361 0.42874 0.0
O50 O 0.34743 0.48971 0.41124 0.0
C51 C 0.29076 0.55748 0.44564 0.0
O52 O 0.29572 0.58289 0.43079 0.0
N53 N 0.35285 0.5439 0.37887 0.0
C54 C 0.37846 0.56006 0.33127 0.0
C55 C 0.36478 0.52884 0.33587 0.0
C56 C 0.352 0.52135 0.35965 0.0
C57 C 0.36528 0.57459 0.37441 0.0
C58 C 0.37902 0.5828 0.35119 0.0
H59 H 0.34038 0.49763 0.36237 0.0
H60 H 0.36347 0.59367 0.3883 0.0
H61 H 0.27682 0.48111 0.41475 0.0
H62 H 0.23094 0.53058 0.35456 0.0
H63 H 0.42728 0.55109 0.4706 0.0
H64 H 0.3627 0.51066 0.32103 0.0
H65 H 0.38929 0.60723 0.34886 0.0
C66 C 0.99057 0.27816 0.37763 0.0
C67 C 0.01013 0.25081 0.37347 0.0
N68 N 0.03275 0.24897 0.39201 0.0
N69 N 1.00108 0.29386 0.39854 0.0
C70 C 0.02684 0.27546 0.40682 0.0
H71 H 0.96907 0.28513 0.36677 0.0
Co72 Co 0.98103 0.329 0.41567 0.0
C73 C 0.0294 0.38267 0.41507 0.0
O74 O 1.00452 0.40269 0.41044 0.0
N75 N 0.96054 0.36384 0.43437 0.0
C76 C 0.95152 0.39716 0.46713 0.0
C77 C 0.974 0.37688 0.45543 0.0
C78 C 0.92936 0.37626 0.43418 0.0
N79 N 0.92323 0.39667 0.45383 0.0
O80 O 0.989 0.30623 0.44661 0.0
H81 H 0.99821 0.37062 0.46265 0.0
H82 H 0.91065 0.36919 0.42092 0.0
O83 O 0.02411 0.35167 0.41762 0.0
C84 C 0.96298 0.29458 0.45668 0.0
O85 O 0.93412 0.30117 0.44653 0.0
N86 N 0.97096 0.34911 0.38449 0.0
C87 C 0.94989 0.37192 0.33725 0.0
C88 C 0.98375 0.36986 0.34323 0.0
C89 C 0.99375 0.35819 0.36682 0.0
C90 C 0.9384 0.34813 0.3782 0.0
C91 C 0.92719 0.36079 0.35539 0.0
H92 H 0.01986 0.35508 0.37033 0.0
H93 H 0.92103 0.33613 0.39056 0.0
H94 H 0.04013 0.28062 0.42404 0.0
H95 H 0.00652 0.23249 0.3589 0.0
H96 H 0.9551 0.40936 0.48503 0.0
H97 H 1.00262 0.37604 0.32963 0.0
H98 H 0.90083 0.36116 0.35215 0.0
C99 C 0.23478 0.98261 0.37374 0.0
C100 C 0.26227 1.00187 0.36936 0.0
N101 N 0.26476 0.02405 0.38817 0.0
N102 N 0.2199 0.99293 0.39507 0.0
C103 C 0.23865 0.01824 0.40328 0.0
H104 H 0.22709 0.96153 0.36274 0.0
Co105 Co 0.18521 0.97445 0.41315 0.0
C106 C 0.13587 0.02835 0.41687 0.0
O107 O 0.11242 0.00648 0.41327 0.0
N108 N 0.15075 0.95565 0.43283 0.0
C109 C 0.11809 0.94864 0.46622 0.0
C110 C 0.13957 0.96961 0.45435 0.0
C111 C 0.13654 0.92533 0.43278 0.0
N112 N 0.11627 0.92068 0.45269 0.0
O113 O 0.2114 0.97836 0.44323 0.0
H114 H 0.1477 0.99316 0.46162 0.0
H115 H 0.14198 0.90619 0.41933 0.0
O116 O 0.16618 0.01912 0.41746 0.0
C117 C 0.22465 0.95059 0.44838 0.0
O118 O 0.21669 0.92493 0.43454 0.0
N119 N 0.16185 0.96774 0.38278 0.0
C120 C 0.13663 0.95029 0.33542 0.0
C121 C 0.13942 0.98359 0.34259 0.0
C122 C 0.15245 0.99181 0.36621 0.0
C123 C 0.16103 0.93555 0.37554 0.0
C124 C 0.14743 0.92619 0.35255 0.0
H125 H 0.15661 0.01751 0.37044 0.0
H126 H 0.17265 0.917 0.38711 0.0
H127 H 0.23396 0.03131 0.42069 0.0
H128 H 0.28016 0.99842 0.35443 0.0
H129 H 0.10644 0.9528 0.48429 0.0
H130 H 0.13305 1.00328 0.32972 0.0
H131 H 0.14627 0.90015 0.34819 0.0
C132 C 0.03046 0.77685 0.12461 0.0
C133 C 0.01715 0.7461 0.1288 0.0
N134 N 0.99864 0.73785 0.1087 0.0
N135 N 0.02002 0.78829 0.10211 0.0
C136 C 1.00133 0.76352 0.09271 0.0
H137 H 0.04731 0.78961 0.13702 0.0
Co138 Co 0.03322 0.82687 0.08515 0.0
C139 C 0.95855 0.83526 0.09055 0.0
O140 O 0.95549 0.80964 0.10543 0.0
N141 N 0.04767 0.86452 0.06791 0.0
C142 C 0.05712 0.91644 0.05638 0.0
C143 C 0.03615 0.89576 0.0694 0.0
C144 C 0.07544 0.86684 0.05393 0.0
N145 N 0.08184 0.89809 0.04667 0.0
O146 O 0.03 0.80317 0.05377 0.0
H147 H 0.01486 0.90331 0.08029 0.0
H148 H 0.09188 0.84631 0.05039 0.0
O149 O 0.98709 0.84338 0.0821 0.0
C150 C 0.05621 0.78616 0.05033 0.0
O151 O 0.08019 0.78862 0.06691 0.0
N152 N 0.03958 0.84916 0.11598 0.0
C153 C 0.05897 0.87727 0.16191 0.0
C154 C 0.02581 0.86864 0.15744 0.0
C155 C 0.01657 0.85488 0.1343 0.0
C156 C 0.07178 0.85742 0.11994 0.0
C157 C 0.08182 0.87216 0.14236 0.0
H158 H 0.99131 0.8475 0.13183 0.0
H159 H 0.09005 0.85212 0.10564 0.0
H160 H 0.9898 0.76434 0.07436 0.0
H161 H 0.02093 0.73101 0.14535 0.0
H162 H 0.05472 0.94295 0.05468 0.0
H163 H 0.0072 0.87127 0.17193 0.0
H164 H 0.10751 0.87901 0.14428 0.0
C165 C 0.73676 0.03581 0.11139 0.0
C166 C 0.76661 0.01987 0.11418 0.0
N167 N 0.76612 0.99207 0.10021 0.0
N168 N 0.71729 0.01798 0.096 0.0
C169 C 0.73577 0.99145 0.08954 0.0
H170 H 0.7302 0.05963 0.11913 0.0
Co171 Co 0.67796 0.03246 0.08157 0.0
C172 C 0.6311 0.97896 0.09227 0.0
O173 O 0.61068 1.00212 0.10005 0.0
N174 N 0.63905 0.04833 0.0653 0.0
C175 C 0.59574 0.05318 0.03952 0.0
C176 C 0.61709 0.03149 0.05107 0.0
C177 C 0.63156 0.08033 0.06058 0.0
N178 N 0.60487 0.08409 0.04554 0.0
O179 O 0.69692 0.02385 0.04929 0.0
H180 H 0.61752 0.00517 0.04788 0.0
H181 H 0.64722 0.10058 0.06612 0.0
O182 O 0.65946 0.98707 0.0834 0.0
C183 C 0.70927 0.04956 0.03933 0.0
O184 O 0.70507 0.07812 0.05056 0.0
N185 N 0.66126 0.04272 0.11437 0.0
C186 C 0.63889 0.05948 0.16276 0.0
C187 C 0.65178 0.02796 0.1577 0.0
C188 C 0.66315 0.02024 0.13355 0.0
C189 C 0.65123 0.07414 0.11954 0.0
C190 C 0.63904 0.08274 0.14321 0.0
H191 H 0.67367 0.99606 0.1303 0.0
H192 H 0.65343 0.09324 0.10573 0.0
H193 H 0.72791 0.97333 0.07585 0.0
H194 H 0.78734 0.02865 0.12513 0.0
H195 H 0.57592 0.04651 0.02686 0.0
H196 H 0.65372 0.00948 0.17233 0.0
H197 H 0.62992 0.1076 0.14601 0.0
C198 C 0.48131 0.72775 0.11865 0.0
C199 C 0.50006 0.75474 0.12499 0.0
N200 N 0.52429 0.75812 0.10777 0.0
N201 N 0.49384 0.71379 0.09767 0.0
C202 C 0.51996 0.7329 0.09145 0.0
H203 H 0.45913 0.71973 0.12817 0.0
Co204 Co 0.47584 0.67948 0.07883 0.0
C205 C 0.52915 0.62969 0.07477 0.0
O206 O 0.50685 0.60641 0.07725 0.0
N207 N 0.45706 0.64548 0.05864 0.0
C208 C 0.44769 0.61471 0.02456 0.0
C209 C 0.46993 0.63488 0.03657 0.0
C210 C 0.4265 0.63184 0.05915 0.0
N211 N 0.42018 0.61298 0.03873 0.0
O212 O 0.48173 0.70573 0.04915 0.0
H213 H 0.49341 0.6428 0.02897 0.0
H214 H 0.40824 0.637 0.07332 0.0
O215 O 0.52032 0.66007 0.07511 0.0
C216 C 0.45501 0.71712 0.03987 0.0
O217 O 0.42664 0.70818 0.04973 0.0
N218 N 0.46779 0.65585 0.10888 0.0
C219 C 0.44915 0.63076 0.15595 0.0
C220 C 0.48257 0.63186 0.14875 0.0
C221 C 0.49141 0.64491 0.12531 0.0
C222 C 0.43554 0.65658 0.11616 0.0
C223 C 0.42553 0.64314 0.13903 0.0
H224 H 0.51734 0.64792 0.12122 0.0
H225 H 0.41756 0.6694 0.10475 0.0
H226 H 0.53482 0.72898 0.07478 0.0
H227 H 0.49504 0.77167 0.14029 0.0
H228 H 0.45067 0.60418 0.00597 0.0
H229 H 0.50195 0.62423 0.16154 0.0
H230 H 0.39945 0.6434 0.14356 0.0
C231 C 0.77836 0.48715 0.12203 0.0
C232 C 0.75107 0.50716 0.12507 0.0
N233 N 0.74938 0.52783 0.10528 0.0
N234 N 0.79413 0.49551 0.10058 0.0
C235 C 0.77585 0.52039 0.09086 0.0
H236 H 0.78519 0.46675 0.13406 0.0
Co237 Co 0.82918 0.47385 0.08456 0.0
C238 C 0.884 0.52083 0.08411 0.0
O239 O 0.90307 0.49567 0.08998 0.0
N240 N 0.86385 0.45177 0.06697 0.0
C241 C 0.89773 0.44086 0.0349 0.0
C242 C 0.87701 0.46382 0.04547 0.0
C243 C 0.87659 0.42086 0.06857 0.0
N244 N 0.89741 0.41365 0.04939 0.0
O245 O 0.8068 0.47945 0.05301 0.0
H246 H 0.87068 0.48743 0.03728 0.0
H247 H 0.86965 0.40313 0.0826 0.0
O248 O 0.85285 0.51634 0.08113 0.0
C249 C 0.79262 0.45242 0.04731 0.0
O250 O 0.79676 0.42694 0.06228 0.0
N251 N 0.84875 0.46566 0.11628 0.0
C252 C 0.87071 0.44711 0.16433 0.0
C253 C 0.86919 0.48055 0.15723 0.0
C254 C 0.85789 0.48931 0.13325 0.0
C255 C 0.8472 0.43359 0.12364 0.0
C256 C 0.85943 0.42357 0.14691 0.0
H257 H 0.8552 0.51518 0.12882 0.0
H258 H 0.83518 0.41569 0.11175 0.0
H259 H 0.78102 0.5319 0.07291 0.0
H260 H 0.73266 0.50511 0.13977 0.0
H261 H 0.91018 0.44331 0.01698 0.0
H262 H 0.87556 0.50005 0.17025 0.0
H263 H 0.85941 0.39747 0.15103 0.0
C264 C 0.48107 0.77587 0.62551 0.0
C265 C 0.49476 0.74517 0.62956 0.0
N266 N 0.51419 0.73761 0.60977 0.0
N267 N 0.49215 0.78797 0.60341 0.0
C268 C 0.51172 0.76368 0.59411 0.0
H269 H 0.46345 0.7881 0.63768 0.0
Co270 Co 0.47832 0.82659 0.58664 0.0
C271 C 0.55264 0.83592 0.5926 0.0
O272 O 0.55596 0.81047 0.60763 0.0
N273 N 0.46319 0.86417 0.56953 0.0
C274 C 0.45248 0.91587 0.55792 0.0
C275 C 0.47379 0.89565 0.57115 0.0
C276 C 0.43561 0.86589 0.55526 0.0
N277 N 0.42847 0.89699 0.54792 0.0
O278 O 0.4829 0.80367 0.55521 0.0
H279 H 0.4947 0.90363 0.58223 0.0
H280 H 0.41985 0.84499 0.55153 0.0
O281 O 0.52406 0.84383 0.58406 0.0
C282 C 0.45753 0.7861 0.55059 0.0
O283 O 0.43265 0.78669 0.56646 0.0
N284 N 0.47094 0.84835 0.61754 0.0
C285 C 0.45058 0.87687 0.66309 0.0
C286 C 0.48389 0.86835 0.65895 0.0
C287 C 0.49361 0.85438 0.636 0.0
C288 C 0.43855 0.85624 0.62125 0.0
C289 C 0.42802 0.87117 0.64348 0.0
H290 H 0.51902 0.84726 0.63373 0.0
H291 H 0.42056 0.85065 0.60683 0.0
H292 H 0.52396 0.76511 0.57605 0.0
H293 H 0.4905 0.72958 0.64576 0.0
H294 H 0.45418 0.94242 0.55623 0.0
H295 H 0.50229 0.87137 0.67354 0.0
H296 H 0.4022 0.87784 0.64517 0.0
C297 C 0.73445 0.47861 0.62263 0.0
C298 C 0.76316 0.49629 0.62566 0.0
N299 N 0.76459 0.51948 0.6075 0.0
N300 N 0.71757 0.49077 0.60282 0.0
C301 C 0.73641 0.5158 0.59414 0.0
H302 H 0.72746 0.45698 0.63324 0.0
Co303 Co 0.68237 0.47098 0.58607 0.0
C304 C 0.62878 0.52 0.58459 0.0
O305 O 0.60886 0.49537 0.58984 0.0
N306 N 0.64786 0.45035 0.56773 0.0
C307 C 0.61469 0.44096 0.53505 0.0
C308 C 0.63539 0.46324 0.54626 0.0
C309 C 0.63502 0.4195 0.56856 0.0
N310 N 0.61453 0.4133 0.549 0.0
O311 O 0.70596 0.47637 0.55506 0.0
H312 H 0.64224 0.48692 0.53851 0.0
H313 H 0.64182 0.40114 0.58226 0.0
O314 O 0.65997 0.51455 0.58247 0.0
C315 C 0.72047 0.44932 0.54969 0.0
O316 O 0.71543 0.42372 0.56436 0.0
N317 N 0.66155 0.46309 0.61743 0.0
C318 C 0.6384 0.44599 0.66522 0.0
C319 C 0.63893 0.47903 0.65753 0.0
C320 C 0.65163 0.48718 0.63387 0.0
C321 C 0.66296 0.43111 0.62528 0.0
C322 C 0.65107 0.42191 0.64891 0.0
H323 H 0.65448 0.51295 0.6293 0.0
H324 H 0.67492 0.41279 0.61365 0.0
H325 H 0.73082 0.52925 0.57707 0.0
H326 H 0.78211 0.49148 0.63955 0.0
H327 H 0.60268 0.44406 0.517 0.0
H328 H 0.63089 0.49852 0.6701 0.0
H329 H 0.6522 0.39623 0.65449 0.0
C330 C 0.0274 0.72795 0.62189 0.0
C331 C 0.0137 0.75853 0.62634 0.0
N332 N 0.99644 0.76766 0.60581 0.0
N333 N 0.01843 0.71734 0.59878 0.0
C334 C 1.00025 0.74262 0.5893 0.0
H335 H 0.04354 0.71477 0.63462 0.0
Co336 Co 0.03316 0.67894 0.58169 0.0
C337 C 0.95861 0.66985 0.58572 0.0
O338 O 0.95485 0.69625 0.59968 0.0
N339 N 0.04936 0.64197 0.56452 0.0
C340 C 0.06124 0.59076 0.55239 0.0
C341 C 0.03896 0.61039 0.56521 0.0
C342 C 0.07782 0.64094 0.55125 0.0
N343 N 0.08574 0.61008 0.54363 0.0
O344 O 0.02965 0.70233 0.55036 0.0
H345 H 0.0175 0.6019 0.57541 0.0
H346 H 0.09346 0.66222 0.54847 0.0
O347 O 0.9875 0.66123 0.57815 0.0
C348 C 0.0538 0.72221 0.54792 0.0
O349 O 0.07669 0.72267 0.56546 0.0
N350 N 0.0395 0.65668 0.61243 0.0
C351 C 0.05804 0.62879 0.65854 0.0
C352 C 0.02469 0.63573 0.65317 0.0
C353 C 0.0159 0.64946 0.62995 0.0
C354 C 0.0719 0.64996 0.61723 0.0
C355 C 0.08161 0.63548 0.63983 0.0
H356 H 0.99039 0.65561 0.62679 0.0
H357 H 0.09051 0.65637 0.60348 0.0
H358 H 0.98989 0.74263 0.57054 0.0
H359 H 0.01636 0.77288 0.64339 0.0
H360 H 0.0598 0.56426 0.55014 0.0
H361 H 0.00554 0.63179 0.66706 0.0
H362 H 0.10755 0.63001 0.64259 0.0
C363 C 0.77443 0.03344 0.61443 0.0
C364 C 0.74547 0.0164 0.61792 0.0
N365 N 0.74505 0.99064 0.60185 0.0
N366 N 0.79251 0.01832 0.59648 0.0
C367 C 0.77404 0.99224 0.58924 0.0
H368 H 0.78102 0.05641 0.62346 0.0
Co369 Co 0.82934 0.03595 0.58049 0.0
C370 C 0.88187 0.98635 0.58478 0.0
O371 O 0.90101 0.01112 0.59124 0.0
N372 N 0.86573 0.05471 0.56286 0.0
C373 C 0.90451 0.06168 0.53338 0.0
C374 C 0.88291 0.03971 0.54416 0.0
C375 C 0.87618 0.0864 0.56187 0.0
N376 N 0.90006 0.09107 0.54454 0.0
O377 O 0.80812 0.02849 0.54883 0.0
H378 H 0.87893 0.01466 0.53786 0.0
H379 H 0.86524 0.10646 0.57223 0.0
O380 O 0.85125 0.99183 0.57981 0.0
C381 C 0.79445 0.05535 0.5419 0.0
O382 O 0.79911 0.08189 0.55566 0.0
N383 N 0.8478 0.04582 0.61244 0.0
C384 C 0.86922 0.06576 0.66026 0.0
C385 C 0.86475 0.03218 0.65459 0.0
C386 C 0.85353 0.02278 0.63074 0.0
C387 C 0.84909 0.07845 0.61843 0.0
C388 C 0.86099 0.08897 0.64167 0.0
H389 H 0.84847 0.99701 0.62733 0.0
H390 H 0.83912 0.09653 0.6057 0.0
H391 H 0.78065 0.97625 0.5737 0.0
H392 H 0.72577 0.02317 0.63071 0.0
H393 H 0.92051 0.05703 0.51743 0.0
H394 H 0.86877 0.01326 0.66863 0.0
H395 H 0.86307 0.11521 0.64496 0.0
C396 C 0.96849 0.23677 0.88235 0.0
C397 C 0.98495 0.2662 0.87951 0.0
N398 N 0.01063 0.26671 0.89569 0.0
N399 N 0.98389 0.21853 0.90001 0.0
C400 C 0.00949 0.23735 0.90775 0.0
H401 H 0.94589 0.22976 0.87292 0.0
Co402 Co 0.96791 0.18014 0.91484 0.0
C403 C 0.02231 0.13216 0.9098 0.0
O404 O 1.00036 0.11023 0.90264 0.0
N405 N 0.95063 0.14213 0.9313 0.0
C406 C 0.94378 0.10118 0.959 0.0
C407 C 0.96611 0.1225 0.94826 0.0
C408 C 0.91844 0.13349 0.93354 0.0
N409 N 0.91374 0.10833 0.94974 0.0
O410 O 0.97392 0.20001 0.94702 0.0
H411 H 0.99167 0.12483 0.95387 0.0
H412 H 0.89824 0.14694 0.92519 0.0
O413 O 0.01313 0.16154 0.91545 0.0
C414 C 0.94691 0.21309 0.95425 0.0
O415 O 0.92053 0.20933 0.94012 0.0
N416 N 0.95976 0.16236 0.88238 0.0
C417 C 0.94213 0.14128 0.83394 0.0
C418 C 0.97523 0.14817 0.83997 0.0
C419 C 0.98345 0.15911 0.86416 0.0
C420 C 0.92739 0.15829 0.87618 0.0
C421 C 0.91813 0.14658 0.8526 0.0
H422 H 0.00875 0.16602 0.8679 0.0
H423 H 0.9083 0.16575 0.88902 0.0
H424 H 0.02564 0.23046 0.92312 0.0
H425 H 0.97797 0.28597 0.8669 0.0
H426 H 0.94878 0.08365 0.97388 0.0
H427 H 0.99457 0.14622 0.82596 0.0
H428 H 0.89216 0.14233 0.84908 0.0
C429 C 0.2746 0.98816 0.87366 0.0
C430 C 0.24702 0.0073 0.86908 0.0
N431 N 0.24353 0.02883 0.88822 0.0
N432 N 0.28865 0.99794 0.89544 0.0
C433 C 0.26915 0.02275 0.90379 0.0
H434 H 0.28299 0.96759 0.86236 0.0
Co435 Co 0.32371 0.9792 0.91323 0.0
C436 C 0.3734 0.03246 0.9153 0.0
O437 O 0.39633 0.01026 0.91056 0.0
N438 N 0.35848 0.95994 0.93253 0.0
C439 C 0.39386 0.95188 0.96426 0.0
C440 C 0.37313 0.97413 0.95272 0.0
C441 C 0.36942 0.9283 0.9333 0.0
N442 N 0.39133 0.92302 0.95203 0.0
O443 O 0.29831 0.98351 0.94362 0.0
H444 H 0.36782 0.99872 0.95954 0.0
H445 H 0.36013 0.90865 0.92165 0.0
O446 O 0.34307 0.02369 0.91714 0.0
C447 C 0.28479 0.95584 0.94845 0.0
O448 O 0.29188 0.93051 0.93395 0.0
N449 N 0.34648 0.97205 0.88253 0.0
C450 C 0.37138 0.95406 0.83515 0.0
C451 C 0.36802 0.98745 0.84196 0.0
C452 C 0.35513 0.99593 0.86559 0.0
C453 C 0.34772 0.93976 0.87557 0.0
C454 C 0.36122 0.93016 0.8526 0.0
H455 H 0.35051 0.02165 0.86958 0.0
H456 H 0.33633 0.9213 0.88722 0.0
H457 H 0.27298 0.03534 0.92152 0.0
H458 H 0.22974 0.00425 0.8537 0.0
H459 H 0.4078 0.95586 0.98137 0.0
H460 H 0.37387 0.00697 0.82882 0.0
H461 H 0.36275 0.90406 0.84848 0.0
C462 C 0.51741 0.28222 0.87503 0.0
C463 C 0.49677 0.25575 0.87093 0.0
N464 N 0.47664 0.25267 0.89098 0.0
N465 N 0.51006 0.29608 0.89745 0.0
C466 C 0.48502 0.27757 0.9066 0.0
H467 H 0.53756 0.28966 0.86296 0.0
Co468 Co 0.5327 0.32894 0.91521 0.0
C469 C 0.48567 0.38424 0.91991 0.0
O470 O 0.5108 0.40405 0.91589 0.0
N471 N 0.55561 0.36129 0.93438 0.0
C472 C 0.56714 0.39244 0.9678 0.0
C473 C 0.54428 0.3721 0.95687 0.0
C474 C 0.58613 0.37488 0.93253 0.0
N475 N 0.59361 0.39418 0.95254 0.0
O476 O 0.52696 0.30369 0.94546 0.0
H477 H 0.52107 0.36475 0.96524 0.0
H478 H 0.60324 0.3699 0.91744 0.0
O479 O 0.49046 0.35292 0.92031 0.0
C480 C 0.55376 0.28881 0.95108 0.0
O481 O 0.58011 0.29431 0.93725 0.0
N482 N 0.54111 0.35125 0.88465 0.0
C483 C 0.56012 0.37589 0.8376 0.0
C484 C 0.52712 0.37804 0.8457 0.0
C485 C 0.51795 0.36474 0.86896 0.0
C486 C 0.57278 0.34731 0.87647 0.0
C487 C 0.58294 0.3598 0.85328 0.0
H488 H 0.49205 0.36436 0.87375 0.0
H489 H 0.59003 0.33309 0.88761 0.0
H490 H 0.47407 0.2814 0.92496 0.0
H491 H 0.49807 0.23873 0.85525 0.0
H492 H 0.56518 0.40346 0.9863 0.0
H493 H 0.50834 0.38948 0.83409 0.0
H494 H 0.60825 0.35576 0.84738 0.0
C495 C 0.22819 0.52588 0.87262 0.0
C496 C 0.25921 0.51244 0.86941 0.0
N497 N 0.267 0.49525 0.89027 0.0
N498 N 0.2161 0.51686 0.89528 0.0
C499 C 0.24078 0.49878 0.90572 0.0
H500 H 0.2158 0.54207 0.85947 0.0
Co501 Co 0.17715 0.53201 0.91122 0.0
C502 C 0.16757 0.45756 0.90814 0.0
O503 O 0.19414 0.45319 0.89439 0.0
N504 N 0.13934 0.54864 0.9274 0.0
C505 C 0.08756 0.56082 0.93828 0.0
C506 C 0.10761 0.5387 0.92562 0.0
C507 C 0.13793 0.57665 0.94115 0.0
N508 N 0.10682 0.58465 0.94808 0.0
O509 O 0.19966 0.52963 0.943 0.0
H510 H 0.09939 0.51756 0.91492 0.0
H511 H 0.15912 0.59199 0.94496 0.0
O512 O 0.15928 0.48668 0.91528 0.0
C513 C 0.21734 0.55539 0.94573 0.0
O514 O 0.21626 0.57816 0.92814 0.0
N515 N 0.15599 0.53741 0.87993 0.0
C516 C 0.13011 0.55507 0.83295 0.0
C517 C 0.1369 0.5219 0.8388 0.0
C518 C 0.14967 0.51355 0.86245 0.0
C519 C 0.14938 0.56964 0.87466 0.0
C520 C 0.13588 0.57892 0.85161 0.0
H521 H 0.15577 0.48816 0.86601 0.0
H522 H 0.15512 0.58847 0.8884 0.0
H523 H 0.23962 0.48852 0.92448 0.0
H524 H 0.27488 0.51538 0.85306 0.0
H525 H 0.06091 0.55968 0.93984 0.0
H526 H 0.1336 0.50256 0.82498 0.0
H527 H 0.13044 0.60475 0.84847 0.0
H528 H 0.28955 0.03928 0.43397 0.0
H529 H 0.30317 0.05627 0.35449 0.0
H530 H 0.33949 0.07069 0.44299 0.0
H531 H 0.35334 0.08803 0.36359 0.0
H532 H 0.43006 0.16353 0.39408 0.0
H533 H 0.37383 0.14183 0.38832 0.0
H534 H 0.40019 0.0553 0.43125 0.0
H535 H 0.45618 0.07645 0.43643 0.0
C536 C 0.30281 0.0503 0.41845 0.0
C537 C 0.29247 0.04523 0.39348 0.0
C538 C 0.33149 0.06816 0.42363 0.0
C539 C 0.3502 0.08179 0.40399 0.0
C540 C 0.33916 0.07801 0.37908 0.0
C541 C 0.3107 0.05964 0.37386 0.0
C542 C 0.4235 0.14023 0.4027 0.0
C543 C 0.44731 0.12162 0.41573 0.0
C544 C 0.39152 0.12774 0.39923 0.0
C545 C 0.38278 0.0969 0.40932 0.0
C546 C 0.4062 0.07923 0.42343 0.0
C547 C 0.43822 0.0913 0.42637 0.0
H548 H 0.37216 0.42909 0.43866 0.0
H549 H 0.39851 0.45125 0.36193 0.0
H550 H 0.39703 0.37385 0.43416 0.0
H551 H 0.42195 0.39633 0.35698 0.0
H552 H 0.50495 0.32383 0.36798 0.0
H553 H 0.47218 0.37337 0.37283 0.0
H554 H 0.39823 0.31851 0.41371 0.0
H555 H 0.43168 0.2682 0.4089 0.0
C556 C 0.38232 0.4217 0.42065 0.0
C557 C 0.38373 0.44431 0.40068 0.0
C558 C 0.3966 0.39017 0.41804 0.0
C559 C 0.41223 0.3809 0.39537 0.0
C560 C 0.41109 0.4029 0.37494 0.0
C561 C 0.39738 0.43428 0.37766 0.0
C562 C 0.48152 0.32199 0.37769 0.0
C563 C 0.47078 0.29177 0.38766 0.0
C564 C 0.46261 0.35055 0.38049 0.0
C565 C 0.43215 0.34993 0.39326 0.0
C566 C 0.42155 0.31988 0.40376 0.0
C567 C 0.44068 0.29108 0.40099 0.0
H568 H 0.0469 0.44595 0.42366 0.0
H569 H 0.08809 0.35056 0.4051 0.0
H570 H 0.10049 0.47132 0.41725 0.0
H571 H 0.14222 0.37634 0.39809 0.0
H572 H 0.24017 0.43735 0.40775 0.0
H573 H 0.18937 0.40733 0.41756 0.0
H574 H 0.13239 0.48253 0.37961 0.0
H575 H 0.18234 0.51294 0.37077 0.0
C576 C 0.06754 0.43034 0.41833 0.0
C577 C 0.06321 0.39634 0.41457 0.0
C578 C 0.09824 0.44493 0.41451 0.0
C579 C 0.12544 0.42599 0.40658 0.0
C580 C 0.12169 0.3916 0.40415 0.0
C581 C 0.09076 0.37685 0.40817 0.0
C582 C 0.21678 0.44752 0.40159 0.0
C583 C 0.21553 0.4778 0.38859 0.0
C584 C 0.18772 0.43015 0.40704 0.0
C585 C 0.15681 0.44277 0.39969 0.0
C586 C 0.15573 0.47242 0.38601 0.0
C587 C 0.1846 0.48971 0.38061 0.0
H588 H 0.08073 0.05551 0.43713 0.0
H589 H 0.16968 0.08044 0.39662 0.0
H590 H 0.06113 0.11235 0.43299 0.0
H591 H 0.14946 0.13741 0.39177 0.0
H592 H 0.06417 0.21022 0.35805 0.0
H593 H 0.0949 0.15922 0.36665 0.0
H594 H 0.07976 0.1734 0.44628 0.0
H595 H 0.0498 0.22465 0.43777 0.0
C596 C 0.09628 0.07333 0.42765 0.0
C597 C 0.12673 0.06367 0.41726 0.0
C598 C 0.08511 0.10583 0.42534 0.0
C599 C 0.10378 0.1292 0.41204 0.0
C600 C 0.13464 0.11981 0.40212 0.0
C601 C 0.14626 0.08738 0.40503 0.0
C602 C 0.06788 0.20268 0.37739 0.0
C603 C 0.05428 0.22132 0.3972 0.0
C604 C 0.08563 0.17367 0.38231 0.0
C605 C 0.08959 0.16239 0.40712 0.0
C606 C 0.07701 0.18156 0.42698 0.0
C607 C 0.05991 0.21093 0.42209 0.0
H608 H 0.76259 0.92787 0.08578 0.0
H609 H 0.83179 0.00518 0.10412 0.0
H610 H 0.80854 0.88978 0.07898 0.0
H611 H 0.87751 0.96688 0.09831 0.0
H612 H 0.95582 0.89684 0.06855 0.0
H613 H 0.90867 0.93475 0.06772 0.0
H614 H 0.84853 0.86137 0.10463 0.0
H615 H 0.89509 0.82357 0.10507 0.0
C616 C 0.78755 0.93682 0.08827 0.0
C617 C 0.79334 0.96958 0.09576 0.0
C618 C 0.81393 0.91489 0.08456 0.0
C619 C 0.8468 0.92518 0.08818 0.0
C620 C 0.8526 0.95814 0.0951 0.0
C621 C 0.82625 0.98002 0.09883 0.0
C622 C 0.93244 0.8887 0.07621 0.0
C623 C 0.92944 0.85726 0.08712 0.0
C624 C 0.90544 0.9105 0.07588 0.0
C625 C 0.8748 0.90124 0.08629 0.0
C626 C 0.87155 0.8693 0.09622 0.0
C627 C 0.89845 0.84764 0.09662 0.0
H628 H 0.55024 0.78435 0.06497 0.0
H629 H 0.54931 0.79448 0.14583 0.0
H630 H 0.58188 0.83551 0.06149 0.0
H631 H 0.58076 0.84546 0.14237 0.0
H632 H 0.58262 0.95555 0.12228 0.0
H633 H 0.5625 0.89961 0.12603 0.0
H634 H 0.6354 0.86655 0.0722 0.0
H635 H 0.65592 0.92351 0.06833 0.0
C636 C 0.55742 0.79703 0.08203 0.0
C637 C 0.5468 0.78558 0.10569 0.0
C638 C 0.57559 0.82634 0.08002 0.0
C639 C 0.58344 0.84475 0.10163 0.0
C640 C 0.57456 0.83217 0.12533 0.0
C641 C 0.55647 0.803 0.12732 0.0
C642 C 0.5946 0.93647 0.11124 0.0
C643 C 0.6208 0.94406 0.09489 0.0
C644 C 0.58319 0.90425 0.11359 0.0
C645 C 0.59747 0.87856 0.09956 0.0
C646 C 0.62389 0.8859 0.08323 0.0
C647 C 0.6357 0.91839 0.08109 0.0
H648 H 0.5815 0.66423 0.09408 0.0
H649 H 0.55609 0.57319 0.05667 0.0
H650 H 0.63837 0.64408 0.09971 0.0
H651 H 0.61273 0.55346 0.06183 0.0
H652 H 0.7236 0.5375 0.0589 0.0
H653 H 0.6727 0.56726 0.04857 0.0
H654 H 0.66118 0.5945 0.12662 0.0
H655 H 0.71209 0.56447 0.13696 0.0
C656 C 0.58828 0.6403 0.08656 0.0
C657 C 0.56444 0.62021 0.07498 0.0
C658 C 0.62068 0.62871 0.08992 0.0
C659 C 0.6299 0.59722 0.08121 0.0
C660 C 0.6064 0.57793 0.06854 0.0
C661 C 0.57397 0.58916 0.06568 0.0
C662 C 0.71061 0.55045 0.07374 0.0
C663 C 0.72175 0.54866 0.09876 0.0
C664 C 0.68139 0.5673 0.06786 0.0
C665 C 0.66302 0.58316 0.0868 0.0
C666 C 0.67501 0.58274 0.11161 0.0
C667 C 0.70394 0.5654 0.11756 0.0
H668 H 0.01176 0.67781 0.12876 0.0
H669 H 0.94416 0.7293 0.07955 0.0
H670 H 0.98201 0.62666 0.12135 0.0
H671 H 0.91489 0.67769 0.0715 0.0
H672 H 0.85285 0.58133 0.08741 0.0
H673 H 0.87947 0.63527 0.09278 0.0
H674 H 0.97528 0.58889 0.08581 0.0
H675 H 0.94905 0.53558 0.08075 0.0
C676 C 0.99048 0.67829 0.11645 0.0
C677 C 0.98052 0.70768 0.10466 0.0
C678 C 0.9736 0.64886 0.11197 0.0
C679 C 0.94627 0.64804 0.09561 0.0
C680 C 0.9358 0.67753 0.08422 0.0
C681 C 0.95281 0.70701 0.08863 0.0
C682 C 0.87955 0.58285 0.08668 0.0
C683 C 0.89884 0.55417 0.08396 0.0
C684 C 0.8948 0.61368 0.08977 0.0
C685 C 0.92951 0.61621 0.0902 0.0
C686 C 0.94854 0.58768 0.08623 0.0
C687 C 0.93343 0.55711 0.08318 0.0
H688 H 0.55436 0.89835 0.57217 0.0
H689 H 0.61674 0.82287 0.60463 0.0
H690 H 0.60155 0.93591 0.5709 0.0
H691 H 0.66345 0.8603 0.60364 0.0
H692 H 0.74814 0.92807 0.5838 0.0
H693 H 0.70192 0.89042 0.57687 0.0
H694 H 0.63393 0.96546 0.60277 0.0
H695 H 0.67981 1.00322 0.60894 0.0
C696 C 0.57812 0.88964 0.57879 0.0
C697 C 0.58161 0.85773 0.58878 0.0
C698 C 0.60514 0.91121 0.57819 0.0
C699 C 0.63625 0.9012 0.58735 0.0
C700 C 0.63998 0.86877 0.59623 0.0
C701 C 0.61304 0.84736 0.59696 0.0
C702 C 0.72329 0.93661 0.58773 0.0
C703 C 0.71778 0.96855 0.5972 0.0
C704 C 0.69682 0.91499 0.58391 0.0
C705 C 0.6642 0.92489 0.58931 0.0
C706 C 0.65866 0.95711 0.59816 0.0
C707 C 0.68509 0.97862 0.60209 0.0
H708 H 0.66058 0.57984 0.59025 0.0
H709 H 0.56447 0.53634 0.57838 0.0
H710 H 0.63423 0.63416 0.59563 0.0
H711 H 0.53857 0.58994 0.58354 0.0
H712 H 0.50027 0.67693 0.62815 0.0
H713 H 0.53038 0.62589 0.62042 0.0
H714 H 0.59993 0.67832 0.57369 0.0
H715 H 0.57011 0.72986 0.58196 0.0
C716 C 0.634 0.58195 0.58835 0.0
C717 C 0.61459 0.55374 0.58422 0.0
C718 C 0.61892 0.61298 0.59146 0.0
C719 C 0.58425 0.61618 0.59052 0.0
C720 C 0.56523 0.58819 0.58503 0.0
C721 C 0.58016 0.55745 0.58194 0.0
C722 C 0.52215 0.67775 0.61646 0.0
C723 C 0.53262 0.70752 0.6056 0.0
C724 C 0.53926 0.6484 0.6118 0.0
C725 C 0.56738 0.648 0.59622 0.0
C726 C 0.5784 0.67785 0.58579 0.0
C727 C 0.5611 0.70728 0.59034 0.0
H728 H 0.76302 0.57771 0.58234 0.0
H729 H 0.82935 0.50882 0.61849 0.0
H730 H 0.80983 0.61303 0.57197 0.0
H731 H 0.87585 0.5446 0.60894 0.0
H732 H 0.95768 0.60388 0.57294 0.0
H733 H 0.91025 0.56659 0.57492 0.0
H734 H 0.84708 0.64862 0.59494 0.0
H735 H 0.89398 0.68564 0.59257 0.0
C736 C 0.78755 0.57003 0.58802 0.0
C737 C 0.79227 0.54052 0.60147 0.0
C738 C 0.81438 0.59038 0.58221 0.0
C739 C 0.84665 0.58169 0.58963 0.0
C740 C 0.85143 0.55189 0.60266 0.0
C741 C 0.82461 0.53161 0.60853 0.0
C742 C 0.93357 0.61399 0.57729 0.0
C743 C 0.92973 0.64768 0.58284 0.0
C744 C 0.90642 0.59259 0.57864 0.0
C745 C 0.87488 0.60455 0.58534 0.0
C746 C 0.87087 0.63854 0.58955 0.0
C747 C 0.89791 0.65978 0.58834 0.0
H748 H 0.94689 0.97107 0.58328 0.0
H749 H 0.85038 0.92581 0.58572 0.0
H750 H 0.97283 0.91745 0.5873 0.0
H751 H 0.87681 0.87133 0.59008 0.0
H752 H 0.94352 0.77777 0.57516 0.0
H753 H 0.91388 0.82972 0.56822 0.0
H754 H 0.97786 0.87792 0.62177 0.0
H755 H 0.00793 0.8266 0.6281 0.0
C756 C 0.93112 0.94959 0.58464 0.0
C757 C 0.8965 0.95279 0.58452 0.0
C758 C 0.94608 0.91879 0.58707 0.0
C759 C 0.92694 0.89017 0.58953 0.0
C760 C 0.89224 0.89299 0.58825 0.0
C761 C 0.87711 0.92411 0.58577 0.0
C762 C 0.9514 0.79953 0.58529 0.0
C763 C 0.9783 0.79802 0.60208 0.0
C764 C 0.93415 0.82918 0.58152 0.0
C765 C 0.94363 0.85799 0.5943 0.0
C766 C 0.97019 0.85628 0.61135 0.0
C767 C 0.98727 0.82674 0.61518 0.0
H768 H 0.20806 0.06383 0.8543 0.0
H769 H 0.21473 0.04019 0.93327 0.0
H770 H 0.15665 0.09452 0.86225 0.0
H771 H 0.16328 0.07027 0.94112 0.0
H772 H 0.04666 0.07375 0.92563 0.0
H773 H 0.10347 0.05363 0.92245 0.0
H774 H 0.1336 0.14698 0.89103 0.0
H775 H 0.07647 0.16767 0.89502 0.0
C776 C 0.19873 0.06557 0.87336 0.0
C777 C 0.21532 0.04962 0.89316 0.0
C778 C 0.16956 0.08329 0.87793 0.0
C779 C 0.15617 0.08475 0.9023 0.0
C780 C 0.17322 0.06958 0.92219 0.0
C781 C 0.20268 0.05248 0.91771 0.0
C782 C 0.06554 0.09019 0.91849 0.0
C783 C 0.05735 0.12223 0.91062 0.0
C784 C 0.09799 0.07872 0.91673 0.0
C785 C 0.12278 0.09877 0.90648 0.0
C786 C 0.11482 0.13112 0.89901 0.0
C787 C 0.08234 0.14296 0.90142 0.0
H788 H 0.33848 0.08609 0.89832 0.0
H789 H 0.43073 0.05763 0.93293 0.0
H790 H 0.359 0.1429 0.89392 0.0
H791 H 0.45078 0.11414 0.92913 0.0
H792 H 0.46657 0.22435 0.93643 0.0
H793 H 0.43655 0.17343 0.94508 0.0
H794 H 0.40919 0.16661 0.86679 0.0
H795 H 0.43961 0.21763 0.85808 0.0
C796 C 0.36276 0.09218 0.90551 0.0
C797 C 0.38306 0.06757 0.91597 0.0
C798 C 0.37456 0.12453 0.90284 0.0
C799 C 0.40646 0.13286 0.91119 0.0
C800 C 0.42601 0.1085 0.92271 0.0
C801 C 0.41458 0.07615 0.92482 0.0
C802 C 0.4536 0.21243 0.92117 0.0
C803 C 0.45556 0.22495 0.89654 0.0
C804 C 0.43656 0.18317 0.9261 0.0
C805 C 0.42058 0.16609 0.90661 0.0
C806 C 0.42108 0.17943 0.8822 0.0
C807 C 0.43865 0.20844 0.87718 0.0
H808 H 0.42584 0.35245 0.91468 0.0
H809 H 0.46925 0.44888 0.92457 0.0
H810 H 0.3715 0.37837 0.90861 0.0
H811 H 0.41548 0.47442 0.91863 0.0
H812 H 0.32783 0.50931 0.87208 0.0
H813 H 0.3794 0.48066 0.88128 0.0
H814 H 0.32725 0.41326 0.92995 0.0
H815 H 0.27528 0.44169 0.9203 0.0
C816 C 0.42373 0.37904 0.91599 0.0
C817 C 0.45194 0.3986 0.91982 0.0
C818 C 0.39265 0.39388 0.91249 0.0
C819 C 0.38936 0.42848 0.91269 0.0
C820 C 0.41733 0.44776 0.91778 0.0
C821 C 0.44815 0.43305 0.92132 0.0
C822 C 0.32724 0.48823 0.88455 0.0
C823 C 0.29743 0.47788 0.89549 0.0
C824 C 0.35686 0.47199 0.89004 0.0
C825 C 0.35744 0.44484 0.90652 0.0
C826 C 0.32757 0.43405 0.91715 0.0
C827 C 0.29789 0.45052 0.9118 0.0
H828 H 0.10316 0.45757 0.9252 0.0
H829 H 0.18062 0.39292 0.89837 0.0
H830 H 0.06472 0.41105 0.92546 0.0
H831 H 0.14238 0.34697 0.89818 0.0
H832 H 0.0724 0.26386 0.91565 0.0
H833 H 0.10985 0.30983 0.92331 0.0
H834 H 0.03684 0.37755 0.89394 0.0
H835 H 0.99902 0.33189 0.88723 0.0
C836 C 0.1121 0.43346 0.91962 0.0
C837 C 0.14492 0.42913 0.91154 0.0
C838 C 0.09002 0.40682 0.91959 0.0
C839 C 0.10035 0.37525 0.91165 0.0
C840 C 0.13355 0.37076 0.90465 0.0
C841 C 0.15549 0.39729 0.9046 0.0
C842 C 0.06415 0.28857 0.91112 0.0
C843 C 0.03272 0.29398 0.90059 0.0
C844 C 0.08574 0.31495 0.91534 0.0
C845 C 0.07645 0.34746 0.90918 0.0
C846 C 0.04475 0.35294 0.89917 0.0
C847 C 0.0232 0.32659 0.89494 0.0
H848 H 0.53673 0.15158 0.28847 0.0
H849 H 0.59887 0.07785 0.3232 0.0
H850 H 0.55551 0.13341 0.24678 0.0
H851 H 0.61698 0.0591 0.28144 0.0
H852 H 0.60708 0.01952 0.19696 0.0
H853 H 0.58617 0.03442 0.23861 0.0
H854 H 0.61885 0.1345 0.22764 0.0
H855 H 0.64176 0.11961 0.18684 0.0
C856 C 0.55391 0.1311 0.2871 0.0
C857 C 0.56637 0.11601 0.3089 0.0
C858 C 0.56474 0.12087 0.26336 0.0
C859 C 0.58763 0.09493 0.26106 0.0
C860 C 0.59918 0.07904 0.28282 0.0
C861 C 0.58893 0.08977 0.30659 0.0
C862 C 0.61041 0.04459 0.2035 0.0
C863 C 0.62609 0.06832 0.18826 0.0
C864 C 0.59816 0.05309 0.22727 0.0
C865 C 0.60068 0.08562 0.23607 0.0
C866 C 0.6162 0.10936 0.22102 0.0
C867 C 0.6291 0.10076 0.19753 0.0
H868 H 0.37528 0.62113 0.30899 0.0
H869 H 0.40783 0.52105 0.29489 0.0
H870 H 0.39453 0.63737 0.26794 0.0
H871 H 0.4241 0.53676 0.25249 0.0
H872 H 0.47748 0.58187 0.18504 0.0
H873 H 0.46217 0.56502 0.22741 0.0
H874 H 0.38086 0.63449 0.22624 0.0
H875 H 0.39806 0.65355 0.18537 0.0
C876 C 0.38664 0.60246 0.29724 0.0
C877 C 0.39014 0.56971 0.30563 0.0
C878 C 0.39709 0.61172 0.27326 0.0
C879 C 0.41058 0.58839 0.25653 0.0
C880 C 0.41416 0.55559 0.26483 0.0
C881 C 0.40428 0.54642 0.28911 0.0
C882 C 0.45666 0.59394 0.19398 0.0
C883 C 0.43909 0.61912 0.18151 0.0
C884 C 0.44751 0.58387 0.21822 0.0
C885 C 0.42028 0.5984 0.2305 0.0
C886 C 0.40241 0.6231 0.21779 0.0
C887 C 0.41192 0.6336 0.19389 0.0
H888 H 0.85357 0.39166 0.19166 0.0
H889 H 0.91457 0.47909 0.19603 0.0
H890 H 0.87482 0.37336 0.23122 0.0
H891 H 0.93182 0.46318 0.2378 0.0
H892 H 0.98097 0.41502 0.30447 0.0
H893 H 0.96346 0.43184 0.263 0.0
H894 H 0.87262 0.37709 0.27259 0.0
H895 H 0.89235 0.35612 0.31182 0.0
C896 C 0.87148 0.40725 0.20091 0.0
C897 C 0.88248 0.43687 0.18994 0.0
C898 C 0.88309 0.39704 0.22435 0.0
C899 C 0.90496 0.41677 0.23838 0.0
C900 C 0.9155 0.44677 0.22769 0.0
C901 C 0.90488 0.45637 0.20371 0.0
C902 C 0.95766 0.40572 0.29753 0.0
C903 C 0.93839 0.3839 0.31201 0.0
C904 C 0.94714 0.41612 0.27372 0.0
C905 C 0.91644 0.40598 0.26392 0.0
C906 C 0.89682 0.38494 0.27874 0.0
C907 C 0.90791 0.37351 0.302 0.0
H908 H 0.09064 0.98179 0.30523 0.0
H909 H 0.15566 0.89689 0.30677 0.0
H910 H 0.07285 0.96653 0.26313 0.0
H911 H 0.13516 0.87975 0.26643 0.0
H912 H 0.11952 0.86873 0.18466 0.0
H913 H 0.13817 0.88924 0.22462 0.0
H914 H 0.04158 0.93151 0.23846 0.0
H915 H 0.02398 0.91431 0.19681 0.0
C916 C 0.10107 0.95979 0.29679 0.0
C917 C 0.12463 0.94065 0.30979 0.0
C918 C 0.09037 0.95067 0.27268 0.0
C919 C 0.10248 0.92182 0.26103 0.0
C920 C 0.12565 0.90253 0.27425 0.0
C921 C 0.13692 0.91204 0.29795 0.0
C922 C 0.10232 0.8832 0.19571 0.0
C923 C 0.07012 0.88989 0.18702 0.0
C924 C 0.1129 0.89439 0.21919 0.0
C925 C 0.09136 0.91172 0.23529 0.0
C926 C 0.05914 0.91855 0.22666 0.0
C927 C 0.04878 0.90807 0.20279 0.0
H928 H 0.35273 0.90008 0.80719 0.0
H929 H 0.41675 0.98531 0.80446 0.0
H930 H 0.37348 0.88207 0.7671 0.0
H931 H 0.43478 0.96913 0.76257 0.0
H932 H 0.48482 0.91513 0.69746 0.0
H933 H 0.46666 0.93352 0.73869 0.0
H934 H 0.37064 0.89038 0.72515 0.0
H935 H 0.3899 0.86869 0.68567 0.0
C936 C 0.3713 0.91513 0.79815 0.0
C937 C 0.3833 0.94405 0.80959 0.0
C938 C 0.38271 0.9051 0.77459 0.0
C939 C 0.4057 0.92418 0.76114 0.0
C940 C 0.41743 0.95341 0.77234 0.0
C941 C 0.4066 0.96305 0.79631 0.0
C942 C 0.46004 0.90894 0.70344 0.0
C943 C 0.43905 0.89015 0.68791 0.0
C944 C 0.44934 0.92012 0.72705 0.0
C945 C 0.41712 0.9134 0.73562 0.0
C946 C 0.3959 0.89547 0.71974 0.0
C947 C 0.40683 0.88358 0.69655 0.0
H948 H 0.52491 0.37625 0.79323 0.0
H949 H 0.61919 0.40452 0.82485 0.0
H950 H 0.54323 0.39514 0.75197 0.0
H951 H 0.63773 0.42206 0.78334 0.0
H952 H 0.5808 0.46477 0.68799 0.0
H953 H 0.56104 0.4494 0.73 0.0
H954 H 0.64954 0.39168 0.74173 0.0
H955 H 0.66918 0.40687 0.6998 0.0
C956 C 0.54935 0.38682 0.79155 0.0
C957 C 0.57057 0.38869 0.81251 0.0
C958 C 0.55986 0.39749 0.76783 0.0
C959 C 0.59195 0.40985 0.76446 0.0
C960 C 0.61301 0.41219 0.78536 0.0
C961 C 0.60238 0.40198 0.80913 0.0
C962 C 0.596 0.44887 0.69962 0.0
C963 C 0.62644 0.4369 0.69066 0.0
C964 C 0.58463 0.43995 0.72354 0.0
C965 C 0.6038 0.41941 0.73909 0.0
C966 C 0.63439 0.40774 0.7302 0.0
C967 C 0.64549 0.41621 0.70616 0.0
H968 H 0.02405 0.58784 0.69104 0.0
H969 H 0.11583 0.64154 0.68388 0.0
H970 H 0.04016 0.5705 0.73306 0.0
H971 H 0.13325 0.62142 0.72443 0.0
H972 H 0.14418 0.61222 0.80741 0.0
H973 H 0.12506 0.62941 0.76652 0.0
H974 H 0.07387 0.53664 0.75752 0.0
H975 H 0.09025 0.52075 0.79984 0.0
C976 C 0.04772 0.59585 0.69825 0.0
C977 C 0.06847 0.61628 0.6838 0.0
C978 C 0.05725 0.58537 0.7223 0.0
C979 C 0.08803 0.5946 0.73243 0.0
C980 C 0.10904 0.61432 0.7177 0.0
C981 C 0.09925 0.62535 0.69398 0.0
C982 C 0.12817 0.59566 0.79712 0.0
C983 C 0.11862 0.5651 0.80732 0.0
C984 C 0.11773 0.6053 0.77322 0.0
C985 C 0.09813 0.58436 0.75833 0.0
C986 C 0.08863 0.55369 0.76842 0.0
C987 C 0.09853 0.5443 0.79264 0.0
H988 H 0.88456 0.15502 0.80843 0.0
H989 H 0.97734 0.1027 0.8005 0.0
H990 H 0.86708 0.13485 0.76801 0.0
H991 H 0.96129 0.08564 0.75843 0.0
H992 H 0.91167 0.03381 0.69283 0.0
H993 H 0.92871 0.051 0.7346 0.0
H994 H 0.87275 0.1414 0.72598 0.0
H995 H 0.85265 0.12254 0.6859 0.0
C996 C 0.90139 0.1392 0.79814 0.0
C997 C 0.93232 0.13023 0.80818 0.0
C998 C 0.89157 0.12817 0.77445 0.0
C999 C 0.91276 0.10871 0.75955 0.0
C1000 C 0.94396 0.10014 0.76936 0.0
C1001 C 0.95348 0.11049 0.79343 0.0
C1002 C 0.9024 0.05705 0.70004 0.0
C1003 C 0.88067 0.07664 0.68568 0.0
C1004 C 0.91275 0.06726 0.72393 0.0
C1005 C 0.90221 0.0977 0.73395 0.0
C1006 C 0.88097 0.11748 0.71937 0.0
C1007 C 0.86995 0.1069 0.69586 0.0
H1008 H 0.65267 0.12552 0.43186 0.0
H1009 H 0.60083 0.06265 0.48429 0.0
H1010 H 0.70503 0.10499 0.4476 0.0
H1011 H 0.65345 0.04349 0.50098 0.0
H1012 H 0.75348 0.00653 0.52423 0.0
H1013 H 0.70582 0.01419 0.49621 0.0
H1014 H 0.73287 0.11646 0.4862 0.0
H1015 H 0.78017 0.10858 0.51351 0.0
C1016 C 0.6522 0.10699 0.44646 0.0
C1017 C 0.6222 0.09633 0.45709 0.0
C1018 C 0.68243 0.09538 0.45567 0.0
C1019 C 0.68356 0.073 0.47587 0.0
C1020 C 0.65361 0.06064 0.48536 0.0
C1021 C 0.62334 0.07208 0.47603 0.0
C1022 C 0.74969 0.03027 0.51532 0.0
C1023 C 0.77037 0.05701 0.52107 0.0
C1024 C 0.72225 0.0348 0.49952 0.0
C1025 C 0.71532 0.06602 0.48906 0.0
C1026 C 0.7375 0.09199 0.49359 0.0
C1027 C 0.76459 0.08754 0.50941 0.0
H1028 H 0.46072 0.6045 0.46161 0.0
H1029 H 0.36018 0.6394 0.46595 0.0
H1030 H 0.48009 0.6559 0.48054 0.0
H1031 H 0.37881 0.68989 0.48602 0.0
H1032 H 0.41603 0.78618 0.51085 0.0
H1033 H 0.40479 0.74012 0.48258 0.0
H1034 H 0.48266 0.68384 0.51849 0.0
H1035 H 0.49503 0.73089 0.5453 0.0
C1036 C 0.44281 0.62321 0.46678 0.0
C1037 C 0.40902 0.61809 0.4623 0.0
C1038 C 0.4538 0.65265 0.47771 0.0
C1039 C 0.43114 0.67739 0.48488 0.0
C1040 C 0.39726 0.67206 0.48022 0.0
C1041 C 0.38642 0.64295 0.46886 0.0
C1042 C 0.43145 0.76431 0.5119 0.0
C1043 C 0.45665 0.76212 0.52989 0.0
C1044 C 0.42469 0.73764 0.49605 0.0
C1045 C 0.44225 0.70772 0.4985 0.0
C1046 C 0.46875 0.70639 0.51571 0.0
C1047 C 0.47599 0.73342 0.53113 0.0
H1048 H 0.91263 0.44819 0.48565 0.0
H1049 H 0.86163 0.37639 0.4398 0.0
H1050 H 0.8601 0.46527 0.50391 0.0
H1051 H 0.80924 0.39469 0.45704 0.0
H1052 H 0.7388 0.39358 0.5256 0.0
H1053 H 0.7855 0.38563 0.4977 0.0
H1054 H 0.80525 0.49036 0.49958 0.0
H1055 H 0.7582 0.4982 0.52822 0.0
C1056 C 0.89028 0.43633 0.47916 0.0
C1057 C 0.89173 0.41033 0.4616 0.0
C1058 C 0.86003 0.44652 0.48938 0.0
C1059 C 0.83043 0.43107 0.48219 0.0
C1060 C 0.83163 0.40672 0.46335 0.0
C1061 C 0.86184 0.3964 0.45324 0.0
C1062 C 0.7527 0.41505 0.51972 0.0
C1063 C 0.74498 0.44647 0.52919 0.0
C1064 C 0.77941 0.41053 0.50352 0.0
C1065 C 0.79927 0.43733 0.49639 0.0
C1066 C 0.7906 0.46915 0.50489 0.0
C1067 C 0.76352 0.47372 0.52107 0.0
H1068 H 0.05902 0.91578 0.47841 0.0
H1069 H 0.13688 0.85764 0.4448 0.0
H1070 H 0.03587 0.86613 0.49734 0.0
H1071 H 0.114 0.80792 0.46393 0.0
H1072 H 0.05916 0.72005 0.49652 0.0
H1073 H 0.06814 0.76759 0.46849 0.0
H1074 H 0.05688 0.83333 0.53203 0.0
H1075 H 0.04806 0.78625 0.55949 0.0
C1076 C 0.07096 0.8923 0.47486 0.0
C1077 C 0.10002 0.89071 0.46043 0.0
C1078 C 0.05772 0.86385 0.48567 0.0
C1079 C 0.07333 0.83309 0.48244 0.0
C1080 C 0.10117 0.83114 0.46662 0.0
C1081 C 0.11436 0.85968 0.45569 0.0
C1082 C 0.05771 0.74481 0.50414 0.0
C1083 C 0.05271 0.74975 0.52998 0.0
C1084 C 0.06314 0.77194 0.48824 0.0
C1085 C 0.06323 0.80429 0.49801 0.0
C1086 C 0.05648 0.80892 0.52373 0.0
C1087 C 0.05152 0.78196 0.53952 0.0
H1088 H 0.23875 1.00118 0.96471 0.0
H1089 H 0.27185 0.90086 0.97515 0.0
H1090 H 0.18896 0.98928 0.98952 0.0
H1091 H 0.22334 0.88926 0.00055 0.0
H1092 H 0.1163 0.86418 0.01168 0.0
H1093 H 0.16668 0.88105 0.99048 0.0
H1094 H 0.16386 0.97435 0.02984 0.0
H1095 H 0.11278 0.9574 0.05087 0.0
C1096 C 0.23581 0.97692 0.97292 0.0
C1097 C 0.25888 0.95183 0.9678 0.0
C1098 C 0.20731 0.97003 0.98708 0.0
C1099 C 0.20168 0.93802 0.99651 0.0
C1100 C 0.22623 0.91385 0.9929 0.0
C1101 C 0.25426 0.92058 0.97857 0.0
C1102 C 0.12646 0.88823 0.0159 0.0
C1103 C 0.11067 0.90927 0.03314 0.0
C1104 C 0.15548 0.89793 0.00382 0.0
C1105 C 0.1698 0.92888 0.00878 0.0
C1106 C 0.15352 0.95039 0.02552 0.0
C1107 C 0.12423 0.9407 0.03755 0.0
H1108 H 0.56591 0.09296 0.00409 0.0
H1109 H 0.6131 0.1456 0.06503 0.0
H1110 H 0.54785 0.14516 0.98608 0.0
H1111 H 0.59573 0.19773 0.04646 0.0
H1112 H 0.60713 0.27279 0.97906 0.0
H1113 H 0.61443 0.22453 0.00575 0.0
H1114 H 0.51248 0.19763 0.99355 0.0
H1115 H 0.50501 0.24681 0.96704 0.0
C1116 C 0.57211 0.11545 0.01392 0.0
C1117 C 0.59164 0.11481 0.03587 0.0
C1118 C 0.5616 0.14545 0.00357 0.0
C1119 C 0.57054 0.17552 0.01478 0.0
C1120 C 0.58879 0.17492 0.03725 0.0
C1121 C 0.59899 0.14497 0.04776 0.0
C1122 C 0.58604 0.25702 0.98256 0.0
C1123 C 0.55555 0.26337 0.9709 0.0
C1124 C 0.59019 0.22943 0.99791 0.0
C1125 C 0.56409 0.2072 0.00162 0.0
C1126 C 0.53307 0.21429 0.99088 0.0
C1127 C 0.52872 0.24245 0.97587 0.0
H1128 H 0.25433 0.50759 0.96941 0.0
H1129 H 0.23535 0.61239 0.96773 0.0
H1130 H 0.30195 0.51703 0.99719 0.0
H1131 H 0.28234 0.62185 0.99519 0.0
H1132 H 0.35874 0.63277 0.05338 0.0
H1133 H 0.30616 0.61367 0.03695 0.0
H1134 H 0.35714 0.54327 0.98976 0.0
H1135 H 0.40998 0.56159 0.00692 0.0
C1136 C 0.25977 0.53247 0.97556 0.0
C1137 C 0.24129 0.5593 0.96643 0.0
C1138 C 0.28716 0.53792 0.99123 0.0
C1139 C 0.29602 0.57021 -0.00167 0.0
C1140 C 0.27608 0.59666 0.99038 0.0
C1141 C 0.2492 0.59127 0.97453 0.0
C1142 C 0.3589 0.61261 0.04004 0.0
C1143 C 0.38881 0.59899 0.03129 0.0
C1144 C 0.32864 0.60184 0.03045 0.0
C1145 C 0.32744 0.57719 0.01185 0.0
C1146 C 0.35715 0.56218 0.00417 0.0
C1147 C 0.38748 0.57299 0.01376 0.0
H1148 H 0.94969 0.40176 0.01861 0.0
H1149 H 0.87767 0.35295 0.06566 0.0
H1150 H 0.96673 0.34868 0.00168 0.0
H1151 H 0.8961 0.29989 0.04984 0.0
H1152 H 0.89241 0.22972 0.98075 0.0
H1153 H 0.88604 0.27528 0.00985 0.0
H1154 H 0.99103 0.29423 0.00585 0.0
H1155 H 0.99721 0.24853 0.97593 0.0
C1156 C 0.93784 0.37975 0.02569 0.0
C1157 C 0.91161 0.38195 0.04302 0.0
C1158 C 0.94804 0.34917 0.01626 0.0
C1159 C 0.93244 0.31999 0.02411 0.0
C1160 C 0.90819 0.32196 0.04301 0.0
C1161 C 0.89779 0.35254 0.05228 0.0
C1162 C 0.91429 0.24314 0.98648 0.0
C1163 C 0.94523 0.23584 0.97589 0.0
C1164 C 0.9107 0.26917 0.00338 0.0
C1165 C 0.93799 0.28865 0.01011 0.0
C1166 C 0.96945 0.27994 0.00081 0.0
C1167 C 0.97306 0.25362 0.98388 0.0
H1168 H 0.26986 0.99659 0.46456 0.0
H1169 H 0.23966 0.89544 0.47449 0.0
H1170 H 0.31985 0.98566 0.48942 0.0
H1171 H 0.28841 0.88477 0.49988 0.0
H1172 H 0.39583 0.86225 0.5125 0.0
H1173 H 0.34548 0.87793 0.49062 0.0
H1174 H 0.34469 0.97132 0.5299 0.0
H1175 H 0.39575 0.95559 0.5516 0.0
C1176 C 0.2735 0.97232 0.47261 0.0
C1177 C 0.25111 0.94677 0.46738 0.0
C1178 C 0.30213 0.96599 0.48681 0.0
C1179 C 0.30863 0.93408 0.49617 0.0
C1180 C 0.28487 0.90933 0.49231 0.0
C1181 C 0.25669 0.91553 0.47796 0.0
C1182 C 0.38489 0.88607 0.51656 0.0
C1183 C 0.39966 0.90749 0.53398 0.0
C1184 C 0.35588 0.89509 0.50407 0.0
C1185 C 0.34055 0.9257 0.5088 0.0
C1186 C 0.35582 0.94761 0.52572 0.0
C1187 C 0.3851 0.93861 0.53816 0.0
H1188 H 0.51144 0.25281 0.47239 0.0
H1189 H 0.61697 0.23712 0.46865 0.0
H1190 H 0.52001 0.29675 0.50348 0.0
H1191 H 0.62553 0.28087 0.499 0.0
H1192 H 0.63713 0.35178 0.56031 0.0
H1193 H 0.61886 0.30011 0.54161 0.0
H1194 H 0.54274 0.35245 0.50079 0.0
H1195 H 0.56008 0.40387 0.52038 0.0
C1196 C 0.53635 0.25835 0.47852 0.0
C1197 C 0.56355 0.24178 0.46793 0.0
C1198 C 0.54129 0.28359 0.49619 0.0
C1199 C 0.57347 0.29241 0.5037 0.0
C1200 C 0.60039 0.27451 0.49398 0.0
C1201 C 0.59549 0.24959 0.47633 0.0
C1202 C 0.61587 0.35219 0.54798 0.0
C1203 C 0.60045 0.38212 0.54149 0.0
C1204 C 0.60558 0.32256 0.53704 0.0
C1205 C 0.57971 0.3222 0.51935 0.0
C1206 C 0.56268 0.35174 0.51437 0.0
C1207 C 0.57291 0.38133 0.52535 0.0
H1208 H 0.24436 0.51167 0.45982 0.0
H1209 H 0.27814 0.61064 0.47453 0.0
H1210 H 0.19447 0.52252 0.48487 0.0
H1211 H 0.22938 0.62123 0.50008 0.0
H1212 H 0.12172 0.64649 0.51107 0.0
H1213 H 0.17282 0.63086 0.49017 0.0
H1214 H 0.1689 0.53497 0.52549 0.0
H1215 H 0.11724 0.55068 0.54628 0.0
C1216 C 0.24163 0.53531 0.46913 0.0
C1217 C 0.26499 0.56036 0.46523 0.0
C1218 C 0.21301 0.54163 0.48338 0.0
C1219 C 0.20746 0.57305 0.49405 0.0
C1220 C 0.23222 0.59711 0.49154 0.0
C1221 C 0.26041 0.59094 0.47715 0.0
C1222 C 0.13181 0.62216 0.51454 0.0
C1223 C 0.11543 0.6 0.53053 0.0
C1224 C 0.16126 0.61315 0.5026 0.0
C1225 C 0.17542 0.58177 0.50642 0.0
C1226 C 0.1587 0.55927 0.52201 0.0
C1227 C 0.12904 0.56828 0.53392 0.0
H1228 H 0.9953 0.23636 0.45381 0.0
H1229 H 0.93191 0.29434 0.50172 0.0
H1230 H 0.98444 0.18766 0.47926 0.0
H1231 H 0.9225 0.2464 0.52848 0.0
H1232 H 0.86805 0.14917 0.54046 0.0
H1233 H 0.88975 0.20044 0.52393 0.0
H1234 H 0.98585 0.15466 0.51497 0.0
H1235 H 0.96307 0.10264 0.53048 0.0
C1236 C 0.98042 0.23892 0.47063 0.0
C1237 C 0.96461 0.26889 0.47603 0.0
C1238 C 0.974 0.21099 0.48525 0.0
C1239 C 0.95195 0.21274 0.50576 0.0
C1240 C 0.93872 0.24375 0.5124 0.0
C1241 C 0.94449 0.27139 0.49738 0.0
C1242 C 0.89392 0.15028 0.53532 0.0
C1243 C 0.91391 0.12203 0.5367 0.0
C1244 C 0.90657 0.1798 0.52596 0.0
C1245 C 0.93978 0.18203 0.51814 0.0
C1246 C 0.96007 0.15388 0.52039 0.0
C1247 C 0.94715 0.12411 0.52935 0.0
H1248 H 0.71034 0.08378 0.99576 0.0
H1249 H 0.76539 0.01283 0.03931 0.0
H1250 H 0.75835 0.09287 0.96896 0.0
H1251 H 0.81438 0.02348 0.01394 0.0
H1252 H 0.89955 0.04515 0.96175 0.0
H1253 H 0.84702 0.02393 0.97779 0.0
H1254 H 0.8061 0.12263 0.97483 0.0
H1255 H 0.85775 0.14295 0.95787 0.0
C1256 C 0.7326 0.06952 -0.00089 0.0
C1257 C 0.73425 0.04748 0.01935 0.0
C1258 C 0.76036 0.07511 0.9841 0.0
C1259 C 0.79077 0.05973 0.98966 0.0
C1260 C 0.79154 0.03573 0.00886 0.0
C1261 C 0.76341 0.02948 0.02344 0.0
C1262 C 0.87904 0.06204 0.96437 0.0
C1263 C 0.88259 0.0956 0.95844 0.0
C1264 C 0.84897 0.04998 0.97361 0.0
C1265 C 0.82196 0.0714 0.97754 0.0
C1266 C 0.82574 0.10501 0.97141 0.0
C1267 C 0.85552 0.11685 0.9618 0.0
H1268 H 0.45365 0.91073 0.96737 0.0
H1269 H 0.35879 0.8654 0.95556 0.0
H1270 H 0.47558 0.85858 0.98348 0.0
H1271 H 0.37937 0.81403 0.97308 0.0
H1272 H 0.42087 0.71922 0.99621 0.0
H1273 H 0.41056 0.76754 0.97012 0.0
H1274 H 0.47521 0.82486 0.01805 0.0
H1275 H 0.48741 0.77554 0.04256 0.0
C1276 C 0.43758 0.88944 0.96828 0.0
C1277 C 0.40467 0.89188 0.96016 0.0
C1278 C 0.44997 0.85959 0.97767 0.0
C1279 C 0.42941 0.83169 0.97975 0.0
C1280 C 0.39647 0.83436 0.97125 0.0
C1281 C 0.38442 0.86394 0.96132 0.0
C1282 C 0.43368 0.74199 0.00048 0.0
C1283 C 0.45503 0.74379 0.02117 0.0
C1284 C 0.42738 0.76992 0.98584 0.0
C1285 C 0.44121 0.80069 0.99224 0.0
C1286 C 0.46419 0.80181 0.01221 0.0
C1287 C 0.47128 0.77352 0.02636 0.0
H1288 H 0.77735 0.39659 0.02228 0.0
H1289 H 0.75536 0.50082 0.02452 0.0
H1290 H 0.73212 0.38786 0.9932 0.0
H1291 H 0.70977 0.4922 0.99476 0.0
H1292 H 0.60344 0.44721 0.9826 0.0
H1293 H 0.65591 0.46628 -0.00056 0.0
H1294 H 0.70756 0.39587 0.95257 0.0
H1295 H 0.65489 0.37577 0.93659 0.0
C1296 C 0.76324 0.41782 0.01603 0.0
C1297 C 0.76964 0.44932 0.02585 0.0
C1298 C 0.73741 0.41286 -0.00087 0.0
C1299 C 0.7171 0.43928 0.99168 0.0
C1300 C 0.72476 0.47126 0.00032 0.0
C1301 C 0.75098 0.47628 0.01718 0.0
C1302 C 0.626 0.43596 0.97572 0.0
C1303 C 0.62483 0.40941 0.95868 0.0
C1304 C 0.65618 0.44726 0.98512 0.0
C1305 C 0.686 0.43233 0.97763 0.0
C1306 C 0.685 0.40754 0.95907 0.0
C1307 C 0.65476 0.39618 0.94972 0.0
H1308 H 0.11151 0.77151 0.0244 0.0
H1309 H 0.00905 0.744 0.03155 0.0
H1310 H 0.12161 0.72386 0.99767 0.0
H1311 H 0.01935 0.69501 0.00549 0.0
H1312 H 0.04915 0.61896 0.94364 0.0
H1313 H 0.03423 0.67028 0.96532 0.0
H1314 H 0.12681 0.66678 0.0058 0.0
H1315 H 0.1417 0.61632 0.98389 0.0
C1316 C 0.09101 0.75539 0.01992 0.0
C1317 C 0.05956 0.76136 0.03009 0.0
C1318 C 0.09685 0.7278 0.00485 0.0
C1319 C 0.07155 0.70495 -5e-05 0.0
C1320 C 0.03945 0.71203 0.00885 0.0
C1321 C 0.03347 0.74013 0.02372 0.0
C1322 C 0.06613 0.62913 0.95731 0.0
C1323 C 0.0968 0.61375 0.96184 0.0
C1324 C 0.05761 0.65856 0.96973 0.0
C1325 C 0.07953 0.67313 0.98702 0.0
C1326 C 0.10969 0.65701 0.99204 0.0
C1327 C 0.11824 0.6279 0.97956 0.0
loop_
_geom_bond_atom_site_label_1
_geom_bond_atom_site_label_2
_geom_bond_distance
_geom_bond_site_symmetry_2
_ccdc_geom_bond_type
C0 C1 1.351 . S
C0 N3 1.368 . S
C0 H5 0.931 . S
C1 C0 1.351 . S
C1 N2 1.373 . S
C1 H29 0.930 . S
N2 C1 1.373 . S
N2 C4 1.340 . S
N3 C0 1.368 . S
N3 C4 1.321 . S
N3 Co6 2.135 . S
C4 N2 1.340 . S
C4 N3 1.321 . S
C4 H28 0.930 . S
H5 C0 0.931 . S
Co6 N3 2.135 . S
Co6 N9 2.121 . S
Co6 O14 2.055 . S
Co6 O17 2.039 . S
Co6 N20 2.140 . S
C7 O8 1.227 . S
C7 O17 1.265 . S
O8 C7 1.227 . S
N9 Co6 2.121 . S
N9 C11 1.375 . S
N9 C12 1.313 . S
C10 C11 1.338 . S
C10 N13 1.377 . S
C10 H30 0.930 . S
C11 N9 1.375 . S
C11 C10 1.338 . S
C11 H15 0.931 . S
C12 N9 1.313 . S
C12 N13 1.344 . S
C12 H16 0.930 . S
N13 C10 1.377 . S
N13 C12 1.344 . S
O14 Co6 2.055 . S
O14 C18 1.253 . S
H15 C11 0.931 . S
H16 C12 0.930 . S
O17 Co6 2.039 . S
O17 C7 1.265 . S
C18 O14 1.253 . S
C18 O19 1.227 . S
O19 C18 1.227 . S
N20 Co6 2.140 . S
N20 C23 1.346 . S
N20 C24 1.345 . S
C21 C22 1.387 . S
C21 C25 1.391 . S
C22 C21 1.387 . S
C22 C23 1.369 . S
C22 H31 0.929 . S
C23 N20 1.346 . S
C23 C22 1.369 . S
C23 H26 0.928 . S
C24 N20 1.345 . S
C24 C25 1.371 . S
C24 H27 0.931 . S
C25 C21 1.391 . S
C25 C24 1.371 . S
C25 H32 0.930 . S
H26 C23 0.928 . S
H27 C24 0.931 . S
H28 C4 0.930 . S
H29 C1 0.930 . S
H30 C10 0.930 . S
H31 C22 0.929 . S
H32 C25 0.930 . S
C33 C34 1.351 . S
C33 N36 1.368 . S
C33 H38 0.931 . S
C34 C33 1.351 . S
C34 N35 1.373 . S
C34 H62 0.930 . S
N35 C34 1.373 . S
N35 C37 1.340 . S
N36 C33 1.368 . S
N36 C37 1.321 . S
N36 Co39 2.135 . S
C37 N35 1.340 . S
C37 N36 1.321 . S
C37 H61 0.930 . S
H38 C33 0.931 . S
Co39 N36 2.135 . S
Co39 N42 2.121 . S
Co39 O47 2.055 . S
Co39 O50 2.039 . S
Co39 N53 2.140 . S
C40 O41 1.227 . S
C40 O50 1.265 . S
O41 C40 1.227 . S
N42 Co39 2.121 . S
N42 C44 1.375 . S
N42 C45 1.313 . S
C43 C44 1.338 . S
C43 N46 1.377 . S
C43 H63 0.930 . S
C44 N42 1.375 . S
C44 C43 1.338 . S
C44 H48 0.931 . S
C45 N42 1.313 . S
C45 N46 1.344 . S
C45 H49 0.930 . S
N46 C43 1.377 . S
N46 C45 1.344 . S
O47 Co39 2.055 . S
O47 C51 1.253 . S
H48 C44 0.931 . S
H49 C45 0.930 . S
O50 Co39 2.039 . S
O50 C40 1.265 . S
C51 O47 1.253 . S
C51 O52 1.227 . S
O52 C51 1.227 . S
N53 Co39 2.140 . S
N53 C56 1.346 . S
N53 C57 1.345 . S
C54 C55 1.387 . S
C54 C58 1.391 . S
C55 C54 1.387 . S
C55 C56 1.369 . S
C55 H64 0.929 . S
C56 N53 1.346 . S
C56 C55 1.369 . S
C56 H59 0.928 . S
C57 N53 1.345 . S
C57 C58 1.371 . S
C57 H60 0.931 . S
C58 C54 1.391 . S
C58 C57 1.371 . S
C58 H65 0.930 . S
H59 C56 0.928 . S
H60 C57 0.931 . S
H61 C37 0.930 . S
H62 C34 0.930 . S
H63 C43 0.930 . S
H64 C55 0.929 . S
H65 C58 0.930 . S
C66 C67 1.351 . S
C66 N69 1.368 . S
C66 H71 0.931 . S
C67 C66 1.351 . S
C67 N68 1.373 1_655 S
C67 H95 0.930 . S
N68 C67 1.373 1_455 S
N68 C70 1.340 . S
N69 C66 1.368 . S
N69 C70 1.321 1_655 S
N69 Co72 2.135 . S
C70 N68 1.340 . S
C70 N69 1.321 1_455 S
C70 H94 0.930 . S
H71 C66 0.931 . S
Co72 N69 2.135 . S
Co72 N75 2.121 . S
Co72 O80 2.055 . S
Co72 O83 2.039 1_655 S
Co72 N86 2.140 . S
C73 O74 1.227 . S
C73 O83 1.265 . S
O74 C73 1.227 . S
N75 Co72 2.121 . S
N75 C77 1.375 . S
N75 C78 1.313 . S
C76 C77 1.338 . S
C76 N79 1.377 . S
C76 H96 0.930 . S
C77 N75 1.375 . S
C77 C76 1.338 . S
C77 H81 0.931 . S
C78 N75 1.313 . S
C78 N79 1.344 . S
C78 H82 0.930 . S
N79 C76 1.377 . S
N79 C78 1.344 . S
O80 Co72 2.055 . S
O80 C84 1.253 . S
H81 C77 0.931 . S
H82 C78 0.930 . S
O83 Co72 2.039 1_455 S
O83 C73 1.265 . S
C84 O80 1.253 . S
C84 O85 1.227 . S
O85 C84 1.227 . S
N86 Co72 2.140 . S
N86 C89 1.346 . S
N86 C90 1.345 . S
C87 C88 1.387 . S
C87 C91 1.391 . S
C88 C87 1.387 . S
C88 C89 1.369 . S
C88 H97 0.929 . S
C89 N86 1.346 . S
C89 C88 1.369 . S
C89 H92 0.928 . S
C90 N86 1.345 . S
C90 C91 1.371 . S
C90 H93 0.931 . S
C91 C87 1.391 . S
C91 C90 1.371 . S
C91 H98 0.930 . S
H92 C89 0.928 . S
H93 C90 0.931 . S
H94 C70 0.930 . S
H95 C67 0.930 . S
H96 C76 0.930 . S
H97 C88 0.929 . S
H98 C91 0.930 . S
C99 C100 1.351 . S
C99 N102 1.368 . S
C99 H104 0.931 . S
C100 C99 1.351 . S
C100 N101 1.373 1_565 S
C100 H128 0.930 . S
N101 C100 1.373 1_545 S
N101 C103 1.340 . S
N102 C99 1.368 . S
N102 C103 1.321 1_565 S
N102 Co105 2.135 . S
C103 N101 1.340 . S
C103 N102 1.321 1_545 S
C103 H127 0.930 . S
H104 C99 0.931 . S
Co105 N102 2.135 . S
Co105 N108 2.121 . S
Co105 O113 2.055 . S
Co105 O116 2.039 1_565 S
Co105 N119 2.140 . S
C106 O107 1.227 . S
C106 O116 1.265 . S
O107 C106 1.227 . S
N108 Co105 2.121 . S
N108 C110 1.375 . S
N108 C111 1.313 . S
C109 C110 1.338 . S
C109 N112 1.377 . S
C109 H129 0.930 . S
C110 N108 1.375 . S
C110 C109 1.338 . S
C110 H114 0.931 . S
C111 N108 1.313 . S
C111 N112 1.344 . S
C111 H115 0.930 . S
N112 C109 1.377 . S
N112 C111 1.344 . S
O113 Co105 2.055 . S
O113 C117 1.253 . S
H114 C110 0.931 . S
H115 C111 0.930 . S
O116 Co105 2.039 1_545 S
O116 C106 1.265 . S
C117 O113 1.253 . S
C117 O118 1.227 . S
O118 C117 1.227 . S
N119 Co105 2.140 . S
N119 C122 1.346 . S
N119 C123 1.345 . S
C120 C121 1.387 . S
C120 C124 1.391 . S
C121 C120 1.387 . S
C121 C122 1.369 . S
C121 H130 0.929 . S
C122 N119 1.346 . S
C122 C121 1.369 . S
C122 H125 0.928 . S
C123 N119 1.345 . S
C123 C124 1.371 . S
C123 H126 0.931 . S
C124 C120 1.391 . S
C124 C123 1.371 . S
C124 H131 0.930 . S
H125 C122 0.928 . S
H126 C123 0.931 . S
H127 C103 0.930 . S
H128 C100 0.930 . S
H129 C109 0.930 . S
H130 C121 0.929 . S
H131 C124 0.930 . S
C132 C133 1.351 . S
C132 N135 1.368 . S
C132 H137 0.931 . S
C133 C132 1.351 . S
C133 N134 1.373 1_455 S
C133 H161 0.930 . S
N134 C133 1.373 1_655 S
N134 C136 1.340 . S
N135 C132 1.368 . S
N135 C136 1.321 1_455 S
N135 Co138 2.135 . S
C136 N134 1.340 . S
C136 N135 1.321 1_655 S
C136 H160 0.930 . S
H137 C132 0.931 . S
Co138 N135 2.135 . S
Co138 N141 2.121 . S
Co138 O146 2.055 . S
Co138 O149 2.039 1_455 S
Co138 N152 2.140 . S
C139 O140 1.227 . S
C139 O149 1.265 . S
O140 C139 1.227 . S
N141 Co138 2.121 . S
N141 C143 1.375 . S
N141 C144 1.313 . S
C142 C143 1.338 . S
C142 N145 1.377 . S
C142 H162 0.930 . S
C143 N141 1.375 . S
C143 C142 1.338 . S
C143 H147 0.931 . S
C144 N141 1.313 . S
C144 N145 1.344 . S
C144 H148 0.930 . S
N145 C142 1.377 . S
N145 C144 1.344 . S
O146 Co138 2.055 . S
O146 C150 1.253 . S
H147 C143 0.931 . S
H148 C144 0.930 . S
O149 Co138 2.039 1_655 S
O149 C139 1.265 . S
C150 O146 1.253 . S
C150 O151 1.227 . S
O151 C150 1.227 . S
N152 Co138 2.140 . S
N152 C155 1.346 . S
N152 C156 1.345 . S
C153 C154 1.387 . S
C153 C157 1.391 . S
C154 C153 1.387 . S
C154 C155 1.369 . S
C154 H163 0.929 . S
C155 N152 1.346 . S
C155 C154 1.369 . S
C155 H158 0.928 . S
C156 N152 1.345 . S
C156 C157 1.371 . S
C156 H159 0.931 . S
C157 C153 1.391 . S
C157 C156 1.371 . S
C157 H164 0.930 . S
H158 C155 0.928 . S
H159 C156 0.931 . S
H160 C136 0.930 . S
H161 C133 0.930 . S
H162 C142 0.930 . S
H163 C154 0.929 . S
H164 C157 0.930 . S
C165 C166 1.351 . S
C165 N168 1.368 . S
C165 H170 0.931 . S
C166 C165 1.351 . S
C166 N167 1.373 1_545 S
C166 H194 0.930 . S
N167 C166 1.373 1_565 S
N167 C169 1.340 . S
N168 C165 1.368 . S
N168 C169 1.321 1_545 S
N168 Co171 2.135 . S
C169 N167 1.340 . S
C169 N168 1.321 1_565 S
C169 H193 0.930 . S
H170 C165 0.931 . S
Co171 N168 2.135 . S
Co171 N174 2.121 . S
Co171 O179 2.055 . S
Co171 O182 2.039 1_545 S
Co171 N185 2.140 . S
C172 O173 1.227 . S
C172 O182 1.265 . S
O173 C172 1.227 . S
N174 Co171 2.121 . S
N174 C176 1.375 . S
N174 C177 1.313 . S
C175 C176 1.338 . S
C175 N178 1.377 . S
C175 H195 0.930 . S
C176 N174 1.375 . S
C176 C175 1.338 . S
C176 H180 0.931 . S
C177 N174 1.313 . S
C177 N178 1.344 . S
C177 H181 0.930 . S
N178 C175 1.377 . S
N178 C177 1.344 . S
O179 Co171 2.055 . S
O179 C183 1.253 . S
H180 C176 0.931 . S
H181 C177 0.930 . S
O182 Co171 2.039 1_565 S
O182 C172 1.265 . S
C183 O179 1.253 . S
C183 O184 1.227 . S
O184 C183 1.227 . S
N185 Co171 2.140 . S
N185 C188 1.346 . S
N185 C189 1.345 . S
C186 C187 1.387 . S
C186 C190 1.391 . S
C187 C186 1.387 . S
C187 C188 1.369 . S
C187 H196 0.929 . S
C188 N185 1.346 . S
C188 C187 1.369 . S
C188 H191 0.928 . S
C189 N185 1.345 . S
C189 C190 1.371 . S
C189 H192 0.931 . S
C190 C186 1.391 . S
C190 C189 1.371 . S
C190 H197 0.930 . S
H191 C188 0.928 . S
H192 C189 0.931 . S
H193 C169 0.930 . S
H194 C166 0.930 . S
H195 C175 0.930 . S
H196 C187 0.929 . S
H197 C190 0.930 . S
C198 C199 1.351 . S
C198 N201 1.368 . S
C198 H203 0.931 . S
C199 C198 1.351 . S
C199 N200 1.373 . S
C199 H227 0.930 . S
N200 C199 1.373 . S
N200 C202 1.340 . S
N201 C198 1.368 . S
N201 C202 1.321 . S
N201 Co204 2.135 . S
C202 N200 1.340 . S
C202 N201 1.321 . S
C202 H226 0.930 . S
H203 C198 0.931 . S
Co204 N201 2.135 . S
Co204 N207 2.121 . S
Co204 O212 2.055 . S
Co204 O215 2.039 . S
Co204 N218 2.140 . S
C205 O206 1.227 . S
C205 O215 1.265 . S
O206 C205 1.227 . S
N207 Co204 2.121 . S
N207 C209 1.375 . S
N207 C210 1.313 . S
C208 C209 1.338 . S
C208 N211 1.377 . S
C208 H228 0.930 . S
C209 N207 1.375 . S
C209 C208 1.338 . S
C209 H213 0.931 . S
C210 N207 1.313 . S
C210 N211 1.344 . S
C210 H214 0.930 . S
N211 C208 1.377 . S
N211 C210 1.344 . S
O212 Co204 2.055 . S
O212 C216 1.253 . S
H213 C209 0.931 . S
H214 C210 0.930 . S
O215 Co204 2.039 . S
O215 C205 1.265 . S
C216 O212 1.253 . S
C216 O217 1.227 . S
O217 C216 1.227 . S
N218 Co204 2.140 . S
N218 C221 1.346 . S
N218 C222 1.345 . S
C219 C220 1.387 . S
C219 C223 1.391 . S
C220 C219 1.387 . S
C220 C221 1.369 . S
C220 H229 0.929 . S
C221 N218 1.346 . S
C221 C220 1.369 . S
C221 H224 0.928 . S
C222 N218 1.345 . S
C222 C223 1.371 . S
C222 H225 0.931 . S
C223 C219 1.391 . S
C223 C222 1.371 . S
C223 H230 0.930 . S
H224 C221 0.928 . S
H225 C222 0.931 . S
H226 C202 0.930 . S
H227 C199 0.930 . S
H228 C208 0.930 . S
H229 C220 0.929 . S
H230 C223 0.930 . S
C231 C232 1.351 . S
C231 N234 1.368 . S
C231 H236 0.931 . S
C232 C231 1.351 . S
C232 N233 1.373 . S
C232 H260 0.930 . S
N233 C232 1.373 . S
N233 C235 1.340 . S
N234 C231 1.368 . S
N234 C235 1.321 . S
N234 Co237 2.135 . S
C235 N233 1.340 . S
C235 N234 1.321 . S
C235 H259 0.930 . S
H236 C231 0.931 . S
Co237 N234 2.135 . S
Co237 N240 2.121 . S
Co237 O245 2.055 . S
Co237 O248 2.039 . S
Co237 N251 2.140 . S
C238 O239 1.227 . S
C238 O248 1.265 . S
O239 C238 1.227 . S
N240 Co237 2.121 . S
N240 C242 1.375 . S
N240 C243 1.313 . S
C241 C242 1.338 . S
C241 N244 1.377 . S
C241 H261 0.930 . S
C242 N240 1.375 . S
C242 C241 1.338 . S
C242 H246 0.931 . S
C243 N240 1.313 . S
C243 N244 1.344 . S
C243 H247 0.930 . S
N244 C241 1.377 . S
N244 C243 1.344 . S
O245 Co237 2.055 . S
O245 C249 1.253 . S
H246 C242 0.931 . S
H247 C243 0.930 . S
O248 Co237 2.039 . S
O248 C238 1.265 . S
C249 O245 1.253 . S
C249 O250 1.227 . S
O250 C249 1.227 . S
N251 Co237 2.140 . S
N251 C254 1.346 . S
N251 C255 1.345 . S
C252 C253 1.387 . S
C252 C256 1.391 . S
C253 C252 1.387 . S
C253 C254 1.369 . S
C253 H262 0.929 . S
C254 N251 1.346 . S
C254 C253 1.369 . S
C254 H257 0.928 . S
C255 N251 1.345 . S
C255 C256 1.371 . S
C255 H258 0.931 . S
C256 C252 1.391 . S
C256 C255 1.371 . S
C256 H263 0.930 . S
H257 C254 0.928 . S
H258 C255 0.931 . S
H259 C235 0.930 . S
H260 C232 0.930 . S
H261 C241 0.930 . S
H262 C253 0.929 . S
H263 C256 0.930 . S
C264 C265 1.351 . S
C264 N267 1.368 . S
C264 H269 0.931 . S
C265 C264 1.351 . S
C265 N266 1.373 . S
C265 H293 0.930 . S
N266 C265 1.373 . S
N266 C268 1.340 . S
N267 C264 1.368 . S
N267 C268 1.321 . S
N267 Co270 2.135 . S
C268 N266 1.340 . S
C268 N267 1.321 . S
C268 H292 0.930 . S
H269 C264 0.931 . S
Co270 N267 2.135 . S
Co270 N273 2.121 . S
Co270 O278 2.055 . S
Co270 O281 2.039 . S
Co270 N284 2.140 . S
C271 O272 1.227 . S
C271 O281 1.265 . S
O272 C271 1.227 . S
N273 Co270 2.121 . S
N273 C275 1.375 . S
N273 C276 1.313 . S
C274 C275 1.338 . S
C274 N277 1.377 . S
C274 H294 0.930 . S
C275 N273 1.375 . S
C275 C274 1.338 . S
C275 H279 0.931 . S
C276 N273 1.313 . S
C276 N277 1.344 . S
C276 H280 0.930 . S
N277 C274 1.377 . S
N277 C276 1.344 . S
O278 Co270 2.055 . S
O278 C282 1.253 . S
H279 C275 0.931 . S
H280 C276 0.930 . S
O281 Co270 2.039 . S
O281 C271 1.265 . S
C282 O278 1.253 . S
C282 O283 1.227 . S
O283 C282 1.227 . S
N284 Co270 2.140 . S
N284 C287 1.346 . S
N284 C288 1.345 . S
C285 C286 1.387 . S
C285 C289 1.391 . S
C286 C285 1.387 . S
C286 C287 1.369 . S
C286 H295 0.929 . S
C287 N284 1.346 . S
C287 C286 1.369 . S
C287 H290 0.928 . S
C288 N284 1.345 . S
C288 C289 1.371 . S
C288 H291 0.931 . S
C289 C285 1.391 . S
C289 C288 1.371 . S
C289 H296 0.930 . S
H290 C287 0.928 . S
H291 C288 0.931 . S
H292 C268 0.930 . S
H293 C265 0.930 . S
H294 C274 0.930 . S
H295 C286 0.929 . S
H296 C289 0.930 . S
C297 C298 1.351 . S
C297 N300 1.368 . S
C297 H302 0.931 . S
C298 C297 1.351 . S
C298 N299 1.373 . S
C298 H326 0.930 . S
N299 C298 1.373 . S
N299 C301 1.340 . S
N300 C297 1.368 . S
N300 C301 1.321 . S
N300 Co303 2.135 . S
C301 N299 1.340 . S
C301 N300 1.321 . S
C301 H325 0.930 . S
H302 C297 0.931 . S
Co303 N300 2.135 . S
Co303 N306 2.121 . S
Co303 O311 2.055 . S
Co303 O314 2.039 . S
Co303 N317 2.140 . S
C304 O305 1.227 . S
C304 O314 1.265 . S
O305 C304 1.227 . S
N306 Co303 2.121 . S
N306 C308 1.375 . S
N306 C309 1.313 . S
C307 C308 1.338 . S
C307 N310 1.377 . S
C307 H327 0.930 . S
C308 N306 1.375 . S
C308 C307 1.338 . S
C308 H312 0.931 . S
C309 N306 1.313 . S
C309 N310 1.344 . S
C309 H313 0.930 . S
N310 C307 1.377 . S
N310 C309 1.344 . S
O311 Co303 2.055 . S
O311 C315 1.253 . S
H312 C308 0.931 . S
H313 C309 0.930 . S
O314 Co303 2.039 . S
O314 C304 1.265 . S
C315 O311 1.253 . S
C315 O316 1.227 . S
O316 C315 1.227 . S
N317 Co303 2.140 . S
N317 C320 1.346 . S
N317 C321 1.345 . S
C318 C319 1.387 . S
C318 C322 1.391 . S
C319 C318 1.387 . S
C319 C320 1.369 . S
C319 H328 0.929 . S
C320 N317 1.346 . S
C320 C319 1.369 . S
C320 H323 0.928 . S
C321 N317 1.345 . S
C321 C322 1.371 . S
C321 H324 0.931 . S
C322 C318 1.391 . S
C322 C321 1.371 . S
C322 H329 0.930 . S
H323 C320 0.928 . S
H324 C321 0.931 . S
H325 C301 0.930 . S
H326 C298 0.930 . S
H327 C307 0.930 . S
H328 C319 0.929 . S
H329 C322 0.930 . S
C330 C331 1.351 . S
C330 N333 1.368 . S
C330 H335 0.931 . S
C331 C330 1.351 . S
C331 N332 1.373 1_455 S
C331 H359 0.930 . S
N332 C331 1.373 1_655 S
N332 C334 1.340 . S
N333 C330 1.368 . S
N333 C334 1.321 1_455 S
N333 Co336 2.135 . S
C334 N332 1.340 . S
C334 N333 1.321 1_655 S
C334 H358 0.930 . S
H335 C330 0.931 . S
Co336 N333 2.135 . S
Co336 N339 2.121 . S
Co336 O344 2.055 . S
Co336 O347 2.039 1_455 S
Co336 N350 2.140 . S
C337 O338 1.227 . S
C337 O347 1.265 . S
O338 C337 1.227 . S
N339 Co336 2.121 . S
N339 C341 1.375 . S
N339 C342 1.313 . S
C340 C341 1.338 . S
C340 N343 1.377 . S
C340 H360 0.930 . S
C341 N339 1.375 . S
C341 C340 1.338 . S
C341 H345 0.931 . S
C342 N339 1.313 . S
C342 N343 1.344 . S
C342 H346 0.930 . S
N343 C340 1.377 . S
N343 C342 1.344 . S
O344 Co336 2.055 . S
O344 C348 1.253 . S
H345 C341 0.931 . S
H346 C342 0.930 . S
O347 Co336 2.039 1_655 S
O347 C337 1.265 . S
C348 O344 1.253 . S
C348 O349 1.227 . S
O349 C348 1.227 . S
N350 Co336 2.140 . S
N350 C353 1.346 . S
N350 C354 1.345 . S
C351 C352 1.387 . S
C351 C355 1.391 . S
C352 C351 1.387 . S
C352 C353 1.369 . S
C352 H361 0.929 . S
C353 N350 1.346 . S
C353 C352 1.369 . S
C353 H356 0.928 . S
C354 N350 1.345 . S
C354 C355 1.371 . S
C354 H357 0.931 . S
C355 C351 1.391 . S
C355 C354 1.371 . S
C355 H362 0.930 . S
H356 C353 0.928 . S
H357 C354 0.931 . S
H358 C334 0.930 . S
H359 C331 0.930 . S
H360 C340 0.930 . S
H361 C352 0.929 . S
H362 C355 0.930 . S
C363 C364 1.351 . S
C363 N366 1.368 . S
C363 H368 0.931 . S
C364 C363 1.351 . S
C364 N365 1.373 1_545 S
C364 H392 0.930 . S
N365 C364 1.373 1_565 S
N365 C367 1.340 . S
N366 C363 1.368 . S
N366 C367 1.321 1_545 S
N366 Co369 2.135 . S
C367 N365 1.340 . S
C367 N366 1.321 1_565 S
C367 H391 0.930 . S
H368 C363 0.931 . S
Co369 N366 2.135 . S
Co369 N372 2.121 . S
Co369 O377 2.055 . S
Co369 O380 2.039 1_545 S
Co369 N383 2.140 . S
C370 O371 1.227 . S
C370 O380 1.265 . S
O371 C370 1.227 . S
N372 Co369 2.121 . S
N372 C374 1.375 . S
N372 C375 1.313 . S
C373 C374 1.338 . S
C373 N376 1.377 . S
C373 H393 0.930 . S
C374 N372 1.375 . S
C374 C373 1.338 . S
C374 H378 0.931 . S
C375 N372 1.313 . S
C375 N376 1.344 . S
C375 H379 0.930 . S
N376 C373 1.377 . S
N376 C375 1.344 . S
O377 Co369 2.055 . S
O377 C381 1.253 . S
H378 C374 0.931 . S
H379 C375 0.930 . S
O380 Co369 2.039 1_565 S
O380 C370 1.265 . S
C381 O377 1.253 . S
C381 O382 1.227 . S
O382 C381 1.227 . S
N383 Co369 2.140 . S
N383 C386 1.346 . S
N383 C387 1.345 . S
C384 C385 1.387 . S
C384 C388 1.391 . S
C385 C384 1.387 . S
C385 C386 1.369 . S
C385 H394 0.929 . S
C386 N383 1.346 . S
C386 C385 1.369 . S
C386 H389 0.928 . S
C387 N383 1.345 . S
C387 C388 1.371 . S
C387 H390 0.931 . S
C388 C384 1.391 . S
C388 C387 1.371 . S
C388 H395 0.930 . S
H389 C386 0.928 . S
H390 C387 0.931 . S
H391 C367 0.930 . S
H392 C364 0.930 . S
H393 C373 0.930 . S
H394 C385 0.929 . S
H395 C388 0.930 . S
C396 C397 1.351 . S
C396 N399 1.368 . S
C396 H401 0.931 . S
C397 C396 1.351 . S
C397 N398 1.373 1_655 S
C397 H425 0.930 . S
N398 C397 1.373 1_455 S
N398 C400 1.340 . S
N399 C396 1.368 . S
N399 C400 1.321 1_655 S
N399 Co402 2.135 . S
C400 N398 1.340 . S
C400 N399 1.321 1_455 S
C400 H424 0.930 . S
H401 C396 0.931 . S
Co402 N399 2.135 . S
Co402 N405 2.121 . S
Co402 O410 2.055 . S
Co402 O413 2.039 1_655 S
Co402 N416 2.140 . S
C403 O404 1.227 . S
C403 O413 1.265 . S
O404 C403 1.227 . S
N405 Co402 2.121 . S
N405 C407 1.375 . S
N405 C408 1.313 . S
C406 C407 1.338 . S
C406 N409 1.377 . S
C406 H426 0.930 . S
C407 N405 1.375 . S
C407 C406 1.338 . S
C407 H411 0.931 . S
C408 N405 1.313 . S
C408 N409 1.344 . S
C408 H412 0.930 . S
N409 C406 1.377 . S
N409 C408 1.344 . S
O410 Co402 2.055 . S
O410 C414 1.253 . S
H411 C407 0.931 . S
H412 C408 0.930 . S
O413 Co402 2.039 1_455 S
O413 C403 1.265 . S
C414 O410 1.253 . S
C414 O415 1.227 . S
O415 C414 1.227 . S
N416 Co402 2.140 . S
N416 C419 1.346 . S
N416 C420 1.345 . S
C417 C418 1.387 . S
C417 C421 1.391 . S
C418 C417 1.387 . S
C418 C419 1.369 . S
C418 H427 0.929 . S
C419 N416 1.346 . S
C419 C418 1.369 . S
C419 H422 0.928 . S
C420 N416 1.345 . S
C420 C421 1.371 . S
C420 H423 0.931 . S
C421 C417 1.391 . S
C421 C420 1.371 . S
C421 H428 0.930 . S
H422 C419 0.928 . S
H423 C420 0.931 . S
H424 C400 0.930 . S
H425 C397 0.930 . S
H426 C406 0.930 . S
H427 C418 0.929 . S
H428 C421 0.930 . S
C429 C430 1.351 . S
C429 N432 1.368 . S
C429 H434 0.931 . S
C430 C429 1.351 . S
C430 N431 1.373 1_565 S
C430 H458 0.930 . S
N431 C430 1.373 1_545 S
N431 C433 1.340 . S
N432 C429 1.368 . S
N432 C433 1.321 1_565 S
N432 Co435 2.135 . S
C433 N431 1.340 . S
C433 N432 1.321 1_545 S
C433 H457 0.930 . S
H434 C429 0.931 . S
Co435 N432 2.135 . S
Co435 N438 2.121 . S
Co435 O443 2.055 . S
Co435 O446 2.039 1_565 S
Co435 N449 2.140 . S
C436 O437 1.227 . S
C436 O446 1.265 . S
O437 C436 1.227 . S
N438 Co435 2.121 . S
N438 C440 1.375 . S
N438 C441 1.313 . S
C439 C440 1.338 . S
C439 N442 1.377 . S
C439 H459 0.930 . S
C440 N438 1.375 . S
C440 C439 1.338 . S
C440 H444 0.931 . S
C441 N438 1.313 . S
C441 N442 1.344 . S
C441 H445 0.930 . S
N442 C439 1.377 . S
N442 C441 1.344 . S
O443 Co435 2.055 . S
O443 C447 1.253 . S
H444 C440 0.931 . S
H445 C441 0.930 . S
O446 Co435 2.039 1_545 S
O446 C436 1.265 . S
C447 O443 1.253 . S
C447 O448 1.227 . S
O448 C447 1.227 . S
N449 Co435 2.140 . S
N449 C452 1.346 . S
N449 C453 1.345 . S
C450 C451 1.387 . S
C450 C454 1.391 . S
C451 C450 1.387 . S
C451 C452 1.369 . S
C451 H460 0.929 . S
C452 N449 1.346 . S
C452 C451 1.369 . S
C452 H455 0.928 . S
C453 N449 1.345 . S
C453 C454 1.371 . S
C453 H456 0.931 . S
C454 C450 1.391 . S
C454 C453 1.371 . S
C454 H461 0.930 . S
H455 C452 0.928 . S
H456 C453 0.931 . S
H457 C433 0.930 . S
H458 C430 0.930 . S
H459 C439 0.930 . S
H460 C451 0.929 . S
H461 C454 0.930 . S
C462 C463 1.351 . S
C462 N465 1.368 . S
C462 H467 0.931 . S
C463 C462 1.351 . S
C463 N464 1.373 . S
C463 H491 0.930 . S
N464 C463 1.373 . S
N464 C466 1.340 . S
N465 C462 1.368 . S
N465 C466 1.321 . S
N465 Co468 2.135 . S
C466 N464 1.340 . S
C466 N465 1.321 . S
C466 H490 0.930 . S
H467 C462 0.931 . S
Co468 N465 2.135 . S
Co468 N471 2.121 . S
Co468 O476 2.055 . S
Co468 O479 2.039 . S
Co468 N482 2.140 . S
C469 O470 1.227 . S
C469 O479 1.265 . S
O470 C469 1.227 . S
N471 Co468 2.121 . S
N471 C473 1.375 . S
N471 C474 1.313 . S
C472 C473 1.338 . S
C472 N475 1.377 . S
C472 H492 0.930 . S
C473 N471 1.375 . S
C473 C472 1.338 . S
C473 H477 0.931 . S
C474 N471 1.313 . S
C474 N475 1.344 . S
C474 H478 0.930 . S
N475 C472 1.377 . S
N475 C474 1.344 . S
O476 Co468 2.055 . S
O476 C480 1.253 . S
H477 C473 0.931 . S
H478 C474 0.930 . S
O479 Co468 2.039 . S
O479 C469 1.265 . S
C480 O476 1.253 . S
C480 O481 1.227 . S
O481 C480 1.227 . S
N482 Co468 2.140 . S
N482 C485 1.346 . S
N482 C486 1.345 . S
C483 C484 1.387 . S
C483 C487 1.391 . S
C484 C483 1.387 . S
C484 C485 1.369 . S
C484 H493 0.929 . S
C485 N482 1.346 . S
C485 C484 1.369 . S
C485 H488 0.928 . S
C486 N482 1.345 . S
C486 C487 1.371 . S
C486 H489 0.931 . S
C487 C483 1.391 . S
C487 C486 1.371 . S
C487 H494 0.930 . S
H488 C485 0.928 . S
H489 C486 0.931 . S
H490 C466 0.930 . S
H491 C463 0.930 . S
H492 C472 0.930 . S
H493 C484 0.929 . S
H494 C487 0.930 . S
C495 C496 1.351 . S
C495 N498 1.368 . S
C495 H500 0.931 . S
C496 C495 1.351 . S
C496 N497 1.373 . S
C496 H524 0.930 . S
N497 C496 1.373 . S
N497 C499 1.340 . S
N498 C495 1.368 . S
N498 C499 1.321 . S
N498 Co501 2.135 . S
C499 N497 1.340 . S
C499 N498 1.321 . S
C499 H523 0.930 . S
H500 C495 0.931 . S
Co501 N498 2.135 . S
Co501 N504 2.121 . S
Co501 O509 2.055 . S
Co501 O512 2.039 . S
Co501 N515 2.140 . S
C502 O503 1.227 . S
C502 O512 1.265 . S
O503 C502 1.227 . S
N504 Co501 2.121 . S
N504 C506 1.375 . S
N504 C507 1.313 . S
C505 C506 1.338 . S
C505 N508 1.377 . S
C505 H525 0.930 . S
C506 N504 1.375 . S
C506 C505 1.338 . S
C506 H510 0.931 . S
C507 N504 1.313 . S
C507 N508 1.344 . S
C507 H511 0.930 . S
N508 C505 1.377 . S
N508 C507 1.344 . S
O509 Co501 2.055 . S
O509 C513 1.253 . S
H510 C506 0.931 . S
H511 C507 0.930 . S
O512 Co501 2.039 . S
O512 C502 1.265 . S
C513 O509 1.253 . S
C513 O514 1.227 . S
O514 C513 1.227 . S
N515 Co501 2.140 . S
N515 C518 1.346 . S
N515 C519 1.345 . S
C516 C517 1.387 . S
C516 C520 1.391 . S
C517 C516 1.387 . S
C517 C518 1.369 . S
C517 H526 0.929 . S
C518 N515 1.346 . S
C518 C517 1.369 . S
C518 H521 0.928 . S
C519 N515 1.345 . S
C519 C520 1.371 . S
C519 H522 0.931 . S
C520 C516 1.391 . S
C520 C519 1.371 . S
C520 H527 0.930 . S
H521 C518 0.928 . S
H522 C519 0.931 . S
H523 C499 0.930 . S
H524 C496 0.930 . S
H525 C505 0.930 . S
H526 C517 0.929 . S
H527 C520 0.930 . S
H528 C536 0.950 . S
H529 C541 0.950 . S
H530 C538 0.950 . S
H531 C540 0.950 . S
H532 C542 0.950 . S
H533 C544 0.950 . S
H534 C546 0.950 . S
H535 C547 0.950 . S
C536 H528 0.950 . S
C536 C537 1.386 . S
C536 C538 1.391 . S
C537 C536 1.386 . S
C537 C541 1.393 . S
C538 H530 0.950 . S
C538 C536 1.391 . S
C538 C539 1.400 . S
C539 C538 1.400 . S
C539 C540 1.398 . S
C539 C545 1.491 . S
C540 H531 0.950 . S
C540 C539 1.398 . S
C540 C541 1.391 . S
C541 H529 0.950 . S
C541 C537 1.393 . S
C541 C540 1.391 . S
C542 H532 0.950 . S
C542 C543 1.386 . S
C542 C544 1.391 . S
C543 C542 1.386 . S
C543 C547 1.393 . S
C544 H533 0.950 . S
C544 C542 1.391 . S
C544 C545 1.400 . S
C545 C539 1.491 . S
C545 C544 1.400 . S
C545 C546 1.398 . S
C546 H534 0.950 . S
C546 C545 1.398 . S
C546 C547 1.391 . S
C547 H535 0.950 . S
C547 C543 1.393 . S
C547 C546 1.391 . S
H548 C556 0.950 . S
H549 C561 0.950 . S
H550 C558 0.950 . S
H551 C560 0.950 . S
H552 C562 0.950 . S
H553 C564 0.950 . S
H554 C566 0.950 . S
H555 C567 0.950 . S
C556 H548 0.950 . S
C556 C557 1.386 . S
C556 C558 1.391 . S
C557 C556 1.386 . S
C557 C561 1.393 . S
C558 H550 0.950 . S
C558 C556 1.391 . S
C558 C559 1.400 . S
C559 C558 1.400 . S
C559 C560 1.398 . S
C559 C565 1.491 . S
C560 H551 0.950 . S
C560 C559 1.398 . S
C560 C561 1.391 . S
C561 H549 0.950 . S
C561 C557 1.393 . S
C561 C560 1.391 . S
C562 H552 0.950 . S
C562 C563 1.386 . S
C562 C564 1.391 . S
C563 C562 1.386 . S
C563 C567 1.393 . S
C564 H553 0.950 . S
C564 C562 1.391 . S
C564 C565 1.400 . S
C565 C559 1.491 . S
C565 C564 1.400 . S
C565 C566 1.398 . S
C566 H554 0.950 . S
C566 C565 1.398 . S
C566 C567 1.391 . S
C567 H555 0.950 . S
C567 C563 1.393 . S
C567 C566 1.391 . S
H568 C576 0.950 . S
H569 C581 0.950 . S
H570 C578 0.950 . S
H571 C580 0.950 . S
H572 C582 0.950 . S
H573 C584 0.950 . S
H574 C586 0.950 . S
H575 C587 0.950 . S
C576 H568 0.950 . S
C576 C577 1.386 . S
C576 C578 1.391 . S
C577 C576 1.386 . S
C577 C581 1.393 . S
C578 H570 0.950 . S
C578 C576 1.391 . S
C578 C579 1.400 . S
C579 C578 1.400 . S
C579 C580 1.398 . S
C579 C585 1.491 . S
C580 H571 0.950 . S
C580 C579 1.398 . S
C580 C581 1.391 . S
C581 H569 0.950 . S
C581 C577 1.393 . S
C581 C580 1.391 . S
C582 H572 0.950 . S
C582 C583 1.386 . S
C582 C584 1.391 . S
C583 C582 1.386 . S
C583 C587 1.393 . S
C584 H573 0.950 . S
C584 C582 1.391 . S
C584 C585 1.400 . S
C585 C579 1.491 . S
C585 C584 1.400 . S
C585 C586 1.398 . S
C586 H574 0.950 . S
C586 C585 1.398 . S
C586 C587 1.391 . S
C587 H575 0.950 . S
C587 C583 1.393 . S
C587 C586 1.391 . S
H588 C596 0.950 . S
H589 C601 0.950 . S
H590 C598 0.950 . S
H591 C600 0.950 . S
H592 C602 0.950 . S
H593 C604 0.950 . S
H594 C606 0.950 . S
H595 C607 0.950 . S
C596 H588 0.950 . S
C596 C597 1.386 . S
C596 C598 1.391 . S
C597 C596 1.386 . S
C597 C601 1.393 . S
C598 H590 0.950 . S
C598 C596 1.391 . S
C598 C599 1.400 . S
C599 C598 1.400 . S
C599 C600 1.398 . S
C599 C605 1.491 . S
C600 H591 0.950 . S
C600 C599 1.398 . S
C600 C601 1.391 . S
C601 H589 0.950 . S
C601 C597 1.393 . S
C601 C600 1.391 . S
C602 H592 0.950 . S
C602 C603 1.386 . S
C602 C604 1.391 . S
C603 C602 1.386 . S
C603 C607 1.393 . S
C604 H593 0.950 . S
C604 C602 1.391 . S
C604 C605 1.400 . S
C605 C599 1.491 . S
C605 C604 1.400 . S
C605 C606 1.398 . S
C606 H594 0.950 . S
C606 C605 1.398 . S
C606 C607 1.391 . S
C607 H595 0.950 . S
C607 C603 1.393 . S
C607 C606 1.391 . S
H608 C616 0.950 . S
H609 C621 0.950 . S
H610 C618 0.950 . S
H611 C620 0.950 . S
H612 C622 0.950 . S
H613 C624 0.950 . S
H614 C626 0.950 . S
H615 C627 0.950 . S
C616 H608 0.950 . S
C616 C617 1.386 . S
C616 C618 1.391 . S
C617 C616 1.386 . S
C617 C621 1.393 . S
C618 H610 0.950 . S
C618 C616 1.391 . S
C618 C619 1.400 . S
C619 C618 1.400 . S
C619 C620 1.398 . S
C619 C625 1.491 . S
C620 H611 0.950 . S
C620 C619 1.398 . S
C620 C621 1.391 . S
C621 H609 0.950 . S
C621 C617 1.393 . S
C621 C620 1.391 . S
C622 H612 0.950 . S
C622 C623 1.386 . S
C622 C624 1.391 . S
C623 C622 1.386 . S
C623 C627 1.393 . S
C624 H613 0.950 . S
C624 C622 1.391 . S
C624 C625 1.400 . S
C625 C619 1.491 . S
C625 C624 1.400 . S
C625 C626 1.398 . S
C626 H614 0.950 . S
C626 C625 1.398 . S
C626 C627 1.391 . S
C627 H615 0.950 . S
C627 C623 1.393 . S
C627 C626 1.391 . S
H628 C636 0.950 . S
H629 C641 0.950 . S
H630 C638 0.950 . S
H631 C640 0.950 . S
H632 C642 0.950 . S
H633 C644 0.950 . S
H634 C646 0.950 . S
H635 C647 0.950 . S
C636 H628 0.950 . S
C636 C637 1.386 . S
C636 C638 1.391 . S
C637 C636 1.386 . S
C637 C641 1.393 . S
C638 H630 0.950 . S
C638 C636 1.391 . S
C638 C639 1.400 . S
C639 C638 1.400 . S
C639 C640 1.398 . S
C639 C645 1.491 . S
C640 H631 0.950 . S
C640 C639 1.398 . S
C640 C641 1.391 . S
C641 H629 0.950 . S
C641 C637 1.393 . S
C641 C640 1.391 . S
C642 H632 0.950 . S
C642 C643 1.386 . S
C642 C644 1.391 . S
C643 C642 1.386 . S
C643 C647 1.393 . S
C644 H633 0.950 . S
C644 C642 1.391 . S
C644 C645 1.400 . S
C645 C639 1.491 . S
C645 C644 1.400 . S
C645 C646 1.398 . S
C646 H634 0.950 . S
C646 C645 1.398 . S
C646 C647 1.391 . S
C647 H635 0.950 . S
C647 C643 1.393 . S
C647 C646 1.391 . S
H648 C656 0.950 . S
H649 C661 0.950 . S
H650 C658 0.950 . S
H651 C660 0.950 . S
H652 C662 0.950 . S
H653 C664 0.950 . S
H654 C666 0.950 . S
H655 C667 0.950 . S
C656 H648 0.950 . S
C656 C657 1.386 . S
C656 C658 1.391 . S
C657 C656 1.386 . S
C657 C661 1.393 . S
C658 H650 0.950 . S
C658 C656 1.391 . S
C658 C659 1.400 . S
C659 C658 1.400 . S
C659 C660 1.398 . S
C659 C665 1.491 . S
C660 H651 0.950 . S
C660 C659 1.398 . S
C660 C661 1.391 . S
C661 H649 0.950 . S
C661 C657 1.393 . S
C661 C660 1.391 . S
C662 H652 0.950 . S
C662 C663 1.386 . S
C662 C664 1.391 . S
C663 C662 1.386 . S
C663 C667 1.393 . S
C664 H653 0.950 . S
C664 C662 1.391 . S
C664 C665 1.400 . S
C665 C659 1.491 . S
C665 C664 1.400 . S
C665 C666 1.398 . S
C666 H654 0.950 . S
C666 C665 1.398 . S
C666 C667 1.391 . S
C667 H655 0.950 . S
C667 C663 1.393 . S
C667 C666 1.391 . S
H668 C676 0.950 . S
H669 C681 0.950 . S
H670 C678 0.950 . S
H671 C680 0.950 . S
H672 C682 0.950 . S
H673 C684 0.950 . S
H674 C686 0.950 . S
H675 C687 0.950 . S
C676 H668 0.950 . S
C676 C677 1.386 . S
C676 C678 1.391 . S
C677 C676 1.386 . S
C677 C681 1.393 . S
C678 H670 0.950 . S
C678 C676 1.391 . S
C678 C679 1.400 . S
C679 C678 1.400 . S
C679 C680 1.398 . S
C679 C685 1.491 . S
C680 H671 0.950 . S
C680 C679 1.398 . S
C680 C681 1.391 . S
C681 H669 0.950 . S
C681 C677 1.393 . S
C681 C680 1.391 . S
C682 H672 0.950 . S
C682 C683 1.386 . S
C682 C684 1.391 . S
C683 C682 1.386 . S
C683 C687 1.393 . S
C684 H673 0.950 . S
C684 C682 1.391 . S
C684 C685 1.400 . S
C685 C679 1.491 . S
C685 C684 1.400 . S
C685 C686 1.398 . S
C686 H674 0.950 . S
C686 C685 1.398 . S
C686 C687 1.391 . S
C687 H675 0.950 . S
C687 C683 1.393 . S
C687 C686 1.391 . S
H688 C696 0.950 . S
H689 C701 0.950 . S
H690 C698 0.950 . S
H691 C700 0.950 . S
H692 C702 0.950 . S
H693 C704 0.950 . S
H694 C706 0.950 . S
H695 C707 0.950 . S
C696 H688 0.950 . S
C696 C697 1.386 . S
C696 C698 1.391 . S
C697 C696 1.386 . S
C697 C701 1.393 . S
C698 H690 0.950 . S
C698 C696 1.391 . S
C698 C699 1.400 . S
C699 C698 1.400 . S
C699 C700 1.398 . S
C699 C705 1.491 . S
C700 H691 0.950 . S
C700 C699 1.398 . S
C700 C701 1.391 . S
C701 H689 0.950 . S
C701 C697 1.393 . S
C701 C700 1.391 . S
C702 H692 0.950 . S
C702 C703 1.386 . S
C702 C704 1.391 . S
C703 C702 1.386 . S
C703 C707 1.393 . S
C704 H693 0.950 . S
C704 C702 1.391 . S
C704 C705 1.400 . S
C705 C699 1.491 . S
C705 C704 1.400 . S
C705 C706 1.398 . S
C706 H694 0.950 . S
C706 C705 1.398 . S
C706 C707 1.391 . S
C707 H695 0.950 . S
C707 C703 1.393 . S
C707 C706 1.391 . S
H708 C716 0.950 . S
H709 C721 0.950 . S
H710 C718 0.950 . S
H711 C720 0.950 . S
H712 C722 0.950 . S
H713 C724 0.950 . S
H714 C726 0.950 . S
H715 C727 0.950 . S
C716 H708 0.950 . S
C716 C717 1.386 . S
C716 C718 1.391 . S
C717 C716 1.386 . S
C717 C721 1.393 . S
C718 H710 0.950 . S
C718 C716 1.391 . S
C718 C719 1.400 . S
C719 C718 1.400 . S
C719 C720 1.398 . S
C719 C725 1.491 . S
C720 H711 0.950 . S
C720 C719 1.398 . S
C720 C721 1.391 . S
C721 H709 0.950 . S
C721 C717 1.393 . S
C721 C720 1.391 . S
C722 H712 0.950 . S
C722 C723 1.386 . S
C722 C724 1.391 . S
C723 C722 1.386 . S
C723 C727 1.393 . S
C724 H713 0.950 . S
C724 C722 1.391 . S
C724 C725 1.400 . S
C725 C719 1.491 . S
C725 C724 1.400 . S
C725 C726 1.398 . S
C726 H714 0.950 . S
C726 C725 1.398 . S
C726 C727 1.391 . S
C727 H715 0.950 . S
C727 C723 1.393 . S
C727 C726 1.391 . S
H728 C736 0.950 . S
H729 C741 0.950 . S
H730 C738 0.950 . S
H731 C740 0.950 . S
H732 C742 0.950 . S
H733 C744 0.950 . S
H734 C746 0.950 . S
H735 C747 0.950 . S
C736 H728 0.950 . S
C736 C737 1.386 . S
C736 C738 1.391 . S
C737 C736 1.386 . S
C737 C741 1.393 . S
C738 H730 0.950 . S
C738 C736 1.391 . S
C738 C739 1.400 . S
C739 C738 1.400 . S
C739 C740 1.398 . S
C739 C745 1.491 . S
C740 H731 0.950 . S
C740 C739 1.398 . S
C740 C741 1.391 . S
C741 H729 0.950 . S
C741 C737 1.393 . S
C741 C740 1.391 . S
C742 H732 0.950 . S
C742 C743 1.386 . S
C742 C744 1.391 . S
C743 C742 1.386 . S
C743 C747 1.393 . S
C744 H733 0.950 . S
C744 C742 1.391 . S
C744 C745 1.400 . S
C745 C739 1.491 . S
C745 C744 1.400 . S
C745 C746 1.398 . S
C746 H734 0.950 . S
C746 C745 1.398 . S
C746 C747 1.391 . S
C747 H735 0.950 . S
C747 C743 1.393 . S
C747 C746 1.391 . S
H748 C756 0.950 . S
H749 C761 0.950 . S
H750 C758 0.950 . S
H751 C760 0.950 . S
H752 C762 0.950 . S
H753 C764 0.950 . S
H754 C766 0.950 . S
H755 C767 0.950 . S
C756 H748 0.950 . S
C756 C757 1.386 . S
C756 C758 1.391 . S
C757 C756 1.386 . S
C757 C761 1.393 . S
C758 H750 0.950 . S
C758 C756 1.391 . S
C758 C759 1.400 . S
C759 C758 1.400 . S
C759 C760 1.398 . S
C759 C765 1.491 . S
C760 H751 0.950 . S
C760 C759 1.398 . S
C760 C761 1.391 . S
C761 H749 0.950 . S
C761 C757 1.393 . S
C761 C760 1.391 . S
C762 H752 0.950 . S
C762 C763 1.386 . S
C762 C764 1.391 . S
C763 C762 1.386 . S
C763 C767 1.393 . S
C764 H753 0.950 . S
C764 C762 1.391 . S
C764 C765 1.400 . S
C765 C759 1.491 . S
C765 C764 1.400 . S
C765 C766 1.398 . S
C766 H754 0.950 . S
C766 C765 1.398 . S
C766 C767 1.391 . S
C767 H755 0.950 . S
C767 C763 1.393 . S
C767 C766 1.391 . S
H768 C776 0.950 . S
H769 C781 0.950 . S
H770 C778 0.950 . S
H771 C780 0.950 . S
H772 C782 0.950 . S
H773 C784 0.950 . S
H774 C786 0.950 . S
H775 C787 0.950 . S
C776 H768 0.950 . S
C776 C777 1.386 . S
C776 C778 1.391 . S
C777 C776 1.386 . S
C777 C781 1.393 . S
C778 H770 0.950 . S
C778 C776 1.391 . S
C778 C779 1.400 . S
C779 C778 1.400 . S
C779 C780 1.398 . S
C779 C785 1.491 . S
C780 H771 0.950 . S
C780 C779 1.398 . S
C780 C781 1.391 . S
C781 H769 0.950 . S
C781 C777 1.393 . S
C781 C780 1.391 . S
C782 H772 0.950 . S
C782 C783 1.386 . S
C782 C784 1.391 . S
C783 C782 1.386 . S
C783 C787 1.393 . S
C784 H773 0.950 . S
C784 C782 1.391 . S
C784 C785 1.400 . S
C785 C779 1.491 . S
C785 C784 1.400 . S
C785 C786 1.398 . S
C786 H774 0.950 . S
C786 C785 1.398 . S
C786 C787 1.391 . S
C787 H775 0.950 . S
C787 C783 1.393 . S
C787 C786 1.391 . S
H788 C796 0.950 . S
H789 C801 0.950 . S
H790 C798 0.950 . S
H791 C800 0.950 . S
H792 C802 0.950 . S
H793 C804 0.950 . S
H794 C806 0.950 . S
H795 C807 0.950 . S
C796 H788 0.950 . S
C796 C797 1.386 . S
C796 C798 1.391 . S
C797 C796 1.386 . S
C797 C801 1.393 . S
C798 H790 0.950 . S
C798 C796 1.391 . S
C798 C799 1.400 . S
C799 C798 1.400 . S
C799 C800 1.398 . S
C799 C805 1.491 . S
C800 H791 0.950 . S
C800 C799 1.398 . S
C800 C801 1.391 . S
C801 H789 0.950 . S
C801 C797 1.393 . S
C801 C800 1.391 . S
C802 H792 0.950 . S
C802 C803 1.386 . S
C802 C804 1.391 . S
C803 C802 1.386 . S
C803 C807 1.393 . S
C804 H793 0.950 . S
C804 C802 1.391 . S
C804 C805 1.400 . S
C805 C799 1.491 . S
C805 C804 1.400 . S
C805 C806 1.398 . S
C806 H794 0.950 . S
C806 C805 1.398 . S
C806 C807 1.391 . S
C807 H795 0.950 . S
C807 C803 1.393 . S
C807 C806 1.391 . S
H808 C816 0.950 . S
H809 C821 0.950 . S
H810 C818 0.950 . S
H811 C820 0.950 . S
H812 C822 0.950 . S
H813 C824 0.950 . S
H814 C826 0.950 . S
H815 C827 0.950 . S
C816 H808 0.950 . S
C816 C817 1.386 . S
C816 C818 1.391 . S
C817 C816 1.386 . S
C817 C821 1.393 . S
C818 H810 0.950 . S
C818 C816 1.391 . S
C818 C819 1.400 . S
C819 C818 1.400 . S
C819 C820 1.398 . S
C819 C825 1.491 . S
C820 H811 0.950 . S
C820 C819 1.398 . S
C820 C821 1.391 . S
C821 H809 0.950 . S
C821 C817 1.393 . S
C821 C820 1.391 . S
C822 H812 0.950 . S
C822 C823 1.386 . S
C822 C824 1.391 . S
C823 C822 1.386 . S
C823 C827 1.393 . S
C824 H813 0.950 . S
C824 C822 1.391 . S
C824 C825 1.400 . S
C825 C819 1.491 . S
C825 C824 1.400 . S
C825 C826 1.398 . S
C826 H814 0.950 . S
C826 C825 1.398 . S
C826 C827 1.391 . S
C827 H815 0.950 . S
C827 C823 1.393 . S
C827 C826 1.391 . S
H828 C836 0.950 . S
H829 C841 0.950 . S
H830 C838 0.950 . S
H831 C840 0.950 . S
H832 C842 0.950 . S
H833 C844 0.950 . S
H834 C846 0.950 . S
H835 C847 0.950 . S
C836 H828 0.950 . S
C836 C837 1.386 . S
C836 C838 1.391 . S
C837 C836 1.386 . S
C837 C841 1.393 . S
C838 H830 0.950 . S
C838 C836 1.391 . S
C838 C839 1.400 . S
C839 C838 1.400 . S
C839 C840 1.398 . S
C839 C845 1.491 . S
C840 H831 0.950 . S
C840 C839 1.398 . S
C840 C841 1.391 . S
C841 H829 0.950 . S
C841 C837 1.393 . S
C841 C840 1.391 . S
C842 H832 0.950 . S
C842 C843 1.386 . S
C842 C844 1.391 . S
C843 C842 1.386 . S
C843 C847 1.393 . S
C844 H833 0.950 . S
C844 C842 1.391 . S
C844 C845 1.400 . S
C845 C839 1.491 . S
C845 C844 1.400 . S
C845 C846 1.398 . S
C846 H834 0.950 . S
C846 C845 1.398 . S
C846 C847 1.391 . S
C847 H835 0.950 . S
C847 C843 1.393 . S
C847 C846 1.391 . S
H848 C856 0.950 . S
H849 C861 0.950 . S
H850 C858 0.950 . S
H851 C860 0.950 . S
H852 C862 0.950 . S
H853 C864 0.950 . S
H854 C866 0.950 . S
H855 C867 0.950 . S
C856 H848 0.950 . S
C856 C857 1.386 . S
C856 C858 1.391 . S
C857 C856 1.386 . S
C857 C861 1.393 . S
C858 H850 0.950 . S
C858 C856 1.391 . S
C858 C859 1.400 . S
C859 C858 1.400 . S
C859 C860 1.398 . S
C859 C865 1.491 . S
C860 H851 0.950 . S
C860 C859 1.398 . S
C860 C861 1.391 . S
C861 H849 0.950 . S
C861 C857 1.393 . S
C861 C860 1.391 . S
C862 H852 0.950 . S
C862 C863 1.386 . S
C862 C864 1.391 . S
C863 C862 1.386 . S
C863 C867 1.393 . S
C864 H853 0.950 . S
C864 C862 1.391 . S
C864 C865 1.400 . S
C865 C859 1.491 . S
C865 C864 1.400 . S
C865 C866 1.398 . S
C866 H854 0.950 . S
C866 C865 1.398 . S
C866 C867 1.391 . S
C867 H855 0.950 . S
C867 C863 1.393 . S
C867 C866 1.391 . S
H868 C876 0.950 . S
H869 C881 0.950 . S
H870 C878 0.950 . S
H871 C880 0.950 . S
H872 C882 0.950 . S
H873 C884 0.950 . S
H874 C886 0.950 . S
H875 C887 0.950 . S
C876 H868 0.950 . S
C876 C877 1.386 . S
C876 C878 1.391 . S
C877 C876 1.386 . S
C877 C881 1.393 . S
C878 H870 0.950 . S
C878 C876 1.391 . S
C878 C879 1.400 . S
C879 C878 1.400 . S
C879 C880 1.398 . S
C879 C885 1.491 . S
C880 H871 0.950 . S
C880 C879 1.398 . S
C880 C881 1.391 . S
C881 H869 0.950 . S
C881 C877 1.393 . S
C881 C880 1.391 . S
C882 H872 0.950 . S
C882 C883 1.386 . S
C882 C884 1.391 . S
C883 C882 1.386 . S
C883 C887 1.393 . S
C884 H873 0.950 . S
C884 C882 1.391 . S
C884 C885 1.400 . S
C885 C879 1.491 . S
C885 C884 1.400 . S
C885 C886 1.398 . S
C886 H874 0.950 . S
C886 C885 1.398 . S
C886 C887 1.391 . S
C887 H875 0.950 . S
C887 C883 1.393 . S
C887 C886 1.391 . S
H888 C896 0.950 . S
H889 C901 0.950 . S
H890 C898 0.950 . S
H891 C900 0.950 . S
H892 C902 0.950 . S
H893 C904 0.950 . S
H894 C906 0.950 . S
H895 C907 0.950 . S
C896 H888 0.950 . S
C896 C897 1.386 . S
C896 C898 1.391 . S
C897 C896 1.386 . S
C897 C901 1.393 . S
C898 H890 0.950 . S
C898 C896 1.391 . S
C898 C899 1.400 . S
C899 C898 1.400 . S
C899 C900 1.398 . S
C899 C905 1.491 . S
C900 H891 0.950 . S
C900 C899 1.398 . S
C900 C901 1.391 . S
C901 H889 0.950 . S
C901 C897 1.393 . S
C901 C900 1.391 . S
C902 H892 0.950 . S
C902 C903 1.386 . S
C902 C904 1.391 . S
C903 C902 1.386 . S
C903 C907 1.393 . S
C904 H893 0.950 . S
C904 C902 1.391 . S
C904 C905 1.400 . S
C905 C899 1.491 . S
C905 C904 1.400 . S
C905 C906 1.398 . S
C906 H894 0.950 . S
C906 C905 1.398 . S
C906 C907 1.391 . S
C907 H895 0.950 . S
C907 C903 1.393 . S
C907 C906 1.391 . S
H908 C916 0.950 . S
H909 C921 0.950 . S
H910 C918 0.950 . S
H911 C920 0.950 . S
H912 C922 0.950 . S
H913 C924 0.950 . S
H914 C926 0.950 . S
H915 C927 0.950 . S
C916 H908 0.950 . S
C916 C917 1.386 . S
C916 C918 1.391 . S
C917 C916 1.386 . S
C917 C921 1.393 . S
C918 H910 0.950 . S
C918 C916 1.391 . S
C918 C919 1.400 . S
C919 C918 1.400 . S
C919 C920 1.398 . S
C919 C925 1.491 . S
C920 H911 0.950 . S
C920 C919 1.398 . S
C920 C921 1.391 . S
C921 H909 0.950 . S
C921 C917 1.393 . S
C921 C920 1.391 . S
C922 H912 0.950 . S
C922 C923 1.386 . S
C922 C924 1.391 . S
C923 C922 1.386 . S
C923 C927 1.393 . S
C924 H913 0.950 . S
C924 C922 1.391 . S
C924 C925 1.400 . S
C925 C919 1.491 . S
C925 C924 1.400 . S
C925 C926 1.398 . S
C926 H914 0.950 . S
C926 C925 1.398 . S
C926 C927 1.391 . S
C927 H915 0.950 . S
C927 C923 1.393 . S
C927 C926 1.391 . S
H928 C936 0.950 . S
H929 C941 0.950 . S
H930 C938 0.950 . S
H931 C940 0.950 . S
H932 C942 0.950 . S
H933 C944 0.950 . S
H934 C946 0.950 . S
H935 C947 0.950 . S
C936 H928 0.950 . S
C936 C937 1.386 . S
C936 C938 1.391 . S
C937 C936 1.386 . S
C937 C941 1.393 . S
C938 H930 0.950 . S
C938 C936 1.391 . S
C938 C939 1.400 . S
C939 C938 1.400 . S
C939 C940 1.398 . S
C939 C945 1.491 . S
C940 H931 0.950 . S
C940 C939 1.398 . S
C940 C941 1.391 . S
C941 H929 0.950 . S
C941 C937 1.393 . S
C941 C940 1.391 . S
C942 H932 0.950 . S
C942 C943 1.386 . S
C942 C944 1.391 . S
C943 C942 1.386 . S
C943 C947 1.393 . S
C944 H933 0.950 . S
C944 C942 1.391 . S
C944 C945 1.400 . S
C945 C939 1.491 . S
C945 C944 1.400 . S
C945 C946 1.398 . S
C946 H934 0.950 . S
C946 C945 1.398 . S
C946 C947 1.391 . S
C947 H935 0.950 . S
C947 C943 1.393 . S
C947 C946 1.391 . S
H948 C956 0.950 . S
H949 C961 0.950 . S
H950 C958 0.950 . S
H951 C960 0.950 . S
H952 C962 0.950 . S
H953 C964 0.950 . S
H954 C966 0.950 . S
H955 C967 0.950 . S
C956 H948 0.950 . S
C956 C957 1.386 . S
C956 C958 1.391 . S
C957 C956 1.386 . S
C957 C961 1.393 . S
C958 H950 0.950 . S
C958 C956 1.391 . S
C958 C959 1.400 . S
C959 C958 1.400 . S
C959 C960 1.398 . S
C959 C965 1.491 . S
C960 H951 0.950 . S
C960 C959 1.398 . S
C960 C961 1.391 . S
C961 H949 0.950 . S
C961 C957 1.393 . S
C961 C960 1.391 . S
C962 H952 0.950 . S
C962 C963 1.386 . S
C962 C964 1.391 . S
C963 C962 1.386 . S
C963 C967 1.393 . S
C964 H953 0.950 . S
C964 C962 1.391 . S
C964 C965 1.400 . S
C965 C959 1.491 . S
C965 C964 1.400 . S
C965 C966 1.398 . S
C966 H954 0.950 . S
C966 C965 1.398 . S
C966 C967 1.391 . S
C967 H955 0.950 . S
C967 C963 1.393 . S
C967 C966 1.391 . S
H968 C976 0.950 . S
H969 C981 0.950 . S
H970 C978 0.950 . S
H971 C980 0.950 . S
H972 C982 0.950 . S
H973 C984 0.950 . S
H974 C986 0.950 . S
H975 C987 0.950 . S
C976 H968 0.950 . S
C976 C977 1.386 . S
C976 C978 1.391 . S
C977 C976 1.386 . S
C977 C981 1.393 . S
C978 H970 0.950 . S
C978 C976 1.391 . S
C978 C979 1.400 . S
C979 C978 1.400 . S
C979 C980 1.398 . S
C979 C985 1.491 . S
C980 H971 0.950 . S
C980 C979 1.398 . S
C980 C981 1.391 . S
C981 H969 0.950 . S
C981 C977 1.393 . S
C981 C980 1.391 . S
C982 H972 0.950 . S
C982 C983 1.386 . S
C982 C984 1.391 . S
C983 C982 1.386 . S
C983 C987 1.393 . S
C984 H973 0.950 . S
C984 C982 1.391 . S
C984 C985 1.400 . S
C985 C979 1.491 . S
C985 C984 1.400 . S
C985 C986 1.398 . S
C986 H974 0.950 . S
C986 C985 1.398 . S
C986 C987 1.391 . S
C987 H975 0.950 . S
C987 C983 1.393 . S
C987 C986 1.391 . S
H988 C996 0.950 . S
H989 C1001 0.950 . S
H990 C998 0.950 . S
H991 C1000 0.950 . S
H992 C1002 0.950 . S
H993 C1004 0.950 . S
H994 C1006 0.950 . S
H995 C1007 0.950 . S
C996 H988 0.950 . S
C996 C997 1.386 . S
C996 C998 1.391 . S
C997 C996 1.386 . S
C997 C1001 1.393 . S
C998 H990 0.950 . S
C998 C996 1.391 . S
C998 C999 1.400 . S
C999 C998 1.400 . S
C999 C1000 1.398 . S
C999 C1005 1.491 . S
C1000 H991 0.950 . S
C1000 C999 1.398 . S
C1000 C1001 1.391 . S
C1001 H989 0.950 . S
C1001 C997 1.393 . S
C1001 C1000 1.391 . S
C1002 H992 0.950 . S
C1002 C1003 1.386 . S
C1002 C1004 1.391 . S
C1003 C1002 1.386 . S
C1003 C1007 1.393 . S
C1004 H993 0.950 . S
C1004 C1002 1.391 . S
C1004 C1005 1.400 . S
C1005 C999 1.491 . S
C1005 C1004 1.400 . S
C1005 C1006 1.398 . S
C1006 H994 0.950 . S
C1006 C1005 1.398 . S
C1006 C1007 1.391 . S
C1007 H995 0.950 . S
C1007 C1003 1.393 . S
C1007 C1006 1.391 . S
H1008 C1016 0.950 . S
H1009 C1021 0.950 . S
H1010 C1018 0.950 . S
H1011 C1020 0.950 . S
H1012 C1022 0.950 . S
H1013 C1024 0.950 . S
H1014 C1026 0.950 . S
H1015 C1027 0.950 . S
C1016 H1008 0.950 . S
C1016 C1017 1.386 . S
C1016 C1018 1.391 . S
C1017 C1016 1.386 . S
C1017 C1021 1.393 . S
C1018 H1010 0.950 . S
C1018 C1016 1.391 . S
C1018 C1019 1.400 . S
C1019 C1018 1.400 . S
C1019 C1020 1.398 . S
C1019 C1025 1.491 . S
C1020 H1011 0.950 . S
C1020 C1019 1.398 . S
C1020 C1021 1.391 . S
C1021 H1009 0.950 . S
C1021 C1017 1.393 . S
C1021 C1020 1.391 . S
C1022 H1012 0.950 . S
C1022 C1023 1.386 . S
C1022 C1024 1.391 . S
C1023 C1022 1.386 . S
C1023 C1027 1.393 . S
C1024 H1013 0.950 . S
C1024 C1022 1.391 . S
C1024 C1025 1.400 . S
C1025 C1019 1.491 . S
C1025 C1024 1.400 . S
C1025 C1026 1.398 . S
C1026 H1014 0.950 . S
C1026 C1025 1.398 . S
C1026 C1027 1.391 . S
C1027 H1015 0.950 . S
C1027 C1023 1.393 . S
C1027 C1026 1.391 . S
H1028 C1036 0.950 . S
H1029 C1041 0.950 . S
H1030 C1038 0.950 . S
H1031 C1040 0.950 . S
H1032 C1042 0.950 . S
H1033 C1044 0.950 . S
H1034 C1046 0.950 . S
H1035 C1047 0.950 . S
C1036 H1028 0.950 . S
C1036 C1037 1.386 . S
C1036 C1038 1.391 . S
C1037 C1036 1.386 . S
C1037 C1041 1.393 . S
C1038 H1030 0.950 . S
C1038 C1036 1.391 . S
C1038 C1039 1.400 . S
C1039 C1038 1.400 . S
C1039 C1040 1.398 . S
C1039 C1045 1.491 . S
C1040 H1031 0.950 . S
C1040 C1039 1.398 . S
C1040 C1041 1.391 . S
C1041 H1029 0.950 . S
C1041 C1037 1.393 . S
C1041 C1040 1.391 . S
C1042 H1032 0.950 . S
C1042 C1043 1.386 . S
C1042 C1044 1.391 . S
C1043 C1042 1.386 . S
C1043 C1047 1.393 . S
C1044 H1033 0.950 . S
C1044 C1042 1.391 . S
C1044 C1045 1.400 . S
C1045 C1039 1.491 . S
C1045 C1044 1.400 . S
C1045 C1046 1.398 . S
C1046 H1034 0.950 . S
C1046 C1045 1.398 . S
C1046 C1047 1.391 . S
C1047 H1035 0.950 . S
C1047 C1043 1.393 . S
C1047 C1046 1.391 . S
H1048 C1056 0.950 . S
H1049 C1061 0.950 . S
H1050 C1058 0.950 . S
H1051 C1060 0.950 . S
H1052 C1062 0.950 . S
H1053 C1064 0.950 . S
H1054 C1066 0.950 . S
H1055 C1067 0.950 . S
C1056 H1048 0.950 . S
C1056 C1057 1.386 . S
C1056 C1058 1.391 . S
C1057 C1056 1.386 . S
C1057 C1061 1.393 . S
C1058 H1050 0.950 . S
C1058 C1056 1.391 . S
C1058 C1059 1.400 . S
C1059 C1058 1.400 . S
C1059 C1060 1.398 . S
C1059 C1065 1.491 . S
C1060 H1051 0.950 . S
C1060 C1059 1.398 . S
C1060 C1061 1.391 . S
C1061 H1049 0.950 . S
C1061 C1057 1.393 . S
C1061 C1060 1.391 . S
C1062 H1052 0.950 . S
C1062 C1063 1.386 . S
C1062 C1064 1.391 . S
C1063 C1062 1.386 . S
C1063 C1067 1.393 . S
C1064 H1053 0.950 . S
C1064 C1062 1.391 . S
C1064 C1065 1.400 . S
C1065 C1059 1.491 . S
C1065 C1064 1.400 . S
C1065 C1066 1.398 . S
C1066 H1054 0.950 . S
C1066 C1065 1.398 . S
C1066 C1067 1.391 . S
C1067 H1055 0.950 . S
C1067 C1063 1.393 . S
C1067 C1066 1.391 . S
H1068 C1076 0.950 . S
H1069 C1081 0.950 . S
H1070 C1078 0.950 . S
H1071 C1080 0.950 . S
H1072 C1082 0.950 . S
H1073 C1084 0.950 . S
H1074 C1086 0.950 . S
H1075 C1087 0.950 . S
C1076 H1068 0.950 . S
C1076 C1077 1.386 . S
C1076 C1078 1.391 . S
C1077 C1076 1.386 . S
C1077 C1081 1.393 . S
C1078 H1070 0.950 . S
C1078 C1076 1.391 . S
C1078 C1079 1.400 . S
C1079 C1078 1.400 . S
C1079 C1080 1.398 . S
C1079 C1085 1.491 . S
C1080 H1071 0.950 . S
C1080 C1079 1.398 . S
C1080 C1081 1.391 . S
C1081 H1069 0.950 . S
C1081 C1077 1.393 . S
C1081 C1080 1.391 . S
C1082 H1072 0.950 . S
C1082 C1083 1.386 . S
C1082 C1084 1.391 . S
C1083 C1082 1.386 . S
C1083 C1087 1.393 . S
C1084 H1073 0.950 . S
C1084 C1082 1.391 . S
C1084 C1085 1.400 . S
C1085 C1079 1.491 . S
C1085 C1084 1.400 . S
C1085 C1086 1.398 . S
C1086 H1074 0.950 . S
C1086 C1085 1.398 . S
C1086 C1087 1.391 . S
C1087 H1075 0.950 . S
C1087 C1083 1.393 . S
C1087 C1086 1.391 . S
H1088 C1096 0.950 . S
H1089 C1101 0.950 . S
H1090 C1098 0.950 . S
H1091 C1100 0.933 1_554 S
H1092 C1102 0.950 . S
H1093 C1104 0.950 . S
H1094 C1106 0.950 1_556 S
H1095 C1107 0.950 . S
C1096 H1088 0.950 . S
C1096 C1097 1.386 . S
C1096 C1098 1.391 . S
C1097 C1096 1.386 . S
C1097 C1101 1.393 . S
C1098 H1090 0.950 . S
C1098 C1096 1.391 . S
C1098 C1099 1.400 . S
C1099 C1098 1.400 . S
C1099 C1100 1.398 . S
C1099 C1105 1.491 1_556 S
C1100 H1091 0.933 1_556 S
C1100 C1099 1.398 . S
C1100 C1101 1.391 . S
C1101 H1089 0.950 . S
C1101 C1097 1.393 . S
C1101 C1100 1.391 . S
C1102 H1092 0.950 . S
C1102 C1103 1.386 . S
C1102 C1104 1.391 . S
C1103 C1102 1.386 . S
C1103 C1107 1.393 . S
C1104 H1093 0.950 . S
C1104 C1102 1.391 . S
C1104 C1105 1.400 . S
C1105 C1099 1.491 1_554 S
C1105 C1104 1.400 . S
C1105 C1106 1.398 . S
C1106 H1094 0.950 1_554 S
C1106 C1105 1.398 . S
C1106 C1107 1.391 . S
C1107 H1095 0.950 . S
C1107 C1103 1.393 . S
C1107 C1106 1.391 . S
H1108 C1116 0.950 . S
H1109 C1121 0.950 . S
H1110 C1118 0.950 . S
H1111 C1120 0.950 . S
H1112 C1122 0.950 . S
H1113 C1124 0.950 . S
H1114 C1126 0.950 . S
H1115 C1127 0.950 . S
C1116 H1108 0.950 . S
C1116 C1117 1.386 . S
C1116 C1118 1.391 . S
C1117 C1116 1.386 . S
C1117 C1121 1.393 . S
C1118 H1110 0.950 . S
C1118 C1116 1.391 . S
C1118 C1119 1.400 . S
C1119 C1118 1.400 . S
C1119 C1120 1.398 . S
C1119 C1125 1.491 1_554 S
C1120 H1111 0.950 . S
C1120 C1119 1.398 . S
C1120 C1121 1.391 . S
C1121 H1109 0.950 . S
C1121 C1117 1.393 . S
C1121 C1120 1.391 . S
C1122 H1112 0.950 . S
C1122 C1123 1.386 . S
C1122 C1124 1.391 . S
C1123 C1122 1.386 . S
C1123 C1127 1.393 . S
C1124 H1113 0.950 . S
C1124 C1122 1.391 . S
C1124 C1125 1.400 . S
C1125 C1119 1.491 1_556 S
C1125 C1124 1.400 . S
C1125 C1126 1.398 . S
C1126 H1114 0.950 . S
C1126 C1125 1.398 . S
C1126 C1127 1.391 . S
C1127 H1115 0.950 . S
C1127 C1123 1.393 . S
C1127 C1126 1.391 . S
H1128 C1136 0.950 . S
H1129 C1141 0.950 . S
H1130 C1138 0.950 . S
H1131 C1140 0.950 . S
H1132 C1142 0.950 . S
H1133 C1144 0.950 . S
H1134 C1146 0.950 . S
H1135 C1147 0.950 . S
C1136 H1128 0.950 . S
C1136 C1137 1.386 . S
C1136 C1138 1.391 . S
C1137 C1136 1.386 . S
C1137 C1141 1.393 . S
C1138 H1130 0.950 . S
C1138 C1136 1.391 . S
C1138 C1139 1.400 . S
C1139 C1138 1.400 . S
C1139 C1140 1.398 . S
C1139 C1145 1.491 1_556 S
C1140 H1131 0.950 . S
C1140 C1139 1.398 . S
C1140 C1141 1.391 . S
C1141 H1129 0.950 . S
C1141 C1137 1.393 . S
C1141 C1140 1.391 . S
C1142 H1132 0.950 . S
C1142 C1143 1.386 . S
C1142 C1144 1.391 . S
C1143 C1142 1.386 . S
C1143 C1147 1.393 . S
C1144 H1133 0.950 . S
C1144 C1142 1.391 . S
C1144 C1145 1.400 . S
C1145 C1139 1.491 1_554 S
C1145 C1144 1.400 . S
C1145 C1146 1.398 . S
C1146 H1134 0.950 . S
C1146 C1145 1.398 . S
C1146 C1147 1.391 . S
C1147 H1135 0.950 . S
C1147 C1143 1.393 . S
C1147 C1146 1.391 . S
H1148 C1156 0.950 . S
H1149 C1161 0.950 . S
H1150 C1158 0.950 . S
H1151 C1160 0.950 1_556 S
H1152 C1162 0.950 . S
H1153 C1164 0.950 . S
H1154 C1166 0.950 1_554 S
H1155 C1167 0.950 . S
C1156 H1148 0.950 . S
C1156 C1157 1.386 . S
C1156 C1158 1.391 . S
C1157 C1156 1.386 . S
C1157 C1161 1.393 . S
C1158 H1150 0.950 . S
C1158 C1156 1.391 . S
C1158 C1159 1.400 . S
C1159 C1158 1.400 . S
C1159 C1160 1.398 . S
C1159 C1165 1.491 1_554 S
C1160 H1151 0.950 1_554 S
C1160 C1159 1.398 . S
C1160 C1161 1.391 . S
C1161 H1149 0.950 . S
C1161 C1157 1.393 . S
C1161 C1160 1.391 . S
C1162 H1152 0.950 . S
C1162 C1163 1.386 . S
C1162 C1164 1.391 . S
C1163 C1162 1.386 . S
C1163 C1167 1.393 . S
C1164 H1153 0.950 . S
C1164 C1162 1.391 . S
C1164 C1165 1.400 . S
C1165 C1159 1.491 1_556 S
C1165 C1164 1.400 . S
C1165 C1166 1.398 . S
C1166 H1154 0.950 1_556 S
C1166 C1165 1.398 . S
C1166 C1167 1.391 . S
C1167 H1155 0.950 . S
C1167 C1163 1.393 . S
C1167 C1166 1.391 . S
H1168 C1176 0.950 . S
H1169 C1181 0.950 . S
H1170 C1178 0.950 . S
H1171 C1180 0.950 . S
H1172 C1182 0.950 . S
H1173 C1184 0.950 . S
H1174 C1186 0.950 . S
H1175 C1187 0.950 . S
C1176 H1168 0.950 . S
C1176 C1177 1.386 . S
C1176 C1178 1.391 . S
C1177 C1176 1.386 . S
C1177 C1181 1.393 . S
C1178 H1170 0.950 . S
C1178 C1176 1.391 . S
C1178 C1179 1.400 . S
C1179 C1178 1.400 . S
C1179 C1180 1.398 . S
C1179 C1185 1.491 . S
C1180 H1171 0.950 . S
C1180 C1179 1.398 . S
C1180 C1181 1.391 . S
C1181 H1169 0.950 . S
C1181 C1177 1.393 . S
C1181 C1180 1.391 . S
C1182 H1172 0.950 . S
C1182 C1183 1.386 . S
C1182 C1184 1.391 . S
C1183 C1182 1.386 . S
C1183 C1187 1.393 . S
C1184 H1173 0.950 . S
C1184 C1182 1.391 . S
C1184 C1185 1.400 . S
C1185 C1179 1.491 . S
C1185 C1184 1.400 . S
C1185 C1186 1.398 . S
C1186 H1174 0.950 . S
C1186 C1185 1.398 . S
C1186 C1187 1.391 . S
C1187 H1175 0.950 . S
C1187 C1183 1.393 . S
C1187 C1186 1.391 . S
H1188 C1196 0.950 . S
H1189 C1201 0.950 . S
H1190 C1198 0.950 . S
H1191 C1200 0.950 . S
H1192 C1202 0.950 . S
H1193 C1204 0.950 . S
H1194 C1206 0.950 . S
H1195 C1207 0.950 . S
C1196 H1188 0.950 . S
C1196 C1197 1.386 . S
C1196 C1198 1.391 . S
C1197 C1196 1.386 . S
C1197 C1201 1.393 . S
C1198 H1190 0.950 . S
C1198 C1196 1.391 . S
C1198 C1199 1.400 . S
C1199 C1198 1.400 . S
C1199 C1200 1.398 . S
C1199 C1205 1.491 . S
C1200 H1191 0.950 . S
C1200 C1199 1.398 . S
C1200 C1201 1.391 . S
C1201 H1189 0.950 . S
C1201 C1197 1.393 . S
C1201 C1200 1.391 . S
C1202 H1192 0.950 . S
C1202 C1203 1.386 . S
C1202 C1204 1.391 . S
C1203 C1202 1.386 . S
C1203 C1207 1.393 . S
C1204 H1193 0.950 . S
C1204 C1202 1.391 . S
C1204 C1205 1.400 . S
C1205 C1199 1.491 . S
C1205 C1204 1.400 . S
C1205 C1206 1.398 . S
C1206 H1194 0.950 . S
C1206 C1205 1.398 . S
C1206 C1207 1.391 . S
C1207 H1195 0.950 . S
C1207 C1203 1.393 . S
C1207 C1206 1.391 . S
H1208 C1216 0.950 . S
H1209 C1221 0.950 . S
H1210 C1218 0.950 . S
H1211 C1220 0.950 . S
H1212 C1222 0.950 . S
H1213 C1224 0.950 . S
H1214 C1226 0.950 . S
H1215 C1227 0.950 . S
C1216 H1208 0.950 . S
C1216 C1217 1.386 . S
C1216 C1218 1.391 . S
C1217 C1216 1.386 . S
C1217 C1221 1.393 . S
C1218 H1210 0.950 . S
C1218 C1216 1.391 . S
C1218 C1219 1.400 . S
C1219 C1218 1.400 . S
C1219 C1220 1.398 . S
C1219 C1225 1.491 . S
C1220 H1211 0.950 . S
C1220 C1219 1.398 . S
C1220 C1221 1.391 . S
C1221 H1209 0.950 . S
C1221 C1217 1.393 . S
C1221 C1220 1.391 . S
C1222 H1212 0.950 . S
C1222 C1223 1.386 . S
C1222 C1224 1.391 . S
C1223 C1222 1.386 . S
C1223 C1227 1.393 . S
C1224 H1213 0.950 . S
C1224 C1222 1.391 . S
C1224 C1225 1.400 . S
C1225 C1219 1.491 . S
C1225 C1224 1.400 . S
C1225 C1226 1.398 . S
C1226 H1214 0.950 . S
C1226 C1225 1.398 . S
C1226 C1227 1.391 . S
C1227 H1215 0.950 . S
C1227 C1223 1.393 . S
C1227 C1226 1.391 . S
H1228 C1236 0.950 . S
H1229 C1241 0.950 . S
H1230 C1238 0.950 . S
H1231 C1240 0.950 . S
H1232 C1242 0.950 . S
H1233 C1244 0.950 . S
H1234 C1246 0.950 . S
H1235 C1247 0.950 . S
C1236 H1228 0.950 . S
C1236 C1237 1.386 . S
C1236 C1238 1.391 . S
C1237 C1236 1.386 . S
C1237 C1241 1.393 . S
C1238 H1230 0.950 . S
C1238 C1236 1.391 . S
C1238 C1239 1.400 . S
C1239 C1238 1.400 . S
C1239 C1240 1.398 . S
C1239 C1245 1.491 . S
C1240 H1231 0.950 . S
C1240 C1239 1.398 . S
C1240 C1241 1.391 . S
C1241 H1229 0.950 . S
C1241 C1237 1.393 . S
C1241 C1240 1.391 . S
C1242 H1232 0.950 . S
C1242 C1243 1.386 . S
C1242 C1244 1.391 . S
C1243 C1242 1.386 . S
C1243 C1247 1.393 . S
C1244 H1233 0.950 . S
C1244 C1242 1.391 . S
C1244 C1245 1.400 . S
C1245 C1239 1.491 . S
C1245 C1244 1.400 . S
C1245 C1246 1.398 . S
C1246 H1234 0.950 . S
C1246 C1245 1.398 . S
C1246 C1247 1.391 . S
C1247 H1235 0.950 . S
C1247 C1243 1.393 . S
C1247 C1246 1.391 . S
H1248 C1256 0.950 . S
H1249 C1261 0.950 . S
H1250 C1258 0.950 1_556 S
H1251 C1260 0.950 . S
H1252 C1262 0.950 . S
H1253 C1264 0.950 1_554 S
H1254 C1266 0.950 . S
H1255 C1267 0.950 . S
C1256 H1248 0.950 . S
C1256 C1257 1.386 . S
C1256 C1258 1.391 . S
C1257 C1256 1.386 . S
C1257 C1261 1.393 . S
C1258 H1250 0.950 1_554 S
C1258 C1256 1.391 . S
C1258 C1259 1.400 . S
C1259 C1258 1.400 . S
C1259 C1260 1.398 . S
C1259 C1265 1.491 1_554 S
C1260 H1251 0.950 . S
C1260 C1259 1.398 . S
C1260 C1261 1.391 . S
C1261 H1249 0.950 . S
C1261 C1257 1.393 . S
C1261 C1260 1.391 . S
C1262 H1252 0.950 . S
C1262 C1263 1.386 . S
C1262 C1264 1.391 . S
C1263 C1262 1.386 . S
C1263 C1267 1.393 . S
C1264 H1253 0.950 1_556 S
C1264 C1262 1.391 . S
C1264 C1265 1.400 . S
C1265 C1259 1.491 1_556 S
C1265 C1264 1.400 . S
C1265 C1266 1.398 . S
C1266 H1254 0.950 . S
C1266 C1265 1.398 . S
C1266 C1267 1.391 . S
C1267 H1255 0.950 . S
C1267 C1263 1.393 . S
C1267 C1266 1.391 . S
H1268 C1276 0.950 . S
H1269 C1281 0.950 . S
H1270 C1278 0.950 1_554 S
H1271 C1280 0.950 . S
H1272 C1282 0.950 . S
H1273 C1284 0.936 1_556 S
H1274 C1286 0.950 . S
H1275 C1287 0.950 . S
C1276 H1268 0.950 . S
C1276 C1277 1.386 . S
C1276 C1278 1.391 . S
C1277 C1276 1.386 . S
C1277 C1281 1.393 . S
C1278 H1270 0.950 1_556 S
C1278 C1276 1.391 . S
C1278 C1279 1.400 . S
C1279 C1278 1.400 . S
C1279 C1280 1.398 . S
C1279 C1285 1.491 1_556 S
C1280 H1271 0.950 . S
C1280 C1279 1.398 . S
C1280 C1281 1.391 . S
C1281 H1269 0.950 . S
C1281 C1277 1.393 . S
C1281 C1280 1.391 . S
C1282 H1272 0.950 . S
C1282 C1283 1.386 . S
C1282 C1284 1.391 . S
C1283 C1282 1.386 . S
C1283 C1287 1.393 . S
C1284 H1273 0.936 1_554 S
C1284 C1282 1.391 . S
C1284 C1285 1.400 . S
C1285 C1279 1.491 1_554 S
C1285 C1284 1.400 . S
C1285 C1286 1.398 . S
C1286 H1274 0.950 . S
C1286 C1285 1.398 . S
C1286 C1287 1.391 . S
C1287 H1275 0.950 . S
C1287 C1283 1.393 . S
C1287 C1286 1.391 . S
H1288 C1296 0.950 . S
H1289 C1301 0.950 . S
H1290 C1298 0.950 . S
H1291 C1300 0.950 1_556 S
H1292 C1302 0.950 . S
H1293 C1304 0.950 . S
H1294 C1306 0.950 1_554 S
H1295 C1307 0.950 . S
C1296 H1288 0.950 . S
C1296 C1297 1.386 . S
C1296 C1298 1.391 . S
C1297 C1296 1.386 . S
C1297 C1301 1.393 . S
C1298 H1290 0.950 . S
C1298 C1296 1.391 . S
C1298 C1299 1.400 . S
C1299 C1298 1.400 . S
C1299 C1300 1.398 . S
C1299 C1305 1.491 1_554 S
C1300 H1291 0.950 1_554 S
C1300 C1299 1.398 . S
C1300 C1301 1.391 . S
C1301 H1289 0.950 . S
C1301 C1297 1.393 . S
C1301 C1300 1.391 . S
C1302 H1292 0.950 . S
C1302 C1303 1.386 . S
C1302 C1304 1.391 . S
C1303 C1302 1.386 . S
C1303 C1307 1.393 . S
C1304 H1293 0.950 . S
C1304 C1302 1.391 . S
C1304 C1305 1.400 . S
C1305 C1299 1.491 1_556 S
C1305 C1304 1.400 . S
C1305 C1306 1.398 . S
C1306 H1294 0.950 1_556 S
C1306 C1305 1.398 . S
C1306 C1307 1.391 . S
C1307 H1295 0.950 . S
C1307 C1303 1.393 . S
C1307 C1306 1.391 . S
H1308 C1316 0.950 . S
H1309 C1321 0.950 . S
H1310 C1318 0.950 . S
H1311 C1320 0.950 . S
H1312 C1322 0.950 . S
H1313 C1324 0.950 1_554 S
H1314 C1326 0.950 . S
H1315 C1327 0.950 . S
C1316 H1308 0.950 . S
C1316 C1317 1.386 . S
C1316 C1318 1.391 . S
C1317 C1316 1.386 . S
C1317 C1321 1.393 . S
C1318 H1310 0.950 . S
C1318 C1316 1.391 . S
C1318 C1319 1.400 . S
C1319 C1318 1.400 . S
C1319 C1320 1.398 . S
C1319 C1325 1.491 1_554 S
C1320 H1311 0.950 . S
C1320 C1319 1.398 . S
C1320 C1321 1.391 . S
C1321 H1309 0.950 . S
C1321 C1317 1.393 . S
C1321 C1320 1.391 . S
C1322 H1312 0.950 . S
C1322 C1323 1.386 . S
C1322 C1324 1.391 . S
C1323 C1322 1.386 . S
C1323 C1327 1.393 . S
C1324 H1313 0.950 1_556 S
C1324 C1322 1.391 . S
C1324 C1325 1.400 . S
C1325 C1319 1.491 1_556 S
C1325 C1324 1.400 . S
C1325 C1326 1.398 . S
C1326 H1314 0.950 . S
C1326 C1325 1.398 . S
C1326 C1327 1.391 . S
C1327 H1315 0.950 . S
C1327 C1323 1.393 . S
C1327 C1326 1.391 . S
C537 N101 1.426 . S
C543 C7 1.578 . S
C557 C40 1.580 . S
C563 N2 1.430 . S
C577 C73 1.589 . S
C583 N35 1.454 . S
C597 C106 1.583 . S
C603 N68 1.434 . S
C617 N167 1.416 . S
C623 C139 1.568 . S
C637 N200 1.458 . S
C643 C172 1.589 . S
C657 C205 1.567 . S
C663 N233 1.431 . S
C677 N134 1.459 . S
C683 C238 1.587 . S
C697 C271 1.570 . S
C703 N365 1.417 . S
C717 C304 1.587 . S
C723 N266 1.459 . S
C737 N299 1.457 . S
C743 C337 1.583 . S
C757 C370 1.565 . S
C763 N332 1.416 . S
C777 N431 1.431 . S
C783 C403 1.581 . S
C797 C436 1.575 . S
C803 N464 1.422 . S
C817 C469 1.584 . S
C823 N497 1.458 . S
C837 C502 1.570 . S
C843 N398 1.417 . S
C857 C21 1.600 . S
C863 C186 1.597 . S
C877 C54 1.597 . S
C883 C219 1.602 . S
C897 C252 1.597 . S
C903 C87 1.599 . S
C917 C120 1.613 . S
C923 C153 1.610 . S
C937 C450 1.611 . S
C943 C285 1.613 . S
C957 C483 1.605 . S
C963 C318 1.612 . S
C977 C351 1.598 . S
C983 C516 1.597 . S
C997 C417 1.611 . S
C1003 C384 1.613 . S
C1017 N13 1.117 . S
C1023 C381 1.131 . S
C1037 N46 1.135 . S
C1043 C282 1.138 . S
C1057 N79 1.133 . S
C1063 C315 1.139 . S
C1077 N112 1.135 . S
C1083 C348 1.138 . S
C1097 C447 1.137 . S
C1103 N145 1.126 . S
C1117 N178 1.134 . S
C1123 C480 1.139 . S
C1137 C513 1.139 . S
C1143 N211 1.132 . S
C1157 N244 1.129 . S
C1163 C414 1.134 . S
C1177 C117 1.132 . S
C1183 N277 1.122 . S
C1197 C18 1.135 . S
C1203 N310 1.120 . S
C1217 C51 1.131 . S
C1223 N343 1.119 . S
C1237 C84 1.133 . S
C1243 N376 1.116 . S
C1257 C183 1.138 . S
C1263 N409 1.127 . S
C1277 N442 1.124 . S
C1283 C216 1.132 . S
C1297 C249 1.134 . S
C1303 N475 1.128 . S
C1317 C150 1.138 . S
C1323 N508 1.130 . S
