# Generated by pormake.
# Topology ung, (4)-cn, num edge types: 1
# Building blocks:
#     Node 0, Type 0, BuildingBlock: CEKHIL_clean_sbu_0, # of connection points: 4
#     Node 1, Type 0, BuildingBlock: CEKHIL_clean_sbu_0, # of connection points: 4
#     Node 2, Type 0, BuildingBlock: CEKHIL_clean_sbu_0, # of connection points: 4
#     Node 3, Type 0, BuildingBlock: CEKHIL_clean_sbu_0, # of connection points: 4
#     Node 4, Type 0, BuildingBlock: CEKHIL_clean_sbu_0, # of connection points: 4
#     Node 5, Type 0, BuildingBlock: CEKHIL_clean_sbu_0, # of connection points: 4
#     Node 6, Type 0, BuildingBlock: CEKHIL_clean_sbu_0, # of connection points: 4
#     Node 7, Type 0, BuildingBlock: CEKHIL_clean_sbu_0, # of connection points: 4
#     Node 8, Type 0, BuildingBlock: CEKHIL_clean_sbu_0, # of connection points: 4
#     Node 9, Type 0, BuildingBlock: CEKHIL_clean_sbu_0, # of connection points: 4
#     Node 10, Type 0, BuildingBlock: CEKHIL_clean_sbu_0, # of connection points: 4
#     Node 11, Type 0, BuildingBlock: CEKHIL_clean_sbu_0, # of connection points: 4
#     Node 12, Type 0, BuildingBlock: CEKHIL_clean_sbu_0, # of connection points: 4
#     Node 13, Type 0, BuildingBlock: CEKHIL_clean_sbu_0, # of connection points: 4
#     Node 14, Type 0, BuildingBlock: CEKHIL_clean_sbu_0, # of connection points: 4
#     Node 15, Type 0, BuildingBlock: CEKHIL_clean_sbu_0, # of connection points: 4
#     Node 16, Type 0, BuildingBlock: CEKHIL_clean_sbu_0, # of connection points: 4
#     Node 17, Type 0, BuildingBlock: CEKHIL_clean_sbu_0, # of connection points: 4
#     Edge 18, Type (0, 0), BuildingBlock: OJICUG_clean_linker_0, # of connection points: 2
#     Edge 19, Type (0, 0), BuildingBlock: OJICUG_clean_linker_0, # of connection points: 2
#     Edge 20, Type (0, 0), BuildingBlock: OJICUG_clean_linker_0, # of connection points: 2
#     Edge 21, Type (0, 0), BuildingBlock: OJICUG_clean_linker_0, # of connection points: 2
#     Edge 22, Type (0, 0), BuildingBlock: OJICUG_clean_linker_0, # of connection points: 2
#     Edge 23, Type (0, 0), BuildingBlock: OJICUG_clean_linker_0, # of connection points: 2
#     Edge 24, Type (0, 0), BuildingBlock: OJICUG_clean_linker_0, # of connection points: 2
#     Edge 25, Type (0, 0), BuildingBlock: OJICUG_clean_linker_0, # of connection points: 2
#     Edge 26, Type (0, 0), BuildingBlock: OJICUG_clean_linker_0, # of connection points: 2
#     Edge 27, Type (0, 0), BuildingBlock: OJICUG_clean_linker_0, # of connection points: 2
#     Edge 28, Type (0, 0), BuildingBlock: OJICUG_clean_linker_0, # of connection points: 2
#     Edge 29, Type (0, 0), BuildingBlock: OJICUG_clean_linker_0, # of connection points: 2
#     Edge 30, Type (0, 0), BuildingBlock: OJICUG_clean_linker_0, # of connection points: 2
#     Edge 31, Type (0, 0), BuildingBlock: OJICUG_clean_linker_0, # of connection points: 2
#     Edge 32, Type (0, 0), BuildingBlock: OJICUG_clean_linker_0, # of connection points: 2
#     Edge 33, Type (0, 0), BuildingBlock: OJICUG_clean_linker_0, # of connection points: 2
#     Edge 34, Type (0, 0), BuildingBlock: OJICUG_clean_linker_0, # of connection points: 2
#     Edge 35, Type (0, 0), BuildingBlock: OJICUG_clean_linker_0, # of connection points: 2
#     Edge 36, Type (0, 0), BuildingBlock: OJICUG_clean_linker_0, # of connection points: 2
#     Edge 37, Type (0, 0), BuildingBlock: OJICUG_clean_linker_0, # of connection points: 2
#     Edge 38, Type (0, 0), BuildingBlock: OJICUG_clean_linker_0, # of connection points: 2
#     Edge 39, Type (0, 0), BuildingBlock: OJICUG_clean_linker_0, # of connection points: 2
#     Edge 40, Type (0, 0), BuildingBlock: OJICUG_clean_linker_0, # of connection points: 2
#     Edge 41, Type (0, 0), BuildingBlock: OJICUG_clean_linker_0, # of connection points: 2
#     Edge 42, Type (0, 0), BuildingBlock: OJICUG_clean_linker_0, # of connection points: 2
#     Edge 43, Type (0, 0), BuildingBlock: OJICUG_clean_linker_0, # of connection points: 2
#     Edge 44, Type (0, 0), BuildingBlock: OJICUG_clean_linker_0, # of connection points: 2
#     Edge 45, Type (0, 0), BuildingBlock: OJICUG_clean_linker_0, # of connection points: 2
#     Edge 46, Type (0, 0), BuildingBlock: OJICUG_clean_linker_0, # of connection points: 2
#     Edge 47, Type (0, 0), BuildingBlock: OJICUG_clean_linker_0, # of connection points: 2
#     Edge 48, Type (0, 0), BuildingBlock: OJICUG_clean_linker_0, # of connection points: 2
#     Edge 49, Type (0, 0), BuildingBlock: OJICUG_clean_linker_0, # of connection points: 2
#     Edge 50, Type (0, 0), BuildingBlock: OJICUG_clean_linker_0, # of connection points: 2
#     Edge 51, Type (0, 0), BuildingBlock: OJICUG_clean_linker_0, # of connection points: 2
#     Edge 52, Type (0, 0), BuildingBlock: OJICUG_clean_linker_0, # of connection points: 2
#     Edge 53, Type (0, 0), BuildingBlock: OJICUG_clean_linker_0, # of connection points: 2
# Relax obj value: 0.073
# Max RMSD: 0.191
# Mean RMSD: 0.184
data_MOF--net-ung--node1-CEKHIL_clean_sbu_0--edge1-OJICUG_clean_linker_0
_symmetry_space_group_name_H-M    P1
_symmetry_Int_Tables_number       1
_symmetry_cell_setting            triclinic
loop_
_symmetry_equiv_pos_as_xyz
'x, y, z'
_cell_length_a     52.75675
_cell_length_b     53.145656
_cell_length_c     16.071829
_cell_angle_alpha  91.255045
_cell_angle_beta   91.356638
_cell_angle_gamma 119.87389
loop_
_atom_site_label
_atom_site_type_symbol
_atom_site_fract_x
_atom_site_fract_y
_atom_site_fract_z
_atom_type_partial_charge
Co0 Co 0.07083 0.60774 0.24486 0.0
O1 O 0.08909 0.59481 0.32301 0.0
O2 O 0.04133 0.57298 0.29724 0.0
C3 C 0.09547 0.65404 0.29325 0.0
O4 O 0.04554 0.61725 0.16679 0.0
Co5 Co 0.11077 0.64842 0.11781 0.0
O6 O 0.0758 0.64914 0.07583 0.0
C7 C 0.08523 0.58624 0.08417 0.0
C8 C 0.0634 0.57417 0.33943 0.0
C9 C 0.05046 0.63358 0.10377 0.0
O10 O 0.07343 0.58255 0.1548 0.0
O11 O 0.10248 0.61142 0.05749 0.0
O12 O 0.07149 0.6351 0.32554 0.0
O13 O 0.10609 0.64412 0.23751 0.0
Co14 Co 0.51355 0.48463 0.21723 0.0
O15 O 0.54484 0.49453 0.14372 0.0
O16 O 0.52359 0.52086 0.16336 0.0
C17 C 0.48749 0.43854 0.16886 0.0
O18 O 0.47947 0.47877 0.2903 0.0
Co19 Co 0.50687 0.44114 0.34719 0.0
O20 O 0.47343 0.44496 0.38257 0.0
C21 C 0.54908 0.50229 0.38265 0.0
C22 C 0.54315 0.51711 0.12526 0.0
C23 C 0.4665 0.46274 0.35237 0.0
O24 O 0.54221 0.50736 0.31061 0.0
O25 O 0.53837 0.47664 0.40952 0.0
O26 O 0.48547 0.45911 0.13345 0.0
O27 O 0.50765 0.44655 0.22768 0.0
Co28 Co 0.63678 0.03951 0.2731 0.0
O29 O 0.60351 0.02438 0.34036 0.0
O30 O 0.6352 0.07108 0.3343 0.0
C31 C 0.64977 0.00769 0.3229 0.0
O32 O 0.67459 0.06156 0.20792 0.0
Co33 Co 0.63427 -0.00121 0.13842 0.0
O34 O 0.67259 0.03035 0.10753 0.0
C35 C 0.60369 0.03049 0.10551 0.0
C36 C 0.61173 0.05045 0.36649 0.0
C37 C 0.68517 0.05531 0.14394 0.0
O38 O 0.61302 0.0425 0.17816 0.0
O39 O 0.6084 0.0106 0.07729 0.0
O40 O 0.65859 0.03285 0.35842 0.0
O41 O 0.63169 0.00116 0.25895 0.0
Co42 Co 0.04947 0.46437 0.69194 0.0
O43 O 0.0294 0.47772 0.62102 0.0
O44 O 0.07758 0.49922 0.63852 0.0
C45 C 0.02414 0.41821 0.64435 0.0
O46 O 0.07668 0.45491 0.76134 0.0
Co47 Co 0.01252 0.42226 0.82501 0.0
O48 O 0.04895 0.42236 0.8553 0.0
C49 C 0.03905 0.48481 0.86083 0.0
C50 C 0.05482 0.49828 0.60142 0.0
C51 C 0.0734 0.43844 0.82297 0.0
O52 O 0.04906 0.4889 0.78758 0.0
O53 O 0.02251 0.45947 0.88796 0.0
O54 O 0.04638 0.4373 0.6056 0.0
O55 O 0.01547 0.42798 0.70579 0.0
Co56 Co 0.64451 0.62324 0.7762 0.0
O57 O 0.61154 0.61044 0.84435 0.0
O58 O 0.63746 0.58844 0.8347 0.0
C59 C 0.66454 0.66945 0.8261 0.0
O60 O 0.68101 0.63301 0.70947 0.0
Co61 Co 0.64792 0.66463 0.64402 0.0
O62 O 0.68426 0.66538 0.61559 0.0
C63 C 0.61105 0.60243 0.60798 0.0
C64 C 0.61593 0.58997 0.86838 0.0
C65 C 0.69346 0.64969 0.64819 0.0
O66 O 0.61853 0.59827 0.68044 0.0
O67 O 0.61922 0.62777 0.58158 0.0
O68 O 0.66941 0.65068 0.86207 0.0
O69 O 0.64577 0.65937 0.76331 0.0
Co70 Co 0.51652 0.06807 0.72123 0.0
O71 O 0.55041 0.08814 0.65539 0.0
O72 O 0.52301 0.04034 0.65914 0.0
C73 C 0.49596 0.09457 0.68253 0.0
O74 O 0.47936 0.04024 0.78163 0.0
Co75 Co 0.51042 0.10262 0.86669 0.0
O76 O 0.47511 0.06558 0.88945 0.0
C77 C 0.54782 0.07705 0.89223 0.0
C78 C 0.54521 0.06283 0.62852 0.0
C79 C 0.46653 0.04199 0.84724 0.0
O80 O 0.54124 0.067 0.81676 0.0
O81 O 0.53911 0.09357 0.92414 0.0
O82 O 0.49287 0.07285 0.63666 0.0
O83 O 0.51409 0.10196 0.74658 0.0
Co84 Co 0.68617 0.91105 0.62069 0.0
O85 O 0.66192 0.87282 0.57225 0.0
O86 O 0.70985 0.8937 0.59707 0.0
C87 C 0.66887 0.93305 0.53653 0.0
O88 O 0.71796 0.95014 0.66912 0.0
Co89 Co 0.6558 0.93882 0.71501 0.0
O90 O 0.69626 0.96928 0.74685 0.0
C91 C 0.6702 0.89981 0.80351 0.0
C92 C 0.68577 0.87168 0.56597 0.0
C93 C 0.71896 0.96942 0.72104 0.0
O94 O 0.68034 0.89584 0.73584 0.0
O95 O 0.65741 0.91484 0.80847 0.0
O96 O 0.68892 0.92753 0.51316 0.0
O97 O 0.65728 0.92233 0.607 0.0
Co98 Co 0.17736 0.80757 0.53222 0.0
O99 O 0.20947 0.81887 0.46126 0.0
O100 O 0.18609 0.84332 0.47806 0.0
C101 C 0.15312 0.76142 0.48301 0.0
O102 O 0.14207 0.80007 0.60171 0.0
Co103 Co 0.17199 0.76523 0.66292 0.0
O104 O 0.13708 0.76692 0.69485 0.0
C105 C 0.21183 0.82668 0.69997 0.0
C106 C 0.20655 0.84067 0.4416 0.0
C107 C 0.12912 0.78373 0.66314 0.0
O108 O 0.20487 0.83121 0.62729 0.0
O109 O 0.20208 0.80115 0.72686 0.0
O110 O 0.15053 0.78157 0.44708 0.0
O111 O 0.17302 0.76994 0.54287 0.0
Co112 Co 0.31466 0.40654 0.56539 0.0
O113 O 0.30044 0.42902 0.51086 0.0
O114 O 0.27634 0.38102 0.51266 0.0
C115 C 0.35954 0.43003 0.50964 0.0
O116 O 0.32357 0.3767 0.61718 0.0
Co117 Co 0.36483 0.43993 0.69567 0.0
O118 O 0.35828 0.40084 0.71885 0.0
C119 C 0.30474 0.41954 0.74505 0.0
C120 C 0.27758 0.40474 0.48742 0.0
C121 C 0.33978 0.37745 0.67975 0.0
O122 O 0.29578 0.40804 0.67153 0.0
O123 O 0.33187 0.43539 0.7663 0.0
O124 O 0.33735 0.40878 0.46977 0.0
O125 O 0.35357 0.43854 0.57911 0.0
Co126 Co 0.70248 0.80839 0.11547 0.0
O127 O 0.67444 0.81791 0.07082 0.0
O128 O 0.72147 0.84958 0.0935 0.0
C129 C 0.6889 0.76966 0.02896 0.0
O130 O 0.73694 0.8046 0.16181 0.0
Co131 Co 0.67558 0.74888 0.20188 0.0
O132 O 0.71735 0.76121 0.22316 0.0
C133 C 0.68132 0.79971 0.29349 0.0
C134 C 0.6958 0.84413 0.0649 0.0
C135 C 0.73916 0.78533 0.20413 0.0
O136 O 0.69431 0.81553 0.23198 0.0
O137 O 0.66955 0.77204 0.29169 0.0
O138 O 0.70688 0.79553 0.0053 0.0
O139 O 0.6774 0.76834 0.10012 0.0
Co140 Co 0.30587 0.94833 0.09407 0.0
O141 O 0.27298 0.93497 0.1624 0.0
O142 O 0.29933 0.91343 0.15045 0.0
C143 C 0.32648 0.99434 0.14402 0.0
O144 O 0.34256 0.95891 0.02743 0.0
Co145 Co 0.30834 0.98934 0.96309 0.0
O146 O 0.34569 0.9919 0.93613 0.0
C147 C 0.2721 0.92738 0.92553 0.0
C148 C 0.27767 0.91453 0.1848 0.0
C149 C 0.3553 0.97644 0.96809 0.0
O150 O 0.27986 0.92343 0.99789 0.0
O151 O 0.27993 0.95266 0.89932 0.0
O152 O 0.33093 0.97536 0.18019 0.0
O153 O 0.30693 0.98454 0.083 0.0
Co154 Co 0.17825 0.39226 0.0551 0.0
O155 O 0.21345 0.41755 1.0006 0.0
O156 O 0.19585 0.37033 0.00952 0.0
C157 C 0.15154 0.40944 0.99067 0.0
O158 O 0.14174 0.36039 0.11013 0.0
Co159 Co 0.15718 0.42395 0.17405 0.0
O160 O 0.1277 0.38391 0.20054 0.0
C161 C 0.20349 0.41277 0.2331 0.0
C162 C 0.21596 0.39516 0.98272 0.0
C163 C 0.12544 0.36068 0.16878 0.0
O164 O 0.20094 0.39929 0.16345 0.0
O165 O 0.18979 0.4265 0.24793 0.0
O166 O 0.15497 0.38919 0.95593 0.0
O167 O 0.1665 0.4206 0.06003 0.0
Co168 Co 0.39978 0.2816 0.95298 0.0
O169 O 0.41883 0.26852 0.02761 0.0
O170 O 0.37082 0.24793 0.01108 0.0
C171 C 0.42661 0.32814 0.99673 0.0
O172 O 0.37423 0.29211 0.87922 0.0
Co173 Co 0.43942 0.32124 0.82033 0.0
O174 O 0.40455 0.32359 0.78706 0.0
C175 C 0.4108 0.25835 0.79012 0.0
C176 C 0.39342 0.24894 0.04968 0.0
C177 C 0.37939 0.30888 0.81711 0.0
O178 O 0.39953 0.25513 0.86155 0.0
O179 O 0.42877 0.28321 0.76278 0.0
O180 O 0.40336 0.31034 0.0343 0.0
O181 O 0.43524 0.31681 0.93952 0.0
Co182 Co 0.84428 0.11904 0.88101 0.0
O183 O 0.87752 0.12982 0.81356 0.0
O184 O 0.85398 0.15438 0.82453 0.0
C185 C 0.81966 0.07234 0.83762 0.0
O186 O 0.80833 0.11281 0.94542 0.0
Co187 Co 0.83571 0.07628 0.02013 0.0
O188 O 0.80229 0.0816 0.04662 0.0
C189 C 0.87742 0.13814 0.0509 0.0
C190 C 0.8748 0.1516 0.79117 0.0
C191 C 0.7951 0.09818 0.00943 0.0
O192 O 0.87045 0.14274 0.97818 0.0
O193 O 0.86744 0.11265 0.07864 0.0
O194 O 0.8188 0.09208 0.79391 0.0
O195 O 0.83816 0.08166 0.90095 0.0
Co196 Co 0.96818 0.70954 0.91773 0.0
O197 O 0.93412 0.69176 0.98274 0.0
O198 O 0.96435 0.73912 0.98068 0.0
C199 C 0.98454 0.67955 0.95809 0.0
O200 O 0.00625 0.73475 0.85718 0.0
Co201 Co 0.97044 0.67208 0.77392 0.0
O202 O 0.00789 0.70695 0.75166 0.0
C203 C 0.93723 0.70209 0.74711 0.0
C204 C 0.94116 0.71748 0.0107 0.0
C205 C 0.01836 0.73104 0.79258 0.0
O206 O 0.94481 0.71272 0.82187 0.0
O207 O 0.94379 0.68374 0.71638 0.0
O208 O 0.99 0.70236 0.00274 0.0
O209 O 0.96684 0.67362 0.89374 0.0
Co210 Co 0.38717 0.1424 0.40335 0.0
O211 O 0.36573 0.15204 0.32539 0.0
O212 O 0.41309 0.17955 0.35588 0.0
C213 C 0.36936 0.09713 0.35073 0.0
O214 O 0.41599 0.13768 0.48103 0.0
Co215 Co 0.35185 0.09776 0.527 0.0
O216 O 0.38941 0.10293 0.57022 0.0
C217 C 0.36858 0.15768 0.56692 0.0
C218 C 0.38997 0.17543 0.31268 0.0
C219 C 0.41386 0.12178 0.54315 0.0
O220 O 0.3793 0.16332 0.49474 0.0
O221 O 0.35532 0.13193 0.59347 0.0
O222 O 0.39198 0.11891 0.32093 0.0
O223 O 0.35567 0.10323 0.40708 0.0
Co224 Co 0.97233 0.26138 0.44352 0.0
O225 O 0.93864 0.24535 0.5092 0.0
O226 O 0.96858 0.22777 0.50272 0.0
C227 C 0.98734 0.30693 0.49266 0.0
O228 O 0.01011 0.27504 0.37853 0.0
Co229 Co 0.97193 0.30167 0.30996 0.0
O230 O 0.01003 0.3058 0.28359 0.0
C231 C 0.93911 0.23878 0.27535 0.0
C232 C 0.9455 0.22666 0.53457 0.0
C233 C 0.02142 0.29206 0.31697 0.0
O234 O 0.94844 0.23537 0.3462 0.0
O235 O 0.94444 0.2636 0.25054 0.0
O236 O 0.99441 0.29009 0.53131 0.0
O237 O 0.9696 0.29514 0.42829 0.0
Co238 Co 0.8464 0.73554 0.36652 0.0
O239 O 0.87875 0.75472 0.29526 0.0
O240 O 0.85261 0.7071 0.30651 0.0
C241 C 0.82438 0.7607 0.32627 0.0
O242 O 0.81093 0.70863 0.43444 0.0
Co243 Co 0.84254 0.77275 0.50825 0.0
O244 O 0.80896 0.73588 0.54089 0.0
C245 C 0.88051 0.74782 0.53409 0.0
C246 C 0.8739 0.72924 0.27168 0.0
C247 C 0.79985 0.71153 0.50241 0.0
O248 O 0.87319 0.73686 0.45963 0.0
O249 O 0.87183 0.76443 0.56542 0.0
O250 O 0.82076 0.7381 0.28381 0.0
O251 O 0.84369 0.76956 0.38776 0.0
C252 C 0.04424 0.50784 0.00313 0.0
C253 C 0.04996 0.51073 0.91796 0.0
H254 H 0.0515 0.5292 0.1227 0.0
C255 C 0.06866 0.53864 0.88882 0.0
H256 H 0.03035 0.4867 0.02804 0.0
C257 C 0.08118 0.56302 0.94327 0.0
C258 C 0.07524 0.56017 0.02827 0.0
H259 H 0.07383 0.54177 0.8237 0.0
H260 H 0.09498 0.58417 0.91824 0.0
C261 C 0.05672 0.53225 0.0576 0.0
C262 C 0.60127 0.54843 0.96381 0.0
C263 C 0.59756 0.57095 0.93387 0.0
H264 H 0.58701 0.5139 0.04837 0.0
C265 C 0.57618 0.57613 0.96887 0.0
H266 H 0.61759 0.54404 0.93858 0.0
C267 C 0.55878 0.5591 0.03204 0.0
C268 C 0.56228 0.53642 0.06147 0.0
H269 H 0.57281 0.59348 0.94758 0.0
H270 H 0.54244 0.56351 0.05707 0.0
C271 C 0.58375 0.5313 0.02692 0.0
C272 C 0.58286 0.03357 0.96621 0.0
C273 C 0.58885 0.04192 0.05112 0.0
H274 H 0.56592 0.03847 0.84941 0.0
C275 C 0.58224 0.06285 0.08269 0.0
H276 H 0.58793 0.01779 0.93946 0.0
C277 C 0.56975 0.07492 0.03088 0.0
C278 C 0.56362 0.06647 0.94602 0.0
H279 H 0.58671 0.06999 0.14772 0.0
H280 H 0.56459 0.09063 0.05773 0.0
C281 C 0.57047 0.04572 0.91433 0.0
C282 C 0.57107 0.03011 0.46428 0.0
C283 C 0.59516 0.05477 0.43281 0.0
H284 H 0.5368 0.01327 0.55074 0.0
C285 C 0.60308 0.08227 0.46737 0.0
H286 H 0.56432 0.00847 0.43948 0.0
C287 C 0.58703 0.08492 0.53195 0.0
C288 C 0.56295 0.06011 0.56302 0.0
H289 H 0.62158 0.10159 0.44478 0.0
H290 H 0.59343 0.1064 0.55732 0.0
C291 C 0.55524 0.03273 0.52858 0.0
C292 C 0.03319 0.53312 0.43187 0.0
C293 C 0.06055 0.55423 0.40554 0.0
H294 H 0.00999 0.49902 0.51554 0.0
C295 C 0.08608 0.55717 0.44521 0.0
H296 H 0.01324 0.53048 0.40281 0.0
C297 C 0.08433 0.53938 0.5098 0.0
C298 C 0.05703 0.51824 0.53611 0.0
H299 H 0.1076 0.57332 0.42648 0.0
H300 H 0.10435 0.54205 0.53857 0.0
C301 C 0.03144 0.51527 0.4967 0.0
C302 C 0.59179 0.58019 0.4653 0.0
C303 C 0.5947 0.57675 0.55066 0.0
H304 H 0.5761 0.55957 0.34513 0.0
C305 C 0.58402 0.54854 0.57969 0.0
H306 H 0.60019 0.60158 0.44053 0.0
C307 C 0.57035 0.52431 0.52476 0.0
C308 C 0.56711 0.52775 0.43951 0.0
H309 H 0.58613 0.54509 0.64507 0.0
H310 H 0.56175 0.50289 0.54949 0.0
C311 C 0.57826 0.55602 0.4104 0.0
C312 C 0.65821 0.8065 0.41944 0.0
C313 C 0.68295 0.81493 0.37219 0.0
H314 H 0.63979 0.81827 0.52017 0.0
C315 C 0.70967 0.83929 0.39837 0.0
H316 H 0.6375 0.78759 0.40051 0.0
C317 C 0.71128 0.85622 0.46777 0.0
C318 C 0.68597 0.84943 0.51066 0.0
H319 H 0.72917 0.84577 0.36341 0.0
H320 H 0.7318 0.8758 0.48368 0.0
C321 C 0.65962 0.82391 0.48788 0.0
C322 C 0.2475 0.85618 0.34415 0.0
C323 C 0.22519 0.86018 0.37768 0.0
H324 H 0.28159 0.87005 0.25639 0.0
C325 C 0.22031 0.88184 0.34683 0.0
H326 H 0.25179 0.83955 0.36669 0.0
C327 C 0.23725 0.89905 0.28338 0.0
C328 C 0.25953 0.89506 0.24961 0.0
H329 H 0.20325 0.88531 0.371 0.0
H330 H 0.23285 0.91563 0.261 0.0
C331 C 0.26454 0.87349 0.28071 0.0
C332 C 0.25217 0.42938 0.42702 0.0
C333 C 0.25583 0.40491 0.42863 0.0
H334 H 0.23254 0.45101 0.36426 0.0
C335 C 0.24146 0.3827 0.36728 0.0
H336 H 0.26317 0.44688 0.47361 0.0
C337 C 0.22467 0.38549 0.30338 0.0
C338 C 0.22145 0.41024 0.3008 0.0
H339 H 0.24422 0.36382 0.3666 0.0
H340 H 0.21419 0.36823 0.25589 0.0
C341 C 0.23482 0.43184 0.36432 0.0
C342 C 0.26696 0.42461 0.93722 0.0
C343 C 0.23984 0.39872 0.92941 0.0
H344 H 0.30882 0.45145 0.88572 0.0
C345 C 0.23458 0.37918 0.86246 0.0
H346 H 0.27142 0.44017 0.98806 0.0
C347 C 0.25566 0.3861 0.80227 0.0
C348 C 0.28258 0.41239 0.80903 0.0
H349 H 0.21368 0.35934 0.85428 0.0
H350 H 0.25081 0.3709 0.75016 0.0
C351 C 0.28827 0.4312 0.87836 0.0
C352 C 0.66318 0.86103 0.00371 0.0
C353 C 0.6913 0.86424 0.01304 0.0
H354 H 0.63435 0.87026 0.93018 0.0
C355 C 0.71299 0.88202 0.95907 0.0
H356 H 0.64601 0.84726 0.04446 0.0
C357 C 0.70601 0.89423 0.89253 0.0
C358 C 0.67744 0.88949 0.87997 0.0
H359 H 0.73468 0.88459 0.96412 0.0
H360 H 0.72278 0.90666 0.84902 0.0
C361 C 0.6564 0.87394 0.93822 0.0
C362 C 0.25204 0.90478 0.78324 0.0
C363 C 0.25587 0.90156 0.86827 0.0
H364 H 0.23601 0.88393 0.66333 0.0
C365 C 0.24628 0.87346 0.89693 0.0
H366 H 0.25951 0.92607 0.7587 0.0
C367 C 0.23298 0.84918 0.842 0.0
C368 C 0.22897 0.8524 0.75703 0.0
H369 H 0.24907 0.87014 0.96201 0.0
H370 H 0.22539 0.82787 0.86652 0.0
C371 C 0.23883 0.88054 0.72832 0.0
C372 C 0.40334 0.23547 0.64785 0.0
C373 C 0.39994 0.23231 0.73394 0.0
H374 H 0.39499 0.21461 0.52774 0.0
C375 C 0.38382 0.20417 0.76444 0.0
H376 H 0.41498 0.25678 0.62194 0.0
C377 C 0.37215 0.1797 0.71003 0.0
C378 C 0.37614 0.18293 0.62398 0.0
H379 H 0.38047 0.20101 0.8305 0.0
H380 H 0.36077 0.15832 0.73563 0.0
C381 C 0.39145 0.21116 0.59363 0.0
C382 C 0.91658 0.16794 0.69474 0.0
C383 C 0.89371 0.17116 0.72745 0.0
H384 H 0.95114 0.18291 0.60765 0.0
C385 C 0.88829 0.19244 0.69615 0.0
H386 H 0.92124 0.1516 0.71767 0.0
C387 C 0.90509 0.20995 0.63318 0.0
C388 C 0.92794 0.20684 0.59994 0.0
H389 H 0.87083 0.1954 0.7196 0.0
H390 H 0.90007 0.22611 0.61075 0.0
C391 C 0.93365 0.18572 0.6316 0.0
C392 C 0.91468 0.73358 0.72509 0.0
C393 C 0.92233 0.71349 0.69284 0.0
H394 H 0.89601 0.76054 0.70062 0.0
C395 C 0.91737 0.706 0.60728 0.0
H396 H 0.91837 0.74009 0.7906 0.0
C397 C 0.90488 0.71805 0.55549 0.0
C398 C 0.89689 0.73787 0.58783 0.0
H399 H 0.92327 0.69091 0.57993 0.0
H400 H 0.90108 0.71139 0.49009 0.0
C401 C 0.9021 0.74559 0.67328 0.0
C402 C 0.88441 0.69869 0.17351 0.0
C403 C 0.89141 0.72615 0.20603 0.0
H404 H 0.89448 0.67454 0.08579 0.0
C405 C 0.91488 0.75102 0.17331 0.0
H406 H 0.86642 0.67918 0.19712 0.0
C407 C 0.93105 0.74844 0.10928 0.0
C408 C 0.92395 0.72096 0.07659 0.0
H409 H 0.9208 0.77256 0.19709 0.0
H410 H 0.94906 0.76791 0.08561 0.0
C411 C 0.90047 0.69612 0.10938 0.0
C412 C 0.36449 0.18989 0.20716 0.0
C413 C 0.39067 0.19519 0.24872 0.0
H414 H 0.34463 0.20268 0.11118 0.0
C415 C 0.41724 0.21844 0.22549 0.0
H416 H 0.34356 0.17205 0.22395 0.0
C417 C 0.41776 0.2357 0.16083 0.0
C418 C 0.39169 0.23018 0.11817 0.0
H419 H 0.43768 0.22301 0.25617 0.0
H420 H 0.43879 0.25339 0.14415 0.0
C421 C 0.36499 0.2073 0.14249 0.0
C422 C 0.91789 0.21612 0.13417 0.0
C423 C 0.92324 0.21295 0.21816 0.0
H424 H 0.90007 0.19526 0.01533 0.0
C425 C 0.9148 0.18499 0.24585 0.0
H426 H 0.92444 0.23733 0.11037 0.0
C427 C 0.90087 0.16071 0.19108 0.0
C428 C 0.89517 0.16386 0.10729 0.0
H429 H 0.91878 0.18176 0.31011 0.0
H430 H 0.8941 0.13946 0.21487 0.0
C431 C 0.90413 0.19192 0.0794 0.0
C432 C 0.14118 0.69434 0.36287 0.0
C433 C 0.11187 0.68277 0.33524 0.0
H434 H 0.17728 0.72825 0.43608 0.0
C435 C 0.09614 0.69612 0.36171 0.0
H436 H 0.15341 0.68383 0.34493 0.0
C437 C 0.10945 0.72088 0.41386 0.0
C438 C 0.13859 0.73245 0.44228 0.0
H439 H 0.07334 0.6872 0.34242 0.0
H440 H 0.09704 0.73127 0.43138 0.0
C441 C 0.15448 0.71908 0.41673 0.0
C442 C 0.44086 0.46494 0.47811 0.0
C443 C 0.44144 0.46299 0.39057 0.0
H444 H 0.41442 0.45662 0.58516 0.0
C445 C 0.41559 0.45414 0.34315 0.0
H446 H 0.46055 0.47135 0.51604 0.0
C447 C 0.38919 0.44497 0.38274 0.0
C448 C 0.38826 0.44502 0.47038 0.0
H449 H 0.41532 0.45191 0.27591 0.0
H450 H 0.36922 0.4365 0.3446 0.0
C451 C 0.41453 0.4564 0.51775 0.0
C452 C 0.64954 0.96697 0.513 0.0
C453 C 0.65932 0.94877 0.48093 0.0
H454 H 0.63905 0.00014 0.48705 0.0
C455 C 0.66292 0.94778 0.39437 0.0
H456 H 0.64668 0.96819 0.57921 0.0
C457 C 0.65813 0.96567 0.34126 0.0
C458 C 0.65032 0.98529 0.37428 0.0
H459 H 0.67027 0.9337 0.36792 0.0
H460 H 0.66202 0.96526 0.27549 0.0
C461 C 0.64539 0.9853 0.46021 0.0
C462 C 0.7166 0.07793 0.02379 0.0
C463 C 0.71368 0.0765 0.11086 0.0
H464 H 0.74538 0.08706 0.92236 0.0
C465 C 0.739 0.08922 0.16276 0.0
H466 H 0.69731 0.06812 0.98238 0.0
C467 C 0.76648 0.09979 0.1282 0.0
C468 C 0.76906 0.09823 0.04132 0.0
H469 H 0.7374 0.08809 0.2298 0.0
H470 H 0.78546 0.10673 0.16974 0.0
C471 C 0.74411 0.08891 0.98922 0.0
C472 C 0.99275 0.65453 0.07529 0.0
C473 C 0.99437 0.6599 0.98961 0.0
H474 H 0.00864 0.64077 0.17886 0.0
C475 C 0.01014 0.65112 0.93971 0.0
H476 H 0.98068 0.66124 0.11497 0.0
C477 C 0.02651 0.63986 0.97662 0.0
C478 C 0.02681 0.63672 0.06351 0.0
H479 H 0.01191 0.65532 0.87383 0.0
H480 H 0.04052 0.63544 0.93804 0.0
C481 C 0.00857 0.64268 0.11188 0.0
C482 C 0.42997 0.37367 0.04614 0.0
C483 C 0.4441 0.35774 0.03131 0.0
H484 H 0.43283 0.41176 0.10293 0.0
C485 C 0.47239 0.36772 0.0655 0.0
H486 H 0.40783 0.36584 0.02198 0.0
C487 C 0.4863 0.39346 0.11486 0.0
C488 C 0.47208 0.40944 0.12906 0.0
H489 H 0.48318 0.35511 0.05674 0.0
H490 H 0.50826 0.40116 0.1402 0.0
C491 C 0.444 0.39951 0.09363 0.0
C492 C -0.00043 0.33925 0.6195 0.0
C493 C 0.9933 0.33456 0.53292 0.0
H494 H 0.01321 0.36961 0.72409 0.0
C495 C 0.99315 0.35644 0.48646 0.0
H496 H -0.00056 0.32251 0.65708 0.0
C497 C 0.00115 0.38331 0.52504 0.0
C498 C 0.00853 0.38829 0.61082 0.0
H499 H 0.98825 0.35327 0.41994 0.0
H500 H 0.00281 0.40066 0.4872 0.0
C501 C 0.00692 0.3659 0.65835 0.0
C502 C 0.7467 0.66832 0.66382 0.0
C503 C 0.72084 0.65348 0.61463 0.0
H504 H 0.7927 0.69856 0.66527 0.0
C505 C 0.72266 0.65203 0.52742 0.0
H506 H 0.74587 0.67018 0.73086 0.0
C507 C 0.74947 0.66829 0.48955 0.0
C508 C 0.77467 0.68646 0.53864 0.0
H509 H 0.70287 0.64095 0.48817 0.0
H510 H 0.74979 0.6692 0.42229 0.0
C511 C 0.77343 0.68484 0.62602 0.0
C512 C 0.44049 0.11878 0.66958 0.0
C513 C 0.44017 0.12353 0.58364 0.0
H514 H 0.45952 0.10675 0.76987 0.0
C515 C 0.46245 0.12458 0.53557 0.0
H516 H 0.42351 0.11793 0.70807 0.0
C517 C 0.48272 0.11782 0.57089 0.0
C518 C 0.48148 0.11068 0.65512 0.0
H519 H 0.46259 0.12795 0.4693 0.0
H520 H 0.4981 0.11613 0.53089 0.0
C521 C 0.46117 0.11263 0.70528 0.0
C522 C 0.38791 0.9833 0.85168 0.0
C523 C 0.38378 0.98198 0.93817 0.0
H524 H 0.41803 0.00312 0.75409 0.0
C525 C 0.40835 0.99504 0.99292 0.0
H526 H 0.36917 0.97364 0.80824 0.0
C527 C 0.43619 0.01236 0.9619 0.0
C528 C 0.43987 0.01645 0.87573 0.0
H529 H 0.40576 0.9948 0.05964 0.0
H530 H 0.4545 0.0246 0.00574 0.0
C531 C 0.41583 0.00024 0.82057 0.0
C532 C 0.11195 0.42465 0.81694 0.0
C533 C 0.09849 0.43747 0.861 0.0
H534 H 0.13909 0.40535 0.82433 0.0
C535 C 0.10461 0.44347 0.9472 0.0
H536 H 0.10704 0.41928 0.75092 0.0
C537 C 0.12306 0.4357 0.98945 0.0
C538 C 0.13497 0.42108 0.94634 0.0
H539 H 0.09398 0.45295 0.9825 0.0
H540 H 0.12669 0.43969 0.05623 0.0
C541 C 0.12988 0.41632 0.85939 0.0
C542 C 0.66637 0.69299 0.96212 0.0
C543 C 0.66997 0.69525 0.87561 0.0
H544 H 0.66909 0.71477 0.07834 0.0
C545 C 0.679 0.72192 0.83924 0.0
H546 H 0.65909 0.67245 0.99147 0.0
C547 C 0.68529 0.74631 0.88955 0.0
C548 C 0.68177 0.74396 0.97618 0.0
H549 H 0.68185 0.72402 0.77273 0.0
H550 H 0.69276 0.76695 0.86072 0.0
C551 C 0.67191 0.71707 0.01186 0.0
C552 C 0.75008 0.00201 0.83922 0.0
C553 C 0.74743 0.99247 0.75543 0.0
H554 H 0.77641 0.03466 0.93294 0.0
C555 C 0.77145 0.00637 0.70464 0.0
H556 H 0.73188 0.99129 0.87987 0.0
C557 C 0.79675 0.03125 0.73502 0.0
C558 C 0.79862 0.04186 0.81714 0.0
H559 H 0.76989 -0.00069 0.64003 0.0
H560 H 0.8141 0.04333 0.69276 0.0
C561 C 0.77566 0.02644 0.87014 0.0
C562 C 0.07756 0.77256 0.6443 0.0
C563 C 0.10238 0.78166 0.69685 0.0
H564 H 0.03071 0.74926 0.63506 0.0
C565 C 0.09915 0.78043 0.78375 0.0
H566 H 0.07939 0.77288 0.57727 0.0
C567 C 0.07131 0.76718 0.81707 0.0
C568 C 0.04636 0.75461 0.7637 0.0
H569 H 0.11804 0.78717 0.82552 0.0
H570 H 0.06934 0.76391 0.88343 0.0
C571 C 0.04972 0.7589 0.67751 0.0
C572 C 0.3451 0.33371 0.65873 0.0
C573 C 0.33799 0.35067 0.71026 0.0
H574 H 0.36341 0.30568 0.65411 0.0
C575 C 0.33657 0.34646 0.79665 0.0
H576 H 0.34659 0.33676 0.59222 0.0
C577 C 0.34575 0.32838 0.8321 0.0
C578 C 0.35689 0.31467 0.78155 0.0
H579 H 0.33113 0.35942 0.83758 0.0
H580 H 0.34766 0.32818 0.89934 0.0
C581 C 0.35464 0.31589 0.6943 0.0
C582 C 0.07548 0.31409 0.33043 0.0
C583 C 0.04952 0.29809 0.28218 0.0
H584 H 0.12086 0.34653 0.33027 0.0
C585 C 0.05114 0.29696 0.19475 0.0
H586 H 0.07485 0.31581 0.39756 0.0
C587 C 0.0775 0.31455 0.15595 0.0
C588 C 0.10257 0.33361 0.2042 0.0
H589 H 0.0313 0.28502 0.15609 0.0
H590 H 0.07733 0.31579 0.08876 0.0
C591 C 0.10179 0.33181 0.29164 0.0
C592 C 0.8054 0.77754 0.2104 0.0
C593 C 0.80953 0.77633 0.29682 0.0
H594 H 0.7802 0.78273 0.1125 0.0
C595 C 0.79477 0.78492 0.35168 0.0
H596 H 0.81658 0.77097 0.1668 0.0
C597 C 0.77378 0.79147 0.32026 0.0
C598 C 0.76786 0.79013 0.23382 0.0
H599 H 0.79733 0.78382 0.41836 0.0
H600 H 0.76041 0.79513 0.36357 0.0
C601 C 0.78484 0.78455 0.1791 0.0
C602 C 0.31776 0.03128 0.21609 0.0
C603 C 0.33719 0.02238 0.1881 0.0
H604 H 0.31254 0.06173 0.29408 0.0
C605 C 0.36632 0.037 0.21845 0.0
H606 H 0.29493 0.0196 0.19537 0.0
C607 C 0.37611 0.06042 0.27505 0.0
C608 C 0.35683 0.06929 0.30397 0.0
H609 H 0.38143 0.02995 0.19926 0.0
H610 H 0.39895 0.07182 0.29591 0.0
C611 C 0.32753 0.05464 0.27426 0.0
loop_
_geom_bond_atom_site_label_1
_geom_bond_atom_site_label_2
_geom_bond_distance
_geom_bond_site_symmetry_2
_ccdc_geom_bond_type
Co0 O1 2.216 . S
Co0 O2 2.091 . S
Co0 O4 2.004 . S
Co0 O10 2.021 . S
Co0 O12 2.137 . S
Co0 O13 2.244 . S
O1 Co0 2.216 . S
O1 C8 1.247 . S
O2 Co0 2.091 . S
O2 C8 1.261 . S
C3 O12 1.247 . S
C3 O13 1.272 . S
O4 Co0 2.004 . S
O4 C9 1.259 . S
Co5 O6 2.061 . S
Co5 O11 2.052 . S
Co5 O13 2.135 . S
O6 Co5 2.061 . S
O6 C9 1.235 . S
C7 O10 1.238 . S
C7 O11 1.241 . S
C8 O1 1.247 . S
C8 O2 1.261 . S
C9 O4 1.259 . S
C9 O6 1.235 . S
O10 Co0 2.021 . S
O10 C7 1.238 . S
O11 Co5 2.052 . S
O11 C7 1.241 . S
O12 Co0 2.137 . S
O12 C3 1.247 . S
O13 Co0 2.244 . S
O13 C3 1.272 . S
O13 Co5 2.135 . S
Co14 O15 2.216 . S
Co14 O16 2.091 . S
Co14 O18 2.004 . S
Co14 O24 2.021 . S
Co14 O26 2.137 . S
Co14 O27 2.244 . S
O15 Co14 2.216 . S
O15 C22 1.247 . S
O16 Co14 2.091 . S
O16 C22 1.261 . S
C17 O26 1.247 . S
C17 O27 1.272 . S
O18 Co14 2.004 . S
O18 C23 1.259 . S
Co19 O20 2.061 . S
Co19 O25 2.052 . S
Co19 O27 2.135 . S
O20 Co19 2.061 . S
O20 C23 1.235 . S
C21 O24 1.238 . S
C21 O25 1.241 . S
C22 O15 1.247 . S
C22 O16 1.261 . S
C23 O18 1.259 . S
C23 O20 1.235 . S
O24 Co14 2.021 . S
O24 C21 1.238 . S
O25 Co19 2.052 . S
O25 C21 1.241 . S
O26 Co14 2.137 . S
O26 C17 1.247 . S
O27 Co14 2.244 . S
O27 C17 1.272 . S
O27 Co19 2.135 . S
Co28 O29 2.216 . S
Co28 O30 2.091 . S
Co28 O32 2.004 . S
Co28 O38 2.021 . S
Co28 O40 2.137 . S
Co28 O41 2.244 . S
O29 Co28 2.216 . S
O29 C36 1.247 . S
O30 Co28 2.091 . S
O30 C36 1.261 . S
C31 O40 1.247 . S
C31 O41 1.272 . S
O32 Co28 2.004 . S
O32 C37 1.259 . S
Co33 O34 2.061 . S
Co33 O39 2.052 . S
Co33 O41 2.135 . S
O34 Co33 2.061 . S
O34 C37 1.235 . S
C35 O38 1.238 . S
C35 O39 1.241 . S
C36 O29 1.247 . S
C36 O30 1.261 . S
C37 O32 1.259 . S
C37 O34 1.235 . S
O38 Co28 2.021 . S
O38 C35 1.238 . S
O39 Co33 2.052 . S
O39 C35 1.241 . S
O40 Co28 2.137 . S
O40 C31 1.247 . S
O41 Co28 2.244 . S
O41 C31 1.272 . S
O41 Co33 2.135 . S
Co42 O43 2.216 . S
Co42 O44 2.091 . S
Co42 O46 2.004 . S
Co42 O52 2.021 . S
Co42 O54 2.137 . S
Co42 O55 2.244 . S
O43 Co42 2.216 . S
O43 C50 1.247 . S
O44 Co42 2.091 . S
O44 C50 1.261 . S
C45 O54 1.247 . S
C45 O55 1.272 . S
O46 Co42 2.004 . S
O46 C51 1.259 . S
Co47 O48 2.061 . S
Co47 O53 2.052 . S
Co47 O55 2.135 . S
O48 Co47 2.061 . S
O48 C51 1.235 . S
C49 O52 1.238 . S
C49 O53 1.241 . S
C50 O43 1.247 . S
C50 O44 1.261 . S
C51 O46 1.259 . S
C51 O48 1.235 . S
O52 Co42 2.021 . S
O52 C49 1.238 . S
O53 Co47 2.052 . S
O53 C49 1.241 . S
O54 Co42 2.137 . S
O54 C45 1.247 . S
O55 Co42 2.244 . S
O55 C45 1.272 . S
O55 Co47 2.135 . S
Co56 O57 2.216 . S
Co56 O58 2.091 . S
Co56 O60 2.004 . S
Co56 O66 2.021 . S
Co56 O68 2.137 . S
Co56 O69 2.244 . S
O57 Co56 2.216 . S
O57 C64 1.247 . S
O58 Co56 2.091 . S
O58 C64 1.261 . S
C59 O68 1.247 . S
C59 O69 1.272 . S
O60 Co56 2.004 . S
O60 C65 1.259 . S
Co61 O62 2.061 . S
Co61 O67 2.052 . S
Co61 O69 2.135 . S
O62 Co61 2.061 . S
O62 C65 1.235 . S
C63 O66 1.238 . S
C63 O67 1.241 . S
C64 O57 1.247 . S
C64 O58 1.261 . S
C65 O60 1.259 . S
C65 O62 1.235 . S
O66 Co56 2.021 . S
O66 C63 1.238 . S
O67 Co61 2.052 . S
O67 C63 1.241 . S
O68 Co56 2.137 . S
O68 C59 1.247 . S
O69 Co56 2.244 . S
O69 C59 1.272 . S
O69 Co61 2.135 . S
Co70 O71 2.216 . S
Co70 O72 2.091 . S
Co70 O74 2.004 . S
Co70 O80 2.021 . S
Co70 O82 2.137 . S
Co70 O83 2.244 . S
O71 Co70 2.216 . S
O71 C78 1.247 . S
O72 Co70 2.091 . S
O72 C78 1.261 . S
C73 O82 1.247 . S
C73 O83 1.272 . S
O74 Co70 2.004 . S
O74 C79 1.259 . S
Co75 O76 2.061 . S
Co75 O81 2.052 . S
Co75 O83 2.135 . S
O76 Co75 2.061 . S
O76 C79 1.235 . S
C77 O80 1.238 . S
C77 O81 1.241 . S
C78 O71 1.247 . S
C78 O72 1.261 . S
C79 O74 1.259 . S
C79 O76 1.235 . S
O80 Co70 2.021 . S
O80 C77 1.238 . S
O81 Co75 2.052 . S
O81 C77 1.241 . S
O82 Co70 2.137 . S
O82 C73 1.247 . S
O83 Co70 2.244 . S
O83 C73 1.272 . S
O83 Co75 2.135 . S
Co84 O85 2.216 . S
Co84 O86 2.091 . S
Co84 O88 2.004 . S
Co84 O94 2.021 . S
Co84 O96 2.137 . S
Co84 O97 2.244 . S
O85 Co84 2.216 . S
O85 C92 1.247 . S
O86 Co84 2.091 . S
O86 C92 1.261 . S
C87 O96 1.247 . S
C87 O97 1.272 . S
O88 Co84 2.004 . S
O88 C93 1.259 1_565 S
Co89 O90 2.061 . S
Co89 O95 2.052 . S
Co89 O97 2.135 . S
O90 Co89 2.061 . S
O90 C93 1.235 1_565 S
C91 O94 1.238 . S
C91 O95 1.241 . S
C92 O85 1.247 . S
C92 O86 1.261 . S
C93 O88 1.259 1_545 S
C93 O90 1.235 1_545 S
O94 Co84 2.021 . S
O94 C91 1.238 . S
O95 Co89 2.052 . S
O95 C91 1.241 . S
O96 Co84 2.137 . S
O96 C87 1.247 . S
O97 Co84 2.244 . S
O97 C87 1.272 . S
O97 Co89 2.135 . S
Co98 O99 2.216 . S
Co98 O100 2.091 . S
Co98 O102 2.004 . S
Co98 O108 2.021 . S
Co98 O110 2.137 . S
Co98 O111 2.244 . S
O99 Co98 2.216 . S
O99 C106 1.247 . S
O100 Co98 2.091 . S
O100 C106 1.261 . S
C101 O110 1.247 . S
C101 O111 1.272 . S
O102 Co98 2.004 . S
O102 C107 1.259 . S
Co103 O104 2.061 . S
Co103 O109 2.052 . S
Co103 O111 2.135 . S
O104 Co103 2.061 . S
O104 C107 1.235 . S
C105 O108 1.238 . S
C105 O109 1.241 . S
C106 O99 1.247 . S
C106 O100 1.261 . S
C107 O102 1.259 . S
C107 O104 1.235 . S
O108 Co98 2.021 . S
O108 C105 1.238 . S
O109 Co103 2.052 . S
O109 C105 1.241 . S
O110 Co98 2.137 . S
O110 C101 1.247 . S
O111 Co98 2.244 . S
O111 C101 1.272 . S
O111 Co103 2.135 . S
Co112 O113 2.216 . S
Co112 O114 2.091 . S
Co112 O116 2.004 . S
Co112 O122 2.021 . S
Co112 O124 2.137 . S
Co112 O125 2.244 . S
O113 Co112 2.216 . S
O113 C120 1.247 . S
O114 Co112 2.091 . S
O114 C120 1.261 . S
C115 O124 1.247 . S
C115 O125 1.272 . S
O116 Co112 2.004 . S
O116 C121 1.259 . S
Co117 O118 2.061 . S
Co117 O123 2.052 . S
Co117 O125 2.135 . S
O118 Co117 2.061 . S
O118 C121 1.235 . S
C119 O122 1.238 . S
C119 O123 1.241 . S
C120 O113 1.247 . S
C120 O114 1.261 . S
C121 O116 1.259 . S
C121 O118 1.235 . S
O122 Co112 2.021 . S
O122 C119 1.238 . S
O123 Co117 2.052 . S
O123 C119 1.241 . S
O124 Co112 2.137 . S
O124 C115 1.247 . S
O125 Co112 2.244 . S
O125 C115 1.272 . S
O125 Co117 2.135 . S
Co126 O127 2.216 1_554 S
Co126 O128 2.091 1_554 S
Co126 O130 2.004 . S
Co126 O136 2.021 . S
Co126 O138 2.137 1_554 S
Co126 O139 2.244 . S
O127 Co126 2.216 1_556 S
O127 C134 1.247 . S
O128 Co126 2.091 1_556 S
O128 C134 1.261 . S
C129 O138 1.247 . S
C129 O139 1.272 1_556 S
O130 Co126 2.004 . S
O130 C135 1.259 . S
Co131 O132 2.061 . S
Co131 O137 2.052 . S
Co131 O139 2.135 . S
O132 Co131 2.061 . S
O132 C135 1.235 . S
C133 O136 1.238 . S
C133 O137 1.241 . S
C134 O127 1.247 . S
C134 O128 1.261 . S
C135 O130 1.259 . S
C135 O132 1.235 . S
O136 Co126 2.021 . S
O136 C133 1.238 . S
O137 Co131 2.052 . S
O137 C133 1.241 . S
O138 Co126 2.137 1_556 S
O138 C129 1.247 . S
O139 Co126 2.244 . S
O139 C129 1.272 1_554 S
O139 Co131 2.135 . S
Co140 O141 2.216 . S
Co140 O142 2.091 . S
Co140 O144 2.004 . S
Co140 O150 2.021 . S
Co140 O152 2.137 . S
Co140 O153 2.244 . S
O141 Co140 2.216 . S
O141 C148 1.247 . S
O142 Co140 2.091 . S
O142 C148 1.261 . S
C143 O152 1.247 . S
C143 O153 1.272 . S
O144 Co140 2.004 . S
O144 C149 1.259 . S
Co145 O146 2.061 . S
Co145 O151 2.052 . S
Co145 O153 2.135 1_556 S
O146 Co145 2.061 . S
O146 C149 1.235 1_556 S
C147 O150 1.238 1_556 S
C147 O151 1.241 . S
C148 O141 1.247 . S
C148 O142 1.261 . S
C149 O144 1.259 . S
C149 O146 1.235 1_554 S
O150 Co140 2.021 . S
O150 C147 1.238 1_554 S
O151 Co145 2.052 . S
O151 C147 1.241 . S
O152 Co140 2.137 . S
O152 C143 1.247 . S
O153 Co140 2.244 . S
O153 C143 1.272 . S
O153 Co145 2.135 1_554 S
Co154 O155 2.216 1_554 S
Co154 O156 2.091 1_554 S
Co154 O158 2.004 . S
Co154 O164 2.021 . S
Co154 O166 2.137 1_554 S
Co154 O167 2.244 . S
O155 Co154 2.216 1_556 S
O155 C162 1.247 . S
O156 Co154 2.091 1_556 S
O156 C162 1.261 . S
C157 O166 1.247 1_554 S
C157 O167 1.272 . S
O158 Co154 2.004 . S
O158 C163 1.259 . S
Co159 O160 2.061 . S
Co159 O165 2.052 . S
Co159 O167 2.135 . S
O160 Co159 2.061 . S
O160 C163 1.235 . S
C161 O164 1.238 . S
C161 O165 1.241 . S
C162 O155 1.247 . S
C162 O156 1.261 . S
C163 O158 1.259 . S
C163 O160 1.235 . S
O164 Co154 2.021 . S
O164 C161 1.238 . S
O165 Co159 2.052 . S
O165 C161 1.241 . S
O166 Co154 2.137 1_556 S
O166 C157 1.247 1_556 S
O167 Co154 2.244 . S
O167 C157 1.272 . S
O167 Co159 2.135 . S
Co168 O169 2.216 1_556 S
Co168 O170 2.091 1_556 S
Co168 O172 2.004 . S
Co168 O178 2.021 . S
Co168 O180 2.137 1_556 S
Co168 O181 2.244 . S
O169 Co168 2.216 1_554 S
O169 C176 1.247 . S
O170 Co168 2.091 1_554 S
O170 C176 1.261 . S
C171 O180 1.247 1_556 S
C171 O181 1.272 . S
O172 Co168 2.004 . S
O172 C177 1.259 . S
Co173 O174 2.061 . S
Co173 O179 2.052 . S
Co173 O181 2.135 . S
O174 Co173 2.061 . S
O174 C177 1.235 . S
C175 O178 1.238 . S
C175 O179 1.241 . S
C176 O169 1.247 . S
C176 O170 1.261 . S
C177 O172 1.259 . S
C177 O174 1.235 . S
O178 Co168 2.021 . S
O178 C175 1.238 . S
O179 Co173 2.052 . S
O179 C175 1.241 . S
O180 Co168 2.137 1_554 S
O180 C171 1.247 1_554 S
O181 Co168 2.244 . S
O181 C171 1.272 . S
O181 Co173 2.135 . S
Co182 O183 2.216 . S
Co182 O184 2.091 . S
Co182 O186 2.004 . S
Co182 O192 2.021 . S
Co182 O194 2.137 . S
Co182 O195 2.244 . S
O183 Co182 2.216 . S
O183 C190 1.247 . S
O184 Co182 2.091 . S
O184 C190 1.261 . S
C185 O194 1.247 . S
C185 O195 1.272 . S
O186 Co182 2.004 . S
O186 C191 1.259 1_556 S
Co187 O188 2.061 . S
Co187 O193 2.052 . S
Co187 O195 2.135 1_554 S
O188 Co187 2.061 . S
O188 C191 1.235 . S
C189 O192 1.238 1_554 S
C189 O193 1.241 . S
C190 O183 1.247 . S
C190 O184 1.261 . S
C191 O186 1.259 1_554 S
C191 O188 1.235 . S
O192 Co182 2.021 . S
O192 C189 1.238 1_556 S
O193 Co187 2.052 . S
O193 C189 1.241 . S
O194 Co182 2.137 . S
O194 C185 1.247 . S
O195 Co182 2.244 . S
O195 C185 1.272 . S
O195 Co187 2.135 1_556 S
Co196 O197 2.216 1_556 S
Co196 O198 2.091 1_556 S
Co196 O200 2.004 1_655 S
Co196 O206 2.021 . S
Co196 O208 2.137 1_556 S
Co196 O209 2.244 . S
O197 Co196 2.216 1_554 S
O197 C204 1.247 . S
O198 Co196 2.091 1_554 S
O198 C204 1.261 . S
C199 O208 1.247 1_556 S
C199 O209 1.272 . S
O200 Co196 2.004 1_455 S
O200 C205 1.259 . S
Co201 O202 2.061 1_655 S
Co201 O207 2.052 . S
Co201 O209 2.135 . S
O202 Co201 2.061 1_455 S
O202 C205 1.235 . S
C203 O206 1.238 . S
C203 O207 1.241 . S
C204 O197 1.247 . S
C204 O198 1.261 . S
C205 O200 1.259 . S
C205 O202 1.235 . S
O206 Co196 2.021 . S
O206 C203 1.238 . S
O207 Co201 2.052 . S
O207 C203 1.241 . S
O208 Co196 2.137 1_554 S
O208 C199 1.247 1_554 S
O209 Co196 2.244 . S
O209 C199 1.272 . S
O209 Co201 2.135 . S
Co210 O211 2.216 . S
Co210 O212 2.091 . S
Co210 O214 2.004 . S
Co210 O220 2.021 . S
Co210 O222 2.137 . S
Co210 O223 2.244 . S
O211 Co210 2.216 . S
O211 C218 1.247 . S
O212 Co210 2.091 . S
O212 C218 1.261 . S
C213 O222 1.247 . S
C213 O223 1.272 . S
O214 Co210 2.004 . S
O214 C219 1.259 . S
Co215 O216 2.061 . S
Co215 O221 2.052 . S
Co215 O223 2.135 . S
O216 Co215 2.061 . S
O216 C219 1.235 . S
C217 O220 1.238 . S
C217 O221 1.241 . S
C218 O211 1.247 . S
C218 O212 1.261 . S
C219 O214 1.259 . S
C219 O216 1.235 . S
O220 Co210 2.021 . S
O220 C217 1.238 . S
O221 Co215 2.052 . S
O221 C217 1.241 . S
O222 Co210 2.137 . S
O222 C213 1.247 . S
O223 Co210 2.244 . S
O223 C213 1.272 . S
O223 Co215 2.135 . S
Co224 O225 2.216 . S
Co224 O226 2.091 . S
Co224 O228 2.004 1_655 S
Co224 O234 2.021 . S
Co224 O236 2.137 . S
Co224 O237 2.244 . S
O225 Co224 2.216 . S
O225 C232 1.247 . S
O226 Co224 2.091 . S
O226 C232 1.261 . S
C227 O236 1.247 . S
C227 O237 1.272 . S
O228 Co224 2.004 1_455 S
O228 C233 1.259 . S
Co229 O230 2.061 1_655 S
Co229 O235 2.052 . S
Co229 O237 2.135 . S
O230 Co229 2.061 1_455 S
O230 C233 1.235 . S
C231 O234 1.238 . S
C231 O235 1.241 . S
C232 O225 1.247 . S
C232 O226 1.261 . S
C233 O228 1.259 . S
C233 O230 1.235 . S
O234 Co224 2.021 . S
O234 C231 1.238 . S
O235 Co229 2.052 . S
O235 C231 1.241 . S
O236 Co224 2.137 . S
O236 C227 1.247 . S
O237 Co224 2.244 . S
O237 C227 1.272 . S
O237 Co229 2.135 . S
Co238 O239 2.216 . S
Co238 O240 2.091 . S
Co238 O242 2.004 . S
Co238 O248 2.021 . S
Co238 O250 2.137 . S
Co238 O251 2.244 . S
O239 Co238 2.216 . S
O239 C246 1.247 . S
O240 Co238 2.091 . S
O240 C246 1.261 . S
C241 O250 1.247 . S
C241 O251 1.272 . S
O242 Co238 2.004 . S
O242 C247 1.259 . S
Co243 O244 2.061 . S
Co243 O249 2.052 . S
Co243 O251 2.135 . S
O244 Co243 2.061 . S
O244 C247 1.235 . S
C245 O248 1.238 . S
C245 O249 1.241 . S
C246 O239 1.247 . S
C246 O240 1.261 . S
C247 O242 1.259 . S
C247 O244 1.235 . S
O248 Co238 2.021 . S
O248 C245 1.238 . S
O249 Co243 2.052 . S
O249 C245 1.241 . S
O250 Co238 2.137 . S
O250 C241 1.247 . S
O251 Co238 2.244 . S
O251 C241 1.272 . S
O251 Co243 2.135 . S
C252 C253 1.387 . S
C252 H256 0.950 . S
C252 C261 1.390 1_556 S
C253 C252 1.387 . S
C253 C255 1.387 . S
H254 C261 0.950 . S
C255 C253 1.387 . S
C255 C257 1.390 1_556 S
C255 H259 0.950 . S
H256 C252 0.950 . S
C257 C255 1.390 1_554 S
C257 C258 1.387 . S
C257 H260 0.950 . S
C258 C257 1.387 . S
C258 C261 1.387 . S
H259 C255 0.950 . S
H260 C257 0.950 . S
C261 C252 1.390 1_554 S
C261 H254 0.950 . S
C261 C258 1.387 . S
C262 C263 1.387 . S
C262 H266 0.950 . S
C262 C271 1.390 . S
C263 C262 1.387 . S
C263 C265 1.387 1_556 S
H264 C271 0.950 . S
C265 C263 1.387 1_554 S
C265 C267 1.390 . S
C265 H269 0.950 . S
H266 C262 0.950 . S
C267 C265 1.390 . S
C267 C268 1.387 . S
C267 H270 0.950 . S
C268 C267 1.387 . S
C268 C271 1.387 1_554 S
H269 C265 0.950 . S
H270 C267 0.950 . S
C271 C262 1.390 . S
C271 H264 0.950 . S
C271 C268 1.387 1_556 S
C272 C273 1.387 1_556 S
C272 H276 0.950 . S
C272 C281 1.390 . S
C273 C272 1.387 1_554 S
C273 C275 1.387 . S
H274 C281 0.950 . S
C275 C273 1.387 . S
C275 C277 1.390 . S
C275 H279 0.950 . S
H276 C272 0.950 . S
C277 C275 1.390 . S
C277 C278 1.387 1_554 S
C277 H280 0.950 . S
C278 C277 1.387 1_556 S
C278 C281 1.387 . S
H279 C275 0.950 . S
H280 C277 0.950 . S
C281 C272 1.390 . S
C281 H274 0.950 . S
C281 C278 1.387 . S
C282 C283 1.387 . S
C282 H286 0.950 . S
C282 C291 1.390 . S
C283 C282 1.387 . S
C283 C285 1.387 . S
H284 C291 0.948 . S
C285 C283 1.387 . S
C285 C287 1.390 . S
C285 H289 0.950 . S
H286 C282 0.950 . S
C287 C285 1.390 . S
C287 C288 1.387 . S
C287 H290 0.950 . S
C288 C287 1.387 . S
C288 C291 1.387 . S
H289 C285 0.950 . S
H290 C287 0.950 . S
C291 C282 1.390 . S
C291 H284 0.948 . S
C291 C288 1.387 . S
C292 C293 1.387 . S
C292 H296 0.950 . S
C292 C301 1.390 . S
C293 C292 1.387 . S
C293 C295 1.387 . S
H294 C301 0.950 . S
C295 C293 1.387 . S
C295 C297 1.390 . S
C295 H299 0.950 . S
H296 C292 0.950 . S
C297 C295 1.390 . S
C297 C298 1.387 . S
C297 H300 0.950 . S
C298 C297 1.387 . S
C298 C301 1.387 . S
H299 C295 0.950 . S
H300 C297 0.950 . S
C301 C292 1.390 . S
C301 H294 0.950 . S
C301 C298 1.387 . S
C302 C303 1.387 . S
C302 H306 0.950 . S
C302 C311 1.390 . S
C303 C302 1.387 . S
C303 C305 1.387 . S
H304 C311 0.950 . S
C305 C303 1.387 . S
C305 C307 1.390 . S
C305 H309 0.950 . S
H306 C302 0.950 . S
C307 C305 1.390 . S
C307 C308 1.387 . S
C307 H310 0.950 . S
C308 C307 1.387 . S
C308 C311 1.387 . S
H309 C305 0.950 . S
H310 C307 0.950 . S
C311 C302 1.390 . S
C311 H304 0.950 . S
C311 C308 1.387 . S
C312 C313 1.387 . S
C312 H316 0.950 . S
C312 C321 1.390 . S
C313 C312 1.387 . S
C313 C315 1.387 . S
H314 C321 0.950 . S
C315 C313 1.387 . S
C315 C317 1.390 . S
C315 H319 0.950 . S
H316 C312 0.950 . S
C317 C315 1.390 . S
C317 C318 1.387 . S
C317 H320 0.950 . S
C318 C317 1.387 . S
C318 C321 1.387 . S
H319 C315 0.950 . S
H320 C317 0.950 . S
C321 C312 1.390 . S
C321 H314 0.950 . S
C321 C318 1.387 . S
C322 C323 1.387 . S
C322 H326 0.950 . S
C322 C331 1.390 . S
C323 C322 1.387 . S
C323 C325 1.387 . S
H324 C331 0.950 . S
C325 C323 1.387 . S
C325 C327 1.390 . S
C325 H329 0.950 . S
H326 C322 0.950 . S
C327 C325 1.390 . S
C327 C328 1.387 . S
C327 H330 0.950 . S
C328 C327 1.387 . S
C328 C331 1.387 . S
H329 C325 0.950 . S
H330 C327 0.950 . S
C331 C322 1.390 . S
C331 H324 0.950 . S
C331 C328 1.387 . S
C332 C333 1.387 . S
C332 H336 0.950 . S
C332 C341 1.390 . S
C333 C332 1.387 . S
C333 C335 1.387 . S
H334 C341 0.950 . S
C335 C333 1.387 . S
C335 C337 1.390 . S
C335 H339 0.950 . S
H336 C332 0.950 . S
C337 C335 1.390 . S
C337 C338 1.387 . S
C337 H340 0.950 . S
C338 C337 1.387 . S
C338 C341 1.387 . S
H339 C335 0.950 . S
H340 C337 0.950 . S
C341 C332 1.390 . S
C341 H334 0.950 . S
C341 C338 1.387 . S
C342 C343 1.387 . S
C342 H346 0.950 . S
C342 C351 1.390 . S
C343 C342 1.387 . S
C343 C345 1.387 . S
H344 C351 0.950 . S
C345 C343 1.387 . S
C345 C347 1.390 . S
C345 H349 0.950 . S
H346 C342 0.950 . S
C347 C345 1.390 . S
C347 C348 1.387 . S
C347 H350 0.950 . S
C348 C347 1.387 . S
C348 C351 1.387 . S
H349 C345 0.950 . S
H350 C347 0.950 . S
C351 C342 1.390 . S
C351 H344 0.950 . S
C351 C348 1.387 . S
C352 C353 1.387 . S
C352 H356 0.950 . S
C352 C361 1.390 . S
C353 C352 1.387 . S
C353 C355 1.387 . S
H354 C361 0.950 . S
C355 C353 1.387 . S
C355 C357 1.390 . S
C355 H359 0.950 . S
H356 C352 0.950 . S
C357 C355 1.390 . S
C357 C358 1.387 . S
C357 H360 0.950 . S
C358 C357 1.387 . S
C358 C361 1.387 . S
H359 C355 0.950 . S
H360 C357 0.950 . S
C361 C352 1.390 . S
C361 H354 0.950 . S
C361 C358 1.387 . S
C362 C363 1.387 . S
C362 H366 0.950 . S
C362 C371 1.390 . S
C363 C362 1.387 . S
C363 C365 1.387 . S
H364 C371 0.950 . S
C365 C363 1.387 . S
C365 C367 1.390 . S
C365 H369 0.950 . S
H366 C362 0.950 . S
C367 C365 1.390 . S
C367 C368 1.387 . S
C367 H370 0.950 . S
C368 C367 1.387 . S
C368 C371 1.387 . S
H369 C365 0.950 . S
H370 C367 0.950 . S
C371 C362 1.390 . S
C371 H364 0.950 . S
C371 C368 1.387 . S
C372 C373 1.387 . S
C372 H376 0.950 . S
C372 C381 1.390 . S
C373 C372 1.387 . S
C373 C375 1.387 . S
H374 C381 0.950 . S
C375 C373 1.387 . S
C375 C377 1.390 . S
C375 H379 0.950 . S
H376 C372 0.950 . S
C377 C375 1.390 . S
C377 C378 1.387 . S
C377 H380 0.950 . S
C378 C377 1.387 . S
C378 C381 1.387 . S
H379 C375 0.950 . S
H380 C377 0.950 . S
C381 C372 1.390 . S
C381 H374 0.950 . S
C381 C378 1.387 . S
C382 C383 1.387 . S
C382 H386 0.950 . S
C382 C391 1.390 . S
C383 C382 1.387 . S
C383 C385 1.387 . S
H384 C391 0.950 . S
C385 C383 1.387 . S
C385 C387 1.390 . S
C385 H389 0.950 . S
H386 C382 0.950 . S
C387 C385 1.390 . S
C387 C388 1.387 . S
C387 H390 0.950 . S
C388 C387 1.387 . S
C388 C391 1.387 . S
H389 C385 0.950 . S
H390 C387 0.950 . S
C391 C382 1.390 . S
C391 H384 0.950 . S
C391 C388 1.387 . S
C392 C393 1.387 . S
C392 H396 0.950 . S
C392 C401 1.390 . S
C393 C392 1.387 . S
C393 C395 1.387 . S
H394 C401 0.950 . S
C395 C393 1.387 . S
C395 C397 1.390 . S
C395 H399 0.950 . S
H396 C392 0.950 . S
C397 C395 1.390 . S
C397 C398 1.387 . S
C397 H400 0.950 . S
C398 C397 1.387 . S
C398 C401 1.387 . S
H399 C395 0.950 . S
H400 C397 0.950 . S
C401 C392 1.390 . S
C401 H394 0.950 . S
C401 C398 1.387 . S
C402 C403 1.387 . S
C402 H406 0.950 . S
C402 C411 1.390 . S
C403 C402 1.387 . S
C403 C405 1.387 . S
H404 C411 0.950 . S
C405 C403 1.387 . S
C405 C407 1.390 . S
C405 H409 0.950 . S
H406 C402 0.950 . S
C407 C405 1.390 . S
C407 C408 1.387 . S
C407 H410 0.950 . S
C408 C407 1.387 . S
C408 C411 1.387 . S
H409 C405 0.950 . S
H410 C407 0.950 . S
C411 C402 1.390 . S
C411 H404 0.950 . S
C411 C408 1.387 . S
C412 C413 1.387 . S
C412 H416 0.950 . S
C412 C421 1.390 . S
C413 C412 1.387 . S
C413 C415 1.387 . S
H414 C421 0.950 . S
C415 C413 1.387 . S
C415 C417 1.390 . S
C415 H419 0.950 . S
H416 C412 0.950 . S
C417 C415 1.390 . S
C417 C418 1.387 . S
C417 H420 0.950 . S
C418 C417 1.387 . S
C418 C421 1.387 . S
H419 C415 0.950 . S
H420 C417 0.950 . S
C421 C412 1.390 . S
C421 H414 0.950 . S
C421 C418 1.387 . S
C422 C423 1.387 . S
C422 H426 0.950 . S
C422 C431 1.390 . S
C423 C422 1.387 . S
C423 C425 1.387 . S
H424 C431 0.950 . S
C425 C423 1.387 . S
C425 C427 1.390 . S
C425 H429 0.950 . S
H426 C422 0.950 . S
C427 C425 1.390 . S
C427 C428 1.387 . S
C427 H430 0.950 . S
C428 C427 1.387 . S
C428 C431 1.387 . S
H429 C425 0.950 . S
H430 C427 0.950 . S
C431 C422 1.390 . S
C431 H424 0.950 . S
C431 C428 1.387 . S
C432 C433 1.387 . S
C432 H436 0.950 . S
C432 C441 1.390 . S
C433 C432 1.387 . S
C433 C435 1.387 . S
H434 C441 0.950 . S
C435 C433 1.387 . S
C435 C437 1.390 . S
C435 H439 0.950 . S
H436 C432 0.950 . S
C437 C435 1.390 . S
C437 C438 1.387 . S
C437 H440 0.950 . S
C438 C437 1.387 . S
C438 C441 1.387 . S
H439 C435 0.950 . S
H440 C437 0.950 . S
C441 C432 1.390 . S
C441 H434 0.950 . S
C441 C438 1.387 . S
C442 C443 1.387 . S
C442 H446 0.950 . S
C442 C451 1.390 . S
C443 C442 1.387 . S
C443 C445 1.387 . S
H444 C451 0.950 . S
C445 C443 1.387 . S
C445 C447 1.390 . S
C445 H449 0.950 . S
H446 C442 0.950 . S
C447 C445 1.390 . S
C447 C448 1.387 . S
C447 H450 0.950 . S
C448 C447 1.387 . S
C448 C451 1.387 . S
H449 C445 0.950 . S
H450 C447 0.950 . S
C451 C442 1.390 . S
C451 H444 0.950 . S
C451 C448 1.387 . S
C452 C453 1.387 . S
C452 H456 0.950 1_565 S
C452 C461 1.390 1_565 S
C453 C452 1.387 . S
C453 C455 1.387 . S
H454 C461 0.950 . S
C455 C453 1.387 . S
C455 C457 1.390 . S
C455 H459 0.950 . S
H456 C452 0.950 1_545 S
C457 C455 1.390 . S
C457 C458 1.387 . S
C457 H460 0.950 . S
C458 C457 1.387 . S
C458 C461 1.387 1_565 S
H459 C455 0.950 . S
H460 C457 0.950 . S
C461 C452 1.390 1_545 S
C461 H454 0.950 . S
C461 C458 1.387 1_545 S
C462 C463 1.387 . S
C462 H466 0.950 . S
C462 C471 1.390 . S
C463 C462 1.387 . S
C463 C465 1.387 . S
H464 C471 0.950 1_556 S
C465 C463 1.387 . S
C465 C467 1.390 . S
C465 H469 0.950 . S
H466 C462 0.950 . S
C467 C465 1.390 . S
C467 C468 1.387 . S
C467 H470 0.950 . S
C468 C467 1.387 . S
C468 C471 1.387 . S
H469 C465 0.950 . S
H470 C467 0.950 . S
C471 C462 1.390 . S
C471 H464 0.950 1_554 S
C471 C468 1.387 . S
C472 C473 1.387 1_455 S
C472 H476 0.950 . S
C472 C481 1.390 . S
C473 C472 1.387 1_655 S
C473 C475 1.388 1_554 S
H474 C481 0.950 . S
C475 C473 1.388 1_556 S
C475 C477 1.391 1_556 S
C475 H479 0.949 . S
H476 C472 0.950 . S
C477 C475 1.391 1_554 S
C477 C478 1.387 1_655 S
C477 H480 0.950 . S
C478 C477 1.387 1_455 S
C478 C481 1.387 . S
H479 C475 0.949 . S
H480 C477 0.950 . S
C481 C472 1.390 . S
C481 H474 0.950 . S
C481 C478 1.387 . S
C482 C483 1.387 . S
C482 H486 0.950 . S
C482 C491 1.390 . S
C483 C482 1.387 . S
C483 C485 1.387 . S
H484 C491 0.950 . S
C485 C483 1.387 . S
C485 C487 1.390 . S
C485 H489 0.950 . S
H486 C482 0.950 . S
C487 C485 1.390 . S
C487 C488 1.387 . S
C487 H490 0.950 . S
C488 C487 1.387 . S
C488 C491 1.387 . S
H489 C485 0.950 . S
H490 C487 0.950 . S
C491 C482 1.390 . S
C491 H484 0.950 . S
C491 C488 1.387 . S
C492 C493 1.387 1_455 S
C492 H496 0.950 . S
C492 C501 1.390 . S
C493 C492 1.387 1_655 S
C493 C495 1.387 . S
H494 C501 0.950 . S
C495 C493 1.387 . S
C495 C497 1.390 . S
C495 H499 0.950 . S
H496 C492 0.950 . S
C497 C495 1.390 . S
C497 C498 1.387 1_655 S
C497 H500 0.950 . S
C498 C497 1.387 1_455 S
C498 C501 1.387 . S
H499 C495 0.950 . S
H500 C497 0.950 . S
C501 C492 1.390 . S
C501 H494 0.950 . S
C501 C498 1.387 . S
C502 C503 1.387 . S
C502 H506 0.950 . S
C502 C511 1.390 . S
C503 C502 1.387 . S
C503 C505 1.387 . S
H504 C511 0.950 . S
C505 C503 1.387 . S
C505 C507 1.390 . S
C505 H509 0.950 . S
H506 C502 0.950 . S
C507 C505 1.390 . S
C507 C508 1.387 . S
C507 H510 0.950 . S
C508 C507 1.387 . S
C508 C511 1.387 . S
H509 C505 0.950 . S
H510 C507 0.950 . S
C511 C502 1.390 . S
C511 H504 0.950 . S
C511 C508 1.387 . S
C512 C513 1.387 . S
C512 H516 0.950 . S
C512 C521 1.390 . S
C513 C512 1.387 . S
C513 C515 1.387 . S
H514 C521 0.950 . S
C515 C513 1.387 . S
C515 C517 1.390 . S
C515 H519 0.950 . S
H516 C512 0.950 . S
C517 C515 1.390 . S
C517 C518 1.387 . S
C517 H520 0.950 . S
C518 C517 1.387 . S
C518 C521 1.387 . S
H519 C515 0.950 . S
H520 C517 0.950 . S
C521 C512 1.390 . S
C521 H514 0.950 . S
C521 C518 1.387 . S
C522 C523 1.387 . S
C522 H526 0.950 . S
C522 C531 1.390 . S
C523 C522 1.387 . S
C523 C525 1.387 1_565 S
H524 C531 0.950 . S
C525 C523 1.387 1_545 S
C525 C527 1.390 . S
C525 H529 0.950 1_556 S
H526 C522 0.950 . S
C527 C525 1.390 . S
C527 C528 1.363 1_545 S
C527 H530 0.950 . S
C528 C527 1.363 1_565 S
C528 C531 1.413 . S
H529 C525 0.950 1_554 S
H530 C527 0.950 . S
C531 C522 1.390 . S
C531 H524 0.950 . S
C531 C528 1.413 . S
C532 C533 1.387 . S
C532 H536 0.950 . S
C532 C541 1.390 . S
C533 C532 1.387 . S
C533 C535 1.387 . S
H534 C541 0.950 . S
C535 C533 1.387 . S
C535 C537 1.390 . S
C535 H539 0.950 . S
H536 C532 0.950 . S
C537 C535 1.390 . S
C537 C538 1.387 . S
C537 H540 0.950 1_556 S
C538 C537 1.387 . S
C538 C541 1.387 . S
H539 C535 0.950 . S
H540 C537 0.950 1_554 S
C541 C532 1.390 . S
C541 H534 0.950 . S
C541 C538 1.387 . S
C542 C543 1.387 . S
C542 H546 0.950 . S
C542 C551 1.390 . S
C543 C542 1.387 . S
C543 C545 1.387 . S
H544 C551 0.950 . S
C545 C543 1.387 . S
C545 C547 1.390 . S
C545 H549 0.950 . S
H546 C542 0.950 . S
C547 C545 1.390 . S
C547 C548 1.387 . S
C547 H550 0.950 . S
C548 C547 1.387 . S
C548 C551 1.387 . S
H549 C545 0.950 . S
H550 C547 0.950 . S
C551 C542 1.390 . S
C551 H544 0.950 . S
C551 C548 1.387 . S
C552 C553 1.387 . S
C552 H556 0.950 . S
C552 C561 1.390 . S
C553 C552 1.387 . S
C553 C555 1.387 . S
H554 C561 0.950 . S
C555 C553 1.387 . S
C555 C557 1.390 . S
C555 H559 0.950 . S
H556 C552 0.950 . S
C557 C555 1.390 . S
C557 C558 1.387 . S
C557 H560 0.950 . S
C558 C557 1.387 . S
C558 C561 1.387 . S
H559 C555 0.950 . S
H560 C557 0.950 . S
C561 C552 1.390 . S
C561 H554 0.950 . S
C561 C558 1.387 . S
C562 C563 1.387 . S
C562 H566 0.950 . S
C562 C571 1.390 . S
C563 C562 1.387 . S
C563 C565 1.387 . S
H564 C571 0.950 . S
C565 C563 1.387 . S
C565 C567 1.390 . S
C565 H569 0.950 . S
H566 C562 0.950 . S
C567 C565 1.390 . S
C567 C568 1.387 . S
C567 H570 0.950 . S
C568 C567 1.387 . S
C568 C571 1.387 . S
H569 C565 0.950 . S
H570 C567 0.950 . S
C571 C562 1.390 . S
C571 H564 0.950 . S
C571 C568 1.387 . S
C572 C573 1.387 . S
C572 H576 0.950 . S
C572 C581 1.390 . S
C573 C572 1.387 . S
C573 C575 1.387 . S
H574 C581 0.950 . S
C575 C573 1.387 . S
C575 C577 1.390 . S
C575 H579 0.950 . S
H576 C572 0.950 . S
C577 C575 1.390 . S
C577 C578 1.387 . S
C577 H580 0.950 . S
C578 C577 1.387 . S
C578 C581 1.387 . S
H579 C575 0.950 . S
H580 C577 0.950 . S
C581 C572 1.390 . S
C581 H574 0.950 . S
C581 C578 1.387 . S
C582 C583 1.387 . S
C582 H586 0.950 . S
C582 C591 1.390 . S
C583 C582 1.387 . S
C583 C585 1.387 . S
H584 C591 0.950 . S
C585 C583 1.387 . S
C585 C587 1.390 . S
C585 H589 0.950 . S
H586 C582 0.950 . S
C587 C585 1.390 . S
C587 C588 1.387 . S
C587 H590 0.950 . S
C588 C587 1.387 . S
C588 C591 1.387 . S
H589 C585 0.950 . S
H590 C587 0.950 . S
C591 C582 1.390 . S
C591 H584 0.950 . S
C591 C588 1.387 . S
C592 C593 1.387 . S
C592 H596 0.950 . S
C592 C601 1.390 . S
C593 C592 1.387 . S
C593 C595 1.387 . S
H594 C601 0.950 . S
C595 C593 1.387 . S
C595 C597 1.390 . S
C595 H599 0.950 . S
H596 C592 0.950 . S
C597 C595 1.390 . S
C597 C598 1.387 . S
C597 H600 0.950 . S
C598 C597 1.387 . S
C598 C601 1.387 . S
H599 C595 0.950 . S
H600 C597 0.950 . S
C601 C592 1.390 . S
C601 H594 0.950 . S
C601 C598 1.387 . S
C602 C603 1.387 . S
C602 H606 0.950 . S
C602 C611 1.390 . S
C603 C602 1.387 . S
C603 C605 1.387 . S
H604 C611 0.950 . S
C605 C603 1.387 . S
C605 C607 1.390 . S
C605 H609 0.950 . S
H606 C602 0.950 . S
C607 C605 1.390 . S
C607 C608 1.387 . S
C607 H610 0.950 . S
C608 C607 1.387 . S
C608 C611 1.387 . S
H609 C605 0.950 . S
H610 C607 0.950 . S
C611 C602 1.390 . S
C611 H604 0.950 . S
C611 C608 1.387 . S
C253 C49 1.455 . S
C258 C7 1.453 . S
C263 C64 1.454 . S
C268 C22 1.453 . S
C273 C35 1.472 . S
C278 C77 1.473 . S
C283 C36 1.413 . S
C288 C78 1.412 . S
C293 C8 1.393 . S
C298 C50 1.392 . S
C303 C63 1.404 . S
C308 C21 1.406 . S
C313 C133 1.360 . S
C318 C92 1.368 . S
C323 C106 1.382 . S
C328 C148 1.383 . S
C333 C120 1.397 . S
C338 C161 1.392 . S
C343 C162 1.503 . S
C348 C119 1.497 . S
C353 C134 1.476 . S
C358 C91 1.469 . S
C363 C147 1.488 . S
C368 C105 1.489 . S
C373 C175 1.455 . S
C378 C217 1.457 . S
C383 C190 1.459 . S
C388 C232 1.461 . S
C393 C203 1.483 . S
C398 C245 1.484 . S
C403 C246 1.415 . S
C408 C204 1.417 . S
C413 C218 1.398 . S
C418 C176 1.398 . S
C423 C231 1.412 . S
C428 C189 1.413 . S
C433 C3 1.336 . S
C438 C101 1.339 . S
C443 C23 1.339 . S
C448 C115 1.358 . S
C453 C87 1.344 . S
C458 C31 1.341 1_565 S
C463 C37 1.329 . S
C468 C191 1.326 . S
C473 C199 1.328 1_554 S
C478 C9 1.318 . S
C483 C171 1.313 1_554 S
C488 C17 1.316 . S
C493 C227 1.309 . S
C498 C45 1.310 . S
C503 C65 1.329 . S
C508 C247 1.329 . S
C513 C219 1.317 . S
C518 C73 1.327 . S
C523 C149 1.302 1_556 S
C528 C79 1.293 1_565 S
C533 C51 1.286 . S
C538 C157 1.305 1_556 S
C543 C59 1.287 . S
C548 C129 1.289 . S
C553 C93 1.283 . S
C558 C185 1.300 . S
C563 C107 1.301 . S
C568 C205 1.304 . S
C573 C121 1.299 . S
C578 C177 1.299 . S
C583 C233 1.350 . S
C588 C163 1.349 . S
C593 C241 1.353 . S
C598 C135 1.335 . S
C603 C143 1.342 1_545 S
C608 C213 1.341 . S
