# Generated by pormake.
# Topology umk, (4)-cn, num edge types: 1
# Building blocks:
#     Node 0, Type 0, BuildingBlock: UXUYUI_clean_sbu_0, # of connection points: 4
#     Node 1, Type 0, BuildingBlock: UXUYUI_clean_sbu_0, # of connection points: 4
#     Node 2, Type 0, BuildingBlock: UXUYUI_clean_sbu_0, # of connection points: 4
#     Node 3, Type 0, BuildingBlock: UXUYUI_clean_sbu_0, # of connection points: 4
#     Node 4, Type 0, BuildingBlock: UXUYUI_clean_sbu_0, # of connection points: 4
#     Node 5, Type 0, BuildingBlock: UXUYUI_clean_sbu_0, # of connection points: 4
#     Node 6, Type 0, BuildingBlock: UXUYUI_clean_sbu_0, # of connection points: 4
#     Node 7, Type 0, BuildingBlock: UXUYUI_clean_sbu_0, # of connection points: 4
#     Node 8, Type 0, BuildingBlock: UXUYUI_clean_sbu_0, # of connection points: 4
#     Node 9, Type 0, BuildingBlock: UXUYUI_clean_sbu_0, # of connection points: 4
#     Node 10, Type 0, BuildingBlock: UXUYUI_clean_sbu_0, # of connection points: 4
#     Node 11, Type 0, BuildingBlock: UXUYUI_clean_sbu_0, # of connection points: 4
#     Node 12, Type 0, BuildingBlock: UXUYUI_clean_sbu_0, # of connection points: 4
#     Node 13, Type 0, BuildingBlock: UXUYUI_clean_sbu_0, # of connection points: 4
#     Node 14, Type 0, BuildingBlock: UXUYUI_clean_sbu_0, # of connection points: 4
#     Node 15, Type 0, BuildingBlock: UXUYUI_clean_sbu_0, # of connection points: 4
#     Node 16, Type 0, BuildingBlock: UXUYUI_clean_sbu_0, # of connection points: 4
#     Node 17, Type 0, BuildingBlock: UXUYUI_clean_sbu_0, # of connection points: 4
#     Node 18, Type 0, BuildingBlock: UXUYUI_clean_sbu_0, # of connection points: 4
#     Node 19, Type 0, BuildingBlock: UXUYUI_clean_sbu_0, # of connection points: 4
#     Node 20, Type 0, BuildingBlock: UXUYUI_clean_sbu_0, # of connection points: 4
#     Node 21, Type 0, BuildingBlock: UXUYUI_clean_sbu_0, # of connection points: 4
#     Node 22, Type 0, BuildingBlock: UXUYUI_clean_sbu_0, # of connection points: 4
#     Node 23, Type 0, BuildingBlock: UXUYUI_clean_sbu_0, # of connection points: 4
#     Edge 24, Type (0, 0), BuildingBlock: AJUNOK_clean_linker_0, # of connection points: 2
#     Edge 25, Type (0, 0), BuildingBlock: AJUNOK_clean_linker_0, # of connection points: 2
#     Edge 26, Type (0, 0), BuildingBlock: AJUNOK_clean_linker_0, # of connection points: 2
#     Edge 27, Type (0, 0), BuildingBlock: AJUNOK_clean_linker_0, # of connection points: 2
#     Edge 28, Type (0, 0), BuildingBlock: AJUNOK_clean_linker_0, # of connection points: 2
#     Edge 29, Type (0, 0), BuildingBlock: AJUNOK_clean_linker_0, # of connection points: 2
#     Edge 30, Type (0, 0), BuildingBlock: AJUNOK_clean_linker_0, # of connection points: 2
#     Edge 31, Type (0, 0), BuildingBlock: AJUNOK_clean_linker_0, # of connection points: 2
#     Edge 32, Type (0, 0), BuildingBlock: AJUNOK_clean_linker_0, # of connection points: 2
#     Edge 33, Type (0, 0), BuildingBlock: AJUNOK_clean_linker_0, # of connection points: 2
#     Edge 34, Type (0, 0), BuildingBlock: AJUNOK_clean_linker_0, # of connection points: 2
#     Edge 35, Type (0, 0), BuildingBlock: AJUNOK_clean_linker_0, # of connection points: 2
#     Edge 36, Type (0, 0), BuildingBlock: AJUNOK_clean_linker_0, # of connection points: 2
#     Edge 37, Type (0, 0), BuildingBlock: AJUNOK_clean_linker_0, # of connection points: 2
#     Edge 38, Type (0, 0), BuildingBlock: AJUNOK_clean_linker_0, # of connection points: 2
#     Edge 39, Type (0, 0), BuildingBlock: AJUNOK_clean_linker_0, # of connection points: 2
#     Edge 40, Type (0, 0), BuildingBlock: AJUNOK_clean_linker_0, # of connection points: 2
#     Edge 41, Type (0, 0), BuildingBlock: AJUNOK_clean_linker_0, # of connection points: 2
#     Edge 42, Type (0, 0), BuildingBlock: AJUNOK_clean_linker_0, # of connection points: 2
#     Edge 43, Type (0, 0), BuildingBlock: AJUNOK_clean_linker_0, # of connection points: 2
#     Edge 44, Type (0, 0), BuildingBlock: AJUNOK_clean_linker_0, # of connection points: 2
#     Edge 45, Type (0, 0), BuildingBlock: AJUNOK_clean_linker_0, # of connection points: 2
#     Edge 46, Type (0, 0), BuildingBlock: AJUNOK_clean_linker_0, # of connection points: 2
#     Edge 47, Type (0, 0), BuildingBlock: AJUNOK_clean_linker_0, # of connection points: 2
#     Edge 48, Type (0, 0), BuildingBlock: AJUNOK_clean_linker_0, # of connection points: 2
#     Edge 49, Type (0, 0), BuildingBlock: AJUNOK_clean_linker_0, # of connection points: 2
#     Edge 50, Type (0, 0), BuildingBlock: AJUNOK_clean_linker_0, # of connection points: 2
#     Edge 51, Type (0, 0), BuildingBlock: AJUNOK_clean_linker_0, # of connection points: 2
#     Edge 52, Type (0, 0), BuildingBlock: AJUNOK_clean_linker_0, # of connection points: 2
#     Edge 53, Type (0, 0), BuildingBlock: AJUNOK_clean_linker_0, # of connection points: 2
#     Edge 54, Type (0, 0), BuildingBlock: AJUNOK_clean_linker_0, # of connection points: 2
#     Edge 55, Type (0, 0), BuildingBlock: AJUNOK_clean_linker_0, # of connection points: 2
#     Edge 56, Type (0, 0), BuildingBlock: AJUNOK_clean_linker_0, # of connection points: 2
#     Edge 57, Type (0, 0), BuildingBlock: AJUNOK_clean_linker_0, # of connection points: 2
#     Edge 58, Type (0, 0), BuildingBlock: AJUNOK_clean_linker_0, # of connection points: 2
#     Edge 59, Type (0, 0), BuildingBlock: AJUNOK_clean_linker_0, # of connection points: 2
#     Edge 60, Type (0, 0), BuildingBlock: AJUNOK_clean_linker_0, # of connection points: 2
#     Edge 61, Type (0, 0), BuildingBlock: AJUNOK_clean_linker_0, # of connection points: 2
#     Edge 62, Type (0, 0), BuildingBlock: AJUNOK_clean_linker_0, # of connection points: 2
#     Edge 63, Type (0, 0), BuildingBlock: AJUNOK_clean_linker_0, # of connection points: 2
#     Edge 64, Type (0, 0), BuildingBlock: AJUNOK_clean_linker_0, # of connection points: 2
#     Edge 65, Type (0, 0), BuildingBlock: AJUNOK_clean_linker_0, # of connection points: 2
#     Edge 66, Type (0, 0), BuildingBlock: AJUNOK_clean_linker_0, # of connection points: 2
#     Edge 67, Type (0, 0), BuildingBlock: AJUNOK_clean_linker_0, # of connection points: 2
#     Edge 68, Type (0, 0), BuildingBlock: AJUNOK_clean_linker_0, # of connection points: 2
#     Edge 69, Type (0, 0), BuildingBlock: AJUNOK_clean_linker_0, # of connection points: 2
#     Edge 70, Type (0, 0), BuildingBlock: AJUNOK_clean_linker_0, # of connection points: 2
#     Edge 71, Type (0, 0), BuildingBlock: AJUNOK_clean_linker_0, # of connection points: 2
# Relax obj value: 0.190
# Max RMSD: 0.162
# Mean RMSD: 0.162
data_MOF--net-umk--node1-UXUYUI_clean_sbu_0--edge1-AJUNOK_clean_linker_0
_symmetry_space_group_name_H-M    P1
_symmetry_Int_Tables_number       1
_symmetry_cell_setting            triclinic
loop_
_symmetry_equiv_pos_as_xyz
'x, y, z'
_cell_length_a     79.835492
_cell_length_b     79.834512
_cell_length_c     51.007388
_cell_angle_alpha  90.0018
_cell_angle_beta   90.003387
_cell_angle_gamma 119.99505
loop_
_atom_site_label
_atom_site_type_symbol
_atom_site_fract_x
_atom_site_fract_y
_atom_site_fract_z
_atom_type_partial_charge
Li0 Li 0.33335 0.46022 0.09678 0.0
Li1 Li 0.33793 0.44158 0.06279 0.0
Li2 Li 0.34953 0.47626 0.0577 0.0
Li3 Li 0.31518 0.45426 0.05538 0.0
C4 C 0.36712 0.46458 0.10595 0.0
N5 N 0.38437 0.46678 0.15374 0.0
C6 C 0.36402 0.44772 0.11854 0.0
C7 C 0.37909 0.48257 0.11755 0.0
C8 C 0.37286 0.44914 0.14273 0.0
C9 C 0.38766 0.48337 0.14175 0.0
C10 C 0.29858 0.41701 0.07512 0.0
C11 C 0.28165 0.39206 0.0428 0.0
N12 N 0.26798 0.38136 0.061 0.0
C13 C 0.28434 0.4058 0.09346 0.0
C14 C 0.29721 0.41013 0.04954 0.0
C15 C 0.269 0.3878 0.08596 0.0
C16 C 0.33905 0.47865 0.14667 0.0
N17 N 0.33167 0.46143 0.13395 0.0
C18 C 0.3223 0.44428 0.17461 0.0
C19 C 0.32338 0.44441 0.1473 0.0
C20 C 0.32993 0.46186 0.18824 0.0
C21 C 0.33846 0.47921 0.174 0.0
H22 H 0.34561 0.49197 0.13567 0.0
H23 H 0.31788 0.43094 0.1367 0.0
C24 C 0.36177 0.42837 0.0442 0.0
N25 N 0.34465 0.42214 0.05673 0.0
C26 C 0.36932 0.41608 0.04105 0.0
C27 C 0.34147 0.39106 0.06379 0.0
C28 C 0.33448 0.4039 0.06662 0.0
C29 C 0.35917 0.39715 0.05098 0.0
H30 H 0.36996 0.4432 0.0376 0.0
H31 H 0.32132 0.39947 0.07749 0.0
C32 C 0.33384 0.49738 0.07283 0.0
N33 N 0.34456 0.5358 0.06583 0.0
C34 C 0.32279 0.50239 0.05686 0.0
C35 C 0.35031 0.51192 0.08531 0.0
C36 C 0.32845 0.52189 0.05357 0.0
C37 C 0.35551 0.53126 0.08148 0.0
C38 C 0.34045 0.46386 0.00763 0.0
C39 C 0.33197 0.47423 0.99785 0.0
C40 C 0.35458 0.4627 0.99287 0.0
C41 C 0.33781 0.48333 0.97348 0.0
C42 C 0.36005 0.47201 0.96859 0.0
N43 N 0.35163 0.48205 0.95949 0.0
C44 C 0.38887 0.50228 0.04777 0.0
C45 C 0.36809 0.51178 0.0279 0.0
C46 C 0.4051 0.51866 0.03786 0.0
N47 N 0.37081 0.49925 0.04295 0.0
C48 C 0.3839 0.52838 0.01772 0.0
C49 C 0.4027 0.53204 0.02287 0.0
H50 H 0.39069 0.49196 0.05935 0.0
H51 H 0.35367 0.509 0.02383 0.0
C52 C 0.27961 0.45314 0.05536 0.0
N53 N 0.29101 0.44856 0.04081 0.0
C54 C 0.26228 0.45057 0.04508 0.0
C55 C 0.26836 0.43785 0.00545 0.0
C56 C 0.28559 0.44066 0.01651 0.0
C57 C 0.25659 0.44304 0.0197 0.0
H58 H 0.28431 0.45934 0.07467 0.0
H59 H 0.29485 0.43695 0.00549 0.0
O60 O 0.35807 0.46345 0.08273 0.0
O61 O 0.31349 0.43481 0.08212 0.0
O62 O 0.32847 0.47835 0.07636 0.0
O63 O 0.33496 0.4549 0.03149 0.0
H64 H 0.35467 0.43368 0.10993 0.0
H65 H 0.38157 0.49575 0.1081 0.0
H66 H 0.37049 0.4362 0.15279 0.0
H67 H 0.39686 0.49718 0.15104 0.0
H68 H 0.28043 0.38655 0.0231 0.0
H69 H 0.28509 0.41099 0.11328 0.0
H70 H 0.30806 0.41859 0.03503 0.0
H71 H 0.25788 0.37896 0.09996 0.0
H72 H 0.31589 0.43063 0.18501 0.0
H73 H 0.34449 0.49303 0.18391 0.0
H74 H 0.38337 0.42163 0.03195 0.0
H75 H 0.33333 0.37666 0.07202 0.0
H76 H 0.31007 0.49138 0.04692 0.0
H77 H 0.35928 0.50837 0.09727 0.0
H78 H 0.32007 0.52597 0.0412 0.0
H79 H 0.36832 0.54265 0.09082 0.0
H80 H 0.32126 0.47559 0.00917 0.0
H81 H 0.36126 0.45468 3e-05 0.0
H82 H 0.33144 0.4915 0.96578 0.0
H83 H 0.37099 0.47125 0.95699 0.0
H84 H 0.4194 0.52096 0.04213 0.0
H85 H 0.38145 0.53816 0.00576 0.0
H86 H 0.25381 0.45512 0.0565 0.0
H87 H 0.26442 0.43195 0.98584 0.0
Li88 Li 0.89338 0.33725 0.56506 0.0
Li89 Li 0.86958 0.33257 0.60069 0.0
Li90 Li 0.85874 0.31348 0.55911 0.0
Li91 Li 0.86991 0.34719 0.55921 0.0
C92 C 0.88274 0.30284 0.59885 0.0
N93 N 0.89532 0.28082 0.62496 0.0
C94 C 0.8927 0.3093 0.62258 0.0
C95 C 0.87892 0.28503 0.5886 0.0
C96 C 0.89902 0.29801 0.63542 0.0
C97 C 0.88547 0.27415 0.60204 0.0
C98 C 0.89791 0.37603 0.58423 0.0
C99 C 0.89665 0.40454 0.5966 0.0
N100 N 0.91086 0.41506 0.57894 0.0
C101 C 0.91257 0.38713 0.56632 0.0
C102 C 0.88994 0.38478 0.59961 0.0
C103 C 0.9189 0.40685 0.56391 0.0
C104 C 0.9285 0.35029 0.53607 0.0
N105 N 0.91985 0.34423 0.55988 0.0
C106 C 0.95012 0.3522 0.5796 0.0
C107 C 0.93026 0.34513 0.58146 0.0
C108 C 0.95944 0.35855 0.55529 0.0
C109 C 0.94835 0.35741 0.53329 0.0
H110 H 0.9202 0.35029 0.51936 0.0
H111 H 0.9233 0.34116 0.60037 0.0
C112 C 0.85121 0.31709 0.64955 0.0
N113 N 0.86645 0.33225 0.63755 0.0
C114 C 0.84941 0.3168 0.67686 0.0
C115 C 0.87897 0.34773 0.67873 0.0
C116 C 0.88025 0.34737 0.6515 0.0
C117 C 0.86337 0.33234 0.69173 0.0
H118 H 0.84055 0.30518 0.63792 0.0
H119 H 0.89241 0.35904 0.64146 0.0
C120 C 0.8816 0.32443 0.514 0.0
N121 N 0.89056 0.30643 0.47464 0.0
C122 C 0.88123 0.32932 0.48779 0.0
C123 C 0.88655 0.3104 0.52019 0.0
C124 C 0.8858 0.32006 0.46817 0.0
C125 C 0.89104 0.30147 0.50002 0.0
C126 C 0.83003 0.3227 0.56626 0.0
C127 C 0.82918 0.32378 0.53898 0.0
C128 C 0.81334 0.31691 0.58118 0.0
C129 C 0.8116 0.31902 0.52706 0.0
C130 C 0.79603 0.31228 0.56852 0.0
N131 N 0.79552 0.31342 0.54195 0.0
C132 C 0.82986 0.27421 0.56307 0.0
C133 C 0.83584 0.28643 0.51964 0.0
C134 C 0.8149 0.25634 0.55433 0.0
N135 N 0.83994 0.28879 0.54572 0.0
C136 C 0.82123 0.26876 0.51004 0.0
C137 C 0.81051 0.2535 0.52749 0.0
H138 H 0.8332 0.27661 0.58376 0.0
H139 H 0.8435 0.29838 0.50631 0.0
C140 C 0.87641 0.3756 0.5217 0.0
N141 N 0.86653 0.36706 0.54402 0.0
C142 C 0.87544 0.39112 0.51081 0.0
C143 C 0.85382 0.3885 0.54582 0.0
C144 C 0.85519 0.373 0.55602 0.0
C145 C 0.86424 0.3979 0.52312 0.0
H146 H 0.88541 0.37062 0.51273 0.0
H147 H 0.84753 0.36593 0.5738 0.0
O148 O 0.87613 0.31352 0.58617 0.0
O149 O 0.89106 0.35659 0.5862 0.0
O150 O 0.87696 0.3333 0.53332 0.0
O151 O 0.84701 0.32708 0.57845 0.0
H152 H 0.89563 0.32296 0.63094 0.0
H153 H 0.8709 0.2796 0.57051 0.0
H154 H 0.90684 0.3029 0.65372 0.0
H155 H 0.88267 0.26037 0.59428 0.0
H156 H 0.8905 0.41148 0.60818 0.0
H157 H 0.91881 0.38054 0.55417 0.0
H158 H 0.87844 0.37634 0.61338 0.0
H159 H 0.93014 0.4156 0.55 0.0
H160 H 0.95823 0.35348 0.59725 0.0
H161 H 0.95503 0.36239 0.51426 0.0
H162 H 0.83724 0.30464 0.68625 0.0
H163 H 0.89026 0.35974 0.68957 0.0
H164 H 0.87737 0.34012 0.48267 0.0
H165 H 0.88709 0.30657 0.54031 0.0
H166 H 0.88553 0.32368 0.44779 0.0
H167 H 0.89492 0.29061 0.50455 0.0
H168 H 0.84192 0.3282 0.52708 0.0
H169 H 0.81377 0.31597 0.60232 0.0
H170 H 0.81073 0.31977 0.50597 0.0
H171 H 0.783 0.30777 0.57983 0.0
H172 H 0.80679 0.2449 0.56835 0.0
H173 H 0.81792 0.26723 0.48928 0.0
H174 H 0.88374 0.39807 0.49334 0.0
H175 H 0.84481 0.39315 0.55562 0.0
Li176 Li 0.55696 0.89416 0.06724 0.0
Li177 Li 0.53801 0.87102 0.10142 0.0
Li178 Li 0.54553 0.8603 0.05829 0.0
Li179 Li 0.52167 0.87114 0.0601 0.0
C180 C 0.58283 0.88775 0.0907 0.0
N181 N 0.62213 0.91139 0.09825 0.0
C182 C 0.58985 0.89718 0.11467 0.0
C183 C 0.5958 0.89009 0.07073 0.0
C184 C 0.60977 0.90914 0.11806 0.0
C185 C 0.61561 0.90217 0.07488 0.0
C186 C 0.52369 0.89691 0.10247 0.0
C187 C 0.49351 0.88863 0.12365 0.0
N188 N 0.50182 0.90667 0.13421 0.0
C189 C 0.53188 0.91544 0.11332 0.0
C190 C 0.50432 0.88345 0.1075 0.0
C191 C 0.52061 0.92006 0.12941 0.0
C192 C 0.58377 0.92832 0.03924 0.0
N193 N 0.57692 0.92029 0.06316 0.0
C194 C 0.59638 0.95072 0.08427 0.0
C195 C 0.58298 0.93101 0.08545 0.0
C196 C 0.60357 0.95953 0.05986 0.0
C197 C 0.5972 0.94807 0.03712 0.0
H198 H 0.57843 0.91954 0.02178 0.0
H199 H 0.57697 0.9243 0.10414 0.0
C200 C 0.52848 0.85005 0.1497 0.0
N201 N 0.53586 0.86779 0.13841 0.0
C202 C 0.52763 0.84824 0.17702 0.0
C203 C 0.54224 0.88297 0.18043 0.0
C204 C 0.54279 0.8841 0.15315 0.0
C205 C 0.53458 0.86488 0.1927 0.0
H206 H 0.52349 0.83735 0.1375 0.0
H207 H 0.54908 0.89805 0.14369 0.0
C208 C 0.54627 0.87608 0.00988 0.0
N209 N 0.55152 0.86865 0.95853 0.0
C210 C 0.53061 0.86797 0.99254 0.0
C211 C 0.56463 0.88064 0.00102 0.0
C212 C 0.53355 0.86428 0.96667 0.0
C213 C 0.56697 0.8767 0.97502 0.0
C214 C 0.50328 0.8323 0.08112 0.0
C215 C 0.49763 0.8171 0.06331 0.0
C216 C 0.49104 0.83032 0.10196 0.0
C217 C 0.47965 0.80035 0.06629 0.0
C218 C 0.47318 0.81335 0.10429 0.0
N219 N 0.46789 0.79885 0.08653 0.0
C220 C 0.5636 0.8376 0.05465 0.0
C221 C 0.54181 0.83275 0.02006 0.0
C222 C 0.56719 0.82349 0.04425 0.0
N223 N 0.55107 0.84192 0.04248 0.0
C224 C 0.54518 0.8188 0.00879 0.0
C225 C 0.55795 0.81398 0.02098 0.0
H226 H 0.57055 0.84488 0.07269 0.0
H227 H 0.53139 0.83588 0.01124 0.0
C228 C 0.49843 0.88556 0.04162 0.0
N229 N 0.49881 0.86884 0.04474 0.0
C230 C 0.48258 0.88538 0.0298 0.0
C231 C 0.46777 0.85077 0.02442 0.0
C232 C 0.48394 0.85162 0.03633 0.0
C233 C 0.46706 0.86783 0.02086 0.0
H234 H 0.51054 0.89908 0.04823 0.0
H235 H 0.48473 0.8386 0.03834 0.0
O236 O 0.56336 0.87629 0.08682 0.0
O237 O 0.53457 0.89213 0.08676 0.0
O238 O 0.54361 0.87968 0.03531 0.0
O239 O 0.52094 0.84873 0.07861 0.0
H240 H 0.58002 0.89543 0.13039 0.0
H241 H 0.59062 0.88265 0.05224 0.0
H242 H 0.61539 0.91666 0.13643 0.0
H243 H 0.62581 0.90419 0.05954 0.0
H244 H 0.47849 0.87833 0.1277 0.0
H245 H 0.5468 0.92612 0.10944 0.0
H246 H 0.49762 0.86925 0.09876 0.0
H247 H 0.52679 0.93431 0.13804 0.0
H248 H 0.60048 0.95912 0.10219 0.0
H249 H 0.60231 0.95439 0.01793 0.0
H250 H 0.52201 0.83407 0.18576 0.0
H251 H 0.54778 0.89613 0.19183 0.0
H252 H 0.51632 0.86446 0.999 0.0
H253 H 0.57693 0.88711 0.01407 0.0
H254 H 0.52155 0.85791 0.95308 0.0
H255 H 0.58109 0.88005 0.96794 0.0
H256 H 0.50694 0.81826 0.04721 0.0
H257 H 0.49533 0.84165 0.1164 0.0
H258 H 0.47506 0.78855 0.05251 0.0
H259 H 0.46357 0.81167 0.12028 0.0
H260 H 0.57701 0.81998 0.05427 0.0
H261 H 0.53743 0.81141 0.99116 0.0
H262 H 0.48244 0.89881 0.02775 0.0
H263 H 0.45614 0.83699 0.01758 0.0
Li264 Li 0.66217 0.55641 0.56569 0.0
Li265 Li 0.66774 0.53667 0.59953 0.0
Li266 Li 0.68521 0.54526 0.55659 0.0
Li267 Li 0.65142 0.52278 0.55838 0.0
C268 C 0.69884 0.58007 0.5955 0.0
N269 N 0.72432 0.61557 0.61726 0.0
C270 C 0.69603 0.58443 0.62109 0.0
C271 C 0.71481 0.59365 0.58113 0.0
C272 C 0.70902 0.60249 0.63169 0.0
C273 C 0.72747 0.61154 0.59244 0.0
C274 C 0.62409 0.52118 0.588 0.0
C275 C 0.5978 0.49068 0.60302 0.0
N276 N 0.58523 0.49377 0.58868 0.0
C277 C 0.61092 0.52412 0.5735 0.0
C278 C 0.61751 0.50438 0.60296 0.0
C279 C 0.59133 0.51006 0.57407 0.0
C280 C 0.64504 0.57615 0.54136 0.0
N281 N 0.65514 0.57588 0.5627 0.0
C282 C 0.65042 0.59988 0.58394 0.0
C283 C 0.6581 0.58756 0.58364 0.0
C284 C 0.63925 0.59987 0.56269 0.0
C285 C 0.63703 0.58822 0.54087 0.0
H286 H 0.64242 0.56632 0.52526 0.0
H287 H 0.66564 0.58668 0.60065 0.0
C288 C 0.68363 0.53198 0.6473 0.0
N289 N 0.66901 0.53358 0.63616 0.0
C290 C 0.68425 0.53017 0.67453 0.0
C291 C 0.65479 0.53163 0.67802 0.0
C292 C 0.65483 0.53358 0.65088 0.0
C293 C 0.66958 0.52981 0.69013 0.0
H294 H 0.69481 0.53222 0.63506 0.0
H295 H 0.64362 0.53528 0.64153 0.0
C296 C 0.67232 0.55686 0.51264 0.0
N297 N 0.68807 0.58242 0.47128 0.0
C298 C 0.66733 0.5503 0.48687 0.0
C299 C 0.68523 0.57642 0.51739 0.0
C300 C 0.67548 0.56344 0.46621 0.0
C301 C 0.69305 0.58912 0.49622 0.0
C302 C 0.67608 0.50713 0.56221 0.0
C303 C 0.67345 0.50489 0.53507 0.0
C304 C 0.68305 0.49669 0.57583 0.0
C305 C 0.67785 0.4922 0.52199 0.0
C306 C 0.68728 0.48413 0.56204 0.0
N307 N 0.68462 0.48217 0.53563 0.0
C308 C 0.7248 0.55671 0.55704 0.0
C309 C 0.71006 0.54756 0.51517 0.0
C310 C 0.74211 0.55896 0.547 0.0
N311 N 0.70921 0.55098 0.54111 0.0
C312 C 0.72702 0.5496 0.50435 0.0
C313 C 0.74326 0.55516 0.52038 0.0
H314 H 0.72358 0.55894 0.57771 0.0
H315 H 0.69737 0.54254 0.50302 0.0
C316 C 0.62124 0.5024 0.52274 0.0
N317 N 0.6308 0.50002 0.54312 0.0
C318 C 0.60573 0.48637 0.51098 0.0
C319 C 0.61028 0.46572 0.54136 0.0
C320 C 0.62567 0.48218 0.55261 0.0
C321 C 0.60017 0.46772 0.52017 0.0
H322 H 0.62553 0.51682 0.51586 0.0
H323 H 0.63346 0.48075 0.56901 0.0
O324 O 0.68643 0.56233 0.58494 0.0
O325 O 0.64339 0.53449 0.5871 0.0
O326 O 0.66453 0.54407 0.53297 0.0
O327 O 0.6721 0.51964 0.57547 0.0
H328 H 0.68385 0.57403 0.63258 0.0
H329 H 0.71749 0.59039 0.56152 0.0
H330 H 0.70693 0.6061 0.65141 0.0
H331 H 0.73984 0.62221 0.58151 0.0
H332 H 0.59251 0.47754 0.61437 0.0
H333 H 0.61582 0.53701 0.56172 0.0
H334 H 0.62756 0.50182 0.61408 0.0
H335 H 0.58098 0.51208 0.56284 0.0
H336 H 0.65262 0.60882 0.60102 0.0
H337 H 0.62836 0.5877 0.52422 0.0
H338 H 0.69594 0.52892 0.68329 0.0
H339 H 0.64349 0.53186 0.68949 0.0
H340 H 0.65735 0.53517 0.48289 0.0
H341 H 0.68899 0.58177 0.53718 0.0
H342 H 0.67181 0.55855 0.44616 0.0
H343 H 0.70305 0.60431 0.49962 0.0
H344 H 0.66813 0.51289 0.52416 0.0
H345 H 0.6852 0.49832 0.59683 0.0
H346 H 0.67592 0.49035 0.50099 0.0
H347 H 0.6927 0.47596 0.57233 0.0
H348 H 0.75417 0.56288 0.56013 0.0
H349 H 0.72733 0.54647 0.48374 0.0
H350 H 0.598 0.48857 0.49515 0.0
H351 H 0.60639 0.45158 0.54902 0.0
Li352 Li 0.12771 0.66864 0.09758 0.0
Li353 Li 0.10426 0.66357 0.06303 0.0
Li354 Li 0.12686 0.65058 0.05936 0.0
Li355 Li 0.13902 0.68504 0.05378 0.0
C356 C 0.09699 0.63413 0.10739 0.0
N357 N 0.07962 0.61551 0.15366 0.0
C358 C 0.0794 0.63242 0.11515 0.0
C359 C 0.10566 0.62624 0.12311 0.0
C360 C 0.07086 0.62297 0.13861 0.0
C361 C 0.09668 0.61694 0.14646 0.0
C362 C 0.11788 0.70247 0.08194 0.0
C363 C 0.11578 0.72875 0.06185 0.0
N364 N 0.10841 0.73137 0.08451 0.0
C365 C 0.11049 0.7056 0.10512 0.0
C366 C 0.12073 0.71429 0.06021 0.0
C367 C 0.10571 0.7202 0.10599 0.0
C368 C 0.14777 0.6732 0.14578 0.0
N369 N 0.13137 0.67116 0.13463 0.0
C370 C 0.11793 0.67035 0.17675 0.0
C371 C 0.11668 0.66994 0.14949 0.0
C372 C 0.13452 0.67214 0.18888 0.0
C373 C 0.14965 0.6737 0.17308 0.0
H374 H 0.15925 0.67414 0.13352 0.0
H375 H 0.10376 0.66818 0.14017 0.0
C376 C 0.06716 0.63881 0.04638 0.0
N377 N 0.07817 0.65686 0.05642 0.0
C378 C 0.04724 0.63087 0.04369 0.0
C379 C 0.05041 0.66063 0.06051 0.0
C380 C 0.07031 0.66797 0.06302 0.0
C381 C 0.03856 0.64165 0.05141 0.0
H382 H 0.07383 0.63029 0.04146 0.0
H383 H 0.07927 0.68228 0.07088 0.0
C384 C 0.16306 0.66621 0.07227 0.0
N385 N 0.18832 0.65263 0.06327 0.0
C386 C 0.17641 0.67379 0.05174 0.0
C387 C 0.1627 0.65188 0.08839 0.0
C388 C 0.18904 0.66671 0.04748 0.0
C389 C 0.17553 0.64515 0.08346 0.0
C390 C 0.11578 0.66849 0.00797 0.0
C391 C 0.12043 0.66205 0.98509 0.0
C392 C 0.10693 0.67976 0.00606 0.0
C393 C 0.1166 0.66739 0.96072 0.0
C394 C 0.10331 0.68478 0.98134 0.0
N395 N 0.10821 0.67858 0.95936 0.0
C396 C 0.12052 0.61221 0.05862 0.0
C397 C 0.13974 0.63242 0.02393 0.0
C398 C 0.12208 0.59676 0.04865 0.0
N399 N 0.12933 0.6296 0.04621 0.0
C400 C 0.14148 0.61731 0.01309 0.0
C401 C 0.13264 0.59918 0.02554 0.0
H402 H 0.11215 0.61027 0.07613 0.0
H403 H 0.1466 0.64641 0.01449 0.0
C404 C 0.16715 0.72449 0.05068 0.0
N405 N 0.15808 0.7078 0.03664 0.0
C406 C 0.18202 0.7413 0.03936 0.0
C407 C 0.17806 0.72336 0.99944 0.0
C408 C 0.16323 0.70693 0.01149 0.0
C409 C 0.18767 0.74081 0.01344 0.0
H410 H 0.16302 0.72465 0.07084 0.0
H411 H 0.15622 0.69337 0.00102 0.0
O412 O 0.10574 0.6436 0.08466 0.0
O413 O 0.12277 0.68829 0.08086 0.0
O414 O 0.15023 0.67258 0.07629 0.0
O415 O 0.11941 0.66331 0.032 0.0
H416 H 0.07249 0.63851 0.10339 0.0
H417 H 0.11932 0.62753 0.11756 0.0
H418 H 0.0573 0.62163 0.14489 0.0
H419 H 0.10332 0.61091 0.1589 0.0
H420 H 0.11786 0.73793 0.04514 0.0
H421 H 0.1084 0.69685 0.12226 0.0
H422 H 0.12682 0.71247 0.04226 0.0
H423 H 0.09987 0.72268 0.12376 0.0
H424 H 0.10599 0.6692 0.18825 0.0
H425 H 0.16257 0.67483 0.18172 0.0
H426 H 0.03861 0.61615 0.03673 0.0
H427 H 0.04431 0.66953 0.06618 0.0
H428 H 0.17692 0.6849 0.03909 0.0
H429 H 0.15246 0.64584 0.10434 0.0
H430 H 0.19936 0.67236 0.03157 0.0
H431 H 0.1753 0.63395 0.09566 0.0
H432 H 0.12701 0.65307 0.9861 0.0
H433 H 0.10268 0.68439 0.02342 0.0
H434 H 0.12026 0.66261 0.94288 0.0
H435 H 0.09652 0.69355 0.97963 0.0
H436 H 0.11506 0.58304 0.0589 0.0
H437 H 0.14933 0.61972 0.99488 0.0
H438 H 0.18939 0.75437 0.05099 0.0
H439 H 0.18212 0.72239 0.97947 0.0
Li440 Li 0.46175 0.12689 0.60139 0.0
Li441 Li 0.44347 0.10567 0.56714 0.0
Li442 Li 0.4785 0.12618 0.56006 0.0
Li443 Li 0.45584 0.13909 0.56022 0.0
C444 C 0.45969 0.08701 0.58991 0.0
N445 N 0.44691 0.04795 0.59443 0.0
C446 C 0.45182 0.07739 0.61354 0.0
C447 C 0.46122 0.0768 0.56867 0.0
C448 C 0.44544 0.05764 0.61543 0.0
C449 C 0.45459 0.05704 0.5713 0.0
C450 C 0.41776 0.11172 0.59175 0.0
C451 C 0.38492 0.09494 0.57581 0.0
N452 N 0.37856 0.08829 0.60045 0.0
C453 C 0.4109 0.10481 0.61695 0.0
C454 C 0.40468 0.10685 0.57104 0.0
C455 C 0.39103 0.09295 0.62093 0.0
C456 C 0.4566 0.13951 0.65094 0.0
N457 N 0.46479 0.13042 0.63824 0.0
C458 C 0.47589 0.12443 0.67871 0.0
C459 C 0.47467 0.12329 0.65142 0.0
C460 C 0.46692 0.13306 0.69243 0.0
C461 C 0.45755 0.14105 0.67823 0.0
H462 H 0.44896 0.14516 0.63986 0.0
H463 H 0.48133 0.11645 0.64072 0.0
C464 C 0.42019 0.07237 0.5361 0.0
N465 N 0.42284 0.07978 0.56074 0.0
C466 C 0.40754 0.05266 0.53177 0.0
C467 C 0.40007 0.04878 0.57805 0.0
C468 C 0.41282 0.0685 0.58146 0.0
C469 C 0.39771 0.04054 0.55307 0.0
H470 H 0.42853 0.08158 0.52 0.0
H471 H 0.41554 0.07454 0.60096 0.0
C472 C 0.48898 0.16306 0.59796 0.0
N473 N 0.50397 0.18985 0.63812 0.0
C474 C 0.48179 0.17557 0.60256 0.0
C475 C 0.50373 0.16412 0.61391 0.0
C476 C 0.4896 0.18904 0.6229 0.0
C477 C 0.51111 0.17776 0.63409 0.0
C478 C 0.45594 0.12759 0.51189 0.0
C479 C 0.4729 0.14053 0.49873 0.0
C480 C 0.43799 0.12271 0.50104 0.0
C481 C 0.47161 0.14855 0.475 0.0
C482 C 0.43731 0.13107 0.47729 0.0
N483 N 0.454 0.14372 0.46488 0.0
C484 C 0.49887 0.11689 0.52342 0.0
C485 C 0.51889 0.14044 0.55463 0.0
C486 C 0.51497 0.11764 0.51151 0.0
N487 N 0.50109 0.12811 0.54465 0.0
C488 C 0.5354 0.14167 0.54331 0.0
C489 C 0.53353 0.13016 0.52145 0.0
H490 H 0.48456 0.1074 0.51567 0.0
H491 H 0.52027 0.14929 0.57138 0.0
C492 C 0.43542 0.1588 0.54655 0.0
N493 N 0.45248 0.15895 0.54476 0.0
C494 C 0.4336 0.17394 0.53587 0.0
C495 C 0.46693 0.18905 0.5218 0.0
C496 C 0.46812 0.17369 0.53282 0.0
C497 C 0.44951 0.18932 0.52327 0.0
H498 H 0.42334 0.14715 0.55668 0.0
H499 H 0.48161 0.1736 0.53212 0.0
O500 O 0.46555 0.10624 0.58745 0.0
O501 O 0.43717 0.12334 0.58748 0.0
O502 O 0.48111 0.14936 0.57865 0.0
O503 O 0.45689 0.11991 0.53543 0.0
H504 H 0.4503 0.08499 0.6301 0.0
H505 H 0.46709 0.08396 0.55019 0.0
H506 H 0.43919 0.04998 0.63353 0.0
H507 H 0.45548 0.04891 0.55492 0.0
H508 H 0.37465 0.09096 0.55991 0.0
H509 H 0.42079 0.10834 0.63321 0.0
H510 H 0.40973 0.11207 0.55144 0.0
H511 H 0.38552 0.08741 0.6403 0.0
H512 H 0.48359 0.11847 0.68901 0.0
H513 H 0.45051 0.14785 0.68818 0.0
H514 H 0.40591 0.04687 0.51214 0.0
H515 H 0.39296 0.0399 0.59503 0.0
H516 H 0.47015 0.17477 0.5908 0.0
H517 H 0.50911 0.15422 0.61116 0.0
H518 H 0.48415 0.19879 0.62669 0.0
H519 H 0.52244 0.17865 0.64667 0.0
H520 H 0.48691 0.1446 0.50695 0.0
H521 H 0.42473 0.11261 0.51087 0.0
H522 H 0.48462 0.1587 0.46469 0.0
H523 H 0.42352 0.12749 0.46873 0.0
H524 H 0.51296 0.10863 0.49457 0.0
H525 H 0.54944 0.1513 0.55179 0.0
H526 H 0.42006 0.17385 0.53801 0.0
H527 H 0.47953 0.20064 0.51228 0.0
Li528 Li 0.52527 0.65377 0.94607 0.0
Li529 Li 0.54892 0.68836 0.94434 0.0
Li530 Li 0.5403 0.66965 0.90445 0.0
Li531 Li 0.55956 0.66578 0.93941 0.0
C532 C 0.51008 0.67843 0.93886 0.0
N533 N 0.48425 0.68683 0.9633 0.0
C534 C 0.50954 0.67917 0.96623 0.0
C535 C 0.4975 0.682 0.92395 0.0
C536 C 0.49637 0.68343 0.9782 0.0
C537 C 0.48455 0.6862 0.93667 0.0
C538 C 0.55738 0.66793 0.99091 0.0
C539 C 0.58802 0.67902 0.01257 0.0
N540 N 0.57912 0.66484 0.03083 0.0
C541 C 0.54849 0.65365 0.01011 0.0
C542 C 0.57726 0.68089 0.99237 0.0
C543 C 0.55974 0.65226 0.03005 0.0
C544 C 0.50453 0.61899 0.97353 0.0
N545 N 0.50231 0.63258 0.96042 0.0
C546 C 0.46804 0.61432 0.96647 0.0
C547 C 0.48447 0.63035 0.95628 0.0
C548 C 0.46997 0.6004 0.98088 0.0
C549 C 0.4885 0.60278 0.98414 0.0
H550 H 0.51877 0.62067 0.97551 0.0
H551 H 0.48286 0.64075 0.94466 0.0
C552 C 0.54795 0.72305 0.94386 0.0
N553 N 0.55465 0.71305 0.9577 0.0
C554 C 0.55041 0.74051 0.95338 0.0
C555 C 0.56715 0.73744 0.99092 0.0
C556 C 0.56418 0.7199 0.98077 0.0
C557 C 0.5601 0.74793 0.97724 0.0
H558 H 0.5403 0.71723 0.92563 0.0
H559 H 0.56921 0.71162 0.99154 0.0
C560 C 0.52362 0.62911 0.90732 0.0
N561 N 0.49556 0.59603 0.8829 0.0
C562 C 0.5259 0.61292 0.90517 0.0
C563 C 0.50705 0.62848 0.89715 0.0
C564 C 0.51155 0.59633 0.89272 0.0
C565 C 0.49304 0.61163 0.88485 0.0
C566 C 0.57787 0.708 0.91297 0.0
C567 C 0.57228 0.7172 0.89452 0.0
C568 C 0.59457 0.71893 0.92787 0.0
C569 C 0.58335 0.73725 0.89155 0.0
C570 C 0.60525 0.73895 0.92434 0.0
N571 N 0.59945 0.74763 0.90642 0.0
C572 C 0.52793 0.6781 0.85642 0.0
C573 C 0.54274 0.65879 0.85303 0.0
C574 C 0.52542 0.67753 0.82925 0.0
N575 N 0.53654 0.66887 0.86764 0.0
C576 C 0.54026 0.65759 0.82589 0.0
C577 C 0.53153 0.66705 0.81374 0.0
H578 H 0.52317 0.68604 0.86857 0.0
H579 H 0.54963 0.65169 0.86251 0.0
C580 C 0.57289 0.64132 0.95647 0.0
N581 N 0.57869 0.65863 0.9447 0.0
C582 C 0.58557 0.63413 0.95851 0.0
C583 C 0.61005 0.66286 0.93659 0.0
C584 C 0.59688 0.66953 0.93501 0.0
C585 C 0.60435 0.64485 0.94822 0.0
H586 H 0.55819 0.63283 0.96352 0.0
H587 H 0.60096 0.68309 0.92534 0.0
O588 O 0.52298 0.67452 0.92655 0.0
O589 O 0.54663 0.66937 0.97104 0.0
O590 O 0.53744 0.64535 0.91975 0.0
O591 O 0.56689 0.68843 0.91664 0.0
H592 H 0.51913 0.67648 0.97816 0.0
H593 H 0.49776 0.68151 0.90275 0.0
H594 H 0.4958 0.68404 0.99935 0.0
H595 H 0.47473 0.68898 0.92536 0.0
H596 H 0.60345 0.68884 0.01372 0.0
H597 H 0.53306 0.64386 0.00983 0.0
H598 H 0.58433 0.69211 0.97784 0.0
H599 H 0.55305 0.64122 0.04497 0.0
H600 H 0.45394 0.61267 0.96268 0.0
H601 H 0.49059 0.59225 0.99486 0.0
H602 H 0.54424 0.74779 0.94254 0.0
H603 H 0.57467 0.74264 0.00941 0.0
H604 H 0.53861 0.61317 0.91308 0.0
H605 H 0.50498 0.64083 0.89883 0.0
H606 H 0.51312 0.58368 0.89089 0.0
H607 H 0.48015 0.61093 0.87689 0.0
H608 H 0.55938 0.70901 0.88289 0.0
H609 H 0.59926 0.71207 0.94206 0.0
H610 H 0.57909 0.74458 0.87749 0.0
H611 H 0.61815 0.74759 0.93585 0.0
H612 H 0.51866 0.68502 0.82045 0.0
H613 H 0.54536 0.64959 0.81445 0.0
H614 H 0.58042 0.61994 0.96696 0.0
H615 H 0.62436 0.67146 0.92826 0.0
Li616 Li 0.87113 0.52185 0.44173 0.0
Li617 Li 0.85964 0.54504 0.44357 0.0
Li618 Li 0.87071 0.53837 0.40247 0.0
Li619 Li 0.89345 0.55653 0.43766 0.0
C620 C 0.83471 0.50178 0.42936 0.0
N621 N 0.80819 0.46404 0.44257 0.0
C622 C 0.8213 0.49793 0.44939 0.0
C623 C 0.83459 0.48642 0.41603 0.0
C624 C 0.808 0.47875 0.45576 0.0
C625 C 0.8211 0.46745 0.42303 0.0
C626 C 0.89014 0.55016 0.48799 0.0
C627 C 0.90981 0.57695 0.51665 0.0
N628 N 0.91819 0.56702 0.52632 0.0
C629 C 0.8989 0.54019 0.49828 0.0
C630 C 0.89556 0.56865 0.49731 0.0
C631 C 0.91306 0.54897 0.51764 0.0
C632 C 0.87809 0.49048 0.44522 0.0
N633 N 0.86836 0.49862 0.45624 0.0
C634 C 0.85549 0.47423 0.48943 0.0
C635 C 0.85725 0.49093 0.47798 0.0
C636 C 0.86544 0.46555 0.4785 0.0
C637 C 0.87674 0.47379 0.456 0.0
H638 H 0.88714 0.49711 0.42829 0.0
H639 H 0.84988 0.49787 0.48651 0.0
C640 C 0.82522 0.54612 0.44233 0.0
N641 N 0.84044 0.54982 0.45803 0.0
C642 C 0.81003 0.54824 0.45191 0.0
C643 C 0.82647 0.55803 0.49368 0.0
C644 C 0.8414 0.55574 0.48325 0.0
C645 C 0.81047 0.55414 0.47795 0.0
H646 H 0.82474 0.54117 0.42246 0.0
H647 H 0.85352 0.55826 0.49543 0.0
C648 C 0.90061 0.53449 0.39347 0.0
N649 N 0.91652 0.53376 0.34565 0.0
C650 C 0.91681 0.55113 0.38395 0.0
C651 C 0.89254 0.51747 0.37868 0.0
C652 C 0.92465 0.55046 0.35976 0.0
C653 C 0.90077 0.51741 0.35453 0.0
C654 C 0.86982 0.57586 0.41524 0.0
C655 C 0.8573 0.57355 0.39463 0.0
C656 C 0.87385 0.58987 0.43444 0.0
C657 C 0.8489 0.58526 0.39368 0.0
C658 C 0.86513 0.60126 0.43282 0.0
N659 N 0.85294 0.59873 0.41265 0.0
C660 C 0.85401 0.5204 0.35357 0.0
C661 C 0.88013 0.55265 0.35122 0.0
C662 C 0.85278 0.51924 0.32625 0.0
N663 N 0.86769 0.53685 0.36539 0.0
C664 C 0.87937 0.55215 0.3239 0.0
C665 C 0.8657 0.53522 0.31111 0.0
H666 H 0.84416 0.50814 0.36532 0.0
H667 H 0.89083 0.56555 0.36121 0.0
C668 C 0.93151 0.56914 0.45142 0.0
N669 N 0.91946 0.57583 0.44462 0.0
C670 C 0.95124 0.58191 0.45452 0.0
C671 C 0.94585 0.60835 0.44381 0.0
C672 C 0.92613 0.59501 0.44094 0.0
C673 C 0.95867 0.60179 0.45052 0.0
H674 H 0.92584 0.55375 0.45354 0.0
H675 H 0.91627 0.59988 0.43505 0.0
O676 O 0.84809 0.52046 0.42316 0.0
O677 O 0.87657 0.542 0.46861 0.0
O678 O 0.89236 0.535 0.41676 0.0
O679 O 0.87785 0.56425 0.41685 0.0
H680 H 0.82128 0.5096 0.46012 0.0
H681 H 0.84506 0.48911 0.40078 0.0
H682 H 0.79759 0.47557 0.47127 0.0
H683 H 0.82095 0.45543 0.41301 0.0
H684 H 0.91424 0.5913 0.52391 0.0
H685 H 0.89499 0.52592 0.4912 0.0
H686 H 0.88904 0.57662 0.48943 0.0
H687 H 0.92003 0.54147 0.52568 0.0
H688 H 0.84645 0.46817 0.50659 0.0
H689 H 0.88477 0.46761 0.44717 0.0
H690 H 0.79795 0.54511 0.43917 0.0
H691 H 0.82714 0.5622 0.51403 0.0
H692 H 0.92312 0.5645 0.39491 0.0
H693 H 0.87982 0.50455 0.3855 0.0
H694 H 0.93713 0.56324 0.35211 0.0
H695 H 0.89457 0.50439 0.34278 0.0
H696 H 0.85391 0.56269 0.37971 0.0
H697 H 0.88341 0.59175 0.4506 0.0
H698 H 0.83911 0.58357 0.37792 0.0
H699 H 0.86801 0.61206 0.44764 0.0
H700 H 0.84181 0.50606 0.31706 0.0
H701 H 0.88958 0.56475 0.31286 0.0
H702 H 0.96068 0.57618 0.45889 0.0
H703 H 0.95109 0.62356 0.44031 0.0
Li704 Li 0.34761 0.86849 0.9363 0.0
Li705 Li 0.31337 0.85737 0.93615 0.0
Li706 Li 0.33203 0.87004 0.89559 0.0
Li707 Li 0.33586 0.89171 0.93233 0.0
C708 C 0.33258 0.83438 0.90576 0.0
N709 N 0.34397 0.80944 0.88586 0.0
C710 C 0.3233 0.81507 0.91386 0.0
C711 C 0.34754 0.84096 0.88741 0.0
C712 C 0.3293 0.8027 0.90361 0.0
C713 C 0.35311 0.82814 0.8776 0.0
C714 C 0.33125 0.86472 0.9852 0.0
C715 C 0.33229 0.86353 0.03237 0.0
N716 N 0.32812 0.84482 0.03093 0.0
C717 C 0.32699 0.84548 0.98418 0.0
C718 C 0.33393 0.87384 0.00947 0.0
C719 C 0.32547 0.83567 0.00752 0.0
C720 C 0.38364 0.8833 0.95925 0.0
N721 N 0.36836 0.86634 0.95103 0.0
C722 C 0.38409 0.84901 0.9647 0.0
C723 C 0.36817 0.8493 0.95382 0.0
C724 C 0.40027 0.86641 0.97273 0.0
C725 C 0.39984 0.88369 0.97016 0.0
H726 H 0.38321 0.89657 0.95724 0.0
H727 H 0.35569 0.83592 0.94777 0.0
C728 C 0.27919 0.8218 0.93465 0.0
N729 N 0.28908 0.83806 0.94932 0.0
C730 C 0.2619 0.80636 0.94392 0.0
C731 C 0.26511 0.82489 0.983 0.0
C732 C 0.28233 0.84 0.97293 0.0
C733 C 0.25475 0.80774 0.9685 0.0
H734 H 0.28494 0.8207 0.91593 0.0
H735 H 0.29053 0.85309 0.98424 0.0
C736 C 0.37312 0.90185 0.89996 0.0
N737 N 0.40823 0.92576 0.87602 0.0
C738 C 0.37827 0.92081 0.89323 0.0
C739 C 0.38593 0.89512 0.89468 0.0
C740 C 0.39605 0.93264 0.88108 0.0
C741 C 0.40358 0.90741 0.88253 0.0
C742 C 0.29777 0.87926 0.91769 0.0
C743 C 0.28405 0.87749 0.89923 0.0
C744 C 0.29645 0.88437 0.94351 0.0
C745 C 0.2692 0.88087 0.9069 0.0
C746 C 0.28138 0.88761 0.95042 0.0
N747 N 0.26818 0.88581 0.93213 0.0
C748 C 0.31888 0.85085 0.84714 0.0
C749 C 0.34356 0.88369 0.8437 0.0
C750 C 0.31802 0.8489 0.81988 0.0
N751 N 0.33157 0.86803 0.85842 0.0
C752 C 0.3433 0.88235 0.81642 0.0
C753 C 0.33036 0.86482 0.80423 0.0
H754 H 0.30943 0.83866 0.85937 0.0
H755 H 0.35322 0.89728 0.85307 0.0
C756 C 0.35483 0.92603 0.96076 0.0
N757 N 0.34276 0.9175 0.94012 0.0
C758 C 0.36333 0.94592 0.96468 0.0
C759 C 0.34613 0.94768 0.9267 0.0
C760 C 0.33791 0.92772 0.92354 0.0
C761 C 0.35951 0.95707 0.94697 0.0
H762 H 0.35854 0.9175 0.97342 0.0
H763 H 0.32852 0.92055 0.90702 0.0
O764 O 0.32689 0.84664 0.91576 0.0
O765 O 0.33286 0.87471 0.96266 0.0
O766 O 0.35586 0.89017 0.91223 0.0
O767 O 0.31229 0.87585 0.91043 0.0
H768 H 0.31167 0.80975 0.92804 0.0
H769 H 0.35468 0.85576 0.88066 0.0
H770 H 0.32231 0.78774 0.90979 0.0
H771 H 0.36468 0.83305 0.86339 0.0
H772 H 0.33432 0.8704 0.0513 0.0
H773 H 0.32482 0.83816 0.96562 0.0
H774 H 0.33724 0.88873 0.01057 0.0
H775 H 0.32216 0.82078 0.00701 0.0
H776 H 0.38385 0.83537 0.96657 0.0
H777 H 0.41182 0.89733 0.97675 0.0
H778 H 0.25428 0.79341 0.93211 0.0
H779 H 0.2603 0.82638 0.00226 0.0
H780 H 0.3686 0.9263 0.89718 0.0
H781 H 0.38243 0.88065 0.90015 0.0
H782 H 0.40017 0.94732 0.8757 0.0
H783 H 0.41362 0.90239 0.87836 0.0
H784 H 0.28487 0.87351 0.87917 0.0
H785 H 0.30691 0.8858 0.9581 0.0
H786 H 0.25848 0.87954 0.89281 0.0
H787 H 0.28017 0.89156 0.97033 0.0
H788 H 0.30797 0.8351 0.81113 0.0
H789 H 0.35289 0.89498 0.80493 0.0
H790 H 0.37337 0.95264 0.98077 0.0
H791 H 0.34292 0.95583 0.91258 0.0
Li792 Li 0.4772 0.3481 0.44074 0.0
Li793 Li 0.45477 0.31314 0.44456 0.0
Li794 Li 0.46074 0.33041 0.40194 0.0
Li795 Li 0.44129 0.33454 0.43532 0.0
C796 C 0.49789 0.33162 0.42825 0.0
N797 N 0.53595 0.34224 0.43823 0.0
C798 C 0.50228 0.32134 0.44655 0.0
C799 C 0.51286 0.34719 0.41486 0.0
C800 C 0.52162 0.32696 0.45134 0.0
C801 C 0.53201 0.35238 0.42025 0.0
C802 C 0.45029 0.33188 0.49216 0.0
C803 C 0.42515 0.32174 0.52478 0.0
N804 N 0.43872 0.32757 0.54402 0.0
C805 C 0.46399 0.33797 0.51229 0.0
C806 C 0.43071 0.32387 0.49847 0.0
C807 C 0.45785 0.33558 0.53836 0.0
C808 C 0.50553 0.38746 0.44587 0.0
N809 N 0.50017 0.3694 0.45469 0.0
C810 C 0.52731 0.38207 0.4837 0.0
C811 C 0.51063 0.36645 0.47329 0.0
C812 C 0.53327 0.40085 0.47478 0.0
C813 C 0.52215 0.40348 0.45566 0.0
H814 H 0.4968 0.38946 0.43139 0.0
H815 H 0.50604 0.35196 0.48005 0.0
C816 C 0.44659 0.27477 0.44447 0.0
N817 N 0.45079 0.28989 0.46067 0.0
C818 C 0.4449 0.25771 0.45447 0.0
C819 C 0.45163 0.272 0.49771 0.0
C820 C 0.45325 0.2888 0.48686 0.0
C821 C 0.44754 0.25622 0.48142 0.0
H822 H 0.44499 0.27616 0.42365 0.0
H823 H 0.4569 0.30108 0.49929 0.0
C824 C 0.4645 0.36424 0.39184 0.0
N825 N 0.46683 0.3817 0.34416 0.0
C826 C 0.44818 0.36391 0.38129 0.0
C827 C 0.48205 0.37362 0.37828 0.0
C828 C 0.44965 0.37281 0.35714 0.0
C829 C 0.48292 0.38229 0.35415 0.0
C830 C 0.41703 0.29535 0.41978 0.0
C831 C 0.40515 0.28746 0.39782 0.0
C832 C 0.40989 0.28774 0.44461 0.0
C833 C 0.3862 0.27228 0.40114 0.0
C834 C 0.39088 0.27255 0.44713 0.0
N835 N 0.37951 0.26521 0.42553 0.0
C836 C 0.47896 0.33094 0.35351 0.0
C837 C 0.44712 0.32586 0.35042 0.0
C838 C 0.48042 0.33097 0.3262 0.0
N839 N 0.46256 0.32862 0.36496 0.0
C840 C 0.44793 0.32574 0.32312 0.0
C841 C 0.46482 0.32853 0.3107 0.0
H842 H 0.49098 0.33298 0.36553 0.0
H843 H 0.43434 0.32424 0.36009 0.0
C844 C 0.42721 0.35729 0.45484 0.0
N845 N 0.42145 0.34065 0.44128 0.0
C846 C 0.41473 0.36463 0.45795 0.0
C847 C 0.39036 0.33727 0.43365 0.0
C848 C 0.40339 0.33051 0.43087 0.0
C849 C 0.39607 0.35467 0.4471 0.0
H850 H 0.4418 0.36522 0.46244 0.0
H851 H 0.39925 0.31755 0.41967 0.0
O852 O 0.47905 0.32644 0.42346 0.0
O853 O 0.45611 0.33435 0.46649 0.0
O854 O 0.46321 0.35513 0.4151 0.0
O855 O 0.43562 0.31021 0.41679 0.0
H856 H 0.4909 0.30922 0.45704 0.0
H857 H 0.50974 0.35537 0.40075 0.0
H858 H 0.52522 0.31918 0.46552 0.0
H859 H 0.54373 0.3645 0.41019 0.0
H860 H 0.41005 0.31552 0.5299 0.0
H861 H 0.47919 0.34434 0.50789 0.0
H862 H 0.41988 0.31947 0.4833 0.0
H863 H 0.46831 0.34011 0.5541 0.0
H864 H 0.53554 0.37949 0.49843 0.0
H865 H 0.52608 0.4178 0.44869 0.0
H866 H 0.44221 0.24607 0.44113 0.0
H867 H 0.4538 0.27144 0.51858 0.0
H868 H 0.43446 0.35667 0.39147 0.0
H869 H 0.49481 0.37397 0.38615 0.0
H870 H 0.43711 0.37256 0.34866 0.0
H871 H 0.49636 0.38944 0.34333 0.0
H872 H 0.41047 0.29301 0.3784 0.0
H873 H 0.41897 0.29333 0.46173 0.0
H874 H 0.37682 0.2661 0.38432 0.0
H875 H 0.38518 0.26655 0.46626 0.0
H876 H 0.49357 0.33283 0.31731 0.0
H877 H 0.43564 0.32392 0.31182 0.0
H878 H 0.41997 0.37839 0.46775 0.0
H879 H 0.37614 0.32923 0.42486 0.0
Li880 Li 0.13252 0.47974 0.9388 0.0
Li881 Li 0.144 0.45773 0.93873 0.0
Li882 Li 0.13287 0.46545 0.8965 0.0
Li883 Li 0.11013 0.4456 0.93248 0.0
C884 C 0.16741 0.50227 0.91778 0.0
N885 N 0.19171 0.54188 0.91533 0.0
C886 C 0.17734 0.51259 0.94015 0.0
C887 C 0.16997 0.51211 0.89411 0.0
C888 C 0.1895 0.53261 0.93853 0.0
C889 C 0.1823 0.53213 0.89329 0.0
C890 C 0.13266 0.45483 0.98613 0.0
C891 C 0.13323 0.43245 0.01741 0.0
N892 N 0.14853 0.4474 0.02967 0.0
C893 C 0.1483 0.46998 0.99916 0.0
C894 C 0.125 0.43591 0.99538 0.0
C895 C 0.15615 0.46593 0.02109 0.0
C896 C 0.12826 0.50101 0.97978 0.0
N897 N 0.13408 0.50238 0.95442 0.0
C898 C 0.14026 0.5349 0.95185 0.0
C899 C 0.13968 0.51879 0.94025 0.0
C900 C 0.13456 0.53391 0.97805 0.0
C901 C 0.12832 0.51668 0.99203 0.0
H902 H 0.1233 0.48764 0.99041 0.0
H903 H 0.14344 0.51932 0.91982 0.0
C904 C 0.15886 0.43438 0.95984 0.0
N905 N 0.16323 0.45249 0.95239 0.0
C906 C 0.17316 0.43116 0.97046 0.0
C907 C 0.19625 0.46513 0.96478 0.0
C908 C 0.18154 0.46769 0.95441 0.0
C909 C 0.1921 0.44672 0.97315 0.0
H910 H 0.14427 0.42247 0.95776 0.0
H911 H 0.18474 0.48186 0.94801 0.0
C912 C 0.10175 0.47718 0.91484 0.0
N913 N 0.08294 0.49799 0.92157 0.0
C914 C 0.0889 0.47292 0.93572 0.0
C915 C 0.10502 0.49198 0.89735 0.0
C916 C 0.07954 0.48362 0.9388 0.0
C917 C 0.09536 0.50234 0.9011 0.0
C918 C 0.11535 0.42111 0.90313 0.0
C919 C 0.10978 0.41684 0.87689 0.0
C920 C 0.10819 0.40621 0.92164 0.0
C921 C 0.09699 0.39771 0.86964 0.0
C922 C 0.0954 0.38728 0.91363 0.0
N923 N 0.09011 0.38345 0.88801 0.0
C924 C 0.15145 0.46918 0.848 0.0
C925 C 0.12104 0.46765 0.84546 0.0
C926 C 0.1531 0.47008 0.8207 0.0
N927 N 0.13559 0.46799 0.85969 0.0
C928 C 0.12213 0.4686 0.81816 0.0
C929 C 0.13823 0.46965 0.80549 0.0
H930 H 0.16272 0.46929 0.85991 0.0
H931 H 0.10843 0.46629 0.85531 0.0
C932 C 0.07607 0.42092 0.96161 0.0
N933 N 0.08393 0.42591 0.93724 0.0
C934 C 0.0562 0.40843 0.96461 0.0
C935 C 0.05301 0.40617 0.91741 0.0
C936 C 0.07288 0.41881 0.91533 0.0
C937 C 0.04442 0.4012 0.94229 0.0
H938 H 0.08506 0.42728 0.97869 0.0
H939 H 0.07941 0.42355 0.89621 0.0
O940 O 0.15545 0.48264 0.9189 0.0
O941 O 0.12516 0.45847 0.96416 0.0
O942 O 0.11145 0.46721 0.91193 0.0
O943 O 0.12771 0.43979 0.91064 0.0
H944 H 0.1755 0.50529 0.95867 0.0
H945 H 0.16242 0.50444 0.8766 0.0
H946 H 0.19714 0.54078 0.95574 0.0
H947 H 0.18434 0.53993 0.87513 0.0
H948 H 0.12754 0.41787 0.02466 0.0
H949 H 0.15441 0.4847 0.99229 0.0
H950 H 0.11303 0.42396 0.98542 0.0
H951 H 0.16834 0.47751 0.03125 0.0
H952 H 0.14473 0.54786 0.94034 0.0
H953 H 0.12363 0.51539 0.01222 0.0
H954 H 0.16949 0.41667 0.9763 0.0
H955 H 0.21069 0.47749 0.96656 0.0
H956 H 0.0864 0.46167 0.94961 0.0
H957 H 0.11512 0.49564 0.8813 0.0
H958 H 0.06963 0.48055 0.95494 0.0
H959 H 0.09781 0.51391 0.8878 0.0
H960 H 0.11522 0.42815 0.86226 0.0
H961 H 0.11218 0.40927 0.94206 0.0
H962 H 0.09251 0.39421 0.84942 0.0
H963 H 0.08962 0.37563 0.92779 0.0
H964 H 0.16584 0.47111 0.8116 0.0
H965 H 0.11031 0.46806 0.80704 0.0
H966 H 0.05002 0.4049 0.98411 0.0
H967 H 0.04432 0.4011 0.89977 0.0
Li968 Li 0.68758 0.13959 0.4415 0.0
Li969 Li 0.65211 0.12803 0.43571 0.0
Li970 Li 0.66459 0.10647 0.42827 0.0
Li971 Li 0.67114 0.13104 0.3975 0.0
C972 C 0.65821 0.10532 0.4793 0.0
N973 N 0.64368 0.07436 0.51348 0.0
C974 C 0.63831 0.09239 0.48048 0.0
C975 C 0.67072 0.10257 0.49556 0.0
C976 C 0.63125 0.0768 0.49787 0.0
C977 C 0.66308 0.08681 0.51271 0.0
C978 C 0.67057 0.16605 0.42876 0.0
C979 C 0.65081 0.18094 0.42445 0.0
N980 N 0.66119 0.19361 0.44384 0.0
C981 C 0.68107 0.17927 0.44859 0.0
C982 C 0.65537 0.16694 0.4165 0.0
C983 C 0.6761 0.19309 0.45593 0.0
C984 C 0.72513 0.17066 0.44417 0.0
N985 N 0.71051 0.15741 0.45932 0.0
C986 C 0.72867 0.17191 0.49828 0.0
C987 C 0.71191 0.15773 0.4859 0.0
C988 C 0.744 0.18592 0.48313 0.0
C989 C 0.74203 0.18516 0.45571 0.0
H990 H 0.72341 0.1702 0.4231 0.0
H991 H 0.69988 0.14724 0.49748 0.0
C992 C 0.61291 0.1179 0.44143 0.0
N993 N 0.63107 0.12965 0.45076 0.0
C994 C 0.59716 0.11835 0.45249 0.0
C995 C 0.61895 0.14253 0.48316 0.0
C996 C 0.6343 0.14158 0.47152 0.0
C997 C 0.6001 0.13086 0.47353 0.0
H998 H 0.6106 0.10793 0.42568 0.0
H999 H 0.64878 0.15023 0.4792 0.0
C1000 C 0.69919 0.11362 0.4129 0.0
N1001 N 0.71725 0.09176 0.41408 0.0
C1002 C 0.69373 0.09834 0.39526 0.0
C1003 C 0.71389 0.11782 0.43107 0.0
C1004 C 0.70301 0.08744 0.39621 0.0
C1005 C 0.72284 0.1066 0.43135 0.0
C1006 C 0.63764 0.10542 0.38246 0.0
C1007 C 0.6407 0.09337 0.36563 0.0
C1008 C 0.6274 0.11426 0.37342 0.0
C1009 C 0.63348 0.09039 0.34006 0.0
C1010 C 0.6204 0.1109 0.34772 0.0
N1011 N 0.62358 0.09915 0.3317 0.0
C1012 C 0.64004 0.06662 0.42265 0.0
C1013 C 0.66834 0.07396 0.4466 0.0
C1014 C 0.63332 0.04689 0.42488 0.0
N1015 N 0.65743 0.07975 0.43298 0.0
C1016 C 0.66199 0.05425 0.44967 0.0
C1017 C 0.64435 0.04054 0.43848 0.0
H1018 H 0.63121 0.07144 0.41289 0.0
H1019 H 0.68189 0.08459 0.45521 0.0
C1020 C 0.66866 0.14925 0.35059 0.0
N1021 N 0.67508 0.13782 0.36109 0.0
C1022 C 0.669 0.15185 0.32348 0.0
C1023 C 0.68358 0.13181 0.31863 0.0
C1024 C 0.68297 0.12962 0.3458 0.0
C1025 C 0.67606 0.14262 0.30712 0.0
H1026 H 0.66261 0.15575 0.36314 0.0
H1027 H 0.68812 0.12075 0.3546 0.0
O1028 O 0.66542 0.12032 0.46184 0.0
O1029 O 0.67509 0.15227 0.42149 0.0
O1030 O 0.69034 0.12454 0.41227 0.0
O1031 O 0.64517 0.10901 0.40733 0.0
H1032 H 0.62846 0.09421 0.46784 0.0
H1033 H 0.68618 0.11228 0.49461 0.0
H1034 H 0.6159 0.0666 0.49887 0.0
H1035 H 0.6726 0.08442 0.52529 0.0
H1036 H 0.63897 0.18167 0.41529 0.0
H1037 H 0.69287 0.17885 0.45834 0.0
H1038 H 0.6469 0.1567 0.40139 0.0
H1039 H 0.68407 0.20336 0.4713 0.0
H1040 H 0.72956 0.17204 0.51948 0.0
H1041 H 0.75318 0.196 0.4433 0.0
H1042 H 0.58281 0.10899 0.44469 0.0
H1043 H 0.62174 0.15196 0.49983 0.0
H1044 H 0.68222 0.09466 0.38131 0.0
H1045 H 0.71832 0.12954 0.44489 0.0
H1046 H 0.69883 0.07549 0.38281 0.0
H1047 H 0.7342 0.10966 0.44535 0.0
H1048 H 0.64884 0.08663 0.37206 0.0
H1049 H 0.62518 0.12392 0.38589 0.0
H1050 H 0.63586 0.08121 0.32681 0.0
H1051 H 0.61258 0.11777 0.34043 0.0
H1052 H 0.61945 0.03665 0.41645 0.0
H1053 H 0.67078 0.04978 0.46046 0.0
H1054 H 0.66348 0.16067 0.31536 0.0
H1055 H 0.68918 0.12449 0.30668 0.0
Li1056 Li 0.64904 0.52016 0.93555 0.0
Li1057 Li 0.66222 0.55407 0.92914 0.0
Li1058 Li 0.66618 0.53516 0.89515 0.0
Li1059 Li 0.68521 0.54313 0.93718 0.0
C1060 C 0.62259 0.52026 0.90548 0.0
N1061 N 0.5835 0.49389 0.90154 0.0
C1062 C 0.60907 0.52408 0.91737 0.0
C1063 C 0.6162 0.50307 0.89146 0.0
C1064 C 0.58937 0.51056 0.91517 0.0
C1065 C 0.59639 0.48991 0.88974 0.0
C1066 C 0.66511 0.55194 0.98199 0.0
C1067 C 0.68265 0.57436 0.01685 0.0
N1068 N 0.66609 0.57387 0.0245 0.0
C1069 C 0.64825 0.55158 0.99029 0.0
C1070 C 0.68245 0.56336 0.99541 0.0
C1071 C 0.64905 0.56282 0.01178 0.0
C1072 C 0.62873 0.48023 0.94969 0.0
N1073 N 0.6287 0.49723 0.95121 0.0
C1074 C 0.59899 0.48201 0.97511 0.0
C1075 C 0.61441 0.49843 0.96403 0.0
C1076 C 0.59843 0.46422 0.97339 0.0
C1077 C 0.61366 0.46342 0.96083 0.0
H1078 H 0.64045 0.47971 0.93987 0.0
H1079 H 0.61487 0.51212 0.96547 0.0
C1080 C 0.64408 0.57497 0.91613 0.0
N1081 N 0.65707 0.57506 0.93343 0.0
C1082 C 0.63787 0.5884 0.91835 0.0
C1083 C 0.65951 0.60279 0.9551 0.0
C1084 C 0.66537 0.58907 0.95209 0.0
C1085 C 0.64523 0.60223 0.93845 0.0
H1086 H 0.63824 0.56419 0.9008 0.0
H1087 H 0.67638 0.58952 0.96484 0.0
C1088 C 0.67524 0.50715 0.90284 0.0
N1089 N 0.68581 0.48662 0.86971 0.0
C1090 C 0.69474 0.51269 0.89977 0.0
C1091 C 0.66112 0.49109 0.88921 0.0
C1092 C 0.69979 0.50213 0.8829 0.0
C1093 C 0.66676 0.48093 0.87249 0.0
C1094 C 0.69177 0.57918 0.90202 0.0
C1095 C 0.68516 0.58277 0.87848 0.0
C1096 C 0.70321 0.59454 0.91883 0.0
C1097 C 0.69011 0.60172 0.87215 0.0
C1098 C 0.70785 0.61329 0.91179 0.0
N1099 N 0.70124 0.61646 0.8888 0.0
C1100 C 0.65232 0.53025 0.84345 0.0
C1101 C 0.68333 0.53333 0.8468 0.0
C1102 C 0.65259 0.52863 0.81625 0.0
N1103 N 0.66741 0.53226 0.85815 0.0
C1104 C 0.68415 0.5316 0.81961 0.0
C1105 C 0.66855 0.52906 0.804 0.0
H1106 H 0.64021 0.53033 0.85277 0.0
H1107 H 0.6955 0.53576 0.85877 0.0
C1108 C 0.70703 0.53171 0.96648 0.0
N1109 N 0.70833 0.54696 0.95295 0.0
C1110 C 0.72345 0.5329 0.97793 0.0
C1111 C 0.74217 0.56571 0.96195 0.0
C1112 C 0.72541 0.56377 0.95043 0.0
C1113 C 0.74137 0.55004 0.97566 0.0
H1114 H 0.69324 0.51849 0.96799 0.0
H1115 H 0.72604 0.57562 0.93941 0.0
O1116 O 0.64198 0.53314 0.90781 0.0
O1117 O 0.66464 0.54095 0.96113 0.0
O1118 O 0.67001 0.51735 0.91921 0.0
O1119 O 0.68663 0.56066 0.90886 0.0
H1120 H 0.6137 0.53714 0.92864 0.0
H1121 H 0.62643 0.49991 0.88206 0.0
H1122 H 0.57877 0.51326 0.92443 0.0
H1123 H 0.59127 0.47653 0.87903 0.0
H1124 H 0.69597 0.5833 0.02738 0.0
H1125 H 0.63478 0.54308 0.97994 0.0
H1126 H 0.69563 0.56378 0.98933 0.0
H1127 H 0.63615 0.56282 0.01825 0.0
H1128 H 0.58766 0.48321 0.98509 0.0
H1129 H 0.61373 0.44992 0.95934 0.0
H1130 H 0.62694 0.58757 0.90498 0.0
H1131 H 0.66595 0.61361 0.97037 0.0
H1132 H 0.7059 0.52515 0.90998 0.0
H1133 H 0.64597 0.48648 0.89151 0.0
H1134 H 0.71482 0.50632 0.88023 0.0
H1135 H 0.65598 0.46851 0.86176 0.0
H1136 H 0.67616 0.57103 0.86535 0.0
H1137 H 0.70812 0.59198 0.93738 0.0
H1138 H 0.68503 0.6047 0.85404 0.0
H1139 H 0.71658 0.6253 0.9247 0.0
H1140 H 0.6406 0.52748 0.80489 0.0
H1141 H 0.69684 0.53228 0.81089 0.0
H1142 H 0.72219 0.52043 0.98816 0.0
H1143 H 0.75556 0.57935 0.96026 0.0
Li1144 Li 0.12983 0.67 0.39422 0.0
Li1145 Li 0.14019 0.68609 0.43685 0.0
Li1146 Li 0.12879 0.652 0.43455 0.0
Li1147 Li 0.10714 0.66421 0.42896 0.0
C1148 C 0.17052 0.68749 0.41482 0.0
N1149 N 0.20806 0.71817 0.41353 0.0
C1150 C 0.17564 0.70282 0.39739 0.0
C1151 C 0.18453 0.68775 0.43153 0.0
C1152 C 0.19469 0.71819 0.39702 0.0
C1153 C 0.20341 0.7034 0.43061 0.0
C1154 C 0.11334 0.69796 0.41392 0.0
C1155 C 0.10203 0.71457 0.44196 0.0
N1156 N 0.09078 0.71477 0.42207 0.0
C1157 C 0.1017 0.69836 0.39374 0.0
C1158 C 0.11353 0.70614 0.43823 0.0
C1159 C 0.09039 0.70691 0.39826 0.0
C1160 C 0.11781 0.66958 0.34293 0.0
N1161 N 0.1329 0.67121 0.35723 0.0
C1162 C 0.15021 0.67283 0.31818 0.0
C1163 C 0.14884 0.67256 0.34551 0.0
C1164 C 0.13495 0.67151 0.30292 0.0
C1165 C 0.11855 0.66975 0.31561 0.0
H1166 H 0.10508 0.6679 0.35281 0.0
H1167 H 0.16036 0.67317 0.35735 0.0
C1168 C 0.16667 0.70843 0.47636 0.0
N1169 N 0.15887 0.70941 0.45314 0.0
C1170 C 0.18197 0.7251 0.48731 0.0
C1171 C 0.18059 0.74345 0.45045 0.0
C1172 C 0.16521 0.72647 0.44035 0.0
C1173 C 0.18933 0.74278 0.47398 0.0
H1174 H 0.16139 0.69459 0.48592 0.0
H1175 H 0.15875 0.72675 0.42183 0.0
C1176 C 0.10737 0.63049 0.39071 0.0
N1177 N 0.10493 0.60175 0.35801 0.0
C1178 C 0.08941 0.61624 0.38121 0.0
C1179 C 0.12409 0.63013 0.38355 0.0
C1180 C 0.08848 0.60183 0.36471 0.0
C1181 C 0.12255 0.61548 0.36701 0.0
C1182 C 0.11031 0.65289 0.47945 0.0
C1183 C 0.09476 0.63501 0.47187 0.0
C1184 C 0.11388 0.65739 0.50608 0.0
C1185 C 0.08303 0.62194 0.4911 0.0
C1186 C 0.10183 0.64391 0.52471 0.0
N1187 N 0.08678 0.62662 0.5169 0.0
C1188 C 0.14636 0.63542 0.46517 0.0
C1189 C 0.117 0.61248 0.44502 0.0
C1190 C 0.14807 0.62064 0.47728 0.0
N1191 N 0.1311 0.63113 0.44919 0.0
C1192 C 0.11817 0.59728 0.4566 0.0
C1193 C 0.13381 0.60128 0.47305 0.0
H1194 H 0.15702 0.65034 0.4689 0.0
H1195 H 0.10456 0.60933 0.4332 0.0
C1196 C 0.06852 0.64873 0.41481 0.0
N1197 N 0.08118 0.65839 0.43448 0.0
C1198 C 0.04885 0.64209 0.4181 0.0
C1199 C 0.0557 0.65629 0.46143 0.0
C1200 C 0.07529 0.66263 0.4573 0.0
C1201 C 0.04217 0.64546 0.44188 0.0
H1202 H 0.07368 0.64574 0.3968 0.0
H1203 H 0.08573 0.67052 0.47254 0.0
O1204 O 0.15176 0.67267 0.41609 0.0
O1205 O 0.12411 0.68917 0.41017 0.0
O1206 O 0.10843 0.64479 0.40666 0.0
O1207 O 0.12212 0.66601 0.46111 0.0
H1208 H 0.16492 0.70309 0.3847 0.0
H1209 H 0.18087 0.67609 0.44519 0.0
H1210 H 0.1988 0.73021 0.38379 0.0
H1211 H 0.21437 0.70383 0.44352 0.0
H1212 H 0.10196 0.72086 0.46072 0.0
H1213 H 0.10134 0.69208 0.37483 0.0
H1214 H 0.12222 0.7057 0.4542 0.0
H1215 H 0.08128 0.70728 0.38284 0.0
H1216 H 0.16288 0.67371 0.30908 0.0
H1217 H 0.10644 0.66859 0.30452 0.0
H1218 H 0.18845 0.72409 0.50546 0.0
H1219 H 0.18581 0.7569 0.43981 0.0
H1220 H 0.07632 0.61629 0.38656 0.0
H1221 H 0.13812 0.64096 0.39068 0.0
H1222 H 0.07467 0.5907 0.35724 0.0
H1223 H 0.13537 0.61503 0.36132 0.0
H1224 H 0.0917 0.63123 0.45141 0.0
H1225 H 0.12588 0.67115 0.51226 0.0
H1226 H 0.07094 0.60807 0.4855 0.0
H1227 H 0.10444 0.64721 0.54539 0.0
H1228 H 0.1604 0.62429 0.4898 0.0
H1229 H 0.10673 0.58255 0.45322 0.0
H1230 H 0.03889 0.63376 0.40258 0.0
H1231 H 0.05116 0.65952 0.47983 0.0
Li1232 Li 0.4815 0.13105 0.93449 0.0
Li1233 Li 0.44588 0.10677 0.93128 0.0
Li1234 Li 0.46243 0.13016 0.8976 0.0
Li1235 Li 0.45695 0.14147 0.9376 0.0
C1236 C 0.47071 0.10327 0.88635 0.0
N1237 N 0.47669 0.09207 0.83762 0.0
C1238 C 0.45539 0.08799 0.87304 0.0
C1239 C 0.48911 0.11274 0.875 0.0
C1240 C 0.4587 0.08257 0.84838 0.0
C1241 C 0.49183 0.10688 0.85032 0.0
C1242 C 0.4616 0.12092 0.98693 0.0
C1243 C 0.4537 0.12362 0.0318 0.0
N1244 N 0.46374 0.11494 0.03989 0.0
C1245 C 0.47186 0.11204 0.9957 0.0
C1246 C 0.45245 0.12679 0.00511 0.0
C1247 C 0.47276 0.10913 0.02254 0.0
C1248 C 0.51643 0.14956 0.96362 0.0
N1249 N 0.50507 0.13434 0.94781 0.0
C1250 C 0.52603 0.12131 0.95313 0.0
C1251 C 0.50951 0.12034 0.94241 0.0
C1252 C 0.53805 0.13681 0.9696 0.0
C1253 C 0.5331 0.15107 0.97486 0.0
H1254 H 0.51234 0.16032 0.96781 0.0
H1255 H 0.49995 0.10817 0.93029 0.0
C1256 C 0.41208 0.07077 0.92253 0.0
N1257 N 0.42727 0.08066 0.93908 0.0
C1258 C 0.39982 0.05087 0.92568 0.0
C1259 C 0.41862 0.05192 0.96343 0.0
C1260 C 0.43054 0.07174 0.9595 0.0
C1261 C 0.40339 0.04116 0.94591 0.0
H1262 H 0.40999 0.07819 0.90621 0.0
H1263 H 0.44282 0.07983 0.97214 0.0
C1264 C 0.48419 0.17004 0.906 0.0
N1265 N 0.4893 0.20393 0.88407 0.0
C1266 C 0.46863 0.17051 0.89414 0.0
C1267 C 0.50233 0.1868 0.90672 0.0
C1268 C 0.47152 0.18778 0.88317 0.0
C1269 C 0.50463 0.20379 0.89551 0.0
C1270 C 0.41866 0.11766 0.9216 0.0
C1271 C 0.40492 0.11741 0.9044 0.0
C1272 C 0.4138 0.11269 0.9479 0.0
C1273 C 0.38654 0.11229 0.91384 0.0
C1274 C 0.39528 0.10765 0.95659 0.0
N1275 N 0.38215 0.10756 0.93953 0.0
C1276 C 0.44697 0.12166 0.84684 0.0
C1277 C 0.48027 0.14543 0.84823 0.0
C1278 C 0.44723 0.12183 0.8195 0.0
N1279 N 0.4634 0.13313 0.86053 0.0
C1280 C 0.48115 0.14619 0.82088 0.0
C1281 C 0.46456 0.13401 0.80626 0.0
H1282 H 0.4338 0.11198 0.85721 0.0
H1283 H 0.49316 0.15423 0.85965 0.0
C1284 C 0.46623 0.17162 0.97255 0.0
N1285 N 0.45273 0.16028 0.95456 0.0
C1286 C 0.46511 0.18667 0.98478 0.0
C1287 C 0.43615 0.17804 0.95985 0.0
C1288 C 0.43794 0.16329 0.94788 0.0
C1289 C 0.4499 0.18996 0.97846 0.0
H1290 H 0.47802 0.1691 0.97709 0.0
H1291 H 0.42778 0.1546 0.93285 0.0
O1292 O 0.46762 0.10923 0.91008 0.0
O1293 O 0.46083 0.12424 0.96074 0.0
O1294 O 0.48175 0.15338 0.91717 0.0
O1295 O 0.43669 0.1227 0.91245 0.0
H1296 H 0.44105 0.08056 0.8815 0.0
H1297 H 0.50108 0.12472 0.88496 0.0
H1298 H 0.44694 0.07088 0.83774 0.0
H1299 H 0.50595 0.11419 0.8412 0.0
H1300 H 0.44668 0.12808 0.04608 0.0
H1301 H 0.47888 0.10725 0.98192 0.0
H1302 H 0.44446 0.1337 0.99871 0.0
H1303 H 0.48062 0.10224 0.02958 0.0
H1304 H 0.5291 0.10978 0.94914 0.0
H1305 H 0.542 0.16318 0.98758 0.0
H1306 H 0.38827 0.04303 0.9117 0.0
H1307 H 0.42166 0.04496 0.97949 0.0
H1308 H 0.45447 0.15772 0.89342 0.0
H1309 H 0.51449 0.18667 0.9159 0.0
H1310 H 0.45961 0.18835 0.87395 0.0
H1311 H 0.51859 0.21688 0.89592 0.0
H1312 H 0.40845 0.1212 0.88396 0.0
H1313 H 0.42414 0.11263 0.96147 0.0
H1314 H 0.37578 0.11208 0.90076 0.0
H1315 H 0.39134 0.10378 0.9769 0.0
H1316 H 0.43411 0.11242 0.8088 0.0
H1317 H 0.49475 0.15571 0.81126 0.0
H1318 H 0.47602 0.19567 0.99897 0.0
H1319 H 0.42447 0.18047 0.95408 0.0
Li1320 Li 0.3482 0.47819 0.43336 0.0
Li1321 Li 0.3349 0.44238 0.42883 0.0
Li1322 Li 0.33019 0.46045 0.39441 0.0
Li1323 Li 0.31238 0.4537 0.43381 0.0
C1324 C 0.36476 0.46468 0.38596 0.0
N1325 N 0.38295 0.46575 0.33942 0.0
C1326 C 0.361 0.44748 0.37373 0.0
C1327 C 0.37781 0.48243 0.37459 0.0
C1328 C 0.37033 0.44832 0.35019 0.0
C1329 C 0.38686 0.48266 0.35104 0.0
C1330 C 0.33786 0.44963 0.47984 0.0
C1331 C 0.33106 0.42329 0.50921 0.0
N1332 N 0.34868 0.43422 0.52058 0.0
C1333 C 0.35585 0.46066 0.49195 0.0
C1334 C 0.3253 0.43084 0.48866 0.0
C1335 C 0.36107 0.45259 0.51248 0.0
C1336 C 0.36472 0.5119 0.46477 0.0
N1337 N 0.36868 0.50098 0.44823 0.0
C1338 C 0.40258 0.52094 0.4558 0.0
C1339 C 0.38713 0.5052 0.44348 0.0
C1340 C 0.39895 0.53225 0.47347 0.0
C1341 C 0.37975 0.52777 0.47761 0.0
H1342 H 0.34985 0.50802 0.46837 0.0
H1343 H 0.38982 0.49606 0.43057 0.0
C1344 C 0.33053 0.40451 0.42891 0.0
N1345 N 0.34193 0.42334 0.43597 0.0
C1346 C 0.33701 0.39132 0.43258 0.0
C1347 C 0.36664 0.41713 0.45097 0.0
C1348 C 0.35973 0.42983 0.44662 0.0
C1349 C 0.35528 0.39765 0.44377 0.0
H1350 H 0.31667 0.39986 0.41979 0.0
H1351 H 0.36875 0.44501 0.45117 0.0
C1352 C 0.32649 0.49212 0.39812 0.0
N1353 N 0.32643 0.51815 0.36246 0.0
C1354 C 0.31094 0.48639 0.38089 0.0
C1355 C 0.34197 0.51111 0.39727 0.0
C1356 C 0.3112 0.49976 0.36297 0.0
C1357 C 0.34167 0.52405 0.37909 0.0
C1358 C 0.29188 0.42217 0.40828 0.0
C1359 C 0.28002 0.42407 0.38977 0.0
C1360 C 0.2836 0.40783 0.42751 0.0
C1361 C 0.26003 0.41164 0.39092 0.0
C1362 C 0.26355 0.39571 0.42803 0.0
N1363 N 0.25227 0.39785 0.40989 0.0
C1364 C 0.32007 0.44507 0.34361 0.0
C1365 C 0.33994 0.47917 0.34375 0.0
C1366 C 0.31956 0.44482 0.31628 0.0
N1367 N 0.32987 0.46209 0.3568 0.0
C1368 C 0.33969 0.47961 0.31639 0.0
C1369 C 0.32925 0.46228 0.30231 0.0
H1370 H 0.3129 0.4316 0.35434 0.0
H1371 H 0.34837 0.49245 0.3545 0.0
C1372 C 0.28577 0.44453 0.4757 0.0
N1373 N 0.28874 0.44905 0.44978 0.0
C1374 C 0.26942 0.44274 0.4883 0.0
C1375 C 0.25921 0.44978 0.44717 0.0
C1376 C 0.27581 0.45156 0.43543 0.0
C1377 C 0.25608 0.44571 0.47405 0.0
H1378 H 0.29635 0.44282 0.48678 0.0
H1379 H 0.27854 0.45533 0.41497 0.0
O1380 O 0.35532 0.46412 0.40858 0.0
O1381 O 0.33264 0.45714 0.45937 0.0
O1382 O 0.32649 0.47934 0.41599 0.0
O1383 O 0.31146 0.43442 0.40776 0.0
H1384 H 0.3508 0.43362 0.38215 0.0
H1385 H 0.38067 0.49587 0.38363 0.0
H1386 H 0.36749 0.43513 0.34042 0.0
H1387 H 0.39689 0.49628 0.34192 0.0
H1388 H 0.32153 0.40872 0.51609 0.0
H1389 H 0.36576 0.47523 0.48548 0.0
H1390 H 0.31132 0.42211 0.47957 0.0
H1391 H 0.37499 0.46093 0.52192 0.0
H1392 H 0.41719 0.52415 0.45169 0.0
H1393 H 0.37638 0.53611 0.49115 0.0
H1394 H 0.328 0.37642 0.42647 0.0
H1395 H 0.38102 0.42263 0.45899 0.0
H1396 H 0.29901 0.4717 0.38091 0.0
H1397 H 0.35413 0.51581 0.41042 0.0
H1398 H 0.29934 0.49547 0.34939 0.0
H1399 H 0.35358 0.53877 0.37818 0.0
H1400 H 0.28613 0.43521 0.37491 0.0
H1401 H 0.29255 0.40614 0.44196 0.0
H1402 H 0.25067 0.41303 0.37682 0.0
H1403 H 0.25695 0.38461 0.44289 0.0
H1404 H 0.31195 0.43107 0.30618 0.0
H1405 H 0.34757 0.49336 0.30635 0.0
H1406 H 0.26738 0.4394 0.50904 0.0
H1407 H 0.2493 0.4523 0.43559 0.0
Li1408 Li 0.87158 0.35012 0.93752 0.0
Li1409 Li 0.89463 0.33836 0.93265 0.0
Li1410 Li 0.87065 0.33388 0.89715 0.0
Li1411 Li 0.85964 0.31461 0.9371 0.0
C1412 C 0.90162 0.37786 0.91238 0.0
N1413 N 0.91936 0.41767 0.91579 0.0
C1414 C 0.91838 0.38821 0.9274 0.0
C1415 C 0.894 0.38779 0.89888 0.0
C1416 C 0.92711 0.40833 0.92891 0.0
C1417 C 0.90314 0.40791 0.90093 0.0
C1418 C 0.88224 0.32959 0.98589 0.0
C1419 C 0.88794 0.3075 0.01145 0.0
N1420 N 0.89219 0.3193 0.03262 0.0
C1421 C 0.88649 0.34141 0.00798 0.0
C1422 C 0.88284 0.31243 0.98768 0.0
C1423 C 0.89155 0.336 0.03139 0.0
C1424 C 0.85303 0.37192 0.94907 0.0
N1425 N 0.86879 0.37007 0.95372 0.0
C1426 C 0.88165 0.39686 0.98328 0.0
C1427 C 0.88297 0.38214 0.97045 0.0
C1428 C 0.86548 0.39906 0.97904 0.0
C1429 C 0.85111 0.38648 0.96151 0.0
H1430 H 0.84185 0.362 0.93593 0.0
H1431 H 0.89533 0.3803 0.97382 0.0
C1432 C 0.93124 0.34642 0.91671 0.0
N1433 N 0.92076 0.34481 0.93852 0.0
C1434 C 0.95117 0.35377 0.91849 0.0
C1435 C 0.94901 0.35684 0.96532 0.0
C1436 C 0.92917 0.34962 0.96261 0.0
C1437 C 0.96036 0.35955 0.94298 0.0
H1438 H 0.9242 0.34272 0.89776 0.0
H1439 H 0.92075 0.34864 0.97964 0.0
C1440 C 0.83436 0.32615 0.90223 0.0
N1441 N 0.80632 0.31994 0.8656 0.0
C1442 C 0.8183 0.30769 0.899 0.0
C1443 C 0.83603 0.34149 0.88705 0.0
C1444 C 0.8043 0.30484 0.88033 0.0
C1445 C 0.82175 0.33805 0.86856 0.0
C1446 C 0.87862 0.29844 0.9075 0.0
C1447 C 0.8674 0.28525 0.88804 0.0
C1448 C 0.89079 0.29466 0.92302 0.0
C1449 C 0.86805 0.26819 0.885 0.0
C1450 C 0.89106 0.27745 0.91937 0.0
N1451 N 0.87975 0.26466 0.90063 0.0
C1452 C 0.88053 0.34885 0.84597 0.0
C1453 C 0.85275 0.31763 0.84804 0.0
C1454 C 0.8791 0.34902 0.8187 0.0
N1455 N 0.86743 0.33334 0.86002 0.0
C1456 C 0.85073 0.3172 0.8208 0.0
C1457 C 0.86399 0.33308 0.80579 0.0
H1458 H 0.89228 0.361 0.85591 0.0
H1459 H 0.84263 0.30539 0.85961 0.0
C1460 C 0.83566 0.29057 0.97729 0.0
N1461 N 0.84062 0.29052 0.95182 0.0
C1462 C 0.82089 0.27384 0.98876 0.0
C1463 C 0.81605 0.25733 0.94737 0.0
C1464 C 0.83117 0.27435 0.93679 0.0
C1465 C 0.81071 0.25696 0.9737 0.0
H1466 H 0.84283 0.30376 0.98861 0.0
H1467 H 0.83473 0.27487 0.9163 0.0
O1468 O 0.89267 0.35813 0.91101 0.0
O1469 O 0.87735 0.33476 0.96279 0.0
O1470 O 0.84833 0.32918 0.9202 0.0
O1471 O 0.87836 0.31535 0.91048 0.0
H1472 H 0.92448 0.38081 0.93801 0.0
H1473 H 0.88114 0.38004 0.88701 0.0
H1474 H 0.94002 0.4165 0.94059 0.0
H1475 H 0.89734 0.41576 0.89069 0.0
H1476 H 0.88844 0.29425 0.01308 0.0
H1477 H 0.88591 0.35465 0.00706 0.0
H1478 H 0.87909 0.30287 0.97104 0.0
H1479 H 0.89496 0.34505 0.0486 0.0
H1480 H 0.89323 0.40651 0.99626 0.0
H1481 H 0.83841 0.3877 0.9578 0.0
H1482 H 0.95942 0.35573 0.90076 0.0
H1483 H 0.95549 0.36079 0.98462 0.0
H1484 H 0.81667 0.29569 0.91071 0.0
H1485 H 0.84831 0.35587 0.88937 0.0
H1486 H 0.79184 0.29061 0.87754 0.0
H1487 H 0.82295 0.34976 0.85655 0.0
H1488 H 0.85815 0.28805 0.87554 0.0
H1489 H 0.90007 0.30494 0.9376 0.0
H1490 H 0.85928 0.25777 0.87019 0.0
H1491 H 0.90033 0.27431 0.93136 0.0
H1492 H 0.88993 0.36132 0.80781 0.0
H1493 H 0.83891 0.30462 0.81157 0.0
H1494 H 0.81721 0.27423 0.0091 0.0
H1495 H 0.80814 0.24489 0.93475 0.0
Li1496 Li 0.55826 0.8922 0.43429 0.0
Li1497 Li 0.5232 0.87063 0.43896 0.0
Li1498 Li 0.54662 0.85795 0.43969 0.0
Li1499 Li 0.5393 0.86867 0.39838 0.0
C1500 C 0.5528 0.88652 0.48629 0.0
N1501 N 0.57112 0.9092 0.52951 0.0
C1502 C 0.54396 0.89492 0.50059 0.0
C1503 C 0.57081 0.88941 0.49418 0.0
C1504 C 0.5535 0.90641 0.52233 0.0
C1505 C 0.57988 0.90099 0.51603 0.0
C1506 C 0.52679 0.8982 0.40074 0.0
C1507 C 0.50051 0.89423 0.37317 0.0
N1508 N 0.50568 0.91302 0.37754 0.0
C1509 C 0.53198 0.91752 0.40473 0.0
C1510 C 0.51104 0.8865 0.38466 0.0
C1511 C 0.52107 0.92472 0.39293 0.0
C1512 C 0.59581 0.92521 0.42981 0.0
N1513 N 0.57803 0.91806 0.44087 0.0
C1514 C 0.58632 0.94929 0.45728 0.0
C1515 C 0.57314 0.92961 0.45453 0.0
C1516 C 0.60458 0.95721 0.44544 0.0
C1517 C 0.60939 0.94492 0.43178 0.0
H1518 H 0.59915 0.91577 0.41857 0.0
H1519 H 0.55867 0.92369 0.46226 0.0
C1520 C 0.48585 0.85134 0.46195 0.0
N1521 N 0.50043 0.86873 0.4536 0.0
C1522 C 0.46921 0.84996 0.47311 0.0
C1523 C 0.48303 0.8844 0.46706 0.0
C1524 C 0.49944 0.88514 0.45628 0.0
C1525 C 0.46759 0.86663 0.47557 0.0
H1526 H 0.48723 0.83859 0.46014 0.0
H1527 H 0.51149 0.89888 0.45035 0.0
C1528 C 0.57878 0.8705 0.4091 0.0
N1529 N 0.6062 0.8595 0.40166 0.0
C1530 C 0.57818 0.86014 0.38669 0.0
C1531 C 0.59348 0.87551 0.42754 0.0
C1532 C 0.59214 0.85465 0.38332 0.0
C1533 C 0.60716 0.86973 0.42348 0.0
C1534 C 0.50645 0.83163 0.40944 0.0
C1535 C 0.50777 0.81504 0.40516 0.0
C1536 C 0.4898 0.83191 0.40164 0.0
C1537 C 0.49259 0.79915 0.39256 0.0
C1538 C 0.47494 0.81574 0.38911 0.0
N1539 N 0.47664 0.79984 0.38484 0.0
C1540 C 0.54876 0.83631 0.48171 0.0
C1541 C 0.55521 0.8273 0.44031 0.0
C1542 C 0.5503 0.82149 0.49395 0.0
N1543 N 0.55114 0.83887 0.45534 0.0
C1544 C 0.55707 0.81243 0.45175 0.0
C1545 C 0.55444 0.80926 0.4789 0.0
H1546 H 0.54507 0.84541 0.49314 0.0
H1547 H 0.55646 0.8292 0.41931 0.0
C1548 C 0.54392 0.88236 0.34714 0.0
N1549 N 0.5371 0.86575 0.36119 0.0
C1550 C 0.54316 0.8818 0.31982 0.0
C1551 C 0.52871 0.84704 0.32176 0.0
C1552 C 0.52976 0.84828 0.3491 0.0
C1553 C 0.53541 0.86397 0.3068 0.0
H1554 H 0.55001 0.89609 0.35721 0.0
H1555 H 0.52502 0.83534 0.36056 0.0
O1556 O 0.54378 0.87539 0.46481 0.0
O1557 O 0.5373 0.89092 0.41225 0.0
O1558 O 0.56523 0.87598 0.41272 0.0
O1559 O 0.52113 0.84727 0.4219 0.0
H1560 H 0.52995 0.89271 0.49484 0.0
H1561 H 0.5777 0.88277 0.48356 0.0
H1562 H 0.54689 0.91311 0.53348 0.0
H1563 H 0.59388 0.90343 0.52229 0.0
H1564 H 0.48827 0.88532 0.36071 0.0
H1565 H 0.54423 0.92683 0.41693 0.0
H1566 H 0.50713 0.87169 0.38082 0.0
H1567 H 0.52485 0.93961 0.39598 0.0
H1568 H 0.5819 0.95841 0.4673 0.0
H1569 H 0.62326 0.95061 0.42212 0.0
H1570 H 0.4579 0.83606 0.48013 0.0
H1571 H 0.48243 0.89762 0.46867 0.0
H1572 H 0.56697 0.85626 0.37214 0.0
H1573 H 0.59433 0.88378 0.44477 0.0
H1574 H 0.59178 0.84652 0.36616 0.0
H1575 H 0.61857 0.87343 0.43766 0.0
H1576 H 0.52043 0.81447 0.41128 0.0
H1577 H 0.48825 0.84438 0.40544 0.0
H1578 H 0.4935 0.78628 0.38894 0.0
H1579 H 0.46201 0.81579 0.3829 0.0
H1580 H 0.54756 0.8192 0.5148 0.0
H1581 H 0.56016 0.80326 0.43942 0.0
H1582 H 0.5485 0.89518 0.30897 0.0
H1583 H 0.5231 0.83307 0.31242 0.0
Li1584 Li 0.44569 0.33463 0.06872 0.0
Li1585 Li 0.48039 0.34646 0.06377 0.0
Li1586 Li 0.45631 0.312 0.06476 0.0
Li1587 Li 0.4631 0.32932 0.10525 0.0
C1588 C 0.45032 0.334 0.01777 0.0
N1589 N 0.43105 0.33959 0.97674 0.0
C1590 C 0.45899 0.35153 0.00412 0.0
C1591 C 0.432 0.31922 0.01031 0.0
C1592 C 0.44897 0.3541 0.98349 0.0
C1593 C 0.42245 0.32235 0.98958 0.0
C1594 C 0.47897 0.36914 0.10624 0.0
C1595 C 0.50899 0.38731 0.12977 0.0
N1596 N 0.50253 0.39884 0.13977 0.0
C1597 C 0.4726 0.38114 0.11675 0.0
C1598 C 0.4973 0.37221 0.11277 0.0
C1599 C 0.48474 0.3961 0.13366 0.0
C1600 C 0.40813 0.33076 0.06777 0.0
N1601 N 0.42709 0.34214 0.06135 0.0
C1602 C 0.42143 0.36729 0.04671 0.0
C1603 C 0.43391 0.3601 0.05108 0.0
C1604 C 0.40183 0.356 0.05343 0.0
C1605 C 0.39515 0.3375 0.06404 0.0
H1606 H 0.40319 0.31669 0.0764 0.0
H1607 H 0.44916 0.36901 0.04686 0.0
C1608 C 0.51811 0.36512 0.04041 0.0
N1609 N 0.50317 0.36726 0.049 0.0
C1610 C 0.53392 0.38043 0.02783 0.0
C1611 C 0.51891 0.39999 0.03404 0.0
C1612 C 0.50339 0.3843 0.04629 0.0
C1613 C 0.53426 0.39804 0.02412 0.0
H1614 H 0.51764 0.35147 0.04292 0.0
H1615 H 0.49129 0.38559 0.05327 0.0
C1616 C 0.42405 0.29241 0.09447 0.0
N1617 N 0.39718 0.25387 0.10243 0.0
C1618 C 0.42494 0.28293 0.11702 0.0
C1619 C 0.40936 0.28236 0.07614 0.0
C1620 C 0.41124 0.26342 0.12066 0.0
C1621 C 0.39596 0.26285 0.08046 0.0
C1622 C 0.4868 0.3117 0.08379 0.0
C1623 C 0.48278 0.29949 0.1054 0.0
C1624 C 0.49531 0.30896 0.06146 0.0
C1625 C 0.48739 0.28478 0.10432 0.0
C1626 C 0.49962 0.29403 0.06111 0.0
N1627 N 0.49563 0.28236 0.08238 0.0
C1628 C 0.45397 0.28802 0.02288 0.0
C1629 C 0.44623 0.27193 0.0639 0.0
C1630 C 0.45258 0.27176 0.01055 0.0
N1631 N 0.45093 0.28789 0.04914 0.0
C1632 C 0.44446 0.25528 0.05231 0.0
C1633 C 0.44786 0.25519 0.02537 0.0
H1634 H 0.45815 0.30099 0.01164 0.0
H1635 H 0.4447 0.27232 0.08483 0.0
C1636 C 0.44939 0.32705 0.15613 0.0
N1637 N 0.46508 0.32971 0.1423 0.0
C1638 C 0.44971 0.32707 0.18346 0.0
C1639 C 0.48253 0.33305 0.18185 0.0
C1640 C 0.48156 0.33287 0.15448 0.0
C1641 C 0.46643 0.33008 0.19665 0.0
H1642 H 0.43657 0.3248 0.14583 0.0
H1643 H 0.49389 0.33516 0.14294 0.0
O1644 O 0.45972 0.33133 0.03836 0.0
O1645 O 0.46714 0.35428 0.08995 0.0
O1646 O 0.43723 0.31154 0.09069 0.0
O1647 O 0.48208 0.32598 0.08433 0.0
H1648 H 0.47321 0.36307 0.0095 0.0
H1649 H 0.42523 0.30549 0.02044 0.0
H1650 H 0.45544 0.36764 0.97288 0.0
H1651 H 0.40821 0.31107 0.9837 0.0
H1652 H 0.5232 0.38984 0.13505 0.0
H1653 H 0.45842 0.37889 0.1119 0.0
H1654 H 0.50241 0.36297 0.10493 0.0
H1655 H 0.48001 0.40551 0.14196 0.0
H1656 H 0.42719 0.38181 0.03909 0.0
H1657 H 0.38015 0.3285 0.06968 0.0
H1658 H 0.54551 0.37838 0.02055 0.0
H1659 H 0.51885 0.41347 0.03224 0.0
H1660 H 0.43624 0.29043 0.13139 0.0
H1661 H 0.4083 0.28952 0.05877 0.0
H1662 H 0.41184 0.25587 0.13792 0.0
H1663 H 0.38458 0.25487 0.06636 0.0
H1664 H 0.47587 0.30114 0.12266 0.0
H1665 H 0.49809 0.31794 0.04432 0.0
H1666 H 0.48428 0.27518 0.12086 0.0
H1667 H 0.50603 0.29163 0.04386 0.0
H1668 H 0.45545 0.27221 0.98972 0.0
H1669 H 0.44125 0.2429 0.06446 0.0
H1670 H 0.43707 0.32489 0.1942 0.0
H1671 H 0.4956 0.33519 0.19131 0.0
Li1672 Li 0.14417 0.45887 0.56008 0.0
Li1673 Li 0.1336 0.46609 0.59971 0.0
Li1674 Li 0.1088 0.44607 0.56745 0.0
Li1675 Li 0.13194 0.48146 0.5608 0.0
C1676 C 0.13141 0.43214 0.60719 0.0
N1677 N 0.14072 0.41773 0.65065 0.0
C1678 C 0.14983 0.43426 0.60955 0.0
C1679 C 0.11772 0.42263 0.62693 0.0
C1680 C 0.15424 0.42684 0.63164 0.0
C1681 C 0.12272 0.4155 0.64877 0.0
C1682 C 0.16986 0.49473 0.59484 0.0
C1683 C 0.18386 0.51915 0.62851 0.0
N1684 N 0.19878 0.51562 0.63087 0.0
C1685 C 0.18536 0.49136 0.59758 0.0
C1686 C 0.16912 0.50877 0.61037 0.0
C1687 C 0.19984 0.50208 0.6159 0.0
C1688 C 0.17864 0.47004 0.53352 0.0
N1689 N 0.16261 0.45421 0.54288 0.0
C1690 C 0.17472 0.43364 0.52906 0.0
C1691 C 0.16018 0.43616 0.54043 0.0
C1692 C 0.19181 0.44988 0.52038 0.0
C1693 C 0.19353 0.46821 0.52222 0.0
H1694 H 0.17999 0.48416 0.53535 0.0
H1695 H 0.14715 0.4238 0.54778 0.0
C1696 C 0.12269 0.46928 0.65101 0.0
N1697 N 0.137 0.46884 0.63709 0.0
C1698 C 0.12342 0.47005 0.67834 0.0
C1699 C 0.15367 0.47007 0.67665 0.0
C1700 C 0.15234 0.46926 0.64936 0.0
C1701 C 0.13895 0.47023 0.69148 0.0
H1702 H 0.11048 0.46861 0.64091 0.0
H1703 H 0.16341 0.46861 0.63808 0.0
C1704 C 0.12989 0.45582 0.51275 0.0
N1705 N 0.1425 0.44797 0.46642 0.0
C1706 C 0.14273 0.47096 0.49662 0.0
C1707 C 0.12339 0.43669 0.50534 0.0
C1708 C 0.14895 0.46669 0.47325 0.0
C1709 C 0.12995 0.43302 0.48184 0.0
C1710 C 0.10256 0.47911 0.58696 0.0
C1711 C 0.08572 0.47282 0.57217 0.0
C1712 C 0.11061 0.49683 0.60009 0.0
C1713 C 0.07733 0.48451 0.57051 0.0
C1714 C 0.1018 0.50812 0.5979 0.0
N1715 N 0.08549 0.50178 0.58326 0.0
C1716 C 0.07193 0.41755 0.58367 0.0
C1717 C 0.07487 0.42255 0.53769 0.0
C1718 C 0.05215 0.40454 0.58125 0.0
N1719 N 0.0828 0.42625 0.56209 0.0
C1720 C 0.05507 0.40975 0.53439 0.0
C1721 C 0.04347 0.40067 0.5564 0.0
H1722 H 0.07846 0.42133 0.60288 0.0
H1723 H 0.08375 0.43009 0.52094 0.0
C1724 C 0.14853 0.5218 0.55093 0.0
N1725 N 0.13379 0.50386 0.54484 0.0
C1726 C 0.1494 0.53817 0.53966 0.0
C1727 C 0.12015 0.51724 0.51564 0.0
C1728 C 0.11987 0.5013 0.52732 0.0
C1729 C 0.13496 0.53598 0.52197 0.0
H1730 H 0.15964 0.52343 0.56447 0.0
H1731 H 0.10844 0.48683 0.52264 0.0
O1732 O 0.12692 0.43956 0.58587 0.0
O1733 O 0.1556 0.48447 0.57687 0.0
O1734 O 0.12414 0.45972 0.53608 0.0
O1735 O 0.11132 0.46815 0.58825 0.0
H1736 H 0.16075 0.44187 0.59478 0.0
H1737 H 0.10348 0.42099 0.6256 0.0
H1738 H 0.16846 0.42848 0.63377 0.0
H1739 H 0.11231 0.40825 0.66428 0.0
H1740 H 0.1834 0.52998 0.64075 0.0
H1741 H 0.18611 0.48042 0.586 0.0
H1742 H 0.1572 0.5115 0.60865 0.0
H1743 H 0.21186 0.49956 0.6183 0.0
H1744 H 0.17289 0.41928 0.52774 0.0
H1745 H 0.20634 0.481 0.5152 0.0
H1746 H 0.11171 0.47002 0.68912 0.0
H1747 H 0.16603 0.47047 0.68604 0.0
H1748 H 0.14797 0.48585 0.50222 0.0
H1749 H 0.1136 0.42482 0.51781 0.0
H1750 H 0.15896 0.47826 0.4606 0.0
H1751 H 0.12515 0.41829 0.47591 0.0
H1752 H 0.07933 0.45919 0.56181 0.0
H1753 H 0.12358 0.50186 0.61171 0.0
H1754 H 0.06436 0.47988 0.559 0.0
H1755 H 0.10795 0.52192 0.6078 0.0
H1756 H 0.04359 0.39827 0.59876 0.0
H1757 H 0.04882 0.40726 0.51494 0.0
H1758 H 0.16132 0.55235 0.54455 0.0
H1759 H 0.10876 0.51496 0.50208 0.0
Li1760 Li 0.68724 0.1439 0.06162 0.0
Li1761 Li 0.66988 0.13408 0.10162 0.0
Li1762 Li 0.66495 0.10865 0.07041 0.0
Li1763 Li 0.65235 0.13135 0.06276 0.0
C1764 C 0.70078 0.13074 0.10994 0.0
N1765 N 0.72286 0.13795 0.1547 0.0
C1766 C 0.71693 0.14901 0.11411 0.0
C1767 C 0.69592 0.11612 0.12846 0.0
C1768 C 0.72792 0.15236 0.13686 0.0
C1769 C 0.70723 0.12007 0.15101 0.0
C1770 C 0.67759 0.17038 0.09473 0.0
C1771 C 0.6683 0.18577 0.12781 0.0
N1772 N 0.68678 0.20082 0.12856 0.0
C1773 C 0.69649 0.18603 0.09576 0.0
C1774 C 0.66334 0.17028 0.11079 0.0
C1775 C 0.70085 0.20127 0.11301 0.0
C1776 C 0.70866 0.17595 0.02996 0.0
N1777 N 0.70999 0.16211 0.04375 0.0
C1778 C 0.74341 0.17612 0.03261 0.0
C1779 C 0.72679 0.16169 0.04494 0.0
C1780 C 0.74254 0.19083 0.01857 0.0
C1781 C 0.72478 0.19043 0.01705 0.0
H1782 H 0.69506 0.17584 0.02932 0.0
H1783 H 0.72737 0.15041 0.05592 0.0
C1784 C 0.65675 0.12392 0.15339 0.0
N1785 N 0.67093 0.13832 0.13889 0.0
C1786 C 0.65692 0.12523 0.18068 0.0
C1787 C 0.68628 0.15619 0.17779 0.0
C1788 C 0.68558 0.15425 0.15055 0.0
C1789 C 0.6718 0.14156 0.1932 0.0
H1790 H 0.6455 0.11118 0.14378 0.0
H1791 H 0.69696 0.16535 0.13884 0.0
C1792 C 0.67501 0.12891 0.01447 0.0
N1793 N 0.69361 0.14134 0.96681 0.0
C1794 C 0.67024 0.13967 0.99756 0.0
C1795 C 0.68917 0.12441 0.00714 0.0
C1796 C 0.67982 0.14582 0.97353 0.0
C1797 C 0.69843 0.13086 0.98296 0.0
C1798 C 0.62577 0.10266 0.09006 0.0
C1799 C 0.61513 0.0857 0.07555 0.0
C1800 C 0.6162 0.11081 0.10318 0.0
C1801 C 0.59503 0.07724 0.07422 0.0
C1802 C 0.59609 0.10194 0.10134 0.0
N1803 N 0.58601 0.08548 0.08701 0.0
C1804 C 0.65362 0.07146 0.08813 0.0
C1805 C 0.65823 0.07506 0.04211 0.0
C1806 C 0.64707 0.05171 0.08627 0.0
N1807 N 0.659 0.08265 0.06624 0.0
C1808 C 0.65167 0.05531 0.03932 0.0
C1809 C 0.6459 0.04338 0.06161 0.0
H1810 H 0.6537 0.07776 0.10692 0.0
H1811 H 0.6621 0.0842 0.02495 0.0
C1812 C 0.62881 0.14796 0.05195 0.0
N1813 N 0.63176 0.13295 0.04656 0.0
C1814 C 0.61395 0.1493 0.03949 0.0
C1815 C 0.60552 0.11977 0.0161 0.0
C1816 C 0.62053 0.119 0.02901 0.0
C1817 C 0.6022 0.13517 0.02114 0.0
H1818 H 0.63811 0.159 0.06569 0.0
H1819 H 0.62332 0.10731 0.02499 0.0
O1820 O 0.68969 0.12725 0.08795 0.0
O1821 O 0.67301 0.1554 0.07782 0.0
O1822 O 0.6662 0.12322 0.03837 0.0
O1823 O 0.64549 0.11144 0.09108 0.0
H1824 H 0.72073 0.1606 0.10023 0.0
H1825 H 0.68346 0.10193 0.12559 0.0
H1826 H 0.74037 0.16646 0.14042 0.0
H1827 H 0.70356 0.10892 0.16558 0.0
H1828 H 0.65745 0.18582 0.14047 0.0
H1829 H 0.70772 0.18634 0.08358 0.0
H1830 H 0.64867 0.15826 0.11034 0.0
H1831 H 0.71542 0.21342 0.11409 0.0
H1832 H 0.75688 0.17607 0.03474 0.0
H1833 H 0.72342 0.20137 0.00624 0.0
H1834 H 0.64579 0.11335 0.19187 0.0
H1835 H 0.69808 0.16896 0.18672 0.0
H1836 H 0.65943 0.1434 0.00305 0.0
H1837 H 0.69318 0.11629 0.02017 0.0
H1838 H 0.67634 0.15422 0.96028 0.0
H1839 H 0.70952 0.12761 0.9771 0.0
H1840 H 0.62232 0.07926 0.06514 0.0
H1841 H 0.62424 0.12392 0.11452 0.0
H1842 H 0.58662 0.06417 0.06294 0.0
H1843 H 0.58849 0.10814 0.11127 0.0
H1844 H 0.64219 0.0429 0.10382 0.0
H1845 H 0.65078 0.04935 0.01995 0.0
H1846 H 0.61187 0.16142 0.04379 0.0
H1847 H 0.59655 0.1084 0.00244 0.0
Li1848 Li 0.53096 0.66539 0.60801 0.0
Li1849 Li 0.53858 0.68371 0.56789 0.0
Li1850 Li 0.51594 0.64864 0.56815 0.0
Li1851 Li 0.55032 0.66062 0.57396 0.0
C1852 C 0.50034 0.67082 0.60164 0.0
N1853 N 0.47514 0.67401 0.6357 0.0
C1854 C 0.50014 0.6882 0.60348 0.0
C1855 C 0.48761 0.65503 0.61697 0.0
C1856 C 0.48732 0.68952 0.62085 0.0
C1857 C 0.47502 0.65694 0.63412 0.0
C1858 C 0.56553 0.70059 0.61007 0.0
C1859 C 0.59164 0.72282 0.63795 0.0
N1860 N 0.58217 0.73277 0.64218 0.0
C1861 C 0.55609 0.71106 0.61467 0.0
C1862 C 0.58346 0.70651 0.62177 0.0
C1863 C 0.56472 0.72728 0.63097 0.0
C1864 C 0.53263 0.65355 0.65875 0.0
N1865 N 0.52881 0.66597 0.64536 0.0
C1866 C 0.52379 0.67832 0.68553 0.0
C1867 C 0.52468 0.67843 0.65817 0.0
C1868 C 0.52745 0.66546 0.69985 0.0
C1869 C 0.53211 0.65309 0.68609 0.0
H1870 H 0.53639 0.64415 0.64816 0.0
H1871 H 0.5222 0.68857 0.64727 0.0
C1872 C 0.52835 0.70765 0.54114 0.0
N1873 N 0.54378 0.70723 0.55159 0.0
C1874 C 0.53076 0.72441 0.52917 0.0
C1875 C 0.56504 0.73986 0.53819 0.0
C1876 C 0.56193 0.7228 0.55021 0.0
C1877 C 0.54927 0.74085 0.5277 0.0
H1878 H 0.51412 0.69496 0.54233 0.0
H1879 H 0.57399 0.72198 0.55842 0.0
C1880 C 0.51765 0.62142 0.59568 0.0
N1881 N 0.49458 0.58163 0.59561 0.0
C1882 C 0.5216 0.61022 0.57847 0.0
C1883 C 0.50217 0.61237 0.61316 0.0
C1884 C 0.50971 0.59012 0.57863 0.0
C1885 C 0.49062 0.59224 0.61275 0.0
C1886 C 0.55003 0.67273 0.52276 0.0
C1887 C 0.54385 0.66844 0.49676 0.0
C1888 C 0.5693 0.68641 0.52818 0.0
C1889 C 0.55706 0.67795 0.47654 0.0
C1890 C 0.58206 0.6956 0.50743 0.0
N1891 N 0.57574 0.69122 0.48225 0.0
C1892 C 0.47545 0.62362 0.55789 0.0
C1893 C 0.49729 0.61807 0.53301 0.0
C1894 C 0.45967 0.6081 0.54562 0.0
N1895 N 0.49379 0.62811 0.55164 0.0
C1896 C 0.48198 0.60237 0.52043 0.0
C1897 C 0.46289 0.59713 0.5269 0.0
H1898 H 0.47303 0.63204 0.57236 0.0
H1899 H 0.51204 0.6222 0.5281 0.0
C1900 C 0.58225 0.65748 0.58913 0.0
N1901 N 0.57013 0.65443 0.56872 0.0
C1902 C 0.59526 0.65063 0.58806 0.0
C1903 C 0.58345 0.63815 0.54464 0.0
C1904 C 0.5707 0.6453 0.54651 0.0
C1905 C 0.59554 0.64033 0.56591 0.0
H1906 H 0.58125 0.66455 0.60666 0.0
H1907 H 0.56063 0.64277 0.53076 0.0
O1908 O 0.51286 0.66926 0.58481 0.0
O1909 O 0.55729 0.68458 0.59432 0.0
O1910 O 0.52886 0.64115 0.59537 0.0
O1911 O 0.53718 0.66359 0.5427 0.0
H1912 H 0.50984 0.70058 0.59175 0.0
H1913 H 0.48755 0.6415 0.61579 0.0
H1914 H 0.48708 0.70291 0.62254 0.0
H1915 H 0.46517 0.64485 0.64619 0.0
H1916 H 0.6055 0.72756 0.64715 0.0
H1917 H 0.5422 0.70666 0.60583 0.0
H1918 H 0.591 0.6986 0.61837 0.0
H1919 H 0.55753 0.73548 0.63472 0.0
H1920 H 0.52028 0.68819 0.69537 0.0
H1921 H 0.53572 0.64343 0.69632 0.0
H1922 H 0.51822 0.72458 0.52139 0.0
H1923 H 0.57961 0.75204 0.53689 0.0
H1924 H 0.53353 0.61697 0.56484 0.0
H1925 H 0.49913 0.62078 0.62697 0.0
H1926 H 0.51248 0.58129 0.56522 0.0
H1927 H 0.47853 0.58505 0.62609 0.0
H1928 H 0.52897 0.65788 0.49226 0.0
H1929 H 0.57437 0.68992 0.54818 0.0
H1930 H 0.55248 0.67478 0.45631 0.0
H1931 H 0.597 0.70623 0.51134 0.0
H1932 H 0.44512 0.60451 0.55097 0.0
H1933 H 0.48501 0.59448 0.5057 0.0
H1934 H 0.60458 0.65285 0.6047 0.0
H1935 H 0.58318 0.63018 0.52731 0.0
Li1936 Li 0.85613 0.54295 0.06518 0.0
Li1937 Li 0.86691 0.53703 0.10555 0.0
Li1938 Li 0.88951 0.5538 0.06937 0.0
Li1939 Li 0.86599 0.51832 0.06542 0.0
C1940 C 0.86964 0.57641 0.09233 0.0
N1941 N 0.85935 0.60461 0.09629 0.0
C1942 C 0.86043 0.57771 0.11491 0.0
C1943 C 0.87378 0.58956 0.07187 0.0
C1944 C 0.85532 0.59205 0.11651 0.0
C1945 C 0.86839 0.60366 0.0742 0.0
C1946 C 0.82547 0.51358 0.08658 0.0
C1947 C 0.79378 0.49972 0.06704 0.0
N1948 N 0.78774 0.50613 0.08768 0.0
C1949 C 0.81895 0.52004 0.1076 0.0
C1950 C 0.81278 0.50329 0.06616 0.0
C1951 C 0.79981 0.5161 0.10781 0.0
C1952 C 0.83386 0.54362 0.02299 0.0
N1953 N 0.83741 0.54801 0.04888 0.0
C1954 C 0.81242 0.5562 0.0508 0.0
C1955 C 0.82696 0.55413 0.06287 0.0
C1956 C 0.80828 0.55156 0.02416 0.0
C1957 C 0.81923 0.54518 0.01021 0.0
H1958 H 0.84199 0.53828 0.01243 0.0
H1959 H 0.82943 0.55684 0.0836 0.0
C1960 C 0.8778 0.55174 0.15642 0.0
N1961 N 0.86532 0.5357 0.14271 0.0
C1962 C 0.87775 0.55144 0.18375 0.0
C1963 C 0.85205 0.51805 0.18237 0.0
C1964 C 0.85262 0.519 0.15501 0.0
C1965 C 0.86479 0.53442 0.19705 0.0
H1966 H 0.88791 0.56473 0.14604 0.0
H1967 H 0.84299 0.50641 0.14353 0.0
C1968 C 0.88441 0.54657 0.01865 0.0
N1969 N 0.91015 0.56243 0.97751 0.0
C1970 C 0.89321 0.53672 0.00813 0.0
C1971 C 0.8885 0.56436 0.00806 0.0
C1972 C 0.90623 0.54501 0.98737 0.0
C1973 C 0.90161 0.57218 0.98732 0.0
C1974 C 0.89531 0.52948 0.11267 0.0
C1975 C 0.91155 0.54502 0.12411 0.0
C1976 C 0.88663 0.51132 0.12468 0.0
C1977 C 0.91881 0.54214 0.14755 0.0
C1978 C 0.89431 0.50904 0.14813 0.0
N1979 N 0.9101 0.52436 0.15899 0.0
C1980 C 0.92269 0.5915 0.06615 0.0
C1981 C 0.92715 0.56541 0.05347 0.0
C1982 C 0.94239 0.6046 0.06265 0.0
N1983 N 0.91557 0.57233 0.06167 0.0
C1984 C 0.94685 0.57798 0.04954 0.0
C1985 C 0.95472 0.59778 0.05459 0.0
H1986 H 0.91322 0.59656 0.07313 0.0
H1987 H 0.92114 0.55003 0.05068 0.0
C1988 C 0.84828 0.48316 0.03623 0.0
N1989 N 0.86342 0.495 0.05188 0.0
C1990 C 0.84735 0.4667 0.02512 0.0
C1991 C 0.87764 0.47507 0.04629 0.0
C1992 C 0.87798 0.49133 0.05697 0.0
C1993 C 0.86215 0.46249 0.03018 0.0
H1994 H 0.83714 0.48667 0.032 0.0
H1995 H 0.89012 0.50128 0.06886 0.0
O1996 O 0.87492 0.56258 0.09051 0.0
O1997 O 0.84427 0.51767 0.08577 0.0
O1998 O 0.87193 0.5389 0.0393 0.0
O1999 O 0.88757 0.53217 0.09025 0.0
H2000 H 0.85704 0.56762 0.1309 0.0
H2001 H 0.88097 0.58881 0.05433 0.0
H2002 H 0.84808 0.59316 0.1338 0.0
H2003 H 0.87141 0.61387 0.05846 0.0
H2004 H 0.78385 0.49191 0.05126 0.0
H2005 H 0.82862 0.5283 0.12337 0.0
H2006 H 0.81763 0.49839 0.0496 0.0
H2007 H 0.79461 0.5211 0.12388 0.0
H2008 H 0.80428 0.56106 0.06235 0.0
H2009 H 0.81611 0.54078 0.98989 0.0
H2010 H 0.88789 0.5643 0.19439 0.0
H2011 H 0.84167 0.50475 0.19192 0.0
H2012 H 0.89018 0.52292 0.01607 0.0
H2013 H 0.88165 0.57206 0.01582 0.0
H2014 H 0.91326 0.53762 0.97914 0.0
H2015 H 0.905 0.58599 0.97901 0.0
H2016 H 0.91833 0.5592 0.11512 0.0
H2017 H 0.87392 0.4992 0.11617 0.0
H2018 H 0.93132 0.55405 0.15671 0.0
H2019 H 0.88766 0.4951 0.15776 0.0
H2020 H 0.94798 0.61981 0.06663 0.0
H2021 H 0.95598 0.57218 0.04362 0.0
H2022 H 0.83523 0.4574 0.01265 0.0
H2023 H 0.88961 0.47265 0.05006 0.0
Li2024 Li 0.33139 0.86692 0.59835 0.0
Li2025 Li 0.31384 0.85602 0.5586 0.0
Li2026 Li 0.34891 0.86904 0.55947 0.0
Li2027 Li 0.33567 0.89146 0.56586 0.0
C2028 C 0.32485 0.83056 0.59244 0.0
N2029 N 0.31754 0.80068 0.62635 0.0
C2030 C 0.30615 0.8147 0.59468 0.0
C2031 C 0.33986 0.83114 0.60725 0.0
C2032 C 0.30275 0.79975 0.61197 0.0
C2033 C 0.33586 0.81593 0.62436 0.0
C2034 C 0.29966 0.86852 0.606 0.0
C2035 C 0.29169 0.87767 0.6472 0.0
N2036 N 0.277 0.85919 0.65053 0.0
C2037 C 0.28448 0.84962 0.60983 0.0
C2038 C 0.30327 0.88268 0.62479 0.0
C2039 C 0.27317 0.84521 0.63245 0.0
C2040 C 0.34426 0.87929 0.64954 0.0
N2041 N 0.33085 0.86376 0.63576 0.0
C2042 C 0.31677 0.84657 0.67555 0.0
C2043 C 0.31722 0.84757 0.64822 0.0
C2044 C 0.33029 0.86249 0.69023 0.0
C2045 C 0.34428 0.87895 0.67688 0.0
H2046 H 0.35471 0.89215 0.63929 0.0
H2047 H 0.30639 0.83557 0.63707 0.0
C2048 C 0.29163 0.82238 0.5295 0.0
N2049 N 0.29096 0.83726 0.54142 0.0
C2050 C 0.27528 0.80781 0.51704 0.0
C2051 C 0.25782 0.82414 0.52929 0.0
C2052 C 0.27461 0.83856 0.54129 0.0
C2053 C 0.25809 0.80855 0.51699 0.0
H2054 H 0.30486 0.82177 0.52996 0.0
H2055 H 0.27457 0.85066 0.55078 0.0
C2056 C 0.37513 0.89896 0.58785 0.0
N2057 N 0.41505 0.91789 0.5894 0.0
C2058 C 0.38598 0.91682 0.57536 0.0
C2059 C 0.38456 0.89084 0.60139 0.0
C2060 C 0.40616 0.92614 0.57631 0.0
C2061 C 0.40476 0.9006 0.60186 0.0
C2062 C 0.32573 0.86961 0.51088 0.0
C2063 C 0.3299 0.85758 0.49569 0.0
C2064 C 0.31205 0.87438 0.50212 0.0
C2065 C 0.32017 0.85038 0.47196 0.0
C2066 C 0.30262 0.86687 0.47829 0.0
N2067 N 0.30683 0.85512 0.46384 0.0
C2068 C 0.37081 0.85114 0.54639 0.0
C2069 C 0.38339 0.88315 0.5306 0.0
C2070 C 0.38622 0.85006 0.53522 0.0
N2071 N 0.36981 0.86758 0.5441 0.0
C2072 C 0.39918 0.88281 0.51946 0.0
C2073 C 0.40067 0.8661 0.52171 0.0
H2074 H 0.35964 0.83885 0.55683 0.0
H2075 H 0.38195 0.89585 0.52853 0.0
C2076 C 0.3443 0.92859 0.58138 0.0
N2077 N 0.34152 0.91728 0.56007 0.0
C2078 C 0.35138 0.94838 0.57837 0.0
C2079 C 0.35248 0.9445 0.53149 0.0
C2080 C 0.34522 0.92472 0.53539 0.0
C2081 C 0.35596 0.95661 0.55323 0.0
H2082 H 0.34189 0.9224 0.60079 0.0
H2083 H 0.34328 0.91545 0.51885 0.0
O2084 O 0.32849 0.84525 0.57546 0.0
O2085 O 0.31116 0.87302 0.58424 0.0
O2086 O 0.35537 0.88947 0.58685 0.0
O2087 O 0.3346 0.87625 0.53456 0.0
H2088 H 0.29435 0.81401 0.58343 0.0
H2089 H 0.35442 0.84324 0.60561 0.0
H2090 H 0.28834 0.78744 0.61402 0.0
H2091 H 0.34732 0.81623 0.63604 0.0
H2092 H 0.29441 0.88845 0.66198 0.0
H2093 H 0.28167 0.83838 0.59578 0.0
H2094 H 0.31501 0.89733 0.62226 0.0
H2095 H 0.26146 0.83062 0.63573 0.0
H2096 H 0.3059 0.83349 0.68508 0.0
H2097 H 0.35484 0.89161 0.68749 0.0
H2098 H 0.27593 0.79585 0.50807 0.0
H2099 H 0.24478 0.82515 0.52957 0.0
H2100 H 0.37893 0.92333 0.56479 0.0
H2101 H 0.37637 0.87713 0.61137 0.0
H2102 H 0.41474 0.9399 0.56659 0.0
H2103 H 0.41226 0.89443 0.61214 0.0
H2104 H 0.34037 0.85367 0.50232 0.0
H2105 H 0.30858 0.88356 0.51379 0.0
H2106 H 0.32315 0.84097 0.46006 0.0
H2107 H 0.2919 0.87032 0.47133 0.0
H2108 H 0.38698 0.83696 0.53737 0.0
H2109 H 0.41 0.89538 0.50895 0.0
H2110 H 0.35415 0.95732 0.59561 0.0
H2111 H 0.35581 0.95037 0.51181 0.0
C2112 C 0.34642 0.47319 0.23159 0.0
C2113 C 0.32931 0.46211 0.21724 0.0
C2114 C 0.34626 0.47327 0.25908 0.0
C2115 C 0.32896 0.46235 0.27319 0.0
H2116 H 0.36009 0.48158 0.22149 0.0
H2117 H 0.35985 0.48167 0.26935 0.0
S2118 S 0.27999 0.43244 0.24459 0.0
N2119 N 0.2945 0.44086 0.21894 0.0
N2120 N 0.29408 0.44123 0.2706 0.0
C2121 C 0.31168 0.45158 0.25899 0.0
C2122 C 0.31189 0.45141 0.23102 0.0
C2123 C 0.8599 0.31626 0.73514 0.0
C2124 C 0.86215 0.33229 0.72075 0.0
C2125 C 0.86012 0.31648 0.76264 0.0
C2126 C 0.86255 0.33271 0.77674 0.0
H2127 H 0.85853 0.30369 0.72507 0.0
H2128 H 0.85892 0.30405 0.77292 0.0
S2129 S 0.86664 0.37737 0.74823 0.0
N2130 N 0.8653 0.36416 0.72254 0.0
N2131 N 0.86556 0.36452 0.77421 0.0
C2132 C 0.8641 0.34853 0.76255 0.0
C2133 C 0.86393 0.34833 0.73458 0.0
C2134 C 0.55153 0.87588 0.26335 0.0
C2135 C 0.53489 0.86326 0.27772 0.0
C2136 C 0.55133 0.87607 0.23591 0.0
C2137 C 0.53449 0.86365 0.22174 0.0
H2138 H 0.56484 0.88568 0.27341 0.0
H2139 H 0.5645 0.88602 0.22568 0.0
S2140 S 0.48688 0.8284 0.25006 0.0
N2141 N 0.50099 0.83832 0.2758 0.0
N2142 N 0.50062 0.83869 0.22411 0.0
C2143 C 0.51778 0.85087 0.23583 0.0
C2144 C 0.51798 0.85067 0.26384 0.0
C2145 C 0.68577 0.54122 0.76104 0.0
C2146 C 0.66922 0.5278 0.77499 0.0
C2147 C 0.68607 0.54135 0.73353 0.0
C2148 C 0.6698 0.52813 0.71904 0.0
H2149 H 0.69834 0.55215 0.77143 0.0
H2150 H 0.69884 0.55233 0.72354 0.0
S2151 S 0.62392 0.48846 0.74601 0.0
N2152 N 0.63693 0.4997 0.77212 0.0
N2153 N 0.63742 0.50019 0.72047 0.0
C2154 C 0.6535 0.51413 0.73269 0.0
C2155 C 0.65323 0.51391 0.76064 0.0
C2156 C 0.11996 0.6573 0.25959 0.0
C2157 C 0.13577 0.67151 0.27386 0.0
C2158 C 0.11987 0.65746 0.23214 0.0
C2159 C 0.13558 0.67184 0.2179 0.0
H2160 H 0.10752 0.64598 0.26973 0.0
H2161 H 0.10736 0.64624 0.22198 0.0
S2162 S 0.18024 0.71263 0.24595 0.0
N2163 N 0.16744 0.7005 0.27177 0.0
N2164 N 0.16726 0.70081 0.22008 0.0
C2165 C 0.15159 0.68601 0.23189 0.0
C2166 C 0.15168 0.68584 0.25989 0.0
C2167 C 0.4722 0.15073 0.76274 0.0
C2168 C 0.46543 0.13359 0.77731 0.0
C2169 C 0.47267 0.15048 0.73525 0.0
C2170 C 0.46672 0.13313 0.72147 0.0
H2171 H 0.47685 0.16436 0.77267 0.0
H2172 H 0.47782 0.16395 0.7247 0.0
S2173 S 0.44828 0.08445 0.75062 0.0
N2174 N 0.45305 0.09892 0.77608 0.0
N2175 N 0.45389 0.09842 0.72445 0.0
C2176 C 0.46016 0.11595 0.73587 0.0
C2177 C 0.45951 0.11618 0.76378 0.0
C2178 C 0.53653 0.68314 0.74281 0.0
C2179 C 0.52724 0.6655 0.72901 0.0
C2180 C 0.53745 0.68354 0.77028 0.0
C2181 C 0.52925 0.66633 0.7849 0.0
H2182 H 0.5436 0.69675 0.7323 0.0
H2183 H 0.5451 0.6974 0.78012 0.0
S2184 S 0.5015 0.61647 0.75863 0.0
N2185 N 0.50821 0.63042 0.73236 0.0
N2186 N 0.51041 0.63126 0.78394 0.0
C2187 C 0.51948 0.64863 0.77149 0.0
C2188 C 0.51836 0.64819 0.74357 0.0
C2189 C 0.86439 0.54911 0.26774 0.0
C2190 C 0.86497 0.53436 0.28208 0.0
C2191 C 0.86417 0.5489 0.24028 0.0
C2192 C 0.86455 0.53396 0.22613 0.0
H2193 H 0.86402 0.56085 0.27784 0.0
H2194 H 0.86359 0.56049 0.23003 0.0
S2195 S 0.86743 0.49268 0.25446 0.0
N2196 N 0.8667 0.50484 0.2802 0.0
N2197 N 0.86637 0.50449 0.22851 0.0
C2198 C 0.86522 0.51918 0.24024 0.0
C2199 C 0.86541 0.51937 0.26822 0.0
C2200 C 0.34694 0.8686 0.73369 0.0
C2201 C 0.32974 0.86221 0.71933 0.0
C2202 C 0.34696 0.86919 0.76114 0.0
C2203 C 0.32978 0.86332 0.77526 0.0
H2204 H 0.3605 0.87318 0.72362 0.0
H2205 H 0.36053 0.87425 0.77143 0.0
S2206 S 0.28111 0.84644 0.74706 0.0
N2207 N 0.29521 0.85064 0.72131 0.0
N2208 N 0.29525 0.85149 0.77297 0.0
C2209 C 0.31248 0.85684 0.76121 0.0
C2210 C 0.31246 0.85634 0.73324 0.0
C2211 C 0.45102 0.31419 0.26691 0.0
C2212 C 0.46602 0.32894 0.28168 0.0
C2213 C 0.45141 0.31459 0.23946 0.0
C2214 C 0.46679 0.32977 0.22573 0.0
H2215 H 0.4389 0.30221 0.27668 0.0
H2216 H 0.43957 0.30288 0.22888 0.0
S2217 S 0.50902 0.37247 0.25522 0.0
N2218 N 0.49634 0.35949 0.28061 0.0
N2219 N 0.49706 0.36026 0.22894 0.0
C2220 C 0.48188 0.34462 0.24024 0.0
C2221 C 0.4815 0.3442 0.26823 0.0
C2222 C 0.1361 0.48332 0.73481 0.0
C2223 C 0.13953 0.47025 0.72054 0.0
C2224 C 0.13594 0.48318 0.76228 0.0
C2225 C 0.13924 0.47 0.77647 0.0
H2226 H 0.13356 0.49376 0.72465 0.0
H2227 H 0.13325 0.4935 0.77251 0.0
S2228 S 0.14766 0.43198 0.74843 0.0
N2229 N 0.14547 0.44322 0.72263 0.0
N2230 N 0.14529 0.44307 0.77429 0.0
C2231 C 0.14267 0.45685 0.76247 0.0
C2232 C 0.14278 0.45694 0.7345 0.0
C2233 C 0.69119 0.1478 0.26266 0.0
C2234 C 0.67495 0.14351 0.27816 0.0
C2235 C 0.69014 0.14756 0.23523 0.0
C2236 C 0.67278 0.14287 0.22225 0.0
H2237 H 0.70478 0.15123 0.27183 0.0
H2238 H 0.70291 0.15058 0.22409 0.0
S2239 S 0.62623 0.13089 0.25382 0.0
N2240 N 0.64101 0.13454 0.27856 0.0
N2241 N 0.63917 0.1345 0.22698 0.0
C2242 C 0.65652 0.13887 0.23752 0.0
C2243 C 0.65759 0.13913 0.26546 0.0
C2244 C 0.2255 0.4515 0.9714 0.0
C2245 C 0.20768 0.44402 0.98453 0.0
C2246 C 0.24099 0.4505 0.98256 0.0
C2247 C 0.23931 0.4421 0.00737 0.0
H2248 H 0.22755 0.45843 0.95247 0.0
H2249 H 0.2546 0.45692 0.97205 0.0
S2250 S 0.19548 0.41965 0.04929 0.0
N2251 N 0.18905 0.42744 0.02331 0.0
N2252 N 0.21816 0.42534 0.04419 0.0
C2253 C 0.22143 0.43411 0.02041 0.0
C2254 C 0.2056 0.43507 0.00899 0.0
C2255 C 0.75937 0.21211 0.51699 0.0
C2256 C 0.76144 0.20195 0.49582 0.0
C2257 C 0.77543 0.22837 0.52779 0.0
C2258 C 0.79411 0.23514 0.51768 0.0
H2259 H 0.74516 0.20789 0.5247 0.0
H2260 H 0.77312 0.23613 0.54349 0.0
S2261 S 0.80774 0.21247 0.46472 0.0
N2262 N 0.784 0.19882 0.46696 0.0
N2263 N 0.81407 0.22967 0.4869 0.0
C2264 C 0.79651 0.22475 0.49725 0.0
C2265 C 0.78022 0.2081 0.4864 0.0
C2266 C 0.55643 0.78211 0.02572 0.0
C2267 C 0.5606 0.79826 0.01016 0.0
C2268 C 0.55688 0.76614 0.01511 0.0
C2269 C 0.56165 0.76581 0.9886 0.0
H2270 H 0.55206 0.78151 0.04597 0.0
H2271 H 0.55275 0.75367 0.02754 0.0
S2272 S 0.57628 0.80575 0.9407 0.0
N2273 N 0.57119 0.81375 0.96768 0.0
N2274 N 0.57254 0.78396 0.94782 0.0
C2275 C 0.56676 0.78232 0.97321 0.0
C2276 C 0.56611 0.79848 0.98397 0.0
C2277 C 0.75873 0.53969 0.4951 0.0
C2278 C 0.76074 0.55556 0.50966 0.0
C2279 C 0.77488 0.53943 0.48494 0.0
C2280 C 0.7937 0.55503 0.48892 0.0
H2281 H 0.74454 0.52722 0.49185 0.0
H2282 H 0.77262 0.52676 0.47418 0.0
S2283 S 0.80674 0.60056 0.52425 0.0
N2284 N 0.78294 0.5876 0.52669 0.0
N2285 N 0.81339 0.58714 0.5075 0.0
C2286 C 0.79594 0.57107 0.50326 0.0
C2287 C 0.77945 0.57133 0.51365 0.0
C2288 C 0.23539 0.77246 0.97886 0.0
C2289 C 0.23717 0.7909 0.97949 0.0
C2290 C 0.21924 0.75635 0.98964 0.0
C2291 C 0.20428 0.75806 0.00153 0.0
H2292 H 0.24674 0.7705 0.97039 0.0
H2293 H 0.21866 0.7425 0.98912 0.0
S2294 S 0.20121 0.8028 0.00646 0.0
N2295 N 0.22209 0.80975 0.99169 0.0
N2296 N 0.19174 0.77942 0.01213 0.0
C2297 C 0.20571 0.77634 0.00197 0.0
C2298 C 0.22215 0.79277 0.99092 0.0
C2299 C 0.46293 0.22497 0.51866 0.0
C2300 C 0.44833 0.20601 0.51263 0.0
C2301 C 0.46239 0.24104 0.50875 0.0
C2302 C 0.44725 0.23882 0.49232 0.0
H2303 H 0.47487 0.22741 0.53126 0.0
H2304 H 0.4741 0.25535 0.51367 0.0
S2305 S 0.40535 0.1923 0.47081 0.0
N2306 N 0.41829 0.18592 0.48914 0.0
N2307 N 0.41706 0.21619 0.47092 0.0
C2308 C 0.43246 0.21996 0.48627 0.0
C2309 C 0.43302 0.20356 0.49639 0.0
C2310 C 0.774 0.5445 0.02486 0.0
C2311 C 0.79179 0.55218 0.01157 0.0
C2312 C 0.75795 0.54415 0.01324 0.0
C2313 C 0.75895 0.55138 0.98777 0.0
H2314 H 0.77233 0.53834 0.04426 0.0
H2315 H 0.74461 0.53812 0.02432 0.0
S2316 S 0.80225 0.57339 0.94473 0.0
N2317 N 0.80967 0.56786 0.97189 0.0
N2318 N 0.77923 0.56641 0.94954 0.0
C2319 C 0.77669 0.55925 0.9743 0.0
C2320 C 0.79312 0.55977 0.98627 0.0
C2321 C 0.20687 0.76655 0.5099 0.0
C2322 C 0.20662 0.76024 0.48409 0.0
C2323 C 0.22342 0.7826 0.52014 0.0
C2324 C 0.24034 0.79265 0.50505 0.0
H2325 H 0.19421 0.75896 0.52226 0.0
H2326 H 0.22314 0.78685 0.54024 0.0
S2327 S 0.24701 0.78199 0.43634 0.0
N2328 N 0.22459 0.76535 0.44359 0.0
N2329 N 0.25572 0.79548 0.4629 0.0
C2330 C 0.2402 0.7866 0.47915 0.0
C2331 C 0.22331 0.77042 0.46864 0.0
C2332 C 0.46489 0.22513 0.98877 0.0
C2333 C 0.44889 0.20631 0.99045 0.0
C2334 C 0.46429 0.24091 0.99976 0.0
C2335 C 0.44777 0.23835 0.01312 0.0
H2336 H 0.4779 0.22769 0.97869 0.0
H2337 H 0.47695 0.25517 0.99815 0.0
S2338 S 0.40215 0.19202 0.02311 0.0
N2339 N 0.41609 0.18599 0.00644 0.0
N2340 N 0.41504 0.21568 0.02735 0.0
C2341 C 0.4317 0.21962 0.01501 0.0
C2342 C 0.43223 0.20359 0.00356 0.0
C2343 C 0.20517 0.43567 0.48851 0.0
C2344 C 0.20805 0.44794 0.50989 0.0
C2345 C 0.22073 0.43474 0.47724 0.0
C2346 C 0.2396 0.4458 0.48728 0.0
H2347 H 0.1909 0.42716 0.48 0.0
H2348 H 0.21802 0.42543 0.46043 0.0
S2349 S 0.25451 0.47951 0.54378 0.0
N2350 N 0.23097 0.47082 0.54126 0.0
N2351 N 0.26019 0.46912 0.52011 0.0
C2352 C 0.24253 0.45773 0.50908 0.0
C2353 C 0.22676 0.4588 0.52037 0.0
C2354 C 0.78016 0.24208 0.99987 0.0
C2355 C 0.79366 0.23967 0.98503 0.0
C2356 C 0.76381 0.22622 0.01061 0.0
C2357 C 0.76016 0.20723 0.00685 0.0
H2358 H 0.78209 0.25636 0.00302 0.0
H2359 H 0.754 0.22892 0.02213 0.0
S2360 S 0.79097 0.19296 0.96953 0.0
N2361 N 0.80249 0.2168 0.96751 0.0
N2362 N 0.77128 0.18684 0.98692 0.0
C2363 C 0.7735 0.20454 0.99203 0.0
C2364 C 0.7903 0.22077 0.98121 0.0
C2365 C 0.54411 0.77407 0.47918 0.0
C2366 C 0.55452 0.79238 0.49107 0.0
C2367 C 0.54282 0.75761 0.49094 0.0
C2368 C 0.55189 0.75878 0.51506 0.0
H2369 H 0.53645 0.77232 0.46094 0.0
H2370 H 0.53451 0.74382 0.48112 0.0
S2371 S 0.58156 0.80343 0.55379 0.0
N2372 N 0.57482 0.81087 0.52775 0.0
N2373 N 0.5719 0.77982 0.55028 0.0
C2374 C 0.56267 0.77705 0.52694 0.0
C2375 C 0.56405 0.79385 0.51489 0.0
C2376 C 0.36882 0.37522 0.07302 0.0
C2377 C 0.36796 0.38457 0.05007 0.0
C2378 C 0.37908 0.36521 0.07359 0.0
C2379 C 0.38892 0.36427 0.05129 0.0
H2380 H 0.36224 0.37635 0.09101 0.0
H2381 H 0.38005 0.35891 0.09195 0.0
S2382 S 0.38896 0.38391 0.98544 0.0
N2383 N 0.37611 0.39042 0.00376 0.0
N2384 N 0.39568 0.37186 0.00504 0.0
C2385 C 0.38741 0.37272 0.02792 0.0
C2386 C 0.37687 0.3828 0.02726 0.0
C2387 C 0.01172 0.39603 0.54089 0.0
C2388 C 0.02215 0.38861 0.55389 0.0
C2389 C 0.99145 0.3859 0.5407 0.0
C2390 C 0.98085 0.36793 0.55345 0.0
H2391 H 0.01927 0.41014 0.53168 0.0
H2392 H 0.98404 0.39256 0.53137 0.0
S2393 S 0.00139 0.34114 0.58735 0.0
N2394 N 0.0205 0.36153 0.57785 0.0
N2395 N 0.98236 0.34234 0.57728 0.0
C2396 C 0.99113 0.35996 0.5655 0.0
C2397 C 0.01178 0.37033 0.56577 0.0
C2398 C 0.61149 0.99159 0.04101 0.0
C2399 C 0.61628 0.98083 0.05817 0.0
C2400 C 0.62171 0.01187 0.04146 0.0
C2401 C 0.63708 0.0221 0.05909 0.0
H2402 H 0.59919 0.98432 0.02797 0.0
H2403 H 0.61697 0.01956 0.02873 0.0
S2404 S 0.65712 0.00074 0.10532 0.0
N2405 N 0.63869 0.98189 0.09128 0.0
N2406 N 0.65787 0.02002 0.09218 0.0
C2407 C 0.64266 0.01153 0.07536 0.0
C2408 C 0.63228 0.99089 0.07488 0.0
C2409 C 0.62954 0.6227 0.54333 0.0
C2410 C 0.62868 0.61074 0.56416 0.0
C2411 C 0.61902 0.63248 0.54413 0.0
C2412 C 0.60727 0.63061 0.56578 0.0
H2413 H 0.63843 0.62452 0.52632 0.0
H2414 H 0.62008 0.64157 0.52771 0.0
S2415 S 0.59867 0.5996 0.62416 0.0
N2416 N 0.61426 0.59669 0.60628 0.0
N2417 N 0.59452 0.61499 0.60777 0.0
C2418 C 0.60615 0.61853 0.58657 0.0
C2419 C 0.61684 0.60862 0.58577 0.0
C2420 C 0.98611 0.61093 0.03052 0.0
C2421 C 0.97592 0.61088 0.05303 0.0
C2422 C 0.00636 0.62157 0.02974 0.0
C2423 C 0.01716 0.63247 0.05149 0.0
H2424 H 0.97836 0.60238 0.01357 0.0
H2425 H 0.01365 0.62096 0.01216 0.0
S2426 S 0.99729 0.63666 0.11537 0.0
N2427 N 0.97803 0.62253 0.09759 0.0
N2428 N 0.0161 0.64237 0.09628 0.0
C2429 C 0.0071 0.63285 0.07393 0.0
C2430 C 0.98648 0.62208 0.07466 0.0
C2431 C 0.36792 0.00865 0.56185 0.0
C2432 C 0.38624 0.0192 0.55002 0.0
C2433 C 0.35786 0.98837 0.562 0.0
C2434 C 0.36571 0.9779 0.5502 0.0
H2435 H 0.3615 0.01615 0.57157 0.0
H2436 H 0.34399 0.98081 0.57184 0.0
S2437 S 0.41342 0.99856 0.51737 0.0
N2438 N 0.41196 0.01761 0.52664 0.0
N2439 N 0.39293 0.97951 0.52666 0.0
C2440 C 0.3838 0.98824 0.5378 0.0
C2441 C 0.39409 0.00888 0.53776 0.0
C2442 C 0.62529 0.63542 0.92323 0.0
C2443 C 0.61711 0.63629 0.94726 0.0
C2444 C 0.63511 0.62506 0.92081 0.0
C2445 C 0.63725 0.61531 0.94237 0.0
H2446 H 0.62332 0.64205 0.90584 0.0
H2447 H 0.64062 0.62424 0.90173 0.0
S2448 S 0.61993 0.61447 0.01011 0.0
N2449 N 0.61301 0.62772 0.99347 0.0
N2450 N 0.63125 0.60799 0.98886 0.0
C2451 C 0.62995 0.61682 0.9668 0.0
C2452 C 0.61989 0.62733 0.96924 0.0
C2453 C 0.98896 0.6273 0.42924 0.0
C2454 C 0.97989 0.61516 0.45087 0.0
C2455 C 0.00917 0.63777 0.42705 0.0
C2456 C 0.02105 0.63659 0.44648 0.0
H2457 H 0.98039 0.62798 0.41325 0.0
H2458 H 0.01553 0.64642 0.40963 0.0
S2459 S 0.00441 0.60821 0.50812 0.0
N2460 N 0.98429 0.60377 0.49308 0.0
N2461 N 0.02226 0.62311 0.48875 0.0
C2462 C 0.01217 0.62526 0.46884 0.0
C2463 C 0.9916 0.61461 0.47105 0.0
C2464 C 0.37195 0.0097 0.9466 0.0
C2465 C 0.39229 0.01974 0.94745 0.0
C2466 C 0.36135 0.9894 0.94691 0.0
C2467 C 0.37075 0.97848 0.94809 0.0
H2468 H 0.3642 0.0176 0.94567 0.0
H2469 H 0.34571 0.98219 0.94618 0.0
S2470 S 0.42377 0.99784 0.94818 0.0
N2471 N 0.42142 0.01724 0.94798 0.0
N2472 N 0.40155 0.97919 0.94855 0.0
C2473 C 0.39108 0.98837 0.94871 0.0
C2474 C 0.40183 0.00897 0.9484 0.0
C2475 C 0.36468 0.37501 0.42367 0.0
C2476 C 0.3633 0.38452 0.44605 0.0
C2477 C 0.37461 0.36467 0.42448 0.0
C2478 C 0.38343 0.3634 0.44773 0.0
H2479 H 0.35884 0.37633 0.40511 0.0
H2480 H 0.37615 0.3584 0.40644 0.0
S2481 S 0.38136 0.38338 0.51257 0.0
N2482 N 0.36984 0.3905 0.49263 0.0
N2483 N 0.3882 0.37075 0.49434 0.0
C2484 C 0.38115 0.37193 0.47059 0.0
C2485 C 0.37117 0.38257 0.4697 0.0
C2486 C 0.01245 0.37225 0.93122 0.0
C2487 C 0.02308 0.3899 0.94465 0.0
C2488 C 0.99216 0.36222 0.93136 0.0
C2489 C 0.98179 0.36955 0.9448 0.0
H2490 H 0.0199 0.36628 0.92031 0.0
H2491 H 0.98453 0.34874 0.92064 0.0
S2492 S 0.00296 0.41584 0.98159 0.0
N2493 N 0.02185 0.41457 0.97106 0.0
N2494 N 0.98377 0.39594 0.97105 0.0
C2495 C 0.9923 0.38716 0.95839 0.0
C2496 C 0.01292 0.39728 0.95837 0.0
C2497 C 0.62306 0.98786 0.42023 0.0
C2498 C 0.6174 0.97846 0.44463 0.0
C2499 C 0.63253 0.00806 0.41849 0.0
C2500 C 0.63695 0.01956 0.44112 0.0
H2501 H 0.61925 0.97951 0.40226 0.0
H2502 H 0.63591 0.01474 0.39928 0.0
S2503 S 0.62665 0.00211 0.50974 0.0
N2504 N 0.61788 0.98218 0.49197 0.0
N2505 N 0.63595 0.02026 0.48867 0.0
C2506 C 0.63227 0.01043 0.4657 0.0
C2507 C 0.62239 0.98983 0.46746 0.0
C2508 C 0.45029 0.56463 0.98836 0.0
C2509 C 0.45273 0.5832 0.99192 0.0
C2510 C 0.43411 0.54817 0.9985 0.0
C2511 C 0.41974 0.54967 0.01248 0.0
H2512 H 0.46085 0.56276 0.97736 0.0
H2513 H 0.43271 0.53413 0.99507 0.0
S2514 S 0.41999 0.59502 0.02904 0.0
N2515 N 0.43991 0.60219 0.01171 0.0
N2516 N 0.40942 0.57121 0.03055 0.0
C2517 C 0.42209 0.56814 0.01646 0.0
C2518 C 0.43859 0.58491 0.00623 0.0
C2519 C 0.86022 0.41581 0.48563 0.0
C2520 C 0.8638 0.41495 0.51246 0.0
C2521 C 0.8605 0.43211 0.4749 0.0
C2522 C 0.86437 0.44815 0.49059 0.0
H2523 H 0.85718 0.40378 0.47284 0.0
H2524 H 0.85765 0.43216 0.45414 0.0
S2525 S 0.87586 0.45357 0.56163 0.0
N2526 N 0.87205 0.43179 0.55429 0.0
N2527 N 0.87257 0.46244 0.53411 0.0
C2528 C 0.86798 0.44747 0.51745 0.0
C2529 C 0.86769 0.43087 0.52838 0.0
C2530 C 0.41521 0.85371 0.00447 0.0
C2531 C 0.41745 0.86656 0.9841 0.0
C2532 C 0.43131 0.85409 0.01611 0.0
C2533 C 0.45022 0.86734 0.0078 0.0
H2534 H 0.40093 0.84355 0.01182 0.0
H2535 H 0.42898 0.84419 0.03206 0.0
S2536 S 0.46373 0.90257 0.95334 0.0
N2537 N 0.43992 0.8919 0.95485 0.0
N2538 N 0.47017 0.89262 0.97674 0.0
C2539 C 0.45261 0.87991 0.98702 0.0
C2540 C 0.43624 0.87952 0.97517 0.0
C2541 C 0.55295 0.42016 0.5132 0.0
C2542 C 0.55075 0.41768 0.48587 0.0
C2543 C 0.56906 0.43628 0.52413 0.0
C2544 C 0.58358 0.45047 0.50812 0.0
H2545 H 0.54194 0.40976 0.52622 0.0
H2546 H 0.56996 0.43784 0.54526 0.0
S2547 S 0.58555 0.44964 0.43548 0.0
N2548 N 0.56498 0.43004 0.4431 0.0
N2549 N 0.59536 0.46026 0.46361 0.0
C2550 C 0.58177 0.44789 0.48078 0.0
C2551 C 0.56534 0.43152 0.46966 0.0
C2552 C 0.11736 0.54856 0.00101 0.0
C2553 C 0.13457 0.55062 0.99055 0.0
C2554 C 0.11692 0.56431 0.0124 0.0
C2555 C 0.13372 0.58264 0.01398 0.0
H2556 H 0.10408 0.53475 0.99994 0.0
H2557 H 0.10322 0.56216 0.0196 0.0
S2558 S 0.1828 0.59492 0.99153 0.0
N2559 N 0.16895 0.57194 0.98351 0.0
N2560 N 0.16834 0.60148 0.00561 0.0
C2561 C 0.15113 0.58471 0.00411 0.0
C2562 C 0.1515 0.56871 0.99224 0.0
C2563 C 0.55077 0.11353 0.5042 0.0
C2564 C 0.55077 0.13084 0.50932 0.0
C2565 C 0.56679 0.11369 0.4927 0.0
C2566 C 0.58342 0.13118 0.48586 0.0
H2567 H 0.53836 0.09973 0.50939 0.0
H2568 H 0.56623 0.10002 0.48939 0.0
S2569 S 0.59018 0.18039 0.49344 0.0
N2570 N 0.56844 0.16589 0.5056 0.0
N2571 N 0.59858 0.1662 0.48394 0.0
C2572 C 0.58355 0.14859 0.49066 0.0
C2573 C 0.56723 0.14842 0.50239 0.0
C2574 C 0.56978 0.41991 0.01613 0.0
C2575 C 0.55049 0.4143 0.00992 0.0
C2576 C 0.58528 0.4358 0.00376 0.0
C2577 C 0.58201 0.44667 0.98487 0.0
H2578 H 0.57291 0.41225 0.03112 0.0
H2579 H 0.59991 0.43994 0.00952 0.0
S2580 S 0.53443 0.43666 0.95929 0.0
N2581 N 0.52911 0.41987 0.98181 0.0
N2582 N 0.55826 0.44992 0.95901 0.0
C2583 C 0.56286 0.44087 0.97787 0.0
C2584 C 0.5471 0.42465 0.99029 0.0
C2585 C 0.13254 0.56936 0.47094 0.0
C2586 C 0.13493 0.58521 0.48592 0.0
C2587 C 0.13276 0.55361 0.48272 0.0
C2588 C 0.13534 0.5531 0.50993 0.0
H2589 H 0.13051 0.56915 0.44991 0.0
H2590 H 0.13095 0.54176 0.4704 0.0
S2591 S 0.14099 0.59042 0.55808 0.0
N2592 N 0.13925 0.59912 0.52947 0.0
N2593 N 0.13958 0.56947 0.55167 0.0
C2594 C 0.1377 0.56883 0.52515 0.0
C2595 C 0.13752 0.58489 0.51313 0.0
C2596 C 0.57321 0.13949 0.02182 0.0
C2597 C 0.58648 0.13643 0.00742 0.0
C2598 C 0.55783 0.14003 0.00937 0.0
C2599 C 0.55518 0.13753 0.98208 0.0
H2600 H 0.57447 0.14102 0.04294 0.0
H2601 H 0.54764 0.1419 0.02127 0.0
S2602 S 0.58715 0.13128 0.93521 0.0
N2603 N 0.59685 0.1324 0.96422 0.0
N2604 N 0.56791 0.13337 0.94084 0.0
C2605 C 0.56868 0.13505 0.96739 0.0
C2606 C 0.58433 0.13451 0.98005 0.0
C2607 C 0.43177 0.58235 0.50179 0.0
C2608 C 0.44643 0.58031 0.51405 0.0
C2609 C 0.4164 0.56672 0.48884 0.0
C2610 C 0.41512 0.5485 0.48777 0.0
H2611 H 0.43239 0.59622 0.50179 0.0
H2612 H 0.40561 0.56901 0.4792 0.0
S2613 S 0.44874 0.53519 0.51935 0.0
N2614 N 0.45805 0.55843 0.52593 0.0
N2615 N 0.42908 0.52899 0.50188 0.0
C2616 C 0.42943 0.54617 0.5006 0.0
C2617 C 0.4451 0.56209 0.51366 0.0
C2618 C 0.85955 0.42705 0.97837 0.0
C2619 C 0.86373 0.41452 0.9927 0.0
C2620 C 0.85868 0.4423 0.99072 0.0
C2621 C 0.86194 0.44554 0.01784 0.0
H2622 H 0.8574 0.42534 0.95736 0.0
H2623 H 0.85594 0.45191 0.97883 0.0
S2624 S 0.87121 0.4155 0.06458 0.0
N2625 N 0.86965 0.40544 0.03573 0.0
N2626 N 0.86799 0.43406 0.05893 0.0
C2627 C 0.86552 0.43275 0.0325 0.0
C2628 C 0.86642 0.41725 0.01993 0.0
C2629 C 0.45237 0.87983 0.506 0.0
C2630 C 0.45019 0.86577 0.4875 0.0
C2631 C 0.43627 0.87978 0.51701 0.0
C2632 C 0.41739 0.86556 0.51015 0.0
H2633 H 0.46665 0.89094 0.51213 0.0
H2634 H 0.43861 0.89087 0.53115 0.0
S2635 S 0.40363 0.82614 0.46182 0.0
N2636 N 0.42752 0.83771 0.46206 0.0
N2637 N 0.39727 0.83741 0.48332 0.0
C2638 C 0.41492 0.85139 0.49181 0.0
C2639 C 0.43131 0.85153 0.48037 0.0
loop_
_geom_bond_atom_site_label_1
_geom_bond_atom_site_label_2
_geom_bond_distance
_geom_bond_site_symmetry_2
_ccdc_geom_bond_type
Li0 N17 1.990 . S
Li0 O60 1.956 . S
Li0 O61 1.970 . S
Li0 O62 1.961 . S
Li1 N25 1.990 . S
Li1 O60 1.970 . S
Li1 O61 1.956 . S
Li1 O63 1.961 . S
Li2 N47 1.990 . S
Li2 O60 1.961 . S
Li2 O62 1.956 . S
Li2 O63 1.970 . S
Li3 N53 1.990 . S
Li3 O61 1.961 . S
Li3 O62 1.970 . S
Li3 O63 1.956 . S
C4 C6 1.348 . S
C4 C7 1.356 . S
C4 O60 1.325 . S
N5 C8 1.314 . S
N5 C9 1.279 . S
C6 C4 1.348 . S
C6 C8 1.353 . S
C6 H64 0.929 . S
C7 C4 1.356 . S
C7 C9 1.358 . S
C7 H65 0.930 . S
C8 N5 1.314 . S
C8 C6 1.353 . S
C8 H66 0.930 . S
C9 N5 1.279 . S
C9 C7 1.358 . S
C9 H67 0.930 . S
C10 C13 1.348 . S
C10 C14 1.356 . S
C10 O61 1.325 . S
C11 N12 1.279 . S
C11 C14 1.358 . S
C11 H68 0.930 . S
N12 C11 1.279 . S
N12 C15 1.314 . S
C13 C10 1.348 . S
C13 C15 1.353 . S
C13 H69 0.929 . S
C14 C10 1.356 . S
C14 C11 1.358 . S
C14 H70 0.930 . S
C15 N12 1.314 . S
C15 C13 1.353 . S
C15 H71 0.930 . S
C16 N17 1.314 . S
C16 C21 1.353 . S
C16 H22 0.930 . S
N17 Li0 1.990 . S
N17 C16 1.314 . S
N17 C19 1.279 . S
C18 C19 1.358 . S
C18 C20 1.356 . S
C18 H72 0.930 . S
C19 N17 1.279 . S
C19 C18 1.358 . S
C19 H23 0.930 . S
C20 C18 1.356 . S
C20 C21 1.348 . S
C21 C16 1.353 . S
C21 C20 1.348 . S
C21 H73 0.929 . S
H22 C16 0.930 . S
H23 C19 0.930 . S
C24 N25 1.314 . S
C24 C26 1.353 . S
C24 H30 0.930 . S
N25 Li1 1.990 . S
N25 C24 1.314 . S
N25 C28 1.279 . S
C26 C24 1.353 . S
C26 C29 1.348 . S
C26 H74 0.929 . S
C27 C28 1.358 . S
C27 C29 1.356 . S
C27 H75 0.930 . S
C28 N25 1.279 . S
C28 C27 1.358 . S
C28 H31 0.930 . S
C29 C26 1.348 . S
C29 C27 1.356 . S
H30 C24 0.930 . S
H31 C28 0.930 . S
C32 C34 1.348 . S
C32 C35 1.356 . S
C32 O62 1.325 . S
N33 C36 1.314 . S
N33 C37 1.279 . S
C34 C32 1.348 . S
C34 C36 1.353 . S
C34 H76 0.929 . S
C35 C32 1.356 . S
C35 C37 1.358 . S
C35 H77 0.930 . S
C36 N33 1.314 . S
C36 C34 1.353 . S
C36 H78 0.930 . S
C37 N33 1.279 . S
C37 C35 1.358 . S
C37 H79 0.930 . S
C38 C39 1.348 1_554 S
C38 C40 1.356 1_554 S
C38 O63 1.325 . S
C39 C38 1.348 1_556 S
C39 C41 1.353 . S
C39 H80 0.929 . S
C40 C38 1.356 1_556 S
C40 C42 1.358 . S
C40 H81 0.930 1_556 S
C41 C39 1.353 . S
C41 N43 1.314 . S
C41 H82 0.930 . S
C42 C40 1.358 . S
C42 N43 1.279 . S
C42 H83 0.930 . S
N43 C41 1.314 . S
N43 C42 1.279 . S
C44 C46 1.353 . S
C44 N47 1.314 . S
C44 H50 0.930 . S
C45 N47 1.279 . S
C45 C48 1.358 . S
C45 H51 0.930 . S
C46 C44 1.353 . S
C46 C49 1.348 . S
C46 H84 0.929 . S
N47 Li2 1.990 . S
N47 C44 1.314 . S
N47 C45 1.279 . S
C48 C45 1.358 . S
C48 C49 1.356 . S
C48 H85 0.930 . S
C49 C46 1.348 . S
C49 C48 1.356 . S
H50 C44 0.930 . S
H51 C45 0.930 . S
C52 N53 1.314 . S
C52 C54 1.353 . S
C52 H58 0.930 . S
N53 Li3 1.990 . S
N53 C52 1.314 . S
N53 C56 1.279 . S
C54 C52 1.353 . S
C54 C57 1.348 . S
C54 H86 0.929 . S
C55 C56 1.358 1_556 S
C55 C57 1.356 1_556 S
C55 H87 0.930 . S
C56 N53 1.279 . S
C56 C55 1.358 1_554 S
C56 H59 0.930 1_554 S
C57 C54 1.348 . S
C57 C55 1.356 1_554 S
H58 C52 0.930 . S
H59 C56 0.930 1_556 S
O60 Li0 1.956 . S
O60 Li1 1.970 . S
O60 Li2 1.961 . S
O60 C4 1.325 . S
O61 Li0 1.970 . S
O61 Li1 1.956 . S
O61 Li3 1.961 . S
O61 C10 1.325 . S
O62 Li0 1.961 . S
O62 Li2 1.956 . S
O62 Li3 1.970 . S
O62 C32 1.325 . S
O63 Li1 1.961 . S
O63 Li2 1.970 . S
O63 Li3 1.956 . S
O63 C38 1.325 . S
H64 C6 0.929 . S
H65 C7 0.930 . S
H66 C8 0.930 . S
H67 C9 0.930 . S
H68 C11 0.930 . S
H69 C13 0.929 . S
H70 C14 0.930 . S
H71 C15 0.930 . S
H72 C18 0.930 . S
H73 C21 0.929 . S
H74 C26 0.929 . S
H75 C27 0.930 . S
H76 C34 0.929 . S
H77 C35 0.930 . S
H78 C36 0.930 . S
H79 C37 0.930 . S
H80 C39 0.929 . S
H81 C40 0.930 1_554 S
H82 C41 0.930 . S
H83 C42 0.930 . S
H84 C46 0.929 . S
H85 C48 0.930 . S
H86 C54 0.929 . S
H87 C55 0.930 . S
Li88 N105 1.990 . S
Li88 O148 1.956 . S
Li88 O149 1.970 . S
Li88 O150 1.961 . S
Li89 N113 1.990 . S
Li89 O148 1.970 . S
Li89 O149 1.956 . S
Li89 O151 1.961 . S
Li90 N135 1.990 . S
Li90 O148 1.961 . S
Li90 O150 1.956 . S
Li90 O151 1.970 . S
Li91 N141 1.990 . S
Li91 O149 1.961 . S
Li91 O150 1.970 . S
Li91 O151 1.956 . S
C92 C94 1.348 . S
C92 C95 1.356 . S
C92 O148 1.325 . S
N93 C96 1.314 . S
N93 C97 1.279 . S
C94 C92 1.348 . S
C94 C96 1.353 . S
C94 H152 0.929 . S
C95 C92 1.356 . S
C95 C97 1.358 . S
C95 H153 0.930 . S
C96 N93 1.314 . S
C96 C94 1.353 . S
C96 H154 0.930 . S
C97 N93 1.279 . S
C97 C95 1.358 . S
C97 H155 0.930 . S
C98 C101 1.348 . S
C98 C102 1.356 . S
C98 O149 1.325 . S
C99 N100 1.279 . S
C99 C102 1.358 . S
C99 H156 0.930 . S
N100 C99 1.279 . S
N100 C103 1.314 . S
C101 C98 1.348 . S
C101 C103 1.353 . S
C101 H157 0.929 . S
C102 C98 1.356 . S
C102 C99 1.358 . S
C102 H158 0.930 . S
C103 N100 1.314 . S
C103 C101 1.353 . S
C103 H159 0.930 . S
C104 N105 1.314 . S
C104 C109 1.353 . S
C104 H110 0.930 . S
N105 Li88 1.990 . S
N105 C104 1.314 . S
N105 C107 1.279 . S
C106 C107 1.358 . S
C106 C108 1.356 . S
C106 H160 0.930 . S
C107 N105 1.279 . S
C107 C106 1.358 . S
C107 H111 0.930 . S
C108 C106 1.356 . S
C108 C109 1.348 . S
C109 C104 1.353 . S
C109 C108 1.348 . S
C109 H161 0.929 . S
H110 C104 0.930 . S
H111 C107 0.930 . S
C112 N113 1.314 . S
C112 C114 1.353 . S
C112 H118 0.930 . S
N113 Li89 1.990 . S
N113 C112 1.314 . S
N113 C116 1.279 . S
C114 C112 1.353 . S
C114 C117 1.348 . S
C114 H162 0.929 . S
C115 C116 1.358 . S
C115 C117 1.356 . S
C115 H163 0.930 . S
C116 N113 1.279 . S
C116 C115 1.358 . S
C116 H119 0.930 . S
C117 C114 1.348 . S
C117 C115 1.356 . S
H118 C112 0.930 . S
H119 C116 0.930 . S
C120 C122 1.348 . S
C120 C123 1.356 . S
C120 O150 1.325 . S
N121 C124 1.314 . S
N121 C125 1.279 . S
C122 C120 1.348 . S
C122 C124 1.353 . S
C122 H164 0.929 . S
C123 C120 1.356 . S
C123 C125 1.358 . S
C123 H165 0.930 . S
C124 N121 1.314 . S
C124 C122 1.353 . S
C124 H166 0.930 . S
C125 N121 1.279 . S
C125 C123 1.358 . S
C125 H167 0.930 . S
C126 C127 1.348 . S
C126 C128 1.356 . S
C126 O151 1.325 . S
C127 C126 1.348 . S
C127 C129 1.353 . S
C127 H168 0.929 . S
C128 C126 1.356 . S
C128 C130 1.358 . S
C128 H169 0.930 . S
C129 C127 1.353 . S
C129 N131 1.314 . S
C129 H170 0.930 . S
C130 C128 1.358 . S
C130 N131 1.279 . S
C130 H171 0.930 . S
N131 C129 1.314 . S
N131 C130 1.279 . S
C132 C134 1.353 . S
C132 N135 1.314 . S
C132 H138 0.930 . S
C133 N135 1.279 . S
C133 C136 1.358 . S
C133 H139 0.930 . S
C134 C132 1.353 . S
C134 C137 1.348 . S
C134 H172 0.929 . S
N135 Li90 1.990 . S
N135 C132 1.314 . S
N135 C133 1.279 . S
C136 C133 1.358 . S
C136 C137 1.356 . S
C136 H173 0.930 . S
C137 C134 1.348 . S
C137 C136 1.356 . S
H138 C132 0.930 . S
H139 C133 0.930 . S
C140 N141 1.314 . S
C140 C142 1.353 . S
C140 H146 0.930 . S
N141 Li91 1.990 . S
N141 C140 1.314 . S
N141 C144 1.279 . S
C142 C140 1.353 . S
C142 C145 1.348 . S
C142 H174 0.929 . S
C143 C144 1.358 . S
C143 C145 1.356 . S
C143 H175 0.930 . S
C144 N141 1.279 . S
C144 C143 1.358 . S
C144 H147 0.930 . S
C145 C142 1.348 . S
C145 C143 1.356 . S
H146 C140 0.930 . S
H147 C144 0.930 . S
O148 Li88 1.956 . S
O148 Li89 1.970 . S
O148 Li90 1.961 . S
O148 C92 1.325 . S
O149 Li88 1.970 . S
O149 Li89 1.956 . S
O149 Li91 1.961 . S
O149 C98 1.325 . S
O150 Li88 1.961 . S
O150 Li90 1.956 . S
O150 Li91 1.970 . S
O150 C120 1.325 . S
O151 Li89 1.961 . S
O151 Li90 1.970 . S
O151 Li91 1.956 . S
O151 C126 1.325 . S
H152 C94 0.929 . S
H153 C95 0.930 . S
H154 C96 0.930 . S
H155 C97 0.930 . S
H156 C99 0.930 . S
H157 C101 0.929 . S
H158 C102 0.930 . S
H159 C103 0.930 . S
H160 C106 0.930 . S
H161 C109 0.929 . S
H162 C114 0.929 . S
H163 C115 0.930 . S
H164 C122 0.929 . S
H165 C123 0.930 . S
H166 C124 0.930 . S
H167 C125 0.930 . S
H168 C127 0.929 . S
H169 C128 0.930 . S
H170 C129 0.930 . S
H171 C130 0.930 . S
H172 C134 0.929 . S
H173 C136 0.930 . S
H174 C142 0.929 . S
H175 C143 0.930 . S
Li176 N193 1.990 . S
Li176 O236 1.956 . S
Li176 O237 1.970 . S
Li176 O238 1.961 . S
Li177 N201 1.990 . S
Li177 O236 1.970 . S
Li177 O237 1.956 . S
Li177 O239 1.961 . S
Li178 N223 1.990 . S
Li178 O236 1.961 . S
Li178 O238 1.956 . S
Li178 O239 1.970 . S
Li179 N229 1.990 . S
Li179 O237 1.961 . S
Li179 O238 1.970 . S
Li179 O239 1.956 . S
C180 C182 1.348 . S
C180 C183 1.356 . S
C180 O236 1.325 . S
N181 C184 1.314 . S
N181 C185 1.279 . S
C182 C180 1.348 . S
C182 C184 1.353 . S
C182 H240 0.929 . S
C183 C180 1.356 . S
C183 C185 1.358 . S
C183 H241 0.930 . S
C184 N181 1.314 . S
C184 C182 1.353 . S
C184 H242 0.930 . S
C185 N181 1.279 . S
C185 C183 1.358 . S
C185 H243 0.930 . S
C186 C189 1.348 . S
C186 C190 1.356 . S
C186 O237 1.325 . S
C187 N188 1.279 . S
C187 C190 1.358 . S
C187 H244 0.930 . S
N188 C187 1.279 . S
N188 C191 1.314 . S
C189 C186 1.348 . S
C189 C191 1.353 . S
C189 H245 0.929 . S
C190 C186 1.356 . S
C190 C187 1.358 . S
C190 H246 0.930 . S
C191 N188 1.314 . S
C191 C189 1.353 . S
C191 H247 0.930 . S
C192 N193 1.314 . S
C192 C197 1.353 . S
C192 H198 0.930 . S
N193 Li176 1.990 . S
N193 C192 1.314 . S
N193 C195 1.279 . S
C194 C195 1.358 . S
C194 C196 1.356 . S
C194 H248 0.930 . S
C195 N193 1.279 . S
C195 C194 1.358 . S
C195 H199 0.930 . S
C196 C194 1.356 . S
C196 C197 1.348 . S
C197 C192 1.353 . S
C197 C196 1.348 . S
C197 H249 0.929 . S
H198 C192 0.930 . S
H199 C195 0.930 . S
C200 N201 1.314 . S
C200 C202 1.353 . S
C200 H206 0.930 . S
N201 Li177 1.990 . S
N201 C200 1.314 . S
N201 C204 1.279 . S
C202 C200 1.353 . S
C202 C205 1.348 . S
C202 H250 0.929 . S
C203 C204 1.358 . S
C203 C205 1.356 . S
C203 H251 0.930 . S
C204 N201 1.279 . S
C204 C203 1.358 . S
C204 H207 0.930 . S
C205 C202 1.348 . S
C205 C203 1.356 . S
H206 C200 0.930 . S
H207 C204 0.930 . S
C208 C210 1.348 1_554 S
C208 C211 1.356 1_554 S
C208 O238 1.325 . S
N209 C212 1.314 . S
N209 C213 1.279 . S
C210 C208 1.348 1_556 S
C210 C212 1.353 . S
C210 H252 0.929 . S
C211 C208 1.356 1_556 S
C211 C213 1.358 . S
C211 H253 0.930 1_556 S
C212 N209 1.314 . S
C212 C210 1.353 . S
C212 H254 0.930 . S
C213 N209 1.279 . S
C213 C211 1.358 . S
C213 H255 0.930 . S
C214 C215 1.348 . S
C214 C216 1.356 . S
C214 O239 1.325 . S
C215 C214 1.348 . S
C215 C217 1.353 . S
C215 H256 0.929 . S
C216 C214 1.356 . S
C216 C218 1.358 . S
C216 H257 0.930 . S
C217 C215 1.353 . S
C217 N219 1.314 . S
C217 H258 0.930 . S
C218 C216 1.358 . S
C218 N219 1.279 . S
C218 H259 0.930 . S
N219 C217 1.314 . S
N219 C218 1.279 . S
C220 C222 1.353 . S
C220 N223 1.314 . S
C220 H226 0.930 . S
C221 N223 1.279 . S
C221 C224 1.358 1_554 S
C221 H227 0.930 1_554 S
C222 C220 1.353 . S
C222 C225 1.348 . S
C222 H260 0.929 . S
N223 Li178 1.990 . S
N223 C220 1.314 . S
N223 C221 1.279 . S
C224 C221 1.358 1_556 S
C224 C225 1.356 1_556 S
C224 H261 0.930 . S
C225 C222 1.348 . S
C225 C224 1.356 1_554 S
H226 C220 0.930 . S
H227 C221 0.930 1_556 S
C228 N229 1.314 . S
C228 C230 1.353 . S
C228 H234 0.930 . S
N229 Li179 1.990 . S
N229 C228 1.314 . S
N229 C232 1.279 . S
C230 C228 1.353 . S
C230 C233 1.348 . S
C230 H262 0.929 . S
C231 C232 1.358 . S
C231 C233 1.356 . S
C231 H263 0.930 . S
C232 N229 1.279 . S
C232 C231 1.358 . S
C232 H235 0.930 . S
C233 C230 1.348 . S
C233 C231 1.356 . S
H234 C228 0.930 . S
H235 C232 0.930 . S
O236 Li176 1.956 . S
O236 Li177 1.970 . S
O236 Li178 1.961 . S
O236 C180 1.325 . S
O237 Li176 1.970 . S
O237 Li177 1.956 . S
O237 Li179 1.961 . S
O237 C186 1.325 . S
O238 Li176 1.961 . S
O238 Li178 1.956 . S
O238 Li179 1.970 . S
O238 C208 1.325 . S
O239 Li177 1.961 . S
O239 Li178 1.970 . S
O239 Li179 1.956 . S
O239 C214 1.325 . S
H240 C182 0.929 . S
H241 C183 0.930 . S
H242 C184 0.930 . S
H243 C185 0.930 . S
H244 C187 0.930 . S
H245 C189 0.929 . S
H246 C190 0.930 . S
H247 C191 0.930 . S
H248 C194 0.930 . S
H249 C197 0.929 . S
H250 C202 0.929 . S
H251 C203 0.930 . S
H252 C210 0.929 . S
H253 C211 0.930 1_554 S
H254 C212 0.930 . S
H255 C213 0.930 . S
H256 C215 0.929 . S
H257 C216 0.930 . S
H258 C217 0.930 . S
H259 C218 0.930 . S
H260 C222 0.929 . S
H261 C224 0.930 . S
H262 C230 0.929 . S
H263 C231 0.930 . S
Li264 N281 1.990 . S
Li264 O324 1.956 . S
Li264 O325 1.970 . S
Li264 O326 1.961 . S
Li265 N289 1.990 . S
Li265 O324 1.970 . S
Li265 O325 1.956 . S
Li265 O327 1.961 . S
Li266 N311 1.990 . S
Li266 O324 1.961 . S
Li266 O326 1.956 . S
Li266 O327 1.970 . S
Li267 N317 1.990 . S
Li267 O325 1.961 . S
Li267 O326 1.970 . S
Li267 O327 1.956 . S
C268 C270 1.348 . S
C268 C271 1.356 . S
C268 O324 1.325 . S
N269 C272 1.314 . S
N269 C273 1.279 . S
C270 C268 1.348 . S
C270 C272 1.353 . S
C270 H328 0.929 . S
C271 C268 1.356 . S
C271 C273 1.358 . S
C271 H329 0.930 . S
C272 N269 1.314 . S
C272 C270 1.353 . S
C272 H330 0.930 . S
C273 N269 1.279 . S
C273 C271 1.358 . S
C273 H331 0.930 . S
C274 C277 1.348 . S
C274 C278 1.356 . S
C274 O325 1.325 . S
C275 N276 1.279 . S
C275 C278 1.358 . S
C275 H332 0.930 . S
N276 C275 1.279 . S
N276 C279 1.314 . S
C277 C274 1.348 . S
C277 C279 1.353 . S
C277 H333 0.929 . S
C278 C274 1.356 . S
C278 C275 1.358 . S
C278 H334 0.930 . S
C279 N276 1.314 . S
C279 C277 1.353 . S
C279 H335 0.930 . S
C280 N281 1.314 . S
C280 C285 1.353 . S
C280 H286 0.930 . S
N281 Li264 1.990 . S
N281 C280 1.314 . S
N281 C283 1.279 . S
C282 C283 1.358 . S
C282 C284 1.356 . S
C282 H336 0.930 . S
C283 N281 1.279 . S
C283 C282 1.358 . S
C283 H287 0.930 . S
C284 C282 1.356 . S
C284 C285 1.348 . S
C285 C280 1.353 . S
C285 C284 1.348 . S
C285 H337 0.929 . S
H286 C280 0.930 . S
H287 C283 0.930 . S
C288 N289 1.314 . S
C288 C290 1.353 . S
C288 H294 0.930 . S
N289 Li265 1.990 . S
N289 C288 1.314 . S
N289 C292 1.279 . S
C290 C288 1.353 . S
C290 C293 1.348 . S
C290 H338 0.929 . S
C291 C292 1.358 . S
C291 C293 1.356 . S
C291 H339 0.930 . S
C292 N289 1.279 . S
C292 C291 1.358 . S
C292 H295 0.930 . S
C293 C290 1.348 . S
C293 C291 1.356 . S
H294 C288 0.930 . S
H295 C292 0.930 . S
C296 C298 1.348 . S
C296 C299 1.356 . S
C296 O326 1.325 . S
N297 C300 1.314 . S
N297 C301 1.279 . S
C298 C296 1.348 . S
C298 C300 1.353 . S
C298 H340 0.929 . S
C299 C296 1.356 . S
C299 C301 1.358 . S
C299 H341 0.930 . S
C300 N297 1.314 . S
C300 C298 1.353 . S
C300 H342 0.930 . S
C301 N297 1.279 . S
C301 C299 1.358 . S
C301 H343 0.930 . S
C302 C303 1.348 . S
C302 C304 1.356 . S
C302 O327 1.325 . S
C303 C302 1.348 . S
C303 C305 1.353 . S
C303 H344 0.929 . S
C304 C302 1.356 . S
C304 C306 1.358 . S
C304 H345 0.930 . S
C305 C303 1.353 . S
C305 N307 1.314 . S
C305 H346 0.930 . S
C306 C304 1.358 . S
C306 N307 1.279 . S
C306 H347 0.930 . S
N307 C305 1.314 . S
N307 C306 1.279 . S
C308 C310 1.353 . S
C308 N311 1.314 . S
C308 H314 0.930 . S
C309 N311 1.279 . S
C309 C312 1.358 . S
C309 H315 0.930 . S
C310 C308 1.353 . S
C310 C313 1.348 . S
C310 H348 0.929 . S
N311 Li266 1.990 . S
N311 C308 1.314 . S
N311 C309 1.279 . S
C312 C309 1.358 . S
C312 C313 1.356 . S
C312 H349 0.930 . S
C313 C310 1.348 . S
C313 C312 1.356 . S
H314 C308 0.930 . S
H315 C309 0.930 . S
C316 N317 1.314 . S
C316 C318 1.353 . S
C316 H322 0.930 . S
N317 Li267 1.990 . S
N317 C316 1.314 . S
N317 C320 1.279 . S
C318 C316 1.353 . S
C318 C321 1.348 . S
C318 H350 0.929 . S
C319 C320 1.358 . S
C319 C321 1.356 . S
C319 H351 0.930 . S
C320 N317 1.279 . S
C320 C319 1.358 . S
C320 H323 0.930 . S
C321 C318 1.348 . S
C321 C319 1.356 . S
H322 C316 0.930 . S
H323 C320 0.930 . S
O324 Li264 1.956 . S
O324 Li265 1.970 . S
O324 Li266 1.961 . S
O324 C268 1.325 . S
O325 Li264 1.970 . S
O325 Li265 1.956 . S
O325 Li267 1.961 . S
O325 C274 1.325 . S
O326 Li264 1.961 . S
O326 Li266 1.956 . S
O326 Li267 1.970 . S
O326 C296 1.325 . S
O327 Li265 1.961 . S
O327 Li266 1.970 . S
O327 Li267 1.956 . S
O327 C302 1.325 . S
H328 C270 0.929 . S
H329 C271 0.930 . S
H330 C272 0.930 . S
H331 C273 0.930 . S
H332 C275 0.930 . S
H333 C277 0.929 . S
H334 C278 0.930 . S
H335 C279 0.930 . S
H336 C282 0.930 . S
H337 C285 0.929 . S
H338 C290 0.929 . S
H339 C291 0.930 . S
H340 C298 0.929 . S
H341 C299 0.930 . S
H342 C300 0.930 . S
H343 C301 0.930 . S
H344 C303 0.929 . S
H345 C304 0.930 . S
H346 C305 0.930 . S
H347 C306 0.930 . S
H348 C310 0.929 . S
H349 C312 0.930 . S
H350 C318 0.929 . S
H351 C319 0.930 . S
Li352 N369 1.990 . S
Li352 O412 1.956 . S
Li352 O413 1.970 . S
Li352 O414 1.961 . S
Li353 N377 1.990 . S
Li353 O412 1.970 . S
Li353 O413 1.956 . S
Li353 O415 1.961 . S
Li354 N399 1.990 . S
Li354 O412 1.961 . S
Li354 O414 1.956 . S
Li354 O415 1.970 . S
Li355 N405 1.990 . S
Li355 O413 1.961 . S
Li355 O414 1.970 . S
Li355 O415 1.956 . S
C356 C358 1.348 . S
C356 C359 1.356 . S
C356 O412 1.325 . S
N357 C360 1.314 . S
N357 C361 1.279 . S
C358 C356 1.348 . S
C358 C360 1.353 . S
C358 H416 0.929 . S
C359 C356 1.356 . S
C359 C361 1.358 . S
C359 H417 0.930 . S
C360 N357 1.314 . S
C360 C358 1.353 . S
C360 H418 0.930 . S
C361 N357 1.279 . S
C361 C359 1.358 . S
C361 H419 0.930 . S
C362 C365 1.348 . S
C362 C366 1.356 . S
C362 O413 1.325 . S
C363 N364 1.279 . S
C363 C366 1.358 . S
C363 H420 0.930 . S
N364 C363 1.279 . S
N364 C367 1.314 . S
C365 C362 1.348 . S
C365 C367 1.353 . S
C365 H421 0.929 . S
C366 C362 1.356 . S
C366 C363 1.358 . S
C366 H422 0.930 . S
C367 N364 1.314 . S
C367 C365 1.353 . S
C367 H423 0.930 . S
C368 N369 1.314 . S
C368 C373 1.353 . S
C368 H374 0.930 . S
N369 Li352 1.990 . S
N369 C368 1.314 . S
N369 C371 1.279 . S
C370 C371 1.358 . S
C370 C372 1.356 . S
C370 H424 0.930 . S
C371 N369 1.279 . S
C371 C370 1.358 . S
C371 H375 0.930 . S
C372 C370 1.356 . S
C372 C373 1.348 . S
C373 C368 1.353 . S
C373 C372 1.348 . S
C373 H425 0.929 . S
H374 C368 0.930 . S
H375 C371 0.930 . S
C376 N377 1.314 . S
C376 C378 1.353 . S
C376 H382 0.930 . S
N377 Li353 1.990 . S
N377 C376 1.314 . S
N377 C380 1.279 . S
C378 C376 1.353 . S
C378 C381 1.348 . S
C378 H426 0.929 . S
C379 C380 1.358 . S
C379 C381 1.356 . S
C379 H427 0.930 . S
C380 N377 1.279 . S
C380 C379 1.358 . S
C380 H383 0.930 . S
C381 C378 1.348 . S
C381 C379 1.356 . S
H382 C376 0.930 . S
H383 C380 0.930 . S
C384 C386 1.348 . S
C384 C387 1.356 . S
C384 O414 1.325 . S
N385 C388 1.314 . S
N385 C389 1.279 . S
C386 C384 1.348 . S
C386 C388 1.353 . S
C386 H428 0.929 . S
C387 C384 1.356 . S
C387 C389 1.358 . S
C387 H429 0.930 . S
C388 N385 1.314 . S
C388 C386 1.353 . S
C388 H430 0.930 . S
C389 N385 1.279 . S
C389 C387 1.358 . S
C389 H431 0.930 . S
C390 C391 1.348 1_554 S
C390 C392 1.356 1_554 S
C390 O415 1.325 . S
C391 C390 1.348 1_556 S
C391 C393 1.353 . S
C391 H432 0.929 . S
C392 C390 1.356 1_556 S
C392 C394 1.358 . S
C392 H433 0.930 1_556 S
C393 C391 1.353 . S
C393 N395 1.314 . S
C393 H434 0.930 . S
C394 C392 1.358 . S
C394 N395 1.279 . S
C394 H435 0.930 . S
N395 C393 1.314 . S
N395 C394 1.279 . S
C396 C398 1.353 . S
C396 N399 1.314 . S
C396 H402 0.930 . S
C397 N399 1.279 . S
C397 C400 1.358 . S
C397 H403 0.930 . S
C398 C396 1.353 . S
C398 C401 1.348 . S
C398 H436 0.929 . S
N399 Li354 1.990 . S
N399 C396 1.314 . S
N399 C397 1.279 . S
C400 C397 1.358 . S
C400 C401 1.356 . S
C400 H437 0.930 . S
C401 C398 1.348 . S
C401 C400 1.356 . S
H402 C396 0.930 . S
H403 C397 0.930 . S
C404 N405 1.314 . S
C404 C406 1.353 . S
C404 H410 0.930 . S
N405 Li355 1.990 . S
N405 C404 1.314 . S
N405 C408 1.279 . S
C406 C404 1.353 . S
C406 C409 1.348 . S
C406 H438 0.929 . S
C407 C408 1.358 1_556 S
C407 C409 1.356 1_556 S
C407 H439 0.930 . S
C408 N405 1.279 . S
C408 C407 1.358 1_554 S
C408 H411 0.930 1_554 S
C409 C406 1.348 . S
C409 C407 1.356 1_554 S
H410 C404 0.930 . S
H411 C408 0.930 1_556 S
O412 Li352 1.956 . S
O412 Li353 1.970 . S
O412 Li354 1.961 . S
O412 C356 1.325 . S
O413 Li352 1.970 . S
O413 Li353 1.956 . S
O413 Li355 1.961 . S
O413 C362 1.325 . S
O414 Li352 1.961 . S
O414 Li354 1.956 . S
O414 Li355 1.970 . S
O414 C384 1.325 . S
O415 Li353 1.961 . S
O415 Li354 1.970 . S
O415 Li355 1.956 . S
O415 C390 1.325 . S
H416 C358 0.929 . S
H417 C359 0.930 . S
H418 C360 0.930 . S
H419 C361 0.930 . S
H420 C363 0.930 . S
H421 C365 0.929 . S
H422 C366 0.930 . S
H423 C367 0.930 . S
H424 C370 0.930 . S
H425 C373 0.929 . S
H426 C378 0.929 . S
H427 C379 0.930 . S
H428 C386 0.929 . S
H429 C387 0.930 . S
H430 C388 0.930 . S
H431 C389 0.930 . S
H432 C391 0.929 . S
H433 C392 0.930 1_554 S
H434 C393 0.930 . S
H435 C394 0.930 . S
H436 C398 0.929 . S
H437 C400 0.930 . S
H438 C406 0.929 . S
H439 C407 0.930 . S
Li440 N457 1.990 . S
Li440 O500 1.956 . S
Li440 O501 1.970 . S
Li440 O502 1.961 . S
Li441 N465 1.990 . S
Li441 O500 1.970 . S
Li441 O501 1.956 . S
Li441 O503 1.961 . S
Li442 N487 1.990 . S
Li442 O500 1.961 . S
Li442 O502 1.956 . S
Li442 O503 1.970 . S
Li443 N493 1.990 . S
Li443 O501 1.961 . S
Li443 O502 1.970 . S
Li443 O503 1.956 . S
C444 C446 1.348 . S
C444 C447 1.356 . S
C444 O500 1.325 . S
N445 C448 1.314 . S
N445 C449 1.279 . S
C446 C444 1.348 . S
C446 C448 1.353 . S
C446 H504 0.929 . S
C447 C444 1.356 . S
C447 C449 1.358 . S
C447 H505 0.930 . S
C448 N445 1.314 . S
C448 C446 1.353 . S
C448 H506 0.930 . S
C449 N445 1.279 . S
C449 C447 1.358 . S
C449 H507 0.930 . S
C450 C453 1.348 . S
C450 C454 1.356 . S
C450 O501 1.325 . S
C451 N452 1.279 . S
C451 C454 1.358 . S
C451 H508 0.930 . S
N452 C451 1.279 . S
N452 C455 1.314 . S
C453 C450 1.348 . S
C453 C455 1.353 . S
C453 H509 0.929 . S
C454 C450 1.356 . S
C454 C451 1.358 . S
C454 H510 0.930 . S
C455 N452 1.314 . S
C455 C453 1.353 . S
C455 H511 0.930 . S
C456 N457 1.314 . S
C456 C461 1.353 . S
C456 H462 0.930 . S
N457 Li440 1.990 . S
N457 C456 1.314 . S
N457 C459 1.279 . S
C458 C459 1.358 . S
C458 C460 1.356 . S
C458 H512 0.930 . S
C459 N457 1.279 . S
C459 C458 1.358 . S
C459 H463 0.930 . S
C460 C458 1.356 . S
C460 C461 1.348 . S
C461 C456 1.353 . S
C461 C460 1.348 . S
C461 H513 0.929 . S
H462 C456 0.930 . S
H463 C459 0.930 . S
C464 N465 1.314 . S
C464 C466 1.353 . S
C464 H470 0.930 . S
N465 Li441 1.990 . S
N465 C464 1.314 . S
N465 C468 1.279 . S
C466 C464 1.353 . S
C466 C469 1.348 . S
C466 H514 0.929 . S
C467 C468 1.358 . S
C467 C469 1.356 . S
C467 H515 0.930 . S
C468 N465 1.279 . S
C468 C467 1.358 . S
C468 H471 0.930 . S
C469 C466 1.348 . S
C469 C467 1.356 . S
H470 C464 0.930 . S
H471 C468 0.930 . S
C472 C474 1.348 . S
C472 C475 1.356 . S
C472 O502 1.325 . S
N473 C476 1.314 . S
N473 C477 1.279 . S
C474 C472 1.348 . S
C474 C476 1.353 . S
C474 H516 0.929 . S
C475 C472 1.356 . S
C475 C477 1.358 . S
C475 H517 0.930 . S
C476 N473 1.314 . S
C476 C474 1.353 . S
C476 H518 0.930 . S
C477 N473 1.279 . S
C477 C475 1.358 . S
C477 H519 0.930 . S
C478 C479 1.348 . S
C478 C480 1.356 . S
C478 O503 1.325 . S
C479 C478 1.348 . S
C479 C481 1.353 . S
C479 H520 0.929 . S
C480 C478 1.356 . S
C480 C482 1.358 . S
C480 H521 0.930 . S
C481 C479 1.353 . S
C481 N483 1.314 . S
C481 H522 0.930 . S
C482 C480 1.358 . S
C482 N483 1.279 . S
C482 H523 0.930 . S
N483 C481 1.314 . S
N483 C482 1.279 . S
C484 C486 1.353 . S
C484 N487 1.314 . S
C484 H490 0.930 . S
C485 N487 1.279 . S
C485 C488 1.358 . S
C485 H491 0.930 . S
C486 C484 1.353 . S
C486 C489 1.348 . S
C486 H524 0.929 . S
N487 Li442 1.990 . S
N487 C484 1.314 . S
N487 C485 1.279 . S
C488 C485 1.358 . S
C488 C489 1.356 . S
C488 H525 0.930 . S
C489 C486 1.348 . S
C489 C488 1.356 . S
H490 C484 0.930 . S
H491 C485 0.930 . S
C492 N493 1.314 . S
C492 C494 1.353 . S
C492 H498 0.930 . S
N493 Li443 1.990 . S
N493 C492 1.314 . S
N493 C496 1.279 . S
C494 C492 1.353 . S
C494 C497 1.348 . S
C494 H526 0.929 . S
C495 C496 1.358 . S
C495 C497 1.356 . S
C495 H527 0.930 . S
C496 N493 1.279 . S
C496 C495 1.358 . S
C496 H499 0.930 . S
C497 C494 1.348 . S
C497 C495 1.356 . S
H498 C492 0.930 . S
H499 C496 0.930 . S
O500 Li440 1.956 . S
O500 Li441 1.970 . S
O500 Li442 1.961 . S
O500 C444 1.325 . S
O501 Li440 1.970 . S
O501 Li441 1.956 . S
O501 Li443 1.961 . S
O501 C450 1.325 . S
O502 Li440 1.961 . S
O502 Li442 1.956 . S
O502 Li443 1.970 . S
O502 C472 1.325 . S
O503 Li441 1.961 . S
O503 Li442 1.970 . S
O503 Li443 1.956 . S
O503 C478 1.325 . S
H504 C446 0.929 . S
H505 C447 0.930 . S
H506 C448 0.930 . S
H507 C449 0.930 . S
H508 C451 0.930 . S
H509 C453 0.929 . S
H510 C454 0.930 . S
H511 C455 0.930 . S
H512 C458 0.930 . S
H513 C461 0.929 . S
H514 C466 0.929 . S
H515 C467 0.930 . S
H516 C474 0.929 . S
H517 C475 0.930 . S
H518 C476 0.930 . S
H519 C477 0.930 . S
H520 C479 0.929 . S
H521 C480 0.930 . S
H522 C481 0.930 . S
H523 C482 0.930 . S
H524 C486 0.929 . S
H525 C488 0.930 . S
H526 C494 0.929 . S
H527 C495 0.930 . S
Li528 N545 1.990 . S
Li528 O588 1.956 . S
Li528 O589 1.970 . S
Li528 O590 1.961 . S
Li529 N553 1.990 . S
Li529 O588 1.970 . S
Li529 O589 1.956 . S
Li529 O591 1.961 . S
Li530 N575 1.990 . S
Li530 O588 1.961 . S
Li530 O590 1.956 . S
Li530 O591 1.970 . S
Li531 N581 1.990 . S
Li531 O589 1.961 . S
Li531 O590 1.970 . S
Li531 O591 1.956 . S
C532 C534 1.348 . S
C532 C535 1.356 . S
C532 O588 1.325 . S
N533 C536 1.314 . S
N533 C537 1.279 . S
C534 C532 1.348 . S
C534 C536 1.353 . S
C534 H592 0.929 . S
C535 C532 1.356 . S
C535 C537 1.358 . S
C535 H593 0.930 . S
C536 N533 1.314 . S
C536 C534 1.353 . S
C536 H594 0.930 . S
C537 N533 1.279 . S
C537 C535 1.358 . S
C537 H595 0.930 . S
C538 C541 1.348 1_556 S
C538 C542 1.356 1_556 S
C538 O589 1.325 . S
C539 N540 1.279 . S
C539 C542 1.358 . S
C539 H596 0.930 . S
N540 C539 1.279 . S
N540 C543 1.314 . S
C541 C538 1.348 1_554 S
C541 C543 1.353 . S
C541 H597 0.929 . S
C542 C538 1.356 1_554 S
C542 C539 1.358 . S
C542 H598 0.930 1_554 S
C543 N540 1.314 . S
C543 C541 1.353 . S
C543 H599 0.930 . S
C544 N545 1.314 . S
C544 C549 1.353 . S
C544 H550 0.930 . S
N545 Li528 1.990 . S
N545 C544 1.314 . S
N545 C547 1.279 . S
C546 C547 1.358 . S
C546 C548 1.356 . S
C546 H600 0.930 . S
C547 N545 1.279 . S
C547 C546 1.358 . S
C547 H551 0.930 . S
C548 C546 1.356 . S
C548 C549 1.348 . S
C549 C544 1.353 . S
C549 C548 1.348 . S
C549 H601 0.929 . S
H550 C544 0.930 . S
H551 C547 0.930 . S
C552 N553 1.314 . S
C552 C554 1.353 . S
C552 H558 0.930 . S
N553 Li529 1.990 . S
N553 C552 1.314 . S
N553 C556 1.279 . S
C554 C552 1.353 . S
C554 C557 1.348 . S
C554 H602 0.929 . S
C555 C556 1.358 1_554 S
C555 C557 1.356 1_554 S
C555 H603 0.930 . S
C556 N553 1.279 . S
C556 C555 1.358 1_556 S
C556 H559 0.930 1_556 S
C557 C554 1.348 . S
C557 C555 1.356 1_556 S
H558 C552 0.930 . S
H559 C556 0.930 1_554 S
C560 C562 1.348 . S
C560 C563 1.356 . S
C560 O590 1.325 . S
N561 C564 1.314 . S
N561 C565 1.279 . S
C562 C560 1.348 . S
C562 C564 1.353 . S
C562 H604 0.929 . S
C563 C560 1.356 . S
C563 C565 1.358 . S
C563 H605 0.930 . S
C564 N561 1.314 . S
C564 C562 1.353 . S
C564 H606 0.930 . S
C565 N561 1.279 . S
C565 C563 1.358 . S
C565 H607 0.930 . S
C566 C567 1.348 . S
C566 C568 1.356 . S
C566 O591 1.325 . S
C567 C566 1.348 . S
C567 C569 1.353 . S
C567 H608 0.929 . S
C568 C566 1.356 . S
C568 C570 1.358 . S
C568 H609 0.930 . S
C569 C567 1.353 . S
C569 N571 1.314 . S
C569 H610 0.930 . S
C570 C568 1.358 . S
C570 N571 1.279 . S
C570 H611 0.930 . S
N571 C569 1.314 . S
N571 C570 1.279 . S
C572 C574 1.353 . S
C572 N575 1.314 . S
C572 H578 0.930 . S
C573 N575 1.279 . S
C573 C576 1.358 . S
C573 H579 0.930 . S
C574 C572 1.353 . S
C574 C577 1.348 . S
C574 H612 0.929 . S
N575 Li530 1.990 . S
N575 C572 1.314 . S
N575 C573 1.279 . S
C576 C573 1.358 . S
C576 C577 1.356 . S
C576 H613 0.930 . S
C577 C574 1.348 . S
C577 C576 1.356 . S
H578 C572 0.930 . S
H579 C573 0.930 . S
C580 N581 1.314 . S
C580 C582 1.353 . S
C580 H586 0.930 . S
N581 Li531 1.990 . S
N581 C580 1.314 . S
N581 C584 1.279 . S
C582 C580 1.353 . S
C582 C585 1.348 . S
C582 H614 0.929 . S
C583 C584 1.358 . S
C583 C585 1.356 . S
C583 H615 0.930 . S
C584 N581 1.279 . S
C584 C583 1.358 . S
C584 H587 0.930 . S
C585 C582 1.348 . S
C585 C583 1.356 . S
H586 C580 0.930 . S
H587 C584 0.930 . S
O588 Li528 1.956 . S
O588 Li529 1.970 . S
O588 Li530 1.961 . S
O588 C532 1.325 . S
O589 Li528 1.970 . S
O589 Li529 1.956 . S
O589 Li531 1.961 . S
O589 C538 1.325 . S
O590 Li528 1.961 . S
O590 Li530 1.956 . S
O590 Li531 1.970 . S
O590 C560 1.325 . S
O591 Li529 1.961 . S
O591 Li530 1.970 . S
O591 Li531 1.956 . S
O591 C566 1.325 . S
H592 C534 0.929 . S
H593 C535 0.930 . S
H594 C536 0.930 . S
H595 C537 0.930 . S
H596 C539 0.930 . S
H597 C541 0.929 . S
H598 C542 0.930 1_556 S
H599 C543 0.930 . S
H600 C546 0.930 . S
H601 C549 0.929 . S
H602 C554 0.929 . S
H603 C555 0.930 . S
H604 C562 0.929 . S
H605 C563 0.930 . S
H606 C564 0.930 . S
H607 C565 0.930 . S
H608 C567 0.929 . S
H609 C568 0.930 . S
H610 C569 0.930 . S
H611 C570 0.930 . S
H612 C574 0.929 . S
H613 C576 0.930 . S
H614 C582 0.929 . S
H615 C583 0.930 . S
Li616 N633 1.990 . S
Li616 O676 1.956 . S
Li616 O677 1.970 . S
Li616 O678 1.961 . S
Li617 N641 1.990 . S
Li617 O676 1.970 . S
Li617 O677 1.956 . S
Li617 O679 1.961 . S
Li618 N663 1.990 . S
Li618 O676 1.961 . S
Li618 O678 1.956 . S
Li618 O679 1.970 . S
Li619 N669 1.990 . S
Li619 O677 1.961 . S
Li619 O678 1.970 . S
Li619 O679 1.956 . S
C620 C622 1.348 . S
C620 C623 1.356 . S
C620 O676 1.325 . S
N621 C624 1.314 . S
N621 C625 1.279 . S
C622 C620 1.348 . S
C622 C624 1.353 . S
C622 H680 0.929 . S
C623 C620 1.356 . S
C623 C625 1.358 . S
C623 H681 0.930 . S
C624 N621 1.314 . S
C624 C622 1.353 . S
C624 H682 0.930 . S
C625 N621 1.279 . S
C625 C623 1.358 . S
C625 H683 0.930 . S
C626 C629 1.348 . S
C626 C630 1.356 . S
C626 O677 1.325 . S
C627 N628 1.279 . S
C627 C630 1.358 . S
C627 H684 0.930 . S
N628 C627 1.279 . S
N628 C631 1.314 . S
C629 C626 1.348 . S
C629 C631 1.353 . S
C629 H685 0.929 . S
C630 C626 1.356 . S
C630 C627 1.358 . S
C630 H686 0.930 . S
C631 N628 1.314 . S
C631 C629 1.353 . S
C631 H687 0.930 . S
C632 N633 1.314 . S
C632 C637 1.353 . S
C632 H638 0.930 . S
N633 Li616 1.990 . S
N633 C632 1.314 . S
N633 C635 1.279 . S
C634 C635 1.358 . S
C634 C636 1.356 . S
C634 H688 0.930 . S
C635 N633 1.279 . S
C635 C634 1.358 . S
C635 H639 0.930 . S
C636 C634 1.356 . S
C636 C637 1.348 . S
C637 C632 1.353 . S
C637 C636 1.348 . S
C637 H689 0.929 . S
H638 C632 0.930 . S
H639 C635 0.930 . S
C640 N641 1.314 . S
C640 C642 1.353 . S
C640 H646 0.930 . S
N641 Li617 1.990 . S
N641 C640 1.314 . S
N641 C644 1.279 . S
C642 C640 1.353 . S
C642 C645 1.348 . S
C642 H690 0.929 . S
C643 C644 1.358 . S
C643 C645 1.356 . S
C643 H691 0.930 . S
C644 N641 1.279 . S
C644 C643 1.358 . S
C644 H647 0.930 . S
C645 C642 1.348 . S
C645 C643 1.356 . S
H646 C640 0.930 . S
H647 C644 0.930 . S
C648 C650 1.348 . S
C648 C651 1.356 . S
C648 O678 1.325 . S
N649 C652 1.314 . S
N649 C653 1.279 . S
C650 C648 1.348 . S
C650 C652 1.353 . S
C650 H692 0.929 . S
C651 C648 1.356 . S
C651 C653 1.358 . S
C651 H693 0.930 . S
C652 N649 1.314 . S
C652 C650 1.353 . S
C652 H694 0.930 . S
C653 N649 1.279 . S
C653 C651 1.358 . S
C653 H695 0.930 . S
C654 C655 1.348 . S
C654 C656 1.356 . S
C654 O679 1.325 . S
C655 C654 1.348 . S
C655 C657 1.353 . S
C655 H696 0.929 . S
C656 C654 1.356 . S
C656 C658 1.358 . S
C656 H697 0.930 . S
C657 C655 1.353 . S
C657 N659 1.314 . S
C657 H698 0.930 . S
C658 C656 1.358 . S
C658 N659 1.279 . S
C658 H699 0.930 . S
N659 C657 1.314 . S
N659 C658 1.279 . S
C660 C662 1.353 . S
C660 N663 1.314 . S
C660 H666 0.930 . S
C661 N663 1.279 . S
C661 C664 1.358 . S
C661 H667 0.930 . S
C662 C660 1.353 . S
C662 C665 1.348 . S
C662 H700 0.929 . S
N663 Li618 1.990 . S
N663 C660 1.314 . S
N663 C661 1.279 . S
C664 C661 1.358 . S
C664 C665 1.356 . S
C664 H701 0.930 . S
C665 C662 1.348 . S
C665 C664 1.356 . S
H666 C660 0.930 . S
H667 C661 0.930 . S
C668 N669 1.314 . S
C668 C670 1.353 . S
C668 H674 0.930 . S
N669 Li619 1.990 . S
N669 C668 1.314 . S
N669 C672 1.279 . S
C670 C668 1.353 . S
C670 C673 1.348 . S
C670 H702 0.929 . S
C671 C672 1.358 . S
C671 C673 1.356 . S
C671 H703 0.930 . S
C672 N669 1.279 . S
C672 C671 1.358 . S
C672 H675 0.930 . S
C673 C670 1.348 . S
C673 C671 1.356 . S
H674 C668 0.930 . S
H675 C672 0.930 . S
O676 Li616 1.956 . S
O676 Li617 1.970 . S
O676 Li618 1.961 . S
O676 C620 1.325 . S
O677 Li616 1.970 . S
O677 Li617 1.956 . S
O677 Li619 1.961 . S
O677 C626 1.325 . S
O678 Li616 1.961 . S
O678 Li618 1.956 . S
O678 Li619 1.970 . S
O678 C648 1.325 . S
O679 Li617 1.961 . S
O679 Li618 1.970 . S
O679 Li619 1.956 . S
O679 C654 1.325 . S
H680 C622 0.929 . S
H681 C623 0.930 . S
H682 C624 0.930 . S
H683 C625 0.930 . S
H684 C627 0.930 . S
H685 C629 0.929 . S
H686 C630 0.930 . S
H687 C631 0.930 . S
H688 C634 0.930 . S
H689 C637 0.929 . S
H690 C642 0.929 . S
H691 C643 0.930 . S
H692 C650 0.929 . S
H693 C651 0.930 . S
H694 C652 0.930 . S
H695 C653 0.930 . S
H696 C655 0.929 . S
H697 C656 0.930 . S
H698 C657 0.930 . S
H699 C658 0.930 . S
H700 C662 0.929 . S
H701 C664 0.930 . S
H702 C670 0.929 . S
H703 C671 0.930 . S
Li704 N721 1.990 . S
Li704 O764 1.956 . S
Li704 O765 1.970 . S
Li704 O766 1.961 . S
Li705 N729 1.990 . S
Li705 O764 1.970 . S
Li705 O765 1.956 . S
Li705 O767 1.961 . S
Li706 N751 1.990 . S
Li706 O764 1.961 . S
Li706 O766 1.956 . S
Li706 O767 1.970 . S
Li707 N757 1.990 . S
Li707 O765 1.961 . S
Li707 O766 1.970 . S
Li707 O767 1.956 . S
C708 C710 1.348 . S
C708 C711 1.356 . S
C708 O764 1.325 . S
N709 C712 1.314 . S
N709 C713 1.279 . S
C710 C708 1.348 . S
C710 C712 1.353 . S
C710 H768 0.929 . S
C711 C708 1.356 . S
C711 C713 1.358 . S
C711 H769 0.930 . S
C712 N709 1.314 . S
C712 C710 1.353 . S
C712 H770 0.930 . S
C713 N709 1.279 . S
C713 C711 1.358 . S
C713 H771 0.930 . S
C714 C717 1.348 1_556 S
C714 C718 1.356 1_556 S
C714 O765 1.325 . S
C715 N716 1.279 . S
C715 C718 1.358 . S
C715 H772 0.930 . S
N716 C715 1.279 . S
N716 C719 1.314 . S
C717 C714 1.348 1_554 S
C717 C719 1.353 . S
C717 H773 0.929 . S
C718 C714 1.356 1_554 S
C718 C715 1.358 . S
C718 H774 0.930 1_554 S
C719 N716 1.314 . S
C719 C717 1.353 . S
C719 H775 0.930 . S
C720 N721 1.314 . S
C720 C725 1.353 . S
C720 H726 0.930 . S
N721 Li704 1.990 . S
N721 C720 1.314 . S
N721 C723 1.279 . S
C722 C723 1.358 . S
C722 C724 1.356 . S
C722 H776 0.930 . S
C723 N721 1.279 . S
C723 C722 1.358 . S
C723 H727 0.930 . S
C724 C722 1.356 . S
C724 C725 1.348 . S
C725 C720 1.353 . S
C725 C724 1.348 . S
C725 H777 0.929 . S
H726 C720 0.930 . S
H727 C723 0.930 . S
C728 N729 1.314 . S
C728 C730 1.353 . S
C728 H734 0.930 . S
N729 Li705 1.990 . S
N729 C728 1.314 . S
N729 C732 1.279 . S
C730 C728 1.353 . S
C730 C733 1.348 . S
C730 H778 0.929 . S
C731 C732 1.358 1_554 S
C731 C733 1.356 1_554 S
C731 H779 0.930 . S
C732 N729 1.279 . S
C732 C731 1.358 1_556 S
C732 H735 0.930 1_556 S
C733 C730 1.348 . S
C733 C731 1.356 1_556 S
H734 C728 0.930 . S
H735 C732 0.930 1_554 S
C736 C738 1.348 . S
C736 C739 1.356 . S
C736 O766 1.325 . S
N737 C740 1.314 . S
N737 C741 1.279 . S
C738 C736 1.348 . S
C738 C740 1.353 . S
C738 H780 0.929 . S
C739 C736 1.356 . S
C739 C741 1.358 . S
C739 H781 0.930 . S
C740 N737 1.314 . S
C740 C738 1.353 . S
C740 H782 0.930 . S
C741 N737 1.279 . S
C741 C739 1.358 . S
C741 H783 0.930 . S
C742 C743 1.348 . S
C742 C744 1.356 . S
C742 O767 1.325 . S
C743 C742 1.348 . S
C743 C745 1.353 . S
C743 H784 0.929 . S
C744 C742 1.356 . S
C744 C746 1.358 . S
C744 H785 0.930 . S
C745 C743 1.353 . S
C745 N747 1.314 . S
C745 H786 0.930 . S
C746 C744 1.358 . S
C746 N747 1.279 . S
C746 H787 0.930 . S
N747 C745 1.314 . S
N747 C746 1.279 . S
C748 C750 1.353 . S
C748 N751 1.314 . S
C748 H754 0.930 . S
C749 N751 1.279 . S
C749 C752 1.358 . S
C749 H755 0.930 . S
C750 C748 1.353 . S
C750 C753 1.348 . S
C750 H788 0.929 . S
N751 Li706 1.990 . S
N751 C748 1.314 . S
N751 C749 1.279 . S
C752 C749 1.358 . S
C752 C753 1.356 . S
C752 H789 0.930 . S
C753 C750 1.348 . S
C753 C752 1.356 . S
H754 C748 0.930 . S
H755 C749 0.930 . S
C756 N757 1.314 . S
C756 C758 1.353 . S
C756 H762 0.930 . S
N757 Li707 1.990 . S
N757 C756 1.314 . S
N757 C760 1.279 . S
C758 C756 1.353 . S
C758 C761 1.348 . S
C758 H790 0.929 . S
C759 C760 1.358 . S
C759 C761 1.356 . S
C759 H791 0.930 . S
C760 N757 1.279 . S
C760 C759 1.358 . S
C760 H763 0.930 . S
C761 C758 1.348 . S
C761 C759 1.356 . S
H762 C756 0.930 . S
H763 C760 0.930 . S
O764 Li704 1.956 . S
O764 Li705 1.970 . S
O764 Li706 1.961 . S
O764 C708 1.325 . S
O765 Li704 1.970 . S
O765 Li705 1.956 . S
O765 Li707 1.961 . S
O765 C714 1.325 . S
O766 Li704 1.961 . S
O766 Li706 1.956 . S
O766 Li707 1.970 . S
O766 C736 1.325 . S
O767 Li705 1.961 . S
O767 Li706 1.970 . S
O767 Li707 1.956 . S
O767 C742 1.325 . S
H768 C710 0.929 . S
H769 C711 0.930 . S
H770 C712 0.930 . S
H771 C713 0.930 . S
H772 C715 0.930 . S
H773 C717 0.929 . S
H774 C718 0.930 1_556 S
H775 C719 0.930 . S
H776 C722 0.930 . S
H777 C725 0.929 . S
H778 C730 0.929 . S
H779 C731 0.930 . S
H780 C738 0.929 . S
H781 C739 0.930 . S
H782 C740 0.930 . S
H783 C741 0.930 . S
H784 C743 0.929 . S
H785 C744 0.930 . S
H786 C745 0.930 . S
H787 C746 0.930 . S
H788 C750 0.929 . S
H789 C752 0.930 . S
H790 C758 0.929 . S
H791 C759 0.930 . S
Li792 N809 1.990 . S
Li792 O852 1.956 . S
Li792 O853 1.970 . S
Li792 O854 1.961 . S
Li793 N817 1.990 . S
Li793 O852 1.970 . S
Li793 O853 1.956 . S
Li793 O855 1.961 . S
Li794 N839 1.990 . S
Li794 O852 1.961 . S
Li794 O854 1.956 . S
Li794 O855 1.970 . S
Li795 N845 1.990 . S
Li795 O853 1.961 . S
Li795 O854 1.970 . S
Li795 O855 1.956 . S
C796 C798 1.348 . S
C796 C799 1.356 . S
C796 O852 1.325 . S
N797 C800 1.314 . S
N797 C801 1.279 . S
C798 C796 1.348 . S
C798 C800 1.353 . S
C798 H856 0.929 . S
C799 C796 1.356 . S
C799 C801 1.358 . S
C799 H857 0.930 . S
C800 N797 1.314 . S
C800 C798 1.353 . S
C800 H858 0.930 . S
C801 N797 1.279 . S
C801 C799 1.358 . S
C801 H859 0.930 . S
C802 C805 1.348 . S
C802 C806 1.356 . S
C802 O853 1.325 . S
C803 N804 1.279 . S
C803 C806 1.358 . S
C803 H860 0.930 . S
N804 C803 1.279 . S
N804 C807 1.314 . S
C805 C802 1.348 . S
C805 C807 1.353 . S
C805 H861 0.929 . S
C806 C802 1.356 . S
C806 C803 1.358 . S
C806 H862 0.930 . S
C807 N804 1.314 . S
C807 C805 1.353 . S
C807 H863 0.930 . S
C808 N809 1.314 . S
C808 C813 1.353 . S
C808 H814 0.930 . S
N809 Li792 1.990 . S
N809 C808 1.314 . S
N809 C811 1.279 . S
C810 C811 1.358 . S
C810 C812 1.356 . S
C810 H864 0.930 . S
C811 N809 1.279 . S
C811 C810 1.358 . S
C811 H815 0.930 . S
C812 C810 1.356 . S
C812 C813 1.348 . S
C813 C808 1.353 . S
C813 C812 1.348 . S
C813 H865 0.929 . S
H814 C808 0.930 . S
H815 C811 0.930 . S
C816 N817 1.314 . S
C816 C818 1.353 . S
C816 H822 0.930 . S
N817 Li793 1.990 . S
N817 C816 1.314 . S
N817 C820 1.279 . S
C818 C816 1.353 . S
C818 C821 1.348 . S
C818 H866 0.929 . S
C819 C820 1.358 . S
C819 C821 1.356 . S
C819 H867 0.930 . S
C820 N817 1.279 . S
C820 C819 1.358 . S
C820 H823 0.930 . S
C821 C818 1.348 . S
C821 C819 1.356 . S
H822 C816 0.930 . S
H823 C820 0.930 . S
C824 C826 1.348 . S
C824 C827 1.356 . S
C824 O854 1.325 . S
N825 C828 1.314 . S
N825 C829 1.279 . S
C826 C824 1.348 . S
C826 C828 1.353 . S
C826 H868 0.929 . S
C827 C824 1.356 . S
C827 C829 1.358 . S
C827 H869 0.930 . S
C828 N825 1.314 . S
C828 C826 1.353 . S
C828 H870 0.930 . S
C829 N825 1.279 . S
C829 C827 1.358 . S
C829 H871 0.930 . S
C830 C831 1.348 . S
C830 C832 1.356 . S
C830 O855 1.325 . S
C831 C830 1.348 . S
C831 C833 1.353 . S
C831 H872 0.929 . S
C832 C830 1.356 . S
C832 C834 1.358 . S
C832 H873 0.930 . S
C833 C831 1.353 . S
C833 N835 1.314 . S
C833 H874 0.930 . S
C834 C832 1.358 . S
C834 N835 1.279 . S
C834 H875 0.930 . S
N835 C833 1.314 . S
N835 C834 1.279 . S
C836 C838 1.353 . S
C836 N839 1.314 . S
C836 H842 0.930 . S
C837 N839 1.279 . S
C837 C840 1.358 . S
C837 H843 0.930 . S
C838 C836 1.353 . S
C838 C841 1.348 . S
C838 H876 0.929 . S
N839 Li794 1.990 . S
N839 C836 1.314 . S
N839 C837 1.279 . S
C840 C837 1.358 . S
C840 C841 1.356 . S
C840 H877 0.930 . S
C841 C838 1.348 . S
C841 C840 1.356 . S
H842 C836 0.930 . S
H843 C837 0.930 . S
C844 N845 1.314 . S
C844 C846 1.353 . S
C844 H850 0.930 . S
N845 Li795 1.990 . S
N845 C844 1.314 . S
N845 C848 1.279 . S
C846 C844 1.353 . S
C846 C849 1.348 . S
C846 H878 0.929 . S
C847 C848 1.358 . S
C847 C849 1.356 . S
C847 H879 0.930 . S
C848 N845 1.279 . S
C848 C847 1.358 . S
C848 H851 0.930 . S
C849 C846 1.348 . S
C849 C847 1.356 . S
H850 C844 0.930 . S
H851 C848 0.930 . S
O852 Li792 1.956 . S
O852 Li793 1.970 . S
O852 Li794 1.961 . S
O852 C796 1.325 . S
O853 Li792 1.970 . S
O853 Li793 1.956 . S
O853 Li795 1.961 . S
O853 C802 1.325 . S
O854 Li792 1.961 . S
O854 Li794 1.956 . S
O854 Li795 1.970 . S
O854 C824 1.325 . S
O855 Li793 1.961 . S
O855 Li794 1.970 . S
O855 Li795 1.956 . S
O855 C830 1.325 . S
H856 C798 0.929 . S
H857 C799 0.930 . S
H858 C800 0.930 . S
H859 C801 0.930 . S
H860 C803 0.930 . S
H861 C805 0.929 . S
H862 C806 0.930 . S
H863 C807 0.930 . S
H864 C810 0.930 . S
H865 C813 0.929 . S
H866 C818 0.929 . S
H867 C819 0.930 . S
H868 C826 0.929 . S
H869 C827 0.930 . S
H870 C828 0.930 . S
H871 C829 0.930 . S
H872 C831 0.929 . S
H873 C832 0.930 . S
H874 C833 0.930 . S
H875 C834 0.930 . S
H876 C838 0.929 . S
H877 C840 0.930 . S
H878 C846 0.929 . S
H879 C847 0.930 . S
Li880 N897 1.990 . S
Li880 O940 1.956 . S
Li880 O941 1.970 . S
Li880 O942 1.961 . S
Li881 N905 1.990 . S
Li881 O940 1.970 . S
Li881 O941 1.956 . S
Li881 O943 1.961 . S
Li882 N927 1.990 . S
Li882 O940 1.961 . S
Li882 O942 1.956 . S
Li882 O943 1.970 . S
Li883 N933 1.990 . S
Li883 O941 1.961 . S
Li883 O942 1.970 . S
Li883 O943 1.956 . S
C884 C886 1.348 . S
C884 C887 1.356 . S
C884 O940 1.325 . S
N885 C888 1.314 . S
N885 C889 1.279 . S
C886 C884 1.348 . S
C886 C888 1.353 . S
C886 H944 0.929 . S
C887 C884 1.356 . S
C887 C889 1.358 . S
C887 H945 0.930 . S
C888 N885 1.314 . S
C888 C886 1.353 . S
C888 H946 0.930 . S
C889 N885 1.279 . S
C889 C887 1.358 . S
C889 H947 0.930 . S
C890 C893 1.348 1_556 S
C890 C894 1.356 1_556 S
C890 O941 1.325 . S
C891 N892 1.279 . S
C891 C894 1.358 . S
C891 H948 0.930 . S
N892 C891 1.279 . S
N892 C895 1.314 . S
C893 C890 1.348 1_554 S
C893 C895 1.353 . S
C893 H949 0.929 . S
C894 C890 1.356 1_554 S
C894 C891 1.358 . S
C894 H950 0.930 1_554 S
C895 N892 1.314 . S
C895 C893 1.353 . S
C895 H951 0.930 . S
C896 N897 1.314 . S
C896 C901 1.353 . S
C896 H902 0.930 . S
N897 Li880 1.990 . S
N897 C896 1.314 . S
N897 C899 1.279 . S
C898 C899 1.358 . S
C898 C900 1.356 . S
C898 H952 0.930 . S
C899 N897 1.279 . S
C899 C898 1.358 . S
C899 H903 0.930 . S
C900 C898 1.356 . S
C900 C901 1.348 . S
C901 C896 1.353 . S
C901 C900 1.348 . S
C901 H953 0.929 . S
H902 C896 0.930 . S
H903 C899 0.930 . S
C904 N905 1.314 . S
C904 C906 1.353 . S
C904 H910 0.930 . S
N905 Li881 1.990 . S
N905 C904 1.314 . S
N905 C908 1.279 . S
C906 C904 1.353 . S
C906 C909 1.348 . S
C906 H954 0.929 . S
C907 C908 1.358 1_554 S
C907 C909 1.356 1_554 S
C907 H955 0.930 . S
C908 N905 1.279 . S
C908 C907 1.358 1_556 S
C908 H911 0.930 1_556 S
C909 C906 1.348 . S
C909 C907 1.356 1_556 S
H910 C904 0.930 . S
H911 C908 0.930 1_554 S
C912 C914 1.348 . S
C912 C915 1.356 . S
C912 O942 1.325 . S
N913 C916 1.314 . S
N913 C917 1.279 . S
C914 C912 1.348 . S
C914 C916 1.353 . S
C914 H956 0.929 . S
C915 C912 1.356 . S
C915 C917 1.358 . S
C915 H957 0.930 . S
C916 N913 1.314 . S
C916 C914 1.353 . S
C916 H958 0.930 . S
C917 N913 1.279 . S
C917 C915 1.358 . S
C917 H959 0.930 . S
C918 C919 1.348 . S
C918 C920 1.356 . S
C918 O943 1.325 . S
C919 C918 1.348 . S
C919 C921 1.353 . S
C919 H960 0.929 . S
C920 C918 1.356 . S
C920 C922 1.358 . S
C920 H961 0.930 . S
C921 C919 1.353 . S
C921 N923 1.314 . S
C921 H962 0.930 . S
C922 C920 1.358 . S
C922 N923 1.279 . S
C922 H963 0.930 . S
N923 C921 1.314 . S
N923 C922 1.279 . S
C924 C926 1.353 . S
C924 N927 1.314 . S
C924 H930 0.930 . S
C925 N927 1.279 . S
C925 C928 1.358 . S
C925 H931 0.930 . S
C926 C924 1.353 . S
C926 C929 1.348 . S
C926 H964 0.929 . S
N927 Li882 1.990 . S
N927 C924 1.314 . S
N927 C925 1.279 . S
C928 C925 1.358 . S
C928 C929 1.356 . S
C928 H965 0.930 . S
C929 C926 1.348 . S
C929 C928 1.356 . S
H930 C924 0.930 . S
H931 C925 0.930 . S
C932 N933 1.314 . S
C932 C934 1.353 . S
C932 H938 0.930 . S
N933 Li883 1.990 . S
N933 C932 1.314 . S
N933 C936 1.279 . S
C934 C932 1.353 . S
C934 C937 1.348 . S
C934 H966 0.929 . S
C935 C936 1.358 . S
C935 C937 1.356 . S
C935 H967 0.930 . S
C936 N933 1.279 . S
C936 C935 1.358 . S
C936 H939 0.930 . S
C937 C934 1.348 . S
C937 C935 1.356 . S
H938 C932 0.930 . S
H939 C936 0.930 . S
O940 Li880 1.956 . S
O940 Li881 1.970 . S
O940 Li882 1.961 . S
O940 C884 1.325 . S
O941 Li880 1.970 . S
O941 Li881 1.956 . S
O941 Li883 1.961 . S
O941 C890 1.325 . S
O942 Li880 1.961 . S
O942 Li882 1.956 . S
O942 Li883 1.970 . S
O942 C912 1.325 . S
O943 Li881 1.961 . S
O943 Li882 1.970 . S
O943 Li883 1.956 . S
O943 C918 1.325 . S
H944 C886 0.929 . S
H945 C887 0.930 . S
H946 C888 0.930 . S
H947 C889 0.930 . S
H948 C891 0.930 . S
H949 C893 0.929 . S
H950 C894 0.930 1_556 S
H951 C895 0.930 . S
H952 C898 0.930 . S
H953 C901 0.929 . S
H954 C906 0.929 . S
H955 C907 0.930 . S
H956 C914 0.929 . S
H957 C915 0.930 . S
H958 C916 0.930 . S
H959 C917 0.930 . S
H960 C919 0.929 . S
H961 C920 0.930 . S
H962 C921 0.930 . S
H963 C922 0.930 . S
H964 C926 0.929 . S
H965 C928 0.930 . S
H966 C934 0.929 . S
H967 C935 0.930 . S
Li968 N985 1.990 . S
Li968 O1028 1.956 . S
Li968 O1029 1.970 . S
Li968 O1030 1.961 . S
Li969 N993 1.990 . S
Li969 O1028 1.970 . S
Li969 O1029 1.956 . S
Li969 O1031 1.961 . S
Li970 N1015 1.990 . S
Li970 O1028 1.961 . S
Li970 O1030 1.956 . S
Li970 O1031 1.970 . S
Li971 N1021 1.990 . S
Li971 O1029 1.961 . S
Li971 O1030 1.970 . S
Li971 O1031 1.956 . S
C972 C974 1.348 . S
C972 C975 1.356 . S
C972 O1028 1.325 . S
N973 C976 1.314 . S
N973 C977 1.279 . S
C974 C972 1.348 . S
C974 C976 1.353 . S
C974 H1032 0.929 . S
C975 C972 1.356 . S
C975 C977 1.358 . S
C975 H1033 0.930 . S
C976 N973 1.314 . S
C976 C974 1.353 . S
C976 H1034 0.930 . S
C977 N973 1.279 . S
C977 C975 1.358 . S
C977 H1035 0.930 . S
C978 C981 1.348 . S
C978 C982 1.356 . S
C978 O1029 1.325 . S
C979 N980 1.279 . S
C979 C982 1.358 . S
C979 H1036 0.930 . S
N980 C979 1.279 . S
N980 C983 1.314 . S
C981 C978 1.348 . S
C981 C983 1.353 . S
C981 H1037 0.929 . S
C982 C978 1.356 . S
C982 C979 1.358 . S
C982 H1038 0.930 . S
C983 N980 1.314 . S
C983 C981 1.353 . S
C983 H1039 0.930 . S
C984 N985 1.314 . S
C984 C989 1.353 . S
C984 H990 0.930 . S
N985 Li968 1.990 . S
N985 C984 1.314 . S
N985 C987 1.279 . S
C986 C987 1.358 . S
C986 C988 1.356 . S
C986 H1040 0.930 . S
C987 N985 1.279 . S
C987 C986 1.358 . S
C987 H991 0.930 . S
C988 C986 1.356 . S
C988 C989 1.348 . S
C989 C984 1.353 . S
C989 C988 1.348 . S
C989 H1041 0.929 . S
H990 C984 0.930 . S
H991 C987 0.930 . S
C992 N993 1.314 . S
C992 C994 1.353 . S
C992 H998 0.930 . S
N993 Li969 1.990 . S
N993 C992 1.314 . S
N993 C996 1.279 . S
C994 C992 1.353 . S
C994 C997 1.348 . S
C994 H1042 0.929 . S
C995 C996 1.358 . S
C995 C997 1.356 . S
C995 H1043 0.930 . S
C996 N993 1.279 . S
C996 C995 1.358 . S
C996 H999 0.930 . S
C997 C994 1.348 . S
C997 C995 1.356 . S
H998 C992 0.930 . S
H999 C996 0.930 . S
C1000 C1002 1.348 . S
C1000 C1003 1.356 . S
C1000 O1030 1.325 . S
N1001 C1004 1.314 . S
N1001 C1005 1.279 . S
C1002 C1000 1.348 . S
C1002 C1004 1.353 . S
C1002 H1044 0.929 . S
C1003 C1000 1.356 . S
C1003 C1005 1.358 . S
C1003 H1045 0.930 . S
C1004 N1001 1.314 . S
C1004 C1002 1.353 . S
C1004 H1046 0.930 . S
C1005 N1001 1.279 . S
C1005 C1003 1.358 . S
C1005 H1047 0.930 . S
C1006 C1007 1.348 . S
C1006 C1008 1.356 . S
C1006 O1031 1.325 . S
C1007 C1006 1.348 . S
C1007 C1009 1.353 . S
C1007 H1048 0.929 . S
C1008 C1006 1.356 . S
C1008 C1010 1.358 . S
C1008 H1049 0.930 . S
C1009 C1007 1.353 . S
C1009 N1011 1.314 . S
C1009 H1050 0.930 . S
C1010 C1008 1.358 . S
C1010 N1011 1.279 . S
C1010 H1051 0.930 . S
N1011 C1009 1.314 . S
N1011 C1010 1.279 . S
C1012 C1014 1.353 . S
C1012 N1015 1.314 . S
C1012 H1018 0.930 . S
C1013 N1015 1.279 . S
C1013 C1016 1.358 . S
C1013 H1019 0.930 . S
C1014 C1012 1.353 . S
C1014 C1017 1.348 . S
C1014 H1052 0.929 . S
N1015 Li970 1.990 . S
N1015 C1012 1.314 . S
N1015 C1013 1.279 . S
C1016 C1013 1.358 . S
C1016 C1017 1.356 . S
C1016 H1053 0.930 . S
C1017 C1014 1.348 . S
C1017 C1016 1.356 . S
H1018 C1012 0.930 . S
H1019 C1013 0.930 . S
C1020 N1021 1.314 . S
C1020 C1022 1.353 . S
C1020 H1026 0.930 . S
N1021 Li971 1.990 . S
N1021 C1020 1.314 . S
N1021 C1024 1.279 . S
C1022 C1020 1.353 . S
C1022 C1025 1.348 . S
C1022 H1054 0.929 . S
C1023 C1024 1.358 . S
C1023 C1025 1.356 . S
C1023 H1055 0.930 . S
C1024 N1021 1.279 . S
C1024 C1023 1.358 . S
C1024 H1027 0.930 . S
C1025 C1022 1.348 . S
C1025 C1023 1.356 . S
H1026 C1020 0.930 . S
H1027 C1024 0.930 . S
O1028 Li968 1.956 . S
O1028 Li969 1.970 . S
O1028 Li970 1.961 . S
O1028 C972 1.325 . S
O1029 Li968 1.970 . S
O1029 Li969 1.956 . S
O1029 Li971 1.961 . S
O1029 C978 1.325 . S
O1030 Li968 1.961 . S
O1030 Li970 1.956 . S
O1030 Li971 1.970 . S
O1030 C1000 1.325 . S
O1031 Li969 1.961 . S
O1031 Li970 1.970 . S
O1031 Li971 1.956 . S
O1031 C1006 1.325 . S
H1032 C974 0.929 . S
H1033 C975 0.930 . S
H1034 C976 0.930 . S
H1035 C977 0.930 . S
H1036 C979 0.930 . S
H1037 C981 0.929 . S
H1038 C982 0.930 . S
H1039 C983 0.930 . S
H1040 C986 0.930 . S
H1041 C989 0.929 . S
H1042 C994 0.929 . S
H1043 C995 0.930 . S
H1044 C1002 0.929 . S
H1045 C1003 0.930 . S
H1046 C1004 0.930 . S
H1047 C1005 0.930 . S
H1048 C1007 0.929 . S
H1049 C1008 0.930 . S
H1050 C1009 0.930 . S
H1051 C1010 0.930 . S
H1052 C1014 0.929 . S
H1053 C1016 0.930 . S
H1054 C1022 0.929 . S
H1055 C1023 0.930 . S
Li1056 N1073 1.990 . S
Li1056 O1116 1.956 . S
Li1056 O1117 1.970 . S
Li1056 O1118 1.961 . S
Li1057 N1081 1.990 . S
Li1057 O1116 1.970 . S
Li1057 O1117 1.956 . S
Li1057 O1119 1.961 . S
Li1058 N1103 1.990 . S
Li1058 O1116 1.961 . S
Li1058 O1118 1.956 . S
Li1058 O1119 1.970 . S
Li1059 N1109 1.990 . S
Li1059 O1117 1.961 . S
Li1059 O1118 1.970 . S
Li1059 O1119 1.956 . S
C1060 C1062 1.348 . S
C1060 C1063 1.356 . S
C1060 O1116 1.325 . S
N1061 C1064 1.314 . S
N1061 C1065 1.279 . S
C1062 C1060 1.348 . S
C1062 C1064 1.353 . S
C1062 H1120 0.929 . S
C1063 C1060 1.356 . S
C1063 C1065 1.358 . S
C1063 H1121 0.930 . S
C1064 N1061 1.314 . S
C1064 C1062 1.353 . S
C1064 H1122 0.930 . S
C1065 N1061 1.279 . S
C1065 C1063 1.358 . S
C1065 H1123 0.930 . S
C1066 C1069 1.348 1_556 S
C1066 C1070 1.356 1_556 S
C1066 O1117 1.325 . S
C1067 N1068 1.279 . S
C1067 C1070 1.358 . S
C1067 H1124 0.930 . S
N1068 C1067 1.279 . S
N1068 C1071 1.314 . S
C1069 C1066 1.348 1_554 S
C1069 C1071 1.353 . S
C1069 H1125 0.929 1_554 S
C1070 C1066 1.356 1_554 S
C1070 C1067 1.358 . S
C1070 H1126 0.930 1_554 S
C1071 N1068 1.314 . S
C1071 C1069 1.353 . S
C1071 H1127 0.930 . S
C1072 N1073 1.314 . S
C1072 C1077 1.353 . S
C1072 H1078 0.930 . S
N1073 Li1056 1.990 . S
N1073 C1072 1.314 . S
N1073 C1075 1.279 . S
C1074 C1075 1.358 . S
C1074 C1076 1.356 . S
C1074 H1128 0.930 . S
C1075 N1073 1.279 . S
C1075 C1074 1.358 . S
C1075 H1079 0.930 . S
C1076 C1074 1.356 . S
C1076 C1077 1.348 . S
C1077 C1072 1.353 . S
C1077 C1076 1.348 . S
C1077 H1129 0.929 . S
H1078 C1072 0.930 . S
H1079 C1075 0.930 . S
C1080 N1081 1.314 . S
C1080 C1082 1.353 . S
C1080 H1086 0.930 . S
N1081 Li1057 1.990 . S
N1081 C1080 1.314 . S
N1081 C1084 1.279 . S
C1082 C1080 1.353 . S
C1082 C1085 1.348 . S
C1082 H1130 0.929 . S
C1083 C1084 1.358 . S
C1083 C1085 1.356 . S
C1083 H1131 0.930 . S
C1084 N1081 1.279 . S
C1084 C1083 1.358 . S
C1084 H1087 0.930 . S
C1085 C1082 1.348 . S
C1085 C1083 1.356 . S
H1086 C1080 0.930 . S
H1087 C1084 0.930 . S
C1088 C1090 1.348 . S
C1088 C1091 1.356 . S
C1088 O1118 1.325 . S
N1089 C1092 1.314 . S
N1089 C1093 1.279 . S
C1090 C1088 1.348 . S
C1090 C1092 1.353 . S
C1090 H1132 0.929 . S
C1091 C1088 1.356 . S
C1091 C1093 1.358 . S
C1091 H1133 0.930 . S
C1092 N1089 1.314 . S
C1092 C1090 1.353 . S
C1092 H1134 0.930 . S
C1093 N1089 1.279 . S
C1093 C1091 1.358 . S
C1093 H1135 0.930 . S
C1094 C1095 1.348 . S
C1094 C1096 1.356 . S
C1094 O1119 1.325 . S
C1095 C1094 1.348 . S
C1095 C1097 1.353 . S
C1095 H1136 0.929 . S
C1096 C1094 1.356 . S
C1096 C1098 1.358 . S
C1096 H1137 0.930 . S
C1097 C1095 1.353 . S
C1097 N1099 1.314 . S
C1097 H1138 0.930 . S
C1098 C1096 1.358 . S
C1098 N1099 1.279 . S
C1098 H1139 0.930 . S
N1099 C1097 1.314 . S
N1099 C1098 1.279 . S
C1100 C1102 1.353 . S
C1100 N1103 1.314 . S
C1100 H1106 0.930 . S
C1101 N1103 1.279 . S
C1101 C1104 1.358 . S
C1101 H1107 0.930 . S
C1102 C1100 1.353 . S
C1102 C1105 1.348 . S
C1102 H1140 0.929 . S
N1103 Li1058 1.990 . S
N1103 C1100 1.314 . S
N1103 C1101 1.279 . S
C1104 C1101 1.358 . S
C1104 C1105 1.356 . S
C1104 H1141 0.930 . S
C1105 C1102 1.348 . S
C1105 C1104 1.356 . S
H1106 C1100 0.930 . S
H1107 C1101 0.930 . S
C1108 N1109 1.314 . S
C1108 C1110 1.371 . S
C1108 H1114 0.930 . S
N1109 Li1059 1.990 . S
N1109 C1108 1.314 . S
N1109 C1112 1.279 . S
C1110 C1108 1.371 . S
C1110 C1113 1.362 . S
C1110 H1142 0.898 1_556 S
C1111 C1112 1.358 . S
C1111 C1113 1.356 . S
C1111 H1143 0.930 . S
C1112 N1109 1.279 . S
C1112 C1111 1.358 . S
C1112 H1115 0.930 . S
C1113 C1110 1.362 . S
C1113 C1111 1.356 . S
H1114 C1108 0.930 . S
H1115 C1112 0.930 . S
O1116 Li1056 1.956 . S
O1116 Li1057 1.970 . S
O1116 Li1058 1.961 . S
O1116 C1060 1.325 . S
O1117 Li1056 1.970 . S
O1117 Li1057 1.956 . S
O1117 Li1059 1.961 . S
O1117 C1066 1.325 . S
O1118 Li1056 1.961 . S
O1118 Li1058 1.956 . S
O1118 Li1059 1.970 . S
O1118 C1088 1.325 . S
O1119 Li1057 1.961 . S
O1119 Li1058 1.970 . S
O1119 Li1059 1.956 . S
O1119 C1094 1.325 . S
H1120 C1062 0.929 . S
H1121 C1063 0.930 . S
H1122 C1064 0.930 . S
H1123 C1065 0.930 . S
H1124 C1067 0.930 . S
H1125 C1069 0.929 1_556 S
H1126 C1070 0.930 1_556 S
H1127 C1071 0.930 . S
H1128 C1074 0.930 . S
H1129 C1077 0.929 . S
H1130 C1082 0.929 . S
H1131 C1083 0.930 . S
H1132 C1090 0.929 . S
H1133 C1091 0.930 . S
H1134 C1092 0.930 . S
H1135 C1093 0.930 . S
H1136 C1095 0.929 . S
H1137 C1096 0.930 . S
H1138 C1097 0.930 . S
H1139 C1098 0.930 . S
H1140 C1102 0.929 . S
H1141 C1104 0.930 . S
H1142 C1110 0.898 1_554 S
H1143 C1111 0.930 . S
Li1144 N1161 1.990 . S
Li1144 O1204 1.956 . S
Li1144 O1205 1.970 . S
Li1144 O1206 1.961 . S
Li1145 N1169 1.990 . S
Li1145 O1204 1.970 . S
Li1145 O1205 1.956 . S
Li1145 O1207 1.961 . S
Li1146 N1191 1.990 . S
Li1146 O1204 1.961 . S
Li1146 O1206 1.956 . S
Li1146 O1207 1.970 . S
Li1147 N1197 1.990 . S
Li1147 O1205 1.961 . S
Li1147 O1206 1.970 . S
Li1147 O1207 1.956 . S
C1148 C1150 1.348 . S
C1148 C1151 1.356 . S
C1148 O1204 1.325 . S
N1149 C1152 1.314 . S
N1149 C1153 1.279 . S
C1150 C1148 1.348 . S
C1150 C1152 1.353 . S
C1150 H1208 0.929 . S
C1151 C1148 1.356 . S
C1151 C1153 1.358 . S
C1151 H1209 0.930 . S
C1152 N1149 1.314 . S
C1152 C1150 1.353 . S
C1152 H1210 0.930 . S
C1153 N1149 1.279 . S
C1153 C1151 1.358 . S
C1153 H1211 0.930 . S
C1154 C1157 1.348 . S
C1154 C1158 1.356 . S
C1154 O1205 1.325 . S
C1155 N1156 1.279 . S
C1155 C1158 1.358 . S
C1155 H1212 0.930 . S
N1156 C1155 1.279 . S
N1156 C1159 1.314 . S
C1157 C1154 1.348 . S
C1157 C1159 1.353 . S
C1157 H1213 0.929 . S
C1158 C1154 1.356 . S
C1158 C1155 1.358 . S
C1158 H1214 0.930 . S
C1159 N1156 1.314 . S
C1159 C1157 1.353 . S
C1159 H1215 0.930 . S
C1160 N1161 1.314 . S
C1160 C1165 1.353 . S
C1160 H1166 0.930 . S
N1161 Li1144 1.990 . S
N1161 C1160 1.314 . S
N1161 C1163 1.279 . S
C1162 C1163 1.358 . S
C1162 C1164 1.356 . S
C1162 H1216 0.930 . S
C1163 N1161 1.279 . S
C1163 C1162 1.358 . S
C1163 H1167 0.930 . S
C1164 C1162 1.356 . S
C1164 C1165 1.348 . S
C1165 C1160 1.353 . S
C1165 C1164 1.348 . S
C1165 H1217 0.929 . S
H1166 C1160 0.930 . S
H1167 C1163 0.930 . S
C1168 N1169 1.314 . S
C1168 C1170 1.353 . S
C1168 H1174 0.930 . S
N1169 Li1145 1.990 . S
N1169 C1168 1.314 . S
N1169 C1172 1.279 . S
C1170 C1168 1.353 . S
C1170 C1173 1.348 . S
C1170 H1218 0.929 . S
C1171 C1172 1.358 . S
C1171 C1173 1.356 . S
C1171 H1219 0.930 . S
C1172 N1169 1.279 . S
C1172 C1171 1.358 . S
C1172 H1175 0.930 . S
C1173 C1170 1.348 . S
C1173 C1171 1.356 . S
H1174 C1168 0.930 . S
H1175 C1172 0.930 . S
C1176 C1178 1.348 . S
C1176 C1179 1.356 . S
C1176 O1206 1.325 . S
N1177 C1180 1.314 . S
N1177 C1181 1.279 . S
C1178 C1176 1.348 . S
C1178 C1180 1.353 . S
C1178 H1220 0.929 . S
C1179 C1176 1.356 . S
C1179 C1181 1.358 . S
C1179 H1221 0.930 . S
C1180 N1177 1.314 . S
C1180 C1178 1.353 . S
C1180 H1222 0.930 . S
C1181 N1177 1.279 . S
C1181 C1179 1.358 . S
C1181 H1223 0.930 . S
C1182 C1183 1.348 . S
C1182 C1184 1.356 . S
C1182 O1207 1.325 . S
C1183 C1182 1.348 . S
C1183 C1185 1.353 . S
C1183 H1224 0.929 . S
C1184 C1182 1.356 . S
C1184 C1186 1.358 . S
C1184 H1225 0.930 . S
C1185 C1183 1.353 . S
C1185 N1187 1.314 . S
C1185 H1226 0.930 . S
C1186 C1184 1.358 . S
C1186 N1187 1.279 . S
C1186 H1227 0.930 . S
N1187 C1185 1.314 . S
N1187 C1186 1.279 . S
C1188 C1190 1.353 . S
C1188 N1191 1.314 . S
C1188 H1194 0.930 . S
C1189 N1191 1.279 . S
C1189 C1192 1.358 . S
C1189 H1195 0.930 . S
C1190 C1188 1.353 . S
C1190 C1193 1.348 . S
C1190 H1228 0.929 . S
N1191 Li1146 1.990 . S
N1191 C1188 1.314 . S
N1191 C1189 1.279 . S
C1192 C1189 1.358 . S
C1192 C1193 1.356 . S
C1192 H1229 0.930 . S
C1193 C1190 1.348 . S
C1193 C1192 1.356 . S
H1194 C1188 0.930 . S
H1195 C1189 0.930 . S
C1196 N1197 1.314 . S
C1196 C1198 1.353 . S
C1196 H1202 0.930 . S
N1197 Li1147 1.990 . S
N1197 C1196 1.314 . S
N1197 C1200 1.279 . S
C1198 C1196 1.353 . S
C1198 C1201 1.348 . S
C1198 H1230 0.929 . S
C1199 C1200 1.358 . S
C1199 C1201 1.356 . S
C1199 H1231 0.930 . S
C1200 N1197 1.279 . S
C1200 C1199 1.358 . S
C1200 H1203 0.930 . S
C1201 C1198 1.348 . S
C1201 C1199 1.356 . S
H1202 C1196 0.930 . S
H1203 C1200 0.930 . S
O1204 Li1144 1.956 . S
O1204 Li1145 1.970 . S
O1204 Li1146 1.961 . S
O1204 C1148 1.325 . S
O1205 Li1144 1.970 . S
O1205 Li1145 1.956 . S
O1205 Li1147 1.961 . S
O1205 C1154 1.325 . S
O1206 Li1144 1.961 . S
O1206 Li1146 1.956 . S
O1206 Li1147 1.970 . S
O1206 C1176 1.325 . S
O1207 Li1145 1.961 . S
O1207 Li1146 1.970 . S
O1207 Li1147 1.956 . S
O1207 C1182 1.325 . S
H1208 C1150 0.929 . S
H1209 C1151 0.930 . S
H1210 C1152 0.930 . S
H1211 C1153 0.930 . S
H1212 C1155 0.930 . S
H1213 C1157 0.929 . S
H1214 C1158 0.930 . S
H1215 C1159 0.930 . S
H1216 C1162 0.930 . S
H1217 C1165 0.929 . S
H1218 C1170 0.929 . S
H1219 C1171 0.930 . S
H1220 C1178 0.929 . S
H1221 C1179 0.930 . S
H1222 C1180 0.930 . S
H1223 C1181 0.930 . S
H1224 C1183 0.929 . S
H1225 C1184 0.930 . S
H1226 C1185 0.930 . S
H1227 C1186 0.930 . S
H1228 C1190 0.929 . S
H1229 C1192 0.930 . S
H1230 C1198 0.929 . S
H1231 C1199 0.930 . S
Li1232 N1249 1.990 . S
Li1232 O1292 1.956 . S
Li1232 O1293 1.970 . S
Li1232 O1294 1.961 . S
Li1233 N1257 1.990 . S
Li1233 O1292 1.970 . S
Li1233 O1293 1.956 . S
Li1233 O1295 1.961 . S
Li1234 N1279 1.990 . S
Li1234 O1292 1.961 . S
Li1234 O1294 1.956 . S
Li1234 O1295 1.970 . S
Li1235 N1285 1.990 . S
Li1235 O1293 1.961 . S
Li1235 O1294 1.970 . S
Li1235 O1295 1.956 . S
C1236 C1238 1.348 . S
C1236 C1239 1.356 . S
C1236 O1292 1.325 . S
N1237 C1240 1.314 . S
N1237 C1241 1.279 . S
C1238 C1236 1.348 . S
C1238 C1240 1.353 . S
C1238 H1296 0.929 . S
C1239 C1236 1.356 . S
C1239 C1241 1.358 . S
C1239 H1297 0.930 . S
C1240 N1237 1.314 . S
C1240 C1238 1.353 . S
C1240 H1298 0.930 . S
C1241 N1237 1.279 . S
C1241 C1239 1.358 . S
C1241 H1299 0.930 . S
C1242 C1245 1.348 1_556 S
C1242 C1246 1.356 1_556 S
C1242 O1293 1.325 . S
C1243 N1244 1.279 . S
C1243 C1246 1.358 . S
C1243 H1300 0.930 . S
N1244 C1243 1.279 . S
N1244 C1247 1.314 . S
C1245 C1242 1.348 1_554 S
C1245 C1247 1.353 . S
C1245 H1301 0.929 1_554 S
C1246 C1242 1.356 1_554 S
C1246 C1243 1.358 . S
C1246 H1302 0.930 1_554 S
C1247 N1244 1.314 . S
C1247 C1245 1.353 . S
C1247 H1303 0.930 . S
C1248 N1249 1.314 . S
C1248 C1253 1.353 . S
C1248 H1254 0.930 . S
N1249 Li1232 1.990 . S
N1249 C1248 1.314 . S
N1249 C1251 1.279 . S
C1250 C1251 1.358 . S
C1250 C1252 1.356 . S
C1250 H1304 0.930 . S
C1251 N1249 1.279 . S
C1251 C1250 1.358 . S
C1251 H1255 0.930 . S
C1252 C1250 1.356 . S
C1252 C1253 1.348 . S
C1253 C1248 1.353 . S
C1253 C1252 1.348 . S
C1253 H1305 0.929 . S
H1254 C1248 0.930 . S
H1255 C1251 0.930 . S
C1256 N1257 1.314 . S
C1256 C1258 1.353 . S
C1256 H1262 0.930 . S
N1257 Li1233 1.990 . S
N1257 C1256 1.314 . S
N1257 C1260 1.279 . S
C1258 C1256 1.353 . S
C1258 C1261 1.348 . S
C1258 H1306 0.929 . S
C1259 C1260 1.358 . S
C1259 C1261 1.356 . S
C1259 H1307 0.930 . S
C1260 N1257 1.279 . S
C1260 C1259 1.358 . S
C1260 H1263 0.930 . S
C1261 C1258 1.348 . S
C1261 C1259 1.356 . S
H1262 C1256 0.930 . S
H1263 C1260 0.930 . S
C1264 C1266 1.348 . S
C1264 C1267 1.356 . S
C1264 O1294 1.325 . S
N1265 C1268 1.314 . S
N1265 C1269 1.279 . S
C1266 C1264 1.348 . S
C1266 C1268 1.353 . S
C1266 H1308 0.929 . S
C1267 C1264 1.356 . S
C1267 C1269 1.358 . S
C1267 H1309 0.930 . S
C1268 N1265 1.314 . S
C1268 C1266 1.353 . S
C1268 H1310 0.930 . S
C1269 N1265 1.279 . S
C1269 C1267 1.358 . S
C1269 H1311 0.930 . S
C1270 C1271 1.348 . S
C1270 C1272 1.356 . S
C1270 O1295 1.325 . S
C1271 C1270 1.348 . S
C1271 C1273 1.353 . S
C1271 H1312 0.929 . S
C1272 C1270 1.356 . S
C1272 C1274 1.358 . S
C1272 H1313 0.930 . S
C1273 C1271 1.353 . S
C1273 N1275 1.314 . S
C1273 H1314 0.930 . S
C1274 C1272 1.358 . S
C1274 N1275 1.279 . S
C1274 H1315 0.930 . S
N1275 C1273 1.314 . S
N1275 C1274 1.279 . S
C1276 C1278 1.353 . S
C1276 N1279 1.314 . S
C1276 H1282 0.930 . S
C1277 N1279 1.279 . S
C1277 C1280 1.358 . S
C1277 H1283 0.930 . S
C1278 C1276 1.353 . S
C1278 C1281 1.348 . S
C1278 H1316 0.929 . S
N1279 Li1234 1.990 . S
N1279 C1276 1.314 . S
N1279 C1277 1.279 . S
C1280 C1277 1.358 . S
C1280 C1281 1.356 . S
C1280 H1317 0.930 . S
C1281 C1278 1.348 . S
C1281 C1280 1.356 . S
H1282 C1276 0.930 . S
H1283 C1277 0.930 . S
C1284 N1285 1.314 . S
C1284 C1286 1.372 . S
C1284 H1290 0.930 . S
N1285 Li1235 1.990 . S
N1285 C1284 1.314 . S
N1285 C1288 1.279 . S
C1286 C1284 1.372 . S
C1286 C1289 1.362 . S
C1286 H1318 0.897 1_556 S
C1287 C1288 1.358 . S
C1287 C1289 1.356 . S
C1287 H1319 0.930 . S
C1288 N1285 1.279 . S
C1288 C1287 1.358 . S
C1288 H1291 0.930 . S
C1289 C1286 1.362 . S
C1289 C1287 1.356 . S
H1290 C1284 0.930 . S
H1291 C1288 0.930 . S
O1292 Li1232 1.956 . S
O1292 Li1233 1.970 . S
O1292 Li1234 1.961 . S
O1292 C1236 1.325 . S
O1293 Li1232 1.970 . S
O1293 Li1233 1.956 . S
O1293 Li1235 1.961 . S
O1293 C1242 1.325 . S
O1294 Li1232 1.961 . S
O1294 Li1234 1.956 . S
O1294 Li1235 1.970 . S
O1294 C1264 1.325 . S
O1295 Li1233 1.961 . S
O1295 Li1234 1.970 . S
O1295 Li1235 1.956 . S
O1295 C1270 1.325 . S
H1296 C1238 0.929 . S
H1297 C1239 0.930 . S
H1298 C1240 0.930 . S
H1299 C1241 0.930 . S
H1300 C1243 0.930 . S
H1301 C1245 0.929 1_556 S
H1302 C1246 0.930 1_556 S
H1303 C1247 0.930 . S
H1304 C1250 0.930 . S
H1305 C1253 0.929 . S
H1306 C1258 0.929 . S
H1307 C1259 0.930 . S
H1308 C1266 0.929 . S
H1309 C1267 0.930 . S
H1310 C1268 0.930 . S
H1311 C1269 0.930 . S
H1312 C1271 0.929 . S
H1313 C1272 0.930 . S
H1314 C1273 0.930 . S
H1315 C1274 0.930 . S
H1316 C1278 0.929 . S
H1317 C1280 0.930 . S
H1318 C1286 0.897 1_554 S
H1319 C1287 0.930 . S
Li1320 N1337 1.990 . S
Li1320 O1380 1.956 . S
Li1320 O1381 1.970 . S
Li1320 O1382 1.961 . S
Li1321 N1345 1.990 . S
Li1321 O1380 1.970 . S
Li1321 O1381 1.956 . S
Li1321 O1383 1.961 . S
Li1322 N1367 1.990 . S
Li1322 O1380 1.961 . S
Li1322 O1382 1.956 . S
Li1322 O1383 1.970 . S
Li1323 N1373 1.990 . S
Li1323 O1381 1.961 . S
Li1323 O1382 1.970 . S
Li1323 O1383 1.956 . S
C1324 C1326 1.348 . S
C1324 C1327 1.356 . S
C1324 O1380 1.325 . S
N1325 C1328 1.314 . S
N1325 C1329 1.279 . S
C1326 C1324 1.348 . S
C1326 C1328 1.353 . S
C1326 H1384 0.929 . S
C1327 C1324 1.356 . S
C1327 C1329 1.358 . S
C1327 H1385 0.930 . S
C1328 N1325 1.314 . S
C1328 C1326 1.353 . S
C1328 H1386 0.930 . S
C1329 N1325 1.279 . S
C1329 C1327 1.358 . S
C1329 H1387 0.930 . S
C1330 C1333 1.348 . S
C1330 C1334 1.356 . S
C1330 O1381 1.325 . S
C1331 N1332 1.279 . S
C1331 C1334 1.358 . S
C1331 H1388 0.930 . S
N1332 C1331 1.279 . S
N1332 C1335 1.314 . S
C1333 C1330 1.348 . S
C1333 C1335 1.353 . S
C1333 H1389 0.929 . S
C1334 C1330 1.356 . S
C1334 C1331 1.358 . S
C1334 H1390 0.930 . S
C1335 N1332 1.314 . S
C1335 C1333 1.353 . S
C1335 H1391 0.930 . S
C1336 N1337 1.314 . S
C1336 C1341 1.353 . S
C1336 H1342 0.930 . S
N1337 Li1320 1.990 . S
N1337 C1336 1.314 . S
N1337 C1339 1.279 . S
C1338 C1339 1.358 . S
C1338 C1340 1.356 . S
C1338 H1392 0.930 . S
C1339 N1337 1.279 . S
C1339 C1338 1.358 . S
C1339 H1343 0.930 . S
C1340 C1338 1.356 . S
C1340 C1341 1.348 . S
C1341 C1336 1.353 . S
C1341 C1340 1.348 . S
C1341 H1393 0.929 . S
H1342 C1336 0.930 . S
H1343 C1339 0.930 . S
C1344 N1345 1.314 . S
C1344 C1346 1.353 . S
C1344 H1350 0.930 . S
N1345 Li1321 1.990 . S
N1345 C1344 1.314 . S
N1345 C1348 1.279 . S
C1346 C1344 1.353 . S
C1346 C1349 1.348 . S
C1346 H1394 0.929 . S
C1347 C1348 1.358 . S
C1347 C1349 1.356 . S
C1347 H1395 0.930 . S
C1348 N1345 1.279 . S
C1348 C1347 1.358 . S
C1348 H1351 0.930 . S
C1349 C1346 1.348 . S
C1349 C1347 1.356 . S
H1350 C1344 0.930 . S
H1351 C1348 0.930 . S
C1352 C1354 1.348 . S
C1352 C1355 1.356 . S
C1352 O1382 1.325 . S
N1353 C1356 1.314 . S
N1353 C1357 1.279 . S
C1354 C1352 1.348 . S
C1354 C1356 1.353 . S
C1354 H1396 0.929 . S
C1355 C1352 1.356 . S
C1355 C1357 1.358 . S
C1355 H1397 0.930 . S
C1356 N1353 1.314 . S
C1356 C1354 1.353 . S
C1356 H1398 0.930 . S
C1357 N1353 1.279 . S
C1357 C1355 1.358 . S
C1357 H1399 0.930 . S
C1358 C1359 1.348 . S
C1358 C1360 1.356 . S
C1358 O1383 1.325 . S
C1359 C1358 1.348 . S
C1359 C1361 1.353 . S
C1359 H1400 0.929 . S
C1360 C1358 1.356 . S
C1360 C1362 1.358 . S
C1360 H1401 0.930 . S
C1361 C1359 1.353 . S
C1361 N1363 1.314 . S
C1361 H1402 0.930 . S
C1362 C1360 1.358 . S
C1362 N1363 1.279 . S
C1362 H1403 0.930 . S
N1363 C1361 1.314 . S
N1363 C1362 1.279 . S
C1364 C1366 1.353 . S
C1364 N1367 1.314 . S
C1364 H1370 0.930 . S
C1365 N1367 1.279 . S
C1365 C1368 1.358 . S
C1365 H1371 0.930 . S
C1366 C1364 1.353 . S
C1366 C1369 1.348 . S
C1366 H1404 0.929 . S
N1367 Li1322 1.990 . S
N1367 C1364 1.314 . S
N1367 C1365 1.279 . S
C1368 C1365 1.358 . S
C1368 C1369 1.356 . S
C1368 H1405 0.930 . S
C1369 C1366 1.348 . S
C1369 C1368 1.356 . S
H1370 C1364 0.930 . S
H1371 C1365 0.930 . S
C1372 N1373 1.314 . S
C1372 C1374 1.353 . S
C1372 H1378 0.930 . S
N1373 Li1323 1.990 . S
N1373 C1372 1.314 . S
N1373 C1376 1.279 . S
C1374 C1372 1.353 . S
C1374 C1377 1.348 . S
C1374 H1406 0.929 . S
C1375 C1376 1.358 . S
C1375 C1377 1.356 . S
C1375 H1407 0.930 . S
C1376 N1373 1.279 . S
C1376 C1375 1.358 . S
C1376 H1379 0.930 . S
C1377 C1374 1.348 . S
C1377 C1375 1.356 . S
H1378 C1372 0.930 . S
H1379 C1376 0.930 . S
O1380 Li1320 1.956 . S
O1380 Li1321 1.970 . S
O1380 Li1322 1.961 . S
O1380 C1324 1.325 . S
O1381 Li1320 1.970 . S
O1381 Li1321 1.956 . S
O1381 Li1323 1.961 . S
O1381 C1330 1.325 . S
O1382 Li1320 1.961 . S
O1382 Li1322 1.956 . S
O1382 Li1323 1.970 . S
O1382 C1352 1.325 . S
O1383 Li1321 1.961 . S
O1383 Li1322 1.970 . S
O1383 Li1323 1.956 . S
O1383 C1358 1.325 . S
H1384 C1326 0.929 . S
H1385 C1327 0.930 . S
H1386 C1328 0.930 . S
H1387 C1329 0.930 . S
H1388 C1331 0.930 . S
H1389 C1333 0.929 . S
H1390 C1334 0.930 . S
H1391 C1335 0.930 . S
H1392 C1338 0.930 . S
H1393 C1341 0.929 . S
H1394 C1346 0.929 . S
H1395 C1347 0.930 . S
H1396 C1354 0.929 . S
H1397 C1355 0.930 . S
H1398 C1356 0.930 . S
H1399 C1357 0.930 . S
H1400 C1359 0.929 . S
H1401 C1360 0.930 . S
H1402 C1361 0.930 . S
H1403 C1362 0.930 . S
H1404 C1366 0.929 . S
H1405 C1368 0.930 . S
H1406 C1374 0.929 . S
H1407 C1375 0.930 . S
Li1408 N1425 1.990 . S
Li1408 O1468 1.956 . S
Li1408 O1469 1.970 . S
Li1408 O1470 1.961 . S
Li1409 N1433 1.990 . S
Li1409 O1468 1.970 . S
Li1409 O1469 1.956 . S
Li1409 O1471 1.961 . S
Li1410 N1455 1.990 . S
Li1410 O1468 1.961 . S
Li1410 O1470 1.956 . S
Li1410 O1471 1.970 . S
Li1411 N1461 1.990 . S
Li1411 O1469 1.961 . S
Li1411 O1470 1.970 . S
Li1411 O1471 1.956 . S
C1412 C1414 1.348 . S
C1412 C1415 1.356 . S
C1412 O1468 1.325 . S
N1413 C1416 1.314 . S
N1413 C1417 1.279 . S
C1414 C1412 1.348 . S
C1414 C1416 1.353 . S
C1414 H1472 0.929 . S
C1415 C1412 1.356 . S
C1415 C1417 1.358 . S
C1415 H1473 0.930 . S
C1416 N1413 1.314 . S
C1416 C1414 1.353 . S
C1416 H1474 0.930 . S
C1417 N1413 1.279 . S
C1417 C1415 1.358 . S
C1417 H1475 0.930 . S
C1418 C1421 1.348 1_556 S
C1418 C1422 1.356 1_556 S
C1418 O1469 1.325 . S
C1419 N1420 1.279 . S
C1419 C1422 1.358 . S
C1419 H1476 0.930 . S
N1420 C1419 1.279 . S
N1420 C1423 1.314 . S
C1421 C1418 1.348 1_554 S
C1421 C1423 1.353 . S
C1421 H1477 0.929 1_554 S
C1422 C1418 1.356 1_554 S
C1422 C1419 1.358 . S
C1422 H1478 0.930 1_554 S
C1423 N1420 1.314 . S
C1423 C1421 1.353 . S
C1423 H1479 0.930 . S
C1424 N1425 1.314 . S
C1424 C1429 1.353 . S
C1424 H1430 0.930 . S
N1425 Li1408 1.990 . S
N1425 C1424 1.314 . S
N1425 C1427 1.279 . S
C1426 C1427 1.358 . S
C1426 C1428 1.356 . S
C1426 H1480 0.930 . S
C1427 N1425 1.279 . S
C1427 C1426 1.358 . S
C1427 H1431 0.930 . S
C1428 C1426 1.356 . S
C1428 C1429 1.348 . S
C1429 C1424 1.353 . S
C1429 C1428 1.348 . S
C1429 H1481 0.929 . S
H1430 C1424 0.930 . S
H1431 C1427 0.930 . S
C1432 N1433 1.314 . S
C1432 C1434 1.353 . S
C1432 H1438 0.930 . S
N1433 Li1409 1.990 . S
N1433 C1432 1.314 . S
N1433 C1436 1.279 . S
C1434 C1432 1.353 . S
C1434 C1437 1.348 . S
C1434 H1482 0.929 . S
C1435 C1436 1.358 . S
C1435 C1437 1.356 . S
C1435 H1483 0.930 . S
C1436 N1433 1.279 . S
C1436 C1435 1.358 . S
C1436 H1439 0.930 . S
C1437 C1434 1.348 . S
C1437 C1435 1.356 . S
H1438 C1432 0.930 . S
H1439 C1436 0.930 . S
C1440 C1442 1.348 . S
C1440 C1443 1.356 . S
C1440 O1470 1.325 . S
N1441 C1444 1.314 . S
N1441 C1445 1.279 . S
C1442 C1440 1.348 . S
C1442 C1444 1.353 . S
C1442 H1484 0.929 . S
C1443 C1440 1.356 . S
C1443 C1445 1.358 . S
C1443 H1485 0.930 . S
C1444 N1441 1.314 . S
C1444 C1442 1.353 . S
C1444 H1486 0.930 . S
C1445 N1441 1.279 . S
C1445 C1443 1.358 . S
C1445 H1487 0.930 . S
C1446 C1447 1.348 . S
C1446 C1448 1.356 . S
C1446 O1471 1.325 . S
C1447 C1446 1.348 . S
C1447 C1449 1.353 . S
C1447 H1488 0.929 . S
C1448 C1446 1.356 . S
C1448 C1450 1.358 . S
C1448 H1489 0.930 . S
C1449 C1447 1.353 . S
C1449 N1451 1.314 . S
C1449 H1490 0.930 . S
C1450 C1448 1.358 . S
C1450 N1451 1.279 . S
C1450 H1491 0.930 . S
N1451 C1449 1.314 . S
N1451 C1450 1.279 . S
C1452 C1454 1.353 . S
C1452 N1455 1.314 . S
C1452 H1458 0.930 . S
C1453 N1455 1.279 . S
C1453 C1456 1.358 . S
C1453 H1459 0.930 . S
C1454 C1452 1.353 . S
C1454 C1457 1.348 . S
C1454 H1492 0.929 . S
N1455 Li1410 1.990 . S
N1455 C1452 1.314 . S
N1455 C1453 1.279 . S
C1456 C1453 1.358 . S
C1456 C1457 1.356 . S
C1456 H1493 0.930 . S
C1457 C1454 1.348 . S
C1457 C1456 1.356 . S
H1458 C1452 0.930 . S
H1459 C1453 0.930 . S
C1460 N1461 1.314 . S
C1460 C1462 1.371 . S
C1460 H1466 0.930 . S
N1461 Li1411 1.990 . S
N1461 C1460 1.314 . S
N1461 C1464 1.279 . S
C1462 C1460 1.371 . S
C1462 C1465 1.361 . S
C1462 H1494 0.899 1_556 S
C1463 C1464 1.358 . S
C1463 C1465 1.356 . S
C1463 H1495 0.930 . S
C1464 N1461 1.279 . S
C1464 C1463 1.358 . S
C1464 H1467 0.930 . S
C1465 C1462 1.361 . S
C1465 C1463 1.356 . S
H1466 C1460 0.930 . S
H1467 C1464 0.930 . S
O1468 Li1408 1.956 . S
O1468 Li1409 1.970 . S
O1468 Li1410 1.961 . S
O1468 C1412 1.325 . S
O1469 Li1408 1.970 . S
O1469 Li1409 1.956 . S
O1469 Li1411 1.961 . S
O1469 C1418 1.325 . S
O1470 Li1408 1.961 . S
O1470 Li1410 1.956 . S
O1470 Li1411 1.970 . S
O1470 C1440 1.325 . S
O1471 Li1409 1.961 . S
O1471 Li1410 1.970 . S
O1471 Li1411 1.956 . S
O1471 C1446 1.325 . S
H1472 C1414 0.929 . S
H1473 C1415 0.930 . S
H1474 C1416 0.930 . S
H1475 C1417 0.930 . S
H1476 C1419 0.930 . S
H1477 C1421 0.929 1_556 S
H1478 C1422 0.930 1_556 S
H1479 C1423 0.930 . S
H1480 C1426 0.930 . S
H1481 C1429 0.929 . S
H1482 C1434 0.929 . S
H1483 C1435 0.930 . S
H1484 C1442 0.929 . S
H1485 C1443 0.930 . S
H1486 C1444 0.930 . S
H1487 C1445 0.930 . S
H1488 C1447 0.929 . S
H1489 C1448 0.930 . S
H1490 C1449 0.930 . S
H1491 C1450 0.930 . S
H1492 C1454 0.929 . S
H1493 C1456 0.930 . S
H1494 C1462 0.899 1_554 S
H1495 C1463 0.930 . S
Li1496 N1513 1.990 . S
Li1496 O1556 1.956 . S
Li1496 O1557 1.970 . S
Li1496 O1558 1.961 . S
Li1497 N1521 1.990 . S
Li1497 O1556 1.970 . S
Li1497 O1557 1.956 . S
Li1497 O1559 1.961 . S
Li1498 N1543 1.990 . S
Li1498 O1556 1.961 . S
Li1498 O1558 1.956 . S
Li1498 O1559 1.970 . S
Li1499 N1549 1.990 . S
Li1499 O1557 1.961 . S
Li1499 O1558 1.970 . S
Li1499 O1559 1.956 . S
C1500 C1502 1.348 . S
C1500 C1503 1.356 . S
C1500 O1556 1.325 . S
N1501 C1504 1.314 . S
N1501 C1505 1.279 . S
C1502 C1500 1.348 . S
C1502 C1504 1.353 . S
C1502 H1560 0.929 . S
C1503 C1500 1.356 . S
C1503 C1505 1.358 . S
C1503 H1561 0.930 . S
C1504 N1501 1.314 . S
C1504 C1502 1.353 . S
C1504 H1562 0.930 . S
C1505 N1501 1.279 . S
C1505 C1503 1.358 . S
C1505 H1563 0.930 . S
C1506 C1509 1.348 . S
C1506 C1510 1.356 . S
C1506 O1557 1.325 . S
C1507 N1508 1.279 . S
C1507 C1510 1.358 . S
C1507 H1564 0.930 . S
N1508 C1507 1.279 . S
N1508 C1511 1.314 . S
C1509 C1506 1.348 . S
C1509 C1511 1.353 . S
C1509 H1565 0.929 . S
C1510 C1506 1.356 . S
C1510 C1507 1.358 . S
C1510 H1566 0.930 . S
C1511 N1508 1.314 . S
C1511 C1509 1.353 . S
C1511 H1567 0.930 . S
C1512 N1513 1.314 . S
C1512 C1517 1.353 . S
C1512 H1518 0.930 . S
N1513 Li1496 1.990 . S
N1513 C1512 1.314 . S
N1513 C1515 1.279 . S
C1514 C1515 1.358 . S
C1514 C1516 1.356 . S
C1514 H1568 0.930 . S
C1515 N1513 1.279 . S
C1515 C1514 1.358 . S
C1515 H1519 0.930 . S
C1516 C1514 1.356 . S
C1516 C1517 1.348 . S
C1517 C1512 1.353 . S
C1517 C1516 1.348 . S
C1517 H1569 0.929 . S
H1518 C1512 0.930 . S
H1519 C1515 0.930 . S
C1520 N1521 1.314 . S
C1520 C1522 1.353 . S
C1520 H1526 0.930 . S
N1521 Li1497 1.990 . S
N1521 C1520 1.314 . S
N1521 C1524 1.279 . S
C1522 C1520 1.353 . S
C1522 C1525 1.348 . S
C1522 H1570 0.929 . S
C1523 C1524 1.358 . S
C1523 C1525 1.356 . S
C1523 H1571 0.930 . S
C1524 N1521 1.279 . S
C1524 C1523 1.358 . S
C1524 H1527 0.930 . S
C1525 C1522 1.348 . S
C1525 C1523 1.356 . S
H1526 C1520 0.930 . S
H1527 C1524 0.930 . S
C1528 C1530 1.348 . S
C1528 C1531 1.356 . S
C1528 O1558 1.325 . S
N1529 C1532 1.314 . S
N1529 C1533 1.279 . S
C1530 C1528 1.348 . S
C1530 C1532 1.353 . S
C1530 H1572 0.929 . S
C1531 C1528 1.356 . S
C1531 C1533 1.358 . S
C1531 H1573 0.930 . S
C1532 N1529 1.314 . S
C1532 C1530 1.353 . S
C1532 H1574 0.930 . S
C1533 N1529 1.279 . S
C1533 C1531 1.358 . S
C1533 H1575 0.930 . S
C1534 C1535 1.348 . S
C1534 C1536 1.356 . S
C1534 O1559 1.325 . S
C1535 C1534 1.348 . S
C1535 C1537 1.353 . S
C1535 H1576 0.929 . S
C1536 C1534 1.356 . S
C1536 C1538 1.358 . S
C1536 H1577 0.930 . S
C1537 C1535 1.353 . S
C1537 N1539 1.314 . S
C1537 H1578 0.930 . S
C1538 C1536 1.358 . S
C1538 N1539 1.279 . S
C1538 H1579 0.930 . S
N1539 C1537 1.314 . S
N1539 C1538 1.279 . S
C1540 C1542 1.353 . S
C1540 N1543 1.314 . S
C1540 H1546 0.930 . S
C1541 N1543 1.279 . S
C1541 C1544 1.358 . S
C1541 H1547 0.930 . S
C1542 C1540 1.353 . S
C1542 C1545 1.348 . S
C1542 H1580 0.929 . S
N1543 Li1498 1.990 . S
N1543 C1540 1.314 . S
N1543 C1541 1.279 . S
C1544 C1541 1.358 . S
C1544 C1545 1.356 . S
C1544 H1581 0.930 . S
C1545 C1542 1.348 . S
C1545 C1544 1.356 . S
H1546 C1540 0.930 . S
H1547 C1541 0.930 . S
C1548 N1549 1.314 . S
C1548 C1550 1.353 . S
C1548 H1554 0.930 . S
N1549 Li1499 1.990 . S
N1549 C1548 1.314 . S
N1549 C1552 1.279 . S
C1550 C1548 1.353 . S
C1550 C1553 1.348 . S
C1550 H1582 0.929 . S
C1551 C1552 1.358 . S
C1551 C1553 1.356 . S
C1551 H1583 0.930 . S
C1552 N1549 1.279 . S
C1552 C1551 1.358 . S
C1552 H1555 0.930 . S
C1553 C1550 1.348 . S
C1553 C1551 1.356 . S
H1554 C1548 0.930 . S
H1555 C1552 0.930 . S
O1556 Li1496 1.956 . S
O1556 Li1497 1.970 . S
O1556 Li1498 1.961 . S
O1556 C1500 1.325 . S
O1557 Li1496 1.970 . S
O1557 Li1497 1.956 . S
O1557 Li1499 1.961 . S
O1557 C1506 1.325 . S
O1558 Li1496 1.961 . S
O1558 Li1498 1.956 . S
O1558 Li1499 1.970 . S
O1558 C1528 1.325 . S
O1559 Li1497 1.961 . S
O1559 Li1498 1.970 . S
O1559 Li1499 1.956 . S
O1559 C1534 1.325 . S
H1560 C1502 0.929 . S
H1561 C1503 0.930 . S
H1562 C1504 0.930 . S
H1563 C1505 0.930 . S
H1564 C1507 0.930 . S
H1565 C1509 0.929 . S
H1566 C1510 0.930 . S
H1567 C1511 0.930 . S
H1568 C1514 0.930 . S
H1569 C1517 0.929 . S
H1570 C1522 0.929 . S
H1571 C1523 0.930 . S
H1572 C1530 0.929 . S
H1573 C1531 0.930 . S
H1574 C1532 0.930 . S
H1575 C1533 0.930 . S
H1576 C1535 0.929 . S
H1577 C1536 0.930 . S
H1578 C1537 0.930 . S
H1579 C1538 0.930 . S
H1580 C1542 0.929 . S
H1581 C1544 0.930 . S
H1582 C1550 0.929 . S
H1583 C1551 0.930 . S
Li1584 N1601 1.990 . S
Li1584 O1644 1.956 . S
Li1584 O1645 1.970 . S
Li1584 O1646 1.961 . S
Li1585 N1609 1.990 . S
Li1585 O1644 1.970 . S
Li1585 O1645 1.956 . S
Li1585 O1647 1.961 . S
Li1586 N1631 1.990 . S
Li1586 O1644 1.961 . S
Li1586 O1646 1.956 . S
Li1586 O1647 1.970 . S
Li1587 N1637 1.990 . S
Li1587 O1645 1.961 . S
Li1587 O1646 1.970 . S
Li1587 O1647 1.956 . S
C1588 C1590 1.348 1_554 S
C1588 C1591 1.356 1_554 S
C1588 O1644 1.325 . S
N1589 C1592 1.314 . S
N1589 C1593 1.279 . S
C1590 C1588 1.348 1_556 S
C1590 C1592 1.353 . S
C1590 H1648 0.929 1_556 S
C1591 C1588 1.356 1_556 S
C1591 C1593 1.358 . S
C1591 H1649 0.930 1_556 S
C1592 N1589 1.314 . S
C1592 C1590 1.353 . S
C1592 H1650 0.930 . S
C1593 N1589 1.279 . S
C1593 C1591 1.358 . S
C1593 H1651 0.930 . S
C1594 C1597 1.348 . S
C1594 C1598 1.356 . S
C1594 O1645 1.325 . S
C1595 N1596 1.279 . S
C1595 C1598 1.358 . S
C1595 H1652 0.930 . S
N1596 C1595 1.279 . S
N1596 C1599 1.314 . S
C1597 C1594 1.348 . S
C1597 C1599 1.353 . S
C1597 H1653 0.929 . S
C1598 C1594 1.356 . S
C1598 C1595 1.358 . S
C1598 H1654 0.930 . S
C1599 N1596 1.314 . S
C1599 C1597 1.353 . S
C1599 H1655 0.930 . S
C1600 N1601 1.314 . S
C1600 C1605 1.353 . S
C1600 H1606 0.930 . S
N1601 Li1584 1.990 . S
N1601 C1600 1.314 . S
N1601 C1603 1.279 . S
C1602 C1603 1.358 . S
C1602 C1604 1.356 . S
C1602 H1656 0.930 . S
C1603 N1601 1.279 . S
C1603 C1602 1.358 . S
C1603 H1607 0.930 . S
C1604 C1602 1.356 . S
C1604 C1605 1.348 . S
C1605 C1600 1.353 . S
C1605 C1604 1.348 . S
C1605 H1657 0.929 . S
H1606 C1600 0.930 . S
H1607 C1603 0.930 . S
C1608 N1609 1.314 . S
C1608 C1610 1.353 . S
C1608 H1614 0.930 . S
N1609 Li1585 1.990 . S
N1609 C1608 1.314 . S
N1609 C1612 1.279 . S
C1610 C1608 1.353 . S
C1610 C1613 1.348 . S
C1610 H1658 0.929 . S
C1611 C1612 1.358 . S
C1611 C1613 1.356 . S
C1611 H1659 0.930 . S
C1612 N1609 1.279 . S
C1612 C1611 1.358 . S
C1612 H1615 0.930 . S
C1613 C1610 1.348 . S
C1613 C1611 1.356 . S
H1614 C1608 0.930 . S
H1615 C1612 0.930 . S
C1616 C1618 1.348 . S
C1616 C1619 1.356 . S
C1616 O1646 1.325 . S
N1617 C1620 1.314 . S
N1617 C1621 1.279 . S
C1618 C1616 1.348 . S
C1618 C1620 1.353 . S
C1618 H1660 0.929 . S
C1619 C1616 1.356 . S
C1619 C1621 1.358 . S
C1619 H1661 0.930 . S
C1620 N1617 1.314 . S
C1620 C1618 1.353 . S
C1620 H1662 0.930 . S
C1621 N1617 1.279 . S
C1621 C1619 1.358 . S
C1621 H1663 0.930 . S
C1622 C1623 1.348 . S
C1622 C1624 1.356 . S
C1622 O1647 1.325 . S
C1623 C1622 1.348 . S
C1623 C1625 1.353 . S
C1623 H1664 0.929 . S
C1624 C1622 1.356 . S
C1624 C1626 1.358 . S
C1624 H1665 0.930 . S
C1625 C1623 1.353 . S
C1625 N1627 1.314 . S
C1625 H1666 0.930 . S
C1626 C1624 1.358 . S
C1626 N1627 1.279 . S
C1626 H1667 0.930 . S
N1627 C1625 1.314 . S
N1627 C1626 1.279 . S
C1628 C1630 1.371 . S
C1628 N1631 1.314 . S
C1628 H1634 0.930 . S
C1629 N1631 1.279 . S
C1629 C1632 1.358 . S
C1629 H1635 0.930 . S
C1630 C1628 1.371 . S
C1630 C1633 1.362 . S
C1630 H1668 0.898 1_554 S
N1631 Li1586 1.990 . S
N1631 C1628 1.314 . S
N1631 C1629 1.279 . S
C1632 C1629 1.358 . S
C1632 C1633 1.356 . S
C1632 H1669 0.930 . S
C1633 C1630 1.362 . S
C1633 C1632 1.356 . S
H1634 C1628 0.930 . S
H1635 C1629 0.930 . S
C1636 N1637 1.314 . S
C1636 C1638 1.353 . S
C1636 H1642 0.930 . S
N1637 Li1587 1.990 . S
N1637 C1636 1.314 . S
N1637 C1640 1.279 . S
C1638 C1636 1.353 . S
C1638 C1641 1.348 . S
C1638 H1670 0.929 . S
C1639 C1640 1.358 . S
C1639 C1641 1.356 . S
C1639 H1671 0.930 . S
C1640 N1637 1.279 . S
C1640 C1639 1.358 . S
C1640 H1643 0.930 . S
C1641 C1638 1.348 . S
C1641 C1639 1.356 . S
H1642 C1636 0.930 . S
H1643 C1640 0.930 . S
O1644 Li1584 1.956 . S
O1644 Li1585 1.970 . S
O1644 Li1586 1.961 . S
O1644 C1588 1.325 . S
O1645 Li1584 1.970 . S
O1645 Li1585 1.956 . S
O1645 Li1587 1.961 . S
O1645 C1594 1.325 . S
O1646 Li1584 1.961 . S
O1646 Li1586 1.956 . S
O1646 Li1587 1.970 . S
O1646 C1616 1.325 . S
O1647 Li1585 1.961 . S
O1647 Li1586 1.970 . S
O1647 Li1587 1.956 . S
O1647 C1622 1.325 . S
H1648 C1590 0.929 1_554 S
H1649 C1591 0.930 1_554 S
H1650 C1592 0.930 . S
H1651 C1593 0.930 . S
H1652 C1595 0.930 . S
H1653 C1597 0.929 . S
H1654 C1598 0.930 . S
H1655 C1599 0.930 . S
H1656 C1602 0.930 . S
H1657 C1605 0.929 . S
H1658 C1610 0.929 . S
H1659 C1611 0.930 . S
H1660 C1618 0.929 . S
H1661 C1619 0.930 . S
H1662 C1620 0.930 . S
H1663 C1621 0.930 . S
H1664 C1623 0.929 . S
H1665 C1624 0.930 . S
H1666 C1625 0.930 . S
H1667 C1626 0.930 . S
H1668 C1630 0.898 1_556 S
H1669 C1632 0.930 . S
H1670 C1638 0.929 . S
H1671 C1639 0.930 . S
Li1672 N1689 1.990 . S
Li1672 O1732 1.956 . S
Li1672 O1733 1.970 . S
Li1672 O1734 1.961 . S
Li1673 N1697 1.990 . S
Li1673 O1732 1.970 . S
Li1673 O1733 1.956 . S
Li1673 O1735 1.961 . S
Li1674 N1719 1.990 . S
Li1674 O1732 1.961 . S
Li1674 O1734 1.956 . S
Li1674 O1735 1.970 . S
Li1675 N1725 1.990 . S
Li1675 O1733 1.961 . S
Li1675 O1734 1.970 . S
Li1675 O1735 1.956 . S
C1676 C1678 1.348 . S
C1676 C1679 1.356 . S
C1676 O1732 1.325 . S
N1677 C1680 1.314 . S
N1677 C1681 1.279 . S
C1678 C1676 1.348 . S
C1678 C1680 1.353 . S
C1678 H1736 0.929 . S
C1679 C1676 1.356 . S
C1679 C1681 1.358 . S
C1679 H1737 0.930 . S
C1680 N1677 1.314 . S
C1680 C1678 1.353 . S
C1680 H1738 0.930 . S
C1681 N1677 1.279 . S
C1681 C1679 1.358 . S
C1681 H1739 0.930 . S
C1682 C1685 1.348 . S
C1682 C1686 1.356 . S
C1682 O1733 1.325 . S
C1683 N1684 1.279 . S
C1683 C1686 1.358 . S
C1683 H1740 0.930 . S
N1684 C1683 1.279 . S
N1684 C1687 1.314 . S
C1685 C1682 1.348 . S
C1685 C1687 1.353 . S
C1685 H1741 0.929 . S
C1686 C1682 1.356 . S
C1686 C1683 1.358 . S
C1686 H1742 0.930 . S
C1687 N1684 1.314 . S
C1687 C1685 1.353 . S
C1687 H1743 0.930 . S
C1688 N1689 1.314 . S
C1688 C1693 1.353 . S
C1688 H1694 0.930 . S
N1689 Li1672 1.990 . S
N1689 C1688 1.314 . S
N1689 C1691 1.279 . S
C1690 C1691 1.358 . S
C1690 C1692 1.356 . S
C1690 H1744 0.930 . S
C1691 N1689 1.279 . S
C1691 C1690 1.358 . S
C1691 H1695 0.930 . S
C1692 C1690 1.356 . S
C1692 C1693 1.348 . S
C1693 C1688 1.353 . S
C1693 C1692 1.348 . S
C1693 H1745 0.929 . S
H1694 C1688 0.930 . S
H1695 C1691 0.930 . S
C1696 N1697 1.314 . S
C1696 C1698 1.353 . S
C1696 H1702 0.930 . S
N1697 Li1673 1.990 . S
N1697 C1696 1.314 . S
N1697 C1700 1.279 . S
C1698 C1696 1.353 . S
C1698 C1701 1.348 . S
C1698 H1746 0.929 . S
C1699 C1700 1.358 . S
C1699 C1701 1.356 . S
C1699 H1747 0.930 . S
C1700 N1697 1.279 . S
C1700 C1699 1.358 . S
C1700 H1703 0.930 . S
C1701 C1698 1.348 . S
C1701 C1699 1.356 . S
H1702 C1696 0.930 . S
H1703 C1700 0.930 . S
C1704 C1706 1.348 . S
C1704 C1707 1.356 . S
C1704 O1734 1.325 . S
N1705 C1708 1.314 . S
N1705 C1709 1.279 . S
C1706 C1704 1.348 . S
C1706 C1708 1.353 . S
C1706 H1748 0.929 . S
C1707 C1704 1.356 . S
C1707 C1709 1.358 . S
C1707 H1749 0.930 . S
C1708 N1705 1.314 . S
C1708 C1706 1.353 . S
C1708 H1750 0.930 . S
C1709 N1705 1.279 . S
C1709 C1707 1.358 . S
C1709 H1751 0.930 . S
C1710 C1711 1.348 . S
C1710 C1712 1.356 . S
C1710 O1735 1.325 . S
C1711 C1710 1.348 . S
C1711 C1713 1.353 . S
C1711 H1752 0.929 . S
C1712 C1710 1.356 . S
C1712 C1714 1.358 . S
C1712 H1753 0.930 . S
C1713 C1711 1.353 . S
C1713 N1715 1.314 . S
C1713 H1754 0.930 . S
C1714 C1712 1.358 . S
C1714 N1715 1.279 . S
C1714 H1755 0.930 . S
N1715 C1713 1.314 . S
N1715 C1714 1.279 . S
C1716 C1718 1.353 . S
C1716 N1719 1.314 . S
C1716 H1722 0.930 . S
C1717 N1719 1.279 . S
C1717 C1720 1.358 . S
C1717 H1723 0.930 . S
C1718 C1716 1.353 . S
C1718 C1721 1.348 . S
C1718 H1756 0.929 . S
N1719 Li1674 1.990 . S
N1719 C1716 1.314 . S
N1719 C1717 1.279 . S
C1720 C1717 1.358 . S
C1720 C1721 1.356 . S
C1720 H1757 0.930 . S
C1721 C1718 1.348 . S
C1721 C1720 1.356 . S
H1722 C1716 0.930 . S
H1723 C1717 0.930 . S
C1724 N1725 1.314 . S
C1724 C1726 1.353 . S
C1724 H1730 0.930 . S
N1725 Li1675 1.990 . S
N1725 C1724 1.314 . S
N1725 C1728 1.279 . S
C1726 C1724 1.353 . S
C1726 C1729 1.348 . S
C1726 H1758 0.929 . S
C1727 C1728 1.358 . S
C1727 C1729 1.356 . S
C1727 H1759 0.930 . S
C1728 N1725 1.279 . S
C1728 C1727 1.358 . S
C1728 H1731 0.930 . S
C1729 C1726 1.348 . S
C1729 C1727 1.356 . S
H1730 C1724 0.930 . S
H1731 C1728 0.930 . S
O1732 Li1672 1.956 . S
O1732 Li1673 1.970 . S
O1732 Li1674 1.961 . S
O1732 C1676 1.325 . S
O1733 Li1672 1.970 . S
O1733 Li1673 1.956 . S
O1733 Li1675 1.961 . S
O1733 C1682 1.325 . S
O1734 Li1672 1.961 . S
O1734 Li1674 1.956 . S
O1734 Li1675 1.970 . S
O1734 C1704 1.325 . S
O1735 Li1673 1.961 . S
O1735 Li1674 1.970 . S
O1735 Li1675 1.956 . S
O1735 C1710 1.325 . S
H1736 C1678 0.929 . S
H1737 C1679 0.930 . S
H1738 C1680 0.930 . S
H1739 C1681 0.930 . S
H1740 C1683 0.930 . S
H1741 C1685 0.929 . S
H1742 C1686 0.930 . S
H1743 C1687 0.930 . S
H1744 C1690 0.930 . S
H1745 C1693 0.929 . S
H1746 C1698 0.929 . S
H1747 C1699 0.930 . S
H1748 C1706 0.929 . S
H1749 C1707 0.930 . S
H1750 C1708 0.930 . S
H1751 C1709 0.930 . S
H1752 C1711 0.929 . S
H1753 C1712 0.930 . S
H1754 C1713 0.930 . S
H1755 C1714 0.930 . S
H1756 C1718 0.929 . S
H1757 C1720 0.930 . S
H1758 C1726 0.929 . S
H1759 C1727 0.930 . S
Li1760 N1777 1.990 . S
Li1760 O1820 1.956 . S
Li1760 O1821 1.970 . S
Li1760 O1822 1.961 . S
Li1761 N1785 1.990 . S
Li1761 O1820 1.970 . S
Li1761 O1821 1.956 . S
Li1761 O1823 1.961 . S
Li1762 N1807 1.990 . S
Li1762 O1820 1.961 . S
Li1762 O1822 1.956 . S
Li1762 O1823 1.970 . S
Li1763 N1813 1.990 . S
Li1763 O1821 1.961 . S
Li1763 O1822 1.970 . S
Li1763 O1823 1.956 . S
C1764 C1766 1.348 . S
C1764 C1767 1.356 . S
C1764 O1820 1.325 . S
N1765 C1768 1.314 . S
N1765 C1769 1.279 . S
C1766 C1764 1.348 . S
C1766 C1768 1.353 . S
C1766 H1824 0.929 . S
C1767 C1764 1.356 . S
C1767 C1769 1.358 . S
C1767 H1825 0.930 . S
C1768 N1765 1.314 . S
C1768 C1766 1.353 . S
C1768 H1826 0.930 . S
C1769 N1765 1.279 . S
C1769 C1767 1.358 . S
C1769 H1827 0.930 . S
C1770 C1773 1.348 . S
C1770 C1774 1.356 . S
C1770 O1821 1.325 . S
C1771 N1772 1.279 . S
C1771 C1774 1.358 . S
C1771 H1828 0.930 . S
N1772 C1771 1.279 . S
N1772 C1775 1.314 . S
C1773 C1770 1.348 . S
C1773 C1775 1.353 . S
C1773 H1829 0.929 . S
C1774 C1770 1.356 . S
C1774 C1771 1.358 . S
C1774 H1830 0.930 . S
C1775 N1772 1.314 . S
C1775 C1773 1.353 . S
C1775 H1831 0.930 . S
C1776 N1777 1.314 . S
C1776 C1781 1.371 . S
C1776 H1782 0.930 . S
N1777 Li1760 1.990 . S
N1777 C1776 1.314 . S
N1777 C1779 1.279 . S
C1778 C1779 1.358 . S
C1778 C1780 1.356 . S
C1778 H1832 0.930 . S
C1779 N1777 1.279 . S
C1779 C1778 1.358 . S
C1779 H1783 0.930 . S
C1780 C1778 1.356 . S
C1780 C1781 1.361 . S
C1781 C1776 1.371 . S
C1781 C1780 1.361 . S
C1781 H1833 0.899 1_554 S
H1782 C1776 0.930 . S
H1783 C1779 0.930 . S
C1784 N1785 1.314 . S
C1784 C1786 1.353 . S
C1784 H1790 0.930 . S
N1785 Li1761 1.990 . S
N1785 C1784 1.314 . S
N1785 C1788 1.279 . S
C1786 C1784 1.353 . S
C1786 C1789 1.348 . S
C1786 H1834 0.929 . S
C1787 C1788 1.358 . S
C1787 C1789 1.356 . S
C1787 H1835 0.930 . S
C1788 N1785 1.279 . S
C1788 C1787 1.358 . S
C1788 H1791 0.930 . S
C1789 C1786 1.348 . S
C1789 C1787 1.356 . S
H1790 C1784 0.930 . S
H1791 C1788 0.930 . S
C1792 C1794 1.348 1_554 S
C1792 C1795 1.356 1_554 S
C1792 O1822 1.325 . S
N1793 C1796 1.314 . S
N1793 C1797 1.279 . S
C1794 C1792 1.348 1_556 S
C1794 C1796 1.353 . S
C1794 H1836 0.929 1_556 S
C1795 C1792 1.356 1_556 S
C1795 C1797 1.358 . S
C1795 H1837 0.930 1_556 S
C1796 N1793 1.314 . S
C1796 C1794 1.353 . S
C1796 H1838 0.930 . S
C1797 N1793 1.279 . S
C1797 C1795 1.358 . S
C1797 H1839 0.930 . S
C1798 C1799 1.348 . S
C1798 C1800 1.356 . S
C1798 O1823 1.325 . S
C1799 C1798 1.348 . S
C1799 C1801 1.353 . S
C1799 H1840 0.929 . S
C1800 C1798 1.356 . S
C1800 C1802 1.358 . S
C1800 H1841 0.930 . S
C1801 C1799 1.353 . S
C1801 N1803 1.314 . S
C1801 H1842 0.930 . S
C1802 C1800 1.358 . S
C1802 N1803 1.279 . S
C1802 H1843 0.930 . S
N1803 C1801 1.314 . S
N1803 C1802 1.279 . S
C1804 C1806 1.353 . S
C1804 N1807 1.314 . S
C1804 H1810 0.930 . S
C1805 N1807 1.279 . S
C1805 C1808 1.358 . S
C1805 H1811 0.930 . S
C1806 C1804 1.353 . S
C1806 C1809 1.348 . S
C1806 H1844 0.929 . S
N1807 Li1762 1.990 . S
N1807 C1804 1.314 . S
N1807 C1805 1.279 . S
C1808 C1805 1.358 . S
C1808 C1809 1.356 . S
C1808 H1845 0.930 . S
C1809 C1806 1.348 . S
C1809 C1808 1.356 . S
H1810 C1804 0.930 . S
H1811 C1805 0.930 . S
C1812 N1813 1.314 . S
C1812 C1814 1.353 . S
C1812 H1818 0.930 . S
N1813 Li1763 1.990 . S
N1813 C1812 1.314 . S
N1813 C1816 1.279 . S
C1814 C1812 1.353 . S
C1814 C1817 1.348 . S
C1814 H1846 0.929 . S
C1815 C1816 1.358 . S
C1815 C1817 1.356 . S
C1815 H1847 0.930 . S
C1816 N1813 1.279 . S
C1816 C1815 1.358 . S
C1816 H1819 0.930 . S
C1817 C1814 1.348 . S
C1817 C1815 1.356 . S
H1818 C1812 0.930 . S
H1819 C1816 0.930 . S
O1820 Li1760 1.956 . S
O1820 Li1761 1.970 . S
O1820 Li1762 1.961 . S
O1820 C1764 1.325 . S
O1821 Li1760 1.970 . S
O1821 Li1761 1.956 . S
O1821 Li1763 1.961 . S
O1821 C1770 1.325 . S
O1822 Li1760 1.961 . S
O1822 Li1762 1.956 . S
O1822 Li1763 1.970 . S
O1822 C1792 1.325 . S
O1823 Li1761 1.961 . S
O1823 Li1762 1.970 . S
O1823 Li1763 1.956 . S
O1823 C1798 1.325 . S
H1824 C1766 0.929 . S
H1825 C1767 0.930 . S
H1826 C1768 0.930 . S
H1827 C1769 0.930 . S
H1828 C1771 0.930 . S
H1829 C1773 0.929 . S
H1830 C1774 0.930 . S
H1831 C1775 0.930 . S
H1832 C1778 0.930 . S
H1833 C1781 0.899 1_556 S
H1834 C1786 0.929 . S
H1835 C1787 0.930 . S
H1836 C1794 0.929 1_554 S
H1837 C1795 0.930 1_554 S
H1838 C1796 0.930 . S
H1839 C1797 0.930 . S
H1840 C1799 0.929 . S
H1841 C1800 0.930 . S
H1842 C1801 0.930 . S
H1843 C1802 0.930 . S
H1844 C1806 0.929 . S
H1845 C1808 0.930 . S
H1846 C1814 0.929 . S
H1847 C1815 0.930 . S
Li1848 N1865 1.990 . S
Li1848 O1908 1.956 . S
Li1848 O1909 1.970 . S
Li1848 O1910 1.961 . S
Li1849 N1873 1.990 . S
Li1849 O1908 1.970 . S
Li1849 O1909 1.956 . S
Li1849 O1911 1.961 . S
Li1850 N1895 1.990 . S
Li1850 O1908 1.961 . S
Li1850 O1910 1.956 . S
Li1850 O1911 1.970 . S
Li1851 N1901 1.990 . S
Li1851 O1909 1.961 . S
Li1851 O1910 1.970 . S
Li1851 O1911 1.956 . S
C1852 C1854 1.348 . S
C1852 C1855 1.356 . S
C1852 O1908 1.325 . S
N1853 C1856 1.314 . S
N1853 C1857 1.279 . S
C1854 C1852 1.348 . S
C1854 C1856 1.353 . S
C1854 H1912 0.929 . S
C1855 C1852 1.356 . S
C1855 C1857 1.358 . S
C1855 H1913 0.930 . S
C1856 N1853 1.314 . S
C1856 C1854 1.353 . S
C1856 H1914 0.930 . S
C1857 N1853 1.279 . S
C1857 C1855 1.358 . S
C1857 H1915 0.930 . S
C1858 C1861 1.348 . S
C1858 C1862 1.356 . S
C1858 O1909 1.325 . S
C1859 N1860 1.279 . S
C1859 C1862 1.358 . S
C1859 H1916 0.930 . S
N1860 C1859 1.279 . S
N1860 C1863 1.314 . S
C1861 C1858 1.348 . S
C1861 C1863 1.353 . S
C1861 H1917 0.929 . S
C1862 C1858 1.356 . S
C1862 C1859 1.358 . S
C1862 H1918 0.930 . S
C1863 N1860 1.314 . S
C1863 C1861 1.353 . S
C1863 H1919 0.930 . S
C1864 N1865 1.314 . S
C1864 C1869 1.353 . S
C1864 H1870 0.930 . S
N1865 Li1848 1.990 . S
N1865 C1864 1.314 . S
N1865 C1867 1.279 . S
C1866 C1867 1.358 . S
C1866 C1868 1.356 . S
C1866 H1920 0.930 . S
C1867 N1865 1.279 . S
C1867 C1866 1.358 . S
C1867 H1871 0.930 . S
C1868 C1866 1.356 . S
C1868 C1869 1.348 . S
C1869 C1864 1.353 . S
C1869 C1868 1.348 . S
C1869 H1921 0.929 . S
H1870 C1864 0.930 . S
H1871 C1867 0.930 . S
C1872 N1873 1.314 . S
C1872 C1874 1.353 . S
C1872 H1878 0.930 . S
N1873 Li1849 1.990 . S
N1873 C1872 1.314 . S
N1873 C1876 1.279 . S
C1874 C1872 1.353 . S
C1874 C1877 1.348 . S
C1874 H1922 0.929 . S
C1875 C1876 1.358 . S
C1875 C1877 1.356 . S
C1875 H1923 0.930 . S
C1876 N1873 1.279 . S
C1876 C1875 1.358 . S
C1876 H1879 0.930 . S
C1877 C1874 1.348 . S
C1877 C1875 1.356 . S
H1878 C1872 0.930 . S
H1879 C1876 0.930 . S
C1880 C1882 1.348 . S
C1880 C1883 1.356 . S
C1880 O1910 1.325 . S
N1881 C1884 1.314 . S
N1881 C1885 1.279 . S
C1882 C1880 1.348 . S
C1882 C1884 1.353 . S
C1882 H1924 0.929 . S
C1883 C1880 1.356 . S
C1883 C1885 1.358 . S
C1883 H1925 0.930 . S
C1884 N1881 1.314 . S
C1884 C1882 1.353 . S
C1884 H1926 0.930 . S
C1885 N1881 1.279 . S
C1885 C1883 1.358 . S
C1885 H1927 0.930 . S
C1886 C1887 1.348 . S
C1886 C1888 1.356 . S
C1886 O1911 1.325 . S
C1887 C1886 1.348 . S
C1887 C1889 1.353 . S
C1887 H1928 0.929 . S
C1888 C1886 1.356 . S
C1888 C1890 1.358 . S
C1888 H1929 0.930 . S
C1889 C1887 1.353 . S
C1889 N1891 1.314 . S
C1889 H1930 0.930 . S
C1890 C1888 1.358 . S
C1890 N1891 1.279 . S
C1890 H1931 0.930 . S
N1891 C1889 1.314 . S
N1891 C1890 1.279 . S
C1892 C1894 1.353 . S
C1892 N1895 1.314 . S
C1892 H1898 0.930 . S
C1893 N1895 1.279 . S
C1893 C1896 1.358 . S
C1893 H1899 0.930 . S
C1894 C1892 1.353 . S
C1894 C1897 1.348 . S
C1894 H1932 0.929 . S
N1895 Li1850 1.990 . S
N1895 C1892 1.314 . S
N1895 C1893 1.279 . S
C1896 C1893 1.358 . S
C1896 C1897 1.356 . S
C1896 H1933 0.930 . S
C1897 C1894 1.348 . S
C1897 C1896 1.356 . S
H1898 C1892 0.930 . S
H1899 C1893 0.930 . S
C1900 N1901 1.314 . S
C1900 C1902 1.353 . S
C1900 H1906 0.930 . S
N1901 Li1851 1.990 . S
N1901 C1900 1.314 . S
N1901 C1904 1.279 . S
C1902 C1900 1.353 . S
C1902 C1905 1.348 . S
C1902 H1934 0.929 . S
C1903 C1904 1.358 . S
C1903 C1905 1.356 . S
C1903 H1935 0.930 . S
C1904 N1901 1.279 . S
C1904 C1903 1.358 . S
C1904 H1907 0.930 . S
C1905 C1902 1.348 . S
C1905 C1903 1.356 . S
H1906 C1900 0.930 . S
H1907 C1904 0.930 . S
O1908 Li1848 1.956 . S
O1908 Li1849 1.970 . S
O1908 Li1850 1.961 . S
O1908 C1852 1.325 . S
O1909 Li1848 1.970 . S
O1909 Li1849 1.956 . S
O1909 Li1851 1.961 . S
O1909 C1858 1.325 . S
O1910 Li1848 1.961 . S
O1910 Li1850 1.956 . S
O1910 Li1851 1.970 . S
O1910 C1880 1.325 . S
O1911 Li1849 1.961 . S
O1911 Li1850 1.970 . S
O1911 Li1851 1.956 . S
O1911 C1886 1.325 . S
H1912 C1854 0.929 . S
H1913 C1855 0.930 . S
H1914 C1856 0.930 . S
H1915 C1857 0.930 . S
H1916 C1859 0.930 . S
H1917 C1861 0.929 . S
H1918 C1862 0.930 . S
H1919 C1863 0.930 . S
H1920 C1866 0.930 . S
H1921 C1869 0.929 . S
H1922 C1874 0.929 . S
H1923 C1875 0.930 . S
H1924 C1882 0.929 . S
H1925 C1883 0.930 . S
H1926 C1884 0.930 . S
H1927 C1885 0.930 . S
H1928 C1887 0.929 . S
H1929 C1888 0.930 . S
H1930 C1889 0.930 . S
H1931 C1890 0.930 . S
H1932 C1894 0.929 . S
H1933 C1896 0.930 . S
H1934 C1902 0.929 . S
H1935 C1903 0.930 . S
Li1936 N1953 1.990 . S
Li1936 O1996 1.956 . S
Li1936 O1997 1.970 . S
Li1936 O1998 1.961 . S
Li1937 N1961 1.990 . S
Li1937 O1996 1.970 . S
Li1937 O1997 1.956 . S
Li1937 O1999 1.961 . S
Li1938 N1983 1.990 . S
Li1938 O1996 1.961 . S
Li1938 O1998 1.956 . S
Li1938 O1999 1.970 . S
Li1939 N1989 1.990 . S
Li1939 O1997 1.961 . S
Li1939 O1998 1.970 . S
Li1939 O1999 1.956 . S
C1940 C1942 1.348 . S
C1940 C1943 1.356 . S
C1940 O1996 1.325 . S
N1941 C1944 1.314 . S
N1941 C1945 1.279 . S
C1942 C1940 1.348 . S
C1942 C1944 1.353 . S
C1942 H2000 0.929 . S
C1943 C1940 1.356 . S
C1943 C1945 1.358 . S
C1943 H2001 0.930 . S
C1944 N1941 1.314 . S
C1944 C1942 1.353 . S
C1944 H2002 0.930 . S
C1945 N1941 1.279 . S
C1945 C1943 1.358 . S
C1945 H2003 0.930 . S
C1946 C1949 1.348 . S
C1946 C1950 1.356 . S
C1946 O1997 1.325 . S
C1947 N1948 1.279 . S
C1947 C1950 1.358 . S
C1947 H2004 0.930 . S
N1948 C1947 1.279 . S
N1948 C1951 1.314 . S
C1949 C1946 1.348 . S
C1949 C1951 1.353 . S
C1949 H2005 0.929 . S
C1950 C1946 1.356 . S
C1950 C1947 1.358 . S
C1950 H2006 0.930 . S
C1951 N1948 1.314 . S
C1951 C1949 1.353 . S
C1951 H2007 0.930 . S
C1952 N1953 1.314 . S
C1952 C1957 1.372 . S
C1952 H1958 0.930 . S
N1953 Li1936 1.990 . S
N1953 C1952 1.314 . S
N1953 C1955 1.279 . S
C1954 C1955 1.358 . S
C1954 C1956 1.356 . S
C1954 H2008 0.930 . S
C1955 N1953 1.279 . S
C1955 C1954 1.358 . S
C1955 H1959 0.930 . S
C1956 C1954 1.356 . S
C1956 C1957 1.362 . S
C1957 C1952 1.372 . S
C1957 C1956 1.362 . S
C1957 H2009 0.897 1_554 S
H1958 C1952 0.930 . S
H1959 C1955 0.930 . S
C1960 N1961 1.314 . S
C1960 C1962 1.353 . S
C1960 H1966 0.930 . S
N1961 Li1937 1.990 . S
N1961 C1960 1.314 . S
N1961 C1964 1.279 . S
C1962 C1960 1.353 . S
C1962 C1965 1.348 . S
C1962 H2010 0.929 . S
C1963 C1964 1.358 . S
C1963 C1965 1.356 . S
C1963 H2011 0.930 . S
C1964 N1961 1.279 . S
C1964 C1963 1.358 . S
C1964 H1967 0.930 . S
C1965 C1962 1.348 . S
C1965 C1963 1.356 . S
H1966 C1960 0.930 . S
H1967 C1964 0.930 . S
C1968 C1970 1.348 1_554 S
C1968 C1971 1.356 1_554 S
C1968 O1998 1.325 . S
N1969 C1972 1.314 . S
N1969 C1973 1.279 . S
C1970 C1968 1.348 1_556 S
C1970 C1972 1.353 . S
C1970 H2012 0.929 1_556 S
C1971 C1968 1.356 1_556 S
C1971 C1973 1.358 . S
C1971 H2013 0.930 1_556 S
C1972 N1969 1.314 . S
C1972 C1970 1.353 . S
C1972 H2014 0.930 . S
C1973 N1969 1.279 . S
C1973 C1971 1.358 . S
C1973 H2015 0.930 . S
C1974 C1975 1.348 . S
C1974 C1976 1.356 . S
C1974 O1999 1.325 . S
C1975 C1974 1.348 . S
C1975 C1977 1.353 . S
C1975 H2016 0.929 . S
C1976 C1974 1.356 . S
C1976 C1978 1.358 . S
C1976 H2017 0.930 . S
C1977 C1975 1.353 . S
C1977 N1979 1.314 . S
C1977 H2018 0.930 . S
C1978 C1976 1.358 . S
C1978 N1979 1.279 . S
C1978 H2019 0.930 . S
N1979 C1977 1.314 . S
N1979 C1978 1.279 . S
C1980 C1982 1.353 . S
C1980 N1983 1.314 . S
C1980 H1986 0.930 . S
C1981 N1983 1.279 . S
C1981 C1984 1.358 . S
C1981 H1987 0.930 . S
C1982 C1980 1.353 . S
C1982 C1985 1.348 . S
C1982 H2020 0.929 . S
N1983 Li1938 1.990 . S
N1983 C1980 1.314 . S
N1983 C1981 1.279 . S
C1984 C1981 1.358 . S
C1984 C1985 1.356 . S
C1984 H2021 0.930 . S
C1985 C1982 1.348 . S
C1985 C1984 1.356 . S
H1986 C1980 0.930 . S
H1987 C1981 0.930 . S
C1988 N1989 1.314 . S
C1988 C1990 1.353 . S
C1988 H1994 0.930 . S
N1989 Li1939 1.990 . S
N1989 C1988 1.314 . S
N1989 C1992 1.279 . S
C1990 C1988 1.353 . S
C1990 C1993 1.348 . S
C1990 H2022 0.929 . S
C1991 C1992 1.358 . S
C1991 C1993 1.356 . S
C1991 H2023 0.930 . S
C1992 N1989 1.279 . S
C1992 C1991 1.358 . S
C1992 H1995 0.930 . S
C1993 C1990 1.348 . S
C1993 C1991 1.356 . S
H1994 C1988 0.930 . S
H1995 C1992 0.930 . S
O1996 Li1936 1.956 . S
O1996 Li1937 1.970 . S
O1996 Li1938 1.961 . S
O1996 C1940 1.325 . S
O1997 Li1936 1.970 . S
O1997 Li1937 1.956 . S
O1997 Li1939 1.961 . S
O1997 C1946 1.325 . S
O1998 Li1936 1.961 . S
O1998 Li1938 1.956 . S
O1998 Li1939 1.970 . S
O1998 C1968 1.325 . S
O1999 Li1937 1.961 . S
O1999 Li1938 1.970 . S
O1999 Li1939 1.956 . S
O1999 C1974 1.325 . S
H2000 C1942 0.929 . S
H2001 C1943 0.930 . S
H2002 C1944 0.930 . S
H2003 C1945 0.930 . S
H2004 C1947 0.930 . S
H2005 C1949 0.929 . S
H2006 C1950 0.930 . S
H2007 C1951 0.930 . S
H2008 C1954 0.930 . S
H2009 C1957 0.897 1_556 S
H2010 C1962 0.929 . S
H2011 C1963 0.930 . S
H2012 C1970 0.929 1_554 S
H2013 C1971 0.930 1_554 S
H2014 C1972 0.930 . S
H2015 C1973 0.930 . S
H2016 C1975 0.929 . S
H2017 C1976 0.930 . S
H2018 C1977 0.930 . S
H2019 C1978 0.930 . S
H2020 C1982 0.929 . S
H2021 C1984 0.930 . S
H2022 C1990 0.929 . S
H2023 C1991 0.930 . S
Li2024 N2041 1.990 . S
Li2024 O2084 1.956 . S
Li2024 O2085 1.970 . S
Li2024 O2086 1.961 . S
Li2025 N2049 1.990 . S
Li2025 O2084 1.970 . S
Li2025 O2085 1.956 . S
Li2025 O2087 1.961 . S
Li2026 N2071 1.990 . S
Li2026 O2084 1.961 . S
Li2026 O2086 1.956 . S
Li2026 O2087 1.970 . S
Li2027 N2077 1.990 . S
Li2027 O2085 1.961 . S
Li2027 O2086 1.970 . S
Li2027 O2087 1.956 . S
C2028 C2030 1.348 . S
C2028 C2031 1.356 . S
C2028 O2084 1.325 . S
N2029 C2032 1.314 . S
N2029 C2033 1.279 . S
C2030 C2028 1.348 . S
C2030 C2032 1.353 . S
C2030 H2088 0.929 . S
C2031 C2028 1.356 . S
C2031 C2033 1.358 . S
C2031 H2089 0.930 . S
C2032 N2029 1.314 . S
C2032 C2030 1.353 . S
C2032 H2090 0.930 . S
C2033 N2029 1.279 . S
C2033 C2031 1.358 . S
C2033 H2091 0.930 . S
C2034 C2037 1.348 . S
C2034 C2038 1.356 . S
C2034 O2085 1.325 . S
C2035 N2036 1.279 . S
C2035 C2038 1.358 . S
C2035 H2092 0.930 . S
N2036 C2035 1.279 . S
N2036 C2039 1.314 . S
C2037 C2034 1.348 . S
C2037 C2039 1.353 . S
C2037 H2093 0.929 . S
C2038 C2034 1.356 . S
C2038 C2035 1.358 . S
C2038 H2094 0.930 . S
C2039 N2036 1.314 . S
C2039 C2037 1.353 . S
C2039 H2095 0.930 . S
C2040 N2041 1.314 . S
C2040 C2045 1.353 . S
C2040 H2046 0.930 . S
N2041 Li2024 1.990 . S
N2041 C2040 1.314 . S
N2041 C2043 1.279 . S
C2042 C2043 1.358 . S
C2042 C2044 1.356 . S
C2042 H2096 0.930 . S
C2043 N2041 1.279 . S
C2043 C2042 1.358 . S
C2043 H2047 0.930 . S
C2044 C2042 1.356 . S
C2044 C2045 1.348 . S
C2045 C2040 1.353 . S
C2045 C2044 1.348 . S
C2045 H2097 0.929 . S
H2046 C2040 0.930 . S
H2047 C2043 0.930 . S
C2048 N2049 1.314 . S
C2048 C2050 1.353 . S
C2048 H2054 0.930 . S
N2049 Li2025 1.990 . S
N2049 C2048 1.314 . S
N2049 C2052 1.279 . S
C2050 C2048 1.353 . S
C2050 C2053 1.348 . S
C2050 H2098 0.929 . S
C2051 C2052 1.358 . S
C2051 C2053 1.356 . S
C2051 H2099 0.930 . S
C2052 N2049 1.279 . S
C2052 C2051 1.358 . S
C2052 H2055 0.930 . S
C2053 C2050 1.348 . S
C2053 C2051 1.356 . S
H2054 C2048 0.930 . S
H2055 C2052 0.930 . S
C2056 C2058 1.348 . S
C2056 C2059 1.356 . S
C2056 O2086 1.325 . S
N2057 C2060 1.314 . S
N2057 C2061 1.279 . S
C2058 C2056 1.348 . S
C2058 C2060 1.353 . S
C2058 H2100 0.929 . S
C2059 C2056 1.356 . S
C2059 C2061 1.358 . S
C2059 H2101 0.930 . S
C2060 N2057 1.314 . S
C2060 C2058 1.353 . S
C2060 H2102 0.930 . S
C2061 N2057 1.279 . S
C2061 C2059 1.358 . S
C2061 H2103 0.930 . S
C2062 C2063 1.348 . S
C2062 C2064 1.356 . S
C2062 O2087 1.325 . S
C2063 C2062 1.348 . S
C2063 C2065 1.353 . S
C2063 H2104 0.929 . S
C2064 C2062 1.356 . S
C2064 C2066 1.358 . S
C2064 H2105 0.930 . S
C2065 C2063 1.353 . S
C2065 N2067 1.314 . S
C2065 H2106 0.930 . S
C2066 C2064 1.358 . S
C2066 N2067 1.279 . S
C2066 H2107 0.930 . S
N2067 C2065 1.314 . S
N2067 C2066 1.279 . S
C2068 C2070 1.353 . S
C2068 N2071 1.314 . S
C2068 H2074 0.930 . S
C2069 N2071 1.279 . S
C2069 C2072 1.358 . S
C2069 H2075 0.930 . S
C2070 C2068 1.353 . S
C2070 C2073 1.348 . S
C2070 H2108 0.929 . S
N2071 Li2026 1.990 . S
N2071 C2068 1.314 . S
N2071 C2069 1.279 . S
C2072 C2069 1.358 . S
C2072 C2073 1.356 . S
C2072 H2109 0.930 . S
C2073 C2070 1.348 . S
C2073 C2072 1.356 . S
H2074 C2068 0.930 . S
H2075 C2069 0.930 . S
C2076 N2077 1.314 . S
C2076 C2078 1.353 . S
C2076 H2082 0.930 . S
N2077 Li2027 1.990 . S
N2077 C2076 1.314 . S
N2077 C2080 1.279 . S
C2078 C2076 1.353 . S
C2078 C2081 1.348 . S
C2078 H2110 0.929 . S
C2079 C2080 1.358 . S
C2079 C2081 1.356 . S
C2079 H2111 0.930 . S
C2080 N2077 1.279 . S
C2080 C2079 1.358 . S
C2080 H2083 0.930 . S
C2081 C2078 1.348 . S
C2081 C2079 1.356 . S
H2082 C2076 0.930 . S
H2083 C2080 0.930 . S
O2084 Li2024 1.956 . S
O2084 Li2025 1.970 . S
O2084 Li2026 1.961 . S
O2084 C2028 1.325 . S
O2085 Li2024 1.970 . S
O2085 Li2025 1.956 . S
O2085 Li2027 1.961 . S
O2085 C2034 1.325 . S
O2086 Li2024 1.961 . S
O2086 Li2026 1.956 . S
O2086 Li2027 1.970 . S
O2086 C2056 1.325 . S
O2087 Li2025 1.961 . S
O2087 Li2026 1.970 . S
O2087 Li2027 1.956 . S
O2087 C2062 1.325 . S
H2088 C2030 0.929 . S
H2089 C2031 0.930 . S
H2090 C2032 0.930 . S
H2091 C2033 0.930 . S
H2092 C2035 0.930 . S
H2093 C2037 0.929 . S
H2094 C2038 0.930 . S
H2095 C2039 0.930 . S
H2096 C2042 0.930 . S
H2097 C2045 0.929 . S
H2098 C2050 0.929 . S
H2099 C2051 0.930 . S
H2100 C2058 0.929 . S
H2101 C2059 0.930 . S
H2102 C2060 0.930 . S
H2103 C2061 0.930 . S
H2104 C2063 0.929 . S
H2105 C2064 0.930 . S
H2106 C2065 0.930 . S
H2107 C2066 0.930 . S
H2108 C2070 0.929 . S
H2109 C2072 0.930 . S
H2110 C2078 0.929 . S
H2111 C2079 0.930 . S
C2112 C2113 1.369 . S
C2112 C2114 1.419 . S
C2112 H2116 0.930 . S
C2113 C2112 1.369 . S
C2113 C2122 1.429 . S
C2114 C2112 1.419 . S
C2114 C2115 1.363 . S
C2114 H2117 0.929 . S
C2115 C2114 1.363 . S
C2115 C2121 1.428 . S
H2116 C2112 0.930 . S
H2117 C2114 0.929 . S
S2118 N2119 1.613 . S
S2118 N2120 1.610 . S
N2119 S2118 1.613 . S
N2119 C2122 1.350 . S
N2120 S2118 1.610 . S
N2120 C2121 1.351 . S
C2121 C2115 1.428 . S
C2121 N2120 1.351 . S
C2121 C2122 1.434 . S
C2122 C2113 1.429 . S
C2122 N2119 1.350 . S
C2122 C2121 1.434 . S
C2123 C2124 1.369 . S
C2123 C2125 1.419 . S
C2123 H2127 0.930 . S
C2124 C2123 1.369 . S
C2124 C2133 1.429 . S
C2125 C2123 1.419 . S
C2125 C2126 1.363 . S
C2125 H2128 0.929 . S
C2126 C2125 1.363 . S
C2126 C2132 1.428 . S
H2127 C2123 0.930 . S
H2128 C2125 0.929 . S
S2129 N2130 1.613 . S
S2129 N2131 1.610 . S
N2130 S2129 1.613 . S
N2130 C2133 1.350 . S
N2131 S2129 1.610 . S
N2131 C2132 1.351 . S
C2132 C2126 1.428 . S
C2132 N2131 1.351 . S
C2132 C2133 1.434 . S
C2133 C2124 1.429 . S
C2133 N2130 1.350 . S
C2133 C2132 1.434 . S
C2134 C2135 1.369 . S
C2134 C2136 1.419 . S
C2134 H2138 0.930 . S
C2135 C2134 1.369 . S
C2135 C2144 1.429 . S
C2136 C2134 1.419 . S
C2136 C2137 1.363 . S
C2136 H2139 0.929 . S
C2137 C2136 1.363 . S
C2137 C2143 1.428 . S
H2138 C2134 0.930 . S
H2139 C2136 0.929 . S
S2140 N2141 1.613 . S
S2140 N2142 1.610 . S
N2141 S2140 1.613 . S
N2141 C2144 1.350 . S
N2142 S2140 1.610 . S
N2142 C2143 1.351 . S
C2143 C2137 1.428 . S
C2143 N2142 1.351 . S
C2143 C2144 1.434 . S
C2144 C2135 1.429 . S
C2144 N2141 1.350 . S
C2144 C2143 1.434 . S
C2145 C2146 1.369 . S
C2145 C2147 1.419 . S
C2145 H2149 0.930 . S
C2146 C2145 1.369 . S
C2146 C2155 1.429 . S
C2147 C2145 1.419 . S
C2147 C2148 1.363 . S
C2147 H2150 0.929 . S
C2148 C2147 1.363 . S
C2148 C2154 1.428 . S
H2149 C2145 0.930 . S
H2150 C2147 0.929 . S
S2151 N2152 1.613 . S
S2151 N2153 1.610 . S
N2152 S2151 1.613 . S
N2152 C2155 1.350 . S
N2153 S2151 1.610 . S
N2153 C2154 1.351 . S
C2154 C2148 1.428 . S
C2154 N2153 1.351 . S
C2154 C2155 1.434 . S
C2155 C2146 1.429 . S
C2155 N2152 1.350 . S
C2155 C2154 1.434 . S
C2156 C2157 1.369 . S
C2156 C2158 1.419 . S
C2156 H2160 0.930 . S
C2157 C2156 1.369 . S
C2157 C2166 1.429 . S
C2158 C2156 1.419 . S
C2158 C2159 1.363 . S
C2158 H2161 0.929 . S
C2159 C2158 1.363 . S
C2159 C2165 1.428 . S
H2160 C2156 0.930 . S
H2161 C2158 0.929 . S
S2162 N2163 1.613 . S
S2162 N2164 1.610 . S
N2163 S2162 1.613 . S
N2163 C2166 1.350 . S
N2164 S2162 1.610 . S
N2164 C2165 1.351 . S
C2165 C2159 1.428 . S
C2165 N2164 1.351 . S
C2165 C2166 1.434 . S
C2166 C2157 1.429 . S
C2166 N2163 1.350 . S
C2166 C2165 1.434 . S
C2167 C2168 1.369 . S
C2167 C2169 1.419 . S
C2167 H2171 0.930 . S
C2168 C2167 1.369 . S
C2168 C2177 1.429 . S
C2169 C2167 1.419 . S
C2169 C2170 1.363 . S
C2169 H2172 0.929 . S
C2170 C2169 1.363 . S
C2170 C2176 1.428 . S
H2171 C2167 0.930 . S
H2172 C2169 0.929 . S
S2173 N2174 1.613 . S
S2173 N2175 1.610 . S
N2174 S2173 1.613 . S
N2174 C2177 1.350 . S
N2175 S2173 1.610 . S
N2175 C2176 1.351 . S
C2176 C2170 1.428 . S
C2176 N2175 1.351 . S
C2176 C2177 1.434 . S
C2177 C2168 1.429 . S
C2177 N2174 1.350 . S
C2177 C2176 1.434 . S
C2178 C2179 1.369 . S
C2178 C2180 1.419 . S
C2178 H2182 0.930 . S
C2179 C2178 1.369 . S
C2179 C2188 1.429 . S
C2180 C2178 1.419 . S
C2180 C2181 1.363 . S
C2180 H2183 0.929 . S
C2181 C2180 1.363 . S
C2181 C2187 1.428 . S
H2182 C2178 0.930 . S
H2183 C2180 0.929 . S
S2184 N2185 1.613 . S
S2184 N2186 1.610 . S
N2185 S2184 1.613 . S
N2185 C2188 1.350 . S
N2186 S2184 1.610 . S
N2186 C2187 1.351 . S
C2187 C2181 1.428 . S
C2187 N2186 1.351 . S
C2187 C2188 1.434 . S
C2188 C2179 1.429 . S
C2188 N2185 1.350 . S
C2188 C2187 1.434 . S
C2189 C2190 1.369 . S
C2189 C2191 1.419 . S
C2189 H2193 0.930 . S
C2190 C2189 1.369 . S
C2190 C2199 1.429 . S
C2191 C2189 1.419 . S
C2191 C2192 1.363 . S
C2191 H2194 0.929 . S
C2192 C2191 1.363 . S
C2192 C2198 1.428 . S
H2193 C2189 0.930 . S
H2194 C2191 0.929 . S
S2195 N2196 1.613 . S
S2195 N2197 1.610 . S
N2196 S2195 1.613 . S
N2196 C2199 1.350 . S
N2197 S2195 1.610 . S
N2197 C2198 1.351 . S
C2198 C2192 1.428 . S
C2198 N2197 1.351 . S
C2198 C2199 1.434 . S
C2199 C2190 1.429 . S
C2199 N2196 1.350 . S
C2199 C2198 1.434 . S
C2200 C2201 1.369 . S
C2200 C2202 1.419 . S
C2200 H2204 0.930 . S
C2201 C2200 1.369 . S
C2201 C2210 1.429 . S
C2202 C2200 1.419 . S
C2202 C2203 1.363 . S
C2202 H2205 0.929 . S
C2203 C2202 1.363 . S
C2203 C2209 1.428 . S
H2204 C2200 0.930 . S
H2205 C2202 0.929 . S
S2206 N2207 1.613 . S
S2206 N2208 1.610 . S
N2207 S2206 1.613 . S
N2207 C2210 1.350 . S
N2208 S2206 1.610 . S
N2208 C2209 1.351 . S
C2209 C2203 1.428 . S
C2209 N2208 1.351 . S
C2209 C2210 1.434 . S
C2210 C2201 1.429 . S
C2210 N2207 1.350 . S
C2210 C2209 1.434 . S
C2211 C2212 1.369 . S
C2211 C2213 1.419 . S
C2211 H2215 0.930 . S
C2212 C2211 1.369 . S
C2212 C2221 1.429 . S
C2213 C2211 1.419 . S
C2213 C2214 1.363 . S
C2213 H2216 0.929 . S
C2214 C2213 1.363 . S
C2214 C2220 1.428 . S
H2215 C2211 0.930 . S
H2216 C2213 0.929 . S
S2217 N2218 1.613 . S
S2217 N2219 1.610 . S
N2218 S2217 1.613 . S
N2218 C2221 1.350 . S
N2219 S2217 1.610 . S
N2219 C2220 1.351 . S
C2220 C2214 1.428 . S
C2220 N2219 1.351 . S
C2220 C2221 1.434 . S
C2221 C2212 1.429 . S
C2221 N2218 1.350 . S
C2221 C2220 1.434 . S
C2222 C2223 1.369 . S
C2222 C2224 1.419 . S
C2222 H2226 0.930 . S
C2223 C2222 1.369 . S
C2223 C2232 1.429 . S
C2224 C2222 1.419 . S
C2224 C2225 1.363 . S
C2224 H2227 0.929 . S
C2225 C2224 1.363 . S
C2225 C2231 1.428 . S
H2226 C2222 0.930 . S
H2227 C2224 0.929 . S
S2228 N2229 1.613 . S
S2228 N2230 1.610 . S
N2229 S2228 1.613 . S
N2229 C2232 1.350 . S
N2230 S2228 1.610 . S
N2230 C2231 1.351 . S
C2231 C2225 1.428 . S
C2231 N2230 1.351 . S
C2231 C2232 1.434 . S
C2232 C2223 1.429 . S
C2232 N2229 1.350 . S
C2232 C2231 1.434 . S
C2233 C2234 1.369 . S
C2233 C2235 1.419 . S
C2233 H2237 0.930 . S
C2234 C2233 1.369 . S
C2234 C2243 1.429 . S
C2235 C2233 1.419 . S
C2235 C2236 1.363 . S
C2235 H2238 0.929 . S
C2236 C2235 1.363 . S
C2236 C2242 1.428 . S
H2237 C2233 0.930 . S
H2238 C2235 0.929 . S
S2239 N2240 1.613 . S
S2239 N2241 1.610 . S
N2240 S2239 1.613 . S
N2240 C2243 1.350 . S
N2241 S2239 1.610 . S
N2241 C2242 1.351 . S
C2242 C2236 1.428 . S
C2242 N2241 1.351 . S
C2242 C2243 1.434 . S
C2243 C2234 1.429 . S
C2243 N2240 1.350 . S
C2243 C2242 1.434 . S
C2244 C2245 1.369 . S
C2244 C2246 1.419 . S
C2244 H2248 0.930 . S
C2245 C2244 1.369 . S
C2245 C2254 1.429 1_556 S
C2246 C2244 1.419 . S
C2246 C2247 1.363 1_556 S
C2246 H2249 0.929 . S
C2247 C2246 1.363 1_554 S
C2247 C2253 1.428 . S
H2248 C2244 0.930 . S
H2249 C2246 0.929 . S
S2250 N2251 1.613 . S
S2250 N2252 1.610 . S
N2251 S2250 1.613 . S
N2251 C2254 1.350 . S
N2252 S2250 1.610 . S
N2252 C2253 1.351 . S
C2253 C2247 1.428 . S
C2253 N2252 1.351 . S
C2253 C2254 1.434 . S
C2254 C2245 1.429 1_554 S
C2254 N2251 1.350 . S
C2254 C2253 1.434 . S
C2255 C2256 1.369 . S
C2255 C2257 1.419 . S
C2255 H2259 0.930 . S
C2256 C2255 1.369 . S
C2256 C2265 1.429 . S
C2257 C2255 1.419 . S
C2257 C2258 1.363 . S
C2257 H2260 0.929 . S
C2258 C2257 1.363 . S
C2258 C2264 1.428 . S
H2259 C2255 0.930 . S
H2260 C2257 0.929 . S
S2261 N2262 1.613 . S
S2261 N2263 1.610 . S
N2262 S2261 1.613 . S
N2262 C2265 1.350 . S
N2263 S2261 1.610 . S
N2263 C2264 1.351 . S
C2264 C2258 1.428 . S
C2264 N2263 1.351 . S
C2264 C2265 1.434 . S
C2265 C2256 1.429 . S
C2265 N2262 1.350 . S
C2265 C2264 1.434 . S
C2266 C2267 1.369 . S
C2266 C2268 1.419 . S
C2266 H2270 0.930 . S
C2267 C2266 1.369 . S
C2267 C2276 1.429 1_554 S
C2268 C2266 1.419 . S
C2268 C2269 1.363 1_554 S
C2268 H2271 0.929 . S
C2269 C2268 1.363 1_556 S
C2269 C2275 1.428 . S
H2270 C2266 0.930 . S
H2271 C2268 0.929 . S
S2272 N2273 1.613 . S
S2272 N2274 1.610 . S
N2273 S2272 1.613 . S
N2273 C2276 1.350 . S
N2274 S2272 1.610 . S
N2274 C2275 1.351 . S
C2275 C2269 1.428 . S
C2275 N2274 1.351 . S
C2275 C2276 1.434 . S
C2276 C2267 1.429 1_556 S
C2276 N2273 1.350 . S
C2276 C2275 1.434 . S
C2277 C2278 1.369 . S
C2277 C2279 1.419 . S
C2277 H2281 0.930 . S
C2278 C2277 1.369 . S
C2278 C2287 1.429 . S
C2279 C2277 1.419 . S
C2279 C2280 1.363 . S
C2279 H2282 0.929 . S
C2280 C2279 1.363 . S
C2280 C2286 1.428 . S
H2281 C2277 0.930 . S
H2282 C2279 0.929 . S
S2283 N2284 1.613 . S
S2283 N2285 1.610 . S
N2284 S2283 1.613 . S
N2284 C2287 1.350 . S
N2285 S2283 1.610 . S
N2285 C2286 1.351 . S
C2286 C2280 1.428 . S
C2286 N2285 1.351 . S
C2286 C2287 1.434 . S
C2287 C2278 1.429 . S
C2287 N2284 1.350 . S
C2287 C2286 1.434 . S
C2288 C2289 1.369 . S
C2288 C2290 1.419 . S
C2288 H2292 0.930 . S
C2289 C2288 1.369 . S
C2289 C2298 1.429 1_556 S
C2290 C2288 1.419 . S
C2290 C2291 1.363 1_556 S
C2290 H2293 0.929 . S
C2291 C2290 1.363 1_554 S
C2291 C2297 1.428 . S
H2292 C2288 0.930 . S
H2293 C2290 0.929 . S
S2294 N2295 1.613 . S
S2294 N2296 1.610 . S
N2295 S2294 1.613 . S
N2295 C2298 1.350 . S
N2296 S2294 1.610 . S
N2296 C2297 1.351 . S
C2297 C2291 1.428 . S
C2297 N2296 1.351 . S
C2297 C2298 1.434 . S
C2298 C2289 1.429 1_554 S
C2298 N2295 1.350 . S
C2298 C2297 1.434 . S
C2299 C2300 1.369 . S
C2299 C2301 1.419 . S
C2299 H2303 0.930 . S
C2300 C2299 1.369 . S
C2300 C2309 1.429 . S
C2301 C2299 1.419 . S
C2301 C2302 1.363 . S
C2301 H2304 0.929 . S
C2302 C2301 1.363 . S
C2302 C2308 1.428 . S
H2303 C2299 0.930 . S
H2304 C2301 0.929 . S
S2305 N2306 1.613 . S
S2305 N2307 1.610 . S
N2306 S2305 1.613 . S
N2306 C2309 1.350 . S
N2307 S2305 1.610 . S
N2307 C2308 1.351 . S
C2308 C2302 1.428 . S
C2308 N2307 1.351 . S
C2308 C2309 1.434 . S
C2309 C2300 1.429 . S
C2309 N2306 1.350 . S
C2309 C2308 1.434 . S
C2310 C2311 1.369 . S
C2310 C2312 1.419 . S
C2310 H2314 0.930 . S
C2311 C2310 1.369 . S
C2311 C2320 1.429 1_554 S
C2312 C2310 1.419 . S
C2312 C2313 1.363 1_554 S
C2312 H2315 0.929 . S
C2313 C2312 1.363 1_556 S
C2313 C2319 1.428 . S
H2314 C2310 0.930 . S
H2315 C2312 0.929 . S
S2316 N2317 1.613 . S
S2316 N2318 1.610 . S
N2317 S2316 1.613 . S
N2317 C2320 1.350 . S
N2318 S2316 1.610 . S
N2318 C2319 1.351 . S
C2319 C2313 1.428 . S
C2319 N2318 1.351 . S
C2319 C2320 1.434 . S
C2320 C2311 1.429 1_556 S
C2320 N2317 1.350 . S
C2320 C2319 1.434 . S
C2321 C2322 1.369 . S
C2321 C2323 1.419 . S
C2321 H2325 0.930 . S
C2322 C2321 1.369 . S
C2322 C2331 1.429 . S
C2323 C2321 1.419 . S
C2323 C2324 1.363 . S
C2323 H2326 0.929 . S
C2324 C2323 1.363 . S
C2324 C2330 1.428 . S
H2325 C2321 0.930 . S
H2326 C2323 0.929 . S
S2327 N2328 1.613 . S
S2327 N2329 1.610 . S
N2328 S2327 1.613 . S
N2328 C2331 1.350 . S
N2329 S2327 1.610 . S
N2329 C2330 1.351 . S
C2330 C2324 1.428 . S
C2330 N2329 1.351 . S
C2330 C2331 1.434 . S
C2331 C2322 1.429 . S
C2331 N2328 1.350 . S
C2331 C2330 1.434 . S
C2332 C2333 1.369 . S
C2332 C2334 1.419 . S
C2332 H2336 0.930 . S
C2333 C2332 1.369 . S
C2333 C2342 1.429 1_556 S
C2334 C2332 1.419 . S
C2334 C2335 1.363 1_556 S
C2334 H2337 0.929 . S
C2335 C2334 1.363 1_554 S
C2335 C2341 1.428 . S
H2336 C2332 0.930 . S
H2337 C2334 0.929 . S
S2338 N2339 1.613 . S
S2338 N2340 1.610 . S
N2339 S2338 1.613 . S
N2339 C2342 1.350 . S
N2340 S2338 1.610 . S
N2340 C2341 1.351 . S
C2341 C2335 1.428 . S
C2341 N2340 1.351 . S
C2341 C2342 1.434 . S
C2342 C2333 1.429 1_554 S
C2342 N2339 1.350 . S
C2342 C2341 1.434 . S
C2343 C2344 1.369 . S
C2343 C2345 1.419 . S
C2343 H2347 0.930 . S
C2344 C2343 1.369 . S
C2344 C2353 1.429 . S
C2345 C2343 1.419 . S
C2345 C2346 1.363 . S
C2345 H2348 0.929 . S
C2346 C2345 1.363 . S
C2346 C2352 1.428 . S
H2347 C2343 0.930 . S
H2348 C2345 0.929 . S
S2349 N2350 1.613 . S
S2349 N2351 1.610 . S
N2350 S2349 1.613 . S
N2350 C2353 1.350 . S
N2351 S2349 1.610 . S
N2351 C2352 1.351 . S
C2352 C2346 1.428 . S
C2352 N2351 1.351 . S
C2352 C2353 1.434 . S
C2353 C2344 1.429 . S
C2353 N2350 1.350 . S
C2353 C2352 1.434 . S
C2354 C2355 1.369 1_554 S
C2354 C2356 1.419 . S
C2354 H2358 0.930 . S
C2355 C2354 1.369 1_556 S
C2355 C2364 1.429 . S
C2356 C2354 1.419 . S
C2356 C2357 1.363 . S
C2356 H2359 0.929 . S
C2357 C2356 1.363 . S
C2357 C2363 1.428 1_554 S
H2358 C2354 0.930 . S
H2359 C2356 0.929 . S
S2360 N2361 1.613 . S
S2360 N2362 1.610 . S
N2361 S2360 1.613 . S
N2361 C2364 1.350 . S
N2362 S2360 1.610 . S
N2362 C2363 1.351 . S
C2363 C2357 1.428 1_556 S
C2363 N2362 1.351 . S
C2363 C2364 1.434 . S
C2364 C2355 1.429 . S
C2364 N2361 1.350 . S
C2364 C2363 1.434 . S
C2365 C2366 1.369 . S
C2365 C2367 1.419 . S
C2365 H2369 0.930 . S
C2366 C2365 1.369 . S
C2366 C2375 1.429 . S
C2367 C2365 1.419 . S
C2367 C2368 1.363 . S
C2367 H2370 0.929 . S
C2368 C2367 1.363 . S
C2368 C2374 1.428 . S
H2369 C2365 0.930 . S
H2370 C2367 0.929 . S
S2371 N2372 1.613 . S
S2371 N2373 1.610 . S
N2372 S2371 1.613 . S
N2372 C2375 1.350 . S
N2373 S2371 1.610 . S
N2373 C2374 1.351 . S
C2374 C2368 1.428 . S
C2374 N2373 1.351 . S
C2374 C2375 1.434 . S
C2375 C2366 1.429 . S
C2375 N2372 1.350 . S
C2375 C2374 1.434 . S
C2376 C2377 1.369 . S
C2376 C2378 1.419 . S
C2376 H2380 0.930 . S
C2377 C2376 1.369 . S
C2377 C2386 1.429 . S
C2378 C2376 1.419 . S
C2378 C2379 1.363 . S
C2378 H2381 0.929 . S
C2379 C2378 1.363 . S
C2379 C2385 1.428 . S
H2380 C2376 0.930 . S
H2381 C2378 0.929 . S
S2382 N2383 1.613 . S
S2382 N2384 1.610 . S
N2383 S2382 1.613 . S
N2383 C2386 1.350 1_556 S
N2384 S2382 1.610 . S
N2384 C2385 1.351 1_556 S
C2385 C2379 1.428 . S
C2385 N2384 1.351 1_554 S
C2385 C2386 1.434 . S
C2386 C2377 1.429 . S
C2386 N2383 1.350 1_554 S
C2386 C2385 1.434 . S
C2387 C2388 1.369 . S
C2387 C2389 1.419 1_455 S
C2387 H2391 0.930 . S
C2388 C2387 1.369 . S
C2388 C2397 1.429 . S
C2389 C2387 1.419 1_655 S
C2389 C2390 1.363 . S
C2389 H2392 0.929 . S
C2390 C2389 1.363 . S
C2390 C2396 1.428 . S
H2391 C2387 0.930 . S
H2392 C2389 0.929 . S
S2393 N2394 1.613 . S
S2393 N2395 1.612 1_455 S
N2394 S2393 1.613 . S
N2394 C2397 1.350 . S
N2395 S2393 1.612 1_655 S
N2395 C2396 1.351 . S
C2396 C2390 1.428 . S
C2396 N2395 1.351 . S
C2396 C2397 1.434 1_655 S
C2397 C2388 1.429 . S
C2397 N2394 1.350 . S
C2397 C2396 1.434 1_455 S
C2398 C2399 1.369 . S
C2398 C2400 1.419 1_565 S
C2398 H2402 0.930 . S
C2399 C2398 1.369 . S
C2399 C2408 1.429 . S
C2400 C2398 1.419 1_545 S
C2400 C2401 1.363 . S
C2400 H2403 0.929 . S
C2401 C2400 1.363 . S
C2401 C2407 1.428 . S
H2402 C2398 0.930 . S
H2403 C2400 0.929 . S
S2404 N2405 1.615 1_545 S
S2404 N2406 1.606 . S
N2405 S2404 1.615 1_565 S
N2405 C2408 1.350 . S
N2406 S2404 1.606 . S
N2406 C2407 1.351 . S
C2407 C2401 1.428 . S
C2407 N2406 1.351 . S
C2407 C2408 1.434 1_545 S
C2408 C2399 1.429 . S
C2408 N2405 1.350 . S
C2408 C2407 1.434 1_565 S
C2409 C2410 1.369 . S
C2409 C2411 1.419 . S
C2409 H2413 0.930 . S
C2410 C2409 1.369 . S
C2410 C2419 1.429 . S
C2411 C2409 1.419 . S
C2411 C2412 1.363 . S
C2411 H2414 0.929 . S
C2412 C2411 1.363 . S
C2412 C2418 1.428 . S
H2413 C2409 0.930 . S
H2414 C2411 0.929 . S
S2415 N2416 1.613 . S
S2415 N2417 1.610 . S
N2416 S2415 1.613 . S
N2416 C2419 1.350 . S
N2417 S2415 1.610 . S
N2417 C2418 1.351 . S
C2418 C2412 1.428 . S
C2418 N2417 1.351 . S
C2418 C2419 1.434 . S
C2419 C2410 1.429 . S
C2419 N2416 1.350 . S
C2419 C2418 1.434 . S
C2420 C2421 1.369 . S
C2420 C2422 1.419 1_655 S
C2420 H2424 0.930 . S
C2421 C2420 1.369 . S
C2421 C2430 1.429 . S
C2422 C2420 1.419 1_455 S
C2422 C2423 1.363 . S
C2422 H2425 0.929 . S
C2423 C2422 1.363 . S
C2423 C2429 1.428 . S
H2424 C2420 0.930 . S
H2425 C2422 0.929 . S
S2426 N2427 1.618 1_455 S
S2426 N2428 1.607 . S
N2427 S2426 1.618 1_655 S
N2427 C2430 1.350 . S
N2428 S2426 1.607 . S
N2428 C2429 1.351 . S
C2429 C2423 1.428 . S
C2429 N2428 1.351 . S
C2429 C2430 1.434 1_455 S
C2430 C2421 1.429 . S
C2430 N2427 1.350 . S
C2430 C2429 1.434 1_655 S
C2431 C2432 1.369 . S
C2431 C2433 1.419 1_545 S
C2431 H2435 0.930 . S
C2432 C2431 1.369 . S
C2432 C2441 1.429 . S
C2433 C2431 1.419 1_565 S
C2433 C2434 1.363 . S
C2433 H2436 0.929 . S
C2434 C2433 1.363 . S
C2434 C2440 1.428 . S
H2435 C2431 0.930 . S
H2436 C2433 0.929 . S
S2437 N2438 1.599 1_565 S
S2437 N2439 1.616 . S
N2438 S2437 1.599 1_545 S
N2438 C2441 1.350 . S
N2439 S2437 1.616 . S
N2439 C2440 1.351 . S
C2440 C2434 1.428 . S
C2440 N2439 1.351 . S
C2440 C2441 1.434 1_565 S
C2441 C2432 1.429 . S
C2441 N2438 1.350 . S
C2441 C2440 1.434 1_545 S
C2442 C2443 1.369 . S
C2442 C2444 1.419 . S
C2442 H2446 0.930 . S
C2443 C2442 1.369 . S
C2443 C2452 1.429 . S
C2444 C2442 1.419 . S
C2444 C2445 1.363 . S
C2444 H2447 0.929 . S
C2445 C2444 1.363 . S
C2445 C2451 1.428 . S
H2446 C2442 0.930 . S
H2447 C2444 0.929 . S
S2448 N2449 1.613 . S
S2448 N2450 1.610 . S
N2449 S2448 1.613 . S
N2449 C2452 1.350 1_554 S
N2450 S2448 1.610 . S
N2450 C2451 1.351 1_554 S
C2451 C2445 1.428 . S
C2451 N2450 1.351 1_556 S
C2451 C2452 1.434 . S
C2452 C2443 1.429 . S
C2452 N2449 1.350 1_556 S
C2452 C2451 1.434 . S
C2453 C2454 1.369 . S
C2453 C2455 1.419 1_655 S
C2453 H2457 0.930 . S
C2454 C2453 1.369 . S
C2454 C2463 1.429 . S
C2455 C2453 1.419 1_455 S
C2455 C2456 1.363 . S
C2455 H2458 0.929 . S
C2456 C2455 1.363 . S
C2456 C2462 1.428 . S
H2457 C2453 0.930 . S
H2458 C2455 0.929 . S
S2459 N2460 1.598 1_455 S
S2459 N2461 1.618 . S
N2460 S2459 1.598 1_655 S
N2460 C2463 1.350 . S
N2461 S2459 1.618 . S
N2461 C2462 1.351 . S
C2462 C2456 1.428 . S
C2462 N2461 1.351 . S
C2462 C2463 1.434 1_455 S
C2463 C2454 1.429 . S
C2463 N2460 1.350 . S
C2463 C2462 1.434 1_655 S
C2464 C2465 1.369 . S
C2464 C2466 1.419 1_545 S
C2464 H2468 0.930 . S
C2465 C2464 1.369 . S
C2465 C2474 1.429 . S
C2466 C2464 1.419 1_565 S
C2466 C2467 1.363 . S
C2466 H2469 0.929 . S
C2467 C2466 1.363 . S
C2467 C2473 1.428 . S
H2468 C2464 0.930 . S
H2469 C2466 0.929 . S
S2470 N2471 1.610 . S
S2470 N2472 1.612 1_545 S
N2471 S2470 1.610 . S
N2471 C2474 1.350 . S
N2472 S2470 1.612 1_565 S
N2472 C2473 1.351 . S
C2473 C2467 1.428 . S
C2473 N2472 1.351 . S
C2473 C2474 1.434 1_565 S
C2474 C2465 1.429 . S
C2474 N2471 1.350 . S
C2474 C2473 1.434 1_545 S
C2475 C2476 1.369 . S
C2475 C2477 1.419 . S
C2475 H2479 0.930 . S
C2476 C2475 1.369 . S
C2476 C2485 1.429 . S
C2477 C2475 1.419 . S
C2477 C2478 1.363 . S
C2477 H2480 0.929 . S
C2478 C2477 1.363 . S
C2478 C2484 1.428 . S
H2479 C2475 0.930 . S
H2480 C2477 0.929 . S
S2481 N2482 1.613 . S
S2481 N2483 1.610 . S
N2482 S2481 1.613 . S
N2482 C2485 1.350 . S
N2483 S2481 1.610 . S
N2483 C2484 1.351 . S
C2484 C2478 1.428 . S
C2484 N2483 1.351 . S
C2484 C2485 1.434 . S
C2485 C2476 1.429 . S
C2485 N2482 1.350 . S
C2485 C2484 1.434 . S
C2486 C2487 1.369 . S
C2486 C2488 1.419 1_455 S
C2486 H2490 0.930 . S
C2487 C2486 1.369 . S
C2487 C2496 1.429 . S
C2488 C2486 1.419 1_655 S
C2488 C2489 1.363 . S
C2488 H2491 0.929 . S
C2489 C2488 1.363 . S
C2489 C2495 1.428 . S
H2490 C2486 0.930 . S
H2491 C2488 0.929 . S
S2492 N2493 1.604 1_655 S
S2492 N2494 1.613 . S
N2493 S2492 1.604 1_455 S
N2493 C2496 1.350 . S
N2494 S2492 1.613 . S
N2494 C2495 1.351 . S
C2495 C2489 1.428 . S
C2495 N2494 1.351 . S
C2495 C2496 1.434 1_655 S
C2496 C2487 1.429 . S
C2496 N2493 1.350 . S
C2496 C2495 1.434 1_455 S
C2497 C2498 1.369 . S
C2497 C2499 1.419 1_565 S
C2497 H2501 0.930 . S
C2498 C2497 1.369 . S
C2498 C2507 1.429 . S
C2499 C2497 1.419 1_545 S
C2499 C2500 1.363 . S
C2499 H2502 0.929 . S
C2500 C2499 1.363 . S
C2500 C2506 1.428 . S
H2501 C2497 0.930 . S
H2502 C2499 0.929 . S
S2503 N2504 1.618 . S
S2503 N2505 1.599 1_565 S
N2504 S2503 1.618 . S
N2504 C2507 1.350 . S
N2505 S2503 1.599 1_545 S
N2505 C2506 1.351 . S
C2506 C2500 1.428 . S
C2506 N2505 1.351 . S
C2506 C2507 1.434 1_545 S
C2507 C2498 1.429 . S
C2507 N2504 1.350 . S
C2507 C2506 1.434 1_565 S
C2508 C2509 1.369 . S
C2508 C2510 1.422 . S
C2508 H2512 0.930 . S
C2509 C2508 1.369 . S
C2509 C2518 1.429 1_556 S
C2510 C2508 1.422 . S
C2510 C2511 1.360 1_556 S
C2510 H2513 0.929 . S
C2511 C2510 1.360 1_554 S
C2511 C2517 1.428 . S
H2512 C2508 0.930 . S
H2513 C2510 0.929 . S
S2514 N2515 1.613 . S
S2514 N2516 1.610 . S
N2515 S2514 1.613 . S
N2515 C2518 1.350 . S
N2516 S2514 1.610 . S
N2516 C2517 1.351 . S
C2517 C2511 1.428 . S
C2517 N2516 1.351 . S
C2517 C2518 1.434 . S
C2518 C2509 1.429 1_554 S
C2518 N2515 1.350 . S
C2518 C2517 1.434 . S
C2519 C2520 1.369 . S
C2519 C2521 1.419 . S
C2519 H2523 0.930 . S
C2520 C2519 1.369 . S
C2520 C2529 1.429 . S
C2521 C2519 1.419 . S
C2521 C2522 1.363 . S
C2521 H2524 0.929 . S
C2522 C2521 1.363 . S
C2522 C2528 1.428 . S
H2523 C2519 0.930 . S
H2524 C2521 0.929 . S
S2525 N2526 1.613 . S
S2525 N2527 1.610 . S
N2526 S2525 1.613 . S
N2526 C2529 1.350 . S
N2527 S2525 1.610 . S
N2527 C2528 1.351 . S
C2528 C2522 1.428 . S
C2528 N2527 1.351 . S
C2528 C2529 1.434 . S
C2529 C2520 1.429 . S
C2529 N2526 1.350 . S
C2529 C2528 1.434 . S
C2530 C2531 1.363 1_554 S
C2530 C2532 1.424 . S
C2530 H2534 0.931 . S
C2531 C2530 1.363 1_556 S
C2531 C2540 1.429 . S
C2532 C2530 1.424 . S
C2532 C2533 1.363 . S
C2532 H2535 0.929 . S
C2533 C2532 1.363 . S
C2533 C2539 1.428 1_554 S
H2534 C2530 0.931 . S
H2535 C2532 0.929 . S
S2536 N2537 1.613 . S
S2536 N2538 1.610 . S
N2537 S2536 1.613 . S
N2537 C2540 1.350 . S
N2538 S2536 1.610 . S
N2538 C2539 1.351 . S
C2539 C2533 1.428 1_556 S
C2539 N2538 1.351 . S
C2539 C2540 1.434 . S
C2540 C2531 1.429 . S
C2540 N2537 1.350 . S
C2540 C2539 1.434 . S
C2541 C2542 1.369 . S
C2541 C2543 1.419 . S
C2541 H2545 0.930 . S
C2542 C2541 1.369 . S
C2542 C2551 1.429 . S
C2543 C2541 1.419 . S
C2543 C2544 1.363 . S
C2543 H2546 0.929 . S
C2544 C2543 1.363 . S
C2544 C2550 1.428 . S
H2545 C2541 0.930 . S
H2546 C2543 0.929 . S
S2547 N2548 1.613 . S
S2547 N2549 1.610 . S
N2548 S2547 1.613 . S
N2548 C2551 1.350 . S
N2549 S2547 1.610 . S
N2549 C2550 1.351 . S
C2550 C2544 1.428 . S
C2550 N2549 1.351 . S
C2550 C2551 1.434 . S
C2551 C2542 1.429 . S
C2551 N2548 1.350 . S
C2551 C2550 1.434 . S
C2552 C2553 1.369 . S
C2552 C2554 1.421 1_556 S
C2552 H2556 0.930 . S
C2553 C2552 1.369 . S
C2553 C2562 1.429 1_556 S
C2554 C2552 1.421 1_554 S
C2554 C2555 1.361 . S
C2554 H2557 0.929 1_554 S
C2555 C2554 1.361 . S
C2555 C2561 1.428 . S
H2556 C2552 0.930 . S
H2557 C2554 0.929 1_556 S
S2558 N2559 1.613 . S
S2558 N2560 1.610 . S
N2559 S2558 1.613 . S
N2559 C2562 1.350 . S
N2560 S2558 1.610 . S
N2560 C2561 1.351 . S
C2561 C2555 1.428 . S
C2561 N2560 1.351 . S
C2561 C2562 1.434 . S
C2562 C2553 1.429 1_554 S
C2562 N2559 1.350 . S
C2562 C2561 1.434 . S
C2563 C2564 1.369 . S
C2563 C2565 1.419 . S
C2563 H2567 0.930 . S
C2564 C2563 1.369 . S
C2564 C2573 1.429 . S
C2565 C2563 1.419 . S
C2565 C2566 1.363 . S
C2565 H2568 0.929 . S
C2566 C2565 1.363 . S
C2566 C2572 1.428 . S
H2567 C2563 0.930 . S
H2568 C2565 0.929 . S
S2569 N2570 1.613 . S
S2569 N2571 1.610 . S
N2570 S2569 1.613 . S
N2570 C2573 1.350 . S
N2571 S2569 1.610 . S
N2571 C2572 1.351 . S
C2572 C2566 1.428 . S
C2572 N2571 1.351 . S
C2572 C2573 1.434 . S
C2573 C2564 1.429 . S
C2573 N2570 1.350 . S
C2573 C2572 1.434 . S
C2574 C2575 1.369 . S
C2574 C2576 1.419 . S
C2574 H2578 0.930 . S
C2575 C2574 1.369 . S
C2575 C2584 1.429 1_554 S
C2576 C2574 1.419 . S
C2576 C2577 1.363 1_554 S
C2576 H2579 0.929 . S
C2577 C2576 1.363 1_556 S
C2577 C2583 1.428 . S
H2578 C2574 0.930 . S
H2579 C2576 0.929 . S
S2580 N2581 1.613 . S
S2580 N2582 1.610 . S
N2581 S2580 1.613 . S
N2581 C2584 1.350 . S
N2582 S2580 1.610 . S
N2582 C2583 1.351 . S
C2583 C2577 1.428 . S
C2583 N2582 1.351 . S
C2583 C2584 1.434 . S
C2584 C2575 1.429 1_556 S
C2584 N2581 1.350 . S
C2584 C2583 1.434 . S
C2585 C2586 1.369 . S
C2585 C2587 1.419 . S
C2585 H2589 0.930 . S
C2586 C2585 1.369 . S
C2586 C2595 1.429 . S
C2587 C2585 1.419 . S
C2587 C2588 1.363 . S
C2587 H2590 0.929 . S
C2588 C2587 1.363 . S
C2588 C2594 1.428 . S
H2589 C2585 0.930 . S
H2590 C2587 0.929 . S
S2591 N2592 1.613 . S
S2591 N2593 1.610 . S
N2592 S2591 1.613 . S
N2592 C2595 1.350 . S
N2593 S2591 1.610 . S
N2593 C2594 1.351 . S
C2594 C2588 1.428 . S
C2594 N2593 1.351 . S
C2594 C2595 1.434 . S
C2595 C2586 1.429 . S
C2595 N2592 1.350 . S
C2595 C2594 1.434 . S
C2596 C2597 1.369 . S
C2596 C2598 1.419 . S
C2596 H2600 0.930 . S
C2597 C2596 1.369 . S
C2597 C2606 1.429 1_554 S
C2598 C2596 1.419 . S
C2598 C2599 1.363 1_554 S
C2598 H2601 0.929 . S
C2599 C2598 1.363 1_556 S
C2599 C2605 1.428 . S
H2600 C2596 0.930 . S
H2601 C2598 0.929 . S
S2602 N2603 1.613 . S
S2602 N2604 1.610 . S
N2603 S2602 1.613 . S
N2603 C2606 1.350 . S
N2604 S2602 1.610 . S
N2604 C2605 1.351 . S
C2605 C2599 1.428 . S
C2605 N2604 1.351 . S
C2605 C2606 1.434 . S
C2606 C2597 1.429 1_556 S
C2606 N2603 1.350 . S
C2606 C2605 1.434 . S
C2607 C2608 1.369 . S
C2607 C2609 1.419 . S
C2607 H2611 0.930 . S
C2608 C2607 1.369 . S
C2608 C2617 1.429 . S
C2609 C2607 1.419 . S
C2609 C2610 1.363 . S
C2609 H2612 0.929 . S
C2610 C2609 1.363 . S
C2610 C2616 1.428 . S
H2611 C2607 0.930 . S
H2612 C2609 0.929 . S
S2613 N2614 1.613 . S
S2613 N2615 1.610 . S
N2614 S2613 1.613 . S
N2614 C2617 1.350 . S
N2615 S2613 1.610 . S
N2615 C2616 1.351 . S
C2616 C2610 1.428 . S
C2616 N2615 1.351 . S
C2616 C2617 1.434 . S
C2617 C2608 1.429 . S
C2617 N2614 1.350 . S
C2617 C2616 1.434 . S
C2618 C2619 1.369 . S
C2618 C2620 1.419 . S
C2618 H2622 0.930 . S
C2619 C2618 1.369 . S
C2619 C2628 1.429 1_556 S
C2620 C2618 1.419 . S
C2620 C2621 1.363 1_556 S
C2620 H2623 0.929 . S
C2621 C2620 1.363 1_554 S
C2621 C2627 1.428 . S
H2622 C2618 0.930 . S
H2623 C2620 0.929 . S
S2624 N2625 1.613 . S
S2624 N2626 1.610 . S
N2625 S2624 1.613 . S
N2625 C2628 1.350 . S
N2626 S2624 1.610 . S
N2626 C2627 1.351 . S
C2627 C2621 1.428 . S
C2627 N2626 1.351 . S
C2627 C2628 1.434 . S
C2628 C2619 1.429 1_554 S
C2628 N2625 1.350 . S
C2628 C2627 1.434 . S
C2629 C2630 1.369 . S
C2629 C2631 1.419 . S
C2629 H2633 0.930 . S
C2630 C2629 1.369 . S
C2630 C2639 1.429 . S
C2631 C2629 1.419 . S
C2631 C2632 1.363 . S
C2631 H2634 0.929 . S
C2632 C2631 1.363 . S
C2632 C2638 1.428 . S
H2633 C2629 0.930 . S
H2634 C2631 0.929 . S
S2635 N2636 1.613 . S
S2635 N2637 1.610 . S
N2636 S2635 1.613 . S
N2636 C2639 1.350 . S
N2637 S2635 1.610 . S
N2637 C2638 1.351 . S
C2638 C2632 1.428 . S
C2638 N2637 1.351 . S
C2638 C2639 1.434 . S
C2639 C2630 1.429 . S
C2639 N2636 1.350 . S
C2639 C2638 1.434 . S
C2113 C20 1.536 . S
C2115 C1369 1.537 . S
C2124 C117 1.534 . S
C2126 C1457 1.537 . S
C2135 C1553 1.538 . S
C2137 C205 1.536 . S
C2146 C1105 1.537 . S
C2148 C293 1.535 . S
C2157 C1164 1.538 . S
C2159 C372 1.537 . S
C2168 C1281 1.536 . S
C2170 C460 1.534 . S
C2179 C1868 1.536 . S
C2181 C577 1.535 . S
C2190 C665 1.535 . S
C2192 C1965 1.537 . S
C2201 C2044 1.538 . S
C2203 C753 1.536 . S
C2212 C841 1.535 . S
C2214 C1641 1.537 . S
C2223 C1701 1.538 . S
C2225 C929 1.536 . S
C2234 C1025 1.534 . S
C2236 C1789 1.537 . S
C2245 C909 1.023 . S
C2247 C57 1.018 . S
C2256 C988 1.021 . S
C2258 C137 1.022 . S
C2267 C225 1.023 . S
C2269 C557 1.016 . S
C2278 C313 1.019 . S
C2280 C645 1.021 . S
C2289 C733 1.024 . S
C2291 C409 1.019 . S
C2300 C497 1.022 . S
C2302 C821 1.019 . S
C2311 C1956 1.011 . S
C2313 C1113 1.004 . S
C2322 C1173 1.002 . S
C2324 C2053 1.010 . S
C2333 C1289 1.008 . S
C2335 C1633 1.008 . S
C2344 C1692 1.004 . S
C2346 C1377 1.005 . S
C2355 C1465 1.006 . S
C2357 C1780 1.010 . S
C2366 C1545 1.011 . S
C2368 C1877 1.005 . S
C2377 C29 1.294 . S
C2379 C1604 1.293 . S
C2388 C1721 1.294 . S
C2390 C108 1.293 . S
C2399 C196 1.291 . S
C2401 C1809 1.292 . S
C2410 C284 1.287 . S
C2412 C1905 1.288 . S
C2421 C1985 1.289 . S
C2423 C381 1.289 . S
C2432 C469 1.291 . S
C2434 C2081 1.291 . S
C2443 C585 1.292 . S
C2445 C1085 1.292 . S
C2454 C673 1.292 . S
C2456 C1201 1.291 . S
C2465 C1261 1.288 . S
C2467 C761 1.288 . S
C2476 C1349 1.293 . S
C2478 C849 1.293 . S
C2487 C937 1.289 . S
C2489 C1437 1.289 . S
C2498 C1516 1.294 . S
C2500 C1017 1.293 . S
C2509 C548 1.626 . S
C2511 C49 1.626 . S
C2520 C145 1.626 . S
C2522 C636 1.626 . S
C2531 C724 1.625 . S
C2533 C233 1.625 . S
C2542 C812 1.626 . S
C2544 C321 1.626 . S
C2553 C900 1.626 . S
C2555 C401 1.626 . S
C2564 C489 1.625 . S
C2566 C997 1.626 . S
C2575 C1613 1.621 . S
C2577 C1076 1.622 . S
C2586 C1193 1.623 . S
C2588 C1729 1.623 . S
C2597 C1817 1.621 . S
C2599 C1252 1.622 . S
C2608 C1897 1.621 . S
C2610 C1340 1.621 . S
C2619 C1428 1.622 . S
C2621 C1993 1.622 . S
C2630 C1525 1.622 . S
C2632 C2073 1.622 . S
