# Generated by pormake.
# Topology ilc, (8)-cn, num edge types: 1
# Building blocks:
#     Node 0, Type 0, BuildingBlock: TAGTUT_clean_sbu_3, # of connection points: 8
#     Node 1, Type 0, BuildingBlock: TAGTUT_clean_sbu_3, # of connection points: 8
#     Node 2, Type 0, BuildingBlock: TAGTUT_clean_sbu_3, # of connection points: 8
#     Edge 3, Type (0, 0), BuildingBlock: ZUJKAS_clean_linker_0, # of connection points: 2
#     Edge 4, Type (0, 0), BuildingBlock: ZUJKAS_clean_linker_0, # of connection points: 2
#     Edge 5, Type (0, 0), BuildingBlock: ZUJKAS_clean_linker_0, # of connection points: 2
#     Edge 6, Type (0, 0), BuildingBlock: ZUJKAS_clean_linker_0, # of connection points: 2
#     Edge 7, Type (0, 0), BuildingBlock: ZUJKAS_clean_linker_0, # of connection points: 2
#     Edge 8, Type (0, 0), BuildingBlock: ZUJKAS_clean_linker_0, # of connection points: 2
#     Edge 9, Type (0, 0), BuildingBlock: ZUJKAS_clean_linker_0, # of connection points: 2
#     Edge 10, Type (0, 0), BuildingBlock: ZUJKAS_clean_linker_0, # of connection points: 2
#     Edge 11, Type (0, 0), BuildingBlock: ZUJKAS_clean_linker_0, # of connection points: 2
#     Edge 12, Type (0, 0), BuildingBlock: ZUJKAS_clean_linker_0, # of connection points: 2
#     Edge 13, Type (0, 0), BuildingBlock: ZUJKAS_clean_linker_0, # of connection points: 2
#     Edge 14, Type (0, 0), BuildingBlock: ZUJKAS_clean_linker_0, # of connection points: 2
# Relax obj value: 0.177
# Max RMSD: 0.149
# Mean RMSD: 0.149
data_MOF--net-ilc--node1-TAGTUT_clean_sbu_3--edge1-ZUJKAS_clean_linker_0
_symmetry_space_group_name_H-M    P1
_symmetry_Int_Tables_number       1
_symmetry_cell_setting            triclinic
loop_
_symmetry_equiv_pos_as_xyz
'x, y, z'
_cell_length_a     33.863115
_cell_length_b     33.976456
_cell_length_c     18.010202
_cell_angle_alpha  92.3043
_cell_angle_beta   87.897102
_cell_angle_gamma 132.38556
loop_
_atom_site_label
_atom_site_type_symbol
_atom_site_fract_x
_atom_site_fract_y
_atom_site_fract_z
_atom_type_partial_charge
C0 C 0.05287 0.0789 0.09586 0.0
C1 C 0.09919 0.0269 0.2115 0.0
C2 C 0.05182 0.91122 0.16707 0.0
Mg3 Mg 1.00478 0.08342 0.94577 0.0
Mg4 Mg 0.89555 0.96369 0.8526 0.0
O5 O 0.95163 1.00198 0.92597 0.0
Mg6 Mg 0.97109 0.97284 0.99375 0.0
O7 O 0.99672 0.94531 0.05846 0.0
Mg8 Mg 0.07707 1.00089 0.03541 0.0
Mg9 Mg 0.98718 0.93945 0.16272 0.0
C10 C 0.88618 0.8677 0.87571 0.0
O11 O 0.89229 0.92841 0.0688 0.0
O12 O 0.99003 0.05636 0.82922 0.0
O13 O 0.9079 0.90959 0.17668 0.0
O14 O 0.92729 0.07226 0.94808 0.0
O15 O 0.93689 0.99553 0.7468 0.0
O16 O 0.86246 0.99868 0.87974 0.0
O17 O 0.05299 0.01784 0.93176 0.0
O18 O 0.08014 0.09739 0.9162 0.0
C19 C 0.08799 0.0656 0.90887 0.0
C20 C 0.98177 0.041 0.76226 0.0
O21 O 0.92775 0.89701 0.91702 0.0
O22 O 0.11036 0.01319 0.15268 0.0
O23 O 0.86089 0.88179 0.8583 0.0
O24 O 0.08465 0.95427 0.12813 0.0
O25 O 0.05278 0.01082 0.22152 0.0
O26 O 1.0038 0.89037 0.17992 0.0
O27 O 1.0099 0.05167 0.05827 0.0
O28 O 0.08045 0.06564 0.09504 0.0
C29 C 0.8819 0.04219 0.91423 0.0
C30 C 0.87751 0.90837 0.13433 0.0
C31 C 0.73921 0.42337 0.43148 0.0
C32 C 0.7064 0.30407 0.56947 0.0
C33 C 0.71302 0.21528 0.41708 0.0
Mg34 Mg 0.67427 0.40972 0.29856 0.0
Mg35 Mg 0.6078 0.31357 0.1794 0.0
O36 O 0.61686 0.32846 0.28238 0.0
Mg37 Mg 0.64471 0.30497 0.3517 0.0
O38 O 0.67573 0.28908 0.42562 0.0
Mg39 Mg 0.75875 0.34057 0.39531 0.0
Mg40 Mg 0.62967 0.22377 0.48454 0.0
C41 C 0.57555 0.20536 0.21838 0.0
O42 O 0.56932 0.265 0.42837 0.0
O43 O 0.68716 0.43686 0.17573 0.0
O44 O 0.54883 0.19298 0.47622 0.0
O45 O 0.62922 0.41598 0.20088 0.0
O46 O 0.67943 0.37287 0.11741 0.0
O47 O 0.56196 0.33344 0.15632 0.0
O48 O 0.72149 0.3402 0.28611 0.0
O49 O 0.7387 0.41122 0.24463 0.0
C50 C 0.74989 0.3821 0.24684 0.0
C51 C 0.69801 0.42033 0.1202 0.0
O52 O 0.59819 0.22317 0.28251 0.0
O53 O 0.71333 0.30525 0.49985 0.0
O54 O 0.57529 0.23354 0.1737 0.0
O55 O 0.74443 0.26159 0.38614 0.0
O56 O 0.66163 0.2621 0.59382 0.0
O57 O 0.66843 0.19487 0.44959 0.0
O58 O 0.6916 0.38884 0.40663 0.0
O59 O 0.77071 0.41482 0.42773 0.0
C60 C 0.58499 0.38239 0.16381 0.0
C61 C 0.53756 0.22147 0.46472 0.0
C62 C 0.39199 0.75234 0.76707 0.0
C63 C 0.35313 0.62046 0.88942 0.0
C64 C 0.37389 0.54813 0.7324 0.0
Mg65 Mg 0.34397 0.74626 0.61777 0.0
Mg66 Mg 0.24841 0.64217 0.51485 0.0
O67 O 0.29507 0.6682 0.59256 0.0
Mg68 Mg 0.30829 0.63869 0.67208 0.0
O69 O 0.33175 0.61868 0.75355 0.0
Mg70 Mg 0.41795 0.67448 0.7346 0.0
Mg71 Mg 0.28263 0.546 0.79593 0.0
C72 C 0.23254 0.5387 0.54092 0.0
O73 O 0.22573 0.59382 0.73638 0.0
O74 O 0.34998 0.77045 0.49902 0.0
O75 O 0.20409 0.52026 0.78177 0.0
O76 O 0.26816 0.73613 0.63099 0.0
O77 O 0.30317 0.69621 0.42833 0.0
O78 O 0.20772 0.66815 0.55255 0.0
O79 O 0.39064 0.6778 0.61953 0.0
O80 O 0.41329 0.75295 0.58537 0.0
C81 C 0.42274 0.72248 0.58621 0.0
C82 C 0.33846 0.74701 0.43573 0.0
O83 O 0.26513 0.56001 0.59629 0.0
O84 O 0.3546 0.63042 0.82104 0.0
O85 O 0.21965 0.56204 0.50956 0.0
O86 O 0.40683 0.59843 0.71847 0.0
O87 O 0.31031 0.57507 0.91049 0.0
O88 O 0.32534 0.5216 0.75517 0.0
O89 O 0.34668 0.7199 0.73435 0.0
O90 O 0.42335 0.74368 0.76726 0.0
C91 C 0.22366 0.70747 0.59547 0.0
C92 C 0.19282 0.54881 0.76988 0.0
H93 H 0.07985 0.13891 0.78284 0.0
H94 H 0.16288 0.1748 0.71907 0.0
H95 H 0.07368 0.03746 0.57082 0.0
H96 H 0.99052 1.0003 0.63569 0.0
H97 H 0.17333 0.07141 0.64245 0.0
H98 H 0.13811 0.17918 0.54029 0.0
H99 H 0.20367 0.23379 0.50314 0.0
H100 H 0.19287 0.22468 0.60216 0.0
C101 C 0.07784 0.11668 0.73588 0.0
C102 C 0.0287 0.06701 0.71353 0.0
C103 C 0.12534 0.13709 0.70027 0.0
C104 C 0.1241 0.10835 0.64136 0.0
C105 C 0.07506 0.05966 0.61728 0.0
H106 H 0.07414 0.98341 0.34498 0.0
H107 H 0.12722 0.02412 0.45604 0.0
C108 C 0.02757 0.039 0.65317 0.0
C109 C 0.17274 0.12946 0.59995 0.0
H110 H 0.22488 0.18937 0.43416 0.0
C111 C 0.18735 0.09943 0.59873 0.0
C112 C 0.19332 0.1679 0.54525 0.0
C113 C 0.18163 0.20364 0.54744 0.0
C114 C 0.21346 0.0999 0.5364 0.0
C115 C 0.2191 0.12631 0.4728 0.0
C116 C 0.21739 0.16642 0.4817 0.0
C117 C 0.19743 0.09582 0.40196 0.0
C118 C 0.22454 0.06378 0.53329 0.0
C119 C 0.21899 0.12155 0.33357 0.0
C120 C 0.1878 0.0979 0.26966 0.0
C121 C 0.13473 0.04919 0.27454 0.0
C122 C 0.11473 0.02167 0.34105 0.0
C123 C 0.14585 0.04455 0.40411 0.0
H124 H 0.24323 0.06767 0.58581 0.0
H125 H 0.18637 0.02167 0.52785 0.0
H126 H 0.25131 0.07322 0.48564 0.0
H127 H 0.25817 0.16137 0.33087 0.0
H128 H 0.20378 0.11911 0.21786 0.0
H129 H 0.80534 0.39647 0.52845 0.0
H130 H 0.85653 0.48272 0.5943 0.0
H131 H 0.75152 0.40281 0.78461 0.0
H132 H 0.69746 0.31769 0.71696 0.0
H133 H 0.76839 0.49533 0.67971 0.0
H134 H 0.88921 0.48028 0.82069 0.0
H135 H 0.94262 0.55126 0.81172 0.0
H136 H 0.91341 0.50879 0.72968 0.0
C137 C 0.79316 0.39753 0.58428 0.0
C138 C 0.74581 0.35118 0.61637 0.0
C139 C 0.8229 0.44659 0.62187 0.0
C140 C 0.8068 0.44877 0.69314 0.0
C141 C 0.7638 0.40151 0.72883 0.0
H142 H 0.66885 0.38626 0.97918 0.0
H143 H 0.71627 0.43578 0.86742 0.0
C144 C 0.73307 0.35295 0.69043 0.0
C145 C 0.8281 0.49922 0.72854 0.0
H146 H 0.87706 0.54607 0.90169 0.0
C147 C 0.79466 0.50976 0.72656 0.0
C148 C 0.86419 0.5204 0.78719 0.0
C149 C 0.90475 0.51493 0.78687 0.0
C150 C 0.78679 0.52854 0.79053 0.0
C151 C 0.81177 0.53466 0.85662 0.0
C152 C 0.85577 0.5385 0.85176 0.0
C153 C 0.77882 0.51079 0.92485 0.0
C154 C 0.74406 0.5311 0.7913 0.0
C155 C 0.79816 0.5362 0.99472 0.0
C156 C 0.77043 0.50744 0.05934 0.0
C157 C 0.72447 0.45287 0.05409 0.0
C158 C 0.70451 0.4282 0.98434 0.0
C159 C 0.73123 0.45687 0.92046 0.0
H160 H 0.74264 0.54442 0.73697 0.0
H161 H 0.70439 0.49077 0.80082 0.0
H162 H 0.75106 0.55851 0.83623 0.0
H163 H 0.83544 0.57733 0.9992 0.0
H164 H 0.78631 0.52694 0.11315 0.0
H165 H 0.45484 0.7121 0.85221 0.0
H166 H 0.52049 0.78551 0.93619 0.0
H167 H 0.42235 0.68769 0.12321 0.0
H168 H 0.35578 0.61505 0.0393 0.0
H169 H 0.48727 0.82669 0.01533 0.0
H170 H 0.57131 0.78433 0.21111 0.0
H171 H 0.54741 0.74965 0.12215 0.0
H172 H 0.50342 0.72263 0.20287 0.0
C173 C 0.44748 0.70587 0.91106 0.0
C174 C 0.39894 0.65857 0.93903 0.0
C175 C 0.48577 0.74768 0.95911 0.0
C176 C 0.47661 0.74226 0.03598 0.0
C177 C 0.43098 0.6927 0.06407 0.0
H178 H 0.31795 0.72615 0.2874 0.0
H179 H 0.38468 0.76619 0.18752 0.0
C180 C 0.39243 0.65121 0.01598 0.0
C181 C 0.50451 0.78984 0.08537 0.0
H182 H 0.51618 0.8056 0.27271 0.0
C183 C 0.49673 0.82454 0.07102 0.0
C184 C 0.51985 0.78991 0.15717 0.0
C185 C 0.5365 0.75983 0.17354 0.0
C186 C 0.49022 0.84795 0.12994 0.0
C187 C 0.49118 0.83556 0.20314 0.0
C188 C 0.51275 0.81285 0.21618 0.0
C189 C 0.45213 0.82513 0.25858 0.0
C190 C 0.47374 0.8782 0.11383 0.0
C191 C 0.46775 0.84629 0.33088 0.0
C192 C 0.42936 0.82404 0.38772 0.0
C193 C 0.37519 0.77912 0.37328 0.0
C194 C 0.3593 0.7606 0.29995 0.0
C195 C 0.39746 0.78382 0.2429 0.0
H196 H 0.49756 0.90499 0.0664 0.0
H197 H 0.43104 0.84949 0.098 0.0
H198 H 0.47907 0.90228 0.16279 0.0
H199 H 0.50972 0.87744 0.34416 0.0
H200 H 0.44286 0.83904 0.44396 0.0
H201 H 0.26925 0.81125 0.609 0.0
H202 H 0.23888 0.8498 0.54829 0.0
H203 H 0.09131 0.69234 0.49073 0.0
H204 H 0.12146 0.65338 0.55071 0.0
H205 H 0.21436 0.82579 0.38932 0.0
H206 H 0.04553 0.77639 0.55726 0.0
H207 H 0.09586 0.77925 0.5963 0.0
H208 H 0.0438 0.72271 0.54034 0.0
C209 C 0.22932 0.7846 0.58648 0.0
C210 C 0.19784 0.72903 0.58495 0.0
C211 C 0.21227 0.80684 0.55089 0.0
C212 C 0.16293 0.77405 0.51456 0.0
C213 C 0.12936 0.71851 0.5188 0.0
H214 H 0.9949 0.81078 0.21721 0.0
H215 H 0.02476 0.77987 0.29922 0.0
C216 C 0.14661 0.69624 0.55354 0.0
C217 C 0.14946 0.79744 0.46461 0.0
H218 H 0.05821 0.80865 0.43631 0.0
C219 C 0.18054 0.82257 0.39987 0.0
C220 C 0.10495 0.79256 0.47787 0.0
C221 C 0.07069 0.76663 0.54693 0.0
C222 C 0.16747 0.84157 0.34702 0.0
C223 C 0.12292 0.8369 0.36025 0.0
C224 C 0.09234 0.81237 0.42575 0.0
C225 C 0.1063 0.8557 0.30634 0.0
C226 C 0.20028 0.86434 0.27615 0.0
C227 C 0.14214 0.90862 0.28178 0.0
C228 C 0.12534 0.9261 0.23331 0.0
C229 C 0.07199 0.89137 0.20971 0.0
C230 C 0.03633 0.83847 0.23403 0.0
C231 C 0.05332 0.82082 0.28136 0.0
H232 H 0.22155 0.85029 0.26462 0.0
H233 H 0.17493 0.85337 0.22776 0.0
H234 H 0.2309 0.90844 0.28167 0.0
H235 H 0.18279 0.93692 0.30164 0.0
H236 H 0.15353 0.9674 0.21701 0.0
H237 H 0.27026 0.48763 0.55082 0.0
H238 H 0.24036 0.40855 0.47897 0.0
H239 H 0.11565 0.39278 0.38226 0.0
H240 H 0.14542 0.47137 0.45213 0.0
H241 H 0.14407 0.30244 0.46735 0.0
H242 H 0.19303 0.40081 0.19829 0.0
H243 H 0.21518 0.43716 0.28581 0.0
H244 H 0.14826 0.40083 0.25461 0.0
C245 C 0.23609 0.46693 0.5149 0.0
C246 C 0.21081 0.48656 0.50681 0.0
C247 C 0.21912 0.42178 0.47354 0.0
C248 C 0.1766 0.39536 0.42327 0.0
C249 C 0.14956 0.41319 0.4186 0.0
H250 H 1.01044 0.12557 0.10759 0.0
H251 H 0.0404 0.20131 0.18802 0.0
C252 C 0.16655 0.45818 0.45927 0.0
C253 C 0.16061 0.34983 0.37459 0.0
H254 H 0.14074 0.30707 0.19274 0.0
C255 C 0.14379 0.30367 0.40731 0.0
C256 C 0.16013 0.35109 0.29594 0.0
C257 C 0.18062 0.40031 0.25648 0.0
C258 C 0.12516 0.25853 0.36397 0.0
C259 C 0.12386 0.25957 0.28547 0.0
C260 C 0.14118 0.30588 0.25278 0.0
C261 C 0.10561 0.21346 0.23625 0.0
C262 C 0.10555 0.20945 0.40274 0.0
C263 C 0.13278 0.19552 0.23509 0.0
C264 C 0.11594 0.15249 0.18898 0.0
C265 C 0.07142 0.12609 0.14242 0.0
C266 C 0.04469 0.14463 0.14272 0.0
C267 C 0.0618 0.188 0.18879 0.0
H268 H 0.09705 0.2103 0.46266 0.0
H269 H 0.06874 0.1728 0.37635 0.0
H270 H 0.13671 0.20715 0.39831 0.0
H271 H 0.16739 0.21506 0.26964 0.0
H272 H 0.13784 0.13976 0.19034 0.0
H273 H 0.46355 0.67375 0.571 0.0
H274 H 0.53926 0.70205 0.49114 0.0
H275 H 0.56236 0.83609 0.42004 0.0
H276 H 0.48955 0.80991 0.50023 0.0
H277 H 0.55389 0.71422 0.34003 0.0
H278 H 0.71181 0.90986 0.47674 0.0
H279 H 0.64673 0.85969 0.51879 0.0
H280 H 0.65692 0.90291 0.44988 0.0
C281 C 0.48548 0.70976 0.53937 0.0
C282 C 0.47062 0.73978 0.54329 0.0
C283 C 0.52855 0.72577 0.49339 0.0
C284 C 0.55747 0.772 0.45061 0.0
C285 C 0.54213 0.80138 0.45405 0.0
H286 H 0.8189 0.93717 0.12018 0.0
H287 H 0.7369 0.90106 0.1905 0.0
C288 C 0.49992 0.78594 0.50011 0.0
C289 C 0.60257 0.78928 0.40023 0.0
H290 H 0.73262 0.8973 0.35473 0.0
C291 C 0.59313 0.75403 0.34388 0.0
C292 C 0.65386 0.84147 0.40451 0.0
C293 C 0.66813 0.88043 0.46622 0.0
C294 C 0.63302 0.76993 0.29099 0.0
C295 C 0.68378 0.82236 0.29457 0.0
C296 C 0.69337 0.85745 0.35109 0.0
C297 C 0.72905 0.84025 0.24452 0.0
C298 C 0.62023 0.73101 0.2304 0.0
C299 C 0.75134 0.8177 0.25078 0.0
C300 C 0.798 0.83843 0.21156 0.0
C301 C 0.82349 0.88208 0.1646 0.0
C302 C 0.79987 0.90321 0.15533 0.0
C303 C 0.75327 0.8828 0.19576 0.0
H304 H 0.57643 0.69726 0.22449 0.0
H305 H 0.63727 0.75122 0.17626 0.0
H306 H 0.6383 0.71453 0.24396 0.0
H307 H 0.73393 0.78544 0.28865 0.0
H308 H 0.8152 0.82125 0.21985 0.0
H309 H 0.65983 0.11237 0.45397 0.0
H310 H 0.69201 0.08565 0.53994 0.0
H311 H 0.85016 0.24161 0.52752 0.0
H312 H 0.8183 0.26883 0.44179 0.0
H313 H 0.77517 0.08467 0.54452 0.0
H314 H 0.80738 0.23067 0.74896 0.0
H315 H 0.77072 0.2116 0.66435 0.0
H316 H 0.84248 0.25774 0.66177 0.0
C317 C 0.70198 0.14042 0.46705 0.0
C318 C 0.73622 0.19295 0.44091 0.0
C319 C 0.72024 0.12521 0.51705 0.0
C320 C 0.7731 0.16215 0.5424 0.0
C321 C 0.80882 0.21276 0.51038 0.0
H322 H 0.93587 0.14702 0.88976 0.0
H323 H 0.90802 0.17816 0.80381 0.0
C324 C 0.79068 0.22795 0.45994 0.0
C325 C 0.78938 0.14872 0.60577 0.0
H326 H 0.82901 0.18158 0.78742 0.0
C327 C 0.78696 0.10589 0.59756 0.0
C328 C 0.80473 0.1763 0.67533 0.0
C329 C 0.80616 0.22138 0.68877 0.0
C330 C 0.80003 0.09034 0.65624 0.0
C331 C 0.81456 0.11733 0.72625 0.0
C332 C 0.81753 0.16057 0.73425 0.0
C333 C 0.8277 0.10155 0.79078 0.0
C334 C 0.79932 0.04578 0.64195 0.0
C335 C 0.79065 0.04928 0.81726 0.0
C336 C 0.8064 0.03138 0.8668 0.0
C337 C 0.85949 0.06549 0.89171 0.0
C338 C 0.89457 0.1196 0.87246 0.0
C339 C 0.87886 0.13738 0.82227 0.0
H340 H 0.80176 0.03935 0.5816 0.0
H341 H 0.83304 0.05416 0.67006 0.0
H342 H 0.76135 0.0082 0.66399 0.0
H343 H 0.75037 0.02125 0.79593 0.0
H344 H 0.77825 0.98955 0.88049 0.0
H345 H 0.67857 0.44537 0.48235 0.0
H346 H 0.70771 0.52333 0.55388 0.0
H347 H 0.87132 0.59358 0.53493 0.0
H348 H 0.84198 0.51433 0.46618 0.0
H349 H 0.85514 0.60737 0.66785 0.0
H350 H 0.773 0.66701 0.49538 0.0
H351 H 0.72034 0.59918 0.52185 0.0
H352 H 0.775 0.61728 0.46423 0.0
C353 C 0.7209 0.47778 0.49215 0.0
C354 C 0.75793 0.47364 0.46759 0.0
C355 C 0.73766 0.52274 0.53281 0.0
C356 C 0.79206 0.5655 0.5484 0.0
C357 C 0.8292 0.56164 0.52322 0.0
H358 H 0.95314 0.85322 0.83048 0.0
H359 H 0.93267 0.78199 0.75084 0.0
C360 C 0.81235 0.51626 0.48355 0.0
C361 C 0.8094 0.61213 0.59538 0.0
H362 H 0.79329 0.7009 0.6211 0.0
C363 C 0.84095 0.62721 0.65793 0.0
C364 C 0.79315 0.64016 0.58132 0.0
C365 C 0.76408 0.63046 0.51153 0.0
C366 C 0.85259 0.66575 0.70996 0.0
C367 C 0.83499 0.6927 0.69702 0.0
C368 C 0.80581 0.6796 0.6324 0.0
C369 C 0.84732 0.73542 0.74842 0.0
C370 C 0.88167 0.67531 0.77972 0.0
C371 C 0.80674 0.73473 0.77198 0.0
C372 C 0.81881 0.77675 0.81554 0.0
C373 C 0.87157 0.81987 0.83784 0.0
C374 C 0.91185 0.8199 0.81593 0.0
C375 C 0.90007 0.77879 0.77058 0.0
H376 H 0.8776 0.64095 0.79176 0.0
H377 H 0.92497 0.71027 0.77224 0.0
H378 H 0.86658 0.68302 0.82858 0.0
H379 H 0.76573 0.70206 0.75555 0.0
H380 H 0.78699 0.77586 0.83098 0.0
H381 H 0.44266 0.12199 0.5001 0.0
H382 H 0.36852 0.10004 0.57552 0.0
H383 H 0.45394 0.26743 0.59975 0.0
H384 H 0.52581 0.28896 0.52013 0.0
H385 H 0.36606 0.12132 0.71324 0.0
H386 H 0.31502 0.22011 0.56033 0.0
H387 H 0.35525 0.20785 0.51889 0.0
H388 H 0.38421 0.26367 0.58207 0.0
C389 C 0.44483 0.15394 0.5199 0.0
C390 C 0.48978 0.20716 0.50308 0.0
C391 C 0.40254 0.14142 0.56347 0.0
C392 C 0.4046 0.18186 0.59265 0.0
C393 C 0.44969 0.23506 0.57579 0.0
H394 H 0.18119 0.16889 0.88396 0.0
H395 H 0.26111 0.19961 0.81541 0.0
C396 C 0.49121 0.24745 0.53047 0.0
C397 C 0.36142 0.16848 0.64445 0.0
H398 H 0.27668 0.18931 0.67974 0.0
C399 C 0.34596 0.13553 0.70494 0.0
C400 C 0.33589 0.18811 0.63567 0.0
C401 C 0.34803 0.22143 0.57036 0.0
C402 C 0.30561 0.12112 0.75571 0.0
C403 C 0.27885 0.13927 0.7455 0.0
C404 C 0.29612 0.17433 0.6872 0.0
C405 C 0.23147 0.12066 0.79219 0.0
C406 C 0.29354 0.08793 0.82114 0.0
C407 C 0.18753 0.06593 0.80243 0.0
C408 C 0.14208 0.04828 0.84292 0.0
C409 C 0.13866 0.08479 0.87291 0.0
C410 C 0.1825 0.13956 0.86241 0.0
C411 C 0.22829 0.15723 0.82279 0.0
H412 H 0.32926 0.0948 0.83669 0.0
H413 H 0.27992 0.09689 0.87048 0.0
H414 H 0.26169 0.04509 0.80584 0.0
H415 H 0.18755 0.0365 0.77716 0.0
H416 H 0.10875 0.00581 0.84833 0.0
H417 H 0.48533 0.32325 0.10637 0.0
H418 H 0.45341 0.35193 0.02404 0.0
H419 H 0.60635 0.51287 0.03559 0.0
H420 H 0.63884 0.48443 0.11854 0.0
H421 H 0.44986 0.43454 0.05092 0.0
H422 H 0.57798 0.47527 0.80748 0.0
H423 H 0.56521 0.43467 0.88342 0.0
H424 H 0.61088 0.50577 0.89496 0.0
C425 C 0.51224 0.36487 0.09184 0.0
C426 C 0.56472 0.40151 0.11922 0.0
C427 C 0.49387 0.38117 0.04462 0.0
C428 C 0.52765 0.43436 0.02265 0.0
C429 C 0.57978 0.47143 0.05091 0.0
H430 H 0.48011 0.59878 0.73551 0.0
H431 H 0.51744 0.5689 0.80059 0.0
C432 C 0.59812 0.45522 0.09895 0.0
C433 C 0.50758 0.45053 0.97085 0.0
H434 H 0.52142 0.49214 0.79405 0.0
C435 C 0.46545 0.44709 0.99473 0.0
C436 C 0.52816 0.4672 0.89766 0.0
C437 C 0.57283 0.47075 0.86873 0.0
C438 C 0.44368 0.46034 0.94793 0.0
C439 C 0.46322 0.47572 0.87386 0.0
C440 C 0.50585 0.47971 0.85024 0.0
C441 C 0.44125 0.48994 0.82173 0.0
C442 C 0.401 0.45925 0.97936 0.0
C443 C 0.38626 0.45434 0.80667 0.0
C444 C 0.3645 0.47138 0.7695 0.0
C445 C 0.39737 0.52434 0.74571 0.0
C446 C 0.45319 0.55781 0.75312 0.0
C447 C 0.47479 0.54087 0.79099 0.0
H448 H 0.40145 0.46148 0.04109 0.0
H449 H 0.40617 0.49283 0.95858 0.0
H450 H 0.36114 0.42133 0.96225 0.0
H451 H 0.35965 0.41413 0.82726 0.0
H452 H 0.32148 0.44412 0.76429 0.0
H453 H 0.48296 0.82399 0.84692 0.0
H454 H 0.50827 0.89671 0.92675 0.0
H455 H 0.36657 0.86392 0.86465 0.0
H456 H 0.33979 0.78911 0.78482 0.0
H457 H 0.53292 0.98577 0.90498 0.0
H458 H 0.35177 0.86373 0.08567 0.0
H459 H 0.36401 0.83423 0.01427 0.0
H460 H 0.33746 0.86341 0.99058 0.0
C461 C 0.45694 0.83203 0.8495 0.0
C462 C 0.40895 0.80013 0.80936 0.0
C463 C 0.4716 0.87387 0.8957 0.0
C464 C 0.43884 0.8853 0.90359 0.0
C465 C 0.39185 0.85503 0.86142 0.0
H466 H 0.48429 0.13834 0.14028 0.0
H467 H 0.4499 0.05767 0.0711 0.0
C468 C 0.37683 0.81258 0.81509 0.0
C469 C 0.45488 0.92907 0.95602 0.0
H470 H 0.41437 0.95727 0.10949 0.0
C471 C 0.50695 0.97932 0.94982 0.0
C472 C 0.4212 0.92092 0.01494 0.0
C473 C 0.36571 0.86754 0.02736 0.0
C474 C 0.52605 0.02147 1.00003 0.0
C475 C 0.49248 0.01326 0.05885 0.0
C476 C 0.44029 0.9633 0.06492 0.0
C477 C 0.50941 0.05759 0.1103 0.0
C478 C 0.58165 0.07495 0.98856 0.0
C479 C 0.55304 0.08323 0.15827 0.0
C480 C 0.57263 0.12945 0.19888 0.0
C481 C 0.54905 0.15076 0.19139 0.0
C482 C 0.50345 0.12298 0.14694 0.0
C483 C 0.4837 0.07682 0.10727 0.0
H484 H 0.59858 0.07745 0.93305 0.0
H485 H 0.58154 0.10754 0.99442 0.0
H486 H 0.60841 0.0816 0.03148 0.0
H487 H 0.57306 0.0686 0.16221 0.0
H488 H 0.60801 0.15021 0.23224 0.0
H489 H 0.17647 0.61257 0.82983 0.0
H490 H 0.10354 0.58596 0.91345 0.0
H491 H 0.02408 0.42089 0.87767 0.0
H492 H 0.09826 0.44759 0.79766 0.0
H493 H 1.00294 0.53168 0.90911 0.0
H494 H 0.02465 0.42269 0.0961 0.0
H495 H 0.07147 0.46223 0.02142 0.0
H496 H 1.00961 0.39483 0.00379 0.0
C497 C 0.14305 0.57053 0.8389 0.0
C498 C 0.1435 0.53228 0.80711 0.0
C499 C 0.10136 0.55527 0.88735 0.0
C500 C 0.0587 0.50131 0.90473 0.0
C501 C 0.05732 0.4629 0.86846 0.0
H502 H 0.76541 0.32078 0.17369 0.0
H503 H 0.84174 0.35169 0.09373 0.0
C504 C 0.09949 0.47819 0.82146 0.0
C505 C 0.01603 0.48531 0.96061 0.0
H506 H 0.9457 0.40856 0.11348 0.0
C507 C 0.99088 0.50512 0.95412 0.0
C508 C 1.00017 0.45106 0.02052 0.0
C509 C 0.02833 0.43201 0.03643 0.0
C510 C 0.94972 0.49056 0.0036 0.0
C511 C 0.93237 0.45457 0.06148 0.0
C512 C 0.95802 0.43536 0.06869 0.0
C513 C 0.88729 0.43579 0.11416 0.0
C514 C 0.92428 0.51296 0.99196 0.0
C515 C 0.88771 0.47226 0.15498 0.0
C516 C 0.84351 0.45464 0.19891 0.0
C517 C 0.79855 0.39992 0.20605 0.0
C518 C 0.79944 0.36318 0.16942 0.0
C519 C 0.84312 0.38092 0.12353 0.0
H520 H 0.93525 0.53174 0.93722 0.0
H521 H 0.88005 0.48145 0.99679 0.0
H522 H 0.93884 0.54458 0.03435 0.0
H523 H 0.92207 0.51459 0.15257 0.0
H524 H 0.8445 0.48399 0.22737 0.0
loop_
_geom_bond_atom_site_label_1
_geom_bond_atom_site_label_2
_geom_bond_distance
_geom_bond_site_symmetry_2
_ccdc_geom_bond_type
C0 O27 1.312 . S
C0 O28 1.208 . S
C1 O22 1.331 1_565 S
C1 O25 1.244 1_455 S
C2 O24 1.264 . S
C2 O26 1.273 . S
Mg3 O5 1.936 1_455 S
Mg3 O12 2.081 . S
Mg3 O14 2.023 1_455 S
Mg3 O18 2.031 . S
Mg3 O27 2.291 1_556 S
Mg4 O5 1.963 1_565 S
Mg4 O15 1.942 . S
Mg4 O16 1.955 1_565 S
Mg4 O23 1.986 . S
O5 Mg3 1.936 1_655 S
O5 Mg4 1.963 1_545 S
O5 Mg6 1.915 1_546 S
Mg6 O5 1.915 1_564 S
Mg6 O7 1.915 1_655 S
Mg6 O11 2.013 . S
Mg6 O17 2.114 1_664 S
Mg6 O21 2.013 1_554 S
Mg6 O27 2.114 1_665 S
O7 Mg6 1.915 1_455 S
O7 Mg8 1.936 1_565 S
O7 Mg9 1.963 1_455 S
Mg8 O7 1.936 1_545 S
Mg8 O17 2.291 1_554 S
Mg8 O22 2.081 . S
Mg8 O24 2.023 1_545 S
Mg8 O28 2.031 . S
Mg9 O7 1.963 1_655 S
Mg9 O13 1.986 . S
Mg9 O25 1.942 . S
Mg9 O26 1.955 1_655 S
C10 O21 1.191 . S
C10 O23 1.307 . S
O11 Mg6 2.013 . S
O11 C30 1.191 . S
O12 Mg3 2.081 . S
O12 C20 1.331 1_455 S
O13 Mg9 1.986 . S
O13 C30 1.307 . S
O14 Mg3 2.023 1_655 S
O14 C29 1.264 . S
O15 Mg4 1.942 . S
O15 C20 1.244 1_565 S
O16 Mg4 1.955 1_545 S
O16 C29 1.273 . S
O17 Mg6 2.114 1_446 S
O17 Mg8 2.291 1_556 S
O17 C19 1.312 . S
O18 Mg3 2.031 . S
O18 C19 1.208 . S
C19 O17 1.312 . S
C19 O18 1.208 . S
C20 O12 1.331 1_655 S
C20 O15 1.244 1_545 S
O21 Mg6 2.013 1_556 S
O21 C10 1.191 . S
O22 C1 1.331 1_545 S
O22 Mg8 2.081 . S
O23 Mg4 1.986 . S
O23 C10 1.307 . S
O24 C2 1.264 . S
O24 Mg8 2.023 1_565 S
O25 C1 1.244 1_655 S
O25 Mg9 1.942 . S
O26 C2 1.273 . S
O26 Mg9 1.955 1_455 S
O27 C0 1.312 . S
O27 Mg3 2.291 1_554 S
O27 Mg6 2.114 1_445 S
O28 C0 1.208 . S
O28 Mg8 2.031 . S
C29 O14 1.264 . S
C29 O16 1.273 . S
C30 O11 1.191 . S
C30 O13 1.307 . S
C31 O58 1.312 . S
C31 O59 1.208 . S
C32 O53 1.331 . S
C32 O56 1.244 . S
C33 O55 1.264 . S
C33 O57 1.273 . S
Mg34 O36 1.936 . S
Mg34 O43 2.081 . S
Mg34 O45 2.023 . S
Mg34 O49 2.031 . S
Mg34 O58 2.291 . S
Mg35 O36 1.963 . S
Mg35 O46 1.942 . S
Mg35 O47 1.955 . S
Mg35 O54 1.986 . S
O36 Mg34 1.936 . S
O36 Mg35 1.963 . S
O36 Mg37 1.915 . S
Mg37 O36 1.915 . S
Mg37 O38 1.915 . S
Mg37 O42 2.013 . S
Mg37 O48 2.114 . S
Mg37 O52 2.013 . S
Mg37 O58 2.114 . S
O38 Mg37 1.915 . S
O38 Mg39 1.936 . S
O38 Mg40 1.963 . S
Mg39 O38 1.936 . S
Mg39 O48 2.291 . S
Mg39 O53 2.081 . S
Mg39 O55 2.023 . S
Mg39 O59 2.031 . S
Mg40 O38 1.963 . S
Mg40 O44 1.986 . S
Mg40 O56 1.942 . S
Mg40 O57 1.955 . S
C41 O52 1.191 . S
C41 O54 1.307 . S
O42 Mg37 2.013 . S
O42 C61 1.191 . S
O43 Mg34 2.081 . S
O43 C51 1.331 . S
O44 Mg40 1.986 . S
O44 C61 1.307 . S
O45 Mg34 2.023 . S
O45 C60 1.264 . S
O46 Mg35 1.942 . S
O46 C51 1.244 . S
O47 Mg35 1.955 . S
O47 C60 1.273 . S
O48 Mg37 2.114 . S
O48 Mg39 2.291 . S
O48 C50 1.312 . S
O49 Mg34 2.031 . S
O49 C50 1.208 . S
C50 O48 1.312 . S
C50 O49 1.208 . S
C51 O43 1.331 . S
C51 O46 1.244 . S
O52 Mg37 2.013 . S
O52 C41 1.191 . S
O53 C32 1.331 . S
O53 Mg39 2.081 . S
O54 Mg35 1.986 . S
O54 C41 1.307 . S
O55 C33 1.264 . S
O55 Mg39 2.023 . S
O56 C32 1.244 . S
O56 Mg40 1.942 . S
O57 C33 1.273 . S
O57 Mg40 1.955 . S
O58 C31 1.312 . S
O58 Mg34 2.291 . S
O58 Mg37 2.114 . S
O59 C31 1.208 . S
O59 Mg39 2.031 . S
C60 O45 1.264 . S
C60 O47 1.273 . S
C61 O42 1.191 . S
C61 O44 1.307 . S
C62 O89 1.312 . S
C62 O90 1.208 . S
C63 O84 1.331 . S
C63 O87 1.244 . S
C64 O86 1.264 . S
C64 O88 1.273 . S
Mg65 O67 1.936 . S
Mg65 O74 2.081 . S
Mg65 O76 2.023 . S
Mg65 O80 2.031 . S
Mg65 O89 2.291 . S
Mg66 O67 1.963 . S
Mg66 O77 1.942 . S
Mg66 O78 1.955 . S
Mg66 O85 1.986 . S
O67 Mg65 1.936 . S
O67 Mg66 1.963 . S
O67 Mg68 1.915 . S
Mg68 O67 1.915 . S
Mg68 O69 1.915 . S
Mg68 O73 2.013 . S
Mg68 O79 2.114 . S
Mg68 O83 2.013 . S
Mg68 O89 2.114 . S
O69 Mg68 1.915 . S
O69 Mg70 1.936 . S
O69 Mg71 1.963 . S
Mg70 O69 1.936 . S
Mg70 O79 2.291 . S
Mg70 O84 2.081 . S
Mg70 O86 2.023 . S
Mg70 O90 2.031 . S
Mg71 O69 1.963 . S
Mg71 O75 1.986 . S
Mg71 O87 1.942 . S
Mg71 O88 1.955 . S
C72 O83 1.191 . S
C72 O85 1.307 . S
O73 Mg68 2.013 . S
O73 C92 1.191 . S
O74 Mg65 2.081 . S
O74 C82 1.331 . S
O75 Mg71 1.986 . S
O75 C92 1.307 . S
O76 Mg65 2.023 . S
O76 C91 1.264 . S
O77 Mg66 1.942 . S
O77 C82 1.244 . S
O78 Mg66 1.955 . S
O78 C91 1.273 . S
O79 Mg68 2.114 . S
O79 Mg70 2.291 . S
O79 C81 1.312 . S
O80 Mg65 2.031 . S
O80 C81 1.208 . S
C81 O79 1.312 . S
C81 O80 1.208 . S
C82 O74 1.331 . S
C82 O77 1.244 . S
O83 Mg68 2.013 . S
O83 C72 1.191 . S
O84 C63 1.331 . S
O84 Mg70 2.081 . S
O85 Mg66 1.986 . S
O85 C72 1.307 . S
O86 C64 1.264 . S
O86 Mg70 2.023 . S
O87 C63 1.244 . S
O87 Mg71 1.942 . S
O88 C64 1.273 . S
O88 Mg71 1.955 . S
O89 C62 1.312 . S
O89 Mg65 2.291 . S
O89 Mg68 2.114 . S
O90 C62 1.208 . S
O90 Mg70 2.031 . S
C91 O76 1.264 . S
C91 O78 1.273 . S
C92 O73 1.191 . S
C92 O75 1.307 . S
H93 C101 0.929 . S
H94 C103 0.930 . S
H95 C105 0.928 . S
H96 C108 0.929 1_565 S
H97 C111 0.930 . S
H98 C113 0.960 . S
H99 C113 0.960 1_455 S
H100 C113 0.960 . S
C101 H93 0.929 . S
C101 C102 1.375 . S
C101 C103 1.384 . S
C102 C101 1.375 . S
C102 C108 1.392 1_455 S
C103 H94 0.930 . S
C103 C101 1.384 . S
C103 C104 1.372 . S
C104 C103 1.372 . S
C104 C105 1.404 1_445 S
C104 C109 1.490 . S
C105 H95 0.928 . S
C105 C104 1.404 1_665 S
C105 C108 1.384 1_565 S
H106 C122 0.930 . S
H107 C123 0.931 . S
C108 H96 0.929 1_545 S
C108 C102 1.392 1_655 S
C108 C105 1.384 1_545 S
C109 C104 1.490 . S
C109 C111 1.395 1_545 S
C109 C112 1.403 . S
H110 C116 0.930 1_655 S
C111 H97 0.930 . S
C111 C109 1.395 1_565 S
C111 C114 1.403 . S
C112 C109 1.403 . S
C112 C113 1.524 1_455 S
C112 C116 1.400 . S
C113 H98 0.960 . S
C113 H99 0.960 1_655 S
C113 H100 0.960 . S
C113 C112 1.524 1_655 S
C114 C111 1.403 . S
C114 C115 1.392 1_565 S
C114 C118 1.495 . S
C115 C114 1.392 1_545 S
C115 C116 1.385 . S
C115 C117 1.481 . S
C116 H110 0.930 1_455 S
C116 C112 1.400 . S
C116 C115 1.385 . S
C117 C115 1.481 . S
C117 C119 1.378 . S
C117 C123 1.384 1_445 S
C118 C114 1.495 . S
C118 H124 0.959 . S
C118 H125 0.961 . S
C118 H126 0.960 . S
C119 C117 1.378 . S
C119 C120 1.394 . S
C119 H127 0.930 . S
C120 C119 1.394 . S
C120 C121 1.383 1_545 S
C120 H128 0.929 . S
C121 C120 1.383 1_565 S
C121 C122 1.377 1_455 S
C122 H106 0.930 . S
C122 C121 1.377 1_655 S
C122 C123 1.379 . S
C123 H107 0.931 . S
C123 C117 1.384 1_665 S
C123 C122 1.379 . S
H124 C118 0.959 . S
H125 C118 0.961 . S
H126 C118 0.960 . S
H127 C119 0.930 . S
H128 C120 0.929 . S
H129 C137 0.929 . S
H130 C139 0.930 . S
H131 C141 0.930 . S
H132 C144 0.929 . S
H133 C147 0.930 . S
H134 C149 0.960 . S
H135 C149 0.960 . S
H136 C149 0.960 . S
C137 H129 0.929 . S
C137 C138 1.377 . S
C137 C139 1.384 . S
C138 C137 1.377 . S
C138 C144 1.390 . S
C139 H130 0.930 . S
C139 C137 1.384 . S
C139 C140 1.372 . S
C140 C139 1.372 . S
C140 C141 1.400 . S
C140 C145 1.490 . S
C141 H131 0.930 . S
C141 C140 1.400 . S
C141 C144 1.386 . S
H142 C158 0.930 . S
H143 C159 0.931 . S
C144 H132 0.929 . S
C144 C138 1.390 . S
C144 C141 1.386 . S
C145 C140 1.490 . S
C145 C147 1.395 . S
C145 C148 1.403 . S
H146 C152 0.930 . S
C147 H133 0.930 . S
C147 C145 1.395 . S
C147 C150 1.403 . S
C148 C145 1.403 . S
C148 C149 1.524 . S
C148 C152 1.400 . S
C149 H134 0.960 . S
C149 H135 0.960 . S
C149 H136 0.960 . S
C149 C148 1.524 . S
C150 C147 1.403 . S
C150 C151 1.392 . S
C150 C154 1.495 . S
C151 C150 1.392 . S
C151 C152 1.385 . S
C151 C153 1.478 . S
C152 H146 0.930 . S
C152 C148 1.400 . S
C152 C151 1.385 . S
C153 C151 1.478 . S
C153 C155 1.381 1_556 S
C153 C159 1.383 1_556 S
C154 C150 1.495 . S
C154 H160 0.959 . S
C154 H161 0.961 . S
C154 H162 0.960 . S
C155 C153 1.381 1_554 S
C155 C156 1.394 . S
C155 H163 0.930 . S
C156 C155 1.394 . S
C156 C157 1.383 . S
C156 H164 0.929 . S
C157 C156 1.383 . S
C157 C158 1.377 . S
C158 H142 0.930 . S
C158 C157 1.377 . S
C158 C159 1.379 . S
C159 H143 0.931 . S
C159 C153 1.383 1_554 S
C159 C158 1.379 . S
H160 C154 0.959 . S
H161 C154 0.961 . S
H162 C154 0.960 . S
H163 C155 0.930 . S
H164 C156 0.929 . S
H165 C173 0.929 . S
H166 C175 0.930 . S
H167 C177 0.930 1_554 S
H168 C180 0.929 . S
H169 C183 0.930 . S
H170 C185 0.960 . S
H171 C185 0.960 . S
H172 C185 0.960 . S
C173 H165 0.929 . S
C173 C174 1.377 . S
C173 C175 1.384 . S
C174 C173 1.377 . S
C174 C180 1.390 . S
C175 H166 0.930 . S
C175 C173 1.384 . S
C175 C176 1.372 1_556 S
C176 C175 1.372 1_554 S
C176 C177 1.400 1_554 S
C176 C181 1.490 . S
C177 H167 0.930 1_556 S
C177 C176 1.400 1_556 S
C177 C180 1.386 . S
H178 C194 0.930 . S
H179 C195 0.931 . S
C180 H168 0.929 . S
C180 C174 1.390 . S
C180 C177 1.386 . S
C181 C176 1.490 . S
C181 C183 1.395 . S
C181 C184 1.403 . S
H182 C188 0.930 . S
C183 H169 0.930 . S
C183 C181 1.395 . S
C183 C186 1.403 . S
C184 C181 1.403 . S
C184 C185 1.524 . S
C184 C188 1.400 . S
C185 H170 0.960 . S
C185 H171 0.960 . S
C185 H172 0.960 . S
C185 C184 1.524 . S
C186 C183 1.403 . S
C186 C187 1.392 . S
C186 C190 1.495 . S
C187 C186 1.392 . S
C187 C188 1.385 . S
C187 C189 1.478 . S
C188 H182 0.930 . S
C188 C184 1.400 . S
C188 C187 1.385 . S
C189 C187 1.478 . S
C189 C191 1.381 . S
C189 C195 1.383 . S
C190 C186 1.495 . S
C190 H196 0.959 . S
C190 H197 0.961 . S
C190 H198 0.960 . S
C191 C189 1.381 . S
C191 C192 1.394 . S
C191 H199 0.930 . S
C192 C191 1.394 . S
C192 C193 1.383 . S
C192 H200 0.929 . S
C193 C192 1.383 . S
C193 C194 1.377 . S
C194 H178 0.930 . S
C194 C193 1.377 . S
C194 C195 1.379 . S
C195 H179 0.931 . S
C195 C189 1.383 . S
C195 C194 1.379 . S
H196 C190 0.959 . S
H197 C190 0.961 . S
H198 C190 0.960 . S
H199 C191 0.930 . S
H200 C192 0.929 . S
H201 C209 0.929 . S
H202 C211 0.930 . S
H203 C213 0.930 . S
H204 C216 0.929 . S
H205 C219 0.930 . S
H206 C221 0.960 . S
H207 C221 0.960 . S
H208 C221 0.960 . S
C209 H201 0.929 . S
C209 C210 1.377 . S
C209 C211 1.384 . S
C210 C209 1.377 . S
C210 C216 1.390 . S
C211 H202 0.930 . S
C211 C209 1.384 . S
C211 C212 1.372 . S
C212 C211 1.372 . S
C212 C213 1.400 . S
C212 C217 1.490 . S
C213 H203 0.930 . S
C213 C212 1.400 . S
C213 C216 1.386 . S
H214 C230 0.930 . S
H215 C231 0.931 . S
C216 H204 0.929 . S
C216 C210 1.390 . S
C216 C213 1.386 . S
C217 C212 1.490 . S
C217 C219 1.395 . S
C217 C220 1.403 . S
H218 C224 0.930 . S
C219 H205 0.930 . S
C219 C217 1.395 . S
C219 C222 1.403 . S
C220 C217 1.403 . S
C220 C221 1.524 . S
C220 C224 1.400 . S
C221 H206 0.960 . S
C221 H207 0.960 . S
C221 H208 0.960 . S
C221 C220 1.524 . S
C222 C219 1.403 . S
C222 C223 1.392 . S
C222 C226 1.495 . S
C223 C222 1.392 . S
C223 C224 1.385 . S
C223 C225 1.478 . S
C224 H218 0.930 . S
C224 C220 1.400 . S
C224 C223 1.385 . S
C225 C223 1.478 . S
C225 C227 1.381 . S
C225 C231 1.383 . S
C226 C222 1.495 . S
C226 H232 0.959 . S
C226 H233 0.961 . S
C226 H234 0.960 . S
C227 C225 1.381 . S
C227 C228 1.394 . S
C227 H235 0.930 . S
C228 C227 1.394 . S
C228 C229 1.383 . S
C228 H236 0.929 . S
C229 C228 1.383 . S
C229 C230 1.377 . S
C230 H214 0.930 . S
C230 C229 1.377 . S
C230 C231 1.379 . S
C231 H215 0.931 . S
C231 C225 1.383 . S
C231 C230 1.379 . S
H232 C226 0.959 . S
H233 C226 0.961 . S
H234 C226 0.960 . S
H235 C227 0.930 . S
H236 C228 0.929 . S
H237 C245 0.929 . S
H238 C247 0.930 . S
H239 C249 0.930 . S
H240 C252 0.929 . S
H241 C255 0.930 . S
H242 C257 0.960 . S
H243 C257 0.960 . S
H244 C257 0.960 . S
C245 H237 0.929 . S
C245 C246 1.377 . S
C245 C247 1.384 . S
C246 C245 1.377 . S
C246 C252 1.390 . S
C247 H238 0.930 . S
C247 C245 1.384 . S
C247 C248 1.372 . S
C248 C247 1.372 . S
C248 C249 1.400 . S
C248 C253 1.490 . S
C249 H239 0.930 . S
C249 C248 1.400 . S
C249 C252 1.386 . S
H250 C266 0.930 . S
H251 C267 0.931 . S
C252 H240 0.929 . S
C252 C246 1.390 . S
C252 C249 1.386 . S
C253 C248 1.490 . S
C253 C255 1.395 . S
C253 C256 1.403 . S
H254 C260 0.930 . S
C255 H241 0.930 . S
C255 C253 1.395 . S
C255 C258 1.403 . S
C256 C253 1.403 . S
C256 C257 1.524 . S
C256 C260 1.400 . S
C257 H242 0.960 . S
C257 H243 0.960 . S
C257 H244 0.960 . S
C257 C256 1.524 . S
C258 C255 1.403 . S
C258 C259 1.392 . S
C258 C262 1.495 . S
C259 C258 1.392 . S
C259 C260 1.385 . S
C259 C261 1.478 . S
C260 H254 0.930 . S
C260 C256 1.400 . S
C260 C259 1.385 . S
C261 C259 1.478 . S
C261 C263 1.381 . S
C261 C267 1.383 . S
C262 C258 1.495 . S
C262 H268 0.959 . S
C262 H269 0.961 . S
C262 H270 0.960 . S
C263 C261 1.381 . S
C263 C264 1.394 . S
C263 H271 0.930 . S
C264 C263 1.394 . S
C264 C265 1.383 . S
C264 H272 0.929 . S
C265 C264 1.383 . S
C265 C266 1.377 . S
C266 H250 0.930 . S
C266 C265 1.377 . S
C266 C267 1.379 . S
C267 H251 0.931 . S
C267 C261 1.383 . S
C267 C266 1.379 . S
H268 C262 0.959 . S
H269 C262 0.961 . S
H270 C262 0.960 . S
H271 C263 0.930 . S
H272 C264 0.929 . S
H273 C281 0.929 . S
H274 C283 0.930 . S
H275 C285 0.930 . S
H276 C288 0.929 . S
H277 C291 0.930 . S
H278 C293 0.960 . S
H279 C293 0.960 . S
H280 C293 0.960 . S
C281 H273 0.929 . S
C281 C282 1.377 . S
C281 C283 1.384 . S
C282 C281 1.377 . S
C282 C288 1.390 . S
C283 H274 0.930 . S
C283 C281 1.384 . S
C283 C284 1.372 . S
C284 C283 1.372 . S
C284 C285 1.400 . S
C284 C289 1.490 . S
C285 H275 0.930 . S
C285 C284 1.400 . S
C285 C288 1.386 . S
H286 C302 0.930 . S
H287 C303 0.931 . S
C288 H276 0.929 . S
C288 C282 1.390 . S
C288 C285 1.386 . S
C289 C284 1.490 . S
C289 C291 1.395 . S
C289 C292 1.403 . S
H290 C296 0.930 . S
C291 H277 0.930 . S
C291 C289 1.395 . S
C291 C294 1.403 . S
C292 C289 1.403 . S
C292 C293 1.524 . S
C292 C296 1.400 . S
C293 H278 0.960 . S
C293 H279 0.960 . S
C293 H280 0.960 . S
C293 C292 1.524 . S
C294 C291 1.403 . S
C294 C295 1.392 . S
C294 C298 1.495 . S
C295 C294 1.392 . S
C295 C296 1.385 . S
C295 C297 1.478 . S
C296 H290 0.930 . S
C296 C292 1.400 . S
C296 C295 1.385 . S
C297 C295 1.478 . S
C297 C299 1.381 . S
C297 C303 1.383 . S
C298 C294 1.495 . S
C298 H304 0.959 . S
C298 H305 0.961 . S
C298 H306 0.960 . S
C299 C297 1.381 . S
C299 C300 1.394 . S
C299 H307 0.930 . S
C300 C299 1.394 . S
C300 C301 1.383 . S
C300 H308 0.929 . S
C301 C300 1.383 . S
C301 C302 1.377 . S
C302 H286 0.930 . S
C302 C301 1.377 . S
C302 C303 1.379 . S
C303 H287 0.931 . S
C303 C297 1.383 . S
C303 C302 1.379 . S
H304 C298 0.959 . S
H305 C298 0.961 . S
H306 C298 0.960 . S
H307 C299 0.930 . S
H308 C300 0.929 . S
H309 C317 0.929 . S
H310 C319 0.930 . S
H311 C321 0.930 . S
H312 C324 0.929 . S
H313 C327 0.930 . S
H314 C329 0.960 . S
H315 C329 0.960 . S
H316 C329 0.960 . S
C317 H309 0.929 . S
C317 C318 1.377 . S
C317 C319 1.384 . S
C318 C317 1.377 . S
C318 C324 1.390 . S
C319 H310 0.930 . S
C319 C317 1.384 . S
C319 C320 1.372 . S
C320 C319 1.372 . S
C320 C321 1.400 . S
C320 C325 1.490 . S
C321 H311 0.930 . S
C321 C320 1.400 . S
C321 C324 1.386 . S
H322 C338 0.930 . S
H323 C339 0.931 . S
C324 H312 0.929 . S
C324 C318 1.390 . S
C324 C321 1.386 . S
C325 C320 1.490 . S
C325 C327 1.395 . S
C325 C328 1.403 . S
H326 C332 0.930 . S
C327 H313 0.930 . S
C327 C325 1.395 . S
C327 C330 1.403 . S
C328 C325 1.403 . S
C328 C329 1.524 . S
C328 C332 1.400 . S
C329 H314 0.960 . S
C329 H315 0.960 . S
C329 H316 0.960 . S
C329 C328 1.524 . S
C330 C327 1.403 . S
C330 C331 1.392 . S
C330 C334 1.495 . S
C331 C330 1.392 . S
C331 C332 1.385 . S
C331 C333 1.478 . S
C332 H326 0.930 . S
C332 C328 1.400 . S
C332 C331 1.385 . S
C333 C331 1.478 . S
C333 C335 1.381 . S
C333 C339 1.383 . S
C334 C330 1.495 . S
C334 H340 0.959 . S
C334 H341 0.961 . S
C334 H342 0.960 . S
C335 C333 1.381 . S
C335 C336 1.394 . S
C335 H343 0.930 . S
C336 C335 1.394 . S
C336 C337 1.383 . S
C336 H344 0.929 . S
C337 C336 1.383 . S
C337 C338 1.377 . S
C338 H322 0.930 . S
C338 C337 1.377 . S
C338 C339 1.379 . S
C339 H323 0.931 . S
C339 C333 1.383 . S
C339 C338 1.379 . S
H340 C334 0.959 . S
H341 C334 0.961 . S
H342 C334 0.960 . S
H343 C335 0.930 . S
H344 C336 0.929 . S
H345 C353 0.929 . S
H346 C355 0.930 . S
H347 C357 0.930 . S
H348 C360 0.929 . S
H349 C363 0.930 . S
H350 C365 0.960 . S
H351 C365 0.960 . S
H352 C365 0.960 . S
C353 H345 0.929 . S
C353 C354 1.377 . S
C353 C355 1.384 . S
C354 C353 1.377 . S
C354 C360 1.390 . S
C355 H346 0.930 . S
C355 C353 1.384 . S
C355 C356 1.372 . S
C356 C355 1.372 . S
C356 C357 1.400 . S
C356 C361 1.490 . S
C357 H347 0.930 . S
C357 C356 1.400 . S
C357 C360 1.386 . S
H358 C374 0.930 . S
H359 C375 0.931 . S
C360 H348 0.929 . S
C360 C354 1.390 . S
C360 C357 1.386 . S
C361 C356 1.490 . S
C361 C363 1.395 . S
C361 C364 1.403 . S
H362 C368 0.930 . S
C363 H349 0.930 . S
C363 C361 1.395 . S
C363 C366 1.403 . S
C364 C361 1.403 . S
C364 C365 1.524 . S
C364 C368 1.400 . S
C365 H350 0.960 . S
C365 H351 0.960 . S
C365 H352 0.960 . S
C365 C364 1.524 . S
C366 C363 1.403 . S
C366 C367 1.392 . S
C366 C370 1.495 . S
C367 C366 1.392 . S
C367 C368 1.385 . S
C367 C369 1.478 . S
C368 H362 0.930 . S
C368 C364 1.400 . S
C368 C367 1.385 . S
C369 C367 1.478 . S
C369 C371 1.381 . S
C369 C375 1.383 . S
C370 C366 1.495 . S
C370 H376 0.959 . S
C370 H377 0.961 . S
C370 H378 0.960 . S
C371 C369 1.381 . S
C371 C372 1.394 . S
C371 H379 0.930 . S
C372 C371 1.394 . S
C372 C373 1.383 . S
C372 H380 0.929 . S
C373 C372 1.383 . S
C373 C374 1.377 . S
C374 H358 0.930 . S
C374 C373 1.377 . S
C374 C375 1.379 . S
C375 H359 0.931 . S
C375 C369 1.383 . S
C375 C374 1.379 . S
H376 C370 0.959 . S
H377 C370 0.961 . S
H378 C370 0.960 . S
H379 C371 0.930 . S
H380 C372 0.929 . S
H381 C389 0.929 . S
H382 C391 0.930 . S
H383 C393 0.930 . S
H384 C396 0.929 . S
H385 C399 0.930 . S
H386 C401 0.960 . S
H387 C401 0.960 . S
H388 C401 0.960 . S
C389 H381 0.929 . S
C389 C390 1.377 . S
C389 C391 1.384 . S
C390 C389 1.377 . S
C390 C396 1.390 . S
C391 H382 0.930 . S
C391 C389 1.384 . S
C391 C392 1.372 . S
C392 C391 1.372 . S
C392 C393 1.400 . S
C392 C397 1.490 . S
C393 H383 0.930 . S
C393 C392 1.400 . S
C393 C396 1.386 . S
H394 C410 0.930 . S
H395 C411 0.931 . S
C396 H384 0.929 . S
C396 C390 1.390 . S
C396 C393 1.386 . S
C397 C392 1.490 . S
C397 C399 1.395 . S
C397 C400 1.403 . S
H398 C404 0.930 . S
C399 H385 0.930 . S
C399 C397 1.395 . S
C399 C402 1.403 . S
C400 C397 1.403 . S
C400 C401 1.524 . S
C400 C404 1.400 . S
C401 H386 0.960 . S
C401 H387 0.960 . S
C401 H388 0.960 . S
C401 C400 1.524 . S
C402 C399 1.403 . S
C402 C403 1.392 . S
C402 C406 1.495 . S
C403 C402 1.392 . S
C403 C404 1.385 . S
C403 C405 1.478 . S
C404 H398 0.930 . S
C404 C400 1.400 . S
C404 C403 1.385 . S
C405 C403 1.478 . S
C405 C407 1.381 . S
C405 C411 1.383 . S
C406 C402 1.495 . S
C406 H412 0.959 . S
C406 H413 0.961 . S
C406 H414 0.960 . S
C407 C405 1.381 . S
C407 C408 1.394 . S
C407 H415 0.930 . S
C408 C407 1.394 . S
C408 C409 1.383 . S
C408 H416 0.929 . S
C409 C408 1.383 . S
C409 C410 1.377 . S
C410 H394 0.930 . S
C410 C409 1.377 . S
C410 C411 1.379 . S
C411 H395 0.931 . S
C411 C405 1.383 . S
C411 C410 1.379 . S
H412 C406 0.959 . S
H413 C406 0.961 . S
H414 C406 0.960 . S
H415 C407 0.930 . S
H416 C408 0.929 . S
H417 C425 0.929 . S
H418 C427 0.930 . S
H419 C429 0.930 . S
H420 C432 0.929 . S
H421 C435 0.930 . S
H422 C437 0.960 . S
H423 C437 0.960 . S
H424 C437 0.960 . S
C425 H417 0.929 . S
C425 C426 1.377 . S
C425 C427 1.384 . S
C426 C425 1.377 . S
C426 C432 1.390 . S
C427 H418 0.930 . S
C427 C425 1.384 . S
C427 C428 1.372 . S
C428 C427 1.372 . S
C428 C429 1.400 . S
C428 C433 1.490 . S
C429 H419 0.930 . S
C429 C428 1.400 . S
C429 C432 1.386 . S
H430 C446 0.930 . S
H431 C447 0.931 . S
C432 H420 0.929 . S
C432 C426 1.390 . S
C432 C429 1.386 . S
C433 C428 1.490 . S
C433 C435 1.395 . S
C433 C436 1.403 1_554 S
H434 C440 0.930 . S
C435 H421 0.930 . S
C435 C433 1.395 . S
C435 C438 1.403 . S
C436 C433 1.403 1_556 S
C436 C437 1.524 . S
C436 C440 1.400 . S
C437 H422 0.960 . S
C437 H423 0.960 . S
C437 H424 0.960 . S
C437 C436 1.524 . S
C438 C435 1.403 . S
C438 C439 1.392 1_554 S
C438 C442 1.495 . S
C439 C438 1.392 1_556 S
C439 C440 1.385 . S
C439 C441 1.478 . S
C440 H434 0.930 . S
C440 C436 1.400 . S
C440 C439 1.385 . S
C441 C439 1.478 . S
C441 C443 1.381 . S
C441 C447 1.383 . S
C442 C438 1.495 . S
C442 H448 0.959 . S
C442 H449 0.961 . S
C442 H450 0.960 . S
C443 C441 1.381 . S
C443 C444 1.394 . S
C443 H451 0.930 . S
C444 C443 1.394 . S
C444 C445 1.383 . S
C444 H452 0.929 . S
C445 C444 1.383 . S
C445 C446 1.377 . S
C446 H430 0.930 . S
C446 C445 1.377 . S
C446 C447 1.379 . S
C447 H431 0.931 . S
C447 C441 1.383 . S
C447 C446 1.379 . S
H448 C442 0.959 . S
H449 C442 0.961 . S
H450 C442 0.960 . S
H451 C443 0.930 . S
H452 C444 0.929 . S
H453 C461 0.929 . S
H454 C463 0.930 . S
H455 C465 0.930 . S
H456 C468 0.929 . S
H457 C471 0.930 . S
H458 C473 0.960 . S
H459 C473 0.960 . S
H460 C473 0.960 . S
C461 H453 0.929 . S
C461 C462 1.377 . S
C461 C463 1.384 . S
C462 C461 1.377 . S
C462 C468 1.390 . S
C463 H454 0.930 . S
C463 C461 1.384 . S
C463 C464 1.372 . S
C464 C463 1.372 . S
C464 C465 1.400 . S
C464 C469 1.490 . S
C465 H455 0.930 . S
C465 C464 1.400 . S
C465 C468 1.386 . S
H466 C482 0.930 . S
H467 C483 0.931 . S
C468 H456 0.929 . S
C468 C462 1.390 . S
C468 C465 1.386 . S
C469 C464 1.490 . S
C469 C471 1.395 1_565 S
C469 C472 1.403 1_556 S
H470 C476 0.930 . S
C471 H457 0.930 . S
C471 C469 1.395 1_545 S
C471 C474 1.403 . S
C472 C469 1.403 1_554 S
C472 C473 1.524 . S
C472 C476 1.400 . S
C473 H458 0.960 . S
C473 H459 0.960 . S
C473 H460 0.960 . S
C473 C472 1.524 . S
C474 C471 1.403 . S
C474 C475 1.392 1_556 S
C474 C478 1.495 . S
C475 C474 1.392 1_554 S
C475 C476 1.385 1_545 S
C475 C477 1.478 . S
C476 H470 0.930 . S
C476 C472 1.400 . S
C476 C475 1.385 1_565 S
C477 C475 1.478 . S
C477 C479 1.381 . S
C477 C483 1.383 . S
C478 C474 1.495 . S
C478 H484 0.959 . S
C478 H485 0.961 . S
C478 H486 0.960 . S
C479 C477 1.381 . S
C479 C480 1.394 . S
C479 H487 0.930 . S
C480 C479 1.394 . S
C480 C481 1.383 . S
C480 H488 0.929 . S
C481 C480 1.383 . S
C481 C482 1.377 . S
C482 H466 0.930 . S
C482 C481 1.377 . S
C482 C483 1.379 . S
C483 H467 0.931 . S
C483 C477 1.383 . S
C483 C482 1.379 . S
H484 C478 0.959 . S
H485 C478 0.961 . S
H486 C478 0.960 . S
H487 C479 0.930 . S
H488 C480 0.929 . S
H489 C497 0.929 . S
H490 C499 0.930 . S
H491 C501 0.930 . S
H492 C504 0.929 . S
H493 C507 0.930 . S
H494 C509 0.960 . S
H495 C509 0.960 . S
H496 C509 0.960 1_556 S
C497 H489 0.929 . S
C497 C498 1.377 . S
C497 C499 1.384 . S
C498 C497 1.377 . S
C498 C504 1.390 . S
C499 H490 0.930 . S
C499 C497 1.384 . S
C499 C500 1.372 . S
C500 C499 1.372 . S
C500 C501 1.400 . S
C500 C505 1.490 . S
C501 H491 0.930 . S
C501 C500 1.400 . S
C501 C504 1.386 . S
H502 C518 0.930 . S
H503 C519 0.931 . S
C504 H492 0.929 . S
C504 C498 1.390 . S
C504 C501 1.386 . S
C505 C500 1.490 . S
C505 C507 1.395 . S
C505 C508 1.403 1_556 S
H506 C512 0.930 . S
C507 H493 0.930 . S
C507 C505 1.395 . S
C507 C510 1.403 1_456 S
C508 C505 1.403 1_554 S
C508 C509 1.524 . S
C508 C512 1.400 1_455 S
C509 H494 0.960 . S
C509 H495 0.960 . S
C509 H496 0.960 1_554 S
C509 C508 1.524 . S
C510 C507 1.403 1_654 S
C510 C511 1.392 . S
C510 C514 1.495 . S
C511 C510 1.392 . S
C511 C512 1.385 . S
C511 C513 1.478 . S
C512 H506 0.930 . S
C512 C508 1.400 1_655 S
C512 C511 1.385 . S
C513 C511 1.478 . S
C513 C515 1.381 . S
C513 C519 1.383 . S
C514 C510 1.495 . S
C514 H520 0.959 1_554 S
C514 H521 0.961 1_554 S
C514 H522 0.960 . S
C515 C513 1.381 . S
C515 C516 1.394 . S
C515 H523 0.930 . S
C516 C515 1.394 . S
C516 C517 1.383 . S
C516 H524 0.929 . S
C517 C516 1.383 . S
C517 C518 1.377 . S
C518 H502 0.930 . S
C518 C517 1.377 . S
C518 C519 1.379 . S
C519 H503 0.931 . S
C519 C513 1.383 . S
C519 C518 1.379 . S
H520 C514 0.959 1_556 S
H521 C514 0.961 1_556 S
H522 C514 0.960 . S
H523 C515 0.930 . S
H524 C516 0.929 . S
C102 C20 1.395 1_455 S
C121 C1 1.390 . S
C138 C32 1.395 . S
C157 C51 1.391 . S
C174 C63 1.395 . S
C193 C82 1.391 . S
C210 C91 2.350 . S
C229 C2 2.350 . S
C246 C72 1.916 . S
C265 C0 1.881 . S
C282 C81 1.902 . S
C301 C30 1.923 . S
C318 C33 2.344 . S
C337 C29 2.321 . S
C354 C31 1.902 . S
C373 C10 1.932 . S
C390 C61 1.916 . S
C409 C19 1.915 . S
C426 C60 2.342 . S
C445 C64 2.322 . S
C462 C62 1.893 . S
C481 C41 1.904 . S
C498 C92 1.911 . S
C517 C50 1.869 . S
