# Generated by pormake.
# Topology uoy, (4)-cn, num edge types: 1
# Building blocks:
#     Node 0, Type 0, BuildingBlock: TATPOV_clean_sbu_0, # of connection points: 4
#     Node 1, Type 0, BuildingBlock: TATPOV_clean_sbu_0, # of connection points: 4
#     Node 2, Type 0, BuildingBlock: TATPOV_clean_sbu_0, # of connection points: 4
#     Node 3, Type 0, BuildingBlock: TATPOV_clean_sbu_0, # of connection points: 4
#     Node 4, Type 0, BuildingBlock: TATPOV_clean_sbu_0, # of connection points: 4
#     Node 5, Type 0, BuildingBlock: TATPOV_clean_sbu_0, # of connection points: 4
#     Node 6, Type 0, BuildingBlock: TATPOV_clean_sbu_0, # of connection points: 4
#     Node 7, Type 0, BuildingBlock: TATPOV_clean_sbu_0, # of connection points: 4
#     Node 8, Type 0, BuildingBlock: TATPOV_clean_sbu_0, # of connection points: 4
#     Node 9, Type 0, BuildingBlock: TATPOV_clean_sbu_0, # of connection points: 4
#     Node 10, Type 0, BuildingBlock: TATPOV_clean_sbu_0, # of connection points: 4
#     Node 11, Type 0, BuildingBlock: TATPOV_clean_sbu_0, # of connection points: 4
#     Node 12, Type 0, BuildingBlock: TATPOV_clean_sbu_0, # of connection points: 4
#     Node 13, Type 0, BuildingBlock: TATPOV_clean_sbu_0, # of connection points: 4
#     Node 14, Type 0, BuildingBlock: TATPOV_clean_sbu_0, # of connection points: 4
#     Node 15, Type 0, BuildingBlock: TATPOV_clean_sbu_0, # of connection points: 4
#     Edge 16, Type (0, 0), BuildingBlock: XIVTED_clean_linker_0, # of connection points: 2
#     Edge 17, Type (0, 0), BuildingBlock: XIVTED_clean_linker_0, # of connection points: 2
#     Edge 18, Type (0, 0), BuildingBlock: XIVTED_clean_linker_0, # of connection points: 2
#     Edge 19, Type (0, 0), BuildingBlock: XIVTED_clean_linker_0, # of connection points: 2
#     Edge 20, Type (0, 0), BuildingBlock: XIVTED_clean_linker_0, # of connection points: 2
#     Edge 21, Type (0, 0), BuildingBlock: XIVTED_clean_linker_0, # of connection points: 2
#     Edge 22, Type (0, 0), BuildingBlock: XIVTED_clean_linker_0, # of connection points: 2
#     Edge 23, Type (0, 0), BuildingBlock: XIVTED_clean_linker_0, # of connection points: 2
#     Edge 24, Type (0, 0), BuildingBlock: XIVTED_clean_linker_0, # of connection points: 2
#     Edge 25, Type (0, 0), BuildingBlock: XIVTED_clean_linker_0, # of connection points: 2
#     Edge 26, Type (0, 0), BuildingBlock: XIVTED_clean_linker_0, # of connection points: 2
#     Edge 27, Type (0, 0), BuildingBlock: XIVTED_clean_linker_0, # of connection points: 2
#     Edge 28, Type (0, 0), BuildingBlock: XIVTED_clean_linker_0, # of connection points: 2
#     Edge 29, Type (0, 0), BuildingBlock: XIVTED_clean_linker_0, # of connection points: 2
#     Edge 30, Type (0, 0), BuildingBlock: XIVTED_clean_linker_0, # of connection points: 2
#     Edge 31, Type (0, 0), BuildingBlock: XIVTED_clean_linker_0, # of connection points: 2
#     Edge 32, Type (0, 0), BuildingBlock: XIVTED_clean_linker_0, # of connection points: 2
#     Edge 33, Type (0, 0), BuildingBlock: XIVTED_clean_linker_0, # of connection points: 2
#     Edge 34, Type (0, 0), BuildingBlock: XIVTED_clean_linker_0, # of connection points: 2
#     Edge 35, Type (0, 0), BuildingBlock: XIVTED_clean_linker_0, # of connection points: 2
#     Edge 36, Type (0, 0), BuildingBlock: XIVTED_clean_linker_0, # of connection points: 2
#     Edge 37, Type (0, 0), BuildingBlock: XIVTED_clean_linker_0, # of connection points: 2
#     Edge 38, Type (0, 0), BuildingBlock: XIVTED_clean_linker_0, # of connection points: 2
#     Edge 39, Type (0, 0), BuildingBlock: XIVTED_clean_linker_0, # of connection points: 2
#     Edge 40, Type (0, 0), BuildingBlock: XIVTED_clean_linker_0, # of connection points: 2
#     Edge 41, Type (0, 0), BuildingBlock: XIVTED_clean_linker_0, # of connection points: 2
#     Edge 42, Type (0, 0), BuildingBlock: XIVTED_clean_linker_0, # of connection points: 2
#     Edge 43, Type (0, 0), BuildingBlock: XIVTED_clean_linker_0, # of connection points: 2
#     Edge 44, Type (0, 0), BuildingBlock: XIVTED_clean_linker_0, # of connection points: 2
#     Edge 45, Type (0, 0), BuildingBlock: XIVTED_clean_linker_0, # of connection points: 2
#     Edge 46, Type (0, 0), BuildingBlock: XIVTED_clean_linker_0, # of connection points: 2
#     Edge 47, Type (0, 0), BuildingBlock: XIVTED_clean_linker_0, # of connection points: 2
# Relax obj value: 0.090
# Max RMSD: 0.149
# Mean RMSD: 0.149
data_MOF--net-uoy--node1-TATPOV_clean_sbu_0--edge1-XIVTED_clean_linker_0
_symmetry_space_group_name_H-M    P1
_symmetry_Int_Tables_number       1
_symmetry_cell_setting            triclinic
loop_
_symmetry_equiv_pos_as_xyz
'x, y, z'
_cell_length_a     27.534098
_cell_length_b     27.565797
_cell_length_c     111.38682
_cell_angle_alpha  90.443392
_cell_angle_beta   90.480337
_cell_angle_gamma 89.815552
loop_
_atom_site_label
_atom_site_type_symbol
_atom_site_fract_x
_atom_site_fract_y
_atom_site_fract_z
_atom_type_partial_charge
Zn0 Zn 0.29976 0.20291 0.15654 0.0
Zn1 Zn 0.23673 0.12817 0.15945 0.0
O2 O 0.23084 0.17128 0.1746 0.0
O3 O 0.28224 0.23154 0.17242 0.0
O4 O 0.18133 0.0797 0.16104 0.0
O5 O 0.26327 0.22475 0.14191 0.0
O6 O 0.21679 0.16038 0.14363 0.0
C7 C 0.25043 0.21018 0.17854 0.0
C8 C 0.34527 0.10659 0.15691 0.0
O9 O 0.30223 0.09074 0.15855 0.0
O10 O 0.35251 0.15166 0.15562 0.0
C11 C 0.16013 0.07028 0.17086 0.0
O12 O 0.17799 0.08795 0.18095 0.0
C13 C 0.22885 0.19853 0.13805 0.0
Zn14 Zn 0.78323 0.79868 0.40644 0.0
Zn15 Zn 0.85757 0.73475 0.40805 0.0
O16 O 0.82156 0.72965 0.42416 0.0
O17 O 0.76095 0.78172 0.42283 0.0
O18 O 0.90549 0.67833 0.40852 0.0
O19 O 0.75435 0.76334 0.39239 0.0
O20 O 0.81827 0.71527 0.39304 0.0
C21 C 0.78429 0.75011 0.4287 0.0
C22 C 0.87947 0.84274 0.40482 0.0
O23 O 0.89547 0.79952 0.40627 0.0
O24 O 0.8341 0.85066 0.40438 0.0
C25 C 0.92604 0.66174 0.41791 0.0
O26 O 0.92054 0.68477 0.42818 0.0
C27 C 0.77833 0.72807 0.38816 0.0
Zn28 Zn 0.18958 0.29305 0.65555 0.0
Zn29 Zn 0.25321 0.36731 0.65841 0.0
O30 O 0.25829 0.32679 0.67389 0.0
O31 O 0.20626 0.26682 0.67167 0.0
O32 O 0.30914 0.41555 0.65993 0.0
O33 O 0.22593 0.26795 0.64133 0.0
O34 O 0.27327 0.33193 0.64293 0.0
C35 C 0.23804 0.28871 0.6779 0.0
C36 C 0.1448 0.38946 0.65513 0.0
O37 O 0.18794 0.40518 0.65695 0.0
O38 O 0.13724 0.3443 0.654 0.0
C39 C 0.33038 0.42632 0.66979 0.0
O40 O 0.3123 0.41036 0.67989 0.0
C41 C 0.26091 0.29296 0.63753 0.0
Zn42 Zn 0.7011 0.67595 0.90641 0.0
Zn43 Zn 0.62772 0.7409 0.90977 0.0
O44 O 0.66928 0.74278 0.92522 0.0
O45 O 0.72911 0.69064 0.92261 0.0
O46 O 0.58047 0.79694 0.91259 0.0
O47 O 0.72488 0.71301 0.89226 0.0
O48 O 0.66244 0.76223 0.89445 0.0
C49 C 0.70761 0.72175 0.92907 0.0
C50 C 0.60349 0.63376 0.90578 0.0
O51 O 0.58859 0.67702 0.90781 0.0
O52 O 0.64852 0.62521 0.90468 0.0
C53 C 0.56339 0.82185 0.90394 0.0
O54 O 0.57191 0.8076 0.89287 0.0
C55 C 0.70033 0.74922 0.88879 0.0
Zn56 Zn 0.30874 0.28015 0.03841 0.0
Zn57 Zn 0.24383 0.35384 0.03497 0.0
O58 O 0.24221 0.3128 0.01948 0.0
O59 O 0.2949 0.25339 0.02202 0.0
O60 O 0.18792 0.40137 0.03219 0.0
O61 O 0.2703 0.2556 0.05228 0.0
O62 O 0.22184 0.31868 0.05016 0.0
C63 C 0.26369 0.27487 0.01557 0.0
C64 C 0.35108 0.3776 0.03932 0.0
O65 O 0.30794 0.39251 0.03707 0.0
O66 O 0.35949 0.33263 0.04053 0.0
C67 C 0.16375 0.4189 0.04092 0.0
O68 O 0.17877 0.41059 0.05194 0.0
C69 C 0.23413 0.28032 0.0557 0.0
Zn70 Zn 0.69624 0.8061 0.28757 0.0
Zn71 Zn 0.62175 0.74283 0.28394 0.0
O72 O 0.6648 0.73754 0.26888 0.0
O73 O 0.72534 0.78843 0.27179 0.0
O74 O 0.57311 0.68729 0.28214 0.0
O75 O 0.71801 0.77015 0.30218 0.0
O76 O 0.65468 0.72251 0.2997 0.0
C77 C 0.70401 0.75708 0.26532 0.0
C78 C 0.59992 0.85137 0.28694 0.0
O79 O 0.58415 0.80832 0.28508 0.0
O80 O 0.64502 0.85872 0.28841 0.0
C81 C 0.56631 0.66298 0.2725 0.0
O82 O 0.58696 0.67741 0.26257 0.0
C83 C 0.69239 0.73499 0.30562 0.0
Zn84 Zn 0.18902 0.20204 0.53702 0.0
Zn85 Zn 0.25285 0.12726 0.53462 0.0
O86 O 0.25654 0.16621 0.51889 0.0
O87 O 0.2049 0.2269 0.52079 0.0
O88 O 0.30903 0.07881 0.53344 0.0
O89 O 0.22577 0.22821 0.55117 0.0
O90 O 0.27341 0.1641 0.54992 0.0
C91 C 0.23611 0.2041 0.51467 0.0
C92 C 0.14476 0.10565 0.53791 0.0
O93 O 0.18789 0.08965 0.53626 0.0
O94 O 0.13704 0.15092 0.53875 0.0
C95 C 0.33048 0.06777 0.52371 0.0
O96 O 0.31253 0.08356 0.5135 0.0
C97 C 0.26108 0.20346 0.55513 0.0
Zn98 Zn 0.79089 0.6828 0.7879 0.0
Zn99 Zn 0.86299 0.74961 0.78616 0.0
O100 O 0.82375 0.75492 0.77037 0.0
O101 O 0.76574 0.70042 0.77167 0.0
O102 O 0.90997 0.80675 0.78591 0.0
O103 O 0.76338 0.71699 0.80223 0.0
O104 O 0.82545 0.76697 0.80145 0.0
C105 C 0.78671 0.73353 0.76589 0.0
C106 C 0.88892 0.64188 0.78876 0.0
O107 O 0.90286 0.68568 0.78737 0.0
O108 O 0.84404 0.63231 0.7895 0.0
C109 C 0.91824 0.83324 0.77683 0.0
O110 O 0.89999 0.82072 0.76633 0.0
C111 C 0.78675 0.7527 0.80647 0.0
Zn112 Zn 0.80663 0.70482 0.65682 0.0
Zn113 Zn 0.74287 0.63056 0.65885 0.0
O114 O 0.73794 0.67042 0.67458 0.0
O115 O 0.79018 0.73032 0.67306 0.0
O116 O 0.68685 0.58233 0.65988 0.0
O117 O 0.7703 0.73073 0.64264 0.0
O118 O 0.72286 0.66673 0.64352 0.0
C119 C 0.75826 0.70819 0.67897 0.0
C120 C 0.8512 0.60836 0.65582 0.0
O121 O 0.80805 0.59259 0.65735 0.0
O122 O 0.85883 0.65357 0.65508 0.0
C123 C 0.66581 0.57126 0.66962 0.0
O124 O 0.68412 0.58687 0.67986 0.0
C125 C 0.73534 0.70601 0.63848 0.0
Zn126 Zn 0.28415 0.30066 0.90641 0.0
Zn127 Zn 0.35974 0.23654 0.90807 0.0
O128 O 0.32279 0.23048 0.924 0.0
O129 O 0.26115 0.28135 0.92264 0.0
O130 O 0.40918 0.18116 0.90816 0.0
O131 O 0.25736 0.26587 0.89197 0.0
O132 O 0.32115 0.21771 0.89295 0.0
C133 C 0.28483 0.24984 0.92847 0.0
C134 C 0.38067 0.34497 0.90542 0.0
O135 O 0.39667 0.30167 0.90664 0.0
O136 O 0.33531 0.35296 0.90493 0.0
C137 C 0.41677 0.15282 0.91697 0.0
O138 O 0.39607 0.16225 0.9273 0.0
C139 C 0.28177 0.23071 0.88783 0.0
Zn140 Zn 0.68449 0.79193 0.15711 0.0
Zn141 Zn 0.74787 0.86627 0.16015 0.0
O142 O 0.75392 0.82436 0.17539 0.0
O143 O 0.70252 0.76398 0.17297 0.0
O144 O 0.80366 0.9145 0.16178 0.0
O145 O 0.71998 0.7686 0.14258 0.0
O146 O 0.76724 0.83256 0.1444 0.0
C147 C 0.73439 0.78561 0.17922 0.0
C148 C 0.63939 0.88834 0.15734 0.0
O149 O 0.68256 0.90412 0.15905 0.0
O150 O 0.63191 0.84321 0.15608 0.0
C151 C 0.82511 0.92487 0.17164 0.0
O152 O 0.80734 0.90842 0.18172 0.0
C153 C 0.75463 0.79413 0.13881 0.0
Zn154 Zn 0.19633 0.1769 0.40503 0.0
Zn155 Zn 0.12268 0.24152 0.40802 0.0
O156 O 0.16315 0.24269 0.42371 0.0
O157 O 0.22342 0.19093 0.42131 0.0
O158 O 0.07517 0.29807 0.41027 0.0
O159 O 0.2215 0.21475 0.3912 0.0
O160 O 0.15838 0.26354 0.39288 0.0
C161 C 0.20135 0.22185 0.4277 0.0
C162 C 0.09919 0.13404 0.4039 0.0
O163 O 0.08386 0.17724 0.40585 0.0
O164 O 0.14435 0.12583 0.40298 0.0
C165 C 0.09339 0.33698 0.41462 0.0
O166 O 0.13955 0.33722 0.4177 0.0
C167 C 0.19727 0.25091 0.38758 0.0
Zn168 Zn 0.80882 0.79026 0.53804 0.0
Zn169 Zn 0.74436 0.86398 0.53504 0.0
O170 O 0.74003 0.8222 0.51961 0.0
O171 O 0.79245 0.76244 0.52195 0.0
O172 O 0.68787 0.91186 0.53346 0.0
O173 O 0.77314 0.7666 0.5524 0.0
O174 O 0.72457 0.8297 0.55054 0.0
C175 C 0.76065 0.78384 0.51566 0.0
C176 C 0.85252 0.88688 0.53832 0.0
O177 O 0.80921 0.90233 0.53652 0.0
O178 O 0.86055 0.84183 0.53946 0.0
C179 C 0.66643 0.92172 0.52359 0.0
O180 O 0.68452 0.9049 0.51351 0.0
C181 C 0.73764 0.7916 0.5561 0.0
Zn182 Zn 0.2054 0.30231 0.78731 0.0
Zn183 Zn 0.12834 0.24272 0.78381 0.0
O184 O 0.16901 0.23848 0.76839 0.0
O185 O 0.2313 0.28741 0.77104 0.0
O186 O 0.07871 0.18887 0.78099 0.0
O187 O 0.22889 0.26309 0.80123 0.0
O188 O 0.16236 0.21963 0.79924 0.0
C189 C 0.20799 0.25757 0.76455 0.0
C190 C 0.11031 0.35077 0.78809 0.0
O191 O 0.09266 0.30887 0.78572 0.0
O192 O 0.1558 0.356 0.78941 0.0
C193 C 0.0603 0.16591 0.78972 0.0
O194 O 0.06862 0.18148 0.80072 0.0
C195 C 0.20176 0.2293 0.80479 0.0
Zn196 Zn 0.68426 0.69632 0.03801 0.0
Zn197 Zn 0.74886 0.6217 0.03625 0.0
O198 O 0.75437 0.65937 0.02036 0.0
O199 O 0.70295 0.72043 0.02189 0.0
O200 O 0.80497 0.57299 0.03599 0.0
O201 O 0.71866 0.72314 0.05246 0.0
O202 O 0.76757 0.65995 0.05146 0.0
C203 C 0.73463 0.69733 0.01599 0.0
C204 C 0.64049 0.59975 0.03889 0.0
O205 O 0.68394 0.58399 0.03769 0.0
O206 O 0.63226 0.645 0.03938 0.0
C207 C 0.83273 0.56539 0.02707 0.0
O208 O 0.82222 0.58555 0.01672 0.0
C209 C 0.75412 0.69908 0.05659 0.0
Zn210 Zn 0.28504 0.19027 0.2868 0.0
Zn211 Zn 0.35925 0.25387 0.28462 0.0
O212 O 0.31784 0.26021 0.26919 0.0
O213 O 0.25733 0.2088 0.2709 0.0
O214 O 0.40738 0.30971 0.28337 0.0
O215 O 0.26147 0.22477 0.30149 0.0
O216 O 0.32481 0.27293 0.30027 0.0
C217 C 0.27924 0.24084 0.26498 0.0
C218 C 0.38148 0.14531 0.28688 0.0
O219 O 0.39728 0.18856 0.28559 0.0
O220 O 0.33627 0.13772 0.28776 0.0
C221 C 0.41998 0.32858 0.27347 0.0
O222 O 0.40603 0.30799 0.26335 0.0
C223 C 0.28644 0.25964 0.30561 0.0
H224 H 0.18594 0.33969 0.07137 0.0
H225 H 0.18793 0.13627 0.12169 0.0
H226 H 0.22655 0.1902 0.06533 0.0
H227 H 0.21779 0.28785 0.12816 0.0
H228 H 0.16636 0.1554 0.10084 0.0
H229 H 0.16174 0.31899 0.09182 0.0
C230 C 0.18847 0.3023 0.07423 0.0
C231 C 0.2094 0.26675 0.06682 0.0
C232 C 0.1764 0.18452 0.10695 0.0
C233 C 0.18151 0.24303 0.08998 0.0
C234 C 0.18863 0.17371 0.11881 0.0
C235 C 0.20577 0.21046 0.1265 0.0
C236 C 0.18078 0.2324 0.1029 0.0
C237 C 0.2058 0.25838 0.12238 0.0
C238 C 0.17475 0.2906 0.08588 0.0
C239 C 0.21164 0.21883 0.07091 0.0
N240 N 0.19412 0.26794 0.11079 0.0
N241 N 0.1985 0.20842 0.08231 0.0
H242 H 0.68593 0.72278 0.37939 0.0
H243 H 0.63231 0.68347 0.32026 0.0
H244 H 0.83361 0.68247 0.37121 0.0
H245 H 0.78047 0.73185 0.31685 0.0
H246 H 0.6504 0.65835 0.34089 0.0
H247 H 0.66202 0.70189 0.3589 0.0
C248 C 0.71305 0.70827 0.37334 0.0
C249 C 0.76193 0.70521 0.37687 0.0
C250 C 0.67898 0.67397 0.33555 0.0
C251 C 0.73495 0.68112 0.35346 0.0
C252 C 0.66881 0.68802 0.32378 0.0
C253 C 0.70461 0.71114 0.31702 0.0
C254 C 0.72522 0.68312 0.34047 0.0
C255 C 0.75149 0.71545 0.32191 0.0
C256 C 0.6993 0.69578 0.36167 0.0
C257 C 0.7956 0.68577 0.36877 0.0
N258 N 0.76031 0.70212 0.3334 0.0
N259 N 0.78174 0.67582 0.35729 0.0
H260 H 0.26982 0.29509 0.56411 0.0
H261 H 0.2713 0.20166 0.6285 0.0
H262 H 0.30554 0.146 0.57183 0.0
H263 H 0.30334 0.35139 0.62095 0.0
H264 H 0.29449 0.17978 0.60808 0.0
H265 H 0.29279 0.31749 0.5846 0.0
C266 C 0.28345 0.26724 0.57008 0.0
C267 C 0.28476 0.21851 0.56642 0.0
C268 C 0.29767 0.21727 0.61095 0.0
C269 C 0.31023 0.24362 0.58987 0.0
C270 C 0.28414 0.22978 0.62258 0.0
C271 C 0.28441 0.27849 0.62627 0.0
C272 C 0.31012 0.25397 0.60289 0.0
C273 C 0.30208 0.31347 0.61837 0.0
C274 C 0.29684 0.28006 0.58175 0.0
C275 C 0.30343 0.18391 0.57439 0.0
N276 N 0.31302 0.30071 0.6069 0.0
N277 N 0.31423 0.19693 0.58588 0.0
H278 H 0.69482 0.75749 0.81514 0.0
H279 H 0.64165 0.80218 0.87382 0.0
H280 H 0.84262 0.79752 0.82359 0.0
H281 H 0.7889 0.7506 0.87813 0.0
H282 H 0.66041 0.82571 0.8532 0.0
H283 H 0.67142 0.77916 0.83554 0.0
C284 C 0.72208 0.77202 0.82124 0.0
C285 C 0.77081 0.775 0.8178 0.0
C286 C 0.68868 0.80981 0.85874 0.0
C287 C 0.74442 0.79998 0.84111 0.0
C288 C 0.67815 0.79672 0.87051 0.0
C289 C 0.71343 0.77307 0.87751 0.0
C290 C 0.73475 0.7992 0.85407 0.0
C291 C 0.76031 0.76748 0.87288 0.0
C292 C 0.70862 0.78498 0.83285 0.0
C293 C 0.80471 0.79439 0.82596 0.0
N294 N 0.76947 0.77988 0.86137 0.0
N295 N 0.79113 0.80482 0.83739 0.0
H296 H 0.68387 0.84957 0.57108 0.0
H297 H 0.72631 0.7977 0.62993 0.0
H298 H 0.73809 0.70334 0.56691 0.0
H299 H 0.69277 0.64865 0.6213 0.0
H300 H 0.70443 0.8205 0.60952 0.0
H301 H 0.6601 0.83045 0.59165 0.0
C302 C 0.69 0.81324 0.57442 0.0
C303 C 0.71437 0.77838 0.56746 0.0
C304 C 0.70001 0.78308 0.61216 0.0
C305 C 0.68799 0.75664 0.59087 0.0
C306 C 0.71308 0.76999 0.62379 0.0
C307 C 0.71211 0.72116 0.62718 0.0
C308 C 0.68689 0.74685 0.60383 0.0
C309 C 0.69434 0.68666 0.61896 0.0
C310 C 0.67674 0.8025 0.58617 0.0
C311 C 0.72068 0.73167 0.57213 0.0
N312 N 0.68377 0.69998 0.60752 0.0
N313 N 0.70814 0.72232 0.58362 0.0
H314 H 0.19074 0.22796 0.87805 0.0
H315 H 0.29148 0.21345 0.81441 0.0
H316 H 0.33828 0.18179 0.87169 0.0
H317 H 0.13907 0.19115 0.82104 0.0
H318 H 0.30958 0.1912 0.83513 0.0
H319 H 0.16941 0.20458 0.85751 0.0
C320 C 0.21843 0.21207 0.87238 0.0
C321 C 0.26656 0.20785 0.87644 0.0
C322 C 0.27227 0.18988 0.83199 0.0
C323 C 0.24266 0.18169 0.85294 0.0
C324 C 0.26195 0.2028 0.82019 0.0
C325 C 0.21368 0.2051 0.81615 0.0
C326 C 0.23388 0.18069 0.83986 0.0
C327 C 0.17675 0.19033 0.82388 0.0
C328 C 0.20618 0.1984 0.86068 0.0
C329 C 0.30087 0.18626 0.86883 0.0
N330 N 0.18748 0.18003 0.83551 0.0
N331 N 0.28854 0.17512 0.85731 0.0
H332 H 0.80113 0.64286 0.07314 0.0
H333 H 0.79434 0.85439 0.12222 0.0
H334 H 0.75871 0.79066 0.06586 0.0
H335 H 0.76656 0.70353 0.12949 0.0
H336 H 0.81605 0.8322 0.10156 0.0
H337 H 0.82328 0.66718 0.09368 0.0
C338 C 0.79768 0.68062 0.07577 0.0
C339 C 0.77696 0.71466 0.06795 0.0
C340 C 0.8064 0.80395 0.10781 0.0
C341 C 0.80256 0.74252 0.09121 0.0
C342 C 0.79413 0.81651 0.11956 0.0
C343 C 0.7776 0.78076 0.1274 0.0
C344 C 0.80272 0.75537 0.10405 0.0
C345 C 0.7781 0.73221 0.12358 0.0
C346 C 0.81026 0.6944 0.08746 0.0
C347 C 0.77352 0.76315 0.07174 0.0
N348 N 0.78988 0.72093 0.1121 0.0
N349 N 0.78561 0.77559 0.08318 0.0
H350 H 0.28934 0.26069 0.37942 0.0
H351 H 0.34405 0.31077 0.32137 0.0
H352 H 0.14048 0.29644 0.37084 0.0
H353 H 0.19748 0.25927 0.31608 0.0
H354 H 0.32399 0.33205 0.34216 0.0
H355 H 0.31306 0.2856 0.3594 0.0
C356 C 0.26185 0.27503 0.37338 0.0
C357 C 0.21282 0.27576 0.37665 0.0
C358 C 0.29617 0.31656 0.33638 0.0
C359 C 0.23957 0.30447 0.35375 0.0
C360 C 0.30746 0.30474 0.32452 0.0
C361 C 0.27276 0.28179 0.31716 0.0
C362 C 0.24996 0.30525 0.34081 0.0
C363 C 0.22569 0.27556 0.32159 0.0
C364 C 0.27548 0.28984 0.36199 0.0
C365 C 0.17864 0.29501 0.36859 0.0
N366 N 0.21583 0.28662 0.3332 0.0
N367 N 0.19247 0.30729 0.35734 0.0
H368 H 0.18501 0.17421 0.19461 0.0
H369 H 0.31908 0.30387 0.24888 0.0
H370 H 0.29219 0.28673 0.1904 0.0
H371 H 0.2011 0.20262 0.25301 0.0
H372 H 0.2994 0.30945 0.22753 0.0
H373 H 0.17963 0.19504 0.21588 0.0
C374 C 0.2069 0.20373 0.19812 0.0
C375 C 0.24003 0.22788 0.19079 0.0
C376 C 0.2773 0.28661 0.23315 0.0
C377 C 0.23437 0.25169 0.21512 0.0
C378 C 0.28859 0.28339 0.24534 0.0
C379 C 0.26253 0.25176 0.25267 0.0
C380 C 0.24004 0.25763 0.22826 0.0
C381 C 0.22286 0.22671 0.24764 0.0
C382 C 0.20377 0.21571 0.21027 0.0
C383 C 0.26683 0.26646 0.19577 0.0
N384 N 0.21338 0.22952 0.2357 0.0
N385 N 0.26407 0.27658 0.20768 0.0
H386 H 0.83001 0.69152 0.44515 0.0
H387 H 0.69508 0.81954 0.49925 0.0
H388 H 0.70672 0.7873 0.44081 0.0
H389 H 0.80504 0.70894 0.50382 0.0
H390 H 0.69036 0.79901 0.47793 0.0
H391 H 0.81342 0.68775 0.46663 0.0
C392 C 0.79904 0.71115 0.44867 0.0
C393 C 0.77039 0.74063 0.44123 0.0
C394 C 0.71501 0.77873 0.48363 0.0
C395 C 0.75144 0.73685 0.46577 0.0
C396 C 0.71776 0.79053 0.49581 0.0
C397 C 0.75128 0.76671 0.50327 0.0
C398 C 0.7464 0.74327 0.47889 0.0
C399 C 0.77923 0.72887 0.49836 0.0
C400 C 0.78955 0.70899 0.46094 0.0
C401 C 0.73038 0.76484 0.44626 0.0
N402 N 0.77676 0.71888 0.48643 0.0
N403 N 0.72257 0.76303 0.45824 0.0
H404 H 0.30056 0.32821 0.69461 0.0
H405 H 0.16759 0.19634 0.74774 0.0
H406 H 0.19756 0.2119 0.68943 0.0
H407 H 0.28478 0.29832 0.75302 0.0
H408 H 0.18699 0.19224 0.72642 0.0
H409 H 0.30478 0.30885 0.71593 0.0
C410 C 0.27937 0.29819 0.69791 0.0
C411 C 0.24776 0.27244 0.69028 0.0
C412 C 0.20895 0.21496 0.73228 0.0
C413 C 0.25209 0.25031 0.71466 0.0
C414 C 0.19781 0.21735 0.74445 0.0
C415 C 0.2239 0.24853 0.75211 0.0
C416 C 0.24603 0.24438 0.72774 0.0
C417 C 0.26313 0.27441 0.74739 0.0
C418 C 0.28183 0.28707 0.71009 0.0
C419 C 0.22173 0.23338 0.69502 0.0
N420 N 0.27248 0.27238 0.73547 0.0
N421 N 0.22385 0.22404 0.70694 0.0
H422 H 0.701 0.77783 0.00441 0.0
H423 H 0.78418 0.67838 0.94058 0.0
H424 H 0.79161 0.65128 -0.00073 0.0
H425 H 0.67016 0.78419 0.94591 0.0
H426 H 0.80371 0.68293 0.96194 0.0
H427 H 0.70662 0.7949 -0.01695 0.0
C428 C 0.72266 0.75394 -0.00118 0.0
C429 C 0.74496 0.71235 0.00359 0.0
C430 C 0.77487 0.70563 0.9584 0.0
C431 C 0.75132 0.73175 -0.02088 0.0
C432 C 0.76367 0.70311 0.9462 0.0
C433 C 0.72471 0.73018 0.9415 0.0
C434 C 0.74696 0.7354 0.96594 0.0
C435 C 0.69992 0.76207 0.94918 0.0
C436 C 0.72581 0.76377 -0.01338 0.0
C437 C 0.77322 0.68328 -0.00405 0.0
N438 N 0.71107 0.76333 0.96107 0.0
N439 N 0.77501 0.69314 -0.01596 0.0
H440 H 0.30903 0.20021 0.00381 0.0
H441 H 0.20456 0.28251 0.94034 0.0
H442 H 0.19974 0.31127 -0.00108 0.0
H443 H 0.33249 0.19331 0.94501 0.0
H444 H 0.18879 0.27645 0.96176 0.0
H445 H 0.30405 0.1812 -0.01758 0.0
C446 C 0.28346 0.22017 -0.00172 0.0
C447 C 0.25547 0.25814 0.00311 0.0
C448 C 0.21995 0.25767 0.95807 0.0
C449 C 0.24975 0.2365 -0.02136 0.0
C450 C 0.22903 0.26107 0.94583 0.0
C451 C 0.2706 0.23928 0.94092 0.0
C452 C 0.25273 0.23245 0.96544 0.0
C453 C 0.30045 0.2113 0.94844 0.0
C454 C 0.2807 0.20927 -0.01394 0.0
C455 C 0.22258 0.28229 -0.00446 0.0
N456 N 0.29133 0.20928 0.96038 0.0
N457 N 0.22107 0.27145 -0.01636 0.0
H458 H 0.78377 0.79606 0.25463 0.0
H459 H 0.69867 0.70474 0.19004 0.0
H460 H 0.66632 0.6954 0.2482 0.0
H461 H 0.79418 0.82648 0.19633 0.0
H462 H 0.70425 0.68475 0.21127 0.0
H463 H 0.80491 0.79069 0.23346 0.0
C464 C 0.76282 0.77222 0.24882 0.0
C465 C 0.72233 0.7471 0.25313 0.0
C466 C 0.72456 0.71541 0.20797 0.0
C467 C 0.74642 0.74098 0.22891 0.0
C468 C 0.72143 0.7269 0.19584 0.0
C469 C 0.74498 0.76819 0.19146 0.0
C470 C 0.75131 0.74545 0.21577 0.0
C471 C 0.77464 0.79493 0.19936 0.0
C472 C 0.77498 0.76923 0.23673 0.0
C473 C 0.69716 0.71617 0.24522 0.0
N474 N 0.77634 0.78354 0.2112 0.0
N475 N 0.70917 0.71456 0.23343 0.0
H476 H 0.27945 0.18122 0.43916 0.0
H477 H 0.19737 0.28201 0.50294 0.0
H478 H 0.16219 0.28345 0.44449 0.0
H479 H 0.29433 0.16019 0.49789 0.0
H480 H 0.20009 0.2976 0.48146 0.0
H481 H 0.30027 0.18804 0.46041 0.0
C482 C 0.25839 0.20556 0.44476 0.0
C483 C 0.21829 0.23101 0.4401 0.0
C484 C 0.22129 0.26786 0.48508 0.0
C485 C 0.24203 0.23886 0.46442 0.0
C486 C 0.21983 0.25891 0.49735 0.0
C487 C 0.24474 0.21893 0.50218 0.0
C488 C 0.24775 0.23659 0.47759 0.0
C489 C 0.27386 0.19083 0.49453 0.0
C490 C 0.27037 0.20942 0.4569 0.0
C491 C 0.19286 0.26254 0.44775 0.0
N492 N 0.27399 0.19977 0.48256 0.0
N493 N 0.20479 0.2651 0.45959 0.0
H494 H 0.69469 0.66845 0.69497 0.0
H495 H 0.82537 0.79797 0.74994 0.0
H496 H 0.79919 0.78383 0.69133 0.0
H497 H 0.71096 0.69239 0.75359 0.0
H498 H 0.8062 0.80366 0.72857 0.0
H499 H 0.6897 0.6867 0.71639 0.0
C500 C 0.71608 0.69802 0.69863 0.0
C501 C 0.7483 0.72382 0.69141 0.0
C502 C 0.7848 0.77979 0.73409 0.0
C503 C 0.74307 0.74471 0.7159 0.0
C504 C 0.79579 0.77651 0.7463 0.0
C505 C 0.77055 0.74379 0.7535 0.0
C506 C 0.74864 0.7498 0.72906 0.0
C507 C 0.73206 0.71742 0.74833 0.0
C508 C 0.71318 0.70851 0.71087 0.0
C509 C 0.77454 0.76233 0.6966 0.0
N510 N 0.72283 0.72039 0.73638 0.0
N511 N 0.77196 0.77106 0.70858 0.0
H512 H 0.10643 0.03864 0.15142 0.0
H513 H 0.88113 0.95187 0.19101 0.0
H514 H 0.10399 0.04625 0.19013 0.0
H515 H 0.87921 0.95298 0.15226 0.0
H516 H 0.96305 0.98558 0.19083 0.0
H517 H 0.02444 0.00469 0.15152 0.0
C518 C 0.0889 0.03279 0.15995 0.0
C519 C 0.1123 0.04541 0.17079 0.0
C520 C 0.94468 0.97866 0.18236 0.0
C521 C 0.01799 0.00689 0.17096 0.0
C522 C 0.89773 0.95954 0.18245 0.0
C523 C 0.87306 0.94951 0.17163 0.0
C524 C 0.96747 0.98774 0.17136 0.0
C525 C 0.89667 0.96018 0.16083 0.0
C526 C 0.04191 0.01363 0.16 0.0
C527 C 0.08751 0.03713 0.18155 0.0
N528 N 0.94255 0.97849 0.16097 0.0
N529 N 0.04179 0.01855 0.18136 0.0
H530 H 0.00968 0.36311 0.4025 0.0
H531 H 0.98732 0.62261 0.4348 0.0
H532 H 0.11283 0.41519 0.42893 0.0
H533 H 0.92218 0.59197 0.4002 0.0
H534 H 0.02576 0.54238 0.43439 0.0
H535 H 0.96828 0.44228 0.4033 0.0
C536 C 0.02327 0.39093 0.40856 0.0
C537 C 0.06486 0.38257 0.41563 0.0
C538 C 0.00316 0.5533 0.42687 0.0
C539 C 0.01776 0.47293 0.4166 0.0
C540 C 0.98122 0.59912 0.4271 0.0
C541 C 0.95168 0.61425 0.41749 0.0
C542 C 0.99492 0.5219 0.41707 0.0
C543 C 0.94498 0.58205 0.40777 0.0
C544 C -0.00012 0.43617 0.40894 0.0
C545 C 0.08108 0.4201 0.42326 0.0
N546 N 0.96616 0.53733 0.40783 0.0
N547 N 0.05748 0.46347 0.42357 0.0
H548 H 0.38608 0.4534 0.6892 0.0
H549 H 0.61164 0.54239 0.64996 0.0
H550 H 0.38489 0.45432 0.65045 0.0
H551 H 0.60973 0.54505 0.68871 0.0
H552 H 0.52951 0.50861 0.64988 0.0
H553 H 0.46797 0.48709 0.68911 0.0
C554 C 0.40283 0.46102 0.68066 0.0
C555 C 0.37837 0.45093 0.66981 0.0
C556 C 0.54714 0.51642 0.6584 0.0
C557 C 0.4728 0.4892 0.66965 0.0
C558 C 0.5942 0.53551 0.65846 0.0
C559 C 0.61781 0.54666 0.66937 0.0
C560 C 0.52336 0.50836 0.66932 0.0
C561 C 0.59312 0.53709 0.68008 0.0
C562 C 0.44978 0.48013 0.68061 0.0
C563 C 0.40219 0.46156 0.65903 0.0
N564 N 0.54735 0.51866 0.67978 0.0
N565 N 0.44808 0.47991 0.65923 0.0
H566 H 0.45158 0.11407 0.89593 0.0
H567 H 0.5409 0.8646 0.92562 0.0
H568 H 0.44032 0.08426 0.93379 0.0
H569 H 0.5328 0.88849 0.8874 0.0
H570 H 0.5076 0.94605 0.92897 0.0
H571 H 0.48673 0.03344 0.89285 0.0
C572 C 0.45693 0.09081 0.90362 0.0
C573 C 0.4428 0.10607 0.91514 0.0
C574 C 0.51295 0.93336 0.91985 0.0
C575 C 0.48276 0.01326 0.91165 0.0
C576 C 0.53182 0.88676 0.91793 0.0
C577 C 0.53965 0.8695 0.9062 0.0
C578 C 0.50208 0.96314 0.90999 0.0
C579 C 0.52733 0.90006 0.89659 0.0
C580 C 0.47675 0.04459 0.90185 0.0
C581 C 0.45052 0.07411 0.92475 0.0
N582 N 0.5094 0.94533 0.8987 0.0
N583 N 0.46984 0.02925 0.92279 0.0
H584 H 0.0993 0.45185 0.05771 0.0
H585 H 0.89971 0.54092 0.00993 0.0
H586 H 0.11877 0.43996 0.01939 0.0
H587 H 0.87414 0.53274 0.04804 0.0
H588 H 0.98059 0.5061 0.01312 0.0
H589 H 0.01828 0.4853 0.05426 0.0
C590 C 0.08675 0.45659 0.04855 0.0
C591 C 0.11609 0.44299 0.03883 0.0
C592 C 0.95718 0.51167 0.02077 0.0
C593 C 0.02272 0.48113 0.03481 0.0
C594 C 0.91088 0.53145 0.01896 0.0
C595 C 0.87992 0.53986 0.02873 0.0
C596 C 0.97297 0.50048 0.03246 0.0
C597 C 0.89658 0.52686 0.04023 0.0
C598 C 0.04025 0.47549 0.0466 0.0
C599 C 0.09755 0.44994 0.02717 0.0
N600 N 0.94198 0.50813 0.04177 0.0
N601 N 0.05209 0.46847 0.02549 0.0
H602 H 0.52966 0.61513 0.29202 0.0
H603 H 0.45175 0.37913 0.25397 0.0
H604 H 0.54654 0.60147 0.25365 0.0
H605 H 0.44318 0.38814 0.2926 0.0
H606 H 0.48556 0.46091 0.25372 0.0
H607 H 0.49531 0.53336 0.2924 0.0
C608 C 0.52575 0.59519 0.28366 0.0
C609 C 0.5411 0.61537 0.27278 0.0
C610 C 0.47649 0.44498 0.26226 0.0
C611 C 0.50216 0.52132 0.27317 0.0
C612 C 0.45729 0.39811 0.26242 0.0
C613 C 0.44454 0.37653 0.27333 0.0
C614 C 0.48289 0.47083 0.27308 0.0
C615 C 0.45254 0.40315 0.28398 0.0
C616 C 0.50636 0.54833 0.28389 0.0
C617 C 0.53528 0.58754 0.26225 0.0
N618 N 0.47099 0.4489 0.28358 0.0
N619 N 0.51643 0.54204 0.26272 0.0
H620 H 0.61072 0.94784 0.50418 0.0
H621 H 0.3843 0.03904 0.54336 0.0
H622 H 0.61161 0.95081 0.54293 0.0
H623 H 0.38703 0.04095 0.50462 0.0
H624 H 0.46653 0.00493 0.54346 0.0
H625 H 0.5287 0.98175 0.50425 0.0
C626 C 0.59386 0.95594 0.51272 0.0
C627 C 0.6183 0.94638 0.52357 0.0
C628 C 0.44906 0.01266 0.53494 0.0
C629 C 0.52371 0.98492 0.52371 0.0
C630 C 0.40195 0.03192 0.53487 0.0
C631 C 0.37854 0.04297 0.52396 0.0
C632 C 0.47309 0.00428 0.52403 0.0
C633 C 0.40347 0.03309 0.51325 0.0
C634 C 0.54684 0.97519 0.51275 0.0
C635 C 0.59435 0.95764 0.53434 0.0
N636 N 0.44929 0.01448 0.51356 0.0
N637 N 0.54839 0.9761 0.53414 0.0
H638 H 0.02492 0.104 0.80661 0.0
H639 H 0.94343 0.89831 0.75943 0.0
H640 H 0.04098 0.11887 0.7683 0.0
H641 H 0.94727 0.87786 0.79781 0.0
H642 H 0.97649 0.97989 0.76236 0.0
H643 H 0.99198 0.02284 0.8034 0.0
C644 C 0.02116 0.09043 0.7975 0.0
C645 C 0.03587 0.11849 0.78771 0.0
C646 C 0.97032 0.95747 0.77013 0.0
C647 C -0.00165 0.02492 0.78398 0.0
C648 C 0.95155 0.91076 0.76847 0.0
C649 C 0.94249 0.88101 0.77839 0.0
C650 C 0.97982 0.97485 0.7818 0.0
C651 C 0.95371 0.89931 0.78989 0.0
C652 C 0.00255 0.04385 0.79568 0.0
C653 C 0.03013 0.09866 0.77612 0.0
N654 N 0.9715 0.94503 0.79127 0.0
N655 N 0.01192 0.05312 0.77458 0.0
H656 H 0.63811 0.98847 0.15838 0.0
H657 H 0.3468 0.00659 0.15795 0.0
H658 H 0.54337 0.86425 0.15572 0.0
H659 H 0.44125 0.13083 0.15556 0.0
H660 H 0.41855 0.9537 0.15794 0.0
H661 H 0.5664 0.0415 0.15815 0.0
C662 C 0.60236 0.97233 0.15773 0.0
C663 C 0.59694 0.92178 0.15705 0.0
C664 C 0.42349 0.99257 0.1574 0.0
C665 C 0.51466 0.98218 0.15684 0.0
C666 C 0.3825 0.02276 0.15741 0.0
C667 C 0.38782 0.07328 0.15675 0.0
C668 C 0.47019 0.01301 0.15678 0.0
C669 C 0.43517 0.09213 0.15607 0.0
C670 C 0.56141 0.0026 0.15759 0.0
C671 C 0.54954 0.90297 0.15624 0.0
N672 N 0.47437 0.06208 0.15613 0.0
N673 N 0.5104 0.93308 0.15619 0.0
H674 H 0.97978 0.84319 0.40478 0.0
H675 H -0.00107 0.13391 0.4049 0.0
H676 H 0.85533 0.93869 0.40306 0.0
H677 H 0.12249 0.03806 0.40148 0.0
H678 H 0.9455 0.06285 0.40462 0.0
H679 H 0.03291 0.9143 0.404 0.0
C680 C 0.9636 0.87897 0.40421 0.0
C681 C 0.91295 0.88478 0.404 0.0
C682 C 0.98433 0.05748 0.40389 0.0
C683 C 0.97351 0.96643 0.40316 0.0
C684 C 0.01483 0.09808 0.40405 0.0
C685 C 0.06534 0.09215 0.40322 0.0
C686 C 0.00449 0.01059 0.40299 0.0
C687 C 0.08382 0.04465 0.40213 0.0
C688 C 0.99394 0.9196 0.40376 0.0
C689 C 0.89412 0.93222 0.40325 0.0
N690 N 0.05352 0.00586 0.4021 0.0
N691 N 0.92431 0.97107 0.40291 0.0
H692 H 0.14359 0.48957 0.65632 0.0
H693 H 0.85233 0.50815 0.65608 0.0
H694 H 0.04882 0.36555 0.65307 0.0
H695 H 0.94715 0.63231 0.65427 0.0
H696 H 0.92394 0.45503 0.65556 0.0
H697 H 0.07194 0.54264 0.65615 0.0
C698 C 0.10785 0.47348 0.65554 0.0
C699 C 0.10241 0.42297 0.65471 0.0
C700 C 0.92897 0.49394 0.65524 0.0
C701 C 0.02016 0.48344 0.65458 0.0
C702 C 0.88806 0.52426 0.65555 0.0
C703 C 0.89353 0.57483 0.65522 0.0
C704 C 0.97572 0.51432 0.65469 0.0
C705 C 0.94092 0.59359 0.65454 0.0
C706 C 0.06692 0.50378 0.65544 0.0
C707 C 0.05502 0.40424 0.65373 0.0
N708 N 0.98002 0.56343 0.65433 0.0
N709 N 0.01588 0.43438 0.65373 0.0
H710 H 0.48077 0.34453 0.90506 0.0
H711 H 0.50339 0.63482 0.90718 0.0
H712 H 0.35722 0.44142 0.90466 0.0
H713 H 0.62551 0.53771 0.90288 0.0
H714 H 0.44901 0.56452 0.90667 0.0
H715 H 0.53457 0.4151 0.90469 0.0
C716 C 0.46493 0.38053 0.90487 0.0
C717 C 0.41435 0.38689 0.9049 0.0
C718 C 0.48774 0.55871 0.9058 0.0
C719 C 0.47571 0.46794 0.90453 0.0
C720 C 0.51878 0.59886 0.90609 0.0
C721 C 0.56916 0.59233 0.90509 0.0
C722 C 0.50722 0.51167 0.90456 0.0
C723 C 0.58698 0.54473 0.90369 0.0
C724 C 0.49565 0.42086 0.90465 0.0
C725 C 0.39595 0.43457 0.90464 0.0
N726 N 0.55614 0.50638 0.90352 0.0
N727 N 0.42655 0.47314 0.90451 0.0
H728 H 0.64107 0.49993 0.04067 0.0
H729 H 0.35076 0.47693 0.03644 0.0
H730 H 0.54395 0.62285 0.0383 0.0
H731 H 0.44657 0.35619 0.04375 0.0
H732 H 0.42126 0.53099 0.0367 0.0
H733 H 0.57032 0.44621 0.04132 0.0
C734 C 0.60499 0.51564 0.04029 0.0
C735 C 0.5986 0.56602 0.03943 0.0
C736 C 0.42676 0.49266 0.03829 0.0
C737 C 0.51743 0.50481 0.04012 0.0
C738 C 0.38647 0.4618 0.03816 0.0
C739 C 0.39258 0.41186 0.04005 0.0
C740 C 0.47356 0.47346 0.04028 0.0
C741 C 0.43991 0.39437 0.04221 0.0
C742 C 0.56457 0.48499 0.04068 0.0
C743 C 0.55083 0.58429 0.039 0.0
N744 N 0.47845 0.42501 0.04222 0.0
N745 N 0.51223 0.55377 0.0393 0.0
H746 H 0.48181 0.144 0.28647 0.0
H747 H 0.49977 0.85293 0.28542 0.0
H748 H 0.35731 0.04937 0.28777 0.0
H749 H 0.62413 0.9472 0.28888 0.0
H750 H 0.44683 0.92464 0.28553 0.0
H751 H 0.53484 0.07232 0.28661 0.0
C752 C 0.46561 0.10829 0.2868 0.0
C753 C 0.41497 0.1029 0.28712 0.0
C754 C 0.48574 0.92955 0.28628 0.0
C755 C 0.47539 0.02064 0.28723 0.0
C756 C 0.51596 0.88857 0.28621 0.0
C757 C 0.56652 0.89385 0.28715 0.0
C758 C 0.50621 0.97618 0.28723 0.0
C759 C 0.58539 0.94114 0.28815 0.0
C760 C 0.49588 0.06735 0.28688 0.0
C761 C 0.39609 0.05554 0.28753 0.0
N762 N 0.55533 0.98031 0.28814 0.0
N763 N 0.42621 0.01641 0.28754 0.0
H764 H 0.85292 0.98699 0.53722 0.0
H765 H 0.14405 0.00549 0.53748 0.0
H766 H 0.94865 0.86324 0.54034 0.0
H767 H 0.0487 0.12991 0.53956 0.0
H768 H 0.07271 0.95254 0.53792 0.0
H769 H 0.9242 0.04018 0.53747 0.0
C770 C 0.88878 0.97099 0.53798 0.0
C771 C 0.89461 0.92052 0.53876 0.0
C772 C 0.06749 0.99147 0.53831 0.0
C773 C 0.9764 0.98109 0.53898 0.0
C774 C 0.10825 0.02169 0.53806 0.0
C775 C 0.10255 0.07228 0.53849 0.0
C776 C 0.02065 0.01194 0.53892 0.0
C777 C 0.05508 0.09116 0.53923 0.0
C778 C 0.92949 0.00135 0.53813 0.0
C779 C 0.94214 0.90189 0.53973 0.0
N780 N 0.01611 0.06107 0.53938 0.0
N781 N 0.98104 0.93207 0.53977 0.0
H782 H 0.98862 0.64514 0.7869 0.0
H783 H 0.13757 0.44298 0.79414 0.0
H784 H 0.86983 0.54522 0.79137 0.0
H785 H 0.01133 0.35889 0.78415 0.0
H786 H 0.08757 0.51546 0.79489 0.0
H787 H 0.04496 0.57661 0.7869 0.0
C788 C 0.97444 0.60887 0.78804 0.0
C789 C 0.92438 0.60116 0.78921 0.0
C790 C 0.07068 0.48154 0.79231 0.0
C791 C 0.98888 0.52207 0.78948 0.0
C792 C 0.09926 0.43972 0.79201 0.0
C793 C 0.07882 0.39454 0.78896 0.0
C794 C 0.02102 0.47859 0.78947 0.0
C795 C 0.02878 0.39285 0.78648 0.0
C796 C 0.00673 0.56956 0.78814 0.0
C797 C 0.9081 0.55313 0.7905 0.0
N798 N 0.00163 0.43428 0.78679 0.0
N799 N 0.94017 0.51556 0.79055 0.0
loop_
_geom_bond_atom_site_label_1
_geom_bond_atom_site_label_2
_geom_bond_distance
_geom_bond_site_symmetry_2
_ccdc_geom_bond_type
Zn0 O3 2.031 . S
Zn0 O5 2.049 . S
Zn0 O10 2.067 . S
Zn1 O2 1.962 . S
Zn1 O4 1.986 . S
Zn1 O6 1.996 . S
Zn1 O9 1.943 . S
O2 Zn1 1.962 . S
O2 C7 1.254 . S
O3 Zn0 2.031 . S
O3 C7 1.269 . S
O4 Zn1 1.986 . S
O4 C11 1.262 . S
O5 Zn0 2.049 . S
O5 C13 1.260 . S
O6 Zn1 1.996 . S
O6 C13 1.257 . S
C7 O2 1.254 . S
C7 O3 1.269 . S
C8 O9 1.249 . S
C8 O10 1.270 . S
O9 Zn1 1.943 . S
O9 C8 1.249 . S
O10 Zn0 2.067 . S
O10 C8 1.270 . S
C11 O4 1.262 . S
C11 O12 1.232 . S
O12 C11 1.232 . S
C13 O5 1.260 . S
C13 O6 1.257 . S
Zn14 O17 2.031 . S
Zn14 O19 2.049 . S
Zn14 O24 2.067 . S
Zn15 O16 1.962 . S
Zn15 O18 1.986 . S
Zn15 O20 1.996 . S
Zn15 O23 1.943 . S
O16 Zn15 1.962 . S
O16 C21 1.254 . S
O17 Zn14 2.031 . S
O17 C21 1.269 . S
O18 Zn15 1.986 . S
O18 C25 1.262 . S
O19 Zn14 2.049 . S
O19 C27 1.260 . S
O20 Zn15 1.996 . S
O20 C27 1.257 . S
C21 O16 1.254 . S
C21 O17 1.269 . S
C22 O23 1.249 . S
C22 O24 1.270 . S
O23 Zn15 1.943 . S
O23 C22 1.249 . S
O24 Zn14 2.067 . S
O24 C22 1.270 . S
C25 O18 1.262 . S
C25 O26 1.232 . S
O26 C25 1.232 . S
C27 O19 1.260 . S
C27 O20 1.257 . S
Zn28 O31 2.031 . S
Zn28 O33 2.049 . S
Zn28 O38 2.067 . S
Zn29 O30 1.962 . S
Zn29 O32 1.986 . S
Zn29 O34 1.996 . S
Zn29 O37 1.943 . S
O30 Zn29 1.962 . S
O30 C35 1.254 . S
O31 Zn28 2.031 . S
O31 C35 1.269 . S
O32 Zn29 1.986 . S
O32 C39 1.262 . S
O33 Zn28 2.049 . S
O33 C41 1.260 . S
O34 Zn29 1.996 . S
O34 C41 1.257 . S
C35 O30 1.254 . S
C35 O31 1.269 . S
C36 O37 1.249 . S
C36 O38 1.270 . S
O37 Zn29 1.943 . S
O37 C36 1.249 . S
O38 Zn28 2.067 . S
O38 C36 1.270 . S
C39 O32 1.262 . S
C39 O40 1.232 . S
O40 C39 1.232 . S
C41 O33 1.260 . S
C41 O34 1.257 . S
Zn42 O45 2.031 . S
Zn42 O47 2.049 . S
Zn42 O52 2.067 . S
Zn43 O44 1.962 . S
Zn43 O46 1.986 . S
Zn43 O48 1.996 . S
Zn43 O51 1.943 . S
O44 Zn43 1.962 . S
O44 C49 1.254 . S
O45 Zn42 2.031 . S
O45 C49 1.269 . S
O46 Zn43 1.986 . S
O46 C53 1.262 . S
O47 Zn42 2.049 . S
O47 C55 1.260 . S
O48 Zn43 1.996 . S
O48 C55 1.257 . S
C49 O44 1.254 . S
C49 O45 1.269 . S
C50 O51 1.249 . S
C50 O52 1.270 . S
O51 Zn43 1.943 . S
O51 C50 1.249 . S
O52 Zn42 2.067 . S
O52 C50 1.270 . S
C53 O46 1.262 . S
C53 O54 1.232 . S
O54 C53 1.232 . S
C55 O47 1.260 . S
C55 O48 1.257 . S
Zn56 O59 2.031 . S
Zn56 O61 2.049 . S
Zn56 O66 2.067 . S
Zn57 O58 1.962 . S
Zn57 O60 1.986 . S
Zn57 O62 1.996 . S
Zn57 O65 1.943 . S
O58 Zn57 1.962 . S
O58 C63 1.254 . S
O59 Zn56 2.031 . S
O59 C63 1.269 . S
O60 Zn57 1.986 . S
O60 C67 1.262 . S
O61 Zn56 2.049 . S
O61 C69 1.260 . S
O62 Zn57 1.996 . S
O62 C69 1.257 . S
C63 O58 1.254 . S
C63 O59 1.269 . S
C64 O65 1.249 . S
C64 O66 1.270 . S
O65 Zn57 1.943 . S
O65 C64 1.249 . S
O66 Zn56 2.067 . S
O66 C64 1.270 . S
C67 O60 1.262 . S
C67 O68 1.232 . S
O68 C67 1.232 . S
C69 O61 1.260 . S
C69 O62 1.257 . S
Zn70 O73 2.031 . S
Zn70 O75 2.049 . S
Zn70 O80 2.067 . S
Zn71 O72 1.962 . S
Zn71 O74 1.986 . S
Zn71 O76 1.996 . S
Zn71 O79 1.943 . S
O72 Zn71 1.962 . S
O72 C77 1.254 . S
O73 Zn70 2.031 . S
O73 C77 1.269 . S
O74 Zn71 1.986 . S
O74 C81 1.262 . S
O75 Zn70 2.049 . S
O75 C83 1.260 . S
O76 Zn71 1.996 . S
O76 C83 1.257 . S
C77 O72 1.254 . S
C77 O73 1.269 . S
C78 O79 1.249 . S
C78 O80 1.270 . S
O79 Zn71 1.943 . S
O79 C78 1.249 . S
O80 Zn70 2.067 . S
O80 C78 1.270 . S
C81 O74 1.262 . S
C81 O82 1.232 . S
O82 C81 1.232 . S
C83 O75 1.260 . S
C83 O76 1.257 . S
Zn84 O87 2.031 . S
Zn84 O89 2.049 . S
Zn84 O94 2.067 . S
Zn85 O86 1.962 . S
Zn85 O88 1.986 . S
Zn85 O90 1.996 . S
Zn85 O93 1.943 . S
O86 Zn85 1.962 . S
O86 C91 1.254 . S
O87 Zn84 2.031 . S
O87 C91 1.269 . S
O88 Zn85 1.986 . S
O88 C95 1.262 . S
O89 Zn84 2.049 . S
O89 C97 1.260 . S
O90 Zn85 1.996 . S
O90 C97 1.257 . S
C91 O86 1.254 . S
C91 O87 1.269 . S
C92 O93 1.249 . S
C92 O94 1.270 . S
O93 Zn85 1.943 . S
O93 C92 1.249 . S
O94 Zn84 2.067 . S
O94 C92 1.270 . S
C95 O88 1.262 . S
C95 O96 1.232 . S
O96 C95 1.232 . S
C97 O89 1.260 . S
C97 O90 1.257 . S
Zn98 O101 2.031 . S
Zn98 O103 2.049 . S
Zn98 O108 2.067 . S
Zn99 O100 1.962 . S
Zn99 O102 1.986 . S
Zn99 O104 1.996 . S
Zn99 O107 1.943 . S
O100 Zn99 1.962 . S
O100 C105 1.254 . S
O101 Zn98 2.031 . S
O101 C105 1.269 . S
O102 Zn99 1.986 . S
O102 C109 1.262 . S
O103 Zn98 2.049 . S
O103 C111 1.260 . S
O104 Zn99 1.996 . S
O104 C111 1.257 . S
C105 O100 1.254 . S
C105 O101 1.269 . S
C106 O107 1.249 . S
C106 O108 1.270 . S
O107 Zn99 1.943 . S
O107 C106 1.249 . S
O108 Zn98 2.067 . S
O108 C106 1.270 . S
C109 O102 1.262 . S
C109 O110 1.232 . S
O110 C109 1.232 . S
C111 O103 1.260 . S
C111 O104 1.257 . S
Zn112 O115 2.031 . S
Zn112 O117 2.049 . S
Zn112 O122 2.067 . S
Zn113 O114 1.962 . S
Zn113 O116 1.986 . S
Zn113 O118 1.996 . S
Zn113 O121 1.943 . S
O114 Zn113 1.962 . S
O114 C119 1.254 . S
O115 Zn112 2.031 . S
O115 C119 1.269 . S
O116 Zn113 1.986 . S
O116 C123 1.262 . S
O117 Zn112 2.049 . S
O117 C125 1.260 . S
O118 Zn113 1.996 . S
O118 C125 1.257 . S
C119 O114 1.254 . S
C119 O115 1.269 . S
C120 O121 1.249 . S
C120 O122 1.270 . S
O121 Zn113 1.943 . S
O121 C120 1.249 . S
O122 Zn112 2.067 . S
O122 C120 1.270 . S
C123 O116 1.262 . S
C123 O124 1.232 . S
O124 C123 1.232 . S
C125 O117 1.260 . S
C125 O118 1.257 . S
Zn126 O129 2.031 . S
Zn126 O131 2.049 . S
Zn126 O136 2.067 . S
Zn127 O128 1.962 . S
Zn127 O130 1.986 . S
Zn127 O132 1.996 . S
Zn127 O135 1.943 . S
O128 Zn127 1.962 . S
O128 C133 1.254 . S
O129 Zn126 2.031 . S
O129 C133 1.269 . S
O130 Zn127 1.986 . S
O130 C137 1.262 . S
O131 Zn126 2.049 . S
O131 C139 1.260 . S
O132 Zn127 1.996 . S
O132 C139 1.257 . S
C133 O128 1.254 . S
C133 O129 1.269 . S
C134 O135 1.249 . S
C134 O136 1.270 . S
O135 Zn127 1.943 . S
O135 C134 1.249 . S
O136 Zn126 2.067 . S
O136 C134 1.270 . S
C137 O130 1.262 . S
C137 O138 1.232 . S
O138 C137 1.232 . S
C139 O131 1.260 . S
C139 O132 1.257 . S
Zn140 O143 2.031 . S
Zn140 O145 2.049 . S
Zn140 O150 2.067 . S
Zn141 O142 1.962 . S
Zn141 O144 1.986 . S
Zn141 O146 1.996 . S
Zn141 O149 1.943 . S
O142 Zn141 1.962 . S
O142 C147 1.254 . S
O143 Zn140 2.031 . S
O143 C147 1.269 . S
O144 Zn141 1.986 . S
O144 C151 1.262 . S
O145 Zn140 2.049 . S
O145 C153 1.260 . S
O146 Zn141 1.996 . S
O146 C153 1.257 . S
C147 O142 1.254 . S
C147 O143 1.269 . S
C148 O149 1.249 . S
C148 O150 1.270 . S
O149 Zn141 1.943 . S
O149 C148 1.249 . S
O150 Zn140 2.067 . S
O150 C148 1.270 . S
C151 O144 1.262 . S
C151 O152 1.232 . S
O152 C151 1.232 . S
C153 O145 1.260 . S
C153 O146 1.257 . S
Zn154 O157 2.031 . S
Zn154 O159 2.049 . S
Zn154 O164 2.067 . S
Zn155 O156 1.962 . S
Zn155 O158 1.986 . S
Zn155 O160 1.996 . S
Zn155 O163 1.943 . S
O156 Zn155 1.962 . S
O156 C161 1.254 . S
O157 Zn154 2.031 . S
O157 C161 1.269 . S
O158 Zn155 1.986 . S
O158 C165 1.262 . S
O159 Zn154 2.049 . S
O159 C167 1.260 . S
O160 Zn155 1.996 . S
O160 C167 1.257 . S
C161 O156 1.254 . S
C161 O157 1.269 . S
C162 O163 1.249 . S
C162 O164 1.270 . S
O163 Zn155 1.943 . S
O163 C162 1.249 . S
O164 Zn154 2.067 . S
O164 C162 1.270 . S
C165 O158 1.262 . S
C165 O166 1.232 . S
O166 C165 1.232 . S
C167 O159 1.260 . S
C167 O160 1.257 . S
Zn168 O171 2.031 . S
Zn168 O173 2.049 . S
Zn168 O178 2.067 . S
Zn169 O170 1.962 . S
Zn169 O172 1.986 . S
Zn169 O174 1.996 . S
Zn169 O177 1.943 . S
O170 Zn169 1.962 . S
O170 C175 1.254 . S
O171 Zn168 2.031 . S
O171 C175 1.269 . S
O172 Zn169 1.986 . S
O172 C179 1.262 . S
O173 Zn168 2.049 . S
O173 C181 1.260 . S
O174 Zn169 1.996 . S
O174 C181 1.257 . S
C175 O170 1.254 . S
C175 O171 1.269 . S
C176 O177 1.249 . S
C176 O178 1.270 . S
O177 Zn169 1.943 . S
O177 C176 1.249 . S
O178 Zn168 2.067 . S
O178 C176 1.270 . S
C179 O172 1.262 . S
C179 O180 1.232 . S
O180 C179 1.232 . S
C181 O173 1.260 . S
C181 O174 1.257 . S
Zn182 O185 2.031 . S
Zn182 O187 2.049 . S
Zn182 O192 2.067 . S
Zn183 O184 1.962 . S
Zn183 O186 1.986 . S
Zn183 O188 1.996 . S
Zn183 O191 1.943 . S
O184 Zn183 1.962 . S
O184 C189 1.254 . S
O185 Zn182 2.031 . S
O185 C189 1.269 . S
O186 Zn183 1.986 . S
O186 C193 1.262 . S
O187 Zn182 2.049 . S
O187 C195 1.260 . S
O188 Zn183 1.996 . S
O188 C195 1.257 . S
C189 O184 1.254 . S
C189 O185 1.269 . S
C190 O191 1.249 . S
C190 O192 1.270 . S
O191 Zn183 1.943 . S
O191 C190 1.249 . S
O192 Zn182 2.067 . S
O192 C190 1.270 . S
C193 O186 1.262 . S
C193 O194 1.232 . S
O194 C193 1.232 . S
C195 O187 1.260 . S
C195 O188 1.257 . S
Zn196 O199 2.031 . S
Zn196 O201 2.049 . S
Zn196 O206 2.067 . S
Zn197 O198 1.962 . S
Zn197 O200 1.986 . S
Zn197 O202 1.996 . S
Zn197 O205 1.943 . S
O198 Zn197 1.962 . S
O198 C203 1.254 . S
O199 Zn196 2.031 . S
O199 C203 1.269 . S
O200 Zn197 1.986 . S
O200 C207 1.262 . S
O201 Zn196 2.049 . S
O201 C209 1.260 . S
O202 Zn197 1.996 . S
O202 C209 1.257 . S
C203 O198 1.254 . S
C203 O199 1.269 . S
C204 O205 1.249 . S
C204 O206 1.270 . S
O205 Zn197 1.943 . S
O205 C204 1.249 . S
O206 Zn196 2.067 . S
O206 C204 1.270 . S
C207 O200 1.262 . S
C207 O208 1.232 . S
O208 C207 1.232 . S
C209 O201 1.260 . S
C209 O202 1.257 . S
Zn210 O213 2.031 . S
Zn210 O215 2.049 . S
Zn210 O220 2.067 . S
Zn211 O212 1.962 . S
Zn211 O214 1.986 . S
Zn211 O216 1.996 . S
Zn211 O219 1.943 . S
O212 Zn211 1.962 . S
O212 C217 1.254 . S
O213 Zn210 2.031 . S
O213 C217 1.269 . S
O214 Zn211 1.986 . S
O214 C221 1.262 . S
O215 Zn210 2.049 . S
O215 C223 1.260 . S
O216 Zn211 1.996 . S
O216 C223 1.257 . S
C217 O212 1.254 . S
C217 O213 1.269 . S
C218 O219 1.249 . S
C218 O220 1.270 . S
O219 Zn211 1.943 . S
O219 C218 1.249 . S
O220 Zn210 2.067 . S
O220 C218 1.270 . S
C221 O214 1.262 . S
C221 O222 1.232 . S
O222 C221 1.232 . S
C223 O215 1.260 . S
C223 O216 1.257 . S
H224 C230 0.930 . S
H225 C234 0.930 . S
H226 C239 0.929 . S
H227 C237 0.929 . S
H228 C232 0.929 . S
H229 C238 0.929 . S
C230 H224 0.930 . S
C230 C231 1.367 . S
C230 C238 1.378 . S
C231 C230 1.367 . S
C231 C239 1.433 . S
C232 H228 0.929 . S
C232 C234 1.378 . S
C232 C236 1.350 . S
C233 C236 1.463 . S
C233 C238 1.350 . S
C233 N241 1.427 . S
C234 H225 0.930 . S
C234 C232 1.378 . S
C234 C235 1.367 . S
C235 C234 1.367 . S
C235 C237 1.433 . S
C236 C232 1.350 . S
C236 C233 1.463 . S
C236 N240 1.427 . S
C237 H227 0.929 . S
C237 C235 1.433 . S
C237 N240 1.384 . S
C238 H229 0.929 . S
C238 C230 1.378 . S
C238 C233 1.350 . S
C239 H226 0.929 . S
C239 C231 1.433 . S
C239 N241 1.384 . S
N240 C236 1.427 . S
N240 C237 1.384 . S
N241 C233 1.427 . S
N241 C239 1.384 . S
H242 C248 0.930 . S
H243 C252 0.930 . S
H244 C257 0.929 . S
H245 C255 0.929 . S
H246 C250 0.929 . S
H247 C256 0.929 . S
C248 H242 0.930 . S
C248 C249 1.367 . S
C248 C256 1.378 . S
C249 C248 1.367 . S
C249 C257 1.433 . S
C250 H246 0.929 . S
C250 C252 1.378 . S
C250 C254 1.350 . S
C251 C254 1.463 . S
C251 C256 1.350 . S
C251 N259 1.427 . S
C252 H243 0.930 . S
C252 C250 1.378 . S
C252 C253 1.367 . S
C253 C252 1.367 . S
C253 C255 1.433 . S
C254 C250 1.350 . S
C254 C251 1.463 . S
C254 N258 1.427 . S
C255 H245 0.929 . S
C255 C253 1.433 . S
C255 N258 1.384 . S
C256 H247 0.929 . S
C256 C248 1.378 . S
C256 C251 1.350 . S
C257 H244 0.929 . S
C257 C249 1.433 . S
C257 N259 1.384 . S
N258 C254 1.427 . S
N258 C255 1.384 . S
N259 C251 1.427 . S
N259 C257 1.384 . S
H260 C266 0.930 . S
H261 C270 0.930 . S
H262 C275 0.929 . S
H263 C273 0.929 . S
H264 C268 0.929 . S
H265 C274 0.929 . S
C266 H260 0.930 . S
C266 C267 1.367 . S
C266 C274 1.378 . S
C267 C266 1.367 . S
C267 C275 1.433 . S
C268 H264 0.929 . S
C268 C270 1.378 . S
C268 C272 1.350 . S
C269 C272 1.463 . S
C269 C274 1.350 . S
C269 N277 1.427 . S
C270 H261 0.930 . S
C270 C268 1.378 . S
C270 C271 1.367 . S
C271 C270 1.367 . S
C271 C273 1.433 . S
C272 C268 1.350 . S
C272 C269 1.463 . S
C272 N276 1.427 . S
C273 H263 0.929 . S
C273 C271 1.433 . S
C273 N276 1.384 . S
C274 H265 0.929 . S
C274 C266 1.378 . S
C274 C269 1.350 . S
C275 H262 0.929 . S
C275 C267 1.433 . S
C275 N277 1.384 . S
N276 C272 1.427 . S
N276 C273 1.384 . S
N277 C269 1.427 . S
N277 C275 1.384 . S
H278 C284 0.930 . S
H279 C288 0.930 . S
H280 C293 0.929 . S
H281 C291 0.929 . S
H282 C286 0.929 . S
H283 C292 0.929 . S
C284 H278 0.930 . S
C284 C285 1.367 . S
C284 C292 1.378 . S
C285 C284 1.367 . S
C285 C293 1.433 . S
C286 H282 0.929 . S
C286 C288 1.378 . S
C286 C290 1.350 . S
C287 C290 1.463 . S
C287 C292 1.350 . S
C287 N295 1.427 . S
C288 H279 0.930 . S
C288 C286 1.378 . S
C288 C289 1.367 . S
C289 C288 1.367 . S
C289 C291 1.433 . S
C290 C286 1.350 . S
C290 C287 1.463 . S
C290 N294 1.427 . S
C291 H281 0.929 . S
C291 C289 1.433 . S
C291 N294 1.384 . S
C292 H283 0.929 . S
C292 C284 1.378 . S
C292 C287 1.350 . S
C293 H280 0.929 . S
C293 C285 1.433 . S
C293 N295 1.384 . S
N294 C290 1.427 . S
N294 C291 1.384 . S
N295 C287 1.427 . S
N295 C293 1.384 . S
H296 C302 0.930 . S
H297 C306 0.930 . S
H298 C311 0.929 . S
H299 C309 0.929 . S
H300 C304 0.929 . S
H301 C310 0.929 . S
C302 H296 0.930 . S
C302 C303 1.367 . S
C302 C310 1.378 . S
C303 C302 1.367 . S
C303 C311 1.433 . S
C304 H300 0.929 . S
C304 C306 1.378 . S
C304 C308 1.350 . S
C305 C308 1.463 . S
C305 C310 1.350 . S
C305 N313 1.427 . S
C306 H297 0.930 . S
C306 C304 1.378 . S
C306 C307 1.367 . S
C307 C306 1.367 . S
C307 C309 1.433 . S
C308 C304 1.350 . S
C308 C305 1.463 . S
C308 N312 1.427 . S
C309 H299 0.929 . S
C309 C307 1.433 . S
C309 N312 1.384 . S
C310 H301 0.929 . S
C310 C302 1.378 . S
C310 C305 1.350 . S
C311 H298 0.929 . S
C311 C303 1.433 . S
C311 N313 1.384 . S
N312 C308 1.427 . S
N312 C309 1.384 . S
N313 C305 1.427 . S
N313 C311 1.384 . S
H314 C320 0.930 . S
H315 C324 0.930 . S
H316 C329 0.929 . S
H317 C327 0.929 . S
H318 C322 0.929 . S
H319 C328 0.929 . S
C320 H314 0.930 . S
C320 C321 1.367 . S
C320 C328 1.378 . S
C321 C320 1.367 . S
C321 C329 1.433 . S
C322 H318 0.929 . S
C322 C324 1.378 . S
C322 C326 1.350 . S
C323 C326 1.463 . S
C323 C328 1.350 . S
C323 N331 1.427 . S
C324 H315 0.930 . S
C324 C322 1.378 . S
C324 C325 1.367 . S
C325 C324 1.367 . S
C325 C327 1.433 . S
C326 C322 1.350 . S
C326 C323 1.463 . S
C326 N330 1.427 . S
C327 H317 0.929 . S
C327 C325 1.433 . S
C327 N330 1.384 . S
C328 H319 0.929 . S
C328 C320 1.378 . S
C328 C323 1.350 . S
C329 H316 0.929 . S
C329 C321 1.433 . S
C329 N331 1.384 . S
N330 C326 1.427 . S
N330 C327 1.384 . S
N331 C323 1.427 . S
N331 C329 1.384 . S
H332 C338 0.930 . S
H333 C342 0.930 . S
H334 C347 0.929 . S
H335 C345 0.929 . S
H336 C340 0.929 . S
H337 C346 0.929 . S
C338 H332 0.930 . S
C338 C339 1.367 . S
C338 C346 1.378 . S
C339 C338 1.367 . S
C339 C347 1.433 . S
C340 H336 0.929 . S
C340 C342 1.378 . S
C340 C344 1.350 . S
C341 C344 1.463 . S
C341 C346 1.350 . S
C341 N349 1.427 . S
C342 H333 0.930 . S
C342 C340 1.378 . S
C342 C343 1.367 . S
C343 C342 1.367 . S
C343 C345 1.433 . S
C344 C340 1.350 . S
C344 C341 1.463 . S
C344 N348 1.427 . S
C345 H335 0.929 . S
C345 C343 1.433 . S
C345 N348 1.384 . S
C346 H337 0.929 . S
C346 C338 1.378 . S
C346 C341 1.350 . S
C347 H334 0.929 . S
C347 C339 1.433 . S
C347 N349 1.384 . S
N348 C344 1.427 . S
N348 C345 1.384 . S
N349 C341 1.427 . S
N349 C347 1.384 . S
H350 C356 0.930 . S
H351 C360 0.930 . S
H352 C365 0.929 . S
H353 C363 0.929 . S
H354 C358 0.929 . S
H355 C364 0.929 . S
C356 H350 0.930 . S
C356 C357 1.367 . S
C356 C364 1.378 . S
C357 C356 1.367 . S
C357 C365 1.433 . S
C358 H354 0.929 . S
C358 C360 1.378 . S
C358 C362 1.350 . S
C359 C362 1.463 . S
C359 C364 1.350 . S
C359 N367 1.427 . S
C360 H351 0.930 . S
C360 C358 1.378 . S
C360 C361 1.367 . S
C361 C360 1.367 . S
C361 C363 1.433 . S
C362 C358 1.350 . S
C362 C359 1.463 . S
C362 N366 1.427 . S
C363 H353 0.929 . S
C363 C361 1.433 . S
C363 N366 1.384 . S
C364 H355 0.929 . S
C364 C356 1.378 . S
C364 C359 1.350 . S
C365 H352 0.929 . S
C365 C357 1.433 . S
C365 N367 1.384 . S
N366 C362 1.427 . S
N366 C363 1.384 . S
N367 C359 1.427 . S
N367 C365 1.384 . S
H368 C374 0.930 . S
H369 C378 0.930 . S
H370 C383 0.929 . S
H371 C381 0.929 . S
H372 C376 0.929 . S
H373 C382 0.929 . S
C374 H368 0.930 . S
C374 C375 1.367 . S
C374 C382 1.378 . S
C375 C374 1.367 . S
C375 C383 1.433 . S
C376 H372 0.929 . S
C376 C378 1.378 . S
C376 C380 1.350 . S
C377 C380 1.463 . S
C377 C382 1.350 . S
C377 N385 1.427 . S
C378 H369 0.930 . S
C378 C376 1.378 . S
C378 C379 1.367 . S
C379 C378 1.367 . S
C379 C381 1.433 . S
C380 C376 1.350 . S
C380 C377 1.463 . S
C380 N384 1.427 . S
C381 H371 0.929 . S
C381 C379 1.433 . S
C381 N384 1.384 . S
C382 H373 0.929 . S
C382 C374 1.378 . S
C382 C377 1.350 . S
C383 H370 0.929 . S
C383 C375 1.433 . S
C383 N385 1.384 . S
N384 C380 1.427 . S
N384 C381 1.384 . S
N385 C377 1.427 . S
N385 C383 1.384 . S
H386 C392 0.930 . S
H387 C396 0.930 . S
H388 C401 0.929 . S
H389 C399 0.929 . S
H390 C394 0.929 . S
H391 C400 0.929 . S
C392 H386 0.930 . S
C392 C393 1.367 . S
C392 C400 1.378 . S
C393 C392 1.367 . S
C393 C401 1.433 . S
C394 H390 0.929 . S
C394 C396 1.378 . S
C394 C398 1.350 . S
C395 C398 1.463 . S
C395 C400 1.350 . S
C395 N403 1.427 . S
C396 H387 0.930 . S
C396 C394 1.378 . S
C396 C397 1.367 . S
C397 C396 1.367 . S
C397 C399 1.433 . S
C398 C394 1.350 . S
C398 C395 1.463 . S
C398 N402 1.427 . S
C399 H389 0.929 . S
C399 C397 1.433 . S
C399 N402 1.384 . S
C400 H391 0.929 . S
C400 C392 1.378 . S
C400 C395 1.350 . S
C401 H388 0.929 . S
C401 C393 1.433 . S
C401 N403 1.384 . S
N402 C398 1.427 . S
N402 C399 1.384 . S
N403 C395 1.427 . S
N403 C401 1.384 . S
H404 C410 0.930 . S
H405 C414 0.930 . S
H406 C419 0.929 . S
H407 C417 0.929 . S
H408 C412 0.929 . S
H409 C418 0.929 . S
C410 H404 0.930 . S
C410 C411 1.367 . S
C410 C418 1.378 . S
C411 C410 1.367 . S
C411 C419 1.433 . S
C412 H408 0.929 . S
C412 C414 1.378 . S
C412 C416 1.350 . S
C413 C416 1.463 . S
C413 C418 1.350 . S
C413 N421 1.427 . S
C414 H405 0.930 . S
C414 C412 1.378 . S
C414 C415 1.367 . S
C415 C414 1.367 . S
C415 C417 1.433 . S
C416 C412 1.350 . S
C416 C413 1.463 . S
C416 N420 1.427 . S
C417 H407 0.929 . S
C417 C415 1.433 . S
C417 N420 1.384 . S
C418 H409 0.929 . S
C418 C410 1.378 . S
C418 C413 1.350 . S
C419 H406 0.929 . S
C419 C411 1.433 . S
C419 N421 1.384 . S
N420 C416 1.427 . S
N420 C417 1.384 . S
N421 C413 1.427 . S
N421 C419 1.384 . S
H422 C428 0.930 . S
H423 C432 0.930 . S
H424 C437 0.929 . S
H425 C435 0.929 . S
H426 C430 0.929 . S
H427 C436 0.929 . S
C428 H422 0.930 . S
C428 C429 1.367 . S
C428 C436 1.378 . S
C429 C428 1.367 . S
C429 C437 1.433 . S
C430 H426 0.929 . S
C430 C432 1.378 . S
C430 C434 1.350 . S
C431 C434 1.463 1_554 S
C431 C436 1.350 . S
C431 N439 1.427 . S
C432 H423 0.930 . S
C432 C430 1.378 . S
C432 C433 1.367 . S
C433 C432 1.367 . S
C433 C435 1.433 . S
C434 C430 1.350 . S
C434 C431 1.463 1_556 S
C434 N438 1.427 . S
C435 H425 0.929 . S
C435 C433 1.433 . S
C435 N438 1.384 . S
C436 H427 0.929 . S
C436 C428 1.378 . S
C436 C431 1.350 . S
C437 H424 0.929 . S
C437 C429 1.433 . S
C437 N439 1.384 . S
N438 C434 1.427 . S
N438 C435 1.384 . S
N439 C431 1.427 . S
N439 C437 1.384 . S
H440 C446 0.930 . S
H441 C450 0.930 . S
H442 C455 0.929 . S
H443 C453 0.929 . S
H444 C448 0.929 . S
H445 C454 0.929 . S
C446 H440 0.930 . S
C446 C447 1.367 . S
C446 C454 1.378 . S
C447 C446 1.367 . S
C447 C455 1.433 . S
C448 H444 0.929 . S
C448 C450 1.378 . S
C448 C452 1.350 . S
C449 C452 1.463 1_554 S
C449 C454 1.350 . S
C449 N457 1.427 . S
C450 H441 0.930 . S
C450 C448 1.378 . S
C450 C451 1.367 . S
C451 C450 1.367 . S
C451 C453 1.433 . S
C452 C448 1.350 . S
C452 C449 1.463 1_556 S
C452 N456 1.427 . S
C453 H443 0.929 . S
C453 C451 1.433 . S
C453 N456 1.384 . S
C454 H445 0.929 . S
C454 C446 1.378 . S
C454 C449 1.350 . S
C455 H442 0.929 . S
C455 C447 1.433 . S
C455 N457 1.384 . S
N456 C452 1.427 . S
N456 C453 1.384 . S
N457 C449 1.427 . S
N457 C455 1.384 . S
H458 C464 0.930 . S
H459 C468 0.930 . S
H460 C473 0.929 . S
H461 C471 0.929 . S
H462 C466 0.929 . S
H463 C472 0.929 . S
C464 H458 0.930 . S
C464 C465 1.367 . S
C464 C472 1.378 . S
C465 C464 1.367 . S
C465 C473 1.433 . S
C466 H462 0.929 . S
C466 C468 1.378 . S
C466 C470 1.350 . S
C467 C470 1.463 . S
C467 C472 1.350 . S
C467 N475 1.427 . S
C468 H459 0.930 . S
C468 C466 1.378 . S
C468 C469 1.367 . S
C469 C468 1.367 . S
C469 C471 1.433 . S
C470 C466 1.350 . S
C470 C467 1.463 . S
C470 N474 1.427 . S
C471 H461 0.929 . S
C471 C469 1.433 . S
C471 N474 1.384 . S
C472 H463 0.929 . S
C472 C464 1.378 . S
C472 C467 1.350 . S
C473 H460 0.929 . S
C473 C465 1.433 . S
C473 N475 1.384 . S
N474 C470 1.427 . S
N474 C471 1.384 . S
N475 C467 1.427 . S
N475 C473 1.384 . S
H476 C482 0.930 . S
H477 C486 0.930 . S
H478 C491 0.929 . S
H479 C489 0.929 . S
H480 C484 0.929 . S
H481 C490 0.929 . S
C482 H476 0.930 . S
C482 C483 1.367 . S
C482 C490 1.378 . S
C483 C482 1.367 . S
C483 C491 1.433 . S
C484 H480 0.929 . S
C484 C486 1.378 . S
C484 C488 1.350 . S
C485 C488 1.463 . S
C485 C490 1.350 . S
C485 N493 1.427 . S
C486 H477 0.930 . S
C486 C484 1.378 . S
C486 C487 1.367 . S
C487 C486 1.367 . S
C487 C489 1.433 . S
C488 C484 1.350 . S
C488 C485 1.463 . S
C488 N492 1.427 . S
C489 H479 0.929 . S
C489 C487 1.433 . S
C489 N492 1.384 . S
C490 H481 0.929 . S
C490 C482 1.378 . S
C490 C485 1.350 . S
C491 H478 0.929 . S
C491 C483 1.433 . S
C491 N493 1.384 . S
N492 C488 1.427 . S
N492 C489 1.384 . S
N493 C485 1.427 . S
N493 C491 1.384 . S
H494 C500 0.930 . S
H495 C504 0.930 . S
H496 C509 0.929 . S
H497 C507 0.929 . S
H498 C502 0.929 . S
H499 C508 0.929 . S
C500 H494 0.930 . S
C500 C501 1.367 . S
C500 C508 1.378 . S
C501 C500 1.367 . S
C501 C509 1.433 . S
C502 H498 0.929 . S
C502 C504 1.378 . S
C502 C506 1.350 . S
C503 C506 1.463 . S
C503 C508 1.350 . S
C503 N511 1.427 . S
C504 H495 0.930 . S
C504 C502 1.378 . S
C504 C505 1.367 . S
C505 C504 1.367 . S
C505 C507 1.433 . S
C506 C502 1.350 . S
C506 C503 1.463 . S
C506 N510 1.427 . S
C507 H497 0.929 . S
C507 C505 1.433 . S
C507 N510 1.384 . S
C508 H499 0.929 . S
C508 C500 1.378 . S
C508 C503 1.350 . S
C509 H496 0.929 . S
C509 C501 1.433 . S
C509 N511 1.384 . S
N510 C506 1.427 . S
N510 C507 1.384 . S
N511 C503 1.427 . S
N511 C509 1.384 . S
H512 C518 0.930 . S
H513 C522 0.930 . S
H514 C527 0.929 . S
H515 C525 0.929 . S
H516 C520 0.929 . S
H517 C526 0.929 . S
C518 H512 0.930 . S
C518 C519 1.367 . S
C518 C526 1.378 . S
C519 C518 1.367 . S
C519 C527 1.433 . S
C520 H516 0.929 . S
C520 C522 1.378 . S
C520 C524 1.350 . S
C521 C524 1.463 1_445 S
C521 C526 1.350 . S
C521 N529 1.427 . S
C522 H513 0.930 . S
C522 C520 1.378 . S
C522 C523 1.367 . S
C523 C522 1.367 . S
C523 C525 1.433 . S
C524 C520 1.350 . S
C524 C521 1.463 1_665 S
C524 N528 1.427 . S
C525 H515 0.929 . S
C525 C523 1.433 . S
C525 N528 1.384 . S
C526 H517 0.929 . S
C526 C518 1.378 . S
C526 C521 1.350 . S
C527 H514 0.929 . S
C527 C519 1.433 . S
C527 N529 1.384 . S
N528 C524 1.427 . S
N528 C525 1.384 . S
N529 C521 1.427 . S
N529 C527 1.384 . S
H530 C536 0.935 . S
H531 C540 0.935 . S
H532 C545 0.929 . S
H533 C543 0.929 . S
H534 C538 0.929 . S
H535 C544 0.929 . S
C536 H530 0.935 . S
C536 C537 1.367 . S
C536 C544 1.378 1_455 S
C537 C536 1.367 . S
C537 C545 1.433 . S
C538 H534 0.929 . S
C538 C540 1.378 1_455 S
C538 C542 1.350 1_455 S
C539 C542 1.463 1_455 S
C539 C544 1.350 1_455 S
C539 N547 1.427 . S
C540 H531 0.935 . S
C540 C538 1.378 1_655 S
C540 C541 1.367 . S
C541 C540 1.367 . S
C541 C543 1.433 . S
C542 C538 1.350 1_655 S
C542 C539 1.463 1_655 S
C542 N546 1.427 . S
C543 H533 0.929 . S
C543 C541 1.433 . S
C543 N546 1.384 . S
C544 H535 0.929 . S
C544 C536 1.378 1_655 S
C544 C539 1.350 1_655 S
C545 H532 0.929 . S
C545 C537 1.433 . S
C545 N547 1.384 . S
N546 C542 1.427 . S
N546 C543 1.384 . S
N547 C539 1.427 . S
N547 C545 1.384 . S
H548 C554 0.930 . S
H549 C558 0.930 . S
H550 C563 0.929 . S
H551 C561 0.929 . S
H552 C556 0.929 . S
H553 C562 0.929 . S
C554 H548 0.930 . S
C554 C555 1.367 . S
C554 C562 1.378 . S
C555 C554 1.367 . S
C555 C563 1.433 . S
C556 H552 0.929 . S
C556 C558 1.378 . S
C556 C560 1.350 . S
C557 C560 1.463 . S
C557 C562 1.350 . S
C557 N565 1.427 . S
C558 H549 0.930 . S
C558 C556 1.378 . S
C558 C559 1.367 . S
C559 C558 1.367 . S
C559 C561 1.433 . S
C560 C556 1.350 . S
C560 C557 1.463 . S
C560 N564 1.427 . S
C561 H551 0.929 . S
C561 C559 1.433 . S
C561 N564 1.384 . S
C562 H553 0.929 . S
C562 C554 1.378 . S
C562 C557 1.350 . S
C563 H550 0.929 . S
C563 C555 1.433 . S
C563 N565 1.384 . S
N564 C560 1.427 . S
N564 C561 1.384 . S
N565 C557 1.427 . S
N565 C563 1.384 . S
H566 C572 0.930 . S
H567 C576 0.930 . S
H568 C581 0.929 . S
H569 C579 0.929 . S
H570 C574 0.929 . S
H571 C580 0.929 . S
C572 H566 0.930 . S
C572 C573 1.367 . S
C572 C580 1.378 . S
C573 C572 1.367 . S
C573 C581 1.433 . S
C574 H570 0.929 . S
C574 C576 1.378 . S
C574 C578 1.350 . S
C575 C578 1.463 1_545 S
C575 C580 1.350 . S
C575 N583 1.427 . S
C576 H567 0.930 . S
C576 C574 1.378 . S
C576 C577 1.367 . S
C577 C576 1.367 . S
C577 C579 1.433 . S
C578 C574 1.350 . S
C578 C575 1.463 1_565 S
C578 N582 1.427 . S
C579 H569 0.929 . S
C579 C577 1.433 . S
C579 N582 1.384 . S
C580 H571 0.929 . S
C580 C572 1.378 . S
C580 C575 1.350 . S
C581 H568 0.929 . S
C581 C573 1.433 . S
C581 N583 1.384 . S
N582 C578 1.427 . S
N582 C579 1.384 . S
N583 C575 1.427 . S
N583 C581 1.384 . S
H584 C590 0.930 . S
H585 C594 0.930 . S
H586 C599 0.929 . S
H587 C597 0.929 . S
H588 C592 0.929 . S
H589 C598 0.929 . S
C590 H584 0.930 . S
C590 C591 1.367 . S
C590 C598 1.378 . S
C591 C590 1.367 . S
C591 C599 1.433 . S
C592 H588 0.929 . S
C592 C594 1.378 . S
C592 C596 1.350 . S
C593 C596 1.463 1_455 S
C593 C598 1.350 . S
C593 N601 1.427 . S
C594 H585 0.930 . S
C594 C592 1.378 . S
C594 C595 1.367 . S
C595 C594 1.367 . S
C595 C597 1.433 . S
C596 C592 1.350 . S
C596 C593 1.463 1_655 S
C596 N600 1.427 . S
C597 H587 0.929 . S
C597 C595 1.433 . S
C597 N600 1.384 . S
C598 H589 0.929 . S
C598 C590 1.378 . S
C598 C593 1.350 . S
C599 H586 0.929 . S
C599 C591 1.433 . S
C599 N601 1.384 . S
N600 C596 1.427 . S
N600 C597 1.384 . S
N601 C593 1.427 . S
N601 C599 1.384 . S
H602 C608 0.930 . S
H603 C612 0.930 . S
H604 C617 0.929 . S
H605 C615 0.929 . S
H606 C610 0.929 . S
H607 C616 0.929 . S
C608 H602 0.930 . S
C608 C609 1.367 . S
C608 C616 1.378 . S
C609 C608 1.367 . S
C609 C617 1.433 . S
C610 H606 0.929 . S
C610 C612 1.378 . S
C610 C614 1.350 . S
C611 C614 1.463 . S
C611 C616 1.350 . S
C611 N619 1.427 . S
C612 H603 0.930 . S
C612 C610 1.378 . S
C612 C613 1.367 . S
C613 C612 1.367 . S
C613 C615 1.433 . S
C614 C610 1.350 . S
C614 C611 1.463 . S
C614 N618 1.427 . S
C615 H605 0.929 . S
C615 C613 1.433 . S
C615 N618 1.384 . S
C616 H607 0.929 . S
C616 C608 1.378 . S
C616 C611 1.350 . S
C617 H604 0.929 . S
C617 C609 1.433 . S
C617 N619 1.384 . S
N618 C614 1.427 . S
N618 C615 1.384 . S
N619 C611 1.427 . S
N619 C617 1.384 . S
H620 C626 0.930 . S
H621 C630 0.930 . S
H622 C635 0.929 . S
H623 C633 0.929 . S
H624 C628 0.929 . S
H625 C634 0.929 . S
C626 H620 0.930 . S
C626 C627 1.367 . S
C626 C634 1.378 . S
C627 C626 1.367 . S
C627 C635 1.433 . S
C628 H624 0.929 . S
C628 C630 1.378 . S
C628 C632 1.350 . S
C629 C632 1.463 1_565 S
C629 C634 1.350 . S
C629 N637 1.427 . S
C630 H621 0.930 . S
C630 C628 1.378 . S
C630 C631 1.367 . S
C631 C630 1.367 . S
C631 C633 1.433 . S
C632 C628 1.350 . S
C632 C629 1.463 1_545 S
C632 N636 1.427 . S
C633 H623 0.929 . S
C633 C631 1.433 . S
C633 N636 1.384 . S
C634 H625 0.929 . S
C634 C626 1.378 . S
C634 C629 1.350 . S
C635 H622 0.929 . S
C635 C627 1.433 . S
C635 N637 1.384 . S
N636 C632 1.427 . S
N636 C633 1.384 . S
N637 C629 1.427 . S
N637 C635 1.384 . S
H638 C644 0.930 . S
H639 C648 0.930 . S
H640 C653 0.929 . S
H641 C651 0.929 . S
H642 C646 0.929 . S
H643 C652 0.929 . S
C644 H638 0.930 . S
C644 C645 1.367 1_655 S
C644 C652 1.378 . S
C645 C644 1.367 1_455 S
C645 C653 1.433 . S
C646 H642 0.929 . S
C646 C648 1.378 . S
C646 C650 1.350 1_455 S
C647 C650 1.463 1_445 S
C647 C652 1.350 1_455 S
C647 N655 1.427 . S
C648 H639 0.930 . S
C648 C646 1.378 . S
C648 C649 1.367 1_455 S
C649 C648 1.367 1_655 S
C649 C651 1.433 . S
C650 C646 1.350 1_655 S
C650 C647 1.463 1_665 S
C650 N654 1.427 . S
C651 H641 0.929 . S
C651 C649 1.433 . S
C651 N654 1.384 . S
C652 H643 0.929 . S
C652 C644 1.378 . S
C652 C647 1.350 1_655 S
C653 H640 0.929 . S
C653 C645 1.433 . S
C653 N655 1.384 . S
N654 C650 1.427 . S
N654 C651 1.384 . S
N655 C647 1.427 . S
N655 C653 1.384 . S
H656 C662 0.930 . S
H657 C666 0.930 . S
H658 C671 0.929 . S
H659 C669 0.929 . S
H660 C664 0.929 1_565 S
H661 C670 0.929 1_545 S
C662 H656 0.930 . S
C662 C663 1.367 . S
C662 C670 1.378 . S
C663 C662 1.367 . S
C663 C671 1.433 . S
C664 H660 0.929 1_545 S
C664 C666 1.378 . S
C664 C668 1.350 . S
C665 C668 1.463 1_565 S
C665 C670 1.350 . S
C665 N673 1.427 . S
C666 H657 0.930 . S
C666 C664 1.378 . S
C666 C667 1.367 . S
C667 C666 1.367 . S
C667 C669 1.433 . S
C668 C664 1.350 . S
C668 C665 1.463 1_545 S
C668 N672 1.427 . S
C669 H659 0.929 . S
C669 C667 1.433 . S
C669 N672 1.384 . S
C670 H661 0.929 1_565 S
C670 C662 1.378 . S
C670 C665 1.350 . S
C671 H658 0.929 . S
C671 C663 1.433 . S
C671 N673 1.384 . S
N672 C668 1.427 . S
N672 C669 1.384 . S
N673 C665 1.427 . S
N673 C671 1.384 . S
H674 C680 0.930 . S
H675 C684 0.930 . S
H676 C689 0.929 . S
H677 C687 0.929 . S
H678 C682 0.929 1_655 S
H679 C688 0.929 1_455 S
C680 H674 0.930 . S
C680 C681 1.367 . S
C680 C688 1.378 . S
C681 C680 1.367 . S
C681 C689 1.433 . S
C682 H678 0.929 1_455 S
C682 C684 1.378 . S
C682 C686 1.350 . S
C683 C686 1.463 1_665 S
C683 C688 1.350 . S
C683 N691 1.427 . S
C684 H675 0.930 . S
C684 C682 1.378 . S
C684 C685 1.367 . S
C685 C684 1.367 . S
C685 C687 1.433 . S
C686 C682 1.350 . S
C686 C683 1.463 1_445 S
C686 N690 1.427 . S
C687 H677 0.929 . S
C687 C685 1.433 . S
C687 N690 1.384 . S
C688 H679 0.929 1_655 S
C688 C680 1.378 . S
C688 C683 1.350 . S
C689 H676 0.929 . S
C689 C681 1.433 . S
C689 N691 1.384 . S
N690 C686 1.427 . S
N690 C687 1.384 . S
N691 C683 1.427 . S
N691 C689 1.384 . S
H692 C698 0.930 . S
H693 C702 0.930 . S
H694 C707 0.929 . S
H695 C705 0.929 . S
H696 C700 0.929 . S
H697 C706 0.929 . S
C698 H692 0.930 . S
C698 C699 1.367 . S
C698 C706 1.378 . S
C699 C698 1.367 . S
C699 C707 1.433 . S
C700 H696 0.929 . S
C700 C702 1.378 . S
C700 C704 1.350 . S
C701 C704 1.463 1_455 S
C701 C706 1.350 . S
C701 N709 1.427 . S
C702 H693 0.930 . S
C702 C700 1.378 . S
C702 C703 1.367 . S
C703 C702 1.367 . S
C703 C705 1.433 . S
C704 C700 1.350 . S
C704 C701 1.463 1_655 S
C704 N708 1.427 . S
C705 H695 0.929 . S
C705 C703 1.433 . S
C705 N708 1.384 . S
C706 H697 0.929 . S
C706 C698 1.378 . S
C706 C701 1.350 . S
C707 H694 0.929 . S
C707 C699 1.433 . S
C707 N709 1.384 . S
N708 C704 1.427 . S
N708 C705 1.384 . S
N709 C701 1.427 . S
N709 C707 1.384 . S
H710 C716 0.930 . S
H711 C720 0.930 . S
H712 C725 0.929 . S
H713 C723 0.929 . S
H714 C718 0.929 . S
H715 C724 0.929 . S
C716 H710 0.930 . S
C716 C717 1.367 . S
C716 C724 1.378 . S
C717 C716 1.367 . S
C717 C725 1.433 . S
C718 H714 0.929 . S
C718 C720 1.378 . S
C718 C722 1.350 . S
C719 C722 1.463 . S
C719 C724 1.350 . S
C719 N727 1.427 . S
C720 H711 0.930 . S
C720 C718 1.378 . S
C720 C721 1.367 . S
C721 C720 1.367 . S
C721 C723 1.433 . S
C722 C718 1.350 . S
C722 C719 1.463 . S
C722 N726 1.427 . S
C723 H713 0.929 . S
C723 C721 1.433 . S
C723 N726 1.384 . S
C724 H715 0.929 . S
C724 C716 1.378 . S
C724 C719 1.350 . S
C725 H712 0.929 . S
C725 C717 1.433 . S
C725 N727 1.384 . S
N726 C722 1.427 . S
N726 C723 1.384 . S
N727 C719 1.427 . S
N727 C725 1.384 . S
H728 C734 0.930 . S
H729 C738 0.930 . S
H730 C743 0.929 . S
H731 C741 0.929 . S
H732 C736 0.929 . S
H733 C742 0.929 . S
C734 H728 0.930 . S
C734 C735 1.367 . S
C734 C742 1.378 . S
C735 C734 1.367 . S
C735 C743 1.433 . S
C736 H732 0.929 . S
C736 C738 1.378 . S
C736 C740 1.350 . S
C737 C740 1.463 . S
C737 C742 1.350 . S
C737 N745 1.427 . S
C738 H729 0.930 . S
C738 C736 1.378 . S
C738 C739 1.367 . S
C739 C738 1.367 . S
C739 C741 1.433 . S
C740 C736 1.350 . S
C740 C737 1.463 . S
C740 N744 1.427 . S
C741 H731 0.929 . S
C741 C739 1.433 . S
C741 N744 1.384 . S
C742 H733 0.929 . S
C742 C734 1.378 . S
C742 C737 1.350 . S
C743 H730 0.929 . S
C743 C735 1.433 . S
C743 N745 1.384 . S
N744 C740 1.427 . S
N744 C741 1.384 . S
N745 C737 1.427 . S
N745 C743 1.384 . S
H746 C752 0.930 . S
H747 C756 0.930 . S
H748 C761 0.929 . S
H749 C759 0.929 . S
H750 C754 0.929 . S
H751 C760 0.929 . S
C752 H746 0.930 . S
C752 C753 1.367 . S
C752 C760 1.378 . S
C753 C752 1.367 . S
C753 C761 1.433 . S
C754 H750 0.929 . S
C754 C756 1.378 . S
C754 C758 1.350 . S
C755 C758 1.463 1_545 S
C755 C760 1.350 . S
C755 N763 1.427 . S
C756 H747 0.930 . S
C756 C754 1.378 . S
C756 C757 1.367 . S
C757 C756 1.367 . S
C757 C759 1.433 . S
C758 C754 1.350 . S
C758 C755 1.463 1_565 S
C758 N762 1.427 . S
C759 H749 0.929 . S
C759 C757 1.433 . S
C759 N762 1.384 . S
C760 H751 0.929 . S
C760 C752 1.378 . S
C760 C755 1.350 . S
C761 H748 0.929 . S
C761 C753 1.433 . S
C761 N763 1.384 . S
N762 C758 1.427 . S
N762 C759 1.384 . S
N763 C755 1.427 . S
N763 C761 1.384 . S
H764 C770 0.930 . S
H765 C774 0.930 . S
H766 C779 0.929 . S
H767 C777 0.929 . S
H768 C772 0.929 . S
H769 C778 0.929 . S
C770 H764 0.930 . S
C770 C771 1.367 1_545 S
C770 C778 1.378 . S
C771 C770 1.367 1_565 S
C771 C779 1.433 . S
C772 H768 0.929 . S
C772 C774 1.378 . S
C772 C776 1.350 1_565 S
C773 C776 1.463 1_665 S
C773 C778 1.350 1_565 S
C773 N781 1.427 . S
C774 H765 0.930 . S
C774 C772 1.378 . S
C774 C775 1.367 1_565 S
C775 C774 1.367 1_545 S
C775 C777 1.433 . S
C776 C772 1.350 1_545 S
C776 C773 1.463 1_445 S
C776 N780 1.427 . S
C777 H767 0.929 . S
C777 C775 1.433 . S
C777 N780 1.384 . S
C778 H769 0.929 . S
C778 C770 1.378 . S
C778 C773 1.350 1_545 S
C779 H766 0.929 . S
C779 C771 1.433 . S
C779 N781 1.384 . S
N780 C776 1.427 . S
N780 C777 1.384 . S
N781 C773 1.427 . S
N781 C779 1.384 . S
H782 C788 0.930 . S
H783 C792 0.930 . S
H784 C797 0.929 1_455 S
H785 C795 0.929 1_655 S
H786 C790 0.929 . S
H787 C796 0.929 . S
C788 H782 0.930 . S
C788 C789 1.367 . S
C788 C796 1.378 . S
C789 C788 1.367 . S
C789 C797 1.433 . S
C790 H786 0.929 . S
C790 C792 1.378 . S
C790 C794 1.350 . S
C791 C794 1.463 1_655 S
C791 C796 1.350 . S
C791 N799 1.427 1_655 S
C792 H783 0.930 . S
C792 C790 1.378 . S
C792 C793 1.367 . S
C793 C792 1.367 . S
C793 C795 1.433 . S
C794 C790 1.350 . S
C794 C791 1.463 1_455 S
C794 N798 1.427 1_455 S
C795 H785 0.929 1_455 S
C795 C793 1.433 . S
C795 N798 1.384 1_455 S
C796 H787 0.929 . S
C796 C788 1.378 . S
C796 C791 1.350 . S
C797 H784 0.929 1_655 S
C797 C789 1.433 . S
C797 N799 1.384 1_655 S
N798 C794 1.427 1_655 S
N798 C795 1.384 1_655 S
N799 C791 1.427 1_455 S
N799 C797 1.384 1_455 S
C231 C69 1.122 . S
C235 C13 1.109 . S
C249 C27 1.104 . S
C253 C83 1.123 . S
C267 C97 1.106 . S
C271 C41 1.115 . S
C285 C111 1.104 . S
C289 C55 1.123 . S
C303 C181 1.123 . S
C307 C125 1.104 . S
C321 C139 1.106 . S
C325 C195 1.116 . S
C339 C209 1.121 . S
C343 C153 1.111 . S
C357 C167 1.106 . S
C361 C223 1.123 . S
C375 C7 1.215 . S
C379 C217 1.221 . S
C393 C21 1.217 . S
C397 C175 1.219 . S
C411 C35 1.217 . S
C415 C189 1.219 . S
C429 C203 1.215 . S
C433 C49 1.220 . S
C447 C63 1.217 . S
C451 C133 1.218 . S
C465 C77 1.218 . S
C469 C147 1.218 . S
C483 C161 1.216 . S
C487 C91 1.220 . S
C501 C119 1.216 . S
C505 C105 1.220 . S
C519 C11 1.471 . S
C523 C151 1.466 . S
C537 C165 1.473 . S
C541 C25 1.469 . S
C555 C39 1.465 . S
C559 C123 1.471 . S
C573 C137 1.466 . S
C577 C53 1.465 . S
C591 C67 1.473 . S
C595 C207 1.472 . S
C609 C81 1.472 . S
C613 C221 1.467 . S
C627 C179 1.466 . S
C631 C95 1.472 . S
C645 C193 1.473 . S
C649 C109 1.471 . S
C663 C148 1.475 . S
C667 C8 1.470 . S
C681 C22 1.476 . S
C685 C162 1.471 . S
C699 C36 1.474 . S
C703 C120 1.478 . S
C717 C134 1.467 . S
C721 C50 1.472 . S
C735 C204 1.465 . S
C739 C64 1.469 . S
C753 C218 1.475 . S
C757 C78 1.471 . S
C771 C176 1.479 . S
C775 C92 1.476 . S
C789 C106 1.467 . S
C793 C190 1.463 . S
