# Generated by pormake.
# Topology yfh, (5)-cn, num edge types: 1
# Building blocks:
#     Node 0, Type 0, BuildingBlock: XOMCOT_clean_sbu_0, # of connection points: 5
#     Node 1, Type 0, BuildingBlock: XOMCOT_clean_sbu_0, # of connection points: 5
#     Node 2, Type 0, BuildingBlock: XOMCOT_clean_sbu_0, # of connection points: 5
#     Node 3, Type 0, BuildingBlock: XOMCOT_clean_sbu_0, # of connection points: 5
#     Node 4, Type 0, BuildingBlock: XOMCOT_clean_sbu_0, # of connection points: 5
#     Node 5, Type 0, BuildingBlock: XOMCOT_clean_sbu_0, # of connection points: 5
#     Node 6, Type 0, BuildingBlock: XOMCOT_clean_sbu_0, # of connection points: 5
#     Node 7, Type 0, BuildingBlock: XOMCOT_clean_sbu_0, # of connection points: 5
#     Edge 8, Type (0, 0), BuildingBlock: OJICUG_clean_linker_0, # of connection points: 2
#     Edge 9, Type (0, 0), BuildingBlock: OJICUG_clean_linker_0, # of connection points: 2
#     Edge 10, Type (0, 0), BuildingBlock: OJICUG_clean_linker_0, # of connection points: 2
#     Edge 11, Type (0, 0), BuildingBlock: OJICUG_clean_linker_0, # of connection points: 2
#     Edge 12, Type (0, 0), BuildingBlock: OJICUG_clean_linker_0, # of connection points: 2
#     Edge 13, Type (0, 0), BuildingBlock: OJICUG_clean_linker_0, # of connection points: 2
#     Edge 14, Type (0, 0), BuildingBlock: OJICUG_clean_linker_0, # of connection points: 2
#     Edge 15, Type (0, 0), BuildingBlock: OJICUG_clean_linker_0, # of connection points: 2
#     Edge 16, Type (0, 0), BuildingBlock: OJICUG_clean_linker_0, # of connection points: 2
#     Edge 17, Type (0, 0), BuildingBlock: OJICUG_clean_linker_0, # of connection points: 2
#     Edge 18, Type (0, 0), BuildingBlock: OJICUG_clean_linker_0, # of connection points: 2
#     Edge 19, Type (0, 0), BuildingBlock: OJICUG_clean_linker_0, # of connection points: 2
#     Edge 20, Type (0, 0), BuildingBlock: OJICUG_clean_linker_0, # of connection points: 2
#     Edge 21, Type (0, 0), BuildingBlock: OJICUG_clean_linker_0, # of connection points: 2
#     Edge 22, Type (0, 0), BuildingBlock: OJICUG_clean_linker_0, # of connection points: 2
#     Edge 23, Type (0, 0), BuildingBlock: OJICUG_clean_linker_0, # of connection points: 2
#     Edge 24, Type (0, 0), BuildingBlock: OJICUG_clean_linker_0, # of connection points: 2
#     Edge 25, Type (0, 0), BuildingBlock: OJICUG_clean_linker_0, # of connection points: 2
#     Edge 26, Type (0, 0), BuildingBlock: OJICUG_clean_linker_0, # of connection points: 2
#     Edge 27, Type (0, 0), BuildingBlock: OJICUG_clean_linker_0, # of connection points: 2
# Relax obj value: 0.411
# Max RMSD: 0.270
# Mean RMSD: 0.270
data_MOF--net-yfh--node1-XOMCOT_clean_sbu_0--edge1-OJICUG_clean_linker_0
_symmetry_space_group_name_H-M    P1
_symmetry_Int_Tables_number       1
_symmetry_cell_setting            triclinic
loop_
_symmetry_equiv_pos_as_xyz
'x, y, z'
_cell_length_a     20.260542
_cell_length_b     20.175904
_cell_length_c     48.148057
_cell_angle_alpha  89.91609
_cell_angle_beta   89.634483
_cell_angle_gamma 89.724751
loop_
_atom_site_label
_atom_site_type_symbol
_atom_site_fract_x
_atom_site_fract_y
_atom_site_fract_z
_atom_type_partial_charge
Co0 Co 0.31274 0.05192 0.06938 0.0
C1 C 0.20708 0.05372 0.02564 0.0
C2 C 0.16842 0.04407 0.06689 0.0
C3 C 0.11623 0.04699 0.04875 0.0
N4 N 0.22564 0.04953 0.05248 0.0
N5 N 0.14105 0.05238 0.0229 0.0
H6 H 0.23981 0.05873 0.00815 0.0
H7 H 0.16461 0.03934 0.08921 0.0
C8 C 0.28116 0.90864 0.06267 0.0
O9 O 0.26605 0.92245 0.03681 0.0
N10 N 0.39732 0.05345 0.08733 0.0
C11 C 0.44795 0.09501 0.08241 0.0
C12 C 0.49471 0.08568 0.10281 0.0
C13 C 0.41384 1.01917 0.11027 0.0
N14 N 0.47309 0.03772 0.12011 0.0
C15 C 0.35793 0.08319 0.01496 0.0
C16 C 0.42852 0.96835 0.00445 0.0
C17 C 0.42162 1.01575 -0.01666 0.0
C18 C 0.38771 0.07456 -0.01079 0.0
C19 C 0.39704 0.97895 0.03016 0.0
N20 N 0.35809 0.03375 0.03433 0.0
H21 H 0.33135 0.12881 0.01863 0.0
H22 H 0.4039 0.94305 0.04656 0.0
H23 H 0.44935 0.13154 0.06595 0.0
H24 H 0.38128 0.98452 0.12063 0.0
O25 O 0.31287 0.14725 0.06667 0.0
O26 O 0.273 0.09228 0.10265 0.0
O27 O 0.30277 0.95433 0.0787 0.0
C28 C 0.28384 0.14929 0.09064 0.0
H29 H 0.06425 0.04636 0.0541 0.0
H30 H 0.53992 0.11337 0.10529 0.0
H31 H 0.45688 0.92345 0.001 0.0
H32 H 0.38383 0.11374 -0.02612 0.0
Co33 Co 0.49724 0.86913 0.31853 0.0
C34 C 0.46296 0.77628 0.27414 0.0
C35 C 0.52373 0.72995 0.30503 0.0
C36 C 0.50893 0.68363 0.28509 0.0
N37 N 0.49508 0.78779 0.29794 0.0
N38 N 0.47074 0.71295 0.26569 0.0
H39 H 0.43508 0.81392 0.26323 0.0
H40 H 0.55249 0.72183 0.32358 0.0
C41 C 0.64386 0.88382 0.32543 0.0
O42 O 0.63911 0.94493 0.31615 0.0
N43 N 0.49938 0.9494 0.34088 0.0
C44 C 0.45524 0.99997 0.34215 0.0
C45 C 0.4654 0.03585 0.36611 0.0
C46 C 0.5334 0.95402 0.36478 0.0
N47 N 0.51436 1.00639 0.38024 0.0
C48 C 0.48489 0.96653 0.2754 0.0
C49 C 0.57848 0.91212 0.2401 0.0
C50 C 0.53815 0.96366 0.23047 0.0
C51 C 0.49241 0.99226 0.24872 0.0
C52 C 0.5708 0.88917 0.26738 0.0
N53 N 0.5236 0.91568 0.28464 0.0
H54 H 0.44395 0.98403 0.28751 0.0
H55 H 0.59948 0.84667 0.27388 0.0
H56 H 0.41298 1.00619 0.32888 0.0
H57 H 0.56679 0.916 0.37219 0.0
O58 O 0.40275 0.87705 0.31449 0.0
O59 O 0.45254 0.8248 0.34911 0.0
O60 O 0.59207 0.84842 0.32839 0.0
C61 C 0.39755 0.84204 0.33706 0.0
H62 H 0.52368 0.63202 0.28531 0.0
H63 H 0.43447 0.07556 0.374 0.0
H64 H 0.61342 0.88787 0.2263 0.0
H65 H 0.45874 0.03055 0.24167 0.0
Co66 Co 0.73722 0.99889 0.57266 0.0
C67 C 0.84141 1.00217 0.52771 0.0
C68 C 0.88084 1.01234 0.56859 0.0
C69 C 0.93257 1.01198 0.54993 0.0
N70 N 0.8235 1.00486 0.55475 0.0
N71 N 0.90725 1.00625 0.52433 0.0
H72 H 0.80837 0.99645 0.51052 0.0
H73 H 0.88511 1.01679 0.59087 0.0
C74 C 0.76383 0.14317 0.56585 0.0
O75 O 0.7768 0.13002 0.53968 0.0
N76 N 0.65348 0.99365 0.59193 0.0
C77 C 0.59489 0.97049 0.583 0.0
C78 C 0.55057 0.97127 0.60499 0.0
C79 C 0.64449 1.00694 0.61906 0.0
N80 N 0.58248 0.99354 0.62754 0.0
C81 C 0.69153 0.9656 0.51904 0.0
C82 C 0.61147 0.07441 0.50967 0.0
C83 C 0.61484 1.02387 0.48972 0.0
C84 C 0.65562 0.96924 0.49473 0.0
C85 C 0.64855 0.06858 0.53415 0.0
N86 N 0.69029 1.0158 0.53802 0.0
H87 H 0.72215 0.9224 0.52212 0.0
H88 H 0.64224 0.10549 0.55018 0.0
H89 H 0.58534 0.95251 0.56227 0.0
H90 H 0.68311 1.02479 0.63253 0.0
O91 O 0.7398 0.90377 0.56966 0.0
O92 O 0.78015 0.9589 0.60519 0.0
O93 O 0.74433 0.09676 0.58222 0.0
C94 C 0.77031 0.90196 0.59312 0.0
H95 H 0.98461 1.01454 0.55475 0.0
H96 H 0.49995 0.95436 0.60474 0.0
H97 H 0.57914 0.11673 0.50679 0.0
H98 H 0.66016 0.92924 0.47983 0.0
Co99 Co 0.55526 0.19538 0.82003 0.0
C100 C 0.58999 0.29405 0.77696 0.0
C101 C 0.52511 0.33462 0.80785 0.0
C102 C 0.5427 0.38468 0.78981 0.0
N103 N 0.55397 0.27756 0.79942 0.0
N104 N 0.58393 0.35876 0.77062 0.0
H105 H 0.62208 0.2606 0.7659 0.0
H106 H 0.49529 0.33993 0.82643 0.0
C107 C 0.41114 0.227 0.81169 0.0
O108 O 0.42463 0.23955 0.78547 0.0
N109 N 0.55621 0.11505 0.84158 0.0
C110 C 0.60031 0.06479 0.84081 0.0
C111 C 0.58668 1.02198 0.86256 0.0
C112 C 0.51646 0.10223 0.86335 0.0
N113 N 0.53359 0.04569 0.8764 0.0
C114 C 0.59453 0.13438 0.76938 0.0
C115 C 0.47834 0.07132 0.75626 0.0
C116 C 0.53231 0.06688 0.73795 0.0
C117 C 0.59094 0.09818 0.74508 0.0
C118 C 0.48456 0.10778 0.78105 0.0
N119 N 0.54104 0.14247 0.78648 0.0
H120 H 0.64158 0.15572 0.77412 0.0
H121 H 0.44427 0.10714 0.79579 0.0
H122 H 0.6409 0.06088 0.8262 0.0
H123 H 0.47804 0.13558 0.87055 0.0
O124 O 0.65026 0.19537 0.81866 0.0
O125 O 0.59216 0.24408 0.85172 0.0
O126 O 0.45696 0.20683 0.82799 0.0
C127 C 0.65001 0.23099 0.84087 0.0
H128 H 0.52895 0.43644 0.79144 0.0
H129 H 0.61428 0.97791 0.86812 0.0
H130 H 0.43269 0.0459 0.75178 0.0
H131 H 0.63415 0.09532 0.73173 0.0
Co132 Co 0.87492 0.4979 0.62605 0.0
C133 C 0.78034 0.47236 0.67233 0.0
C134 C 0.73513 0.52062 0.63763 0.0
C135 C 0.6872 0.50865 0.65733 0.0
N136 N 0.7936 0.49836 0.64719 0.0
N137 N 0.71586 0.47812 0.67909 0.0
H138 H 0.81626 0.44846 0.68528 0.0
H139 H 0.72776 0.54284 0.61742 0.0
C140 C 0.83832 0.64124 0.63456 0.0
O141 O 0.82398 0.62692 0.66053 0.0
N142 N 0.95413 0.49814 0.60376 0.0
C143 C 1.00426 0.45392 0.60347 0.0
C144 C 0.04451 0.46744 0.58083 0.0
C145 C 0.96452 0.53777 0.58173 0.0
N146 N 1.01935 0.52052 0.56746 0.0
C147 C 0.93871 0.46021 0.67622 0.0
C148 C 0.98308 0.58311 0.69255 0.0
C149 C 0.98411 0.53029 0.71148 0.0
C150 C 0.96521 0.46769 0.70246 0.0
C151 C 0.95629 0.57305 0.66599 0.0
N152 N 0.92812 0.5136 0.6593 0.0
H153 H 0.92217 0.41143 0.67071 0.0
H154 H 0.95672 0.61359 0.65138 0.0
H155 H 1.00947 0.41299 0.61783 0.0
H156 H 0.93021 0.5758 0.57509 0.0
O157 O 0.87606 0.40251 0.62742 0.0
O158 O 0.82603 0.46 0.59472 0.0
O159 O 0.8615 0.59627 0.6183 0.0
C160 C 0.83976 0.40218 0.6055 0.0
H161 H 0.63502 0.51908 0.65525 0.0
H162 H 0.08759 0.4395 0.57428 0.0
H163 H 1.00031 0.63175 0.69851 0.0
H164 H 0.96789 0.42511 0.71618 0.0
Co165 Co 0.0535 0.32482 0.87531 0.0
C166 C 0.05224 0.21828 0.91915 0.0
C167 C 0.03899 0.18055 0.87807 0.0
C168 C 0.03989 0.12782 0.89626 0.0
N169 N 0.04776 0.23744 0.89235 0.0
N170 N 0.0475 0.15214 0.92201 0.0
H171 H 0.05995 0.25058 0.93652 0.0
H172 H 0.03322 0.17737 0.85581 0.0
C173 C 0.90961 0.2963 0.88145 0.0
O174 O 0.9225 0.28004 0.90727 0.0
N175 N 0.05876 0.4098 0.85718 0.0
C176 C 0.10224 0.45884 0.8619 0.0
C177 C 0.09662 0.5053 0.84091 0.0
C178 C 0.0271 0.42699 0.83378 0.0
N179 N 0.04905 0.48509 0.82344 0.0
C180 C 0.08337 0.36957 0.92975 0.0
C181 C 0.96834 0.43937 0.94032 0.0
C182 C 1.01434 0.43068 0.96166 0.0
C183 C 0.07348 0.39764 0.95572 0.0
C184 C 0.98032 0.40978 0.91436 0.0
N185 N 0.0349 0.37062 0.91021 0.0
H186 H 0.12897 0.34312 0.92614 0.0
H187 H 0.94537 0.41778 0.89784 0.0
H188 H 0.13781 0.45908 0.87856 0.0
H189 H 0.992 0.39534 0.82342 0.0
O190 O 0.14831 0.32207 0.87853 0.0
O191 O 0.09433 0.28377 0.84237 0.0
O192 O 0.95607 0.31755 0.86551 0.0
C193 C 0.15081 0.293 0.85464 0.0
H194 H 0.0362 0.07581 0.89103 0.0
H195 H 0.12653 0.54917 0.83816 0.0
H196 H 0.9233 0.46733 0.94381 0.0
H197 H 0.1117 0.39261 0.97124 0.0
Co198 Co 0.1836 0.55341 0.12637 0.0
C199 C 0.28265 0.59093 0.16841 0.0
C200 C 0.32428 0.52978 0.13643 0.0
C201 C 0.37415 0.54852 0.15402 0.0
N202 N 0.26671 0.55545 0.14581 0.0
N203 N 0.34763 0.58729 0.17398 0.0
H204 H 0.24835 0.6206 0.18019 0.0
H205 H 0.32985 0.50106 0.1176 0.0
C206 C 0.22181 0.40989 0.13439 0.0
O207 O 0.23802 0.42375 0.16011 0.0
N208 N 0.10229 0.5515 0.10601 0.0
C209 C 0.0511 0.59439 0.10729 0.0
C210 C 1.00924 0.58149 0.08538 0.0
C211 C 0.09093 0.51315 0.08378 0.0
N212 N 0.03449 0.53006 0.07089 0.0
C213 C 0.1251 0.59142 0.17778 0.0
C214 C 0.08001 0.46932 0.19514 0.0
C215 C 0.07995 0.52257 0.2138 0.0
C216 C 0.09961 0.58468 0.20434 0.0
C217 C 0.10616 0.47856 0.16825 0.0
N218 N 0.13415 0.53779 0.16087 0.0
H219 H 0.14041 0.64025 0.17165 0.0
H220 H 0.10476 0.4378 0.15381 0.0
H221 H 0.04634 0.63432 0.12214 0.0
H222 H 0.12569 0.47669 0.07595 0.0
O223 O 0.18079 0.64865 0.12717 0.0
O224 O 0.22878 0.59091 0.09376 0.0
O225 O 0.19752 0.45512 0.11866 0.0
C226 C 0.21491 0.64877 0.10445 0.0
H227 H 0.42607 0.53682 0.15167 0.0
H228 H 0.96513 0.60897 0.07997 0.0
H229 H 0.06199 0.42112 0.20146 0.0
H230 H 0.09718 0.62773 0.21777 0.0
Co231 Co 0.99573 0.74154 0.37454 0.0
C232 C 0.99608 0.84612 0.41906 0.0
C233 C 1.01019 0.88561 0.3782 0.0
C234 C 1.00907 0.93756 0.39671 0.0
N235 N 1.00105 0.82813 0.39214 0.0
N236 N 1.00099 0.91212 0.4223 0.0
H237 H 0.98783 0.81311 0.43624 0.0
H238 H 1.01643 0.88973 0.35595 0.0
C239 C 0.13869 0.77265 0.37914 0.0
O240 O 0.12671 0.78625 0.40536 0.0
N241 N 0.99066 0.65713 0.35603 0.0
C242 C 0.94779 0.60766 0.36127 0.0
C243 C 0.95542 0.55971 0.34106 0.0
C244 C 1.02406 0.63869 0.33307 0.0
N245 N 1.0037 0.57935 0.32356 0.0
C246 C 0.96768 0.69348 0.42887 0.0
C247 C 0.08326 0.62361 0.43765 0.0
C248 C 0.03736 0.62995 0.45942 0.0
C249 C 0.97808 0.66334 0.45438 0.0
C250 C 0.07085 0.65538 0.41219 0.0
N251 N 1.01578 0.69417 0.4089 0.0
H252 H 0.92177 0.71971 0.4259 0.0
H253 H 0.10574 0.64915 0.39534 0.0
H254 H 0.91191 0.6076 0.378 0.0
H255 H 0.06003 0.66964 0.32264 0.0
O256 O 0.90101 0.74271 0.37851 0.0
O257 O 0.95452 0.78464 0.34251 0.0
O258 O 0.09235 0.75083 0.36363 0.0
C259 C 0.8983 0.77387 0.35504 0.0
H260 H 1.013 0.98978 0.3918 0.0
H261 H 0.92691 0.51476 0.339 0.0
H262 H 0.12852 0.59567 0.44044 0.0
H263 H 0.94 0.66678 0.47024 0.0
C264 C 0.05616 0.11449 -0.00244 0.0
C265 C 0.10616 0.06621 -0.00224 0.0
H266 H 0.99806 0.18027 0.97257 0.0
C267 C 0.1286 0.03922 0.97253 0.0
H268 H 0.03862 0.13629 0.01679 0.0
C269 C 0.10486 0.06363 0.94735 0.0
C270 C 0.05936 0.1162 0.94716 0.0
H271 H 0.16709 1.00178 0.97235 0.0
H272 H 0.12583 0.04516 0.92811 0.0
C273 C 0.03336 0.13978 0.97239 0.0
C274 C 0.35517 0.67973 0.20711 0.0
C275 C 0.38115 0.62062 0.19611 0.0
H276 H 0.36211 0.75448 0.23803 0.0
C277 C 0.43882 0.59366 0.20763 0.0
H278 H 0.31165 0.70268 0.19835 0.0
C279 C 0.46883 0.62433 0.23024 0.0
C280 C 0.44166 0.68252 0.24172 0.0
H281 H 0.45983 0.54808 0.19961 0.0
H282 H 0.51314 0.60233 0.23871 0.0
C283 C 0.38484 0.71011 0.2297 0.0
C284 C 0.94246 0.99863 0.44849 0.0
C285 C 0.98898 0.94701 0.44769 0.0
H286 H 0.87932 0.05822 0.47431 0.0
C287 C 1.01584 0.92301 0.47256 0.0
H288 H 0.92085 1.01731 0.4295 0.0
C289 C 0.99298 0.94697 0.49803 0.0
C290 C 0.94202 0.99419 0.49886 0.0
H291 H 0.05185 0.88317 0.47223 0.0
H292 H 1.01122 0.92483 0.51701 0.0
C293 C 0.91861 1.02163 0.47397 0.0
C294 C 0.71311 0.39838 0.71783 0.0
C295 C 0.68383 0.45117 0.7033 0.0
H296 H 0.70532 0.32932 0.7511 0.0
C297 C 0.62231 0.47579 0.71239 0.0
H298 H 0.75997 0.37742 0.71143 0.0
C299 C 0.59002 0.44677 0.73506 0.0
C300 C 0.61875 0.39271 0.74888 0.0
H301 H 0.59891 0.51705 0.70191 0.0
H302 H 0.54189 0.46525 0.74125 0.0
C303 C 0.68119 0.36988 0.74042 0.0
C304 C 0.43636 1.0279 0.90584 0.0
C305 C 0.50474 1.02221 0.90186 0.0
H306 H 0.35628 1.02821 0.9349 0.0
C307 C 0.54458 1.00249 0.92424 0.0
H308 H 0.40472 0.04219 0.88878 0.0
C309 C 0.51689 0.99476 0.95082 0.0
C310 C 0.44919 1.00646 0.95511 0.0
H311 H 0.59753 0.99811 0.92161 0.0
H312 H 0.54897 0.98461 0.96825 0.0
C313 C 0.40881 1.01986 0.93216 0.0
C314 C 0.54055 0.04727 0.19207 0.0
C315 C 0.53518 0.98098 0.20069 0.0
H316 H 0.52602 0.11718 0.15902 0.0
C317 C 0.51604 0.93268 0.18142 0.0
H318 H 0.55453 0.08536 0.20671 0.0
C319 C 0.49836 0.95106 0.15448 0.0
C320 C 0.50088 1.01774 0.1462 0.0
H321 H 0.51056 0.88142 0.18775 0.0
H322 H 0.48043 0.91363 0.14034 0.0
C323 C 0.52434 0.06539 0.16489 0.0
C324 C 0.5559 0.07581 0.41843 0.0
C325 C 0.5296 1.01578 0.40897 0.0
H326 H 0.60405 0.12583 0.45207 0.0
C327 C 0.52234 0.96273 0.42749 0.0
H328 H 0.56139 0.11728 0.40432 0.0
C329 C 0.54512 0.9678 0.45458 0.0
C330 C 0.57677 1.02571 0.46357 0.0
H331 H 0.50095 0.91651 0.42062 0.0
H332 H 0.54106 0.92506 0.46813 0.0
C333 C 0.57972 0.08074 0.44565 0.0
C334 C 0.58181 0.98692 0.70465 0.0
C335 C 0.53044 0.03146 0.71109 0.0
H336 H 0.63894 0.94058 0.67247 0.0
C337 C 0.48872 0.05358 0.68975 0.0
H338 H 0.61457 0.96912 0.72076 0.0
C339 C 0.50253 0.03661 0.66204 0.0
C340 C 0.55847 0.99811 0.65556 0.0
H341 H 0.44931 0.08855 0.69418 0.0
H342 H 0.47305 0.05794 0.64558 0.0
C343 C 0.59608 0.97098 0.67712 0.0
C344 C 0.9657 0.50971 0.7882 0.0
C345 C 0.03145 0.51261 0.79694 0.0
H346 H 0.89917 0.51564 0.75399 0.0
C347 C 0.08031 0.53426 0.77814 0.0
H348 H 0.92727 0.49371 0.8024 0.0
C349 C 0.06429 0.54669 0.75029 0.0
C350 C 0.9992 0.5383 0.74121 0.0
H351 H 0.13146 0.53642 0.78443 0.0
H352 H 0.1033 0.55774 0.73553 0.0
C353 C 0.94967 0.52269 0.76063 0.0
C354 C 1.01531 0.4116 0.01258 0.0
C355 C 1.00291 0.45479 -0.00971 0.0
H356 H 0.0344 0.40236 0.05605 0.0
C357 C 0.98961 0.52193 -0.00425 0.0
H358 H 1.02479 0.35941 0.00893 0.0
C359 C 0.99473 0.54642 0.0229 0.0
C360 C 1.0134 0.50394 0.0447 0.0
H361 H 0.98014 0.55613 -0.02114 0.0
H362 H 0.98914 0.59911 0.0265 0.0
C363 C 1.02077 0.436 0.03947 0.0
C364 C 0.10995 0.53474 0.26312 0.0
C365 C 0.06254 0.5163 0.24346 0.0
H366 H 0.12773 0.56952 0.30435 0.0
C367 C 0.99669 0.50816 0.25193 0.0
H368 H 0.161 0.54162 0.25693 0.0
C369 C 0.97772 0.52398 0.27921 0.0
C370 C 1.02437 0.54884 0.298 0.0
H371 H 0.95928 0.49498 0.23697 0.0
H372 H 0.92599 0.52201 0.28491 0.0
C373 C 0.09096 0.55123 0.29008 0.0
C374 C 0.06195 0.53534 0.49191 0.0
C375 C 0.04902 0.60304 0.48758 0.0
H376 H 0.06269 0.45533 0.52148 0.0
C377 C 0.03724 0.64413 0.51062 0.0
H378 H 0.0709 0.5027 0.47443 0.0
C379 C 0.03229 0.61728 0.53718 0.0
C380 C 0.03941 0.54884 0.54135 0.0
H381 H 0.02799 0.69668 0.50784 0.0
H382 H 1.01941 0.6495 0.55437 0.0
C383 C 0.05726 0.50834 0.51874 0.0
C384 C 0.24697 0.72333 0.06461 0.0
C385 C 0.23888 0.71252 0.09318 0.0
H386 H 0.26608 0.79454 0.03244 0.0
C387 C 0.24974 0.76533 0.11165 0.0
H388 H 0.23883 0.68351 0.04997 0.0
C389 C 0.26623 0.82827 0.1018 0.0
C390 C 0.27103 0.84028 0.07318 0.0
H391 H 0.24451 0.7582 0.13387 0.0
H392 H 0.27281 0.86805 0.1166 0.0
C393 C 0.26224 0.78692 0.05466 0.0
C394 C 0.82995 0.85634 0.32831 0.0
C395 C 0.83413 0.79913 0.34486 0.0
H396 H 0.76634 0.92896 0.30957 0.0
C397 C 0.77553 0.76921 0.3542 0.0
H398 H 0.87434 0.88081 0.32109 0.0
C399 C 0.71404 0.79627 0.34755 0.0
C400 C 0.70952 0.85471 0.33177 0.0
H401 H 0.77719 0.72508 0.36704 0.0
H402 H 0.67 0.77205 0.35531 0.0
C403 C 0.76816 0.88422 0.32201 0.0
C404 C 0.78718 0.22246 0.60455 0.0
C405 C 0.77574 0.21131 0.57627 0.0
H406 H 0.81679 0.29144 0.63571 0.0
C407 C 0.78085 0.26519 0.55765 0.0
H408 H 0.78382 0.18222 0.61941 0.0
C409 C 0.79891 0.32839 0.56706 0.0
C410 C 0.8136 0.33841 0.59514 0.0
H411 H 0.77203 0.25825 0.53568 0.0
H412 H 0.80391 0.36854 0.55225 0.0
C413 C 0.80648 0.28505 0.61382 0.0
C414 C 0.28944 0.24741 0.80426 0.0
C415 C 0.34308 0.23875 0.82248 0.0
H416 H 0.18599 0.27017 0.80004 0.0
C417 C 0.33156 0.24451 0.85115 0.0
H418 H 0.29654 0.24301 0.78203 0.0
C419 C 0.26878 0.26098 0.86131 0.0
C420 C 0.21545 0.27098 0.84314 0.0
H421 H 0.37151 0.2382 0.86579 0.0
H422 H 0.26216 0.26646 0.88353 0.0
C423 C 0.22605 0.26272 0.81452 0.0
C424 C 0.8162 0.76271 0.64273 0.0
C425 C 0.82652 0.70958 0.62417 0.0
H426 H 0.7915 0.86603 0.64754 0.0
C427 C 0.82229 0.72181 0.59554 0.0
H428 H 0.81947 0.75497 0.66495 0.0
C429 C 0.80538 0.78482 0.58575 0.0
C430 C 0.79352 0.83755 0.60426 0.0
H431 H 0.82995 0.6822 0.58068 0.0
H432 H 0.80088 0.79208 0.56353 0.0
C433 C 0.8005 0.82636 0.63284 0.0
C434 C 0.76619 0.26643 0.83296 0.0
C435 C 0.71345 0.25616 0.85167 0.0
H436 H 0.86888 0.28844 0.82753 0.0
C437 C 0.72437 0.26488 0.88013 0.0
H438 H 0.75905 0.26062 0.81081 0.0
C439 C 0.78789 0.27985 0.88976 0.0
C440 C 0.84126 0.28768 0.87104 0.0
H441 H 0.68475 0.25715 0.89498 0.0
H442 H 0.79548 0.28392 0.91193 0.0
C443 C 0.82915 0.28263 0.84249 0.0
C444 C 0.23631 0.33067 0.09477 0.0
C445 C 0.23293 0.3418 0.12351 0.0
H446 H 0.25549 0.26138 0.0621 0.0
C447 C 0.24299 0.28775 0.14163 0.0
H448 H 0.22887 0.37101 0.08023 0.0
C449 C 0.25719 0.22421 0.13118 0.0
C450 C 0.26305 0.214 0.10244 0.0
H451 H 0.24038 0.29462 0.16392 0.0
H452 H 0.26567 0.18374 0.14554 0.0
C453 C 0.25183 0.26778 0.0844 0.0
C454 C 0.32308 0.80396 0.37567 0.0
C455 C 0.33209 0.82119 0.34767 0.0
H456 H 0.25462 0.77549 0.40758 0.0
C457 C 0.27764 0.81868 0.32969 0.0
H458 H 0.36413 0.8053 0.38997 0.0
C459 C 0.21522 0.80013 0.33959 0.0
C460 C 0.2057 0.78519 0.36782 0.0
H461 H 0.28328 0.83108 0.30791 0.0
H462 H 0.17405 0.79961 0.32535 0.0
C463 C 0.26038 0.78691 0.38571 0.0
loop_
_geom_bond_atom_site_label_1
_geom_bond_atom_site_label_2
_geom_bond_distance
_geom_bond_site_symmetry_2
_ccdc_geom_bond_type
Co0 N4 2.148 . S
Co0 N10 2.128 . S
Co0 N20 2.194 . S
Co0 O25 2.351 . S
Co0 O26 2.155 . S
Co0 O27 2.096 . S
C1 N4 1.301 . S
C1 N5 1.328 . S
C1 H6 0.930 . S
C2 C3 1.333 . S
C2 N4 1.317 . S
C2 H7 0.930 . S
C3 C2 1.333 . S
C3 N5 1.350 . S
C3 H29 0.931 . S
N4 Co0 2.148 . S
N4 C1 1.301 . S
N4 C2 1.317 . S
N5 C1 1.328 . S
N5 C3 1.350 . S
H6 C1 0.930 . S
H7 C2 0.930 . S
C8 O9 1.224 . S
C8 O27 1.247 . S
O9 C8 1.224 . S
N10 Co0 2.128 . S
N10 C11 1.355 . S
N10 C13 1.311 . S
C11 N10 1.355 . S
C11 C12 1.363 . S
C11 H23 0.929 . S
C12 C11 1.363 . S
C12 N14 1.375 . S
C12 H30 0.931 . S
C13 N10 1.311 . S
C13 N14 1.347 . S
C13 H24 0.929 . S
N14 C12 1.375 . S
N14 C13 1.347 . S
C15 C18 1.365 . S
C15 N20 1.328 . S
C15 H21 0.929 . S
C16 C17 1.362 . S
C16 C19 1.378 . S
C16 H31 0.929 . S
C17 C16 1.362 . S
C17 C18 1.366 . S
C18 C15 1.365 . S
C18 C17 1.366 . S
C18 H32 0.930 . S
C19 C16 1.378 . S
C19 N20 1.315 . S
C19 H22 0.930 . S
N20 Co0 2.194 . S
N20 C15 1.328 . S
N20 C19 1.315 . S
H21 C15 0.929 . S
H22 C19 0.930 . S
H23 C11 0.929 . S
H24 C13 0.929 . S
O25 Co0 2.351 . S
O25 C28 1.244 . S
O26 Co0 2.155 . S
O26 C28 1.240 . S
O27 Co0 2.096 . S
O27 C8 1.247 . S
C28 O25 1.244 . S
C28 O26 1.240 . S
H29 C3 0.931 . S
H30 C12 0.931 . S
H31 C16 0.929 . S
H32 C18 0.930 . S
Co33 N37 2.148 . S
Co33 N43 2.128 . S
Co33 N53 2.194 . S
Co33 O58 2.351 . S
Co33 O59 2.155 . S
Co33 O60 2.096 . S
C34 N37 1.301 . S
C34 N38 1.328 . S
C34 H39 0.930 . S
C35 C36 1.333 . S
C35 N37 1.317 . S
C35 H40 0.930 . S
C36 C35 1.333 . S
C36 N38 1.350 . S
C36 H62 0.931 . S
N37 Co33 2.148 . S
N37 C34 1.301 . S
N37 C35 1.317 . S
N38 C34 1.328 . S
N38 C36 1.350 . S
H39 C34 0.930 . S
H40 C35 0.930 . S
C41 O42 1.224 . S
C41 O60 1.247 . S
O42 C41 1.224 . S
N43 Co33 2.128 . S
N43 C44 1.355 . S
N43 C46 1.311 . S
C44 N43 1.355 . S
C44 C45 1.363 1_565 S
C44 H56 0.929 1_565 S
C45 C44 1.363 1_545 S
C45 N47 1.375 1_545 S
C45 H63 0.931 . S
C46 N43 1.311 . S
C46 N47 1.347 . S
C46 H57 0.929 . S
N47 C45 1.375 1_565 S
N47 C46 1.347 . S
C48 C51 1.365 1_565 S
C48 N53 1.328 . S
C48 H54 0.929 . S
C49 C50 1.362 . S
C49 C52 1.378 1_545 S
C49 H64 0.929 . S
C50 C49 1.362 . S
C50 C51 1.366 . S
C51 C48 1.365 1_545 S
C51 C50 1.366 . S
C51 H65 0.930 . S
C52 C49 1.378 1_565 S
C52 N53 1.315 . S
C52 H55 0.930 . S
N53 Co33 2.194 . S
N53 C48 1.328 . S
N53 C52 1.315 . S
H54 C48 0.929 . S
H55 C52 0.930 . S
H56 C44 0.929 1_545 S
H57 C46 0.929 . S
O58 Co33 2.351 . S
O58 C61 1.244 . S
O59 Co33 2.155 . S
O59 C61 1.240 . S
O60 Co33 2.096 . S
O60 C41 1.247 . S
C61 O58 1.244 . S
C61 O59 1.240 . S
H62 C36 0.931 . S
H63 C45 0.931 . S
H64 C49 0.929 . S
H65 C51 0.930 . S
Co66 N70 2.148 . S
Co66 N76 2.128 . S
Co66 N86 2.194 . S
Co66 O91 2.351 . S
Co66 O92 2.155 . S
Co66 O93 2.096 . S
C67 N70 1.301 . S
C67 N71 1.328 . S
C67 H72 0.930 . S
C68 C69 1.333 . S
C68 N70 1.317 . S
C68 H73 0.930 . S
C69 C68 1.333 . S
C69 N71 1.350 . S
C69 H95 0.931 . S
N70 Co66 2.148 . S
N70 C67 1.301 . S
N70 C68 1.317 . S
N71 C67 1.328 . S
N71 C69 1.350 . S
H72 C67 0.930 . S
H73 C68 0.930 . S
C74 O75 1.224 . S
C74 O93 1.247 . S
O75 C74 1.224 . S
N76 Co66 2.128 . S
N76 C77 1.355 . S
N76 C79 1.311 . S
C77 N76 1.355 . S
C77 C78 1.363 . S
C77 H89 0.929 . S
C78 C77 1.363 . S
C78 N80 1.375 . S
C78 H96 0.931 . S
C79 N76 1.311 . S
C79 N80 1.347 . S
C79 H90 0.929 . S
N80 C78 1.375 . S
N80 C79 1.347 . S
C81 C84 1.365 . S
C81 N86 1.328 . S
C81 H87 0.929 . S
C82 C83 1.362 . S
C82 C85 1.378 . S
C82 H97 0.929 . S
C83 C82 1.362 . S
C83 C84 1.366 . S
C84 C81 1.365 . S
C84 C83 1.366 . S
C84 H98 0.930 . S
C85 C82 1.378 . S
C85 N86 1.315 . S
C85 H88 0.930 . S
N86 Co66 2.194 . S
N86 C81 1.328 . S
N86 C85 1.315 . S
H87 C81 0.929 . S
H88 C85 0.930 . S
H89 C77 0.929 . S
H90 C79 0.929 . S
O91 Co66 2.351 . S
O91 C94 1.244 . S
O92 Co66 2.155 . S
O92 C94 1.240 . S
O93 Co66 2.096 . S
O93 C74 1.247 . S
C94 O91 1.244 . S
C94 O92 1.240 . S
H95 C69 0.931 . S
H96 C78 0.931 . S
H97 C82 0.929 . S
H98 C84 0.930 . S
Co99 N103 2.148 . S
Co99 N109 2.128 . S
Co99 N119 2.194 . S
Co99 O124 2.351 . S
Co99 O125 2.155 . S
Co99 O126 2.096 . S
C100 N103 1.301 . S
C100 N104 1.328 . S
C100 H105 0.930 . S
C101 C102 1.333 . S
C101 N103 1.317 . S
C101 H106 0.930 . S
C102 C101 1.333 . S
C102 N104 1.350 . S
C102 H128 0.931 . S
N103 Co99 2.148 . S
N103 C100 1.301 . S
N103 C101 1.317 . S
N104 C100 1.328 . S
N104 C102 1.350 . S
H105 C100 0.930 . S
H106 C101 0.930 . S
C107 O108 1.224 . S
C107 O126 1.247 . S
O108 C107 1.224 . S
N109 Co99 2.128 . S
N109 C110 1.355 . S
N109 C112 1.311 . S
C110 N109 1.355 . S
C110 C111 1.363 1_545 S
C110 H122 0.929 1_545 S
C111 C110 1.363 1_565 S
C111 N113 1.375 1_565 S
C111 H129 0.931 . S
C112 N109 1.311 . S
C112 N113 1.347 . S
C112 H123 0.929 . S
N113 C111 1.375 1_545 S
N113 C112 1.347 . S
C114 C117 1.365 1_545 S
C114 N119 1.328 . S
C114 H120 0.929 . S
C115 C116 1.362 . S
C115 C118 1.378 1_565 S
C115 H130 0.929 . S
C116 C115 1.362 . S
C116 C117 1.366 . S
C117 C114 1.365 1_565 S
C117 C116 1.366 . S
C117 H131 0.930 . S
C118 C115 1.378 1_545 S
C118 N119 1.315 . S
C118 H121 0.930 . S
N119 Co99 2.194 . S
N119 C114 1.328 . S
N119 C118 1.315 . S
H120 C114 0.929 . S
H121 C118 0.930 . S
H122 C110 0.929 1_565 S
H123 C112 0.929 . S
O124 Co99 2.351 . S
O124 C127 1.244 . S
O125 Co99 2.155 . S
O125 C127 1.240 . S
O126 Co99 2.096 . S
O126 C107 1.247 . S
C127 O124 1.244 . S
C127 O125 1.240 . S
H128 C102 0.931 . S
H129 C111 0.931 . S
H130 C115 0.929 . S
H131 C117 0.930 . S
Co132 N136 2.148 . S
Co132 N142 2.128 . S
Co132 N152 2.194 . S
Co132 O157 2.351 . S
Co132 O158 2.155 . S
Co132 O159 2.096 . S
C133 N136 1.301 . S
C133 N137 1.328 . S
C133 H138 0.930 . S
C134 C135 1.333 . S
C134 N136 1.317 . S
C134 H139 0.930 . S
C135 C134 1.333 . S
C135 N137 1.350 . S
C135 H161 0.931 . S
N136 Co132 2.148 . S
N136 C133 1.301 . S
N136 C134 1.317 . S
N137 C133 1.328 . S
N137 C135 1.350 . S
H138 C133 0.930 . S
H139 C134 0.930 . S
C140 O141 1.224 . S
C140 O159 1.247 . S
O141 C140 1.224 . S
N142 Co132 2.128 . S
N142 C143 1.355 . S
N142 C145 1.311 . S
C143 N142 1.355 . S
C143 C144 1.363 1_655 S
C143 H155 0.929 1_655 S
C144 C143 1.363 1_455 S
C144 N146 1.375 1_455 S
C144 H162 0.931 . S
C145 N142 1.311 . S
C145 N146 1.347 . S
C145 H156 0.929 . S
N146 C144 1.375 1_655 S
N146 C145 1.347 . S
C147 C150 1.365 1_655 S
C147 N152 1.328 . S
C147 H153 0.929 . S
C148 C149 1.362 . S
C148 C151 1.378 1_455 S
C148 H163 0.929 . S
C149 C148 1.362 . S
C149 C150 1.366 . S
C150 C147 1.365 1_455 S
C150 C149 1.366 . S
C150 H164 0.930 . S
C151 C148 1.378 1_655 S
C151 N152 1.315 . S
C151 H154 0.930 . S
N152 Co132 2.194 . S
N152 C147 1.328 . S
N152 C151 1.315 . S
H153 C147 0.929 . S
H154 C151 0.930 . S
H155 C143 0.929 1_455 S
H156 C145 0.929 . S
O157 Co132 2.351 . S
O157 C160 1.244 . S
O158 Co132 2.155 . S
O158 C160 1.240 . S
O159 Co132 2.096 . S
O159 C140 1.247 . S
C160 O157 1.244 . S
C160 O158 1.240 . S
H161 C135 0.931 . S
H162 C144 0.931 . S
H163 C148 0.929 . S
H164 C150 0.930 . S
Co165 N169 2.148 . S
Co165 N175 2.128 . S
Co165 N185 2.194 . S
Co165 O190 2.351 . S
Co165 O191 2.155 . S
Co165 O192 2.096 . S
C166 N169 1.301 . S
C166 N170 1.328 . S
C166 H171 0.930 . S
C167 C168 1.333 . S
C167 N169 1.317 . S
C167 H172 0.930 . S
C168 C167 1.333 . S
C168 N170 1.350 . S
C168 H194 0.931 . S
N169 Co165 2.148 . S
N169 C166 1.301 . S
N169 C167 1.317 . S
N170 C166 1.328 . S
N170 C168 1.350 . S
H171 C166 0.930 . S
H172 C167 0.930 . S
C173 O174 1.224 . S
C173 O192 1.247 . S
O174 C173 1.224 . S
N175 Co165 2.128 . S
N175 C176 1.355 . S
N175 C178 1.311 . S
C176 N175 1.355 . S
C176 C177 1.363 . S
C176 H188 0.929 . S
C177 C176 1.363 . S
C177 N179 1.375 . S
C177 H195 0.931 . S
C178 N175 1.311 . S
C178 N179 1.347 . S
C178 H189 0.929 . S
N179 C177 1.375 . S
N179 C178 1.347 . S
C180 C183 1.365 . S
C180 N185 1.328 . S
C180 H186 0.929 . S
C181 C182 1.362 . S
C181 C184 1.378 . S
C181 H196 0.929 . S
C182 C181 1.362 . S
C182 C183 1.366 . S
C183 C180 1.365 . S
C183 C182 1.366 . S
C183 H197 0.930 . S
C184 C181 1.378 . S
C184 N185 1.315 . S
C184 H187 0.930 . S
N185 Co165 2.194 . S
N185 C180 1.328 . S
N185 C184 1.315 . S
H186 C180 0.929 . S
H187 C184 0.930 . S
H188 C176 0.929 . S
H189 C178 0.929 . S
O190 Co165 2.351 . S
O190 C193 1.244 . S
O191 Co165 2.155 . S
O191 C193 1.240 . S
O192 Co165 2.096 . S
O192 C173 1.247 . S
C193 O190 1.244 . S
C193 O191 1.240 . S
H194 C168 0.931 . S
H195 C177 0.931 . S
H196 C181 0.929 . S
H197 C183 0.930 . S
Co198 N202 2.148 . S
Co198 N208 2.128 . S
Co198 N218 2.194 . S
Co198 O223 2.351 . S
Co198 O224 2.155 . S
Co198 O225 2.096 . S
C199 N202 1.301 . S
C199 N203 1.328 . S
C199 H204 0.930 . S
C200 C201 1.333 . S
C200 N202 1.317 . S
C200 H205 0.930 . S
C201 C200 1.333 . S
C201 N203 1.350 . S
C201 H227 0.931 . S
N202 Co198 2.148 . S
N202 C199 1.301 . S
N202 C200 1.317 . S
N203 C199 1.328 . S
N203 C201 1.350 . S
H204 C199 0.930 . S
H205 C200 0.930 . S
C206 O207 1.224 . S
C206 O225 1.247 . S
O207 C206 1.224 . S
N208 Co198 2.128 . S
N208 C209 1.355 . S
N208 C211 1.311 . S
C209 N208 1.355 . S
C209 C210 1.363 1_455 S
C209 H221 0.929 1_455 S
C210 C209 1.363 1_655 S
C210 N212 1.375 1_655 S
C210 H228 0.931 . S
C211 N208 1.311 . S
C211 N212 1.347 . S
C211 H222 0.929 . S
N212 C210 1.375 1_455 S
N212 C211 1.347 . S
C213 C216 1.365 1_455 S
C213 N218 1.328 . S
C213 H219 0.929 . S
C214 C215 1.362 . S
C214 C217 1.378 1_655 S
C214 H229 0.929 . S
C215 C214 1.362 . S
C215 C216 1.366 . S
C216 C213 1.365 1_655 S
C216 C215 1.366 . S
C216 H230 0.930 . S
C217 C214 1.378 1_455 S
C217 N218 1.315 . S
C217 H220 0.930 . S
N218 Co198 2.194 . S
N218 C213 1.328 . S
N218 C217 1.315 . S
H219 C213 0.929 . S
H220 C217 0.930 . S
H221 C209 0.929 1_655 S
H222 C211 0.929 . S
O223 Co198 2.351 . S
O223 C226 1.244 . S
O224 Co198 2.155 . S
O224 C226 1.240 . S
O225 Co198 2.096 . S
O225 C206 1.247 . S
C226 O223 1.244 . S
C226 O224 1.240 . S
H227 C201 0.931 . S
H228 C210 0.931 . S
H229 C214 0.929 . S
H230 C216 0.930 . S
Co231 N235 2.148 . S
Co231 N241 2.128 . S
Co231 N251 2.194 . S
Co231 O256 2.351 . S
Co231 O257 2.155 . S
Co231 O258 2.096 . S
C232 N235 1.301 . S
C232 N236 1.328 . S
C232 H237 0.930 . S
C233 C234 1.333 . S
C233 N235 1.317 . S
C233 H238 0.930 . S
C234 C233 1.333 . S
C234 N236 1.350 . S
C234 H260 0.931 . S
N235 Co231 2.148 . S
N235 C232 1.301 . S
N235 C233 1.317 . S
N236 C232 1.328 . S
N236 C234 1.350 . S
H237 C232 0.930 . S
H238 C233 0.930 . S
C239 O240 1.224 . S
C239 O258 1.247 . S
O240 C239 1.224 . S
N241 Co231 2.128 . S
N241 C242 1.355 . S
N241 C244 1.311 . S
C242 N241 1.355 . S
C242 C243 1.363 . S
C242 H254 0.929 . S
C243 C242 1.363 . S
C243 N245 1.375 . S
C243 H261 0.931 . S
C244 N241 1.311 . S
C244 N245 1.347 . S
C244 H255 0.929 . S
N245 C243 1.375 . S
N245 C244 1.347 . S
C246 C249 1.365 . S
C246 N251 1.328 . S
C246 H252 0.929 . S
C247 C248 1.362 . S
C247 C250 1.378 . S
C247 H262 0.929 . S
C248 C247 1.362 . S
C248 C249 1.366 . S
C249 C246 1.365 . S
C249 C248 1.366 . S
C249 H263 0.930 . S
C250 C247 1.378 . S
C250 N251 1.315 . S
C250 H253 0.930 . S
N251 Co231 2.194 . S
N251 C246 1.328 . S
N251 C250 1.315 . S
H252 C246 0.929 . S
H253 C250 0.930 . S
H254 C242 0.929 . S
H255 C244 0.929 . S
O256 Co231 2.351 . S
O256 C259 1.244 . S
O257 Co231 2.155 . S
O257 C259 1.240 . S
O258 Co231 2.096 . S
O258 C239 1.247 . S
C259 O256 1.244 . S
C259 O257 1.240 . S
H260 C234 0.931 . S
H261 C243 0.931 . S
H262 C247 0.929 . S
H263 C249 0.930 . S
C264 C265 1.387 . S
C264 H268 0.950 . S
C264 C273 1.390 1_554 S
C265 C264 1.387 . S
C265 C267 1.387 . S
H266 C273 0.950 . S
C267 C265 1.387 . S
C267 C269 1.390 1_554 S
C267 H271 0.950 . S
H268 C264 0.950 . S
C269 C267 1.390 1_556 S
C269 C270 1.387 . S
C269 H272 0.950 . S
C270 C269 1.387 . S
C270 C273 1.387 . S
H271 C267 0.950 . S
H272 C269 0.950 . S
C273 C264 1.390 1_556 S
C273 H266 0.950 . S
C273 C270 1.387 . S
C274 C275 1.387 . S
C274 H278 0.950 . S
C274 C283 1.390 . S
C275 C274 1.387 . S
C275 C277 1.387 . S
H276 C283 0.950 . S
C277 C275 1.387 . S
C277 C279 1.390 . S
C277 H281 0.950 . S
H278 C274 0.950 . S
C279 C277 1.390 . S
C279 C280 1.387 . S
C279 H282 0.950 . S
C280 C279 1.387 . S
C280 C283 1.387 . S
H281 C277 0.950 . S
H282 C279 0.950 . S
C283 C274 1.390 . S
C283 H276 0.950 . S
C283 C280 1.387 . S
C284 C285 1.387 . S
C284 H288 0.950 . S
C284 C293 1.390 . S
C285 C284 1.387 . S
C285 C287 1.387 . S
H286 C293 0.950 . S
C287 C285 1.387 . S
C287 C289 1.390 . S
C287 H291 0.950 . S
H288 C284 0.950 . S
C289 C287 1.390 . S
C289 C290 1.387 . S
C289 H292 0.950 . S
C290 C289 1.387 . S
C290 C293 1.387 . S
H291 C287 0.950 . S
H292 C289 0.950 . S
C293 C284 1.390 . S
C293 H286 0.950 . S
C293 C290 1.387 . S
C294 C295 1.387 . S
C294 H298 0.950 . S
C294 C303 1.390 . S
C295 C294 1.387 . S
C295 C297 1.387 . S
H296 C303 0.950 . S
C297 C295 1.387 . S
C297 C299 1.390 . S
C297 H301 0.950 . S
H298 C294 0.950 . S
C299 C297 1.390 . S
C299 C300 1.387 . S
C299 H302 0.950 . S
C300 C299 1.387 . S
C300 C303 1.387 . S
H301 C297 0.950 . S
H302 C299 0.950 . S
C303 C294 1.390 . S
C303 H296 0.950 . S
C303 C300 1.387 . S
C304 C305 1.387 . S
C304 H308 0.950 . S
C304 C313 1.390 1_556 S
C305 C304 1.387 . S
C305 C307 1.387 1_556 S
H306 C313 0.950 . S
C307 C305 1.387 1_554 S
C307 C309 1.390 . S
C307 H311 0.950 1_545 S
H308 C304 0.950 . S
C309 C307 1.390 . S
C309 C310 1.387 . S
C309 H312 0.950 . S
C310 C309 1.387 . S
C310 C313 1.387 . S
H311 C307 0.950 1_565 S
H312 C309 0.950 . S
C313 C304 1.390 1_554 S
C313 H306 0.950 . S
C313 C310 1.387 . S
C314 C315 1.387 . S
C314 H318 0.950 . S
C314 C323 1.390 . S
C315 C314 1.387 . S
C315 C317 1.387 . S
H316 C323 0.950 . S
C317 C315 1.387 . S
C317 C319 1.390 . S
C317 H321 0.950 . S
H318 C314 0.950 . S
C319 C317 1.390 . S
C319 C320 1.387 . S
C319 H322 0.950 1_545 S
C320 C319 1.387 . S
C320 C323 1.387 . S
H321 C317 0.950 . S
H322 C319 0.950 1_565 S
C323 C314 1.390 . S
C323 H316 0.950 . S
C323 C320 1.387 . S
C324 C325 1.387 . S
C324 H328 0.951 . S
C324 C333 1.390 . S
C325 C324 1.387 . S
C325 C327 1.387 . S
H326 C333 0.950 . S
C327 C325 1.387 . S
C327 C329 1.390 . S
C327 H331 0.950 . S
H328 C324 0.951 . S
C329 C327 1.390 . S
C329 C330 1.387 . S
C329 H332 0.950 . S
C330 C329 1.387 . S
C330 C333 1.387 . S
H331 C327 0.950 . S
H332 C329 0.950 . S
C333 C324 1.390 . S
C333 H326 0.950 . S
C333 C330 1.387 . S
C334 C335 1.387 . S
C334 H338 0.950 . S
C334 C343 1.390 . S
C335 C334 1.387 . S
C335 C337 1.387 . S
H336 C343 0.950 . S
C337 C335 1.387 . S
C337 C339 1.390 . S
C337 H341 0.950 . S
H338 C334 0.950 . S
C339 C337 1.390 . S
C339 C340 1.387 . S
C339 H342 0.950 . S
C340 C339 1.387 . S
C340 C343 1.387 . S
H341 C337 0.950 . S
H342 C339 0.950 . S
C343 C334 1.390 . S
C343 H336 0.950 . S
C343 C340 1.387 . S
C344 C345 1.387 . S
C344 H348 0.950 1_455 S
C344 C353 1.390 . S
C345 C344 1.387 . S
C345 C347 1.387 . S
H346 C353 0.950 . S
C347 C345 1.387 . S
C347 C349 1.390 . S
C347 H351 0.950 . S
H348 C344 0.950 1_655 S
C349 C347 1.390 . S
C349 C350 1.387 . S
C349 H352 0.950 . S
C350 C349 1.387 . S
C350 C353 1.387 . S
H351 C347 0.950 . S
H352 C349 0.950 . S
C353 C344 1.390 . S
C353 H346 0.950 . S
C353 C350 1.387 . S
C354 C355 1.387 . S
C354 H358 0.950 . S
C354 C363 1.390 1_556 S
C355 C354 1.387 . S
C355 C357 1.387 . S
H356 C363 0.950 . S
C357 C355 1.387 . S
C357 C359 1.390 1_556 S
C357 H361 0.950 . S
H358 C354 0.950 . S
C359 C357 1.390 1_554 S
C359 C360 1.387 . S
C359 H362 0.950 . S
C360 C359 1.387 . S
C360 C363 1.387 . S
H361 C357 0.950 . S
H362 C359 0.950 . S
C363 C354 1.390 1_554 S
C363 H356 0.950 . S
C363 C360 1.387 . S
C364 C365 1.387 . S
C364 H368 0.950 . S
C364 C373 1.390 . S
C365 C364 1.387 . S
C365 C367 1.387 . S
H366 C373 0.950 1_455 S
C367 C365 1.387 . S
C367 C369 1.390 . S
C367 H371 0.950 . S
H368 C364 0.950 . S
C369 C367 1.390 . S
C369 C370 1.387 . S
C369 H372 0.950 . S
C370 C369 1.387 . S
C370 C373 1.387 . S
H371 C367 0.950 . S
H372 C369 0.950 . S
C373 C364 1.390 . S
C373 H366 0.950 1_655 S
C373 C370 1.387 . S
C374 C375 1.387 . S
C374 H378 0.950 . S
C374 C383 1.390 . S
C375 C374 1.387 . S
C375 C377 1.387 . S
H376 C383 0.950 . S
C377 C375 1.387 . S
C377 C379 1.390 . S
C377 H381 0.950 . S
H378 C374 0.950 . S
C379 C377 1.390 . S
C379 C380 1.387 . S
C379 H382 0.950 . S
C380 C379 1.387 . S
C380 C383 1.387 . S
H381 C377 0.950 . S
H382 C379 0.950 . S
C383 C374 1.390 . S
C383 H376 0.950 . S
C383 C380 1.387 . S
C384 C385 1.387 . S
C384 H388 0.950 . S
C384 C393 1.390 . S
C385 C384 1.387 . S
C385 C387 1.387 . S
H386 C393 0.950 . S
C387 C385 1.387 . S
C387 C389 1.390 . S
C387 H391 0.950 . S
H388 C384 0.950 . S
C389 C387 1.390 . S
C389 C390 1.387 . S
C389 H392 0.950 1_565 S
C390 C389 1.387 . S
C390 C393 1.387 . S
H391 C387 0.950 . S
H392 C389 0.950 1_545 S
C393 C384 1.390 . S
C393 H386 0.950 . S
C393 C390 1.387 . S
C394 C395 1.387 . S
C394 H398 0.950 . S
C394 C403 1.390 . S
C395 C394 1.387 . S
C395 C397 1.387 . S
H396 C403 0.950 . S
C397 C395 1.387 . S
C397 C399 1.390 . S
C397 H401 0.950 . S
H398 C394 0.950 . S
C399 C397 1.390 . S
C399 C400 1.387 . S
C399 H402 0.950 . S
C400 C399 1.387 . S
C400 C403 1.387 . S
H401 C397 0.950 . S
H402 C399 0.950 . S
C403 C394 1.390 . S
C403 H396 0.950 . S
C403 C400 1.387 . S
C404 C405 1.387 . S
C404 H408 0.950 . S
C404 C413 1.390 . S
C405 C404 1.387 . S
C405 C407 1.387 . S
H406 C413 0.950 . S
C407 C405 1.387 . S
C407 C409 1.390 . S
C407 H411 0.950 . S
H408 C404 0.950 . S
C409 C407 1.390 . S
C409 C410 1.387 . S
C409 H412 0.950 . S
C410 C409 1.387 . S
C410 C413 1.387 . S
H411 C407 0.950 . S
H412 C409 0.950 . S
C413 C404 1.390 . S
C413 H406 0.950 . S
C413 C410 1.387 . S
C414 C415 1.387 . S
C414 H418 0.950 . S
C414 C423 1.390 . S
C415 C414 1.387 . S
C415 C417 1.387 . S
H416 C423 0.950 . S
C417 C415 1.387 . S
C417 C419 1.390 . S
C417 H421 0.950 . S
H418 C414 0.950 . S
C419 C417 1.390 . S
C419 C420 1.387 . S
C419 H422 0.950 . S
C420 C419 1.387 . S
C420 C423 1.387 . S
H421 C417 0.950 . S
H422 C419 0.950 . S
C423 C414 1.390 . S
C423 H416 0.950 . S
C423 C420 1.387 . S
C424 C425 1.387 . S
C424 H428 0.950 . S
C424 C433 1.390 . S
C425 C424 1.387 . S
C425 C427 1.387 . S
H426 C433 0.950 . S
C427 C425 1.387 . S
C427 C429 1.390 . S
C427 H431 0.950 . S
H428 C424 0.950 . S
C429 C427 1.390 . S
C429 C430 1.387 . S
C429 H432 0.950 . S
C430 C429 1.387 . S
C430 C433 1.387 . S
H431 C427 0.950 . S
H432 C429 0.950 . S
C433 C424 1.390 . S
C433 H426 0.950 . S
C433 C430 1.387 . S
C434 C435 1.387 . S
C434 H438 0.950 . S
C434 C443 1.390 . S
C435 C434 1.387 . S
C435 C437 1.387 . S
H436 C443 0.950 . S
C437 C435 1.387 . S
C437 C439 1.390 . S
C437 H441 0.950 . S
H438 C434 0.950 . S
C439 C437 1.390 . S
C439 C440 1.387 . S
C439 H442 0.950 . S
C440 C439 1.387 . S
C440 C443 1.387 . S
H441 C437 0.950 . S
H442 C439 0.950 . S
C443 C434 1.390 . S
C443 H436 0.950 . S
C443 C440 1.387 . S
C444 C445 1.387 . S
C444 H448 0.950 . S
C444 C453 1.390 . S
C445 C444 1.387 . S
C445 C447 1.387 . S
H446 C453 0.950 . S
C447 C445 1.387 . S
C447 C449 1.390 . S
C447 H451 0.950 . S
H448 C444 0.950 . S
C449 C447 1.390 . S
C449 C450 1.387 . S
C449 H452 0.950 . S
C450 C449 1.387 . S
C450 C453 1.387 . S
H451 C447 0.950 . S
H452 C449 0.950 . S
C453 C444 1.390 . S
C453 H446 0.950 . S
C453 C450 1.387 . S
C454 C455 1.387 . S
C454 H458 0.950 . S
C454 C463 1.390 . S
C455 C454 1.387 . S
C455 C457 1.387 . S
H456 C463 0.950 . S
C457 C455 1.387 . S
C457 C459 1.390 . S
C457 H461 0.950 . S
H458 C454 0.950 . S
C459 C457 1.390 . S
C459 C460 1.387 . S
C459 H462 0.950 . S
C460 C459 1.387 . S
C460 C463 1.387 . S
H461 C457 0.950 . S
H462 C459 0.950 . S
C463 C454 1.390 . S
C463 H456 0.950 . S
C463 C460 1.387 . S
C265 N5 0.533 . S
C270 N170 0.535 . S
C275 N203 0.540 . S
C280 N38 0.535 . S
C285 N236 0.533 . S
C290 N71 0.538 . S
C295 N137 0.537 . S
C300 N104 0.539 . S
C305 N113 1.723 . S
C310 C17 1.586 . S
C315 C50 1.588 . S
C320 N14 1.726 . S
C325 N47 1.726 . S
C330 C83 1.591 . S
C335 C116 1.587 . S
C340 N80 1.725 . S
C345 N179 1.724 . S
C350 C149 1.588 . S
C355 C182 1.588 . S
C360 N212 1.724 . S
C365 C215 1.589 . S
C370 N245 1.725 . S
C375 C248 1.588 . S
C380 N146 1.726 . S
C385 C226 1.954 . S
C390 C8 1.988 1_565 S
C395 C259 1.953 . S
C400 C41 1.989 . S
C405 C74 1.989 1_545 S
C410 C160 1.955 . S
C415 C107 1.989 . S
C420 C193 1.954 . S
C425 C140 1.989 . S
C430 C94 1.954 . S
C435 C127 1.955 . S
C440 C173 1.989 1_655 S
C445 C206 1.989 . S
C450 C28 1.955 . S
C455 C61 1.954 . S
C460 C239 1.989 1_455 S
