# Generated by pormake.
# Topology smu, (6)-cn, num edge types: 1
# Building blocks:
#     Node 0, Type 0, BuildingBlock: VOLQOD_clean_sbu_1, # of connection points: 6
#     Node 1, Type 0, BuildingBlock: VOLQOD_clean_sbu_1, # of connection points: 6
#     Node 2, Type 0, BuildingBlock: VOLQOD_clean_sbu_1, # of connection points: 6
#     Node 3, Type 0, BuildingBlock: VOLQOD_clean_sbu_1, # of connection points: 6
#     Node 4, Type 0, BuildingBlock: VOLQOD_clean_sbu_1, # of connection points: 6
#     Node 5, Type 0, BuildingBlock: VOLQOD_clean_sbu_1, # of connection points: 6
#     Edge 6, Type (0, 0), BuildingBlock: CIFDUS_clean_linker_0, # of connection points: 2
#     Edge 7, Type (0, 0), BuildingBlock: CIFDUS_clean_linker_0, # of connection points: 2
#     Edge 8, Type (0, 0), BuildingBlock: CIFDUS_clean_linker_0, # of connection points: 2
#     Edge 9, Type (0, 0), BuildingBlock: CIFDUS_clean_linker_0, # of connection points: 2
#     Edge 10, Type (0, 0), BuildingBlock: CIFDUS_clean_linker_0, # of connection points: 2
#     Edge 11, Type (0, 0), BuildingBlock: CIFDUS_clean_linker_0, # of connection points: 2
#     Edge 12, Type (0, 0), BuildingBlock: CIFDUS_clean_linker_0, # of connection points: 2
#     Edge 13, Type (0, 0), BuildingBlock: CIFDUS_clean_linker_0, # of connection points: 2
#     Edge 14, Type (0, 0), BuildingBlock: CIFDUS_clean_linker_0, # of connection points: 2
#     Edge 15, Type (0, 0), BuildingBlock: CIFDUS_clean_linker_0, # of connection points: 2
#     Edge 16, Type (0, 0), BuildingBlock: CIFDUS_clean_linker_0, # of connection points: 2
#     Edge 17, Type (0, 0), BuildingBlock: CIFDUS_clean_linker_0, # of connection points: 2
#     Edge 18, Type (0, 0), BuildingBlock: CIFDUS_clean_linker_0, # of connection points: 2
#     Edge 19, Type (0, 0), BuildingBlock: CIFDUS_clean_linker_0, # of connection points: 2
#     Edge 20, Type (0, 0), BuildingBlock: CIFDUS_clean_linker_0, # of connection points: 2
#     Edge 21, Type (0, 0), BuildingBlock: CIFDUS_clean_linker_0, # of connection points: 2
#     Edge 22, Type (0, 0), BuildingBlock: CIFDUS_clean_linker_0, # of connection points: 2
#     Edge 23, Type (0, 0), BuildingBlock: CIFDUS_clean_linker_0, # of connection points: 2
# Relax obj value: 0.301
# Max RMSD: 0.244
# Mean RMSD: 0.244
data_MOF--net-smu--node1-VOLQOD_clean_sbu_1--edge1-CIFDUS_clean_linker_0
_symmetry_space_group_name_H-M    P1
_symmetry_Int_Tables_number       1
_symmetry_cell_setting            triclinic
loop_
_symmetry_equiv_pos_as_xyz
'x, y, z'
_cell_length_a     27.917347
_cell_length_b     27.804887
_cell_length_c     29.182191
_cell_angle_alpha  89.756178
_cell_angle_beta   88.865735
_cell_angle_gamma 120.40162
loop_
_atom_site_label
_atom_site_type_symbol
_atom_site_fract_x
_atom_site_fract_y
_atom_site_fract_z
_atom_type_partial_charge
O0 O 0.38859 0.2022 0.23163 0.0
Zn1 Zn 0.3231 0.12921 0.21521 0.0
O2 O 0.3088 0.07507 0.26333 0.0
Zn3 Zn 0.31215 0.01249 0.23814 0.0
Zn4 Zn 0.35957 0.10763 0.31168 0.0
Zn5 Zn 0.23782 0.05125 0.29021 0.0
O6 O 0.2394 0.94049 0.25029 0.0
O7 O 0.18766 0.98033 0.25982 0.0
O8 O 0.33017 0.10271 0.15209 0.0
O9 O 0.31489 0.01827 0.16977 0.0
O10 O 0.38415 0.01576 0.25552 0.0
O11 O 0.41829 0.08916 0.30121 0.0
O12 O 0.32371 0.07574 0.3741 0.0
O13 O 0.26269 0.14814 0.21377 0.0
O14 O 0.23438 0.03605 0.35806 0.0
O15 O 0.21529 0.10819 0.27843 0.0
C16 C 0.40706 0.22231 0.27088 0.0
C17 C 0.19274 0.93859 0.24958 0.0
C18 C 0.42326 0.05215 0.2797 0.0
C19 C 0.32293 0.05546 0.14016 0.0
C20 C 0.27262 0.04798 0.38651 0.0
C21 C 0.22674 0.14143 0.24442 0.0
O22 O 0.39521 0.19126 0.30662 0.0
O23 O 0.78787 0.58202 0.18101 0.0
Zn24 Zn 0.77973 0.64807 0.16417 0.0
O25 O 0.74139 0.66372 0.21273 0.0
Zn26 Zn 0.67393 0.65887 0.19093 0.0
Zn27 Zn 0.72607 0.61278 0.26213 0.0
Zn28 Zn 0.78805 0.73543 0.23752 0.0
O29 O 0.67088 0.72817 0.2096 0.0
O30 O 0.7621 0.78539 0.2166 0.0
O31 O 0.74412 0.64251 0.10284 0.0
O32 O 0.67681 0.65997 0.12191 0.0
O33 O 0.60718 0.58435 0.21233 0.0
O34 O 0.64904 0.552 0.25671 0.0
O35 O 0.72936 0.64669 0.32357 0.0
O36 O 0.85938 0.70972 0.15923 0.0
O37 O 0.7819 0.7366 0.30656 0.0
O38 O 0.86627 0.7652 0.21675 0.0
C39 C 0.79376 0.56731 0.22105 0.0
C40 C 0.71317 0.77705 0.21308 0.0
C41 C 0.60582 0.54606 0.23772 0.0
C42 C 0.70527 0.65153 0.09172 0.0
C43 C 0.75424 0.6974 0.33562 0.0
C44 C 0.88782 0.75169 0.18417 0.0
O45 O 0.77674 0.58112 0.2568 0.0
O46 O 0.77076 0.19037 0.24307 0.0
Zn47 Zn 0.846 0.19718 0.23056 0.0
O48 O 0.89664 0.23913 0.27933 0.0
Zn49 Zn 0.96123 0.30542 0.2557 0.0
Zn50 Zn 0.86017 0.25815 0.32555 0.0
Zn51 Zn 0.92085 0.19468 0.30886 0.0
O52 O 0.03241 0.30959 0.27703 0.0
O53 O -0.00401 0.21759 0.28525 0.0
O54 O 0.88295 0.22803 0.16692 0.0
O55 O 0.9649 0.29757 0.18831 0.0
O56 O 0.95238 0.37302 0.26657 0.0
O57 O 0.8795 0.3366 0.31517 0.0
O58 O 0.8808 0.25016 0.38987 0.0
O59 O 0.82518 0.11659 0.23546 0.0
O60 O 0.92955 0.20863 0.37621 0.0
O61 O 0.86807 0.11385 0.29789 0.0
C62 C 0.74937 0.19016 0.28231 0.0
C63 C 0.0376 0.2666 0.28026 0.0
C64 C 0.91632 0.37728 0.29111 0.0
C65 C 0.93263 0.26709 0.15728 0.0
C66 C 0.91048 0.23051 0.40373 0.0
C67 C 0.83375 0.08927 0.26612 0.0
O68 O 0.77911 0.21059 0.31743 0.0
O69 O 0.18585 0.39004 0.81382 0.0
Zn70 Zn 0.10979 0.31995 0.82116 0.0
O71 O 0.06324 0.3164 0.77152 0.0
Zn72 Zn -0.00059 0.32042 0.79041 0.0
Zn73 Zn 0.10652 0.36773 0.72404 0.0
Zn74 Zn 0.03307 0.24702 0.74424 0.0
O75 O 0.92839 0.25232 0.76776 0.0
O76 O 0.96191 0.19539 0.77465 0.0
O77 O 0.06817 0.31149 0.88256 0.0
O78 O -0.00648 0.31319 0.85877 0.0
O79 O 0.01168 0.39603 0.77013 0.0
O80 O 0.08854 0.42803 0.72601 0.0
O81 O 0.08754 0.33544 0.66046 0.0
O82 O 0.13138 0.26078 0.81229 0.0
O83 O 0.01732 0.25115 0.67838 0.0
O84 O 0.08728 0.22207 0.74819 0.0
C85 C 0.21226 0.40853 0.77549 0.0
C86 C 0.92105 0.2032 0.77139 0.0
C87 C 0.05009 0.43382 0.74447 0.0
C88 C 0.02164 0.30898 0.89081 0.0
C89 C 0.04644 0.28899 0.6488 0.0
C90 C 0.12317 0.22974 0.77779 0.0
O91 O 0.18682 0.39853 0.73772 0.0
O92 O 0.16149 0.7795 0.8087 0.0
Zn93 Zn 0.17429 0.85651 0.81619 0.0
O94 O 0.22227 0.90468 0.76667 0.0
Zn95 Zn 0.29113 0.96427 0.79113 0.0
Zn96 Zn 0.2345 0.86139 0.72245 0.0
Zn97 Zn 0.18412 0.93344 0.73356 0.0
O98 O 0.29724 0.03938 0.77904 0.0
O99 O 0.21091 0.00929 0.7556 0.0
O100 O 0.20525 0.88628 0.87852 0.0
O101 O 0.28771 0.95953 0.85989 0.0
O102 O 0.3565 0.95543 0.76939 0.0
O103 O 0.31032 0.87656 0.73054 0.0
O104 O 0.23476 0.88522 0.65674 0.0
O105 O 0.09673 0.84323 0.81128 0.0
O106 O 0.20156 0.94186 0.66586 0.0
O107 O 0.10229 0.88347 0.74381 0.0
C108 C 0.15938 0.75365 0.77217 0.0
C109 C 0.25771 0.04788 0.76923 0.0
C110 C 0.35503 0.91526 0.74701 0.0
C111 C 0.25151 0.92793 0.88989 0.0
C112 C 0.22175 0.91938 0.64019 0.0
C113 C 0.07382 0.85175 0.77739 0.0
O114 O 0.18124 0.77966 0.73441 0.0
O115 O 0.57129 0.78886 0.74903 0.0
Zn116 Zn 0.63887 0.78367 0.75991 0.0
O117 O 0.64589 0.73767 0.71333 0.0
Zn118 Zn 0.64646 0.67519 0.74285 0.0
Zn119 Zn 0.58632 0.71218 0.67113 0.0
Zn120 Zn 0.71186 0.78208 0.67677 0.0
O121 O 0.7184 0.67635 0.72677 0.0
O122 O 0.76691 0.76196 0.69552 0.0
O123 O 0.6401 0.75749 0.82504 0.0
O124 O 0.65033 0.6849 0.81068 0.0
O125 O 0.57252 0.60326 0.73344 0.0
O126 O 0.52967 0.63488 0.68927 0.0
O127 O 0.61081 0.70979 0.60562 0.0
O128 O 0.69921 0.86351 0.75148 0.0
O129 O 0.70183 0.76489 0.60984 0.0
O130 O 0.74112 0.86364 0.68598 0.0
C131 C 0.54594 0.78448 0.71205 0.0
C132 C 0.76393 0.71789 0.71155 0.0
C133 C 0.52959 0.59614 0.71264 0.0
C134 C 0.64666 0.71766 0.83889 0.0
C135 C 0.65912 0.73387 0.58678 0.0
C136 C 0.73356 0.88957 0.7186 0.0
O137 O 0.55137 0.75998 0.67712 0.0
H138 H 0.31753 0.0303 0.92512 0.0
H139 H 0.209 0.85764 0.96422 0.0
H140 H 0.22465 0.88197 0.04517 0.0
H141 H 0.26643 0.95247 0.1045 0.0
H142 H 0.36918 0.12613 0.06591 0.0
H143 H 0.35867 0.10124 0.98478 0.0
C144 C 0.29773 -0.00207 0.95138 0.0
C145 C 0.26244 0.94216 0.93877 0.0
C146 C 0.30576 0.01245 0.99778 0.0
C147 C 0.23628 0.90081 0.97312 0.0
C148 C 0.24526 0.9147 0.01934 0.0
C149 C 0.28705 0.98488 0.07836 0.0
C150 C 0.31897 0.04106 0.09114 0.0
C151 C 0.27956 0.9704 0.03202 0.0
C152 C 0.34448 0.08263 0.05688 0.0
C153 C 0.33847 0.06839 0.01057 0.0
H154 H 0.75015 0.79274 0.53076 0.0
H155 H 0.58569 0.64722 0.53473 0.0
H156 H 0.60197 0.62171 0.45844 0.0
H157 H 0.66359 0.63952 0.39127 0.0
H158 H 0.82572 0.78786 0.38505 0.0
H159 H 0.80998 0.81318 0.46185 0.0
C160 C 0.7177 0.75561 0.51483 0.0
C161 C 0.66681 0.72186 0.53858 0.0
C162 C 0.72722 0.74133 0.47082 0.0
C163 C 0.62511 0.67415 0.51722 0.0
C164 C 0.63453 0.65928 0.4737 0.0
C165 C 0.6957 0.67708 0.40697 0.0
C166 C 0.74616 0.7113 0.38294 0.0
C167 C 0.68563 0.69222 0.45042 0.0
C168 C 0.78678 0.76062 0.40311 0.0
C169 C 0.77769 0.77518 0.4469 0.0
H170 H 0.87858 0.24647 0.07584 0.0
H171 H 0.04053 0.3078 0.13267 0.0
H172 H 0.08248 0.325 0.05604 0.0
H173 H 0.07404 0.3242 0.97231 0.0
H174 H 0.91297 0.26749 0.91523 0.0
H175 H 0.87042 0.2473 0.9918 0.0
C176 C 0.92295 0.26338 0.07133 0.0
C177 C 0.95622 0.27592 0.10995 0.0
C178 C 0.94731 0.27435 0.0269 0.0
C179 C 0.01386 0.29823 0.10354 0.0
C180 C 0.03804 0.308 0.05966 0.0
C181 C 0.02967 0.30737 0.97666 0.0
C182 C -0.003 0.29758 0.93798 0.0
C183 C 0.0053 0.29653 0.02102 0.0
C184 C 0.93944 0.27597 0.94434 0.0
C185 C 0.91484 0.26414 0.98821 0.0
H186 H 0.31962 0.00369 0.4397 0.0
H187 H 0.18922 0.0436 0.43937 0.0
H188 H 0.16121 0.00666 0.51778 0.0
H189 H 0.17433 0.96349 0.58662 0.0
H190 H 0.29991 0.91658 0.58453 0.0
H191 H 0.32872 0.95488 0.50677 0.0
C192 C 0.28534 0.00458 0.45704 0.0
C193 C 0.257 0.02704 0.43425 0.0
C194 C 0.26825 0.98145 0.50145 0.0
C195 C 0.2118 0.0268 0.45648 0.0
C196 C 0.19574 0.0056 0.50121 0.0
C197 C 0.20775 0.96132 0.56901 0.0
C198 C 0.235 0.93734 0.59142 0.0
C199 C 0.22362 0.98275 0.52402 0.0
C200 C 0.27795 0.93444 0.56799 0.0
C201 C 0.29474 0.95671 0.52361 0.0
H202 H 0.68846 0.65786 0.87675 0.0
H203 H 0.61719 0.75939 0.91234 0.0
H204 H 0.6265 0.74532 0.99384 0.0
H205 H 0.65657 0.70561 0.05471 0.0
H206 H 0.7323 0.60832 0.01839 0.0
H207 H 0.71918 0.61908 0.9372 0.0
C208 C 0.67462 0.67674 0.90227 0.0
C209 C 0.65188 0.70946 0.8884 0.0
C210 C 0.68088 0.66917 0.94888 0.0
C211 C 0.63489 0.73412 0.92202 0.0
C212 C 0.64012 0.72598 0.96862 0.0
C213 C 0.66975 0.6863 0.02906 0.0
C214 C 0.69509 0.65586 0.04263 0.0
C215 C 0.66319 0.69371 0.98241 0.0
C216 C 0.71272 0.63191 0.0089 0.0
C217 C 0.70524 0.63808 0.96248 0.0
H218 H 0.01279 0.26687 0.43547 0.0
H219 H 0.84355 0.20827 0.47939 0.0
H220 H 0.8705 0.218 0.55983 0.0
H221 H 0.94281 0.24471 0.61731 0.0
H222 H 0.11373 0.3141 0.57302 0.0
H223 H 0.08588 0.29873 0.49277 0.0
C224 C -0.01807 0.25605 0.46281 0.0
C225 C 0.92628 0.23631 0.45199 0.0
C226 C -0.00185 0.26383 0.50862 0.0
C227 C 0.88659 0.22341 0.48728 0.0
C228 C 0.90199 0.22892 0.53309 0.0
C229 C 0.97378 0.25618 0.58995 0.0
C230 C 0.03005 0.27988 0.60064 0.0
C231 C 0.95767 0.24924 0.54411 0.0
C232 C 0.07017 0.29569 0.56525 0.0
C233 C 0.05425 0.28687 0.51955 0.0
H234 H 0.50138 0.1013 0.34267 0.0
H235 H 0.47089 0.01977 0.21227 0.0
H236 H 0.57065 0.05473 0.20141 0.0
H237 H 0.66751 0.11778 0.22563 0.0
H238 H 0.69461 0.20252 0.3547 0.0
H239 H 0.59523 0.15814 0.3687 0.0
C240 C 0.51638 0.09033 0.31215 0.0
C241 C 0.47904 0.05858 0.27813 0.0
C242 C 0.57339 0.11252 0.30529 0.0
C243 C 0.49888 0.04398 0.2391 0.0
C244 C 0.55597 0.06471 0.23257 0.0
C245 C 0.65155 0.12665 0.25665 0.0
C246 C 0.68857 0.16399 0.28875 0.0
C247 C 0.59381 0.10081 0.26471 0.0
C248 C 0.66724 0.17428 0.32921 0.0
C249 C 0.61032 0.14872 0.33746 0.0
H250 H 0.57914 0.47346 0.30791 0.0
H251 H 0.52029 0.49447 0.17798 0.0
H252 H 0.45012 0.39494 0.17843 0.0
H253 H 0.41437 0.30089 0.2112 0.0
H254 H 0.47619 0.28059 0.34005 0.0
H255 H 0.53719 0.38146 0.34434 0.0
C256 C 0.55034 0.45643 0.28 0.0
C257 C 0.55526 0.49084 0.2426 0.0
C258 C 0.51167 0.39936 0.27988 0.0
C259 C 0.51718 0.46869 0.20711 0.0
C260 C 0.47761 0.41175 0.20714 0.0
C261 C 0.44116 0.31854 0.24026 0.0
C262 C 0.44171 0.28332 0.27482 0.0
C263 C 0.47603 0.37646 0.24249 0.0
C264 C 0.4755 0.3068 0.31282 0.0
C265 C 0.51027 0.36441 0.31532 0.0
H266 H 0.91427 0.42675 0.21212 0.0
H267 H 0.89768 0.43256 0.35879 0.0
H268 H 0.86019 0.49467 0.34991 0.0
H269 H 0.82245 0.53808 0.30049 0.0
H270 H 0.83319 0.52738 0.15339 0.0
H271 H 0.88194 0.47584 0.16234 0.0
C272 C 0.90421 0.44329 0.24204 0.0
C273 C 0.90937 0.426 0.28604 0.0
C274 C 0.88005 0.47662 0.23656 0.0
C275 C 0.89466 0.44612 0.32465 0.0
C276 C 0.87261 0.48098 0.31954 0.0
C277 C 0.83544 0.52459 0.2703 0.0
C278 C 0.82337 0.53598 0.22635 0.0
C279 C 0.86327 0.49482 0.27565 0.0
C280 C 0.84128 0.51869 0.18768 0.0
C281 C 0.86947 0.48943 0.19273 0.0
H282 H 0.04118 0.49505 0.81179 0.0
H283 H 0.07492 0.49617 0.66692 0.0
H284 H 0.10857 0.59609 0.66203 0.0
H285 H 0.13925 0.68431 0.70071 0.0
H286 H 0.11138 0.6845 0.84683 0.0
H287 H 0.065 0.58301 0.84958 0.0
C288 C 0.05423 0.51703 0.779 0.0
C289 C 0.05545 0.4888 0.73973 0.0
C290 C 0.076 0.57486 0.77693 0.0
C291 C 0.07351 0.51749 0.69748 0.0
C292 C 0.09323 0.57455 0.69479 0.0
C293 C 0.12289 0.66223 0.73316 0.0
C294 C 0.12966 0.69207 0.77356 0.0
C295 C 0.09668 0.60397 0.73462 0.0
C296 C 0.10742 0.66265 0.81523 0.0
C297 C 0.08065 0.60454 0.81686 0.0
H298 H 0.37614 0.86489 0.67812 0.0
H299 H 0.44311 0.95071 0.80443 0.0
H300 H 0.51112 0.91949 0.80332 0.0
H301 H 0.54316 0.85861 0.77097 0.0
H302 H 0.47208 0.77002 0.64617 0.0
H303 H 0.41301 0.81104 0.6426 0.0
C304 C 0.40617 0.87747 0.70513 0.0
C305 C 0.4043 0.90931 0.74167 0.0
C306 C 0.44334 0.85787 0.70503 0.0
C307 C 0.44394 0.92627 0.77595 0.0
C308 C 0.48224 0.90783 0.77557 0.0
C309 C 0.51473 0.84822 0.74298 0.0
C310 C 0.51125 0.81045 0.70932 0.0
C311 C 0.48084 0.87193 0.74115 0.0
C312 C 0.47512 0.79844 0.67276 0.0
C313 C 0.44148 0.822 0.67061 0.0
H314 H 0.27854 0.42385 0.70164 0.0
H315 H 0.28424 0.46076 0.8456 0.0
H316 H 0.386 0.5142 0.84053 0.0
H317 H 0.47254 0.55867 0.79281 0.0
H318 H 0.46445 0.52495 0.64837 0.0
H319 H 0.36435 0.46032 0.65615 0.0
C320 C 0.3019 0.44352 0.73202 0.0
C321 C 0.27378 0.43937 0.77373 0.0
C322 C 0.36001 0.47393 0.72881 0.0
C323 C 0.30486 0.46395 0.81295 0.0
C324 C 0.36301 0.49432 0.81008 0.0
C325 C 0.44896 0.53532 0.76357 0.0
C326 C 0.47551 0.54538 0.72024 0.0
C327 C 0.39099 0.50044 0.76797 0.0
C328 C 0.4447 0.51671 0.68211 0.0
C329 C 0.38749 0.48052 0.68647 0.0
H330 H 0.2046 0.19046 0.31445 0.0
H331 H 0.19133 0.16952 0.1681 0.0
H332 H 0.14087 0.2203 0.16467 0.0
H333 H 0.08908 0.2579 0.20539 0.0
H334 H 0.10174 0.27759 0.35165 0.0
H335 H 0.16615 0.2423 0.35313 0.0
C336 C 0.19087 0.19741 0.28184 0.0
C337 C 0.19997 0.17517 0.24175 0.0
C338 C 0.16286 0.22727 0.28014 0.0
C339 C 0.18376 0.18567 0.19943 0.0
C340 C 0.1552 0.2148 0.19747 0.0
C341 C 0.10831 0.257 0.2371 0.0
C342 C 0.09185 0.27095 0.27825 0.0
C343 C 0.14325 0.23445 0.23779 0.0
C344 C 0.11524 0.26825 0.31954 0.0
C345 C 0.15105 0.24701 0.32046 0.0
H346 H 0.96078 0.72884 0.22183 0.0
H347 H 0.94729 0.84695 0.13507 0.0
H348 H 0.04691 0.91295 0.14131 0.0
H349 H 0.13195 0.94248 0.18284 0.0
H350 H 0.1452 0.82833 0.27472 0.0
H351 H 0.05156 0.75407 0.25454 0.0
C352 C -0.01956 0.76838 0.2032 0.0
C353 C 0.94787 0.78369 0.17795 0.0
C354 C 0.03705 0.80659 0.20847 0.0
C355 C 0.97244 0.83484 0.1543 0.0
C356 C 0.02902 0.87247 0.15817 0.0
C357 C 0.1146 0.90086 0.1976 0.0
C358 C 0.14413 0.89049 0.23068 0.0
C359 C 0.0609 0.85968 0.18688 0.0
C360 C 0.1225 0.83673 0.2493 0.0
C361 C 0.06905 0.79469 0.23801 0.0
H362 H 0.77107 0.02167 0.19733 0.0
H363 H 0.82391 0.01842 0.33496 0.0
H364 H 0.77641 0.91714 0.33397 0.0
H365 H 0.73232 0.83151 0.29056 0.0
H366 H 0.6879 0.83376 0.15056 0.0
H367 H 0.71722 0.93303 0.15634 0.0
C368 C 0.77171 -0.00126 0.22724 0.0
C369 C 0.80201 0.02768 0.2658 0.0
C370 C 0.74508 0.94028 0.22617 0.0
C371 C 0.80198 -0.00267 0.30446 0.0
C372 C 0.77446 0.93935 0.3041 0.0
C373 C 0.72695 0.85341 0.26202 0.0
C374 C 0.70755 0.82591 0.22046 0.0
C375 C 0.74737 0.91065 0.26475 0.0
C376 C 0.70169 0.85424 0.18314 0.0
C377 C 0.71952 0.91112 0.18625 0.0
H378 H 0.18612 0.21056 0.83818 0.0
H379 H 0.1433 0.19886 0.69552 0.0
H380 H 0.19745 0.15505 0.67817 0.0
H381 H 0.24276 0.10601 0.70505 0.0
H382 H 0.27837 0.1071 0.84789 0.0
H383 H 0.24403 0.17128 0.86348 0.0
C384 C 0.18918 0.1988 0.80333 0.0
C385 C 0.1593 0.20631 0.76854 0.0
C386 C 0.21979 0.17238 0.79352 0.0
C387 C 0.16436 0.19185 0.7233 0.0
C388 C 0.19583 0.16733 0.71312 0.0
C389 C 0.24518 0.12241 0.73919 0.0
C390 C 0.26278 0.10237 0.77526 0.0
C391 C 0.22192 0.1556 0.74816 0.0
C392 C 0.26555 0.12293 0.81955 0.0
C393 C 0.24478 0.15855 0.82855 0.0
H394 H 0.01623 0.81335 0.70038 0.0
H395 H -0.00429 0.81395 0.84718 0.0
H396 H 0.89443 0.75986 0.84023 0.0
H397 H 0.81243 0.7223 0.79109 0.0
H398 H 0.83481 0.72515 0.64445 0.0
H399 H 0.93491 0.76588 0.65253 0.0
C400 C -0.01046 0.80173 0.73085 0.0
C401 C 0.01299 0.81884 0.77409 0.0
C402 C 0.93189 0.77017 0.72658 0.0
C403 C 0.97826 0.80198 0.81347 0.0
C404 C 0.92053 0.77084 0.80951 0.0
C405 C 0.83918 0.72958 0.76122 0.0
C406 C 0.81682 0.72012 0.7173 0.0
C407 C 0.8969 0.7556 0.76612 0.0
C408 C 0.85151 0.73121 0.67853 0.0
C409 C 0.90867 0.75539 0.68314 0.0
H410 H 0.8969 0.14705 0.69432 0.0
H411 H 0.83075 0.14701 0.82878 0.0
H412 H 0.76104 0.04768 0.8221 0.0
H413 H 0.73091 0.95875 0.78328 0.0
H414 H 0.80474 0.95913 0.65156 0.0
H415 H 0.86003 0.0605 0.65198 0.0
C416 C 0.86557 0.12557 0.72127 0.0
C417 C 0.86791 0.15373 0.76164 0.0
C418 C 0.82851 0.06829 0.71826 0.0
C419 C 0.8285 0.12597 0.79703 0.0
C420 C 0.78954 0.06911 0.7935 0.0
C421 C 0.75874 0.98098 0.75448 0.0
C422 C 0.76448 0.95122 0.71788 0.0
C423 C 0.79111 0.03936 0.7552 0.0
C424 C 0.8002 0.98081 0.68056 0.0
C425 C 0.83163 0.03884 0.6806 0.0
loop_
_geom_bond_atom_site_label_1
_geom_bond_atom_site_label_2
_geom_bond_distance
_geom_bond_site_symmetry_2
_ccdc_geom_bond_type
O0 Zn1 1.953 . S
O0 C16 1.225 . S
Zn1 O0 1.953 . S
Zn1 O2 1.949 . S
Zn1 O8 1.919 . S
Zn1 O13 1.924 . S
O2 Zn1 1.949 . S
O2 Zn3 1.923 . S
O2 Zn4 1.950 . S
O2 Zn5 1.945 . S
Zn3 O2 1.923 . S
Zn3 O6 1.933 1_545 S
Zn3 O9 1.941 . S
Zn3 O10 1.965 . S
Zn4 O2 1.950 . S
Zn4 O11 1.938 . S
Zn4 O12 1.906 . S
Zn4 O22 1.953 . S
Zn5 O2 1.945 . S
Zn5 O7 1.932 1_545 S
Zn5 O14 1.977 . S
Zn5 O15 1.910 . S
O6 Zn3 1.933 1_565 S
O6 C17 1.226 . S
O7 Zn5 1.932 1_565 S
O7 C17 1.307 . S
O8 Zn1 1.919 . S
O8 C19 1.253 . S
O9 Zn3 1.941 . S
O9 C19 1.283 . S
O10 Zn3 1.965 . S
O10 C18 1.303 . S
O11 Zn4 1.938 . S
O11 C18 1.247 . S
O12 Zn4 1.906 . S
O12 C20 1.304 . S
O13 Zn1 1.924 . S
O13 C21 1.311 . S
O14 Zn5 1.977 . S
O14 C20 1.272 . S
O15 Zn5 1.910 . S
O15 C21 1.231 . S
C16 O0 1.225 . S
C16 O22 1.298 . S
C17 O6 1.226 . S
C17 O7 1.307 . S
C18 O10 1.303 . S
C18 O11 1.247 . S
C19 O8 1.253 . S
C19 O9 1.283 . S
C20 O12 1.304 . S
C20 O14 1.272 . S
C21 O13 1.311 . S
C21 O15 1.231 . S
O22 Zn4 1.953 . S
O22 C16 1.298 . S
O23 Zn24 1.953 . S
O23 C39 1.225 . S
Zn24 O23 1.953 . S
Zn24 O25 1.949 . S
Zn24 O31 1.919 . S
Zn24 O36 1.924 . S
O25 Zn24 1.949 . S
O25 Zn26 1.923 . S
O25 Zn27 1.950 . S
O25 Zn28 1.945 . S
Zn26 O25 1.923 . S
Zn26 O29 1.933 . S
Zn26 O32 1.941 . S
Zn26 O33 1.965 . S
Zn27 O25 1.950 . S
Zn27 O34 1.938 . S
Zn27 O35 1.906 . S
Zn27 O45 1.953 . S
Zn28 O25 1.945 . S
Zn28 O30 1.932 . S
Zn28 O37 1.977 . S
Zn28 O38 1.910 . S
O29 Zn26 1.933 . S
O29 C40 1.226 . S
O30 Zn28 1.932 . S
O30 C40 1.307 . S
O31 Zn24 1.919 . S
O31 C42 1.253 . S
O32 Zn26 1.941 . S
O32 C42 1.283 . S
O33 Zn26 1.965 . S
O33 C41 1.303 . S
O34 Zn27 1.938 . S
O34 C41 1.247 . S
O35 Zn27 1.906 . S
O35 C43 1.304 . S
O36 Zn24 1.924 . S
O36 C44 1.311 . S
O37 Zn28 1.977 . S
O37 C43 1.272 . S
O38 Zn28 1.910 . S
O38 C44 1.231 . S
C39 O23 1.225 . S
C39 O45 1.298 . S
C40 O29 1.226 . S
C40 O30 1.307 . S
C41 O33 1.303 . S
C41 O34 1.247 . S
C42 O31 1.253 . S
C42 O32 1.283 . S
C43 O35 1.304 . S
C43 O37 1.272 . S
C44 O36 1.311 . S
C44 O38 1.231 . S
O45 Zn27 1.953 . S
O45 C39 1.298 . S
O46 Zn47 1.953 . S
O46 C62 1.225 . S
Zn47 O46 1.953 . S
Zn47 O48 1.949 . S
Zn47 O54 1.919 . S
Zn47 O59 1.924 . S
O48 Zn47 1.949 . S
O48 Zn49 1.923 . S
O48 Zn50 1.950 . S
O48 Zn51 1.945 . S
Zn49 O48 1.923 . S
Zn49 O52 1.933 1_655 S
Zn49 O55 1.941 . S
Zn49 O56 1.965 . S
Zn50 O48 1.950 . S
Zn50 O57 1.938 . S
Zn50 O58 1.906 . S
Zn50 O68 1.953 . S
Zn51 O48 1.945 . S
Zn51 O53 1.932 1_655 S
Zn51 O60 1.977 . S
Zn51 O61 1.910 . S
O52 Zn49 1.933 1_455 S
O52 C63 1.226 . S
O53 Zn51 1.932 1_455 S
O53 C63 1.307 . S
O54 Zn47 1.919 . S
O54 C65 1.253 . S
O55 Zn49 1.941 . S
O55 C65 1.283 . S
O56 Zn49 1.965 . S
O56 C64 1.303 . S
O57 Zn50 1.938 . S
O57 C64 1.247 . S
O58 Zn50 1.906 . S
O58 C66 1.304 . S
O59 Zn47 1.924 . S
O59 C67 1.311 . S
O60 Zn51 1.977 . S
O60 C66 1.272 . S
O61 Zn51 1.910 . S
O61 C67 1.231 . S
C62 O46 1.225 . S
C62 O68 1.298 . S
C63 O52 1.226 . S
C63 O53 1.307 . S
C64 O56 1.303 . S
C64 O57 1.247 . S
C65 O54 1.253 . S
C65 O55 1.283 . S
C66 O58 1.304 . S
C66 O60 1.272 . S
C67 O59 1.311 . S
C67 O61 1.231 . S
O68 Zn50 1.953 . S
O68 C62 1.298 . S
O69 Zn70 1.953 . S
O69 C85 1.225 . S
Zn70 O69 1.953 . S
Zn70 O71 1.949 . S
Zn70 O77 1.919 . S
Zn70 O82 1.924 . S
O71 Zn70 1.949 . S
O71 Zn72 1.923 . S
O71 Zn73 1.950 . S
O71 Zn74 1.945 . S
Zn72 O71 1.923 . S
Zn72 O75 1.933 1_455 S
Zn72 O78 1.941 . S
Zn72 O79 1.965 . S
Zn73 O71 1.950 . S
Zn73 O80 1.938 . S
Zn73 O81 1.906 . S
Zn73 O91 1.953 . S
Zn74 O71 1.945 . S
Zn74 O76 1.932 1_455 S
Zn74 O83 1.977 . S
Zn74 O84 1.910 . S
O75 Zn72 1.933 1_655 S
O75 C86 1.226 . S
O76 Zn74 1.932 1_655 S
O76 C86 1.307 . S
O77 Zn70 1.919 . S
O77 C88 1.253 . S
O78 Zn72 1.941 . S
O78 C88 1.283 . S
O79 Zn72 1.965 . S
O79 C87 1.303 . S
O80 Zn73 1.938 . S
O80 C87 1.247 . S
O81 Zn73 1.906 . S
O81 C89 1.304 . S
O82 Zn70 1.924 . S
O82 C90 1.311 . S
O83 Zn74 1.977 . S
O83 C89 1.272 . S
O84 Zn74 1.910 . S
O84 C90 1.231 . S
C85 O69 1.225 . S
C85 O91 1.298 . S
C86 O75 1.226 . S
C86 O76 1.307 . S
C87 O79 1.303 . S
C87 O80 1.247 . S
C88 O77 1.253 . S
C88 O78 1.283 . S
C89 O81 1.304 . S
C89 O83 1.272 . S
C90 O82 1.311 . S
C90 O84 1.231 . S
O91 Zn73 1.953 . S
O91 C85 1.298 . S
O92 Zn93 1.953 . S
O92 C108 1.225 . S
Zn93 O92 1.953 . S
Zn93 O94 1.949 . S
Zn93 O100 1.919 . S
Zn93 O105 1.924 . S
O94 Zn93 1.949 . S
O94 Zn95 1.923 . S
O94 Zn96 1.950 . S
O94 Zn97 1.945 . S
Zn95 O94 1.923 . S
Zn95 O98 1.933 1_565 S
Zn95 O101 1.941 . S
Zn95 O102 1.965 . S
Zn96 O94 1.950 . S
Zn96 O103 1.938 . S
Zn96 O104 1.906 . S
Zn96 O114 1.953 . S
Zn97 O94 1.945 . S
Zn97 O99 1.932 1_565 S
Zn97 O106 1.977 . S
Zn97 O107 1.910 . S
O98 Zn95 1.933 1_545 S
O98 C109 1.226 . S
O99 Zn97 1.932 1_545 S
O99 C109 1.307 . S
O100 Zn93 1.919 . S
O100 C111 1.253 . S
O101 Zn95 1.941 . S
O101 C111 1.283 . S
O102 Zn95 1.965 . S
O102 C110 1.303 . S
O103 Zn96 1.938 . S
O103 C110 1.247 . S
O104 Zn96 1.906 . S
O104 C112 1.304 . S
O105 Zn93 1.924 . S
O105 C113 1.311 . S
O106 Zn97 1.977 . S
O106 C112 1.272 . S
O107 Zn97 1.910 . S
O107 C113 1.231 . S
C108 O92 1.225 . S
C108 O114 1.298 . S
C109 O98 1.226 . S
C109 O99 1.307 . S
C110 O102 1.303 . S
C110 O103 1.247 . S
C111 O100 1.253 . S
C111 O101 1.283 . S
C112 O104 1.304 . S
C112 O106 1.272 . S
C113 O105 1.311 . S
C113 O107 1.231 . S
O114 Zn96 1.953 . S
O114 C108 1.298 . S
O115 Zn116 1.953 . S
O115 C131 1.225 . S
Zn116 O115 1.953 . S
Zn116 O117 1.949 . S
Zn116 O123 1.919 . S
Zn116 O128 1.924 . S
O117 Zn116 1.949 . S
O117 Zn118 1.923 . S
O117 Zn119 1.950 . S
O117 Zn120 1.945 . S
Zn118 O117 1.923 . S
Zn118 O121 1.933 . S
Zn118 O124 1.941 . S
Zn118 O125 1.965 . S
Zn119 O117 1.950 . S
Zn119 O126 1.938 . S
Zn119 O127 1.906 . S
Zn119 O137 1.953 . S
Zn120 O117 1.945 . S
Zn120 O122 1.932 . S
Zn120 O129 1.977 . S
Zn120 O130 1.910 . S
O121 Zn118 1.933 . S
O121 C132 1.226 . S
O122 Zn120 1.932 . S
O122 C132 1.307 . S
O123 Zn116 1.919 . S
O123 C134 1.253 . S
O124 Zn118 1.941 . S
O124 C134 1.283 . S
O125 Zn118 1.965 . S
O125 C133 1.303 . S
O126 Zn119 1.938 . S
O126 C133 1.247 . S
O127 Zn119 1.906 . S
O127 C135 1.304 . S
O128 Zn116 1.924 . S
O128 C136 1.311 . S
O129 Zn120 1.977 . S
O129 C135 1.272 . S
O130 Zn120 1.910 . S
O130 C136 1.231 . S
C131 O115 1.225 . S
C131 O137 1.298 . S
C132 O121 1.226 . S
C132 O122 1.307 . S
C133 O125 1.303 . S
C133 O126 1.247 . S
C134 O123 1.253 . S
C134 O124 1.283 . S
C135 O127 1.304 . S
C135 O129 1.272 . S
C136 O128 1.311 . S
C136 O130 1.231 . S
O137 Zn119 1.953 . S
O137 C131 1.298 . S
H138 C144 0.930 1_545 S
H139 C147 0.930 . S
H140 C148 0.930 1_554 S
H141 C149 0.930 1_565 S
H142 C152 0.930 . S
H143 C153 0.930 1_556 S
C144 H138 0.930 1_565 S
C144 C145 1.355 . S
C144 C146 1.415 1_565 S
C145 C144 1.355 . S
C145 C147 1.419 . S
C146 C144 1.415 1_545 S
C146 C151 1.425 1_546 S
C146 C153 1.409 1_556 S
C147 H139 0.930 . S
C147 C145 1.419 . S
C147 C148 1.362 . S
C148 H140 0.930 1_556 S
C148 C147 1.362 . S
C148 C151 1.409 1_556 S
C149 H141 0.930 1_545 S
C149 C150 1.355 . S
C149 C151 1.415 1_545 S
C150 C149 1.355 . S
C150 C152 1.419 . S
C151 C146 1.425 1_564 S
C151 C148 1.409 1_554 S
C151 C149 1.415 1_565 S
C152 H142 0.930 . S
C152 C150 1.419 . S
C152 C153 1.362 . S
C153 H143 0.930 1_554 S
C153 C146 1.409 1_554 S
C153 C152 1.362 . S
H154 C160 0.930 . S
H155 C163 0.930 . S
H156 C164 0.930 . S
H157 C165 0.930 . S
H158 C168 0.930 . S
H159 C169 0.930 . S
C160 H154 0.930 . S
C160 C161 1.355 . S
C160 C162 1.415 . S
C161 C160 1.355 . S
C161 C163 1.419 . S
C162 C160 1.415 . S
C162 C167 1.425 . S
C162 C169 1.409 . S
C163 H155 0.930 . S
C163 C161 1.419 . S
C163 C164 1.362 . S
C164 H156 0.930 . S
C164 C163 1.362 . S
C164 C167 1.409 . S
C165 H157 0.930 . S
C165 C166 1.355 . S
C165 C167 1.415 . S
C166 C165 1.355 . S
C166 C168 1.419 . S
C167 C162 1.425 . S
C167 C164 1.409 . S
C167 C165 1.415 . S
C168 H158 0.930 . S
C168 C166 1.419 . S
C168 C169 1.362 . S
C169 H159 0.930 . S
C169 C162 1.409 . S
C169 C168 1.362 . S
H170 C176 0.930 . S
H171 C179 0.930 . S
H172 C180 0.930 . S
H173 C181 0.930 . S
H174 C184 0.930 . S
H175 C185 0.930 . S
C176 H170 0.930 . S
C176 C177 1.355 . S
C176 C178 1.415 1_554 S
C177 C176 1.355 . S
C177 C179 1.419 1_655 S
C178 C176 1.415 1_556 S
C178 C183 1.425 1_656 S
C178 C185 1.409 . S
C179 H171 0.930 . S
C179 C177 1.419 1_455 S
C179 C180 1.362 . S
C180 H172 0.930 . S
C180 C179 1.362 . S
C180 C183 1.409 . S
C181 H173 0.930 . S
C181 C182 1.355 . S
C181 C183 1.415 1_556 S
C182 C181 1.355 . S
C182 C184 1.419 1_455 S
C183 C178 1.425 1_454 S
C183 C180 1.409 . S
C183 C181 1.415 1_554 S
C184 H174 0.930 . S
C184 C182 1.419 1_655 S
C184 C185 1.362 . S
C185 H175 0.930 . S
C185 C178 1.409 . S
C185 C184 1.362 . S
H186 C192 0.930 . S
H187 C195 0.930 . S
H188 C196 0.930 . S
H189 C197 0.930 . S
H190 C200 0.930 . S
H191 C201 0.930 . S
C192 H186 0.930 . S
C192 C193 1.355 . S
C192 C194 1.415 . S
C193 C192 1.355 . S
C193 C195 1.419 . S
C194 C192 1.415 . S
C194 C199 1.425 1_545 S
C194 C201 1.409 1_545 S
C195 H187 0.930 . S
C195 C193 1.419 . S
C195 C196 1.362 . S
C196 H188 0.930 . S
C196 C195 1.362 . S
C196 C199 1.409 1_545 S
C197 H189 0.930 . S
C197 C198 1.355 . S
C197 C199 1.415 . S
C198 C197 1.355 . S
C198 C200 1.419 . S
C199 C194 1.425 1_565 S
C199 C196 1.409 1_565 S
C199 C197 1.415 . S
C200 H190 0.930 . S
C200 C198 1.419 . S
C200 C201 1.362 . S
C201 H191 0.930 . S
C201 C194 1.409 1_565 S
C201 C200 1.362 . S
H202 C208 0.930 . S
H203 C211 0.930 . S
H204 C212 0.930 . S
H205 C213 0.930 . S
H206 C216 0.930 . S
H207 C217 0.930 . S
C208 H202 0.930 . S
C208 C209 1.355 . S
C208 C210 1.415 . S
C209 C208 1.355 . S
C209 C211 1.419 . S
C210 C208 1.415 . S
C210 C215 1.425 1_556 S
C210 C217 1.409 1_556 S
C211 H203 0.930 . S
C211 C209 1.419 . S
C211 C212 1.362 . S
C212 H204 0.930 . S
C212 C211 1.362 . S
C212 C215 1.409 1_556 S
C213 H205 0.930 . S
C213 C214 1.355 . S
C213 C215 1.415 . S
C214 C213 1.355 . S
C214 C216 1.419 . S
C215 C210 1.425 1_554 S
C215 C212 1.409 1_554 S
C215 C213 1.415 . S
C216 H206 0.930 . S
C216 C214 1.419 . S
C216 C217 1.362 . S
C217 H207 0.930 . S
C217 C210 1.409 1_554 S
C217 C216 1.362 . S
H218 C224 0.930 1_455 S
H219 C227 0.930 . S
H220 C228 0.930 . S
H221 C229 0.930 1_655 S
H222 C232 0.930 . S
H223 C233 0.930 . S
C224 H218 0.930 1_655 S
C224 C225 1.355 . S
C224 C226 1.415 1_655 S
C225 C224 1.355 . S
C225 C227 1.419 . S
C226 C224 1.415 1_455 S
C226 C231 1.425 1_455 S
C226 C233 1.409 . S
C227 H219 0.930 . S
C227 C225 1.419 . S
C227 C228 1.362 . S
C228 H220 0.930 . S
C228 C227 1.362 . S
C228 C231 1.409 . S
C229 H221 0.930 1_455 S
C229 C230 1.355 . S
C229 C231 1.415 1_455 S
C230 C229 1.355 . S
C230 C232 1.419 . S
C231 C226 1.425 1_655 S
C231 C228 1.409 . S
C231 C229 1.415 1_655 S
C232 H222 0.930 . S
C232 C230 1.419 . S
C232 C233 1.362 . S
C233 H223 0.930 . S
C233 C226 1.409 . S
C233 C232 1.362 . S
H234 C240 0.930 . S
H235 C243 0.930 . S
H236 C244 0.930 . S
H237 C245 0.930 . S
H238 C248 0.930 . S
H239 C249 0.930 . S
C240 H234 0.930 . S
C240 C241 1.355 . S
C240 C242 1.415 . S
C241 C240 1.355 . S
C241 C243 1.419 . S
C242 C240 1.415 . S
C242 C247 1.425 . S
C242 C249 1.409 . S
C243 H235 0.930 . S
C243 C241 1.419 . S
C243 C244 1.362 . S
C244 H236 0.930 . S
C244 C243 1.362 . S
C244 C247 1.409 . S
C245 H237 0.930 . S
C245 C246 1.355 . S
C245 C247 1.415 . S
C246 C245 1.355 . S
C246 C248 1.419 . S
C247 C242 1.425 . S
C247 C244 1.409 . S
C247 C245 1.415 . S
C248 H238 0.930 . S
C248 C246 1.419 . S
C248 C249 1.362 . S
C249 H239 0.930 . S
C249 C242 1.409 . S
C249 C248 1.362 . S
H250 C256 0.930 . S
H251 C259 0.930 . S
H252 C260 0.930 . S
H253 C261 0.930 . S
H254 C264 0.930 . S
H255 C265 0.930 . S
C256 H250 0.930 . S
C256 C257 1.355 . S
C256 C258 1.415 . S
C257 C256 1.355 . S
C257 C259 1.419 . S
C258 C256 1.415 . S
C258 C263 1.425 . S
C258 C265 1.409 . S
C259 H251 0.930 . S
C259 C257 1.419 . S
C259 C260 1.362 . S
C260 H252 0.930 . S
C260 C259 1.362 . S
C260 C263 1.409 . S
C261 H253 0.930 . S
C261 C262 1.355 . S
C261 C263 1.415 . S
C262 C261 1.355 . S
C262 C264 1.419 . S
C263 C258 1.425 . S
C263 C260 1.409 . S
C263 C261 1.415 . S
C264 H254 0.930 . S
C264 C262 1.419 . S
C264 C265 1.362 . S
C265 H255 0.930 . S
C265 C258 1.409 . S
C265 C264 1.362 . S
H266 C272 0.930 . S
H267 C275 0.930 . S
H268 C276 0.930 . S
H269 C277 0.930 . S
H270 C280 0.930 . S
H271 C281 0.930 . S
C272 H266 0.930 . S
C272 C273 1.355 . S
C272 C274 1.415 . S
C273 C272 1.355 . S
C273 C275 1.419 . S
C274 C272 1.415 . S
C274 C279 1.425 . S
C274 C281 1.409 . S
C275 H267 0.930 . S
C275 C273 1.419 . S
C275 C276 1.362 . S
C276 H268 0.930 . S
C276 C275 1.362 . S
C276 C279 1.409 . S
C277 H269 0.930 . S
C277 C278 1.355 . S
C277 C279 1.415 . S
C278 C277 1.355 . S
C278 C280 1.419 . S
C279 C274 1.425 . S
C279 C276 1.409 . S
C279 C277 1.415 . S
C280 H270 0.930 . S
C280 C278 1.419 . S
C280 C281 1.362 . S
C281 H271 0.930 . S
C281 C274 1.409 . S
C281 C280 1.362 . S
H282 C288 0.930 . S
H283 C291 0.930 . S
H284 C292 0.930 . S
H285 C293 0.930 . S
H286 C296 0.930 . S
H287 C297 0.930 . S
C288 H282 0.930 . S
C288 C289 1.355 . S
C288 C290 1.415 . S
C289 C288 1.355 . S
C289 C291 1.419 . S
C290 C288 1.415 . S
C290 C295 1.425 . S
C290 C297 1.409 . S
C291 H283 0.930 . S
C291 C289 1.419 . S
C291 C292 1.362 . S
C292 H284 0.930 . S
C292 C291 1.362 . S
C292 C295 1.409 . S
C293 H285 0.930 . S
C293 C294 1.355 . S
C293 C295 1.415 . S
C294 C293 1.355 . S
C294 C296 1.419 . S
C295 C290 1.425 . S
C295 C292 1.409 . S
C295 C293 1.415 . S
C296 H286 0.930 . S
C296 C294 1.419 . S
C296 C297 1.362 . S
C297 H287 0.930 . S
C297 C290 1.409 . S
C297 C296 1.362 . S
H298 C304 0.930 . S
H299 C307 0.930 . S
H300 C308 0.930 . S
H301 C309 0.930 . S
H302 C312 0.930 . S
H303 C313 0.930 . S
C304 H298 0.930 . S
C304 C305 1.355 . S
C304 C306 1.415 . S
C305 C304 1.355 . S
C305 C307 1.419 . S
C306 C304 1.415 . S
C306 C311 1.425 . S
C306 C313 1.409 . S
C307 H299 0.930 . S
C307 C305 1.419 . S
C307 C308 1.362 . S
C308 H300 0.930 . S
C308 C307 1.362 . S
C308 C311 1.409 . S
C309 H301 0.930 . S
C309 C310 1.355 . S
C309 C311 1.415 . S
C310 C309 1.355 . S
C310 C312 1.419 . S
C311 C306 1.425 . S
C311 C308 1.409 . S
C311 C309 1.415 . S
C312 H302 0.930 . S
C312 C310 1.419 . S
C312 C313 1.362 . S
C313 H303 0.930 . S
C313 C306 1.409 . S
C313 C312 1.362 . S
H314 C320 0.930 . S
H315 C323 0.930 . S
H316 C324 0.930 . S
H317 C325 0.930 . S
H318 C328 0.930 . S
H319 C329 0.930 . S
C320 H314 0.930 . S
C320 C321 1.355 . S
C320 C322 1.415 . S
C321 C320 1.355 . S
C321 C323 1.419 . S
C322 C320 1.415 . S
C322 C327 1.425 . S
C322 C329 1.409 . S
C323 H315 0.930 . S
C323 C321 1.419 . S
C323 C324 1.362 . S
C324 H316 0.930 . S
C324 C323 1.362 . S
C324 C327 1.409 . S
C325 H317 0.930 . S
C325 C326 1.355 . S
C325 C327 1.415 . S
C326 C325 1.355 . S
C326 C328 1.419 . S
C327 C322 1.425 . S
C327 C324 1.409 . S
C327 C325 1.415 . S
C328 H318 0.930 . S
C328 C326 1.419 . S
C328 C329 1.362 . S
C329 H319 0.930 . S
C329 C322 1.409 . S
C329 C328 1.362 . S
H330 C336 0.930 . S
H331 C339 0.930 . S
H332 C340 0.930 . S
H333 C341 0.930 . S
H334 C344 0.930 . S
H335 C345 0.930 . S
C336 H330 0.930 . S
C336 C337 1.355 . S
C336 C338 1.415 . S
C337 C336 1.355 . S
C337 C339 1.419 . S
C338 C336 1.415 . S
C338 C343 1.425 . S
C338 C345 1.409 . S
C339 H331 0.930 . S
C339 C337 1.419 . S
C339 C340 1.362 . S
C340 H332 0.930 . S
C340 C339 1.362 . S
C340 C343 1.409 . S
C341 H333 0.930 . S
C341 C342 1.355 . S
C341 C343 1.415 . S
C342 C341 1.355 . S
C342 C344 1.419 . S
C343 C338 1.425 . S
C343 C340 1.409 . S
C343 C341 1.415 . S
C344 H334 0.930 . S
C344 C342 1.419 . S
C344 C345 1.362 . S
C345 H335 0.930 . S
C345 C338 1.409 . S
C345 C344 1.362 . S
H346 C352 0.930 1_655 S
H347 C355 0.930 . S
H348 C356 0.930 . S
H349 C357 0.930 . S
H350 C360 0.930 . S
H351 C361 0.930 . S
C352 H346 0.930 1_455 S
C352 C353 1.355 1_455 S
C352 C354 1.415 . S
C353 C352 1.355 1_655 S
C353 C355 1.419 . S
C354 C352 1.415 . S
C354 C359 1.425 . S
C354 C361 1.409 . S
C355 H347 0.930 . S
C355 C353 1.419 . S
C355 C356 1.362 1_655 S
C356 H348 0.930 . S
C356 C355 1.362 1_455 S
C356 C359 1.409 . S
C357 H349 0.930 . S
C357 C358 1.355 . S
C357 C359 1.415 . S
C358 C357 1.355 . S
C358 C360 1.419 . S
C359 C354 1.425 . S
C359 C356 1.409 . S
C359 C357 1.415 . S
C360 H350 0.930 . S
C360 C358 1.419 . S
C360 C361 1.362 . S
C361 H351 0.930 . S
C361 C354 1.409 . S
C361 C360 1.362 . S
H362 C368 0.930 1_545 S
H363 C371 0.930 . S
H364 C372 0.930 . S
H365 C373 0.930 . S
H366 C376 0.930 . S
H367 C377 0.930 . S
C368 H362 0.930 1_565 S
C368 C369 1.355 1_565 S
C368 C370 1.415 . S
C369 C368 1.355 1_545 S
C369 C371 1.419 . S
C370 C368 1.415 . S
C370 C375 1.425 . S
C370 C377 1.409 . S
C371 H363 0.930 . S
C371 C369 1.419 . S
C371 C372 1.362 1_545 S
C372 H364 0.930 . S
C372 C371 1.362 1_565 S
C372 C375 1.409 . S
C373 H365 0.930 . S
C373 C374 1.355 . S
C373 C375 1.415 . S
C374 C373 1.355 . S
C374 C376 1.419 . S
C375 C370 1.425 . S
C375 C372 1.409 . S
C375 C373 1.415 . S
C376 H366 0.930 . S
C376 C374 1.419 . S
C376 C377 1.362 . S
C377 H367 0.930 . S
C377 C370 1.409 . S
C377 C376 1.362 . S
H378 C384 0.930 . S
H379 C387 0.930 . S
H380 C388 0.930 . S
H381 C389 0.930 . S
H382 C392 0.930 . S
H383 C393 0.930 . S
C384 H378 0.930 . S
C384 C385 1.355 . S
C384 C386 1.415 . S
C385 C384 1.355 . S
C385 C387 1.419 . S
C386 C384 1.415 . S
C386 C391 1.425 . S
C386 C393 1.409 . S
C387 H379 0.930 . S
C387 C385 1.419 . S
C387 C388 1.362 . S
C388 H380 0.930 . S
C388 C387 1.362 . S
C388 C391 1.409 . S
C389 H381 0.930 . S
C389 C390 1.355 . S
C389 C391 1.415 . S
C390 C389 1.355 . S
C390 C392 1.419 . S
C391 C386 1.425 . S
C391 C388 1.409 . S
C391 C389 1.415 . S
C392 H382 0.930 . S
C392 C390 1.419 . S
C392 C393 1.362 . S
C393 H383 0.930 . S
C393 C386 1.409 . S
C393 C392 1.362 . S
H394 C400 0.929 . S
H395 C403 0.930 . S
H396 C404 0.930 . S
H397 C405 0.930 . S
H398 C408 0.930 . S
H399 C409 0.930 . S
C400 H394 0.929 . S
C400 C401 1.367 . S
C400 C402 1.403 1_455 S
C401 C400 1.367 . S
C401 C403 1.419 . S
C402 C400 1.403 1_655 S
C402 C407 1.425 . S
C402 C409 1.409 . S
C403 H395 0.930 . S
C403 C401 1.419 . S
C403 C404 1.362 1_455 S
C404 H396 0.930 . S
C404 C403 1.362 1_655 S
C404 C407 1.409 . S
C405 H397 0.930 . S
C405 C406 1.355 . S
C405 C407 1.415 . S
C406 C405 1.355 . S
C406 C408 1.419 . S
C407 C402 1.425 . S
C407 C404 1.409 . S
C407 C405 1.415 . S
C408 H398 0.930 . S
C408 C406 1.419 . S
C408 C409 1.362 . S
C409 H399 0.930 . S
C409 C402 1.409 . S
C409 C408 1.362 . S
H410 C416 0.930 . S
H411 C419 0.930 . S
H412 C420 0.930 . S
H413 C421 0.942 . S
H414 C424 0.930 . S
H415 C425 0.930 . S
C416 H410 0.930 . S
C416 C417 1.355 . S
C416 C418 1.415 . S
C417 C416 1.355 . S
C417 C419 1.419 . S
C418 C416 1.415 . S
C418 C423 1.425 . S
C418 C425 1.409 . S
C419 H411 0.930 . S
C419 C417 1.419 . S
C419 C420 1.362 . S
C420 H412 0.930 . S
C420 C419 1.362 . S
C420 C423 1.409 . S
C421 H413 0.942 . S
C421 C422 1.357 . S
C421 C423 1.401 1_565 S
C422 C421 1.357 . S
C422 C424 1.419 . S
C423 C418 1.425 . S
C423 C420 1.409 . S
C423 C421 1.401 1_545 S
C424 H414 0.930 . S
C424 C422 1.419 . S
C424 C425 1.362 1_565 S
C425 H415 0.930 . S
C425 C418 1.409 . S
C425 C424 1.362 1_545 S
C145 C111 1.721 . S
C150 C19 1.747 . S
C161 C135 1.749 . S
C166 C43 1.740 . S
C177 C65 1.737 . S
C182 C88 1.722 . S
C193 C20 1.738 . S
C198 C112 1.747 . S
C209 C134 1.747 . S
C214 C42 1.719 . S
C225 C66 1.743 . S
C230 C89 1.750 . S
C241 C18 1.283 . S
C246 C62 1.285 . S
C257 C41 1.281 . S
C262 C16 1.286 . S
C273 C64 1.275 . S
C278 C39 1.286 . S
C289 C87 1.222 . S
C294 C108 1.265 . S
C305 C110 1.237 . S
C310 C131 1.265 . S
C321 C85 1.264 . S
C326 C133 1.233 . S
C337 C21 0.949 . S
C342 C63 1.012 . S
C353 C44 0.963 . S
C358 C17 1.015 . S
C369 C67 0.975 . S
C374 C40 1.004 . S
C385 C90 1.014 . S
C390 C109 0.916 . S
C401 C113 0.994 . S
C406 C132 0.906 . S
C417 C86 0.929 . S
C422 C136 1.012 . S
