# Generated by pormake.
# Topology umb, (4)-cn, num edge types: 1
# Building blocks:
#     Node 0, Type 0, BuildingBlock: KUFVIS_clean_sbu_0, # of connection points: 4
#     Node 1, Type 0, BuildingBlock: KUFVIS_clean_sbu_0, # of connection points: 4
#     Node 2, Type 0, BuildingBlock: KUFVIS_clean_sbu_0, # of connection points: 4
#     Node 3, Type 0, BuildingBlock: KUFVIS_clean_sbu_0, # of connection points: 4
#     Node 4, Type 0, BuildingBlock: KUFVIS_clean_sbu_0, # of connection points: 4
#     Node 5, Type 0, BuildingBlock: KUFVIS_clean_sbu_0, # of connection points: 4
#     Node 6, Type 0, BuildingBlock: KUFVIS_clean_sbu_0, # of connection points: 4
#     Node 7, Type 0, BuildingBlock: KUFVIS_clean_sbu_0, # of connection points: 4
#     Node 8, Type 0, BuildingBlock: KUFVIS_clean_sbu_0, # of connection points: 4
#     Node 9, Type 0, BuildingBlock: KUFVIS_clean_sbu_0, # of connection points: 4
#     Node 10, Type 0, BuildingBlock: KUFVIS_clean_sbu_0, # of connection points: 4
#     Node 11, Type 0, BuildingBlock: KUFVIS_clean_sbu_0, # of connection points: 4
#     Edge 12, Type (0, 0), BuildingBlock: UVAHIK_clean_linker_0, # of connection points: 2
#     Edge 13, Type (0, 0), BuildingBlock: UVAHIK_clean_linker_0, # of connection points: 2
#     Edge 14, Type (0, 0), BuildingBlock: UVAHIK_clean_linker_0, # of connection points: 2
#     Edge 15, Type (0, 0), BuildingBlock: UVAHIK_clean_linker_0, # of connection points: 2
#     Edge 16, Type (0, 0), BuildingBlock: UVAHIK_clean_linker_0, # of connection points: 2
#     Edge 17, Type (0, 0), BuildingBlock: UVAHIK_clean_linker_0, # of connection points: 2
#     Edge 18, Type (0, 0), BuildingBlock: UVAHIK_clean_linker_0, # of connection points: 2
#     Edge 19, Type (0, 0), BuildingBlock: UVAHIK_clean_linker_0, # of connection points: 2
#     Edge 20, Type (0, 0), BuildingBlock: UVAHIK_clean_linker_0, # of connection points: 2
#     Edge 21, Type (0, 0), BuildingBlock: UVAHIK_clean_linker_0, # of connection points: 2
#     Edge 22, Type (0, 0), BuildingBlock: UVAHIK_clean_linker_0, # of connection points: 2
#     Edge 23, Type (0, 0), BuildingBlock: UVAHIK_clean_linker_0, # of connection points: 2
#     Edge 24, Type (0, 0), BuildingBlock: UVAHIK_clean_linker_0, # of connection points: 2
#     Edge 25, Type (0, 0), BuildingBlock: UVAHIK_clean_linker_0, # of connection points: 2
#     Edge 26, Type (0, 0), BuildingBlock: UVAHIK_clean_linker_0, # of connection points: 2
#     Edge 27, Type (0, 0), BuildingBlock: UVAHIK_clean_linker_0, # of connection points: 2
#     Edge 28, Type (0, 0), BuildingBlock: UVAHIK_clean_linker_0, # of connection points: 2
#     Edge 29, Type (0, 0), BuildingBlock: UVAHIK_clean_linker_0, # of connection points: 2
#     Edge 30, Type (0, 0), BuildingBlock: UVAHIK_clean_linker_0, # of connection points: 2
#     Edge 31, Type (0, 0), BuildingBlock: UVAHIK_clean_linker_0, # of connection points: 2
#     Edge 32, Type (0, 0), BuildingBlock: UVAHIK_clean_linker_0, # of connection points: 2
#     Edge 33, Type (0, 0), BuildingBlock: UVAHIK_clean_linker_0, # of connection points: 2
#     Edge 34, Type (0, 0), BuildingBlock: UVAHIK_clean_linker_0, # of connection points: 2
#     Edge 35, Type (0, 0), BuildingBlock: UVAHIK_clean_linker_0, # of connection points: 2
# Relax obj value: 0.259
# Max RMSD: 0.281
# Mean RMSD: 0.281
data_MOF--net-umb--node1-KUFVIS_clean_sbu_0--edge1-UVAHIK_clean_linker_0
_symmetry_space_group_name_H-M    P1
_symmetry_Int_Tables_number       1
_symmetry_cell_setting            triclinic
loop_
_symmetry_equiv_pos_as_xyz
'x, y, z'
_cell_length_a     58.626068
_cell_length_b     58.562746
_cell_length_c     50.67874
_cell_angle_alpha  90.070736
_cell_angle_beta   89.990432
_cell_angle_gamma 120.13097
loop_
_atom_site_label
_atom_site_type_symbol
_atom_site_fract_x
_atom_site_fract_y
_atom_site_fract_z
_atom_type_partial_charge
Mn0 Mn 0.52164 0.1475 0.30783 0.0
Mn1 Mn 0.5847 0.17105 0.3268 0.0
C2 C 0.54877 0.19213 0.31349 0.0
C3 C 0.49353 0.13789 0.27116 0.0
C4 C 0.53841 0.14575 0.36489 0.0
O5 O 0.52686 0.11605 0.30207 0.0
O6 O 0.57002 0.13482 0.31216 0.0
C7 C 0.60762 0.17516 0.27378 0.0
N8 N 0.60731 0.18663 0.29706 0.0
C9 C 0.64359 0.22852 0.28337 0.0
C10 C 0.64444 0.21712 0.25931 0.0
C11 C 0.62634 0.19033 0.25448 0.0
C12 C 0.62458 0.21239 0.30188 0.0
H13 H 0.59364 0.15461 0.26995 0.0
C14 C 0.54814 0.11525 0.30427 0.0
O15 O 0.4839 0.12843 0.29437 0.0
O16 O 0.51881 0.1511 0.26929 0.0
N17 N 0.60178 0.20594 0.34131 0.0
C18 C 0.59767 0.21419 0.36506 0.0
C19 C 0.6142 0.24047 0.373 0.0
C20 C 0.63486 0.25795 0.35651 0.0
C21 C 0.63863 0.24906 0.3321 0.0
C22 C 0.62188 0.22252 0.32549 0.0
H23 H 0.58204 0.20078 0.37795 0.0
O24 O 0.52346 0.18195 0.31341 0.0
O25 O 0.55754 0.17589 0.30986 0.0
O26 O 0.51979 0.14131 0.34855 0.0
O27 O 0.56268 0.15605 0.35845 0.0
C28 C 0.65799 0.26562 0.31384 0.0
C29 C 0.66047 0.25538 0.28948 0.0
H30 H 0.65874 0.22879 0.24432 0.0
H31 H 0.62677 0.18143 0.2359 0.0
H32 H 0.61111 0.24721 0.39184 0.0
H33 H 0.64769 0.27815 0.36277 0.0
H34 H 0.67081 0.28636 0.31823 0.0
H35 H 0.6752 0.26838 0.27544 0.0
Mn36 Mn 0.39064 0.54547 0.65255 0.0
Mn37 Mn 0.45407 0.57834 0.67438 0.0
C38 C 0.40875 0.58801 0.66796 0.0
C39 C 0.361 0.53383 0.61663 0.0
C40 C 0.40853 0.53846 0.70774 0.0
O41 O 0.40558 0.52284 0.63868 0.0
O42 O 0.44799 0.54872 0.6512 0.0
C43 C 0.48042 0.59989 0.62314 0.0
N44 N 0.47598 0.60383 0.64867 0.0
C45 C 0.5058 0.65062 0.64502 0.0
C46 C 0.51082 0.64703 0.61873 0.0
C47 C 0.49802 0.62156 0.60774 0.0
C48 C 0.48814 0.62826 0.65943 0.0
H49 H 0.4706 0.58039 0.61459 0.0
C50 C 0.42967 0.52868 0.63923 0.0
O51 O 0.3542 0.52025 0.6384 0.0
O52 O 0.38499 0.55333 0.61553 0.0
N53 N 0.46318 0.60799 0.69691 0.0
C54 C 0.45563 0.60824 0.72231 0.0
C55 C 0.46617 0.63231 0.73597 0.0
C56 C 0.48469 0.65583 0.72357 0.0
C57 C 0.49267 0.65503 0.69767 0.0
C58 C 0.48158 0.63043 0.68508 0.0
H59 H 0.44155 0.59026 0.73206 0.0
O60 O 0.38341 0.57307 0.66584 0.0
O61 O 0.42306 0.57823 0.65975 0.0
O62 O 0.38977 0.53327 0.69139 0.0
O63 O 0.43294 0.55333 0.70233 0.0
C64 C 0.51083 0.67774 0.68368 0.0
C65 C 0.51734 0.67554 0.65736 0.0
H66 H 0.52431 0.66371 0.60676 0.0
H67 H 0.5017 0.61863 0.58743 0.0
H68 H 0.46 0.63273 0.756 0.0
H69 H 0.49261 0.67439 0.73409 0.0
H70 H 0.51965 0.69703 0.69287 0.0
H71 H 0.53109 0.69318 0.64671 0.0
Mn72 Mn 0.81065 0.3761 0.98605 0.0
Mn73 Mn 0.84697 0.43972 1.00642 0.0
C74 C 0.78975 0.39883 0.99856 0.0
C75 C 0.79225 0.34718 0.94953 0.0
C76 C 0.83414 0.39283 0.04168 0.0
O77 O 0.84822 0.38615 0.97589 0.0
O78 O 0.86881 0.42972 0.98499 0.0
C79 C 0.85585 0.46521 0.95409 0.0
N80 N 0.84719 0.46259 0.97945 0.0
C81 C 0.83552 0.49619 0.97333 0.0
C82 C 0.84458 0.49946 0.94723 0.0
C83 C 0.8547 0.48383 0.93755 0.0
C84 C 0.83721 0.47736 0.98889 0.0
H85 H 0.86349 0.45313 0.94656 0.0
C86 C 0.86837 0.40928 0.97548 0.0
O87 O 0.79611 0.33887 0.97199 0.0
O88 O 0.79993 0.37205 0.94828 0.0
N89 N 0.82873 0.45273 0.02737 0.0
C90 C 0.82021 0.44671 0.05281 0.0
C91 C 0.80897 0.46016 0.06525 0.0
C92 C 0.80708 0.48001 0.05163 0.0
C93 C 0.81665 0.48638 0.02574 0.0
C94 C 0.82776 0.47238 0.0144 0.0
H95 H 0.82179 0.43165 0.06349 0.0
O96 O 0.77667 0.37335 0.9963 0.0
O97 O 0.81446 0.41058 0.99182 0.0
O98 O 0.81886 0.3743 0.02573 0.0
O99 O 0.84684 0.41731 0.03552 0.0
C100 C 0.81516 0.50575 0.01059 0.0
C101 C 0.82452 0.51059 0.98437 0.0
H102 H 0.84366 0.51374 0.93438 0.0
H103 H 0.86157 0.4861 0.91738 0.0
H104 H 0.80178 0.45522 0.08529 0.0
H105 H 0.7982 0.49018 0.06122 0.0
H106 H 0.80657 0.51681 0.01879 0.0
H107 H 0.82298 0.5253 0.97281 0.0
Mn108 Mn 0.44464 0.80175 0.32107 0.0
Mn109 Mn 0.42475 0.84655 0.33095 0.0
C110 C 0.40019 0.7881 0.3202 0.0
C111 C 0.45965 0.78145 0.29058 0.0
C112 C 0.43976 0.82218 0.37573 0.0
O113 O 0.47895 0.83721 0.318 0.0
O114 O 0.46192 0.86414 0.31976 0.0
C115 C 0.42802 0.86334 0.27535 0.0
N116 N 0.41394 0.85398 0.29806 0.0
C117 C 0.37637 0.85391 0.27889 0.0
C118 C 0.39053 0.86373 0.25534 0.0
C119 C 0.41643 0.86835 0.25353 0.0
C120 C 0.38889 0.84911 0.2999 0.0
H121 H 0.44794 0.86694 0.27392 0.0
C122 C 0.48103 0.85989 0.31639 0.0
O123 O 0.46409 0.78167 0.31576 0.0
O124 O 0.44735 0.79355 0.28332 0.0
N125 N 0.38905 0.83329 0.34198 0.0
C126 C 0.37819 0.82415 0.36622 0.0
C127 C 0.3524 0.81871 0.37137 0.0
C128 C 0.33824 0.82331 0.35179 0.0
C129 C 0.3501 0.83354 0.32731 0.0
C130 C 0.37591 0.83869 0.32336 0.0
H131 H 0.38907 0.82095 0.38153 0.0
O132 O 0.40811 0.77113 0.32245 0.0
O133 O 0.41844 0.8126 0.31697 0.0
O134 O 0.44377 0.80603 0.36197 0.0
O135 O 0.43465 0.83914 0.36568 0.0
C136 C 0.33722 0.83855 0.30656 0.0
C137 C 0.35029 0.84858 0.28231 0.0
H138 H 0.38168 0.8677 0.23849 0.0
H139 H 0.42745 0.87583 0.23539 0.0
H140 H 0.34347 0.81101 0.39039 0.0
H141 H 0.31828 0.81889 0.35577 0.0
H142 H 0.31719 0.83457 0.30897 0.0
H143 H 0.34011 0.85214 0.26643 0.0
Mn144 Mn 0.62801 0.44126 0.65389 0.0
Mn145 Mn 0.5645 0.42464 0.66613 0.0
C146 C 0.59507 0.39763 0.65202 0.0
C147 C 0.66271 0.45554 0.62317 0.0
C148 C 0.60476 0.43681 0.70943 0.0
O149 O 0.62903 0.47656 0.65126 0.0
O150 O 0.58554 0.46181 0.65521 0.0
C151 C 0.54907 0.4299 0.61182 0.0
N152 N 0.54489 0.41508 0.63391 0.0
C153 C 0.50597 0.37856 0.61508 0.0
C154 C 0.5098 0.39346 0.59216 0.0
C155 C 0.53148 0.41922 0.59051 0.0
C156 C 0.52419 0.39023 0.63565 0.0
H157 H 0.56565 0.44971 0.61048 0.0
C158 C 0.60924 0.48003 0.6508 0.0
O159 O 0.66728 0.45878 0.64839 0.0
O160 O 0.63825 0.44439 0.61594 0.0
N161 N 0.5412 0.38891 0.67676 0.0
C162 C 0.54008 0.37722 0.70036 0.0
C163 C 0.5195 0.3514 0.70519 0.0
C164 C 0.49997 0.33803 0.68597 0.0
C165 C 0.50106 0.35072 0.66217 0.0
C166 C 0.522 0.37652 0.6585 0.0
H167 H 0.55482 0.38743 0.71538 0.0
O168 O 0.61958 0.40388 0.6541 0.0
O169 O 0.59042 0.41701 0.65003 0.0
O170 O 0.62404 0.43992 0.69484 0.0
O171 O 0.58293 0.43326 0.70025 0.0
C172 C 0.48235 0.33868 0.64183 0.0
C173 C 0.48486 0.35255 0.61826 0.0
H174 H 0.49627 0.3853 0.57568 0.0
H175 H 0.5346 0.43085 0.57289 0.0
H176 H 0.51869 0.34182 0.7237 0.0
H177 H 0.48424 0.31803 0.68969 0.0
H178 H 0.46605 0.31869 0.64404 0.0
H179 H 0.47046 0.34301 0.60269 0.0
Mn180 Mn 0.1681 0.6472 0.99209 0.0
Mn181 Mn 0.18445 0.60161 1.00889 0.0
C182 C 0.21164 0.65993 0.99839 0.0
C183 C 0.16193 0.66875 0.95582 0.0
C184 C 0.16183 0.62469 0.04788 0.0
O185 O 0.13448 0.61246 0.98484 0.0
O186 O 0.14911 0.58394 0.99185 0.0
C187 C 0.18965 0.5847 0.95525 0.0
N188 N 0.20023 0.59446 0.97942 0.0
C189 C 0.24095 0.59647 0.9676 0.0
C190 C 0.23043 0.58625 0.94264 0.0
C191 C 0.20469 0.58041 0.93642 0.0
C192 C 0.225 0.60023 0.98558 0.0
H193 H 0.16993 0.58031 0.95037 0.0
C194 C 0.13132 0.58924 0.98464 0.0
O195 O 0.15278 0.66955 0.97902 0.0
O196 O 0.17311 0.65476 0.95378 0.0
N197 N 0.21827 0.61583 0.02537 0.0
C198 C 0.226 0.62688 0.04977 0.0
C199 C 0.25135 0.63413 0.05894 0.0
C200 C 0.26843 0.6298 0.04302 0.0
C201 C 0.26008 0.61849 0.01796 0.0
C202 C 0.23447 0.61133 0.01002 0.0
H203 H 0.21289 0.63 0.0622 0.0
O204 O 0.20421 0.6773 0.99886 0.0
O205 O 0.19338 0.63568 0.99383 0.0
O206 O 0.16096 0.64181 0.03263 0.0
O207 O 0.16911 0.60846 0.0404 0.0
C208 C 0.27633 0.61447 1.00036 0.0
C209 C 0.26682 0.6036 0.97514 0.0
H210 H 0.24202 0.58304 0.92802 0.0
H211 H 0.19649 0.57266 0.91715 0.0
H212 H 0.25767 0.64293 0.07828 0.0
H213 H 0.28793 0.63533 0.05021 0.0
H214 H 0.29631 0.62 1.00587 0.0
H215 H 0.27965 0.60104 0.9616 0.0
Mn216 Mn 0.8233 0.43286 0.3765 0.0
Mn217 Mn 0.81111 0.3738 0.35291 0.0
C218 C 0.7821 0.40358 0.36098 0.0
C219 C 0.82372 0.45625 0.41451 0.0
C220 C 0.8371 0.42394 0.32019 0.0
O221 O 0.85572 0.43132 0.38797 0.0
O222 O 0.8442 0.39057 0.37379 0.0
C223 C 0.80089 0.34681 0.40454 0.0
N224 N 0.79286 0.34789 0.37958 0.0
C225 C 0.75223 0.30695 0.38556 0.0
C226 C 0.76011 0.30529 0.41127 0.0
C227 C 0.78451 0.32538 0.42083 0.0
C228 C 0.76931 0.32887 0.3703 0.0
H229 H 0.81963 0.3622 0.41195 0.0
C230 C 0.85995 0.41209 0.3857 0.0
O231 O 0.83638 0.46876 0.39332 0.0
O232 O 0.81224 0.43088 0.41381 0.0
N233 N 0.77972 0.35457 0.33236 0.0
C234 C 0.7749 0.35931 0.30724 0.0
C235 C 0.75117 0.34125 0.29485 0.0
C236 C 0.73294 0.31821 0.30817 0.0
C237 C 0.73856 0.31346 0.3338 0.0
C238 C 0.7625 0.33222 0.34516 0.0
H239 H 0.789 0.37678 0.29677 0.0
O240 O 0.78912 0.4281 0.3646 0.0
O241 O 0.79882 0.39631 0.3683 0.0
O242 O 0.83646 0.43982 0.33743 0.0
O243 O 0.82909 0.39955 0.32449 0.0
C244 C 0.72136 0.29091 0.34858 0.0
C245 C 0.72807 0.28777 0.3745 0.0
H246 H 0.74756 0.28875 0.42387 0.0
H247 H 0.7907 0.3243 0.44068 0.0
H248 H 0.74701 0.34498 0.27502 0.0
H249 H 0.71477 0.30432 0.29844 0.0
H250 H 0.70292 0.27583 0.34027 0.0
H251 H 0.71453 0.27049 0.38574 0.0
Mn252 Mn 0.34065 0.81062 0.69855 0.0
Mn253 Mn 0.40604 0.84057 0.68497 0.0
C254 C 0.36163 0.78623 0.69818 0.0
C255 C 0.30806 0.79946 0.73122 0.0
C256 C 0.36407 0.82642 0.64293 0.0
O257 O 0.35304 0.84995 0.70248 0.0
O258 O 0.39697 0.8661 0.69972 0.0
C259 C 0.42744 0.85432 0.73925 0.0
N260 N 0.42584 0.84246 0.71566 0.0
C261 C 0.45784 0.83064 0.72944 0.0
C262 C 0.45994 0.84287 0.75384 0.0
C263 C 0.44457 0.85465 0.7588 0.0
C264 C 0.44033 0.83084 0.71078 0.0
H265 H 0.41575 0.86348 0.74307 0.0
C266 C 0.37693 0.86857 0.70457 0.0
O267 O 0.30279 0.8001 0.70638 0.0
O268 O 0.33198 0.80561 0.73686 0.0
N269 N 0.41794 0.81805 0.67071 0.0
C270 C 0.41286 0.80616 0.64657 0.0
C271 C 0.4264 0.7932 0.63866 0.0
C272 C 0.44532 0.79292 0.65543 0.0
C273 C 0.45041 0.80548 0.68005 0.0
C274 C 0.4364 0.8182 0.68682 0.0
H275 H 0.39868 0.80663 0.63337 0.0
O276 O 0.33614 0.77453 0.6966 0.0
O277 O 0.37406 0.81168 0.70066 0.0
O278 O 0.34357 0.81346 0.65752 0.0
O279 O 0.38756 0.83901 0.65198 0.0
C280 C 0.46857 0.80553 0.6983 0.0
C281 C 0.47219 0.81799 0.72303 0.0
H282 H 0.47314 0.84318 0.76897 0.0
H283 H 0.446 0.86405 0.77762 0.0
H284 H 0.42236 0.78356 0.61961 0.0
H285 H 0.45573 0.78291 0.64925 0.0
H286 H 0.47957 0.79571 0.69367 0.0
H287 H 0.48591 0.81757 0.73705 0.0
Mn288 Mn 0.5089 0.32141 0.02615 0.0
Mn289 Mn 0.53314 0.38679 0.01516 0.0
C290 C 0.55358 0.35048 0.03014 0.0
C291 C 0.49012 0.28626 0.05658 0.0
C292 C 0.5183 0.34659 0.97104 0.0
O293 O 0.47582 0.32478 0.02633 0.0
O294 O 0.49536 0.36914 0.02406 0.0
C295 C 0.52772 0.40205 0.06948 0.0
N296 N 0.54296 0.40546 0.04791 0.0
C297 C 0.58074 0.44191 0.06837 0.0
C298 C 0.56542 0.43891 0.09076 0.0
C299 C 0.53882 0.41882 0.09135 0.0
C300 C 0.56863 0.42451 0.04725 0.0
H301 H 0.50725 0.38667 0.06996 0.0
C302 C 0.47516 0.3462 0.02681 0.0
O303 O 0.48749 0.28192 0.03128 0.0
O304 O 0.50295 0.3107 0.06396 0.0
N305 N 0.56975 0.40717 1.00623 0.0
C306 C 0.58183 0.40742 0.98315 0.0
C307 C 0.60851 0.42637 0.97935 0.0
C308 C 0.62235 0.44521 0.99905 0.0
C309 C 0.60933 0.44503 0.02233 0.0
C310 C 0.58269 0.42574 0.02496 0.0
H311 H 0.57125 0.39324 0.96775 0.0
O312 O 0.54459 0.32535 0.02785 0.0
O313 O 0.53616 0.35796 0.03117 0.0
O314 O 0.51252 0.32623 0.98528 0.0
O315 O 0.52432 0.36915 0.98055 0.0
C316 C 0.62183 0.46301 0.04318 0.0
C317 C 0.60759 0.46136 0.06624 0.0
H318 H 0.5739 0.45183 0.10765 0.0
H319 H 0.52689 0.41632 0.10859 0.0
H320 H 0.61837 0.42646 0.96126 0.0
H321 H 0.64297 0.45968 0.99613 0.0
H322 H 0.64246 0.47802 0.04179 0.0
H323 H 0.61748 0.47513 0.08225 0.0
Mn324 Mn 0.17596 0.5542 0.37502 0.0
Mn325 Mn 0.12906 0.5706 0.36161 0.0
C326 C 0.18772 0.598 0.37217 0.0
C327 C 0.19734 0.54223 0.4072 0.0
C328 C 0.15556 0.55587 0.31892 0.0
O329 O 0.14171 0.51927 0.37963 0.0
O330 O 0.11291 0.53337 0.37263 0.0
C331 C 0.11054 0.56608 0.41672 0.0
N332 N 0.12018 0.58057 0.39426 0.0
C333 C 0.11978 0.61775 0.41397 0.0
C334 C 0.10968 0.60318 0.43726 0.0
C335 C 0.10512 0.57726 0.43866 0.0
C336 C 0.12499 0.60564 0.39283 0.0
H337 H 0.10705 0.54617 0.41791 0.0
C338 C 0.11839 0.51547 0.37839 0.0
O339 O 0.19757 0.53675 0.38235 0.0
O340 O 0.1844 0.55405 0.41323 0.0
N341 N 0.14064 0.60599 0.35053 0.0
C342 C 0.14871 0.61672 0.32606 0.0
C343 C 0.1537 0.64242 0.32116 0.0
C344 C 0.14953 0.65653 0.34118 0.0
C345 C 0.13998 0.64461 0.3658 0.0
C346 C 0.13532 0.61891 0.3695 0.0
H347 H 0.15157 0.60584 0.31045 0.0
O348 O 0.20541 0.59094 0.37179 0.0
O349 O 0.1635 0.57937 0.37638 0.0
O350 O 0.17135 0.55237 0.33388 0.0
O351 O 0.13843 0.56149 0.32751 0.0
C352 C 0.13483 0.65718 0.38678 0.0
C353 C 0.12487 0.64382 0.41089 0.0
H354 H 0.10539 0.61171 0.45419 0.0
H355 H 0.09742 0.56592 0.45659 0.0
H356 H 0.1607 0.65132 0.30198 0.0
H357 H 0.1535 0.67639 0.33737 0.0
H358 H 0.13844 0.67713 0.38457 0.0
H359 H 0.12102 0.6537 0.4269 0.0
Mn360 Mn 0.59982 0.16871 0.69544 0.0
Mn361 Mn 0.53706 0.12702 0.67484 0.0
C362 C 0.57309 0.18531 0.68291 0.0
C363 C 0.62898 0.18944 0.73128 0.0
C364 C 0.58496 0.14408 0.63999 0.0
O365 O 0.59322 0.13247 0.7071 0.0
O366 O 0.54991 0.10837 0.69718 0.0
C367 C 0.51 0.11594 0.72653 0.0
N368 N 0.51232 0.12416 0.70105 0.0
C369 C 0.4744 0.12953 0.70526 0.0
C370 C 0.47149 0.12093 0.7315 0.0
C371 C 0.48943 0.11419 0.7422 0.0
C372 C 0.49527 0.13084 0.6906 0.0
H373 H 0.52374 0.11076 0.7348 0.0
C374 C 0.571 0.11115 0.70759 0.0
O375 O 0.63744 0.18625 0.70862 0.0
O376 O 0.60384 0.1803 0.73306 0.0
N377 N 0.52156 0.14231 0.65301 0.0
C378 C 0.52765 0.15119 0.6277 0.0
C379 C 0.51201 0.15937 0.61433 0.0
C380 C 0.48997 0.15788 0.62692 0.0
C381 C 0.48369 0.14809 0.65273 0.0
C382 C 0.49997 0.14014 0.66504 0.0
H383 H 0.54436 0.15215 0.61776 0.0
O384 O 0.59845 0.20068 0.6845 0.0
O385 O 0.56385 0.16091 0.68981 0.0
O386 O 0.60255 0.16066 0.6559 0.0
O387 O 0.56079 0.1292 0.64627 0.0
C388 C 0.46224 0.14642 0.66693 0.0
C389 C 0.45765 0.13723 0.6932 0.0
H390 H 0.45568 0.11962 0.74366 0.0
H391 H 0.4874 0.10765 0.76247 0.0
H392 H 0.51692 0.16678 0.59436 0.0
H393 H 0.47807 0.16441 0.61662 0.0
H394 H 0.44938 0.15252 0.65797 0.0
H395 H 0.44132 0.13639 0.70404 0.0
Mn396 Mn 0.43615 0.59596 0.04286 0.0
Mn397 Mn 0.37786 0.5536 0.0143 0.0
C398 C 0.4099 0.61133 0.02666 0.0
C399 C 0.45667 0.61616 0.08338 0.0
C400 C 0.42997 0.5771 0.985 0.0
O401 O 0.43143 0.56023 0.05284 0.0
O402 O 0.39196 0.53405 0.03393 0.0
C403 C 0.34768 0.53335 0.06392 0.0
N404 N 0.35079 0.54493 0.03988 0.0
C405 C 0.31098 0.54672 0.04539 0.0
C406 C 0.30723 0.53463 0.07012 0.0
C407 C 0.32573 0.52802 0.07947 0.0
C408 C 0.33329 0.55165 0.03083 0.0
H409 H 0.36185 0.52822 0.07119 0.0
C410 C 0.41189 0.53752 0.04742 0.0
O411 O 0.4707 0.61652 0.06327 0.0
O412 O 0.43153 0.60313 0.08017 0.0
N413 N 0.36126 0.56914 0.99464 0.0
C414 C 0.36802 0.58116 0.97062 0.0
C415 C 0.3519 0.58963 0.95878 0.0
C416 C 0.32867 0.58507 0.97143 0.0
C417 C 0.32174 0.57203 0.99581 0.0
C418 C 0.33868 0.56422 1.00675 0.0
H419 H 0.38566 0.5844 0.96066 0.0
O420 O 0.4345 0.62742 0.03171 0.0
O421 O 0.40082 0.58663 0.03259 0.0
O422 O 0.44535 0.59111 1.00399 0.0
O423 O 0.40493 0.56255 0.98709 0.0
C424 C 0.29878 0.56658 0.00978 0.0
C425 C 0.2935 0.55415 0.03464 0.0
H426 H 0.29029 0.53045 0.08214 0.0
H427 H 0.32304 0.51879 0.09859 0.0
H428 H 0.3573 0.59955 0.93988 0.0
H429 H 0.31631 0.59166 0.96223 0.0
H430 H 0.285 0.57179 1.00159 0.0
H431 H 0.27593 0.55037 0.0453 0.0
C432 C 0.5376 0.1616 0.41008 0.0
C433 C 0.53319 0.14061 0.39342 0.0
C434 C 0.54282 0.16108 0.43702 0.0
C435 C 0.56705 0.12772 0.48315 0.0
H436 H 0.55432 0.1678 0.53612 0.0
C437 C 0.57921 0.12145 0.59675 0.0
C438 C 0.59029 0.14512 0.61128 0.0
C439 C 0.57503 0.12134 0.5695 0.0
C440 C 0.5583 0.15677 0.52146 0.0
H441 H 0.52967 0.1021 0.39206 0.0
H442 H 0.53673 0.10008 0.43931 0.0
H443 H 0.53736 0.16453 0.49154 0.0
H444 H 0.60652 0.18735 0.60835 0.0
H445 H 0.59911 0.18718 0.56073 0.0
H446 H 0.58714 0.11922 0.51367 0.0
C447 C 0.5371 0.1175 0.43162 0.0
C448 C 0.54855 0.15486 0.49577 0.0
C449 C 0.53234 0.11828 0.40457 0.0
C450 C 0.59867 0.16891 0.59762 0.0
C451 C 0.59392 0.16873 0.57043 0.0
C452 C 0.57639 0.12927 0.50898 0.0
C453 C 0.54359 0.13938 0.44811 0.0
C454 C 0.55284 0.14039 0.47607 0.0
C455 C 0.58122 0.14482 0.55623 0.0
C456 C 0.57229 0.14396 0.52842 0.0
H457 H 0.53912 0.17939 0.40187 0.0
H458 H 0.54795 0.17852 0.44864 0.0
H459 H 0.57148 0.11691 0.46866 0.0
H460 H 0.57199 0.10276 0.60683 0.0
H461 H 0.56514 0.10259 0.55921 0.0
C462 C 0.39039 0.54355 0.75029 0.0
C463 C 0.40292 0.53224 0.73617 0.0
C464 C 0.39374 0.54721 0.77771 0.0
C465 C 0.4118 0.52741 0.83912 0.0
H466 H 0.44502 0.60118 0.85907 0.0
C467 C 0.44279 0.55816 0.94768 0.0
C468 C 0.43991 0.57888 0.95783 0.0
C469 C 0.44157 0.55352 0.92036 0.0
C470 C 0.43535 0.5804 0.85419 0.0
H471 H 0.42754 0.51461 0.73997 0.0
H472 H 0.43183 0.5193 0.78809 0.0
H473 H 0.43199 0.58825 0.81341 0.0
H474 H 0.43409 0.61133 0.94733 0.0
H475 H 0.43123 0.60312 0.90019 0.0
H476 H 0.41385 0.51911 0.87982 0.0
C477 C 0.41978 0.52571 0.77789 0.0
C478 C 0.42796 0.57303 0.82783 0.0
C479 C 0.41706 0.52273 0.75038 0.0
C480 C 0.43725 0.59573 0.94002 0.0
C481 C 0.43542 0.59079 0.91279 0.0
C482 C 0.4186 0.53467 0.86565 0.0
C483 C 0.40913 0.53903 0.7917 0.0
C484 C 0.41607 0.54647 0.81998 0.0
C485 C 0.43655 0.56897 0.90247 0.0
C486 C 0.43053 0.56134 0.87374 0.0
H487 H 0.38014 0.55187 0.73984 0.0
H488 H 0.38525 0.55749 0.78785 0.0
H489 H 0.40268 0.50678 0.83365 0.0
H490 H 0.44413 0.5444 0.96098 0.0
H491 H 0.4434 0.53701 0.91348 0.0
C492 C 0.82377 0.43182 0.27631 0.0
C493 C 0.84337 0.43185 0.29228 0.0
C494 C 0.82396 0.42857 0.24889 0.0
C495 C 0.86354 0.43235 0.1912 0.0
H496 H 0.79995 0.37099 0.16565 0.0
C497 C 0.85844 0.39782 0.08359 0.0
C498 C 0.8343 0.38747 0.07019 0.0
C499 C 0.85972 0.40112 0.11106 0.0
C500 C 0.81775 0.38845 0.17212 0.0
H501 H 0.87907 0.42958 0.29199 0.0
H502 H 0.88043 0.42572 0.24389 0.0
H503 H 0.80264 0.38484 0.21144 0.0
H504 H 0.79247 0.3721 0.07509 0.0
H505 H 0.79452 0.37851 0.12266 0.0
H506 H 0.87844 0.43692 0.15196 0.0
C507 C 0.86478 0.42796 0.25259 0.0
C508 C 0.81927 0.39634 0.19853 0.0
C509 C 0.86421 0.43052 0.28008 0.0
C510 C 0.81124 0.37928 0.085 0.0
C511 C 0.81255 0.38323 0.11242 0.0
C512 C 0.86184 0.42486 0.16464 0.0
C513 C 0.84405 0.4258 0.23682 0.0
C514 C 0.8422 0.41833 0.2084 0.0
C515 C 0.83697 0.39507 0.12586 0.0
C516 C 0.83895 0.40265 0.15458 0.0
H517 H 0.80698 0.43183 0.28525 0.0
H518 H 0.80777 0.42706 0.23723 0.0
H519 H 0.88145 0.44942 0.19823 0.0
H520 H 0.8766 0.40474 0.0726 0.0
H521 H 0.87882 0.40942 0.12047 0.0
C522 C 0.42025 0.7952 0.41683 0.0
C523 C 0.43705 0.81975 0.40493 0.0
C524 C 0.41084 0.79392 0.4427 0.0
C525 C 0.39857 0.83596 0.48905 0.0
H526 H 0.38594 0.78268 0.54134 0.0
C527 C 0.37884 0.84693 0.59862 0.0
C528 C 0.36231 0.82445 0.61368 0.0
C529 C 0.38444 0.84464 0.57221 0.0
C530 C 0.38891 0.79747 0.52681 0.0
H531 H 0.45848 0.86197 0.4115 0.0
H532 H 0.44312 0.85977 0.45656 0.0
H533 H 0.40482 0.7818 0.49849 0.0
H534 H 0.33808 0.78188 0.61245 0.0
H535 H 0.34748 0.77779 0.566 0.0
H536 H 0.38292 0.85178 0.5172 0.0
C537 C 0.43649 0.84148 0.44587 0.0
C538 C 0.39988 0.79702 0.50223 0.0
C539 C 0.4457 0.84275 0.42014 0.0
C540 C 0.35031 0.79964 0.6012 0.0
C541 C 0.35618 0.79728 0.57472 0.0
C542 C 0.38764 0.8364 0.5135 0.0
C543 C 0.41803 0.81717 0.45718 0.0
C544 C 0.40533 0.81658 0.48314 0.0
C545 C 0.37393 0.81972 0.56007 0.0
C546 C 0.38301 0.81744 0.53297 0.0
H547 H 0.4127 0.77717 0.40544 0.0
H548 H 0.39666 0.77483 0.45067 0.0
H549 H 0.40168 0.85092 0.47467 0.0
H550 H 0.38884 0.86626 0.60781 0.0
H551 H 0.39838 0.86238 0.56185 0.0
C552 C 0.5375 0.33725 0.93085 0.0
C553 C 0.52136 0.34612 0.942 0.0
C554 C 0.54685 0.34415 0.9048 0.0
C555 C 0.57906 0.37913 0.85786 0.0
H556 H 0.53708 0.3877 0.80394 0.0
C557 C 0.61349 0.41604 0.74876 0.0
C558 C 0.60488 0.43273 0.73839 0.0
C559 C 0.60551 0.40501 0.77412 0.0
C560 C 0.54919 0.38564 0.81883 0.0
H561 H 0.50145 0.36809 0.93424 0.0
H562 H 0.51709 0.37963 0.8892 0.0
H563 H 0.51649 0.3659 0.84517 0.0
H564 H 0.583 0.45254 0.74735 0.0
H565 H 0.56971 0.43396 0.79137 0.0
H566 H 0.61179 0.39895 0.83108 0.0
C567 C 0.52258 0.36725 0.90016 0.0
C568 C 0.53734 0.37307 0.84254 0.0
C569 C 0.51349 0.36057 0.92607 0.0
C570 C 0.59003 0.43982 0.75474 0.0
C571 C 0.58209 0.42885 0.77987 0.0
C572 C 0.59093 0.3916 0.8339 0.0
C573 C 0.54005 0.35987 0.88932 0.0
C574 C 0.55217 0.37016 0.86273 0.0
C575 C 0.5887 0.4104 0.78947 0.0
C576 C 0.57625 0.3956 0.81436 0.0
H577 H 0.54443 0.32664 0.94283 0.0
H578 H 0.56003 0.33785 0.89708 0.0
H579 H 0.59124 0.37749 0.87294 0.0
H580 H 0.62447 0.40976 0.7365 0.0
H581 H 0.61102 0.39093 0.78094 0.0
C582 C 0.13572 0.54469 0.27395 0.0
C583 C 0.15848 0.55701 0.28979 0.0
C584 C 0.13651 0.55171 0.2474 0.0
C585 C 0.17177 0.60882 0.20368 0.0
H586 H 0.13494 0.55857 0.1476 0.0
C587 C 0.17706 0.64027 0.09362 0.0
C588 C 0.15643 0.62383 0.07649 0.0
C589 C 0.1766 0.63339 0.12025 0.0
C590 C 0.14489 0.57302 0.16303 0.0
H591 H 0.20011 0.58602 0.28992 0.0
H592 H 0.20155 0.59851 0.24343 0.0
H593 H 0.13698 0.54276 0.19141 0.0
H594 H 0.11854 0.58805 0.07411 0.0
H595 H 0.1166 0.577 0.12077 0.0
H596 H 0.17909 0.63911 0.17565 0.0
C597 C 0.18309 0.58318 0.25158 0.0
C598 C 0.14628 0.56385 0.1882 0.0
C599 C 0.18239 0.57572 0.27808 0.0
C600 C 0.13444 0.60143 0.08699 0.0
C601 C 0.13372 0.59476 0.11368 0.0
C602 C 0.17009 0.61803 0.17857 0.0
C603 C 0.15999 0.57173 0.23609 0.0
C604 C 0.15974 0.58159 0.20888 0.0
C605 C 0.15535 0.60992 0.1305 0.0
C606 C 0.15656 0.60029 0.15776 0.0
H607 H 0.1169 0.53064 0.28257 0.0
H608 H 0.11832 0.54257 0.23619 0.0
H609 H 0.18193 0.62305 0.21926 0.0
H610 H 0.19466 0.65719 0.08588 0.0
H611 H 0.1938 0.6456 0.13222 0.0
C612 C 0.74666 0.39312 0.32885 0.0
C613 C 0.75556 0.38586 0.35125 0.0
C614 C 0.72024 0.37871 0.32143 0.0
C615 C 0.66687 0.33507 0.30237 0.0
H616 H 0.61572 0.30189 0.35831 0.0
C617 C 0.58347 0.23217 0.29147 0.0
C618 C 0.56536 0.22074 0.31203 0.0
C619 C 0.60051 0.25936 0.29098 0.0
C620 C 0.62914 0.3114 0.34207 0.0
H621 H 0.74418 0.35924 0.38445 0.0
H622 H 0.6982 0.33278 0.37073 0.0
H623 H 0.65951 0.33631 0.36896 0.0
H624 H 0.54627 0.22832 0.34462 0.0
H625 H 0.5752 0.27604 0.34339 0.0
H626 H 0.63644 0.31066 0.27534 0.0
C627 C 0.71141 0.34977 0.35897 0.0
C628 C 0.65467 0.33089 0.34842 0.0
C629 C 0.73777 0.3644 0.36651 0.0
C630 C 0.56146 0.23688 0.32962 0.0
C631 C 0.57809 0.26418 0.32886 0.0
C632 C 0.64108 0.31598 0.29589 0.0
C633 C 0.70229 0.35702 0.33655 0.0
C634 C 0.67421 0.34147 0.3289 0.0
C635 C 0.59923 0.27561 0.31082 0.0
C636 C 0.62248 0.30225 0.3159 0.0
H637 H 0.76013 0.41022 0.31733 0.0
H638 H 0.7138 0.38493 0.30425 0.0
H639 H 0.68138 0.34331 0.28674 0.0
H640 H 0.58533 0.21996 0.27652 0.0
H641 H 0.61596 0.26694 0.2763 0.0
C642 C 0.3703 0.7526 0.67922 0.0
C643 C 0.37481 0.77083 0.69918 0.0
C644 C 0.38408 0.73903 0.67918 0.0
C645 C 0.42252 0.7191 0.72086 0.0
H646 H 0.43642 0.70084 0.65158 0.0
C647 C 0.43703 0.6361 0.66093 0.0
C648 C 0.41962 0.61511 0.67695 0.0
C649 C 0.44459 0.66196 0.66798 0.0
C650 C 0.43368 0.70625 0.67125 0.0
H651 H 0.39429 0.78719 0.73641 0.0
H652 H 0.41921 0.76391 0.73615 0.0
H653 H 0.42338 0.73356 0.65558 0.0
H654 H 0.39594 0.60387 0.71237 0.0
H655 H 0.4073 0.64849 0.72386 0.0
H656 H 0.43312 0.69186 0.73653 0.0
C657 C 0.40547 0.76034 0.72026 0.0
C658 C 0.42559 0.72475 0.67347 0.0
C659 C 0.39149 0.77383 0.72031 0.0
C660 C 0.40981 0.62003 0.70006 0.0
C661 C 0.41678 0.64574 0.70681 0.0
C662 C 0.43131 0.70103 0.71872 0.0
C663 C 0.40252 0.74344 0.6992 0.0
C664 C 0.41791 0.72975 0.69803 0.0
C665 C 0.43359 0.66701 0.69039 0.0
C666 C 0.43481 0.69277 0.6937 0.0
H667 H 0.35677 0.74952 0.66322 0.0
H668 H 0.38035 0.72518 0.66332 0.0
H669 H 0.41734 0.72297 0.7402 0.0
H670 H 0.44414 0.63245 0.64257 0.0
H671 H 0.45794 0.6778 0.65511 0.0
C672 C 0.5974 0.36743 0.01044 0.0
C673 C 0.58197 0.36856 0.03081 0.0
C674 C 0.62449 0.38447 0.01046 0.0
C675 C 0.67892 0.42931 1.00659 0.0
H676 H 0.71797 0.43175 0.06909 0.0
C677 C 0.77444 0.43106 0.99213 0.0
C678 C 0.77613 0.41238 1.00791 0.0
C679 C 0.75816 0.44099 0.99965 0.0
C680 C 0.70741 0.43132 0.0514 0.0
H681 H 0.58228 0.386 0.06856 0.0
H682 H 0.6302 0.41645 0.06862 0.0
H683 H 0.6713 0.41705 0.07268 0.0
H684 H 0.76232 0.38892 0.04339 0.0
H685 H 0.73264 0.40442 0.0557 0.0
H686 H 0.71356 0.43988 0.98461 0.0
C687 C 0.6213 0.40288 0.05227 0.0
C688 C 0.68067 0.42327 0.05356 0.0
C689 C 0.594 0.3857 0.05218 0.0
C690 C 0.76156 0.40374 0.03124 0.0
C691 C 0.74486 0.41311 0.03847 0.0
C692 C 0.70532 0.43643 1.00428 0.0
C693 C 0.63674 0.40282 0.03105 0.0
C694 C 0.66577 0.42006 0.03076 0.0
C695 C 0.7422 0.43125 0.02235 0.0
C696 C 0.71922 0.43517 0.02634 0.0
H697 H 0.58841 0.35366 0.99422 0.0
H698 H 0.63586 0.38295 0.99441 0.0
H699 H 0.66815 0.42836 0.98886 0.0
H700 H 0.78508 0.43736 0.97363 0.0
H701 H 0.75718 0.45531 0.98695 0.0
C702 C 0.35964 0.76536 0.34641 0.0
C703 C 0.37228 0.77927 0.32357 0.0
C704 C 0.33298 0.75624 0.35013 0.0
C705 C 0.27205 0.73585 0.31335 0.0
H706 H 0.24769 0.71798 0.38544 0.0
C707 C 0.1947 0.64301 0.38108 0.0
C708 C 0.19554 0.62476 0.36382 0.0
C709 C 0.20617 0.66957 0.3737 0.0
C710 C 0.25345 0.72319 0.36507 0.0
H711 H 0.36718 0.7929 0.28559 0.0
H712 H 0.32015 0.77736 0.29218 0.0
H713 H 0.29097 0.75503 0.37686 0.0
H714 H 0.20886 0.61925 0.32588 0.0
H715 H 0.22975 0.66496 0.31338 0.0
H716 H 0.23426 0.70451 0.30151 0.0
C717 C 0.33087 0.77386 0.30751 0.0
C718 C 0.27868 0.74428 0.36018 0.0
C719 C 0.35773 0.78291 0.30376 0.0
C720 C 0.20761 0.63307 0.3392 0.0
C721 C 0.21923 0.65939 0.33194 0.0
C722 C 0.24633 0.71557 0.31819 0.0
C723 C 0.31822 0.76066 0.33095 0.0
C724 C 0.28928 0.74849 0.33457 0.0
C725 C 0.21945 0.6783 0.34935 0.0
C726 C 0.2382 0.70678 0.34419 0.0
H727 H 0.37051 0.76174 0.36155 0.0
H728 H 0.32387 0.74504 0.36785 0.0
H729 H 0.27908 0.7392 0.29319 0.0
H730 H 0.18587 0.6369 0.40044 0.0
H731 H 0.20561 0.68335 0.38756 0.0
C732 C 0.55715 0.35868 0.63088 0.0
C733 C 0.57452 0.36995 0.65221 0.0
C734 C 0.53829 0.33177 0.63108 0.0
C735 C 0.51111 0.27288 0.67562 0.0
H736 H 0.51897 0.23862 0.61386 0.0
C737 C 0.53588 0.19314 0.69141 0.0
C738 C 0.55642 0.19605 0.67509 0.0
C739 C 0.52066 0.20435 0.68425 0.0
C740 C 0.51656 0.24783 0.63136 0.0
H741 H 0.58739 0.36255 0.68953 0.0
H742 H 0.5553 0.31583 0.68989 0.0
H743 H 0.52551 0.28274 0.61004 0.0
H744 H 0.57844 0.21375 0.63947 0.0
H745 H 0.55367 0.23503 0.62774 0.0
H746 H 0.5067 0.24034 0.69789 0.0
C747 C 0.55488 0.32752 0.67355 0.0
C748 C 0.51976 0.273 0.62903 0.0
C749 C 0.57361 0.35418 0.67325 0.0
C750 C 0.56224 0.21091 0.652 0.0
C751 C 0.5475 0.22261 0.64508 0.0
C752 C 0.50916 0.2483 0.67819 0.0
C753 C 0.53689 0.31592 0.65255 0.0
C754 C 0.52009 0.28682 0.65181 0.0
C755 C 0.52661 0.2198 0.66123 0.0
C756 C 0.51505 0.23704 0.65656 0.0
H757 H 0.55827 0.37064 0.61409 0.0
H758 H 0.52505 0.32336 0.61443 0.0
H759 H 0.50965 0.2826 0.69323 0.0
H760 H 0.5317 0.1823 0.70977 0.0
H761 H 0.50469 0.20136 0.69714 0.0
C762 C 0.24907 0.66124 0.97493 0.0
C763 C 0.23966 0.6689 0.99651 0.0
C764 C 0.27551 0.66837 0.9737 0.0
C765 C 0.33075 0.67969 0.9755 0.0
H766 H 0.35006 0.672 0.04665 0.0
C767 C 0.40216 0.64114 0.99861 0.0
C768 C 0.39358 0.62245 0.01896 0.0
C769 C 0.38924 0.65522 0.99382 0.0
C770 C 0.34493 0.67413 0.02663 0.0
H771 H 0.25054 0.69421 0.03082 0.0
H772 H 0.2972 0.70759 0.02852 0.0
H773 H 0.31856 0.68631 0.04016 0.0
H774 H 0.36608 0.60453 0.05119 0.0
H775 H 0.34228 0.62786 0.04195 0.0
H776 H 0.35537 0.6647 0.96237 0.0
C777 C 0.28407 0.69452 0.01343 0.0
C778 C 0.32717 0.68295 0.02277 0.0
C779 C 0.25743 0.68691 0.01484 0.0
C780 C 0.37223 0.61814 0.03473 0.0
C781 C 0.35913 0.63197 0.02981 0.0
C782 C 0.34816 0.67032 0.97942 0.0
C783 C 0.29311 0.68386 0.99384 0.0
C784 C 0.31841 0.68407 0.9972 0.0
C785 C 0.36781 0.65101 0.00961 0.0
C786 C 0.35414 0.66603 1.00509 0.0
H787 H 0.23572 0.64868 0.95964 0.0
H788 H 0.28135 0.65978 0.95807 0.0
H789 H 0.32552 0.68154 0.95546 0.0
H790 H 0.41918 0.64518 0.98678 0.0
H791 H 0.39646 0.66987 0.97828 0.0
C792 C 0.52352 0.06589 0.30169 0.0
C793 C 0.54739 0.08992 0.29959 0.0
C794 C 0.52337 0.04197 0.30129 0.0
C795 C 0.55869 0.00815 0.28189 0.0
H796 H 0.52202 0.96306 0.34149 0.0
C797 C 0.50981 0.89525 0.28592 0.0
C798 C 0.50643 0.88347 0.31078 0.0
C799 C 0.52495 0.92267 0.2833 0.0
C800 C 0.53284 0.97558 0.325 0.0
H801 H 0.5896 0.1076 0.2936 0.0
H802 H 0.58912 0.06559 0.29238 0.0
H803 H 0.52566 0.00615 0.33803 0.0
H804 H 0.51864 0.89031 0.35163 0.0
H805 H 0.54574 0.93818 0.34702 0.0
H806 H 0.56483 0.97686 0.26832 0.0
C807 C 0.57067 0.06542 0.29467 0.0
C808 C 0.53454 0.0001 0.32283 0.0
C809 C 0.57089 0.08941 0.29547 0.0
C810 C 0.52133 0.89896 0.33218 0.0
C811 C 0.53649 0.92639 0.32959 0.0
C812 C 0.55665 0.98331 0.28385 0.0
C813 C 0.54701 0.04156 0.29836 0.0
C814 C 0.54698 0.01638 0.30104 0.0
C815 C 0.53673 0.93859 0.30561 0.0
C816 C 0.54336 0.96662 0.30528 0.0
H817 H 0.50509 0.06557 0.3049 0.0
H818 H 0.50482 0.02375 0.30388 0.0
H819 H 0.56848 0.02047 0.26494 0.0
H820 H 0.49812 0.88367 0.26926 0.0
H821 H 0.52472 0.93143 0.26456 0.0
C822 C 0.44964 0.52513 0.59815 0.0
C823 C 0.43874 0.51423 0.62283 0.0
C824 C 0.47033 0.52249 0.58792 0.0
C825 C 0.52819 0.53834 0.60086 0.0
H826 H 0.53893 0.47844 0.59478 0.0
C827 C 0.60166 0.5175 0.65266 0.0
C828 C 0.61148 0.50367 0.63854 0.0
C829 C 0.58714 0.52704 0.63964 0.0
C830 C 0.53631 0.49548 0.59568 0.0
H831 H 0.43831 0.48942 0.65457 0.0
H832 H 0.4733 0.48329 0.63587 0.0
H833 H 0.49435 0.47174 0.59086 0.0
H834 H 0.61787 0.49284 0.59957 0.0
H835 H 0.59171 0.50866 0.57693 0.0
H836 H 0.56968 0.5615 0.60897 0.0
C837 C 0.46621 0.49421 0.62463 0.0
C838 C 0.51083 0.49157 0.59354 0.0
C839 C 0.44602 0.49748 0.63523 0.0
C840 C 0.61069 0.50371 0.61084 0.0
C841 C 0.59544 0.51244 0.59787 0.0
C842 C 0.55358 0.54212 0.60372 0.0
C843 C 0.4797 0.50822 0.60191 0.0
C844 C 0.5065 0.51284 0.59696 0.0
C845 C 0.58199 0.52236 0.61251 0.0
C846 C 0.55767 0.52056 0.60199 0.0
H847 H 0.44456 0.53849 0.5885 0.0
H848 H 0.48053 0.53351 0.57043 0.0
H849 H 0.52521 0.55496 0.604 0.0
H850 H 0.60177 0.51743 0.67405 0.0
H851 H 0.5769 0.5346 0.65135 0.0
C852 C 0.90795 0.40498 0.98087 0.0
C853 C 0.89361 0.41336 0.96557 0.0
C854 C 0.9353 0.41705 0.97786 0.0
C855 C -0.00659 0.46509 0.93917 0.0
H856 H 0.02066 0.49786 1.00729 0.0
C857 C 0.10313 0.54324 0.96743 0.0
C858 C 0.10534 0.56685 0.97703 0.0
C859 C 0.07834 0.52119 0.96262 0.0
C860 C 0.01336 0.48863 0.98824 0.0
H861 H 0.89561 0.43863 0.9335 0.0
H862 H 0.94322 0.45923 0.92768 0.0
H863 H 0.97548 0.46114 1.00383 0.0
H864 H 0.08341 0.58603 0.98852 0.0
H865 H 0.04005 0.54715 0.98082 0.0
H866 H 0.03144 0.49333 0.92366 0.0
C867 C 0.93358 0.44348 0.94199 0.0
C868 C -0.01234 0.46746 0.98627 0.0
C869 C 0.90635 0.43172 0.94529 0.0
C870 C 0.08234 0.56818 0.98103 0.0
C871 C 0.05758 0.54598 0.97675 0.0
C872 C 0.01941 0.48603 0.94125 0.0
C873 C 0.94847 0.43742 0.95932 0.0
C874 C 0.97719 0.45591 0.96163 0.0
C875 C 0.05543 0.52227 0.96785 0.0
C876 C 0.02922 0.49838 0.96571 0.0
H877 H 0.8985 0.39115 0.99691 0.0
H878 H 0.94638 0.412 0.9914 0.0
H879 H 0.98571 0.4566 0.91994 0.0
H880 H 0.12055 0.5417 0.96405 0.0
H881 H 0.07702 0.50303 0.95578 0.0
C882 C 0.0895 0.48258 0.41144 0.0
C883 C 0.09581 0.48965 0.38489 0.0
C884 C 0.06358 0.46415 0.41858 0.0
C885 C 0.00707 0.45163 0.42535 0.0
H886 H 0.95578 0.3964 0.37997 0.0
C887 C 0.90626 0.43991 0.40241 0.0
C888 C 0.88494 0.41495 0.39591 0.0
C889 C 0.93086 0.4429 0.40854 0.0
C890 C 0.96969 0.41138 0.39331 0.0
H891 H 0.08119 0.48182 0.34485 0.0
H892 H 0.03625 0.44946 0.357 0.0
H893 H 0.00203 0.40899 0.37678 0.0
H894 H 0.87218 0.37322 0.39294 0.0
H895 H 0.91497 0.37846 0.40392 0.0
H896 H 0.97486 0.45464 0.44125 0.0
C897 C 0.05098 0.4577 0.37245 0.0
C898 C -0.00373 0.41871 0.39132 0.0
C899 C 0.07675 0.47622 0.3654 0.0
C900 C 0.88832 0.39283 0.39738 0.0
C901 C 0.91286 0.39581 0.40365 0.0
C902 C 0.98048 0.44423 0.4274 0.0
C903 C 0.04375 0.45262 0.3992 0.0
C904 C 0.01541 0.43977 0.40642 0.0
C905 C 0.93463 0.42097 0.4085 0.0
C906 C 0.96166 0.42487 0.41055 0.0
H907 H 0.10389 0.49316 0.42678 0.0
H908 H 0.05865 0.46044 0.43932 0.0
H909 H 0.02126 0.46804 0.4372 0.0
H910 H 0.90434 0.45735 0.40151 0.0
H911 H 0.94725 0.46264 0.41188 0.0
C912 C 0.56678 0.06741 0.70858 0.0
C913 C 0.56746 0.08833 0.72263 0.0
C914 C 0.54807 0.04141 0.71503 0.0
C915 C 0.48718 0.00146 0.75681 0.0
H916 H 0.45898 0.97071 0.68839 0.0
C917 C 0.39411 0.90011 0.74086 0.0
C918 C 0.38325 0.89421 0.7154 0.0
C919 C 0.41431 0.92556 0.74696 0.0
C920 C 0.46613 0.97929 0.70768 0.0
H921 H 0.55337 0.09888 0.75732 0.0
H922 H 0.5199 0.05411 0.76777 0.0
H923 H 0.5028 0.00781 0.69134 0.0
H924 H 0.38109 0.91071 0.67804 0.0
H925 H 0.41437 0.95582 0.68948 0.0
H926 H 0.44945 0.97359 0.77275 0.0
C927 C 0.5335 0.05706 0.75194 0.0
C928 C 0.49188 0.00023 0.70952 0.0
C929 C 0.5529 0.08291 0.74605 0.0
C930 C 0.38919 0.91486 0.69784 0.0
C931 C 0.40881 0.94055 0.70421 0.0
C932 C 0.46106 0.98068 0.75489 0.0
C933 C 0.52925 0.03628 0.73492 0.0
C934 C 0.50292 0.01169 0.73407 0.0
C935 C 0.42335 0.9456 0.72781 0.0
C936 C 0.45014 0.96937 0.73022 0.0
H937 H 0.57799 0.07115 0.69051 0.0
H938 H 0.54638 0.02571 0.70241 0.0
H939 H 0.4949 0.00961 0.77611 0.0
H940 H 0.38973 0.88434 0.75471 0.0
H941 H 0.42464 0.92854 0.76546 0.0
C942 C 0.43736 0.51472 0.05721 0.0
C943 C 0.41298 0.51362 0.05461 0.0
C944 C 0.43844 0.49144 0.05837 0.0
C945 C 0.40155 0.41967 0.0687 0.0
H946 H 0.44673 0.41934 0.01299 0.0
C947 C 0.44546 0.35088 0.05762 0.0
C948 C 0.45047 0.34596 0.03178 0.0
C949 C 0.43205 0.36467 0.06199 0.0
C950 C 0.43371 0.41893 0.02838 0.0
H951 H 0.37055 0.48743 0.05372 0.0
H952 H 0.37255 0.44682 0.05615 0.0
H953 H 0.4439 0.4588 0.02067 0.0
H954 H 0.44281 0.34839 0.99047 0.0
H955 H 0.4187 0.37176 0.99803 0.0
H956 H 0.39202 0.37978 0.07676 0.0
C957 C 0.39074 0.46563 0.05699 0.0
C958 C 0.43246 0.4417 0.03306 0.0
C959 C 0.38965 0.48888 0.05546 0.0
C960 C 0.43877 0.35161 0.01058 0.0
C961 C 0.42532 0.36531 0.01491 0.0
C962 C 0.40316 0.39687 0.06429 0.0
C963 C 0.41517 0.46671 0.05735 0.0
C964 C 0.41654 0.4424 0.05334 0.0
C965 C 0.42366 0.37371 0.04049 0.0
C966 C 0.41924 0.39632 0.04401 0.0
H967 H 0.45566 0.53345 0.05661 0.0
H968 H 0.45753 0.49273 0.0589 0.0
H969 H 0.38903 0.41975 0.08439 0.0
H970 H 0.45483 0.34717 0.0742 0.0
H971 H 0.43109 0.3709 0.0819 0.0
C972 C 0.46206 0.15035 0.25211 0.0
C973 C 0.47793 0.1389 0.24868 0.0
C974 C 0.45572 0.16109 0.23045 0.0
C975 C 0.45563 0.16604 0.1573 0.0
H976 H 0.48146 0.24025 0.17028 0.0
C977 C 0.48067 0.24129 0.07155 0.0
C978 C 0.48053 0.26481 0.07652 0.0
C979 C 0.47542 0.22302 0.09194 0.0
C980 C 0.47346 0.21948 0.16616 0.0
H981 H 0.49787 0.12789 0.21978 0.0
H982 H 0.48573 0.14536 0.18192 0.0
H983 H 0.4783 0.21185 0.2065 0.0
H984 H 0.47306 0.28682 0.10623 0.0
H985 H 0.46219 0.25452 0.14107 0.0
H986 H 0.45051 0.17349 0.11699 0.0
C987 C 0.47836 0.14633 0.20125 0.0
C988 C 0.47175 0.20314 0.18713 0.0
C989 C 0.48517 0.13614 0.22293 0.0
C990 C 0.47359 0.26898 0.10185 0.0
C991 C 0.46768 0.25049 0.12199 0.0
C992 C 0.45682 0.1823 0.13632 0.0
C993 C 0.46471 0.16011 0.20491 0.0
C994 C 0.46318 0.17631 0.18295 0.0
C995 C 0.46933 0.22756 0.1177 0.0
C996 C 0.46615 0.20945 0.14029 0.0
H997 H 0.45676 0.15335 0.27176 0.0
H998 H 0.44504 0.17147 0.23388 0.0
H999 H 0.44893 0.14543 0.15344 0.0
H1000 H 0.4862 0.23765 0.05227 0.0
H1001 H 0.47725 0.20591 0.08762 0.0
C1002 C 0.20393 0.53396 0.45441 0.0
C1003 C 0.21182 0.53643 0.42788 0.0
C1004 C 0.21839 0.53044 0.47443 0.0
C1005 C 0.27416 0.51662 0.48633 0.0
H1006 H 0.27378 0.54454 0.55564 0.0
C1007 C 0.35184 0.53783 0.56894 0.0
C1008 C 0.34223 0.52892 0.59456 0.0
C1009 C 0.33479 0.53581 0.54849 0.0
C1010 C 0.27391 0.53641 0.53647 0.0
H1011 H 0.2412 0.53703 0.40162 0.0
H1012 H 0.26725 0.53226 0.43644 0.0
H1013 H 0.24724 0.54755 0.52046 0.0
H1014 H 0.30698 0.51069 0.61865 0.0
H1015 H 0.27722 0.50789 0.58304 0.0
H1016 H 0.3022 0.50695 0.50244 0.0
C1017 C 0.24933 0.53206 0.44197 0.0
C1018 C 0.25848 0.53795 0.51613 0.0
C1019 C 0.23443 0.53495 0.42183 0.0
C1020 C 0.315 0.51754 0.59912 0.0
C1021 C 0.29799 0.5161 0.57877 0.0
C1022 C 0.29005 0.51564 0.50656 0.0
C1023 C 0.24173 0.52999 0.46874 0.0
C1024 C 0.2582 0.52803 0.49063 0.0
C1025 C 0.30772 0.5254 0.55324 0.0
C1026 C 0.29008 0.52547 0.53191 0.0
H1027 H 0.18646 0.53477 0.45976 0.0
H1028 H 0.2111 0.52811 0.49443 0.0
H1029 H 0.27435 0.50822 0.46737 0.0
H1030 H 0.37272 0.54676 0.56475 0.0
H1031 H 0.34295 0.54329 0.52914 0.0
C1032 C 0.76857 0.30208 0.92737 0.0
C1033 C 0.77815 0.32945 0.9267 0.0
C1034 C 0.75368 0.28576 0.90618 0.0
C1035 C 0.71057 0.28366 0.8518 0.0
H1036 H 0.72051 0.22842 0.82157 0.0
C1037 C 0.63661 0.20892 0.7768 0.0
C1038 C 0.64683 0.20351 0.75402 0.0
C1039 C 0.65305 0.22301 0.79798 0.0
C1040 C 0.71755 0.24384 0.82974 0.0
H1041 H 0.78001 0.36103 0.90271 0.0
H1042 H 0.75423 0.33285 0.86634 0.0
H1043 H 0.74861 0.2552 0.85831 0.0
H1044 H 0.68253 0.20832 0.73609 0.0
H1045 H 0.71134 0.23286 0.77333 0.0
H1046 H 0.67965 0.27252 0.82347 0.0
C1047 C 0.75796 0.32385 0.88321 0.0
C1048 C 0.7335 0.25902 0.85096 0.0
C1049 C 0.77294 0.34007 0.90411 0.0
C1050 C 0.67398 0.21215 0.75328 0.0
C1051 C 0.69047 0.22611 0.77469 0.0
C1052 C 0.69449 0.26835 0.83092 0.0
C1053 C 0.74777 0.29642 0.88402 0.0
C1054 C 0.73034 0.2793 0.86213 0.0
C1055 C 0.68025 0.23203 0.7972 0.0
C1056 C 0.69775 0.24825 0.8195 0.0
H1057 H 0.77217 0.29321 0.94443 0.0
H1058 H 0.74609 0.2647 0.9075 0.0
H1059 H 0.70736 0.2989 0.86001 0.0
H1060 H 0.61582 0.20254 0.77821 0.0
H1061 H 0.64437 0.22684 0.81507 0.0
C1062 C 0.45204 0.62369 0.13096 0.0
C1063 C 0.46745 0.63211 0.10789 0.0
C1064 C 0.45753 0.64075 0.1524 0.0
C1065 C 0.48808 0.71213 0.16687 0.0
H1066 H 0.46914 0.68699 0.23873 0.0
C1067 C 0.4611 0.76763 0.24394 0.0
C1068 C 0.46678 0.76706 0.27084 0.0
C1069 C 0.46593 0.75293 0.22522 0.0
C1070 C 0.4749 0.69459 0.2189 0.0
H1071 H 0.50162 0.66492 0.08987 0.0
H1072 H 0.51163 0.69487 0.12764 0.0
H1073 H 0.47086 0.65812 0.20514 0.0
H1074 H 0.48264 0.75078 0.29891 0.0
H1075 H 0.49143 0.7253 0.26617 0.0
H1076 H 0.4922 0.74862 0.18063 0.0
C1077 C 0.49502 0.67497 0.12899 0.0
C1078 C 0.47559 0.67784 0.19945 0.0
C1079 C 0.48958 0.65769 0.10746 0.0
C1080 C 0.47799 0.75171 0.2784 0.0
C1081 C 0.48285 0.73693 0.25958 0.0
C1082 C 0.48745 0.7289 0.18633 0.0
C1083 C 0.47857 0.66697 0.1515 0.0
C1084 C 0.48157 0.68608 0.17297 0.0
C1085 C 0.47668 0.73714 0.23268 0.0
C1086 C 0.48022 0.72022 0.21256 0.0
H1087 H 0.43472 0.60418 0.1319 0.0
H1088 H 0.44416 0.63374 0.16904 0.0
H1089 H 0.49261 0.71929 0.14678 0.0
H1090 H 0.45237 0.77911 0.23729 0.0
H1091 H 0.46041 0.75339 0.20492 0.0
C1092 C 0.70725 0.46306 0.60927 0.0
C1093 C 0.68397 0.46326 0.60327 0.0
C1094 C 0.72592 0.46771 0.58951 0.0
C1095 C 0.73223 0.46933 0.51537 0.0
H1096 H 0.80572 0.49455 0.53147 0.0
C1097 C 0.8074 0.48491 0.43348 0.0
C1098 C 0.81864 0.46889 0.43733 0.0
C1099 C 0.79468 0.48979 0.4544 0.0
C1100 C 0.78527 0.48765 0.52668 0.0
H1101 H 0.66269 0.46997 0.57221 0.0
H1102 H 0.69565 0.47975 0.53834 0.0
H1103 H 0.77606 0.49255 0.5664 0.0
H1104 H 0.82687 0.44686 0.46631 0.0
H1105 H 0.80597 0.45654 0.50305 0.0
H1106 H 0.74178 0.46497 0.47552 0.0
C1107 C 0.69921 0.4747 0.55783 0.0
C1108 C 0.76808 0.48619 0.54678 0.0
C1109 C 0.6803 0.46936 0.5774 0.0
C1110 C 0.81876 0.45965 0.4629 0.0
C1111 C 0.80668 0.46508 0.48391 0.0
C1112 C 0.74953 0.47138 0.49524 0.0
C1113 C 0.72208 0.47331 0.5633 0.0
C1114 C 0.7411 0.4766 0.54159 0.0
C1115 C 0.79352 0.47926 0.47967 0.0
C1116 C 0.77617 0.4802 0.50069 0.0
H1117 H 0.71054 0.45822 0.62901 0.0
H1118 H 0.74289 0.46601 0.59474 0.0
H1119 H 0.71165 0.46118 0.51032 0.0
H1120 H 0.80648 0.49176 0.41388 0.0
H1121 H 0.78473 0.50082 0.45058 0.0
C1122 C 0.18007 0.71336 0.93576 0.0
C1123 C 0.16425 0.68584 0.93329 0.0
C1124 C 0.19143 0.72914 0.91332 0.0
C1125 C 0.19172 0.73177 0.84006 0.0
H1126 H 0.26772 0.76954 0.84763 0.0
C1127 C 0.26216 0.77026 0.74903 0.0
C1128 C 0.28806 0.7912 0.75253 0.0
C1129 C 0.24482 0.75998 0.77064 0.0
C1130 C 0.24657 0.75981 0.84502 0.0
H1131 H 0.14647 0.65351 0.90542 0.0
H1132 H 0.16508 0.68109 0.86626 0.0
H1133 H 0.24016 0.74857 0.88575 0.0
H1134 H 0.31556 0.81896 0.78094 0.0
H1135 H 0.28518 0.80264 0.81792 0.0
H1136 H 0.198 0.74322 0.79938 0.0
C1137 C 0.16892 0.69054 0.88542 0.0
C1138 C 0.2307 0.74762 0.86708 0.0
C1139 C 0.15808 0.67474 0.90785 0.0
C1140 C 0.29577 0.80262 0.77768 0.0
C1141 C 0.27832 0.79291 0.79904 0.0
C1142 C 0.20761 0.74449 0.81799 0.0
C1143 C 0.18679 0.71774 0.88796 0.0
C1144 C 0.20311 0.73316 0.86487 0.0
C1145 C 0.2528 0.77081 0.7962 0.0
C1146 C 0.2354 0.75848 0.81998 0.0
H1147 H 0.18577 0.72236 0.95511 0.0
H1148 H 0.20504 0.75006 0.91591 0.0
H1149 H 0.17049 0.72075 0.83771 0.0
H1150 H 0.25576 0.76088 0.7299 0.0
H1151 H 0.22558 0.74285 0.76736 0.0
loop_
_geom_bond_atom_site_label_1
_geom_bond_atom_site_label_2
_geom_bond_distance
_geom_bond_site_symmetry_2
_ccdc_geom_bond_type
Mn0 O5 2.095 . S
Mn0 O15 2.162 . S
Mn0 O16 2.297 . S
Mn0 O24 2.385 . S
Mn0 O25 2.209 . S
Mn0 O26 2.094 . S
Mn1 O6 2.121 . S
Mn1 N8 2.257 . S
Mn1 N17 2.282 . S
Mn1 O25 2.215 . S
Mn1 O27 2.117 . S
C2 O24 1.234 . S
C2 O25 1.283 . S
C3 O15 1.281 . S
C3 O16 1.236 . S
C4 O26 1.240 . S
C4 O27 1.264 . S
O5 Mn0 2.095 . S
O5 C14 1.250 . S
O6 Mn1 2.121 . S
O6 C14 1.258 . S
C7 N8 1.326 . S
C7 C11 1.460 . S
C7 H13 0.929 . S
N8 Mn1 2.257 . S
N8 C7 1.326 . S
N8 C12 1.362 . S
C9 C10 1.258 . S
C9 C12 1.431 . S
C9 C29 1.449 . S
C10 C9 1.258 . S
C10 C11 1.477 . S
C10 H30 0.931 . S
C11 C7 1.460 . S
C11 C10 1.477 . S
C11 H31 0.930 . S
C12 N8 1.362 . S
C12 C9 1.431 . S
C12 C22 1.476 . S
H13 C7 0.929 . S
C14 O5 1.250 . S
C14 O6 1.258 . S
O15 Mn0 2.162 . S
O15 C3 1.281 . S
O16 Mn0 2.297 . S
O16 C3 1.236 . S
N17 Mn1 2.282 . S
N17 C18 1.328 . S
N17 C22 1.318 . S
C18 N17 1.328 . S
C18 C19 1.457 . S
C18 H23 0.929 . S
C19 C18 1.457 . S
C19 C20 1.291 . S
C19 H32 0.931 . S
C20 C19 1.291 . S
C20 C21 1.373 . S
C20 H33 0.929 . S
C21 C20 1.373 . S
C21 C22 1.396 . S
C21 C28 1.403 . S
C22 C12 1.476 . S
C22 N17 1.318 . S
C22 C21 1.396 . S
H23 C18 0.929 . S
O24 Mn0 2.385 . S
O24 C2 1.234 . S
O25 Mn0 2.209 . S
O25 Mn1 2.215 . S
O25 C2 1.283 . S
O26 Mn0 2.094 . S
O26 C4 1.240 . S
O27 Mn1 2.117 . S
O27 C4 1.264 . S
C28 C21 1.403 . S
C28 C29 1.399 . S
C28 H34 0.929 . S
C29 C9 1.449 . S
C29 C28 1.399 . S
C29 H35 0.930 . S
H30 C10 0.931 . S
H31 C11 0.930 . S
H32 C19 0.931 . S
H33 C20 0.929 . S
H34 C28 0.929 . S
H35 C29 0.930 . S
Mn36 O41 2.095 . S
Mn36 O51 2.162 . S
Mn36 O52 2.297 . S
Mn36 O60 2.385 . S
Mn36 O61 2.209 . S
Mn36 O62 2.094 . S
Mn37 O42 2.121 . S
Mn37 N44 2.257 . S
Mn37 N53 2.282 . S
Mn37 O61 2.215 . S
Mn37 O63 2.117 . S
C38 O60 1.234 . S
C38 O61 1.283 . S
C39 O51 1.281 . S
C39 O52 1.236 . S
C40 O62 1.240 . S
C40 O63 1.264 . S
O41 Mn36 2.095 . S
O41 C50 1.250 . S
O42 Mn37 2.121 . S
O42 C50 1.258 . S
C43 N44 1.326 . S
C43 C47 1.460 . S
C43 H49 0.929 . S
N44 Mn37 2.257 . S
N44 C43 1.326 . S
N44 C48 1.362 . S
C45 C46 1.258 . S
C45 C48 1.431 . S
C45 C65 1.449 . S
C46 C45 1.258 . S
C46 C47 1.477 . S
C46 H66 0.931 . S
C47 C43 1.460 . S
C47 C46 1.477 . S
C47 H67 0.930 . S
C48 N44 1.362 . S
C48 C45 1.431 . S
C48 C58 1.476 . S
H49 C43 0.929 . S
C50 O41 1.250 . S
C50 O42 1.258 . S
O51 Mn36 2.162 . S
O51 C39 1.281 . S
O52 Mn36 2.297 . S
O52 C39 1.236 . S
N53 Mn37 2.282 . S
N53 C54 1.328 . S
N53 C58 1.318 . S
C54 N53 1.328 . S
C54 C55 1.457 . S
C54 H59 0.929 . S
C55 C54 1.457 . S
C55 C56 1.291 . S
C55 H68 0.931 . S
C56 C55 1.291 . S
C56 C57 1.373 . S
C56 H69 0.929 . S
C57 C56 1.373 . S
C57 C58 1.396 . S
C57 C64 1.403 . S
C58 C48 1.476 . S
C58 N53 1.318 . S
C58 C57 1.396 . S
H59 C54 0.929 . S
O60 Mn36 2.385 . S
O60 C38 1.234 . S
O61 Mn36 2.209 . S
O61 Mn37 2.215 . S
O61 C38 1.283 . S
O62 Mn36 2.094 . S
O62 C40 1.240 . S
O63 Mn37 2.117 . S
O63 C40 1.264 . S
C64 C57 1.403 . S
C64 C65 1.399 . S
C64 H70 0.929 . S
C65 C45 1.449 . S
C65 C64 1.399 . S
C65 H71 0.930 . S
H66 C46 0.931 . S
H67 C47 0.930 . S
H68 C55 0.931 . S
H69 C56 0.929 . S
H70 C64 0.929 . S
H71 C65 0.930 . S
Mn72 O77 2.095 . S
Mn72 O87 2.162 . S
Mn72 O88 2.297 . S
Mn72 O96 2.385 . S
Mn72 O97 2.209 . S
Mn72 O98 2.094 1_556 S
Mn73 O78 2.121 1_554 S
Mn73 N80 2.253 1_554 S
Mn73 N89 2.282 . S
Mn73 O97 2.215 1_554 S
Mn73 O99 2.117 . S
C74 O96 1.234 . S
C74 O97 1.283 . S
C75 O87 1.281 . S
C75 O88 1.236 . S
C76 O98 1.240 . S
C76 O99 1.264 . S
O77 Mn72 2.095 . S
O77 C86 1.250 . S
O78 Mn73 2.121 1_556 S
O78 C86 1.258 . S
C79 N80 1.334 . S
C79 C83 1.460 . S
C79 H85 0.929 . S
N80 Mn73 2.253 1_556 S
N80 C79 1.334 . S
N80 C84 1.358 1_556 S
C81 C82 1.258 1_554 S
C81 C84 1.431 . S
C81 C101 1.449 . S
C82 C81 1.258 1_556 S
C82 C83 1.477 . S
C82 H102 0.931 . S
C83 C79 1.460 . S
C83 C82 1.477 . S
C83 H103 0.930 . S
C84 N80 1.358 1_554 S
C84 C81 1.431 . S
C84 C94 1.476 . S
H85 C79 0.929 . S
C86 O77 1.250 . S
C86 O78 1.258 . S
O87 Mn72 2.162 . S
O87 C75 1.281 . S
O88 Mn72 2.297 . S
O88 C75 1.236 . S
N89 Mn73 2.282 . S
N89 C90 1.328 . S
N89 C94 1.318 . S
C90 N89 1.328 . S
C90 C91 1.457 . S
C90 H95 0.929 . S
C91 C90 1.457 . S
C91 C92 1.291 . S
C91 H104 0.931 . S
C92 C91 1.291 . S
C92 C93 1.373 . S
C92 H105 0.929 . S
C93 C92 1.373 . S
C93 C94 1.396 . S
C93 C100 1.403 . S
C94 C84 1.476 . S
C94 N89 1.318 . S
C94 C93 1.396 . S
H95 C90 0.929 . S
O96 Mn72 2.385 . S
O96 C74 1.234 . S
O97 Mn72 2.209 . S
O97 Mn73 2.215 1_556 S
O97 C74 1.283 . S
O98 Mn72 2.094 1_554 S
O98 C76 1.240 . S
O99 Mn73 2.117 . S
O99 C76 1.264 . S
C100 C93 1.403 . S
C100 C101 1.399 . S
C100 H106 0.929 . S
C101 C81 1.449 . S
C101 C100 1.399 . S
C101 H107 0.930 . S
H102 C82 0.931 . S
H103 C83 0.930 . S
H104 C91 0.931 . S
H105 C92 0.929 . S
H106 C100 0.929 . S
H107 C101 0.930 . S
Mn108 O113 2.095 . S
Mn108 O123 2.162 . S
Mn108 O124 2.297 . S
Mn108 O132 2.385 . S
Mn108 O133 2.209 . S
Mn108 O134 2.094 . S
Mn109 O114 2.121 . S
Mn109 N116 2.257 . S
Mn109 N125 2.282 . S
Mn109 O133 2.215 . S
Mn109 O135 2.117 . S
C110 O132 1.234 . S
C110 O133 1.283 . S
C111 O123 1.281 . S
C111 O124 1.236 . S
C112 O134 1.240 . S
C112 O135 1.264 . S
O113 Mn108 2.095 . S
O113 C122 1.250 . S
O114 Mn109 2.121 . S
O114 C122 1.258 . S
C115 N116 1.326 . S
C115 C119 1.460 . S
C115 H121 0.929 . S
N116 Mn109 2.257 . S
N116 C115 1.326 . S
N116 C120 1.362 . S
C117 C118 1.258 . S
C117 C120 1.431 . S
C117 C137 1.449 . S
C118 C117 1.258 . S
C118 C119 1.477 . S
C118 H138 0.931 . S
C119 C115 1.460 . S
C119 C118 1.477 . S
C119 H139 0.930 . S
C120 N116 1.362 . S
C120 C117 1.431 . S
C120 C130 1.476 . S
H121 C115 0.929 . S
C122 O113 1.250 . S
C122 O114 1.258 . S
O123 Mn108 2.162 . S
O123 C111 1.281 . S
O124 Mn108 2.297 . S
O124 C111 1.236 . S
N125 Mn109 2.282 . S
N125 C126 1.328 . S
N125 C130 1.318 . S
C126 N125 1.328 . S
C126 C127 1.457 . S
C126 H131 0.929 . S
C127 C126 1.457 . S
C127 C128 1.291 . S
C127 H140 0.931 . S
C128 C127 1.291 . S
C128 C129 1.373 . S
C128 H141 0.929 . S
C129 C128 1.373 . S
C129 C130 1.396 . S
C129 C136 1.403 . S
C130 C120 1.476 . S
C130 N125 1.318 . S
C130 C129 1.396 . S
H131 C126 0.929 . S
O132 Mn108 2.385 . S
O132 C110 1.234 . S
O133 Mn108 2.209 . S
O133 Mn109 2.215 . S
O133 C110 1.283 . S
O134 Mn108 2.094 . S
O134 C112 1.240 . S
O135 Mn109 2.117 . S
O135 C112 1.264 . S
C136 C129 1.403 . S
C136 C137 1.399 . S
C136 H142 0.929 . S
C137 C117 1.449 . S
C137 C136 1.399 . S
C137 H143 0.930 . S
H138 C118 0.931 . S
H139 C119 0.930 . S
H140 C127 0.931 . S
H141 C128 0.929 . S
H142 C136 0.929 . S
H143 C137 0.930 . S
Mn144 O149 2.095 . S
Mn144 O159 2.162 . S
Mn144 O160 2.297 . S
Mn144 O168 2.385 . S
Mn144 O169 2.209 . S
Mn144 O170 2.094 . S
Mn145 O150 2.121 . S
Mn145 N152 2.257 . S
Mn145 N161 2.282 . S
Mn145 O169 2.215 . S
Mn145 O171 2.117 . S
C146 O168 1.234 . S
C146 O169 1.283 . S
C147 O159 1.281 . S
C147 O160 1.236 . S
C148 O170 1.240 . S
C148 O171 1.264 . S
O149 Mn144 2.095 . S
O149 C158 1.250 . S
O150 Mn145 2.121 . S
O150 C158 1.258 . S
C151 N152 1.326 . S
C151 C155 1.460 . S
C151 H157 0.929 . S
N152 Mn145 2.257 . S
N152 C151 1.326 . S
N152 C156 1.362 . S
C153 C154 1.258 . S
C153 C156 1.431 . S
C153 C173 1.449 . S
C154 C153 1.258 . S
C154 C155 1.477 . S
C154 H174 0.931 . S
C155 C151 1.460 . S
C155 C154 1.477 . S
C155 H175 0.930 . S
C156 N152 1.362 . S
C156 C153 1.431 . S
C156 C166 1.476 . S
H157 C151 0.929 . S
C158 O149 1.250 . S
C158 O150 1.258 . S
O159 Mn144 2.162 . S
O159 C147 1.281 . S
O160 Mn144 2.297 . S
O160 C147 1.236 . S
N161 Mn145 2.282 . S
N161 C162 1.328 . S
N161 C166 1.318 . S
C162 N161 1.328 . S
C162 C163 1.457 . S
C162 H167 0.929 . S
C163 C162 1.457 . S
C163 C164 1.291 . S
C163 H176 0.931 . S
C164 C163 1.291 . S
C164 C165 1.373 . S
C164 H177 0.929 . S
C165 C164 1.373 . S
C165 C166 1.396 . S
C165 C172 1.403 . S
C166 C156 1.476 . S
C166 N161 1.318 . S
C166 C165 1.396 . S
H167 C162 0.929 . S
O168 Mn144 2.385 . S
O168 C146 1.234 . S
O169 Mn144 2.209 . S
O169 Mn145 2.215 . S
O169 C146 1.283 . S
O170 Mn144 2.094 . S
O170 C148 1.240 . S
O171 Mn145 2.117 . S
O171 C148 1.264 . S
C172 C165 1.403 . S
C172 C173 1.399 . S
C172 H178 0.929 . S
C173 C153 1.449 . S
C173 C172 1.399 . S
C173 H179 0.930 . S
H174 C154 0.931 . S
H175 C155 0.930 . S
H176 C163 0.931 . S
H177 C164 0.929 . S
H178 C172 0.929 . S
H179 C173 0.930 . S
Mn180 O185 2.095 . S
Mn180 O195 2.162 . S
Mn180 O196 2.297 . S
Mn180 O204 2.385 . S
Mn180 O205 2.209 . S
Mn180 O206 2.094 1_556 S
Mn181 O186 2.121 1_554 S
Mn181 N188 2.253 1_554 S
Mn181 N197 2.282 . S
Mn181 O205 2.215 1_554 S
Mn181 O207 2.117 . S
C182 O204 1.234 . S
C182 O205 1.283 . S
C183 O195 1.281 . S
C183 O196 1.236 . S
C184 O206 1.240 . S
C184 O207 1.264 . S
O185 Mn180 2.095 . S
O185 C194 1.250 . S
O186 Mn181 2.121 1_556 S
O186 C194 1.258 . S
C187 N188 1.334 . S
C187 C191 1.460 . S
C187 H193 0.929 . S
N188 Mn181 2.253 1_556 S
N188 C187 1.334 . S
N188 C192 1.358 1_556 S
C189 C190 1.258 1_554 S
C189 C192 1.431 . S
C189 C209 1.449 . S
C190 C189 1.258 1_556 S
C190 C191 1.477 . S
C190 H210 0.931 . S
C191 C187 1.460 . S
C191 C190 1.477 . S
C191 H211 0.930 . S
C192 N188 1.358 1_554 S
C192 C189 1.431 . S
C192 C202 1.476 . S
H193 C187 0.929 . S
C194 O185 1.250 . S
C194 O186 1.258 . S
O195 Mn180 2.162 . S
O195 C183 1.281 . S
O196 Mn180 2.297 . S
O196 C183 1.236 . S
N197 Mn181 2.282 . S
N197 C198 1.328 . S
N197 C202 1.318 . S
C198 N197 1.328 . S
C198 C199 1.457 . S
C198 H203 0.929 . S
C199 C198 1.457 . S
C199 C200 1.291 . S
C199 H212 0.931 . S
C200 C199 1.291 . S
C200 C201 1.373 . S
C200 H213 0.929 . S
C201 C200 1.373 . S
C201 C202 1.396 . S
C201 C208 1.403 . S
C202 C192 1.476 . S
C202 N197 1.318 . S
C202 C201 1.396 . S
H203 C198 0.929 . S
O204 Mn180 2.385 . S
O204 C182 1.234 . S
O205 Mn180 2.209 . S
O205 Mn181 2.215 1_556 S
O205 C182 1.283 . S
O206 Mn180 2.094 1_554 S
O206 C184 1.240 . S
O207 Mn181 2.117 . S
O207 C184 1.264 . S
C208 C201 1.403 . S
C208 C209 1.399 . S
C208 H214 0.929 . S
C209 C189 1.449 . S
C209 C208 1.399 . S
C209 H215 0.930 . S
H210 C190 0.931 . S
H211 C191 0.930 . S
H212 C199 0.931 . S
H213 C200 0.929 . S
H214 C208 0.929 . S
H215 C209 0.930 . S
Mn216 O221 2.095 . S
Mn216 O231 2.162 . S
Mn216 O232 2.297 . S
Mn216 O240 2.385 . S
Mn216 O241 2.209 . S
Mn216 O242 2.094 . S
Mn217 O222 2.121 . S
Mn217 N224 2.257 . S
Mn217 N233 2.282 . S
Mn217 O241 2.215 . S
Mn217 O243 2.117 . S
C218 O240 1.234 . S
C218 O241 1.283 . S
C219 O231 1.281 . S
C219 O232 1.236 . S
C220 O242 1.240 . S
C220 O243 1.264 . S
O221 Mn216 2.095 . S
O221 C230 1.250 . S
O222 Mn217 2.121 . S
O222 C230 1.258 . S
C223 N224 1.326 . S
C223 C227 1.460 . S
C223 H229 0.929 . S
N224 Mn217 2.257 . S
N224 C223 1.326 . S
N224 C228 1.362 . S
C225 C226 1.258 . S
C225 C228 1.431 . S
C225 C245 1.449 . S
C226 C225 1.258 . S
C226 C227 1.477 . S
C226 H246 0.931 . S
C227 C223 1.460 . S
C227 C226 1.477 . S
C227 H247 0.930 . S
C228 N224 1.362 . S
C228 C225 1.431 . S
C228 C238 1.476 . S
H229 C223 0.929 . S
C230 O221 1.250 . S
C230 O222 1.258 . S
O231 Mn216 2.162 . S
O231 C219 1.281 . S
O232 Mn216 2.297 . S
O232 C219 1.236 . S
N233 Mn217 2.282 . S
N233 C234 1.328 . S
N233 C238 1.318 . S
C234 N233 1.328 . S
C234 C235 1.457 . S
C234 H239 0.929 . S
C235 C234 1.457 . S
C235 C236 1.291 . S
C235 H248 0.931 . S
C236 C235 1.291 . S
C236 C237 1.373 . S
C236 H249 0.929 . S
C237 C236 1.373 . S
C237 C238 1.396 . S
C237 C244 1.403 . S
C238 C228 1.476 . S
C238 N233 1.318 . S
C238 C237 1.396 . S
H239 C234 0.929 . S
O240 Mn216 2.385 . S
O240 C218 1.234 . S
O241 Mn216 2.209 . S
O241 Mn217 2.215 . S
O241 C218 1.283 . S
O242 Mn216 2.094 . S
O242 C220 1.240 . S
O243 Mn217 2.117 . S
O243 C220 1.264 . S
C244 C237 1.403 . S
C244 C245 1.399 . S
C244 H250 0.929 . S
C245 C225 1.449 . S
C245 C244 1.399 . S
C245 H251 0.930 . S
H246 C226 0.931 . S
H247 C227 0.930 . S
H248 C235 0.931 . S
H249 C236 0.929 . S
H250 C244 0.929 . S
H251 C245 0.930 . S
Mn252 O257 2.095 . S
Mn252 O267 2.162 . S
Mn252 O268 2.297 . S
Mn252 O276 2.385 . S
Mn252 O277 2.209 . S
Mn252 O278 2.094 . S
Mn253 O258 2.121 . S
Mn253 N260 2.257 . S
Mn253 N269 2.282 . S
Mn253 O277 2.215 . S
Mn253 O279 2.117 . S
C254 O276 1.234 . S
C254 O277 1.283 . S
C255 O267 1.281 . S
C255 O268 1.236 . S
C256 O278 1.240 . S
C256 O279 1.264 . S
O257 Mn252 2.095 . S
O257 C266 1.250 . S
O258 Mn253 2.121 . S
O258 C266 1.258 . S
C259 N260 1.326 . S
C259 C263 1.460 . S
C259 H265 0.929 . S
N260 Mn253 2.257 . S
N260 C259 1.326 . S
N260 C264 1.362 . S
C261 C262 1.258 . S
C261 C264 1.431 . S
C261 C281 1.449 . S
C262 C261 1.258 . S
C262 C263 1.477 . S
C262 H282 0.931 . S
C263 C259 1.460 . S
C263 C262 1.477 . S
C263 H283 0.930 . S
C264 N260 1.362 . S
C264 C261 1.431 . S
C264 C274 1.476 . S
H265 C259 0.929 . S
C266 O257 1.250 . S
C266 O258 1.258 . S
O267 Mn252 2.162 . S
O267 C255 1.281 . S
O268 Mn252 2.297 . S
O268 C255 1.236 . S
N269 Mn253 2.282 . S
N269 C270 1.328 . S
N269 C274 1.318 . S
C270 N269 1.328 . S
C270 C271 1.457 . S
C270 H275 0.929 . S
C271 C270 1.457 . S
C271 C272 1.291 . S
C271 H284 0.931 . S
C272 C271 1.291 . S
C272 C273 1.373 . S
C272 H285 0.929 . S
C273 C272 1.373 . S
C273 C274 1.396 . S
C273 C280 1.403 . S
C274 C264 1.476 . S
C274 N269 1.318 . S
C274 C273 1.396 . S
H275 C270 0.929 . S
O276 Mn252 2.385 . S
O276 C254 1.234 . S
O277 Mn252 2.209 . S
O277 Mn253 2.215 . S
O277 C254 1.283 . S
O278 Mn252 2.094 . S
O278 C256 1.240 . S
O279 Mn253 2.117 . S
O279 C256 1.264 . S
C280 C273 1.403 . S
C280 C281 1.399 . S
C280 H286 0.929 . S
C281 C261 1.449 . S
C281 C280 1.399 . S
C281 H287 0.930 . S
H282 C262 0.931 . S
H283 C263 0.930 . S
H284 C271 0.931 . S
H285 C272 0.929 . S
H286 C280 0.929 . S
H287 C281 0.930 . S
Mn288 O293 2.095 . S
Mn288 O303 2.162 . S
Mn288 O304 2.297 . S
Mn288 O312 2.385 . S
Mn288 O313 2.209 . S
Mn288 O314 2.094 1_554 S
Mn289 O294 2.121 1_556 S
Mn289 N296 2.257 1_556 S
Mn289 N305 2.282 . S
Mn289 O313 2.215 1_556 S
Mn289 O315 2.117 . S
C290 O312 1.234 . S
C290 O313 1.283 . S
C291 O303 1.281 . S
C291 O304 1.236 . S
C292 O314 1.240 . S
C292 O315 1.264 . S
O293 Mn288 2.095 . S
O293 C302 1.250 . S
O294 Mn289 2.121 1_554 S
O294 C302 1.258 . S
C295 N296 1.326 . S
C295 C299 1.460 . S
C295 H301 0.929 . S
N296 Mn289 2.257 1_554 S
N296 C295 1.326 . S
N296 C300 1.362 1_554 S
C297 C298 1.258 1_556 S
C297 C300 1.431 . S
C297 C317 1.449 . S
C298 C297 1.258 1_554 S
C298 C299 1.477 . S
C298 H318 0.931 . S
C299 C295 1.460 . S
C299 C298 1.477 . S
C299 H319 0.930 . S
C300 N296 1.362 1_556 S
C300 C297 1.431 . S
C300 C310 1.476 . S
H301 C295 0.929 . S
C302 O293 1.250 . S
C302 O294 1.258 . S
O303 Mn288 2.162 . S
O303 C291 1.281 . S
O304 Mn288 2.297 . S
O304 C291 1.236 . S
N305 Mn289 2.282 . S
N305 C306 1.328 . S
N305 C310 1.318 . S
C306 N305 1.328 . S
C306 C307 1.457 . S
C306 H311 0.929 . S
C307 C306 1.457 . S
C307 C308 1.291 . S
C307 H320 0.931 . S
C308 C307 1.291 . S
C308 C309 1.373 . S
C308 H321 0.929 . S
C309 C308 1.373 . S
C309 C310 1.396 . S
C309 C316 1.403 . S
C310 C300 1.476 . S
C310 N305 1.318 . S
C310 C309 1.396 . S
H311 C306 0.929 . S
O312 Mn288 2.385 . S
O312 C290 1.234 . S
O313 Mn288 2.209 . S
O313 Mn289 2.215 1_554 S
O313 C290 1.283 . S
O314 Mn288 2.094 1_556 S
O314 C292 1.240 . S
O315 Mn289 2.117 . S
O315 C292 1.264 . S
C316 C309 1.403 . S
C316 C317 1.399 . S
C316 H322 0.929 . S
C317 C297 1.449 . S
C317 C316 1.399 . S
C317 H323 0.930 . S
H318 C298 0.931 . S
H319 C299 0.930 . S
H320 C307 0.931 . S
H321 C308 0.929 . S
H322 C316 0.929 . S
H323 C317 0.930 . S
Mn324 O329 2.095 . S
Mn324 O339 2.162 . S
Mn324 O340 2.297 . S
Mn324 O348 2.385 . S
Mn324 O349 2.209 . S
Mn324 O350 2.094 . S
Mn325 O330 2.121 . S
Mn325 N332 2.257 . S
Mn325 N341 2.282 . S
Mn325 O349 2.215 . S
Mn325 O351 2.117 . S
C326 O348 1.234 . S
C326 O349 1.283 . S
C327 O339 1.281 . S
C327 O340 1.236 . S
C328 O350 1.240 . S
C328 O351 1.264 . S
O329 Mn324 2.095 . S
O329 C338 1.250 . S
O330 Mn325 2.121 . S
O330 C338 1.258 . S
C331 N332 1.326 . S
C331 C335 1.460 . S
C331 H337 0.929 . S
N332 Mn325 2.257 . S
N332 C331 1.326 . S
N332 C336 1.362 . S
C333 C334 1.258 . S
C333 C336 1.431 . S
C333 C353 1.449 . S
C334 C333 1.258 . S
C334 C335 1.477 . S
C334 H354 0.931 . S
C335 C331 1.460 . S
C335 C334 1.477 . S
C335 H355 0.930 . S
C336 N332 1.362 . S
C336 C333 1.431 . S
C336 C346 1.476 . S
H337 C331 0.929 . S
C338 O329 1.250 . S
C338 O330 1.258 . S
O339 Mn324 2.162 . S
O339 C327 1.281 . S
O340 Mn324 2.297 . S
O340 C327 1.236 . S
N341 Mn325 2.282 . S
N341 C342 1.328 . S
N341 C346 1.318 . S
C342 N341 1.328 . S
C342 C343 1.457 . S
C342 H347 0.929 . S
C343 C342 1.457 . S
C343 C344 1.291 . S
C343 H356 0.931 . S
C344 C343 1.291 . S
C344 C345 1.373 . S
C344 H357 0.929 . S
C345 C344 1.373 . S
C345 C346 1.396 . S
C345 C352 1.403 . S
C346 C336 1.476 . S
C346 N341 1.318 . S
C346 C345 1.396 . S
H347 C342 0.929 . S
O348 Mn324 2.385 . S
O348 C326 1.234 . S
O349 Mn324 2.209 . S
O349 Mn325 2.215 . S
O349 C326 1.283 . S
O350 Mn324 2.094 . S
O350 C328 1.240 . S
O351 Mn325 2.117 . S
O351 C328 1.264 . S
C352 C345 1.403 . S
C352 C353 1.399 . S
C352 H358 0.929 . S
C353 C333 1.449 . S
C353 C352 1.399 . S
C353 H359 0.930 . S
H354 C334 0.931 . S
H355 C335 0.930 . S
H356 C343 0.931 . S
H357 C344 0.929 . S
H358 C352 0.929 . S
H359 C353 0.930 . S
Mn360 O365 2.095 . S
Mn360 O375 2.162 . S
Mn360 O376 2.297 . S
Mn360 O384 2.385 . S
Mn360 O385 2.209 . S
Mn360 O386 2.094 . S
Mn361 O366 2.121 . S
Mn361 N368 2.257 . S
Mn361 N377 2.282 . S
Mn361 O385 2.215 . S
Mn361 O387 2.117 . S
C362 O384 1.234 . S
C362 O385 1.283 . S
C363 O375 1.281 . S
C363 O376 1.236 . S
C364 O386 1.240 . S
C364 O387 1.264 . S
O365 Mn360 2.095 . S
O365 C374 1.250 . S
O366 Mn361 2.121 . S
O366 C374 1.258 . S
C367 N368 1.326 . S
C367 C371 1.460 . S
C367 H373 0.929 . S
N368 Mn361 2.257 . S
N368 C367 1.326 . S
N368 C372 1.362 . S
C369 C370 1.258 . S
C369 C372 1.431 . S
C369 C389 1.449 . S
C370 C369 1.258 . S
C370 C371 1.477 . S
C370 H390 0.931 . S
C371 C367 1.460 . S
C371 C370 1.477 . S
C371 H391 0.930 . S
C372 N368 1.362 . S
C372 C369 1.431 . S
C372 C382 1.476 . S
H373 C367 0.929 . S
C374 O365 1.250 . S
C374 O366 1.258 . S
O375 Mn360 2.162 . S
O375 C363 1.281 . S
O376 Mn360 2.297 . S
O376 C363 1.236 . S
N377 Mn361 2.282 . S
N377 C378 1.328 . S
N377 C382 1.318 . S
C378 N377 1.328 . S
C378 C379 1.457 . S
C378 H383 0.929 . S
C379 C378 1.457 . S
C379 C380 1.291 . S
C379 H392 0.931 . S
C380 C379 1.291 . S
C380 C381 1.373 . S
C380 H393 0.929 . S
C381 C380 1.373 . S
C381 C382 1.396 . S
C381 C388 1.403 . S
C382 C372 1.476 . S
C382 N377 1.318 . S
C382 C381 1.396 . S
H383 C378 0.929 . S
O384 Mn360 2.385 . S
O384 C362 1.234 . S
O385 Mn360 2.209 . S
O385 Mn361 2.215 . S
O385 C362 1.283 . S
O386 Mn360 2.094 . S
O386 C364 1.240 . S
O387 Mn361 2.117 . S
O387 C364 1.264 . S
C388 C381 1.403 . S
C388 C389 1.399 . S
C388 H394 0.929 . S
C389 C369 1.449 . S
C389 C388 1.399 . S
C389 H395 0.930 . S
H390 C370 0.931 . S
H391 C371 0.930 . S
H392 C379 0.931 . S
H393 C380 0.929 . S
H394 C388 0.929 . S
H395 C389 0.930 . S
Mn396 O401 2.095 . S
Mn396 O411 2.162 . S
Mn396 O412 2.297 . S
Mn396 O420 2.385 . S
Mn396 O421 2.209 . S
Mn396 O422 2.094 1_554 S
Mn397 O402 2.121 1_556 S
Mn397 N404 2.257 1_556 S
Mn397 N413 2.282 . S
Mn397 O421 2.215 1_556 S
Mn397 O423 2.117 . S
C398 O420 1.234 . S
C398 O421 1.283 . S
C399 O411 1.281 . S
C399 O412 1.236 . S
C400 O422 1.240 . S
C400 O423 1.264 . S
O401 Mn396 2.095 . S
O401 C410 1.250 . S
O402 Mn397 2.121 1_554 S
O402 C410 1.258 . S
C403 N404 1.326 . S
C403 C407 1.460 . S
C403 H409 0.929 . S
N404 Mn397 2.257 1_554 S
N404 C403 1.326 . S
N404 C408 1.362 1_554 S
C405 C406 1.258 1_556 S
C405 C408 1.431 . S
C405 C425 1.449 . S
C406 C405 1.258 1_554 S
C406 C407 1.477 . S
C406 H426 0.931 . S
C407 C403 1.460 . S
C407 C406 1.477 . S
C407 H427 0.930 . S
C408 N404 1.362 1_556 S
C408 C405 1.431 . S
C408 C418 1.476 . S
H409 C403 0.929 . S
C410 O401 1.250 . S
C410 O402 1.258 . S
O411 Mn396 2.162 . S
O411 C399 1.281 . S
O412 Mn396 2.297 . S
O412 C399 1.236 . S
N413 Mn397 2.282 . S
N413 C414 1.328 . S
N413 C418 1.318 . S
C414 N413 1.328 . S
C414 C415 1.457 . S
C414 H419 0.929 . S
C415 C414 1.457 . S
C415 C416 1.291 . S
C415 H428 0.931 . S
C416 C415 1.291 . S
C416 C417 1.373 . S
C416 H429 0.929 . S
C417 C416 1.373 . S
C417 C418 1.396 . S
C417 C424 1.403 . S
C418 C408 1.476 . S
C418 N413 1.318 . S
C418 C417 1.396 . S
H419 C414 0.929 . S
O420 Mn396 2.385 . S
O420 C398 1.234 . S
O421 Mn396 2.209 . S
O421 Mn397 2.215 1_554 S
O421 C398 1.283 . S
O422 Mn396 2.094 1_556 S
O422 C400 1.240 . S
O423 Mn397 2.117 . S
O423 C400 1.264 . S
C424 C417 1.403 . S
C424 C425 1.399 . S
C424 H430 0.929 . S
C425 C405 1.449 . S
C425 C424 1.399 . S
C425 H431 0.930 . S
H426 C406 0.931 . S
H427 C407 0.930 . S
H428 C415 0.931 . S
H429 C416 0.929 . S
H430 C424 0.929 . S
H431 C425 0.930 . S
C432 C433 1.349 . S
C432 C434 1.327 . S
C432 H457 0.950 . S
C433 C432 1.349 . S
C433 C449 1.349 . S
C434 C432 1.327 . S
C434 C453 1.429 . S
C434 H458 0.950 . S
C435 C452 1.574 . S
C435 C454 1.368 . S
C435 H459 0.949 . S
H436 C440 0.949 . S
C437 C438 1.349 . S
C437 C439 1.327 . S
C437 H460 0.950 . S
C438 C437 1.349 . S
C438 C450 1.349 . S
C439 C437 1.327 . S
C439 C455 1.429 . S
C439 H461 0.950 . S
C440 H436 0.949 . S
C440 C448 1.574 . S
C440 C456 1.368 . S
H441 C449 0.950 . S
H442 C447 0.950 . S
H443 C448 0.949 . S
H444 C450 0.950 . S
H445 C451 0.950 . S
H446 C452 0.949 . S
C447 H442 0.950 . S
C447 C449 1.327 . S
C447 C453 1.429 . S
C448 C440 1.574 . S
C448 H443 0.949 . S
C448 C454 1.368 . S
C449 C433 1.349 . S
C449 H441 0.950 . S
C449 C447 1.327 . S
C450 C438 1.349 . S
C450 H444 0.950 . S
C450 C451 1.327 . S
C451 H445 0.950 . S
C451 C450 1.327 . S
C451 C455 1.429 . S
C452 C435 1.574 . S
C452 H446 0.949 . S
C452 C456 1.368 . S
C453 C434 1.429 . S
C453 C447 1.429 . S
C453 C454 1.523 . S
C454 C435 1.368 . S
C454 C448 1.368 . S
C454 C453 1.523 . S
C455 C439 1.429 . S
C455 C451 1.429 . S
C455 C456 1.523 . S
C456 C440 1.368 . S
C456 C452 1.368 . S
C456 C455 1.523 . S
H457 C432 0.950 . S
H458 C434 0.950 . S
H459 C435 0.949 . S
H460 C437 0.950 . S
H461 C439 0.950 . S
C462 C463 1.349 . S
C462 C464 1.327 . S
C462 H487 0.950 . S
C463 C462 1.349 . S
C463 C479 1.349 . S
C464 C462 1.327 . S
C464 C483 1.429 . S
C464 H488 0.950 . S
C465 C482 1.574 . S
C465 C484 1.368 . S
C465 H489 0.949 . S
H466 C470 0.949 . S
C467 C468 1.349 . S
C467 C469 1.327 . S
C467 H490 0.950 . S
C468 C467 1.349 . S
C468 C480 1.349 . S
C469 C467 1.327 . S
C469 C485 1.429 . S
C469 H491 0.950 . S
C470 H466 0.949 . S
C470 C478 1.574 . S
C470 C486 1.368 . S
H471 C479 0.950 . S
H472 C477 0.950 . S
H473 C478 0.949 . S
H474 C480 0.950 . S
H475 C481 0.950 . S
H476 C482 0.949 . S
C477 H472 0.950 . S
C477 C479 1.327 . S
C477 C483 1.429 . S
C478 C470 1.574 . S
C478 H473 0.949 . S
C478 C484 1.368 . S
C479 C463 1.349 . S
C479 H471 0.950 . S
C479 C477 1.327 . S
C480 C468 1.349 . S
C480 H474 0.950 . S
C480 C481 1.327 . S
C481 H475 0.950 . S
C481 C480 1.327 . S
C481 C485 1.429 . S
C482 C465 1.574 . S
C482 H476 0.949 . S
C482 C486 1.368 . S
C483 C464 1.429 . S
C483 C477 1.429 . S
C483 C484 1.523 . S
C484 C465 1.368 . S
C484 C478 1.368 . S
C484 C483 1.523 . S
C485 C469 1.429 . S
C485 C481 1.429 . S
C485 C486 1.523 . S
C486 C470 1.368 . S
C486 C482 1.368 . S
C486 C485 1.523 . S
H487 C462 0.950 . S
H488 C464 0.950 . S
H489 C465 0.949 . S
H490 C467 0.950 . S
H491 C469 0.950 . S
C492 C493 1.349 . S
C492 C494 1.327 . S
C492 H517 0.950 . S
C493 C492 1.349 . S
C493 C509 1.349 . S
C494 C492 1.327 . S
C494 C513 1.429 . S
C494 H518 0.950 . S
C495 C512 1.574 . S
C495 C514 1.368 . S
C495 H519 0.949 . S
H496 C500 0.949 . S
C497 C498 1.349 . S
C497 C499 1.327 . S
C497 H520 0.950 . S
C498 C497 1.349 . S
C498 C510 1.349 . S
C499 C497 1.327 . S
C499 C515 1.429 . S
C499 H521 0.950 . S
C500 H496 0.949 . S
C500 C508 1.574 . S
C500 C516 1.368 . S
H501 C509 0.950 . S
H502 C507 0.950 . S
H503 C508 0.949 . S
H504 C510 0.950 . S
H505 C511 0.950 . S
H506 C512 0.949 . S
C507 H502 0.950 . S
C507 C509 1.327 . S
C507 C513 1.429 . S
C508 C500 1.574 . S
C508 H503 0.949 . S
C508 C514 1.368 . S
C509 C493 1.349 . S
C509 H501 0.950 . S
C509 C507 1.327 . S
C510 C498 1.349 . S
C510 H504 0.950 . S
C510 C511 1.327 . S
C511 H505 0.950 . S
C511 C510 1.327 . S
C511 C515 1.429 . S
C512 C495 1.574 . S
C512 H506 0.949 . S
C512 C516 1.368 . S
C513 C494 1.429 . S
C513 C507 1.429 . S
C513 C514 1.523 . S
C514 C495 1.368 . S
C514 C508 1.368 . S
C514 C513 1.523 . S
C515 C499 1.429 . S
C515 C511 1.429 . S
C515 C516 1.523 . S
C516 C500 1.368 . S
C516 C512 1.368 . S
C516 C515 1.523 . S
H517 C492 0.950 . S
H518 C494 0.950 . S
H519 C495 0.949 . S
H520 C497 0.950 . S
H521 C499 0.950 . S
C522 C523 1.349 . S
C522 C524 1.327 . S
C522 H547 0.950 . S
C523 C522 1.349 . S
C523 C539 1.349 . S
C524 C522 1.327 . S
C524 C543 1.429 . S
C524 H548 0.950 . S
C525 C542 1.574 . S
C525 C544 1.368 . S
C525 H549 0.949 . S
H526 C530 0.949 . S
C527 C528 1.349 . S
C527 C529 1.327 . S
C527 H550 0.950 . S
C528 C527 1.349 . S
C528 C540 1.349 . S
C529 C527 1.327 . S
C529 C545 1.429 . S
C529 H551 0.950 . S
C530 H526 0.949 . S
C530 C538 1.574 . S
C530 C546 1.368 . S
H531 C539 0.950 . S
H532 C537 0.950 . S
H533 C538 0.949 . S
H534 C540 0.950 . S
H535 C541 0.950 . S
H536 C542 0.949 . S
C537 H532 0.950 . S
C537 C539 1.327 . S
C537 C543 1.429 . S
C538 C530 1.574 . S
C538 H533 0.949 . S
C538 C544 1.368 . S
C539 C523 1.349 . S
C539 H531 0.950 . S
C539 C537 1.327 . S
C540 C528 1.349 . S
C540 H534 0.950 . S
C540 C541 1.327 . S
C541 H535 0.950 . S
C541 C540 1.327 . S
C541 C545 1.429 . S
C542 C525 1.574 . S
C542 H536 0.949 . S
C542 C546 1.368 . S
C543 C524 1.429 . S
C543 C537 1.429 . S
C543 C544 1.523 . S
C544 C525 1.368 . S
C544 C538 1.368 . S
C544 C543 1.523 . S
C545 C529 1.429 . S
C545 C541 1.429 . S
C545 C546 1.523 . S
C546 C530 1.368 . S
C546 C542 1.368 . S
C546 C545 1.523 . S
H547 C522 0.950 . S
H548 C524 0.950 . S
H549 C525 0.949 . S
H550 C527 0.950 . S
H551 C529 0.950 . S
C552 C553 1.349 . S
C552 C554 1.327 . S
C552 H577 0.950 . S
C553 C552 1.349 . S
C553 C569 1.349 . S
C554 C552 1.327 . S
C554 C573 1.429 . S
C554 H578 0.950 . S
C555 C572 1.574 . S
C555 C574 1.368 . S
C555 H579 0.949 . S
H556 C560 0.949 . S
C557 C558 1.349 . S
C557 C559 1.327 . S
C557 H580 0.950 . S
C558 C557 1.349 . S
C558 C570 1.349 . S
C559 C557 1.327 . S
C559 C575 1.429 . S
C559 H581 0.950 . S
C560 H556 0.949 . S
C560 C568 1.574 . S
C560 C576 1.368 . S
H561 C569 0.950 . S
H562 C567 0.950 . S
H563 C568 0.949 . S
H564 C570 0.950 . S
H565 C571 0.950 . S
H566 C572 0.949 . S
C567 H562 0.950 . S
C567 C569 1.327 . S
C567 C573 1.429 . S
C568 C560 1.574 . S
C568 H563 0.949 . S
C568 C574 1.368 . S
C569 C553 1.349 . S
C569 H561 0.950 . S
C569 C567 1.327 . S
C570 C558 1.349 . S
C570 H564 0.950 . S
C570 C571 1.327 . S
C571 H565 0.950 . S
C571 C570 1.327 . S
C571 C575 1.429 . S
C572 C555 1.574 . S
C572 H566 0.949 . S
C572 C576 1.368 . S
C573 C554 1.429 . S
C573 C567 1.429 . S
C573 C574 1.523 . S
C574 C555 1.368 . S
C574 C568 1.368 . S
C574 C573 1.523 . S
C575 C559 1.429 . S
C575 C571 1.429 . S
C575 C576 1.523 . S
C576 C560 1.368 . S
C576 C572 1.368 . S
C576 C575 1.523 . S
H577 C552 0.950 . S
H578 C554 0.950 . S
H579 C555 0.949 . S
H580 C557 0.950 . S
H581 C559 0.950 . S
C582 C583 1.349 . S
C582 C584 1.327 . S
C582 H607 0.950 . S
C583 C582 1.349 . S
C583 C599 1.349 . S
C584 C582 1.327 . S
C584 C603 1.429 . S
C584 H608 0.950 . S
C585 C602 1.574 . S
C585 C604 1.368 . S
C585 H609 0.949 . S
H586 C590 0.949 . S
C587 C588 1.349 . S
C587 C589 1.327 . S
C587 H610 0.950 . S
C588 C587 1.349 . S
C588 C600 1.349 . S
C589 C587 1.327 . S
C589 C605 1.429 . S
C589 H611 0.950 . S
C590 H586 0.949 . S
C590 C598 1.574 . S
C590 C606 1.368 . S
H591 C599 0.950 . S
H592 C597 0.950 . S
H593 C598 0.949 . S
H594 C600 0.950 . S
H595 C601 0.950 . S
H596 C602 0.949 . S
C597 H592 0.950 . S
C597 C599 1.327 . S
C597 C603 1.429 . S
C598 C590 1.574 . S
C598 H593 0.949 . S
C598 C604 1.368 . S
C599 C583 1.349 . S
C599 H591 0.950 . S
C599 C597 1.327 . S
C600 C588 1.349 . S
C600 H594 0.950 . S
C600 C601 1.327 . S
C601 H595 0.950 . S
C601 C600 1.327 . S
C601 C605 1.429 . S
C602 C585 1.574 . S
C602 H596 0.949 . S
C602 C606 1.368 . S
C603 C584 1.429 . S
C603 C597 1.429 . S
C603 C604 1.523 . S
C604 C585 1.368 . S
C604 C598 1.368 . S
C604 C603 1.523 . S
C605 C589 1.429 . S
C605 C601 1.429 . S
C605 C606 1.523 . S
C606 C590 1.368 . S
C606 C602 1.368 . S
C606 C605 1.523 . S
H607 C582 0.950 . S
H608 C584 0.950 . S
H609 C585 0.949 . S
H610 C587 0.950 . S
H611 C589 0.950 . S
C612 C613 1.349 . S
C612 C614 1.327 . S
C612 H637 0.950 . S
C613 C612 1.349 . S
C613 C629 1.349 . S
C614 C612 1.327 . S
C614 C633 1.429 . S
C614 H638 0.950 . S
C615 C632 1.574 . S
C615 C634 1.368 . S
C615 H639 0.949 . S
H616 C620 0.949 . S
C617 C618 1.349 . S
C617 C619 1.327 . S
C617 H640 0.950 . S
C618 C617 1.349 . S
C618 C630 1.349 . S
C619 C617 1.327 . S
C619 C635 1.429 . S
C619 H641 0.950 . S
C620 H616 0.949 . S
C620 C628 1.574 . S
C620 C636 1.368 . S
H621 C629 0.950 . S
H622 C627 0.950 . S
H623 C628 0.949 . S
H624 C630 0.950 . S
H625 C631 0.950 . S
H626 C632 0.949 . S
C627 H622 0.950 . S
C627 C629 1.327 . S
C627 C633 1.429 . S
C628 C620 1.574 . S
C628 H623 0.949 . S
C628 C634 1.368 . S
C629 C613 1.349 . S
C629 H621 0.950 . S
C629 C627 1.327 . S
C630 C618 1.349 . S
C630 H624 0.950 . S
C630 C631 1.327 . S
C631 H625 0.950 . S
C631 C630 1.327 . S
C631 C635 1.429 . S
C632 C615 1.574 . S
C632 H626 0.949 . S
C632 C636 1.368 . S
C633 C614 1.429 . S
C633 C627 1.429 . S
C633 C634 1.523 . S
C634 C615 1.368 . S
C634 C628 1.368 . S
C634 C633 1.523 . S
C635 C619 1.429 . S
C635 C631 1.429 . S
C635 C636 1.523 . S
C636 C620 1.368 . S
C636 C632 1.368 . S
C636 C635 1.523 . S
H637 C612 0.950 . S
H638 C614 0.950 . S
H639 C615 0.949 . S
H640 C617 0.950 . S
H641 C619 0.950 . S
C642 C643 1.349 . S
C642 C644 1.327 . S
C642 H667 0.950 . S
C643 C642 1.349 . S
C643 C659 1.349 . S
C644 C642 1.327 . S
C644 C663 1.429 . S
C644 H668 0.950 . S
C645 C662 1.574 . S
C645 C664 1.368 . S
C645 H669 0.949 . S
H646 C650 0.949 . S
C647 C648 1.349 . S
C647 C649 1.327 . S
C647 H670 0.950 . S
C648 C647 1.349 . S
C648 C660 1.349 . S
C649 C647 1.327 . S
C649 C665 1.429 . S
C649 H671 0.950 . S
C650 H646 0.949 . S
C650 C658 1.574 . S
C650 C666 1.368 . S
H651 C659 0.950 . S
H652 C657 0.950 . S
H653 C658 0.949 . S
H654 C660 0.950 . S
H655 C661 0.950 . S
H656 C662 0.949 . S
C657 H652 0.950 . S
C657 C659 1.327 . S
C657 C663 1.429 . S
C658 C650 1.574 . S
C658 H653 0.949 . S
C658 C664 1.368 . S
C659 C643 1.349 . S
C659 H651 0.950 . S
C659 C657 1.327 . S
C660 C648 1.349 . S
C660 H654 0.950 . S
C660 C661 1.327 . S
C661 H655 0.950 . S
C661 C660 1.327 . S
C661 C665 1.429 . S
C662 C645 1.574 . S
C662 H656 0.949 . S
C662 C666 1.368 . S
C663 C644 1.429 . S
C663 C657 1.429 . S
C663 C664 1.523 . S
C664 C645 1.368 . S
C664 C658 1.368 . S
C664 C663 1.523 . S
C665 C649 1.429 . S
C665 C661 1.429 . S
C665 C666 1.523 . S
C666 C650 1.368 . S
C666 C662 1.368 . S
C666 C665 1.523 . S
H667 C642 0.950 . S
H668 C644 0.950 . S
H669 C645 0.949 . S
H670 C647 0.950 . S
H671 C649 0.950 . S
C672 C673 1.349 . S
C672 C674 1.327 1_554 S
C672 H697 0.950 1_554 S
C673 C672 1.349 . S
C673 C689 1.349 . S
C674 C672 1.327 1_556 S
C674 C693 1.429 1_556 S
C674 H698 0.950 . S
C675 C692 1.574 . S
C675 C694 1.368 . S
C675 H699 0.949 . S
H676 C680 0.949 . S
C677 C678 1.349 . S
C677 C679 1.327 1_556 S
C677 H700 0.950 1_556 S
C678 C677 1.349 . S
C678 C690 1.349 . S
C679 C677 1.327 1_554 S
C679 C695 1.429 1_554 S
C679 H701 0.950 . S
C680 H676 0.949 . S
C680 C688 1.574 . S
C680 C696 1.368 . S
H681 C689 0.950 . S
H682 C687 0.950 . S
H683 C688 0.949 . S
H684 C690 0.950 . S
H685 C691 0.950 . S
H686 C692 0.949 . S
C687 H682 0.950 . S
C687 C689 1.327 . S
C687 C693 1.429 . S
C688 C680 1.574 . S
C688 H683 0.949 . S
C688 C694 1.368 1_556 S
C689 C673 1.349 . S
C689 H681 0.950 . S
C689 C687 1.327 . S
C690 C678 1.349 . S
C690 H684 0.950 . S
C690 C691 1.327 . S
C691 H685 0.950 . S
C691 C690 1.327 . S
C691 C695 1.429 . S
C692 C675 1.574 . S
C692 H686 0.949 . S
C692 C696 1.368 1_554 S
C693 C674 1.429 1_554 S
C693 C687 1.429 . S
C693 C694 1.523 . S
C694 C675 1.368 . S
C694 C688 1.368 1_554 S
C694 C693 1.523 . S
C695 C679 1.429 1_556 S
C695 C691 1.429 . S
C695 C696 1.523 . S
C696 C680 1.368 . S
C696 C692 1.368 1_556 S
C696 C695 1.523 . S
H697 C672 0.950 1_556 S
H698 C674 0.950 . S
H699 C675 0.949 . S
H700 C677 0.950 1_554 S
H701 C679 0.950 . S
C702 C703 1.349 . S
C702 C704 1.327 . S
C702 H727 0.950 . S
C703 C702 1.349 . S
C703 C719 1.349 . S
C704 C702 1.327 . S
C704 C723 1.429 . S
C704 H728 0.950 . S
C705 C722 1.574 . S
C705 C724 1.368 . S
C705 H729 0.949 . S
H706 C710 0.949 . S
C707 C708 1.349 . S
C707 C709 1.327 . S
C707 H730 0.950 . S
C708 C707 1.349 . S
C708 C720 1.349 . S
C709 C707 1.327 . S
C709 C725 1.429 . S
C709 H731 0.950 . S
C710 H706 0.949 . S
C710 C718 1.574 . S
C710 C726 1.368 . S
H711 C719 0.950 . S
H712 C717 0.950 . S
H713 C718 0.949 . S
H714 C720 0.950 . S
H715 C721 0.950 . S
H716 C722 0.949 . S
C717 H712 0.950 . S
C717 C719 1.327 . S
C717 C723 1.429 . S
C718 C710 1.574 . S
C718 H713 0.949 . S
C718 C724 1.368 . S
C719 C703 1.349 . S
C719 H711 0.950 . S
C719 C717 1.327 . S
C720 C708 1.349 . S
C720 H714 0.950 . S
C720 C721 1.327 . S
C721 H715 0.950 . S
C721 C720 1.327 . S
C721 C725 1.429 . S
C722 C705 1.574 . S
C722 H716 0.949 . S
C722 C726 1.368 . S
C723 C704 1.429 . S
C723 C717 1.429 . S
C723 C724 1.523 . S
C724 C705 1.368 . S
C724 C718 1.368 . S
C724 C723 1.523 . S
C725 C709 1.429 . S
C725 C721 1.429 . S
C725 C726 1.523 . S
C726 C710 1.368 . S
C726 C722 1.368 . S
C726 C725 1.523 . S
H727 C702 0.950 . S
H728 C704 0.950 . S
H729 C705 0.949 . S
H730 C707 0.950 . S
H731 C709 0.950 . S
C732 C733 1.349 . S
C732 C734 1.327 . S
C732 H757 0.950 . S
C733 C732 1.349 . S
C733 C749 1.349 . S
C734 C732 1.327 . S
C734 C753 1.429 . S
C734 H758 0.950 . S
C735 C752 1.574 . S
C735 C754 1.368 . S
C735 H759 0.949 . S
H736 C740 0.949 . S
C737 C738 1.349 . S
C737 C739 1.327 . S
C737 H760 0.950 . S
C738 C737 1.349 . S
C738 C750 1.349 . S
C739 C737 1.327 . S
C739 C755 1.429 . S
C739 H761 0.950 . S
C740 H736 0.949 . S
C740 C748 1.574 . S
C740 C756 1.368 . S
H741 C749 0.950 . S
H742 C747 0.950 . S
H743 C748 0.949 . S
H744 C750 0.950 . S
H745 C751 0.950 . S
H746 C752 0.949 . S
C747 H742 0.950 . S
C747 C749 1.327 . S
C747 C753 1.429 . S
C748 C740 1.574 . S
C748 H743 0.949 . S
C748 C754 1.368 . S
C749 C733 1.349 . S
C749 H741 0.950 . S
C749 C747 1.327 . S
C750 C738 1.349 . S
C750 H744 0.950 . S
C750 C751 1.327 . S
C751 H745 0.950 . S
C751 C750 1.327 . S
C751 C755 1.429 . S
C752 C735 1.574 . S
C752 H746 0.949 . S
C752 C756 1.368 . S
C753 C734 1.429 . S
C753 C747 1.429 . S
C753 C754 1.523 . S
C754 C735 1.368 . S
C754 C748 1.368 . S
C754 C753 1.523 . S
C755 C739 1.429 . S
C755 C751 1.429 . S
C755 C756 1.523 . S
C756 C740 1.368 . S
C756 C752 1.368 . S
C756 C755 1.523 . S
H757 C732 0.950 . S
H758 C734 0.950 . S
H759 C735 0.949 . S
H760 C737 0.950 . S
H761 C739 0.950 . S
C762 C763 1.349 . S
C762 C764 1.327 . S
C762 H787 0.950 . S
C763 C762 1.349 . S
C763 C779 1.349 . S
C764 C762 1.327 . S
C764 C783 1.429 . S
C764 H788 0.950 . S
C765 C782 1.574 . S
C765 C784 1.368 1_554 S
C765 H789 0.949 . S
H766 C770 0.949 . S
C767 C768 1.349 . S
C767 C769 1.327 . S
C767 H790 0.950 . S
C768 C767 1.349 . S
C768 C780 1.349 . S
C769 C767 1.327 . S
C769 C785 1.429 . S
C769 H791 0.950 . S
C770 H766 0.949 . S
C770 C778 1.574 . S
C770 C786 1.368 1_556 S
H771 C779 0.950 1_554 S
H772 C777 0.950 . S
H773 C778 0.949 . S
H774 C780 0.950 1_556 S
H775 C781 0.950 . S
H776 C782 0.949 . S
C777 H772 0.950 . S
C777 C779 1.327 1_554 S
C777 C783 1.429 1_554 S
C778 C770 1.574 . S
C778 H773 0.949 . S
C778 C784 1.368 . S
C779 C763 1.349 . S
C779 H771 0.950 1_556 S
C779 C777 1.327 1_556 S
C780 C768 1.349 . S
C780 H774 0.950 1_554 S
C780 C781 1.327 1_554 S
C781 H775 0.950 . S
C781 C780 1.327 1_556 S
C781 C785 1.429 1_556 S
C782 C765 1.574 . S
C782 H776 0.949 . S
C782 C786 1.368 . S
C783 C764 1.429 . S
C783 C777 1.429 1_556 S
C783 C784 1.523 . S
C784 C765 1.368 1_556 S
C784 C778 1.368 . S
C784 C783 1.523 . S
C785 C769 1.429 . S
C785 C781 1.429 1_554 S
C785 C786 1.523 . S
C786 C770 1.368 1_554 S
C786 C782 1.368 . S
C786 C785 1.523 . S
H787 C762 0.950 . S
H788 C764 0.950 . S
H789 C765 0.949 . S
H790 C767 0.950 . S
H791 C769 0.950 . S
C792 C793 1.349 . S
C792 C794 1.327 . S
C792 H817 0.950 . S
C793 C792 1.349 . S
C793 C809 1.349 . S
C794 C792 1.327 . S
C794 C813 1.429 . S
C794 H818 0.950 . S
C795 C812 1.574 1_545 S
C795 C814 1.368 . S
C795 H819 0.949 . S
H796 C800 0.949 . S
C797 C798 1.349 . S
C797 C799 1.327 . S
C797 H820 0.950 . S
C798 C797 1.349 . S
C798 C810 1.349 . S
C799 C797 1.327 . S
C799 C815 1.429 . S
C799 H821 0.950 . S
C800 H796 0.949 . S
C800 C808 1.574 1_565 S
C800 C816 1.368 . S
H801 C809 0.950 . S
H802 C807 0.950 . S
H803 C808 0.949 . S
H804 C810 0.950 . S
H805 C811 0.950 . S
H806 C812 0.949 . S
C807 H802 0.950 . S
C807 C809 1.327 . S
C807 C813 1.429 . S
C808 C800 1.574 1_545 S
C808 H803 0.949 . S
C808 C814 1.368 . S
C809 C793 1.349 . S
C809 H801 0.950 . S
C809 C807 1.327 . S
C810 C798 1.349 . S
C810 H804 0.950 . S
C810 C811 1.327 . S
C811 H805 0.950 . S
C811 C810 1.327 . S
C811 C815 1.429 . S
C812 C795 1.574 1_565 S
C812 H806 0.949 . S
C812 C816 1.368 . S
C813 C794 1.429 . S
C813 C807 1.429 . S
C813 C814 1.523 . S
C814 C795 1.368 . S
C814 C808 1.368 . S
C814 C813 1.523 . S
C815 C799 1.429 . S
C815 C811 1.429 . S
C815 C816 1.523 . S
C816 C800 1.368 . S
C816 C812 1.368 . S
C816 C815 1.523 . S
H817 C792 0.950 . S
H818 C794 0.950 . S
H819 C795 0.949 . S
H820 C797 0.950 . S
H821 C799 0.950 . S
C822 C823 1.349 . S
C822 C824 1.327 . S
C822 H847 0.950 . S
C823 C822 1.349 . S
C823 C839 1.349 . S
C824 C822 1.327 . S
C824 C843 1.429 . S
C824 H848 0.950 . S
C825 C842 1.574 . S
C825 C844 1.368 . S
C825 H849 0.949 . S
H826 C830 0.949 . S
C827 C828 1.349 . S
C827 C829 1.327 . S
C827 H850 0.950 . S
C828 C827 1.349 . S
C828 C840 1.349 . S
C829 C827 1.327 . S
C829 C845 1.429 . S
C829 H851 0.950 . S
C830 H826 0.949 . S
C830 C838 1.574 . S
C830 C846 1.368 . S
H831 C839 0.950 . S
H832 C837 0.950 . S
H833 C838 0.949 . S
H834 C840 0.950 . S
H835 C841 0.950 . S
H836 C842 0.949 . S
C837 H832 0.950 . S
C837 C839 1.327 . S
C837 C843 1.429 . S
C838 C830 1.574 . S
C838 H833 0.949 . S
C838 C844 1.368 . S
C839 C823 1.349 . S
C839 H831 0.950 . S
C839 C837 1.327 . S
C840 C828 1.349 . S
C840 H834 0.950 . S
C840 C841 1.327 . S
C841 H835 0.950 . S
C841 C840 1.327 . S
C841 C845 1.429 . S
C842 C825 1.574 . S
C842 H836 0.949 . S
C842 C846 1.368 . S
C843 C824 1.429 . S
C843 C837 1.429 . S
C843 C844 1.523 . S
C844 C825 1.368 . S
C844 C838 1.368 . S
C844 C843 1.523 . S
C845 C829 1.429 . S
C845 C841 1.429 . S
C845 C846 1.523 . S
C846 C830 1.368 . S
C846 C842 1.368 . S
C846 C845 1.523 . S
H847 C822 0.950 . S
H848 C824 0.950 . S
H849 C825 0.949 . S
H850 C827 0.950 . S
H851 C829 0.950 . S
C852 C853 1.349 . S
C852 C854 1.327 . S
C852 H877 0.950 1_556 S
C853 C852 1.349 . S
C853 C869 1.349 . S
C854 C852 1.327 . S
C854 C873 1.429 . S
C854 H878 0.950 1_556 S
C855 C872 1.574 1_655 S
C855 C874 1.368 . S
C855 H879 0.949 . S
H856 C860 0.949 1_554 S
C857 C858 1.349 . S
C857 C859 1.327 . S
C857 H880 0.950 . S
C858 C857 1.349 . S
C858 C870 1.349 . S
C859 C857 1.327 . S
C859 C875 1.429 . S
C859 H881 0.950 . S
C860 H856 0.949 1_556 S
C860 C868 1.574 1_455 S
C860 C876 1.368 . S
H861 C869 0.950 . S
H862 C867 0.950 . S
H863 C868 0.949 1_554 S
H864 C870 0.950 1_554 S
H865 C871 0.950 1_554 S
H866 C872 0.949 . S
C867 H862 0.950 . S
C867 C869 1.327 . S
C867 C873 1.429 . S
C868 C860 1.574 1_655 S
C868 H863 0.949 1_556 S
C868 C874 1.368 . S
C869 C853 1.349 . S
C869 H861 0.950 . S
C869 C867 1.327 . S
C870 C858 1.349 . S
C870 H864 0.950 1_556 S
C870 C871 1.327 . S
C871 H865 0.950 1_556 S
C871 C870 1.327 . S
C871 C875 1.429 . S
C872 C855 1.574 1_455 S
C872 H866 0.949 . S
C872 C876 1.368 . S
C873 C854 1.429 . S
C873 C867 1.429 . S
C873 C874 1.523 . S
C874 C855 1.368 . S
C874 C868 1.368 . S
C874 C873 1.523 . S
C875 C859 1.429 . S
C875 C871 1.429 . S
C875 C876 1.523 . S
C876 C860 1.368 . S
C876 C872 1.368 . S
C876 C875 1.523 . S
H877 C852 0.950 1_554 S
H878 C854 0.950 1_554 S
H879 C855 0.949 . S
H880 C857 0.950 . S
H881 C859 0.950 . S
C882 C883 1.349 . S
C882 C884 1.327 . S
C882 H907 0.950 . S
C883 C882 1.349 . S
C883 C899 1.349 . S
C884 C882 1.327 . S
C884 C903 1.429 . S
C884 H908 0.950 . S
C885 C902 1.574 1_455 S
C885 C904 1.368 . S
C885 H909 0.949 . S
H886 C890 0.949 . S
C887 C888 1.349 . S
C887 C889 1.327 . S
C887 H910 0.950 . S
C888 C887 1.349 . S
C888 C900 1.349 . S
C889 C887 1.327 . S
C889 C905 1.429 . S
C889 H911 0.950 . S
C890 H886 0.949 . S
C890 C898 1.574 1_655 S
C890 C906 1.368 . S
H891 C899 0.950 . S
H892 C897 0.950 . S
H893 C898 0.949 . S
H894 C900 0.950 . S
H895 C901 0.950 . S
H896 C902 0.949 . S
C897 H892 0.950 . S
C897 C899 1.327 . S
C897 C903 1.429 . S
C898 C890 1.574 1_455 S
C898 H893 0.949 . S
C898 C904 1.368 . S
C899 C883 1.349 . S
C899 H891 0.950 . S
C899 C897 1.327 . S
C900 C888 1.349 . S
C900 H894 0.950 . S
C900 C901 1.327 . S
C901 H895 0.950 . S
C901 C900 1.327 . S
C901 C905 1.429 . S
C902 C885 1.574 1_655 S
C902 H896 0.949 . S
C902 C906 1.368 . S
C903 C884 1.429 . S
C903 C897 1.429 . S
C903 C904 1.523 . S
C904 C885 1.368 . S
C904 C898 1.368 . S
C904 C903 1.523 . S
C905 C889 1.429 . S
C905 C901 1.429 . S
C905 C906 1.523 . S
C906 C890 1.368 . S
C906 C902 1.368 . S
C906 C905 1.523 . S
H907 C882 0.950 . S
H908 C884 0.950 . S
H909 C885 0.949 . S
H910 C887 0.950 . S
H911 C889 0.950 . S
C912 C913 1.349 . S
C912 C914 1.327 . S
C912 H937 0.950 . S
C913 C912 1.349 . S
C913 C929 1.349 . S
C914 C912 1.327 . S
C914 C933 1.429 . S
C914 H938 0.950 . S
C915 C932 1.574 1_545 S
C915 C934 1.368 . S
C915 H939 0.949 . S
H916 C920 0.949 . S
C917 C918 1.349 . S
C917 C919 1.327 . S
C917 H940 0.950 . S
C918 C917 1.349 . S
C918 C930 1.349 . S
C919 C917 1.327 . S
C919 C935 1.429 . S
C919 H941 0.950 . S
C920 H916 0.949 . S
C920 C928 1.574 1_565 S
C920 C936 1.368 . S
H921 C929 0.950 . S
H922 C927 0.950 . S
H923 C928 0.949 . S
H924 C930 0.950 . S
H925 C931 0.950 . S
H926 C932 0.949 . S
C927 H922 0.950 . S
C927 C929 1.327 . S
C927 C933 1.429 . S
C928 C920 1.574 1_545 S
C928 H923 0.949 . S
C928 C934 1.368 . S
C929 C913 1.349 . S
C929 H921 0.950 . S
C929 C927 1.327 . S
C930 C918 1.349 . S
C930 H924 0.950 . S
C930 C931 1.327 . S
C931 H925 0.950 . S
C931 C930 1.327 . S
C931 C935 1.429 . S
C932 C915 1.574 1_565 S
C932 H926 0.949 . S
C932 C936 1.368 . S
C933 C914 1.429 . S
C933 C927 1.429 . S
C933 C934 1.523 . S
C934 C915 1.368 . S
C934 C928 1.368 . S
C934 C933 1.523 . S
C935 C919 1.429 . S
C935 C931 1.429 . S
C935 C936 1.523 . S
C936 C920 1.368 . S
C936 C932 1.368 . S
C936 C935 1.523 . S
H937 C912 0.950 . S
H938 C914 0.950 . S
H939 C915 0.949 . S
H940 C917 0.950 . S
H941 C919 0.950 . S
C942 C943 1.349 . S
C942 C944 1.327 . S
C942 H967 0.950 1_554 S
C943 C942 1.349 . S
C943 C959 1.349 . S
C944 C942 1.327 . S
C944 C963 1.429 . S
C944 H968 0.950 1_554 S
C945 C962 1.574 . S
C945 C964 1.368 . S
C945 H969 0.949 . S
H946 C950 0.949 1_556 S
C947 C948 1.349 . S
C947 C949 1.327 . S
C947 H970 0.950 . S
C948 C947 1.349 . S
C948 C960 1.349 . S
C949 C947 1.327 . S
C949 C965 1.429 . S
C949 H971 0.950 . S
C950 H946 0.949 1_554 S
C950 C958 1.574 . S
C950 C966 1.368 . S
H951 C959 0.950 . S
H952 C957 0.950 . S
H953 C958 0.949 1_556 S
H954 C960 0.950 1_556 S
H955 C961 0.950 1_556 S
H956 C962 0.949 . S
C957 H952 0.950 . S
C957 C959 1.327 . S
C957 C963 1.429 . S
C958 C950 1.574 . S
C958 H953 0.949 1_554 S
C958 C964 1.368 . S
C959 C943 1.349 . S
C959 H951 0.950 . S
C959 C957 1.327 . S
C960 C948 1.349 . S
C960 H954 0.950 1_554 S
C960 C961 1.327 . S
C961 H955 0.950 1_554 S
C961 C960 1.327 . S
C961 C965 1.429 . S
C962 C945 1.574 . S
C962 H956 0.949 . S
C962 C966 1.368 . S
C963 C944 1.429 . S
C963 C957 1.429 . S
C963 C964 1.523 . S
C964 C945 1.368 . S
C964 C958 1.368 . S
C964 C963 1.523 . S
C965 C949 1.429 . S
C965 C961 1.429 . S
C965 C966 1.523 . S
C966 C950 1.368 . S
C966 C962 1.368 . S
C966 C965 1.523 . S
H967 C942 0.950 1_556 S
H968 C944 0.950 1_556 S
H969 C945 0.949 . S
H970 C947 0.950 . S
H971 C949 0.950 . S
C972 C973 1.349 . S
C972 C974 1.327 . S
C972 H997 0.950 . S
C973 C972 1.349 . S
C973 C989 1.349 . S
C974 C972 1.327 . S
C974 C993 1.429 . S
C974 H998 0.950 . S
C975 C992 1.574 . S
C975 C994 1.368 . S
C975 H999 0.949 . S
H976 C980 0.949 . S
C977 C978 1.349 . S
C977 C979 1.327 . S
C977 H1000 0.950 . S
C978 C977 1.349 . S
C978 C990 1.349 . S
C979 C977 1.327 . S
C979 C995 1.429 . S
C979 H1001 0.950 . S
C980 H976 0.949 . S
C980 C988 1.574 . S
C980 C996 1.368 . S
H981 C989 0.950 . S
H982 C987 0.950 . S
H983 C988 0.949 . S
H984 C990 0.950 . S
H985 C991 0.950 . S
H986 C992 0.949 . S
C987 H982 0.950 . S
C987 C989 1.327 . S
C987 C993 1.429 . S
C988 C980 1.574 . S
C988 H983 0.949 . S
C988 C994 1.368 . S
C989 C973 1.349 . S
C989 H981 0.950 . S
C989 C987 1.327 . S
C990 C978 1.349 . S
C990 H984 0.950 . S
C990 C991 1.327 . S
C991 H985 0.950 . S
C991 C990 1.327 . S
C991 C995 1.429 . S
C992 C975 1.574 . S
C992 H986 0.949 . S
C992 C996 1.368 . S
C993 C974 1.429 . S
C993 C987 1.429 . S
C993 C994 1.523 . S
C994 C975 1.368 . S
C994 C988 1.368 . S
C994 C993 1.523 . S
C995 C979 1.429 . S
C995 C991 1.429 . S
C995 C996 1.523 . S
C996 C980 1.368 . S
C996 C992 1.368 . S
C996 C995 1.523 . S
H997 C972 0.950 . S
H998 C974 0.950 . S
H999 C975 0.949 . S
H1000 C977 0.950 . S
H1001 C979 0.950 . S
C1002 C1003 1.349 . S
C1002 C1004 1.327 . S
C1002 H1027 0.950 . S
C1003 C1002 1.349 . S
C1003 C1019 1.349 . S
C1004 C1002 1.327 . S
C1004 C1023 1.429 . S
C1004 H1028 0.950 . S
C1005 C1022 1.574 . S
C1005 C1024 1.368 . S
C1005 H1029 0.949 . S
H1006 C1010 0.949 . S
C1007 C1008 1.349 . S
C1007 C1009 1.327 . S
C1007 H1030 0.950 . S
C1008 C1007 1.349 . S
C1008 C1020 1.349 . S
C1009 C1007 1.327 . S
C1009 C1025 1.429 . S
C1009 H1031 0.950 . S
C1010 H1006 0.949 . S
C1010 C1018 1.574 . S
C1010 C1026 1.368 . S
H1011 C1019 0.950 . S
H1012 C1017 0.950 . S
H1013 C1018 0.949 . S
H1014 C1020 0.950 . S
H1015 C1021 0.950 . S
H1016 C1022 0.949 . S
C1017 H1012 0.950 . S
C1017 C1019 1.327 . S
C1017 C1023 1.429 . S
C1018 C1010 1.574 . S
C1018 H1013 0.949 . S
C1018 C1024 1.368 . S
C1019 C1003 1.349 . S
C1019 H1011 0.950 . S
C1019 C1017 1.327 . S
C1020 C1008 1.349 . S
C1020 H1014 0.950 . S
C1020 C1021 1.327 . S
C1021 H1015 0.950 . S
C1021 C1020 1.327 . S
C1021 C1025 1.429 . S
C1022 C1005 1.574 . S
C1022 H1016 0.949 . S
C1022 C1026 1.368 . S
C1023 C1004 1.429 . S
C1023 C1017 1.429 . S
C1023 C1024 1.523 . S
C1024 C1005 1.368 . S
C1024 C1018 1.368 . S
C1024 C1023 1.523 . S
C1025 C1009 1.429 . S
C1025 C1021 1.429 . S
C1025 C1026 1.523 . S
C1026 C1010 1.368 . S
C1026 C1022 1.368 . S
C1026 C1025 1.523 . S
H1027 C1002 0.950 . S
H1028 C1004 0.950 . S
H1029 C1005 0.949 . S
H1030 C1007 0.950 . S
H1031 C1009 0.950 . S
C1032 C1033 1.349 . S
C1032 C1034 1.327 . S
C1032 H1057 0.950 . S
C1033 C1032 1.349 . S
C1033 C1049 1.349 . S
C1034 C1032 1.327 . S
C1034 C1053 1.429 . S
C1034 H1058 0.950 . S
C1035 C1052 1.574 . S
C1035 C1054 1.368 . S
C1035 H1059 0.949 . S
H1036 C1040 0.949 . S
C1037 C1038 1.349 . S
C1037 C1039 1.327 . S
C1037 H1060 0.950 . S
C1038 C1037 1.349 . S
C1038 C1050 1.349 . S
C1039 C1037 1.327 . S
C1039 C1055 1.429 . S
C1039 H1061 0.950 . S
C1040 H1036 0.949 . S
C1040 C1048 1.574 . S
C1040 C1056 1.368 . S
H1041 C1049 0.950 . S
H1042 C1047 0.950 . S
H1043 C1048 0.949 . S
H1044 C1050 0.950 . S
H1045 C1051 0.950 . S
H1046 C1052 0.949 . S
C1047 H1042 0.950 . S
C1047 C1049 1.327 . S
C1047 C1053 1.429 . S
C1048 C1040 1.574 . S
C1048 H1043 0.949 . S
C1048 C1054 1.368 . S
C1049 C1033 1.349 . S
C1049 H1041 0.950 . S
C1049 C1047 1.327 . S
C1050 C1038 1.349 . S
C1050 H1044 0.950 . S
C1050 C1051 1.327 . S
C1051 H1045 0.950 . S
C1051 C1050 1.327 . S
C1051 C1055 1.429 . S
C1052 C1035 1.574 . S
C1052 H1046 0.949 . S
C1052 C1056 1.368 . S
C1053 C1034 1.429 . S
C1053 C1047 1.429 . S
C1053 C1054 1.523 . S
C1054 C1035 1.368 . S
C1054 C1048 1.368 . S
C1054 C1053 1.523 . S
C1055 C1039 1.429 . S
C1055 C1051 1.429 . S
C1055 C1056 1.523 . S
C1056 C1040 1.368 . S
C1056 C1052 1.368 . S
C1056 C1055 1.523 . S
H1057 C1032 0.950 . S
H1058 C1034 0.950 . S
H1059 C1035 0.949 . S
H1060 C1037 0.950 . S
H1061 C1039 0.950 . S
C1062 C1063 1.349 . S
C1062 C1064 1.327 . S
C1062 H1087 0.950 . S
C1063 C1062 1.349 . S
C1063 C1079 1.349 . S
C1064 C1062 1.327 . S
C1064 C1083 1.429 . S
C1064 H1088 0.950 . S
C1065 C1082 1.574 . S
C1065 C1084 1.368 . S
C1065 H1089 0.949 . S
H1066 C1070 0.949 . S
C1067 C1068 1.349 . S
C1067 C1069 1.327 . S
C1067 H1090 0.950 . S
C1068 C1067 1.349 . S
C1068 C1080 1.349 . S
C1069 C1067 1.327 . S
C1069 C1085 1.429 . S
C1069 H1091 0.950 . S
C1070 H1066 0.949 . S
C1070 C1078 1.574 . S
C1070 C1086 1.368 . S
H1071 C1079 0.950 . S
H1072 C1077 0.950 . S
H1073 C1078 0.949 . S
H1074 C1080 0.950 . S
H1075 C1081 0.950 . S
H1076 C1082 0.949 . S
C1077 H1072 0.950 . S
C1077 C1079 1.327 . S
C1077 C1083 1.429 . S
C1078 C1070 1.574 . S
C1078 H1073 0.949 . S
C1078 C1084 1.368 . S
C1079 C1063 1.349 . S
C1079 H1071 0.950 . S
C1079 C1077 1.327 . S
C1080 C1068 1.349 . S
C1080 H1074 0.950 . S
C1080 C1081 1.327 . S
C1081 H1075 0.950 . S
C1081 C1080 1.327 . S
C1081 C1085 1.429 . S
C1082 C1065 1.574 . S
C1082 H1076 0.949 . S
C1082 C1086 1.368 . S
C1083 C1064 1.429 . S
C1083 C1077 1.429 . S
C1083 C1084 1.523 . S
C1084 C1065 1.368 . S
C1084 C1078 1.368 . S
C1084 C1083 1.523 . S
C1085 C1069 1.429 . S
C1085 C1081 1.429 . S
C1085 C1086 1.523 . S
C1086 C1070 1.368 . S
C1086 C1082 1.368 . S
C1086 C1085 1.523 . S
H1087 C1062 0.950 . S
H1088 C1064 0.950 . S
H1089 C1065 0.949 . S
H1090 C1067 0.950 . S
H1091 C1069 0.950 . S
C1092 C1093 1.349 . S
C1092 C1094 1.327 . S
C1092 H1117 0.950 . S
C1093 C1092 1.349 . S
C1093 C1109 1.349 . S
C1094 C1092 1.327 . S
C1094 C1113 1.429 . S
C1094 H1118 0.950 . S
C1095 C1112 1.574 . S
C1095 C1114 1.368 . S
C1095 H1119 0.949 . S
H1096 C1100 0.949 . S
C1097 C1098 1.349 . S
C1097 C1099 1.327 . S
C1097 H1120 0.950 . S
C1098 C1097 1.349 . S
C1098 C1110 1.349 . S
C1099 C1097 1.327 . S
C1099 C1115 1.429 . S
C1099 H1121 0.950 . S
C1100 H1096 0.949 . S
C1100 C1108 1.574 . S
C1100 C1116 1.368 . S
H1101 C1109 0.950 . S
H1102 C1107 0.950 . S
H1103 C1108 0.949 . S
H1104 C1110 0.950 . S
H1105 C1111 0.950 . S
H1106 C1112 0.949 . S
C1107 H1102 0.950 . S
C1107 C1109 1.327 . S
C1107 C1113 1.429 . S
C1108 C1100 1.574 . S
C1108 H1103 0.949 . S
C1108 C1114 1.368 . S
C1109 C1093 1.349 . S
C1109 H1101 0.950 . S
C1109 C1107 1.327 . S
C1110 C1098 1.349 . S
C1110 H1104 0.950 . S
C1110 C1111 1.327 . S
C1111 H1105 0.950 . S
C1111 C1110 1.327 . S
C1111 C1115 1.429 . S
C1112 C1095 1.574 . S
C1112 H1106 0.949 . S
C1112 C1116 1.368 . S
C1113 C1094 1.429 . S
C1113 C1107 1.429 . S
C1113 C1114 1.523 . S
C1114 C1095 1.368 . S
C1114 C1108 1.368 . S
C1114 C1113 1.523 . S
C1115 C1099 1.429 . S
C1115 C1111 1.429 . S
C1115 C1116 1.523 . S
C1116 C1100 1.368 . S
C1116 C1112 1.368 . S
C1116 C1115 1.523 . S
H1117 C1092 0.950 . S
H1118 C1094 0.950 . S
H1119 C1095 0.949 . S
H1120 C1097 0.950 . S
H1121 C1099 0.950 . S
C1122 C1123 1.349 . S
C1122 C1124 1.327 . S
C1122 H1147 0.950 . S
C1123 C1122 1.349 . S
C1123 C1139 1.349 . S
C1124 C1122 1.327 . S
C1124 C1143 1.429 . S
C1124 H1148 0.950 . S
C1125 C1142 1.574 . S
C1125 C1144 1.368 . S
C1125 H1149 0.949 . S
H1126 C1130 0.949 . S
C1127 C1128 1.349 . S
C1127 C1129 1.327 . S
C1127 H1150 0.950 . S
C1128 C1127 1.349 . S
C1128 C1140 1.349 . S
C1129 C1127 1.327 . S
C1129 C1145 1.429 . S
C1129 H1151 0.950 . S
C1130 H1126 0.949 . S
C1130 C1138 1.574 . S
C1130 C1146 1.368 . S
H1131 C1139 0.950 . S
H1132 C1137 0.950 . S
H1133 C1138 0.949 . S
H1134 C1140 0.950 . S
H1135 C1141 0.950 . S
H1136 C1142 0.949 . S
C1137 H1132 0.950 . S
C1137 C1139 1.327 . S
C1137 C1143 1.429 . S
C1138 C1130 1.574 . S
C1138 H1133 0.949 . S
C1138 C1144 1.368 . S
C1139 C1123 1.349 . S
C1139 H1131 0.950 . S
C1139 C1137 1.327 . S
C1140 C1128 1.349 . S
C1140 H1134 0.950 . S
C1140 C1141 1.327 . S
C1141 H1135 0.950 . S
C1141 C1140 1.327 . S
C1141 C1145 1.429 . S
C1142 C1125 1.574 . S
C1142 H1136 0.949 . S
C1142 C1146 1.368 . S
C1143 C1124 1.429 . S
C1143 C1137 1.429 . S
C1143 C1144 1.523 . S
C1144 C1125 1.368 . S
C1144 C1138 1.368 . S
C1144 C1143 1.523 . S
C1145 C1129 1.429 . S
C1145 C1141 1.429 . S
C1145 C1146 1.523 . S
C1146 C1130 1.368 . S
C1146 C1142 1.368 . S
C1146 C1145 1.523 . S
H1147 C1122 0.950 . S
H1148 C1124 0.950 . S
H1149 C1125 0.949 . S
H1150 C1127 0.950 . S
H1151 C1129 0.950 . S
C433 C4 1.407 . S
C438 C364 1.407 . S
C463 C40 1.407 . S
C468 C400 1.407 . S
C493 C220 1.407 . S
C498 C76 1.407 . S
C523 C112 1.407 . S
C528 C256 1.407 . S
C553 C292 1.407 . S
C558 C148 1.407 . S
C583 C328 1.407 . S
C588 C184 1.407 . S
C613 C218 0.347 . S
C618 C2 0.347 . S
C643 C254 0.347 . S
C648 C38 0.347 . S
C673 C290 0.347 . S
C678 C74 0.347 . S
C703 C110 0.347 . S
C708 C326 0.347 . S
C733 C146 0.347 . S
C738 C362 0.347 . S
C763 C182 0.347 . S
C768 C398 0.347 . S
C793 C14 1.156 . S
C798 C122 1.156 . S
C823 C50 1.157 . S
C828 C158 1.157 . S
C853 C86 1.157 . S
C858 C194 1.157 . S
C883 C338 1.157 . S
C888 C230 1.157 . S
C913 C374 1.157 . S
C918 C266 1.157 . S
C943 C410 1.157 . S
C948 C302 1.157 . S
C973 C3 1.469 . S
C978 C291 1.469 . S
C1003 C327 1.470 . S
C1008 C39 1.470 . S
C1033 C75 1.470 . S
C1038 C363 1.470 . S
C1063 C399 1.469 . S
C1068 C111 1.469 . S
C1093 C147 1.470 . S
C1098 C219 1.470 . S
C1123 C183 1.470 . S
C1128 C255 1.470 . S
