# Generated by pormake.
# Topology zga, (5)-cn, num edge types: 1
# Building blocks:
#     Node 0, Type 0, BuildingBlock: XOMCOT_clean_sbu_1, # of connection points: 5
#     Node 1, Type 0, BuildingBlock: XOMCOT_clean_sbu_1, # of connection points: 5
#     Node 2, Type 0, BuildingBlock: XOMCOT_clean_sbu_1, # of connection points: 5
#     Node 3, Type 0, BuildingBlock: XOMCOT_clean_sbu_1, # of connection points: 5
#     Node 4, Type 0, BuildingBlock: XOMCOT_clean_sbu_1, # of connection points: 5
#     Node 5, Type 0, BuildingBlock: XOMCOT_clean_sbu_1, # of connection points: 5
#     Node 6, Type 0, BuildingBlock: XOMCOT_clean_sbu_1, # of connection points: 5
#     Node 7, Type 0, BuildingBlock: XOMCOT_clean_sbu_1, # of connection points: 5
#     Node 8, Type 0, BuildingBlock: XOMCOT_clean_sbu_1, # of connection points: 5
#     Node 9, Type 0, BuildingBlock: XOMCOT_clean_sbu_1, # of connection points: 5
#     Node 10, Type 0, BuildingBlock: XOMCOT_clean_sbu_1, # of connection points: 5
#     Node 11, Type 0, BuildingBlock: XOMCOT_clean_sbu_1, # of connection points: 5
#     Node 12, Type 0, BuildingBlock: XOMCOT_clean_sbu_1, # of connection points: 5
#     Node 13, Type 0, BuildingBlock: XOMCOT_clean_sbu_1, # of connection points: 5
#     Node 14, Type 0, BuildingBlock: XOMCOT_clean_sbu_1, # of connection points: 5
#     Node 15, Type 0, BuildingBlock: XOMCOT_clean_sbu_1, # of connection points: 5
#     Edge 16, Type (0, 0), None
#     Edge 17, Type (0, 0), None
#     Edge 18, Type (0, 0), None
#     Edge 19, Type (0, 0), None
#     Edge 20, Type (0, 0), None
#     Edge 21, Type (0, 0), None
#     Edge 22, Type (0, 0), None
#     Edge 23, Type (0, 0), None
#     Edge 24, Type (0, 0), None
#     Edge 25, Type (0, 0), None
#     Edge 26, Type (0, 0), None
#     Edge 27, Type (0, 0), None
#     Edge 28, Type (0, 0), None
#     Edge 29, Type (0, 0), None
#     Edge 30, Type (0, 0), None
#     Edge 31, Type (0, 0), None
#     Edge 32, Type (0, 0), None
#     Edge 33, Type (0, 0), None
#     Edge 34, Type (0, 0), None
#     Edge 35, Type (0, 0), None
#     Edge 36, Type (0, 0), None
#     Edge 37, Type (0, 0), None
#     Edge 38, Type (0, 0), None
#     Edge 39, Type (0, 0), None
#     Edge 40, Type (0, 0), None
#     Edge 41, Type (0, 0), None
#     Edge 42, Type (0, 0), None
#     Edge 43, Type (0, 0), None
#     Edge 44, Type (0, 0), None
#     Edge 45, Type (0, 0), None
#     Edge 46, Type (0, 0), None
#     Edge 47, Type (0, 0), None
#     Edge 48, Type (0, 0), None
#     Edge 49, Type (0, 0), None
#     Edge 50, Type (0, 0), None
#     Edge 51, Type (0, 0), None
#     Edge 52, Type (0, 0), None
#     Edge 53, Type (0, 0), None
#     Edge 54, Type (0, 0), None
#     Edge 55, Type (0, 0), None
# Relax obj value: 0.062
# Max RMSD: 0.105
# Mean RMSD: 0.105
data_MOF--net-zga--node1-XOMCOT_clean_sbu_1--edge1-none
_symmetry_space_group_name_H-M    P1
_symmetry_Int_Tables_number       1
_symmetry_cell_setting            triclinic
loop_
_symmetry_equiv_pos_as_xyz
'x, y, z'
_cell_length_a     22.993054
_cell_length_b     55.238061
_cell_length_c     9.2950906
_cell_angle_alpha  90.005611
_cell_angle_beta   90.001141
_cell_angle_gamma 99.726205
loop_
_atom_site_label
_atom_site_type_symbol
_atom_site_fract_x
_atom_site_fract_y
_atom_site_fract_z
_atom_type_partial_charge
C0 C 0.26056 0.53152 0.88327 0.0
C1 C 0.25525 0.53233 0.73466 0.0
N2 N 0.19733 0.52922 0.70363 0.0
N3 N 0.20614 0.52774 0.94295 0.0
C4 C 0.1689 0.52652 0.82968 0.0
H5 H 0.30135 0.53361 0.94344 0.0
Co6 Co 0.18199 0.52661 0.13548 0.0
C7 C 0.04904 0.50421 0.07018 0.0
O8 O 1.02386 0.51925 0.14918 0.0
N9 N 0.15806 0.52537 0.3288 0.0
C10 C 0.1198 0.51078 0.53795 0.0
C11 C 0.11307 0.50998 0.39117 0.0
C12 C 0.19224 0.53498 0.44062 0.0
N13 N 0.16998 0.52621 0.56772 0.0
O14 O 0.21639 0.49813 0.17269 0.0
H15 H 0.08066 0.49696 0.33557 0.0
H16 H 0.23438 0.54688 0.42919 0.0
O17 O 0.10556 0.50597 0.06951 0.0
C18 C 0.26642 0.50404 0.23602 0.0
O19 O 0.29176 0.52717 0.23991 0.0
N20 N 0.15795 0.55668 0.10953 0.0
C21 C 0.15651 0.60665 0.08109 0.0
C22 C 0.10927 0.5893 0.02936 0.0
C23 C 0.11145 0.56417 0.04164 0.0
C24 C 0.20443 0.57344 0.15655 0.0
C25 C 0.20474 0.59846 0.14351 0.0
H26 H 0.07709 0.55119 0.99241 0.0
H27 H 0.24247 0.56722 0.20229 0.0
H28 H 0.12149 0.52415 0.83754 0.0
H29 H 0.29063 0.53442 0.65651 0.0
H30 H 0.09289 0.49931 0.61551 0.0
H31 H 0.07168 0.59514 0.97803 0.0
H32 H 0.24191 0.61129 0.18471 0.0
C33 C 0.05019 0.7083 0.8832 0.0
C34 C 0.0555 0.70749 0.73459 0.0
N35 N 0.11342 0.71059 0.70357 0.0
N36 N 0.10461 0.71207 0.9429 0.0
C37 C 0.14184 0.71329 0.82963 0.0
H38 H 1.0094 0.70623 0.94336 0.0
Co39 Co 0.12876 0.71321 0.13542 0.0
C40 C 0.26171 0.7356 0.07015 0.0
O41 O 0.28689 0.72058 0.14915 0.0
N42 N 0.15269 0.71444 0.32875 0.0
C43 C 0.19094 0.72904 0.53792 0.0
C44 C 0.19767 0.72983 0.39115 0.0
C45 C 0.11851 0.70483 0.44055 0.0
N46 N 0.14077 0.7136 0.56766 0.0
O47 O 0.09436 0.74169 0.17266 0.0
H48 H 0.23008 0.74286 0.33557 0.0
H49 H 0.07637 0.69293 0.42911 0.0
O50 O 0.20518 0.73384 0.06947 0.0
C51 C 0.04433 0.73578 0.23598 0.0
O52 O 1.01899 0.71264 0.23985 0.0
N53 N 0.1528 0.68313 0.10946 0.0
C54 C 0.15424 0.63316 0.08108 0.0
C55 C 0.20148 0.65051 0.02937 0.0
C56 C 0.19931 0.67564 0.04162 0.0
C57 C 0.1063 0.66638 0.15644 0.0
C58 C 0.106 0.64135 0.14342 0.0
H59 H 0.23367 0.68862 0.99243 0.0
H60 H 0.06827 0.6726 0.20214 0.0
H61 H 0.18926 0.71564 0.8375 0.0
H62 H 1.02011 0.70542 0.65643 0.0
H63 H 0.21786 0.74051 0.6155 0.0
H64 H 0.23909 0.64467 0.97809 0.0
H65 H 0.06883 0.62853 0.1846 0.0
C66 C 0.80019 0.4583 0.16514 0.0
C67 C 0.8055 0.45748 0.31374 0.0
N68 N 0.86343 0.4606 0.34477 0.0
N69 N 0.85462 0.46208 0.10545 0.0
C70 C 0.89185 0.4633 0.21872 0.0
H71 H 0.75941 0.45621 0.10496 0.0
Co72 Co 0.87877 0.46321 0.91292 0.0
C73 C 1.01172 0.4856 0.97822 0.0
O74 O 0.03689 0.47057 0.89923 0.0
N75 N 0.9027 0.46444 0.7196 0.0
C76 C 0.94095 0.47904 0.51046 0.0
C77 C 0.94768 0.47983 0.65723 0.0
C78 C 0.86852 0.45484 0.60779 0.0
N79 N 0.89078 0.46361 0.48069 0.0
O80 O 0.84437 0.49169 0.87571 0.0
H81 H 0.98009 0.49286 0.71283 0.0
H82 H 0.82637 0.44293 0.61921 0.0
O83 O 0.95519 0.48385 0.97889 0.0
C84 C 0.79433 0.48578 0.81238 0.0
O85 O 0.769 0.46265 0.80849 0.0
N86 N 0.90281 0.43313 0.93887 0.0
C87 C 0.90424 0.38316 0.96731 0.0
C88 C 0.95148 0.40052 1.01904 0.0
C89 C 0.9493 0.42564 1.00677 0.0
C90 C 0.85632 0.41638 0.89185 0.0
C91 C 0.85601 0.39135 0.90489 0.0
H92 H 0.98366 0.43862 0.05599 0.0
H93 H 0.81829 0.4226 0.84611 0.0
H94 H 0.93927 0.46566 0.21086 0.0
H95 H 0.77012 0.4554 0.3919 0.0
H96 H 0.96787 0.49051 0.4329 0.0
H97 H 0.98908 0.39468 0.07037 0.0
H98 H 0.81885 0.37853 0.86369 0.0
C99 C 1.01057 0.28151 0.16521 0.0
C100 C 1.00526 0.28232 0.31381 0.0
N101 N 0.94733 0.27922 0.34483 0.0
N102 N 0.95614 0.27774 0.10551 0.0
C103 C 0.91891 0.27653 0.21877 0.0
H104 H 0.05135 0.28359 0.10504 0.0
Co105 Co 0.932 0.27661 0.91298 0.0
C106 C 0.79904 0.25421 0.97825 0.0
O107 O 0.77386 0.26924 0.89925 0.0
N108 N 0.90807 0.27537 0.71965 0.0
C109 C 0.86981 0.26078 0.51048 0.0
C110 C 0.86308 0.25998 0.65726 0.0
C111 C 0.94224 0.28498 0.60785 0.0
N112 N 0.91998 0.27621 0.48074 0.0
O113 O 0.96639 0.24813 0.87574 0.0
H114 H 0.83067 0.24696 0.71284 0.0
H115 H 0.98439 0.29688 0.61929 0.0
O116 O 0.85557 0.25597 0.97893 0.0
C117 C 1.01643 0.25404 0.81243 0.0
O118 O 0.04176 0.27717 0.80855 0.0
N119 N 0.90796 0.30669 0.93894 0.0
C120 C 0.90651 0.35666 0.96732 0.0
C121 C 0.85927 0.3393 1.01903 0.0
C122 C 0.86145 0.31418 1.00678 0.0
C123 C 0.95445 0.32344 0.89196 0.0
C124 C 0.95476 0.34846 0.90498 0.0
H125 H 0.82708 0.3012 0.05597 0.0
H126 H 0.99249 0.31721 0.84626 0.0
H127 H 0.87149 0.27417 0.2109 0.0
H128 H 0.04064 0.2844 0.39198 0.0
H129 H 0.84289 0.24931 0.4329 0.0
H130 H 0.82167 0.34515 0.07031 0.0
H131 H 0.99193 0.36129 0.86381 0.0
C132 C 0.26056 0.03151 0.38327 0.0
C133 C 0.25525 0.03233 0.23466 0.0
N134 N 0.19733 0.02922 0.20364 0.0
N135 N 0.20614 0.02774 0.44296 0.0
C136 C 0.1689 0.02652 0.32969 0.0
H137 H 0.30135 0.0336 0.44344 0.0
Co138 Co 0.18199 0.02661 0.63548 0.0
C139 C 0.04904 0.00421 0.57018 0.0
O140 O 1.02386 0.01924 0.64918 0.0
N141 N 0.15806 0.02537 0.82881 0.0
C142 C 0.1198 0.01078 0.03795 0.0
C143 C 0.11307 0.00998 0.89118 0.0
C144 C 0.19224 0.03498 0.94062 0.0
N145 N 0.16998 0.02621 0.06772 0.0
O146 O 0.21639 -0.00187 0.6727 0.0
H147 H 0.08066 -0.00304 0.83558 0.0
H148 H 0.23438 0.04688 0.9292 0.0
O149 O 0.10556 0.00597 0.56951 0.0
C150 C 0.26642 0.00404 0.73602 0.0
O151 O 0.29176 0.02717 0.73991 0.0
N152 N 0.15795 0.05668 0.60954 0.0
C153 C 0.15652 0.10665 0.58112 0.0
C154 C 0.10928 0.0893 0.5294 0.0
C155 C 0.11145 0.06417 0.54166 0.0
C156 C 0.20444 0.07344 0.65655 0.0
C157 C 0.20475 0.09846 0.64352 0.0
H158 H 0.07709 0.05119 0.49245 0.0
H159 H 0.24247 0.06721 0.70228 0.0
H160 H 0.12149 0.02416 0.33755 0.0
H161 H 0.29063 0.03441 0.15651 0.0
H162 H 0.09289 -0.00069 0.11551 0.0
H163 H 0.07168 0.09514 0.47808 0.0
H164 H 0.24192 0.11129 0.68471 0.0
C165 C 0.0502 0.20831 0.38326 0.0
C166 C 0.05551 0.20749 0.23465 0.0
N167 N 0.11344 0.21059 0.20364 0.0
N168 N 0.10463 0.21208 0.44296 0.0
C169 C 0.14186 0.21329 0.3297 0.0
H170 H 1.00942 0.20623 0.44342 0.0
Co171 Co 0.12878 0.21321 0.63549 0.0
C172 C 0.26173 0.2356 0.57021 0.0
O173 O 0.28691 0.22058 0.64921 0.0
N174 N 0.15271 0.21444 0.82882 0.0
C175 C 0.19096 0.22904 0.03799 0.0
C176 C 0.19769 0.22983 0.89121 0.0
C177 C 0.11853 0.20484 0.94061 0.0
N178 N 0.14079 0.2136 0.06773 0.0
O179 O 0.09438 0.24169 0.67273 0.0
H180 H 0.2301 0.24286 0.83563 0.0
H181 H 0.07638 0.19293 0.92917 0.0
O182 O 0.2052 0.23385 0.56954 0.0
C183 C 0.04434 0.23578 0.73605 0.0
O184 O 1.01901 0.21265 0.73991 0.0
N185 N 0.15281 0.18313 0.60952 0.0
C186 C 0.15425 0.13316 0.58112 0.0
C187 C 0.20149 0.15051 0.52942 0.0
C188 C 0.19932 0.17564 0.54168 0.0
C189 C 0.10632 0.16638 0.65651 0.0
C190 C 0.10601 0.14135 0.64348 0.0
H191 H 0.23368 0.18862 0.49249 0.0
H192 H 0.06828 0.1726 0.70221 0.0
H193 H 0.18928 0.21565 0.33757 0.0
H194 H 1.02013 0.20542 0.15649 0.0
H195 H 0.21788 0.24051 0.11556 0.0
H196 H 0.23909 0.14467 0.47813 0.0
H197 H 0.06884 0.12853 0.68465 0.0
C198 C 0.80019 0.9583 0.66513 0.0
C199 C 0.8055 0.95749 0.81374 0.0
N200 N 0.86343 0.96059 0.84477 0.0
N201 N 0.85462 0.96208 0.60544 0.0
C202 C 0.89185 0.9633 0.71872 0.0
H203 H 0.75941 0.95622 0.60496 0.0
Co204 Co 0.87877 0.96321 0.41292 0.0
C205 C 1.01172 0.9856 0.47822 0.0
O206 O 0.0369 0.97057 0.39922 0.0
N207 N 0.9027 0.96444 0.2196 0.0
C208 C 0.94095 0.97904 1.01045 0.0
C209 C 0.94768 0.97983 0.15723 0.0
C210 C 0.86852 0.95483 0.10778 0.0
N211 N 0.89078 0.9636 0.98068 0.0
O212 O 0.84437 0.99169 0.37571 0.0
H213 H 0.98009 0.99286 0.21282 0.0
H214 H 0.82637 0.94293 0.1192 0.0
O215 O 0.95519 0.98385 0.47889 0.0
C216 C 0.79433 0.98578 0.31238 0.0
O217 O 0.769 0.96265 0.30849 0.0
N218 N 0.9028 0.93313 0.43887 0.0
C219 C 0.90424 0.88316 0.46728 0.0
C220 C 0.95148 0.90052 0.519 0.0
C221 C 0.9493 0.92564 0.50674 0.0
C222 C 0.85631 0.91638 0.39185 0.0
C223 C 0.856 0.89135 0.40488 0.0
H224 H 0.98367 0.93862 0.55596 0.0
H225 H 0.81828 0.9226 0.34612 0.0
H226 H 0.93927 0.96566 0.71086 0.0
H227 H 0.77012 0.9554 0.89189 0.0
H228 H 0.96787 0.99051 0.93289 0.0
H229 H 0.98908 0.89467 0.57032 0.0
H230 H 0.81883 0.87853 0.36369 0.0
C231 C 1.01055 0.78151 0.66514 0.0
C232 C 1.00524 0.78232 0.81375 0.0
N233 N 0.94732 0.77922 0.84476 0.0
N234 N 0.95613 0.77774 0.60544 0.0
C235 C 0.91889 0.77652 0.71871 0.0
H236 H 0.05134 0.78359 0.60498 0.0
Co237 Co 0.93198 0.77661 0.41291 0.0
C238 C 0.79903 0.75421 0.47819 0.0
O239 O 0.77384 0.76924 0.39919 0.0
N240 N 0.90805 0.77537 0.21959 0.0
C241 C 0.86979 0.76078 1.01042 0.0
C242 C 0.86306 0.75998 0.15719 0.0
C243 C 0.94223 0.78498 0.10779 0.0
N244 N 0.91997 0.77621 0.98067 0.0
O245 O 0.96638 0.74812 0.37567 0.0
H246 H 0.83065 0.74696 0.21277 0.0
H247 H 0.98437 0.79688 0.11923 0.0
O248 O 0.85555 0.75597 0.47886 0.0
C249 C 1.01641 0.75404 0.31236 0.0
O250 O 0.04175 0.77717 0.30849 0.0
N251 N 0.90794 0.80668 0.43888 0.0
C252 C 0.9065 0.85665 0.46728 0.0
C253 C 0.85926 0.8393 0.51899 0.0
C254 C 0.86144 0.81418 0.50673 0.0
C255 C 0.95443 0.82343 0.3919 0.0
C256 C 0.95474 0.84846 0.40493 0.0
H257 H 0.82707 0.8012 0.55592 0.0
H258 H 0.99247 0.81721 0.34619 0.0
H259 H 0.87148 0.77417 0.71084 0.0
H260 H 0.04062 0.7844 0.89191 0.0
H261 H 0.84288 0.74931 0.93284 0.0
H262 H 0.82166 0.84515 0.57028 0.0
H263 H 0.99192 0.86128 0.36375 0.0
C264 C 0.76056 0.53152 0.38327 0.0
C265 C 0.75525 0.53233 0.23466 0.0
N266 N 0.69733 0.52922 0.20363 0.0
N267 N 0.70614 0.52774 0.44295 0.0
C268 C 0.6689 0.52652 0.32968 0.0
H269 H 0.80135 0.53361 0.44344 0.0
Co270 Co 0.68199 0.52661 0.63548 0.0
C271 C 0.54904 0.50421 0.57018 0.0
O272 O 0.52386 0.51925 0.64917 0.0
N273 N 0.65806 0.52537 0.8288 0.0
C274 C 0.6198 0.51078 0.03795 0.0
C275 C 0.61307 0.50998 0.89117 0.0
C276 C 0.69224 0.53498 0.94062 0.0
N277 N 0.66998 0.52621 0.06772 0.0
O278 O 0.71639 0.49813 0.67269 0.0
H279 H 0.58066 0.49696 0.83557 0.0
H280 H 0.73438 0.54688 0.92919 0.0
O281 O 0.60556 0.50597 0.56951 0.0
C282 C 0.76642 0.50404 0.73602 0.0
O283 O 0.79176 0.52717 0.73991 0.0
N284 N 0.65795 0.55668 0.60953 0.0
C285 C 0.65651 0.60665 0.58109 0.0
C286 C 0.60927 0.5893 0.52936 0.0
C287 C 0.61145 0.56417 0.54164 0.0
C288 C 0.70443 0.57344 0.65655 0.0
C289 C 0.70474 0.59846 0.64351 0.0
H290 H 0.57709 0.55119 0.49241 0.0
H291 H 0.74247 0.56722 0.70229 0.0
H292 H 0.62149 0.52415 0.33754 0.0
H293 H 0.79063 0.53442 0.15651 0.0
H294 H 0.59289 0.49931 0.11551 0.0
H295 H 0.57168 0.59514 0.47803 0.0
H296 H 0.74191 0.61129 0.68471 0.0
C297 C 0.55019 0.7083 0.3832 0.0
C298 C 0.5555 0.70749 0.23459 0.0
N299 N 0.61342 0.71059 0.20357 0.0
N300 N 0.60461 0.71207 0.4429 0.0
C301 C 0.64184 0.71329 0.32963 0.0
H302 H 0.5094 0.70623 0.44336 0.0
Co303 Co 0.62876 0.71321 0.63542 0.0
C304 C 0.76171 0.7356 0.57015 0.0
O305 O 0.78689 0.72058 0.64915 0.0
N306 N 0.65269 0.71444 0.82875 0.0
C307 C 0.69094 0.72904 0.03792 0.0
C308 C 0.69767 0.72983 0.89115 0.0
C309 C 0.61851 0.70483 0.94055 0.0
N310 N 0.64077 0.7136 0.06766 0.0
O311 O 0.59436 0.74169 0.67266 0.0
H312 H 0.73008 0.74286 0.83557 0.0
H313 H 0.57637 0.69293 0.92911 0.0
O314 O 0.70518 0.73384 0.56947 0.0
C315 C 0.54433 0.73578 0.73598 0.0
O316 O 0.51899 0.71264 0.73985 0.0
N317 N 0.6528 0.68313 0.60946 0.0
C318 C 0.65424 0.63316 0.58108 0.0
C319 C 0.70148 0.65051 0.52937 0.0
C320 C 0.69931 0.67564 0.54162 0.0
C321 C 0.6063 0.66638 0.65644 0.0
C322 C 0.606 0.64135 0.64342 0.0
H323 H 0.73367 0.68862 0.49243 0.0
H324 H 0.56827 0.6726 0.70214 0.0
H325 H 0.68926 0.71564 0.3375 0.0
H326 H 0.52011 0.70542 0.15643 0.0
H327 H 0.71786 0.74051 0.1155 0.0
H328 H 0.73909 0.64467 0.47809 0.0
H329 H 0.56883 0.62853 0.6846 0.0
C330 C 0.30019 0.4583 0.66514 0.0
C331 C 0.3055 0.45748 0.81374 0.0
N332 N 0.36343 0.4606 0.84477 0.0
N333 N 0.35462 0.46208 0.60545 0.0
C334 C 0.39185 0.4633 0.71872 0.0
H335 H 0.25941 0.45621 0.60496 0.0
Co336 Co 0.37877 0.46321 0.41292 0.0
C337 C 0.51172 0.4856 0.47822 0.0
O338 O 0.53689 0.47057 0.39923 0.0
N339 N 0.4027 0.46444 0.2196 0.0
C340 C 0.44095 0.47904 1.01046 0.0
C341 C 0.44768 0.47983 0.15723 0.0
C342 C 0.36852 0.45484 0.10779 0.0
N343 N 0.39078 0.46361 0.98069 0.0
O344 O 0.34437 0.49169 0.37571 0.0
H345 H 0.48009 0.49286 0.21283 0.0
H346 H 0.32637 0.44293 0.11921 0.0
O347 O 0.45519 0.48385 0.47889 0.0
C348 C 0.29433 0.48578 0.31238 0.0
O349 O 0.26899 0.46265 0.30849 0.0
N350 N 0.40281 0.43313 0.43887 0.0
C351 C 0.40424 0.38316 0.46731 0.0
C352 C 0.45148 0.40052 0.51904 0.0
C353 C 0.4493 0.42564 0.50677 0.0
C354 C 0.35632 0.41638 0.39185 0.0
C355 C 0.35601 0.39135 0.40489 0.0
H356 H 0.48366 0.43862 0.55599 0.0
H357 H 0.31829 0.4226 0.34611 0.0
H358 H 0.43927 0.46566 0.71086 0.0
H359 H 0.27012 0.4554 0.8919 0.0
H360 H 0.46787 0.49051 0.9329 0.0
H361 H 0.48908 0.39468 0.57037 0.0
H362 H 0.31885 0.37853 0.36369 0.0
C363 C 0.51057 0.28151 0.66521 0.0
C364 C 0.50526 0.28232 0.81381 0.0
N365 N 0.44733 0.27922 0.84483 0.0
N366 N 0.45614 0.27774 0.60551 0.0
C367 C 0.41891 0.27653 0.71877 0.0
H368 H 0.55135 0.28359 0.60504 0.0
Co369 Co 0.432 0.27661 0.41298 0.0
C370 C 0.29904 0.25421 0.47825 0.0
O371 O 0.27386 0.26924 0.39925 0.0
N372 N 0.40807 0.27537 0.21965 0.0
C373 C 0.36981 0.26078 1.01048 0.0
C374 C 0.36308 0.25998 0.15726 0.0
C375 C 0.44224 0.28498 0.10785 0.0
N376 N 0.41998 0.27621 0.98074 0.0
O377 O 0.46639 0.24813 0.37574 0.0
H378 H 0.33067 0.24696 0.21284 0.0
H379 H 0.48439 0.29688 0.11929 0.0
O380 O 0.35557 0.25597 0.47893 0.0
C381 C 0.51643 0.25404 0.31243 0.0
O382 O 0.54176 0.27717 0.30855 0.0
N383 N 0.40796 0.30669 0.43894 0.0
C384 C 0.40651 0.35666 0.46733 0.0
C385 C 0.35927 0.3393 0.51903 0.0
C386 C 0.36145 0.31418 0.50678 0.0
C387 C 0.45445 0.32344 0.39196 0.0
C388 C 0.45476 0.34846 0.40498 0.0
H389 H 0.32708 0.3012 0.55597 0.0
H390 H 0.49249 0.31721 0.34626 0.0
H391 H 0.37149 0.27417 0.7109 0.0
H392 H 0.54064 0.2844 0.89198 0.0
H393 H 0.34289 0.24931 0.9329 0.0
H394 H 0.32167 0.34515 0.57031 0.0
H395 H 0.49193 0.36129 0.36381 0.0
C396 C 0.76056 0.03151 0.88327 0.0
C397 C 0.75525 0.03233 0.73466 0.0
N398 N 0.69733 0.02922 0.70364 0.0
N399 N 0.70614 0.02774 0.94296 0.0
C400 C 0.6689 0.02652 0.82969 0.0
H401 H 0.80135 0.0336 0.94344 0.0
Co402 Co 0.68199 0.02661 0.13548 0.0
C403 C 0.54904 0.00421 0.07018 0.0
O404 O 0.52386 0.01924 0.14918 0.0
N405 N 0.65806 0.02537 0.32881 0.0
C406 C 0.6198 0.01078 0.53795 0.0
C407 C 0.61307 0.00998 0.39118 0.0
C408 C 0.69224 0.03498 0.44062 0.0
N409 N 0.66998 0.02621 0.56772 0.0
O410 O 0.71639 -0.00187 0.1727 0.0
H411 H 0.58066 -0.00304 0.33558 0.0
H412 H 0.73438 0.04688 0.4292 0.0
O413 O 0.60556 0.00597 0.06951 0.0
C414 C 0.76642 0.00404 0.23602 0.0
O415 O 0.79176 0.02717 0.23991 0.0
N416 N 0.65795 0.05668 0.10954 0.0
C417 C 0.65652 0.10665 0.08112 0.0
C418 C 0.60928 0.0893 0.0294 0.0
C419 C 0.61145 0.06417 0.04166 0.0
C420 C 0.70444 0.07344 0.15655 0.0
C421 C 0.70475 0.09846 0.14352 0.0
H422 H 0.57709 0.05119 0.99245 0.0
H423 H 0.74247 0.06721 0.20228 0.0
H424 H 0.62149 0.02416 0.83755 0.0
H425 H 0.79063 0.03441 0.65651 0.0
H426 H 0.59289 -0.00069 0.61551 0.0
H427 H 0.57168 0.09514 0.97808 0.0
H428 H 0.74192 0.11129 0.18471 0.0
C429 C 0.5502 0.20831 0.88326 0.0
C430 C 0.55551 0.20749 0.73465 0.0
N431 N 0.61344 0.21059 0.70364 0.0
N432 N 0.60463 0.21208 0.94296 0.0
C433 C 0.64186 0.21329 0.8297 0.0
H434 H 0.50942 0.20623 0.94342 0.0
Co435 Co 0.62878 0.21321 0.13549 0.0
C436 C 0.76173 0.2356 0.07021 0.0
O437 O 0.78691 0.22058 0.14921 0.0
N438 N 0.65271 0.21444 0.32882 0.0
C439 C 0.69096 0.22904 0.53799 0.0
C440 C 0.69769 0.22983 0.39121 0.0
C441 C 0.61853 0.20484 0.44061 0.0
N442 N 0.64079 0.21361 0.56773 0.0
O443 O 0.59438 0.24169 0.17273 0.0
H444 H 0.7301 0.24286 0.33563 0.0
H445 H 0.57638 0.19293 0.42917 0.0
O446 O 0.7052 0.23385 0.06954 0.0
C447 C 0.54434 0.23578 0.23605 0.0
O448 O 0.51901 0.21265 0.23991 0.0
N449 N 0.65281 0.18313 0.10952 0.0
C450 C 0.65425 0.13316 0.08112 0.0
C451 C 0.70149 0.15051 0.02942 0.0
C452 C 0.69932 0.17564 0.04168 0.0
C453 C 0.60632 0.16638 0.15651 0.0
C454 C 0.60601 0.14135 0.14348 0.0
H455 H 0.73368 0.18862 0.99248 0.0
H456 H 0.56828 0.1726 0.20221 0.0
H457 H 0.68928 0.21565 0.83757 0.0
H458 H 0.52013 0.20542 0.65649 0.0
H459 H 0.71788 0.24051 0.61556 0.0
H460 H 0.73909 0.14467 0.97813 0.0
H461 H 0.56884 0.12853 0.18465 0.0
C462 C 0.30019 0.9583 0.16513 0.0
C463 C 0.3055 0.95749 0.31374 0.0
N464 N 0.36343 0.96059 0.34477 0.0
N465 N 0.35462 0.96208 0.10544 0.0
C466 C 0.39185 0.9633 0.21871 0.0
H467 H 0.25941 0.95622 0.10496 0.0
Co468 Co 0.37877 0.96321 0.91292 0.0
C469 C 0.51172 0.9856 0.97822 0.0
O470 O 0.5369 0.97057 0.89922 0.0
N471 N 0.4027 0.96444 0.7196 0.0
C472 C 0.44095 0.97904 0.51045 0.0
C473 C 0.44768 0.97983 0.65723 0.0
C474 C 0.36852 0.95483 0.60778 0.0
N475 N 0.39078 0.9636 0.48068 0.0
O476 O 0.34437 0.99169 0.87571 0.0
H477 H 0.48009 0.99286 0.71282 0.0
H478 H 0.32637 0.94293 0.6192 0.0
O479 O 0.45519 0.98385 0.97889 0.0
C480 C 0.29433 0.98578 0.81238 0.0
O481 O 0.269 0.96265 0.80849 0.0
N482 N 0.4028 0.93313 0.93887 0.0
C483 C 0.40424 0.88316 0.96728 0.0
C484 C 0.45148 0.90052 1.01901 0.0
C485 C 0.4493 0.92564 1.00674 0.0
C486 C 0.35631 0.91638 0.89185 0.0
C487 C 0.356 0.89135 0.90489 0.0
H488 H 0.48367 0.93862 0.05596 0.0
H489 H 0.31828 0.9226 0.84612 0.0
H490 H 0.43927 0.96566 0.21086 0.0
H491 H 0.27012 0.9554 0.39189 0.0
H492 H 0.46787 0.99051 0.43289 0.0
H493 H 0.48908 0.89467 0.07032 0.0
H494 H 0.31883 0.87853 0.86369 0.0
C495 C 0.51055 0.78151 0.16514 0.0
C496 C 0.50524 0.78232 0.31375 0.0
N497 N 0.44732 0.77922 0.34476 0.0
N498 N 0.45613 0.77774 0.10544 0.0
C499 C 0.41889 0.77652 0.21871 0.0
H500 H 0.55134 0.78359 0.10498 0.0
Co501 Co 0.43198 0.77661 0.91291 0.0
C502 C 0.29902 0.75421 0.97819 0.0
O503 O 0.27384 0.76924 0.89919 0.0
N504 N 0.40805 0.77537 0.71959 0.0
C505 C 0.36979 0.76078 0.51042 0.0
C506 C 0.36306 0.75998 0.65719 0.0
C507 C 0.44223 0.78498 0.60779 0.0
N508 N 0.41997 0.77621 0.48067 0.0
O509 O 0.46638 0.74812 0.87567 0.0
H510 H 0.33065 0.74696 0.71277 0.0
H511 H 0.48437 0.79688 0.61923 0.0
O512 O 0.35555 0.75597 0.97886 0.0
C513 C 0.51641 0.75404 0.81236 0.0
O514 O 0.54175 0.77717 0.80849 0.0
N515 N 0.40794 0.80668 0.93888 0.0
C516 C 0.4065 0.85665 0.96728 0.0
C517 C 0.35926 0.8393 1.01899 0.0
C518 C 0.36144 0.81418 1.00673 0.0
C519 C 0.45443 0.82343 0.8919 0.0
C520 C 0.45474 0.84846 0.90493 0.0
H521 H 0.32707 0.8012 0.05592 0.0
H522 H 0.49247 0.81721 0.84619 0.0
H523 H 0.37148 0.77417 0.21084 0.0
H524 H 0.54062 0.7844 0.39191 0.0
H525 H 0.34288 0.74931 0.43284 0.0
H526 H 0.32166 0.84515 0.07028 0.0
H527 H 0.49192 0.86128 0.86375 0.0
loop_
_geom_bond_atom_site_label_1
_geom_bond_atom_site_label_2
_geom_bond_distance
_geom_bond_site_symmetry_2
_ccdc_geom_bond_type
C0 C1 1.351 . S
C0 N3 1.368 . S
C0 H5 0.931 . S
C1 C0 1.351 . S
C1 N2 1.373 . S
C1 H29 0.930 . S
N2 C1 1.373 . S
N2 C4 1.340 . S
N3 C0 1.368 . S
N3 C4 1.321 . S
N3 Co6 2.135 1_556 S
C4 N2 1.340 . S
C4 N3 1.321 . S
C4 H28 0.930 . S
H5 C0 0.931 . S
Co6 N3 2.135 1_554 S
Co6 N9 2.121 . S
Co6 O14 2.055 . S
Co6 O17 2.039 . S
Co6 N20 2.140 . S
C7 O8 1.227 . S
C7 O17 1.265 . S
O8 C7 1.227 . S
N9 Co6 2.121 . S
N9 C11 1.375 . S
N9 C12 1.313 . S
C10 C11 1.338 . S
C10 N13 1.377 . S
C10 H30 0.930 . S
C11 N9 1.375 . S
C11 C10 1.338 . S
C11 H15 0.931 . S
C12 N9 1.313 . S
C12 N13 1.344 . S
C12 H16 0.930 . S
N13 C10 1.377 . S
N13 C12 1.344 . S
O14 Co6 2.055 . S
O14 C18 1.253 . S
H15 C11 0.931 . S
H16 C12 0.930 . S
O17 Co6 2.039 . S
O17 C7 1.265 . S
C18 O14 1.253 . S
C18 O19 1.227 . S
O19 C18 1.227 . S
N20 Co6 2.140 . S
N20 C23 1.346 . S
N20 C24 1.345 . S
C21 C22 1.386 1_554 S
C21 C25 1.391 . S
C22 C21 1.386 1_556 S
C22 C23 1.369 1_556 S
C22 H31 0.930 . S
C23 N20 1.346 . S
C23 C22 1.369 1_554 S
C23 H26 0.928 1_554 S
C24 N20 1.345 . S
C24 C25 1.371 . S
C24 H27 0.931 . S
C25 C21 1.391 . S
C25 C24 1.371 . S
C25 H32 0.930 . S
H26 C23 0.928 1_556 S
H27 C24 0.931 . S
H28 C4 0.930 . S
H29 C1 0.930 . S
H30 C10 0.930 . S
H31 C22 0.930 . S
H32 C25 0.930 . S
C33 C34 1.351 . S
C33 N36 1.368 . S
C33 H38 0.931 . S
C34 C33 1.351 . S
C34 N35 1.373 . S
C34 H62 0.930 . S
N35 C34 1.373 . S
N35 C37 1.340 . S
N36 C33 1.368 . S
N36 C37 1.321 . S
N36 Co39 2.135 1_556 S
C37 N35 1.340 . S
C37 N36 1.321 . S
C37 H61 0.930 . S
H38 C33 0.931 . S
Co39 N36 2.135 1_554 S
Co39 N42 2.121 . S
Co39 O47 2.055 . S
Co39 O50 2.039 . S
Co39 N53 2.140 . S
C40 O41 1.227 . S
C40 O50 1.265 . S
O41 C40 1.227 . S
N42 Co39 2.121 . S
N42 C44 1.375 . S
N42 C45 1.313 . S
C43 C44 1.338 . S
C43 N46 1.377 . S
C43 H63 0.930 . S
C44 N42 1.375 . S
C44 C43 1.338 . S
C44 H48 0.931 . S
C45 N42 1.313 . S
C45 N46 1.344 . S
C45 H49 0.930 . S
N46 C43 1.377 . S
N46 C45 1.344 . S
O47 Co39 2.055 . S
O47 C51 1.253 . S
H48 C44 0.931 . S
H49 C45 0.930 . S
O50 Co39 2.039 . S
O50 C40 1.265 . S
C51 O47 1.253 . S
C51 O52 1.227 . S
O52 C51 1.227 . S
N53 Co39 2.140 . S
N53 C56 1.346 . S
N53 C57 1.345 . S
C54 C55 1.386 1_554 S
C54 C58 1.391 . S
C55 C54 1.386 1_556 S
C55 C56 1.369 1_556 S
C55 H64 0.930 . S
C56 N53 1.346 . S
C56 C55 1.369 1_554 S
C56 H59 0.928 1_554 S
C57 N53 1.345 . S
C57 C58 1.371 . S
C57 H60 0.931 . S
C58 C54 1.391 . S
C58 C57 1.371 . S
C58 H65 0.930 . S
H59 C56 0.928 1_556 S
H60 C57 0.931 . S
H61 C37 0.930 . S
H62 C34 0.930 . S
H63 C43 0.930 . S
H64 C55 0.930 . S
H65 C58 0.930 . S
C66 C67 1.351 . S
C66 N69 1.368 . S
C66 H71 0.931 . S
C67 C66 1.351 . S
C67 N68 1.373 . S
C67 H95 0.930 . S
N68 C67 1.373 . S
N68 C70 1.340 . S
N69 C66 1.368 . S
N69 C70 1.321 . S
N69 Co72 2.135 1_554 S
C70 N68 1.340 . S
C70 N69 1.321 . S
C70 H94 0.930 . S
H71 C66 0.931 . S
Co72 N69 2.135 1_556 S
Co72 N75 2.121 . S
Co72 O80 2.055 . S
Co72 O83 2.039 . S
Co72 N86 2.140 . S
C73 O74 1.227 . S
C73 O83 1.265 . S
O74 C73 1.227 . S
N75 Co72 2.121 . S
N75 C77 1.375 . S
N75 C78 1.313 . S
C76 C77 1.338 . S
C76 N79 1.377 . S
C76 H96 0.930 . S
C77 N75 1.375 . S
C77 C76 1.338 . S
C77 H81 0.931 . S
C78 N75 1.313 . S
C78 N79 1.344 . S
C78 H82 0.930 . S
N79 C76 1.377 . S
N79 C78 1.344 . S
O80 Co72 2.055 . S
O80 C84 1.253 . S
H81 C77 0.931 . S
H82 C78 0.930 . S
O83 Co72 2.039 . S
O83 C73 1.265 . S
C84 O80 1.253 . S
C84 O85 1.227 . S
O85 C84 1.227 . S
N86 Co72 2.140 . S
N86 C89 1.346 . S
N86 C90 1.345 . S
C87 C88 1.386 1_556 S
C87 C91 1.391 . S
C88 C87 1.386 1_554 S
C88 C89 1.369 1_554 S
C88 H97 0.930 . S
C89 N86 1.346 . S
C89 C88 1.369 1_556 S
C89 H92 0.928 1_556 S
C90 N86 1.345 . S
C90 C91 1.371 . S
C90 H93 0.931 . S
C91 C87 1.391 . S
C91 C90 1.371 . S
C91 H98 0.930 . S
H92 C89 0.928 1_554 S
H93 C90 0.931 . S
H94 C70 0.930 . S
H95 C67 0.930 . S
H96 C76 0.930 . S
H97 C88 0.930 . S
H98 C91 0.930 . S
C99 C100 1.351 . S
C99 N102 1.368 . S
C99 H104 0.931 . S
C100 C99 1.351 . S
C100 N101 1.373 . S
C100 H128 0.930 . S
N101 C100 1.373 . S
N101 C103 1.340 . S
N102 C99 1.368 . S
N102 C103 1.321 . S
N102 Co105 2.135 1_554 S
C103 N101 1.340 . S
C103 N102 1.321 . S
C103 H127 0.930 . S
H104 C99 0.931 . S
Co105 N102 2.135 1_556 S
Co105 N108 2.121 . S
Co105 O113 2.055 . S
Co105 O116 2.039 . S
Co105 N119 2.140 . S
C106 O107 1.227 . S
C106 O116 1.265 . S
O107 C106 1.227 . S
N108 Co105 2.121 . S
N108 C110 1.375 . S
N108 C111 1.313 . S
C109 C110 1.338 . S
C109 N112 1.377 . S
C109 H129 0.930 . S
C110 N108 1.375 . S
C110 C109 1.338 . S
C110 H114 0.931 . S
C111 N108 1.313 . S
C111 N112 1.344 . S
C111 H115 0.930 . S
N112 C109 1.377 . S
N112 C111 1.344 . S
O113 Co105 2.055 . S
O113 C117 1.253 . S
H114 C110 0.931 . S
H115 C111 0.930 . S
O116 Co105 2.039 . S
O116 C106 1.265 . S
C117 O113 1.253 . S
C117 O118 1.227 . S
O118 C117 1.227 . S
N119 Co105 2.140 . S
N119 C122 1.346 . S
N119 C123 1.345 . S
C120 C121 1.386 1_556 S
C120 C124 1.391 . S
C121 C120 1.386 1_554 S
C121 C122 1.369 1_554 S
C121 H130 0.930 . S
C122 N119 1.346 . S
C122 C121 1.369 1_556 S
C122 H125 0.928 1_556 S
C123 N119 1.345 . S
C123 C124 1.371 . S
C123 H126 0.931 . S
C124 C120 1.391 . S
C124 C123 1.371 . S
C124 H131 0.930 . S
H125 C122 0.928 1_554 S
H126 C123 0.931 . S
H127 C103 0.930 . S
H128 C100 0.930 . S
H129 C109 0.930 . S
H130 C121 0.930 . S
H131 C124 0.930 . S
C132 C133 1.351 . S
C132 N135 1.368 . S
C132 H137 0.931 . S
C133 C132 1.351 . S
C133 N134 1.373 . S
C133 H161 0.930 . S
N134 C133 1.373 . S
N134 C136 1.340 . S
N135 C132 1.368 . S
N135 C136 1.321 . S
N135 Co138 2.135 . S
C136 N134 1.340 . S
C136 N135 1.321 . S
C136 H160 0.930 . S
H137 C132 0.931 . S
Co138 N135 2.135 . S
Co138 N141 2.121 . S
Co138 O146 2.055 1_545 S
Co138 O149 2.039 1_545 S
Co138 N152 2.140 . S
C139 O140 1.227 . S
C139 O149 1.265 1_545 S
O140 C139 1.227 . S
N141 Co138 2.121 . S
N141 C143 1.375 . S
N141 C144 1.313 . S
C142 C143 1.338 1_554 S
C142 N145 1.377 . S
C142 H162 0.930 . S
C143 N141 1.375 . S
C143 C142 1.338 1_556 S
C143 H147 0.931 . S
C144 N141 1.313 . S
C144 N145 1.344 1_556 S
C144 H148 0.930 . S
N145 C142 1.377 . S
N145 C144 1.344 1_554 S
O146 Co138 2.055 1_565 S
O146 C150 1.253 1_565 S
H147 C143 0.931 . S
H148 C144 0.930 . S
O149 Co138 2.039 1_565 S
O149 C139 1.265 1_565 S
C150 O146 1.253 1_545 S
C150 O151 1.227 . S
O151 C150 1.227 . S
N152 Co138 2.140 . S
N152 C155 1.346 . S
N152 C156 1.345 . S
C153 C154 1.387 . S
C153 C157 1.391 . S
C154 C153 1.387 . S
C154 C155 1.369 . S
C154 H163 0.929 . S
C155 N152 1.346 . S
C155 C154 1.369 . S
C155 H158 0.928 . S
C156 N152 1.345 . S
C156 C157 1.371 . S
C156 H159 0.931 . S
C157 C153 1.391 . S
C157 C156 1.371 . S
C157 H164 0.930 . S
H158 C155 0.928 . S
H159 C156 0.931 . S
H160 C136 0.930 . S
H161 C133 0.930 . S
H162 C142 0.930 . S
H163 C154 0.929 . S
H164 C157 0.930 . S
C165 C166 1.351 . S
C165 N168 1.368 . S
C165 H170 0.931 . S
C166 C165 1.351 . S
C166 N167 1.373 . S
C166 H194 0.930 . S
N167 C166 1.373 . S
N167 C169 1.340 . S
N168 C165 1.368 . S
N168 C169 1.321 . S
N168 Co171 2.135 . S
C169 N167 1.340 . S
C169 N168 1.321 . S
C169 H193 0.930 . S
H170 C165 0.931 . S
Co171 N168 2.135 . S
Co171 N174 2.121 . S
Co171 O179 2.055 . S
Co171 O182 2.039 . S
Co171 N185 2.140 . S
C172 O173 1.227 . S
C172 O182 1.265 . S
O173 C172 1.227 . S
N174 Co171 2.121 . S
N174 C176 1.375 . S
N174 C177 1.313 . S
C175 C176 1.338 1_554 S
C175 N178 1.377 . S
C175 H195 0.930 . S
C176 N174 1.375 . S
C176 C175 1.338 1_556 S
C176 H180 0.931 . S
C177 N174 1.313 . S
C177 N178 1.344 1_556 S
C177 H181 0.930 . S
N178 C175 1.377 . S
N178 C177 1.344 1_554 S
O179 Co171 2.055 . S
O179 C183 1.253 . S
H180 C176 0.931 . S
H181 C177 0.930 . S
O182 Co171 2.039 . S
O182 C172 1.265 . S
C183 O179 1.253 . S
C183 O184 1.227 . S
O184 C183 1.227 . S
N185 Co171 2.140 . S
N185 C188 1.346 . S
N185 C189 1.345 . S
C186 C187 1.387 . S
C186 C190 1.391 . S
C187 C186 1.387 . S
C187 C188 1.369 . S
C187 H196 0.929 . S
C188 N185 1.346 . S
C188 C187 1.369 . S
C188 H191 0.928 . S
C189 N185 1.345 . S
C189 C190 1.371 . S
C189 H192 0.931 . S
C190 C186 1.391 . S
C190 C189 1.371 . S
C190 H197 0.930 . S
H191 C188 0.928 . S
H192 C189 0.931 . S
H193 C169 0.930 . S
H194 C166 0.930 . S
H195 C175 0.930 . S
H196 C187 0.929 . S
H197 C190 0.930 . S
C198 C199 1.351 . S
C198 N201 1.368 . S
C198 H203 0.931 . S
C199 C198 1.351 . S
C199 N200 1.373 . S
C199 H227 0.930 . S
N200 C199 1.373 . S
N200 C202 1.340 . S
N201 C198 1.368 . S
N201 C202 1.321 . S
N201 Co204 2.135 . S
C202 N200 1.340 . S
C202 N201 1.321 . S
C202 H226 0.930 . S
H203 C198 0.931 . S
Co204 N201 2.135 . S
Co204 N207 2.121 . S
Co204 O212 2.055 1_565 S
Co204 O215 2.039 1_565 S
Co204 N218 2.140 . S
C205 O206 1.227 . S
C205 O215 1.265 1_565 S
O206 C205 1.227 . S
N207 Co204 2.121 . S
N207 C209 1.375 . S
N207 C210 1.313 . S
C208 C209 1.338 1_556 S
C208 N211 1.377 . S
C208 H228 0.930 . S
C209 N207 1.375 . S
C209 C208 1.338 1_554 S
C209 H213 0.931 . S
C210 N207 1.313 . S
C210 N211 1.344 1_554 S
C210 H214 0.930 . S
N211 C208 1.377 . S
N211 C210 1.344 1_556 S
O212 Co204 2.055 1_545 S
O212 C216 1.253 1_545 S
H213 C209 0.931 . S
H214 C210 0.930 . S
O215 Co204 2.039 1_545 S
O215 C205 1.265 1_545 S
C216 O212 1.253 1_565 S
C216 O217 1.227 . S
O217 C216 1.227 . S
N218 Co204 2.140 . S
N218 C221 1.346 . S
N218 C222 1.345 . S
C219 C220 1.387 . S
C219 C223 1.391 . S
C220 C219 1.387 . S
C220 C221 1.369 . S
C220 H229 0.929 . S
C221 N218 1.346 . S
C221 C220 1.369 . S
C221 H224 0.928 . S
C222 N218 1.345 . S
C222 C223 1.371 . S
C222 H225 0.931 . S
C223 C219 1.391 . S
C223 C222 1.371 . S
C223 H230 0.930 . S
H224 C221 0.928 . S
H225 C222 0.931 . S
H226 C202 0.930 . S
H227 C199 0.930 . S
H228 C208 0.930 . S
H229 C220 0.929 . S
H230 C223 0.930 . S
C231 C232 1.351 . S
C231 N234 1.368 . S
C231 H236 0.931 . S
C232 C231 1.351 . S
C232 N233 1.373 . S
C232 H260 0.930 . S
N233 C232 1.373 . S
N233 C235 1.340 . S
N234 C231 1.368 . S
N234 C235 1.321 . S
N234 Co237 2.135 . S
C235 N233 1.340 . S
C235 N234 1.321 . S
C235 H259 0.930 . S
H236 C231 0.931 . S
Co237 N234 2.135 . S
Co237 N240 2.121 . S
Co237 O245 2.055 . S
Co237 O248 2.039 . S
Co237 N251 2.140 . S
C238 O239 1.227 . S
C238 O248 1.265 . S
O239 C238 1.227 . S
N240 Co237 2.121 . S
N240 C242 1.375 . S
N240 C243 1.313 . S
C241 C242 1.338 1_556 S
C241 N244 1.377 . S
C241 H261 0.930 . S
C242 N240 1.375 . S
C242 C241 1.338 1_554 S
C242 H246 0.931 . S
C243 N240 1.313 . S
C243 N244 1.344 1_554 S
C243 H247 0.930 . S
N244 C241 1.377 . S
N244 C243 1.344 1_556 S
O245 Co237 2.055 . S
O245 C249 1.253 . S
H246 C242 0.931 . S
H247 C243 0.930 . S
O248 Co237 2.039 . S
O248 C238 1.265 . S
C249 O245 1.253 . S
C249 O250 1.227 . S
O250 C249 1.227 . S
N251 Co237 2.140 . S
N251 C254 1.346 . S
N251 C255 1.345 . S
C252 C253 1.387 . S
C252 C256 1.391 . S
C253 C252 1.387 . S
C253 C254 1.369 . S
C253 H262 0.929 . S
C254 N251 1.346 . S
C254 C253 1.369 . S
C254 H257 0.928 . S
C255 N251 1.345 . S
C255 C256 1.371 . S
C255 H258 0.931 . S
C256 C252 1.391 . S
C256 C255 1.371 . S
C256 H263 0.930 . S
H257 C254 0.928 . S
H258 C255 0.931 . S
H259 C235 0.930 . S
H260 C232 0.930 . S
H261 C241 0.930 . S
H262 C253 0.929 . S
H263 C256 0.930 . S
C264 C265 1.351 . S
C264 N267 1.368 . S
C264 H269 0.931 . S
C265 C264 1.351 . S
C265 N266 1.373 . S
C265 H293 0.930 . S
N266 C265 1.373 . S
N266 C268 1.340 . S
N267 C264 1.368 . S
N267 C268 1.321 . S
N267 Co270 2.135 . S
C268 N266 1.340 . S
C268 N267 1.321 . S
C268 H292 0.930 . S
H269 C264 0.931 . S
Co270 N267 2.135 . S
Co270 N273 2.121 . S
Co270 O278 2.055 . S
Co270 O281 2.039 . S
Co270 N284 2.140 . S
C271 O272 1.227 . S
C271 O281 1.265 . S
O272 C271 1.227 . S
N273 Co270 2.121 . S
N273 C275 1.375 . S
N273 C276 1.313 . S
C274 C275 1.338 1_554 S
C274 N277 1.377 . S
C274 H294 0.930 . S
C275 N273 1.375 . S
C275 C274 1.338 1_556 S
C275 H279 0.931 . S
C276 N273 1.313 . S
C276 N277 1.344 1_556 S
C276 H280 0.930 . S
N277 C274 1.377 . S
N277 C276 1.344 1_554 S
O278 Co270 2.055 . S
O278 C282 1.253 . S
H279 C275 0.931 . S
H280 C276 0.930 . S
O281 Co270 2.039 . S
O281 C271 1.265 . S
C282 O278 1.253 . S
C282 O283 1.227 . S
O283 C282 1.227 . S
N284 Co270 2.140 . S
N284 C287 1.346 . S
N284 C288 1.345 . S
C285 C286 1.387 . S
C285 C289 1.391 . S
C286 C285 1.387 . S
C286 C287 1.369 . S
C286 H295 0.929 . S
C287 N284 1.346 . S
C287 C286 1.369 . S
C287 H290 0.928 . S
C288 N284 1.345 . S
C288 C289 1.371 . S
C288 H291 0.931 . S
C289 C285 1.391 . S
C289 C288 1.371 . S
C289 H296 0.930 . S
H290 C287 0.928 . S
H291 C288 0.931 . S
H292 C268 0.930 . S
H293 C265 0.930 . S
H294 C274 0.930 . S
H295 C286 0.929 . S
H296 C289 0.930 . S
C297 C298 1.351 . S
C297 N300 1.368 . S
C297 H302 0.931 . S
C298 C297 1.351 . S
C298 N299 1.373 . S
C298 H326 0.930 . S
N299 C298 1.373 . S
N299 C301 1.340 . S
N300 C297 1.368 . S
N300 C301 1.321 . S
N300 Co303 2.135 . S
C301 N299 1.340 . S
C301 N300 1.321 . S
C301 H325 0.930 . S
H302 C297 0.931 . S
Co303 N300 2.135 . S
Co303 N306 2.121 . S
Co303 O311 2.055 . S
Co303 O314 2.039 . S
Co303 N317 2.140 . S
C304 O305 1.227 . S
C304 O314 1.265 . S
O305 C304 1.227 . S
N306 Co303 2.121 . S
N306 C308 1.375 . S
N306 C309 1.313 . S
C307 C308 1.338 1_554 S
C307 N310 1.377 . S
C307 H327 0.930 . S
C308 N306 1.375 . S
C308 C307 1.338 1_556 S
C308 H312 0.931 . S
C309 N306 1.313 . S
C309 N310 1.344 1_556 S
C309 H313 0.930 . S
N310 C307 1.377 . S
N310 C309 1.344 1_554 S
O311 Co303 2.055 . S
O311 C315 1.253 . S
H312 C308 0.931 . S
H313 C309 0.930 . S
O314 Co303 2.039 . S
O314 C304 1.265 . S
C315 O311 1.253 . S
C315 O316 1.227 . S
O316 C315 1.227 . S
N317 Co303 2.140 . S
N317 C320 1.346 . S
N317 C321 1.345 . S
C318 C319 1.387 . S
C318 C322 1.391 . S
C319 C318 1.387 . S
C319 C320 1.369 . S
C319 H328 0.929 . S
C320 N317 1.346 . S
C320 C319 1.369 . S
C320 H323 0.928 . S
C321 N317 1.345 . S
C321 C322 1.371 . S
C321 H324 0.931 . S
C322 C318 1.391 . S
C322 C321 1.371 . S
C322 H329 0.930 . S
H323 C320 0.928 . S
H324 C321 0.931 . S
H325 C301 0.930 . S
H326 C298 0.930 . S
H327 C307 0.930 . S
H328 C319 0.929 . S
H329 C322 0.930 . S
C330 C331 1.351 . S
C330 N333 1.368 . S
C330 H335 0.931 . S
C331 C330 1.351 . S
C331 N332 1.373 . S
C331 H359 0.930 . S
N332 C331 1.373 . S
N332 C334 1.340 . S
N333 C330 1.368 . S
N333 C334 1.321 . S
N333 Co336 2.135 . S
C334 N332 1.340 . S
C334 N333 1.321 . S
C334 H358 0.930 . S
H335 C330 0.931 . S
Co336 N333 2.135 . S
Co336 N339 2.121 . S
Co336 O344 2.055 . S
Co336 O347 2.039 . S
Co336 N350 2.140 . S
C337 O338 1.227 . S
C337 O347 1.265 . S
O338 C337 1.227 . S
N339 Co336 2.121 . S
N339 C341 1.375 . S
N339 C342 1.313 . S
C340 C341 1.338 1_556 S
C340 N343 1.377 . S
C340 H360 0.930 . S
C341 N339 1.375 . S
C341 C340 1.338 1_554 S
C341 H345 0.931 . S
C342 N339 1.313 . S
C342 N343 1.344 1_554 S
C342 H346 0.930 . S
N343 C340 1.377 . S
N343 C342 1.344 1_556 S
O344 Co336 2.055 . S
O344 C348 1.253 . S
H345 C341 0.931 . S
H346 C342 0.930 . S
O347 Co336 2.039 . S
O347 C337 1.265 . S
C348 O344 1.253 . S
C348 O349 1.227 . S
O349 C348 1.227 . S
N350 Co336 2.140 . S
N350 C353 1.346 . S
N350 C354 1.345 . S
C351 C352 1.387 . S
C351 C355 1.391 . S
C352 C351 1.387 . S
C352 C353 1.369 . S
C352 H361 0.929 . S
C353 N350 1.346 . S
C353 C352 1.369 . S
C353 H356 0.928 . S
C354 N350 1.345 . S
C354 C355 1.371 . S
C354 H357 0.931 . S
C355 C351 1.391 . S
C355 C354 1.371 . S
C355 H362 0.930 . S
H356 C353 0.928 . S
H357 C354 0.931 . S
H358 C334 0.930 . S
H359 C331 0.930 . S
H360 C340 0.930 . S
H361 C352 0.929 . S
H362 C355 0.930 . S
C363 C364 1.351 . S
C363 N366 1.368 . S
C363 H368 0.931 . S
C364 C363 1.351 . S
C364 N365 1.373 . S
C364 H392 0.930 . S
N365 C364 1.373 . S
N365 C367 1.340 . S
N366 C363 1.368 . S
N366 C367 1.321 . S
N366 Co369 2.135 . S
C367 N365 1.340 . S
C367 N366 1.321 . S
C367 H391 0.930 . S
H368 C363 0.931 . S
Co369 N366 2.135 . S
Co369 N372 2.121 . S
Co369 O377 2.055 . S
Co369 O380 2.039 . S
Co369 N383 2.140 . S
C370 O371 1.227 . S
C370 O380 1.265 . S
O371 C370 1.227 . S
N372 Co369 2.121 . S
N372 C374 1.375 . S
N372 C375 1.313 . S
C373 C374 1.338 1_556 S
C373 N376 1.377 . S
C373 H393 0.930 . S
C374 N372 1.375 . S
C374 C373 1.338 1_554 S
C374 H378 0.931 . S
C375 N372 1.313 . S
C375 N376 1.344 1_554 S
C375 H379 0.930 . S
N376 C373 1.377 . S
N376 C375 1.344 1_556 S
O377 Co369 2.055 . S
O377 C381 1.253 . S
H378 C374 0.931 . S
H379 C375 0.930 . S
O380 Co369 2.039 . S
O380 C370 1.265 . S
C381 O377 1.253 . S
C381 O382 1.227 . S
O382 C381 1.227 . S
N383 Co369 2.140 . S
N383 C386 1.346 . S
N383 C387 1.345 . S
C384 C385 1.387 . S
C384 C388 1.391 . S
C385 C384 1.387 . S
C385 C386 1.369 . S
C385 H394 0.929 . S
C386 N383 1.346 . S
C386 C385 1.369 . S
C386 H389 0.928 . S
C387 N383 1.345 . S
C387 C388 1.371 . S
C387 H390 0.931 . S
C388 C384 1.391 . S
C388 C387 1.371 . S
C388 H395 0.930 . S
H389 C386 0.928 . S
H390 C387 0.931 . S
H391 C367 0.930 . S
H392 C364 0.930 . S
H393 C373 0.930 . S
H394 C385 0.929 . S
H395 C388 0.930 . S
C396 C397 1.351 . S
C396 N399 1.368 . S
C396 H401 0.931 . S
C397 C396 1.351 . S
C397 N398 1.373 . S
C397 H425 0.930 . S
N398 C397 1.373 . S
N398 C400 1.340 . S
N399 C396 1.368 . S
N399 C400 1.321 . S
N399 Co402 2.135 1_556 S
C400 N398 1.340 . S
C400 N399 1.321 . S
C400 H424 0.930 . S
H401 C396 0.931 . S
Co402 N399 2.135 1_554 S
Co402 N405 2.121 . S
Co402 O410 2.055 1_545 S
Co402 O413 2.039 1_545 S
Co402 N416 2.140 . S
C403 O404 1.227 . S
C403 O413 1.265 1_545 S
O404 C403 1.227 . S
N405 Co402 2.121 . S
N405 C407 1.375 . S
N405 C408 1.313 . S
C406 C407 1.338 . S
C406 N409 1.377 . S
C406 H426 0.930 . S
C407 N405 1.375 . S
C407 C406 1.338 . S
C407 H411 0.931 . S
C408 N405 1.313 . S
C408 N409 1.344 . S
C408 H412 0.930 . S
N409 C406 1.377 . S
N409 C408 1.344 . S
O410 Co402 2.055 1_565 S
O410 C414 1.253 1_565 S
H411 C407 0.931 . S
H412 C408 0.930 . S
O413 Co402 2.039 1_565 S
O413 C403 1.265 1_565 S
C414 O410 1.253 1_545 S
C414 O415 1.227 . S
O415 C414 1.227 . S
N416 Co402 2.140 . S
N416 C419 1.346 . S
N416 C420 1.345 . S
C417 C418 1.387 1_554 S
C417 C421 1.391 . S
C418 C417 1.387 1_556 S
C418 C419 1.369 1_556 S
C418 H427 0.930 . S
C419 N416 1.346 . S
C419 C418 1.369 1_554 S
C419 H422 0.928 1_554 S
C420 N416 1.345 . S
C420 C421 1.371 . S
C420 H423 0.931 . S
C421 C417 1.391 . S
C421 C420 1.371 . S
C421 H428 0.930 . S
H422 C419 0.928 1_556 S
H423 C420 0.931 . S
H424 C400 0.930 . S
H425 C397 0.930 . S
H426 C406 0.930 . S
H427 C418 0.930 . S
H428 C421 0.930 . S
C429 C430 1.351 . S
C429 N432 1.368 . S
C429 H434 0.931 . S
C430 C429 1.351 . S
C430 N431 1.373 . S
C430 H458 0.930 . S
N431 C430 1.373 . S
N431 C433 1.340 . S
N432 C429 1.368 . S
N432 C433 1.321 . S
N432 Co435 2.135 1_556 S
C433 N431 1.340 . S
C433 N432 1.321 . S
C433 H457 0.930 . S
H434 C429 0.931 . S
Co435 N432 2.135 1_554 S
Co435 N438 2.121 . S
Co435 O443 2.055 . S
Co435 O446 2.039 . S
Co435 N449 2.140 . S
C436 O437 1.227 . S
C436 O446 1.265 . S
O437 C436 1.227 . S
N438 Co435 2.121 . S
N438 C440 1.375 . S
N438 C441 1.313 . S
C439 C440 1.338 . S
C439 N442 1.377 . S
C439 H459 0.930 . S
C440 N438 1.375 . S
C440 C439 1.338 . S
C440 H444 0.931 . S
C441 N438 1.313 . S
C441 N442 1.344 . S
C441 H445 0.930 . S
N442 C439 1.377 . S
N442 C441 1.344 . S
O443 Co435 2.055 . S
O443 C447 1.253 . S
H444 C440 0.931 . S
H445 C441 0.930 . S
O446 Co435 2.039 . S
O446 C436 1.265 . S
C447 O443 1.253 . S
C447 O448 1.227 . S
O448 C447 1.227 . S
N449 Co435 2.140 . S
N449 C452 1.346 . S
N449 C453 1.345 . S
C450 C451 1.387 1_554 S
C450 C454 1.391 . S
C451 C450 1.387 1_556 S
C451 C452 1.369 1_556 S
C451 H460 0.930 . S
C452 N449 1.346 . S
C452 C451 1.369 1_554 S
C452 H455 0.928 1_554 S
C453 N449 1.345 . S
C453 C454 1.371 . S
C453 H456 0.931 . S
C454 C450 1.391 . S
C454 C453 1.371 . S
C454 H461 0.930 . S
H455 C452 0.928 1_556 S
H456 C453 0.931 . S
H457 C433 0.930 . S
H458 C430 0.930 . S
H459 C439 0.930 . S
H460 C451 0.930 . S
H461 C454 0.930 . S
C462 C463 1.351 . S
C462 N465 1.368 . S
C462 H467 0.931 . S
C463 C462 1.351 . S
C463 N464 1.373 . S
C463 H491 0.930 . S
N464 C463 1.373 . S
N464 C466 1.340 . S
N465 C462 1.368 . S
N465 C466 1.321 . S
N465 Co468 2.135 1_554 S
C466 N464 1.340 . S
C466 N465 1.321 . S
C466 H490 0.930 . S
H467 C462 0.931 . S
Co468 N465 2.135 1_556 S
Co468 N471 2.121 . S
Co468 O476 2.055 1_565 S
Co468 O479 2.039 1_565 S
Co468 N482 2.140 . S
C469 O470 1.227 . S
C469 O479 1.265 1_565 S
O470 C469 1.227 . S
N471 Co468 2.121 . S
N471 C473 1.375 . S
N471 C474 1.313 . S
C472 C473 1.338 . S
C472 N475 1.377 . S
C472 H492 0.930 . S
C473 N471 1.375 . S
C473 C472 1.338 . S
C473 H477 0.931 . S
C474 N471 1.313 . S
C474 N475 1.344 . S
C474 H478 0.930 . S
N475 C472 1.377 . S
N475 C474 1.344 . S
O476 Co468 2.055 1_545 S
O476 C480 1.253 1_545 S
H477 C473 0.931 . S
H478 C474 0.930 . S
O479 Co468 2.039 1_545 S
O479 C469 1.265 1_545 S
C480 O476 1.253 1_565 S
C480 O481 1.227 . S
O481 C480 1.227 . S
N482 Co468 2.140 . S
N482 C485 1.346 . S
N482 C486 1.345 . S
C483 C484 1.387 1_556 S
C483 C487 1.391 . S
C484 C483 1.387 1_554 S
C484 C485 1.369 1_554 S
C484 H493 0.930 . S
C485 N482 1.346 . S
C485 C484 1.369 1_556 S
C485 H488 0.928 1_556 S
C486 N482 1.345 . S
C486 C487 1.371 . S
C486 H489 0.931 . S
C487 C483 1.391 . S
C487 C486 1.371 . S
C487 H494 0.930 . S
H488 C485 0.928 1_554 S
H489 C486 0.931 . S
H490 C466 0.930 . S
H491 C463 0.930 . S
H492 C472 0.930 . S
H493 C484 0.930 . S
H494 C487 0.930 . S
C495 C496 1.351 . S
C495 N498 1.368 . S
C495 H500 0.931 . S
C496 C495 1.351 . S
C496 N497 1.373 . S
C496 H524 0.930 . S
N497 C496 1.373 . S
N497 C499 1.340 . S
N498 C495 1.368 . S
N498 C499 1.321 . S
N498 Co501 2.135 1_554 S
C499 N497 1.340 . S
C499 N498 1.321 . S
C499 H523 0.930 . S
H500 C495 0.931 . S
Co501 N498 2.135 1_556 S
Co501 N504 2.121 . S
Co501 O509 2.055 . S
Co501 O512 2.039 . S
Co501 N515 2.140 . S
C502 O503 1.227 . S
C502 O512 1.265 . S
O503 C502 1.227 . S
N504 Co501 2.121 . S
N504 C506 1.375 . S
N504 C507 1.313 . S
C505 C506 1.338 . S
C505 N508 1.377 . S
C505 H525 0.930 . S
C506 N504 1.375 . S
C506 C505 1.338 . S
C506 H510 0.931 . S
C507 N504 1.313 . S
C507 N508 1.344 . S
C507 H511 0.930 . S
N508 C505 1.377 . S
N508 C507 1.344 . S
O509 Co501 2.055 . S
O509 C513 1.253 . S
H510 C506 0.931 . S
H511 C507 0.930 . S
O512 Co501 2.039 . S
O512 C502 1.265 . S
C513 O509 1.253 . S
C513 O514 1.227 . S
O514 C513 1.227 . S
N515 Co501 2.140 . S
N515 C518 1.346 . S
N515 C519 1.345 . S
C516 C517 1.387 1_556 S
C516 C520 1.391 . S
C517 C516 1.387 1_554 S
C517 C518 1.369 1_554 S
C517 H526 0.930 . S
C518 N515 1.346 . S
C518 C517 1.369 1_556 S
C518 H521 0.928 1_556 S
C519 N515 1.345 . S
C519 C520 1.371 . S
C519 H522 0.931 . S
C520 C516 1.391 . S
C520 C519 1.371 . S
C520 H527 0.930 . S
H521 C518 0.928 1_554 S
H522 C519 0.931 . S
H523 C499 0.930 . S
H524 C496 0.930 . S
H525 C505 0.930 . S
H526 C517 0.930 . S
H527 C520 0.930 . S
C348 C18 1.639 . S
C51 C249 1.638 1_455 S
C502 C40 1.526 1_556 S
C73 C7 1.526 1_656 S
C84 C282 1.639 . S
C183 C117 1.638 1_455 S
C436 C106 1.526 1_554 S
C480 C150 1.638 1_565 S
C172 C370 1.526 . S
C205 C139 1.526 1_665 S
C414 C216 1.638 1_545 S
C304 C238 1.526 . S
C513 C315 1.638 . S
C271 C337 1.526 . S
C381 C447 1.638 . S
C469 C403 1.526 1_566 S
N13 N2 1.857 . S
N35 N46 1.857 . S
N79 N68 1.857 . S
N101 N112 1.857 . S
N134 N145 1.857 . S
N167 N178 1.857 . S
N211 N200 1.857 . S
N244 N233 1.857 . S
N277 N266 1.857 . S
N310 N299 1.857 . S
N343 N332 1.857 . S
N376 N365 1.857 . S
N409 N398 1.857 . S
N431 N442 1.857 . S
N475 N464 1.857 . S
N497 N508 1.857 . S
C21 C54 1.504 . S
C87 C120 1.504 . S
C153 C186 1.504 . S
C219 C252 1.504 . S
C318 C285 1.504 . S
C351 C384 1.504 . S
C450 C417 1.504 . S
C516 C483 1.504 . S
